# Generated by pormake.
# Topology ana-f, (3,3)-cn, num edge types: 1
# Building blocks:
#     Node 0, Type 0, BuildingBlock: OLANEW_clean_sbu_2, # of connection points: 3
#     Node 1, Type 0, BuildingBlock: OLANEW_clean_sbu_2, # of connection points: 3
#     Node 2, Type 0, BuildingBlock: OLANEW_clean_sbu_2, # of connection points: 3
#     Node 3, Type 0, BuildingBlock: OLANEW_clean_sbu_2, # of connection points: 3
#     Node 4, Type 0, BuildingBlock: OLANEW_clean_sbu_2, # of connection points: 3
#     Node 5, Type 0, BuildingBlock: OLANEW_clean_sbu_2, # of connection points: 3
#     Node 6, Type 0, BuildingBlock: OLANEW_clean_sbu_2, # of connection points: 3
#     Node 7, Type 0, BuildingBlock: OLANEW_clean_sbu_2, # of connection points: 3
#     Node 8, Type 0, BuildingBlock: OLANEW_clean_sbu_2, # of connection points: 3
#     Node 9, Type 0, BuildingBlock: OLANEW_clean_sbu_2, # of connection points: 3
#     Node 10, Type 0, BuildingBlock: OLANEW_clean_sbu_2, # of connection points: 3
#     Node 11, Type 0, BuildingBlock: OLANEW_clean_sbu_2, # of connection points: 3
#     Node 12, Type 0, BuildingBlock: OLANEW_clean_sbu_2, # of connection points: 3
#     Node 13, Type 0, BuildingBlock: OLANEW_clean_sbu_2, # of connection points: 3
#     Node 14, Type 0, BuildingBlock: OLANEW_clean_sbu_2, # of connection points: 3
#     Node 15, Type 0, BuildingBlock: OLANEW_clean_sbu_2, # of connection points: 3
#     Node 16, Type 0, BuildingBlock: OLANEW_clean_sbu_2, # of connection points: 3
#     Node 17, Type 0, BuildingBlock: OLANEW_clean_sbu_2, # of connection points: 3
#     Node 18, Type 0, BuildingBlock: OLANEW_clean_sbu_2, # of connection points: 3
#     Node 19, Type 0, BuildingBlock: OLANEW_clean_sbu_2, # of connection points: 3
#     Node 20, Type 0, BuildingBlock: OLANEW_clean_sbu_2, # of connection points: 3
#     Node 21, Type 0, BuildingBlock: OLANEW_clean_sbu_2, # of connection points: 3
#     Node 22, Type 0, BuildingBlock: OLANEW_clean_sbu_2, # of connection points: 3
#     Node 23, Type 0, BuildingBlock: OLANEW_clean_sbu_2, # of connection points: 3
#     Node 24, Type 0, BuildingBlock: OLANEW_clean_sbu_2, # of connection points: 3
#     Node 25, Type 0, BuildingBlock: OLANEW_clean_sbu_2, # of connection points: 3
#     Node 26, Type 0, BuildingBlock: OLANEW_clean_sbu_2, # of connection points: 3
#     Node 27, Type 0, BuildingBlock: OLANEW_clean_sbu_2, # of connection points: 3
#     Node 28, Type 0, BuildingBlock: OLANEW_clean_sbu_2, # of connection points: 3
#     Node 29, Type 0, BuildingBlock: OLANEW_clean_sbu_2, # of connection points: 3
#     Node 30, Type 0, BuildingBlock: OLANEW_clean_sbu_2, # of connection points: 3
#     Node 31, Type 0, BuildingBlock: OLANEW_clean_sbu_2, # of connection points: 3
#     Node 32, Type 0, BuildingBlock: OLANEW_clean_sbu_2, # of connection points: 3
#     Node 33, Type 0, BuildingBlock: OLANEW_clean_sbu_2, # of connection points: 3
#     Node 34, Type 0, BuildingBlock: OLANEW_clean_sbu_2, # of connection points: 3
#     Node 35, Type 0, BuildingBlock: OLANEW_clean_sbu_2, # of connection points: 3
#     Node 36, Type 0, BuildingBlock: OLANEW_clean_sbu_2, # of connection points: 3
#     Node 37, Type 0, BuildingBlock: OLANEW_clean_sbu_2, # of connection points: 3
#     Node 38, Type 0, BuildingBlock: OLANEW_clean_sbu_2, # of connection points: 3
#     Node 39, Type 0, BuildingBlock: OLANEW_clean_sbu_2, # of connection points: 3
#     Node 40, Type 0, BuildingBlock: OLANEW_clean_sbu_2, # of connection points: 3
#     Node 41, Type 0, BuildingBlock: OLANEW_clean_sbu_2, # of connection points: 3
#     Node 42, Type 0, BuildingBlock: OLANEW_clean_sbu_2, # of connection points: 3
#     Node 43, Type 0, BuildingBlock: OLANEW_clean_sbu_2, # of connection points: 3
#     Node 44, Type 0, BuildingBlock: OLANEW_clean_sbu_2, # of connection points: 3
#     Node 45, Type 0, BuildingBlock: OLANEW_clean_sbu_2, # of connection points: 3
#     Node 46, Type 0, BuildingBlock: OLANEW_clean_sbu_2, # of connection points: 3
#     Node 47, Type 0, BuildingBlock: OLANEW_clean_sbu_2, # of connection points: 3
#     Node 48, Type 0, BuildingBlock: OLANEW_clean_sbu_2, # of connection points: 3
#     Node 49, Type 0, BuildingBlock: OLANEW_clean_sbu_2, # of connection points: 3
#     Node 50, Type 0, BuildingBlock: OLANEW_clean_sbu_2, # of connection points: 3
#     Node 51, Type 0, BuildingBlock: OLANEW_clean_sbu_2, # of connection points: 3
#     Node 52, Type 0, BuildingBlock: OLANEW_clean_sbu_2, # of connection points: 3
#     Node 53, Type 0, BuildingBlock: OLANEW_clean_sbu_2, # of connection points: 3
#     Node 54, Type 0, BuildingBlock: OLANEW_clean_sbu_2, # of connection points: 3
#     Node 55, Type 0, BuildingBlock: OLANEW_clean_sbu_2, # of connection points: 3
#     Node 56, Type 0, BuildingBlock: OLANEW_clean_sbu_2, # of connection points: 3
#     Node 57, Type 0, BuildingBlock: OLANEW_clean_sbu_2, # of connection points: 3
#     Node 58, Type 0, BuildingBlock: OLANEW_clean_sbu_2, # of connection points: 3
#     Node 59, Type 0, BuildingBlock: OLANEW_clean_sbu_2, # of connection points: 3
#     Node 60, Type 0, BuildingBlock: OLANEW_clean_sbu_2, # of connection points: 3
#     Node 61, Type 0, BuildingBlock: OLANEW_clean_sbu_2, # of connection points: 3
#     Node 62, Type 0, BuildingBlock: OLANEW_clean_sbu_2, # of connection points: 3
#     Node 63, Type 0, BuildingBlock: OLANEW_clean_sbu_2, # of connection points: 3
#     Node 64, Type 0, BuildingBlock: OLANEW_clean_sbu_2, # of connection points: 3
#     Node 65, Type 0, BuildingBlock: OLANEW_clean_sbu_2, # of connection points: 3
#     Node 66, Type 0, BuildingBlock: OLANEW_clean_sbu_2, # of connection points: 3
#     Node 67, Type 0, BuildingBlock: OLANEW_clean_sbu_2, # of connection points: 3
#     Node 68, Type 0, BuildingBlock: OLANEW_clean_sbu_2, # of connection points: 3
#     Node 69, Type 0, BuildingBlock: OLANEW_clean_sbu_2, # of connection points: 3
#     Node 70, Type 0, BuildingBlock: OLANEW_clean_sbu_2, # of connection points: 3
#     Node 71, Type 0, BuildingBlock: OLANEW_clean_sbu_2, # of connection points: 3
#     Node 72, Type 0, BuildingBlock: OLANEW_clean_sbu_2, # of connection points: 3
#     Node 73, Type 0, BuildingBlock: OLANEW_clean_sbu_2, # of connection points: 3
#     Node 74, Type 0, BuildingBlock: OLANEW_clean_sbu_2, # of connection points: 3
#     Node 75, Type 0, BuildingBlock: OLANEW_clean_sbu_2, # of connection points: 3
#     Node 76, Type 0, BuildingBlock: OLANEW_clean_sbu_2, # of connection points: 3
#     Node 77, Type 0, BuildingBlock: OLANEW_clean_sbu_2, # of connection points: 3
#     Node 78, Type 0, BuildingBlock: OLANEW_clean_sbu_2, # of connection points: 3
#     Node 79, Type 0, BuildingBlock: OLANEW_clean_sbu_2, # of connection points: 3
#     Node 80, Type 0, BuildingBlock: OLANEW_clean_sbu_2, # of connection points: 3
#     Node 81, Type 0, BuildingBlock: OLANEW_clean_sbu_2, # of connection points: 3
#     Node 82, Type 0, BuildingBlock: OLANEW_clean_sbu_2, # of connection points: 3
#     Node 83, Type 0, BuildingBlock: OLANEW_clean_sbu_2, # of connection points: 3
#     Node 84, Type 0, BuildingBlock: OLANEW_clean_sbu_2, # of connection points: 3
#     Node 85, Type 0, BuildingBlock: OLANEW_clean_sbu_2, # of connection points: 3
#     Node 86, Type 0, BuildingBlock: OLANEW_clean_sbu_2, # of connection points: 3
#     Node 87, Type 0, BuildingBlock: OLANEW_clean_sbu_2, # of connection points: 3
#     Node 88, Type 0, BuildingBlock: OLANEW_clean_sbu_2, # of connection points: 3
#     Node 89, Type 0, BuildingBlock: OLANEW_clean_sbu_2, # of connection points: 3
#     Node 90, Type 0, BuildingBlock: OLANEW_clean_sbu_2, # of connection points: 3
#     Node 91, Type 0, BuildingBlock: OLANEW_clean_sbu_2, # of connection points: 3
#     Node 92, Type 0, BuildingBlock: OLANEW_clean_sbu_2, # of connection points: 3
#     Node 93, Type 0, BuildingBlock: OLANEW_clean_sbu_2, # of connection points: 3
#     Node 94, Type 0, BuildingBlock: OLANEW_clean_sbu_2, # of connection points: 3
#     Node 95, Type 0, BuildingBlock: OLANEW_clean_sbu_2, # of connection points: 3
#     Node 96, Type 1, BuildingBlock: BETDIP_clean_linker_0, # of connection points: 3
#     Node 97, Type 1, BuildingBlock: BETDIP_clean_linker_0, # of connection points: 3
#     Node 98, Type 1, BuildingBlock: BETDIP_clean_linker_0, # of connection points: 3
#     Node 99, Type 1, BuildingBlock: BETDIP_clean_linker_0, # of connection points: 3
#     Node 100, Type 1, BuildingBlock: BETDIP_clean_linker_0, # of connection points: 3
#     Node 101, Type 1, BuildingBlock: BETDIP_clean_linker_0, # of connection points: 3
#     Node 102, Type 1, BuildingBlock: BETDIP_clean_linker_0, # of connection points: 3
#     Node 103, Type 1, BuildingBlock: BETDIP_clean_linker_0, # of connection points: 3
#     Node 104, Type 1, BuildingBlock: BETDIP_clean_linker_0, # of connection points: 3
#     Node 105, Type 1, BuildingBlock: BETDIP_clean_linker_0, # of connection points: 3
#     Node 106, Type 1, BuildingBlock: BETDIP_clean_linker_0, # of connection points: 3
#     Node 107, Type 1, BuildingBlock: BETDIP_clean_linker_0, # of connection points: 3
#     Node 108, Type 1, BuildingBlock: BETDIP_clean_linker_0, # of connection points: 3
#     Node 109, Type 1, BuildingBlock: BETDIP_clean_linker_0, # of connection points: 3
#     Node 110, Type 1, BuildingBlock: BETDIP_clean_linker_0, # of connection points: 3
#     Node 111, Type 1, BuildingBlock: BETDIP_clean_linker_0, # of connection points: 3
#     Node 112, Type 1, BuildingBlock: BETDIP_clean_linker_0, # of connection points: 3
#     Node 113, Type 1, BuildingBlock: BETDIP_clean_linker_0, # of connection points: 3
#     Node 114, Type 1, BuildingBlock: BETDIP_clean_linker_0, # of connection points: 3
#     Node 115, Type 1, BuildingBlock: BETDIP_clean_linker_0, # of connection points: 3
#     Node 116, Type 1, BuildingBlock: BETDIP_clean_linker_0, # of connection points: 3
#     Node 117, Type 1, BuildingBlock: BETDIP_clean_linker_0, # of connection points: 3
#     Node 118, Type 1, BuildingBlock: BETDIP_clean_linker_0, # of connection points: 3
#     Node 119, Type 1, BuildingBlock: BETDIP_clean_linker_0, # of connection points: 3
#     Node 120, Type 1, BuildingBlock: BETDIP_clean_linker_0, # of connection points: 3
#     Node 121, Type 1, BuildingBlock: BETDIP_clean_linker_0, # of connection points: 3
#     Node 122, Type 1, BuildingBlock: BETDIP_clean_linker_0, # of connection points: 3
#     Node 123, Type 1, BuildingBlock: BETDIP_clean_linker_0, # of connection points: 3
#     Node 124, Type 1, BuildingBlock: BETDIP_clean_linker_0, # of connection points: 3
#     Node 125, Type 1, BuildingBlock: BETDIP_clean_linker_0, # of connection points: 3
#     Node 126, Type 1, BuildingBlock: BETDIP_clean_linker_0, # of connection points: 3
#     Node 127, Type 1, BuildingBlock: BETDIP_clean_linker_0, # of connection points: 3
#     Node 128, Type 1, BuildingBlock: BETDIP_clean_linker_0, # of connection points: 3
#     Node 129, Type 1, BuildingBlock: BETDIP_clean_linker_0, # of connection points: 3
#     Node 130, Type 1, BuildingBlock: BETDIP_clean_linker_0, # of connection points: 3
#     Node 131, Type 1, BuildingBlock: BETDIP_clean_linker_0, # of connection points: 3
#     Node 132, Type 1, BuildingBlock: BETDIP_clean_linker_0, # of connection points: 3
#     Node 133, Type 1, BuildingBlock: BETDIP_clean_linker_0, # of connection points: 3
#     Node 134, Type 1, BuildingBlock: BETDIP_clean_linker_0, # of connection points: 3
#     Node 135, Type 1, BuildingBlock: BETDIP_clean_linker_0, # of connection points: 3
#     Node 136, Type 1, BuildingBlock: BETDIP_clean_linker_0, # of connection points: 3
#     Node 137, Type 1, BuildingBlock: BETDIP_clean_linker_0, # of connection points: 3
#     Node 138, Type 1, BuildingBlock: BETDIP_clean_linker_0, # of connection points: 3
#     Node 139, Type 1, BuildingBlock: BETDIP_clean_linker_0, # of connection points: 3
#     Node 140, Type 1, BuildingBlock: BETDIP_clean_linker_0, # of connection points: 3
#     Node 141, Type 1, BuildingBlock: BETDIP_clean_linker_0, # of connection points: 3
#     Node 142, Type 1, BuildingBlock: BETDIP_clean_linker_0, # of connection points: 3
#     Node 143, Type 1, BuildingBlock: BETDIP_clean_linker_0, # of connection points: 3
#     Node 144, Type 1, BuildingBlock: BETDIP_clean_linker_0, # of connection points: 3
#     Node 145, Type 1, BuildingBlock: BETDIP_clean_linker_0, # of connection points: 3
#     Node 146, Type 1, BuildingBlock: BETDIP_clean_linker_0, # of connection points: 3
#     Node 147, Type 1, BuildingBlock: BETDIP_clean_linker_0, # of connection points: 3
#     Node 148, Type 1, BuildingBlock: BETDIP_clean_linker_0, # of connection points: 3
#     Node 149, Type 1, BuildingBlock: BETDIP_clean_linker_0, # of connection points: 3
#     Node 150, Type 1, BuildingBlock: BETDIP_clean_linker_0, # of connection points: 3
#     Node 151, Type 1, BuildingBlock: BETDIP_clean_linker_0, # of connection points: 3
#     Node 152, Type 1, BuildingBlock: BETDIP_clean_linker_0, # of connection points: 3
#     Node 153, Type 1, BuildingBlock: BETDIP_clean_linker_0, # of connection points: 3
#     Node 154, Type 1, BuildingBlock: BETDIP_clean_linker_0, # of connection points: 3
#     Node 155, Type 1, BuildingBlock: BETDIP_clean_linker_0, # of connection points: 3
#     Node 156, Type 1, BuildingBlock: BETDIP_clean_linker_0, # of connection points: 3
#     Node 157, Type 1, BuildingBlock: BETDIP_clean_linker_0, # of connection points: 3
#     Node 158, Type 1, BuildingBlock: BETDIP_clean_linker_0, # of connection points: 3
#     Node 159, Type 1, BuildingBlock: BETDIP_clean_linker_0, # of connection points: 3
#     Node 160, Type 1, BuildingBlock: BETDIP_clean_linker_0, # of connection points: 3
#     Node 161, Type 1, BuildingBlock: BETDIP_clean_linker_0, # of connection points: 3
#     Node 162, Type 1, BuildingBlock: BETDIP_clean_linker_0, # of connection points: 3
#     Node 163, Type 1, BuildingBlock: BETDIP_clean_linker_0, # of connection points: 3
#     Node 164, Type 1, BuildingBlock: BETDIP_clean_linker_0, # of connection points: 3
#     Node 165, Type 1, BuildingBlock: BETDIP_clean_linker_0, # of connection points: 3
#     Node 166, Type 1, BuildingBlock: BETDIP_clean_linker_0, # of connection points: 3
#     Node 167, Type 1, BuildingBlock: BETDIP_clean_linker_0, # of connection points: 3
#     Node 168, Type 1, BuildingBlock: BETDIP_clean_linker_0, # of connection points: 3
#     Node 169, Type 1, BuildingBlock: BETDIP_clean_linker_0, # of connection points: 3
#     Node 170, Type 1, BuildingBlock: BETDIP_clean_linker_0, # of connection points: 3
#     Node 171, Type 1, BuildingBlock: BETDIP_clean_linker_0, # of connection points: 3
#     Node 172, Type 1, BuildingBlock: BETDIP_clean_linker_0, # of connection points: 3
#     Node 173, Type 1, BuildingBlock: BETDIP_clean_linker_0, # of connection points: 3
#     Node 174, Type 1, BuildingBlock: BETDIP_clean_linker_0, # of connection points: 3
#     Node 175, Type 1, BuildingBlock: BETDIP_clean_linker_0, # of connection points: 3
#     Node 176, Type 1, BuildingBlock: BETDIP_clean_linker_0, # of connection points: 3
#     Node 177, Type 1, BuildingBlock: BETDIP_clean_linker_0, # of connection points: 3
#     Node 178, Type 1, BuildingBlock: BETDIP_clean_linker_0, # of connection points: 3
#     Node 179, Type 1, BuildingBlock: BETDIP_clean_linker_0, # of connection points: 3
#     Node 180, Type 1, BuildingBlock: BETDIP_clean_linker_0, # of connection points: 3
#     Node 181, Type 1, BuildingBlock: BETDIP_clean_linker_0, # of connection points: 3
#     Node 182, Type 1, BuildingBlock: BETDIP_clean_linker_0, # of connection points: 3
#     Node 183, Type 1, BuildingBlock: BETDIP_clean_linker_0, # of connection points: 3
#     Node 184, Type 1, BuildingBlock: BETDIP_clean_linker_0, # of connection points: 3
#     Node 185, Type 1, BuildingBlock: BETDIP_clean_linker_0, # of connection points: 3
#     Node 186, Type 1, BuildingBlock: BETDIP_clean_linker_0, # of connection points: 3
#     Node 187, Type 1, BuildingBlock: BETDIP_clean_linker_0, # of connection points: 3
#     Node 188, Type 1, BuildingBlock: BETDIP_clean_linker_0, # of connection points: 3
#     Node 189, Type 1, BuildingBlock: BETDIP_clean_linker_0, # of connection points: 3
#     Node 190, Type 1, BuildingBlock: BETDIP_clean_linker_0, # of connection points: 3
#     Node 191, Type 1, BuildingBlock: BETDIP_clean_linker_0, # of connection points: 3
#     Edge 192, Type (0, 1), None
#     Edge 193, Type (0, 1), None
#     Edge 194, Type (0, 1), None
#     Edge 195, Type (0, 1), None
#     Edge 196, Type (0, 1), None
#     Edge 197, Type (0, 1), None
#     Edge 198, Type (0, 1), None
#     Edge 199, Type (0, 1), None
#     Edge 200, Type (0, 1), None
#     Edge 201, Type (0, 1), None
#     Edge 202, Type (0, 1), None
#     Edge 203, Type (0, 1), None
#     Edge 204, Type (0, 1), None
#     Edge 205, Type (0, 1), None
#     Edge 206, Type (0, 1), None
#     Edge 207, Type (0, 1), None
#     Edge 208, Type (0, 1), None
#     Edge 209, Type (0, 1), None
#     Edge 210, Type (0, 1), None
#     Edge 211, Type (0, 1), None
#     Edge 212, Type (0, 1), None
#     Edge 213, Type (0, 1), None
#     Edge 214, Type (0, 1), None
#     Edge 215, Type (0, 1), None
#     Edge 216, Type (0, 1), None
#     Edge 217, Type (0, 1), None
#     Edge 218, Type (0, 1), None
#     Edge 219, Type (0, 1), None
#     Edge 220, Type (0, 1), None
#     Edge 221, Type (0, 1), None
#     Edge 222, Type (0, 1), None
#     Edge 223, Type (0, 1), None
#     Edge 224, Type (0, 1), None
#     Edge 225, Type (0, 1), None
#     Edge 226, Type (0, 1), None
#     Edge 227, Type (0, 1), None
#     Edge 228, Type (0, 1), None
#     Edge 229, Type (0, 1), None
#     Edge 230, Type (0, 1), None
#     Edge 231, Type (0, 1), None
#     Edge 232, Type (0, 1), None
#     Edge 233, Type (0, 1), None
#     Edge 234, Type (0, 1), None
#     Edge 235, Type (0, 1), None
#     Edge 236, Type (0, 1), None
#     Edge 237, Type (0, 1), None
#     Edge 238, Type (0, 1), None
#     Edge 239, Type (0, 1), None
#     Edge 240, Type (0, 1), None
#     Edge 241, Type (0, 1), None
#     Edge 242, Type (0, 1), None
#     Edge 243, Type (0, 1), None
#     Edge 244, Type (0, 1), None
#     Edge 245, Type (0, 1), None
#     Edge 246, Type (0, 1), None
#     Edge 247, Type (0, 1), None
#     Edge 248, Type (0, 1), None
#     Edge 249, Type (0, 1), None
#     Edge 250, Type (0, 1), None
#     Edge 251, Type (0, 1), None
#     Edge 252, Type (0, 1), None
#     Edge 253, Type (0, 1), None
#     Edge 254, Type (0, 1), None
#     Edge 255, Type (0, 1), None
#     Edge 256, Type (0, 1), None
#     Edge 257, Type (0, 1), None
#     Edge 258, Type (0, 1), None
#     Edge 259, Type (0, 1), None
#     Edge 260, Type (0, 1), None
#     Edge 261, Type (0, 1), None
#     Edge 262, Type (0, 1), None
#     Edge 263, Type (0, 1), None
#     Edge 264, Type (0, 1), None
#     Edge 265, Type (0, 1), None
#     Edge 266, Type (0, 1), None
#     Edge 267, Type (0, 1), None
#     Edge 268, Type (0, 1), None
#     Edge 269, Type (0, 1), None
#     Edge 270, Type (0, 1), None
#     Edge 271, Type (0, 1), None
#     Edge 272, Type (0, 1), None
#     Edge 273, Type (0, 1), None
#     Edge 274, Type (0, 1), None
#     Edge 275, Type (0, 1), None
#     Edge 276, Type (0, 1), None
#     Edge 277, Type (0, 1), None
#     Edge 278, Type (0, 1), None
#     Edge 279, Type (0, 1), None
#     Edge 280, Type (0, 1), None
#     Edge 281, Type (0, 1), None
#     Edge 282, Type (0, 1), None
#     Edge 283, Type (0, 1), None
#     Edge 284, Type (0, 1), None
#     Edge 285, Type (0, 1), None
#     Edge 286, Type (0, 1), None
#     Edge 287, Type (0, 1), None
#     Edge 288, Type (0, 1), None
#     Edge 289, Type (0, 1), None
#     Edge 290, Type (0, 1), None
#     Edge 291, Type (0, 1), None
#     Edge 292, Type (0, 1), None
#     Edge 293, Type (0, 1), None
#     Edge 294, Type (0, 1), None
#     Edge 295, Type (0, 1), None
#     Edge 296, Type (0, 1), None
#     Edge 297, Type (0, 1), None
#     Edge 298, Type (0, 1), None
#     Edge 299, Type (0, 1), None
#     Edge 300, Type (0, 1), None
#     Edge 301, Type (0, 1), None
#     Edge 302, Type (0, 1), None
#     Edge 303, Type (0, 1), None
#     Edge 304, Type (0, 1), None
#     Edge 305, Type (0, 1), None
#     Edge 306, Type (0, 1), None
#     Edge 307, Type (0, 1), None
#     Edge 308, Type (0, 1), None
#     Edge 309, Type (0, 1), None
#     Edge 310, Type (0, 1), None
#     Edge 311, Type (0, 1), None
#     Edge 312, Type (0, 1), None
#     Edge 313, Type (0, 1), None
#     Edge 314, Type (0, 1), None
#     Edge 315, Type (0, 1), None
#     Edge 316, Type (0, 1), None
#     Edge 317, Type (0, 1), None
#     Edge 318, Type (0, 1), None
#     Edge 319, Type (0, 1), None
#     Edge 320, Type (0, 1), None
#     Edge 321, Type (0, 1), None
#     Edge 322, Type (0, 1), None
#     Edge 323, Type (0, 1), None
#     Edge 324, Type (0, 1), None
#     Edge 325, Type (0, 1), None
#     Edge 326, Type (0, 1), None
#     Edge 327, Type (0, 1), None
#     Edge 328, Type (0, 1), None
#     Edge 329, Type (0, 1), None
#     Edge 330, Type (0, 1), None
#     Edge 331, Type (0, 1), None
#     Edge 332, Type (0, 1), None
#     Edge 333, Type (0, 1), None
#     Edge 334, Type (0, 1), None
#     Edge 335, Type (0, 1), None
#     Edge 336, Type (0, 1), None
#     Edge 337, Type (0, 1), None
#     Edge 338, Type (0, 1), None
#     Edge 339, Type (0, 1), None
#     Edge 340, Type (0, 1), None
#     Edge 341, Type (0, 1), None
#     Edge 342, Type (0, 1), None
#     Edge 343, Type (0, 1), None
#     Edge 344, Type (0, 1), None
#     Edge 345, Type (0, 1), None
#     Edge 346, Type (0, 1), None
#     Edge 347, Type (0, 1), None
#     Edge 348, Type (0, 1), None
#     Edge 349, Type (0, 1), None
#     Edge 350, Type (0, 1), None
#     Edge 351, Type (0, 1), None
#     Edge 352, Type (0, 1), None
#     Edge 353, Type (0, 1), None
#     Edge 354, Type (0, 1), None
#     Edge 355, Type (0, 1), None
#     Edge 356, Type (0, 1), None
#     Edge 357, Type (0, 1), None
#     Edge 358, Type (0, 1), None
#     Edge 359, Type (0, 1), None
#     Edge 360, Type (0, 1), None
#     Edge 361, Type (0, 1), None
#     Edge 362, Type (0, 1), None
#     Edge 363, Type (0, 1), None
#     Edge 364, Type (0, 1), None
#     Edge 365, Type (0, 1), None
#     Edge 366, Type (0, 1), None
#     Edge 367, Type (0, 1), None
#     Edge 368, Type (0, 1), None
#     Edge 369, Type (0, 1), None
#     Edge 370, Type (0, 1), None
#     Edge 371, Type (0, 1), None
#     Edge 372, Type (0, 1), None
#     Edge 373, Type (0, 1), None
#     Edge 374, Type (0, 1), None
#     Edge 375, Type (0, 1), None
#     Edge 376, Type (0, 1), None
#     Edge 377, Type (0, 1), None
#     Edge 378, Type (0, 1), None
#     Edge 379, Type (0, 1), None
#     Edge 380, Type (0, 1), None
#     Edge 381, Type (0, 1), None
#     Edge 382, Type (0, 1), None
#     Edge 383, Type (0, 1), None
#     Edge 384, Type (0, 1), None
#     Edge 385, Type (0, 1), None
#     Edge 386, Type (0, 1), None
#     Edge 387, Type (0, 1), None
#     Edge 388, Type (0, 1), None
#     Edge 389, Type (0, 1), None
#     Edge 390, Type (0, 1), None
#     Edge 391, Type (0, 1), None
#     Edge 392, Type (0, 1), None
#     Edge 393, Type (0, 1), None
#     Edge 394, Type (0, 1), None
#     Edge 395, Type (0, 1), None
#     Edge 396, Type (0, 1), None
#     Edge 397, Type (0, 1), None
#     Edge 398, Type (0, 1), None
#     Edge 399, Type (0, 1), None
#     Edge 400, Type (0, 1), None
#     Edge 401, Type (0, 1), None
#     Edge 402, Type (0, 1), None
#     Edge 403, Type (0, 1), None
#     Edge 404, Type (0, 1), None
#     Edge 405, Type (0, 1), None
#     Edge 406, Type (0, 1), None
#     Edge 407, Type (0, 1), None
#     Edge 408, Type (0, 1), None
#     Edge 409, Type (0, 1), None
#     Edge 410, Type (0, 1), None
#     Edge 411, Type (0, 1), None
#     Edge 412, Type (0, 1), None
#     Edge 413, Type (0, 1), None
#     Edge 414, Type (0, 1), None
#     Edge 415, Type (0, 1), None
#     Edge 416, Type (0, 1), None
#     Edge 417, Type (0, 1), None
#     Edge 418, Type (0, 1), None
#     Edge 419, Type (0, 1), None
#     Edge 420, Type (0, 1), None
#     Edge 421, Type (0, 1), None
#     Edge 422, Type (0, 1), None
#     Edge 423, Type (0, 1), None
#     Edge 424, Type (0, 1), None
#     Edge 425, Type (0, 1), None
#     Edge 426, Type (0, 1), None
#     Edge 427, Type (0, 1), None
#     Edge 428, Type (0, 1), None
#     Edge 429, Type (0, 1), None
#     Edge 430, Type (0, 1), None
#     Edge 431, Type (0, 1), None
#     Edge 432, Type (0, 1), None
#     Edge 433, Type (0, 1), None
#     Edge 434, Type (0, 1), None
#     Edge 435, Type (0, 1), None
#     Edge 436, Type (0, 1), None
#     Edge 437, Type (0, 1), None
#     Edge 438, Type (0, 1), None
#     Edge 439, Type (0, 1), None
#     Edge 440, Type (0, 1), None
#     Edge 441, Type (0, 1), None
#     Edge 442, Type (0, 1), None
#     Edge 443, Type (0, 1), None
#     Edge 444, Type (0, 1), None
#     Edge 445, Type (0, 1), None
#     Edge 446, Type (0, 1), None
#     Edge 447, Type (0, 1), None
#     Edge 448, Type (0, 1), None
#     Edge 449, Type (0, 1), None
#     Edge 450, Type (0, 1), None
#     Edge 451, Type (0, 1), None
#     Edge 452, Type (0, 1), None
#     Edge 453, Type (0, 1), None
#     Edge 454, Type (0, 1), None
#     Edge 455, Type (0, 1), None
#     Edge 456, Type (0, 1), None
#     Edge 457, Type (0, 1), None
#     Edge 458, Type (0, 1), None
#     Edge 459, Type (0, 1), None
#     Edge 460, Type (0, 1), None
#     Edge 461, Type (0, 1), None
#     Edge 462, Type (0, 1), None
#     Edge 463, Type (0, 1), None
#     Edge 464, Type (0, 1), None
#     Edge 465, Type (0, 1), None
#     Edge 466, Type (0, 1), None
#     Edge 467, Type (0, 1), None
#     Edge 468, Type (0, 1), None
#     Edge 469, Type (0, 1), None
#     Edge 470, Type (0, 1), None
#     Edge 471, Type (0, 1), None
#     Edge 472, Type (0, 1), None
#     Edge 473, Type (0, 1), None
#     Edge 474, Type (0, 1), None
#     Edge 475, Type (0, 1), None
#     Edge 476, Type (0, 1), None
#     Edge 477, Type (0, 1), None
#     Edge 478, Type (0, 1), None
#     Edge 479, Type (0, 1), None
# Relax obj value: 0.002
# Max RMSD: 0.025
# Mean RMSD: 0.023
data_MOF--net-ana-f--node1-OLANEW_clean_sbu_2--node2-BETDIP_clean_linker_0--edge1-none
_symmetry_space_group_name_H-M    P1
_symmetry_Int_Tables_number       1
_symmetry_cell_setting            triclinic
loop_
_symmetry_equiv_pos_as_xyz
'x, y, z'
_cell_length_a     71.023301
_cell_length_b     71.023516
_cell_length_c     71.023879
_cell_angle_alpha  90.014904
_cell_angle_beta   90.0149
_cell_angle_gamma 90.025893
loop_
_atom_site_label
_atom_site_type_symbol
_atom_site_fract_x
_atom_site_fract_y
_atom_site_fract_z
_atom_type_partial_charge
O0 O 0.04767 0.2136 0.40433 0.0
Cd1 Cd 0.02033 0.2024 0.42187 0.0
O2 O 0.06288 0.19229 0.42031 0.0
Cd3 Cd 0.08557 0.17416 0.43065 0.0
O4 O 0.1123 0.16354 0.44132 0.0
C5 C 0.11341 0.15015 0.45313 0.0
O6 O 0.09789 0.142 0.45904 0.0
C7 C 0.06305 0.20521 0.40785 0.0
C8 C 0.99469 0.18628 0.39719 0.0
O9 O 0.99287 0.20342 0.40248 0.0
O10 O 0.00841 0.17659 0.40375 0.0
O11 O 0.03322 0.79761 0.65439 0.0
Cd12 Cd 0.04444 0.7703 0.67196 0.0
O13 O 0.05453 0.81287 0.67037 0.0
Cd14 Cd 0.07265 0.83559 0.68069 0.0
O15 O 0.08325 0.86235 0.69134 0.0
C16 C 0.09665 0.86348 0.70314 0.0
O17 O 0.10483 0.84798 0.70905 0.0
C18 C 0.0416 0.81301 0.6579 0.0
C19 C 0.06055 0.74465 0.64731 0.0
O20 O 0.04341 0.74282 0.6526 0.0
O21 O 0.07023 0.75839 0.65386 0.0
O22 O 0.44902 0.78324 0.90427 0.0
Cd23 Cd 0.47636 0.79448 0.9218 0.0
O24 O 0.4338 0.80456 0.92025 0.0
Cd25 Cd 0.41111 0.82268 0.93059 0.0
O26 O 0.38437 0.83328 0.94126 0.0
C27 C 0.38327 0.84667 0.95308 0.0
O28 O 0.39878 0.85483 0.959 0.0
C29 C 0.43363 0.79162 0.90779 0.0
C30 C 0.50199 0.81056 0.89712 0.0
O31 O 0.50381 0.79343 0.90242 0.0
O32 O 0.48828 0.82025 0.90366 0.0
O33 O 0.4635 0.19903 0.15444 0.0
Cd34 Cd 0.45229 0.22637 0.17197 0.0
O35 O 0.44219 0.1838 0.17042 0.0
Cd36 Cd 0.42407 0.1611 0.18076 0.0
O37 O 0.41346 0.13436 0.19143 0.0
C38 C 0.40006 0.13324 0.20322 0.0
O39 O 0.39189 0.14875 0.20912 0.0
C40 C 0.45512 0.18363 0.15796 0.0
C41 C 0.43618 0.25197 0.14729 0.0
O42 O 0.45332 0.25381 0.15258 0.0
O43 O 0.42649 0.23825 0.15385 0.0
O44 O 0.04765 0.78318 0.09224 0.0
Cd45 Cd 0.02032 0.79439 0.07471 0.0
O46 O 0.06289 0.80449 0.07626 0.0
Cd47 Cd 0.08559 0.82261 0.06592 0.0
O48 O 0.11233 0.83322 0.05525 0.0
C49 C 0.11344 0.84662 0.04346 0.0
O50 O 0.09793 0.85479 0.03756 0.0
C51 C 0.06305 0.79156 0.08872 0.0
C52 C 0.99471 0.81051 0.09939 0.0
O53 O 0.99287 0.79337 0.0941 0.0
O54 O 0.00843 0.82019 0.09283 0.0
O55 O 0.46344 0.79766 0.34241 0.0
Cd56 Cd 0.45221 0.77032 0.32487 0.0
O57 O 0.44213 0.81289 0.32643 0.0
Cd58 Cd 0.42401 0.83557 0.31609 0.0
O59 O 0.4134 0.86231 0.30542 0.0
C60 C 0.40001 0.86342 0.2936 0.0
O61 O 0.39185 0.8479 0.28768 0.0
C62 C 0.45506 0.81306 0.33889 0.0
C63 C 0.43613 0.74469 0.34956 0.0
O64 O 0.45326 0.74287 0.34425 0.0
O65 O 0.42643 0.75841 0.34302 0.0
O66 O 0.44907 0.21347 0.59229 0.0
Cd67 Cd 0.47638 0.20225 0.57472 0.0
O68 O 0.43382 0.19215 0.57631 0.0
Cd69 Cd 0.4111 0.17403 0.56599 0.0
O70 O 0.38434 0.16343 0.55534 0.0
C71 C 0.3832 0.15003 0.54354 0.0
O72 O 0.39871 0.14185 0.53762 0.0
C73 C 0.43367 0.20509 0.58877 0.0
C74 C 0.50203 0.18614 0.59937 0.0
O75 O 0.50386 0.20328 0.59408 0.0
O76 O 0.48829 0.17645 0.59282 0.0
O77 O 0.03309 0.19902 0.84235 0.0
Cd78 Cd 0.04429 0.22636 0.82481 0.0
O79 O 0.0544 0.1838 0.82637 0.0
Cd80 Cd 0.07252 0.16111 0.81603 0.0
O81 O 0.08314 0.13438 0.80536 0.0
C82 C 0.09653 0.13327 0.79355 0.0
O83 O 0.10469 0.14879 0.78764 0.0
C84 C 0.04147 0.18363 0.83883 0.0
C85 C 0.06041 0.25199 0.84949 0.0
O86 O 0.04327 0.25381 0.8442 0.0
O87 O 0.07009 0.23828 0.84293 0.0
O88 O 0.40435 0.04765 0.21362 0.0
Cd89 Cd 0.4219 0.02032 0.20242 0.0
O90 O 0.42033 0.06288 0.19231 0.0
Cd91 Cd 0.43067 0.08557 0.17418 0.0
O92 O 0.44133 0.11231 0.16356 0.0
C93 C 0.45314 0.11342 0.15017 0.0
O94 O 0.45904 0.09791 0.14201 0.0
C95 C 0.40787 0.06304 0.20523 0.0
C96 C 0.39724 0.99468 0.18629 0.0
O97 O 0.40252 0.99286 0.20343 0.0
O98 O 0.4038 0.0084 0.17661 0.0
O99 O 0.19901 0.15441 0.46349 0.0
Cd100 Cd 0.22636 0.17194 0.45228 0.0
O101 O 0.18379 0.17039 0.44218 0.0
Cd102 Cd 0.1611 0.18074 0.42406 0.0
O103 O 0.13436 0.19141 0.41345 0.0
C104 C 0.13326 0.20321 0.40005 0.0
O105 O 0.14877 0.20911 0.39189 0.0
C106 C 0.18362 0.15794 0.45512 0.0
C107 C 0.25196 0.14724 0.43617 0.0
O108 O 0.2538 0.15254 0.45331 0.0
O109 O 0.23824 0.1538 0.42648 0.0
O110 O 0.09231 0.94908 0.71349 0.0
Cd111 Cd 0.07474 0.97638 0.70228 0.0
O112 O 0.07634 0.93382 0.69218 0.0
Cd113 Cd 0.06602 0.9111 0.67406 0.0
O114 O 0.05537 0.88434 0.66346 0.0
C115 C 0.04356 0.88321 0.65006 0.0
O116 O 0.03765 0.89871 0.64188 0.0
C117 C 0.0888 0.93368 0.70511 0.0
C118 C 0.09939 0.00204 0.68616 0.0
O119 O 0.0941 0.00386 0.7033 0.0
O120 O 0.09284 0.9883 0.67648 0.0
O121 O 0.29766 0.8424 0.96341 0.0
Cd122 Cd 0.27032 0.82486 0.95218 0.0
O123 O 0.31289 0.82641 0.9421 0.0
Cd124 Cd 0.33558 0.81607 0.92398 0.0
O125 O 0.36232 0.8054 0.91338 0.0
C126 C 0.36342 0.79359 0.89999 0.0
O127 O 0.3479 0.78767 0.89183 0.0
C128 C 0.31306 0.83887 0.95504 0.0
C129 C 0.2447 0.84956 0.9361 0.0
O130 O 0.24287 0.84425 0.95323 0.0
O131 O 0.25842 0.84301 0.9264 0.0
O132 O 0.40429 0.94902 0.28327 0.0
Cd133 Cd 0.42182 0.97636 0.2945 0.0
O134 O 0.42027 0.9338 0.30458 0.0
Cd135 Cd 0.43061 0.91111 0.3227 0.0
O136 O 0.44128 0.88437 0.3333 0.0
C137 C 0.4531 0.88326 0.34669 0.0
O138 O 0.45902 0.89878 0.35485 0.0
C139 C 0.40781 0.93363 0.29164 0.0
C140 C 0.39713 0.00198 0.31058 0.0
O141 O 0.40244 0.00381 0.29345 0.0
O142 O 0.40368 0.98827 0.32028 0.0
O143 O 0.29761 0.15438 0.53318 0.0
Cd144 Cd 0.2703 0.17195 0.5444 0.0
O145 O 0.31286 0.17035 0.5545 0.0
Cd146 Cd 0.33558 0.18066 0.57262 0.0
O147 O 0.36234 0.19132 0.58322 0.0
C148 C 0.36347 0.20312 0.59662 0.0
O149 O 0.34797 0.20903 0.6048 0.0
C150 C 0.31301 0.15788 0.54157 0.0
C151 C 0.24465 0.1473 0.56051 0.0
O152 O 0.24282 0.15259 0.54338 0.0
O153 O 0.25838 0.15385 0.5702 0.0
O154 O 0.09227 0.04767 0.78319 0.0
Cd155 Cd 0.07475 0.02032 0.7944 0.0
O156 O 0.07629 0.06289 0.8045 0.0
Cd157 Cd 0.06595 0.08559 0.82262 0.0
O158 O 0.05528 0.11232 0.83323 0.0
C159 C 0.04347 0.11343 0.84663 0.0
O160 O 0.03757 0.09791 0.85479 0.0
C161 C 0.08875 0.06306 0.79156 0.0
C162 C 0.09944 0.99472 0.81051 0.0
O163 O 0.09414 0.99289 0.79337 0.0
O164 O 0.09288 0.00844 0.8202 0.0
O165 O 0.19903 0.84233 0.03306 0.0
Cd166 Cd 0.22636 0.82478 0.04426 0.0
O167 O 0.18381 0.82635 0.05437 0.0
Cd168 Cd 0.16111 0.81602 0.0725 0.0
O169 O 0.13437 0.80535 0.08312 0.0
C170 C 0.13326 0.79355 0.09651 0.0
O171 O 0.14877 0.78764 0.10467 0.0
C172 C 0.18364 0.83881 0.04145 0.0
C173 C 0.252 0.84945 0.06039 0.0
O174 O 0.25383 0.84417 0.04324 0.0
O175 O 0.23828 0.84288 0.07007 0.0
O176 O 0.21363 0.40437 0.04767 0.0
Cd177 Cd 0.20244 0.42191 0.02033 0.0
O178 O 0.19232 0.42036 0.06288 0.0
Cd179 Cd 0.17419 0.43069 0.08557 0.0
O180 O 0.16358 0.44137 0.11231 0.0
C181 C 0.15018 0.45317 0.11341 0.0
O182 O 0.14202 0.45907 0.09789 0.0
C183 C 0.20525 0.40789 0.06305 0.0
C184 C 0.1863 0.39723 0.9947 0.0
O185 O 0.20345 0.40252 0.99287 0.0
O186 O 0.17662 0.4038 0.00842 0.0
O187 O 0.71344 0.09232 0.94908 0.0
Cd188 Cd 0.70221 0.07475 0.97638 0.0
O189 O 0.69213 0.07635 0.93382 0.0
Cd190 Cd 0.67401 0.06604 0.9111 0.0
O191 O 0.66341 0.05538 0.88434 0.0
C192 C 0.65001 0.04358 0.8832 0.0
O193 O 0.64183 0.03766 0.8987 0.0
C194 C 0.70506 0.08881 0.93367 0.0
C195 C 0.68611 0.0994 0.00203 0.0
O196 O 0.70325 0.09411 0.00386 0.0
O197 O 0.67643 0.09286 0.9883 0.0
O198 O 0.15444 0.46355 0.19901 0.0
Cd199 Cd 0.17197 0.45234 0.22636 0.0
O200 O 0.17042 0.44224 0.18379 0.0
Cd201 Cd 0.18076 0.42411 0.1611 0.0
O202 O 0.19144 0.4135 0.13436 0.0
C203 C 0.20323 0.4001 0.13326 0.0
O204 O 0.20913 0.39194 0.14877 0.0
C205 C 0.15796 0.45517 0.18362 0.0
C206 C 0.14728 0.43622 0.25196 0.0
O207 O 0.15257 0.45336 0.2538 0.0
O208 O 0.15384 0.42654 0.23824 0.0
O209 O 0.78329 0.90428 0.44903 0.0
Cd210 Cd 0.79453 0.92182 0.47637 0.0
O211 O 0.8046 0.92026 0.4338 0.0
Cd212 Cd 0.82272 0.93059 0.4111 0.0
O213 O 0.83332 0.94126 0.38436 0.0
C214 C 0.84671 0.95307 0.38324 0.0
O215 O 0.85487 0.959 0.39876 0.0
C216 C 0.79166 0.9078 0.43364 0.0
C217 C 0.8106 0.89714 0.502 0.0
O218 O 0.79347 0.90245 0.50383 0.0
O219 O 0.8203 0.90369 0.48828 0.0
O220 O 0.84231 0.03305 0.19901 0.0
Cd221 Cd 0.82477 0.04425 0.22635 0.0
O222 O 0.82633 0.05436 0.1838 0.0
Cd223 Cd 0.81599 0.07249 0.16111 0.0
O224 O 0.80532 0.08311 0.13437 0.0
C225 C 0.79352 0.0965 0.13327 0.0
O226 O 0.78761 0.10466 0.14878 0.0
C227 C 0.83879 0.04144 0.18363 0.0
C228 C 0.84945 0.06038 0.25198 0.0
O229 O 0.84417 0.04324 0.25381 0.0
O230 O 0.84288 0.07006 0.23826 0.0
O231 O 0.28314 0.59225 0.54767 0.0
Cd232 Cd 0.29434 0.57472 0.52032 0.0
O233 O 0.30445 0.57626 0.56289 0.0
Cd234 Cd 0.32257 0.56592 0.58558 0.0
O235 O 0.33319 0.55525 0.61232 0.0
C236 C 0.34658 0.54345 0.61342 0.0
O237 O 0.35475 0.53755 0.59791 0.0
C238 C 0.29152 0.58872 0.56306 0.0
C239 C 0.31047 0.59941 0.49472 0.0
O240 O 0.29333 0.59411 0.49288 0.0
O241 O 0.32015 0.59284 0.50844 0.0
O242 O 0.15436 0.53324 0.2976 0.0
Cd243 Cd 0.17193 0.54447 0.2703 0.0
O244 O 0.17033 0.55456 0.31286 0.0
Cd245 Cd 0.18065 0.57268 0.33558 0.0
O246 O 0.1913 0.58327 0.36234 0.0
C247 C 0.20311 0.59667 0.36348 0.0
O248 O 0.20903 0.60485 0.34798 0.0
C249 C 0.15787 0.54162 0.313 0.0
C250 C 0.14728 0.56057 0.24464 0.0
O251 O 0.15258 0.54344 0.24282 0.0
O252 O 0.15382 0.57026 0.25838 0.0
O253 O 0.3424 0.4634 0.79764 0.0
Cd254 Cd 0.32486 0.45216 0.77031 0.0
O255 O 0.32642 0.44208 0.81288 0.0
Cd256 Cd 0.31609 0.42397 0.83558 0.0
O257 O 0.30543 0.41337 0.86232 0.0
C258 C 0.29361 0.39998 0.86343 0.0
O259 O 0.28769 0.39181 0.84792 0.0
C260 C 0.33889 0.45502 0.81304 0.0
C261 C 0.34954 0.43608 0.74468 0.0
O262 O 0.34423 0.45321 0.74285 0.0
O263 O 0.343 0.42639 0.7584 0.0
O264 O 0.93993 0.80129 0.57125 0.0
Cd265 Cd 0.96257 0.82106 0.55468 0.0
O266 O 0.91675 0.80436 0.55085 0.0
Cd267 Cd 0.92667 0.82595 0.53132 0.0
O268 O 0.90026 0.83986 0.52343 0.0
C269 C 0.88699 0.82805 0.5212 0.0
O270 O 0.89109 0.81001 0.52124 0.0
C271 C 0.92339 0.79717 0.56582 0.0
C272 C 0.99349 0.82605 0.57822 0.0
O273 O 0.98002 0.83804 0.57804 0.0
O274 O 0.99265 0.81196 0.56701 0.0
O275 O 0.94523 0.18993 0.32119 0.0
Cd276 Cd 0.92542 0.21253 0.30463 0.0
O277 O 0.94213 0.16673 0.30082 0.0
Cd278 Cd 0.92051 0.17661 0.28129 0.0
O279 O 0.90663 0.15017 0.27341 0.0
C280 C 0.91845 0.13692 0.27118 0.0
O281 O 0.93649 0.14106 0.27121 0.0
C282 C 0.94934 0.1734 0.31577 0.0
C283 C 0.92046 0.24346 0.32815 0.0
O284 O 0.90847 0.22998 0.328 0.0
O285 O 0.93453 0.24263 0.31692 0.0
O286 O 0.55677 0.19523 0.07132 0.0
Cd287 Cd 0.53413 0.17543 0.05476 0.0
O288 O 0.57994 0.19214 0.05092 0.0
Cd289 Cd 0.57001 0.17053 0.0314 0.0
O290 O 0.59642 0.15663 0.0235 0.0
C291 C 0.60969 0.16845 0.02127 0.0
O292 O 0.60558 0.18648 0.02131 0.0
C293 C 0.5733 0.19934 0.06588 0.0
C294 C 0.50322 0.17047 0.0783 0.0
O295 O 0.51668 0.15848 0.07814 0.0
O296 O 0.50405 0.18455 0.06707 0.0
O297 O 0.55145 0.80678 0.82114 0.0
Cd298 Cd 0.57126 0.78416 0.80462 0.0
O299 O 0.55454 0.82995 0.80074 0.0
Cd300 Cd 0.57616 0.82004 0.78125 0.0
O301 O 0.59005 0.84647 0.77336 0.0
C302 C 0.57823 0.85972 0.7711 0.0
O303 O 0.5602 0.85558 0.77112 0.0
C304 C 0.54733 0.82331 0.8157 0.0
C305 C 0.57621 0.75326 0.82817 0.0
O306 O 0.5882 0.76674 0.82801 0.0
O307 O 0.56214 0.75408 0.81693 0.0
O308 O 0.9399 0.19524 0.92553 0.0
Cd309 Cd 0.96253 0.17543 0.94206 0.0
O310 O 0.91673 0.19215 0.94594 0.0
Cd311 Cd 0.92664 0.17052 0.96543 0.0
O312 O 0.90022 0.15663 0.97332 0.0
C313 C 0.88696 0.16845 0.97558 0.0
O314 O 0.8911 0.18648 0.97556 0.0
C315 C 0.92337 0.19936 0.93098 0.0
C316 C 0.99342 0.17047 0.91851 0.0
O317 O 0.97994 0.15848 0.91867 0.0
O318 O 0.9926 0.18454 0.92975 0.0
O319 O 0.55146 0.18991 0.67536 0.0
Cd320 Cd 0.57125 0.21256 0.69192 0.0
O321 O 0.55454 0.16674 0.69576 0.0
Cd322 Cd 0.57616 0.17667 0.71528 0.0
O323 O 0.59005 0.15026 0.72318 0.0
C324 C 0.57824 0.13699 0.72541 0.0
O325 O 0.5602 0.1411 0.72537 0.0
C326 C 0.54734 0.17338 0.6808 0.0
C327 C 0.57621 0.24347 0.66837 0.0
O328 O 0.5882 0.23 0.66854 0.0
O329 O 0.56214 0.24263 0.6796 0.0
O330 O 0.55675 0.80145 0.42549 0.0
Cd331 Cd 0.53415 0.82127 0.44205 0.0
O332 O 0.57995 0.80455 0.44586 0.0
Cd333 Cd 0.57007 0.82618 0.46538 0.0
O334 O 0.59651 0.84006 0.47327 0.0
C335 C 0.60976 0.82823 0.4755 0.0
O336 O 0.60562 0.8102 0.47547 0.0
C337 C 0.57329 0.79734 0.43091 0.0
C338 C 0.50322 0.82623 0.41853 0.0
O339 O 0.5167 0.83821 0.41868 0.0
O340 O 0.50405 0.81216 0.42976 0.0
O341 O 0.9454 0.80675 0.17543 0.0
Cd342 Cd 0.92562 0.78411 0.192 0.0
O343 O 0.94232 0.82994 0.19583 0.0
Cd344 Cd 0.92073 0.82001 0.21536 0.0
O345 O 0.90682 0.84642 0.22324 0.0
C346 C 0.91863 0.8597 0.22547 0.0
O347 O 0.93667 0.8556 0.22543 0.0
C348 C 0.94951 0.82329 0.18086 0.0
C349 C 0.92063 0.7532 0.16846 0.0
O350 O 0.90864 0.76667 0.16864 0.0
O351 O 0.93472 0.75404 0.17967 0.0
O352 O 0.57123 0.93994 0.80127 0.0
Cd353 Cd 0.55465 0.96256 0.82104 0.0
O354 O 0.55084 0.91674 0.80435 0.0
Cd355 Cd 0.53131 0.92665 0.82594 0.0
O356 O 0.52342 0.90024 0.83984 0.0
C357 C 0.5212 0.88696 0.82803 0.0
O358 O 0.52124 0.89107 0.80999 0.0
C359 C 0.5658 0.92339 0.79715 0.0
C360 C 0.57819 0.99348 0.82603 0.0
O361 O 0.57801 0.98002 0.83802 0.0
O362 O 0.56698 0.99265 0.81194 0.0
O363 O 0.8068 0.82118 0.55145 0.0
Cd364 Cd 0.78416 0.80465 0.57126 0.0
O365 O 0.82996 0.80076 0.55453 0.0
Cd366 Cd 0.82003 0.78127 0.57616 0.0
O367 O 0.84645 0.77338 0.59005 0.0
C368 C 0.85971 0.77112 0.57823 0.0
O369 O 0.85558 0.77114 0.5602 0.0
C370 C 0.82332 0.81573 0.54733 0.0
C371 C 0.75327 0.82821 0.57621 0.0
O372 O 0.76675 0.82805 0.5882 0.0
O373 O 0.75409 0.81697 0.56214 0.0
O374 O 0.92547 0.05674 0.3014 0.0
Cd375 Cd 0.94204 0.03414 0.3212 0.0
O376 O 0.94584 0.07995 0.3045 0.0
Cd377 Cd 0.96537 0.07007 0.32611 0.0
O378 O 0.97325 0.09651 0.34 0.0
C379 C 0.97548 0.10977 0.32817 0.0
O380 O 0.97544 0.10563 0.31014 0.0
C381 C 0.93089 0.07328 0.29729 0.0
C382 C 0.91853 0.0032 0.32617 0.0
O383 O 0.91869 0.01668 0.33816 0.0
O384 O 0.92975 0.00404 0.3121 0.0
O385 O 0.6899 0.17538 0.05149 0.0
Cd386 Cd 0.71254 0.19192 0.0713 0.0
O387 O 0.66673 0.19578 0.05458 0.0
Cd388 Cd 0.67666 0.2153 0.0762 0.0
O389 O 0.65025 0.22319 0.09009 0.0
C390 C 0.63699 0.22543 0.07828 0.0
O391 O 0.64111 0.2254 0.06024 0.0
C392 C 0.67337 0.18082 0.04738 0.0
C393 C 0.74344 0.16838 0.07624 0.0
O394 O 0.72998 0.16854 0.08824 0.0
O395 O 0.74261 0.17961 0.06218 0.0
O396 O 0.57131 0.05678 0.69519 0.0
Cd397 Cd 0.55476 0.03414 0.67538 0.0
O398 O 0.5509 0.07995 0.6921 0.0
Cd399 Cd 0.53139 0.07002 0.67048 0.0
O400 O 0.52349 0.09643 0.65659 0.0
C401 C 0.52125 0.1097 0.6684 0.0
O402 O 0.52129 0.10558 0.68644 0.0
C403 C 0.56587 0.07331 0.6993 0.0
C404 C 0.57831 0.00324 0.67043 0.0
O405 O 0.57814 0.01671 0.65844 0.0
O406 O 0.56707 0.00407 0.6845 0.0
O407 O 0.68995 0.82121 0.44528 0.0
Cd408 Cd 0.71254 0.80464 0.42548 0.0
O409 O 0.66673 0.80084 0.44218 0.0
Cd410 Cd 0.67661 0.78131 0.42057 0.0
O411 O 0.65018 0.77343 0.40668 0.0
C412 C 0.63692 0.7712 0.41851 0.0
O413 O 0.64105 0.77124 0.43654 0.0
C414 C 0.6734 0.8158 0.44939 0.0
C415 C 0.74348 0.82816 0.42051 0.0
O416 O 0.73 0.828 0.40852 0.0
O417 O 0.74264 0.81693 0.43458 0.0
O418 O 0.92551 0.93989 0.19523 0.0
Cd419 Cd 0.94203 0.96252 0.17542 0.0
O420 O 0.94592 0.91673 0.19215 0.0
Cd421 Cd 0.96541 0.92665 0.17052 0.0
O422 O 0.97331 0.90023 0.15663 0.0
C423 C 0.97556 0.88698 0.16845 0.0
O424 O 0.97554 0.89111 0.18648 0.0
C425 C 0.93096 0.92336 0.19935 0.0
C426 C 0.91847 0.99341 0.17047 0.0
O427 O 0.91864 0.97993 0.15848 0.0
O428 O 0.92971 0.99259 0.18454 0.0
O429 O 0.80675 0.17546 0.94541 0.0
Cd430 Cd 0.78412 0.19203 0.92564 0.0
O431 O 0.82995 0.19584 0.94233 0.0
Cd432 Cd 0.82003 0.21538 0.92074 0.0
O433 O 0.84645 0.22326 0.90684 0.0
C434 C 0.85972 0.22549 0.91865 0.0
O435 O 0.85561 0.22545 0.93669 0.0
C436 C 0.82329 0.18088 0.94952 0.0
C437 C 0.7532 0.16849 0.92064 0.0
O438 O 0.76667 0.16867 0.90866 0.0
O439 O 0.75404 0.17971 0.93473 0.0
O440 O 0.80127 0.57121 0.93992 0.0
Cd441 Cd 0.82104 0.55464 0.96256 0.0
O442 O 0.80434 0.55081 0.91674 0.0
Cd443 Cd 0.82594 0.53128 0.92666 0.0
O444 O 0.83984 0.5234 0.90025 0.0
C445 C 0.82803 0.52116 0.88698 0.0
O446 O 0.80999 0.5212 0.89108 0.0
C447 C 0.79715 0.56577 0.92339 0.0
C448 C 0.82604 0.57819 0.99347 0.0
O449 O 0.83803 0.57801 0.98 0.0
O450 O 0.81195 0.56697 0.99264 0.0
O451 O 0.30147 0.92545 0.05674 0.0
Cd452 Cd 0.32128 0.94202 0.03414 0.0
O453 O 0.30457 0.94582 0.07995 0.0
Cd454 Cd 0.32619 0.96535 0.07007 0.0
O455 O 0.34007 0.97323 0.09651 0.0
C456 C 0.32824 0.97546 0.10976 0.0
O457 O 0.31021 0.97542 0.10562 0.0
C458 C 0.29735 0.93087 0.07328 0.0
C459 C 0.32624 0.9185 0.00321 0.0
O460 O 0.33822 0.91866 0.01669 0.0
O461 O 0.31217 0.92974 0.00404 0.0
O462 O 0.82115 0.5514 0.80679 0.0
Cd463 Cd 0.80462 0.5712 0.78415 0.0
O464 O 0.80073 0.55448 0.82995 0.0
Cd465 Cd 0.78124 0.5761 0.82003 0.0
O466 O 0.77335 0.58999 0.84645 0.0
C467 C 0.77109 0.57818 0.85971 0.0
O468 O 0.77111 0.56014 0.85558 0.0
C469 C 0.8157 0.54728 0.82331 0.0
C470 C 0.82818 0.57616 0.75326 0.0
O471 O 0.82801 0.58815 0.76674 0.0
O472 O 0.81694 0.56209 0.75408 0.0
O473 O 0.19519 0.07131 0.55677 0.0
Cd474 Cd 0.17538 0.05476 0.53414 0.0
O475 O 0.1921 0.05092 0.57994 0.0
Cd476 Cd 0.17048 0.03139 0.57003 0.0
O477 O 0.15659 0.0235 0.59645 0.0
C478 C 0.16841 0.02127 0.60971 0.0
O479 O 0.18644 0.02131 0.60559 0.0
C480 C 0.1993 0.06588 0.5733 0.0
C481 C 0.17043 0.07829 0.50322 0.0
O482 O 0.15844 0.07813 0.51669 0.0
O483 O 0.18449 0.06706 0.50406 0.0
O484 O 0.17548 0.94542 0.80676 0.0
Cd485 Cd 0.19204 0.92564 0.78412 0.0
O486 O 0.19588 0.94234 0.82994 0.0
Cd487 Cd 0.2154 0.92075 0.82002 0.0
O488 O 0.22328 0.90684 0.84643 0.0
C489 C 0.22552 0.91865 0.8597 0.0
O490 O 0.22548 0.93669 0.8556 0.0
C491 C 0.18091 0.94953 0.82329 0.0
C492 C 0.16849 0.92065 0.75321 0.0
O493 O 0.16867 0.90866 0.76668 0.0
O494 O 0.17971 0.93474 0.75404 0.0
O495 O 0.69529 0.42554 0.43989 0.0
Cd496 Cd 0.67548 0.44207 0.46253 0.0
O497 O 0.69221 0.44595 0.41673 0.0
Cd498 Cd 0.67059 0.46544 0.42665 0.0
O499 O 0.65669 0.47333 0.40023 0.0
C500 C 0.66851 0.47559 0.38697 0.0
O501 O 0.68654 0.47557 0.3911 0.0
C502 C 0.69941 0.43099 0.42336 0.0
C503 C 0.67052 0.41851 0.49342 0.0
O504 O 0.65853 0.41868 0.47994 0.0
O505 O 0.68459 0.42974 0.4926 0.0
O506 O 0.82123 0.44522 0.68994 0.0
Cd507 Cd 0.80466 0.4254 0.71254 0.0
O508 O 0.80086 0.44212 0.66673 0.0
Cd509 Cd 0.78133 0.42049 0.67661 0.0
O510 O 0.77345 0.40662 0.65017 0.0
C511 C 0.77122 0.41844 0.63692 0.0
O512 O 0.77126 0.43647 0.64105 0.0
C513 C 0.81581 0.44933 0.6734 0.0
C514 C 0.82818 0.42045 0.74347 0.0
O515 O 0.82803 0.40846 0.72999 0.0
O516 O 0.81695 0.43451 0.74263 0.0
O517 O 0.67537 0.5515 0.18991 0.0
Cd518 Cd 0.69193 0.57131 0.21254 0.0
O519 O 0.69577 0.55458 0.16673 0.0
Cd520 Cd 0.71529 0.57621 0.17665 0.0
O521 O 0.72318 0.5901 0.15023 0.0
C522 C 0.72542 0.57828 0.13697 0.0
O523 O 0.72538 0.56024 0.14109 0.0
C524 C 0.68081 0.54738 0.17338 0.0
C525 C 0.66839 0.57626 0.24346 0.0
O526 O 0.66855 0.58825 0.22999 0.0
O527 O 0.67963 0.56219 0.24262 0.0
O528 O 0.54767 0.7136 0.90433 0.0
Cd529 Cd 0.52033 0.7024 0.92187 0.0
O530 O 0.56288 0.69229 0.92031 0.0
Cd531 Cd 0.58557 0.67416 0.93065 0.0
O532 O 0.6123 0.66354 0.94132 0.0
C533 C 0.61341 0.65015 0.95313 0.0
O534 O 0.59789 0.642 0.95904 0.0
C535 C 0.56305 0.70521 0.90785 0.0
C536 C 0.49469 0.68628 0.89719 0.0
O537 O 0.49287 0.70342 0.90248 0.0
O538 O 0.50841 0.67659 0.90375 0.0
O539 O 0.53322 0.29761 0.15439 0.0
Cd540 Cd 0.54444 0.2703 0.17196 0.0
O541 O 0.55453 0.31287 0.17037 0.0
Cd542 Cd 0.57265 0.33559 0.18069 0.0
O543 O 0.58325 0.36235 0.19134 0.0
C544 C 0.59665 0.36348 0.20314 0.0
O545 O 0.60483 0.34798 0.20905 0.0
C546 C 0.5416 0.31301 0.1579 0.0
C547 C 0.56055 0.24465 0.14731 0.0
O548 O 0.54341 0.24282 0.1526 0.0
O549 O 0.57023 0.25839 0.15386 0.0
O550 O 0.94902 0.28324 0.40427 0.0
Cd551 Cd 0.97636 0.29448 0.4218 0.0
O552 O 0.9338 0.30456 0.42025 0.0
Cd553 Cd 0.91111 0.32268 0.43059 0.0
O554 O 0.88437 0.33328 0.44126 0.0
C555 C 0.88327 0.34667 0.45308 0.0
O556 O 0.89878 0.35483 0.459 0.0
C557 C 0.93363 0.29162 0.40779 0.0
C558 C 0.00199 0.31056 0.39712 0.0
O559 O 0.00381 0.29343 0.40242 0.0
O560 O 0.98828 0.32025 0.40366 0.0
O561 O 0.9635 0.69903 0.65444 0.0
Cd562 Cd 0.95229 0.72637 0.67197 0.0
O563 O 0.94219 0.6838 0.67042 0.0
Cd564 Cd 0.92407 0.6611 0.68076 0.0
O565 O 0.91346 0.63436 0.69143 0.0
C566 C 0.90006 0.63324 0.70322 0.0
O567 O 0.89189 0.64875 0.70912 0.0
C568 C 0.95512 0.68363 0.65796 0.0
C569 C 0.93618 0.75197 0.64729 0.0
O570 O 0.95332 0.75381 0.65258 0.0
O571 O 0.92649 0.73825 0.65385 0.0
O572 O 0.54765 0.28318 0.59224 0.0
Cd573 Cd 0.52032 0.29439 0.57471 0.0
O574 O 0.56289 0.30449 0.57626 0.0
Cd575 Cd 0.58559 0.32261 0.56592 0.0
O576 O 0.61233 0.33322 0.55525 0.0
C577 C 0.61344 0.34662 0.54346 0.0
O578 O 0.59793 0.35479 0.53756 0.0
C579 C 0.56305 0.29156 0.58872 0.0
C580 C 0.49471 0.31051 0.59939 0.0
O581 O 0.49287 0.29337 0.5941 0.0
O582 O 0.50843 0.32019 0.59283 0.0
O583 O 0.96344 0.29766 0.84241 0.0
Cd584 Cd 0.95221 0.27032 0.82487 0.0
O585 O 0.94213 0.31289 0.82643 0.0
Cd586 Cd 0.92401 0.33558 0.81609 0.0
O587 O 0.9134 0.36231 0.80542 0.0
C588 C 0.90001 0.36342 0.7936 0.0
O589 O 0.89185 0.3479 0.78768 0.0
C590 C 0.95506 0.31306 0.83889 0.0
C591 C 0.93613 0.24469 0.84956 0.0
O592 O 0.95326 0.24287 0.84425 0.0
O593 O 0.92643 0.25841 0.84302 0.0
O594 O 0.94907 0.71347 0.09229 0.0
Cd595 Cd 0.97638 0.70225 0.07472 0.0
O596 O 0.93382 0.69215 0.07631 0.0
Cd597 Cd 0.9111 0.67403 0.06599 0.0
O598 O 0.88434 0.66343 0.05534 0.0
C599 C 0.8832 0.65003 0.04354 0.0
O600 O 0.89871 0.64185 0.03762 0.0
C601 C 0.93367 0.70509 0.08877 0.0
C602 C 0.00203 0.68614 0.09937 0.0
O603 O 0.00386 0.70328 0.09408 0.0
O604 O 0.98829 0.67645 0.09282 0.0
O605 O 0.53309 0.69902 0.34235 0.0
Cd606 Cd 0.54429 0.72636 0.32481 0.0
O607 O 0.5544 0.6838 0.32637 0.0
Cd608 Cd 0.57252 0.66111 0.31603 0.0
O609 O 0.58314 0.63438 0.30536 0.0
C610 C 0.59653 0.63327 0.29355 0.0
O611 O 0.60469 0.64879 0.28764 0.0
C612 C 0.54147 0.68363 0.33883 0.0
C613 C 0.56041 0.75199 0.34949 0.0
O614 O 0.54327 0.75381 0.3442 0.0
O615 O 0.57009 0.73828 0.34293 0.0
O616 O 0.90435 0.54765 0.71362 0.0
Cd617 Cd 0.9219 0.52032 0.70242 0.0
O618 O 0.92033 0.56288 0.69231 0.0
Cd619 Cd 0.93067 0.58557 0.67418 0.0
O620 O 0.94133 0.61231 0.66356 0.0
C621 C 0.95314 0.61342 0.65017 0.0
O622 O 0.95904 0.59791 0.64201 0.0
C623 C 0.90787 0.56304 0.70523 0.0
C624 C 0.89724 0.49468 0.68629 0.0
O625 O 0.90252 0.49286 0.70343 0.0
O626 O 0.9038 0.5084 0.67661 0.0
O627 O 0.69901 0.65441 0.96349 0.0
Cd628 Cd 0.72636 0.67194 0.95228 0.0
O629 O 0.68379 0.67039 0.94218 0.0
Cd630 Cd 0.6611 0.68074 0.92406 0.0
O631 O 0.63436 0.69141 0.91345 0.0
C632 C 0.63326 0.70321 0.90005 0.0
O633 O 0.64877 0.70911 0.89189 0.0
C634 C 0.68362 0.65794 0.95512 0.0
C635 C 0.75196 0.64724 0.93617 0.0
O636 O 0.7538 0.65254 0.95331 0.0
O637 O 0.73824 0.6538 0.92648 0.0
O638 O 0.59231 0.44908 0.21349 0.0
Cd639 Cd 0.57474 0.47638 0.20228 0.0
O640 O 0.57634 0.43382 0.19218 0.0
Cd641 Cd 0.56602 0.4111 0.17406 0.0
O642 O 0.55537 0.38434 0.16346 0.0
C643 C 0.54356 0.38321 0.15006 0.0
O644 O 0.53765 0.39871 0.14188 0.0
C645 C 0.5888 0.43368 0.20511 0.0
C646 C 0.59939 0.50204 0.18616 0.0
O647 O 0.5941 0.50386 0.2033 0.0
O648 O 0.59284 0.4883 0.17648 0.0
O649 O 0.79766 0.3424 0.46341 0.0
Cd650 Cd 0.77032 0.32486 0.45218 0.0
O651 O 0.81289 0.32641 0.4421 0.0
Cd652 Cd 0.83558 0.31607 0.42398 0.0
O653 O 0.86232 0.3054 0.41338 0.0
C654 C 0.86342 0.29359 0.39999 0.0
O655 O 0.8479 0.28767 0.39183 0.0
C656 C 0.81306 0.33887 0.45504 0.0
C657 C 0.7447 0.34956 0.4361 0.0
O658 O 0.74287 0.34425 0.45323 0.0
O659 O 0.75842 0.34301 0.4264 0.0
O660 O 0.90429 0.44902 0.78327 0.0
Cd661 Cd 0.92182 0.47636 0.7945 0.0
O662 O 0.92027 0.4338 0.80458 0.0
Cd663 Cd 0.93061 0.41111 0.8227 0.0
O664 O 0.94128 0.38437 0.8333 0.0
C665 C 0.9531 0.38326 0.84669 0.0
O666 O 0.95902 0.39878 0.85485 0.0
C667 C 0.90781 0.43363 0.79164 0.0
C668 C 0.89713 0.50198 0.81058 0.0
O669 O 0.90244 0.50381 0.79345 0.0
O670 O 0.90368 0.48827 0.82028 0.0
O671 O 0.79761 0.65437 0.03318 0.0
Cd672 Cd 0.7703 0.67195 0.0444 0.0
O673 O 0.81286 0.67035 0.0545 0.0
Cd674 Cd 0.83558 0.68066 0.07262 0.0
O675 O 0.86234 0.69132 0.08322 0.0
C676 C 0.86347 0.70312 0.09662 0.0
O677 O 0.84797 0.70903 0.1048 0.0
C678 C 0.81301 0.65788 0.04157 0.0
C679 C 0.74465 0.6473 0.06051 0.0
O680 O 0.74282 0.65259 0.04338 0.0
O681 O 0.75838 0.65385 0.0702 0.0
O682 O 0.59227 0.54767 0.28319 0.0
Cd683 Cd 0.57475 0.52032 0.2944 0.0
O684 O 0.57629 0.56289 0.3045 0.0
Cd685 Cd 0.56595 0.58559 0.32262 0.0
O686 O 0.55528 0.61232 0.33323 0.0
C687 C 0.54347 0.61343 0.34663 0.0
O688 O 0.53757 0.59791 0.35479 0.0
C689 C 0.58875 0.56306 0.29156 0.0
C690 C 0.59944 0.49472 0.31051 0.0
O691 O 0.59414 0.49289 0.29337 0.0
O692 O 0.59288 0.50844 0.3202 0.0
O693 O 0.69903 0.34233 0.53306 0.0
Cd694 Cd 0.72636 0.32478 0.54426 0.0
O695 O 0.68381 0.32635 0.55437 0.0
Cd696 Cd 0.66111 0.31602 0.5725 0.0
O697 O 0.63437 0.30535 0.58312 0.0
C698 C 0.63326 0.29355 0.59651 0.0
O699 O 0.64877 0.28764 0.60467 0.0
C700 C 0.68364 0.33881 0.54145 0.0
C701 C 0.752 0.34945 0.56039 0.0
O702 O 0.75383 0.34417 0.54324 0.0
O703 O 0.73828 0.34288 0.57007 0.0
O704 O 0.71363 0.90437 0.54767 0.0
Cd705 Cd 0.70244 0.92191 0.52033 0.0
O706 O 0.69232 0.92036 0.56288 0.0
Cd707 Cd 0.67419 0.93069 0.58557 0.0
O708 O 0.66358 0.94137 0.61231 0.0
C709 C 0.65018 0.95317 0.61341 0.0
O710 O 0.64202 0.95907 0.59789 0.0
C711 C 0.70525 0.90789 0.56305 0.0
C712 C 0.6863 0.89723 0.4947 0.0
O713 O 0.70345 0.90252 0.49287 0.0
O714 O 0.67662 0.9038 0.50842 0.0
O715 O 0.21344 0.59232 0.44908 0.0
Cd716 Cd 0.20221 0.57475 0.47638 0.0
O717 O 0.19213 0.57635 0.43382 0.0
Cd718 Cd 0.17401 0.56604 0.4111 0.0
O719 O 0.16341 0.55538 0.38434 0.0
C720 C 0.15001 0.54358 0.3832 0.0
O721 O 0.14184 0.53766 0.3987 0.0
C722 C 0.20506 0.58881 0.43367 0.0
C723 C 0.18611 0.5994 0.50203 0.0
O724 O 0.20325 0.59411 0.50386 0.0
O725 O 0.17643 0.59286 0.4883 0.0
O726 O 0.65444 0.96355 0.69901 0.0
Cd727 Cd 0.67197 0.95234 0.72636 0.0
O728 O 0.67042 0.94224 0.68379 0.0
Cd729 Cd 0.68076 0.92411 0.6611 0.0
O730 O 0.69144 0.9135 0.63436 0.0
C731 C 0.70323 0.9001 0.63326 0.0
O732 O 0.70913 0.89194 0.64877 0.0
C733 C 0.65796 0.95517 0.68362 0.0
C734 C 0.64728 0.93622 0.75196 0.0
O735 O 0.65257 0.95336 0.7538 0.0
O736 O 0.65384 0.92654 0.73824 0.0
O737 O 0.28329 0.40428 0.94903 0.0
Cd738 Cd 0.29453 0.42182 0.97637 0.0
O739 O 0.3046 0.42026 0.9338 0.0
Cd740 Cd 0.32272 0.43059 0.9111 0.0
O741 O 0.33332 0.44126 0.88436 0.0
C742 C 0.34671 0.45307 0.88324 0.0
O743 O 0.35487 0.459 0.89876 0.0
C744 C 0.29166 0.4078 0.93364 0.0
C745 C 0.3106 0.39714 0.002 0.0
O746 O 0.29347 0.40245 0.00383 0.0
O747 O 0.3203 0.40369 0.98828 0.0
O748 O 0.34231 0.53305 0.69901 0.0
Cd749 Cd 0.32477 0.54425 0.72635 0.0
O750 O 0.32633 0.55436 0.6838 0.0
Cd751 Cd 0.31599 0.57249 0.66111 0.0
O752 O 0.30532 0.58311 0.63437 0.0
C753 C 0.29352 0.5965 0.63327 0.0
O754 O 0.28761 0.60466 0.64878 0.0
C755 C 0.33879 0.54144 0.68363 0.0
C756 C 0.34945 0.56038 0.75198 0.0
O757 O 0.34417 0.54324 0.75381 0.0
O758 O 0.34288 0.57006 0.73826 0.0
O759 O 0.78314 0.09225 0.04767 0.0
Cd760 Cd 0.79434 0.07472 0.02032 0.0
O761 O 0.80445 0.07626 0.06289 0.0
Cd762 Cd 0.82257 0.06592 0.08558 0.0
O763 O 0.83319 0.05525 0.11232 0.0
C764 C 0.84658 0.04345 0.11342 0.0
O765 O 0.85475 0.03755 0.09791 0.0
C766 C 0.79152 0.08872 0.06306 0.0
C767 C 0.81047 0.09941 0.99472 0.0
O768 O 0.79333 0.09411 0.99288 0.0
O769 O 0.82015 0.09284 0.00844 0.0
O770 O 0.65436 0.03324 0.7976 0.0
Cd771 Cd 0.67193 0.04447 0.7703 0.0
O772 O 0.67033 0.05456 0.81286 0.0
Cd773 Cd 0.68065 0.07268 0.83558 0.0
O774 O 0.6913 0.08327 0.86234 0.0
C775 C 0.70311 0.09667 0.86348 0.0
O776 O 0.70903 0.10485 0.84798 0.0
C777 C 0.65787 0.04162 0.813 0.0
C778 C 0.64728 0.06057 0.74464 0.0
O779 O 0.65258 0.04344 0.74282 0.0
O780 O 0.65382 0.07026 0.75838 0.0
O781 O 0.8424 0.9634 0.29764 0.0
Cd782 Cd 0.82486 0.95216 0.27031 0.0
O783 O 0.82642 0.94208 0.31288 0.0
Cd784 Cd 0.81609 0.92397 0.33558 0.0
O785 O 0.80543 0.91337 0.36232 0.0
C786 C 0.79361 0.89998 0.36343 0.0
O787 O 0.78769 0.89181 0.34792 0.0
C788 C 0.83889 0.95502 0.31304 0.0
C789 C 0.84954 0.93608 0.24468 0.0
O790 O 0.84423 0.95321 0.24285 0.0
O791 O 0.843 0.92639 0.2584 0.0
O792 O 0.43993 0.30129 0.07125 0.0
Cd793 Cd 0.46257 0.32106 0.05468 0.0
O794 O 0.41675 0.30436 0.05085 0.0
Cd795 Cd 0.42667 0.32595 0.03132 0.0
O796 O 0.40026 0.33986 0.02343 0.0
C797 C 0.38699 0.32805 0.0212 0.0
O798 O 0.39109 0.31001 0.02124 0.0
C799 C 0.42339 0.29717 0.06582 0.0
C800 C 0.49348 0.32605 0.07822 0.0
O801 O 0.48002 0.33804 0.07804 0.0
O802 O 0.49265 0.31196 0.06701 0.0
O803 O 0.44523 0.68993 0.82119 0.0
Cd804 Cd 0.42542 0.71253 0.80463 0.0
O805 O 0.44213 0.66673 0.80082 0.0
Cd806 Cd 0.42051 0.67661 0.78129 0.0
O807 O 0.40663 0.65017 0.77341 0.0
C808 C 0.41845 0.63692 0.77118 0.0
O809 O 0.43649 0.64106 0.77121 0.0
C810 C 0.44934 0.6734 0.81577 0.0
C811 C 0.42046 0.74346 0.82815 0.0
O812 O 0.40847 0.72998 0.828 0.0
O813 O 0.43453 0.74263 0.81692 0.0
O814 O 0.05677 0.69523 0.57132 0.0
Cd815 Cd 0.03413 0.67543 0.55476 0.0
O816 O 0.07994 0.69214 0.55092 0.0
Cd817 Cd 0.07001 0.67053 0.53139 0.0
O818 O 0.09642 0.65663 0.5235 0.0
C819 C 0.10969 0.66845 0.52127 0.0
O820 O 0.10558 0.68648 0.52131 0.0
C821 C 0.0733 0.69934 0.56588 0.0
C822 C 0.00322 0.67047 0.5783 0.0
O823 O 0.01668 0.65848 0.57814 0.0
O824 O 0.00405 0.68455 0.56707 0.0
O825 O 0.05145 0.30678 0.32114 0.0
Cd826 Cd 0.07126 0.28416 0.30462 0.0
O827 O 0.05454 0.32995 0.30074 0.0
Cd828 Cd 0.07616 0.32004 0.28125 0.0
O829 O 0.09005 0.34647 0.27336 0.0
C830 C 0.07823 0.35972 0.2711 0.0
O831 O 0.0602 0.35558 0.27112 0.0
C832 C 0.04733 0.32331 0.3157 0.0
C833 C 0.07621 0.25326 0.32817 0.0
O834 O 0.0882 0.26674 0.32801 0.0
O835 O 0.06214 0.25408 0.31693 0.0
O836 O 0.4399 0.69524 0.42553 0.0
Cd837 Cd 0.46253 0.67543 0.44206 0.0
O838 O 0.41673 0.69215 0.44594 0.0
Cd839 Cd 0.42664 0.67052 0.46543 0.0
O840 O 0.40022 0.65663 0.47332 0.0
C841 C 0.38696 0.66845 0.47558 0.0
O842 O 0.3911 0.68649 0.47556 0.0
C843 C 0.42337 0.69936 0.43098 0.0
C844 C 0.49342 0.67047 0.41851 0.0
O845 O 0.47994 0.65848 0.41867 0.0
O846 O 0.4926 0.68454 0.42975 0.0
O847 O 0.05146 0.68991 0.17536 0.0
Cd848 Cd 0.07125 0.71256 0.19192 0.0
O849 O 0.05454 0.66674 0.19576 0.0
Cd850 Cd 0.07616 0.67667 0.21528 0.0
O851 O 0.09005 0.65026 0.22318 0.0
C852 C 0.07824 0.63699 0.22541 0.0
O853 O 0.0602 0.6411 0.22537 0.0
C854 C 0.04734 0.67338 0.1808 0.0
C855 C 0.07621 0.74347 0.16837 0.0
O856 O 0.0882 0.73 0.16854 0.0
O857 O 0.06214 0.74263 0.1796 0.0
O858 O 0.05675 0.30145 0.92549 0.0
Cd859 Cd 0.03415 0.32127 0.94205 0.0
O860 O 0.07995 0.30455 0.94586 0.0
Cd861 Cd 0.07007 0.32618 0.96538 0.0
O862 O 0.09651 0.34006 0.97327 0.0
C863 C 0.10976 0.32823 0.9755 0.0
O864 O 0.10562 0.3102 0.97547 0.0
C865 C 0.07329 0.29734 0.93091 0.0
C866 C 0.00322 0.32623 0.91853 0.0
O867 O 0.0167 0.33821 0.91868 0.0
O868 O 0.00405 0.31216 0.92976 0.0
O869 O 0.4454 0.30675 0.67543 0.0
Cd870 Cd 0.42562 0.28411 0.692 0.0
O871 O 0.44232 0.32994 0.69583 0.0
Cd872 Cd 0.42073 0.32001 0.71536 0.0
O873 O 0.40682 0.34642 0.72324 0.0
C874 C 0.41863 0.3597 0.72547 0.0
O875 O 0.43667 0.3556 0.72543 0.0
C876 C 0.44951 0.32329 0.68086 0.0
C877 C 0.42063 0.2532 0.66846 0.0
O878 O 0.40864 0.26667 0.66864 0.0
O879 O 0.43472 0.25404 0.67967 0.0
O880 O 0.07123 0.43994 0.30127 0.0
Cd881 Cd 0.05465 0.46256 0.32104 0.0
O882 O 0.05084 0.41674 0.30435 0.0
Cd883 Cd 0.03131 0.42665 0.32594 0.0
O884 O 0.02342 0.40024 0.33984 0.0
C885 C 0.0212 0.38696 0.32803 0.0
O886 O 0.02124 0.39107 0.30999 0.0
C887 C 0.0658 0.42339 0.29715 0.0
C888 C 0.07819 0.49348 0.32603 0.0
O889 O 0.07801 0.48002 0.33802 0.0
O890 O 0.06698 0.49265 0.31194 0.0
O891 O 0.3068 0.32118 0.05145 0.0
Cd892 Cd 0.28416 0.30465 0.07126 0.0
O893 O 0.32996 0.30076 0.05453 0.0
Cd894 Cd 0.32003 0.28127 0.07616 0.0
O895 O 0.34645 0.27338 0.09005 0.0
C896 C 0.35971 0.27112 0.07823 0.0
O897 O 0.35558 0.27114 0.0602 0.0
C898 C 0.32332 0.31573 0.04733 0.0
C899 C 0.25327 0.32821 0.07621 0.0
O900 O 0.26675 0.32805 0.0882 0.0
O901 O 0.25409 0.31697 0.06214 0.0
O902 O 0.42547 0.55674 0.8014 0.0
Cd903 Cd 0.44204 0.53414 0.8212 0.0
O904 O 0.44584 0.57995 0.8045 0.0
Cd905 Cd 0.46537 0.57007 0.82611 0.0
O906 O 0.47325 0.59651 0.84 0.0
C907 C 0.47548 0.60977 0.82817 0.0
O908 O 0.47544 0.60563 0.81014 0.0
C909 C 0.43089 0.57328 0.79729 0.0
C910 C 0.41853 0.5032 0.82617 0.0
O911 O 0.41869 0.51668 0.83816 0.0
O912 O 0.42975 0.50404 0.8121 0.0
O913 O 0.1899 0.67538 0.55149 0.0
Cd914 Cd 0.21254 0.69192 0.5713 0.0
O915 O 0.16673 0.69578 0.55458 0.0
Cd916 Cd 0.17666 0.7153 0.5762 0.0
O917 O 0.15025 0.72319 0.59009 0.0
C918 C 0.13699 0.72543 0.57827 0.0
O919 O 0.14111 0.7254 0.56024 0.0
C920 C 0.17337 0.68082 0.54738 0.0
C921 C 0.24344 0.66838 0.57624 0.0
O922 O 0.22998 0.66854 0.58824 0.0
O923 O 0.24261 0.67961 0.56218 0.0
O924 O 0.07131 0.55678 0.19519 0.0
Cd925 Cd 0.05476 0.53414 0.17538 0.0
O926 O 0.0509 0.57995 0.1921 0.0
Cd927 Cd 0.03139 0.57002 0.17048 0.0
O928 O 0.02349 0.59643 0.15659 0.0
C929 C 0.02125 0.6097 0.1684 0.0
O930 O 0.02129 0.60558 0.18644 0.0
C931 C 0.06586 0.57331 0.1993 0.0
C932 C 0.07831 0.50324 0.17043 0.0
O933 O 0.07814 0.51671 0.15844 0.0
O934 O 0.06707 0.50407 0.1845 0.0
O935 O 0.18995 0.32121 0.94528 0.0
Cd936 Cd 0.21254 0.30464 0.92548 0.0
O937 O 0.16673 0.30084 0.94218 0.0
Cd938 Cd 0.17661 0.28131 0.92057 0.0
O939 O 0.15018 0.27343 0.90668 0.0
C940 C 0.13692 0.2712 0.91851 0.0
O941 O 0.14105 0.27124 0.93654 0.0
C942 C 0.1734 0.3158 0.94939 0.0
C943 C 0.24348 0.32816 0.92051 0.0
O944 O 0.23 0.328 0.90852 0.0
O945 O 0.24264 0.31693 0.93458 0.0
O946 O 0.42551 0.43989 0.69523 0.0
Cd947 Cd 0.44203 0.46252 0.67542 0.0
O948 O 0.44592 0.41673 0.69215 0.0
Cd949 Cd 0.46541 0.42665 0.67052 0.0
O950 O 0.47331 0.40023 0.65663 0.0
C951 C 0.47556 0.38698 0.66845 0.0
O952 O 0.47554 0.39111 0.68648 0.0
C953 C 0.43096 0.42336 0.69935 0.0
C954 C 0.41847 0.49341 0.67047 0.0
O955 O 0.41864 0.47993 0.65848 0.0
O956 O 0.42971 0.49259 0.68454 0.0
O957 O 0.30675 0.67546 0.44541 0.0
Cd958 Cd 0.28412 0.69203 0.42564 0.0
O959 O 0.32995 0.69584 0.44233 0.0
Cd960 Cd 0.32003 0.71538 0.42074 0.0
O961 O 0.34645 0.72326 0.40684 0.0
C962 C 0.35972 0.72549 0.41865 0.0
O963 O 0.35561 0.72545 0.43669 0.0
C964 C 0.32329 0.68088 0.44952 0.0
C965 C 0.2532 0.66849 0.42064 0.0
O966 O 0.26667 0.66867 0.40866 0.0
O967 O 0.25404 0.67971 0.43473 0.0
O968 O 0.30127 0.07121 0.43992 0.0
Cd969 Cd 0.32104 0.05464 0.46256 0.0
O970 O 0.30434 0.05081 0.41674 0.0
Cd971 Cd 0.32594 0.03128 0.42666 0.0
O972 O 0.33984 0.0234 0.40025 0.0
C973 C 0.32803 0.02116 0.38698 0.0
O974 O 0.30999 0.0212 0.39108 0.0
C975 C 0.29715 0.06577 0.42339 0.0
C976 C 0.32604 0.07819 0.49347 0.0
O977 O 0.33803 0.07801 0.48 0.0
O978 O 0.31195 0.06698 0.49264 0.0
O979 O 0.80147 0.42545 0.55674 0.0
Cd980 Cd 0.82128 0.44202 0.53414 0.0
O981 O 0.80457 0.44582 0.57995 0.0
Cd982 Cd 0.82619 0.46535 0.57007 0.0
O983 O 0.84007 0.47323 0.59651 0.0
C984 C 0.82824 0.47546 0.60976 0.0
O985 O 0.81021 0.47542 0.60562 0.0
C986 C 0.79735 0.43087 0.57328 0.0
C987 C 0.82624 0.4185 0.50321 0.0
O988 O 0.83822 0.41866 0.51669 0.0
O989 O 0.81217 0.42974 0.50404 0.0
O990 O 0.32115 0.0514 0.30679 0.0
Cd991 Cd 0.30462 0.0712 0.28415 0.0
O992 O 0.30073 0.05448 0.32995 0.0
Cd993 Cd 0.28124 0.0761 0.32003 0.0
O994 O 0.27335 0.08999 0.34645 0.0
C995 C 0.27109 0.07818 0.35971 0.0
O996 O 0.27111 0.06014 0.35558 0.0
C997 C 0.3157 0.04728 0.32331 0.0
C998 C 0.32818 0.07616 0.25326 0.0
O999 O 0.32801 0.08815 0.26674 0.0
O1000 O 0.31694 0.06209 0.25408 0.0
O1001 O 0.69519 0.57131 0.05677 0.0
Cd1002 Cd 0.67538 0.55476 0.03414 0.0
O1003 O 0.6921 0.55092 0.07994 0.0
Cd1004 Cd 0.67048 0.53139 0.07003 0.0
O1005 O 0.65659 0.5235 0.09645 0.0
C1006 C 0.66841 0.52127 0.10971 0.0
O1007 O 0.68644 0.52131 0.10559 0.0
C1008 C 0.6993 0.56588 0.0733 0.0
C1009 C 0.67043 0.57829 0.00322 0.0
O1010 O 0.65844 0.57813 0.01669 0.0
O1011 O 0.68449 0.56706 0.00406 0.0
O1012 O 0.67548 0.44542 0.30676 0.0
Cd1013 Cd 0.69204 0.42564 0.28412 0.0
O1014 O 0.69588 0.44234 0.32994 0.0
Cd1015 Cd 0.7154 0.42075 0.32002 0.0
O1016 O 0.72328 0.40684 0.34643 0.0
C1017 C 0.72552 0.41865 0.3597 0.0
O1018 O 0.72548 0.43669 0.3556 0.0
C1019 C 0.68091 0.44953 0.32329 0.0
C1020 C 0.66849 0.42065 0.25321 0.0
O1021 O 0.66867 0.40866 0.26668 0.0
O1022 O 0.67971 0.43474 0.25404 0.0
O1023 O 0.19529 0.92554 0.93989 0.0
Cd1024 Cd 0.17548 0.94207 0.96253 0.0
O1025 O 0.19221 0.94595 0.91673 0.0
Cd1026 Cd 0.17059 0.96544 0.92665 0.0
O1027 O 0.15669 0.97333 0.90023 0.0
C1028 C 0.16851 0.97559 0.88697 0.0
O1029 O 0.18654 0.97557 0.8911 0.0
C1030 C 0.19941 0.93099 0.92336 0.0
C1031 C 0.17052 0.91851 0.99342 0.0
O1032 O 0.15853 0.91868 0.97994 0.0
O1033 O 0.18459 0.92974 0.9926 0.0
O1034 O 0.32123 0.94522 0.18994 0.0
Cd1035 Cd 0.30466 0.9254 0.21254 0.0
O1036 O 0.30086 0.94212 0.16673 0.0
Cd1037 Cd 0.28133 0.92049 0.17661 0.0
O1038 O 0.27345 0.90662 0.15017 0.0
C1039 C 0.27122 0.91844 0.13692 0.0
O1040 O 0.27126 0.93647 0.14106 0.0
C1041 C 0.31581 0.94933 0.1734 0.0
C1042 C 0.32818 0.92045 0.24347 0.0
O1043 O 0.32803 0.90846 0.22999 0.0
O1044 O 0.31695 0.93451 0.24263 0.0
O1045 O 0.17537 0.0515 0.68991 0.0
Cd1046 Cd 0.19193 0.07131 0.71254 0.0
O1047 O 0.19577 0.05458 0.66673 0.0
Cd1048 Cd 0.21529 0.07621 0.67665 0.0
O1049 O 0.22318 0.0901 0.65023 0.0
C1050 C 0.22542 0.07828 0.63697 0.0
O1051 O 0.22538 0.06024 0.64109 0.0
C1052 C 0.18081 0.04738 0.67338 0.0
C1053 C 0.16839 0.07626 0.74346 0.0
O1054 O 0.16855 0.08825 0.72999 0.0
O1055 O 0.17963 0.06219 0.74262 0.0
H1056 H 0.12527 0.22371 0.36859 0.0
H1057 H 0.0652 0.22477 0.37518 0.0
H1058 H 0.0998 0.19864 0.41728 0.0
H1059 H 0.06697 0.22713 0.34233 0.0
C1060 C 0.07809 0.23759 0.34148 0.0
C1061 C 0.11286 0.21995 0.37663 0.0
C1062 C 0.11458 0.20966 0.3934 0.0
C1063 C 0.09514 0.22531 0.36991 0.0
C1064 C 0.07891 0.22041 0.38019 0.0
C1065 C 0.08035 0.21029 0.39717 0.0
C1066 C 0.0983 0.20535 0.40378 0.0
N1067 N 0.09418 0.23636 0.35327 0.0
H1068 H 0.02305 0.87517 0.61859 0.0
H1069 H 0.02203 0.8151 0.62523 0.0
H1070 H 0.04816 0.84977 0.66731 0.0
H1071 H 0.01962 0.81683 0.59239 0.0
C1072 C 0.00917 0.82795 0.59152 0.0
C1073 C 0.02682 0.86277 0.62665 0.0
C1074 C 0.03712 0.86452 0.64342 0.0
C1075 C 0.02148 0.84504 0.61994 0.0
C1076 C 0.02638 0.82883 0.63023 0.0
C1077 C 0.03651 0.83029 0.64721 0.0
C1078 C 0.04145 0.84826 0.65381 0.0
N1079 N 0.01041 0.84405 0.6033 0.0
H1080 H 0.37141 0.77305 0.86854 0.0
H1081 H 0.43148 0.77203 0.87513 0.0
H1082 H 0.39688 0.79819 0.91721 0.0
H1083 H 0.4297 0.76962 0.84229 0.0
C1084 C 0.41858 0.75915 0.84144 0.0
C1085 C 0.38382 0.77682 0.87658 0.0
C1086 C 0.38209 0.78713 0.89334 0.0
C1087 C 0.40153 0.77147 0.86987 0.0
C1088 C 0.41776 0.77638 0.88014 0.0
C1089 C 0.41633 0.78653 0.89712 0.0
C1090 C 0.39838 0.79147 0.90372 0.0
N1091 N 0.40249 0.7604 0.85323 0.0
H1092 H 0.47365 0.12142 0.11871 0.0
H1093 H 0.47469 0.18149 0.1253 0.0
H1094 H 0.44856 0.14688 0.16739 0.0
H1095 H 0.47709 0.17972 0.09246 0.0
C1096 C 0.48754 0.16859 0.0916 0.0
C1097 C 0.46988 0.13383 0.12675 0.0
C1098 C 0.45959 0.1321 0.14352 0.0
C1099 C 0.47523 0.15155 0.12003 0.0
C1100 C 0.47034 0.16777 0.13031 0.0
C1101 C 0.4602 0.16634 0.14729 0.0
C1102 C 0.45526 0.14838 0.1539 0.0
N1103 N 0.48629 0.15251 0.10339 0.0
H1104 H 0.12527 0.77304 0.12797 0.0
H1105 H 0.06519 0.77199 0.12138 0.0
H1106 H 0.0998 0.79813 0.07929 0.0
H1107 H 0.06697 0.7696 0.15422 0.0
C1108 C 0.07809 0.75914 0.15508 0.0
C1109 C 0.11286 0.7768 0.11993 0.0
C1110 C 0.11458 0.7871 0.10316 0.0
C1111 C 0.09514 0.77145 0.12665 0.0
C1112 C 0.07891 0.77635 0.11637 0.0
C1113 C 0.08034 0.78648 0.09939 0.0
C1114 C 0.0983 0.79142 0.09278 0.0
N1115 N 0.09417 0.76039 0.14329 0.0
H1116 H 0.47363 0.87528 0.37814 0.0
H1117 H 0.47466 0.81521 0.37155 0.0
H1118 H 0.4485 0.8498 0.32947 0.0
H1119 H 0.47707 0.81698 0.40439 0.0
C1120 C 0.48753 0.82811 0.40524 0.0
C1121 C 0.46986 0.86287 0.3701 0.0
C1122 C 0.45955 0.86459 0.35334 0.0
C1123 C 0.47521 0.84515 0.37681 0.0
C1124 C 0.4703 0.82892 0.36654 0.0
C1125 C 0.46016 0.83035 0.34956 0.0
C1126 C 0.45521 0.84831 0.34296 0.0
N1127 N 0.48629 0.84419 0.39345 0.0
H1128 H 0.37151 0.22363 0.62808 0.0
H1129 H 0.43158 0.22465 0.62145 0.0
H1130 H 0.39691 0.19853 0.57937 0.0
H1131 H 0.42985 0.22706 0.65429 0.0
C1132 C 0.41873 0.23752 0.65516 0.0
C1133 C 0.38391 0.21986 0.62003 0.0
C1134 C 0.38216 0.20956 0.60326 0.0
C1135 C 0.40164 0.22521 0.62674 0.0
C1136 C 0.41786 0.22031 0.61645 0.0
C1137 C 0.4164 0.21017 0.59947 0.0
C1138 C 0.39843 0.20524 0.59287 0.0
N1139 N 0.40263 0.23627 0.64338 0.0
H1140 H 0.02297 0.12142 0.87809 0.0
H1141 H 0.02192 0.18149 0.8715 0.0
H1142 H 0.04804 0.14688 0.8294 0.0
H1143 H 0.01955 0.17972 0.90435 0.0
C1144 C 0.00909 0.16859 0.9052 0.0
C1145 C 0.02673 0.13383 0.87005 0.0
C1146 C 0.03702 0.1321 0.85328 0.0
C1147 C 0.02138 0.15154 0.87677 0.0
C1148 C 0.02627 0.16777 0.86649 0.0
C1149 C 0.0364 0.16634 0.84951 0.0
C1150 C 0.04134 0.14838 0.84289 0.0
N1151 N 0.01033 0.15251 0.89341 0.0
H1152 H 0.36859 0.12524 0.22372 0.0
H1153 H 0.37519 0.06517 0.22478 0.0
H1154 H 0.41729 0.0998 0.19866 0.0
H1155 H 0.34235 0.06692 0.22714 0.0
C1156 C 0.34149 0.07805 0.23759 0.0
C1157 C 0.37664 0.11283 0.21996 0.0
C1158 C 0.39341 0.11457 0.20967 0.0
C1159 C 0.36992 0.09511 0.22531 0.0
C1160 C 0.3802 0.07889 0.22042 0.0
C1161 C 0.39719 0.08033 0.2103 0.0
C1162 C 0.4038 0.09829 0.20536 0.0
N1163 N 0.35328 0.09414 0.23636 0.0
H1164 H 0.12139 0.1187 0.47365 0.0
H1165 H 0.18146 0.12528 0.47469 0.0
H1166 H 0.14688 0.16737 0.44855 0.0
H1167 H 0.17967 0.09244 0.47709 0.0
C1168 C 0.16855 0.09159 0.48754 0.0
C1169 C 0.1338 0.12674 0.46988 0.0
C1170 C 0.13208 0.1435 0.45958 0.0
C1171 C 0.15152 0.12002 0.47523 0.0
C1172 C 0.16775 0.13029 0.47033 0.0
C1173 C 0.16632 0.14727 0.4602 0.0
C1174 C 0.14837 0.15388 0.45526 0.0
N1175 N 0.15247 0.10338 0.4863 0.0
H1176 H 0.12812 0.87152 0.72365 0.0
H1177 H 0.12148 0.93159 0.72468 0.0
H1178 H 0.0794 0.89691 0.69855 0.0
H1179 H 0.15432 0.92987 0.72708 0.0
C1180 C 0.15519 0.91874 0.73753 0.0
C1181 C 0.12006 0.88392 0.71988 0.0
C1182 C 0.10329 0.88217 0.70959 0.0
C1183 C 0.12677 0.90165 0.72523 0.0
C1184 C 0.11648 0.91786 0.72033 0.0
C1185 C 0.09949 0.9164 0.7102 0.0
C1186 C 0.09289 0.89843 0.70526 0.0
N1187 N 0.14341 0.90264 0.73629 0.0
H1188 H 0.37529 0.87812 0.97362 0.0
H1189 H 0.31521 0.87153 0.97463 0.0
H1190 H 0.34981 0.82945 0.94847 0.0
H1191 H 0.317 0.90437 0.97705 0.0
C1192 C 0.32812 0.90522 0.98751 0.0
C1193 C 0.36287 0.87008 0.96984 0.0
C1194 C 0.3646 0.85332 0.95953 0.0
C1195 C 0.34516 0.87679 0.97519 0.0
C1196 C 0.32893 0.86652 0.97028 0.0
C1197 C 0.33035 0.84955 0.96013 0.0
C1198 C 0.34831 0.84294 0.95519 0.0
N1199 N 0.3442 0.89343 0.98627 0.0
H1200 H 0.36856 0.8714 0.27306 0.0
H1201 H 0.37516 0.93147 0.27205 0.0
H1202 H 0.41723 0.89688 0.29821 0.0
H1203 H 0.34231 0.92969 0.26963 0.0
C1204 C 0.34147 0.91856 0.25916 0.0
C1205 C 0.3766 0.88381 0.27684 0.0
C1206 C 0.39337 0.88209 0.28715 0.0
C1207 C 0.36989 0.90153 0.27149 0.0
C1208 C 0.38016 0.91776 0.2764 0.0
C1209 C 0.39714 0.91633 0.28655 0.0
C1210 C 0.40374 0.89837 0.29149 0.0
N1211 N 0.35325 0.90249 0.26041 0.0
H1212 H 0.37516 0.11857 0.52303 0.0
H1213 H 0.3151 0.12521 0.522 0.0
H1214 H 0.34977 0.16728 0.54812 0.0
H1215 H 0.31682 0.09237 0.5196 0.0
C1216 C 0.32794 0.0915 0.50915 0.0
C1217 C 0.36276 0.12662 0.5268 0.0
C1218 C 0.36452 0.14339 0.53709 0.0
C1219 C 0.34503 0.11992 0.52145 0.0
C1220 C 0.32882 0.13021 0.52635 0.0
C1221 C 0.33028 0.14719 0.53648 0.0
C1222 C 0.34825 0.15379 0.54142 0.0
N1223 N 0.34404 0.10327 0.51039 0.0
H1224 H 0.12799 0.1253 0.77303 0.0
H1225 H 0.12141 0.06522 0.77199 0.0
H1226 H 0.07932 0.09981 0.79813 0.0
H1227 H 0.15425 0.06701 0.76959 0.0
C1228 C 0.1551 0.07813 0.75914 0.0
C1229 C 0.11995 0.11288 0.7768 0.0
C1230 C 0.10318 0.1146 0.7871 0.0
C1231 C 0.12667 0.09517 0.77144 0.0
C1232 C 0.1164 0.07894 0.77634 0.0
C1233 C 0.09942 0.08036 0.78648 0.0
C1234 C 0.09281 0.09832 0.79142 0.0
N1235 N 0.1433 0.09421 0.76038 0.0
H1236 H 0.12145 0.87809 0.02296 0.0
H1237 H 0.18151 0.87149 0.0219 0.0
H1238 H 0.14689 0.82939 0.04802 0.0
H1239 H 0.17976 0.90434 0.01954 0.0
C1240 C 0.16863 0.9052 0.00909 0.0
C1241 C 0.13385 0.87004 0.02672 0.0
C1242 C 0.13212 0.85327 0.037 0.0
C1243 C 0.15157 0.87676 0.02137 0.0
C1244 C 0.16779 0.86648 0.02626 0.0
C1245 C 0.16635 0.8495 0.03638 0.0
C1246 C 0.14839 0.84289 0.04132 0.0
N1247 N 0.15254 0.89341 0.01032 0.0
H1248 H 0.22373 0.36864 0.12527 0.0
H1249 H 0.22479 0.37522 0.0652 0.0
H1250 H 0.19867 0.41733 0.0998 0.0
H1251 H 0.22715 0.34238 0.06697 0.0
C1252 C 0.23761 0.34152 0.07809 0.0
C1253 C 0.21997 0.37668 0.11286 0.0
C1254 C 0.20969 0.39345 0.11458 0.0
C1255 C 0.22533 0.36996 0.09514 0.0
C1256 C 0.22044 0.38024 0.07891 0.0
C1257 C 0.21031 0.39722 0.08035 0.0
C1258 C 0.20537 0.40383 0.0983 0.0
N1259 N 0.23637 0.35331 0.09418 0.0
H1260 H 0.72362 0.12813 0.87152 0.0
H1261 H 0.72464 0.12149 0.93159 0.0
H1262 H 0.69851 0.07942 0.89691 0.0
H1263 H 0.72706 0.15433 0.92986 0.0
C1264 C 0.73751 0.1552 0.91874 0.0
C1265 C 0.71985 0.12008 0.88392 0.0
C1266 C 0.70955 0.10331 0.88216 0.0
C1267 C 0.7252 0.12678 0.90165 0.0
C1268 C 0.72029 0.11649 0.91786 0.0
C1269 C 0.71015 0.09951 0.9164 0.0
C1270 C 0.70522 0.09291 0.89843 0.0
N1271 N 0.73627 0.14342 0.90264 0.0
H1272 H 0.11872 0.47367 0.12139 0.0
H1273 H 0.1253 0.47473 0.18147 0.0
H1274 H 0.1674 0.4486 0.14687 0.0
H1275 H 0.09246 0.47711 0.17968 0.0
C1276 C 0.09161 0.48756 0.16856 0.0
C1277 C 0.12676 0.46991 0.13381 0.0
C1278 C 0.14353 0.45962 0.13208 0.0
C1279 C 0.12004 0.47527 0.15152 0.0
C1280 C 0.13031 0.47037 0.16775 0.0
C1281 C 0.14729 0.46024 0.16632 0.0
C1282 C 0.15391 0.4553 0.14837 0.0
N1283 N 0.1034 0.48632 0.15248 0.0
H1284 H 0.77307 0.86853 0.37143 0.0
H1285 H 0.77206 0.87514 0.4315 0.0
H1286 H 0.79822 0.91721 0.39689 0.0
H1287 H 0.76964 0.8423 0.42974 0.0
C1288 C 0.75918 0.84144 0.41862 0.0
C1289 C 0.77685 0.87657 0.38384 0.0
C1290 C 0.78716 0.89334 0.38211 0.0
C1291 C 0.7715 0.86986 0.40156 0.0
C1292 C 0.77641 0.88014 0.41779 0.0
C1293 C 0.78656 0.89712 0.41635 0.0
C1294 C 0.7915 0.90372 0.39839 0.0
N1295 N 0.76042 0.85323 0.40253 0.0
H1296 H 0.87805 0.02295 0.12141 0.0
H1297 H 0.87146 0.02189 0.18148 0.0
H1298 H 0.82936 0.04801 0.14688 0.0
H1299 H 0.90431 0.01954 0.17971 0.0
C1300 C 0.90517 0.00908 0.16859 0.0
C1301 C 0.87 0.02671 0.13382 0.0
C1302 C 0.85323 0.037 0.1321 0.0
C1303 C 0.87673 0.02136 0.15154 0.0
C1304 C 0.86645 0.02625 0.16777 0.0
C1305 C 0.84947 0.03637 0.16633 0.0
C1306 C 0.84285 0.04131 0.14838 0.0
N1307 N 0.89337 0.01031 0.1525 0.0
H1308 H 0.27301 0.62796 0.62529 0.0
H1309 H 0.27196 0.62138 0.56521 0.0
H1310 H 0.29809 0.57929 0.5998 0.0
H1311 H 0.26957 0.65422 0.567 0.0
C1312 C 0.25912 0.65508 0.57812 0.0
C1313 C 0.27677 0.61992 0.61287 0.0
C1314 C 0.28706 0.60315 0.6146 0.0
C1315 C 0.27142 0.62664 0.59516 0.0
C1316 C 0.27631 0.61637 0.57893 0.0
C1317 C 0.28644 0.59939 0.58035 0.0
C1318 C 0.29138 0.59278 0.59831 0.0
N1319 N 0.26036 0.64328 0.5942 0.0
H1320 H 0.11855 0.52306 0.37516 0.0
H1321 H 0.1252 0.52204 0.31509 0.0
H1322 H 0.16726 0.54818 0.34977 0.0
H1323 H 0.09236 0.51963 0.31682 0.0
C1324 C 0.09149 0.50917 0.32794 0.0
C1325 C 0.12661 0.52683 0.36276 0.0
C1326 C 0.14338 0.53713 0.36452 0.0
C1327 C 0.1199 0.52148 0.34503 0.0
C1328 C 0.1302 0.52639 0.32882 0.0
C1329 C 0.14718 0.53653 0.33028 0.0
C1330 C 0.15377 0.54147 0.34825 0.0
N1331 N 0.10326 0.51042 0.34404 0.0
H1332 H 0.37816 0.47361 0.87524 0.0
H1333 H 0.37154 0.47462 0.81517 0.0
H1334 H 0.32948 0.44846 0.84979 0.0
H1335 H 0.40439 0.47705 0.81694 0.0
C1336 C 0.40524 0.48751 0.82806 0.0
C1337 C 0.37011 0.46983 0.86284 0.0
C1338 C 0.35335 0.45952 0.86457 0.0
C1339 C 0.37682 0.47519 0.84512 0.0
C1340 C 0.36654 0.47027 0.82889 0.0
C1341 C 0.34957 0.46012 0.83033 0.0
C1342 C 0.34296 0.45518 0.84829 0.0
N1343 N 0.39346 0.48626 0.84415 0.0
H1344 H 0.87624 0.75867 0.61085 0.0
H1345 H 0.93186 0.77981 0.59877 0.0
H1346 H 0.8872 0.7878 0.55897 0.0
H1347 H 0.93628 0.77722 0.6294 0.0
C1348 C 0.92815 0.76493 0.63342 0.0
C1349 C 0.8859 0.76595 0.60154 0.0
C1350 C 0.8796 0.77268 0.58408 0.0
C1351 C 0.90474 0.76841 0.60702 0.0
C1352 C 0.91726 0.77796 0.59492 0.0
C1353 C 0.91099 0.78523 0.57765 0.0
C1354 C 0.89224 0.78213 0.57221 0.0
N1355 N 0.91078 0.7606 0.62445 0.0
H1356 H 0.98796 0.12633 0.36077 0.0
H1357 H 0.96675 0.18191 0.3487 0.0
H1358 H 0.95874 0.13722 0.30892 0.0
H1359 H 0.96943 0.18636 0.37931 0.0
C1360 C 0.98172 0.17824 0.38332 0.0
C1361 C 0.98066 0.13598 0.35147 0.0
C1362 C 0.97391 0.12965 0.33401 0.0
C1363 C 0.97819 0.15481 0.35695 0.0
C1364 C 0.9686 0.16731 0.34485 0.0
C1365 C 0.96131 0.16102 0.32759 0.0
C1366 C 0.96442 0.14228 0.32216 0.0
N1367 N 0.98603 0.16087 0.37437 0.0
H1368 H 0.62047 0.23791 0.11088 0.0
H1369 H 0.56485 0.21674 0.09882 0.0
H1370 H 0.60949 0.20872 0.05902 0.0
H1371 H 0.56045 0.21938 0.12945 0.0
C1372 C 0.56857 0.23168 0.13345 0.0
C1373 C 0.6108 0.23063 0.10158 0.0
C1374 C 0.6171 0.22387 0.08412 0.0
C1375 C 0.59197 0.22816 0.10707 0.0
C1376 C 0.57945 0.21859 0.09497 0.0
C1377 C 0.58571 0.2113 0.07771 0.0
C1378 C 0.60445 0.2144 0.07227 0.0
N1379 N 0.58593 0.236 0.12449 0.0
H1380 H 0.50872 0.87045 0.86063 0.0
H1381 H 0.52992 0.81485 0.84863 0.0
H1382 H 0.53794 0.85948 0.80881 0.0
H1383 H 0.52725 0.81044 0.87924 0.0
C1384 C 0.51496 0.81857 0.88325 0.0
C1385 C 0.51601 0.86078 0.85135 0.0
C1386 C 0.52277 0.86708 0.83389 0.0
C1387 C 0.51848 0.84196 0.85685 0.0
C1388 C 0.52807 0.82944 0.84476 0.0
C1389 C 0.53536 0.83571 0.8275 0.0
C1390 C 0.53225 0.85444 0.82205 0.0
N1391 N 0.51065 0.83592 0.87427 0.0
H1392 H 0.87624 0.23797 0.88605 0.0
H1393 H 0.93184 0.21676 0.89805 0.0
H1394 H 0.88721 0.20875 0.93787 0.0
H1395 H 0.93624 0.21943 0.86744 0.0
C1396 C 0.92811 0.23172 0.86343 0.0
C1397 C 0.8859 0.23067 0.89533 0.0
C1398 C 0.8796 0.22392 0.91279 0.0
C1399 C 0.90473 0.2282 0.88983 0.0
C1400 C 0.91724 0.21862 0.90192 0.0
C1401 C 0.91098 0.21132 0.91917 0.0
C1402 C 0.89224 0.21443 0.92463 0.0
N1403 N 0.91076 0.23604 0.87241 0.0
H1404 H 0.50877 0.12621 0.6358 0.0
H1405 H 0.52994 0.18184 0.64786 0.0
H1406 H 0.53797 0.1372 0.68766 0.0
H1407 H 0.52731 0.18624 0.61723 0.0
C1408 C 0.51501 0.17811 0.61322 0.0
C1409 C 0.51606 0.13588 0.6451 0.0
C1410 C 0.52281 0.12958 0.66256 0.0
C1411 C 0.51852 0.15472 0.63961 0.0
C1412 C 0.52809 0.16724 0.65171 0.0
C1413 C 0.53539 0.16097 0.66897 0.0
C1414 C 0.53229 0.14223 0.67441 0.0
N1415 N 0.51068 0.16075 0.62219 0.0
H1416 H 0.62036 0.75872 0.38591 0.0
H1417 H 0.56478 0.77993 0.39798 0.0
H1418 H 0.60946 0.78795 0.43776 0.0
H1419 H 0.56032 0.77726 0.36737 0.0
C1420 C 0.56844 0.76497 0.36335 0.0
C1421 C 0.61071 0.76602 0.39521 0.0
C1422 C 0.61703 0.77278 0.41266 0.0
C1423 C 0.59187 0.76849 0.38973 0.0
C1424 C 0.57937 0.77808 0.40183 0.0
C1425 C 0.58566 0.78537 0.41909 0.0
C1426 C 0.60441 0.78227 0.42452 0.0
N1427 N 0.58581 0.76065 0.37231 0.0
H1428 H 0.98801 0.87044 0.13583 0.0
H1429 H 0.96688 0.81482 0.14791 0.0
H1430 H 0.95888 0.85948 0.18771 0.0
H1431 H 0.96946 0.81041 0.11728 0.0
C1432 C 0.98175 0.81854 0.11326 0.0
C1433 C 0.98074 0.86078 0.14514 0.0
C1434 C 0.974 0.86709 0.1626 0.0
C1435 C 0.97827 0.84194 0.13966 0.0
C1436 C 0.96872 0.82942 0.15176 0.0
C1437 C 0.96145 0.83569 0.16903 0.0
C1438 C 0.96455 0.85444 0.17447 0.0
N1439 N 0.98609 0.8359 0.12223 0.0
H1440 H 0.61084 0.87627 0.75866 0.0
H1441 H 0.59876 0.93188 0.77979 0.0
H1442 H 0.55896 0.8872 0.78778 0.0
H1443 H 0.62938 0.93631 0.7772 0.0
C1444 C 0.6334 0.92818 0.76491 0.0
C1445 C 0.60154 0.88593 0.76593 0.0
C1446 C 0.58407 0.87961 0.77266 0.0
C1447 C 0.60702 0.90477 0.76839 0.0
C1448 C 0.59491 0.91728 0.77795 0.0
C1449 C 0.57764 0.911 0.78522 0.0
C1450 C 0.57221 0.89225 0.78212 0.0
N1451 N 0.62444 0.91082 0.76058 0.0
H1452 H 0.87049 0.86066 0.50873 0.0
H1453 H 0.81488 0.84866 0.52992 0.0
H1454 H 0.85949 0.80883 0.53794 0.0
H1455 H 0.81049 0.87928 0.52726 0.0
C1456 C 0.81862 0.88328 0.51497 0.0
C1457 C 0.86082 0.85137 0.51602 0.0
C1458 C 0.86711 0.83391 0.52277 0.0
C1459 C 0.84199 0.85687 0.51849 0.0
C1460 C 0.82947 0.84479 0.52807 0.0
C1461 C 0.83573 0.82753 0.53536 0.0
C1462 C 0.85446 0.82207 0.53226 0.0
N1463 N 0.83597 0.8743 0.51065 0.0
H1464 H 0.88586 0.12035 0.2587 0.0
H1465 H 0.89795 0.06476 0.27989 0.0
H1466 H 0.93772 0.10946 0.2879 0.0
H1467 H 0.86734 0.0603 0.27724 0.0
C1468 C 0.86332 0.06842 0.26495 0.0
C1469 C 0.89516 0.1107 0.266 0.0
C1470 C 0.91262 0.11703 0.27275 0.0
C1471 C 0.88969 0.09186 0.26846 0.0
C1472 C 0.9018 0.07936 0.27804 0.0
C1473 C 0.91905 0.08566 0.28533 0.0
C1474 C 0.92448 0.1044 0.28222 0.0
N1475 N 0.87227 0.08579 0.26063 0.0
H1476 H 0.6262 0.13584 0.00878 0.0
H1477 H 0.68182 0.14788 0.02997 0.0
H1478 H 0.63719 0.18769 0.038 0.0
H1479 H 0.68622 0.11726 0.02731 0.0
C1480 C 0.67809 0.11326 0.01502 0.0
C1481 C 0.63587 0.14514 0.01607 0.0
C1482 C 0.62957 0.16259 0.02283 0.0
C1483 C 0.6547 0.13965 0.01854 0.0
C1484 C 0.66722 0.15174 0.02812 0.0
C1485 C 0.66096 0.169 0.03541 0.0
C1486 C 0.64223 0.17445 0.03231 0.0
N1487 N 0.66073 0.12223 0.0107 0.0
H1488 H 0.61084 0.12048 0.7379 0.0
H1489 H 0.5988 0.06486 0.71671 0.0
H1490 H 0.559 0.10949 0.70868 0.0
H1491 H 0.62942 0.06047 0.71936 0.0
C1492 C 0.63343 0.0686 0.73166 0.0
C1493 C 0.60155 0.11081 0.73061 0.0
C1494 C 0.58409 0.11711 0.72385 0.0
C1495 C 0.60704 0.09198 0.72814 0.0
C1496 C 0.59494 0.07946 0.71856 0.0
C1497 C 0.57768 0.08572 0.71127 0.0
C1498 C 0.57224 0.10446 0.71437 0.0
N1499 N 0.62446 0.08595 0.73598 0.0
H1500 H 0.62634 0.86083 0.48797 0.0
H1501 H 0.68192 0.84873 0.46679 0.0
H1502 H 0.63722 0.80896 0.45878 0.0
H1503 H 0.68638 0.87934 0.46944 0.0
C1504 C 0.67826 0.88337 0.48173 0.0
C1505 C 0.63599 0.85152 0.48068 0.0
C1506 C 0.62966 0.83407 0.47393 0.0
C1507 C 0.65482 0.857 0.47821 0.0
C1508 C 0.66732 0.84489 0.46864 0.0
C1509 C 0.66103 0.82763 0.46135 0.0
C1510 C 0.64228 0.8222 0.46445 0.0
N1511 N 0.66089 0.87441 0.48605 0.0
H1512 H 0.88603 0.8762 0.23795 0.0
H1513 H 0.89802 0.93181 0.21675 0.0
H1514 H 0.93785 0.88719 0.20874 0.0
H1515 H 0.86741 0.9362 0.21942 0.0
C1516 C 0.86341 0.92807 0.23171 0.0
C1517 C 0.89531 0.88587 0.23066 0.0
C1518 C 0.91277 0.87958 0.2239 0.0
C1519 C 0.88981 0.90469 0.22819 0.0
C1520 C 0.90189 0.91721 0.21861 0.0
C1521 C 0.91915 0.91096 0.21131 0.0
C1522 C 0.92461 0.89223 0.21442 0.0
N1523 N 0.87239 0.91072 0.23602 0.0
H1524 H 0.87042 0.13584 0.98802 0.0
H1525 H 0.8148 0.14793 0.96689 0.0
H1526 H 0.85948 0.18772 0.9589 0.0
H1527 H 0.81038 0.1173 0.96948 0.0
C1528 C 0.8185 0.11328 0.98176 0.0
C1529 C 0.86076 0.14515 0.98075 0.0
C1530 C 0.86707 0.16261 0.97402 0.0
C1531 C 0.84192 0.13967 0.97829 0.0
C1532 C 0.82941 0.15178 0.96873 0.0
C1533 C 0.83569 0.16904 0.96146 0.0
C1534 C 0.85443 0.17448 0.96456 0.0
N1535 N 0.83587 0.12224 0.9861 0.0
H1536 H 0.75865 0.61079 0.87624 0.0
H1537 H 0.77979 0.59873 0.93186 0.0
H1538 H 0.78778 0.55892 0.8872 0.0
H1539 H 0.7772 0.62935 0.93627 0.0
C1540 C 0.76491 0.63337 0.92814 0.0
C1541 C 0.76593 0.60149 0.8859 0.0
C1542 C 0.77266 0.58402 0.8796 0.0
C1543 C 0.76839 0.60697 0.90474 0.0
C1544 C 0.77794 0.59487 0.91726 0.0
C1545 C 0.78521 0.5776 0.91098 0.0
C1546 C 0.78211 0.57216 0.89224 0.0
N1547 N 0.76058 0.6244 0.91078 0.0
H1548 H 0.25874 0.88585 0.12035 0.0
H1549 H 0.27994 0.89794 0.06477 0.0
H1550 H 0.28797 0.93771 0.10946 0.0
H1551 H 0.27727 0.86733 0.06031 0.0
C1552 C 0.26498 0.86331 0.06843 0.0
C1553 C 0.26604 0.89515 0.1107 0.0
C1554 C 0.27279 0.91261 0.11703 0.0
C1555 C 0.26851 0.88968 0.09186 0.0
C1556 C 0.27809 0.90178 0.07937 0.0
C1557 C 0.28539 0.91904 0.08566 0.0
C1558 C 0.28228 0.92447 0.1044 0.0
N1559 N 0.26067 0.87226 0.0858 0.0
H1560 H 0.86064 0.5087 0.87047 0.0
H1561 H 0.84863 0.52988 0.81486 0.0
H1562 H 0.80881 0.53789 0.85948 0.0
H1563 H 0.87925 0.52724 0.81046 0.0
C1564 C 0.88326 0.51495 0.8186 0.0
C1565 C 0.85135 0.51599 0.8608 0.0
C1566 C 0.83389 0.52273 0.8671 0.0
C1567 C 0.85685 0.51846 0.84198 0.0
C1568 C 0.84477 0.52803 0.82945 0.0
C1569 C 0.82751 0.53532 0.83571 0.0
C1570 C 0.82205 0.53221 0.85445 0.0
N1571 N 0.87428 0.51063 0.83595 0.0
H1572 H 0.2379 0.11088 0.62044 0.0
H1573 H 0.21671 0.09882 0.56483 0.0
H1574 H 0.20868 0.05902 0.60948 0.0
H1575 H 0.21937 0.12944 0.56042 0.0
C1576 C 0.23167 0.13344 0.56855 0.0
C1577 C 0.23061 0.10158 0.61078 0.0
C1578 C 0.22385 0.08412 0.61709 0.0
C1579 C 0.22814 0.10706 0.59195 0.0
C1580 C 0.21856 0.09496 0.57943 0.0
C1581 C 0.21127 0.0777 0.5857 0.0
C1582 C 0.21437 0.07227 0.60444 0.0
N1583 N 0.23598 0.12448 0.58591 0.0
H1584 H 0.13589 0.98803 0.87044 0.0
H1585 H 0.14796 0.96689 0.81482 0.0
H1586 H 0.18777 0.95891 0.85948 0.0
H1587 H 0.11733 0.96948 0.81041 0.0
C1588 C 0.11331 0.98177 0.81854 0.0
C1589 C 0.1452 0.98076 0.86078 0.0
C1590 C 0.16266 0.97403 0.86708 0.0
C1591 C 0.13971 0.97829 0.84194 0.0
C1592 C 0.15181 0.96874 0.82942 0.0
C1593 C 0.16908 0.96147 0.83569 0.0
C1594 C 0.17452 0.96457 0.85444 0.0
N1595 N 0.12228 0.9861 0.8359 0.0
H1596 H 0.73799 0.38604 0.37621 0.0
H1597 H 0.7168 0.39805 0.43182 0.0
H1598 H 0.70879 0.43788 0.3872 0.0
H1599 H 0.71945 0.36743 0.43621 0.0
C1600 C 0.73174 0.36343 0.42808 0.0
C1601 C 0.7307 0.39533 0.38588 0.0
C1602 C 0.72395 0.41279 0.37958 0.0
C1603 C 0.72823 0.38983 0.4047 0.0
C1604 C 0.71865 0.40192 0.41722 0.0
C1605 C 0.71137 0.41918 0.41096 0.0
C1606 C 0.71447 0.42463 0.39223 0.0
N1607 N 0.73606 0.37241 0.41073 0.0
H1608 H 0.86083 0.48795 0.62633 0.0
H1609 H 0.84875 0.46674 0.68191 0.0
H1610 H 0.80898 0.45872 0.63722 0.0
H1611 H 0.87936 0.46941 0.68637 0.0
C1612 C 0.88337 0.4817 0.67825 0.0
C1613 C 0.85153 0.48065 0.63598 0.0
C1614 C 0.83408 0.47389 0.62965 0.0
C1615 C 0.85701 0.47818 0.65482 0.0
C1616 C 0.8449 0.46859 0.66731 0.0
C1617 C 0.82765 0.4613 0.66102 0.0
C1618 C 0.82222 0.4644 0.64228 0.0
N1619 N 0.87442 0.48602 0.66088 0.0
H1620 H 0.63581 0.50878 0.12623 0.0
H1621 H 0.64787 0.52997 0.18185 0.0
H1622 H 0.68766 0.538 0.1372 0.0
H1623 H 0.61725 0.52732 0.18626 0.0
C1624 C 0.61324 0.51502 0.17813 0.0
C1625 C 0.6451 0.51607 0.1359 0.0
C1626 C 0.66256 0.52283 0.12959 0.0
C1627 C 0.63962 0.51854 0.15473 0.0
C1628 C 0.65172 0.52812 0.16725 0.0
C1629 C 0.66898 0.53542 0.16098 0.0
C1630 C 0.67442 0.53232 0.14224 0.0
N1631 N 0.6222 0.5107 0.16077 0.0
H1632 H 0.62527 0.72371 0.86859 0.0
H1633 H 0.5652 0.72477 0.87518 0.0
H1634 H 0.5998 0.69864 0.91728 0.0
H1635 H 0.56697 0.72713 0.84233 0.0
C1636 C 0.57809 0.73759 0.84148 0.0
C1637 C 0.61286 0.71995 0.87663 0.0
C1638 C 0.61458 0.70966 0.8934 0.0
C1639 C 0.59514 0.72531 0.86991 0.0
C1640 C 0.57891 0.72041 0.88019 0.0
C1641 C 0.58035 0.71029 0.89717 0.0
C1642 C 0.5983 0.70535 0.90378 0.0
N1643 N 0.59418 0.73636 0.85327 0.0
H1644 H 0.52305 0.37517 0.11859 0.0
H1645 H 0.52203 0.3151 0.12523 0.0
H1646 H 0.54816 0.34977 0.16731 0.0
H1647 H 0.51962 0.31683 0.09239 0.0
C1648 C 0.50917 0.32795 0.09152 0.0
C1649 C 0.52682 0.36277 0.12665 0.0
C1650 C 0.53712 0.36452 0.14342 0.0
C1651 C 0.52148 0.34504 0.11994 0.0
C1652 C 0.52638 0.32883 0.13023 0.0
C1653 C 0.53651 0.33029 0.14721 0.0
C1654 C 0.54145 0.34826 0.15381 0.0
N1655 N 0.51041 0.34405 0.1033 0.0
H1656 H 0.87141 0.27305 0.36854 0.0
H1657 H 0.93148 0.27203 0.37513 0.0
H1658 H 0.89688 0.29819 0.41721 0.0
H1659 H 0.9297 0.26962 0.34229 0.0
C1660 C 0.91858 0.25915 0.34144 0.0
C1661 C 0.88382 0.27682 0.37658 0.0
C1662 C 0.88209 0.28713 0.39334 0.0
C1663 C 0.90153 0.27147 0.36987 0.0
C1664 C 0.91776 0.27638 0.38014 0.0
C1665 C 0.91633 0.28653 0.39712 0.0
C1666 C 0.89838 0.29147 0.40372 0.0
N1667 N 0.90249 0.2604 0.35323 0.0
H1668 H 0.97365 0.62142 0.61871 0.0
H1669 H 0.97469 0.68149 0.6253 0.0
H1670 H 0.94856 0.64688 0.66739 0.0
H1671 H 0.97709 0.67972 0.59246 0.0
C1672 C 0.98754 0.66859 0.5916 0.0
C1673 C 0.96988 0.63383 0.62675 0.0
C1674 C 0.95959 0.6321 0.64352 0.0
C1675 C 0.97523 0.65155 0.62003 0.0
C1676 C 0.97034 0.66777 0.63031 0.0
C1677 C 0.9602 0.66634 0.64729 0.0
C1678 C 0.95526 0.64838 0.6539 0.0
N1679 N 0.98629 0.65251 0.60339 0.0
H1680 H 0.62527 0.27304 0.62797 0.0
H1681 H 0.56519 0.27199 0.62138 0.0
H1682 H 0.5998 0.29813 0.57929 0.0
H1683 H 0.56697 0.2696 0.65422 0.0
C1684 C 0.57809 0.25914 0.65508 0.0
C1685 C 0.61286 0.2768 0.61993 0.0
C1686 C 0.61458 0.2871 0.60316 0.0
C1687 C 0.59514 0.27145 0.62665 0.0
C1688 C 0.57891 0.27635 0.61637 0.0
C1689 C 0.58034 0.28648 0.59939 0.0
C1690 C 0.5983 0.29142 0.59278 0.0
N1691 N 0.59417 0.26039 0.64329 0.0
H1692 H 0.97363 0.37528 0.87814 0.0
H1693 H 0.97466 0.31521 0.87155 0.0
H1694 H 0.9485 0.3498 0.82947 0.0
H1695 H 0.97707 0.31698 0.90439 0.0
C1696 C 0.98753 0.32811 0.90524 0.0
C1697 C 0.96986 0.36287 0.8701 0.0
C1698 C 0.95955 0.36459 0.85334 0.0
C1699 C 0.97521 0.34515 0.87681 0.0
C1700 C 0.9703 0.32892 0.86654 0.0
C1701 C 0.96016 0.33035 0.84956 0.0
C1702 C 0.95521 0.34831 0.84296 0.0
N1703 N 0.98629 0.34419 0.89345 0.0
H1704 H 0.87151 0.72363 0.12808 0.0
H1705 H 0.93158 0.72465 0.12145 0.0
H1706 H 0.89691 0.69853 0.07937 0.0
H1707 H 0.92985 0.72706 0.15429 0.0
C1708 C 0.91873 0.73752 0.15516 0.0
C1709 C 0.88391 0.71986 0.12003 0.0
C1710 C 0.88216 0.70956 0.10326 0.0
C1711 C 0.90164 0.72521 0.12674 0.0
C1712 C 0.91786 0.72031 0.11645 0.0
C1713 C 0.9164 0.71017 0.09947 0.0
C1714 C 0.89843 0.70524 0.09287 0.0
N1715 N 0.90263 0.73627 0.14338 0.0
H1716 H 0.52297 0.62142 0.37809 0.0
H1717 H 0.52192 0.68149 0.3715 0.0
H1718 H 0.54804 0.64688 0.3294 0.0
H1719 H 0.51955 0.67972 0.40435 0.0
C1720 C 0.50909 0.66859 0.4052 0.0
C1721 C 0.52673 0.63383 0.37005 0.0
C1722 C 0.53702 0.6321 0.35328 0.0
C1723 C 0.52138 0.65154 0.37677 0.0
C1724 C 0.52627 0.66777 0.36649 0.0
C1725 C 0.5364 0.66634 0.34951 0.0
C1726 C 0.54134 0.64838 0.34289 0.0
N1727 N 0.51033 0.65251 0.39341 0.0
H1728 H 0.86859 0.62524 0.72372 0.0
H1729 H 0.87519 0.56517 0.72478 0.0
H1730 H 0.91729 0.5998 0.69866 0.0
H1731 H 0.84235 0.56692 0.72714 0.0
C1732 C 0.84149 0.57805 0.73759 0.0
C1733 C 0.87664 0.61283 0.71996 0.0
C1734 C 0.89341 0.61457 0.70967 0.0
C1735 C 0.86992 0.59511 0.72531 0.0
C1736 C 0.8802 0.57889 0.72042 0.0
C1737 C 0.89719 0.58033 0.7103 0.0
C1738 C 0.9038 0.59829 0.70536 0.0
N1739 N 0.85328 0.59414 0.73636 0.0
H1740 H 0.62139 0.6187 0.97365 0.0
H1741 H 0.68146 0.62528 0.97469 0.0
H1742 H 0.64688 0.66737 0.94855 0.0
H1743 H 0.67967 0.59244 0.97709 0.0
C1744 C 0.66855 0.59159 0.98754 0.0
C1745 C 0.6338 0.62674 0.96988 0.0
C1746 C 0.63208 0.6435 0.95958 0.0
C1747 C 0.65152 0.62002 0.97523 0.0
C1748 C 0.66775 0.63029 0.97033 0.0
C1749 C 0.66632 0.64727 0.9602 0.0
C1750 C 0.64837 0.65388 0.95526 0.0
N1751 N 0.65247 0.60338 0.9863 0.0
H1752 H 0.62812 0.37152 0.22365 0.0
H1753 H 0.62148 0.43159 0.22468 0.0
H1754 H 0.5794 0.39691 0.19855 0.0
H1755 H 0.65432 0.42987 0.22708 0.0
C1756 C 0.65519 0.41874 0.23753 0.0
C1757 C 0.62006 0.38392 0.21988 0.0
C1758 C 0.60329 0.38217 0.20959 0.0
C1759 C 0.62677 0.40165 0.22523 0.0
C1760 C 0.61648 0.41786 0.22033 0.0
C1761 C 0.59949 0.4164 0.2102 0.0
C1762 C 0.59289 0.39843 0.20526 0.0
N1763 N 0.64341 0.40264 0.23629 0.0
H1764 H 0.87529 0.37812 0.47362 0.0
H1765 H 0.81521 0.37153 0.47463 0.0
H1766 H 0.84981 0.32945 0.44847 0.0
H1767 H 0.817 0.40437 0.47705 0.0
C1768 C 0.82812 0.40522 0.48751 0.0
C1769 C 0.86287 0.37008 0.46984 0.0
C1770 C 0.8646 0.35332 0.45953 0.0
C1771 C 0.84516 0.37679 0.47519 0.0
C1772 C 0.82893 0.36652 0.47028 0.0
C1773 C 0.83035 0.34955 0.46013 0.0
C1774 C 0.84831 0.34294 0.45519 0.0
N1775 N 0.8442 0.39343 0.48627 0.0
H1776 H 0.86856 0.3714 0.77306 0.0
H1777 H 0.87516 0.43147 0.77205 0.0
H1778 H 0.91723 0.39688 0.79821 0.0
H1779 H 0.84231 0.42969 0.76963 0.0
C1780 C 0.84147 0.41857 0.75916 0.0
C1781 C 0.8766 0.38381 0.77684 0.0
C1782 C 0.89337 0.38209 0.78715 0.0
C1783 C 0.86989 0.40153 0.77149 0.0
C1784 C 0.88016 0.41776 0.7764 0.0
C1785 C 0.89714 0.41633 0.78655 0.0
C1786 C 0.90374 0.39837 0.79149 0.0
N1787 N 0.85325 0.40249 0.76041 0.0
H1788 H 0.87516 0.61857 0.02303 0.0
H1789 H 0.8151 0.62521 0.022 0.0
H1790 H 0.84977 0.66728 0.04812 0.0
H1791 H 0.81682 0.59237 0.0196 0.0
C1792 C 0.82794 0.5915 0.00915 0.0
C1793 C 0.86276 0.62662 0.0268 0.0
C1794 C 0.86452 0.64339 0.03709 0.0
C1795 C 0.84503 0.61992 0.02145 0.0
C1796 C 0.82882 0.63021 0.02635 0.0
C1797 C 0.83028 0.64719 0.03648 0.0
C1798 C 0.84825 0.65379 0.04142 0.0
N1799 N 0.84404 0.60327 0.01039 0.0
H1800 H 0.62799 0.6253 0.27303 0.0
H1801 H 0.62141 0.56522 0.27199 0.0
H1802 H 0.57932 0.59981 0.29813 0.0
H1803 H 0.65425 0.56701 0.26959 0.0
C1804 C 0.6551 0.57813 0.25914 0.0
C1805 C 0.61995 0.61288 0.2768 0.0
C1806 C 0.60318 0.6146 0.2871 0.0
C1807 C 0.62667 0.59517 0.27144 0.0
C1808 C 0.6164 0.57894 0.27634 0.0
C1809 C 0.59942 0.58036 0.28648 0.0
C1810 C 0.59281 0.59832 0.29142 0.0
N1811 N 0.6433 0.59421 0.26038 0.0
H1812 H 0.62145 0.37809 0.52296 0.0
H1813 H 0.68151 0.37149 0.5219 0.0
H1814 H 0.64689 0.32939 0.54802 0.0
H1815 H 0.67976 0.40434 0.51954 0.0
C1816 C 0.66863 0.4052 0.50909 0.0
C1817 C 0.63385 0.37004 0.52672 0.0
C1818 C 0.63212 0.35327 0.537 0.0
C1819 C 0.65157 0.37676 0.52137 0.0
C1820 C 0.66779 0.36648 0.52626 0.0
C1821 C 0.66635 0.3495 0.53638 0.0
C1822 C 0.64839 0.34289 0.54132 0.0
N1823 N 0.65254 0.39341 0.51032 0.0
H1824 H 0.72373 0.86864 0.62527 0.0
H1825 H 0.72479 0.87522 0.5652 0.0
H1826 H 0.69867 0.91733 0.5998 0.0
H1827 H 0.72715 0.84237 0.56697 0.0
C1828 C 0.73761 0.84152 0.57809 0.0
C1829 C 0.71997 0.87668 0.61286 0.0
C1830 C 0.70969 0.89345 0.61458 0.0
C1831 C 0.72533 0.86996 0.59514 0.0
C1832 C 0.72044 0.88024 0.57891 0.0
C1833 C 0.71031 0.89722 0.58035 0.0
C1834 C 0.70537 0.90383 0.5983 0.0
N1835 N 0.73637 0.85331 0.59418 0.0
H1836 H 0.22362 0.62813 0.37152 0.0
H1837 H 0.22464 0.62149 0.43159 0.0
H1838 H 0.19851 0.57942 0.39691 0.0
H1839 H 0.22706 0.65433 0.42986 0.0
C1840 C 0.23751 0.6552 0.41874 0.0
C1841 C 0.21985 0.62008 0.38392 0.0
C1842 C 0.20955 0.60331 0.38216 0.0
C1843 C 0.2252 0.62678 0.40165 0.0
C1844 C 0.22029 0.61649 0.41786 0.0
C1845 C 0.21015 0.59951 0.4164 0.0
C1846 C 0.20522 0.59291 0.39843 0.0
N1847 N 0.23627 0.64342 0.40264 0.0
H1848 H 0.61872 0.97367 0.62139 0.0
H1849 H 0.6253 0.97473 0.68147 0.0
H1850 H 0.6674 0.9486 0.64687 0.0
H1851 H 0.59246 0.97711 0.67968 0.0
C1852 C 0.59161 0.98756 0.66856 0.0
C1853 C 0.62676 0.96991 0.63381 0.0
C1854 C 0.64353 0.95962 0.63208 0.0
C1855 C 0.62004 0.97527 0.65152 0.0
C1856 C 0.63031 0.97037 0.66775 0.0
C1857 C 0.64729 0.96024 0.66632 0.0
C1858 C 0.65391 0.9553 0.64837 0.0
N1859 N 0.6034 0.98632 0.65248 0.0
H1860 H 0.27307 0.36853 0.87143 0.0
H1861 H 0.27206 0.37514 0.9315 0.0
H1862 H 0.29822 0.41721 0.89689 0.0
H1863 H 0.26964 0.3423 0.92974 0.0
C1864 C 0.25918 0.34144 0.91862 0.0
C1865 C 0.27685 0.37657 0.88384 0.0
C1866 C 0.28716 0.39334 0.88211 0.0
C1867 C 0.2715 0.36986 0.90156 0.0
C1868 C 0.27641 0.38014 0.91779 0.0
C1869 C 0.28656 0.39712 0.91635 0.0
C1870 C 0.2915 0.40372 0.89839 0.0
N1871 N 0.26042 0.35323 0.90253 0.0
H1872 H 0.37805 0.52295 0.62141 0.0
H1873 H 0.37146 0.52189 0.68148 0.0
H1874 H 0.32936 0.54801 0.64688 0.0
H1875 H 0.40431 0.51954 0.67971 0.0
C1876 C 0.40517 0.50908 0.66859 0.0
C1877 C 0.37 0.52671 0.63382 0.0
C1878 C 0.35323 0.537 0.63209 0.0
C1879 C 0.37673 0.52136 0.65154 0.0
C1880 C 0.36645 0.52625 0.66777 0.0
C1881 C 0.34947 0.53637 0.66633 0.0
C1882 C 0.34285 0.54131 0.64838 0.0
N1883 N 0.39337 0.51031 0.6525 0.0
H1884 H 0.77301 0.12796 0.12529 0.0
H1885 H 0.77196 0.12138 0.06521 0.0
H1886 H 0.79809 0.07929 0.0998 0.0
H1887 H 0.76957 0.15422 0.067 0.0
C1888 C 0.75912 0.15508 0.07812 0.0
C1889 C 0.77677 0.11992 0.11287 0.0
C1890 C 0.78706 0.10315 0.1146 0.0
C1891 C 0.77142 0.12664 0.09516 0.0
C1892 C 0.77631 0.11637 0.07893 0.0
C1893 C 0.78644 0.09939 0.08035 0.0
C1894 C 0.79138 0.09278 0.09831 0.0
N1895 N 0.76036 0.14328 0.0942 0.0
H1896 H 0.61855 0.02306 0.87516 0.0
H1897 H 0.6252 0.02204 0.81509 0.0
H1898 H 0.66726 0.04818 0.84977 0.0
H1899 H 0.59236 0.01963 0.81682 0.0
C1900 C 0.59149 0.00917 0.82794 0.0
C1901 C 0.62661 0.02683 0.86276 0.0
C1902 C 0.64338 0.03713 0.86452 0.0
C1903 C 0.6199 0.02148 0.84503 0.0
C1904 C 0.6302 0.02639 0.82882 0.0
C1905 C 0.64718 0.03653 0.83028 0.0
C1906 C 0.65377 0.04147 0.84825 0.0
N1907 N 0.60326 0.01042 0.84404 0.0
H1908 H 0.87816 0.97361 0.37524 0.0
H1909 H 0.87154 0.97462 0.31517 0.0
H1910 H 0.82948 0.94846 0.34979 0.0
H1911 H 0.90439 0.97705 0.31694 0.0
C1912 C 0.90524 0.98751 0.32806 0.0
C1913 C 0.87011 0.96983 0.36284 0.0
C1914 C 0.85335 0.95952 0.36457 0.0
C1915 C 0.87682 0.97519 0.34512 0.0
C1916 C 0.86654 0.97027 0.32889 0.0
C1917 C 0.84957 0.96012 0.33033 0.0
C1918 C 0.84296 0.95518 0.34829 0.0
N1919 N 0.89346 0.98626 0.34415 0.0
H1920 H 0.37624 0.25867 0.11085 0.0
H1921 H 0.43186 0.27981 0.09877 0.0
H1922 H 0.3872 0.2878 0.05897 0.0
H1923 H 0.43628 0.27722 0.1294 0.0
C1924 C 0.42815 0.26493 0.13342 0.0
C1925 C 0.3859 0.26595 0.10154 0.0
C1926 C 0.3796 0.27268 0.08408 0.0
C1927 C 0.40474 0.26841 0.10702 0.0
C1928 C 0.41726 0.27796 0.09492 0.0
C1929 C 0.41099 0.28523 0.07765 0.0
C1930 C 0.39224 0.28213 0.07221 0.0
N1931 N 0.41078 0.2606 0.12445 0.0
H1932 H 0.48796 0.62633 0.86077 0.0
H1933 H 0.46675 0.68191 0.8487 0.0
H1934 H 0.45874 0.63722 0.80892 0.0
H1935 H 0.46943 0.68636 0.87931 0.0
C1936 C 0.48172 0.67824 0.88332 0.0
C1937 C 0.48066 0.63598 0.85147 0.0
C1938 C 0.47391 0.62965 0.83401 0.0
C1939 C 0.47819 0.65481 0.85695 0.0
C1940 C 0.4686 0.66731 0.84485 0.0
C1941 C 0.46131 0.66102 0.82759 0.0
C1942 C 0.46442 0.64228 0.82216 0.0
N1943 N 0.48603 0.66087 0.87437 0.0
H1944 H 0.12047 0.73791 0.61088 0.0
H1945 H 0.06485 0.71674 0.59882 0.0
H1946 H 0.10949 0.70872 0.55902 0.0
H1947 H 0.06045 0.71938 0.62945 0.0
C1948 C 0.06857 0.73168 0.63345 0.0
C1949 C 0.1108 0.73063 0.60158 0.0
C1950 C 0.1171 0.72387 0.58412 0.0
C1951 C 0.09197 0.72816 0.60707 0.0
C1952 C 0.07945 0.71859 0.59497 0.0
C1953 C 0.08571 0.7113 0.57771 0.0
C1954 C 0.10445 0.7144 0.57227 0.0
N1955 N 0.08593 0.736 0.62449 0.0
H1956 H 0.00872 0.37045 0.36063 0.0
H1957 H 0.02992 0.31485 0.34863 0.0
H1958 H 0.03794 0.35948 0.30881 0.0
H1959 H 0.02725 0.31044 0.37924 0.0
C1960 C 0.01496 0.31857 0.38325 0.0
C1961 C 0.01601 0.36078 0.35135 0.0
C1962 C 0.02277 0.36708 0.33389 0.0
C1963 C 0.01848 0.34196 0.35685 0.0
C1964 C 0.02807 0.32944 0.34476 0.0
C1965 C 0.03536 0.33571 0.3275 0.0
C1966 C 0.03225 0.35444 0.32205 0.0
N1967 N 0.01065 0.33592 0.37427 0.0
H1968 H 0.37624 0.73797 0.38605 0.0
H1969 H 0.43184 0.71676 0.39805 0.0
H1970 H 0.38721 0.70875 0.43787 0.0
H1971 H 0.43624 0.71943 0.36744 0.0
C1972 C 0.42811 0.73172 0.36343 0.0
C1973 C 0.3859 0.73067 0.39533 0.0
C1974 C 0.3796 0.72392 0.41279 0.0
C1975 C 0.40473 0.7282 0.38983 0.0
C1976 C 0.41724 0.71862 0.40192 0.0
C1977 C 0.41098 0.71132 0.41917 0.0
C1978 C 0.39224 0.71443 0.42463 0.0
N1979 N 0.41076 0.73604 0.37241 0.0
H1980 H 0.00877 0.62621 0.1358 0.0
H1981 H 0.02994 0.68184 0.14786 0.0
H1982 H 0.03797 0.6372 0.18766 0.0
H1983 H 0.02731 0.68624 0.11723 0.0
C1984 C 0.01501 0.67811 0.11322 0.0
C1985 C 0.01606 0.63588 0.1451 0.0
C1986 C 0.02281 0.62958 0.16256 0.0
C1987 C 0.01852 0.65472 0.13961 0.0
C1988 C 0.02809 0.66724 0.15171 0.0
C1989 C 0.03538 0.66097 0.16897 0.0
C1990 C 0.03229 0.64223 0.17441 0.0
N1991 N 0.01068 0.66075 0.12219 0.0
H1992 H 0.12036 0.25872 0.88591 0.0
H1993 H 0.06478 0.27993 0.89798 0.0
H1994 H 0.10946 0.28795 0.93776 0.0
H1995 H 0.06032 0.27726 0.86737 0.0
C1996 C 0.06844 0.26497 0.86335 0.0
C1997 C 0.11071 0.26602 0.89521 0.0
C1998 C 0.11703 0.27278 0.91266 0.0
C1999 C 0.09187 0.26849 0.88973 0.0
C2000 C 0.07937 0.27808 0.90183 0.0
C2001 C 0.08566 0.28537 0.91909 0.0
C2002 C 0.10441 0.28227 0.92452 0.0
N2003 N 0.08581 0.26065 0.87231 0.0
H2004 H 0.48801 0.37044 0.63583 0.0
H2005 H 0.46688 0.31482 0.64791 0.0
H2006 H 0.45888 0.35948 0.68771 0.0
H2007 H 0.46946 0.31041 0.61728 0.0
C2008 C 0.48175 0.31854 0.61326 0.0
C2009 C 0.48074 0.36078 0.64514 0.0
C2010 C 0.474 0.36709 0.6626 0.0
C2011 C 0.47827 0.34194 0.63966 0.0
C2012 C 0.46872 0.32942 0.65176 0.0
C2013 C 0.46145 0.33569 0.66903 0.0
C2014 C 0.46455 0.35444 0.67447 0.0
N2015 N 0.48609 0.3359 0.62223 0.0
H2016 H 0.11084 0.37627 0.25866 0.0
H2017 H 0.09876 0.43188 0.27979 0.0
H2018 H 0.05896 0.3872 0.28778 0.0
H2019 H 0.12938 0.43631 0.2772 0.0
C2020 C 0.1334 0.42818 0.26491 0.0
C2021 C 0.10154 0.38593 0.26593 0.0
C2022 C 0.08407 0.37961 0.27266 0.0
C2023 C 0.10702 0.40477 0.26839 0.0
C2024 C 0.09491 0.41728 0.27795 0.0
C2025 C 0.07764 0.411 0.28522 0.0
C2026 C 0.07221 0.39225 0.28212 0.0
N2027 N 0.12444 0.41082 0.26058 0.0
H2028 H 0.37049 0.36066 0.00873 0.0
H2029 H 0.31488 0.34866 0.02992 0.0
H2030 H 0.35949 0.30883 0.03794 0.0
H2031 H 0.31049 0.37928 0.02726 0.0
C2032 C 0.31862 0.38328 0.01497 0.0
C2033 C 0.36082 0.35137 0.01602 0.0
C2034 C 0.36711 0.33391 0.02277 0.0
C2035 C 0.34199 0.35687 0.01849 0.0
C2036 C 0.32947 0.34479 0.02807 0.0
C2037 C 0.33573 0.32753 0.03536 0.0
C2038 C 0.35446 0.32207 0.03226 0.0
N2039 N 0.33597 0.3743 0.01065 0.0
H2040 H 0.38586 0.62035 0.7587 0.0
H2041 H 0.39795 0.56476 0.77989 0.0
H2042 H 0.43772 0.60946 0.7879 0.0
H2043 H 0.36734 0.5603 0.77724 0.0
C2044 C 0.36332 0.56842 0.76495 0.0
C2045 C 0.39516 0.6107 0.766 0.0
C2046 C 0.41262 0.61703 0.77275 0.0
C2047 C 0.38969 0.59186 0.76846 0.0
C2048 C 0.4018 0.57936 0.77804 0.0
C2049 C 0.41905 0.58566 0.78533 0.0
C2050 C 0.42448 0.6044 0.78223 0.0
N2051 N 0.37227 0.58579 0.76063 0.0
H2052 H 0.1262 0.63584 0.50878 0.0
H2053 H 0.18182 0.64788 0.52997 0.0
H2054 H 0.13719 0.68769 0.538 0.0
H2055 H 0.18622 0.61726 0.52731 0.0
C2056 C 0.17809 0.61326 0.51502 0.0
C2057 C 0.13587 0.64514 0.51607 0.0
C2058 C 0.12957 0.66259 0.52283 0.0
C2059 C 0.1547 0.63965 0.51854 0.0
C2060 C 0.16722 0.65174 0.52812 0.0
C2061 C 0.16096 0.669 0.53541 0.0
C2062 C 0.14223 0.67445 0.53231 0.0
N2063 N 0.16073 0.62223 0.5107 0.0
H2064 H 0.11084 0.62048 0.2379 0.0
H2065 H 0.0988 0.56486 0.21671 0.0
H2066 H 0.059 0.60949 0.20868 0.0
H2067 H 0.12942 0.56047 0.21936 0.0
C2068 C 0.13343 0.5686 0.23166 0.0
C2069 C 0.10155 0.61081 0.23061 0.0
C2070 C 0.08409 0.61711 0.22385 0.0
C2071 C 0.10704 0.59198 0.22814 0.0
C2072 C 0.09494 0.57946 0.21856 0.0
C2073 C 0.07768 0.58572 0.21127 0.0
C2074 C 0.07224 0.60446 0.21437 0.0
N2075 N 0.12446 0.58595 0.23598 0.0
H2076 H 0.12634 0.36083 0.98797 0.0
H2077 H 0.18192 0.34873 0.96679 0.0
H2078 H 0.13722 0.30896 0.95878 0.0
H2079 H 0.18638 0.37934 0.96944 0.0
C2080 C 0.17826 0.38337 0.98173 0.0
C2081 C 0.13599 0.35152 0.98068 0.0
C2082 C 0.12966 0.33407 0.97393 0.0
C2083 C 0.15482 0.357 0.97821 0.0
C2084 C 0.16732 0.34489 0.96864 0.0
C2085 C 0.16103 0.32763 0.96135 0.0
C2086 C 0.14228 0.3222 0.96445 0.0
N2087 N 0.16089 0.37441 0.98605 0.0
H2088 H 0.38603 0.3762 0.73795 0.0
H2089 H 0.39802 0.43181 0.71675 0.0
H2090 H 0.43785 0.38719 0.70874 0.0
H2091 H 0.36741 0.4362 0.71942 0.0
C2092 C 0.36341 0.42807 0.73171 0.0
C2093 C 0.39531 0.38587 0.73066 0.0
C2094 C 0.41277 0.37958 0.7239 0.0
C2095 C 0.38981 0.40469 0.72819 0.0
C2096 C 0.40189 0.41721 0.71861 0.0
C2097 C 0.41915 0.41096 0.71131 0.0
C2098 C 0.42461 0.39223 0.71442 0.0
N2099 N 0.37239 0.41072 0.73602 0.0
H2100 H 0.37042 0.63584 0.48802 0.0
H2101 H 0.3148 0.64793 0.46689 0.0
H2102 H 0.35948 0.68772 0.4589 0.0
H2103 H 0.31038 0.6173 0.46948 0.0
C2104 C 0.3185 0.61328 0.48176 0.0
C2105 C 0.36076 0.64515 0.48075 0.0
C2106 C 0.36707 0.66261 0.47402 0.0
C2107 C 0.34192 0.63967 0.47829 0.0
C2108 C 0.32941 0.65178 0.46873 0.0
C2109 C 0.33569 0.66904 0.46146 0.0
C2110 C 0.35443 0.67448 0.46456 0.0
N2111 N 0.33587 0.62224 0.4861 0.0
H2112 H 0.25865 0.11079 0.37624 0.0
H2113 H 0.27979 0.09873 0.43186 0.0
H2114 H 0.28778 0.05892 0.3872 0.0
H2115 H 0.2772 0.12935 0.43627 0.0
C2116 C 0.26491 0.13337 0.42814 0.0
C2117 C 0.26593 0.10149 0.3859 0.0
C2118 C 0.27266 0.08402 0.3796 0.0
C2119 C 0.26839 0.10697 0.40474 0.0
C2120 C 0.27794 0.09487 0.41726 0.0
C2121 C 0.28521 0.0776 0.41098 0.0
C2122 C 0.28211 0.07216 0.39224 0.0
N2123 N 0.26058 0.1244 0.41078 0.0
H2124 H 0.75874 0.38585 0.62035 0.0
H2125 H 0.77994 0.39794 0.56477 0.0
H2126 H 0.78797 0.43771 0.60946 0.0
H2127 H 0.77727 0.36733 0.56031 0.0
C2128 C 0.76498 0.36331 0.56843 0.0
C2129 C 0.76604 0.39515 0.6107 0.0
C2130 C 0.77279 0.41261 0.61703 0.0
C2131 C 0.76851 0.38968 0.59186 0.0
C2132 C 0.77809 0.40178 0.57937 0.0
C2133 C 0.78539 0.41904 0.58566 0.0
C2134 C 0.78228 0.42447 0.6044 0.0
N2135 N 0.76067 0.37226 0.5858 0.0
H2136 H 0.36064 0.0087 0.37047 0.0
H2137 H 0.34863 0.02988 0.31486 0.0
H2138 H 0.30881 0.03789 0.35948 0.0
H2139 H 0.37925 0.02724 0.31046 0.0
C2140 C 0.38326 0.01495 0.3186 0.0
C2141 C 0.35135 0.01599 0.3608 0.0
C2142 C 0.33389 0.02273 0.3671 0.0
C2143 C 0.35685 0.01846 0.34198 0.0
C2144 C 0.34477 0.02803 0.32945 0.0
C2145 C 0.32751 0.03532 0.33571 0.0
C2146 C 0.32205 0.03221 0.35445 0.0
N2147 N 0.37428 0.01063 0.33595 0.0
H2148 H 0.7379 0.61088 0.12044 0.0
H2149 H 0.71671 0.59882 0.06483 0.0
H2150 H 0.70868 0.55902 0.10948 0.0
H2151 H 0.71937 0.62944 0.06042 0.0
C2152 C 0.73167 0.63344 0.06855 0.0
C2153 C 0.73061 0.60158 0.11078 0.0
C2154 C 0.72385 0.58412 0.11709 0.0
C2155 C 0.72814 0.60706 0.09195 0.0
C2156 C 0.71856 0.59496 0.07943 0.0
C2157 C 0.71127 0.5777 0.0857 0.0
C2158 C 0.71437 0.57227 0.10444 0.0
N2159 N 0.73598 0.62448 0.08591 0.0
H2160 H 0.63589 0.48803 0.37044 0.0
H2161 H 0.64796 0.46689 0.31482 0.0
H2162 H 0.68777 0.45891 0.35948 0.0
H2163 H 0.61733 0.46948 0.31041 0.0
C2164 C 0.61331 0.48177 0.31854 0.0
C2165 C 0.6452 0.48076 0.36078 0.0
C2166 C 0.66266 0.47403 0.36708 0.0
C2167 C 0.63971 0.47829 0.34194 0.0
C2168 C 0.65181 0.46874 0.32942 0.0
C2169 C 0.66908 0.46147 0.33569 0.0
C2170 C 0.67452 0.46457 0.35444 0.0
N2171 N 0.62228 0.4861 0.3359 0.0
H2172 H 0.23799 0.88604 0.87621 0.0
H2173 H 0.2168 0.89805 0.93182 0.0
H2174 H 0.20879 0.93788 0.8872 0.0
H2175 H 0.21945 0.86743 0.93621 0.0
C2176 C 0.23174 0.86343 0.92808 0.0
C2177 C 0.2307 0.89533 0.88588 0.0
C2178 C 0.22395 0.91279 0.87958 0.0
C2179 C 0.22823 0.88983 0.9047 0.0
C2180 C 0.21865 0.90192 0.91722 0.0
C2181 C 0.21137 0.91918 0.91096 0.0
C2182 C 0.21447 0.92463 0.89223 0.0
N2183 N 0.23606 0.87241 0.91073 0.0
H2184 H 0.36083 0.98795 0.12633 0.0
H2185 H 0.34875 0.96674 0.18191 0.0
H2186 H 0.30898 0.95872 0.13722 0.0
H2187 H 0.37936 0.96941 0.18637 0.0
C2188 C 0.38338 0.9817 0.17825 0.0
C2189 C 0.35153 0.98065 0.13598 0.0
C2190 C 0.33408 0.97389 0.12965 0.0
C2191 C 0.35701 0.97818 0.15482 0.0
C2192 C 0.3449 0.96859 0.16731 0.0
C2193 C 0.32765 0.9613 0.16102 0.0
C2194 C 0.32222 0.9644 0.14228 0.0
N2195 N 0.37442 0.98602 0.16088 0.0
H2196 H 0.13581 0.00878 0.62623 0.0
H2197 H 0.14787 0.02997 0.68185 0.0
H2198 H 0.18766 0.038 0.6372 0.0
H2199 H 0.11725 0.02732 0.68626 0.0
C2200 C 0.11324 0.01502 0.67813 0.0
C2201 C 0.1451 0.01607 0.6359 0.0
C2202 C 0.16256 0.02283 0.62959 0.0
C2203 C 0.13962 0.01854 0.65473 0.0
C2204 C 0.15172 0.02812 0.66725 0.0
C2205 C 0.16898 0.03542 0.66098 0.0
C2206 C 0.17442 0.03232 0.64224 0.0
N2207 N 0.1222 0.0107 0.66077 0.0
loop_
_geom_bond_atom_site_label_1
_geom_bond_atom_site_label_2
_geom_bond_distance
_geom_bond_site_symmetry_2
_ccdc_geom_bond_type
O0 Cd1 2.300 . S
O0 C7 1.275 . S
Cd1 O0 2.300 . S
Cd1 O9 2.381 . S
Cd1 O10 2.378 . S
O2 Cd3 2.385 . S
O2 C7 1.255 . S
Cd3 O2 2.385 . S
Cd3 O4 2.317 . S
O4 Cd3 2.317 . S
O4 C5 1.232 . S
C5 O4 1.232 . S
C5 O6 1.218 . S
O6 C5 1.218 . S
C7 O0 1.275 . S
C7 O2 1.255 . S
C8 O9 1.258 . S
C8 O10 1.256 . S
O9 Cd1 2.381 . S
O9 C8 1.258 . S
O10 Cd1 2.378 . S
O10 C8 1.256 . S
O11 Cd12 2.300 . S
O11 C18 1.275 . S
Cd12 O11 2.300 . S
Cd12 O20 2.381 . S
Cd12 O21 2.378 . S
O13 Cd14 2.385 . S
O13 C18 1.255 . S
Cd14 O13 2.385 . S
Cd14 O15 2.317 . S
O15 Cd14 2.317 . S
O15 C16 1.232 . S
C16 O15 1.232 . S
C16 O17 1.218 . S
O17 C16 1.218 . S
C18 O11 1.275 . S
C18 O13 1.255 . S
C19 O20 1.258 . S
C19 O21 1.256 . S
O20 Cd12 2.381 . S
O20 C19 1.258 . S
O21 Cd12 2.378 . S
O21 C19 1.256 . S
O22 Cd23 2.300 . S
O22 C29 1.275 . S
Cd23 O22 2.300 . S
Cd23 O31 2.381 . S
Cd23 O32 2.378 . S
O24 Cd25 2.385 . S
O24 C29 1.255 . S
Cd25 O24 2.385 . S
Cd25 O26 2.317 . S
O26 Cd25 2.317 . S
O26 C27 1.232 . S
C27 O26 1.232 . S
C27 O28 1.218 . S
O28 C27 1.218 . S
C29 O22 1.275 . S
C29 O24 1.255 . S
C30 O31 1.258 . S
C30 O32 1.256 . S
O31 Cd23 2.381 . S
O31 C30 1.258 . S
O32 Cd23 2.378 . S
O32 C30 1.256 . S
O33 Cd34 2.300 . S
O33 C40 1.275 . S
Cd34 O33 2.300 . S
Cd34 O42 2.381 . S
Cd34 O43 2.378 . S
O35 Cd36 2.385 . S
O35 C40 1.255 . S
Cd36 O35 2.385 . S
Cd36 O37 2.317 . S
O37 Cd36 2.317 . S
O37 C38 1.232 . S
C38 O37 1.232 . S
C38 O39 1.218 . S
O39 C38 1.218 . S
C40 O33 1.275 . S
C40 O35 1.255 . S
C41 O42 1.258 . S
C41 O43 1.256 . S
O42 Cd34 2.381 . S
O42 C41 1.258 . S
O43 Cd34 2.378 . S
O43 C41 1.256 . S
O44 Cd45 2.300 . S
O44 C51 1.275 . S
Cd45 O44 2.300 . S
Cd45 O53 2.381 . S
Cd45 O54 2.378 . S
O46 Cd47 2.385 . S
O46 C51 1.255 . S
Cd47 O46 2.385 . S
Cd47 O48 2.317 . S
O48 Cd47 2.317 . S
O48 C49 1.232 . S
C49 O48 1.232 . S
C49 O50 1.218 . S
O50 C49 1.218 . S
C51 O44 1.275 . S
C51 O46 1.255 . S
C52 O53 1.258 . S
C52 O54 1.256 . S
O53 Cd45 2.381 . S
O53 C52 1.258 . S
O54 Cd45 2.378 . S
O54 C52 1.256 . S
O55 Cd56 2.300 . S
O55 C62 1.275 . S
Cd56 O55 2.300 . S
Cd56 O64 2.381 . S
Cd56 O65 2.378 . S
O57 Cd58 2.385 . S
O57 C62 1.255 . S
Cd58 O57 2.385 . S
Cd58 O59 2.317 . S
O59 Cd58 2.317 . S
O59 C60 1.232 . S
C60 O59 1.232 . S
C60 O61 1.218 . S
O61 C60 1.218 . S
C62 O55 1.275 . S
C62 O57 1.255 . S
C63 O64 1.258 . S
C63 O65 1.256 . S
O64 Cd56 2.381 . S
O64 C63 1.258 . S
O65 Cd56 2.378 . S
O65 C63 1.256 . S
O66 Cd67 2.300 . S
O66 C73 1.275 . S
Cd67 O66 2.300 . S
Cd67 O75 2.381 . S
Cd67 O76 2.378 . S
O68 Cd69 2.385 . S
O68 C73 1.255 . S
Cd69 O68 2.385 . S
Cd69 O70 2.317 . S
O70 Cd69 2.317 . S
O70 C71 1.232 . S
C71 O70 1.232 . S
C71 O72 1.218 . S
O72 C71 1.218 . S
C73 O66 1.275 . S
C73 O68 1.255 . S
C74 O75 1.258 . S
C74 O76 1.256 . S
O75 Cd67 2.381 . S
O75 C74 1.258 . S
O76 Cd67 2.378 . S
O76 C74 1.256 . S
O77 Cd78 2.300 . S
O77 C84 1.275 . S
Cd78 O77 2.300 . S
Cd78 O86 2.381 . S
Cd78 O87 2.378 . S
O79 Cd80 2.385 . S
O79 C84 1.255 . S
Cd80 O79 2.385 . S
Cd80 O81 2.317 . S
O81 Cd80 2.317 . S
O81 C82 1.232 . S
C82 O81 1.232 . S
C82 O83 1.218 . S
O83 C82 1.218 . S
C84 O77 1.275 . S
C84 O79 1.255 . S
C85 O86 1.258 . S
C85 O87 1.256 . S
O86 Cd78 2.381 . S
O86 C85 1.258 . S
O87 Cd78 2.378 . S
O87 C85 1.256 . S
O88 Cd89 2.300 . S
O88 C95 1.275 . S
Cd89 O88 2.300 . S
Cd89 O97 2.381 . S
Cd89 O98 2.378 . S
O90 Cd91 2.385 . S
O90 C95 1.255 . S
Cd91 O90 2.385 . S
Cd91 O92 2.317 . S
O92 Cd91 2.317 . S
O92 C93 1.232 . S
C93 O92 1.232 . S
C93 O94 1.218 . S
O94 C93 1.218 . S
C95 O88 1.275 . S
C95 O90 1.255 . S
C96 O97 1.258 . S
C96 O98 1.256 . S
O97 Cd89 2.381 . S
O97 C96 1.258 . S
O98 Cd89 2.378 . S
O98 C96 1.256 . S
O99 Cd100 2.300 . S
O99 C106 1.275 . S
Cd100 O99 2.300 . S
Cd100 O108 2.381 . S
Cd100 O109 2.378 . S
O101 Cd102 2.385 . S
O101 C106 1.255 . S
Cd102 O101 2.385 . S
Cd102 O103 2.317 . S
O103 Cd102 2.317 . S
O103 C104 1.232 . S
C104 O103 1.232 . S
C104 O105 1.218 . S
O105 C104 1.218 . S
C106 O99 1.275 . S
C106 O101 1.255 . S
C107 O108 1.258 . S
C107 O109 1.256 . S
O108 Cd100 2.381 . S
O108 C107 1.258 . S
O109 Cd100 2.378 . S
O109 C107 1.256 . S
O110 Cd111 2.300 . S
O110 C117 1.275 . S
Cd111 O110 2.300 . S
Cd111 O119 2.381 . S
Cd111 O120 2.378 . S
O112 Cd113 2.385 . S
O112 C117 1.255 . S
Cd113 O112 2.385 . S
Cd113 O114 2.317 . S
O114 Cd113 2.317 . S
O114 C115 1.232 . S
C115 O114 1.232 . S
C115 O116 1.218 . S
O116 C115 1.218 . S
C117 O110 1.275 . S
C117 O112 1.255 . S
C118 O119 1.258 . S
C118 O120 1.256 . S
O119 Cd111 2.381 . S
O119 C118 1.258 . S
O120 Cd111 2.378 . S
O120 C118 1.256 . S
O121 Cd122 2.300 . S
O121 C128 1.275 . S
Cd122 O121 2.300 . S
Cd122 O130 2.381 . S
Cd122 O131 2.378 . S
O123 Cd124 2.385 . S
O123 C128 1.255 . S
Cd124 O123 2.385 . S
Cd124 O125 2.317 . S
O125 Cd124 2.317 . S
O125 C126 1.232 . S
C126 O125 1.232 . S
C126 O127 1.218 . S
O127 C126 1.218 . S
C128 O121 1.275 . S
C128 O123 1.255 . S
C129 O130 1.258 . S
C129 O131 1.256 . S
O130 Cd122 2.381 . S
O130 C129 1.258 . S
O131 Cd122 2.378 . S
O131 C129 1.256 . S
O132 Cd133 2.300 . S
O132 C139 1.275 . S
Cd133 O132 2.300 . S
Cd133 O141 2.381 . S
Cd133 O142 2.378 . S
O134 Cd135 2.385 . S
O134 C139 1.255 . S
Cd135 O134 2.385 . S
Cd135 O136 2.317 . S
O136 Cd135 2.317 . S
O136 C137 1.232 . S
C137 O136 1.232 . S
C137 O138 1.218 . S
O138 C137 1.218 . S
C139 O132 1.275 . S
C139 O134 1.255 . S
C140 O141 1.258 . S
C140 O142 1.256 . S
O141 Cd133 2.381 . S
O141 C140 1.258 . S
O142 Cd133 2.378 . S
O142 C140 1.256 . S
O143 Cd144 2.300 . S
O143 C150 1.275 . S
Cd144 O143 2.300 . S
Cd144 O152 2.381 . S
Cd144 O153 2.378 . S
O145 Cd146 2.385 . S
O145 C150 1.255 . S
Cd146 O145 2.385 . S
Cd146 O147 2.317 . S
O147 Cd146 2.317 . S
O147 C148 1.232 . S
C148 O147 1.232 . S
C148 O149 1.218 . S
O149 C148 1.218 . S
C150 O143 1.275 . S
C150 O145 1.255 . S
C151 O152 1.258 . S
C151 O153 1.256 . S
O152 Cd144 2.381 . S
O152 C151 1.258 . S
O153 Cd144 2.378 . S
O153 C151 1.256 . S
O154 Cd155 2.300 . S
O154 C161 1.275 . S
Cd155 O154 2.300 . S
Cd155 O163 2.381 . S
Cd155 O164 2.378 . S
O156 Cd157 2.385 . S
O156 C161 1.255 . S
Cd157 O156 2.385 . S
Cd157 O158 2.317 . S
O158 Cd157 2.317 . S
O158 C159 1.232 . S
C159 O158 1.232 . S
C159 O160 1.218 . S
O160 C159 1.218 . S
C161 O154 1.275 . S
C161 O156 1.255 . S
C162 O163 1.258 . S
C162 O164 1.256 . S
O163 Cd155 2.381 . S
O163 C162 1.258 . S
O164 Cd155 2.378 . S
O164 C162 1.256 . S
O165 Cd166 2.300 . S
O165 C172 1.275 . S
Cd166 O165 2.300 . S
Cd166 O174 2.381 . S
Cd166 O175 2.378 . S
O167 Cd168 2.385 . S
O167 C172 1.255 . S
Cd168 O167 2.385 . S
Cd168 O169 2.317 . S
O169 Cd168 2.317 . S
O169 C170 1.232 . S
C170 O169 1.232 . S
C170 O171 1.218 . S
O171 C170 1.218 . S
C172 O165 1.275 . S
C172 O167 1.255 . S
C173 O174 1.258 . S
C173 O175 1.256 . S
O174 Cd166 2.381 . S
O174 C173 1.258 . S
O175 Cd166 2.378 . S
O175 C173 1.256 . S
O176 Cd177 2.300 . S
O176 C183 1.275 . S
Cd177 O176 2.300 . S
Cd177 O185 2.381 . S
Cd177 O186 2.378 . S
O178 Cd179 2.385 . S
O178 C183 1.255 . S
Cd179 O178 2.385 . S
Cd179 O180 2.317 . S
O180 Cd179 2.317 . S
O180 C181 1.232 . S
C181 O180 1.232 . S
C181 O182 1.218 . S
O182 C181 1.218 . S
C183 O176 1.275 . S
C183 O178 1.255 . S
C184 O185 1.258 . S
C184 O186 1.256 . S
O185 Cd177 2.381 . S
O185 C184 1.258 . S
O186 Cd177 2.378 . S
O186 C184 1.256 . S
O187 Cd188 2.300 . S
O187 C194 1.275 . S
Cd188 O187 2.300 . S
Cd188 O196 2.381 . S
Cd188 O197 2.378 . S
O189 Cd190 2.385 . S
O189 C194 1.255 . S
Cd190 O189 2.385 . S
Cd190 O191 2.317 . S
O191 Cd190 2.317 . S
O191 C192 1.232 . S
C192 O191 1.232 . S
C192 O193 1.218 . S
O193 C192 1.218 . S
C194 O187 1.275 . S
C194 O189 1.255 . S
C195 O196 1.258 . S
C195 O197 1.256 . S
O196 Cd188 2.381 . S
O196 C195 1.258 . S
O197 Cd188 2.378 . S
O197 C195 1.256 . S
O198 Cd199 2.300 . S
O198 C205 1.275 . S
Cd199 O198 2.300 . S
Cd199 O207 2.381 . S
Cd199 O208 2.378 . S
O200 Cd201 2.385 . S
O200 C205 1.255 . S
Cd201 O200 2.385 . S
Cd201 O202 2.317 . S
O202 Cd201 2.317 . S
O202 C203 1.232 . S
C203 O202 1.232 . S
C203 O204 1.218 . S
O204 C203 1.218 . S
C205 O198 1.275 . S
C205 O200 1.255 . S
C206 O207 1.258 . S
C206 O208 1.256 . S
O207 Cd199 2.381 . S
O207 C206 1.258 . S
O208 Cd199 2.378 . S
O208 C206 1.256 . S
O209 Cd210 2.300 . S
O209 C216 1.275 . S
Cd210 O209 2.300 . S
Cd210 O218 2.381 . S
Cd210 O219 2.378 . S
O211 Cd212 2.385 . S
O211 C216 1.255 . S
Cd212 O211 2.385 . S
Cd212 O213 2.317 . S
O213 Cd212 2.317 . S
O213 C214 1.232 . S
C214 O213 1.232 . S
C214 O215 1.218 . S
O215 C214 1.218 . S
C216 O209 1.275 . S
C216 O211 1.255 . S
C217 O218 1.258 . S
C217 O219 1.256 . S
O218 Cd210 2.381 . S
O218 C217 1.258 . S
O219 Cd210 2.378 . S
O219 C217 1.256 . S
O220 Cd221 2.300 . S
O220 C227 1.275 . S
Cd221 O220 2.300 . S
Cd221 O229 2.381 . S
Cd221 O230 2.378 . S
O222 Cd223 2.385 . S
O222 C227 1.255 . S
Cd223 O222 2.385 . S
Cd223 O224 2.317 . S
O224 Cd223 2.317 . S
O224 C225 1.232 . S
C225 O224 1.232 . S
C225 O226 1.218 . S
O226 C225 1.218 . S
C227 O220 1.275 . S
C227 O222 1.255 . S
C228 O229 1.258 . S
C228 O230 1.256 . S
O229 Cd221 2.381 . S
O229 C228 1.258 . S
O230 Cd221 2.378 . S
O230 C228 1.256 . S
O231 Cd232 2.300 . S
O231 C238 1.275 . S
Cd232 O231 2.300 . S
Cd232 O240 2.381 . S
Cd232 O241 2.378 . S
O233 Cd234 2.385 . S
O233 C238 1.255 . S
Cd234 O233 2.385 . S
Cd234 O235 2.317 . S
O235 Cd234 2.317 . S
O235 C236 1.232 . S
C236 O235 1.232 . S
C236 O237 1.218 . S
O237 C236 1.218 . S
C238 O231 1.275 . S
C238 O233 1.255 . S
C239 O240 1.258 . S
C239 O241 1.256 . S
O240 Cd232 2.381 . S
O240 C239 1.258 . S
O241 Cd232 2.378 . S
O241 C239 1.256 . S
O242 Cd243 2.300 . S
O242 C249 1.275 . S
Cd243 O242 2.300 . S
Cd243 O251 2.381 . S
Cd243 O252 2.378 . S
O244 Cd245 2.385 . S
O244 C249 1.255 . S
Cd245 O244 2.385 . S
Cd245 O246 2.317 . S
O246 Cd245 2.317 . S
O246 C247 1.232 . S
C247 O246 1.232 . S
C247 O248 1.218 . S
O248 C247 1.218 . S
C249 O242 1.275 . S
C249 O244 1.255 . S
C250 O251 1.258 . S
C250 O252 1.256 . S
O251 Cd243 2.381 . S
O251 C250 1.258 . S
O252 Cd243 2.378 . S
O252 C250 1.256 . S
O253 Cd254 2.300 . S
O253 C260 1.275 . S
Cd254 O253 2.300 . S
Cd254 O262 2.381 . S
Cd254 O263 2.378 . S
O255 Cd256 2.385 . S
O255 C260 1.255 . S
Cd256 O255 2.385 . S
Cd256 O257 2.317 . S
O257 Cd256 2.317 . S
O257 C258 1.232 . S
C258 O257 1.232 . S
C258 O259 1.218 . S
O259 C258 1.218 . S
C260 O253 1.275 . S
C260 O255 1.255 . S
C261 O262 1.258 . S
C261 O263 1.256 . S
O262 Cd254 2.381 . S
O262 C261 1.258 . S
O263 Cd254 2.378 . S
O263 C261 1.256 . S
O264 Cd265 2.300 . S
O264 C271 1.275 . S
Cd265 O264 2.300 . S
Cd265 O273 2.381 . S
Cd265 O274 2.378 . S
O266 Cd267 2.385 . S
O266 C271 1.255 . S
Cd267 O266 2.385 . S
Cd267 O268 2.317 . S
O268 Cd267 2.317 . S
O268 C269 1.232 . S
C269 O268 1.232 . S
C269 O270 1.218 . S
O270 C269 1.218 . S
C271 O264 1.275 . S
C271 O266 1.255 . S
C272 O273 1.258 . S
C272 O274 1.256 . S
O273 Cd265 2.381 . S
O273 C272 1.258 . S
O274 Cd265 2.378 . S
O274 C272 1.256 . S
O275 Cd276 2.300 . S
O275 C282 1.275 . S
Cd276 O275 2.300 . S
Cd276 O284 2.381 . S
Cd276 O285 2.378 . S
O277 Cd278 2.385 . S
O277 C282 1.255 . S
Cd278 O277 2.385 . S
Cd278 O279 2.317 . S
O279 Cd278 2.317 . S
O279 C280 1.232 . S
C280 O279 1.232 . S
C280 O281 1.218 . S
O281 C280 1.218 . S
C282 O275 1.275 . S
C282 O277 1.255 . S
C283 O284 1.258 . S
C283 O285 1.256 . S
O284 Cd276 2.381 . S
O284 C283 1.258 . S
O285 Cd276 2.378 . S
O285 C283 1.256 . S
O286 Cd287 2.300 . S
O286 C293 1.275 . S
Cd287 O286 2.300 . S
Cd287 O295 2.381 . S
Cd287 O296 2.378 . S
O288 Cd289 2.385 . S
O288 C293 1.255 . S
Cd289 O288 2.385 . S
Cd289 O290 2.317 . S
O290 Cd289 2.317 . S
O290 C291 1.232 . S
C291 O290 1.232 . S
C291 O292 1.218 . S
O292 C291 1.218 . S
C293 O286 1.275 . S
C293 O288 1.255 . S
C294 O295 1.258 . S
C294 O296 1.256 . S
O295 Cd287 2.381 . S
O295 C294 1.258 . S
O296 Cd287 2.378 . S
O296 C294 1.256 . S
O297 Cd298 2.300 . S
O297 C304 1.275 . S
Cd298 O297 2.300 . S
Cd298 O306 2.381 . S
Cd298 O307 2.378 . S
O299 Cd300 2.385 . S
O299 C304 1.255 . S
Cd300 O299 2.385 . S
Cd300 O301 2.317 . S
O301 Cd300 2.317 . S
O301 C302 1.232 . S
C302 O301 1.232 . S
C302 O303 1.218 . S
O303 C302 1.218 . S
C304 O297 1.275 . S
C304 O299 1.255 . S
C305 O306 1.258 . S
C305 O307 1.256 . S
O306 Cd298 2.381 . S
O306 C305 1.258 . S
O307 Cd298 2.378 . S
O307 C305 1.256 . S
O308 Cd309 2.300 . S
O308 C315 1.275 . S
Cd309 O308 2.300 . S
Cd309 O317 2.381 . S
Cd309 O318 2.378 . S
O310 Cd311 2.385 . S
O310 C315 1.255 . S
Cd311 O310 2.385 . S
Cd311 O312 2.317 . S
O312 Cd311 2.317 . S
O312 C313 1.232 . S
C313 O312 1.232 . S
C313 O314 1.218 . S
O314 C313 1.218 . S
C315 O308 1.275 . S
C315 O310 1.255 . S
C316 O317 1.258 . S
C316 O318 1.256 . S
O317 Cd309 2.381 . S
O317 C316 1.258 . S
O318 Cd309 2.378 . S
O318 C316 1.256 . S
O319 Cd320 2.300 . S
O319 C326 1.275 . S
Cd320 O319 2.300 . S
Cd320 O328 2.381 . S
Cd320 O329 2.378 . S
O321 Cd322 2.385 . S
O321 C326 1.255 . S
Cd322 O321 2.385 . S
Cd322 O323 2.317 . S
O323 Cd322 2.317 . S
O323 C324 1.232 . S
C324 O323 1.232 . S
C324 O325 1.218 . S
O325 C324 1.218 . S
C326 O319 1.275 . S
C326 O321 1.255 . S
C327 O328 1.258 . S
C327 O329 1.256 . S
O328 Cd320 2.381 . S
O328 C327 1.258 . S
O329 Cd320 2.378 . S
O329 C327 1.256 . S
O330 Cd331 2.300 . S
O330 C337 1.275 . S
Cd331 O330 2.300 . S
Cd331 O339 2.381 . S
Cd331 O340 2.378 . S
O332 Cd333 2.385 . S
O332 C337 1.255 . S
Cd333 O332 2.385 . S
Cd333 O334 2.317 . S
O334 Cd333 2.317 . S
O334 C335 1.232 . S
C335 O334 1.232 . S
C335 O336 1.218 . S
O336 C335 1.218 . S
C337 O330 1.275 . S
C337 O332 1.255 . S
C338 O339 1.258 . S
C338 O340 1.256 . S
O339 Cd331 2.381 . S
O339 C338 1.258 . S
O340 Cd331 2.378 . S
O340 C338 1.256 . S
O341 Cd342 2.300 . S
O341 C348 1.275 . S
Cd342 O341 2.300 . S
Cd342 O350 2.381 . S
Cd342 O351 2.378 . S
O343 Cd344 2.385 . S
O343 C348 1.255 . S
Cd344 O343 2.385 . S
Cd344 O345 2.317 . S
O345 Cd344 2.317 . S
O345 C346 1.232 . S
C346 O345 1.232 . S
C346 O347 1.218 . S
O347 C346 1.218 . S
C348 O341 1.275 . S
C348 O343 1.255 . S
C349 O350 1.258 . S
C349 O351 1.256 . S
O350 Cd342 2.381 . S
O350 C349 1.258 . S
O351 Cd342 2.378 . S
O351 C349 1.256 . S
O352 Cd353 2.300 . S
O352 C359 1.275 . S
Cd353 O352 2.300 . S
Cd353 O361 2.381 . S
Cd353 O362 2.378 . S
O354 Cd355 2.385 . S
O354 C359 1.255 . S
Cd355 O354 2.385 . S
Cd355 O356 2.317 . S
O356 Cd355 2.317 . S
O356 C357 1.232 . S
C357 O356 1.232 . S
C357 O358 1.218 . S
O358 C357 1.218 . S
C359 O352 1.275 . S
C359 O354 1.255 . S
C360 O361 1.258 . S
C360 O362 1.256 . S
O361 Cd353 2.381 . S
O361 C360 1.258 . S
O362 Cd353 2.378 . S
O362 C360 1.256 . S
O363 Cd364 2.300 . S
O363 C370 1.275 . S
Cd364 O363 2.300 . S
Cd364 O372 2.381 . S
Cd364 O373 2.378 . S
O365 Cd366 2.385 . S
O365 C370 1.255 . S
Cd366 O365 2.385 . S
Cd366 O367 2.317 . S
O367 Cd366 2.317 . S
O367 C368 1.232 . S
C368 O367 1.232 . S
C368 O369 1.218 . S
O369 C368 1.218 . S
C370 O363 1.275 . S
C370 O365 1.255 . S
C371 O372 1.258 . S
C371 O373 1.256 . S
O372 Cd364 2.381 . S
O372 C371 1.258 . S
O373 Cd364 2.378 . S
O373 C371 1.256 . S
O374 Cd375 2.300 . S
O374 C381 1.275 . S
Cd375 O374 2.300 . S
Cd375 O383 2.381 . S
Cd375 O384 2.378 . S
O376 Cd377 2.385 . S
O376 C381 1.255 . S
Cd377 O376 2.385 . S
Cd377 O378 2.317 . S
O378 Cd377 2.317 . S
O378 C379 1.232 . S
C379 O378 1.232 . S
C379 O380 1.218 . S
O380 C379 1.218 . S
C381 O374 1.275 . S
C381 O376 1.255 . S
C382 O383 1.258 . S
C382 O384 1.256 . S
O383 Cd375 2.381 . S
O383 C382 1.258 . S
O384 Cd375 2.378 . S
O384 C382 1.256 . S
O385 Cd386 2.300 . S
O385 C392 1.275 . S
Cd386 O385 2.300 . S
Cd386 O394 2.381 . S
Cd386 O395 2.378 . S
O387 Cd388 2.385 . S
O387 C392 1.255 . S
Cd388 O387 2.385 . S
Cd388 O389 2.317 . S
O389 Cd388 2.317 . S
O389 C390 1.232 . S
C390 O389 1.232 . S
C390 O391 1.218 . S
O391 C390 1.218 . S
C392 O385 1.275 . S
C392 O387 1.255 . S
C393 O394 1.258 . S
C393 O395 1.256 . S
O394 Cd386 2.381 . S
O394 C393 1.258 . S
O395 Cd386 2.378 . S
O395 C393 1.256 . S
O396 Cd397 2.300 . S
O396 C403 1.275 . S
Cd397 O396 2.300 . S
Cd397 O405 2.381 . S
Cd397 O406 2.378 . S
O398 Cd399 2.385 . S
O398 C403 1.255 . S
Cd399 O398 2.385 . S
Cd399 O400 2.317 . S
O400 Cd399 2.317 . S
O400 C401 1.232 . S
C401 O400 1.232 . S
C401 O402 1.218 . S
O402 C401 1.218 . S
C403 O396 1.275 . S
C403 O398 1.255 . S
C404 O405 1.258 . S
C404 O406 1.256 . S
O405 Cd397 2.381 . S
O405 C404 1.258 . S
O406 Cd397 2.378 . S
O406 C404 1.256 . S
O407 Cd408 2.300 . S
O407 C414 1.275 . S
Cd408 O407 2.300 . S
Cd408 O416 2.381 . S
Cd408 O417 2.378 . S
O409 Cd410 2.385 . S
O409 C414 1.255 . S
Cd410 O409 2.385 . S
Cd410 O411 2.317 . S
O411 Cd410 2.317 . S
O411 C412 1.232 . S
C412 O411 1.232 . S
C412 O413 1.218 . S
O413 C412 1.218 . S
C414 O407 1.275 . S
C414 O409 1.255 . S
C415 O416 1.258 . S
C415 O417 1.256 . S
O416 Cd408 2.381 . S
O416 C415 1.258 . S
O417 Cd408 2.378 . S
O417 C415 1.256 . S
O418 Cd419 2.300 . S
O418 C425 1.275 . S
Cd419 O418 2.300 . S
Cd419 O427 2.381 . S
Cd419 O428 2.378 . S
O420 Cd421 2.385 . S
O420 C425 1.255 . S
Cd421 O420 2.385 . S
Cd421 O422 2.317 . S
O422 Cd421 2.317 . S
O422 C423 1.232 . S
C423 O422 1.232 . S
C423 O424 1.218 . S
O424 C423 1.218 . S
C425 O418 1.275 . S
C425 O420 1.255 . S
C426 O427 1.258 . S
C426 O428 1.256 . S
O427 Cd419 2.381 . S
O427 C426 1.258 . S
O428 Cd419 2.378 . S
O428 C426 1.256 . S
O429 Cd430 2.300 . S
O429 C436 1.275 . S
Cd430 O429 2.300 . S
Cd430 O438 2.381 . S
Cd430 O439 2.378 . S
O431 Cd432 2.385 . S
O431 C436 1.255 . S
Cd432 O431 2.385 . S
Cd432 O433 2.317 . S
O433 Cd432 2.317 . S
O433 C434 1.232 . S
C434 O433 1.232 . S
C434 O435 1.218 . S
O435 C434 1.218 . S
C436 O429 1.275 . S
C436 O431 1.255 . S
C437 O438 1.258 . S
C437 O439 1.256 . S
O438 Cd430 2.381 . S
O438 C437 1.258 . S
O439 Cd430 2.378 . S
O439 C437 1.256 . S
O440 Cd441 2.300 . S
O440 C447 1.275 . S
Cd441 O440 2.300 . S
Cd441 O449 2.381 . S
Cd441 O450 2.378 . S
O442 Cd443 2.385 . S
O442 C447 1.255 . S
Cd443 O442 2.385 . S
Cd443 O444 2.317 . S
O444 Cd443 2.317 . S
O444 C445 1.232 . S
C445 O444 1.232 . S
C445 O446 1.218 . S
O446 C445 1.218 . S
C447 O440 1.275 . S
C447 O442 1.255 . S
C448 O449 1.258 . S
C448 O450 1.256 . S
O449 Cd441 2.381 . S
O449 C448 1.258 . S
O450 Cd441 2.378 . S
O450 C448 1.256 . S
O451 Cd452 2.300 . S
O451 C458 1.275 . S
Cd452 O451 2.300 . S
Cd452 O460 2.381 . S
Cd452 O461 2.378 . S
O453 Cd454 2.385 . S
O453 C458 1.255 . S
Cd454 O453 2.385 . S
Cd454 O455 2.317 . S
O455 Cd454 2.317 . S
O455 C456 1.232 . S
C456 O455 1.232 . S
C456 O457 1.218 . S
O457 C456 1.218 . S
C458 O451 1.275 . S
C458 O453 1.255 . S
C459 O460 1.258 . S
C459 O461 1.256 . S
O460 Cd452 2.381 . S
O460 C459 1.258 . S
O461 Cd452 2.378 . S
O461 C459 1.256 . S
O462 Cd463 2.300 . S
O462 C469 1.275 . S
Cd463 O462 2.300 . S
Cd463 O471 2.381 . S
Cd463 O472 2.378 . S
O464 Cd465 2.385 . S
O464 C469 1.255 . S
Cd465 O464 2.385 . S
Cd465 O466 2.317 . S
O466 Cd465 2.317 . S
O466 C467 1.232 . S
C467 O466 1.232 . S
C467 O468 1.218 . S
O468 C467 1.218 . S
C469 O462 1.275 . S
C469 O464 1.255 . S
C470 O471 1.258 . S
C470 O472 1.256 . S
O471 Cd463 2.381 . S
O471 C470 1.258 . S
O472 Cd463 2.378 . S
O472 C470 1.256 . S
O473 Cd474 2.300 . S
O473 C480 1.275 . S
Cd474 O473 2.300 . S
Cd474 O482 2.381 . S
Cd474 O483 2.378 . S
O475 Cd476 2.385 . S
O475 C480 1.255 . S
Cd476 O475 2.385 . S
Cd476 O477 2.317 . S
O477 Cd476 2.317 . S
O477 C478 1.232 . S
C478 O477 1.232 . S
C478 O479 1.218 . S
O479 C478 1.218 . S
C480 O473 1.275 . S
C480 O475 1.255 . S
C481 O482 1.258 . S
C481 O483 1.256 . S
O482 Cd474 2.381 . S
O482 C481 1.258 . S
O483 Cd474 2.378 . S
O483 C481 1.256 . S
O484 Cd485 2.300 . S
O484 C491 1.275 . S
Cd485 O484 2.300 . S
Cd485 O493 2.381 . S
Cd485 O494 2.378 . S
O486 Cd487 2.385 . S
O486 C491 1.255 . S
Cd487 O486 2.385 . S
Cd487 O488 2.317 . S
O488 Cd487 2.317 . S
O488 C489 1.232 . S
C489 O488 1.232 . S
C489 O490 1.218 . S
O490 C489 1.218 . S
C491 O484 1.275 . S
C491 O486 1.255 . S
C492 O493 1.258 . S
C492 O494 1.256 . S
O493 Cd485 2.381 . S
O493 C492 1.258 . S
O494 Cd485 2.378 . S
O494 C492 1.256 . S
O495 Cd496 2.300 . S
O495 C502 1.275 . S
Cd496 O495 2.300 . S
Cd496 O504 2.381 . S
Cd496 O505 2.378 . S
O497 Cd498 2.385 . S
O497 C502 1.255 . S
Cd498 O497 2.385 . S
Cd498 O499 2.317 . S
O499 Cd498 2.317 . S
O499 C500 1.232 . S
C500 O499 1.232 . S
C500 O501 1.218 . S
O501 C500 1.218 . S
C502 O495 1.275 . S
C502 O497 1.255 . S
C503 O504 1.258 . S
C503 O505 1.256 . S
O504 Cd496 2.381 . S
O504 C503 1.258 . S
O505 Cd496 2.378 . S
O505 C503 1.256 . S
O506 Cd507 2.300 . S
O506 C513 1.275 . S
Cd507 O506 2.300 . S
Cd507 O515 2.381 . S
Cd507 O516 2.378 . S
O508 Cd509 2.385 . S
O508 C513 1.255 . S
Cd509 O508 2.385 . S
Cd509 O510 2.317 . S
O510 Cd509 2.317 . S
O510 C511 1.232 . S
C511 O510 1.232 . S
C511 O512 1.218 . S
O512 C511 1.218 . S
C513 O506 1.275 . S
C513 O508 1.255 . S
C514 O515 1.258 . S
C514 O516 1.256 . S
O515 Cd507 2.381 . S
O515 C514 1.258 . S
O516 Cd507 2.378 . S
O516 C514 1.256 . S
O517 Cd518 2.300 . S
O517 C524 1.275 . S
Cd518 O517 2.300 . S
Cd518 O526 2.381 . S
Cd518 O527 2.378 . S
O519 Cd520 2.385 . S
O519 C524 1.255 . S
Cd520 O519 2.385 . S
Cd520 O521 2.317 . S
O521 Cd520 2.317 . S
O521 C522 1.232 . S
C522 O521 1.232 . S
C522 O523 1.218 . S
O523 C522 1.218 . S
C524 O517 1.275 . S
C524 O519 1.255 . S
C525 O526 1.258 . S
C525 O527 1.256 . S
O526 Cd518 2.381 . S
O526 C525 1.258 . S
O527 Cd518 2.378 . S
O527 C525 1.256 . S
O528 Cd529 2.300 . S
O528 C535 1.275 . S
Cd529 O528 2.300 . S
Cd529 O537 2.381 . S
Cd529 O538 2.378 . S
O530 Cd531 2.385 . S
O530 C535 1.255 . S
Cd531 O530 2.385 . S
Cd531 O532 2.317 . S
O532 Cd531 2.317 . S
O532 C533 1.232 . S
C533 O532 1.232 . S
C533 O534 1.218 . S
O534 C533 1.218 . S
C535 O528 1.275 . S
C535 O530 1.255 . S
C536 O537 1.258 . S
C536 O538 1.256 . S
O537 Cd529 2.381 . S
O537 C536 1.258 . S
O538 Cd529 2.378 . S
O538 C536 1.256 . S
O539 Cd540 2.300 . S
O539 C546 1.275 . S
Cd540 O539 2.300 . S
Cd540 O548 2.381 . S
Cd540 O549 2.378 . S
O541 Cd542 2.385 . S
O541 C546 1.255 . S
Cd542 O541 2.385 . S
Cd542 O543 2.317 . S
O543 Cd542 2.317 . S
O543 C544 1.232 . S
C544 O543 1.232 . S
C544 O545 1.218 . S
O545 C544 1.218 . S
C546 O539 1.275 . S
C546 O541 1.255 . S
C547 O548 1.258 . S
C547 O549 1.256 . S
O548 Cd540 2.381 . S
O548 C547 1.258 . S
O549 Cd540 2.378 . S
O549 C547 1.256 . S
O550 Cd551 2.300 . S
O550 C557 1.275 . S
Cd551 O550 2.300 . S
Cd551 O559 2.381 . S
Cd551 O560 2.378 . S
O552 Cd553 2.385 . S
O552 C557 1.255 . S
Cd553 O552 2.385 . S
Cd553 O554 2.317 . S
O554 Cd553 2.317 . S
O554 C555 1.232 . S
C555 O554 1.232 . S
C555 O556 1.218 . S
O556 C555 1.218 . S
C557 O550 1.275 . S
C557 O552 1.255 . S
C558 O559 1.258 . S
C558 O560 1.256 . S
O559 Cd551 2.381 . S
O559 C558 1.258 . S
O560 Cd551 2.378 . S
O560 C558 1.256 . S
O561 Cd562 2.300 . S
O561 C568 1.275 . S
Cd562 O561 2.300 . S
Cd562 O570 2.381 . S
Cd562 O571 2.378 . S
O563 Cd564 2.385 . S
O563 C568 1.255 . S
Cd564 O563 2.385 . S
Cd564 O565 2.317 . S
O565 Cd564 2.317 . S
O565 C566 1.232 . S
C566 O565 1.232 . S
C566 O567 1.218 . S
O567 C566 1.218 . S
C568 O561 1.275 . S
C568 O563 1.255 . S
C569 O570 1.258 . S
C569 O571 1.256 . S
O570 Cd562 2.381 . S
O570 C569 1.258 . S
O571 Cd562 2.378 . S
O571 C569 1.256 . S
O572 Cd573 2.300 . S
O572 C579 1.275 . S
Cd573 O572 2.300 . S
Cd573 O581 2.381 . S
Cd573 O582 2.378 . S
O574 Cd575 2.385 . S
O574 C579 1.255 . S
Cd575 O574 2.385 . S
Cd575 O576 2.317 . S
O576 Cd575 2.317 . S
O576 C577 1.232 . S
C577 O576 1.232 . S
C577 O578 1.218 . S
O578 C577 1.218 . S
C579 O572 1.275 . S
C579 O574 1.255 . S
C580 O581 1.258 . S
C580 O582 1.256 . S
O581 Cd573 2.381 . S
O581 C580 1.258 . S
O582 Cd573 2.378 . S
O582 C580 1.256 . S
O583 Cd584 2.300 . S
O583 C590 1.275 . S
Cd584 O583 2.300 . S
Cd584 O592 2.381 . S
Cd584 O593 2.378 . S
O585 Cd586 2.385 . S
O585 C590 1.255 . S
Cd586 O585 2.385 . S
Cd586 O587 2.317 . S
O587 Cd586 2.317 . S
O587 C588 1.232 . S
C588 O587 1.232 . S
C588 O589 1.218 . S
O589 C588 1.218 . S
C590 O583 1.275 . S
C590 O585 1.255 . S
C591 O592 1.258 . S
C591 O593 1.256 . S
O592 Cd584 2.381 . S
O592 C591 1.258 . S
O593 Cd584 2.378 . S
O593 C591 1.256 . S
O594 Cd595 2.300 . S
O594 C601 1.275 . S
Cd595 O594 2.300 . S
Cd595 O603 2.381 . S
Cd595 O604 2.378 . S
O596 Cd597 2.385 . S
O596 C601 1.255 . S
Cd597 O596 2.385 . S
Cd597 O598 2.317 . S
O598 Cd597 2.317 . S
O598 C599 1.232 . S
C599 O598 1.232 . S
C599 O600 1.218 . S
O600 C599 1.218 . S
C601 O594 1.275 . S
C601 O596 1.255 . S
C602 O603 1.258 . S
C602 O604 1.256 . S
O603 Cd595 2.381 . S
O603 C602 1.258 . S
O604 Cd595 2.378 . S
O604 C602 1.256 . S
O605 Cd606 2.300 . S
O605 C612 1.275 . S
Cd606 O605 2.300 . S
Cd606 O614 2.381 . S
Cd606 O615 2.378 . S
O607 Cd608 2.385 . S
O607 C612 1.255 . S
Cd608 O607 2.385 . S
Cd608 O609 2.317 . S
O609 Cd608 2.317 . S
O609 C610 1.232 . S
C610 O609 1.232 . S
C610 O611 1.218 . S
O611 C610 1.218 . S
C612 O605 1.275 . S
C612 O607 1.255 . S
C613 O614 1.258 . S
C613 O615 1.256 . S
O614 Cd606 2.381 . S
O614 C613 1.258 . S
O615 Cd606 2.378 . S
O615 C613 1.256 . S
O616 Cd617 2.300 . S
O616 C623 1.275 . S
Cd617 O616 2.300 . S
Cd617 O625 2.381 . S
Cd617 O626 2.378 . S
O618 Cd619 2.385 . S
O618 C623 1.255 . S
Cd619 O618 2.385 . S
Cd619 O620 2.317 . S
O620 Cd619 2.317 . S
O620 C621 1.232 . S
C621 O620 1.232 . S
C621 O622 1.218 . S
O622 C621 1.218 . S
C623 O616 1.275 . S
C623 O618 1.255 . S
C624 O625 1.258 . S
C624 O626 1.256 . S
O625 Cd617 2.381 . S
O625 C624 1.258 . S
O626 Cd617 2.378 . S
O626 C624 1.256 . S
O627 Cd628 2.300 . S
O627 C634 1.275 . S
Cd628 O627 2.300 . S
Cd628 O636 2.381 . S
Cd628 O637 2.378 . S
O629 Cd630 2.385 . S
O629 C634 1.255 . S
Cd630 O629 2.385 . S
Cd630 O631 2.317 . S
O631 Cd630 2.317 . S
O631 C632 1.232 . S
C632 O631 1.232 . S
C632 O633 1.218 . S
O633 C632 1.218 . S
C634 O627 1.275 . S
C634 O629 1.255 . S
C635 O636 1.258 . S
C635 O637 1.256 . S
O636 Cd628 2.381 . S
O636 C635 1.258 . S
O637 Cd628 2.378 . S
O637 C635 1.256 . S
O638 Cd639 2.300 . S
O638 C645 1.275 . S
Cd639 O638 2.300 . S
Cd639 O647 2.381 . S
Cd639 O648 2.378 . S
O640 Cd641 2.385 . S
O640 C645 1.255 . S
Cd641 O640 2.385 . S
Cd641 O642 2.317 . S
O642 Cd641 2.317 . S
O642 C643 1.232 . S
C643 O642 1.232 . S
C643 O644 1.218 . S
O644 C643 1.218 . S
C645 O638 1.275 . S
C645 O640 1.255 . S
C646 O647 1.258 . S
C646 O648 1.256 . S
O647 Cd639 2.381 . S
O647 C646 1.258 . S
O648 Cd639 2.378 . S
O648 C646 1.256 . S
O649 Cd650 2.300 . S
O649 C656 1.275 . S
Cd650 O649 2.300 . S
Cd650 O658 2.381 . S
Cd650 O659 2.378 . S
O651 Cd652 2.385 . S
O651 C656 1.255 . S
Cd652 O651 2.385 . S
Cd652 O653 2.317 . S
O653 Cd652 2.317 . S
O653 C654 1.232 . S
C654 O653 1.232 . S
C654 O655 1.218 . S
O655 C654 1.218 . S
C656 O649 1.275 . S
C656 O651 1.255 . S
C657 O658 1.258 . S
C657 O659 1.256 . S
O658 Cd650 2.381 . S
O658 C657 1.258 . S
O659 Cd650 2.378 . S
O659 C657 1.256 . S
O660 Cd661 2.300 . S
O660 C667 1.275 . S
Cd661 O660 2.300 . S
Cd661 O669 2.381 . S
Cd661 O670 2.378 . S
O662 Cd663 2.385 . S
O662 C667 1.255 . S
Cd663 O662 2.385 . S
Cd663 O664 2.317 . S
O664 Cd663 2.317 . S
O664 C665 1.232 . S
C665 O664 1.232 . S
C665 O666 1.218 . S
O666 C665 1.218 . S
C667 O660 1.275 . S
C667 O662 1.255 . S
C668 O669 1.258 . S
C668 O670 1.256 . S
O669 Cd661 2.381 . S
O669 C668 1.258 . S
O670 Cd661 2.378 . S
O670 C668 1.256 . S
O671 Cd672 2.300 . S
O671 C678 1.275 . S
Cd672 O671 2.300 . S
Cd672 O680 2.381 . S
Cd672 O681 2.378 . S
O673 Cd674 2.385 . S
O673 C678 1.255 . S
Cd674 O673 2.385 . S
Cd674 O675 2.317 . S
O675 Cd674 2.317 . S
O675 C676 1.232 . S
C676 O675 1.232 . S
C676 O677 1.218 . S
O677 C676 1.218 . S
C678 O671 1.275 . S
C678 O673 1.255 . S
C679 O680 1.258 . S
C679 O681 1.256 . S
O680 Cd672 2.381 . S
O680 C679 1.258 . S
O681 Cd672 2.378 . S
O681 C679 1.256 . S
O682 Cd683 2.300 . S
O682 C689 1.275 . S
Cd683 O682 2.300 . S
Cd683 O691 2.381 . S
Cd683 O692 2.378 . S
O684 Cd685 2.385 . S
O684 C689 1.255 . S
Cd685 O684 2.385 . S
Cd685 O686 2.317 . S
O686 Cd685 2.317 . S
O686 C687 1.232 . S
C687 O686 1.232 . S
C687 O688 1.218 . S
O688 C687 1.218 . S
C689 O682 1.275 . S
C689 O684 1.255 . S
C690 O691 1.258 . S
C690 O692 1.256 . S
O691 Cd683 2.381 . S
O691 C690 1.258 . S
O692 Cd683 2.378 . S
O692 C690 1.256 . S
O693 Cd694 2.300 . S
O693 C700 1.275 . S
Cd694 O693 2.300 . S
Cd694 O702 2.381 . S
Cd694 O703 2.378 . S
O695 Cd696 2.385 . S
O695 C700 1.255 . S
Cd696 O695 2.385 . S
Cd696 O697 2.317 . S
O697 Cd696 2.317 . S
O697 C698 1.232 . S
C698 O697 1.232 . S
C698 O699 1.218 . S
O699 C698 1.218 . S
C700 O693 1.275 . S
C700 O695 1.255 . S
C701 O702 1.258 . S
C701 O703 1.256 . S
O702 Cd694 2.381 . S
O702 C701 1.258 . S
O703 Cd694 2.378 . S
O703 C701 1.256 . S
O704 Cd705 2.300 . S
O704 C711 1.275 . S
Cd705 O704 2.300 . S
Cd705 O713 2.381 . S
Cd705 O714 2.378 . S
O706 Cd707 2.385 . S
O706 C711 1.255 . S
Cd707 O706 2.385 . S
Cd707 O708 2.317 . S
O708 Cd707 2.317 . S
O708 C709 1.232 . S
C709 O708 1.232 . S
C709 O710 1.218 . S
O710 C709 1.218 . S
C711 O704 1.275 . S
C711 O706 1.255 . S
C712 O713 1.258 . S
C712 O714 1.256 . S
O713 Cd705 2.381 . S
O713 C712 1.258 . S
O714 Cd705 2.378 . S
O714 C712 1.256 . S
O715 Cd716 2.300 . S
O715 C722 1.275 . S
Cd716 O715 2.300 . S
Cd716 O724 2.381 . S
Cd716 O725 2.378 . S
O717 Cd718 2.385 . S
O717 C722 1.255 . S
Cd718 O717 2.385 . S
Cd718 O719 2.317 . S
O719 Cd718 2.317 . S
O719 C720 1.232 . S
C720 O719 1.232 . S
C720 O721 1.218 . S
O721 C720 1.218 . S
C722 O715 1.275 . S
C722 O717 1.255 . S
C723 O724 1.258 . S
C723 O725 1.256 . S
O724 Cd716 2.381 . S
O724 C723 1.258 . S
O725 Cd716 2.378 . S
O725 C723 1.256 . S
O726 Cd727 2.300 . S
O726 C733 1.275 . S
Cd727 O726 2.300 . S
Cd727 O735 2.381 . S
Cd727 O736 2.378 . S
O728 Cd729 2.385 . S
O728 C733 1.255 . S
Cd729 O728 2.385 . S
Cd729 O730 2.317 . S
O730 Cd729 2.317 . S
O730 C731 1.232 . S
C731 O730 1.232 . S
C731 O732 1.218 . S
O732 C731 1.218 . S
C733 O726 1.275 . S
C733 O728 1.255 . S
C734 O735 1.258 . S
C734 O736 1.256 . S
O735 Cd727 2.381 . S
O735 C734 1.258 . S
O736 Cd727 2.378 . S
O736 C734 1.256 . S
O737 Cd738 2.300 . S
O737 C744 1.275 . S
Cd738 O737 2.300 . S
Cd738 O746 2.381 . S
Cd738 O747 2.378 . S
O739 Cd740 2.385 . S
O739 C744 1.255 . S
Cd740 O739 2.385 . S
Cd740 O741 2.317 . S
O741 Cd740 2.317 . S
O741 C742 1.232 . S
C742 O741 1.232 . S
C742 O743 1.218 . S
O743 C742 1.218 . S
C744 O737 1.275 . S
C744 O739 1.255 . S
C745 O746 1.258 . S
C745 O747 1.256 . S
O746 Cd738 2.381 . S
O746 C745 1.258 . S
O747 Cd738 2.378 . S
O747 C745 1.256 . S
O748 Cd749 2.300 . S
O748 C755 1.275 . S
Cd749 O748 2.300 . S
Cd749 O757 2.381 . S
Cd749 O758 2.378 . S
O750 Cd751 2.385 . S
O750 C755 1.255 . S
Cd751 O750 2.385 . S
Cd751 O752 2.317 . S
O752 Cd751 2.317 . S
O752 C753 1.232 . S
C753 O752 1.232 . S
C753 O754 1.218 . S
O754 C753 1.218 . S
C755 O748 1.275 . S
C755 O750 1.255 . S
C756 O757 1.258 . S
C756 O758 1.256 . S
O757 Cd749 2.381 . S
O757 C756 1.258 . S
O758 Cd749 2.378 . S
O758 C756 1.256 . S
O759 Cd760 2.300 . S
O759 C766 1.275 . S
Cd760 O759 2.300 . S
Cd760 O768 2.381 . S
Cd760 O769 2.378 . S
O761 Cd762 2.385 . S
O761 C766 1.255 . S
Cd762 O761 2.385 . S
Cd762 O763 2.317 . S
O763 Cd762 2.317 . S
O763 C764 1.232 . S
C764 O763 1.232 . S
C764 O765 1.218 . S
O765 C764 1.218 . S
C766 O759 1.275 . S
C766 O761 1.255 . S
C767 O768 1.258 . S
C767 O769 1.256 . S
O768 Cd760 2.381 . S
O768 C767 1.258 . S
O769 Cd760 2.378 . S
O769 C767 1.256 . S
O770 Cd771 2.300 . S
O770 C777 1.275 . S
Cd771 O770 2.300 . S
Cd771 O779 2.381 . S
Cd771 O780 2.378 . S
O772 Cd773 2.385 . S
O772 C777 1.255 . S
Cd773 O772 2.385 . S
Cd773 O774 2.317 . S
O774 Cd773 2.317 . S
O774 C775 1.232 . S
C775 O774 1.232 . S
C775 O776 1.218 . S
O776 C775 1.218 . S
C777 O770 1.275 . S
C777 O772 1.255 . S
C778 O779 1.258 . S
C778 O780 1.256 . S
O779 Cd771 2.381 . S
O779 C778 1.258 . S
O780 Cd771 2.378 . S
O780 C778 1.256 . S
O781 Cd782 2.300 . S
O781 C788 1.275 . S
Cd782 O781 2.300 . S
Cd782 O790 2.381 . S
Cd782 O791 2.378 . S
O783 Cd784 2.385 . S
O783 C788 1.255 . S
Cd784 O783 2.385 . S
Cd784 O785 2.317 . S
O785 Cd784 2.317 . S
O785 C786 1.232 . S
C786 O785 1.232 . S
C786 O787 1.218 . S
O787 C786 1.218 . S
C788 O781 1.275 . S
C788 O783 1.255 . S
C789 O790 1.258 . S
C789 O791 1.256 . S
O790 Cd782 2.381 . S
O790 C789 1.258 . S
O791 Cd782 2.378 . S
O791 C789 1.256 . S
O792 Cd793 2.300 . S
O792 C799 1.275 . S
Cd793 O792 2.300 . S
Cd793 O801 2.381 . S
Cd793 O802 2.378 . S
O794 Cd795 2.385 . S
O794 C799 1.255 . S
Cd795 O794 2.385 . S
Cd795 O796 2.317 . S
O796 Cd795 2.317 . S
O796 C797 1.232 . S
C797 O796 1.232 . S
C797 O798 1.218 . S
O798 C797 1.218 . S
C799 O792 1.275 . S
C799 O794 1.255 . S
C800 O801 1.258 . S
C800 O802 1.256 . S
O801 Cd793 2.381 . S
O801 C800 1.258 . S
O802 Cd793 2.378 . S
O802 C800 1.256 . S
O803 Cd804 2.300 . S
O803 C810 1.275 . S
Cd804 O803 2.300 . S
Cd804 O812 2.381 . S
Cd804 O813 2.378 . S
O805 Cd806 2.385 . S
O805 C810 1.255 . S
Cd806 O805 2.385 . S
Cd806 O807 2.317 . S
O807 Cd806 2.317 . S
O807 C808 1.232 . S
C808 O807 1.232 . S
C808 O809 1.218 . S
O809 C808 1.218 . S
C810 O803 1.275 . S
C810 O805 1.255 . S
C811 O812 1.258 . S
C811 O813 1.256 . S
O812 Cd804 2.381 . S
O812 C811 1.258 . S
O813 Cd804 2.378 . S
O813 C811 1.256 . S
O814 Cd815 2.300 . S
O814 C821 1.275 . S
Cd815 O814 2.300 . S
Cd815 O823 2.381 . S
Cd815 O824 2.378 . S
O816 Cd817 2.385 . S
O816 C821 1.255 . S
Cd817 O816 2.385 . S
Cd817 O818 2.317 . S
O818 Cd817 2.317 . S
O818 C819 1.232 . S
C819 O818 1.232 . S
C819 O820 1.218 . S
O820 C819 1.218 . S
C821 O814 1.275 . S
C821 O816 1.255 . S
C822 O823 1.258 . S
C822 O824 1.256 . S
O823 Cd815 2.381 . S
O823 C822 1.258 . S
O824 Cd815 2.378 . S
O824 C822 1.256 . S
O825 Cd826 2.300 . S
O825 C832 1.275 . S
Cd826 O825 2.300 . S
Cd826 O834 2.381 . S
Cd826 O835 2.378 . S
O827 Cd828 2.385 . S
O827 C832 1.255 . S
Cd828 O827 2.385 . S
Cd828 O829 2.317 . S
O829 Cd828 2.317 . S
O829 C830 1.232 . S
C830 O829 1.232 . S
C830 O831 1.218 . S
O831 C830 1.218 . S
C832 O825 1.275 . S
C832 O827 1.255 . S
C833 O834 1.258 . S
C833 O835 1.256 . S
O834 Cd826 2.381 . S
O834 C833 1.258 . S
O835 Cd826 2.378 . S
O835 C833 1.256 . S
O836 Cd837 2.300 . S
O836 C843 1.275 . S
Cd837 O836 2.300 . S
Cd837 O845 2.381 . S
Cd837 O846 2.378 . S
O838 Cd839 2.385 . S
O838 C843 1.255 . S
Cd839 O838 2.385 . S
Cd839 O840 2.317 . S
O840 Cd839 2.317 . S
O840 C841 1.232 . S
C841 O840 1.232 . S
C841 O842 1.218 . S
O842 C841 1.218 . S
C843 O836 1.275 . S
C843 O838 1.255 . S
C844 O845 1.258 . S
C844 O846 1.256 . S
O845 Cd837 2.381 . S
O845 C844 1.258 . S
O846 Cd837 2.378 . S
O846 C844 1.256 . S
O847 Cd848 2.300 . S
O847 C854 1.275 . S
Cd848 O847 2.300 . S
Cd848 O856 2.381 . S
Cd848 O857 2.378 . S
O849 Cd850 2.385 . S
O849 C854 1.255 . S
Cd850 O849 2.385 . S
Cd850 O851 2.317 . S
O851 Cd850 2.317 . S
O851 C852 1.232 . S
C852 O851 1.232 . S
C852 O853 1.218 . S
O853 C852 1.218 . S
C854 O847 1.275 . S
C854 O849 1.255 . S
C855 O856 1.258 . S
C855 O857 1.256 . S
O856 Cd848 2.381 . S
O856 C855 1.258 . S
O857 Cd848 2.378 . S
O857 C855 1.256 . S
O858 Cd859 2.300 . S
O858 C865 1.275 . S
Cd859 O858 2.300 . S
Cd859 O867 2.381 . S
Cd859 O868 2.378 . S
O860 Cd861 2.385 . S
O860 C865 1.255 . S
Cd861 O860 2.385 . S
Cd861 O862 2.317 . S
O862 Cd861 2.317 . S
O862 C863 1.232 . S
C863 O862 1.232 . S
C863 O864 1.218 . S
O864 C863 1.218 . S
C865 O858 1.275 . S
C865 O860 1.255 . S
C866 O867 1.258 . S
C866 O868 1.256 . S
O867 Cd859 2.381 . S
O867 C866 1.258 . S
O868 Cd859 2.378 . S
O868 C866 1.256 . S
O869 Cd870 2.300 . S
O869 C876 1.275 . S
Cd870 O869 2.300 . S
Cd870 O878 2.381 . S
Cd870 O879 2.378 . S
O871 Cd872 2.385 . S
O871 C876 1.255 . S
Cd872 O871 2.385 . S
Cd872 O873 2.317 . S
O873 Cd872 2.317 . S
O873 C874 1.232 . S
C874 O873 1.232 . S
C874 O875 1.218 . S
O875 C874 1.218 . S
C876 O869 1.275 . S
C876 O871 1.255 . S
C877 O878 1.258 . S
C877 O879 1.256 . S
O878 Cd870 2.381 . S
O878 C877 1.258 . S
O879 Cd870 2.378 . S
O879 C877 1.256 . S
O880 Cd881 2.300 . S
O880 C887 1.275 . S
Cd881 O880 2.300 . S
Cd881 O889 2.381 . S
Cd881 O890 2.378 . S
O882 Cd883 2.385 . S
O882 C887 1.255 . S
Cd883 O882 2.385 . S
Cd883 O884 2.317 . S
O884 Cd883 2.317 . S
O884 C885 1.232 . S
C885 O884 1.232 . S
C885 O886 1.218 . S
O886 C885 1.218 . S
C887 O880 1.275 . S
C887 O882 1.255 . S
C888 O889 1.258 . S
C888 O890 1.256 . S
O889 Cd881 2.381 . S
O889 C888 1.258 . S
O890 Cd881 2.378 . S
O890 C888 1.256 . S
O891 Cd892 2.300 . S
O891 C898 1.275 . S
Cd892 O891 2.300 . S
Cd892 O900 2.381 . S
Cd892 O901 2.378 . S
O893 Cd894 2.385 . S
O893 C898 1.255 . S
Cd894 O893 2.385 . S
Cd894 O895 2.317 . S
O895 Cd894 2.317 . S
O895 C896 1.232 . S
C896 O895 1.232 . S
C896 O897 1.218 . S
O897 C896 1.218 . S
C898 O891 1.275 . S
C898 O893 1.255 . S
C899 O900 1.258 . S
C899 O901 1.256 . S
O900 Cd892 2.381 . S
O900 C899 1.258 . S
O901 Cd892 2.378 . S
O901 C899 1.256 . S
O902 Cd903 2.300 . S
O902 C909 1.275 . S
Cd903 O902 2.300 . S
Cd903 O911 2.381 . S
Cd903 O912 2.378 . S
O904 Cd905 2.385 . S
O904 C909 1.255 . S
Cd905 O904 2.385 . S
Cd905 O906 2.317 . S
O906 Cd905 2.317 . S
O906 C907 1.232 . S
C907 O906 1.232 . S
C907 O908 1.218 . S
O908 C907 1.218 . S
C909 O902 1.275 . S
C909 O904 1.255 . S
C910 O911 1.258 . S
C910 O912 1.256 . S
O911 Cd903 2.381 . S
O911 C910 1.258 . S
O912 Cd903 2.378 . S
O912 C910 1.256 . S
O913 Cd914 2.300 . S
O913 C920 1.275 . S
Cd914 O913 2.300 . S
Cd914 O922 2.381 . S
Cd914 O923 2.378 . S
O915 Cd916 2.385 . S
O915 C920 1.255 . S
Cd916 O915 2.385 . S
Cd916 O917 2.317 . S
O917 Cd916 2.317 . S
O917 C918 1.232 . S
C918 O917 1.232 . S
C918 O919 1.218 . S
O919 C918 1.218 . S
C920 O913 1.275 . S
C920 O915 1.255 . S
C921 O922 1.258 . S
C921 O923 1.256 . S
O922 Cd914 2.381 . S
O922 C921 1.258 . S
O923 Cd914 2.378 . S
O923 C921 1.256 . S
O924 Cd925 2.300 . S
O924 C931 1.275 . S
Cd925 O924 2.300 . S
Cd925 O933 2.381 . S
Cd925 O934 2.378 . S
O926 Cd927 2.385 . S
O926 C931 1.255 . S
Cd927 O926 2.385 . S
Cd927 O928 2.317 . S
O928 Cd927 2.317 . S
O928 C929 1.232 . S
C929 O928 1.232 . S
C929 O930 1.218 . S
O930 C929 1.218 . S
C931 O924 1.275 . S
C931 O926 1.255 . S
C932 O933 1.258 . S
C932 O934 1.256 . S
O933 Cd925 2.381 . S
O933 C932 1.258 . S
O934 Cd925 2.378 . S
O934 C932 1.256 . S
O935 Cd936 2.300 . S
O935 C942 1.275 . S
Cd936 O935 2.300 . S
Cd936 O944 2.381 . S
Cd936 O945 2.378 . S
O937 Cd938 2.385 . S
O937 C942 1.255 . S
Cd938 O937 2.385 . S
Cd938 O939 2.317 . S
O939 Cd938 2.317 . S
O939 C940 1.232 . S
C940 O939 1.232 . S
C940 O941 1.218 . S
O941 C940 1.218 . S
C942 O935 1.275 . S
C942 O937 1.255 . S
C943 O944 1.258 . S
C943 O945 1.256 . S
O944 Cd936 2.381 . S
O944 C943 1.258 . S
O945 Cd936 2.378 . S
O945 C943 1.256 . S
O946 Cd947 2.300 . S
O946 C953 1.275 . S
Cd947 O946 2.300 . S
Cd947 O955 2.381 . S
Cd947 O956 2.378 . S
O948 Cd949 2.385 . S
O948 C953 1.255 . S
Cd949 O948 2.385 . S
Cd949 O950 2.317 . S
O950 Cd949 2.317 . S
O950 C951 1.232 . S
C951 O950 1.232 . S
C951 O952 1.218 . S
O952 C951 1.218 . S
C953 O946 1.275 . S
C953 O948 1.255 . S
C954 O955 1.258 . S
C954 O956 1.256 . S
O955 Cd947 2.381 . S
O955 C954 1.258 . S
O956 Cd947 2.378 . S
O956 C954 1.256 . S
O957 Cd958 2.300 . S
O957 C964 1.275 . S
Cd958 O957 2.300 . S
Cd958 O966 2.381 . S
Cd958 O967 2.378 . S
O959 Cd960 2.385 . S
O959 C964 1.255 . S
Cd960 O959 2.385 . S
Cd960 O961 2.317 . S
O961 Cd960 2.317 . S
O961 C962 1.232 . S
C962 O961 1.232 . S
C962 O963 1.218 . S
O963 C962 1.218 . S
C964 O957 1.275 . S
C964 O959 1.255 . S
C965 O966 1.258 . S
C965 O967 1.256 . S
O966 Cd958 2.381 . S
O966 C965 1.258 . S
O967 Cd958 2.378 . S
O967 C965 1.256 . S
O968 Cd969 2.300 . S
O968 C975 1.275 . S
Cd969 O968 2.300 . S
Cd969 O977 2.381 . S
Cd969 O978 2.378 . S
O970 Cd971 2.385 . S
O970 C975 1.255 . S
Cd971 O970 2.385 . S
Cd971 O972 2.317 . S
O972 Cd971 2.317 . S
O972 C973 1.232 . S
C973 O972 1.232 . S
C973 O974 1.218 . S
O974 C973 1.218 . S
C975 O968 1.275 . S
C975 O970 1.255 . S
C976 O977 1.258 . S
C976 O978 1.256 . S
O977 Cd969 2.381 . S
O977 C976 1.258 . S
O978 Cd969 2.378 . S
O978 C976 1.256 . S
O979 Cd980 2.300 . S
O979 C986 1.275 . S
Cd980 O979 2.300 . S
Cd980 O988 2.381 . S
Cd980 O989 2.378 . S
O981 Cd982 2.385 . S
O981 C986 1.255 . S
Cd982 O981 2.385 . S
Cd982 O983 2.317 . S
O983 Cd982 2.317 . S
O983 C984 1.232 . S
C984 O983 1.232 . S
C984 O985 1.218 . S
O985 C984 1.218 . S
C986 O979 1.275 . S
C986 O981 1.255 . S
C987 O988 1.258 . S
C987 O989 1.256 . S
O988 Cd980 2.381 . S
O988 C987 1.258 . S
O989 Cd980 2.378 . S
O989 C987 1.256 . S
O990 Cd991 2.300 . S
O990 C997 1.275 . S
Cd991 O990 2.300 . S
Cd991 O999 2.381 . S
Cd991 O1000 2.378 . S
O992 Cd993 2.385 . S
O992 C997 1.255 . S
Cd993 O992 2.385 . S
Cd993 O994 2.317 . S
O994 Cd993 2.317 . S
O994 C995 1.232 . S
C995 O994 1.232 . S
C995 O996 1.218 . S
O996 C995 1.218 . S
C997 O990 1.275 . S
C997 O992 1.255 . S
C998 O999 1.258 . S
C998 O1000 1.256 . S
O999 Cd991 2.381 . S
O999 C998 1.258 . S
O1000 Cd991 2.378 . S
O1000 C998 1.256 . S
O1001 Cd1002 2.300 . S
O1001 C1008 1.275 . S
Cd1002 O1001 2.300 . S
Cd1002 O1010 2.381 . S
Cd1002 O1011 2.378 . S
O1003 Cd1004 2.385 . S
O1003 C1008 1.255 . S
Cd1004 O1003 2.385 . S
Cd1004 O1005 2.317 . S
O1005 Cd1004 2.317 . S
O1005 C1006 1.232 . S
C1006 O1005 1.232 . S
C1006 O1007 1.218 . S
O1007 C1006 1.218 . S
C1008 O1001 1.275 . S
C1008 O1003 1.255 . S
C1009 O1010 1.258 . S
C1009 O1011 1.256 . S
O1010 Cd1002 2.381 . S
O1010 C1009 1.258 . S
O1011 Cd1002 2.378 . S
O1011 C1009 1.256 . S
O1012 Cd1013 2.300 . S
O1012 C1019 1.275 . S
Cd1013 O1012 2.300 . S
Cd1013 O1021 2.381 . S
Cd1013 O1022 2.378 . S
O1014 Cd1015 2.385 . S
O1014 C1019 1.255 . S
Cd1015 O1014 2.385 . S
Cd1015 O1016 2.317 . S
O1016 Cd1015 2.317 . S
O1016 C1017 1.232 . S
C1017 O1016 1.232 . S
C1017 O1018 1.218 . S
O1018 C1017 1.218 . S
C1019 O1012 1.275 . S
C1019 O1014 1.255 . S
C1020 O1021 1.258 . S
C1020 O1022 1.256 . S
O1021 Cd1013 2.381 . S
O1021 C1020 1.258 . S
O1022 Cd1013 2.378 . S
O1022 C1020 1.256 . S
O1023 Cd1024 2.300 . S
O1023 C1030 1.275 . S
Cd1024 O1023 2.300 . S
Cd1024 O1032 2.381 . S
Cd1024 O1033 2.378 . S
O1025 Cd1026 2.385 . S
O1025 C1030 1.255 . S
Cd1026 O1025 2.385 . S
Cd1026 O1027 2.317 . S
O1027 Cd1026 2.317 . S
O1027 C1028 1.232 . S
C1028 O1027 1.232 . S
C1028 O1029 1.218 . S
O1029 C1028 1.218 . S
C1030 O1023 1.275 . S
C1030 O1025 1.255 . S
C1031 O1032 1.258 . S
C1031 O1033 1.256 . S
O1032 Cd1024 2.381 . S
O1032 C1031 1.258 . S
O1033 Cd1024 2.378 . S
O1033 C1031 1.256 . S
O1034 Cd1035 2.300 . S
O1034 C1041 1.275 . S
Cd1035 O1034 2.300 . S
Cd1035 O1043 2.381 . S
Cd1035 O1044 2.378 . S
O1036 Cd1037 2.385 . S
O1036 C1041 1.255 . S
Cd1037 O1036 2.385 . S
Cd1037 O1038 2.317 . S
O1038 Cd1037 2.317 . S
O1038 C1039 1.232 . S
C1039 O1038 1.232 . S
C1039 O1040 1.218 . S
O1040 C1039 1.218 . S
C1041 O1034 1.275 . S
C1041 O1036 1.255 . S
C1042 O1043 1.258 . S
C1042 O1044 1.256 . S
O1043 Cd1035 2.381 . S
O1043 C1042 1.258 . S
O1044 Cd1035 2.378 . S
O1044 C1042 1.256 . S
O1045 Cd1046 2.300 . S
O1045 C1052 1.275 . S
Cd1046 O1045 2.300 . S
Cd1046 O1054 2.381 . S
Cd1046 O1055 2.378 . S
O1047 Cd1048 2.385 . S
O1047 C1052 1.255 . S
Cd1048 O1047 2.385 . S
Cd1048 O1049 2.317 . S
O1049 Cd1048 2.317 . S
O1049 C1050 1.232 . S
C1050 O1049 1.232 . S
C1050 O1051 1.218 . S
O1051 C1050 1.218 . S
C1052 O1045 1.275 . S
C1052 O1047 1.255 . S
C1053 O1054 1.258 . S
C1053 O1055 1.256 . S
O1054 Cd1046 2.381 . S
O1054 C1053 1.258 . S
O1055 Cd1046 2.378 . S
O1055 C1053 1.256 . S
H1056 C1061 0.930 . S
H1057 C1064 0.930 . S
H1058 C1066 0.930 . S
H1059 C1060 1.016 . S
C1060 H1059 1.016 . S
C1060 N1067 1.286 . S
C1061 H1056 0.930 . S
C1061 C1062 1.397 . S
C1061 C1063 1.361 . S
C1062 C1061 1.397 . S
C1062 C1066 1.390 . S
C1063 C1061 1.361 . S
C1063 C1064 1.393 . S
C1063 N1067 1.413 . S
C1064 H1057 0.930 . S
C1064 C1063 1.393 . S
C1064 C1065 1.399 . S
C1065 C1064 1.399 . S
C1065 C1066 1.381 . S
C1066 H1058 0.930 . S
C1066 C1062 1.390 . S
C1066 C1065 1.381 . S
N1067 C1060 1.286 . S
N1067 C1063 1.413 . S
H1068 C1073 0.930 . S
H1069 C1076 0.930 . S
H1070 C1078 0.930 . S
H1071 C1072 1.016 . S
C1072 H1071 1.016 . S
C1072 N1079 1.286 . S
C1073 H1068 0.930 . S
C1073 C1074 1.397 . S
C1073 C1075 1.361 . S
C1074 C1073 1.397 . S
C1074 C1078 1.390 . S
C1075 C1073 1.361 . S
C1075 C1076 1.393 . S
C1075 N1079 1.413 . S
C1076 H1069 0.930 . S
C1076 C1075 1.393 . S
C1076 C1077 1.399 . S
C1077 C1076 1.399 . S
C1077 C1078 1.381 . S
C1078 H1070 0.930 . S
C1078 C1074 1.390 . S
C1078 C1077 1.381 . S
N1079 C1072 1.286 . S
N1079 C1075 1.413 . S
H1080 C1085 0.930 . S
H1081 C1088 0.930 . S
H1082 C1090 0.930 . S
H1083 C1084 1.016 . S
C1084 H1083 1.016 . S
C1084 N1091 1.286 . S
C1085 H1080 0.930 . S
C1085 C1086 1.397 . S
C1085 C1087 1.361 . S
C1086 C1085 1.397 . S
C1086 C1090 1.390 . S
C1087 C1085 1.361 . S
C1087 C1088 1.393 . S
C1087 N1091 1.413 . S
C1088 H1081 0.930 . S
C1088 C1087 1.393 . S
C1088 C1089 1.399 . S
C1089 C1088 1.399 . S
C1089 C1090 1.381 . S
C1090 H1082 0.930 . S
C1090 C1086 1.390 . S
C1090 C1089 1.381 . S
N1091 C1084 1.286 . S
N1091 C1087 1.413 . S
H1092 C1097 0.930 . S
H1093 C1100 0.930 . S
H1094 C1102 0.930 . S
H1095 C1096 1.016 . S
C1096 H1095 1.016 . S
C1096 N1103 1.286 . S
C1097 H1092 0.930 . S
C1097 C1098 1.397 . S
C1097 C1099 1.361 . S
C1098 C1097 1.397 . S
C1098 C1102 1.390 . S
C1099 C1097 1.361 . S
C1099 C1100 1.393 . S
C1099 N1103 1.413 . S
C1100 H1093 0.930 . S
C1100 C1099 1.393 . S
C1100 C1101 1.399 . S
C1101 C1100 1.399 . S
C1101 C1102 1.381 . S
C1102 H1094 0.930 . S
C1102 C1098 1.390 . S
C1102 C1101 1.381 . S
N1103 C1096 1.286 . S
N1103 C1099 1.413 . S
H1104 C1109 0.930 . S
H1105 C1112 0.930 . S
H1106 C1114 0.930 . S
H1107 C1108 1.016 . S
C1108 H1107 1.016 . S
C1108 N1115 1.286 . S
C1109 H1104 0.930 . S
C1109 C1110 1.397 . S
C1109 C1111 1.361 . S
C1110 C1109 1.397 . S
C1110 C1114 1.390 . S
C1111 C1109 1.361 . S
C1111 C1112 1.393 . S
C1111 N1115 1.413 . S
C1112 H1105 0.930 . S
C1112 C1111 1.393 . S
C1112 C1113 1.399 . S
C1113 C1112 1.399 . S
C1113 C1114 1.381 . S
C1114 H1106 0.930 . S
C1114 C1110 1.390 . S
C1114 C1113 1.381 . S
N1115 C1108 1.286 . S
N1115 C1111 1.413 . S
H1116 C1121 0.930 . S
H1117 C1124 0.930 . S
H1118 C1126 0.930 . S
H1119 C1120 1.016 . S
C1120 H1119 1.016 . S
C1120 N1127 1.286 . S
C1121 H1116 0.930 . S
C1121 C1122 1.397 . S
C1121 C1123 1.361 . S
C1122 C1121 1.397 . S
C1122 C1126 1.390 . S
C1123 C1121 1.361 . S
C1123 C1124 1.393 . S
C1123 N1127 1.413 . S
C1124 H1117 0.930 . S
C1124 C1123 1.393 . S
C1124 C1125 1.399 . S
C1125 C1124 1.399 . S
C1125 C1126 1.381 . S
C1126 H1118 0.930 . S
C1126 C1122 1.390 . S
C1126 C1125 1.381 . S
N1127 C1120 1.286 . S
N1127 C1123 1.413 . S
H1128 C1133 0.930 . S
H1129 C1136 0.930 . S
H1130 C1138 0.930 . S
H1131 C1132 1.016 . S
C1132 H1131 1.016 . S
C1132 N1139 1.286 . S
C1133 H1128 0.930 . S
C1133 C1134 1.397 . S
C1133 C1135 1.361 . S
C1134 C1133 1.397 . S
C1134 C1138 1.390 . S
C1135 C1133 1.361 . S
C1135 C1136 1.393 . S
C1135 N1139 1.413 . S
C1136 H1129 0.930 . S
C1136 C1135 1.393 . S
C1136 C1137 1.399 . S
C1137 C1136 1.399 . S
C1137 C1138 1.381 . S
C1138 H1130 0.930 . S
C1138 C1134 1.390 . S
C1138 C1137 1.381 . S
N1139 C1132 1.286 . S
N1139 C1135 1.413 . S
H1140 C1145 0.930 . S
H1141 C1148 0.930 . S
H1142 C1150 0.930 . S
H1143 C1144 1.016 . S
C1144 H1143 1.016 . S
C1144 N1151 1.286 . S
C1145 H1140 0.930 . S
C1145 C1146 1.397 . S
C1145 C1147 1.361 . S
C1146 C1145 1.397 . S
C1146 C1150 1.390 . S
C1147 C1145 1.361 . S
C1147 C1148 1.393 . S
C1147 N1151 1.413 . S
C1148 H1141 0.930 . S
C1148 C1147 1.393 . S
C1148 C1149 1.399 . S
C1149 C1148 1.399 . S
C1149 C1150 1.381 . S
C1150 H1142 0.930 . S
C1150 C1146 1.390 . S
C1150 C1149 1.381 . S
N1151 C1144 1.286 . S
N1151 C1147 1.413 . S
H1152 C1157 0.930 . S
H1153 C1160 0.930 . S
H1154 C1162 0.930 . S
H1155 C1156 1.016 . S
C1156 H1155 1.016 . S
C1156 N1163 1.286 . S
C1157 H1152 0.930 . S
C1157 C1158 1.397 . S
C1157 C1159 1.361 . S
C1158 C1157 1.397 . S
C1158 C1162 1.390 . S
C1159 C1157 1.361 . S
C1159 C1160 1.393 . S
C1159 N1163 1.413 . S
C1160 H1153 0.930 . S
C1160 C1159 1.393 . S
C1160 C1161 1.399 . S
C1161 C1160 1.399 . S
C1161 C1162 1.381 . S
C1162 H1154 0.930 . S
C1162 C1158 1.390 . S
C1162 C1161 1.381 . S
N1163 C1156 1.286 . S
N1163 C1159 1.413 . S
H1164 C1169 0.930 . S
H1165 C1172 0.930 . S
H1166 C1174 0.930 . S
H1167 C1168 1.016 . S
C1168 H1167 1.016 . S
C1168 N1175 1.286 . S
C1169 H1164 0.930 . S
C1169 C1170 1.397 . S
C1169 C1171 1.361 . S
C1170 C1169 1.397 . S
C1170 C1174 1.390 . S
C1171 C1169 1.361 . S
C1171 C1172 1.393 . S
C1171 N1175 1.413 . S
C1172 H1165 0.930 . S
C1172 C1171 1.393 . S
C1172 C1173 1.399 . S
C1173 C1172 1.399 . S
C1173 C1174 1.381 . S
C1174 H1166 0.930 . S
C1174 C1170 1.390 . S
C1174 C1173 1.381 . S
N1175 C1168 1.286 . S
N1175 C1171 1.413 . S
H1176 C1181 0.930 . S
H1177 C1184 0.930 . S
H1178 C1186 0.930 . S
H1179 C1180 1.016 . S
C1180 H1179 1.016 . S
C1180 N1187 1.286 . S
C1181 H1176 0.930 . S
C1181 C1182 1.397 . S
C1181 C1183 1.361 . S
C1182 C1181 1.397 . S
C1182 C1186 1.390 . S
C1183 C1181 1.361 . S
C1183 C1184 1.393 . S
C1183 N1187 1.413 . S
C1184 H1177 0.930 . S
C1184 C1183 1.393 . S
C1184 C1185 1.399 . S
C1185 C1184 1.399 . S
C1185 C1186 1.381 . S
C1186 H1178 0.930 . S
C1186 C1182 1.390 . S
C1186 C1185 1.381 . S
N1187 C1180 1.286 . S
N1187 C1183 1.413 . S
H1188 C1193 0.930 . S
H1189 C1196 0.930 . S
H1190 C1198 0.930 . S
H1191 C1192 1.016 . S
C1192 H1191 1.016 . S
C1192 N1199 1.286 . S
C1193 H1188 0.930 . S
C1193 C1194 1.397 . S
C1193 C1195 1.361 . S
C1194 C1193 1.397 . S
C1194 C1198 1.390 . S
C1195 C1193 1.361 . S
C1195 C1196 1.393 . S
C1195 N1199 1.413 . S
C1196 H1189 0.930 . S
C1196 C1195 1.393 . S
C1196 C1197 1.399 . S
C1197 C1196 1.399 . S
C1197 C1198 1.381 . S
C1198 H1190 0.930 . S
C1198 C1194 1.390 . S
C1198 C1197 1.381 . S
N1199 C1192 1.286 . S
N1199 C1195 1.413 . S
H1200 C1205 0.930 . S
H1201 C1208 0.930 . S
H1202 C1210 0.930 . S
H1203 C1204 1.016 . S
C1204 H1203 1.016 . S
C1204 N1211 1.286 . S
C1205 H1200 0.930 . S
C1205 C1206 1.397 . S
C1205 C1207 1.361 . S
C1206 C1205 1.397 . S
C1206 C1210 1.390 . S
C1207 C1205 1.361 . S
C1207 C1208 1.393 . S
C1207 N1211 1.413 . S
C1208 H1201 0.930 . S
C1208 C1207 1.393 . S
C1208 C1209 1.399 . S
C1209 C1208 1.399 . S
C1209 C1210 1.381 . S
C1210 H1202 0.930 . S
C1210 C1206 1.390 . S
C1210 C1209 1.381 . S
N1211 C1204 1.286 . S
N1211 C1207 1.413 . S
H1212 C1217 0.930 . S
H1213 C1220 0.930 . S
H1214 C1222 0.930 . S
H1215 C1216 1.016 . S
C1216 H1215 1.016 . S
C1216 N1223 1.286 . S
C1217 H1212 0.930 . S
C1217 C1218 1.397 . S
C1217 C1219 1.361 . S
C1218 C1217 1.397 . S
C1218 C1222 1.390 . S
C1219 C1217 1.361 . S
C1219 C1220 1.393 . S
C1219 N1223 1.413 . S
C1220 H1213 0.930 . S
C1220 C1219 1.393 . S
C1220 C1221 1.399 . S
C1221 C1220 1.399 . S
C1221 C1222 1.381 . S
C1222 H1214 0.930 . S
C1222 C1218 1.390 . S
C1222 C1221 1.381 . S
N1223 C1216 1.286 . S
N1223 C1219 1.413 . S
H1224 C1229 0.930 . S
H1225 C1232 0.930 . S
H1226 C1234 0.930 . S
H1227 C1228 1.016 . S
C1228 H1227 1.016 . S
C1228 N1235 1.286 . S
C1229 H1224 0.930 . S
C1229 C1230 1.397 . S
C1229 C1231 1.361 . S
C1230 C1229 1.397 . S
C1230 C1234 1.390 . S
C1231 C1229 1.361 . S
C1231 C1232 1.393 . S
C1231 N1235 1.413 . S
C1232 H1225 0.930 . S
C1232 C1231 1.393 . S
C1232 C1233 1.399 . S
C1233 C1232 1.399 . S
C1233 C1234 1.381 . S
C1234 H1226 0.930 . S
C1234 C1230 1.390 . S
C1234 C1233 1.381 . S
N1235 C1228 1.286 . S
N1235 C1231 1.413 . S
H1236 C1241 0.930 . S
H1237 C1244 0.930 . S
H1238 C1246 0.930 . S
H1239 C1240 1.016 . S
C1240 H1239 1.016 . S
C1240 N1247 1.286 . S
C1241 H1236 0.930 . S
C1241 C1242 1.397 . S
C1241 C1243 1.361 . S
C1242 C1241 1.397 . S
C1242 C1246 1.390 . S
C1243 C1241 1.361 . S
C1243 C1244 1.393 . S
C1243 N1247 1.413 . S
C1244 H1237 0.930 . S
C1244 C1243 1.393 . S
C1244 C1245 1.399 . S
C1245 C1244 1.399 . S
C1245 C1246 1.381 . S
C1246 H1238 0.930 . S
C1246 C1242 1.390 . S
C1246 C1245 1.381 . S
N1247 C1240 1.286 . S
N1247 C1243 1.413 . S
H1248 C1253 0.930 . S
H1249 C1256 0.930 . S
H1250 C1258 0.930 . S
H1251 C1252 1.016 . S
C1252 H1251 1.016 . S
C1252 N1259 1.286 . S
C1253 H1248 0.930 . S
C1253 C1254 1.397 . S
C1253 C1255 1.361 . S
C1254 C1253 1.397 . S
C1254 C1258 1.390 . S
C1255 C1253 1.361 . S
C1255 C1256 1.393 . S
C1255 N1259 1.413 . S
C1256 H1249 0.930 . S
C1256 C1255 1.393 . S
C1256 C1257 1.399 . S
C1257 C1256 1.399 . S
C1257 C1258 1.381 . S
C1258 H1250 0.930 . S
C1258 C1254 1.390 . S
C1258 C1257 1.381 . S
N1259 C1252 1.286 . S
N1259 C1255 1.413 . S
H1260 C1265 0.930 . S
H1261 C1268 0.930 . S
H1262 C1270 0.930 . S
H1263 C1264 1.016 . S
C1264 H1263 1.016 . S
C1264 N1271 1.286 . S
C1265 H1260 0.930 . S
C1265 C1266 1.397 . S
C1265 C1267 1.361 . S
C1266 C1265 1.397 . S
C1266 C1270 1.390 . S
C1267 C1265 1.361 . S
C1267 C1268 1.393 . S
C1267 N1271 1.413 . S
C1268 H1261 0.930 . S
C1268 C1267 1.393 . S
C1268 C1269 1.399 . S
C1269 C1268 1.399 . S
C1269 C1270 1.381 . S
C1270 H1262 0.930 . S
C1270 C1266 1.390 . S
C1270 C1269 1.381 . S
N1271 C1264 1.286 . S
N1271 C1267 1.413 . S
H1272 C1277 0.930 . S
H1273 C1280 0.930 . S
H1274 C1282 0.930 . S
H1275 C1276 1.016 . S
C1276 H1275 1.016 . S
C1276 N1283 1.286 . S
C1277 H1272 0.930 . S
C1277 C1278 1.397 . S
C1277 C1279 1.361 . S
C1278 C1277 1.397 . S
C1278 C1282 1.390 . S
C1279 C1277 1.361 . S
C1279 C1280 1.393 . S
C1279 N1283 1.413 . S
C1280 H1273 0.930 . S
C1280 C1279 1.393 . S
C1280 C1281 1.399 . S
C1281 C1280 1.399 . S
C1281 C1282 1.381 . S
C1282 H1274 0.930 . S
C1282 C1278 1.390 . S
C1282 C1281 1.381 . S
N1283 C1276 1.286 . S
N1283 C1279 1.413 . S
H1284 C1289 0.930 . S
H1285 C1292 0.930 . S
H1286 C1294 0.930 . S
H1287 C1288 1.016 . S
C1288 H1287 1.016 . S
C1288 N1295 1.286 . S
C1289 H1284 0.930 . S
C1289 C1290 1.397 . S
C1289 C1291 1.361 . S
C1290 C1289 1.397 . S
C1290 C1294 1.390 . S
C1291 C1289 1.361 . S
C1291 C1292 1.393 . S
C1291 N1295 1.413 . S
C1292 H1285 0.930 . S
C1292 C1291 1.393 . S
C1292 C1293 1.399 . S
C1293 C1292 1.399 . S
C1293 C1294 1.381 . S
C1294 H1286 0.930 . S
C1294 C1290 1.390 . S
C1294 C1293 1.381 . S
N1295 C1288 1.286 . S
N1295 C1291 1.413 . S
H1296 C1301 0.930 . S
H1297 C1304 0.930 . S
H1298 C1306 0.930 . S
H1299 C1300 1.016 . S
C1300 H1299 1.016 . S
C1300 N1307 1.286 . S
C1301 H1296 0.930 . S
C1301 C1302 1.397 . S
C1301 C1303 1.361 . S
C1302 C1301 1.397 . S
C1302 C1306 1.390 . S
C1303 C1301 1.361 . S
C1303 C1304 1.393 . S
C1303 N1307 1.413 . S
C1304 H1297 0.930 . S
C1304 C1303 1.393 . S
C1304 C1305 1.399 . S
C1305 C1304 1.399 . S
C1305 C1306 1.381 . S
C1306 H1298 0.930 . S
C1306 C1302 1.390 . S
C1306 C1305 1.381 . S
N1307 C1300 1.286 . S
N1307 C1303 1.413 . S
H1308 C1313 0.930 . S
H1309 C1316 0.930 . S
H1310 C1318 0.930 . S
H1311 C1312 1.016 . S
C1312 H1311 1.016 . S
C1312 N1319 1.286 . S
C1313 H1308 0.930 . S
C1313 C1314 1.397 . S
C1313 C1315 1.361 . S
C1314 C1313 1.397 . S
C1314 C1318 1.390 . S
C1315 C1313 1.361 . S
C1315 C1316 1.393 . S
C1315 N1319 1.413 . S
C1316 H1309 0.930 . S
C1316 C1315 1.393 . S
C1316 C1317 1.399 . S
C1317 C1316 1.399 . S
C1317 C1318 1.381 . S
C1318 H1310 0.930 . S
C1318 C1314 1.390 . S
C1318 C1317 1.381 . S
N1319 C1312 1.286 . S
N1319 C1315 1.413 . S
H1320 C1325 0.930 . S
H1321 C1328 0.930 . S
H1322 C1330 0.930 . S
H1323 C1324 1.016 . S
C1324 H1323 1.016 . S
C1324 N1331 1.286 . S
C1325 H1320 0.930 . S
C1325 C1326 1.397 . S
C1325 C1327 1.361 . S
C1326 C1325 1.397 . S
C1326 C1330 1.390 . S
C1327 C1325 1.361 . S
C1327 C1328 1.393 . S
C1327 N1331 1.413 . S
C1328 H1321 0.930 . S
C1328 C1327 1.393 . S
C1328 C1329 1.399 . S
C1329 C1328 1.399 . S
C1329 C1330 1.381 . S
C1330 H1322 0.930 . S
C1330 C1326 1.390 . S
C1330 C1329 1.381 . S
N1331 C1324 1.286 . S
N1331 C1327 1.413 . S
H1332 C1337 0.930 . S
H1333 C1340 0.930 . S
H1334 C1342 0.930 . S
H1335 C1336 1.016 . S
C1336 H1335 1.016 . S
C1336 N1343 1.286 . S
C1337 H1332 0.930 . S
C1337 C1338 1.397 . S
C1337 C1339 1.361 . S
C1338 C1337 1.397 . S
C1338 C1342 1.390 . S
C1339 C1337 1.361 . S
C1339 C1340 1.393 . S
C1339 N1343 1.413 . S
C1340 H1333 0.930 . S
C1340 C1339 1.393 . S
C1340 C1341 1.399 . S
C1341 C1340 1.399 . S
C1341 C1342 1.381 . S
C1342 H1334 0.930 . S
C1342 C1338 1.390 . S
C1342 C1341 1.381 . S
N1343 C1336 1.286 . S
N1343 C1339 1.413 . S
H1344 C1349 0.930 . S
H1345 C1352 0.930 . S
H1346 C1354 0.930 . S
H1347 C1348 1.016 . S
C1348 H1347 1.016 . S
C1348 N1355 1.286 . S
C1349 H1344 0.930 . S
C1349 C1350 1.397 . S
C1349 C1351 1.361 . S
C1350 C1349 1.397 . S
C1350 C1354 1.390 . S
C1351 C1349 1.361 . S
C1351 C1352 1.393 . S
C1351 N1355 1.413 . S
C1352 H1345 0.930 . S
C1352 C1351 1.393 . S
C1352 C1353 1.399 . S
C1353 C1352 1.399 . S
C1353 C1354 1.381 . S
C1354 H1346 0.930 . S
C1354 C1350 1.390 . S
C1354 C1353 1.381 . S
N1355 C1348 1.286 . S
N1355 C1351 1.413 . S
H1356 C1361 0.930 . S
H1357 C1364 0.930 . S
H1358 C1366 0.930 . S
H1359 C1360 1.016 . S
C1360 H1359 1.016 . S
C1360 N1367 1.286 . S
C1361 H1356 0.930 . S
C1361 C1362 1.397 . S
C1361 C1363 1.361 . S
C1362 C1361 1.397 . S
C1362 C1366 1.390 . S
C1363 C1361 1.361 . S
C1363 C1364 1.393 . S
C1363 N1367 1.413 . S
C1364 H1357 0.930 . S
C1364 C1363 1.393 . S
C1364 C1365 1.399 . S
C1365 C1364 1.399 . S
C1365 C1366 1.381 . S
C1366 H1358 0.930 . S
C1366 C1362 1.390 . S
C1366 C1365 1.381 . S
N1367 C1360 1.286 . S
N1367 C1363 1.413 . S
H1368 C1373 0.930 . S
H1369 C1376 0.930 . S
H1370 C1378 0.930 . S
H1371 C1372 1.016 . S
C1372 H1371 1.016 . S
C1372 N1379 1.286 . S
C1373 H1368 0.930 . S
C1373 C1374 1.397 . S
C1373 C1375 1.361 . S
C1374 C1373 1.397 . S
C1374 C1378 1.390 . S
C1375 C1373 1.361 . S
C1375 C1376 1.393 . S
C1375 N1379 1.413 . S
C1376 H1369 0.930 . S
C1376 C1375 1.393 . S
C1376 C1377 1.399 . S
C1377 C1376 1.399 . S
C1377 C1378 1.381 . S
C1378 H1370 0.930 . S
C1378 C1374 1.390 . S
C1378 C1377 1.381 . S
N1379 C1372 1.286 . S
N1379 C1375 1.413 . S
H1380 C1385 0.930 . S
H1381 C1388 0.930 . S
H1382 C1390 0.930 . S
H1383 C1384 1.016 . S
C1384 H1383 1.016 . S
C1384 N1391 1.286 . S
C1385 H1380 0.930 . S
C1385 C1386 1.397 . S
C1385 C1387 1.361 . S
C1386 C1385 1.397 . S
C1386 C1390 1.390 . S
C1387 C1385 1.361 . S
C1387 C1388 1.393 . S
C1387 N1391 1.413 . S
C1388 H1381 0.930 . S
C1388 C1387 1.393 . S
C1388 C1389 1.399 . S
C1389 C1388 1.399 . S
C1389 C1390 1.381 . S
C1390 H1382 0.930 . S
C1390 C1386 1.390 . S
C1390 C1389 1.381 . S
N1391 C1384 1.286 . S
N1391 C1387 1.413 . S
H1392 C1397 0.930 . S
H1393 C1400 0.930 . S
H1394 C1402 0.930 . S
H1395 C1396 1.016 . S
C1396 H1395 1.016 . S
C1396 N1403 1.286 . S
C1397 H1392 0.930 . S
C1397 C1398 1.397 . S
C1397 C1399 1.361 . S
C1398 C1397 1.397 . S
C1398 C1402 1.390 . S
C1399 C1397 1.361 . S
C1399 C1400 1.393 . S
C1399 N1403 1.413 . S
C1400 H1393 0.930 . S
C1400 C1399 1.393 . S
C1400 C1401 1.399 . S
C1401 C1400 1.399 . S
C1401 C1402 1.381 . S
C1402 H1394 0.930 . S
C1402 C1398 1.390 . S
C1402 C1401 1.381 . S
N1403 C1396 1.286 . S
N1403 C1399 1.413 . S
H1404 C1409 0.930 . S
H1405 C1412 0.930 . S
H1406 C1414 0.930 . S
H1407 C1408 1.016 . S
C1408 H1407 1.016 . S
C1408 N1415 1.286 . S
C1409 H1404 0.930 . S
C1409 C1410 1.397 . S
C1409 C1411 1.361 . S
C1410 C1409 1.397 . S
C1410 C1414 1.390 . S
C1411 C1409 1.361 . S
C1411 C1412 1.393 . S
C1411 N1415 1.413 . S
C1412 H1405 0.930 . S
C1412 C1411 1.393 . S
C1412 C1413 1.399 . S
C1413 C1412 1.399 . S
C1413 C1414 1.381 . S
C1414 H1406 0.930 . S
C1414 C1410 1.390 . S
C1414 C1413 1.381 . S
N1415 C1408 1.286 . S
N1415 C1411 1.413 . S
H1416 C1421 0.930 . S
H1417 C1424 0.930 . S
H1418 C1426 0.930 . S
H1419 C1420 1.016 . S
C1420 H1419 1.016 . S
C1420 N1427 1.286 . S
C1421 H1416 0.930 . S
C1421 C1422 1.397 . S
C1421 C1423 1.361 . S
C1422 C1421 1.397 . S
C1422 C1426 1.390 . S
C1423 C1421 1.361 . S
C1423 C1424 1.393 . S
C1423 N1427 1.413 . S
C1424 H1417 0.930 . S
C1424 C1423 1.393 . S
C1424 C1425 1.399 . S
C1425 C1424 1.399 . S
C1425 C1426 1.381 . S
C1426 H1418 0.930 . S
C1426 C1422 1.390 . S
C1426 C1425 1.381 . S
N1427 C1420 1.286 . S
N1427 C1423 1.413 . S
H1428 C1433 0.930 . S
H1429 C1436 0.930 . S
H1430 C1438 0.930 . S
H1431 C1432 1.016 . S
C1432 H1431 1.016 . S
C1432 N1439 1.286 . S
C1433 H1428 0.930 . S
C1433 C1434 1.397 . S
C1433 C1435 1.361 . S
C1434 C1433 1.397 . S
C1434 C1438 1.390 . S
C1435 C1433 1.361 . S
C1435 C1436 1.393 . S
C1435 N1439 1.413 . S
C1436 H1429 0.930 . S
C1436 C1435 1.393 . S
C1436 C1437 1.399 . S
C1437 C1436 1.399 . S
C1437 C1438 1.381 . S
C1438 H1430 0.930 . S
C1438 C1434 1.390 . S
C1438 C1437 1.381 . S
N1439 C1432 1.286 . S
N1439 C1435 1.413 . S
H1440 C1445 0.930 . S
H1441 C1448 0.930 . S
H1442 C1450 0.930 . S
H1443 C1444 1.016 . S
C1444 H1443 1.016 . S
C1444 N1451 1.286 . S
C1445 H1440 0.930 . S
C1445 C1446 1.397 . S
C1445 C1447 1.361 . S
C1446 C1445 1.397 . S
C1446 C1450 1.390 . S
C1447 C1445 1.361 . S
C1447 C1448 1.393 . S
C1447 N1451 1.413 . S
C1448 H1441 0.930 . S
C1448 C1447 1.393 . S
C1448 C1449 1.399 . S
C1449 C1448 1.399 . S
C1449 C1450 1.381 . S
C1450 H1442 0.930 . S
C1450 C1446 1.390 . S
C1450 C1449 1.381 . S
N1451 C1444 1.286 . S
N1451 C1447 1.413 . S
H1452 C1457 0.930 . S
H1453 C1460 0.930 . S
H1454 C1462 0.930 . S
H1455 C1456 1.016 . S
C1456 H1455 1.016 . S
C1456 N1463 1.286 . S
C1457 H1452 0.930 . S
C1457 C1458 1.397 . S
C1457 C1459 1.361 . S
C1458 C1457 1.397 . S
C1458 C1462 1.390 . S
C1459 C1457 1.361 . S
C1459 C1460 1.393 . S
C1459 N1463 1.413 . S
C1460 H1453 0.930 . S
C1460 C1459 1.393 . S
C1460 C1461 1.399 . S
C1461 C1460 1.399 . S
C1461 C1462 1.381 . S
C1462 H1454 0.930 . S
C1462 C1458 1.390 . S
C1462 C1461 1.381 . S
N1463 C1456 1.286 . S
N1463 C1459 1.413 . S
H1464 C1469 0.930 . S
H1465 C1472 0.930 . S
H1466 C1474 0.930 . S
H1467 C1468 1.016 . S
C1468 H1467 1.016 . S
C1468 N1475 1.286 . S
C1469 H1464 0.930 . S
C1469 C1470 1.397 . S
C1469 C1471 1.361 . S
C1470 C1469 1.397 . S
C1470 C1474 1.390 . S
C1471 C1469 1.361 . S
C1471 C1472 1.393 . S
C1471 N1475 1.413 . S
C1472 H1465 0.930 . S
C1472 C1471 1.393 . S
C1472 C1473 1.399 . S
C1473 C1472 1.399 . S
C1473 C1474 1.381 . S
C1474 H1466 0.930 . S
C1474 C1470 1.390 . S
C1474 C1473 1.381 . S
N1475 C1468 1.286 . S
N1475 C1471 1.413 . S
H1476 C1481 0.930 . S
H1477 C1484 0.930 . S
H1478 C1486 0.930 . S
H1479 C1480 1.016 . S
C1480 H1479 1.016 . S
C1480 N1487 1.286 . S
C1481 H1476 0.930 . S
C1481 C1482 1.397 . S
C1481 C1483 1.361 . S
C1482 C1481 1.397 . S
C1482 C1486 1.390 . S
C1483 C1481 1.361 . S
C1483 C1484 1.393 . S
C1483 N1487 1.413 . S
C1484 H1477 0.930 . S
C1484 C1483 1.393 . S
C1484 C1485 1.399 . S
C1485 C1484 1.399 . S
C1485 C1486 1.381 . S
C1486 H1478 0.930 . S
C1486 C1482 1.390 . S
C1486 C1485 1.381 . S
N1487 C1480 1.286 . S
N1487 C1483 1.413 . S
H1488 C1493 0.930 . S
H1489 C1496 0.930 . S
H1490 C1498 0.930 . S
H1491 C1492 1.016 . S
C1492 H1491 1.016 . S
C1492 N1499 1.286 . S
C1493 H1488 0.930 . S
C1493 C1494 1.397 . S
C1493 C1495 1.361 . S
C1494 C1493 1.397 . S
C1494 C1498 1.390 . S
C1495 C1493 1.361 . S
C1495 C1496 1.393 . S
C1495 N1499 1.413 . S
C1496 H1489 0.930 . S
C1496 C1495 1.393 . S
C1496 C1497 1.399 . S
C1497 C1496 1.399 . S
C1497 C1498 1.381 . S
C1498 H1490 0.930 . S
C1498 C1494 1.390 . S
C1498 C1497 1.381 . S
N1499 C1492 1.286 . S
N1499 C1495 1.413 . S
H1500 C1505 0.930 . S
H1501 C1508 0.930 . S
H1502 C1510 0.930 . S
H1503 C1504 1.016 . S
C1504 H1503 1.016 . S
C1504 N1511 1.286 . S
C1505 H1500 0.930 . S
C1505 C1506 1.397 . S
C1505 C1507 1.361 . S
C1506 C1505 1.397 . S
C1506 C1510 1.390 . S
C1507 C1505 1.361 . S
C1507 C1508 1.393 . S
C1507 N1511 1.413 . S
C1508 H1501 0.930 . S
C1508 C1507 1.393 . S
C1508 C1509 1.399 . S
C1509 C1508 1.399 . S
C1509 C1510 1.381 . S
C1510 H1502 0.930 . S
C1510 C1506 1.390 . S
C1510 C1509 1.381 . S
N1511 C1504 1.286 . S
N1511 C1507 1.413 . S
H1512 C1517 0.930 . S
H1513 C1520 0.930 . S
H1514 C1522 0.930 . S
H1515 C1516 1.016 . S
C1516 H1515 1.016 . S
C1516 N1523 1.286 . S
C1517 H1512 0.930 . S
C1517 C1518 1.397 . S
C1517 C1519 1.361 . S
C1518 C1517 1.397 . S
C1518 C1522 1.390 . S
C1519 C1517 1.361 . S
C1519 C1520 1.393 . S
C1519 N1523 1.413 . S
C1520 H1513 0.930 . S
C1520 C1519 1.393 . S
C1520 C1521 1.399 . S
C1521 C1520 1.399 . S
C1521 C1522 1.381 . S
C1522 H1514 0.930 . S
C1522 C1518 1.390 . S
C1522 C1521 1.381 . S
N1523 C1516 1.286 . S
N1523 C1519 1.413 . S
H1524 C1529 0.930 . S
H1525 C1532 0.930 . S
H1526 C1534 0.930 . S
H1527 C1528 1.016 . S
C1528 H1527 1.016 . S
C1528 N1535 1.286 . S
C1529 H1524 0.930 . S
C1529 C1530 1.397 . S
C1529 C1531 1.361 . S
C1530 C1529 1.397 . S
C1530 C1534 1.390 . S
C1531 C1529 1.361 . S
C1531 C1532 1.393 . S
C1531 N1535 1.413 . S
C1532 H1525 0.930 . S
C1532 C1531 1.393 . S
C1532 C1533 1.399 . S
C1533 C1532 1.399 . S
C1533 C1534 1.381 . S
C1534 H1526 0.930 . S
C1534 C1530 1.390 . S
C1534 C1533 1.381 . S
N1535 C1528 1.286 . S
N1535 C1531 1.413 . S
H1536 C1541 0.930 . S
H1537 C1544 0.930 . S
H1538 C1546 0.930 . S
H1539 C1540 1.016 . S
C1540 H1539 1.016 . S
C1540 N1547 1.286 . S
C1541 H1536 0.930 . S
C1541 C1542 1.397 . S
C1541 C1543 1.361 . S
C1542 C1541 1.397 . S
C1542 C1546 1.390 . S
C1543 C1541 1.361 . S
C1543 C1544 1.393 . S
C1543 N1547 1.413 . S
C1544 H1537 0.930 . S
C1544 C1543 1.393 . S
C1544 C1545 1.399 . S
C1545 C1544 1.399 . S
C1545 C1546 1.381 . S
C1546 H1538 0.930 . S
C1546 C1542 1.390 . S
C1546 C1545 1.381 . S
N1547 C1540 1.286 . S
N1547 C1543 1.413 . S
H1548 C1553 0.930 . S
H1549 C1556 0.930 . S
H1550 C1558 0.930 . S
H1551 C1552 1.016 . S
C1552 H1551 1.016 . S
C1552 N1559 1.286 . S
C1553 H1548 0.930 . S
C1553 C1554 1.397 . S
C1553 C1555 1.361 . S
C1554 C1553 1.397 . S
C1554 C1558 1.390 . S
C1555 C1553 1.361 . S
C1555 C1556 1.393 . S
C1555 N1559 1.413 . S
C1556 H1549 0.930 . S
C1556 C1555 1.393 . S
C1556 C1557 1.399 . S
C1557 C1556 1.399 . S
C1557 C1558 1.381 . S
C1558 H1550 0.930 . S
C1558 C1554 1.390 . S
C1558 C1557 1.381 . S
N1559 C1552 1.286 . S
N1559 C1555 1.413 . S
H1560 C1565 0.930 . S
H1561 C1568 0.930 . S
H1562 C1570 0.930 . S
H1563 C1564 1.016 . S
C1564 H1563 1.016 . S
C1564 N1571 1.286 . S
C1565 H1560 0.930 . S
C1565 C1566 1.397 . S
C1565 C1567 1.361 . S
C1566 C1565 1.397 . S
C1566 C1570 1.390 . S
C1567 C1565 1.361 . S
C1567 C1568 1.393 . S
C1567 N1571 1.413 . S
C1568 H1561 0.930 . S
C1568 C1567 1.393 . S
C1568 C1569 1.399 . S
C1569 C1568 1.399 . S
C1569 C1570 1.381 . S
C1570 H1562 0.930 . S
C1570 C1566 1.390 . S
C1570 C1569 1.381 . S
N1571 C1564 1.286 . S
N1571 C1567 1.413 . S
H1572 C1577 0.930 . S
H1573 C1580 0.930 . S
H1574 C1582 0.930 . S
H1575 C1576 1.016 . S
C1576 H1575 1.016 . S
C1576 N1583 1.286 . S
C1577 H1572 0.930 . S
C1577 C1578 1.397 . S
C1577 C1579 1.361 . S
C1578 C1577 1.397 . S
C1578 C1582 1.390 . S
C1579 C1577 1.361 . S
C1579 C1580 1.393 . S
C1579 N1583 1.413 . S
C1580 H1573 0.930 . S
C1580 C1579 1.393 . S
C1580 C1581 1.399 . S
C1581 C1580 1.399 . S
C1581 C1582 1.381 . S
C1582 H1574 0.930 . S
C1582 C1578 1.390 . S
C1582 C1581 1.381 . S
N1583 C1576 1.286 . S
N1583 C1579 1.413 . S
H1584 C1589 0.930 . S
H1585 C1592 0.930 . S
H1586 C1594 0.930 . S
H1587 C1588 1.016 . S
C1588 H1587 1.016 . S
C1588 N1595 1.286 . S
C1589 H1584 0.930 . S
C1589 C1590 1.397 . S
C1589 C1591 1.361 . S
C1590 C1589 1.397 . S
C1590 C1594 1.390 . S
C1591 C1589 1.361 . S
C1591 C1592 1.393 . S
C1591 N1595 1.413 . S
C1592 H1585 0.930 . S
C1592 C1591 1.393 . S
C1592 C1593 1.399 . S
C1593 C1592 1.399 . S
C1593 C1594 1.381 . S
C1594 H1586 0.930 . S
C1594 C1590 1.390 . S
C1594 C1593 1.381 . S
N1595 C1588 1.286 . S
N1595 C1591 1.413 . S
H1596 C1601 0.930 . S
H1597 C1604 0.930 . S
H1598 C1606 0.930 . S
H1599 C1600 1.016 . S
C1600 H1599 1.016 . S
C1600 N1607 1.286 . S
C1601 H1596 0.930 . S
C1601 C1602 1.397 . S
C1601 C1603 1.361 . S
C1602 C1601 1.397 . S
C1602 C1606 1.390 . S
C1603 C1601 1.361 . S
C1603 C1604 1.393 . S
C1603 N1607 1.413 . S
C1604 H1597 0.930 . S
C1604 C1603 1.393 . S
C1604 C1605 1.399 . S
C1605 C1604 1.399 . S
C1605 C1606 1.381 . S
C1606 H1598 0.930 . S
C1606 C1602 1.390 . S
C1606 C1605 1.381 . S
N1607 C1600 1.286 . S
N1607 C1603 1.413 . S
H1608 C1613 0.930 . S
H1609 C1616 0.930 . S
H1610 C1618 0.930 . S
H1611 C1612 1.016 . S
C1612 H1611 1.016 . S
C1612 N1619 1.286 . S
C1613 H1608 0.930 . S
C1613 C1614 1.397 . S
C1613 C1615 1.361 . S
C1614 C1613 1.397 . S
C1614 C1618 1.390 . S
C1615 C1613 1.361 . S
C1615 C1616 1.393 . S
C1615 N1619 1.413 . S
C1616 H1609 0.930 . S
C1616 C1615 1.393 . S
C1616 C1617 1.399 . S
C1617 C1616 1.399 . S
C1617 C1618 1.381 . S
C1618 H1610 0.930 . S
C1618 C1614 1.390 . S
C1618 C1617 1.381 . S
N1619 C1612 1.286 . S
N1619 C1615 1.413 . S
H1620 C1625 0.930 . S
H1621 C1628 0.930 . S
H1622 C1630 0.930 . S
H1623 C1624 1.016 . S
C1624 H1623 1.016 . S
C1624 N1631 1.286 . S
C1625 H1620 0.930 . S
C1625 C1626 1.397 . S
C1625 C1627 1.361 . S
C1626 C1625 1.397 . S
C1626 C1630 1.390 . S
C1627 C1625 1.361 . S
C1627 C1628 1.393 . S
C1627 N1631 1.413 . S
C1628 H1621 0.930 . S
C1628 C1627 1.393 . S
C1628 C1629 1.399 . S
C1629 C1628 1.399 . S
C1629 C1630 1.381 . S
C1630 H1622 0.930 . S
C1630 C1626 1.390 . S
C1630 C1629 1.381 . S
N1631 C1624 1.286 . S
N1631 C1627 1.413 . S
H1632 C1637 0.930 . S
H1633 C1640 0.930 . S
H1634 C1642 0.930 . S
H1635 C1636 1.016 . S
C1636 H1635 1.016 . S
C1636 N1643 1.286 . S
C1637 H1632 0.930 . S
C1637 C1638 1.397 . S
C1637 C1639 1.361 . S
C1638 C1637 1.397 . S
C1638 C1642 1.390 . S
C1639 C1637 1.361 . S
C1639 C1640 1.393 . S
C1639 N1643 1.413 . S
C1640 H1633 0.930 . S
C1640 C1639 1.393 . S
C1640 C1641 1.399 . S
C1641 C1640 1.399 . S
C1641 C1642 1.381 . S
C1642 H1634 0.930 . S
C1642 C1638 1.390 . S
C1642 C1641 1.381 . S
N1643 C1636 1.286 . S
N1643 C1639 1.413 . S
H1644 C1649 0.930 . S
H1645 C1652 0.930 . S
H1646 C1654 0.930 . S
H1647 C1648 1.016 . S
C1648 H1647 1.016 . S
C1648 N1655 1.286 . S
C1649 H1644 0.930 . S
C1649 C1650 1.397 . S
C1649 C1651 1.361 . S
C1650 C1649 1.397 . S
C1650 C1654 1.390 . S
C1651 C1649 1.361 . S
C1651 C1652 1.393 . S
C1651 N1655 1.413 . S
C1652 H1645 0.930 . S
C1652 C1651 1.393 . S
C1652 C1653 1.399 . S
C1653 C1652 1.399 . S
C1653 C1654 1.381 . S
C1654 H1646 0.930 . S
C1654 C1650 1.390 . S
C1654 C1653 1.381 . S
N1655 C1648 1.286 . S
N1655 C1651 1.413 . S
H1656 C1661 0.930 . S
H1657 C1664 0.930 . S
H1658 C1666 0.930 . S
H1659 C1660 1.016 . S
C1660 H1659 1.016 . S
C1660 N1667 1.286 . S
C1661 H1656 0.930 . S
C1661 C1662 1.397 . S
C1661 C1663 1.361 . S
C1662 C1661 1.397 . S
C1662 C1666 1.390 . S
C1663 C1661 1.361 . S
C1663 C1664 1.393 . S
C1663 N1667 1.413 . S
C1664 H1657 0.930 . S
C1664 C1663 1.393 . S
C1664 C1665 1.399 . S
C1665 C1664 1.399 . S
C1665 C1666 1.381 . S
C1666 H1658 0.930 . S
C1666 C1662 1.390 . S
C1666 C1665 1.381 . S
N1667 C1660 1.286 . S
N1667 C1663 1.413 . S
H1668 C1673 0.930 . S
H1669 C1676 0.930 . S
H1670 C1678 0.930 . S
H1671 C1672 1.016 . S
C1672 H1671 1.016 . S
C1672 N1679 1.286 . S
C1673 H1668 0.930 . S
C1673 C1674 1.397 . S
C1673 C1675 1.361 . S
C1674 C1673 1.397 . S
C1674 C1678 1.390 . S
C1675 C1673 1.361 . S
C1675 C1676 1.393 . S
C1675 N1679 1.413 . S
C1676 H1669 0.930 . S
C1676 C1675 1.393 . S
C1676 C1677 1.399 . S
C1677 C1676 1.399 . S
C1677 C1678 1.381 . S
C1678 H1670 0.930 . S
C1678 C1674 1.390 . S
C1678 C1677 1.381 . S
N1679 C1672 1.286 . S
N1679 C1675 1.413 . S
H1680 C1685 0.930 . S
H1681 C1688 0.930 . S
H1682 C1690 0.930 . S
H1683 C1684 1.016 . S
C1684 H1683 1.016 . S
C1684 N1691 1.286 . S
C1685 H1680 0.930 . S
C1685 C1686 1.397 . S
C1685 C1687 1.361 . S
C1686 C1685 1.397 . S
C1686 C1690 1.390 . S
C1687 C1685 1.361 . S
C1687 C1688 1.393 . S
C1687 N1691 1.413 . S
C1688 H1681 0.930 . S
C1688 C1687 1.393 . S
C1688 C1689 1.399 . S
C1689 C1688 1.399 . S
C1689 C1690 1.381 . S
C1690 H1682 0.930 . S
C1690 C1686 1.390 . S
C1690 C1689 1.381 . S
N1691 C1684 1.286 . S
N1691 C1687 1.413 . S
H1692 C1697 0.930 . S
H1693 C1700 0.930 . S
H1694 C1702 0.930 . S
H1695 C1696 1.016 . S
C1696 H1695 1.016 . S
C1696 N1703 1.286 . S
C1697 H1692 0.930 . S
C1697 C1698 1.397 . S
C1697 C1699 1.361 . S
C1698 C1697 1.397 . S
C1698 C1702 1.390 . S
C1699 C1697 1.361 . S
C1699 C1700 1.393 . S
C1699 N1703 1.413 . S
C1700 H1693 0.930 . S
C1700 C1699 1.393 . S
C1700 C1701 1.399 . S
C1701 C1700 1.399 . S
C1701 C1702 1.381 . S
C1702 H1694 0.930 . S
C1702 C1698 1.390 . S
C1702 C1701 1.381 . S
N1703 C1696 1.286 . S
N1703 C1699 1.413 . S
H1704 C1709 0.930 . S
H1705 C1712 0.930 . S
H1706 C1714 0.930 . S
H1707 C1708 1.016 . S
C1708 H1707 1.016 . S
C1708 N1715 1.286 . S
C1709 H1704 0.930 . S
C1709 C1710 1.397 . S
C1709 C1711 1.361 . S
C1710 C1709 1.397 . S
C1710 C1714 1.390 . S
C1711 C1709 1.361 . S
C1711 C1712 1.393 . S
C1711 N1715 1.413 . S
C1712 H1705 0.930 . S
C1712 C1711 1.393 . S
C1712 C1713 1.399 . S
C1713 C1712 1.399 . S
C1713 C1714 1.381 . S
C1714 H1706 0.930 . S
C1714 C1710 1.390 . S
C1714 C1713 1.381 . S
N1715 C1708 1.286 . S
N1715 C1711 1.413 . S
H1716 C1721 0.930 . S
H1717 C1724 0.930 . S
H1718 C1726 0.930 . S
H1719 C1720 1.016 . S
C1720 H1719 1.016 . S
C1720 N1727 1.286 . S
C1721 H1716 0.930 . S
C1721 C1722 1.397 . S
C1721 C1723 1.361 . S
C1722 C1721 1.397 . S
C1722 C1726 1.390 . S
C1723 C1721 1.361 . S
C1723 C1724 1.393 . S
C1723 N1727 1.413 . S
C1724 H1717 0.930 . S
C1724 C1723 1.393 . S
C1724 C1725 1.399 . S
C1725 C1724 1.399 . S
C1725 C1726 1.381 . S
C1726 H1718 0.930 . S
C1726 C1722 1.390 . S
C1726 C1725 1.381 . S
N1727 C1720 1.286 . S
N1727 C1723 1.413 . S
H1728 C1733 0.930 . S
H1729 C1736 0.930 . S
H1730 C1738 0.930 . S
H1731 C1732 1.016 . S
C1732 H1731 1.016 . S
C1732 N1739 1.286 . S
C1733 H1728 0.930 . S
C1733 C1734 1.397 . S
C1733 C1735 1.361 . S
C1734 C1733 1.397 . S
C1734 C1738 1.390 . S
C1735 C1733 1.361 . S
C1735 C1736 1.393 . S
C1735 N1739 1.413 . S
C1736 H1729 0.930 . S
C1736 C1735 1.393 . S
C1736 C1737 1.399 . S
C1737 C1736 1.399 . S
C1737 C1738 1.381 . S
C1738 H1730 0.930 . S
C1738 C1734 1.390 . S
C1738 C1737 1.381 . S
N1739 C1732 1.286 . S
N1739 C1735 1.413 . S
H1740 C1745 0.930 . S
H1741 C1748 0.930 . S
H1742 C1750 0.930 . S
H1743 C1744 1.016 . S
C1744 H1743 1.016 . S
C1744 N1751 1.286 . S
C1745 H1740 0.930 . S
C1745 C1746 1.397 . S
C1745 C1747 1.361 . S
C1746 C1745 1.397 . S
C1746 C1750 1.390 . S
C1747 C1745 1.361 . S
C1747 C1748 1.393 . S
C1747 N1751 1.413 . S
C1748 H1741 0.930 . S
C1748 C1747 1.393 . S
C1748 C1749 1.399 . S
C1749 C1748 1.399 . S
C1749 C1750 1.381 . S
C1750 H1742 0.930 . S
C1750 C1746 1.390 . S
C1750 C1749 1.381 . S
N1751 C1744 1.286 . S
N1751 C1747 1.413 . S
H1752 C1757 0.930 . S
H1753 C1760 0.930 . S
H1754 C1762 0.930 . S
H1755 C1756 1.016 . S
C1756 H1755 1.016 . S
C1756 N1763 1.286 . S
C1757 H1752 0.930 . S
C1757 C1758 1.397 . S
C1757 C1759 1.361 . S
C1758 C1757 1.397 . S
C1758 C1762 1.390 . S
C1759 C1757 1.361 . S
C1759 C1760 1.393 . S
C1759 N1763 1.413 . S
C1760 H1753 0.930 . S
C1760 C1759 1.393 . S
C1760 C1761 1.399 . S
C1761 C1760 1.399 . S
C1761 C1762 1.381 . S
C1762 H1754 0.930 . S
C1762 C1758 1.390 . S
C1762 C1761 1.381 . S
N1763 C1756 1.286 . S
N1763 C1759 1.413 . S
H1764 C1769 0.930 . S
H1765 C1772 0.930 . S
H1766 C1774 0.930 . S
H1767 C1768 1.016 . S
C1768 H1767 1.016 . S
C1768 N1775 1.286 . S
C1769 H1764 0.930 . S
C1769 C1770 1.397 . S
C1769 C1771 1.361 . S
C1770 C1769 1.397 . S
C1770 C1774 1.390 . S
C1771 C1769 1.361 . S
C1771 C1772 1.393 . S
C1771 N1775 1.413 . S
C1772 H1765 0.930 . S
C1772 C1771 1.393 . S
C1772 C1773 1.399 . S
C1773 C1772 1.399 . S
C1773 C1774 1.381 . S
C1774 H1766 0.930 . S
C1774 C1770 1.390 . S
C1774 C1773 1.381 . S
N1775 C1768 1.286 . S
N1775 C1771 1.413 . S
H1776 C1781 0.930 . S
H1777 C1784 0.930 . S
H1778 C1786 0.930 . S
H1779 C1780 1.016 . S
C1780 H1779 1.016 . S
C1780 N1787 1.286 . S
C1781 H1776 0.930 . S
C1781 C1782 1.397 . S
C1781 C1783 1.361 . S
C1782 C1781 1.397 . S
C1782 C1786 1.390 . S
C1783 C1781 1.361 . S
C1783 C1784 1.393 . S
C1783 N1787 1.413 . S
C1784 H1777 0.930 . S
C1784 C1783 1.393 . S
C1784 C1785 1.399 . S
C1785 C1784 1.399 . S
C1785 C1786 1.381 . S
C1786 H1778 0.930 . S
C1786 C1782 1.390 . S
C1786 C1785 1.381 . S
N1787 C1780 1.286 . S
N1787 C1783 1.413 . S
H1788 C1793 0.930 . S
H1789 C1796 0.930 . S
H1790 C1798 0.930 . S
H1791 C1792 1.016 . S
C1792 H1791 1.016 . S
C1792 N1799 1.286 . S
C1793 H1788 0.930 . S
C1793 C1794 1.397 . S
C1793 C1795 1.361 . S
C1794 C1793 1.397 . S
C1794 C1798 1.390 . S
C1795 C1793 1.361 . S
C1795 C1796 1.393 . S
C1795 N1799 1.413 . S
C1796 H1789 0.930 . S
C1796 C1795 1.393 . S
C1796 C1797 1.399 . S
C1797 C1796 1.399 . S
C1797 C1798 1.381 . S
C1798 H1790 0.930 . S
C1798 C1794 1.390 . S
C1798 C1797 1.381 . S
N1799 C1792 1.286 . S
N1799 C1795 1.413 . S
H1800 C1805 0.930 . S
H1801 C1808 0.930 . S
H1802 C1810 0.930 . S
H1803 C1804 1.016 . S
C1804 H1803 1.016 . S
C1804 N1811 1.286 . S
C1805 H1800 0.930 . S
C1805 C1806 1.397 . S
C1805 C1807 1.361 . S
C1806 C1805 1.397 . S
C1806 C1810 1.390 . S
C1807 C1805 1.361 . S
C1807 C1808 1.393 . S
C1807 N1811 1.413 . S
C1808 H1801 0.930 . S
C1808 C1807 1.393 . S
C1808 C1809 1.399 . S
C1809 C1808 1.399 . S
C1809 C1810 1.381 . S
C1810 H1802 0.930 . S
C1810 C1806 1.390 . S
C1810 C1809 1.381 . S
N1811 C1804 1.286 . S
N1811 C1807 1.413 . S
H1812 C1817 0.930 . S
H1813 C1820 0.930 . S
H1814 C1822 0.930 . S
H1815 C1816 1.016 . S
C1816 H1815 1.016 . S
C1816 N1823 1.286 . S
C1817 H1812 0.930 . S
C1817 C1818 1.397 . S
C1817 C1819 1.361 . S
C1818 C1817 1.397 . S
C1818 C1822 1.390 . S
C1819 C1817 1.361 . S
C1819 C1820 1.393 . S
C1819 N1823 1.413 . S
C1820 H1813 0.930 . S
C1820 C1819 1.393 . S
C1820 C1821 1.399 . S
C1821 C1820 1.399 . S
C1821 C1822 1.381 . S
C1822 H1814 0.930 . S
C1822 C1818 1.390 . S
C1822 C1821 1.381 . S
N1823 C1816 1.286 . S
N1823 C1819 1.413 . S
H1824 C1829 0.930 . S
H1825 C1832 0.930 . S
H1826 C1834 0.930 . S
H1827 C1828 1.016 . S
C1828 H1827 1.016 . S
C1828 N1835 1.286 . S
C1829 H1824 0.930 . S
C1829 C1830 1.397 . S
C1829 C1831 1.361 . S
C1830 C1829 1.397 . S
C1830 C1834 1.390 . S
C1831 C1829 1.361 . S
C1831 C1832 1.393 . S
C1831 N1835 1.413 . S
C1832 H1825 0.930 . S
C1832 C1831 1.393 . S
C1832 C1833 1.399 . S
C1833 C1832 1.399 . S
C1833 C1834 1.381 . S
C1834 H1826 0.930 . S
C1834 C1830 1.390 . S
C1834 C1833 1.381 . S
N1835 C1828 1.286 . S
N1835 C1831 1.413 . S
H1836 C1841 0.930 . S
H1837 C1844 0.930 . S
H1838 C1846 0.930 . S
H1839 C1840 1.016 . S
C1840 H1839 1.016 . S
C1840 N1847 1.286 . S
C1841 H1836 0.930 . S
C1841 C1842 1.397 . S
C1841 C1843 1.361 . S
C1842 C1841 1.397 . S
C1842 C1846 1.390 . S
C1843 C1841 1.361 . S
C1843 C1844 1.393 . S
C1843 N1847 1.413 . S
C1844 H1837 0.930 . S
C1844 C1843 1.393 . S
C1844 C1845 1.399 . S
C1845 C1844 1.399 . S
C1845 C1846 1.381 . S
C1846 H1838 0.930 . S
C1846 C1842 1.390 . S
C1846 C1845 1.381 . S
N1847 C1840 1.286 . S
N1847 C1843 1.413 . S
H1848 C1853 0.930 . S
H1849 C1856 0.930 . S
H1850 C1858 0.930 . S
H1851 C1852 1.016 . S
C1852 H1851 1.016 . S
C1852 N1859 1.286 . S
C1853 H1848 0.930 . S
C1853 C1854 1.397 . S
C1853 C1855 1.361 . S
C1854 C1853 1.397 . S
C1854 C1858 1.390 . S
C1855 C1853 1.361 . S
C1855 C1856 1.393 . S
C1855 N1859 1.413 . S
C1856 H1849 0.930 . S
C1856 C1855 1.393 . S
C1856 C1857 1.399 . S
C1857 C1856 1.399 . S
C1857 C1858 1.381 . S
C1858 H1850 0.930 . S
C1858 C1854 1.390 . S
C1858 C1857 1.381 . S
N1859 C1852 1.286 . S
N1859 C1855 1.413 . S
H1860 C1865 0.930 . S
H1861 C1868 0.930 . S
H1862 C1870 0.930 . S
H1863 C1864 1.016 . S
C1864 H1863 1.016 . S
C1864 N1871 1.286 . S
C1865 H1860 0.930 . S
C1865 C1866 1.397 . S
C1865 C1867 1.361 . S
C1866 C1865 1.397 . S
C1866 C1870 1.390 . S
C1867 C1865 1.361 . S
C1867 C1868 1.393 . S
C1867 N1871 1.413 . S
C1868 H1861 0.930 . S
C1868 C1867 1.393 . S
C1868 C1869 1.399 . S
C1869 C1868 1.399 . S
C1869 C1870 1.381 . S
C1870 H1862 0.930 . S
C1870 C1866 1.390 . S
C1870 C1869 1.381 . S
N1871 C1864 1.286 . S
N1871 C1867 1.413 . S
H1872 C1877 0.930 . S
H1873 C1880 0.930 . S
H1874 C1882 0.930 . S
H1875 C1876 1.016 . S
C1876 H1875 1.016 . S
C1876 N1883 1.286 . S
C1877 H1872 0.930 . S
C1877 C1878 1.397 . S
C1877 C1879 1.361 . S
C1878 C1877 1.397 . S
C1878 C1882 1.390 . S
C1879 C1877 1.361 . S
C1879 C1880 1.393 . S
C1879 N1883 1.413 . S
C1880 H1873 0.930 . S
C1880 C1879 1.393 . S
C1880 C1881 1.399 . S
C1881 C1880 1.399 . S
C1881 C1882 1.381 . S
C1882 H1874 0.930 . S
C1882 C1878 1.390 . S
C1882 C1881 1.381 . S
N1883 C1876 1.286 . S
N1883 C1879 1.413 . S
H1884 C1889 0.930 . S
H1885 C1892 0.930 . S
H1886 C1894 0.930 . S
H1887 C1888 1.016 . S
C1888 H1887 1.016 . S
C1888 N1895 1.286 . S
C1889 H1884 0.930 . S
C1889 C1890 1.397 . S
C1889 C1891 1.361 . S
C1890 C1889 1.397 . S
C1890 C1894 1.390 . S
C1891 C1889 1.361 . S
C1891 C1892 1.393 . S
C1891 N1895 1.413 . S
C1892 H1885 0.930 . S
C1892 C1891 1.393 . S
C1892 C1893 1.399 . S
C1893 C1892 1.399 . S
C1893 C1894 1.381 . S
C1894 H1886 0.930 . S
C1894 C1890 1.390 . S
C1894 C1893 1.381 . S
N1895 C1888 1.286 . S
N1895 C1891 1.413 . S
H1896 C1901 0.930 . S
H1897 C1904 0.930 . S
H1898 C1906 0.930 . S
H1899 C1900 1.016 . S
C1900 H1899 1.016 . S
C1900 N1907 1.286 . S
C1901 H1896 0.930 . S
C1901 C1902 1.397 . S
C1901 C1903 1.361 . S
C1902 C1901 1.397 . S
C1902 C1906 1.390 . S
C1903 C1901 1.361 . S
C1903 C1904 1.393 . S
C1903 N1907 1.413 . S
C1904 H1897 0.930 . S
C1904 C1903 1.393 . S
C1904 C1905 1.399 . S
C1905 C1904 1.399 . S
C1905 C1906 1.381 . S
C1906 H1898 0.930 . S
C1906 C1902 1.390 . S
C1906 C1905 1.381 . S
N1907 C1900 1.286 . S
N1907 C1903 1.413 . S
H1908 C1913 0.930 . S
H1909 C1916 0.930 . S
H1910 C1918 0.930 . S
H1911 C1912 1.016 . S
C1912 H1911 1.016 . S
C1912 N1919 1.286 . S
C1913 H1908 0.930 . S
C1913 C1914 1.397 . S
C1913 C1915 1.361 . S
C1914 C1913 1.397 . S
C1914 C1918 1.390 . S
C1915 C1913 1.361 . S
C1915 C1916 1.393 . S
C1915 N1919 1.413 . S
C1916 H1909 0.930 . S
C1916 C1915 1.393 . S
C1916 C1917 1.399 . S
C1917 C1916 1.399 . S
C1917 C1918 1.381 . S
C1918 H1910 0.930 . S
C1918 C1914 1.390 . S
C1918 C1917 1.381 . S
N1919 C1912 1.286 . S
N1919 C1915 1.413 . S
H1920 C1925 0.930 . S
H1921 C1928 0.930 . S
H1922 C1930 0.930 . S
H1923 C1924 1.016 . S
C1924 H1923 1.016 . S
C1924 N1931 1.286 . S
C1925 H1920 0.930 . S
C1925 C1926 1.397 . S
C1925 C1927 1.361 . S
C1926 C1925 1.397 . S
C1926 C1930 1.390 . S
C1927 C1925 1.361 . S
C1927 C1928 1.393 . S
C1927 N1931 1.413 . S
C1928 H1921 0.930 . S
C1928 C1927 1.393 . S
C1928 C1929 1.399 . S
C1929 C1928 1.399 . S
C1929 C1930 1.381 . S
C1930 H1922 0.930 . S
C1930 C1926 1.390 . S
C1930 C1929 1.381 . S
N1931 C1924 1.286 . S
N1931 C1927 1.413 . S
H1932 C1937 0.930 . S
H1933 C1940 0.930 . S
H1934 C1942 0.930 . S
H1935 C1936 1.016 . S
C1936 H1935 1.016 . S
C1936 N1943 1.286 . S
C1937 H1932 0.930 . S
C1937 C1938 1.397 . S
C1937 C1939 1.361 . S
C1938 C1937 1.397 . S
C1938 C1942 1.390 . S
C1939 C1937 1.361 . S
C1939 C1940 1.393 . S
C1939 N1943 1.413 . S
C1940 H1933 0.930 . S
C1940 C1939 1.393 . S
C1940 C1941 1.399 . S
C1941 C1940 1.399 . S
C1941 C1942 1.381 . S
C1942 H1934 0.930 . S
C1942 C1938 1.390 . S
C1942 C1941 1.381 . S
N1943 C1936 1.286 . S
N1943 C1939 1.413 . S
H1944 C1949 0.930 . S
H1945 C1952 0.930 . S
H1946 C1954 0.930 . S
H1947 C1948 1.016 . S
C1948 H1947 1.016 . S
C1948 N1955 1.286 . S
C1949 H1944 0.930 . S
C1949 C1950 1.397 . S
C1949 C1951 1.361 . S
C1950 C1949 1.397 . S
C1950 C1954 1.390 . S
C1951 C1949 1.361 . S
C1951 C1952 1.393 . S
C1951 N1955 1.413 . S
C1952 H1945 0.930 . S
C1952 C1951 1.393 . S
C1952 C1953 1.399 . S
C1953 C1952 1.399 . S
C1953 C1954 1.381 . S
C1954 H1946 0.930 . S
C1954 C1950 1.390 . S
C1954 C1953 1.381 . S
N1955 C1948 1.286 . S
N1955 C1951 1.413 . S
H1956 C1961 0.930 . S
H1957 C1964 0.930 . S
H1958 C1966 0.930 . S
H1959 C1960 1.016 . S
C1960 H1959 1.016 . S
C1960 N1967 1.286 . S
C1961 H1956 0.930 . S
C1961 C1962 1.397 . S
C1961 C1963 1.361 . S
C1962 C1961 1.397 . S
C1962 C1966 1.390 . S
C1963 C1961 1.361 . S
C1963 C1964 1.393 . S
C1963 N1967 1.413 . S
C1964 H1957 0.930 . S
C1964 C1963 1.393 . S
C1964 C1965 1.399 . S
C1965 C1964 1.399 . S
C1965 C1966 1.381 . S
C1966 H1958 0.930 . S
C1966 C1962 1.390 . S
C1966 C1965 1.381 . S
N1967 C1960 1.286 . S
N1967 C1963 1.413 . S
H1968 C1973 0.930 . S
H1969 C1976 0.930 . S
H1970 C1978 0.930 . S
H1971 C1972 1.016 . S
C1972 H1971 1.016 . S
C1972 N1979 1.286 . S
C1973 H1968 0.930 . S
C1973 C1974 1.397 . S
C1973 C1975 1.361 . S
C1974 C1973 1.397 . S
C1974 C1978 1.390 . S
C1975 C1973 1.361 . S
C1975 C1976 1.393 . S
C1975 N1979 1.413 . S
C1976 H1969 0.930 . S
C1976 C1975 1.393 . S
C1976 C1977 1.399 . S
C1977 C1976 1.399 . S
C1977 C1978 1.381 . S
C1978 H1970 0.930 . S
C1978 C1974 1.390 . S
C1978 C1977 1.381 . S
N1979 C1972 1.286 . S
N1979 C1975 1.413 . S
H1980 C1985 0.930 . S
H1981 C1988 0.930 . S
H1982 C1990 0.930 . S
H1983 C1984 1.016 . S
C1984 H1983 1.016 . S
C1984 N1991 1.286 . S
C1985 H1980 0.930 . S
C1985 C1986 1.397 . S
C1985 C1987 1.361 . S
C1986 C1985 1.397 . S
C1986 C1990 1.390 . S
C1987 C1985 1.361 . S
C1987 C1988 1.393 . S
C1987 N1991 1.413 . S
C1988 H1981 0.930 . S
C1988 C1987 1.393 . S
C1988 C1989 1.399 . S
C1989 C1988 1.399 . S
C1989 C1990 1.381 . S
C1990 H1982 0.930 . S
C1990 C1986 1.390 . S
C1990 C1989 1.381 . S
N1991 C1984 1.286 . S
N1991 C1987 1.413 . S
H1992 C1997 0.930 . S
H1993 C2000 0.930 . S
H1994 C2002 0.930 . S
H1995 C1996 1.016 . S
C1996 H1995 1.016 . S
C1996 N2003 1.286 . S
C1997 H1992 0.930 . S
C1997 C1998 1.397 . S
C1997 C1999 1.361 . S
C1998 C1997 1.397 . S
C1998 C2002 1.390 . S
C1999 C1997 1.361 . S
C1999 C2000 1.393 . S
C1999 N2003 1.413 . S
C2000 H1993 0.930 . S
C2000 C1999 1.393 . S
C2000 C2001 1.399 . S
C2001 C2000 1.399 . S
C2001 C2002 1.381 . S
C2002 H1994 0.930 . S
C2002 C1998 1.390 . S
C2002 C2001 1.381 . S
N2003 C1996 1.286 . S
N2003 C1999 1.413 . S
H2004 C2009 0.930 . S
H2005 C2012 0.930 . S
H2006 C2014 0.930 . S
H2007 C2008 1.016 . S
C2008 H2007 1.016 . S
C2008 N2015 1.286 . S
C2009 H2004 0.930 . S
C2009 C2010 1.397 . S
C2009 C2011 1.361 . S
C2010 C2009 1.397 . S
C2010 C2014 1.390 . S
C2011 C2009 1.361 . S
C2011 C2012 1.393 . S
C2011 N2015 1.413 . S
C2012 H2005 0.930 . S
C2012 C2011 1.393 . S
C2012 C2013 1.399 . S
C2013 C2012 1.399 . S
C2013 C2014 1.381 . S
C2014 H2006 0.930 . S
C2014 C2010 1.390 . S
C2014 C2013 1.381 . S
N2015 C2008 1.286 . S
N2015 C2011 1.413 . S
H2016 C2021 0.930 . S
H2017 C2024 0.930 . S
H2018 C2026 0.930 . S
H2019 C2020 1.016 . S
C2020 H2019 1.016 . S
C2020 N2027 1.286 . S
C2021 H2016 0.930 . S
C2021 C2022 1.397 . S
C2021 C2023 1.361 . S
C2022 C2021 1.397 . S
C2022 C2026 1.390 . S
C2023 C2021 1.361 . S
C2023 C2024 1.393 . S
C2023 N2027 1.413 . S
C2024 H2017 0.930 . S
C2024 C2023 1.393 . S
C2024 C2025 1.399 . S
C2025 C2024 1.399 . S
C2025 C2026 1.381 . S
C2026 H2018 0.930 . S
C2026 C2022 1.390 . S
C2026 C2025 1.381 . S
N2027 C2020 1.286 . S
N2027 C2023 1.413 . S
H2028 C2033 0.930 . S
H2029 C2036 0.930 . S
H2030 C2038 0.930 . S
H2031 C2032 1.016 . S
C2032 H2031 1.016 . S
C2032 N2039 1.286 . S
C2033 H2028 0.930 . S
C2033 C2034 1.397 . S
C2033 C2035 1.361 . S
C2034 C2033 1.397 . S
C2034 C2038 1.390 . S
C2035 C2033 1.361 . S
C2035 C2036 1.393 . S
C2035 N2039 1.413 . S
C2036 H2029 0.930 . S
C2036 C2035 1.393 . S
C2036 C2037 1.399 . S
C2037 C2036 1.399 . S
C2037 C2038 1.381 . S
C2038 H2030 0.930 . S
C2038 C2034 1.390 . S
C2038 C2037 1.381 . S
N2039 C2032 1.286 . S
N2039 C2035 1.413 . S
H2040 C2045 0.930 . S
H2041 C2048 0.930 . S
H2042 C2050 0.930 . S
H2043 C2044 1.016 . S
C2044 H2043 1.016 . S
C2044 N2051 1.286 . S
C2045 H2040 0.930 . S
C2045 C2046 1.397 . S
C2045 C2047 1.361 . S
C2046 C2045 1.397 . S
C2046 C2050 1.390 . S
C2047 C2045 1.361 . S
C2047 C2048 1.393 . S
C2047 N2051 1.413 . S
C2048 H2041 0.930 . S
C2048 C2047 1.393 . S
C2048 C2049 1.399 . S
C2049 C2048 1.399 . S
C2049 C2050 1.381 . S
C2050 H2042 0.930 . S
C2050 C2046 1.390 . S
C2050 C2049 1.381 . S
N2051 C2044 1.286 . S
N2051 C2047 1.413 . S
H2052 C2057 0.930 . S
H2053 C2060 0.930 . S
H2054 C2062 0.930 . S
H2055 C2056 1.016 . S
C2056 H2055 1.016 . S
C2056 N2063 1.286 . S
C2057 H2052 0.930 . S
C2057 C2058 1.397 . S
C2057 C2059 1.361 . S
C2058 C2057 1.397 . S
C2058 C2062 1.390 . S
C2059 C2057 1.361 . S
C2059 C2060 1.393 . S
C2059 N2063 1.413 . S
C2060 H2053 0.930 . S
C2060 C2059 1.393 . S
C2060 C2061 1.399 . S
C2061 C2060 1.399 . S
C2061 C2062 1.381 . S
C2062 H2054 0.930 . S
C2062 C2058 1.390 . S
C2062 C2061 1.381 . S
N2063 C2056 1.286 . S
N2063 C2059 1.413 . S
H2064 C2069 0.930 . S
H2065 C2072 0.930 . S
H2066 C2074 0.930 . S
H2067 C2068 1.016 . S
C2068 H2067 1.016 . S
C2068 N2075 1.286 . S
C2069 H2064 0.930 . S
C2069 C2070 1.397 . S
C2069 C2071 1.361 . S
C2070 C2069 1.397 . S
C2070 C2074 1.390 . S
C2071 C2069 1.361 . S
C2071 C2072 1.393 . S
C2071 N2075 1.413 . S
C2072 H2065 0.930 . S
C2072 C2071 1.393 . S
C2072 C2073 1.399 . S
C2073 C2072 1.399 . S
C2073 C2074 1.381 . S
C2074 H2066 0.930 . S
C2074 C2070 1.390 . S
C2074 C2073 1.381 . S
N2075 C2068 1.286 . S
N2075 C2071 1.413 . S
H2076 C2081 0.930 . S
H2077 C2084 0.930 . S
H2078 C2086 0.930 . S
H2079 C2080 1.016 . S
C2080 H2079 1.016 . S
C2080 N2087 1.286 . S
C2081 H2076 0.930 . S
C2081 C2082 1.397 . S
C2081 C2083 1.361 . S
C2082 C2081 1.397 . S
C2082 C2086 1.390 . S
C2083 C2081 1.361 . S
C2083 C2084 1.393 . S
C2083 N2087 1.413 . S
C2084 H2077 0.930 . S
C2084 C2083 1.393 . S
C2084 C2085 1.399 . S
C2085 C2084 1.399 . S
C2085 C2086 1.381 . S
C2086 H2078 0.930 . S
C2086 C2082 1.390 . S
C2086 C2085 1.381 . S
N2087 C2080 1.286 . S
N2087 C2083 1.413 . S
H2088 C2093 0.930 . S
H2089 C2096 0.930 . S
H2090 C2098 0.930 . S
H2091 C2092 1.016 . S
C2092 H2091 1.016 . S
C2092 N2099 1.286 . S
C2093 H2088 0.930 . S
C2093 C2094 1.397 . S
C2093 C2095 1.361 . S
C2094 C2093 1.397 . S
C2094 C2098 1.390 . S
C2095 C2093 1.361 . S
C2095 C2096 1.393 . S
C2095 N2099 1.413 . S
C2096 H2089 0.930 . S
C2096 C2095 1.393 . S
C2096 C2097 1.399 . S
C2097 C2096 1.399 . S
C2097 C2098 1.381 . S
C2098 H2090 0.930 . S
C2098 C2094 1.390 . S
C2098 C2097 1.381 . S
N2099 C2092 1.286 . S
N2099 C2095 1.413 . S
H2100 C2105 0.930 . S
H2101 C2108 0.930 . S
H2102 C2110 0.930 . S
H2103 C2104 1.016 . S
C2104 H2103 1.016 . S
C2104 N2111 1.286 . S
C2105 H2100 0.930 . S
C2105 C2106 1.397 . S
C2105 C2107 1.361 . S
C2106 C2105 1.397 . S
C2106 C2110 1.390 . S
C2107 C2105 1.361 . S
C2107 C2108 1.393 . S
C2107 N2111 1.413 . S
C2108 H2101 0.930 . S
C2108 C2107 1.393 . S
C2108 C2109 1.399 . S
C2109 C2108 1.399 . S
C2109 C2110 1.381 . S
C2110 H2102 0.930 . S
C2110 C2106 1.390 . S
C2110 C2109 1.381 . S
N2111 C2104 1.286 . S
N2111 C2107 1.413 . S
H2112 C2117 0.930 . S
H2113 C2120 0.930 . S
H2114 C2122 0.930 . S
H2115 C2116 1.016 . S
C2116 H2115 1.016 . S
C2116 N2123 1.286 . S
C2117 H2112 0.930 . S
C2117 C2118 1.397 . S
C2117 C2119 1.361 . S
C2118 C2117 1.397 . S
C2118 C2122 1.390 . S
C2119 C2117 1.361 . S
C2119 C2120 1.393 . S
C2119 N2123 1.413 . S
C2120 H2113 0.930 . S
C2120 C2119 1.393 . S
C2120 C2121 1.399 . S
C2121 C2120 1.399 . S
C2121 C2122 1.381 . S
C2122 H2114 0.930 . S
C2122 C2118 1.390 . S
C2122 C2121 1.381 . S
N2123 C2116 1.286 . S
N2123 C2119 1.413 . S
H2124 C2129 0.930 . S
H2125 C2132 0.930 . S
H2126 C2134 0.930 . S
H2127 C2128 1.016 . S
C2128 H2127 1.016 . S
C2128 N2135 1.286 . S
C2129 H2124 0.930 . S
C2129 C2130 1.397 . S
C2129 C2131 1.361 . S
C2130 C2129 1.397 . S
C2130 C2134 1.390 . S
C2131 C2129 1.361 . S
C2131 C2132 1.393 . S
C2131 N2135 1.413 . S
C2132 H2125 0.930 . S
C2132 C2131 1.393 . S
C2132 C2133 1.399 . S
C2133 C2132 1.399 . S
C2133 C2134 1.381 . S
C2134 H2126 0.930 . S
C2134 C2130 1.390 . S
C2134 C2133 1.381 . S
N2135 C2128 1.286 . S
N2135 C2131 1.413 . S
H2136 C2141 0.930 . S
H2137 C2144 0.930 . S
H2138 C2146 0.930 . S
H2139 C2140 1.016 . S
C2140 H2139 1.016 . S
C2140 N2147 1.286 . S
C2141 H2136 0.930 . S
C2141 C2142 1.397 . S
C2141 C2143 1.361 . S
C2142 C2141 1.397 . S
C2142 C2146 1.390 . S
C2143 C2141 1.361 . S
C2143 C2144 1.393 . S
C2143 N2147 1.413 . S
C2144 H2137 0.930 . S
C2144 C2143 1.393 . S
C2144 C2145 1.399 . S
C2145 C2144 1.399 . S
C2145 C2146 1.381 . S
C2146 H2138 0.930 . S
C2146 C2142 1.390 . S
C2146 C2145 1.381 . S
N2147 C2140 1.286 . S
N2147 C2143 1.413 . S
H2148 C2153 0.930 . S
H2149 C2156 0.930 . S
H2150 C2158 0.930 . S
H2151 C2152 1.016 . S
C2152 H2151 1.016 . S
C2152 N2159 1.286 . S
C2153 H2148 0.930 . S
C2153 C2154 1.397 . S
C2153 C2155 1.361 . S
C2154 C2153 1.397 . S
C2154 C2158 1.390 . S
C2155 C2153 1.361 . S
C2155 C2156 1.393 . S
C2155 N2159 1.413 . S
C2156 H2149 0.930 . S
C2156 C2155 1.393 . S
C2156 C2157 1.399 . S
C2157 C2156 1.399 . S
C2157 C2158 1.381 . S
C2158 H2150 0.930 . S
C2158 C2154 1.390 . S
C2158 C2157 1.381 . S
N2159 C2152 1.286 . S
N2159 C2155 1.413 . S
H2160 C2165 0.930 . S
H2161 C2168 0.930 . S
H2162 C2170 0.930 . S
H2163 C2164 1.016 . S
C2164 H2163 1.016 . S
C2164 N2171 1.286 . S
C2165 H2160 0.930 . S
C2165 C2166 1.397 . S
C2165 C2167 1.361 . S
C2166 C2165 1.397 . S
C2166 C2170 1.390 . S
C2167 C2165 1.361 . S
C2167 C2168 1.393 . S
C2167 N2171 1.413 . S
C2168 H2161 0.930 . S
C2168 C2167 1.393 . S
C2168 C2169 1.399 . S
C2169 C2168 1.399 . S
C2169 C2170 1.381 . S
C2170 H2162 0.930 . S
C2170 C2166 1.390 . S
C2170 C2169 1.381 . S
N2171 C2164 1.286 . S
N2171 C2167 1.413 . S
H2172 C2177 0.930 . S
H2173 C2180 0.930 . S
H2174 C2182 0.930 . S
H2175 C2176 1.016 . S
C2176 H2175 1.016 . S
C2176 N2183 1.286 . S
C2177 H2172 0.930 . S
C2177 C2178 1.397 . S
C2177 C2179 1.361 . S
C2178 C2177 1.397 . S
C2178 C2182 1.390 . S
C2179 C2177 1.361 . S
C2179 C2180 1.393 . S
C2179 N2183 1.413 . S
C2180 H2173 0.930 . S
C2180 C2179 1.393 . S
C2180 C2181 1.399 . S
C2181 C2180 1.399 . S
C2181 C2182 1.381 . S
C2182 H2174 0.930 . S
C2182 C2178 1.390 . S
C2182 C2181 1.381 . S
N2183 C2176 1.286 . S
N2183 C2179 1.413 . S
H2184 C2189 0.930 . S
H2185 C2192 0.930 . S
H2186 C2194 0.930 . S
H2187 C2188 1.016 . S
C2188 H2187 1.016 . S
C2188 N2195 1.286 . S
C2189 H2184 0.930 . S
C2189 C2190 1.397 . S
C2189 C2191 1.361 . S
C2190 C2189 1.397 . S
C2190 C2194 1.390 . S
C2191 C2189 1.361 . S
C2191 C2192 1.393 . S
C2191 N2195 1.413 . S
C2192 H2185 0.930 . S
C2192 C2191 1.393 . S
C2192 C2193 1.399 . S
C2193 C2192 1.399 . S
C2193 C2194 1.381 . S
C2194 H2186 0.930 . S
C2194 C2190 1.390 . S
C2194 C2193 1.381 . S
N2195 C2188 1.286 . S
N2195 C2191 1.413 . S
H2196 C2201 0.930 . S
H2197 C2204 0.930 . S
H2198 C2206 0.930 . S
H2199 C2200 1.016 . S
C2200 H2199 1.016 . S
C2200 N2207 1.286 . S
C2201 H2196 0.930 . S
C2201 C2202 1.397 . S
C2201 C2203 1.361 . S
C2202 C2201 1.397 . S
C2202 C2206 1.390 . S
C2203 C2201 1.361 . S
C2203 C2204 1.393 . S
C2203 N2207 1.413 . S
C2204 H2197 0.930 . S
C2204 C2203 1.393 . S
C2204 C2205 1.399 . S
C2205 C2204 1.399 . S
C2205 C2206 1.381 . S
C2206 H2198 0.930 . S
C2206 C2202 1.390 . S
C2206 C2205 1.381 . S
N2207 C2200 1.286 . S
N2207 C2203 1.413 . S
C1360 C8 1.499 1_655 S
C1948 C19 1.499 . S
C1384 C30 1.498 . S
C1924 C41 1.499 . S
C1432 C52 1.499 1_655 S
C63 C1972 1.498 . S
C1408 C74 1.499 . S
C1996 C85 1.499 . S
C2188 C96 1.499 1_565 S
C107 C2116 1.499 . S
C2200 C118 1.499 1_545 S
C129 C2176 1.498 . S
C2140 C140 1.498 1_545 S
C1576 C151 1.499 . S
C1588 C162 1.499 1_565 S
C173 C1552 1.499 . S
C184 C2080 1.499 1_554 S
C1480 C195 1.499 1_554 S
C2020 C206 1.499 . S
C1456 C217 1.498 . S
C228 C1468 1.499 . S
C2104 C239 1.499 . S
C2068 C250 1.499 . S
C261 C2092 1.498 . S
C272 C1072 1.548 1_655 S
C283 C1660 1.547 . S
C1096 C294 1.547 . S
C305 C1636 1.548 . S
C1144 C316 1.548 1_455 S
C327 C1684 1.547 . S
C1120 C338 1.547 . S
C1708 C349 1.548 . S
C360 C1900 1.548 1_565 S
C1828 C371 1.548 . S
C382 C1912 1.548 1_545 S
C1888 C393 1.547 . S
C1852 C404 1.547 1_565 S
C415 C1288 1.548 . S
C426 C1300 1.548 1_565 S
C1264 C437 1.548 . S
C448 C1792 1.548 1_556 S
C1192 C459 1.547 1_556 S
C470 C1732 1.548 . S
C1168 C481 1.547 . S
C492 C1180 1.548 . S
C1816 C503 1.548 . S
C1780 C514 1.547 . S
C1804 C525 1.547 . S
C536 C1936 1.499 . S
C1372 C547 1.499 . S
C1960 C558 1.498 1_455 S
C1348 C569 1.499 . S
C580 C2008 1.499 . S
C1396 C591 1.498 . S
C1984 C602 1.499 1_455 S
C1420 C613 1.499 . S
C624 C1612 1.499 . S
C1540 C635 1.499 . S
C1624 C646 1.499 . S
C657 C1600 1.498 . S
C668 C1564 1.498 . S
C679 C2152 1.499 . S
C690 C2164 1.499 . S
C2128 C701 1.499 . S
C712 C1504 1.499 . S
C2056 C723 1.499 . S
C1444 C734 1.499 . S
C2032 C745 1.498 1_554 S
C756 C2044 1.499 . S
C767 C1528 1.499 1_554 S
C1492 C778 1.499 . S
C789 C1516 1.498 . S
C800 C1648 1.548 . S
C1084 C811 1.547 . S
C1672 C822 1.547 1_655 S
C833 C1060 1.548 . S
C1720 C844 1.548 . S
C1108 C855 1.547 . S
C866 C1696 1.547 1_455 S
C877 C1132 1.548 . S
C1324 C888 1.548 . S
C899 C1252 1.548 . S
C1336 C910 1.548 . S
C1312 C921 1.547 . S
C932 C1276 1.547 . S
C943 C1864 1.548 . S
C1876 C954 1.548 . S
C965 C1840 1.548 . S
C1216 C976 1.548 . S
C1768 C987 1.547 . S
C998 C1156 1.548 . S
C1009 C1744 1.547 1_554 S
C1020 C1756 1.548 . S
C1031 C1240 1.548 1_556 S
C1042 C1204 1.547 . S
C1228 C1053 1.547 . S
C1170 C5 1.076 . S
C1182 C16 1.076 . S
C27 C1194 1.076 . S
C38 C1158 1.076 . S
C49 C1242 1.076 . S
C1206 C60 1.076 . S
C1218 C71 1.076 . S
C82 C1230 1.076 . S
C93 C1098 1.076 . S
C104 C1062 1.076 . S
C115 C1074 1.076 . S
C1086 C126 1.076 . S
C137 C1122 1.076 . S
C148 C1134 1.076 . S
C159 C1146 1.076 . S
C170 C1110 1.076 . S
C1278 C181 1.076 . S
C192 C1902 1.076 . S
C1254 C203 1.076 . S
C1914 C214 1.076 . S
C225 C1890 1.076 . S
C236 C1878 1.076 . S
C1842 C247 1.076 . S
C1866 C258 1.076 . S
C1458 C269 1.864 . S
C1470 C280 1.863 . S
C1482 C291 1.863 . S
C302 C1446 1.864 . S
C313 C1530 1.864 . S
C1494 C324 1.863 . S
C335 C1506 1.863 . S
C1518 C346 1.864 . S
C357 C1386 1.863 . S
C1350 C368 1.864 . S
C379 C1362 1.862 . S
C1374 C390 1.863 . S
C1410 C401 1.863 . S
C412 C1422 1.862 . S
C1434 C423 1.864 . S
C1398 C434 1.863 . S
C1566 C445 1.864 . S
C2190 C456 1.862 . S
C1542 C467 1.864 . S
C478 C2202 1.863 . S
C489 C2178 1.864 . S
C2166 C500 1.864 . S
C2130 C511 1.862 . S
C2154 C522 1.863 . S
C533 C1746 1.076 . S
C1758 C544 1.076 . S
C555 C1770 1.076 . S
C1734 C566 1.076 . S
C577 C1818 1.076 . S
C588 C1782 1.076 . S
C599 C1794 1.076 . S
C610 C1806 1.076 . S
C621 C1674 1.076 . S
C1638 C632 1.076 . S
C1650 C643 1.076 . S
C654 C1662 1.076 . S
C665 C1698 1.076 . S
C676 C1710 1.076 . S
C687 C1722 1.076 . S
C698 C1686 1.076 . S
C1854 C709 1.076 . S
C1326 C720 1.076 . S
C1830 C731 1.076 . S
C1338 C742 1.076 . S
C1314 C753 1.076 . S
C1302 C764 1.076 . S
C775 C1266 1.076 . S
C1290 C786 1.076 . S
C797 C2034 1.864 . S
C808 C2046 1.863 . S
C2058 C819 1.863 . S
C830 C2022 1.864 . S
C2106 C841 1.864 . S
C852 C2070 1.863 . S
C863 C2082 1.863 . S
C2094 C874 1.864 . S
C1962 C885 1.863 . S
C1926 C896 1.864 . S
C1938 C907 1.862 . S
C1950 C918 1.863 . S
C929 C1986 1.863 . S
C1998 C940 1.862 . S
C951 C2010 1.864 . S
C962 C1974 1.863 . S
C973 C2142 1.864 . S
C984 C1614 1.862 . S
C995 C2118 1.864 . S
C1626 C1006 1.863 . S
C1017 C1602 1.864 . S
C1028 C1590 1.864 . S
C1039 C1554 1.862 . S
C1578 C1050 1.863 . S
C7 C1065 1.519 . S
C18 C1077 1.518 . S
C29 C1089 1.519 . S
C1101 C40 1.518 . S
C1113 C51 1.518 . S
C62 C1125 1.519 . S
C73 C1137 1.518 . S
C84 C1149 1.519 . S
C1161 C95 1.519 . S
C1173 C106 1.519 . S
C117 C1185 1.518 . S
C1197 C128 1.519 . S
C139 C1209 1.519 . S
C150 C1221 1.518 . S
C161 C1233 1.519 . S
C172 C1245 1.519 . S
C183 C1257 1.519 . S
C194 C1269 1.518 . S
C1281 C205 1.519 . S
C1293 C216 1.519 . S
C1305 C227 1.519 . S
C1317 C238 1.519 . S
C249 C1329 1.518 . S
C1341 C260 1.519 . S
C271 C1353 1.816 . S
C282 C1365 1.814 . S
C293 C1377 1.815 . S
C1389 C304 1.815 . S
C315 C1401 1.815 . S
C1413 C326 1.815 . S
C337 C1425 1.814 . S
C348 C1437 1.816 . S
C1449 C359 1.815 . S
C370 C1461 1.815 . S
C1473 C381 1.814 . S
C392 C1485 1.815 . S
C1497 C403 1.815 . S
C1509 C414 1.814 . S
C1521 C425 1.815 . S
C436 C1533 1.815 . S
C447 C1545 1.815 . S
C458 C1557 1.814 . S
C469 C1569 1.815 . S
C480 C1581 1.815 . S
C491 C1593 1.815 . S
C1605 C502 1.815 . S
C513 C1617 1.814 . S
C1629 C524 1.815 . S
C535 C1641 1.519 . S
C1653 C546 1.518 . S
C1665 C557 1.519 . S
C1677 C568 1.518 . S
C579 C1689 1.518 . S
C590 C1701 1.519 . S
C1713 C601 1.518 . S
C1725 C612 1.519 . S
C623 C1737 1.519 . S
C634 C1749 1.519 . S
C645 C1761 1.518 . S
C656 C1773 1.519 . S
C667 C1785 1.519 . S
C1797 C678 1.518 . S
C1809 C689 1.519 . S
C1821 C700 1.519 . S
C1833 C711 1.519 . S
C722 C1845 1.518 . S
C733 C1857 1.519 . S
C1869 C744 1.519 . S
C755 C1881 1.519 . S
C1893 C766 1.519 . S
C1905 C777 1.518 . S
C1917 C788 1.519 . S
C799 C1929 1.816 . S
C810 C1941 1.814 . S
C821 C1953 1.815 . S
C832 C1965 1.815 . S
C1977 C843 1.815 . S
C1989 C854 1.815 . S
C2001 C865 1.814 . S
C876 C2013 1.816 . S
C887 C2025 1.815 . S
C2037 C898 1.815 . S
C2049 C909 1.814 . S
C2061 C920 1.815 . S
C2073 C931 1.815 . S
C2085 C942 1.814 . S
C2097 C953 1.815 . S
C2109 C964 1.815 . S
C2121 C975 1.815 . S
C2133 C986 1.814 . S
C2145 C997 1.815 . S
C1008 C2157 1.815 . S
C2169 C1019 1.815 . S
C1030 C2181 1.815 . S
C2193 C1041 1.814 . S
C2205 C1052 1.815 . S
