# Generated by pormake.
# Topology ctn, (3,4)-cn, num edge types: 1
# Building blocks:
#     Node 0, Type 0, BuildingBlock: KAKCAD_clean_linker_0, # of connection points: 3
#     Node 1, Type 0, BuildingBlock: KAKCAD_clean_linker_0, # of connection points: 3
#     Node 2, Type 0, BuildingBlock: KAKCAD_clean_linker_0, # of connection points: 3
#     Node 3, Type 0, BuildingBlock: KAKCAD_clean_linker_0, # of connection points: 3
#     Node 4, Type 0, BuildingBlock: KAKCAD_clean_linker_0, # of connection points: 3
#     Node 5, Type 0, BuildingBlock: KAKCAD_clean_linker_0, # of connection points: 3
#     Node 6, Type 0, BuildingBlock: KAKCAD_clean_linker_0, # of connection points: 3
#     Node 7, Type 0, BuildingBlock: KAKCAD_clean_linker_0, # of connection points: 3
#     Node 8, Type 0, BuildingBlock: KAKCAD_clean_linker_0, # of connection points: 3
#     Node 9, Type 0, BuildingBlock: KAKCAD_clean_linker_0, # of connection points: 3
#     Node 10, Type 0, BuildingBlock: KAKCAD_clean_linker_0, # of connection points: 3
#     Node 11, Type 0, BuildingBlock: KAKCAD_clean_linker_0, # of connection points: 3
#     Node 12, Type 0, BuildingBlock: KAKCAD_clean_linker_0, # of connection points: 3
#     Node 13, Type 0, BuildingBlock: KAKCAD_clean_linker_0, # of connection points: 3
#     Node 14, Type 0, BuildingBlock: KAKCAD_clean_linker_0, # of connection points: 3
#     Node 15, Type 0, BuildingBlock: KAKCAD_clean_linker_0, # of connection points: 3
#     Node 16, Type 1, BuildingBlock: QUQFOY_clean_sbu_1, # of connection points: 4
#     Node 17, Type 1, BuildingBlock: QUQFOY_clean_sbu_1, # of connection points: 4
#     Node 18, Type 1, BuildingBlock: QUQFOY_clean_sbu_1, # of connection points: 4
#     Node 19, Type 1, BuildingBlock: QUQFOY_clean_sbu_1, # of connection points: 4
#     Node 20, Type 1, BuildingBlock: QUQFOY_clean_sbu_1, # of connection points: 4
#     Node 21, Type 1, BuildingBlock: QUQFOY_clean_sbu_1, # of connection points: 4
#     Node 22, Type 1, BuildingBlock: QUQFOY_clean_sbu_1, # of connection points: 4
#     Node 23, Type 1, BuildingBlock: QUQFOY_clean_sbu_1, # of connection points: 4
#     Node 24, Type 1, BuildingBlock: QUQFOY_clean_sbu_1, # of connection points: 4
#     Node 25, Type 1, BuildingBlock: QUQFOY_clean_sbu_1, # of connection points: 4
#     Node 26, Type 1, BuildingBlock: QUQFOY_clean_sbu_1, # of connection points: 4
#     Node 27, Type 1, BuildingBlock: QUQFOY_clean_sbu_1, # of connection points: 4
#     Edge 28, Type (0, 1), BuildingBlock: XUDNAN_clean_linker_2, # of connection points: 2
#     Edge 29, Type (0, 1), BuildingBlock: XUDNAN_clean_linker_2, # of connection points: 2
#     Edge 30, Type (0, 1), BuildingBlock: XUDNAN_clean_linker_2, # of connection points: 2
#     Edge 31, Type (0, 1), BuildingBlock: XUDNAN_clean_linker_2, # of connection points: 2
#     Edge 32, Type (0, 1), BuildingBlock: XUDNAN_clean_linker_2, # of connection points: 2
#     Edge 33, Type (0, 1), BuildingBlock: XUDNAN_clean_linker_2, # of connection points: 2
#     Edge 34, Type (0, 1), BuildingBlock: XUDNAN_clean_linker_2, # of connection points: 2
#     Edge 35, Type (0, 1), BuildingBlock: XUDNAN_clean_linker_2, # of connection points: 2
#     Edge 36, Type (0, 1), BuildingBlock: XUDNAN_clean_linker_2, # of connection points: 2
#     Edge 37, Type (0, 1), BuildingBlock: XUDNAN_clean_linker_2, # of connection points: 2
#     Edge 38, Type (0, 1), BuildingBlock: XUDNAN_clean_linker_2, # of connection points: 2
#     Edge 39, Type (0, 1), BuildingBlock: XUDNAN_clean_linker_2, # of connection points: 2
#     Edge 40, Type (0, 1), BuildingBlock: XUDNAN_clean_linker_2, # of connection points: 2
#     Edge 41, Type (0, 1), BuildingBlock: XUDNAN_clean_linker_2, # of connection points: 2
#     Edge 42, Type (0, 1), BuildingBlock: XUDNAN_clean_linker_2, # of connection points: 2
#     Edge 43, Type (0, 1), BuildingBlock: XUDNAN_clean_linker_2, # of connection points: 2
#     Edge 44, Type (0, 1), BuildingBlock: XUDNAN_clean_linker_2, # of connection points: 2
#     Edge 45, Type (0, 1), BuildingBlock: XUDNAN_clean_linker_2, # of connection points: 2
#     Edge 46, Type (0, 1), BuildingBlock: XUDNAN_clean_linker_2, # of connection points: 2
#     Edge 47, Type (0, 1), BuildingBlock: XUDNAN_clean_linker_2, # of connection points: 2
#     Edge 48, Type (0, 1), BuildingBlock: XUDNAN_clean_linker_2, # of connection points: 2
#     Edge 49, Type (0, 1), BuildingBlock: XUDNAN_clean_linker_2, # of connection points: 2
#     Edge 50, Type (0, 1), BuildingBlock: XUDNAN_clean_linker_2, # of connection points: 2
#     Edge 51, Type (0, 1), BuildingBlock: XUDNAN_clean_linker_2, # of connection points: 2
#     Edge 52, Type (0, 1), BuildingBlock: XUDNAN_clean_linker_2, # of connection points: 2
#     Edge 53, Type (0, 1), BuildingBlock: XUDNAN_clean_linker_2, # of connection points: 2
#     Edge 54, Type (0, 1), BuildingBlock: XUDNAN_clean_linker_2, # of connection points: 2
#     Edge 55, Type (0, 1), BuildingBlock: XUDNAN_clean_linker_2, # of connection points: 2
#     Edge 56, Type (0, 1), BuildingBlock: XUDNAN_clean_linker_2, # of connection points: 2
#     Edge 57, Type (0, 1), BuildingBlock: XUDNAN_clean_linker_2, # of connection points: 2
#     Edge 58, Type (0, 1), BuildingBlock: XUDNAN_clean_linker_2, # of connection points: 2
#     Edge 59, Type (0, 1), BuildingBlock: XUDNAN_clean_linker_2, # of connection points: 2
#     Edge 60, Type (0, 1), BuildingBlock: XUDNAN_clean_linker_2, # of connection points: 2
#     Edge 61, Type (0, 1), BuildingBlock: XUDNAN_clean_linker_2, # of connection points: 2
#     Edge 62, Type (0, 1), BuildingBlock: XUDNAN_clean_linker_2, # of connection points: 2
#     Edge 63, Type (0, 1), BuildingBlock: XUDNAN_clean_linker_2, # of connection points: 2
#     Edge 64, Type (0, 1), BuildingBlock: XUDNAN_clean_linker_2, # of connection points: 2
#     Edge 65, Type (0, 1), BuildingBlock: XUDNAN_clean_linker_2, # of connection points: 2
#     Edge 66, Type (0, 1), BuildingBlock: XUDNAN_clean_linker_2, # of connection points: 2
#     Edge 67, Type (0, 1), BuildingBlock: XUDNAN_clean_linker_2, # of connection points: 2
#     Edge 68, Type (0, 1), BuildingBlock: XUDNAN_clean_linker_2, # of connection points: 2
#     Edge 69, Type (0, 1), BuildingBlock: XUDNAN_clean_linker_2, # of connection points: 2
#     Edge 70, Type (0, 1), BuildingBlock: XUDNAN_clean_linker_2, # of connection points: 2
#     Edge 71, Type (0, 1), BuildingBlock: XUDNAN_clean_linker_2, # of connection points: 2
#     Edge 72, Type (0, 1), BuildingBlock: XUDNAN_clean_linker_2, # of connection points: 2
#     Edge 73, Type (0, 1), BuildingBlock: XUDNAN_clean_linker_2, # of connection points: 2
#     Edge 74, Type (0, 1), BuildingBlock: XUDNAN_clean_linker_2, # of connection points: 2
#     Edge 75, Type (0, 1), BuildingBlock: XUDNAN_clean_linker_2, # of connection points: 2
# Relax obj value: 0.036
# Max RMSD: 0.144
# Mean RMSD: 0.065
data_MOF--net-ctn--node1-QUQFOY_clean_sbu_1--node2-KAKCAD_clean_linker_0--edge1-XUDNAN_clean_linker_2
_symmetry_space_group_name_H-M    P1
_symmetry_Int_Tables_number       1
_symmetry_cell_setting            triclinic
loop_
_symmetry_equiv_pos_as_xyz
'x, y, z'
_cell_length_a     67.565711
_cell_length_b     67.456592
_cell_length_c     67.546448
_cell_angle_alpha  92.905172
_cell_angle_beta   90.398993
_cell_angle_gamma 94.722432
loop_
_atom_site_label
_atom_site_type_symbol
_atom_site_fract_x
_atom_site_fract_y
_atom_site_fract_z
_atom_type_partial_charge
C0 C 0.03002 0.13292 0.01822 0.0
C1 C 0.0463 0.14605 0.0133 0.0
C2 C 0.03168 0.11971 0.0333 0.0
C3 C 0.04968 0.11923 0.0437 0.0
C4 C 0.06603 0.13215 0.03866 0.0
C5 C 0.06435 0.14546 0.02367 0.0
C6 C 0.05139 0.1054 0.0599 0.0
C7 C 0.0678 0.09409 0.06097 0.0
C8 C 0.06947 0.08081 0.07611 0.0
C9 C 0.05475 0.0793 0.09067 0.0
C10 C 0.03821 0.09072 0.09002 0.0
C11 C 0.03657 0.10345 0.07429 0.0
C12 C 0.0227 0.08956 0.10567 0.0
C13 C 0.01762 0.07167 0.11497 0.0
C14 C 0.01269 0.1064 0.11136 0.0
C15 C 0.99775 0.10528 0.12552 0.0
C16 C 0.99274 0.08745 0.13494 0.0
C17 C 0.08625 0.068 0.07594 0.0
C18 C 0.10568 0.07628 0.07297 0.0
C19 C 0.08274 0.04723 0.07666 0.0
C20 C 0.09814 0.0349 0.07304 0.0
C21 C 0.11734 0.04316 0.06878 0.0
C22 C 0.12107 0.06401 0.06955 0.0
C23 C 0.00303 0.0707 0.12955 0.0
H24 H 0.016 0.13271 0.0103 0.0
H25 H 0.01892 0.1097 0.03667 0.0
H26 H 0.08003 0.13225 0.0466 0.0
H27 H 0.07709 0.15557 0.0205 0.0
H28 H 0.07898 0.09509 0.04954 0.0
H29 H 0.02376 0.112 0.07317 0.0
H30 H 0.0565 0.06949 0.10265 0.0
H31 H 0.02473 0.05828 0.11089 0.0
H32 H 0.01639 0.12061 0.10499 0.0
H33 H 0.99005 0.11847 0.12889 0.0
H34 H 0.10882 0.09228 0.07265 0.0
H35 H 0.06785 0.04048 0.07884 0.0
H36 H -1e-05 0.05677 0.13666 0.0
H37 H 0.1358 0.07087 0.06683 0.0
H38 H 0.09472 0.01891 0.07246 0.0
C39 C 0.34612 0.74346 0.26833 0.0
C40 C 0.35731 0.72723 0.27153 0.0
C41 C 0.32969 0.74123 0.25544 0.0
C42 C 0.32429 0.72275 0.24547 0.0
C43 C 0.33636 0.70697 0.24771 0.0
C44 C 0.3526 0.70915 0.2607 0.0
C45 C 0.30516 0.71917 0.2344 0.0
C46 C 0.2984 0.73328 0.22189 0.0
C47 C 0.27999 0.72963 0.21189 0.0
C48 C 0.26828 0.71179 0.21474 0.0
C49 C 0.27485 0.69766 0.22726 0.0
C50 C 0.29321 0.70151 0.23702 0.0
C51 C 0.26245 0.67908 0.23088 0.0
C52 C 0.24225 0.6796 0.23543 0.0
C53 C 0.27114 0.66087 0.23118 0.0
C54 C 0.26006 0.64368 0.23665 0.0
C55 C 0.24005 0.64433 0.24196 0.0
C56 C 0.27296 0.74428 0.19833 0.0
C57 C 0.27442 0.76473 0.20382 0.0
C58 C 0.2645 0.73781 0.17981 0.0
C59 C 0.25767 0.75146 0.16706 0.0
C60 C 0.25907 0.77191 0.17253 0.0
C61 C 0.26746 0.77841 0.19108 0.0
C62 C 0.23115 0.66239 0.24095 0.0
H63 H 0.34946 0.75756 0.27656 0.0
H64 H 0.32064 0.75363 0.2541 0.0
H65 H 0.33286 0.69269 0.23988 0.0
H66 H 0.36123 0.69652 0.26263 0.0
H67 H 0.30763 0.74687 0.2196 0.0
H68 H 0.29791 0.69093 0.24728 0.0
H69 H 0.254 0.70891 0.20728 0.0
H70 H 0.23523 0.69348 0.23551 0.0
H71 H 0.28662 0.66 0.22745 0.0
H72 H 0.26722 0.62991 0.23687 0.0
H73 H 0.28072 0.77014 0.21807 0.0
H74 H 0.26333 0.72216 0.17509 0.0
H75 H 0.21581 0.66342 0.24513 0.0
H76 H 0.26891 0.79409 0.19563 0.0
H77 H 0.25114 0.74597 0.15293 0.0
C78 C 0.95855 0.4964 0.13831 0.0
C79 C 0.97925 0.49636 0.13673 0.0
C80 C 0.94623 0.49047 0.12202 0.0
C81 C 0.9544 0.48464 0.10374 0.0
C82 C 0.97516 0.48444 0.10232 0.0
C83 C 0.98744 0.49009 0.11868 0.0
C84 C 0.94139 0.47932 0.08609 0.0
C85 C 0.92488 0.49001 0.08246 0.0
C86 C 0.91274 0.48554 0.06552 0.0
C87 C 0.91779 0.47035 0.05182 0.0
C88 C 0.93478 0.46014 0.05481 0.0
C89 C 0.94605 0.46426 0.07227 0.0
C90 C 0.94198 0.4465 0.03904 0.0
C91 C 0.929 0.43222 0.02863 0.0
C92 C 0.96218 0.44815 0.03403 0.0
C93 C 0.96929 0.43584 0.019 0.0
C94 C 0.95638 0.42158 0.00854 0.0
C95 C 0.89569 0.49767 0.0617 0.0
C96 C 0.88522 0.50604 0.07756 0.0
C97 C 0.89034 0.50188 0.04228 0.0
C98 C 0.87533 0.51441 0.03888 0.0
C99 C 0.86562 0.52366 0.05479 0.0
C100 C 0.87068 0.51908 0.07419 0.0
C101 C 0.93617 0.41977 0.01357 0.0
H102 H 0.95189 0.501 0.15216 0.0
H103 H 0.93031 0.49047 0.12376 0.0
H104 H 0.98203 0.48043 0.08841 0.0
H105 H 0.00338 0.49017 0.11706 0.0
H106 H 0.92204 0.50246 0.09249 0.0
H107 H 0.95871 0.45583 0.07491 0.0
H108 H 0.90895 0.46684 0.03849 0.0
H109 H 0.91337 0.43061 0.03223 0.0
H110 H 0.97252 0.4592 0.04158 0.0
H111 H 0.98498 0.43742 0.01566 0.0
H112 H 0.88843 0.50282 0.09273 0.0
H113 H 0.89806 0.496 0.02959 0.0
H114 H 0.92587 0.40895 0.00568 0.0
H115 H 0.86386 0.52593 0.08696 0.0
H116 H 0.87158 0.51697 0.02367 0.0
C117 C 0.72105 0.76613 0.17138 0.0
C118 C 0.74095 0.76424 0.16627 0.0
C119 C 0.71634 0.77829 0.18772 0.0
C120 C 0.73143 0.78886 0.19932 0.0
C121 C 0.75135 0.787 0.19423 0.0
C122 C 0.75607 0.77474 0.1779 0.0
C123 C 0.72631 0.80176 0.21667 0.0
C124 C 0.71129 0.79512 0.22966 0.0
C125 C 0.70605 0.8073 0.24591 0.0
C126 C 0.71585 0.82636 0.24904 0.0
C127 C 0.73073 0.83335 0.23613 0.0
C128 C 0.73606 0.82089 0.22009 0.0
C129 C 0.74033 0.85384 0.23936 0.0
C130 C 0.72876 0.86978 0.24397 0.0
C131 C 0.76107 0.85753 0.23855 0.0
C132 C 0.77009 0.87667 0.243 0.0
C133 C 0.75851 0.89251 0.24824 0.0
C134 C 0.69 0.80044 0.25938 0.0
C135 C 0.67163 0.79214 0.25168 0.0
C136 C 0.69267 0.80294 0.28003 0.0
C137 C 0.67713 0.7976 0.29274 0.0
C138 C 0.65856 0.78986 0.28503 0.0
C139 C 0.65601 0.78701 0.26438 0.0
C140 C 0.73773 0.88889 0.24832 0.0
H141 H 0.70907 0.75807 0.16283 0.0
H142 H 0.70085 0.77958 0.19115 0.0
H143 H 0.7633 0.79485 0.20298 0.0
H144 H 0.77154 0.7737 0.17423 0.0
H145 H 0.70387 0.7803 0.22733 0.0
H146 H 0.7473 0.82634 0.20988 0.0
H147 H 0.71171 0.83587 0.2615 0.0
H148 H 0.71271 0.86746 0.24431 0.0
H149 H 0.77036 0.84549 0.23514 0.0
H150 H 0.78614 0.87891 0.24298 0.0
H151 H 0.66915 0.79017 0.23581 0.0
H152 H 0.70675 0.80917 0.28634 0.0
H153 H 0.72837 0.90083 0.25187 0.0
H154 H 0.64188 0.78094 0.25807 0.0
H155 H 0.67945 0.8001 0.30858 0.0
C156 C 0.00259 0.99656 0.41501 0.0
C157 C 0.00594 0.99228 0.39473 0.0
C158 C 0.01511 0.99002 0.42948 0.0
C159 C 0.03128 0.97931 0.42392 0.0
C160 C 0.0343 0.97444 0.40384 0.0
C161 C 0.02163 0.98063 0.3894 0.0
C162 C 0.04615 0.97492 0.43879 0.0
C163 C 0.04151 0.96104 0.4532 0.0
C164 C 0.05596 0.95696 0.46717 0.0
C165 C 0.07481 0.96745 0.46696 0.0
C166 C 0.07946 0.98161 0.45285 0.0
C167 C 0.06513 0.98501 0.43857 0.0
C168 C 0.09892 0.9935 0.45365 0.0
C169 C 0.10652 0.00193 0.47187 0.0
C170 C 0.10976 0.99698 0.4363 0.0
C171 C 0.12778 0.00882 0.43716 0.0
C172 C 0.13513 0.01755 0.45536 0.0
C173 C 0.05166 0.94191 0.48218 0.0
C174 C 0.0339 0.9413 0.49291 0.0
C175 C 0.06584 0.92859 0.48649 0.0
C176 C 0.06266 0.9154 0.5016 0.0
C177 C 0.0452 0.91519 0.51279 0.0
C178 C 0.0307 0.92807 0.50809 0.0
C179 C 0.1244 0.01384 0.47271 0.0
H180 H 0.99082 0.00564 0.41971 0.0
H181 H 0.01269 0.99407 0.44495 0.0
H182 H 0.04671 0.96612 0.39931 0.0
H183 H 0.02436 0.97653 0.37402 0.0
H184 H 0.02687 0.95314 0.45319 0.0
H185 H 0.06846 0.99605 0.42769 0.0
H186 H 0.08588 0.96473 0.47797 0.0
H187 H 0.0984 0.99967 0.48545 0.0
H188 H 0.1043 0.99055 0.42208 0.0
H189 H 0.13571 0.01153 0.42356 0.0
H190 H 0.02276 0.9515 0.49001 0.0
H191 H 0.07951 0.92844 0.4782 0.0
H192 H 0.12982 0.02022 0.48696 0.0
H193 H 0.01714 0.92834 0.51652 0.0
H194 H 0.07391 0.90534 0.50453 0.0
C195 C 0.17122 0.73872 0.73851 0.0
C196 C 0.16777 0.75813 0.73341 0.0
C197 C 0.18486 0.73569 0.75355 0.0
C198 C 0.19511 0.75203 0.76389 0.0
C199 C 0.19213 0.77137 0.75833 0.0
C200 C 0.17866 0.77439 0.74326 0.0
C201 C 0.20803 0.74925 0.78121 0.0
C202 C 0.22248 0.73544 0.78029 0.0
C203 C 0.23515 0.73356 0.79661 0.0
C204 C 0.23334 0.74604 0.8138 0.0
C205 C 0.21881 0.75986 0.81506 0.0
C206 C 0.20596 0.76088 0.79875 0.0
C207 C 0.21719 0.77357 0.83305 0.0
C208 C 0.22275 0.76814 0.85205 0.0
C209 C 0.21012 0.79247 0.83131 0.0
C210 C 0.20832 0.8053 0.84791 0.0
C211 C 0.21443 0.8002 0.86682 0.0
C212 C 0.25014 0.71848 0.79588 0.0
C213 C 0.2456 0.69951 0.78648 0.0
C214 C 0.26883 0.72261 0.80521 0.0
C215 C 0.28224 0.70794 0.80585 0.0
C216 C 0.27745 0.68891 0.79689 0.0
C217 C 0.25916 0.68494 0.78688 0.0
C218 C 0.22169 0.78136 0.86861 0.0
H219 H 0.16316 0.72589 0.73105 0.0
H220 H 0.18685 0.72064 0.75756 0.0
H221 H 0.2 0.78424 0.76592 0.0
H222 H 0.17622 0.78952 0.73986 0.0
H223 H 0.22414 0.72655 0.76669 0.0
H224 H 0.19403 0.77065 0.79959 0.0
H225 H 0.2433 0.74491 0.82621 0.0
H226 H 0.2279 0.75365 0.8543 0.0
H227 H 0.20612 0.79768 0.81706 0.0
H228 H 0.20207 0.81929 0.8457 0.0
H229 H 0.23129 0.69566 0.77937 0.0
H230 H 0.27311 0.73716 0.81216 0.0
H231 H 0.22686 0.77678 0.88273 0.0
H232 H 0.25502 0.67031 0.78001 0.0
H233 H 0.29636 0.71145 0.81346 0.0
C234 C 0.94158 0.63492 0.51067 0.0
C235 C 0.96181 0.63715 0.516 0.0
C236 C 0.93435 0.61957 0.4972 0.0
C237 C 0.94723 0.60621 0.48878 0.0
C238 C 0.96763 0.6092 0.49327 0.0
C239 C 0.97484 0.62451 0.50672 0.0
C240 C 0.93931 0.58798 0.47718 0.0
C241 C 0.94962 0.58069 0.46072 0.0
C242 C 0.94405 0.56179 0.45191 0.0
C243 C 0.92771 0.55033 0.45914 0.0
C244 C 0.91697 0.55755 0.47529 0.0
C245 C 0.92279 0.57643 0.48414 0.0
C246 C 0.90099 0.54454 0.48407 0.0
C247 C 0.8867 0.53345 0.47191 0.0
C248 C 0.90061 0.54231 0.50464 0.0
C249 C 0.88653 0.5289 0.51284 0.0
C250 C 0.8725 0.5175 0.50066 0.0
C251 C 0.9569 0.55296 0.43695 0.0
C252 C 0.95935 0.56102 0.41833 0.0
C253 C 0.96749 0.53683 0.44173 0.0
C254 C 0.9807 0.52905 0.42823 0.0
C255 C 0.98331 0.53699 0.40946 0.0
C256 C 0.97225 0.55295 0.4046 0.0
C257 C 0.87252 0.52012 0.48014 0.0
H258 H 0.93117 0.64441 0.51763 0.0
H259 H 0.91858 0.61775 0.49387 0.0
H260 H 0.97794 0.59908 0.48721 0.0
H261 H 0.99056 0.62607 0.51032 0.0
H262 H 0.96262 0.58925 0.45538 0.0
H263 H 0.91498 0.5817 0.49708 0.0
H264 H 0.92393 0.53542 0.45272 0.0
H265 H 0.88662 0.53496 0.45602 0.0
H266 H 0.91158 0.55048 0.51434 0.0
H267 H 0.88674 0.52729 0.52872 0.0
H268 H 0.95123 0.57348 0.41442 0.0
H269 H 0.96595 0.5306 0.45617 0.0
H270 H 0.86196 0.51141 0.47039 0.0
H271 H 0.97352 0.55925 0.39019 0.0
H272 H 0.98923 0.51713 0.43279 0.0
C273 C 0.81417 0.79052 0.8625 0.0
C274 C 0.79742 0.77802 0.86725 0.0
C275 C 0.81348 0.80299 0.84666 0.0
C276 C 0.7961 0.80303 0.83506 0.0
C277 C 0.77926 0.79069 0.84005 0.0
C278 C 0.77989 0.77839 0.85603 0.0
C279 C 0.79575 0.81536 0.81742 0.0
C280 C 0.81241 0.81749 0.80522 0.0
C281 C 0.81221 0.82873 0.78833 0.0
C282 C 0.79501 0.83781 0.78337 0.0
C283 C 0.77817 0.83596 0.7955 0.0
C284 C 0.77873 0.82477 0.8125 0.0
C285 C 0.76015 0.84625 0.79113 0.0
C286 C 0.76175 0.86627 0.78609 0.0
C287 C 0.74116 0.83656 0.7936 0.0
C288 C 0.72423 0.84699 0.7923 0.0
C289 C 0.72589 0.86733 0.78845 0.0
C290 C 0.83015 0.8304 0.77596 0.0
C291 C 0.84856 0.83685 0.7848 0.0
C292 C 0.82943 0.82332 0.75606 0.0
C293 C 0.84704 0.82141 0.74558 0.0
C294 C 0.8656 0.82672 0.75483 0.0
C295 C 0.86609 0.83517 0.77431 0.0
C296 C 0.74477 0.87672 0.78476 0.0
H297 H 0.82779 0.7907 0.87109 0.0
H298 H 0.8266 0.8126 0.84352 0.0
H299 H 0.76572 0.79009 0.83128 0.0
H300 H 0.76683 0.76873 0.85924 0.0
H301 H 0.82551 0.80994 0.80853 0.0
H302 H 0.76604 0.82382 0.82222 0.0
H303 H 0.79481 0.84636 0.77022 0.0
H304 H 0.77617 0.87417 0.78421 0.0
H305 H 0.73943 0.82102 0.7971 0.0
H306 H 0.70985 0.83926 0.79485 0.0
H307 H 0.84941 0.84252 0.80011 0.0
H308 H 0.81536 0.81814 0.74902 0.0
H309 H 0.74655 0.89242 0.78193 0.0
H310 H 0.88008 0.83989 0.78171 0.0
H311 H 0.84612 0.81475 0.73064 0.0
C312 C 0.31696 0.27507 0.35243 0.0
C313 C 0.29977 0.26807 0.36245 0.0
C314 C 0.31561 0.28636 0.33572 0.0
C315 C 0.297 0.2905 0.32817 0.0
C316 C 0.27983 0.28317 0.338 0.0
C317 C 0.28121 0.27251 0.35504 0.0
C318 C 0.29538 0.30244 0.31024 0.0
C319 C 0.30956 0.30194 0.2951 0.0
C320 C 0.308 0.3132 0.27828 0.0
C321 C 0.29161 0.32452 0.27624 0.0
C322 C 0.27715 0.325 0.29102 0.0
C323 C 0.27945 0.31436 0.30811 0.0
C324 C 0.25959 0.33665 0.28897 0.0
C325 C 0.26158 0.35613 0.28233 0.0
C326 C 0.24076 0.32859 0.29465 0.0
C327 C 0.2245 0.34006 0.29469 0.0
C328 C 0.22667 0.35984 0.28899 0.0
C329 C 0.32364 0.31321 0.26296 0.0
C330 C 0.3438 0.3151 0.26857 0.0
C331 C 0.31859 0.31146 0.2427 0.0
C332 C 0.33341 0.31151 0.22835 0.0
C333 C 0.3536 0.31342 0.23396 0.0
C334 C 0.35861 0.31525 0.25424 0.0
C335 C 0.24524 0.36762 0.28232 0.0
H336 H 0.33156 0.27177 0.35731 0.0
H337 H 0.32926 0.29193 0.32889 0.0
H338 H 0.26515 0.28552 0.33255 0.0
H339 H 0.26755 0.26793 0.36242 0.0
H340 H 0.32169 0.29249 0.2961 0.0
H341 H 0.26886 0.31574 0.31996 0.0
H342 H 0.29015 0.333 0.26318 0.0
H343 H 0.27592 0.36278 0.27795 0.0
H344 H 0.23865 0.31347 0.2994 0.0
H345 H 0.21028 0.33356 0.29956 0.0
H346 H 0.34814 0.31678 0.28407 0.0
H347 H 0.30318 0.30974 0.23794 0.0
H348 H 0.24738 0.38289 0.27799 0.0
H349 H 0.37399 0.31709 0.25908 0.0
H350 H 0.32902 0.30974 0.21288 0.0
C351 C 0.4947 0.99022 0.62724 0.0
C352 C 0.51427 0.99217 0.62023 0.0
C353 C 0.47867 0.98694 0.61394 0.0
C354 C 0.48198 0.9853 0.59344 0.0
C355 C 0.50157 0.98711 0.58649 0.0
C356 C 0.51754 0.99057 0.59973 0.0
C357 C 0.46519 0.98161 0.57918 0.0
C358 C 0.44893 0.99332 0.5802 0.0
C359 C 0.43377 0.99085 0.56563 0.0
C360 C 0.43488 0.97597 0.55033 0.0
C361 C 0.45131 0.96459 0.54895 0.0
C362 C 0.4662 0.96729 0.56356 0.0
C363 C 0.45409 0.95129 0.53128 0.0
C364 C 0.43909 0.93682 0.52458 0.0
C365 C 0.47209 0.95315 0.52101 0.0
C366 C 0.47516 0.94066 0.50446 0.0
C367 C 0.46036 0.92593 0.4979 0.0
C368 C 0.41806 0.00513 0.56519 0.0
C369 C 0.41037 0.01339 0.5828 0.0
C370 C 0.41144 0.01151 0.54697 0.0
C371 C 0.39783 0.0259 0.54634 0.0
C372 C 0.39071 0.03474 0.5639 0.0
C373 C 0.39692 0.02809 0.58216 0.0
C374 C 0.44228 0.92409 0.50809 0.0
H375 H 0.49179 0.9916 0.64298 0.0
H376 H 0.4637 0.98552 0.61965 0.0
H377 H 0.50454 0.98611 0.57074 0.0
H378 H 0.53247 0.99192 0.59394 0.0
H379 H 0.44879 0.00512 0.59168 0.0
H380 H 0.47884 0.95837 0.56258 0.0
H381 H 0.42343 0.97379 0.53894 0.0
H382 H 0.42509 0.93514 0.53228 0.0
H383 H 0.48381 0.96435 0.52576 0.0
H384 H 0.48932 0.94227 0.49702 0.0
H385 H 0.41489 0.00867 0.59711 0.0
H386 H 0.41719 0.00587 0.53306 0.0
H387 H 0.43061 0.91287 0.50326 0.0
H388 H 0.3918 0.03457 0.596 0.0
H389 H 0.39303 0.03021 0.53196 0.0
C390 C 0.20406 0.25695 0.66776 0.0
C391 C 0.22119 0.25581 0.65621 0.0
C392 C 0.20471 0.26825 0.68569 0.0
C393 C 0.22254 0.27862 0.69256 0.0
C394 C 0.23978 0.27714 0.68122 0.0
C395 C 0.23912 0.26587 0.66325 0.0
C396 C 0.22294 0.29143 0.71117 0.0
C397 C 0.21196 0.28531 0.72768 0.0
C398 C 0.21139 0.29782 0.74487 0.0
C399 C 0.22235 0.31644 0.7457 0.0
C400 C 0.23319 0.32303 0.72925 0.0
C401 C 0.23343 0.31034 0.71207 0.0
C402 C 0.24326 0.34354 0.72955 0.0
C403 C 0.23451 0.35964 0.7391 0.0
C404 C 0.26141 0.34731 0.7198 0.0
C405 C 0.27036 0.36669 0.71928 0.0
C406 C 0.26152 0.38268 0.72874 0.0
C407 C 0.19778 0.29239 0.76119 0.0
C408 C 0.17786 0.28593 0.75685 0.0
C409 C 0.20404 0.29512 0.78111 0.0
C410 C 0.19045 0.29202 0.79641 0.0
C411 C 0.17036 0.28647 0.79198 0.0
C412 C 0.16427 0.2831 0.77209 0.0
C413 C 0.24364 0.37897 0.73884 0.0
H414 H 0.19007 0.24918 0.66291 0.0
H415 H 0.19109 0.26923 0.69392 0.0
H416 H 0.25379 0.28479 0.6862 0.0
H417 H 0.25255 0.26544 0.65464 0.0
H418 H 0.20369 0.27082 0.72716 0.0
H419 H 0.24104 0.31555 0.69901 0.0
H420 H 0.22185 0.32608 0.75898 0.0
H421 H 0.22034 0.35743 0.7464 0.0
H422 H 0.26878 0.33528 0.7126 0.0
H423 H 0.28431 0.36916 0.71162 0.0
H424 H 0.17259 0.2839 0.74164 0.0
H425 H 0.21935 0.30002 0.78482 0.0
H426 H 0.23647 0.39111 0.7461 0.0
H427 H 0.14887 0.27868 0.76833 0.0
H428 H 0.19545 0.29477 0.81165 0.0
C429 C 0.85561 0.262 0.77033 0.0
C430 C 0.8666 0.24678 0.7769 0.0
C431 C 0.83677 0.25748 0.76183 0.0
C432 C 0.82866 0.2376 0.75952 0.0
C433 C 0.83986 0.22238 0.76591 0.0
C434 C 0.85856 0.22694 0.77464 0.0
C435 C 0.80868 0.23267 0.75034 0.0
C436 C 0.80258 0.24292 0.73406 0.0
C437 C 0.78415 0.2376 0.72468 0.0
C438 C 0.77177 0.2218 0.7317 0.0
C439 C 0.77758 0.21146 0.74801 0.0
C440 C 0.79591 0.21715 0.75737 0.0
C441 C 0.76505 0.19406 0.75471 0.0
C442 C 0.76205 0.19142 0.77501 0.0
C443 C 0.75675 0.17948 0.74081 0.0
C444 C 0.74587 0.1625 0.74707 0.0
C445 C 0.74295 0.15976 0.76738 0.0
C446 C 0.77838 0.24791 0.70691 0.0
C447 C 0.7812 0.26876 0.70649 0.0
C448 C 0.77082 0.23686 0.68993 0.0
C449 C 0.76678 0.24642 0.67268 0.0
C450 C 0.77009 0.26722 0.67209 0.0
C451 C 0.777 0.27834 0.68927 0.0
C452 C 0.75109 0.17445 0.78128 0.0
H453 H 0.86143 0.27745 0.77212 0.0
H454 H 0.82846 0.26958 0.75732 0.0
H455 H 0.83432 0.20688 0.76395 0.0
H456 H 0.86688 0.21493 0.77939 0.0
H457 H 0.81253 0.25451 0.7281 0.0
H458 H 0.80042 0.20915 0.76993 0.0
H459 H 0.75752 0.21761 0.72454 0.0
H460 H 0.76812 0.20252 0.78604 0.0
H461 H 0.75912 0.18094 0.72509 0.0
H462 H 0.74008 0.15132 0.73598 0.0
H463 H 0.78685 0.27765 0.71943 0.0
H464 H 0.76864 0.22077 0.68978 0.0
H465 H 0.74884 0.17293 0.79701 0.0
H466 H 0.77981 0.29438 0.68918 0.0
H467 H 0.7613 0.2375 0.65969 0.0
C468 C 0.57498 0.64863 0.51857 0.0
C469 C 0.56153 0.66351 0.52001 0.0
C470 C 0.57685 0.6356 0.53376 0.0
C471 C 0.56615 0.63758 0.5515 0.0
C472 C 0.55416 0.65366 0.55369 0.0
C473 C 0.55149 0.66606 0.53808 0.0
C474 C 0.56614 0.62203 0.56669 0.0
C475 C 0.58165 0.60932 0.56762 0.0
C476 C 0.57983 0.59221 0.57877 0.0
C477 C 0.56322 0.58905 0.59092 0.0
C478 C 0.54809 0.6021 0.59117 0.0
C479 C 0.54949 0.61827 0.57884 0.0
C480 C 0.52978 0.59776 0.60273 0.0
C481 C 0.52026 0.57842 0.60206 0.0
C482 C 0.52125 0.61301 0.61383 0.0
C483 C 0.50348 0.60902 0.62394 0.0
C484 C 0.4938 0.58974 0.62293 0.0
C485 C 0.59349 0.57615 0.57531 0.0
C486 C 0.59942 0.57123 0.55588 0.0
C487 C 0.59877 0.56414 0.59065 0.0
C488 C 0.60873 0.54701 0.58644 0.0
C489 C 0.6135 0.54156 0.5668 0.0
C490 C 0.60934 0.55423 0.55171 0.0
C491 C 0.50248 0.57447 0.61203 0.0
H492 H 0.58385 0.64651 0.5055 0.0
H493 H 0.58619 0.62353 0.53098 0.0
H494 H 0.54623 0.65649 0.56726 0.0
H495 H 0.54092 0.67713 0.5402 0.0
H496 H 0.59495 0.61213 0.55905 0.0
H497 H 0.53686 0.62705 0.57793 0.0
H498 H 0.56154 0.57589 0.59951 0.0
H499 H 0.52633 0.56641 0.59345 0.0
H500 H 0.52833 0.62804 0.61464 0.0
H501 H 0.4971 0.62107 0.63219 0.0
H502 H 0.59545 0.57989 0.5436 0.0
H503 H 0.59465 0.56763 0.60582 0.0
H504 H 0.49551 0.5594 0.61122 0.0
H505 H 0.61319 0.55064 0.53648 0.0
H506 H 0.61182 0.53756 0.59838 0.0
C507 C 0.49313 0.47204 0.89183 0.0
C508 C 0.50079 0.47859 0.87375 0.0
C509 C 0.50584 0.46981 0.90786 0.0
C510 C 0.52644 0.47421 0.90618 0.0
C511 C 0.53411 0.48022 0.88794 0.0
C512 C 0.52144 0.48238 0.87193 0.0
C513 C 0.53982 0.47374 0.92364 0.0
C514 C 0.53781 0.45801 0.93658 0.0
C515 C 0.55038 0.45795 0.95326 0.0
C516 C 0.56473 0.47397 0.95712 0.0
C517 C 0.56672 0.48987 0.94451 0.0
C518 C 0.55438 0.48955 0.92772 0.0
C519 C 0.5811 0.50723 0.94934 0.0
C520 C 0.58201 0.5162 0.96859 0.0
C521 C 0.59368 0.5152 0.93474 0.0
C522 C 0.60694 0.53184 0.93932 0.0
C523 C 0.60765 0.54095 0.95851 0.0
C524 C 0.5484 0.44153 0.96709 0.0
C525 C 0.52972 0.43484 0.97431 0.0
C526 C 0.56538 0.43326 0.97406 0.0
C527 C 0.5638 0.41899 0.98836 0.0
C528 C 0.5452 0.41275 0.99613 0.0
C529 C 0.52814 0.42064 0.98873 0.0
C530 C 0.59509 0.53294 0.9731 0.0
H531 H 0.4773 0.46879 0.89362 0.0
H532 H 0.49948 0.46527 0.92177 0.0
H533 H 0.54994 0.48353 0.88614 0.0
H534 H 0.52782 0.48763 0.85829 0.0
H535 H 0.52674 0.44566 0.93349 0.0
H536 H 0.55558 0.50208 0.91823 0.0
H537 H 0.57423 0.47421 0.97015 0.0
H538 H 0.57235 0.51046 0.98007 0.0
H539 H 0.59332 0.50848 0.91981 0.0
H540 H 0.61642 0.53778 0.92779 0.0
H541 H 0.51641 0.44111 0.96934 0.0
H542 H 0.57995 0.43795 0.96853 0.0
H543 H 0.59548 0.53956 0.98807 0.0
H544 H 0.5136 0.41636 0.99454 0.0
H545 H 0.57719 0.41291 0.99337 0.0
C546 C 0.65025 0.26202 0.26415 0.0
C547 C 0.65605 0.26599 0.2447 0.0
C548 C 0.66415 0.25745 0.2782 0.0
C549 C 0.68429 0.25692 0.27331 0.0
C550 C 0.69015 0.26073 0.25383 0.0
C551 C 0.67616 0.26525 0.23967 0.0
C552 C 0.69898 0.25289 0.2888 0.0
C553 C 0.71415 0.24023 0.28474 0.0
C554 C 0.72731 0.23567 0.29986 0.0
C555 C 0.72516 0.24425 0.31911 0.0
C556 C 0.71037 0.25723 0.32324 0.0
C557 C 0.69746 0.2615 0.30801 0.0
C558 C 0.70832 0.26659 0.3434 0.0
C559 C 0.68943 0.2678 0.35172 0.0
C560 C 0.72506 0.27533 0.35396 0.0
C561 C 0.72286 0.28579 0.37212 0.0
C562 C 0.70388 0.28764 0.38008 0.0
C563 C 0.74292 0.22158 0.29581 0.0
C564 C 0.73942 0.20516 0.28214 0.0
C565 C 0.76133 0.22411 0.30598 0.0
C566 C 0.77554 0.21036 0.30297 0.0
C567 C 0.7719 0.19405 0.28937 0.0
C568 C 0.75383 0.19167 0.27882 0.0
C569 C 0.68723 0.27819 0.36986 0.0
H570 H 0.63497 0.26271 0.26866 0.0
H571 H 0.65906 0.25431 0.29298 0.0
H572 H 0.70557 0.26057 0.24963 0.0
H573 H 0.68109 0.26804 0.22478 0.0
H574 H 0.71552 0.2338 0.26985 0.0
H575 H 0.68632 0.27189 0.31107 0.0
H576 H 0.73463 0.24045 0.33112 0.0
H577 H 0.67629 0.26089 0.34407 0.0
H578 H 0.73979 0.27477 0.34783 0.0
H579 H 0.73598 0.29307 0.37952 0.0
H580 H 0.72536 0.20238 0.2743 0.0
H581 H 0.76485 0.23675 0.31627 0.0
H582 H 0.67245 0.27899 0.37579 0.0
H583 H 0.75066 0.17907 0.26838 0.0
H584 H 0.78947 0.21256 0.31113 0.0
C585 C 0.47593 0.11952 0.0148 0.0
C586 C 0.478 0.11735 0.03529 0.0
C587 C 0.46968 0.10317 0.00212 0.0
C588 C 0.46549 0.08423 0.0096 0.0
C589 C 0.46774 0.08202 0.03006 0.0
C590 C 0.47383 0.09839 0.04275 0.0
C591 C 0.45867 0.06684 0.99616 0.0
C592 C 0.46688 0.0644 0.97723 0.0
C593 C 0.46049 0.04802 0.96445 0.0
C594 C 0.44571 0.03396 0.97077 0.0
C595 C 0.43746 0.03609 0.98968 0.0
C596 C 0.44394 0.05257 0.00225 0.0
C597 C 0.42199 0.02112 0.99629 0.0
C598 C 0.40582 0.01455 0.9838 0.0
C599 C 0.42328 0.01334 0.01512 0.0
C600 C 0.40866 0.99922 0.02135 0.0
C601 C 0.39238 0.99282 0.00894 0.0
C602 C 0.46963 0.04534 0.94471 0.0
C603 C 0.47332 0.06161 0.93268 0.0
C604 C 0.47515 0.02656 0.93796 0.0
C605 C 0.48455 0.02417 0.91976 0.0
C606 C 0.48858 0.04051 0.9079 0.0
C607 C 0.48267 0.05922 0.91444 0.0
C608 C 0.39111 0.0006 0.9901 0.0
H609 H 0.47924 0.13385 0.0085 0.0
H610 H 0.46789 0.10546 0.98648 0.0
H611 H 0.46491 0.0676 0.0363 0.0
H612 H 0.47499 0.0962 0.05847 0.0
H613 H 0.47871 0.07495 0.97263 0.0
H614 H 0.43713 0.05448 0.01663 0.0
H615 H 0.4407 0.02127 0.96101 0.0
H616 H 0.40441 0.0204 0.96926 0.0
H617 H 0.4357 0.01806 0.02496 0.0
H618 H 0.40991 0.99354 0.03598 0.0
H619 H 0.46904 0.07622 0.93741 0.0
H620 H 0.47265 0.01377 0.94697 0.0
H621 H 0.37879 0.99578 0.98017 0.0
H622 H 0.48575 0.07212 0.9057 0.0
H623 H 0.48877 0.00954 0.91502 0.0
O624 O 0.22702 0.86524 0.00771 0.0
Cd625 Cd 0.23962 0.87521 0.03474 0.0
Cd626 Cd 0.22538 0.91224 0.02418 0.0
O627 O 0.2178 0.89433 0.9992 0.0
O628 O 0.24567 0.85081 0.04806 0.0
O629 O 0.2257 0.87236 0.06085 0.0
C630 C 0.23465 0.85631 0.06249 0.0
C631 C 0.20546 0.93885 0.03033 0.0
C632 C 0.2195 0.87594 0.99515 0.0
C633 C 0.26953 0.91031 0.03213 0.0
O634 O 0.25506 0.92056 0.02876 0.0
O635 O 0.26666 0.89174 0.03448 0.0
O636 O 0.2171 0.93803 0.01541 0.0
O637 O 0.20466 0.92418 0.04191 0.0
O638 O 0.14412 0.52171 0.289 0.0
Cd639 Cd 0.12393 0.49744 0.29316 0.0
Cd640 Cd 0.09942 0.52325 0.27134 0.0
O641 O 0.12659 0.53864 0.26903 0.0
O642 O 0.13949 0.47958 0.30843 0.0
O643 O 0.12845 0.47162 0.27792 0.0
C644 C 0.13794 0.46699 0.29345 0.0
C645 C 0.07768 0.52281 0.24435 0.0
C646 C 0.14274 0.53627 0.27796 0.0
C647 C 0.08647 0.51165 0.3118 0.0
O648 O 0.08516 0.52355 0.29801 0.0
O649 O 0.09976 0.4994 0.31157 0.0
O650 O 0.0818 0.53864 0.25553 0.0
O651 O 0.08649 0.50711 0.24808 0.0
O652 O 0.75802 0.69098 0.98396 0.0
Cd653 Cd 0.74478 0.67531 0.00636 0.0
Cd654 Cd 0.76385 0.64541 0.99 0.0
O655 O 0.77703 0.66767 0.97341 0.0
O656 O 0.7362 0.69546 0.02634 0.0
O657 O 0.75892 0.67469 0.03252 0.0
C658 C 0.74862 0.68906 0.03861 0.0
C659 C 0.78307 0.62546 0.00788 0.0
C660 C 0.77153 0.68518 0.97259 0.0
C661 C 0.71953 0.64006 0.98894 0.0
O662 O 0.7355 0.63343 0.98254 0.0
O663 O 0.7201 0.65621 0.99952 0.0
O664 O 0.7816 0.62325 0.98883 0.0
O665 O 0.77398 0.63941 0.01679 0.0
O666 O 0.90499 0.03226 0.28645 0.0
Cd667 Cd 0.88366 0.03623 0.26541 0.0
Cd668 Cd 0.8656 0.05075 0.2986 0.0
O669 O 0.89161 0.04572 0.31315 0.0
O670 O 0.89745 0.03244 0.23955 0.0
O671 O 0.88742 0.0613 0.25061 0.0
C672 C 0.89657 0.05122 0.23735 0.0
C673 C 0.85495 0.08213 0.29412 0.0
C674 C 0.90581 0.03738 0.30482 0.0
C675 C 0.84464 0.01522 0.27705 0.0
O676 O 0.84531 0.02679 0.29254 0.0
O677 O 0.85803 0.01709 0.26396 0.0
O678 O 0.85205 0.07366 0.31072 0.0
O679 O 0.86465 0.07303 0.28052 0.0
O680 O 0.26216 0.18012 0.47951 0.0
Cd681 Cd 0.25011 0.16324 0.50172 0.0
Cd682 Cd 0.28214 0.1433 0.49497 0.0
O683 O 0.29157 0.16821 0.47991 0.0
O684 O 0.22974 0.17932 0.51413 0.0
O685 O 0.25628 0.17133 0.53033 0.0
C686 C 0.24007 0.18026 0.53031 0.0
C687 C 0.30361 0.13028 0.51705 0.0
C688 C 0.28004 0.18059 0.47381 0.0
C689 C 0.24272 0.12187 0.48439 0.0
O690 O 0.26135 0.12238 0.48169 0.0
O691 O 0.23528 0.13629 0.49362 0.0
O692 O 0.30625 0.12884 0.49817 0.0
O693 O 0.28897 0.13981 0.52361 0.0
O694 O 0.40076 0.52164 0.76337 0.0
Cd695 Cd 0.38026 0.53247 0.74476 0.0
Cd696 Cd 0.36138 0.53799 0.77984 0.0
O697 O 0.38731 0.52959 0.79202 0.0
O698 O 0.39263 0.52893 0.71837 0.0
O699 O 0.38765 0.55858 0.73194 0.0
C700 C 0.39405 0.54795 0.71731 0.0
C701 C 0.35046 0.56918 0.7875 0.0
C702 C 0.40128 0.52242 0.78221 0.0
C703 C 0.34043 0.50937 0.75084 0.0
O704 O 0.34095 0.5156 0.76892 0.0
O705 O 0.35386 0.51556 0.73906 0.0
O706 O 0.34862 0.55521 0.7999 0.0
O707 O 0.35882 0.56551 0.77069 0.0
O708 O 0.73164 0.36572 0.51382 0.0
Cd709 Cd 0.74417 0.37821 0.53991 0.0
Cd710 Cd 0.71929 0.41036 0.52807 0.0
O711 O 0.71104 0.38819 0.50681 0.0
O712 O 0.76037 0.35635 0.54718 0.0
O713 O 0.73642 0.36671 0.56615 0.0
C714 C 0.75007 0.35465 0.56303 0.0
C715 C 0.69398 0.43066 0.53673 0.0
C716 C 0.71816 0.37162 0.50292 0.0
C717 C 0.76393 0.41929 0.53283 0.0
O718 O 0.74736 0.42486 0.52724 0.0
O719 O 0.76525 0.40195 0.53897 0.0
O720 O 0.70205 0.4309 0.51957 0.0
O721 O 0.70036 0.41897 0.54944 0.0
O722 O 0.6488 0.02982 0.79924 0.0
Cd723 Cd 0.62728 0.00626 0.79865 0.0
Cd724 Cd 0.61141 0.02427 0.76782 0.0
O725 O 0.63743 0.042 0.77215 0.0
O726 O 0.63783 0.98475 0.81355 0.0
O727 O 0.63194 0.98217 0.78112 0.0
C728 C 0.63808 0.97447 0.79695 0.0
C729 C 0.60156 0.01683 0.73507 0.0
C730 C 0.65027 0.04257 0.78602 0.0
C731 C 0.58665 0.0206 0.80419 0.0
O732 O 0.58858 0.0279 0.78728 0.0
O733 O 0.60014 0.01078 0.81111 0.0
O734 O 0.60166 0.0346 0.74292 0.0
O735 O 0.60721 0.00297 0.74577 0.0
O736 O 0.99187 0.29915 0.92233 0.0
Cd737 Cd 0.99491 0.27223 0.90731 0.0
Cd738 Cd 0.01928 0.29405 0.88427 0.0
O739 O 0.01326 0.31674 0.90433 0.0
O740 O 0.99056 0.25051 0.92608 0.0
O741 O 0.01932 0.25819 0.91158 0.0
C742 C 0.00898 0.24727 0.92356 0.0
C743 C 0.0519 0.29166 0.8739 0.0
C744 C 0.0011 0.3157 0.91858 0.0
C745 C 0.98208 0.27307 0.86535 0.0
O746 O 0.99764 0.28471 0.86347 0.0
O747 O 0.97808 0.26566 0.88192 0.0
O748 O 0.04138 0.3053 0.86786 0.0
O749 O 0.04405 0.27953 0.88636 0.0
O750 O 0.48686 0.79838 0.41608 0.0
Cd751 Cd 0.48933 0.76963 0.40493 0.0
Cd752 Cd 0.50345 0.78918 0.37334 0.0
O753 O 0.49901 0.81436 0.39059 0.0
O754 O 0.49013 0.75292 0.42848 0.0
O755 O 0.51467 0.75641 0.40699 0.0
C756 C 0.50759 0.74878 0.42285 0.0
C757 C 0.53467 0.78537 0.36006 0.0
C758 C 0.49163 0.81459 0.40783 0.0
C759 C 0.46636 0.76167 0.36701 0.0
O760 O 0.47896 0.77418 0.35962 0.0
O761 O 0.4679 0.75723 0.385 0.0
O762 O 0.52265 0.79671 0.35216 0.0
O763 O 0.52891 0.77623 0.3756 0.0
O764 O 0.98876 0.7811 0.67076 0.0
Cd765 Cd 0.00981 0.77077 0.65166 0.0
Cd766 Cd 0.98788 0.78971 0.62537 0.0
O767 O 0.97048 0.79562 0.64948 0.0
O768 O 0.02928 0.75976 0.66948 0.0
O769 O 0.03726 0.78489 0.65054 0.0
C770 C 0.04261 0.77267 0.66329 0.0
C771 C 0.00317 0.81581 0.60859 0.0
C772 C 0.97387 0.79072 0.66703 0.0
C773 C 0.99175 0.74668 0.61593 0.0
O774 O 0.9842 0.76223 0.61061 0.0
O775 O 0.00218 0.74719 0.63169 0.0
O776 O 0.98463 0.81008 0.60566 0.0
O777 O 0.013 0.80678 0.62139 0.0
O778 O 0.48173 0.28611 0.15815 0.0
Cd779 Cd 0.50711 0.27494 0.14666 0.0
Cd780 Cd 0.493 0.28834 0.11224 0.0
O781 O 0.4702 0.29644 0.13017 0.0
O782 O 0.52309 0.26869 0.16998 0.0
O783 O 0.53394 0.29047 0.14834 0.0
C784 C 0.5372 0.28087 0.16397 0.0
C785 C 0.50857 0.31256 0.09303 0.0
C786 C 0.46848 0.29418 0.14866 0.0
C787 C 0.49862 0.24491 0.11241 0.0
O788 O 0.49323 0.25896 0.10234 0.0
O789 O 0.50446 0.24828 0.13026 0.0
O790 O 0.49143 0.30379 0.0881 0.0
O791 O 0.51699 0.30748 0.10904 0.0
H792 H 0.21018 0.79239 0.90679 0.0
H793 H 0.21765 0.84131 0.86711 0.0
H794 H 0.21531 0.8651 0.89534 0.0
H795 H 0.17809 0.81465 0.94282 0.0
H796 H 0.19053 0.80557 0.96381 0.0
H797 H 0.19005 0.79175 0.94024 0.0
H798 H 0.22849 0.79295 0.94073 0.0
H799 H 0.22906 0.80658 0.96436 0.0
H800 H 0.2428 0.81668 0.94388 0.0
H801 H 0.21274 0.88393 0.92752 0.0
H802 H 0.21537 0.89691 0.9622 0.0
H803 H 0.21404 0.83647 0.9818 0.0
C804 C 0.21143 0.80805 0.90386 0.0
C805 C 0.21354 0.81466 0.88431 0.0
C806 C 0.2151 0.83549 0.88158 0.0
C807 C 0.21397 0.84928 0.89762 0.0
C808 C 0.21175 0.8422 0.91651 0.0
C809 C 0.21094 0.82213 0.9198 0.0
C810 C 0.21061 0.81866 0.94183 0.0
C811 C 0.19116 0.80696 0.9475 0.0
C812 C 0.22882 0.8081 0.94806 0.0
C813 C 0.21162 0.83997 0.95032 0.0
C814 C 0.21176 0.85323 0.93539 0.0
C815 C 0.21269 0.87372 0.93937 0.0
C816 C 0.21408 0.88094 0.95916 0.0
C817 C 0.21496 0.86772 0.97475 0.0
C818 C 0.21339 0.84693 0.97022 0.0
H819 H 0.00666 0.5576 0.38274 0.0
H820 H 0.99323 0.49826 0.40397 0.0
H821 H 0.0191 0.48569 0.38236 0.0
H822 H 0.01351 0.54069 0.33161 0.0
H823 H 0.03295 0.55996 0.32755 0.0
H824 H 0.01381 0.56438 0.34527 0.0
H825 H 0.04072 0.5736 0.37248 0.0
H826 H 0.05994 0.569 0.3549 0.0
H827 H 0.05861 0.55608 0.37763 0.0
H828 H 0.04751 0.47986 0.35946 0.0
H829 H 0.07372 0.48045 0.33404 0.0
H830 H 0.06611 0.54273 0.32563 0.0
C831 C 0.00882 0.54188 0.38269 0.0
C832 C 0.99795 0.52904 0.39537 0.0
C833 C 0.00165 0.50861 0.39487 0.0
C834 C 0.01624 0.50125 0.38252 0.0
C835 C 0.0268 0.5144 0.37048 0.0
C836 C 0.02303 0.5342 0.37019 0.0
C837 C 0.03599 0.54509 0.35537 0.0
C838 C 0.02331 0.55299 0.33898 0.0
C839 C 0.04962 0.56193 0.36572 0.0
C840 C 0.04773 0.52832 0.34745 0.0
C841 C 0.04241 0.5108 0.35653 0.0
C842 C 0.05168 0.49344 0.3521 0.0
C843 C 0.0666 0.49394 0.33775 0.0
C844 C 0.07179 0.51159 0.32784 0.0
C845 C 0.06227 0.52898 0.33285 0.0
H846 H 0.7705 0.77156 0.89678 0.0
H847 H 0.82632 0.75304 0.87402 0.0
H848 H 0.82689 0.72837 0.89986 0.0
H849 H 0.78194 0.76618 0.94923 0.0
H850 H 0.75682 0.75722 0.95476 0.0
H851 H 0.76149 0.77414 0.93521 0.0
H852 H 0.74202 0.74903 0.91041 0.0
H853 H 0.73731 0.73204 0.92985 0.0
H854 H 0.74923 0.72391 0.90743 0.0
H855 H 0.81977 0.7038 0.92629 0.0
H856 H 0.80638 0.68234 0.9525 0.0
H857 H 0.75587 0.71791 0.95863 0.0
C858 C 0.78289 0.76239 0.89734 0.0
C859 C 0.79837 0.76416 0.88346 0.0
C860 C 0.81442 0.75202 0.88468 0.0
C861 C 0.81484 0.73795 0.89924 0.0
C862 C 0.79921 0.73641 0.91258 0.0
C863 C 0.78364 0.74845 0.91189 0.0
C864 C 0.76847 0.74355 0.92764 0.0
C865 C 0.76711 0.76133 0.9426 0.0
C866 C 0.74806 0.73672 0.91827 0.0
C867 C 0.77769 0.72657 0.93702 0.0
C868 C 0.79542 0.72266 0.92814 0.0
C869 C 0.80605 0.70689 0.93356 0.0
C870 C 0.79831 0.69476 0.9484 0.0
C871 C 0.78019 0.69857 0.95771 0.0
C872 C 0.76992 0.71482 0.95202 0.0
H873 H 0.96586 0.9983 0.39519 0.0
H874 H 0.01863 0.00578 0.35896 0.0
H875 H 0.99885 0.01894 0.33274 0.0
H876 H 0.9313 0.98376 0.35633 0.0
H877 H 0.91168 0.99752 0.3666 0.0
H878 H 0.92994 0.98865 0.38276 0.0
H879 H 0.93838 0.02456 0.39757 0.0
H880 H 0.92014 0.03356 0.38143 0.0
H881 H 0.94548 0.04423 0.38128 0.0
H882 H 0.97337 0.02942 0.30967 0.0
H883 H 0.94367 0.03819 0.29166 0.0
H884 H 0.90778 0.02686 0.34353 0.0
C885 C 0.97336 0.00292 0.38187 0.0
C886 C 0.99383 0.00066 0.37913 0.0
C887 C 0.0029 0.00676 0.36131 0.0
C888 C 0.99183 0.01449 0.34635 0.0
C889 C 0.97174 0.01637 0.3495 0.0
C890 C 0.96258 0.01096 0.36686 0.0
C891 C 0.94072 0.01455 0.36637 0.0
C892 C 0.92764 0.99495 0.36811 0.0
C893 C 0.9359 0.03016 0.38263 0.0
C894 C 0.93901 0.02255 0.34591 0.0
C895 C 0.95711 0.02338 0.33644 0.0
C896 C 0.95916 0.02912 0.317 0.0
C897 C 0.94223 0.03401 0.30689 0.0
C898 C 0.92355 0.0334 0.31631 0.0
C899 C 0.92198 0.02783 0.33615 0.0
H900 H 0.24847 0.2318 0.63967 0.0
H901 H 0.19171 0.25514 0.62814 0.0
H902 H 0.18997 0.23733 0.59533 0.0
H903 H 0.26725 0.23625 0.5905 0.0
H904 H 0.27971 0.21362 0.59043 0.0
H905 H 0.27615 0.22749 0.61344 0.0
H906 H 0.25832 0.19603 0.6279 0.0
H907 H 0.26179 0.18207 0.60492 0.0
H908 H 0.23721 0.1833 0.61487 0.0
H909 H 0.19469 0.21802 0.56356 0.0
H910 H 0.20562 0.19837 0.53454 0.0
H911 H 0.25961 0.18776 0.5662 0.0
C912 C 0.23569 0.23321 0.63023 0.0
C913 C 0.22015 0.24477 0.63657 0.0
C914 C 0.20362 0.24608 0.6238 0.0
C915 C 0.20254 0.23612 0.60508 0.0
C916 C 0.2181 0.22489 0.5993 0.0
C917 C 0.23437 0.22336 0.61146 0.0
C918 C 0.24924 0.21062 0.60144 0.0
C919 C 0.26927 0.22272 0.5988 0.0
C920 C 0.25178 0.19189 0.61297 0.0
C921 C 0.23884 0.20539 0.58169 0.0
C922 C 0.22088 0.21374 0.58084 0.0
C923 C 0.20869 0.21134 0.56406 0.0
C924 C 0.21506 0.20015 0.54764 0.0
C925 C 0.23347 0.1915 0.54809 0.0
C926 C 0.24544 0.19411 0.56542 0.0
H927 H 0.48373 0.60133 0.6609 0.0
H928 H 0.46081 0.56794 0.60788 0.0
H929 H 0.43014 0.55766 0.62551 0.0
H930 H 0.4674 0.56686 0.69417 0.0
H931 H 0.46081 0.58439 0.71356 0.0
H932 H 0.47962 0.59168 0.69607 0.0
H933 H 0.46012 0.62148 0.68692 0.0
H934 H 0.44119 0.61427 0.70446 0.0
H935 H 0.43455 0.61711 0.67892 0.0
H936 H 0.40483 0.54681 0.64967 0.0
H937 H 0.3859 0.53649 0.67908 0.0
H938 H 0.42371 0.57801 0.71647 0.0
C939 C 0.47199 0.59235 0.65286 0.0
C940 C 0.47463 0.5854 0.63304 0.0
C941 C 0.45916 0.57326 0.62313 0.0
C942 C 0.44161 0.5675 0.63296 0.0
C943 C 0.43965 0.57418 0.65264 0.0
C944 C 0.45432 0.58647 0.66248 0.0
C945 C 0.4492 0.58999 0.68414 0.0
C946 C 0.4652 0.58279 0.69778 0.0
C947 C 0.44608 0.61203 0.68888 0.0
C948 C 0.42982 0.57706 0.68509 0.0
C949 C 0.4245 0.56828 0.66666 0.0
C950 C 0.40848 0.554 0.66408 0.0
C951 C 0.39785 0.5482 0.68082 0.0
C952 C 0.40315 0.55684 0.69981 0.0
C953 C 0.419 0.57178 0.70194 0.0
H954 H 0.7517 0.30141 0.66621 0.0
H955 H 0.78309 0.25555 0.6356 0.0
H956 H 0.78037 0.27252 0.60432 0.0
H957 H 0.71751 0.30846 0.62561 0.0
H958 H 0.71796 0.33501 0.63056 0.0
H959 H 0.72177 0.31894 0.65051 0.0
H960 H 0.75521 0.33915 0.65942 0.0
H961 H 0.75152 0.35524 0.63948 0.0
H962 H 0.77384 0.34241 0.64063 0.0
H963 H 0.77621 0.29518 0.5771 0.0
H964 H 0.76924 0.32147 0.55467 0.0
H965 H 0.73951 0.35249 0.60228 0.0
C966 C 0.75793 0.29495 0.65288 0.0
C967 C 0.76753 0.27712 0.65327 0.0
C968 C 0.77543 0.26903 0.63555 0.0
C969 C 0.77405 0.27861 0.61776 0.0
C970 C 0.7646 0.29619 0.6179 0.0
C971 C 0.75652 0.30424 0.63491 0.0
C972 C 0.74728 0.32341 0.63092 0.0
C973 C 0.72479 0.32132 0.63462 0.0
C974 C 0.75758 0.3411 0.64335 0.0
C975 C 0.75169 0.32499 0.60906 0.0
C976 C 0.76175 0.30913 0.60192 0.0
C977 C 0.76818 0.30758 0.58243 0.0
C978 C 0.76421 0.32263 0.56984 0.0
C979 C 0.75377 0.33896 0.57673 0.0
C980 C 0.74733 0.34007 0.59658 0.0
H981 H 0.52145 0.97402 0.65472 0.0
H982 H 0.54518 0.02042 0.6172 0.0
H983 H 0.57285 0.02895 0.64096 0.0
H984 H 0.53119 0.00033 0.70008 0.0
H985 H 0.53798 0.97929 0.71327 0.0
H986 H 0.52123 0.97551 0.69236 0.0
H987 H 0.54438 0.95102 0.67559 0.0
H988 H 0.56129 0.95483 0.69645 0.0
H989 H 0.57011 0.9591 0.67178 0.0
H990 H 0.59503 0.03536 0.67037 0.0
H991 H 0.61108 0.03863 0.70349 0.0
H992 H 0.5746 0.98689 0.72139 0.0
C993 C 0.53261 0.98584 0.65146 0.0
C994 C 0.53127 0.99654 0.63414 0.0
C995 C 0.5461 0.01189 0.63029 0.0
C996 C 0.56185 0.01683 0.64368 0.0
C997 C 0.56269 0.00608 0.66069 0.0
C998 C 0.54858 0.9908 0.66457 0.0
C999 C 0.5524 0.98234 0.68447 0.0
C1000 C 0.53465 0.98451 0.69836 0.0
C1001 C 0.55734 0.96053 0.68191 0.0
C1002 C 0.57041 0.99578 0.69149 0.0
C1003 C 0.57615 0.00929 0.67746 0.0
C1004 C 0.59104 0.02457 0.68128 0.0
C1005 C 0.60005 0.02632 0.70008 0.0
C1006 C 0.59432 0.01272 0.71464 0.0
C1007 C 0.57966 0.997 0.71018 0.0
H1008 H 0.87986 0.23372 0.81183 0.0
H1009 H 0.89752 0.27091 0.7634 0.0
H1010 H 0.9302 0.27965 0.77971 0.0
H1011 H 0.9017 0.26611 0.84996 0.0
H1012 H 0.90928 0.24659 0.86488 0.0
H1013 H 0.88804 0.24195 0.84858 0.0
H1014 H 0.90397 0.21195 0.83154 0.0
H1015 H 0.9253 0.21651 0.84779 0.0
H1016 H 0.9285 0.21557 0.8213 0.0
H1017 H 0.96022 0.28524 0.80177 0.0
H1018 H 0.98494 0.28907 0.82896 0.0
H1019 H 0.94731 0.24878 0.8635 0.0
C1020 C 0.89076 0.24345 0.80453 0.0
C1021 C 0.88633 0.25158 0.78633 0.0
C1022 C 0.9007 0.26461 0.77739 0.0
C1023 C 0.9193 0.26953 0.78646 0.0
C1024 C 0.92318 0.26134 0.80448 0.0
C1025 C 0.90929 0.24865 0.81347 0.0
C1026 C 0.91669 0.24293 0.83344 0.0
C1027 C 0.90312 0.24982 0.8502 0.0
C1028 C 0.91874 0.2204 0.83351 0.0
C1029 C 0.93679 0.25463 0.83441 0.0
C1030 C 0.94034 0.26492 0.81744 0.0
C1031 C 0.95767 0.27718 0.81509 0.0
C1032 C 0.97162 0.27924 0.83065 0.0
C1033 C 0.96807 0.26924 0.8484 0.0
C1034 C 0.95051 0.25657 0.85012 0.0
H1035 H 0.45408 0.8853 0.49555 0.0
H1036 H 0.47603 0.93565 0.46215 0.0
H1037 H 0.48563 0.9126 0.43494 0.0
H1038 H 0.49231 0.85481 0.48287 0.0
H1039 H 0.47663 0.83184 0.4811 0.0
H1040 H 0.46995 0.85222 0.49725 0.0
H1041 H 0.43573 0.85152 0.47953 0.0
H1042 H 0.44222 0.83098 0.46345 0.0
H1043 H 0.43469 0.85328 0.45301 0.0
H1044 H 0.49438 0.88414 0.41225 0.0
H1045 H 0.50111 0.85218 0.39525 0.0
H1046 H 0.47374 0.82044 0.44375 0.0
C1047 C 0.4605 0.89145 0.48231 0.0
C1048 C 0.46426 0.91221 0.48086 0.0
C1049 C 0.47311 0.91975 0.46353 0.0
C1050 C 0.47855 0.9068 0.44801 0.0
C1051 C 0.47503 0.88638 0.45008 0.0
C1052 C 0.46613 0.87873 0.46674 0.0
C1053 C 0.46484 0.8562 0.46566 0.0
C1054 C 0.47664 0.84831 0.48273 0.0
C1055 C 0.44307 0.84749 0.46539 0.0
C1056 C 0.47462 0.85239 0.44589 0.0
C1057 C 0.48029 0.86998 0.4371 0.0
C1058 C 0.4899 0.87025 0.41893 0.0
C1059 C 0.4937 0.85201 0.40942 0.0
C1060 C 0.48797 0.83378 0.41816 0.0
C1061 C 0.47834 0.83409 0.43666 0.0
H1062 H 0.13628 0.30507 0.79351 0.0
H1063 H 0.1709 0.26604 0.82611 0.0
H1064 H 0.14486 0.26395 0.85187 0.0
H1065 H 0.11811 0.33221 0.8365 0.0
H1066 H 0.09418 0.33441 0.82524 0.0
H1067 H 0.11582 0.33308 0.80996 0.0
H1068 H 0.09845 0.3028 0.78967 0.0
H1069 H 0.07677 0.30404 0.80486 0.0
H1070 H 0.08888 0.28123 0.80238 0.0
H1071 H 0.11351 0.26452 0.87272 0.0
H1072 H 0.08067 0.26908 0.88765 0.0
H1073 H 0.06806 0.30897 0.8416 0.0
C1074 C 0.13836 0.29608 0.80609 0.0
C1075 C 0.15541 0.28555 0.80784 0.0
C1076 C 0.15787 0.2742 0.82461 0.0
C1077 C 0.14318 0.27292 0.83923 0.0
C1078 C 0.12638 0.28335 0.83693 0.0
C1079 C 0.12406 0.29488 0.82085 0.0
C1080 C 0.10471 0.3046 0.82165 0.0
C1081 C 0.10844 0.32743 0.82345 0.0
C1082 C 0.09142 0.29775 0.80357 0.0
C1083 C 0.09625 0.29648 0.84051 0.0
C1084 C 0.10887 0.28422 0.84915 0.0
C1085 C 0.10363 0.27429 0.86621 0.0
C1086 C 0.08497 0.27694 0.87456 0.0
C1087 C 0.07193 0.28952 0.86588 0.0
C1088 C 0.07781 0.29949 0.84876 0.0
H1089 H 0.54614 0.70069 0.51942 0.0
H1090 H 0.56594 0.65326 0.48002 0.0
H1091 H 0.55769 0.67188 0.45147 0.0
H1092 H 0.50289 0.70549 0.49087 0.0
H1093 H 0.50289 0.73198 0.49594 0.0
H1094 H 0.5136 0.7168 0.51366 0.0
H1095 H 0.54681 0.73886 0.51271 0.0
H1096 H 0.53621 0.75412 0.49494 0.0
H1097 H 0.55881 0.74265 0.48928 0.0
H1098 H 0.54651 0.69522 0.42666 0.0
H1099 H 0.52922 0.71938 0.40784 0.0
H1100 H 0.51151 0.7481 0.46302 0.0
C1101 C 0.54877 0.69393 0.50494 0.0
C1102 C 0.55722 0.6754 0.50248 0.0
C1103 C 0.56037 0.66769 0.48285 0.0
C1104 C 0.5555 0.67809 0.4663 0.0
C1105 C 0.54697 0.69603 0.4694 0.0
C1106 C 0.54328 0.70371 0.48821 0.0
C1107 C 0.53188 0.72209 0.48746 0.0
C1108 C 0.51162 0.71888 0.49758 0.0
C1109 C 0.54417 0.74052 0.49664 0.0
C1110 C 0.52954 0.72335 0.46526 0.0
C1111 C 0.53883 0.70849 0.4551 0.0
C1112 C 0.53907 0.70685 0.43444 0.0
C1113 C 0.52928 0.7206 0.4239 0.0
C1114 C 0.51896 0.73534 0.43406 0.0
C1115 C 0.51916 0.73678 0.45497 0.0
H1116 H 0.8757 0.82983 0.71545 0.0
H1117 H 0.89768 0.81186 0.77186 0.0
H1118 H 0.92824 0.80225 0.75575 0.0
H1119 H 0.89342 0.78969 0.68624 0.0
H1120 H 0.89997 0.80436 0.66532 0.0
H1121 H 0.88027 0.81118 0.68145 0.0
H1122 H 0.89809 0.84649 0.68759 0.0
H1123 H 0.91785 0.83978 0.67144 0.0
H1124 H 0.92343 0.84915 0.6965 0.0
H1125 H 0.9556 0.79301 0.73358 0.0
H1126 H 0.97836 0.78497 0.70655 0.0
H1127 H 0.93868 0.80833 0.66424 0.0
C1128 C 0.88696 0.82394 0.72443 0.0
C1129 C 0.88434 0.82186 0.745 0.0
C1130 C 0.89949 0.81409 0.75619 0.0
C1131 C 0.91688 0.80843 0.74715 0.0
C1132 C 0.91893 0.81058 0.72689 0.0
C1133 C 0.90445 0.81817 0.71563 0.0
C1134 C 0.91017 0.81832 0.69398 0.0
C1135 C 0.89506 0.8051 0.68099 0.0
C1136 C 0.91253 0.83971 0.68697 0.0
C1137 C 0.93001 0.8094 0.69485 0.0
C1138 C 0.93478 0.80512 0.71399 0.0
C1139 C 0.9521 0.79638 0.71852 0.0
C1140 C 0.96492 0.79184 0.70304 0.0
C1141 C 0.96035 0.79604 0.68325 0.0
C1142 C 0.94267 0.80503 0.6792 0.0
H1143 H 0.01126 0.89276 0.52273 0.0
H1144 H 0.07282 0.90724 0.54054 0.0
H1145 H 0.06858 0.88409 0.56764 0.0
H1146 H 0.99163 0.88872 0.57256 0.0
H1147 H 0.97378 0.86825 0.56534 0.0
H1148 H 0.98155 0.88638 0.54768 0.0
H1149 H 0.99201 0.85819 0.52344 0.0
H1150 H 0.9843 0.83998 0.54102 0.0
H1151 H 0.0093 0.8413 0.53173 0.0
H1152 H 0.05793 0.85855 0.59215 0.0
H1153 H 0.04151 0.8325 0.61229 0.0
H1154 H 0.98682 0.83534 0.57878 0.0
C1155 C 0.02377 0.89127 0.53249 0.0
C1156 C 0.04239 0.90176 0.52947 0.0
C1157 C 0.05849 0.89914 0.5424 0.0
C1158 C 0.0562 0.88614 0.55791 0.0
C1159 C 0.0377 0.87592 0.56037 0.0
C1160 C 0.02175 0.87837 0.54806 0.0
C1161 C 0.00358 0.86527 0.5536 0.0
C1162 C 0.98664 0.87791 0.56019 0.0
C1163 C 0.99691 0.8503 0.53643 0.0
C1164 C 0.01186 0.85495 0.57083 0.0
C1165 C 0.03154 0.86132 0.57455 0.0
C1166 C 0.04248 0.85352 0.58946 0.0
C1167 C 0.03304 0.83873 0.6008 0.0
C1168 C 0.01289 0.83193 0.59715 0.0
C1169 C 0.00221 0.84029 0.58203 0.0
H1170 H 0.13021 0.73959 0.73034 0.0
H1171 H 0.16942 0.78504 0.70415 0.0
H1172 H 0.14193 0.79319 0.68245 0.0
H1173 H 0.10215 0.72311 0.68487 0.0
H1174 H 0.07912 0.71923 0.69797 0.0
H1175 H 0.10232 0.71616 0.71029 0.0
H1176 H 0.09364 0.7417 0.7382 0.0
H1177 H 0.07053 0.74501 0.72589 0.0
H1178 H 0.08788 0.76625 0.73188 0.0
H1179 H 0.1094 0.79767 0.665 0.0
H1180 H 0.07478 0.79738 0.65266 0.0
H1181 H 0.05736 0.74884 0.69037 0.0
C1182 C 0.13317 0.75092 0.7197 0.0
C1183 C 0.15199 0.76162 0.71888 0.0
C1184 C 0.15508 0.77672 0.70511 0.0
C1185 C 0.13959 0.7814 0.69268 0.0
C1186 C 0.1211 0.77082 0.69417 0.0
C1187 C 0.11789 0.7558 0.70724 0.0
C1188 C 0.09648 0.74723 0.70659 0.0
C1189 C 0.09493 0.72512 0.6995 0.0
C1190 C 0.08656 0.75024 0.72684 0.0
C1191 C 0.08807 0.75995 0.6913 0.0
C1192 C 0.10248 0.77343 0.68422 0.0
C1193 C 0.09802 0.78707 0.67033 0.0
C1194 C 0.07832 0.78684 0.66345 0.0
C1195 C 0.06337 0.77309 0.67053 0.0
C1196 C 0.06843 0.75951 0.68461 0.0
H1197 H 0.95276 0.67596 0.52282 0.0
H1198 H 0.98686 0.63047 0.54633 0.0
H1199 H 0.99805 0.65352 0.5744 0.0
H1200 H 0.98797 0.71783 0.53643 0.0
H1201 H 0.96907 0.73434 0.5428 0.0
H1202 H 0.96399 0.71436 0.5243 0.0
H1203 H 0.93331 0.70124 0.54406 0.0
H1204 H 0.93836 0.72113 0.56267 0.0
H1205 H 0.93635 0.69561 0.56966 0.0
H1206 H 0.00483 0.6809 0.60027 0.0
H1207 H 0.00804 0.71162 0.62177 0.0
H1208 H 0.96957 0.73954 0.5816 0.0
C1209 C 0.96258 0.67088 0.53389 0.0
C1210 C 0.96905 0.65147 0.53233 0.0
C1211 C 0.98199 0.64539 0.54704 0.0
C1212 C 0.98831 0.65831 0.56312 0.0
C1213 C 0.98159 0.67727 0.56427 0.0
C1214 C 0.96911 0.68362 0.55003 0.0
C1215 C 0.96414 0.70481 0.55482 0.0
C1216 C 0.97175 0.71865 0.53863 0.0
C1217 C 0.94171 0.70574 0.558 0.0
C1218 C 0.97571 0.70931 0.57403 0.0
C1219 C 0.98561 0.69319 0.57922 0.0
C1220 C 0.9972 0.69366 0.59637 0.0
C1221 C 0.99888 0.71118 0.6085 0.0
C1222 C 0.98907 0.72802 0.60339 0.0
C1223 C 0.97727 0.72695 0.58594 0.0
H1224 H 0.79106 0.91275 0.23199 0.0
H1225 H 0.74777 0.91733 0.27888 0.0
H1226 H 0.76396 0.9501 0.29003 0.0
H1227 H 0.83266 0.93374 0.26057 0.0
H1228 H 0.8442 0.94683 0.24049 0.0
H1229 H 0.82842 0.92431 0.23531 0.0
H1230 H 0.80666 0.94307 0.21201 0.0
H1231 H 0.82237 0.96567 0.21714 0.0
H1232 H 0.79603 0.96531 0.22132 0.0
H1233 H 0.78572 0.9814 0.29725 0.0
H1234 H 0.81173 0.00929 0.3001 0.0
H1235 H 0.84115 0.98434 0.24873 0.0
C1236 C 0.78496 0.92065 0.24459 0.0
C1237 C 0.76804 0.91251 0.25446 0.0
C1238 C 0.76048 0.92341 0.27083 0.0
C1239 C 0.76963 0.942 0.27735 0.0
C1240 C 0.78631 0.94953 0.26734 0.0
C1241 C 0.79391 0.93925 0.2513 0.0
C1242 C 0.81241 0.95042 0.2436 0.0
C1243 C 0.83049 0.93809 0.24509 0.0
C1244 C 0.80916 0.95648 0.22225 0.0
C1245 C 0.81419 0.96842 0.25803 0.0
C1246 C 0.79892 0.96765 0.27153 0.0
C1247 C 0.79769 0.98226 0.28669 0.0
C1248 C 0.81257 0.99802 0.28819 0.0
C1249 C 0.82848 0.99905 0.27462 0.0
C1250 C 0.82912 0.9841 0.25925 0.0
H1251 H 0.78792 0.1723 0.3175 0.0
H1252 H 0.7887 0.18218 0.25461 0.0
H1253 H 0.81263 0.15652 0.2495 0.0
H1254 H 0.84004 0.16175 0.32312 0.0
H1255 H 0.83431 0.14242 0.34016 0.0
H1256 H 0.81889 0.16293 0.33914 0.0
H1257 H 0.78791 0.13811 0.33257 0.0
H1258 H 0.8032 0.11756 0.3336 0.0
H1259 H 0.78789 0.11996 0.31203 0.0
H1260 H 0.83545 0.12909 0.25114 0.0
H1261 H 0.8533 0.09988 0.25874 0.0
H1262 H 0.83628 0.10664 0.32043 0.0
C1263 C 0.79344 0.16925 0.30274 0.0
C1264 C 0.78675 0.17928 0.28645 0.0
C1265 C 0.7938 0.17464 0.26724 0.0
C1266 C 0.80742 0.16019 0.26424 0.0
C1267 C 0.81366 0.15044 0.2806 0.0
C1268 C 0.80678 0.15464 0.29945 0.0
C1269 C 0.81454 0.1409 0.31421 0.0
C1270 C 0.82773 0.15271 0.3301 0.0
C1271 C 0.79736 0.12839 0.32365 0.0
C1272 C 0.82665 0.12812 0.30068 0.0
C1273 C 0.82622 0.1341 0.28142 0.0
C1274 C 0.83596 0.12432 0.26618 0.0
C1275 C 0.84609 0.10775 0.27066 0.0
C1276 C 0.84619 0.10096 0.29018 0.0
C1277 C 0.83654 0.1115 0.30539 0.0
H1278 H 0.35237 0.99516 0.0062 0.0
H1279 H 0.39675 0.95775 0.02666 0.0
H1280 H 0.37005 0.93292 0.03655 0.0
H1281 H 0.31646 0.98455 0.04486 0.0
H1282 H 0.29548 0.98485 0.02828 0.0
H1283 H 0.31811 -0.00011 0.02375 0.0
H1284 H 0.31962 0.98323 0.9884 0.0
H1285 H 0.29701 0.96816 0.99282 0.0
H1286 H 0.31901 0.95647 0.98537 0.0
H1287 H 0.33827 0.91125 0.04205 0.0
H1288 H 0.30411 0.89511 0.04373 0.0
H1289 H 0.28111 0.94751 0.02028 0.0
C1290 C 0.35646 0.98174 0.01279 0.0
C1291 C 0.37656 0.97828 0.01562 0.0
C1292 C 0.38138 0.96069 0.0245 0.0
C1293 C 0.36635 0.94652 0.0301 0.0
C1294 C 0.34664 0.95032 0.0269 0.0
C1295 C 0.34171 0.96759 0.01858 0.0
C1296 C 0.31949 0.96804 0.01635 0.0
C1297 C 0.31195 0.98536 0.02908 0.0
C1298 C 0.31343 0.96902 0.99444 0.0
C1299 C 0.31266 0.94815 0.02439 0.0
C1300 C 0.32848 0.93812 0.03043 0.0
C1301 C 0.32575 0.91906 0.03756 0.0
C1302 C 0.30632 0.91 0.03843 0.0
C1303 C 0.28993 0.92009 0.03226 0.0
C1304 C 0.29326 0.93947 0.02534 0.0
H1305 H 0.2134 0.38637 0.26315 0.0
H1306 H 0.20283 0.36283 0.32111 0.0
H1307 H 0.17655 0.3856 0.32697 0.0
H1308 H 0.20792 0.4364 0.27719 0.0
H1309 H 0.1954 0.44208 0.25477 0.0
H1310 H 0.21214 0.42265 0.25423 0.0
H1311 H 0.18421 0.39757 0.23932 0.0
H1312 H 0.16735 0.41695 0.23983 0.0
H1313 H 0.16089 0.39419 0.25203 0.0
H1314 H 0.15468 0.41325 0.32842 0.0
H1315 H 0.13697 0.44344 0.32462 0.0
H1316 H 0.15982 0.4484 0.26511 0.0
C1317 C 0.20536 0.38589 0.27696 0.0
C1318 C 0.21003 0.37273 0.29162 0.0
C1319 C 0.19926 0.37253 0.30954 0.0
C1320 C 0.18435 0.38545 0.31303 0.0
C1321 C 0.18022 0.39834 0.29838 0.0
C1322 C 0.19023 0.39857 0.28061 0.0
C1323 C 0.18338 0.41455 0.26776 0.0
C1324 C 0.20074 0.42982 0.26323 0.0
C1325 C 0.17336 0.40525 0.2486 0.0
C1326 C 0.16844 0.42365 0.28137 0.0
C1327 C 0.16686 0.414 0.29894 0.0
C1328 C 0.15542 0.42067 0.31459 0.0
C1329 C 0.14548 0.43782 0.31232 0.0
C1330 C 0.14682 0.4479 0.29448 0.0
C1331 C 0.15815 0.44056 0.27867 0.0
H1332 H 0.14105 0.05367 0.47539 0.0
H1333 H 0.17077 0.01187 0.43748 0.0
H1334 H 0.20175 0.03427 0.44014 0.0
H1335 H 0.16483 0.09839 0.45625 0.0
H1336 H 0.1662 0.11167 0.48013 0.0
H1337 H 0.1465 0.09247 0.47478 0.0
H1338 H 0.15653 0.07424 0.50574 0.0
H1339 H 0.17627 0.09337 0.51118 0.0
H1340 H 0.18172 0.06767 0.50835 0.0
H1341 H 0.22987 0.06095 0.44831 0.0
H1342 H 0.25226 0.0901 0.46015 0.0
H1343 H 0.20334 0.11407 0.49222 0.0
C1344 C 0.1541 0.04918 0.4677 0.0
C1345 C 0.1536 0.03102 0.45633 0.0
C1346 C 0.17086 0.02581 0.44619 0.0
C1347 C 0.1885 0.03838 0.44768 0.0
C1348 C 0.18852 0.05612 0.45922 0.0
C1349 C 0.1717 0.06154 0.46894 0.0
C1350 C 0.17547 0.08132 0.48041 0.0
C1351 C 0.16248 0.09688 0.4724 0.0
C1352 C 0.17232 0.079 0.50274 0.0
C1353 C 0.19713 0.08616 0.47581 0.0
C1354 C 0.20445 0.07148 0.46361 0.0
C1355 C 0.22425 0.07259 0.45778 0.0
C1356 C 0.23685 0.08917 0.4646 0.0
C1357 C 0.22954 0.10441 0.47704 0.0
C1358 C 0.20939 0.10278 0.48261 0.0
H1359 H 0.70881 0.14128 0.75075 0.0
H1360 H 0.7511 0.13718 0.79875 0.0
H1361 H 0.73203 0.10663 0.80911 0.0
H1362 H 0.66524 0.12427 0.77672 0.0
H1363 H 0.65399 0.11055 0.75536 0.0
H1364 H 0.67084 0.13222 0.75215 0.0
H1365 H 0.69257 0.11122 0.72915 0.0
H1366 H 0.67579 0.08948 0.73232 0.0
H1367 H 0.70184 0.08894 0.73802 0.0
H1368 H 0.70818 0.0761 0.81387 0.0
H1369 H 0.68148 0.04859 0.81273 0.0
H1370 H 0.65593 0.07295 0.76098 0.0
C1371 C 0.71419 0.1339 0.76335 0.0
C1372 C 0.73145 0.14161 0.77393 0.0
C1373 C 0.73776 0.13167 0.79056 0.0
C1374 C 0.72711 0.11425 0.79648 0.0
C1375 C 0.71023 0.10699 0.78559 0.0
C1376 C 0.70383 0.11655 0.76939 0.0
C1377 C 0.68532 0.10577 0.76009 0.0
C1378 C 0.66782 0.11899 0.76116 0.0
C1379 C 0.68912 0.09842 0.73863 0.0
C1380 C 0.68227 0.08862 0.77357 0.0
C1381 C 0.69673 0.08952 0.78822 0.0
C1382 C 0.69678 0.07524 0.80244 0.0
C1383 C 0.68159 0.05968 0.80168 0.0
C1384 C 0.66662 0.05858 0.78676 0.0
C1385 C 0.66714 0.07327 0.77256 0.0
H1386 H 0.39178 0.06429 0.53746 0.0
H1387 H 0.35884 0.04208 0.58784 0.0
H1388 H 0.33531 0.0679 0.58428 0.0
H1389 H 0.38329 0.1172 0.54516 0.0
H1390 H 0.38042 0.12021 0.51896 0.0
H1391 H 0.39639 0.10225 0.52758 0.0
H1392 H 0.3768 0.07435 0.50587 0.0
H1393 H 0.36089 0.09219 0.49713 0.0
H1394 H 0.35027 0.07029 0.50861 0.0
H1395 H 0.31353 0.09438 0.57306 0.0
H1396 H 0.29448 0.11687 0.55383 0.0
H1397 H 0.34084 0.11952 0.50976 0.0
C1398 C 0.37969 0.0648 0.54785 0.0
C1399 C 0.3772 0.05105 0.56291 0.0
C1400 C 0.36129 0.05259 0.57633 0.0
C1401 C 0.3478 0.0672 0.57441 0.0
C1402 C 0.35046 0.08018 0.55903 0.0
C1403 C 0.36602 0.07902 0.54597 0.0
C1404 C 0.36461 0.09318 0.52947 0.0
C1405 C 0.38222 0.10915 0.53036 0.0
C1406 C 0.36304 0.08182 0.50908 0.0
C1407 C 0.34545 0.10206 0.53487 0.0
C1408 C 0.3377 0.09479 0.55222 0.0
C1409 C 0.31958 0.1003 0.55957 0.0
C1410 C 0.3089 0.11313 0.54861 0.0
C1411 C 0.31623 0.1199 0.53035 0.0
C1412 C 0.33492 0.11462 0.52372 0.0
H1413 H 0.64364 0.5238 0.58524 0.0
H1414 H 0.60106 0.51535 0.5365 0.0
H1415 H 0.61511 0.48409 0.52584 0.0
H1416 H 0.68414 0.507 0.55921 0.0
H1417 H 0.69429 0.49432 0.57933 0.0
H1418 H 0.67972 0.51509 0.58453 0.0
H1419 H 0.656 0.49314 0.60594 0.0
H1420 H 0.67053 0.47226 0.6008 0.0
H1421 H 0.64427 0.47002 0.59532 0.0
H1422 H 0.63571 0.45646 0.51795 0.0
H1423 H 0.66161 0.43287 0.51383 0.0
H1424 H 0.69018 0.4572 0.56842 0.0
C1425 C 0.63707 0.51513 0.57258 0.0
C1426 C 0.62139 0.5221 0.56158 0.0
C1427 C 0.61331 0.51049 0.54493 0.0
C1428 C 0.62105 0.49261 0.53887 0.0
C1429 C 0.63674 0.48636 0.54972 0.0
C1430 C 0.64462 0.49711 0.5663 0.0
C1431 C 0.66229 0.4875 0.5745 0.0
C1432 C 0.68123 0.50183 0.57437 0.0
C1433 C 0.65801 0.4803 0.59538 0.0
C1434 C 0.66342 0.47007 0.55954 0.0
C1435 C 0.64841 0.46971 0.54547 0.0
C1436 C 0.64727 0.45625 0.5291 0.0
C1437 C 0.66201 0.44297 0.52685 0.0
C1438 C 0.67751 0.44306 0.54101 0.0
C1439 C 0.67807 0.45651 0.55776 0.0
H1440 H 0.72675 0.29046 0.41415 0.0
H1441 H 0.67557 0.3138 0.38719 0.0
H1442 H 0.67223 0.33615 0.41678 0.0
H1443 H 0.70909 0.29276 0.46525 0.0
H1444 H 0.73343 0.3003 0.47544 0.0
H1445 H 0.73087 0.28498 0.45278 0.0
H1446 H 0.75386 0.31093 0.43496 0.0
H1447 H 0.75649 0.32631 0.45753 0.0
H1448 H 0.74776 0.33646 0.43521 0.0
H1449 H 0.6759 0.35771 0.44806 0.0
H1450 H 0.68612 0.37667 0.47916 0.0
H1451 H 0.73491 0.33934 0.48579 0.0
C1452 C 0.71477 0.30019 0.41451 0.0
C1453 C 0.70134 0.30027 0.39839 0.0
C1454 C 0.68582 0.31319 0.39949 0.0
C1455 C 0.68385 0.32603 0.4162 0.0
C1456 C 0.69746 0.32571 0.43173 0.0
C1457 C 0.71257 0.31308 0.43109 0.0
C1458 C 0.7257 0.31627 0.44942 0.0
C1459 C 0.7247 0.29746 0.46143 0.0
C1460 C 0.74722 0.32289 0.44395 0.0
C1461 C 0.71583 0.33294 0.46026 0.0
C1462 C 0.69951 0.33809 0.44985 0.0
C1463 C 0.68853 0.35368 0.45646 0.0
C1464 C 0.69448 0.36439 0.47412 0.0
C1465 C 0.71126 0.35945 0.48497 0.0
C1466 C 0.72188 0.34335 0.47798 0.0
H1467 H 0.5215 0.02017 0.90176 0.0
H1468 H 0.48115 0.0561 0.87208 0.0
H1469 H 0.501 0.05358 0.84154 0.0
H1470 H 0.56546 0.04108 0.88102 0.0
H1471 H 0.57719 0.01803 0.87878 0.0
H1472 H 0.55909 0.02163 0.89777 0.0
H1473 H 0.53839 0.9895 0.8847 0.0
H1474 H 0.55647 0.98576 0.86569 0.0
H1475 H 0.53074 0.98693 0.85901 0.0
H1476 H 0.52617 0.04827 0.81481 0.0
H1477 H 0.55489 0.04101 0.79406 0.0
H1478 H 0.5784 0.00837 0.84152 0.0
C1479 C 0.51659 0.02718 0.88873 0.0
C1480 C 0.49974 0.03824 0.88923 0.0
C1481 C 0.4941 0.04764 0.87202 0.0
C1482 C 0.5052 0.0462 0.8546 0.0
C1483 C 0.52184 0.03528 0.85468 0.0
C1484 C 0.52748 0.02591 0.87129 0.0
C1485 C 0.54643 0.01583 0.86785 0.0
C1486 C 0.56302 0.02468 0.88221 0.0
C1487 C 0.54278 0.99316 0.8694 0.0
C1488 C 0.55074 0.02121 0.84677 0.0
C1489 C 0.53633 0.03231 0.83937 0.0
C1490 C 0.53747 0.03948 0.8204 0.0
C1491 C 0.55386 0.03528 0.80874 0.0
C1492 C 0.5689 0.0241 0.81614 0.0
C1493 C 0.56713 0.01687 0.83536 0.0
H1494 H 0.27244 0.23896 0.37551 0.0
H1495 H 0.3299 0.27013 0.39075 0.0
H1496 H 0.33177 0.2503 0.4202 0.0
H1497 H 0.25482 0.23999 0.42556 0.0
H1498 H 0.24084 0.2161 0.42229 0.0
H1499 H 0.24484 0.23155 0.40148 0.0
H1500 H 0.26034 0.2027 0.38195 0.0
H1501 H 0.25644 0.18716 0.40271 0.0
H1502 H 0.28096 0.19147 0.39263 0.0
H1503 H 0.32764 0.22605 0.44781 0.0
H1504 H 0.3162 0.20197 0.47276 0.0
H1505 H 0.25978 0.19079 0.44158 0.0
C1506 C 0.28536 0.24201 0.38506 0.0
C1507 C 0.30107 0.25619 0.38045 0.0
C1508 C 0.31782 0.25907 0.39343 0.0
C1509 C 0.31898 0.24798 0.41038 0.0
C1510 C 0.30312 0.23433 0.41444 0.0
C1511 C 0.28651 0.23157 0.40228 0.0
C1512 C 0.27097 0.21681 0.41042 0.0
C1513 C 0.25173 0.22671 0.41523 0.0
C1514 C 0.26695 0.19845 0.39607 0.0
C1515 C 0.28145 0.21163 0.42907 0.0
C1516 C 0.30013 0.22159 0.43099 0.0
C1517 C 0.31294 0.21837 0.44659 0.0
C1518 C 0.30637 0.2047 0.46063 0.0
C1519 C 0.28706 0.19488 0.45915 0.0
C1520 C 0.27448 0.19845 0.44321 0.0
H1521 H 0.46575 0.4965 0.87564 0.0
H1522 H 0.50557 0.46932 0.83416 0.0
H1523 H 0.48441 0.47754 0.80628 0.0
H1524 H 0.41989 0.47988 0.84882 0.0
H1525 H 0.4085 0.50262 0.85493 0.0
H1526 H 0.42652 0.49405 0.87159 0.0
H1527 H 0.44743 0.52793 0.87027 0.0
H1528 H 0.42957 0.53654 0.85349 0.0
H1529 H 0.45532 0.5368 0.84662 0.0
H1530 H 0.45959 0.48969 0.78292 0.0
H1531 H 0.43219 0.50388 0.76565 0.0
H1532 H 0.4082 0.52267 0.82243 0.0
C1533 C 0.46984 0.49196 0.86072 0.0
C1534 C 0.48733 0.48227 0.85708 0.0
C1535 C 0.49236 0.47694 0.83729 0.0
C1536 C 0.48039 0.48147 0.82137 0.0
C1537 C 0.46342 0.49128 0.82547 0.0
C1538 C 0.45807 0.49636 0.84466 0.0
C1539 C 0.43926 0.50713 0.845 0.0
C1540 C 0.42256 0.4952 0.85571 0.0
C1541 C 0.44314 0.52836 0.8544 0.0
C1542 C 0.43492 0.50741 0.823 0.0
C1543 C 0.44905 0.4982 0.812 0.0
C1544 C 0.44838 0.49686 0.79137 0.0
C1545 C 0.43277 0.50502 0.7817 0.0
C1546 C 0.41799 0.51439 0.79266 0.0
C1547 C 0.4192 0.51559 0.8136 0.0
H1548 H 0.72302 0.76168 0.12969 0.0
H1549 H 0.76982 0.7379 0.16329 0.0
H1550 H 0.77728 0.71611 0.13417 0.0
H1551 H 0.70537 0.7159 0.104 0.0
H1552 H 0.70025 0.72744 0.08124 0.0
H1553 H 0.69901 0.74136 0.10459 0.0
H1554 H 0.72436 0.76876 0.09208 0.0
H1555 H 0.72566 0.75494 0.06867 0.0
H1556 H 0.74802 0.76202 0.08291 0.0
H1557 H 0.77888 0.69625 0.10139 0.0
H1558 H 0.77514 0.68073 0.06743 0.0
H1559 H 0.72724 0.71783 0.05582 0.0
C1560 C 0.73477 0.75181 0.13098 0.0
C1561 C 0.74582 0.75143 0.14876 0.0
C1562 C 0.7613 0.73855 0.14974 0.0
C1563 C 0.76556 0.72606 0.13333 0.0
C1564 C 0.75426 0.72672 0.11606 0.0
C1565 C 0.73924 0.73934 0.11479 0.0
C1566 C 0.72927 0.73727 0.09459 0.0
C1567 C 0.70717 0.73006 0.09621 0.0
C1568 C 0.732 0.75692 0.08394 0.0
C1569 C 0.74095 0.72143 0.0847 0.0
C1570 C 0.75529 0.71548 0.09728 0.0
C1571 C 0.76774 0.70084 0.09139 0.0
C1572 C 0.76549 0.6921 0.0721 0.0
C1573 C 0.75093 0.69809 0.05898 0.0
C1574 C 0.73855 0.71295 0.06546 0.0
H1575 H 0.96699 0.05511 0.14378 0.0
H1576 H 0.9828 0.11729 0.16165 0.0
H1577 H 0.95677 0.11561 0.18685 0.0
H1578 H 0.91407 0.05374 0.15315 0.0
H1579 H 0.91308 0.02946 0.16327 0.0
H1580 H 0.93121 0.03607 0.14476 0.0
H1581 H 0.95951 0.02773 0.16828 0.0
H1582 H 0.94148 0.02092 0.18673 0.0
H1583 H 0.96156 0.03956 0.19283 0.0
H1584 H 0.92989 0.10698 0.21112 0.0
H1585 H 0.90717 0.09099 0.23516 0.0
H1586 H 0.91126 0.03382 0.20363 0.0
C1587 C 0.96515 0.06843 0.15296 0.0
C1588 C 0.97695 0.08643 0.15032 0.0
C1589 C 0.97369 0.10344 0.16276 0.0
C1590 C 0.95895 0.10264 0.17726 0.0
C1591 C 0.9477 0.08467 0.17941 0.0
C1592 C 0.95082 0.0678 0.1678 0.0
C1593 C 0.93802 0.04987 0.17434 0.0
C1594 C 0.92321 0.04181 0.1579 0.0
C1595 C 0.95091 0.03357 0.18094 0.0
C1596 C 0.92749 0.05924 0.1917 0.0
C1597 C 0.93294 0.07942 0.19409 0.0
C1598 C 0.92547 0.0912 0.20937 0.0
C1599 C 0.91251 0.082 0.2229 0.0
C1600 C 0.90748 0.06118 0.22125 0.0
C1601 C 0.9148 0.04978 0.20522 0.0
H1602 H 0.26551 0.77281 0.13267 0.0
H1603 H 0.23721 0.80377 0.18121 0.0
H1604 H 0.22597 0.82788 0.15797 0.0
H1605 H 0.28329 0.81576 0.10818 0.0
H1606 H 0.27915 0.80438 0.08362 0.0
H1607 H 0.28401 0.78923 0.10399 0.0
H1608 H 0.25127 0.76732 0.09614 0.0
H1609 H 0.24627 0.78247 0.07577 0.0
H1610 H 0.22819 0.77887 0.09502 0.0
H1611 H 0.2185 0.84907 0.12916 0.0
H1612 H 0.21705 0.86639 0.09778 0.0
H1613 H 0.25031 0.8211 0.06864 0.0
C1614 C 0.2567 0.78449 0.13838 0.0
C1615 C 0.25213 0.78636 0.15872 0.0
C1616 C 0.24098 0.80214 0.16569 0.0
C1617 C 0.23442 0.81581 0.15259 0.0
C1618 C 0.23916 0.81348 0.13259 0.0
C1619 C 0.25012 0.79824 0.12557 0.0
C1620 C 0.25402 0.79942 0.10364 0.0
C1621 C 0.27644 0.80238 0.09963 0.0
C1622 C 0.24435 0.78092 0.09196 0.0
C1623 C 0.24371 0.81782 0.09939 0.0
C1624 C 0.23506 0.82567 0.1162 0.0
C1625 C 0.22514 0.84299 0.11589 0.0
C1626 C 0.22434 0.85269 0.098 0.0
C1627 C 0.23353 0.84509 0.08076 0.0
C1628 C 0.24306 0.82728 0.08152 0.0
H1629 H 0.01011 0.47807 0.15239 0.0
H1630 H 0.97788 0.531 0.15898 0.0
H1631 H 0.00028 0.54384 0.18662 0.0
H1632 H 0.01819 0.47297 0.20462 0.0
H1633 H 0.04261 0.46441 0.20154 0.0
H1634 H 0.02431 0.45959 0.182 0.0
H1635 H 0.0486 0.47673 0.15738 0.0
H1636 H 0.06695 0.48169 0.17687 0.0
H1637 H 0.05898 0.50187 0.1631 0.0
H1638 H 0.02634 0.55122 0.21273 0.0
H1639 H 0.05304 0.5518 0.23776 0.0
H1640 H 0.06789 0.49346 0.21523 0.0
C1641 C 0.00786 0.49238 0.15965 0.0
C1642 C 0.99234 0.50361 0.15362 0.0
C1643 C 0.98962 0.52215 0.16354 0.0
C1644 C 0.00231 0.52959 0.17913 0.0
C1645 C 0.01752 0.51821 0.18468 0.0
C1646 C 0.02025 0.49992 0.17541 0.0
C1647 C 0.03739 0.49044 0.18472 0.0
C1648 C 0.03019 0.47068 0.19376 0.0
C1649 C 0.05396 0.48752 0.16961 0.0
C1650 C 0.04388 0.50631 0.20064 0.0
C1651 C 0.03231 0.52225 0.20019 0.0
C1652 C 0.03547 0.53881 0.21329 0.0
C1653 C 0.05073 0.539 0.22742 0.0
C1654 C 0.06254 0.52265 0.22847 0.0
C1655 C 0.0591 0.50615 0.2148 0.0
H1656 H 0.38791 0.75631 0.27771 0.0
H1657 H 0.3617 0.70131 0.30055 0.0
H1658 H 0.38706 0.70375 0.32729 0.0
H1659 H 0.43908 0.747 0.28743 0.0
H1660 H 0.44664 0.77271 0.2942 0.0
H1661 H 0.42648 0.76655 0.27681 0.0
H1662 H 0.40349 0.78706 0.29885 0.0
H1663 H 0.42358 0.79328 0.3163 0.0
H1664 H 0.40037 0.78152 0.32453 0.0
H1665 H 0.41424 0.71305 0.35244 0.0
H1666 H 0.44264 0.72763 0.37315 0.0
H1667 H 0.4519 0.77573 0.33302 0.0
C1668 C 0.38756 0.74481 0.28836 0.0
C1669 C 0.37293 0.72861 0.28711 0.0
C1670 C 0.37296 0.71373 0.30118 0.0
C1671 C 0.38722 0.71504 0.31645 0.0
C1672 C 0.40144 0.73121 0.3173 0.0
C1673 C 0.40185 0.74574 0.30355 0.0
C1674 C 0.41884 0.76148 0.30772 0.0
C1675 C 0.43364 0.76195 0.29052 0.0
C1676 C 0.4111 0.78205 0.31212 0.0
C1677 C 0.42778 0.75363 0.32608 0.0
C1678 C 0.41747 0.73622 0.33144 0.0
C1679 C 0.42255 0.72659 0.3483 0.0
C1680 C 0.43865 0.73499 0.35999 0.0
C1681 C 0.44955 0.7527 0.35461 0.0
C1682 C 0.44402 0.76203 0.33738 0.0
H1683 H 0.9485 0.38121 0.00149 0.0
H1684 H 0.98215 0.43298 0.97947 0.0
H1685 H 0.99727 0.41147 0.95418 0.0
H1686 H 0.98633 0.34791 0.99575 0.0
H1687 H 0.96977 0.32661 0.98787 0.0
H1688 H 0.9609 0.34609 0.00383 0.0
H1689 H 0.93273 0.35059 0.97862 0.0
H1690 H 0.94141 0.33099 0.96266 0.0
H1691 H 0.93888 0.3552 0.95324 0.0
H1692 H 0.00959 0.38445 0.93215 0.0
H1693 H 0.01736 0.35364 0.9137 0.0
H1694 H 0.97549 0.31933 0.94978 0.0
C1695 C 0.95881 0.38804 0.99114 0.0
C1696 C 0.96423 0.40874 0.99248 0.0
C1697 C 0.97799 0.41711 0.97886 0.0
C1698 C 0.9866 0.40504 0.9644 0.0
C1699 C 0.98124 0.38465 0.96372 0.0
C1700 C 0.96758 0.3762 0.97661 0.0
C1701 C 0.96468 0.35381 0.97287 0.0
C1702 C 0.97079 0.34297 0.99117 0.0
C1703 C 0.94315 0.34727 0.96646 0.0
C1704 C 0.97894 0.35103 0.95595 0.0
C1705 C 0.98833 0.36901 0.95092 0.0
C1706 C 0.00228 0.37027 0.93587 0.0
C1707 C 0.00663 0.35266 0.92553 0.0
C1708 C 0.99704 0.33404 0.93027 0.0
C1709 C 0.98309 0.3333 0.94578 0.0
H1710 H 0.62086 0.80101 0.28116 0.0
H1711 H 0.65831 0.76986 0.31936 0.0
H1712 H 0.63032 0.76439 0.34246 0.0
H1713 H 0.5961 0.82633 0.31963 0.0
H1714 H 0.57245 0.82452 0.30689 0.0
H1715 H 0.59505 0.82493 0.29292 0.0
H1716 H 0.58257 0.79163 0.27434 0.0
H1717 H 0.55987 0.79115 0.2882 0.0
H1718 H 0.57495 0.77032 0.28835 0.0
H1719 H 0.59827 0.7629 0.36158 0.0
H1720 H 0.56498 0.76628 0.37571 0.0
H1721 H 0.54906 0.7991 0.32511 0.0
C1722 C 0.62306 0.79275 0.29422 0.0
C1723 C 0.64165 0.78571 0.29844 0.0
C1724 C 0.64415 0.7754 0.31592 0.0
C1725 C 0.62834 0.77217 0.32906 0.0
C1726 C 0.61022 0.77945 0.32451 0.0
C1727 C 0.60754 0.78956 0.30753 0.0
C1728 C 0.58688 0.79658 0.30644 0.0
C1729 C 0.58768 0.81945 0.30648 0.0
C1730 C 0.57539 0.78683 0.28825 0.0
C1731 C 0.57837 0.78893 0.32551 0.0
C1732 C 0.59199 0.77896 0.33568 0.0
C1733 C 0.58747 0.77066 0.35374 0.0
C1734 C 0.56854 0.77265 0.36164 0.0
C1735 C 0.55446 0.78299 0.35153 0.0
C1736 C 0.55951 0.79116 0.33322 0.0
H1737 H 0.01447 0.16751 0.00593 0.0
H1738 H 0.07371 0.15745 0.98528 0.0
H1739 H 0.07062 0.18212 0.95987 0.0
H1740 H 0.99283 0.17243 0.95747 0.0
H1741 H 0.97724 0.19143 0.96614 0.0
H1742 H 0.98424 0.17302 0.98268 0.0
H1743 H 0.99863 0.20107 0.00765 0.0
H1744 H 0.99173 0.21956 0.99117 0.0
H1745 H 0.01713 0.21961 0.99951 0.0
H1746 H 0.06121 0.20847 0.9371 0.0
H1747 H 0.04596 0.23401 0.91843 0.0
H1748 H 0.99251 0.22562 0.95336 0.0
C1749 C 0.02672 0.17025 0.99592 0.0
C1750 C 0.04435 0.16052 0.99765 0.0
C1751 C 0.06015 0.1649 0.98444 0.0
C1752 C 0.0585 0.17879 0.96987 0.0
C1753 C 0.04091 0.1881 0.96863 0.0
C1754 C 0.02528 0.18395 0.98125 0.0
C1755 C 0.00801 0.19604 0.97692 0.0
C1756 C 0.98949 0.18242 0.97041 0.0
C1757 C 0.00363 0.20989 0.99488 0.0
C1758 C 0.01638 0.20773 0.95992 0.0
C1759 C 0.03539 0.20299 0.95537 0.0
C1760 C 0.04629 0.21223 0.94047 0.0
C1761 C 0.03752 0.22672 0.92996 0.0
C1762 C 0.01802 0.23173 0.93438 0.0
C1763 C 0.00737 0.22201 0.94952 0.0
H1764 H 0.38864 0.29545 0.23503 0.0
H1765 H 0.35433 0.33148 0.1984 0.0
H1766 H 0.38032 0.33109 0.17292 0.0
H1767 H 0.43697 0.31924 0.22337 0.0
H1768 H 0.449 0.29636 0.22342 0.0
H1769 H 0.42772 0.29958 0.23882 0.0
H1770 H 0.40983 0.26729 0.22255 0.0
H1771 H 0.43103 0.26397 0.20711 0.0
H1772 H 0.40683 0.26489 0.19597 0.0
H1773 H 0.40965 0.32608 0.15109 0.0
H1774 H 0.44029 0.31695 0.13453 0.0
H1775 H 0.45595 0.28521 0.186 0.0
C1776 C 0.38667 0.30349 0.22178 0.0
C1777 C 0.36939 0.31347 0.21873 0.0
C1778 C 0.36728 0.32349 0.20097 0.0
C1779 C 0.38203 0.32348 0.18647 0.0
C1780 C 0.39885 0.31348 0.18997 0.0
C1781 C 0.40128 0.30372 0.20721 0.0
C1782 C 0.42063 0.29389 0.20723 0.0
C1783 C 0.43439 0.30281 0.22422 0.0
C1784 C 0.41684 0.27117 0.20827 0.0
C1785 C 0.42867 0.29954 0.18725 0.0
C1786 C 0.41588 0.31084 0.17753 0.0
C1787 C 0.41983 0.31734 0.1586 0.0
C1788 C 0.43727 0.31205 0.14932 0.0
C1789 C 0.45058 0.30042 0.15898 0.0
C1790 C 0.44621 0.29426 0.17827 0.0
H1791 H 0.51642 0.38214 0.0011 0.0
H1792 H 0.57042 0.41137 0.02799 0.0
H1793 H 0.56768 0.38821 0.05514 0.0
H1794 H 0.49055 0.37505 0.0465 0.0
H1795 H 0.47846 0.35119 0.03834 0.0
H1796 H 0.48528 0.36944 0.02052 0.0
H1797 H 0.50546 0.34395 0.00109 0.0
H1798 H 0.49872 0.32561 0.01887 0.0
H1799 H 0.52453 0.33215 0.01378 0.0
H1800 H 0.55854 0.36225 0.0799 0.0
H1801 H 0.54341 0.33579 0.10043 0.0
H1802 H 0.495 0.32447 0.05768 0.0
C1803 C 0.52765 0.38376 0.01272 0.0
C1804 C 0.54371 0.39854 0.0123 0.0
C1805 C 0.55818 0.39995 0.02774 0.0
C1806 C 0.55669 0.38694 0.04331 0.0
C1807 C 0.54062 0.37261 0.04329 0.0
C1808 C 0.52635 0.37097 0.0284 0.0
C1809 C 0.5103 0.35462 0.03207 0.0
C1810 C 0.48995 0.36309 0.03451 0.0
C1811 C 0.50973 0.33811 0.01546 0.0
C1812 C 0.5177 0.34741 0.05141 0.0
C1813 C 0.53526 0.35789 0.05762 0.0
C1814 C 0.54481 0.35391 0.07518 0.0
C1815 C 0.53611 0.33887 0.08673 0.0
C1816 C 0.51803 0.32808 0.08068 0.0
C1817 C 0.50883 0.33244 0.06274 0.0
H1818 H 0.61792 0.2492 0.23963 0.0
H1819 H 0.66002 0.29408 0.21644 0.0
H1820 H 0.63426 0.30315 0.19309 0.0
H1821 H 0.59287 0.23378 0.1938 0.0
H1822 H 0.56882 0.23045 0.20511 0.0
H1823 H 0.59087 0.22722 0.2193 0.0
H1824 H 0.58067 0.25342 0.24591 0.0
H1825 H 0.55864 0.25681 0.23175 0.0
H1826 H 0.57585 0.27792 0.23862 0.0
H1827 H 0.60318 0.30752 0.17252 0.0
H1828 H 0.57003 0.3062 0.1563 0.0
H1829 H 0.54871 0.25935 0.19447 0.0
C1830 C 0.62176 0.26103 0.22976 0.0
C1831 C 0.64101 0.27095 0.22994 0.0
C1832 C 0.64545 0.28609 0.21644 0.0
C1833 C 0.63087 0.29145 0.20322 0.0
C1834 C 0.61194 0.28155 0.20372 0.0
C1835 C 0.60742 0.26663 0.21664 0.0
C1836 C 0.586 0.25835 0.21449 0.0
C1837 C 0.58457 0.23614 0.20777 0.0
C1838 C 0.57463 0.26184 0.23384 0.0
C1839 C 0.57908 0.27095 0.19835 0.0
C1840 C 0.5942 0.28424 0.19224 0.0
C1841 C 0.59123 0.2972 0.17723 0.0
C1842 C 0.57237 0.29638 0.16814 0.0
C1843 C 0.55676 0.28276 0.17418 0.0
C1844 C 0.56025 0.27005 0.18958 0.0
H1845 H 0.46721 0.15567 0.03363 0.0
H1846 H 0.50287 0.11857 0.06774 0.0
H1847 H 0.51204 0.1472 0.09109 0.0
H1848 H 0.50123 0.2003 0.03905 0.0
H1849 H 0.48152 0.21675 0.04069 0.0
H1850 H 0.4778 0.1933 0.02664 0.0
H1851 H 0.44669 0.18372 0.04743 0.0
H1852 H 0.45037 0.20708 0.06161 0.0
H1853 H 0.44889 0.18401 0.07406 0.0
H1854 H 0.51636 0.17943 0.11134 0.0
H1855 H 0.51678 0.21358 0.12636 0.0
H1856 H 0.47969 0.23004 0.07807 0.0
C1857 C 0.4772 0.15358 0.04582 0.0
C1858 C 0.48422 0.13479 0.04888 0.0
C1859 C 0.49699 0.1327 0.06526 0.0
C1860 C 0.5024 0.14891 0.07853 0.0
C1861 C 0.49508 0.16714 0.07514 0.0
C1862 C 0.48289 0.16962 0.0591 0.0
C1863 C 0.47704 0.1908 0.05884 0.0
C1864 C 0.48487 0.20088 0.0402 0.0
C1865 C 0.4544 0.19143 0.0606 0.0
C1866 C 0.48772 0.19979 0.07734 0.0
C1867 C 0.49798 0.18588 0.08655 0.0
C1868 C 0.50851 0.19051 0.1042 0.0
C1869 C 0.50859 0.20992 0.11264 0.0
C1870 C 0.49833 0.22449 0.10335 0.0
C1871 C 0.48782 0.21929 0.08544 0.0
H1872 H 0.26999 0.40993 0.75968 0.0
H1873 H 0.27452 0.40138 0.69587 0.0
H1874 H 0.29169 0.43507 0.69438 0.0
H1875 H 0.26342 0.46408 0.76127 0.0
H1876 H 0.27857 0.46897 0.78333 0.0
H1877 H 0.26444 0.44525 0.77918 0.0
H1878 H 0.29656 0.42716 0.78282 0.0
H1879 H 0.31073 0.45077 0.78703 0.0
H1880 H 0.31751 0.43365 0.76737 0.0
H1881 H 0.31052 0.46807 0.69997 0.0
H1882 H 0.33173 0.49758 0.71233 0.0
H1883 H 0.31562 0.48482 0.77278 0.0
C1884 C 0.27424 0.41538 0.74538 0.0
C1885 C 0.27088 0.40321 0.72786 0.0
C1886 C 0.27704 0.41054 0.70944 0.0
C1887 C 0.28664 0.42967 0.70844 0.0
C1888 C 0.28995 0.44124 0.72601 0.0
C1889 C 0.28402 0.43439 0.74416 0.0
C1890 C 0.29103 0.44909 0.76096 0.0
C1891 C 0.2733 0.45734 0.77182 0.0
C1892 C 0.30477 0.4396 0.77538 0.0
C1893 C 0.30231 0.46501 0.74946 0.0
C1894 C 0.30118 0.46031 0.72931 0.0
C1895 C 0.31134 0.47204 0.7157 0.0
C1896 C 0.32339 0.48876 0.72289 0.0
C1897 C 0.32531 0.49354 0.74353 0.0
C1898 C 0.31422 0.48174 0.75692 0.0
H1899 H 0.29043 0.66337 0.76768 0.0
H1900 H 0.29463 0.67816 0.83089 0.0
H1901 H 0.31552 0.65023 0.83507 0.0
H1902 H 0.28684 0.61105 0.77034 0.0
H1903 H 0.30188 0.60647 0.7489 0.0
H1904 H 0.28815 0.62824 0.75071 0.0
H1905 H 0.32059 0.65069 0.746 0.0
H1906 H 0.33444 0.62896 0.74417 0.0
H1907 H 0.34149 0.64882 0.76234 0.0
H1908 H 0.33298 0.61891 0.83288 0.0
H1909 H 0.34803 0.58751 0.8241 0.0
H1910 H 0.33457 0.59412 0.76203 0.0
C1911 C 0.29591 0.66078 0.78235 0.0
C1912 C 0.29098 0.6729 0.79898 0.0
C1913 C 0.29843 0.66915 0.81795 0.0
C1914 C 0.31024 0.65331 0.82047 0.0
C1915 C 0.3147 0.64153 0.80382 0.0
C1916 C 0.30799 0.64521 0.78508 0.0
C1917 C 0.31474 0.6301 0.76972 0.0
C1918 C 0.29683 0.61826 0.75931 0.0
C1919 C 0.32865 0.64026 0.75467 0.0
C1920 C 0.32586 0.61708 0.78282 0.0
C1921 C 0.32559 0.62392 0.80245 0.0
C1922 C 0.33361 0.61361 0.81753 0.0
C1923 C 0.34206 0.59578 0.81242 0.0
C1924 C 0.34268 0.58861 0.7924 0.0
C1925 C 0.33469 0.59954 0.77741 0.0
H1926 H 0.83259 0.51019 0.49288 0.0
H1927 H 0.88089 0.49031 0.52744 0.0
H1928 H 0.85795 0.46391 0.54068 0.0
H1929 H 0.79395 0.50099 0.5295 0.0
H1930 H 0.77525 0.49265 0.51109 0.0
H1931 H 0.79528 0.51059 0.50507 0.0
H1932 H 0.80451 0.48757 0.47524 0.0
H1933 H 0.78454 0.46958 0.48116 0.0
H1934 H 0.80955 0.46225 0.4793 0.0
H1935 H 0.83043 0.43842 0.54837 0.0
H1936 H 0.79976 0.41622 0.55105 0.0
H1937 H 0.76919 0.45314 0.512 0.0
C1938 C 0.83829 0.50031 0.50329 0.0
C1939 C 0.85847 0.5023 0.5092 0.0
C1940 C 0.86541 0.48919 0.52293 0.0
C1941 C 0.85253 0.47411 0.53046 0.0
C1942 C 0.83275 0.47246 0.52421 0.0
C1943 C 0.82562 0.48528 0.51105 0.0
C1944 C 0.8038 0.48004 0.50644 0.0
C1945 C 0.79134 0.49708 0.51345 0.0
C1946 C 0.80041 0.47453 0.48422 0.0
C1947 C 0.79988 0.46207 0.51881 0.0
C1948 C 0.81677 0.45796 0.52894 0.0
C1949 C 0.81704 0.44159 0.54068 0.0
C1950 C 0.79957 0.42905 0.54205 0.0
C1951 C 0.78206 0.43301 0.53182 0.0
C1952 C 0.78226 0.44985 0.52019 0.0
H1953 H 0.71473 0.89638 0.76436 0.0
H1954 H 0.69789 0.86548 0.81728 0.0
H1955 H 0.67072 0.88723 0.82281 0.0
H1956 H 0.70786 0.944 0.78337 0.0
H1957 H 0.69788 0.95289 0.76096 0.0
H1958 H 0.71435 0.93325 0.75954 0.0
H1959 H 0.68788 0.91064 0.73922 0.0
H1960 H 0.6713 0.93027 0.74054 0.0
H1961 H 0.66328 0.90604 0.74904 0.0
H1962 H 0.64908 0.91514 0.82563 0.0
H1963 H 0.63281 0.94654 0.82432 0.0
H1964 H 0.66198 0.95875 0.76877 0.0
C1965 C 0.70508 0.89399 0.77689 0.0
C1966 C 0.70832 0.87911 0.79029 0.0
C1967 C 0.69546 0.8765 0.8066 0.0
C1968 C 0.68001 0.88883 0.80991 0.0
C1969 C 0.67743 0.90357 0.79666 0.0
C1970 C 0.68942 0.90607 0.78032 0.0
C1971 C 0.6842 0.92387 0.7691 0.0
C1972 C 0.70214 0.93942 0.7682 0.0
C1973 C 0.67618 0.91731 0.74824 0.0
C1974 C 0.66798 0.93144 0.78215 0.0
C1975 C 0.66427 0.91942 0.79791 0.0
C1976 C 0.65145 0.9244 0.8131 0.0
C1977 C 0.64234 0.94225 0.81228 0.0
C1978 C 0.64591 0.95474 0.79627 0.0
C1979 C 0.65858 0.94908 0.78084 0.0
H1980 H 0.64717 0.54662 0.94971 0.0
H1981 H 0.59912 0.57532 0.97856 0.0
H1982 H 0.62228 0.60461 0.98799 0.0
H1983 H 0.68413 0.56269 0.98565 0.0
H1984 H 0.70389 0.56634 0.96809 0.0
H1985 H 0.6833 0.54823 0.96243 0.0
H1986 H 0.67651 0.56539 0.92987 0.0
H1987 H 0.69713 0.58355 0.93542 0.0
H1988 H 0.6728 0.59159 0.93082 0.0
H1989 H 0.65072 0.63005 0.99532 0.0
H1990 H 0.68278 0.64979 0.0009 0.0
H1991 H 0.71251 0.60437 0.96751 0.0
C1992 C 0.64149 0.55921 0.95774 0.0
C1993 C 0.62138 0.55879 0.96339 0.0
C1994 C 0.61453 0.57535 0.97422 0.0
C1995 C 0.62752 0.59206 0.97953 0.0
C1996 C 0.64731 0.59194 0.9739 0.0
C1997 C 0.65429 0.57596 0.96327 0.0
C1998 C 0.67643 0.57922 0.95992 0.0
C1999 C 0.68759 0.56317 0.96961 0.0
C2000 C 0.68098 0.57999 0.93768 0.0
C2001 C 0.68083 0.59943 0.97053 0.0
C2002 C 0.6638 0.60656 0.97834 0.0
C2003 C 0.66416 0.62469 0.98919 0.0
C2004 C 0.68247 0.63578 0.99228 0.0
C2005 C 0.70019 0.62866 0.98464 0.0
C2006 C 0.69924 0.61029 0.97349 0.0
H2007 H 0.20143 0.63072 0.2332 0.0
H2008 H 0.25301 0.61756 0.2673 0.0
H2009 H 0.23397 0.58813 0.27997 0.0
H2010 H 0.16537 0.61763 0.26987 0.0
H2011 H 0.14697 0.60701 0.25207 0.0
H2012 H 0.16491 0.62663 0.2452 0.0
H2013 H 0.17582 0.60426 0.21557 0.0
H2014 H 0.1579 0.58458 0.22234 0.0
H2015 H 0.18369 0.57996 0.21999 0.0
H2016 H 0.20897 0.56048 0.28945 0.0
H2017 H 0.18001 0.53652 0.29468 0.0
H2018 H 0.1449 0.56845 0.25476 0.0
C2019 C 0.20871 0.62171 0.24339 0.0
C2020 C 0.22872 0.6264 0.2492 0.0
C2021 C 0.23777 0.61408 0.2624 0.0
C2022 C 0.22705 0.5974 0.26977 0.0
C2023 C 0.20732 0.59327 0.26381 0.0
C2024 C 0.19825 0.60505 0.2509 0.0
C2025 C 0.17682 0.59751 0.24694 0.0
C2026 C 0.16269 0.61312 0.25394 0.0
C2027 C 0.17337 0.5912 0.2249 0.0
C2028 C 0.17523 0.5797 0.25974 0.0
C2029 C 0.19295 0.57746 0.26933 0.0
C2030 C 0.19501 0.56206 0.282 0.0
C2031 C 0.17847 0.54855 0.28488 0.0
C2032 C 0.16016 0.55059 0.27516 0.0
C2033 C 0.15863 0.56643 0.26245 0.0
H2034 H 0.86438 0.549 0.02393 0.0
H2035 H 0.83302 0.5322 0.07738 0.0
H2036 H 0.81015 0.55809 0.07245 0.0
H2037 H 0.85916 0.60099 0.02762 0.0
H2038 H 0.85454 0.60286 0.00149 0.0
H2039 H 0.86944 0.58391 0.00987 0.0
H2040 H 0.84611 0.55657 0.99129 0.0
H2041 H 0.83128 0.57544 0.98265 0.0
H2042 H 0.81983 0.5552 0.99608 0.0
H2043 H 0.79119 0.58677 0.06217 0.0
H2044 H 0.77475 0.6125 0.04474 0.0
H2045 H 0.81589 0.60722 0.99614 0.0
C2046 C 0.85258 0.55037 0.03453 0.0
C2047 C 0.85089 0.53851 0.05125 0.0
C2048 C 0.83522 0.54135 0.06477 0.0
C2049 C 0.82199 0.55598 0.06203 0.0
C2050 C 0.82429 0.56743 0.0455 0.0
C2051 C 0.83894 0.56448 0.03177 0.0
C2052 C 0.83749 0.57788 0.0146 0.0
C2053 C 0.85628 0.59226 0.01333 0.0
C2054 C 0.83343 0.56554 0.995 0.0
C2055 C 0.81973 0.58885 0.02083 0.0
C2056 C 0.81255 0.58291 0.03889 0.0
C2057 C 0.79656 0.59141 0.04793 0.0
C2058 C 0.78741 0.60606 0.03801 0.0
C2059 C 0.79403 0.61167 0.01911 0.0
C2060 C 0.81047 0.60304 0.01053 0.0
H2061 H 0.12635 0.00674 0.08214 0.0
H2062 H 0.14303 0.05005 0.03848 0.0
H2063 H 0.1677 0.02842 0.02493 0.0
H2064 H 0.17603 0.99088 0.09017 0.0
H2065 H 0.16738 0.9651 0.09239 0.0
H2066 H 0.15156 0.98441 0.09955 0.0
H2067 H 0.12408 0.96814 0.07561 0.0
H2068 H 0.13984 0.94882 0.06832 0.0
H2069 H 0.12973 0.9636 0.04981 0.0
H2070 H 0.18923 0.00202 0.01492 0.0
H2071 H 0.20759 0.97233 0.00948 0.0
H2072 H 0.17742 0.94523 0.05921 0.0
C2073 C 0.13526 0.01169 0.06979 0.0
C2074 C 0.13288 0.03026 0.06156 0.0
C2075 C 0.14486 0.03617 0.04539 0.0
C2076 C 0.15883 0.0239 0.03745 0.0
C2077 C 0.1607 0.00572 0.0458 0.0
C2078 C 0.14936 0.99959 0.06164 0.0
C2079 C 0.15422 0.97907 0.06746 0.0
C2080 C 0.16281 0.97992 0.08865 0.0
C2081 C 0.13587 0.96402 0.06515 0.0
C2082 C 0.16987 0.9746 0.05223 0.0
C2083 C 0.17332 0.99025 0.03994 0.0
C2084 C 0.18677 0.98969 0.02449 0.0
C2085 C 0.19709 0.97269 0.0215 0.0
C2086 C 0.19397 0.95642 0.03392 0.0
C2087 C 0.18016 0.95743 0.04951 0.0
loop_
_geom_bond_atom_site_label_1
_geom_bond_atom_site_label_2
_geom_bond_distance
_geom_bond_site_symmetry_2
_ccdc_geom_bond_type
C0 C1 1.386 . S
C0 C2 1.397 . S
C0 H24 0.931 . S
C1 C0 1.386 . S
C1 C5 1.397 . S
C2 C0 1.397 . S
C2 C3 1.384 . S
C2 H25 0.930 . S
C3 C2 1.384 . S
C3 C4 1.377 . S
C3 C6 1.481 . S
C4 C3 1.377 . S
C4 C5 1.389 . S
C4 H26 0.929 . S
C5 C1 1.397 . S
C5 C4 1.389 . S
C5 H27 0.931 . S
C6 C3 1.481 . S
C6 C7 1.387 . S
C6 C11 1.390 . S
C7 C6 1.387 . S
C7 C8 1.401 . S
C7 H28 0.930 . S
C8 C7 1.401 . S
C8 C9 1.376 . S
C8 C17 1.511 . S
C9 C8 1.376 . S
C9 C10 1.392 . S
C9 H30 0.931 . S
C10 C9 1.392 . S
C10 C11 1.361 . S
C10 C12 1.500 . S
C11 C6 1.390 . S
C11 C10 1.361 . S
C11 H29 0.931 . S
C12 C10 1.500 . S
C12 C13 1.371 . S
C12 C14 1.365 . S
C13 C12 1.371 . S
C13 C23 1.386 . S
C13 H31 0.931 . S
C14 C12 1.365 . S
C14 C15 1.409 . S
C14 H32 0.929 . S
C15 C14 1.409 . S
C15 C16 1.380 . S
C15 H33 0.930 . S
C16 C15 1.380 . S
C16 C23 1.357 . S
C17 C8 1.511 . S
C17 C18 1.341 . S
C17 C19 1.371 . S
C18 C17 1.341 . S
C18 C22 1.394 . S
C18 H34 0.930 . S
C19 C17 1.371 . S
C19 C20 1.392 . S
C19 H35 0.931 . S
C20 C19 1.392 . S
C20 C21 1.331 . S
C20 H38 0.932 . S
C21 C20 1.331 . S
C21 C22 1.336 . S
C22 C18 1.394 . S
C22 C21 1.336 . S
C22 H37 0.929 . S
C23 C13 1.386 . S
C23 C16 1.357 . S
C23 H36 0.928 . S
H24 C0 0.931 . S
H25 C2 0.930 . S
H26 C4 0.929 . S
H27 C5 0.931 . S
H28 C7 0.930 . S
H29 C11 0.931 . S
H30 C9 0.931 . S
H31 C13 0.931 . S
H32 C14 0.929 . S
H33 C15 0.930 . S
H34 C18 0.930 . S
H35 C19 0.931 . S
H36 C23 0.928 . S
H37 C22 0.929 . S
H38 C20 0.932 . S
C39 C40 1.386 . S
C39 C41 1.397 . S
C39 H63 0.931 . S
C40 C39 1.386 . S
C40 C44 1.397 . S
C41 C39 1.397 . S
C41 C42 1.384 . S
C41 H64 0.930 . S
C42 C41 1.384 . S
C42 C43 1.377 . S
C42 C45 1.481 . S
C43 C42 1.377 . S
C43 C44 1.389 . S
C43 H65 0.929 . S
C44 C40 1.397 . S
C44 C43 1.389 . S
C44 H66 0.931 . S
C45 C42 1.481 . S
C45 C46 1.387 . S
C45 C50 1.390 . S
C46 C45 1.387 . S
C46 C47 1.401 . S
C46 H67 0.930 . S
C47 C46 1.401 . S
C47 C48 1.376 . S
C47 C56 1.511 . S
C48 C47 1.376 . S
C48 C49 1.392 . S
C48 H69 0.931 . S
C49 C48 1.392 . S
C49 C50 1.361 . S
C49 C51 1.500 . S
C50 C45 1.390 . S
C50 C49 1.361 . S
C50 H68 0.931 . S
C51 C49 1.500 . S
C51 C52 1.371 . S
C51 C53 1.365 . S
C52 C51 1.371 . S
C52 C62 1.386 . S
C52 H70 0.931 . S
C53 C51 1.365 . S
C53 C54 1.409 . S
C53 H71 0.929 . S
C54 C53 1.409 . S
C54 C55 1.380 . S
C54 H72 0.930 . S
C55 C54 1.380 . S
C55 C62 1.357 . S
C56 C47 1.511 . S
C56 C57 1.341 . S
C56 C58 1.371 . S
C57 C56 1.341 . S
C57 C61 1.394 . S
C57 H73 0.930 . S
C58 C56 1.371 . S
C58 C59 1.392 . S
C58 H74 0.931 . S
C59 C58 1.392 . S
C59 C60 1.331 . S
C59 H77 0.932 . S
C60 C59 1.331 . S
C60 C61 1.336 . S
C61 C57 1.394 . S
C61 C60 1.336 . S
C61 H76 0.929 . S
C62 C52 1.386 . S
C62 C55 1.357 . S
C62 H75 0.928 . S
H63 C39 0.931 . S
H64 C41 0.930 . S
H65 C43 0.929 . S
H66 C44 0.931 . S
H67 C46 0.930 . S
H68 C50 0.931 . S
H69 C48 0.931 . S
H70 C52 0.931 . S
H71 C53 0.929 . S
H72 C54 0.930 . S
H73 C57 0.930 . S
H74 C58 0.931 . S
H75 C62 0.928 . S
H76 C61 0.929 . S
H77 C59 0.932 . S
C78 C79 1.386 . S
C78 C80 1.397 . S
C78 H102 0.931 . S
C79 C78 1.386 . S
C79 C83 1.397 . S
C80 C78 1.397 . S
C80 C81 1.384 . S
C80 H103 0.930 . S
C81 C80 1.384 . S
C81 C82 1.377 . S
C81 C84 1.481 . S
C82 C81 1.377 . S
C82 C83 1.389 . S
C82 H104 0.929 . S
C83 C79 1.397 . S
C83 C82 1.389 . S
C83 H105 0.931 . S
C84 C81 1.481 . S
C84 C85 1.387 . S
C84 C89 1.390 . S
C85 C84 1.387 . S
C85 C86 1.401 . S
C85 H106 0.930 . S
C86 C85 1.401 . S
C86 C87 1.376 . S
C86 C95 1.511 . S
C87 C86 1.376 . S
C87 C88 1.392 . S
C87 H108 0.931 . S
C88 C87 1.392 . S
C88 C89 1.361 . S
C88 C90 1.500 . S
C89 C84 1.390 . S
C89 C88 1.361 . S
C89 H107 0.931 . S
C90 C88 1.500 . S
C90 C91 1.371 . S
C90 C92 1.365 . S
C91 C90 1.371 . S
C91 C101 1.386 . S
C91 H109 0.931 . S
C92 C90 1.365 . S
C92 C93 1.409 . S
C92 H110 0.929 . S
C93 C92 1.409 . S
C93 C94 1.380 . S
C93 H111 0.930 . S
C94 C93 1.380 . S
C94 C101 1.357 . S
C95 C86 1.511 . S
C95 C96 1.341 . S
C95 C97 1.371 . S
C96 C95 1.341 . S
C96 C100 1.394 . S
C96 H112 0.930 . S
C97 C95 1.371 . S
C97 C98 1.392 . S
C97 H113 0.931 . S
C98 C97 1.392 . S
C98 C99 1.331 . S
C98 H116 0.932 . S
C99 C98 1.331 . S
C99 C100 1.336 . S
C100 C96 1.394 . S
C100 C99 1.336 . S
C100 H115 0.929 . S
C101 C91 1.386 . S
C101 C94 1.357 . S
C101 H114 0.928 . S
H102 C78 0.931 . S
H103 C80 0.930 . S
H104 C82 0.929 . S
H105 C83 0.931 . S
H106 C85 0.930 . S
H107 C89 0.931 . S
H108 C87 0.931 . S
H109 C91 0.931 . S
H110 C92 0.929 . S
H111 C93 0.930 . S
H112 C96 0.930 . S
H113 C97 0.931 . S
H114 C101 0.928 . S
H115 C100 0.929 . S
H116 C98 0.932 . S
C117 C118 1.386 . S
C117 C119 1.397 . S
C117 H141 0.931 . S
C118 C117 1.386 . S
C118 C122 1.397 . S
C119 C117 1.397 . S
C119 C120 1.384 . S
C119 H142 0.930 . S
C120 C119 1.384 . S
C120 C121 1.377 . S
C120 C123 1.481 . S
C121 C120 1.377 . S
C121 C122 1.389 . S
C121 H143 0.929 . S
C122 C118 1.397 . S
C122 C121 1.389 . S
C122 H144 0.931 . S
C123 C120 1.481 . S
C123 C124 1.387 . S
C123 C128 1.390 . S
C124 C123 1.387 . S
C124 C125 1.401 . S
C124 H145 0.930 . S
C125 C124 1.401 . S
C125 C126 1.376 . S
C125 C134 1.511 . S
C126 C125 1.376 . S
C126 C127 1.392 . S
C126 H147 0.931 . S
C127 C126 1.392 . S
C127 C128 1.361 . S
C127 C129 1.500 . S
C128 C123 1.390 . S
C128 C127 1.361 . S
C128 H146 0.931 . S
C129 C127 1.500 . S
C129 C130 1.371 . S
C129 C131 1.365 . S
C130 C129 1.371 . S
C130 C140 1.386 . S
C130 H148 0.931 . S
C131 C129 1.365 . S
C131 C132 1.409 . S
C131 H149 0.929 . S
C132 C131 1.409 . S
C132 C133 1.380 . S
C132 H150 0.930 . S
C133 C132 1.380 . S
C133 C140 1.357 . S
C134 C125 1.511 . S
C134 C135 1.341 . S
C134 C136 1.371 . S
C135 C134 1.341 . S
C135 C139 1.394 . S
C135 H151 0.930 . S
C136 C134 1.371 . S
C136 C137 1.392 . S
C136 H152 0.931 . S
C137 C136 1.392 . S
C137 C138 1.331 . S
C137 H155 0.932 . S
C138 C137 1.331 . S
C138 C139 1.336 . S
C139 C135 1.394 . S
C139 C138 1.336 . S
C139 H154 0.929 . S
C140 C130 1.386 . S
C140 C133 1.357 . S
C140 H153 0.928 . S
H141 C117 0.931 . S
H142 C119 0.930 . S
H143 C121 0.929 . S
H144 C122 0.931 . S
H145 C124 0.930 . S
H146 C128 0.931 . S
H147 C126 0.931 . S
H148 C130 0.931 . S
H149 C131 0.929 . S
H150 C132 0.930 . S
H151 C135 0.930 . S
H152 C136 0.931 . S
H153 C140 0.928 . S
H154 C139 0.929 . S
H155 C137 0.932 . S
C156 C157 1.386 . S
C156 C158 1.397 . S
C156 H180 0.931 . S
C157 C156 1.386 . S
C157 C161 1.397 . S
C158 C156 1.397 . S
C158 C159 1.384 . S
C158 H181 0.930 . S
C159 C158 1.384 . S
C159 C160 1.377 . S
C159 C162 1.481 . S
C160 C159 1.377 . S
C160 C161 1.389 . S
C160 H182 0.929 . S
C161 C157 1.397 . S
C161 C160 1.389 . S
C161 H183 0.931 . S
C162 C159 1.481 . S
C162 C163 1.387 . S
C162 C167 1.390 . S
C163 C162 1.387 . S
C163 C164 1.401 . S
C163 H184 0.930 . S
C164 C163 1.401 . S
C164 C165 1.376 . S
C164 C173 1.511 . S
C165 C164 1.376 . S
C165 C166 1.392 . S
C165 H186 0.931 . S
C166 C165 1.392 . S
C166 C167 1.361 . S
C166 C168 1.500 . S
C167 C162 1.390 . S
C167 C166 1.361 . S
C167 H185 0.931 . S
C168 C166 1.500 . S
C168 C169 1.371 . S
C168 C170 1.365 . S
C169 C168 1.371 . S
C169 C179 1.386 . S
C169 H187 0.931 . S
C170 C168 1.365 . S
C170 C171 1.401 1_565 S
C170 H188 0.929 . S
C171 C170 1.401 1_545 S
C171 C172 1.381 . S
C171 H189 0.937 . S
C172 C171 1.381 . S
C172 C179 1.357 1_545 S
C173 C164 1.511 . S
C173 C174 1.341 . S
C173 C175 1.371 . S
C174 C173 1.341 . S
C174 C178 1.394 . S
C174 H190 0.930 . S
C175 C173 1.371 . S
C175 C176 1.392 . S
C175 H191 0.931 . S
C176 C175 1.392 . S
C176 C177 1.331 . S
C176 H194 0.932 . S
C177 C176 1.331 . S
C177 C178 1.336 . S
C178 C174 1.394 . S
C178 C177 1.336 . S
C178 H193 0.929 . S
C179 C169 1.386 . S
C179 C172 1.357 1_565 S
C179 H192 0.928 . S
H180 C156 0.931 . S
H181 C158 0.930 . S
H182 C160 0.929 . S
H183 C161 0.931 . S
H184 C163 0.930 . S
H185 C167 0.931 . S
H186 C165 0.931 . S
H187 C169 0.931 . S
H188 C170 0.929 . S
H189 C171 0.937 . S
H190 C174 0.930 . S
H191 C175 0.931 . S
H192 C179 0.928 . S
H193 C178 0.929 . S
H194 C176 0.932 . S
C195 C196 1.386 . S
C195 C197 1.397 . S
C195 H219 0.931 . S
C196 C195 1.386 . S
C196 C200 1.397 . S
C197 C195 1.397 . S
C197 C198 1.384 . S
C197 H220 0.930 . S
C198 C197 1.384 . S
C198 C199 1.377 . S
C198 C201 1.481 . S
C199 C198 1.377 . S
C199 C200 1.389 . S
C199 H221 0.929 . S
C200 C196 1.397 . S
C200 C199 1.389 . S
C200 H222 0.931 . S
C201 C198 1.481 . S
C201 C202 1.387 . S
C201 C206 1.390 . S
C202 C201 1.387 . S
C202 C203 1.401 . S
C202 H223 0.930 . S
C203 C202 1.401 . S
C203 C204 1.376 . S
C203 C212 1.511 . S
C204 C203 1.376 . S
C204 C205 1.392 . S
C204 H225 0.931 . S
C205 C204 1.392 . S
C205 C206 1.361 . S
C205 C207 1.500 . S
C206 C201 1.390 . S
C206 C205 1.361 . S
C206 H224 0.931 . S
C207 C205 1.500 . S
C207 C208 1.371 . S
C207 C209 1.365 . S
C208 C207 1.371 . S
C208 C218 1.386 . S
C208 H226 0.931 . S
C209 C207 1.365 . S
C209 C210 1.409 . S
C209 H227 0.929 . S
C210 C209 1.409 . S
C210 C211 1.380 . S
C210 H228 0.930 . S
C211 C210 1.380 . S
C211 C218 1.357 . S
C212 C203 1.511 . S
C212 C213 1.341 . S
C212 C214 1.371 . S
C213 C212 1.341 . S
C213 C217 1.394 . S
C213 H229 0.930 . S
C214 C212 1.371 . S
C214 C215 1.392 . S
C214 H230 0.931 . S
C215 C214 1.392 . S
C215 C216 1.331 . S
C215 H233 0.932 . S
C216 C215 1.331 . S
C216 C217 1.336 . S
C217 C213 1.394 . S
C217 C216 1.336 . S
C217 H232 0.929 . S
C218 C208 1.386 . S
C218 C211 1.357 . S
C218 H231 0.928 . S
H219 C195 0.931 . S
H220 C197 0.930 . S
H221 C199 0.929 . S
H222 C200 0.931 . S
H223 C202 0.930 . S
H224 C206 0.931 . S
H225 C204 0.931 . S
H226 C208 0.931 . S
H227 C209 0.929 . S
H228 C210 0.930 . S
H229 C213 0.930 . S
H230 C214 0.931 . S
H231 C218 0.928 . S
H232 C217 0.929 . S
H233 C215 0.932 . S
C234 C235 1.386 . S
C234 C236 1.397 . S
C234 H258 0.931 . S
C235 C234 1.386 . S
C235 C239 1.397 . S
C236 C234 1.397 . S
C236 C237 1.384 . S
C236 H259 0.930 . S
C237 C236 1.384 . S
C237 C238 1.377 . S
C237 C240 1.481 . S
C238 C237 1.377 . S
C238 C239 1.389 . S
C238 H260 0.929 . S
C239 C235 1.397 . S
C239 C238 1.389 . S
C239 H261 0.931 . S
C240 C237 1.481 . S
C240 C241 1.387 . S
C240 C245 1.390 . S
C241 C240 1.387 . S
C241 C242 1.401 . S
C241 H262 0.930 . S
C242 C241 1.401 . S
C242 C243 1.376 . S
C242 C251 1.511 . S
C243 C242 1.376 . S
C243 C244 1.392 . S
C243 H264 0.931 . S
C244 C243 1.392 . S
C244 C245 1.361 . S
C244 C246 1.500 . S
C245 C240 1.390 . S
C245 C244 1.361 . S
C245 H263 0.931 . S
C246 C244 1.500 . S
C246 C247 1.371 . S
C246 C248 1.365 . S
C247 C246 1.371 . S
C247 C257 1.386 . S
C247 H265 0.931 . S
C248 C246 1.365 . S
C248 C249 1.409 . S
C248 H266 0.929 . S
C249 C248 1.409 . S
C249 C250 1.380 . S
C249 H267 0.930 . S
C250 C249 1.380 . S
C250 C257 1.357 . S
C251 C242 1.511 . S
C251 C252 1.341 . S
C251 C253 1.371 . S
C252 C251 1.341 . S
C252 C256 1.394 . S
C252 H268 0.930 . S
C253 C251 1.371 . S
C253 C254 1.392 . S
C253 H269 0.931 . S
C254 C253 1.392 . S
C254 C255 1.331 . S
C254 H272 0.932 . S
C255 C254 1.331 . S
C255 C256 1.336 . S
C256 C252 1.394 . S
C256 C255 1.336 . S
C256 H271 0.929 . S
C257 C247 1.386 . S
C257 C250 1.357 . S
C257 H270 0.928 . S
H258 C234 0.931 . S
H259 C236 0.930 . S
H260 C238 0.929 . S
H261 C239 0.931 . S
H262 C241 0.930 . S
H263 C245 0.931 . S
H264 C243 0.931 . S
H265 C247 0.931 . S
H266 C248 0.929 . S
H267 C249 0.930 . S
H268 C252 0.930 . S
H269 C253 0.931 . S
H270 C257 0.928 . S
H271 C256 0.929 . S
H272 C254 0.932 . S
C273 C274 1.386 . S
C273 C275 1.397 . S
C273 H297 0.931 . S
C274 C273 1.386 . S
C274 C278 1.397 . S
C275 C273 1.397 . S
C275 C276 1.384 . S
C275 H298 0.930 . S
C276 C275 1.384 . S
C276 C277 1.377 . S
C276 C279 1.481 . S
C277 C276 1.377 . S
C277 C278 1.389 . S
C277 H299 0.929 . S
C278 C274 1.397 . S
C278 C277 1.389 . S
C278 H300 0.931 . S
C279 C276 1.481 . S
C279 C280 1.387 . S
C279 C284 1.390 . S
C280 C279 1.387 . S
C280 C281 1.401 . S
C280 H301 0.930 . S
C281 C280 1.401 . S
C281 C282 1.376 . S
C281 C290 1.511 . S
C282 C281 1.376 . S
C282 C283 1.392 . S
C282 H303 0.931 . S
C283 C282 1.392 . S
C283 C284 1.361 . S
C283 C285 1.500 . S
C284 C279 1.390 . S
C284 C283 1.361 . S
C284 H302 0.931 . S
C285 C283 1.500 . S
C285 C286 1.371 . S
C285 C287 1.365 . S
C286 C285 1.371 . S
C286 C296 1.386 . S
C286 H304 0.931 . S
C287 C285 1.365 . S
C287 C288 1.409 . S
C287 H305 0.929 . S
C288 C287 1.409 . S
C288 C289 1.380 . S
C288 H306 0.930 . S
C289 C288 1.380 . S
C289 C296 1.357 . S
C290 C281 1.511 . S
C290 C291 1.341 . S
C290 C292 1.371 . S
C291 C290 1.341 . S
C291 C295 1.394 . S
C291 H307 0.930 . S
C292 C290 1.371 . S
C292 C293 1.392 . S
C292 H308 0.931 . S
C293 C292 1.392 . S
C293 C294 1.331 . S
C293 H311 0.932 . S
C294 C293 1.331 . S
C294 C295 1.336 . S
C295 C291 1.394 . S
C295 C294 1.336 . S
C295 H310 0.929 . S
C296 C286 1.386 . S
C296 C289 1.357 . S
C296 H309 0.928 . S
H297 C273 0.931 . S
H298 C275 0.930 . S
H299 C277 0.929 . S
H300 C278 0.931 . S
H301 C280 0.930 . S
H302 C284 0.931 . S
H303 C282 0.931 . S
H304 C286 0.931 . S
H305 C287 0.929 . S
H306 C288 0.930 . S
H307 C291 0.930 . S
H308 C292 0.931 . S
H309 C296 0.928 . S
H310 C295 0.929 . S
H311 C293 0.932 . S
C312 C313 1.386 . S
C312 C314 1.397 . S
C312 H336 0.931 . S
C313 C312 1.386 . S
C313 C317 1.397 . S
C314 C312 1.397 . S
C314 C315 1.384 . S
C314 H337 0.930 . S
C315 C314 1.384 . S
C315 C316 1.377 . S
C315 C318 1.481 . S
C316 C315 1.377 . S
C316 C317 1.389 . S
C316 H338 0.929 . S
C317 C313 1.397 . S
C317 C316 1.389 . S
C317 H339 0.931 . S
C318 C315 1.481 . S
C318 C319 1.387 . S
C318 C323 1.390 . S
C319 C318 1.387 . S
C319 C320 1.401 . S
C319 H340 0.930 . S
C320 C319 1.401 . S
C320 C321 1.376 . S
C320 C329 1.511 . S
C321 C320 1.376 . S
C321 C322 1.392 . S
C321 H342 0.931 . S
C322 C321 1.392 . S
C322 C323 1.361 . S
C322 C324 1.500 . S
C323 C318 1.390 . S
C323 C322 1.361 . S
C323 H341 0.931 . S
C324 C322 1.500 . S
C324 C325 1.371 . S
C324 C326 1.365 . S
C325 C324 1.371 . S
C325 C335 1.386 . S
C325 H343 0.931 . S
C326 C324 1.365 . S
C326 C327 1.409 . S
C326 H344 0.929 . S
C327 C326 1.409 . S
C327 C328 1.380 . S
C327 H345 0.930 . S
C328 C327 1.380 . S
C328 C335 1.357 . S
C329 C320 1.511 . S
C329 C330 1.341 . S
C329 C331 1.371 . S
C330 C329 1.341 . S
C330 C334 1.394 . S
C330 H346 0.930 . S
C331 C329 1.371 . S
C331 C332 1.392 . S
C331 H347 0.931 . S
C332 C331 1.392 . S
C332 C333 1.331 . S
C332 H350 0.932 . S
C333 C332 1.331 . S
C333 C334 1.336 . S
C334 C330 1.394 . S
C334 C333 1.336 . S
C334 H349 0.929 . S
C335 C325 1.386 . S
C335 C328 1.357 . S
C335 H348 0.928 . S
H336 C312 0.931 . S
H337 C314 0.930 . S
H338 C316 0.929 . S
H339 C317 0.931 . S
H340 C319 0.930 . S
H341 C323 0.931 . S
H342 C321 0.931 . S
H343 C325 0.931 . S
H344 C326 0.929 . S
H345 C327 0.930 . S
H346 C330 0.930 . S
H347 C331 0.931 . S
H348 C335 0.928 . S
H349 C334 0.929 . S
H350 C332 0.932 . S
C351 C352 1.386 . S
C351 C353 1.397 . S
C351 H375 0.931 . S
C352 C351 1.386 . S
C352 C356 1.397 . S
C353 C351 1.397 . S
C353 C354 1.384 . S
C353 H376 0.930 . S
C354 C353 1.384 . S
C354 C355 1.377 . S
C354 C357 1.481 . S
C355 C354 1.377 . S
C355 C356 1.389 . S
C355 H377 0.929 . S
C356 C352 1.397 . S
C356 C355 1.389 . S
C356 H378 0.931 . S
C357 C354 1.481 . S
C357 C358 1.387 . S
C357 C362 1.390 . S
C358 C357 1.387 . S
C358 C359 1.401 . S
C358 H379 0.930 . S
C359 C358 1.401 . S
C359 C360 1.376 . S
C359 C368 1.511 . S
C360 C359 1.376 . S
C360 C361 1.392 . S
C360 H381 0.931 . S
C361 C360 1.392 . S
C361 C362 1.361 . S
C361 C363 1.500 . S
C362 C357 1.390 . S
C362 C361 1.361 . S
C362 H380 0.931 . S
C363 C361 1.500 . S
C363 C364 1.371 . S
C363 C365 1.365 . S
C364 C363 1.371 . S
C364 C374 1.386 . S
C364 H382 0.931 . S
C365 C363 1.365 . S
C365 C366 1.409 . S
C365 H383 0.929 . S
C366 C365 1.409 . S
C366 C367 1.380 . S
C366 H384 0.930 . S
C367 C366 1.380 . S
C367 C374 1.357 . S
C368 C359 1.511 . S
C368 C369 1.341 . S
C368 C370 1.371 . S
C369 C368 1.341 . S
C369 C373 1.394 . S
C369 H385 0.930 . S
C370 C368 1.371 . S
C370 C371 1.392 . S
C370 H386 0.931 . S
C371 C370 1.392 . S
C371 C372 1.331 . S
C371 H389 0.932 . S
C372 C371 1.331 . S
C372 C373 1.336 . S
C373 C369 1.394 . S
C373 C372 1.336 . S
C373 H388 0.929 . S
C374 C364 1.386 . S
C374 C367 1.357 . S
C374 H387 0.928 . S
H375 C351 0.931 . S
H376 C353 0.930 . S
H377 C355 0.929 . S
H378 C356 0.931 . S
H379 C358 0.930 . S
H380 C362 0.931 . S
H381 C360 0.931 . S
H382 C364 0.931 . S
H383 C365 0.929 . S
H384 C366 0.930 . S
H385 C369 0.930 . S
H386 C370 0.931 . S
H387 C374 0.928 . S
H388 C373 0.929 . S
H389 C371 0.932 . S
C390 C391 1.386 . S
C390 C392 1.397 . S
C390 H414 0.931 . S
C391 C390 1.386 . S
C391 C395 1.397 . S
C392 C390 1.397 . S
C392 C393 1.384 . S
C392 H415 0.930 . S
C393 C392 1.384 . S
C393 C394 1.377 . S
C393 C396 1.481 . S
C394 C393 1.377 . S
C394 C395 1.389 . S
C394 H416 0.929 . S
C395 C391 1.397 . S
C395 C394 1.389 . S
C395 H417 0.931 . S
C396 C393 1.481 . S
C396 C397 1.387 . S
C396 C401 1.390 . S
C397 C396 1.387 . S
C397 C398 1.401 . S
C397 H418 0.930 . S
C398 C397 1.401 . S
C398 C399 1.376 . S
C398 C407 1.511 . S
C399 C398 1.376 . S
C399 C400 1.392 . S
C399 H420 0.931 . S
C400 C399 1.392 . S
C400 C401 1.361 . S
C400 C402 1.500 . S
C401 C396 1.390 . S
C401 C400 1.361 . S
C401 H419 0.931 . S
C402 C400 1.500 . S
C402 C403 1.371 . S
C402 C404 1.365 . S
C403 C402 1.371 . S
C403 C413 1.386 . S
C403 H421 0.931 . S
C404 C402 1.365 . S
C404 C405 1.409 . S
C404 H422 0.929 . S
C405 C404 1.409 . S
C405 C406 1.380 . S
C405 H423 0.930 . S
C406 C405 1.380 . S
C406 C413 1.357 . S
C407 C398 1.511 . S
C407 C408 1.341 . S
C407 C409 1.371 . S
C408 C407 1.341 . S
C408 C412 1.394 . S
C408 H424 0.930 . S
C409 C407 1.371 . S
C409 C410 1.392 . S
C409 H425 0.931 . S
C410 C409 1.392 . S
C410 C411 1.331 . S
C410 H428 0.932 . S
C411 C410 1.331 . S
C411 C412 1.336 . S
C412 C408 1.394 . S
C412 C411 1.336 . S
C412 H427 0.929 . S
C413 C403 1.386 . S
C413 C406 1.357 . S
C413 H426 0.928 . S
H414 C390 0.931 . S
H415 C392 0.930 . S
H416 C394 0.929 . S
H417 C395 0.931 . S
H418 C397 0.930 . S
H419 C401 0.931 . S
H420 C399 0.931 . S
H421 C403 0.931 . S
H422 C404 0.929 . S
H423 C405 0.930 . S
H424 C408 0.930 . S
H425 C409 0.931 . S
H426 C413 0.928 . S
H427 C412 0.929 . S
H428 C410 0.932 . S
C429 C430 1.386 . S
C429 C431 1.397 . S
C429 H453 0.931 . S
C430 C429 1.386 . S
C430 C434 1.397 . S
C431 C429 1.397 . S
C431 C432 1.384 . S
C431 H454 0.930 . S
C432 C431 1.384 . S
C432 C433 1.377 . S
C432 C435 1.481 . S
C433 C432 1.377 . S
C433 C434 1.389 . S
C433 H455 0.929 . S
C434 C430 1.397 . S
C434 C433 1.389 . S
C434 H456 0.931 . S
C435 C432 1.481 . S
C435 C436 1.387 . S
C435 C440 1.390 . S
C436 C435 1.387 . S
C436 C437 1.401 . S
C436 H457 0.930 . S
C437 C436 1.401 . S
C437 C438 1.376 . S
C437 C446 1.511 . S
C438 C437 1.376 . S
C438 C439 1.392 . S
C438 H459 0.931 . S
C439 C438 1.392 . S
C439 C440 1.361 . S
C439 C441 1.500 . S
C440 C435 1.390 . S
C440 C439 1.361 . S
C440 H458 0.931 . S
C441 C439 1.500 . S
C441 C442 1.371 . S
C441 C443 1.365 . S
C442 C441 1.371 . S
C442 C452 1.386 . S
C442 H460 0.931 . S
C443 C441 1.365 . S
C443 C444 1.409 . S
C443 H461 0.929 . S
C444 C443 1.409 . S
C444 C445 1.380 . S
C444 H462 0.930 . S
C445 C444 1.380 . S
C445 C452 1.357 . S
C446 C437 1.511 . S
C446 C447 1.341 . S
C446 C448 1.371 . S
C447 C446 1.341 . S
C447 C451 1.394 . S
C447 H463 0.930 . S
C448 C446 1.371 . S
C448 C449 1.392 . S
C448 H464 0.931 . S
C449 C448 1.392 . S
C449 C450 1.331 . S
C449 H467 0.932 . S
C450 C449 1.331 . S
C450 C451 1.336 . S
C451 C447 1.394 . S
C451 C450 1.336 . S
C451 H466 0.929 . S
C452 C442 1.386 . S
C452 C445 1.357 . S
C452 H465 0.928 . S
H453 C429 0.931 . S
H454 C431 0.930 . S
H455 C433 0.929 . S
H456 C434 0.931 . S
H457 C436 0.930 . S
H458 C440 0.931 . S
H459 C438 0.931 . S
H460 C442 0.931 . S
H461 C443 0.929 . S
H462 C444 0.930 . S
H463 C447 0.930 . S
H464 C448 0.931 . S
H465 C452 0.928 . S
H466 C451 0.929 . S
H467 C449 0.932 . S
C468 C469 1.386 . S
C468 C470 1.397 . S
C468 H492 0.931 . S
C469 C468 1.386 . S
C469 C473 1.397 . S
C470 C468 1.397 . S
C470 C471 1.384 . S
C470 H493 0.930 . S
C471 C470 1.384 . S
C471 C472 1.377 . S
C471 C474 1.481 . S
C472 C471 1.377 . S
C472 C473 1.389 . S
C472 H494 0.929 . S
C473 C469 1.397 . S
C473 C472 1.389 . S
C473 H495 0.931 . S
C474 C471 1.481 . S
C474 C475 1.387 . S
C474 C479 1.390 . S
C475 C474 1.387 . S
C475 C476 1.401 . S
C475 H496 0.930 . S
C476 C475 1.401 . S
C476 C477 1.376 . S
C476 C485 1.511 . S
C477 C476 1.376 . S
C477 C478 1.392 . S
C477 H498 0.931 . S
C478 C477 1.392 . S
C478 C479 1.361 . S
C478 C480 1.500 . S
C479 C474 1.390 . S
C479 C478 1.361 . S
C479 H497 0.931 . S
C480 C478 1.500 . S
C480 C481 1.371 . S
C480 C482 1.365 . S
C481 C480 1.371 . S
C481 C491 1.386 . S
C481 H499 0.931 . S
C482 C480 1.365 . S
C482 C483 1.409 . S
C482 H500 0.929 . S
C483 C482 1.409 . S
C483 C484 1.380 . S
C483 H501 0.930 . S
C484 C483 1.380 . S
C484 C491 1.357 . S
C485 C476 1.511 . S
C485 C486 1.341 . S
C485 C487 1.371 . S
C486 C485 1.341 . S
C486 C490 1.394 . S
C486 H502 0.930 . S
C487 C485 1.371 . S
C487 C488 1.392 . S
C487 H503 0.931 . S
C488 C487 1.392 . S
C488 C489 1.331 . S
C488 H506 0.932 . S
C489 C488 1.331 . S
C489 C490 1.336 . S
C490 C486 1.394 . S
C490 C489 1.336 . S
C490 H505 0.929 . S
C491 C481 1.386 . S
C491 C484 1.357 . S
C491 H504 0.928 . S
H492 C468 0.931 . S
H493 C470 0.930 . S
H494 C472 0.929 . S
H495 C473 0.931 . S
H496 C475 0.930 . S
H497 C479 0.931 . S
H498 C477 0.931 . S
H499 C481 0.931 . S
H500 C482 0.929 . S
H501 C483 0.930 . S
H502 C486 0.930 . S
H503 C487 0.931 . S
H504 C491 0.928 . S
H505 C490 0.929 . S
H506 C488 0.932 . S
C507 C508 1.386 . S
C507 C509 1.397 . S
C507 H531 0.931 . S
C508 C507 1.386 . S
C508 C512 1.397 . S
C509 C507 1.397 . S
C509 C510 1.384 . S
C509 H532 0.930 . S
C510 C509 1.384 . S
C510 C511 1.377 . S
C510 C513 1.481 . S
C511 C510 1.377 . S
C511 C512 1.389 . S
C511 H533 0.929 . S
C512 C508 1.397 . S
C512 C511 1.389 . S
C512 H534 0.931 . S
C513 C510 1.481 . S
C513 C514 1.387 . S
C513 C518 1.390 . S
C514 C513 1.387 . S
C514 C515 1.401 . S
C514 H535 0.930 . S
C515 C514 1.401 . S
C515 C516 1.376 . S
C515 C524 1.511 . S
C516 C515 1.376 . S
C516 C517 1.392 . S
C516 H537 0.931 . S
C517 C516 1.392 . S
C517 C518 1.361 . S
C517 C519 1.500 . S
C518 C513 1.390 . S
C518 C517 1.361 . S
C518 H536 0.931 . S
C519 C517 1.500 . S
C519 C520 1.371 . S
C519 C521 1.365 . S
C520 C519 1.371 . S
C520 C530 1.386 . S
C520 H538 0.931 . S
C521 C519 1.365 . S
C521 C522 1.409 . S
C521 H539 0.929 . S
C522 C521 1.409 . S
C522 C523 1.380 . S
C522 H540 0.930 . S
C523 C522 1.380 . S
C523 C530 1.357 . S
C524 C515 1.511 . S
C524 C525 1.341 . S
C524 C526 1.371 . S
C525 C524 1.341 . S
C525 C529 1.394 . S
C525 H541 0.930 . S
C526 C524 1.371 . S
C526 C527 1.392 . S
C526 H542 0.931 . S
C527 C526 1.392 . S
C527 C528 1.331 . S
C527 H545 0.932 . S
C528 C527 1.331 . S
C528 C529 1.336 . S
C529 C525 1.394 . S
C529 C528 1.336 . S
C529 H544 0.929 . S
C530 C520 1.386 . S
C530 C523 1.357 . S
C530 H543 0.928 . S
H531 C507 0.931 . S
H532 C509 0.930 . S
H533 C511 0.929 . S
H534 C512 0.931 . S
H535 C514 0.930 . S
H536 C518 0.931 . S
H537 C516 0.931 . S
H538 C520 0.931 . S
H539 C521 0.929 . S
H540 C522 0.930 . S
H541 C525 0.930 . S
H542 C526 0.931 . S
H543 C530 0.928 . S
H544 C529 0.929 . S
H545 C527 0.932 . S
C546 C547 1.386 . S
C546 C548 1.397 . S
C546 H570 0.931 . S
C547 C546 1.386 . S
C547 C551 1.397 . S
C548 C546 1.397 . S
C548 C549 1.384 . S
C548 H571 0.930 . S
C549 C548 1.384 . S
C549 C550 1.377 . S
C549 C552 1.481 . S
C550 C549 1.377 . S
C550 C551 1.389 . S
C550 H572 0.929 . S
C551 C547 1.397 . S
C551 C550 1.389 . S
C551 H573 0.931 . S
C552 C549 1.481 . S
C552 C553 1.387 . S
C552 C557 1.390 . S
C553 C552 1.387 . S
C553 C554 1.401 . S
C553 H574 0.930 . S
C554 C553 1.401 . S
C554 C555 1.376 . S
C554 C563 1.511 . S
C555 C554 1.376 . S
C555 C556 1.392 . S
C555 H576 0.931 . S
C556 C555 1.392 . S
C556 C557 1.361 . S
C556 C558 1.500 . S
C557 C552 1.390 . S
C557 C556 1.361 . S
C557 H575 0.931 . S
C558 C556 1.500 . S
C558 C559 1.371 . S
C558 C560 1.365 . S
C559 C558 1.371 . S
C559 C569 1.386 . S
C559 H577 0.931 . S
C560 C558 1.365 . S
C560 C561 1.409 . S
C560 H578 0.929 . S
C561 C560 1.409 . S
C561 C562 1.380 . S
C561 H579 0.930 . S
C562 C561 1.380 . S
C562 C569 1.357 . S
C563 C554 1.511 . S
C563 C564 1.341 . S
C563 C565 1.371 . S
C564 C563 1.341 . S
C564 C568 1.394 . S
C564 H580 0.930 . S
C565 C563 1.371 . S
C565 C566 1.392 . S
C565 H581 0.931 . S
C566 C565 1.392 . S
C566 C567 1.331 . S
C566 H584 0.932 . S
C567 C566 1.331 . S
C567 C568 1.336 . S
C568 C564 1.394 . S
C568 C567 1.336 . S
C568 H583 0.929 . S
C569 C559 1.386 . S
C569 C562 1.357 . S
C569 H582 0.928 . S
H570 C546 0.931 . S
H571 C548 0.930 . S
H572 C550 0.929 . S
H573 C551 0.931 . S
H574 C553 0.930 . S
H575 C557 0.931 . S
H576 C555 0.931 . S
H577 C559 0.931 . S
H578 C560 0.929 . S
H579 C561 0.930 . S
H580 C564 0.930 . S
H581 C565 0.931 . S
H582 C569 0.928 . S
H583 C568 0.929 . S
H584 C566 0.932 . S
C585 C586 1.386 . S
C585 C587 1.397 . S
C585 H609 0.931 . S
C586 C585 1.386 . S
C586 C590 1.397 . S
C587 C585 1.397 . S
C587 C588 1.384 . S
C587 H610 0.930 . S
C588 C587 1.384 . S
C588 C589 1.377 . S
C588 C591 1.481 . S
C589 C588 1.377 . S
C589 C590 1.389 . S
C589 H611 0.929 . S
C590 C586 1.397 . S
C590 C589 1.389 . S
C590 H612 0.931 1_556 S
C591 C588 1.481 . S
C591 C592 1.387 . S
C591 C596 1.390 . S
C592 C591 1.387 . S
C592 C593 1.401 . S
C592 H613 0.930 . S
C593 C592 1.401 . S
C593 C594 1.376 . S
C593 C602 1.511 . S
C594 C593 1.376 . S
C594 C595 1.392 . S
C594 H615 0.931 . S
C595 C594 1.392 . S
C595 C596 1.361 . S
C595 C597 1.500 . S
C596 C591 1.390 . S
C596 C595 1.361 . S
C596 H614 0.931 . S
C597 C595 1.500 . S
C597 C598 1.371 . S
C597 C599 1.365 . S
C598 C597 1.371 . S
C598 C608 1.386 . S
C598 H616 0.931 . S
C599 C597 1.365 . S
C599 C600 1.409 . S
C599 H617 0.929 . S
C600 C599 1.409 . S
C600 C601 1.380 . S
C600 H618 0.930 . S
C601 C600 1.380 . S
C601 C608 1.357 . S
C602 C593 1.511 . S
C602 C603 1.341 . S
C602 C604 1.371 . S
C603 C602 1.341 . S
C603 C607 1.394 . S
C603 H619 0.930 . S
C604 C602 1.371 . S
C604 C605 1.392 . S
C604 H620 0.931 . S
C605 C604 1.392 . S
C605 C606 1.331 . S
C605 H623 0.932 . S
C606 C605 1.331 . S
C606 C607 1.336 . S
C607 C603 1.394 . S
C607 C606 1.336 . S
C607 H622 0.929 . S
C608 C598 1.386 . S
C608 C601 1.357 . S
C608 H621 0.928 . S
H609 C585 0.931 . S
H610 C587 0.930 . S
H611 C589 0.929 . S
H612 C590 0.931 1_554 S
H613 C592 0.930 . S
H614 C596 0.931 . S
H615 C594 0.931 . S
H616 C598 0.931 . S
H617 C599 0.929 . S
H618 C600 0.930 . S
H619 C603 0.930 . S
H620 C604 0.931 . S
H621 C608 0.928 . S
H622 C607 0.929 . S
H623 C605 0.932 . S
O624 Cd625 2.223 . S
O624 C632 1.315 . S
Cd625 O624 2.223 . S
Cd625 O628 2.297 . S
Cd625 O629 2.439 . S
Cd625 O635 2.240 . S
Cd626 O627 2.240 . S
Cd626 O634 2.223 . S
Cd626 O636 2.297 . S
Cd626 O637 2.439 . S
O627 Cd626 2.240 . S
O627 C632 1.279 . S
O628 Cd625 2.297 . S
O628 C630 1.247 . S
O629 Cd625 2.439 . S
O629 C630 1.208 . S
C630 O628 1.247 . S
C630 O629 1.208 . S
C631 O636 1.247 . S
C631 O637 1.208 . S
C632 O624 1.315 . S
C632 O627 1.279 . S
C633 O634 1.315 . S
C633 O635 1.279 . S
O634 Cd626 2.223 . S
O634 C633 1.315 . S
O635 Cd625 2.240 . S
O635 C633 1.279 . S
O636 Cd626 2.297 . S
O636 C631 1.247 . S
O637 Cd626 2.439 . S
O637 C631 1.208 . S
O638 Cd639 2.223 . S
O638 C646 1.315 . S
Cd639 O638 2.223 . S
Cd639 O642 2.297 . S
Cd639 O643 2.439 . S
Cd639 O649 2.240 . S
Cd640 O641 2.240 . S
Cd640 O648 2.223 . S
Cd640 O650 2.297 . S
Cd640 O651 2.439 . S
O641 Cd640 2.240 . S
O641 C646 1.279 . S
O642 Cd639 2.297 . S
O642 C644 1.247 . S
O643 Cd639 2.439 . S
O643 C644 1.208 . S
C644 O642 1.247 . S
C644 O643 1.208 . S
C645 O650 1.247 . S
C645 O651 1.208 . S
C646 O638 1.315 . S
C646 O641 1.279 . S
C647 O648 1.315 . S
C647 O649 1.279 . S
O648 Cd640 2.223 . S
O648 C647 1.315 . S
O649 Cd639 2.240 . S
O649 C647 1.279 . S
O650 Cd640 2.297 . S
O650 C645 1.247 . S
O651 Cd640 2.439 . S
O651 C645 1.208 . S
O652 Cd653 2.223 1_556 S
O652 C660 1.315 . S
Cd653 O652 2.223 1_554 S
Cd653 O656 2.297 . S
Cd653 O657 2.439 . S
Cd653 O663 2.240 . S
Cd654 O655 2.240 . S
Cd654 O662 2.223 . S
Cd654 O664 2.297 1_556 S
Cd654 O665 2.439 1_556 S
O655 Cd654 2.240 . S
O655 C660 1.279 . S
O656 Cd653 2.297 . S
O656 C658 1.247 . S
O657 Cd653 2.439 . S
O657 C658 1.208 . S
C658 O656 1.247 . S
C658 O657 1.208 . S
C659 O664 1.247 . S
C659 O665 1.208 . S
C660 O652 1.315 . S
C660 O655 1.279 . S
C661 O662 1.315 . S
C661 O663 1.279 1_556 S
O662 Cd654 2.223 . S
O662 C661 1.315 . S
O663 Cd653 2.240 . S
O663 C661 1.279 1_554 S
O664 Cd654 2.297 1_554 S
O664 C659 1.247 . S
O665 Cd654 2.439 1_554 S
O665 C659 1.208 . S
O666 Cd667 2.223 . S
O666 C674 1.315 . S
Cd667 O666 2.223 . S
Cd667 O670 2.297 . S
Cd667 O671 2.439 . S
Cd667 O677 2.240 . S
Cd668 O669 2.240 . S
Cd668 O676 2.223 . S
Cd668 O678 2.297 . S
Cd668 O679 2.439 . S
O669 Cd668 2.240 . S
O669 C674 1.279 . S
O670 Cd667 2.297 . S
O670 C672 1.247 . S
O671 Cd667 2.439 . S
O671 C672 1.208 . S
C672 O670 1.247 . S
C672 O671 1.208 . S
C673 O678 1.247 . S
C673 O679 1.208 . S
C674 O666 1.315 . S
C674 O669 1.279 . S
C675 O676 1.315 . S
C675 O677 1.279 . S
O676 Cd668 2.223 . S
O676 C675 1.315 . S
O677 Cd667 2.240 . S
O677 C675 1.279 . S
O678 Cd668 2.297 . S
O678 C673 1.247 . S
O679 Cd668 2.439 . S
O679 C673 1.208 . S
O680 Cd681 2.223 . S
O680 C688 1.315 . S
Cd681 O680 2.223 . S
Cd681 O684 2.297 . S
Cd681 O685 2.439 . S
Cd681 O691 2.240 . S
Cd682 O683 2.240 . S
Cd682 O690 2.223 . S
Cd682 O692 2.297 . S
Cd682 O693 2.439 . S
O683 Cd682 2.240 . S
O683 C688 1.279 . S
O684 Cd681 2.297 . S
O684 C686 1.247 . S
O685 Cd681 2.439 . S
O685 C686 1.208 . S
C686 O684 1.247 . S
C686 O685 1.208 . S
C687 O692 1.247 . S
C687 O693 1.208 . S
C688 O680 1.315 . S
C688 O683 1.279 . S
C689 O690 1.315 . S
C689 O691 1.279 . S
O690 Cd682 2.223 . S
O690 C689 1.315 . S
O691 Cd681 2.240 . S
O691 C689 1.279 . S
O692 Cd682 2.297 . S
O692 C687 1.247 . S
O693 Cd682 2.439 . S
O693 C687 1.208 . S
O694 Cd695 2.223 . S
O694 C702 1.315 . S
Cd695 O694 2.223 . S
Cd695 O698 2.297 . S
Cd695 O699 2.439 . S
Cd695 O705 2.240 . S
Cd696 O697 2.240 . S
Cd696 O704 2.223 . S
Cd696 O706 2.297 . S
Cd696 O707 2.439 . S
O697 Cd696 2.240 . S
O697 C702 1.279 . S
O698 Cd695 2.297 . S
O698 C700 1.247 . S
O699 Cd695 2.439 . S
O699 C700 1.208 . S
C700 O698 1.247 . S
C700 O699 1.208 . S
C701 O706 1.247 . S
C701 O707 1.208 . S
C702 O694 1.315 . S
C702 O697 1.279 . S
C703 O704 1.315 . S
C703 O705 1.279 . S
O704 Cd696 2.223 . S
O704 C703 1.315 . S
O705 Cd695 2.240 . S
O705 C703 1.279 . S
O706 Cd696 2.297 . S
O706 C701 1.247 . S
O707 Cd696 2.439 . S
O707 C701 1.208 . S
O708 Cd709 2.223 . S
O708 C716 1.315 . S
Cd709 O708 2.223 . S
Cd709 O712 2.297 . S
Cd709 O713 2.439 . S
Cd709 O719 2.240 . S
Cd710 O711 2.240 . S
Cd710 O718 2.223 . S
Cd710 O720 2.297 . S
Cd710 O721 2.439 . S
O711 Cd710 2.240 . S
O711 C716 1.279 . S
O712 Cd709 2.297 . S
O712 C714 1.247 . S
O713 Cd709 2.439 . S
O713 C714 1.208 . S
C714 O712 1.247 . S
C714 O713 1.208 . S
C715 O720 1.247 . S
C715 O721 1.208 . S
C716 O708 1.315 . S
C716 O711 1.279 . S
C717 O718 1.315 . S
C717 O719 1.279 . S
O718 Cd710 2.223 . S
O718 C717 1.315 . S
O719 Cd709 2.240 . S
O719 C717 1.279 . S
O720 Cd710 2.297 . S
O720 C715 1.247 . S
O721 Cd710 2.439 . S
O721 C715 1.208 . S
O722 Cd723 2.223 1_545 S
O722 C730 1.315 . S
Cd723 O722 2.223 1_565 S
Cd723 O726 2.297 . S
Cd723 O727 2.439 . S
Cd723 O733 2.240 1_565 S
Cd724 O725 2.240 . S
Cd724 O732 2.223 . S
Cd724 O734 2.297 . S
Cd724 O735 2.439 1_545 S
O725 Cd724 2.240 . S
O725 C730 1.279 . S
O726 Cd723 2.297 . S
O726 C728 1.247 . S
O727 Cd723 2.439 . S
O727 C728 1.208 . S
C728 O726 1.247 . S
C728 O727 1.208 . S
C729 O734 1.247 1_565 S
C729 O735 1.208 . S
C730 O722 1.315 . S
C730 O725 1.279 . S
C731 O732 1.315 . S
C731 O733 1.279 . S
O732 Cd724 2.223 . S
O732 C731 1.315 . S
O733 Cd723 2.240 1_545 S
O733 C731 1.279 . S
O734 Cd724 2.297 . S
O734 C729 1.247 1_545 S
O735 Cd724 2.439 1_565 S
O735 C729 1.208 . S
O736 Cd737 2.223 . S
O736 C744 1.315 . S
Cd737 O736 2.223 . S
Cd737 O740 2.297 1_655 S
Cd737 O741 2.439 1_655 S
Cd737 O747 2.240 . S
Cd738 O739 2.240 . S
Cd738 O746 2.223 1_455 S
Cd738 O748 2.297 . S
Cd738 O749 2.439 . S
O739 Cd738 2.240 . S
O739 C744 1.279 1_455 S
O740 Cd737 2.297 1_455 S
O740 C742 1.247 . S
O741 Cd737 2.439 1_455 S
O741 C742 1.208 . S
C742 O740 1.247 . S
C742 O741 1.208 . S
C743 O748 1.247 . S
C743 O749 1.208 . S
C744 O736 1.315 . S
C744 O739 1.279 1_655 S
C745 O746 1.315 . S
C745 O747 1.279 . S
O746 Cd738 2.223 1_655 S
O746 C745 1.315 . S
O747 Cd737 2.240 . S
O747 C745 1.279 . S
O748 Cd738 2.297 . S
O748 C743 1.247 . S
O749 Cd738 2.439 . S
O749 C743 1.208 . S
O750 Cd751 2.223 . S
O750 C758 1.315 . S
Cd751 O750 2.223 . S
Cd751 O754 2.297 . S
Cd751 O755 2.439 . S
Cd751 O761 2.240 . S
Cd752 O753 2.240 . S
Cd752 O760 2.223 . S
Cd752 O762 2.297 . S
Cd752 O763 2.439 . S
O753 Cd752 2.240 . S
O753 C758 1.279 . S
O754 Cd751 2.297 . S
O754 C756 1.247 . S
O755 Cd751 2.439 . S
O755 C756 1.208 . S
C756 O754 1.247 . S
C756 O755 1.208 . S
C757 O762 1.247 . S
C757 O763 1.208 . S
C758 O750 1.315 . S
C758 O753 1.279 . S
C759 O760 1.315 . S
C759 O761 1.279 . S
O760 Cd752 2.223 . S
O760 C759 1.315 . S
O761 Cd751 2.240 . S
O761 C759 1.279 . S
O762 Cd752 2.297 . S
O762 C757 1.247 . S
O763 Cd752 2.439 . S
O763 C757 1.208 . S
O764 Cd765 2.223 1_655 S
O764 C772 1.315 . S
Cd765 O764 2.223 1_455 S
Cd765 O768 2.297 . S
Cd765 O769 2.439 . S
Cd765 O775 2.240 . S
Cd766 O767 2.240 . S
Cd766 O774 2.223 . S
Cd766 O776 2.297 1_655 S
Cd766 O777 2.439 1_655 S
O767 Cd766 2.240 . S
O767 C772 1.279 . S
O768 Cd765 2.297 . S
O768 C770 1.247 . S
O769 Cd765 2.439 . S
O769 C770 1.208 . S
C770 O768 1.247 . S
C770 O769 1.208 . S
C771 O776 1.247 . S
C771 O777 1.208 . S
C772 O764 1.315 . S
C772 O767 1.279 . S
C773 O774 1.315 . S
C773 O775 1.279 1_655 S
O774 Cd766 2.223 . S
O774 C773 1.315 . S
O775 Cd765 2.240 . S
O775 C773 1.279 1_455 S
O776 Cd766 2.297 1_455 S
O776 C771 1.247 . S
O777 Cd766 2.439 1_455 S
O777 C771 1.208 . S
O778 Cd779 2.223 . S
O778 C786 1.315 . S
Cd779 O778 2.223 . S
Cd779 O782 2.297 . S
Cd779 O783 2.439 . S
Cd779 O789 2.240 . S
Cd780 O781 2.240 . S
Cd780 O788 2.223 . S
Cd780 O790 2.297 . S
Cd780 O791 2.439 . S
O781 Cd780 2.240 . S
O781 C786 1.279 . S
O782 Cd779 2.297 . S
O782 C784 1.247 . S
O783 Cd779 2.439 . S
O783 C784 1.208 . S
C784 O782 1.247 . S
C784 O783 1.208 . S
C785 O790 1.247 . S
C785 O791 1.208 . S
C786 O778 1.315 . S
C786 O781 1.279 . S
C787 O788 1.315 . S
C787 O789 1.279 . S
O788 Cd780 2.223 . S
O788 C787 1.315 . S
O789 Cd779 2.240 . S
O789 C787 1.279 . S
O790 Cd780 2.297 . S
O790 C785 1.247 . S
O791 Cd780 2.439 . S
O791 C785 1.208 . S
H792 C804 0.930 . S
H793 C806 0.930 . S
H794 C807 0.930 . S
H795 C811 0.959 . S
H796 C811 0.959 . S
H797 C811 0.961 . S
H798 C812 0.960 . S
H799 C812 0.961 . S
H800 C812 0.959 . S
H801 C815 0.929 . S
H802 C816 0.931 . S
H803 C818 0.930 1_554 S
C804 H792 0.930 . S
C804 C805 1.399 . S
C804 C809 1.399 . S
C805 C804 1.399 . S
C805 C806 1.376 . S
C806 H793 0.930 . S
C806 C805 1.376 . S
C806 C807 1.388 . S
C807 H794 0.930 . S
C807 C806 1.388 . S
C807 C808 1.390 . S
C808 C807 1.390 . S
C808 C809 1.394 . S
C808 C814 1.465 . S
C809 C804 1.399 . S
C809 C808 1.394 . S
C809 C810 1.516 . S
C810 C809 1.516 . S
C810 C811 1.502 . S
C810 C812 1.561 . S
C810 C813 1.526 . S
C811 H795 0.959 . S
C811 H796 0.959 . S
C811 H797 0.961 . S
C811 C810 1.502 . S
C812 H798 0.960 . S
C812 H799 0.961 . S
C812 H800 0.959 . S
C812 C810 1.561 . S
C813 C810 1.526 . S
C813 C814 1.396 . S
C813 C818 1.390 . S
C814 C808 1.465 . S
C814 C813 1.396 . S
C814 C815 1.399 . S
C815 H801 0.929 . S
C815 C814 1.399 . S
C815 C816 1.385 . S
C816 H802 0.931 . S
C816 C815 1.385 . S
C816 C817 1.389 . S
C817 C816 1.389 . S
C817 C818 1.387 . S
C818 H803 0.930 1_556 S
C818 C813 1.390 . S
C818 C817 1.387 . S
H819 C831 0.930 . S
H820 C833 0.930 . S
H821 C834 0.930 . S
H822 C838 0.959 . S
H823 C838 0.959 . S
H824 C838 0.961 . S
H825 C839 0.960 . S
H826 C839 0.961 . S
H827 C839 0.959 . S
H828 C842 0.929 . S
H829 C843 0.931 . S
H830 C845 0.930 . S
C831 H819 0.930 . S
C831 C832 1.399 1_455 S
C831 C836 1.399 . S
C832 C831 1.399 1_655 S
C832 C833 1.376 . S
C833 H820 0.930 . S
C833 C832 1.376 . S
C833 C834 1.388 . S
C834 H821 0.930 . S
C834 C833 1.388 . S
C834 C835 1.390 1_655 S
C835 C834 1.390 1_455 S
C835 C836 1.394 . S
C835 C841 1.465 . S
C836 C831 1.399 . S
C836 C835 1.394 . S
C836 C837 1.516 . S
C837 C836 1.516 . S
C837 C838 1.502 . S
C837 C839 1.561 . S
C837 C840 1.526 . S
C838 H822 0.959 . S
C838 H823 0.959 . S
C838 H824 0.961 . S
C838 C837 1.502 . S
C839 H825 0.960 . S
C839 H826 0.961 . S
C839 H827 0.959 . S
C839 C837 1.561 . S
C840 C837 1.526 . S
C840 C841 1.396 . S
C840 C845 1.390 . S
C841 C835 1.465 . S
C841 C840 1.396 . S
C841 C842 1.399 . S
C842 H828 0.929 . S
C842 C841 1.399 . S
C842 C843 1.385 . S
C843 H829 0.931 . S
C843 C842 1.385 . S
C843 C844 1.389 . S
C844 C843 1.389 . S
C844 C845 1.387 . S
C845 H830 0.930 . S
C845 C840 1.390 . S
C845 C844 1.387 . S
H846 C858 0.930 . S
H847 C860 0.930 . S
H848 C861 0.930 . S
H849 C865 0.959 . S
H850 C865 0.959 . S
H851 C865 0.961 . S
H852 C866 0.960 . S
H853 C866 0.961 . S
H854 C866 0.959 . S
H855 C869 0.929 . S
H856 C870 0.931 . S
H857 C872 0.930 . S
C858 H846 0.930 . S
C858 C859 1.399 . S
C858 C863 1.399 . S
C859 C858 1.399 . S
C859 C860 1.376 . S
C860 H847 0.930 . S
C860 C859 1.376 . S
C860 C861 1.388 . S
C861 H848 0.930 . S
C861 C860 1.388 . S
C861 C862 1.390 . S
C862 C861 1.390 . S
C862 C863 1.394 . S
C862 C868 1.465 . S
C863 C858 1.399 . S
C863 C862 1.394 . S
C863 C864 1.516 . S
C864 C863 1.516 . S
C864 C865 1.502 . S
C864 C866 1.561 . S
C864 C867 1.526 . S
C865 H849 0.959 . S
C865 H850 0.959 . S
C865 H851 0.961 . S
C865 C864 1.502 . S
C866 H852 0.960 . S
C866 H853 0.961 . S
C866 H854 0.959 . S
C866 C864 1.561 . S
C867 C864 1.526 . S
C867 C868 1.396 . S
C867 C872 1.390 . S
C868 C862 1.465 . S
C868 C867 1.396 . S
C868 C869 1.399 . S
C869 H855 0.929 . S
C869 C868 1.399 . S
C869 C870 1.385 . S
C870 H856 0.931 . S
C870 C869 1.385 . S
C870 C871 1.389 . S
C871 C870 1.389 . S
C871 C872 1.387 . S
C872 H857 0.930 . S
C872 C867 1.390 . S
C872 C871 1.387 . S
H873 C885 0.930 . S
H874 C887 0.930 . S
H875 C888 0.930 . S
H876 C892 0.959 . S
H877 C892 0.959 . S
H878 C892 0.961 . S
H879 C893 0.960 1_565 S
H880 C893 0.961 . S
H881 C893 0.959 . S
H882 C896 0.929 . S
H883 C897 0.931 . S
H884 C899 0.930 . S
C885 H873 0.930 . S
C885 C886 1.399 1_655 S
C885 C890 1.399 . S
C886 C885 1.399 1_455 S
C886 C887 1.376 . S
C887 H874 0.930 . S
C887 C886 1.376 . S
C887 C888 1.388 1_565 S
C888 H875 0.930 . S
C888 C887 1.388 1_545 S
C888 C889 1.390 1_455 S
C889 C888 1.390 1_655 S
C889 C890 1.394 1_545 S
C889 C895 1.465 . S
C890 C885 1.399 . S
C890 C889 1.394 1_565 S
C890 C891 1.516 . S
C891 C890 1.516 . S
C891 C892 1.502 . S
C891 C893 1.561 1_565 S
C891 C894 1.526 1_565 S
C892 H876 0.959 . S
C892 H877 0.959 . S
C892 H878 0.961 . S
C892 C891 1.502 . S
C893 H879 0.960 1_545 S
C893 H880 0.961 . S
C893 H881 0.959 . S
C893 C891 1.561 1_545 S
C894 C891 1.526 1_545 S
C894 C895 1.396 . S
C894 C899 1.390 . S
C895 C889 1.465 . S
C895 C894 1.396 . S
C895 C896 1.399 . S
C896 H882 0.929 . S
C896 C895 1.399 . S
C896 C897 1.385 . S
C897 H883 0.931 . S
C897 C896 1.385 . S
C897 C898 1.389 . S
C898 C897 1.389 . S
C898 C899 1.387 . S
C899 H884 0.930 . S
C899 C894 1.390 . S
C899 C898 1.387 . S
H900 C912 0.930 . S
H901 C914 0.930 . S
H902 C915 0.930 . S
H903 C919 0.959 . S
H904 C919 0.959 . S
H905 C919 0.961 . S
H906 C920 0.960 . S
H907 C920 0.961 . S
H908 C920 0.959 . S
H909 C923 0.929 . S
H910 C924 0.931 . S
H911 C926 0.930 . S
C912 H900 0.930 . S
C912 C913 1.399 . S
C912 C917 1.399 . S
C913 C912 1.399 . S
C913 C914 1.376 . S
C914 H901 0.930 . S
C914 C913 1.376 . S
C914 C915 1.388 . S
C915 H902 0.930 . S
C915 C914 1.388 . S
C915 C916 1.390 . S
C916 C915 1.390 . S
C916 C917 1.394 . S
C916 C922 1.465 . S
C917 C912 1.399 . S
C917 C916 1.394 . S
C917 C918 1.516 . S
C918 C917 1.516 . S
C918 C919 1.502 . S
C918 C920 1.561 . S
C918 C921 1.526 . S
C919 H903 0.959 . S
C919 H904 0.959 . S
C919 H905 0.961 . S
C919 C918 1.502 . S
C920 H906 0.960 . S
C920 H907 0.961 . S
C920 H908 0.959 . S
C920 C918 1.561 . S
C921 C918 1.526 . S
C921 C922 1.396 . S
C921 C926 1.390 . S
C922 C916 1.465 . S
C922 C921 1.396 . S
C922 C923 1.399 . S
C923 H909 0.929 . S
C923 C922 1.399 . S
C923 C924 1.385 . S
C924 H910 0.931 . S
C924 C923 1.385 . S
C924 C925 1.389 . S
C925 C924 1.389 . S
C925 C926 1.387 . S
C926 H911 0.930 . S
C926 C921 1.390 . S
C926 C925 1.387 . S
H927 C939 0.930 . S
H928 C941 0.930 . S
H929 C942 0.930 . S
H930 C946 0.959 . S
H931 C946 0.959 . S
H932 C946 0.961 . S
H933 C947 0.960 . S
H934 C947 0.961 . S
H935 C947 0.959 . S
H936 C950 0.929 . S
H937 C951 0.931 . S
H938 C953 0.930 . S
C939 H927 0.930 . S
C939 C940 1.399 . S
C939 C944 1.399 . S
C940 C939 1.399 . S
C940 C941 1.376 . S
C941 H928 0.930 . S
C941 C940 1.376 . S
C941 C942 1.388 . S
C942 H929 0.930 . S
C942 C941 1.388 . S
C942 C943 1.390 . S
C943 C942 1.390 . S
C943 C944 1.394 . S
C943 C949 1.465 . S
C944 C939 1.399 . S
C944 C943 1.394 . S
C944 C945 1.516 . S
C945 C944 1.516 . S
C945 C946 1.502 . S
C945 C947 1.561 . S
C945 C948 1.526 . S
C946 H930 0.959 . S
C946 H931 0.959 . S
C946 H932 0.961 . S
C946 C945 1.502 . S
C947 H933 0.960 . S
C947 H934 0.961 . S
C947 H935 0.959 . S
C947 C945 1.561 . S
C948 C945 1.526 . S
C948 C949 1.396 . S
C948 C953 1.390 . S
C949 C943 1.465 . S
C949 C948 1.396 . S
C949 C950 1.399 . S
C950 H936 0.929 . S
C950 C949 1.399 . S
C950 C951 1.385 . S
C951 H937 0.931 . S
C951 C950 1.385 . S
C951 C952 1.389 . S
C952 C951 1.389 . S
C952 C953 1.387 . S
C953 H938 0.930 . S
C953 C948 1.390 . S
C953 C952 1.387 . S
H954 C966 0.930 . S
H955 C968 0.930 . S
H956 C969 0.930 . S
H957 C973 0.959 . S
H958 C973 0.959 . S
H959 C973 0.961 . S
H960 C974 0.960 . S
H961 C974 0.961 . S
H962 C974 0.959 . S
H963 C977 0.929 . S
H964 C978 0.931 . S
H965 C980 0.930 . S
C966 H954 0.930 . S
C966 C967 1.399 . S
C966 C971 1.399 . S
C967 C966 1.399 . S
C967 C968 1.376 . S
C968 H955 0.930 . S
C968 C967 1.376 . S
C968 C969 1.388 . S
C969 H956 0.930 . S
C969 C968 1.388 . S
C969 C970 1.390 . S
C970 C969 1.390 . S
C970 C971 1.394 . S
C970 C976 1.465 . S
C971 C966 1.399 . S
C971 C970 1.394 . S
C971 C972 1.516 . S
C972 C971 1.516 . S
C972 C973 1.502 . S
C972 C974 1.561 . S
C972 C975 1.526 . S
C973 H957 0.959 . S
C973 H958 0.959 . S
C973 H959 0.961 . S
C973 C972 1.502 . S
C974 H960 0.960 . S
C974 H961 0.961 . S
C974 H962 0.959 . S
C974 C972 1.561 . S
C975 C972 1.526 . S
C975 C976 1.396 . S
C975 C980 1.390 . S
C976 C970 1.465 . S
C976 C975 1.396 . S
C976 C977 1.399 . S
C977 H963 0.929 . S
C977 C976 1.399 . S
C977 C978 1.385 . S
C978 H964 0.931 . S
C978 C977 1.385 . S
C978 C979 1.389 . S
C979 C978 1.389 . S
C979 C980 1.387 . S
C980 H965 0.930 . S
C980 C975 1.390 . S
C980 C979 1.387 . S
H981 C993 0.930 . S
H982 C995 0.930 . S
H983 C996 0.930 . S
H984 C1000 0.959 . S
H985 C1000 0.959 . S
H986 C1000 0.961 . S
H987 C1001 0.960 . S
H988 C1001 0.961 . S
H989 C1001 0.959 . S
H990 C1004 0.929 . S
H991 C1005 0.931 . S
H992 C1007 0.930 . S
C993 H981 0.930 . S
C993 C994 1.399 . S
C993 C998 1.399 . S
C994 C993 1.399 . S
C994 C995 1.376 . S
C995 H982 0.930 . S
C995 C994 1.376 . S
C995 C996 1.388 . S
C996 H983 0.930 . S
C996 C995 1.388 . S
C996 C997 1.390 . S
C997 C996 1.390 . S
C997 C998 1.394 . S
C997 C1003 1.465 . S
C998 C993 1.399 . S
C998 C997 1.394 . S
C998 C999 1.516 . S
C999 C998 1.516 . S
C999 C1000 1.502 . S
C999 C1001 1.561 . S
C999 C1002 1.526 . S
C1000 H984 0.959 . S
C1000 H985 0.959 . S
C1000 H986 0.961 . S
C1000 C999 1.502 . S
C1001 H987 0.960 . S
C1001 H988 0.961 . S
C1001 H989 0.959 . S
C1001 C999 1.561 . S
C1002 C999 1.526 . S
C1002 C1003 1.396 . S
C1002 C1007 1.390 . S
C1003 C997 1.465 . S
C1003 C1002 1.396 . S
C1003 C1004 1.399 . S
C1004 H990 0.929 . S
C1004 C1003 1.399 . S
C1004 C1005 1.385 . S
C1005 H991 0.931 . S
C1005 C1004 1.385 . S
C1005 C1006 1.389 . S
C1006 C1005 1.389 . S
C1006 C1007 1.387 . S
C1007 H992 0.930 . S
C1007 C1002 1.390 . S
C1007 C1006 1.387 . S
H1008 C1020 0.930 . S
H1009 C1022 0.930 . S
H1010 C1023 0.930 . S
H1011 C1027 0.959 . S
H1012 C1027 0.959 . S
H1013 C1027 0.961 . S
H1014 C1028 0.960 . S
H1015 C1028 0.961 . S
H1016 C1028 0.959 . S
H1017 C1031 0.929 . S
H1018 C1032 0.931 . S
H1019 C1034 0.930 . S
C1020 H1008 0.930 . S
C1020 C1021 1.399 . S
C1020 C1025 1.399 . S
C1021 C1020 1.399 . S
C1021 C1022 1.376 . S
C1022 H1009 0.930 . S
C1022 C1021 1.376 . S
C1022 C1023 1.388 . S
C1023 H1010 0.930 . S
C1023 C1022 1.388 . S
C1023 C1024 1.390 . S
C1024 C1023 1.390 . S
C1024 C1025 1.394 . S
C1024 C1030 1.465 . S
C1025 C1020 1.399 . S
C1025 C1024 1.394 . S
C1025 C1026 1.516 . S
C1026 C1025 1.516 . S
C1026 C1027 1.502 . S
C1026 C1028 1.561 . S
C1026 C1029 1.526 . S
C1027 H1011 0.959 . S
C1027 H1012 0.959 . S
C1027 H1013 0.961 . S
C1027 C1026 1.502 . S
C1028 H1014 0.960 . S
C1028 H1015 0.961 . S
C1028 H1016 0.959 . S
C1028 C1026 1.561 . S
C1029 C1026 1.526 . S
C1029 C1030 1.396 . S
C1029 C1034 1.390 . S
C1030 C1024 1.465 . S
C1030 C1029 1.396 . S
C1030 C1031 1.399 . S
C1031 H1017 0.929 . S
C1031 C1030 1.399 . S
C1031 C1032 1.385 . S
C1032 H1018 0.931 . S
C1032 C1031 1.385 . S
C1032 C1033 1.389 . S
C1033 C1032 1.389 . S
C1033 C1034 1.387 . S
C1034 H1019 0.930 . S
C1034 C1029 1.390 . S
C1034 C1033 1.387 . S
H1035 C1047 0.930 . S
H1036 C1049 0.930 . S
H1037 C1050 0.930 . S
H1038 C1054 0.959 . S
H1039 C1054 0.959 . S
H1040 C1054 0.961 . S
H1041 C1055 0.960 . S
H1042 C1055 0.961 . S
H1043 C1055 0.959 . S
H1044 C1058 0.929 . S
H1045 C1059 0.931 . S
H1046 C1061 0.930 . S
C1047 H1035 0.930 . S
C1047 C1048 1.399 . S
C1047 C1052 1.399 . S
C1048 C1047 1.399 . S
C1048 C1049 1.376 . S
C1049 H1036 0.930 . S
C1049 C1048 1.376 . S
C1049 C1050 1.388 . S
C1050 H1037 0.930 . S
C1050 C1049 1.388 . S
C1050 C1051 1.390 . S
C1051 C1050 1.390 . S
C1051 C1052 1.394 . S
C1051 C1057 1.465 . S
C1052 C1047 1.399 . S
C1052 C1051 1.394 . S
C1052 C1053 1.516 . S
C1053 C1052 1.516 . S
C1053 C1054 1.502 . S
C1053 C1055 1.561 . S
C1053 C1056 1.526 . S
C1054 H1038 0.959 . S
C1054 H1039 0.959 . S
C1054 H1040 0.961 . S
C1054 C1053 1.502 . S
C1055 H1041 0.960 . S
C1055 H1042 0.961 . S
C1055 H1043 0.959 . S
C1055 C1053 1.561 . S
C1056 C1053 1.526 . S
C1056 C1057 1.396 . S
C1056 C1061 1.390 . S
C1057 C1051 1.465 . S
C1057 C1056 1.396 . S
C1057 C1058 1.399 . S
C1058 H1044 0.929 . S
C1058 C1057 1.399 . S
C1058 C1059 1.385 . S
C1059 H1045 0.931 . S
C1059 C1058 1.385 . S
C1059 C1060 1.389 . S
C1060 C1059 1.389 . S
C1060 C1061 1.387 . S
C1061 H1046 0.930 . S
C1061 C1056 1.390 . S
C1061 C1060 1.387 . S
H1062 C1074 0.930 . S
H1063 C1076 0.930 . S
H1064 C1077 0.930 . S
H1065 C1081 0.959 . S
H1066 C1081 0.959 . S
H1067 C1081 0.961 . S
H1068 C1082 0.960 . S
H1069 C1082 0.961 . S
H1070 C1082 0.959 . S
H1071 C1085 0.929 . S
H1072 C1086 0.931 . S
H1073 C1088 0.930 . S
C1074 H1062 0.930 . S
C1074 C1075 1.399 . S
C1074 C1079 1.399 . S
C1075 C1074 1.399 . S
C1075 C1076 1.376 . S
C1076 H1063 0.930 . S
C1076 C1075 1.376 . S
C1076 C1077 1.388 . S
C1077 H1064 0.930 . S
C1077 C1076 1.388 . S
C1077 C1078 1.390 . S
C1078 C1077 1.390 . S
C1078 C1079 1.394 . S
C1078 C1084 1.465 . S
C1079 C1074 1.399 . S
C1079 C1078 1.394 . S
C1079 C1080 1.516 . S
C1080 C1079 1.516 . S
C1080 C1081 1.502 . S
C1080 C1082 1.561 . S
C1080 C1083 1.526 . S
C1081 H1065 0.959 . S
C1081 H1066 0.959 . S
C1081 H1067 0.961 . S
C1081 C1080 1.502 . S
C1082 H1068 0.960 . S
C1082 H1069 0.961 . S
C1082 H1070 0.959 . S
C1082 C1080 1.561 . S
C1083 C1080 1.526 . S
C1083 C1084 1.396 . S
C1083 C1088 1.390 . S
C1084 C1078 1.465 . S
C1084 C1083 1.396 . S
C1084 C1085 1.399 . S
C1085 H1071 0.929 . S
C1085 C1084 1.399 . S
C1085 C1086 1.385 . S
C1086 H1072 0.931 . S
C1086 C1085 1.385 . S
C1086 C1087 1.389 . S
C1087 C1086 1.389 . S
C1087 C1088 1.387 . S
C1088 H1073 0.930 . S
C1088 C1083 1.390 . S
C1088 C1087 1.387 . S
H1089 C1101 0.930 . S
H1090 C1103 0.930 . S
H1091 C1104 0.930 . S
H1092 C1108 0.959 . S
H1093 C1108 0.959 . S
H1094 C1108 0.961 . S
H1095 C1109 0.960 . S
H1096 C1109 0.961 . S
H1097 C1109 0.959 . S
H1098 C1112 0.929 . S
H1099 C1113 0.931 . S
H1100 C1115 0.930 . S
C1101 H1089 0.930 . S
C1101 C1102 1.399 . S
C1101 C1106 1.399 . S
C1102 C1101 1.399 . S
C1102 C1103 1.376 . S
C1103 H1090 0.930 . S
C1103 C1102 1.376 . S
C1103 C1104 1.388 . S
C1104 H1091 0.930 . S
C1104 C1103 1.388 . S
C1104 C1105 1.390 . S
C1105 C1104 1.390 . S
C1105 C1106 1.394 . S
C1105 C1111 1.465 . S
C1106 C1101 1.399 . S
C1106 C1105 1.394 . S
C1106 C1107 1.516 . S
C1107 C1106 1.516 . S
C1107 C1108 1.502 . S
C1107 C1109 1.561 . S
C1107 C1110 1.526 . S
C1108 H1092 0.959 . S
C1108 H1093 0.959 . S
C1108 H1094 0.961 . S
C1108 C1107 1.502 . S
C1109 H1095 0.960 . S
C1109 H1096 0.961 . S
C1109 H1097 0.959 . S
C1109 C1107 1.561 . S
C1110 C1107 1.526 . S
C1110 C1111 1.396 . S
C1110 C1115 1.390 . S
C1111 C1105 1.465 . S
C1111 C1110 1.396 . S
C1111 C1112 1.399 . S
C1112 H1098 0.929 . S
C1112 C1111 1.399 . S
C1112 C1113 1.385 . S
C1113 H1099 0.931 . S
C1113 C1112 1.385 . S
C1113 C1114 1.389 . S
C1114 C1113 1.389 . S
C1114 C1115 1.387 . S
C1115 H1100 0.930 . S
C1115 C1110 1.390 . S
C1115 C1114 1.387 . S
H1116 C1128 0.930 . S
H1117 C1130 0.930 . S
H1118 C1131 0.930 . S
H1119 C1135 0.959 . S
H1120 C1135 0.959 . S
H1121 C1135 0.961 . S
H1122 C1136 0.960 . S
H1123 C1136 0.961 . S
H1124 C1136 0.959 . S
H1125 C1139 0.929 . S
H1126 C1140 0.931 . S
H1127 C1142 0.930 . S
C1128 H1116 0.930 . S
C1128 C1129 1.399 . S
C1128 C1133 1.399 . S
C1129 C1128 1.399 . S
C1129 C1130 1.376 . S
C1130 H1117 0.930 . S
C1130 C1129 1.376 . S
C1130 C1131 1.388 . S
C1131 H1118 0.930 . S
C1131 C1130 1.388 . S
C1131 C1132 1.390 . S
C1132 C1131 1.390 . S
C1132 C1133 1.394 . S
C1132 C1138 1.465 . S
C1133 C1128 1.399 . S
C1133 C1132 1.394 . S
C1133 C1134 1.516 . S
C1134 C1133 1.516 . S
C1134 C1135 1.502 . S
C1134 C1136 1.561 . S
C1134 C1137 1.526 . S
C1135 H1119 0.959 . S
C1135 H1120 0.959 . S
C1135 H1121 0.961 . S
C1135 C1134 1.502 . S
C1136 H1122 0.960 . S
C1136 H1123 0.961 . S
C1136 H1124 0.959 . S
C1136 C1134 1.561 . S
C1137 C1134 1.526 . S
C1137 C1138 1.396 . S
C1137 C1142 1.390 . S
C1138 C1132 1.465 . S
C1138 C1137 1.396 . S
C1138 C1139 1.399 . S
C1139 H1125 0.929 . S
C1139 C1138 1.399 . S
C1139 C1140 1.385 . S
C1140 H1126 0.931 . S
C1140 C1139 1.385 . S
C1140 C1141 1.389 . S
C1141 C1140 1.389 . S
C1141 C1142 1.387 . S
C1142 H1127 0.930 . S
C1142 C1137 1.390 . S
C1142 C1141 1.387 . S
H1143 C1155 0.930 . S
H1144 C1157 0.930 . S
H1145 C1158 0.930 . S
H1146 C1162 0.959 . S
H1147 C1162 0.959 . S
H1148 C1162 0.961 . S
H1149 C1163 0.960 . S
H1150 C1163 0.961 . S
H1151 C1163 0.959 . S
H1152 C1166 0.929 . S
H1153 C1167 0.931 . S
H1154 C1169 0.930 . S
C1155 H1143 0.930 . S
C1155 C1156 1.399 . S
C1155 C1160 1.399 . S
C1156 C1155 1.399 . S
C1156 C1157 1.376 . S
C1157 H1144 0.930 . S
C1157 C1156 1.376 . S
C1157 C1158 1.388 . S
C1158 H1145 0.930 . S
C1158 C1157 1.388 . S
C1158 C1159 1.390 . S
C1159 C1158 1.390 . S
C1159 C1160 1.394 . S
C1159 C1165 1.465 . S
C1160 C1155 1.399 . S
C1160 C1159 1.394 . S
C1160 C1161 1.516 . S
C1161 C1160 1.516 . S
C1161 C1162 1.502 . S
C1161 C1163 1.561 . S
C1161 C1164 1.526 . S
C1162 H1146 0.959 . S
C1162 H1147 0.959 . S
C1162 H1148 0.961 . S
C1162 C1161 1.502 . S
C1163 H1149 0.960 . S
C1163 H1150 0.961 . S
C1163 H1151 0.959 . S
C1163 C1161 1.561 . S
C1164 C1161 1.526 . S
C1164 C1165 1.396 . S
C1164 C1169 1.390 . S
C1165 C1159 1.465 . S
C1165 C1164 1.396 . S
C1165 C1166 1.399 . S
C1166 H1152 0.929 . S
C1166 C1165 1.399 . S
C1166 C1167 1.385 . S
C1167 H1153 0.931 . S
C1167 C1166 1.385 . S
C1167 C1168 1.389 . S
C1168 C1167 1.389 . S
C1168 C1169 1.387 . S
C1169 H1154 0.930 . S
C1169 C1164 1.390 . S
C1169 C1168 1.387 . S
H1170 C1182 0.930 . S
H1171 C1184 0.930 . S
H1172 C1185 0.930 . S
H1173 C1189 0.959 . S
H1174 C1189 0.959 . S
H1175 C1189 0.961 . S
H1176 C1190 0.960 . S
H1177 C1190 0.961 . S
H1178 C1190 0.959 . S
H1179 C1193 0.929 . S
H1180 C1194 0.931 . S
H1181 C1196 0.930 . S
C1182 H1170 0.930 . S
C1182 C1183 1.399 . S
C1182 C1187 1.399 . S
C1183 C1182 1.399 . S
C1183 C1184 1.376 . S
C1184 H1171 0.930 . S
C1184 C1183 1.376 . S
C1184 C1185 1.388 . S
C1185 H1172 0.930 . S
C1185 C1184 1.388 . S
C1185 C1186 1.390 . S
C1186 C1185 1.390 . S
C1186 C1187 1.394 . S
C1186 C1192 1.465 . S
C1187 C1182 1.399 . S
C1187 C1186 1.394 . S
C1187 C1188 1.516 . S
C1188 C1187 1.516 . S
C1188 C1189 1.502 . S
C1188 C1190 1.561 . S
C1188 C1191 1.526 . S
C1189 H1173 0.959 . S
C1189 H1174 0.959 . S
C1189 H1175 0.961 . S
C1189 C1188 1.502 . S
C1190 H1176 0.960 . S
C1190 H1177 0.961 . S
C1190 H1178 0.959 . S
C1190 C1188 1.561 . S
C1191 C1188 1.526 . S
C1191 C1192 1.396 . S
C1191 C1196 1.390 . S
C1192 C1186 1.465 . S
C1192 C1191 1.396 . S
C1192 C1193 1.399 . S
C1193 H1179 0.929 . S
C1193 C1192 1.399 . S
C1193 C1194 1.385 . S
C1194 H1180 0.931 . S
C1194 C1193 1.385 . S
C1194 C1195 1.389 . S
C1195 C1194 1.389 . S
C1195 C1196 1.387 . S
C1196 H1181 0.930 . S
C1196 C1191 1.390 . S
C1196 C1195 1.387 . S
H1197 C1209 0.930 . S
H1198 C1211 0.930 . S
H1199 C1212 0.930 . S
H1200 C1216 0.939 1_455 S
H1201 C1216 0.961 1_455 S
H1202 C1216 0.961 . S
H1203 C1217 0.960 . S
H1204 C1217 0.961 . S
H1205 C1217 0.959 . S
H1206 C1220 0.929 . S
H1207 C1221 0.931 . S
H1208 C1223 0.930 . S
C1209 H1197 0.930 . S
C1209 C1210 1.399 . S
C1209 C1214 1.399 . S
C1210 C1209 1.399 . S
C1210 C1211 1.376 . S
C1211 H1198 0.930 . S
C1211 C1210 1.376 . S
C1211 C1212 1.388 . S
C1212 H1199 0.930 . S
C1212 C1211 1.388 . S
C1212 C1213 1.390 . S
C1213 C1212 1.390 . S
C1213 C1214 1.394 . S
C1213 C1219 1.465 . S
C1214 C1209 1.399 . S
C1214 C1213 1.394 . S
C1214 C1215 1.516 . S
C1215 C1214 1.516 . S
C1215 C1216 1.502 . S
C1215 C1217 1.561 . S
C1215 C1218 1.526 . S
C1216 H1200 0.939 1_655 S
C1216 H1201 0.961 1_655 S
C1216 H1202 0.961 . S
C1216 C1215 1.502 . S
C1217 H1203 0.960 . S
C1217 H1204 0.961 . S
C1217 H1205 0.959 . S
C1217 C1215 1.561 . S
C1218 C1215 1.526 . S
C1218 C1219 1.396 . S
C1218 C1223 1.390 . S
C1219 C1213 1.465 . S
C1219 C1218 1.396 . S
C1219 C1220 1.399 . S
C1220 H1206 0.929 . S
C1220 C1219 1.399 . S
C1220 C1221 1.385 . S
C1221 H1207 0.931 . S
C1221 C1220 1.385 . S
C1221 C1222 1.389 . S
C1222 C1221 1.389 . S
C1222 C1223 1.387 . S
C1223 H1208 0.930 . S
C1223 C1218 1.390 . S
C1223 C1222 1.387 . S
H1224 C1236 0.930 . S
H1225 C1238 0.930 . S
H1226 C1239 0.930 . S
H1227 C1243 0.959 . S
H1228 C1243 0.959 . S
H1229 C1243 0.961 . S
H1230 C1244 0.960 . S
H1231 C1244 0.961 . S
H1232 C1244 0.959 . S
H1233 C1247 0.929 . S
H1234 C1248 0.931 . S
H1235 C1250 0.930 . S
C1236 H1224 0.930 . S
C1236 C1237 1.399 . S
C1236 C1241 1.399 . S
C1237 C1236 1.399 . S
C1237 C1238 1.376 . S
C1238 H1225 0.930 . S
C1238 C1237 1.376 . S
C1238 C1239 1.388 . S
C1239 H1226 0.930 . S
C1239 C1238 1.388 . S
C1239 C1240 1.390 . S
C1240 C1239 1.390 . S
C1240 C1241 1.394 . S
C1240 C1246 1.465 . S
C1241 C1236 1.399 . S
C1241 C1240 1.394 . S
C1241 C1242 1.516 . S
C1242 C1241 1.516 . S
C1242 C1243 1.502 . S
C1242 C1244 1.561 . S
C1242 C1245 1.526 . S
C1243 H1227 0.959 . S
C1243 H1228 0.959 . S
C1243 H1229 0.961 . S
C1243 C1242 1.502 . S
C1244 H1230 0.960 . S
C1244 H1231 0.961 . S
C1244 H1232 0.959 . S
C1244 C1242 1.561 . S
C1245 C1242 1.526 . S
C1245 C1246 1.396 . S
C1245 C1250 1.390 . S
C1246 C1240 1.465 . S
C1246 C1245 1.396 . S
C1246 C1247 1.399 . S
C1247 H1233 0.929 . S
C1247 C1246 1.399 . S
C1247 C1248 1.385 1_565 S
C1248 H1234 0.931 . S
C1248 C1247 1.385 1_545 S
C1248 C1249 1.389 . S
C1249 C1248 1.389 . S
C1249 C1250 1.387 1_545 S
C1250 H1235 0.930 . S
C1250 C1245 1.390 . S
C1250 C1249 1.387 1_565 S
H1251 C1263 0.930 . S
H1252 C1265 0.930 . S
H1253 C1266 0.930 . S
H1254 C1270 0.959 . S
H1255 C1270 0.959 . S
H1256 C1270 0.961 . S
H1257 C1271 0.960 . S
H1258 C1271 0.961 . S
H1259 C1271 0.959 . S
H1260 C1274 0.929 . S
H1261 C1275 0.931 . S
H1262 C1277 0.930 . S
C1263 H1251 0.930 . S
C1263 C1264 1.399 . S
C1263 C1268 1.399 . S
C1264 C1263 1.399 . S
C1264 C1265 1.376 . S
C1265 H1252 0.930 . S
C1265 C1264 1.376 . S
C1265 C1266 1.388 . S
C1266 H1253 0.930 . S
C1266 C1265 1.388 . S
C1266 C1267 1.390 . S
C1267 C1266 1.390 . S
C1267 C1268 1.394 . S
C1267 C1273 1.465 . S
C1268 C1263 1.399 . S
C1268 C1267 1.394 . S
C1268 C1269 1.516 . S
C1269 C1268 1.516 . S
C1269 C1270 1.502 . S
C1269 C1271 1.561 . S
C1269 C1272 1.526 . S
C1270 H1254 0.959 . S
C1270 H1255 0.959 . S
C1270 H1256 0.961 . S
C1270 C1269 1.502 . S
C1271 H1257 0.960 . S
C1271 H1258 0.961 . S
C1271 H1259 0.959 . S
C1271 C1269 1.561 . S
C1272 C1269 1.526 . S
C1272 C1273 1.396 . S
C1272 C1277 1.390 . S
C1273 C1267 1.465 . S
C1273 C1272 1.396 . S
C1273 C1274 1.399 . S
C1274 H1260 0.929 . S
C1274 C1273 1.399 . S
C1274 C1275 1.385 . S
C1275 H1261 0.931 . S
C1275 C1274 1.385 . S
C1275 C1276 1.389 . S
C1276 C1275 1.389 . S
C1276 C1277 1.387 . S
C1277 H1262 0.930 . S
C1277 C1272 1.390 . S
C1277 C1276 1.387 . S
H1278 C1290 0.930 . S
H1279 C1292 0.930 . S
H1280 C1293 0.927 1_554 S
H1281 C1297 0.959 . S
H1282 C1297 0.959 1_565 S
H1283 C1297 0.961 . S
H1284 C1298 0.960 . S
H1285 C1298 0.961 . S
H1286 C1298 0.959 . S
H1287 C1301 0.929 . S
H1288 C1302 0.931 . S
H1289 C1304 0.953 . S
C1290 H1278 0.930 . S
C1290 C1291 1.399 . S
C1290 C1295 1.399 . S
C1291 C1290 1.399 . S
C1291 C1292 1.376 . S
C1292 H1279 0.930 . S
C1292 C1291 1.376 . S
C1292 C1293 1.388 . S
C1293 H1280 0.927 1_556 S
C1293 C1292 1.388 . S
C1293 C1294 1.390 1_545 S
C1294 C1293 1.390 1_565 S
C1294 C1295 1.394 1_565 S
C1294 C1300 1.462 . S
C1295 C1290 1.399 . S
C1295 C1294 1.394 1_545 S
C1295 C1296 1.516 1_545 S
C1296 C1295 1.516 1_565 S
C1296 C1297 1.502 1_565 S
C1296 C1298 1.561 . S
C1296 C1299 1.526 . S
C1297 H1281 0.959 . S
C1297 H1282 0.959 1_545 S
C1297 H1283 0.961 . S
C1297 C1296 1.502 1_545 S
C1298 H1284 0.960 . S
C1298 H1285 0.961 . S
C1298 H1286 0.959 . S
C1298 C1296 1.561 . S
C1299 C1296 1.526 . S
C1299 C1300 1.394 . S
C1299 C1304 1.413 . S
C1300 C1294 1.462 . S
C1300 C1299 1.394 . S
C1300 C1301 1.403 1_556 S
C1301 H1287 0.929 . S
C1301 C1300 1.403 1_554 S
C1301 C1302 1.385 . S
C1302 H1288 0.931 . S
C1302 C1301 1.385 . S
C1302 C1303 1.389 . S
C1303 C1302 1.389 . S
C1303 C1304 1.343 1_554 S
C1304 H1289 0.953 . S
C1304 C1299 1.413 . S
C1304 C1303 1.343 1_556 S
H1305 C1317 0.930 . S
H1306 C1319 0.930 . S
H1307 C1320 0.930 . S
H1308 C1324 0.959 . S
H1309 C1324 0.959 . S
H1310 C1324 0.961 . S
H1311 C1325 0.960 . S
H1312 C1325 0.961 . S
H1313 C1325 0.959 . S
H1314 C1328 0.929 . S
H1315 C1329 0.931 . S
H1316 C1331 0.930 . S
C1317 H1305 0.930 . S
C1317 C1318 1.399 . S
C1317 C1322 1.399 . S
C1318 C1317 1.399 . S
C1318 C1319 1.376 . S
C1319 H1306 0.930 . S
C1319 C1318 1.376 . S
C1319 C1320 1.388 . S
C1320 H1307 0.930 . S
C1320 C1319 1.388 . S
C1320 C1321 1.390 . S
C1321 C1320 1.390 . S
C1321 C1322 1.394 . S
C1321 C1327 1.465 . S
C1322 C1317 1.399 . S
C1322 C1321 1.394 . S
C1322 C1323 1.516 . S
C1323 C1322 1.516 . S
C1323 C1324 1.502 . S
C1323 C1325 1.561 . S
C1323 C1326 1.526 . S
C1324 H1308 0.959 . S
C1324 H1309 0.959 . S
C1324 H1310 0.961 . S
C1324 C1323 1.502 . S
C1325 H1311 0.960 . S
C1325 H1312 0.961 . S
C1325 H1313 0.959 . S
C1325 C1323 1.561 . S
C1326 C1323 1.526 . S
C1326 C1327 1.396 . S
C1326 C1331 1.390 . S
C1327 C1321 1.465 . S
C1327 C1326 1.396 . S
C1327 C1328 1.399 . S
C1328 H1314 0.929 . S
C1328 C1327 1.399 . S
C1328 C1329 1.385 . S
C1329 H1315 0.931 . S
C1329 C1328 1.385 . S
C1329 C1330 1.389 . S
C1330 C1329 1.389 . S
C1330 C1331 1.387 . S
C1331 H1316 0.930 . S
C1331 C1326 1.390 . S
C1331 C1330 1.387 . S
H1332 C1344 0.930 . S
H1333 C1346 0.930 . S
H1334 C1347 0.930 . S
H1335 C1351 0.959 . S
H1336 C1351 0.959 . S
H1337 C1351 0.961 . S
H1338 C1352 0.960 . S
H1339 C1352 0.961 . S
H1340 C1352 0.959 . S
H1341 C1355 0.929 . S
H1342 C1356 0.931 . S
H1343 C1358 0.930 . S
C1344 H1332 0.930 . S
C1344 C1345 1.399 . S
C1344 C1349 1.399 . S
C1345 C1344 1.399 . S
C1345 C1346 1.376 . S
C1346 H1333 0.930 . S
C1346 C1345 1.376 . S
C1346 C1347 1.388 . S
C1347 H1334 0.930 . S
C1347 C1346 1.388 . S
C1347 C1348 1.390 . S
C1348 C1347 1.390 . S
C1348 C1349 1.394 . S
C1348 C1354 1.465 . S
C1349 C1344 1.399 . S
C1349 C1348 1.394 . S
C1349 C1350 1.516 . S
C1350 C1349 1.516 . S
C1350 C1351 1.502 . S
C1350 C1352 1.561 . S
C1350 C1353 1.526 . S
C1351 H1335 0.959 . S
C1351 H1336 0.959 . S
C1351 H1337 0.961 . S
C1351 C1350 1.502 . S
C1352 H1338 0.960 . S
C1352 H1339 0.961 . S
C1352 H1340 0.959 . S
C1352 C1350 1.561 . S
C1353 C1350 1.526 . S
C1353 C1354 1.396 . S
C1353 C1358 1.390 . S
C1354 C1348 1.465 . S
C1354 C1353 1.396 . S
C1354 C1355 1.399 . S
C1355 H1341 0.929 . S
C1355 C1354 1.399 . S
C1355 C1356 1.385 . S
C1356 H1342 0.931 . S
C1356 C1355 1.385 . S
C1356 C1357 1.389 . S
C1357 C1356 1.389 . S
C1357 C1358 1.387 . S
C1358 H1343 0.930 . S
C1358 C1353 1.390 . S
C1358 C1357 1.387 . S
H1359 C1371 0.930 . S
H1360 C1373 0.930 . S
H1361 C1374 0.930 . S
H1362 C1378 0.959 . S
H1363 C1378 0.959 . S
H1364 C1378 0.961 . S
H1365 C1379 0.960 . S
H1366 C1379 0.961 . S
H1367 C1379 0.959 . S
H1368 C1382 0.929 . S
H1369 C1383 0.931 . S
H1370 C1385 0.930 . S
C1371 H1359 0.930 . S
C1371 C1372 1.399 . S
C1371 C1376 1.399 . S
C1372 C1371 1.399 . S
C1372 C1373 1.376 . S
C1373 H1360 0.930 . S
C1373 C1372 1.376 . S
C1373 C1374 1.388 . S
C1374 H1361 0.930 . S
C1374 C1373 1.388 . S
C1374 C1375 1.390 . S
C1375 C1374 1.390 . S
C1375 C1376 1.394 . S
C1375 C1381 1.465 . S
C1376 C1371 1.399 . S
C1376 C1375 1.394 . S
C1376 C1377 1.516 . S
C1377 C1376 1.516 . S
C1377 C1378 1.502 . S
C1377 C1379 1.561 . S
C1377 C1380 1.526 . S
C1378 H1362 0.959 . S
C1378 H1363 0.959 . S
C1378 H1364 0.961 . S
C1378 C1377 1.502 . S
C1379 H1365 0.960 . S
C1379 H1366 0.961 . S
C1379 H1367 0.959 . S
C1379 C1377 1.561 . S
C1380 C1377 1.526 . S
C1380 C1381 1.396 . S
C1380 C1385 1.390 . S
C1381 C1375 1.465 . S
C1381 C1380 1.396 . S
C1381 C1382 1.399 . S
C1382 H1368 0.929 . S
C1382 C1381 1.399 . S
C1382 C1383 1.385 . S
C1383 H1369 0.931 . S
C1383 C1382 1.385 . S
C1383 C1384 1.389 . S
C1384 C1383 1.389 . S
C1384 C1385 1.387 . S
C1385 H1370 0.930 . S
C1385 C1380 1.390 . S
C1385 C1384 1.387 . S
H1386 C1398 0.930 1_565 S
H1387 C1400 0.946 . S
H1388 C1401 0.930 . S
H1389 C1405 0.959 . S
H1390 C1405 0.959 . S
H1391 C1405 0.961 . S
H1392 C1406 0.960 . S
H1393 C1406 0.961 . S
H1394 C1406 0.959 . S
H1395 C1409 0.929 . S
H1396 C1410 0.931 . S
H1397 C1412 0.930 . S
C1398 H1386 0.930 1_545 S
C1398 C1399 1.399 1_545 S
C1398 C1403 1.399 . S
C1399 C1398 1.399 1_565 S
C1399 C1400 1.376 1_565 S
C1400 H1387 0.946 . S
C1400 C1399 1.376 1_545 S
C1400 C1401 1.388 . S
C1401 H1388 0.930 . S
C1401 C1400 1.388 . S
C1401 C1402 1.390 . S
C1402 C1401 1.390 . S
C1402 C1403 1.394 . S
C1402 C1408 1.465 . S
C1403 C1398 1.399 . S
C1403 C1402 1.394 . S
C1403 C1404 1.516 . S
C1404 C1403 1.516 . S
C1404 C1405 1.502 . S
C1404 C1406 1.561 . S
C1404 C1407 1.526 . S
C1405 H1389 0.959 . S
C1405 H1390 0.959 . S
C1405 H1391 0.961 . S
C1405 C1404 1.502 . S
C1406 H1392 0.960 . S
C1406 H1393 0.961 . S
C1406 H1394 0.959 . S
C1406 C1404 1.561 . S
C1407 C1404 1.526 . S
C1407 C1408 1.396 . S
C1407 C1412 1.390 . S
C1408 C1402 1.465 . S
C1408 C1407 1.396 . S
C1408 C1409 1.399 . S
C1409 H1395 0.929 . S
C1409 C1408 1.399 . S
C1409 C1410 1.385 . S
C1410 H1396 0.931 . S
C1410 C1409 1.385 . S
C1410 C1411 1.389 . S
C1411 C1410 1.389 . S
C1411 C1412 1.387 . S
C1412 H1397 0.930 . S
C1412 C1407 1.390 . S
C1412 C1411 1.387 . S
H1413 C1425 0.930 . S
H1414 C1427 0.930 . S
H1415 C1428 0.930 . S
H1416 C1432 0.959 . S
H1417 C1432 0.959 . S
H1418 C1432 0.961 . S
H1419 C1433 0.960 . S
H1420 C1433 0.961 . S
H1421 C1433 0.959 . S
H1422 C1436 0.929 . S
H1423 C1437 0.931 . S
H1424 C1439 0.930 . S
C1425 H1413 0.930 . S
C1425 C1426 1.399 . S
C1425 C1430 1.399 . S
C1426 C1425 1.399 . S
C1426 C1427 1.376 . S
C1427 H1414 0.930 . S
C1427 C1426 1.376 . S
C1427 C1428 1.388 . S
C1428 H1415 0.930 . S
C1428 C1427 1.388 . S
C1428 C1429 1.390 . S
C1429 C1428 1.390 . S
C1429 C1430 1.394 . S
C1429 C1435 1.465 . S
C1430 C1425 1.399 . S
C1430 C1429 1.394 . S
C1430 C1431 1.516 . S
C1431 C1430 1.516 . S
C1431 C1432 1.502 . S
C1431 C1433 1.561 . S
C1431 C1434 1.526 . S
C1432 H1416 0.959 . S
C1432 H1417 0.959 . S
C1432 H1418 0.961 . S
C1432 C1431 1.502 . S
C1433 H1419 0.960 . S
C1433 H1420 0.961 . S
C1433 H1421 0.959 . S
C1433 C1431 1.561 . S
C1434 C1431 1.526 . S
C1434 C1435 1.396 . S
C1434 C1439 1.390 . S
C1435 C1429 1.465 . S
C1435 C1434 1.396 . S
C1435 C1436 1.399 . S
C1436 H1422 0.929 . S
C1436 C1435 1.399 . S
C1436 C1437 1.385 . S
C1437 H1423 0.931 . S
C1437 C1436 1.385 . S
C1437 C1438 1.389 . S
C1438 C1437 1.389 . S
C1438 C1439 1.387 . S
C1439 H1424 0.930 . S
C1439 C1434 1.390 . S
C1439 C1438 1.387 . S
H1440 C1452 0.930 . S
H1441 C1454 0.930 . S
H1442 C1455 0.930 . S
H1443 C1459 0.959 . S
H1444 C1459 0.959 . S
H1445 C1459 0.961 . S
H1446 C1460 0.960 . S
H1447 C1460 0.961 . S
H1448 C1460 0.959 . S
H1449 C1463 0.929 . S
H1450 C1464 0.931 . S
H1451 C1466 0.930 . S
C1452 H1440 0.930 . S
C1452 C1453 1.399 . S
C1452 C1457 1.399 . S
C1453 C1452 1.399 . S
C1453 C1454 1.376 . S
C1454 H1441 0.930 . S
C1454 C1453 1.376 . S
C1454 C1455 1.388 . S
C1455 H1442 0.930 . S
C1455 C1454 1.388 . S
C1455 C1456 1.390 . S
C1456 C1455 1.390 . S
C1456 C1457 1.394 . S
C1456 C1462 1.465 . S
C1457 C1452 1.399 . S
C1457 C1456 1.394 . S
C1457 C1458 1.516 . S
C1458 C1457 1.516 . S
C1458 C1459 1.502 . S
C1458 C1460 1.561 . S
C1458 C1461 1.526 . S
C1459 H1443 0.959 . S
C1459 H1444 0.959 . S
C1459 H1445 0.961 . S
C1459 C1458 1.502 . S
C1460 H1446 0.960 . S
C1460 H1447 0.961 . S
C1460 H1448 0.959 . S
C1460 C1458 1.561 . S
C1461 C1458 1.526 . S
C1461 C1462 1.396 . S
C1461 C1466 1.390 . S
C1462 C1456 1.465 . S
C1462 C1461 1.396 . S
C1462 C1463 1.399 . S
C1463 H1449 0.929 . S
C1463 C1462 1.399 . S
C1463 C1464 1.385 . S
C1464 H1450 0.931 . S
C1464 C1463 1.385 . S
C1464 C1465 1.389 . S
C1465 C1464 1.389 . S
C1465 C1466 1.387 . S
C1466 H1451 0.930 . S
C1466 C1461 1.390 . S
C1466 C1465 1.387 . S
H1467 C1479 0.930 . S
H1468 C1481 0.930 . S
H1469 C1482 0.930 . S
H1470 C1486 0.959 . S
H1471 C1486 0.959 . S
H1472 C1486 0.961 . S
H1473 C1487 0.960 . S
H1474 C1487 0.961 . S
H1475 C1487 0.959 . S
H1476 C1490 0.929 . S
H1477 C1491 0.931 . S
H1478 C1493 0.930 . S
C1479 H1467 0.930 . S
C1479 C1480 1.399 . S
C1479 C1484 1.399 . S
C1480 C1479 1.399 . S
C1480 C1481 1.376 . S
C1481 H1468 0.930 . S
C1481 C1480 1.376 . S
C1481 C1482 1.388 . S
C1482 H1469 0.930 . S
C1482 C1481 1.388 . S
C1482 C1483 1.390 . S
C1483 C1482 1.390 . S
C1483 C1484 1.394 . S
C1483 C1489 1.465 . S
C1484 C1479 1.399 . S
C1484 C1483 1.394 . S
C1484 C1485 1.516 . S
C1485 C1484 1.516 . S
C1485 C1486 1.502 . S
C1485 C1487 1.561 . S
C1485 C1488 1.526 . S
C1486 H1470 0.959 . S
C1486 H1471 0.959 . S
C1486 H1472 0.961 . S
C1486 C1485 1.502 . S
C1487 H1473 0.960 . S
C1487 H1474 0.961 . S
C1487 H1475 0.959 . S
C1487 C1485 1.561 . S
C1488 C1485 1.526 . S
C1488 C1489 1.396 . S
C1488 C1493 1.390 . S
C1489 C1483 1.465 . S
C1489 C1488 1.396 . S
C1489 C1490 1.399 . S
C1490 H1476 0.929 . S
C1490 C1489 1.399 . S
C1490 C1491 1.385 . S
C1491 H1477 0.931 . S
C1491 C1490 1.385 . S
C1491 C1492 1.389 . S
C1492 C1491 1.389 . S
C1492 C1493 1.387 . S
C1493 H1478 0.930 . S
C1493 C1488 1.390 . S
C1493 C1492 1.387 . S
H1494 C1506 0.930 . S
H1495 C1508 0.930 . S
H1496 C1509 0.930 . S
H1497 C1513 0.959 . S
H1498 C1513 0.959 . S
H1499 C1513 0.961 . S
H1500 C1514 0.960 . S
H1501 C1514 0.961 . S
H1502 C1514 0.959 . S
H1503 C1517 0.929 . S
H1504 C1518 0.931 . S
H1505 C1520 0.930 . S
C1506 H1494 0.930 . S
C1506 C1507 1.399 . S
C1506 C1511 1.399 . S
C1507 C1506 1.399 . S
C1507 C1508 1.376 . S
C1508 H1495 0.930 . S
C1508 C1507 1.376 . S
C1508 C1509 1.388 . S
C1509 H1496 0.930 . S
C1509 C1508 1.388 . S
C1509 C1510 1.390 . S
C1510 C1509 1.390 . S
C1510 C1511 1.394 . S
C1510 C1516 1.465 . S
C1511 C1506 1.399 . S
C1511 C1510 1.394 . S
C1511 C1512 1.516 . S
C1512 C1511 1.516 . S
C1512 C1513 1.502 . S
C1512 C1514 1.561 . S
C1512 C1515 1.526 . S
C1513 H1497 0.959 . S
C1513 H1498 0.959 . S
C1513 H1499 0.961 . S
C1513 C1512 1.502 . S
C1514 H1500 0.960 . S
C1514 H1501 0.961 . S
C1514 H1502 0.959 . S
C1514 C1512 1.561 . S
C1515 C1512 1.526 . S
C1515 C1516 1.396 . S
C1515 C1520 1.390 . S
C1516 C1510 1.465 . S
C1516 C1515 1.396 . S
C1516 C1517 1.399 . S
C1517 H1503 0.929 . S
C1517 C1516 1.399 . S
C1517 C1518 1.385 . S
C1518 H1504 0.931 . S
C1518 C1517 1.385 . S
C1518 C1519 1.389 . S
C1519 C1518 1.389 . S
C1519 C1520 1.387 . S
C1520 H1505 0.930 . S
C1520 C1515 1.390 . S
C1520 C1519 1.387 . S
H1521 C1533 0.930 . S
H1522 C1535 0.930 . S
H1523 C1536 0.930 . S
H1524 C1540 0.959 . S
H1525 C1540 0.959 . S
H1526 C1540 0.961 . S
H1527 C1541 0.960 . S
H1528 C1541 0.961 . S
H1529 C1541 0.959 . S
H1530 C1544 0.929 . S
H1531 C1545 0.931 . S
H1532 C1547 0.930 . S
C1533 H1521 0.930 . S
C1533 C1534 1.399 . S
C1533 C1538 1.399 . S
C1534 C1533 1.399 . S
C1534 C1535 1.376 . S
C1535 H1522 0.930 . S
C1535 C1534 1.376 . S
C1535 C1536 1.388 . S
C1536 H1523 0.930 . S
C1536 C1535 1.388 . S
C1536 C1537 1.390 . S
C1537 C1536 1.390 . S
C1537 C1538 1.394 . S
C1537 C1543 1.465 . S
C1538 C1533 1.399 . S
C1538 C1537 1.394 . S
C1538 C1539 1.516 . S
C1539 C1538 1.516 . S
C1539 C1540 1.502 . S
C1539 C1541 1.561 . S
C1539 C1542 1.526 . S
C1540 H1524 0.959 . S
C1540 H1525 0.959 . S
C1540 H1526 0.961 . S
C1540 C1539 1.502 . S
C1541 H1527 0.960 . S
C1541 H1528 0.961 . S
C1541 H1529 0.959 . S
C1541 C1539 1.561 . S
C1542 C1539 1.526 . S
C1542 C1543 1.396 . S
C1542 C1547 1.390 . S
C1543 C1537 1.465 . S
C1543 C1542 1.396 . S
C1543 C1544 1.399 . S
C1544 H1530 0.929 . S
C1544 C1543 1.399 . S
C1544 C1545 1.385 . S
C1545 H1531 0.931 . S
C1545 C1544 1.385 . S
C1545 C1546 1.389 . S
C1546 C1545 1.389 . S
C1546 C1547 1.387 . S
C1547 H1532 0.930 . S
C1547 C1542 1.390 . S
C1547 C1546 1.387 . S
H1548 C1560 0.930 . S
H1549 C1562 0.930 . S
H1550 C1563 0.930 . S
H1551 C1567 0.959 . S
H1552 C1567 0.959 . S
H1553 C1567 0.961 . S
H1554 C1568 0.960 . S
H1555 C1568 0.961 . S
H1556 C1568 0.959 . S
H1557 C1571 0.929 . S
H1558 C1572 0.931 . S
H1559 C1574 0.930 . S
C1560 H1548 0.930 . S
C1560 C1561 1.399 . S
C1560 C1565 1.399 . S
C1561 C1560 1.399 . S
C1561 C1562 1.376 . S
C1562 H1549 0.930 . S
C1562 C1561 1.376 . S
C1562 C1563 1.388 . S
C1563 H1550 0.930 . S
C1563 C1562 1.388 . S
C1563 C1564 1.390 . S
C1564 C1563 1.390 . S
C1564 C1565 1.394 . S
C1564 C1570 1.465 . S
C1565 C1560 1.399 . S
C1565 C1564 1.394 . S
C1565 C1566 1.516 . S
C1566 C1565 1.516 . S
C1566 C1567 1.502 . S
C1566 C1568 1.561 . S
C1566 C1569 1.526 . S
C1567 H1551 0.959 . S
C1567 H1552 0.959 . S
C1567 H1553 0.961 . S
C1567 C1566 1.502 . S
C1568 H1554 0.960 . S
C1568 H1555 0.961 . S
C1568 H1556 0.959 . S
C1568 C1566 1.561 . S
C1569 C1566 1.526 . S
C1569 C1570 1.396 . S
C1569 C1574 1.390 . S
C1570 C1564 1.465 . S
C1570 C1569 1.396 . S
C1570 C1571 1.399 . S
C1571 H1557 0.929 . S
C1571 C1570 1.399 . S
C1571 C1572 1.385 . S
C1572 H1558 0.931 . S
C1572 C1571 1.385 . S
C1572 C1573 1.389 . S
C1573 C1572 1.389 . S
C1573 C1574 1.387 . S
C1574 H1559 0.930 . S
C1574 C1569 1.390 . S
C1574 C1573 1.387 . S
H1575 C1587 0.930 . S
H1576 C1589 0.930 . S
H1577 C1590 0.930 . S
H1578 C1594 0.959 . S
H1579 C1594 0.959 . S
H1580 C1594 0.961 . S
H1581 C1595 0.960 1_455 S
H1582 C1595 0.961 . S
H1583 C1595 0.959 1_455 S
H1584 C1598 0.929 . S
H1585 C1599 0.931 . S
H1586 C1601 0.930 . S
C1587 H1575 0.930 . S
C1587 C1588 1.399 . S
C1587 C1592 1.399 . S
C1588 C1587 1.399 . S
C1588 C1589 1.376 . S
C1589 H1576 0.930 . S
C1589 C1588 1.376 . S
C1589 C1590 1.388 . S
C1590 H1577 0.930 . S
C1590 C1589 1.388 . S
C1590 C1591 1.357 1_455 S
C1591 C1590 1.357 1_655 S
C1591 C1592 1.382 1_655 S
C1591 C1597 1.515 . S
C1592 C1587 1.399 . S
C1592 C1591 1.382 1_455 S
C1592 C1593 1.516 1_455 S
C1593 C1592 1.516 1_655 S
C1593 C1594 1.502 . S
C1593 C1595 1.561 . S
C1593 C1596 1.526 . S
C1594 H1578 0.959 . S
C1594 H1579 0.959 . S
C1594 H1580 0.961 . S
C1594 C1593 1.502 . S
C1595 H1581 0.960 1_655 S
C1595 H1582 0.961 . S
C1595 H1583 0.959 1_655 S
C1595 C1593 1.561 . S
C1596 C1593 1.526 . S
C1596 C1597 1.396 . S
C1596 C1601 1.390 . S
C1597 C1591 1.515 . S
C1597 C1596 1.396 . S
C1597 C1598 1.399 . S
C1598 H1584 0.929 . S
C1598 C1597 1.399 . S
C1598 C1599 1.385 . S
C1599 H1585 0.931 . S
C1599 C1598 1.385 . S
C1599 C1600 1.389 . S
C1600 C1599 1.389 . S
C1600 C1601 1.387 . S
C1601 H1586 0.930 . S
C1601 C1596 1.390 . S
C1601 C1600 1.387 . S
H1602 C1614 0.930 . S
H1603 C1616 0.930 . S
H1604 C1617 0.930 . S
H1605 C1621 0.959 . S
H1606 C1621 0.959 . S
H1607 C1621 0.961 . S
H1608 C1622 0.960 . S
H1609 C1622 0.961 . S
H1610 C1622 0.959 . S
H1611 C1625 0.929 . S
H1612 C1626 0.931 . S
H1613 C1628 0.930 . S
C1614 H1602 0.930 . S
C1614 C1615 1.399 . S
C1614 C1619 1.399 . S
C1615 C1614 1.399 . S
C1615 C1616 1.376 . S
C1616 H1603 0.930 . S
C1616 C1615 1.376 . S
C1616 C1617 1.388 . S
C1617 H1604 0.930 . S
C1617 C1616 1.388 . S
C1617 C1618 1.390 . S
C1618 C1617 1.390 . S
C1618 C1619 1.394 . S
C1618 C1624 1.465 . S
C1619 C1614 1.399 . S
C1619 C1618 1.394 . S
C1619 C1620 1.516 . S
C1620 C1619 1.516 . S
C1620 C1621 1.502 . S
C1620 C1622 1.561 . S
C1620 C1623 1.526 . S
C1621 H1605 0.959 . S
C1621 H1606 0.959 . S
C1621 H1607 0.961 . S
C1621 C1620 1.502 . S
C1622 H1608 0.960 . S
C1622 H1609 0.961 . S
C1622 H1610 0.959 . S
C1622 C1620 1.561 . S
C1623 C1620 1.526 . S
C1623 C1624 1.396 . S
C1623 C1628 1.390 . S
C1624 C1618 1.465 . S
C1624 C1623 1.396 . S
C1624 C1625 1.399 . S
C1625 H1611 0.929 . S
C1625 C1624 1.399 . S
C1625 C1626 1.385 . S
C1626 H1612 0.931 . S
C1626 C1625 1.385 . S
C1626 C1627 1.389 . S
C1627 C1626 1.389 . S
C1627 C1628 1.387 . S
C1628 H1613 0.930 . S
C1628 C1623 1.390 . S
C1628 C1627 1.387 . S
H1629 C1641 0.930 . S
H1630 C1643 0.930 . S
H1631 C1644 0.930 . S
H1632 C1648 0.959 . S
H1633 C1648 0.959 1_455 S
H1634 C1648 0.961 . S
H1635 C1649 0.960 . S
H1636 C1649 0.961 . S
H1637 C1649 0.959 . S
H1638 C1652 0.929 . S
H1639 C1653 0.931 . S
H1640 C1655 0.930 . S
C1641 H1629 0.930 . S
C1641 C1642 1.399 . S
C1641 C1646 1.399 . S
C1642 C1641 1.399 . S
C1642 C1643 1.376 . S
C1643 H1630 0.930 . S
C1643 C1642 1.376 . S
C1643 C1644 1.388 . S
C1644 H1631 0.930 . S
C1644 C1643 1.388 . S
C1644 C1645 1.390 1_655 S
C1645 C1644 1.390 1_455 S
C1645 C1646 1.394 1_455 S
C1645 C1651 1.465 . S
C1646 C1641 1.399 . S
C1646 C1645 1.394 1_655 S
C1646 C1647 1.516 1_655 S
C1647 C1646 1.516 1_455 S
C1647 C1648 1.502 1_455 S
C1647 C1649 1.561 . S
C1647 C1650 1.526 . S
C1648 H1632 0.959 . S
C1648 H1633 0.959 1_655 S
C1648 H1634 0.961 . S
C1648 C1647 1.502 1_655 S
C1649 H1635 0.960 . S
C1649 H1636 0.961 . S
C1649 H1637 0.959 . S
C1649 C1647 1.561 . S
C1650 C1647 1.526 . S
C1650 C1651 1.396 . S
C1650 C1655 1.390 . S
C1651 C1645 1.465 . S
C1651 C1650 1.396 . S
C1651 C1652 1.399 . S
C1652 H1638 0.929 . S
C1652 C1651 1.399 . S
C1652 C1653 1.385 . S
C1653 H1639 0.931 . S
C1653 C1652 1.385 . S
C1653 C1654 1.389 . S
C1654 C1653 1.389 . S
C1654 C1655 1.387 . S
C1655 H1640 0.930 . S
C1655 C1650 1.390 . S
C1655 C1654 1.387 . S
H1656 C1668 0.930 . S
H1657 C1670 0.930 . S
H1658 C1671 0.930 . S
H1659 C1675 0.959 . S
H1660 C1675 0.959 . S
H1661 C1675 0.961 . S
H1662 C1676 0.960 . S
H1663 C1676 0.961 . S
H1664 C1676 0.959 . S
H1665 C1679 0.929 . S
H1666 C1680 0.931 . S
H1667 C1682 0.930 . S
C1668 H1656 0.930 . S
C1668 C1669 1.399 . S
C1668 C1673 1.399 . S
C1669 C1668 1.399 . S
C1669 C1670 1.376 . S
C1670 H1657 0.930 . S
C1670 C1669 1.376 . S
C1670 C1671 1.388 . S
C1671 H1658 0.930 . S
C1671 C1670 1.388 . S
C1671 C1672 1.390 . S
C1672 C1671 1.390 . S
C1672 C1673 1.394 . S
C1672 C1678 1.465 . S
C1673 C1668 1.399 . S
C1673 C1672 1.394 . S
C1673 C1674 1.516 . S
C1674 C1673 1.516 . S
C1674 C1675 1.502 . S
C1674 C1676 1.561 . S
C1674 C1677 1.526 . S
C1675 H1659 0.959 . S
C1675 H1660 0.959 . S
C1675 H1661 0.961 . S
C1675 C1674 1.502 . S
C1676 H1662 0.960 . S
C1676 H1663 0.961 . S
C1676 H1664 0.959 . S
C1676 C1674 1.561 . S
C1677 C1674 1.526 . S
C1677 C1678 1.396 . S
C1677 C1682 1.390 . S
C1678 C1672 1.465 . S
C1678 C1677 1.396 . S
C1678 C1679 1.399 . S
C1679 H1665 0.929 . S
C1679 C1678 1.399 . S
C1679 C1680 1.385 . S
C1680 H1666 0.931 . S
C1680 C1679 1.385 . S
C1680 C1681 1.389 . S
C1681 C1680 1.389 . S
C1681 C1682 1.387 . S
C1682 H1667 0.930 . S
C1682 C1677 1.390 . S
C1682 C1681 1.387 . S
H1683 C1695 0.930 . S
H1684 C1697 0.930 . S
H1685 C1698 0.930 . S
H1686 C1702 0.959 . S
H1687 C1702 0.959 . S
H1688 C1702 0.961 . S
H1689 C1703 0.960 . S
H1690 C1703 0.961 . S
H1691 C1703 0.959 . S
H1692 C1706 0.929 . S
H1693 C1707 0.931 1_455 S
H1694 C1709 0.930 . S
C1695 H1683 0.930 . S
C1695 C1696 1.399 . S
C1695 C1700 1.399 1_554 S
C1696 C1695 1.399 . S
C1696 C1697 1.376 . S
C1697 H1684 0.930 . S
C1697 C1696 1.376 . S
C1697 C1698 1.388 1_554 S
C1698 H1685 0.930 . S
C1698 C1697 1.388 1_556 S
C1698 C1699 1.390 . S
C1699 C1698 1.390 . S
C1699 C1700 1.394 . S
C1699 C1705 1.465 . S
C1700 C1695 1.399 1_556 S
C1700 C1699 1.394 . S
C1700 C1701 1.516 . S
C1701 C1700 1.516 . S
C1701 C1702 1.502 . S
C1701 C1703 1.561 . S
C1701 C1704 1.526 . S
C1702 H1686 0.959 . S
C1702 H1687 0.959 . S
C1702 H1688 0.961 . S
C1702 C1701 1.502 . S
C1703 H1689 0.960 . S
C1703 H1690 0.961 . S
C1703 H1691 0.959 . S
C1703 C1701 1.561 . S
C1704 C1701 1.526 . S
C1704 C1705 1.396 . S
C1704 C1709 1.390 . S
C1705 C1699 1.465 . S
C1705 C1704 1.396 . S
C1705 C1706 1.399 . S
C1706 H1692 0.929 . S
C1706 C1705 1.399 . S
C1706 C1707 1.385 . S
C1707 H1693 0.931 1_655 S
C1707 C1706 1.385 . S
C1707 C1708 1.389 . S
C1708 C1707 1.389 . S
C1708 C1709 1.387 . S
C1709 H1694 0.930 . S
C1709 C1704 1.390 . S
C1709 C1708 1.387 . S
H1710 C1722 0.930 . S
H1711 C1724 0.930 . S
H1712 C1725 0.930 . S
H1713 C1729 0.959 . S
H1714 C1729 0.959 . S
H1715 C1729 0.961 . S
H1716 C1730 0.960 . S
H1717 C1730 0.961 . S
H1718 C1730 0.959 . S
H1719 C1733 0.929 . S
H1720 C1734 0.931 . S
H1721 C1736 0.930 . S
C1722 H1710 0.930 . S
C1722 C1723 1.399 . S
C1722 C1727 1.399 . S
C1723 C1722 1.399 . S
C1723 C1724 1.376 . S
C1724 H1711 0.930 . S
C1724 C1723 1.376 . S
C1724 C1725 1.388 . S
C1725 H1712 0.930 . S
C1725 C1724 1.388 . S
C1725 C1726 1.390 . S
C1726 C1725 1.390 . S
C1726 C1727 1.394 . S
C1726 C1732 1.465 . S
C1727 C1722 1.399 . S
C1727 C1726 1.394 . S
C1727 C1728 1.516 . S
C1728 C1727 1.516 . S
C1728 C1729 1.502 . S
C1728 C1730 1.561 . S
C1728 C1731 1.526 . S
C1729 H1713 0.959 . S
C1729 H1714 0.959 . S
C1729 H1715 0.961 . S
C1729 C1728 1.502 . S
C1730 H1716 0.960 . S
C1730 H1717 0.961 . S
C1730 H1718 0.959 . S
C1730 C1728 1.561 . S
C1731 C1728 1.526 . S
C1731 C1732 1.396 . S
C1731 C1736 1.390 . S
C1732 C1726 1.465 . S
C1732 C1731 1.396 . S
C1732 C1733 1.399 . S
C1733 H1719 0.929 . S
C1733 C1732 1.399 . S
C1733 C1734 1.385 . S
C1734 H1720 0.931 . S
C1734 C1733 1.385 . S
C1734 C1735 1.389 . S
C1735 C1734 1.389 . S
C1735 C1736 1.387 . S
C1736 H1721 0.930 . S
C1736 C1731 1.390 . S
C1736 C1735 1.387 . S
H1737 C1749 0.930 . S
H1738 C1751 0.930 . S
H1739 C1752 0.930 . S
H1740 C1756 0.959 . S
H1741 C1756 0.959 . S
H1742 C1756 0.961 . S
H1743 C1757 0.953 1_554 S
H1744 C1757 0.961 . S
H1745 C1757 0.974 . S
H1746 C1760 0.964 . S
H1747 C1761 0.931 . S
H1748 C1763 0.930 . S
C1749 H1737 0.930 . S
C1749 C1750 1.399 . S
C1749 C1754 1.399 . S
C1750 C1749 1.399 . S
C1750 C1751 1.376 . S
C1751 H1738 0.930 . S
C1751 C1750 1.376 . S
C1751 C1752 1.388 . S
C1752 H1739 0.930 . S
C1752 C1751 1.388 . S
C1752 C1753 1.390 . S
C1753 C1752 1.390 . S
C1753 C1754 1.394 . S
C1753 C1759 1.465 1_554 S
C1754 C1749 1.399 . S
C1754 C1753 1.394 . S
C1754 C1755 1.516 1_554 S
C1755 C1754 1.516 1_556 S
C1755 C1756 1.502 . S
C1755 C1757 1.561 . S
C1755 C1758 1.526 . S
C1756 H1740 0.959 . S
C1756 H1741 0.959 . S
C1756 H1742 0.961 . S
C1756 C1755 1.502 . S
C1757 H1743 0.953 1_556 S
C1757 H1744 0.961 . S
C1757 H1745 0.974 . S
C1757 C1755 1.561 . S
C1758 C1755 1.526 . S
C1758 C1759 1.396 . S
C1758 C1763 1.390 . S
C1759 C1753 1.465 1_556 S
C1759 C1758 1.396 . S
C1759 C1760 1.399 . S
C1760 H1746 0.964 . S
C1760 C1759 1.399 . S
C1760 C1761 1.385 . S
C1761 H1747 0.931 . S
C1761 C1760 1.385 . S
C1761 C1762 1.389 . S
C1762 C1761 1.389 . S
C1762 C1763 1.387 . S
C1763 H1748 0.930 . S
C1763 C1758 1.390 . S
C1763 C1762 1.387 . S
H1764 C1776 0.930 . S
H1765 C1778 0.930 . S
H1766 C1779 0.930 . S
H1767 C1783 0.959 . S
H1768 C1783 0.959 . S
H1769 C1783 0.961 . S
H1770 C1784 0.960 . S
H1771 C1784 0.961 . S
H1772 C1784 0.959 . S
H1773 C1787 0.929 . S
H1774 C1788 0.931 . S
H1775 C1790 0.930 . S
C1776 H1764 0.930 . S
C1776 C1777 1.399 . S
C1776 C1781 1.399 . S
C1777 C1776 1.399 . S
C1777 C1778 1.376 . S
C1778 H1765 0.930 . S
C1778 C1777 1.376 . S
C1778 C1779 1.388 . S
C1779 H1766 0.930 . S
C1779 C1778 1.388 . S
C1779 C1780 1.390 . S
C1780 C1779 1.390 . S
C1780 C1781 1.394 . S
C1780 C1786 1.465 . S
C1781 C1776 1.399 . S
C1781 C1780 1.394 . S
C1781 C1782 1.516 . S
C1782 C1781 1.516 . S
C1782 C1783 1.502 . S
C1782 C1784 1.561 . S
C1782 C1785 1.526 . S
C1783 H1767 0.959 . S
C1783 H1768 0.959 . S
C1783 H1769 0.961 . S
C1783 C1782 1.502 . S
C1784 H1770 0.960 . S
C1784 H1771 0.961 . S
C1784 H1772 0.959 . S
C1784 C1782 1.561 . S
C1785 C1782 1.526 . S
C1785 C1786 1.396 . S
C1785 C1790 1.390 . S
C1786 C1780 1.465 . S
C1786 C1785 1.396 . S
C1786 C1787 1.399 . S
C1787 H1773 0.929 . S
C1787 C1786 1.399 . S
C1787 C1788 1.385 . S
C1788 H1774 0.931 . S
C1788 C1787 1.385 . S
C1788 C1789 1.389 . S
C1789 C1788 1.389 . S
C1789 C1790 1.387 . S
C1790 H1775 0.930 . S
C1790 C1785 1.390 . S
C1790 C1789 1.387 . S
H1791 C1803 0.930 . S
H1792 C1805 0.930 . S
H1793 C1806 0.930 . S
H1794 C1810 0.959 . S
H1795 C1810 0.959 . S
H1796 C1810 0.961 1_556 S
H1797 C1811 0.960 1_556 S
H1798 C1811 0.961 . S
H1799 C1811 0.959 . S
H1800 C1814 0.929 . S
H1801 C1815 0.931 . S
H1802 C1817 0.930 . S
C1803 H1791 0.930 . S
C1803 C1804 1.399 . S
C1803 C1808 1.399 1_556 S
C1804 C1803 1.399 . S
C1804 C1805 1.376 . S
C1805 H1792 0.930 . S
C1805 C1804 1.376 . S
C1805 C1806 1.388 1_556 S
C1806 H1793 0.930 . S
C1806 C1805 1.388 1_554 S
C1806 C1807 1.390 . S
C1807 C1806 1.390 . S
C1807 C1808 1.394 . S
C1807 C1813 1.465 . S
C1808 C1803 1.399 1_554 S
C1808 C1807 1.394 . S
C1808 C1809 1.516 . S
C1809 C1808 1.516 . S
C1809 C1810 1.502 . S
C1809 C1811 1.561 . S
C1809 C1812 1.526 . S
C1810 H1794 0.959 . S
C1810 H1795 0.959 . S
C1810 H1796 0.961 1_554 S
C1810 C1809 1.502 . S
C1811 H1797 0.960 1_554 S
C1811 H1798 0.961 . S
C1811 H1799 0.959 . S
C1811 C1809 1.561 . S
C1812 C1809 1.526 . S
C1812 C1813 1.396 . S
C1812 C1817 1.390 . S
C1813 C1807 1.465 . S
C1813 C1812 1.396 . S
C1813 C1814 1.399 . S
C1814 H1800 0.929 . S
C1814 C1813 1.399 . S
C1814 C1815 1.385 . S
C1815 H1801 0.931 . S
C1815 C1814 1.385 . S
C1815 C1816 1.389 . S
C1816 C1815 1.389 . S
C1816 C1817 1.387 . S
C1817 H1802 0.930 . S
C1817 C1812 1.390 . S
C1817 C1816 1.387 . S
H1818 C1830 0.930 . S
H1819 C1832 0.930 . S
H1820 C1833 0.930 . S
H1821 C1837 0.959 . S
H1822 C1837 0.959 . S
H1823 C1837 0.961 . S
H1824 C1838 0.960 . S
H1825 C1838 0.961 . S
H1826 C1838 0.959 . S
H1827 C1841 0.929 . S
H1828 C1842 0.931 . S
H1829 C1844 0.930 . S
C1830 H1818 0.930 . S
C1830 C1831 1.399 . S
C1830 C1835 1.399 . S
C1831 C1830 1.399 . S
C1831 C1832 1.376 . S
C1832 H1819 0.930 . S
C1832 C1831 1.376 . S
C1832 C1833 1.388 . S
C1833 H1820 0.930 . S
C1833 C1832 1.388 . S
C1833 C1834 1.390 . S
C1834 C1833 1.390 . S
C1834 C1835 1.394 . S
C1834 C1840 1.465 . S
C1835 C1830 1.399 . S
C1835 C1834 1.394 . S
C1835 C1836 1.516 . S
C1836 C1835 1.516 . S
C1836 C1837 1.502 . S
C1836 C1838 1.561 . S
C1836 C1839 1.526 . S
C1837 H1821 0.959 . S
C1837 H1822 0.959 . S
C1837 H1823 0.961 . S
C1837 C1836 1.502 . S
C1838 H1824 0.960 . S
C1838 H1825 0.961 . S
C1838 H1826 0.959 . S
C1838 C1836 1.561 . S
C1839 C1836 1.526 . S
C1839 C1840 1.396 . S
C1839 C1844 1.390 . S
C1840 C1834 1.465 . S
C1840 C1839 1.396 . S
C1840 C1841 1.399 . S
C1841 H1827 0.929 . S
C1841 C1840 1.399 . S
C1841 C1842 1.385 . S
C1842 H1828 0.931 . S
C1842 C1841 1.385 . S
C1842 C1843 1.389 . S
C1843 C1842 1.389 . S
C1843 C1844 1.387 . S
C1844 H1829 0.930 . S
C1844 C1839 1.390 . S
C1844 C1843 1.387 . S
H1845 C1857 0.930 1_556 S
H1846 C1859 0.930 . S
H1847 C1860 0.930 . S
H1848 C1864 0.959 . S
H1849 C1864 0.959 . S
H1850 C1864 0.961 . S
H1851 C1865 0.960 . S
H1852 C1865 0.961 . S
H1853 C1865 0.959 . S
H1854 C1868 0.929 . S
H1855 C1869 0.931 . S
H1856 C1871 0.930 . S
C1857 H1845 0.930 1_554 S
C1857 C1858 1.399 . S
C1857 C1862 1.399 . S
C1858 C1857 1.399 . S
C1858 C1859 1.376 . S
C1859 H1846 0.930 . S
C1859 C1858 1.376 . S
C1859 C1860 1.388 . S
C1860 H1847 0.930 . S
C1860 C1859 1.388 . S
C1860 C1861 1.390 . S
C1861 C1860 1.390 . S
C1861 C1862 1.394 . S
C1861 C1867 1.465 . S
C1862 C1857 1.399 . S
C1862 C1861 1.394 . S
C1862 C1863 1.516 . S
C1863 C1862 1.516 . S
C1863 C1864 1.502 . S
C1863 C1865 1.561 . S
C1863 C1866 1.526 . S
C1864 H1848 0.959 . S
C1864 H1849 0.959 . S
C1864 H1850 0.961 . S
C1864 C1863 1.502 . S
C1865 H1851 0.960 . S
C1865 H1852 0.961 . S
C1865 H1853 0.959 . S
C1865 C1863 1.561 . S
C1866 C1863 1.526 . S
C1866 C1867 1.396 . S
C1866 C1871 1.390 . S
C1867 C1861 1.465 . S
C1867 C1866 1.396 . S
C1867 C1868 1.399 . S
C1868 H1854 0.929 . S
C1868 C1867 1.399 . S
C1868 C1869 1.385 . S
C1869 H1855 0.931 . S
C1869 C1868 1.385 . S
C1869 C1870 1.389 . S
C1870 C1869 1.389 . S
C1870 C1871 1.387 . S
C1871 H1856 0.930 . S
C1871 C1866 1.390 . S
C1871 C1870 1.387 . S
H1872 C1884 0.930 . S
H1873 C1886 0.930 . S
H1874 C1887 0.930 . S
H1875 C1891 0.959 . S
H1876 C1891 0.959 . S
H1877 C1891 0.961 . S
H1878 C1892 0.960 . S
H1879 C1892 0.961 . S
H1880 C1892 0.959 . S
H1881 C1895 0.929 . S
H1882 C1896 0.931 . S
H1883 C1898 0.930 . S
C1884 H1872 0.930 . S
C1884 C1885 1.399 . S
C1884 C1889 1.399 . S
C1885 C1884 1.399 . S
C1885 C1886 1.376 . S
C1886 H1873 0.930 . S
C1886 C1885 1.376 . S
C1886 C1887 1.388 . S
C1887 H1874 0.930 . S
C1887 C1886 1.388 . S
C1887 C1888 1.390 . S
C1888 C1887 1.390 . S
C1888 C1889 1.394 . S
C1888 C1894 1.465 . S
C1889 C1884 1.399 . S
C1889 C1888 1.394 . S
C1889 C1890 1.516 . S
C1890 C1889 1.516 . S
C1890 C1891 1.502 . S
C1890 C1892 1.561 . S
C1890 C1893 1.526 . S
C1891 H1875 0.959 . S
C1891 H1876 0.959 . S
C1891 H1877 0.961 . S
C1891 C1890 1.502 . S
C1892 H1878 0.960 . S
C1892 H1879 0.961 . S
C1892 H1880 0.959 . S
C1892 C1890 1.561 . S
C1893 C1890 1.526 . S
C1893 C1894 1.396 . S
C1893 C1898 1.390 . S
C1894 C1888 1.465 . S
C1894 C1893 1.396 . S
C1894 C1895 1.399 . S
C1895 H1881 0.929 . S
C1895 C1894 1.399 . S
C1895 C1896 1.385 . S
C1896 H1882 0.931 . S
C1896 C1895 1.385 . S
C1896 C1897 1.389 . S
C1897 C1896 1.389 . S
C1897 C1898 1.387 . S
C1898 H1883 0.930 . S
C1898 C1893 1.390 . S
C1898 C1897 1.387 . S
H1899 C1911 0.930 . S
H1900 C1913 0.930 . S
H1901 C1914 0.930 . S
H1902 C1918 0.959 . S
H1903 C1918 0.959 . S
H1904 C1918 0.961 . S
H1905 C1919 0.960 . S
H1906 C1919 0.961 . S
H1907 C1919 0.959 . S
H1908 C1922 0.929 . S
H1909 C1923 0.931 . S
H1910 C1925 0.930 . S
C1911 H1899 0.930 . S
C1911 C1912 1.399 . S
C1911 C1916 1.399 . S
C1912 C1911 1.399 . S
C1912 C1913 1.376 . S
C1913 H1900 0.930 . S
C1913 C1912 1.376 . S
C1913 C1914 1.388 . S
C1914 H1901 0.930 . S
C1914 C1913 1.388 . S
C1914 C1915 1.390 . S
C1915 C1914 1.390 . S
C1915 C1916 1.394 . S
C1915 C1921 1.465 . S
C1916 C1911 1.399 . S
C1916 C1915 1.394 . S
C1916 C1917 1.516 . S
C1917 C1916 1.516 . S
C1917 C1918 1.502 . S
C1917 C1919 1.561 . S
C1917 C1920 1.526 . S
C1918 H1902 0.959 . S
C1918 H1903 0.959 . S
C1918 H1904 0.961 . S
C1918 C1917 1.502 . S
C1919 H1905 0.960 . S
C1919 H1906 0.961 . S
C1919 H1907 0.959 . S
C1919 C1917 1.561 . S
C1920 C1917 1.526 . S
C1920 C1921 1.396 . S
C1920 C1925 1.390 . S
C1921 C1915 1.465 . S
C1921 C1920 1.396 . S
C1921 C1922 1.399 . S
C1922 H1908 0.929 . S
C1922 C1921 1.399 . S
C1922 C1923 1.385 . S
C1923 H1909 0.931 . S
C1923 C1922 1.385 . S
C1923 C1924 1.389 . S
C1924 C1923 1.389 . S
C1924 C1925 1.387 . S
C1925 H1910 0.930 . S
C1925 C1920 1.390 . S
C1925 C1924 1.387 . S
H1926 C1938 0.930 . S
H1927 C1940 0.930 . S
H1928 C1941 0.930 . S
H1929 C1945 0.959 . S
H1930 C1945 0.959 . S
H1931 C1945 0.961 . S
H1932 C1946 0.960 . S
H1933 C1946 0.961 . S
H1934 C1946 0.959 . S
H1935 C1949 0.929 . S
H1936 C1950 0.931 . S
H1937 C1952 0.930 . S
C1938 H1926 0.930 . S
C1938 C1939 1.399 . S
C1938 C1943 1.399 . S
C1939 C1938 1.399 . S
C1939 C1940 1.376 . S
C1940 H1927 0.930 . S
C1940 C1939 1.376 . S
C1940 C1941 1.388 . S
C1941 H1928 0.930 . S
C1941 C1940 1.388 . S
C1941 C1942 1.390 . S
C1942 C1941 1.390 . S
C1942 C1943 1.394 . S
C1942 C1948 1.465 . S
C1943 C1938 1.399 . S
C1943 C1942 1.394 . S
C1943 C1944 1.516 . S
C1944 C1943 1.516 . S
C1944 C1945 1.502 . S
C1944 C1946 1.561 . S
C1944 C1947 1.526 . S
C1945 H1929 0.959 . S
C1945 H1930 0.959 . S
C1945 H1931 0.961 . S
C1945 C1944 1.502 . S
C1946 H1932 0.960 . S
C1946 H1933 0.961 . S
C1946 H1934 0.959 . S
C1946 C1944 1.561 . S
C1947 C1944 1.526 . S
C1947 C1948 1.396 . S
C1947 C1952 1.390 . S
C1948 C1942 1.465 . S
C1948 C1947 1.396 . S
C1948 C1949 1.399 . S
C1949 H1935 0.929 . S
C1949 C1948 1.399 . S
C1949 C1950 1.385 . S
C1950 H1936 0.931 . S
C1950 C1949 1.385 . S
C1950 C1951 1.389 . S
C1951 C1950 1.389 . S
C1951 C1952 1.387 . S
C1952 H1937 0.930 . S
C1952 C1947 1.390 . S
C1952 C1951 1.387 . S
H1953 C1965 0.930 . S
H1954 C1967 0.930 . S
H1955 C1968 0.930 . S
H1956 C1972 0.959 . S
H1957 C1972 0.959 . S
H1958 C1972 0.961 . S
H1959 C1973 0.960 . S
H1960 C1973 0.961 . S
H1961 C1973 0.959 . S
H1962 C1976 0.929 . S
H1963 C1977 0.931 . S
H1964 C1979 0.930 . S
C1965 H1953 0.930 . S
C1965 C1966 1.399 . S
C1965 C1970 1.399 . S
C1966 C1965 1.399 . S
C1966 C1967 1.376 . S
C1967 H1954 0.930 . S
C1967 C1966 1.376 . S
C1967 C1968 1.388 . S
C1968 H1955 0.930 . S
C1968 C1967 1.388 . S
C1968 C1969 1.390 . S
C1969 C1968 1.390 . S
C1969 C1970 1.394 . S
C1969 C1975 1.465 . S
C1970 C1965 1.399 . S
C1970 C1969 1.394 . S
C1970 C1971 1.516 . S
C1971 C1970 1.516 . S
C1971 C1972 1.502 . S
C1971 C1973 1.561 . S
C1971 C1974 1.526 . S
C1972 H1956 0.959 . S
C1972 H1957 0.959 . S
C1972 H1958 0.961 . S
C1972 C1971 1.502 . S
C1973 H1959 0.960 . S
C1973 H1960 0.961 . S
C1973 H1961 0.959 . S
C1973 C1971 1.561 . S
C1974 C1971 1.526 . S
C1974 C1975 1.396 . S
C1974 C1979 1.390 . S
C1975 C1969 1.465 . S
C1975 C1974 1.396 . S
C1975 C1976 1.399 . S
C1976 H1962 0.929 . S
C1976 C1975 1.399 . S
C1976 C1977 1.385 . S
C1977 H1963 0.931 . S
C1977 C1976 1.385 . S
C1977 C1978 1.389 . S
C1978 C1977 1.389 . S
C1978 C1979 1.387 . S
C1979 H1964 0.930 . S
C1979 C1974 1.390 . S
C1979 C1978 1.387 . S
H1980 C1992 0.930 . S
H1981 C1994 0.930 . S
H1982 C1995 0.930 . S
H1983 C1999 0.959 . S
H1984 C1999 0.959 1_554 S
H1985 C1999 0.961 . S
H1986 C2000 0.960 . S
H1987 C2000 0.961 . S
H1988 C2000 0.959 . S
H1989 C2003 0.929 . S
H1990 C2004 0.931 . S
H1991 C2006 0.930 . S
C1992 H1980 0.930 . S
C1992 C1993 1.399 . S
C1992 C1997 1.399 . S
C1993 C1992 1.399 . S
C1993 C1994 1.376 . S
C1994 H1981 0.930 . S
C1994 C1993 1.376 . S
C1994 C1995 1.388 . S
C1995 H1982 0.930 . S
C1995 C1994 1.388 . S
C1995 C1996 1.390 . S
C1996 C1995 1.390 . S
C1996 C1997 1.394 . S
C1996 C2002 1.465 . S
C1997 C1992 1.399 . S
C1997 C1996 1.394 . S
C1997 C1998 1.516 . S
C1998 C1997 1.516 . S
C1998 C1999 1.502 . S
C1998 C2000 1.561 . S
C1998 C2001 1.526 . S
C1999 H1983 0.959 . S
C1999 H1984 0.959 1_556 S
C1999 H1985 0.961 . S
C1999 C1998 1.502 . S
C2000 H1986 0.960 . S
C2000 H1987 0.961 . S
C2000 H1988 0.959 . S
C2000 C1998 1.561 . S
C2001 C1998 1.526 . S
C2001 C2002 1.396 . S
C2001 C2006 1.390 . S
C2002 C1996 1.465 . S
C2002 C2001 1.396 . S
C2002 C2003 1.399 . S
C2003 H1989 0.929 . S
C2003 C2002 1.399 . S
C2003 C2004 1.385 . S
C2004 H1990 0.931 . S
C2004 C2003 1.385 . S
C2004 C2005 1.389 . S
C2005 C2004 1.389 . S
C2005 C2006 1.387 . S
C2006 H1991 0.930 . S
C2006 C2001 1.390 . S
C2006 C2005 1.387 . S
H2007 C2019 0.930 . S
H2008 C2021 0.930 . S
H2009 C2022 0.930 . S
H2010 C2026 0.959 . S
H2011 C2026 0.959 . S
H2012 C2026 0.961 . S
H2013 C2027 0.960 . S
H2014 C2027 0.961 . S
H2015 C2027 0.959 . S
H2016 C2030 0.929 . S
H2017 C2031 0.931 . S
H2018 C2033 0.930 . S
C2019 H2007 0.930 . S
C2019 C2020 1.399 . S
C2019 C2024 1.399 . S
C2020 C2019 1.399 . S
C2020 C2021 1.376 . S
C2021 H2008 0.930 . S
C2021 C2020 1.376 . S
C2021 C2022 1.388 . S
C2022 H2009 0.930 . S
C2022 C2021 1.388 . S
C2022 C2023 1.390 . S
C2023 C2022 1.390 . S
C2023 C2024 1.394 . S
C2023 C2029 1.465 . S
C2024 C2019 1.399 . S
C2024 C2023 1.394 . S
C2024 C2025 1.516 . S
C2025 C2024 1.516 . S
C2025 C2026 1.502 . S
C2025 C2027 1.561 . S
C2025 C2028 1.526 . S
C2026 H2010 0.959 . S
C2026 H2011 0.959 . S
C2026 H2012 0.961 . S
C2026 C2025 1.502 . S
C2027 H2013 0.960 . S
C2027 H2014 0.961 . S
C2027 H2015 0.959 . S
C2027 C2025 1.561 . S
C2028 C2025 1.526 . S
C2028 C2029 1.396 . S
C2028 C2033 1.390 . S
C2029 C2023 1.465 . S
C2029 C2028 1.396 . S
C2029 C2030 1.399 . S
C2030 H2016 0.929 . S
C2030 C2029 1.399 . S
C2030 C2031 1.385 . S
C2031 H2017 0.931 . S
C2031 C2030 1.385 . S
C2031 C2032 1.389 . S
C2032 C2031 1.389 . S
C2032 C2033 1.387 . S
C2033 H2018 0.930 . S
C2033 C2028 1.390 . S
C2033 C2032 1.387 . S
H2034 C2046 0.930 . S
H2035 C2048 0.930 . S
H2036 C2049 0.930 . S
H2037 C2053 0.959 . S
H2038 C2053 0.959 . S
H2039 C2053 0.961 . S
H2040 C2054 0.960 . S
H2041 C2054 0.961 . S
H2042 C2054 0.959 . S
H2043 C2057 0.929 . S
H2044 C2058 0.931 . S
H2045 C2060 0.930 . S
C2046 H2034 0.930 . S
C2046 C2047 1.399 . S
C2046 C2051 1.399 . S
C2047 C2046 1.399 . S
C2047 C2048 1.376 . S
C2048 H2035 0.930 . S
C2048 C2047 1.376 . S
C2048 C2049 1.388 . S
C2049 H2036 0.930 . S
C2049 C2048 1.388 . S
C2049 C2050 1.390 . S
C2050 C2049 1.390 . S
C2050 C2051 1.394 . S
C2050 C2056 1.465 . S
C2051 C2046 1.399 . S
C2051 C2050 1.394 . S
C2051 C2052 1.516 . S
C2052 C2051 1.516 . S
C2052 C2053 1.502 . S
C2052 C2054 1.561 . S
C2052 C2055 1.526 . S
C2053 H2037 0.959 . S
C2053 H2038 0.959 . S
C2053 H2039 0.961 . S
C2053 C2052 1.502 . S
C2054 H2040 0.960 . S
C2054 H2041 0.961 . S
C2054 H2042 0.959 . S
C2054 C2052 1.561 . S
C2055 C2052 1.526 . S
C2055 C2056 1.396 . S
C2055 C2060 1.390 . S
C2056 C2050 1.465 . S
C2056 C2055 1.396 . S
C2056 C2057 1.399 . S
C2057 H2043 0.929 . S
C2057 C2056 1.399 . S
C2057 C2058 1.385 . S
C2058 H2044 0.931 . S
C2058 C2057 1.385 . S
C2058 C2059 1.389 . S
C2059 C2058 1.389 . S
C2059 C2060 1.387 . S
C2060 H2045 0.930 . S
C2060 C2055 1.390 . S
C2060 C2059 1.387 . S
H2061 C2073 0.930 . S
H2062 C2075 0.930 . S
H2063 C2076 0.930 . S
H2064 C2080 0.959 . S
H2065 C2080 0.959 . S
H2066 C2080 0.961 . S
H2067 C2081 0.960 . S
H2068 C2081 0.961 1_565 S
H2069 C2081 0.974 . S
H2070 C2084 0.936 . S
H2071 C2085 0.931 . S
H2072 C2087 0.930 . S
C2073 H2061 0.930 . S
C2073 C2074 1.399 . S
C2073 C2078 1.399 . S
C2074 C2073 1.399 . S
C2074 C2075 1.376 . S
C2075 H2062 0.930 . S
C2075 C2074 1.376 . S
C2075 C2076 1.388 . S
C2076 H2063 0.930 . S
C2076 C2075 1.388 . S
C2076 C2077 1.390 . S
C2077 C2076 1.390 . S
C2077 C2078 1.394 . S
C2077 C2083 1.465 . S
C2078 C2073 1.399 . S
C2078 C2077 1.394 . S
C2078 C2079 1.516 . S
C2079 C2078 1.516 . S
C2079 C2080 1.502 . S
C2079 C2081 1.561 . S
C2079 C2082 1.526 . S
C2080 H2064 0.959 . S
C2080 H2065 0.959 . S
C2080 H2066 0.961 . S
C2080 C2079 1.502 . S
C2081 H2067 0.960 . S
C2081 H2068 0.961 1_545 S
C2081 H2069 0.974 . S
C2081 C2079 1.561 . S
C2082 C2079 1.526 . S
C2082 C2083 1.396 . S
C2082 C2087 1.390 1_545 S
C2083 C2077 1.465 . S
C2083 C2082 1.396 . S
C2083 C2084 1.406 . S
C2084 H2070 0.936 . S
C2084 C2083 1.406 . S
C2084 C2085 1.372 1_545 S
C2085 H2071 0.931 . S
C2085 C2084 1.372 1_565 S
C2085 C2086 1.389 . S
C2086 C2085 1.389 . S
C2086 C2087 1.387 . S
C2087 H2072 0.930 . S
C2087 C2082 1.390 1_565 S
C2087 C2086 1.387 . S
C817 C632 1.618 1_556 S
C805 C211 1.610 . S
C844 C647 1.702 . S
C832 C255 1.773 . S
C859 C274 1.715 . S
C871 C660 1.716 . S
C898 C674 1.547 . S
C886 C157 1.616 . S
C925 C686 1.614 . S
C913 C391 1.715 . S
C952 C700 1.373 . S
C940 C484 1.329 . S
C967 C450 1.755 . S
C979 C714 1.729 . S
C1006 C729 1.531 . S
C994 C352 1.501 . S
C1021 C430 1.658 . S
C1033 C745 1.651 . S
C1060 C758 1.597 . S
C1048 C367 1.545 . S
C1075 C411 1.609 . S
C1087 C743 1.547 . S
C1114 C756 1.582 . S
C1102 C469 1.511 . S
C1129 C294 1.832 . S
C1141 C772 1.815 . S
C1156 C177 1.580 . S
C1168 C771 1.631 . S
C1183 C196 1.740 . S
C1195 C770 1.666 . S
C1210 C235 1.640 . S
C1222 C773 1.650 . S
C1237 C133 1.689 . S
C1249 C675 1.674 . S
C1264 C567 1.497 . S
C1276 C673 1.490 . S
C1303 C633 1.585 . S
C1291 C601 1.553 . S
C1330 C644 1.726 . S
C1318 C328 1.774 . S
C1345 C172 1.661 . S
C1357 C689 1.617 . S
C1384 C730 1.887 . S
C1372 C445 1.891 . S
C1411 C687 1.600 . S
C1399 C372 1.599 . S
C1438 C715 1.531 . S
C1426 C489 1.490 . S
C1465 C716 1.607 . S
C1453 C562 1.620 . S
C1480 C606 1.789 . S
C1492 C731 1.696 . S
C1507 C313 1.698 . S
C1519 C688 1.698 . S
C1546 C702 1.551 . S
C1534 C508 1.642 . S
C1561 C118 1.709 . S
C1573 C658 1.632 . S
C1600 C672 1.402 . S
C1588 C16 1.404 . S
C1627 C630 1.726 . S
C1615 C60 1.765 . S
C1654 C645 1.501 . S
C1642 C79 1.491 . S
C1669 C40 1.670 . S
C1681 C759 1.658 . S
C1696 C94 1.539 . S
C1708 C744 1.589 . S
C1723 C138 1.606 . S
C1735 C757 1.593 . S
C1750 C1 1.556 . S
C1762 C742 1.561 . S
C1789 C786 1.840 . S
C1777 C333 1.834 . S
C1816 C785 1.630 . S
C1804 C528 1.580 . S
C1843 C784 1.707 . S
C1831 C547 1.741 . S
C1858 C586 1.632 1_554 S
C1870 C787 1.654 . S
C1885 C406 1.688 . S
C1897 C703 1.700 . S
C1924 C701 1.446 . S
C1912 C216 1.499 . S
C1951 C717 1.582 . S
C1939 C250 1.574 . S
C1978 C728 1.726 . S
C1966 C289 1.770 . S
C1993 C523 1.660 . S
C2005 C661 1.621 . S
C2032 C646 1.874 . S
C2020 C55 1.885 . S
C2047 C99 1.597 . S
C2059 C659 1.564 . S
C2086 C631 1.526 . S
C2074 C21 1.494 . S
