# Generated by pormake.
# Topology tsx, (6,3)-cn, num edge types: 1
# Building blocks:
#     Node 0, Type 0, BuildingBlock: VOLQOD_clean_sbu_1, # of connection points: 6
#     Node 1, Type 0, BuildingBlock: VOLQOD_clean_sbu_1, # of connection points: 6
#     Node 2, Type 1, BuildingBlock: QEWDON_clean_linker_0, # of connection points: 3
#     Node 3, Type 1, BuildingBlock: QEWDON_clean_linker_0, # of connection points: 3
#     Node 4, Type 1, BuildingBlock: QEWDON_clean_linker_0, # of connection points: 3
#     Node 5, Type 1, BuildingBlock: QEWDON_clean_linker_0, # of connection points: 3
#     Edge 6, Type (0, 1), BuildingBlock: KIFKEQ_clean_linker_1, # of connection points: 2
#     Edge 7, Type (0, 1), BuildingBlock: KIFKEQ_clean_linker_1, # of connection points: 2
#     Edge 8, Type (0, 1), BuildingBlock: KIFKEQ_clean_linker_1, # of connection points: 2
#     Edge 9, Type (0, 1), BuildingBlock: KIFKEQ_clean_linker_1, # of connection points: 2
#     Edge 10, Type (0, 1), BuildingBlock: KIFKEQ_clean_linker_1, # of connection points: 2
#     Edge 11, Type (0, 1), BuildingBlock: KIFKEQ_clean_linker_1, # of connection points: 2
#     Edge 12, Type (0, 1), BuildingBlock: KIFKEQ_clean_linker_1, # of connection points: 2
#     Edge 13, Type (0, 1), BuildingBlock: KIFKEQ_clean_linker_1, # of connection points: 2
#     Edge 14, Type (0, 1), BuildingBlock: KIFKEQ_clean_linker_1, # of connection points: 2
#     Edge 15, Type (0, 1), BuildingBlock: KIFKEQ_clean_linker_1, # of connection points: 2
#     Edge 16, Type (0, 1), BuildingBlock: KIFKEQ_clean_linker_1, # of connection points: 2
#     Edge 17, Type (0, 1), BuildingBlock: KIFKEQ_clean_linker_1, # of connection points: 2
# Relax obj value: 0.078
# Max RMSD: 0.177
# Mean RMSD: 0.149
data_MOF--net-tsx--node1-VOLQOD_clean_sbu_1--node2-QEWDON_clean_linker_0--edge1-KIFKEQ_clean_linker_1
_symmetry_space_group_name_H-M    P1
_symmetry_Int_Tables_number       1
_symmetry_cell_setting            triclinic
loop_
_symmetry_equiv_pos_as_xyz
'x, y, z'
_cell_length_a     22.376934
_cell_length_b     23.068906
_cell_length_c     38.247465
_cell_angle_alpha  90.206385
_cell_angle_beta   99.077085
_cell_angle_gamma 90.013602
loop_
_atom_site_label
_atom_site_type_symbol
_atom_site_fract_x
_atom_site_fract_y
_atom_site_fract_z
_atom_type_partial_charge
O0 O 0.08798 1.00586 0.07791 0.0
Zn1 Zn 0.09994 0.01037 0.02652 0.0
O2 O 0.02244 0.01424 -0.00447 0.0
Zn3 Zn 0.00398 0.94151 0.96976 0.0
Zn4 Zn 0.96048 0.02849 0.02446 0.0
Zn5 Zn 0.02448 0.07734 0.96204 0.0
O6 O 0.99378 0.95511 0.91709 0.0
O7 O 0.02534 0.04582 0.91285 0.0
O8 O 0.14601 0.94032 0.01361 0.0
O9 O 0.0761 0.8887 0.97903 0.0
O10 O 0.92997 0.90046 0.98311 0.0
O11 O 0.90721 0.95907 0.02525 0.0
O12 O 0.90608 0.09335 0.00466 0.0
O13 O 0.1494 0.08308 0.02173 0.0
O14 O 0.9494 0.12585 0.96007 0.0
O15 O 0.09686 0.12971 0.97631 0.0
C16 C 0.04532 0.02581 0.09299 0.0
C17 C 0.00855 0.99718 0.89866 0.0
C18 C 0.8983 0.9127 0.00711 0.0
C19 C 0.12997 0.895 -0.00472 0.0
C20 C 0.90688 0.12736 0.97862 0.0
C21 C 0.14251 0.12635 0.00079 0.0
O22 O 0.99579 0.04326 0.07512 0.0
O23 O 0.54724 0.48675 0.57323 0.0
Zn24 Zn 0.56769 0.49377 0.52409 0.0
O25 O 0.49579 0.50613 0.48906 0.0
Zn26 Zn 0.48236 0.4367 0.4589 0.0
Zn27 Zn 0.42695 0.5191 0.51328 0.0
Zn28 Zn 0.50639 0.57461 0.46101 0.0
O29 O 0.46787 0.46012 0.40736 0.0
O30 O 0.4987 0.55202 0.40971 0.0
O31 O 0.61484 0.42424 0.51195 0.0
O32 O 0.5586 0.3874 0.46406 0.0
O33 O 0.41192 0.38854 0.47168 0.0
O34 O 0.37088 0.45192 0.50483 0.0
O35 O 0.38273 0.59448 0.49934 0.0
O36 O 0.62471 0.5605 0.52435 0.0
O37 O 0.44215 0.63534 0.46515 0.0
O38 O 0.58799 0.61196 0.47685 0.0
C39 C 0.4997 0.50025 0.58584 0.0
C40 C 0.48064 0.50658 0.39207 0.0
C41 C 0.37118 0.40237 0.49013 0.0
C42 C 0.60697 0.38752 0.4867 0.0
C43 C 0.39566 0.63693 0.4806 0.0
C44 C 0.62885 0.60253 0.50342 0.0
O45 O 0.45191 0.51726 0.566 0.0
H46 H 0.03571 0.10544 0.36306 0.0
C47 C 0.06017 0.07007 0.37744 0.0
C48 C 0.07771 0.02196 0.35893 0.0
C49 C 0.07764 0.0754 0.41411 0.0
H50 H 0.12335 0.93932 0.36436 0.0
C51 C 0.10856 0.97639 0.37823 0.0
C52 C 0.1249 0.9799 0.41521 0.0
C53 C 0.11089 0.03053 0.43304 0.0
C54 C 0.06943 0.13254 0.43025 0.0
H55 H 0.12605 0.0352 0.46125 0.0
C56 C 0.01138 0.15239 0.43442 0.0
C57 C 1.0015 0.21146 0.44203 0.0
C58 C 0.11807 0.17145 0.43443 0.0
H59 H 0.16269 0.15728 0.43047 0.0
C60 C 0.10882 0.22972 0.44147 0.0
H61 H 0.97435 0.12167 0.43128 0.0
C62 C 0.05126 0.24973 0.44491 0.0
H63 H 0.04606 0.29568 0.4492 0.0
H64 H 0.14622 0.25991 0.4435 0.0
H65 H 0.02533 0.03298 0.62919 0.0
C66 C 0.00849 0.99348 0.61564 0.0
C67 C 0.99672 0.94452 0.63531 0.0
C68 C 0.99177 0.99408 0.57873 0.0
H69 H 0.95992 0.85777 0.63219 0.0
C70 C 0.97063 0.89516 0.61725 0.0
C71 C 0.95322 0.89563 0.58035 0.0
C72 C 0.96504 0.9449 0.56125 0.0
C73 C 0.98935 0.04945 0.5595 0.0
H74 H 0.95004 0.94641 0.53287 0.0
C75 C 0.04196 0.08167 0.55714 0.0
C76 C 0.03735 0.13623 0.54049 0.0
C77 C 0.93245 0.0714 0.54475 0.0
H78 H 0.89149 0.04722 0.54647 0.0
C79 C 0.9277 0.12553 0.52875 0.0
H80 H 0.08583 0.0647 0.56858 0.0
C81 C 0.97958 0.15791 0.52711 0.0
H82 H 0.97449 0.20008 0.51525 0.0
H83 H 0.88368 0.14277 0.51794 0.0
H84 H 0.47475 0.53575 0.85794 0.0
C85 C 0.4972 0.49715 0.86961 0.0
C86 C 0.51098 0.45194 0.84756 0.0
C87 C 0.51807 0.4956 0.9061 0.0
H88 H 0.55762 0.37049 0.84538 0.0
C89 C 0.54362 0.4037 0.86253 0.0
C90 C 0.56505 0.40207 0.89903 0.0
C91 C 0.55075 0.44741 0.92072 0.0
C92 C 0.51741 0.54903 0.92727 0.0
H93 H 0.56887 0.44718 0.94876 0.0
C94 C 0.46369 0.58057 0.92757 0.0
C95 C 0.46565 0.63491 0.94443 0.0
C96 C 0.57264 0.57143 0.94474 0.0
H97 H 0.61465 0.5482 0.94447 0.0
C98 C 0.57464 0.62532 0.96124 0.0
H99 H 0.42102 0.56348 0.91412 0.0
C100 C 0.5217 0.65711 0.96053 0.0
H101 H 0.52428 0.69916 0.97272 0.0
H102 H 0.61738 0.64296 0.9741 0.0
H103 H 0.48693 0.60227 0.12338 0.0
C104 C 0.46662 0.56526 0.10842 0.0
C105 C 0.45492 0.51449 0.12621 0.0
C106 C 0.44853 0.57041 0.07181 0.0
H107 H 0.41833 0.42803 0.12016 0.0
C108 C 0.42865 0.46701 0.10651 0.0
C109 C 0.41069 0.47095 0.06968 0.0
C110 C 0.41951 0.52348 0.05244 0.0
C111 C 0.45257 0.62816 0.05581 0.0
H112 H 0.40362 0.52799 0.02431 0.0
C113 C 0.50921 0.65335 0.05363 0.0
C114 C 0.51356 0.71223 0.04419 0.0
C115 C 0.40009 0.66182 0.0484 0.0
H116 H 0.35631 0.6436 0.05085 0.0
C117 C 0.40402 0.72015 0.03975 0.0
H118 H 0.54949 0.62685 0.05931 0.0
C119 C 0.46003 0.74527 0.0376 0.0
H120 H 0.46126 0.7909 0.03128 0.0
H121 H 0.36347 0.74628 0.03531 0.0
H122 H 0.23665 0.14165 0.05512 0.0
H123 H 0.1486 0.22176 0.95866 0.0
H124 H 0.30443 0.22414 0.06628 0.0
H125 H 0.21799 0.30381 0.96924 0.0
H126 H 0.29979 0.47081 0.02764 0.0
H127 H 0.23812 0.3862 0.00709 0.0
H128 H 0.38684 0.27388 0.04879 0.0
H129 H 0.44717 0.35847 0.07031 0.0
C130 C 0.23228 0.17646 0.03596 0.0
C131 C 0.18686 0.17494 0.00605 0.0
C132 C 0.27159 0.22383 0.04224 0.0
C133 C 0.26705 0.27094 0.01864 0.0
C134 C 0.22245 0.26883 0.98827 0.0
C135 C 0.18281 0.22151 0.98209 0.0
C136 C 0.31957 0.42801 0.03162 0.0
C137 C 0.37804 0.42111 0.05074 0.0
C138 C 0.28427 0.37939 0.01988 0.0
C139 C 0.30697 0.32286 0.02678 0.0
C140 C 0.3671 0.31649 0.04383 0.0
C141 C 0.40199 0.36495 0.05586 0.0
H142 H 0.25246 0.90264 0.01486 0.0
H143 H 0.11223 0.78939 0.96211 0.0
H144 H 0.32909 0.83711 -0.00085 0.0
H145 H 0.18945 0.72372 0.94634 0.0
H146 H 0.44872 0.75018 0.93172 0.0
H147 H 0.36443 0.80977 0.94355 0.0
H148 H 0.27278 0.65697 0.97307 0.0
H149 H 0.35785 0.59703 0.96134 0.0
C150 C 0.2379 0.86347 0.00027 0.0
C151 C 0.17616 0.85151 0.98959 0.0
C152 C 0.28187 0.82616 -0.00905 0.0
C153 C 0.26522 0.77572 0.97104 0.0
C154 C 0.20357 0.7623 0.96167 0.0
C155 C 0.15944 0.79998 0.9707 0.0
C156 C 0.41034 0.72921 0.94043 0.0
C157 C 0.4101 0.66907 0.946 0.0
C158 C 0.36218 0.76334 0.94729 0.0
C159 C 0.31251 0.73814 0.95979 0.0
C160 C 0.31039 0.67752 0.96329 0.0
C161 C 0.35893 0.64323 0.95651 0.0
H162 H 0.82668 0.84313 0.95963 0.0
H163 H 0.85651 0.89657 0.06934 0.0
H164 H 0.73568 0.79011 0.96949 0.0
H165 H 0.76672 0.8425 0.07926 0.0
H166 H 0.62634 0.6908 0.08309 0.0
H167 H 0.72365 0.73212 0.07437 0.0
H168 H 0.63356 0.83555 0.98821 0.0
H169 H 0.53662 0.79557 -0.0032 0.0
C170 C 0.81455 0.8425 0.98595 0.0
C171 C 0.84838 0.87422 0.01365 0.0
C172 C 0.76248 0.81246 -0.00846 0.0
C173 C 0.74435 0.81246 0.02512 0.0
C174 C 0.77996 0.84162 0.05321 0.0
C175 C 0.83109 0.87271 0.04745 0.0
C176 C 0.62711 0.72198 0.06209 0.0
C177 C 0.57316 0.73901 0.0404 0.0
C178 C 0.68287 0.74574 0.05725 0.0
C179 C 0.68598 0.78619 0.03024 0.0
C180 C 0.63242 0.80372 0.00886 0.0
C181 C 0.57672 0.78119 0.01421 0.0
H182 H 0.90577 0.22587 0.93938 0.0
H183 H 0.79272 0.1192 -0.00509 0.0
H184 H 0.82043 0.29093 0.92137 0.0
H185 H 0.70718 0.18412 0.97633 0.0
H186 H 0.56172 0.28366 0.89259 0.0
H187 H 0.64409 0.21549 0.91349 0.0
H188 H 0.75677 0.35843 0.95702 0.0
H189 H 0.67506 0.426 0.93658 0.0
C190 C 0.86276 0.21636 0.94773 0.0
C191 C 0.85595 0.16767 0.96867 0.0
C192 C 0.8141 0.25357 0.93749 0.0
C193 C 0.75752 0.24222 0.94749 0.0
C194 C 0.7504 0.19341 0.96818 0.0
C195 C 0.7994 0.15669 0.97899 0.0
C196 C 0.60395 0.30011 0.90696 0.0
C197 C 0.61203 0.35977 0.91333 0.0
C198 C 0.65076 0.26135 0.91893 0.0
C199 C 0.70651 0.28206 0.9367 0.0
C200 C 0.71425 0.34161 0.94324 0.0
C201 C 0.66738 0.38006 0.93183 0.0
H202 H 0.71456 0.60552 0.56262 0.0
H203 H 0.66354 0.68743 0.4608 0.0
H204 H 0.79845 0.67262 0.57652 0.0
H205 H 0.74919 0.75359 0.47428 0.0
H206 H 0.848 0.90876 0.53484 0.0
H207 H 0.77501 0.83453 0.51244 0.0
H208 H 0.89482 0.70286 0.56413 0.0
H209 H 0.96767 0.77803 0.58732 0.0
C210 C 0.72173 0.63737 0.54295 0.0
C211 C 0.68193 0.64148 0.51072 0.0
C212 C 0.77033 0.67558 0.55082 0.0
C213 C 0.78069 0.71857 0.52654 0.0
C214 C 0.74199 0.72153 0.4938 0.0
C215 C 0.69297 0.68354 0.48603 0.0
C216 C 0.85949 0.86384 0.54071 0.0
C217 C 0.91358 0.84912 0.56281 0.0
C218 C 0.81757 0.82117 0.52781 0.0
C219 C 0.82882 0.76267 0.53659 0.0
C220 C 0.88427 0.74765 0.55738 0.0
C221 C 0.92611 0.79052 0.57053 0.0
H222 H 0.70595 0.35967 0.53501 0.0
H223 H 0.62516 0.33035 0.42618 0.0
H224 H 0.79777 0.31119 0.52411 0.0
H225 H 0.7181 0.28336 0.41491 0.0
H226 H 0.88732 0.17032 0.4131 0.0
H227 H 0.78936 0.20345 0.42541 0.0
H228 H 0.87791 0.33809 0.49334 0.0
H229 H 0.9751 0.30328 0.48333 0.0
C230 C 0.70755 0.34236 0.5088 0.0
C231 C 0.65835 0.34945 0.4814 0.0
C232 C 0.76047 0.31495 0.50245 0.0
C233 C 0.76601 0.29449 0.46839 0.0
C234 C 0.71549 0.29845 0.44146 0.0
C235 C 0.66215 0.32548 0.44793 0.0
C236 C 0.8863 0.20645 0.43109 0.0
C237 C 0.94027 0.23356 0.44719 0.0
C238 C 0.82975 0.22589 0.43782 0.0
C239 C 0.82557 0.27305 0.46073 0.0
C240 C 0.87918 0.30091 0.4761 0.0
C241 C 0.93539 0.28159 0.4695 0.0
H242 H 0.33504 0.29976 0.45533 0.0
H243 H 0.30735 0.40626 0.54458 0.0
H244 H 0.25882 0.23116 0.46998 0.0
H245 H 0.23418 0.33777 0.55975 0.0
H246 H 0.05158 0.25289 0.54948 0.0
H247 H 0.13405 0.31275 0.53683 0.0
H248 H 0.23114 0.15992 0.51196 0.0
H249 H 0.14564 0.09956 0.52255 0.0
C250 C 0.31298 0.3084 0.47806 0.0
C251 C 0.32626 0.35918 0.49823 0.0
C252 C 0.26977 0.26892 0.48667 0.0
C253 C 0.23958 0.27941 0.51575 0.0
C254 C 0.25501 0.32903 0.53657 0.0
C255 C 0.29721 0.36846 0.5278 0.0
C256 C 0.0903 0.23181 0.54121 0.0
C257 C 0.09172 0.17138 0.53681 0.0
C258 C 0.13821 0.2662 0.5344 0.0
C259 C 0.1897 0.24125 0.52363 0.0
C260 C 0.19206 0.18058 0.52006 0.0
C261 C 0.14347 0.14595 0.52658 0.0
H262 H 0.28148 0.64888 0.49751 0.0
H263 H 0.41964 0.74321 0.45424 0.0
H264 H 0.21494 0.73336 0.48827 0.0
H265 H 0.35317 0.82743 0.44516 0.0
H266 H 0.23601 0.98521 0.45703 0.0
H267 H 0.302 0.90329 0.47792 0.0
H268 H 0.16061 0.78399 0.43452 0.0
H269 H 0.09524 0.86563 0.41366 0.0
C270 C 0.29789 0.68769 0.48628 0.0
C271 C 0.35588 0.68899 0.47642 0.0
C272 C 0.25966 0.73606 0.48092 0.0
C273 C 0.27878 0.78719 0.46605 0.0
C274 C 0.33731 0.789 0.45707 0.0
C275 C 0.37522 0.74045 0.46199 0.0
C276 C 0.21871 0.94145 0.45281 0.0
C277 C 0.16058 0.93166 0.43378 0.0
C278 C 0.2566 0.89459 0.46441 0.0
C279 C 0.23669 0.8371 0.45765 0.0
C280 C 0.17723 0.82762 0.44039 0.0
C281 C 0.13981 0.87433 0.42838 0.0
H282 H 0.98463 0.09385 0.13392 0.0
H283 H 0.11958 0.95869 0.14012 0.0
H284 H 0.99108 0.09202 0.19825 0.0
H285 H 0.1251 0.95639 0.20461 0.0
H286 H 0.05196 0.92995 0.31275 0.0
H287 H 0.04638 0.9307 0.24835 0.0
H288 H 0.07818 0.11519 0.25133 0.0
H289 H 0.08704 0.11456 0.31547 0.0
C290 C 0.01571 0.06382 0.14903 0.0
C291 C 0.05174 0.02652 0.13202 0.0
C292 C 0.01939 0.06287 0.18578 0.0
C293 C 0.05832 0.02387 0.20618 0.0
C294 C 0.09438 0.9865 0.18931 0.0
C295 C 0.09158 0.98821 0.15253 0.0
C296 C 0.05827 0.97063 0.29978 0.0
C297 C 0.06957 0.02223 0.3195 0.0
C298 C 0.05494 0.97097 0.26294 0.0
C299 C 0.06181 0.02301 0.24508 0.0
C300 C 0.07209 0.07462 0.26454 0.0
C301 C 0.07653 0.07419 0.30131 0.0
H302 H 0.04051 0.07497 0.85078 0.0
H303 H 0.97659 0.89948 0.85938 0.0
H304 H 0.04106 0.05989 0.78768 0.0
H305 H 0.97817 0.88432 0.79654 0.0
H306 H 0.91668 0.90619 0.67702 0.0
H307 H 0.92192 0.91762 0.74052 0.0
H308 H 0.09397 1.00497 0.74629 0.0
H309 H 0.08896 0.99314 0.68227 0.0
C310 C 0.02666 0.03317 0.83928 0.0
C311 C 0.00817 0.98855 0.86018 0.0
C312 C 0.02751 0.0244 0.80316 0.0
C313 C 0.00974 0.97089 0.78711 0.0
C314 C 0.99148 0.92627 0.80802 0.0
C315 C 0.99071 0.93496 0.8441 0.0
C316 C 0.95641 0.92665 0.69183 0.0
C317 C 0.0028 0.94815 0.67455 0.0
C318 C 0.95924 0.93342 0.7283 0.0
C319 C 0.00838 0.96211 0.74849 0.0
C320 C 0.05516 0.98322 0.73137 0.0
C321 C 0.0524 0.9763 0.69477 0.0
H322 H 0.59625 0.5026 0.63916 0.0
H323 H 0.40172 0.4831 0.61885 0.0
H324 H 0.59494 0.49127 0.70262 0.0
H325 H 0.40088 0.47062 0.68232 0.0
H326 H 0.45651 0.37891 0.79548 0.0
H327 H 0.45097 0.39116 0.73117 0.0
H328 H 0.54416 0.55501 0.74896 0.0
H329 H 0.54882 0.54337 0.81277 0.0
C330 C 0.55333 0.49577 0.64825 0.0
C331 C 0.49908 0.49405 0.62415 0.0
C332 C 0.5526 0.48943 0.68446 0.0
C333 C 0.49779 0.48007 0.69709 0.0
C334 C 0.44363 0.47757 0.67305 0.0
C335 C 0.44418 0.48511 0.63688 0.0
C336 C 0.47495 0.41777 0.78545 0.0
C337 C 0.50245 0.46049 0.80885 0.0
C338 C 0.47177 0.42479 0.74887 0.0
C339 C 0.49738 0.47391 0.73541 0.0
C340 C 0.52436 0.51671 0.75883 0.0
C341 C 0.5265 0.51026 0.7952 0.0
H342 H 0.50859 0.59617 0.35104 0.0
H343 H 0.44518 0.41875 0.34471 0.0
H344 H 0.50628 0.59707 0.28734 0.0
H345 H 0.44164 0.42027 0.28062 0.0
H346 H 0.50116 0.42697 0.17098 0.0
H347 H 0.50827 0.42431 0.23546 0.0
H348 H 0.43222 0.5966 0.23406 0.0
H349 H 0.42533 0.59927 0.17008 0.0
C350 C 0.49371 0.55743 0.33607 0.0
C351 C 0.47687 0.50742 0.35305 0.0
C352 C 0.49223 0.55805 0.29948 0.0
C353 C 0.47372 0.50877 0.2789 0.0
C354 C 0.45686 0.4587 0.2958 0.0
C355 C 0.45839 0.45802 0.3325 0.0
C356 C 0.48619 0.46425 0.18455 0.0
C357 C 0.46328 0.51353 0.16548 0.0
C358 C 0.49001 0.46267 0.22141 0.0
C359 C 0.47089 0.51029 0.23987 0.0
C360 C 0.44838 0.55961 0.22074 0.0
C361 C 0.44462 0.56121 0.18404 0.0
loop_
_geom_bond_atom_site_label_1
_geom_bond_atom_site_label_2
_geom_bond_distance
_geom_bond_site_symmetry_2
_ccdc_geom_bond_type
O0 Zn1 1.953 . S
O0 C16 1.225 1_565 S
Zn1 O0 1.953 . S
Zn1 O2 1.949 1_565 S
Zn1 O8 1.919 . S
Zn1 O13 1.924 1_565 S
O2 Zn1 1.949 1_545 S
O2 Zn3 1.923 1_444 S
O2 Zn4 1.950 1_455 S
O2 Zn5 1.945 1_554 S
Zn3 O2 1.923 1_666 S
Zn3 O6 1.933 . S
Zn3 O9 1.941 1_655 S
Zn3 O10 1.965 . S
Zn4 O2 1.950 1_655 S
Zn4 O11 1.938 1_545 S
Zn4 O12 1.906 . S
Zn4 O22 1.953 . S
Zn5 O2 1.945 1_556 S
Zn5 O7 1.932 . S
Zn5 O14 1.977 1_455 S
Zn5 O15 1.910 . S
O6 Zn3 1.933 . S
O6 C17 1.226 1_565 S
O7 Zn5 1.932 . S
O7 C17 1.307 1_455 S
O8 Zn1 1.919 . S
O8 C19 1.247 1_554 S
O9 Zn3 1.941 1_455 S
O9 C19 1.285 . S
O10 Zn3 1.965 . S
O10 C18 1.303 1_556 S
O11 Zn4 1.938 1_565 S
O11 C18 1.247 . S
O12 Zn4 1.906 . S
O12 C20 1.304 1_554 S
O13 Zn1 1.924 1_545 S
O13 C21 1.311 . S
O14 Zn5 1.977 1_655 S
O14 C20 1.272 . S
O15 Zn5 1.910 . S
O15 C21 1.231 1_556 S
C16 O0 1.225 1_545 S
C16 O22 1.298 1_455 S
C17 O6 1.226 1_545 S
C17 O7 1.307 1_655 S
C18 O10 1.303 1_554 S
C18 O11 1.247 . S
C19 O8 1.247 1_556 S
C19 O9 1.285 . S
C20 O12 1.304 1_556 S
C20 O14 1.272 . S
C21 O13 1.311 . S
C21 O15 1.231 1_554 S
O22 Zn4 1.953 . S
O22 C16 1.298 1_655 S
O23 Zn24 1.953 . S
O23 C39 1.225 . S
Zn24 O23 1.953 . S
Zn24 O25 1.949 . S
Zn24 O31 1.919 . S
Zn24 O36 1.924 . S
O25 Zn24 1.949 . S
O25 Zn26 1.923 . S
O25 Zn27 1.950 . S
O25 Zn28 1.945 . S
Zn26 O25 1.923 . S
Zn26 O29 1.933 . S
Zn26 O32 1.941 . S
Zn26 O33 1.965 . S
Zn27 O25 1.950 . S
Zn27 O34 1.938 . S
Zn27 O35 1.906 . S
Zn27 O45 1.953 . S
Zn28 O25 1.945 . S
Zn28 O30 1.932 . S
Zn28 O37 1.977 . S
Zn28 O38 1.910 . S
O29 Zn26 1.933 . S
O29 C40 1.226 . S
O30 Zn28 1.932 . S
O30 C40 1.307 . S
O31 Zn24 1.919 . S
O31 C42 1.253 . S
O32 Zn26 1.941 . S
O32 C42 1.283 . S
O33 Zn26 1.965 . S
O33 C41 1.303 . S
O34 Zn27 1.938 . S
O34 C41 1.247 . S
O35 Zn27 1.906 . S
O35 C43 1.304 . S
O36 Zn24 1.924 . S
O36 C44 1.311 . S
O37 Zn28 1.977 . S
O37 C43 1.272 . S
O38 Zn28 1.910 . S
O38 C44 1.231 . S
C39 O23 1.225 . S
C39 O45 1.298 . S
C40 O29 1.226 . S
C40 O30 1.307 . S
C41 O33 1.303 . S
C41 O34 1.247 . S
C42 O31 1.253 . S
C42 O32 1.283 . S
C43 O35 1.304 . S
C43 O37 1.272 . S
C44 O36 1.311 . S
C44 O38 1.231 . S
O45 Zn27 1.953 . S
O45 C39 1.298 . S
H46 C47 0.949 1_655 S
C47 H46 0.949 1_455 S
C47 C48 1.395 1_545 S
C47 C49 1.391 . S
C48 C47 1.395 1_565 S
C48 C51 1.390 . S
C49 C47 1.391 . S
C49 C53 1.387 1_545 S
C49 C54 1.491 . S
H50 C51 0.950 . S
C51 C48 1.390 . S
C51 H50 0.950 . S
C51 C52 1.378 . S
C52 C51 1.378 . S
C52 C53 1.409 . S
C53 C49 1.387 1_565 S
C53 C52 1.409 . S
C53 H55 0.951 . S
C54 C49 1.491 . S
C54 C56 1.382 1_455 S
C54 C58 1.404 . S
H55 C53 0.951 . S
C56 C54 1.382 1_655 S
C56 C57 1.390 . S
C56 H61 0.949 . S
C57 C56 1.390 . S
C57 C62 1.399 . S
C58 C54 1.404 . S
C58 H59 0.950 . S
C58 C60 1.375 . S
H59 C58 0.950 . S
C60 C58 1.375 . S
C60 C62 1.382 1_455 S
C60 H64 0.950 . S
H61 C56 0.949 . S
C62 C57 1.399 . S
C62 C60 1.382 1_655 S
C62 H63 0.952 . S
H63 C62 0.952 . S
H64 C60 0.950 . S
H65 C66 0.949 . S
C66 H65 0.949 . S
C66 C67 1.395 1_445 S
C66 C68 1.391 1_455 S
C67 C66 1.395 1_665 S
C67 C70 1.390 . S
C68 C66 1.391 1_655 S
C68 C72 1.387 1_545 S
C68 C73 1.491 1_655 S
H69 C70 0.950 . S
C70 C67 1.390 . S
C70 H69 0.950 . S
C70 C71 1.378 . S
C71 C70 1.378 . S
C71 C72 1.409 . S
C72 C68 1.387 1_565 S
C72 C71 1.409 . S
C72 H74 0.951 . S
C73 C68 1.491 1_455 S
C73 C75 1.382 . S
C73 C77 1.404 1_455 S
H74 C72 0.951 . S
C75 C73 1.382 . S
C75 C76 1.390 . S
C75 H80 0.949 . S
C76 C75 1.390 . S
C76 C81 1.399 . S
C77 C73 1.404 1_655 S
C77 H78 0.950 . S
C77 C79 1.375 . S
H78 C77 0.950 . S
C79 C77 1.375 . S
C79 C81 1.382 1_655 S
C79 H83 0.950 . S
H80 C75 0.949 . S
C81 C76 1.399 . S
C81 C79 1.382 1_455 S
C81 H82 0.952 . S
H82 C81 0.952 . S
H83 C79 0.950 . S
H84 C85 0.949 . S
C85 H84 0.949 . S
C85 C86 1.395 . S
C85 C87 1.391 . S
C86 C85 1.395 . S
C86 C89 1.390 . S
C87 C85 1.391 . S
C87 C91 1.387 . S
C87 C92 1.491 . S
H88 C89 0.950 . S
C89 C86 1.390 . S
C89 H88 0.950 . S
C89 C90 1.378 . S
C90 C89 1.378 . S
C90 C91 1.409 . S
C91 C87 1.387 . S
C91 C90 1.409 . S
C91 H93 0.951 . S
C92 C87 1.491 . S
C92 C94 1.382 . S
C92 C96 1.404 . S
H93 C91 0.951 . S
C94 C92 1.382 . S
C94 C95 1.390 . S
C94 H99 0.949 . S
C95 C94 1.390 . S
C95 C100 1.399 . S
C96 C92 1.404 . S
C96 H97 0.950 . S
C96 C98 1.375 1_556 S
H97 C96 0.950 . S
C98 C96 1.375 1_554 S
C98 C100 1.382 1_554 S
C98 H102 0.950 . S
H99 C94 0.949 . S
C100 C95 1.399 . S
C100 C98 1.382 1_556 S
C100 H101 0.952 1_556 S
H101 C100 0.952 1_554 S
H102 C98 0.950 . S
H103 C104 0.949 . S
C104 H103 0.949 . S
C104 C105 1.395 . S
C104 C106 1.391 . S
C105 C104 1.395 . S
C105 C108 1.390 . S
C106 C104 1.391 . S
C106 C110 1.387 . S
C106 C111 1.491 . S
H107 C108 0.950 . S
C108 C105 1.390 . S
C108 H107 0.950 . S
C108 C109 1.378 . S
C109 C108 1.378 . S
C109 C110 1.409 . S
C110 C106 1.387 . S
C110 C109 1.409 . S
C110 H112 0.951 . S
C111 C106 1.491 . S
C111 C113 1.382 . S
C111 C115 1.404 . S
H112 C110 0.951 . S
C113 C111 1.382 . S
C113 C114 1.390 . S
C113 H118 0.949 . S
C114 C113 1.390 . S
C114 C119 1.399 . S
C115 C111 1.404 . S
C115 H116 0.950 . S
C115 C117 1.375 . S
H116 C115 0.950 . S
C117 C115 1.375 . S
C117 C119 1.382 . S
C117 H121 0.950 1_554 S
H118 C113 0.949 . S
C119 C114 1.399 . S
C119 C117 1.382 . S
C119 H120 0.952 1_554 S
H120 C119 0.952 1_556 S
H121 C117 0.950 1_556 S
H122 C130 0.950 . S
H123 C135 0.950 . S
H124 C132 0.950 . S
H125 C134 0.950 . S
H126 C136 0.950 . S
H127 C138 0.950 . S
H128 C140 0.950 . S
H129 C141 0.950 . S
C130 H122 0.950 . S
C130 C131 1.386 . S
C130 C132 1.391 . S
C131 C130 1.386 . S
C131 C135 1.393 . S
C132 H124 0.950 . S
C132 C130 1.391 . S
C132 C133 1.400 . S
C133 C132 1.400 . S
C133 C134 1.398 . S
C133 C139 1.491 . S
C134 H125 0.950 . S
C134 C133 1.398 . S
C134 C135 1.391 . S
C135 H123 0.950 . S
C135 C131 1.393 . S
C135 C134 1.391 . S
C136 H126 0.950 . S
C136 C137 1.386 . S
C136 C138 1.391 . S
C137 C136 1.386 . S
C137 C141 1.393 . S
C138 H127 0.950 . S
C138 C136 1.391 . S
C138 C139 1.400 . S
C139 C133 1.491 . S
C139 C138 1.400 . S
C139 C140 1.398 . S
C140 H128 0.950 . S
C140 C139 1.398 . S
C140 C141 1.391 . S
C141 H129 0.950 . S
C141 C137 1.393 . S
C141 C140 1.391 . S
H142 C150 0.950 . S
H143 C155 0.950 . S
H144 C152 0.950 . S
H145 C154 0.950 . S
H146 C156 0.950 . S
H147 C158 0.950 . S
H148 C160 0.950 1_554 S
H149 C161 0.950 1_554 S
C150 H142 0.950 . S
C150 C151 1.386 1_554 S
C150 C152 1.391 . S
C151 C150 1.386 1_556 S
C151 C155 1.393 . S
C152 H144 0.950 . S
C152 C150 1.391 . S
C152 C153 1.400 1_554 S
C153 C152 1.400 1_556 S
C153 C154 1.398 . S
C153 C159 1.491 . S
C154 H145 0.950 . S
C154 C153 1.398 . S
C154 C155 1.391 . S
C155 H143 0.950 . S
C155 C151 1.393 . S
C155 C154 1.391 . S
C156 H146 0.950 . S
C156 C157 1.386 . S
C156 C158 1.391 . S
C157 C156 1.386 . S
C157 C161 1.393 . S
C158 H147 0.950 . S
C158 C156 1.391 . S
C158 C159 1.400 . S
C159 C153 1.491 . S
C159 C158 1.400 . S
C159 C160 1.398 . S
C160 H148 0.950 1_556 S
C160 C159 1.398 . S
C160 C161 1.391 . S
C161 H149 0.950 1_556 S
C161 C157 1.393 . S
C161 C160 1.391 . S
H162 C170 0.950 . S
H163 C175 0.950 . S
H164 C172 0.950 . S
H165 C174 0.950 . S
H166 C176 0.950 . S
H167 C178 0.950 . S
H168 C180 0.950 1_556 S
H169 C181 0.951 1_556 S
C170 H162 0.950 . S
C170 C171 1.386 1_556 S
C170 C172 1.391 . S
C171 C170 1.386 1_554 S
C171 C175 1.393 . S
C172 H164 0.950 . S
C172 C170 1.391 . S
C172 C173 1.400 1_556 S
C173 C172 1.400 1_554 S
C173 C174 1.398 . S
C173 C179 1.491 . S
C174 H165 0.950 . S
C174 C173 1.398 . S
C174 C175 1.391 . S
C175 H163 0.950 . S
C175 C171 1.393 . S
C175 C174 1.391 . S
C176 H166 0.950 . S
C176 C177 1.386 . S
C176 C178 1.391 . S
C177 C176 1.386 . S
C177 C181 1.393 . S
C178 H167 0.950 . S
C178 C176 1.391 . S
C178 C179 1.400 . S
C179 C173 1.491 . S
C179 C178 1.400 . S
C179 C180 1.398 . S
C180 H168 0.950 1_554 S
C180 C179 1.398 . S
C180 C181 1.391 . S
C181 H169 0.951 1_554 S
C181 C177 1.393 . S
C181 C180 1.391 . S
H182 C190 0.950 . S
H183 C195 0.950 . S
H184 C192 0.950 . S
H185 C194 0.950 . S
H186 C196 0.950 . S
H187 C198 0.950 . S
H188 C200 0.950 . S
H189 C201 0.950 . S
C190 H182 0.950 . S
C190 C191 1.386 . S
C190 C192 1.391 . S
C191 C190 1.386 . S
C191 C195 1.393 . S
C192 H184 0.950 . S
C192 C190 1.391 . S
C192 C193 1.400 . S
C193 C192 1.400 . S
C193 C194 1.398 . S
C193 C199 1.491 . S
C194 H185 0.950 . S
C194 C193 1.398 . S
C194 C195 1.391 . S
C195 H183 0.950 . S
C195 C191 1.393 . S
C195 C194 1.391 . S
C196 H186 0.950 . S
C196 C197 1.386 . S
C196 C198 1.391 . S
C197 C196 1.386 . S
C197 C201 1.393 . S
C198 H187 0.950 . S
C198 C196 1.391 . S
C198 C199 1.400 . S
C199 C193 1.491 . S
C199 C198 1.400 . S
C199 C200 1.398 . S
C200 H188 0.950 . S
C200 C199 1.398 . S
C200 C201 1.391 . S
C201 H189 0.950 . S
C201 C197 1.393 . S
C201 C200 1.391 . S
H202 C210 0.950 . S
H203 C215 0.950 . S
H204 C212 0.950 . S
H205 C214 0.950 . S
H206 C216 0.950 . S
H207 C218 0.950 . S
H208 C220 0.950 . S
H209 C221 0.950 . S
C210 H202 0.950 . S
C210 C211 1.386 . S
C210 C212 1.391 . S
C211 C210 1.386 . S
C211 C215 1.393 . S
C212 H204 0.950 . S
C212 C210 1.391 . S
C212 C213 1.400 . S
C213 C212 1.400 . S
C213 C214 1.398 . S
C213 C219 1.491 . S
C214 H205 0.950 . S
C214 C213 1.398 . S
C214 C215 1.391 . S
C215 H203 0.950 . S
C215 C211 1.393 . S
C215 C214 1.391 . S
C216 H206 0.950 . S
C216 C217 1.386 . S
C216 C218 1.391 . S
C217 C216 1.386 . S
C217 C221 1.393 . S
C218 H207 0.950 . S
C218 C216 1.391 . S
C218 C219 1.400 . S
C219 C213 1.491 . S
C219 C218 1.400 . S
C219 C220 1.398 . S
C220 H208 0.950 . S
C220 C219 1.398 . S
C220 C221 1.391 . S
C221 H209 0.950 . S
C221 C217 1.393 . S
C221 C220 1.391 . S
H222 C230 0.950 . S
H223 C235 0.950 . S
H224 C232 0.950 . S
H225 C234 0.950 . S
H226 C236 0.950 . S
H227 C238 0.950 . S
H228 C240 0.950 . S
H229 C241 0.950 . S
C230 H222 0.950 . S
C230 C231 1.386 . S
C230 C232 1.391 . S
C231 C230 1.386 . S
C231 C235 1.393 . S
C232 H224 0.950 . S
C232 C230 1.391 . S
C232 C233 1.400 . S
C233 C232 1.400 . S
C233 C234 1.398 . S
C233 C239 1.491 . S
C234 H225 0.950 . S
C234 C233 1.398 . S
C234 C235 1.391 . S
C235 H223 0.950 . S
C235 C231 1.393 . S
C235 C234 1.391 . S
C236 H226 0.950 . S
C236 C237 1.386 . S
C236 C238 1.391 . S
C237 C236 1.386 . S
C237 C241 1.393 . S
C238 H227 0.950 . S
C238 C236 1.391 . S
C238 C239 1.400 . S
C239 C233 1.491 . S
C239 C238 1.400 . S
C239 C240 1.398 . S
C240 H228 0.950 . S
C240 C239 1.398 . S
C240 C241 1.391 . S
C241 H229 0.950 . S
C241 C237 1.393 . S
C241 C240 1.391 . S
H242 C250 0.950 . S
H243 C255 0.950 . S
H244 C252 0.950 . S
H245 C254 0.950 . S
H246 C256 0.950 . S
H247 C258 0.950 . S
H248 C260 0.950 . S
H249 C261 0.950 . S
C250 H242 0.950 . S
C250 C251 1.386 . S
C250 C252 1.391 . S
C251 C250 1.386 . S
C251 C255 1.393 . S
C252 H244 0.950 . S
C252 C250 1.391 . S
C252 C253 1.400 . S
C253 C252 1.400 . S
C253 C254 1.398 . S
C253 C259 1.491 . S
C254 H245 0.950 . S
C254 C253 1.398 . S
C254 C255 1.391 . S
C255 H243 0.950 . S
C255 C251 1.393 . S
C255 C254 1.391 . S
C256 H246 0.950 . S
C256 C257 1.386 . S
C256 C258 1.391 . S
C257 C256 1.386 . S
C257 C261 1.393 . S
C258 H247 0.950 . S
C258 C256 1.391 . S
C258 C259 1.400 . S
C259 C253 1.491 . S
C259 C258 1.400 . S
C259 C260 1.398 . S
C260 H248 0.950 . S
C260 C259 1.398 . S
C260 C261 1.391 . S
C261 H249 0.950 . S
C261 C257 1.393 . S
C261 C260 1.391 . S
H262 C270 0.950 . S
H263 C275 0.950 . S
H264 C272 0.950 . S
H265 C274 0.950 . S
H266 C276 0.950 . S
H267 C278 0.950 . S
H268 C280 0.950 . S
H269 C281 0.950 . S
C270 H262 0.950 . S
C270 C271 1.386 . S
C270 C272 1.391 . S
C271 C270 1.386 . S
C271 C275 1.393 . S
C272 H264 0.950 . S
C272 C270 1.391 . S
C272 C273 1.400 . S
C273 C272 1.400 . S
C273 C274 1.398 . S
C273 C279 1.491 . S
C274 H265 0.950 . S
C274 C273 1.398 . S
C274 C275 1.391 . S
C275 H263 0.950 . S
C275 C271 1.393 . S
C275 C274 1.391 . S
C276 H266 0.950 . S
C276 C277 1.386 . S
C276 C278 1.391 . S
C277 C276 1.386 . S
C277 C281 1.393 . S
C278 H267 0.950 . S
C278 C276 1.391 . S
C278 C279 1.400 . S
C279 C273 1.491 . S
C279 C278 1.400 . S
C279 C280 1.398 . S
C280 H268 0.950 . S
C280 C279 1.398 . S
C280 C281 1.391 . S
C281 H269 0.950 . S
C281 C277 1.393 . S
C281 C280 1.391 . S
H282 C290 0.950 . S
H283 C295 0.950 . S
H284 C292 0.950 . S
H285 C294 0.950 . S
H286 C296 0.950 . S
H287 C298 0.950 . S
H288 C300 0.950 . S
H289 C301 0.950 . S
C290 H282 0.950 . S
C290 C291 1.386 . S
C290 C292 1.391 . S
C291 C290 1.386 . S
C291 C295 1.393 1_545 S
C292 H284 0.950 . S
C292 C290 1.391 . S
C292 C293 1.400 . S
C293 C292 1.400 . S
C293 C294 1.398 1_545 S
C293 C299 1.491 . S
C294 H285 0.950 . S
C294 C293 1.398 1_565 S
C294 C295 1.391 . S
C295 H283 0.950 . S
C295 C291 1.393 1_565 S
C295 C294 1.391 . S
C296 H286 0.950 . S
C296 C297 1.386 1_565 S
C296 C298 1.391 . S
C297 C296 1.386 1_545 S
C297 C301 1.393 . S
C298 H287 0.950 . S
C298 C296 1.391 . S
C298 C299 1.400 1_565 S
C299 C293 1.491 . S
C299 C298 1.400 1_545 S
C299 C300 1.398 . S
C300 H288 0.950 . S
C300 C299 1.398 . S
C300 C301 1.391 . S
C301 H289 0.950 . S
C301 C297 1.393 . S
C301 C300 1.391 . S
H302 C310 0.950 . S
H303 C315 0.950 . S
H304 C312 0.950 . S
H305 C314 0.950 . S
H306 C316 0.950 . S
H307 C318 0.950 . S
H308 C320 0.950 . S
H309 C321 0.950 . S
C310 H302 0.950 . S
C310 C311 1.386 1_455 S
C310 C312 1.391 . S
C311 C310 1.386 1_655 S
C311 C315 1.393 . S
C312 H304 0.950 . S
C312 C310 1.391 . S
C312 C313 1.400 1_455 S
C313 C312 1.400 1_655 S
C313 C314 1.398 . S
C313 C319 1.491 . S
C314 H305 0.950 . S
C314 C313 1.398 . S
C314 C315 1.391 . S
C315 H303 0.950 . S
C315 C311 1.393 . S
C315 C314 1.391 . S
C316 H306 0.950 . S
C316 C317 1.386 . S
C316 C318 1.391 . S
C317 C316 1.386 . S
C317 C321 1.393 1_655 S
C318 H307 0.950 . S
C318 C316 1.391 . S
C318 C319 1.400 . S
C319 C313 1.491 . S
C319 C318 1.400 . S
C319 C320 1.398 1_655 S
C320 H308 0.950 . S
C320 C319 1.398 1_455 S
C320 C321 1.391 . S
C321 H309 0.950 . S
C321 C317 1.393 1_455 S
C321 C320 1.391 . S
H322 C330 0.950 . S
H323 C335 0.950 . S
H324 C332 0.950 . S
H325 C334 0.950 . S
H326 C336 0.950 . S
H327 C338 0.950 . S
H328 C340 0.950 . S
H329 C341 0.950 . S
C330 H322 0.950 . S
C330 C331 1.386 . S
C330 C332 1.391 . S
C331 C330 1.386 . S
C331 C335 1.393 . S
C332 H324 0.950 . S
C332 C330 1.391 . S
C332 C333 1.400 . S
C333 C332 1.400 . S
C333 C334 1.398 . S
C333 C339 1.491 . S
C334 H325 0.950 . S
C334 C333 1.398 . S
C334 C335 1.391 . S
C335 H323 0.950 . S
C335 C331 1.393 . S
C335 C334 1.391 . S
C336 H326 0.950 . S
C336 C337 1.386 . S
C336 C338 1.391 . S
C337 C336 1.386 . S
C337 C341 1.393 . S
C338 H327 0.950 . S
C338 C336 1.391 . S
C338 C339 1.400 . S
C339 C333 1.491 . S
C339 C338 1.400 . S
C339 C340 1.398 . S
C340 H328 0.950 . S
C340 C339 1.398 . S
C340 C341 1.391 . S
C341 H329 0.950 . S
C341 C337 1.393 . S
C341 C340 1.391 . S
H342 C350 0.950 . S
H343 C355 0.950 . S
H344 C352 0.950 . S
H345 C354 0.950 . S
H346 C356 0.950 . S
H347 C358 0.950 . S
H348 C360 0.950 . S
H349 C361 0.950 . S
C350 H342 0.950 . S
C350 C351 1.386 . S
C350 C352 1.391 . S
C351 C350 1.386 . S
C351 C355 1.393 . S
C352 H344 0.950 . S
C352 C350 1.391 . S
C352 C353 1.400 . S
C353 C352 1.400 . S
C353 C354 1.398 . S
C353 C359 1.491 . S
C354 H345 0.950 . S
C354 C353 1.398 . S
C354 C355 1.391 . S
C355 H343 0.950 . S
C355 C351 1.393 . S
C355 C354 1.391 . S
C356 H346 0.950 . S
C356 C357 1.386 . S
C356 C358 1.391 . S
C357 C356 1.386 . S
C357 C361 1.393 . S
C358 H347 0.950 . S
C358 C356 1.391 . S
C358 C359 1.400 . S
C359 C353 1.491 . S
C359 C358 1.400 . S
C359 C360 1.398 . S
C360 H348 0.950 . S
C360 C359 1.398 . S
C360 C361 1.391 . S
C361 H349 0.950 . S
C361 C357 1.393 . S
C361 C360 1.391 . S
C137 C109 1.585 . S
C131 C21 1.574 . S
C151 C19 1.398 . S
C157 C95 1.340 . S
C171 C18 1.369 . S
C177 C114 1.325 . S
C191 C20 1.565 . S
C197 C90 1.582 . S
C211 C44 1.573 . S
C217 C71 1.584 . S
C231 C42 1.393 . S
C237 C57 1.343 . S
C257 C76 1.322 . S
C251 C41 1.371 . S
C277 C52 1.574 . S
C271 C43 1.553 . S
C291 C16 1.558 . S
C297 C48 1.547 1_545 S
C311 C17 1.520 . S
C317 C67 1.514 1_545 S
C337 C86 1.544 . S
C331 C39 1.559 . S
C351 C40 1.520 . S
C357 C105 1.504 . S
