# Generated by pormake.
# Topology anh, (6,3)-cn, num edge types: 1
# Building blocks:
#     Node 0, Type 0, BuildingBlock: CUKXOW_clean_sbu_0, # of connection points: 6
#     Node 1, Type 0, BuildingBlock: CUKXOW_clean_sbu_0, # of connection points: 6
#     Node 2, Type 0, BuildingBlock: CUKXOW_clean_sbu_0, # of connection points: 6
#     Node 3, Type 1, BuildingBlock: KAKCAD_clean_linker_0, # of connection points: 3
#     Node 4, Type 1, BuildingBlock: KAKCAD_clean_linker_0, # of connection points: 3
#     Node 5, Type 1, BuildingBlock: KAKCAD_clean_linker_0, # of connection points: 3
#     Node 6, Type 1, BuildingBlock: KAKCAD_clean_linker_0, # of connection points: 3
#     Node 7, Type 1, BuildingBlock: KAKCAD_clean_linker_0, # of connection points: 3
#     Node 8, Type 1, BuildingBlock: KAKCAD_clean_linker_0, # of connection points: 3
#     Edge 9, Type (0, 1), BuildingBlock: XIVTED_clean_linker_0, # of connection points: 2
#     Edge 10, Type (0, 1), BuildingBlock: XIVTED_clean_linker_0, # of connection points: 2
#     Edge 11, Type (0, 1), BuildingBlock: XIVTED_clean_linker_0, # of connection points: 2
#     Edge 12, Type (0, 1), BuildingBlock: XIVTED_clean_linker_0, # of connection points: 2
#     Edge 13, Type (0, 1), BuildingBlock: XIVTED_clean_linker_0, # of connection points: 2
#     Edge 14, Type (0, 1), BuildingBlock: XIVTED_clean_linker_0, # of connection points: 2
#     Edge 15, Type (0, 1), BuildingBlock: XIVTED_clean_linker_0, # of connection points: 2
#     Edge 16, Type (0, 1), BuildingBlock: XIVTED_clean_linker_0, # of connection points: 2
#     Edge 17, Type (0, 1), BuildingBlock: XIVTED_clean_linker_0, # of connection points: 2
#     Edge 18, Type (0, 1), BuildingBlock: XIVTED_clean_linker_0, # of connection points: 2
#     Edge 19, Type (0, 1), BuildingBlock: XIVTED_clean_linker_0, # of connection points: 2
#     Edge 20, Type (0, 1), BuildingBlock: XIVTED_clean_linker_0, # of connection points: 2
#     Edge 21, Type (0, 1), BuildingBlock: XIVTED_clean_linker_0, # of connection points: 2
#     Edge 22, Type (0, 1), BuildingBlock: XIVTED_clean_linker_0, # of connection points: 2
#     Edge 23, Type (0, 1), BuildingBlock: XIVTED_clean_linker_0, # of connection points: 2
#     Edge 24, Type (0, 1), BuildingBlock: XIVTED_clean_linker_0, # of connection points: 2
#     Edge 25, Type (0, 1), BuildingBlock: XIVTED_clean_linker_0, # of connection points: 2
#     Edge 26, Type (0, 1), BuildingBlock: XIVTED_clean_linker_0, # of connection points: 2
# Relax obj value: 0.133
# Max RMSD: 0.194
# Mean RMSD: 0.139
data_MOF--net-anh--node1-CUKXOW_clean_sbu_0--node2-KAKCAD_clean_linker_0--edge1-XIVTED_clean_linker_0
_symmetry_space_group_name_H-M    P1
_symmetry_Int_Tables_number       1
_symmetry_cell_setting            triclinic
loop_
_symmetry_equiv_pos_as_xyz
'x, y, z'
_cell_length_a     35.535782
_cell_length_b     34.552314
_cell_length_c     65.427153
_cell_angle_alpha  95.789417
_cell_angle_beta   89.916413
_cell_angle_gamma 115.12725
loop_
_atom_site_label
_atom_site_type_symbol
_atom_site_fract_x
_atom_site_fract_y
_atom_site_fract_z
_atom_type_partial_charge
Tb0 Tb 0.07632 0.53533 0.15364 0.0
C1 C 0.04869 0.49328 0.19491 0.0
Tb2 Tb 0.01821 0.43745 0.15174 0.0
O3 O 0.0263 0.54565 0.13893 0.0
O4 O 0.01157 0.49622 0.15741 0.0
O5 O 0.07682 0.5255 0.18599 0.0
C6 C 0.94914 0.36487 0.15193 0.0
O7 O 0.01999 0.45835 0.18436 0.0
C8 C 0.09823 0.45108 0.1518 0.0
C9 C 0.05356 0.47826 0.111 0.0
O10 O 0.98261 0.37586 0.16343 0.0
O11 O 0.9548 0.39451 0.13994 0.0
O12 O 0.06703 0.41318 0.15022 0.0
O13 O 0.08215 0.47745 0.15303 0.0
O14 O 0.02266 0.44692 0.11915 0.0
O15 O 0.08104 0.51309 0.12209 0.0
C16 C 0.13991 0.61316 0.15775 0.0
O17 O 0.14013 0.57878 0.14792 0.0
O18 O 0.1037 0.60385 0.16542 0.0
C19 C 0.99603 0.51283 0.14551 0.0
Tb20 Tb 0.49699 0.01075 0.50935 0.0
C21 C 0.54058 0.04353 0.469 0.0
Tb22 Tb 0.58534 0.08106 0.5137 0.0
O23 O 0.47443 0.05532 0.49857 0.0
O24 O 0.52557 0.07749 0.5195 0.0
O25 O 0.50979 0.0118 0.47693 0.0
C26 C 0.65266 0.15511 0.51298 0.0
O27 O 0.57138 0.07483 0.48054 0.0
C28 C 0.57831 0.00262 0.51416 0.0
C29 C 0.54297 0.04655 0.55357 0.0
O30 O 0.65298 0.11801 0.51417 0.0
O31 O 0.61456 0.15048 0.51215 0.0
O32 O 0.60804 0.03611 0.52406 0.0
O33 O 0.5567 0.01455 0.50341 0.0
O34 O 0.57065 0.0809 0.54586 0.0
O35 O 0.51453 0.01346 0.54179 0.0
C36 C 0.42799 0.93847 0.5103 0.0
O37 O 0.43133 0.97692 0.51589 0.0
O38 O 0.46341 0.94067 0.50405 0.0
C39 C 0.50396 0.089 0.50844 0.0
Tb40 Tb 0.50802 0.51979 0.82877 0.0
C41 C 0.55481 0.53366 0.87108 0.0
Tb42 Tb 0.59992 0.54536 0.82974 0.0
O43 O 0.49556 0.45926 0.8411 0.0
O44 O 0.54613 0.48716 0.82255 0.0
O45 O 0.52422 0.53841 0.86162 0.0
C46 C 0.67566 0.55231 0.82316 0.0
O47 O 0.58518 0.52884 0.86093 0.0
C48 C 0.57873 0.60882 0.8391 0.0
C49 C 0.55319 0.52935 0.78656 0.0
O50 O 0.64624 0.51971 0.83032 0.0
O51 O 0.66291 0.58142 0.82037 0.0
O52 O 0.61152 0.60735 0.84699 0.0
O53 O 0.56145 0.57704 0.82572 0.0
O54 O 0.58852 0.53742 0.79658 0.0
O55 O 0.51835 0.5225 0.79604 0.0
C56 C 0.43471 0.51854 0.82086 0.0
O57 O 0.44495 0.48737 0.81522 0.0
O58 O 0.46483 0.54927 0.83198 0.0
C59 C 0.52858 0.45708 0.8336 0.0
C60 C 0.55161 0.07593 0.30585 0.0
C61 C 0.5417 0.03813 0.31523 0.0
C62 C 0.55056 0.07464 0.28442 0.0
C63 C 0.53955 0.03552 0.27194 0.0
C64 C 0.5305 0.99792 0.28134 0.0
C65 C 0.53155 0.9992 0.30272 0.0
C66 C 0.53646 0.03361 0.24921 0.0
C67 C 0.56691 0.06498 0.23871 0.0
C68 C 0.56418 0.06315 0.21711 0.0
C69 C 0.53006 0.02936 0.20608 0.0
C70 C 0.49992 0.99742 0.21643 0.0
C71 C 0.50318 0.99988 0.2379 0.0
C72 C 0.46553 0.96015 0.20507 0.0
C73 C 0.43641 0.96569 0.19264 0.0
C74 C 0.46014 0.91844 0.20791 0.0
C75 C 0.42568 0.88275 0.19889 0.0
C76 C 0.3956 0.88807 0.18706 0.0
C77 C 0.59843 0.09511 0.20628 0.0
C78 C 0.61911 0.13811 0.21507 0.0
C79 C 0.61291 0.0823 0.18794 0.0
C80 C 0.64843 0.11123 0.17924 0.0
C81 C 0.67037 0.15328 0.18884 0.0
C82 C 0.65488 0.16674 0.20655 0.0
C83 C 0.4014 0.92985 0.18385 0.0
H84 H 0.55915 0.10635 0.31505 0.0
H85 H 0.55731 0.10407 0.27762 0.0
H86 H 0.52271 0.96743 0.27214 0.0
H87 H 0.52458 0.96968 0.30947 0.0
H88 H 0.59363 0.0899 0.24738 0.0
H89 H 0.47932 0.97553 0.24582 0.0
H90 H 0.5273 0.0273 0.18947 0.0
H91 H 0.43996 0.99767 0.19038 0.0
H92 H 0.48229 0.91353 0.21745 0.0
H93 H 0.42178 0.85098 0.2018 0.0
H94 H 0.60828 0.14943 0.22888 0.0
H95 H 0.59807 0.04938 0.18084 0.0
H96 H 0.37869 0.93473 0.17473 0.0
H97 H 0.67102 0.19924 0.21406 0.0
H98 H 0.65996 0.10009 0.16562 0.0
C99 C 0.52034 0.55722 0.62534 0.0
C100 C 0.5473 0.54268 0.63421 0.0
C101 C 0.51898 0.55916 0.60417 0.0
C102 C 0.54461 0.54668 0.59138 0.0
C103 C 0.57204 0.53277 0.60027 0.0
C104 C 0.57336 0.53077 0.62145 0.0
C105 C 0.54182 0.547 0.56877 0.0
C106 C 0.53789 0.58094 0.56042 0.0
C107 C 0.53361 0.58081 0.53901 0.0
C108 C 0.53404 0.54609 0.5258 0.0
C109 C 0.53834 0.51208 0.53412 0.0
C110 C 0.54211 0.5128 0.55547 0.0
C111 C 0.538 0.47428 0.52128 0.0
C112 C 0.5 0.4387 0.51577 0.0
C113 C 0.57513 0.46947 0.51937 0.0
C114 C 0.57417 0.42903 0.51342 0.0
C115 C 0.53598 0.3925 0.50953 0.0
C116 C 0.52955 0.61786 0.53112 0.0
C117 C 0.50461 0.63556 0.5413 0.0
C118 C 0.55386 0.63883 0.51517 0.0
C119 C 0.55542 0.6783 0.51057 0.0
C120 C 0.5329 0.69742 0.52195 0.0
C121 C 0.5065 0.67497 0.53688 0.0
C122 C 0.49897 0.39813 0.50988 0.0
H123 H 0.50026 0.56719 0.63478 0.0
H124 H 0.49722 0.56964 0.59777 0.0
H125 H 0.59251 0.52338 0.59085 0.0
H126 H 0.59423 0.51908 0.62777 0.0
H127 H 0.53899 0.60811 0.57068 0.0
H128 H 0.54434 0.48591 0.56174 0.0
H129 H 0.53069 0.54529 0.50928 0.0
H130 H 0.47096 0.44158 0.51763 0.0
H131 H 0.60473 0.49641 0.52389 0.0
H132 H 0.60328 0.42602 0.51292 0.0
H133 H 0.48481 0.61972 0.55334 0.0
H134 H 0.57348 0.62606 0.50709 0.0
H135 H 0.469 0.37074 0.50715 0.0
H136 H 0.48825 0.68862 0.54561 0.0
H137 H 0.57601 0.69501 0.49897 0.0
C138 C 0.11045 0.50546 0.94955 0.0
C139 C 0.07275 0.48396 0.95906 0.0
C140 C 0.11047 0.5163 0.92957 0.0
C141 C 0.07279 0.50553 0.9186 0.0
C142 C 0.03514 0.48207 0.92771 0.0
C143 C 0.0351 0.47158 0.94774 0.0
C144 C 0.0726 0.52012 0.89807 0.0
C145 C 0.10174 0.5194 0.88363 0.0
C146 C 0.1005 0.53233 0.8641 0.0
C147 C 0.07095 0.54675 0.85912 0.0
C148 C 0.04214 0.5481 0.87332 0.0
C149 C 0.04292 0.5348 0.89277 0.0
C150 C 1.00864 0.55867 0.86651 0.0
C151 C 0.01773 0.5938 0.85517 0.0
C152 C 0.96724 0.52933 0.86818 0.0
C153 C 0.9356 0.53319 0.85739 0.0
C154 C 0.94496 0.56648 0.84484 0.0
C155 C 0.12996 0.53142 0.84859 0.0
C156 C 0.17262 0.55539 0.85288 0.0
C157 C 0.11533 0.50972 0.82884 0.0
C158 C 0.14329 0.51167 0.81357 0.0
C159 C 0.18603 0.5361 0.81781 0.0
C160 C 0.20046 0.55791 0.83757 0.0
C161 C 0.98597 0.59776 0.84441 0.0
H162 H 0.14002 0.51481 0.95772 0.0
H163 H 0.14002 0.53443 0.92302 0.0
H164 H 1.00556 0.47242 0.91949 0.0
H165 H 1.00549 0.4553 0.95461 0.0
H166 H 0.12452 0.50768 0.88726 0.0
H167 H 0.02045 0.53606 0.90373 0.0
H168 H 0.06986 0.5561 0.84387 0.0
H169 H 0.0496 0.6169 0.85381 0.0
H170 H 0.95958 0.50186 0.87672 0.0
H171 H 0.90388 0.50938 0.85837 0.0
H172 H 0.18432 0.57269 0.86796 0.0
H173 H 0.08229 0.49119 0.82531 0.0
H174 H 0.99369 0.62397 0.83502 0.0
H175 H 0.23346 0.57597 0.84137 0.0
H176 H 0.13169 0.49406 0.79855 0.0
C177 C 0.99459 0.51151 0.35763 0.0
C178 C 0.03246 0.51877 0.34845 0.0
C179 C 0.99278 0.51625 0.37903 0.0
C180 C 0.0288 0.52831 0.39165 0.0
C181 C 0.06654 0.53512 0.38244 0.0
C182 C 0.06837 0.53047 0.36109 0.0
C183 C 0.02726 0.53402 0.41437 0.0
C184 C 0.99442 0.50449 0.42456 0.0
C185 C 0.99377 0.50906 0.44614 0.0
C186 C 0.02649 0.54348 0.45752 0.0
C187 C 0.05911 0.57345 0.44751 0.0
C188 C 0.05923 0.56872 0.42599 0.0
C189 C 0.09355 0.60963 0.45942 0.0
C190 C 0.10555 0.65171 0.45451 0.0
C191 C 0.11585 0.60209 0.47505 0.0
C192 C 0.15062 0.63605 0.48511 0.0
C193 C 0.1631 0.67807 0.47991 0.0
C194 C 0.95916 0.47757 0.45676 0.0
C195 C 0.91787 0.463 0.44924 0.0
C196 C 0.9672 0.46139 0.47428 0.0
C197 C 0.93467 0.43057 0.48384 0.0
C198 C 0.89345 0.41541 0.47609 0.0
C199 C 0.88534 0.43227 0.45882 0.0
C200 C 0.13988 0.68568 0.46475 0.0
H201 H 0.9665 0.50293 0.34828 0.0
H202 H 0.96334 0.51124 0.38567 0.0
H203 H 0.09467 0.54361 0.39176 0.0
H204 H 0.09784 0.53553 0.35447 0.0
H205 H 0.97 0.47713 0.41573 0.0
H206 H 0.08455 0.59199 0.41829 0.0
H207 H 0.02618 0.54758 0.47416 0.0
H208 H 0.08864 0.65822 0.44257 0.0
H209 H 0.10718 0.56977 0.47899 0.0
H210 H 0.16799 0.62945 0.4968 0.0
H211 H 0.91071 0.47529 0.43591 0.0
H212 H 0.99876 0.47184 0.48034 0.0
H213 H 0.14912 0.7177 0.46029 0.0
H214 H 0.85396 0.42087 0.45235 0.0
H215 H 0.94181 0.41842 0.49723 0.0
C216 C 0.53684 1.00001 0.71475 0.0
C217 C 0.56755 0.0335 0.70531 0.0
C218 C 0.53892 0.99902 0.736 0.0
C219 C 0.57151 0.03168 0.7483 0.0
C220 C 0.6027 0.0646 0.73888 0.0
C221 C 0.60088 0.06538 0.71762 0.0
C222 C 0.57154 0.03276 0.77099 0.0
C223 C 0.56388 0.99566 0.78043 0.0
C224 C 0.56138 0.99589 0.80194 0.0
C225 C 0.56645 0.03419 0.81397 0.0
C226 C 0.57477 0.07168 0.80459 0.0
C227 C 0.57752 0.07073 0.7832 0.0
C228 C 0.57844 0.11194 0.81643 0.0
C229 C 0.54324 0.11438 0.82502 0.0
C230 C 0.61496 0.14979 0.81577 0.0
C231 C 0.61555 0.18976 0.8224 0.0
C232 C 0.57932 0.19276 0.82943 0.0
C233 C 0.55439 0.95614 0.81147 0.0
C234 C 0.52745 0.91558 0.80161 0.0
C235 C 0.57683 0.95803 0.82952 0.0
C236 C 0.574 0.92023 0.83688 0.0
C237 C 0.54883 0.87965 0.8263 0.0
C238 C 0.52494 0.87793 0.80881 0.0
C239 C 0.5436 0.15446 0.8314 0.0
H240 H 0.51042 0.97525 0.70584 0.0
H241 H 0.5142 0.97354 0.74292 0.0
H242 H 0.62843 0.0899 0.748 0.0
H243 H 0.62557 0.09111 0.71084 0.0
H244 H 0.56068 0.96675 0.77094 0.0
H245 H 0.58269 0.09937 0.77597 0.0
H246 H 0.56379 0.0349 0.83049 0.0
H247 H 0.51457 0.08554 0.82537 0.0
H248 H 0.64244 0.14854 0.80914 0.0
H249 H 0.64394 0.21842 0.82115 0.0
H250 H 0.50901 0.91284 0.78792 0.0
H251 H 0.59792 0.98871 0.83749 0.0
H252 H 0.515 0.15536 0.83657 0.0
H253 H 0.5055 0.84755 0.80005 0.0
H254 H 0.59225 0.92291 0.85062 0.0
C255 C 0.57124 0.48906 0.03161 0.0
C256 C 0.55271 0.51307 0.0232 0.0
C257 C 0.57084 0.48536 0.05268 0.0
C258 C 0.55282 0.50643 0.06614 0.0
C259 C 0.53493 0.53109 0.05781 0.0
C260 C 0.53452 0.53402 0.03664 0.0
C261 C 0.55229 0.5021 0.08867 0.0
C262 C 0.58527 0.49832 0.09864 0.0
C263 C 0.5845 0.49131 0.11948 0.0
C264 C 0.54999 0.49032 0.13093 0.0
C265 C 0.51682 0.49556 0.1212 0.0
C266 C 0.51842 0.50065 0.10011 0.0
C267 C 0.47915 0.49535 0.13183 0.0
C268 C 0.45016 0.45842 0.13981 0.0
C269 C 0.46773 0.5293 0.13004 0.0
C270 C 0.42796 0.52571 0.13496 0.0
C271 C 0.39784 0.48788 0.14186 0.0
C272 C 0.62048 0.48454 0.12793 0.0
C273 C 0.63366 0.45614 0.11642 0.0
C274 C 0.64627 0.51104 0.14483 0.0
C275 C 0.68527 0.51093 0.14917 0.0
C276 C 0.69956 0.48472 0.13656 0.0
C277 C 0.67251 0.45646 0.12054 0.0
C278 C 0.41011 0.45473 0.14475 0.0
H279 H 0.58638 0.47311 0.02198 0.0
H280 H 0.58431 0.46542 0.05831 0.0
H281 H 0.52128 0.54838 0.06763 0.0
H282 H 0.51938 0.55234 0.03087 0.0
H283 H 0.61226 0.50105 0.09009 0.0
H284 H 0.49228 0.50245 0.09246 0.0
H285 H 0.54887 0.48538 0.14704 0.0
H286 H 0.45754 0.43138 0.1411 0.0
H287 H 0.48902 0.55802 0.12369 0.0
H288 H 0.42024 0.55192 0.13224 0.0
H289 H 0.61465 0.43504 0.10337 0.0
H290 H 0.63749 0.53365 0.1539 0.0
H291 H 0.38841 0.42531 0.15036 0.0
H292 H 0.68192 0.43526 0.11072 0.0
H293 H 0.70523 0.53309 0.16168 0.0
H294 H 0.17005 0.52782 0.15948 0.0
H295 H 0.32426 0.41391 0.1346 0.0
H296 H 0.12905 0.39212 0.14197 0.0
H297 H 0.369 0.5492 0.15527 0.0
H298 H 0.25297 0.40615 0.13742 0.0
H299 H 0.24282 0.53748 0.15766 0.0
C300 C 0.17624 0.50017 0.15505 0.0
C301 C 0.14313 0.45919 0.15064 0.0
C302 C 0.27833 0.43759 0.14141 0.0
C303 C 0.22664 0.46976 0.14882 0.0
C304 C 0.3194 0.44203 0.13998 0.0
C305 C 0.35351 0.48233 0.1447 0.0
C306 C 0.27053 0.47364 0.14759 0.0
C307 C 0.34423 0.5175 0.15113 0.0
C308 C 0.21788 0.50561 0.15415 0.0
C309 C 0.15335 0.42439 0.14544 0.0
N310 N 0.30394 0.51236 0.15234 0.0
N311 N 0.19382 0.43045 0.14465 0.0
H312 H 0.7339 0.16842 0.51377 0.0
H313 H 0.81508 0.40845 0.48381 0.0
H314 H 0.65471 0.2333 0.50817 0.0
H315 H 0.89374 0.34274 0.48905 0.0
H316 H 0.75721 0.34722 0.49593 0.0
H317 H 0.79427 0.23471 0.50812 0.0
C318 C 0.72936 0.1968 0.5115 0.0
C319 C 0.68946 0.19552 0.51125 0.0
C320 C 0.78722 0.34635 0.49459 0.0
C321 C 0.75802 0.2712 0.50467 0.0
C322 C 0.8202 0.3812 0.48759 0.0
C323 C 0.85918 0.38052 0.48526 0.0
C324 C 0.79323 0.31047 0.49919 0.0
C325 C 0.8643 0.34476 0.49074 0.0
C326 C 0.76375 0.23459 0.50827 0.0
C327 C 0.68508 0.23305 0.50834 0.0
N328 N 0.8316 0.31101 0.49728 0.0
N329 N 0.71897 0.26936 0.505 0.0
H330 H 0.62295 0.68559 0.86226 0.0
H331 H 0.48454 0.7982 0.82403 0.0
H332 H 0.51751 0.62082 0.81926 0.0
H333 H 0.61486 0.86881 0.84243 0.0
H334 H 0.48915 0.7315 0.82966 0.0
H335 H 0.61311 0.75175 0.86242 0.0
C336 C 0.59739 0.68513 0.85309 0.0
C337 C 0.57089 0.64767 0.84078 0.0
C338 C 0.51657 0.76173 0.83262 0.0
C339 C 0.55931 0.72287 0.84104 0.0
C340 C 0.5141 0.79989 0.82932 0.0
C341 C 0.54953 0.83947 0.83242 0.0
C342 C 0.55456 0.76301 0.83938 0.0
C343 C 0.58658 0.83937 0.83994 0.0
C344 C 0.59188 0.72285 0.85316 0.0
C345 C 0.53831 0.64882 0.82915 0.0
N346 N 0.58816 0.80176 0.84306 0.0
N347 N 0.53343 0.68584 0.82956 0.0
H348 H 0.95831 0.53705 0.11633 0.0
H349 H 0.74354 0.48459 0.17167 0.0
H350 H 0.93191 0.47261 0.1712 0.0
H351 H 0.75559 0.49333 0.10657 0.0
H352 H 0.8146 0.48876 0.17407 0.0
H353 H 0.88659 0.52953 0.11452 0.0
C354 C 0.93735 0.52112 0.12798 0.0
C355 C 0.95131 0.50532 0.14388 0.0
C356 C 0.80157 0.48966 0.15927 0.0
C357 C 0.86875 0.49742 0.14219 0.0
C358 C 0.7611 0.48757 0.15791 0.0
C359 C 0.74323 0.48838 0.13886 0.0
C360 C 0.82494 0.49371 0.14154 0.0
C361 C 0.76767 0.49214 0.12155 0.0
C362 C 0.89631 0.51684 0.12694 0.0
C363 C 0.92253 0.48506 0.15858 0.0
N364 N 0.80704 0.49498 0.12334 0.0
N365 N 0.88285 0.4821 0.15751 0.0
H366 H 0.35141 0.93108 0.52093 0.0
H367 H 0.23951 0.67842 0.48499 0.0
H368 H 0.41713 0.85616 0.49889 0.0
H369 H 0.17437 0.75878 0.49554 0.0
H370 H 0.30486 0.7405 0.49625 0.0
H371 H 0.28634 0.86552 0.51769 0.0
C372 C 0.35209 0.9007 0.51556 0.0
C373 C 0.38939 0.89886 0.50995 0.0
C374 C 0.2762 0.74442 0.49631 0.0
C375 C 0.31538 0.82397 0.50619 0.0
C376 C 0.23892 0.70898 0.49004 0.0
C377 C 0.20167 0.71371 0.4892 0.0
C378 C 0.27607 0.7847 0.50185 0.0
C379 C 0.20259 0.75403 0.4957 0.0
C380 C 0.31502 0.86335 0.51369 0.0
C381 C 0.38882 0.85881 0.5032 0.0
N382 N 0.23927 0.78807 0.50164 0.0
N383 N 0.35225 0.82287 0.50137 0.0
H384 H 0.49599 0.39303 0.85846 0.0
H385 H 0.61626 0.26128 0.80706 0.0
H386 H 0.58691 0.43938 0.8125 0.0
H387 H 0.53733 0.22126 0.85835 0.0
H388 H 0.60835 0.32809 0.81009 0.0
H389 H 0.51237 0.33119 0.85965 0.0
C390 C 0.51957 0.39024 0.8487 0.0
C391 C 0.54 0.42113 0.83528 0.0
C392 C 0.59304 0.30492 0.82082 0.0
C393 C 0.55883 0.35054 0.8365 0.0
C394 C 0.59783 0.26673 0.81924 0.0
C395 C 0.57749 0.23529 0.8325 0.0
C396 C 0.56734 0.31185 0.83564 0.0
C397 C 0.55316 0.24414 0.84759 0.0
C398 C 0.52897 0.35502 0.84941 0.0
C399 C 0.57045 0.41624 0.82306 0.0
N400 N 0.54854 0.28143 0.84866 0.0
N401 N 0.57873 0.38143 0.82385 0.0
H402 H 0.60754 0.97121 0.5437 0.0
H403 H 0.52933 0.73331 0.48668 0.0
H404 H 0.53444 0.9323 0.48654 0.0
H405 H 0.55191 0.76324 0.55237 0.0
H406 H 0.5401 0.80801 0.48424 0.0
H407 H 0.59663 0.89664 0.54513 0.0
C408 C 0.58927 0.9469 0.53143 0.0
C409 C 0.57172 0.95771 0.51503 0.0
C410 C 0.54255 0.79804 0.49916 0.0
C411 C 0.5595 0.87258 0.51641 0.0
C412 C 0.53663 0.75563 0.50053 0.0
C413 C 0.53946 0.74214 0.51976 0.0
C414 C 0.55229 0.82719 0.51708 0.0
C415 C 0.54896 0.77224 0.53728 0.0
C416 C 0.58293 0.90439 0.53228 0.0
C417 C 0.54822 0.92506 0.49953 0.0
N418 N 0.55527 0.81334 0.53551 0.0
N419 N 0.54296 0.88389 0.50052 0.0
H420 H 0.74374 0.62385 0.81551 0.0
H421 H 0.88694 0.50046 0.81998 0.0
H422 H 0.70042 0.48792 0.81969 0.0
H423 H 0.92762 0.63519 0.8407 0.0
H424 H 0.82286 0.49847 0.80538 0.0
H425 H 0.81449 0.62974 0.81118 0.0
C426 C 0.74916 0.59522 0.81523 0.0
C427 C 0.71692 0.55557 0.81851 0.0
C428 C 0.84625 0.52867 0.81272 0.0
C429 C 0.79658 0.56188 0.81316 0.0
C430 C 0.88256 0.52977 0.82112 0.0
C431 C 0.91154 0.56767 0.83216 0.0
C432 C 0.839 0.56562 0.81559 0.0
C433 C 0.90543 0.60518 0.83263 0.0
C434 C 0.78926 0.59857 0.81265 0.0
C435 C 0.72492 0.51923 0.8177 0.0
N436 N 0.86916 0.60303 0.82485 0.0
N437 N 0.76422 0.52332 0.8153 0.0
H438 H 0.14395 0.68929 0.17675 0.0
H439 H 0.38967 0.81252 0.16682 0.0
H440 H 0.21747 0.63301 0.14421 0.0
H441 H 0.31478 0.87667 0.18992 0.0
H442 H 0.32633 0.74682 0.15776 0.0
H443 H 0.20553 0.75867 0.18142 0.0
C444 C 0.17303 0.69167 0.17053 0.0
C445 C 0.17585 0.65553 0.16017 0.0
C446 C 0.32362 0.77533 0.16462 0.0
C447 C 0.24612 0.73432 0.16544 0.0
C448 C 0.35978 0.81278 0.16981 0.0
C449 C 0.35738 0.84992 0.1792 0.0
C450 C 0.28472 0.77479 0.16908 0.0
C451 C 0.31791 0.84873 0.18258 0.0
C452 C 0.20808 0.7312 0.17314 0.0
C453 C 0.21408 0.66016 0.15235 0.0
N454 N 0.28308 0.81158 0.17773 0.0
N455 N 0.24777 0.69875 0.15525 0.0
H456 H 0.46612 0.11844 0.48168 0.0
H457 H 0.58294 0.36373 0.53125 0.0
H458 H 0.5542 0.16104 0.53355 0.0
H459 H 0.48486 0.32045 0.48394 0.0
H460 H 0.57691 0.29065 0.53008 0.0
H461 H 0.47561 0.1927 0.48057 0.0
C462 C 0.48755 0.1435 0.4928 0.0
C463 C 0.50968 0.13373 0.50763 0.0
C464 C 0.55683 0.29709 0.51986 0.0
C465 C 0.52079 0.21871 0.50643 0.0
C466 C 0.56054 0.33902 0.52035 0.0
C467 C 0.5345 0.3485 0.50758 0.0
C468 C 0.5268 0.26405 0.50653 0.0
C469 C 0.50537 0.31467 0.49417 0.0
C470 C 0.493 0.18587 0.49214 0.0
C471 C 0.53699 0.16732 0.52168 0.0
N472 N 0.50227 0.27398 0.49402 0.0
N473 N 0.5418 0.2083 0.52073 0.0
H474 H 0.42404 0.59144 0.82049 0.0
H475 H 0.18946 0.46515 0.79753 0.0
H476 H 0.36597 0.45542 0.80037 0.0
H477 H 0.25263 0.60359 0.80507 0.0
H478 H 0.25399 0.46206 0.78709 0.0
H479 H 0.36444 0.59831 0.806 0.0
C480 C 0.39847 0.56297 0.81308 0.0
C481 C 0.39888 0.52256 0.81222 0.0
C482 C 0.25355 0.49323 0.79028 0.0
C483 C 0.33075 0.53 0.7955 0.0
C484 C 0.21653 0.49496 0.79606 0.0
C485 C 0.21659 0.53466 0.80299 0.0
C486 C 0.29043 0.53145 0.79197 0.0
C487 C 0.25209 0.57232 0.80054 0.0
C488 C 0.36475 0.56695 0.80449 0.0
C489 C 0.36598 0.48692 0.80181 0.0
N490 N 0.28817 0.56984 0.79587 0.0
N491 N 0.33267 0.49128 0.7942 0.0
H492 H 0.93236 0.30915 0.18067 0.0
H493 H 0.69035 0.17617 0.14986 0.0
H494 H 0.87516 0.33815 0.12986 0.0
H495 H 0.74314 0.19479 0.21134 0.0
H496 H 0.75929 0.22442 0.13876 0.0
H497 H 0.8644 0.25438 0.18823 0.0
C498 C 0.90552 0.30354 0.17093 0.0
C499 C 0.90919 0.32828 0.15471 0.0
C500 C 0.7556 0.21781 0.15465 0.0
C501 C 0.83141 0.26585 0.16331 0.0
C502 C 0.71648 0.19035 0.16095 0.0
C503 C 0.7112 0.18199 0.18156 0.0
C504 C 0.78956 0.23601 0.169 0.0
C505 C 0.74588 0.20095 0.19538 0.0
C506 C 0.86674 0.27249 0.17532 0.0
C507 C 0.87346 0.31974 0.14256 0.0
N508 N 0.7836 0.22691 0.18884 0.0
N509 N 0.83585 0.28921 0.14714 0.0
H510 H 0.11776 0.53132 0.08996 0.0
H511 H 0.02014 0.41491 0.97842 0.0
H512 H 1.00096 0.4178 0.08084 0.0
H513 H 0.1244 0.53957 0.99027 0.0
H514 H 0.01669 0.40976 0.01551 0.0
H515 H 0.12485 0.52858 0.0531 0.0
C516 C 0.09349 0.50569 0.08022 0.0
C517 C 0.0584 0.47498 0.08856 0.0
C518 C 0.04048 0.438 0.00991 0.0
C519 C 0.0665 0.47175 0.04604 0.0
C520 C 0.04243 0.44106 0.98877 0.0
C521 C 0.07257 0.4778 0.98117 0.0
C522 C 0.06896 0.47185 0.02348 0.0
C523 C 0.10104 0.51035 0.99529 0.0
C524 C 0.09765 0.50416 0.05909 0.0
C525 C 0.02839 0.44227 0.07507 0.0
N526 N 0.09838 0.50665 0.01571 0.0
N527 N 0.033 0.44165 0.05439 0.0
H528 H 0.59752 0.10284 0.44655 0.0
H529 H 0.48471 0.98002 0.33799 0.0
H530 H 0.48502 0.98444 0.43981 0.0
H531 H 0.59719 0.09825 0.34426 0.0
H532 H 0.48445 0.98135 0.37533 0.0
H533 H 0.59786 0.10209 0.4092 0.0
C534 C 0.57288 0.07665 0.43725 0.0
C535 C 0.54122 0.04358 0.44638 0.0
C536 C 0.50922 0.00702 0.36857 0.0
C537 C 0.54147 0.04263 0.40356 0.0
C538 C 0.50953 0.00615 0.34722 0.0
C539 C 0.54114 0.03897 0.33796 0.0
C540 C 0.54077 0.04097 0.38082 0.0
C541 C 0.57202 0.07248 0.35074 0.0
C542 C 0.57311 0.07629 0.4159 0.0
C543 C 0.5101 0.01059 0.4335 0.0
N544 N 0.57111 0.07256 0.37152 0.0
N545 N 0.51104 0.01096 0.41276 0.0
H546 H 0.61883 0.54714 0.76129 0.0
H547 H 0.48079 0.51421 0.65891 0.0
H548 H 0.48653 0.51103 0.76024 0.0
H549 H 0.61468 0.56312 0.66058 0.0
H550 H 0.48203 0.50944 0.69582 0.0
H551 H 0.61753 0.54905 0.72409 0.0
C552 C 0.58947 0.53945 0.75326 0.0
C553 C 0.55274 0.52903 0.76395 0.0
C554 C 0.51116 0.52122 0.68813 0.0
C555 C 0.55111 0.53125 0.72136 0.0
C556 C 0.5105 0.52421 0.66706 0.0
C557 C 0.54771 0.53931 0.65663 0.0
C558 C 0.5493 0.53332 0.6989 0.0
C559 C 0.5852 0.55092 0.66794 0.0
C560 C 0.58879 0.54064 0.73201 0.0
C561 C 0.51565 0.51936 0.75269 0.0
N562 N 0.58504 0.54774 0.68848 0.0
N563 N 0.51581 0.52077 0.73203 0.0
H564 H 0.50501 0.976 0.5744 0.0
H565 H 0.58747 0.10547 0.68539 0.0
H566 H 0.58506 0.11212 0.58377 0.0
H567 H 0.53929 0.96717 0.67392 0.0
H568 H 0.58101 0.10888 0.6486 0.0
H569 H 0.51055 0.97265 0.61135 0.0
C570 C 0.52354 0.00525 0.58423 0.0
C571 C 0.54463 0.04443 0.57598 0.0
C572 C 0.57195 0.07781 0.65414 0.0
C573 C 0.55109 0.04073 0.61825 0.0
C574 C 0.57589 0.07581 0.67516 0.0
C575 C 0.56412 0.03595 0.68286 0.0
C576 C 0.55574 0.03969 0.64065 0.0
C577 C 0.54829 0.99858 0.66879 0.0
C578 C 0.52685 0.00323 0.6053 0.0
C579 C 0.5684 0.08121 0.58945 0.0
N580 N 0.54449 0.00136 0.64839 0.0
N581 N 0.5709 0.07847 0.60993 0.0
H582 H 0.5222 0.57263 0.89985 0.0
H583 H 0.54818 0.45186 0.99156 0.0
H584 H 0.58592 0.49034 0.89327 0.0
H585 H 0.55563 0.5805 0.00271 0.0
H586 H 0.54964 0.45796 0.95477 0.0
H587 H 0.52149 0.56831 0.93715 0.0
C588 C 0.53594 0.55363 0.90626 0.0
C589 C 0.5543 0.53194 0.89354 0.0
C590 C 0.55098 0.48478 0.96535 0.0
C591 C 0.55289 0.5263 0.93586 0.0
C592 C 0.55046 0.48156 0.98643 0.0
C593 C 0.55222 0.51589 0.00055 0.0
C594 C 0.55227 0.52214 0.95815 0.0
C595 C 0.55362 0.55286 0.9926 0.0
C596 C 0.53568 0.55135 0.92748 0.0
C597 C 0.57179 0.50785 0.90258 0.0
N598 N 0.5534 0.55491 0.97194 0.0
N599 N 0.5703 0.50533 0.92318 0.0
H600 H 0.10273 0.55787 0.22277 0.0
H601 H 0.97752 0.45599 0.32036 0.0
H602 H 0.99274 0.43723 0.21886 0.0
H603 H 0.09246 0.57156 0.32491 0.0
H604 H 0.98191 0.44944 0.283 0.0
H605 H 0.09924 0.56399 0.26018 0.0
C606 C 0.0779 0.53262 0.22974 0.0
C607 C 0.04795 0.49702 0.2176 0.0
C608 C 1.00622 0.47621 0.29216 0.0
C609 C 0.04372 0.50392 0.26042 0.0
C610 C 1.00357 0.4801 0.31348 0.0
C611 C 0.03467 0.51437 0.32576 0.0
C612 C 0.04011 0.50691 0.28303 0.0
C613 C 0.06805 0.54435 0.31604 0.0
C614 C 0.07594 0.53614 0.25111 0.0
C615 C 0.01654 0.46528 0.22754 0.0
N616 N 0.06985 0.53997 0.29525 0.0
N617 N 0.0152 0.46956 0.24834 0.0
loop_
_geom_bond_atom_site_label_1
_geom_bond_atom_site_label_2
_geom_bond_distance
_geom_bond_site_symmetry_2
_ccdc_geom_bond_type
Tb0 O3 2.453 1_455 S
Tb0 O4 2.596 1_455 S
Tb0 O5 2.374 . S
Tb0 O13 2.343 . S
Tb0 O15 2.353 . S
Tb0 O17 2.427 . S
Tb0 O18 2.513 . S
C1 O5 1.251 . S
C1 O7 1.263 . S
Tb2 O4 2.343 1_455 S
Tb2 O7 2.353 . S
Tb2 O10 2.427 1_455 S
Tb2 O11 2.513 1_455 S
Tb2 O12 2.453 . S
Tb2 O13 2.596 . S
Tb2 O14 2.374 . S
O3 Tb0 2.453 1_655 S
O3 C19 1.245 . S
O4 Tb0 2.596 1_655 S
O4 Tb2 2.343 1_655 S
O4 C19 1.259 . S
O5 Tb0 2.374 . S
O5 C1 1.251 . S
C6 O10 1.275 . S
C6 O11 1.246 . S
O7 C1 1.263 . S
O7 Tb2 2.353 . S
C8 O12 1.245 . S
C8 O13 1.259 . S
C9 O14 1.250 . S
C9 O15 1.263 . S
O10 Tb2 2.427 1_655 S
O10 C6 1.275 . S
O11 Tb2 2.513 1_655 S
O11 C6 1.246 . S
O12 Tb2 2.453 . S
O12 C8 1.245 . S
O13 Tb0 2.343 . S
O13 Tb2 2.596 . S
O13 C8 1.259 . S
O14 Tb2 2.374 . S
O14 C9 1.250 . S
O15 Tb0 2.353 . S
O15 C9 1.263 . S
C16 O17 1.275 . S
C16 O18 1.246 . S
O17 Tb0 2.427 . S
O17 C16 1.275 . S
O18 Tb0 2.513 . S
O18 C16 1.246 . S
C19 O3 1.245 . S
C19 O4 1.259 . S
Tb20 O23 2.453 . S
Tb20 O24 2.596 . S
Tb20 O25 2.374 . S
Tb20 O33 2.343 1_545 S
Tb20 O35 2.353 . S
Tb20 O37 2.427 1_545 S
Tb20 O38 2.513 1_545 S
C21 O25 1.251 . S
C21 O27 1.263 . S
Tb22 O24 2.343 . S
Tb22 O27 2.353 . S
Tb22 O30 2.427 . S
Tb22 O31 2.513 . S
Tb22 O32 2.453 1_545 S
Tb22 O33 2.596 1_545 S
Tb22 O34 2.374 . S
O23 Tb20 2.453 . S
O23 C39 1.245 . S
O24 Tb20 2.596 . S
O24 Tb22 2.343 . S
O24 C39 1.259 . S
O25 Tb20 2.374 . S
O25 C21 1.251 . S
C26 O30 1.275 . S
C26 O31 1.246 . S
O27 C21 1.263 . S
O27 Tb22 2.353 . S
C28 O32 1.245 . S
C28 O33 1.259 . S
C29 O34 1.250 . S
C29 O35 1.263 . S
O30 Tb22 2.427 . S
O30 C26 1.275 . S
O31 Tb22 2.513 . S
O31 C26 1.246 . S
O32 Tb22 2.453 1_565 S
O32 C28 1.245 . S
O33 Tb20 2.343 1_565 S
O33 Tb22 2.596 1_565 S
O33 C28 1.259 . S
O34 Tb22 2.374 . S
O34 C29 1.250 . S
O35 Tb20 2.353 . S
O35 C29 1.263 . S
C36 O37 1.275 . S
C36 O38 1.246 . S
O37 Tb20 2.427 1_565 S
O37 C36 1.275 . S
O38 Tb20 2.513 1_565 S
O38 C36 1.246 . S
C39 O23 1.245 . S
C39 O24 1.259 . S
Tb40 O43 2.453 . S
Tb40 O44 2.596 . S
Tb40 O45 2.374 . S
Tb40 O53 2.343 . S
Tb40 O55 2.353 . S
Tb40 O57 2.427 . S
Tb40 O58 2.513 . S
C41 O45 1.251 . S
C41 O47 1.263 . S
Tb42 O44 2.343 . S
Tb42 O47 2.353 . S
Tb42 O50 2.427 . S
Tb42 O51 2.513 . S
Tb42 O52 2.453 . S
Tb42 O53 2.596 . S
Tb42 O54 2.374 . S
O43 Tb40 2.453 . S
O43 C59 1.245 . S
O44 Tb40 2.596 . S
O44 Tb42 2.343 . S
O44 C59 1.259 . S
O45 Tb40 2.374 . S
O45 C41 1.251 . S
C46 O50 1.275 . S
C46 O51 1.246 . S
O47 C41 1.263 . S
O47 Tb42 2.353 . S
C48 O52 1.245 . S
C48 O53 1.259 . S
C49 O54 1.250 . S
C49 O55 1.263 . S
O50 Tb42 2.427 . S
O50 C46 1.275 . S
O51 Tb42 2.513 . S
O51 C46 1.246 . S
O52 Tb42 2.453 . S
O52 C48 1.245 . S
O53 Tb40 2.343 . S
O53 Tb42 2.596 . S
O53 C48 1.259 . S
O54 Tb42 2.374 . S
O54 C49 1.250 . S
O55 Tb40 2.353 . S
O55 C49 1.263 . S
C56 O57 1.275 . S
C56 O58 1.246 . S
O57 Tb40 2.427 . S
O57 C56 1.275 . S
O58 Tb40 2.513 . S
O58 C56 1.246 . S
C59 O43 1.245 . S
C59 O44 1.259 . S
C60 C61 1.386 . S
C60 C62 1.397 . S
C60 H84 0.931 . S
C61 C60 1.386 . S
C61 C65 1.397 . S
C62 C60 1.397 . S
C62 C63 1.384 . S
C62 H85 0.930 . S
C63 C62 1.384 . S
C63 C64 1.377 . S
C63 C66 1.481 . S
C64 C63 1.377 . S
C64 C65 1.389 . S
C64 H86 0.929 1_545 S
C65 C61 1.397 . S
C65 C64 1.389 . S
C65 H87 0.931 1_545 S
C66 C63 1.481 . S
C66 C67 1.387 . S
C66 C71 1.390 . S
C67 C66 1.387 . S
C67 C68 1.401 . S
C67 H88 0.930 . S
C68 C67 1.401 . S
C68 C69 1.376 . S
C68 C77 1.511 . S
C69 C68 1.376 . S
C69 C70 1.392 . S
C69 H90 0.931 . S
C70 C69 1.392 . S
C70 C71 1.361 . S
C70 C72 1.500 1_545 S
C71 C66 1.390 . S
C71 C70 1.361 . S
C71 H89 0.931 1_545 S
C72 C70 1.500 1_565 S
C72 C73 1.371 . S
C72 C74 1.365 . S
C73 C72 1.371 . S
C73 C83 1.386 . S
C73 H91 0.931 . S
C74 C72 1.365 . S
C74 C75 1.409 . S
C74 H92 0.929 . S
C75 C74 1.409 . S
C75 C76 1.380 . S
C75 H93 0.930 . S
C76 C75 1.380 . S
C76 C83 1.357 . S
C77 C68 1.511 . S
C77 C78 1.341 . S
C77 C79 1.371 . S
C78 C77 1.341 . S
C78 C82 1.394 . S
C78 H94 0.930 . S
C79 C77 1.371 . S
C79 C80 1.392 . S
C79 H95 0.931 . S
C80 C79 1.392 . S
C80 C81 1.331 . S
C80 H98 0.932 . S
C81 C80 1.331 . S
C81 C82 1.336 . S
C82 C78 1.394 . S
C82 C81 1.336 . S
C82 H97 0.929 . S
C83 C73 1.386 . S
C83 C76 1.357 . S
C83 H96 0.928 . S
H84 C60 0.931 . S
H85 C62 0.930 . S
H86 C64 0.929 1_565 S
H87 C65 0.931 1_565 S
H88 C67 0.930 . S
H89 C71 0.931 1_565 S
H90 C69 0.931 . S
H91 C73 0.931 . S
H92 C74 0.929 . S
H93 C75 0.930 . S
H94 C78 0.930 . S
H95 C79 0.931 . S
H96 C83 0.928 . S
H97 C82 0.929 . S
H98 C80 0.932 . S
C99 C100 1.386 . S
C99 C101 1.397 . S
C99 H123 0.931 . S
C100 C99 1.386 . S
C100 C104 1.397 . S
C101 C99 1.397 . S
C101 C102 1.384 . S
C101 H124 0.930 . S
C102 C101 1.384 . S
C102 C103 1.377 . S
C102 C105 1.481 . S
C103 C102 1.377 . S
C103 C104 1.389 . S
C103 H125 0.929 . S
C104 C100 1.397 . S
C104 C103 1.389 . S
C104 H126 0.931 . S
C105 C102 1.481 . S
C105 C106 1.387 . S
C105 C110 1.390 . S
C106 C105 1.387 . S
C106 C107 1.401 . S
C106 H127 0.930 . S
C107 C106 1.401 . S
C107 C108 1.376 . S
C107 C116 1.511 . S
C108 C107 1.376 . S
C108 C109 1.392 . S
C108 H129 0.931 . S
C109 C108 1.392 . S
C109 C110 1.361 . S
C109 C111 1.500 . S
C110 C105 1.390 . S
C110 C109 1.361 . S
C110 H128 0.931 . S
C111 C109 1.500 . S
C111 C112 1.371 . S
C111 C113 1.365 . S
C112 C111 1.371 . S
C112 C122 1.386 . S
C112 H130 0.931 . S
C113 C111 1.365 . S
C113 C114 1.409 . S
C113 H131 0.929 . S
C114 C113 1.409 . S
C114 C115 1.380 . S
C114 H132 0.930 . S
C115 C114 1.380 . S
C115 C122 1.357 . S
C116 C107 1.511 . S
C116 C117 1.341 . S
C116 C118 1.371 . S
C117 C116 1.341 . S
C117 C121 1.394 . S
C117 H133 0.930 . S
C118 C116 1.371 . S
C118 C119 1.392 . S
C118 H134 0.931 . S
C119 C118 1.392 . S
C119 C120 1.331 . S
C119 H137 0.932 . S
C120 C119 1.331 . S
C120 C121 1.336 . S
C121 C117 1.394 . S
C121 C120 1.336 . S
C121 H136 0.929 . S
C122 C112 1.386 . S
C122 C115 1.357 . S
C122 H135 0.928 . S
H123 C99 0.931 . S
H124 C101 0.930 . S
H125 C103 0.929 . S
H126 C104 0.931 . S
H127 C106 0.930 . S
H128 C110 0.931 . S
H129 C108 0.931 . S
H130 C112 0.931 . S
H131 C113 0.929 . S
H132 C114 0.930 . S
H133 C117 0.930 . S
H134 C118 0.931 . S
H135 C122 0.928 . S
H136 C121 0.929 . S
H137 C119 0.932 . S
C138 C139 1.386 . S
C138 C140 1.397 . S
C138 H162 0.931 . S
C139 C138 1.386 . S
C139 C143 1.397 . S
C140 C138 1.397 . S
C140 C141 1.384 . S
C140 H163 0.930 . S
C141 C140 1.384 . S
C141 C142 1.377 . S
C141 C144 1.481 . S
C142 C141 1.377 . S
C142 C143 1.389 . S
C142 H164 0.929 . S
C143 C139 1.397 . S
C143 C142 1.389 . S
C143 H165 0.931 . S
C144 C141 1.481 . S
C144 C145 1.387 . S
C144 C149 1.390 . S
C145 C144 1.387 . S
C145 C146 1.401 . S
C145 H166 0.930 . S
C146 C145 1.401 . S
C146 C147 1.376 . S
C146 C155 1.511 . S
C147 C146 1.376 . S
C147 C148 1.392 . S
C147 H168 0.931 . S
C148 C147 1.392 . S
C148 C149 1.361 . S
C148 C150 1.500 . S
C149 C144 1.390 . S
C149 C148 1.361 . S
C149 H167 0.931 . S
C150 C148 1.500 . S
C150 C151 1.371 . S
C150 C152 1.365 1_455 S
C151 C150 1.371 . S
C151 C161 1.386 1_455 S
C151 H169 0.931 . S
C152 C150 1.365 1_655 S
C152 C153 1.409 . S
C152 H170 0.929 . S
C153 C152 1.409 . S
C153 C154 1.380 . S
C153 H171 0.930 . S
C154 C153 1.380 . S
C154 C161 1.357 . S
C155 C146 1.511 . S
C155 C156 1.341 . S
C155 C157 1.371 . S
C156 C155 1.341 . S
C156 C160 1.394 . S
C156 H172 0.930 . S
C157 C155 1.371 . S
C157 C158 1.392 . S
C157 H173 0.931 . S
C158 C157 1.392 . S
C158 C159 1.331 . S
C158 H176 0.932 . S
C159 C158 1.331 . S
C159 C160 1.336 . S
C160 C156 1.394 . S
C160 C159 1.336 . S
C160 H175 0.929 . S
C161 C151 1.386 1_655 S
C161 C154 1.357 . S
C161 H174 0.928 . S
H162 C138 0.931 . S
H163 C140 0.930 . S
H164 C142 0.929 . S
H165 C143 0.931 . S
H166 C145 0.930 . S
H167 C149 0.931 . S
H168 C147 0.931 . S
H169 C151 0.931 . S
H170 C152 0.929 . S
H171 C153 0.930 . S
H172 C156 0.930 . S
H173 C157 0.931 . S
H174 C161 0.928 . S
H175 C160 0.929 . S
H176 C158 0.932 . S
C177 C178 1.386 . S
C177 C179 1.397 . S
C177 H201 0.931 . S
C178 C177 1.386 . S
C178 C182 1.397 1_655 S
C179 C177 1.397 . S
C179 C180 1.384 . S
C179 H202 0.930 . S
C180 C179 1.384 . S
C180 C181 1.377 1_655 S
C180 C183 1.481 . S
C181 C180 1.377 1_455 S
C181 C182 1.389 . S
C181 H203 0.929 . S
C182 C178 1.397 1_455 S
C182 C181 1.389 . S
C182 H204 0.931 . S
C183 C180 1.481 . S
C183 C184 1.387 . S
C183 C188 1.390 1_655 S
C184 C183 1.387 . S
C184 C185 1.401 . S
C184 H205 0.930 . S
C185 C184 1.401 . S
C185 C186 1.365 1_655 S
C185 C194 1.511 . S
C186 C185 1.365 1_455 S
C186 C187 1.406 . S
C186 H207 0.930 . S
C187 C186 1.406 . S
C187 C188 1.361 . S
C187 C189 1.500 . S
C188 C183 1.390 1_455 S
C188 C187 1.361 . S
C188 H206 0.931 . S
C189 C187 1.500 . S
C189 C190 1.371 . S
C189 C191 1.365 . S
C190 C189 1.371 . S
C190 C200 1.386 . S
C190 H208 0.931 . S
C191 C189 1.365 . S
C191 C192 1.409 . S
C191 H209 0.929 . S
C192 C191 1.409 . S
C192 C193 1.380 . S
C192 H210 0.930 . S
C193 C192 1.380 . S
C193 C200 1.357 . S
C194 C185 1.511 . S
C194 C195 1.341 . S
C194 C196 1.371 . S
C195 C194 1.341 . S
C195 C199 1.394 . S
C195 H211 0.930 . S
C196 C194 1.371 . S
C196 C197 1.392 . S
C196 H212 0.931 . S
C197 C196 1.392 . S
C197 C198 1.331 . S
C197 H215 0.932 . S
C198 C197 1.331 . S
C198 C199 1.336 . S
C199 C195 1.394 . S
C199 C198 1.336 . S
C199 H214 0.929 . S
C200 C190 1.386 . S
C200 C193 1.357 . S
C200 H213 0.928 . S
H201 C177 0.931 . S
H202 C179 0.930 . S
H203 C181 0.929 . S
H204 C182 0.931 . S
H205 C184 0.930 . S
H206 C188 0.931 . S
H207 C186 0.930 . S
H208 C190 0.931 . S
H209 C191 0.929 . S
H210 C192 0.930 . S
H211 C195 0.930 . S
H212 C196 0.931 . S
H213 C200 0.928 . S
H214 C199 0.929 . S
H215 C197 0.932 . S
C216 C217 1.386 1_565 S
C216 C218 1.397 . S
C216 H240 0.931 . S
C217 C216 1.386 1_545 S
C217 C221 1.397 . S
C218 C216 1.397 . S
C218 C219 1.384 1_565 S
C218 H241 0.930 . S
C219 C218 1.384 1_545 S
C219 C220 1.377 . S
C219 C222 1.481 . S
C220 C219 1.377 . S
C220 C221 1.389 . S
C220 H242 0.929 . S
C221 C217 1.397 . S
C221 C220 1.389 . S
C221 H243 0.931 . S
C222 C219 1.481 . S
C222 C223 1.387 1_545 S
C222 C227 1.390 . S
C223 C222 1.387 1_565 S
C223 C224 1.401 . S
C223 H244 0.930 . S
C224 C223 1.401 . S
C224 C225 1.376 1_565 S
C224 C233 1.511 . S
C225 C224 1.376 1_545 S
C225 C226 1.392 . S
C225 H246 0.931 . S
C226 C225 1.392 . S
C226 C227 1.361 . S
C226 C228 1.500 . S
C227 C222 1.390 . S
C227 C226 1.361 . S
C227 H245 0.931 . S
C228 C226 1.500 . S
C228 C229 1.371 . S
C228 C230 1.365 . S
C229 C228 1.371 . S
C229 C239 1.386 . S
C229 H247 0.931 . S
C230 C228 1.365 . S
C230 C231 1.409 . S
C230 H248 0.929 . S
C231 C230 1.409 . S
C231 C232 1.380 . S
C231 H249 0.930 . S
C232 C231 1.380 . S
C232 C239 1.357 . S
C233 C224 1.511 . S
C233 C234 1.341 . S
C233 C235 1.371 . S
C234 C233 1.341 . S
C234 C238 1.394 . S
C234 H250 0.930 . S
C235 C233 1.371 . S
C235 C236 1.392 . S
C235 H251 0.931 . S
C236 C235 1.392 . S
C236 C237 1.331 . S
C236 H254 0.932 . S
C237 C236 1.331 . S
C237 C238 1.336 . S
C238 C234 1.394 . S
C238 C237 1.336 . S
C238 H253 0.929 . S
C239 C229 1.386 . S
C239 C232 1.357 . S
C239 H252 0.928 . S
H240 C216 0.931 . S
H241 C218 0.930 . S
H242 C220 0.929 . S
H243 C221 0.931 . S
H244 C223 0.930 . S
H245 C227 0.931 . S
H246 C225 0.931 . S
H247 C229 0.931 . S
H248 C230 0.929 . S
H249 C231 0.930 . S
H250 C234 0.930 . S
H251 C235 0.931 . S
H252 C239 0.928 . S
H253 C238 0.929 . S
H254 C236 0.932 . S
C255 C256 1.386 . S
C255 C257 1.397 . S
C255 H279 0.931 . S
C256 C255 1.386 . S
C256 C260 1.397 . S
C257 C255 1.397 . S
C257 C258 1.384 . S
C257 H280 0.930 . S
C258 C257 1.384 . S
C258 C259 1.377 . S
C258 C261 1.481 . S
C259 C258 1.377 . S
C259 C260 1.389 . S
C259 H281 0.929 . S
C260 C256 1.397 . S
C260 C259 1.389 . S
C260 H282 0.931 . S
C261 C258 1.481 . S
C261 C262 1.387 . S
C261 C266 1.390 . S
C262 C261 1.387 . S
C262 C263 1.401 . S
C262 H283 0.930 . S
C263 C262 1.401 . S
C263 C264 1.376 . S
C263 C272 1.511 . S
C264 C263 1.376 . S
C264 C265 1.392 . S
C264 H285 0.931 . S
C265 C264 1.392 . S
C265 C266 1.361 . S
C265 C267 1.500 . S
C266 C261 1.390 . S
C266 C265 1.361 . S
C266 H284 0.931 . S
C267 C265 1.500 . S
C267 C268 1.371 . S
C267 C269 1.365 . S
C268 C267 1.371 . S
C268 C278 1.386 . S
C268 H286 0.931 . S
C269 C267 1.365 . S
C269 C270 1.409 . S
C269 H287 0.929 . S
C270 C269 1.409 . S
C270 C271 1.380 . S
C270 H288 0.930 . S
C271 C270 1.380 . S
C271 C278 1.357 . S
C272 C263 1.511 . S
C272 C273 1.341 . S
C272 C274 1.371 . S
C273 C272 1.341 . S
C273 C277 1.394 . S
C273 H289 0.930 . S
C274 C272 1.371 . S
C274 C275 1.392 . S
C274 H290 0.931 . S
C275 C274 1.392 . S
C275 C276 1.331 . S
C275 H293 0.932 . S
C276 C275 1.331 . S
C276 C277 1.336 . S
C277 C273 1.394 . S
C277 C276 1.336 . S
C277 H292 0.929 . S
C278 C268 1.386 . S
C278 C271 1.357 . S
C278 H291 0.928 . S
H279 C255 0.931 . S
H280 C257 0.930 . S
H281 C259 0.929 . S
H282 C260 0.931 . S
H283 C262 0.930 . S
H284 C266 0.931 . S
H285 C264 0.931 . S
H286 C268 0.931 . S
H287 C269 0.929 . S
H288 C270 0.930 . S
H289 C273 0.930 . S
H290 C274 0.931 . S
H291 C278 0.928 . S
H292 C277 0.929 . S
H293 C275 0.932 . S
H294 C300 0.930 . S
H295 C304 0.930 . S
H296 C309 0.929 . S
H297 C307 0.929 . S
H298 C302 0.929 . S
H299 C308 0.929 . S
C300 H294 0.930 . S
C300 C301 1.367 . S
C300 C308 1.378 . S
C301 C300 1.367 . S
C301 C309 1.433 . S
C302 H298 0.929 . S
C302 C304 1.378 . S
C302 C306 1.350 . S
C303 C306 1.463 . S
C303 C308 1.350 . S
C303 N311 1.427 . S
C304 H295 0.930 . S
C304 C302 1.378 . S
C304 C305 1.367 . S
C305 C304 1.367 . S
C305 C307 1.433 . S
C306 C302 1.350 . S
C306 C303 1.463 . S
C306 N310 1.427 . S
C307 H297 0.929 . S
C307 C305 1.433 . S
C307 N310 1.384 . S
C308 H299 0.929 . S
C308 C300 1.378 . S
C308 C303 1.350 . S
C309 H296 0.929 . S
C309 C301 1.433 . S
C309 N311 1.384 . S
N310 C306 1.427 . S
N310 C307 1.384 . S
N311 C303 1.427 . S
N311 C309 1.384 . S
H312 C318 0.930 . S
H313 C322 0.930 . S
H314 C327 0.929 . S
H315 C325 0.929 . S
H316 C320 0.929 . S
H317 C326 0.929 . S
C318 H312 0.930 . S
C318 C319 1.367 . S
C318 C326 1.378 . S
C319 C318 1.367 . S
C319 C327 1.433 . S
C320 H316 0.929 . S
C320 C322 1.378 . S
C320 C324 1.350 . S
C321 C324 1.463 . S
C321 C326 1.350 . S
C321 N329 1.427 . S
C322 H313 0.930 . S
C322 C320 1.378 . S
C322 C323 1.367 . S
C323 C322 1.367 . S
C323 C325 1.433 . S
C324 C320 1.350 . S
C324 C321 1.463 . S
C324 N328 1.427 . S
C325 H315 0.929 . S
C325 C323 1.433 . S
C325 N328 1.384 . S
C326 H317 0.929 . S
C326 C318 1.378 . S
C326 C321 1.350 . S
C327 H314 0.929 . S
C327 C319 1.433 . S
C327 N329 1.384 . S
N328 C324 1.427 . S
N328 C325 1.384 . S
N329 C321 1.427 . S
N329 C327 1.384 . S
H330 C336 0.930 . S
H331 C340 0.930 . S
H332 C345 0.929 . S
H333 C343 0.929 . S
H334 C338 0.929 . S
H335 C344 0.929 . S
C336 H330 0.930 . S
C336 C337 1.367 . S
C336 C344 1.378 . S
C337 C336 1.367 . S
C337 C345 1.433 . S
C338 H334 0.929 . S
C338 C340 1.378 . S
C338 C342 1.350 . S
C339 C342 1.463 . S
C339 C344 1.350 . S
C339 N347 1.427 . S
C340 H331 0.930 . S
C340 C338 1.378 . S
C340 C341 1.367 . S
C341 C340 1.367 . S
C341 C343 1.433 . S
C342 C338 1.350 . S
C342 C339 1.463 . S
C342 N346 1.427 . S
C343 H333 0.929 . S
C343 C341 1.433 . S
C343 N346 1.384 . S
C344 H335 0.929 . S
C344 C336 1.378 . S
C344 C339 1.350 . S
C345 H332 0.929 . S
C345 C337 1.433 . S
C345 N347 1.384 . S
N346 C342 1.427 . S
N346 C343 1.384 . S
N347 C339 1.427 . S
N347 C345 1.384 . S
H348 C354 0.930 . S
H349 C358 0.930 . S
H350 C363 0.929 . S
H351 C361 0.929 . S
H352 C356 0.929 . S
H353 C362 0.929 . S
C354 H348 0.930 . S
C354 C355 1.367 . S
C354 C362 1.378 . S
C355 C354 1.367 . S
C355 C363 1.433 . S
C356 H352 0.929 . S
C356 C358 1.378 . S
C356 C360 1.350 . S
C357 C360 1.463 . S
C357 C362 1.350 . S
C357 N365 1.427 . S
C358 H349 0.930 . S
C358 C356 1.378 . S
C358 C359 1.367 . S
C359 C358 1.367 . S
C359 C361 1.433 . S
C360 C356 1.350 . S
C360 C357 1.463 . S
C360 N364 1.427 . S
C361 H351 0.929 . S
C361 C359 1.433 . S
C361 N364 1.384 . S
C362 H353 0.929 . S
C362 C354 1.378 . S
C362 C357 1.350 . S
C363 H350 0.929 . S
C363 C355 1.433 . S
C363 N365 1.384 . S
N364 C360 1.427 . S
N364 C361 1.384 . S
N365 C357 1.427 . S
N365 C363 1.384 . S
H366 C372 0.930 . S
H367 C376 0.930 . S
H368 C381 0.929 . S
H369 C379 0.929 . S
H370 C374 0.929 . S
H371 C380 0.929 . S
C372 H366 0.930 . S
C372 C373 1.367 . S
C372 C380 1.378 . S
C373 C372 1.367 . S
C373 C381 1.433 . S
C374 H370 0.929 . S
C374 C376 1.378 . S
C374 C378 1.350 . S
C375 C378 1.463 . S
C375 C380 1.350 . S
C375 N383 1.427 . S
C376 H367 0.930 . S
C376 C374 1.378 . S
C376 C377 1.367 . S
C377 C376 1.367 . S
C377 C379 1.433 . S
C378 C374 1.350 . S
C378 C375 1.463 . S
C378 N382 1.427 . S
C379 H369 0.929 . S
C379 C377 1.433 . S
C379 N382 1.384 . S
C380 H371 0.929 . S
C380 C372 1.378 . S
C380 C375 1.350 . S
C381 H368 0.929 . S
C381 C373 1.433 . S
C381 N383 1.384 . S
N382 C378 1.427 . S
N382 C379 1.384 . S
N383 C375 1.427 . S
N383 C381 1.384 . S
H384 C390 0.930 . S
H385 C394 0.930 . S
H386 C399 0.929 . S
H387 C397 0.929 . S
H388 C392 0.929 . S
H389 C398 0.929 . S
C390 H384 0.930 . S
C390 C391 1.367 . S
C390 C398 1.378 . S
C391 C390 1.367 . S
C391 C399 1.433 . S
C392 H388 0.929 . S
C392 C394 1.378 . S
C392 C396 1.350 . S
C393 C396 1.463 . S
C393 C398 1.350 . S
C393 N401 1.427 . S
C394 H385 0.930 . S
C394 C392 1.378 . S
C394 C395 1.367 . S
C395 C394 1.367 . S
C395 C397 1.433 . S
C396 C392 1.350 . S
C396 C393 1.463 . S
C396 N400 1.427 . S
C397 H387 0.929 . S
C397 C395 1.433 . S
C397 N400 1.384 . S
C398 H389 0.929 . S
C398 C390 1.378 . S
C398 C393 1.350 . S
C399 H386 0.929 . S
C399 C391 1.433 . S
C399 N401 1.384 . S
N400 C396 1.427 . S
N400 C397 1.384 . S
N401 C393 1.427 . S
N401 C399 1.384 . S
H402 C408 0.930 . S
H403 C412 0.930 . S
H404 C417 0.929 . S
H405 C415 0.929 . S
H406 C410 0.929 . S
H407 C416 0.929 . S
C408 H402 0.930 . S
C408 C409 1.367 . S
C408 C416 1.378 . S
C409 C408 1.367 . S
C409 C417 1.433 . S
C410 H406 0.929 . S
C410 C412 1.378 . S
C410 C414 1.350 . S
C411 C414 1.463 . S
C411 C416 1.350 . S
C411 N419 1.427 . S
C412 H403 0.930 . S
C412 C410 1.378 . S
C412 C413 1.367 . S
C413 C412 1.367 . S
C413 C415 1.433 . S
C414 C410 1.350 . S
C414 C411 1.463 . S
C414 N418 1.427 . S
C415 H405 0.929 . S
C415 C413 1.433 . S
C415 N418 1.384 . S
C416 H407 0.929 . S
C416 C408 1.378 . S
C416 C411 1.350 . S
C417 H404 0.929 . S
C417 C409 1.433 . S
C417 N419 1.384 . S
N418 C414 1.427 . S
N418 C415 1.384 . S
N419 C411 1.427 . S
N419 C417 1.384 . S
H420 C426 0.930 . S
H421 C430 0.930 . S
H422 C435 0.929 . S
H423 C433 0.929 . S
H424 C428 0.929 . S
H425 C434 0.929 . S
C426 H420 0.930 . S
C426 C427 1.367 . S
C426 C434 1.378 . S
C427 C426 1.367 . S
C427 C435 1.433 . S
C428 H424 0.929 . S
C428 C430 1.378 . S
C428 C432 1.350 . S
C429 C432 1.463 . S
C429 C434 1.350 . S
C429 N437 1.427 . S
C430 H421 0.930 . S
C430 C428 1.378 . S
C430 C431 1.367 . S
C431 C430 1.367 . S
C431 C433 1.433 . S
C432 C428 1.350 . S
C432 C429 1.463 . S
C432 N436 1.427 . S
C433 H423 0.929 . S
C433 C431 1.433 . S
C433 N436 1.384 . S
C434 H425 0.929 . S
C434 C426 1.378 . S
C434 C429 1.350 . S
C435 H422 0.929 . S
C435 C427 1.433 . S
C435 N437 1.384 . S
N436 C432 1.427 . S
N436 C433 1.384 . S
N437 C429 1.427 . S
N437 C435 1.384 . S
H438 C444 0.930 . S
H439 C448 0.930 . S
H440 C453 0.929 . S
H441 C451 0.929 . S
H442 C446 0.929 . S
H443 C452 0.929 . S
C444 H438 0.930 . S
C444 C445 1.367 . S
C444 C452 1.378 . S
C445 C444 1.367 . S
C445 C453 1.433 . S
C446 H442 0.929 . S
C446 C448 1.378 . S
C446 C450 1.350 . S
C447 C450 1.463 . S
C447 C452 1.350 . S
C447 N455 1.427 . S
C448 H439 0.930 . S
C448 C446 1.378 . S
C448 C449 1.367 . S
C449 C448 1.367 . S
C449 C451 1.433 . S
C450 C446 1.350 . S
C450 C447 1.463 . S
C450 N454 1.427 . S
C451 H441 0.929 . S
C451 C449 1.433 . S
C451 N454 1.384 . S
C452 H443 0.929 . S
C452 C444 1.378 . S
C452 C447 1.350 . S
C453 H440 0.929 . S
C453 C445 1.433 . S
C453 N455 1.384 . S
N454 C450 1.427 . S
N454 C451 1.384 . S
N455 C447 1.427 . S
N455 C453 1.384 . S
H456 C462 0.930 . S
H457 C466 0.930 . S
H458 C471 0.929 . S
H459 C469 0.929 . S
H460 C464 0.929 . S
H461 C470 0.929 . S
C462 H456 0.930 . S
C462 C463 1.367 . S
C462 C470 1.378 . S
C463 C462 1.367 . S
C463 C471 1.433 . S
C464 H460 0.929 . S
C464 C466 1.378 . S
C464 C468 1.350 . S
C465 C468 1.463 . S
C465 C470 1.350 . S
C465 N473 1.427 . S
C466 H457 0.930 . S
C466 C464 1.378 . S
C466 C467 1.367 . S
C467 C466 1.367 . S
C467 C469 1.433 . S
C468 C464 1.350 . S
C468 C465 1.463 . S
C468 N472 1.427 . S
C469 H459 0.929 . S
C469 C467 1.433 . S
C469 N472 1.384 . S
C470 H461 0.929 . S
C470 C462 1.378 . S
C470 C465 1.350 . S
C471 H458 0.929 . S
C471 C463 1.433 . S
C471 N473 1.384 . S
N472 C468 1.427 . S
N472 C469 1.384 . S
N473 C465 1.427 . S
N473 C471 1.384 . S
H474 C480 0.930 . S
H475 C484 0.930 . S
H476 C489 0.929 . S
H477 C487 0.929 . S
H478 C482 0.929 . S
H479 C488 0.929 . S
C480 H474 0.930 . S
C480 C481 1.367 . S
C480 C488 1.378 . S
C481 C480 1.367 . S
C481 C489 1.433 . S
C482 H478 0.929 . S
C482 C484 1.378 . S
C482 C486 1.350 . S
C483 C486 1.463 . S
C483 C488 1.350 . S
C483 N491 1.427 . S
C484 H475 0.930 . S
C484 C482 1.378 . S
C484 C485 1.367 . S
C485 C484 1.367 . S
C485 C487 1.433 . S
C486 C482 1.350 . S
C486 C483 1.463 . S
C486 N490 1.427 . S
C487 H477 0.929 . S
C487 C485 1.433 . S
C487 N490 1.384 . S
C488 H479 0.929 . S
C488 C480 1.378 . S
C488 C483 1.350 . S
C489 H476 0.929 . S
C489 C481 1.433 . S
C489 N491 1.384 . S
N490 C486 1.427 . S
N490 C487 1.384 . S
N491 C483 1.427 . S
N491 C489 1.384 . S
H492 C498 0.930 . S
H493 C502 0.930 . S
H494 C507 0.929 . S
H495 C505 0.929 . S
H496 C500 0.929 . S
H497 C506 0.929 . S
C498 H492 0.930 . S
C498 C499 1.367 . S
C498 C506 1.378 . S
C499 C498 1.367 . S
C499 C507 1.433 . S
C500 H496 0.929 . S
C500 C502 1.378 . S
C500 C504 1.350 . S
C501 C504 1.463 . S
C501 C506 1.350 . S
C501 N509 1.427 . S
C502 H493 0.930 . S
C502 C500 1.378 . S
C502 C503 1.367 . S
C503 C502 1.367 . S
C503 C505 1.433 . S
C504 C500 1.350 . S
C504 C501 1.463 . S
C504 N508 1.427 . S
C505 H495 0.929 . S
C505 C503 1.433 . S
C505 N508 1.384 . S
C506 H497 0.929 . S
C506 C498 1.378 . S
C506 C501 1.350 . S
C507 H494 0.929 . S
C507 C499 1.433 . S
C507 N509 1.384 . S
N508 C504 1.427 . S
N508 C505 1.384 . S
N509 C501 1.427 . S
N509 C507 1.384 . S
H510 C516 0.930 . S
H511 C520 0.930 1_556 S
H512 C525 0.929 . S
H513 C523 0.929 . S
H514 C518 0.929 . S
H515 C524 0.929 . S
C516 H510 0.930 . S
C516 C517 1.367 . S
C516 C524 1.378 . S
C517 C516 1.367 . S
C517 C525 1.433 . S
C518 H514 0.929 . S
C518 C520 1.378 . S
C518 C522 1.350 . S
C519 C522 1.463 . S
C519 C524 1.350 . S
C519 N527 1.427 . S
C520 H511 0.930 1_554 S
C520 C518 1.378 . S
C520 C521 1.367 1_554 S
C521 C520 1.367 1_556 S
C521 C523 1.433 1_556 S
C522 C518 1.350 . S
C522 C519 1.463 . S
C522 N526 1.427 . S
C523 H513 0.929 . S
C523 C521 1.433 1_554 S
C523 N526 1.384 . S
C524 H515 0.929 . S
C524 C516 1.378 . S
C524 C519 1.350 . S
C525 H512 0.929 . S
C525 C517 1.433 . S
C525 N527 1.384 . S
N526 C522 1.427 . S
N526 C523 1.384 . S
N527 C519 1.427 . S
N527 C525 1.384 . S
H528 C534 0.930 . S
H529 C538 0.930 . S
H530 C543 0.929 . S
H531 C541 0.929 . S
H532 C536 0.929 . S
H533 C542 0.929 . S
C534 H528 0.930 . S
C534 C535 1.367 . S
C534 C542 1.378 . S
C535 C534 1.367 . S
C535 C543 1.433 . S
C536 H532 0.929 . S
C536 C538 1.378 . S
C536 C540 1.350 . S
C537 C540 1.463 . S
C537 C542 1.350 . S
C537 N545 1.427 . S
C538 H529 0.930 . S
C538 C536 1.378 . S
C538 C539 1.367 . S
C539 C538 1.367 . S
C539 C541 1.433 . S
C540 C536 1.350 . S
C540 C537 1.463 . S
C540 N544 1.427 . S
C541 H531 0.929 . S
C541 C539 1.433 . S
C541 N544 1.384 . S
C542 H533 0.929 . S
C542 C534 1.378 . S
C542 C537 1.350 . S
C543 H530 0.929 . S
C543 C535 1.433 . S
C543 N545 1.384 . S
N544 C540 1.427 . S
N544 C541 1.384 . S
N545 C537 1.427 . S
N545 C543 1.384 . S
H546 C552 0.930 . S
H547 C556 0.930 . S
H548 C561 0.929 . S
H549 C559 0.929 . S
H550 C554 0.929 . S
H551 C560 0.929 . S
C552 H546 0.930 . S
C552 C553 1.367 . S
C552 C560 1.378 . S
C553 C552 1.367 . S
C553 C561 1.433 . S
C554 H550 0.929 . S
C554 C556 1.378 . S
C554 C558 1.350 . S
C555 C558 1.463 . S
C555 C560 1.350 . S
C555 N563 1.427 . S
C556 H547 0.930 . S
C556 C554 1.378 . S
C556 C557 1.367 . S
C557 C556 1.367 . S
C557 C559 1.433 . S
C558 C554 1.350 . S
C558 C555 1.463 . S
C558 N562 1.427 . S
C559 H549 0.929 . S
C559 C557 1.433 . S
C559 N562 1.384 . S
C560 H551 0.929 . S
C560 C552 1.378 . S
C560 C555 1.350 . S
C561 H548 0.929 . S
C561 C553 1.433 . S
C561 N563 1.384 . S
N562 C558 1.427 . S
N562 C559 1.384 . S
N563 C555 1.427 . S
N563 C561 1.384 . S
H564 C570 0.930 . S
H565 C574 0.930 . S
H566 C579 0.929 . S
H567 C577 0.929 . S
H568 C572 0.929 . S
H569 C578 0.929 . S
C570 H564 0.930 . S
C570 C571 1.367 1_565 S
C570 C578 1.378 . S
C571 C570 1.367 1_545 S
C571 C579 1.433 . S
C572 H568 0.929 . S
C572 C574 1.378 . S
C572 C576 1.350 . S
C573 C576 1.463 . S
C573 C578 1.350 1_545 S
C573 N581 1.427 . S
C574 H565 0.930 . S
C574 C572 1.378 . S
C574 C575 1.367 . S
C575 C574 1.367 . S
C575 C577 1.433 1_545 S
C576 C572 1.350 . S
C576 C573 1.463 . S
C576 N580 1.427 1_545 S
C577 H567 0.929 . S
C577 C575 1.433 1_565 S
C577 N580 1.384 . S
C578 H569 0.929 . S
C578 C570 1.378 . S
C578 C573 1.350 1_565 S
C579 H566 0.929 . S
C579 C571 1.433 . S
C579 N581 1.384 . S
N580 C576 1.427 1_565 S
N580 C577 1.384 . S
N581 C573 1.427 . S
N581 C579 1.384 . S
H582 C588 0.930 . S
H583 C592 0.930 . S
H584 C597 0.929 . S
H585 C595 0.929 1_554 S
H586 C590 0.929 . S
H587 C596 0.929 . S
C588 H582 0.930 . S
C588 C589 1.367 . S
C588 C596 1.378 . S
C589 C588 1.367 . S
C589 C597 1.433 . S
C590 H586 0.929 . S
C590 C592 1.378 . S
C590 C594 1.350 . S
C591 C594 1.463 . S
C591 C596 1.350 . S
C591 N599 1.427 . S
C592 H583 0.930 . S
C592 C590 1.378 . S
C592 C593 1.397 . S
C593 C592 1.397 . S
C593 C595 1.454 . S
C594 C590 1.350 . S
C594 C591 1.463 . S
C594 N598 1.427 . S
C595 H585 0.929 1_556 S
C595 C593 1.454 . S
C595 N598 1.384 . S
C596 H587 0.929 . S
C596 C588 1.378 . S
C596 C591 1.350 . S
C597 H584 0.929 . S
C597 C589 1.433 . S
C597 N599 1.384 . S
N598 C594 1.427 . S
N598 C595 1.384 . S
N599 C591 1.427 . S
N599 C597 1.384 . S
H600 C606 0.930 . S
H601 C610 0.930 . S
H602 C615 0.929 . S
H603 C613 0.929 . S
H604 C608 0.929 . S
H605 C614 0.929 . S
C606 H600 0.930 . S
C606 C607 1.367 . S
C606 C614 1.378 . S
C607 C606 1.367 . S
C607 C615 1.433 1_455 S
C608 H604 0.929 . S
C608 C610 1.378 . S
C608 C612 1.350 1_655 S
C609 C612 1.463 . S
C609 C614 1.350 . S
C609 N617 1.427 1_455 S
C610 H601 0.930 . S
C610 C608 1.378 . S
C610 C611 1.360 1_655 S
C611 C610 1.360 1_455 S
C611 C613 1.441 . S
C612 C608 1.350 1_455 S
C612 C609 1.463 . S
C612 N616 1.427 . S
C613 H603 0.929 . S
C613 C611 1.441 . S
C613 N616 1.384 . S
C614 H605 0.929 . S
C614 C606 1.378 . S
C614 C609 1.350 . S
C615 H602 0.929 . S
C615 C607 1.433 1_655 S
C615 N617 1.384 . S
N616 C612 1.427 . S
N616 C613 1.384 . S
N617 C609 1.427 1_655 S
N617 C615 1.384 . S
C301 C8 2.041 . S
C305 C271 2.090 . S
C319 C26 1.348 . S
C323 C198 1.348 . S
C337 C48 1.508 . S
C341 C237 1.543 . S
C355 C19 1.826 . S
C359 C276 1.864 . S
C377 C193 1.518 . S
C373 C36 1.522 . S
C395 C232 1.758 . S
C391 C59 1.727 . S
C409 C28 1.534 . S
C413 C120 1.580 . S
C427 C46 1.248 . S
C431 C154 1.248 . S
C445 C16 1.589 . S
C449 C76 1.602 . S
C467 C115 1.719 . S
C463 C39 1.704 . S
C485 C159 1.030 . S
C481 C56 1.032 . S
C499 C6 1.395 . S
C503 C81 1.389 . S
C521 C139 1.435 . S
C517 C9 1.402 . S
C535 C21 1.502 . S
C539 C61 1.513 . S
C553 C49 1.477 . S
C557 C100 1.490 . S
C575 C217 1.472 . S
C571 C29 1.468 . S
C593 C256 1.538 1_556 S
C589 C41 1.569 . S
C607 C1 1.494 . S
C611 C178 1.513 1_455 S
