# Generated by pormake.
# Topology pyr, (3,6)-cn, num edge types: 1
# Building blocks:
#     Node 0, Type 0, BuildingBlock: KAKCAD_clean_linker_0, # of connection points: 3
#     Node 1, Type 0, BuildingBlock: KAKCAD_clean_linker_0, # of connection points: 3
#     Node 2, Type 0, BuildingBlock: KAKCAD_clean_linker_0, # of connection points: 3
#     Node 3, Type 0, BuildingBlock: KAKCAD_clean_linker_0, # of connection points: 3
#     Node 4, Type 0, BuildingBlock: KAKCAD_clean_linker_0, # of connection points: 3
#     Node 5, Type 0, BuildingBlock: KAKCAD_clean_linker_0, # of connection points: 3
#     Node 6, Type 0, BuildingBlock: KAKCAD_clean_linker_0, # of connection points: 3
#     Node 7, Type 0, BuildingBlock: KAKCAD_clean_linker_0, # of connection points: 3
#     Node 8, Type 1, BuildingBlock: BETDEL_clean_sbu_0, # of connection points: 6
#     Node 9, Type 1, BuildingBlock: BETDEL_clean_sbu_0, # of connection points: 6
#     Node 10, Type 1, BuildingBlock: BETDEL_clean_sbu_0, # of connection points: 6
#     Node 11, Type 1, BuildingBlock: BETDEL_clean_sbu_0, # of connection points: 6
#     Edge 12, Type (0, 1), None
#     Edge 13, Type (0, 1), None
#     Edge 14, Type (0, 1), None
#     Edge 15, Type (0, 1), None
#     Edge 16, Type (0, 1), None
#     Edge 17, Type (0, 1), None
#     Edge 18, Type (0, 1), None
#     Edge 19, Type (0, 1), None
#     Edge 20, Type (0, 1), None
#     Edge 21, Type (0, 1), None
#     Edge 22, Type (0, 1), None
#     Edge 23, Type (0, 1), None
#     Edge 24, Type (0, 1), None
#     Edge 25, Type (0, 1), None
#     Edge 26, Type (0, 1), None
#     Edge 27, Type (0, 1), None
#     Edge 28, Type (0, 1), None
#     Edge 29, Type (0, 1), None
#     Edge 30, Type (0, 1), None
#     Edge 31, Type (0, 1), None
#     Edge 32, Type (0, 1), None
#     Edge 33, Type (0, 1), None
#     Edge 34, Type (0, 1), None
#     Edge 35, Type (0, 1), None
# Relax obj value: 0.044
# Max RMSD: 0.097
# Mean RMSD: 0.043
data_MOF--net-pyr--node1-BETDEL_clean_sbu_0--node2-KAKCAD_clean_linker_0--edge1-none
_symmetry_space_group_name_H-M    P1
_symmetry_Int_Tables_number       1
_symmetry_cell_setting            triclinic
loop_
_symmetry_equiv_pos_as_xyz
'x, y, z'
_cell_length_a     24.44161
_cell_length_b     25.796701
_cell_length_c     24.016143
_cell_angle_alpha  91.657613
_cell_angle_beta   88.511433
_cell_angle_gamma 96.85879
loop_
_atom_site_label
_atom_site_type_symbol
_atom_site_fract_x
_atom_site_fract_y
_atom_site_fract_z
_atom_type_partial_charge
C0 C 0.1241 0.13652 0.30749 0.0
C1 C 0.14802 0.11488 0.35215 0.0
C2 C 0.15483 0.17409 0.27596 0.0
C3 C 0.21008 0.19099 0.28868 0.0
C4 C 0.23417 0.16929 0.33352 0.0
C5 C 0.20312 0.13145 0.36532 0.0
C6 C 0.24314 0.22532 0.24946 0.0
C7 C 0.21847 0.26488 0.22514 0.0
C8 C 0.23271 0.27931 0.17048 0.0
C9 C 0.27851 0.2605 0.14396 0.0
C10 C 0.30753 0.22512 0.17105 0.0
C11 C 0.28995 0.20805 0.2241 0.0
C12 C 0.34623 0.19527 0.13981 0.0
C13 C 0.32841 0.16709 0.09151 0.0
C14 C 0.3965 0.18726 0.16306 0.0
C15 C 0.42789 0.1504 0.13907 0.0
C16 C 0.40875 0.12049 0.0922 0.0
C17 C 0.19343 0.30539 0.13867 0.0
C18 C 0.13631 0.29067 0.14601 0.0
C19 C 0.21197 0.34426 0.10077 0.0
C20 C 0.174 0.36979 0.07298 0.0
C21 C 0.11714 0.35709 0.08327 0.0
C22 C 0.0985 0.31681 0.11911 0.0
C23 C 0.35929 0.12979 0.06803 0.0
H24 H 0.08161 0.12439 0.29675 0.0
H25 H 0.13566 0.18861 0.24035 0.0
H26 H 0.27689 0.18117 0.34344 0.0
H27 H 0.22208 0.11535 0.40016 0.0
H28 H 0.18274 0.27872 0.24575 0.0
H29 H 0.30788 0.1759 0.24181 0.0
H30 H 0.28877 0.26972 0.1009 0.0
H31 H 0.28914 0.17191 0.0736 0.0
H32 H 0.41045 0.20824 0.20079 0.0
H33 H 0.46619 0.14427 0.15816 0.0
H34 H 0.12061 0.25926 0.17315 0.0
H35 H 0.25562 0.35602 0.09394 0.0
H36 H 0.3441 0.10792 0.03128 0.0
H37 H 0.05483 0.30619 0.12715 0.0
H38 H 0.18924 0.40105 0.04542 0.0
C39 C 0.3181 0.874 0.87759 0.0
C40 C 0.33978 0.926 0.86868 0.0
C41 C 0.28873 0.84516 0.83563 0.0
C42 C 0.27986 0.86852 0.78506 0.0
C43 C 0.2978 0.92172 0.77824 0.0
C44 C 0.32796 0.95015 0.81962 0.0
C45 C 0.26039 0.83647 0.7362 0.0
C46 C 0.21952 0.85197 0.70294 0.0
C47 C 0.20759 0.82735 0.65092 0.0
C48 C 0.2386 0.78703 0.63223 0.0
C49 C 0.28081 0.77202 0.66511 0.0
C50 C 0.28978 0.7958 0.7178 0.0
C51 C 0.31897 0.73483 0.64371 0.0
C52 C 0.29913 0.68827 0.61547 0.0
C53 C 0.37605 0.74548 0.65284 0.0
C54 C 0.41224 0.70997 0.63521 0.0
C55 C 0.39224 0.66329 0.60762 0.0
C56 C 0.16742 0.84879 0.61463 0.0
C57 C 0.12166 0.87056 0.63844 0.0
C58 C 0.17786 0.85353 0.55701 0.0
C59 C 0.14559 0.88199 0.52494 0.0
C60 C 0.10298 0.90722 0.54995 0.0
C61 C 0.09042 0.90017 0.60666 0.0
C62 C 0.33544 0.65282 0.59764 0.0
H63 H 0.32694 0.85472 0.91526 0.0
H64 H 0.27527 0.80408 0.8415 0.0
H65 H 0.29196 0.94036 0.73933 0.0
H66 H 0.34419 0.99036 0.81214 0.0
H67 H 0.19918 0.88533 0.71671 0.0
H68 H 0.32227 0.78484 0.74336 0.0
H69 H 0.23144 0.76874 0.5915 0.0
H70 H 0.25551 0.67883 0.60807 0.0
H71 H 0.39293 0.78156 0.67343 0.0
H72 H 0.45585 0.71926 0.6428 0.0
H73 H 0.11121 0.86649 0.68231 0.0
H74 H 0.21281 0.83792 0.53705 0.0
H75 H 0.31895 0.61706 0.57618 0.0
H76 H 0.05741 0.9187 0.62683 0.0
H77 H 0.15607 0.88662 0.48112 0.0
C78 C 0.81612 0.46316 0.92636 0.0
C79 C 0.85655 0.43268 0.94327 0.0
C80 C 0.76749 0.43993 0.90155 0.0
C81 C 0.75774 0.38542 0.89252 0.0
C82 C 0.79818 0.35495 0.90976 0.0
C83 C 0.84671 0.37819 0.93486 0.0
C84 C 0.70595 0.36051 0.86512 0.0
C85 C 0.68218 0.38556 0.82174 0.0
C86 C 0.63436 0.36223 0.79495 0.0
C87 C 0.61002 0.3126 0.81259 0.0
C88 C 0.63217 0.2868 0.85676 0.0
C89 C 0.68016 0.31144 0.88229 0.0
C90 C 0.60444 0.23523 0.87791 0.0
C91 C 0.54661 0.22513 0.88104 0.0
C92 C 0.6351 0.19632 0.89718 0.0
C93 C 0.60869 0.14918 0.91886 0.0
C94 C 0.55085 0.13959 0.92194 0.0
C95 C 0.61098 0.38949 0.74773 0.0
C96 C 0.60319 0.44286 0.75219 0.0
C97 C 0.59794 0.36285 0.69697 0.0
C98 C 0.57892 0.38883 0.65184 0.0
C99 C 0.57104 0.44215 0.65615 0.0
C100 C 0.58287 0.46862 0.70734 0.0
C101 C 0.52041 0.17835 0.90267 0.0
H102 H 0.82197 0.50523 0.93221 0.0
H103 H 0.73728 0.46487 0.8899 0.0
H104 H 0.79293 0.313 0.90295 0.0
H105 H 0.87693 0.35339 0.94689 0.0
H106 H 0.70195 0.42275 0.80736 0.0
H107 H 0.69662 0.29306 0.91711 0.0
H108 H 0.57355 0.29424 0.79197 0.0
H109 H 0.52123 0.25397 0.86788 0.0
H110 H 0.6797 0.20206 0.89517 0.0
H111 H 0.6335 0.12033 0.93315 0.0
H112 H 0.61258 0.46471 0.79063 0.0
H113 H 0.60371 0.32201 0.69164 0.0
H114 H 0.47578 0.17272 0.90453 0.0
H115 H 0.57745 0.50955 0.71245 0.0
H116 H 0.57012 0.3668 0.61337 0.0
C117 C 0.87851 0.54413 0.16482 0.0
C118 C 0.93256 0.5582 0.14465 0.0
C119 C 0.85583 0.57278 0.20867 0.0
C120 C 0.88703 0.61569 0.23553 0.0
C121 C 0.9415 0.62944 0.21486 0.0
C122 C 0.96348 0.60173 0.16975 0.0
C123 C 0.86336 0.64511 0.28491 0.0
C124 C 0.81948 0.62091 0.31873 0.0
C125 C 0.79729 0.64745 0.36479 0.0
C126 C 0.8208 0.69872 0.37795 0.0
C127 C 0.86432 0.72463 0.34578 0.0
C128 C 0.88463 0.69749 0.29899 0.0
C129 C 0.88853 0.77961 0.36249 0.0
C130 C 0.85559 0.81426 0.39014 0.0
C131 C 0.94519 0.79714 0.35461 0.0
C132 C 0.96823 0.84625 0.376 0.0
C133 C 0.93548 0.87875 0.40658 0.0
C134 C 0.7488 0.6227 0.39909 0.0
C135 C 0.70412 0.59184 0.3739 0.0
C136 C 0.745 0.63258 0.45713 0.0
C137 C 0.69741 0.61448 0.48828 0.0
C138 C 0.65212 0.58543 0.46268 0.0
C139 C 0.65656 0.5734 0.40526 0.0
C140 C 0.87887 0.8624 0.41274 0.0
H141 H 0.85335 0.51104 0.14619 0.0
H142 H 0.81342 0.56098 0.22096 0.0
H143 H 0.96822 0.66097 0.23408 0.0
H144 H 1.00551 0.61341 0.15571 0.0
H145 H 0.80312 0.5807 0.31051 0.0
H146 H 0.91632 0.71792 0.27289 0.0
H147 H 0.80474 0.7187 0.41385 0.0
H148 H 0.8116 0.80395 0.39561 0.0
H149 H 0.97243 0.77205 0.33415 0.0
H150 H 0.01222 0.85747 0.37136 0.0
H151 H 0.70492 0.58349 0.32947 0.0
H152 H 0.77872 0.65494 0.47871 0.0
H153 H 0.85257 0.88661 0.43607 0.0
H154 H 0.62256 0.55098 0.38411 0.0
H155 H 0.69578 0.62401 0.53247 0.0
C156 C 0.86967 0.85909 0.66414 0.0
C157 C 0.87563 0.91343 0.67288 0.0
C158 C 0.83366 0.82727 0.69756 0.0
C159 C 0.80408 0.84925 0.74109 0.0
C160 C 0.80813 0.90392 0.74818 0.0
C161 C 0.84348 0.93594 0.71379 0.0
C162 C 0.77705 0.81546 0.78444 0.0
C163 C 0.80623 0.77804 0.8069 0.0
C164 C 0.78833 0.75334 0.85631 0.0
C165 C 0.74026 0.76661 0.88369 0.0
C166 C 0.70992 0.80318 0.86029 0.0
C167 C 0.72778 0.82641 0.81001 0.0
C168 C 0.66777 0.82734 0.89283 0.0
C169 C 0.61699 0.83264 0.86896 0.0
C170 C 0.68401 0.85686 0.94074 0.0
C171 C 0.65204 0.89433 0.96189 0.0
C172 C 0.60301 0.90212 0.9359 0.0
C173 C 0.82503 0.71939 0.88122 0.0
C174 C 0.85137 0.68477 0.8465 0.0
C175 C 0.84032 0.72667 0.93714 0.0
C176 C 0.88248 0.70079 0.95739 0.0
C177 C 0.91024 0.66812 0.92169 0.0
C178 C 0.89404 0.65994 0.86633 0.0
C179 C 0.58442 0.86952 0.8908 0.0
H180 H 0.89312 0.84101 0.63165 0.0
H181 H 0.83072 0.7853 0.69094 0.0
H182 H 0.78635 0.92183 0.78206 0.0
H183 H 0.8471 0.97792 0.7204 0.0
H184 H 0.84592 0.77151 0.78856 0.0
H185 H 0.70605 0.85671 0.79354 0.0
H186 H 0.72762 0.75022 0.92371 0.0
H187 H 0.60436 0.81064 0.8314 0.0
H188 H 0.72354 0.85395 0.95909 0.0
H189 H 0.66651 0.91816 0.99766 0.0
H190 H 0.83995 0.67806 0.80336 0.0
H191 H 0.82122 0.75371 0.96455 0.0
H192 H 0.54629 0.87438 0.87064 0.0
H193 H 0.91378 0.63372 0.83843 0.0
H194 H 0.89377 0.70674 1.00063 0.0
C195 C 0.70282 0.08198 0.18217 0.0
C196 C 0.68084 0.10839 0.13943 0.0
C197 C 0.73398 0.10984 0.2232 0.0
C198 C 0.74373 0.16459 0.22201 0.0
C199 C 0.72597 0.19049 0.17628 0.0
C200 C 0.69462 0.1625 0.13518 0.0
C201 C 0.76306 0.19421 0.27282 0.0
C202 C 0.80373 0.17686 0.30501 0.0
C203 C 0.81178 0.1956 0.35975 0.0
C204 C 0.78141 0.23511 0.38127 0.0
C205 C 0.74196 0.25509 0.34829 0.0
C206 C 0.73299 0.23345 0.29441 0.0
C207 C 0.70583 0.29441 0.37049 0.0
C208 C 0.69074 0.2971 0.42743 0.0
C209 C 0.68298 0.32759 0.33388 0.0
C210 C 0.64421 0.36004 0.35294 0.0
C211 C 0.62932 0.36204 0.40944 0.0
C212 C 0.84367 0.16569 0.39605 0.0
C213 C 0.81506 0.13152 0.43407 0.0
C214 C 0.89999 0.16272 0.38515 0.0
C215 C 0.9271 0.12562 0.41154 0.0
C216 C 0.89775 0.08986 0.44765 0.0
C217 C 0.84169 0.09363 0.45922 0.0
C218 C 0.65367 0.33131 0.44676 0.0
H219 H 0.69309 0.04012 0.18594 0.0
H220 H 0.74652 0.08872 0.25811 0.0
H221 H 0.73348 0.23264 0.17414 0.0
H222 H 0.67847 0.18353 0.1021 0.0
H223 H 0.82582 0.14524 0.28922 0.0
H224 H 0.69915 0.24392 0.27057 0.0
H225 H 0.78793 0.24902 0.4238 0.0
H226 H 0.70628 0.27205 0.45713 0.0
H227 H 0.69478 0.3286 0.29015 0.0
H228 H 0.62699 0.38462 0.32378 0.0
H229 H 0.7713 0.13227 0.44198 0.0
H230 H 0.92245 0.18797 0.35493 0.0
H231 H 0.64296 0.33283 0.4908 0.0
H232 H 0.81816 0.06696 0.48738 0.0
H233 H 0.97043 0.12372 0.40229 0.0
C234 C 0.17544 0.57956 0.13129 0.0
C235 C 0.16087 0.59432 0.07828 0.0
C236 C 0.22364 0.60315 0.15659 0.0
C237 C 0.25998 0.64124 0.12896 0.0
C238 C 0.2453 0.65528 0.07526 0.0
C239 C 0.19608 0.63284 0.0508 0.0
C240 C 0.31254 0.66618 0.15573 0.0
C241 C 0.33976 0.63965 0.19555 0.0
C242 C 0.38782 0.6633 0.2217 0.0
C243 C 0.41097 0.71351 0.20463 0.0
C244 C 0.38585 0.74091 0.1636 0.0
C245 C 0.33551 0.71716 0.14174 0.0
C246 C 0.41156 0.79379 0.14279 0.0
C247 C 0.44841 0.82763 0.1754 0.0
C248 C 0.40023 0.81089 0.08911 0.0
C249 C 0.42429 0.85941 0.06927 0.0
C250 C 0.46185 0.89198 0.10153 0.0
C251 C 0.41232 0.63602 0.2683 0.0
C252 C 0.42526 0.66263 0.31913 0.0
C253 C 0.4201 0.58265 0.2639 0.0
C254 C 0.44004 0.55682 0.30894 0.0
C255 C 0.4515 0.58322 0.36027 0.0
C256 C 0.44392 0.63661 0.36442 0.0
C257 C 0.47376 0.87535 0.1547 0.0
H258 H 0.14891 0.55023 0.15383 0.0
H259 H 0.23169 0.59166 0.19826 0.0
H260 H 0.27211 0.68311 0.05123 0.0
H261 H 0.18638 0.6446 0.00961 0.0
H262 H 0.32326 0.60059 0.20722 0.0
H263 H 0.31315 0.73912 0.11438 0.0
H264 H 0.44928 0.73036 0.22282 0.0
H265 H 0.45812 0.81757 0.2171 0.0
H266 H 0.37397 0.78628 0.06106 0.0
H267 H 0.41556 0.87018 0.0275 0.0
H268 H 0.41941 0.70345 0.3245 0.0
H269 H 0.41076 0.56077 0.22547 0.0
H270 H 0.503 0.8994 0.18048 0.0
H271 H 0.45251 0.65861 0.40293 0.0
H272 H 0.4453 0.51584 0.30393 0.0
C273 C 0.13536 0.16048 0.60165 0.0
C274 C 0.07855 0.14467 0.60704 0.0
C275 C 0.15888 0.20829 0.62455 0.0
C276 C 0.12617 0.2432 0.652 0.0
C277 C 0.06934 0.22633 0.65934 0.0
C278 C 0.04593 0.17746 0.63754 0.0
C279 C 0.15155 0.29745 0.66966 0.0
C280 C 0.19564 0.32254 0.63781 0.0
C281 C 0.22404 0.37118 0.654 0.0
C282 C 0.20322 0.39766 0.7011 0.0
C283 C 0.15676 0.37537 0.73304 0.0
C284 C 0.13268 0.32427 0.71726 0.0
C285 C 0.13335 0.40521 0.78236 0.0
C286 C 0.16553 0.44638 0.81103 0.0
C287 C 0.0778 0.39375 0.80091 0.0
C288 C 0.05577 0.42187 0.84567 0.0
C289 C 0.08773 0.46371 0.87253 0.0
C290 C 0.27541 0.39297 0.62123 0.0
C291 C 0.30806 0.35907 0.59169 0.0
C292 C 0.29273 0.44712 0.61845 0.0
C293 C 0.3402 0.46623 0.58721 0.0
C294 C 0.371 0.43212 0.5564 0.0
C295 C 0.35415 0.37832 0.55911 0.0
C296 C 0.14286 0.47556 0.85452 0.0
H297 H 0.16179 0.13596 0.57894 0.0
H298 H 0.20301 0.21816 0.61962 0.0
H299 H 0.0424 0.25165 0.67992 0.0
H300 H 1.00188 0.16659 0.64204 0.0
H301 H 0.20748 0.30405 0.59912 0.0
H302 H 0.09982 0.30458 0.74256 0.0
H303 H 0.2233 0.43581 0.71263 0.0
H304 H 0.20866 0.45645 0.8005 0.0
H305 H 0.05027 0.36378 0.78023 0.0
H306 H 0.01294 0.41191 0.858 0.0
H307 H 0.29869 0.31712 0.59387 0.0
H308 H 0.26934 0.47517 0.63955 0.0
H309 H 0.16884 0.50729 0.87455 0.0
H310 H 0.37746 0.35078 0.53685 0.0
H311 H 0.35185 0.50787 0.58626 0.0
Dy312 Dy 0.0473 0.02449 0.46196 0.0
C313 C 0.91388 0.94556 0.63703 0.0
C314 C 0.11396 0.07802 0.38704 0.0
Dy315 Dy 0.96927 0.9952 0.55215 0.0
O316 O 0.13063 0.0589 0.43199 0.0
O317 O 0.06113 0.06622 0.38186 0.0
O318 O 0.08298 0.949 0.46461 0.0
O319 O 0.05546 0.98321 0.53914 0.0
C320 C 0.07473 0.94359 0.51777 0.0
C321 C 0.92531 0.04943 0.47431 0.0
O322 O 0.01306 0.06507 0.59796 0.0
O323 O 0.07338 0.089 0.52454 0.0
O324 O 0.90994 0.99385 0.62518 0.0
O325 O 0.94999 0.92616 0.60486 0.0
O326 O 0.89802 0.01188 0.50178 0.0
O327 O 0.97381 0.05774 0.49177 0.0
O328 O 0.99084 0.96453 0.41396 0.0
O329 O 0.95246 0.92613 0.4933 0.0
C330 C 0.05386 0.09707 0.57571 0.0
C331 C 0.96046 0.92552 0.43876 0.0
Dy332 Dy 0.553 0.02953 0.04638 0.0
C333 C 0.37994 0.95326 0.90675 0.0
C334 C 0.63886 0.0802 0.10387 0.0
Dy335 Dy 0.46203 0.99898 0.97246 0.0
O336 O 0.61699 0.03273 0.11182 0.0
O337 O 0.61334 0.10059 0.06491 0.0
O338 O 0.5461 0.95127 0.08546 0.0
O339 O 0.47383 0.97881 0.05897 0.0
C340 C 0.49379 0.93965 0.07783 0.0
C341 C 0.52059 0.09023 0.94441 0.0
O342 O 0.41643 0.04517 0.03281 0.0
O343 O 0.49403 0.08413 0.07743 0.0
O344 O 0.41754 0.99018 0.89183 0.0
O345 O 0.38722 0.94064 0.95763 0.0
O346 O 0.46749 0.08022 0.94209 0.0
O347 O 0.5412 0.04993 0.95974 0.0
O348 O 0.59708 0.98368 0.98468 0.0
O349 O 0.5178 0.93887 0.9495 0.0
C350 C 0.44091 0.08096 0.06718 0.0
C351 C 0.57147 0.94382 0.95653 0.0
Dy352 Dy 0.52269 0.46592 0.47374 0.0
C353 C 0.43013 0.62609 0.58748 0.0
C354 C 0.59139 0.39854 0.43038 0.0
Dy355 Dy 0.49791 0.55817 0.54316 0.0
O356 O 0.54238 0.40243 0.41192 0.0
O357 O 0.60253 0.43133 0.47143 0.0
O358 O 0.4347 0.42804 0.476 0.0
O359 O 0.4639 0.47596 0.5428 0.0
C360 C 0.42083 0.45163 0.52208 0.0
C361 C 0.59983 0.57017 0.49519 0.0
O362 O 0.52521 0.51142 0.61396 0.0
O363 O 0.5575 0.44753 0.55664 0.0
O364 O 0.48313 0.63001 0.5952 0.0
O365 O 0.41497 0.58522 0.55665 0.0
O366 O 0.58773 0.5915 0.54314 0.0
O367 O 0.55606 0.548 0.474 0.0
O368 O 0.49608 0.51349 0.40308 0.0
O369 O 0.46441 0.57786 0.46002 0.0
C370 C 0.55123 0.46909 0.60695 0.0
C371 C 0.47051 0.55611 0.40978 0.0
Dy372 Dy 0.01777 0.46617 0.03509 0.0
C373 C 0.95152 0.63765 0.94303 0.0
C374 C 0.07838 0.38975 0.06123 0.0
Dy375 Dy 1.00292 0.55808 0.9801 0.0
O376 O 0.02959 0.39465 0.08253 0.0
O377 O 0.09262 0.42531 0.02509 0.0
O378 O 0.94905 0.47536 0.09743 0.0
O379 O 0.99877 0.54213 0.06947 0.0
C380 C 0.95696 0.52618 0.09943 0.0
C381 C 0.06335 0.49624 0.91737 0.0
O382 O 0.07961 0.59536 0.02125 0.0
O383 O 0.09426 0.51854 0.06179 0.0
O384 O 0.9798 0.60812 0.91197 0.0
O385 O 0.95417 0.6258 0.99479 0.0
O386 O 0.07429 0.54677 0.92147 0.0
O387 O 0.02026 0.48154 0.94599 0.0
O388 O 0.94564 0.42924 0.98664 0.0
O389 O 0.92014 0.50947 0.96806 0.0
C390 C 0.10985 0.56841 0.05182 0.0
C391 C 0.90919 0.45793 0.96772 0.0
loop_
_geom_bond_atom_site_label_1
_geom_bond_atom_site_label_2
_geom_bond_distance
_geom_bond_site_symmetry_2
_ccdc_geom_bond_type
C0 C1 1.386 . S
C0 C2 1.397 . S
C0 H24 0.931 . S
C1 C0 1.386 . S
C1 C5 1.397 . S
C2 C0 1.397 . S
C2 C3 1.384 . S
C2 H25 0.930 . S
C3 C2 1.384 . S
C3 C4 1.377 . S
C3 C6 1.481 . S
C4 C3 1.377 . S
C4 C5 1.389 . S
C4 H26 0.929 . S
C5 C1 1.397 . S
C5 C4 1.389 . S
C5 H27 0.931 . S
C6 C3 1.481 . S
C6 C7 1.387 . S
C6 C11 1.390 . S
C7 C6 1.387 . S
C7 C8 1.401 . S
C7 H28 0.930 . S
C8 C7 1.401 . S
C8 C9 1.376 . S
C8 C17 1.511 . S
C9 C8 1.376 . S
C9 C10 1.392 . S
C9 H30 0.931 . S
C10 C9 1.392 . S
C10 C11 1.361 . S
C10 C12 1.500 . S
C11 C6 1.390 . S
C11 C10 1.361 . S
C11 H29 0.931 . S
C12 C10 1.500 . S
C12 C13 1.371 . S
C12 C14 1.365 . S
C13 C12 1.371 . S
C13 C23 1.386 . S
C13 H31 0.931 . S
C14 C12 1.365 . S
C14 C15 1.409 . S
C14 H32 0.929 . S
C15 C14 1.409 . S
C15 C16 1.380 . S
C15 H33 0.930 . S
C16 C15 1.380 . S
C16 C23 1.357 . S
C17 C8 1.511 . S
C17 C18 1.341 . S
C17 C19 1.371 . S
C18 C17 1.341 . S
C18 C22 1.394 . S
C18 H34 0.930 . S
C19 C17 1.371 . S
C19 C20 1.392 . S
C19 H35 0.931 . S
C20 C19 1.392 . S
C20 C21 1.331 . S
C20 H38 0.932 . S
C21 C20 1.331 . S
C21 C22 1.336 . S
C22 C18 1.394 . S
C22 C21 1.336 . S
C22 H37 0.929 . S
C23 C13 1.386 . S
C23 C16 1.357 . S
C23 H36 0.928 . S
H24 C0 0.931 . S
H25 C2 0.930 . S
H26 C4 0.929 . S
H27 C5 0.931 . S
H28 C7 0.930 . S
H29 C11 0.931 . S
H30 C9 0.931 . S
H31 C13 0.931 . S
H32 C14 0.929 . S
H33 C15 0.930 . S
H34 C18 0.930 . S
H35 C19 0.931 . S
H36 C23 0.928 . S
H37 C22 0.929 . S
H38 C20 0.932 . S
C39 C40 1.386 . S
C39 C41 1.397 . S
C39 H63 0.931 . S
C40 C39 1.386 . S
C40 C44 1.397 . S
C41 C39 1.397 . S
C41 C42 1.384 . S
C41 H64 0.930 . S
C42 C41 1.384 . S
C42 C43 1.377 . S
C42 C45 1.481 . S
C43 C42 1.377 . S
C43 C44 1.389 . S
C43 H65 0.929 . S
C44 C40 1.397 . S
C44 C43 1.389 . S
C44 H66 0.931 . S
C45 C42 1.481 . S
C45 C46 1.387 . S
C45 C50 1.390 . S
C46 C45 1.387 . S
C46 C47 1.401 . S
C46 H67 0.930 . S
C47 C46 1.401 . S
C47 C48 1.376 . S
C47 C56 1.511 . S
C48 C47 1.376 . S
C48 C49 1.392 . S
C48 H69 0.931 . S
C49 C48 1.392 . S
C49 C50 1.361 . S
C49 C51 1.500 . S
C50 C45 1.390 . S
C50 C49 1.361 . S
C50 H68 0.931 . S
C51 C49 1.500 . S
C51 C52 1.371 . S
C51 C53 1.365 . S
C52 C51 1.371 . S
C52 C62 1.386 . S
C52 H70 0.931 . S
C53 C51 1.365 . S
C53 C54 1.409 . S
C53 H71 0.929 . S
C54 C53 1.409 . S
C54 C55 1.380 . S
C54 H72 0.930 . S
C55 C54 1.380 . S
C55 C62 1.357 . S
C56 C47 1.511 . S
C56 C57 1.341 . S
C56 C58 1.371 . S
C57 C56 1.341 . S
C57 C61 1.394 . S
C57 H73 0.930 . S
C58 C56 1.371 . S
C58 C59 1.392 . S
C58 H74 0.931 . S
C59 C58 1.392 . S
C59 C60 1.331 . S
C59 H77 0.932 . S
C60 C59 1.331 . S
C60 C61 1.336 . S
C61 C57 1.394 . S
C61 C60 1.336 . S
C61 H76 0.929 . S
C62 C52 1.386 . S
C62 C55 1.357 . S
C62 H75 0.928 . S
H63 C39 0.931 . S
H64 C41 0.930 . S
H65 C43 0.929 . S
H66 C44 0.931 . S
H67 C46 0.930 . S
H68 C50 0.931 . S
H69 C48 0.931 . S
H70 C52 0.931 . S
H71 C53 0.929 . S
H72 C54 0.930 . S
H73 C57 0.930 . S
H74 C58 0.931 . S
H75 C62 0.928 . S
H76 C61 0.929 . S
H77 C59 0.932 . S
C78 C79 1.386 . S
C78 C80 1.397 . S
C78 H102 0.931 . S
C79 C78 1.386 . S
C79 C83 1.397 . S
C80 C78 1.397 . S
C80 C81 1.384 . S
C80 H103 0.930 . S
C81 C80 1.384 . S
C81 C82 1.377 . S
C81 C84 1.481 . S
C82 C81 1.377 . S
C82 C83 1.389 . S
C82 H104 0.929 . S
C83 C79 1.397 . S
C83 C82 1.389 . S
C83 H105 0.931 . S
C84 C81 1.481 . S
C84 C85 1.387 . S
C84 C89 1.390 . S
C85 C84 1.387 . S
C85 C86 1.401 . S
C85 H106 0.930 . S
C86 C85 1.401 . S
C86 C87 1.376 . S
C86 C95 1.511 . S
C87 C86 1.376 . S
C87 C88 1.392 . S
C87 H108 0.931 . S
C88 C87 1.392 . S
C88 C89 1.361 . S
C88 C90 1.500 . S
C89 C84 1.390 . S
C89 C88 1.361 . S
C89 H107 0.931 . S
C90 C88 1.500 . S
C90 C91 1.371 . S
C90 C92 1.365 . S
C91 C90 1.371 . S
C91 C101 1.386 . S
C91 H109 0.931 . S
C92 C90 1.365 . S
C92 C93 1.409 . S
C92 H110 0.929 . S
C93 C92 1.409 . S
C93 C94 1.380 . S
C93 H111 0.930 . S
C94 C93 1.380 . S
C94 C101 1.357 . S
C95 C86 1.511 . S
C95 C96 1.341 . S
C95 C97 1.371 . S
C96 C95 1.341 . S
C96 C100 1.394 . S
C96 H112 0.930 . S
C97 C95 1.371 . S
C97 C98 1.392 . S
C97 H113 0.931 . S
C98 C97 1.392 . S
C98 C99 1.331 . S
C98 H116 0.932 . S
C99 C98 1.331 . S
C99 C100 1.336 . S
C100 C96 1.394 . S
C100 C99 1.336 . S
C100 H115 0.929 . S
C101 C91 1.386 . S
C101 C94 1.357 . S
C101 H114 0.928 . S
H102 C78 0.931 . S
H103 C80 0.930 . S
H104 C82 0.929 . S
H105 C83 0.931 . S
H106 C85 0.930 . S
H107 C89 0.931 . S
H108 C87 0.931 . S
H109 C91 0.931 . S
H110 C92 0.929 . S
H111 C93 0.930 . S
H112 C96 0.930 . S
H113 C97 0.931 . S
H114 C101 0.928 . S
H115 C100 0.929 . S
H116 C98 0.932 . S
C117 C118 1.386 . S
C117 C119 1.397 . S
C117 H141 0.931 . S
C118 C117 1.386 . S
C118 C122 1.397 . S
C119 C117 1.397 . S
C119 C120 1.384 . S
C119 H142 0.930 . S
C120 C119 1.384 . S
C120 C121 1.377 . S
C120 C123 1.481 . S
C121 C120 1.377 . S
C121 C122 1.389 . S
C121 H143 0.929 . S
C122 C118 1.397 . S
C122 C121 1.389 . S
C122 H144 0.931 1_655 S
C123 C120 1.481 . S
C123 C124 1.387 . S
C123 C128 1.390 . S
C124 C123 1.387 . S
C124 C125 1.401 . S
C124 H145 0.930 . S
C125 C124 1.401 . S
C125 C126 1.376 . S
C125 C134 1.511 . S
C126 C125 1.376 . S
C126 C127 1.392 . S
C126 H147 0.931 . S
C127 C126 1.392 . S
C127 C128 1.361 . S
C127 C129 1.500 . S
C128 C123 1.390 . S
C128 C127 1.361 . S
C128 H146 0.931 . S
C129 C127 1.500 . S
C129 C130 1.371 . S
C129 C131 1.365 . S
C130 C129 1.371 . S
C130 C140 1.386 . S
C130 H148 0.931 . S
C131 C129 1.365 . S
C131 C132 1.409 . S
C131 H149 0.929 . S
C132 C131 1.409 . S
C132 C133 1.380 . S
C132 H150 0.930 1_655 S
C133 C132 1.380 . S
C133 C140 1.357 . S
C134 C125 1.511 . S
C134 C135 1.341 . S
C134 C136 1.371 . S
C135 C134 1.341 . S
C135 C139 1.394 . S
C135 H151 0.930 . S
C136 C134 1.371 . S
C136 C137 1.392 . S
C136 H152 0.931 . S
C137 C136 1.392 . S
C137 C138 1.331 . S
C137 H155 0.932 . S
C138 C137 1.331 . S
C138 C139 1.336 . S
C139 C135 1.394 . S
C139 C138 1.336 . S
C139 H154 0.929 . S
C140 C130 1.386 . S
C140 C133 1.357 . S
C140 H153 0.928 . S
H141 C117 0.931 . S
H142 C119 0.930 . S
H143 C121 0.929 . S
H144 C122 0.931 1_455 S
H145 C124 0.930 . S
H146 C128 0.931 . S
H147 C126 0.931 . S
H148 C130 0.931 . S
H149 C131 0.929 . S
H150 C132 0.930 1_455 S
H151 C135 0.930 . S
H152 C136 0.931 . S
H153 C140 0.928 . S
H154 C139 0.929 . S
H155 C137 0.932 . S
C156 C157 1.386 . S
C156 C158 1.397 . S
C156 H180 0.931 . S
C157 C156 1.386 . S
C157 C161 1.397 . S
C158 C156 1.397 . S
C158 C159 1.384 . S
C158 H181 0.930 . S
C159 C158 1.384 . S
C159 C160 1.377 . S
C159 C162 1.481 . S
C160 C159 1.377 . S
C160 C161 1.389 . S
C160 H182 0.929 . S
C161 C157 1.397 . S
C161 C160 1.389 . S
C161 H183 0.931 . S
C162 C159 1.481 . S
C162 C163 1.387 . S
C162 C167 1.390 . S
C163 C162 1.387 . S
C163 C164 1.401 . S
C163 H184 0.930 . S
C164 C163 1.401 . S
C164 C165 1.376 . S
C164 C173 1.511 . S
C165 C164 1.376 . S
C165 C166 1.392 . S
C165 H186 0.931 . S
C166 C165 1.392 . S
C166 C167 1.361 . S
C166 C168 1.500 . S
C167 C162 1.390 . S
C167 C166 1.361 . S
C167 H185 0.931 . S
C168 C166 1.500 . S
C168 C169 1.371 . S
C168 C170 1.365 . S
C169 C168 1.371 . S
C169 C179 1.386 . S
C169 H187 0.931 . S
C170 C168 1.365 . S
C170 C171 1.409 . S
C170 H188 0.929 . S
C171 C170 1.409 . S
C171 C172 1.380 . S
C171 H189 0.930 . S
C172 C171 1.380 . S
C172 C179 1.357 . S
C173 C164 1.511 . S
C173 C174 1.341 . S
C173 C175 1.371 . S
C174 C173 1.341 . S
C174 C178 1.394 . S
C174 H190 0.930 . S
C175 C173 1.371 . S
C175 C176 1.392 . S
C175 H191 0.931 . S
C176 C175 1.392 . S
C176 C177 1.331 . S
C176 H194 0.932 . S
C177 C176 1.331 . S
C177 C178 1.336 . S
C178 C174 1.394 . S
C178 C177 1.336 . S
C178 H193 0.929 . S
C179 C169 1.386 . S
C179 C172 1.357 . S
C179 H192 0.928 . S
H180 C156 0.931 . S
H181 C158 0.930 . S
H182 C160 0.929 . S
H183 C161 0.931 . S
H184 C163 0.930 . S
H185 C167 0.931 . S
H186 C165 0.931 . S
H187 C169 0.931 . S
H188 C170 0.929 . S
H189 C171 0.930 . S
H190 C174 0.930 . S
H191 C175 0.931 . S
H192 C179 0.928 . S
H193 C178 0.929 . S
H194 C176 0.932 . S
C195 C196 1.386 . S
C195 C197 1.397 . S
C195 H219 0.931 1_545 S
C196 C195 1.386 . S
C196 C200 1.397 . S
C197 C195 1.397 . S
C197 C198 1.384 . S
C197 H220 0.930 . S
C198 C197 1.384 . S
C198 C199 1.377 . S
C198 C201 1.481 . S
C199 C198 1.377 . S
C199 C200 1.389 . S
C199 H221 0.929 . S
C200 C196 1.397 . S
C200 C199 1.389 . S
C200 H222 0.931 . S
C201 C198 1.481 . S
C201 C202 1.387 . S
C201 C206 1.390 . S
C202 C201 1.387 . S
C202 C203 1.401 . S
C202 H223 0.930 . S
C203 C202 1.401 . S
C203 C204 1.376 . S
C203 C212 1.511 . S
C204 C203 1.376 . S
C204 C205 1.392 . S
C204 H225 0.931 . S
C205 C204 1.392 . S
C205 C206 1.361 . S
C205 C207 1.500 . S
C206 C201 1.390 . S
C206 C205 1.361 . S
C206 H224 0.931 . S
C207 C205 1.500 . S
C207 C208 1.371 . S
C207 C209 1.365 . S
C208 C207 1.371 . S
C208 C218 1.386 . S
C208 H226 0.931 . S
C209 C207 1.365 . S
C209 C210 1.409 . S
C209 H227 0.929 . S
C210 C209 1.409 . S
C210 C211 1.380 . S
C210 H228 0.930 . S
C211 C210 1.380 . S
C211 C218 1.357 . S
C212 C203 1.511 . S
C212 C213 1.341 . S
C212 C214 1.371 . S
C213 C212 1.341 . S
C213 C217 1.394 . S
C213 H229 0.930 . S
C214 C212 1.371 . S
C214 C215 1.392 . S
C214 H230 0.931 . S
C215 C214 1.392 . S
C215 C216 1.331 . S
C215 H233 0.932 . S
C216 C215 1.331 . S
C216 C217 1.336 . S
C217 C213 1.394 . S
C217 C216 1.336 . S
C217 H232 0.950 . S
C218 C208 1.386 . S
C218 C211 1.357 . S
C218 H231 0.928 . S
H219 C195 0.931 1_565 S
H220 C197 0.930 . S
H221 C199 0.929 . S
H222 C200 0.931 . S
H223 C202 0.930 . S
H224 C206 0.931 . S
H225 C204 0.931 . S
H226 C208 0.931 . S
H227 C209 0.929 . S
H228 C210 0.930 . S
H229 C213 0.930 . S
H230 C214 0.931 . S
H231 C218 0.928 . S
H232 C217 0.950 . S
H233 C215 0.932 . S
C234 C235 1.386 . S
C234 C236 1.397 . S
C234 H258 0.931 . S
C235 C234 1.386 . S
C235 C239 1.397 . S
C236 C234 1.397 . S
C236 C237 1.384 . S
C236 H259 0.930 . S
C237 C236 1.384 . S
C237 C238 1.377 . S
C237 C240 1.481 . S
C238 C237 1.377 . S
C238 C239 1.389 . S
C238 H260 0.929 . S
C239 C235 1.397 . S
C239 C238 1.389 . S
C239 H261 0.931 . S
C240 C237 1.481 . S
C240 C241 1.387 . S
C240 C245 1.390 . S
C241 C240 1.387 . S
C241 C242 1.401 . S
C241 H262 0.930 . S
C242 C241 1.401 . S
C242 C243 1.376 . S
C242 C251 1.511 . S
C243 C242 1.376 . S
C243 C244 1.392 . S
C243 H264 0.931 . S
C244 C243 1.392 . S
C244 C245 1.361 . S
C244 C246 1.500 . S
C245 C240 1.390 . S
C245 C244 1.361 . S
C245 H263 0.931 . S
C246 C244 1.500 . S
C246 C247 1.371 . S
C246 C248 1.365 . S
C247 C246 1.371 . S
C247 C257 1.386 . S
C247 H265 0.931 . S
C248 C246 1.365 . S
C248 C249 1.409 . S
C248 H266 0.929 . S
C249 C248 1.409 . S
C249 C250 1.380 . S
C249 H267 0.930 . S
C250 C249 1.380 . S
C250 C257 1.357 . S
C251 C242 1.511 . S
C251 C252 1.341 . S
C251 C253 1.371 . S
C252 C251 1.341 . S
C252 C256 1.394 . S
C252 H268 0.930 . S
C253 C251 1.371 . S
C253 C254 1.392 . S
C253 H269 0.931 . S
C254 C253 1.392 . S
C254 C255 1.331 . S
C254 H272 0.932 . S
C255 C254 1.331 . S
C255 C256 1.336 . S
C256 C252 1.394 . S
C256 C255 1.336 . S
C256 H271 0.929 . S
C257 C247 1.386 . S
C257 C250 1.357 . S
C257 H270 0.928 . S
H258 C234 0.931 . S
H259 C236 0.930 . S
H260 C238 0.929 . S
H261 C239 0.931 . S
H262 C241 0.930 . S
H263 C245 0.931 . S
H264 C243 0.931 . S
H265 C247 0.931 . S
H266 C248 0.929 . S
H267 C249 0.930 . S
H268 C252 0.930 . S
H269 C253 0.931 . S
H270 C257 0.928 . S
H271 C256 0.929 . S
H272 C254 0.932 . S
C273 C274 1.386 . S
C273 C275 1.397 . S
C273 H297 0.931 . S
C274 C273 1.386 . S
C274 C278 1.397 . S
C275 C273 1.397 . S
C275 C276 1.384 . S
C275 H298 0.930 . S
C276 C275 1.384 . S
C276 C277 1.377 . S
C276 C279 1.481 . S
C277 C276 1.377 . S
C277 C278 1.389 . S
C277 H299 0.929 . S
C278 C274 1.397 . S
C278 C277 1.389 . S
C278 H300 0.931 1_455 S
C279 C276 1.481 . S
C279 C280 1.387 . S
C279 C284 1.390 . S
C280 C279 1.387 . S
C280 C281 1.401 . S
C280 H301 0.930 . S
C281 C280 1.401 . S
C281 C282 1.376 . S
C281 C290 1.511 . S
C282 C281 1.376 . S
C282 C283 1.392 . S
C282 H303 0.931 . S
C283 C282 1.392 . S
C283 C284 1.361 . S
C283 C285 1.500 . S
C284 C279 1.390 . S
C284 C283 1.361 . S
C284 H302 0.931 . S
C285 C283 1.500 . S
C285 C286 1.371 . S
C285 C287 1.365 . S
C286 C285 1.371 . S
C286 C296 1.386 . S
C286 H304 0.931 . S
C287 C285 1.365 . S
C287 C288 1.409 . S
C287 H305 0.929 . S
C288 C287 1.409 . S
C288 C289 1.380 . S
C288 H306 0.930 1_455 S
C289 C288 1.380 . S
C289 C296 1.357 . S
C290 C281 1.511 . S
C290 C291 1.341 . S
C290 C292 1.371 . S
C291 C290 1.341 . S
C291 C295 1.394 . S
C291 H307 0.930 . S
C292 C290 1.371 . S
C292 C293 1.392 . S
C292 H308 0.931 . S
C293 C292 1.392 . S
C293 C294 1.331 . S
C293 H311 0.932 . S
C294 C293 1.331 . S
C294 C295 1.336 . S
C295 C291 1.394 . S
C295 C294 1.336 . S
C295 H310 0.929 . S
C296 C286 1.386 . S
C296 C289 1.357 . S
C296 H309 0.928 . S
H297 C273 0.931 . S
H298 C275 0.930 . S
H299 C277 0.929 . S
H300 C278 0.931 1_655 S
H301 C280 0.930 . S
H302 C284 0.931 . S
H303 C282 0.931 . S
H304 C286 0.931 . S
H305 C287 0.929 . S
H306 C288 0.930 1_655 S
H307 C291 0.930 . S
H308 C292 0.931 . S
H309 C296 0.928 . S
H310 C295 0.929 . S
H311 C293 0.932 . S
Dy312 O316 2.398 . S
Dy312 O317 2.491 . S
Dy312 O318 2.403 1_545 S
Dy312 O319 2.664 1_545 S
Dy312 O323 2.326 . S
Dy312 O327 2.310 1_455 S
Dy312 O328 2.351 1_445 S
C313 O324 1.185 . S
C313 O325 1.355 . S
C314 O316 1.185 . S
C314 O317 1.355 . S
Dy315 O319 2.310 1_655 S
Dy315 O322 2.351 1_665 S
Dy315 O324 2.398 . S
Dy315 O325 2.491 . S
Dy315 O326 2.403 1_565 S
Dy315 O327 2.664 1_565 S
Dy315 O329 2.326 . S
O316 Dy312 2.398 . S
O316 C314 1.185 . S
O317 Dy312 2.491 . S
O317 C314 1.355 . S
O318 Dy312 2.403 1_565 S
O318 C320 1.254 . S
O319 Dy312 2.664 1_565 S
O319 Dy315 2.310 1_455 S
O319 C320 1.268 . S
C320 O318 1.254 . S
C320 O319 1.268 . S
C321 O326 1.254 . S
C321 O327 1.268 . S
O322 Dy315 2.351 1_445 S
O322 C330 1.249 . S
O323 Dy312 2.326 . S
O323 C330 1.267 . S
O324 C313 1.185 . S
O324 Dy315 2.398 . S
O325 C313 1.355 . S
O325 Dy315 2.491 . S
O326 Dy315 2.403 1_545 S
O326 C321 1.254 . S
O327 Dy312 2.310 1_655 S
O327 Dy315 2.664 1_545 S
O327 C321 1.268 . S
O328 Dy312 2.351 1_665 S
O328 C331 1.249 . S
O329 Dy315 2.326 . S
O329 C331 1.267 . S
C330 O322 1.249 . S
C330 O323 1.267 . S
C331 O328 1.249 . S
C331 O329 1.267 . S
Dy332 O336 2.398 . S
Dy332 O337 2.491 . S
Dy332 O338 2.403 1_545 S
Dy332 O339 2.664 1_545 S
Dy332 O343 2.326 . S
Dy332 O347 2.310 1_554 S
Dy332 O348 2.351 1_544 S
C333 O344 1.185 . S
C333 O345 1.355 . S
C334 O336 1.185 . S
C334 O337 1.355 . S
Dy335 O339 2.318 1_556 S
Dy335 O342 2.344 1_566 S
Dy335 O344 2.399 . S
Dy335 O345 2.502 . S
Dy335 O346 2.393 1_565 S
Dy335 O347 2.659 1_565 S
Dy335 O349 2.332 . S
O336 Dy332 2.398 . S
O336 C334 1.185 . S
O337 Dy332 2.491 . S
O337 C334 1.355 . S
O338 Dy332 2.403 1_565 S
O338 C340 1.254 . S
O339 Dy332 2.664 1_565 S
O339 Dy335 2.318 1_554 S
O339 C340 1.268 . S
C340 O338 1.254 . S
C340 O339 1.268 . S
C341 O346 1.254 . S
C341 O347 1.268 . S
O342 Dy335 2.344 1_544 S
O342 C350 1.249 . S
O343 Dy332 2.326 . S
O343 C350 1.267 . S
O344 C333 1.185 . S
O344 Dy335 2.399 . S
O345 C333 1.355 . S
O345 Dy335 2.502 . S
O346 Dy335 2.393 1_545 S
O346 C341 1.254 . S
O347 Dy332 2.310 1_556 S
O347 Dy335 2.659 1_545 S
O347 C341 1.268 . S
O348 Dy332 2.351 1_566 S
O348 C351 1.249 . S
O349 Dy335 2.332 . S
O349 C351 1.267 . S
C350 O342 1.249 . S
C350 O343 1.267 . S
C351 O348 1.249 . S
C351 O349 1.267 . S
Dy352 O356 2.398 . S
Dy352 O357 2.491 . S
Dy352 O358 2.403 . S
Dy352 O359 2.664 . S
Dy352 O363 2.326 . S
Dy352 O367 2.310 . S
Dy352 O368 2.351 . S
C353 O364 1.185 . S
C353 O365 1.355 . S
C354 O356 1.185 . S
C354 O357 1.355 . S
Dy355 O359 2.310 . S
Dy355 O362 2.351 . S
Dy355 O364 2.398 . S
Dy355 O365 2.491 . S
Dy355 O366 2.403 . S
Dy355 O367 2.664 . S
Dy355 O369 2.326 . S
O356 Dy352 2.398 . S
O356 C354 1.185 . S
O357 Dy352 2.491 . S
O357 C354 1.355 . S
O358 Dy352 2.403 . S
O358 C360 1.254 . S
O359 Dy352 2.664 . S
O359 Dy355 2.310 . S
O359 C360 1.268 . S
C360 O358 1.254 . S
C360 O359 1.268 . S
C361 O366 1.254 . S
C361 O367 1.268 . S
O362 Dy355 2.351 . S
O362 C370 1.249 . S
O363 Dy352 2.326 . S
O363 C370 1.267 . S
O364 C353 1.185 . S
O364 Dy355 2.398 . S
O365 C353 1.355 . S
O365 Dy355 2.491 . S
O366 Dy355 2.403 . S
O366 C361 1.254 . S
O367 Dy352 2.310 . S
O367 Dy355 2.664 . S
O367 C361 1.268 . S
O368 Dy352 2.351 . S
O368 C371 1.249 . S
O369 Dy355 2.326 . S
O369 C371 1.267 . S
C370 O362 1.249 . S
C370 O363 1.267 . S
C371 O368 1.249 . S
C371 O369 1.267 . S
Dy372 O376 2.398 . S
Dy372 O377 2.491 . S
Dy372 O378 2.403 1_455 S
Dy372 O379 2.664 1_455 S
Dy372 O383 2.326 . S
Dy372 O387 2.310 1_554 S
Dy372 O388 2.351 1_454 S
C373 O384 1.185 . S
C373 O385 1.355 . S
C374 O376 1.185 . S
C374 O377 1.355 . S
Dy375 O379 2.310 1_556 S
Dy375 O382 2.351 1_656 S
Dy375 O384 2.398 . S
Dy375 O385 2.491 . S
Dy375 O386 2.403 1_655 S
Dy375 O387 2.664 1_655 S
Dy375 O389 2.326 . S
O376 Dy372 2.398 . S
O376 C374 1.185 . S
O377 Dy372 2.491 . S
O377 C374 1.355 . S
O378 Dy372 2.403 1_655 S
O378 C380 1.254 . S
O379 Dy372 2.664 1_655 S
O379 Dy375 2.310 1_554 S
O379 C380 1.268 . S
C380 O378 1.254 . S
C380 O379 1.268 . S
C381 O386 1.254 . S
C381 O387 1.268 . S
O382 Dy375 2.351 1_454 S
O382 C390 1.249 . S
O383 Dy372 2.326 . S
O383 C390 1.267 . S
O384 C373 1.185 . S
O384 Dy375 2.398 . S
O385 C373 1.355 . S
O385 Dy375 2.491 . S
O386 Dy375 2.403 1_455 S
O386 C381 1.254 . S
O387 Dy372 2.310 1_556 S
O387 Dy375 2.664 1_455 S
O387 C381 1.268 . S
O388 Dy372 2.351 1_656 S
O388 C391 1.249 . S
O389 Dy375 2.326 . S
O389 C391 1.267 . S
C390 O382 1.249 . S
C390 O383 1.267 . S
C391 O388 1.249 . S
C391 O389 1.267 . S
C1 C314 2.237 . S
C40 C333 1.244 . S
C370 C99 2.088 . S
C118 C380 2.025 . S
C350 C16 2.890 . S
C320 C60 1.336 . S
C391 C79 1.644 . S
C361 C138 1.613 . S
C21 C374 2.428 . S
C341 C94 1.973 . S
C133 C331 2.057 . S
C55 C353 1.513 . S
C313 C157 2.269 . S
C196 C334 1.258 . S
C255 C371 2.082 . S
C289 C381 2.027 . S
C172 C351 2.872 . S
C321 C216 1.357 . S
C390 C235 1.646 . S
C360 C294 1.621 . S
C177 C373 2.470 . S
C340 C250 1.976 . S
C330 C274 2.053 . S
C211 C354 1.512 . S
