# Generated by pormake.
# Topology pth, (4,4)-cn, num edge types: 1
# Building blocks:
#     Node 0, Type 0, BuildingBlock: AZAVOO_clean_sbu_0, # of connection points: 4
#     Node 1, Type 0, BuildingBlock: AZAVOO_clean_sbu_0, # of connection points: 4
#     Node 2, Type 0, BuildingBlock: AZAVOO_clean_sbu_0, # of connection points: 4
#     Node 3, Type 1, BuildingBlock: NAWXER_clean_linker_0, # of connection points: 4
#     Node 4, Type 1, BuildingBlock: NAWXER_clean_linker_0, # of connection points: 4
#     Node 5, Type 1, BuildingBlock: NAWXER_clean_linker_0, # of connection points: 4
#     Edge 6, Type (0, 1), BuildingBlock: AJUNOK_clean_linker_0, # of connection points: 2
#     Edge 7, Type (0, 1), BuildingBlock: AJUNOK_clean_linker_0, # of connection points: 2
#     Edge 8, Type (0, 1), BuildingBlock: AJUNOK_clean_linker_0, # of connection points: 2
#     Edge 9, Type (0, 1), BuildingBlock: AJUNOK_clean_linker_0, # of connection points: 2
#     Edge 10, Type (0, 1), BuildingBlock: AJUNOK_clean_linker_0, # of connection points: 2
#     Edge 11, Type (0, 1), BuildingBlock: AJUNOK_clean_linker_0, # of connection points: 2
#     Edge 12, Type (0, 1), BuildingBlock: AJUNOK_clean_linker_0, # of connection points: 2
#     Edge 13, Type (0, 1), BuildingBlock: AJUNOK_clean_linker_0, # of connection points: 2
#     Edge 14, Type (0, 1), BuildingBlock: AJUNOK_clean_linker_0, # of connection points: 2
#     Edge 15, Type (0, 1), BuildingBlock: AJUNOK_clean_linker_0, # of connection points: 2
#     Edge 16, Type (0, 1), BuildingBlock: AJUNOK_clean_linker_0, # of connection points: 2
#     Edge 17, Type (0, 1), BuildingBlock: AJUNOK_clean_linker_0, # of connection points: 2
# Relax obj value: 0.065
# Max RMSD: 0.213
# Mean RMSD: 0.105
data_MOF--net-pth--node1-AZAVOO_clean_sbu_0--node2-NAWXER_clean_linker_0--edge1-AJUNOK_clean_linker_0
_symmetry_space_group_name_H-M    P1
_symmetry_Int_Tables_number       1
_symmetry_cell_setting            triclinic
loop_
_symmetry_equiv_pos_as_xyz
'x, y, z'
_cell_length_a     22.520737
_cell_length_b     23.025172
_cell_length_c     50.715785
_cell_angle_alpha  91.091596
_cell_angle_beta   93.086509
_cell_angle_gamma 122.20388
loop_
_atom_site_label
_atom_site_type_symbol
_atom_site_fract_x
_atom_site_fract_y
_atom_site_fract_z
_atom_type_partial_charge
Mg0 Mg 0.07875 0.06273 0.03013 0.0
O1 O 0.98804 0.98907 0.00025 0.0
O2 O 0.97057 0.05153 0.97146 0.0
Mg3 Mg 0.0497 0.16538 0.98321 0.0
C4 C 0.95566 0.9936 0.97976 0.0
C5 C 0.0957 0.96334 0.06515 0.0
O6 O 0.16055 0.00433 0.05865 0.0
O7 O 0.01039 0.09108 0.05119 0.0
O8 O 0.00218 0.15982 0.02282 0.0
O9 O 0.15626 0.0659 0.00327 0.0
O10 O 0.12027 0.13816 0.00297 0.0
C11 C 0.9907 0.13215 0.04512 0.0
C12 C 0.15754 0.11755 0.99295 0.0
O13 O 0.04863 0.9739 0.05636 0.0
Mg14 Mg 0.95145 0.01682 0.34738 0.0
O15 O 0.0432 0.03538 0.3759 0.0
O16 O 0.08216 0.13327 0.39974 0.0
Mg17 Mg 0.01013 0.1725 0.38928 0.0
C18 C 0.0859 0.08146 0.39345 0.0
C19 C 0.97037 0.89393 0.33032 0.0
O20 O 0.96785 0.88362 0.35573 0.0
O21 O 0.02496 0.10494 0.32237 0.0
O22 O 0.04962 0.19629 0.34794 0.0
O23 O 0.87229 0.95783 0.37746 0.0
O24 O 0.92652 0.06933 0.37343 0.0
C25 C 0.05325 0.16973 0.32621 0.0
C26 C 0.88211 0.01644 0.38529 0.0
O27 O 0.96354 0.94177 0.32186 0.0
Mg28 Mg 0.97504 0.97984 0.6849 0.0
O29 O 0.05544 0.06879 0.71323 0.0
O30 O -0.00168 0.088 0.74338 0.0
Mg31 Mg 0.88038 0.01154 0.73364 0.0
C32 C 0.05527 0.10161 0.73371 0.0
C33 C 0.07281 0.96419 0.64853 0.0
O34 O 0.03438 0.90093 0.656 0.0
O35 O 0.94337 0.04685 0.66425 0.0
O36 O 0.87933 0.05728 0.69378 0.0
O37 O 0.97774 0.90534 0.71171 0.0
O38 O 0.90404 0.94049 0.71399 0.0
C39 C 0.90363 0.06758 0.67099 0.0
C40 C 0.92781 0.90469 0.72351 0.0
O41 O 0.06071 0.00879 0.65703 0.0
C42 C 0.00977 0.31836 0.23123 0.0
C43 C 0.07685 0.34469 0.24417 0.0
C44 C 0.99472 0.36125 0.21725 0.0
C45 C 0.04634 0.4312 0.21614 0.0
C46 C 0.12892 0.41449 0.24234 0.0
C47 C 0.11358 0.45746 0.2286 0.0
C48 C 0.03053 0.47794 0.20259 0.0
C49 C 0.03257 0.33645 0.14068 0.0
C50 C 0.9688 0.29833 0.12494 0.0
C51 C 0.04626 0.39227 0.15708 0.0
C52 C -0.00399 0.41042 0.1583 0.0
C53 C 0.91895 0.31707 0.12592 0.0
C54 C 0.93249 0.37268 0.14247 0.0
C55 C 0.00964 0.4697 0.17535 0.0
C56 C 0.08111 0.75327 0.15532 0.0
C57 C 0.03542 0.73979 0.13289 0.0
C58 C 0.07229 0.69979 0.17053 0.0
C59 C 0.01708 0.63172 0.1638 0.0
C60 C 0.9799 0.67185 0.1262 0.0
C61 C 0.971 0.61821 0.14148 0.0
C62 C 0.01221 0.57439 0.17837 0.0
C63 C 0.96109 0.68537 0.23634 0.0
C64 C 0.0088 0.71761 0.25863 0.0
C65 C 0.96653 0.64047 0.21928 0.0
C66 C 0.02034 0.62738 0.22394 0.0
C67 C 0.06151 0.70325 0.26376 0.0
C68 C 0.06717 0.6584 0.24656 0.0
C69 C 0.02457 0.57797 0.20616 0.0
H70 H 0.96778 0.26542 0.23298 0.0
H71 H 0.94226 0.34031 0.20798 0.0
H72 H 0.18092 0.43624 0.25218 0.0
H73 H 0.15409 0.5114 0.22785 0.0
H74 H 0.07293 0.32457 0.13961 0.0
H75 H 0.09665 0.42199 0.1684 0.0
H76 H 0.86981 0.28901 0.11372 0.0
H77 H 0.89327 0.38625 0.14295 0.0
H78 H 0.12448 0.80517 0.16083 0.0
H79 H 0.11017 0.71157 0.18708 0.0
H80 H 0.9448 0.65993 0.10868 0.0
H81 H 0.92879 0.56603 0.13564 0.0
H82 H 0.9187 0.69398 0.23236 0.0
H83 H 0.92776 0.61509 0.20266 0.0
H84 H 0.09865 0.72718 0.28093 0.0
H85 H 0.10841 0.64831 0.25083 0.0
N86 N 0.03564 0.53082 0.21713 0.0
N87 N 0.0028 0.51913 0.16413 0.0
C88 C 0.73488 0.09309 0.47982 0.0
C89 C 0.70983 0.03582 0.46206 0.0
C90 C 0.68833 0.10034 0.49454 0.0
C91 C 0.6161 0.04981 0.49207 0.0
C92 C 0.63784 0.98466 0.46001 0.0
C93 C 0.5913 0.99184 0.47478 0.0
C94 C 0.56543 0.05784 0.50652 0.0
C95 C 0.70463 0.04277 0.57079 0.0
C96 C 0.74205 0.1023 0.58782 0.0
C97 C 0.65094 0.03361 0.55268 0.0
C98 C 0.63412 0.08404 0.55122 0.0
C99 C 0.72664 0.1537 0.58564 0.0
C100 C 0.6726 0.14427 0.56768 0.0
C101 C 0.57341 0.0726 0.53409 0.0
C102 C 0.28114 0.98853 0.55618 0.0
C103 C 0.29552 0.03113 0.57889 0.0
C104 C 0.33519 2e-05 0.54058 0.0
C105 C 0.4046 0.05495 0.54718 0.0
C106 C 0.36493 0.08594 0.58555 0.0
C107 C 0.419 0.09764 0.56985 0.0
C108 C 0.46299 0.06382 0.53201 0.0
C109 C 0.33285 0.10643 0.47682 0.0
C110 C 0.3015 0.06252 0.45393 0.0
C111 C 0.38403 0.10477 0.49292 0.0
C112 C 0.40385 0.05783 0.48695 0.0
C113 C 0.32317 0.01728 0.44739 0.0
C114 C 0.37382 0.01492 0.46377 0.0
C115 C 0.45841 0.05618 0.50411 0.0
H116 H 0.79028 0.13313 0.4818 0.0
H117 H 0.7086 0.14619 0.50735 0.0
H118 H 0.61721 0.94042 0.44625 0.0
H119 H 0.53571 0.95238 0.47251 0.0
H120 H 0.71492 0.00199 0.57223 0.0
H121 H 0.62109 0.98625 0.54046 0.0
H122 H 0.75545 0.20059 0.59816 0.0
H123 H 0.66029 0.18375 0.5668 0.0
H124 H 0.22814 0.94571 0.55068 0.0
H125 H 0.32288 0.96479 0.52374 0.0
H126 H 0.37777 0.11856 0.6033 0.0
H127 H 0.47229 0.13954 0.57561 0.0
H128 H 0.31758 0.14206 0.48239 0.0
H129 H 0.40835 0.14068 0.50999 0.0
H130 H 0.30162 0.98425 0.42947 0.0
H131 H 0.38929 0.97932 0.45839 0.0
N132 N 0.50885 0.05148 0.49249 0.0
N133 N 0.52128 0.07374 0.54582 0.0
C134 C 0.34944 0.27051 0.81185 0.0
C135 C 0.32144 0.29371 0.79237 0.0
C136 C 0.41051 0.31749 0.82754 0.0
C137 C 0.44282 0.38849 0.82457 0.0
C138 C 0.35573 0.36417 0.78845 0.0
C139 C 0.41578 0.41112 0.80444 0.0
C140 C 0.50396 0.44056 0.84222 0.0
C141 C 0.33077 0.31611 0.89585 0.0
C142 C 0.3485 0.28303 0.91482 0.0
C143 C 0.38233 0.36659 0.88111 0.0
C144 C 0.45227 0.38393 0.88474 0.0
C145 C 0.41862 0.3007 0.91847 0.0
C146 C 0.4701 0.35088 0.90357 0.0
C147 C 0.50781 0.43926 0.87014 0.0
C148 C 0.70368 0.73341 0.90099 0.0
C149 C 0.7537 0.7371 0.9199 0.0
C150 C 0.6581 0.67255 0.88592 0.0
C151 C 0.66086 0.61379 0.88966 0.0
C152 C 0.75484 0.67745 0.92423 0.0
C153 C 0.70832 0.61603 0.90933 0.0
C154 C 0.61321 0.55048 0.87298 0.0
C155 C 0.78713 0.69078 0.82274 0.0
C156 C 0.7649 0.71328 0.80103 0.0
C157 C 0.73753 0.63797 0.83741 0.0
C158 C 0.66515 0.60748 0.83066 0.0
C159 C 0.69257 0.68259 0.79435 0.0
C160 C 0.64324 0.63008 0.80895 0.0
C161 C 0.61158 0.54997 0.84517 0.0
H162 H 0.32391 0.21612 0.81495 0.0
H163 H 0.43165 0.29836 0.8422 0.0
H164 H 0.33478 0.38303 0.77356 0.0
H165 H 0.43993 0.46549 0.80154 0.0
H166 H 0.27722 0.30386 0.8928 0.0
H167 H 0.36777 0.39278 0.86716 0.0
H168 H 0.43418 0.27756 0.9335 0.0
H169 H 0.52405 0.36445 0.90694 0.0
H170 H 0.69967 0.77762 0.89784 0.0
H171 H 0.62052 0.6713 0.87128 0.0
H172 H 0.79263 0.67867 0.93874 0.0
H173 H 0.7106 0.5709 0.91266 0.0
H174 H 0.84263 0.71395 0.82834 0.0
H175 H 0.75574 0.62028 0.85372 0.0
H176 H 0.67411 0.69856 0.7775 0.0
H177 H 0.58776 0.60711 0.80327 0.0
N178 N 0.55655 0.49567 0.83092 0.0
N179 N 0.56205 0.49456 0.88449 0.0
C180 C 0.94657 0.20616 0.0593 0.0
C181 C 0.96658 0.15947 0.066 0.0
C182 C 0.94248 0.24764 0.07873 0.0
C183 C 0.95813 0.24396 0.1056 0.0
H184 H 0.93842 0.21417 0.03878 0.0
H185 H 0.93173 0.28611 0.0725 0.0
S186 S -0.00231 0.12036 0.13429 0.0
N187 N 0.99085 0.1045 0.102 0.0
N188 N 0.98294 0.1828 0.1384 0.0
C189 C 0.97125 0.19303 0.11283 0.0
C190 C 0.97519 0.15045 0.09307 0.0
C191 C 0.8024 0.96896 0.42249 0.0
C192 C 0.84192 0.02323 0.40606 0.0
C193 C 0.76064 0.97359 0.44102 0.0
C194 C 0.75734 0.03273 0.44379 0.0
H195 H 0.8031 0.92237 0.42085 0.0
H196 H 0.73041 0.93052 0.45314 0.0
S197 S 0.84615 0.18692 0.40437 0.0
N198 N 0.87179 0.1367 0.39309 0.0
N199 N 0.79416 0.14502 0.42793 0.0
C200 C 0.7964 0.08714 0.42754 0.0
C201 C 0.83848 0.08248 0.40868 0.0
C202 C 0.84594 0.86784 0.75954 0.0
C203 C 0.89611 0.8621 0.74632 0.0
C204 C 0.80683 0.82184 0.77839 0.0
C205 C 0.81586 0.76784 0.78471 0.0
H206 H 0.83431 0.90636 0.75466 0.0
H207 H 0.76718 0.82701 0.78738 0.0
S208 S 0.94372 0.73248 0.7575 0.0
N209 N 0.9562 0.80064 0.74239 0.0
N210 N 0.88117 0.71302 0.77763 0.0
C211 C 0.86834 0.76336 0.77283 0.0
C212 C 0.90876 0.81071 0.75365 0.0
C213 C 0.13088 0.89354 0.09089 0.0
C214 C 0.07817 0.90583 0.08243 0.0
C215 C 0.11645 0.8399 0.10722 0.0
C216 C 0.04872 0.79624 0.11572 0.0
H217 H 0.1839 0.92544 0.08483 0.0
H218 H 0.15859 0.83206 0.11302 0.0
S219 S 0.89243 0.80725 0.10015 0.0
N220 N 0.95535 0.87015 0.08435 0.0
N221 N 0.92879 0.76952 0.11522 0.0
C222 C -0.00452 0.80781 0.10758 0.0
C223 C 0.01007 0.86258 0.09094 0.0
C224 C 0.20519 0.13399 0.41684 0.0
C225 C 0.1412 0.07465 0.40736 0.0
C226 C 0.25727 0.1294 0.4312 0.0
C227 C 0.24714 0.06529 0.43699 0.0
H228 H 0.21523 0.18454 0.41314 0.0
H229 H 0.30581 0.17664 0.43796 0.0
S230 S 0.08758 0.8943 0.41748 0.0
N231 N 0.0702 0.9497 0.40487 0.0
N232 N 0.16733 0.94101 0.43252 0.0
C233 C 0.18352 0.00543 0.42746 0.0
C234 C 0.13074 0.01014 0.41252 0.0
C235 C 0.1278 0.16279 0.77564 0.0
C236 C 0.12336 0.15309 0.74794 0.0
C237 C 0.19245 0.20749 0.7899 0.0
C238 C 0.2546 0.24498 0.77691 0.0
H239 H 0.08126 0.13447 0.78649 0.0
H240 H 0.19378 0.21334 0.81122 0.0
S241 S 0.27163 0.24008 0.70478 0.0
N242 N 0.187 0.18552 0.70808 0.0
N243 N 0.30824 0.27087 0.73499 0.0
C244 C 0.25098 0.23681 0.74927 0.0
C245 C 0.18541 0.19044 0.73475 0.0
C246 C 0.88296 0.08395 0.62347 0.0
C247 C 0.87459 0.09266 0.65032 0.0
C248 C 0.84261 0.09088 0.60326 0.0
C249 C 0.79286 0.10745 0.60906 0.0
H250 H 0.91776 0.06751 0.61791 0.0
H251 H 0.84836 0.08044 0.58294 0.0
S252 S 0.75751 0.14534 0.67582 0.0
N253 N 0.81844 0.12696 0.6814 0.0
N254 N 0.74187 0.13865 0.64339 0.0
C255 C 0.78778 0.12157 0.63566 0.0
C256 C 0.82889 0.1146 0.65628 0.0
C257 C 0.86603 0.86692 0.97683 0.0
C258 C 0.90229 0.92952 0.96432 0.0
C259 C 0.81796 0.80503 0.9624 0.0
C260 C 0.80478 0.80323 0.93487 0.0
H261 H 0.87466 0.86571 -0.00201 0.0
H262 H 0.79058 0.7583 0.97293 0.0
S263 S 0.89064 0.95186 0.8923 0.0
N264 N 0.92387 0.98528 0.92256 0.0
N265 N 0.83518 0.8689 0.89542 0.0
C266 C 0.84146 0.86531 0.92206 0.0
C267 C 0.88973 0.9284 0.93678 0.0
C268 C 0.98825 0.79699 0.32113 0.0
C269 C 0.98189 0.85077 0.3117 0.0
C270 C -0.0016 0.75502 0.30396 0.0
C271 C 0.00224 0.765 0.2767 0.0
H272 H 0.98487 0.78673 0.34193 0.0
H273 H 0.00177 0.71353 0.312 0.0
S274 S 0.99413 0.90119 0.24201 0.0
N275 N 0.98381 0.91342 0.27319 0.0
N276 N 0.00303 0.83454 0.24117 0.0
C277 C -0.00249 0.81926 0.26704 0.0
C278 C 0.98735 0.86214 0.28446 0.0
C279 C 0.14137 0.93246 0.6211 0.0
C280 C 0.12964 0.98309 0.6306 0.0
C281 C 0.19474 0.94848 0.60428 0.0
C282 C 0.23868 0.01579 0.59632 0.0
H283 H 0.10927 0.87986 0.62674 0.0
H284 H 0.2023 0.90793 0.59776 0.0
S285 S 0.22917 0.1671 0.61474 0.0
N286 N 0.16625 0.10362 0.63032 0.0
N287 N 0.26606 0.13316 0.59844 0.0
C288 C 0.2275 0.06693 0.60545 0.0
C289 C 0.17308 0.05073 0.62261 0.0
C290 C 0.20937 0.21663 0.96407 0.0
C291 C 0.20167 0.15421 0.97107 0.0
C292 C 0.25531 0.25657 0.94529 0.0
C293 C 0.29555 0.23583 0.93267 0.0
H294 H 0.18149 0.23639 0.97377 0.0
H295 H 0.2612 0.3054 0.94136 0.0
S296 S 0.29028 0.07374 0.94179 0.0
N297 N 0.23501 0.07131 0.96254 0.0
N298 N 0.32129 0.14659 0.92689 0.0
C299 C 0.28676 0.17243 0.93867 0.0
C300 C 0.23979 0.13154 0.95792 0.0
C301 C 0.11252 0.28642 0.30868 0.0
C302 C 0.07892 0.21492 0.30365 0.0
C303 C 0.11693 0.32914 0.28869 0.0
C304 C 0.08856 0.30218 0.26278 0.0
H305 H 0.13061 0.30908 0.32867 0.0
H306 H 0.13755 0.38264 0.29414 0.0
S307 S 0.01307 0.12222 0.23758 0.0
N308 N 0.02928 0.12136 0.26967 0.0
N309 N 0.03906 0.20252 0.23192 0.0
C310 C 0.06296 0.2325 0.25673 0.0
C311 C 0.05815 0.18868 0.27718 0.0
loop_
_geom_bond_atom_site_label_1
_geom_bond_atom_site_label_2
_geom_bond_distance
_geom_bond_site_symmetry_2
_ccdc_geom_bond_type
Mg0 O1 2.031 1_545 S
Mg0 O7 1.986 . S
Mg0 O9 2.114 . S
Mg0 O10 2.251 . S
Mg0 O13 2.010 . S
O1 Mg0 2.031 1_565 S
O1 C4 1.246 1_454 S
O2 Mg3 2.028 1_655 S
O2 C4 1.248 1_545 S
Mg3 O2 2.028 1_455 S
Mg3 O8 2.032 1_556 S
Mg3 O10 2.079 1_556 S
C4 O1 1.246 1_656 S
C4 O2 1.248 1_565 S
C5 O6 1.264 . S
C5 O13 1.249 1_565 S
O6 C5 1.264 . S
O7 Mg0 1.986 . S
O7 C11 1.246 . S
O8 Mg3 2.032 1_554 S
O8 C11 1.259 . S
O9 Mg0 2.114 . S
O9 C12 1.252 1_554 S
O10 Mg0 2.251 . S
O10 Mg3 2.079 1_554 S
O10 C12 1.273 1_554 S
C11 O7 1.246 . S
C11 O8 1.259 . S
C12 O9 1.252 1_556 S
C12 O10 1.273 1_556 S
O13 Mg0 2.010 . S
O13 C5 1.249 1_545 S
Mg14 O15 2.028 1_655 S
Mg14 O21 1.986 1_655 S
Mg14 O23 2.114 1_545 S
Mg14 O24 2.251 . S
Mg14 O27 2.010 1_545 S
O15 Mg14 2.028 1_455 S
O15 C18 1.250 . S
O16 Mg17 2.028 . S
O16 C18 1.248 . S
Mg17 O16 2.028 . S
Mg17 O22 2.032 . S
Mg17 O24 2.079 1_455 S
C18 O15 1.250 . S
C18 O16 1.248 . S
C19 O20 1.264 . S
C19 O27 1.249 . S
O20 C19 1.264 . S
O21 Mg14 1.986 1_455 S
O21 C25 1.246 . S
O22 Mg17 2.032 . S
O22 C25 1.259 . S
O23 Mg14 2.114 1_565 S
O23 C26 1.253 . S
O24 Mg14 2.251 . S
O24 Mg17 2.079 1_655 S
O24 C26 1.272 1_545 S
C25 O21 1.246 . S
C25 O22 1.259 . S
C26 O23 1.253 . S
C26 O24 1.272 1_565 S
O27 Mg14 2.010 1_565 S
O27 C19 1.249 . S
Mg28 O29 2.028 1_565 S
Mg28 O35 1.986 1_465 S
Mg28 O37 2.114 1_455 S
Mg28 O38 2.251 1_455 S
Mg28 O41 2.010 . S
O29 Mg28 2.028 1_545 S
O29 C32 1.250 . S
O30 Mg31 2.028 1_455 S
O30 C32 1.248 . S
Mg31 O30 2.028 1_655 S
Mg31 O36 2.032 . S
Mg31 O38 2.079 1_545 S
C32 O29 1.250 . S
C32 O30 1.248 . S
C33 O34 1.264 . S
C33 O41 1.249 . S
O34 C33 1.264 . S
O35 Mg28 1.986 1_645 S
O35 C39 1.246 . S
O36 Mg31 2.032 . S
O36 C39 1.259 . S
O37 Mg28 2.114 1_655 S
O37 C40 1.252 . S
O38 Mg28 2.251 1_655 S
O38 Mg31 2.079 1_565 S
O38 C40 1.273 . S
C39 O35 1.246 . S
C39 O36 1.259 . S
C40 O37 1.252 . S
C40 O38 1.273 . S
O41 Mg28 2.010 . S
O41 C33 1.249 . S
C42 C43 1.384 1_655 S
C42 C44 1.384 . S
C42 H70 0.931 . S
C43 C42 1.384 1_455 S
C43 C46 1.382 . S
C44 C42 1.384 . S
C44 C45 1.381 1_655 S
C44 H71 0.930 . S
C45 C44 1.381 1_455 S
C45 C47 1.381 . S
C45 C48 1.487 . S
C46 C43 1.382 . S
C46 C47 1.387 . S
C46 H72 0.930 . S
C47 C45 1.381 . S
C47 C46 1.387 . S
C47 H73 0.931 . S
C48 C45 1.487 . S
C48 C55 1.399 . S
C48 N86 1.343 . S
C49 C50 1.384 . S
C49 C51 1.384 . S
C49 H74 0.931 . S
C50 C49 1.384 . S
C50 C53 1.382 1_455 S
C51 C49 1.384 . S
C51 C52 1.381 . S
C51 H75 0.930 . S
C52 C51 1.381 . S
C52 C54 1.381 1_455 S
C52 C55 1.487 . S
C53 C50 1.382 1_655 S
C53 C54 1.387 . S
C53 H76 0.930 . S
C54 C52 1.381 1_655 S
C54 C53 1.387 . S
C54 H77 0.931 . S
C55 C48 1.399 . S
C55 C52 1.487 . S
C55 N87 1.343 . S
C56 C57 1.384 . S
C56 C58 1.384 . S
C56 H78 0.931 . S
C57 C56 1.384 . S
C57 C60 1.382 1_455 S
C58 C56 1.384 . S
C58 C59 1.381 . S
C58 H79 0.930 . S
C59 C58 1.381 . S
C59 C61 1.381 1_455 S
C59 C62 1.487 . S
C60 C57 1.382 1_655 S
C60 C61 1.387 . S
C60 H80 0.930 . S
C61 C59 1.381 1_655 S
C61 C60 1.387 . S
C61 H81 0.931 . S
C62 C59 1.487 . S
C62 C69 1.399 . S
C62 N87 1.343 . S
C63 C64 1.384 1_655 S
C63 C65 1.384 . S
C63 H82 0.931 . S
C64 C63 1.384 1_455 S
C64 C67 1.382 . S
C65 C63 1.384 . S
C65 C66 1.381 1_655 S
C65 H83 0.930 . S
C66 C65 1.381 1_455 S
C66 C68 1.381 . S
C66 C69 1.487 . S
C67 C64 1.382 . S
C67 C68 1.387 . S
C67 H84 0.930 . S
C68 C66 1.381 . S
C68 C67 1.387 . S
C68 H85 0.931 . S
C69 C62 1.399 . S
C69 C66 1.487 . S
C69 N86 1.343 . S
H70 C42 0.931 . S
H71 C44 0.930 . S
H72 C46 0.930 . S
H73 C47 0.931 . S
H74 C49 0.931 . S
H75 C51 0.930 . S
H76 C53 0.930 . S
H77 C54 0.931 . S
H78 C56 0.931 . S
H79 C58 0.930 . S
H80 C60 0.930 . S
H81 C61 0.931 . S
H82 C63 0.931 . S
H83 C65 0.930 . S
H84 C67 0.930 . S
H85 C68 0.931 . S
N86 C48 1.343 . S
N86 C69 1.343 . S
N87 C55 1.343 . S
N87 C62 1.343 . S
C88 C89 1.384 . S
C88 C90 1.384 . S
C88 H116 0.931 . S
C89 C88 1.384 . S
C89 C92 1.382 . S
C90 C88 1.384 . S
C90 C91 1.381 . S
C90 H117 0.930 . S
C91 C90 1.381 . S
C91 C93 1.381 . S
C91 C94 1.487 . S
C92 C89 1.382 . S
C92 C93 1.387 . S
C92 H118 0.930 1_545 S
C93 C91 1.381 . S
C93 C92 1.387 . S
C93 H119 0.931 1_545 S
C94 C91 1.487 . S
C94 C101 1.399 . S
C94 N132 1.343 . S
C95 C96 1.384 . S
C95 C97 1.384 . S
C95 H120 0.931 1_545 S
C96 C95 1.384 . S
C96 C99 1.382 . S
C97 C95 1.384 . S
C97 C98 1.381 . S
C97 H121 0.930 1_545 S
C98 C97 1.381 . S
C98 C100 1.381 . S
C98 C101 1.487 . S
C99 C96 1.382 . S
C99 C100 1.387 . S
C99 H122 0.930 . S
C100 C98 1.381 . S
C100 C99 1.387 . S
C100 H123 0.931 . S
C101 C94 1.399 . S
C101 C98 1.487 . S
C101 N133 1.343 . S
C102 C103 1.384 . S
C102 C104 1.384 . S
C102 H124 0.931 1_545 S
C103 C102 1.384 . S
C103 C106 1.382 . S
C104 C102 1.384 . S
C104 C105 1.381 . S
C104 H125 0.930 1_545 S
C105 C104 1.381 . S
C105 C107 1.381 . S
C105 C108 1.487 . S
C106 C103 1.382 . S
C106 C107 1.387 . S
C106 H126 0.930 . S
C107 C105 1.381 . S
C107 C106 1.387 . S
C107 H127 0.931 . S
C108 C105 1.487 . S
C108 C115 1.399 . S
C108 N133 1.343 . S
C109 C110 1.384 . S
C109 C111 1.384 . S
C109 H128 0.931 . S
C110 C109 1.384 . S
C110 C113 1.382 . S
C111 C109 1.384 . S
C111 C112 1.381 . S
C111 H129 0.930 . S
C112 C111 1.381 . S
C112 C114 1.381 . S
C112 C115 1.487 . S
C113 C110 1.382 . S
C113 C114 1.387 . S
C113 H130 0.930 1_545 S
C114 C112 1.381 . S
C114 C113 1.387 . S
C114 H131 0.931 1_545 S
C115 C108 1.399 . S
C115 C112 1.487 . S
C115 N132 1.343 . S
H116 C88 0.931 . S
H117 C90 0.930 . S
H118 C92 0.930 1_565 S
H119 C93 0.931 1_565 S
H120 C95 0.931 1_565 S
H121 C97 0.930 1_565 S
H122 C99 0.930 . S
H123 C100 0.931 . S
H124 C102 0.931 1_565 S
H125 C104 0.930 1_565 S
H126 C106 0.930 . S
H127 C107 0.931 . S
H128 C109 0.931 . S
H129 C111 0.930 . S
H130 C113 0.930 1_565 S
H131 C114 0.931 1_565 S
N132 C94 1.343 . S
N132 C115 1.343 . S
N133 C101 1.343 . S
N133 C108 1.343 . S
C134 C135 1.384 . S
C134 C136 1.384 . S
C134 H162 0.931 . S
C135 C134 1.384 . S
C135 C138 1.382 . S
C136 C134 1.384 . S
C136 C137 1.381 . S
C136 H163 0.930 . S
C137 C136 1.381 . S
C137 C139 1.381 . S
C137 C140 1.487 . S
C138 C135 1.382 . S
C138 C139 1.387 . S
C138 H164 0.930 . S
C139 C137 1.381 . S
C139 C138 1.387 . S
C139 H165 0.931 . S
C140 C137 1.487 . S
C140 C147 1.399 . S
C140 N178 1.343 . S
C141 C142 1.384 . S
C141 C143 1.384 . S
C141 H166 0.931 . S
C142 C141 1.384 . S
C142 C145 1.382 . S
C143 C141 1.384 . S
C143 C144 1.381 . S
C143 H167 0.930 . S
C144 C143 1.381 . S
C144 C146 1.381 . S
C144 C147 1.487 . S
C145 C142 1.382 . S
C145 C146 1.387 . S
C145 H168 0.930 . S
C146 C144 1.381 . S
C146 C145 1.387 . S
C146 H169 0.931 . S
C147 C140 1.399 . S
C147 C144 1.487 . S
C147 N179 1.343 . S
C148 C149 1.384 . S
C148 C150 1.384 . S
C148 H170 0.931 . S
C149 C148 1.384 . S
C149 C152 1.382 . S
C150 C148 1.384 . S
C150 C151 1.381 . S
C150 H171 0.930 . S
C151 C150 1.381 . S
C151 C153 1.381 . S
C151 C154 1.487 . S
C152 C149 1.382 . S
C152 C153 1.387 . S
C152 H172 0.930 . S
C153 C151 1.381 . S
C153 C152 1.387 . S
C153 H173 0.931 . S
C154 C151 1.487 . S
C154 C161 1.399 . S
C154 N179 1.343 . S
C155 C156 1.384 . S
C155 C157 1.384 . S
C155 H174 0.931 . S
C156 C155 1.384 . S
C156 C159 1.382 . S
C157 C155 1.384 . S
C157 C158 1.381 . S
C157 H175 0.930 . S
C158 C157 1.381 . S
C158 C160 1.381 . S
C158 C161 1.487 . S
C159 C156 1.382 . S
C159 C160 1.387 . S
C159 H176 0.930 . S
C160 C158 1.381 . S
C160 C159 1.387 . S
C160 H177 0.931 . S
C161 C154 1.399 . S
C161 C158 1.487 . S
C161 N178 1.343 . S
H162 C134 0.931 . S
H163 C136 0.930 . S
H164 C138 0.930 . S
H165 C139 0.931 . S
H166 C141 0.931 . S
H167 C143 0.930 . S
H168 C145 0.930 . S
H169 C146 0.931 . S
H170 C148 0.931 . S
H171 C150 0.930 . S
H172 C152 0.930 . S
H173 C153 0.931 . S
H174 C155 0.931 . S
H175 C157 0.930 . S
H176 C159 0.930 . S
H177 C160 0.931 . S
N178 C140 1.343 . S
N178 C161 1.343 . S
N179 C147 1.343 . S
N179 C154 1.343 . S
C180 C181 1.369 1_655 S
C180 C182 1.419 . S
C180 H184 0.930 . S
C181 C180 1.369 1_455 S
C181 C190 1.429 . S
C182 C180 1.419 . S
C182 C183 1.363 1_655 S
C182 H185 0.929 . S
C183 C182 1.363 1_455 S
C183 C189 1.428 . S
H184 C180 0.930 . S
H185 C182 0.929 . S
S186 N187 1.613 . S
S186 N188 1.610 . S
N187 S186 1.613 . S
N187 C190 1.350 . S
N188 S186 1.610 . S
N188 C189 1.351 . S
C189 C183 1.428 . S
C189 N188 1.351 . S
C189 C190 1.434 . S
C190 C181 1.429 . S
C190 N187 1.350 . S
C190 C189 1.434 . S
C191 C192 1.369 1_565 S
C191 C193 1.419 1_565 S
C191 H195 0.930 . S
C192 C191 1.369 1_545 S
C192 C201 1.429 . S
C193 C191 1.419 1_545 S
C193 C194 1.363 . S
C193 H196 0.929 . S
C194 C193 1.363 . S
C194 C200 1.428 . S
H195 C191 0.930 . S
H196 C193 0.929 . S
S197 N198 1.613 . S
S197 N199 1.610 . S
N198 S197 1.613 . S
N198 C201 1.350 . S
N199 S197 1.610 . S
N199 C200 1.351 . S
C200 C194 1.428 . S
C200 N199 1.351 . S
C200 C201 1.434 . S
C201 C192 1.429 . S
C201 N198 1.350 . S
C201 C200 1.434 . S
C202 C203 1.369 . S
C202 C204 1.419 . S
C202 H206 0.930 . S
C203 C202 1.369 . S
C203 C212 1.429 . S
C204 C202 1.419 . S
C204 C205 1.363 . S
C204 H207 0.929 . S
C205 C204 1.363 . S
C205 C211 1.428 . S
H206 C202 0.930 . S
H207 C204 0.929 . S
S208 N209 1.613 . S
S208 N210 1.610 . S
N209 S208 1.613 . S
N209 C212 1.350 . S
N210 S208 1.610 . S
N210 C211 1.351 . S
C211 C205 1.428 . S
C211 N210 1.351 . S
C211 C212 1.434 . S
C212 C203 1.429 . S
C212 N209 1.350 . S
C212 C211 1.434 . S
C213 C214 1.369 . S
C213 C215 1.419 . S
C213 H217 0.930 . S
C214 C213 1.369 . S
C214 C223 1.429 . S
C215 C213 1.419 . S
C215 C216 1.363 . S
C215 H218 0.929 . S
C216 C215 1.363 . S
C216 C222 1.428 1_455 S
H217 C213 0.930 . S
H218 C215 0.929 . S
S219 N220 1.613 . S
S219 N221 1.610 . S
N220 S219 1.613 . S
N220 C223 1.350 1_655 S
N221 S219 1.610 . S
N221 C222 1.351 . S
C222 C216 1.428 1_655 S
C222 N221 1.351 . S
C222 C223 1.434 1_655 S
C223 C214 1.429 . S
C223 N220 1.350 1_455 S
C223 C222 1.434 1_455 S
C224 C225 1.369 . S
C224 C226 1.419 . S
C224 H228 0.930 . S
C225 C224 1.369 . S
C225 C234 1.429 1_545 S
C226 C224 1.419 . S
C226 C227 1.363 . S
C226 H229 0.929 . S
C227 C226 1.363 . S
C227 C233 1.428 1_545 S
H228 C224 0.930 . S
H229 C226 0.929 . S
S230 N231 1.613 . S
S230 N232 1.610 . S
N231 S230 1.613 . S
N231 C234 1.350 . S
N232 S230 1.610 . S
N232 C233 1.351 . S
C233 C227 1.428 1_565 S
C233 N232 1.351 . S
C233 C234 1.434 . S
C234 C225 1.429 1_565 S
C234 N231 1.350 . S
C234 C233 1.434 . S
C235 C236 1.369 . S
C235 C237 1.419 . S
C235 H239 0.930 . S
C236 C235 1.369 . S
C236 C245 1.429 . S
C237 C235 1.419 . S
C237 C238 1.363 . S
C237 H240 0.929 . S
C238 C237 1.363 . S
C238 C244 1.428 . S
H239 C235 0.930 . S
H240 C237 0.929 . S
S241 N242 1.613 . S
S241 N243 1.610 . S
N242 S241 1.613 . S
N242 C245 1.350 . S
N243 S241 1.610 . S
N243 C244 1.351 . S
C244 C238 1.428 . S
C244 N243 1.351 . S
C244 C245 1.434 . S
C245 C236 1.429 . S
C245 N242 1.350 . S
C245 C244 1.434 . S
C246 C247 1.369 . S
C246 C248 1.419 . S
C246 H250 0.930 . S
C247 C246 1.369 . S
C247 C256 1.429 . S
C248 C246 1.419 . S
C248 C249 1.363 . S
C248 H251 0.929 . S
C249 C248 1.363 . S
C249 C255 1.428 . S
H250 C246 0.930 . S
H251 C248 0.929 . S
S252 N253 1.613 . S
S252 N254 1.610 . S
N253 S252 1.613 . S
N253 C256 1.350 1_565 S
N254 S252 1.610 . S
N254 C255 1.351 1_565 S
C255 C249 1.428 . S
C255 N254 1.351 1_545 S
C255 C256 1.434 . S
C256 C247 1.429 . S
C256 N253 1.350 1_545 S
C256 C255 1.434 . S
C257 C258 1.369 . S
C257 C259 1.419 . S
C257 H261 0.930 1_556 S
C258 C257 1.369 . S
C258 C267 1.429 . S
C259 C257 1.419 . S
C259 C260 1.363 . S
C259 H262 0.929 . S
C260 C259 1.363 . S
C260 C266 1.428 . S
H261 C257 0.930 1_554 S
H262 C259 0.929 . S
S263 N264 1.613 . S
S263 N265 1.610 . S
N264 S263 1.613 . S
N264 C267 1.350 . S
N265 S263 1.610 . S
N265 C266 1.351 . S
C266 C260 1.428 . S
C266 N265 1.351 . S
C266 C267 1.434 . S
C267 C258 1.429 . S
C267 N264 1.350 . S
C267 C266 1.434 . S
C268 C269 1.369 . S
C268 C270 1.419 . S
C268 H272 0.930 . S
C269 C268 1.369 . S
C269 C278 1.429 1_655 S
C270 C268 1.419 . S
C270 C271 1.363 1_655 S
C270 H273 0.929 . S
C271 C270 1.363 1_455 S
C271 C277 1.428 . S
H272 C268 0.930 . S
H273 C270 0.929 . S
S274 N275 1.613 . S
S274 N276 1.610 . S
N275 S274 1.613 . S
N275 C278 1.350 . S
N276 S274 1.610 . S
N276 C277 1.351 . S
C277 C271 1.428 . S
C277 N276 1.351 . S
C277 C278 1.434 . S
C278 C269 1.429 1_455 S
C278 N275 1.350 . S
C278 C277 1.434 . S
C279 C280 1.369 1_565 S
C279 C281 1.419 . S
C279 H283 0.930 . S
C280 C279 1.369 1_545 S
C280 C289 1.429 . S
C281 C279 1.419 . S
C281 C282 1.363 1_565 S
C281 H284 0.929 . S
C282 C281 1.363 1_545 S
C282 C288 1.428 . S
H283 C279 0.930 . S
H284 C281 0.929 . S
S285 N286 1.613 . S
S285 N287 1.610 . S
N286 S285 1.613 . S
N286 C289 1.350 . S
N287 S285 1.610 . S
N287 C288 1.351 . S
C288 C282 1.428 . S
C288 N287 1.351 . S
C288 C289 1.434 . S
C289 C280 1.429 . S
C289 N286 1.350 . S
C289 C288 1.434 . S
C290 C291 1.369 . S
C290 C292 1.419 . S
C290 H294 0.930 1_556 S
C291 C290 1.369 . S
C291 C300 1.429 . S
C292 C290 1.419 . S
C292 C293 1.363 . S
C292 H295 0.929 . S
C293 C292 1.363 . S
C293 C299 1.428 . S
H294 C290 0.930 1_554 S
H295 C292 0.929 . S
S296 N297 1.613 . S
S296 N298 1.610 . S
N297 S296 1.613 . S
N297 C300 1.350 . S
N298 S296 1.610 . S
N298 C299 1.351 . S
C299 C293 1.428 . S
C299 N298 1.351 . S
C299 C300 1.434 . S
C300 C291 1.429 . S
C300 N297 1.350 . S
C300 C299 1.434 . S
C301 C302 1.369 . S
C301 C303 1.419 . S
C301 H305 0.930 . S
C302 C301 1.369 . S
C302 C311 1.429 1_455 S
C303 C301 1.419 . S
C303 C304 1.363 . S
C303 H306 0.929 . S
C304 C303 1.363 . S
C304 C310 1.428 1_455 S
H305 C301 0.930 . S
H306 C303 0.929 . S
S307 N308 1.613 . S
S307 N309 1.610 . S
N308 S307 1.613 . S
N308 C311 1.350 . S
N309 S307 1.610 . S
N309 C310 1.351 . S
C310 C304 1.428 1_655 S
C310 N309 1.351 . S
C310 C311 1.434 . S
C311 C302 1.429 1_655 S
C311 N308 1.350 . S
C311 C310 1.434 . S
C183 C50 1.429 . S
C181 C11 1.410 . S
C192 C26 1.550 1_545 S
C194 C89 1.571 . S
C203 C40 1.446 . S
C205 C156 1.461 . S
C214 C5 1.289 . S
C216 C57 1.433 . S
C227 C110 1.546 . S
C225 C18 1.533 . S
C236 C32 1.426 . S
C238 C135 1.437 . S
C249 C96 1.322 . S
C247 C39 1.305 . S
C258 C4 1.431 . S
C260 C149 1.449 . S
C271 C64 1.446 . S
C269 C19 1.299 . S
C282 C103 1.382 . S
C280 C33 1.242 1_545 S
C293 C142 1.467 . S
C291 C12 1.458 . S
C302 C25 1.420 . S
C304 C43 1.440 . S
