# Generated by pormake.
# Topology pto, (3,4)-cn, num edge types: 1
# Building blocks:
#     Node 0, Type 0, BuildingBlock: BETDAH_clean_linker_0, # of connection points: 3
#     Node 1, Type 0, BuildingBlock: BETDAH_clean_linker_0, # of connection points: 3
#     Node 2, Type 0, BuildingBlock: BETDAH_clean_linker_0, # of connection points: 3
#     Node 3, Type 0, BuildingBlock: BETDAH_clean_linker_0, # of connection points: 3
#     Node 4, Type 0, BuildingBlock: BETDAH_clean_linker_0, # of connection points: 3
#     Node 5, Type 0, BuildingBlock: BETDAH_clean_linker_0, # of connection points: 3
#     Node 6, Type 0, BuildingBlock: BETDAH_clean_linker_0, # of connection points: 3
#     Node 7, Type 0, BuildingBlock: BETDAH_clean_linker_0, # of connection points: 3
#     Node 8, Type 1, BuildingBlock: NAWXER_clean_sbu_0, # of connection points: 4
#     Node 9, Type 1, BuildingBlock: NAWXER_clean_sbu_0, # of connection points: 4
#     Node 10, Type 1, BuildingBlock: NAWXER_clean_sbu_0, # of connection points: 4
#     Node 11, Type 1, BuildingBlock: NAWXER_clean_sbu_0, # of connection points: 4
#     Node 12, Type 1, BuildingBlock: NAWXER_clean_sbu_0, # of connection points: 4
#     Node 13, Type 1, BuildingBlock: NAWXER_clean_sbu_0, # of connection points: 4
#     Edge 14, Type (0, 1), BuildingBlock: XIVTED_clean_linker_0, # of connection points: 2
#     Edge 15, Type (0, 1), BuildingBlock: XIVTED_clean_linker_0, # of connection points: 2
#     Edge 16, Type (0, 1), BuildingBlock: XIVTED_clean_linker_0, # of connection points: 2
#     Edge 17, Type (0, 1), BuildingBlock: XIVTED_clean_linker_0, # of connection points: 2
#     Edge 18, Type (0, 1), BuildingBlock: XIVTED_clean_linker_0, # of connection points: 2
#     Edge 19, Type (0, 1), BuildingBlock: XIVTED_clean_linker_0, # of connection points: 2
#     Edge 20, Type (0, 1), BuildingBlock: XIVTED_clean_linker_0, # of connection points: 2
#     Edge 21, Type (0, 1), BuildingBlock: XIVTED_clean_linker_0, # of connection points: 2
#     Edge 22, Type (0, 1), BuildingBlock: XIVTED_clean_linker_0, # of connection points: 2
#     Edge 23, Type (0, 1), BuildingBlock: XIVTED_clean_linker_0, # of connection points: 2
#     Edge 24, Type (0, 1), BuildingBlock: XIVTED_clean_linker_0, # of connection points: 2
#     Edge 25, Type (0, 1), BuildingBlock: XIVTED_clean_linker_0, # of connection points: 2
#     Edge 26, Type (0, 1), BuildingBlock: XIVTED_clean_linker_0, # of connection points: 2
#     Edge 27, Type (0, 1), BuildingBlock: XIVTED_clean_linker_0, # of connection points: 2
#     Edge 28, Type (0, 1), BuildingBlock: XIVTED_clean_linker_0, # of connection points: 2
#     Edge 29, Type (0, 1), BuildingBlock: XIVTED_clean_linker_0, # of connection points: 2
#     Edge 30, Type (0, 1), BuildingBlock: XIVTED_clean_linker_0, # of connection points: 2
#     Edge 31, Type (0, 1), BuildingBlock: XIVTED_clean_linker_0, # of connection points: 2
#     Edge 32, Type (0, 1), BuildingBlock: XIVTED_clean_linker_0, # of connection points: 2
#     Edge 33, Type (0, 1), BuildingBlock: XIVTED_clean_linker_0, # of connection points: 2
#     Edge 34, Type (0, 1), BuildingBlock: XIVTED_clean_linker_0, # of connection points: 2
#     Edge 35, Type (0, 1), BuildingBlock: XIVTED_clean_linker_0, # of connection points: 2
#     Edge 36, Type (0, 1), BuildingBlock: XIVTED_clean_linker_0, # of connection points: 2
#     Edge 37, Type (0, 1), BuildingBlock: XIVTED_clean_linker_0, # of connection points: 2
# Relax obj value: 0.010
# Max RMSD: 0.137
# Mean RMSD: 0.057
data_MOF--net-pto--node1-NAWXER_clean_sbu_0--node2-BETDAH_clean_linker_0--edge1-XIVTED_clean_linker_0
_symmetry_space_group_name_H-M    P1
_symmetry_Int_Tables_number       1
_symmetry_cell_setting            triclinic
loop_
_symmetry_equiv_pos_as_xyz
'x, y, z'
_cell_length_a     42.823805
_cell_length_b     39.459577
_cell_length_c     38.026729
_cell_angle_alpha  109.18595
_cell_angle_beta   95.634021
_cell_angle_gamma 99.204283
loop_
_atom_site_label
_atom_site_type_symbol
_atom_site_fract_x
_atom_site_fract_y
_atom_site_fract_z
_atom_type_partial_charge
H0 H 0.30672 0.21698 0.43226 0.0
H1 H 0.28254 0.32115 0.44035 0.0
H2 H 0.25919 0.27164 0.52206 0.0
C3 C 0.29536 0.23957 0.44547 0.0
C4 C 0.28194 0.2404 0.47781 0.0
C5 C 0.2964 0.26891 0.43198 0.0
C6 C 0.28216 0.29843 0.45043 0.0
C7 C 0.26857 0.29924 0.48288 0.0
C8 C 0.26914 0.27057 0.49666 0.0
N9 N 0.25559 0.32918 0.50365 0.0
C10 C 0.24219 0.35209 0.48842 0.0
H11 H 0.29749 0.70241 0.89839 0.0
H12 H 0.3196 0.78757 0.85162 0.0
H13 H 0.22544 0.76078 0.87765 0.0
C14 C 0.29016 0.7228 0.88785 0.0
C15 C 0.25871 0.72849 0.88896 0.0
C16 C 0.31251 0.74412 0.8748 0.0
C17 C 0.30272 0.77101 0.86187 0.0
C18 C 0.27121 0.77696 0.86303 0.0
C19 C 0.2497 0.75615 0.87717 0.0
N20 N 0.26036 0.80417 0.85114 0.0
C21 C 0.27238 0.81694 0.82417 0.0
H22 H 0.83591 0.7273 0.40759 0.0
H23 H 0.74188 0.70347 0.34186 0.0
H24 H 0.80276 0.62524 0.31495 0.0
C25 C 0.81746 0.70909 0.38461 0.0
C26 C 0.82329 0.67543 0.36166 0.0
C27 C 0.78802 0.71944 0.37794 0.0
C28 C 0.76446 0.69572 0.34761 0.0
C29 C 0.76995 0.66177 0.32489 0.0
C30 C 0.799 0.65168 0.33245 0.0
N31 N 0.74662 0.63684 0.29454 0.0
C32 C 0.726 0.64773 0.27178 0.0
H33 H 0.81256 0.26387 0.92357 0.0
H34 H 0.72546 0.23407 0.96326 0.0
H35 H 0.79282 0.33375 0.02893 0.0
C36 C 0.79732 0.26983 0.94503 0.0
C37 C 0.80655 0.3021 0.97682 0.0
C38 C 0.76835 0.24511 0.9401 0.0
C39 C 0.74772 0.25321 0.9669 0.0
C40 C 0.75672 0.2854 0.99905 0.0
C41 C 0.78599 0.30944 0.00375 0.0
N42 N 0.73761 0.2944 0.02792 0.0
C43 C 0.70707 0.27545 0.02699 0.0
H44 H 0.8172 0.69012 0.88012 0.0
H45 H 0.89588 0.7258 0.83004 0.0
H46 H 0.82188 0.78808 0.8522 0.0
C47 C 0.82908 0.70932 0.8684 0.0
C48 C 0.81585 0.73966 0.86776 0.0
C49 C 0.85776 0.7038 0.85451 0.0
C50 C 0.87333 0.72914 0.84007 0.0
C51 C 0.86062 0.75934 0.83899 0.0
C52 C 0.83178 0.76465 0.85283 0.0
N53 N 0.87825 0.7841 0.82467 0.0
C54 C 0.86657 0.81068 0.81389 0.0
H55 H 0.77906 0.32117 0.3685 0.0
H56 H 0.84314 0.25275 0.38569 0.0
H57 H 0.74364 0.22335 0.39206 0.0
C58 C 0.78314 0.2977 0.37575 0.0
C59 C 0.75713 0.27345 0.38017 0.0
C60 C 0.81425 0.29066 0.37798 0.0
C61 C 0.81937 0.25894 0.38463 0.0
C62 C 0.79417 0.23522 0.39052 0.0
C63 C 0.76312 0.24253 0.38856 0.0
N64 N 0.7999 0.202 0.39388 0.0
C65 C 0.79568 0.19247 0.42542 0.0
H66 H 0.36053 0.27512 0.93497 0.0
H67 H 0.32636 0.37584 0.95703 0.0
H68 H 0.32615 0.30691 0.84278 0.0
C69 C 0.35015 0.29413 0.92472 0.0
C70 C 0.34384 0.28689 0.88579 0.0
C71 C 0.34439 0.32633 0.95064 0.0
C72 C 0.33109 0.351 0.9373 0.0
C73 C 0.32424 0.34366 0.89829 0.0
C74 C 0.3314 0.31221 0.8728 0.0
N75 N 0.31097 0.36812 0.88415 0.0
C76 C 0.28081 0.3753 0.88997 0.0
H77 H 0.28476 0.73995 0.34269 0.0
H78 H 0.36503 0.76249 0.28876 0.0
H79 H 0.3015 0.65641 0.24454 0.0
C80 C 0.29879 0.73087 0.32042 0.0
C81 C 0.28982 0.69504 0.29412 0.0
C82 C 0.32586 0.75516 0.31876 0.0
C83 C 0.34407 0.74372 0.28995 0.0
C84 C 0.3349 0.70814 0.26268 0.0
C85 C 0.30798 0.68398 0.26512 0.0
N86 N 0.35228 0.69551 0.23268 0.0
C87 C 0.37589 0.71785 0.22303 0.0
C88 C 1.00398 0.46223 0.35408 0.0
C89 C 0.09416 0.54604 0.33782 0.0
O90 O 0.01752 0.48831 0.38474 0.0
Zn91 Zn 0.05652 0.53465 0.40364 0.0
O92 O 0.0148 0.4599 0.32356 0.0
Zn93 Zn 0.04872 0.50355 0.34457 0.0
O94 O 0.08154 0.48693 0.37876 0.0
O95 O 0.08531 0.52241 0.43816 0.0
O96 O 0.07597 0.51866 0.31211 0.0
O97 O 0.08893 0.55433 0.37197 0.0
O98 O 0.03433 0.57447 0.42286 0.0
O99 O 0.02192 0.54629 0.36118 0.0
C100 C 0.09354 0.49609 0.41362 0.0
C101 C 0.01827 0.571 0.39146 0.0
C102 C 0.9995 0.47121 0.96031 0.0
C103 C 0.08161 0.56184 0.94054 0.0
O104 O 0.01635 0.50001 0.98551 0.0
Zn105 Zn 0.04008 0.51827 0.95209 0.0
O106 O 1.00262 0.46432 0.92561 0.0
Zn107 Zn 0.02956 0.48848 0.89246 0.0
O108 O 0.05314 0.45136 0.86922 0.0
O109 O 0.06886 0.47814 0.93075 0.0
O110 O 0.06714 0.53589 0.91027 0.0
O111 O 0.07294 0.5634 0.97202 0.0
O112 O 1.00381 0.53427 0.92221 0.0
O113 O 0.99736 0.50112 0.86173 0.0
C114 C 0.07185 0.45504 0.89899 0.0
C115 C 0.98969 0.52611 0.88834 0.0
C116 C 0.304 0.95394 0.64808 0.0
C117 C 0.30157 0.04461 0.58682 0.0
O118 O 0.27975 0.96199 0.63305 0.0
Zn119 Zn 0.30207 0.99783 0.6152 0.0
O120 O 0.33224 0.9691 0.64592 0.0
Zn121 Zn 0.35312 0.00816 0.622 0.0
O122 O 0.37892 0.04692 0.66581 0.0
O123 O 0.32669 0.04062 0.6663 0.0
O124 O 0.33006 0.04107 0.59657 0.0
O125 O 0.27758 0.02422 0.59191 0.0
O126 O 0.32097 0.96651 0.56849 0.0
O127 O 0.37374 0.97997 0.58174 0.0
C128 C 0.35555 0.05688 0.68195 0.0
C129 C 0.34824 0.96211 0.55875 0.0
C130 C 0.60007 0.70263 0.06883 0.0
C131 C 0.52694 0.72159 0.97307 0.0
O132 O 0.58032 0.67819 0.04184 0.0
Zn133 Zn 0.56492 0.7107 0.01852 0.0
O134 O 0.60345 0.73628 0.07143 0.0
Zn135 Zn 0.58395 0.76838 0.04253 0.0
O136 O 0.56527 0.79972 0.08273 0.0
O137 O 0.54057 0.74137 0.06074 0.0
O138 O 0.54524 0.75147 0.99566 0.0
O139 O 0.53077 0.69114 0.97568 0.0
O140 O 0.60505 0.72909 0.99561 0.0
O141 O 0.62073 0.78883 0.02409 0.0
C142 C 0.54285 0.77438 0.08291 0.0
C143 C 0.62424 0.75914 0.9999 0.0
C144 C 0.81477 0.97658 0.6771 0.0
C145 C 0.80063 0.05798 0.60585 0.0
O146 O 0.78536 0.97506 0.665 0.0
Zn147 Zn 0.75781 0.99941 0.63309 0.0
O148 O 0.83683 0.99785 0.66985 0.0
Zn149 Zn 0.80891 0.01764 0.64188 0.0
O150 O 0.78538 0.04671 0.68537 0.0
O151 O 0.73317 0.02509 0.67053 0.0
O152 O 0.82678 0.05425 0.62168 0.0
O153 O 0.77402 0.03927 0.60823 0.0
O154 O 0.73729 0.95619 0.58913 0.0
O155 O 0.78971 0.97088 0.5926 0.0
C156 C 0.75714 0.04726 0.69363 0.0
C157 C 0.76267 0.94988 0.57554 0.0
C158 C 0.54846 0.30644 0.26821 0.0
C159 C 0.46462 0.3249 0.18269 0.0
O160 O 0.52934 0.27672 0.24688 0.0
Zn161 Zn 0.48836 0.25934 0.20387 0.0
O162 O 0.54385 0.33688 0.26627 0.0
Zn163 Zn 0.50622 0.31748 0.22672 0.0
O164 O 0.46933 0.29739 0.25347 0.0
O165 O 0.45525 0.23734 0.22563 0.0
O166 O 0.48629 0.3499 0.20684 0.0
O167 O 0.46334 0.2913 0.1795 0.0
O168 O 0.50502 0.22911 0.16104 0.0
O169 O 0.52576 0.2883 0.17877 0.0
C170 C 0.45179 0.26669 0.25046 0.0
C171 C 0.52368 0.25533 0.1565 0.0
H172 H 0.23102 0.41607 0.53317 0.0
H173 H 0.11437 0.43792 0.36752 0.0
H174 H 0.21298 0.34147 0.41813 0.0
H175 H 0.1266 0.50852 0.48409 0.0
H176 H 0.15312 0.40494 0.38494 0.0
H177 H 0.19619 0.4533 0.51506 0.0
C178 C 0.21999 0.40794 0.50395 0.0
C179 C 0.22479 0.37605 0.47692 0.0
C180 C 0.1474 0.42765 0.40676 0.0
C181 C 0.18472 0.41782 0.45609 0.0
C182 C 0.1252 0.44655 0.39685 0.0
C183 C 0.11706 0.47604 0.42443 0.0
C184 C 0.16174 0.43822 0.44456 0.0
C185 C 0.13203 0.4859 0.46192 0.0
C186 C 0.20002 0.42899 0.49366 0.0
C187 C 0.20987 0.36615 0.4396 0.0
N188 N 0.15362 0.467 0.47089 0.0
N189 N 0.19036 0.38694 0.43024 0.0
H190 H 0.2481 0.65413 0.86814 0.0
H191 H 0.10705 0.63336 0.9876 0.0
H192 H 0.2152 0.74825 0.93681 0.0
H193 H 0.11966 0.5489 0.88704 0.0
H194 H 0.15242 0.67533 0.9787 0.0
H195 H 0.20717 0.61433 0.88498 0.0
C196 C 0.23246 0.66645 0.88712 0.0
C197 C 0.23496 0.70453 0.90097 0.0
C198 C 0.14515 0.64753 0.95877 0.0
C199 C 0.18784 0.65906 0.9202 0.0
C200 C 0.11945 0.62364 0.9639 0.0
C201 C 0.10945 0.58778 0.93783 0.0
C202 C 0.16115 0.635 0.92787 0.0
C203 C 0.12627 0.57646 0.90758 0.0
C204 C 0.20897 0.64371 0.89653 0.0
C205 C 0.2138 0.71896 0.92517 0.0
N206 N 0.15126 0.5999 0.90353 0.0
N207 N 0.19104 0.69619 0.93405 0.0
H208 H 0.85839 0.64544 0.30777 0.0
H209 H 0.99336 0.61534 0.44966 0.0
H210 H 0.86018 0.68205 0.42819 0.0
H211 H 0.98644 0.57628 0.32843 0.0
H212 H 0.94807 0.64533 0.44388 0.0
H213 H 0.90839 0.62498 0.31621 0.0
C214 C 0.86931 0.6491 0.33605 0.0
C215 C 0.85482 0.66504 0.36727 0.0
C216 C 0.9567 0.63045 0.41862 0.0
C217 C 0.9125 0.64181 0.37729 0.0
C218 C 0.98263 0.61346 0.4219 0.0
C219 C 0.99359 0.59301 0.38946 0.0
C220 C 0.94175 0.62702 0.38265 0.0
C221 C 0.9787 0.59144 0.35423 0.0
C222 C 0.89801 0.63758 0.3409 0.0
C223 C 0.87053 0.6699 0.40334 0.0
N224 N 0.95353 0.60798 0.3518 0.0
N225 N 0.8984 0.65804 0.40736 0.0
H226 H 0.82006 0.37776 0.00624 0.0
H227 H 0.98174 0.39757 0.9255 0.0
H228 H 0.86413 0.28545 0.95835 0.0
H229 H 0.96171 0.48736 0.01556 0.0
H230 H 0.93723 0.3564 0.93531 0.0
H231 H 0.87013 0.41908 0.00893 0.0
C232 C 0.84028 0.36608 0.99673 0.0
C233 C 0.83754 0.32787 0.9815 0.0
C234 C 0.94277 0.38498 0.9533 0.0
C235 C 0.89468 0.37516 0.98389 0.0
C236 C 0.96812 0.40851 0.94767 0.0
C237 C 0.97533 0.44587 0.96976 0.0
C238 C 0.92389 0.39906 0.98061 0.0
C239 C 0.95699 0.45866 0.99812 0.0
C240 C 0.86883 0.38977 0.99821 0.0
C241 C 0.86462 0.31456 0.96927 0.0
N242 N 0.93168 0.43535 1.00235 0.0
N243 N 0.89183 0.33813 0.9703 0.0
H244 H 0.25694 0.16709 0.44308 0.0
H245 H 0.34274 0.10912 0.60126 0.0
H246 H 0.30976 0.24692 0.54769 0.0
H247 H 0.25113 0.04557 0.53672 0.0
H248 H 0.33665 0.1568 0.5748 0.0
H249 H 0.25982 0.11854 0.47002 0.0
C250 C 0.26911 0.17426 0.47168 0.0
C251 C 0.28309 0.21084 0.49337 0.0
C252 C 0.31786 0.13246 0.56651 0.0
C253 C 0.28688 0.15597 0.52382 0.0
C254 C 0.32136 0.10519 0.58141 0.0
C255 C 0.29736 0.07343 0.57111 0.0
C256 C 0.29054 0.1276 0.54045 0.0
C257 C 0.27006 0.06981 0.54547 0.0
C258 C 0.27059 0.14674 0.48702 0.0
C259 C 0.29857 0.21898 0.53025 0.0
N260 N 0.2675 0.09648 0.53061 0.0
N261 N 0.30035 0.19169 0.54422 0.0
H262 H 0.33477 0.68003 0.85657 0.0
H263 H 0.51271 0.78216 0.96037 0.0
H264 H 0.3674 0.79751 0.89938 0.0
H265 H 0.47762 0.66561 0.92832 0.0
H266 H 0.46282 0.78685 0.92713 0.0
H267 H 0.38967 0.67316 0.87168 0.0
C268 C 0.35356 0.70439 0.86877 0.0
C269 C 0.34635 0.73944 0.87731 0.0
C270 C 0.46616 0.76016 0.92693 0.0
C271 C 0.40934 0.73175 0.89464 0.0
C272 C 0.49472 0.75741 0.94586 0.0
C273 C 0.49925 0.72348 0.94761 0.0
C274 C 0.44179 0.72879 0.90966 0.0
C275 C 0.47512 0.69238 0.92799 0.0
C276 C 0.38492 0.70043 0.87732 0.0
C277 C 0.37179 0.76998 0.89232 0.0
N278 N 0.44727 0.69586 0.91023 0.0
N279 N 0.40206 0.76544 0.90097 0.0
H280 H 0.8288 0.78646 0.4044 0.0
H281 H 0.71463 0.88832 0.54014 0.0
H282 H 0.73361 0.73331 0.40816 0.0
H283 H 0.8103 0.93789 0.53359 0.0
H284 H 0.71846 0.83289 0.48819 0.0
H285 H 0.82012 0.84362 0.44845 0.0
C286 C 0.80604 0.78683 0.41453 0.0
C287 C 0.78203 0.75493 0.40284 0.0
C288 C 0.73846 0.85609 0.49799 0.0
C289 C 0.77175 0.82059 0.45339 0.0
C290 C 0.73622 0.88776 0.5275 0.0
C291 C 0.76228 0.91768 0.5415 0.0
C292 C 0.76692 0.85451 0.48241 0.0
C293 C 0.78971 0.9154 0.5241 0.0
C294 C 0.801 0.81956 0.43959 0.0
C295 C 0.75274 0.75729 0.41634 0.0
N296 N 0.79135 0.8844 0.49575 0.0
N297 N 0.7485 0.78947 0.44115 0.0
H298 H 0.65391 0.29978 0.01266 0.0
H299 H 0.55386 0.19764 0.12928 0.0
H300 H 0.68898 0.22261 0.05614 0.0
H301 H 0.54015 0.29923 0.11679 0.0
H302 H 0.59471 0.1944 0.08756 0.0
H303 H 0.60306 0.28693 0.03492 0.0
C304 C 0.65046 0.27939 0.02606 0.0
C305 C 0.67531 0.26212 0.03267 0.0
C306 C 0.58229 0.21701 0.0935 0.0
C307 C 0.6178 0.24783 0.05884 0.0
C308 C 0.55892 0.21874 0.11705 0.0
C309 C 0.54395 0.24893 0.12667 0.0
C310 C 0.59015 0.24536 0.07915 0.0
C311 C 0.55145 0.27571 0.11037 0.0
C312 C 0.62161 0.27224 0.03897 0.0
C313 C 0.67009 0.23628 0.05051 0.0
N314 N 0.57409 0.27339 0.08759 0.0
N315 N 0.64192 0.23012 0.0634 0.0
H316 H 0.32984 0.85191 0.81601 0.0
H317 H 0.24818 0.91275 0.65403 0.0
H318 H 0.22984 0.81624 0.76735 0.0
H319 H 0.35034 0.93845 0.6921 0.0
H320 H 0.24152 0.87536 0.69378 0.0
H321 H 0.33871 0.8819 0.76933 0.0
C322 C 0.30991 0.85011 0.79513 0.0
C323 C 0.27914 0.83175 0.79514 0.0
C324 C 0.26544 0.88895 0.69327 0.0
C325 C 0.28876 0.86603 0.74236 0.0
C326 C 0.26925 0.91035 0.67056 0.0
C327 C 0.29985 0.92895 0.66983 0.0
C328 C 0.29238 0.8863 0.71575 0.0
C329 C 0.32628 0.92467 0.6918 0.0
C330 C 0.31489 0.86719 0.7686 0.0
C331 C 0.25394 0.83019 0.76796 0.0
N332 N 0.32192 0.90404 0.71408 0.0
N333 N 0.25924 0.84732 0.74277 0.0
H334 H 0.72507 0.71471 0.26795 0.0
H335 H 0.59839 0.63487 0.07539 0.0
H336 H 0.68243 0.60006 0.21356 0.0
H337 H 0.64328 0.74922 0.12984 0.0
H338 H 0.62791 0.62132 0.12604 0.0
H339 H 0.69369 0.72807 0.21832 0.0
C340 C 0.70879 0.69247 0.24563 0.0
C341 C 0.70596 0.65638 0.24459 0.0
C342 C 0.63128 0.64936 0.12683 0.0
C343 C 0.67043 0.67105 0.1877 0.0
C344 C 0.6145 0.65709 0.09786 0.0
C345 C 0.61836 0.69322 0.09826 0.0
C346 C 0.65205 0.67797 0.15641 0.0
C347 C 0.63951 0.72093 0.12822 0.0
C348 C 0.691 0.69998 0.21727 0.0
C349 C 0.68494 0.6283 0.21517 0.0
N350 N 0.65548 0.71273 0.15601 0.0
N351 N 0.66797 0.63619 0.18774 0.0
H352 H 0.80545 0.19462 0.92244 0.0
H353 H 0.70419 0.07498 0.7178 0.0
H354 H 0.71562 0.21694 0.88371 0.0
H355 H 0.803 0.07641 0.75533 0.0
H356 H 0.70253 0.11934 0.78071 0.0
H357 H 0.79881 0.14222 0.86435 0.0
C358 C 0.7841 0.1881 0.9017 0.0
C359 C 0.76123 0.21023 0.90754 0.0
C360 C 0.72443 0.10964 0.775 0.0
C361 C 0.75361 0.15056 0.84039 0.0
C362 C 0.72537 0.08438 0.73924 0.0
C363 C 0.75389 0.07236 0.73118 0.0
C364 C 0.75204 0.12223 0.80275 0.0
C365 C 0.78061 0.08528 0.75995 0.0
C366 C 0.78032 0.15828 0.86844 0.0
C367 C 0.73379 0.20045 0.88004 0.0
N368 N 0.779 0.10938 0.79421 0.0
N369 N 0.73088 0.1715 0.84725 0.0
H370 H 0.33673 0.32786 0.4267 0.0
H371 H 0.40764 0.2078 0.25078 0.0
H372 H 0.29965 0.21222 0.36755 0.0
H373 H 0.43961 0.32473 0.3066 0.0
H374 H 0.36693 0.20874 0.29193 0.0
H375 H 0.37257 0.32752 0.38063 0.0
C376 C 0.33566 0.3025 0.40365 0.0
C377 C 0.31516 0.26998 0.40121 0.0
C378 C 0.38283 0.23418 0.29507 0.0
C379 C 0.35692 0.2692 0.34869 0.0
C380 C 0.40616 0.23363 0.27167 0.0
C381 C 0.42721 0.2662 0.27529 0.0
C382 C 0.38057 0.26751 0.32234 0.0
C383 C 0.42402 0.2989 0.30278 0.0
C384 C 0.35643 0.30224 0.37751 0.0
C385 C 0.31539 0.23784 0.37097 0.0
N386 N 0.40126 0.29869 0.32523 0.0
N387 N 0.3361 0.2382 0.3461 0.0
H388 H 0.88451 0.65806 0.80001 0.0
H389 H 0.95833 0.56779 0.93943 0.0
H390 H 0.86469 0.6787 0.91342 0.0
H391 H 0.96613 0.53237 0.8211 0.0
H392 H 0.92232 0.60676 0.92928 0.0
H393 H 0.91284 0.61049 0.80592 0.0
C394 C 0.88599 0.65245 0.8261 0.0
C395 C 0.8724 0.67258 0.85638 0.0
C396 C 0.93164 0.59029 0.9054 0.0
C397 C 0.90478 0.61818 0.86332 0.0
C398 C 0.95231 0.56804 0.91118 0.0
C399 C 0.9655 0.54697 0.8811 0.0
C400 C 0.92427 0.59199 0.86931 0.0
C401 C 0.95655 0.54819 0.84508 0.0
C402 C 0.90203 0.62517 0.82937 0.0
C403 C 0.87463 0.66377 0.88929 0.0
N404 N 0.93675 0.57068 0.84026 0.0
N405 N 0.89078 0.63751 0.892 0.0
H406 H 0.82989 0.36511 0.41102 0.0
H407 H 0.97696 0.39353 0.30225 0.0
H408 H 0.85989 0.27407 0.33281 0.0
H409 H 0.96576 0.47179 0.40803 0.0
H410 H 0.92975 0.35115 0.30631 0.0
H411 H 0.87528 0.40684 0.40323 0.0
C412 C 0.84596 0.35398 0.39203 0.0
C413 C 0.84127 0.31614 0.37267 0.0
C414 C 0.93774 0.37764 0.32855 0.0
C415 C 0.89315 0.36362 0.36352 0.0
C416 C 0.96454 0.40183 0.32618 0.0
C417 C 0.97538 0.43613 0.35493 0.0
C418 C 0.92148 0.38824 0.3595 0.0
C419 C 0.95844 0.44551 0.38536 0.0
C420 C 0.87192 0.37773 0.38774 0.0
C421 C 0.86292 0.30307 0.34857 0.0
N422 N 0.93231 0.4218 0.38676 0.0
N423 N 0.88792 0.32681 0.34456 0.0
H424 H 0.25595 0.40528 0.9531 0.0
H425 H 0.09181 0.41147 0.83609 0.0
H426 H 0.2337 0.36135 0.83179 0.0
H427 H 0.11485 0.45612 0.95765 0.0
H428 H 0.14129 0.3877 0.83398 0.0
H429 H 0.20227 0.41966 0.95559 0.0
C430 C 0.23956 0.39853 0.92706 0.0
C431 C 0.24891 0.38234 0.89222 0.0
C432 C 0.13535 0.40242 0.86113 0.0
C433 C 0.18786 0.3986 0.89459 0.0
C434 C 0.10701 0.41586 0.86235 0.0
C435 C 0.09922 0.43608 0.89708 0.0
C436 C 0.15609 0.40929 0.89486 0.0
C437 C 0.11992 0.44092 0.93019 0.0
C438 C 0.20899 0.40667 0.9284 0.0
C439 C 0.22712 0.37397 0.85917 0.0
N440 N 0.14745 0.42791 0.92823 0.0
N441 N 0.1976 0.38236 0.86111 0.0
H442 H 0.24176 0.64612 0.23843 0.0
H443 H 0.13952 0.60149 0.38834 0.0
H444 H 0.27409 0.68577 0.35864 0.0
H445 H 0.11359 0.53958 0.269 0.0
H446 H 0.18719 0.63532 0.37628 0.0
H447 H 0.19376 0.60827 0.24724 0.0
C448 C 0.23894 0.64663 0.26657 0.0
C449 C 0.2618 0.66957 0.29791 0.0
C450 C 0.17118 0.61434 0.35261 0.0
C451 C 0.20694 0.62686 0.30817 0.0
C452 C 0.14375 0.59503 0.35946 0.0
C453 C 0.12241 0.56753 0.32964 0.0
C454 C 0.17754 0.60645 0.31558 0.0
C455 C 0.12939 0.56054 0.29285 0.0
C456 C 0.21149 0.62518 0.27158 0.0
C457 C 0.25681 0.66925 0.33374 0.0
N458 N 0.15639 0.57994 0.28681 0.0
N459 N 0.22993 0.64851 0.33786 0.0
H460 H 0.90779 0.8671 0.80879 0.0
H461 H 0.77273 0.92737 0.69487 0.0
H462 H 0.80785 0.81513 0.78419 0.0
H463 H 0.87378 0.97336 0.71057 0.0
H464 H 0.78482 0.88929 0.73133 0.0
H465 H 0.89545 0.90979 0.77745 0.0
C466 C 0.88316 0.86512 0.79712 0.0
C467 C 0.85869 0.83799 0.79903 0.0
C468 C 0.80439 0.90771 0.72689 0.0
C469 C 0.8444 0.88605 0.76284 0.0
C470 C 0.79753 0.92953 0.706 0.0
C471 C 0.82231 0.95359 0.69946 0.0
C472 C 0.83631 0.90986 0.74153 0.0
C473 C 0.85393 0.95514 0.71476 0.0
C474 C 0.87614 0.88928 0.77911 0.0
C475 C 0.82725 0.836 0.78333 0.0
N476 N 0.86002 0.93353 0.73505 0.0
N477 N 0.82097 0.8597 0.76573 0.0
H478 H 0.7029 0.22081 0.34408 0.0
H479 H 0.59902 0.36183 0.31223 0.0
H480 H 0.73497 0.33811 0.39682 0.0
H481 H 0.56272 0.24541 0.27926 0.0
H482 H 0.64803 0.35481 0.34611 0.0
H483 H 0.65035 0.23005 0.32349 0.0
C484 C 0.69883 0.24853 0.35204 0.0
C485 C 0.72374 0.2787 0.37207 0.0
C486 C 0.62913 0.33092 0.33178 0.0
C487 C 0.6634 0.28956 0.34739 0.0
C488 C 0.60115 0.33492 0.31246 0.0
C489 C 0.57678 0.30414 0.29252 0.0
C490 C 0.63281 0.29587 0.33094 0.0
C491 C 0.5809 0.26993 0.29387 0.0
C492 C 0.66875 0.25381 0.33991 0.0
C493 C 0.71683 0.31398 0.38075 0.0
N494 N 0.6084 0.26671 0.31236 0.0
N495 N 0.68748 0.31845 0.368 0.0
H496 H 0.32557 0.21755 0.88597 0.0
H497 H 0.40143 0.12011 0.70434 0.0
H498 H 0.3751 0.27794 0.82471 0.0
H499 H 0.32006 0.06663 0.73837 0.0
H500 H 0.40247 0.17677 0.75743 0.0
H501 H 0.3336 0.16048 0.84046 0.0
C502 C 0.33839 0.21877 0.86309 0.0
C503 C 0.34953 0.25242 0.8589 0.0
C504 C 0.38473 0.15241 0.75347 0.0
C505 C 0.35895 0.18737 0.80696 0.0
C506 C 0.38433 0.12009 0.72352 0.0
C507 C 0.36056 0.08884 0.71706 0.0
C508 C 0.36157 0.15304 0.7773 0.0
C509 C 0.33865 0.09026 0.74234 0.0
C510 C 0.34287 0.18625 0.83712 0.0
C511 C 0.36582 0.25247 0.82862 0.0
N512 N 0.33965 0.12185 0.77131 0.0
N513 N 0.37008 0.22039 0.80374 0.0
H514 H 0.43854 0.74585 0.25333 0.0
H515 H 0.47942 0.76512 0.06107 0.0
H516 H 0.3671 0.73325 0.1595 0.0
H517 H 0.5511 0.79669 0.15992 0.0
H518 H 0.43755 0.76117 0.09959 0.0
H519 H 0.47981 0.7714 0.22309 0.0
C520 C 0.43159 0.74913 0.22665 0.0
C521 C 0.39968 0.7375 0.2086 0.0
C522 C 0.46235 0.76979 0.11322 0.0
C523 C 0.44634 0.76604 0.17376 0.0
C524 C 0.4862 0.77229 0.09124 0.0
C525 C 0.51854 0.78162 0.10758 0.0
C526 C 0.47096 0.77559 0.15169 0.0
C527 C 0.5263 0.78994 0.14654 0.0
C528 C 0.45505 0.76367 0.20941 0.0
C529 C 0.39161 0.74197 0.17411 0.0
N530 N 0.50263 0.7861 0.16727 0.0
N531 N 0.41485 0.75553 0.15759 0.0
H532 H 0.74395 0.16338 0.44967 0.0
H533 H 0.85216 0.09925 0.59068 0.0
H534 H 0.84715 0.18992 0.47021 0.0
H535 H 0.74869 0.0727 0.5699 0.0
H536 H 0.85087 0.13657 0.55051 0.0
H537 H 0.74502 0.13426 0.49772 0.0
C538 C 0.76678 0.16345 0.46479 0.0
C539 C 0.79549 0.17901 0.4564 0.0
C540 C 0.82844 0.12274 0.55493 0.0
C541 C 0.79711 0.14546 0.51065 0.0
C542 C 0.82917 0.10143 0.57789 0.0
C543 C 0.80051 0.08257 0.58353 0.0
C544 C 0.79883 0.12522 0.53739 0.0
C545 C 0.77143 0.08653 0.56624 0.0
C546 C 0.76746 0.14676 0.49204 0.0
C547 C 0.82453 0.17825 0.47624 0.0
N548 N 0.77135 0.10721 0.54386 0.0
N549 N 0.82464 0.16154 0.50233 0.0
H550 H 0.3248 0.28365 0.99086 0.0
H551 H 0.47009 0.38536 0.16067 0.0
H552 H 0.38642 0.38554 1.00217 0.0
H553 H 0.40686 0.2829 0.14482 0.0
H554 H 0.43481 0.39242 0.10957 0.0
H555 H 0.34886 0.28969 0.05407 0.0
C556 C 0.34302 0.3077 0.00713 0.0
C557 C 0.35383 0.33402 0.9914 0.0
C558 C 0.42846 0.36871 0.11774 0.0
C559 C 0.38226 0.34076 0.06338 0.0
C560 C 0.44852 0.36474 0.14696 0.0
C561 C 0.44165 0.33322 0.15657 0.0
C562 C 0.40139 0.34101 0.0983 0.0
C563 C 0.41341 0.30734 0.13791 0.0
C564 C 0.35688 0.31113 0.04315 0.0
C565 C 0.37745 0.36472 0.0135 0.0
N566 N 0.39456 0.31166 0.10955 0.0
N567 N 0.39134 0.36697 0.04821 0.0
H568 H 0.38276 0.78764 0.36702 0.0
H569 H 0.30119 0.93975 0.49823 0.0
H570 H 0.28858 0.80573 0.33783 0.0
H571 H 0.3969 0.92773 0.53152 0.0
H572 H 0.29981 0.89548 0.43606 0.0
H573 H 0.39232 0.84355 0.4234 0.0
C574 C 0.36446 0.80393 0.37206 0.0
C575 C 0.33476 0.7921 0.34812 0.0
C576 C 0.32127 0.90249 0.45672 0.0
C577 C 0.34522 0.85534 0.41231 0.0
C578 C 0.32202 0.92775 0.49242 0.0
C579 C 0.34903 0.93703 0.52033 0.0
C580 C 0.34755 0.88575 0.44868 0.0
C581 C 0.37552 0.9211 0.51084 0.0
C582 C 0.36981 0.83561 0.40428 0.0
C583 C 0.31168 0.81382 0.35587 0.0
N584 N 0.37398 0.89578 0.47586 0.0
N585 N 0.31729 0.84413 0.38742 0.0
H586 H 0.80204 0.80345 0.91446 0.0
H587 H 0.63438 0.70079 0.94273 0.0
H588 H 0.7613 0.68841 0.85731 0.0
H589 H 0.67446 0.81515 0.00535 0.0
H590 H 0.67906 0.69777 0.90785 0.0
H591 H 0.75396 0.81029 0.94423 0.0
C592 C 0.78284 0.77974 0.90782 0.0
C593 C 0.78583 0.74522 0.88358 0.0
C594 C 0.67814 0.72363 0.92908 0.0
C595 C 0.73094 0.75279 0.91776 0.0
C596 C 0.65254 0.7254 0.94911 0.0
C597 C 0.65067 0.75826 0.97729 0.0
C598 C 0.70237 0.75489 0.93717 0.0
C599 C 0.67494 0.78923 0.98397 0.0
C600 C 0.7555 0.78362 0.92501 0.0
C601 C 0.76031 0.7154 0.87627 0.0
N602 N 0.6999 0.78674 0.96421 0.0
N603 N 0.7341 0.71986 0.89337 0.0
loop_
_geom_bond_atom_site_label_1
_geom_bond_atom_site_label_2
_geom_bond_distance
_geom_bond_site_symmetry_2
_ccdc_geom_bond_type
H0 C3 0.929 . S
H1 C6 0.929 . S
H2 C8 0.930 . S
C3 H0 0.929 . S
C3 C4 1.398 . S
C3 C5 1.396 . S
C4 C3 1.398 . S
C4 C8 1.407 . S
C5 C3 1.396 . S
C5 C6 1.394 . S
C6 H1 0.929 . S
C6 C5 1.394 . S
C6 C7 1.382 . S
C7 C6 1.382 . S
C7 C8 1.392 . S
C7 N9 1.420 . S
C8 H2 0.930 . S
C8 C4 1.407 . S
C8 C7 1.392 . S
N9 C7 1.420 . S
N9 C10 1.244 . S
C10 N9 1.244 . S
H11 C14 0.929 . S
H12 C17 0.929 . S
H13 C19 0.930 . S
C14 H11 0.929 . S
C14 C15 1.398 . S
C14 C16 1.396 . S
C15 C14 1.398 . S
C15 C19 1.407 . S
C16 C14 1.396 . S
C16 C17 1.394 . S
C17 H12 0.929 . S
C17 C16 1.394 . S
C17 C18 1.382 . S
C18 C17 1.382 . S
C18 C19 1.392 . S
C18 N20 1.420 . S
C19 H13 0.930 . S
C19 C15 1.407 . S
C19 C18 1.392 . S
N20 C18 1.420 . S
N20 C21 1.244 . S
C21 N20 1.244 . S
H22 C25 0.929 . S
H23 C28 0.929 . S
H24 C30 0.930 . S
C25 H22 0.929 . S
C25 C26 1.398 . S
C25 C27 1.396 . S
C26 C25 1.398 . S
C26 C30 1.407 . S
C27 C25 1.396 . S
C27 C28 1.394 . S
C28 H23 0.929 . S
C28 C27 1.394 . S
C28 C29 1.382 . S
C29 C28 1.382 . S
C29 C30 1.392 . S
C29 N31 1.420 . S
C30 H24 0.930 . S
C30 C26 1.407 . S
C30 C29 1.392 . S
N31 C29 1.420 . S
N31 C32 1.244 . S
C32 N31 1.244 . S
H33 C36 0.929 . S
H34 C39 0.929 . S
H35 C41 0.930 1_554 S
C36 H33 0.929 . S
C36 C37 1.398 . S
C36 C38 1.396 . S
C37 C36 1.398 . S
C37 C41 1.407 . S
C38 C36 1.396 . S
C38 C39 1.394 . S
C39 H34 0.929 . S
C39 C38 1.394 . S
C39 C40 1.382 . S
C40 C39 1.382 . S
C40 C41 1.392 . S
C40 N42 1.420 1_556 S
C41 H35 0.930 1_556 S
C41 C37 1.407 . S
C41 C40 1.392 . S
N42 C40 1.420 1_554 S
N42 C43 1.244 . S
C43 N42 1.244 . S
H44 C47 0.929 . S
H45 C50 0.929 . S
H46 C52 0.930 . S
C47 H44 0.929 . S
C47 C48 1.398 . S
C47 C49 1.396 . S
C48 C47 1.398 . S
C48 C52 1.407 . S
C49 C47 1.396 . S
C49 C50 1.394 . S
C50 H45 0.929 . S
C50 C49 1.394 . S
C50 C51 1.382 . S
C51 C50 1.382 . S
C51 C52 1.392 . S
C51 N53 1.420 . S
C52 H46 0.930 . S
C52 C48 1.407 . S
C52 C51 1.392 . S
N53 C51 1.420 . S
N53 C54 1.244 . S
C54 N53 1.244 . S
H55 C58 0.929 . S
H56 C61 0.929 . S
H57 C63 0.930 . S
C58 H55 0.929 . S
C58 C59 1.398 . S
C58 C60 1.396 . S
C59 C58 1.398 . S
C59 C63 1.407 . S
C60 C58 1.396 . S
C60 C61 1.394 . S
C61 H56 0.929 . S
C61 C60 1.394 . S
C61 C62 1.382 . S
C62 C61 1.382 . S
C62 C63 1.392 . S
C62 N64 1.420 . S
C63 H57 0.930 . S
C63 C59 1.407 . S
C63 C62 1.392 . S
N64 C62 1.420 . S
N64 C65 1.244 . S
C65 N64 1.244 . S
H66 C69 0.929 . S
H67 C72 0.929 . S
H68 C74 0.930 . S
C69 H66 0.929 . S
C69 C70 1.398 . S
C69 C71 1.396 . S
C70 C69 1.398 . S
C70 C74 1.407 . S
C71 C69 1.396 . S
C71 C72 1.394 . S
C72 H67 0.929 . S
C72 C71 1.394 . S
C72 C73 1.382 . S
C73 C72 1.382 . S
C73 C74 1.392 . S
C73 N75 1.420 . S
C74 H68 0.930 . S
C74 C70 1.407 . S
C74 C73 1.392 . S
N75 C73 1.420 . S
N75 C76 1.244 . S
C76 N75 1.244 . S
H77 C80 0.929 . S
H78 C83 0.929 . S
H79 C85 0.930 . S
C80 H77 0.929 . S
C80 C81 1.398 . S
C80 C82 1.396 . S
C81 C80 1.398 . S
C81 C85 1.407 . S
C82 C80 1.396 . S
C82 C83 1.394 . S
C83 H78 0.929 . S
C83 C82 1.394 . S
C83 C84 1.382 . S
C84 C83 1.382 . S
C84 C85 1.392 . S
C84 N86 1.420 . S
C85 H79 0.930 . S
C85 C81 1.407 . S
C85 C84 1.392 . S
N86 C84 1.420 . S
N86 C87 1.244 . S
C87 N86 1.244 . S
C88 O90 1.247 1_655 S
C88 O92 1.258 . S
C89 O96 1.247 . S
C89 O97 1.258 . S
O90 C88 1.247 1_455 S
O90 Zn91 2.028 . S
Zn91 O90 2.028 . S
Zn91 O95 2.035 . S
Zn91 O97 2.035 . S
Zn91 O98 2.028 . S
O92 C88 1.258 . S
O92 Zn93 2.035 1_655 S
Zn93 O92 2.035 1_455 S
Zn93 O94 2.028 . S
Zn93 O96 2.028 . S
Zn93 O99 2.035 1_455 S
O94 Zn93 2.028 . S
O94 C100 1.247 . S
O95 Zn91 2.035 . S
O95 C100 1.258 . S
O96 C89 1.247 . S
O96 Zn93 2.028 . S
O97 C89 1.258 . S
O97 Zn91 2.035 . S
O98 Zn91 2.028 . S
O98 C101 1.247 1_455 S
O99 Zn93 2.035 1_655 S
O99 C101 1.258 . S
C100 O94 1.247 . S
C100 O95 1.258 . S
C101 O98 1.247 1_655 S
C101 O99 1.258 . S
C102 O104 1.247 1_655 S
C102 O106 1.264 . S
C103 O110 1.247 . S
C103 O111 1.258 . S
O104 C102 1.247 1_455 S
O104 Zn105 2.028 . S
Zn105 O104 2.028 . S
Zn105 O109 2.035 . S
Zn105 O111 2.035 . S
Zn105 O112 2.028 . S
O106 C102 1.264 . S
O106 Zn107 2.024 1_655 S
Zn107 O106 2.024 1_455 S
Zn107 O108 2.028 . S
Zn107 O110 2.028 . S
Zn107 O113 2.035 . S
O108 Zn107 2.028 . S
O108 C114 1.247 . S
O109 Zn105 2.035 . S
O109 C114 1.258 . S
O110 C103 1.247 . S
O110 Zn107 2.028 . S
O111 C103 1.258 . S
O111 Zn105 2.035 . S
O112 Zn105 2.028 . S
O112 C115 1.247 1_455 S
O113 Zn107 2.035 . S
O113 C115 1.258 1_455 S
C114 O108 1.247 . S
C114 O109 1.258 . S
C115 O112 1.247 1_655 S
C115 O113 1.258 1_655 S
C116 O118 1.247 . S
C116 O120 1.251 1_565 S
C117 O124 1.247 . S
C117 O125 1.258 . S
O118 C116 1.247 . S
O118 Zn119 2.028 1_565 S
Zn119 O118 2.028 1_545 S
Zn119 O123 2.035 . S
Zn119 O125 2.035 . S
Zn119 O126 2.028 1_545 S
O120 C116 1.251 1_545 S
O120 Zn121 2.049 . S
Zn121 O120 2.049 . S
Zn121 O122 2.028 . S
Zn121 O124 2.028 . S
Zn121 O127 2.035 1_545 S
O122 Zn121 2.028 . S
O122 C128 1.247 . S
O123 Zn119 2.035 . S
O123 C128 1.258 . S
O124 C117 1.247 . S
O124 Zn121 2.028 . S
O125 C117 1.258 . S
O125 Zn119 2.035 . S
O126 Zn119 2.028 1_565 S
O126 C129 1.247 . S
O127 Zn121 2.035 1_565 S
O127 C129 1.258 . S
C128 O122 1.247 . S
C128 O123 1.258 . S
C129 O126 1.247 . S
C129 O127 1.258 . S
C130 O132 1.247 . S
C130 O134 1.258 . S
C131 O138 1.247 . S
C131 O139 1.258 . S
O132 C130 1.247 . S
O132 Zn133 2.028 1_554 S
Zn133 O132 2.028 1_556 S
Zn133 O137 2.035 1_556 S
Zn133 O139 2.035 . S
Zn133 O140 2.028 . S
O134 C130 1.258 . S
O134 Zn135 2.035 . S
Zn135 O134 2.035 . S
Zn135 O136 2.028 . S
Zn135 O138 2.028 1_554 S
Zn135 O141 2.035 1_554 S
O136 Zn135 2.028 . S
O136 C142 1.247 . S
O137 Zn133 2.035 1_554 S
O137 C142 1.258 . S
O138 C131 1.247 . S
O138 Zn135 2.028 1_556 S
O139 C131 1.258 . S
O139 Zn133 2.035 . S
O140 Zn133 2.028 . S
O140 C143 1.247 . S
O141 Zn135 2.035 1_556 S
O141 C143 1.258 . S
C142 O136 1.247 . S
C142 O137 1.258 . S
C143 O140 1.247 . S
C143 O141 1.258 . S
C144 O146 1.247 . S
C144 O148 1.258 . S
C145 O152 1.247 . S
C145 O153 1.258 . S
O146 C144 1.247 . S
O146 Zn147 2.028 1_565 S
Zn147 O146 2.028 1_545 S
Zn147 O151 2.035 . S
Zn147 O153 2.035 . S
Zn147 O154 2.028 1_545 S
O148 C144 1.258 . S
O148 Zn149 2.035 1_565 S
Zn149 O148 2.035 1_545 S
Zn149 O150 2.028 . S
Zn149 O152 2.028 . S
Zn149 O155 2.035 1_545 S
O150 Zn149 2.028 . S
O150 C156 1.247 . S
O151 Zn147 2.035 . S
O151 C156 1.258 . S
O152 C145 1.247 . S
O152 Zn149 2.028 . S
O153 C145 1.258 . S
O153 Zn147 2.035 . S
O154 Zn147 2.028 1_565 S
O154 C157 1.247 . S
O155 Zn149 2.035 1_565 S
O155 C157 1.258 . S
C156 O150 1.247 . S
C156 O151 1.258 . S
C157 O154 1.247 . S
C157 O155 1.258 . S
C158 O160 1.247 . S
C158 O162 1.258 . S
C159 O166 1.247 . S
C159 O167 1.258 . S
O160 C158 1.247 . S
O160 Zn161 2.028 . S
Zn161 O160 2.028 . S
Zn161 O165 2.035 . S
Zn161 O167 2.035 . S
Zn161 O168 2.028 . S
O162 C158 1.258 . S
O162 Zn163 2.035 . S
Zn163 O162 2.035 . S
Zn163 O164 2.028 . S
Zn163 O166 2.028 . S
Zn163 O169 2.035 . S
O164 Zn163 2.028 . S
O164 C170 1.247 . S
O165 Zn161 2.035 . S
O165 C170 1.258 . S
O166 C159 1.247 . S
O166 Zn163 2.028 . S
O167 C159 1.258 . S
O167 Zn161 2.035 . S
O168 Zn161 2.028 . S
O168 C171 1.247 . S
O169 Zn163 2.035 . S
O169 C171 1.258 . S
C170 O164 1.247 . S
C170 O165 1.258 . S
C171 O168 1.247 . S
C171 O169 1.258 . S
H172 C178 0.930 . S
H173 C182 0.930 . S
H174 C187 0.929 . S
H175 C185 0.929 . S
H176 C180 0.929 . S
H177 C186 0.929 . S
C178 H172 0.930 . S
C178 C179 1.367 . S
C178 C186 1.378 . S
C179 C178 1.367 . S
C179 C187 1.433 . S
C180 H176 0.929 . S
C180 C182 1.378 . S
C180 C184 1.350 . S
C181 C184 1.463 . S
C181 C186 1.350 . S
C181 N189 1.427 . S
C182 H173 0.930 . S
C182 C180 1.378 . S
C182 C183 1.367 . S
C183 C182 1.367 . S
C183 C185 1.433 . S
C184 C180 1.350 . S
C184 C181 1.463 . S
C184 N188 1.427 . S
C185 H175 0.929 . S
C185 C183 1.433 . S
C185 N188 1.384 . S
C186 H177 0.929 . S
C186 C178 1.378 . S
C186 C181 1.350 . S
C187 H174 0.929 . S
C187 C179 1.433 . S
C187 N189 1.384 . S
N188 C184 1.427 . S
N188 C185 1.384 . S
N189 C181 1.427 . S
N189 C187 1.384 . S
H190 C196 0.930 . S
H191 C200 0.930 . S
H192 C205 0.929 . S
H193 C203 0.929 . S
H194 C198 0.929 . S
H195 C204 0.929 . S
C196 H190 0.930 . S
C196 C197 1.367 . S
C196 C204 1.378 . S
C197 C196 1.367 . S
C197 C205 1.433 . S
C198 H194 0.929 . S
C198 C200 1.378 . S
C198 C202 1.350 . S
C199 C202 1.463 . S
C199 C204 1.350 . S
C199 N207 1.427 . S
C200 H191 0.930 . S
C200 C198 1.378 . S
C200 C201 1.367 . S
C201 C200 1.367 . S
C201 C203 1.433 . S
C202 C198 1.350 . S
C202 C199 1.463 . S
C202 N206 1.427 . S
C203 H193 0.929 . S
C203 C201 1.433 . S
C203 N206 1.384 . S
C204 H195 0.929 . S
C204 C196 1.378 . S
C204 C199 1.350 . S
C205 H192 0.929 . S
C205 C197 1.433 . S
C205 N207 1.384 . S
N206 C202 1.427 . S
N206 C203 1.384 . S
N207 C199 1.427 . S
N207 C205 1.384 . S
H208 C214 0.930 . S
H209 C218 0.930 . S
H210 C223 0.929 . S
H211 C221 0.929 . S
H212 C216 0.929 . S
H213 C222 0.929 . S
C214 H208 0.930 . S
C214 C215 1.367 . S
C214 C222 1.378 . S
C215 C214 1.367 . S
C215 C223 1.433 . S
C216 H212 0.929 . S
C216 C218 1.378 . S
C216 C220 1.350 . S
C217 C220 1.463 . S
C217 C222 1.350 . S
C217 N225 1.427 . S
C218 H209 0.930 . S
C218 C216 1.378 . S
C218 C219 1.367 . S
C219 C218 1.367 . S
C219 C221 1.433 . S
C220 C216 1.350 . S
C220 C217 1.463 . S
C220 N224 1.427 . S
C221 H211 0.929 . S
C221 C219 1.433 . S
C221 N224 1.384 . S
C222 H213 0.929 . S
C222 C214 1.378 . S
C222 C217 1.350 . S
C223 H210 0.929 . S
C223 C215 1.433 . S
C223 N225 1.384 . S
N224 C220 1.427 . S
N224 C221 1.384 . S
N225 C217 1.427 . S
N225 C223 1.384 . S
H226 C232 0.930 . S
H227 C236 0.930 . S
H228 C241 0.929 . S
H229 C239 0.929 . S
H230 C234 0.929 . S
H231 C240 0.929 . S
C232 H226 0.930 . S
C232 C233 1.367 . S
C232 C240 1.378 . S
C233 C232 1.367 . S
C233 C241 1.433 . S
C234 H230 0.929 . S
C234 C236 1.378 . S
C234 C238 1.350 . S
C235 C238 1.463 . S
C235 C240 1.350 . S
C235 N243 1.427 . S
C236 H227 0.930 . S
C236 C234 1.378 . S
C236 C237 1.367 . S
C237 C236 1.367 . S
C237 C239 1.433 . S
C238 C234 1.350 . S
C238 C235 1.463 . S
C238 N242 1.427 . S
C239 H229 0.929 . S
C239 C237 1.433 . S
C239 N242 1.384 . S
C240 H231 0.929 . S
C240 C232 1.378 . S
C240 C235 1.350 . S
C241 H228 0.929 . S
C241 C233 1.433 . S
C241 N243 1.384 . S
N242 C238 1.427 . S
N242 C239 1.384 . S
N243 C235 1.427 . S
N243 C241 1.384 . S
H244 C250 0.930 . S
H245 C254 0.930 . S
H246 C259 0.929 . S
H247 C257 0.929 . S
H248 C252 0.929 . S
H249 C258 0.929 . S
C250 H244 0.930 . S
C250 C251 1.367 . S
C250 C258 1.378 . S
C251 C250 1.367 . S
C251 C259 1.433 . S
C252 H248 0.929 . S
C252 C254 1.378 . S
C252 C256 1.350 . S
C253 C256 1.463 . S
C253 C258 1.350 . S
C253 N261 1.427 . S
C254 H245 0.930 . S
C254 C252 1.378 . S
C254 C255 1.367 . S
C255 C254 1.367 . S
C255 C257 1.433 . S
C256 C252 1.350 . S
C256 C253 1.463 . S
C256 N260 1.427 . S
C257 H247 0.929 . S
C257 C255 1.433 . S
C257 N260 1.384 . S
C258 H249 0.929 . S
C258 C250 1.378 . S
C258 C253 1.350 . S
C259 H246 0.929 . S
C259 C251 1.433 . S
C259 N261 1.384 . S
N260 C256 1.427 . S
N260 C257 1.384 . S
N261 C253 1.427 . S
N261 C259 1.384 . S
H262 C268 0.930 . S
H263 C272 0.930 . S
H264 C277 0.929 . S
H265 C275 0.929 . S
H266 C270 0.929 . S
H267 C276 0.929 . S
C268 H262 0.930 . S
C268 C269 1.367 . S
C268 C276 1.378 . S
C269 C268 1.367 . S
C269 C277 1.433 . S
C270 H266 0.929 . S
C270 C272 1.378 . S
C270 C274 1.350 . S
C271 C274 1.463 . S
C271 C276 1.350 . S
C271 N279 1.427 . S
C272 H263 0.930 . S
C272 C270 1.378 . S
C272 C273 1.367 . S
C273 C272 1.367 . S
C273 C275 1.433 . S
C274 C270 1.350 . S
C274 C271 1.463 . S
C274 N278 1.427 . S
C275 H265 0.929 . S
C275 C273 1.433 . S
C275 N278 1.384 . S
C276 H267 0.929 . S
C276 C268 1.378 . S
C276 C271 1.350 . S
C277 H264 0.929 . S
C277 C269 1.433 . S
C277 N279 1.384 . S
N278 C274 1.427 . S
N278 C275 1.384 . S
N279 C271 1.427 . S
N279 C277 1.384 . S
H280 C286 0.930 . S
H281 C290 0.930 . S
H282 C295 0.929 . S
H283 C293 0.929 . S
H284 C288 0.929 . S
H285 C294 0.929 . S
C286 H280 0.930 . S
C286 C287 1.367 . S
C286 C294 1.378 . S
C287 C286 1.367 . S
C287 C295 1.433 . S
C288 H284 0.929 . S
C288 C290 1.378 . S
C288 C292 1.350 . S
C289 C292 1.463 . S
C289 C294 1.350 . S
C289 N297 1.427 . S
C290 H281 0.930 . S
C290 C288 1.378 . S
C290 C291 1.367 . S
C291 C290 1.367 . S
C291 C293 1.433 . S
C292 C288 1.350 . S
C292 C289 1.463 . S
C292 N296 1.427 . S
C293 H283 0.929 . S
C293 C291 1.433 . S
C293 N296 1.384 . S
C294 H285 0.929 . S
C294 C286 1.378 . S
C294 C289 1.350 . S
C295 H282 0.929 . S
C295 C287 1.433 . S
C295 N297 1.384 . S
N296 C292 1.427 . S
N296 C293 1.384 . S
N297 C289 1.427 . S
N297 C295 1.384 . S
H298 C304 0.930 . S
H299 C308 0.930 . S
H300 C313 0.929 1_556 S
H301 C311 0.929 . S
H302 C306 0.929 . S
H303 C312 0.929 . S
C304 H298 0.930 . S
C304 C305 1.367 . S
C304 C312 1.378 . S
C305 C304 1.367 . S
C305 C313 1.433 . S
C306 H302 0.929 . S
C306 C308 1.378 . S
C306 C310 1.350 . S
C307 C310 1.463 . S
C307 C312 1.350 . S
C307 N315 1.427 . S
C308 H299 0.930 . S
C308 C306 1.378 . S
C308 C309 1.367 . S
C309 C308 1.367 . S
C309 C311 1.433 . S
C310 C306 1.350 . S
C310 C307 1.463 . S
C310 N314 1.427 . S
C311 H301 0.929 . S
C311 C309 1.433 . S
C311 N314 1.384 . S
C312 H303 0.929 . S
C312 C304 1.378 . S
C312 C307 1.350 . S
C313 H300 0.929 1_554 S
C313 C305 1.433 . S
C313 N315 1.384 . S
N314 C310 1.427 . S
N314 C311 1.384 . S
N315 C307 1.427 . S
N315 C313 1.384 . S
H316 C322 0.930 . S
H317 C326 0.930 . S
H318 C331 0.929 . S
H319 C329 0.929 . S
H320 C324 0.929 . S
H321 C330 0.929 . S
C322 H316 0.930 . S
C322 C323 1.367 . S
C322 C330 1.378 . S
C323 C322 1.367 . S
C323 C331 1.433 . S
C324 H320 0.929 . S
C324 C326 1.378 . S
C324 C328 1.350 . S
C325 C328 1.463 . S
C325 C330 1.350 . S
C325 N333 1.427 . S
C326 H317 0.930 . S
C326 C324 1.378 . S
C326 C327 1.367 . S
C327 C326 1.367 . S
C327 C329 1.433 . S
C328 C324 1.350 . S
C328 C325 1.463 . S
C328 N332 1.427 . S
C329 H319 0.929 . S
C329 C327 1.433 . S
C329 N332 1.384 . S
C330 H321 0.929 . S
C330 C322 1.378 . S
C330 C325 1.350 . S
C331 H318 0.929 . S
C331 C323 1.433 . S
C331 N333 1.384 . S
N332 C328 1.427 . S
N332 C329 1.384 . S
N333 C325 1.427 . S
N333 C331 1.384 . S
H334 C340 0.930 . S
H335 C344 0.930 . S
H336 C349 0.929 . S
H337 C347 0.929 . S
H338 C342 0.929 . S
H339 C348 0.929 . S
C340 H334 0.930 . S
C340 C341 1.367 . S
C340 C348 1.378 . S
C341 C340 1.367 . S
C341 C349 1.433 . S
C342 H338 0.929 . S
C342 C344 1.378 . S
C342 C346 1.350 . S
C343 C346 1.463 . S
C343 C348 1.350 . S
C343 N351 1.427 . S
C344 H335 0.930 . S
C344 C342 1.378 . S
C344 C345 1.367 . S
C345 C344 1.367 . S
C345 C347 1.433 . S
C346 C342 1.350 . S
C346 C343 1.463 . S
C346 N350 1.427 . S
C347 H337 0.929 . S
C347 C345 1.433 . S
C347 N350 1.384 . S
C348 H339 0.929 . S
C348 C340 1.378 . S
C348 C343 1.350 . S
C349 H336 0.929 . S
C349 C341 1.433 . S
C349 N351 1.384 . S
N350 C346 1.427 . S
N350 C347 1.384 . S
N351 C343 1.427 . S
N351 C349 1.384 . S
H352 C358 0.930 . S
H353 C362 0.930 . S
H354 C367 0.929 . S
H355 C365 0.929 . S
H356 C360 0.929 . S
H357 C366 0.929 . S
C358 H352 0.930 . S
C358 C359 1.367 . S
C358 C366 1.378 . S
C359 C358 1.367 . S
C359 C367 1.433 . S
C360 H356 0.929 . S
C360 C362 1.378 . S
C360 C364 1.350 . S
C361 C364 1.463 . S
C361 C366 1.350 . S
C361 N369 1.427 . S
C362 H353 0.930 . S
C362 C360 1.378 . S
C362 C363 1.367 . S
C363 C362 1.367 . S
C363 C365 1.433 . S
C364 C360 1.350 . S
C364 C361 1.463 . S
C364 N368 1.427 . S
C365 H355 0.929 . S
C365 C363 1.433 . S
C365 N368 1.384 . S
C366 H357 0.929 . S
C366 C358 1.378 . S
C366 C361 1.350 . S
C367 H354 0.929 . S
C367 C359 1.433 . S
C367 N369 1.384 . S
N368 C364 1.427 . S
N368 C365 1.384 . S
N369 C361 1.427 . S
N369 C367 1.384 . S
H370 C376 0.930 . S
H371 C380 0.930 . S
H372 C385 0.929 . S
H373 C383 0.929 . S
H374 C378 0.929 . S
H375 C384 0.929 . S
C376 H370 0.930 . S
C376 C377 1.367 . S
C376 C384 1.378 . S
C377 C376 1.367 . S
C377 C385 1.433 . S
C378 H374 0.929 . S
C378 C380 1.378 . S
C378 C382 1.350 . S
C379 C382 1.463 . S
C379 C384 1.350 . S
C379 N387 1.427 . S
C380 H371 0.930 . S
C380 C378 1.378 . S
C380 C381 1.367 . S
C381 C380 1.367 . S
C381 C383 1.433 . S
C382 C378 1.350 . S
C382 C379 1.463 . S
C382 N386 1.427 . S
C383 H373 0.929 . S
C383 C381 1.433 . S
C383 N386 1.384 . S
C384 H375 0.929 . S
C384 C376 1.378 . S
C384 C379 1.350 . S
C385 H372 0.929 . S
C385 C377 1.433 . S
C385 N387 1.384 . S
N386 C382 1.427 . S
N386 C383 1.384 . S
N387 C379 1.427 . S
N387 C385 1.384 . S
H388 C394 0.930 . S
H389 C398 0.930 . S
H390 C403 0.929 . S
H391 C401 0.929 . S
H392 C396 0.929 . S
H393 C402 0.929 . S
C394 H388 0.930 . S
C394 C395 1.367 . S
C394 C402 1.378 . S
C395 C394 1.367 . S
C395 C403 1.433 . S
C396 H392 0.929 . S
C396 C398 1.378 . S
C396 C400 1.350 . S
C397 C400 1.463 . S
C397 C402 1.350 . S
C397 N405 1.427 . S
C398 H389 0.930 . S
C398 C396 1.378 . S
C398 C399 1.367 . S
C399 C398 1.367 . S
C399 C401 1.433 . S
C400 C396 1.350 . S
C400 C397 1.463 . S
C400 N404 1.427 . S
C401 H391 0.929 . S
C401 C399 1.433 . S
C401 N404 1.384 . S
C402 H393 0.929 . S
C402 C394 1.378 . S
C402 C397 1.350 . S
C403 H390 0.929 . S
C403 C395 1.433 . S
C403 N405 1.384 . S
N404 C400 1.427 . S
N404 C401 1.384 . S
N405 C397 1.427 . S
N405 C403 1.384 . S
H406 C412 0.930 . S
H407 C416 0.930 . S
H408 C421 0.929 . S
H409 C419 0.929 . S
H410 C414 0.929 . S
H411 C420 0.929 . S
C412 H406 0.930 . S
C412 C413 1.367 . S
C412 C420 1.378 . S
C413 C412 1.367 . S
C413 C421 1.433 . S
C414 H410 0.929 . S
C414 C416 1.378 . S
C414 C418 1.350 . S
C415 C418 1.463 . S
C415 C420 1.350 . S
C415 N423 1.427 . S
C416 H407 0.930 . S
C416 C414 1.378 . S
C416 C417 1.367 . S
C417 C416 1.367 . S
C417 C419 1.433 . S
C418 C414 1.350 . S
C418 C415 1.463 . S
C418 N422 1.427 . S
C419 H409 0.929 . S
C419 C417 1.433 . S
C419 N422 1.384 . S
C420 H411 0.929 . S
C420 C412 1.378 . S
C420 C415 1.350 . S
C421 H408 0.929 . S
C421 C413 1.433 . S
C421 N423 1.384 . S
N422 C418 1.427 . S
N422 C419 1.384 . S
N423 C415 1.427 . S
N423 C421 1.384 . S
H424 C430 0.930 . S
H425 C434 0.930 . S
H426 C439 0.929 . S
H427 C437 0.929 . S
H428 C432 0.929 . S
H429 C438 0.929 . S
C430 H424 0.930 . S
C430 C431 1.367 . S
C430 C438 1.378 . S
C431 C430 1.367 . S
C431 C439 1.433 . S
C432 H428 0.929 . S
C432 C434 1.378 . S
C432 C436 1.350 . S
C433 C436 1.463 . S
C433 C438 1.350 . S
C433 N441 1.427 . S
C434 H425 0.930 . S
C434 C432 1.378 . S
C434 C435 1.367 . S
C435 C434 1.367 . S
C435 C437 1.433 . S
C436 C432 1.350 . S
C436 C433 1.463 . S
C436 N440 1.427 . S
C437 H427 0.929 . S
C437 C435 1.433 . S
C437 N440 1.384 . S
C438 H429 0.929 . S
C438 C430 1.378 . S
C438 C433 1.350 . S
C439 H426 0.929 . S
C439 C431 1.433 . S
C439 N441 1.384 . S
N440 C436 1.427 . S
N440 C437 1.384 . S
N441 C433 1.427 . S
N441 C439 1.384 . S
H442 C448 0.930 . S
H443 C452 0.930 . S
H444 C457 0.929 . S
H445 C455 0.929 . S
H446 C450 0.929 . S
H447 C456 0.929 . S
C448 H442 0.930 . S
C448 C449 1.367 . S
C448 C456 1.378 . S
C449 C448 1.367 . S
C449 C457 1.433 . S
C450 H446 0.929 . S
C450 C452 1.378 . S
C450 C454 1.350 . S
C451 C454 1.463 . S
C451 C456 1.350 . S
C451 N459 1.427 . S
C452 H443 0.930 . S
C452 C450 1.378 . S
C452 C453 1.367 . S
C453 C452 1.367 . S
C453 C455 1.433 . S
C454 C450 1.350 . S
C454 C451 1.463 . S
C454 N458 1.427 . S
C455 H445 0.929 . S
C455 C453 1.433 . S
C455 N458 1.384 . S
C456 H447 0.929 . S
C456 C448 1.378 . S
C456 C451 1.350 . S
C457 H444 0.929 . S
C457 C449 1.433 . S
C457 N459 1.384 . S
N458 C454 1.427 . S
N458 C455 1.384 . S
N459 C451 1.427 . S
N459 C457 1.384 . S
H460 C466 0.930 . S
H461 C470 0.930 . S
H462 C475 0.929 . S
H463 C473 0.929 . S
H464 C468 0.929 . S
H465 C474 0.929 . S
C466 H460 0.930 . S
C466 C467 1.367 . S
C466 C474 1.378 . S
C467 C466 1.367 . S
C467 C475 1.433 . S
C468 H464 0.929 . S
C468 C470 1.378 . S
C468 C472 1.350 . S
C469 C472 1.463 . S
C469 C474 1.350 . S
C469 N477 1.427 . S
C470 H461 0.930 . S
C470 C468 1.378 . S
C470 C471 1.367 . S
C471 C470 1.367 . S
C471 C473 1.433 . S
C472 C468 1.350 . S
C472 C469 1.463 . S
C472 N476 1.427 . S
C473 H463 0.929 . S
C473 C471 1.433 . S
C473 N476 1.384 . S
C474 H465 0.929 . S
C474 C466 1.378 . S
C474 C469 1.350 . S
C475 H462 0.929 . S
C475 C467 1.433 . S
C475 N477 1.384 . S
N476 C472 1.427 . S
N476 C473 1.384 . S
N477 C469 1.427 . S
N477 C475 1.384 . S
H478 C484 0.930 . S
H479 C488 0.930 . S
H480 C493 0.929 . S
H481 C491 0.929 . S
H482 C486 0.929 . S
H483 C492 0.929 . S
C484 H478 0.930 . S
C484 C485 1.367 . S
C484 C492 1.378 . S
C485 C484 1.367 . S
C485 C493 1.433 . S
C486 H482 0.929 . S
C486 C488 1.378 . S
C486 C490 1.350 . S
C487 C490 1.463 . S
C487 C492 1.350 . S
C487 N495 1.427 . S
C488 H479 0.930 . S
C488 C486 1.378 . S
C488 C489 1.367 . S
C489 C488 1.367 . S
C489 C491 1.433 . S
C490 C486 1.350 . S
C490 C487 1.463 . S
C490 N494 1.427 . S
C491 H481 0.929 . S
C491 C489 1.433 . S
C491 N494 1.384 . S
C492 H483 0.929 . S
C492 C484 1.378 . S
C492 C487 1.350 . S
C493 H480 0.929 . S
C493 C485 1.433 . S
C493 N495 1.384 . S
N494 C490 1.427 . S
N494 C491 1.384 . S
N495 C487 1.427 . S
N495 C493 1.384 . S
H496 C502 0.930 . S
H497 C506 0.930 . S
H498 C511 0.929 . S
H499 C509 0.929 . S
H500 C504 0.929 . S
H501 C510 0.929 . S
C502 H496 0.930 . S
C502 C503 1.367 . S
C502 C510 1.378 . S
C503 C502 1.367 . S
C503 C511 1.433 . S
C504 H500 0.929 . S
C504 C506 1.378 . S
C504 C508 1.350 . S
C505 C508 1.463 . S
C505 C510 1.350 . S
C505 N513 1.427 . S
C506 H497 0.930 . S
C506 C504 1.378 . S
C506 C507 1.367 . S
C507 C506 1.367 . S
C507 C509 1.433 . S
C508 C504 1.350 . S
C508 C505 1.463 . S
C508 N512 1.427 . S
C509 H499 0.929 . S
C509 C507 1.433 . S
C509 N512 1.384 . S
C510 H501 0.929 . S
C510 C502 1.378 . S
C510 C505 1.350 . S
C511 H498 0.929 . S
C511 C503 1.433 . S
C511 N513 1.384 . S
N512 C508 1.427 . S
N512 C509 1.384 . S
N513 C505 1.427 . S
N513 C511 1.384 . S
H514 C520 0.930 . S
H515 C524 0.930 . S
H516 C529 0.929 . S
H517 C527 0.929 . S
H518 C522 0.929 . S
H519 C528 0.929 . S
C520 H514 0.930 . S
C520 C521 1.367 . S
C520 C528 1.378 . S
C521 C520 1.367 . S
C521 C529 1.433 . S
C522 H518 0.929 . S
C522 C524 1.378 . S
C522 C526 1.350 . S
C523 C526 1.463 . S
C523 C528 1.350 . S
C523 N531 1.427 . S
C524 H515 0.930 . S
C524 C522 1.378 . S
C524 C525 1.367 . S
C525 C524 1.367 . S
C525 C527 1.433 . S
C526 C522 1.350 . S
C526 C523 1.463 . S
C526 N530 1.427 . S
C527 H517 0.929 . S
C527 C525 1.433 . S
C527 N530 1.384 . S
C528 H519 0.929 . S
C528 C520 1.378 . S
C528 C523 1.350 . S
C529 H516 0.929 . S
C529 C521 1.433 . S
C529 N531 1.384 . S
N530 C526 1.427 . S
N530 C527 1.384 . S
N531 C523 1.427 . S
N531 C529 1.384 . S
H532 C538 0.930 . S
H533 C542 0.930 . S
H534 C547 0.929 . S
H535 C545 0.929 . S
H536 C540 0.929 . S
H537 C546 0.929 . S
C538 H532 0.930 . S
C538 C539 1.367 . S
C538 C546 1.378 . S
C539 C538 1.367 . S
C539 C547 1.433 . S
C540 H536 0.929 . S
C540 C542 1.378 . S
C540 C544 1.350 . S
C541 C544 1.463 . S
C541 C546 1.350 . S
C541 N549 1.427 . S
C542 H533 0.930 . S
C542 C540 1.378 . S
C542 C543 1.367 . S
C543 C542 1.367 . S
C543 C545 1.433 . S
C544 C540 1.350 . S
C544 C541 1.463 . S
C544 N548 1.427 . S
C545 H535 0.929 . S
C545 C543 1.433 . S
C545 N548 1.384 . S
C546 H537 0.929 . S
C546 C538 1.378 . S
C546 C541 1.350 . S
C547 H534 0.929 . S
C547 C539 1.433 . S
C547 N549 1.384 . S
N548 C544 1.427 . S
N548 C545 1.384 . S
N549 C541 1.427 . S
N549 C547 1.384 . S
H550 C556 0.930 . S
H551 C560 0.930 . S
H552 C565 0.929 . S
H553 C563 0.929 . S
H554 C558 0.929 . S
H555 C564 0.929 . S
C556 H550 0.930 . S
C556 C557 1.367 1_554 S
C556 C564 1.378 . S
C557 C556 1.367 1_556 S
C557 C565 1.433 . S
C558 H554 0.929 . S
C558 C560 1.378 . S
C558 C562 1.350 . S
C559 C562 1.463 . S
C559 C564 1.350 . S
C559 N567 1.427 . S
C560 H551 0.930 . S
C560 C558 1.378 . S
C560 C561 1.367 . S
C561 C560 1.367 . S
C561 C563 1.433 . S
C562 C558 1.350 . S
C562 C559 1.463 . S
C562 N566 1.427 . S
C563 H553 0.929 . S
C563 C561 1.433 . S
C563 N566 1.384 . S
C564 H555 0.929 . S
C564 C556 1.378 . S
C564 C559 1.350 . S
C565 H552 0.929 . S
C565 C557 1.433 . S
C565 N567 1.384 1_556 S
N566 C562 1.427 . S
N566 C563 1.384 . S
N567 C559 1.427 . S
N567 C565 1.384 1_554 S
H568 C574 0.930 . S
H569 C578 0.930 . S
H570 C583 0.929 . S
H571 C581 0.929 . S
H572 C576 0.929 . S
H573 C582 0.929 . S
C574 H568 0.930 . S
C574 C575 1.367 . S
C574 C582 1.378 . S
C575 C574 1.367 . S
C575 C583 1.433 . S
C576 H572 0.929 . S
C576 C578 1.378 . S
C576 C580 1.350 . S
C577 C580 1.463 . S
C577 C582 1.350 . S
C577 N585 1.427 . S
C578 H569 0.930 . S
C578 C576 1.378 . S
C578 C579 1.367 . S
C579 C578 1.367 . S
C579 C581 1.433 . S
C580 C576 1.350 . S
C580 C577 1.463 . S
C580 N584 1.427 . S
C581 H571 0.929 . S
C581 C579 1.433 . S
C581 N584 1.384 . S
C582 H573 0.929 . S
C582 C574 1.378 . S
C582 C577 1.350 . S
C583 H570 0.929 . S
C583 C575 1.433 . S
C583 N585 1.384 . S
N584 C580 1.427 . S
N584 C581 1.384 . S
N585 C577 1.427 . S
N585 C583 1.384 . S
H586 C592 0.930 . S
H587 C596 0.930 . S
H588 C601 0.929 . S
H589 C599 0.929 . S
H590 C594 0.929 . S
H591 C600 0.929 . S
C592 H586 0.930 . S
C592 C593 1.367 . S
C592 C600 1.378 . S
C593 C592 1.367 . S
C593 C601 1.433 . S
C594 H590 0.929 . S
C594 C596 1.378 . S
C594 C598 1.350 . S
C595 C598 1.463 . S
C595 C600 1.350 . S
C595 N603 1.427 . S
C596 H587 0.930 . S
C596 C594 1.378 . S
C596 C597 1.367 . S
C597 C596 1.367 . S
C597 C599 1.433 . S
C598 C594 1.350 . S
C598 C595 1.463 . S
C598 N602 1.427 . S
C599 H589 0.929 . S
C599 C597 1.433 . S
C599 N602 1.384 . S
C600 H591 0.929 . S
C600 C592 1.378 . S
C600 C595 1.350 . S
C601 H588 0.929 . S
C601 C593 1.433 . S
C601 N603 1.384 . S
N602 C598 1.427 . S
N602 C599 1.384 . S
N603 C595 1.427 . S
N603 C601 1.384 . S
C183 C100 1.516 . S
C179 C10 1.513 . S
C201 C103 1.688 . S
C197 C15 1.689 . S
C219 C101 1.422 . S
C215 C26 1.422 . S
C237 C102 1.491 . S
C233 C37 1.511 . S
C255 C117 1.754 . S
C251 C4 1.755 . S
C273 C131 1.666 . S
C269 C16 1.657 . S
C287 C27 1.600 . S
C291 C157 1.603 . S
C309 C171 1.406 . S
C305 C43 1.405 . S
C327 C116 1.676 . S
C323 C21 1.664 . S
C341 C32 1.446 . S
C345 C130 1.436 . S
C363 C156 1.593 . S
C359 C38 1.578 . S
C381 C170 1.577 . S
C377 C5 1.572 . S
C395 C49 1.740 . S
C399 C115 1.737 . S
C417 C88 1.586 . S
C413 C60 1.581 . S
C431 C76 1.574 . S
C435 C114 1.562 . S
C449 C81 1.530 . S
C453 C89 1.545 . S
C471 C144 1.478 . S
C467 C54 1.474 . S
C489 C158 1.596 . S
C485 C59 1.598 . S
C507 C128 1.598 . S
C503 C70 1.603 . S
C521 C87 1.625 . S
C525 C142 1.619 . S
C543 C145 1.543 . S
C539 C65 1.535 . S
C561 C159 1.619 . S
C557 C71 1.603 . S
C579 C129 1.591 . S
C575 C82 1.588 . S
C593 C48 1.715 . S
C597 C143 1.705 . S
