# Generated by pormake.
# Topology cml, (3,6)-cn, num edge types: 1
# Building blocks:
#     Node 0, Type 0, BuildingBlock: VETTIZ_charged_linker_0, # of connection points: 3
#     Node 1, Type 0, BuildingBlock: VETTIZ_charged_linker_0, # of connection points: 3
#     Node 2, Type 0, BuildingBlock: VETTIZ_charged_linker_0, # of connection points: 3
#     Node 3, Type 0, BuildingBlock: VETTIZ_charged_linker_0, # of connection points: 3
#     Node 4, Type 0, BuildingBlock: VETTIZ_charged_linker_0, # of connection points: 3
#     Node 5, Type 0, BuildingBlock: VETTIZ_charged_linker_0, # of connection points: 3
#     Node 6, Type 0, BuildingBlock: VETTIZ_charged_linker_0, # of connection points: 3
#     Node 7, Type 0, BuildingBlock: VETTIZ_charged_linker_0, # of connection points: 3
#     Node 8, Type 1, BuildingBlock: OJICUG_clean_sbu_0, # of connection points: 6
#     Node 9, Type 1, BuildingBlock: OJICUG_clean_sbu_0, # of connection points: 6
#     Node 10, Type 1, BuildingBlock: OJICUG_clean_sbu_0, # of connection points: 6
#     Node 11, Type 1, BuildingBlock: OJICUG_clean_sbu_0, # of connection points: 6
#     Edge 12, Type (0, 1), BuildingBlock: OJICUG_clean_linker_0, # of connection points: 2
#     Edge 13, Type (0, 1), BuildingBlock: OJICUG_clean_linker_0, # of connection points: 2
#     Edge 14, Type (0, 1), BuildingBlock: OJICUG_clean_linker_0, # of connection points: 2
#     Edge 15, Type (0, 1), BuildingBlock: OJICUG_clean_linker_0, # of connection points: 2
#     Edge 16, Type (0, 1), BuildingBlock: OJICUG_clean_linker_0, # of connection points: 2
#     Edge 17, Type (0, 1), BuildingBlock: OJICUG_clean_linker_0, # of connection points: 2
#     Edge 18, Type (0, 1), BuildingBlock: OJICUG_clean_linker_0, # of connection points: 2
#     Edge 19, Type (0, 1), BuildingBlock: OJICUG_clean_linker_0, # of connection points: 2
#     Edge 20, Type (0, 1), BuildingBlock: OJICUG_clean_linker_0, # of connection points: 2
#     Edge 21, Type (0, 1), BuildingBlock: OJICUG_clean_linker_0, # of connection points: 2
#     Edge 22, Type (0, 1), BuildingBlock: OJICUG_clean_linker_0, # of connection points: 2
#     Edge 23, Type (0, 1), BuildingBlock: OJICUG_clean_linker_0, # of connection points: 2
#     Edge 24, Type (0, 1), BuildingBlock: OJICUG_clean_linker_0, # of connection points: 2
#     Edge 25, Type (0, 1), BuildingBlock: OJICUG_clean_linker_0, # of connection points: 2
#     Edge 26, Type (0, 1), BuildingBlock: OJICUG_clean_linker_0, # of connection points: 2
#     Edge 27, Type (0, 1), BuildingBlock: OJICUG_clean_linker_0, # of connection points: 2
#     Edge 28, Type (0, 1), BuildingBlock: OJICUG_clean_linker_0, # of connection points: 2
#     Edge 29, Type (0, 1), BuildingBlock: OJICUG_clean_linker_0, # of connection points: 2
#     Edge 30, Type (0, 1), BuildingBlock: OJICUG_clean_linker_0, # of connection points: 2
#     Edge 31, Type (0, 1), BuildingBlock: OJICUG_clean_linker_0, # of connection points: 2
#     Edge 32, Type (0, 1), BuildingBlock: OJICUG_clean_linker_0, # of connection points: 2
#     Edge 33, Type (0, 1), BuildingBlock: OJICUG_clean_linker_0, # of connection points: 2
#     Edge 34, Type (0, 1), BuildingBlock: OJICUG_clean_linker_0, # of connection points: 2
#     Edge 35, Type (0, 1), BuildingBlock: OJICUG_clean_linker_0, # of connection points: 2
# Relax obj value: 0.076
# Max RMSD: 0.088
# Mean RMSD: 0.083
data_MOF--net-cml--node1-OJICUG_clean_sbu_0--node2-VETTIZ_charged_linker_0--edge1-OJICUG_clean_linker_0
_symmetry_space_group_name_H-M    P1
_symmetry_Int_Tables_number       1
_symmetry_cell_setting            triclinic
loop_
_symmetry_equiv_pos_as_xyz
'x, y, z'
_cell_length_a     36.854202
_cell_length_b     37.496555
_cell_length_c     35.455101
_cell_angle_alpha  90.086822
_cell_angle_beta   89.741069
_cell_angle_gamma 89.854126
loop_
_atom_site_label
_atom_site_type_symbol
_atom_site_fract_x
_atom_site_fract_y
_atom_site_fract_z
_atom_type_partial_charge
C0 C 0.32849 0.32521 0.1072 0.0
C1 C 0.35592 0.34224 0.12778 0.0
C2 C 0.369 0.37559 0.11581 0.0
C3 C 0.32732 0.37514 0.06355 0.0
C4 C 0.31432 0.3424 0.07531 0.0
C5 C 0.28369 0.32954 0.05088 0.0
H6 H 0.17125 0.35897 0.90332 0.0
C7 C 0.30693 0.38606 0.0299 0.0
C8 C 0.28113 0.35969 0.0223 0.0
H9 H 0.17118 0.27052 0.98149 0.0
H10 H 0.22297 0.29502 0.01337 0.0
H11 H 0.18725 0.42067 0.96478 0.0
H12 H 0.25755 0.35999 0.89135 0.0
H13 H 0.2755 0.40321 0.89381 0.0
H14 H 0.23085 0.39657 0.87425 0.0
H15 H 0.18735 0.42534 0.91436 0.0
H16 H 0.21833 0.45009 0.94341 0.0
C17 C 0.24907 0.32681 0.07573 0.0
C18 C 0.29558 0.29402 0.03219 0.0
C19 C 0.34275 0.4993 0.96225 0.0
C20 C 0.33181 0.5149 0.92821 0.0
C21 C 0.30263 0.49985 0.90819 0.0
C22 C 0.28511 0.46918 0.92167 0.0
C23 C 0.29721 0.45327 0.95527 0.0
C24 C 0.32543 0.46855 0.97499 0.0
C25 C 0.33615 0.44725 0.00893 0.0
C26 C 0.30995 0.41633 0.00624 0.0
C27 C 0.28701 0.42009 0.97503 0.0
C28 C 0.32896 0.47046 0.04448 0.0
C29 C 0.37618 0.43511 0.00363 0.0
C30 C 0.18263 0.3448 0.92711 0.0
C31 C 0.1669 0.31304 0.9402 0.0
C32 C 0.18242 0.29541 0.97134 0.0
C33 C 0.21258 0.30959 0.98975 0.0
C34 C 0.22748 0.34178 0.97696 0.0
C35 C 0.21274 0.35872 0.94596 0.0
C36 C 0.23233 0.39266 0.9364 0.0
C37 C 0.26051 0.39372 0.96744 0.0
C38 C 0.25761 0.36374 0.99098 0.0
C39 C 0.20505 0.424 0.9396 0.0
C40 C 0.24986 0.38825 0.89683 0.0
H41 H 0.36609 0.41748 0.07634 0.0
H42 H 0.31781 0.2997 0.11621 0.0
H43 H 0.32458 0.2952 0.02339 0.0
H44 H 0.2805 0.28795 0.00615 0.0
H45 H 0.29258 0.27136 0.05211 0.0
H46 H 0.24927 0.34701 0.09876 0.0
H47 H 0.24689 0.30011 0.08908 0.0
H48 H 0.22392 0.33248 0.05997 0.0
H49 H 0.36567 0.5097 0.97779 0.0
H50 H 0.29378 0.51151 0.88185 0.0
H51 H 0.26331 0.4587 0.90509 0.0
H52 H 0.30536 0.48857 0.04024 0.0
H53 H 0.35279 0.48733 0.05122 0.0
H54 H 0.3216 0.45448 0.06954 0.0
H55 H 0.38245 0.43002 0.97336 0.0
H56 H 0.38238 0.40963 0.0178 0.0
H57 H 0.39532 0.45581 0.01377 0.0
H58 H 0.39029 0.38895 0.13137 0.0
C59 C 0.35492 0.39209 0.08386 0.0
C60 C 0.80916 0.64226 0.42787 0.0
C61 C 0.82557 0.67337 0.44182 0.0
C62 C 0.81129 0.68951 0.47469 0.0
C63 C 0.76636 0.64292 0.48019 0.0
C64 C 0.77973 0.62753 0.44747 0.0
C65 C 0.75934 0.59436 0.43681 0.0
H66 H 0.62505 0.47746 0.47619 0.0
C67 C 0.73663 0.62038 0.49449 0.0
C68 C 0.73243 0.5918 0.46921 0.0
H69 H 0.69407 0.47993 0.37733 0.0
H70 H 0.72636 0.5306 0.40284 0.0
H71 H 0.68693 0.49152 0.53636 0.0
H72 H 0.61107 0.55957 0.47958 0.0
H73 H 0.61212 0.57359 0.52682 0.0
H74 H 0.5983 0.52874 0.51594 0.0
H75 H 0.64079 0.49583 0.55195 0.0
H76 H 0.67601 0.52507 0.56905 0.0
C77 C 0.78631 0.56263 0.4365 0.0
C78 C 0.7403 0.60114 0.39856 0.0
C79 C 0.67049 0.65297 0.61654 0.0
C80 C 0.64387 0.63495 0.63761 0.0
C81 C 0.63085 0.60186 0.62476 0.0
C82 C 0.64381 0.58686 0.59128 0.0
C83 C 0.67024 0.60504 0.57028 0.0
C84 C 0.68363 0.63723 0.58316 0.0
C85 C 0.71323 0.65135 0.55785 0.0
C86 C 0.71454 0.62273 0.52736 0.0
C87 C 0.68898 0.59601 0.53474 0.0
C88 C 0.74884 0.65281 0.58092 0.0
C89 C 0.70069 0.68779 0.54202 0.0
C90 C 0.64762 0.48839 0.46034 0.0
C91 C 0.65715 0.47461 0.42482 0.0
C92 C 0.68611 0.49025 0.40471 0.0
C93 C 0.70475 0.51966 0.41955 0.0
C94 C 0.6941 0.53374 0.4547 0.0
C95 C 0.66616 0.51786 0.47453 0.0
C96 C 0.65746 0.53693 0.5107 0.0
C97 C 0.68437 0.56737 0.50908 0.0
C98 C 0.70589 0.56531 0.4764 0.0
C99 C 0.66538 0.51115 0.54389 0.0
C100 C 0.61765 0.55033 0.50858 0.0
H101 H 0.77245 0.68793 0.51881 0.0
H102 H 0.81947 0.62917 0.40275 0.0
H103 H 0.73298 0.62977 0.39522 0.0
H104 H 0.71425 0.58682 0.39603 0.0
H105 H 0.75818 0.59369 0.37449 0.0
H106 H 0.80515 0.56437 0.46087 0.0
H107 H 0.80296 0.56252 0.41031 0.0
H108 H 0.77283 0.53652 0.43932 0.0
H109 H 0.68116 0.67829 0.62612 0.0
H110 H 0.61013 0.58773 0.64051 0.0
H111 H 0.63254 0.56174 0.58301 0.0
H112 H 0.74979 0.63106 0.60221 0.0
H113 H 0.75131 0.67853 0.59626 0.0
H114 H 0.77334 0.6486 0.5634 0.0
H115 H 0.67135 0.68709 0.53481 0.0
H116 H 0.71465 0.69513 0.51556 0.0
H117 H 0.70467 0.70939 0.56306 0.0
H118 H 0.82286 0.71395 0.48558 0.0
C119 C 0.78187 0.67446 0.49392 0.0
C120 C 0.67161 0.50351 0.94177 0.0
C121 C 0.64378 0.52315 0.95967 0.0
C122 C 0.63305 0.51361 -0.00351 0.0
C123 C 0.67422 0.46328 0.99517 0.0
C124 C 0.68637 0.47371 0.96 0.0
C125 C 0.71442 0.44838 0.94422 0.0
H126 H 0.81005 0.29506 0.9637 0.0
C127 C 0.6919 0.42915 0.00457 0.0
C128 C 0.71569 0.42027 0.97504 0.0
H129 H 0.81623 0.37135 0.87237 0.0
H130 H 0.77079 0.40782 0.90305 0.0
H131 H 0.80277 0.35169 0.03327 0.0
H132 H 0.72498 0.29398 0.96665 0.0
H133 H 0.70665 0.29732 0.01227 0.0
H134 H 0.74861 0.27322 0.00493 0.0
H135 H 0.79832 0.30398 0.03387 0.0
H136 H 0.77046 0.33184 0.06353 0.0
C137 C 0.75075 0.46877 0.94061 0.0
C138 C 0.70001 0.43302 0.90657 0.0
C139 C 0.65167 0.36343 0.12185 0.0
C140 C 0.6591 0.32941 0.13633 0.0
C141 C 0.68415 0.30722 0.11743 0.0
C142 C 0.70189 0.31918 0.0846 0.0
C143 C 0.6939 0.35338 0.07036 0.0
C144 C 0.66898 0.37468 0.08897 0.0
C145 C 0.66177 0.40913 0.0689 0.0
C146 C 0.6867 0.40532 0.0351 0.0
C147 C 0.70572 0.37288 0.03618 0.0
C148 C 0.67365 0.44014 0.09503 0.0
C149 C 0.62111 0.40987 0.05753 0.0
C150 C 0.80141 0.31935 0.94987 0.0
C151 C 0.81693 0.33017 0.91539 0.0
C152 C 0.8052 0.3625 0.8991 0.0
C153 C 0.77864 0.38359 0.91688 0.0
C154 C 0.7634 0.37218 0.95122 0.0
C155 C 0.77473 0.34042 0.967 0.0
C156 C 0.7549 0.33182 0.00299 0.0
C157 C 0.73068 0.36431 0.00696 0.0
C158 C 0.73568 0.38786 0.97656 0.0
C159 C 0.78292 0.32946 0.03528 0.0
C160 C 0.73275 0.2972 -0.00324 0.0
H161 H 0.63804 0.47755 0.04188 0.0
H162 H 0.68086 0.51047 0.9137 0.0
H163 H 0.67037 0.42772 0.90856 0.0
H164 H 0.71236 0.40714 0.89901 0.0
H165 H 0.70443 0.45203 0.88301 0.0
H166 H 0.75391 0.48828 0.96404 0.0
H167 H 0.75213 0.48382 0.91368 0.0
H168 H 0.77469 0.45113 0.9427 0.0
H169 H 0.63181 0.38069 0.13529 0.0
H170 H 0.69007 0.28082 0.12817 0.0
H171 H 0.7209 0.30131 0.07143 0.0
H172 H 0.6981 0.43263 0.11156 0.0
H173 H 0.65183 0.44723 0.11544 0.0
H174 H 0.68176 0.46428 0.07929 0.0
H175 H 0.61065 0.38247 0.0524 0.0
H176 H 0.61617 0.42401 0.03074 0.0
H177 H 0.60407 0.42206 0.08005 0.0
H178 H 0.61149 0.52794 0.01087 0.0
C179 C 0.6482 0.48394 0.01434 0.0
C180 C 0.19106 0.64734 0.42472 0.0
C181 C 0.17429 0.67782 0.44012 0.0
C182 C 0.18549 0.69027 0.47579 0.0
C183 C 0.23012 0.64319 0.47942 0.0
C184 C 0.21861 0.63034 0.44496 0.0
C185 C 0.23881 0.59723 0.4332 0.0
H186 H 0.36923 0.47557 0.47145 0.0
C187 C 0.25914 0.61965 0.49314 0.0
C188 C 0.26403 0.59229 0.46649 0.0
H189 H 0.3033 0.48267 0.37124 0.0
H190 H 0.27129 0.53346 0.39772 0.0
H191 H 0.38563 0.55532 0.47586 0.0
H192 H 0.30551 0.49153 0.53214 0.0
H193 H 0.32058 0.52256 0.56568 0.0
H194 H 0.35243 0.49118 0.54536 0.0
H195 H 0.39656 0.52634 0.51439 0.0
H196 H 0.38288 0.57199 0.52195 0.0
C197 C 0.25986 0.60546 0.39629 0.0
C198 C 0.21117 0.56636 0.42986 0.0
C199 C 0.32705 0.6508 0.61335 0.0
C200 C 0.35439 0.6328 0.63319 0.0
C201 C 0.3669 0.59948 0.62011 0.0
C202 C 0.35279 0.58433 0.5874 0.0
C203 C 0.32582 0.60266 0.56744 0.0
C204 C 0.31286 0.63498 0.58074 0.0
C205 C 0.2827 0.64936 0.55662 0.0
C206 C 0.28099 0.62102 0.52593 0.0
C207 C 0.30652 0.59404 0.53238 0.0
C208 C 0.29481 0.68594 0.54084 0.0
C209 C 0.24745 0.6507 0.58073 0.0
C210 C 0.34728 0.48748 0.45556 0.0
C211 C 0.33842 0.47497 0.41947 0.0
C212 C 0.31052 0.49195 0.39916 0.0
C213 C 0.29206 0.52138 0.41457 0.0
C214 C 0.30197 0.53412 0.45042 0.0
C215 C 0.32906 0.51702 0.47026 0.0
C216 C 0.33767 0.53515 0.50685 0.0
C217 C 0.3112 0.56605 0.50589 0.0
C218 C 0.29022 0.56526 0.47297 0.0
C219 C 0.37776 0.54776 0.50511 0.0
C220 C 0.32894 0.50888 0.53939 0.0
H221 H 0.22069 0.68412 0.52224 0.0
H222 H 0.18326 0.63709 0.39737 0.0
H223 H 0.19059 0.56791 0.45287 0.0
H224 H 0.22374 0.53978 0.4328 0.0
H225 H 0.19652 0.56755 0.40258 0.0
H226 H 0.26936 0.6336 0.39589 0.0
H227 H 0.24245 0.6014 0.37117 0.0
H228 H 0.28482 0.58935 0.39312 0.0
H229 H 0.31669 0.6762 0.62329 0.0
H230 H 0.38809 0.58532 0.63505 0.0
H231 H 0.3637 0.55905 0.57882 0.0
H232 H 0.32325 0.68447 0.53027 0.0
H233 H 0.29362 0.70679 0.5631 0.0
H234 H 0.27844 0.69494 0.51669 0.0
H235 H 0.24861 0.63188 0.60493 0.0
H236 H 0.22327 0.64227 0.5646 0.0
H237 H 0.24266 0.6778 0.59245 0.0
H238 H 0.17243 0.71308 0.48888 0.0
C239 C 0.21334 0.67323 0.49539 0.0
C240 C 0.82904 0.82486 0.10766 0.0
C241 C 0.85635 0.84191 0.12836 0.0
C242 C 0.86944 0.87529 0.11649 0.0
C243 C 0.82795 0.87482 0.06405 0.0
C244 C 0.81497 0.84204 0.07574 0.0
C245 C 0.78441 0.82916 0.05124 0.0
H246 H 0.67158 0.85885 0.90414 0.0
C247 C 0.80753 0.88579 0.03042 0.0
C248 C 0.78179 0.85937 0.02276 0.0
H249 H 0.67223 0.76986 0.98164 0.0
H250 H 0.72401 0.79438 0.0135 0.0
H251 H 0.68738 0.92011 0.96583 0.0
H252 H 0.75778 0.86026 0.89182 0.0
H253 H 0.77563 0.90351 0.89453 0.0
H254 H 0.73094 0.89688 0.87508 0.0
H255 H 0.68751 0.92528 0.91548 0.0
H256 H 0.71835 0.94986 0.94486 0.0
C257 C 0.74978 0.82626 0.07606 0.0
C258 C 0.79644 0.79371 0.03246 0.0
C259 C 0.84284 -0.00067 0.96295 0.0
C260 C 0.83163 0.01502 0.92903 0.0
C261 C 0.8023 2e-05 0.90923 0.0
C262 C 0.78493 0.9693 0.92272 0.0
C263 C 0.79732 0.95327 0.95614 0.0
C264 C 0.82564 0.96852 0.97572 0.0
C265 C 0.83655 0.94714 0.00956 0.0
C266 C 0.81039 0.91617 0.00689 0.0
C267 C 0.78731 0.91999 0.9758 0.0
C268 C 0.82949 0.97022 0.04521 0.0
C269 C 0.87656 0.93507 0.00404 0.0
C270 C 0.68313 0.84456 0.92777 0.0
C271 C 0.66759 0.81265 0.9407 0.0
C272 C 0.68331 0.79487 0.97163 0.0
C273 C 0.71347 0.80906 0.99003 0.0
C274 C 0.72814 0.84142 0.97743 0.0
C275 C 0.71323 0.85848 0.9466 0.0
C276 C 0.73263 0.89256 0.9372 0.0
C277 C 0.7609 0.89357 0.96815 0.0
C278 C 0.7582 0.86346 0.99151 0.0
C279 C 0.70519 0.92376 0.94072 0.0
C280 C 0.75004 0.88847 0.89754 0.0
H281 H 0.86662 0.9172 0.07701 0.0
H282 H 0.81834 0.79935 0.11664 0.0
H283 H 0.82551 0.79491 0.02393 0.0
H284 H 0.78159 0.78781 0.00622 0.0
H285 H 0.79325 0.77096 0.05221 0.0
H286 H 0.74982 0.84656 0.099 0.0
H287 H 0.74779 0.7996 0.08951 0.0
H288 H 0.7246 0.83169 0.06026 0.0
H289 H 0.86585 0.00972 0.97834 0.0
H290 H 0.79322 0.01177 0.883 0.0
H291 H 0.76301 0.95886 0.90627 0.0
H292 H 0.80597 0.98847 0.04109 0.0
H293 H 0.85341 0.98696 0.05203 0.0
H294 H 0.82207 0.95417 0.0702 0.0
H295 H 0.88255 0.92966 0.97377 0.0
H296 H 0.88298 0.9098 0.0185 0.0
H297 H 0.8957 0.95596 0.01373 0.0
H298 H 0.89061 0.88866 0.1322 0.0
C299 C 0.85548 0.89179 0.08447 0.0
C300 C 0.30252 0.14926 0.42563 0.0
C301 C 0.32191 0.17809 0.441 0.0
C302 C 0.31374 0.18936 0.47812 0.0
C303 C 0.26756 0.14406 0.48358 0.0
C304 C 0.27579 0.13249 0.44749 0.0
C305 C 0.25323 0.10089 0.43606 0.0
H306 H 0.13204 0.97433 0.4865 0.0
C307 C 0.23948 0.12048 0.49929 0.0
C308 C 0.23148 0.09458 0.47193 0.0
H309 H 0.17436 -0.00411 0.37462 0.0
H310 H 0.21143 0.04298 0.39989 0.0
H311 H 0.20542 0.99255 0.53683 0.0
H312 H 0.11055 0.04785 0.49924 0.0
H313 H 0.12223 0.06995 0.54088 0.0
H314 H 0.11049 0.02329 0.54251 0.0
H315 H 0.1603 0.98465 0.55413 0.0
H316 H 0.18906 0.01806 0.5751 0.0
C317 C 0.27905 0.06938 0.4271 0.0
C318 C 0.22871 0.11208 0.40264 0.0
C319 C 0.1804 0.14802 0.62619 0.0
C320 C 0.15491 0.12916 0.64797 0.0
C321 C 0.14438 0.09471 0.6366 0.0
C322 C 0.1577 0.07976 0.60324 0.0
C323 C 0.18179 0.09942 0.58081 0.0
C324 C 0.19388 0.13236 0.59292 0.0
C325 C 0.22172 0.14779 0.56632 0.0
C326 C 0.22155 0.1201 0.53482 0.0
C327 C 0.19785 0.09213 0.5435 0.0
C328 C 0.25874 0.14926 0.58698 0.0
C329 C 0.20791 0.1845 0.55252 0.0
C330 C 0.14904 0.98906 0.46707 0.0
C331 C 0.14977 0.98107 0.42829 0.0
C332 C 0.1733 0.00083 0.40468 0.0
C333 C 0.19454 0.02861 0.41931 0.0
C334 C 0.1918 0.03729 0.45779 0.0
C335 C 0.16909 0.01773 0.48082 0.0
C336 C 0.16564 0.03333 0.51968 0.0
C337 C 0.19039 0.06538 0.51635 0.0
C338 C 0.2064 0.06706 0.48041 0.0
C339 C 0.18061 0.00578 0.54819 0.0
C340 C 0.12527 0.04404 0.52628 0.0
H341 H 0.28164 0.1826 0.5272 0.0
H342 H 0.30782 0.14004 0.39717 0.0
H343 H 0.22337 0.1413 0.40275 0.0
H344 H 0.20147 0.09981 0.40413 0.0
H345 H 0.24152 0.10529 0.37513 0.0
H346 H 0.29989 0.06663 0.44952 0.0
H347 H 0.29341 0.07368 0.39987 0.0
H348 H 0.26499 0.04349 0.42575 0.0
H349 H 0.1894 0.17426 0.6348 0.0
H350 H 0.12472 0.07975 0.65294 0.0
H351 H 0.14803 0.05377 0.59578 0.0
H352 H 0.25928 0.13161 0.61218 0.0
H353 H 0.26495 0.17671 0.59681 0.0
H354 H 0.28138 0.13958 0.56896 0.0
H355 H 0.17918 0.18257 0.54323 0.0
H356 H 0.22337 0.19473 0.52814 0.0
H357 H 0.20926 0.20463 0.57549 0.0
H358 H 0.32871 0.21088 0.49116 0.0
C359 C 0.28664 0.17265 0.49932 0.0
C360 C 0.17258 0.00544 0.94384 0.0
C361 C 0.14483 0.02526 0.96166 0.0
C362 C 0.13459 0.01641 -0.00118 0.0
C363 C 0.17587 0.96618 -0.00202 0.0
C364 C 0.18767 0.97604 0.9625 0.0
C365 C 0.21566 0.95052 0.94694 0.0
H366 H 0.31145 0.79748 0.9684 0.0
C367 C 0.19363 0.93221 0.0078 0.0
C368 C 0.21724 0.9229 0.97825 0.0
H369 H 0.3171 0.8724 0.87575 0.0
H370 H 0.27191 0.90935 0.90614 0.0
H371 H 0.30445 0.85495 0.03719 0.0
H372 H 0.22646 0.79647 0.9716 0.0
H373 H 0.20813 0.80051 0.01715 0.0
H374 H 0.25004 0.77623 0.01021 0.0
H375 H 0.29992 0.80726 0.03847 0.0
H376 H 0.27219 0.83552 0.06782 0.0
C377 C 0.25192 0.97092 0.94267 0.0
C378 C 0.20102 0.93453 0.90969 0.0
C379 C 0.1528 0.86752 0.1254 0.0
C380 C 0.16003 0.83357 0.14018 0.0
C381 C 0.18538 0.81132 0.12179 0.0
C382 C 0.20347 0.82309 0.08909 0.0
C383 C 0.19555 0.85715 0.07445 0.0
C384 C 0.17049 0.87858 0.09268 0.0
C385 C 0.16339 0.91286 0.07227 0.0
C386 C 0.18846 0.90874 0.03863 0.0
C387 C 0.20747 0.87632 0.04012 0.0
C388 C 0.17517 0.94408 0.09817 0.0
C389 C 0.12277 0.91349 0.0607 0.0
C390 C 0.30276 0.82157 0.95423 0.0
C391 C 0.31808 0.83186 0.91947 0.0
C392 C 0.30625 0.86395 0.90272 0.0
C393 C 0.27984 0.88533 0.92033 0.0
C394 C 0.26479 0.87444 0.95494 0.0
C395 C 0.27618 0.8429 0.97116 0.0
C396 C 0.25647 0.83478 0.00733 0.0
C397 C 0.23233 0.86736 0.01094 0.0
C398 C 0.23721 0.8905 0.98016 0.0
C399 C 0.28457 0.83278 0.03957 0.0
C400 C 0.23423 0.80012 0.00166 0.0
H401 H 0.14022 0.98122 0.04486 0.0
H402 H 0.18146 0.01191 0.91551 0.0
H403 H 0.17143 0.9291 0.91205 0.0
H404 H 0.21346 0.90862 0.90243 0.0
H405 H 0.20512 0.95322 0.88578 0.0
H406 H 0.25522 0.9908 0.96573 0.0
H407 H 0.25306 0.98555 0.91547 0.0
H408 H 0.27591 0.95337 0.94487 0.0
H409 H 0.13272 0.88484 0.13837 0.0
H410 H 0.19118 0.78498 0.13275 0.0
H411 H 0.22264 0.80515 0.07627 0.0
H412 H 0.19919 0.93653 0.11534 0.0
H413 H 0.15306 0.95175 0.118 0.0
H414 H 0.18393 0.96788 0.08221 0.0
H415 H 0.11247 0.88607 0.05536 0.0
H416 H 0.11785 0.92775 0.03399 0.0
H417 H 0.10559 0.92548 0.08322 0.0
H418 H 0.11313 0.03091 0.01316 0.0
C419 C 0.15006 0.98714 0.01708 0.0
C420 C 0.68629 0.14187 0.4275 0.0
C421 C 0.66961 0.17249 0.44272 0.0
C422 C 0.68113 0.18519 0.47822 0.0
C423 C 0.72612 0.13838 0.48168 0.0
C424 C 0.71409 0.12511 0.44759 0.0
C425 C 0.73402 0.0918 0.43602 0.0
H426 H 0.86463 0.97024 0.47364 0.0
C427 C 0.75552 0.11512 0.49515 0.0
C428 C 0.75985 0.08735 0.46887 0.0
H429 H 0.79667 0.97599 0.37484 0.0
H430 H 0.76539 0.02732 0.40108 0.0
H431 H 0.88217 0.04855 0.47535 0.0
H432 H 0.80196 0.98876 0.5361 0.0
H433 H 0.81979 0.01967 0.56828 0.0
H434 H 0.84944 0.98694 0.54686 0.0
H435 H 0.89335 0.02237 0.51596 0.0
H436 H 0.8798 0.06849 0.51994 0.0
C437 C 0.7544 0.09939 0.39856 0.0
C438 C 0.70625 0.06094 0.43381 0.0
C439 C 0.82702 0.14852 0.61262 0.0
C440 C 0.85507 0.1309 0.6318 0.0
C441 C 0.86749 0.09758 0.61866 0.0
C442 C 0.85245 0.08194 0.58669 0.0
C443 C 0.82462 0.09975 0.56749 0.0
C444 C 0.81192 0.1322 0.58069 0.0
C445 C 0.78086 0.14601 0.55736 0.0
C446 C 0.77832 0.11715 0.52723 0.0
C447 C 0.80417 0.09039 0.53336 0.0
C448 C 0.79218 0.18239 0.54051 0.0
C449 C 0.74638 0.14757 0.58261 0.0
C450 C 0.84233 0.98193 0.4581 0.0
C451 C 0.83267 0.96889 0.42245 0.0
C452 C 0.80442 0.98563 0.40247 0.0
C453 C 0.78641 0.01541 0.41772 0.0
C454 C 0.79718 0.02874 0.45306 0.0
C455 C 0.82461 0.01186 0.47259 0.0
C456 C 0.83436 0.0308 0.5084 0.0
C457 C 0.80805 0.06184 0.50742 0.0
C458 C 0.78619 0.06043 0.47517 0.0
C459 C 0.87449 0.04309 0.50518 0.0
C460 C 0.82632 0.00535 0.54183 0.0
H461 H 0.717 0.17956 0.52427 0.0
H462 H 0.67831 0.13134 0.40033 0.0
H463 H 0.68589 0.06308 0.45698 0.0
H464 H 0.71876 0.0344 0.43735 0.0
H465 H 0.69133 0.06151 0.40666 0.0
H466 H 0.76411 0.12746 0.39757 0.0
H467 H 0.73645 0.09517 0.37388 0.0
H468 H 0.77915 0.08305 0.39507 0.0
H469 H 0.81673 0.17392 0.62263 0.0
H470 H 0.88919 0.08371 0.63311 0.0
H471 H 0.86327 0.05662 0.57812 0.0
H472 H 0.82005 0.18076 0.52842 0.0
H473 H 0.79213 0.20346 0.56258 0.0
H474 H 0.77455 0.19119 0.51726 0.0
H475 H 0.74841 0.12912 0.60707 0.0
H476 H 0.72175 0.1388 0.56744 0.0
H477 H 0.74182 0.17483 0.59401 0.0
H478 H 0.66814 0.20802 0.49131 0.0
C479 C 0.70935 0.16844 0.49761 0.0
Sc480 Sc -0.00108 0.76178 0.30302 0.0
Sc481 Sc -0.0016 0.85586 0.30108 0.0
Sc482 Sc 0.99724 0.81216 0.38723 0.0
O483 O -0.00185 0.80979 0.33029 0.0
C484 C 0.94674 0.74453 0.37131 0.0
C485 C 0.94486 0.80793 0.25271 0.0
C486 C 0.94011 0.87123 0.36641 0.0
C487 C 0.05458 0.80748 0.25463 0.0
C488 C 0.0547 0.7518 0.37138 0.0
C489 C 0.04836 0.8784 0.36825 0.0
O490 O 0.95451 0.7412 0.33651 0.0
O491 O 0.95573 0.83752 0.26578 0.0
O492 O 0.94994 0.84553 0.38741 0.0
O493 O 0.04348 0.77744 0.26662 0.0
O494 O 0.04431 0.77916 0.38969 0.0
O495 O 0.04156 0.87885 0.3333 0.0
O496 O 0.03893 0.74037 0.34178 0.0
O497 O 0.03971 0.83691 0.26352 0.0
O498 O 0.03216 0.85798 0.39127 0.0
O499 O 0.95913 0.7781 0.26138 0.0
O500 O 0.96222 0.76697 0.39261 0.0
O501 O 0.9569 0.87965 0.33626 0.0
Sc502 Sc 0.99702 0.22209 0.80145 0.0
Sc503 Sc 0.99678 0.12845 0.81144 0.0
Sc504 Sc 0.98721 0.18186 0.89135 0.0
O505 O 0.99371 0.17759 0.8347 0.0
C506 C 0.04348 0.2444 0.87272 0.0
C507 C 0.05572 0.17032 0.76319 0.0
C508 C 0.04453 0.11857 0.88551 0.0
C509 C 0.94642 0.1709 0.75354 0.0
C510 C 0.93531 0.24306 0.86151 0.0
C511 C 0.93586 0.11574 0.87329 0.0
O512 O 0.03759 0.24574 0.8374 0.0
O513 O 0.04306 0.14244 0.77848 0.0
O514 O 0.03086 0.14503 0.90306 0.0
O515 O 0.95659 0.20223 0.76244 0.0
O516 O 0.94328 0.21859 0.88477 0.0
O517 O 0.95065 0.10878 0.84178 0.0
O518 O 0.9535 0.24915 0.83159 0.0
O519 O 0.95988 0.14287 0.7679 0.0
O520 O 0.94708 0.14037 0.89487 0.0
O521 O 0.04108 0.20091 0.76701 0.0
O522 O 0.02605 0.22405 0.89491 0.0
O523 O 0.03388 0.10896 0.85304 0.0
Sc524 Sc 0.49873 0.26046 0.30159 0.0
Sc525 Sc 0.50048 0.35497 0.29859 0.0
Sc526 Sc 0.49788 0.31211 0.38554 0.0
O527 O 0.49905 0.30902 0.3285 0.0
C528 C 0.44225 0.24893 0.36883 0.0
C529 C 0.44615 0.3071 0.2504 0.0
C530 C 0.44409 0.3751 0.36335 0.0
C531 C 0.55594 0.30505 0.25322 0.0
C532 C 0.55184 0.24712 0.37098 0.0
C533 C 0.55364 0.37427 0.36594 0.0
O534 O 0.455 0.24033 0.33664 0.0
O535 O 0.45926 0.33651 0.26151 0.0
O536 O 0.456 0.35194 0.38628 0.0
O537 O 0.54251 0.27536 0.26356 0.0
O538 O 0.53949 0.27283 0.39049 0.0
O539 O 0.54192 0.37876 0.33269 0.0
O540 O 0.53943 0.23846 0.33882 0.0
O541 O 0.54317 0.33502 0.26351 0.0
O542 O 0.5402 0.35142 0.38837 0.0
O543 O 0.45795 0.2769 0.26119 0.0
O544 O 0.45547 0.27355 0.38909 0.0
O545 O 0.45777 0.37975 0.3308 0.0
Sc546 Sc 0.49594 0.72357 0.80286 0.0
Sc547 Sc 0.49672 0.6298 0.81119 0.0
Sc548 Sc 0.4875 0.68192 0.89213 0.0
O549 O 0.49346 0.67854 0.83535 0.0
C550 C 0.54365 0.74464 0.87359 0.0
C551 C 0.55377 0.6728 0.76172 0.0
C552 C 0.54514 0.6189 0.88457 0.0
C553 C 0.44479 0.67282 0.75527 0.0
C554 C 0.43541 0.7438 0.86441 0.0
C555 C 0.43638 0.61585 0.87353 0.0
O556 O 0.53732 0.74649 0.83837 0.0
O557 O 0.54219 0.64462 0.77732 0.0
O558 O 0.53118 0.64481 0.90281 0.0
O559 O 0.45466 0.70412 0.76465 0.0
O560 O 0.44348 0.7188 0.88697 0.0
O561 O 0.45128 0.60919 0.84199 0.0
O562 O 0.45326 0.75032 0.83441 0.0
O563 O 0.45894 0.64468 0.76865 0.0
O564 O 0.44735 0.64045 0.89527 0.0
O565 O 0.53889 0.70313 0.7666 0.0
O566 O 0.52644 0.72404 0.89573 0.0
O567 O 0.53466 0.61001 0.85181 0.0
C568 C 0.10575 0.28523 0.94487 0.0
C569 C 0.13397 0.29845 0.92225 0.0
H570 H 0.05491 0.25842 0.94697 0.0
C571 C 0.13082 0.29664 0.88279 0.0
H572 H 0.10702 0.28706 0.97533 0.0
C573 C 0.10064 0.28035 0.86633 0.0
C574 C 0.07323 0.26562 0.88914 0.0
H575 H 0.15225 0.30664 0.8647 0.0
H576 H 0.09948 0.27813 0.83589 0.0
C577 C 0.07578 0.26899 0.92854 0.0
C578 C 0.88645 0.70223 0.44475 0.0
C579 C 0.85788 0.68881 0.42292 0.0
H580 H 0.93693 0.72981 0.44553 0.0
C581 C 0.86021 0.69111 0.38335 0.0
H582 H 0.886 0.7 0.4752 0.0
C583 C 0.88986 0.70793 0.36614 0.0
C584 C 0.9175 0.72284 0.38826 0.0
H585 H 0.83856 0.68105 0.36578 0.0
H586 H 0.89042 0.71046 0.33571 0.0
C587 C 0.91579 0.71913 0.42767 0.0
C588 C 0.84425 0.27049 0.90025 0.0
C589 C 0.84555 0.30786 0.89718 0.0
H590 H 0.87182 0.2209 0.89153 0.0
C591 C 0.87536 0.32351 0.87855 0.0
H592 H 0.82125 0.25732 0.91321 0.0
C593 C 0.90395 0.30232 0.86499 0.0
C594 C 0.90344 0.26528 0.87048 0.0
H595 H 0.87745 0.35219 0.87585 0.0
H596 H 0.92722 0.31504 0.85201 0.0
C597 C 0.87306 0.24953 0.88753 0.0
C598 C 0.11876 0.67763 0.39909 0.0
C599 C 0.14506 0.69664 0.41955 0.0
H600 H 0.06941 0.68035 0.36731 0.0
C601 C 0.14259 0.73399 0.42141 0.0
H602 H 0.11973 0.64881 0.39734 0.0
C603 C 0.11353 0.75178 0.40499 0.0
C604 C 0.08666 0.73272 0.3857 0.0
H605 H 0.16293 0.74957 0.43592 0.0
H606 H 0.11198 0.78055 0.40763 0.0
C607 C 0.0899 0.69559 0.38202 0.0
C608 C 0.63115 0.79662 0.88341 0.0
C609 C 0.63458 0.79811 0.92286 0.0
H610 H 0.59945 0.77853 0.83661 0.0
C611 C 0.60653 0.78473 0.94558 0.0
H612 H 0.65245 0.80676 0.86525 0.0
C613 C 0.57643 0.76865 0.92935 0.0
C614 C 0.57359 0.76561 0.88994 0.0
H615 H 0.60801 0.78633 0.97605 0.0
H616 H 0.55568 0.75796 0.94785 0.0
C617 C 0.60085 0.78049 0.86705 0.0
C618 C 0.35576 0.23328 0.42298 0.0
C619 C 0.35088 0.19632 0.41907 0.0
H620 H 0.38849 0.2786 0.41021 0.0
C621 C 0.37487 0.17704 0.39557 0.0
H622 H 0.33722 0.24921 0.43981 0.0
C623 C 0.40397 0.19422 0.37772 0.0
C624 C 0.40979 0.23076 0.38363 0.0
H625 H 0.37202 0.14849 0.39207 0.0
H626 H 0.42273 0.17871 0.36071 0.0
C627 C 0.38504 0.2502 0.40582 0.0
C628 C 0.3453 0.77192 0.90517 0.0
C629 C 0.34653 0.80925 0.9014 0.0
H630 H 0.37263 0.72218 0.89664 0.0
C631 C 0.37606 0.8246 0.88203 0.0
H632 H 0.32251 0.75896 0.91873 0.0
C633 C 0.40436 0.80319 0.86825 0.0
C634 C 0.40391 0.76622 0.87427 0.0
H635 H 0.37812 0.85323 0.87881 0.0
H636 H 0.42737 0.81571 0.85455 0.0
C637 C 0.37387 0.75075 0.89224 0.0
C638 C 0.63777 0.2287 0.42415 0.0
C639 C 0.64045 0.19137 0.42194 0.0
H640 H 0.60748 0.27533 0.40985 0.0
C641 C 0.61472 0.17252 0.40046 0.0
H642 H 0.65767 0.24426 0.43932 0.0
C643 C 0.58642 0.19063 0.38251 0.0
C644 C 0.58305 0.2277 0.38645 0.0
H645 H 0.61577 0.14373 0.39839 0.0
H646 H 0.56645 0.17558 0.36685 0.0
C647 C 0.60918 0.24658 0.407 0.0
C648 C 0.36576 0.57209 0.9357 0.0
C649 C 0.35351 0.5444 0.9123 0.0
H650 H 0.40144 0.61652 0.94183 0.0
C651 C 0.366 0.54254 0.8749 0.0
H652 H 0.35623 0.57429 0.96457 0.0
C653 C 0.39201 0.56659 0.86187 0.0
C654 C 0.40595 0.59302 0.88598 0.0
H655 H 0.35724 0.52129 0.85636 0.0
H656 H 0.40207 0.56363 0.83328 0.0
C657 C 0.39166 0.59623 0.92266 0.0
C658 C 0.62238 0.41757 0.43035 0.0
C659 C 0.63482 0.44597 0.408 0.0
H660 H 0.58717 0.37258 0.43466 0.0
C661 C 0.62271 0.44881 0.37063 0.0
H662 H 0.63167 0.41444 0.45911 0.0
C663 C 0.59719 0.42482 0.35654 0.0
C664 C 0.58325 0.39751 0.37957 0.0
H665 H 0.63158 0.4706 0.35284 0.0
H666 H 0.58753 0.42847 0.328 0.0
C667 C 0.59688 0.39359 0.41631 0.0
C668 C 0.61263 0.54445 0.9014 0.0
C669 C 0.62298 0.55072 0.93889 0.0
H670 H 0.58018 0.56094 0.85491 0.0
C671 C 0.60996 0.58145 0.95736 0.0
H672 H 0.62176 0.52084 0.88646 0.0
C673 C 0.58557 0.60436 0.93938 0.0
C674 C 0.57376 0.59702 0.90254 0.0
H675 H 0.61787 0.5873 0.98609 0.0
H676 H 0.57522 0.62722 0.95478 0.0
C677 C 0.58839 0.56734 0.88342 0.0
C678 C 0.37087 0.41668 0.42418 0.0
C679 C 0.36069 0.4463 0.40245 0.0
H680 H 0.40507 0.37092 0.42889 0.0
C681 C 0.37557 0.45052 0.36623 0.0
H682 H 0.35943 0.4126 0.45204 0.0
C683 C 0.40186 0.42669 0.35289 0.0
C684 C 0.4137 0.39825 0.3756 0.0
H685 H 0.36837 0.4733 0.34903 0.0
H686 H 0.41382 0.43139 0.32539 0.0
C687 C 0.39709 0.3929 0.41091 0.0
C688 C 0.86523 0.04273 0.87537 0.0
C689 C 0.85321 0.04452 0.91294 0.0
H690 H 0.90082 0.06384 0.83332 0.0
C691 C 0.86577 0.07215 0.93623 0.0
H692 H 0.85621 0.02153 0.85689 0.0
C693 C 0.89155 0.09628 0.92289 0.0
C694 C 0.90538 0.09311 0.88603 0.0
H695 H 0.8566 0.07431 0.96523 0.0
H696 H 0.90161 0.11651 0.94198 0.0
C697 C 0.8911 0.06677 0.86204 0.0
C698 C 0.09006 0.94875 0.42979 0.0
C699 C 0.12418 0.95414 0.41256 0.0
H700 H 0.03999 0.91999 0.42968 0.0
C701 C 0.1329 0.93414 0.38006 0.0
H702 H 0.08138 0.96439 0.45387 0.0
C703 C 0.1081 0.9097 0.36521 0.0
C704 C 0.07466 0.90404 0.38325 0.0
H705 H 0.15893 0.93706 0.36617 0.0
H706 H 0.1153 0.89474 0.34008 0.0
C707 C 0.06596 0.92354 0.41572 0.0
C708 C 0.11261 0.04488 0.9034 0.0
C709 C 0.12349 0.05216 0.94052 0.0
H710 H 0.07935 0.05999 0.85702 0.0
C711 C 0.11043 0.08318 0.9584 0.0
H712 H 0.12175 0.021 0.88895 0.0
C713 C 0.08556 0.10544 0.94024 0.0
C714 C 0.0733 0.09713 0.90379 0.0
H715 H 0.11872 0.08977 0.98684 0.0
H716 H 0.07526 0.12859 0.95517 0.0
C717 C 0.08789 0.06711 0.88523 0.0
C718 C 0.86537 0.91071 0.42683 0.0
C719 C 0.85487 0.94031 0.40524 0.0
H720 H 0.90041 0.86553 0.43149 0.0
C721 C 0.86978 0.94492 0.3691 0.0
H722 H 0.85397 0.90644 0.45468 0.0
C723 C 0.89656 0.92164 0.35581 0.0
C724 C 0.90881 0.89329 0.37842 0.0
H725 H 0.86233 0.96771 0.35202 0.0
H726 H 0.90859 0.92672 0.32841 0.0
C727 C 0.89202 0.88737 0.41353 0.0
C728 C 0.39267 0.29574 0.16081 0.0
C729 C 0.37111 0.32667 0.16235 0.0
H730 H 0.43382 0.26472 0.1885 0.0
C731 C 0.36963 0.34672 0.19567 0.0
H732 H 0.39423 0.2801 0.13514 0.0
C733 C 0.39209 0.33817 0.22572 0.0
C734 C 0.4164 0.30939 0.22298 0.0
H735 H 0.353 0.37056 0.1974 0.0
H736 H 0.39213 0.35552 0.25021 0.0
C737 C 0.41524 0.28702 0.19119 0.0
C738 C 0.62779 0.62865 0.70525 0.0
C739 C 0.62859 0.64991 0.67279 0.0
H740 H 0.60403 0.61983 0.75938 0.0
C741 C 0.60955 0.68241 0.67254 0.0
H742 H 0.64258 0.60365 0.70614 0.0
C743 C 0.58716 0.69174 0.7031 0.0
C744 C 0.58363 0.66857 0.73406 0.0
H745 H 0.60976 0.69912 0.64765 0.0
H746 H 0.57061 0.71557 0.70116 0.0
C747 C 0.60562 0.63791 0.73562 0.0
C748 C 0.61758 0.2868 0.16971 0.0
C749 C 0.63919 0.31764 0.17033 0.0
H750 H 0.57376 0.25827 0.19612 0.0
C751 C 0.63709 0.34066 0.20146 0.0
H752 H 0.61869 0.26876 0.14584 0.0
C753 C 0.61148 0.33493 0.2297 0.0
C754 C 0.58752 0.30593 0.22754 0.0
H755 H 0.6538 0.36437 0.20277 0.0
H756 H 0.60921 0.35428 0.25233 0.0
C757 C 0.59186 0.28089 0.19832 0.0
C758 C 0.38899 0.68069 0.66651 0.0
C759 C 0.37058 0.64793 0.66752 0.0
H760 H 0.42748 0.71473 0.69423 0.0
C761 C 0.37228 0.62681 0.69999 0.0
H762 H 0.38799 0.69728 0.64155 0.0
C763 C 0.39462 0.63658 0.72967 0.0
C764 C 0.41576 0.66764 0.72744 0.0
H765 H 0.3579 0.60167 0.70147 0.0
H766 H 0.39678 0.61877 0.75362 0.0
C767 C 0.41153 0.69059 0.69648 0.0
C768 C 0.86834 0.846 0.19663 0.0
C769 C 0.87121 0.82641 0.1631 0.0
H770 H 0.88917 0.85471 0.25189 0.0
C771 C 0.89374 0.79618 0.16168 0.0
H772 H 0.85096 0.86933 0.19823 0.0
C773 C 0.91585 0.78773 0.19251 0.0
C774 C 0.91558 0.80969 0.22466 0.0
H775 H 0.89639 0.78092 0.13584 0.0
H776 H 0.93517 0.76604 0.18994 0.0
C777 C 0.89028 0.83769 0.22717 0.0
C778 C 0.1343 0.12537 0.71465 0.0
C779 C 0.13709 0.14525 0.68132 0.0
H780 H 0.10673 0.11829 0.76711 0.0
C781 C 0.11748 0.1773 0.67807 0.0
H782 H 0.14948 0.10079 0.71795 0.0
C783 C 0.09272 0.18741 0.70629 0.0
C784 C 0.08735 0.16545 0.73791 0.0
H785 H 0.11915 0.19298 0.65248 0.0
H786 H 0.07594 0.21079 0.70197 0.0
C787 C 0.10972 0.13537 0.74266 0.0
C788 C 0.1189 0.79023 0.17309 0.0
C789 C 0.13937 0.82183 0.17374 0.0
H790 H 0.07548 0.76058 0.19881 0.0
C791 C 0.13544 0.84536 0.20427 0.0
H792 H 0.12141 0.77176 0.14969 0.0
C793 C 0.10914 0.83929 0.23172 0.0
C794 C 0.08643 0.80937 0.22946 0.0
H795 H 0.15129 0.86963 0.20569 0.0
H796 H 0.10548 0.85894 0.25389 0.0
C797 C 0.09258 0.78393 0.20099 0.0
C798 C 0.87349 0.1251 0.69843 0.0
C799 C 0.87178 0.14609 0.66586 0.0
H800 H 0.89812 0.11707 0.75198 0.0
C801 C 0.89067 0.17857 0.6645 0.0
H802 H 0.8588 0.10015 0.70016 0.0
C803 C 0.91351 0.18837 0.6943 0.0
C804 C 0.9176 0.16558 0.72543 0.0
H805 H 0.88971 0.19504 0.63945 0.0
H806 H 0.92967 0.21235 0.69185 0.0
C807 C 0.89613 0.13475 0.72791 0.0
loop_
_geom_bond_atom_site_label_1
_geom_bond_atom_site_label_2
_geom_bond_distance
_geom_bond_site_symmetry_2
_ccdc_geom_bond_type
C0 C1 1.391 . S
C0 C4 1.391 . S
C0 H42 0.948 . S
C1 C0 1.391 . S
C1 C2 1.391 . S
C2 C1 1.391 . S
C2 H58 0.947 . S
C2 C59 1.392 . S
C3 C4 1.391 . S
C3 C7 1.397 . S
C3 C59 1.419 . S
C4 C0 1.391 . S
C4 C3 1.391 . S
C4 C5 1.399 . S
C5 C4 1.399 . S
C5 C8 1.396 . S
C5 C17 1.453 . S
C5 C18 1.684 . S
H6 C30 0.948 . S
C7 C3 1.397 . S
C7 C8 1.394 . S
C7 C26 1.723 . S
C8 C5 1.396 . S
C8 C7 1.394 . S
C8 C38 1.723 . S
H9 C32 0.947 1_554 S
H10 C33 0.948 . S
H11 C39 0.982 . S
H12 C40 0.979 . S
H13 C40 0.980 . S
H14 C40 0.983 . S
H15 C39 0.979 . S
H16 C39 0.977 . S
C17 C5 1.453 . S
C17 H46 0.982 . S
C17 H47 0.979 . S
C17 H48 0.977 . S
C18 C5 1.684 . S
C18 H43 0.979 . S
C18 H44 0.980 . S
C18 H45 0.983 . S
C19 C20 1.391 . S
C19 C24 1.391 . S
C19 H49 0.948 . S
C20 C19 1.391 . S
C20 C21 1.391 . S
C21 C20 1.391 . S
C21 C22 1.392 . S
C21 H50 0.947 . S
C22 C21 1.392 . S
C22 C23 1.419 . S
C22 H51 0.948 . S
C23 C22 1.419 . S
C23 C24 1.391 . S
C23 C27 1.397 . S
C24 C19 1.391 . S
C24 C23 1.391 . S
C24 C25 1.399 1_556 S
C25 C24 1.399 1_554 S
C25 C26 1.396 . S
C25 C28 1.453 . S
C25 C29 1.684 . S
C26 C7 1.723 . S
C26 C25 1.396 . S
C26 C27 1.394 1_554 S
C27 C23 1.397 . S
C27 C26 1.394 1_556 S
C27 C37 1.723 . S
C28 C25 1.453 . S
C28 H52 0.982 . S
C28 H53 0.979 . S
C28 H54 0.977 . S
C29 C25 1.684 . S
C29 H55 0.979 . S
C29 H56 0.980 . S
C29 H57 0.983 . S
C30 H6 0.948 . S
C30 C31 1.391 . S
C30 C35 1.391 . S
C31 C30 1.391 . S
C31 C32 1.391 . S
C32 H9 0.947 1_556 S
C32 C31 1.391 . S
C32 C33 1.392 1_556 S
C33 H10 0.948 . S
C33 C32 1.392 1_554 S
C33 C34 1.419 1_554 S
C34 C33 1.419 1_556 S
C34 C35 1.391 . S
C34 C38 1.397 1_556 S
C35 C30 1.391 . S
C35 C34 1.391 . S
C35 C36 1.399 . S
C36 C35 1.399 . S
C36 C37 1.396 . S
C36 C39 1.453 . S
C36 C40 1.684 . S
C37 C27 1.723 . S
C37 C36 1.396 . S
C37 C38 1.394 1_556 S
C38 C8 1.723 . S
C38 C34 1.397 1_554 S
C38 C37 1.394 1_554 S
C39 H11 0.982 . S
C39 H15 0.979 . S
C39 H16 0.977 . S
C39 C36 1.453 . S
C40 H12 0.979 . S
C40 H13 0.980 . S
C40 H14 0.983 . S
C40 C36 1.684 . S
H41 C59 0.948 . S
H42 C0 0.948 . S
H43 C18 0.979 . S
H44 C18 0.980 . S
H45 C18 0.983 . S
H46 C17 0.982 . S
H47 C17 0.979 . S
H48 C17 0.977 . S
H49 C19 0.948 . S
H50 C21 0.947 . S
H51 C22 0.948 . S
H52 C28 0.982 . S
H53 C28 0.979 . S
H54 C28 0.977 . S
H55 C29 0.979 . S
H56 C29 0.980 . S
H57 C29 0.983 . S
H58 C2 0.947 . S
C59 C2 1.392 . S
C59 C3 1.419 . S
C59 H41 0.948 . S
C60 C61 1.391 . S
C60 C64 1.391 . S
C60 H102 0.948 . S
C61 C60 1.391 . S
C61 C62 1.391 . S
C62 C61 1.391 . S
C62 H118 0.947 . S
C62 C119 1.392 . S
C63 C64 1.391 . S
C63 C67 1.397 . S
C63 C119 1.419 . S
C64 C60 1.391 . S
C64 C63 1.391 . S
C64 C65 1.399 . S
C65 C64 1.399 . S
C65 C68 1.396 . S
C65 C77 1.453 . S
C65 C78 1.684 . S
H66 C90 0.948 . S
C67 C63 1.397 . S
C67 C68 1.394 . S
C67 C86 1.723 . S
C68 C65 1.396 . S
C68 C67 1.394 . S
C68 C98 1.723 . S
H69 C92 0.947 . S
H70 C93 0.948 . S
H71 C99 0.982 . S
H72 C100 0.979 . S
H73 C100 0.980 . S
H74 C100 0.983 . S
H75 C99 0.979 . S
H76 C99 0.977 . S
C77 C65 1.453 . S
C77 H106 0.982 . S
C77 H107 0.979 . S
C77 H108 0.977 . S
C78 C65 1.684 . S
C78 H103 0.979 . S
C78 H104 0.980 . S
C78 H105 0.983 . S
C79 C80 1.391 . S
C79 C84 1.391 . S
C79 H109 0.948 . S
C80 C79 1.391 . S
C80 C81 1.391 . S
C81 C80 1.391 . S
C81 C82 1.392 . S
C81 H110 0.947 . S
C82 C81 1.392 . S
C82 C83 1.419 . S
C82 H111 0.948 . S
C83 C82 1.419 . S
C83 C84 1.391 . S
C83 C87 1.397 . S
C84 C79 1.391 . S
C84 C83 1.391 . S
C84 C85 1.399 . S
C85 C84 1.399 . S
C85 C86 1.396 . S
C85 C88 1.453 . S
C85 C89 1.684 . S
C86 C67 1.723 . S
C86 C85 1.396 . S
C86 C87 1.394 . S
C87 C83 1.397 . S
C87 C86 1.394 . S
C87 C97 1.723 . S
C88 C85 1.453 . S
C88 H112 0.982 . S
C88 H113 0.979 . S
C88 H114 0.977 . S
C89 C85 1.684 . S
C89 H115 0.979 . S
C89 H116 0.980 . S
C89 H117 0.983 . S
C90 H66 0.948 . S
C90 C91 1.391 . S
C90 C95 1.391 . S
C91 C90 1.391 . S
C91 C92 1.391 . S
C92 H69 0.947 . S
C92 C91 1.391 . S
C92 C93 1.392 . S
C93 H70 0.948 . S
C93 C92 1.392 . S
C93 C94 1.419 . S
C94 C93 1.419 . S
C94 C95 1.391 . S
C94 C98 1.397 . S
C95 C90 1.391 . S
C95 C94 1.391 . S
C95 C96 1.399 . S
C96 C95 1.399 . S
C96 C97 1.396 . S
C96 C99 1.453 . S
C96 C100 1.684 . S
C97 C87 1.723 . S
C97 C96 1.396 . S
C97 C98 1.394 . S
C98 C68 1.723 . S
C98 C94 1.397 . S
C98 C97 1.394 . S
C99 H71 0.982 . S
C99 H75 0.979 . S
C99 H76 0.977 . S
C99 C96 1.453 . S
C100 H72 0.979 . S
C100 H73 0.980 . S
C100 H74 0.983 . S
C100 C96 1.684 . S
H101 C119 0.948 . S
H102 C60 0.948 . S
H103 C78 0.979 . S
H104 C78 0.980 . S
H105 C78 0.983 . S
H106 C77 0.982 . S
H107 C77 0.979 . S
H108 C77 0.977 . S
H109 C79 0.948 . S
H110 C81 0.947 . S
H111 C82 0.948 . S
H112 C88 0.982 . S
H113 C88 0.979 . S
H114 C88 0.977 . S
H115 C89 0.979 . S
H116 C89 0.980 . S
H117 C89 0.983 . S
H118 C62 0.947 . S
C119 C62 1.392 . S
C119 C63 1.419 . S
C119 H101 0.948 . S
C120 C121 1.391 . S
C120 C124 1.391 . S
C120 H162 0.948 . S
C121 C120 1.391 . S
C121 C122 1.391 . S
C122 C121 1.391 . S
C122 H178 0.947 . S
C122 C179 1.392 . S
C123 C124 1.391 . S
C123 C127 1.397 . S
C123 C179 1.419 . S
C124 C120 1.391 . S
C124 C123 1.391 . S
C124 C125 1.399 . S
C125 C124 1.399 . S
C125 C128 1.396 . S
C125 C137 1.453 . S
C125 C138 1.684 . S
H126 C150 0.948 . S
C127 C123 1.397 . S
C127 C128 1.394 . S
C127 C146 1.723 1_556 S
C128 C125 1.396 . S
C128 C127 1.394 . S
C128 C158 1.723 . S
H129 C152 0.947 . S
H130 C153 0.948 . S
H131 C159 0.982 . S
H132 C160 0.979 . S
H133 C160 0.980 . S
H134 C160 0.983 . S
H135 C159 0.979 . S
H136 C159 0.977 . S
C137 C125 1.453 . S
C137 H166 0.982 . S
C137 H167 0.979 . S
C137 H168 0.977 . S
C138 C125 1.684 . S
C138 H163 0.979 . S
C138 H164 0.980 . S
C138 H165 0.983 . S
C139 C140 1.391 . S
C139 C144 1.391 . S
C139 H169 0.948 . S
C140 C139 1.391 . S
C140 C141 1.391 . S
C141 C140 1.391 . S
C141 C142 1.392 . S
C141 H170 0.947 . S
C142 C141 1.392 . S
C142 C143 1.419 . S
C142 H171 0.948 . S
C143 C142 1.419 . S
C143 C144 1.391 . S
C143 C147 1.397 . S
C144 C139 1.391 . S
C144 C143 1.391 . S
C144 C145 1.399 . S
C145 C144 1.399 . S
C145 C146 1.396 . S
C145 C148 1.453 . S
C145 C149 1.684 . S
C146 C127 1.723 1_554 S
C146 C145 1.396 . S
C146 C147 1.394 . S
C147 C143 1.397 . S
C147 C146 1.394 . S
C147 C157 1.723 . S
C148 C145 1.453 . S
C148 H172 0.982 . S
C148 H173 0.979 . S
C148 H174 0.977 . S
C149 C145 1.684 . S
C149 H175 0.979 . S
C149 H176 0.980 . S
C149 H177 0.983 . S
C150 H126 0.948 . S
C150 C151 1.391 . S
C150 C155 1.391 . S
C151 C150 1.391 . S
C151 C152 1.391 . S
C152 H129 0.947 . S
C152 C151 1.391 . S
C152 C153 1.392 . S
C153 H130 0.948 . S
C153 C152 1.392 . S
C153 C154 1.419 . S
C154 C153 1.419 . S
C154 C155 1.391 . S
C154 C158 1.397 . S
C155 C150 1.391 . S
C155 C154 1.391 . S
C155 C156 1.399 1_556 S
C156 C155 1.399 1_554 S
C156 C157 1.396 . S
C156 C159 1.453 . S
C156 C160 1.684 . S
C157 C147 1.723 . S
C157 C156 1.396 . S
C157 C158 1.394 1_554 S
C158 C128 1.723 . S
C158 C154 1.397 . S
C158 C157 1.394 1_556 S
C159 H131 0.982 . S
C159 H135 0.979 . S
C159 H136 0.977 . S
C159 C156 1.453 . S
C160 H132 0.979 . S
C160 H133 0.980 . S
C160 H134 0.983 . S
C160 C156 1.684 . S
H161 C179 0.948 1_554 S
H162 C120 0.948 . S
H163 C138 0.979 . S
H164 C138 0.980 . S
H165 C138 0.983 . S
H166 C137 0.982 . S
H167 C137 0.979 . S
H168 C137 0.977 . S
H169 C139 0.948 . S
H170 C141 0.947 . S
H171 C142 0.948 . S
H172 C148 0.982 . S
H173 C148 0.979 . S
H174 C148 0.977 . S
H175 C149 0.979 . S
H176 C149 0.980 . S
H177 C149 0.983 . S
H178 C122 0.947 . S
C179 C122 1.392 . S
C179 C123 1.419 . S
C179 H161 0.948 1_556 S
C180 C181 1.391 . S
C180 C184 1.391 . S
C180 H222 0.948 . S
C181 C180 1.391 . S
C181 C182 1.391 . S
C182 C181 1.391 . S
C182 H238 0.947 . S
C182 C239 1.392 . S
C183 C184 1.391 . S
C183 C187 1.397 . S
C183 C239 1.419 . S
C184 C180 1.391 . S
C184 C183 1.391 . S
C184 C185 1.399 . S
C185 C184 1.399 . S
C185 C188 1.396 . S
C185 C197 1.453 . S
C185 C198 1.684 . S
H186 C210 0.948 . S
C187 C183 1.397 . S
C187 C188 1.394 . S
C187 C206 1.723 . S
C188 C185 1.396 . S
C188 C187 1.394 . S
C188 C218 1.723 . S
H189 C212 0.947 . S
H190 C213 0.948 . S
H191 C219 0.982 . S
H192 C220 0.979 . S
H193 C220 0.980 . S
H194 C220 0.983 . S
H195 C219 0.979 . S
H196 C219 0.977 . S
C197 C185 1.453 . S
C197 H226 0.982 . S
C197 H227 0.979 . S
C197 H228 0.977 . S
C198 C185 1.684 . S
C198 H223 0.979 . S
C198 H224 0.980 . S
C198 H225 0.983 . S
C199 C200 1.391 . S
C199 C204 1.391 . S
C199 H229 0.948 . S
C200 C199 1.391 . S
C200 C201 1.391 . S
C201 C200 1.391 . S
C201 C202 1.392 . S
C201 H230 0.947 . S
C202 C201 1.392 . S
C202 C203 1.419 . S
C202 H231 0.948 . S
C203 C202 1.419 . S
C203 C204 1.391 . S
C203 C207 1.397 . S
C204 C199 1.391 . S
C204 C203 1.391 . S
C204 C205 1.399 . S
C205 C204 1.399 . S
C205 C206 1.396 . S
C205 C208 1.453 . S
C205 C209 1.684 . S
C206 C187 1.723 . S
C206 C205 1.396 . S
C206 C207 1.394 . S
C207 C203 1.397 . S
C207 C206 1.394 . S
C207 C217 1.723 . S
C208 C205 1.453 . S
C208 H232 0.982 . S
C208 H233 0.979 . S
C208 H234 0.977 . S
C209 C205 1.684 . S
C209 H235 0.979 . S
C209 H236 0.980 . S
C209 H237 0.983 . S
C210 H186 0.948 . S
C210 C211 1.391 . S
C210 C215 1.391 . S
C211 C210 1.391 . S
C211 C212 1.391 . S
C212 H189 0.947 . S
C212 C211 1.391 . S
C212 C213 1.392 . S
C213 H190 0.948 . S
C213 C212 1.392 . S
C213 C214 1.419 . S
C214 C213 1.419 . S
C214 C215 1.391 . S
C214 C218 1.397 . S
C215 C210 1.391 . S
C215 C214 1.391 . S
C215 C216 1.399 . S
C216 C215 1.399 . S
C216 C217 1.396 . S
C216 C219 1.453 . S
C216 C220 1.684 . S
C217 C207 1.723 . S
C217 C216 1.396 . S
C217 C218 1.394 . S
C218 C188 1.723 . S
C218 C214 1.397 . S
C218 C217 1.394 . S
C219 H191 0.982 . S
C219 H195 0.979 . S
C219 H196 0.977 . S
C219 C216 1.453 . S
C220 H192 0.979 . S
C220 H193 0.980 . S
C220 H194 0.983 . S
C220 C216 1.684 . S
H221 C239 0.948 . S
H222 C180 0.948 . S
H223 C198 0.979 . S
H224 C198 0.980 . S
H225 C198 0.983 . S
H226 C197 0.982 . S
H227 C197 0.979 . S
H228 C197 0.977 . S
H229 C199 0.948 . S
H230 C201 0.947 . S
H231 C202 0.948 . S
H232 C208 0.982 . S
H233 C208 0.979 . S
H234 C208 0.977 . S
H235 C209 0.979 . S
H236 C209 0.980 . S
H237 C209 0.983 . S
H238 C182 0.947 . S
C239 C182 1.392 . S
C239 C183 1.419 . S
C239 H221 0.948 . S
C240 C241 1.391 . S
C240 C244 1.391 . S
C240 H282 0.948 . S
C241 C240 1.391 . S
C241 C242 1.391 . S
C242 C241 1.391 . S
C242 H298 0.947 . S
C242 C299 1.392 . S
C243 C244 1.391 . S
C243 C247 1.397 . S
C243 C299 1.419 . S
C244 C240 1.391 . S
C244 C243 1.391 . S
C244 C245 1.399 . S
C245 C244 1.399 . S
C245 C248 1.396 . S
C245 C257 1.453 . S
C245 C258 1.684 . S
H246 C270 0.948 . S
C247 C243 1.397 . S
C247 C248 1.394 . S
C247 C266 1.723 . S
C248 C245 1.396 . S
C248 C247 1.394 . S
C248 C278 1.723 . S
H249 C272 0.947 1_554 S
H250 C273 0.948 . S
H251 C279 0.982 . S
H252 C280 0.979 . S
H253 C280 0.980 . S
H254 C280 0.983 . S
H255 C279 0.979 . S
H256 C279 0.977 . S
C257 C245 1.453 . S
C257 H286 0.982 . S
C257 H287 0.979 . S
C257 H288 0.977 . S
C258 C245 1.684 . S
C258 H283 0.979 . S
C258 H284 0.980 . S
C258 H285 0.983 . S
C259 C260 1.391 . S
C259 C264 1.391 1_545 S
C259 H289 0.948 . S
C260 C259 1.391 . S
C260 C261 1.391 . S
C261 C260 1.391 . S
C261 C262 1.392 1_545 S
C261 H290 0.947 . S
C262 C261 1.392 1_565 S
C262 C263 1.419 . S
C262 H291 0.948 . S
C263 C262 1.419 . S
C263 C264 1.391 . S
C263 C267 1.397 . S
C264 C259 1.391 1_565 S
C264 C263 1.391 . S
C264 C265 1.399 1_556 S
C265 C264 1.399 1_554 S
C265 C266 1.396 . S
C265 C268 1.453 . S
C265 C269 1.684 . S
C266 C247 1.723 . S
C266 C265 1.396 . S
C266 C267 1.394 1_554 S
C267 C263 1.397 . S
C267 C266 1.394 1_556 S
C267 C277 1.723 . S
C268 C265 1.453 . S
C268 H292 0.982 . S
C268 H293 0.979 1_565 S
C268 H294 0.977 . S
C269 C265 1.684 . S
C269 H295 0.979 . S
C269 H296 0.980 . S
C269 H297 0.983 . S
C270 H246 0.948 . S
C270 C271 1.391 . S
C270 C275 1.391 . S
C271 C270 1.391 . S
C271 C272 1.391 . S
C272 H249 0.947 1_556 S
C272 C271 1.391 . S
C272 C273 1.392 1_556 S
C273 H250 0.948 . S
C273 C272 1.392 1_554 S
C273 C274 1.419 1_554 S
C274 C273 1.419 1_556 S
C274 C275 1.391 . S
C274 C278 1.397 1_556 S
C275 C270 1.391 . S
C275 C274 1.391 . S
C275 C276 1.399 . S
C276 C275 1.399 . S
C276 C277 1.396 . S
C276 C279 1.453 . S
C276 C280 1.684 . S
C277 C267 1.723 . S
C277 C276 1.396 . S
C277 C278 1.394 1_556 S
C278 C248 1.723 . S
C278 C274 1.397 1_554 S
C278 C277 1.394 1_554 S
C279 H251 0.982 . S
C279 H255 0.979 . S
C279 H256 0.977 . S
C279 C276 1.453 . S
C280 H252 0.979 . S
C280 H253 0.980 . S
C280 H254 0.983 . S
C280 C276 1.684 . S
H281 C299 0.948 . S
H282 C240 0.948 . S
H283 C258 0.979 . S
H284 C258 0.980 . S
H285 C258 0.983 . S
H286 C257 0.982 . S
H287 C257 0.979 . S
H288 C257 0.977 . S
H289 C259 0.948 . S
H290 C261 0.947 . S
H291 C262 0.948 . S
H292 C268 0.982 . S
H293 C268 0.979 1_545 S
H294 C268 0.977 . S
H295 C269 0.979 . S
H296 C269 0.980 . S
H297 C269 0.983 . S
H298 C242 0.947 . S
C299 C242 1.392 . S
C299 C243 1.419 . S
C299 H281 0.948 . S
C300 C301 1.391 . S
C300 C304 1.391 . S
C300 H342 0.948 . S
C301 C300 1.391 . S
C301 C302 1.391 . S
C302 C301 1.391 . S
C302 H358 0.947 . S
C302 C359 1.392 . S
C303 C304 1.391 . S
C303 C307 1.397 . S
C303 C359 1.419 . S
C304 C300 1.391 . S
C304 C303 1.391 . S
C304 C305 1.399 . S
C305 C304 1.399 . S
C305 C308 1.396 . S
C305 C317 1.453 . S
C305 C318 1.684 . S
H306 C330 0.948 . S
C307 C303 1.397 . S
C307 C308 1.394 . S
C307 C326 1.723 . S
C308 C305 1.396 . S
C308 C307 1.394 . S
C308 C338 1.723 . S
H309 C332 0.947 . S
H310 C333 0.948 . S
H311 C339 0.982 . S
H312 C340 0.979 . S
H313 C340 0.980 . S
H314 C340 0.983 . S
H315 C339 0.979 1_565 S
H316 C339 0.977 . S
C317 C305 1.453 . S
C317 H346 0.982 . S
C317 H347 0.979 . S
C317 H348 0.977 . S
C318 C305 1.684 . S
C318 H343 0.979 . S
C318 H344 0.980 . S
C318 H345 0.983 . S
C319 C320 1.391 . S
C319 C324 1.391 . S
C319 H349 0.948 . S
C320 C319 1.391 . S
C320 C321 1.391 . S
C321 C320 1.391 . S
C321 C322 1.392 . S
C321 H350 0.947 . S
C322 C321 1.392 . S
C322 C323 1.419 . S
C322 H351 0.948 . S
C323 C322 1.419 . S
C323 C324 1.391 . S
C323 C327 1.397 . S
C324 C319 1.391 . S
C324 C323 1.391 . S
C324 C325 1.399 . S
C325 C324 1.399 . S
C325 C326 1.396 . S
C325 C328 1.453 . S
C325 C329 1.684 . S
C326 C307 1.723 . S
C326 C325 1.396 . S
C326 C327 1.394 . S
C327 C323 1.397 . S
C327 C326 1.394 . S
C327 C337 1.723 . S
C328 C325 1.453 . S
C328 H352 0.982 . S
C328 H353 0.979 . S
C328 H354 0.977 . S
C329 C325 1.684 . S
C329 H355 0.979 . S
C329 H356 0.980 . S
C329 H357 0.983 . S
C330 H306 0.948 . S
C330 C331 1.391 . S
C330 C335 1.391 1_565 S
C331 C330 1.391 . S
C331 C332 1.391 . S
C332 H309 0.947 . S
C332 C331 1.391 . S
C332 C333 1.392 1_565 S
C333 H310 0.948 . S
C333 C332 1.392 1_545 S
C333 C334 1.419 . S
C334 C333 1.419 . S
C334 C335 1.391 . S
C334 C338 1.397 . S
C335 C330 1.391 1_545 S
C335 C334 1.391 . S
C335 C336 1.399 . S
C336 C335 1.399 . S
C336 C337 1.396 . S
C336 C339 1.453 . S
C336 C340 1.684 . S
C337 C327 1.723 . S
C337 C336 1.396 . S
C337 C338 1.394 . S
C338 C308 1.723 . S
C338 C334 1.397 . S
C338 C337 1.394 . S
C339 H311 0.982 . S
C339 H315 0.979 1_545 S
C339 H316 0.977 . S
C339 C336 1.453 . S
C340 H312 0.979 . S
C340 H313 0.980 . S
C340 H314 0.983 . S
C340 C336 1.684 . S
H341 C359 0.948 . S
H342 C300 0.948 . S
H343 C318 0.979 . S
H344 C318 0.980 . S
H345 C318 0.983 . S
H346 C317 0.982 . S
H347 C317 0.979 . S
H348 C317 0.977 . S
H349 C319 0.948 . S
H350 C321 0.947 . S
H351 C322 0.948 . S
H352 C328 0.982 . S
H353 C328 0.979 . S
H354 C328 0.977 . S
H355 C329 0.979 . S
H356 C329 0.980 . S
H357 C329 0.983 . S
H358 C302 0.947 . S
C359 C302 1.392 . S
C359 C303 1.419 . S
C359 H341 0.948 . S
C360 C361 1.395 . S
C360 C364 1.386 1_545 S
C360 H402 0.949 . S
C361 C360 1.395 . S
C361 C362 1.391 . S
C362 C361 1.391 . S
C362 H418 0.947 . S
C362 C419 1.392 1_545 S
C363 C364 1.391 . S
C363 C367 1.397 . S
C363 C419 1.419 . S
C364 C360 1.386 1_565 S
C364 C363 1.391 . S
C364 C365 1.399 . S
C365 C364 1.399 . S
C365 C368 1.396 . S
C365 C377 1.453 . S
C365 C378 1.684 . S
H366 C390 0.948 . S
C367 C363 1.397 . S
C367 C368 1.394 . S
C367 C386 1.723 1_556 S
C368 C365 1.396 . S
C368 C367 1.394 . S
C368 C398 1.723 . S
H369 C392 0.947 . S
H370 C393 0.948 . S
H371 C399 0.982 . S
H372 C400 0.979 . S
H373 C400 0.980 . S
H374 C400 0.983 . S
H375 C399 0.979 . S
H376 C399 0.977 . S
C377 C365 1.453 . S
C377 H406 0.982 . S
C377 H407 0.979 . S
C377 H408 0.977 . S
C378 C365 1.684 . S
C378 H403 0.979 . S
C378 H404 0.980 . S
C378 H405 0.983 . S
C379 C380 1.391 . S
C379 C384 1.391 . S
C379 H409 0.948 . S
C380 C379 1.391 . S
C380 C381 1.391 . S
C381 C380 1.391 . S
C381 C382 1.392 . S
C381 H410 0.947 . S
C382 C381 1.392 . S
C382 C383 1.419 . S
C382 H411 0.948 . S
C383 C382 1.419 . S
C383 C384 1.391 . S
C383 C387 1.397 . S
C384 C379 1.391 . S
C384 C383 1.391 . S
C384 C385 1.399 . S
C385 C384 1.399 . S
C385 C386 1.396 . S
C385 C388 1.453 . S
C385 C389 1.684 . S
C386 C367 1.723 1_554 S
C386 C385 1.396 . S
C386 C387 1.394 . S
C387 C383 1.397 . S
C387 C386 1.394 . S
C387 C397 1.723 . S
C388 C385 1.453 . S
C388 H412 0.982 . S
C388 H413 0.979 . S
C388 H414 0.977 . S
C389 C385 1.684 . S
C389 H415 0.979 . S
C389 H416 0.980 . S
C389 H417 0.983 . S
C390 H366 0.948 . S
C390 C391 1.391 . S
C390 C395 1.391 . S
C391 C390 1.391 . S
C391 C392 1.391 . S
C392 H369 0.947 . S
C392 C391 1.391 . S
C392 C393 1.392 . S
C393 H370 0.948 . S
C393 C392 1.392 . S
C393 C394 1.419 . S
C394 C393 1.419 . S
C394 C395 1.391 . S
C394 C398 1.397 . S
C395 C390 1.391 . S
C395 C394 1.391 . S
C395 C396 1.399 1_556 S
C396 C395 1.399 1_554 S
C396 C397 1.396 . S
C396 C399 1.453 . S
C396 C400 1.684 . S
C397 C387 1.723 . S
C397 C396 1.396 . S
C397 C398 1.394 1_554 S
C398 C368 1.723 . S
C398 C394 1.397 . S
C398 C397 1.394 1_556 S
C399 H371 0.982 . S
C399 H375 0.979 . S
C399 H376 0.977 . S
C399 C396 1.453 . S
C400 H372 0.979 . S
C400 H373 0.980 . S
C400 H374 0.983 . S
C400 C396 1.684 . S
H401 C419 0.948 1_554 S
H402 C360 0.949 . S
H403 C378 0.979 . S
H404 C378 0.980 . S
H405 C378 0.983 . S
H406 C377 0.982 . S
H407 C377 0.979 . S
H408 C377 0.977 . S
H409 C379 0.948 . S
H410 C381 0.947 . S
H411 C382 0.948 . S
H412 C388 0.982 . S
H413 C388 0.979 . S
H414 C388 0.977 . S
H415 C389 0.979 . S
H416 C389 0.980 . S
H417 C389 0.983 . S
H418 C362 0.947 . S
C419 C362 1.392 1_565 S
C419 C363 1.419 . S
C419 H401 0.948 1_556 S
C420 C421 1.391 . S
C420 C424 1.391 . S
C420 H462 0.948 . S
C421 C420 1.391 . S
C421 C422 1.391 . S
C422 C421 1.391 . S
C422 H478 0.947 . S
C422 C479 1.392 . S
C423 C424 1.391 . S
C423 C427 1.397 . S
C423 C479 1.419 . S
C424 C420 1.391 . S
C424 C423 1.391 . S
C424 C425 1.399 . S
C425 C424 1.399 . S
C425 C428 1.396 . S
C425 C437 1.453 . S
C425 C438 1.684 . S
H426 C450 0.948 . S
C427 C423 1.397 . S
C427 C428 1.394 . S
C427 C446 1.723 . S
C428 C425 1.396 . S
C428 C427 1.394 . S
C428 C458 1.723 . S
H429 C452 0.947 . S
H430 C453 0.948 . S
H431 C459 0.982 . S
H432 C460 0.979 1_565 S
H433 C460 0.980 . S
H434 C460 0.983 1_565 S
H435 C459 0.979 . S
H436 C459 0.977 . S
C437 C425 1.453 . S
C437 H466 0.982 . S
C437 H467 0.979 . S
C437 H468 0.977 . S
C438 C425 1.684 . S
C438 H463 0.979 . S
C438 H464 0.980 . S
C438 H465 0.983 . S
C439 C440 1.391 . S
C439 C444 1.391 . S
C439 H469 0.948 . S
C440 C439 1.391 . S
C440 C441 1.391 . S
C441 C440 1.391 . S
C441 C442 1.392 . S
C441 H470 0.947 . S
C442 C441 1.392 . S
C442 C443 1.419 . S
C442 H471 0.948 . S
C443 C442 1.419 . S
C443 C444 1.391 . S
C443 C447 1.397 . S
C444 C439 1.391 . S
C444 C443 1.391 . S
C444 C445 1.399 . S
C445 C444 1.399 . S
C445 C446 1.396 . S
C445 C448 1.453 . S
C445 C449 1.684 . S
C446 C427 1.723 . S
C446 C445 1.396 . S
C446 C447 1.394 . S
C447 C443 1.397 . S
C447 C446 1.394 . S
C447 C457 1.723 . S
C448 C445 1.453 . S
C448 H472 0.982 . S
C448 H473 0.979 . S
C448 H474 0.977 . S
C449 C445 1.684 . S
C449 H475 0.979 . S
C449 H476 0.980 . S
C449 H477 0.983 . S
C450 H426 0.948 . S
C450 C451 1.391 . S
C450 C455 1.391 1_565 S
C451 C450 1.391 . S
C451 C452 1.391 . S
C452 H429 0.947 . S
C452 C451 1.391 . S
C452 C453 1.392 1_565 S
C453 H430 0.948 . S
C453 C452 1.392 1_545 S
C453 C454 1.419 . S
C454 C453 1.419 . S
C454 C455 1.391 . S
C454 C458 1.397 . S
C455 C450 1.391 1_545 S
C455 C454 1.391 . S
C455 C456 1.399 . S
C456 C455 1.399 . S
C456 C457 1.396 . S
C456 C459 1.453 . S
C456 C460 1.684 . S
C457 C447 1.723 . S
C457 C456 1.396 . S
C457 C458 1.394 . S
C458 C428 1.723 . S
C458 C454 1.397 . S
C458 C457 1.394 . S
C459 H431 0.982 . S
C459 H435 0.979 . S
C459 H436 0.977 . S
C459 C456 1.453 . S
C460 H432 0.979 1_545 S
C460 H433 0.980 . S
C460 H434 0.983 1_545 S
C460 C456 1.684 . S
H461 C479 0.948 . S
H462 C420 0.948 . S
H463 C438 0.979 . S
H464 C438 0.980 . S
H465 C438 0.983 . S
H466 C437 0.982 . S
H467 C437 0.979 . S
H468 C437 0.977 . S
H469 C439 0.948 . S
H470 C441 0.947 . S
H471 C442 0.948 . S
H472 C448 0.982 . S
H473 C448 0.979 . S
H474 C448 0.977 . S
H475 C449 0.979 . S
H476 C449 0.980 . S
H477 C449 0.983 . S
H478 C422 0.947 . S
C479 C422 1.392 . S
C479 C423 1.419 . S
C479 H461 0.948 . S
Sc480 O483 2.025 . S
Sc480 O490 2.105 1_455 S
Sc480 O493 2.105 . S
Sc480 O496 2.105 . S
Sc480 O499 2.105 1_455 S
Sc481 O483 2.025 . S
Sc481 O491 2.105 1_455 S
Sc481 O495 2.105 . S
Sc481 O497 2.105 . S
Sc481 O501 2.105 1_455 S
Sc482 O483 2.025 . S
Sc482 O492 2.105 1_455 S
Sc482 O494 2.105 . S
Sc482 O498 2.105 . S
Sc482 O500 2.105 1_455 S
O483 Sc480 2.025 . S
O483 Sc481 2.025 . S
O483 Sc482 2.025 . S
C484 O490 1.268 . S
C484 O500 1.268 . S
C485 O491 1.268 . S
C485 O499 1.268 . S
C486 O492 1.268 . S
C486 O501 1.268 . S
C487 O493 1.268 . S
C487 O497 1.268 . S
C488 O494 1.268 . S
C488 O496 1.268 . S
C489 O495 1.268 . S
C489 O498 1.268 . S
O490 Sc480 2.105 1_655 S
O490 C484 1.268 . S
O491 Sc481 2.105 1_655 S
O491 C485 1.268 . S
O492 Sc482 2.105 1_655 S
O492 C486 1.268 . S
O493 Sc480 2.105 . S
O493 C487 1.268 . S
O494 Sc482 2.105 . S
O494 C488 1.268 . S
O495 Sc481 2.105 . S
O495 C489 1.268 . S
O496 Sc480 2.105 . S
O496 C488 1.268 . S
O497 Sc481 2.105 . S
O497 C487 1.268 . S
O498 Sc482 2.105 . S
O498 C489 1.268 . S
O499 Sc480 2.105 1_655 S
O499 C485 1.268 . S
O500 Sc482 2.105 1_655 S
O500 C484 1.268 . S
O501 Sc481 2.105 1_655 S
O501 C486 1.268 . S
Sc502 O505 2.025 . S
Sc502 O512 2.105 . S
Sc502 O515 2.105 1_455 S
Sc502 O518 2.105 1_455 S
Sc502 O521 2.105 . S
Sc503 O505 2.025 . S
Sc503 O513 2.105 . S
Sc503 O517 2.105 1_455 S
Sc503 O519 2.105 1_455 S
Sc503 O523 2.105 . S
Sc504 O505 2.025 . S
Sc504 O514 2.105 . S
Sc504 O516 2.105 1_455 S
Sc504 O520 2.105 1_455 S
Sc504 O522 2.105 . S
O505 Sc502 2.025 . S
O505 Sc503 2.025 . S
O505 Sc504 2.025 . S
C506 O512 1.268 . S
C506 O522 1.268 . S
C507 O513 1.268 . S
C507 O521 1.268 . S
C508 O514 1.268 . S
C508 O523 1.268 . S
C509 O515 1.268 . S
C509 O519 1.268 . S
C510 O516 1.268 . S
C510 O518 1.268 . S
C511 O517 1.268 . S
C511 O520 1.268 . S
O512 Sc502 2.105 . S
O512 C506 1.268 . S
O513 Sc503 2.105 . S
O513 C507 1.268 . S
O514 Sc504 2.105 . S
O514 C508 1.268 . S
O515 Sc502 2.105 1_655 S
O515 C509 1.268 . S
O516 Sc504 2.105 1_655 S
O516 C510 1.268 . S
O517 Sc503 2.105 1_655 S
O517 C511 1.268 . S
O518 Sc502 2.105 1_655 S
O518 C510 1.268 . S
O519 Sc503 2.105 1_655 S
O519 C509 1.268 . S
O520 Sc504 2.105 1_655 S
O520 C511 1.268 . S
O521 Sc502 2.105 . S
O521 C507 1.268 . S
O522 Sc504 2.105 . S
O522 C506 1.268 . S
O523 Sc503 2.105 . S
O523 C508 1.268 . S
Sc524 O527 2.025 . S
Sc524 O534 2.105 . S
Sc524 O537 2.105 . S
Sc524 O540 2.105 . S
Sc524 O543 2.105 . S
Sc525 O527 2.025 . S
Sc525 O535 2.105 . S
Sc525 O539 2.105 . S
Sc525 O541 2.105 . S
Sc525 O545 2.105 . S
Sc526 O527 2.025 . S
Sc526 O536 2.105 . S
Sc526 O538 2.105 . S
Sc526 O542 2.105 . S
Sc526 O544 2.105 . S
O527 Sc524 2.025 . S
O527 Sc525 2.025 . S
O527 Sc526 2.025 . S
C528 O534 1.268 . S
C528 O544 1.268 . S
C529 O535 1.268 . S
C529 O543 1.268 . S
C530 O536 1.268 . S
C530 O545 1.268 . S
C531 O537 1.268 . S
C531 O541 1.268 . S
C532 O538 1.268 . S
C532 O540 1.268 . S
C533 O539 1.268 . S
C533 O542 1.268 . S
O534 Sc524 2.105 . S
O534 C528 1.268 . S
O535 Sc525 2.105 . S
O535 C529 1.268 . S
O536 Sc526 2.105 . S
O536 C530 1.268 . S
O537 Sc524 2.105 . S
O537 C531 1.268 . S
O538 Sc526 2.105 . S
O538 C532 1.268 . S
O539 Sc525 2.105 . S
O539 C533 1.268 . S
O540 Sc524 2.105 . S
O540 C532 1.268 . S
O541 Sc525 2.105 . S
O541 C531 1.268 . S
O542 Sc526 2.105 . S
O542 C533 1.268 . S
O543 Sc524 2.105 . S
O543 C529 1.268 . S
O544 Sc526 2.105 . S
O544 C528 1.268 . S
O545 Sc525 2.105 . S
O545 C530 1.268 . S
Sc546 O549 2.025 . S
Sc546 O556 2.105 . S
Sc546 O559 2.105 . S
Sc546 O562 2.105 . S
Sc546 O565 2.105 . S
Sc547 O549 2.025 . S
Sc547 O557 2.105 . S
Sc547 O561 2.105 . S
Sc547 O563 2.105 . S
Sc547 O567 2.105 . S
Sc548 O549 2.025 . S
Sc548 O558 2.105 . S
Sc548 O560 2.105 . S
Sc548 O564 2.105 . S
Sc548 O566 2.105 . S
O549 Sc546 2.025 . S
O549 Sc547 2.025 . S
O549 Sc548 2.025 . S
C550 O556 1.268 . S
C550 O566 1.268 . S
C551 O557 1.268 . S
C551 O565 1.268 . S
C552 O558 1.268 . S
C552 O567 1.268 . S
C553 O559 1.268 . S
C553 O563 1.268 . S
C554 O560 1.268 . S
C554 O562 1.268 . S
C555 O561 1.268 . S
C555 O564 1.268 . S
O556 Sc546 2.105 . S
O556 C550 1.268 . S
O557 Sc547 2.105 . S
O557 C551 1.268 . S
O558 Sc548 2.105 . S
O558 C552 1.268 . S
O559 Sc546 2.105 . S
O559 C553 1.268 . S
O560 Sc548 2.105 . S
O560 C554 1.268 . S
O561 Sc547 2.105 . S
O561 C555 1.268 . S
O562 Sc546 2.105 . S
O562 C554 1.268 . S
O563 Sc547 2.105 . S
O563 C553 1.268 . S
O564 Sc548 2.105 . S
O564 C555 1.268 . S
O565 Sc546 2.105 . S
O565 C551 1.268 . S
O566 Sc548 2.105 . S
O566 C550 1.268 . S
O567 Sc547 2.105 . S
O567 C552 1.268 . S
C568 C569 1.387 . S
C568 H572 0.950 . S
C568 C577 1.390 . S
C569 C568 1.387 . S
C569 C571 1.387 . S
H570 C577 0.950 . S
C571 C569 1.387 . S
C571 C573 1.390 . S
C571 H575 0.950 . S
H572 C568 0.950 . S
C573 C571 1.390 . S
C573 C574 1.387 . S
C573 H576 0.950 . S
C574 C573 1.387 . S
C574 C577 1.387 . S
H575 C571 0.950 . S
H576 C573 0.950 . S
C577 C568 1.390 . S
C577 H570 0.950 . S
C577 C574 1.387 . S
C578 C579 1.387 . S
C578 H582 0.950 . S
C578 C587 1.390 . S
C579 C578 1.387 . S
C579 C581 1.387 . S
H580 C587 0.950 . S
C581 C579 1.387 . S
C581 C583 1.390 . S
C581 H585 0.950 . S
H582 C578 0.950 . S
C583 C581 1.390 . S
C583 C584 1.387 . S
C583 H586 0.950 . S
C584 C583 1.387 . S
C584 C587 1.387 . S
H585 C581 0.950 . S
H586 C583 0.950 . S
C587 C578 1.390 . S
C587 H580 0.950 . S
C587 C584 1.387 . S
C588 C589 1.387 . S
C588 H592 0.950 . S
C588 C597 1.390 . S
C589 C588 1.387 . S
C589 C591 1.387 . S
H590 C597 0.950 . S
C591 C589 1.387 . S
C591 C593 1.390 . S
C591 H595 0.950 . S
H592 C588 0.950 . S
C593 C591 1.390 . S
C593 C594 1.387 . S
C593 H596 0.950 . S
C594 C593 1.387 . S
C594 C597 1.387 . S
H595 C591 0.950 . S
H596 C593 0.950 . S
C597 C588 1.390 . S
C597 H590 0.950 . S
C597 C594 1.387 . S
C598 C599 1.387 . S
C598 H602 0.950 . S
C598 C607 1.390 . S
C599 C598 1.387 . S
C599 C601 1.387 . S
H600 C607 0.950 . S
C601 C599 1.387 . S
C601 C603 1.390 . S
C601 H605 0.950 . S
H602 C598 0.950 . S
C603 C601 1.390 . S
C603 C604 1.387 . S
C603 H606 0.950 . S
C604 C603 1.387 . S
C604 C607 1.387 . S
H605 C601 0.950 . S
H606 C603 0.950 . S
C607 C598 1.390 . S
C607 H600 0.950 . S
C607 C604 1.387 . S
C608 C609 1.387 . S
C608 H612 0.950 . S
C608 C617 1.390 . S
C609 C608 1.387 . S
C609 C611 1.387 . S
H610 C617 0.950 . S
C611 C609 1.387 . S
C611 C613 1.390 . S
C611 H615 0.950 . S
H612 C608 0.950 . S
C613 C611 1.390 . S
C613 C614 1.387 . S
C613 H616 0.950 . S
C614 C613 1.387 . S
C614 C617 1.387 . S
H615 C611 0.950 . S
H616 C613 0.950 . S
C617 C608 1.390 . S
C617 H610 0.950 . S
C617 C614 1.387 . S
C618 C619 1.387 . S
C618 H622 0.950 . S
C618 C627 1.390 . S
C619 C618 1.387 . S
C619 C621 1.387 . S
H620 C627 0.950 . S
C621 C619 1.387 . S
C621 C623 1.390 . S
C621 H625 0.950 . S
H622 C618 0.950 . S
C623 C621 1.390 . S
C623 C624 1.387 . S
C623 H626 0.950 . S
C624 C623 1.387 . S
C624 C627 1.387 . S
H625 C621 0.950 . S
H626 C623 0.950 . S
C627 C618 1.390 . S
C627 H620 0.950 . S
C627 C624 1.387 . S
C628 C629 1.387 . S
C628 H632 0.950 . S
C628 C637 1.390 . S
C629 C628 1.387 . S
C629 C631 1.387 . S
H630 C637 0.950 . S
C631 C629 1.387 . S
C631 C633 1.390 . S
C631 H635 0.950 . S
H632 C628 0.950 . S
C633 C631 1.390 . S
C633 C634 1.387 . S
C633 H636 0.950 . S
C634 C633 1.387 . S
C634 C637 1.387 . S
H635 C631 0.950 . S
H636 C633 0.950 . S
C637 C628 1.390 . S
C637 H630 0.950 . S
C637 C634 1.387 . S
C638 C639 1.387 . S
C638 H642 0.950 . S
C638 C647 1.390 . S
C639 C638 1.387 . S
C639 C641 1.387 . S
H640 C647 0.950 . S
C641 C639 1.387 . S
C641 C643 1.390 . S
C641 H645 0.950 . S
H642 C638 0.950 . S
C643 C641 1.390 . S
C643 C644 1.387 . S
C643 H646 0.950 . S
C644 C643 1.387 . S
C644 C647 1.387 . S
H645 C641 0.950 . S
H646 C643 0.950 . S
C647 C638 1.390 . S
C647 H640 0.950 . S
C647 C644 1.387 . S
C648 C649 1.387 . S
C648 H652 0.950 . S
C648 C657 1.390 . S
C649 C648 1.387 . S
C649 C651 1.387 . S
H650 C657 0.950 . S
C651 C649 1.387 . S
C651 C653 1.390 . S
C651 H655 0.950 . S
H652 C648 0.950 . S
C653 C651 1.390 . S
C653 C654 1.387 . S
C653 H656 0.950 . S
C654 C653 1.387 . S
C654 C657 1.387 . S
H655 C651 0.950 . S
H656 C653 0.950 . S
C657 C648 1.390 . S
C657 H650 0.950 . S
C657 C654 1.387 . S
C658 C659 1.387 . S
C658 H662 0.950 . S
C658 C667 1.390 . S
C659 C658 1.387 . S
C659 C661 1.387 . S
H660 C667 0.950 . S
C661 C659 1.387 . S
C661 C663 1.390 . S
C661 H665 0.950 . S
H662 C658 0.950 . S
C663 C661 1.390 . S
C663 C664 1.387 . S
C663 H666 0.950 . S
C664 C663 1.387 . S
C664 C667 1.387 . S
H665 C661 0.950 . S
H666 C663 0.950 . S
C667 C658 1.390 . S
C667 H660 0.950 . S
C667 C664 1.387 . S
C668 C669 1.387 . S
C668 H672 0.950 . S
C668 C677 1.390 . S
C669 C668 1.387 . S
C669 C671 1.387 . S
H670 C677 0.950 . S
C671 C669 1.387 . S
C671 C673 1.390 . S
C671 H675 0.950 . S
H672 C668 0.950 . S
C673 C671 1.390 . S
C673 C674 1.387 . S
C673 H676 0.950 . S
C674 C673 1.387 . S
C674 C677 1.387 . S
H675 C671 0.950 . S
H676 C673 0.950 . S
C677 C668 1.390 . S
C677 H670 0.950 . S
C677 C674 1.387 . S
C678 C679 1.387 . S
C678 H682 0.950 . S
C678 C687 1.390 . S
C679 C678 1.387 . S
C679 C681 1.387 . S
H680 C687 0.950 . S
C681 C679 1.387 . S
C681 C683 1.390 . S
C681 H685 0.950 . S
H682 C678 0.950 . S
C683 C681 1.390 . S
C683 C684 1.387 . S
C683 H686 0.950 . S
C684 C683 1.387 . S
C684 C687 1.387 . S
H685 C681 0.950 . S
H686 C683 0.950 . S
C687 C678 1.390 . S
C687 H680 0.950 . S
C687 C684 1.387 . S
C688 C689 1.387 . S
C688 H692 0.950 . S
C688 C697 1.390 . S
C689 C688 1.387 . S
C689 C691 1.387 . S
H690 C697 0.950 . S
C691 C689 1.387 . S
C691 C693 1.390 . S
C691 H695 0.950 . S
H692 C688 0.950 . S
C693 C691 1.390 . S
C693 C694 1.387 . S
C693 H696 0.950 . S
C694 C693 1.387 . S
C694 C697 1.387 . S
H695 C691 0.950 . S
H696 C693 0.950 . S
C697 C688 1.390 . S
C697 H690 0.950 . S
C697 C694 1.387 . S
C698 C699 1.387 . S
C698 H702 0.950 . S
C698 C707 1.390 . S
C699 C698 1.387 . S
C699 C701 1.387 . S
H700 C707 0.950 . S
C701 C699 1.387 . S
C701 C703 1.390 . S
C701 H705 0.950 . S
H702 C698 0.950 . S
C703 C701 1.390 . S
C703 C704 1.387 . S
C703 H706 0.950 . S
C704 C703 1.387 . S
C704 C707 1.387 . S
H705 C701 0.950 . S
H706 C703 0.950 . S
C707 C698 1.390 . S
C707 H700 0.950 . S
C707 C704 1.387 . S
C708 C709 1.387 . S
C708 H712 0.950 . S
C708 C717 1.390 . S
C709 C708 1.387 . S
C709 C711 1.387 . S
H710 C717 0.950 . S
C711 C709 1.387 . S
C711 C713 1.390 . S
C711 H715 0.950 . S
H712 C708 0.950 . S
C713 C711 1.390 . S
C713 C714 1.387 . S
C713 H716 0.950 . S
C714 C713 1.387 . S
C714 C717 1.387 . S
H715 C711 0.950 . S
H716 C713 0.950 . S
C717 C708 1.390 . S
C717 H710 0.950 . S
C717 C714 1.387 . S
C718 C719 1.387 . S
C718 H722 0.950 . S
C718 C727 1.390 . S
C719 C718 1.387 . S
C719 C721 1.387 . S
H720 C727 0.950 . S
C721 C719 1.387 . S
C721 C723 1.390 . S
C721 H725 0.950 . S
H722 C718 0.950 . S
C723 C721 1.390 . S
C723 C724 1.387 . S
C723 H726 0.950 . S
C724 C723 1.387 . S
C724 C727 1.387 . S
H725 C721 0.950 . S
H726 C723 0.950 . S
C727 C718 1.390 . S
C727 H720 0.950 . S
C727 C724 1.387 . S
C728 C729 1.387 . S
C728 H732 0.950 . S
C728 C737 1.390 . S
C729 C728 1.387 . S
C729 C731 1.387 . S
H730 C737 0.950 . S
C731 C729 1.387 . S
C731 C733 1.390 . S
C731 H735 0.950 . S
H732 C728 0.950 . S
C733 C731 1.390 . S
C733 C734 1.387 . S
C733 H736 0.950 . S
C734 C733 1.387 . S
C734 C737 1.387 . S
H735 C731 0.950 . S
H736 C733 0.950 . S
C737 C728 1.390 . S
C737 H730 0.950 . S
C737 C734 1.387 . S
C738 C739 1.387 . S
C738 H742 0.950 . S
C738 C747 1.390 . S
C739 C738 1.387 . S
C739 C741 1.387 . S
H740 C747 0.950 . S
C741 C739 1.387 . S
C741 C743 1.390 . S
C741 H745 0.950 . S
H742 C738 0.950 . S
C743 C741 1.390 . S
C743 C744 1.387 . S
C743 H746 0.950 . S
C744 C743 1.387 . S
C744 C747 1.387 . S
H745 C741 0.950 . S
H746 C743 0.950 . S
C747 C738 1.390 . S
C747 H740 0.950 . S
C747 C744 1.387 . S
C748 C749 1.387 . S
C748 H752 0.950 . S
C748 C757 1.390 . S
C749 C748 1.387 . S
C749 C751 1.387 . S
H750 C757 0.950 . S
C751 C749 1.387 . S
C751 C753 1.390 . S
C751 H755 0.950 . S
H752 C748 0.950 . S
C753 C751 1.390 . S
C753 C754 1.387 . S
C753 H756 0.950 . S
C754 C753 1.387 . S
C754 C757 1.387 . S
H755 C751 0.950 . S
H756 C753 0.950 . S
C757 C748 1.390 . S
C757 H750 0.950 . S
C757 C754 1.387 . S
C758 C759 1.387 . S
C758 H762 0.950 . S
C758 C767 1.390 . S
C759 C758 1.387 . S
C759 C761 1.387 . S
H760 C767 0.950 . S
C761 C759 1.387 . S
C761 C763 1.390 . S
C761 H765 0.950 . S
H762 C758 0.950 . S
C763 C761 1.390 . S
C763 C764 1.387 . S
C763 H766 0.950 . S
C764 C763 1.387 . S
C764 C767 1.387 . S
H765 C761 0.950 . S
H766 C763 0.950 . S
C767 C758 1.390 . S
C767 H760 0.950 . S
C767 C764 1.387 . S
C768 C769 1.387 . S
C768 H772 0.950 . S
C768 C777 1.390 . S
C769 C768 1.387 . S
C769 C771 1.387 . S
H770 C777 0.950 . S
C771 C769 1.387 . S
C771 C773 1.390 . S
C771 H775 0.950 . S
H772 C768 0.950 . S
C773 C771 1.390 . S
C773 C774 1.387 . S
C773 H776 0.950 . S
C774 C773 1.387 . S
C774 C777 1.387 . S
H775 C771 0.950 . S
H776 C773 0.950 . S
C777 C768 1.390 . S
C777 H770 0.950 . S
C777 C774 1.387 . S
C778 C779 1.387 . S
C778 H782 0.950 . S
C778 C787 1.390 . S
C779 C778 1.387 . S
C779 C781 1.387 . S
H780 C787 0.950 . S
C781 C779 1.387 . S
C781 C783 1.390 . S
C781 H785 0.950 . S
H782 C778 0.950 . S
C783 C781 1.390 . S
C783 C784 1.387 . S
C783 H786 0.950 . S
C784 C783 1.387 . S
C784 C787 1.387 . S
H785 C781 0.950 . S
H786 C783 0.950 . S
C787 C778 1.390 . S
C787 H780 0.950 . S
C787 C784 1.387 . S
C788 C789 1.387 . S
C788 H792 0.950 . S
C788 C797 1.390 . S
C789 C788 1.387 . S
C789 C791 1.387 . S
H790 C797 0.950 . S
C791 C789 1.387 . S
C791 C793 1.390 . S
C791 H795 0.950 . S
H792 C788 0.950 . S
C793 C791 1.390 . S
C793 C794 1.387 . S
C793 H796 0.950 . S
C794 C793 1.387 . S
C794 C797 1.387 . S
H795 C791 0.950 . S
H796 C793 0.950 . S
C797 C788 1.390 . S
C797 H790 0.950 . S
C797 C794 1.387 . S
C798 C799 1.387 . S
C798 H802 0.950 . S
C798 C807 1.390 . S
C799 C798 1.387 . S
C799 C801 1.387 . S
H800 C807 0.950 . S
C801 C799 1.387 . S
C801 C803 1.390 . S
C801 H805 0.950 . S
H802 C798 0.950 . S
C803 C801 1.390 . S
C803 C804 1.387 . S
C803 H806 0.950 . S
C804 C803 1.387 . S
C804 C807 1.387 . S
H805 C801 0.950 . S
H806 C803 0.950 . S
C807 C798 1.390 . S
C807 H800 0.950 . S
C807 C804 1.387 . S
C569 C31 1.536 . S
C574 C506 1.534 . S
C584 C484 1.534 . S
C579 C61 1.537 . S
C594 C510 1.537 . S
C589 C151 1.508 . S
C604 C488 1.533 . S
C599 C181 1.592 . S
C614 C550 1.535 . S
C609 C271 1.538 . S
C624 C528 1.533 . S
C619 C301 1.536 . S
C629 C391 1.506 . S
C634 C554 1.536 . S
C644 C532 1.537 . S
C639 C421 1.593 . S
C649 C20 1.580 . S
C654 C555 1.627 . S
C664 C533 1.627 . S
C659 C91 1.581 . S
C669 C121 1.484 . S
C674 C552 1.627 . S
C679 C211 1.626 . S
C684 C530 1.628 . S
C694 C511 1.628 . S
C689 C260 1.580 . S
C699 C331 1.581 . S
C704 C489 1.625 . S
C714 C508 1.627 . S
C709 C361 1.483 . S
C724 C486 1.628 . S
C719 C451 1.627 . S
C734 C529 1.614 . S
C729 C1 1.479 . S
C744 C551 1.614 . S
C739 C80 1.474 . S
C749 C140 1.553 . S
C754 C531 1.614 . S
C764 C553 1.615 . S
C759 C200 1.538 . S
C774 C485 1.614 . S
C769 C241 1.475 . S
C779 C320 1.474 . S
C784 C507 1.613 . S
C789 C380 1.555 . S
C794 C487 1.613 . S
C799 C440 1.541 . S
C804 C509 1.615 . S
