# Generated by pormake.
# Topology cml, (3,6)-cn, num edge types: 1
# Building blocks:
#     Node 0, Type 0, BuildingBlock: VETTIZ_charged_linker_0, # of connection points: 3
#     Node 1, Type 0, BuildingBlock: VETTIZ_charged_linker_0, # of connection points: 3
#     Node 2, Type 0, BuildingBlock: VETTIZ_charged_linker_0, # of connection points: 3
#     Node 3, Type 0, BuildingBlock: VETTIZ_charged_linker_0, # of connection points: 3
#     Node 4, Type 0, BuildingBlock: VETTIZ_charged_linker_0, # of connection points: 3
#     Node 5, Type 0, BuildingBlock: VETTIZ_charged_linker_0, # of connection points: 3
#     Node 6, Type 0, BuildingBlock: VETTIZ_charged_linker_0, # of connection points: 3
#     Node 7, Type 0, BuildingBlock: VETTIZ_charged_linker_0, # of connection points: 3
#     Node 8, Type 1, BuildingBlock: IZENUY_clean_sbu_0, # of connection points: 6
#     Node 9, Type 1, BuildingBlock: IZENUY_clean_sbu_0, # of connection points: 6
#     Node 10, Type 1, BuildingBlock: IZENUY_clean_sbu_0, # of connection points: 6
#     Node 11, Type 1, BuildingBlock: IZENUY_clean_sbu_0, # of connection points: 6
#     Edge 12, Type (0, 1), BuildingBlock: MIFKUJ_clean_linker_0, # of connection points: 2
#     Edge 13, Type (0, 1), BuildingBlock: MIFKUJ_clean_linker_0, # of connection points: 2
#     Edge 14, Type (0, 1), BuildingBlock: MIFKUJ_clean_linker_0, # of connection points: 2
#     Edge 15, Type (0, 1), BuildingBlock: MIFKUJ_clean_linker_0, # of connection points: 2
#     Edge 16, Type (0, 1), BuildingBlock: MIFKUJ_clean_linker_0, # of connection points: 2
#     Edge 17, Type (0, 1), BuildingBlock: MIFKUJ_clean_linker_0, # of connection points: 2
#     Edge 18, Type (0, 1), BuildingBlock: MIFKUJ_clean_linker_0, # of connection points: 2
#     Edge 19, Type (0, 1), BuildingBlock: MIFKUJ_clean_linker_0, # of connection points: 2
#     Edge 20, Type (0, 1), BuildingBlock: MIFKUJ_clean_linker_0, # of connection points: 2
#     Edge 21, Type (0, 1), BuildingBlock: MIFKUJ_clean_linker_0, # of connection points: 2
#     Edge 22, Type (0, 1), BuildingBlock: MIFKUJ_clean_linker_0, # of connection points: 2
#     Edge 23, Type (0, 1), BuildingBlock: MIFKUJ_clean_linker_0, # of connection points: 2
#     Edge 24, Type (0, 1), BuildingBlock: MIFKUJ_clean_linker_0, # of connection points: 2
#     Edge 25, Type (0, 1), BuildingBlock: MIFKUJ_clean_linker_0, # of connection points: 2
#     Edge 26, Type (0, 1), BuildingBlock: MIFKUJ_clean_linker_0, # of connection points: 2
#     Edge 27, Type (0, 1), BuildingBlock: MIFKUJ_clean_linker_0, # of connection points: 2
#     Edge 28, Type (0, 1), BuildingBlock: MIFKUJ_clean_linker_0, # of connection points: 2
#     Edge 29, Type (0, 1), BuildingBlock: MIFKUJ_clean_linker_0, # of connection points: 2
#     Edge 30, Type (0, 1), BuildingBlock: MIFKUJ_clean_linker_0, # of connection points: 2
#     Edge 31, Type (0, 1), BuildingBlock: MIFKUJ_clean_linker_0, # of connection points: 2
#     Edge 32, Type (0, 1), BuildingBlock: MIFKUJ_clean_linker_0, # of connection points: 2
#     Edge 33, Type (0, 1), BuildingBlock: MIFKUJ_clean_linker_0, # of connection points: 2
#     Edge 34, Type (0, 1), BuildingBlock: MIFKUJ_clean_linker_0, # of connection points: 2
#     Edge 35, Type (0, 1), BuildingBlock: MIFKUJ_clean_linker_0, # of connection points: 2
# Relax obj value: 0.059
# Max RMSD: 0.074
# Mean RMSD: 0.071
data_MOF--net-cml--node1-IZENUY_clean_sbu_0--node2-VETTIZ_charged_linker_0--edge1-MIFKUJ_clean_linker_0
_symmetry_space_group_name_H-M    P1
_symmetry_Int_Tables_number       1
_symmetry_cell_setting            triclinic
loop_
_symmetry_equiv_pos_as_xyz
'x, y, z'
_cell_length_a     53.419307
_cell_length_b     62.287596
_cell_length_c     57.924849
_cell_angle_alpha  90.020311
_cell_angle_beta   89.992415
_cell_angle_gamma 90.152284
loop_
_atom_site_label
_atom_site_type_symbol
_atom_site_fract_x
_atom_site_fract_y
_atom_site_fract_z
_atom_type_partial_charge
C0 C 0.31154 0.36825 0.08136 0.0
C1 C 0.32819 0.38186 0.09339 0.0
C2 C 0.33362 0.40227 0.08403 0.0
C3 C 0.30828 0.39443 0.05043 0.0
C4 C 0.30173 0.37492 0.06006 0.0
C5 C 0.28363 0.36266 0.04501 0.0
H6 H 0.22095 0.35452 0.94356 0.0
C7 C 0.29625 0.39604 0.02756 0.0
C8 C 0.28152 0.3776 0.02432 0.0
H9 H 0.21645 0.3124 0.00283 0.0
H10 H 0.2462 0.33457 0.02318 0.0
H11 H 0.21947 0.39932 0.97328 0.0
H12 H 0.27943 0.36141 0.94498 0.0
H13 H 0.2882 0.38843 0.94198 0.0
H14 H 0.26069 0.37862 0.9272 0.0
H15 H 0.22475 0.39631 0.94282 0.0
H16 H 0.24077 0.41663 0.95932 0.0
C17 C 0.25847 0.36049 0.05818 0.0
C18 C 0.29579 0.34099 0.03841 0.0
C19 C 0.31921 0.45804 0.97484 0.0
C20 C 0.31422 0.46262 0.95149 0.0
C21 C 0.29775 0.44897 0.93926 0.0
C22 C 0.28695 0.43095 0.94995 0.0
C23 C 0.29278 0.42633 0.97309 0.0
C24 C 0.30869 0.43981 0.98508 0.0
C25 C 0.31401 0.4319 0.00908 0.0
C26 C 0.29859 0.41142 0.0096 0.0
C27 C 0.28603 0.4083 0.98858 0.0
C28 C 0.30415 0.44878 0.02651 0.0
C29 C 0.3425 0.42737 0.0108 0.0
C30 C 0.22611 0.35017 0.96102 0.0
C31 C 0.21625 0.33159 0.97151 0.0
C32 C 0.22395 0.3264 0.99415 0.0
C33 C 0.24109 0.33941 0.00606 0.0
C34 C 0.25068 0.3579 0.99533 0.0
C35 C 0.24308 0.36307 0.97322 0.0
C36 C 0.25505 0.38346 0.96464 0.0
C37 C 0.27058 0.38994 0.98546 0.0
C38 C 0.26817 0.37478 0.0033 0.0
C39 C 0.23404 0.39987 0.95956 0.0
C40 C 0.27161 0.37789 0.9435 0.0
H41 H 0.32903 0.42417 0.05648 0.0
H42 H 0.3067 0.35255 0.08804 0.0
H43 H 0.31572 0.34339 0.03344 0.0
H44 H 0.28681 0.33325 0.02341 0.0
H45 H 0.29529 0.32961 0.05317 0.0
H46 H 0.25581 0.3739 0.07063 0.0
H47 H 0.25762 0.34526 0.06812 0.0
H48 H 0.24205 0.36143 0.04659 0.0
H49 H 0.33135 0.46828 0.98501 0.0
H50 H 0.29372 0.45184 0.92121 0.0
H51 H 0.27479 0.4211 0.93965 0.0
H52 H 0.28752 0.45733 0.01954 0.0
H53 H 0.31866 0.46105 0.03045 0.0
H54 H 0.29754 0.44148 0.04282 0.0
H55 H 0.34968 0.42041 0.99439 0.0
H56 H 0.34732 0.41544 0.02411 0.0
H57 H 0.35316 0.44237 0.0142 0.0
H58 H 0.34555 0.41348 0.09318 0.0
C59 C 0.32385 0.40857 0.0627 0.0
C60 C 0.78237 0.65105 0.46085 0.0
C61 C 0.79143 0.66991 0.47141 0.0
C62 C 0.78285 0.67513 0.49377 0.0
C63 C 0.75647 0.6434 0.49433 0.0
C64 C 0.76514 0.63806 0.47261 0.0
C65 C 0.754 0.61737 0.46391 0.0
H66 H 0.67267 0.53517 0.47938 0.0
C67 C 0.73855 0.6266 0.50168 0.0
C68 C 0.73722 0.61119 0.48399 0.0
H69 H 0.72156 0.54644 0.42105 0.0
H70 H 0.73838 0.57794 0.43978 0.0
H71 H 0.71325 0.54384 0.51739 0.0
H72 H 0.65701 0.58437 0.48739 0.0
H73 H 0.65634 0.58827 0.51745 0.0
H74 H 0.6501 0.56199 0.50589 0.0
H75 H 0.68129 0.54284 0.52681 0.0
H76 H 0.70365 0.56115 0.53958 0.0
C77 C 0.7755 0.60105 0.46035 0.0
C78 C 0.73876 0.62239 0.44182 0.0
C79 C 0.6911 0.63424 0.57758 0.0
C80 C 0.6734 0.62107 0.58885 0.0
C81 C 0.66713 0.60111 0.57881 0.0
C82 C 0.67745 0.59474 0.55771 0.0
C83 C 0.69447 0.60832 0.54638 0.0
C84 C 0.70146 0.62749 0.55652 0.0
C85 C 0.72073 0.63931 0.54237 0.0
C86 C 0.72358 0.62428 0.52183 0.0
C87 C 0.70793 0.6063 0.52423 0.0
C88 C 0.74516 0.64096 0.55672 0.0
C89 C 0.70954 0.66122 0.53522 0.0
C90 C 0.68728 0.54417 0.47072 0.0
C91 C 0.69568 0.53823 0.44861 0.0
C92 C 0.71443 0.55077 0.43791 0.0
C93 C 0.72428 0.56903 0.44888 0.0
C94 C 0.71533 0.57491 0.47082 0.0
C95 C 0.69734 0.56238 0.48144 0.0
C96 C 0.69011 0.57087 0.50479 0.0
C97 C 0.70653 0.59073 0.50636 0.0
C98 C 0.72117 0.5931 0.48639 0.0
C99 C 0.69721 0.55385 0.5232 0.0
C100 C 0.6619 0.57661 0.50409 0.0
H101 H 0.75965 0.66695 0.52215 0.0
H102 H 0.78827 0.64657 0.44363 0.0
H103 H 0.72866 0.6379 0.44363 0.0
H104 H 0.72404 0.6104 0.43822 0.0
H105 H 0.75121 0.62368 0.42651 0.0
H106 H 0.7905 0.60339 0.47345 0.0
H107 H 0.78416 0.60289 0.44303 0.0
H108 H 0.76938 0.58422 0.46262 0.0
H109 H 0.69649 0.64964 0.5847 0.0
H110 H 0.65424 0.59025 0.58733 0.0
H111 H 0.67165 0.57948 0.55099 0.0
H112 H 0.74707 0.62711 0.56872 0.0
H113 H 0.74549 0.65584 0.56728 0.0
H114 H 0.76218 0.64036 0.54588 0.0
H115 H 0.68968 0.6593 0.52978 0.0
H116 H 0.71916 0.66856 0.52033 0.0
H117 H 0.70999 0.67275 0.54986 0.0
H118 H 0.7898 0.68927 0.50259 0.0
C119 C 0.76544 0.66204 0.50523 0.0
C120 C 0.69613 0.44972 0.96253 0.0
C121 C 0.6749 0.46131 0.96952 0.0
C122 C 0.66185 0.45494 0.98949 0.0
C123 C 0.69079 0.42555 0.9951 0.0
C124 C 0.70355 0.43176 0.97542 0.0
C125 C 0.72457 0.41658 0.96967 0.0
H126 H 0.78544 0.32352 0.99218 0.0
C127 C 0.70279 0.40597 0.00421 0.0
C128 C 0.72251 0.40051 0.98934 0.0
H129 H 0.79863 0.36797 0.93621 0.0
H130 H 0.7672 0.39191 0.95156 0.0
H131 H 0.78339 0.3593 0.03082 0.0
H132 H 0.72423 0.32726 0.99373 0.0
H133 H 0.71725 0.32711 0.02352 0.0
H134 H 0.74506 0.31396 0.01341 0.0
H135 H 0.77274 0.33304 0.03895 0.0
H136 H 0.75809 0.35706 0.05001 0.0
C137 C 0.74951 0.42928 0.97055 0.0
C138 C 0.71875 0.40621 0.94594 0.0
C139 C 0.66931 0.37209 0.07765 0.0
C140 C 0.67682 0.35438 0.09094 0.0
C141 C 0.69759 0.34221 0.08372 0.0
C142 C 0.71043 0.34741 0.0633 0.0
C143 C 0.70254 0.36511 0.05009 0.0
C144 C 0.68248 0.37724 0.05754 0.0
C145 C 0.67725 0.39595 0.04193 0.0
C146 C 0.69752 0.39313 0.02386 0.0
C147 C 0.71207 0.3749 0.02851 0.0
C148 C 0.68093 0.41686 0.05608 0.0
C149 C 0.65065 0.39299 0.03163 0.0
C150 C 0.78136 0.33835 0.98319 0.0
C151 C 0.79419 0.34378 0.96282 0.0
C152 C 0.78892 0.36347 0.95191 0.0
C153 C 0.77057 0.37727 0.96078 0.0
C154 C 0.75742 0.37138 0.98083 0.0
C155 C 0.76326 0.3524 0.99195 0.0
C156 C 0.74822 0.34925 0.01366 0.0
C157 C 0.7316 0.36898 0.01316 0.0
C158 C 0.73695 0.38182 0.99381 0.0
C159 C 0.7664 0.34951 0.03453 0.0
C160 C 0.7329 0.32825 0.01117 0.0
H161 H 0.65899 0.43322 0.0174 0.0
H162 H 0.70621 0.45416 0.94701 0.0
H163 H 0.69833 0.40311 0.94403 0.0
H164 H 0.72759 0.39037 0.94362 0.0
H165 H 0.72459 0.4169 0.93155 0.0
H166 H 0.74918 0.4414 0.98466 0.0
H167 H 0.75293 0.43794 0.95408 0.0
H168 H 0.76579 0.419 0.97442 0.0
H169 H 0.65368 0.38197 0.083 0.0
H170 H 0.70367 0.32849 0.09372 0.0
H171 H 0.72593 0.33743 0.05854 0.0
H172 H 0.69685 0.41522 0.06834 0.0
H173 H 0.66395 0.42066 0.06635 0.0
H174 H 0.68579 0.43086 0.04529 0.0
H175 H 0.64587 0.37568 0.02967 0.0
H176 H 0.6489 0.39964 0.01402 0.0
H177 H 0.6362 0.40034 0.0429 0.0
H178 H 0.64546 0.46373 0.99509 0.0
C179 C 0.66976 0.43724 0.00238 0.0
C180 C 0.22924 0.65349 0.45954 0.0
C181 C 0.22237 0.67372 0.46818 0.0
C182 C 0.23236 0.68071 0.48941 0.0
C183 C 0.2552 0.64731 0.49332 0.0
C184 C 0.24578 0.64067 0.47225 0.0
C185 C 0.25587 0.61914 0.4651 0.0
H186 H 0.32982 0.53372 0.48873 0.0
C187 C 0.27152 0.6301 0.50229 0.0
C188 C 0.27206 0.61356 0.48578 0.0
H189 H 0.28896 0.54666 0.42589 0.0
H190 H 0.27227 0.5792 0.44266 0.0
H191 H 0.34937 0.58177 0.49596 0.0
H192 H 0.28672 0.54682 0.52362 0.0
H193 H 0.29643 0.56434 0.54562 0.0
H194 H 0.31762 0.5439 0.53528 0.0
H195 H 0.35236 0.55983 0.51586 0.0
H196 H 0.34801 0.58692 0.52578 0.0
C197 C 0.27161 0.62221 0.44282 0.0
C198 C 0.23359 0.6034 0.46245 0.0
C199 C 0.31392 0.63832 0.58063 0.0
C200 C 0.32909 0.62449 0.59383 0.0
C201 C 0.33381 0.60361 0.58537 0.0
C202 C 0.32454 0.59694 0.56395 0.0
C203 C 0.31017 0.61116 0.55069 0.0
C204 C 0.30455 0.63127 0.55929 0.0
C205 C 0.28785 0.6437 0.54319 0.0
C206 C 0.28495 0.62789 0.52334 0.0
C207 C 0.29834 0.60899 0.52777 0.0
C208 C 0.30192 0.66432 0.53567 0.0
C209 C 0.26271 0.64782 0.55575 0.0
C210 C 0.31696 0.54339 0.47871 0.0
C211 C 0.31064 0.53761 0.45599 0.0
C212 C 0.29424 0.55087 0.44337 0.0
C213 C 0.2846 0.56975 0.45314 0.0
C214 C 0.29163 0.57559 0.47569 0.0
C215 C 0.30745 0.56241 0.4881 0.0
C216 C 0.31365 0.57144 0.51148 0.0
C217 C 0.2993 0.59244 0.51092 0.0
C218 C 0.28632 0.59474 0.49 0.0
C219 C 0.34234 0.57513 0.51257 0.0
C220 C 0.3033 0.55586 0.53008 0.0
H221 H 0.25549 0.67376 0.51816 0.0
H222 H 0.22219 0.64791 0.44305 0.0
H223 H 0.22014 0.60539 0.47696 0.0
H224 H 0.2393 0.5864 0.46292 0.0
H225 H 0.2233 0.6064 0.4461 0.0
H226 H 0.27973 0.63866 0.44186 0.0
H227 H 0.26001 0.61978 0.42711 0.0
H228 H 0.288 0.61144 0.4421 0.0
H229 H 0.30979 0.65443 0.5865 0.0
H230 H 0.34467 0.59229 0.59537 0.0
H231 H 0.32908 0.58097 0.5585 0.0
H232 H 0.32225 0.6611 0.5334 0.0
H233 H 0.29999 0.6772 0.54881 0.0
H234 H 0.29562 0.6705 0.51879 0.0
H235 H 0.2575 0.6339 0.56682 0.0
H236 H 0.24678 0.64972 0.5438 0.0
H237 H 0.26395 0.66219 0.56706 0.0
H238 H 0.22725 0.69623 0.49638 0.0
C239 C 0.24863 0.66759 0.50206 0.0
C240 C 0.81618 0.86319 0.07949 0.0
C241 C 0.83296 0.87626 0.092 0.0
C242 C 0.8381 0.89715 0.08379 0.0
C243 C 0.81163 0.89109 0.0505 0.0
C244 C 0.8057 0.87097 0.05892 0.0
C245 C 0.78754 0.85929 0.04344 0.0
H246 H 0.71862 0.85756 0.94516 0.0
C247 C 0.79849 0.89404 0.02831 0.0
C248 C 0.78411 0.87556 0.02414 0.0
H249 H 0.72316 0.80887 0.99826 0.0
H250 H 0.75203 0.83086 0.01977 0.0
H251 H 0.71738 0.89882 0.9793 0.0
H252 H 0.77732 0.86668 0.94368 0.0
H253 H 0.78396 0.89425 0.94272 0.0
H254 H 0.75599 0.88416 0.92896 0.0
H255 H 0.72101 0.89956 0.94849 0.0
H256 H 0.73693 0.91849 0.96691 0.0
C257 C 0.76301 0.85553 0.05716 0.0
C258 C 0.8003 0.83849 0.03476 0.0
C259 C 0.8167 0.96026 0.98009 0.0
C260 C 0.80921 0.96676 0.95791 0.0
C261 C 0.79154 0.9542 0.94583 0.0
C262 C 0.78188 0.93526 0.95551 0.0
C263 C 0.79013 0.92866 0.97744 0.0
C264 C 0.80708 0.94123 0.9894 0.0
C265 C 0.81432 0.93152 0.01218 0.0
C266 C 0.79917 0.91088 0.01181 0.0
C267 C 0.785 0.90928 0.99147 0.0
C268 C 0.80568 0.94688 0.03168 0.0
C269 C 0.84288 0.92716 0.01168 0.0
C270 C 0.72595 0.85154 0.96133 0.0
C271 C 0.71836 0.83145 0.97003 0.0
C272 C 0.72826 0.82442 0.99131 0.0
C273 C 0.74518 0.83717 0.00375 0.0
C274 C 0.75249 0.85721 0.99486 0.0
C275 C 0.74295 0.86406 0.97395 0.0
C276 C 0.7532 0.88564 0.96699 0.0
C277 C 0.77002 0.89078 0.9874 0.0
C278 C 0.76958 0.87403 0.00364 0.0
C279 C 0.73108 0.90156 0.96513 0.0
C280 C 0.7683 0.88275 0.94434 0.0
H281 H 0.83255 0.92051 0.05783 0.0
H282 H 0.81172 0.8471 0.08525 0.0
H283 H 0.82045 0.84143 0.03102 0.0
H284 H 0.79236 0.83248 0.0184 0.0
H285 H 0.79916 0.82557 0.04794 0.0
H286 H 0.75938 0.86902 0.0693 0.0
H287 H 0.76401 0.84055 0.0675 0.0
H288 H 0.74626 0.85493 0.046 0.0
H289 H 0.83054 0.96935 0.98968 0.0
H290 H 0.78532 0.95897 0.92879 0.0
H291 H 0.76862 0.92633 0.9454 0.0
H292 H 0.78887 0.95619 0.02642 0.0
H293 H 0.8206 0.95861 0.03619 0.0
H294 H 0.79978 0.93823 0.04745 0.0
H295 H 0.84875 0.92114 0.99442 0.0
H296 H 0.84882 0.91462 0.02392 0.0
H297 H 0.85368 0.94205 0.01527 0.0
H298 H 0.85029 0.90785 0.09334 0.0
C299 C 0.82761 0.90458 0.06318 0.0
C300 C 0.28452 0.14692 0.46613 0.0
C301 C 0.29367 0.16614 0.47581 0.0
C302 C 0.28494 0.17253 0.49773 0.0
C303 C 0.2583 0.14106 0.49983 0.0
C304 C 0.26694 0.13467 0.47842 0.0
C305 C 0.2552 0.11389 0.47065 0.0
H306 H 0.17156 0.03394 0.49045 0.0
C307 C 0.23992 0.12497 0.50789 0.0
C308 C 0.23808 0.10892 0.49091 0.0
H309 H 0.21955 0.04202 0.43097 0.0
H310 H 0.23797 0.07372 0.44827 0.0
H311 H 0.21294 0.04474 0.52811 0.0
H312 H 0.15651 0.08304 0.4951 0.0
H313 H 0.15671 0.0903 0.52438 0.0
H314 H 0.14932 0.06304 0.51641 0.0
H315 H 0.18053 0.04304 0.53603 0.0
H316 H 0.20143 0.06224 0.54934 0.0
C317 C 0.27617 0.09694 0.46802 0.0
C318 C 0.24029 0.11831 0.44823 0.0
C319 C 0.1938 0.13652 0.5838 0.0
C320 C 0.175 0.12474 0.5952 0.0
C321 C 0.1671 0.10498 0.58575 0.0
C322 C 0.17719 0.09737 0.56502 0.0
C323 C 0.19538 0.10961 0.55346 0.0
C324 C 0.20366 0.12869 0.563 0.0
C325 C 0.22316 0.13946 0.54822 0.0
C326 C 0.225 0.12379 0.52816 0.0
C327 C 0.2086 0.10642 0.53132 0.0
C328 C 0.24785 0.14064 0.56221 0.0
C329 C 0.21277 0.16155 0.54053 0.0
C330 C 0.18593 0.0426 0.48106 0.0
C331 C 0.19393 0.03559 0.45921 0.0
C332 C 0.21311 0.04705 0.44786 0.0
C333 C 0.22366 0.06553 0.45787 0.0
C334 C 0.21496 0.07262 0.4795 0.0
C335 C 0.1966 0.06101 0.49079 0.0
C336 C 0.18961 0.07071 0.51363 0.0
C337 C 0.20662 0.09023 0.51417 0.0
C338 C 0.22137 0.09137 0.49412 0.0
C339 C 0.19623 0.0544 0.53289 0.0
C340 C 0.16157 0.07703 0.51258 0.0
H341 H 0.26145 0.16594 0.5263 0.0
H342 H 0.29103 0.14143 0.44944 0.0
H343 H 0.23065 0.1341 0.44922 0.0
H344 H 0.22524 0.10651 0.44511 0.0
H345 H 0.25289 0.11868 0.43298 0.0
H346 H 0.29083 0.09917 0.48146 0.0
H347 H 0.28541 0.09823 0.45089 0.0
H348 H 0.26937 0.08034 0.47046 0.0
H349 H 0.20021 0.1518 0.59055 0.0
H350 H 0.15299 0.09539 0.5944 0.0
H351 H 0.17018 0.08232 0.5587 0.0
H352 H 0.24987 0.12641 0.57366 0.0
H353 H 0.24839 0.15518 0.57331 0.0
H354 H 0.2647 0.14037 0.55115 0.0
H355 H 0.19232 0.16052 0.53702 0.0
H356 H 0.22106 0.16738 0.52424 0.0
H357 H 0.21564 0.17387 0.55415 0.0
H358 H 0.29138 0.18739 0.50546 0.0
C359 C 0.2674 0.16011 0.50977 0.0
C360 C 0.19331 0.94681 0.95513 0.0
C361 C 0.1747 0.96063 0.96377 0.0
C362 C 0.16647 0.95796 0.98673 0.0
C363 C 0.19384 0.92736 0.99149 0.0
C364 C 0.20253 0.93031 0.96924 0.0
C365 C 0.22178 0.91378 0.96266 0.0
H366 H 0.28251 0.82153 0.9881 0.0
C367 C 0.20614 0.90815 0.00116 0.0
C368 C 0.22257 0.90009 0.98439 0.0
H369 H 0.2917 0.86209 0.92793 0.0
H370 H 0.2616 0.88692 0.94322 0.0
H371 H 0.28485 0.86114 0.02394 0.0
H372 H 0.22298 0.82649 0.99389 0.0
H373 H 0.21645 0.83039 0.02334 0.0
H374 H 0.24337 0.8148 0.01505 0.0
H375 H 0.27691 0.83431 0.0326 0.0
H376 H 0.26232 0.85741 0.04567 0.0
C377 C 0.247 0.92546 0.95824 0.0
C378 C 0.21168 0.90105 0.94165 0.0
C379 C 0.18181 0.88211 0.08115 0.0
C380 C 0.18839 0.86401 0.09427 0.0
C381 C 0.20565 0.84922 0.08502 0.0
C382 C 0.21617 0.85244 0.06308 0.0
C383 C 0.20929 0.87059 0.05013 0.0
C384 C 0.19235 0.88503 0.05925 0.0
C385 C 0.18655 0.90303 0.04286 0.0
C386 C 0.20311 0.89726 0.02251 0.0
C387 C 0.21641 0.87827 0.02683 0.0
C388 C 0.19481 0.9244 0.05432 0.0
C389 C 0.15831 0.90177 0.0367 0.0
C390 C 0.27832 0.83582 0.97822 0.0
C391 C 0.28946 0.83949 0.9565 0.0
C392 C 0.28305 0.85837 0.94435 0.0
C393 C 0.26568 0.87297 0.95337 0.0
C394 C 0.25461 0.8689 0.97491 0.0
C395 C 0.26129 0.85077 0.98714 0.0
C396 C 0.24861 0.84968 0.01033 0.0
C397 C 0.23302 0.87002 0.00985 0.0
C398 C 0.23635 0.88106 0.9889 0.0
C399 C 0.26909 0.85052 0.02926 0.0
C400 C 0.23206 0.82924 0.01093 0.0
H401 H 0.16867 0.94025 0.0178 0.0
H402 H 0.20004 0.9484 0.93758 0.0
H403 H 0.19154 0.89703 0.94411 0.0
H404 H 0.22117 0.88554 0.93905 0.0
H405 H 0.21338 0.91061 0.92554 0.0
H406 H 0.24843 0.94051 0.96851 0.0
H407 H 0.24913 0.92985 0.93976 0.0
H408 H 0.26333 0.91583 0.96371 0.0
H409 H 0.16824 0.89356 0.08753 0.0
H410 H 0.21112 0.8352 0.09484 0.0
H411 H 0.22915 0.8406 0.05699 0.0
H412 H 0.21232 0.92217 0.06443 0.0
H413 H 0.18023 0.93043 0.06634 0.0
H414 H 0.19934 0.93708 0.04165 0.0
H415 H 0.15151 0.88487 0.03682 0.0
H416 H 0.15417 0.90754 0.01908 0.0
H417 H 0.14681 0.91091 0.04927 0.0
H418 H 0.15261 0.96867 0.99402 0.0
C419 C 0.17592 0.94148 1.00059 0.0
C420 C 0.728 0.15295 0.45954 0.0
C421 C 0.71898 0.17204 0.46951 0.0
C422 C 0.72712 0.17773 0.49187 0.0
C423 C 0.75287 0.14579 0.49379 0.0
C424 C 0.74484 0.14014 0.47193 0.0
C425 C 0.75637 0.11945 0.46378 0.0
H426 H 0.83641 0.03731 0.48328 0.0
C427 C 0.77038 0.12907 0.50193 0.0
C428 C 0.77246 0.11355 0.48443 0.0
H429 H 0.79118 0.04852 0.42255 0.0
H430 H 0.77366 0.0802 0.44028 0.0
H431 H 0.85242 0.08619 0.49163 0.0
H432 H 0.79342 0.04685 0.51938 0.0
H433 H 0.80306 0.06374 0.54195 0.0
H434 H 0.82501 0.04492 0.52962 0.0
H435 H 0.85783 0.06428 0.51111 0.0
H436 H 0.85115 0.09088 0.52154 0.0
C437 C 0.77235 0.12437 0.44209 0.0
C438 C 0.73506 0.10295 0.45978 0.0
C439 C 0.81184 0.13615 0.58076 0.0
C440 C 0.82843 0.12289 0.59306 0.0
C441 C 0.83615 0.10335 0.5831 0.0
C442 C 0.82778 0.09722 0.56115 0.0
C443 C 0.81141 0.11071 0.54895 0.0
C444 C 0.80346 0.12969 0.55888 0.0
C445 C 0.7854 0.1416 0.54362 0.0
C446 C 0.78413 0.12677 0.52279 0.0
C447 C 0.79957 0.10882 0.52598 0.0
C448 C 0.79722 0.1636 0.53749 0.0
C449 C 0.75993 0.14303 0.55634 0.0
C450 C 0.82246 0.04636 0.47387 0.0
C451 C 0.81524 0.04032 0.45142 0.0
C452 C 0.79735 0.05291 0.43973 0.0
C453 C 0.78711 0.07128 0.4501 0.0
C454 C 0.79483 0.07721 0.47243 0.0
C455 C 0.81206 0.06468 0.48397 0.0
C456 C 0.81807 0.07327 0.50758 0.0
C457 C 0.80185 0.09321 0.50824 0.0
C458 C 0.78832 0.09551 0.4876 0.0
C459 C 0.84635 0.07888 0.50825 0.0
C460 C 0.80969 0.05637 0.5257 0.0
H461 H 0.74937 0.16997 0.52095 0.0
H462 H 0.72235 0.1482 0.44232 0.0
H463 H 0.72006 0.10483 0.47295 0.0
H464 H 0.74134 0.08616 0.46153 0.0
H465 H 0.72637 0.10513 0.44252 0.0
H466 H 0.78179 0.14025 0.4437 0.0
H467 H 0.76055 0.1248 0.42631 0.0
H468 H 0.7877 0.1128 0.43947 0.0
H469 H 0.80533 0.15113 0.58811 0.0
H470 H 0.84908 0.09296 0.59214 0.0
H471 H 0.83455 0.08226 0.55447 0.0
H472 H 0.81771 0.16197 0.53449 0.0
H473 H 0.79455 0.17534 0.55172 0.0
H474 H 0.78978 0.17051 0.52136 0.0
H475 H 0.75663 0.12854 0.56718 0.0
H476 H 0.7438 0.1435 0.54443 0.0
H477 H 0.75928 0.15726 0.56789 0.0
H478 H 0.72021 0.19214 0.50014 0.0
C479 C 0.74396 0.16474 0.50402 0.0
Fe480 Fe 0.00502 0.81649 0.324 0.0
Fe481 Fe 0.00415 0.84076 0.37009 0.0
O482 O 0.00534 0.84098 0.33955 0.0
Fe483 Fe 0.00696 0.8657 0.32458 0.0
O484 O 0.98931 0.85623 0.29939 0.0
O485 O 0.97651 0.82384 0.30886 0.0
O486 O 0.98512 0.80215 0.34497 0.0
C487 C 0.97037 0.80911 0.36039 0.0
C488 C 0.03987 0.84215 0.2991 0.0
O489 O 0.97425 0.82701 0.36991 0.0
C490 C 0.03881 0.87239 0.363 0.0
O491 O 0.03355 0.80763 0.338 0.0
O492 O 0.02146 0.81547 0.37325 0.0
O493 O 0.03656 0.85857 0.31144 0.0
O494 O 0.02489 0.82636 0.30027 0.0
C495 C 0.97297 0.87581 0.35803 0.0
O496 O 0.03405 0.85451 0.37223 0.0
O497 O 0.02502 0.87965 0.34703 0.0
C498 C 0.03633 0.80608 0.35955 0.0
O499 O 0.98654 0.86599 0.37251 0.0
O500 O 0.97743 0.87451 0.33669 0.0
C501 C 0.97441 0.84057 0.29672 0.0
Fe502 Fe 0.00329 0.16117 0.86989 0.0
Fe503 Fe 0.99988 0.13787 0.82342 0.0
O504 O 0.0011 0.16206 0.83942 0.0
Fe505 Fe 1.00011 0.18709 0.82496 0.0
O506 O 0.02039 0.20109 0.84587 0.0
O507 O 0.03272 0.17563 0.86951 0.0
O508 O 0.0217 0.13634 0.87063 0.0
C509 C 0.03521 0.12741 0.85545 0.0
C510 C 0.97009 0.19587 0.86191 0.0
O511 O 0.03018 0.12942 0.83427 0.0
C512 C 0.96514 0.16141 0.80014 0.0
O513 O 0.97393 0.14656 0.87224 0.0
O514 O 0.98319 0.12263 0.84575 0.0
O515 O 0.97192 0.19493 0.84023 0.0
O516 O 0.98539 0.18593 0.87471 0.0
C517 C 0.03044 0.16481 0.79572 0.0
O518 O 0.96956 0.14466 0.81164 0.0
O519 O 0.97961 0.17756 0.80146 0.0
C520 C 0.96963 0.12886 0.86238 0.0
O521 O 0.01615 0.1487 0.798 0.0
O522 O 0.02829 0.18094 0.8087 0.0
C523 C 0.03581 0.19391 0.86059 0.0
Fe524 Fe 0.49988 0.31527 0.32687 0.0
Fe525 Fe 0.50346 0.34181 0.37137 0.0
O526 O 0.50121 0.34051 0.34093 0.0
Fe527 Fe 0.50028 0.36445 0.32454 0.0
O528 O 0.46992 0.35759 0.31283 0.0
O529 O 0.47975 0.32461 0.30301 0.0
O530 O 0.47146 0.30799 0.34208 0.0
C531 C 0.46942 0.30747 0.36376 0.0
C532 C 0.53074 0.33694 0.29761 0.0
O533 O 0.48499 0.3173 0.37649 0.0
C534 C 0.53591 0.37511 0.35629 0.0
O535 O 0.51973 0.30135 0.34814 0.0
O536 O 0.53265 0.32712 0.37117 0.0
O537 O 0.51648 0.35305 0.29938 0.0
O538 O 0.52828 0.32094 0.31072 0.0
C539 C 0.47024 0.37424 0.36343 0.0
O540 O 0.5224 0.3665 0.37174 0.0
O541 O 0.53064 0.37287 0.33521 0.0
C542 C 0.53541 0.30868 0.36259 0.0
O543 O 0.4744 0.35668 0.37354 0.0
O544 O 0.48374 0.38017 0.3466 0.0
C545 C 0.46558 0.34086 0.30126 0.0
Fe546 Fe 0.50377 0.66052 0.86947 0.0
Fe547 Fe 0.50423 0.63652 0.82344 0.0
O548 O 0.50409 0.66103 0.8389 0.0
Fe549 Fe 0.50437 0.68576 0.82378 0.0
O550 O 0.53315 0.69424 0.83781 0.0
O551 O 0.52216 0.68517 0.87303 0.0
O552 O 0.53314 0.64586 0.87044 0.0
C553 C 0.53613 0.62774 0.86117 0.0
C554 C 0.47074 0.69311 0.8611 0.0
O555 O 0.52137 0.62136 0.84551 0.0
C556 C 0.47293 0.66276 0.79601 0.0
O557 O 0.48502 0.63573 0.87142 0.0
O558 O 0.47419 0.62886 0.83555 0.0
O559 O 0.48478 0.69993 0.84501 0.0
O560 O 0.47464 0.67521 0.87061 0.0
C561 C 0.53824 0.65944 0.79843 0.0
O562 O 0.48732 0.64685 0.79837 0.0
O563 O 0.47553 0.67918 0.80851 0.0
C564 C 0.47033 0.62704 0.85695 0.0
O565 O 0.53413 0.64288 0.81043 0.0
O566 O 0.52407 0.67573 0.79997 0.0
C567 C 0.53653 0.69513 0.85934 0.0
H568 H 0.21319 0.28762 0.97157 0.0
H569 H 0.183 0.26496 0.95136 0.0
H570 H 0.14847 0.32123 0.92202 0.0
H571 H 0.17784 0.34409 0.94312 0.0
H572 H 0.11369 0.29419 0.93585 0.0
H573 H 0.18767 0.28861 0.88998 0.0
H574 H 0.23239 0.2822 0.8821 0.0
H575 H 0.2249 0.21722 0.90589 0.0
H576 H 0.18019 0.22332 0.91422 0.0
H577 H 0.04277 0.23679 0.85218 0.0
H578 H 0.07431 0.26055 0.86916 0.0
H579 H 0.10573 0.20707 0.90636 0.0
H580 H 0.07435 0.18315 0.88944 0.0
H581 H 0.14202 0.23355 0.88687 0.0
H582 H 0.06756 0.24039 0.93355 0.0
H583 H 0.02259 0.2472 0.93966 0.0
H584 H 0.0311 0.31086 0.91228 0.0
H585 H 0.07608 0.30429 0.90567 0.0
C586 C 0.19902 0.29523 0.96103 0.0
C587 C 0.19803 0.31772 0.95896 0.0
C588 C 0.18193 0.28221 0.94924 0.0
C589 C 0.16368 0.29135 0.93486 0.0
C590 C 0.16246 0.31379 0.93291 0.0
C591 C 0.17945 0.32683 0.94482 0.0
C592 C 0.14569 0.2775 0.92208 0.0
C593 C 0.11993 0.28114 0.92487 0.0
C594 C 0.15375 0.26025 0.90798 0.0
C595 C 0.18062 0.25649 0.90293 0.0
C596 C 0.1956 0.273 0.8937 0.0
C597 C 0.22094 0.26941 0.88912 0.0
C598 C 0.23149 0.24933 0.89354 0.0
C599 C 0.21671 0.23277 0.9025 0.0
C600 C 0.19136 0.23628 0.90713 0.0
C601 C 0.0565 0.23002 0.86383 0.0
C602 C 0.0559 0.20808 0.86959 0.0
C603 C 0.07445 0.24365 0.87357 0.0
C604 C 0.09216 0.2356 0.88921 0.0
C605 C 0.09218 0.2136 0.89437 0.0
C606 C 0.07416 0.19998 0.88475 0.0
C607 C 0.11017 0.2502 0.9008 0.0
C608 C 0.13588 0.24668 0.89778 0.0
C609 C 0.10207 0.26766 0.91452 0.0
C610 C 0.07514 0.27177 0.9189 0.0
C611 C 0.05981 0.25579 0.92869 0.0
C612 C 0.03432 0.25961 0.93226 0.0
C613 C 0.02398 0.27943 0.92631 0.0
C614 C 0.03913 0.2955 0.91686 0.0
C615 C 0.06463 0.29175 0.91321 0.0
H616 H 0.00424 0.28235 0.92905 0.0
H617 H 0.25112 0.24659 0.88999 0.0
H618 H 0.79387 0.71395 0.47193 0.0
H619 H 0.82377 0.73709 0.4521 0.0
H620 H 0.85921 0.68149 0.42217 0.0
H621 H 0.83035 0.65812 0.44313 0.0
H622 H 0.89349 0.70835 0.43554 0.0
H623 H 0.81864 0.71479 0.39083 0.0
H624 H 0.7738 0.72144 0.38382 0.0
H625 H 0.78194 0.78594 0.40895 0.0
H626 H 0.82678 0.77959 0.41641 0.0
H627 H 0.96261 0.76646 0.35123 0.0
H628 H 0.93129 0.74269 0.36852 0.0
H629 H 0.90149 0.79582 0.40745 0.0
H630 H 0.93271 0.81975 0.39027 0.0
H631 H 0.86438 0.76974 0.38811 0.0
H632 H 0.93975 0.76209 0.43327 0.0
H633 H 0.98475 0.75497 0.43875 0.0
H634 H 0.97537 0.69164 0.41069 0.0
H635 H 0.93036 0.69852 0.4047 0.0
C636 C 0.80822 0.70657 0.4614 0.0
C637 C 0.80959 0.6841 0.45914 0.0
C638 C 0.82512 0.71988 0.44977 0.0
C639 C 0.84349 0.71109 0.43526 0.0
C640 C 0.8451 0.68868 0.43314 0.0
C641 C 0.82838 0.67533 0.44497 0.0
C642 C 0.86125 0.72524 0.42256 0.0
C643 C 0.88706 0.72156 0.42489 0.0
C644 C 0.85297 0.74274 0.40893 0.0
C645 C 0.82603 0.74665 0.40437 0.0
C646 C 0.81083 0.73035 0.39502 0.0
C647 C 0.78542 0.73407 0.39094 0.0
C648 C 0.77501 0.75408 0.39599 0.0
C649 C 0.79002 0.77044 0.40507 0.0
C650 C 0.81544 0.76679 0.40921 0.0
C651 C 0.94928 0.77316 0.36333 0.0
C652 C 0.95031 0.79499 0.36951 0.0
C653 C 0.93145 0.75952 0.37324 0.0
C654 C 0.91427 0.76746 0.38945 0.0
C655 C 0.91463 0.78938 0.39502 0.0
C656 C 0.93256 0.803 0.38525 0.0
C657 C 0.89644 0.75281 0.40118 0.0
C658 C 0.87069 0.75644 0.39869 0.0
C659 C 0.90474 0.73515 0.41446 0.0
C660 C 0.93174 0.7309 0.41833 0.0
C661 C 0.94732 0.74671 0.42811 0.0
C662 C 0.97282 0.74271 0.43133 0.0
C663 C 0.98293 0.72289 0.42501 0.0
C664 C 0.96753 0.707 0.41554 0.0
C665 C 0.94202 0.71093 0.41224 0.0
H666 H 0.00268 0.71983 0.42751 0.0
H667 H 0.75533 0.75693 0.39282 0.0
H668 H 0.78803 0.30115 0.95411 0.0
H669 H 0.81824 0.27634 0.93705 0.0
H670 H 0.87247 0.32767 0.93236 0.0
H671 H 0.84184 0.3527 0.94858 0.0
H672 H 0.8751 0.30561 0.89537 0.0
H673 H 0.87475 0.28729 0.97527 0.0
H674 H 0.85645 0.27721 0.01283 0.0
H675 H 0.82775 0.21887 0.98336 0.0
H676 H 0.84559 0.22874 0.94552 0.0
H677 H 0.96884 0.20994 0.90657 0.0
H678 H 0.93983 0.23549 0.92383 0.0
H679 H 0.90035 0.24043 0.85906 0.0
H680 H 0.92986 0.21533 0.84143 0.0
H681 H 0.89252 0.23529 0.93211 0.0
H682 H 0.87668 0.29018 0.85238 0.0
H683 H 0.8998 0.30241 0.8179 0.0
H684 H 0.96959 0.29156 0.85272 0.0
H685 H 0.9469 0.27954 0.88748 0.0
C686 C 0.80645 0.30707 0.9495 0.0
C687 C 0.81269 0.32878 0.95276 0.0
C688 C 0.82374 0.29289 0.93982 0.0
C689 C 0.84785 0.3 0.93376 0.0
C690 C 0.85402 0.32177 0.93687 0.0
C691 C 0.83656 0.33605 0.94617 0.0
C692 C 0.86655 0.28479 0.92404 0.0
C693 C 0.87889 0.29025 0.90344 0.0
C694 C 0.87201 0.2649 0.93476 0.0
C695 C 0.86132 0.25886 0.95751 0.0
C696 C 0.86439 0.27238 0.97676 0.0
C697 C 0.85412 0.2667 0.99811 0.0
C698 C 0.8409 0.24744 1.00047 0.0
C699 C 0.83797 0.2338 0.9815 0.0
C700 C 0.84818 0.23942 0.9601 0.0
C701 C 0.95397 0.21642 0.89597 0.0
C702 C 0.95176 0.21068 0.87256 0.0
C703 C 0.93735 0.23102 0.9059 0.0
C704 C 0.91805 0.24011 0.89271 0.0
C705 C 0.91539 0.23399 0.86948 0.0
C706 C 0.93221 0.21956 0.85944 0.0
C707 C 0.9008 0.25601 0.90332 0.0
C708 C 0.8887 0.25066 0.92406 0.0
C709 C 0.89626 0.27631 0.89318 0.0
C710 C 0.91007 0.28375 0.87243 0.0
C711 C 0.89696 0.29048 0.85269 0.0
C712 C 0.90999 0.29736 0.8331 0.0
C713 C 0.93615 0.29769 0.83309 0.0
C714 C 0.94933 0.29122 0.85271 0.0
C715 C 0.9364 0.28435 0.87235 0.0
H716 H 0.9462 0.30301 0.8179 0.0
H717 H 0.83296 0.24306 0.01701 0.0
H718 H 0.17673 0.66265 0.45083 0.0
H719 H 0.14699 0.68566 0.43048 0.0
H720 H 0.19897 0.73869 0.43528 0.0
H721 H 0.22824 0.71587 0.45656 0.0
H722 H 0.15589 0.75309 0.44399 0.0
H723 H 0.18778 0.70959 0.38337 0.0
H724 H 0.1995 0.67618 0.36329 0.0
H725 H 0.12268 0.6557 0.36344 0.0
H726 H 0.11055 0.68886 0.38382 0.0
H727 H 0.07685 0.7893 0.33691 0.0
H728 H 0.11058 0.76755 0.35329 0.0
H729 H 0.07405 0.76903 0.41971 0.0
H730 H 0.04076 0.7912 0.40369 0.0
H731 H 0.1132 0.72958 0.3722 0.0
H732 H 0.11607 0.77074 0.46256 0.0
H733 H 0.10805 0.80649 0.47932 0.0
H734 H 0.12307 0.83598 0.41375 0.0
H735 H 0.13162 0.80046 0.39671 0.0
C736 C 0.1818 0.67919 0.4474 0.0
C737 C 0.20475 0.6875 0.45519 0.0
C738 C 0.16487 0.69233 0.43567 0.0
C739 C 0.17083 0.71389 0.43095 0.0
C740 C 0.19386 0.72215 0.4387 0.0
C741 C 0.21059 0.70912 0.45082 0.0
C742 C 0.15279 0.72795 0.41853 0.0
C743 C 0.14666 0.74793 0.42825 0.0
C744 C 0.1411 0.72159 0.39764 0.0
C745 C 0.14829 0.70164 0.38529 0.0
C746 C 0.17341 0.6979 0.37926 0.0
C747 C 0.18013 0.67901 0.36781 0.0
C748 C 0.16186 0.66381 0.36214 0.0
C749 C 0.13682 0.66748 0.36786 0.0
C750 C 0.13001 0.68633 0.37934 0.0
C751 C 0.07599 0.78495 0.355 0.0
C752 C 0.05622 0.79212 0.36904 0.0
C753 C 0.09526 0.77249 0.36432 0.0
C754 C 0.09507 0.76692 0.38782 0.0
C755 C 0.07493 0.77352 0.40167 0.0
C756 C 0.05584 0.78615 0.39245 0.0
C757 C 0.11596 0.75437 0.398 0.0
C758 C 0.12259 0.73473 0.38787 0.0
C759 C 0.12877 0.76139 0.41804 0.0
C760 C 0.12427 0.78289 0.42832 0.0
C761 C 0.11782 0.78486 0.45176 0.0
C762 C 0.11316 0.80509 0.4613 0.0
C763 C 0.11499 0.82348 0.44759 0.0
C764 C 0.1216 0.82171 0.42434 0.0
C765 C 0.12634 0.80153 0.41473 0.0
H766 H 0.11131 0.83912 0.455 0.0
H767 H 0.16709 0.64919 0.35327 0.0
H768 H 0.68009 0.80698 0.98745 0.0
H769 H 0.65119 0.78378 0.96632 0.0
H770 H 0.68598 0.80216 0.9021 0.0
H771 H 0.71544 0.8251 0.92315 0.0
H772 H 0.63389 0.80231 0.8999 0.0
H773 H 0.69916 0.75469 0.92382 0.0
H774 H 0.72817 0.73783 0.95146 0.0
H775 H 0.66593 0.71347 0.99047 0.0
H776 H 0.63652 0.73047 0.96325 0.0
H777 H 0.57098 0.7198 0.83597 0.0
H778 H 0.60343 0.743 0.85256 0.0
H779 H 0.57925 0.72552 0.9211 0.0
H780 H 0.54721 0.70215 0.9048 0.0
H781 H 0.62874 0.72463 0.91836 0.0
H782 H 0.56358 0.77394 0.89672 0.0
H783 H 0.53388 0.79129 0.87005 0.0
H784 H 0.59499 0.81277 0.82771 0.0
H785 H 0.62505 0.79529 0.85398 0.0
C786 C 0.68183 0.80594 0.96886 0.0
C787 C 0.70026 0.81781 0.95704 0.0
C788 C 0.6652 0.79274 0.9568 0.0
C789 C 0.66662 0.79109 0.93267 0.0
C790 C 0.68458 0.80322 0.92073 0.0
C791 C 0.70134 0.81639 0.9328 0.0
C792 C 0.64939 0.77652 0.92005 0.0
C793 C 0.63302 0.78525 0.90363 0.0
C794 C 0.64799 0.75436 0.92525 0.0
C795 C 0.66563 0.74401 0.94159 0.0
C796 C 0.69165 0.74588 0.93839 0.0
C797 C 0.70817 0.73628 0.95397 0.0
C798 C 0.6989 0.72463 0.97274 0.0
C799 C 0.67308 0.72252 0.97594 0.0
C800 C 0.65648 0.73212 0.96042 0.0
C801 C 0.57258 0.7209 0.85457 0.0
C802 C 0.55639 0.70916 0.86904 0.0
C803 C 0.59108 0.73422 0.86403 0.0
C804 C 0.59362 0.73616 0.88808 0.0
C805 C 0.57767 0.72428 0.9025 0.0
C806 C 0.55927 0.71096 0.89311 0.0
C807 C 0.61287 0.75045 0.89846 0.0
C808 C 0.6297 0.74165 0.91446 0.0
C809 C 0.61456 0.77256 0.89296 0.0
C810 C 0.59653 0.7831 0.87716 0.0
C811 C 0.57067 0.78221 0.88161 0.0
C812 C 0.55377 0.7921 0.86659 0.0
C813 C 0.56254 0.80307 0.84715 0.0
C814 C 0.58823 0.80423 0.84274 0.0
C815 C 0.6052 0.79435 0.8577 0.0
H816 H 0.54943 0.81072 0.83555 0.0
H817 H 0.71172 0.71721 0.98478 0.0
H818 H 0.33478 0.18685 0.49316 0.0
H819 H 0.36352 0.21081 0.47279 0.0
H820 H 0.32305 0.20007 0.40938 0.0
H821 H 0.29404 0.17614 0.42971 0.0
H822 H 0.37366 0.19925 0.40272 0.0
H823 H 0.31416 0.24571 0.43927 0.0
H824 H 0.28946 0.25999 0.47177 0.0
H825 H 0.35713 0.27736 0.50723 0.0
H826 H 0.38225 0.2629 0.47507 0.0
H827 H 0.4309 0.28603 0.3425 0.0
H828 H 0.40007 0.26215 0.36032 0.0
H829 H 0.43401 0.27285 0.42694 0.0
H830 H 0.46448 0.29711 0.4094 0.0
H831 H 0.38488 0.27401 0.43056 0.0
H832 H 0.44448 0.22641 0.39518 0.0
H833 H 0.4696 0.21178 0.36313 0.0
H834 H 0.4024 0.19629 0.32595 0.0
H835 H 0.37688 0.2111 0.35766 0.0
C836 C 0.33189 0.18966 0.47491 0.0
C837 C 0.31197 0.17974 0.46311 0.0
C838 C 0.34837 0.20333 0.46328 0.0
C839 C 0.34519 0.20747 0.43965 0.0
C840 C 0.3258 0.19711 0.42764 0.0
C841 C 0.3093 0.1834 0.43927 0.0
C842 C 0.36196 0.22286 0.42762 0.0
C843 C 0.37586 0.2157 0.40857 0.0
C844 C 0.36515 0.24419 0.43555 0.0
C845 C 0.35008 0.25305 0.45484 0.0
C846 C 0.32378 0.25244 0.45407 0.0
C847 C 0.3097 0.26059 0.47242 0.0
C848 C 0.32172 0.26954 0.49157 0.0
C849 C 0.34785 0.27041 0.49239 0.0
C850 C 0.36201 0.26225 0.4741 0.0
C851 C 0.43179 0.28333 0.36095 0.0
C852 C 0.45027 0.2934 0.3745 0.0
C853 C 0.41421 0.26959 0.3711 0.0
C854 C 0.41495 0.26544 0.39493 0.0
C855 C 0.43309 0.27577 0.40852 0.0
C856 C 0.45055 0.28962 0.39844 0.0
C857 C 0.39687 0.25036 0.4058 0.0
C858 C 0.38265 0.25759 0.42462 0.0
C859 C 0.39347 0.22908 0.39771 0.0
C860 C 0.40878 0.22007 0.37868 0.0
C861 C 0.43507 0.22003 0.38009 0.0
C862 C 0.44938 0.21168 0.362 0.0
C863 C 0.43761 0.20316 0.34249 0.0
C864 C 0.41149 0.20292 0.34106 0.0
C865 C 0.3971 0.21128 0.35909 0.0
H866 H 0.44872 0.19671 0.3285 0.0
H867 H 0.31079 0.27584 0.50577 0.0
H868 H 0.32381 0.81446 0.97954 0.0
H869 H 0.35315 0.78878 0.96328 0.0
H870 H 0.3277 0.80451 0.89466 0.0
H871 H 0.29669 0.82879 0.91087 0.0
H872 H 0.33463 0.7644 0.89593 0.0
H873 H 0.38496 0.82404 0.91927 0.0
H874 H 0.40174 0.85168 0.94558 0.0
H875 H 0.43035 0.80258 0.99033 0.0
H876 H 0.41344 0.77463 0.96443 0.0
H877 H 0.44664 0.72594 0.83917 0.0
H878 H 0.41483 0.75003 0.85531 0.0
H879 H 0.41924 0.71691 0.9205 0.0
H880 H 0.45052 0.69243 0.9044 0.0
H881 H 0.42364 0.76555 0.92037 0.0
H882 H 0.37207 0.70612 0.89426 0.0
H883 H 0.35713 0.68028 0.86507 0.0
H884 H 0.33306 0.73225 0.82182 0.0
H885 H 0.34823 0.75843 0.85063 0.0
C886 C 0.32404 0.81225 0.961 0.0
C887 C 0.30777 0.82391 0.94659 0.0
C888 C 0.34122 0.79775 0.95167 0.0
C889 C 0.34313 0.79499 0.92766 0.0
C890 C 0.32678 0.80641 0.91324 0.0
C891 C 0.30923 0.82058 0.92257 0.0
C892 C 0.362 0.7801 0.91758 0.0
C893 C 0.35413 0.76491 0.90112 0.0
C894 C 0.38751 0.78048 0.9244 0.0
C895 C 0.39771 0.79724 0.94002 0.0
C896 C 0.39467 0.81914 0.93481 0.0
C897 C 0.40423 0.83486 0.94964 0.0
C898 C 0.41704 0.82889 0.96965 0.0
C899 C 0.42038 0.80718 0.97484 0.0
C900 C 0.41084 0.79139 0.96008 0.0
C901 C 0.44075 0.72375 0.85691 0.0
C902 C 0.45106 0.7073 0.87052 0.0
C903 C 0.42259 0.73747 0.86607 0.0
C904 C 0.41479 0.7352 0.88907 0.0
C905 C 0.42509 0.71888 0.90272 0.0
C906 C 0.44285 0.70487 0.89345 0.0
C907 C 0.3961 0.75006 0.89899 0.0
C908 C 0.40409 0.76519 0.91532 0.0
C909 C 0.37088 0.74995 0.8917 0.0
C910 C 0.36153 0.73423 0.87449 0.0
C911 C 0.36381 0.71204 0.87843 0.0
C912 C 0.35525 0.69733 0.86198 0.0
C913 C 0.34422 0.70462 0.84157 0.0
C914 C 0.34164 0.72663 0.83762 0.0
C915 C 0.3502 0.74141 0.85401 0.0
H916 H 0.33761 0.69321 0.82885 0.0
H917 H 0.42443 0.84109 0.9811 0.0
H918 H 0.71874 0.21593 0.46704 0.0
H919 H 0.68844 0.23889 0.44741 0.0
H920 H 0.64866 0.18285 0.42333 0.0
H921 H 0.67882 0.15973 0.44309 0.0
H922 H 0.65342 0.21313 0.38946 0.0
H923 H 0.62679 0.211 0.46877 0.0
H924 H 0.63209 0.21464 0.51089 0.0
H925 H 0.65106 0.28123 0.50264 0.0
H926 H 0.64621 0.27791 0.46042 0.0
H927 H 0.54007 0.26513 0.3577 0.0
H928 H 0.57221 0.24197 0.37429 0.0
H929 H 0.60889 0.29738 0.40376 0.0
H930 H 0.5764 0.32056 0.38781 0.0
H931 H 0.60599 0.26713 0.43463 0.0
H932 H 0.63245 0.26984 0.35558 0.0
H933 H 0.62765 0.26654 0.31339 0.0
H934 H 0.60979 0.19963 0.32073 0.0
H935 H 0.61414 0.2026 0.36302 0.0
C936 C 0.70345 0.20847 0.4577 0.0
C937 C 0.70109 0.18598 0.45681 0.0
C938 C 0.6862 0.22162 0.44643 0.0
C939 C 0.66611 0.21259 0.43415 0.0
C940 C 0.66402 0.19016 0.43271 0.0
C941 C 0.68131 0.17697 0.44397 0.0
C942 C 0.64703 0.22657 0.42319 0.0
C943 C 0.64281 0.22477 0.39935 0.0
C944 C 0.63361 0.24208 0.43603 0.0
C945 C 0.63637 0.24415 0.46142 0.0
C946 C 0.63227 0.22638 0.47593 0.0
C947 C 0.63517 0.22839 0.49981 0.0
C948 C 0.64197 0.24814 0.50942 0.0
C949 C 0.64582 0.26593 0.49517 0.0
C950 C 0.64298 0.264 0.47126 0.0
C951 C 0.55508 0.27241 0.36757 0.0
C952 C 0.55563 0.2947 0.37147 0.0
C953 C 0.57353 0.25914 0.37697 0.0
C954 C 0.59317 0.26792 0.3901 0.0
C955 C 0.59392 0.29021 0.39375 0.0
C956 C 0.57534 0.30345 0.38457 0.0
C957 C 0.61241 0.25385 0.40079 0.0
C958 C 0.61662 0.25557 0.42465 0.0
C959 C 0.62588 0.23835 0.38793 0.0
C960 C 0.6234 0.23649 0.36249 0.0
C961 C 0.62732 0.25446 0.34822 0.0
C962 C 0.62471 0.25264 0.32428 0.0
C963 C 0.61836 0.2329 0.31439 0.0
C964 C 0.61468 0.21492 0.32842 0.0
C965 C 0.61724 0.21665 0.35237 0.0
H966 H 0.61634 0.23152 0.29586 0.0
H967 H 0.64421 0.24967 0.52792 0.0
H968 H 0.29572 0.48962 0.9178 0.0
H969 H 0.31735 0.51973 0.89908 0.0
H970 H 0.38269 0.50789 0.94075 0.0
H971 H 0.36201 0.47726 0.95858 0.0
H972 H 0.36415 0.55259 0.9394 0.0
H973 H 0.38524 0.49167 0.88954 0.0
H974 H 0.37406 0.46168 0.86369 0.0
H975 H 0.33558 0.50528 0.81866 0.0
H976 H 0.34625 0.5355 0.84445 0.0
H977 H 0.46915 0.60569 0.89784 0.0
H978 H 0.43775 0.58033 0.9114 0.0
H979 H 0.39509 0.58984 0.84893 0.0
H980 H 0.42742 0.61456 0.83469 0.0
H981 H 0.39426 0.54992 0.85841 0.0
H982 H 0.37666 0.61144 0.90323 0.0
H983 H 0.3852 0.6427 0.92816 0.0
H984 H 0.41197 0.60093 0.98164 0.0
H985 H 0.40396 0.56943 0.95691 0.0
C986 C 0.3148 0.49322 0.92278 0.0
C987 C 0.32698 0.48103 0.93991 0.0
C988 C 0.32704 0.51052 0.91218 0.0
C989 C 0.35151 0.51605 0.91869 0.0
C990 C 0.36368 0.50399 0.9357 0.0
C991 C 0.35169 0.48655 0.946 0.0
C992 C 0.36482 0.53432 0.9079 0.0
C993 C 0.37083 0.55207 0.92172 0.0
C994 C 0.37251 0.53394 0.88457 0.0
C995 C 0.36625 0.51578 0.86907 0.0
C996 C 0.37418 0.49483 0.87425 0.0
C997 C 0.36799 0.47779 0.85958 0.0
C998 C 0.35404 0.48156 0.83958 0.0
C999 C 0.34633 0.50238 0.83418 0.0
C1000 C 0.35245 0.51946 0.84881 0.0
C1001 C 0.45301 0.60252 0.88704 0.0
C1002 C 0.45065 0.61223 0.86528 0.0
C1003 C 0.43492 0.58809 0.89488 0.0
C1004 C 0.41362 0.58353 0.8815 0.0
C1005 C 0.41124 0.59317 0.85967 0.0
C1006 C 0.42968 0.60732 0.85156 0.0
C1007 C 0.3945 0.56808 0.89016 0.0
C1008 C 0.38727 0.55083 0.87597 0.0
C1009 C 0.38517 0.56916 0.91305 0.0
C1010 C 0.38981 0.58806 0.92814 0.0
C1011 C 0.38449 0.60892 0.92026 0.0
C1012 C 0.38923 0.62669 0.93436 0.0
C1013 C 0.39915 0.6238 0.95646 0.0
C1014 C 0.40429 0.60314 0.96452 0.0
C1015 C 0.39961 0.58532 0.95048 0.0
H1016 H 0.40282 0.63758 0.96735 0.0
H1017 H 0.34927 0.46835 0.82824 0.0
H1018 H 0.68404 0.53436 0.40263 0.0
H1019 H 0.66202 0.50485 0.38363 0.0
H1020 H 0.65795 0.4708 0.44837 0.0
H1021 H 0.68121 0.49964 0.46721 0.0
H1022 H 0.66587 0.44332 0.41473 0.0
H1023 H 0.60865 0.50159 0.4278 0.0
H1024 H 0.59352 0.53888 0.42516 0.0
H1025 H 0.59297 0.53454 0.35117 0.0
H1026 H 0.60843 0.49728 0.35338 0.0
H1027 H 0.55633 0.38005 0.39918 0.0
H1028 H 0.58806 0.40601 0.41128 0.0
H1029 H 0.59333 0.4298 0.34154 0.0
H1030 H 0.56154 0.40382 0.3292 0.0
H1031 H 0.58714 0.46203 0.37406 0.0
H1032 H 0.64014 0.40109 0.36258 0.0
H1033 H 0.65304 0.36335 0.36716 0.0
H1034 H 0.65929 0.37226 0.44044 0.0
H1035 H 0.64604 0.40998 0.43635 0.0
C1036 C 0.67899 0.52039 0.41275 0.0
C1037 C 0.68418 0.51953 0.43655 0.0
C1038 C 0.66613 0.50362 0.40189 0.0
C1039 C 0.65784 0.48579 0.41466 0.0
C1040 C 0.66398 0.48444 0.43817 0.0
C1041 C 0.67705 0.50109 0.44899 0.0
C1042 C 0.64171 0.46908 0.40392 0.0
C1043 C 0.64859 0.44741 0.40596 0.0
C1044 C 0.61933 0.47439 0.39211 0.0
C1045 C 0.60997 0.49675 0.39075 0.0
C1046 C 0.60548 0.50865 0.41097 0.0
C1047 C 0.59682 0.52977 0.40955 0.0
C1048 C 0.59236 0.5391 0.38801 0.0
C1049 C 0.59648 0.5273 0.36784 0.0
C1050 C 0.60518 0.50619 0.36916 0.0
C1051 C 0.56434 0.39069 0.38635 0.0
C1052 C 0.5563 0.38993 0.36324 0.0
C1053 C 0.58258 0.40544 0.39329 0.0
C1054 C 0.59314 0.41973 0.37728 0.0
C1055 C 0.58542 0.41886 0.35414 0.0
C1056 C 0.56731 0.40398 0.34713 0.0
C1057 C 0.61121 0.43632 0.38506 0.0
C1058 C 0.60462 0.45797 0.38253 0.0
C1059 C 0.63363 0.43095 0.39667 0.0
C1060 C 0.64191 0.40834 0.39916 0.0
C1061 C 0.64409 0.39497 0.37969 0.0
C1062 C 0.65149 0.37358 0.3822 0.0
C1063 C 0.65693 0.3654 0.40408 0.0
C1064 C 0.65505 0.37862 0.4235 0.0
C1065 C 0.64763 0.40001 0.42109 0.0
H1066 H 0.66264 0.34884 0.40599 0.0
H1067 H 0.58565 0.55545 0.38695 0.0
H1068 H 0.6291 0.46512 0.94996 0.0
H1069 H 0.61228 0.49594 0.92878 0.0
H1070 H 0.68227 0.52961 0.93764 0.0
H1071 H 0.69946 0.49841 0.95839 0.0
H1072 H 0.63318 0.55201 0.95131 0.0
H1073 H 0.67505 0.51672 0.88846 0.0
H1074 H 0.68627 0.48559 0.86431 0.0
H1075 H 0.60898 0.47654 0.84633 0.0
H1076 H 0.59724 0.50741 0.87067 0.0
H1077 H 0.57949 0.63686 0.88461 0.0
H1078 H 0.60965 0.61113 0.90043 0.0
H1079 H 0.56365 0.55871 0.87605 0.0
H1080 H 0.53441 0.5842 0.85929 0.0
H1081 H 0.60874 0.54869 0.86877 0.0
H1082 H 0.56509 0.57794 0.93485 0.0
H1083 H 0.55059 0.60674 0.96083 0.0
H1084 H 0.62678 0.62477 0.97467 0.0
H1085 H 0.6417 0.59621 0.94855 0.0
C1086 C 0.64093 0.47904 0.94719 0.0
C1087 C 0.66551 0.47951 0.95571 0.0
C1088 C 0.63136 0.49656 0.93512 0.0
C1089 C 0.64608 0.51496 0.93169 0.0
C1090 C 0.6707 0.5155 0.94013 0.0
C1091 C 0.68049 0.49772 0.95183 0.0
C1092 C 0.63511 0.53373 0.91985 0.0
C1093 C 0.6283 0.5516 0.93313 0.0
C1094 C 0.62825 0.53278 0.89634 0.0
C1095 C 0.63526 0.5143 0.88153 0.0
C1096 C 0.66042 0.50798 0.87951 0.0
C1097 C 0.66688 0.4904 0.86575 0.0
C1098 C 0.64835 0.47907 0.85382 0.0
C1099 C 0.62332 0.48532 0.85559 0.0
C1100 C 0.61676 0.50288 0.86934 0.0
C1101 C 0.57595 0.61983 0.8826 0.0
C1102 C 0.5546 0.61253 0.87076 0.0
C1103 C 0.59312 0.60513 0.89172 0.0
C1104 C 0.58882 0.58291 0.88974 0.0
C1105 C 0.56754 0.57572 0.87774 0.0
C1106 C 0.55075 0.59034 0.86822 0.0
C1107 C 0.60598 0.5669 0.90035 0.0
C1108 C 0.61397 0.54946 0.88684 0.0
C1109 C 0.61344 0.56803 0.92382 0.0
C1110 C 0.60449 0.58514 0.93955 0.0
C1111 C 0.57873 0.58815 0.94332 0.0
C1112 C 0.57044 0.60441 0.95808 0.0
C1113 C 0.58775 0.61762 0.96933 0.0
C1114 C 0.61339 0.61456 0.9659 0.0
C1115 C 0.62178 0.59834 0.95113 0.0
H1116 H 0.5813 0.6302 0.98076 0.0
H1117 H 0.65338 0.46546 0.84318 0.0
H1118 H 0.31621 0.49754 0.47457 0.0
H1119 H 0.33932 0.46721 0.45832 0.0
H1120 H 0.35521 0.50435 0.39715 0.0
H1121 H 0.33176 0.53457 0.41317 0.0
H1122 H 0.34575 0.46382 0.38575 0.0
H1123 H 0.39793 0.4997 0.4415 0.0
H1124 H 0.40844 0.51459 0.47975 0.0
H1125 H 0.40072 0.45203 0.51008 0.0
H1126 H 0.38979 0.43681 0.47203 0.0
H1127 H 0.45559 0.41271 0.34532 0.0
H1128 H 0.42479 0.43771 0.36079 0.0
H1129 H 0.4101 0.39458 0.41745 0.0
H1130 H 0.44115 0.36943 0.40219 0.0
H1131 H 0.41675 0.4358 0.43194 0.0
H1132 H 0.36806 0.39966 0.37435 0.0
H1133 H 0.35911 0.38556 0.33542 0.0
H1134 H 0.36188 0.44947 0.30775 0.0
H1135 H 0.37123 0.46393 0.34646 0.0
C1136 C 0.32449 0.49915 0.45758 0.0
C1137 C 0.32234 0.51847 0.44521 0.0
C1138 C 0.3377 0.48184 0.44832 0.0
C1139 C 0.34941 0.48363 0.42669 0.0
C1140 C 0.34637 0.50258 0.41388 0.0
C1141 C 0.33294 0.51984 0.42304 0.0
C1142 C 0.36585 0.46623 0.41788 0.0
C1143 C 0.36138 0.45781 0.39577 0.0
C1144 C 0.386 0.45808 0.43112 0.0
C1145 C 0.39277 0.46716 0.45397 0.0
C1146 C 0.3983 0.48914 0.45635 0.0
C1147 C 0.40435 0.49764 0.47799 0.0
C1148 C 0.40518 0.48427 0.49734 0.0
C1149 C 0.40003 0.46237 0.49508 0.0
C1150 C 0.39391 0.4538 0.47349 0.0
C1151 C 0.44579 0.40845 0.36104 0.0
C1152 C 0.45092 0.38906 0.37254 0.0
C1153 C 0.42806 0.42274 0.36979 0.0
C1154 C 0.41496 0.41792 0.39014 0.0
C1155 C 0.41996 0.39858 0.40167 0.0
C1156 C 0.43768 0.38421 0.3929 0.0
C1157 C 0.39674 0.43349 0.39976 0.0
C1158 C 0.40093 0.44163 0.42201 0.0
C1159 C 0.3765 0.44148 0.38656 0.0
C1160 C 0.37054 0.43286 0.3633 0.0
C1161 C 0.36692 0.4107 0.35994 0.0
C1162 C 0.36176 0.40264 0.33792 0.0
C1163 C 0.35998 0.41661 0.31912 0.0
C1164 C 0.36328 0.43867 0.32233 0.0
C1165 C 0.36849 0.44681 0.34431 0.0
H1166 H 0.356 0.41033 0.30208 0.0
H1167 H 0.40987 0.49088 0.51408 0.0
H1168 H 0.82692 0.97025 0.91386 0.0
H1169 H 0.85093 0.99993 0.89722 0.0
H1170 H 0.84337 0.03554 0.96069 0.0
H1171 H 0.81894 0.00601 0.97737 0.0
H1172 H 0.83865 0.06139 0.92116 0.0
H1173 H 0.89485 0.00878 0.95242 0.0
H1174 H 0.91208 0.97243 0.95768 0.0
H1175 H 0.92942 0.96905 0.88539 0.0
H1176 H 0.91191 0.00527 0.87962 0.0
H1177 H 0.94201 0.13296 0.9022 0.0
H1178 H 0.91185 0.10723 0.91807 0.0
H1179 H 0.92316 0.06588 0.85923 0.0
H1180 H 0.95354 0.09118 0.84352 0.0
H1181 H 0.92547 0.04352 0.89767 0.0
H1182 H 0.86939 0.09605 0.86607 0.0
H1183 H 0.85202 0.13232 0.86056 0.0
H1184 H 0.83448 0.13603 0.93279 0.0
H1185 H 0.85207 0.09986 0.9388 0.0
C1186 C 0.82988 0.98458 0.92411 0.0
C1187 C 0.82117 0.98575 0.94697 0.0
C1188 C 0.84375 0.00146 0.91464 0.0
C1189 C 0.84917 0.01979 0.92784 0.0
C1190 C 0.83944 0.02149 0.95025 0.0
C1191 C 0.82566 0.00456 0.95979 0.0
C1192 C 0.86639 0.03648 0.91879 0.0
C1193 C 0.85772 0.05759 0.91624 0.0
C1194 C 0.89115 0.03139 0.9121 0.0
C1195 C 0.90183 0.00965 0.91555 0.0
C1196 C 0.90214 1.00022 0.9376 0.0
C1197 C 0.91199 0.97965 0.94069 0.0
C1198 C 0.92178 0.96842 0.92187 0.0
C1199 C 0.9218 0.97776 0.89994 0.0
C1200 C 0.91192 0.99831 0.89676 0.0
C1201 C 0.93796 0.11845 0.89258 0.0
C1202 C 0.95031 0.11408 0.87165 0.0
C1203 C 0.92063 0.1038 0.90162 0.0
C1204 C 0.91513 0.08467 0.88977 0.0
C1205 C 0.92715 0.08049 0.86872 0.0
C1206 C 0.94452 0.09501 0.85975 0.0
C1207 C 0.89768 0.06848 0.89962 0.0
C1208 C 0.90638 0.0474 0.90248 0.0
C1209 C 0.87298 0.07364 0.90652 0.0
C1210 C 0.86228 0.09534 0.90293 0.0
C1211 C 0.86201 0.10466 0.88082 0.0
C1212 C 0.8521 0.12519 0.87759 0.0
C1213 C 0.84222 0.1365 0.89632 0.0
C1214 C 0.84217 0.12726 0.91831 0.0
C1215 C 0.85209 0.10674 0.92163 0.0
H1216 H 0.83456 0.15239 0.89379 0.0
H1217 H 0.9294 0.95249 0.92429 0.0
H1218 H 0.14406 0.02652 0.45754 0.0
H1219 H 0.12366 0.99494 0.4412 0.0
H1220 H 0.19534 0.97039 0.4195 0.0
H1221 H 0.21601 0.0022 0.43588 0.0
H1222 H 0.16074 0.96452 0.38643 0.0
H1223 H 0.16705 0.94901 0.4663 0.0
H1224 H 0.1636 0.95581 0.50811 0.0
H1225 H 0.08384 0.96184 0.50176 0.0
H1226 H 0.08684 0.95541 0.45984 0.0
H1227 H 0.07257 0.86275 0.39726 0.0
H1228 H 0.1053 0.88614 0.41306 0.0
H1229 H 0.08347 0.93632 0.36591 0.0
H1230 H 0.05121 0.9131 0.34981 0.0
H1231 H 0.10137 0.92306 0.43512 0.0
H1232 H 0.1328 0.96653 0.35042 0.0
H1233 H 0.13799 0.95764 0.30921 0.0
H1234 H 0.14706 0.89107 0.32637 0.0
H1235 H 0.14254 0.89959 0.36769 0.0
C1236 C 0.15554 0.01435 0.44944 0.0
C1237 C 0.18169 0.01672 0.44826 0.0
C1238 C 0.14385 0.9963 0.44009 0.0
C1239 C 0.15802 0.98009 0.42954 0.0
C1240 C 0.18407 0.98265 0.42769 0.0
C1241 C 0.19583 0.00084 0.43699 0.0
C1242 C 0.14533 0.96057 0.42052 0.0
C1243 C 0.14789 0.95534 0.39707 0.0
C1244 C 0.12916 0.94815 0.43461 0.0
C1245 C 0.1272 0.95183 0.45988 0.0
C1246 C 0.14878 0.95192 0.47379 0.0
C1247 C 0.14691 0.95569 0.49751 0.0
C1248 C 0.12352 0.95928 0.50758 0.0
C1249 C 0.10195 0.95906 0.49394 0.0
C1250 C 0.10372 0.95531 0.47019 0.0
C1251 C 0.07486 0.87873 0.39016 0.0
C1252 C 0.05919 0.88606 0.3723 0.0
C1253 C 0.09357 0.89206 0.39922 0.0
C1254 C 0.09704 0.9129 0.3905 0.0
C1255 C 0.08151 0.92017 0.37261 0.0
C1256 C 0.06291 0.90688 0.36352 0.0
C1257 C 0.11588 0.92764 0.40077 0.0
C1258 C 0.1145 0.93197 0.4245 0.0
C1259 C 0.13352 0.93887 0.38703 0.0
C1260 C 0.13714 0.93371 0.3622 0.0
C1261 C 0.13614 0.95002 0.34544 0.0
C1262 C 0.13895 0.94504 0.32204 0.0
C1263 C 0.14283 0.9238 0.31516 0.0
C1264 C 0.14406 0.90751 0.33169 0.0
C1265 C 0.14136 0.91241 0.35511 0.0
H1266 H 0.14488 0.91997 0.29704 0.0
H1267 H 0.12211 0.96221 0.52595 0.0
H1268 H 0.19801 0.98768 0.93295 0.0
H1269 H 0.17872 0.016 0.90959 0.0
H1270 H 0.10644 0.99998 0.93812 0.0
H1271 H 0.12535 0.97134 0.96078 0.0
H1272 H 0.10233 0.00742 0.89333 0.0
H1273 H 0.1413 0.04223 0.95883 0.0
H1274 H 0.17656 0.0519 0.98431 0.0
H1275 H 0.21505 0.08083 0.92709 0.0
H1276 H 0.18011 0.07107 0.90121 0.0
H1277 H 0.05361 0.12204 0.89892 0.0
H1278 H 0.0822 0.09438 0.91252 0.0
H1279 H 0.09006 0.0705 0.84299 0.0
H1280 H 0.06111 0.09813 0.82917 0.0
H1281 H 0.12997 0.08289 0.90401 0.0
H1282 H 0.09118 0.01511 0.8468 0.0
H1283 H 0.05278 0.0059 0.8252 0.0
H1284 H 0.00899 0.04364 0.87224 0.0
H1285 H 0.04706 0.05281 0.89426 0.0
C1286 C 0.17797 0.99004 0.93401 0.0
C1287 C 0.16326 0.97741 0.94892 0.0
C1288 C 0.167 0.00631 0.92077 0.0
C1289 C 0.14116 0.01025 0.92228 0.0
C1290 C 0.1264 0.99727 0.93667 0.0
C1291 C 0.13731 0.98105 0.94984 0.0
C1292 C 0.12932 0.02829 0.90959 0.0
C1293 C 0.10858 0.0239 0.89545 0.0
C1294 C 0.13728 0.04982 0.91251 0.0
C1295 C 0.15825 0.05569 0.92805 0.0
C1296 C 0.15737 0.0505 0.95166 0.0
C1297 C 0.17728 0.05602 0.96617 0.0
C1298 C 0.19807 0.06691 0.95731 0.0
C1299 C 0.19896 0.07235 0.93392 0.0
C1300 C 0.17911 0.06683 0.91932 0.0
C1301 C 0.06156 0.11105 0.88643 0.0
C1302 C 0.05478 0.11212 0.86299 0.0
C1303 C 0.07806 0.09533 0.89423 0.0
C1304 C 0.08806 0.08025 0.87882 0.0
C1305 C 0.08233 0.08186 0.85522 0.0
C1306 C 0.06583 0.09768 0.84735 0.0
C1307 C 0.10288 0.06201 0.88796 0.0
C1308 C 0.12414 0.06637 0.90143 0.0
C1309 C 0.09506 0.04048 0.88489 0.0
C1310 C 0.072 0.03486 0.87196 0.0
C1311 C 0.07334 0.02139 0.85254 0.0
C1312 C 0.05164 0.01618 0.84024 0.0
C1313 C 0.02848 0.02425 0.84729 0.0
C1314 C 0.02695 0.03747 0.86673 0.0
C1315 C 0.04859 0.0427 0.87912 0.0
H1316 H 0.0117 0.02022 0.83773 0.0
H1317 H 0.21346 0.07118 0.96858 0.0
H1318 H 0.82719 0.00164 0.47103 0.0
H1319 H 0.85081 0.97223 0.4537 0.0
H1320 H 0.85318 0.00625 0.38893 0.0
H1321 H 0.8301 0.03608 0.40627 0.0
H1322 H 0.84406 0.96106 0.38448 0.0
H1323 H 0.90173 0.00982 0.42143 0.0
H1324 H 0.91768 0.03145 0.45394 0.0
H1325 H 0.92644 0.97434 0.49463 0.0
H1326 H 0.91013 0.9524 0.46246 0.0
H1327 H 0.94719 0.90615 0.33334 0.0
H1328 H 0.91718 0.93233 0.34809 0.0
H1329 H 0.9243 0.90536 0.41637 0.0
H1330 H 0.95478 0.87951 0.4019 0.0
H1331 H 0.92759 0.947 0.41869 0.0
H1332 H 0.87117 0.89774 0.3823 0.0
H1333 H 0.85433 0.87557 0.35061 0.0
H1334 H 0.84235 0.93214 0.30979 0.0
H1335 H 0.85946 0.95465 0.34113 0.0
C1336 C 0.83272 0.00292 0.4531 0.0
C1337 C 0.82703 0.02139 0.44015 0.0
C1338 C 0.84607 0.98602 0.44319 0.0
C1339 C 0.85394 0.98719 0.42012 0.0
C1340 C 0.84722 0.00505 0.40676 0.0
C1341 C 0.83397 0.02205 0.41671 0.0
C1342 C 0.87065 0.97047 0.41051 0.0
C1343 C 0.86245 0.95808 0.39174 0.0
C1344 C 0.89439 0.96636 0.42035 0.0
C1345 C 0.90447 0.9795 0.43962 0.0
C1346 C 0.90687 0.0019 0.43737 0.0
C1347 C 0.916 0.01421 0.45573 0.0
C1348 C 0.923 0.00428 0.47636 0.0
C1349 C 0.92096 0.98201 0.47865 0.0
C1350 C 0.91179 0.96963 0.46036 0.0
C1351 C 0.94223 0.90567 0.35147 0.0
C1352 C 0.95351 0.8908 0.36647 0.0
C1353 C 0.92495 0.9206 0.35986 0.0
C1354 C 0.9183 0.92074 0.38333 0.0
C1355 C 0.92918 0.90562 0.39821 0.0
C1356 C 0.94659 0.89083 0.38989 0.0
C1357 C 0.90102 0.93728 0.39266 0.0
C1358 C 0.90918 0.94979 0.41139 0.0
C1359 C 0.8772 0.94134 0.38284 0.0
C1360 C 0.86683 0.92786 0.36398 0.0
C1361 C 0.86513 0.90544 0.3665 0.0
C1362 C 0.8555 0.89282 0.34861 0.0
C1363 C 0.84734 0.90243 0.32817 0.0
C1364 C 0.84872 0.92471 0.32561 0.0
C1365 C 0.85835 0.93742 0.34344 0.0
H1366 H 0.83989 0.89263 0.31434 0.0
H1367 H 0.93007 0.01384 0.49055 0.0
H1368 H 0.30852 0.3571 0.12857 0.0
H1369 H 0.32909 0.34624 0.16441 0.0
H1370 H 0.39558 0.38094 0.14414 0.0
H1371 H 0.37597 0.39043 0.10776 0.0
H1372 H 0.40951 0.34639 0.16254 0.0
H1373 H 0.35067 0.4009 0.18408 0.0
H1374 H 0.3092 0.41797 0.18726 0.0
H1375 H 0.28198 0.36413 0.22625 0.0
H1376 H 0.32323 0.34661 0.22304 0.0
H1377 H 0.43539 0.37461 0.28972 0.0
H1378 H 0.40903 0.3781 0.25561 0.0
H1379 H 0.42612 0.31287 0.23625 0.0
H1380 H 0.45314 0.3094 0.2701 0.0
H1381 H 0.36901 0.36035 0.23812 0.0
H1382 H 0.43289 0.31014 0.17801 0.0
H1383 H 0.47732 0.29987 0.17435 0.0
H1384 H 0.49921 0.35611 0.2123 0.0
H1385 H 0.455 0.36682 0.21592 0.0
C1386 C 0.32765 0.36215 0.13156 0.0
C1387 C 0.34042 0.37489 0.11528 0.0
C1388 C 0.3393 0.35614 0.15224 0.0
C1389 C 0.36379 0.36305 0.15723 0.0
C1390 C 0.37667 0.37542 0.14081 0.0
C1391 C 0.36523 0.38113 0.12007 0.0
C1392 C 0.37616 0.35774 0.17954 0.0
C1393 C 0.40052 0.34931 0.17904 0.0
C1394 C 0.36474 0.36188 0.20116 0.0
C1395 C 0.33992 0.37234 0.20308 0.0
C1396 C 0.33577 0.39263 0.19317 0.0
C1397 C 0.31233 0.4024 0.19501 0.0
C1398 C 0.29295 0.39211 0.20688 0.0
C1399 C 0.297 0.37206 0.21701 0.0
C1400 C 0.3204 0.36221 0.2152 0.0
C1401 C 0.43337 0.36088 0.27838 0.0
C1402 C 0.44672 0.34181 0.2825 0.0
C1403 C 0.41817 0.36289 0.25889 0.0
C1404 C 0.41592 0.34588 0.24313 0.0
C1405 C 0.42796 0.32636 0.24793 0.0
C1406 C 0.44332 0.32437 0.26737 0.0
C1407 C 0.40234 0.34917 0.22103 0.0
C1408 C 0.37778 0.35714 0.22159 0.0
C1409 C 0.41396 0.34549 0.19942 0.0
C1410 C 0.44061 0.33911 0.19747 0.0
C1411 C 0.4472 0.3203 0.18555 0.0
C1412 C 0.47235 0.31442 0.18348 0.0
C1413 C 0.49107 0.32729 0.19314 0.0
C1414 C 0.48471 0.3461 0.20489 0.0
C1415 C 0.4596 0.35206 0.20699 0.0
H1416 H 0.51051 0.32272 0.19142 0.0
H1417 H 0.27481 0.3997 0.20829 0.0
H1418 H 0.69397 0.64402 0.62494 0.0
H1419 H 0.6738 0.6544 0.6611 0.0
H1420 H 0.60569 0.62302 0.63925 0.0
H1421 H 0.62499 0.61406 0.60253 0.0
H1422 H 0.5935 0.65733 0.65962 0.0
H1423 H 0.64967 0.59966 0.67797 0.0
H1424 H 0.6903 0.58103 0.67995 0.0
H1425 H 0.72036 0.63216 0.72135 0.0
H1426 H 0.67997 0.65122 0.71937 0.0
H1427 H 0.56598 0.62472 0.785 0.0
H1428 H 0.59225 0.62157 0.75076 0.0
H1429 H 0.57989 0.68843 0.73519 0.0
H1430 H 0.55299 0.69162 0.76915 0.0
H1431 H 0.63365 0.63845 0.73411 0.0
H1432 H 0.57266 0.69396 0.67711 0.0
H1433 H 0.52911 0.70702 0.67537 0.0
H1434 H 0.50379 0.65057 0.71105 0.0
H1435 H 0.5471 0.63702 0.71264 0.0
C1436 C 0.67457 0.63964 0.62763 0.0
C1437 C 0.66125 0.62794 0.61081 0.0
C1438 C 0.66313 0.64537 0.64849 0.0
C1439 C 0.63832 0.63917 0.65316 0.0
C1440 C 0.62487 0.62795 0.63618 0.0
C1441 C 0.63611 0.62254 0.61524 0.0
C1442 C 0.6263 0.64392 0.67577 0.0
C1443 C 0.60241 0.65331 0.67588 0.0
C1444 C 0.63762 0.63839 0.69708 0.0
C1445 C 0.6619 0.62698 0.69829 0.0
C1446 C 0.66501 0.607 0.68735 0.0
C1447 C 0.68798 0.59636 0.68849 0.0
C1448 C 0.70792 0.60544 0.70071 0.0
C1449 C 0.70491 0.62517 0.71186 0.0
C1450 C 0.68198 0.63589 0.71074 0.0
C1451 C 0.56905 0.63886 0.77448 0.0
C1452 C 0.55702 0.65835 0.77963 0.0
C1453 C 0.5842 0.63703 0.75493 0.0
C1454 C 0.58771 0.65465 0.74018 0.0
C1455 C 0.57706 0.6745 0.74609 0.0
C1456 C 0.56172 0.67631 0.76555 0.0
C1457 C 0.60092 0.65173 0.71784 0.0
C1458 C 0.62497 0.64273 0.71781 0.0
C1459 C 0.58936 0.65683 0.69654 0.0
C1460 C 0.56317 0.66463 0.69524 0.0
C1461 C 0.55778 0.68431 0.68449 0.0
C1462 C 0.53314 0.69179 0.68353 0.0
C1463 C 0.51371 0.67967 0.69316 0.0
C1464 C 0.51886 0.65998 0.70366 0.0
C1465 C 0.54345 0.6524 0.7046 0.0
H1466 H 0.49467 0.68551 0.69245 0.0
H1467 H 0.72569 0.59717 0.70158 0.0
H1468 H 0.69594 0.34654 0.13391 0.0
H1469 H 0.6725 0.34082 0.16979 0.0
H1470 H 0.6031 0.34396 0.13177 0.0
H1471 H 0.62644 0.35028 0.09612 0.0
H1472 H 0.60017 0.36828 0.16783 0.0
H1473 H 0.62798 0.2958 0.1546 0.0
H1474 H 0.65913 0.26736 0.14767 0.0
H1475 H 0.69525 0.28249 0.21189 0.0
H1476 H 0.66449 0.31122 0.21906 0.0
H1477 H 0.51563 0.33781 0.25329 0.0
H1478 H 0.54182 0.33707 0.21869 0.0
H1479 H 0.60795 0.33264 0.2612 0.0
H1480 H 0.58142 0.33193 0.29595 0.0
H1481 H 0.61424 0.30947 0.22404 0.0
H1482 H 0.58625 0.38217 0.2369 0.0
H1483 H 0.55435 0.40998 0.24395 0.0
H1484 H 0.51822 0.39396 0.17998 0.0
H1485 H 0.54975 0.3659 0.17268 0.0
C1486 C 0.67569 0.34569 0.13324 0.0
C1487 C 0.66296 0.34892 0.1123 0.0
C1488 C 0.66231 0.34238 0.15372 0.0
C1489 C 0.63599 0.34181 0.1535 0.0
C1490 C 0.62337 0.34443 0.13243 0.0
C1491 C 0.63669 0.34803 0.11207 0.0
C1492 C 0.62142 0.33974 0.17526 0.0
C1493 C 0.60307 0.35523 0.17994 0.0
C1494 C 0.62567 0.32313 0.19149 0.0
C1495 C 0.64408 0.3058 0.18725 0.0
C1496 C 0.64268 0.29316 0.16716 0.0
C1497 C 0.66024 0.27697 0.16321 0.0
C1498 C 0.6792 0.27316 0.1793 0.0
C1499 C 0.68058 0.28548 0.19942 0.0
C1500 C 0.66307 0.30171 0.20345 0.0
C1501 C 0.53576 0.33648 0.25515 0.0
C1502 C 0.54669 0.33517 0.27709 0.0
C1503 C 0.5507 0.33618 0.23543 0.0
C1504 C 0.57691 0.3355 0.23731 0.0
C1505 C 0.58779 0.33337 0.2593 0.0
C1506 C 0.57272 0.33303 0.2791 0.0
C1507 C 0.59277 0.3378 0.21634 0.0
C1508 C 0.61142 0.32249 0.2119 0.0
C1509 C 0.58884 0.35459 0.20024 0.0
C1510 C 0.57032 0.3719 0.20429 0.0
C1511 C 0.57149 0.38458 0.22436 0.0
C1512 C 0.55346 0.40037 0.22841 0.0
C1513 C 0.53426 0.40373 0.21243 0.0
C1514 C 0.53312 0.39137 0.19232 0.0
C1515 C 0.55109 0.37555 0.1882 0.0
H1516 H 0.52028 0.41592 0.21563 0.0
H1517 H 0.69278 0.26062 0.17621 0.0
H1518 H 0.30874 0.65084 0.62727 0.0
H1519 H 0.32762 0.66149 0.66418 0.0
H1520 H 0.39333 0.62443 0.64801 0.0
H1521 H 0.37541 0.6146 0.61086 0.0
H1522 H 0.37014 0.61629 0.69312 0.0
H1523 H 0.39815 0.67459 0.64256 0.0
H1524 H 0.39062 0.70513 0.61641 0.0
H1525 H 0.34891 0.73724 0.66951 0.0
H1526 H 0.35592 0.70671 0.69588 0.0
H1527 H 0.47426 0.63727 0.75811 0.0
H1528 H 0.444 0.63492 0.72698 0.0
H1529 H 0.40002 0.68499 0.75849 0.0
H1530 H 0.43093 0.68781 0.78993 0.0
H1531 H 0.40245 0.68922 0.711 0.0
H1532 H 0.3803 0.63473 0.76392 0.0
H1533 H 0.38719 0.60474 0.79093 0.0
H1534 H 0.4145 0.56566 0.73534 0.0
H1535 H 0.40824 0.59553 0.70805 0.0
C1536 C 0.32737 0.64522 0.63139 0.0
C1537 C 0.34039 0.63162 0.6161 0.0
C1538 C 0.33802 0.65122 0.65255 0.0
C1539 C 0.36175 0.64359 0.65881 0.0
C1540 C 0.37487 0.63028 0.64355 0.0
C1541 C 0.36446 0.62455 0.62236 0.0
C1542 C 0.37314 0.64896 0.68138 0.0
C1543 C 0.37719 0.63222 0.69709 0.0
C1544 C 0.38135 0.66994 0.6869 0.0
C1545 C 0.37725 0.68826 0.67107 0.0
C1546 C 0.38715 0.68807 0.64857 0.0
C1547 C 0.38303 0.70539 0.63373 0.0
C1548 C 0.36922 0.72308 0.64126 0.0
C1549 C 0.35956 0.72351 0.66368 0.0
C1550 C 0.36361 0.7062 0.67858 0.0
C1551 C 0.45818 0.64783 0.75855 0.0
C1552 C 0.4548 0.66252 0.77671 0.0
C1553 C 0.44085 0.64643 0.7407 0.0
C1554 C 0.41944 0.6594 0.7407 0.0
C1555 C 0.41634 0.6747 0.7583 0.0
C1556 C 0.43395 0.67627 0.77622 0.0
C1557 C 0.40043 0.6563 0.72231 0.0
C1558 C 0.39486 0.6734 0.7074 0.0
C1559 C 0.39043 0.63566 0.71766 0.0
C1560 C 0.39386 0.61744 0.73393 0.0
C1561 C 0.3879 0.61978 0.75746 0.0
C1562 C 0.39169 0.6028 0.77283 0.0
C1563 C 0.40128 0.58331 0.76486 0.0
C1564 C 0.40705 0.58076 0.74149 0.0
C1565 C 0.40335 0.59771 0.72605 0.0
H1566 H 0.40422 0.57018 0.77678 0.0
H1567 H 0.36605 0.73648 0.62975 0.0
H1568 H 0.8135 0.85062 0.12644 0.0
H1569 H 0.83452 0.83845 0.16162 0.0
H1570 H 0.90144 0.87244 0.1412 0.0
H1571 H 0.88123 0.88347 0.10557 0.0
H1572 H 0.91425 0.83616 0.15842 0.0
H1573 H 0.85761 0.89253 0.1816 0.0
H1574 H 0.81659 0.91017 0.18591 0.0
H1575 H 0.7895 0.85654 0.2253 0.0
H1576 H 0.83031 0.83846 0.22097 0.0
H1577 H 0.97553 0.86751 0.2598 0.0
H1578 H 0.94823 0.86738 0.22614 0.0
H1579 H 0.90605 0.81465 0.25479 0.0
H1580 H 0.93377 0.81436 0.28874 0.0
H1581 H 0.87747 0.85292 0.23498 0.0
H1582 H 0.93978 0.80023 0.21579 0.0
H1583 H 0.98298 0.78671 0.21266 0.0
H1584 H 0.0015 0.83803 0.16618 0.0
H1585 H 0.95849 0.85208 0.16932 0.0
C1586 C 0.83282 0.85523 0.12929 0.0
C1587 C 0.84555 0.86827 0.11325 0.0
C1588 C 0.84473 0.84844 0.14954 0.0
C1589 C 0.86947 0.85479 0.15428 0.0
C1590 C 0.88233 0.86736 0.13803 0.0
C1591 C 0.87059 0.87392 0.11774 0.0
C1592 C 0.88211 0.84889 0.17625 0.0
C1593 C 0.90615 0.83984 0.17512 0.0
C1594 C 0.87141 0.85323 0.19816 0.0
C1595 C 0.84687 0.86402 0.20069 0.0
C1596 C 0.84283 0.88442 0.19101 0.0
C1597 C 0.81964 0.89451 0.19348 0.0
C1598 C 0.80042 0.88444 0.20579 0.0
C1599 C 0.80438 0.86429 0.21571 0.0
C1600 C 0.82753 0.85411 0.21326 0.0
C1601 C 0.9604 0.85591 0.25911 0.0
C1602 C 0.95686 0.84089 0.27695 0.0
C1603 C 0.94487 0.85584 0.2398 0.0
C1604 C 0.9253 0.84093 0.23798 0.0
C1605 C 0.92115 0.82624 0.25595 0.0
C1606 C 0.93701 0.82607 0.27523 0.0
C1607 C 0.90967 0.84081 0.21692 0.0
C1608 C 0.88519 0.84875 0.21824 0.0
C1609 C 0.92013 0.8359 0.19515 0.0
C1610 C 0.94592 0.82728 0.19291 0.0
C1611 C 0.9531 0.80873 0.20503 0.0
C1612 C 0.97755 0.80095 0.20323 0.0
C1613 C 0.99499 0.81153 0.18926 0.0
C1614 C 0.98797 0.82986 0.177 0.0
C1615 C 0.96354 0.83772 0.17876 0.0
H1616 H 0.01392 0.8055 0.18791 0.0
H1617 H 0.78248 0.89229 0.20771 0.0
H1618 H 0.19731 0.144 0.63264 0.0
H1619 H 0.17685 0.15704 0.6679 0.0
H1620 H 0.10516 0.13723 0.64088 0.0
H1621 H 0.12528 0.12475 0.60558 0.0
H1622 H 0.10264 0.17642 0.66051 0.0
H1623 H 0.13717 0.10653 0.67981 0.0
H1624 H 0.1714 0.08038 0.68443 0.0
H1625 H 0.20822 0.1226 0.73229 0.0
H1626 H 0.17432 0.14913 0.72772 0.0
H1627 H 0.02261 0.14792 0.75315 0.0
H1628 H 0.05104 0.14838 0.72004 0.0
H1629 H 0.10557 0.18343 0.76011 0.0
H1630 H 0.07666 0.18367 0.79324 0.0
H1631 H 0.12275 0.14374 0.73633 0.0
H1632 H 0.08142 0.20949 0.72325 0.0
H1633 H 0.04694 0.23517 0.71809 0.0
H1634 H 0.02284 0.20146 0.65736 0.0
H1635 H 0.05635 0.1749 0.66277 0.0
C1636 C 0.17716 0.14264 0.63417 0.0
C1637 C 0.16292 0.13316 0.61643 0.0
C1638 C 0.16553 0.14996 0.65436 0.0
C1639 C 0.1395 0.14794 0.65708 0.0
C1640 C 0.12526 0.13893 0.63916 0.0
C1641 C 0.13683 0.1316 0.61909 0.0
C1642 C 0.12678 0.15463 0.67868 0.0
C1643 C 0.10689 0.16922 0.6771 0.0
C1644 C 0.13308 0.14585 0.70044 0.0
C1645 C 0.1534 0.12991 0.7032 0.0
C1646 C 0.15267 0.11031 0.69117 0.0
C1647 C 0.17199 0.09541 0.6938 0.0
C1648 C 0.19202 0.09986 0.70858 0.0
C1649 C 0.19273 0.1192 0.72081 0.0
C1650 C 0.17347 0.13417 0.71821 0.0
C1651 C 0.0406 0.15583 0.75487 0.0
C1652 C 0.04755 0.16568 0.77574 0.0
C1653 C 0.05674 0.15618 0.73593 0.0
C1654 C 0.08031 0.16601 0.73766 0.0
C1655 C 0.08737 0.17586 0.75848 0.0
C1656 C 0.07091 0.17601 0.7773 0.0
C1657 C 0.09785 0.1648 0.71793 0.0
C1658 C 0.11869 0.15127 0.71986 0.0
C1659 C 0.09226 0.17444 0.69643 0.0
C1660 C 0.07132 0.18994 0.69364 0.0
C1661 C 0.06846 0.20721 0.70908 0.0
C1662 C 0.04907 0.22198 0.70609 0.0
C1663 C 0.03262 0.21989 0.68748 0.0
C1664 C 0.03553 0.20302 0.67183 0.0
C1665 C 0.05466 0.18803 0.67493 0.0
H1666 H 0.01768 0.23139 0.68513 0.0
H1667 H 0.20695 0.0883 0.71061 0.0
H1668 H 0.16939 0.8265 0.11162 0.0
H1669 H 0.1475 0.82118 0.14833 0.0
H1670 H 0.15849 0.888 0.16517 0.0
H1671 H 0.18076 0.89335 0.12868 0.0
H1672 H 0.16634 0.86173 0.20265 0.0
H1673 H 0.10406 0.87185 0.14391 0.0
H1674 H 0.08221 0.86459 0.10724 0.0
H1675 H 0.06551 0.80047 0.12979 0.0
H1676 H 0.08766 0.80723 0.16647 0.0
H1677 H 0.07069 0.87557 0.28701 0.0
H1678 H 0.09926 0.87741 0.25418 0.0
H1679 H 0.08152 0.81177 0.2367 0.0
H1680 H 0.05247 0.80993 0.2692 0.0
H1681 H 0.07833 0.83622 0.19993 0.0
H1682 H 0.13919 0.82671 0.25976 0.0
H1683 H 0.16059 0.83446 0.29655 0.0
H1684 H 0.1794 0.89765 0.27247 0.0
H1685 H 0.15777 0.89041 0.23564 0.0
C1686 C 0.16748 0.83997 0.12331 0.0
C1687 C 0.17667 0.86037 0.11721 0.0
C1688 C 0.15482 0.83695 0.14419 0.0
C1689 C 0.15113 0.85425 0.15936 0.0
C1690 C 0.16107 0.87445 0.15369 0.0
C1691 C 0.17361 0.87751 0.13277 0.0
C1692 C 0.13605 0.85153 0.18067 0.0
C1693 C 0.14702 0.85632 0.20209 0.0
C1694 C 0.11101 0.8441 0.17993 0.0
C1695 C 0.09781 0.83996 0.15782 0.0
C1696 C 0.09597 0.85613 0.14096 0.0
C1697 C 0.08349 0.85212 0.12018 0.0
C1698 C 0.07255 0.83206 0.11615 0.0
C1699 C 0.07404 0.81598 0.13291 0.0
C1700 C 0.08656 0.81989 0.15369 0.0
C1701 C 0.07306 0.86143 0.27635 0.0
C1702 C 0.05915 0.84263 0.28068 0.0
C1703 C 0.08953 0.86248 0.25763 0.0
C1704 C 0.09269 0.84468 0.24303 0.0
C1705 C 0.07936 0.82572 0.2477 0.0
C1706 C 0.06279 0.82468 0.26633 0.0
C1707 C 0.10861 0.84626 0.22205 0.0
C1708 C 0.09773 0.84139 0.20061 0.0
C1709 C 0.1337 0.85364 0.22283 0.0
C1710 C 0.14669 0.85806 0.24499 0.0
C1711 C 0.14771 0.84232 0.26237 0.0
C1712 C 0.15991 0.84662 0.28322 0.0
C1713 C 0.17133 0.86654 0.28685 0.0
C1714 C 0.17055 0.88223 0.26963 0.0
C1715 C 0.15834 0.87803 0.24875 0.0
H1716 H 0.18082 0.86981 0.30298 0.0
H1717 H 0.06287 0.82899 0.10007 0.0
H1718 H 0.83172 0.09846 0.63208 0.0
H1719 H 0.85044 0.10846 0.66914 0.0
H1720 H 0.86605 0.1719 0.64292 0.0
H1721 H 0.84738 0.16195 0.60572 0.0
H1722 H 0.90735 0.15236 0.66368 0.0
H1723 H 0.8211 0.16609 0.68141 0.0
H1724 H 0.77611 0.15752 0.68401 0.0
H1725 H 0.79218 0.10524 0.72993 0.0
H1726 H 0.83733 0.1133 0.72734 0.0
H1727 H 0.95348 0.19243 0.76844 0.0
H1728 H 0.92509 0.18915 0.73555 0.0
H1729 H 0.90413 0.12553 0.75778 0.0
H1730 H 0.93219 0.12873 0.79091 0.0
H1731 H 0.86397 0.14762 0.73933 0.0
H1732 H 0.94841 0.12971 0.71834 0.0
H1733 H 0.99389 0.13663 0.71737 0.0
H1734 H 0.98145 0.19423 0.67833 0.0
H1735 H 0.93592 0.18768 0.6792 0.0
C1736 C 0.83904 0.11457 0.63426 0.0
C1737 C 0.83815 0.12942 0.61601 0.0
C1738 C 0.84957 0.1203 0.65547 0.0
C1739 C 0.8595 0.14096 0.6588 0.0
C1740 C 0.8584 0.1559 0.6407 0.0
C1741 C 0.84762 0.15025 0.61954 0.0
C1742 C 0.87216 0.14651 0.6808 0.0
C1743 C 0.89772 0.15174 0.68016 0.0
C1744 C 0.85979 0.14504 0.70236 0.0
C1745 C 0.83263 0.1402 0.70402 0.0
C1746 C 0.81507 0.15266 0.69191 0.0
C1747 C 0.78953 0.14791 0.69341 0.0
C1748 C 0.78129 0.13081 0.70708 0.0
C1749 C 0.79859 0.11846 0.71933 0.0
C1750 C 0.82415 0.12313 0.71787 0.0
C1751 C 0.94254 0.17787 0.76659 0.0
C1752 C 0.94545 0.16071 0.78212 0.0
C1753 C 0.92632 0.17602 0.74776 0.0
C1754 C 0.91282 0.15696 0.74404 0.0
C1755 C 0.91443 0.14036 0.76031 0.0
C1756 C 0.93061 0.14219 0.77916 0.0
C1757 C 0.89904 0.15353 0.72212 0.0
C1758 C 0.87343 0.14853 0.72278 0.0
C1759 C 0.91138 0.15486 0.70055 0.0
C1760 C 0.9388 0.1583 0.69898 0.0
C1761 C 0.95542 0.14385 0.70956 0.0
C1762 C 0.98119 0.1477 0.70904 0.0
C1763 C 0.99058 0.16588 0.69786 0.0
C1764 C 0.97421 0.18014 0.68698 0.0
C1765 C 0.9484 0.17635 0.68743 0.0
H1766 H 0.01053 0.16886 0.69767 0.0
H1767 H 0.76151 0.12716 0.70822 0.0
loop_
_geom_bond_atom_site_label_1
_geom_bond_atom_site_label_2
_geom_bond_distance
_geom_bond_site_symmetry_2
_ccdc_geom_bond_type
C0 C1 1.391 . S
C0 C4 1.391 . S
C0 H42 0.948 . S
C1 C0 1.391 . S
C1 C2 1.391 . S
C2 C1 1.391 . S
C2 H58 0.947 . S
C2 C59 1.392 . S
C3 C4 1.391 . S
C3 C7 1.397 . S
C3 C59 1.419 . S
C4 C0 1.391 . S
C4 C3 1.391 . S
C4 C5 1.399 . S
C5 C4 1.399 . S
C5 C8 1.396 . S
C5 C17 1.453 . S
C5 C18 1.684 . S
H6 C30 0.948 . S
C7 C3 1.397 . S
C7 C8 1.394 . S
C7 C26 1.723 . S
C8 C5 1.396 . S
C8 C7 1.394 . S
C8 C38 1.723 . S
H9 C32 0.947 1_554 S
H10 C33 0.948 . S
H11 C39 0.982 . S
H12 C40 0.979 . S
H13 C40 0.980 . S
H14 C40 0.983 . S
H15 C39 0.979 . S
H16 C39 0.977 . S
C17 C5 1.453 . S
C17 H46 0.982 . S
C17 H47 0.979 . S
C17 H48 0.977 . S
C18 C5 1.684 . S
C18 H43 0.979 . S
C18 H44 0.980 . S
C18 H45 0.983 . S
C19 C20 1.391 . S
C19 C24 1.391 . S
C19 H49 0.948 . S
C20 C19 1.391 . S
C20 C21 1.391 . S
C21 C20 1.391 . S
C21 C22 1.392 . S
C21 H50 0.947 . S
C22 C21 1.392 . S
C22 C23 1.419 . S
C22 H51 0.948 . S
C23 C22 1.419 . S
C23 C24 1.391 . S
C23 C27 1.397 . S
C24 C19 1.391 . S
C24 C23 1.391 . S
C24 C25 1.399 1_556 S
C25 C24 1.399 1_554 S
C25 C26 1.396 . S
C25 C28 1.453 . S
C25 C29 1.684 . S
C26 C7 1.723 . S
C26 C25 1.396 . S
C26 C27 1.394 1_554 S
C27 C23 1.397 . S
C27 C26 1.394 1_556 S
C27 C37 1.723 . S
C28 C25 1.453 . S
C28 H52 0.982 . S
C28 H53 0.979 . S
C28 H54 0.977 . S
C29 C25 1.684 . S
C29 H55 0.979 . S
C29 H56 0.980 . S
C29 H57 0.983 . S
C30 H6 0.948 . S
C30 C31 1.391 . S
C30 C35 1.391 . S
C31 C30 1.391 . S
C31 C32 1.391 . S
C32 H9 0.947 1_556 S
C32 C31 1.391 . S
C32 C33 1.392 1_556 S
C33 H10 0.948 . S
C33 C32 1.392 1_554 S
C33 C34 1.419 1_554 S
C34 C33 1.419 1_556 S
C34 C35 1.391 . S
C34 C38 1.397 1_556 S
C35 C30 1.391 . S
C35 C34 1.391 . S
C35 C36 1.399 . S
C36 C35 1.399 . S
C36 C37 1.396 . S
C36 C39 1.453 . S
C36 C40 1.684 . S
C37 C27 1.723 . S
C37 C36 1.396 . S
C37 C38 1.394 1_556 S
C38 C8 1.723 . S
C38 C34 1.397 1_554 S
C38 C37 1.394 1_554 S
C39 H11 0.982 . S
C39 H15 0.979 . S
C39 H16 0.977 . S
C39 C36 1.453 . S
C40 H12 0.979 . S
C40 H13 0.980 . S
C40 H14 0.983 . S
C40 C36 1.684 . S
H41 C59 0.948 . S
H42 C0 0.948 . S
H43 C18 0.979 . S
H44 C18 0.980 . S
H45 C18 0.983 . S
H46 C17 0.982 . S
H47 C17 0.979 . S
H48 C17 0.977 . S
H49 C19 0.948 . S
H50 C21 0.947 . S
H51 C22 0.948 . S
H52 C28 0.982 . S
H53 C28 0.979 . S
H54 C28 0.977 . S
H55 C29 0.979 . S
H56 C29 0.980 . S
H57 C29 0.983 . S
H58 C2 0.947 . S
C59 C2 1.392 . S
C59 C3 1.419 . S
C59 H41 0.948 . S
C60 C61 1.391 . S
C60 C64 1.391 . S
C60 H102 0.948 . S
C61 C60 1.391 . S
C61 C62 1.391 . S
C62 C61 1.391 . S
C62 H118 0.947 . S
C62 C119 1.392 . S
C63 C64 1.391 . S
C63 C67 1.397 . S
C63 C119 1.419 . S
C64 C60 1.391 . S
C64 C63 1.391 . S
C64 C65 1.399 . S
C65 C64 1.399 . S
C65 C68 1.396 . S
C65 C77 1.453 . S
C65 C78 1.684 . S
H66 C90 0.948 . S
C67 C63 1.397 . S
C67 C68 1.394 . S
C67 C86 1.723 . S
C68 C65 1.396 . S
C68 C67 1.394 . S
C68 C98 1.723 . S
H69 C92 0.947 . S
H70 C93 0.948 . S
H71 C99 0.982 . S
H72 C100 0.979 . S
H73 C100 0.980 . S
H74 C100 0.983 . S
H75 C99 0.979 . S
H76 C99 0.977 . S
C77 C65 1.453 . S
C77 H106 0.982 . S
C77 H107 0.979 . S
C77 H108 0.977 . S
C78 C65 1.684 . S
C78 H103 0.979 . S
C78 H104 0.980 . S
C78 H105 0.983 . S
C79 C80 1.391 . S
C79 C84 1.391 . S
C79 H109 0.948 . S
C80 C79 1.391 . S
C80 C81 1.391 . S
C81 C80 1.391 . S
C81 C82 1.392 . S
C81 H110 0.947 . S
C82 C81 1.392 . S
C82 C83 1.419 . S
C82 H111 0.948 . S
C83 C82 1.419 . S
C83 C84 1.391 . S
C83 C87 1.397 . S
C84 C79 1.391 . S
C84 C83 1.391 . S
C84 C85 1.399 . S
C85 C84 1.399 . S
C85 C86 1.396 . S
C85 C88 1.453 . S
C85 C89 1.684 . S
C86 C67 1.723 . S
C86 C85 1.396 . S
C86 C87 1.394 . S
C87 C83 1.397 . S
C87 C86 1.394 . S
C87 C97 1.723 . S
C88 C85 1.453 . S
C88 H112 0.982 . S
C88 H113 0.979 . S
C88 H114 0.977 . S
C89 C85 1.684 . S
C89 H115 0.979 . S
C89 H116 0.980 . S
C89 H117 0.983 . S
C90 H66 0.948 . S
C90 C91 1.391 . S
C90 C95 1.391 . S
C91 C90 1.391 . S
C91 C92 1.391 . S
C92 H69 0.947 . S
C92 C91 1.391 . S
C92 C93 1.392 . S
C93 H70 0.948 . S
C93 C92 1.392 . S
C93 C94 1.419 . S
C94 C93 1.419 . S
C94 C95 1.391 . S
C94 C98 1.397 . S
C95 C90 1.391 . S
C95 C94 1.391 . S
C95 C96 1.399 . S
C96 C95 1.399 . S
C96 C97 1.396 . S
C96 C99 1.453 . S
C96 C100 1.684 . S
C97 C87 1.723 . S
C97 C96 1.396 . S
C97 C98 1.394 . S
C98 C68 1.723 . S
C98 C94 1.397 . S
C98 C97 1.394 . S
C99 H71 0.982 . S
C99 H75 0.979 . S
C99 H76 0.977 . S
C99 C96 1.453 . S
C100 H72 0.979 . S
C100 H73 0.980 . S
C100 H74 0.983 . S
C100 C96 1.684 . S
H101 C119 0.948 . S
H102 C60 0.948 . S
H103 C78 0.979 . S
H104 C78 0.980 . S
H105 C78 0.983 . S
H106 C77 0.982 . S
H107 C77 0.979 . S
H108 C77 0.977 . S
H109 C79 0.948 . S
H110 C81 0.947 . S
H111 C82 0.948 . S
H112 C88 0.982 . S
H113 C88 0.979 . S
H114 C88 0.977 . S
H115 C89 0.979 . S
H116 C89 0.980 . S
H117 C89 0.983 . S
H118 C62 0.947 . S
C119 C62 1.392 . S
C119 C63 1.419 . S
C119 H101 0.948 . S
C120 C121 1.391 . S
C120 C124 1.391 . S
C120 H162 0.948 . S
C121 C120 1.391 . S
C121 C122 1.391 . S
C122 C121 1.391 . S
C122 H178 0.947 . S
C122 C179 1.392 . S
C123 C124 1.391 . S
C123 C127 1.415 . S
C123 C179 1.419 . S
C124 C120 1.391 . S
C124 C123 1.391 . S
C124 C125 1.399 . S
C125 C124 1.399 . S
C125 C128 1.396 . S
C125 C137 1.453 . S
C125 C138 1.684 . S
H126 C150 0.948 . S
C127 C123 1.415 . S
C127 C128 1.420 . S
C127 C146 1.685 1_556 S
C128 C125 1.396 . S
C128 C127 1.420 . S
C128 C158 1.723 . S
H129 C152 0.947 . S
H130 C153 0.948 . S
H131 C159 0.982 . S
H132 C160 0.979 . S
H133 C160 0.980 . S
H134 C160 0.983 . S
H135 C159 0.979 . S
H136 C159 0.977 . S
C137 C125 1.453 . S
C137 H166 0.982 . S
C137 H167 0.979 . S
C137 H168 0.977 . S
C138 C125 1.684 . S
C138 H163 0.979 . S
C138 H164 0.980 . S
C138 H165 0.983 . S
C139 C140 1.391 . S
C139 C144 1.391 . S
C139 H169 0.948 . S
C140 C139 1.391 . S
C140 C141 1.391 . S
C141 C140 1.391 . S
C141 C142 1.392 . S
C141 H170 0.947 . S
C142 C141 1.392 . S
C142 C143 1.419 . S
C142 H171 0.948 . S
C143 C142 1.419 . S
C143 C144 1.391 . S
C143 C147 1.397 . S
C144 C139 1.391 . S
C144 C143 1.391 . S
C144 C145 1.399 . S
C145 C144 1.399 . S
C145 C146 1.396 . S
C145 C148 1.453 . S
C145 C149 1.684 . S
C146 C127 1.685 1_554 S
C146 C145 1.396 . S
C146 C147 1.394 . S
C147 C143 1.397 . S
C147 C146 1.394 . S
C147 C157 1.723 . S
C148 C145 1.453 . S
C148 H172 0.982 . S
C148 H173 0.979 . S
C148 H174 0.977 . S
C149 C145 1.684 . S
C149 H175 0.979 . S
C149 H176 0.980 . S
C149 H177 0.983 . S
C150 H126 0.948 . S
C150 C151 1.391 . S
C150 C155 1.391 . S
C151 C150 1.391 . S
C151 C152 1.391 . S
C152 H129 0.947 . S
C152 C151 1.391 . S
C152 C153 1.392 . S
C153 H130 0.948 . S
C153 C152 1.392 . S
C153 C154 1.419 . S
C154 C153 1.419 . S
C154 C155 1.391 . S
C154 C158 1.397 . S
C155 C150 1.391 . S
C155 C154 1.391 . S
C155 C156 1.399 1_556 S
C156 C155 1.399 1_554 S
C156 C157 1.396 . S
C156 C159 1.453 . S
C156 C160 1.684 . S
C157 C147 1.723 . S
C157 C156 1.396 . S
C157 C158 1.394 1_554 S
C158 C128 1.723 . S
C158 C154 1.397 . S
C158 C157 1.394 1_556 S
C159 H131 0.982 . S
C159 H135 0.979 . S
C159 H136 0.977 . S
C159 C156 1.453 . S
C160 H132 0.979 . S
C160 H133 0.980 . S
C160 H134 0.983 . S
C160 C156 1.684 . S
H161 C179 0.948 1_554 S
H162 C120 0.948 . S
H163 C138 0.979 . S
H164 C138 0.980 . S
H165 C138 0.983 . S
H166 C137 0.982 . S
H167 C137 0.979 . S
H168 C137 0.977 . S
H169 C139 0.948 . S
H170 C141 0.947 . S
H171 C142 0.948 . S
H172 C148 0.982 . S
H173 C148 0.979 . S
H174 C148 0.977 . S
H175 C149 0.979 . S
H176 C149 0.980 . S
H177 C149 0.983 . S
H178 C122 0.947 . S
C179 C122 1.392 . S
C179 C123 1.419 . S
C179 H161 0.948 1_556 S
C180 C181 1.391 . S
C180 C184 1.391 . S
C180 H222 0.948 . S
C181 C180 1.391 . S
C181 C182 1.391 . S
C182 C181 1.391 . S
C182 H238 0.947 . S
C182 C239 1.392 . S
C183 C184 1.391 . S
C183 C187 1.397 . S
C183 C239 1.419 . S
C184 C180 1.391 . S
C184 C183 1.391 . S
C184 C185 1.399 . S
C185 C184 1.399 . S
C185 C188 1.396 . S
C185 C197 1.453 . S
C185 C198 1.684 . S
H186 C210 0.948 . S
C187 C183 1.397 . S
C187 C188 1.394 . S
C187 C206 1.723 . S
C188 C185 1.396 . S
C188 C187 1.394 . S
C188 C218 1.723 . S
H189 C212 0.947 . S
H190 C213 0.948 . S
H191 C219 0.982 . S
H192 C220 0.979 . S
H193 C220 0.980 . S
H194 C220 0.983 . S
H195 C219 0.979 . S
H196 C219 0.977 . S
C197 C185 1.453 . S
C197 H226 0.982 . S
C197 H227 0.979 . S
C197 H228 0.977 . S
C198 C185 1.684 . S
C198 H223 0.979 . S
C198 H224 0.980 . S
C198 H225 0.983 . S
C199 C200 1.391 . S
C199 C204 1.391 . S
C199 H229 0.948 . S
C200 C199 1.391 . S
C200 C201 1.391 . S
C201 C200 1.391 . S
C201 C202 1.392 . S
C201 H230 0.947 . S
C202 C201 1.392 . S
C202 C203 1.419 . S
C202 H231 0.948 . S
C203 C202 1.419 . S
C203 C204 1.391 . S
C203 C207 1.397 . S
C204 C199 1.391 . S
C204 C203 1.391 . S
C204 C205 1.399 . S
C205 C204 1.399 . S
C205 C206 1.396 . S
C205 C208 1.453 . S
C205 C209 1.684 . S
C206 C187 1.723 . S
C206 C205 1.396 . S
C206 C207 1.394 . S
C207 C203 1.397 . S
C207 C206 1.394 . S
C207 C217 1.723 . S
C208 C205 1.453 . S
C208 H232 0.982 . S
C208 H233 0.979 . S
C208 H234 0.977 . S
C209 C205 1.684 . S
C209 H235 0.979 . S
C209 H236 0.980 . S
C209 H237 0.983 . S
C210 H186 0.948 . S
C210 C211 1.391 . S
C210 C215 1.391 . S
C211 C210 1.391 . S
C211 C212 1.391 . S
C212 H189 0.947 . S
C212 C211 1.391 . S
C212 C213 1.392 . S
C213 H190 0.948 . S
C213 C212 1.392 . S
C213 C214 1.419 . S
C214 C213 1.419 . S
C214 C215 1.391 . S
C214 C218 1.397 . S
C215 C210 1.391 . S
C215 C214 1.391 . S
C215 C216 1.399 . S
C216 C215 1.399 . S
C216 C217 1.396 . S
C216 C219 1.453 . S
C216 C220 1.684 . S
C217 C207 1.723 . S
C217 C216 1.396 . S
C217 C218 1.394 . S
C218 C188 1.723 . S
C218 C214 1.397 . S
C218 C217 1.394 . S
C219 H191 0.982 . S
C219 H195 0.979 . S
C219 H196 0.977 . S
C219 C216 1.453 . S
C220 H192 0.979 . S
C220 H193 0.980 . S
C220 H194 0.983 . S
C220 C216 1.684 . S
H221 C239 0.948 . S
H222 C180 0.948 . S
H223 C198 0.979 . S
H224 C198 0.980 . S
H225 C198 0.983 . S
H226 C197 0.982 . S
H227 C197 0.979 . S
H228 C197 0.977 . S
H229 C199 0.948 . S
H230 C201 0.947 . S
H231 C202 0.948 . S
H232 C208 0.982 . S
H233 C208 0.979 . S
H234 C208 0.977 . S
H235 C209 0.979 . S
H236 C209 0.980 . S
H237 C209 0.983 . S
H238 C182 0.947 . S
C239 C182 1.392 . S
C239 C183 1.419 . S
C239 H221 0.948 . S
C240 C241 1.391 . S
C240 C244 1.391 . S
C240 H282 0.948 . S
C241 C240 1.391 . S
C241 C242 1.391 . S
C242 C241 1.391 . S
C242 H298 0.947 . S
C242 C299 1.392 . S
C243 C244 1.391 . S
C243 C247 1.397 . S
C243 C299 1.419 . S
C244 C240 1.391 . S
C244 C243 1.391 . S
C244 C245 1.399 . S
C245 C244 1.399 . S
C245 C248 1.396 . S
C245 C257 1.453 . S
C245 C258 1.684 . S
H246 C270 0.948 . S
C247 C243 1.397 . S
C247 C248 1.394 . S
C247 C266 1.723 . S
C248 C245 1.396 . S
C248 C247 1.394 . S
C248 C278 1.723 . S
H249 C272 0.947 1_554 S
H250 C273 0.948 . S
H251 C279 0.982 . S
H252 C280 0.979 . S
H253 C280 0.980 . S
H254 C280 0.983 . S
H255 C279 0.979 . S
H256 C279 0.977 . S
C257 C245 1.453 . S
C257 H286 0.982 . S
C257 H287 0.979 . S
C257 H288 0.977 . S
C258 C245 1.684 . S
C258 H283 0.979 . S
C258 H284 0.980 . S
C258 H285 0.983 . S
C259 C260 1.391 . S
C259 C264 1.391 . S
C259 H289 0.948 . S
C260 C259 1.391 . S
C260 C261 1.391 . S
C261 C260 1.391 . S
C261 C262 1.392 . S
C261 H290 0.947 . S
C262 C261 1.392 . S
C262 C263 1.419 . S
C262 H291 0.948 . S
C263 C262 1.419 . S
C263 C264 1.391 . S
C263 C267 1.397 . S
C264 C259 1.391 . S
C264 C263 1.391 . S
C264 C265 1.399 1_556 S
C265 C264 1.399 1_554 S
C265 C266 1.396 . S
C265 C268 1.453 . S
C265 C269 1.684 . S
C266 C247 1.723 . S
C266 C265 1.396 . S
C266 C267 1.394 1_554 S
C267 C263 1.397 . S
C267 C266 1.394 1_556 S
C267 C277 1.723 . S
C268 C265 1.453 . S
C268 H292 0.982 . S
C268 H293 0.979 . S
C268 H294 0.977 . S
C269 C265 1.684 . S
C269 H295 0.979 . S
C269 H296 0.980 . S
C269 H297 0.983 . S
C270 H246 0.948 . S
C270 C271 1.391 . S
C270 C275 1.391 . S
C271 C270 1.391 . S
C271 C272 1.391 . S
C272 H249 0.947 1_556 S
C272 C271 1.391 . S
C272 C273 1.392 1_556 S
C273 H250 0.948 . S
C273 C272 1.392 1_554 S
C273 C274 1.419 1_554 S
C274 C273 1.419 1_556 S
C274 C275 1.391 . S
C274 C278 1.397 1_556 S
C275 C270 1.391 . S
C275 C274 1.391 . S
C275 C276 1.399 . S
C276 C275 1.399 . S
C276 C277 1.396 . S
C276 C279 1.453 . S
C276 C280 1.684 . S
C277 C267 1.723 . S
C277 C276 1.396 . S
C277 C278 1.394 1_556 S
C278 C248 1.723 . S
C278 C274 1.397 1_554 S
C278 C277 1.394 1_554 S
C279 H251 0.982 . S
C279 H255 0.979 . S
C279 H256 0.977 . S
C279 C276 1.453 . S
C280 H252 0.979 . S
C280 H253 0.980 . S
C280 H254 0.983 . S
C280 C276 1.684 . S
H281 C299 0.948 . S
H282 C240 0.948 . S
H283 C258 0.979 . S
H284 C258 0.980 . S
H285 C258 0.983 . S
H286 C257 0.982 . S
H287 C257 0.979 . S
H288 C257 0.977 . S
H289 C259 0.948 . S
H290 C261 0.947 . S
H291 C262 0.948 . S
H292 C268 0.982 . S
H293 C268 0.979 . S
H294 C268 0.977 . S
H295 C269 0.979 . S
H296 C269 0.980 . S
H297 C269 0.983 . S
H298 C242 0.947 . S
C299 C242 1.392 . S
C299 C243 1.419 . S
C299 H281 0.948 . S
C300 C301 1.391 . S
C300 C304 1.391 . S
C300 H342 0.948 . S
C301 C300 1.391 . S
C301 C302 1.391 . S
C302 C301 1.391 . S
C302 H358 0.947 . S
C302 C359 1.392 . S
C303 C304 1.391 . S
C303 C307 1.397 . S
C303 C359 1.419 . S
C304 C300 1.391 . S
C304 C303 1.391 . S
C304 C305 1.399 . S
C305 C304 1.399 . S
C305 C308 1.396 . S
C305 C317 1.453 . S
C305 C318 1.684 . S
H306 C330 0.948 . S
C307 C303 1.397 . S
C307 C308 1.394 . S
C307 C326 1.723 . S
C308 C305 1.396 . S
C308 C307 1.394 . S
C308 C338 1.723 . S
H309 C332 0.947 . S
H310 C333 0.948 . S
H311 C339 0.982 . S
H312 C340 0.979 . S
H313 C340 0.980 . S
H314 C340 0.983 . S
H315 C339 0.979 . S
H316 C339 0.977 . S
C317 C305 1.453 . S
C317 H346 0.982 . S
C317 H347 0.979 . S
C317 H348 0.977 . S
C318 C305 1.684 . S
C318 H343 0.979 . S
C318 H344 0.980 . S
C318 H345 0.983 . S
C319 C320 1.391 . S
C319 C324 1.391 . S
C319 H349 0.948 . S
C320 C319 1.391 . S
C320 C321 1.391 . S
C321 C320 1.391 . S
C321 C322 1.392 . S
C321 H350 0.947 . S
C322 C321 1.392 . S
C322 C323 1.419 . S
C322 H351 0.948 . S
C323 C322 1.419 . S
C323 C324 1.391 . S
C323 C327 1.397 . S
C324 C319 1.391 . S
C324 C323 1.391 . S
C324 C325 1.399 . S
C325 C324 1.399 . S
C325 C326 1.396 . S
C325 C328 1.453 . S
C325 C329 1.684 . S
C326 C307 1.723 . S
C326 C325 1.396 . S
C326 C327 1.394 . S
C327 C323 1.397 . S
C327 C326 1.394 . S
C327 C337 1.723 . S
C328 C325 1.453 . S
C328 H352 0.982 . S
C328 H353 0.979 . S
C328 H354 0.977 . S
C329 C325 1.684 . S
C329 H355 0.979 . S
C329 H356 0.980 . S
C329 H357 0.983 . S
C330 H306 0.948 . S
C330 C331 1.391 . S
C330 C335 1.391 . S
C331 C330 1.391 . S
C331 C332 1.391 . S
C332 H309 0.947 . S
C332 C331 1.391 . S
C332 C333 1.392 . S
C333 H310 0.948 . S
C333 C332 1.392 . S
C333 C334 1.419 . S
C334 C333 1.419 . S
C334 C335 1.391 . S
C334 C338 1.397 . S
C335 C330 1.391 . S
C335 C334 1.391 . S
C335 C336 1.399 . S
C336 C335 1.399 . S
C336 C337 1.396 . S
C336 C339 1.453 . S
C336 C340 1.684 . S
C337 C327 1.723 . S
C337 C336 1.396 . S
C337 C338 1.394 . S
C338 C308 1.723 . S
C338 C334 1.397 . S
C338 C337 1.394 . S
C339 H311 0.982 . S
C339 H315 0.979 . S
C339 H316 0.977 . S
C339 C336 1.453 . S
C340 H312 0.979 . S
C340 H313 0.980 . S
C340 H314 0.983 . S
C340 C336 1.684 . S
H341 C359 0.948 . S
H342 C300 0.948 . S
H343 C318 0.979 . S
H344 C318 0.980 . S
H345 C318 0.983 . S
H346 C317 0.982 . S
H347 C317 0.979 . S
H348 C317 0.977 . S
H349 C319 0.948 . S
H350 C321 0.947 . S
H351 C322 0.948 . S
H352 C328 0.982 . S
H353 C328 0.979 . S
H354 C328 0.977 . S
H355 C329 0.979 . S
H356 C329 0.980 . S
H357 C329 0.983 . S
H358 C302 0.947 . S
C359 C302 1.392 . S
C359 C303 1.419 . S
C359 H341 0.948 . S
C360 C361 1.391 . S
C360 C364 1.391 . S
C360 H402 0.948 . S
C361 C360 1.391 . S
C361 C362 1.391 . S
C362 C361 1.391 . S
C362 H418 0.947 . S
C362 C419 1.392 . S
C363 C364 1.391 . S
C363 C367 1.415 . S
C363 C419 1.419 . S
C364 C360 1.391 . S
C364 C363 1.391 . S
C364 C365 1.399 . S
C365 C364 1.399 . S
C365 C368 1.396 . S
C365 C377 1.453 . S
C365 C378 1.684 . S
H366 C390 0.948 . S
C367 C363 1.415 . S
C367 C368 1.420 . S
C367 C386 1.686 1_556 S
C368 C365 1.396 . S
C368 C367 1.420 . S
C368 C398 1.723 . S
H369 C392 0.947 . S
H370 C393 0.948 . S
H371 C399 0.982 . S
H372 C400 0.979 . S
H373 C400 0.980 . S
H374 C400 0.983 . S
H375 C399 0.979 . S
H376 C399 0.977 . S
C377 C365 1.453 . S
C377 H406 0.982 . S
C377 H407 0.979 . S
C377 H408 0.977 . S
C378 C365 1.684 . S
C378 H403 0.979 . S
C378 H404 0.980 . S
C378 H405 0.983 . S
C379 C380 1.391 . S
C379 C384 1.391 . S
C379 H409 0.948 . S
C380 C379 1.391 . S
C380 C381 1.391 . S
C381 C380 1.391 . S
C381 C382 1.392 . S
C381 H410 0.947 . S
C382 C381 1.392 . S
C382 C383 1.419 . S
C382 H411 0.948 . S
C383 C382 1.419 . S
C383 C384 1.391 . S
C383 C387 1.397 . S
C384 C379 1.391 . S
C384 C383 1.391 . S
C384 C385 1.399 . S
C385 C384 1.399 . S
C385 C386 1.396 . S
C385 C388 1.453 . S
C385 C389 1.684 . S
C386 C367 1.686 1_554 S
C386 C385 1.396 . S
C386 C387 1.394 . S
C387 C383 1.397 . S
C387 C386 1.394 . S
C387 C397 1.723 . S
C388 C385 1.453 . S
C388 H412 0.982 . S
C388 H413 0.979 . S
C388 H414 0.977 . S
C389 C385 1.684 . S
C389 H415 0.979 . S
C389 H416 0.980 . S
C389 H417 0.983 . S
C390 H366 0.948 . S
C390 C391 1.391 . S
C390 C395 1.391 . S
C391 C390 1.391 . S
C391 C392 1.391 . S
C392 H369 0.947 . S
C392 C391 1.391 . S
C392 C393 1.392 . S
C393 H370 0.948 . S
C393 C392 1.392 . S
C393 C394 1.419 . S
C394 C393 1.419 . S
C394 C395 1.391 . S
C394 C398 1.397 . S
C395 C390 1.391 . S
C395 C394 1.391 . S
C395 C396 1.399 1_556 S
C396 C395 1.399 1_554 S
C396 C397 1.396 . S
C396 C399 1.453 . S
C396 C400 1.684 . S
C397 C387 1.723 . S
C397 C396 1.396 . S
C397 C398 1.394 1_554 S
C398 C368 1.723 . S
C398 C394 1.397 . S
C398 C397 1.394 1_556 S
C399 H371 0.982 . S
C399 H375 0.979 . S
C399 H376 0.977 . S
C399 C396 1.453 . S
C400 H372 0.979 . S
C400 H373 0.980 . S
C400 H374 0.983 . S
C400 C396 1.684 . S
H401 C419 0.948 1_554 S
H402 C360 0.948 . S
H403 C378 0.979 . S
H404 C378 0.980 . S
H405 C378 0.983 . S
H406 C377 0.982 . S
H407 C377 0.979 . S
H408 C377 0.977 . S
H409 C379 0.948 . S
H410 C381 0.947 . S
H411 C382 0.948 . S
H412 C388 0.982 . S
H413 C388 0.979 . S
H414 C388 0.977 . S
H415 C389 0.979 . S
H416 C389 0.980 . S
H417 C389 0.983 . S
H418 C362 0.947 . S
C419 C362 1.392 . S
C419 C363 1.419 . S
C419 H401 0.948 1_556 S
C420 C421 1.391 . S
C420 C424 1.391 . S
C420 H462 0.948 . S
C421 C420 1.391 . S
C421 C422 1.391 . S
C422 C421 1.391 . S
C422 H478 0.947 . S
C422 C479 1.392 . S
C423 C424 1.391 . S
C423 C427 1.397 . S
C423 C479 1.419 . S
C424 C420 1.391 . S
C424 C423 1.391 . S
C424 C425 1.399 . S
C425 C424 1.399 . S
C425 C428 1.396 . S
C425 C437 1.453 . S
C425 C438 1.684 . S
H426 C450 0.948 . S
C427 C423 1.397 . S
C427 C428 1.394 . S
C427 C446 1.723 . S
C428 C425 1.396 . S
C428 C427 1.394 . S
C428 C458 1.723 . S
H429 C452 0.947 . S
H430 C453 0.948 . S
H431 C459 0.982 . S
H432 C460 0.979 . S
H433 C460 0.980 . S
H434 C460 0.983 . S
H435 C459 0.979 . S
H436 C459 0.977 . S
C437 C425 1.453 . S
C437 H466 0.982 . S
C437 H467 0.979 . S
C437 H468 0.977 . S
C438 C425 1.684 . S
C438 H463 0.979 . S
C438 H464 0.980 . S
C438 H465 0.983 . S
C439 C440 1.391 . S
C439 C444 1.391 . S
C439 H469 0.948 . S
C440 C439 1.391 . S
C440 C441 1.391 . S
C441 C440 1.391 . S
C441 C442 1.392 . S
C441 H470 0.947 . S
C442 C441 1.392 . S
C442 C443 1.419 . S
C442 H471 0.948 . S
C443 C442 1.419 . S
C443 C444 1.391 . S
C443 C447 1.397 . S
C444 C439 1.391 . S
C444 C443 1.391 . S
C444 C445 1.399 . S
C445 C444 1.399 . S
C445 C446 1.396 . S
C445 C448 1.453 . S
C445 C449 1.684 . S
C446 C427 1.723 . S
C446 C445 1.396 . S
C446 C447 1.394 . S
C447 C443 1.397 . S
C447 C446 1.394 . S
C447 C457 1.723 . S
C448 C445 1.453 . S
C448 H472 0.982 . S
C448 H473 0.979 . S
C448 H474 0.977 . S
C449 C445 1.684 . S
C449 H475 0.979 . S
C449 H476 0.980 . S
C449 H477 0.983 . S
C450 H426 0.948 . S
C450 C451 1.391 . S
C450 C455 1.391 . S
C451 C450 1.391 . S
C451 C452 1.391 . S
C452 H429 0.947 . S
C452 C451 1.391 . S
C452 C453 1.392 . S
C453 H430 0.948 . S
C453 C452 1.392 . S
C453 C454 1.419 . S
C454 C453 1.419 . S
C454 C455 1.391 . S
C454 C458 1.397 . S
C455 C450 1.391 . S
C455 C454 1.391 . S
C455 C456 1.399 . S
C456 C455 1.399 . S
C456 C457 1.396 . S
C456 C459 1.453 . S
C456 C460 1.684 . S
C457 C447 1.723 . S
C457 C456 1.396 . S
C457 C458 1.394 . S
C458 C428 1.723 . S
C458 C454 1.397 . S
C458 C457 1.394 . S
C459 H431 0.982 . S
C459 H435 0.979 . S
C459 H436 0.977 . S
C459 C456 1.453 . S
C460 H432 0.979 . S
C460 H433 0.980 . S
C460 H434 0.983 . S
C460 C456 1.684 . S
H461 C479 0.948 . S
H462 C420 0.948 . S
H463 C438 0.979 . S
H464 C438 0.980 . S
H465 C438 0.983 . S
H466 C437 0.982 . S
H467 C437 0.979 . S
H468 C437 0.977 . S
H469 C439 0.948 . S
H470 C441 0.947 . S
H471 C442 0.948 . S
H472 C448 0.982 . S
H473 C448 0.979 . S
H474 C448 0.977 . S
H475 C449 0.979 . S
H476 C449 0.980 . S
H477 C449 0.983 . S
H478 C422 0.947 . S
C479 C422 1.392 . S
C479 C423 1.419 . S
C479 H461 0.948 . S
Fe480 O482 1.918 . S
Fe480 O485 1.997 1_455 S
Fe480 O486 2.002 1_455 S
Fe480 O491 1.976 . S
Fe480 O494 1.996 . S
Fe481 O482 1.918 . S
Fe481 O489 1.997 1_455 S
Fe481 O492 1.996 . S
Fe481 O496 1.976 . S
Fe481 O499 2.002 1_455 S
O482 Fe480 1.918 . S
O482 Fe481 1.918 . S
O482 Fe483 1.918 . S
Fe483 O482 1.918 . S
Fe483 O484 2.002 1_455 S
Fe483 O493 1.976 . S
Fe483 O497 1.996 . S
Fe483 O500 1.997 1_455 S
O484 Fe483 2.002 1_655 S
O484 C501 1.295 . S
O485 Fe480 1.997 1_655 S
O485 C501 1.235 . S
O486 Fe480 2.002 1_655 S
O486 C487 1.295 . S
C487 O486 1.295 . S
C487 O489 1.235 . S
C488 O493 1.287 . S
C488 O494 1.255 . S
O489 Fe481 1.997 1_655 S
O489 C487 1.235 . S
C490 O496 1.287 . S
C490 O497 1.255 . S
O491 Fe480 1.976 . S
O491 C498 1.287 . S
O492 Fe481 1.996 . S
O492 C498 1.255 . S
O493 Fe483 1.976 . S
O493 C488 1.287 . S
O494 Fe480 1.996 . S
O494 C488 1.255 . S
C495 O499 1.295 . S
C495 O500 1.235 . S
O496 Fe481 1.976 . S
O496 C490 1.287 . S
O497 Fe483 1.996 . S
O497 C490 1.255 . S
C498 O491 1.287 . S
C498 O492 1.255 . S
O499 Fe481 2.002 1_655 S
O499 C495 1.295 . S
O500 Fe483 1.997 1_655 S
O500 C495 1.235 . S
C501 O484 1.295 . S
C501 O485 1.235 . S
Fe502 O504 1.919 . S
Fe502 O507 1.983 1_655 S
Fe502 O508 1.989 1_655 S
Fe502 O513 1.989 . S
Fe502 O516 2.009 . S
Fe503 O504 1.919 . S
Fe503 O511 1.983 1_655 S
Fe503 O514 2.009 . S
Fe503 O518 1.989 . S
Fe503 O521 1.989 1_655 S
O504 Fe502 1.919 . S
O504 Fe503 1.919 . S
O504 Fe505 1.918 . S
Fe505 O504 1.918 . S
Fe505 O506 1.989 1_655 S
Fe505 O515 1.989 . S
Fe505 O519 2.008 . S
Fe505 O522 1.984 1_655 S
O506 Fe505 1.989 1_455 S
O506 C523 1.295 . S
O507 Fe502 1.983 1_455 S
O507 C523 1.235 . S
O508 Fe502 1.989 1_455 S
O508 C509 1.295 . S
C509 O508 1.295 . S
C509 O511 1.235 . S
C510 O515 1.287 . S
C510 O516 1.255 . S
O511 Fe503 1.983 1_455 S
O511 C509 1.235 . S
C512 O518 1.287 . S
C512 O519 1.255 . S
O513 Fe502 1.989 . S
O513 C520 1.287 . S
O514 Fe503 2.009 . S
O514 C520 1.255 . S
O515 Fe505 1.989 . S
O515 C510 1.287 . S
O516 Fe502 2.009 . S
O516 C510 1.255 . S
C517 O521 1.295 . S
C517 O522 1.235 . S
O518 Fe503 1.989 . S
O518 C512 1.287 . S
O519 Fe505 2.008 . S
O519 C512 1.255 . S
C520 O513 1.287 . S
C520 O514 1.255 . S
O521 Fe503 1.989 1_455 S
O521 C517 1.295 . S
O522 Fe505 1.984 1_455 S
O522 C517 1.235 . S
C523 O506 1.295 . S
C523 O507 1.235 . S
Fe524 O526 1.918 . S
Fe524 O529 1.997 . S
Fe524 O530 2.002 . S
Fe524 O535 1.976 . S
Fe524 O538 1.996 . S
Fe525 O526 1.918 . S
Fe525 O533 1.997 . S
Fe525 O536 1.996 . S
Fe525 O540 1.976 . S
Fe525 O543 2.002 . S
O526 Fe524 1.918 . S
O526 Fe525 1.918 . S
O526 Fe527 1.918 . S
Fe527 O526 1.918 . S
Fe527 O528 2.002 . S
Fe527 O537 1.976 . S
Fe527 O541 1.996 . S
Fe527 O544 1.997 . S
O528 Fe527 2.002 . S
O528 C545 1.295 . S
O529 Fe524 1.997 . S
O529 C545 1.235 . S
O530 Fe524 2.002 . S
O530 C531 1.295 . S
C531 O530 1.295 . S
C531 O533 1.235 . S
C532 O537 1.287 . S
C532 O538 1.255 . S
O533 Fe525 1.997 . S
O533 C531 1.235 . S
C534 O540 1.287 . S
C534 O541 1.255 . S
O535 Fe524 1.976 . S
O535 C542 1.287 . S
O536 Fe525 1.996 . S
O536 C542 1.255 . S
O537 Fe527 1.976 . S
O537 C532 1.287 . S
O538 Fe524 1.996 . S
O538 C532 1.255 . S
C539 O543 1.295 . S
C539 O544 1.235 . S
O540 Fe525 1.976 . S
O540 C534 1.287 . S
O541 Fe527 1.996 . S
O541 C534 1.255 . S
C542 O535 1.287 . S
C542 O536 1.255 . S
O543 Fe525 2.002 . S
O543 C539 1.295 . S
O544 Fe527 1.997 . S
O544 C539 1.235 . S
C545 O528 1.295 . S
C545 O529 1.235 . S
Fe546 O548 1.918 . S
Fe546 O551 1.997 . S
Fe546 O552 2.002 . S
Fe546 O557 1.976 . S
Fe546 O560 1.996 . S
Fe547 O548 1.918 . S
Fe547 O555 1.997 . S
Fe547 O558 1.996 . S
Fe547 O562 1.976 . S
Fe547 O565 2.002 . S
O548 Fe546 1.918 . S
O548 Fe547 1.918 . S
O548 Fe549 1.918 . S
Fe549 O548 1.918 . S
Fe549 O550 2.002 . S
Fe549 O559 1.976 . S
Fe549 O563 1.996 . S
Fe549 O566 1.997 . S
O550 Fe549 2.002 . S
O550 C567 1.295 . S
O551 Fe546 1.997 . S
O551 C567 1.235 . S
O552 Fe546 2.002 . S
O552 C553 1.295 . S
C553 O552 1.295 . S
C553 O555 1.235 . S
C554 O559 1.287 . S
C554 O560 1.255 . S
O555 Fe547 1.997 . S
O555 C553 1.235 . S
C556 O562 1.287 . S
C556 O563 1.255 . S
O557 Fe546 1.976 . S
O557 C564 1.287 . S
O558 Fe547 1.996 . S
O558 C564 1.255 . S
O559 Fe549 1.976 . S
O559 C554 1.287 . S
O560 Fe546 1.996 . S
O560 C554 1.255 . S
C561 O565 1.295 . S
C561 O566 1.235 . S
O562 Fe547 1.976 . S
O562 C556 1.287 . S
O563 Fe549 1.996 . S
O563 C556 1.255 . S
C564 O557 1.287 . S
C564 O558 1.255 . S
O565 Fe547 2.002 . S
O565 C561 1.295 . S
O566 Fe549 1.997 . S
O566 C561 1.235 . S
C567 O550 1.295 . S
C567 O551 1.235 . S
H568 C586 0.951 . S
H569 C588 0.951 . S
H570 C590 0.950 . S
H571 C591 0.950 . S
H572 C593 0.950 . S
H573 C596 0.950 . S
H574 C597 0.950 . S
H575 C599 0.950 . S
H576 C600 0.950 . S
H577 C601 0.951 . S
H578 C603 0.951 . S
H579 C605 0.950 . S
H580 C606 0.950 . S
H581 C608 0.950 . S
H582 C611 0.950 . S
H583 C612 0.950 . S
H584 C614 0.950 . S
H585 C615 0.950 . S
C586 H568 0.951 . S
C586 C587 1.366 . S
C586 C588 1.388 . S
C587 C586 1.366 . S
C587 C591 1.385 . S
C588 H569 0.951 . S
C588 C586 1.388 . S
C588 C589 1.366 . S
C589 C588 1.366 . S
C589 C590 1.414 . S
C589 C592 1.499 . S
C590 H570 0.950 . S
C590 C589 1.414 . S
C590 C591 1.374 . S
C591 H571 0.950 . S
C591 C587 1.385 . S
C591 C590 1.374 . S
C592 C589 1.499 . S
C592 C593 1.373 . S
C592 C594 1.389 . S
C593 H572 0.950 . S
C593 C592 1.373 . S
C593 C609 1.377 . S
C594 C592 1.389 . S
C594 C595 1.524 . S
C594 C608 1.377 . S
C595 C594 1.524 . S
C595 C596 1.397 . S
C595 C600 1.363 . S
C596 H573 0.950 . S
C596 C595 1.397 . S
C596 C597 1.334 . S
C597 H574 0.950 . S
C597 C596 1.334 . S
C597 C598 1.287 . S
C598 C597 1.287 . S
C598 C599 1.524 . S
C598 H617 0.913 . S
C599 H575 0.950 . S
C599 C598 1.524 . S
C599 C600 1.415 . S
C600 H576 0.950 . S
C600 C595 1.363 . S
C600 C599 1.415 . S
C601 H577 0.951 . S
C601 C602 1.366 . S
C601 C603 1.388 . S
C602 C601 1.366 . S
C602 C606 1.385 . S
C603 H578 0.951 . S
C603 C601 1.388 . S
C603 C604 1.366 . S
C604 C603 1.366 . S
C604 C605 1.414 . S
C604 C607 1.499 . S
C605 H579 0.950 . S
C605 C604 1.414 . S
C605 C606 1.374 . S
C606 H580 0.950 . S
C606 C602 1.385 . S
C606 C605 1.374 . S
C607 C604 1.499 . S
C607 C608 1.373 . S
C607 C609 1.389 . S
C608 H581 0.950 . S
C608 C594 1.377 . S
C608 C607 1.373 . S
C609 C593 1.377 . S
C609 C607 1.389 . S
C609 C610 1.524 . S
C610 C609 1.524 . S
C610 C611 1.397 . S
C610 C615 1.363 . S
C611 H582 0.950 . S
C611 C610 1.397 . S
C611 C612 1.334 . S
C612 H583 0.950 . S
C612 C611 1.334 . S
C612 C613 1.287 . S
C613 C612 1.287 . S
C613 C614 1.524 . S
C613 H616 0.999 . S
C614 H584 0.950 . S
C614 C613 1.524 . S
C614 C615 1.415 . S
C615 H585 0.950 . S
C615 C610 1.363 . S
C615 C614 1.415 . S
H616 C613 0.999 . S
H617 C598 0.913 . S
H618 C636 0.951 . S
H619 C638 0.951 . S
H620 C640 0.950 . S
H621 C641 0.950 . S
H622 C643 0.950 . S
H623 C646 0.950 . S
H624 C647 0.950 . S
H625 C649 0.950 . S
H626 C650 0.950 . S
H627 C651 0.951 . S
H628 C653 0.951 . S
H629 C655 0.950 . S
H630 C656 0.950 . S
H631 C658 0.950 . S
H632 C661 0.950 . S
H633 C662 0.950 . S
H634 C664 0.950 . S
H635 C665 0.950 . S
C636 H618 0.951 . S
C636 C637 1.366 . S
C636 C638 1.388 . S
C637 C636 1.366 . S
C637 C641 1.385 . S
C638 H619 0.951 . S
C638 C636 1.388 . S
C638 C639 1.366 . S
C639 C638 1.366 . S
C639 C640 1.414 . S
C639 C642 1.499 . S
C640 H620 0.950 . S
C640 C639 1.414 . S
C640 C641 1.374 . S
C641 H621 0.950 . S
C641 C637 1.385 . S
C641 C640 1.374 . S
C642 C639 1.499 . S
C642 C643 1.373 . S
C642 C644 1.389 . S
C643 H622 0.950 . S
C643 C642 1.373 . S
C643 C659 1.377 . S
C644 C642 1.389 . S
C644 C645 1.524 . S
C644 C658 1.377 . S
C645 C644 1.524 . S
C645 C646 1.397 . S
C645 C650 1.363 . S
C646 H623 0.950 . S
C646 C645 1.397 . S
C646 C647 1.334 . S
C647 H624 0.950 . S
C647 C646 1.334 . S
C647 C648 1.287 . S
C648 C647 1.287 . S
C648 C649 1.524 . S
C648 H667 0.913 . S
C649 H625 0.950 . S
C649 C648 1.524 . S
C649 C650 1.415 . S
C650 H626 0.950 . S
C650 C645 1.363 . S
C650 C649 1.415 . S
C651 H627 0.951 . S
C651 C652 1.366 . S
C651 C653 1.388 . S
C652 C651 1.366 . S
C652 C656 1.385 . S
C653 H628 0.951 . S
C653 C651 1.388 . S
C653 C654 1.366 . S
C654 C653 1.366 . S
C654 C655 1.414 . S
C654 C657 1.499 . S
C655 H629 0.950 . S
C655 C654 1.414 . S
C655 C656 1.374 . S
C656 H630 0.950 . S
C656 C652 1.385 . S
C656 C655 1.374 . S
C657 C654 1.499 . S
C657 C658 1.373 . S
C657 C659 1.389 . S
C658 H631 0.950 . S
C658 C644 1.377 . S
C658 C657 1.373 . S
C659 C643 1.377 . S
C659 C657 1.389 . S
C659 C660 1.524 . S
C660 C659 1.524 . S
C660 C661 1.397 . S
C660 C665 1.363 . S
C661 H632 0.950 . S
C661 C660 1.397 . S
C661 C662 1.334 . S
C662 H633 0.950 . S
C662 C661 1.334 . S
C662 C663 1.287 . S
C663 C662 1.287 . S
C663 C664 1.524 . S
C663 H666 0.999 1_655 S
C664 H634 0.950 . S
C664 C663 1.524 . S
C664 C665 1.415 . S
C665 H635 0.950 . S
C665 C660 1.363 . S
C665 C664 1.415 . S
H666 C663 0.999 1_455 S
H667 C648 0.913 . S
H668 C686 0.951 . S
H669 C688 0.951 . S
H670 C690 0.950 . S
H671 C691 0.950 . S
H672 C693 0.950 . S
H673 C696 0.950 . S
H674 C697 0.950 1_554 S
H675 C699 0.950 . S
H676 C700 0.950 . S
H677 C701 0.951 . S
H678 C703 0.951 . S
H679 C705 0.950 . S
H680 C706 0.950 . S
H681 C708 0.950 . S
H682 C711 0.950 . S
H683 C712 0.950 . S
H684 C714 0.950 . S
H685 C715 0.950 . S
C686 H668 0.951 . S
C686 C687 1.366 . S
C686 C688 1.388 . S
C687 C686 1.366 . S
C687 C691 1.385 . S
C688 H669 0.951 . S
C688 C686 1.388 . S
C688 C689 1.366 . S
C689 C688 1.366 . S
C689 C690 1.414 . S
C689 C692 1.499 . S
C690 H670 0.950 . S
C690 C689 1.414 . S
C690 C691 1.374 . S
C691 H671 0.950 . S
C691 C687 1.385 . S
C691 C690 1.374 . S
C692 C689 1.499 . S
C692 C693 1.373 . S
C692 C694 1.389 . S
C693 H672 0.950 . S
C693 C692 1.373 . S
C693 C709 1.377 . S
C694 C692 1.389 . S
C694 C695 1.524 . S
C694 C708 1.377 . S
C695 C694 1.524 . S
C695 C696 1.397 . S
C695 C700 1.363 . S
C696 H673 0.950 . S
C696 C695 1.397 . S
C696 C697 1.334 . S
C697 H674 0.950 1_556 S
C697 C696 1.334 . S
C697 C698 1.287 . S
C698 C697 1.287 . S
C698 C699 1.524 . S
C698 H717 0.913 . S
C699 H675 0.950 . S
C699 C698 1.524 . S
C699 C700 1.415 . S
C700 H676 0.950 . S
C700 C695 1.363 . S
C700 C699 1.415 . S
C701 H677 0.951 . S
C701 C702 1.366 . S
C701 C703 1.388 . S
C702 C701 1.366 . S
C702 C706 1.385 . S
C703 H678 0.951 . S
C703 C701 1.388 . S
C703 C704 1.366 . S
C704 C703 1.366 . S
C704 C705 1.414 . S
C704 C707 1.499 . S
C705 H679 0.950 . S
C705 C704 1.414 . S
C705 C706 1.374 . S
C706 H680 0.950 . S
C706 C702 1.385 . S
C706 C705 1.374 . S
C707 C704 1.499 . S
C707 C708 1.373 . S
C707 C709 1.389 . S
C708 H681 0.950 . S
C708 C694 1.377 . S
C708 C707 1.373 . S
C709 C693 1.377 . S
C709 C707 1.389 . S
C709 C710 1.524 . S
C710 C709 1.524 . S
C710 C711 1.397 . S
C710 C715 1.363 . S
C711 H682 0.950 . S
C711 C710 1.397 . S
C711 C712 1.334 . S
C712 H683 0.950 . S
C712 C711 1.334 . S
C712 C713 1.287 . S
C713 C712 1.287 . S
C713 C714 1.524 . S
C713 H716 0.999 . S
C714 H684 0.950 . S
C714 C713 1.524 . S
C714 C715 1.415 . S
C715 H685 0.950 . S
C715 C710 1.363 . S
C715 C714 1.415 . S
H716 C713 0.999 . S
H717 C698 0.913 . S
H718 C736 0.951 . S
H719 C738 0.951 . S
H720 C740 0.950 . S
H721 C741 0.950 . S
H722 C743 0.950 . S
H723 C746 0.950 . S
H724 C747 0.950 . S
H725 C749 0.950 . S
H726 C750 0.950 . S
H727 C751 0.951 . S
H728 C753 0.951 . S
H729 C755 0.950 . S
H730 C756 0.950 . S
H731 C758 0.950 . S
H732 C761 0.950 . S
H733 C762 0.950 . S
H734 C764 0.950 . S
H735 C765 0.950 . S
C736 H718 0.951 . S
C736 C737 1.366 . S
C736 C738 1.388 . S
C737 C736 1.366 . S
C737 C741 1.385 . S
C738 H719 0.951 . S
C738 C736 1.388 . S
C738 C739 1.366 . S
C739 C738 1.366 . S
C739 C740 1.414 . S
C739 C742 1.499 . S
C740 H720 0.950 . S
C740 C739 1.414 . S
C740 C741 1.374 . S
C741 H721 0.950 . S
C741 C737 1.385 . S
C741 C740 1.374 . S
C742 C739 1.499 . S
C742 C743 1.373 . S
C742 C744 1.389 . S
C743 H722 0.950 . S
C743 C742 1.373 . S
C743 C759 1.377 . S
C744 C742 1.389 . S
C744 C745 1.524 . S
C744 C758 1.377 . S
C745 C744 1.524 . S
C745 C746 1.397 . S
C745 C750 1.363 . S
C746 H723 0.950 . S
C746 C745 1.397 . S
C746 C747 1.334 . S
C747 H724 0.950 . S
C747 C746 1.334 . S
C747 C748 1.287 . S
C748 C747 1.287 . S
C748 C749 1.524 . S
C748 H767 0.913 . S
C749 H725 0.950 . S
C749 C748 1.524 . S
C749 C750 1.415 . S
C750 H726 0.950 . S
C750 C745 1.363 . S
C750 C749 1.415 . S
C751 H727 0.951 . S
C751 C752 1.366 . S
C751 C753 1.388 . S
C752 C751 1.366 . S
C752 C756 1.385 . S
C753 H728 0.951 . S
C753 C751 1.388 . S
C753 C754 1.366 . S
C754 C753 1.366 . S
C754 C755 1.414 . S
C754 C757 1.499 . S
C755 H729 0.950 . S
C755 C754 1.414 . S
C755 C756 1.374 . S
C756 H730 0.950 . S
C756 C752 1.385 . S
C756 C755 1.374 . S
C757 C754 1.499 . S
C757 C758 1.373 . S
C757 C759 1.389 . S
C758 H731 0.950 . S
C758 C744 1.377 . S
C758 C757 1.373 . S
C759 C743 1.377 . S
C759 C757 1.389 . S
C759 C760 1.524 . S
C760 C759 1.524 . S
C760 C761 1.397 . S
C760 C765 1.363 . S
C761 H732 0.950 . S
C761 C760 1.397 . S
C761 C762 1.334 . S
C762 H733 0.950 . S
C762 C761 1.334 . S
C762 C763 1.287 . S
C763 C762 1.287 . S
C763 C764 1.524 . S
C763 H766 0.999 . S
C764 H734 0.950 . S
C764 C763 1.524 . S
C764 C765 1.415 . S
C765 H735 0.950 . S
C765 C760 1.363 . S
C765 C764 1.415 . S
H766 C763 0.999 . S
H767 C748 0.913 . S
H768 C786 0.951 . S
H769 C788 0.951 . S
H770 C790 0.950 . S
H771 C791 0.950 . S
H772 C793 0.950 . S
H773 C796 0.950 . S
H774 C797 0.950 . S
H775 C799 0.950 . S
H776 C800 0.950 . S
H777 C801 0.951 . S
H778 C803 0.951 . S
H779 C805 0.950 . S
H780 C806 0.950 . S
H781 C808 0.950 . S
H782 C811 0.950 . S
H783 C812 0.950 . S
H784 C814 0.950 . S
H785 C815 0.950 . S
C786 H768 0.951 . S
C786 C787 1.366 . S
C786 C788 1.388 . S
C787 C786 1.366 . S
C787 C791 1.385 . S
C788 H769 0.951 . S
C788 C786 1.388 . S
C788 C789 1.366 . S
C789 C788 1.366 . S
C789 C790 1.414 . S
C789 C792 1.499 . S
C790 H770 0.950 . S
C790 C789 1.414 . S
C790 C791 1.374 . S
C791 H771 0.950 . S
C791 C787 1.385 . S
C791 C790 1.374 . S
C792 C789 1.499 . S
C792 C793 1.373 . S
C792 C794 1.389 . S
C793 H772 0.950 . S
C793 C792 1.373 . S
C793 C809 1.377 . S
C794 C792 1.389 . S
C794 C795 1.524 . S
C794 C808 1.377 . S
C795 C794 1.524 . S
C795 C796 1.397 . S
C795 C800 1.363 . S
C796 H773 0.950 . S
C796 C795 1.397 . S
C796 C797 1.334 . S
C797 H774 0.950 . S
C797 C796 1.334 . S
C797 C798 1.287 . S
C798 C797 1.287 . S
C798 C799 1.524 . S
C798 H817 0.913 . S
C799 H775 0.950 . S
C799 C798 1.524 . S
C799 C800 1.415 . S
C800 H776 0.950 . S
C800 C795 1.363 . S
C800 C799 1.415 . S
C801 H777 0.951 . S
C801 C802 1.366 . S
C801 C803 1.388 . S
C802 C801 1.366 . S
C802 C806 1.385 . S
C803 H778 0.951 . S
C803 C801 1.388 . S
C803 C804 1.366 . S
C804 C803 1.366 . S
C804 C805 1.414 . S
C804 C807 1.499 . S
C805 H779 0.950 . S
C805 C804 1.414 . S
C805 C806 1.374 . S
C806 H780 0.950 . S
C806 C802 1.385 . S
C806 C805 1.374 . S
C807 C804 1.499 . S
C807 C808 1.373 . S
C807 C809 1.389 . S
C808 H781 0.950 . S
C808 C794 1.377 . S
C808 C807 1.373 . S
C809 C793 1.377 . S
C809 C807 1.389 . S
C809 C810 1.524 . S
C810 C809 1.524 . S
C810 C811 1.397 . S
C810 C815 1.363 . S
C811 H782 0.950 . S
C811 C810 1.397 . S
C811 C812 1.334 . S
C812 H783 0.950 . S
C812 C811 1.334 . S
C812 C813 1.287 . S
C813 C812 1.287 . S
C813 C814 1.524 . S
C813 H816 0.999 . S
C814 H784 0.950 . S
C814 C813 1.524 . S
C814 C815 1.415 . S
C815 H785 0.950 . S
C815 C810 1.363 . S
C815 C814 1.415 . S
H816 C813 0.999 . S
H817 C798 0.913 . S
H818 C836 0.951 . S
H819 C838 0.951 . S
H820 C840 0.950 . S
H821 C841 0.950 . S
H822 C843 0.950 . S
H823 C846 0.950 . S
H824 C847 0.950 . S
H825 C849 0.950 . S
H826 C850 0.950 . S
H827 C851 0.951 . S
H828 C853 0.951 . S
H829 C855 0.950 . S
H830 C856 0.950 . S
H831 C858 0.950 . S
H832 C861 0.950 . S
H833 C862 0.950 . S
H834 C864 0.950 . S
H835 C865 0.950 . S
C836 H818 0.951 . S
C836 C837 1.366 . S
C836 C838 1.388 . S
C837 C836 1.366 . S
C837 C841 1.385 . S
C838 H819 0.951 . S
C838 C836 1.388 . S
C838 C839 1.366 . S
C839 C838 1.366 . S
C839 C840 1.414 . S
C839 C842 1.499 . S
C840 H820 0.950 . S
C840 C839 1.414 . S
C840 C841 1.374 . S
C841 H821 0.950 . S
C841 C837 1.385 . S
C841 C840 1.374 . S
C842 C839 1.499 . S
C842 C843 1.373 . S
C842 C844 1.389 . S
C843 H822 0.950 . S
C843 C842 1.373 . S
C843 C859 1.377 . S
C844 C842 1.389 . S
C844 C845 1.524 . S
C844 C858 1.377 . S
C845 C844 1.524 . S
C845 C846 1.397 . S
C845 C850 1.363 . S
C846 H823 0.950 . S
C846 C845 1.397 . S
C846 C847 1.334 . S
C847 H824 0.950 . S
C847 C846 1.334 . S
C847 C848 1.287 . S
C848 C847 1.287 . S
C848 C849 1.524 . S
C848 H867 0.913 . S
C849 H825 0.950 . S
C849 C848 1.524 . S
C849 C850 1.415 . S
C850 H826 0.950 . S
C850 C845 1.363 . S
C850 C849 1.415 . S
C851 H827 0.951 . S
C851 C852 1.366 . S
C851 C853 1.388 . S
C852 C851 1.366 . S
C852 C856 1.385 . S
C853 H828 0.951 . S
C853 C851 1.388 . S
C853 C854 1.366 . S
C854 C853 1.366 . S
C854 C855 1.414 . S
C854 C857 1.499 . S
C855 H829 0.950 . S
C855 C854 1.414 . S
C855 C856 1.374 . S
C856 H830 0.950 . S
C856 C852 1.385 . S
C856 C855 1.374 . S
C857 C854 1.499 . S
C857 C858 1.373 . S
C857 C859 1.389 . S
C858 H831 0.950 . S
C858 C844 1.377 . S
C858 C857 1.373 . S
C859 C843 1.377 . S
C859 C857 1.389 . S
C859 C860 1.524 . S
C860 C859 1.524 . S
C860 C861 1.397 . S
C860 C865 1.363 . S
C861 H832 0.950 . S
C861 C860 1.397 . S
C861 C862 1.334 . S
C862 H833 0.950 . S
C862 C861 1.334 . S
C862 C863 1.287 . S
C863 C862 1.287 . S
C863 C864 1.524 . S
C863 H866 0.999 . S
C864 H834 0.950 . S
C864 C863 1.524 . S
C864 C865 1.415 . S
C865 H835 0.950 . S
C865 C860 1.363 . S
C865 C864 1.415 . S
H866 C863 0.999 . S
H867 C848 0.913 . S
H868 C886 0.951 . S
H869 C888 0.951 . S
H870 C890 0.950 . S
H871 C891 0.950 . S
H872 C893 0.950 . S
H873 C896 0.950 . S
H874 C897 0.950 . S
H875 C899 0.950 . S
H876 C900 0.950 . S
H877 C901 0.951 . S
H878 C903 0.951 . S
H879 C905 0.950 . S
H880 C906 0.950 . S
H881 C908 0.950 . S
H882 C911 0.950 . S
H883 C912 0.950 . S
H884 C914 0.950 . S
H885 C915 0.950 . S
C886 H868 0.951 . S
C886 C887 1.366 . S
C886 C888 1.388 . S
C887 C886 1.366 . S
C887 C891 1.385 . S
C888 H869 0.951 . S
C888 C886 1.388 . S
C888 C889 1.366 . S
C889 C888 1.366 . S
C889 C890 1.414 . S
C889 C892 1.499 . S
C890 H870 0.950 . S
C890 C889 1.414 . S
C890 C891 1.374 . S
C891 H871 0.950 . S
C891 C887 1.385 . S
C891 C890 1.374 . S
C892 C889 1.499 . S
C892 C893 1.373 . S
C892 C894 1.389 . S
C893 H872 0.950 . S
C893 C892 1.373 . S
C893 C909 1.377 . S
C894 C892 1.389 . S
C894 C895 1.524 . S
C894 C908 1.377 . S
C895 C894 1.524 . S
C895 C896 1.397 . S
C895 C900 1.363 . S
C896 H873 0.950 . S
C896 C895 1.397 . S
C896 C897 1.334 . S
C897 H874 0.950 . S
C897 C896 1.334 . S
C897 C898 1.287 . S
C898 C897 1.287 . S
C898 C899 1.524 . S
C898 H917 0.913 . S
C899 H875 0.950 . S
C899 C898 1.524 . S
C899 C900 1.415 . S
C900 H876 0.950 . S
C900 C895 1.363 . S
C900 C899 1.415 . S
C901 H877 0.951 . S
C901 C902 1.366 . S
C901 C903 1.388 . S
C902 C901 1.366 . S
C902 C906 1.385 . S
C903 H878 0.951 . S
C903 C901 1.388 . S
C903 C904 1.366 . S
C904 C903 1.366 . S
C904 C905 1.414 . S
C904 C907 1.499 . S
C905 H879 0.950 . S
C905 C904 1.414 . S
C905 C906 1.374 . S
C906 H880 0.950 . S
C906 C902 1.385 . S
C906 C905 1.374 . S
C907 C904 1.499 . S
C907 C908 1.373 . S
C907 C909 1.389 . S
C908 H881 0.950 . S
C908 C894 1.377 . S
C908 C907 1.373 . S
C909 C893 1.377 . S
C909 C907 1.389 . S
C909 C910 1.524 . S
C910 C909 1.524 . S
C910 C911 1.397 . S
C910 C915 1.363 . S
C911 H882 0.950 . S
C911 C910 1.397 . S
C911 C912 1.334 . S
C912 H883 0.950 . S
C912 C911 1.334 . S
C912 C913 1.287 . S
C913 C912 1.287 . S
C913 C914 1.524 . S
C913 H916 0.999 . S
C914 H884 0.950 . S
C914 C913 1.524 . S
C914 C915 1.415 . S
C915 H885 0.950 . S
C915 C910 1.363 . S
C915 C914 1.415 . S
H916 C913 0.999 . S
H917 C898 0.913 . S
H918 C936 0.951 . S
H919 C938 0.951 . S
H920 C940 0.950 . S
H921 C941 0.950 . S
H922 C943 0.950 . S
H923 C946 0.950 . S
H924 C947 0.950 . S
H925 C949 0.950 . S
H926 C950 0.950 . S
H927 C951 0.951 . S
H928 C953 0.951 . S
H929 C955 0.950 . S
H930 C956 0.950 . S
H931 C958 0.950 . S
H932 C961 0.950 . S
H933 C962 0.950 . S
H934 C964 0.950 . S
H935 C965 0.950 . S
C936 H918 0.951 . S
C936 C937 1.366 . S
C936 C938 1.388 . S
C937 C936 1.366 . S
C937 C941 1.385 . S
C938 H919 0.951 . S
C938 C936 1.388 . S
C938 C939 1.366 . S
C939 C938 1.366 . S
C939 C940 1.414 . S
C939 C942 1.499 . S
C940 H920 0.950 . S
C940 C939 1.414 . S
C940 C941 1.374 . S
C941 H921 0.950 . S
C941 C937 1.385 . S
C941 C940 1.374 . S
C942 C939 1.499 . S
C942 C943 1.373 . S
C942 C944 1.389 . S
C943 H922 0.950 . S
C943 C942 1.373 . S
C943 C959 1.377 . S
C944 C942 1.389 . S
C944 C945 1.524 . S
C944 C958 1.377 . S
C945 C944 1.524 . S
C945 C946 1.397 . S
C945 C950 1.363 . S
C946 H923 0.950 . S
C946 C945 1.397 . S
C946 C947 1.334 . S
C947 H924 0.950 . S
C947 C946 1.334 . S
C947 C948 1.287 . S
C948 C947 1.287 . S
C948 C949 1.524 . S
C948 H967 0.913 . S
C949 H925 0.950 . S
C949 C948 1.524 . S
C949 C950 1.415 . S
C950 H926 0.950 . S
C950 C945 1.363 . S
C950 C949 1.415 . S
C951 H927 0.951 . S
C951 C952 1.366 . S
C951 C953 1.388 . S
C952 C951 1.366 . S
C952 C956 1.385 . S
C953 H928 0.951 . S
C953 C951 1.388 . S
C953 C954 1.366 . S
C954 C953 1.366 . S
C954 C955 1.414 . S
C954 C957 1.499 . S
C955 H929 0.950 . S
C955 C954 1.414 . S
C955 C956 1.374 . S
C956 H930 0.950 . S
C956 C952 1.385 . S
C956 C955 1.374 . S
C957 C954 1.499 . S
C957 C958 1.373 . S
C957 C959 1.389 . S
C958 H931 0.950 . S
C958 C944 1.377 . S
C958 C957 1.373 . S
C959 C943 1.377 . S
C959 C957 1.389 . S
C959 C960 1.524 . S
C960 C959 1.524 . S
C960 C961 1.397 . S
C960 C965 1.363 . S
C961 H932 0.950 . S
C961 C960 1.397 . S
C961 C962 1.334 . S
C962 H933 0.950 . S
C962 C961 1.334 . S
C962 C963 1.287 . S
C963 C962 1.287 . S
C963 C964 1.524 . S
C963 H966 0.999 . S
C964 H934 0.950 . S
C964 C963 1.524 . S
C964 C965 1.415 . S
C965 H935 0.950 . S
C965 C960 1.363 . S
C965 C964 1.415 . S
H966 C963 0.999 . S
H967 C948 0.913 . S
H968 C986 0.951 . S
H969 C988 0.951 . S
H970 C990 0.950 . S
H971 C991 0.950 . S
H972 C993 0.950 . S
H973 C996 0.950 . S
H974 C997 0.950 . S
H975 C999 0.950 . S
H976 C1000 0.950 . S
H977 C1001 0.951 . S
H978 C1003 0.951 . S
H979 C1005 0.950 . S
H980 C1006 0.950 . S
H981 C1008 0.950 . S
H982 C1011 0.950 . S
H983 C1012 0.950 . S
H984 C1014 0.950 . S
H985 C1015 0.950 . S
C986 H968 0.951 . S
C986 C987 1.366 . S
C986 C988 1.388 . S
C987 C986 1.366 . S
C987 C991 1.385 . S
C988 H969 0.951 . S
C988 C986 1.388 . S
C988 C989 1.366 . S
C989 C988 1.366 . S
C989 C990 1.414 . S
C989 C992 1.499 . S
C990 H970 0.950 . S
C990 C989 1.414 . S
C990 C991 1.374 . S
C991 H971 0.950 . S
C991 C987 1.385 . S
C991 C990 1.374 . S
C992 C989 1.499 . S
C992 C993 1.373 . S
C992 C994 1.389 . S
C993 H972 0.950 . S
C993 C992 1.373 . S
C993 C1009 1.377 . S
C994 C992 1.389 . S
C994 C995 1.524 . S
C994 C1008 1.377 . S
C995 C994 1.524 . S
C995 C996 1.397 . S
C995 C1000 1.363 . S
C996 H973 0.950 . S
C996 C995 1.397 . S
C996 C997 1.334 . S
C997 H974 0.950 . S
C997 C996 1.334 . S
C997 C998 1.287 . S
C998 C997 1.287 . S
C998 C999 1.524 . S
C998 H1017 0.913 . S
C999 H975 0.950 . S
C999 C998 1.524 . S
C999 C1000 1.415 . S
C1000 H976 0.950 . S
C1000 C995 1.363 . S
C1000 C999 1.415 . S
C1001 H977 0.951 . S
C1001 C1002 1.366 . S
C1001 C1003 1.388 . S
C1002 C1001 1.366 . S
C1002 C1006 1.385 . S
C1003 H978 0.951 . S
C1003 C1001 1.388 . S
C1003 C1004 1.366 . S
C1004 C1003 1.366 . S
C1004 C1005 1.414 . S
C1004 C1007 1.499 . S
C1005 H979 0.950 . S
C1005 C1004 1.414 . S
C1005 C1006 1.374 . S
C1006 H980 0.950 . S
C1006 C1002 1.385 . S
C1006 C1005 1.374 . S
C1007 C1004 1.499 . S
C1007 C1008 1.373 . S
C1007 C1009 1.389 . S
C1008 H981 0.950 . S
C1008 C994 1.377 . S
C1008 C1007 1.373 . S
C1009 C993 1.377 . S
C1009 C1007 1.389 . S
C1009 C1010 1.524 . S
C1010 C1009 1.524 . S
C1010 C1011 1.397 . S
C1010 C1015 1.363 . S
C1011 H982 0.950 . S
C1011 C1010 1.397 . S
C1011 C1012 1.334 . S
C1012 H983 0.950 . S
C1012 C1011 1.334 . S
C1012 C1013 1.287 . S
C1013 C1012 1.287 . S
C1013 C1014 1.524 . S
C1013 H1016 0.999 . S
C1014 H984 0.950 . S
C1014 C1013 1.524 . S
C1014 C1015 1.415 . S
C1015 H985 0.950 . S
C1015 C1010 1.363 . S
C1015 C1014 1.415 . S
H1016 C1013 0.999 . S
H1017 C998 0.913 . S
H1018 C1036 0.951 . S
H1019 C1038 0.951 . S
H1020 C1040 0.950 . S
H1021 C1041 0.950 . S
H1022 C1043 0.950 . S
H1023 C1046 0.950 . S
H1024 C1047 0.950 . S
H1025 C1049 0.950 . S
H1026 C1050 0.950 . S
H1027 C1051 0.951 . S
H1028 C1053 0.951 . S
H1029 C1055 0.950 . S
H1030 C1056 0.950 . S
H1031 C1058 0.950 . S
H1032 C1061 0.950 . S
H1033 C1062 0.950 . S
H1034 C1064 0.950 . S
H1035 C1065 0.950 . S
C1036 H1018 0.951 . S
C1036 C1037 1.366 . S
C1036 C1038 1.388 . S
C1037 C1036 1.366 . S
C1037 C1041 1.385 . S
C1038 H1019 0.951 . S
C1038 C1036 1.388 . S
C1038 C1039 1.366 . S
C1039 C1038 1.366 . S
C1039 C1040 1.414 . S
C1039 C1042 1.499 . S
C1040 H1020 0.950 . S
C1040 C1039 1.414 . S
C1040 C1041 1.374 . S
C1041 H1021 0.950 . S
C1041 C1037 1.385 . S
C1041 C1040 1.374 . S
C1042 C1039 1.499 . S
C1042 C1043 1.373 . S
C1042 C1044 1.389 . S
C1043 H1022 0.950 . S
C1043 C1042 1.373 . S
C1043 C1059 1.377 . S
C1044 C1042 1.389 . S
C1044 C1045 1.524 . S
C1044 C1058 1.377 . S
C1045 C1044 1.524 . S
C1045 C1046 1.397 . S
C1045 C1050 1.363 . S
C1046 H1023 0.950 . S
C1046 C1045 1.397 . S
C1046 C1047 1.334 . S
C1047 H1024 0.950 . S
C1047 C1046 1.334 . S
C1047 C1048 1.287 . S
C1048 C1047 1.287 . S
C1048 C1049 1.524 . S
C1048 H1067 0.913 . S
C1049 H1025 0.950 . S
C1049 C1048 1.524 . S
C1049 C1050 1.415 . S
C1050 H1026 0.950 . S
C1050 C1045 1.363 . S
C1050 C1049 1.415 . S
C1051 H1027 0.951 . S
C1051 C1052 1.366 . S
C1051 C1053 1.388 . S
C1052 C1051 1.366 . S
C1052 C1056 1.385 . S
C1053 H1028 0.951 . S
C1053 C1051 1.388 . S
C1053 C1054 1.366 . S
C1054 C1053 1.366 . S
C1054 C1055 1.414 . S
C1054 C1057 1.499 . S
C1055 H1029 0.950 . S
C1055 C1054 1.414 . S
C1055 C1056 1.374 . S
C1056 H1030 0.950 . S
C1056 C1052 1.385 . S
C1056 C1055 1.374 . S
C1057 C1054 1.499 . S
C1057 C1058 1.373 . S
C1057 C1059 1.389 . S
C1058 H1031 0.950 . S
C1058 C1044 1.377 . S
C1058 C1057 1.373 . S
C1059 C1043 1.377 . S
C1059 C1057 1.389 . S
C1059 C1060 1.524 . S
C1060 C1059 1.524 . S
C1060 C1061 1.397 . S
C1060 C1065 1.363 . S
C1061 H1032 0.950 . S
C1061 C1060 1.397 . S
C1061 C1062 1.334 . S
C1062 H1033 0.950 . S
C1062 C1061 1.334 . S
C1062 C1063 1.287 . S
C1063 C1062 1.287 . S
C1063 C1064 1.524 . S
C1063 H1066 0.999 . S
C1064 H1034 0.950 . S
C1064 C1063 1.524 . S
C1064 C1065 1.415 . S
C1065 H1035 0.950 . S
C1065 C1060 1.363 . S
C1065 C1064 1.415 . S
H1066 C1063 0.999 . S
H1067 C1048 0.913 . S
H1068 C1086 0.951 . S
H1069 C1088 0.951 . S
H1070 C1090 0.950 . S
H1071 C1091 0.950 . S
H1072 C1093 0.950 . S
H1073 C1096 0.950 . S
H1074 C1097 0.950 . S
H1075 C1099 0.950 . S
H1076 C1100 0.950 . S
H1077 C1101 0.951 . S
H1078 C1103 0.951 . S
H1079 C1105 0.950 . S
H1080 C1106 0.950 . S
H1081 C1108 0.950 . S
H1082 C1111 0.950 . S
H1083 C1112 0.950 . S
H1084 C1114 0.950 . S
H1085 C1115 0.950 . S
C1086 H1068 0.951 . S
C1086 C1087 1.366 . S
C1086 C1088 1.388 . S
C1087 C1086 1.366 . S
C1087 C1091 1.385 . S
C1088 H1069 0.951 . S
C1088 C1086 1.388 . S
C1088 C1089 1.366 . S
C1089 C1088 1.366 . S
C1089 C1090 1.414 . S
C1089 C1092 1.499 . S
C1090 H1070 0.950 . S
C1090 C1089 1.414 . S
C1090 C1091 1.374 . S
C1091 H1071 0.950 . S
C1091 C1087 1.385 . S
C1091 C1090 1.374 . S
C1092 C1089 1.499 . S
C1092 C1093 1.373 . S
C1092 C1094 1.389 . S
C1093 H1072 0.950 . S
C1093 C1092 1.373 . S
C1093 C1109 1.377 . S
C1094 C1092 1.389 . S
C1094 C1095 1.524 . S
C1094 C1108 1.377 . S
C1095 C1094 1.524 . S
C1095 C1096 1.397 . S
C1095 C1100 1.363 . S
C1096 H1073 0.950 . S
C1096 C1095 1.397 . S
C1096 C1097 1.334 . S
C1097 H1074 0.950 . S
C1097 C1096 1.334 . S
C1097 C1098 1.287 . S
C1098 C1097 1.287 . S
C1098 C1099 1.524 . S
C1098 H1117 0.913 . S
C1099 H1075 0.950 . S
C1099 C1098 1.524 . S
C1099 C1100 1.415 . S
C1100 H1076 0.950 . S
C1100 C1095 1.363 . S
C1100 C1099 1.415 . S
C1101 H1077 0.951 . S
C1101 C1102 1.366 . S
C1101 C1103 1.388 . S
C1102 C1101 1.366 . S
C1102 C1106 1.385 . S
C1103 H1078 0.951 . S
C1103 C1101 1.388 . S
C1103 C1104 1.366 . S
C1104 C1103 1.366 . S
C1104 C1105 1.414 . S
C1104 C1107 1.499 . S
C1105 H1079 0.950 . S
C1105 C1104 1.414 . S
C1105 C1106 1.374 . S
C1106 H1080 0.950 . S
C1106 C1102 1.385 . S
C1106 C1105 1.374 . S
C1107 C1104 1.499 . S
C1107 C1108 1.373 . S
C1107 C1109 1.389 . S
C1108 H1081 0.950 . S
C1108 C1094 1.377 . S
C1108 C1107 1.373 . S
C1109 C1093 1.377 . S
C1109 C1107 1.389 . S
C1109 C1110 1.524 . S
C1110 C1109 1.524 . S
C1110 C1111 1.397 . S
C1110 C1115 1.363 . S
C1111 H1082 0.950 . S
C1111 C1110 1.397 . S
C1111 C1112 1.334 . S
C1112 H1083 0.950 . S
C1112 C1111 1.334 . S
C1112 C1113 1.287 . S
C1113 C1112 1.287 . S
C1113 C1114 1.524 . S
C1113 H1116 0.999 . S
C1114 H1084 0.950 . S
C1114 C1113 1.524 . S
C1114 C1115 1.415 . S
C1115 H1085 0.950 . S
C1115 C1110 1.363 . S
C1115 C1114 1.415 . S
H1116 C1113 0.999 . S
H1117 C1098 0.913 . S
H1118 C1136 0.951 . S
H1119 C1138 0.951 . S
H1120 C1140 0.950 . S
H1121 C1141 0.950 . S
H1122 C1143 0.950 . S
H1123 C1146 0.950 . S
H1124 C1147 0.950 . S
H1125 C1149 0.950 . S
H1126 C1150 0.950 . S
H1127 C1151 0.951 . S
H1128 C1153 0.951 . S
H1129 C1155 0.950 . S
H1130 C1156 0.950 . S
H1131 C1158 0.950 . S
H1132 C1161 0.950 . S
H1133 C1162 0.950 . S
H1134 C1164 0.950 . S
H1135 C1165 0.950 . S
C1136 H1118 0.951 . S
C1136 C1137 1.366 . S
C1136 C1138 1.388 . S
C1137 C1136 1.366 . S
C1137 C1141 1.385 . S
C1138 H1119 0.951 . S
C1138 C1136 1.388 . S
C1138 C1139 1.366 . S
C1139 C1138 1.366 . S
C1139 C1140 1.414 . S
C1139 C1142 1.499 . S
C1140 H1120 0.950 . S
C1140 C1139 1.414 . S
C1140 C1141 1.374 . S
C1141 H1121 0.950 . S
C1141 C1137 1.385 . S
C1141 C1140 1.374 . S
C1142 C1139 1.499 . S
C1142 C1143 1.373 . S
C1142 C1144 1.389 . S
C1143 H1122 0.950 . S
C1143 C1142 1.373 . S
C1143 C1159 1.377 . S
C1144 C1142 1.389 . S
C1144 C1145 1.524 . S
C1144 C1158 1.377 . S
C1145 C1144 1.524 . S
C1145 C1146 1.397 . S
C1145 C1150 1.363 . S
C1146 H1123 0.950 . S
C1146 C1145 1.397 . S
C1146 C1147 1.334 . S
C1147 H1124 0.950 . S
C1147 C1146 1.334 . S
C1147 C1148 1.287 . S
C1148 C1147 1.287 . S
C1148 C1149 1.524 . S
C1148 H1167 0.913 . S
C1149 H1125 0.950 . S
C1149 C1148 1.524 . S
C1149 C1150 1.415 . S
C1150 H1126 0.950 . S
C1150 C1145 1.363 . S
C1150 C1149 1.415 . S
C1151 H1127 0.951 . S
C1151 C1152 1.366 . S
C1151 C1153 1.388 . S
C1152 C1151 1.366 . S
C1152 C1156 1.385 . S
C1153 H1128 0.951 . S
C1153 C1151 1.388 . S
C1153 C1154 1.366 . S
C1154 C1153 1.366 . S
C1154 C1155 1.414 . S
C1154 C1157 1.499 . S
C1155 H1129 0.950 . S
C1155 C1154 1.414 . S
C1155 C1156 1.374 . S
C1156 H1130 0.950 . S
C1156 C1152 1.385 . S
C1156 C1155 1.374 . S
C1157 C1154 1.499 . S
C1157 C1158 1.373 . S
C1157 C1159 1.389 . S
C1158 H1131 0.950 . S
C1158 C1144 1.377 . S
C1158 C1157 1.373 . S
C1159 C1143 1.377 . S
C1159 C1157 1.389 . S
C1159 C1160 1.524 . S
C1160 C1159 1.524 . S
C1160 C1161 1.397 . S
C1160 C1165 1.363 . S
C1161 H1132 0.950 . S
C1161 C1160 1.397 . S
C1161 C1162 1.334 . S
C1162 H1133 0.950 . S
C1162 C1161 1.334 . S
C1162 C1163 1.287 . S
C1163 C1162 1.287 . S
C1163 C1164 1.524 . S
C1163 H1166 0.999 . S
C1164 H1134 0.950 . S
C1164 C1163 1.524 . S
C1164 C1165 1.415 . S
C1165 H1135 0.950 . S
C1165 C1160 1.363 . S
C1165 C1164 1.415 . S
H1166 C1163 0.999 . S
H1167 C1148 0.913 . S
H1168 C1186 0.951 . S
H1169 C1188 0.951 . S
H1170 C1190 0.950 . S
H1171 C1191 0.950 . S
H1172 C1193 0.950 . S
H1173 C1196 0.959 . S
H1174 C1197 0.950 . S
H1175 C1199 0.950 . S
H1176 C1200 0.950 . S
H1177 C1201 0.951 . S
H1178 C1203 0.951 . S
H1179 C1205 0.950 . S
H1180 C1206 0.950 . S
H1181 C1208 0.950 . S
H1182 C1211 0.950 . S
H1183 C1212 0.950 . S
H1184 C1214 0.950 . S
H1185 C1215 0.950 . S
C1186 H1168 0.951 . S
C1186 C1187 1.366 . S
C1186 C1188 1.388 . S
C1187 C1186 1.366 . S
C1187 C1191 1.385 1_565 S
C1188 H1169 0.951 . S
C1188 C1186 1.388 . S
C1188 C1189 1.366 1_565 S
C1189 C1188 1.366 1_545 S
C1189 C1190 1.414 . S
C1189 C1192 1.499 . S
C1190 H1170 0.950 . S
C1190 C1189 1.414 . S
C1190 C1191 1.374 . S
C1191 H1171 0.950 . S
C1191 C1187 1.385 1_545 S
C1191 C1190 1.374 . S
C1192 C1189 1.499 . S
C1192 C1193 1.373 . S
C1192 C1194 1.389 . S
C1193 H1172 0.950 . S
C1193 C1192 1.373 . S
C1193 C1209 1.377 . S
C1194 C1192 1.389 . S
C1194 C1195 1.524 . S
C1194 C1208 1.377 . S
C1195 C1194 1.524 . S
C1195 C1196 1.401 . S
C1195 C1200 1.363 1_545 S
C1196 H1173 0.959 . S
C1196 C1195 1.401 . S
C1196 C1197 1.321 1_545 S
C1197 H1174 0.950 . S
C1197 C1196 1.321 1_565 S
C1197 C1198 1.287 . S
C1198 C1197 1.287 . S
C1198 C1199 1.524 . S
C1198 H1217 0.913 . S
C1199 H1175 0.950 . S
C1199 C1198 1.524 . S
C1199 C1200 1.415 . S
C1200 H1176 0.950 . S
C1200 C1195 1.363 1_565 S
C1200 C1199 1.415 . S
C1201 H1177 0.951 . S
C1201 C1202 1.366 . S
C1201 C1203 1.388 . S
C1202 C1201 1.366 . S
C1202 C1206 1.385 . S
C1203 H1178 0.951 . S
C1203 C1201 1.388 . S
C1203 C1204 1.366 . S
C1204 C1203 1.366 . S
C1204 C1205 1.414 . S
C1204 C1207 1.499 . S
C1205 H1179 0.950 . S
C1205 C1204 1.414 . S
C1205 C1206 1.374 . S
C1206 H1180 0.950 . S
C1206 C1202 1.385 . S
C1206 C1205 1.374 . S
C1207 C1204 1.499 . S
C1207 C1208 1.373 . S
C1207 C1209 1.389 . S
C1208 H1181 0.950 . S
C1208 C1194 1.377 . S
C1208 C1207 1.373 . S
C1209 C1193 1.377 . S
C1209 C1207 1.389 . S
C1209 C1210 1.524 . S
C1210 C1209 1.524 . S
C1210 C1211 1.397 . S
C1210 C1215 1.363 . S
C1211 H1182 0.950 . S
C1211 C1210 1.397 . S
C1211 C1212 1.334 . S
C1212 H1183 0.950 . S
C1212 C1211 1.334 . S
C1212 C1213 1.287 . S
C1213 C1212 1.287 . S
C1213 C1214 1.524 . S
C1213 H1216 0.999 . S
C1214 H1184 0.950 . S
C1214 C1213 1.524 . S
C1214 C1215 1.415 . S
C1215 H1185 0.950 . S
C1215 C1210 1.363 . S
C1215 C1214 1.415 . S
H1216 C1213 0.999 . S
H1217 C1198 0.913 . S
H1218 C1236 0.951 . S
H1219 C1238 0.951 . S
H1220 C1240 0.950 . S
H1221 C1241 0.952 . S
H1222 C1243 0.950 . S
H1223 C1246 0.950 . S
H1224 C1247 0.950 . S
H1225 C1249 0.950 . S
H1226 C1250 0.950 . S
H1227 C1251 0.951 . S
H1228 C1253 0.951 . S
H1229 C1255 0.950 . S
H1230 C1256 0.950 . S
H1231 C1258 0.950 . S
H1232 C1261 0.950 . S
H1233 C1262 0.950 . S
H1234 C1264 0.950 . S
H1235 C1265 0.950 . S
C1236 H1218 0.951 . S
C1236 C1237 1.366 . S
C1236 C1238 1.388 1_545 S
C1237 C1236 1.366 . S
C1237 C1241 1.413 . S
C1238 H1219 0.951 . S
C1238 C1236 1.388 1_565 S
C1238 C1239 1.366 . S
C1239 C1238 1.366 . S
C1239 C1240 1.414 . S
C1239 C1242 1.499 . S
C1240 H1220 0.950 . S
C1240 C1239 1.414 . S
C1240 C1241 1.345 1_565 S
C1241 H1221 0.952 . S
C1241 C1237 1.413 . S
C1241 C1240 1.345 1_545 S
C1242 C1239 1.499 . S
C1242 C1243 1.373 . S
C1242 C1244 1.389 . S
C1243 H1222 0.950 . S
C1243 C1242 1.373 . S
C1243 C1259 1.377 . S
C1244 C1242 1.389 . S
C1244 C1245 1.524 . S
C1244 C1258 1.377 . S
C1245 C1244 1.524 . S
C1245 C1246 1.397 . S
C1245 C1250 1.363 . S
C1246 H1223 0.950 . S
C1246 C1245 1.397 . S
C1246 C1247 1.334 . S
C1247 H1224 0.950 . S
C1247 C1246 1.334 . S
C1247 C1248 1.287 . S
C1248 C1247 1.287 . S
C1248 C1249 1.524 . S
C1248 H1267 0.913 . S
C1249 H1225 0.950 . S
C1249 C1248 1.524 . S
C1249 C1250 1.415 . S
C1250 H1226 0.950 . S
C1250 C1245 1.363 . S
C1250 C1249 1.415 . S
C1251 H1227 0.951 . S
C1251 C1252 1.366 . S
C1251 C1253 1.388 . S
C1252 C1251 1.366 . S
C1252 C1256 1.385 . S
C1253 H1228 0.951 . S
C1253 C1251 1.388 . S
C1253 C1254 1.366 . S
C1254 C1253 1.366 . S
C1254 C1255 1.414 . S
C1254 C1257 1.499 . S
C1255 H1229 0.950 . S
C1255 C1254 1.414 . S
C1255 C1256 1.374 . S
C1256 H1230 0.950 . S
C1256 C1252 1.385 . S
C1256 C1255 1.374 . S
C1257 C1254 1.499 . S
C1257 C1258 1.373 . S
C1257 C1259 1.389 . S
C1258 H1231 0.950 . S
C1258 C1244 1.377 . S
C1258 C1257 1.373 . S
C1259 C1243 1.377 . S
C1259 C1257 1.389 . S
C1259 C1260 1.524 . S
C1260 C1259 1.524 . S
C1260 C1261 1.397 . S
C1260 C1265 1.363 . S
C1261 H1232 0.950 . S
C1261 C1260 1.397 . S
C1261 C1262 1.334 . S
C1262 H1233 0.950 . S
C1262 C1261 1.334 . S
C1262 C1263 1.287 . S
C1263 C1262 1.287 . S
C1263 C1264 1.524 . S
C1263 H1266 0.999 . S
C1264 H1234 0.950 . S
C1264 C1263 1.524 . S
C1264 C1265 1.415 . S
C1265 H1235 0.950 . S
C1265 C1260 1.363 . S
C1265 C1264 1.415 . S
H1266 C1263 0.999 . S
H1267 C1248 0.913 . S
H1268 C1286 0.951 . S
H1269 C1288 0.951 . S
H1270 C1290 0.946 1_565 S
H1271 C1291 0.950 . S
H1272 C1293 0.950 . S
H1273 C1296 0.950 . S
H1274 C1297 0.950 . S
H1275 C1299 0.950 . S
H1276 C1300 0.950 . S
H1277 C1301 0.951 . S
H1278 C1303 0.951 . S
H1279 C1305 0.950 . S
H1280 C1306 0.950 . S
H1281 C1308 0.950 . S
H1282 C1311 0.950 . S
H1283 C1312 0.950 . S
H1284 C1314 0.950 1_565 S
H1285 C1315 0.950 . S
C1286 H1268 0.951 . S
C1286 C1287 1.366 1_545 S
C1286 C1288 1.388 . S
C1287 C1286 1.366 1_565 S
C1287 C1291 1.385 . S
C1288 H1269 0.951 . S
C1288 C1286 1.388 . S
C1288 C1289 1.366 . S
C1289 C1288 1.366 . S
C1289 C1290 1.446 . S
C1289 C1292 1.499 . S
C1290 H1270 0.946 1_545 S
C1290 C1289 1.446 . S
C1290 C1291 1.347 1_545 S
C1291 H1271 0.950 . S
C1291 C1287 1.385 . S
C1291 C1290 1.347 1_565 S
C1292 C1289 1.499 . S
C1292 C1293 1.373 . S
C1292 C1294 1.389 . S
C1293 H1272 0.950 . S
C1293 C1292 1.373 . S
C1293 C1309 1.377 . S
C1294 C1292 1.389 . S
C1294 C1295 1.524 . S
C1294 C1308 1.377 . S
C1295 C1294 1.524 . S
C1295 C1296 1.397 . S
C1295 C1300 1.363 . S
C1296 H1273 0.950 . S
C1296 C1295 1.397 . S
C1296 C1297 1.334 . S
C1297 H1274 0.950 . S
C1297 C1296 1.334 . S
C1297 C1298 1.287 . S
C1298 C1297 1.287 . S
C1298 C1299 1.524 . S
C1298 H1317 0.913 . S
C1299 H1275 0.950 . S
C1299 C1298 1.524 . S
C1299 C1300 1.415 . S
C1300 H1276 0.950 . S
C1300 C1295 1.363 . S
C1300 C1299 1.415 . S
C1301 H1277 0.951 . S
C1301 C1302 1.366 . S
C1301 C1303 1.388 . S
C1302 C1301 1.366 . S
C1302 C1306 1.385 . S
C1303 H1278 0.951 . S
C1303 C1301 1.388 . S
C1303 C1304 1.366 . S
C1304 C1303 1.366 . S
C1304 C1305 1.414 . S
C1304 C1307 1.499 . S
C1305 H1279 0.950 . S
C1305 C1304 1.414 . S
C1305 C1306 1.374 . S
C1306 H1280 0.950 . S
C1306 C1302 1.385 . S
C1306 C1305 1.374 . S
C1307 C1304 1.499 . S
C1307 C1308 1.373 . S
C1307 C1309 1.389 . S
C1308 H1281 0.950 . S
C1308 C1294 1.377 . S
C1308 C1307 1.373 . S
C1309 C1293 1.377 . S
C1309 C1307 1.389 . S
C1309 C1310 1.524 . S
C1310 C1309 1.524 . S
C1310 C1311 1.397 . S
C1310 C1315 1.363 . S
C1311 H1282 0.950 . S
C1311 C1310 1.397 . S
C1311 C1312 1.334 . S
C1312 H1283 0.950 . S
C1312 C1311 1.334 . S
C1312 C1313 1.287 . S
C1313 C1312 1.287 . S
C1313 C1314 1.524 . S
C1313 H1316 0.999 . S
C1314 H1284 0.950 1_545 S
C1314 C1313 1.524 . S
C1314 C1315 1.415 . S
C1315 H1285 0.950 . S
C1315 C1310 1.363 . S
C1315 C1314 1.415 . S
H1316 C1313 0.999 . S
H1317 C1298 0.913 . S
H1318 C1336 0.951 . S
H1319 C1338 0.951 . S
H1320 C1340 0.950 . S
H1321 C1341 0.950 . S
H1322 C1343 0.950 . S
H1323 C1346 0.950 . S
H1324 C1347 0.950 . S
H1325 C1349 0.950 . S
H1326 C1350 0.950 . S
H1327 C1351 0.951 . S
H1328 C1353 0.951 . S
H1329 C1355 0.950 . S
H1330 C1356 0.950 . S
H1331 C1358 0.950 . S
H1332 C1361 0.950 . S
H1333 C1362 0.950 . S
H1334 C1364 0.950 . S
H1335 C1365 0.950 . S
C1336 H1318 0.951 . S
C1336 C1337 1.366 . S
C1336 C1338 1.388 1_545 S
C1337 C1336 1.366 . S
C1337 C1341 1.385 . S
C1338 H1319 0.951 . S
C1338 C1336 1.388 1_565 S
C1338 C1339 1.366 . S
C1339 C1338 1.366 . S
C1339 C1340 1.414 . S
C1339 C1342 1.499 . S
C1340 H1320 0.950 . S
C1340 C1339 1.414 . S
C1340 C1341 1.374 1_565 S
C1341 H1321 0.950 . S
C1341 C1337 1.385 . S
C1341 C1340 1.374 1_545 S
C1342 C1339 1.499 . S
C1342 C1343 1.373 . S
C1342 C1344 1.389 . S
C1343 H1322 0.950 . S
C1343 C1342 1.373 . S
C1343 C1359 1.377 . S
C1344 C1342 1.389 . S
C1344 C1345 1.524 . S
C1344 C1358 1.377 . S
C1345 C1344 1.524 . S
C1345 C1346 1.397 1_565 S
C1345 C1350 1.363 . S
C1346 H1323 0.950 . S
C1346 C1345 1.397 1_545 S
C1346 C1347 1.334 . S
C1347 H1324 0.950 . S
C1347 C1346 1.334 . S
C1347 C1348 1.287 . S
C1348 C1347 1.287 . S
C1348 C1349 1.524 1_545 S
C1348 H1367 0.913 . S
C1349 H1325 0.950 . S
C1349 C1348 1.524 1_565 S
C1349 C1350 1.415 . S
C1350 H1326 0.950 . S
C1350 C1345 1.363 . S
C1350 C1349 1.415 . S
C1351 H1327 0.951 . S
C1351 C1352 1.366 . S
C1351 C1353 1.388 . S
C1352 C1351 1.366 . S
C1352 C1356 1.385 . S
C1353 H1328 0.951 . S
C1353 C1351 1.388 . S
C1353 C1354 1.366 . S
C1354 C1353 1.366 . S
C1354 C1355 1.414 . S
C1354 C1357 1.499 . S
C1355 H1329 0.950 . S
C1355 C1354 1.414 . S
C1355 C1356 1.374 . S
C1356 H1330 0.950 . S
C1356 C1352 1.385 . S
C1356 C1355 1.374 . S
C1357 C1354 1.499 . S
C1357 C1358 1.373 . S
C1357 C1359 1.389 . S
C1358 H1331 0.950 . S
C1358 C1344 1.377 . S
C1358 C1357 1.373 . S
C1359 C1343 1.377 . S
C1359 C1357 1.389 . S
C1359 C1360 1.524 . S
C1360 C1359 1.524 . S
C1360 C1361 1.397 . S
C1360 C1365 1.363 . S
C1361 H1332 0.950 . S
C1361 C1360 1.397 . S
C1361 C1362 1.334 . S
C1362 H1333 0.950 . S
C1362 C1361 1.334 . S
C1362 C1363 1.287 . S
C1363 C1362 1.287 . S
C1363 C1364 1.524 . S
C1363 H1366 0.999 . S
C1364 H1334 0.950 . S
C1364 C1363 1.524 . S
C1364 C1365 1.415 . S
C1365 H1335 0.950 . S
C1365 C1360 1.363 . S
C1365 C1364 1.415 . S
H1366 C1363 0.999 . S
H1367 C1348 0.913 . S
H1368 C1386 0.951 . S
H1369 C1388 0.951 . S
H1370 C1390 0.950 . S
H1371 C1391 0.950 . S
H1372 C1393 0.950 . S
H1373 C1396 0.950 . S
H1374 C1397 0.950 . S
H1375 C1399 0.950 . S
H1376 C1400 0.950 . S
H1377 C1401 0.951 . S
H1378 C1403 0.951 . S
H1379 C1405 0.950 . S
H1380 C1406 0.950 . S
H1381 C1408 0.950 . S
H1382 C1411 0.950 . S
H1383 C1412 0.950 . S
H1384 C1414 0.950 . S
H1385 C1415 0.950 . S
C1386 H1368 0.951 . S
C1386 C1387 1.366 . S
C1386 C1388 1.388 . S
C1387 C1386 1.366 . S
C1387 C1391 1.385 . S
C1388 H1369 0.951 . S
C1388 C1386 1.388 . S
C1388 C1389 1.366 . S
C1389 C1388 1.366 . S
C1389 C1390 1.414 . S
C1389 C1392 1.499 . S
C1390 H1370 0.950 . S
C1390 C1389 1.414 . S
C1390 C1391 1.374 . S
C1391 H1371 0.950 . S
C1391 C1387 1.385 . S
C1391 C1390 1.374 . S
C1392 C1389 1.499 . S
C1392 C1393 1.373 . S
C1392 C1394 1.389 . S
C1393 H1372 0.950 . S
C1393 C1392 1.373 . S
C1393 C1409 1.377 . S
C1394 C1392 1.389 . S
C1394 C1395 1.524 . S
C1394 C1408 1.377 . S
C1395 C1394 1.524 . S
C1395 C1396 1.397 . S
C1395 C1400 1.363 . S
C1396 H1373 0.950 . S
C1396 C1395 1.397 . S
C1396 C1397 1.334 . S
C1397 H1374 0.950 . S
C1397 C1396 1.334 . S
C1397 C1398 1.287 . S
C1398 C1397 1.287 . S
C1398 C1399 1.524 . S
C1398 H1417 0.913 . S
C1399 H1375 0.950 . S
C1399 C1398 1.524 . S
C1399 C1400 1.415 . S
C1400 H1376 0.950 . S
C1400 C1395 1.363 . S
C1400 C1399 1.415 . S
C1401 H1377 0.951 . S
C1401 C1402 1.366 . S
C1401 C1403 1.388 . S
C1402 C1401 1.366 . S
C1402 C1406 1.385 . S
C1403 H1378 0.951 . S
C1403 C1401 1.388 . S
C1403 C1404 1.366 . S
C1404 C1403 1.366 . S
C1404 C1405 1.414 . S
C1404 C1407 1.499 . S
C1405 H1379 0.950 . S
C1405 C1404 1.414 . S
C1405 C1406 1.374 . S
C1406 H1380 0.950 . S
C1406 C1402 1.385 . S
C1406 C1405 1.374 . S
C1407 C1404 1.499 . S
C1407 C1408 1.373 . S
C1407 C1409 1.389 . S
C1408 H1381 0.950 . S
C1408 C1394 1.377 . S
C1408 C1407 1.373 . S
C1409 C1393 1.377 . S
C1409 C1407 1.389 . S
C1409 C1410 1.524 . S
C1410 C1409 1.524 . S
C1410 C1411 1.397 . S
C1410 C1415 1.363 . S
C1411 H1382 0.950 . S
C1411 C1410 1.397 . S
C1411 C1412 1.334 . S
C1412 H1383 0.950 . S
C1412 C1411 1.334 . S
C1412 C1413 1.287 . S
C1413 C1412 1.287 . S
C1413 C1414 1.524 . S
C1413 H1416 0.999 . S
C1414 H1384 0.950 . S
C1414 C1413 1.524 . S
C1414 C1415 1.415 . S
C1415 H1385 0.950 . S
C1415 C1410 1.363 . S
C1415 C1414 1.415 . S
H1416 C1413 0.999 . S
H1417 C1398 0.913 . S
H1418 C1436 0.951 . S
H1419 C1438 0.951 . S
H1420 C1440 0.950 . S
H1421 C1441 0.950 . S
H1422 C1443 0.950 . S
H1423 C1446 0.950 . S
H1424 C1447 0.950 . S
H1425 C1449 0.950 . S
H1426 C1450 0.950 . S
H1427 C1451 0.951 . S
H1428 C1453 0.951 . S
H1429 C1455 0.950 . S
H1430 C1456 0.950 . S
H1431 C1458 0.950 . S
H1432 C1461 0.950 . S
H1433 C1462 0.950 . S
H1434 C1464 0.950 . S
H1435 C1465 0.950 . S
C1436 H1418 0.951 . S
C1436 C1437 1.366 . S
C1436 C1438 1.388 . S
C1437 C1436 1.366 . S
C1437 C1441 1.385 . S
C1438 H1419 0.951 . S
C1438 C1436 1.388 . S
C1438 C1439 1.366 . S
C1439 C1438 1.366 . S
C1439 C1440 1.414 . S
C1439 C1442 1.499 . S
C1440 H1420 0.950 . S
C1440 C1439 1.414 . S
C1440 C1441 1.374 . S
C1441 H1421 0.950 . S
C1441 C1437 1.385 . S
C1441 C1440 1.374 . S
C1442 C1439 1.499 . S
C1442 C1443 1.373 . S
C1442 C1444 1.389 . S
C1443 H1422 0.950 . S
C1443 C1442 1.373 . S
C1443 C1459 1.377 . S
C1444 C1442 1.389 . S
C1444 C1445 1.524 . S
C1444 C1458 1.377 . S
C1445 C1444 1.524 . S
C1445 C1446 1.397 . S
C1445 C1450 1.363 . S
C1446 H1423 0.950 . S
C1446 C1445 1.397 . S
C1446 C1447 1.334 . S
C1447 H1424 0.950 . S
C1447 C1446 1.334 . S
C1447 C1448 1.287 . S
C1448 C1447 1.287 . S
C1448 C1449 1.524 . S
C1448 H1467 0.913 . S
C1449 H1425 0.950 . S
C1449 C1448 1.524 . S
C1449 C1450 1.415 . S
C1450 H1426 0.950 . S
C1450 C1445 1.363 . S
C1450 C1449 1.415 . S
C1451 H1427 0.951 . S
C1451 C1452 1.366 . S
C1451 C1453 1.388 . S
C1452 C1451 1.366 . S
C1452 C1456 1.385 . S
C1453 H1428 0.951 . S
C1453 C1451 1.388 . S
C1453 C1454 1.366 . S
C1454 C1453 1.366 . S
C1454 C1455 1.414 . S
C1454 C1457 1.499 . S
C1455 H1429 0.950 . S
C1455 C1454 1.414 . S
C1455 C1456 1.374 . S
C1456 H1430 0.950 . S
C1456 C1452 1.385 . S
C1456 C1455 1.374 . S
C1457 C1454 1.499 . S
C1457 C1458 1.373 . S
C1457 C1459 1.389 . S
C1458 H1431 0.950 . S
C1458 C1444 1.377 . S
C1458 C1457 1.373 . S
C1459 C1443 1.377 . S
C1459 C1457 1.389 . S
C1459 C1460 1.524 . S
C1460 C1459 1.524 . S
C1460 C1461 1.397 . S
C1460 C1465 1.363 . S
C1461 H1432 0.950 . S
C1461 C1460 1.397 . S
C1461 C1462 1.334 . S
C1462 H1433 0.950 . S
C1462 C1461 1.334 . S
C1462 C1463 1.287 . S
C1463 C1462 1.287 . S
C1463 C1464 1.524 . S
C1463 H1466 0.999 . S
C1464 H1434 0.950 . S
C1464 C1463 1.524 . S
C1464 C1465 1.415 . S
C1465 H1435 0.950 . S
C1465 C1460 1.363 . S
C1465 C1464 1.415 . S
H1466 C1463 0.999 . S
H1467 C1448 0.913 . S
H1468 C1486 0.951 . S
H1469 C1488 0.951 . S
H1470 C1490 0.950 . S
H1471 C1491 0.950 . S
H1472 C1493 0.950 . S
H1473 C1496 0.950 . S
H1474 C1497 0.950 . S
H1475 C1499 0.950 . S
H1476 C1500 0.950 . S
H1477 C1501 0.951 . S
H1478 C1503 0.951 . S
H1479 C1505 0.950 . S
H1480 C1506 0.950 . S
H1481 C1508 0.950 . S
H1482 C1511 0.950 . S
H1483 C1512 0.950 . S
H1484 C1514 0.950 . S
H1485 C1515 0.950 . S
C1486 H1468 0.951 . S
C1486 C1487 1.366 . S
C1486 C1488 1.388 . S
C1487 C1486 1.366 . S
C1487 C1491 1.385 . S
C1488 H1469 0.951 . S
C1488 C1486 1.388 . S
C1488 C1489 1.366 . S
C1489 C1488 1.366 . S
C1489 C1490 1.414 . S
C1489 C1492 1.499 . S
C1490 H1470 0.950 . S
C1490 C1489 1.414 . S
C1490 C1491 1.374 . S
C1491 H1471 0.950 . S
C1491 C1487 1.385 . S
C1491 C1490 1.374 . S
C1492 C1489 1.499 . S
C1492 C1493 1.373 . S
C1492 C1494 1.389 . S
C1493 H1472 0.950 . S
C1493 C1492 1.373 . S
C1493 C1509 1.377 . S
C1494 C1492 1.389 . S
C1494 C1495 1.524 . S
C1494 C1508 1.377 . S
C1495 C1494 1.524 . S
C1495 C1496 1.397 . S
C1495 C1500 1.363 . S
C1496 H1473 0.950 . S
C1496 C1495 1.397 . S
C1496 C1497 1.334 . S
C1497 H1474 0.950 . S
C1497 C1496 1.334 . S
C1497 C1498 1.287 . S
C1498 C1497 1.287 . S
C1498 C1499 1.524 . S
C1498 H1517 0.913 . S
C1499 H1475 0.950 . S
C1499 C1498 1.524 . S
C1499 C1500 1.415 . S
C1500 H1476 0.950 . S
C1500 C1495 1.363 . S
C1500 C1499 1.415 . S
C1501 H1477 0.951 . S
C1501 C1502 1.366 . S
C1501 C1503 1.388 . S
C1502 C1501 1.366 . S
C1502 C1506 1.385 . S
C1503 H1478 0.951 . S
C1503 C1501 1.388 . S
C1503 C1504 1.366 . S
C1504 C1503 1.366 . S
C1504 C1505 1.414 . S
C1504 C1507 1.499 . S
C1505 H1479 0.950 . S
C1505 C1504 1.414 . S
C1505 C1506 1.374 . S
C1506 H1480 0.950 . S
C1506 C1502 1.385 . S
C1506 C1505 1.374 . S
C1507 C1504 1.499 . S
C1507 C1508 1.373 . S
C1507 C1509 1.389 . S
C1508 H1481 0.950 . S
C1508 C1494 1.377 . S
C1508 C1507 1.373 . S
C1509 C1493 1.377 . S
C1509 C1507 1.389 . S
C1509 C1510 1.524 . S
C1510 C1509 1.524 . S
C1510 C1511 1.397 . S
C1510 C1515 1.363 . S
C1511 H1482 0.950 . S
C1511 C1510 1.397 . S
C1511 C1512 1.334 . S
C1512 H1483 0.950 . S
C1512 C1511 1.334 . S
C1512 C1513 1.287 . S
C1513 C1512 1.287 . S
C1513 C1514 1.524 . S
C1513 H1516 0.999 . S
C1514 H1484 0.950 . S
C1514 C1513 1.524 . S
C1514 C1515 1.415 . S
C1515 H1485 0.950 . S
C1515 C1510 1.363 . S
C1515 C1514 1.415 . S
H1516 C1513 0.999 . S
H1517 C1498 0.913 . S
H1518 C1536 0.951 . S
H1519 C1538 0.951 . S
H1520 C1540 0.950 . S
H1521 C1541 0.950 . S
H1522 C1543 0.950 . S
H1523 C1546 0.950 . S
H1524 C1547 0.950 . S
H1525 C1549 0.950 . S
H1526 C1550 0.950 . S
H1527 C1551 0.951 . S
H1528 C1553 0.951 . S
H1529 C1555 0.950 . S
H1530 C1556 0.950 . S
H1531 C1558 0.950 . S
H1532 C1561 0.950 . S
H1533 C1562 0.950 . S
H1534 C1564 0.950 . S
H1535 C1565 0.950 . S
C1536 H1518 0.951 . S
C1536 C1537 1.366 . S
C1536 C1538 1.388 . S
C1537 C1536 1.366 . S
C1537 C1541 1.385 . S
C1538 H1519 0.951 . S
C1538 C1536 1.388 . S
C1538 C1539 1.366 . S
C1539 C1538 1.366 . S
C1539 C1540 1.414 . S
C1539 C1542 1.499 . S
C1540 H1520 0.950 . S
C1540 C1539 1.414 . S
C1540 C1541 1.374 . S
C1541 H1521 0.950 . S
C1541 C1537 1.385 . S
C1541 C1540 1.374 . S
C1542 C1539 1.499 . S
C1542 C1543 1.373 . S
C1542 C1544 1.389 . S
C1543 H1522 0.950 . S
C1543 C1542 1.373 . S
C1543 C1559 1.377 . S
C1544 C1542 1.389 . S
C1544 C1545 1.524 . S
C1544 C1558 1.377 . S
C1545 C1544 1.524 . S
C1545 C1546 1.397 . S
C1545 C1550 1.363 . S
C1546 H1523 0.950 . S
C1546 C1545 1.397 . S
C1546 C1547 1.334 . S
C1547 H1524 0.950 . S
C1547 C1546 1.334 . S
C1547 C1548 1.287 . S
C1548 C1547 1.287 . S
C1548 C1549 1.524 . S
C1548 H1567 0.913 . S
C1549 H1525 0.950 . S
C1549 C1548 1.524 . S
C1549 C1550 1.415 . S
C1550 H1526 0.950 . S
C1550 C1545 1.363 . S
C1550 C1549 1.415 . S
C1551 H1527 0.951 . S
C1551 C1552 1.366 . S
C1551 C1553 1.388 . S
C1552 C1551 1.366 . S
C1552 C1556 1.385 . S
C1553 H1528 0.951 . S
C1553 C1551 1.388 . S
C1553 C1554 1.366 . S
C1554 C1553 1.366 . S
C1554 C1555 1.414 . S
C1554 C1557 1.499 . S
C1555 H1529 0.950 . S
C1555 C1554 1.414 . S
C1555 C1556 1.374 . S
C1556 H1530 0.950 . S
C1556 C1552 1.385 . S
C1556 C1555 1.374 . S
C1557 C1554 1.499 . S
C1557 C1558 1.373 . S
C1557 C1559 1.389 . S
C1558 H1531 0.950 . S
C1558 C1544 1.377 . S
C1558 C1557 1.373 . S
C1559 C1543 1.377 . S
C1559 C1557 1.389 . S
C1559 C1560 1.524 . S
C1560 C1559 1.524 . S
C1560 C1561 1.397 . S
C1560 C1565 1.363 . S
C1561 H1532 0.950 . S
C1561 C1560 1.397 . S
C1561 C1562 1.334 . S
C1562 H1533 0.950 . S
C1562 C1561 1.334 . S
C1562 C1563 1.287 . S
C1563 C1562 1.287 . S
C1563 C1564 1.524 . S
C1563 H1566 0.999 . S
C1564 H1534 0.950 . S
C1564 C1563 1.524 . S
C1564 C1565 1.415 . S
C1565 H1535 0.950 . S
C1565 C1560 1.363 . S
C1565 C1564 1.415 . S
H1566 C1563 0.999 . S
H1567 C1548 0.913 . S
H1568 C1586 0.951 . S
H1569 C1588 0.951 . S
H1570 C1590 0.950 . S
H1571 C1591 0.950 . S
H1572 C1593 0.950 . S
H1573 C1596 0.950 . S
H1574 C1597 0.950 . S
H1575 C1599 0.950 . S
H1576 C1600 0.950 . S
H1577 C1601 0.951 . S
H1578 C1603 0.951 . S
H1579 C1605 0.950 . S
H1580 C1606 0.950 . S
H1581 C1608 0.950 . S
H1582 C1611 0.950 . S
H1583 C1612 0.950 . S
H1584 C1614 0.950 . S
H1585 C1615 0.950 . S
C1586 H1568 0.951 . S
C1586 C1587 1.366 . S
C1586 C1588 1.388 . S
C1587 C1586 1.366 . S
C1587 C1591 1.385 . S
C1588 H1569 0.951 . S
C1588 C1586 1.388 . S
C1588 C1589 1.366 . S
C1589 C1588 1.366 . S
C1589 C1590 1.414 . S
C1589 C1592 1.499 . S
C1590 H1570 0.950 . S
C1590 C1589 1.414 . S
C1590 C1591 1.374 . S
C1591 H1571 0.950 . S
C1591 C1587 1.385 . S
C1591 C1590 1.374 . S
C1592 C1589 1.499 . S
C1592 C1593 1.373 . S
C1592 C1594 1.389 . S
C1593 H1572 0.950 . S
C1593 C1592 1.373 . S
C1593 C1609 1.377 . S
C1594 C1592 1.389 . S
C1594 C1595 1.524 . S
C1594 C1608 1.377 . S
C1595 C1594 1.524 . S
C1595 C1596 1.397 . S
C1595 C1600 1.363 . S
C1596 H1573 0.950 . S
C1596 C1595 1.397 . S
C1596 C1597 1.334 . S
C1597 H1574 0.950 . S
C1597 C1596 1.334 . S
C1597 C1598 1.287 . S
C1598 C1597 1.287 . S
C1598 C1599 1.524 . S
C1598 H1617 0.913 . S
C1599 H1575 0.950 . S
C1599 C1598 1.524 . S
C1599 C1600 1.415 . S
C1600 H1576 0.950 . S
C1600 C1595 1.363 . S
C1600 C1599 1.415 . S
C1601 H1577 0.951 . S
C1601 C1602 1.366 . S
C1601 C1603 1.388 . S
C1602 C1601 1.366 . S
C1602 C1606 1.385 . S
C1603 H1578 0.951 . S
C1603 C1601 1.388 . S
C1603 C1604 1.366 . S
C1604 C1603 1.366 . S
C1604 C1605 1.414 . S
C1604 C1607 1.499 . S
C1605 H1579 0.950 . S
C1605 C1604 1.414 . S
C1605 C1606 1.374 . S
C1606 H1580 0.950 . S
C1606 C1602 1.385 . S
C1606 C1605 1.374 . S
C1607 C1604 1.499 . S
C1607 C1608 1.373 . S
C1607 C1609 1.389 . S
C1608 H1581 0.950 . S
C1608 C1594 1.377 . S
C1608 C1607 1.373 . S
C1609 C1593 1.377 . S
C1609 C1607 1.389 . S
C1609 C1610 1.524 . S
C1610 C1609 1.524 . S
C1610 C1611 1.397 . S
C1610 C1615 1.363 . S
C1611 H1582 0.950 . S
C1611 C1610 1.397 . S
C1611 C1612 1.334 . S
C1612 H1583 0.950 . S
C1612 C1611 1.334 . S
C1612 C1613 1.287 . S
C1613 C1612 1.287 . S
C1613 C1614 1.524 . S
C1613 H1616 0.999 . S
C1614 H1584 0.950 . S
C1614 C1613 1.524 . S
C1614 C1615 1.415 . S
C1615 H1585 0.950 . S
C1615 C1610 1.363 . S
C1615 C1614 1.415 . S
H1616 C1613 0.999 . S
H1617 C1598 0.913 . S
H1618 C1636 0.951 . S
H1619 C1638 0.951 . S
H1620 C1640 0.950 . S
H1621 C1641 0.950 . S
H1622 C1643 0.950 . S
H1623 C1646 0.950 . S
H1624 C1647 0.950 . S
H1625 C1649 0.950 . S
H1626 C1650 0.950 . S
H1627 C1651 0.951 . S
H1628 C1653 0.951 . S
H1629 C1655 0.950 . S
H1630 C1656 0.950 . S
H1631 C1658 0.950 . S
H1632 C1661 0.950 . S
H1633 C1662 0.950 . S
H1634 C1664 0.950 . S
H1635 C1665 0.950 . S
C1636 H1618 0.951 . S
C1636 C1637 1.366 . S
C1636 C1638 1.388 . S
C1637 C1636 1.366 . S
C1637 C1641 1.385 . S
C1638 H1619 0.951 . S
C1638 C1636 1.388 . S
C1638 C1639 1.366 . S
C1639 C1638 1.366 . S
C1639 C1640 1.414 . S
C1639 C1642 1.499 . S
C1640 H1620 0.950 . S
C1640 C1639 1.414 . S
C1640 C1641 1.374 . S
C1641 H1621 0.950 . S
C1641 C1637 1.385 . S
C1641 C1640 1.374 . S
C1642 C1639 1.499 . S
C1642 C1643 1.373 . S
C1642 C1644 1.389 . S
C1643 H1622 0.950 . S
C1643 C1642 1.373 . S
C1643 C1659 1.377 . S
C1644 C1642 1.389 . S
C1644 C1645 1.524 . S
C1644 C1658 1.377 . S
C1645 C1644 1.524 . S
C1645 C1646 1.397 . S
C1645 C1650 1.363 . S
C1646 H1623 0.950 . S
C1646 C1645 1.397 . S
C1646 C1647 1.334 . S
C1647 H1624 0.950 . S
C1647 C1646 1.334 . S
C1647 C1648 1.287 . S
C1648 C1647 1.287 . S
C1648 C1649 1.524 . S
C1648 H1667 0.913 . S
C1649 H1625 0.950 . S
C1649 C1648 1.524 . S
C1649 C1650 1.415 . S
C1650 H1626 0.950 . S
C1650 C1645 1.363 . S
C1650 C1649 1.415 . S
C1651 H1627 0.951 . S
C1651 C1652 1.366 . S
C1651 C1653 1.388 . S
C1652 C1651 1.366 . S
C1652 C1656 1.385 . S
C1653 H1628 0.951 . S
C1653 C1651 1.388 . S
C1653 C1654 1.366 . S
C1654 C1653 1.366 . S
C1654 C1655 1.414 . S
C1654 C1657 1.499 . S
C1655 H1629 0.950 . S
C1655 C1654 1.414 . S
C1655 C1656 1.374 . S
C1656 H1630 0.950 . S
C1656 C1652 1.385 . S
C1656 C1655 1.374 . S
C1657 C1654 1.499 . S
C1657 C1658 1.373 . S
C1657 C1659 1.389 . S
C1658 H1631 0.950 . S
C1658 C1644 1.377 . S
C1658 C1657 1.373 . S
C1659 C1643 1.377 . S
C1659 C1657 1.389 . S
C1659 C1660 1.524 . S
C1660 C1659 1.524 . S
C1660 C1661 1.397 . S
C1660 C1665 1.363 . S
C1661 H1632 0.950 . S
C1661 C1660 1.397 . S
C1661 C1662 1.334 . S
C1662 H1633 0.950 . S
C1662 C1661 1.334 . S
C1662 C1663 1.287 . S
C1663 C1662 1.287 . S
C1663 C1664 1.524 . S
C1663 H1666 0.999 . S
C1664 H1634 0.950 . S
C1664 C1663 1.524 . S
C1664 C1665 1.415 . S
C1665 H1635 0.950 . S
C1665 C1660 1.363 . S
C1665 C1664 1.415 . S
H1666 C1663 0.999 . S
H1667 C1648 0.913 . S
H1668 C1686 0.951 . S
H1669 C1688 0.951 . S
H1670 C1690 0.950 . S
H1671 C1691 0.950 . S
H1672 C1693 0.950 . S
H1673 C1696 0.950 . S
H1674 C1697 0.950 . S
H1675 C1699 0.950 . S
H1676 C1700 0.950 . S
H1677 C1701 0.951 . S
H1678 C1703 0.951 . S
H1679 C1705 0.950 . S
H1680 C1706 0.950 . S
H1681 C1708 0.950 . S
H1682 C1711 0.950 . S
H1683 C1712 0.950 . S
H1684 C1714 0.950 . S
H1685 C1715 0.950 . S
C1686 H1668 0.951 . S
C1686 C1687 1.366 . S
C1686 C1688 1.388 . S
C1687 C1686 1.366 . S
C1687 C1691 1.385 . S
C1688 H1669 0.951 . S
C1688 C1686 1.388 . S
C1688 C1689 1.366 . S
C1689 C1688 1.366 . S
C1689 C1690 1.414 . S
C1689 C1692 1.499 . S
C1690 H1670 0.950 . S
C1690 C1689 1.414 . S
C1690 C1691 1.374 . S
C1691 H1671 0.950 . S
C1691 C1687 1.385 . S
C1691 C1690 1.374 . S
C1692 C1689 1.499 . S
C1692 C1693 1.373 . S
C1692 C1694 1.389 . S
C1693 H1672 0.950 . S
C1693 C1692 1.373 . S
C1693 C1709 1.377 . S
C1694 C1692 1.389 . S
C1694 C1695 1.524 . S
C1694 C1708 1.377 . S
C1695 C1694 1.524 . S
C1695 C1696 1.397 . S
C1695 C1700 1.363 . S
C1696 H1673 0.950 . S
C1696 C1695 1.397 . S
C1696 C1697 1.334 . S
C1697 H1674 0.950 . S
C1697 C1696 1.334 . S
C1697 C1698 1.287 . S
C1698 C1697 1.287 . S
C1698 C1699 1.524 . S
C1698 H1717 0.913 . S
C1699 H1675 0.950 . S
C1699 C1698 1.524 . S
C1699 C1700 1.415 . S
C1700 H1676 0.950 . S
C1700 C1695 1.363 . S
C1700 C1699 1.415 . S
C1701 H1677 0.951 . S
C1701 C1702 1.366 . S
C1701 C1703 1.388 . S
C1702 C1701 1.366 . S
C1702 C1706 1.385 . S
C1703 H1678 0.951 . S
C1703 C1701 1.388 . S
C1703 C1704 1.366 . S
C1704 C1703 1.366 . S
C1704 C1705 1.414 . S
C1704 C1707 1.499 . S
C1705 H1679 0.950 . S
C1705 C1704 1.414 . S
C1705 C1706 1.374 . S
C1706 H1680 0.950 . S
C1706 C1702 1.385 . S
C1706 C1705 1.374 . S
C1707 C1704 1.499 . S
C1707 C1708 1.373 . S
C1707 C1709 1.389 . S
C1708 H1681 0.950 . S
C1708 C1694 1.377 . S
C1708 C1707 1.373 . S
C1709 C1693 1.377 . S
C1709 C1707 1.389 . S
C1709 C1710 1.524 . S
C1710 C1709 1.524 . S
C1710 C1711 1.397 . S
C1710 C1715 1.363 . S
C1711 H1682 0.950 . S
C1711 C1710 1.397 . S
C1711 C1712 1.334 . S
C1712 H1683 0.950 . S
C1712 C1711 1.334 . S
C1712 C1713 1.287 . S
C1713 C1712 1.287 . S
C1713 C1714 1.524 . S
C1713 H1716 0.999 . S
C1714 H1684 0.950 . S
C1714 C1713 1.524 . S
C1714 C1715 1.415 . S
C1715 H1685 0.950 . S
C1715 C1710 1.363 . S
C1715 C1714 1.415 . S
H1716 C1713 0.999 . S
H1717 C1698 0.913 . S
H1718 C1736 0.951 . S
H1719 C1738 0.951 . S
H1720 C1740 0.950 . S
H1721 C1741 0.950 . S
H1722 C1743 0.950 . S
H1723 C1746 0.950 . S
H1724 C1747 0.950 . S
H1725 C1749 0.950 . S
H1726 C1750 0.950 . S
H1727 C1751 0.951 . S
H1728 C1753 0.951 . S
H1729 C1755 0.950 . S
H1730 C1756 0.950 . S
H1731 C1758 0.950 . S
H1732 C1761 0.950 . S
H1733 C1762 0.950 . S
H1734 C1764 0.950 . S
H1735 C1765 0.950 . S
C1736 H1718 0.951 . S
C1736 C1737 1.366 . S
C1736 C1738 1.388 . S
C1737 C1736 1.366 . S
C1737 C1741 1.385 . S
C1738 H1719 0.951 . S
C1738 C1736 1.388 . S
C1738 C1739 1.366 . S
C1739 C1738 1.366 . S
C1739 C1740 1.414 . S
C1739 C1742 1.499 . S
C1740 H1720 0.950 . S
C1740 C1739 1.414 . S
C1740 C1741 1.374 . S
C1741 H1721 0.950 . S
C1741 C1737 1.385 . S
C1741 C1740 1.374 . S
C1742 C1739 1.499 . S
C1742 C1743 1.373 . S
C1742 C1744 1.389 . S
C1743 H1722 0.950 . S
C1743 C1742 1.373 . S
C1743 C1759 1.377 . S
C1744 C1742 1.389 . S
C1744 C1745 1.524 . S
C1744 C1758 1.377 . S
C1745 C1744 1.524 . S
C1745 C1746 1.397 . S
C1745 C1750 1.363 . S
C1746 H1723 0.950 . S
C1746 C1745 1.397 . S
C1746 C1747 1.334 . S
C1747 H1724 0.950 . S
C1747 C1746 1.334 . S
C1747 C1748 1.287 . S
C1748 C1747 1.287 . S
C1748 C1749 1.524 . S
C1748 H1767 0.913 . S
C1749 H1725 0.950 . S
C1749 C1748 1.524 . S
C1749 C1750 1.415 . S
C1750 H1726 0.950 . S
C1750 C1745 1.363 . S
C1750 C1749 1.415 . S
C1751 H1727 0.951 . S
C1751 C1752 1.366 . S
C1751 C1753 1.388 . S
C1752 C1751 1.366 . S
C1752 C1756 1.385 . S
C1753 H1728 0.951 . S
C1753 C1751 1.388 . S
C1753 C1754 1.366 . S
C1754 C1753 1.366 . S
C1754 C1755 1.414 . S
C1754 C1757 1.499 . S
C1755 H1729 0.950 . S
C1755 C1754 1.414 . S
C1755 C1756 1.374 . S
C1756 H1730 0.950 . S
C1756 C1752 1.385 . S
C1756 C1755 1.374 . S
C1757 C1754 1.499 . S
C1757 C1758 1.373 . S
C1757 C1759 1.389 . S
C1758 H1731 0.950 . S
C1758 C1744 1.377 . S
C1758 C1757 1.373 . S
C1759 C1743 1.377 . S
C1759 C1757 1.389 . S
C1759 C1760 1.524 . S
C1760 C1759 1.524 . S
C1760 C1761 1.397 . S
C1760 C1765 1.363 . S
C1761 H1732 0.950 . S
C1761 C1760 1.397 . S
C1761 C1762 1.334 . S
C1762 H1733 0.950 . S
C1762 C1761 1.334 . S
C1762 C1763 1.287 . S
C1763 C1762 1.287 . S
C1763 C1764 1.524 . S
C1763 H1766 1.023 . S
C1764 H1734 0.950 . S
C1764 C1763 1.524 . S
C1764 C1765 1.415 . S
C1765 H1735 0.950 . S
C1765 C1760 1.363 . S
C1765 C1764 1.415 . S
H1766 C1763 1.023 . S
H1767 C1748 0.913 . S
C587 C31 1.506 . S
C602 C523 1.529 . S
C652 C487 1.529 . S
C637 C61 1.506 . S
C702 C510 1.515 . S
C687 C151 1.473 . S
C752 C498 1.515 . S
C737 C181 1.511 . S
C802 C567 1.529 . S
C787 C271 1.506 . S
C852 C531 1.528 . S
C837 C301 1.506 . S
C887 C391 1.473 . S
C902 C554 1.515 . S
C952 C542 1.515 . S
C937 C421 1.512 . S
C987 C20 1.473 . S
C1002 C564 1.499 . S
C1052 C534 1.499 . S
C1037 C91 1.473 . S
C1087 C121 1.457 . S
C1102 C553 1.530 . S
C1137 C211 1.539 . S
C1152 C539 1.530 . S
C1202 C520 1.499 . S
C1187 C260 1.473 . S
C1237 C331 1.473 . S
C1252 C490 1.499 . S
C1302 C509 1.530 . S
C1287 C361 1.457 . S
C1352 C495 1.530 . S
C1337 C451 1.539 . S
C1402 C545 1.499 . S
C1387 C1 1.432 . S
C1452 C561 1.499 . S
C1437 C80 1.432 . S
C1487 C140 1.434 . S
C1502 C532 1.466 . S
C1552 C556 1.466 . S
C1537 C200 1.423 . S
C1602 C501 1.498 . S
C1587 C241 1.432 . S
C1637 C320 1.432 . S
C1652 C517 1.499 . S
C1687 C380 1.435 . S
C1702 C488 1.466 . S
C1737 C440 1.423 . S
C1752 C512 1.466 . S
