# Generated by pormake.
# Topology zzz, (3,6)-cn, num edge types: 1
# Building blocks:
#     Node 0, Type 0, BuildingBlock: CUQRIR_clean_linker_1, # of connection points: 3
#     Node 1, Type 0, BuildingBlock: CUQRIR_clean_linker_1, # of connection points: 3
#     Node 2, Type 0, BuildingBlock: CUQRIR_clean_linker_1, # of connection points: 3
#     Node 3, Type 0, BuildingBlock: CUQRIR_clean_linker_1, # of connection points: 3
#     Node 4, Type 0, BuildingBlock: CUQRIR_clean_linker_1, # of connection points: 3
#     Node 5, Type 0, BuildingBlock: CUQRIR_clean_linker_1, # of connection points: 3
#     Node 6, Type 0, BuildingBlock: CUQRIR_clean_linker_1, # of connection points: 3
#     Node 7, Type 0, BuildingBlock: CUQRIR_clean_linker_1, # of connection points: 3
#     Node 8, Type 1, BuildingBlock: KUMBOL_clean_sbu_1, # of connection points: 6
#     Node 9, Type 1, BuildingBlock: KUMBOL_clean_sbu_1, # of connection points: 6
#     Node 10, Type 1, BuildingBlock: KUMBOL_clean_sbu_1, # of connection points: 6
#     Node 11, Type 1, BuildingBlock: KUMBOL_clean_sbu_1, # of connection points: 6
#     Edge 12, Type (0, 1), BuildingBlock: XIVTED_clean_linker_0, # of connection points: 2
#     Edge 13, Type (0, 1), BuildingBlock: XIVTED_clean_linker_0, # of connection points: 2
#     Edge 14, Type (0, 1), BuildingBlock: XIVTED_clean_linker_0, # of connection points: 2
#     Edge 15, Type (0, 1), BuildingBlock: XIVTED_clean_linker_0, # of connection points: 2
#     Edge 16, Type (0, 1), BuildingBlock: XIVTED_clean_linker_0, # of connection points: 2
#     Edge 17, Type (0, 1), BuildingBlock: XIVTED_clean_linker_0, # of connection points: 2
#     Edge 18, Type (0, 1), BuildingBlock: XIVTED_clean_linker_0, # of connection points: 2
#     Edge 19, Type (0, 1), BuildingBlock: XIVTED_clean_linker_0, # of connection points: 2
#     Edge 20, Type (0, 1), BuildingBlock: XIVTED_clean_linker_0, # of connection points: 2
#     Edge 21, Type (0, 1), BuildingBlock: XIVTED_clean_linker_0, # of connection points: 2
#     Edge 22, Type (0, 1), BuildingBlock: XIVTED_clean_linker_0, # of connection points: 2
#     Edge 23, Type (0, 1), BuildingBlock: XIVTED_clean_linker_0, # of connection points: 2
#     Edge 24, Type (0, 1), BuildingBlock: XIVTED_clean_linker_0, # of connection points: 2
#     Edge 25, Type (0, 1), BuildingBlock: XIVTED_clean_linker_0, # of connection points: 2
#     Edge 26, Type (0, 1), BuildingBlock: XIVTED_clean_linker_0, # of connection points: 2
#     Edge 27, Type (0, 1), BuildingBlock: XIVTED_clean_linker_0, # of connection points: 2
#     Edge 28, Type (0, 1), BuildingBlock: XIVTED_clean_linker_0, # of connection points: 2
#     Edge 29, Type (0, 1), BuildingBlock: XIVTED_clean_linker_0, # of connection points: 2
#     Edge 30, Type (0, 1), BuildingBlock: XIVTED_clean_linker_0, # of connection points: 2
#     Edge 31, Type (0, 1), BuildingBlock: XIVTED_clean_linker_0, # of connection points: 2
#     Edge 32, Type (0, 1), BuildingBlock: XIVTED_clean_linker_0, # of connection points: 2
#     Edge 33, Type (0, 1), BuildingBlock: XIVTED_clean_linker_0, # of connection points: 2
#     Edge 34, Type (0, 1), BuildingBlock: XIVTED_clean_linker_0, # of connection points: 2
#     Edge 35, Type (0, 1), BuildingBlock: XIVTED_clean_linker_0, # of connection points: 2
# Relax obj value: 0.217
# Max RMSD: 0.114
# Mean RMSD: 0.090
data_MOF--net-zzz--node1-KUMBOL_clean_sbu_1--node2-CUQRIR_clean_linker_1--edge1-XIVTED_clean_linker_0
_symmetry_space_group_name_H-M    P1
_symmetry_Int_Tables_number       1
_symmetry_cell_setting            triclinic
loop_
_symmetry_equiv_pos_as_xyz
'x, y, z'
_cell_length_a     47.039935
_cell_length_b     46.530094
_cell_length_c     14.160468
_cell_angle_alpha  90.030877
_cell_angle_beta   90.043514
_cell_angle_gamma 90.332645
loop_
_atom_site_label
_atom_site_type_symbol
_atom_site_fract_x
_atom_site_fract_y
_atom_site_fract_z
_atom_type_partial_charge
C0 C 0.75076 0.53007 0.32238 0.0
N1 N 0.7756 0.54344 0.34702 0.0
N2 N 0.73515 0.54665 0.26191 0.0
C3 C 0.74216 0.50068 0.35507 0.0
C4 C 0.75176 0.57033 0.25013 0.0
N5 N 0.77604 0.56846 0.30148 0.0
C6 C 0.745 0.59445 0.18307 0.0
H7 H 0.75102 0.48454 0.30567 0.0
H8 H 0.71866 0.49841 0.35542 0.0
H9 H 0.7508 0.49637 0.4266 0.0
H10 H 0.72547 0.6055 0.20693 0.0
H11 H 0.74073 0.58554 0.11168 0.0
H12 H 0.76239 0.61058 0.17908 0.0
C13 C 1.00123 0.75546 0.36004 0.0
N14 N 0.99112 0.78306 0.35433 0.0
N15 N 0.99381 0.7396 0.28193 0.0
C16 C 0.01779 0.74388 0.4418 0.0
C17 C 0.97945 0.75869 0.22832 0.0
N18 N 0.97719 0.78448 0.27241 0.0
C19 C 0.97124 0.75312 0.12661 0.0
H20 H 0.04066 0.74873 0.43073 0.0
H21 H 0.01511 0.72022 0.44706 0.0
H22 H 1.011 0.75429 0.50855 0.0
H23 H 0.94834 0.74739 0.12315 0.0
H24 H 0.98358 0.73522 0.09556 0.0
H25 H 0.97503 0.77241 0.08233 0.0
C26 C 0.7891 1.01136 0.34552 0.0
N27 N 0.76245 1.00004 0.35527 0.0
N28 N 0.80453 0.99643 0.28031 0.0
C29 C 0.79933 0.03805 0.39437 0.0
C30 C 0.78608 0.97583 0.25072 0.0
N31 N 0.76065 0.97806 0.29524 0.0
C32 C 0.79241 0.95478 0.17288 0.0
H33 H 0.79127 0.05705 0.35557 0.0
H34 H 0.8229 0.039 0.39556 0.0
H35 H 0.7909 0.03892 0.46748 0.0
H36 H 0.81334 0.9446 0.18519 0.0
H37 H 0.79362 0.96646 0.10467 0.0
H38 H 0.77593 0.93769 0.16816 0.0
C39 C 0.54996 0.80266 0.35259 0.0
N40 N 0.55274 0.77366 0.33974 0.0
N41 N 0.55413 0.81727 0.26971 0.0
C42 C 0.54202 0.81652 0.4442 0.0
C43 C 0.55917 0.79604 0.20673 0.0
N44 N 0.55822 0.76985 0.24853 0.0
C45 C 0.5614 0.80056 0.10134 0.0
H46 H 0.51858 0.81553 0.4523 0.0
H47 H 0.54884 0.8394 0.44541 0.0
H48 H 0.5517 0.80474 0.5042 0.0
H49 H 0.56046 0.8235 0.08087 0.0
H50 H 0.54392 0.7888 0.06513 0.0
H51 H 0.5818 0.79166 0.07569 0.0
C52 C 0.28899 0.5105 0.13001 0.0
N53 N 0.26313 0.5239 0.1293 0.0
N54 N 0.30515 0.51931 0.20541 0.0
C55 C 0.29822 0.48868 0.05881 0.0
C56 C 0.28818 0.53841 0.24957 0.0
N57 N 0.26315 0.54126 0.20377 0.0
C58 C 0.29546 0.5531 0.3413 0.0
H59 H 0.28971 0.46733 0.07969 0.0
H60 H 0.32176 0.48744 0.05578 0.0
H61 H 0.28955 0.49403 0.98809 0.0
H62 H 0.31865 0.55733 0.34634 0.0
H63 H 0.28927 0.5388 0.40059 0.0
H64 H 0.28385 0.57365 0.34885 0.0
C65 C 0.03503 0.3066 0.09886 0.0
N66 N 0.04748 0.28013 0.09829 0.0
N67 N 0.05085 0.32618 0.14879 0.0
C68 C 1.00696 0.31304 0.05386 0.0
C69 C 0.07366 0.31048 0.1756 0.0
N70 N 0.07088 0.28229 0.1511 0.0
C71 C 0.09854 0.32258 0.23031 0.0
H72 H 1.00531 0.3021 0.9844 0.0
H73 H 1.00415 0.33655 0.04482 0.0
H74 H 0.98971 0.30458 0.09967 0.0
H75 H 0.09105 0.33229 0.29738 0.0
H76 H 0.10891 0.33979 0.18836 0.0
H77 H 0.11474 0.30596 0.24526 0.0
C78 C 0.25345 0.04175 0.15778 0.0
N79 N 0.27906 0.05457 0.14018 0.0
N80 N 0.23706 0.05832 0.21591 0.0
C81 C 0.245 1.01265 0.12173 0.0
C82 C 0.25394 0.08152 0.23329 0.0
N83 N 0.2792 0.07925 0.18779 0.0
C84 C 0.2462 0.10567 0.29917 0.0
H85 H 0.25451 1.00871 0.05125 0.0
H86 H 0.22151 1.0106 0.11757 0.0
H87 H 0.2531 0.99609 0.17107 0.0
H88 H 0.23911 0.09674 0.36796 0.0
H89 H 0.22826 0.11792 0.26879 0.0
H90 H 0.26402 0.12094 0.31065 0.0
C91 C 0.51741 0.26064 0.13542 0.0
N92 N 0.50582 0.28647 0.11152 0.0
N93 N 0.50102 0.24647 0.20073 0.0
C94 C 0.54465 0.24941 0.09531 0.0
C95 C 0.47928 0.26508 0.21589 0.0
N96 N 0.48209 0.28897 0.16174 0.0
C97 C 0.45585 0.26043 0.28695 0.0
H98 H 0.54808 0.2578 0.02284 0.0
H99 H 0.54449 0.22556 0.09428 0.0
H100 H 0.56256 0.25681 0.14031 0.0
H101 H 0.46446 0.25066 0.3524 0.0
H102 H 0.43982 0.24548 0.25668 0.0
H103 H 0.44466 0.28056 0.30502 0.0
C104 C 0.08932 0.0665 0.90435 0.0
C105 C 0.07049 0.0873 0.04829 0.0
C106 C 0.06867 0.06731 0.97362 0.0
C107 C 0.09319 0.10701 0.05079 0.0
C108 C 0.11287 0.08536 0.90898 0.0
C109 C 0.11437 0.10603 0.98128 0.0
N110 N 0.08726 0.04608 0.83591 0.0
C111 C 0.1098 0.04122 0.77743 0.0
C112 C 0.13471 0.08217 0.8429 0.0
C113 C 0.13343 0.0596 0.77809 0.0
Gd114 Gd 0.99242 0.0443 0.64239 0.0
Gd115 Gd 0.04551 1.01744 0.83657 0.0
N116 N 0.04683 0.04823 0.96834 0.0
C117 C 0.0495 0.08672 0.11836 0.0
C118 C 0.027 0.04663 0.03869 0.0
C119 C 0.02773 0.06619 0.11367 0.0
H120 H 1.01011 0.03084 0.03502 0.0
H121 H 1.01137 0.06559 0.1673 0.0
H122 H 0.03292 0.06539 0.45562 0.0
H123 H 0.11007 0.02275 0.73157 0.0
H124 H 0.04577 0.04688 0.29913 0.0
H125 H 0.05001 0.10183 0.1766 0.0
H126 H 0.09483 0.12274 0.10702 0.0
H127 H 0.93079 1.01397 0.70014 0.0
H128 H 0.15319 0.09619 0.84402 0.0
H129 H 0.15088 0.05599 0.72979 0.0
H130 H 0.97822 0.97113 0.24391 0.0
H131 H 0.13215 0.12088 0.98538 0.0
H132 H 0.90588 0.95654 0.47761 0.0
H133 H 0.8965 0.97877 0.63334 0.0
N134 N 0.95939 1.01074 0.58471 0.0
C135 C 0.96423 0.99997 0.49712 0.0
C136 C 0.93499 1.00417 0.63241 0.0
C137 C 0.92096 0.97185 0.50674 0.0
C138 C 0.91558 0.98436 0.59468 0.0
C139 C 0.94536 0.97983 0.45627 0.0
H140 H 0.93691 0.95331 0.33338 0.0
N141 N 1.00342 0.03168 0.48502 0.0
C142 C 0.98734 1.01028 0.4466 0.0
C143 C 1.01447 1.0129 0.30194 0.0
C144 C 0.99239 1.00034 0.35393 0.0
C145 C 0.02278 0.04602 0.43047 0.0
C146 C 0.02947 0.03613 0.34005 0.0
O147 O 0.0229 0.06087 0.85154 0.0
O148 O 0.02307 0.07801 0.70243 0.0
O149 O 0.97019 0.07061 0.54017 0.0
O150 O 0.96092 0.07512 0.68889 0.0
O151 O 0.9993 1.00509 0.86664 0.0
O152 O 0.97332 0.0399 0.78936 0.0
O153 O 0.99167 0.99575 0.67525 0.0
O154 O 0.03777 0.98652 0.71332 0.0
O155 O 0.04162 0.98755 0.95256 0.0
O156 O 0.0808 0.98933 0.87404 0.0
O157 O 0.03955 0.05448 0.61764 0.0
O158 O 0.06134 1.01579 0.68459 0.0
C159 C 0.02459 0.08291 0.79375 0.0
C160 C 0.9761 1.02075 0.85742 0.0
C161 C 0.96627 0.11725 0.60203 0.0
C162 C 1.00093 0.15453 0.56429 0.0
C163 C 0.95935 0.16583 0.65906 0.0
C164 C 0.95011 0.13731 0.65232 0.0
C165 C 0.98467 0.17444 0.61557 0.0
C166 C 0.99166 0.12601 0.55838 0.0
C167 C 0.95892 0.08662 0.60547 0.0
C168 C 0.97456 0.97912 0.31476 0.0
C169 C 0.95101 0.96899 0.36565 0.0
H170 H 0.01921 1.00574 0.23086 0.0
C171 C 1.01333 0.97791 0.67755 0.0
C172 C 0.06086 0.03625 0.62066 0.0
C173 C 0.06068 0.94376 0.90361 0.0
C174 C 0.02714 0.9047 0.87199 0.0
C175 C 0.07798 0.89521 0.88643 0.0
C176 C 0.08319 0.92427 0.90518 0.0
C177 C 0.05011 0.8853 0.87237 0.0
C178 C 0.03337 0.93407 0.8786 0.0
C179 C 0.06475 0.97412 0.9296 0.0
H180 H 0.94693 0.18127 0.69831 0.0
H181 H 0.93078 0.13077 0.68809 0.0
H182 H 0.99121 0.19675 0.62047 0.0
H183 H 1.00473 0.1105 0.5216 0.0
H184 H 0.09535 0.88007 0.88821 0.0
H185 H 0.10458 0.93143 0.92174 0.0
H186 H 0.04666 0.86233 0.86804 0.0
H187 H 0.01631 0.94939 0.87157 0.0
C188 C 0.53668 0.94084 0.64547 0.0
C189 C 0.50429 0.90909 0.72913 0.0
C190 C 0.51138 0.93647 0.69335 0.0
C191 C 0.5238 0.88651 0.72043 0.0
C192 C 0.55552 0.91776 0.63124 0.0
C193 C 0.54937 0.89083 0.67151 0.0
N194 N 0.54154 0.96692 0.6053 0.0
C195 C 0.56306 0.97028 0.54139 0.0
C196 C 0.5792 0.92204 0.57303 0.0
C197 C 0.58264 0.94824 0.52628 0.0
Gd198 Gd 0.53208 0.0593 0.83292 0.0
Gd199 Gd 0.50829 1.00314 0.64062 0.0
N200 N 0.49287 0.95864 0.69977 0.0
C201 C 0.47736 0.905 0.76927 0.0
C202 C 0.46592 0.95438 0.73299 0.0
C203 C 0.4579 0.92761 0.76958 0.0
H204 H 0.45093 0.97189 0.73335 0.0
H205 H 0.43679 0.92445 0.79819 0.0
H206 H 0.60335 0.06847 0.80333 0.0
H207 H 0.56496 0.98978 0.5006 0.0
H208 H 0.63557 0.10285 0.72557 0.0
H209 H 0.47108 0.88428 0.7975 0.0
H210 H 0.51889 0.86539 0.74837 0.0
H211 H 0.47074 0.09354 0.86344 0.0
H212 H 0.59414 0.90485 0.5601 0.0
H213 H 0.60005 0.95132 0.47729 0.0
H214 H 0.57512 0.18099 0.63672 0.0
H215 H 0.56373 0.87293 0.66216 0.0
H216 H 0.47771 0.17684 0.73577 0.0
H217 H 0.44926 0.14039 0.82181 0.0
N218 N 0.51044 0.10346 0.7994 0.0
C219 C 0.52703 0.12388 0.75819 0.0
C220 C 0.48322 0.10949 0.82626 0.0
C221 C 0.48723 0.15645 0.75435 0.0
C222 C 0.47107 0.13591 0.80279 0.0
C223 C 0.51567 0.15073 0.73247 0.0
H224 H 0.52466 0.19159 0.66512 0.0
N225 N 0.56584 0.09203 0.77115 0.0
C226 C 0.55542 0.11776 0.74191 0.0
C227 C 0.60226 0.13262 0.691 0.0
C228 C 0.57327 0.13858 0.69985 0.0
C229 C 0.59448 0.0873 0.77033 0.0
C230 C 0.61299 0.1071 0.72816 0.0
O231 O 0.50925 0.98895 0.79571 0.0
O232 O 0.54694 1.01341 0.85903 0.0
O233 O 0.55588 0.08083 0.94414 0.0
O234 O 0.51496 0.06199 0.9748 0.0
O235 O 0.47108 0.02468 0.71872 0.0
O236 O 0.4893 0.03839 0.86403 0.0
O237 O 0.50542 0.07112 0.70292 0.0
O238 O 0.52558 0.04564 0.58616 0.0
O239 O 0.47141 1.01443 0.55668 0.0
O240 O 0.49961 0.98108 0.50848 0.0
O241 O 0.56852 0.03232 0.77139 0.0
O242 O 0.55205 0.02393 0.62111 0.0
C243 C 0.53016 0.99067 0.85746 0.0
C244 C 0.46765 0.03162 0.80884 0.0
C245 C 0.54827 0.06315 0.09752 0.0
C246 C 0.57649 0.0275 0.18176 0.0
C247 C 0.55353 0.06654 0.26703 0.0
C248 C 0.54279 0.07737 0.18257 0.0
C249 C 0.57046 0.042 0.26685 0.0
C250 C 0.56444 0.03797 0.09746 0.0
C251 C 0.53722 0.07491 1.00908 0.0
C252 C 0.5618 0.16492 0.67033 0.0
C253 C 0.53308 0.17099 0.68671 0.0
H254 H 0.61667 0.14802 0.659 0.0
C255 C 0.51543 0.07005 0.61651 0.0
C256 C 0.57332 0.0267 0.68121 0.0
C257 C 0.48073 1.01231 0.39233 0.0
C258 C 0.46469 0.05006 0.28417 0.0
C259 C 0.50087 1.01596 0.2349 0.0
C260 C 0.49953 1.00238 0.3226 0.0
C261 C 0.48385 0.03976 0.21592 0.0
C262 C 0.46325 0.03587 0.37203 0.0
C263 C 0.47899 0.99825 0.48599 0.0
H264 H 0.54919 0.07749 0.33263 0.0
H265 H 0.53008 0.09673 0.18369 0.0
H266 H 0.57962 0.03519 0.33309 0.0
H267 H 0.568 0.02703 0.03115 0.0
H268 H 0.51515 1.00795 0.18125 0.0
H269 H 0.51312 0.98408 0.33547 0.0
H270 H 0.48564 0.04988 0.14744 0.0
H271 H 0.44781 0.04246 0.42427 0.0
C272 C 0.47312 0.51826 0.9722 0.0
C273 C 0.4901 0.55191 0.08988 0.0
C274 C 0.4892 0.54201 0.9958 0.0
C275 C 0.475 0.53697 0.15993 0.0
C276 C 0.45727 0.50354 0.04165 0.0
C277 C 0.45861 0.51281 0.13587 0.0
N278 N 0.47177 0.51049 0.8802 0.0
C279 C 0.45389 0.4889 0.85191 0.0
C280 C 0.44002 0.48045 1.01383 0.0
C281 C 0.43816 0.47323 0.9183 0.0
Gd282 Gd 0.55714 0.51556 0.5832 0.0
Gd283 Gd 0.49963 0.53675 0.77207 0.0
N284 N 0.50278 0.5563 0.92569 0.0
C285 C 0.50552 0.57697 0.11021 0.0
C286 C 0.51685 0.58146 0.94455 0.0
C287 C 0.51872 0.59197 0.03692 0.0
H288 H 0.52684 0.59354 0.88846 0.0
H289 H 0.53019 0.61172 0.05137 0.0
H290 H 0.53834 0.55266 0.39078 0.0
H291 H 0.45204 0.48347 0.77801 0.0
H292 H 0.5541 0.59601 0.30327 0.0
H293 H 0.50681 0.58522 0.18167 0.0
H294 H 0.47544 0.54434 0.23229 0.0
H295 H 0.61688 0.48839 0.6769 0.0
H296 H 0.42766 0.46847 0.06516 0.0
H297 H 0.42449 0.45575 0.89566 0.0
H298 H 0.64219 0.62237 0.45295 0.0
H299 H 0.44671 0.50165 0.19011 0.0
H300 H 0.68199 0.55312 0.66494 0.0
H301 H 0.66559 0.50496 0.71642 0.0
N302 N 0.60513 0.52785 0.61278 0.0
C303 C 0.61452 0.5532 0.57702 0.0
C304 C 0.6237 0.50975 0.65662 0.0
C305 C 0.66046 0.54619 0.64939 0.0
C306 C 0.65132 0.51896 0.67828 0.0
C307 C 0.64233 0.56328 0.59505 0.0
H308 H 0.67279 0.59741 0.56744 0.0
N309 N 0.57236 0.55468 0.48957 0.0
C310 C 0.5975 0.56711 0.51262 0.0
C311 C 0.59116 0.60272 0.39042 0.0
C312 C 0.60754 0.59165 0.46446 0.0
C313 C 0.55759 0.56376 0.41193 0.0
C314 C 0.56639 0.58828 0.36259 0.0
O315 O 0.50792 0.48851 0.77342 0.0
O316 O 0.55061 0.47966 0.69452 0.0
O317 O 0.54341 0.47788 0.50465 0.0
O318 O 0.58359 0.49803 0.47155 0.0
O319 O 0.54521 0.54384 0.82429 0.0
O320 O 0.5721 0.51202 0.73695 0.0
O321 O 0.53278 0.55766 0.57925 0.0
O322 O 0.53196 0.57142 0.73073 0.0
O323 O 0.48007 0.55925 0.65446 0.0
O324 O 0.45988 0.55968 0.79094 0.0
O325 O 0.51176 0.52238 0.53382 0.0
O326 O 0.48845 0.50349 0.65884 0.0
C327 C 0.52947 0.47164 0.75147 0.0
C328 C 0.56831 0.52822 0.81259 0.0
C329 C 0.55446 0.48357 0.34299 0.0
C330 C 0.51942 0.47224 0.2206 0.0
C331 C 0.55761 0.50615 0.1882 0.0
C332 C 0.56817 0.50244 0.27979 0.0
C333 C 0.53343 0.49107 0.1584 0.0
C334 C 0.53035 0.46847 0.31224 0.0
C335 C 0.56369 0.48065 0.44263 0.0
C336 C 0.63424 0.60327 0.48808 0.0
C337 C 0.65166 0.58907 0.55336 0.0
H338 H 0.59809 0.62157 0.35168 0.0
C339 C 0.53632 0.57807 0.642 0.0
C340 C 0.48928 0.50912 0.56785 0.0
C341 C 0.4591 0.60198 0.6988 0.0
C342 C 0.47494 0.64808 0.76018 0.0
C343 C 0.45455 0.645 0.60314 0.0
C344 C 0.45072 0.61532 0.61449 0.0
C345 C 0.46705 0.66136 0.67525 0.0
C346 C 0.47065 0.61859 0.77138 0.0
C347 C 0.4604 0.5706 0.706 0.0
H348 H 0.56823 0.52076 0.14013 0.0
H349 H 0.58681 0.51457 0.30118 0.0
H350 H 0.52575 0.49407 0.087 0.0
H351 H 0.52029 0.45332 0.35999 0.0
H352 H 0.44848 0.6552 0.53753 0.0
H353 H 0.44225 0.60268 0.55656 0.0
H354 H 0.47039 0.6842 0.66507 0.0
H355 H 0.47757 0.60832 0.83581 0.0
C356 C 0.03138 0.43025 0.85245 0.0
C357 C 0.06965 0.43053 0.967 0.0
C358 C 0.04867 0.44508 0.91486 0.0
C359 C 0.07426 0.40116 0.95015 0.0
C360 C 0.03462 0.40039 0.83989 0.0
C361 C 0.05666 0.38606 0.88714 0.0
N362 N 1.01001 0.44468 0.80953 0.0
C363 C 0.98986 0.43029 0.75841 0.0
C364 C 0.01506 0.38575 0.78258 0.0
C365 C 0.99234 0.40072 0.74273 0.0
Gd366 Gd 0.02394 0.56008 0.66785 0.0
Gd367 Gd 1.00889 0.49459 0.83257 0.0
N368 N 0.04367 0.47344 0.92896 0.0
C369 C 0.08466 0.44572 0.03659 0.0
C370 C 0.05703 0.48798 1.00033 0.0
C371 C 0.07792 0.47444 0.05455 0.0
H372 H 0.05192 0.51019 1.01425 0.0
H373 H 0.08887 0.48617 0.1098 0.0
H374 H 0.08874 0.5394 0.59354 0.0
H375 H 0.97198 0.44174 0.72905 0.0
H376 H 0.11466 0.53403 0.44307 0.0
H377 H 0.10084 0.43528 0.07863 0.0
H378 H 0.09088 0.38975 0.98715 0.0
H379 H 0.96304 0.59325 0.61298 0.0
H380 H 0.0168 0.3628 0.77105 0.0
H381 H 0.97665 0.38947 0.70044 0.0
H382 H 0.04825 0.56522 0.20797 0.0
H383 H 0.05978 0.36319 0.87742 0.0
H384 H 0.96128 0.60677 0.31475 0.0
H385 H 0.93891 0.61192 0.47154 0.0
N386 N 0.99755 0.5752 0.53618 0.0
C387 C 1.01025 0.57227 0.45063 0.0
C388 C 0.97225 0.58934 0.54433 0.0
C389 C 0.97144 0.59748 0.37613 0.0
C390 C 0.95878 0.6005 0.46455 0.0
C391 C 0.99731 0.58301 0.36807 0.0
H392 H 1.0008 0.58709 0.21639 0.0
N393 N 0.05022 0.55272 0.52819 0.0
C394 C 0.03723 0.56043 0.44638 0.0
C395 C 0.07936 0.54789 0.35791 0.0
C396 C 0.05145 0.55814 0.35894 0.0
C397 C 0.07806 0.54423 0.52795 0.0
C398 C 0.09283 0.54125 0.44292 0.0
O399 O 0.05647 0.50057 0.80898 0.0
O400 O 0.06337 0.54674 0.75161 0.0
O401 O 0.0244 0.6054 0.63109 0.0
O402 O 0.05022 0.59034 0.74648 0.0
O403 O 0.02275 0.53809 0.89568 0.0
O404 O 0.99633 0.56435 0.79714 0.0
O405 O 0.977 0.54989 0.69651 0.0
O406 O 0.97527 0.50098 0.71618 0.0
O407 O 0.97403 0.51433 0.90862 0.0
O408 O 0.98601 0.47034 0.93923 0.0
O409 O 0.03461 0.51558 0.60273 0.0
O410 O 1.00509 0.48313 0.67742 0.0
C411 C 0.0729 0.52305 0.79202 0.0
C412 C 1.00884 0.56197 0.87925 0.0
C413 C 0.06656 0.63055 0.66137 0.0
C414 C 0.11074 0.63572 0.57343 0.0
C415 C 0.08848 0.67752 0.64449 0.0
C416 C 0.0665 0.66015 0.67926 0.0
C417 C 0.11051 0.66544 0.5916 0.0
C418 C 0.08859 0.61856 0.60889 0.0
C419 C 0.04318 0.61227 0.69448 0.0
C420 C 0.03782 0.56715 0.27587 0.0
C421 C 1.01091 0.57976 0.2806 0.0
H422 H 0.09096 0.54583 0.29219 0.0
C423 C 0.96368 0.5251 0.68561 0.0
C424 C 0.02135 0.49039 0.60553 0.0
C425 C 0.97337 0.50016 0.06815 0.0
C426 C 0.95746 0.53109 0.19667 0.0
C427 C 0.99426 0.49557 0.22443 0.0
C428 C 0.99267 0.4869 0.13004 0.0
C429 C 0.97669 0.51744 0.25792 0.0
C430 C 0.95584 0.52196 0.10219 0.0
C431 C 0.97182 0.49275 0.96702 0.0
H432 H 0.08841 0.7004 0.65837 0.0
H433 H 0.04945 0.6698 0.71951 0.0
H434 H 0.12741 0.67925 0.56594 0.0
H435 H 0.08812 0.59583 0.59461 0.0
H436 H 1.00914 0.48531 0.27181 0.0
H437 H 1.00653 0.46994 0.10581 0.0
H438 H 0.9783 0.52369 0.33138 0.0
H439 H 0.94051 0.53148 0.05451 0.0
H440 H 0.22264 1.01193 0.32392 0.0
H441 H 0.07806 0.08333 0.51428 0.0
H442 H 0.18915 0.09086 0.21308 0.0
H443 H 0.10057 0.99543 0.57233 0.0
H444 H 0.11903 0.08706 0.40745 0.0
H445 H 0.17877 1.00549 0.41694 0.0
C446 C 0.20588 0.02768 0.318 0.0
C447 C 0.20976 0.05205 0.26071 0.0
C448 C 0.11496 0.06688 0.44315 0.0
C449 C 0.15952 0.0453 0.36944 0.0
C450 C 0.09138 0.06468 0.50408 0.0
C451 C 0.08546 0.03894 0.55264 0.0
C452 C 0.13331 0.04332 0.43101 0.0
C453 C 0.10412 1.01578 0.53714 0.0
C454 C 0.18089 0.02416 0.3718 0.0
C455 C 0.18737 0.072 0.25732 0.0
N456 N 0.1271 1.01856 0.47865 0.0
N457 N 0.1635 0.06835 0.3112 0.0
H458 H 0.54912 0.22753 0.29069 0.0
H459 H 0.46915 0.1037 0.57653 0.0
H460 H 0.46319 0.20244 0.22411 0.0
H461 H 0.55798 0.09497 0.51078 0.0
H462 H 0.46672 0.14527 0.46913 0.0
H463 H 0.5537 0.18386 0.38877 0.0
C464 C 0.53134 0.21276 0.29557 0.0
C465 C 0.50559 0.21908 0.24935 0.0
C466 C 0.48676 0.13426 0.47801 0.0
C467 C 0.51035 0.16943 0.36491 0.0
C468 C 0.48816 0.11055 0.53951 0.0
C469 C 0.51371 0.09554 0.55181 0.0
C470 C 0.51132 0.14383 0.43028 0.0
C471 C 0.53774 0.10563 0.50238 0.0
C472 C 0.53388 0.18792 0.35228 0.0
C473 C 0.48317 0.19909 0.26007 0.0
N474 N 0.53606 0.12923 0.4448 0.0
N475 N 0.4859 0.17563 0.31737 0.0
H476 H 0.35678 0.53671 0.14068 0.0
H477 H 0.43851 0.48089 0.60762 0.0
H478 H 0.31691 0.48496 0.35452 0.0
H479 H 0.47876 0.53232 0.39284 0.0
H480 H 0.39495 0.47941 0.51172 0.0
H481 H 0.40249 0.53222 0.22458 0.0
C482 C 0.35791 0.52349 0.20345 0.0
C483 C 0.33308 0.51053 0.23902 0.0
C484 C 0.41331 0.49096 0.48514 0.0
C485 C 0.38536 0.50601 0.33839 0.0
C486 C 0.4383 0.49185 0.54024 0.0
C487 C 0.46262 0.50678 0.50876 0.0
C488 C 0.41225 0.50529 0.39749 0.0
C489 C 0.46075 0.52042 0.42018 0.0
C490 C 0.38396 0.5212 0.25228 0.0
C491 C 0.33563 0.49466 0.32322 0.0
N492 N 0.43616 0.51953 0.3685 0.0
N493 N 0.36105 0.49298 0.36994 0.0
H494 H 0.07912 0.37764 0.14414 0.0
H495 H 0.98485 0.44607 0.56155 0.0
H496 H 1.00489 0.33672 0.26049 0.0
H497 H 0.06237 0.48547 0.46271 0.0
H498 H 0.98963 0.40878 0.44169 0.0
H499 H 0.07078 0.41962 0.24557 0.0
C500 C 0.06064 0.37772 0.18934 0.0
C501 C 0.04256 0.35347 0.19232 0.0
C502 C 1.00565 0.42554 0.4456 0.0
C503 C 0.03312 0.40169 0.31216 0.0
C504 C 1.00305 0.44696 0.51506 0.0
C505 C 0.02351 0.46904 0.52481 0.0
C506 C 0.02893 0.42576 0.38342 0.0
C507 C 0.04605 0.46906 0.4591 0.0
C508 C 0.05602 0.4017 0.24821 0.0
C509 C 0.01916 0.35493 0.25406 0.0
N510 N 0.04824 0.44777 0.39217 0.0
N511 N 0.01531 0.37832 0.31155 0.0
H512 H 0.81599 0.04155 0.16522 0.0
H513 H 0.97103 0.98381 1.01132 0.0
H514 H 0.85389 0.96638 0.28728 0.0
H515 H 0.92575 0.05064 0.8645 0.0
H516 H 0.93103 0.97958 0.12253 0.0
H517 H 0.85868 0.04839 0.06695 0.0
C518 C 0.83364 0.02689 0.17283 0.0
C519 C 0.83149 1.00357 0.23528 0.0
C520 C 0.92986 0.99515 0.0659 0.0
C521 C 0.88048 1.01075 0.12113 0.0
C522 C 0.95275 0.99754 1.00193 0.0
C523 C 0.95197 1.01745 0.927 0.0
C524 C 0.90587 1.01294 0.05597 0.0
C525 C 0.92757 0.03482 0.92017 0.0
C526 C 0.85793 0.03056 0.11598 0.0
C527 C 0.85479 0.98478 0.24064 0.0
N528 N 0.90574 0.03216 0.98322 0.0
N529 N 0.87816 0.98869 0.18441 0.0
H530 H 0.59387 0.85912 0.24788 0.0
H531 H 0.48916 0.95354 0.92403 0.0
H532 H 0.50445 0.84212 0.21962 0.0
H533 H 0.57756 0.97492 0.96209 0.0
H534 H 0.49405 0.91462 0.03882 0.0
H535 H 0.58802 0.90382 0.15661 0.0
C536 C 0.57278 0.86545 0.22577 0.0
C537 C 0.54947 0.84721 0.24422 0.0
C538 C 0.51244 0.92781 0.02272 0.0
C539 C 0.54268 0.89781 0.13438 0.0
C540 C 0.50972 0.95 0.95601 0.0
C541 C 0.53305 0.96753 0.93154 0.0
C542 C 0.53881 0.92271 0.06656 0.0
C543 C 0.55892 0.96214 0.97842 0.0
C544 C 0.56949 0.89075 0.17208 0.0
C545 C 0.52282 0.8559 0.20977 0.0
N546 N 0.56114 0.94023 0.04276 0.0
N547 N 0.52022 0.88022 0.15612 0.0
H548 H 0.686 0.57692 0.26909 0.0
H549 H 0.61078 0.48862 0.84547 0.0
H550 H 0.72381 0.50316 0.13752 0.0
H551 H 0.57843 0.56855 0.95375 0.0
H552 H 0.64976 0.49114 0.95994 0.0
H553 H 0.64422 0.57141 0.16591 0.0
C554 C 0.68535 0.55934 0.21903 0.0
C555 C 0.70856 0.54051 0.21215 0.0
C556 C 0.63418 0.50817 0.95891 0.0
C557 C 0.66054 0.53406 0.09202 0.0
C558 C 0.61189 0.5069 0.8926 0.0
C559 C 0.59132 0.52875 0.88738 0.0
C560 C 0.63612 0.53136 0.02249 0.0
C561 C 0.59366 0.55122 0.95387 0.0
C562 C 0.66148 0.55623 0.15975 0.0
C563 C 0.70638 0.518 0.14609 0.0
N564 N 0.61555 0.55198 0.01781 0.0
N565 N 0.68303 0.51553 0.08854 0.0
H566 H 0.04404 0.71215 0.24351 0.0
H567 H 0.96436 0.59828 0.91381 0.0
H568 H 0.9535 0.69936 0.24894 0.0
H569 H 0.04963 0.58104 1.00779 0.0
H570 H 0.96173 0.63819 0.02678 0.0
H571 H 0.04885 0.66667 0.15374 0.0
C572 C 0.02528 0.6993 0.22891 0.0
C573 C 0.99832 0.70954 0.25547 0.0
C574 C 0.98108 0.62575 0.02304 0.0
C575 C 1.00347 0.65811 0.14777 0.0
C576 C 0.98261 0.6029 0.95807 0.0
C577 C 1.0072 0.586 0.9509 0.0
C578 C 1.00463 0.63277 0.08026 0.0
C579 C 0.03013 0.59325 1.01095 0.0
C580 C 0.02797 0.6735 0.17638 0.0
C581 C 0.9747 0.69223 0.23137 0.0
N582 N 0.02847 0.61623 0.07171 0.0
N583 N 0.97775 0.66794 0.17802 0.0
H584 H 0.08755 0.2274 0.10508 0.0
H585 H 0.04438 0.18862 0.62839 0.0
H586 H 0.07342 0.28415 0.34171 0.0
H587 H 0.01646 0.1409 0.38365 0.0
H588 H 0.08058 0.21215 0.5313 0.0
H589 H 0.08515 0.18637 0.2149 0.0
C590 C 0.08502 0.23142 0.17984 0.0
C591 C 0.07982 0.25934 0.21325 0.0
C592 C 0.06706 0.19587 0.49955 0.0
C593 C 0.07902 0.2131 0.33879 0.0
C594 C 0.04624 0.18273 0.55464 0.0
C595 C 0.02673 0.16378 0.51289 0.0
C596 C 0.0677 0.19065 0.40178 0.0
C597 C 0.03069 0.15602 0.41788 0.0
C598 C 0.08401 0.20806 0.24235 0.0
C599 C 0.07777 0.26334 0.31146 0.0
N600 N 0.05023 0.17018 0.36452 0.0
N601 N 0.07712 0.24055 0.37013 0.0
H602 H 0.30461 0.0879 0.35549 0.0
H603 H 0.44107 0.06358 0.11155 0.0
H604 H 0.31215 0.10649 0.05901 0.0
H605 H 0.44063 0.09041 0.40333 0.0
H606 H 0.39732 0.0895 0.08608 0.0
H607 H 0.3547 0.09974 0.37661 0.0
C608 C 0.31662 0.09583 0.29562 0.0
C609 C 0.30455 0.09587 0.20524 0.0
C610 C 0.40714 0.09039 0.15525 0.0
C611 C 0.36217 0.10784 0.22736 0.0
C612 C 0.43228 0.07538 0.17009 0.0
C613 C 0.44379 0.07306 0.26132 0.0
C614 C 0.39313 0.10274 0.23259 0.0
C615 C 0.43158 0.08987 0.3331 0.0
C616 C 0.34532 0.10239 0.30732 0.0
C617 C 0.32104 0.10579 0.12947 0.0
N618 N 0.40636 0.10316 0.31813 0.0
N619 N 0.34936 0.11039 0.14143 0.0
H620 H 0.47902 0.32138 0.31791 0.0
H621 H 0.51235 0.44418 0.05132 0.0
H622 H 0.45221 0.31745 0.02771 0.0
H623 H 0.4709 0.45881 0.31878 0.0
H624 H 0.4825 0.40174 0.02819 0.0
H625 H 0.46811 0.37247 0.32081 0.0
C626 C 0.46966 0.33115 0.25594 0.0
C627 C 0.46696 0.31555 0.17202 0.0
C628 C 0.47925 0.41483 0.09033 0.0
C629 C 0.45606 0.37415 0.17267 0.0
C630 C 0.49633 0.4391 0.10372 0.0
C631 C 0.49518 0.45405 0.18965 0.0
C632 C 0.46189 0.40518 0.16454 0.0
C633 C 0.47355 0.44679 0.2539 0.0
C634 C 0.46352 0.36034 0.25723 0.0
C635 C 0.4553 0.32921 0.09284 0.0
N636 N 0.45851 0.4221 0.24202 0.0
N637 N 0.45139 0.35814 0.09359 0.0
H638 H 0.2492 0.59711 0.19017 0.0
H639 H 0.13608 0.58365 0.60239 0.0
H640 H 0.22268 0.51613 0.30763 0.0
H641 H 0.13731 0.65686 0.41482 0.0
H642 H 0.17077 0.56004 0.50209 0.0
H643 H 0.21044 0.62105 0.27618 0.0
C644 C 0.23474 0.58449 0.233 0.0
C645 C 0.23857 0.55486 0.24232 0.0
C646 C 0.1634 0.58124 0.48269 0.0
C647 C 0.19529 0.58163 0.34191 0.0
C648 C 0.14355 0.59476 0.53988 0.0
C649 C 0.13353 0.62224 0.5166 0.0
C650 C 0.17376 0.59541 0.40234 0.0
C651 C 0.14463 0.63582 0.43601 0.0
C652 C 0.21284 0.59799 0.28205 0.0
C653 C 0.21992 0.53906 0.29902 0.0
N654 N 0.16425 0.62227 0.38172 0.0
N655 N 0.19917 0.55269 0.34772 0.0
H656 H 1.00509 0.83504 0.25794 0.0
H657 H 1.00078 0.85324 0.82029 0.0
H658 H 0.92699 0.79212 0.18084 0.0
H659 H 0.98365 0.933 0.96597 0.0
H660 H 0.96607 0.82957 0.92228 0.0
H661 H 0.99443 0.87282 0.14623 0.0
C662 C 0.98503 0.83418 0.22069 0.0
C663 C 0.96704 0.8103 0.22797 0.0
C664 C 0.96892 0.85264 0.92798 0.0
C665 C 0.95592 0.85226 0.09434 0.0
C666 C 0.98923 0.86609 0.87096 0.0
C667 C 0.99742 0.89458 0.89021 0.0
C668 C 0.95756 0.86779 1.00479 0.0
C669 C 0.97987 0.91052 0.95165 0.0
C670 C 0.97903 0.85564 0.15608 0.0
C671 C 0.94172 0.80996 0.17486 0.0
N672 N 0.96167 0.89661 1.01004 0.0
N673 N 0.93757 0.82988 0.10601 0.0
H674 H 0.72054 0.95007 0.39866 0.0
H675 H 0.61329 1.01367 0.03782 0.0
H676 H 0.73986 0.98044 0.11881 0.0
H677 H 0.58948 0.9873 0.32 0.0
H678 H 0.65473 0.98384 0.04781 0.0
H679 H 0.67008 0.94686 0.3548 0.0
C680 C 0.71423 0.95489 0.32688 0.0
C681 C 0.73407 0.96615 0.26275 0.0
C682 C 0.64028 0.98417 0.10731 0.0
C683 C 0.67695 0.96257 0.21199 0.0
C684 C 0.61616 1.00116 0.10143 0.0
C685 C 0.598 1.00409 0.17958 0.0
C686 C 0.64714 0.97089 0.19318 0.0
C687 C 0.60352 0.98702 0.25955 0.0
C688 C 0.68552 0.95312 0.30185 0.0
C689 C 0.72517 0.97179 0.17035 0.0
N690 N 0.62809 0.97187 0.26551 0.0
N691 N 0.69719 0.97049 0.14829 0.0
H692 H 0.5913 0.74198 0.12165 0.0
H693 H 0.46018 0.64697 0.94487 0.0
H694 H 0.50906 0.74096 0.25467 0.0
H695 H 0.5213 0.68383 0.75218 0.0
H696 H 0.48552 0.6692 0.07667 0.0
H697 H 0.57333 0.70751 1.00304 0.0
C698 C 0.56986 0.73361 0.12773 0.0
C699 C 0.55159 0.74398 0.19785 0.0
C700 C 0.4934 0.67237 1.00553 0.0
C701 C 0.5312 0.70507 0.06503 0.0
C702 C 0.4789 0.65993 0.93052 0.0
C703 C 0.48857 0.66399 0.83786 0.0
C704 C 0.51778 0.68892 0.98782 0.0
C705 C 0.51302 0.68068 0.82271 0.0
C706 C 0.55962 0.71426 0.06022 0.0
C707 C 0.52399 0.73279 0.20348 0.0
N708 N 0.5269 0.69267 0.89733 0.0
N709 N 0.51453 0.71407 0.1374 0.0
H710 H 0.80596 0.59872 0.43224 0.0
H711 H 0.93038 0.53424 0.36845 0.0
H712 H 0.80475 0.57459 0.13906 0.0
H713 H 0.939 0.57924 0.10311 0.0
H714 H 0.88971 0.56423 0.406 0.0
H715 H 0.8577 0.60618 0.422 0.0
C716 C 0.8165 0.59617 0.3649 0.0
C717 C 0.80164 0.58489 0.28733 0.0
C718 C 0.90095 0.56798 0.34068 0.0
C719 C 0.85983 0.59405 0.27423 0.0
C720 C 0.92419 0.55077 0.31889 0.0
C721 C 0.93746 0.55337 0.23061 0.0
C722 C 0.89017 0.5868 0.27221 0.0
C723 C 0.92851 0.57551 0.17001 0.0
C724 C 0.84584 0.60047 0.35907 0.0
C725 C 0.81572 0.58284 0.20066 0.0
N726 N 0.90466 0.59056 0.19011 0.0
N727 N 0.84426 0.58677 0.19677 0.0
H728 H 0.06228 0.26543 0.91973 0.0
H729 H 1.00484 0.10192 0.96565 0.0
H730 H 0.01537 0.23445 0.15947 0.0
H731 H 0.04523 0.13385 0.71394 0.0
H732 H 1.0081 0.14999 0.03563 0.0
H733 H 0.05521 0.21855 0.84118 0.0
C734 C 0.0499 0.24894 0.95493 0.0
C735 C 0.03899 0.25424 0.04583 0.0
C736 C 0.01623 0.14669 0.96497 0.0
C737 C 0.03146 0.19959 0.95711 0.0
C738 C 1.01458 0.11897 0.92491 0.0
C739 C 0.02515 0.11326 0.83371 0.0
C740 C 0.02853 0.16959 0.91408 0.0
C741 C 0.03677 0.13689 0.78425 0.0
C742 C 0.04608 0.22199 0.91041 0.0
C743 C 0.0237 0.23165 0.08888 0.0
N744 N 0.03829 0.16371 0.82496 0.0
N745 N 0.02062 0.2055 0.04479 0.0
H746 H 0.32773 0.03375 0.21567 0.0
H747 H 0.41462 0.03683 0.72284 0.0
H748 H 0.28775 0.0525 0.95003 0.0
H749 H 0.4534 0.025 0.99564 0.0
H750 H 0.36763 0.03844 0.79997 0.0
H751 H 0.37295 0.02584 0.13307 0.0
C752 C 0.3283 0.03528 0.1394 0.0
C753 C 0.30369 0.04324 0.08972 0.0
C754 C 0.38641 0.0354 0.84296 0.0
C755 C 0.35597 0.03487 0.99344 0.0
C756 C 0.41334 0.03441 0.79878 0.0
C757 C 0.43834 0.03114 0.85251 0.0
C758 C 0.38417 0.03274 0.94195 0.0
C759 C 0.43499 0.02805 0.95088 0.0
C760 C 0.35426 0.03111 0.09207 0.0
C761 C 0.30598 0.04579 0.99092 0.0
N762 N 0.4087 0.02892 0.99187 0.0
N763 N 0.33154 0.04179 0.94629 0.0
H764 H 0.54021 0.3313 0.16051 0.0
H765 H 0.48666 0.43151 0.74957 0.0
H766 H 0.49415 0.29532 0.92618 0.0
H767 H 0.57134 0.44479 0.85703 0.0
H768 H 0.48501 0.38447 0.82899 0.0
H769 H 0.54896 0.37538 0.06701 0.0
C770 C 0.5328 0.3323 0.0882 0.0
C771 C 0.51707 0.30918 0.05035 0.0
C772 C 0.50409 0.3975 0.83446 0.0
C773 C 0.52565 0.36033 0.94425 0.0
C774 C 0.50505 0.42442 0.78916 0.0
C775 C 0.52939 0.44205 0.79479 0.0
C776 C 0.52718 0.3883 0.88979 0.0
C777 C 0.55234 0.43177 0.84899 0.0
C778 C 0.53753 0.35758 0.03515 0.0
C779 C 0.50696 0.31224 0.95734 0.0
N780 N 0.55052 0.40591 0.89539 0.0
N781 N 0.51091 0.33736 0.90849 0.0
H782 H 0.23204 0.47585 0.08255 0.0
H783 H 0.11151 0.56794 0.81097 0.0
H784 H 0.23826 0.56666 0.03029 0.0
H785 H 0.10449 0.47653 0.85502 0.0
H786 H 0.15898 0.56704 0.88252 0.0
H787 H 0.18704 0.47457 0.99209 0.0
C788 C 0.22429 0.49538 0.05027 0.0
C789 C 0.23921 0.52137 0.0635 0.0
C790 C 0.14714 0.5471 0.87652 0.0
C791 C 0.18709 0.52032 0.96118 0.0
C792 C 0.11988 0.54758 0.83503 0.0
C793 C 0.10334 0.52233 0.8275 0.0
C794 C 0.15847 0.52117 0.91136 0.0
C795 C 0.1159 0.4967 0.86042 0.0
C796 C 0.19839 0.49475 0.99934 0.0
C797 C 0.2276 0.54616 0.02184 0.0
N798 N 0.14237 0.49682 0.9011 0.0
N799 N 0.20244 0.54506 0.97343 0.0
H800 H 0.94928 0.81679 0.42551 0.0
H801 H 0.05556 0.93818 0.63797 0.0
H802 H 0.04007 0.80672 0.42891 0.0
H803 H 0.96457 0.94689 0.63019 0.0
H804 H 0.05066 0.88959 0.57104 0.0
H805 H 0.95461 0.86282 0.50896 0.0
C806 C 0.97037 0.82396 0.44563 0.0
C807 C 0.99418 0.80737 0.42038 0.0
C808 C 0.03171 0.90211 0.58353 0.0
C809 C 1.00069 0.86121 0.51585 0.0
C810 C 0.03448 0.93007 0.62202 0.0
C811 C 1.01047 0.94746 0.63854 0.0
C812 C 1.00465 0.89085 0.56091 0.0
C813 C 0.98381 0.93505 0.61675 0.0
C814 C 0.97346 0.85051 0.49287 0.0
C815 C 0.02101 0.81826 0.44793 0.0
N816 N 0.98168 0.90791 0.57919 0.0
N817 N 0.02351 0.84436 0.4931 0.0
H818 H 0.75501 0.99264 0.54345 0.0
H819 H 0.62393 1.01511 0.77506 0.0
H820 H 0.71484 0.02814 0.29768 0.0
H821 H 0.5916 0.03613 0.49934 0.0
H822 H 0.67179 1.01186 0.70823 0.0
H823 H 0.71118 1.0001 0.63331 0.0
C824 C 0.73714 1.0029 0.50935 0.0
C825 C 0.73889 1.01026 0.41336 0.0
C826 C 0.65441 1.01691 0.66137 0.0
C827 C 0.68754 1.01851 0.51554 0.0
C828 C 0.62685 1.01899 0.70027 0.0
C829 C 0.60331 0.02549 0.64297 0.0
C830 C 0.65881 1.02138 0.56363 0.0
C831 C 0.60878 0.03045 0.5464 0.0
C832 C 0.71177 1.007 0.56054 0.0
C833 C 0.71466 1.02263 0.37191 0.0
N834 N 0.63564 0.02823 0.51024 0.0
N835 N 0.69014 0.02609 0.42263 0.0
H836 H 0.50507 0.75359 0.4298 0.0
H837 H 0.57083 0.62192 0.70891 0.0
H838 H 0.5944 0.73768 0.39608 0.0
H839 H 0.50599 0.60483 0.5014 0.0
H840 H 0.57523 0.67153 0.64712 0.0
H841 H 0.50008 0.70655 0.51047 0.0
C842 C 0.52379 0.7407 0.4423 0.0
C843 C 0.5503 0.74989 0.40708 0.0
C844 C 0.55982 0.65696 0.61601 0.0
C845 C 0.5448 0.69604 0.50023 0.0
C846 C 0.55719 0.62869 0.65152 0.0
C847 C 0.53792 0.60904 0.61073 0.0
C848 C 0.54224 0.66622 0.54158 0.0
C849 C 0.52109 0.61912 0.5354 0.0
C850 C 0.52088 0.71371 0.48726 0.0
C851 C 0.57369 0.73173 0.42323 0.0
N852 N 0.52337 0.64691 0.50421 0.0
N853 N 0.57048 0.70594 0.46879 0.0
H854 H 0.78508 0.5547 0.53199 0.0
H855 H 0.94047 0.48423 0.56577 0.0
H856 H 0.82128 0.51142 0.29301 0.0
H857 H 0.92034 0.56471 0.69946 0.0
H858 H 0.89352 0.48471 0.48743 0.0
H859 H 0.83023 0.54861 0.61823 0.0
C860 C 0.80219 0.54292 0.49902 0.0
C861 C 0.79906 0.53308 0.40565 0.0
C862 C 0.89929 0.50212 0.53461 0.0
C863 C 0.8513 0.52612 0.5041 0.0
C864 C 0.9261 0.50184 0.5797 0.0
C865 C 0.93459 0.52445 0.63993 0.0
C866 C 0.88014 0.52469 0.55185 0.0
C867 C 0.91495 0.54682 0.65382 0.0
C868 C 0.82815 0.53982 0.54773 0.0
C869 C 0.82245 0.51878 0.3654 0.0
N870 N 0.88876 0.54621 0.61127 0.0
N871 N 0.84742 0.51568 0.4146 0.0
loop_
_geom_bond_atom_site_label_1
_geom_bond_atom_site_label_2
_geom_bond_distance
_geom_bond_site_symmetry_2
_ccdc_geom_bond_type
C0 N1 1.317 . S
C0 N2 1.348 . S
C0 C3 1.485 . S
N1 C0 1.317 . S
N1 N5 1.370 . S
N2 C0 1.348 . S
N2 C4 1.346 . S
C3 C0 1.485 . S
C3 H7 0.960 . S
C3 H8 0.961 . S
C3 H9 0.960 . S
C4 N2 1.346 . S
C4 N5 1.307 . S
C4 C6 1.486 . S
N5 N1 1.370 . S
N5 C4 1.307 . S
C6 C4 1.486 . S
C6 H10 0.960 . S
C6 H11 0.960 . S
C6 H12 0.959 . S
H7 C3 0.960 . S
H8 C3 0.961 . S
H9 C3 0.960 . S
H10 C6 0.960 . S
H11 C6 0.960 . S
H12 C6 0.959 . S
C13 N14 1.317 . S
C13 N15 1.348 . S
C13 C16 1.485 . S
N14 C13 1.317 . S
N14 N18 1.370 . S
N15 C13 1.348 . S
N15 C17 1.346 . S
C16 C13 1.485 . S
C16 H20 0.960 . S
C16 H21 0.961 . S
C16 H22 0.960 . S
C17 N15 1.346 . S
C17 N18 1.307 . S
C17 C19 1.486 . S
N18 N14 1.370 . S
N18 C17 1.307 . S
C19 C17 1.486 . S
C19 H23 0.960 . S
C19 H24 0.960 . S
C19 H25 0.959 . S
H20 C16 0.960 . S
H21 C16 0.961 . S
H22 C16 0.960 . S
H23 C19 0.960 . S
H24 C19 0.960 . S
H25 C19 0.959 . S
C26 N27 1.317 . S
C26 N28 1.348 . S
C26 C29 1.485 . S
N27 C26 1.317 . S
N27 N31 1.370 . S
N28 C26 1.348 . S
N28 C30 1.346 . S
C29 C26 1.485 . S
C29 H33 0.960 . S
C29 H34 0.961 . S
C29 H35 0.960 . S
C30 N28 1.346 . S
C30 N31 1.307 . S
C30 C32 1.486 . S
N31 N27 1.370 . S
N31 C30 1.307 . S
C32 C30 1.486 . S
C32 H36 0.960 . S
C32 H37 0.988 . S
C32 H38 0.959 . S
H33 C29 0.960 . S
H34 C29 0.961 . S
H35 C29 0.960 . S
H36 C32 0.960 . S
H37 C32 0.988 . S
H38 C32 0.959 . S
C39 N40 1.317 . S
C39 N41 1.348 . S
C39 C42 1.485 . S
N40 C39 1.317 . S
N40 N44 1.370 . S
N41 C39 1.348 . S
N41 C43 1.346 . S
C42 C39 1.485 . S
C42 H46 0.960 . S
C42 H47 0.961 . S
C42 H48 0.960 . S
C43 N41 1.346 . S
C43 N44 1.307 . S
C43 C45 1.486 . S
N44 N40 1.370 . S
N44 C43 1.307 . S
C45 C43 1.486 . S
C45 H49 0.960 . S
C45 H50 0.960 . S
C45 H51 0.959 . S
H46 C42 0.960 . S
H47 C42 0.961 . S
H48 C42 0.960 . S
H49 C45 0.960 . S
H50 C45 0.960 . S
H51 C45 0.959 . S
C52 N53 1.317 . S
C52 N54 1.348 1_556 S
C52 C55 1.485 . S
N53 C52 1.317 . S
N53 N57 1.370 1_556 S
N54 C52 1.348 1_554 S
N54 C56 1.346 . S
C55 C52 1.485 . S
C55 H59 0.960 . S
C55 H60 0.961 . S
C55 H61 0.960 . S
C56 N54 1.346 . S
C56 N57 1.307 . S
C56 C58 1.486 . S
N57 N53 1.370 1_554 S
N57 C56 1.307 . S
C58 C56 1.486 . S
C58 H62 0.960 . S
C58 H63 0.960 . S
C58 H64 0.959 . S
H59 C55 0.960 . S
H60 C55 0.961 . S
H61 C55 0.960 . S
H62 C58 0.960 . S
H63 C58 0.960 . S
H64 C58 0.959 . S
C65 N66 1.317 . S
C65 N67 1.348 1_556 S
C65 C68 1.485 . S
N66 C65 1.317 . S
N66 N70 1.370 1_556 S
N67 C65 1.348 1_554 S
N67 C69 1.346 . S
C68 C65 1.485 . S
C68 H72 0.960 . S
C68 H73 0.961 . S
C68 H74 0.960 . S
C69 N67 1.346 . S
C69 N70 1.307 . S
C69 C71 1.486 . S
N70 N66 1.370 1_554 S
N70 C69 1.307 . S
C71 C69 1.486 . S
C71 H75 0.960 . S
C71 H76 0.960 . S
C71 H77 0.959 . S
H72 C68 0.960 . S
H73 C68 0.961 . S
H74 C68 0.960 . S
H75 C71 0.960 . S
H76 C71 0.960 . S
H77 C71 0.959 . S
C78 N79 1.317 . S
C78 N80 1.348 1_556 S
C78 C81 1.485 . S
N79 C78 1.317 . S
N79 N83 1.370 1_556 S
N80 C78 1.348 1_554 S
N80 C82 1.346 . S
C81 C78 1.485 . S
C81 H85 0.960 . S
C81 H86 0.961 . S
C81 H87 0.960 . S
C82 N80 1.346 . S
C82 N83 1.307 . S
C82 C84 1.486 . S
N83 N79 1.370 1_554 S
N83 C82 1.307 . S
C84 C82 1.486 . S
C84 H88 0.960 . S
C84 H89 0.960 . S
C84 H90 0.959 . S
H85 C81 0.960 . S
H86 C81 0.961 . S
H87 C81 0.960 . S
H88 C84 0.960 . S
H89 C84 0.960 . S
H90 C84 0.959 . S
C91 N92 1.317 . S
C91 N93 1.348 1_556 S
C91 C94 1.485 . S
N92 C91 1.317 . S
N92 N96 1.370 1_556 S
N93 C91 1.348 1_554 S
N93 C95 1.346 . S
C94 C91 1.485 . S
C94 H98 0.960 . S
C94 H99 0.961 . S
C94 H100 0.960 . S
C95 N93 1.346 . S
C95 N96 1.307 . S
C95 C97 1.486 . S
N96 N92 1.370 1_554 S
N96 C95 1.307 . S
C97 C95 1.486 . S
C97 H101 0.960 . S
C97 H102 0.960 . S
C97 H103 0.959 . S
H98 C94 0.960 . S
H99 C94 0.961 . S
H100 C94 0.960 . S
H101 C97 0.960 . S
H102 C97 0.960 . S
H103 C97 0.959 . S
C104 C106 1.425 . S
C104 C108 1.415 . S
C104 N110 1.369 . S
C105 C106 1.416 1_554 S
C105 C107 1.417 . S
C105 C117 1.422 . S
C106 C104 1.425 . S
C106 C105 1.416 1_556 S
C106 N116 1.360 . S
C107 C105 1.417 . S
C107 C109 1.329 . S
C107 H126 0.930 . S
C108 C104 1.415 . S
C108 C109 1.437 1_556 S
C108 C112 1.413 . S
C109 C107 1.329 . S
C109 C108 1.437 1_554 S
C109 H131 0.929 . S
N110 C104 1.369 . S
N110 C111 1.338 . S
N110 Gd115 2.622 1_545 S
C111 N110 1.338 . S
C111 C113 1.378 . S
C111 H123 0.929 1_545 S
C112 C108 1.413 . S
C112 C113 1.348 . S
C112 H128 0.931 . S
C113 C111 1.378 . S
C113 C112 1.348 . S
C113 H129 0.930 . S
Gd114 N134 2.622 . S
Gd114 N141 2.570 . S
Gd114 O148 2.353 1_655 S
Gd114 O149 2.477 . S
Gd114 O150 2.427 . S
Gd114 O152 2.388 . S
Gd114 O153 2.386 1_545 S
Gd114 O157 2.307 1_655 S
Gd114 C167 2.805 . S
Gd115 N110 2.622 1_565 S
Gd115 N116 2.570 1_565 S
Gd115 O147 2.386 1_565 S
Gd115 O151 2.307 1_465 S
Gd115 O154 2.353 . S
Gd115 O155 2.468 . S
Gd115 O156 2.427 . S
Gd115 O158 2.388 . S
Gd115 C179 2.805 . S
N116 C106 1.360 . S
N116 Gd115 2.570 1_545 S
N116 C118 1.343 1_556 S
C117 C105 1.422 . S
C117 C119 1.321 . S
C117 H125 0.931 . S
C118 N116 1.343 1_554 S
C118 C119 1.390 . S
C118 H120 0.931 1_455 S
C119 C117 1.321 . S
C119 C118 1.390 . S
C119 H121 0.933 . S
H120 C118 0.931 1_655 S
H121 C119 0.933 . S
H122 C145 0.931 . S
H123 C111 0.929 1_565 S
H124 C146 0.944 . S
H125 C117 0.931 . S
H126 C107 0.930 . S
H127 C136 0.929 . S
H128 C112 0.931 . S
H129 C113 0.930 . S
H130 C168 0.930 . S
H131 C109 0.929 . S
H132 C137 0.931 . S
H133 C138 0.930 . S
N134 Gd114 2.622 . S
N134 C135 1.369 . S
N134 C136 1.338 . S
C135 N134 1.369 . S
C135 C139 1.415 1_545 S
C135 C142 1.420 1_545 S
C136 H127 0.929 . S
C136 N134 1.338 . S
C136 C138 1.378 . S
C137 H132 0.931 . S
C137 C138 1.348 1_565 S
C137 C139 1.413 . S
C138 H133 0.930 . S
C138 C136 1.378 . S
C138 C137 1.348 1_545 S
C139 C135 1.415 1_565 S
C139 C137 1.413 . S
C139 C169 1.437 . S
H140 C169 0.929 . S
N141 Gd114 2.570 . S
N141 C142 1.348 1_545 S
N141 C145 1.343 1_655 S
C142 C135 1.420 1_565 S
C142 N141 1.348 1_565 S
C142 C144 1.435 . S
C143 C144 1.422 . S
C143 C146 1.307 1_655 S
C143 H170 0.931 . S
C144 C142 1.435 . S
C144 C143 1.422 . S
C144 C168 1.417 . S
C145 H122 0.931 . S
C145 N141 1.343 1_455 S
C145 C146 1.391 1_545 S
C146 H124 0.944 . S
C146 C143 1.307 1_455 S
C146 C145 1.391 1_565 S
O147 Gd115 2.386 1_545 S
O147 C159 1.265 . S
O148 Gd114 2.353 1_455 S
O148 C159 1.242 . S
O149 Gd114 2.477 . S
O149 C167 1.286 . S
O150 Gd114 2.427 . S
O150 C167 1.252 . S
O151 Gd115 2.307 1_645 S
O151 C160 1.261 . S
O152 Gd114 2.388 . S
O152 C160 1.252 . S
O153 Gd114 2.386 1_565 S
O153 C171 1.265 . S
O154 Gd115 2.353 . S
O154 C171 1.242 1_455 S
O155 Gd115 2.468 . S
O155 C179 1.263 . S
O156 Gd115 2.427 . S
O156 C179 1.252 . S
O157 Gd114 2.307 1_455 S
O157 C172 1.261 . S
O158 Gd115 2.388 . S
O158 C172 1.252 1_565 S
C159 O147 1.265 . S
C159 O148 1.242 . S
C160 O151 1.261 . S
C160 O152 1.252 . S
C161 C164 1.394 . S
C161 C166 1.370 . S
C161 C167 1.500 . S
C162 C165 1.383 . S
C162 C166 1.395 . S
C163 C164 1.396 . S
C163 C165 1.365 . S
C163 H180 0.929 . S
C164 C161 1.394 . S
C164 C163 1.396 . S
C164 H181 0.930 . S
C165 C162 1.383 . S
C165 C163 1.365 . S
C165 H182 0.931 . S
C166 C161 1.370 . S
C166 C162 1.395 . S
C166 H183 0.930 1_655 S
C167 Gd114 2.805 . S
C167 O149 1.286 . S
C167 O150 1.252 . S
C167 C161 1.500 . S
C168 H130 0.930 . S
C168 C144 1.417 . S
C168 C169 1.329 . S
C169 C139 1.437 . S
C169 H140 0.929 . S
C169 C168 1.329 . S
H170 C143 0.931 . S
C171 O153 1.265 . S
C171 O154 1.242 1_655 S
C172 O157 1.261 . S
C172 O158 1.252 1_545 S
C173 C176 1.394 . S
C173 C178 1.370 . S
C173 C179 1.500 . S
C174 C177 1.383 . S
C174 C178 1.395 1_554 S
C175 C176 1.396 . S
C175 C177 1.365 1_556 S
C175 H184 0.929 . S
C176 C173 1.394 . S
C176 C175 1.396 . S
C176 H185 0.930 . S
C177 C174 1.383 . S
C177 C175 1.365 1_554 S
C177 H186 0.931 . S
C178 C173 1.370 . S
C178 C174 1.395 1_556 S
C178 H187 0.930 1_556 S
C179 Gd115 2.805 . S
C179 O155 1.263 . S
C179 O156 1.252 . S
C179 C173 1.500 . S
H180 C163 0.929 . S
H181 C164 0.930 . S
H182 C165 0.931 . S
H183 C166 0.930 1_455 S
H184 C175 0.929 . S
H185 C176 0.930 . S
H186 C177 0.931 . S
H187 C178 0.930 1_554 S
C188 C190 1.422 . S
C188 C192 1.415 . S
C188 N194 1.369 . S
C189 C190 1.421 . S
C189 C191 1.417 . S
C189 C201 1.422 . S
C190 C188 1.422 . S
C190 C189 1.421 . S
C190 N200 1.359 . S
C191 C189 1.417 . S
C191 C193 1.329 . S
C191 H210 0.930 . S
C192 C188 1.415 . S
C192 C193 1.437 . S
C192 C196 1.413 . S
C193 C191 1.329 . S
C193 C192 1.437 . S
C193 H215 0.929 . S
N194 C188 1.369 . S
N194 C195 1.338 . S
N194 Gd199 2.622 . S
C195 N194 1.338 . S
C195 C197 1.378 . S
C195 H207 0.929 . S
C196 C192 1.413 . S
C196 C197 1.348 . S
C196 H212 0.931 . S
C197 C195 1.378 . S
C197 C196 1.348 . S
C197 H213 0.930 . S
Gd198 N218 2.622 . S
Gd198 N225 2.570 . S
Gd198 O232 2.353 1_545 S
Gd198 O233 2.468 . S
Gd198 O234 2.427 . S
Gd198 O236 2.388 . S
Gd198 O237 2.386 . S
Gd198 O241 2.307 . S
Gd198 C251 2.805 . S
Gd199 N194 2.622 . S
Gd199 N200 2.570 . S
Gd199 O231 2.386 . S
Gd199 O235 2.307 1_565 S
Gd199 O238 2.353 1_565 S
Gd199 O239 2.468 . S
Gd199 O240 2.427 . S
Gd199 O242 2.388 . S
Gd199 C263 2.805 . S
N200 C190 1.359 . S
N200 Gd199 2.570 . S
N200 C202 1.343 . S
C201 C189 1.422 . S
C201 C203 1.321 . S
C201 H209 0.931 . S
C202 N200 1.343 . S
C202 C203 1.390 . S
C202 H204 0.931 . S
C203 C201 1.321 . S
C203 C202 1.390 . S
C203 H205 0.930 . S
H204 C202 0.931 . S
H205 C203 0.930 . S
H206 C229 0.931 . S
H207 C195 0.929 . S
H208 C230 0.930 . S
H209 C201 0.931 . S
H210 C191 0.930 . S
H211 C220 0.929 . S
H212 C196 0.931 . S
H213 C197 0.930 . S
H214 C252 0.930 . S
H215 C193 0.929 . S
H216 C221 0.931 . S
H217 C222 0.930 . S
N218 Gd198 2.622 . S
N218 C219 1.369 . S
N218 C220 1.338 . S
C219 N218 1.369 . S
C219 C223 1.415 . S
C219 C226 1.422 . S
C220 H211 0.929 . S
C220 N218 1.338 . S
C220 C222 1.378 . S
C221 H216 0.931 . S
C221 C222 1.348 . S
C221 C223 1.413 . S
C222 H217 0.930 . S
C222 C220 1.378 . S
C222 C221 1.348 . S
C223 C219 1.415 . S
C223 C221 1.413 . S
C223 C253 1.437 . S
H224 C253 0.929 . S
N225 Gd198 2.570 . S
N225 C226 1.359 . S
N225 C229 1.343 . S
C226 C219 1.422 . S
C226 N225 1.359 . S
C226 C228 1.421 . S
C227 C228 1.422 . S
C227 C230 1.321 . S
C227 H254 0.931 . S
C228 C226 1.421 . S
C228 C227 1.422 . S
C228 C252 1.417 . S
C229 H206 0.931 . S
C229 N225 1.343 . S
C229 C230 1.390 . S
C230 H208 0.930 . S
C230 C227 1.321 . S
C230 C229 1.390 . S
O231 Gd199 2.386 . S
O231 C243 1.265 . S
O232 Gd198 2.353 1_565 S
O232 C243 1.242 . S
O233 Gd198 2.468 . S
O233 C251 1.263 . S
O234 Gd198 2.427 . S
O234 C251 1.252 . S
O235 Gd199 2.307 1_545 S
O235 C244 1.261 . S
O236 Gd198 2.388 . S
O236 C244 1.252 . S
O237 Gd198 2.386 . S
O237 C255 1.265 . S
O238 Gd199 2.353 1_545 S
O238 C255 1.242 . S
O239 Gd199 2.468 . S
O239 C263 1.263 . S
O240 Gd199 2.427 . S
O240 C263 1.252 . S
O241 Gd198 2.307 . S
O241 C256 1.261 . S
O242 Gd199 2.388 . S
O242 C256 1.252 1_565 S
C243 O231 1.265 . S
C243 O232 1.242 . S
C244 O235 1.261 . S
C244 O236 1.252 . S
C245 C248 1.394 . S
C245 C250 1.370 . S
C245 C251 1.500 1_554 S
C246 C249 1.383 . S
C246 C250 1.395 . S
C247 C248 1.396 . S
C247 C249 1.365 . S
C247 H264 0.929 . S
C248 C245 1.394 . S
C248 C247 1.396 . S
C248 H265 0.930 . S
C249 C246 1.383 . S
C249 C247 1.365 . S
C249 H266 0.931 . S
C250 C245 1.370 . S
C250 C246 1.395 . S
C250 H267 0.930 1_554 S
C251 Gd198 2.805 . S
C251 O233 1.263 . S
C251 O234 1.252 . S
C251 C245 1.500 1_556 S
C252 H214 0.930 . S
C252 C228 1.417 . S
C252 C253 1.329 . S
C253 C223 1.437 . S
C253 H224 0.929 . S
C253 C252 1.329 . S
H254 C227 0.931 . S
C255 O237 1.265 . S
C255 O238 1.242 . S
C256 O241 1.261 . S
C256 O242 1.252 1_545 S
C257 C260 1.394 . S
C257 C262 1.370 1_565 S
C257 C263 1.500 . S
C258 C261 1.383 1_545 S
C258 C262 1.395 . S
C259 C260 1.396 . S
C259 C261 1.365 . S
C259 H268 0.929 . S
C260 C257 1.394 . S
C260 C259 1.396 . S
C260 H269 0.930 . S
C261 C258 1.383 1_565 S
C261 C259 1.365 . S
C261 H270 0.931 . S
C262 C257 1.370 1_545 S
C262 C258 1.395 . S
C262 H271 0.930 . S
C263 Gd199 2.805 . S
C263 O239 1.263 . S
C263 O240 1.252 . S
C263 C257 1.500 . S
H264 C247 0.929 . S
H265 C248 0.930 . S
H266 C249 0.931 . S
H267 C250 0.930 1_556 S
H268 C259 0.929 . S
H269 C260 0.930 . S
H270 C261 0.931 . S
H271 C262 0.930 . S
C272 C274 1.426 . S
C272 C276 1.415 . S
C272 N278 1.369 . S
C273 C274 1.416 1_554 S
C273 C275 1.417 . S
C273 C285 1.422 . S
C274 C272 1.426 . S
C274 C273 1.416 1_556 S
C274 N284 1.361 . S
C275 C273 1.417 . S
C275 C277 1.329 . S
C275 H294 0.930 . S
C276 C272 1.415 . S
C276 C277 1.437 1_556 S
C276 C280 1.413 . S
C277 C275 1.329 . S
C277 C276 1.437 1_554 S
C277 H299 0.929 . S
N278 C272 1.369 . S
N278 C279 1.338 . S
N278 Gd283 2.622 . S
C279 N278 1.338 . S
C279 C281 1.378 . S
C279 H291 0.929 . S
C280 C276 1.413 . S
C280 C281 1.348 . S
C280 H296 0.931 . S
C281 C279 1.378 . S
C281 C280 1.348 . S
C281 H297 0.930 . S
Gd282 N302 2.622 . S
Gd282 N309 2.570 . S
Gd282 O316 2.353 . S
Gd282 O317 2.468 . S
Gd282 O318 2.427 . S
Gd282 O320 2.388 . S
Gd282 O321 2.386 . S
Gd282 O325 2.307 . S
Gd282 C335 2.805 . S
Gd283 N278 2.622 . S
Gd283 N284 2.570 . S
Gd283 O315 2.386 . S
Gd283 O319 2.307 . S
Gd283 O322 2.353 . S
Gd283 O323 2.468 . S
Gd283 O324 2.427 . S
Gd283 O326 2.388 . S
Gd283 C347 2.805 . S
N284 C274 1.361 . S
N284 Gd283 2.570 . S
N284 C286 1.343 1_556 S
C285 C273 1.422 . S
C285 C287 1.321 . S
C285 H293 0.931 . S
C286 N284 1.343 1_554 S
C286 C287 1.390 . S
C286 H288 0.931 . S
C287 C285 1.321 . S
C287 C286 1.390 . S
C287 H289 0.930 . S
H288 C286 0.931 . S
H289 C287 0.930 . S
H290 C313 0.931 . S
H291 C279 0.929 . S
H292 C314 0.930 . S
H293 C285 0.931 . S
H294 C275 0.930 . S
H295 C304 0.929 . S
H296 C280 0.931 . S
H297 C281 0.930 . S
H298 C336 0.930 . S
H299 C277 0.929 . S
H300 C305 0.931 . S
H301 C306 0.930 . S
N302 Gd282 2.622 . S
N302 C303 1.369 . S
N302 C304 1.338 . S
C303 N302 1.369 . S
C303 C307 1.415 . S
C303 C310 1.422 . S
C304 H295 0.929 . S
C304 N302 1.338 . S
C304 C306 1.378 . S
C305 H300 0.931 . S
C305 C306 1.348 . S
C305 C307 1.413 . S
C306 H301 0.930 . S
C306 C304 1.378 . S
C306 C305 1.348 . S
C307 C303 1.415 . S
C307 C305 1.413 . S
C307 C337 1.437 . S
H308 C337 0.929 . S
N309 Gd282 2.570 . S
N309 C310 1.359 . S
N309 C313 1.343 . S
C310 C303 1.422 . S
C310 N309 1.359 . S
C310 C312 1.421 . S
C311 C312 1.422 . S
C311 C314 1.321 . S
C311 H338 0.931 . S
C312 C310 1.421 . S
C312 C311 1.422 . S
C312 C336 1.417 . S
C313 H290 0.931 . S
C313 N309 1.343 . S
C313 C314 1.390 . S
C314 H292 0.930 . S
C314 C311 1.321 . S
C314 C313 1.390 . S
O315 Gd283 2.386 . S
O315 C327 1.265 . S
O316 Gd282 2.353 . S
O316 C327 1.242 . S
O317 Gd282 2.468 . S
O317 C335 1.263 . S
O318 Gd282 2.427 . S
O318 C335 1.252 . S
O319 Gd283 2.307 . S
O319 C328 1.261 . S
O320 Gd282 2.388 . S
O320 C328 1.252 . S
O321 Gd282 2.386 . S
O321 C339 1.265 . S
O322 Gd283 2.353 . S
O322 C339 1.242 . S
O323 Gd283 2.468 . S
O323 C347 1.263 . S
O324 Gd283 2.427 . S
O324 C347 1.252 . S
O325 Gd282 2.307 . S
O325 C340 1.261 . S
O326 Gd283 2.388 . S
O326 C340 1.252 . S
C327 O315 1.265 . S
C327 O316 1.242 . S
C328 O319 1.261 . S
C328 O320 1.252 . S
C329 C332 1.394 . S
C329 C334 1.370 . S
C329 C335 1.500 . S
C330 C333 1.383 . S
C330 C334 1.395 . S
C331 C332 1.396 . S
C331 C333 1.365 . S
C331 H348 0.929 . S
C332 C329 1.394 . S
C332 C331 1.396 . S
C332 H349 0.930 . S
C333 C330 1.383 . S
C333 C331 1.365 . S
C333 H350 0.931 . S
C334 C329 1.370 . S
C334 C330 1.395 . S
C334 H351 0.930 . S
C335 Gd282 2.805 . S
C335 O317 1.263 . S
C335 O318 1.252 . S
C335 C329 1.500 . S
C336 H298 0.930 . S
C336 C312 1.417 . S
C336 C337 1.329 . S
C337 C307 1.437 . S
C337 H308 0.929 . S
C337 C336 1.329 . S
H338 C311 0.931 . S
C339 O321 1.265 . S
C339 O322 1.242 . S
C340 O325 1.261 . S
C340 O326 1.252 . S
C341 C344 1.394 . S
C341 C346 1.369 . S
C341 C347 1.500 . S
C342 C345 1.383 . S
C342 C346 1.396 1_554 S
C343 C344 1.396 . S
C343 C345 1.365 1_556 S
C343 H352 0.929 . S
C344 C341 1.394 . S
C344 C343 1.396 . S
C344 H353 0.930 . S
C345 C342 1.383 . S
C345 C343 1.365 1_554 S
C345 H354 0.931 . S
C346 C341 1.369 . S
C346 C342 1.396 1_556 S
C346 H355 0.930 1_556 S
C347 Gd283 2.805 . S
C347 O323 1.263 . S
C347 O324 1.252 . S
C347 C341 1.500 . S
H348 C331 0.929 . S
H349 C332 0.930 . S
H350 C333 0.931 . S
H351 C334 0.930 . S
H352 C343 0.929 . S
H353 C344 0.930 . S
H354 C345 0.931 . S
H355 C346 0.930 1_554 S
C356 C358 1.427 . S
C356 C360 1.415 . S
C356 N362 1.369 . S
C357 C358 1.413 1_554 S
C357 C359 1.417 . S
C357 C369 1.422 . S
C358 C356 1.427 . S
C358 C357 1.413 1_556 S
C358 N368 1.362 . S
C359 C357 1.417 . S
C359 C361 1.329 . S
C359 H378 0.930 . S
C360 C356 1.415 . S
C360 C361 1.437 1_556 S
C360 C364 1.413 . S
C361 C359 1.329 . S
C361 C360 1.437 1_554 S
C361 H383 0.929 . S
N362 C356 1.369 . S
N362 C363 1.338 1_455 S
N362 Gd367 2.622 1_455 S
C363 N362 1.338 1_655 S
C363 C365 1.378 1_655 S
C363 H375 0.930 . S
C364 C360 1.413 . S
C364 C365 1.348 . S
C364 H380 0.931 . S
C365 C363 1.378 1_455 S
C365 C364 1.348 . S
C365 H381 0.930 . S
Gd366 N386 2.622 . S
Gd366 N393 2.570 . S
Gd366 O400 2.353 . S
Gd366 O401 2.468 . S
Gd366 O402 2.427 . S
Gd366 O404 2.388 . S
Gd366 O405 2.386 1_455 S
Gd366 O409 2.307 . S
Gd366 C419 2.805 . S
Gd367 N362 2.622 1_655 S
Gd367 N368 2.570 1_655 S
Gd367 O399 2.386 1_655 S
Gd367 O403 2.307 1_655 S
Gd367 O406 2.353 . S
Gd367 O407 2.468 . S
Gd367 O408 2.427 . S
Gd367 O410 2.388 . S
Gd367 C431 2.805 . S
N368 C358 1.362 . S
N368 Gd367 2.570 1_455 S
N368 C370 1.343 1_556 S
C369 C357 1.422 . S
C369 C371 1.321 . S
C369 H377 0.931 . S
C370 N368 1.343 1_554 S
C370 C371 1.390 . S
C370 H372 0.931 . S
C371 C369 1.321 . S
C371 C370 1.390 . S
C371 H373 0.930 . S
H372 C370 0.931 . S
H373 C371 0.930 . S
H374 C397 0.931 . S
H375 C363 0.930 . S
H376 C398 0.930 . S
H377 C369 0.931 . S
H378 C359 0.930 . S
H379 C388 0.929 . S
H380 C364 0.931 . S
H381 C365 0.930 . S
H382 C420 0.930 . S
H383 C361 0.929 . S
H384 C389 0.931 . S
H385 C390 0.930 . S
N386 Gd366 2.622 . S
N386 C387 1.382 . S
N386 C388 1.338 . S
C387 N386 1.382 . S
C387 C391 1.405 1_455 S
C387 C394 1.420 1_455 S
C388 H379 0.929 . S
C388 N386 1.338 . S
C388 C390 1.378 . S
C389 H384 0.931 . S
C389 C390 1.348 1_655 S
C389 C391 1.413 . S
C390 H385 0.930 . S
C390 C388 1.378 . S
C390 C389 1.348 1_455 S
C391 C387 1.405 1_655 S
C391 C389 1.413 . S
C391 C421 1.437 . S
H392 C421 0.929 . S
N393 Gd366 2.570 . S
N393 C394 1.359 1_455 S
N393 C397 1.343 . S
C394 C387 1.420 1_655 S
C394 N393 1.359 1_655 S
C394 C396 1.421 . S
C395 C396 1.422 . S
C395 C398 1.321 . S
C395 H422 0.931 . S
C396 C394 1.421 . S
C396 C395 1.422 . S
C396 C420 1.417 . S
C397 H374 0.931 . S
C397 N393 1.343 . S
C397 C398 1.390 1_455 S
C398 H376 0.930 . S
C398 C395 1.321 . S
C398 C397 1.390 1_655 S
O399 Gd367 2.386 1_455 S
O399 C411 1.265 . S
O400 Gd366 2.353 . S
O400 C411 1.242 . S
O401 Gd366 2.468 . S
O401 C419 1.263 . S
O402 Gd366 2.427 . S
O402 C419 1.252 . S
O403 Gd367 2.307 1_455 S
O403 C412 1.261 . S
O404 Gd366 2.388 . S
O404 C412 1.252 . S
O405 Gd366 2.386 1_655 S
O405 C423 1.265 . S
O406 Gd367 2.353 . S
O406 C423 1.242 . S
O407 Gd367 2.468 . S
O407 C431 1.263 . S
O408 Gd367 2.427 . S
O408 C431 1.252 . S
O409 Gd366 2.307 . S
O409 C424 1.261 . S
O410 Gd367 2.388 . S
O410 C424 1.252 1_655 S
C411 O399 1.265 . S
C411 O400 1.242 . S
C412 O403 1.261 . S
C412 O404 1.252 . S
C413 C416 1.394 . S
C413 C418 1.370 . S
C413 C419 1.500 . S
C414 C417 1.383 . S
C414 C418 1.395 . S
C415 C416 1.396 . S
C415 C417 1.365 . S
C415 H432 0.929 . S
C416 C413 1.394 . S
C416 C415 1.396 . S
C416 H433 0.930 . S
C417 C414 1.383 . S
C417 C415 1.365 . S
C417 H434 0.931 . S
C418 C413 1.370 . S
C418 C414 1.395 . S
C418 H435 0.930 . S
C419 Gd366 2.805 . S
C419 O401 1.263 . S
C419 O402 1.252 . S
C419 C413 1.500 . S
C420 H382 0.930 . S
C420 C396 1.417 . S
C420 C421 1.329 . S
C421 C391 1.437 . S
C421 H392 0.929 . S
C421 C420 1.329 . S
H422 C395 0.931 . S
C423 O405 1.265 . S
C423 O406 1.242 . S
C424 O409 1.261 . S
C424 O410 1.252 1_455 S
C425 C428 1.394 . S
C425 C430 1.370 . S
C425 C431 1.500 . S
C426 C429 1.383 . S
C426 C430 1.395 1_554 S
C427 C428 1.396 . S
C427 C429 1.365 1_556 S
C427 H436 0.929 . S
C428 C425 1.394 . S
C428 C427 1.396 . S
C428 H437 0.930 . S
C429 C426 1.383 . S
C429 C427 1.365 1_554 S
C429 H438 0.931 . S
C430 C425 1.370 . S
C430 C426 1.395 1_556 S
C430 H439 0.930 1_556 S
C431 Gd367 2.805 . S
C431 O407 1.263 . S
C431 O408 1.252 . S
C431 C425 1.500 . S
H432 C415 0.929 . S
H433 C416 0.930 . S
H434 C417 0.931 . S
H435 C418 0.930 . S
H436 C427 0.929 . S
H437 C428 0.930 . S
H438 C429 0.931 . S
H439 C430 0.930 1_554 S
H440 C446 0.930 1_565 S
H441 C450 0.930 . S
H442 C455 0.929 . S
H443 C453 0.929 . S
H444 C448 0.929 . S
H445 C454 0.929 1_565 S
C446 H440 0.930 1_545 S
C446 C447 1.367 . S
C446 C454 1.378 . S
C447 C446 1.367 . S
C447 C455 1.433 . S
C448 H444 0.929 . S
C448 C450 1.378 . S
C448 C452 1.350 . S
C449 C452 1.463 . S
C449 C454 1.350 . S
C449 N457 1.427 . S
C450 H441 0.930 . S
C450 C448 1.378 . S
C450 C451 1.367 . S
C451 C450 1.367 . S
C451 C453 1.433 1_545 S
C452 C448 1.350 . S
C452 C449 1.463 . S
C452 N456 1.427 . S
C453 H443 0.929 . S
C453 C451 1.433 1_565 S
C453 N456 1.384 1_565 S
C454 H445 0.929 1_545 S
C454 C446 1.378 . S
C454 C449 1.350 . S
C455 H442 0.929 . S
C455 C447 1.433 . S
C455 N457 1.384 . S
N456 C452 1.427 . S
N456 C453 1.384 1_545 S
N457 C449 1.427 . S
N457 C455 1.384 . S
H458 C464 0.930 . S
H459 C468 0.930 . S
H460 C473 0.929 . S
H461 C471 0.929 . S
H462 C466 0.929 . S
H463 C472 0.929 . S
C464 H458 0.930 . S
C464 C465 1.367 . S
C464 C472 1.378 . S
C465 C464 1.367 . S
C465 C473 1.433 . S
C466 H462 0.929 . S
C466 C468 1.378 . S
C466 C470 1.350 . S
C467 C470 1.463 . S
C467 C472 1.350 . S
C467 N475 1.427 . S
C468 H459 0.930 . S
C468 C466 1.378 . S
C468 C469 1.367 . S
C469 C468 1.367 . S
C469 C471 1.433 . S
C470 C466 1.350 . S
C470 C467 1.463 . S
C470 N474 1.427 . S
C471 H461 0.929 . S
C471 C469 1.433 . S
C471 N474 1.384 . S
C472 H463 0.929 . S
C472 C464 1.378 . S
C472 C467 1.350 . S
C473 H460 0.929 . S
C473 C465 1.433 . S
C473 N475 1.384 . S
N474 C470 1.427 . S
N474 C471 1.384 . S
N475 C467 1.427 . S
N475 C473 1.384 . S
H476 C482 0.930 . S
H477 C486 0.930 . S
H478 C491 0.929 . S
H479 C489 0.929 . S
H480 C484 0.929 . S
H481 C490 0.929 . S
C482 H476 0.930 . S
C482 C483 1.367 . S
C482 C490 1.378 . S
C483 C482 1.367 . S
C483 C491 1.433 . S
C484 H480 0.929 . S
C484 C486 1.378 . S
C484 C488 1.350 . S
C485 C488 1.463 . S
C485 C490 1.350 . S
C485 N493 1.427 . S
C486 H477 0.930 . S
C486 C484 1.378 . S
C486 C487 1.367 . S
C487 C486 1.367 . S
C487 C489 1.433 . S
C488 C484 1.350 . S
C488 C485 1.463 . S
C488 N492 1.427 . S
C489 H479 0.929 . S
C489 C487 1.433 . S
C489 N492 1.384 . S
C490 H481 0.929 . S
C490 C482 1.378 . S
C490 C485 1.350 . S
C491 H478 0.929 . S
C491 C483 1.433 . S
C491 N493 1.384 . S
N492 C488 1.427 . S
N492 C489 1.384 . S
N493 C485 1.427 . S
N493 C491 1.384 . S
H494 C500 0.930 . S
H495 C504 0.930 1_655 S
H496 C509 0.929 . S
H497 C507 0.929 . S
H498 C502 0.929 1_655 S
H499 C508 0.929 . S
C500 H494 0.930 . S
C500 C501 1.367 . S
C500 C508 1.378 . S
C501 C500 1.367 . S
C501 C509 1.433 . S
C502 H498 0.929 1_455 S
C502 C504 1.378 . S
C502 C506 1.350 . S
C503 C506 1.463 . S
C503 C508 1.350 . S
C503 N511 1.427 . S
C504 H495 0.930 1_455 S
C504 C502 1.378 . S
C504 C505 1.367 . S
C505 C504 1.367 . S
C505 C507 1.433 . S
C506 C502 1.350 . S
C506 C503 1.463 . S
C506 N510 1.427 . S
C507 H497 0.929 . S
C507 C505 1.433 . S
C507 N510 1.384 . S
C508 H499 0.929 . S
C508 C500 1.378 . S
C508 C503 1.350 . S
C509 H496 0.929 . S
C509 C501 1.433 . S
C509 N511 1.384 . S
N510 C506 1.427 . S
N510 C507 1.384 . S
N511 C503 1.427 . S
N511 C509 1.384 . S
H512 C518 0.930 . S
H513 C522 0.930 . S
H514 C527 0.929 . S
H515 C525 0.929 . S
H516 C520 0.929 . S
H517 C526 0.929 . S
C518 H512 0.930 . S
C518 C519 1.367 1_545 S
C518 C526 1.378 . S
C519 C518 1.367 1_565 S
C519 C527 1.433 . S
C520 H516 0.929 . S
C520 C522 1.378 . S
C520 C524 1.350 1_556 S
C521 C524 1.463 . S
C521 C526 1.350 1_565 S
C521 N529 1.427 . S
C522 H513 0.930 . S
C522 C520 1.378 . S
C522 C523 1.346 1_565 S
C523 C522 1.346 1_545 S
C523 C525 1.452 . S
C524 C520 1.350 1_554 S
C524 C521 1.463 . S
C524 N528 1.427 1_565 S
C525 H515 0.929 . S
C525 C523 1.452 . S
C525 N528 1.384 1_556 S
C526 H517 0.929 . S
C526 C518 1.378 . S
C526 C521 1.350 1_545 S
C527 H514 0.929 . S
C527 C519 1.433 . S
C527 N529 1.384 . S
N528 C524 1.427 1_545 S
N528 C525 1.384 1_554 S
N529 C521 1.427 . S
N529 C527 1.384 . S
H530 C536 0.930 . S
H531 C540 0.930 . S
H532 C545 0.929 . S
H533 C543 0.929 . S
H534 C538 0.929 . S
H535 C544 0.929 . S
C536 H530 0.930 . S
C536 C537 1.367 . S
C536 C544 1.378 . S
C537 C536 1.367 . S
C537 C545 1.433 . S
C538 H534 0.929 . S
C538 C540 1.378 . S
C538 C542 1.350 1_556 S
C539 C542 1.463 . S
C539 C544 1.350 . S
C539 N547 1.427 . S
C540 H531 0.930 . S
C540 C538 1.378 . S
C540 C541 1.367 . S
C541 C540 1.367 . S
C541 C543 1.433 . S
C542 C538 1.350 1_554 S
C542 C539 1.463 . S
C542 N546 1.427 . S
C543 H533 0.929 . S
C543 C541 1.433 . S
C543 N546 1.384 1_556 S
C544 H535 0.929 . S
C544 C536 1.378 . S
C544 C539 1.350 . S
C545 H532 0.929 . S
C545 C537 1.433 . S
C545 N547 1.384 . S
N546 C542 1.427 . S
N546 C543 1.384 1_554 S
N547 C539 1.427 . S
N547 C545 1.384 . S
H548 C554 0.930 . S
H549 C558 0.930 1_554 S
H550 C563 0.929 . S
H551 C561 0.929 . S
H552 C556 0.929 . S
H553 C562 0.929 . S
C554 H548 0.930 . S
C554 C555 1.367 . S
C554 C562 1.378 . S
C555 C554 1.367 . S
C555 C563 1.433 . S
C556 H552 0.929 . S
C556 C558 1.378 1_554 S
C556 C560 1.350 . S
C557 C560 1.463 . S
C557 C562 1.350 . S
C557 N565 1.427 . S
C558 H549 0.930 1_556 S
C558 C556 1.378 1_556 S
C558 C559 1.367 . S
C559 C558 1.367 . S
C559 C561 1.433 . S
C560 C556 1.350 . S
C560 C557 1.463 . S
C560 N564 1.427 1_554 S
C561 H551 0.929 . S
C561 C559 1.433 . S
C561 N564 1.384 . S
C562 H553 0.929 . S
C562 C554 1.378 . S
C562 C557 1.350 . S
C563 H550 0.929 . S
C563 C555 1.433 . S
C563 N565 1.384 . S
N564 C560 1.427 1_556 S
N564 C561 1.384 . S
N565 C557 1.427 . S
N565 C563 1.384 . S
H566 C572 0.930 . S
H567 C576 0.930 . S
H568 C581 0.929 . S
H569 C579 0.927 1_454 S
H570 C574 0.929 . S
H571 C580 0.929 . S
C572 H566 0.930 . S
C572 C573 1.367 . S
C572 C580 1.378 . S
C573 C572 1.367 . S
C573 C581 1.433 . S
C574 H570 0.929 . S
C574 C576 1.378 . S
C574 C578 1.350 1_556 S
C575 C578 1.463 . S
C575 C580 1.350 . S
C575 N583 1.427 . S
C576 H567 0.930 . S
C576 C574 1.378 . S
C576 C577 1.367 . S
C577 C576 1.367 . S
C577 C579 1.434 . S
C578 C574 1.350 1_554 S
C578 C575 1.463 . S
C578 N582 1.427 . S
C579 H569 0.927 1_656 S
C579 C577 1.434 . S
C579 N582 1.385 1_556 S
C580 H571 0.929 . S
C580 C572 1.378 . S
C580 C575 1.350 . S
C581 H568 0.929 . S
C581 C573 1.433 . S
C581 N583 1.384 . S
N582 C578 1.427 . S
N582 C579 1.385 1_554 S
N583 C575 1.427 . S
N583 C581 1.384 . S
H584 C590 0.930 . S
H585 C594 0.930 . S
H586 C599 0.929 . S
H587 C597 0.929 . S
H588 C592 0.929 . S
H589 C598 0.929 . S
C590 H584 0.930 . S
C590 C591 1.367 . S
C590 C598 1.378 . S
C591 C590 1.367 . S
C591 C599 1.433 . S
C592 H588 0.929 . S
C592 C594 1.378 . S
C592 C596 1.350 1_655 S
C593 C596 1.463 . S
C593 C598 1.350 . S
C593 N601 1.427 . S
C594 H585 0.930 . S
C594 C592 1.378 . S
C594 C595 1.367 1_655 S
C595 C594 1.367 1_455 S
C595 C597 1.433 . S
C596 C592 1.350 1_455 S
C596 C593 1.463 . S
C596 N600 1.427 . S
C597 H587 0.929 . S
C597 C595 1.433 . S
C597 N600 1.384 . S
C598 H589 0.929 . S
C598 C590 1.378 . S
C598 C593 1.350 . S
C599 H586 0.929 . S
C599 C591 1.433 . S
C599 N601 1.384 . S
N600 C596 1.427 . S
N600 C597 1.384 . S
N601 C593 1.427 . S
N601 C599 1.384 . S
H602 C608 0.930 . S
H603 C612 0.930 . S
H604 C617 0.929 . S
H605 C615 0.929 1_565 S
H606 C610 0.929 . S
H607 C616 0.929 . S
C608 H602 0.930 . S
C608 C609 1.367 . S
C608 C616 1.378 . S
C609 C608 1.367 . S
C609 C617 1.433 . S
C610 H606 0.929 . S
C610 C612 1.378 . S
C610 C614 1.350 . S
C611 C614 1.463 . S
C611 C616 1.350 . S
C611 N619 1.427 . S
C612 H603 0.930 . S
C612 C610 1.378 . S
C612 C613 1.367 . S
C613 C612 1.367 . S
C613 C615 1.433 . S
C614 C610 1.350 . S
C614 C611 1.463 . S
C614 N618 1.427 . S
C615 H605 0.929 1_545 S
C615 C613 1.433 . S
C615 N618 1.384 . S
C616 H607 0.929 . S
C616 C608 1.378 . S
C616 C611 1.350 . S
C617 H604 0.929 . S
C617 C609 1.433 . S
C617 N619 1.384 . S
N618 C614 1.427 . S
N618 C615 1.384 . S
N619 C611 1.427 . S
N619 C617 1.384 . S
H620 C626 0.930 . S
H621 C630 0.930 . S
H622 C635 0.929 . S
H623 C633 0.929 . S
H624 C628 0.929 . S
H625 C634 0.929 . S
C626 H620 0.930 . S
C626 C627 1.367 . S
C626 C634 1.378 . S
C627 C626 1.367 . S
C627 C635 1.433 . S
C628 H624 0.929 . S
C628 C630 1.378 . S
C628 C632 1.350 . S
C629 C632 1.463 . S
C629 C634 1.350 . S
C629 N637 1.427 . S
C630 H621 0.930 . S
C630 C628 1.378 . S
C630 C631 1.367 . S
C631 C630 1.367 . S
C631 C633 1.433 . S
C632 C628 1.350 . S
C632 C629 1.463 . S
C632 N636 1.427 . S
C633 H623 0.929 . S
C633 C631 1.433 . S
C633 N636 1.384 . S
C634 H625 0.929 . S
C634 C626 1.378 . S
C634 C629 1.350 . S
C635 H622 0.929 . S
C635 C627 1.433 . S
C635 N637 1.384 . S
N636 C632 1.427 . S
N636 C633 1.384 . S
N637 C629 1.427 . S
N637 C635 1.384 . S
H638 C644 0.930 . S
H639 C648 0.930 . S
H640 C653 0.929 . S
H641 C651 0.929 . S
H642 C646 0.929 . S
H643 C652 0.929 . S
C644 H638 0.930 . S
C644 C645 1.367 . S
C644 C652 1.378 . S
C645 C644 1.367 . S
C645 C653 1.433 . S
C646 H642 0.929 . S
C646 C648 1.378 . S
C646 C650 1.350 . S
C647 C650 1.463 . S
C647 C652 1.350 . S
C647 N655 1.427 . S
C648 H639 0.930 . S
C648 C646 1.378 . S
C648 C649 1.367 . S
C649 C648 1.367 . S
C649 C651 1.433 . S
C650 C646 1.350 . S
C650 C647 1.463 . S
C650 N654 1.427 . S
C651 H641 0.929 . S
C651 C649 1.433 . S
C651 N654 1.384 . S
C652 H643 0.929 . S
C652 C644 1.378 . S
C652 C647 1.350 . S
C653 H640 0.929 . S
C653 C645 1.433 . S
C653 N655 1.384 . S
N654 C650 1.427 . S
N654 C651 1.384 . S
N655 C647 1.427 . S
N655 C653 1.384 . S
H656 C662 0.930 . S
H657 C666 0.930 1_556 S
H658 C671 0.929 . S
H659 C669 0.929 . S
H660 C664 0.929 . S
H661 C670 0.929 . S
C662 H656 0.930 . S
C662 C663 1.367 . S
C662 C670 1.378 . S
C663 C662 1.367 . S
C663 C671 1.433 . S
C664 H660 0.929 . S
C664 C666 1.378 . S
C664 C668 1.350 . S
C665 C668 1.463 1_655 S
C665 C670 1.350 . S
C665 N673 1.427 . S
C666 H657 0.930 1_554 S
C666 C664 1.378 . S
C666 C667 1.367 . S
C667 C666 1.367 . S
C667 C669 1.433 . S
C668 C664 1.350 . S
C668 C665 1.463 1_455 S
C668 N672 1.427 . S
C669 H659 0.929 . S
C669 C667 1.433 . S
C669 N672 1.384 . S
C670 H661 0.929 . S
C670 C662 1.378 . S
C670 C665 1.350 . S
C671 H658 0.929 . S
C671 C663 1.433 . S
C671 N673 1.384 . S
N672 C668 1.427 . S
N672 C669 1.384 . S
N673 C665 1.427 . S
N673 C671 1.384 . S
H674 C680 0.930 . S
H675 C684 0.930 . S
H676 C689 0.929 . S
H677 C687 0.929 . S
H678 C682 0.929 . S
H679 C688 0.929 . S
C680 H674 0.930 . S
C680 C681 1.367 . S
C680 C688 1.378 . S
C681 C680 1.367 . S
C681 C689 1.433 1_565 S
C682 H678 0.929 . S
C682 C684 1.378 . S
C682 C686 1.350 . S
C683 C686 1.463 1_565 S
C683 C688 1.350 . S
C683 N691 1.427 1_565 S
C684 H675 0.930 . S
C684 C682 1.378 . S
C684 C685 1.367 . S
C685 C684 1.367 . S
C685 C687 1.433 1_545 S
C686 C682 1.350 . S
C686 C683 1.463 1_545 S
C686 N690 1.427 1_545 S
C687 H677 0.929 . S
C687 C685 1.433 1_565 S
C687 N690 1.384 . S
C688 H679 0.929 . S
C688 C680 1.378 . S
C688 C683 1.350 . S
C689 H676 0.929 . S
C689 C681 1.433 1_545 S
C689 N691 1.384 . S
N690 C686 1.427 1_565 S
N690 C687 1.384 . S
N691 C683 1.427 1_545 S
N691 C689 1.384 . S
H692 C698 0.930 . S
H693 C702 0.930 . S
H694 C707 0.929 . S
H695 C705 0.929 1_556 S
H696 C700 0.929 . S
H697 C706 0.929 . S
C698 H692 0.930 . S
C698 C699 1.367 . S
C698 C706 1.378 . S
C699 C698 1.367 . S
C699 C707 1.433 . S
C700 H696 0.929 . S
C700 C702 1.378 . S
C700 C704 1.350 . S
C701 C704 1.463 . S
C701 C706 1.350 . S
C701 N709 1.427 . S
C702 H693 0.930 . S
C702 C700 1.378 . S
C702 C703 1.367 . S
C703 C702 1.367 . S
C703 C705 1.433 . S
C704 C700 1.350 . S
C704 C701 1.463 . S
C704 N708 1.427 . S
C705 H695 0.929 1_554 S
C705 C703 1.433 . S
C705 N708 1.384 . S
C706 H697 0.929 . S
C706 C698 1.378 . S
C706 C701 1.350 . S
C707 H694 0.929 . S
C707 C699 1.433 . S
C707 N709 1.384 . S
N708 C704 1.427 . S
N708 C705 1.384 . S
N709 C701 1.427 . S
N709 C707 1.384 . S
H710 C716 0.930 . S
H711 C720 0.930 . S
H712 C725 0.929 . S
H713 C723 0.929 . S
H714 C718 0.929 . S
H715 C724 0.929 . S
C716 H710 0.930 . S
C716 C717 1.367 . S
C716 C724 1.378 . S
C717 C716 1.367 . S
C717 C725 1.433 . S
C718 H714 0.929 . S
C718 C720 1.378 . S
C718 C722 1.350 . S
C719 C722 1.463 . S
C719 C724 1.350 . S
C719 N727 1.427 . S
C720 H711 0.930 . S
C720 C718 1.378 . S
C720 C721 1.367 . S
C721 C720 1.367 . S
C721 C723 1.433 . S
C722 C718 1.350 . S
C722 C719 1.463 . S
C722 N726 1.427 . S
C723 H713 0.929 . S
C723 C721 1.433 . S
C723 N726 1.384 . S
C724 H715 0.929 . S
C724 C716 1.378 . S
C724 C719 1.350 . S
C725 H712 0.929 . S
C725 C717 1.433 . S
C725 N727 1.384 . S
N726 C722 1.427 . S
N726 C723 1.384 . S
N727 C719 1.427 . S
N727 C725 1.384 . S
H728 C734 0.930 . S
H729 C738 0.930 . S
H730 C743 0.929 1_554 S
H731 C741 0.929 . S
H732 C736 0.929 . S
H733 C742 0.929 . S
C734 H728 0.930 . S
C734 C735 1.367 . S
C734 C742 1.378 . S
C735 C734 1.367 . S
C735 C743 1.433 . S
C736 H732 0.929 . S
C736 C738 1.378 . S
C736 C740 1.350 . S
C737 C740 1.463 . S
C737 C742 1.350 . S
C737 N745 1.427 . S
C738 H729 0.930 . S
C738 C736 1.378 . S
C738 C739 1.367 . S
C739 C738 1.367 . S
C739 C741 1.433 . S
C740 C736 1.350 . S
C740 C737 1.463 . S
C740 N744 1.427 . S
C741 H731 0.929 . S
C741 C739 1.433 . S
C741 N744 1.384 . S
C742 H733 0.929 . S
C742 C734 1.378 . S
C742 C737 1.350 . S
C743 H730 0.929 1_556 S
C743 C735 1.433 . S
C743 N745 1.384 . S
N744 C740 1.427 . S
N744 C741 1.384 . S
N745 C737 1.427 . S
N745 C743 1.384 . S
H746 C752 0.930 . S
H747 C756 0.930 . S
H748 C761 0.929 . S
H749 C759 0.929 . S
H750 C754 0.929 . S
H751 C760 0.929 1_554 S
C752 H746 0.930 . S
C752 C753 1.367 1_554 S
C752 C760 1.378 1_554 S
C753 C752 1.367 1_556 S
C753 C761 1.433 . S
C754 H750 0.929 . S
C754 C756 1.378 . S
C754 C758 1.350 . S
C755 C758 1.463 . S
C755 C760 1.350 . S
C755 N763 1.427 . S
C756 H747 0.930 . S
C756 C754 1.378 . S
C756 C757 1.367 . S
C757 C756 1.367 . S
C757 C759 1.433 . S
C758 C754 1.350 . S
C758 C755 1.463 . S
C758 N762 1.427 . S
C759 H749 0.929 . S
C759 C757 1.433 . S
C759 N762 1.384 . S
C760 H751 0.929 1_556 S
C760 C752 1.378 1_556 S
C760 C755 1.350 . S
C761 H748 0.929 . S
C761 C753 1.433 . S
C761 N763 1.384 . S
N762 C758 1.427 . S
N762 C759 1.384 . S
N763 C755 1.427 . S
N763 C761 1.384 . S
H764 C770 0.930 1_554 S
H765 C774 0.930 . S
H766 C779 0.929 . S
H767 C777 0.929 . S
H768 C772 0.929 . S
H769 C778 0.929 . S
C770 H764 0.930 1_556 S
C770 C771 1.367 . S
C770 C778 1.378 . S
C771 C770 1.367 . S
C771 C779 1.433 . S
C772 H768 0.929 . S
C772 C774 1.378 . S
C772 C776 1.350 . S
C773 C776 1.463 . S
C773 C778 1.350 . S
C773 N781 1.427 . S
C774 H765 0.930 . S
C774 C772 1.378 . S
C774 C775 1.367 . S
C775 C774 1.367 . S
C775 C777 1.433 . S
C776 C772 1.350 . S
C776 C773 1.463 . S
C776 N780 1.427 . S
C777 H767 0.929 . S
C777 C775 1.433 . S
C777 N780 1.384 . S
C778 H769 0.929 . S
C778 C770 1.378 . S
C778 C773 1.350 . S
C779 H766 0.929 . S
C779 C771 1.433 . S
C779 N781 1.384 . S
N780 C776 1.427 . S
N780 C777 1.384 . S
N781 C773 1.427 . S
N781 C779 1.384 . S
H782 C788 0.930 . S
H783 C792 0.930 . S
H784 C797 0.929 . S
H785 C795 0.929 . S
H786 C790 0.929 . S
H787 C796 0.929 . S
C788 H782 0.930 . S
C788 C789 1.367 . S
C788 C796 1.378 . S
C789 C788 1.367 . S
C789 C797 1.433 . S
C790 H786 0.929 . S
C790 C792 1.378 . S
C790 C794 1.350 . S
C791 C794 1.463 . S
C791 C796 1.350 . S
C791 N799 1.427 . S
C792 H783 0.930 . S
C792 C790 1.378 . S
C792 C793 1.367 . S
C793 C792 1.367 . S
C793 C795 1.433 . S
C794 C790 1.350 . S
C794 C791 1.463 . S
C794 N798 1.427 . S
C795 H785 0.929 . S
C795 C793 1.433 . S
C795 N798 1.384 . S
C796 H787 0.929 . S
C796 C788 1.378 . S
C796 C791 1.350 . S
C797 H784 0.929 . S
C797 C789 1.433 . S
C797 N799 1.384 . S
N798 C794 1.427 . S
N798 C795 1.384 . S
N799 C791 1.427 . S
N799 C797 1.384 . S
H800 C806 0.930 . S
H801 C810 0.930 . S
H802 C815 0.929 . S
H803 C813 0.929 . S
H804 C808 0.929 . S
H805 C814 0.929 . S
C806 H800 0.930 . S
C806 C807 1.367 . S
C806 C814 1.378 . S
C807 C806 1.367 . S
C807 C815 1.433 1_655 S
C808 H804 0.929 . S
C808 C810 1.378 . S
C808 C812 1.350 1_455 S
C809 C812 1.463 . S
C809 C814 1.350 . S
C809 N817 1.427 1_655 S
C810 H801 0.930 . S
C810 C808 1.378 . S
C810 C811 1.367 1_455 S
C811 C810 1.367 1_655 S
C811 C813 1.433 . S
C812 C808 1.350 1_655 S
C812 C809 1.463 . S
C812 N816 1.427 . S
C813 H803 0.929 . S
C813 C811 1.433 . S
C813 N816 1.384 . S
C814 H805 0.929 . S
C814 C806 1.378 . S
C814 C809 1.350 . S
C815 H802 0.929 . S
C815 C807 1.433 1_455 S
C815 N817 1.384 . S
N816 C812 1.427 . S
N816 C813 1.384 . S
N817 C809 1.427 1_455 S
N817 C815 1.384 . S
H818 C824 0.930 . S
H819 C828 0.930 . S
H820 C833 0.929 1_545 S
H821 C831 0.929 . S
H822 C826 0.929 . S
H823 C832 0.929 . S
C824 H818 0.930 . S
C824 C825 1.367 . S
C824 C832 1.378 . S
C825 C824 1.367 . S
C825 C833 1.433 . S
C826 H822 0.929 . S
C826 C828 1.378 . S
C826 C830 1.350 1_545 S
C827 C830 1.463 . S
C827 C832 1.350 . S
C827 N835 1.420 1_565 S
C828 H819 0.930 . S
C828 C826 1.378 . S
C828 C829 1.367 1_545 S
C829 C828 1.367 1_565 S
C829 C831 1.433 . S
C830 C826 1.350 1_565 S
C830 C827 1.463 . S
C830 N834 1.427 . S
C831 H821 0.929 . S
C831 C829 1.433 . S
C831 N834 1.384 . S
C832 H823 0.929 . S
C832 C824 1.378 . S
C832 C827 1.350 . S
C833 H820 0.929 1_565 S
C833 C825 1.433 . S
C833 N835 1.382 1_565 S
N834 C830 1.427 . S
N834 C831 1.384 . S
N835 C827 1.420 1_545 S
N835 C833 1.382 1_545 S
H836 C842 0.930 . S
H837 C846 0.930 . S
H838 C851 0.929 . S
H839 C849 0.929 . S
H840 C844 0.929 . S
H841 C850 0.929 . S
C842 H836 0.930 . S
C842 C843 1.367 . S
C842 C850 1.378 . S
C843 C842 1.367 . S
C843 C851 1.433 . S
C844 H840 0.929 . S
C844 C846 1.378 . S
C844 C848 1.350 . S
C845 C848 1.463 . S
C845 C850 1.350 . S
C845 N853 1.427 . S
C846 H837 0.930 . S
C846 C844 1.378 . S
C846 C847 1.367 . S
C847 C846 1.367 . S
C847 C849 1.433 . S
C848 C844 1.350 . S
C848 C845 1.463 . S
C848 N852 1.427 . S
C849 H839 0.929 . S
C849 C847 1.433 . S
C849 N852 1.384 . S
C850 H841 0.929 . S
C850 C842 1.378 . S
C850 C845 1.350 . S
C851 H838 0.929 . S
C851 C843 1.433 . S
C851 N853 1.384 . S
N852 C848 1.427 . S
N852 C849 1.384 . S
N853 C845 1.427 . S
N853 C851 1.384 . S
H854 C860 0.930 . S
H855 C864 0.930 . S
H856 C869 0.929 . S
H857 C867 0.929 . S
H858 C862 0.929 . S
H859 C868 0.929 . S
C860 H854 0.930 . S
C860 C861 1.367 . S
C860 C868 1.378 . S
C861 C860 1.367 . S
C861 C869 1.433 . S
C862 H858 0.929 . S
C862 C864 1.378 . S
C862 C866 1.350 . S
C863 C866 1.463 . S
C863 C868 1.350 . S
C863 N871 1.427 . S
C864 H855 0.930 . S
C864 C862 1.378 . S
C864 C865 1.367 . S
C865 C864 1.367 . S
C865 C867 1.433 . S
C866 C862 1.350 . S
C866 C863 1.463 . S
C866 N870 1.427 . S
C867 H857 0.929 . S
C867 C865 1.433 . S
C867 N870 1.384 . S
C868 H859 0.929 . S
C868 C860 1.378 . S
C868 C863 1.350 . S
C869 H856 0.929 . S
C869 C861 1.433 . S
C869 N871 1.384 . S
N870 C866 1.427 . S
N870 C867 1.384 . S
N871 C863 1.427 . S
N871 C869 1.384 . S
C447 N80 1.937 . S
C451 C172 2.013 . S
C469 C255 2.030 . S
C465 N93 1.947 . S
C487 C340 2.006 . S
C483 N54 1.928 . S
C505 C424 1.992 . S
C501 N67 1.921 . S
C523 C160 2.020 . S
C519 N28 1.948 . S
C537 N41 1.953 . S
C541 C243 2.030 . S
C555 N2 1.931 . S
C559 C328 2.002 . S
C573 N15 1.936 . S
C577 C412 1.996 1_655 S
C595 C162 0.567 1_455 S
C591 N70 0.541 . S
C613 C258 0.547 . S
C609 N83 0.499 . S
C631 C330 0.605 . S
C627 N96 0.522 . S
C645 N57 0.508 . S
C649 C414 0.586 . S
C663 N18 0.534 . S
C667 C174 0.575 . S
C685 C246 0.577 . S
C681 N31 0.515 . S
C703 C342 0.585 . S
C699 N44 0.530 . S
C717 N5 0.519 . S
C721 C426 0.556 . S
C735 N66 2.026 . S
C739 C159 2.098 . S
C753 N79 2.013 . S
C757 C244 2.100 . S
C775 C327 2.110 . S
C771 N92 2.030 . S
C793 C411 2.117 . S
C789 N53 2.041 . S
C807 N14 2.027 . S
C811 C171 2.096 . S
C829 C256 2.099 1_565 S
C825 N27 2.021 . S
C847 C339 2.114 . S
C843 N40 2.048 . S
C861 N1 2.045 . S
C865 C423 2.116 . S
