# Generated by pormake.
# Topology eea, (3,6)-cn, num edge types: 1
# Building blocks:
#     Node 0, Type 0, BuildingBlock: MIDCAF_clean_linker_0, # of connection points: 3
#     Node 1, Type 0, BuildingBlock: MIDCAF_clean_linker_0, # of connection points: 3
#     Node 2, Type 0, BuildingBlock: MIDCAF_clean_linker_0, # of connection points: 3
#     Node 3, Type 0, BuildingBlock: MIDCAF_clean_linker_0, # of connection points: 3
#     Node 4, Type 0, BuildingBlock: MIDCAF_clean_linker_0, # of connection points: 3
#     Node 5, Type 0, BuildingBlock: MIDCAF_clean_linker_0, # of connection points: 3
#     Node 6, Type 0, BuildingBlock: MIDCAF_clean_linker_0, # of connection points: 3
#     Node 7, Type 0, BuildingBlock: MIDCAF_clean_linker_0, # of connection points: 3
#     Node 8, Type 0, BuildingBlock: MIDCAF_clean_linker_0, # of connection points: 3
#     Node 9, Type 0, BuildingBlock: MIDCAF_clean_linker_0, # of connection points: 3
#     Node 10, Type 0, BuildingBlock: MIDCAF_clean_linker_0, # of connection points: 3
#     Node 11, Type 0, BuildingBlock: MIDCAF_clean_linker_0, # of connection points: 3
#     Node 12, Type 0, BuildingBlock: MIDCAF_clean_linker_0, # of connection points: 3
#     Node 13, Type 0, BuildingBlock: MIDCAF_clean_linker_0, # of connection points: 3
#     Node 14, Type 0, BuildingBlock: MIDCAF_clean_linker_0, # of connection points: 3
#     Node 15, Type 0, BuildingBlock: MIDCAF_clean_linker_0, # of connection points: 3
#     Node 16, Type 0, BuildingBlock: MIDCAF_clean_linker_0, # of connection points: 3
#     Node 17, Type 0, BuildingBlock: MIDCAF_clean_linker_0, # of connection points: 3
#     Node 18, Type 1, BuildingBlock: KUMBOL_clean_sbu_0, # of connection points: 6
#     Node 19, Type 1, BuildingBlock: KUMBOL_clean_sbu_0, # of connection points: 6
#     Node 20, Type 1, BuildingBlock: KUMBOL_clean_sbu_0, # of connection points: 6
#     Node 21, Type 1, BuildingBlock: KUMBOL_clean_sbu_0, # of connection points: 6
#     Node 22, Type 1, BuildingBlock: KUMBOL_clean_sbu_0, # of connection points: 6
#     Node 23, Type 1, BuildingBlock: KUMBOL_clean_sbu_0, # of connection points: 6
#     Node 24, Type 1, BuildingBlock: KUMBOL_clean_sbu_0, # of connection points: 6
#     Node 25, Type 1, BuildingBlock: KUMBOL_clean_sbu_0, # of connection points: 6
#     Node 26, Type 1, BuildingBlock: KUMBOL_clean_sbu_0, # of connection points: 6
#     Edge 27, Type (0, 1), BuildingBlock: UVAHIK_clean_linker_0, # of connection points: 2
#     Edge 28, Type (0, 1), BuildingBlock: UVAHIK_clean_linker_0, # of connection points: 2
#     Edge 29, Type (0, 1), BuildingBlock: UVAHIK_clean_linker_0, # of connection points: 2
#     Edge 30, Type (0, 1), BuildingBlock: UVAHIK_clean_linker_0, # of connection points: 2
#     Edge 31, Type (0, 1), BuildingBlock: UVAHIK_clean_linker_0, # of connection points: 2
#     Edge 32, Type (0, 1), BuildingBlock: UVAHIK_clean_linker_0, # of connection points: 2
#     Edge 33, Type (0, 1), BuildingBlock: UVAHIK_clean_linker_0, # of connection points: 2
#     Edge 34, Type (0, 1), BuildingBlock: UVAHIK_clean_linker_0, # of connection points: 2
#     Edge 35, Type (0, 1), BuildingBlock: UVAHIK_clean_linker_0, # of connection points: 2
#     Edge 36, Type (0, 1), BuildingBlock: UVAHIK_clean_linker_0, # of connection points: 2
#     Edge 37, Type (0, 1), BuildingBlock: UVAHIK_clean_linker_0, # of connection points: 2
#     Edge 38, Type (0, 1), BuildingBlock: UVAHIK_clean_linker_0, # of connection points: 2
#     Edge 39, Type (0, 1), BuildingBlock: UVAHIK_clean_linker_0, # of connection points: 2
#     Edge 40, Type (0, 1), BuildingBlock: UVAHIK_clean_linker_0, # of connection points: 2
#     Edge 41, Type (0, 1), BuildingBlock: UVAHIK_clean_linker_0, # of connection points: 2
#     Edge 42, Type (0, 1), BuildingBlock: UVAHIK_clean_linker_0, # of connection points: 2
#     Edge 43, Type (0, 1), BuildingBlock: UVAHIK_clean_linker_0, # of connection points: 2
#     Edge 44, Type (0, 1), BuildingBlock: UVAHIK_clean_linker_0, # of connection points: 2
#     Edge 45, Type (0, 1), BuildingBlock: UVAHIK_clean_linker_0, # of connection points: 2
#     Edge 46, Type (0, 1), BuildingBlock: UVAHIK_clean_linker_0, # of connection points: 2
#     Edge 47, Type (0, 1), BuildingBlock: UVAHIK_clean_linker_0, # of connection points: 2
#     Edge 48, Type (0, 1), BuildingBlock: UVAHIK_clean_linker_0, # of connection points: 2
#     Edge 49, Type (0, 1), BuildingBlock: UVAHIK_clean_linker_0, # of connection points: 2
#     Edge 50, Type (0, 1), BuildingBlock: UVAHIK_clean_linker_0, # of connection points: 2
#     Edge 51, Type (0, 1), BuildingBlock: UVAHIK_clean_linker_0, # of connection points: 2
#     Edge 52, Type (0, 1), BuildingBlock: UVAHIK_clean_linker_0, # of connection points: 2
#     Edge 53, Type (0, 1), BuildingBlock: UVAHIK_clean_linker_0, # of connection points: 2
#     Edge 54, Type (0, 1), BuildingBlock: UVAHIK_clean_linker_0, # of connection points: 2
#     Edge 55, Type (0, 1), BuildingBlock: UVAHIK_clean_linker_0, # of connection points: 2
#     Edge 56, Type (0, 1), BuildingBlock: UVAHIK_clean_linker_0, # of connection points: 2
#     Edge 57, Type (0, 1), BuildingBlock: UVAHIK_clean_linker_0, # of connection points: 2
#     Edge 58, Type (0, 1), BuildingBlock: UVAHIK_clean_linker_0, # of connection points: 2
#     Edge 59, Type (0, 1), BuildingBlock: UVAHIK_clean_linker_0, # of connection points: 2
#     Edge 60, Type (0, 1), BuildingBlock: UVAHIK_clean_linker_0, # of connection points: 2
#     Edge 61, Type (0, 1), BuildingBlock: UVAHIK_clean_linker_0, # of connection points: 2
#     Edge 62, Type (0, 1), BuildingBlock: UVAHIK_clean_linker_0, # of connection points: 2
#     Edge 63, Type (0, 1), BuildingBlock: UVAHIK_clean_linker_0, # of connection points: 2
#     Edge 64, Type (0, 1), BuildingBlock: UVAHIK_clean_linker_0, # of connection points: 2
#     Edge 65, Type (0, 1), BuildingBlock: UVAHIK_clean_linker_0, # of connection points: 2
#     Edge 66, Type (0, 1), BuildingBlock: UVAHIK_clean_linker_0, # of connection points: 2
#     Edge 67, Type (0, 1), BuildingBlock: UVAHIK_clean_linker_0, # of connection points: 2
#     Edge 68, Type (0, 1), BuildingBlock: UVAHIK_clean_linker_0, # of connection points: 2
#     Edge 69, Type (0, 1), BuildingBlock: UVAHIK_clean_linker_0, # of connection points: 2
#     Edge 70, Type (0, 1), BuildingBlock: UVAHIK_clean_linker_0, # of connection points: 2
#     Edge 71, Type (0, 1), BuildingBlock: UVAHIK_clean_linker_0, # of connection points: 2
#     Edge 72, Type (0, 1), BuildingBlock: UVAHIK_clean_linker_0, # of connection points: 2
#     Edge 73, Type (0, 1), BuildingBlock: UVAHIK_clean_linker_0, # of connection points: 2
#     Edge 74, Type (0, 1), BuildingBlock: UVAHIK_clean_linker_0, # of connection points: 2
#     Edge 75, Type (0, 1), BuildingBlock: UVAHIK_clean_linker_0, # of connection points: 2
#     Edge 76, Type (0, 1), BuildingBlock: UVAHIK_clean_linker_0, # of connection points: 2
#     Edge 77, Type (0, 1), BuildingBlock: UVAHIK_clean_linker_0, # of connection points: 2
#     Edge 78, Type (0, 1), BuildingBlock: UVAHIK_clean_linker_0, # of connection points: 2
#     Edge 79, Type (0, 1), BuildingBlock: UVAHIK_clean_linker_0, # of connection points: 2
#     Edge 80, Type (0, 1), BuildingBlock: UVAHIK_clean_linker_0, # of connection points: 2
# Relax obj value: 0.010
# Max RMSD: 0.098
# Mean RMSD: 0.055
data_MOF--net-eea--node1-KUMBOL_clean_sbu_0--node2-MIDCAF_clean_linker_0--edge1-UVAHIK_clean_linker_0
_symmetry_space_group_name_H-M    P1
_symmetry_Int_Tables_number       1
_symmetry_cell_setting            triclinic
loop_
_symmetry_equiv_pos_as_xyz
'x, y, z'
_cell_length_a     77.595468
_cell_length_b     78.883903
_cell_length_c     106.5963
_cell_angle_alpha  90.212843
_cell_angle_beta   90.272742
_cell_angle_gamma 119.94677
loop_
_atom_site_label
_atom_site_type_symbol
_atom_site_fract_x
_atom_site_fract_y
_atom_site_fract_z
_atom_type_partial_charge
C0 C 0.25851 0.06624 0.4124 0.0
C1 C 0.24196 0.05752 0.40423 0.0
C2 C 0.23102 0.06711 0.40221 0.0
C3 C 0.23653 0.08495 0.4081 0.0
H4 H 0.23243 0.13402 0.40361 0.0
H5 H 0.22198 0.1554 0.39422 0.0
H6 H 0.25842 0.20096 0.42086 0.0
H7 H 0.26852 0.17928 0.43056 0.0
H8 H 0.28574 0.16694 0.45438 0.0
H9 H 0.30032 0.17312 0.4754 0.0
H10 H 0.29806 0.11732 0.47449 0.0
H11 H 0.28335 0.11096 0.45361 0.0
H12 H 0.27659 0.09023 0.42473 0.0
H13 H 0.26755 0.05954 0.41403 0.0
H14 H 0.21793 0.06072 0.39623 0.0
H15 H 0.2277 0.09186 0.40637 0.0
N16 N 0.2529 0.12454 0.41773 0.0
N17 N 0.2677 0.14626 0.43464 0.0
N18 N 0.26853 0.11694 0.43381 0.0
C19 C 0.25758 0.14166 0.42355 0.0
C20 C 0.27318 0.13392 0.43985 0.0
C21 C 0.2584 0.11217 0.42275 0.0
C22 C 0.25136 0.15491 0.41786 0.0
C23 C 0.23828 0.14859 0.4075 0.0
C24 C 0.23235 0.16092 0.40204 0.0
C25 C 0.23944 0.17995 0.40673 0.0
C26 C 0.2525 0.1863 0.4171 0.0
C27 C 0.25836 0.1739 0.42263 0.0
C28 C 0.28322 0.13838 0.45229 0.0
C29 C 0.28843 0.15601 0.45862 0.0
C30 C 0.29687 0.15961 0.47065 0.0
C31 C 0.30019 0.14564 0.47663 0.0
C32 C 0.29539 0.12823 0.47021 0.0
C33 C 0.28705 0.12466 0.45818 0.0
C34 C 0.25289 0.09347 0.41637 0.0
C35 C 0.26379 0.08391 0.41849 0.0
C36 C 0.95406 0.17904 0.41593 0.0
C37 C 0.95422 0.18064 0.40281 0.0
C38 C 0.93655 0.1693 0.396 0.0
C39 C 0.91908 0.15625 0.40218 0.0
H40 H 0.87242 0.09854 0.39782 0.0
H41 H 0.84889 0.06817 0.38729 0.0
H42 H 0.81093 0.05101 0.41977 0.0
H43 H 0.83423 0.08147 0.43028 0.0
H44 H 0.84907 0.10608 0.45473 0.0
H45 H 0.8419 0.11212 0.4759 0.0
H46 H 0.89509 0.16893 0.47594 0.0
H47 H 0.90224 0.16307 0.4546 0.0
H48 H 0.93676 0.16532 0.43227 0.0
H49 H 0.96753 0.18773 0.42136 0.0
H50 H 0.93637 0.17028 0.38586 0.0
H51 H 0.90571 0.14751 0.39667 0.0
N52 N 0.88674 0.12406 0.41568 0.0
N53 N 0.86671 0.11413 0.43356 0.0
N54 N 0.89711 0.14365 0.43386 0.0
C55 C 0.86987 0.11074 0.42152 0.0
C56 C 0.88018 0.13055 0.4398 0.0
C57 C 0.90042 0.1405 0.42178 0.0
C58 C 0.85529 0.0925 0.41494 0.0
C59 C 0.85903 0.08837 0.40273 0.0
C60 C 0.8456 0.07089 0.3967 0.0
C61 C 0.82808 0.05716 0.40271 0.0
C62 C 0.82419 0.06139 0.41483 0.0
C63 C 0.83764 0.07883 0.42089 0.0
C64 C 0.87624 0.1341 0.45289 0.0
C65 C 0.85932 0.11987 0.45921 0.0
C66 C 0.85525 0.12327 0.47141 0.0
C67 C 0.86794 0.14099 0.47762 0.0
C68 C 0.88492 0.1552 0.47136 0.0
C69 C 0.88906 0.15178 0.45914 0.0
C70 C 0.91885 0.15464 0.41532 0.0
C71 C 0.93646 0.16632 0.42215 0.0
C72 C 0.82503 0.77711 0.41617 0.0
C73 C 0.82963 0.78775 0.40493 0.0
C74 C 0.84849 0.79435 0.39963 0.0
C75 C 0.86236 0.79041 0.40543 0.0
H76 H 0.91805 0.79572 0.40087 0.0
H77 H 0.94893 0.80304 0.39054 0.0
H78 H 0.96071 0.77193 0.41951 0.0
H79 H 0.93022 0.7651 0.43003 0.0
H80 H 0.90167 0.7484 0.45347 0.0
H81 H 0.89429 0.73388 0.47432 0.0
H82 H 0.84407 0.74312 0.47684 0.0
H83 H 0.85143 0.75775 0.45608 0.0
H84 H 0.83469 0.76496 0.4306 0.0
H85 H 0.81055 0.77144 0.42042 0.0
H86 H 0.85268 0.80279 0.39108 0.0
H87 H 0.87674 0.79579 0.40109 0.0
N88 N 0.88958 0.77964 0.41713 0.0
N89 N 0.89865 0.76719 0.43434 0.0
N90 N 0.86855 0.76739 0.43452 0.0
C91 C 0.90281 0.77547 0.42276 0.0
C92 C 0.88158 0.76316 0.44032 0.0
C93 C 0.87237 0.77559 0.42294 0.0
C94 C 0.92158 0.77983 0.41633 0.0
C95 C 0.92722 0.79044 0.40506 0.0
C96 C 0.94492 0.79456 0.39908 0.0
C97 C 0.95743 0.78814 0.40417 0.0
C98 C 0.9517 0.77745 0.41541 0.0
C99 C 0.93408 0.77341 0.42142 0.0
C100 C 0.87717 0.75428 0.45303 0.0
C101 C 0.88906 0.74738 0.45846 0.0
C102 C 0.88478 0.73895 0.4704 0.0
C103 C 0.8686 0.73735 0.47726 0.0
C104 C 0.85678 0.74433 0.47187 0.0
C105 C 0.86095 0.75261 0.45991 0.0
C106 C 0.85775 0.77985 0.41671 0.0
C107 C 0.83889 0.77327 0.42199 0.0
C108 C 0.04636 0.21241 0.59584 0.0
C109 C 0.04626 0.21454 0.60892 0.0
C110 C 0.06381 0.22007 0.61577 0.0
C111 C 0.08107 0.22312 0.60966 0.0
H112 H 0.1379 0.22645 0.61537 0.0
H113 H 0.16248 0.22054 0.62603 0.0
H114 H 0.17876 0.20639 0.59051 0.0
H115 H 0.15463 0.21272 0.57979 0.0
H116 H 0.14991 0.23812 0.55659 0.0
H117 H 0.15703 0.25093 0.53538 0.0
H118 H 0.10442 0.25651 0.53566 0.0
H119 H 0.09699 0.24328 0.55683 0.0
H120 H 0.06333 0.21418 0.57959 0.0
H121 H 0.03304 0.20827 0.59034 0.0
H122 H 0.06409 0.22176 0.62587 0.0
H123 H 0.09433 0.22723 0.6152 0.0
N124 N 0.11323 0.22151 0.5962 0.0
N125 N 0.13245 0.22937 0.57794 0.0
N126 N 0.10254 0.22997 0.57781 0.0
C127 C 0.12966 0.22381 0.59016 0.0
C128 C 0.11908 0.23266 0.57171 0.0
C129 C 0.0995 0.22438 0.59004 0.0
C130 C 0.14434 0.22008 0.59673 0.0
C131 C 0.14673 0.22208 0.60984 0.0
C132 C 0.16082 0.21878 0.61594 0.0
C133 C 0.17244 0.21297 0.60908 0.0
C134 C 0.1699 0.21076 0.59601 0.0
C135 C 0.15616 0.21448 0.58989 0.0
C136 C 0.12289 0.2397 0.55852 0.0
C137 C 0.13976 0.24198 0.55215 0.0
C138 C 0.14394 0.24946 0.53998 0.0
C139 C 0.13141 0.25492 0.53381 0.0
C140 C 0.11432 0.2523 0.54006 0.0
C141 C 0.11011 0.24478 0.55226 0.0
C142 C 0.08125 0.22117 0.59655 0.0
C143 C 0.06373 0.2159 0.5897 0.0
C144 C 0.7454 0.81065 0.59762 0.0
C145 C 0.76073 0.81808 0.6067 0.0
C146 C 0.77007 0.83809 0.60982 0.0
C147 C 0.76422 0.85029 0.60409 0.0
H148 H 0.76236 0.9005 0.61099 0.0
H149 H 0.77203 0.93207 0.62056 0.0
H150 H 0.74839 0.94733 0.5885 0.0
H151 H 0.73834 0.91561 0.57899 0.0
H152 H 0.72453 0.88837 0.55558 0.0
H153 H 0.71066 0.88139 0.53446 0.0
H154 H 0.69957 0.8222 0.53724 0.0
H155 H 0.71342 0.82905 0.55851 0.0
H156 H 0.72794 0.8168 0.58476 0.0
H157 H 0.73761 0.79528 0.59511 0.0
H158 H 0.78222 0.8445 0.61654 0.0
H159 H 0.77189 0.86565 0.60669 0.0
N160 N 0.74836 0.87365 0.59404 0.0
N161 N 0.73457 0.88139 0.57696 0.0
N162 N 0.73396 0.85136 0.57735 0.0
C163 C 0.74389 0.88631 0.58829 0.0
C164 C 0.72954 0.86396 0.57141 0.0
C165 C 0.74343 0.85616 0.58867 0.0
C166 C 0.74957 0.90546 0.59419 0.0
C167 C 0.75916 0.91053 0.60596 0.0
C168 C 0.76482 0.92869 0.61143 0.0
C169 C 0.76103 0.94223 0.60527 0.0
C170 C 0.75132 0.93713 0.59356 0.0
C171 C 0.74566 0.91896 0.58807 0.0
C172 C 0.7202 0.8593 0.55877 0.0
C173 C 0.71906 0.8738 0.55177 0.0
C174 C 0.71122 0.86987 0.53962 0.0
C175 C 0.70418 0.85131 0.53418 0.0
C176 C 0.70483 0.83662 0.54124 0.0
C177 C 0.71285 0.8406 0.55339 0.0
C178 C 0.74909 0.84292 0.59492 0.0
C179 C 0.73975 0.82297 0.59173 0.0
C180 C 0.17687 0.94194 0.59291 0.0
C181 C 0.17295 0.94668 0.60488 0.0
C182 C 0.15502 0.93356 0.61076 0.0
C183 C 0.14132 0.9161 0.60482 0.0
H184 H 0.08566 0.8683 0.60856 0.0
H185 H 0.05503 0.84549 0.61907 0.0
H186 H 0.04217 0.80275 0.58974 0.0
H187 H 0.07253 0.82573 0.57902 0.0
H188 H 0.09962 0.83862 0.55444 0.0
H189 H 0.10693 0.8322 0.53327 0.0
H190 H 0.16025 0.8889 0.53302 0.0
H191 H 0.15293 0.89549 0.55401 0.0
H192 H 0.16672 0.92142 0.5777 0.0
H193 H 0.19043 0.95185 0.58805 0.0
H194 H 0.15166 0.93669 0.62005 0.0
H195 H 0.12769 0.90634 0.60966 0.0
N196 N 0.11357 0.87991 0.59223 0.0
N197 N 0.10427 0.85892 0.57475 0.0
N198 N 0.1344 0.88866 0.57476 0.0
C199 C 0.10028 0.8629 0.58646 0.0
C200 C 0.12131 0.87177 0.56882 0.0
C201 C 0.1307 0.89286 0.58646 0.0
C202 C 0.08162 0.84891 0.59291 0.0
C203 C 0.07633 0.85405 0.60432 0.0
C204 C 0.05877 0.84091 0.61041 0.0
C205 C 0.04609 0.82225 0.60527 0.0
C206 C 0.05141 0.8171 0.59387 0.0
C207 C 0.06891 0.83027 0.58775 0.0
C208 C 0.12565 0.8676 0.55597 0.0
C209 C 0.11289 0.84974 0.54988 0.0
C210 C 0.11712 0.846 0.53776 0.0
C211 C 0.13412 0.86007 0.53144 0.0
C212 C 0.14687 0.87787 0.53755 0.0
C213 C 0.14271 0.88158 0.54964 0.0
C214 C 0.14522 0.91136 0.59282 0.0
C215 C 0.16318 0.92451 0.58695 0.0
C216 C 0.92312 0.39942 0.74542 0.0
C217 C 0.9064 0.38972 0.73746 0.0
C218 C 0.89445 0.39826 0.73546 0.0
C219 C 0.8991 0.41598 0.74122 0.0
H220 H 0.89936 0.46797 0.73383 0.0
H221 H 0.88849 0.48904 0.72434 0.0
H222 H 0.90895 0.5267 0.75705 0.0
H223 H 0.92029 0.50587 0.7665 0.0
H224 H 0.94505 0.49822 0.78755 0.0
H225 H 0.95991 0.50501 0.8085 0.0
H226 H 0.9593 0.44998 0.80783 0.0
H227 H 0.94434 0.44302 0.78701 0.0
H228 H 0.94044 0.42398 0.75751 0.0
H229 H 0.93295 0.39359 0.74701 0.0
H230 H 0.88121 0.39111 0.72963 0.0
H231 H 0.88948 0.42205 0.73955 0.0
N232 N 0.91384 0.45562 0.75072 0.0
N233 N 0.92728 0.47709 0.76788 0.0
N234 N 0.92981 0.4487 0.76694 0.0
C235 C 0.91751 0.47237 0.75666 0.0
C236 C 0.93346 0.4653 0.77309 0.0
C237 C 0.92 0.44377 0.75577 0.0
C238 C 0.91075 0.48519 0.75095 0.0
C239 C 0.90157 0.48073 0.73905 0.0
C240 C 0.8952 0.49275 0.73361 0.0
C241 C 0.8978 0.50953 0.73995 0.0
C242 C 0.90694 0.514 0.75186 0.0
C243 C 0.91336 0.50199 0.7573 0.0
C244 C 0.94338 0.47001 0.78557 0.0
C245 C 0.94813 0.48757 0.79183 0.0
C246 C 0.95674 0.49153 0.80382 0.0
C247 C 0.96065 0.47797 0.80983 0.0
C248 C 0.95619 0.46058 0.80351 0.0
C249 C 0.94771 0.45667 0.79152 0.0
C250 C 0.91556 0.4254 0.74934 0.0
C251 C 0.92752 0.41694 0.75139 0.0
C252 C 0.61796 0.52012 0.74809 0.0
C253 C 0.62348 0.51461 0.7369 0.0
C254 C 0.61115 0.49563 0.73212 0.0
C255 C 0.59374 0.4825 0.73835 0.0
H256 H 0.54506 0.42677 0.73563 0.0
H257 H 0.52165 0.39538 0.72613 0.0
H258 H 0.47827 0.38683 0.75435 0.0
H259 H 0.50182 0.41784 0.76407 0.0
H260 H 0.51742 0.44218 0.78884 0.0
H261 H 0.51018 0.44919 0.80971 0.0
H262 H 0.5629 0.50631 0.80881 0.0
H263 H 0.57014 0.49945 0.78772 0.0
H264 H 0.59683 0.51178 0.76291 0.0
H265 H 0.62691 0.53472 0.75194 0.0
H266 H 0.61507 0.49078 0.72364 0.0
H267 H 0.58468 0.46799 0.7344 0.0
N268 N 0.5567 0.45663 0.75071 0.0
N269 N 0.53589 0.44844 0.76816 0.0
N270 N 0.5657 0.47845 0.76774 0.0
C271 C 0.53969 0.44378 0.75663 0.0
C272 C 0.54878 0.46568 0.77382 0.0
C273 C 0.56977 0.47402 0.75617 0.0
C274 C 0.52538 0.42485 0.75065 0.0
C275 C 0.53053 0.41821 0.73981 0.0
C276 C 0.51704 0.40023 0.73432 0.0
C277 C 0.49805 0.38852 0.73948 0.0
C278 C 0.49288 0.39527 0.75025 0.0
C279 C 0.50639 0.41315 0.75579 0.0
C280 C 0.54442 0.47023 0.78654 0.0
C281 C 0.52753 0.45627 0.79302 0.0
C282 C 0.52341 0.46023 0.80506 0.0
C283 C 0.53603 0.47825 0.81096 0.0
C284 C 0.55282 0.49232 0.80448 0.0
C285 C 0.55701 0.48834 0.79241 0.0
C286 C 0.58826 0.48799 0.74956 0.0
C287 C 0.6006 0.50696 0.75435 0.0
C288 C 0.50067 0.12093 0.75504 0.0
C289 C 0.49857 0.11982 0.74192 0.0
C290 C 0.51059 0.11483 0.7348 0.0
C291 C 0.52457 0.11116 0.74068 0.0
H292 H 0.58542 0.12596 0.73745 0.0
H293 H 0.61532 0.13191 0.72638 0.0
H294 H 0.62711 0.10011 0.7548 0.0
H295 H 0.59714 0.09403 0.76591 0.0
H296 H 0.57127 0.08196 0.79101 0.0
H297 H 0.5638 0.06717 0.81174 0.0
H298 H 0.51352 0.07637 0.81433 0.0
H299 H 0.52066 0.09071 0.79352 0.0
H300 H 0.51548 0.11761 0.77109 0.0
H301 H 0.49151 0.12467 0.76074 0.0
H302 H 0.50929 0.11394 0.72466 0.0
H303 H 0.53363 0.10738 0.73492 0.0
N304 N 0.55738 0.11026 0.75387 0.0
N305 N 0.56701 0.0987 0.77127 0.0
N306 N 0.53767 0.1004 0.77194 0.0
C307 C 0.57059 0.10601 0.75942 0.0
C308 C 0.55058 0.09584 0.77761 0.0
C309 C 0.54091 0.10752 0.76006 0.0
C310 C 0.58878 0.10949 0.75261 0.0
C311 C 0.59432 0.12017 0.74137 0.0
C312 C 0.61156 0.12371 0.73504 0.0
C313 C 0.62362 0.11651 0.73971 0.0
C314 C 0.61804 0.10571 0.75089 0.0
C315 C 0.6009 0.10232 0.7573 0.0
C316 C 0.54654 0.08749 0.79049 0.0
C317 C 0.55864 0.08089 0.796 0.0
C318 C 0.55442 0.07249 0.80795 0.0
C319 C 0.538 0.07047 0.81475 0.0
C320 C 0.52608 0.07734 0.80931 0.0
C321 C 0.53027 0.08569 0.79736 0.0
C322 C 0.52648 0.11195 0.75383 0.0
C323 C 0.51432 0.11681 0.76095 0.0
C324 C 0.71748 0.5577 0.92776 0.0
C325 C 0.71162 0.54715 0.93903 0.0
C326 C 0.72341 0.53979 0.94396 0.0
C327 C 0.74076 0.54313 0.93785 0.0
H328 H 0.7906 0.53645 0.94189 0.0
H329 H 0.81436 0.52898 0.9519 0.0
H330 H 0.8566 0.55983 0.9225 0.0
H331 H 0.83279 0.56677 0.91235 0.0
H332 H 0.81858 0.5774 0.88793 0.0
H333 H 0.82658 0.59217 0.86729 0.0
H334 H 0.77377 0.5974 0.86785 0.0
H335 H 0.76544 0.58217 0.88847 0.0
H336 H 0.73872 0.56915 0.91296 0.0
H337 H 0.7086 0.56336 0.92362 0.0
H338 H 0.7194 0.53173 0.95267 0.0
H339 H 0.74953 0.53735 0.94198 0.0
N340 N 0.77817 0.55302 0.9258 0.0
N341 N 0.79933 0.56499 0.90846 0.0
N342 N 0.76958 0.56583 0.90856 0.0
C343 C 0.79531 0.55675 0.92003 0.0
C344 C 0.78658 0.56955 0.90263 0.0
C345 C 0.76523 0.55755 0.92014 0.0
C346 C 0.80968 0.55217 0.92627 0.0
C347 C 0.80494 0.54161 0.93755 0.0
C348 C 0.81863 0.5374 0.94333 0.0
C349 C 0.83742 0.54371 0.938 0.0
C350 C 0.84215 0.55436 0.92677 0.0
C351 C 0.82848 0.55846 0.92097 0.0
C352 C 0.79135 0.57857 0.88995 0.0
C353 C 0.80861 0.58166 0.8837 0.0
C354 C 0.81329 0.59027 0.87185 0.0
C355 C 0.80089 0.59609 0.86589 0.0
C356 C 0.78356 0.59291 0.87208 0.0
C357 C 0.77884 0.58426 0.88396 0.0
C358 C 0.74667 0.55376 0.92659 0.0
C359 C 0.73472 0.56091 0.9216 0.0
C360 C 0.41209 0.14457 0.93209 0.0
C361 C 0.41996 0.14887 0.94434 0.0
C362 C 0.42208 0.16562 0.95044 0.0
C363 C 0.41685 0.17805 0.94432 0.0
H364 H 0.43067 0.23542 0.94469 0.0
H365 H 0.44139 0.26747 0.95377 0.0
H366 H 0.40521 0.2767 0.92675 0.0
H367 H 0.39501 0.24486 0.91736 0.0
H368 H 0.38392 0.21895 0.89232 0.0
H369 H 0.36982 0.21155 0.87127 0.0
H370 H 0.36452 0.15443 0.8731 0.0
H371 H 0.37907 0.16194 0.8941 0.0
H372 H 0.40094 0.1533 0.9165 0.0
H373 H 0.41009 0.13164 0.9272 0.0
H374 H 0.42829 0.16943 0.95983 0.0
H375 H 0.41897 0.19098 0.94927 0.0
N376 N 0.4097 0.20529 0.93059 0.0
N377 N 0.39703 0.21341 0.91308 0.0
N378 N 0.3958 0.18311 0.91382 0.0
C379 C 0.40594 0.21822 0.92455 0.0
C380 C 0.39192 0.1959 0.90764 0.0
C381 C 0.40464 0.18769 0.92534 0.0
C382 C 0.41198 0.23754 0.93028 0.0
C383 C 0.42494 0.24424 0.94069 0.0
C384 C 0.43102 0.26262 0.94595 0.0
C385 C 0.42415 0.2747 0.94102 0.0
C386 C 0.41105 0.26793 0.93066 0.0
C387 C 0.4051 0.2496 0.92532 0.0
C388 C 0.3827 0.19107 0.89495 0.0
C389 C 0.37972 0.20477 0.88829 0.0
C390 C 0.37151 0.20049 0.87622 0.0
C391 C 0.36601 0.18239 0.8705 0.0
C392 C 0.36883 0.16861 0.87718 0.0
C393 C 0.37707 0.1729 0.88926 0.0
C394 C 0.4093 0.17397 0.93198 0.0
C395 C 0.40676 0.15695 0.92598 0.0
C396 C 0.84767 0.27364 0.92636 0.0
C397 C 0.84174 0.28076 0.9366 0.0
C398 C 0.82217 0.26955 0.94101 0.0
C399 C 0.80891 0.25164 0.93537 0.0
H400 H 0.75492 0.20242 0.9405 0.0
H401 H 0.72414 0.18004 0.95108 0.0
H402 H 0.71214 0.13565 0.92313 0.0
H403 H 0.74306 0.1579 0.91256 0.0
H404 H 0.77097 0.16941 0.88844 0.0
H405 H 0.77944 0.16135 0.86811 0.0
H406 H 0.83375 0.21726 0.86783 0.0
H407 H 0.82562 0.22518 0.88817 0.0
H408 H 0.83952 0.25077 0.91282 0.0
H409 H 0.86271 0.2817 0.92283 0.0
H410 H 0.81697 0.27471 0.94874 0.0
H411 H 0.79394 0.24344 0.93901 0.0
N412 N 0.78334 0.21307 0.92472 0.0
N413 N 0.77516 0.19069 0.9081 0.0
N414 N 0.80526 0.22047 0.90793 0.0
C415 C 0.77046 0.19558 0.91931 0.0
C416 C 0.79254 0.2031 0.90233 0.0
C417 C 0.80079 0.22558 0.9191 0.0
C418 C 0.75154 0.18199 0.92566 0.0
C419 C 0.74577 0.18789 0.93658 0.0
C420 C 0.72805 0.17511 0.94262 0.0
C421 C 0.71572 0.15608 0.93795 0.0
C422 C 0.72145 0.15015 0.92705 0.0
C423 C 0.73913 0.16297 0.92094 0.0
C424 C 0.7976 0.19795 0.89 0.0
C425 C 0.78476 0.17997 0.88407 0.0
C426 C 0.78955 0.17538 0.87238 0.0
C427 C 0.80729 0.18864 0.86635 0.0
C428 C 0.82012 0.20657 0.87229 0.0
C429 C 0.81536 0.21116 0.88396 0.0
C430 C 0.81484 0.24457 0.92511 0.0
C431 C 0.83437 0.25581 0.92065 0.0
C432 C 0.58517 0.73202 0.08127 0.0
C433 C 0.57288 0.72526 0.07054 0.0
C434 C 0.56586 0.73707 0.06535 0.0
C435 C 0.57098 0.75515 0.07075 0.0
H436 H 0.57426 0.80695 0.06268 0.0
H437 H 0.56587 0.82856 0.05143 0.0
H438 H 0.58323 0.86705 0.08369 0.0
H439 H 0.59208 0.84557 0.09497 0.0
H440 H 0.61301 0.83636 0.1185 0.0
H441 H 0.62617 0.843 0.13995 0.0
H442 H 0.6204 0.7857 0.14142 0.0
H443 H 0.60714 0.77892 0.1202 0.0
H444 H 0.59964 0.75476 0.09499 0.0
H445 H 0.59112 0.72347 0.0854 0.0
H446 H 0.55609 0.7322 0.05723 0.0
H447 H 0.56515 0.76375 0.06654 0.0
N448 N 0.58423 0.79356 0.0813 0.0
N449 N 0.59656 0.8153 0.0984 0.0
N450 N 0.59623 0.78541 0.0991 0.0
C451 C 0.58844 0.81086 0.08667 0.0
C452 C 0.6005 0.80261 0.10468 0.0
C453 C 0.5881 0.78078 0.08742 0.0
C454 C 0.5838 0.82444 0.07979 0.0
C455 C 0.57635 0.82001 0.06743 0.0
C456 C 0.57141 0.83236 0.06097 0.0
C457 C 0.57373 0.84945 0.06669 0.0
C458 C 0.58143 0.85407 0.07898 0.0
C459 C 0.58641 0.8417 0.08547 0.0
C460 C 0.60893 0.80707 0.11759 0.0
C461 C 0.61454 0.82517 0.1234 0.0
C462 C 0.62217 0.82903 0.13566 0.0
C463 C 0.62419 0.81482 0.14239 0.0
C464 C 0.61872 0.79683 0.13656 0.0
C465 C 0.61122 0.79301 0.12432 0.0
C466 C 0.58309 0.76181 0.08154 0.0
C467 C 0.59015 0.75004 0.08673 0.0
C468 C 0.28119 0.85668 0.0768 0.0
C469 C 0.28837 0.84988 0.06706 0.0
C470 C 0.27826 0.82982 0.06412 0.0
C471 C 0.26124 0.81683 0.07072 0.0
H472 H 0.21258 0.76122 0.06834 0.0
H473 H 0.18957 0.72937 0.05927 0.0
H474 H 0.14612 0.72095 0.0874 0.0
H475 H 0.16932 0.75246 0.09673 0.0
H476 H 0.18686 0.77757 0.12178 0.0
H477 H 0.18025 0.78525 0.14266 0.0
H478 H 0.22829 0.84474 0.13891 0.0
H479 H 0.23495 0.83717 0.11784 0.0
H480 H 0.2592 0.84933 0.09102 0.0
H481 H 0.28881 0.87206 0.07932 0.0
H482 H 0.28339 0.82421 0.0566 0.0
H483 H 0.25379 0.80147 0.06817 0.0
N484 N 0.2234 0.79175 0.08257 0.0
N485 N 0.20308 0.78397 0.10024 0.0
N486 N 0.23208 0.81462 0.09897 0.0
C487 C 0.20681 0.77886 0.08883 0.0
C488 C 0.21563 0.80176 0.10541 0.0
C489 C 0.23607 0.80968 0.08754 0.0
C490 C 0.19284 0.75945 0.08328 0.0
C491 C 0.19813 0.75258 0.07261 0.0
C492 C 0.18487 0.73433 0.06736 0.0
C493 C 0.16594 0.72256 0.07258 0.0
C494 C 0.16067 0.72945 0.08325 0.0
C495 C 0.17398 0.74762 0.08856 0.0
C496 C 0.21149 0.80674 0.11808 0.0
C497 C 0.19605 0.79234 0.12533 0.0
C498 C 0.19231 0.79668 0.13737 0.0
C499 C 0.20382 0.81556 0.14246 0.0
C500 C 0.2191 0.83008 0.1352 0.0
C501 C 0.22296 0.82569 0.12315 0.0
C502 C 0.2541 0.82357 0.08054 0.0
C503 C 0.26432 0.84364 0.08354 0.0
C504 C 0.16798 0.4566 0.08454 0.0
C505 C 0.16538 0.45439 0.07148 0.0
C506 C 0.17681 0.4484 0.06458 0.0
C507 C 0.19079 0.4449 0.07064 0.0
H508 H 0.24312 0.43986 0.0651 0.0
H509 H 0.27351 0.44589 0.05438 0.0
H510 H 0.30443 0.45874 0.08993 0.0
H511 H 0.27398 0.45224 0.10074 0.0
H512 H 0.23995 0.42229 0.12321 0.0
H513 H 0.23215 0.40823 0.14415 0.0
H514 H 0.17964 0.41396 0.14466 0.0
H515 H 0.18713 0.42763 0.12367 0.0
H516 H 0.18317 0.45439 0.10073 0.0
H517 H 0.15926 0.46111 0.09006 0.0
H518 H 0.17509 0.44665 0.05449 0.0
H519 H 0.19947 0.44039 0.06508 0.0
N520 N 0.22422 0.4453 0.08421 0.0
N521 N 0.23468 0.43627 0.10245 0.0
N522 N 0.20484 0.43701 0.1024 0.0
C523 C 0.23784 0.44219 0.09029 0.0
C524 C 0.21811 0.43348 0.10856 0.0
C525 C 0.20777 0.4429 0.09025 0.0
C526 C 0.25613 0.44555 0.08377 0.0
C527 C 0.25638 0.44392 0.07064 0.0
C528 C 0.27372 0.44729 0.0645 0.0
C529 C 0.29127 0.45282 0.07134 0.0
C530 C 0.29109 0.45458 0.08445 0.0
C531 C 0.27364 0.45076 0.09062 0.0
C532 C 0.21413 0.42602 0.12165 0.0
C533 C 0.22678 0.42066 0.12779 0.0
C534 C 0.22236 0.41266 0.13985 0.0
C535 C 0.20519 0.40983 0.14609 0.0
C536 C 0.19279 0.41559 0.14006 0.0
C537 C 0.19718 0.42356 0.12802 0.0
C538 C 0.19322 0.44686 0.08375 0.0
C539 C 0.18158 0.45265 0.09063 0.0
C540 C 0.38129 0.88857 0.25819 0.0
C541 C 0.37545 0.8781 0.26951 0.0
C542 C 0.38764 0.87133 0.27464 0.0
C543 C 0.40518 0.87498 0.26865 0.0
H544 H 0.45545 0.8695 0.27335 0.0
H545 H 0.47922 0.86219 0.28352 0.0
H546 H 0.52119 0.89197 0.25382 0.0
H547 H 0.4974 0.89878 0.24351 0.0
H548 H 0.48451 0.91118 0.2197 0.0
H549 H 0.49243 0.925 0.19881 0.0
H550 H 0.4367 0.92478 0.19715 0.0
H551 H 0.4285 0.91056 0.2181 0.0
H552 H 0.40274 0.90032 0.2435 0.0
H553 H 0.37251 0.89433 0.25404 0.0
H554 H 0.38353 0.86297 0.28323 0.0
H555 H 0.41411 0.86947 0.27289 0.0
N556 N 0.44274 0.88522 0.25682 0.0
N557 N 0.46396 0.89695 0.23951 0.0
N558 N 0.43396 0.89734 0.23929 0.0
C559 C 0.45997 0.88901 0.25115 0.0
C560 C 0.45108 0.90113 0.23347 0.0
C561 C 0.42966 0.88938 0.25097 0.0
C562 C 0.4744 0.88467 0.25755 0.0
C563 C 0.46974 0.87447 0.26897 0.0
C564 C 0.48342 0.87035 0.27485 0.0
C565 C 0.50213 0.87638 0.26948 0.0
C566 C 0.50681 0.88672 0.25812 0.0
C567 C 0.49314 0.89075 0.25223 0.0
C568 C 0.45583 0.90973 0.22067 0.0
C569 C 0.47387 0.91404 0.21494 0.0
C570 C 0.4785 0.92211 0.20294 0.0
C571 C 0.46526 0.92611 0.19629 0.0
C572 C 0.44717 0.92172 0.20196 0.0
C573 C 0.44252 0.91367 0.21401 0.0
C574 C 0.41097 0.88541 0.25732 0.0
C575 C 0.39875 0.89212 0.25216 0.0
C576 C 0.08719 0.48024 0.26197 0.0
C577 C 0.10118 0.48719 0.27185 0.0
C578 C 0.10885 0.50657 0.27605 0.0
C579 C 0.10254 0.51863 0.27061 0.0
H580 H 0.11203 0.57591 0.27098 0.0
H581 H 0.12131 0.60735 0.28055 0.0
H582 H 0.06824 0.60436 0.26498 0.0
H583 H 0.05972 0.57347 0.25478 0.0
H584 H 0.05366 0.55348 0.22543 0.0
H585 H 0.03864 0.5467 0.20465 0.0
H586 H 0.03791 0.49162 0.20369 0.0
H587 H 0.05287 0.49824 0.22463 0.0
H588 H 0.07007 0.4865 0.24893 0.0
H589 H 0.08076 0.46531 0.25861 0.0
H590 H 0.11992 0.51255 0.28347 0.0
H591 H 0.10881 0.53348 0.27411 0.0
N592 N 0.08624 0.54169 0.26085 0.0
N593 N 0.06948 0.54831 0.24499 0.0
N594 N 0.07118 0.51946 0.2442 0.0
C595 C 0.08005 0.55357 0.25588 0.0
C596 C 0.06506 0.53134 0.23904 0.0
C597 C 0.08175 0.52454 0.25513 0.0
C598 C 0.08519 0.57228 0.2621 0.0
C599 C 0.10235 0.58199 0.26963 0.0
C600 C 0.10759 0.59999 0.27519 0.0
C601 C 0.09555 0.60853 0.27359 0.0
C602 C 0.07815 0.59855 0.26622 0.0
C603 C 0.07316 0.58074 0.26044 0.0
C604 C 0.05464 0.52647 0.22672 0.0
C605 C 0.05023 0.53984 0.22088 0.0
C606 C 0.0417 0.53602 0.20891 0.0
C607 C 0.03728 0.51872 0.20249 0.0
C608 C 0.04109 0.50505 0.20844 0.0
C609 C 0.04974 0.5089 0.22042 0.0
C610 C 0.08851 0.51169 0.26076 0.0
C611 C 0.08098 0.49238 0.25645 0.0
C612 C 0.50864 0.60578 0.26074 0.0
C613 C 0.50308 0.61274 0.27124 0.0
C614 C 0.48371 0.60139 0.27595 0.0
C615 C 0.47029 0.58349 0.27034 0.0
H616 H 0.41701 0.53325 0.27616 0.0
H617 H 0.38757 0.50986 0.28755 0.0
H618 H 0.37579 0.46586 0.25936 0.0
H619 H 0.40535 0.48914 0.24797 0.0
H620 H 0.43151 0.50192 0.22279 0.0
H621 H 0.43877 0.4951 0.20169 0.0
H622 H 0.49105 0.55252 0.20064 0.0
H623 H 0.4838 0.55949 0.22152 0.0
H624 H 0.50004 0.58309 0.24702 0.0
H625 H 0.52352 0.61392 0.25698 0.0
H626 H 0.47878 0.60642 0.28389 0.0
H627 H 0.45548 0.57518 0.2742 0.0
N628 N 0.44478 0.54472 0.25978 0.0
N629 N 0.43589 0.52287 0.24277 0.0
N630 N 0.46546 0.55311 0.24225 0.0
C631 C 0.43184 0.52725 0.25437 0.0
C632 C 0.45266 0.53579 0.23663 0.0
C633 C 0.46166 0.5577 0.2538 0.0
C634 C 0.41363 0.5131 0.26114 0.0
C635 C 0.40818 0.5186 0.27236 0.0
C636 C 0.39122 0.50524 0.27887 0.0
C637 C 0.37939 0.48602 0.27437 0.0
C638 C 0.38476 0.48051 0.26314 0.0
C639 C 0.40164 0.49391 0.25657 0.0
C640 C 0.45702 0.53129 0.22389 0.0
C641 C 0.44455 0.51311 0.21806 0.0
C642 C 0.44875 0.50915 0.20599 0.0
C643 C 0.46542 0.52331 0.19946 0.0
C644 C 0.47791 0.54141 0.20532 0.0
C645 C 0.47379 0.54534 0.21736 0.0
C646 C 0.47585 0.57662 0.25981 0.0
C647 C 0.49517 0.588 0.25506 0.0
Gd648 Gd 0.51433 0.01472 0.01615 0.0
Gd649 Gd 0.48946 0.98642 0.9872 0.0
C650 C 0.43081 0.97746 0.97078 0.0
C651 C 0.40648 0.94709 0.98052 0.0
C652 C 0.4418 0.96064 0.9848 0.0
C653 C 0.44612 0.97633 0.97722 0.0
C654 C 0.42195 0.94545 0.98621 0.0
C655 C 0.41091 0.96309 0.97281 0.0
C656 C 0.43604 0.99246 0.96208 0.0
C657 C 0.45609 0.00515 0.9595 0.0
N658 N 0.4655 0.98967 0.97534 0.0
C659 C 0.47069 0.0032 0.96601 0.0
H660 H 0.48615 0.01285 0.96383 0.0
C661 C 0.45379 0.94275 0.99584 0.0
N662 N 0.45716 0.95951 0.99 0.0
C663 C 0.43439 0.92722 0.99743 0.0
C664 C 0.41835 0.92875 0.99285 0.0
H665 H 0.46598 0.94134 0.99952 0.0
H666 H 0.39891 0.96382 0.96808 0.0
H667 H 0.56009 0.02151 0.01143 0.0
H668 H 0.42474 0.99386 0.95694 0.0
H669 H 0.46032 0.01635 0.95244 0.0
H670 H 0.39113 0.93572 0.98165 0.0
H671 H 0.48962 0.03496 0.02964 0.0
H672 H 0.60159 0.08289 0.01059 0.0
H673 H 0.59434 0.04866 0.00896 0.0
H674 H 0.56202 0.11148 0.02211 0.0
H675 H 0.43182 0.91416 0.00232 0.0
H676 H 0.40334 0.91676 0.99415 0.0
H677 H 0.58929 0.10628 0.01523 0.0
H678 H 0.49459 0.06769 0.03423 0.0
N679 N 0.5477 0.04 0.01415 0.0
C680 C 0.58647 0.071 0.0117 0.0
C681 C 0.58244 0.05171 0.01081 0.0
C682 C 0.57103 0.07468 0.01445 0.0
C683 C 0.55161 0.05864 0.01578 0.0
C684 C 0.56292 0.03632 0.01219 0.0
N685 N 0.51832 0.0456 0.02165 0.0
C686 C 0.53638 0.06156 0.01965 0.0
C687 C 0.50644 0.0662 0.03003 0.0
C688 C 0.52457 0.08279 0.02728 0.0
C689 C 0.50368 0.04762 0.02739 0.0
C690 C 0.53999 0.0806 0.02228 0.0
H691 H 0.52672 0.09716 0.02942 0.0
O692 O 0.50224 0.0031 0.03461 0.0
O693 O 0.48821 0.98812 0.00788 0.0
O694 O 0.47972 0.00875 0.99076 0.0
O695 O 0.5039 0.03202 0.0046 0.0
O696 O 0.4825 0.00361 0.02146 0.0
O697 O 0.5327 0.01223 0.03069 0.0
O698 O 0.48702 0.96072 0.97786 0.0
O699 O 0.51794 0.00833 0.9964 0.0
O700 O 0.52616 0.99505 0.00989 0.0
O701 O 0.49891 0.96959 1.00013 0.0
O702 O 0.51228 0.01473 0.97851 0.0
O703 O 0.50544 0.98908 0.96989 0.0
C704 C 0.47462 0.98892 0.01388 0.0
C705 C 0.55901 0.09673 0.02028 0.0
C706 C 0.57453 0.09377 0.01637 0.0
C707 C 0.51908 0.00632 0.03923 0.0
C708 C 0.52494 0.01672 0.05137 0.0
C709 C 0.53664 0.03719 0.05181 0.0
C710 C 0.51857 0.00616 0.06263 0.0
C711 C 0.52401 0.01597 0.07431 0.0
C712 C 0.542 0.04699 0.06333 0.0
C713 C 0.53577 0.03651 0.0745 0.0
C714 C 0.48897 0.02611 0.99644 0.0
C715 C 0.52462 0.0209 0.98778 0.0
C716 C 0.49692 0.97035 0.96806 0.0
C717 C 0.48751 0.96285 0.95558 0.0
C718 C 0.47224 0.9433 0.95422 0.0
C719 C 0.49364 0.97507 0.94493 0.0
C720 C 0.48437 0.96793 0.93315 0.0
C721 C 0.46311 0.93615 0.9426 0.0
C722 C 0.46907 0.94831 0.93215 0.0
C723 C 0.51562 0.97641 0.00667 0.0
H724 H 0.54165 0.04559 0.04326 0.0
H725 H 0.50961 0.99035 0.06227 0.0
H726 H 0.55098 0.06278 0.0636 0.0
H727 H 0.53997 0.04453 0.0833 0.0
H728 H 0.46728 0.93349 0.96216 0.0
H729 H 0.50537 0.99019 0.94584 0.0
H730 H 0.45137 0.92106 0.94167 0.0
H731 H 0.46186 0.94223 0.92322 0.0
Gd732 Gd 0.98426 0.49612 0.01873 0.0
Gd733 Gd 0.02021 0.50616 0.9928 0.0
C734 C 0.07341 0.49693 0.99873 0.0
C735 C 0.10128 0.5301 0.99733 0.0
C736 C 0.06739 0.52371 0.99474 0.0
C737 C 0.06016 0.50406 0.99678 0.0
C738 C 0.08806 0.53688 0.99453 0.0
C739 C 0.09396 0.51014 0.99943 0.0
C740 C 0.06567 0.47671 0.99939 0.0
C741 C 0.04531 0.46416 0.99765 0.0
N742 N 0.04024 0.49173 0.99586 0.0
C743 C 0.03277 0.47193 0.99574 0.0
H744 H 0.01708 0.46196 0.9945 0.0
C745 C 0.06074 0.54795 0.98716 0.0
N746 N 0.05423 0.52961 0.99174 0.0
C747 C 0.08108 0.56166 0.98694 0.0
C748 C 0.0948 0.55621 0.99088 0.0
H749 H 0.05012 0.55217 0.98409 0.0
H750 H 0.10433 0.50497 0.00112 0.0
H751 H 0.98781 0.54044 0.01625 0.0
H752 H 0.07534 0.47065 1.00085 0.0
H753 H 0.03921 0.44847 0.99786 0.0
H754 H 0.1172 0.54004 0.99739 0.0
H755 H 0.95421 0.45023 0.02754 0.0
H756 H 0.92965 0.53205 0.00994 0.0
H757 H 0.9659 0.55408 0.01253 0.0
H758 H 0.88734 0.46288 0.01455 0.0
H759 H 0.08614 0.57639 0.9837 0.0
H760 H 0.11056 0.56678 0.99059 0.0
H761 H 0.90042 0.49788 0.01042 0.0
H762 H 0.91813 0.42629 0.02825 0.0
N763 N 0.96442 0.51072 0.01546 0.0
C764 C 0.93922 0.52592 0.01159 0.0
C765 C 0.95966 0.5384 0.01308 0.0
C766 C 0.93132 0.50572 0.01266 0.0
C767 C 0.94446 0.4985 0.01473 0.0
C768 C 0.97207 0.53053 0.0152 0.0
N769 N 0.9502 0.47286 0.01988 0.0
C770 C 0.93711 0.47887 0.01693 0.0
C771 C 0.92326 0.44099 0.02494 0.0
C772 C 0.90959 0.44655 0.02106 0.0
C773 C 0.94363 0.45454 0.02454 0.0
C774 C 0.91642 0.46584 0.01729 0.0
H775 H 0.89381 0.43608 0.02148 0.0
O776 O 0.98296 0.48506 0.03754 0.0
O777 O 0.01215 0.49744 0.01262 0.0
O778 O 0.99492 0.47459 0.99248 0.0
O779 O 0.96846 0.47152 0.00475 0.0
O780 O 0.99385 0.47427 0.02397 0.0
O781 O 0.98868 0.51464 0.03492 0.0
O782 O 0.02137 0.51726 0.97402 0.0
O783 O 0.99226 0.50474 0.99888 0.0
O784 O 0.0097 0.52765 0.01921 0.0
O785 O 0.03601 0.53063 0.00682 0.0
O786 O 0.01059 0.52796 0.98758 0.0
O787 O 0.01573 0.4877 0.97656 0.0
C788 C 0.01064 0.48273 0.01822 0.0
C789 C 0.90328 0.47271 0.01449 0.0
C790 C 0.91073 0.49264 0.01216 0.0
C791 C 0.98521 0.50087 0.04295 0.0
C792 C 0.97119 0.49796 0.05304 0.0
C793 C 0.95197 0.49442 0.05034 0.0
C794 C 0.97709 0.49857 0.06557 0.0
C795 C 0.96386 0.49556 0.07543 0.0
C796 C 0.93871 0.49128 0.06003 0.0
C797 C 0.94454 0.49179 0.0725 0.0
C798 C 0.97614 0.46497 0.99622 0.0
C799 C 0.9937 0.5194 0.99322 0.0
C800 C 0.01903 0.50145 0.96857 0.0
C801 C 0.03279 0.50433 0.95833 0.0
C802 C 0.05229 0.50852 0.9608 0.0
C803 C 0.02631 0.50303 0.94588 0.0
C804 C 0.03924 0.50599 0.93584 0.0
C805 C 0.06524 0.51155 0.95093 0.0
C806 C 0.05882 0.51033 0.93852 0.0
C807 C 0.02843 0.53722 0.01537 0.0
H808 H 0.94723 0.49413 0.04078 0.0
H809 H 0.99211 0.50171 0.0676 0.0
H810 H 0.92384 0.48843 0.05787 0.0
H811 H 0.93388 0.48909 0.07984 0.0
H812 H 0.05749 0.50943 0.97032 0.0
H813 H 0.0111 0.49942 0.94405 0.0
H814 H 0.08031 0.51488 0.95289 0.0
H815 H 0.06923 0.51297 0.93104 0.0
Gd816 Gd 0.48982 0.50605 0.99174 0.0
Gd817 Gd 0.51347 0.49575 0.01896 0.0
C818 C 0.57622 0.50457 0.01567 0.0
C819 C 0.57019 0.47146 0.01825 0.0
C820 C 0.54279 0.47806 0.01926 0.0
C821 C 0.55569 0.4976 0.01704 0.0
C822 C 0.54996 0.46486 0.02036 0.0
C823 C 0.5833 0.4913 0.01588 0.0
C824 C 0.58908 0.52472 0.01457 0.0
C825 C 0.58147 0.53739 0.0154 0.0
N826 N 0.54832 0.50999 0.01706 0.0
C827 C 0.56099 0.52977 0.01685 0.0
H828 H 0.55544 0.53984 0.01739 0.0
C829 C 0.51092 0.45408 0.02602 0.0
N830 N 0.52346 0.47231 0.02145 0.0
C831 C 0.51725 0.44037 0.02718 0.0
C832 C 0.53677 0.44567 0.02409 0.0
H833 H 0.4958 0.44996 0.02838 0.0
H834 H 0.59898 0.49633 0.01466 0.0
H835 H 0.44804 0.46172 0.99265 0.0
H836 H 0.60494 0.53066 0.01344 0.0
H837 H 0.59134 0.55305 0.01486 0.0
H838 H 0.57595 0.46149 0.01887 0.0
H839 H 0.50702 0.55195 0.98266 0.0
H840 H 0.3982 0.47023 0.9971 0.0
H841 H 0.41207 0.44814 0.99505 0.0
H842 H 0.42671 0.53954 0.99288 0.0
H843 H 0.50708 0.42574 0.03044 0.0
H844 H 0.54169 0.43507 0.02506 0.0
H845 H 0.4039 0.5045 0.99663 0.0
H846 H 0.49547 0.57603 0.98114 0.0
N847 N 0.45494 0.49148 0.9936 0.0
C848 C 0.41409 0.47634 0.99602 0.0
C849 C 0.42186 0.46383 0.99482 0.0
C850 C 0.42685 0.49656 0.99531 0.0
C851 C 0.44742 0.50374 0.99395 0.0
C852 C 0.44238 0.47167 0.99346 0.0
N853 N 0.47952 0.52932 0.98962 0.0
C854 C 0.46019 0.52337 0.99193 0.0
C855 C 0.48542 0.5613 0.9843 0.0
C856 C 0.4659 0.55579 0.98754 0.0
C857 C 0.4919 0.54767 0.98515 0.0
C858 C 0.45285 0.53647 0.99111 0.0
H859 H 0.46085 0.56631 0.98678 0.0
O860 O 0.50153 0.51722 0.97324 0.0
O861 O 0.5159 0.50453 0.99897 0.0
O862 O 0.52047 0.52736 0.01882 0.0
O863 O 0.49794 0.53053 0.00563 0.0
O864 O 0.52187 0.52812 0.98772 0.0
O865 O 0.47692 0.48769 0.97525 0.0
O866 O 0.50167 0.48502 0.03751 0.0
O867 O 0.48747 0.49721 0.01165 0.0
O868 O 0.48307 0.4745 0.99181 0.0
O869 O 0.5053 0.47113 0.00518 0.0
O870 O 0.48131 0.47378 0.02304 0.0
O871 O 0.52661 0.51434 0.03533 0.0
C872 C 0.52969 0.51945 0.99375 0.0
C873 C 0.4326 0.52966 0.99329 0.0
C874 C 0.41961 0.50971 0.99541 0.0
C875 C 0.48835 0.50141 0.96749 0.0
C876 C 0.47858 0.50426 0.95653 0.0
C877 C 0.46303 0.5083 0.95793 0.0
C878 C 0.48503 0.503 0.94448 0.0
C879 C 0.47606 0.50576 0.93376 0.0
C880 C 0.45409 0.51113 0.94737 0.0
C881 C 0.46052 0.50989 0.93535 0.0
C882 C 0.51175 0.53702 0.01456 0.0
C883 C 0.47358 0.48239 0.01686 0.0
C884 C 0.51503 0.50084 0.04317 0.0
C885 C 0.52465 0.49797 0.05421 0.0
C886 C 0.54026 0.494 0.05293 0.0
C887 C 0.51798 0.49913 0.06621 0.0
C888 C 0.5268 0.49636 0.07699 0.0
C889 C 0.54906 0.49114 0.06356 0.0
C890 C 0.54241 0.4923 0.07552 0.0
C891 C 0.49162 0.46473 0.99616 0.0
H892 H 0.4578 0.50923 0.96714 0.0
H893 H 0.49685 0.49956 0.94347 0.0
H894 H 0.44213 0.51432 0.9485 0.0
H895 H 0.45346 0.51234 0.92732 0.0
H896 H 0.54566 0.49315 0.04376 0.0
H897 H 0.5061 0.50252 0.06713 0.0
H898 H 0.56106 0.48801 0.06253 0.0
H899 H 0.54936 0.48985 0.08361 0.0
Gd900 Gd 0.1787 0.34753 0.35404 0.0
Gd901 Gd 0.15763 0.31658 0.32524 0.0
C902 C 0.09342 0.26577 0.32502 0.0
C903 C 0.09801 0.23764 0.3226 0.0
C904 C 0.12659 0.27055 0.3231 0.0
C905 C 0.11423 0.27822 0.32474 0.0
C906 C 0.11862 0.25022 0.32156 0.0
C907 C 0.08542 0.2454 0.32436 0.0
C908 C 0.08127 0.27418 0.32547 0.0
C909 C 0.08993 0.29449 0.32504 0.0
N910 N 0.12251 0.29795 0.32516 0.0
C911 C 0.11066 0.30621 0.32471 0.0
H912 H 0.11702 0.32186 0.32448 0.0
C913 C 0.15875 0.27664 0.31801 0.0
N914 N 0.14633 0.28316 0.32193 0.0
C915 C 0.15163 0.25659 0.31645 0.0
C916 C 0.13152 0.24328 0.31847 0.0
H917 H 0.17432 0.28692 0.3165 0.0
H918 H 0.06949 0.23559 0.32473 0.0
H919 H 0.21982 0.34314 0.35435 0.0
H920 H 0.06522 0.26514 0.32574 0.0
H921 H 0.08067 0.30116 0.32505 0.0
H922 H 0.09161 0.22195 0.32161 0.0
H923 H 0.16101 0.3762 0.36311 0.0
H924 H 0.27093 0.40039 0.3538 0.0
H925 H 0.25611 0.36441 0.35382 0.0
H926 H 0.2433 0.44237 0.35905 0.0
H927 H 0.16164 0.25144 0.31372 0.0
H928 H 0.12601 0.22777 0.31719 0.0
H929 H 0.26598 0.42947 0.3555 0.0
H930 H 0.17307 0.41142 0.36663 0.0
N931 N 0.21377 0.36669 0.3542 0.0
C932 C 0.25491 0.39109 0.35402 0.0
C933 C 0.24661 0.37081 0.35408 0.0
C934 C 0.24246 0.39914 0.35477 0.0
C935 C 0.22169 0.38637 0.35495 0.0
C936 C 0.22592 0.35876 0.35438 0.0
N937 N 0.18932 0.3807 0.35778 0.0
C938 C 0.20902 0.39362 0.3568 0.0
C939 C 0.18333 0.40664 0.36377 0.0
C940 C 0.2034 0.4203 0.36197 0.0
C941 C 0.17656 0.38674 0.36181 0.0
C942 C 0.21661 0.41383 0.35869 0.0
H943 H 0.20863 0.4357 0.36354 0.0
O944 O 0.16481 0.34538 0.37209 0.0
O945 O 0.15307 0.32207 0.345 0.0
O946 O 0.1523 0.34241 0.32563 0.0
O947 O 0.17398 0.36625 0.34002 0.0
O948 O 0.14651 0.33927 0.3564 0.0
O949 O 0.18856 0.3387 0.37058 0.0
O950 O 0.17126 0.31793 0.3072 0.0
O951 O 0.18337 0.34209 0.33422 0.0
O952 O 0.18452 0.32205 0.35354 0.0
O953 O 0.16269 0.29811 0.33926 0.0
O954 O 0.18966 0.32455 0.3229 0.0
O955 O 0.14811 0.32547 0.30857 0.0
C956 C 0.13898 0.32365 0.34955 0.0
C957 C 0.23718 0.42676 0.35779 0.0
C958 C 0.25009 0.41941 0.35579 0.0
C959 C 0.1764 0.34058 0.37807 0.0
C960 C 0.18482 0.3507 0.39006 0.0
C961 C 0.19909 0.37065 0.39037 0.0
C962 C 0.17864 0.34019 0.40133 0.0
C963 C 0.18668 0.34951 0.41294 0.0
C964 C 0.20705 0.38003 0.40182 0.0
C965 C 0.20093 0.36959 0.41302 0.0
C966 C 0.16144 0.36044 0.33035 0.0
C967 C 0.19734 0.34027 0.32966 0.0
C968 C 0.15995 0.32299 0.30113 0.0
C969 C 0.1512 0.31261 0.28927 0.0
C970 C 0.13673 0.29273 0.28918 0.0
C971 C 0.15728 0.32284 0.27789 0.0
C972 C 0.14894 0.31328 0.26639 0.0
C973 C 0.12847 0.28311 0.27784 0.0
C974 C 0.1345 0.29326 0.26652 0.0
C975 C 0.1754 0.30403 0.34884 0.0
H976 H 0.2041 0.37894 0.3818 0.0
H977 H 0.16782 0.32469 0.40101 0.0
H978 H 0.21801 0.39546 0.40201 0.0
H979 H 0.2072 0.37731 0.42177 0.0
H980 H 0.1318 0.28466 0.29784 0.0
H981 H 0.16825 0.33829 0.27804 0.0
H982 H 0.11735 0.26773 0.27781 0.0
H983 H 0.12799 0.28536 0.25786 0.0
Gd984 Gd 0.64913 0.82997 0.35069 0.0
Gd985 Gd 0.6846 0.83833 0.32486 0.0
C986 C 0.73943 0.83181 0.33009 0.0
C987 C 0.76635 0.8654 0.32817 0.0
C988 C 0.73195 0.85767 0.3261 0.0
C989 C 0.72552 0.83814 0.32824 0.0
C990 C 0.75244 0.87146 0.32574 0.0
C991 C 0.75985 0.8456 0.33035 0.0
C992 C 0.73242 0.81176 0.33129 0.0
C993 C 0.71206 0.79856 0.33024 0.0
N994 N 0.70569 0.8252 0.32785 0.0
C995 C 0.69885 0.80555 0.32835 0.0
H996 H 0.68316 0.79516 0.32762 0.0
C997 C 0.72378 0.88155 0.31985 0.0
N998 N 0.71814 0.86297 0.32366 0.0
C999 C 0.74393 0.8958 0.31944 0.0
C1000 C 0.75833 0.8908 0.32256 0.0
H1001 H 0.71266 0.88546 0.31749 0.0
H1002 H 0.77074 0.84105 0.33191 0.0
H1003 H 0.65069 0.87314 0.34676 0.0
H1004 H 0.74261 0.80631 0.33278 0.0
H1005 H 0.7065 0.783 0.33094 0.0
H1006 H 0.78216 0.87581 0.32806 0.0
H1007 H 0.62098 0.78468 0.36114 0.0
H1008 H 0.59142 0.86213 0.34114 0.0
H1009 H 0.62759 0.88531 0.34274 0.0
H1010 H 0.55149 0.79329 0.34847 0.0
H1011 H 0.74833 0.91062 0.31673 0.0
H1012 H 0.77393 0.90185 0.32219 0.0
H1013 H 0.56309 0.82761 0.34299 0.0
H1014 H 0.5853 0.75996 0.363 0.0
N1015 N 0.62806 0.84312 0.34711 0.0
C1016 C 0.60153 0.85666 0.34292 0.0
C1017 C 0.62191 0.86978 0.34385 0.0
C1018 C 0.59438 0.8367 0.34474 0.0
C1019 C 0.6082 0.83035 0.34695 0.0
C1020 C 0.635 0.86276 0.34615 0.0
N1021 N 0.61548 0.80606 0.35296 0.0
C1022 C 0.60169 0.81112 0.34994 0.0
C1023 C 0.58969 0.77425 0.35921 0.0
C1024 C 0.57527 0.77881 0.35534 0.0
C1025 C 0.60985 0.78826 0.35816 0.0
C1026 C 0.58118 0.7976 0.3509 0.0
H1027 H 0.55966 0.76799 0.35623 0.0
O1028 O 0.64999 0.82154 0.36995 0.0
O1029 O 0.67657 0.83028 0.34471 0.0
O1030 O 0.65951 0.80663 0.32537 0.0
O1031 O 0.63307 0.80468 0.3372 0.0
O1032 O 0.65855 0.80829 0.35682 0.0
O1033 O 0.65421 0.85026 0.36596 0.0
O1034 O 0.68533 0.84843 0.30586 0.0
O1035 O 0.65671 0.83731 0.33065 0.0
O1036 O 0.67396 0.86174 0.34921 0.0
O1037 O 0.70075 0.8614 0.33966 0.0
O1038 O 0.67503 0.85996 0.31899 0.0
O1039 O 0.68044 0.8192 0.30908 0.0
C1040 C 0.67506 0.81592 0.35076 0.0
C1041 C 0.56732 0.80353 0.34795 0.0
C1042 C 0.57392 0.82306 0.34485 0.0
C1043 C 0.65194 0.83768 0.3746 0.0
C1044 C 0.63855 0.83537 0.38496 0.0
C1045 C 0.61935 0.83222 0.38267 0.0
C1046 C 0.64492 0.83577 0.39733 0.0
C1047 C 0.63221 0.83294 0.40745 0.0
C1048 C 0.60661 0.82933 0.39266 0.0
C1049 C 0.61294 0.82963 0.40499 0.0
C1050 C 0.64066 0.79747 0.32905 0.0
C1051 C 0.65814 0.85167 0.32463 0.0
C1052 C 0.68326 0.83246 0.30079 0.0
C1053 C 0.6968 0.83514 0.29044 0.0
C1054 C 0.71604 0.83844 0.29273 0.0
C1055 C 0.69037 0.83464 0.27806 0.0
C1056 C 0.70305 0.83746 0.26791 0.0
C1057 C 0.72875 0.84129 0.28273 0.0
C1058 C 0.72235 0.84082 0.27039 0.0
C1059 C 0.69323 0.8698 0.34682 0.0
H1060 H 0.6142 0.83195 0.3732 0.0
H1061 H 0.65969 0.83798 0.39905 0.0
H1062 H 0.5918 0.82689 0.39083 0.0
H1063 H 0.60289 0.82755 0.4126 0.0
H1064 H 0.72124 0.83882 0.30219 0.0
H1065 H 0.67536 0.83179 0.27636 0.0
H1066 H 0.74362 0.84391 0.28455 0.0
H1067 H 0.73256 0.84328 0.26281 0.0
Gd1068 Gd 0.1551 0.83905 0.32366 0.0
Gd1069 Gd 0.17873 0.8286 0.35063 0.0
C1070 C 0.23932 0.8324 0.34807 0.0
C1071 C 0.2306 0.79845 0.35072 0.0
C1072 C 0.20498 0.80761 0.35135 0.0
C1073 C 0.21909 0.82688 0.34922 0.0
C1074 C 0.21062 0.79323 0.35247 0.0
C1075 C 0.24493 0.81801 0.3485 0.0
C1076 C 0.25336 0.85227 0.34691 0.0
C1077 C 0.24715 0.86609 0.34742 0.0
N1078 N 0.21315 0.8404 0.34901 0.0
C1079 C 0.22692 0.85989 0.34867 0.0
H1080 H 0.22238 0.87076 0.34899 0.0
C1081 C 0.17189 0.78487 0.35691 0.0
N1082 N 0.18589 0.80315 0.35309 0.0
C1083 C 0.17673 0.77008 0.35813 0.0
C1084 C 0.19612 0.7742 0.35571 0.0
H1085 H 0.15685 0.78158 0.3587 0.0
H1086 H 0.26037 0.82193 0.34749 0.0
H1087 H 0.11154 0.7968 0.32535 0.0
H1088 H 0.26904 0.85712 0.34595 0.0
H1089 H 0.25793 0.88153 0.34679 0.0
H1090 H 0.2352 0.78758 0.3514 0.0
H1091 H 0.17681 0.886 0.31549 0.0
H1092 H 0.06471 0.81023 0.32826 0.0
H1093 H 0.07595 0.78591 0.3275 0.0
H1094 H 0.09832 0.87973 0.32267 0.0
H1095 H 0.1655 0.75552 0.36088 0.0
H1096 H 0.19985 0.76274 0.35668 0.0
H1097 H 0.07325 0.84537 0.32663 0.0
H1098 H 0.16803 0.91195 0.31319 0.0
N1099 N 0.12065 0.82714 0.32527 0.0
C1100 C 0.0804 0.81513 0.32731 0.0
C1101 C 0.08668 0.80136 0.32686 0.0
C1102 C 0.09439 0.83501 0.32613 0.0
C1103 C 0.11465 0.8406 0.32502 0.0
C1104 C 0.10694 0.80763 0.32563 0.0
N1105 N 0.14782 0.86441 0.32115 0.0
C1106 C 0.1287 0.85988 0.32287 0.0
C1107 C 0.15684 0.89739 0.31599 0.0
C1108 C 0.13743 0.89322 0.31839 0.0
C1109 C 0.16176 0.88267 0.31728 0.0
C1110 C 0.12299 0.87419 0.32168 0.0
H1111 H 0.13364 0.90463 0.31737 0.0
O1112 O 0.16677 0.84848 0.30493 0.0
O1113 O 0.18115 0.83742 0.33072 0.0
O1114 O 0.18732 0.86067 0.34947 0.0
O1115 O 0.16227 0.86239 0.33827 0.0
O1116 O 0.18722 0.8606 0.31916 0.0
O1117 O 0.14072 0.81997 0.30764 0.0
O1118 O 0.16735 0.81914 0.36942 0.0
O1119 O 0.15269 0.83021 0.34356 0.0
O1120 O 0.14661 0.80695 0.32474 0.0
O1121 O 0.17176 0.80545 0.33596 0.0
O1122 O 0.14658 0.80709 0.35516 0.0
O1123 O 0.19298 0.84789 0.36657 0.0
C1124 C 0.195 0.85204 0.32533 0.0
C1125 C 0.10298 0.86891 0.3234 0.0
C1126 C 0.08871 0.84934 0.32565 0.0
C1127 C 0.15265 0.83279 0.29956 0.0
C1128 C 0.14342 0.83597 0.28843 0.0
C1129 C 0.12808 0.84036 0.28954 0.0
C1130 C 0.1505 0.83506 0.27651 0.0
C1131 C 0.14238 0.83856 0.26565 0.0
C1132 C 0.11995 0.84388 0.27882 0.0
C1133 C 0.12705 0.84304 0.26694 0.0
C1134 C 0.17733 0.86966 0.34638 0.0
C1135 C 0.13881 0.81563 0.34896 0.0
C1136 C 0.18131 0.83502 0.37472 0.0
C1137 C 0.19089 0.83223 0.3858 0.0
C1138 C 0.20598 0.8275 0.3846 0.0
C1139 C 0.18462 0.83414 0.39778 0.0
C1140 C 0.19333 0.83133 0.40862 0.0
C1141 C 0.21469 0.82466 0.39528 0.0
C1142 C 0.20844 0.82655 0.40722 0.0
C1143 C 0.15669 0.79805 0.32788 0.0
H1144 H 0.12243 0.84111 0.29865 0.0
H1145 H 0.16256 0.83192 0.27572 0.0
H1146 H 0.10809 0.84726 0.27973 0.0
H1147 H 0.12036 0.84562 0.25877 0.0
H1148 H 0.21101 0.82599 0.37545 0.0
H1149 H 0.17313 0.83806 0.39864 0.0
H1150 H 0.22629 0.82094 0.39431 0.0
H1151 H 0.21528 0.82404 0.41535 0.0
Gd1152 Gd 0.84707 0.6833 0.68557 0.0
Gd1153 Gd 0.82404 0.65112 0.65759 0.0
C1154 C 0.76148 0.59781 0.65786 0.0
C1155 C 0.76825 0.57097 0.656 0.0
C1156 C 0.79544 0.60464 0.65609 0.0
C1157 C 0.78208 0.61123 0.65745 0.0
C1158 C 0.78868 0.58445 0.65505 0.0
C1159 C 0.75467 0.57764 0.65742 0.0
C1160 C 0.74833 0.60508 0.65839 0.0
C1161 C 0.75582 0.62525 0.65806 0.0
N1162 N 0.78919 0.63081 0.6578 0.0
C1163 C 0.77638 0.63796 0.65758 0.0
H1164 H 0.78189 0.6535 0.65739 0.0
C1165 C 0.82855 0.61241 0.65221 0.0
N1166 N 0.81502 0.61807 0.65513 0.0
C1167 C 0.8226 0.59255 0.65116 0.0
C1168 C 0.80261 0.57848 0.65275 0.0
H1169 H 0.84405 0.62323 0.65107 0.0
H1170 H 0.73891 0.5671 0.65786 0.0
H1171 H 0.88946 0.68146 0.68452 0.0
H1172 H 0.73241 0.59527 0.65878 0.0
H1173 H 0.74577 0.63103 0.65823 0.0
H1174 H 0.76277 0.55538 0.65535 0.0
H1175 H 0.82728 0.71041 0.69443 0.0
H1176 H 0.93856 0.7399 0.68334 0.0
H1177 H 0.92547 0.70417 0.68324 0.0
H1178 H 0.90791 0.77906 0.68961 0.0
H1179 H 0.83344 0.5881 0.64916 0.0
H1180 H 0.79802 0.56311 0.65189 0.0
H1181 H 0.93183 0.76782 0.68555 0.0
H1182 H 0.83774 0.74526 0.6978 0.0
N1183 N 0.88189 0.70395 0.68493 0.0
C1184 C 0.92267 0.72997 0.6839 0.0
C1185 C 0.91535 0.70982 0.68387 0.0
C1186 C 0.90944 0.73705 0.68509 0.0
C1187 C 0.88889 0.72348 0.68568 0.0
C1188 C 0.89484 0.69696 0.68461 0.0
N1189 N 0.85606 0.71616 0.68909 0.0
C1190 C 0.87551 0.7298 0.68786 0.0
C1191 C 0.84851 0.74113 0.69492 0.0
C1192 C 0.86831 0.75546 0.69301 0.0
C1193 C 0.84264 0.72141 0.69303 0.0
C1194 C 0.88218 0.74986 0.68963 0.0
H1195 H 0.87284 0.77073 0.6945 0.0
O1196 O 0.83459 0.68084 0.70415 0.0
O1197 O 0.82069 0.65756 0.67737 0.0
O1198 O 0.81727 0.67601 0.65865 0.0
O1199 O 0.84149 0.70108 0.67125 0.0
O1200 O 0.81509 0.67488 0.68926 0.0
O1201 O 0.85883 0.67508 0.70149 0.0
O1202 O 0.83675 0.65252 0.63926 0.0
O1203 O 0.85027 0.67724 0.66564 0.0
O1204 O 0.85414 0.65863 0.68402 0.0
O1205 O 0.82825 0.63343 0.67258 0.0
O1206 O 0.85606 0.65964 0.65411 0.0
O1207 O 0.81251 0.65849 0.64116 0.0
C1208 C 0.807 0.65924 0.68245 0.0
C1209 C 0.90251 0.76356 0.68843 0.0
C1210 C 0.91612 0.75716 0.68612 0.0
C1211 C 0.84712 0.6767 0.70954 0.0
C1212 C 0.85642 0.68734 0.72124 0.0
C1213 C 0.87144 0.70703 0.72101 0.0
C1214 C 0.85014 0.67768 0.73279 0.0
C1215 C 0.85882 0.6876 0.74415 0.0
C1216 C 0.88007 0.71698 0.73219 0.0
C1217 C 0.87383 0.7074 0.74368 0.0
C1218 C 0.82736 0.69453 0.66248 0.0
C1219 C 0.86403 0.67564 0.66058 0.0
C1220 C 0.82442 0.65654 0.63346 0.0
C1221 C 0.81552 0.64562 0.62178 0.0
C1222 C 0.80126 0.62567 0.62202 0.0
C1223 C 0.82173 0.65523 0.61021 0.0
C1224 C 0.81389 0.64496 0.59885 0.0
C1225 C 0.79335 0.6154 0.61081 0.0
C1226 C 0.79962 0.62492 0.5993 0.0
C1227 C 0.84306 0.63992 0.68082 0.0
H1228 H 0.87646 0.71467 0.71221 0.0
H1229 H 0.8387 0.66239 0.7329 0.0
H1230 H 0.8916 0.73221 0.73196 0.0
H1231 H 0.88062 0.71559 0.75221 0.0
H1232 H 0.7963 0.61805 0.63084 0.0
H1233 H 0.83293 0.67062 0.61006 0.0
H1234 H 0.78232 0.6 0.61105 0.0
H1235 H 0.79314 0.61664 0.59075 0.0
Gd1236 Gd 0.31827 0.16062 0.68599 0.0
Gd1237 Gd 0.3548 0.17148 0.6604 0.0
C1238 C 0.40973 0.16526 0.66696 0.0
C1239 C 0.4366 0.19892 0.66537 0.0
C1240 C 0.40225 0.19093 0.66248 0.0
C1241 C 0.39584 0.17151 0.66476 0.0
C1242 C 0.42274 0.20479 0.66231 0.0
C1243 C 0.4301 0.17916 0.6677 0.0
C1244 C 0.40282 0.1452 0.66781 0.0
C1245 C 0.38263 0.13195 0.66594 0.0
N1246 N 0.37609 0.15853 0.66375 0.0
C1247 C 0.36945 0.13889 0.66376 0.0
H1248 H 0.3539 0.12841 0.66242 0.0
C1249 C 0.39422 0.21404 0.65454 0.0
N1250 N 0.38848 0.19591 0.65924 0.0
C1251 C 0.41435 0.22841 0.65435 0.0
C1252 C 0.42867 0.22387 0.65849 0.0
H1253 H 0.38315 0.21757 0.65134 0.0
H1254 H 0.44097 0.17467 0.66958 0.0
H1255 H 0.3183 0.20325 0.68511 0.0
H1256 H 0.413 0.13979 0.66949 0.0
H1257 H 0.37718 0.11637 0.66626 0.0
H1258 H 0.4524 0.20939 0.66547 0.0
H1259 H 0.29089 0.11276 0.69168 0.0
H1260 H 0.25861 0.19088 0.67905 0.0
H1261 H 0.29432 0.21475 0.68222 0.0
H1262 H 0.22061 0.1209 0.68066 0.0
H1263 H 0.41879 0.24295 0.651 0.0
H1264 H 0.44426 0.23496 0.65823 0.0
H1265 H 0.23122 0.15577 0.6782 0.0
H1266 H 0.25548 0.08682 0.69123 0.0
N1267 N 0.29652 0.17308 0.68336 0.0
C1268 C 0.26907 0.18572 0.68034 0.0
C1269 C 0.28921 0.19923 0.68216 0.0
C1270 C 0.26261 0.1657 0.6806 0.0
C1271 C 0.27686 0.15976 0.68228 0.0
C1272 C 0.30278 0.19262 0.6838 0.0
N1273 N 0.28494 0.13523 0.68617 0.0
C1274 C 0.27087 0.14019 0.68371 0.0
C1275 C 0.25961 0.10176 0.68905 0.0
C1276 C 0.245 0.10647 0.68591 0.0
C1277 C 0.27961 0.11646 0.68933 0.0
C1278 C 0.25051 0.12594 0.68342 0.0
H1279 H 0.22951 0.09508 0.68576 0.0
O1280 O 0.31638 0.14905 0.7047 0.0
O1281 O 0.34665 0.16259 0.68023 0.0
O1282 O 0.33016 0.13946 0.66083 0.0
O1283 O 0.30296 0.13906 0.67032 0.0
O1284 O 0.32819 0.13898 0.69117 0.0
O1285 O 0.32185 0.17865 0.7023 0.0
O1286 O 0.35536 0.18158 0.6414 0.0
O1287 O 0.32711 0.17039 0.66651 0.0
O1288 O 0.34278 0.1926 0.68645 0.0
O1289 O 0.36973 0.19606 0.67448 0.0
O1290 O 0.34476 0.19296 0.65471 0.0
O1291 O 0.35015 0.1523 0.64454 0.0
C1292 C 0.34523 0.14786 0.68575 0.0
C1293 C 0.23632 0.13165 0.68106 0.0
C1294 C 0.24236 0.15151 0.67965 0.0
C1295 C 0.31832 0.16471 0.7102 0.0
C1296 C 0.30409 0.16144 0.72023 0.0
C1297 C 0.28472 0.15738 0.71745 0.0
C1298 C 0.30998 0.16226 0.73277 0.0
C1299 C 0.29661 0.15899 0.74258 0.0
C1300 C 0.27134 0.15408 0.72711 0.0
C1301 C 0.2772 0.15485 0.7396 0.0
C1302 C 0.31077 0.13122 0.66292 0.0
C1303 C 0.32827 0.18486 0.6608 0.0
C1304 C 0.35323 0.16564 0.63627 0.0
C1305 C 0.36712 0.16836 0.62614 0.0
C1306 C 0.38655 0.17248 0.6288 0.0
C1307 C 0.36091 0.1671 0.61363 0.0
C1308 C 0.37403 0.17002 0.60372 0.0
C1309 C 0.39967 0.17543 0.61905 0.0
C1310 C 0.39352 0.17425 0.60659 0.0
C1311 C 0.36162 0.20246 0.68281 0.0
H1312 H 0.27993 0.15676 0.70787 0.0
H1313 H 0.32508 0.16569 0.73486 0.0
H1314 H 0.25638 0.15087 0.7249 0.0
H1315 H 0.26646 0.152 0.74692 0.0
H1316 H 0.39157 0.17342 0.63837 0.0
H1317 H 0.34576 0.16361 0.61165 0.0
H1318 H 0.41469 0.17871 0.62116 0.0
H1319 H 0.40408 0.17686 0.5992 0.0
Gd1320 Gd 0.82171 0.17171 0.6581 0.0
Gd1321 Gd 0.84506 0.15962 0.68452 0.0
C1322 C 0.90542 0.16314 0.68118 0.0
C1323 C 0.89625 0.12884 0.6816 0.0
C1324 C 0.87088 0.1382 0.68342 0.0
C1325 C 0.8852 0.15766 0.6823 0.0
C1326 C 0.87626 0.12357 0.68338 0.0
C1327 C 0.91081 0.1486 0.68049 0.0
C1328 C 0.91966 0.18306 0.68118 0.0
C1329 C 0.91362 0.1969 0.68275 0.0
N1330 N 0.87946 0.1713 0.6831 0.0
C1331 C 0.89337 0.19072 0.68384 0.0
H1332 H 0.88894 0.2016 0.68495 0.0
C1333 C 0.83751 0.11495 0.68806 0.0
N1334 N 0.85178 0.13368 0.68527 0.0
C1335 C 0.84207 0.0999 0.68804 0.0
C1336 C 0.86149 0.10418 0.68552 0.0
H1337 H 0.82244 0.11156 0.68991 0.0
H1338 H 0.92624 0.15252 0.67946 0.0
H1339 H 0.77771 0.12993 0.65933 0.0
H1340 H 0.93535 0.18789 0.6803 0.0
H1341 H 0.92454 0.21234 0.68302 0.0
H1342 H 0.90066 0.1178 0.6814 0.0
H1343 H 0.84436 0.2191 0.65085 0.0
H1344 H 0.73158 0.14431 0.66244 0.0
H1345 H 0.74224 0.11956 0.66136 0.0
H1346 H 0.76641 0.21404 0.65793 0.0
H1347 H 0.83062 0.08501 0.68993 0.0
H1348 H 0.86501 0.0925 0.68555 0.0
H1349 H 0.74079 0.17968 0.66133 0.0
H1350 H 0.83628 0.24558 0.64907 0.0
N1351 N 0.78736 0.16038 0.65966 0.0
C1352 C 0.74723 0.14898 0.66156 0.0
C1353 C 0.75318 0.13497 0.66092 0.0
C1354 C 0.76151 0.16882 0.66067 0.0
C1355 C 0.78169 0.1741 0.65961 0.0
C1356 C 0.77338 0.14095 0.65977 0.0
N1357 N 0.81506 0.19758 0.65607 0.0
C1358 C 0.79603 0.19335 0.65775 0.0
C1359 C 0.82483 0.23097 0.65158 0.0
C1360 C 0.80548 0.22705 0.6539 0.0
C1361 C 0.82934 0.21593 0.65257 0.0
C1362 C 0.79071 0.20798 0.65683 0.0
H1363 H 0.802 0.2387 0.65309 0.0
O1364 O 0.83318 0.18154 0.63938 0.0
O1365 O 0.84772 0.16997 0.665 0.0
O1366 O 0.85372 0.19181 0.68437 0.0
O1367 O 0.82902 0.19433 0.67323 0.0
O1368 O 0.85395 0.19334 0.65364 0.0
O1369 O 0.80758 0.1527 0.64202 0.0
O1370 O 0.83389 0.14825 0.70304 0.0
O1371 O 0.81919 0.16186 0.67781 0.0
O1372 O 0.81262 0.13945 0.65882 0.0
O1373 O 0.83877 0.13822 0.66877 0.0
O1374 O 0.81281 0.13818 0.68893 0.0
O1375 O 0.8589 0.17766 0.70101 0.0
C1376 C 0.86166 0.18475 0.65983 0.0
C1377 C 0.77077 0.20298 0.65847 0.0
C1378 C 0.75619 0.18342 0.6604 0.0
C1379 C 0.81931 0.16572 0.63397 0.0
C1380 C 0.80981 0.16861 0.62289 0.0
C1381 C 0.79482 0.17349 0.62406 0.0
C1382 C 0.81607 0.16663 0.61092 0.0
C1383 C 0.80745 0.16951 0.60007 0.0
C1384 C 0.78617 0.17635 0.61336 0.0
C1385 C 0.7924 0.17438 0.60143 0.0
C1386 C 0.84397 0.20113 0.68141 0.0
C1387 C 0.80522 0.14717 0.68307 0.0
C1388 C 0.84753 0.16387 0.70878 0.0
C1389 C 0.85746 0.16054 0.71945 0.0
C1390 C 0.87201 0.15522 0.71761 0.0
C1391 C 0.85206 0.16247 0.73168 0.0
C1392 C 0.86107 0.15908 0.74213 0.0
C1393 C 0.88105 0.15184 0.7279 0.0
C1394 C 0.87565 0.15373 0.74009 0.0
C1395 C 0.82318 0.13077 0.66113 0.0
H1396 H 0.78983 0.17507 0.63321 0.0
H1397 H 0.82749 0.16262 0.61009 0.0
H1398 H 0.77463 0.18016 0.61431 0.0
H1399 H 0.78562 0.17692 0.59329 0.0
H1400 H 0.87635 0.15366 0.70826 0.0
H1401 H 0.84097 0.16684 0.73303 0.0
H1402 H 0.89224 0.14767 0.72643 0.0
H1403 H 0.8827 0.15077 0.74791 0.0
C1404 C 0.30865 0.88118 0.05535 0.0
C1405 C 0.30646 0.86361 0.06005 0.0
C1406 C 0.32573 0.89411 0.04875 0.0
C1407 C 0.37003 0.89741 0.03267 0.0
H1408 H 0.3918 0.95311 0.03794 0.0
C1409 C 0.45139 0.95617 0.02237 0.0
C1410 C 0.45436 0.97288 0.01594 0.0
C1411 C 0.43233 0.94217 0.02621 0.0
C1412 C 0.38575 0.9376 0.03625 0.0
H1413 H 0.32046 0.84585 0.06166 0.0
H1414 H 0.35053 0.86863 0.05055 0.0
H1415 H 0.3606 0.93005 0.04785 0.0
H1416 H 0.44037 0.98889 0.0091 0.0
H1417 H 0.40682 0.96431 0.0158 0.0
H1418 H 0.39584 0.90518 0.02149 0.0
C1419 C 0.33887 0.87225 0.05158 0.0
C1420 C 0.36781 0.92434 0.0419 0.0
C1421 C 0.32167 0.85921 0.05802 0.0
C1422 C 0.43818 0.97573 0.01368 0.0
C1423 C 0.41912 0.9618 0.01759 0.0
C1424 C 0.38813 0.91069 0.02716 0.0
C1425 C 0.34116 0.8899 0.04685 0.0
C1426 C 0.35977 0.90404 0.04028 0.0
C1427 C 0.41605 0.94495 0.02397 0.0
C1428 C 0.39622 0.93089 0.029 0.0
H1429 H 0.29702 0.8848 0.05665 0.0
H1430 H 0.32674 0.90734 0.04507 0.0
H1431 H 0.36414 0.88194 0.03096 0.0
H1432 H 0.46388 0.95415 0.02462 0.0
H1433 H 0.43043 0.9295 0.0313 0.0
C1434 C 0.13553 0.44376 0.0576 0.0
C1435 C 0.15064 0.45822 0.06512 0.0
C1436 C 0.12108 0.44705 0.05206 0.0
C1437 C 0.09983 0.4805 0.05406 0.0
H1438 H 0.07432 0.45475 0.02278 0.0
C1439 C 0.04603 0.49719 0.02538 0.0
C1440 C 0.02749 0.48064 0.02273 0.0
C1441 C 0.06162 0.49507 0.03026 0.0
C1442 C 0.08135 0.46203 0.03152 0.0
H1443 H 0.16298 0.48765 0.07244 0.0
H1444 H 0.13852 0.49391 0.06229 0.0
H1445 H 0.10105 0.45045 0.0314 0.0
H1446 H 0.01032 0.44905 0.02358 0.0
H1447 H 0.03784 0.44528 0.03173 0.0
H1448 H 0.08043 0.49258 0.05382 0.0
C1449 C 0.13716 0.47968 0.06101 0.0
C1450 C 0.09658 0.45945 0.03655 0.0
C1451 C 0.15134 0.4762 0.06677 0.0
C1452 C 0.02462 0.46199 0.02533 0.0
C1453 C 0.04032 0.45984 0.02995 0.0
C1454 C 0.08492 0.4834 0.04887 0.0
C1455 C 0.12163 0.46507 0.05368 0.0
C1456 C 0.10592 0.46847 0.04799 0.0
C1457 C 0.05895 0.47636 0.03248 0.0
C1458 C 0.0754 0.47402 0.03763 0.0
H1459 H 0.13459 0.4297 0.05628 0.0
H1460 H 0.10923 0.43524 0.04674 0.0
H1461 H 0.10623 0.4874 0.06299 0.0
H1462 H 0.04844 0.51176 0.02376 0.0
H1463 H 0.07584 0.50802 0.03217 0.0
C1464 C 0.56573 0.70331 0.05176 0.0
C1465 C 0.56721 0.70591 0.06486 0.0
C1466 C 0.55997 0.68503 0.04643 0.0
C1467 C 0.53462 0.63222 0.05408 0.0
H1468 H 0.55858 0.62872 0.02305 0.0
C1469 C 0.52235 0.55914 0.03325 0.0
C1470 C 0.51792 0.55623 0.02036 0.0
C1471 C 0.52835 0.57733 0.03881 0.0
C1472 C 0.55167 0.6295 0.03167 0.0
H1473 H 0.56375 0.69118 0.08261 0.0
H1474 H 0.55447 0.65953 0.07331 0.0
H1475 H 0.56952 0.66066 0.03259 0.0
H1476 H 0.51708 0.57022 0.00314 0.0
H1477 H 0.52736 0.60194 0.01282 0.0
H1478 H 0.517 0.60096 0.0532 0.0
C1479 C 0.55738 0.67155 0.06715 0.0
C1480 C 0.55788 0.6478 0.03713 0.0
C1481 C 0.563 0.6898 0.07249 0.0
C1482 C 0.51983 0.57187 0.01312 0.0
C1483 C 0.52602 0.59011 0.01864 0.0
C1484 C 0.52855 0.61391 0.04867 0.0
C1485 C 0.5557 0.66891 0.05406 0.0
C1486 C 0.54936 0.6494 0.04837 0.0
C1487 C 0.53031 0.59301 0.03155 0.0
C1488 C 0.53694 0.61239 0.03738 0.0
H1489 H 0.56912 0.71544 0.04559 0.0
H1490 H 0.55861 0.6835 0.03632 0.0
H1491 H 0.52749 0.63291 0.06262 0.0
H1492 H 0.52101 0.54731 0.03905 0.0
H1493 H 0.53173 0.57922 0.04876 0.0
C1494 C 0.85603 0.30213 0.95575 0.0
C1495 C 0.85592 0.29977 0.94266 0.0
C1496 C 0.86933 0.31997 0.96145 0.0
C1497 C 0.90188 0.3727 0.95455 0.0
H1498 H 0.92575 0.37304 0.98667 0.0
C1499 C 0.96528 0.44311 0.97737 0.0
C1500 C 0.96294 0.44593 0.99013 0.0
C1501 C 0.95253 0.42527 0.97146 0.0
C1502 C 0.91908 0.37316 0.97774 0.0
H1503 H 0.86967 0.31452 0.92531 0.0
H1504 H 0.89331 0.34535 0.93527 0.0
H1505 H 0.90303 0.34193 0.97652 0.0
H1506 H 0.9461 0.432 0.0068 0.0
H1507 H 0.9237 0.40093 0.99652 0.0
H1508 H 0.91822 0.40399 0.95574 0.0
C1509 C 0.88288 0.33351 0.94113 0.0
C1510 C 0.90601 0.35534 0.97193 0.0
C1511 C 0.86949 0.3157 0.93542 0.0
C1512 C 0.9479 0.43046 0.99692 0.0
C1513 C 0.93528 0.41256 0.99105 0.0
C1514 C 0.91509 0.39052 0.96031 0.0
C1515 C 0.88296 0.33588 0.95421 0.0
C1516 C 0.89715 0.35487 0.96029 0.0
C1517 C 0.93738 0.40982 0.97824 0.0
C1518 C 0.92374 0.39092 0.97199 0.0
H1519 H 0.84598 0.29012 0.96165 0.0
H1520 H 0.86877 0.32132 0.97153 0.0
H1521 H 0.89509 0.37292 0.9457 0.0
H1522 H 0.97676 0.45481 0.9719 0.0
H1523 H 0.95462 0.42351 0.9616 0.0
C1524 C 0.68916 0.55932 0.94672 0.0
C1525 C 0.69336 0.54399 0.94561 0.0
C1526 C 0.6718 0.55635 0.9526 0.0
C1527 C 0.6311 0.52265 0.97382 0.0
H1528 H 0.60385 0.54789 0.95926 0.0
C1529 C 0.55158 0.50551 0.98818 0.0
C1530 C 0.54892 0.52175 0.98971 0.0
C1531 C 0.56948 0.50789 0.98344 0.0
C1532 C 0.61137 0.54089 0.96352 0.0
H1533 H 0.68259 0.5135 0.94988 0.0
H1534 H 0.65211 0.50819 0.95999 0.0
H1535 H 0.63435 0.55255 0.9498 0.0
H1536 H 0.56245 0.55301 0.98715 0.0
H1537 H 0.59364 0.55722 0.97886 0.0
H1538 H 0.60774 0.51078 0.98746 0.0
C1539 C 0.66242 0.52264 0.95651 0.0
C1540 C 0.62893 0.54359 0.95811 0.0
C1541 C 0.67988 0.52566 0.95068 0.0
C1542 C 0.56425 0.5403 0.9862 0.0
C1543 C 0.58204 0.54268 0.98141 0.0
C1544 C 0.61341 0.51985 0.9792 0.0
C1545 C 0.65806 0.53791 0.95745 0.0
C1546 C 0.63914 0.53465 0.96322 0.0
C1547 C 0.58483 0.5265 0.97988 0.0
C1548 C 0.60343 0.52906 0.97415 0.0
H1549 H 0.6994 0.57372 0.94313 0.0
H1550 H 0.66922 0.56859 0.95339 0.0
H1551 H 0.63864 0.51569 0.9781 0.0
H1552 H 0.53977 0.49095 0.99049 0.0
H1553 H 0.57108 0.49511 0.98225 0.0
C1554 C 0.43786 0.12983 0.94391 0.0
C1555 C 0.42669 0.13638 0.95058 0.0
C1556 C 0.445 0.11882 0.94987 0.0
C1557 C 0.43704 0.0871 0.97694 0.0
H1558 H 0.49101 0.09917 0.97003 0.0
C1559 C 0.47294 0.04611 1.00074 0.0
C1560 C 0.4832 0.04036 0.99258 0.0
C1561 C 0.46671 0.05905 0.99663 0.0
C1562 C 0.47587 0.09554 0.972 0.0
H1563 H 0.41389 0.13617 0.96865 0.0
H1564 H 0.42649 0.11695 0.97911 0.0
H1565 H 0.47838 0.11905 0.96075 0.0
H1566 H 0.49588 0.04391 0.97411 0.0
H1567 H 0.48469 0.06609 0.96678 0.0
H1568 H 0.43444 0.06334 0.98802 0.0
C1569 C 0.42966 0.12033 0.96926 0.0
C1570 C 0.46864 0.10691 0.96668 0.0
C1571 C 0.42259 0.13145 0.9633 0.0
C1572 C 0.48764 0.04796 0.98043 0.0
C1573 C 0.48147 0.06084 0.97633 0.0
C1574 C 0.44428 0.07566 0.98225 0.0
C1575 C 0.4411 0.11405 0.96262 0.0
C1576 C 0.44905 0.10263 0.96892 0.0
C1577 C 0.47083 0.06646 0.98435 0.0
C1578 C 0.46367 0.07958 0.97967 0.0
H1579 H 0.44143 0.13355 0.93413 0.0
H1580 H 0.45355 0.11397 0.94447 0.0
H1581 H 0.42184 0.08337 0.97878 0.0
H1582 H 0.46942 0.04033 0.01016 0.0
H1583 H 0.45871 0.06325 0.00306 0.0
C1584 C 0.6842 0.14901 0.94884 0.0
C1585 C 0.69693 0.14246 0.94442 0.0
C1586 C 0.66634 0.13609 0.95473 0.0
C1587 C 0.63003 0.08332 0.9573 0.0
H1588 H 0.61026 0.09972 0.98548 0.0
C1589 C 0.55915 0.02908 0.98337 0.0
C1590 C 0.5455 0.0354 0.98576 0.0
C1591 C 0.57839 0.04239 0.97946 0.0
C1592 C 0.61556 0.095 0.97757 0.0
H1593 H 0.7012 0.11738 0.94306 0.0
H1594 H 0.67016 0.09488 0.95341 0.0
H1595 H 0.6426 0.12254 0.97649 0.0
H1596 H 0.54061 0.06008 0.98558 0.0
H1597 H 0.5745 0.08362 0.97891 0.0
H1598 H 0.60302 0.05584 0.95832 0.0
C1599 C 0.67375 0.1099 0.9521 0.0
C1600 C 0.63405 0.10805 0.9724 0.0
C1601 C 0.69155 0.12279 0.94618 0.0
C1602 C 0.5512 0.05512 0.98412 0.0
C1603 C 0.57053 0.06851 0.98031 0.0
C1604 C 0.61163 0.07028 0.96248 0.0
C1605 C 0.66084 0.11634 0.95637 0.0
C1606 C 0.64146 0.10239 0.96216 0.0
C1607 C 0.58423 0.06221 0.97775 0.0
C1608 C 0.60414 0.07598 0.97263 0.0
H1609 H 0.68783 0.16404 0.94751 0.0
H1610 H 0.65663 0.14149 0.95772 0.0
H1611 H 0.63507 0.07857 0.94927 0.0
H1612 H 0.55477 0.01377 0.98427 0.0
H1613 H 0.58864 0.03713 0.97764 0.0
C1614 C 0.85447 0.54015 0.95724 0.0
C1615 C 0.85218 0.53942 0.9441 0.0
C1616 C 0.869 0.53701 0.96286 0.0
C1617 C 0.917 0.54037 0.95607 0.0
H1618 H 0.90678 0.50863 0.9858 0.0
C1619 C 0.95796 0.50462 0.98658 0.0
C1620 C 0.97681 0.52119 0.98839 0.0
C1621 C 0.94231 0.50649 0.98152 0.0
C1622 C 0.90981 0.51747 0.97748 0.0
H1623 H 0.86291 0.53389 0.92666 0.0
H1624 H 0.88838 0.5288 0.93643 0.0
H1625 H 0.87986 0.51207 0.97633 0.0
H1626 H 0.99447 0.55247 0.98572 0.0
H1627 H 0.96719 0.5558 0.97683 0.0
H1628 H 0.94689 0.54578 0.95718 0.0
C1629 C 0.8791 0.53206 0.94237 0.0
C1630 C 0.89446 0.51957 0.97211 0.0
C1631 C 0.86452 0.53505 0.93677 0.0
C1632 C 0.97996 0.53953 0.98461 0.0
C1633 C 0.96438 0.5414 0.97948 0.0
C1634 C 0.93236 0.53843 0.96149 0.0
C1635 C 0.88166 0.5332 0.95547 0.0
C1636 C 0.89787 0.53097 0.96131 0.0
C1637 C 0.94536 0.52491 0.97791 0.0
C1638 C 0.92895 0.52694 0.97224 0.0
H1639 H 0.84541 0.54369 0.96319 0.0
H1640 H 0.87071 0.53815 0.97297 0.0
H1641 H 0.92018 0.54942 0.94783 0.0
H1642 H 0.95531 0.49022 0.98904 0.0
H1643 H 0.92791 0.49348 0.98025 0.0
C1644 C 0.43485 0.31035 0.93894 0.0
C1645 C 0.43076 0.29432 0.94661 0.0
C1646 C 0.44131 0.32883 0.9442 0.0
C1647 C 0.4435 0.35353 0.97436 0.0
H1648 H 0.48376 0.39963 0.95731 0.0
C1649 C 0.48393 0.42998 0.99759 0.0
C1650 C 0.48531 0.44546 0.9904 0.0
C1651 C 0.47736 0.41161 0.99215 0.0
C1652 C 0.4724 0.38688 0.96212 0.0
H1653 H 0.42998 0.28517 0.96588 0.0
H1654 H 0.44196 0.31746 0.97498 0.0
H1655 H 0.47208 0.36734 0.94804 0.0
H1656 H 0.48102 0.45395 0.97184 0.0
H1657 H 0.46965 0.42183 0.96228 0.0
H1658 H 0.44418 0.37314 0.98856 0.0
C1659 C 0.43985 0.31572 0.96491 0.0
C1660 C 0.46564 0.36838 0.9568 0.0
C1661 C 0.43324 0.29722 0.95966 0.0
C1662 C 0.48008 0.44226 0.97762 0.0
C1663 C 0.47372 0.42394 0.97213 0.0
C1664 C 0.45041 0.372 0.97973 0.0
C1665 C 0.44397 0.33176 0.95725 0.0
C1666 C 0.4511 0.35147 0.96285 0.0
C1667 C 0.47218 0.40841 0.97937 0.0
C1668 C 0.46492 0.38885 0.97366 0.0
H1669 H 0.43334 0.30872 0.92884 0.0
H1670 H 0.44409 0.34079 0.93802 0.0
H1671 H 0.43203 0.34089 0.97917 0.0
H1672 H 0.48734 0.43183 0.00748 0.0
H1673 H 0.47637 0.3999 0.99794 0.0
C1674 C 0.15025 0.70072 0.05376 0.0
C1675 C 0.15168 0.70325 0.06687 0.0
C1676 C 0.13683 0.68264 0.04839 0.0
C1677 C 0.0904 0.63696 0.05451 0.0
H1678 H 0.10781 0.6161 0.02752 0.0
C1679 C 0.04076 0.55891 0.03428 0.0
C1680 C 0.04179 0.5563 0.02133 0.0
C1681 C 0.054 0.57675 0.04005 0.0
C1682 C 0.1026 0.62181 0.03493 0.0
H1683 H 0.14019 0.68852 0.0846 0.0
H1684 H 0.11651 0.65707 0.07519 0.0
H1685 H 0.13124 0.64742 0.03711 0.0
H1686 H 0.05641 0.57062 0.00416 0.0
H1687 H 0.07941 0.60169 0.01408 0.0
H1688 H 0.06166 0.61155 0.05221 0.0
C1689 C 0.12573 0.66918 0.06909 0.0
C1690 C 0.11607 0.63974 0.04044 0.0
C1691 C 0.13928 0.68722 0.07447 0.0
C1692 C 0.05583 0.57197 0.0142 0.0
C1693 C 0.06895 0.58983 0.01992 0.0
C1694 C 0.07686 0.61908 0.04893 0.0
C1695 C 0.1244 0.66669 0.056 0.0
C1696 C 0.11011 0.64753 0.05027 0.0
C1697 C 0.06837 0.5924 0.03295 0.0
C1698 C 0.08278 0.6113 0.03904 0.0
H1699 H 0.15928 0.71281 0.0476 0.0
H1700 H 0.13594 0.68122 0.03827 0.0
H1701 H 0.08534 0.64272 0.06198 0.0
H1702 H 0.03005 0.54701 0.04 0.0
H1703 H 0.05323 0.57811 0.05012 0.0
C1704 C 0.32742 0.4747 0.06671 0.0
C1705 C 0.30978 0.45684 0.06483 0.0
C1706 C 0.34493 0.47849 0.06063 0.0
C1707 C 0.36408 0.45967 0.03488 0.0
H1708 H 0.41446 0.49176 0.052 0.0
C1709 C 0.43827 0.46182 0.0233 0.0
C1710 C 0.45446 0.48044 0.0208 0.0
C1711 C 0.42039 0.45977 0.02772 0.0
C1712 C 0.40049 0.48291 0.04708 0.0
H1713 H 0.29655 0.42885 0.05528 0.0
H1714 H 0.32721 0.4349 0.04518 0.0
H1715 H 0.38377 0.48619 0.06177 0.0
H1716 H 0.46516 0.51158 0.02163 0.0
H1717 H 0.43396 0.508 0.02974 0.0
H1718 H 0.38107 0.45563 0.02052 0.0
C1719 C 0.32756 0.4464 0.05093 0.0
C1720 C 0.38283 0.47978 0.05262 0.0
C1721 C 0.30996 0.4428 0.0568 0.0
C1722 C 0.45272 0.49704 0.02319 0.0
C1723 C 0.43497 0.49501 0.02789 0.0
C1724 C 0.38172 0.46248 0.02948 0.0
C1725 C 0.34536 0.46432 0.05274 0.0
C1726 C 0.3643 0.46806 0.04664 0.0
C1727 C 0.41864 0.47635 0.03016 0.0
C1728 C 0.40006 0.47409 0.03555 0.0
H1729 H 0.3276 0.48585 0.07276 0.0
H1730 H 0.35807 0.49265 0.06208 0.0
H1731 H 0.35028 0.45095 0.02978 0.0
H1732 H 0.43942 0.44884 0.02172 0.0
H1733 H 0.40808 0.44524 0.02953 0.0
C1734 C 0.57978 0.88271 0.06049 0.0
C1735 C 0.56791 0.86223 0.05984 0.0
C1736 C 0.57434 0.89464 0.05391 0.0
C1737 C 0.53101 0.89446 0.03928 0.0
H1738 H 0.5712 0.94086 0.02249 0.0
C1739 C 0.51071 0.94262 0.00897 0.0
C1740 C 0.52239 0.96289 0.01101 0.0
C1741 C 0.51654 0.92985 0.01395 0.0
C1742 C 0.55982 0.92801 0.02719 0.0
H1743 H 0.54083 0.83826 0.05192 0.0
H1744 H 0.53156 0.85904 0.04028 0.0
H1745 H 0.58078 0.91962 0.03335 0.0
H1746 H 0.54965 0.98567 0.01962 0.0
H1747 H 0.55967 0.96346 0.0283 0.0
H1748 H 0.51008 0.90294 0.03323 0.0
C1749 C 0.545 0.86589 0.04594 0.0
C1750 C 0.56531 0.91587 0.03344 0.0
C1751 C 0.55044 0.85397 0.05251 0.0
C1752 C 0.54027 0.97014 0.01784 0.0
C1753 C 0.54611 0.95741 0.02278 0.0
C1754 C 0.52552 0.90659 0.03303 0.0
C1755 C 0.55689 0.88636 0.04656 0.0
C1756 C 0.55099 0.89903 0.03964 0.0
C1757 C 0.5342 0.9371 0.02102 0.0
C1758 C 0.53988 0.92359 0.027 0.0
H1759 H 0.59342 0.88953 0.06597 0.0
H1760 H 0.58371 0.91037 0.0547 0.0
H1761 H 0.51965 0.88174 0.04411 0.0
H1762 H 0.49688 0.93655 0.00372 0.0
H1763 H 0.50716 0.91428 0.01231 0.0
C1764 C 0.97367 0.20839 0.38818 0.0
C1765 C 0.97283 0.19396 0.39621 0.0
C1766 C 0.99136 0.22116 0.38208 0.0
C1767 C 0.04596 0.23931 0.38331 0.0
H1768 H 0.0449 0.26125 0.35099 0.0
C1769 C 0.11658 0.28834 0.35449 0.0
C1770 C 0.11921 0.30707 0.35245 0.0
C1771 C 0.0983 0.27317 0.35862 0.0
C1772 C 0.04533 0.25514 0.36 0.0
H1773 H 0.98941 0.18102 0.40391 0.0
H1774 H 0.02004 0.20259 0.39283 0.0
H1775 H 0.01374 0.23687 0.3605 0.0
H1776 H 0.1051 0.32478 0.35318 0.0
H1777 H 0.07282 0.298 0.36005 0.0
H1778 H 0.07768 0.25734 0.38253 0.0
C1779 C 0.00739 0.2047 0.39156 0.0
C1780 C 0.02751 0.24132 0.36553 0.0
C1781 C 0.98982 0.19223 0.39787 0.0
C1782 C 0.10327 0.31036 0.35451 0.0
C1783 C 0.08487 0.29509 0.35838 0.0
C1784 C 0.06376 0.2528 0.37764 0.0
C1785 C 0.0085 0.2195 0.38366 0.0
C1786 C 0.02753 0.23341 0.37737 0.0
C1787 C 0.08235 0.27648 0.36066 0.0
C1788 C 0.06356 0.26101 0.36604 0.0
H1789 H 0.96074 0.21005 0.38683 0.0
H1790 H 0.99163 0.23256 0.37632 0.0
H1791 H 0.0467 0.23397 0.39251 0.0
H1792 H 0.12879 0.28556 0.35323 0.0
H1793 H 0.09666 0.25892 0.36036 0.0
C1794 C 0.80219 0.79597 0.40611 0.0
C1795 C 0.81472 0.79182 0.39881 0.0
C1796 C 0.78765 0.79899 0.40046 0.0
C1797 C 0.77299 0.81218 0.37069 0.0
H1798 H 0.72044 0.78657 0.38545 0.0
C1799 C 0.71092 0.82942 0.35669 0.0
C1800 C 0.69171 0.81331 0.35504 0.0
C1801 C 0.72629 0.82684 0.36147 0.0
C1802 C 0.735 0.79373 0.38117 0.0
H1803 H 0.82177 0.78786 0.37973 0.0
H1804 H 0.79656 0.79344 0.36988 0.0
H1805 H 0.7467 0.78219 0.39478 0.0
H1806 H 0.67319 0.7821 0.35763 0.0
H1807 H 0.7 0.77752 0.366 0.0
H1808 H 0.76117 0.8237 0.35706 0.0
C1809 C 0.7981 0.7944 0.38 0.0
C1810 C 0.75011 0.79138 0.38659 0.0
C1811 C 0.81259 0.79124 0.38566 0.0
C1812 C 0.68798 0.79469 0.35862 0.0
C1813 C 0.70329 0.79211 0.36346 0.0
C1814 C 0.75789 0.81468 0.36533 0.0
C1815 C 0.78531 0.79809 0.38735 0.0
C1816 C 0.7693 0.80059 0.38144 0.0
C1817 C 0.72262 0.80815 0.36495 0.0
C1818 C 0.73871 0.80546 0.37051 0.0
H1819 H 0.80365 0.79699 0.41623 0.0
H1820 H 0.77828 0.80215 0.40639 0.0
H1821 H 0.78764 0.81956 0.36654 0.0
H1822 H 0.71405 0.84404 0.35443 0.0
H1823 H 0.74094 0.83954 0.36269 0.0
C1824 C 0.2382 0.02391 0.40413 0.0
C1825 C 0.23593 0.03842 0.39797 0.0
C1826 C 0.23215 0.00585 0.39835 0.0
C1827 C 0.21714 0.9803 0.36727 0.0
H1828 H 0.19606 0.93396 0.388 0.0
C1829 C 0.17428 0.89973 0.34906 0.0
C1830 C 0.18374 0.88903 0.35217 0.0
C1831 C 0.18066 0.91813 0.35443 0.0
C1832 C 0.20195 0.94683 0.38214 0.0
H1833 H 0.22582 0.04524 0.38067 0.0
H1834 H 0.21413 0.01348 0.371 0.0
H1835 H 0.20695 0.96575 0.39777 0.0
H1836 H 0.20695 0.88912 0.36374 0.0
H1837 H 0.21744 0.92089 0.37343 0.0
H1838 H 0.21123 0.96093 0.3516 0.0
C1839 C 0.22109 0.01618 0.38017 0.0
C1840 C 0.20837 0.96509 0.38771 0.0
C1841 C 0.2275 0.03436 0.38584 0.0
C1842 C 0.19937 0.89695 0.36103 0.0
C1843 C 0.2054 0.91511 0.36661 0.0
C1844 C 0.2103 0.96196 0.36169 0.0
C1845 C 0.2233 0.00164 0.38635 0.0
C1846 C 0.21622 0.98212 0.38037 0.0
C1847 C 0.1962 0.92588 0.36327 0.0
C1848 C 0.2028 0.94515 0.3691 0.0
H1849 H 0.24438 0.02631 0.41352 0.0
H1850 H 0.23449 0.99524 0.40334 0.0
H1851 H 0.22342 0.99304 0.3613 0.0
H1852 H 0.16187 0.89389 0.34257 0.0
H1853 H 0.17324 0.92617 0.35184 0.0
C1854 C 0.5308 0.6477 0.26991 0.0
C1855 C 0.51743 0.63175 0.27724 0.0
C1856 C 0.54441 0.66547 0.27554 0.0
C1857 C 0.55281 0.69504 0.30385 0.0
H1858 H 0.60821 0.72134 0.29399 0.0
C1859 C 0.61217 0.76319 0.33035 0.0
C1860 C 0.62724 0.7782 0.32332 0.0
C1861 C 0.59911 0.74518 0.32478 0.0
C1862 C 0.59275 0.71436 0.29673 0.0
H1863 H 0.50816 0.62208 0.29633 0.0
H1864 H 0.53161 0.65329 0.3061 0.0
H1865 H 0.58457 0.69033 0.28405 0.0
H1866 H 0.6407 0.78617 0.30495 0.0
H1867 H 0.61763 0.7549 0.29507 0.0
H1868 H 0.56075 0.71915 0.31631 0.0
C1869 C 0.53144 0.65196 0.29597 0.0
C1870 C 0.57924 0.69656 0.29106 0.0
C1871 C 0.51796 0.63411 0.29036 0.0
C1872 C 0.62924 0.77478 0.31062 0.0
C1873 C 0.61606 0.75683 0.30498 0.0
C1874 C 0.56626 0.71293 0.30942 0.0
C1875 C 0.54483 0.66779 0.28863 0.0
C1876 C 0.55916 0.68671 0.29459 0.0
C1877 C 0.60074 0.74182 0.31198 0.0
C1878 C 0.58643 0.7228 0.30597 0.0
H1879 H 0.53059 0.64656 0.25978 0.0
H1880 H 0.5544 0.67753 0.26965 0.0
H1881 H 0.53736 0.68788 0.30662 0.0
H1882 H 0.6107 0.76517 0.34021 0.0
H1883 H 0.58787 0.73382 0.33056 0.0
C1884 C 0.35589 0.87498 0.28909 0.0
C1885 C 0.35679 0.87435 0.27592 0.0
C1886 C 0.3385 0.87189 0.29505 0.0
C1887 C 0.29337 0.87506 0.28934 0.0
H1888 H 0.27314 0.84307 0.31912 0.0
C1889 C 0.21697 0.83805 0.32011 0.0
C1890 C 0.21434 0.85432 0.32158 0.0
C1891 C 0.23485 0.84036 0.31541 0.0
C1892 C 0.2786 0.85199 0.31079 0.0
H1893 H 0.33968 0.86927 0.25875 0.0
H1894 H 0.30959 0.86424 0.26912 0.0
H1895 H 0.30319 0.84689 0.30901 0.0
H1896 H 0.22801 0.8856 0.31905 0.0
H1897 H 0.25919 0.88969 0.31081 0.0
H1898 H 0.26883 0.8801 0.29103 0.0
C1899 C 0.32244 0.86736 0.27483 0.0
C1900 C 0.29588 0.85431 0.30506 0.0
C1901 C 0.33974 0.87031 0.26889 0.0
C1902 C 0.22978 0.87287 0.31815 0.0
C1903 C 0.24756 0.87517 0.31338 0.0
C1904 C 0.27626 0.87289 0.29511 0.0
C1905 C 0.32163 0.86823 0.28798 0.0
C1906 C 0.3034 0.8658 0.29423 0.0
C1907 C 0.25024 0.85893 0.31182 0.0
C1908 C 0.26864 0.86131 0.30588 0.0
H1909 H 0.36876 0.87831 0.29483 0.0
H1910 H 0.33844 0.87288 0.30518 0.0
H1911 H 0.29888 0.88418 0.2811 0.0
H1912 H 0.20509 0.8235 0.32235 0.0
H1913 H 0.23637 0.82754 0.31419 0.0
C1914 C 0.1112 0.47522 0.29083 0.0
C1915 C 0.10776 0.47432 0.2778 0.0
C1916 C 0.11765 0.46336 0.29642 0.0
C1917 C 0.11798 0.41749 0.29206 0.0
H1918 H 0.16158 0.43972 0.31609 0.0
C1919 C 0.15152 0.37232 0.31151 0.0
C1920 C 0.15697 0.37463 0.32426 0.0
C1921 C 0.14637 0.38503 0.30573 0.0
C1922 C 0.14922 0.43322 0.30952 0.0
H1923 H 0.10858 0.46025 0.26046 0.0
H1924 H 0.11944 0.43924 0.27029 0.0
H1925 H 0.15055 0.46064 0.30631 0.0
H1926 H 0.16126 0.39215 0.34087 0.0
H1927 H 0.15192 0.41412 0.33093 0.0
H1928 H 0.11625 0.39001 0.29541 0.0
C1929 C 0.11706 0.44913 0.27615 0.0
C1930 C 0.14296 0.44522 0.3039 0.0
C1931 C 0.11077 0.46112 0.27053 0.0
C1932 C 0.15743 0.39013 0.33104 0.0
C1933 C 0.15206 0.40274 0.3253 0.0
C1934 C 0.1241 0.40545 0.29776 0.0
C1935 C 0.12062 0.45018 0.28914 0.0
C1936 C 0.1273 0.43748 0.2951 0.0
C1937 C 0.1463 0.40025 0.31258 0.0
C1938 C 0.13985 0.41316 0.30654 0.0
H1939 H 0.10867 0.48493 0.29676 0.0
H1940 H 0.12001 0.46426 0.30648 0.0
H1941 H 0.10569 0.41108 0.28543 0.0
H1942 H 0.15131 0.36072 0.30594 0.0
H1943 H 0.14249 0.38291 0.29585 0.0
C1944 C 0.3577 0.45247 0.2831 0.0
C1945 C 0.36157 0.4717 0.2814 0.0
C1946 C 0.34081 0.43888 0.28955 0.0
C1947 C 0.30137 0.43428 0.31128 0.0
H1948 H 0.27285 0.38153 0.29773 0.0
C1949 C 0.22111 0.3757 0.32551 0.0
C1950 C 0.21739 0.35646 0.32683 0.0
C1951 C 0.23962 0.39044 0.3213 0.0
C1952 C 0.28078 0.39612 0.30174 0.0
H1953 H 0.35077 0.49179 0.28517 0.0
H1954 H 0.32108 0.46798 0.29627 0.0
H1955 H 0.3032 0.40586 0.2877 0.0
H1956 H 0.22983 0.33742 0.32483 0.0
H1957 H 0.26216 0.3631 0.31751 0.0
H1958 H 0.27852 0.42441 0.32521 0.0
C1959 C 0.3313 0.46349 0.29283 0.0
C1960 C 0.29822 0.41009 0.29599 0.0
C1961 C 0.34828 0.47712 0.28643 0.0
C1962 C 0.23245 0.35221 0.32397 0.0
C1963 C 0.25088 0.36686 0.31974 0.0
C1964 C 0.28381 0.42026 0.31702 0.0
C1965 C 0.32728 0.44415 0.29439 0.0
C1966 C 0.30878 0.42934 0.30069 0.0
C1967 C 0.25455 0.38606 0.31812 0.0
C1968 C 0.27337 0.40102 0.31231 0.0
H1969 H 0.36785 0.44796 0.27954 0.0
H1970 H 0.3384 0.42424 0.29079 0.0
H1971 H 0.30926 0.44891 0.31523 0.0
H1972 H 0.20955 0.37924 0.32738 0.0
H1973 H 0.24195 0.40505 0.32004 0.0
C1974 C 0.51938 0.87323 0.28874 0.0
C1975 C 0.51682 0.87206 0.27562 0.0
C1976 C 0.53387 0.87006 0.29438 0.0
C1977 C 0.58137 0.87238 0.2874 0.0
H1978 H 0.57157 0.84194 0.31772 0.0
C1979 C 0.62225 0.83707 0.31844 0.0
C1980 C 0.64131 0.85352 0.3198 0.0
C1981 C 0.60661 0.83899 0.31341 0.0
C1982 C 0.57448 0.85041 0.30923 0.0
H1983 H 0.527 0.8657 0.25824 0.0
H1984 H 0.55236 0.86049 0.26804 0.0
H1985 H 0.54467 0.84544 0.30827 0.0
H1986 H 0.65929 0.88459 0.31643 0.0
H1987 H 0.63202 0.88799 0.30761 0.0
H1988 H 0.6111 0.87734 0.2883 0.0
C1989 C 0.54336 0.86415 0.27395 0.0
C1990 C 0.55914 0.85255 0.30388 0.0
C1991 C 0.52883 0.86719 0.26833 0.0
C1992 C 0.64464 0.87176 0.31564 0.0
C1993 C 0.62906 0.87367 0.31055 0.0
C1994 C 0.5967 0.8704 0.2928 0.0
C1995 C 0.54621 0.86575 0.28703 0.0
C1996 C 0.5624 0.86349 0.29286 0.0
C1997 C 0.60986 0.85732 0.3094 0.0
C1998 C 0.59345 0.85937 0.30375 0.0
H1999 H 0.51057 0.87715 0.29465 0.0
H2000 H 0.5358 0.87156 0.30447 0.0
H2001 H 0.58443 0.88108 0.279 0.0
H2002 H 0.61944 0.82273 0.32122 0.0
H2003 H 0.59205 0.82607 0.31247 0.0
C2004 C 0.09702 0.64118 0.27333 0.0
C2005 C 0.10126 0.62786 0.27944 0.0
C2006 C 0.10258 0.65937 0.27874 0.0
C2007 C 0.13939 0.697 0.29852 0.0
H2008 H 0.10017 0.71246 0.30553 0.0
C2009 C 0.16054 0.76851 0.32518 0.0
C2010 C 0.15043 0.77862 0.32224 0.0
C2011 C 0.15434 0.75 0.3201 0.0
C2012 C 0.11141 0.70859 0.30344 0.0
H2013 H 0.11442 0.62334 0.29624 0.0
H2014 H 0.12495 0.65552 0.3053 0.0
H2015 H 0.08969 0.68047 0.29617 0.0
H2016 H 0.12632 0.77745 0.31114 0.0
H2017 H 0.11622 0.74576 0.30175 0.0
H2018 H 0.1613 0.72523 0.3052 0.0
C2019 C 0.11718 0.65165 0.29636 0.0
C2020 C 0.10533 0.69019 0.29817 0.0
C2021 C 0.11126 0.63329 0.2911 0.0
C2022 C 0.13433 0.77001 0.31377 0.0
C2023 C 0.12839 0.75167 0.30846 0.0
C2024 C 0.14556 0.71556 0.30354 0.0
C2025 C 0.11285 0.66479 0.29023 0.0
C2026 C 0.11926 0.68424 0.29574 0.0
C2027 C 0.13819 0.74131 0.31164 0.0
C2028 C 0.13165 0.72159 0.30613 0.0
H2029 H 0.08974 0.63778 0.26424 0.0
H2030 H 0.09925 0.6694 0.27382 0.0
H2031 H 0.1504 0.69273 0.29659 0.0
H2032 H 0.1733 0.77486 0.33141 0.0
H2033 H 0.16216 0.74247 0.32293 0.0
C2034 C 0.82125 0.02771 0.38983 0.0
C2035 C 0.81407 0.03834 0.39644 0.0
C2036 C 0.80808 0.00977 0.3842 0.0
C2037 C 0.75604 0.96938 0.38555 0.0
H2038 H 0.7677 0.95578 0.35291 0.0
C2039 C 0.69954 0.90023 0.35824 0.0
C2040 C 0.70697 0.8893 0.35228 0.0
C2041 C 0.71252 0.9186 0.36344 0.0
C2042 C 0.76433 0.95929 0.36208 0.0
H2043 H 0.78742 0.03867 0.40207 0.0
H2044 H 0.76442 0.0074 0.39218 0.0
H2045 H 0.79046 0.98762 0.36223 0.0
H2046 H 0.73392 0.88895 0.34739 0.0
H2047 H 0.75651 0.92101 0.35638 0.0
H2048 H 0.72991 0.94105 0.38539 0.0
C2049 C 0.78024 0.01277 0.39154 0.0
C2050 C 0.77737 0.97753 0.36743 0.0
C2051 C 0.79341 0.03069 0.3972 0.0
C2052 C 0.72768 0.89711 0.35169 0.0
C2053 C 0.74065 0.91551 0.35685 0.0
C2054 C 0.74298 0.95116 0.38019 0.0
C2055 C 0.78741 0.00205 0.38502 0.0
C2056 C 0.77341 0.98277 0.37924 0.0
C2057 C 0.73322 0.92645 0.3628 0.0
C2058 C 0.747 0.9459 0.36842 0.0
H2059 H 0.83707 0.03306 0.38924 0.0
H2060 H 0.8141 0.00175 0.37942 0.0
H2061 H 0.7527 0.97282 0.39475 0.0
H2062 H 0.68369 0.89468 0.35887 0.0
H2063 H 0.70634 0.92675 0.36785 0.0
C2064 C 0.99338 0.79677 0.40492 0.0
C2065 C 0.97631 0.79244 0.39782 0.0
C2066 C 0.01086 0.80006 0.39905 0.0
C2067 C 0.03775 0.81329 0.36892 0.0
H2068 H 0.06494 0.7878 0.3832 0.0
C2069 C 0.10403 0.79487 0.35616 0.0
C2070 C 0.11949 0.8134 0.35271 0.0
C2071 C 0.08624 0.79259 0.36089 0.0
C2072 C 0.05747 0.79493 0.37905 0.0
H2073 H 0.96451 0.78844 0.37886 0.0
H2074 H 0.99513 0.79444 0.36863 0.0
H2075 H 0.03475 0.78359 0.39299 0.0
H2076 H 0.12875 0.84421 0.35187 0.0
H2077 H 0.09744 0.84022 0.35996 0.0
H2078 H 0.0606 0.82457 0.35494 0.0
C2079 C 0.99495 0.79538 0.37877 0.0
C2080 C 0.04028 0.79269 0.38474 0.0
C2081 C 0.97739 0.79196 0.38465 0.0
C2082 C 0.11686 0.82968 0.35412 0.0
C2083 C 0.09896 0.82739 0.35879 0.0
C2084 C 0.05512 0.81569 0.36328 0.0
C2085 C 0.01182 0.79924 0.38591 0.0
C2086 C 0.03018 0.80182 0.37976 0.0
C2087 C 0.08356 0.80884 0.36239 0.0
C2088 C 0.06512 0.80646 0.36827 0.0
H2089 H 0.99331 0.79773 0.41506 0.0
H2090 H 0.02369 0.80334 0.40482 0.0
H2091 H 0.03038 0.82061 0.3649 0.0
H2092 H 0.1058 0.78213 0.35529 0.0
H2093 H 0.0746 0.77809 0.36347 0.0
C2094 C 0.23085 0.19304 0.3877 0.0
C2095 C 0.23306 0.193 0.40081 0.0
C2096 C 0.2242 0.20476 0.38214 0.0
C2097 C 0.22035 0.24871 0.38734 0.0
H2098 H 0.17935 0.2264 0.36158 0.0
C2099 C 0.18401 0.29128 0.36775 0.0
C2100 C 0.18015 0.28999 0.3548 0.0
C2101 C 0.18965 0.27889 0.37346 0.0
C2102 C 0.19097 0.23293 0.36865 0.0
H2103 H 0.23002 0.20533 0.41833 0.0
H2104 H 0.21874 0.22606 0.40857 0.0
H2105 H 0.19132 0.2062 0.37129 0.0
H2106 H 0.17943 0.27488 0.33767 0.0
H2107 H 0.18944 0.25331 0.34753 0.0
H2108 H 0.22034 0.27552 0.38459 0.0
C2109 C 0.22224 0.21704 0.40263 0.0
C2110 C 0.19779 0.22134 0.37422 0.0
C2111 C 0.22876 0.20521 0.4082 0.0
C2112 C 0.18182 0.2759 0.34768 0.0
C2113 C 0.18763 0.26358 0.35336 0.0
C2114 C 0.21365 0.26034 0.38171 0.0
C2115 C 0.21976 0.21682 0.38955 0.0
C2116 C 0.21253 0.22911 0.38363 0.0
C2117 C 0.1918 0.26505 0.36631 0.0
C2118 C 0.19884 0.25259 0.37231 0.0
H2119 H 0.2344 0.18412 0.3817 0.0
H2120 H 0.22274 0.20454 0.37203 0.0
H2121 H 0.23192 0.25516 0.39445 0.0
H2122 H 0.18263 0.30187 0.37351 0.0
H2123 H 0.19233 0.28017 0.38349 0.0
C2124 C 0.65933 0.5413 0.73713 0.0
C2125 C 0.64204 0.52863 0.73028 0.0
C2126 C 0.67661 0.55479 0.73097 0.0
C2127 C 0.7025 0.56578 0.70066 0.0
H2128 H 0.73106 0.61864 0.71407 0.0
C2129 C 0.77186 0.64766 0.68789 0.0
C2130 C 0.78682 0.64321 0.68516 0.0
C2131 C 0.75331 0.63313 0.69209 0.0
C2132 C 0.72317 0.60399 0.71013 0.0
H2133 H 0.6295 0.52024 0.71152 0.0
H2134 H 0.65982 0.54367 0.70078 0.0
H2135 H 0.70057 0.59433 0.7241 0.0
H2136 H 0.79438 0.62023 0.68489 0.0
H2137 H 0.76181 0.59467 0.69209 0.0
H2138 H 0.72526 0.57558 0.68667 0.0
C2139 C 0.65996 0.54302 0.71093 0.0
C2140 C 0.70582 0.59001 0.71597 0.0
C2141 C 0.6426 0.52959 0.7171 0.0
C2142 C 0.7829 0.62392 0.68659 0.0
C2143 C 0.76428 0.60932 0.69075 0.0
C2144 C 0.71999 0.57978 0.69485 0.0
C2145 C 0.6771 0.55589 0.71781 0.0
C2146 C 0.69534 0.57072 0.71135 0.0
C2147 C 0.74943 0.61388 0.69378 0.0
C2148 C 0.73051 0.59903 0.69955 0.0
H2149 H 0.65959 0.54071 0.74727 0.0
H2150 H 0.68969 0.56429 0.73652 0.0
H2151 H 0.69478 0.551 0.69693 0.0
H2152 H 0.77465 0.6625 0.68699 0.0
H2153 H 0.7421 0.63705 0.69423 0.0
C2154 C 0.46938 0.10965 0.72751 0.0
C2155 C 0.4837 0.12361 0.73568 0.0
C2156 C 0.45511 0.11301 0.72177 0.0
C2157 C 0.43273 0.14557 0.72375 0.0
H2158 H 0.41048 0.12195 0.69138 0.0
C2159 C 0.38045 0.16268 0.69343 0.0
C2160 C 0.3621 0.14602 0.69053 0.0
C2161 C 0.39596 0.16074 0.69866 0.0
C2162 C 0.41661 0.12864 0.70042 0.0
H2163 H 0.4947 0.15223 0.74405 0.0
H2164 H 0.47055 0.15868 0.7336 0.0
H2165 H 0.43675 0.1176 0.70072 0.0
H2166 H 0.34528 0.1144 0.69118 0.0
H2167 H 0.3727 0.11096 0.6999 0.0
H2168 H 0.41289 0.15716 0.72307 0.0
C2169 C 0.46969 0.14473 0.73192 0.0
C2170 C 0.43156 0.12602 0.70587 0.0
C2171 C 0.48367 0.14115 0.73787 0.0
C2172 C 0.35941 0.12742 0.69314 0.0
C2173 C 0.37505 0.12547 0.69809 0.0
C2174 C 0.4181 0.14855 0.71814 0.0
C2175 C 0.45505 0.13066 0.72383 0.0
C2176 C 0.43969 0.13421 0.71772 0.0
C2177 C 0.39343 0.1421 0.70094 0.0
C2178 C 0.40975 0.13991 0.70651 0.0
H2179 H 0.46898 0.09591 0.72575 0.0
H2180 H 0.44392 0.10155 0.71589 0.0
H2181 H 0.43819 0.15185 0.73295 0.0
H2182 H 0.38272 0.1772 0.69178 0.0
H2183 H 0.41 0.17377 0.70081 0.0
C2184 C 0.89225 0.3657 0.71947 0.0
C2185 C 0.90121 0.37065 0.73144 0.0
C2186 C 0.88657 0.34749 0.71407 0.0
C2187 C 0.87693 0.29758 0.72231 0.0
H2188 H 0.87751 0.29203 0.68617 0.0
C2189 C 0.86649 0.22835 0.69601 0.0
C2190 C 0.85058 0.22044 0.68735 0.0
C2191 C 0.87287 0.24664 0.70153 0.0
C2192 C 0.87726 0.29344 0.69627 0.0
H2193 H 0.9114 0.3601 0.74699 0.0
H2194 H 0.9028 0.32905 0.73725 0.0
H2195 H 0.88934 0.32436 0.6954 0.0
H2196 H 0.82846 0.22537 0.67814 0.0
H2197 H 0.84038 0.25777 0.68728 0.0
H2198 H 0.86557 0.26662 0.72306 0.0
C2199 C 0.89948 0.33896 0.73219 0.0
C2200 C 0.88389 0.31191 0.70159 0.0
C2201 C 0.90479 0.35702 0.7377 0.0
C2202 C 0.8411 0.2312 0.68445 0.0
C2203 C 0.8478 0.24969 0.68974 0.0
C2204 C 0.87074 0.2792 0.71699 0.0
C2205 C 0.89007 0.33383 0.72035 0.0
C2206 C 0.88365 0.31423 0.71469 0.0
C2207 C 0.86371 0.25751 0.69832 0.0
C2208 C 0.8707 0.27699 0.70394 0.0
H2209 H 0.88956 0.37589 0.71422 0.0
H2210 H 0.87913 0.34407 0.70503 0.0
H2211 H 0.87609 0.29862 0.7324 0.0
H2212 H 0.87406 0.22045 0.69856 0.0
H2213 H 0.88517 0.25245 0.70815 0.0
C2214 C 0.18094 0.97661 0.6176 0.0
C2215 C 0.18748 0.96531 0.61115 0.0
C2216 C 0.19461 0.99427 0.62335 0.0
C2217 C 0.24751 0.03288 0.62277 0.0
H2218 H 0.23561 0.04678 0.65523 0.0
C2219 C 0.3045 0.10113 0.65098 0.0
C2220 C 0.29713 0.11216 0.65689 0.0
C2221 C 0.29145 0.083 0.64547 0.0
C2222 C 0.23907 0.04319 0.64611 0.0
H2223 H 0.21349 0.96352 0.60589 0.0
H2224 H 0.23734 0.99431 0.61595 0.0
H2225 H 0.21222 0.01546 0.64558 0.0
H2226 H 0.2703 0.11308 0.66122 0.0
H2227 H 0.24766 0.08153 0.65172 0.0
H2228 H 0.27437 0.06066 0.6233 0.0
C2229 C 0.22166 0.98968 0.61639 0.0
C2230 C 0.22566 0.02525 0.64058 0.0
C2231 C 0.20799 0.97203 0.61063 0.0
C2232 C 0.27648 0.10479 0.657 0.0
C2233 C 0.26347 0.08668 0.65155 0.0
C2234 C 0.26095 0.05083 0.62831 0.0
C2235 C 0.21514 0.00103 0.6228 0.0
C2236 C 0.22966 0.01992 0.62881 0.0
C2237 C 0.27078 0.07553 0.64576 0.0
C2238 C 0.25682 0.05623 0.64001 0.0
H2239 H 0.16526 0.972 0.61801 0.0
H2240 H 0.18909 0.00281 0.62803 0.0
H2241 H 0.25093 0.02935 0.61362 0.0
H2242 H 0.32032 0.10638 0.6507 0.0
H2243 H 0.29754 0.07469 0.64116 0.0
C2244 C 0.00993 0.19348 0.61357 0.0
C2245 C 0.02789 0.21112 0.61537 0.0
C2246 C 0.99252 0.19038 0.61948 0.0
C2247 C 0.96773 0.21586 0.63056 0.0
H2248 H 0.93581 0.17045 0.65116 0.0
C2249 C 0.89749 0.20644 0.65513 0.0
C2250 C 0.88132 0.18748 0.65655 0.0
C2251 C 0.91589 0.20934 0.65111 0.0
C2252 C 0.94432 0.18306 0.64527 0.0
H2253 H 0.04177 0.23936 0.62469 0.0
H2254 H 0.01112 0.2342 0.63471 0.0
H2255 H 0.9667 0.17512 0.642 0.0
H2256 H 0.87126 0.15665 0.65422 0.0
H2257 H 0.90307 0.16157 0.64676 0.0
H2258 H 0.94517 0.22345 0.63315 0.0
C2259 C 0.01063 0.22269 0.62888 0.0
C2260 C 0.9621 0.18577 0.64011 0.0
C2261 C 0.02813 0.2256 0.62319 0.0
C2262 C 0.88369 0.17142 0.65357 0.0
C2263 C 0.902 0.1743 0.64931 0.0
C2264 C 0.94978 0.21295 0.63547 0.0
C2265 C 0.99266 0.20505 0.62707 0.0
C2266 C 0.97398 0.20222 0.63274 0.0
C2267 C 0.9184 0.19333 0.64796 0.0
C2268 C 0.93777 0.19652 0.64292 0.0
H2269 H 0.00938 0.18206 0.60761 0.0
H2270 H 0.97883 0.1767 0.61789 0.0
H2271 H 0.97652 0.22855 0.62478 0.0
H2272 H 0.89592 0.21904 0.65725 0.0
H2273 H 0.92814 0.22421 0.65049 0.0
C2274 C 0.77384 0.8083 0.62531 0.0
C2275 C 0.76729 0.80521 0.61274 0.0
C2276 C 0.78096 0.79691 0.63079 0.0
C2277 C 0.79963 0.76299 0.62244 0.0
H2278 H 0.79138 0.75034 0.65783 0.0
C2279 C 0.80827 0.7021 0.64665 0.0
C2280 C 0.82187 0.7083 0.65676 0.0
C2281 C 0.80272 0.71478 0.64128 0.0
C2282 C 0.79389 0.75394 0.64796 0.0
H2283 H 0.7629 0.78735 0.59618 0.0
H2284 H 0.77408 0.76678 0.60594 0.0
H2285 H 0.77836 0.76992 0.64847 0.0
H2286 H 0.84081 0.73306 0.66875 0.0
H2287 H 0.83015 0.75486 0.65977 0.0
H2288 H 0.8143 0.74604 0.62193 0.0
C2289 C 0.77438 0.77846 0.61147 0.0
C2290 C 0.78654 0.76522 0.64258 0.0
C2291 C 0.76758 0.79007 0.60591 0.0
C2292 C 0.82994 0.7276 0.66124 0.0
C2293 C 0.82397 0.74014 0.65606 0.0
C2294 C 0.8066 0.75137 0.62777 0.0
C2295 C 0.78141 0.78187 0.62394 0.0
C2296 C 0.78929 0.76989 0.62973 0.0
C2297 C 0.81034 0.73379 0.64604 0.0
C2298 C 0.80378 0.74679 0.64056 0.0
H2299 H 0.7735 0.81955 0.63097 0.0
H2300 H 0.78642 0.80019 0.64036 0.0
H2301 H 0.8025 0.76662 0.6126 0.0
H2302 H 0.80184 0.68744 0.64284 0.0
H2303 H 0.79217 0.70961 0.63355 0.0
C2304 C 0.01001 0.79611 0.60486 0.0
C2305 C 0.02743 0.8082 0.61178 0.0
C2306 C 0.99264 0.78255 0.61091 0.0
C2307 C 0.96701 0.77029 0.64136 0.0
H2308 H 0.93803 0.71802 0.62708 0.0
C2309 C 0.89884 0.68785 0.65397 0.0
C2310 C 0.88382 0.69193 0.65732 0.0
C2311 C 0.917 0.70265 0.64946 0.0
C2312 C 0.94603 0.73251 0.63124 0.0
H2313 H 0.04008 0.81548 0.63056 0.0
H2314 H 0.00963 0.79193 0.64112 0.0
H2315 H 0.96828 0.74274 0.61702 0.0
H2316 H 0.87576 0.71452 0.65841 0.0
H2317 H 0.90771 0.74057 0.65067 0.0
H2318 H 0.94462 0.75989 0.65562 0.0
C2319 C 0.00945 0.7931 0.631 0.0
C2320 C 0.96323 0.74673 0.6254 0.0
C2321 C 0.02689 0.8066 0.62494 0.0
C2322 C 0.8873 0.71111 0.65618 0.0
C2323 C 0.90555 0.72599 0.65173 0.0
C2324 C 0.94965 0.75605 0.64717 0.0
C2325 C 0.99219 0.78079 0.62404 0.0
C2326 C 0.97391 0.76578 0.63037 0.0
C2327 C 0.92044 0.72181 0.6481 0.0
C2328 C 0.93901 0.737 0.64217 0.0
H2329 H 0.00974 0.7972 0.59474 0.0
H2330 H 0.97948 0.77349 0.6053 0.0
H2331 H 0.97488 0.78488 0.64537 0.0
H2332 H 0.89641 0.67312 0.65467 0.0
H2333 H 0.92827 0.69904 0.64686 0.0
C2334 C 0.20207 0.22364 0.62322 0.0
C2335 C 0.18728 0.20929 0.61547 0.0
C2336 C 0.21669 0.22053 0.62871 0.0
C2337 C 0.23916 0.18822 0.62596 0.0
H2338 H 0.26376 0.21256 0.65775 0.0
C2339 C 0.2929 0.17071 0.65372 0.0
C2340 C 0.31132 0.18714 0.65679 0.0
C2341 C 0.27729 0.17302 0.64911 0.0
C2342 C 0.257 0.20572 0.64885 0.0
H2343 H 0.17566 0.18019 0.60772 0.0
H2344 H 0.20041 0.17424 0.61774 0.0
H2345 H 0.23685 0.21677 0.64927 0.0
H2346 H 0.32824 0.21878 0.65697 0.0
H2347 H 0.30064 0.22286 0.64927 0.0
H2348 H 0.25901 0.17667 0.62586 0.0
C2349 C 0.20139 0.18827 0.61925 0.0
C2350 C 0.24166 0.20822 0.64392 0.0
C2351 C 0.18705 0.19157 0.61356 0.0
C2352 C 0.31402 0.20591 0.65491 0.0
C2353 C 0.29828 0.20823 0.65055 0.0
C2354 C 0.2542 0.18541 0.63104 0.0
C2355 C 0.21664 0.20281 0.62678 0.0
C2356 C 0.2326 0.19965 0.63232 0.0
C2357 C 0.2798 0.1918 0.64755 0.0
C2358 C 0.26337 0.19426 0.64246 0.0
H2359 H 0.20266 0.23751 0.62475 0.0
H2360 H 0.22829 0.23227 0.63422 0.0
H2361 H 0.23301 0.18172 0.6169 0.0
H2362 H 0.29062 0.15609 0.65468 0.0
H2363 H 0.26321 0.16014 0.64682 0.0
C2364 C 0.78597 0.97224 0.617 0.0
C2365 C 0.76734 0.96165 0.61102 0.0
C2366 C 0.79195 0.99052 0.62239 0.0
C2367 C 0.78229 0.03175 0.62141 0.0
H2368 H 0.8089 0.04485 0.65382 0.0
C2369 C 0.79831 0.10116 0.64913 0.0
C2370 C 0.81686 0.11155 0.65522 0.0
C2371 C 0.79226 0.08289 0.64368 0.0
C2372 C 0.80168 0.04149 0.6447 0.0
H2373 H 0.74027 0.96185 0.60615 0.0
H2374 H 0.75073 0.99381 0.61556 0.0
H2375 H 0.79827 0.01285 0.64445 0.0
H2376 H 0.84388 0.11116 0.66002 0.0
H2377 H 0.8333 0.07929 0.65055 0.0
H2378 H 0.78572 0.0604 0.62166 0.0
C2379 C 0.76082 0.98807 0.61592 0.0
C2380 C 0.79559 0.02316 0.63934 0.0
C2381 C 0.75483 0.96977 0.61054 0.0
C2382 C 0.82933 0.10338 0.65561 0.0
C2383 C 0.82327 0.08511 0.65019 0.0
C2384 C 0.78839 0.05008 0.62678 0.0
C2385 C 0.77945 0.99864 0.62191 0.0
C2386 C 0.78584 0.01809 0.62763 0.0
C2387 C 0.80465 0.07463 0.64419 0.0
C2388 C 0.79816 0.05516 0.63848 0.0
H2389 H 0.79609 0.96653 0.61735 0.0
H2390 H 0.80652 0.99845 0.62676 0.0
H2391 H 0.77507 0.02838 0.61229 0.0
H2392 H 0.78832 0.10701 0.64866 0.0
H2393 H 0.77773 0.07509 0.63925 0.0
C2394 C 0.4713 0.35324 0.74123 0.0
C2395 C 0.48368 0.36934 0.73368 0.0
C2396 C 0.45769 0.33527 0.7358 0.0
C2397 C 0.44786 0.30613 0.70702 0.0
H2398 H 0.39373 0.27739 0.71922 0.0
C2399 C 0.388 0.23754 0.68133 0.0
C2400 C 0.37447 0.22178 0.68862 0.0
C2401 C 0.40083 0.25561 0.68689 0.0
C2402 C 0.40885 0.28509 0.71581 0.0
H2403 H 0.49118 0.37913 0.71445 0.0
H2404 H 0.46767 0.34766 0.70501 0.0
H2405 H 0.41729 0.30872 0.72886 0.0
H2406 H 0.36323 0.21255 0.70738 0.0
H2407 H 0.38594 0.24407 0.71725 0.0
H2408 H 0.43966 0.28248 0.69412 0.0
C2409 C 0.46864 0.34897 0.71514 0.0
C2410 C 0.42232 0.30306 0.72131 0.0
C2411 C 0.48215 0.36698 0.72056 0.0
C2412 C 0.37358 0.22452 0.70156 0.0
C2413 C 0.38654 0.24259 0.70718 0.0
C2414 C 0.43446 0.28812 0.70158 0.0
C2415 C 0.45624 0.33294 0.7227 0.0
C2416 C 0.44195 0.3138 0.71694 0.0
C2417 C 0.40048 0.25831 0.69992 0.0
C2418 C 0.41475 0.2774 0.70586 0.0
H2419 H 0.4723 0.3544 0.75136 0.0
H2420 H 0.44852 0.3231 0.74187 0.0
H2421 H 0.46298 0.31394 0.70358 0.0
H2422 H 0.38841 0.23605 0.67129 0.0
H2423 H 0.41093 0.26752 0.68095 0.0
C2424 C 0.64649 0.10524 0.73124 0.0
C2425 C 0.64196 0.12027 0.73294 0.0
C2426 C 0.66367 0.10875 0.72485 0.0
C2427 C 0.7136 0.14812 0.71615 0.0
H2428 H 0.71143 0.11014 0.69207 0.0
C2429 C 0.78334 0.16116 0.68855 0.0
C2430 C 0.78587 0.14488 0.68683 0.0
C2431 C 0.76535 0.15878 0.69311 0.0
C2432 C 0.71238 0.12082 0.69886 0.0
H2433 H 0.65209 0.15085 0.72934 0.0
H2434 H 0.68213 0.15699 0.71821 0.0
H2435 H 0.68102 0.10465 0.70228 0.0
H2436 H 0.77199 0.11352 0.68894 0.0
H2437 H 0.74081 0.10931 0.6971 0.0
H2438 H 0.745 0.16406 0.71303 0.0
C2439 C 0.67236 0.14247 0.72182 0.0
C2440 C 0.6949 0.11767 0.70469 0.0
C2441 C 0.65506 0.13891 0.72811 0.0
C2442 C 0.77026 0.12626 0.68995 0.0
C2443 C 0.75234 0.12386 0.69455 0.0
C2444 C 0.73112 0.1512 0.7104 0.0
C2445 C 0.67685 0.12742 0.72009 0.0
C2446 C 0.69532 0.13119 0.7135 0.0
C2447 C 0.74963 0.14009 0.69625 0.0
C2448 C 0.73079 0.13749 0.70176 0.0
H2449 H 0.63663 0.09068 0.73475 0.0
H2450 H 0.66679 0.09688 0.72378 0.0
H2451 H 0.71448 0.15873 0.72298 0.0
H2452 H 0.79532 0.17575 0.68652 0.0
H2453 H 0.7638 0.17161 0.69417 0.0
C2454 C 0.90295 0.54283 0.735 0.0
C2455 C 0.89115 0.52237 0.73408 0.0
C2456 C 0.89684 0.55492 0.72934 0.0
C2457 C 0.8643 0.55564 0.70434 0.0
H2458 H 0.87146 0.60175 0.72209 0.0
C2459 C 0.83512 0.60549 0.68519 0.0
C2460 C 0.84791 0.62577 0.6866 0.0
C2461 C 0.83962 0.59227 0.69096 0.0
C2462 C 0.86953 0.58903 0.71696 0.0
H2463 H 0.86348 0.49858 0.72665 0.0
H2464 H 0.85287 0.51972 0.71672 0.0
H2465 H 0.88075 0.57985 0.73228 0.0
H2466 H 0.87556 0.64799 0.69513 0.0
H2467 H 0.88343 0.62502 0.70504 0.0
H2468 H 0.85322 0.56495 0.68897 0.0
C2469 C 0.86698 0.52638 0.7217 0.0
C2470 C 0.87485 0.57649 0.7228 0.0
C2471 C 0.87306 0.51428 0.72738 0.0
C2472 C 0.86531 0.6325 0.69387 0.0
C2473 C 0.86978 0.61931 0.69963 0.0
C2474 C 0.85899 0.56823 0.69847 0.0
C2475 C 0.8788 0.54683 0.72261 0.0
C2476 C 0.87246 0.55975 0.71653 0.0
C2477 C 0.85696 0.59905 0.69832 0.0
C2478 C 0.86174 0.58516 0.70468 0.0
H2479 H 0.91711 0.54954 0.73991 0.0
H2480 H 0.90644 0.57062 0.73005 0.0
H2481 H 0.86247 0.54296 0.69921 0.0
H2482 H 0.82147 0.59981 0.67979 0.0
H2483 H 0.82934 0.57674 0.68987 0.0
C2484 C 0.45611 0.92828 0.17384 0.0
C2485 C 0.47044 0.93483 0.18352 0.0
C2486 C 0.46126 0.9361 0.16176 0.0
C2487 C 0.50504 0.96306 0.14114 0.0
H2488 H 0.46969 0.97438 0.12167 0.0
C2489 C 0.53076 0.01036 0.09655 0.0
C2490 C 0.51749 0.00499 0.08633 0.0
C2491 C 0.52456 0.00071 0.10803 0.0
C2492 C 0.47962 0.97106 0.12691 0.0
H2493 H 0.50131 0.95528 0.18812 0.0
H2494 H 0.51025 0.96891 0.16715 0.0
H2495 H 0.45965 0.95992 0.14245 0.0
H2496 H 0.48726 0.98508 0.08017 0.0
H2497 H 0.47646 0.96805 0.10021 0.0
H2498 H 0.52509 0.97436 0.12567 0.0
C2499 C 0.49511 0.95741 0.16879 0.0
C2500 C 0.47387 0.96277 0.13884 0.0
C2501 C 0.48997 0.9496 0.18085 0.0
C2502 C 0.4979 0.9895 0.08782 0.0
C2503 C 0.49165 0.97988 0.09935 0.0
C2504 C 0.5108 0.97136 0.12924 0.0
C2505 C 0.48088 0.95068 0.15905 0.0
C2506 C 0.48659 0.95884 0.14616 0.0
C2507 C 0.50489 0.98543 0.10961 0.0
C2508 C 0.49826 0.97565 0.12201 0.0
H2509 H 0.44099 0.91677 0.17553 0.0
H2510 H 0.44996 0.93041 0.15446 0.0
H2511 H 0.51506 0.95986 0.14638 0.0
H2512 H 0.54602 0.02208 0.09569 0.0
H2513 H 0.53511 0.00552 0.11575 0.0
C2514 C 0.0375 0.53059 0.18073 0.0
C2515 C 0.02928 0.51535 0.18949 0.0
C2516 C 0.02993 0.52769 0.16852 0.0
C2517 C 0.99963 0.48916 0.1452 0.0
H2518 H 0.99575 0.53136 0.12943 0.0
C2519 C 0.96452 0.50566 0.09788 0.0
C2520 C 0.97027 0.49663 0.08872 0.0
C2521 C 0.97089 0.50709 0.11032 0.0
C2522 C 0.99651 0.51933 0.13373 0.0
H2523 H 0.00671 0.48508 0.19234 0.0
H2524 H 0.99324 0.48003 0.17101 0.0
H2525 H 0.00798 0.53526 0.15088 0.0
H2526 H 0.98691 0.48162 0.08556 0.0
H2527 H 0.99853 0.48468 0.10716 0.0
H2528 H 0.98768 0.47307 0.12811 0.0
C2529 C 0.00576 0.49416 0.17353 0.0
C2530 C 0.0038 0.52167 0.14598 0.0
C2531 C 0.01344 0.49705 0.18575 0.0
C2532 C 0.98241 0.4889 0.09234 0.0
C2533 C 0.98886 0.49042 0.10477 0.0
C2534 C 0.99225 0.48679 0.13294 0.0
C2535 C 0.01386 0.50949 0.16479 0.0
C2536 C 0.00558 0.50668 0.15185 0.0
C2537 C 0.98327 0.49963 0.1139 0.0
C2538 C 0.99068 0.50189 0.12703 0.0
H2539 H 0.04997 0.54475 0.18327 0.0
H2540 H 0.03682 0.53968 0.16197 0.0
H2541 H 0.00096 0.47738 0.1494 0.0
H2542 H 0.95536 0.51195 0.09542 0.0
H2543 H 0.96607 0.51405 0.11713 0.0
C2544 C 0.46847 0.50132 0.18356 0.0
C2545 C 0.46997 0.51937 0.18661 0.0
C2546 C 0.47383 0.49812 0.17164 0.0
C2547 C 0.50451 0.52513 0.14446 0.0
H2548 H 0.47468 0.47528 0.12717 0.0
C2549 C 0.5337 0.5076 0.09947 0.0
C2550 C 0.51991 0.49794 0.08972 0.0
C2551 C 0.52729 0.50956 0.11134 0.0
C2552 C 0.4831 0.48933 0.13184 0.0
H2553 H 0.4774 0.54786 0.17936 0.0
H2554 H 0.48663 0.54225 0.1586 0.0
H2555 H 0.46344 0.48001 0.14757 0.0
H2556 H 0.48851 0.48236 0.0849 0.0
H2557 H 0.47736 0.48612 0.10554 0.0
H2558 H 0.52393 0.53461 0.12867 0.0
C2559 C 0.48176 0.53072 0.16549 0.0
C2560 C 0.47678 0.49197 0.14359 0.0
C2561 C 0.47645 0.53393 0.17739 0.0
C2562 C 0.49954 0.49009 0.09216 0.0
C2563 C 0.49313 0.49204 0.10404 0.0
C2564 C 0.51083 0.52249 0.13274 0.0
C2565 C 0.48076 0.51288 0.16251 0.0
C2566 C 0.48739 0.50992 0.15003 0.0
C2567 C 0.50694 0.50191 0.11375 0.0
C2568 C 0.50021 0.50457 0.12628 0.0
H2569 H 0.4637 0.48988 0.19049 0.0
H2570 H 0.47306 0.48427 0.16969 0.0
H2571 H 0.51319 0.53906 0.14922 0.0
H2572 H 0.54951 0.51398 0.09789 0.0
H2573 H 0.53831 0.51704 0.11865 0.0
C2574 C 0.96124 0.46666 0.83167 0.0
C2575 C 0.96903 0.48169 0.82275 0.0
C2576 C 0.96924 0.46993 0.84378 0.0
C2577 C 1.0 0.50923 0.86656 0.0
H2578 H 0.00526 0.46794 0.88253 0.0
C2579 C 0.01964 0.51158 0.91915 0.0
C2580 C 0.03222 0.50432 0.92265 0.0
C2581 C 0.01259 0.50949 0.90683 0.0
C2582 C 0.0041 0.47972 0.87818 0.0
H2583 H 0.99129 0.51195 0.81953 0.0
H2584 H 0.00546 0.51766 0.84067 0.0
H2585 H 0.99206 0.46319 0.86128 0.0
H2586 H 0.04732 0.48922 0.91586 0.0
H2587 H 0.0355 0.48608 0.89432 0.0
H2588 H 0.0125 0.52593 0.88338 0.0
C2589 C 0.99295 0.50341 0.83836 0.0
C2590 C 0.99626 0.47689 0.86604 0.0
C2591 C 0.98487 0.50015 0.82624 0.0
C2592 C 0.03781 0.49516 0.91348 0.0
C2593 C 0.03082 0.49313 0.90115 0.0
C2594 C 0.00791 0.51209 0.8787 0.0
C2595 C 0.98528 0.4883 0.84726 0.0
C2596 C 0.99401 0.49156 0.8601 0.0
C2597 C 0.018 0.50014 0.89769 0.0
C2598 C 0.00999 0.49734 0.88468 0.0
H2599 H 0.9488 0.45238 0.82933 0.0
H2600 H 0.96268 0.45809 0.85047 0.0
H2601 H 0.99831 0.52077 0.86231 0.0
H2602 H 0.01525 0.51895 0.92593 0.0
H2603 H 0.00259 0.51489 0.90453 0.0
C2604 C 0.52488 0.4676 0.83301 0.0
C2605 C 0.53151 0.48221 0.82381 0.0
C2606 C 0.51965 0.47085 0.84492 0.0
C2607 C 0.52517 0.50975 0.86689 0.0
H2608 H 0.47796 0.46734 0.88192 0.0
C2609 C 0.46882 0.49449 0.91129 0.0
C2610 C 0.48275 0.50411 0.92099 0.0
C2611 C 0.47504 0.49247 0.89938 0.0
C2612 C 0.49108 0.4794 0.87782 0.0
H2613 H 0.5381 0.51181 0.81998 0.0
H2614 H 0.52887 0.51749 0.84081 0.0
H2615 H 0.48842 0.46278 0.8613 0.0
H2616 H 0.51421 0.51956 0.92564 0.0
H2617 H 0.52503 0.51568 0.90492 0.0
H2618 H 0.52757 0.52648 0.88334 0.0
C2619 C 0.52793 0.50357 0.83883 0.0
C2620 C 0.49724 0.4767 0.86606 0.0
C2621 C 0.53322 0.50033 0.8269 0.0
C2622 C 0.50307 0.51186 0.91843 0.0
C2623 C 0.5093 0.50984 0.90651 0.0
C2624 C 0.51901 0.51245 0.87867 0.0
C2625 C 0.52087 0.48878 0.84794 0.0
C2626 C 0.51438 0.49181 0.86045 0.0
C2627 C 0.49535 0.50001 0.89686 0.0
C2628 C 0.50188 0.4973 0.88428 0.0
H2629 H 0.52377 0.45361 0.83101 0.0
H2630 H 0.51468 0.45929 0.85179 0.0
H2631 H 0.53853 0.52164 0.86288 0.0
H2632 H 0.45304 0.48819 0.91297 0.0
H2633 H 0.46391 0.48503 0.89212 0.0
C2634 C 0.54811 0.06408 0.836 0.0
C2635 C 0.53305 0.06091 0.82732 0.0
C2636 C 0.54338 0.05485 0.84771 0.0
C2637 C 0.50272 0.01249 0.86426 0.0
H2638 H 0.5317 0.03986 0.89435 0.0
C2639 C 0.47615 0.97942 0.91321 0.0
C2640 C 0.49054 0.98064 0.92181 0.0
C2641 C 0.48178 0.99005 0.90205 0.0
C2642 C 0.52358 0.03195 0.88602 0.0
H2643 H 0.50111 0.04533 0.82423 0.0
H2644 H 0.49288 0.02972 0.84466 0.0
H2645 H 0.54066 0.05663 0.87417 0.0
H2646 H 0.52223 0.99454 0.92552 0.0
H2647 H 0.53209 0.0132 0.90602 0.0
H2648 H 0.48563 0.98786 0.87605 0.0
C2649 C 0.5084 0.03915 0.84239 0.0
C2650 C 0.52873 0.04156 0.87443 0.0
C2651 C 0.51313 0.04834 0.8307 0.0
C2652 C 0.51075 0.99335 0.91916 0.0
C2653 C 0.5164 0.00403 0.90796 0.0
C2654 C 0.49756 0.00293 0.87581 0.0
C2655 C 0.52345 0.04218 0.85104 0.0
C2656 C 0.51829 0.03198 0.8634 0.0
C2657 C 0.50198 0.00225 0.89917 0.0
C2658 C 0.50783 0.01255 0.88687 0.0
H2659 H 0.56361 0.07381 0.8338 0.0
H2660 H 0.55538 0.05743 0.85407 0.0
H2661 H 0.49461 0.00447 0.85596 0.0
H2662 H 0.46045 0.97013 0.91507 0.0
H2663 H 0.47026 0.98865 0.89566 0.0
C2664 C 0.15623 0.27711 0.5179 0.0
C2665 C 0.13641 0.26368 0.52103 0.0
C2666 C 0.16104 0.28539 0.50596 0.0
C2667 C 0.13942 0.29562 0.47793 0.0
H2668 H 0.18747 0.30306 0.46194 0.0
C2669 C 0.1603 0.32454 0.42708 0.0
C2670 C 0.18038 0.33841 0.42493 0.0
C2671 C 0.15442 0.31453 0.43849 0.0
C2672 C 0.1741 0.30126 0.46632 0.0
H2673 H 0.10612 0.24835 0.51389 0.0
H2674 H 0.11453 0.26284 0.49303 0.0
H2675 H 0.17815 0.28736 0.48236 0.0
H2676 H 0.21005 0.35223 0.43304 0.0
H2677 H 0.19978 0.33509 0.45295 0.0
H2678 H 0.13546 0.30966 0.4619 0.0
C2679 C 0.12633 0.26713 0.4999 0.0
C2680 C 0.16874 0.29225 0.47804 0.0
C2681 C 0.12151 0.25882 0.51187 0.0
C2682 C 0.19443 0.34183 0.43442 0.0
C2683 C 0.18857 0.33181 0.4458 0.0
C2684 C 0.14478 0.30464 0.46619 0.0
C2685 C 0.14618 0.2805 0.49678 0.0
C2686 C 0.15143 0.28946 0.48406 0.0
C2687 C 0.16848 0.31808 0.44801 0.0
C2688 C 0.16228 0.30773 0.46028 0.0
H2689 H 0.16806 0.28151 0.52477 0.0
H2690 H 0.17643 0.29591 0.50398 0.0
H2691 H 0.12612 0.29392 0.48235 0.0
H2692 H 0.14906 0.32165 0.42002 0.0
H2693 H 0.13886 0.30392 0.43982 0.0
C2694 C 0.67871 0.83053 0.51792 0.0
C2695 C 0.6966 0.84754 0.52109 0.0
C2696 C 0.67138 0.82743 0.5056 0.0
C2697 C 0.68681 0.84203 0.47297 0.0
H2698 H 0.63164 0.82718 0.46721 0.0
C2699 C 0.6582 0.84816 0.42431 0.0
C2700 C 0.63912 0.83352 0.42052 0.0
C2701 C 0.66485 0.84869 0.43658 0.0
C2702 C 0.647 0.83103 0.46864 0.0
H2703 H 0.72112 0.87435 0.51383 0.0
H2704 H 0.70835 0.86896 0.49238 0.0
H2705 H 0.64397 0.82974 0.48863 0.0
H2706 H 0.61211 0.80784 0.42657 0.0
H2707 H 0.6238 0.8086 0.44799 0.0
H2708 H 0.68992 0.84331 0.45303 0.0
C2709 C 0.69998 0.85803 0.49938 0.0
C2710 C 0.65406 0.83251 0.48092 0.0
C2711 C 0.70719 0.8612 0.51168 0.0
C2712 C 0.6268 0.81943 0.42927 0.0
C2713 C 0.6335 0.81989 0.44154 0.0
C2714 C 0.67974 0.84043 0.4607 0.0
C2715 C 0.68195 0.84118 0.49622 0.0
C2716 C 0.67409 0.83828 0.4832 0.0
C2717 C 0.65263 0.83452 0.44533 0.0
C2718 C 0.65982 0.83518 0.45838 0.0
H2719 H 0.67021 0.81981 0.525 0.0
H2720 H 0.6575 0.81426 0.50341 0.0
H2721 H 0.70225 0.84621 0.47445 0.0
H2722 H 0.66791 0.8594 0.41783 0.0
H2723 H 0.6795 0.86041 0.43923 0.0
C2724 C 0.13659 0.83802 0.51532 0.0
C2725 C 0.13874 0.85627 0.51857 0.0
C2726 C 0.14183 0.83483 0.50336 0.0
C2727 C 0.17295 0.86166 0.47625 0.0
H2728 H 0.14168 0.81221 0.45876 0.0
C2729 C 0.20069 0.84295 0.43103 0.0
C2730 C 0.18674 0.83349 0.42132 0.0
C2731 C 0.19455 0.84528 0.4429 0.0
C2732 C 0.1505 0.82616 0.46348 0.0
H2733 H 0.14731 0.88522 0.51163 0.0
H2734 H 0.15632 0.87964 0.49079 0.0
H2735 H 0.13094 0.81722 0.47924 0.0
H2736 H 0.15531 0.81873 0.41658 0.0
H2737 H 0.14465 0.82317 0.43722 0.0
H2738 H 0.19228 0.87077 0.46041 0.0
C2739 C 0.15102 0.86791 0.49756 0.0
C2740 C 0.14446 0.82895 0.47528 0.0
C2741 C 0.14583 0.87111 0.5095 0.0
C2742 C 0.16647 0.82629 0.4238 0.0
C2743 C 0.16033 0.82862 0.43568 0.0
C2744 C 0.17898 0.85887 0.46446 0.0
C2745 C 0.14928 0.84981 0.49437 0.0
C2746 C 0.1556 0.84675 0.4818 0.0
C2747 C 0.1743 0.83822 0.44536 0.0
C2748 C 0.16784 0.84109 0.45793 0.0
H2749 H 0.13137 0.82636 0.52213 0.0
H2750 H 0.14051 0.82079 0.50126 0.0
H2751 H 0.18203 0.87547 0.48107 0.0
H2752 H 0.21642 0.84883 0.42941 0.0
H2753 H 0.20568 0.85253 0.45018 0.0
C2754 C 0.62295 0.80389 0.16457 0.0
C2755 C 0.63195 0.81856 0.15547 0.0
C2756 C 0.63081 0.80684 0.1767 0.0
C2757 C 0.66425 0.84503 0.1993 0.0
H2758 H 0.66616 0.8016 0.21482 0.0
C2759 C 0.68438 0.84511 0.25166 0.0
C2760 C 0.69605 0.83666 0.2548 0.0
C2761 C 0.67723 0.84376 0.23942 0.0
C2762 C 0.66593 0.81395 0.21059 0.0
H2763 H 0.65605 0.84798 0.15204 0.0
H2764 H 0.6699 0.85313 0.17327 0.0
H2765 H 0.65244 0.79781 0.19377 0.0
H2766 H 0.70947 0.82028 0.24747 0.0
H2767 H 0.69738 0.81831 0.22608 0.0
H2768 H 0.67811 0.86127 0.21608 0.0
C2769 C 0.65662 0.83941 0.17104 0.0
C2770 C 0.6578 0.81168 0.19857 0.0
C2771 C 0.6487 0.83646 0.15888 0.0
C2772 C 0.70066 0.8271 0.24536 0.0
C2773 C 0.69353 0.82577 0.23313 0.0
C2774 C 0.6724 0.8473 0.21134 0.0
C2775 C 0.6479 0.82452 0.18004 0.0
C2776 C 0.65678 0.82715 0.1928 0.0
C2777 C 0.68159 0.83394 0.23003 0.0
C2778 C 0.67329 0.83176 0.21714 0.0
H2779 H 0.60979 0.79007 0.1623 0.0
H2780 H 0.62346 0.79524 0.18348 0.0
H2781 H 0.66356 0.85719 0.19515 0.0
H2782 H 0.68077 0.8528 0.25866 0.0
H2783 H 0.66794 0.85008 0.23739 0.0
C2784 C 0.19904 0.837 0.15792 0.0
C2785 C 0.19981 0.8199 0.15534 0.0
C2786 C 0.19426 0.8405 0.16994 0.0
C2787 C 0.19225 0.82635 0.20316 0.0
H2788 H 0.15294 0.84277 0.20622 0.0
C2789 C 0.15381 0.8224 0.25006 0.0
C2790 C 0.1499 0.83752 0.25304 0.0
C2791 C 0.16088 0.82137 0.23821 0.0
C2792 C 0.16416 0.83847 0.20555 0.0
H2793 H 0.19684 0.79341 0.16345 0.0
H2794 H 0.18841 0.79944 0.18436 0.0
H2795 H 0.16408 0.83943 0.18547 0.0
H2796 H 0.15064 0.86359 0.24595 0.0
H2797 H 0.16312 0.8619 0.22529 0.0
H2798 H 0.19234 0.82534 0.22321 0.0
C2799 C 0.19152 0.81017 0.17712 0.0
C2800 C 0.17053 0.83655 0.19365 0.0
C2801 C 0.19615 0.80662 0.16511 0.0
C2802 C 0.15325 0.85161 0.24389 0.0
C2803 C 0.1604 0.85063 0.23204 0.0
C2804 C 0.18595 0.82835 0.21505 0.0
C2805 C 0.19034 0.82706 0.17965 0.0
C2806 C 0.18449 0.83026 0.19231 0.0
C2807 C 0.16429 0.83548 0.22905 0.0
C2808 C 0.17166 0.83422 0.2164 0.0
H2809 H 0.20168 0.84745 0.15057 0.0
H2810 H 0.19363 0.85373 0.17163 0.0
H2811 H 0.20325 0.82177 0.20244 0.0
H2812 H 0.15109 0.81114 0.25683 0.0
H2813 H 0.16334 0.80929 0.23617 0.0
C2814 C 0.18003 0.3868 0.16153 0.0
C2815 C 0.1999 0.40045 0.15868 0.0
C2816 C 0.17498 0.37778 0.17326 0.0
C2817 C 0.1931 0.38269 0.20605 0.0
H2818 H 0.15345 0.32762 0.20765 0.0
C2819 C 0.17525 0.33776 0.252 0.0
C2820 C 0.15517 0.32406 0.25428 0.0
C2821 C 0.18107 0.34744 0.24048 0.0
C2822 C 0.16439 0.34306 0.2074 0.0
H2823 H 0.23004 0.41542 0.16609 0.0
H2824 H 0.22128 0.39941 0.18649 0.0
H2825 H 0.16297 0.34369 0.18737 0.0
H2826 H 0.1254 0.31034 0.24633 0.0
H2827 H 0.13552 0.32714 0.2263 0.0
H2828 H 0.19449 0.382 0.22611 0.0
C2829 C 0.20955 0.39583 0.17966 0.0
C2830 C 0.16986 0.35229 0.19575 0.0
C2831 C 0.21461 0.40486 0.16791 0.0
C2832 C 0.14104 0.32049 0.24482 0.0
C2833 C 0.14685 0.33014 0.23331 0.0
C2834 C 0.18763 0.37343 0.21772 0.0
C2835 C 0.18967 0.38212 0.18247 0.0
C2836 C 0.18421 0.37226 0.19491 0.0
C2837 C 0.16696 0.34364 0.23095 0.0
C2838 C 0.17311 0.35352 0.21854 0.0
H2839 H 0.16833 0.38285 0.15462 0.0
H2840 H 0.1595 0.36748 0.17513 0.0
H2841 H 0.20402 0.39813 0.20578 0.0
H2842 H 0.18657 0.3407 0.25901 0.0
H2843 H 0.19671 0.35757 0.23893 0.0
C2844 C 0.82606 0.61915 0.85045 0.0
C2845 C 0.80618 0.60556 0.85332 0.0
C2846 C 0.83116 0.62786 0.83863 0.0
C2847 C 0.81306 0.62166 0.80575 0.0
H2848 H 0.85359 0.67631 0.8032 0.0
C2849 C 0.83207 0.66438 0.75884 0.0
C2850 C 0.8523 0.67746 0.75646 0.0
C2851 C 0.82599 0.65536 0.77054 0.0
C2852 C 0.84239 0.66098 0.80373 0.0
H2853 H 0.77606 0.59049 0.84589 0.0
H2854 H 0.78489 0.606 0.82535 0.0
H2855 H 0.84371 0.66132 0.82379 0.0
H2856 H 0.88201 0.69072 0.76447 0.0
H2857 H 0.87142 0.67509 0.78482 0.0
H2858 H 0.81176 0.62138 0.78566 0.0
C2859 C 0.7966 0.60974 0.83222 0.0
C2860 C 0.83672 0.65237 0.81555 0.0
C2861 C 0.79149 0.60102 0.84406 0.0
C2862 C 0.86628 0.68105 0.76603 0.0
C2863 C 0.8602 0.67208 0.77772 0.0
C2864 C 0.81872 0.6303 0.79391 0.0
C2865 C 0.81651 0.62328 0.82935 0.0
C2866 C 0.82208 0.63255 0.81673 0.0
C2867 C 0.83997 0.65921 0.78017 0.0
C2868 C 0.83356 0.65004 0.79275 0.0
H2869 H 0.83775 0.6232 0.85738 0.0
H2870 H 0.84667 0.63803 0.83673 0.0
H2871 H 0.80193 0.6063 0.80628 0.0
H2872 H 0.82086 0.66144 0.75175 0.0
H2873 H 0.81027 0.6457 0.77214 0.0
C2874 C 0.34404 0.1839 0.85369 0.0
C2875 C 0.35766 0.17809 0.85755 0.0
C2876 C 0.33676 0.18053 0.84139 0.0
C2877 C 0.34869 0.17148 0.80947 0.0
H2878 H 0.29374 0.15631 0.80247 0.0
C2879 C 0.31497 0.15215 0.75949 0.0
C2880 C 0.30294 0.16 0.75588 0.0
C2881 C 0.32116 0.15338 0.77196 0.0
C2882 C 0.30916 0.16069 0.80428 0.0
H2883 H 0.37419 0.16406 0.8515 0.0
H2884 H 0.36113 0.15779 0.83011 0.0
H2885 H 0.30525 0.1599 0.82416 0.0
H2886 H 0.28813 0.17543 0.76255 0.0
H2887 H 0.29884 0.17747 0.78431 0.0
H2888 H 0.3526 0.17232 0.78957 0.0
C2889 C 0.35628 0.16518 0.83656 0.0
C2890 C 0.31577 0.16276 0.8167 0.0
C2891 C 0.36359 0.16856 0.84887 0.0
C2892 C 0.29713 0.16897 0.76505 0.0
C2893 C 0.30327 0.17014 0.77752 0.0
C2894 C 0.34207 0.16936 0.79705 0.0
C2895 C 0.34289 0.17125 0.83265 0.0
C2896 C 0.33565 0.16831 0.81945 0.0
C2897 C 0.31541 0.16242 0.78111 0.0
C2898 C 0.32227 0.16407 0.79431 0.0
H2899 H 0.33899 0.19106 0.86018 0.0
H2900 H 0.32662 0.18558 0.83866 0.0
H2901 H 0.36417 0.17607 0.81125 0.0
H2902 H 0.31944 0.14486 0.75271 0.0
H2903 H 0.33028 0.14705 0.77447 0.0
C2904 C 0.83211 0.18909 0.85111 0.0
C2905 C 0.8124 0.184 0.85385 0.0
C2906 C 0.83716 0.1856 0.8392 0.0
C2907 C 0.81614 0.1565 0.81022 0.0
H2908 H 0.86417 0.19765 0.79511 0.0
C2909 C 0.83532 0.15454 0.75806 0.0
C2910 C 0.85533 0.16118 0.75509 0.0
C2911 C 0.82997 0.1568 0.77019 0.0
C2912 C 0.85085 0.1859 0.79924 0.0
H2913 H 0.7825 0.17107 0.84619 0.0
H2914 H 0.7913 0.16488 0.82539 0.0
H2915 H 0.85501 0.20228 0.81613 0.0
H2916 H 0.88539 0.17543 0.76261 0.0
H2917 H 0.87601 0.17895 0.78383 0.0
H2918 H 0.812 0.1401 0.79332 0.0
C2919 C 0.80282 0.17142 0.83252 0.0
C2920 C 0.84559 0.18856 0.8113 0.0
C2921 C 0.79777 0.17495 0.84444 0.0
C2922 C 0.86982 0.16999 0.76459 0.0
C2923 C 0.86447 0.17222 0.77672 0.0
C2924 C 0.82143 0.1538 0.79816 0.0
C2925 C 0.82261 0.17689 0.82973 0.0
C2926 C 0.82818 0.1739 0.81693 0.0
C2927 C 0.84448 0.16573 0.77966 0.0
C2928 C 0.83886 0.16848 0.79252 0.0
H2929 H 0.84368 0.19574 0.85821 0.0
H2930 H 0.85247 0.18966 0.83742 0.0
H2931 H 0.80276 0.14483 0.81435 0.0
H2932 H 0.82374 0.14748 0.75101 0.0
H2933 H 0.81446 0.1518 0.77209 0.0
C2934 C 0.32415 0.16714 0.49339 0.0
C2935 C 0.30819 0.1489 0.48964 0.0
C2936 C 0.33176 0.16999 0.50562 0.0
C2937 C 0.33337 0.14256 0.5333 0.0
H2938 H 0.34961 0.19135 0.55098 0.0
C2939 C 0.37307 0.15936 0.58136 0.0
C2940 C 0.36736 0.16852 0.59046 0.0
C2941 C 0.36651 0.15762 0.56895 0.0
C2942 C 0.34501 0.17758 0.5462 0.0
H2943 H 0.28728 0.11958 0.49588 0.0
H2944 H 0.30037 0.12458 0.5172 0.0
H2945 H 0.33637 0.18689 0.52967 0.0
H2946 H 0.35057 0.1834 0.59353 0.0
H2947 H 0.33867 0.17986 0.57196 0.0
H2948 H 0.34142 0.133 0.54993 0.0
C2949 C 0.30737 0.13655 0.51064 0.0
C2950 C 0.33765 0.17512 0.53393 0.0
C2951 C 0.29984 0.13368 0.49841 0.0
C2952 C 0.35505 0.17603 0.5868 0.0
C2953 C 0.34844 0.17423 0.57439 0.0
C2954 C 0.34067 0.145 0.54557 0.0
C2955 C 0.3235 0.1547 0.51438 0.0
C2956 C 0.33167 0.15754 0.52735 0.0
C2957 C 0.35402 0.16493 0.56532 0.0
C2958 C 0.34655 0.16252 0.55219 0.0
H2959 H 0.331 0.17908 0.48679 0.0
H2960 H 0.34435 0.18408 0.50814 0.0
H2961 H 0.32916 0.12893 0.52846 0.0
H2962 H 0.38237 0.15324 0.58387 0.0
H2963 H 0.37131 0.15059 0.56218 0.0
C2964 C 0.85598 0.12976 0.49951 0.0
C2965 C 0.86319 0.14466 0.49049 0.0
C2966 C 0.85062 0.13287 0.51143 0.0
C2967 C 0.8569 0.17176 0.53369 0.0
H2968 H 0.80889 0.12994 0.54838 0.0
C2969 C 0.80023 0.15788 0.57766 0.0
C2970 C 0.81411 0.16733 0.5874 0.0
C2971 C 0.80646 0.1555 0.56582 0.0
C2972 C 0.82224 0.14184 0.54438 0.0
H2973 H 0.87051 0.17457 0.48696 0.0
H2974 H 0.86109 0.17999 0.50776 0.0
H2975 H 0.81941 0.12524 0.52781 0.0
H2976 H 0.8455 0.18206 0.59224 0.0
H2977 H 0.85631 0.17754 0.57169 0.0
H2978 H 0.85948 0.1885 0.55016 0.0
C2979 C 0.85984 0.16597 0.50567 0.0
C2980 C 0.82843 0.13904 0.53264 0.0
C2981 C 0.86524 0.16287 0.49375 0.0
C2982 C 0.83439 0.1745 0.58499 0.0
C2983 C 0.84062 0.17212 0.57316 0.0
C2984 C 0.85071 0.17455 0.54543 0.0
C2985 C 0.85229 0.15094 0.51462 0.0
C2986 C 0.84584 0.15396 0.52715 0.0
C2987 C 0.82672 0.16251 0.56344 0.0
C2988 C 0.8333 0.15962 0.55092 0.0
H2989 H 0.85454 0.11567 0.49737 0.0
H2990 H 0.84523 0.1211 0.51817 0.0
H2991 H 0.87047 0.18349 0.52978 0.0
H2992 H 0.78449 0.15203 0.57922 0.0
H2993 H 0.79538 0.14823 0.55851 0.0
C2994 C 0.86454 0.7111 0.49231 0.0
C2995 C 0.86396 0.72834 0.48995 0.0
C2996 C 0.85969 0.70237 0.50415 0.0
C2997 C 0.85574 0.71253 0.53757 0.0
H2998 H 0.82126 0.65634 0.53962 0.0
C2999 C 0.82267 0.6736 0.58468 0.0
C3000 C 0.82056 0.65502 0.58655 0.0
C3001 C 0.82841 0.68276 0.573 0.0
C3002 C 0.83115 0.67201 0.53925 0.0
H3003 H 0.85825 0.75014 0.49831 0.0
H3004 H 0.84975 0.73489 0.51895 0.0
H3005 H 0.83067 0.67187 0.51916 0.0
H3006 H 0.82344 0.63179 0.57768 0.0
H3007 H 0.83374 0.64784 0.55742 0.0
H3008 H 0.85641 0.7127 0.55765 0.0
C3009 C 0.85397 0.72813 0.51164 0.0
C3010 C 0.83651 0.68092 0.52749 0.0
C3011 C 0.85866 0.73677 0.49977 0.0
C3012 C 0.82461 0.64596 0.5765 0.0
C3013 C 0.83047 0.65517 0.56486 0.0
C3014 C 0.85049 0.70361 0.54934 0.0
C3015 C 0.85431 0.71076 0.51395 0.0
C3016 C 0.84884 0.70129 0.5265 0.0
C3017 C 0.83232 0.67364 0.5629 0.0
C3018 C 0.83808 0.68321 0.55036 0.0
H3019 H 0.8684 0.70414 0.48493 0.0
H3020 H 0.86028 0.68909 0.50565 0.0
H3021 H 0.86547 0.72823 0.53713 0.0
H3022 H 0.81945 0.68087 0.59219 0.0
H3023 H 0.82937 0.69684 0.57183 0.0
loop_
_geom_bond_atom_site_label_1
_geom_bond_atom_site_label_2
_geom_bond_distance
_geom_bond_site_symmetry_2
_ccdc_geom_bond_type
C0 C1 1.384 . S
C0 H13 0.947 . S
C0 C35 1.382 . S
C1 C0 1.384 . S
C1 C2 1.378 . S
C2 C1 1.378 . S
C2 C3 1.378 . S
C2 H14 0.952 . S
C3 C2 1.378 . S
C3 H15 0.950 . S
C3 C34 1.383 . S
H4 C23 0.947 . S
H5 C24 0.946 . S
H6 C26 0.953 . S
H7 C27 0.945 . S
H8 C29 0.952 . S
H9 C30 0.949 . S
H10 C32 0.950 . S
H11 C33 0.948 . S
H12 C35 0.951 . S
H13 C0 0.947 . S
H14 C2 0.952 . S
H15 C3 0.950 . S
N16 C19 1.382 . S
N16 C21 1.363 . S
N17 C19 1.371 . S
N17 C20 1.372 . S
N18 C20 1.361 . S
N18 C21 1.377 . S
C19 N16 1.382 . S
C19 N17 1.371 . S
C19 C22 1.480 . S
C20 N17 1.372 . S
C20 N18 1.361 . S
C20 C28 1.457 . S
C21 N16 1.363 . S
C21 N18 1.377 . S
C21 C34 1.479 . S
C22 C19 1.480 . S
C22 C23 1.383 . S
C22 C27 1.385 . S
C23 H4 0.947 . S
C23 C22 1.383 . S
C23 C24 1.388 . S
C24 H5 0.946 . S
C24 C23 1.388 . S
C24 C25 1.384 . S
C25 C24 1.384 . S
C25 C26 1.377 . S
C26 H6 0.953 . S
C26 C25 1.377 . S
C26 C27 1.369 . S
C27 H7 0.945 . S
C27 C22 1.385 . S
C27 C26 1.369 . S
C28 C20 1.457 . S
C28 C29 1.372 . S
C28 C33 1.364 . S
C29 H8 0.952 . S
C29 C28 1.372 . S
C29 C30 1.389 . S
C30 H9 0.949 . S
C30 C29 1.389 . S
C30 C31 1.387 . S
C31 C30 1.387 . S
C31 C32 1.372 . S
C32 H10 0.950 . S
C32 C31 1.372 . S
C32 C33 1.379 . S
C33 H11 0.948 . S
C33 C28 1.364 . S
C33 C32 1.379 . S
C34 C3 1.383 . S
C34 C21 1.479 . S
C34 C35 1.398 . S
C35 C0 1.382 . S
C35 H12 0.951 . S
C35 C34 1.398 . S
C36 C37 1.384 . S
C36 H49 0.947 . S
C36 C71 1.382 . S
C37 C36 1.384 . S
C37 C38 1.378 . S
C38 C37 1.378 . S
C38 C39 1.378 . S
C38 H50 0.952 . S
C39 C38 1.378 . S
C39 H51 0.950 . S
C39 C70 1.383 . S
H40 C59 0.947 . S
H41 C60 0.946 . S
H42 C62 0.953 . S
H43 C63 0.945 . S
H44 C65 0.952 . S
H45 C66 0.949 . S
H46 C68 0.950 . S
H47 C69 0.948 . S
H48 C71 0.951 . S
H49 C36 0.947 . S
H50 C38 0.952 . S
H51 C39 0.950 . S
N52 C55 1.382 . S
N52 C57 1.363 . S
N53 C55 1.371 . S
N53 C56 1.372 . S
N54 C56 1.361 . S
N54 C57 1.377 . S
C55 N52 1.382 . S
C55 N53 1.371 . S
C55 C58 1.480 . S
C56 N53 1.372 . S
C56 N54 1.361 . S
C56 C64 1.457 . S
C57 N52 1.363 . S
C57 N54 1.377 . S
C57 C70 1.479 . S
C58 C55 1.480 . S
C58 C59 1.383 . S
C58 C63 1.385 . S
C59 H40 0.947 . S
C59 C58 1.383 . S
C59 C60 1.388 . S
C60 H41 0.946 . S
C60 C59 1.388 . S
C60 C61 1.384 . S
C61 C60 1.384 . S
C61 C62 1.377 . S
C62 H42 0.953 . S
C62 C61 1.377 . S
C62 C63 1.369 . S
C63 H43 0.945 . S
C63 C58 1.385 . S
C63 C62 1.369 . S
C64 C56 1.457 . S
C64 C65 1.372 . S
C64 C69 1.364 . S
C65 H44 0.952 . S
C65 C64 1.372 . S
C65 C66 1.389 . S
C66 H45 0.949 . S
C66 C65 1.389 . S
C66 C67 1.387 . S
C67 C66 1.387 . S
C67 C68 1.372 . S
C68 H46 0.950 . S
C68 C67 1.372 . S
C68 C69 1.379 . S
C69 H47 0.948 . S
C69 C64 1.364 . S
C69 C68 1.379 . S
C70 C39 1.383 . S
C70 C57 1.479 . S
C70 C71 1.398 . S
C71 C36 1.382 . S
C71 H48 0.951 . S
C71 C70 1.398 . S
C72 C73 1.384 . S
C72 H85 0.947 . S
C72 C107 1.382 . S
C73 C72 1.384 . S
C73 C74 1.378 . S
C74 C73 1.378 . S
C74 C75 1.378 . S
C74 H86 0.952 . S
C75 C74 1.378 . S
C75 H87 0.950 . S
C75 C106 1.383 . S
H76 C95 0.947 . S
H77 C96 0.946 . S
H78 C98 0.953 . S
H79 C99 0.945 . S
H80 C101 0.952 . S
H81 C102 0.949 . S
H82 C104 0.950 . S
H83 C105 0.948 . S
H84 C107 0.951 . S
H85 C72 0.947 . S
H86 C74 0.952 . S
H87 C75 0.950 . S
N88 C91 1.382 . S
N88 C93 1.363 . S
N89 C91 1.371 . S
N89 C92 1.372 . S
N90 C92 1.361 . S
N90 C93 1.377 . S
C91 N88 1.382 . S
C91 N89 1.371 . S
C91 C94 1.480 . S
C92 N89 1.372 . S
C92 N90 1.361 . S
C92 C100 1.457 . S
C93 N88 1.363 . S
C93 N90 1.377 . S
C93 C106 1.479 . S
C94 C91 1.480 . S
C94 C95 1.383 . S
C94 C99 1.385 . S
C95 H76 0.947 . S
C95 C94 1.383 . S
C95 C96 1.388 . S
C96 H77 0.946 . S
C96 C95 1.388 . S
C96 C97 1.384 . S
C97 C96 1.384 . S
C97 C98 1.377 . S
C98 H78 0.953 . S
C98 C97 1.377 . S
C98 C99 1.369 . S
C99 H79 0.945 . S
C99 C94 1.385 . S
C99 C98 1.369 . S
C100 C92 1.457 . S
C100 C101 1.372 . S
C100 C105 1.364 . S
C101 H80 0.952 . S
C101 C100 1.372 . S
C101 C102 1.389 . S
C102 H81 0.949 . S
C102 C101 1.389 . S
C102 C103 1.387 . S
C103 C102 1.387 . S
C103 C104 1.372 . S
C104 H82 0.950 . S
C104 C103 1.372 . S
C104 C105 1.379 . S
C105 H83 0.948 . S
C105 C100 1.364 . S
C105 C104 1.379 . S
C106 C75 1.383 . S
C106 C93 1.479 . S
C106 C107 1.398 . S
C107 C72 1.382 . S
C107 H84 0.951 . S
C107 C106 1.398 . S
C108 C109 1.384 . S
C108 H121 0.947 . S
C108 C143 1.382 . S
C109 C108 1.384 . S
C109 C110 1.378 . S
C110 C109 1.378 . S
C110 C111 1.378 . S
C110 H122 0.952 . S
C111 C110 1.378 . S
C111 H123 0.950 . S
C111 C142 1.383 . S
H112 C131 0.947 . S
H113 C132 0.946 . S
H114 C134 0.953 . S
H115 C135 0.945 . S
H116 C137 0.952 . S
H117 C138 0.949 . S
H118 C140 0.950 . S
H119 C141 0.948 . S
H120 C143 0.951 . S
H121 C108 0.947 . S
H122 C110 0.952 . S
H123 C111 0.950 . S
N124 C127 1.382 . S
N124 C129 1.363 . S
N125 C127 1.371 . S
N125 C128 1.372 . S
N126 C128 1.361 . S
N126 C129 1.377 . S
C127 N124 1.382 . S
C127 N125 1.371 . S
C127 C130 1.480 . S
C128 N125 1.372 . S
C128 N126 1.361 . S
C128 C136 1.457 . S
C129 N124 1.363 . S
C129 N126 1.377 . S
C129 C142 1.479 . S
C130 C127 1.480 . S
C130 C131 1.383 . S
C130 C135 1.385 . S
C131 H112 0.947 . S
C131 C130 1.383 . S
C131 C132 1.388 . S
C132 H113 0.946 . S
C132 C131 1.388 . S
C132 C133 1.384 . S
C133 C132 1.384 . S
C133 C134 1.377 . S
C134 H114 0.953 . S
C134 C133 1.377 . S
C134 C135 1.369 . S
C135 H115 0.945 . S
C135 C130 1.385 . S
C135 C134 1.369 . S
C136 C128 1.457 . S
C136 C137 1.372 . S
C136 C141 1.364 . S
C137 H116 0.952 . S
C137 C136 1.372 . S
C137 C138 1.389 . S
C138 H117 0.949 . S
C138 C137 1.389 . S
C138 C139 1.387 . S
C139 C138 1.387 . S
C139 C140 1.372 . S
C140 H118 0.950 . S
C140 C139 1.372 . S
C140 C141 1.379 . S
C141 H119 0.948 . S
C141 C136 1.364 . S
C141 C140 1.379 . S
C142 C111 1.383 . S
C142 C129 1.479 . S
C142 C143 1.398 . S
C143 C108 1.382 . S
C143 H120 0.951 . S
C143 C142 1.398 . S
C144 C145 1.384 . S
C144 H157 0.947 . S
C144 C179 1.382 . S
C145 C144 1.384 . S
C145 C146 1.378 . S
C146 C145 1.378 . S
C146 C147 1.378 . S
C146 H158 0.952 . S
C147 C146 1.378 . S
C147 H159 0.950 . S
C147 C178 1.383 . S
H148 C167 0.947 . S
H149 C168 0.946 . S
H150 C170 0.953 . S
H151 C171 0.945 . S
H152 C173 0.952 . S
H153 C174 0.949 . S
H154 C176 0.950 . S
H155 C177 0.948 . S
H156 C179 0.951 . S
H157 C144 0.947 . S
H158 C146 0.952 . S
H159 C147 0.950 . S
N160 C163 1.382 . S
N160 C165 1.363 . S
N161 C163 1.371 . S
N161 C164 1.372 . S
N162 C164 1.361 . S
N162 C165 1.377 . S
C163 N160 1.382 . S
C163 N161 1.371 . S
C163 C166 1.480 . S
C164 N161 1.372 . S
C164 N162 1.361 . S
C164 C172 1.457 . S
C165 N160 1.363 . S
C165 N162 1.377 . S
C165 C178 1.479 . S
C166 C163 1.480 . S
C166 C167 1.383 . S
C166 C171 1.385 . S
C167 H148 0.947 . S
C167 C166 1.383 . S
C167 C168 1.388 . S
C168 H149 0.946 . S
C168 C167 1.388 . S
C168 C169 1.384 . S
C169 C168 1.384 . S
C169 C170 1.377 . S
C170 H150 0.953 . S
C170 C169 1.377 . S
C170 C171 1.369 . S
C171 H151 0.945 . S
C171 C166 1.385 . S
C171 C170 1.369 . S
C172 C164 1.457 . S
C172 C173 1.372 . S
C172 C177 1.364 . S
C173 H152 0.952 . S
C173 C172 1.372 . S
C173 C174 1.389 . S
C174 H153 0.949 . S
C174 C173 1.389 . S
C174 C175 1.387 . S
C175 C174 1.387 . S
C175 C176 1.372 . S
C176 H154 0.950 . S
C176 C175 1.372 . S
C176 C177 1.379 . S
C177 H155 0.948 . S
C177 C172 1.364 . S
C177 C176 1.379 . S
C178 C147 1.383 . S
C178 C165 1.479 . S
C178 C179 1.398 . S
C179 C144 1.382 . S
C179 H156 0.951 . S
C179 C178 1.398 . S
C180 C181 1.384 . S
C180 H193 0.947 . S
C180 C215 1.382 . S
C181 C180 1.384 . S
C181 C182 1.378 . S
C182 C181 1.378 . S
C182 C183 1.378 . S
C182 H194 0.952 . S
C183 C182 1.378 . S
C183 H195 0.950 . S
C183 C214 1.383 . S
H184 C203 0.947 . S
H185 C204 0.946 . S
H186 C206 0.953 . S
H187 C207 0.945 . S
H188 C209 0.952 . S
H189 C210 0.949 . S
H190 C212 0.950 . S
H191 C213 0.948 . S
H192 C215 0.951 . S
H193 C180 0.947 . S
H194 C182 0.952 . S
H195 C183 0.950 . S
N196 C199 1.382 . S
N196 C201 1.363 . S
N197 C199 1.371 . S
N197 C200 1.372 . S
N198 C200 1.361 . S
N198 C201 1.377 . S
C199 N196 1.382 . S
C199 N197 1.371 . S
C199 C202 1.480 . S
C200 N197 1.372 . S
C200 N198 1.361 . S
C200 C208 1.457 . S
C201 N196 1.363 . S
C201 N198 1.377 . S
C201 C214 1.479 . S
C202 C199 1.480 . S
C202 C203 1.383 . S
C202 C207 1.385 . S
C203 H184 0.947 . S
C203 C202 1.383 . S
C203 C204 1.388 . S
C204 H185 0.946 . S
C204 C203 1.388 . S
C204 C205 1.384 . S
C205 C204 1.384 . S
C205 C206 1.377 . S
C206 H186 0.953 . S
C206 C205 1.377 . S
C206 C207 1.369 . S
C207 H187 0.945 . S
C207 C202 1.385 . S
C207 C206 1.369 . S
C208 C200 1.457 . S
C208 C209 1.372 . S
C208 C213 1.364 . S
C209 H188 0.952 . S
C209 C208 1.372 . S
C209 C210 1.389 . S
C210 H189 0.949 . S
C210 C209 1.389 . S
C210 C211 1.387 . S
C211 C210 1.387 . S
C211 C212 1.372 . S
C212 H190 0.950 . S
C212 C211 1.372 . S
C212 C213 1.379 . S
C213 H191 0.948 . S
C213 C208 1.364 . S
C213 C212 1.379 . S
C214 C183 1.383 . S
C214 C201 1.479 . S
C214 C215 1.398 . S
C215 C180 1.382 . S
C215 H192 0.951 . S
C215 C214 1.398 . S
C216 C217 1.384 . S
C216 H229 0.947 . S
C216 C251 1.382 . S
C217 C216 1.384 . S
C217 C218 1.378 . S
C218 C217 1.378 . S
C218 C219 1.378 . S
C218 H230 0.952 . S
C219 C218 1.378 . S
C219 H231 0.950 . S
C219 C250 1.383 . S
H220 C239 0.947 . S
H221 C240 0.946 . S
H222 C242 0.953 . S
H223 C243 0.945 . S
H224 C245 0.952 . S
H225 C246 0.949 . S
H226 C248 0.950 . S
H227 C249 0.948 . S
H228 C251 0.951 . S
H229 C216 0.947 . S
H230 C218 0.952 . S
H231 C219 0.950 . S
N232 C235 1.382 . S
N232 C237 1.363 . S
N233 C235 1.371 . S
N233 C236 1.372 . S
N234 C236 1.361 . S
N234 C237 1.377 . S
C235 N232 1.382 . S
C235 N233 1.371 . S
C235 C238 1.480 . S
C236 N233 1.372 . S
C236 N234 1.361 . S
C236 C244 1.457 . S
C237 N232 1.363 . S
C237 N234 1.377 . S
C237 C250 1.479 . S
C238 C235 1.480 . S
C238 C239 1.383 . S
C238 C243 1.385 . S
C239 H220 0.947 . S
C239 C238 1.383 . S
C239 C240 1.388 . S
C240 H221 0.946 . S
C240 C239 1.388 . S
C240 C241 1.384 . S
C241 C240 1.384 . S
C241 C242 1.377 . S
C242 H222 0.953 . S
C242 C241 1.377 . S
C242 C243 1.369 . S
C243 H223 0.945 . S
C243 C238 1.385 . S
C243 C242 1.369 . S
C244 C236 1.457 . S
C244 C245 1.372 . S
C244 C249 1.364 . S
C245 H224 0.952 . S
C245 C244 1.372 . S
C245 C246 1.389 . S
C246 H225 0.949 . S
C246 C245 1.389 . S
C246 C247 1.387 . S
C247 C246 1.387 . S
C247 C248 1.372 . S
C248 H226 0.950 . S
C248 C247 1.372 . S
C248 C249 1.379 . S
C249 H227 0.948 . S
C249 C244 1.364 . S
C249 C248 1.379 . S
C250 C219 1.383 . S
C250 C237 1.479 . S
C250 C251 1.398 . S
C251 C216 1.382 . S
C251 H228 0.951 . S
C251 C250 1.398 . S
C252 C253 1.384 . S
C252 H265 0.947 . S
C252 C287 1.382 . S
C253 C252 1.384 . S
C253 C254 1.378 . S
C254 C253 1.378 . S
C254 C255 1.378 . S
C254 H266 0.952 . S
C255 C254 1.378 . S
C255 H267 0.950 . S
C255 C286 1.383 . S
H256 C275 0.947 . S
H257 C276 0.946 . S
H258 C278 0.953 . S
H259 C279 0.945 . S
H260 C281 0.952 . S
H261 C282 0.949 . S
H262 C284 0.950 . S
H263 C285 0.948 . S
H264 C287 0.951 . S
H265 C252 0.947 . S
H266 C254 0.952 . S
H267 C255 0.950 . S
N268 C271 1.382 . S
N268 C273 1.363 . S
N269 C271 1.371 . S
N269 C272 1.372 . S
N270 C272 1.361 . S
N270 C273 1.377 . S
C271 N268 1.382 . S
C271 N269 1.371 . S
C271 C274 1.480 . S
C272 N269 1.372 . S
C272 N270 1.361 . S
C272 C280 1.457 . S
C273 N268 1.363 . S
C273 N270 1.377 . S
C273 C286 1.479 . S
C274 C271 1.480 . S
C274 C275 1.383 . S
C274 C279 1.385 . S
C275 H256 0.947 . S
C275 C274 1.383 . S
C275 C276 1.388 . S
C276 H257 0.946 . S
C276 C275 1.388 . S
C276 C277 1.384 . S
C277 C276 1.384 . S
C277 C278 1.377 . S
C278 H258 0.953 . S
C278 C277 1.377 . S
C278 C279 1.369 . S
C279 H259 0.945 . S
C279 C274 1.385 . S
C279 C278 1.369 . S
C280 C272 1.457 . S
C280 C281 1.372 . S
C280 C285 1.364 . S
C281 H260 0.952 . S
C281 C280 1.372 . S
C281 C282 1.389 . S
C282 H261 0.949 . S
C282 C281 1.389 . S
C282 C283 1.387 . S
C283 C282 1.387 . S
C283 C284 1.372 . S
C284 H262 0.950 . S
C284 C283 1.372 . S
C284 C285 1.379 . S
C285 H263 0.948 . S
C285 C280 1.364 . S
C285 C284 1.379 . S
C286 C255 1.383 . S
C286 C273 1.479 . S
C286 C287 1.398 . S
C287 C252 1.382 . S
C287 H264 0.951 . S
C287 C286 1.398 . S
C288 C289 1.384 . S
C288 H301 0.947 . S
C288 C323 1.382 . S
C289 C288 1.384 . S
C289 C290 1.378 . S
C290 C289 1.378 . S
C290 C291 1.378 . S
C290 H302 0.952 . S
C291 C290 1.378 . S
C291 H303 0.950 . S
C291 C322 1.383 . S
H292 C311 0.947 . S
H293 C312 0.946 . S
H294 C314 0.953 . S
H295 C315 0.945 . S
H296 C317 0.952 . S
H297 C318 0.949 . S
H298 C320 0.950 . S
H299 C321 0.948 . S
H300 C323 0.951 . S
H301 C288 0.947 . S
H302 C290 0.952 . S
H303 C291 0.950 . S
N304 C307 1.382 . S
N304 C309 1.363 . S
N305 C307 1.371 . S
N305 C308 1.372 . S
N306 C308 1.361 . S
N306 C309 1.377 . S
C307 N304 1.382 . S
C307 N305 1.371 . S
C307 C310 1.480 . S
C308 N305 1.372 . S
C308 N306 1.361 . S
C308 C316 1.457 . S
C309 N304 1.363 . S
C309 N306 1.377 . S
C309 C322 1.479 . S
C310 C307 1.480 . S
C310 C311 1.383 . S
C310 C315 1.385 . S
C311 H292 0.947 . S
C311 C310 1.383 . S
C311 C312 1.388 . S
C312 H293 0.946 . S
C312 C311 1.388 . S
C312 C313 1.384 . S
C313 C312 1.384 . S
C313 C314 1.377 . S
C314 H294 0.953 . S
C314 C313 1.377 . S
C314 C315 1.369 . S
C315 H295 0.945 . S
C315 C310 1.385 . S
C315 C314 1.369 . S
C316 C308 1.457 . S
C316 C317 1.372 . S
C316 C321 1.364 . S
C317 H296 0.952 . S
C317 C316 1.372 . S
C317 C318 1.389 . S
C318 H297 0.949 . S
C318 C317 1.389 . S
C318 C319 1.387 . S
C319 C318 1.387 . S
C319 C320 1.372 . S
C320 H298 0.950 . S
C320 C319 1.372 . S
C320 C321 1.379 . S
C321 H299 0.948 . S
C321 C316 1.364 . S
C321 C320 1.379 . S
C322 C291 1.383 . S
C322 C309 1.479 . S
C322 C323 1.398 . S
C323 C288 1.382 . S
C323 H300 0.951 . S
C323 C322 1.398 . S
C324 C325 1.384 . S
C324 H337 0.947 . S
C324 C359 1.382 . S
C325 C324 1.384 . S
C325 C326 1.378 . S
C326 C325 1.378 . S
C326 C327 1.378 . S
C326 H338 0.952 . S
C327 C326 1.378 . S
C327 H339 0.950 . S
C327 C358 1.383 . S
H328 C347 0.947 . S
H329 C348 0.946 . S
H330 C350 0.953 . S
H331 C351 0.945 . S
H332 C353 0.952 . S
H333 C354 0.949 . S
H334 C356 0.950 . S
H335 C357 0.948 . S
H336 C359 0.951 . S
H337 C324 0.947 . S
H338 C326 0.952 . S
H339 C327 0.950 . S
N340 C343 1.382 . S
N340 C345 1.363 . S
N341 C343 1.371 . S
N341 C344 1.372 . S
N342 C344 1.361 . S
N342 C345 1.377 . S
C343 N340 1.382 . S
C343 N341 1.371 . S
C343 C346 1.480 . S
C344 N341 1.372 . S
C344 N342 1.361 . S
C344 C352 1.457 . S
C345 N340 1.363 . S
C345 N342 1.377 . S
C345 C358 1.479 . S
C346 C343 1.480 . S
C346 C347 1.383 . S
C346 C351 1.385 . S
C347 H328 0.947 . S
C347 C346 1.383 . S
C347 C348 1.388 . S
C348 H329 0.946 . S
C348 C347 1.388 . S
C348 C349 1.384 . S
C349 C348 1.384 . S
C349 C350 1.377 . S
C350 H330 0.953 . S
C350 C349 1.377 . S
C350 C351 1.369 . S
C351 H331 0.945 . S
C351 C346 1.385 . S
C351 C350 1.369 . S
C352 C344 1.457 . S
C352 C353 1.372 . S
C352 C357 1.364 . S
C353 H332 0.952 . S
C353 C352 1.372 . S
C353 C354 1.389 . S
C354 H333 0.949 . S
C354 C353 1.389 . S
C354 C355 1.387 . S
C355 C354 1.387 . S
C355 C356 1.372 . S
C356 H334 0.950 . S
C356 C355 1.372 . S
C356 C357 1.379 . S
C357 H335 0.948 . S
C357 C352 1.364 . S
C357 C356 1.379 . S
C358 C327 1.383 . S
C358 C345 1.479 . S
C358 C359 1.398 . S
C359 C324 1.382 . S
C359 H336 0.951 . S
C359 C358 1.398 . S
C360 C361 1.384 . S
C360 H373 0.947 . S
C360 C395 1.382 . S
C361 C360 1.384 . S
C361 C362 1.378 . S
C362 C361 1.378 . S
C362 C363 1.378 . S
C362 H374 0.952 . S
C363 C362 1.378 . S
C363 H375 0.950 . S
C363 C394 1.383 . S
H364 C383 0.947 . S
H365 C384 0.946 . S
H366 C386 0.953 . S
H367 C387 0.945 . S
H368 C389 0.952 . S
H369 C390 0.949 . S
H370 C392 0.950 . S
H371 C393 0.948 . S
H372 C395 0.951 . S
H373 C360 0.947 . S
H374 C362 0.952 . S
H375 C363 0.950 . S
N376 C379 1.382 . S
N376 C381 1.363 . S
N377 C379 1.371 . S
N377 C380 1.372 . S
N378 C380 1.361 . S
N378 C381 1.377 . S
C379 N376 1.382 . S
C379 N377 1.371 . S
C379 C382 1.480 . S
C380 N377 1.372 . S
C380 N378 1.361 . S
C380 C388 1.457 . S
C381 N376 1.363 . S
C381 N378 1.377 . S
C381 C394 1.479 . S
C382 C379 1.480 . S
C382 C383 1.383 . S
C382 C387 1.385 . S
C383 H364 0.947 . S
C383 C382 1.383 . S
C383 C384 1.388 . S
C384 H365 0.946 . S
C384 C383 1.388 . S
C384 C385 1.384 . S
C385 C384 1.384 . S
C385 C386 1.377 . S
C386 H366 0.953 . S
C386 C385 1.377 . S
C386 C387 1.369 . S
C387 H367 0.945 . S
C387 C382 1.385 . S
C387 C386 1.369 . S
C388 C380 1.457 . S
C388 C389 1.372 . S
C388 C393 1.364 . S
C389 H368 0.952 . S
C389 C388 1.372 . S
C389 C390 1.389 . S
C390 H369 0.949 . S
C390 C389 1.389 . S
C390 C391 1.387 . S
C391 C390 1.387 . S
C391 C392 1.372 . S
C392 H370 0.950 . S
C392 C391 1.372 . S
C392 C393 1.379 . S
C393 H371 0.948 . S
C393 C388 1.364 . S
C393 C392 1.379 . S
C394 C363 1.383 . S
C394 C381 1.479 . S
C394 C395 1.398 . S
C395 C360 1.382 . S
C395 H372 0.951 . S
C395 C394 1.398 . S
C396 C397 1.384 . S
C396 H409 0.947 . S
C396 C431 1.382 . S
C397 C396 1.384 . S
C397 C398 1.378 . S
C398 C397 1.378 . S
C398 C399 1.378 . S
C398 H410 0.952 . S
C399 C398 1.378 . S
C399 H411 0.950 . S
C399 C430 1.383 . S
H400 C419 0.947 . S
H401 C420 0.946 . S
H402 C422 0.953 . S
H403 C423 0.945 . S
H404 C425 0.952 . S
H405 C426 0.949 . S
H406 C428 0.950 . S
H407 C429 0.948 . S
H408 C431 0.951 . S
H409 C396 0.947 . S
H410 C398 0.952 . S
H411 C399 0.950 . S
N412 C415 1.382 . S
N412 C417 1.363 . S
N413 C415 1.371 . S
N413 C416 1.372 . S
N414 C416 1.361 . S
N414 C417 1.377 . S
C415 N412 1.382 . S
C415 N413 1.371 . S
C415 C418 1.480 . S
C416 N413 1.372 . S
C416 N414 1.361 . S
C416 C424 1.457 . S
C417 N412 1.363 . S
C417 N414 1.377 . S
C417 C430 1.479 . S
C418 C415 1.480 . S
C418 C419 1.383 . S
C418 C423 1.385 . S
C419 H400 0.947 . S
C419 C418 1.383 . S
C419 C420 1.388 . S
C420 H401 0.946 . S
C420 C419 1.388 . S
C420 C421 1.384 . S
C421 C420 1.384 . S
C421 C422 1.377 . S
C422 H402 0.953 . S
C422 C421 1.377 . S
C422 C423 1.369 . S
C423 H403 0.945 . S
C423 C418 1.385 . S
C423 C422 1.369 . S
C424 C416 1.457 . S
C424 C425 1.372 . S
C424 C429 1.364 . S
C425 H404 0.952 . S
C425 C424 1.372 . S
C425 C426 1.389 . S
C426 H405 0.949 . S
C426 C425 1.389 . S
C426 C427 1.387 . S
C427 C426 1.387 . S
C427 C428 1.372 . S
C428 H406 0.950 . S
C428 C427 1.372 . S
C428 C429 1.379 . S
C429 H407 0.948 . S
C429 C424 1.364 . S
C429 C428 1.379 . S
C430 C399 1.383 . S
C430 C417 1.479 . S
C430 C431 1.398 . S
C431 C396 1.382 . S
C431 H408 0.951 . S
C431 C430 1.398 . S
C432 C433 1.384 . S
C432 H445 0.947 . S
C432 C467 1.382 . S
C433 C432 1.384 . S
C433 C434 1.378 . S
C434 C433 1.378 . S
C434 C435 1.378 . S
C434 H446 0.952 . S
C435 C434 1.378 . S
C435 H447 0.950 . S
C435 C466 1.383 . S
H436 C455 0.947 . S
H437 C456 0.946 . S
H438 C458 0.953 . S
H439 C459 0.945 . S
H440 C461 0.952 . S
H441 C462 0.949 . S
H442 C464 0.950 . S
H443 C465 0.948 . S
H444 C467 0.951 . S
H445 C432 0.947 . S
H446 C434 0.952 . S
H447 C435 0.950 . S
N448 C451 1.382 . S
N448 C453 1.363 . S
N449 C451 1.371 . S
N449 C452 1.372 . S
N450 C452 1.361 . S
N450 C453 1.377 . S
C451 N448 1.382 . S
C451 N449 1.371 . S
C451 C454 1.480 . S
C452 N449 1.372 . S
C452 N450 1.361 . S
C452 C460 1.457 . S
C453 N448 1.363 . S
C453 N450 1.377 . S
C453 C466 1.479 . S
C454 C451 1.480 . S
C454 C455 1.383 . S
C454 C459 1.385 . S
C455 H436 0.947 . S
C455 C454 1.383 . S
C455 C456 1.388 . S
C456 H437 0.946 . S
C456 C455 1.388 . S
C456 C457 1.384 . S
C457 C456 1.384 . S
C457 C458 1.377 . S
C458 H438 0.953 . S
C458 C457 1.377 . S
C458 C459 1.369 . S
C459 H439 0.945 . S
C459 C454 1.385 . S
C459 C458 1.369 . S
C460 C452 1.457 . S
C460 C461 1.372 . S
C460 C465 1.364 . S
C461 H440 0.952 . S
C461 C460 1.372 . S
C461 C462 1.389 . S
C462 H441 0.949 . S
C462 C461 1.389 . S
C462 C463 1.387 . S
C463 C462 1.387 . S
C463 C464 1.372 . S
C464 H442 0.950 . S
C464 C463 1.372 . S
C464 C465 1.379 . S
C465 H443 0.948 . S
C465 C460 1.364 . S
C465 C464 1.379 . S
C466 C435 1.383 . S
C466 C453 1.479 . S
C466 C467 1.398 . S
C467 C432 1.382 . S
C467 H444 0.951 . S
C467 C466 1.398 . S
C468 C469 1.384 . S
C468 H481 0.947 . S
C468 C503 1.382 . S
C469 C468 1.384 . S
C469 C470 1.378 . S
C470 C469 1.378 . S
C470 C471 1.378 . S
C470 H482 0.952 . S
C471 C470 1.378 . S
C471 H483 0.950 . S
C471 C502 1.383 . S
H472 C491 0.947 . S
H473 C492 0.946 . S
H474 C494 0.953 . S
H475 C495 0.945 . S
H476 C497 0.952 . S
H477 C498 0.949 . S
H478 C500 0.950 . S
H479 C501 0.948 . S
H480 C503 0.951 . S
H481 C468 0.947 . S
H482 C470 0.952 . S
H483 C471 0.950 . S
N484 C487 1.382 . S
N484 C489 1.363 . S
N485 C487 1.371 . S
N485 C488 1.372 . S
N486 C488 1.361 . S
N486 C489 1.377 . S
C487 N484 1.382 . S
C487 N485 1.371 . S
C487 C490 1.480 . S
C488 N485 1.372 . S
C488 N486 1.361 . S
C488 C496 1.457 . S
C489 N484 1.363 . S
C489 N486 1.377 . S
C489 C502 1.479 . S
C490 C487 1.480 . S
C490 C491 1.383 . S
C490 C495 1.385 . S
C491 H472 0.947 . S
C491 C490 1.383 . S
C491 C492 1.388 . S
C492 H473 0.946 . S
C492 C491 1.388 . S
C492 C493 1.384 . S
C493 C492 1.384 . S
C493 C494 1.377 . S
C494 H474 0.953 . S
C494 C493 1.377 . S
C494 C495 1.369 . S
C495 H475 0.945 . S
C495 C490 1.385 . S
C495 C494 1.369 . S
C496 C488 1.457 . S
C496 C497 1.372 . S
C496 C501 1.364 . S
C497 H476 0.952 . S
C497 C496 1.372 . S
C497 C498 1.389 . S
C498 H477 0.949 . S
C498 C497 1.389 . S
C498 C499 1.387 . S
C499 C498 1.387 . S
C499 C500 1.372 . S
C500 H478 0.950 . S
C500 C499 1.372 . S
C500 C501 1.379 . S
C501 H479 0.948 . S
C501 C496 1.364 . S
C501 C500 1.379 . S
C502 C471 1.383 . S
C502 C489 1.479 . S
C502 C503 1.398 . S
C503 C468 1.382 . S
C503 H480 0.951 . S
C503 C502 1.398 . S
C504 C505 1.384 . S
C504 H517 0.947 . S
C504 C539 1.382 . S
C505 C504 1.384 . S
C505 C506 1.378 . S
C506 C505 1.378 . S
C506 C507 1.378 . S
C506 H518 0.952 . S
C507 C506 1.378 . S
C507 H519 0.950 . S
C507 C538 1.383 . S
H508 C527 0.947 . S
H509 C528 0.946 . S
H510 C530 0.953 . S
H511 C531 0.945 . S
H512 C533 0.952 . S
H513 C534 0.949 . S
H514 C536 0.950 . S
H515 C537 0.948 . S
H516 C539 0.951 . S
H517 C504 0.947 . S
H518 C506 0.952 . S
H519 C507 0.950 . S
N520 C523 1.382 . S
N520 C525 1.363 . S
N521 C523 1.371 . S
N521 C524 1.372 . S
N522 C524 1.361 . S
N522 C525 1.377 . S
C523 N520 1.382 . S
C523 N521 1.371 . S
C523 C526 1.480 . S
C524 N521 1.372 . S
C524 N522 1.361 . S
C524 C532 1.457 . S
C525 N520 1.363 . S
C525 N522 1.377 . S
C525 C538 1.479 . S
C526 C523 1.480 . S
C526 C527 1.383 . S
C526 C531 1.385 . S
C527 H508 0.947 . S
C527 C526 1.383 . S
C527 C528 1.388 . S
C528 H509 0.946 . S
C528 C527 1.388 . S
C528 C529 1.384 . S
C529 C528 1.384 . S
C529 C530 1.377 . S
C530 H510 0.953 . S
C530 C529 1.377 . S
C530 C531 1.369 . S
C531 H511 0.945 . S
C531 C526 1.385 . S
C531 C530 1.369 . S
C532 C524 1.457 . S
C532 C533 1.372 . S
C532 C537 1.364 . S
C533 H512 0.952 . S
C533 C532 1.372 . S
C533 C534 1.389 . S
C534 H513 0.949 . S
C534 C533 1.389 . S
C534 C535 1.387 . S
C535 C534 1.387 . S
C535 C536 1.372 . S
C536 H514 0.950 . S
C536 C535 1.372 . S
C536 C537 1.379 . S
C537 H515 0.948 . S
C537 C532 1.364 . S
C537 C536 1.379 . S
C538 C507 1.383 . S
C538 C525 1.479 . S
C538 C539 1.398 . S
C539 C504 1.382 . S
C539 H516 0.951 . S
C539 C538 1.398 . S
C540 C541 1.384 . S
C540 H553 0.947 . S
C540 C575 1.382 . S
C541 C540 1.384 . S
C541 C542 1.378 . S
C542 C541 1.378 . S
C542 C543 1.378 . S
C542 H554 0.952 . S
C543 C542 1.378 . S
C543 H555 0.950 . S
C543 C574 1.383 . S
H544 C563 0.947 . S
H545 C564 0.946 . S
H546 C566 0.953 . S
H547 C567 0.945 . S
H548 C569 0.952 . S
H549 C570 0.949 . S
H550 C572 0.950 . S
H551 C573 0.948 . S
H552 C575 0.951 . S
H553 C540 0.947 . S
H554 C542 0.952 . S
H555 C543 0.950 . S
N556 C559 1.382 . S
N556 C561 1.363 . S
N557 C559 1.371 . S
N557 C560 1.372 . S
N558 C560 1.361 . S
N558 C561 1.377 . S
C559 N556 1.382 . S
C559 N557 1.371 . S
C559 C562 1.480 . S
C560 N557 1.372 . S
C560 N558 1.361 . S
C560 C568 1.457 . S
C561 N556 1.363 . S
C561 N558 1.377 . S
C561 C574 1.479 . S
C562 C559 1.480 . S
C562 C563 1.383 . S
C562 C567 1.385 . S
C563 H544 0.947 . S
C563 C562 1.383 . S
C563 C564 1.388 . S
C564 H545 0.946 . S
C564 C563 1.388 . S
C564 C565 1.384 . S
C565 C564 1.384 . S
C565 C566 1.377 . S
C566 H546 0.953 . S
C566 C565 1.377 . S
C566 C567 1.369 . S
C567 H547 0.945 . S
C567 C562 1.385 . S
C567 C566 1.369 . S
C568 C560 1.457 . S
C568 C569 1.372 . S
C568 C573 1.364 . S
C569 H548 0.952 . S
C569 C568 1.372 . S
C569 C570 1.389 . S
C570 H549 0.949 . S
C570 C569 1.389 . S
C570 C571 1.387 . S
C571 C570 1.387 . S
C571 C572 1.372 . S
C572 H550 0.950 . S
C572 C571 1.372 . S
C572 C573 1.379 . S
C573 H551 0.948 . S
C573 C568 1.364 . S
C573 C572 1.379 . S
C574 C543 1.383 . S
C574 C561 1.479 . S
C574 C575 1.398 . S
C575 C540 1.382 . S
C575 H552 0.951 . S
C575 C574 1.398 . S
C576 C577 1.384 . S
C576 H589 0.947 . S
C576 C611 1.382 . S
C577 C576 1.384 . S
C577 C578 1.378 . S
C578 C577 1.378 . S
C578 C579 1.378 . S
C578 H590 0.952 . S
C579 C578 1.378 . S
C579 H591 0.950 . S
C579 C610 1.383 . S
H580 C599 0.947 . S
H581 C600 0.946 . S
H582 C602 0.953 . S
H583 C603 0.945 . S
H584 C605 0.952 . S
H585 C606 0.949 . S
H586 C608 0.950 . S
H587 C609 0.948 . S
H588 C611 0.951 . S
H589 C576 0.947 . S
H590 C578 0.952 . S
H591 C579 0.950 . S
N592 C595 1.382 . S
N592 C597 1.363 . S
N593 C595 1.371 . S
N593 C596 1.372 . S
N594 C596 1.361 . S
N594 C597 1.377 . S
C595 N592 1.382 . S
C595 N593 1.371 . S
C595 C598 1.480 . S
C596 N593 1.372 . S
C596 N594 1.361 . S
C596 C604 1.457 . S
C597 N592 1.363 . S
C597 N594 1.377 . S
C597 C610 1.479 . S
C598 C595 1.480 . S
C598 C599 1.383 . S
C598 C603 1.385 . S
C599 H580 0.947 . S
C599 C598 1.383 . S
C599 C600 1.388 . S
C600 H581 0.946 . S
C600 C599 1.388 . S
C600 C601 1.384 . S
C601 C600 1.384 . S
C601 C602 1.377 . S
C602 H582 0.953 . S
C602 C601 1.377 . S
C602 C603 1.369 . S
C603 H583 0.945 . S
C603 C598 1.385 . S
C603 C602 1.369 . S
C604 C596 1.457 . S
C604 C605 1.372 . S
C604 C609 1.364 . S
C605 H584 0.952 . S
C605 C604 1.372 . S
C605 C606 1.389 . S
C606 H585 0.949 . S
C606 C605 1.389 . S
C606 C607 1.387 . S
C607 C606 1.387 . S
C607 C608 1.372 . S
C608 H586 0.950 . S
C608 C607 1.372 . S
C608 C609 1.379 . S
C609 H587 0.948 . S
C609 C604 1.364 . S
C609 C608 1.379 . S
C610 C579 1.383 . S
C610 C597 1.479 . S
C610 C611 1.398 . S
C611 C576 1.382 . S
C611 H588 0.951 . S
C611 C610 1.398 . S
C612 C613 1.384 . S
C612 H625 0.947 . S
C612 C647 1.382 . S
C613 C612 1.384 . S
C613 C614 1.378 . S
C614 C613 1.378 . S
C614 C615 1.378 . S
C614 H626 0.952 . S
C615 C614 1.378 . S
C615 H627 0.950 . S
C615 C646 1.383 . S
H616 C635 0.947 . S
H617 C636 0.946 . S
H618 C638 0.953 . S
H619 C639 0.945 . S
H620 C641 0.952 . S
H621 C642 0.949 . S
H622 C644 0.950 . S
H623 C645 0.948 . S
H624 C647 0.951 . S
H625 C612 0.947 . S
H626 C614 0.952 . S
H627 C615 0.950 . S
N628 C631 1.382 . S
N628 C633 1.363 . S
N629 C631 1.371 . S
N629 C632 1.372 . S
N630 C632 1.361 . S
N630 C633 1.377 . S
C631 N628 1.382 . S
C631 N629 1.371 . S
C631 C634 1.480 . S
C632 N629 1.372 . S
C632 N630 1.361 . S
C632 C640 1.457 . S
C633 N628 1.363 . S
C633 N630 1.377 . S
C633 C646 1.479 . S
C634 C631 1.480 . S
C634 C635 1.383 . S
C634 C639 1.385 . S
C635 H616 0.947 . S
C635 C634 1.383 . S
C635 C636 1.388 . S
C636 H617 0.946 . S
C636 C635 1.388 . S
C636 C637 1.384 . S
C637 C636 1.384 . S
C637 C638 1.377 . S
C638 H618 0.953 . S
C638 C637 1.377 . S
C638 C639 1.369 . S
C639 H619 0.945 . S
C639 C634 1.385 . S
C639 C638 1.369 . S
C640 C632 1.457 . S
C640 C641 1.372 . S
C640 C645 1.364 . S
C641 H620 0.952 . S
C641 C640 1.372 . S
C641 C642 1.389 . S
C642 H621 0.949 . S
C642 C641 1.389 . S
C642 C643 1.387 . S
C643 C642 1.387 . S
C643 C644 1.372 . S
C644 H622 0.950 . S
C644 C643 1.372 . S
C644 C645 1.379 . S
C645 H623 0.948 . S
C645 C640 1.364 . S
C645 C644 1.379 . S
C646 C615 1.383 . S
C646 C633 1.479 . S
C646 C647 1.398 . S
C647 C612 1.382 . S
C647 H624 0.951 . S
C647 C646 1.398 . S
Gd648 N679 2.661 . S
Gd648 N685 2.601 . S
Gd648 O692 2.545 . S
Gd648 O693 2.606 1_545 S
Gd648 O695 2.429 . S
Gd648 O696 2.545 1_545 S
Gd648 O697 2.412 . S
Gd648 O699 2.413 . S
Gd648 O700 2.324 1_545 S
Gd648 C707 2.828 . S
Gd649 N658 2.661 . S
Gd649 N662 2.601 . S
Gd649 O693 2.362 1_556 S
Gd649 O694 2.324 1_565 S
Gd649 O698 2.545 . S
Gd649 O699 2.576 1_566 S
Gd649 O701 2.451 . S
Gd649 O702 2.545 1_565 S
Gd649 O703 2.412 . S
Gd649 C716 2.828 . S
C650 C653 1.417 . S
C650 C655 1.431 . S
C650 C656 1.412 . S
C651 C654 1.437 . S
C651 C655 1.317 . S
C651 H670 0.929 . S
C652 C653 1.426 . S
C652 C654 1.413 . S
C652 N662 1.359 . S
C653 C650 1.417 . S
C653 C652 1.426 . S
C653 N658 1.350 . S
C654 C651 1.437 . S
C654 C652 1.413 . S
C654 C664 1.391 . S
C655 C650 1.431 . S
C655 C651 1.317 . S
C655 H666 0.930 . S
C656 C650 1.412 . S
C656 C657 1.355 . S
C656 H668 0.930 . S
C657 C656 1.355 . S
C657 C659 1.402 . S
C657 H669 0.930 . S
N658 Gd649 2.661 . S
N658 C653 1.350 . S
N658 C659 1.307 . S
C659 C657 1.402 . S
C659 N658 1.307 . S
C659 H660 0.930 . S
H660 C659 0.930 . S
C661 N662 1.334 . S
C661 C663 1.394 . S
C661 H665 0.930 . S
N662 Gd649 2.601 . S
N662 C652 1.359 . S
N662 C661 1.334 . S
C663 C661 1.394 . S
C663 C664 1.359 . S
C663 H675 0.930 . S
C664 C654 1.391 . S
C664 C663 1.359 . S
C664 H676 0.929 . S
H665 C661 0.930 . S
H666 C655 0.930 . S
H667 C684 0.930 . S
H668 C656 0.930 . S
H669 C657 0.930 . S
H670 C651 0.929 . S
H671 C689 0.930 . S
H672 C680 0.930 . S
H673 C681 0.930 . S
H674 C705 0.929 . S
H675 C663 0.930 . S
H676 C664 0.929 . S
H677 C706 0.930 . S
H678 C687 0.930 . S
N679 Gd648 2.661 . S
N679 C683 1.350 . S
N679 C684 1.307 . S
C680 H672 0.930 . S
C680 C681 1.355 . S
C680 C682 1.412 . S
C681 H673 0.930 . S
C681 C680 1.355 . S
C681 C684 1.402 . S
C682 C680 1.412 . S
C682 C683 1.417 . S
C682 C706 1.431 . S
C683 N679 1.350 . S
C683 C682 1.417 . S
C683 C686 1.426 . S
C684 H667 0.930 . S
C684 N679 1.307 . S
C684 C681 1.402 . S
N685 Gd648 2.601 . S
N685 C686 1.359 . S
N685 C689 1.334 . S
C686 C683 1.426 . S
C686 N685 1.359 . S
C686 C690 1.413 . S
C687 H678 0.930 . S
C687 C688 1.359 . S
C687 C689 1.394 . S
C688 C687 1.359 . S
C688 C690 1.391 . S
C688 H691 0.929 . S
C689 H671 0.930 . S
C689 N685 1.334 . S
C689 C687 1.394 . S
C690 C686 1.413 . S
C690 C688 1.391 . S
C690 C705 1.437 . S
H691 C688 0.929 . S
O692 Gd648 2.545 . S
O692 C707 1.258 . S
O693 Gd648 2.606 1_565 S
O693 Gd649 2.362 1_554 S
O693 C704 1.284 . S
O694 Gd649 2.324 1_545 S
O694 C714 1.254 . S
O695 Gd648 2.429 . S
O695 C714 1.268 1_554 S
O696 Gd648 2.545 1_565 S
O696 C704 1.250 . S
O697 Gd648 2.412 . S
O697 C707 1.252 . S
O698 Gd649 2.545 . S
O698 C716 1.258 . S
O699 Gd648 2.413 . S
O699 Gd649 2.576 1_544 S
O699 C715 1.244 1_554 S
O700 Gd648 2.324 1_565 S
O700 C723 1.254 . S
O701 Gd649 2.451 . S
O701 C723 1.230 1_556 S
O702 Gd649 2.545 1_545 S
O702 C715 1.250 . S
O703 Gd649 2.412 . S
O703 C716 1.252 . S
C704 O693 1.284 . S
C704 O696 1.250 . S
C705 H674 0.929 . S
C705 C690 1.437 . S
C705 C706 1.317 . S
C706 H677 0.930 . S
C706 C682 1.431 . S
C706 C705 1.317 . S
C707 Gd648 2.828 . S
C707 O692 1.258 . S
C707 O697 1.252 . S
C707 C708 1.497 . S
C708 C707 1.497 . S
C708 C709 1.395 . S
C708 C710 1.380 1_545 S
C709 C708 1.395 . S
C709 C712 1.398 . S
C709 H724 0.930 . S
C710 C708 1.380 1_565 S
C710 C711 1.391 . S
C710 H725 0.930 . S
C711 C710 1.391 . S
C711 C713 1.387 1_565 S
C712 C709 1.398 . S
C712 C713 1.380 . S
C712 H726 0.930 . S
C713 C711 1.387 1_545 S
C713 C712 1.380 . S
C713 H727 0.930 . S
C714 O694 1.254 . S
C714 O695 1.268 1_556 S
C715 O699 1.244 1_556 S
C715 O702 1.250 . S
C716 Gd649 2.828 . S
C716 O698 1.258 . S
C716 O703 1.252 . S
C716 C717 1.497 . S
C717 C716 1.497 . S
C717 C718 1.395 . S
C717 C719 1.380 1_565 S
C718 C717 1.395 . S
C718 C721 1.398 . S
C718 H728 0.930 . S
C719 C717 1.380 1_545 S
C719 C720 1.391 . S
C719 H729 0.930 . S
C720 C719 1.391 . S
C720 C722 1.387 1_545 S
C721 C718 1.398 . S
C721 C722 1.380 . S
C721 H730 0.930 . S
C722 C720 1.387 1_565 S
C722 C721 1.380 . S
C722 H731 0.930 . S
C723 O700 1.254 . S
C723 O701 1.230 1_554 S
H724 C709 0.930 . S
H725 C710 0.930 . S
H726 C712 0.930 . S
H727 C713 0.930 . S
H728 C718 0.930 . S
H729 C719 0.930 . S
H730 C721 0.930 . S
H731 C722 0.930 . S
Gd732 N763 2.661 . S
Gd732 N769 2.601 . S
Gd732 O776 2.545 . S
Gd732 O777 2.606 1_655 S
Gd732 O779 2.429 . S
Gd732 O780 2.545 1_655 S
Gd732 O781 2.412 . S
Gd732 O783 2.374 . S
Gd732 O784 2.324 1_655 S
Gd732 C791 2.828 . S
Gd733 N742 2.661 . S
Gd733 N746 2.601 . S
Gd733 O777 2.362 1_556 S
Gd733 O778 2.324 1_455 S
Gd733 O782 2.545 . S
Gd733 O783 2.599 1_456 S
Gd733 O785 2.428 1_556 S
Gd733 O786 2.545 1_455 S
Gd733 O787 2.412 . S
Gd733 C800 2.828 . S
C734 C737 1.417 . S
C734 C739 1.431 . S
C734 C740 1.412 . S
C735 C738 1.437 . S
C735 C739 1.317 . S
C735 H754 0.929 . S
C736 C737 1.426 . S
C736 C738 1.413 . S
C736 N746 1.359 . S
C737 C734 1.417 . S
C737 C736 1.426 . S
C737 N742 1.350 . S
C738 C735 1.437 . S
C738 C736 1.413 . S
C738 C748 1.391 . S
C739 C734 1.431 . S
C739 C735 1.317 . S
C739 H750 0.930 . S
C740 C734 1.412 . S
C740 C741 1.355 . S
C740 H752 0.930 . S
C741 C740 1.355 . S
C741 C743 1.402 . S
C741 H753 0.930 . S
N742 Gd733 2.661 . S
N742 C737 1.350 . S
N742 C743 1.307 . S
C743 C741 1.402 . S
C743 N742 1.307 . S
C743 H744 0.930 . S
H744 C743 0.930 . S
C745 N746 1.334 . S
C745 C747 1.394 . S
C745 H749 0.930 . S
N746 Gd733 2.601 . S
N746 C736 1.359 . S
N746 C745 1.334 . S
C747 C745 1.394 . S
C747 C748 1.359 . S
C747 H759 0.930 . S
C748 C738 1.391 . S
C748 C747 1.359 . S
C748 H760 0.929 . S
H749 C745 0.930 . S
H750 C739 0.930 . S
H751 C768 0.930 . S
H752 C740 0.930 . S
H753 C741 0.930 . S
H754 C735 0.929 . S
H755 C773 0.930 . S
H756 C764 0.930 . S
H757 C765 0.930 . S
H758 C789 0.929 . S
H759 C747 0.930 . S
H760 C748 0.929 . S
H761 C790 0.930 . S
H762 C771 0.930 . S
N763 Gd732 2.661 . S
N763 C767 1.350 . S
N763 C768 1.307 . S
C764 H756 0.930 . S
C764 C765 1.355 . S
C764 C766 1.412 . S
C765 H757 0.930 . S
C765 C764 1.355 . S
C765 C768 1.402 . S
C766 C764 1.412 . S
C766 C767 1.417 . S
C766 C790 1.431 . S
C767 N763 1.350 . S
C767 C766 1.417 . S
C767 C770 1.426 . S
C768 H751 0.930 . S
C768 N763 1.307 . S
C768 C765 1.402 . S
N769 Gd732 2.601 . S
N769 C770 1.359 . S
N769 C773 1.334 . S
C770 C767 1.426 . S
C770 N769 1.359 . S
C770 C774 1.413 . S
C771 H762 0.930 . S
C771 C772 1.359 . S
C771 C773 1.394 . S
C772 C771 1.359 . S
C772 C774 1.391 . S
C772 H775 0.929 . S
C773 H755 0.930 . S
C773 N769 1.334 . S
C773 C771 1.394 . S
C774 C770 1.413 . S
C774 C772 1.391 . S
C774 C789 1.437 . S
H775 C772 0.929 . S
O776 Gd732 2.545 . S
O776 C791 1.258 . S
O777 Gd732 2.606 1_455 S
O777 Gd733 2.362 1_554 S
O777 C788 1.284 . S
O778 Gd733 2.324 1_655 S
O778 C798 1.254 . S
O779 Gd732 2.429 . S
O779 C798 1.268 1_554 S
O780 Gd732 2.545 1_455 S
O780 C788 1.250 . S
O781 Gd732 2.412 . S
O781 C791 1.252 . S
O782 Gd733 2.545 . S
O782 C800 1.258 . S
O783 Gd732 2.374 . S
O783 Gd733 2.599 1_654 S
O783 C799 1.275 1_554 S
O784 Gd732 2.324 1_455 S
O784 C807 1.254 . S
O785 Gd733 2.428 1_554 S
O785 C807 1.271 . S
O786 Gd733 2.545 1_655 S
O786 C799 1.250 . S
O787 Gd733 2.412 . S
O787 C800 1.252 . S
C788 O777 1.284 . S
C788 O780 1.250 . S
C789 H758 0.929 . S
C789 C774 1.437 . S
C789 C790 1.317 . S
C790 H761 0.930 . S
C790 C766 1.431 . S
C790 C789 1.317 . S
C791 Gd732 2.828 . S
C791 O776 1.258 . S
C791 O781 1.252 . S
C791 C792 1.497 . S
C792 C791 1.497 . S
C792 C793 1.395 . S
C792 C794 1.380 1_655 S
C793 C792 1.395 . S
C793 C796 1.398 . S
C793 H808 0.930 . S
C794 C792 1.380 1_455 S
C794 C795 1.391 . S
C794 H809 0.930 . S
C795 C794 1.391 . S
C795 C797 1.387 1_455 S
C796 C793 1.398 . S
C796 C797 1.380 . S
C796 H810 0.930 . S
C797 C795 1.387 1_655 S
C797 C796 1.380 . S
C797 H811 0.930 . S
C798 O778 1.254 . S
C798 O779 1.268 1_556 S
C799 O783 1.275 1_556 S
C799 O786 1.250 . S
C800 Gd733 2.828 . S
C800 O782 1.258 . S
C800 O787 1.252 . S
C800 C801 1.497 . S
C801 C800 1.497 . S
C801 C802 1.395 . S
C801 C803 1.380 1_455 S
C802 C801 1.395 . S
C802 C805 1.398 . S
C802 H812 0.930 . S
C803 C801 1.380 1_655 S
C803 C804 1.391 . S
C803 H813 0.930 . S
C804 C803 1.391 . S
C804 C806 1.387 1_655 S
C805 C802 1.398 . S
C805 C806 1.380 . S
C805 H814 0.930 . S
C806 C804 1.387 1_455 S
C806 C805 1.380 . S
C806 H815 0.930 . S
C807 O784 1.254 . S
C807 O785 1.271 . S
H808 C793 0.930 . S
H809 C794 0.930 . S
H810 C796 0.930 . S
H811 C797 0.930 . S
H812 C802 0.930 . S
H813 C803 0.930 . S
H814 C805 0.930 . S
H815 C806 0.930 . S
Gd816 N847 2.661 . S
Gd816 N853 2.601 . S
Gd816 O860 2.545 . S
Gd816 O861 2.589 1_556 S
Gd816 O863 2.434 . S
Gd816 O864 2.545 . S
Gd816 O865 2.412 . S
Gd816 O867 2.362 1_556 S
Gd816 O868 2.324 . S
Gd816 C875 2.828 . S
Gd817 N826 2.661 . S
Gd817 N830 2.601 . S
Gd817 O861 2.392 . S
Gd817 O862 2.324 . S
Gd817 O866 2.545 . S
Gd817 O867 2.606 . S
Gd817 O869 2.429 . S
Gd817 O870 2.545 . S
Gd817 O871 2.412 . S
Gd817 C884 2.828 . S
C818 C821 1.417 . S
C818 C823 1.431 . S
C818 C824 1.412 . S
C819 C822 1.437 . S
C819 C823 1.317 . S
C819 H838 0.929 . S
C820 C821 1.426 . S
C820 C822 1.413 . S
C820 N830 1.359 . S
C821 C818 1.417 . S
C821 C820 1.426 . S
C821 N826 1.350 . S
C822 C819 1.437 . S
C822 C820 1.413 . S
C822 C832 1.391 . S
C823 C818 1.431 . S
C823 C819 1.317 . S
C823 H834 0.930 . S
C824 C818 1.412 . S
C824 C825 1.355 . S
C824 H836 0.930 . S
C825 C824 1.355 . S
C825 C827 1.402 . S
C825 H837 0.930 . S
N826 Gd817 2.661 . S
N826 C821 1.350 . S
N826 C827 1.307 . S
C827 C825 1.402 . S
C827 N826 1.307 . S
C827 H828 0.930 . S
H828 C827 0.930 . S
C829 N830 1.334 . S
C829 C831 1.394 . S
C829 H833 0.930 . S
N830 Gd817 2.601 . S
N830 C820 1.359 . S
N830 C829 1.334 . S
C831 C829 1.394 . S
C831 C832 1.359 . S
C831 H843 0.930 . S
C832 C822 1.391 . S
C832 C831 1.359 . S
C832 H844 0.929 . S
H833 C829 0.930 . S
H834 C823 0.930 . S
H835 C852 0.930 . S
H836 C824 0.930 . S
H837 C825 0.930 . S
H838 C819 0.929 . S
H839 C857 0.930 . S
H840 C848 0.930 . S
H841 C849 0.930 . S
H842 C873 0.929 . S
H843 C831 0.930 . S
H844 C832 0.929 . S
H845 C874 0.930 . S
H846 C855 0.930 . S
N847 Gd816 2.661 . S
N847 C851 1.350 . S
N847 C852 1.307 . S
C848 H840 0.930 . S
C848 C849 1.355 . S
C848 C850 1.412 . S
C849 H841 0.930 . S
C849 C848 1.355 . S
C849 C852 1.402 . S
C850 C848 1.412 . S
C850 C851 1.417 . S
C850 C874 1.431 . S
C851 N847 1.350 . S
C851 C850 1.417 . S
C851 C854 1.426 . S
C852 H835 0.930 . S
C852 N847 1.307 . S
C852 C849 1.402 . S
N853 Gd816 2.601 . S
N853 C854 1.359 . S
N853 C857 1.334 . S
C854 C851 1.426 . S
C854 N853 1.359 . S
C854 C858 1.413 . S
C855 H846 0.930 . S
C855 C856 1.359 . S
C855 C857 1.394 . S
C856 C855 1.359 . S
C856 C858 1.391 . S
C856 H859 0.929 . S
C857 H839 0.930 . S
C857 N853 1.334 . S
C857 C855 1.394 . S
C858 C854 1.413 . S
C858 C856 1.391 . S
C858 C873 1.437 . S
H859 C856 0.929 . S
O860 Gd816 2.545 . S
O860 C875 1.258 . S
O861 Gd816 2.589 1_554 S
O861 Gd817 2.392 . S
O861 C872 1.260 1_554 S
O862 Gd817 2.324 . S
O862 C882 1.254 . S
O863 Gd816 2.434 . S
O863 C882 1.259 1_556 S
O864 Gd816 2.545 . S
O864 C872 1.250 . S
O865 Gd816 2.412 . S
O865 C875 1.252 . S
O866 Gd817 2.545 . S
O866 C884 1.258 . S
O867 Gd816 2.362 1_554 S
O867 Gd817 2.606 . S
O867 C883 1.284 . S
O868 Gd816 2.324 . S
O868 C891 1.254 . S
O869 Gd817 2.429 . S
O869 C891 1.268 1_554 S
O870 Gd817 2.545 . S
O870 C883 1.250 . S
O871 Gd817 2.412 . S
O871 C884 1.252 . S
C872 O861 1.260 1_556 S
C872 O864 1.250 . S
C873 H842 0.929 . S
C873 C858 1.437 . S
C873 C874 1.317 . S
C874 H845 0.930 . S
C874 C850 1.431 . S
C874 C873 1.317 . S
C875 Gd816 2.828 . S
C875 O860 1.258 . S
C875 O865 1.252 . S
C875 C876 1.497 . S
C876 C875 1.497 . S
C876 C877 1.395 . S
C876 C878 1.380 . S
C877 C876 1.395 . S
C877 C880 1.398 . S
C877 H892 0.930 . S
C878 C876 1.380 . S
C878 C879 1.391 . S
C878 H893 0.930 . S
C879 C878 1.391 . S
C879 C881 1.387 . S
C880 C877 1.398 . S
C880 C881 1.380 . S
C880 H894 0.930 . S
C881 C879 1.387 . S
C881 C880 1.380 . S
C881 H895 0.930 . S
C882 O862 1.254 . S
C882 O863 1.259 1_554 S
C883 O867 1.284 . S
C883 O870 1.250 . S
C884 Gd817 2.828 . S
C884 O866 1.258 . S
C884 O871 1.252 . S
C884 C885 1.497 . S
C885 C884 1.497 . S
C885 C886 1.395 . S
C885 C887 1.380 . S
C886 C885 1.395 . S
C886 C889 1.398 . S
C886 H896 0.930 . S
C887 C885 1.380 . S
C887 C888 1.391 . S
C887 H897 0.930 . S
C888 C887 1.391 . S
C888 C890 1.387 . S
C889 C886 1.398 . S
C889 C890 1.380 . S
C889 H898 0.930 . S
C890 C888 1.387 . S
C890 C889 1.380 . S
C890 H899 0.930 . S
C891 O868 1.254 . S
C891 O869 1.268 1_556 S
H892 C877 0.930 . S
H893 C878 0.930 . S
H894 C880 0.930 . S
H895 C881 0.930 . S
H896 C886 0.930 . S
H897 C887 0.930 . S
H898 C889 0.930 . S
H899 C890 0.930 . S
Gd900 N931 2.661 . S
Gd900 N937 2.601 . S
Gd900 O944 2.545 . S
Gd900 O945 2.606 . S
Gd900 O947 2.429 . S
Gd900 O948 2.545 . S
Gd900 O949 2.412 . S
Gd900 O951 2.362 . S
Gd900 O952 2.324 . S
Gd900 C959 2.828 . S
Gd901 N910 2.661 . S
Gd901 N914 2.601 . S
Gd901 O945 2.362 . S
Gd901 O946 2.324 . S
Gd901 O950 2.545 . S
Gd901 O951 2.606 . S
Gd901 O953 2.429 . S
Gd901 O954 2.545 . S
Gd901 O955 2.412 . S
Gd901 C968 2.828 . S
C902 C905 1.417 . S
C902 C907 1.431 . S
C902 C908 1.412 . S
C903 C906 1.437 . S
C903 C907 1.317 . S
C903 H922 0.929 . S
C904 C905 1.426 . S
C904 C906 1.413 . S
C904 N914 1.359 . S
C905 C902 1.417 . S
C905 C904 1.426 . S
C905 N910 1.350 . S
C906 C903 1.437 . S
C906 C904 1.413 . S
C906 C916 1.391 . S
C907 C902 1.431 . S
C907 C903 1.317 . S
C907 H918 0.930 . S
C908 C902 1.412 . S
C908 C909 1.355 . S
C908 H920 0.930 . S
C909 C908 1.355 . S
C909 C911 1.402 . S
C909 H921 0.930 . S
N910 Gd901 2.661 . S
N910 C905 1.350 . S
N910 C911 1.307 . S
C911 C909 1.402 . S
C911 N910 1.307 . S
C911 H912 0.930 . S
H912 C911 0.930 . S
C913 N914 1.334 . S
C913 C915 1.394 . S
C913 H917 0.930 . S
N914 Gd901 2.601 . S
N914 C904 1.359 . S
N914 C913 1.334 . S
C915 C913 1.394 . S
C915 C916 1.359 . S
C915 H927 0.930 . S
C916 C906 1.391 . S
C916 C915 1.359 . S
C916 H928 0.929 . S
H917 C913 0.930 . S
H918 C907 0.930 . S
H919 C936 0.930 . S
H920 C908 0.930 . S
H921 C909 0.930 . S
H922 C903 0.929 . S
H923 C941 0.930 . S
H924 C932 0.930 . S
H925 C933 0.930 . S
H926 C957 0.929 . S
H927 C915 0.930 . S
H928 C916 0.929 . S
H929 C958 0.930 . S
H930 C939 0.930 . S
N931 Gd900 2.661 . S
N931 C935 1.350 . S
N931 C936 1.307 . S
C932 H924 0.930 . S
C932 C933 1.355 . S
C932 C934 1.412 . S
C933 H925 0.930 . S
C933 C932 1.355 . S
C933 C936 1.402 . S
C934 C932 1.412 . S
C934 C935 1.417 . S
C934 C958 1.431 . S
C935 N931 1.350 . S
C935 C934 1.417 . S
C935 C938 1.426 . S
C936 H919 0.930 . S
C936 N931 1.307 . S
C936 C933 1.402 . S
N937 Gd900 2.601 . S
N937 C938 1.359 . S
N937 C941 1.334 . S
C938 C935 1.426 . S
C938 N937 1.359 . S
C938 C942 1.413 . S
C939 H930 0.930 . S
C939 C940 1.359 . S
C939 C941 1.394 . S
C940 C939 1.359 . S
C940 C942 1.391 . S
C940 H943 0.929 . S
C941 H923 0.930 . S
C941 N937 1.334 . S
C941 C939 1.394 . S
C942 C938 1.413 . S
C942 C940 1.391 . S
C942 C957 1.437 . S
H943 C940 0.929 . S
O944 Gd900 2.545 . S
O944 C959 1.258 . S
O945 Gd900 2.606 . S
O945 Gd901 2.362 . S
O945 C956 1.284 . S
O946 Gd901 2.324 . S
O946 C966 1.254 . S
O947 Gd900 2.429 . S
O947 C966 1.268 . S
O948 Gd900 2.545 . S
O948 C956 1.250 . S
O949 Gd900 2.412 . S
O949 C959 1.252 . S
O950 Gd901 2.545 . S
O950 C968 1.258 . S
O951 Gd900 2.362 . S
O951 Gd901 2.606 . S
O951 C967 1.284 . S
O952 Gd900 2.324 . S
O952 C975 1.254 . S
O953 Gd901 2.429 . S
O953 C975 1.268 . S
O954 Gd901 2.545 . S
O954 C967 1.250 . S
O955 Gd901 2.412 . S
O955 C968 1.252 . S
C956 O945 1.284 . S
C956 O948 1.250 . S
C957 H926 0.929 . S
C957 C942 1.437 . S
C957 C958 1.317 . S
C958 H929 0.930 . S
C958 C934 1.431 . S
C958 C957 1.317 . S
C959 Gd900 2.828 . S
C959 O944 1.258 . S
C959 O949 1.252 . S
C959 C960 1.497 . S
C960 C959 1.497 . S
C960 C961 1.395 . S
C960 C962 1.380 . S
C961 C960 1.395 . S
C961 C964 1.398 . S
C961 H976 0.930 . S
C962 C960 1.380 . S
C962 C963 1.391 . S
C962 H977 0.930 . S
C963 C962 1.391 . S
C963 C965 1.387 . S
C964 C961 1.398 . S
C964 C965 1.380 . S
C964 H978 0.930 . S
C965 C963 1.387 . S
C965 C964 1.380 . S
C965 H979 0.930 . S
C966 O946 1.254 . S
C966 O947 1.268 . S
C967 O951 1.284 . S
C967 O954 1.250 . S
C968 Gd901 2.828 . S
C968 O950 1.258 . S
C968 O955 1.252 . S
C968 C969 1.497 . S
C969 C968 1.497 . S
C969 C970 1.395 . S
C969 C971 1.380 . S
C970 C969 1.395 . S
C970 C973 1.398 . S
C970 H980 0.930 . S
C971 C969 1.380 . S
C971 C972 1.391 . S
C971 H981 0.930 . S
C972 C971 1.391 . S
C972 C974 1.387 . S
C973 C970 1.398 . S
C973 C974 1.380 . S
C973 H982 0.930 . S
C974 C972 1.387 . S
C974 C973 1.380 . S
C974 H983 0.930 . S
C975 O952 1.254 . S
C975 O953 1.268 . S
H976 C961 0.930 . S
H977 C962 0.930 . S
H978 C964 0.930 . S
H979 C965 0.930 . S
H980 C970 0.930 . S
H981 C971 0.930 . S
H982 C973 0.930 . S
H983 C974 0.930 . S
Gd984 N1015 2.661 . S
Gd984 N1021 2.601 . S
Gd984 O1028 2.545 . S
Gd984 O1029 2.606 . S
Gd984 O1031 2.429 . S
Gd984 O1032 2.545 . S
Gd984 O1033 2.412 . S
Gd984 O1035 2.362 . S
Gd984 O1036 2.324 . S
Gd984 C1043 2.828 . S
Gd985 N994 2.661 . S
Gd985 N998 2.601 . S
Gd985 O1029 2.362 . S
Gd985 O1030 2.324 . S
Gd985 O1034 2.545 . S
Gd985 O1035 2.606 . S
Gd985 O1037 2.429 . S
Gd985 O1038 2.545 . S
Gd985 O1039 2.412 . S
Gd985 C1052 2.828 . S
C986 C989 1.417 . S
C986 C991 1.431 . S
C986 C992 1.412 . S
C987 C990 1.437 . S
C987 C991 1.317 . S
C987 H1006 0.929 . S
C988 C989 1.426 . S
C988 C990 1.413 . S
C988 N998 1.359 . S
C989 C986 1.417 . S
C989 C988 1.426 . S
C989 N994 1.350 . S
C990 C987 1.437 . S
C990 C988 1.413 . S
C990 C1000 1.391 . S
C991 C986 1.431 . S
C991 C987 1.317 . S
C991 H1002 0.930 . S
C992 C986 1.412 . S
C992 C993 1.355 . S
C992 H1004 0.930 . S
C993 C992 1.355 . S
C993 C995 1.402 . S
C993 H1005 0.930 . S
N994 Gd985 2.661 . S
N994 C989 1.350 . S
N994 C995 1.307 . S
C995 C993 1.402 . S
C995 N994 1.307 . S
C995 H996 0.930 . S
H996 C995 0.930 . S
C997 N998 1.334 . S
C997 C999 1.394 . S
C997 H1001 0.930 . S
N998 Gd985 2.601 . S
N998 C988 1.359 . S
N998 C997 1.334 . S
C999 C997 1.394 . S
C999 C1000 1.359 . S
C999 H1011 0.930 . S
C1000 C990 1.391 . S
C1000 C999 1.359 . S
C1000 H1012 0.929 . S
H1001 C997 0.930 . S
H1002 C991 0.930 . S
H1003 C1020 0.930 . S
H1004 C992 0.930 . S
H1005 C993 0.930 . S
H1006 C987 0.929 . S
H1007 C1025 0.930 . S
H1008 C1016 0.930 . S
H1009 C1017 0.930 . S
H1010 C1041 0.929 . S
H1011 C999 0.930 . S
H1012 C1000 0.929 . S
H1013 C1042 0.930 . S
H1014 C1023 0.930 . S
N1015 Gd984 2.661 . S
N1015 C1019 1.350 . S
N1015 C1020 1.307 . S
C1016 H1008 0.930 . S
C1016 C1017 1.355 . S
C1016 C1018 1.412 . S
C1017 H1009 0.930 . S
C1017 C1016 1.355 . S
C1017 C1020 1.402 . S
C1018 C1016 1.412 . S
C1018 C1019 1.417 . S
C1018 C1042 1.431 . S
C1019 N1015 1.350 . S
C1019 C1018 1.417 . S
C1019 C1022 1.426 . S
C1020 H1003 0.930 . S
C1020 N1015 1.307 . S
C1020 C1017 1.402 . S
N1021 Gd984 2.601 . S
N1021 C1022 1.359 . S
N1021 C1025 1.334 . S
C1022 C1019 1.426 . S
C1022 N1021 1.359 . S
C1022 C1026 1.413 . S
C1023 H1014 0.930 . S
C1023 C1024 1.359 . S
C1023 C1025 1.394 . S
C1024 C1023 1.359 . S
C1024 C1026 1.391 . S
C1024 H1027 0.929 . S
C1025 H1007 0.930 . S
C1025 N1021 1.334 . S
C1025 C1023 1.394 . S
C1026 C1022 1.413 . S
C1026 C1024 1.391 . S
C1026 C1041 1.437 . S
H1027 C1024 0.929 . S
O1028 Gd984 2.545 . S
O1028 C1043 1.258 . S
O1029 Gd984 2.606 . S
O1029 Gd985 2.362 . S
O1029 C1040 1.284 . S
O1030 Gd985 2.324 . S
O1030 C1050 1.254 . S
O1031 Gd984 2.429 . S
O1031 C1050 1.268 . S
O1032 Gd984 2.545 . S
O1032 C1040 1.250 . S
O1033 Gd984 2.412 . S
O1033 C1043 1.252 . S
O1034 Gd985 2.545 . S
O1034 C1052 1.258 . S
O1035 Gd984 2.362 . S
O1035 Gd985 2.606 . S
O1035 C1051 1.284 . S
O1036 Gd984 2.324 . S
O1036 C1059 1.254 . S
O1037 Gd985 2.429 . S
O1037 C1059 1.268 . S
O1038 Gd985 2.545 . S
O1038 C1051 1.250 . S
O1039 Gd985 2.412 . S
O1039 C1052 1.252 . S
C1040 O1029 1.284 . S
C1040 O1032 1.250 . S
C1041 H1010 0.929 . S
C1041 C1026 1.437 . S
C1041 C1042 1.317 . S
C1042 H1013 0.930 . S
C1042 C1018 1.431 . S
C1042 C1041 1.317 . S
C1043 Gd984 2.828 . S
C1043 O1028 1.258 . S
C1043 O1033 1.252 . S
C1043 C1044 1.497 . S
C1044 C1043 1.497 . S
C1044 C1045 1.395 . S
C1044 C1046 1.380 . S
C1045 C1044 1.395 . S
C1045 C1048 1.398 . S
C1045 H1060 0.930 . S
C1046 C1044 1.380 . S
C1046 C1047 1.391 . S
C1046 H1061 0.930 . S
C1047 C1046 1.391 . S
C1047 C1049 1.387 . S
C1048 C1045 1.398 . S
C1048 C1049 1.380 . S
C1048 H1062 0.930 . S
C1049 C1047 1.387 . S
C1049 C1048 1.380 . S
C1049 H1063 0.930 . S
C1050 O1030 1.254 . S
C1050 O1031 1.268 . S
C1051 O1035 1.284 . S
C1051 O1038 1.250 . S
C1052 Gd985 2.828 . S
C1052 O1034 1.258 . S
C1052 O1039 1.252 . S
C1052 C1053 1.497 . S
C1053 C1052 1.497 . S
C1053 C1054 1.395 . S
C1053 C1055 1.380 . S
C1054 C1053 1.395 . S
C1054 C1057 1.398 . S
C1054 H1064 0.930 . S
C1055 C1053 1.380 . S
C1055 C1056 1.391 . S
C1055 H1065 0.930 . S
C1056 C1055 1.391 . S
C1056 C1058 1.387 . S
C1057 C1054 1.398 . S
C1057 C1058 1.380 . S
C1057 H1066 0.930 . S
C1058 C1056 1.387 . S
C1058 C1057 1.380 . S
C1058 H1067 0.930 . S
C1059 O1036 1.254 . S
C1059 O1037 1.268 . S
H1060 C1045 0.930 . S
H1061 C1046 0.930 . S
H1062 C1048 0.930 . S
H1063 C1049 0.930 . S
H1064 C1054 0.930 . S
H1065 C1055 0.930 . S
H1066 C1057 0.930 . S
H1067 C1058 0.930 . S
Gd1068 N1099 2.661 . S
Gd1068 N1105 2.601 . S
Gd1068 O1112 2.545 . S
Gd1068 O1113 2.606 . S
Gd1068 O1115 2.429 . S
Gd1068 O1116 2.545 . S
Gd1068 O1117 2.412 . S
Gd1068 O1119 2.362 . S
Gd1068 O1120 2.324 . S
Gd1068 C1127 2.828 . S
Gd1069 N1078 2.661 . S
Gd1069 N1082 2.601 . S
Gd1069 O1113 2.362 . S
Gd1069 O1114 2.324 . S
Gd1069 O1118 2.545 . S
Gd1069 O1119 2.606 . S
Gd1069 O1121 2.429 . S
Gd1069 O1122 2.545 . S
Gd1069 O1123 2.412 . S
Gd1069 C1136 2.828 . S
C1070 C1073 1.417 . S
C1070 C1075 1.431 . S
C1070 C1076 1.412 . S
C1071 C1074 1.437 . S
C1071 C1075 1.317 . S
C1071 H1090 0.929 . S
C1072 C1073 1.426 . S
C1072 C1074 1.413 . S
C1072 N1082 1.359 . S
C1073 C1070 1.417 . S
C1073 C1072 1.426 . S
C1073 N1078 1.350 . S
C1074 C1071 1.437 . S
C1074 C1072 1.413 . S
C1074 C1084 1.391 . S
C1075 C1070 1.431 . S
C1075 C1071 1.317 . S
C1075 H1086 0.930 . S
C1076 C1070 1.412 . S
C1076 C1077 1.355 . S
C1076 H1088 0.930 . S
C1077 C1076 1.355 . S
C1077 C1079 1.402 . S
C1077 H1089 0.930 . S
N1078 Gd1069 2.661 . S
N1078 C1073 1.350 . S
N1078 C1079 1.307 . S
C1079 C1077 1.402 . S
C1079 N1078 1.307 . S
C1079 H1080 0.930 . S
H1080 C1079 0.930 . S
C1081 N1082 1.334 . S
C1081 C1083 1.394 . S
C1081 H1085 0.930 . S
N1082 Gd1069 2.601 . S
N1082 C1072 1.359 . S
N1082 C1081 1.334 . S
C1083 C1081 1.394 . S
C1083 C1084 1.359 . S
C1083 H1095 0.930 . S
C1084 C1074 1.391 . S
C1084 C1083 1.359 . S
C1084 H1096 0.929 . S
H1085 C1081 0.930 . S
H1086 C1075 0.930 . S
H1087 C1104 0.930 . S
H1088 C1076 0.930 . S
H1089 C1077 0.930 . S
H1090 C1071 0.929 . S
H1091 C1109 0.930 . S
H1092 C1100 0.930 . S
H1093 C1101 0.930 . S
H1094 C1125 0.929 . S
H1095 C1083 0.930 . S
H1096 C1084 0.929 . S
H1097 C1126 0.930 . S
H1098 C1107 0.930 . S
N1099 Gd1068 2.661 . S
N1099 C1103 1.350 . S
N1099 C1104 1.307 . S
C1100 H1092 0.930 . S
C1100 C1101 1.355 . S
C1100 C1102 1.412 . S
C1101 H1093 0.930 . S
C1101 C1100 1.355 . S
C1101 C1104 1.402 . S
C1102 C1100 1.412 . S
C1102 C1103 1.417 . S
C1102 C1126 1.431 . S
C1103 N1099 1.350 . S
C1103 C1102 1.417 . S
C1103 C1106 1.426 . S
C1104 H1087 0.930 . S
C1104 N1099 1.307 . S
C1104 C1101 1.402 . S
N1105 Gd1068 2.601 . S
N1105 C1106 1.359 . S
N1105 C1109 1.334 . S
C1106 C1103 1.426 . S
C1106 N1105 1.359 . S
C1106 C1110 1.413 . S
C1107 H1098 0.930 . S
C1107 C1108 1.359 . S
C1107 C1109 1.394 . S
C1108 C1107 1.359 . S
C1108 C1110 1.391 . S
C1108 H1111 0.929 . S
C1109 H1091 0.930 . S
C1109 N1105 1.334 . S
C1109 C1107 1.394 . S
C1110 C1106 1.413 . S
C1110 C1108 1.391 . S
C1110 C1125 1.437 . S
H1111 C1108 0.929 . S
O1112 Gd1068 2.545 . S
O1112 C1127 1.258 . S
O1113 Gd1068 2.606 . S
O1113 Gd1069 2.362 . S
O1113 C1124 1.284 . S
O1114 Gd1069 2.324 . S
O1114 C1134 1.254 . S
O1115 Gd1068 2.429 . S
O1115 C1134 1.268 . S
O1116 Gd1068 2.545 . S
O1116 C1124 1.250 . S
O1117 Gd1068 2.412 . S
O1117 C1127 1.252 . S
O1118 Gd1069 2.545 . S
O1118 C1136 1.258 . S
O1119 Gd1068 2.362 . S
O1119 Gd1069 2.606 . S
O1119 C1135 1.284 . S
O1120 Gd1068 2.324 . S
O1120 C1143 1.254 . S
O1121 Gd1069 2.429 . S
O1121 C1143 1.268 . S
O1122 Gd1069 2.545 . S
O1122 C1135 1.250 . S
O1123 Gd1069 2.412 . S
O1123 C1136 1.252 . S
C1124 O1113 1.284 . S
C1124 O1116 1.250 . S
C1125 H1094 0.929 . S
C1125 C1110 1.437 . S
C1125 C1126 1.317 . S
C1126 H1097 0.930 . S
C1126 C1102 1.431 . S
C1126 C1125 1.317 . S
C1127 Gd1068 2.828 . S
C1127 O1112 1.258 . S
C1127 O1117 1.252 . S
C1127 C1128 1.497 . S
C1128 C1127 1.497 . S
C1128 C1129 1.395 . S
C1128 C1130 1.380 . S
C1129 C1128 1.395 . S
C1129 C1132 1.398 . S
C1129 H1144 0.930 . S
C1130 C1128 1.380 . S
C1130 C1131 1.391 . S
C1130 H1145 0.930 . S
C1131 C1130 1.391 . S
C1131 C1133 1.387 . S
C1132 C1129 1.398 . S
C1132 C1133 1.380 . S
C1132 H1146 0.930 . S
C1133 C1131 1.387 . S
C1133 C1132 1.380 . S
C1133 H1147 0.930 . S
C1134 O1114 1.254 . S
C1134 O1115 1.268 . S
C1135 O1119 1.284 . S
C1135 O1122 1.250 . S
C1136 Gd1069 2.828 . S
C1136 O1118 1.258 . S
C1136 O1123 1.252 . S
C1136 C1137 1.497 . S
C1137 C1136 1.497 . S
C1137 C1138 1.395 . S
C1137 C1139 1.380 . S
C1138 C1137 1.395 . S
C1138 C1141 1.398 . S
C1138 H1148 0.930 . S
C1139 C1137 1.380 . S
C1139 C1140 1.391 . S
C1139 H1149 0.930 . S
C1140 C1139 1.391 . S
C1140 C1142 1.387 . S
C1141 C1138 1.398 . S
C1141 C1142 1.380 . S
C1141 H1150 0.930 . S
C1142 C1140 1.387 . S
C1142 C1141 1.380 . S
C1142 H1151 0.930 . S
C1143 O1120 1.254 . S
C1143 O1121 1.268 . S
H1144 C1129 0.930 . S
H1145 C1130 0.930 . S
H1146 C1132 0.930 . S
H1147 C1133 0.930 . S
H1148 C1138 0.930 . S
H1149 C1139 0.930 . S
H1150 C1141 0.930 . S
H1151 C1142 0.930 . S
Gd1152 N1183 2.661 . S
Gd1152 N1189 2.601 . S
Gd1152 O1196 2.545 . S
Gd1152 O1197 2.606 . S
Gd1152 O1199 2.429 . S
Gd1152 O1200 2.545 . S
Gd1152 O1201 2.412 . S
Gd1152 O1203 2.362 . S
Gd1152 O1204 2.324 . S
Gd1152 C1211 2.828 . S
Gd1153 N1162 2.661 . S
Gd1153 N1166 2.601 . S
Gd1153 O1197 2.362 . S
Gd1153 O1198 2.324 . S
Gd1153 O1202 2.545 . S
Gd1153 O1203 2.606 . S
Gd1153 O1205 2.429 . S
Gd1153 O1206 2.545 . S
Gd1153 O1207 2.412 . S
Gd1153 C1220 2.828 . S
C1154 C1157 1.417 . S
C1154 C1159 1.431 . S
C1154 C1160 1.412 . S
C1155 C1158 1.437 . S
C1155 C1159 1.317 . S
C1155 H1174 0.929 . S
C1156 C1157 1.426 . S
C1156 C1158 1.413 . S
C1156 N1166 1.359 . S
C1157 C1154 1.417 . S
C1157 C1156 1.426 . S
C1157 N1162 1.350 . S
C1158 C1155 1.437 . S
C1158 C1156 1.413 . S
C1158 C1168 1.391 . S
C1159 C1154 1.431 . S
C1159 C1155 1.317 . S
C1159 H1170 0.930 . S
C1160 C1154 1.412 . S
C1160 C1161 1.355 . S
C1160 H1172 0.930 . S
C1161 C1160 1.355 . S
C1161 C1163 1.402 . S
C1161 H1173 0.930 . S
N1162 Gd1153 2.661 . S
N1162 C1157 1.350 . S
N1162 C1163 1.307 . S
C1163 C1161 1.402 . S
C1163 N1162 1.307 . S
C1163 H1164 0.930 . S
H1164 C1163 0.930 . S
C1165 N1166 1.334 . S
C1165 C1167 1.394 . S
C1165 H1169 0.930 . S
N1166 Gd1153 2.601 . S
N1166 C1156 1.359 . S
N1166 C1165 1.334 . S
C1167 C1165 1.394 . S
C1167 C1168 1.359 . S
C1167 H1179 0.930 . S
C1168 C1158 1.391 . S
C1168 C1167 1.359 . S
C1168 H1180 0.929 . S
H1169 C1165 0.930 . S
H1170 C1159 0.930 . S
H1171 C1188 0.930 . S
H1172 C1160 0.930 . S
H1173 C1161 0.930 . S
H1174 C1155 0.929 . S
H1175 C1193 0.930 . S
H1176 C1184 0.930 . S
H1177 C1185 0.930 . S
H1178 C1209 0.929 . S
H1179 C1167 0.930 . S
H1180 C1168 0.929 . S
H1181 C1210 0.930 . S
H1182 C1191 0.930 . S
N1183 Gd1152 2.661 . S
N1183 C1187 1.350 . S
N1183 C1188 1.307 . S
C1184 H1176 0.930 . S
C1184 C1185 1.355 . S
C1184 C1186 1.412 . S
C1185 H1177 0.930 . S
C1185 C1184 1.355 . S
C1185 C1188 1.402 . S
C1186 C1184 1.412 . S
C1186 C1187 1.417 . S
C1186 C1210 1.431 . S
C1187 N1183 1.350 . S
C1187 C1186 1.417 . S
C1187 C1190 1.426 . S
C1188 H1171 0.930 . S
C1188 N1183 1.307 . S
C1188 C1185 1.402 . S
N1189 Gd1152 2.601 . S
N1189 C1190 1.359 . S
N1189 C1193 1.334 . S
C1190 C1187 1.426 . S
C1190 N1189 1.359 . S
C1190 C1194 1.413 . S
C1191 H1182 0.930 . S
C1191 C1192 1.359 . S
C1191 C1193 1.394 . S
C1192 C1191 1.359 . S
C1192 C1194 1.391 . S
C1192 H1195 0.929 . S
C1193 H1175 0.930 . S
C1193 N1189 1.334 . S
C1193 C1191 1.394 . S
C1194 C1190 1.413 . S
C1194 C1192 1.391 . S
C1194 C1209 1.437 . S
H1195 C1192 0.929 . S
O1196 Gd1152 2.545 . S
O1196 C1211 1.258 . S
O1197 Gd1152 2.606 . S
O1197 Gd1153 2.362 . S
O1197 C1208 1.284 . S
O1198 Gd1153 2.324 . S
O1198 C1218 1.254 . S
O1199 Gd1152 2.429 . S
O1199 C1218 1.268 . S
O1200 Gd1152 2.545 . S
O1200 C1208 1.250 . S
O1201 Gd1152 2.412 . S
O1201 C1211 1.252 . S
O1202 Gd1153 2.545 . S
O1202 C1220 1.258 . S
O1203 Gd1152 2.362 . S
O1203 Gd1153 2.606 . S
O1203 C1219 1.284 . S
O1204 Gd1152 2.324 . S
O1204 C1227 1.254 . S
O1205 Gd1153 2.429 . S
O1205 C1227 1.268 . S
O1206 Gd1153 2.545 . S
O1206 C1219 1.250 . S
O1207 Gd1153 2.412 . S
O1207 C1220 1.252 . S
C1208 O1197 1.284 . S
C1208 O1200 1.250 . S
C1209 H1178 0.929 . S
C1209 C1194 1.437 . S
C1209 C1210 1.317 . S
C1210 H1181 0.930 . S
C1210 C1186 1.431 . S
C1210 C1209 1.317 . S
C1211 Gd1152 2.828 . S
C1211 O1196 1.258 . S
C1211 O1201 1.252 . S
C1211 C1212 1.497 . S
C1212 C1211 1.497 . S
C1212 C1213 1.395 . S
C1212 C1214 1.380 . S
C1213 C1212 1.395 . S
C1213 C1216 1.398 . S
C1213 H1228 0.930 . S
C1214 C1212 1.380 . S
C1214 C1215 1.391 . S
C1214 H1229 0.930 . S
C1215 C1214 1.391 . S
C1215 C1217 1.387 . S
C1216 C1213 1.398 . S
C1216 C1217 1.380 . S
C1216 H1230 0.930 . S
C1217 C1215 1.387 . S
C1217 C1216 1.380 . S
C1217 H1231 0.930 . S
C1218 O1198 1.254 . S
C1218 O1199 1.268 . S
C1219 O1203 1.284 . S
C1219 O1206 1.250 . S
C1220 Gd1153 2.828 . S
C1220 O1202 1.258 . S
C1220 O1207 1.252 . S
C1220 C1221 1.497 . S
C1221 C1220 1.497 . S
C1221 C1222 1.395 . S
C1221 C1223 1.380 . S
C1222 C1221 1.395 . S
C1222 C1225 1.398 . S
C1222 H1232 0.930 . S
C1223 C1221 1.380 . S
C1223 C1224 1.391 . S
C1223 H1233 0.930 . S
C1224 C1223 1.391 . S
C1224 C1226 1.387 . S
C1225 C1222 1.398 . S
C1225 C1226 1.380 . S
C1225 H1234 0.930 . S
C1226 C1224 1.387 . S
C1226 C1225 1.380 . S
C1226 H1235 0.930 . S
C1227 O1204 1.254 . S
C1227 O1205 1.268 . S
H1228 C1213 0.930 . S
H1229 C1214 0.930 . S
H1230 C1216 0.930 . S
H1231 C1217 0.930 . S
H1232 C1222 0.930 . S
H1233 C1223 0.930 . S
H1234 C1225 0.930 . S
H1235 C1226 0.930 . S
Gd1236 N1267 2.661 . S
Gd1236 N1273 2.601 . S
Gd1236 O1280 2.545 . S
Gd1236 O1281 2.606 . S
Gd1236 O1283 2.429 . S
Gd1236 O1284 2.545 . S
Gd1236 O1285 2.412 . S
Gd1236 O1287 2.362 . S
Gd1236 O1288 2.324 . S
Gd1236 C1295 2.828 . S
Gd1237 N1246 2.661 . S
Gd1237 N1250 2.601 . S
Gd1237 O1281 2.362 . S
Gd1237 O1282 2.324 . S
Gd1237 O1286 2.545 . S
Gd1237 O1287 2.606 . S
Gd1237 O1289 2.429 . S
Gd1237 O1290 2.545 . S
Gd1237 O1291 2.412 . S
Gd1237 C1304 2.828 . S
C1238 C1241 1.417 . S
C1238 C1243 1.431 . S
C1238 C1244 1.412 . S
C1239 C1242 1.437 . S
C1239 C1243 1.317 . S
C1239 H1258 0.929 . S
C1240 C1241 1.426 . S
C1240 C1242 1.413 . S
C1240 N1250 1.359 . S
C1241 C1238 1.417 . S
C1241 C1240 1.426 . S
C1241 N1246 1.350 . S
C1242 C1239 1.437 . S
C1242 C1240 1.413 . S
C1242 C1252 1.391 . S
C1243 C1238 1.431 . S
C1243 C1239 1.317 . S
C1243 H1254 0.930 . S
C1244 C1238 1.412 . S
C1244 C1245 1.355 . S
C1244 H1256 0.930 . S
C1245 C1244 1.355 . S
C1245 C1247 1.402 . S
C1245 H1257 0.930 . S
N1246 Gd1237 2.661 . S
N1246 C1241 1.350 . S
N1246 C1247 1.307 . S
C1247 C1245 1.402 . S
C1247 N1246 1.307 . S
C1247 H1248 0.930 . S
H1248 C1247 0.930 . S
C1249 N1250 1.334 . S
C1249 C1251 1.394 . S
C1249 H1253 0.930 . S
N1250 Gd1237 2.601 . S
N1250 C1240 1.359 . S
N1250 C1249 1.334 . S
C1251 C1249 1.394 . S
C1251 C1252 1.359 . S
C1251 H1263 0.930 . S
C1252 C1242 1.391 . S
C1252 C1251 1.359 . S
C1252 H1264 0.929 . S
H1253 C1249 0.930 . S
H1254 C1243 0.930 . S
H1255 C1272 0.930 . S
H1256 C1244 0.930 . S
H1257 C1245 0.930 . S
H1258 C1239 0.929 . S
H1259 C1277 0.930 . S
H1260 C1268 0.930 . S
H1261 C1269 0.930 . S
H1262 C1293 0.929 . S
H1263 C1251 0.930 . S
H1264 C1252 0.929 . S
H1265 C1294 0.930 . S
H1266 C1275 0.930 . S
N1267 Gd1236 2.661 . S
N1267 C1271 1.350 . S
N1267 C1272 1.307 . S
C1268 H1260 0.930 . S
C1268 C1269 1.355 . S
C1268 C1270 1.412 . S
C1269 H1261 0.930 . S
C1269 C1268 1.355 . S
C1269 C1272 1.402 . S
C1270 C1268 1.412 . S
C1270 C1271 1.417 . S
C1270 C1294 1.431 . S
C1271 N1267 1.350 . S
C1271 C1270 1.417 . S
C1271 C1274 1.426 . S
C1272 H1255 0.930 . S
C1272 N1267 1.307 . S
C1272 C1269 1.402 . S
N1273 Gd1236 2.601 . S
N1273 C1274 1.359 . S
N1273 C1277 1.334 . S
C1274 C1271 1.426 . S
C1274 N1273 1.359 . S
C1274 C1278 1.413 . S
C1275 H1266 0.930 . S
C1275 C1276 1.359 . S
C1275 C1277 1.394 . S
C1276 C1275 1.359 . S
C1276 C1278 1.391 . S
C1276 H1279 0.929 . S
C1277 H1259 0.930 . S
C1277 N1273 1.334 . S
C1277 C1275 1.394 . S
C1278 C1274 1.413 . S
C1278 C1276 1.391 . S
C1278 C1293 1.437 . S
H1279 C1276 0.929 . S
O1280 Gd1236 2.545 . S
O1280 C1295 1.258 . S
O1281 Gd1236 2.606 . S
O1281 Gd1237 2.362 . S
O1281 C1292 1.284 . S
O1282 Gd1237 2.324 . S
O1282 C1302 1.254 . S
O1283 Gd1236 2.429 . S
O1283 C1302 1.268 . S
O1284 Gd1236 2.545 . S
O1284 C1292 1.250 . S
O1285 Gd1236 2.412 . S
O1285 C1295 1.252 . S
O1286 Gd1237 2.545 . S
O1286 C1304 1.258 . S
O1287 Gd1236 2.362 . S
O1287 Gd1237 2.606 . S
O1287 C1303 1.284 . S
O1288 Gd1236 2.324 . S
O1288 C1311 1.254 . S
O1289 Gd1237 2.429 . S
O1289 C1311 1.268 . S
O1290 Gd1237 2.545 . S
O1290 C1303 1.250 . S
O1291 Gd1237 2.412 . S
O1291 C1304 1.252 . S
C1292 O1281 1.284 . S
C1292 O1284 1.250 . S
C1293 H1262 0.929 . S
C1293 C1278 1.437 . S
C1293 C1294 1.317 . S
C1294 H1265 0.930 . S
C1294 C1270 1.431 . S
C1294 C1293 1.317 . S
C1295 Gd1236 2.828 . S
C1295 O1280 1.258 . S
C1295 O1285 1.252 . S
C1295 C1296 1.497 . S
C1296 C1295 1.497 . S
C1296 C1297 1.395 . S
C1296 C1298 1.380 . S
C1297 C1296 1.395 . S
C1297 C1300 1.398 . S
C1297 H1312 0.930 . S
C1298 C1296 1.380 . S
C1298 C1299 1.391 . S
C1298 H1313 0.930 . S
C1299 C1298 1.391 . S
C1299 C1301 1.387 . S
C1300 C1297 1.398 . S
C1300 C1301 1.380 . S
C1300 H1314 0.930 . S
C1301 C1299 1.387 . S
C1301 C1300 1.380 . S
C1301 H1315 0.930 . S
C1302 O1282 1.254 . S
C1302 O1283 1.268 . S
C1303 O1287 1.284 . S
C1303 O1290 1.250 . S
C1304 Gd1237 2.828 . S
C1304 O1286 1.258 . S
C1304 O1291 1.252 . S
C1304 C1305 1.497 . S
C1305 C1304 1.497 . S
C1305 C1306 1.395 . S
C1305 C1307 1.380 . S
C1306 C1305 1.395 . S
C1306 C1309 1.398 . S
C1306 H1316 0.930 . S
C1307 C1305 1.380 . S
C1307 C1308 1.391 . S
C1307 H1317 0.930 . S
C1308 C1307 1.391 . S
C1308 C1310 1.387 . S
C1309 C1306 1.398 . S
C1309 C1310 1.380 . S
C1309 H1318 0.930 . S
C1310 C1308 1.387 . S
C1310 C1309 1.380 . S
C1310 H1319 0.930 . S
C1311 O1288 1.254 . S
C1311 O1289 1.268 . S
H1312 C1297 0.930 . S
H1313 C1298 0.930 . S
H1314 C1300 0.930 . S
H1315 C1301 0.930 . S
H1316 C1306 0.930 . S
H1317 C1307 0.930 . S
H1318 C1309 0.930 . S
H1319 C1310 0.930 . S
Gd1320 N1351 2.661 . S
Gd1320 N1357 2.601 . S
Gd1320 O1364 2.545 . S
Gd1320 O1365 2.606 . S
Gd1320 O1367 2.429 . S
Gd1320 O1368 2.545 . S
Gd1320 O1369 2.412 . S
Gd1320 O1371 2.362 . S
Gd1320 O1372 2.324 . S
Gd1320 C1379 2.828 . S
Gd1321 N1330 2.661 . S
Gd1321 N1334 2.601 . S
Gd1321 O1365 2.362 . S
Gd1321 O1366 2.324 . S
Gd1321 O1370 2.545 . S
Gd1321 O1371 2.606 . S
Gd1321 O1373 2.429 . S
Gd1321 O1374 2.545 . S
Gd1321 O1375 2.412 . S
Gd1321 C1388 2.828 . S
C1322 C1325 1.417 . S
C1322 C1327 1.431 . S
C1322 C1328 1.412 . S
C1323 C1326 1.437 . S
C1323 C1327 1.317 . S
C1323 H1342 0.929 . S
C1324 C1325 1.426 . S
C1324 C1326 1.413 . S
C1324 N1334 1.359 . S
C1325 C1322 1.417 . S
C1325 C1324 1.426 . S
C1325 N1330 1.350 . S
C1326 C1323 1.437 . S
C1326 C1324 1.413 . S
C1326 C1336 1.391 . S
C1327 C1322 1.431 . S
C1327 C1323 1.317 . S
C1327 H1338 0.930 . S
C1328 C1322 1.412 . S
C1328 C1329 1.355 . S
C1328 H1340 0.930 . S
C1329 C1328 1.355 . S
C1329 C1331 1.402 . S
C1329 H1341 0.930 . S
N1330 Gd1321 2.661 . S
N1330 C1325 1.350 . S
N1330 C1331 1.307 . S
C1331 C1329 1.402 . S
C1331 N1330 1.307 . S
C1331 H1332 0.930 . S
H1332 C1331 0.930 . S
C1333 N1334 1.334 . S
C1333 C1335 1.394 . S
C1333 H1337 0.930 . S
N1334 Gd1321 2.601 . S
N1334 C1324 1.359 . S
N1334 C1333 1.334 . S
C1335 C1333 1.394 . S
C1335 C1336 1.359 . S
C1335 H1347 0.930 . S
C1336 C1326 1.391 . S
C1336 C1335 1.359 . S
C1336 H1348 0.929 . S
H1337 C1333 0.930 . S
H1338 C1327 0.930 . S
H1339 C1356 0.930 . S
H1340 C1328 0.930 . S
H1341 C1329 0.930 . S
H1342 C1323 0.929 . S
H1343 C1361 0.930 . S
H1344 C1352 0.930 . S
H1345 C1353 0.930 . S
H1346 C1377 0.929 . S
H1347 C1335 0.930 . S
H1348 C1336 0.929 . S
H1349 C1378 0.930 . S
H1350 C1359 0.930 . S
N1351 Gd1320 2.661 . S
N1351 C1355 1.350 . S
N1351 C1356 1.307 . S
C1352 H1344 0.930 . S
C1352 C1353 1.355 . S
C1352 C1354 1.412 . S
C1353 H1345 0.930 . S
C1353 C1352 1.355 . S
C1353 C1356 1.402 . S
C1354 C1352 1.412 . S
C1354 C1355 1.417 . S
C1354 C1378 1.431 . S
C1355 N1351 1.350 . S
C1355 C1354 1.417 . S
C1355 C1358 1.426 . S
C1356 H1339 0.930 . S
C1356 N1351 1.307 . S
C1356 C1353 1.402 . S
N1357 Gd1320 2.601 . S
N1357 C1358 1.359 . S
N1357 C1361 1.334 . S
C1358 C1355 1.426 . S
C1358 N1357 1.359 . S
C1358 C1362 1.413 . S
C1359 H1350 0.930 . S
C1359 C1360 1.359 . S
C1359 C1361 1.394 . S
C1360 C1359 1.359 . S
C1360 C1362 1.391 . S
C1360 H1363 0.929 . S
C1361 H1343 0.930 . S
C1361 N1357 1.334 . S
C1361 C1359 1.394 . S
C1362 C1358 1.413 . S
C1362 C1360 1.391 . S
C1362 C1377 1.437 . S
H1363 C1360 0.929 . S
O1364 Gd1320 2.545 . S
O1364 C1379 1.258 . S
O1365 Gd1320 2.606 . S
O1365 Gd1321 2.362 . S
O1365 C1376 1.284 . S
O1366 Gd1321 2.324 . S
O1366 C1386 1.254 . S
O1367 Gd1320 2.429 . S
O1367 C1386 1.268 . S
O1368 Gd1320 2.545 . S
O1368 C1376 1.250 . S
O1369 Gd1320 2.412 . S
O1369 C1379 1.252 . S
O1370 Gd1321 2.545 . S
O1370 C1388 1.258 . S
O1371 Gd1320 2.362 . S
O1371 Gd1321 2.606 . S
O1371 C1387 1.284 . S
O1372 Gd1320 2.324 . S
O1372 C1395 1.254 . S
O1373 Gd1321 2.429 . S
O1373 C1395 1.268 . S
O1374 Gd1321 2.545 . S
O1374 C1387 1.250 . S
O1375 Gd1321 2.412 . S
O1375 C1388 1.252 . S
C1376 O1365 1.284 . S
C1376 O1368 1.250 . S
C1377 H1346 0.929 . S
C1377 C1362 1.437 . S
C1377 C1378 1.317 . S
C1378 H1349 0.930 . S
C1378 C1354 1.431 . S
C1378 C1377 1.317 . S
C1379 Gd1320 2.828 . S
C1379 O1364 1.258 . S
C1379 O1369 1.252 . S
C1379 C1380 1.497 . S
C1380 C1379 1.497 . S
C1380 C1381 1.395 . S
C1380 C1382 1.380 . S
C1381 C1380 1.395 . S
C1381 C1384 1.398 . S
C1381 H1396 0.930 . S
C1382 C1380 1.380 . S
C1382 C1383 1.391 . S
C1382 H1397 0.930 . S
C1383 C1382 1.391 . S
C1383 C1385 1.387 . S
C1384 C1381 1.398 . S
C1384 C1385 1.380 . S
C1384 H1398 0.930 . S
C1385 C1383 1.387 . S
C1385 C1384 1.380 . S
C1385 H1399 0.930 . S
C1386 O1366 1.254 . S
C1386 O1367 1.268 . S
C1387 O1371 1.284 . S
C1387 O1374 1.250 . S
C1388 Gd1321 2.828 . S
C1388 O1370 1.258 . S
C1388 O1375 1.252 . S
C1388 C1389 1.497 . S
C1389 C1388 1.497 . S
C1389 C1390 1.395 . S
C1389 C1391 1.380 . S
C1390 C1389 1.395 . S
C1390 C1393 1.398 . S
C1390 H1400 0.930 . S
C1391 C1389 1.380 . S
C1391 C1392 1.391 . S
C1391 H1401 0.930 . S
C1392 C1391 1.391 . S
C1392 C1394 1.387 . S
C1393 C1390 1.398 . S
C1393 C1394 1.380 . S
C1393 H1402 0.930 . S
C1394 C1392 1.387 . S
C1394 C1393 1.380 . S
C1394 H1403 0.930 . S
C1395 O1372 1.254 . S
C1395 O1373 1.268 . S
H1396 C1381 0.930 . S
H1397 C1382 0.930 . S
H1398 C1384 0.930 . S
H1399 C1385 0.930 . S
H1400 C1390 0.930 . S
H1401 C1391 0.930 . S
H1402 C1393 0.930 . S
H1403 C1394 0.930 . S
C1404 C1405 1.349 . S
C1404 C1406 1.327 . S
C1404 H1429 0.950 . S
C1405 C1404 1.349 . S
C1405 C1421 1.349 . S
C1406 C1404 1.327 . S
C1406 C1425 1.429 . S
C1406 H1430 0.950 . S
C1407 C1424 1.574 . S
C1407 C1426 1.368 . S
C1407 H1431 0.949 . S
H1408 C1412 0.949 . S
C1409 C1410 1.349 . S
C1409 C1411 1.327 . S
C1409 H1432 0.950 . S
C1410 C1409 1.349 . S
C1410 C1422 1.349 . S
C1411 C1409 1.327 . S
C1411 C1427 1.429 . S
C1411 H1433 0.950 . S
C1412 H1408 0.949 . S
C1412 C1420 1.574 . S
C1412 C1428 1.368 . S
H1413 C1421 0.950 . S
H1414 C1419 0.950 . S
H1415 C1420 0.949 . S
H1416 C1422 0.950 . S
H1417 C1423 0.950 . S
H1418 C1424 0.949 . S
C1419 H1414 0.950 . S
C1419 C1421 1.327 . S
C1419 C1425 1.429 . S
C1420 C1412 1.574 . S
C1420 H1415 0.949 . S
C1420 C1426 1.368 . S
C1421 C1405 1.349 . S
C1421 H1413 0.950 . S
C1421 C1419 1.327 . S
C1422 C1410 1.349 . S
C1422 H1416 0.950 . S
C1422 C1423 1.327 . S
C1423 H1417 0.950 . S
C1423 C1422 1.327 . S
C1423 C1427 1.429 . S
C1424 C1407 1.574 . S
C1424 H1418 0.949 . S
C1424 C1428 1.368 . S
C1425 C1406 1.429 . S
C1425 C1419 1.429 . S
C1425 C1426 1.523 . S
C1426 C1407 1.368 . S
C1426 C1420 1.368 . S
C1426 C1425 1.523 . S
C1427 C1411 1.429 . S
C1427 C1423 1.429 . S
C1427 C1428 1.523 . S
C1428 C1412 1.368 . S
C1428 C1424 1.368 . S
C1428 C1427 1.523 . S
H1429 C1404 0.950 . S
H1430 C1406 0.950 . S
H1431 C1407 0.949 . S
H1432 C1409 0.950 . S
H1433 C1411 0.950 . S
C1434 C1435 1.349 . S
C1434 C1436 1.327 . S
C1434 H1459 0.950 . S
C1435 C1434 1.349 . S
C1435 C1451 1.349 . S
C1436 C1434 1.327 . S
C1436 C1455 1.429 . S
C1436 H1460 0.950 . S
C1437 C1454 1.574 . S
C1437 C1456 1.368 . S
C1437 H1461 0.949 . S
H1438 C1442 0.949 . S
C1439 C1440 1.349 . S
C1439 C1441 1.327 . S
C1439 H1462 0.950 . S
C1440 C1439 1.349 . S
C1440 C1452 1.349 . S
C1441 C1439 1.327 . S
C1441 C1457 1.429 . S
C1441 H1463 0.950 . S
C1442 H1438 0.949 . S
C1442 C1450 1.574 . S
C1442 C1458 1.368 . S
H1443 C1451 0.950 . S
H1444 C1449 0.950 . S
H1445 C1450 0.949 . S
H1446 C1452 0.950 . S
H1447 C1453 0.950 . S
H1448 C1454 0.949 . S
C1449 H1444 0.950 . S
C1449 C1451 1.327 . S
C1449 C1455 1.429 . S
C1450 C1442 1.574 . S
C1450 H1445 0.949 . S
C1450 C1456 1.368 . S
C1451 C1435 1.349 . S
C1451 H1443 0.950 . S
C1451 C1449 1.327 . S
C1452 C1440 1.349 . S
C1452 H1446 0.950 . S
C1452 C1453 1.327 . S
C1453 H1447 0.950 . S
C1453 C1452 1.327 . S
C1453 C1457 1.429 . S
C1454 C1437 1.574 . S
C1454 H1448 0.949 . S
C1454 C1458 1.368 . S
C1455 C1436 1.429 . S
C1455 C1449 1.429 . S
C1455 C1456 1.523 . S
C1456 C1437 1.368 . S
C1456 C1450 1.368 . S
C1456 C1455 1.523 . S
C1457 C1441 1.429 . S
C1457 C1453 1.429 . S
C1457 C1458 1.523 . S
C1458 C1442 1.368 . S
C1458 C1454 1.368 . S
C1458 C1457 1.523 . S
H1459 C1434 0.950 . S
H1460 C1436 0.950 . S
H1461 C1437 0.949 . S
H1462 C1439 0.950 . S
H1463 C1441 0.950 . S
C1464 C1465 1.349 . S
C1464 C1466 1.327 . S
C1464 H1489 0.950 . S
C1465 C1464 1.349 . S
C1465 C1481 1.349 . S
C1466 C1464 1.327 . S
C1466 C1485 1.429 . S
C1466 H1490 0.950 . S
C1467 C1484 1.574 . S
C1467 C1486 1.368 . S
C1467 H1491 0.949 . S
H1468 C1472 0.949 . S
C1469 C1470 1.349 . S
C1469 C1471 1.327 . S
C1469 H1492 0.950 . S
C1470 C1469 1.349 . S
C1470 C1482 1.349 . S
C1471 C1469 1.327 . S
C1471 C1487 1.429 . S
C1471 H1493 0.950 . S
C1472 H1468 0.949 . S
C1472 C1480 1.574 . S
C1472 C1488 1.368 . S
H1473 C1481 0.950 . S
H1474 C1479 0.950 . S
H1475 C1480 0.949 . S
H1476 C1482 0.950 . S
H1477 C1483 0.950 . S
H1478 C1484 0.949 . S
C1479 H1474 0.950 . S
C1479 C1481 1.327 . S
C1479 C1485 1.429 . S
C1480 C1472 1.574 . S
C1480 H1475 0.949 . S
C1480 C1486 1.368 . S
C1481 C1465 1.349 . S
C1481 H1473 0.950 . S
C1481 C1479 1.327 . S
C1482 C1470 1.349 . S
C1482 H1476 0.950 . S
C1482 C1483 1.327 . S
C1483 H1477 0.950 . S
C1483 C1482 1.327 . S
C1483 C1487 1.429 . S
C1484 C1467 1.574 . S
C1484 H1478 0.949 . S
C1484 C1488 1.368 . S
C1485 C1466 1.429 . S
C1485 C1479 1.429 . S
C1485 C1486 1.523 . S
C1486 C1467 1.368 . S
C1486 C1480 1.368 . S
C1486 C1485 1.523 . S
C1487 C1471 1.429 . S
C1487 C1483 1.429 . S
C1487 C1488 1.523 . S
C1488 C1472 1.368 . S
C1488 C1484 1.368 . S
C1488 C1487 1.523 . S
H1489 C1464 0.950 . S
H1490 C1466 0.950 . S
H1491 C1467 0.949 . S
H1492 C1469 0.950 . S
H1493 C1471 0.950 . S
C1494 C1495 1.349 . S
C1494 C1496 1.327 . S
C1494 H1519 0.950 . S
C1495 C1494 1.349 . S
C1495 C1511 1.349 . S
C1496 C1494 1.327 . S
C1496 C1515 1.429 . S
C1496 H1520 0.950 . S
C1497 C1514 1.574 . S
C1497 C1516 1.368 . S
C1497 H1521 0.949 . S
H1498 C1502 0.949 . S
C1499 C1500 1.349 . S
C1499 C1501 1.327 . S
C1499 H1522 0.950 . S
C1500 C1499 1.349 . S
C1500 C1512 1.349 . S
C1501 C1499 1.327 . S
C1501 C1517 1.429 . S
C1501 H1523 0.950 . S
C1502 H1498 0.949 . S
C1502 C1510 1.574 . S
C1502 C1518 1.368 . S
H1503 C1511 0.950 . S
H1504 C1509 0.950 . S
H1505 C1510 0.949 . S
H1506 C1512 0.950 1_554 S
H1507 C1513 0.950 . S
H1508 C1514 0.949 . S
C1509 H1504 0.950 . S
C1509 C1511 1.327 . S
C1509 C1515 1.429 . S
C1510 C1502 1.574 . S
C1510 H1505 0.949 . S
C1510 C1516 1.368 . S
C1511 C1495 1.349 . S
C1511 H1503 0.950 . S
C1511 C1509 1.327 . S
C1512 C1500 1.349 . S
C1512 H1506 0.950 1_556 S
C1512 C1513 1.327 . S
C1513 H1507 0.950 . S
C1513 C1512 1.327 . S
C1513 C1517 1.429 . S
C1514 C1497 1.574 . S
C1514 H1508 0.949 . S
C1514 C1518 1.368 . S
C1515 C1496 1.429 . S
C1515 C1509 1.429 . S
C1515 C1516 1.523 . S
C1516 C1497 1.368 . S
C1516 C1510 1.368 . S
C1516 C1515 1.523 . S
C1517 C1501 1.429 . S
C1517 C1513 1.429 . S
C1517 C1518 1.523 . S
C1518 C1502 1.368 . S
C1518 C1514 1.368 . S
C1518 C1517 1.523 . S
H1519 C1494 0.950 . S
H1520 C1496 0.950 . S
H1521 C1497 0.949 . S
H1522 C1499 0.950 . S
H1523 C1501 0.950 . S
C1524 C1525 1.349 . S
C1524 C1526 1.327 . S
C1524 H1549 0.950 . S
C1525 C1524 1.349 . S
C1525 C1541 1.349 . S
C1526 C1524 1.327 . S
C1526 C1545 1.429 . S
C1526 H1550 0.950 . S
C1527 C1544 1.574 . S
C1527 C1546 1.368 . S
C1527 H1551 0.949 . S
H1528 C1532 0.949 . S
C1529 C1530 1.349 . S
C1529 C1531 1.327 . S
C1529 H1552 0.950 . S
C1530 C1529 1.349 . S
C1530 C1542 1.349 . S
C1531 C1529 1.327 . S
C1531 C1547 1.429 . S
C1531 H1553 0.950 . S
C1532 H1528 0.949 . S
C1532 C1540 1.574 . S
C1532 C1548 1.368 . S
H1533 C1541 0.950 . S
H1534 C1539 0.950 . S
H1535 C1540 0.949 . S
H1536 C1542 0.950 . S
H1537 C1543 0.950 . S
H1538 C1544 0.949 . S
C1539 H1534 0.950 . S
C1539 C1541 1.327 . S
C1539 C1545 1.429 . S
C1540 C1532 1.574 . S
C1540 H1535 0.949 . S
C1540 C1546 1.368 . S
C1541 C1525 1.349 . S
C1541 H1533 0.950 . S
C1541 C1539 1.327 . S
C1542 C1530 1.349 . S
C1542 H1536 0.950 . S
C1542 C1543 1.327 . S
C1543 H1537 0.950 . S
C1543 C1542 1.327 . S
C1543 C1547 1.429 . S
C1544 C1527 1.574 . S
C1544 H1538 0.949 . S
C1544 C1548 1.368 . S
C1545 C1526 1.429 . S
C1545 C1539 1.429 . S
C1545 C1546 1.523 . S
C1546 C1527 1.368 . S
C1546 C1540 1.368 . S
C1546 C1545 1.523 . S
C1547 C1531 1.429 . S
C1547 C1543 1.429 . S
C1547 C1548 1.523 . S
C1548 C1532 1.368 . S
C1548 C1544 1.368 . S
C1548 C1547 1.523 . S
H1549 C1524 0.950 . S
H1550 C1526 0.950 . S
H1551 C1527 0.949 . S
H1552 C1529 0.950 . S
H1553 C1531 0.950 . S
C1554 C1555 1.349 . S
C1554 C1556 1.327 . S
C1554 H1579 0.950 . S
C1555 C1554 1.349 . S
C1555 C1571 1.349 . S
C1556 C1554 1.327 . S
C1556 C1575 1.429 . S
C1556 H1580 0.950 . S
C1557 C1574 1.574 . S
C1557 C1576 1.368 . S
C1557 H1581 0.949 . S
H1558 C1562 0.949 . S
C1559 C1560 1.349 . S
C1559 C1561 1.327 . S
C1559 H1582 0.950 1_556 S
C1560 C1559 1.349 . S
C1560 C1572 1.349 . S
C1561 C1559 1.327 . S
C1561 C1577 1.429 . S
C1561 H1583 0.950 . S
C1562 H1558 0.949 . S
C1562 C1570 1.574 . S
C1562 C1578 1.368 . S
H1563 C1571 0.950 . S
H1564 C1569 0.950 . S
H1565 C1570 0.949 . S
H1566 C1572 0.950 . S
H1567 C1573 0.950 . S
H1568 C1574 0.949 . S
C1569 H1564 0.950 . S
C1569 C1571 1.327 . S
C1569 C1575 1.429 . S
C1570 C1562 1.574 . S
C1570 H1565 0.949 . S
C1570 C1576 1.368 . S
C1571 C1555 1.349 . S
C1571 H1563 0.950 . S
C1571 C1569 1.327 . S
C1572 C1560 1.349 . S
C1572 H1566 0.950 . S
C1572 C1573 1.327 . S
C1573 H1567 0.950 . S
C1573 C1572 1.327 . S
C1573 C1577 1.429 . S
C1574 C1557 1.574 . S
C1574 H1568 0.949 . S
C1574 C1578 1.368 . S
C1575 C1556 1.429 . S
C1575 C1569 1.429 . S
C1575 C1576 1.523 . S
C1576 C1557 1.368 . S
C1576 C1570 1.368 . S
C1576 C1575 1.523 . S
C1577 C1561 1.429 . S
C1577 C1573 1.429 . S
C1577 C1578 1.523 . S
C1578 C1562 1.368 . S
C1578 C1574 1.368 . S
C1578 C1577 1.523 . S
H1579 C1554 0.950 . S
H1580 C1556 0.950 . S
H1581 C1557 0.949 . S
H1582 C1559 0.950 1_554 S
H1583 C1561 0.950 . S
C1584 C1585 1.349 . S
C1584 C1586 1.327 . S
C1584 H1609 0.950 . S
C1585 C1584 1.349 . S
C1585 C1601 1.349 . S
C1586 C1584 1.327 . S
C1586 C1605 1.429 . S
C1586 H1610 0.950 . S
C1587 C1604 1.574 . S
C1587 C1606 1.368 . S
C1587 H1611 0.949 . S
H1588 C1592 0.949 . S
C1589 C1590 1.349 . S
C1589 C1591 1.327 . S
C1589 H1612 0.950 . S
C1590 C1589 1.349 . S
C1590 C1602 1.349 . S
C1591 C1589 1.327 . S
C1591 C1607 1.429 . S
C1591 H1613 0.950 . S
C1592 H1588 0.949 . S
C1592 C1600 1.574 . S
C1592 C1608 1.368 . S
H1593 C1601 0.950 . S
H1594 C1599 0.950 . S
H1595 C1600 0.949 . S
H1596 C1602 0.950 1_554 S
H1597 C1603 0.950 . S
H1598 C1604 0.949 . S
C1599 H1594 0.950 . S
C1599 C1601 1.327 . S
C1599 C1605 1.429 . S
C1600 C1592 1.574 . S
C1600 H1595 0.949 . S
C1600 C1606 1.368 . S
C1601 C1585 1.349 . S
C1601 H1593 0.950 . S
C1601 C1599 1.327 . S
C1602 C1590 1.349 . S
C1602 H1596 0.950 1_556 S
C1602 C1603 1.327 . S
C1603 H1597 0.950 . S
C1603 C1602 1.327 . S
C1603 C1607 1.429 . S
C1604 C1587 1.574 . S
C1604 H1598 0.949 . S
C1604 C1608 1.368 . S
C1605 C1586 1.429 . S
C1605 C1599 1.429 . S
C1605 C1606 1.523 . S
C1606 C1587 1.368 . S
C1606 C1600 1.368 . S
C1606 C1605 1.523 . S
C1607 C1591 1.429 . S
C1607 C1603 1.429 . S
C1607 C1608 1.523 . S
C1608 C1592 1.368 . S
C1608 C1604 1.368 . S
C1608 C1607 1.523 . S
H1609 C1584 0.950 . S
H1610 C1586 0.950 . S
H1611 C1587 0.949 . S
H1612 C1589 0.950 . S
H1613 C1591 0.950 . S
C1614 C1615 1.349 . S
C1614 C1616 1.327 . S
C1614 H1639 0.950 . S
C1615 C1614 1.349 . S
C1615 C1631 1.349 . S
C1616 C1614 1.327 . S
C1616 C1635 1.429 . S
C1616 H1640 0.950 . S
C1617 C1634 1.574 . S
C1617 C1636 1.368 . S
C1617 H1641 0.949 . S
H1618 C1622 0.949 . S
C1619 C1620 1.349 . S
C1619 C1621 1.327 . S
C1619 H1642 0.950 . S
C1620 C1619 1.349 . S
C1620 C1632 1.349 . S
C1621 C1619 1.327 . S
C1621 C1637 1.429 . S
C1621 H1643 0.950 . S
C1622 H1618 0.949 . S
C1622 C1630 1.574 . S
C1622 C1638 1.368 . S
H1623 C1631 0.950 . S
H1624 C1629 0.950 . S
H1625 C1630 0.949 . S
H1626 C1632 0.950 1_554 S
H1627 C1633 0.950 . S
H1628 C1634 0.949 . S
C1629 H1624 0.950 . S
C1629 C1631 1.327 . S
C1629 C1635 1.429 . S
C1630 C1622 1.574 . S
C1630 H1625 0.949 . S
C1630 C1636 1.368 . S
C1631 C1615 1.349 . S
C1631 H1623 0.950 . S
C1631 C1629 1.327 . S
C1632 C1620 1.349 . S
C1632 H1626 0.950 1_556 S
C1632 C1633 1.327 . S
C1633 H1627 0.950 . S
C1633 C1632 1.327 . S
C1633 C1637 1.429 . S
C1634 C1617 1.574 . S
C1634 H1628 0.949 . S
C1634 C1638 1.368 . S
C1635 C1616 1.429 . S
C1635 C1629 1.429 . S
C1635 C1636 1.523 . S
C1636 C1617 1.368 . S
C1636 C1630 1.368 . S
C1636 C1635 1.523 . S
C1637 C1621 1.429 . S
C1637 C1633 1.429 . S
C1637 C1638 1.523 . S
C1638 C1622 1.368 . S
C1638 C1634 1.368 . S
C1638 C1637 1.523 . S
H1639 C1614 0.950 . S
H1640 C1616 0.950 . S
H1641 C1617 0.949 . S
H1642 C1619 0.950 . S
H1643 C1621 0.950 . S
C1644 C1645 1.349 . S
C1644 C1646 1.327 . S
C1644 H1669 0.950 . S
C1645 C1644 1.349 . S
C1645 C1661 1.349 . S
C1646 C1644 1.327 . S
C1646 C1665 1.429 . S
C1646 H1670 0.950 . S
C1647 C1664 1.574 . S
C1647 C1666 1.368 . S
C1647 H1671 0.949 . S
H1648 C1652 0.949 . S
C1649 C1650 1.349 . S
C1649 C1651 1.327 . S
C1649 H1672 0.950 1_556 S
C1650 C1649 1.349 . S
C1650 C1662 1.349 . S
C1651 C1649 1.327 . S
C1651 C1667 1.429 . S
C1651 H1673 0.950 . S
C1652 H1648 0.949 . S
C1652 C1660 1.574 . S
C1652 C1668 1.368 . S
H1653 C1661 0.950 . S
H1654 C1659 0.950 . S
H1655 C1660 0.949 . S
H1656 C1662 0.950 . S
H1657 C1663 0.950 . S
H1658 C1664 0.949 . S
C1659 H1654 0.950 . S
C1659 C1661 1.327 . S
C1659 C1665 1.429 . S
C1660 C1652 1.574 . S
C1660 H1655 0.949 . S
C1660 C1666 1.368 . S
C1661 C1645 1.349 . S
C1661 H1653 0.950 . S
C1661 C1659 1.327 . S
C1662 C1650 1.349 . S
C1662 H1656 0.950 . S
C1662 C1663 1.327 . S
C1663 H1657 0.950 . S
C1663 C1662 1.327 . S
C1663 C1667 1.429 . S
C1664 C1647 1.574 . S
C1664 H1658 0.949 . S
C1664 C1668 1.368 . S
C1665 C1646 1.429 . S
C1665 C1659 1.429 . S
C1665 C1666 1.523 . S
C1666 C1647 1.368 . S
C1666 C1660 1.368 . S
C1666 C1665 1.523 . S
C1667 C1651 1.429 . S
C1667 C1663 1.429 . S
C1667 C1668 1.523 . S
C1668 C1652 1.368 . S
C1668 C1664 1.368 . S
C1668 C1667 1.523 . S
H1669 C1644 0.950 . S
H1670 C1646 0.950 . S
H1671 C1647 0.949 . S
H1672 C1649 0.950 1_554 S
H1673 C1651 0.950 . S
C1674 C1675 1.349 . S
C1674 C1676 1.327 . S
C1674 H1699 0.950 . S
C1675 C1674 1.349 . S
C1675 C1691 1.349 . S
C1676 C1674 1.327 . S
C1676 C1695 1.429 . S
C1676 H1700 0.950 . S
C1677 C1694 1.574 . S
C1677 C1696 1.368 . S
C1677 H1701 0.949 . S
H1678 C1682 0.949 . S
C1679 C1680 1.349 . S
C1679 C1681 1.327 . S
C1679 H1702 0.950 . S
C1680 C1679 1.349 . S
C1680 C1692 1.349 . S
C1681 C1679 1.327 . S
C1681 C1697 1.429 . S
C1681 H1703 0.950 . S
C1682 H1678 0.949 . S
C1682 C1690 1.574 . S
C1682 C1698 1.368 . S
H1683 C1691 0.950 . S
H1684 C1689 0.950 . S
H1685 C1690 0.949 . S
H1686 C1692 0.950 . S
H1687 C1693 0.950 . S
H1688 C1694 0.949 . S
C1689 H1684 0.950 . S
C1689 C1691 1.327 . S
C1689 C1695 1.429 . S
C1690 C1682 1.574 . S
C1690 H1685 0.949 . S
C1690 C1696 1.368 . S
C1691 C1675 1.349 . S
C1691 H1683 0.950 . S
C1691 C1689 1.327 . S
C1692 C1680 1.349 . S
C1692 H1686 0.950 . S
C1692 C1693 1.327 . S
C1693 H1687 0.950 . S
C1693 C1692 1.327 . S
C1693 C1697 1.429 . S
C1694 C1677 1.574 . S
C1694 H1688 0.949 . S
C1694 C1698 1.368 . S
C1695 C1676 1.429 . S
C1695 C1689 1.429 . S
C1695 C1696 1.523 . S
C1696 C1677 1.368 . S
C1696 C1690 1.368 . S
C1696 C1695 1.523 . S
C1697 C1681 1.429 . S
C1697 C1693 1.429 . S
C1697 C1698 1.523 . S
C1698 C1682 1.368 . S
C1698 C1694 1.368 . S
C1698 C1697 1.523 . S
H1699 C1674 0.950 . S
H1700 C1676 0.950 . S
H1701 C1677 0.949 . S
H1702 C1679 0.950 . S
H1703 C1681 0.950 . S
C1704 C1705 1.349 . S
C1704 C1706 1.327 . S
C1704 H1729 0.950 . S
C1705 C1704 1.349 . S
C1705 C1721 1.349 . S
C1706 C1704 1.327 . S
C1706 C1725 1.429 . S
C1706 H1730 0.950 . S
C1707 C1724 1.574 . S
C1707 C1726 1.368 . S
C1707 H1731 0.949 . S
H1708 C1712 0.949 . S
C1709 C1710 1.349 . S
C1709 C1711 1.327 . S
C1709 H1732 0.950 . S
C1710 C1709 1.349 . S
C1710 C1722 1.349 . S
C1711 C1709 1.327 . S
C1711 C1727 1.429 . S
C1711 H1733 0.950 . S
C1712 H1708 0.949 . S
C1712 C1720 1.574 . S
C1712 C1728 1.368 . S
H1713 C1721 0.950 . S
H1714 C1719 0.950 . S
H1715 C1720 0.949 . S
H1716 C1722 0.950 . S
H1717 C1723 0.950 . S
H1718 C1724 0.949 . S
C1719 H1714 0.950 . S
C1719 C1721 1.327 . S
C1719 C1725 1.429 . S
C1720 C1712 1.574 . S
C1720 H1715 0.949 . S
C1720 C1726 1.368 . S
C1721 C1705 1.349 . S
C1721 H1713 0.950 . S
C1721 C1719 1.327 . S
C1722 C1710 1.349 . S
C1722 H1716 0.950 . S
C1722 C1723 1.327 . S
C1723 H1717 0.950 . S
C1723 C1722 1.327 . S
C1723 C1727 1.429 . S
C1724 C1707 1.574 . S
C1724 H1718 0.949 . S
C1724 C1728 1.368 . S
C1725 C1706 1.429 . S
C1725 C1719 1.429 . S
C1725 C1726 1.523 . S
C1726 C1707 1.368 . S
C1726 C1720 1.368 . S
C1726 C1725 1.523 . S
C1727 C1711 1.429 . S
C1727 C1723 1.429 . S
C1727 C1728 1.523 . S
C1728 C1712 1.368 . S
C1728 C1724 1.368 . S
C1728 C1727 1.523 . S
H1729 C1704 0.950 . S
H1730 C1706 0.950 . S
H1731 C1707 0.949 . S
H1732 C1709 0.950 . S
H1733 C1711 0.950 . S
C1734 C1735 1.349 . S
C1734 C1736 1.327 . S
C1734 H1759 0.950 . S
C1735 C1734 1.349 . S
C1735 C1751 1.349 . S
C1736 C1734 1.327 . S
C1736 C1755 1.429 . S
C1736 H1760 0.950 . S
C1737 C1754 1.574 . S
C1737 C1756 1.368 . S
C1737 H1761 0.949 . S
H1738 C1742 0.949 . S
C1739 C1740 1.349 . S
C1739 C1741 1.327 . S
C1739 H1762 0.950 . S
C1740 C1739 1.349 . S
C1740 C1752 1.349 . S
C1741 C1739 1.327 . S
C1741 C1757 1.429 . S
C1741 H1763 0.950 . S
C1742 H1738 0.949 . S
C1742 C1750 1.574 . S
C1742 C1758 1.368 . S
H1743 C1751 0.950 . S
H1744 C1749 0.950 . S
H1745 C1750 0.949 . S
H1746 C1752 0.950 . S
H1747 C1753 0.950 . S
H1748 C1754 0.949 . S
C1749 H1744 0.950 . S
C1749 C1751 1.327 . S
C1749 C1755 1.429 . S
C1750 C1742 1.574 . S
C1750 H1745 0.949 . S
C1750 C1756 1.368 . S
C1751 C1735 1.349 . S
C1751 H1743 0.950 . S
C1751 C1749 1.327 . S
C1752 C1740 1.349 . S
C1752 H1746 0.950 . S
C1752 C1753 1.327 . S
C1753 H1747 0.950 . S
C1753 C1752 1.327 . S
C1753 C1757 1.429 . S
C1754 C1737 1.574 . S
C1754 H1748 0.949 . S
C1754 C1758 1.368 . S
C1755 C1736 1.429 . S
C1755 C1749 1.429 . S
C1755 C1756 1.523 . S
C1756 C1737 1.368 . S
C1756 C1750 1.368 . S
C1756 C1755 1.523 . S
C1757 C1741 1.429 . S
C1757 C1753 1.429 . S
C1757 C1758 1.523 . S
C1758 C1742 1.368 . S
C1758 C1754 1.368 . S
C1758 C1757 1.523 . S
H1759 C1734 0.950 . S
H1760 C1736 0.950 . S
H1761 C1737 0.949 . S
H1762 C1739 0.950 . S
H1763 C1741 0.950 . S
C1764 C1765 1.349 . S
C1764 C1766 1.327 . S
C1764 H1789 0.950 . S
C1765 C1764 1.349 . S
C1765 C1781 1.349 . S
C1766 C1764 1.327 . S
C1766 C1785 1.429 1_655 S
C1766 H1790 0.950 . S
C1767 C1784 1.574 . S
C1767 C1786 1.368 . S
C1767 H1791 0.949 . S
H1768 C1772 0.949 . S
C1769 C1770 1.349 . S
C1769 C1771 1.327 . S
C1769 H1792 0.950 . S
C1770 C1769 1.349 . S
C1770 C1782 1.349 . S
C1771 C1769 1.327 . S
C1771 C1787 1.429 . S
C1771 H1793 0.950 . S
C1772 H1768 0.949 . S
C1772 C1780 1.574 . S
C1772 C1788 1.368 . S
H1773 C1781 0.950 . S
H1774 C1779 0.950 . S
H1775 C1780 0.949 . S
H1776 C1782 0.950 . S
H1777 C1783 0.950 . S
H1778 C1784 0.949 . S
C1779 H1774 0.950 . S
C1779 C1781 1.327 1_455 S
C1779 C1785 1.429 . S
C1780 C1772 1.574 . S
C1780 H1775 0.949 . S
C1780 C1786 1.368 . S
C1781 C1765 1.349 . S
C1781 H1773 0.950 . S
C1781 C1779 1.327 1_655 S
C1782 C1770 1.349 . S
C1782 H1776 0.950 . S
C1782 C1783 1.327 . S
C1783 H1777 0.950 . S
C1783 C1782 1.327 . S
C1783 C1787 1.429 . S
C1784 C1767 1.574 . S
C1784 H1778 0.949 . S
C1784 C1788 1.368 . S
C1785 C1766 1.429 1_455 S
C1785 C1779 1.429 . S
C1785 C1786 1.523 . S
C1786 C1767 1.368 . S
C1786 C1780 1.368 . S
C1786 C1785 1.523 . S
C1787 C1771 1.429 . S
C1787 C1783 1.429 . S
C1787 C1788 1.523 . S
C1788 C1772 1.368 . S
C1788 C1784 1.368 . S
C1788 C1787 1.523 . S
H1789 C1764 0.950 . S
H1790 C1766 0.950 . S
H1791 C1767 0.949 . S
H1792 C1769 0.950 . S
H1793 C1771 0.950 . S
C1794 C1795 1.349 . S
C1794 C1796 1.327 . S
C1794 H1819 0.950 . S
C1795 C1794 1.349 . S
C1795 C1811 1.349 . S
C1796 C1794 1.327 . S
C1796 C1815 1.429 . S
C1796 H1820 0.950 . S
C1797 C1814 1.574 . S
C1797 C1816 1.368 . S
C1797 H1821 0.949 . S
H1798 C1802 0.949 . S
C1799 C1800 1.349 . S
C1799 C1801 1.327 . S
C1799 H1822 0.950 . S
C1800 C1799 1.349 . S
C1800 C1812 1.349 . S
C1801 C1799 1.327 . S
C1801 C1817 1.429 . S
C1801 H1823 0.950 . S
C1802 H1798 0.949 . S
C1802 C1810 1.574 . S
C1802 C1818 1.368 . S
H1803 C1811 0.950 . S
H1804 C1809 0.950 . S
H1805 C1810 0.949 . S
H1806 C1812 0.950 . S
H1807 C1813 0.950 . S
H1808 C1814 0.949 . S
C1809 H1804 0.950 . S
C1809 C1811 1.327 . S
C1809 C1815 1.429 . S
C1810 C1802 1.574 . S
C1810 H1805 0.949 . S
C1810 C1816 1.368 . S
C1811 C1795 1.349 . S
C1811 H1803 0.950 . S
C1811 C1809 1.327 . S
C1812 C1800 1.349 . S
C1812 H1806 0.950 . S
C1812 C1813 1.327 . S
C1813 H1807 0.950 . S
C1813 C1812 1.327 . S
C1813 C1817 1.429 . S
C1814 C1797 1.574 . S
C1814 H1808 0.949 . S
C1814 C1818 1.368 . S
C1815 C1796 1.429 . S
C1815 C1809 1.429 . S
C1815 C1816 1.523 . S
C1816 C1797 1.368 . S
C1816 C1810 1.368 . S
C1816 C1815 1.523 . S
C1817 C1801 1.429 . S
C1817 C1813 1.429 . S
C1817 C1818 1.523 . S
C1818 C1802 1.368 . S
C1818 C1814 1.368 . S
C1818 C1817 1.523 . S
H1819 C1794 0.950 . S
H1820 C1796 0.950 . S
H1821 C1797 0.949 . S
H1822 C1799 0.950 . S
H1823 C1801 0.950 . S
C1824 C1825 1.349 . S
C1824 C1826 1.327 . S
C1824 H1849 0.950 . S
C1825 C1824 1.349 . S
C1825 C1841 1.349 . S
C1826 C1824 1.327 . S
C1826 C1845 1.429 . S
C1826 H1850 0.950 1_545 S
C1827 C1844 1.574 . S
C1827 C1846 1.368 . S
C1827 H1851 0.949 . S
H1828 C1832 0.949 . S
C1829 C1830 1.349 . S
C1829 C1831 1.327 . S
C1829 H1852 0.950 . S
C1830 C1829 1.349 . S
C1830 C1842 1.349 . S
C1831 C1829 1.327 . S
C1831 C1847 1.429 . S
C1831 H1853 0.950 . S
C1832 H1828 0.949 . S
C1832 C1840 1.574 . S
C1832 C1848 1.368 . S
H1833 C1841 0.950 . S
H1834 C1839 0.950 . S
H1835 C1840 0.949 . S
H1836 C1842 0.950 . S
H1837 C1843 0.950 . S
H1838 C1844 0.949 . S
C1839 H1834 0.950 . S
C1839 C1841 1.327 . S
C1839 C1845 1.429 . S
C1840 C1832 1.574 . S
C1840 H1835 0.949 . S
C1840 C1846 1.368 . S
C1841 C1825 1.349 . S
C1841 H1833 0.950 . S
C1841 C1839 1.327 . S
C1842 C1830 1.349 . S
C1842 H1836 0.950 . S
C1842 C1843 1.327 . S
C1843 H1837 0.950 . S
C1843 C1842 1.327 . S
C1843 C1847 1.429 . S
C1844 C1827 1.574 . S
C1844 H1838 0.949 . S
C1844 C1848 1.368 . S
C1845 C1826 1.429 . S
C1845 C1839 1.429 . S
C1845 C1846 1.523 1_545 S
C1846 C1827 1.368 . S
C1846 C1840 1.368 . S
C1846 C1845 1.523 1_565 S
C1847 C1831 1.429 . S
C1847 C1843 1.429 . S
C1847 C1848 1.523 . S
C1848 C1832 1.368 . S
C1848 C1844 1.368 . S
C1848 C1847 1.523 . S
H1849 C1824 0.950 . S
H1850 C1826 0.950 1_565 S
H1851 C1827 0.949 . S
H1852 C1829 0.950 . S
H1853 C1831 0.950 . S
C1854 C1855 1.349 . S
C1854 C1856 1.327 . S
C1854 H1879 0.950 . S
C1855 C1854 1.349 . S
C1855 C1871 1.349 . S
C1856 C1854 1.327 . S
C1856 C1875 1.429 . S
C1856 H1880 0.950 . S
C1857 C1874 1.574 . S
C1857 C1876 1.368 . S
C1857 H1881 0.949 . S
H1858 C1862 0.949 . S
C1859 C1860 1.349 . S
C1859 C1861 1.327 . S
C1859 H1882 0.950 . S
C1860 C1859 1.349 . S
C1860 C1872 1.349 . S
C1861 C1859 1.327 . S
C1861 C1877 1.429 . S
C1861 H1883 0.950 . S
C1862 H1858 0.949 . S
C1862 C1870 1.574 . S
C1862 C1878 1.368 . S
H1863 C1871 0.950 . S
H1864 C1869 0.950 . S
H1865 C1870 0.949 . S
H1866 C1872 0.950 . S
H1867 C1873 0.950 . S
H1868 C1874 0.949 . S
C1869 H1864 0.950 . S
C1869 C1871 1.327 . S
C1869 C1875 1.429 . S
C1870 C1862 1.574 . S
C1870 H1865 0.949 . S
C1870 C1876 1.368 . S
C1871 C1855 1.349 . S
C1871 H1863 0.950 . S
C1871 C1869 1.327 . S
C1872 C1860 1.349 . S
C1872 H1866 0.950 . S
C1872 C1873 1.327 . S
C1873 H1867 0.950 . S
C1873 C1872 1.327 . S
C1873 C1877 1.429 . S
C1874 C1857 1.574 . S
C1874 H1868 0.949 . S
C1874 C1878 1.368 . S
C1875 C1856 1.429 . S
C1875 C1869 1.429 . S
C1875 C1876 1.523 . S
C1876 C1857 1.368 . S
C1876 C1870 1.368 . S
C1876 C1875 1.523 . S
C1877 C1861 1.429 . S
C1877 C1873 1.429 . S
C1877 C1878 1.523 . S
C1878 C1862 1.368 . S
C1878 C1874 1.368 . S
C1878 C1877 1.523 . S
H1879 C1854 0.950 . S
H1880 C1856 0.950 . S
H1881 C1857 0.949 . S
H1882 C1859 0.950 . S
H1883 C1861 0.950 . S
C1884 C1885 1.349 . S
C1884 C1886 1.327 . S
C1884 H1909 0.950 . S
C1885 C1884 1.349 . S
C1885 C1901 1.349 . S
C1886 C1884 1.327 . S
C1886 C1905 1.429 . S
C1886 H1910 0.950 . S
C1887 C1904 1.574 . S
C1887 C1906 1.368 . S
C1887 H1911 0.949 . S
H1888 C1892 0.949 . S
C1889 C1890 1.349 . S
C1889 C1891 1.327 . S
C1889 H1912 0.950 . S
C1890 C1889 1.349 . S
C1890 C1902 1.349 . S
C1891 C1889 1.327 . S
C1891 C1907 1.429 . S
C1891 H1913 0.950 . S
C1892 H1888 0.949 . S
C1892 C1900 1.574 . S
C1892 C1908 1.368 . S
H1893 C1901 0.950 . S
H1894 C1899 0.950 . S
H1895 C1900 0.949 . S
H1896 C1902 0.950 . S
H1897 C1903 0.950 . S
H1898 C1904 0.949 . S
C1899 H1894 0.950 . S
C1899 C1901 1.327 . S
C1899 C1905 1.429 . S
C1900 C1892 1.574 . S
C1900 H1895 0.949 . S
C1900 C1906 1.368 . S
C1901 C1885 1.349 . S
C1901 H1893 0.950 . S
C1901 C1899 1.327 . S
C1902 C1890 1.349 . S
C1902 H1896 0.950 . S
C1902 C1903 1.327 . S
C1903 H1897 0.950 . S
C1903 C1902 1.327 . S
C1903 C1907 1.429 . S
C1904 C1887 1.574 . S
C1904 H1898 0.949 . S
C1904 C1908 1.368 . S
C1905 C1886 1.429 . S
C1905 C1899 1.429 . S
C1905 C1906 1.523 . S
C1906 C1887 1.368 . S
C1906 C1900 1.368 . S
C1906 C1905 1.523 . S
C1907 C1891 1.429 . S
C1907 C1903 1.429 . S
C1907 C1908 1.523 . S
C1908 C1892 1.368 . S
C1908 C1904 1.368 . S
C1908 C1907 1.523 . S
H1909 C1884 0.950 . S
H1910 C1886 0.950 . S
H1911 C1887 0.949 . S
H1912 C1889 0.950 . S
H1913 C1891 0.950 . S
C1914 C1915 1.349 . S
C1914 C1916 1.327 . S
C1914 H1939 0.950 . S
C1915 C1914 1.349 . S
C1915 C1931 1.349 . S
C1916 C1914 1.327 . S
C1916 C1935 1.429 . S
C1916 H1940 0.950 . S
C1917 C1934 1.574 . S
C1917 C1936 1.368 . S
C1917 H1941 0.949 . S
H1918 C1922 0.949 . S
C1919 C1920 1.349 . S
C1919 C1921 1.327 . S
C1919 H1942 0.950 . S
C1920 C1919 1.349 . S
C1920 C1932 1.349 . S
C1921 C1919 1.327 . S
C1921 C1937 1.429 . S
C1921 H1943 0.950 . S
C1922 H1918 0.949 . S
C1922 C1930 1.574 . S
C1922 C1938 1.368 . S
H1923 C1931 0.950 . S
H1924 C1929 0.950 . S
H1925 C1930 0.949 . S
H1926 C1932 0.950 . S
H1927 C1933 0.950 . S
H1928 C1934 0.949 . S
C1929 H1924 0.950 . S
C1929 C1931 1.327 . S
C1929 C1935 1.429 . S
C1930 C1922 1.574 . S
C1930 H1925 0.949 . S
C1930 C1936 1.368 . S
C1931 C1915 1.349 . S
C1931 H1923 0.950 . S
C1931 C1929 1.327 . S
C1932 C1920 1.349 . S
C1932 H1926 0.950 . S
C1932 C1933 1.327 . S
C1933 H1927 0.950 . S
C1933 C1932 1.327 . S
C1933 C1937 1.429 . S
C1934 C1917 1.574 . S
C1934 H1928 0.949 . S
C1934 C1938 1.368 . S
C1935 C1916 1.429 . S
C1935 C1929 1.429 . S
C1935 C1936 1.523 . S
C1936 C1917 1.368 . S
C1936 C1930 1.368 . S
C1936 C1935 1.523 . S
C1937 C1921 1.429 . S
C1937 C1933 1.429 . S
C1937 C1938 1.523 . S
C1938 C1922 1.368 . S
C1938 C1934 1.368 . S
C1938 C1937 1.523 . S
H1939 C1914 0.950 . S
H1940 C1916 0.950 . S
H1941 C1917 0.949 . S
H1942 C1919 0.950 . S
H1943 C1921 0.950 . S
C1944 C1945 1.349 . S
C1944 C1946 1.327 . S
C1944 H1969 0.950 . S
C1945 C1944 1.349 . S
C1945 C1961 1.349 . S
C1946 C1944 1.327 . S
C1946 C1965 1.429 . S
C1946 H1970 0.950 . S
C1947 C1964 1.574 . S
C1947 C1966 1.368 . S
C1947 H1971 0.949 . S
H1948 C1952 0.949 . S
C1949 C1950 1.349 . S
C1949 C1951 1.327 . S
C1949 H1972 0.950 . S
C1950 C1949 1.349 . S
C1950 C1962 1.349 . S
C1951 C1949 1.327 . S
C1951 C1967 1.429 . S
C1951 H1973 0.950 . S
C1952 H1948 0.949 . S
C1952 C1960 1.574 . S
C1952 C1968 1.368 . S
H1953 C1961 0.950 . S
H1954 C1959 0.950 . S
H1955 C1960 0.949 . S
H1956 C1962 0.950 . S
H1957 C1963 0.950 . S
H1958 C1964 0.949 . S
C1959 H1954 0.950 . S
C1959 C1961 1.327 . S
C1959 C1965 1.429 . S
C1960 C1952 1.574 . S
C1960 H1955 0.949 . S
C1960 C1966 1.368 . S
C1961 C1945 1.349 . S
C1961 H1953 0.950 . S
C1961 C1959 1.327 . S
C1962 C1950 1.349 . S
C1962 H1956 0.950 . S
C1962 C1963 1.327 . S
C1963 H1957 0.950 . S
C1963 C1962 1.327 . S
C1963 C1967 1.429 . S
C1964 C1947 1.574 . S
C1964 H1958 0.949 . S
C1964 C1968 1.368 . S
C1965 C1946 1.429 . S
C1965 C1959 1.429 . S
C1965 C1966 1.523 . S
C1966 C1947 1.368 . S
C1966 C1960 1.368 . S
C1966 C1965 1.523 . S
C1967 C1951 1.429 . S
C1967 C1963 1.429 . S
C1967 C1968 1.523 . S
C1968 C1952 1.368 . S
C1968 C1964 1.368 . S
C1968 C1967 1.523 . S
H1969 C1944 0.950 . S
H1970 C1946 0.950 . S
H1971 C1947 0.949 . S
H1972 C1949 0.950 . S
H1973 C1951 0.950 . S
C1974 C1975 1.349 . S
C1974 C1976 1.327 . S
C1974 H1999 0.950 . S
C1975 C1974 1.349 . S
C1975 C1991 1.349 . S
C1976 C1974 1.327 . S
C1976 C1995 1.429 . S
C1976 H2000 0.950 . S
C1977 C1994 1.574 . S
C1977 C1996 1.368 . S
C1977 H2001 0.949 . S
H1978 C1982 0.949 . S
C1979 C1980 1.349 . S
C1979 C1981 1.327 . S
C1979 H2002 0.950 . S
C1980 C1979 1.349 . S
C1980 C1992 1.349 . S
C1981 C1979 1.327 . S
C1981 C1997 1.429 . S
C1981 H2003 0.950 . S
C1982 H1978 0.949 . S
C1982 C1990 1.574 . S
C1982 C1998 1.368 . S
H1983 C1991 0.950 . S
H1984 C1989 0.950 . S
H1985 C1990 0.949 . S
H1986 C1992 0.950 . S
H1987 C1993 0.950 . S
H1988 C1994 0.949 . S
C1989 H1984 0.950 . S
C1989 C1991 1.327 . S
C1989 C1995 1.429 . S
C1990 C1982 1.574 . S
C1990 H1985 0.949 . S
C1990 C1996 1.368 . S
C1991 C1975 1.349 . S
C1991 H1983 0.950 . S
C1991 C1989 1.327 . S
C1992 C1980 1.349 . S
C1992 H1986 0.950 . S
C1992 C1993 1.327 . S
C1993 H1987 0.950 . S
C1993 C1992 1.327 . S
C1993 C1997 1.429 . S
C1994 C1977 1.574 . S
C1994 H1988 0.949 . S
C1994 C1998 1.368 . S
C1995 C1976 1.429 . S
C1995 C1989 1.429 . S
C1995 C1996 1.523 . S
C1996 C1977 1.368 . S
C1996 C1990 1.368 . S
C1996 C1995 1.523 . S
C1997 C1981 1.429 . S
C1997 C1993 1.429 . S
C1997 C1998 1.523 . S
C1998 C1982 1.368 . S
C1998 C1994 1.368 . S
C1998 C1997 1.523 . S
H1999 C1974 0.950 . S
H2000 C1976 0.950 . S
H2001 C1977 0.949 . S
H2002 C1979 0.950 . S
H2003 C1981 0.950 . S
C2004 C2005 1.349 . S
C2004 C2006 1.327 . S
C2004 H2029 0.950 . S
C2005 C2004 1.349 . S
C2005 C2021 1.349 . S
C2006 C2004 1.327 . S
C2006 C2025 1.429 . S
C2006 H2030 0.950 . S
C2007 C2024 1.574 . S
C2007 C2026 1.368 . S
C2007 H2031 0.949 . S
H2008 C2012 0.949 . S
C2009 C2010 1.349 . S
C2009 C2011 1.327 . S
C2009 H2032 0.950 . S
C2010 C2009 1.349 . S
C2010 C2022 1.349 . S
C2011 C2009 1.327 . S
C2011 C2027 1.429 . S
C2011 H2033 0.950 . S
C2012 H2008 0.949 . S
C2012 C2020 1.574 . S
C2012 C2028 1.368 . S
H2013 C2021 0.950 . S
H2014 C2019 0.950 . S
H2015 C2020 0.949 . S
H2016 C2022 0.950 . S
H2017 C2023 0.950 . S
H2018 C2024 0.949 . S
C2019 H2014 0.950 . S
C2019 C2021 1.327 . S
C2019 C2025 1.429 . S
C2020 C2012 1.574 . S
C2020 H2015 0.949 . S
C2020 C2026 1.368 . S
C2021 C2005 1.349 . S
C2021 H2013 0.950 . S
C2021 C2019 1.327 . S
C2022 C2010 1.349 . S
C2022 H2016 0.950 . S
C2022 C2023 1.327 . S
C2023 H2017 0.950 . S
C2023 C2022 1.327 . S
C2023 C2027 1.429 . S
C2024 C2007 1.574 . S
C2024 H2018 0.949 . S
C2024 C2028 1.368 . S
C2025 C2006 1.429 . S
C2025 C2019 1.429 . S
C2025 C2026 1.523 . S
C2026 C2007 1.368 . S
C2026 C2020 1.368 . S
C2026 C2025 1.523 . S
C2027 C2011 1.429 . S
C2027 C2023 1.429 . S
C2027 C2028 1.523 . S
C2028 C2012 1.368 . S
C2028 C2024 1.368 . S
C2028 C2027 1.523 . S
H2029 C2004 0.950 . S
H2030 C2006 0.950 . S
H2031 C2007 0.949 . S
H2032 C2009 0.950 . S
H2033 C2011 0.950 . S
C2034 C2035 1.349 . S
C2034 C2036 1.327 . S
C2034 H2059 0.950 . S
C2035 C2034 1.349 . S
C2035 C2051 1.349 . S
C2036 C2034 1.327 . S
C2036 C2055 1.420 1_545 S
C2036 H2060 0.950 . S
C2037 C2054 1.574 . S
C2037 C2056 1.368 . S
C2037 H2061 0.949 . S
H2038 C2042 0.949 . S
C2039 C2040 1.349 . S
C2039 C2041 1.327 . S
C2039 H2062 0.950 . S
C2040 C2039 1.349 . S
C2040 C2052 1.349 . S
C2041 C2039 1.327 . S
C2041 C2057 1.429 . S
C2041 H2063 0.950 . S
C2042 H2038 0.949 . S
C2042 C2050 1.574 . S
C2042 C2058 1.368 . S
H2043 C2051 0.950 . S
H2044 C2049 0.945 1_565 S
H2045 C2050 0.949 . S
H2046 C2052 0.950 . S
H2047 C2053 0.950 . S
H2048 C2054 0.949 . S
C2049 H2044 0.945 1_545 S
C2049 C2051 1.327 . S
C2049 C2055 1.404 1_545 S
C2050 C2042 1.574 . S
C2050 H2045 0.949 . S
C2050 C2056 1.368 . S
C2051 C2035 1.349 . S
C2051 H2043 0.950 . S
C2051 C2049 1.327 . S
C2052 C2040 1.349 . S
C2052 H2046 0.950 . S
C2052 C2053 1.327 . S
C2053 H2047 0.950 . S
C2053 C2052 1.327 . S
C2053 C2057 1.429 . S
C2054 C2037 1.574 . S
C2054 H2048 0.949 . S
C2054 C2058 1.368 . S
C2055 C2036 1.420 1_565 S
C2055 C2049 1.404 1_565 S
C2055 C2056 1.555 . S
C2056 C2037 1.368 . S
C2056 C2050 1.368 . S
C2056 C2055 1.555 . S
C2057 C2041 1.429 . S
C2057 C2053 1.429 . S
C2057 C2058 1.523 . S
C2058 C2042 1.368 . S
C2058 C2054 1.368 . S
C2058 C2057 1.523 . S
H2059 C2034 0.950 . S
H2060 C2036 0.950 . S
H2061 C2037 0.949 . S
H2062 C2039 0.950 . S
H2063 C2041 0.950 . S
C2064 C2065 1.349 . S
C2064 C2066 1.327 1_655 S
C2064 H2089 0.950 . S
C2065 C2064 1.349 . S
C2065 C2081 1.349 . S
C2066 C2064 1.327 1_455 S
C2066 C2085 1.429 . S
C2066 H2090 0.950 . S
C2067 C2084 1.574 . S
C2067 C2086 1.368 . S
C2067 H2091 0.949 . S
H2068 C2072 0.949 . S
C2069 C2070 1.349 . S
C2069 C2071 1.327 . S
C2069 H2092 0.950 . S
C2070 C2069 1.349 . S
C2070 C2082 1.349 . S
C2071 C2069 1.327 . S
C2071 C2087 1.429 . S
C2071 H2093 0.950 . S
C2072 H2068 0.949 . S
C2072 C2080 1.574 . S
C2072 C2088 1.368 . S
H2073 C2081 0.950 . S
H2074 C2079 0.950 . S
H2075 C2080 0.949 . S
H2076 C2082 0.950 . S
H2077 C2083 0.950 . S
H2078 C2084 0.949 . S
C2079 H2074 0.950 . S
C2079 C2081 1.327 . S
C2079 C2085 1.429 1_655 S
C2080 C2072 1.574 . S
C2080 H2075 0.949 . S
C2080 C2086 1.368 . S
C2081 C2065 1.349 . S
C2081 H2073 0.950 . S
C2081 C2079 1.327 . S
C2082 C2070 1.349 . S
C2082 H2076 0.950 . S
C2082 C2083 1.327 . S
C2083 H2077 0.950 . S
C2083 C2082 1.327 . S
C2083 C2087 1.429 . S
C2084 C2067 1.574 . S
C2084 H2078 0.949 . S
C2084 C2088 1.368 . S
C2085 C2066 1.429 . S
C2085 C2079 1.429 1_455 S
C2085 C2086 1.523 . S
C2086 C2067 1.368 . S
C2086 C2080 1.368 . S
C2086 C2085 1.523 . S
C2087 C2071 1.429 . S
C2087 C2083 1.429 . S
C2087 C2088 1.523 . S
C2088 C2072 1.368 . S
C2088 C2084 1.368 . S
C2088 C2087 1.523 . S
H2089 C2064 0.950 . S
H2090 C2066 0.950 . S
H2091 C2067 0.949 . S
H2092 C2069 0.950 . S
H2093 C2071 0.950 . S
C2094 C2095 1.349 . S
C2094 C2096 1.327 . S
C2094 H2119 0.950 . S
C2095 C2094 1.349 . S
C2095 C2111 1.349 . S
C2096 C2094 1.327 . S
C2096 C2115 1.429 . S
C2096 H2120 0.950 . S
C2097 C2114 1.574 . S
C2097 C2116 1.368 . S
C2097 H2121 0.949 . S
H2098 C2102 0.949 . S
C2099 C2100 1.349 . S
C2099 C2101 1.327 . S
C2099 H2122 0.950 . S
C2100 C2099 1.349 . S
C2100 C2112 1.349 . S
C2101 C2099 1.327 . S
C2101 C2117 1.429 . S
C2101 H2123 0.950 . S
C2102 H2098 0.949 . S
C2102 C2110 1.574 . S
C2102 C2118 1.368 . S
H2103 C2111 0.950 . S
H2104 C2109 0.950 . S
H2105 C2110 0.949 . S
H2106 C2112 0.950 . S
H2107 C2113 0.950 . S
H2108 C2114 0.949 . S
C2109 H2104 0.950 . S
C2109 C2111 1.327 . S
C2109 C2115 1.429 . S
C2110 C2102 1.574 . S
C2110 H2105 0.949 . S
C2110 C2116 1.368 . S
C2111 C2095 1.349 . S
C2111 H2103 0.950 . S
C2111 C2109 1.327 . S
C2112 C2100 1.349 . S
C2112 H2106 0.950 . S
C2112 C2113 1.327 . S
C2113 H2107 0.950 . S
C2113 C2112 1.327 . S
C2113 C2117 1.429 . S
C2114 C2097 1.574 . S
C2114 H2108 0.949 . S
C2114 C2118 1.368 . S
C2115 C2096 1.429 . S
C2115 C2109 1.429 . S
C2115 C2116 1.523 . S
C2116 C2097 1.368 . S
C2116 C2110 1.368 . S
C2116 C2115 1.523 . S
C2117 C2101 1.429 . S
C2117 C2113 1.429 . S
C2117 C2118 1.523 . S
C2118 C2102 1.368 . S
C2118 C2114 1.368 . S
C2118 C2117 1.523 . S
H2119 C2094 0.950 . S
H2120 C2096 0.950 . S
H2121 C2097 0.949 . S
H2122 C2099 0.950 . S
H2123 C2101 0.950 . S
C2124 C2125 1.349 . S
C2124 C2126 1.327 . S
C2124 H2149 0.950 . S
C2125 C2124 1.349 . S
C2125 C2141 1.349 . S
C2126 C2124 1.327 . S
C2126 C2145 1.429 . S
C2126 H2150 0.950 . S
C2127 C2144 1.574 . S
C2127 C2146 1.368 . S
C2127 H2151 0.949 . S
H2128 C2132 0.949 . S
C2129 C2130 1.349 . S
C2129 C2131 1.327 . S
C2129 H2152 0.950 . S
C2130 C2129 1.349 . S
C2130 C2142 1.349 . S
C2131 C2129 1.327 . S
C2131 C2147 1.429 . S
C2131 H2153 0.950 . S
C2132 H2128 0.949 . S
C2132 C2140 1.574 . S
C2132 C2148 1.368 . S
H2133 C2141 0.950 . S
H2134 C2139 0.950 . S
H2135 C2140 0.949 . S
H2136 C2142 0.950 . S
H2137 C2143 0.950 . S
H2138 C2144 0.949 . S
C2139 H2134 0.950 . S
C2139 C2141 1.327 . S
C2139 C2145 1.429 . S
C2140 C2132 1.574 . S
C2140 H2135 0.949 . S
C2140 C2146 1.368 . S
C2141 C2125 1.349 . S
C2141 H2133 0.950 . S
C2141 C2139 1.327 . S
C2142 C2130 1.349 . S
C2142 H2136 0.950 . S
C2142 C2143 1.327 . S
C2143 H2137 0.950 . S
C2143 C2142 1.327 . S
C2143 C2147 1.429 . S
C2144 C2127 1.574 . S
C2144 H2138 0.949 . S
C2144 C2148 1.368 . S
C2145 C2126 1.429 . S
C2145 C2139 1.429 . S
C2145 C2146 1.523 . S
C2146 C2127 1.368 . S
C2146 C2140 1.368 . S
C2146 C2145 1.523 . S
C2147 C2131 1.429 . S
C2147 C2143 1.429 . S
C2147 C2148 1.523 . S
C2148 C2132 1.368 . S
C2148 C2144 1.368 . S
C2148 C2147 1.523 . S
H2149 C2124 0.950 . S
H2150 C2126 0.950 . S
H2151 C2127 0.949 . S
H2152 C2129 0.950 . S
H2153 C2131 0.950 . S
C2154 C2155 1.349 . S
C2154 C2156 1.327 . S
C2154 H2179 0.950 . S
C2155 C2154 1.349 . S
C2155 C2171 1.349 . S
C2156 C2154 1.327 . S
C2156 C2175 1.429 . S
C2156 H2180 0.950 . S
C2157 C2174 1.574 . S
C2157 C2176 1.368 . S
C2157 H2181 0.949 . S
H2158 C2162 0.949 . S
C2159 C2160 1.349 . S
C2159 C2161 1.327 . S
C2159 H2182 0.950 . S
C2160 C2159 1.349 . S
C2160 C2172 1.349 . S
C2161 C2159 1.327 . S
C2161 C2177 1.429 . S
C2161 H2183 0.950 . S
C2162 H2158 0.949 . S
C2162 C2170 1.574 . S
C2162 C2178 1.368 . S
H2163 C2171 0.950 . S
H2164 C2169 0.950 . S
H2165 C2170 0.949 . S
H2166 C2172 0.950 . S
H2167 C2173 0.950 . S
H2168 C2174 0.949 . S
C2169 H2164 0.950 . S
C2169 C2171 1.327 . S
C2169 C2175 1.429 . S
C2170 C2162 1.574 . S
C2170 H2165 0.949 . S
C2170 C2176 1.368 . S
C2171 C2155 1.349 . S
C2171 H2163 0.950 . S
C2171 C2169 1.327 . S
C2172 C2160 1.349 . S
C2172 H2166 0.950 . S
C2172 C2173 1.327 . S
C2173 H2167 0.950 . S
C2173 C2172 1.327 . S
C2173 C2177 1.429 . S
C2174 C2157 1.574 . S
C2174 H2168 0.949 . S
C2174 C2178 1.368 . S
C2175 C2156 1.429 . S
C2175 C2169 1.429 . S
C2175 C2176 1.523 . S
C2176 C2157 1.368 . S
C2176 C2170 1.368 . S
C2176 C2175 1.523 . S
C2177 C2161 1.429 . S
C2177 C2173 1.429 . S
C2177 C2178 1.523 . S
C2178 C2162 1.368 . S
C2178 C2174 1.368 . S
C2178 C2177 1.523 . S
H2179 C2154 0.950 . S
H2180 C2156 0.950 . S
H2181 C2157 0.949 . S
H2182 C2159 0.950 . S
H2183 C2161 0.950 . S
C2184 C2185 1.349 . S
C2184 C2186 1.327 . S
C2184 H2209 0.950 . S
C2185 C2184 1.349 . S
C2185 C2201 1.349 . S
C2186 C2184 1.327 . S
C2186 C2205 1.429 . S
C2186 H2210 0.950 . S
C2187 C2204 1.574 . S
C2187 C2206 1.368 . S
C2187 H2211 0.949 . S
H2188 C2192 0.949 . S
C2189 C2190 1.349 . S
C2189 C2191 1.327 . S
C2189 H2212 0.950 . S
C2190 C2189 1.349 . S
C2190 C2202 1.349 . S
C2191 C2189 1.327 . S
C2191 C2207 1.429 . S
C2191 H2213 0.950 . S
C2192 H2188 0.949 . S
C2192 C2200 1.574 . S
C2192 C2208 1.368 . S
H2193 C2201 0.950 . S
H2194 C2199 0.950 . S
H2195 C2200 0.949 . S
H2196 C2202 0.950 . S
H2197 C2203 0.950 . S
H2198 C2204 0.949 . S
C2199 H2194 0.950 . S
C2199 C2201 1.327 . S
C2199 C2205 1.429 . S
C2200 C2192 1.574 . S
C2200 H2195 0.949 . S
C2200 C2206 1.368 . S
C2201 C2185 1.349 . S
C2201 H2193 0.950 . S
C2201 C2199 1.327 . S
C2202 C2190 1.349 . S
C2202 H2196 0.950 . S
C2202 C2203 1.327 . S
C2203 H2197 0.950 . S
C2203 C2202 1.327 . S
C2203 C2207 1.429 . S
C2204 C2187 1.574 . S
C2204 H2198 0.949 . S
C2204 C2208 1.368 . S
C2205 C2186 1.429 . S
C2205 C2199 1.429 . S
C2205 C2206 1.523 . S
C2206 C2187 1.368 . S
C2206 C2200 1.368 . S
C2206 C2205 1.523 . S
C2207 C2191 1.429 . S
C2207 C2203 1.429 . S
C2207 C2208 1.523 . S
C2208 C2192 1.368 . S
C2208 C2204 1.368 . S
C2208 C2207 1.523 . S
H2209 C2184 0.950 . S
H2210 C2186 0.950 . S
H2211 C2187 0.949 . S
H2212 C2189 0.950 . S
H2213 C2191 0.950 . S
C2214 C2215 1.349 . S
C2214 C2216 1.327 . S
C2214 H2239 0.950 . S
C2215 C2214 1.349 . S
C2215 C2231 1.349 . S
C2216 C2214 1.327 . S
C2216 C2235 1.429 1_565 S
C2216 H2240 0.950 . S
C2217 C2234 1.574 . S
C2217 C2236 1.368 . S
C2217 H2241 0.949 . S
H2218 C2222 0.949 . S
C2219 C2220 1.349 . S
C2219 C2221 1.327 . S
C2219 H2242 0.950 . S
C2220 C2219 1.349 . S
C2220 C2232 1.349 . S
C2221 C2219 1.327 . S
C2221 C2237 1.429 . S
C2221 H2243 0.950 . S
C2222 H2218 0.949 . S
C2222 C2230 1.574 . S
C2222 C2238 1.368 . S
H2223 C2231 0.950 . S
H2224 C2229 0.950 1_545 S
H2225 C2230 0.949 . S
H2226 C2232 0.950 . S
H2227 C2233 0.950 . S
H2228 C2234 0.949 . S
C2229 H2224 0.950 1_565 S
C2229 C2231 1.327 . S
C2229 C2235 1.429 1_565 S
C2230 C2222 1.574 . S
C2230 H2225 0.949 . S
C2230 C2236 1.368 . S
C2231 C2215 1.349 . S
C2231 H2223 0.950 . S
C2231 C2229 1.327 . S
C2232 C2220 1.349 . S
C2232 H2226 0.950 . S
C2232 C2233 1.327 . S
C2233 H2227 0.950 . S
C2233 C2232 1.327 . S
C2233 C2237 1.429 . S
C2234 C2217 1.574 . S
C2234 H2228 0.949 . S
C2234 C2238 1.368 . S
C2235 C2216 1.429 1_545 S
C2235 C2229 1.429 1_545 S
C2235 C2236 1.523 . S
C2236 C2217 1.368 . S
C2236 C2230 1.368 . S
C2236 C2235 1.523 . S
C2237 C2221 1.429 . S
C2237 C2233 1.429 . S
C2237 C2238 1.523 . S
C2238 C2222 1.368 . S
C2238 C2234 1.368 . S
C2238 C2237 1.523 . S
H2239 C2214 0.950 . S
H2240 C2216 0.950 . S
H2241 C2217 0.949 . S
H2242 C2219 0.950 . S
H2243 C2221 0.950 . S
C2244 C2245 1.349 . S
C2244 C2246 1.327 1_455 S
C2244 H2269 0.950 . S
C2245 C2244 1.349 . S
C2245 C2261 1.349 . S
C2246 C2244 1.327 1_655 S
C2246 C2265 1.429 . S
C2246 H2270 0.950 . S
C2247 C2264 1.574 . S
C2247 C2266 1.368 . S
C2247 H2271 0.949 . S
H2248 C2252 0.949 . S
C2249 C2250 1.349 . S
C2249 C2251 1.327 . S
C2249 H2272 0.950 . S
C2250 C2249 1.349 . S
C2250 C2262 1.349 . S
C2251 C2249 1.327 . S
C2251 C2267 1.429 . S
C2251 H2273 0.950 . S
C2252 H2248 0.949 . S
C2252 C2260 1.574 . S
C2252 C2268 1.368 . S
H2253 C2261 0.950 . S
H2254 C2259 0.950 . S
H2255 C2260 0.949 . S
H2256 C2262 0.950 . S
H2257 C2263 0.950 . S
H2258 C2264 0.949 . S
C2259 H2254 0.950 . S
C2259 C2261 1.327 . S
C2259 C2265 1.429 1_455 S
C2260 C2252 1.574 . S
C2260 H2255 0.949 . S
C2260 C2266 1.368 . S
C2261 C2245 1.349 . S
C2261 H2253 0.950 . S
C2261 C2259 1.327 . S
C2262 C2250 1.349 . S
C2262 H2256 0.950 . S
C2262 C2263 1.327 . S
C2263 H2257 0.950 . S
C2263 C2262 1.327 . S
C2263 C2267 1.429 . S
C2264 C2247 1.574 . S
C2264 H2258 0.949 . S
C2264 C2268 1.368 . S
C2265 C2246 1.429 . S
C2265 C2259 1.429 1_655 S
C2265 C2266 1.523 . S
C2266 C2247 1.368 . S
C2266 C2260 1.368 . S
C2266 C2265 1.523 . S
C2267 C2251 1.429 . S
C2267 C2263 1.429 . S
C2267 C2268 1.523 . S
C2268 C2252 1.368 . S
C2268 C2264 1.368 . S
C2268 C2267 1.523 . S
H2269 C2244 0.950 . S
H2270 C2246 0.950 . S
H2271 C2247 0.949 . S
H2272 C2249 0.950 . S
H2273 C2251 0.950 . S
C2274 C2275 1.349 . S
C2274 C2276 1.327 . S
C2274 H2299 0.950 . S
C2275 C2274 1.349 . S
C2275 C2291 1.349 . S
C2276 C2274 1.327 . S
C2276 C2295 1.429 . S
C2276 H2300 0.950 . S
C2277 C2294 1.574 . S
C2277 C2296 1.368 . S
C2277 H2301 0.949 . S
H2278 C2282 0.949 . S
C2279 C2280 1.349 . S
C2279 C2281 1.327 . S
C2279 H2302 0.950 . S
C2280 C2279 1.349 . S
C2280 C2292 1.349 . S
C2281 C2279 1.327 . S
C2281 C2297 1.429 . S
C2281 H2303 0.950 . S
C2282 H2278 0.949 . S
C2282 C2290 1.574 . S
C2282 C2298 1.368 . S
H2283 C2291 0.950 . S
H2284 C2289 0.950 . S
H2285 C2290 0.949 . S
H2286 C2292 0.950 . S
H2287 C2293 0.950 . S
H2288 C2294 0.949 . S
C2289 H2284 0.950 . S
C2289 C2291 1.327 . S
C2289 C2295 1.429 . S
C2290 C2282 1.574 . S
C2290 H2285 0.949 . S
C2290 C2296 1.368 . S
C2291 C2275 1.349 . S
C2291 H2283 0.950 . S
C2291 C2289 1.327 . S
C2292 C2280 1.349 . S
C2292 H2286 0.950 . S
C2292 C2293 1.327 . S
C2293 H2287 0.950 . S
C2293 C2292 1.327 . S
C2293 C2297 1.429 . S
C2294 C2277 1.574 . S
C2294 H2288 0.949 . S
C2294 C2298 1.368 . S
C2295 C2276 1.429 . S
C2295 C2289 1.429 . S
C2295 C2296 1.523 . S
C2296 C2277 1.368 . S
C2296 C2290 1.368 . S
C2296 C2295 1.523 . S
C2297 C2281 1.429 . S
C2297 C2293 1.429 . S
C2297 C2298 1.523 . S
C2298 C2282 1.368 . S
C2298 C2294 1.368 . S
C2298 C2297 1.523 . S
H2299 C2274 0.950 . S
H2300 C2276 0.950 . S
H2301 C2277 0.949 . S
H2302 C2279 0.950 . S
H2303 C2281 0.950 . S
C2304 C2305 1.349 . S
C2304 C2306 1.327 1_455 S
C2304 H2329 0.950 . S
C2305 C2304 1.349 . S
C2305 C2321 1.349 . S
C2306 C2304 1.327 1_655 S
C2306 C2325 1.429 . S
C2306 H2330 0.950 . S
C2307 C2324 1.574 . S
C2307 C2326 1.368 . S
C2307 H2331 0.949 . S
H2308 C2312 0.949 . S
C2309 C2310 1.349 . S
C2309 C2311 1.327 . S
C2309 H2332 0.950 . S
C2310 C2309 1.349 . S
C2310 C2322 1.349 . S
C2311 C2309 1.327 . S
C2311 C2327 1.429 . S
C2311 H2333 0.950 . S
C2312 H2308 0.949 . S
C2312 C2320 1.574 . S
C2312 C2328 1.368 . S
H2313 C2321 0.950 . S
H2314 C2319 0.950 . S
H2315 C2320 0.949 . S
H2316 C2322 0.950 . S
H2317 C2323 0.950 . S
H2318 C2324 0.949 . S
C2319 H2314 0.950 . S
C2319 C2321 1.327 . S
C2319 C2325 1.429 1_455 S
C2320 C2312 1.574 . S
C2320 H2315 0.949 . S
C2320 C2326 1.368 . S
C2321 C2305 1.349 . S
C2321 H2313 0.950 . S
C2321 C2319 1.327 . S
C2322 C2310 1.349 . S
C2322 H2316 0.950 . S
C2322 C2323 1.327 . S
C2323 H2317 0.950 . S
C2323 C2322 1.327 . S
C2323 C2327 1.429 . S
C2324 C2307 1.574 . S
C2324 H2318 0.949 . S
C2324 C2328 1.368 . S
C2325 C2306 1.429 . S
C2325 C2319 1.429 1_655 S
C2325 C2326 1.523 . S
C2326 C2307 1.368 . S
C2326 C2320 1.368 . S
C2326 C2325 1.523 . S
C2327 C2311 1.429 . S
C2327 C2323 1.429 . S
C2327 C2328 1.523 . S
C2328 C2312 1.368 . S
C2328 C2324 1.368 . S
C2328 C2327 1.523 . S
H2329 C2304 0.950 . S
H2330 C2306 0.950 . S
H2331 C2307 0.949 . S
H2332 C2309 0.950 . S
H2333 C2311 0.950 . S
C2334 C2335 1.349 . S
C2334 C2336 1.327 . S
C2334 H2359 0.950 . S
C2335 C2334 1.349 . S
C2335 C2351 1.349 . S
C2336 C2334 1.327 . S
C2336 C2355 1.429 . S
C2336 H2360 0.950 . S
C2337 C2354 1.574 . S
C2337 C2356 1.368 . S
C2337 H2361 0.949 . S
H2338 C2342 0.949 . S
C2339 C2340 1.349 . S
C2339 C2341 1.327 . S
C2339 H2362 0.950 . S
C2340 C2339 1.349 . S
C2340 C2352 1.349 . S
C2341 C2339 1.327 . S
C2341 C2357 1.429 . S
C2341 H2363 0.950 . S
C2342 H2338 0.949 . S
C2342 C2350 1.574 . S
C2342 C2358 1.368 . S
H2343 C2351 0.950 . S
H2344 C2349 0.950 . S
H2345 C2350 0.949 . S
H2346 C2352 0.950 . S
H2347 C2353 0.950 . S
H2348 C2354 0.949 . S
C2349 H2344 0.950 . S
C2349 C2351 1.327 . S
C2349 C2355 1.429 . S
C2350 C2342 1.574 . S
C2350 H2345 0.949 . S
C2350 C2356 1.368 . S
C2351 C2335 1.349 . S
C2351 H2343 0.950 . S
C2351 C2349 1.327 . S
C2352 C2340 1.349 . S
C2352 H2346 0.950 . S
C2352 C2353 1.327 . S
C2353 H2347 0.950 . S
C2353 C2352 1.327 . S
C2353 C2357 1.429 . S
C2354 C2337 1.574 . S
C2354 H2348 0.949 . S
C2354 C2358 1.368 . S
C2355 C2336 1.429 . S
C2355 C2349 1.429 . S
C2355 C2356 1.523 . S
C2356 C2337 1.368 . S
C2356 C2350 1.368 . S
C2356 C2355 1.523 . S
C2357 C2341 1.429 . S
C2357 C2353 1.429 . S
C2357 C2358 1.523 . S
C2358 C2342 1.368 . S
C2358 C2354 1.368 . S
C2358 C2357 1.523 . S
H2359 C2334 0.950 . S
H2360 C2336 0.950 . S
H2361 C2337 0.949 . S
H2362 C2339 0.950 . S
H2363 C2341 0.950 . S
C2364 C2365 1.349 . S
C2364 C2366 1.327 . S
C2364 H2389 0.950 . S
C2365 C2364 1.349 . S
C2365 C2381 1.349 . S
C2366 C2364 1.327 . S
C2366 C2385 1.414 1_565 S
C2366 H2390 0.950 . S
C2367 C2384 1.574 . S
C2367 C2386 1.368 . S
C2367 H2391 0.949 . S
H2368 C2372 0.949 . S
C2369 C2370 1.349 . S
C2369 C2371 1.327 . S
C2369 H2392 0.950 . S
C2370 C2369 1.349 . S
C2370 C2382 1.349 . S
C2371 C2369 1.327 . S
C2371 C2387 1.429 . S
C2371 H2393 0.950 . S
C2372 H2368 0.949 . S
C2372 C2380 1.574 . S
C2372 C2388 1.368 . S
H2373 C2381 0.950 . S
H2374 C2379 0.950 1_545 S
H2375 C2380 0.949 . S
H2376 C2382 0.950 . S
H2377 C2383 0.950 . S
H2378 C2384 0.949 . S
C2379 H2374 0.950 1_565 S
C2379 C2381 1.327 . S
C2379 C2385 1.427 1_565 S
C2380 C2372 1.574 . S
C2380 H2375 0.949 . S
C2380 C2386 1.368 . S
C2381 C2365 1.349 . S
C2381 H2373 0.950 . S
C2381 C2379 1.327 . S
C2382 C2370 1.349 . S
C2382 H2376 0.950 . S
C2382 C2383 1.327 . S
C2383 H2377 0.950 . S
C2383 C2382 1.327 . S
C2383 C2387 1.429 . S
C2384 C2367 1.574 . S
C2384 H2378 0.949 . S
C2384 C2388 1.368 . S
C2385 C2366 1.414 1_545 S
C2385 C2379 1.427 1_545 S
C2385 C2386 1.537 . S
C2386 C2367 1.368 . S
C2386 C2380 1.368 . S
C2386 C2385 1.537 . S
C2387 C2371 1.429 . S
C2387 C2383 1.429 . S
C2387 C2388 1.523 . S
C2388 C2372 1.368 . S
C2388 C2384 1.368 . S
C2388 C2387 1.523 . S
H2389 C2364 0.950 . S
H2390 C2366 0.950 . S
H2391 C2367 0.949 . S
H2392 C2369 0.950 . S
H2393 C2371 0.950 . S
C2394 C2395 1.349 . S
C2394 C2396 1.327 . S
C2394 H2419 0.950 . S
C2395 C2394 1.349 . S
C2395 C2411 1.349 . S
C2396 C2394 1.327 . S
C2396 C2415 1.429 . S
C2396 H2420 0.950 . S
C2397 C2414 1.574 . S
C2397 C2416 1.368 . S
C2397 H2421 0.949 . S
H2398 C2402 0.949 . S
C2399 C2400 1.349 . S
C2399 C2401 1.327 . S
C2399 H2422 0.950 . S
C2400 C2399 1.349 . S
C2400 C2412 1.349 . S
C2401 C2399 1.327 . S
C2401 C2417 1.429 . S
C2401 H2423 0.950 . S
C2402 H2398 0.949 . S
C2402 C2410 1.574 . S
C2402 C2418 1.368 . S
H2403 C2411 0.950 . S
H2404 C2409 0.950 . S
H2405 C2410 0.949 . S
H2406 C2412 0.950 . S
H2407 C2413 0.950 . S
H2408 C2414 0.949 . S
C2409 H2404 0.950 . S
C2409 C2411 1.327 . S
C2409 C2415 1.429 . S
C2410 C2402 1.574 . S
C2410 H2405 0.949 . S
C2410 C2416 1.368 . S
C2411 C2395 1.349 . S
C2411 H2403 0.950 . S
C2411 C2409 1.327 . S
C2412 C2400 1.349 . S
C2412 H2406 0.950 . S
C2412 C2413 1.327 . S
C2413 H2407 0.950 . S
C2413 C2412 1.327 . S
C2413 C2417 1.429 . S
C2414 C2397 1.574 . S
C2414 H2408 0.949 . S
C2414 C2418 1.368 . S
C2415 C2396 1.429 . S
C2415 C2409 1.429 . S
C2415 C2416 1.523 . S
C2416 C2397 1.368 . S
C2416 C2410 1.368 . S
C2416 C2415 1.523 . S
C2417 C2401 1.429 . S
C2417 C2413 1.429 . S
C2417 C2418 1.523 . S
C2418 C2402 1.368 . S
C2418 C2414 1.368 . S
C2418 C2417 1.523 . S
H2419 C2394 0.950 . S
H2420 C2396 0.950 . S
H2421 C2397 0.949 . S
H2422 C2399 0.950 . S
H2423 C2401 0.950 . S
C2424 C2425 1.349 . S
C2424 C2426 1.327 . S
C2424 H2449 0.950 . S
C2425 C2424 1.349 . S
C2425 C2441 1.349 . S
C2426 C2424 1.327 . S
C2426 C2445 1.429 . S
C2426 H2450 0.950 . S
C2427 C2444 1.574 . S
C2427 C2446 1.368 . S
C2427 H2451 0.949 . S
H2428 C2432 0.949 . S
C2429 C2430 1.349 . S
C2429 C2431 1.327 . S
C2429 H2452 0.950 . S
C2430 C2429 1.349 . S
C2430 C2442 1.349 . S
C2431 C2429 1.327 . S
C2431 C2447 1.429 . S
C2431 H2453 0.950 . S
C2432 H2428 0.949 . S
C2432 C2440 1.574 . S
C2432 C2448 1.368 . S
H2433 C2441 0.950 . S
H2434 C2439 0.950 . S
H2435 C2440 0.949 . S
H2436 C2442 0.950 . S
H2437 C2443 0.950 . S
H2438 C2444 0.949 . S
C2439 H2434 0.950 . S
C2439 C2441 1.327 . S
C2439 C2445 1.429 . S
C2440 C2432 1.574 . S
C2440 H2435 0.949 . S
C2440 C2446 1.368 . S
C2441 C2425 1.349 . S
C2441 H2433 0.950 . S
C2441 C2439 1.327 . S
C2442 C2430 1.349 . S
C2442 H2436 0.950 . S
C2442 C2443 1.327 . S
C2443 H2437 0.950 . S
C2443 C2442 1.327 . S
C2443 C2447 1.429 . S
C2444 C2427 1.574 . S
C2444 H2438 0.949 . S
C2444 C2448 1.368 . S
C2445 C2426 1.429 . S
C2445 C2439 1.429 . S
C2445 C2446 1.523 . S
C2446 C2427 1.368 . S
C2446 C2440 1.368 . S
C2446 C2445 1.523 . S
C2447 C2431 1.429 . S
C2447 C2443 1.429 . S
C2447 C2448 1.523 . S
C2448 C2432 1.368 . S
C2448 C2444 1.368 . S
C2448 C2447 1.523 . S
H2449 C2424 0.950 . S
H2450 C2426 0.950 . S
H2451 C2427 0.949 . S
H2452 C2429 0.950 . S
H2453 C2431 0.950 . S
C2454 C2455 1.349 . S
C2454 C2456 1.327 . S
C2454 H2479 0.950 . S
C2455 C2454 1.349 . S
C2455 C2471 1.349 . S
C2456 C2454 1.327 . S
C2456 C2475 1.429 . S
C2456 H2480 0.950 . S
C2457 C2474 1.574 . S
C2457 C2476 1.368 . S
C2457 H2481 0.949 . S
H2458 C2462 0.949 . S
C2459 C2460 1.349 . S
C2459 C2461 1.327 . S
C2459 H2482 0.950 . S
C2460 C2459 1.349 . S
C2460 C2472 1.349 . S
C2461 C2459 1.327 . S
C2461 C2477 1.429 . S
C2461 H2483 0.950 . S
C2462 H2458 0.949 . S
C2462 C2470 1.574 . S
C2462 C2478 1.368 . S
H2463 C2471 0.950 . S
H2464 C2469 0.950 . S
H2465 C2470 0.949 . S
H2466 C2472 0.950 . S
H2467 C2473 0.950 . S
H2468 C2474 0.949 . S
C2469 H2464 0.950 . S
C2469 C2471 1.327 . S
C2469 C2475 1.429 . S
C2470 C2462 1.574 . S
C2470 H2465 0.949 . S
C2470 C2476 1.368 . S
C2471 C2455 1.349 . S
C2471 H2463 0.950 . S
C2471 C2469 1.327 . S
C2472 C2460 1.349 . S
C2472 H2466 0.950 . S
C2472 C2473 1.327 . S
C2473 H2467 0.950 . S
C2473 C2472 1.327 . S
C2473 C2477 1.429 . S
C2474 C2457 1.574 . S
C2474 H2468 0.949 . S
C2474 C2478 1.368 . S
C2475 C2456 1.429 . S
C2475 C2469 1.429 . S
C2475 C2476 1.523 . S
C2476 C2457 1.368 . S
C2476 C2470 1.368 . S
C2476 C2475 1.523 . S
C2477 C2461 1.429 . S
C2477 C2473 1.429 . S
C2477 C2478 1.523 . S
C2478 C2462 1.368 . S
C2478 C2474 1.368 . S
C2478 C2477 1.523 . S
H2479 C2454 0.950 . S
H2480 C2456 0.950 . S
H2481 C2457 0.949 . S
H2482 C2459 0.950 . S
H2483 C2461 0.950 . S
C2484 C2485 1.349 . S
C2484 C2486 1.327 . S
C2484 H2509 0.950 . S
C2485 C2484 1.349 . S
C2485 C2501 1.349 . S
C2486 C2484 1.327 . S
C2486 C2505 1.429 . S
C2486 H2510 0.950 . S
C2487 C2504 1.574 . S
C2487 C2506 1.368 . S
C2487 H2511 0.949 . S
H2488 C2492 0.949 . S
C2489 C2490 1.349 . S
C2489 C2491 1.327 . S
C2489 H2512 0.950 . S
C2490 C2489 1.349 . S
C2490 C2502 1.349 . S
C2491 C2489 1.327 . S
C2491 C2507 1.429 . S
C2491 H2513 0.950 . S
C2492 H2488 0.949 . S
C2492 C2500 1.574 . S
C2492 C2508 1.368 . S
H2493 C2501 0.950 . S
H2494 C2499 0.950 . S
H2495 C2500 0.949 . S
H2496 C2502 0.950 . S
H2497 C2503 0.950 . S
H2498 C2504 0.949 . S
C2499 H2494 0.950 . S
C2499 C2501 1.327 . S
C2499 C2505 1.429 . S
C2500 C2492 1.574 . S
C2500 H2495 0.949 . S
C2500 C2506 1.368 . S
C2501 C2485 1.349 . S
C2501 H2493 0.950 . S
C2501 C2499 1.327 . S
C2502 C2490 1.349 . S
C2502 H2496 0.950 . S
C2502 C2503 1.327 . S
C2503 H2497 0.950 . S
C2503 C2502 1.327 . S
C2503 C2507 1.429 . S
C2504 C2487 1.574 . S
C2504 H2498 0.949 . S
C2504 C2508 1.368 . S
C2505 C2486 1.429 . S
C2505 C2499 1.429 . S
C2505 C2506 1.523 . S
C2506 C2487 1.368 . S
C2506 C2500 1.368 . S
C2506 C2505 1.523 . S
C2507 C2491 1.429 . S
C2507 C2503 1.429 . S
C2507 C2508 1.523 . S
C2508 C2492 1.368 . S
C2508 C2504 1.368 . S
C2508 C2507 1.523 . S
H2509 C2484 0.950 . S
H2510 C2486 0.950 . S
H2511 C2487 0.949 . S
H2512 C2489 0.950 . S
H2513 C2491 0.950 . S
C2514 C2515 1.349 . S
C2514 C2516 1.327 . S
C2514 H2539 0.950 . S
C2515 C2514 1.349 . S
C2515 C2531 1.349 . S
C2516 C2514 1.327 . S
C2516 C2535 1.429 . S
C2516 H2540 0.950 . S
C2517 C2534 1.574 . S
C2517 C2536 1.368 . S
C2517 H2541 0.949 . S
H2518 C2522 0.949 . S
C2519 C2520 1.349 . S
C2519 C2521 1.327 . S
C2519 H2542 0.950 1_455 S
C2520 C2519 1.349 . S
C2520 C2532 1.349 . S
C2521 C2519 1.327 . S
C2521 C2537 1.429 . S
C2521 H2543 0.942 1_455 S
C2522 H2518 0.949 . S
C2522 C2530 1.574 . S
C2522 C2538 1.368 . S
H2523 C2531 0.950 . S
H2524 C2529 0.950 . S
H2525 C2530 0.949 . S
H2526 C2532 0.950 . S
H2527 C2533 0.950 . S
H2528 C2534 0.949 . S
C2529 H2524 0.950 . S
C2529 C2531 1.327 . S
C2529 C2535 1.429 . S
C2530 C2522 1.574 . S
C2530 H2525 0.949 . S
C2530 C2536 1.368 . S
C2531 C2515 1.349 . S
C2531 H2523 0.950 . S
C2531 C2529 1.327 . S
C2532 C2520 1.349 . S
C2532 H2526 0.950 . S
C2532 C2533 1.327 . S
C2533 H2527 0.950 . S
C2533 C2532 1.327 . S
C2533 C2537 1.429 . S
C2534 C2517 1.574 . S
C2534 H2528 0.949 . S
C2534 C2538 1.368 . S
C2535 C2516 1.429 . S
C2535 C2529 1.429 . S
C2535 C2536 1.523 . S
C2536 C2517 1.368 . S
C2536 C2530 1.368 . S
C2536 C2535 1.523 . S
C2537 C2521 1.429 . S
C2537 C2533 1.429 . S
C2537 C2538 1.523 . S
C2538 C2522 1.368 . S
C2538 C2534 1.368 . S
C2538 C2537 1.523 . S
H2539 C2514 0.950 . S
H2540 C2516 0.950 . S
H2541 C2517 0.949 . S
H2542 C2519 0.950 1_655 S
H2543 C2521 0.942 1_655 S
C2544 C2545 1.349 . S
C2544 C2546 1.327 . S
C2544 H2569 0.950 . S
C2545 C2544 1.349 . S
C2545 C2561 1.349 . S
C2546 C2544 1.327 . S
C2546 C2565 1.429 . S
C2546 H2570 0.950 . S
C2547 C2564 1.574 . S
C2547 C2566 1.368 . S
C2547 H2571 0.949 . S
H2548 C2552 0.949 . S
C2549 C2550 1.349 . S
C2549 C2551 1.327 . S
C2549 H2572 0.950 . S
C2550 C2549 1.349 . S
C2550 C2562 1.349 . S
C2551 C2549 1.327 . S
C2551 C2567 1.429 . S
C2551 H2573 0.950 . S
C2552 H2548 0.949 . S
C2552 C2560 1.574 . S
C2552 C2568 1.368 . S
H2553 C2561 0.950 . S
H2554 C2559 0.950 . S
H2555 C2560 0.949 . S
H2556 C2562 0.950 . S
H2557 C2563 0.950 . S
H2558 C2564 0.949 . S
C2559 H2554 0.950 . S
C2559 C2561 1.327 . S
C2559 C2565 1.429 . S
C2560 C2552 1.574 . S
C2560 H2555 0.949 . S
C2560 C2566 1.368 . S
C2561 C2545 1.349 . S
C2561 H2553 0.950 . S
C2561 C2559 1.327 . S
C2562 C2550 1.349 . S
C2562 H2556 0.950 . S
C2562 C2563 1.327 . S
C2563 H2557 0.950 . S
C2563 C2562 1.327 . S
C2563 C2567 1.429 . S
C2564 C2547 1.574 . S
C2564 H2558 0.949 . S
C2564 C2568 1.368 . S
C2565 C2546 1.429 . S
C2565 C2559 1.429 . S
C2565 C2566 1.523 . S
C2566 C2547 1.368 . S
C2566 C2560 1.368 . S
C2566 C2565 1.523 . S
C2567 C2551 1.429 . S
C2567 C2563 1.429 . S
C2567 C2568 1.523 . S
C2568 C2552 1.368 . S
C2568 C2564 1.368 . S
C2568 C2567 1.523 . S
H2569 C2544 0.950 . S
H2570 C2546 0.950 . S
H2571 C2547 0.949 . S
H2572 C2549 0.950 . S
H2573 C2551 0.950 . S
C2574 C2575 1.349 . S
C2574 C2576 1.327 . S
C2574 H2599 0.950 . S
C2575 C2574 1.349 . S
C2575 C2591 1.349 . S
C2576 C2574 1.327 . S
C2576 C2595 1.429 . S
C2576 H2600 0.950 . S
C2577 C2594 1.574 . S
C2577 C2596 1.368 . S
C2577 H2601 0.949 . S
H2578 C2582 0.949 . S
C2579 C2580 1.349 . S
C2579 C2581 1.327 . S
C2579 H2602 0.950 . S
C2580 C2579 1.349 . S
C2580 C2592 1.349 . S
C2581 C2579 1.327 . S
C2581 C2597 1.429 . S
C2581 H2603 0.950 . S
C2582 H2578 0.949 . S
C2582 C2590 1.574 . S
C2582 C2598 1.368 . S
H2583 C2591 0.950 . S
H2584 C2589 0.950 . S
H2585 C2590 0.949 . S
H2586 C2592 0.950 . S
H2587 C2593 0.950 . S
H2588 C2594 0.949 . S
C2589 H2584 0.950 . S
C2589 C2591 1.327 . S
C2589 C2595 1.429 . S
C2590 C2582 1.574 . S
C2590 H2585 0.949 . S
C2590 C2596 1.368 . S
C2591 C2575 1.349 . S
C2591 H2583 0.950 . S
C2591 C2589 1.327 . S
C2592 C2580 1.349 . S
C2592 H2586 0.950 . S
C2592 C2593 1.327 . S
C2593 H2587 0.950 . S
C2593 C2592 1.327 . S
C2593 C2597 1.429 . S
C2594 C2577 1.574 . S
C2594 H2588 0.949 . S
C2594 C2598 1.368 . S
C2595 C2576 1.429 . S
C2595 C2589 1.429 . S
C2595 C2596 1.523 . S
C2596 C2577 1.368 . S
C2596 C2590 1.368 . S
C2596 C2595 1.523 . S
C2597 C2581 1.429 . S
C2597 C2593 1.429 . S
C2597 C2598 1.523 . S
C2598 C2582 1.368 . S
C2598 C2594 1.368 . S
C2598 C2597 1.523 . S
H2599 C2574 0.950 . S
H2600 C2576 0.950 . S
H2601 C2577 0.949 . S
H2602 C2579 0.950 . S
H2603 C2581 0.950 . S
C2604 C2605 1.349 . S
C2604 C2606 1.327 . S
C2604 H2629 0.950 . S
C2605 C2604 1.349 . S
C2605 C2621 1.349 . S
C2606 C2604 1.327 . S
C2606 C2625 1.429 . S
C2606 H2630 0.950 . S
C2607 C2624 1.574 . S
C2607 C2626 1.368 . S
C2607 H2631 0.949 . S
H2608 C2612 0.949 . S
C2609 C2610 1.349 . S
C2609 C2611 1.327 . S
C2609 H2632 0.950 . S
C2610 C2609 1.349 . S
C2610 C2622 1.349 . S
C2611 C2609 1.327 . S
C2611 C2627 1.429 . S
C2611 H2633 0.950 . S
C2612 H2608 0.949 . S
C2612 C2620 1.574 . S
C2612 C2628 1.368 . S
H2613 C2621 0.950 . S
H2614 C2619 0.950 . S
H2615 C2620 0.949 . S
H2616 C2622 0.950 . S
H2617 C2623 0.950 . S
H2618 C2624 0.949 . S
C2619 H2614 0.950 . S
C2619 C2621 1.327 . S
C2619 C2625 1.429 . S
C2620 C2612 1.574 . S
C2620 H2615 0.949 . S
C2620 C2626 1.368 . S
C2621 C2605 1.349 . S
C2621 H2613 0.950 . S
C2621 C2619 1.327 . S
C2622 C2610 1.349 . S
C2622 H2616 0.950 . S
C2622 C2623 1.327 . S
C2623 H2617 0.950 . S
C2623 C2622 1.327 . S
C2623 C2627 1.429 . S
C2624 C2607 1.574 . S
C2624 H2618 0.949 . S
C2624 C2628 1.368 . S
C2625 C2606 1.429 . S
C2625 C2619 1.429 . S
C2625 C2626 1.523 . S
C2626 C2607 1.368 . S
C2626 C2620 1.368 . S
C2626 C2625 1.523 . S
C2627 C2611 1.429 . S
C2627 C2623 1.429 . S
C2627 C2628 1.523 . S
C2628 C2612 1.368 . S
C2628 C2624 1.368 . S
C2628 C2627 1.523 . S
H2629 C2604 0.950 . S
H2630 C2606 0.950 . S
H2631 C2607 0.949 . S
H2632 C2609 0.950 . S
H2633 C2611 0.950 . S
C2634 C2635 1.349 . S
C2634 C2636 1.327 . S
C2634 H2659 0.950 . S
C2635 C2634 1.349 . S
C2635 C2651 1.349 . S
C2636 C2634 1.327 . S
C2636 C2655 1.429 . S
C2636 H2660 0.950 . S
C2637 C2654 1.574 . S
C2637 C2656 1.368 . S
C2637 H2661 0.949 . S
H2638 C2642 0.949 . S
C2639 C2640 1.349 . S
C2639 C2641 1.327 . S
C2639 H2662 0.950 1_545 S
C2640 C2639 1.349 . S
C2640 C2652 1.349 . S
C2641 C2639 1.327 . S
C2641 C2657 1.429 . S
C2641 H2663 0.950 . S
C2642 H2638 0.949 . S
C2642 C2650 1.574 . S
C2642 C2658 1.368 . S
H2643 C2651 0.950 . S
H2644 C2649 0.950 . S
H2645 C2650 0.949 . S
H2646 C2652 0.950 . S
H2647 C2653 0.950 . S
H2648 C2654 0.949 . S
C2649 H2644 0.950 . S
C2649 C2651 1.327 . S
C2649 C2655 1.429 . S
C2650 C2642 1.574 . S
C2650 H2645 0.949 . S
C2650 C2656 1.368 . S
C2651 C2635 1.349 . S
C2651 H2643 0.950 . S
C2651 C2649 1.327 . S
C2652 C2640 1.349 . S
C2652 H2646 0.950 . S
C2652 C2653 1.327 . S
C2653 H2647 0.950 . S
C2653 C2652 1.327 . S
C2653 C2657 1.429 . S
C2654 C2637 1.574 . S
C2654 H2648 0.949 . S
C2654 C2658 1.368 . S
C2655 C2636 1.429 . S
C2655 C2649 1.429 . S
C2655 C2656 1.523 . S
C2656 C2637 1.368 . S
C2656 C2650 1.368 . S
C2656 C2655 1.523 . S
C2657 C2641 1.429 . S
C2657 C2653 1.429 . S
C2657 C2658 1.523 . S
C2658 C2642 1.368 . S
C2658 C2654 1.368 . S
C2658 C2657 1.523 . S
H2659 C2634 0.950 . S
H2660 C2636 0.950 . S
H2661 C2637 0.949 . S
H2662 C2639 0.950 1_565 S
H2663 C2641 0.950 . S
C2664 C2665 1.349 . S
C2664 C2666 1.327 . S
C2664 H2689 0.950 . S
C2665 C2664 1.349 . S
C2665 C2681 1.349 . S
C2666 C2664 1.327 . S
C2666 C2685 1.429 . S
C2666 H2690 0.950 . S
C2667 C2684 1.574 . S
C2667 C2686 1.368 . S
C2667 H2691 0.949 . S
H2668 C2672 0.949 . S
C2669 C2670 1.349 . S
C2669 C2671 1.327 . S
C2669 H2692 0.950 . S
C2670 C2669 1.349 . S
C2670 C2682 1.349 . S
C2671 C2669 1.327 . S
C2671 C2687 1.429 . S
C2671 H2693 0.950 . S
C2672 H2668 0.949 . S
C2672 C2680 1.574 . S
C2672 C2688 1.368 . S
H2673 C2681 0.950 . S
H2674 C2679 0.950 . S
H2675 C2680 0.949 . S
H2676 C2682 0.950 . S
H2677 C2683 0.950 . S
H2678 C2684 0.949 . S
C2679 H2674 0.950 . S
C2679 C2681 1.327 . S
C2679 C2685 1.429 . S
C2680 C2672 1.574 . S
C2680 H2675 0.949 . S
C2680 C2686 1.368 . S
C2681 C2665 1.349 . S
C2681 H2673 0.950 . S
C2681 C2679 1.327 . S
C2682 C2670 1.349 . S
C2682 H2676 0.950 . S
C2682 C2683 1.327 . S
C2683 H2677 0.950 . S
C2683 C2682 1.327 . S
C2683 C2687 1.429 . S
C2684 C2667 1.574 . S
C2684 H2678 0.949 . S
C2684 C2688 1.368 . S
C2685 C2666 1.429 . S
C2685 C2679 1.429 . S
C2685 C2686 1.523 . S
C2686 C2667 1.368 . S
C2686 C2680 1.368 . S
C2686 C2685 1.523 . S
C2687 C2671 1.429 . S
C2687 C2683 1.429 . S
C2687 C2688 1.523 . S
C2688 C2672 1.368 . S
C2688 C2684 1.368 . S
C2688 C2687 1.523 . S
H2689 C2664 0.950 . S
H2690 C2666 0.950 . S
H2691 C2667 0.949 . S
H2692 C2669 0.950 . S
H2693 C2671 0.950 . S
C2694 C2695 1.349 . S
C2694 C2696 1.327 . S
C2694 H2719 0.950 . S
C2695 C2694 1.349 . S
C2695 C2711 1.349 . S
C2696 C2694 1.327 . S
C2696 C2715 1.429 . S
C2696 H2720 0.950 . S
C2697 C2714 1.574 . S
C2697 C2716 1.368 . S
C2697 H2721 0.949 . S
H2698 C2702 0.949 . S
C2699 C2700 1.349 . S
C2699 C2701 1.327 . S
C2699 H2722 0.950 . S
C2700 C2699 1.349 . S
C2700 C2712 1.349 . S
C2701 C2699 1.327 . S
C2701 C2717 1.429 . S
C2701 H2723 0.950 . S
C2702 H2698 0.949 . S
C2702 C2710 1.574 . S
C2702 C2718 1.368 . S
H2703 C2711 0.950 . S
H2704 C2709 0.950 . S
H2705 C2710 0.949 . S
H2706 C2712 0.950 . S
H2707 C2713 0.950 . S
H2708 C2714 0.949 . S
C2709 H2704 0.950 . S
C2709 C2711 1.327 . S
C2709 C2715 1.429 . S
C2710 C2702 1.574 . S
C2710 H2705 0.949 . S
C2710 C2716 1.368 . S
C2711 C2695 1.349 . S
C2711 H2703 0.950 . S
C2711 C2709 1.327 . S
C2712 C2700 1.349 . S
C2712 H2706 0.950 . S
C2712 C2713 1.327 . S
C2713 H2707 0.950 . S
C2713 C2712 1.327 . S
C2713 C2717 1.429 . S
C2714 C2697 1.574 . S
C2714 H2708 0.949 . S
C2714 C2718 1.368 . S
C2715 C2696 1.429 . S
C2715 C2709 1.429 . S
C2715 C2716 1.523 . S
C2716 C2697 1.368 . S
C2716 C2710 1.368 . S
C2716 C2715 1.523 . S
C2717 C2701 1.429 . S
C2717 C2713 1.429 . S
C2717 C2718 1.523 . S
C2718 C2702 1.368 . S
C2718 C2714 1.368 . S
C2718 C2717 1.523 . S
H2719 C2694 0.950 . S
H2720 C2696 0.950 . S
H2721 C2697 0.949 . S
H2722 C2699 0.950 . S
H2723 C2701 0.950 . S
C2724 C2725 1.349 . S
C2724 C2726 1.327 . S
C2724 H2749 0.950 . S
C2725 C2724 1.349 . S
C2725 C2741 1.349 . S
C2726 C2724 1.327 . S
C2726 C2745 1.429 . S
C2726 H2750 0.950 . S
C2727 C2744 1.574 . S
C2727 C2746 1.368 . S
C2727 H2751 0.949 . S
H2728 C2732 0.949 . S
C2729 C2730 1.349 . S
C2729 C2731 1.327 . S
C2729 H2752 0.950 . S
C2730 C2729 1.349 . S
C2730 C2742 1.349 . S
C2731 C2729 1.327 . S
C2731 C2747 1.429 . S
C2731 H2753 0.950 . S
C2732 H2728 0.949 . S
C2732 C2740 1.574 . S
C2732 C2748 1.368 . S
H2733 C2741 0.950 . S
H2734 C2739 0.950 . S
H2735 C2740 0.949 . S
H2736 C2742 0.950 . S
H2737 C2743 0.950 . S
H2738 C2744 0.949 . S
C2739 H2734 0.950 . S
C2739 C2741 1.327 . S
C2739 C2745 1.429 . S
C2740 C2732 1.574 . S
C2740 H2735 0.949 . S
C2740 C2746 1.368 . S
C2741 C2725 1.349 . S
C2741 H2733 0.950 . S
C2741 C2739 1.327 . S
C2742 C2730 1.349 . S
C2742 H2736 0.950 . S
C2742 C2743 1.327 . S
C2743 H2737 0.950 . S
C2743 C2742 1.327 . S
C2743 C2747 1.429 . S
C2744 C2727 1.574 . S
C2744 H2738 0.949 . S
C2744 C2748 1.368 . S
C2745 C2726 1.429 . S
C2745 C2739 1.429 . S
C2745 C2746 1.523 . S
C2746 C2727 1.368 . S
C2746 C2740 1.368 . S
C2746 C2745 1.523 . S
C2747 C2731 1.429 . S
C2747 C2743 1.429 . S
C2747 C2748 1.523 . S
C2748 C2732 1.368 . S
C2748 C2744 1.368 . S
C2748 C2747 1.523 . S
H2749 C2724 0.950 . S
H2750 C2726 0.950 . S
H2751 C2727 0.949 . S
H2752 C2729 0.950 . S
H2753 C2731 0.950 . S
C2754 C2755 1.349 . S
C2754 C2756 1.327 . S
C2754 H2779 0.950 . S
C2755 C2754 1.349 . S
C2755 C2771 1.349 . S
C2756 C2754 1.327 . S
C2756 C2775 1.429 . S
C2756 H2780 0.950 . S
C2757 C2774 1.574 . S
C2757 C2776 1.368 . S
C2757 H2781 0.949 . S
H2758 C2762 0.949 . S
C2759 C2760 1.349 . S
C2759 C2761 1.327 . S
C2759 H2782 0.950 . S
C2760 C2759 1.349 . S
C2760 C2772 1.349 . S
C2761 C2759 1.327 . S
C2761 C2777 1.429 . S
C2761 H2783 0.950 . S
C2762 H2758 0.949 . S
C2762 C2770 1.574 . S
C2762 C2778 1.368 . S
H2763 C2771 0.950 . S
H2764 C2769 0.950 . S
H2765 C2770 0.949 . S
H2766 C2772 0.950 . S
H2767 C2773 0.950 . S
H2768 C2774 0.949 . S
C2769 H2764 0.950 . S
C2769 C2771 1.327 . S
C2769 C2775 1.429 . S
C2770 C2762 1.574 . S
C2770 H2765 0.949 . S
C2770 C2776 1.368 . S
C2771 C2755 1.349 . S
C2771 H2763 0.950 . S
C2771 C2769 1.327 . S
C2772 C2760 1.349 . S
C2772 H2766 0.950 . S
C2772 C2773 1.327 . S
C2773 H2767 0.950 . S
C2773 C2772 1.327 . S
C2773 C2777 1.429 . S
C2774 C2757 1.574 . S
C2774 H2768 0.949 . S
C2774 C2778 1.368 . S
C2775 C2756 1.429 . S
C2775 C2769 1.429 . S
C2775 C2776 1.523 . S
C2776 C2757 1.368 . S
C2776 C2770 1.368 . S
C2776 C2775 1.523 . S
C2777 C2761 1.429 . S
C2777 C2773 1.429 . S
C2777 C2778 1.523 . S
C2778 C2762 1.368 . S
C2778 C2774 1.368 . S
C2778 C2777 1.523 . S
H2779 C2754 0.950 . S
H2780 C2756 0.950 . S
H2781 C2757 0.949 . S
H2782 C2759 0.950 . S
H2783 C2761 0.950 . S
C2784 C2785 1.349 . S
C2784 C2786 1.327 . S
C2784 H2809 0.950 . S
C2785 C2784 1.349 . S
C2785 C2801 1.349 . S
C2786 C2784 1.327 . S
C2786 C2805 1.429 . S
C2786 H2810 0.950 . S
C2787 C2804 1.574 . S
C2787 C2806 1.368 . S
C2787 H2811 0.949 . S
H2788 C2792 0.949 . S
C2789 C2790 1.349 . S
C2789 C2791 1.327 . S
C2789 H2812 0.950 . S
C2790 C2789 1.349 . S
C2790 C2802 1.349 . S
C2791 C2789 1.327 . S
C2791 C2807 1.429 . S
C2791 H2813 0.950 . S
C2792 H2788 0.949 . S
C2792 C2800 1.574 . S
C2792 C2808 1.368 . S
H2793 C2801 0.950 . S
H2794 C2799 0.950 . S
H2795 C2800 0.949 . S
H2796 C2802 0.950 . S
H2797 C2803 0.950 . S
H2798 C2804 0.949 . S
C2799 H2794 0.950 . S
C2799 C2801 1.327 . S
C2799 C2805 1.429 . S
C2800 C2792 1.574 . S
C2800 H2795 0.949 . S
C2800 C2806 1.368 . S
C2801 C2785 1.349 . S
C2801 H2793 0.950 . S
C2801 C2799 1.327 . S
C2802 C2790 1.349 . S
C2802 H2796 0.950 . S
C2802 C2803 1.327 . S
C2803 H2797 0.950 . S
C2803 C2802 1.327 . S
C2803 C2807 1.429 . S
C2804 C2787 1.574 . S
C2804 H2798 0.949 . S
C2804 C2808 1.368 . S
C2805 C2786 1.429 . S
C2805 C2799 1.429 . S
C2805 C2806 1.523 . S
C2806 C2787 1.368 . S
C2806 C2800 1.368 . S
C2806 C2805 1.523 . S
C2807 C2791 1.429 . S
C2807 C2803 1.429 . S
C2807 C2808 1.523 . S
C2808 C2792 1.368 . S
C2808 C2804 1.368 . S
C2808 C2807 1.523 . S
H2809 C2784 0.950 . S
H2810 C2786 0.950 . S
H2811 C2787 0.949 . S
H2812 C2789 0.950 . S
H2813 C2791 0.950 . S
C2814 C2815 1.349 . S
C2814 C2816 1.327 . S
C2814 H2839 0.950 . S
C2815 C2814 1.349 . S
C2815 C2831 1.349 . S
C2816 C2814 1.327 . S
C2816 C2835 1.429 . S
C2816 H2840 0.950 . S
C2817 C2834 1.574 . S
C2817 C2836 1.368 . S
C2817 H2841 0.949 . S
H2818 C2822 0.949 . S
C2819 C2820 1.349 . S
C2819 C2821 1.327 . S
C2819 H2842 0.950 . S
C2820 C2819 1.349 . S
C2820 C2832 1.349 . S
C2821 C2819 1.327 . S
C2821 C2837 1.429 . S
C2821 H2843 0.950 . S
C2822 H2818 0.949 . S
C2822 C2830 1.574 . S
C2822 C2838 1.368 . S
H2823 C2831 0.950 . S
H2824 C2829 0.950 . S
H2825 C2830 0.949 . S
H2826 C2832 0.950 . S
H2827 C2833 0.950 . S
H2828 C2834 0.949 . S
C2829 H2824 0.950 . S
C2829 C2831 1.327 . S
C2829 C2835 1.429 . S
C2830 C2822 1.574 . S
C2830 H2825 0.949 . S
C2830 C2836 1.368 . S
C2831 C2815 1.349 . S
C2831 H2823 0.950 . S
C2831 C2829 1.327 . S
C2832 C2820 1.349 . S
C2832 H2826 0.950 . S
C2832 C2833 1.327 . S
C2833 H2827 0.950 . S
C2833 C2832 1.327 . S
C2833 C2837 1.429 . S
C2834 C2817 1.574 . S
C2834 H2828 0.949 . S
C2834 C2838 1.368 . S
C2835 C2816 1.429 . S
C2835 C2829 1.429 . S
C2835 C2836 1.523 . S
C2836 C2817 1.368 . S
C2836 C2830 1.368 . S
C2836 C2835 1.523 . S
C2837 C2821 1.429 . S
C2837 C2833 1.429 . S
C2837 C2838 1.523 . S
C2838 C2822 1.368 . S
C2838 C2834 1.368 . S
C2838 C2837 1.523 . S
H2839 C2814 0.950 . S
H2840 C2816 0.950 . S
H2841 C2817 0.949 . S
H2842 C2819 0.950 . S
H2843 C2821 0.950 . S
C2844 C2845 1.349 . S
C2844 C2846 1.327 . S
C2844 H2869 0.950 . S
C2845 C2844 1.349 . S
C2845 C2861 1.349 . S
C2846 C2844 1.327 . S
C2846 C2865 1.429 . S
C2846 H2870 0.950 . S
C2847 C2864 1.574 . S
C2847 C2866 1.368 . S
C2847 H2871 0.949 . S
H2848 C2852 0.949 . S
C2849 C2850 1.349 . S
C2849 C2851 1.327 . S
C2849 H2872 0.950 . S
C2850 C2849 1.349 . S
C2850 C2862 1.349 . S
C2851 C2849 1.327 . S
C2851 C2867 1.429 . S
C2851 H2873 0.950 . S
C2852 H2848 0.949 . S
C2852 C2860 1.574 . S
C2852 C2868 1.368 . S
H2853 C2861 0.950 . S
H2854 C2859 0.950 . S
H2855 C2860 0.949 . S
H2856 C2862 0.950 . S
H2857 C2863 0.950 . S
H2858 C2864 0.949 . S
C2859 H2854 0.950 . S
C2859 C2861 1.327 . S
C2859 C2865 1.429 . S
C2860 C2852 1.574 . S
C2860 H2855 0.949 . S
C2860 C2866 1.368 . S
C2861 C2845 1.349 . S
C2861 H2853 0.950 . S
C2861 C2859 1.327 . S
C2862 C2850 1.349 . S
C2862 H2856 0.950 . S
C2862 C2863 1.327 . S
C2863 H2857 0.950 . S
C2863 C2862 1.327 . S
C2863 C2867 1.429 . S
C2864 C2847 1.574 . S
C2864 H2858 0.949 . S
C2864 C2868 1.368 . S
C2865 C2846 1.429 . S
C2865 C2859 1.429 . S
C2865 C2866 1.523 . S
C2866 C2847 1.368 . S
C2866 C2860 1.368 . S
C2866 C2865 1.523 . S
C2867 C2851 1.429 . S
C2867 C2863 1.429 . S
C2867 C2868 1.523 . S
C2868 C2852 1.368 . S
C2868 C2864 1.368 . S
C2868 C2867 1.523 . S
H2869 C2844 0.950 . S
H2870 C2846 0.950 . S
H2871 C2847 0.949 . S
H2872 C2849 0.950 . S
H2873 C2851 0.950 . S
C2874 C2875 1.349 . S
C2874 C2876 1.327 . S
C2874 H2899 0.950 . S
C2875 C2874 1.349 . S
C2875 C2891 1.349 . S
C2876 C2874 1.327 . S
C2876 C2895 1.429 . S
C2876 H2900 0.950 . S
C2877 C2894 1.574 . S
C2877 C2896 1.368 . S
C2877 H2901 0.949 . S
H2878 C2882 0.949 . S
C2879 C2880 1.349 . S
C2879 C2881 1.327 . S
C2879 H2902 0.950 . S
C2880 C2879 1.349 . S
C2880 C2892 1.349 . S
C2881 C2879 1.327 . S
C2881 C2897 1.429 . S
C2881 H2903 0.950 . S
C2882 H2878 0.949 . S
C2882 C2890 1.574 . S
C2882 C2898 1.368 . S
H2883 C2891 0.950 . S
H2884 C2889 0.950 . S
H2885 C2890 0.949 . S
H2886 C2892 0.950 . S
H2887 C2893 0.950 . S
H2888 C2894 0.949 . S
C2889 H2884 0.950 . S
C2889 C2891 1.327 . S
C2889 C2895 1.429 . S
C2890 C2882 1.574 . S
C2890 H2885 0.949 . S
C2890 C2896 1.368 . S
C2891 C2875 1.349 . S
C2891 H2883 0.950 . S
C2891 C2889 1.327 . S
C2892 C2880 1.349 . S
C2892 H2886 0.950 . S
C2892 C2893 1.327 . S
C2893 H2887 0.950 . S
C2893 C2892 1.327 . S
C2893 C2897 1.429 . S
C2894 C2877 1.574 . S
C2894 H2888 0.949 . S
C2894 C2898 1.368 . S
C2895 C2876 1.429 . S
C2895 C2889 1.429 . S
C2895 C2896 1.523 . S
C2896 C2877 1.368 . S
C2896 C2890 1.368 . S
C2896 C2895 1.523 . S
C2897 C2881 1.429 . S
C2897 C2893 1.429 . S
C2897 C2898 1.523 . S
C2898 C2882 1.368 . S
C2898 C2894 1.368 . S
C2898 C2897 1.523 . S
H2899 C2874 0.950 . S
H2900 C2876 0.950 . S
H2901 C2877 0.949 . S
H2902 C2879 0.950 . S
H2903 C2881 0.950 . S
C2904 C2905 1.349 . S
C2904 C2906 1.327 . S
C2904 H2929 0.950 . S
C2905 C2904 1.349 . S
C2905 C2921 1.349 . S
C2906 C2904 1.327 . S
C2906 C2925 1.429 . S
C2906 H2930 0.950 . S
C2907 C2924 1.574 . S
C2907 C2926 1.368 . S
C2907 H2931 0.949 . S
H2908 C2912 0.949 . S
C2909 C2910 1.349 . S
C2909 C2911 1.327 . S
C2909 H2932 0.950 . S
C2910 C2909 1.349 . S
C2910 C2922 1.349 . S
C2911 C2909 1.327 . S
C2911 C2927 1.429 . S
C2911 H2933 0.950 . S
C2912 H2908 0.949 . S
C2912 C2920 1.574 . S
C2912 C2928 1.368 . S
H2913 C2921 0.950 . S
H2914 C2919 0.950 . S
H2915 C2920 0.949 . S
H2916 C2922 0.950 . S
H2917 C2923 0.950 . S
H2918 C2924 0.949 . S
C2919 H2914 0.950 . S
C2919 C2921 1.327 . S
C2919 C2925 1.429 . S
C2920 C2912 1.574 . S
C2920 H2915 0.949 . S
C2920 C2926 1.368 . S
C2921 C2905 1.349 . S
C2921 H2913 0.950 . S
C2921 C2919 1.327 . S
C2922 C2910 1.349 . S
C2922 H2916 0.950 . S
C2922 C2923 1.327 . S
C2923 H2917 0.950 . S
C2923 C2922 1.327 . S
C2923 C2927 1.429 . S
C2924 C2907 1.574 . S
C2924 H2918 0.949 . S
C2924 C2928 1.368 . S
C2925 C2906 1.429 . S
C2925 C2919 1.429 . S
C2925 C2926 1.523 . S
C2926 C2907 1.368 . S
C2926 C2920 1.368 . S
C2926 C2925 1.523 . S
C2927 C2911 1.429 . S
C2927 C2923 1.429 . S
C2927 C2928 1.523 . S
C2928 C2912 1.368 . S
C2928 C2924 1.368 . S
C2928 C2927 1.523 . S
H2929 C2904 0.950 . S
H2930 C2906 0.950 . S
H2931 C2907 0.949 . S
H2932 C2909 0.950 . S
H2933 C2911 0.950 . S
C2934 C2935 1.349 . S
C2934 C2936 1.327 . S
C2934 H2959 0.950 . S
C2935 C2934 1.349 . S
C2935 C2951 1.349 . S
C2936 C2934 1.327 . S
C2936 C2955 1.429 . S
C2936 H2960 0.950 . S
C2937 C2954 1.574 . S
C2937 C2956 1.368 . S
C2937 H2961 0.949 . S
H2938 C2942 0.949 . S
C2939 C2940 1.349 . S
C2939 C2941 1.327 . S
C2939 H2962 0.950 . S
C2940 C2939 1.349 . S
C2940 C2952 1.349 . S
C2941 C2939 1.327 . S
C2941 C2957 1.429 . S
C2941 H2963 0.950 . S
C2942 H2938 0.949 . S
C2942 C2950 1.574 . S
C2942 C2958 1.368 . S
H2943 C2951 0.950 . S
H2944 C2949 0.950 . S
H2945 C2950 0.949 . S
H2946 C2952 0.950 . S
H2947 C2953 0.950 . S
H2948 C2954 0.949 . S
C2949 H2944 0.950 . S
C2949 C2951 1.327 . S
C2949 C2955 1.429 . S
C2950 C2942 1.574 . S
C2950 H2945 0.949 . S
C2950 C2956 1.368 . S
C2951 C2935 1.349 . S
C2951 H2943 0.950 . S
C2951 C2949 1.327 . S
C2952 C2940 1.349 . S
C2952 H2946 0.950 . S
C2952 C2953 1.327 . S
C2953 H2947 0.950 . S
C2953 C2952 1.327 . S
C2953 C2957 1.429 . S
C2954 C2937 1.574 . S
C2954 H2948 0.949 . S
C2954 C2958 1.368 . S
C2955 C2936 1.429 . S
C2955 C2949 1.429 . S
C2955 C2956 1.523 . S
C2956 C2937 1.368 . S
C2956 C2950 1.368 . S
C2956 C2955 1.523 . S
C2957 C2941 1.429 . S
C2957 C2953 1.429 . S
C2957 C2958 1.523 . S
C2958 C2942 1.368 . S
C2958 C2954 1.368 . S
C2958 C2957 1.523 . S
H2959 C2934 0.950 . S
H2960 C2936 0.950 . S
H2961 C2937 0.949 . S
H2962 C2939 0.950 . S
H2963 C2941 0.950 . S
C2964 C2965 1.349 . S
C2964 C2966 1.327 . S
C2964 H2989 0.950 . S
C2965 C2964 1.349 . S
C2965 C2981 1.349 . S
C2966 C2964 1.327 . S
C2966 C2985 1.429 . S
C2966 H2990 0.950 . S
C2967 C2984 1.574 . S
C2967 C2986 1.368 . S
C2967 H2991 0.949 . S
H2968 C2972 0.949 . S
C2969 C2970 1.349 . S
C2969 C2971 1.327 . S
C2969 H2992 0.950 . S
C2970 C2969 1.349 . S
C2970 C2982 1.349 . S
C2971 C2969 1.327 . S
C2971 C2987 1.429 . S
C2971 H2993 0.950 . S
C2972 H2968 0.949 . S
C2972 C2980 1.574 . S
C2972 C2988 1.368 . S
H2973 C2981 0.950 . S
H2974 C2979 0.950 . S
H2975 C2980 0.949 . S
H2976 C2982 0.950 . S
H2977 C2983 0.950 . S
H2978 C2984 0.949 . S
C2979 H2974 0.950 . S
C2979 C2981 1.327 . S
C2979 C2985 1.429 . S
C2980 C2972 1.574 . S
C2980 H2975 0.949 . S
C2980 C2986 1.368 . S
C2981 C2965 1.349 . S
C2981 H2973 0.950 . S
C2981 C2979 1.327 . S
C2982 C2970 1.349 . S
C2982 H2976 0.950 . S
C2982 C2983 1.327 . S
C2983 H2977 0.950 . S
C2983 C2982 1.327 . S
C2983 C2987 1.429 . S
C2984 C2967 1.574 . S
C2984 H2978 0.949 . S
C2984 C2988 1.368 . S
C2985 C2966 1.429 . S
C2985 C2979 1.429 . S
C2985 C2986 1.523 . S
C2986 C2967 1.368 . S
C2986 C2980 1.368 . S
C2986 C2985 1.523 . S
C2987 C2971 1.429 . S
C2987 C2983 1.429 . S
C2987 C2988 1.523 . S
C2988 C2972 1.368 . S
C2988 C2984 1.368 . S
C2988 C2987 1.523 . S
H2989 C2964 0.950 . S
H2990 C2966 0.950 . S
H2991 C2967 0.949 . S
H2992 C2969 0.950 . S
H2993 C2971 0.950 . S
C2994 C2995 1.349 . S
C2994 C2996 1.327 . S
C2994 H3019 0.950 . S
C2995 C2994 1.349 . S
C2995 C3011 1.349 . S
C2996 C2994 1.327 . S
C2996 C3015 1.429 . S
C2996 H3020 0.950 . S
C2997 C3014 1.574 . S
C2997 C3016 1.368 . S
C2997 H3021 0.949 . S
H2998 C3002 0.949 . S
C2999 C3000 1.349 . S
C2999 C3001 1.327 . S
C2999 H3022 0.950 . S
C3000 C2999 1.349 . S
C3000 C3012 1.349 . S
C3001 C2999 1.327 . S
C3001 C3017 1.429 . S
C3001 H3023 0.950 . S
C3002 H2998 0.949 . S
C3002 C3010 1.574 . S
C3002 C3018 1.368 . S
H3003 C3011 0.950 . S
H3004 C3009 0.950 . S
H3005 C3010 0.949 . S
H3006 C3012 0.950 . S
H3007 C3013 0.950 . S
H3008 C3014 0.949 . S
C3009 H3004 0.950 . S
C3009 C3011 1.327 . S
C3009 C3015 1.429 . S
C3010 C3002 1.574 . S
C3010 H3005 0.949 . S
C3010 C3016 1.368 . S
C3011 C2995 1.349 . S
C3011 H3003 0.950 . S
C3011 C3009 1.327 . S
C3012 C3000 1.349 . S
C3012 H3006 0.950 . S
C3012 C3013 1.327 . S
C3013 H3007 0.950 . S
C3013 C3012 1.327 . S
C3013 C3017 1.429 . S
C3014 C2997 1.574 . S
C3014 H3008 0.949 . S
C3014 C3018 1.368 . S
C3015 C2996 1.429 . S
C3015 C3009 1.429 . S
C3015 C3016 1.523 . S
C3016 C2997 1.368 . S
C3016 C3010 1.368 . S
C3016 C3015 1.523 . S
C3017 C3001 1.429 . S
C3017 C3013 1.429 . S
C3017 C3018 1.523 . S
C3018 C3002 1.368 . S
C3018 C3014 1.368 . S
C3018 C3017 1.523 . S
H3019 C2994 0.950 . S
H3020 C2996 0.950 . S
H3021 C2997 0.949 . S
H3022 C2999 0.950 . S
H3023 C3001 0.950 . S
C1405 C469 1.416 . S
C1410 C704 1.337 . S
C1435 C505 1.445 . S
C1440 C788 1.370 . S
C1465 C433 1.451 . S
C1470 C882 1.407 . S
C1495 C397 1.406 . S
C1500 C798 1.367 . S
C1530 C872 1.299 . S
C1525 C325 1.375 . S
C1555 C361 1.382 . S
C1560 C714 1.341 . S
C1590 C715 1.338 . S
C1585 C421 1.415 . S
C1620 C799 1.371 . S
C1615 C349 1.443 . S
C1645 C385 1.449 . S
C1650 C891 1.408 . S
C1675 C493 1.405 . S
C1680 C807 1.368 . S
C1705 C529 1.374 . S
C1710 C883 1.300 . S
C1740 C723 1.341 . S
C1735 C457 1.381 . S
C1770 C956 1.337 . S
C1765 C37 1.416 . S
C1795 C73 1.445 . S
C1800 C1040 1.370 . S
C1825 C1 1.451 . S
C1830 C1134 1.407 . S
C1855 C613 1.406 . S
C1860 C1050 1.367 . S
C1885 C541 1.375 . S
C1890 C1124 1.299 . S
C1915 C577 1.382 . S
C1920 C966 1.340 . S
C1945 C637 1.415 . S
C1950 C967 1.338 . S
C1975 C565 1.443 . S
C1980 C1051 1.371 . S
C2010 C1143 1.408 . S
C2005 C601 1.449 . S
C2035 C61 1.405 . S
C2040 C1059 1.369 . S
C2070 C1135 1.300 . S
C2065 C97 1.374 . S
C2095 C25 1.381 . S
C2100 C975 1.341 . S
C2130 C1208 1.337 . S
C2125 C253 1.416 . S
C2155 C289 1.445 . S
C2160 C1292 1.370 . S
C2190 C1386 1.407 . S
C2185 C217 1.451 . S
C2220 C1302 1.367 . S
C2215 C181 1.406 . S
C2250 C1376 1.299 . S
C2245 C109 1.375 . S
C2275 C145 1.382 . S
C2280 C1218 1.340 . S
C2305 C205 1.415 . S
C2310 C1219 1.338 . S
C2335 C133 1.443 . S
C2340 C1303 1.371 . S
C2370 C1395 1.408 . S
C2365 C169 1.449 . S
C2395 C277 1.405 . S
C2400 C1311 1.368 . S
C2425 C313 1.374 . S
C2430 C1387 1.300 . S
C2455 C241 1.381 . S
C2460 C1227 1.341 . S
C2485 C571 1.419 . S
C2490 C711 1.305 . S
C2520 C795 1.352 . S
C2515 C607 1.495 . S
C2545 C643 1.454 . S
C2550 C888 1.324 . S
C2575 C247 1.495 . S
C2580 C804 1.352 . S
C2605 C283 1.455 . S
C2610 C879 1.324 . S
C2640 C720 1.305 . S
C2635 C319 1.419 . S
C2665 C139 1.419 . S
C2670 C963 1.305 . S
C2695 C175 1.495 . S
C2700 C1047 1.352 . S
C2725 C211 1.454 . S
C2730 C1140 1.324 . S
C2755 C463 1.495 . S
C2760 C1056 1.352 . S
C2790 C1131 1.324 . S
C2785 C499 1.455 . S
C2815 C535 1.419 . S
C2820 C972 1.305 . S
C2845 C355 1.419 . S
C2850 C1215 1.305 . S
C2875 C391 1.495 . S
C2880 C1299 1.352 . S
C2910 C1392 1.324 . S
C2905 C427 1.454 . S
C2935 C31 1.495 . S
C2940 C1308 1.352 . S
C2965 C67 1.455 . S
C2970 C1383 1.324 . S
C2995 C103 1.419 . S
C3000 C1224 1.305 . S
