# Generated by pormake.
# Topology anh, (6,3)-cn, num edge types: 1
# Building blocks:
#     Node 0, Type 0, BuildingBlock: BETFEN_clean_sbu_0, # of connection points: 6
#     Node 1, Type 0, BuildingBlock: BETFEN_clean_sbu_0, # of connection points: 6
#     Node 2, Type 0, BuildingBlock: BETFEN_clean_sbu_0, # of connection points: 6
#     Node 3, Type 1, BuildingBlock: BETDIP_clean_linker_0, # of connection points: 3
#     Node 4, Type 1, BuildingBlock: BETDIP_clean_linker_0, # of connection points: 3
#     Node 5, Type 1, BuildingBlock: BETDIP_clean_linker_0, # of connection points: 3
#     Node 6, Type 1, BuildingBlock: BETDIP_clean_linker_0, # of connection points: 3
#     Node 7, Type 1, BuildingBlock: BETDIP_clean_linker_0, # of connection points: 3
#     Node 8, Type 1, BuildingBlock: BETDIP_clean_linker_0, # of connection points: 3
#     Edge 9, Type (0, 1), BuildingBlock: KIFKEQ_clean_linker_1, # of connection points: 2
#     Edge 10, Type (0, 1), BuildingBlock: KIFKEQ_clean_linker_1, # of connection points: 2
#     Edge 11, Type (0, 1), BuildingBlock: KIFKEQ_clean_linker_1, # of connection points: 2
#     Edge 12, Type (0, 1), BuildingBlock: KIFKEQ_clean_linker_1, # of connection points: 2
#     Edge 13, Type (0, 1), BuildingBlock: KIFKEQ_clean_linker_1, # of connection points: 2
#     Edge 14, Type (0, 1), BuildingBlock: KIFKEQ_clean_linker_1, # of connection points: 2
#     Edge 15, Type (0, 1), BuildingBlock: KIFKEQ_clean_linker_1, # of connection points: 2
#     Edge 16, Type (0, 1), BuildingBlock: KIFKEQ_clean_linker_1, # of connection points: 2
#     Edge 17, Type (0, 1), BuildingBlock: KIFKEQ_clean_linker_1, # of connection points: 2
#     Edge 18, Type (0, 1), BuildingBlock: KIFKEQ_clean_linker_1, # of connection points: 2
#     Edge 19, Type (0, 1), BuildingBlock: KIFKEQ_clean_linker_1, # of connection points: 2
#     Edge 20, Type (0, 1), BuildingBlock: KIFKEQ_clean_linker_1, # of connection points: 2
#     Edge 21, Type (0, 1), BuildingBlock: KIFKEQ_clean_linker_1, # of connection points: 2
#     Edge 22, Type (0, 1), BuildingBlock: KIFKEQ_clean_linker_1, # of connection points: 2
#     Edge 23, Type (0, 1), BuildingBlock: KIFKEQ_clean_linker_1, # of connection points: 2
#     Edge 24, Type (0, 1), BuildingBlock: KIFKEQ_clean_linker_1, # of connection points: 2
#     Edge 25, Type (0, 1), BuildingBlock: KIFKEQ_clean_linker_1, # of connection points: 2
#     Edge 26, Type (0, 1), BuildingBlock: KIFKEQ_clean_linker_1, # of connection points: 2
# Relax obj value: 0.159
# Max RMSD: 0.181
# Mean RMSD: 0.131
data_MOF--net-anh--node1-BETFEN_clean_sbu_0--node2-BETDIP_clean_linker_0--edge1-KIFKEQ_clean_linker_1
_symmetry_space_group_name_H-M    P1
_symmetry_Int_Tables_number       1
_symmetry_cell_setting            triclinic
loop_
_symmetry_equiv_pos_as_xyz
'x, y, z'
_cell_length_a     30.092978
_cell_length_b     30.452922
_cell_length_c     50.56482
_cell_angle_alpha  92.911322
_cell_angle_beta   92.788602
_cell_angle_gamma 100.7663
loop_
_atom_site_label
_atom_site_type_symbol
_atom_site_fract_x
_atom_site_fract_y
_atom_site_fract_z
_atom_type_partial_charge
Pr0 Pr 0.09832 0.59248 0.16017 0.0
Pr1 Pr 0.11117 0.69014 0.14942 0.0
C2 C 0.07025 0.51012 0.17737 0.0
C3 C 1.02606 0.48022 0.17817 0.0
C4 C 0.98833 0.48822 0.16308 0.0
C5 C 0.94594 0.46066 0.16457 0.0
C6 C 0.94056 0.4246 0.1812 0.0
C7 C 0.97868 0.41661 0.19613 0.0
C8 C 1.02105 0.44425 0.19463 0.0
C9 C 0.10427 0.60921 0.10674 0.0
C10 C 1.00734 0.64006 0.15073 0.0
C11 C 0.14021 0.7732 0.13357 0.0
C12 C 0.18209 0.80754 0.13898 0.0
C13 C 0.18436 0.84098 0.15949 0.0
C14 C 0.22482 0.8711 0.16624 0.0
C15 C 0.26387 0.86884 0.15248 0.0
C16 C 0.26122 0.83665 0.13125 0.0
C17 C 0.22077 0.80626 0.12459 0.0
C18 C 0.10459 0.67326 0.2028 0.0
C19 C 0.20236 0.6414 0.15676 0.0
O20 O 0.07639 0.54662 0.19294 0.0
O21 O 0.08513 0.51706 0.1538 0.0
O22 O 0.08131 0.62772 0.12259 0.0
O23 O 0.1246 0.58054 0.11814 0.0
O24 O 1.03329 0.67274 0.13943 0.0
O25 O 1.0251 0.6093 0.16276 0.0
O26 O 0.14366 0.7369 0.11942 0.0
O27 O 0.11405 0.76495 0.15335 0.0
O28 O 0.12768 0.65471 0.18704 0.0
O29 O 0.08563 0.7029 0.19147 0.0
O30 O 0.17678 0.60709 0.16684 0.0
O31 O 0.18472 0.67423 0.14704 0.0
H32 H 0.99162 0.51591 0.15023 0.0
H33 H 0.91745 0.4675 0.15261 0.0
H34 H 0.97559 0.38958 0.20944 0.0
H35 H 0.04981 0.43783 0.20654 0.0
H36 H 0.15507 0.84334 0.17073 0.0
H37 H 0.22562 0.89607 0.18239 0.0
H38 H 0.2908 0.83402 0.12034 0.0
H39 H 0.22016 0.78118 0.10854 0.0
Pr40 Pr 0.5809 0.11868 0.5092 0.0
Pr41 Pr 0.46969 0.0916 0.50387 0.0
C42 C 0.67041 0.13835 0.50228 0.0
C43 C 0.7033 0.17951 0.49861 0.0
C44 C 0.74459 0.1769 0.48757 0.0
C45 C 0.7751 0.21599 0.48284 0.0
C46 C 0.76479 0.25843 0.48907 0.0
C47 C 0.72346 0.26073 0.50048 0.0
C48 C 0.69296 0.22165 0.50512 0.0
C49 C 0.53561 0.10565 0.55563 0.0
C50 C 0.52087 0.19983 0.512 0.0
C51 C 0.38222 1.06391 0.51371 0.0
C52 C 0.35305 1.0217 0.51976 0.0
C53 C 0.30762 1.01305 0.51024 0.0
C54 C 0.28125 0.97027 0.51104 0.0
C55 C 0.29972 0.93519 0.5216 0.0
C56 C 0.34471 0.94484 0.53255 0.0
C57 C 0.37126 0.98756 0.53135 0.0
C58 C 0.50465 0.11517 0.45507 0.0
C59 C 0.5306 1.00942 0.49992 0.0
O60 O 0.63995 0.12529 0.48269 0.0
O61 O 0.65367 0.13484 0.52567 0.0
O62 O 0.52588 0.08284 0.53402 0.0
O63 O 0.57179 0.13641 0.5544 0.0
O64 O 0.48433 0.16944 0.51626 0.0
O65 O 0.55953 0.18844 0.50544 0.0
O66 O 0.41269 0.08389 0.53208 0.0
O67 O 0.39731 1.06391 0.48988 0.0
O68 O 0.52612 0.11424 0.47683 0.0
O69 O 0.46153 0.10375 0.45808 0.0
O70 O 0.56872 1.03992 0.50104 0.0
O71 O 0.49006 1.02041 0.50137 0.0
H72 H 0.75294 0.14463 0.48223 0.0
H73 H 0.80623 0.2129 0.47366 0.0
H74 H 0.71462 0.29276 0.50584 0.0
H75 H 0.6611 0.22432 0.51359 0.0
H76 H 0.29319 1.0388 0.50083 0.0
H77 H 0.2472 0.9643 0.50193 0.0
H78 H 0.36 0.91906 0.54124 0.0
H79 H 0.40649 0.99328 0.53839 0.0
Pr80 Pr 0.60304 0.58968 0.8165 0.0
Pr81 Pr 0.62779 0.69524 0.83517 0.0
C82 C 0.58039 0.50989 0.78966 0.0
C83 C 0.55274 0.46677 0.79541 0.0
C84 C 0.52752 0.43935 0.7748 0.0
C85 C 0.50083 0.39846 0.78014 0.0
C86 C 0.49903 0.38435 0.80622 0.0
C87 C 0.52412 0.41212 0.82687 0.0
C88 C 0.55057 0.45312 0.82153 0.0
C89 C 0.59908 0.60044 0.87172 0.0
C90 C 0.71183 0.63926 0.82682 0.0
C91 C 0.64489 0.77791 0.85881 0.0
C92 C 0.61245 0.80776 0.86348 0.0
C93 C 0.56716 0.78909 0.86744 0.0
C94 C 0.53379 0.81513 0.86602 0.0
C95 C 0.5449 0.86071 0.86084 0.0
C96 C 0.59093 0.88012 0.8589 0.0
C97 C 0.62438 0.85372 0.85999 0.0
C98 C 0.60869 0.67333 0.78103 0.0
C99 C 0.52053 0.64703 0.82635 0.0
O100 O 0.61842 0.52231 0.80417 0.0
O101 O 0.5583 0.54252 0.78585 0.0
O102 O 0.60891 0.63062 0.85581 0.0
O103 O 0.59165 0.56159 0.85888 0.0
O104 O 0.69958 0.67586 0.83696 0.0
O105 O 0.68226 0.6044 0.81608 0.0
O106 O 0.63946 0.74173 0.87219 0.0
O107 O 0.65215 0.77009 0.83383 0.0
O108 O 0.63133 0.65359 0.79647 0.0
O109 O 0.59712 0.70782 0.79311 0.0
O110 O 0.53263 0.61304 0.81297 0.0
O111 O 0.55021 0.67873 0.83975 0.0
H112 H 0.52865 0.44946 0.75456 0.0
H113 H 0.48237 0.37742 0.76376 0.0
H114 H 0.52312 0.40223 0.84714 0.0
H115 H 0.56943 0.47405 0.83781 0.0
H116 H 0.55697 0.75366 0.8701 0.0
H117 H 0.49892 0.79852 0.86722 0.0
H118 H 0.60094 0.91528 0.85544 0.0
H119 H 0.65914 0.86874 0.85684 0.0
H120 H 0.56876 0.11769 0.18825 0.0
H121 H 0.62566 0.1851 0.26247 0.0
H122 H 0.52267 1.06701 0.26224 0.0
H123 H 0.62449 0.24638 0.2349 0.0
C124 C 0.64258 0.2329 0.21926 0.0
C125 C 0.57028 0.11977 0.20975 0.0
C126 C 0.54208 0.08752 0.22348 0.0
C127 C 0.5999 0.15544 0.22363 0.0
C128 C 0.60219 0.15826 0.25153 0.0
C129 C 0.57498 0.12597 0.26549 0.0
C130 C 0.54512 0.09077 0.25138 0.0
N131 N 0.62779 0.18776 0.20931 0.0
H132 H 0.52076 0.56009 0.50915 0.0
H133 H 0.54716 0.65722 0.57541 0.0
H134 H 0.54083 0.51792 0.58826 0.0
H135 H 0.5988 0.68908 0.53969 0.0
C136 C 0.56785 0.68992 0.52783 0.0
C137 C 0.52745 0.56788 0.53027 0.0
C138 C 0.52847 0.53295 0.54766 0.0
C139 C 0.53553 0.61306 0.54026 0.0
C140 C 0.54326 0.62279 0.56773 0.0
C141 C 0.54504 0.58885 0.58531 0.0
C142 C 0.53791 0.5442 0.57499 0.0
N143 N 0.53573 0.64896 0.52303 0.0
H144 H 0.07394 0.63538 0.83152 0.0
H145 H 0.15584 0.63283 0.90323 0.0
H146 H 1.01151 0.62057 0.90607 0.0
H147 H 0.19801 0.69455 0.87959 0.0
C148 C 0.19997 0.67175 0.86259 0.0
C149 C 0.07667 0.63258 0.85279 0.0
C150 C 1.03748 0.62608 0.86728 0.0
C151 C 0.11954 0.63625 0.86587 0.0
C152 C 0.12289 0.63207 0.89343 0.0
C153 C 0.08419 0.62624 0.90828 0.0
C154 C 1.04166 0.62344 0.89491 0.0
N155 N 0.15929 0.64427 0.85134 0.0
H156 H 0.0781 0.61275 0.47435 0.0
H157 H 1.03069 0.56611 0.3943 0.0
H158 H 0.1374 0.68087 0.40827 0.0
H159 H 0.96507 0.54522 0.41415 0.0
C160 C 0.97598 0.53148 0.43223 0.0
C161 C 0.08001 0.61603 0.45317 0.0
C162 C 0.11193 0.65041 0.4435 0.0
C163 C 0.04998 0.58596 0.43564 0.0
C164 C 0.05293 0.5896 0.40808 0.0
C165 C 0.08429 0.62393 0.3981 0.0
C166 C 0.11351 0.65406 0.41595 0.0
N167 N 1.01736 0.55232 0.44619 0.0
H168 H 0.31059 1.04215 0.78873 0.0
H169 H 0.31138 0.99087 0.70778 0.0
H170 H 0.4049 0.11034 0.7366 0.0
H171 H 0.23794 0.94038 0.78514 0.0
C172 C 0.27081 0.95313 0.77772 0.0
C173 C 0.32482 1.04422 0.76945 0.0
C174 C 0.36005 0.07963 0.76507 0.0
C175 C 0.30776 1.01162 0.74891 0.0
C176 C 0.32511 1.01562 0.72367 0.0
C177 C 0.36027 1.05134 0.7191 0.0
C178 C 0.37776 0.0827 0.74 0.0
N179 N 0.27288 0.97487 0.75343 0.0
H180 H 0.55866 0.64401 0.14594 0.0
H181 H 0.63789 0.63227 0.07853 0.0
H182 H 0.49592 0.63497 0.06685 0.0
H183 H 0.65143 0.57143 0.11491 0.0
C184 C 0.66732 0.60226 0.12613 0.0
C185 C 0.56103 0.64179 0.12462 0.0
C186 C 0.52212 0.64 0.10763 0.0
C187 C 0.60243 0.63761 0.11407 0.0
C188 C 0.60545 0.63413 0.08649 0.0
C189 C 0.56743 0.63373 0.06923 0.0
C190 C 0.52578 0.63638 0.07999 0.0
N191 N 0.64092 0.63566 0.13106 0.0
H192 H 0.24756 0.57177 0.16129 0.0
H193 H 0.26823 0.71255 0.14673 0.0
H194 H 0.32667 0.57123 0.15265 0.0
H195 H 0.34734 0.71189 0.13829 0.0
H196 H 0.49832 0.69869 0.14487 0.0
H197 H 0.42239 0.69944 0.16051 0.0
H198 H 0.36884 0.58059 0.11027 0.0
H199 H 0.44425 0.58008 0.09463 0.0
C200 C 0.2691 0.60274 0.15667 0.0
C201 C 0.25147 0.64213 0.15457 0.0
C202 C 0.31434 0.60235 0.15159 0.0
C203 C 0.34312 0.64147 0.14468 0.0
C204 C 0.32607 0.68131 0.14374 0.0
C205 C 0.28066 0.68158 0.14845 0.0
C206 C 0.47029 0.6726 0.13741 0.0
C207 C 0.47703 0.6395 0.11844 0.0
C208 C 0.42691 0.67312 0.14623 0.0
C209 C 0.38972 0.64002 0.13663 0.0
C210 C 0.39686 0.60628 0.11822 0.0
C211 C 0.43994 0.60619 0.10911 0.0
H212 H 0.74304 0.33428 0.46931 0.0
H213 H 0.85783 0.27685 0.49452 0.0
H214 H 0.79413 0.4014 0.4578 0.0
H215 H 0.90909 0.34333 0.48181 0.0
H216 H 0.98748 0.48744 0.47771 0.0
H217 H 0.93633 0.42278 0.49306 0.0
H218 H 0.8459 0.42259 0.42396 0.0
H219 H 0.89644 0.48758 0.40908 0.0
C220 C 0.77918 0.33604 0.47258 0.0
C221 C 0.79624 0.30002 0.48283 0.0
C222 C 0.80854 0.37437 0.46564 0.0
C223 C 0.85578 0.37769 0.46867 0.0
C224 C 0.87291 0.34207 0.47939 0.0
C225 C 0.8435 0.30369 0.48638 0.0
C226 C 0.95658 0.47361 0.4659 0.0
C227 C 0.94578 0.49254 0.44222 0.0
C228 C 0.92739 0.43643 0.47461 0.0
C229 C 0.88687 0.41752 0.4598 0.0
C230 C 0.87634 0.43668 0.43612 0.0
C231 C 0.90542 0.47374 0.42748 0.0
H232 H 0.54431 0.92386 0.82407 0.0
H233 H 0.46128 0.85381 0.88192 0.0
H234 H 0.4801 0.95378 0.80729 0.0
H235 H 0.39596 0.8805 0.86345 0.0
H236 H 0.28605 0.95004 0.83098 0.0
H237 H 0.35486 0.93733 0.8549 0.0
H238 H 0.4159 0.92248 0.78003 0.0
H239 H 0.34825 0.93667 0.75667 0.0
C240 C 0.51266 0.91534 0.83359 0.0
C241 C 0.50805 0.88562 0.85412 0.0
C242 C 0.47543 0.93189 0.82356 0.0
C243 C 0.43237 0.91853 0.83341 0.0
C244 C 0.42845 0.8915 0.85523 0.0
C245 C 0.46593 0.87561 0.86562 0.0
C246 C 0.31452 0.94436 0.81984 0.0
C247 C 0.31229 0.9451 0.79212 0.0
C248 C 0.35386 0.93698 0.83345 0.0
C249 C 0.39135 0.92938 0.81948 0.0
C250 C 0.3885 0.92963 0.79162 0.0
C251 C 0.34953 0.93754 0.77814 0.0
H252 H 0.95758 0.69816 0.12958 0.0
H253 H 0.94384 0.5743 0.16923 0.0
H254 H 0.87514 0.69054 0.12624 0.0
H255 H 0.86183 0.56696 0.166 0.0
H256 H 0.72053 0.54069 0.12205 0.0
H257 H 0.80251 0.55124 0.12984 0.0
H258 H 0.80771 0.69056 0.15337 0.0
H259 H 0.7252 0.67984 0.14542 0.0
C260 C 0.93708 0.66947 0.1377 0.0
C261 C 0.95741 0.63669 0.14948 0.0
C262 C 0.88984 0.66528 0.13596 0.0
C263 C 0.86191 0.62808 0.14578 0.0
C264 C 0.88234 0.59575 0.15795 0.0
C265 C 0.92945 0.60006 0.15985 0.0
C266 C 0.73916 0.57345 0.12918 0.0
C267 C 0.71655 0.60935 0.13322 0.0
C268 C 0.78609 0.57948 0.13373 0.0
C269 C 0.81167 0.62174 0.14225 0.0
C270 C 0.78896 0.65768 0.14662 0.0
C271 C 0.74174 0.65149 0.14227 0.0
H272 H 0.20776 0.90554 0.52385 0.0
H273 H 0.33233 0.85769 0.51208 0.0
H274 H 0.16463 0.83181 0.50995 0.0
H275 H 0.28934 0.78311 0.50059 0.0
H276 H 0.20136 0.68513 0.43849 0.0
H277 H 0.24732 0.74952 0.46287 0.0
H278 H 0.13906 0.75544 0.51538 0.0
H279 H 0.09173 0.69245 0.48956 0.0
C280 C 0.22608 0.87919 0.51878 0.0
C281 C 0.27367 0.88821 0.51854 0.0
C282 C 0.20123 0.83647 0.51121 0.0
C283 C 0.22333 0.80135 0.50364 0.0
C284 C 0.271 0.8095 0.50556 0.0
C285 C 0.29581 0.85237 0.51266 0.0
C286 C 0.18734 0.70007 0.45528 0.0
C287 C 0.14249 0.68418 0.46169 0.0
C288 C 0.21405 0.73676 0.46962 0.0
C289 C 0.19696 0.75827 0.49109 0.0
C290 C 0.15312 0.7404 0.49866 0.0
C291 C 0.12613 0.70384 0.48407 0.0
H292 H 0.52514 0.3215 0.83716 0.0
H293 H 0.41349 0.34674 0.78699 0.0
H294 H 0.4866 0.2439 0.83977 0.0
H295 H 0.37566 0.26923 0.78892 0.0
H296 H 0.31041 0.13169 0.79155 0.0
H297 H 0.33981 0.20584 0.81319 0.0
H298 H 0.47658 0.18475 0.8044 0.0
H299 H 0.44707 0.11078 0.78338 0.0
C300 C 0.49188 0.31075 0.82723 0.0
C301 C 0.47262 0.33985 0.81145 0.0
C302 C 0.46992 0.26631 0.82865 0.0
C303 C 0.42828 0.25029 0.81439 0.0
C304 C 0.40747 0.28049 0.80037 0.0
C305 C 0.42945 0.32477 0.7989 0.0
C306 C 0.34667 0.14228 0.79539 0.0
C307 C 0.37662 0.11616 0.78547 0.0
C308 C 0.36351 0.18478 0.80755 0.0
C309 C 0.41047 0.20153 0.80995 0.0
C310 C 0.44024 0.17295 0.80293 0.0
C311 C 0.42341 0.13064 0.79074 0.0
H312 H 0.60495 0.97141 0.49135 0.0
H313 H 0.46358 0.93699 0.50773 0.0
H314 H 0.61201 0.8935 0.49444 0.0
H315 H 0.47097 0.85909 0.51164 0.0
H316 H 0.49274 0.71317 0.50143 0.0
H317 H 0.48244 0.78894 0.49133 0.0
H318 H 0.61551 0.84321 0.52785 0.0
H319 H 0.62584 0.76826 0.5371 0.0
C320 C 0.57526 0.94726 0.49554 0.0
C321 C 0.53378 0.9609 0.49943 0.0
C322 C 0.57936 0.90238 0.4975 0.0
C323 C 0.54225 0.86961 0.50369 0.0
C324 C 0.5003 0.88298 0.50665 0.0
C325 C 0.49611 0.92792 0.50451 0.0
C326 C 0.51984 0.74136 0.50698 0.0
C327 C 0.56024 0.73466 0.51994 0.0
C328 C 0.51389 0.7849 0.50138 0.0
C329 C 0.54824 0.82264 0.50858 0.0
C330 C 0.58858 0.81536 0.52138 0.0
C331 C 0.59444 0.77219 0.52689 0.0
H332 H 0.75035 0.56679 0.81416 0.0
H333 H 0.78424 0.70647 0.84152 0.0
H334 H 0.83031 0.56183 0.81833 0.0
H335 H 0.86409 0.70123 0.84582 0.0
H336 H 1.00909 0.68611 0.83506 0.0
H337 H 0.93066 0.68867 0.82053 0.0
H338 H 0.88469 0.56439 0.8571 0.0
H339 H 0.96272 0.56189 0.87138 0.0
C340 C 0.77479 0.59655 0.82085 0.0
C341 C 0.76072 0.63696 0.82773 0.0
C342 C 0.82063 0.59363 0.82329 0.0
C343 C 0.8535 0.6311 0.83244 0.0
C344 C 0.83964 0.67189 0.83843 0.0
C345 C 0.79378 0.67475 0.83619 0.0
C346 C 0.98222 0.65887 0.83935 0.0
C347 C 0.99178 0.62388 0.85438 0.0
C348 C 0.93738 0.66052 0.83129 0.0
C349 C 0.90148 0.6269 0.83784 0.0
C350 C 0.91154 0.59063 0.85155 0.0
C351 C 0.95616 0.58925 0.85983 0.0
H352 H 0.32558 0.91627 0.12132 0.0
H353 H 0.30082 0.88912 0.20284 0.0
H354 H 0.3971 0.9664 0.13585 0.0
H355 H 0.37153 0.93948 0.21733 0.0
H356 H 0.51884 0.99931 0.23427 0.0
H357 H 0.45426 0.94435 0.21519 0.0
H358 H 0.42138 1.04061 0.16126 0.0
H359 H 0.48578 0.09585 0.18052 0.0
C360 C 0.33553 0.92087 0.1423 0.0
C361 C 0.30751 0.89897 0.16096 0.0
C362 C 0.37627 0.94974 0.15062 0.0
C363 C 0.39002 0.95676 0.17772 0.0
C364 C 0.3622 0.93436 0.19629 0.0
C365 C 0.32141 0.90593 0.18802 0.0
C366 C 0.49801 1.00868 0.21823 0.0
C367 C 0.50717 1.05215 0.20914 0.0
C368 C 0.46102 0.97721 0.20732 0.0
C369 C 0.4324 0.98835 0.18697 0.0
C370 C 0.44297 1.03095 0.17682 0.0
C371 C 0.47995 1.06256 0.18782 0.0
H372 H 0.58914 0.27181 0.50615 0.0
H373 H 0.44826 0.23924 0.52391 0.0
H374 H 0.58712 0.35123 0.51171 0.0
H375 H 0.44597 0.31892 0.52888 0.0
H376 H 0.476 0.46186 0.56898 0.0
H377 H 0.47232 0.3824 0.55859 0.0
H378 H 0.55978 0.41375 0.49417 0.0
H379 H 0.56452 0.49388 0.50529 0.0
C380 C 0.55752 0.28145 0.51105 0.0
C381 C 0.5189 0.24867 0.51472 0.0
C382 C 0.55629 0.3273 0.51403 0.0
C383 C 0.51639 0.34201 0.52077 0.0
C384 C 0.47756 0.30919 0.52405 0.0
C385 C 0.4788 0.26327 0.52109 0.0
C386 C 0.49423 0.45188 0.55245 0.0
C387 C 0.52091 0.48449 0.53815 0.0
C388 C 0.49183 0.40607 0.54632 0.0
C389 C 0.516 0.39114 0.52561 0.0
C390 C 0.54123 0.42376 0.51054 0.0
C391 C 0.54352 0.4698 0.51667 0.0
H392 H 0.48605 0.72237 0.83471 0.0
H393 H 0.44566 0.57942 0.8189 0.0
H394 H 0.40767 0.72859 0.83972 0.0
H395 H 0.36661 0.58533 0.82484 0.0
H396 H 0.22272 0.6181 0.82147 0.0
H397 H 0.2994 0.61231 0.80913 0.0
H398 H 0.3555 0.71026 0.87269 0.0
H399 H 0.27959 0.7168 0.88426 0.0
C400 C 0.46033 0.69217 0.83237 0.0
C401 C 0.47212 0.6503 0.82683 0.0
C402 C 0.41529 0.6957 0.83532 0.0
C403 C 0.38076 0.65736 0.83322 0.0
C404 C 0.39227 0.61559 0.8265 0.0
C405 C 0.43755 0.61214 0.8232 0.0
C406 C 0.25158 0.63859 0.83256 0.0
C407 C 0.24535 0.66812 0.85374 0.0
C408 C 0.29547 0.63509 0.82563 0.0
C409 C 0.33376 0.66104 0.83977 0.0
C410 C 0.32703 0.69048 0.86091 0.0
C411 C 0.28346 0.69406 0.8677 0.0
H412 H 0.85877 0.45125 0.18361 0.0
H413 H 0.91967 0.33352 0.18414 0.0
H414 H 0.78491 0.40507 0.18929 0.0
H415 H 0.84608 0.2876 0.19092 0.0
H416 H 0.70047 0.21142 0.18223 0.0
H417 H 0.77091 0.25818 0.17015 0.0
H418 H 0.7483 0.36461 0.22473 0.0
H419 H 0.67768 0.31818 0.23632 0.0
C420 C 0.85637 0.41547 0.18472 0.0
C421 C 0.89521 0.39612 0.18354 0.0
C422 C 0.81408 0.38906 0.18826 0.0
C423 C 0.8096 0.34267 0.19072 0.0
C424 C 0.84824 0.32316 0.18888 0.0
C425 C 0.89054 0.34957 0.18533 0.0
C426 C 0.7104 0.24496 0.19141 0.0
C427 C 0.68373 0.26128 0.21024 0.0
C428 C 0.75085 0.27164 0.18463 0.0
C429 C 0.76531 0.31511 0.19652 0.0
C430 C 0.73792 0.33157 0.21491 0.0
C431 C 0.6976 0.30493 0.22168 0.0
H432 H 1.04047 0.64039 0.07681 0.0
H433 H 0.16452 0.58917 0.07193 0.0
H434 H 1.03601 0.64474 0.02847 0.0
H435 H 0.16068 0.59491 0.02369 0.0
H436 H 0.15217 0.67133 0.94344 0.0
H437 H 0.1583 0.66766 0.99154 0.0
H438 H 1.03036 0.57554 0.98841 0.0
H439 H 1.02516 0.57644 0.94016 0.0
C440 C 0.06695 0.63052 0.06541 0.0
C441 C 0.10275 0.61427 0.07795 0.0
C442 C 0.06429 0.63286 0.03786 0.0
C443 C 0.09799 0.62008 0.02259 0.0
C444 C 0.13442 0.60501 0.03518 0.0
C445 C 0.13651 0.60164 0.06265 0.0
C446 C 0.12569 0.6495 0.9528 0.0
C447 C 0.08815 0.62411 0.93769 0.0
C448 C 0.12912 0.64781 0.98037 0.0
C449 C 0.09466 0.62156 -0.00653 0.0
C450 C 0.05707 0.59641 0.97863 0.0
C451 C 0.05408 0.59723 0.95102 0.0
H452 H 0.46573 0.15072 0.41431 0.0
H453 H 0.58621 0.10162 0.43811 0.0
H454 H 0.49221 0.15966 0.36969 0.0
H455 H 0.61258 0.1098 0.39303 0.0
H456 H 0.58325 1.06176 0.30014 0.0
H457 H 0.57537 1.0662 0.34814 0.0
H458 H 0.55907 0.20368 0.3447 0.0
H459 H 0.56738 0.19939 0.29675 0.0
C460 C 0.49829 0.14257 0.41004 0.0
C461 C 0.52411 0.12569 0.42953 0.0
C462 C 0.51352 0.14788 0.38459 0.0
C463 C 0.55443 0.13548 0.378 0.0
C464 C 0.58096 0.11967 0.39771 0.0
C465 C 0.56611 0.11529 0.42345 0.0
C466 C 0.57872 0.09309 0.30977 0.0
C467 C 0.57564 0.13015 0.29481 0.0
C468 C 0.57462 0.09575 0.33719 0.0
C469 C 0.56662 0.13528 0.35002 0.0
C470 C 0.56522 0.17285 0.33521 0.0
C471 C 0.57008 0.17043 0.30787 0.0
H472 H 0.61852 0.59553 0.75482 0.0
H473 H 0.5759 0.72128 0.74316 0.0
H474 H 0.60176 0.57378 0.70753 0.0
H475 H 0.56059 0.70006 0.69575 0.0
H476 H 0.60145 0.66267 0.60992 0.0
H477 H 0.61473 0.68267 0.65728 0.0
H478 H 0.52631 0.56017 0.6744 0.0
H479 H 0.51053 0.54096 0.62696 0.0
C480 C 0.60549 0.61842 0.74216 0.0
C481 C 0.59832 0.66 0.75261 0.0
C482 C 0.59589 0.60596 0.71518 0.0
C483 C 0.58 0.63533 0.69811 0.0
C484 C 0.57303 0.67697 0.70854 0.0
C485 C 0.58166 0.68901 0.73561 0.0
C486 C 0.58405 0.64022 0.62362 0.0
C487 C 0.55456 0.60025 0.61438 0.0
C488 C 0.59198 0.65164 0.65078 0.0
C489 C 0.57146 0.62298 0.66937 0.0
C490 C 0.54275 0.58267 0.66038 0.0
C491 C 0.53402 0.57161 0.63318 0.0
H492 H 0.54104 0.15826 0.60159 0.0
H493 H 0.47123 1.0332 0.56288 0.0
H494 H 0.49564 0.14347 0.64016 0.0
H495 H 0.42474 1.01894 0.60082 0.0
H496 H 0.38899 0.98823 0.68715 0.0
H497 H 0.43096 1.00076 0.64708 0.0
H498 H 0.41758 0.13973 0.65216 0.0
H499 H 0.37611 0.12719 0.69213 0.0
C500 C 0.51583 0.12775 0.60132 0.0
C501 C 0.50916 0.09709 0.57922 0.0
C502 C 0.48959 0.11938 0.62326 0.0
C503 C 0.45631 0.08014 0.62347 0.0
C504 C 0.45021 1.0493 0.60139 0.0
C505 C 0.47646 1.05768 0.57956 0.0
C506 C 0.39436 1.02117 0.67935 0.0
C507 C 0.37968 1.0568 0.69282 0.0
C508 C 0.41848 1.02844 0.65649 0.0
C509 C 0.42821 1.07145 0.64668 0.0
C510 C 0.41164 0.1065 0.65956 0.0
C511 C 0.38766 0.09925 0.68234 0.0
H512 H 0.58474 0.53593 0.90678 0.0
H513 H 0.60266 0.67906 0.90147 0.0
H514 H 0.57585 0.54462 0.95419 0.0
H515 H 0.59491 0.68814 0.94936 0.0
H516 H 0.53077 0.67911 0.03085 0.0
H517 H 0.53815 0.6721 0.98292 0.0
H518 H 0.62178 0.57286 -0.00586 0.0
H519 H 0.61302 0.5786 0.04167 0.0
C520 C 0.58715 0.56938 0.91584 0.0
C521 C 0.59491 0.60693 0.90053 0.0
C522 C 0.58228 0.57437 0.94304 0.0
C523 C 0.58502 0.61709 0.95562 0.0
C524 C 0.59238 0.65475 0.94023 0.0
C525 C 0.59731 0.64967 0.9129 0.0
C526 C 0.55034 0.65551 0.023 0.0
C527 C 0.57133 0.62944 0.04006 0.0
C528 C 0.55502 0.65189 -0.0044 0.0
C529 C 0.58058 0.62195 0.98472 0.0
C530 C 0.60146 0.5959 0.00183 0.0
C531 C 0.59683 0.59954 0.02913 0.0
H532 H 0.05514 0.71009 0.23816 0.0
H533 H 0.14456 0.61507 0.23094 0.0
H534 H 0.0484 0.69596 0.28488 0.0
H535 H 0.13859 0.60145 0.27808 0.0
H536 H 0.0816 0.55903 0.35802 0.0
H537 H 0.08509 0.56906 0.3104 0.0
H538 H 0.09574 0.71169 0.32546 0.0
H539 H 0.09056 0.70149 0.37266 0.0
C540 C 0.07352 0.68629 0.24663 0.0
C541 C 0.10066 0.66394 0.23101 0.0
C542 C 0.06982 0.67831 0.27343 0.0
C543 C 0.09325 0.64785 0.28528 0.0
C544 C 0.11984 0.62487 0.2695 0.0
C545 C 0.12353 0.63287 0.24259 0.0
C546 C 0.08422 0.59242 0.35106 0.0
C547 C 0.08591 0.62947 0.36911 0.0
C548 C 0.08672 0.59823 0.32385 0.0
C549 C 0.09069 0.64118 0.31413 0.0
C550 C 0.09216 0.6781 0.33221 0.0
C551 C 0.08972 0.67231 0.35933 0.0
loop_
_geom_bond_atom_site_label_1
_geom_bond_atom_site_label_2
_geom_bond_distance
_geom_bond_site_symmetry_2
_ccdc_geom_bond_type
Pr0 C2 2.880 1_455 S
Pr0 O20 2.562 1_455 S
Pr0 O21 2.490 1_455 S
Pr0 O22 2.695 . S
Pr0 O23 2.512 . S
Pr0 O25 2.437 1_455 S
Pr0 O28 2.436 . S
Pr0 O30 2.438 . S
Pr1 C11 2.880 . S
Pr1 O22 2.436 . S
Pr1 O24 2.438 1_455 S
Pr1 O26 2.562 . S
Pr1 O27 2.490 . S
Pr1 O28 2.695 . S
Pr1 O29 2.512 . S
Pr1 O31 2.437 . S
C2 Pr0 2.880 1_655 S
C2 C3 1.491 . S
C2 O20 1.254 . S
C2 O21 1.225 . S
C3 C2 1.491 . S
C3 C4 1.392 . S
C3 C8 1.356 . S
C4 C3 1.392 . S
C4 C5 1.368 . S
C4 H32 0.929 . S
C5 C4 1.368 . S
C5 C6 1.386 . S
C5 H33 0.929 . S
C6 C5 1.386 . S
C6 C7 1.373 . S
C7 C6 1.373 . S
C7 C8 1.409 . S
C7 H34 0.931 . S
C8 C3 1.356 . S
C8 C7 1.409 . S
C8 H35 0.930 . S
C9 O22 1.270 . S
C9 O23 1.248 . S
C10 O24 1.267 . S
C10 O25 1.278 . S
C11 Pr1 2.880 . S
C11 C12 1.491 . S
C11 O26 1.254 . S
C11 O27 1.225 . S
C12 C11 1.491 . S
C12 C13 1.392 . S
C12 C17 1.356 . S
C13 C12 1.392 . S
C13 C14 1.368 . S
C13 H36 0.929 . S
C14 C13 1.368 . S
C14 C15 1.386 . S
C14 H37 0.929 . S
C15 C14 1.386 . S
C15 C16 1.373 . S
C16 C15 1.373 . S
C16 C17 1.409 . S
C16 H38 0.931 . S
C17 C12 1.356 . S
C17 C16 1.409 . S
C17 H39 0.930 . S
C18 O28 1.270 . S
C18 O29 1.248 . S
C19 O30 1.267 . S
C19 O31 1.278 . S
O20 Pr0 2.562 1_655 S
O20 C2 1.254 . S
O21 Pr0 2.490 1_655 S
O21 C2 1.225 . S
O22 Pr0 2.695 . S
O22 Pr1 2.436 . S
O22 C9 1.270 . S
O23 Pr0 2.512 . S
O23 C9 1.248 . S
O24 Pr1 2.438 1_655 S
O24 C10 1.267 . S
O25 Pr0 2.437 1_655 S
O25 C10 1.278 . S
O26 Pr1 2.562 . S
O26 C11 1.254 . S
O27 Pr1 2.490 . S
O27 C11 1.225 . S
O28 Pr0 2.436 . S
O28 Pr1 2.695 . S
O28 C18 1.270 . S
O29 Pr1 2.512 . S
O29 C18 1.248 . S
O30 Pr0 2.438 . S
O30 C19 1.267 . S
O31 Pr1 2.437 . S
O31 C19 1.278 . S
H32 C4 0.929 . S
H33 C5 0.929 . S
H34 C7 0.931 . S
H35 C8 0.930 . S
H36 C13 0.929 . S
H37 C14 0.929 . S
H38 C16 0.931 . S
H39 C17 0.930 . S
Pr40 C42 2.880 . S
Pr40 O60 2.562 . S
Pr40 O61 2.490 . S
Pr40 O62 2.695 . S
Pr40 O63 2.512 . S
Pr40 O65 2.437 . S
Pr40 O68 2.436 . S
Pr40 O70 2.438 1_545 S
Pr41 C51 2.880 1_545 S
Pr41 O62 2.436 . S
Pr41 O64 2.438 . S
Pr41 O66 2.562 1_545 S
Pr41 O67 2.490 1_545 S
Pr41 O68 2.695 . S
Pr41 O69 2.512 . S
Pr41 O71 2.437 1_545 S
C42 Pr40 2.880 . S
C42 C43 1.491 . S
C42 O60 1.254 . S
C42 O61 1.225 . S
C43 C42 1.491 . S
C43 C44 1.392 . S
C43 C48 1.356 . S
C44 C43 1.392 . S
C44 C45 1.368 . S
C44 H72 0.929 . S
C45 C44 1.368 . S
C45 C46 1.386 . S
C45 H73 0.929 . S
C46 C45 1.386 . S
C46 C47 1.373 . S
C47 C46 1.373 . S
C47 C48 1.409 . S
C47 H74 0.931 . S
C48 C43 1.356 . S
C48 C47 1.409 . S
C48 H75 0.930 . S
C49 O62 1.270 . S
C49 O63 1.248 . S
C50 O64 1.267 . S
C50 O65 1.278 . S
C51 Pr41 2.880 1_565 S
C51 C52 1.491 . S
C51 O66 1.254 . S
C51 O67 1.225 . S
C52 C51 1.491 . S
C52 C53 1.392 . S
C52 C57 1.356 . S
C53 C52 1.392 . S
C53 C54 1.368 . S
C53 H76 0.929 . S
C54 C53 1.368 . S
C54 C55 1.386 . S
C54 H77 0.929 . S
C55 C54 1.386 . S
C55 C56 1.373 . S
C56 C55 1.373 . S
C56 C57 1.409 . S
C56 H78 0.931 . S
C57 C52 1.356 . S
C57 C56 1.409 . S
C57 H79 0.930 . S
C58 O68 1.270 . S
C58 O69 1.248 . S
C59 O70 1.267 . S
C59 O71 1.278 . S
O60 Pr40 2.562 . S
O60 C42 1.254 . S
O61 Pr40 2.490 . S
O61 C42 1.225 . S
O62 Pr40 2.695 . S
O62 Pr41 2.436 . S
O62 C49 1.270 . S
O63 Pr40 2.512 . S
O63 C49 1.248 . S
O64 Pr41 2.438 . S
O64 C50 1.267 . S
O65 Pr40 2.437 . S
O65 C50 1.278 . S
O66 Pr41 2.562 1_565 S
O66 C51 1.254 . S
O67 Pr41 2.490 1_565 S
O67 C51 1.225 . S
O68 Pr40 2.436 . S
O68 Pr41 2.695 . S
O68 C58 1.270 . S
O69 Pr41 2.512 . S
O69 C58 1.248 . S
O70 Pr40 2.438 1_565 S
O70 C59 1.267 . S
O71 Pr41 2.437 1_565 S
O71 C59 1.278 . S
H72 C44 0.929 . S
H73 C45 0.929 . S
H74 C47 0.931 . S
H75 C48 0.930 . S
H76 C53 0.929 . S
H77 C54 0.929 . S
H78 C56 0.931 . S
H79 C57 0.930 . S
Pr80 C82 2.880 . S
Pr80 O100 2.562 . S
Pr80 O101 2.490 . S
Pr80 O102 2.695 . S
Pr80 O103 2.512 . S
Pr80 O105 2.437 . S
Pr80 O108 2.436 . S
Pr80 O110 2.438 . S
Pr81 C91 2.880 . S
Pr81 O102 2.436 . S
Pr81 O104 2.438 . S
Pr81 O106 2.562 . S
Pr81 O107 2.490 . S
Pr81 O108 2.695 . S
Pr81 O109 2.512 . S
Pr81 O111 2.437 . S
C82 Pr80 2.880 . S
C82 C83 1.491 . S
C82 O100 1.254 . S
C82 O101 1.225 . S
C83 C82 1.491 . S
C83 C84 1.392 . S
C83 C88 1.356 . S
C84 C83 1.392 . S
C84 C85 1.368 . S
C84 H112 0.929 . S
C85 C84 1.368 . S
C85 C86 1.386 . S
C85 H113 0.929 . S
C86 C85 1.386 . S
C86 C87 1.373 . S
C87 C86 1.373 . S
C87 C88 1.409 . S
C87 H114 0.931 . S
C88 C83 1.356 . S
C88 C87 1.409 . S
C88 H115 0.930 . S
C89 O102 1.270 . S
C89 O103 1.248 . S
C90 O104 1.267 . S
C90 O105 1.278 . S
C91 Pr81 2.880 . S
C91 C92 1.491 . S
C91 O106 1.254 . S
C91 O107 1.225 . S
C92 C91 1.491 . S
C92 C93 1.392 . S
C92 C97 1.356 . S
C93 C92 1.392 . S
C93 C94 1.368 . S
C93 H116 0.929 . S
C94 C93 1.368 . S
C94 C95 1.386 . S
C94 H117 0.929 . S
C95 C94 1.386 . S
C95 C96 1.373 . S
C96 C95 1.373 . S
C96 C97 1.409 . S
C96 H118 0.931 . S
C97 C92 1.356 . S
C97 C96 1.409 . S
C97 H119 0.930 . S
C98 O108 1.270 . S
C98 O109 1.248 . S
C99 O110 1.267 . S
C99 O111 1.278 . S
O100 Pr80 2.562 . S
O100 C82 1.254 . S
O101 Pr80 2.490 . S
O101 C82 1.225 . S
O102 Pr80 2.695 . S
O102 Pr81 2.436 . S
O102 C89 1.270 . S
O103 Pr80 2.512 . S
O103 C89 1.248 . S
O104 Pr81 2.438 . S
O104 C90 1.267 . S
O105 Pr80 2.437 . S
O105 C90 1.278 . S
O106 Pr81 2.562 . S
O106 C91 1.254 . S
O107 Pr81 2.490 . S
O107 C91 1.225 . S
O108 Pr80 2.436 . S
O108 Pr81 2.695 . S
O108 C98 1.270 . S
O109 Pr81 2.512 . S
O109 C98 1.248 . S
O110 Pr80 2.438 . S
O110 C99 1.267 . S
O111 Pr81 2.437 . S
O111 C99 1.278 . S
H112 C84 0.929 . S
H113 C85 0.929 . S
H114 C87 0.931 . S
H115 C88 0.930 . S
H116 C93 0.929 . S
H117 C94 0.929 . S
H118 C96 0.931 . S
H119 C97 0.930 . S
H120 C125 0.930 . S
H121 C128 0.930 . S
H122 C130 0.930 . S
H123 C124 1.016 . S
C124 H123 1.016 . S
C124 N131 1.286 . S
C125 H120 0.930 . S
C125 C126 1.397 . S
C125 C127 1.361 . S
C126 C125 1.397 . S
C126 C130 1.390 . S
C127 C125 1.361 . S
C127 C128 1.393 . S
C127 N131 1.413 . S
C128 H121 0.930 . S
C128 C127 1.393 . S
C128 C129 1.399 . S
C129 C128 1.399 . S
C129 C130 1.381 . S
C130 H122 0.930 . S
C130 C126 1.390 . S
C130 C129 1.381 . S
N131 C124 1.286 . S
N131 C127 1.413 . S
H132 C137 0.930 . S
H133 C140 0.930 . S
H134 C142 0.930 . S
H135 C136 1.016 . S
C136 H135 1.016 . S
C136 N143 1.286 . S
C137 H132 0.930 . S
C137 C138 1.397 . S
C137 C139 1.361 . S
C138 C137 1.397 . S
C138 C142 1.390 . S
C139 C137 1.361 . S
C139 C140 1.393 . S
C139 N143 1.413 . S
C140 H133 0.930 . S
C140 C139 1.393 . S
C140 C141 1.399 . S
C141 C140 1.399 . S
C141 C142 1.381 . S
C142 H134 0.930 . S
C142 C138 1.390 . S
C142 C141 1.381 . S
N143 C136 1.286 . S
N143 C139 1.413 . S
H144 C149 0.930 . S
H145 C152 0.930 . S
H146 C154 0.930 . S
H147 C148 1.016 . S
C148 H147 1.016 . S
C148 N155 1.286 . S
C149 H144 0.930 . S
C149 C150 1.397 . S
C149 C151 1.361 1_655 S
C150 C149 1.397 . S
C150 C154 1.390 . S
C151 C149 1.361 1_455 S
C151 C152 1.393 . S
C151 N155 1.413 . S
C152 H145 0.930 . S
C152 C151 1.393 . S
C152 C153 1.399 . S
C153 C152 1.399 . S
C153 C154 1.381 1_455 S
C154 H146 0.930 . S
C154 C150 1.390 . S
C154 C153 1.381 1_655 S
N155 C148 1.286 . S
N155 C151 1.413 . S
H156 C161 0.930 . S
H157 C164 0.930 . S
H158 C166 0.930 . S
H159 C160 1.016 . S
C160 H159 1.016 . S
C160 N167 1.286 . S
C161 H156 0.930 . S
C161 C162 1.397 . S
C161 C163 1.361 1_455 S
C162 C161 1.397 . S
C162 C166 1.390 . S
C163 C161 1.361 1_655 S
C163 C164 1.393 . S
C163 N167 1.413 . S
C164 H157 0.930 . S
C164 C163 1.393 . S
C164 C165 1.399 1_655 S
C165 C164 1.399 1_455 S
C165 C166 1.381 . S
C166 H158 0.930 . S
C166 C162 1.390 . S
C166 C165 1.381 . S
N167 C160 1.286 . S
N167 C163 1.413 . S
H168 C173 0.930 . S
H169 C176 0.929 . S
H170 C178 0.930 . S
H171 C172 1.016 . S
C172 H171 1.016 . S
C172 N179 1.286 . S
C173 H168 0.930 . S
C173 C174 1.397 . S
C173 C175 1.361 . S
C174 C173 1.397 . S
C174 C178 1.390 . S
C175 C173 1.361 . S
C175 C176 1.393 1_545 S
C175 N179 1.413 1_545 S
C176 H169 0.929 . S
C176 C175 1.393 1_565 S
C176 C177 1.400 1_565 S
C177 C176 1.400 1_545 S
C177 C178 1.381 . S
C178 H170 0.930 . S
C178 C174 1.390 . S
C178 C177 1.381 . S
N179 C172 1.286 . S
N179 C175 1.413 1_565 S
H180 C185 0.930 . S
H181 C188 0.930 . S
H182 C190 0.930 . S
H183 C184 1.016 . S
C184 H183 1.016 . S
C184 N191 1.286 . S
C185 H180 0.930 . S
C185 C186 1.397 . S
C185 C187 1.361 . S
C186 C185 1.397 . S
C186 C190 1.390 . S
C187 C185 1.361 . S
C187 C188 1.393 . S
C187 N191 1.413 . S
C188 H181 0.930 . S
C188 C187 1.393 . S
C188 C189 1.399 . S
C189 C188 1.399 . S
C189 C190 1.381 . S
C190 H182 0.930 . S
C190 C186 1.390 . S
C190 C189 1.381 . S
N191 C184 1.286 . S
N191 C187 1.413 . S
H192 C200 0.950 . S
H193 C205 0.950 . S
H194 C202 0.950 . S
H195 C204 0.950 . S
H196 C206 0.950 . S
H197 C208 0.950 . S
H198 C210 0.950 . S
H199 C211 0.950 . S
C200 H192 0.950 . S
C200 C201 1.386 . S
C200 C202 1.391 . S
C201 C200 1.386 . S
C201 C205 1.393 . S
C202 H194 0.950 . S
C202 C200 1.391 . S
C202 C203 1.400 . S
C203 C202 1.400 . S
C203 C204 1.398 . S
C203 C209 1.491 . S
C204 H195 0.950 . S
C204 C203 1.398 . S
C204 C205 1.391 . S
C205 H193 0.950 . S
C205 C201 1.393 . S
C205 C204 1.391 . S
C206 H196 0.950 . S
C206 C207 1.386 . S
C206 C208 1.391 . S
C207 C206 1.386 . S
C207 C211 1.393 . S
C208 H197 0.950 . S
C208 C206 1.391 . S
C208 C209 1.400 . S
C209 C203 1.491 . S
C209 C208 1.400 . S
C209 C210 1.398 . S
C210 H198 0.950 . S
C210 C209 1.398 . S
C210 C211 1.391 . S
C211 H199 0.950 . S
C211 C207 1.393 . S
C211 C210 1.391 . S
H212 C220 0.950 . S
H213 C225 0.950 . S
H214 C222 0.950 . S
H215 C224 0.950 . S
H216 C226 0.950 . S
H217 C228 0.950 . S
H218 C230 0.950 . S
H219 C231 0.950 . S
C220 H212 0.950 . S
C220 C221 1.386 . S
C220 C222 1.391 . S
C221 C220 1.386 . S
C221 C225 1.393 . S
C222 H214 0.950 . S
C222 C220 1.391 . S
C222 C223 1.400 . S
C223 C222 1.400 . S
C223 C224 1.398 . S
C223 C229 1.491 . S
C224 H215 0.950 . S
C224 C223 1.398 . S
C224 C225 1.391 . S
C225 H213 0.950 . S
C225 C221 1.393 . S
C225 C224 1.391 . S
C226 H216 0.950 . S
C226 C227 1.386 . S
C226 C228 1.391 . S
C227 C226 1.386 . S
C227 C231 1.393 . S
C228 H217 0.950 . S
C228 C226 1.391 . S
C228 C229 1.400 . S
C229 C223 1.491 . S
C229 C228 1.400 . S
C229 C230 1.398 . S
C230 H218 0.950 . S
C230 C229 1.398 . S
C230 C231 1.391 . S
C231 H219 0.950 . S
C231 C227 1.393 . S
C231 C230 1.391 . S
H232 C240 0.950 . S
H233 C245 0.950 . S
H234 C242 0.950 . S
H235 C244 0.950 . S
H236 C246 0.950 . S
H237 C248 0.950 . S
H238 C250 0.950 . S
H239 C251 0.950 . S
C240 H232 0.950 . S
C240 C241 1.386 . S
C240 C242 1.391 . S
C241 C240 1.386 . S
C241 C245 1.393 . S
C242 H234 0.950 . S
C242 C240 1.391 . S
C242 C243 1.400 . S
C243 C242 1.400 . S
C243 C244 1.398 . S
C243 C249 1.491 . S
C244 H235 0.950 . S
C244 C243 1.398 . S
C244 C245 1.391 . S
C245 H233 0.950 . S
C245 C241 1.393 . S
C245 C244 1.391 . S
C246 H236 0.950 . S
C246 C247 1.386 . S
C246 C248 1.391 . S
C247 C246 1.386 . S
C247 C251 1.393 . S
C248 H237 0.950 . S
C248 C246 1.391 . S
C248 C249 1.400 . S
C249 C243 1.491 . S
C249 C248 1.400 . S
C249 C250 1.398 . S
C250 H238 0.950 . S
C250 C249 1.398 . S
C250 C251 1.391 . S
C251 H239 0.950 . S
C251 C247 1.393 . S
C251 C250 1.391 . S
H252 C260 0.950 . S
H253 C265 0.950 . S
H254 C262 0.950 . S
H255 C264 0.950 . S
H256 C266 0.950 . S
H257 C268 0.950 . S
H258 C270 0.950 . S
H259 C271 0.950 . S
C260 H252 0.950 . S
C260 C261 1.386 . S
C260 C262 1.391 . S
C261 C260 1.386 . S
C261 C265 1.393 . S
C262 H254 0.950 . S
C262 C260 1.391 . S
C262 C263 1.400 . S
C263 C262 1.400 . S
C263 C264 1.398 . S
C263 C269 1.491 . S
C264 H255 0.950 . S
C264 C263 1.398 . S
C264 C265 1.391 . S
C265 H253 0.950 . S
C265 C261 1.393 . S
C265 C264 1.391 . S
C266 H256 0.950 . S
C266 C267 1.386 . S
C266 C268 1.391 . S
C267 C266 1.386 . S
C267 C271 1.393 . S
C268 H257 0.950 . S
C268 C266 1.391 . S
C268 C269 1.400 . S
C269 C263 1.491 . S
C269 C268 1.400 . S
C269 C270 1.398 . S
C270 H258 0.950 . S
C270 C269 1.398 . S
C270 C271 1.391 . S
C271 H259 0.950 . S
C271 C267 1.393 . S
C271 C270 1.391 . S
H272 C280 0.950 . S
H273 C285 0.950 . S
H274 C282 0.950 . S
H275 C284 0.950 . S
H276 C286 0.950 . S
H277 C288 0.950 . S
H278 C290 0.950 . S
H279 C291 0.950 . S
C280 H272 0.950 . S
C280 C281 1.386 . S
C280 C282 1.391 . S
C281 C280 1.386 . S
C281 C285 1.393 . S
C282 H274 0.950 . S
C282 C280 1.391 . S
C282 C283 1.400 . S
C283 C282 1.400 . S
C283 C284 1.398 . S
C283 C289 1.491 . S
C284 H275 0.950 . S
C284 C283 1.398 . S
C284 C285 1.391 . S
C285 H273 0.950 . S
C285 C281 1.393 . S
C285 C284 1.391 . S
C286 H276 0.950 . S
C286 C287 1.386 . S
C286 C288 1.391 . S
C287 C286 1.386 . S
C287 C291 1.393 . S
C288 H277 0.950 . S
C288 C286 1.391 . S
C288 C289 1.400 . S
C289 C283 1.491 . S
C289 C288 1.400 . S
C289 C290 1.398 . S
C290 H278 0.950 . S
C290 C289 1.398 . S
C290 C291 1.391 . S
C291 H279 0.950 . S
C291 C287 1.393 . S
C291 C290 1.391 . S
H292 C300 0.950 . S
H293 C305 0.950 . S
H294 C302 0.950 . S
H295 C304 0.950 . S
H296 C306 0.950 . S
H297 C308 0.950 . S
H298 C310 0.950 . S
H299 C311 0.950 . S
C300 H292 0.950 . S
C300 C301 1.386 . S
C300 C302 1.391 . S
C301 C300 1.386 . S
C301 C305 1.393 . S
C302 H294 0.950 . S
C302 C300 1.391 . S
C302 C303 1.400 . S
C303 C302 1.400 . S
C303 C304 1.398 . S
C303 C309 1.491 . S
C304 H295 0.950 . S
C304 C303 1.398 . S
C304 C305 1.391 . S
C305 H293 0.950 . S
C305 C301 1.393 . S
C305 C304 1.391 . S
C306 H296 0.950 . S
C306 C307 1.386 . S
C306 C308 1.391 . S
C307 C306 1.386 . S
C307 C311 1.393 . S
C308 H297 0.950 . S
C308 C306 1.391 . S
C308 C309 1.400 . S
C309 C303 1.491 . S
C309 C308 1.400 . S
C309 C310 1.398 . S
C310 H298 0.950 . S
C310 C309 1.398 . S
C310 C311 1.391 . S
C311 H299 0.950 . S
C311 C307 1.393 . S
C311 C310 1.391 . S
H312 C320 0.950 . S
H313 C325 0.950 . S
H314 C322 0.950 . S
H315 C324 0.950 . S
H316 C326 0.950 . S
H317 C328 0.950 . S
H318 C330 0.950 . S
H319 C331 0.950 . S
C320 H312 0.950 . S
C320 C321 1.386 . S
C320 C322 1.391 . S
C321 C320 1.386 . S
C321 C325 1.393 . S
C322 H314 0.950 . S
C322 C320 1.391 . S
C322 C323 1.400 . S
C323 C322 1.400 . S
C323 C324 1.398 . S
C323 C329 1.491 . S
C324 H315 0.950 . S
C324 C323 1.398 . S
C324 C325 1.391 . S
C325 H313 0.950 . S
C325 C321 1.393 . S
C325 C324 1.391 . S
C326 H316 0.950 . S
C326 C327 1.386 . S
C326 C328 1.391 . S
C327 C326 1.386 . S
C327 C331 1.393 . S
C328 H317 0.950 . S
C328 C326 1.391 . S
C328 C329 1.400 . S
C329 C323 1.491 . S
C329 C328 1.400 . S
C329 C330 1.398 . S
C330 H318 0.950 . S
C330 C329 1.398 . S
C330 C331 1.391 . S
C331 H319 0.950 . S
C331 C327 1.393 . S
C331 C330 1.391 . S
H332 C340 0.950 . S
H333 C345 0.950 . S
H334 C342 0.950 . S
H335 C344 0.950 . S
H336 C346 0.950 . S
H337 C348 0.950 . S
H338 C350 0.950 . S
H339 C351 0.950 . S
C340 H332 0.950 . S
C340 C341 1.386 . S
C340 C342 1.391 . S
C341 C340 1.386 . S
C341 C345 1.393 . S
C342 H334 0.950 . S
C342 C340 1.391 . S
C342 C343 1.400 . S
C343 C342 1.400 . S
C343 C344 1.398 . S
C343 C349 1.491 . S
C344 H335 0.950 . S
C344 C343 1.398 . S
C344 C345 1.391 . S
C345 H333 0.950 . S
C345 C341 1.393 . S
C345 C344 1.391 . S
C346 H336 0.950 . S
C346 C347 1.386 . S
C346 C348 1.391 . S
C347 C346 1.386 . S
C347 C351 1.393 . S
C348 H337 0.950 . S
C348 C346 1.391 . S
C348 C349 1.400 . S
C349 C343 1.491 . S
C349 C348 1.400 . S
C349 C350 1.398 . S
C350 H338 0.950 . S
C350 C349 1.398 . S
C350 C351 1.391 . S
C351 H339 0.950 . S
C351 C347 1.393 . S
C351 C350 1.391 . S
H352 C360 0.950 . S
H353 C365 0.950 . S
H354 C362 0.950 . S
H355 C364 0.950 . S
H356 C366 0.950 . S
H357 C368 0.950 . S
H358 C370 0.950 . S
H359 C371 0.950 . S
C360 H352 0.950 . S
C360 C361 1.386 . S
C360 C362 1.391 . S
C361 C360 1.386 . S
C361 C365 1.393 . S
C362 H354 0.950 . S
C362 C360 1.391 . S
C362 C363 1.400 . S
C363 C362 1.400 . S
C363 C364 1.398 . S
C363 C369 1.491 . S
C364 H355 0.950 . S
C364 C363 1.398 . S
C364 C365 1.391 . S
C365 H353 0.950 . S
C365 C361 1.393 . S
C365 C364 1.391 . S
C366 H356 0.950 . S
C366 C367 1.386 . S
C366 C368 1.391 . S
C367 C366 1.386 . S
C367 C371 1.393 . S
C368 H357 0.950 . S
C368 C366 1.391 . S
C368 C369 1.400 . S
C369 C363 1.491 . S
C369 C368 1.400 . S
C369 C370 1.398 . S
C370 H358 0.950 . S
C370 C369 1.398 . S
C370 C371 1.391 . S
C371 H359 0.950 . S
C371 C367 1.393 . S
C371 C370 1.391 . S
H372 C380 0.950 . S
H373 C385 0.950 . S
H374 C382 0.950 . S
H375 C384 0.950 . S
H376 C386 0.950 . S
H377 C388 0.950 . S
H378 C390 0.950 . S
H379 C391 0.950 . S
C380 H372 0.950 . S
C380 C381 1.386 . S
C380 C382 1.391 . S
C381 C380 1.386 . S
C381 C385 1.393 . S
C382 H374 0.950 . S
C382 C380 1.391 . S
C382 C383 1.400 . S
C383 C382 1.400 . S
C383 C384 1.398 . S
C383 C389 1.491 . S
C384 H375 0.950 . S
C384 C383 1.398 . S
C384 C385 1.391 . S
C385 H373 0.950 . S
C385 C381 1.393 . S
C385 C384 1.391 . S
C386 H376 0.950 . S
C386 C387 1.386 . S
C386 C388 1.391 . S
C387 C386 1.386 . S
C387 C391 1.393 . S
C388 H377 0.950 . S
C388 C386 1.391 . S
C388 C389 1.400 . S
C389 C383 1.491 . S
C389 C388 1.400 . S
C389 C390 1.398 . S
C390 H378 0.950 . S
C390 C389 1.398 . S
C390 C391 1.391 . S
C391 H379 0.950 . S
C391 C387 1.393 . S
C391 C390 1.391 . S
H392 C400 0.950 . S
H393 C405 0.950 . S
H394 C402 0.950 . S
H395 C404 0.950 . S
H396 C406 0.950 . S
H397 C408 0.950 . S
H398 C410 0.950 . S
H399 C411 0.950 . S
C400 H392 0.950 . S
C400 C401 1.386 . S
C400 C402 1.391 . S
C401 C400 1.386 . S
C401 C405 1.393 . S
C402 H394 0.950 . S
C402 C400 1.391 . S
C402 C403 1.400 . S
C403 C402 1.400 . S
C403 C404 1.398 . S
C403 C409 1.491 . S
C404 H395 0.950 . S
C404 C403 1.398 . S
C404 C405 1.391 . S
C405 H393 0.950 . S
C405 C401 1.393 . S
C405 C404 1.391 . S
C406 H396 0.950 . S
C406 C407 1.386 . S
C406 C408 1.391 . S
C407 C406 1.386 . S
C407 C411 1.393 . S
C408 H397 0.950 . S
C408 C406 1.391 . S
C408 C409 1.400 . S
C409 C403 1.491 . S
C409 C408 1.400 . S
C409 C410 1.398 . S
C410 H398 0.950 . S
C410 C409 1.398 . S
C410 C411 1.391 . S
C411 H399 0.950 . S
C411 C407 1.393 . S
C411 C410 1.391 . S
H412 C420 0.950 . S
H413 C425 0.950 . S
H414 C422 0.950 . S
H415 C424 0.950 . S
H416 C426 0.950 . S
H417 C428 0.950 . S
H418 C430 0.950 . S
H419 C431 0.950 . S
C420 H412 0.950 . S
C420 C421 1.386 . S
C420 C422 1.391 . S
C421 C420 1.386 . S
C421 C425 1.393 . S
C422 H414 0.950 . S
C422 C420 1.391 . S
C422 C423 1.400 . S
C423 C422 1.400 . S
C423 C424 1.398 . S
C423 C429 1.491 . S
C424 H415 0.950 . S
C424 C423 1.398 . S
C424 C425 1.391 . S
C425 H413 0.950 . S
C425 C421 1.393 . S
C425 C424 1.391 . S
C426 H416 0.950 . S
C426 C427 1.386 . S
C426 C428 1.391 . S
C427 C426 1.386 . S
C427 C431 1.393 . S
C428 H417 0.950 . S
C428 C426 1.391 . S
C428 C429 1.400 . S
C429 C423 1.491 . S
C429 C428 1.400 . S
C429 C430 1.398 . S
C430 H418 0.950 . S
C430 C429 1.398 . S
C430 C431 1.391 . S
C431 H419 0.950 . S
C431 C427 1.393 . S
C431 C430 1.391 . S
H432 C440 0.950 . S
H433 C445 0.950 . S
H434 C442 0.950 . S
H435 C444 0.950 . S
H436 C446 0.950 . S
H437 C448 0.950 . S
H438 C450 0.950 . S
H439 C451 0.950 . S
C440 H432 0.950 . S
C440 C441 1.386 1_655 S
C440 C442 1.391 . S
C441 C440 1.386 1_455 S
C441 C445 1.393 . S
C442 H434 0.950 . S
C442 C440 1.391 . S
C442 C443 1.400 1_655 S
C443 C442 1.400 1_455 S
C443 C444 1.398 . S
C443 C449 1.491 1_554 S
C444 H435 0.950 . S
C444 C443 1.398 . S
C444 C445 1.391 . S
C445 H433 0.950 . S
C445 C441 1.393 . S
C445 C444 1.391 . S
C446 H436 0.950 . S
C446 C447 1.386 . S
C446 C448 1.391 . S
C447 C446 1.386 . S
C447 C451 1.393 1_455 S
C448 H437 0.950 . S
C448 C446 1.391 . S
C448 C449 1.400 . S
C449 C443 1.491 1_556 S
C449 C448 1.400 . S
C449 C450 1.398 1_455 S
C450 H438 0.950 . S
C450 C449 1.398 1_655 S
C450 C451 1.391 . S
C451 H439 0.950 . S
C451 C447 1.393 1_655 S
C451 C450 1.391 . S
H452 C460 0.950 . S
H453 C465 0.950 1_565 S
H454 C462 0.950 . S
H455 C464 0.950 1_565 S
H456 C466 0.950 1_565 S
H457 C468 0.950 1_565 S
H458 C470 0.950 . S
H459 C471 0.950 . S
C460 H452 0.950 . S
C460 C461 1.386 . S
C460 C462 1.391 . S
C461 C460 1.386 . S
C461 C465 1.393 . S
C462 H454 0.950 . S
C462 C460 1.391 . S
C462 C463 1.400 . S
C463 C462 1.400 . S
C463 C464 1.398 . S
C463 C469 1.491 . S
C464 H455 0.950 1_545 S
C464 C463 1.398 . S
C464 C465 1.391 . S
C465 H453 0.950 1_545 S
C465 C461 1.393 . S
C465 C464 1.391 . S
C466 H456 0.950 1_545 S
C466 C467 1.386 . S
C466 C468 1.391 . S
C467 C466 1.386 . S
C467 C471 1.393 . S
C468 H457 0.950 1_545 S
C468 C466 1.391 . S
C468 C469 1.400 . S
C469 C463 1.491 . S
C469 C468 1.400 . S
C469 C470 1.398 . S
C470 H458 0.950 . S
C470 C469 1.398 . S
C470 C471 1.391 . S
C471 H459 0.950 . S
C471 C467 1.393 . S
C471 C470 1.391 . S
H472 C480 0.950 . S
H473 C485 0.950 . S
H474 C482 0.950 . S
H475 C484 0.950 . S
H476 C486 0.950 . S
H477 C488 0.950 . S
H478 C490 0.950 . S
H479 C491 0.950 . S
C480 H472 0.950 . S
C480 C481 1.386 . S
C480 C482 1.391 . S
C481 C480 1.386 . S
C481 C485 1.393 . S
C482 H474 0.950 . S
C482 C480 1.391 . S
C482 C483 1.400 . S
C483 C482 1.400 . S
C483 C484 1.398 . S
C483 C489 1.491 . S
C484 H475 0.950 . S
C484 C483 1.398 . S
C484 C485 1.391 . S
C485 H473 0.950 . S
C485 C481 1.393 . S
C485 C484 1.391 . S
C486 H476 0.950 . S
C486 C487 1.386 . S
C486 C488 1.391 . S
C487 C486 1.386 . S
C487 C491 1.393 . S
C488 H477 0.950 . S
C488 C486 1.391 . S
C488 C489 1.400 . S
C489 C483 1.491 . S
C489 C488 1.400 . S
C489 C490 1.398 . S
C490 H478 0.950 . S
C490 C489 1.398 . S
C490 C491 1.391 . S
C491 H479 0.950 . S
C491 C487 1.393 . S
C491 C490 1.391 . S
H492 C500 0.950 . S
H493 C505 0.950 . S
H494 C502 0.950 . S
H495 C504 0.950 . S
H496 C506 0.950 . S
H497 C508 0.950 . S
H498 C510 0.950 . S
H499 C511 0.950 . S
C500 H492 0.950 . S
C500 C501 1.386 . S
C500 C502 1.391 . S
C501 C500 1.386 . S
C501 C505 1.393 . S
C502 H494 0.950 . S
C502 C500 1.391 . S
C502 C503 1.400 . S
C503 C502 1.400 . S
C503 C504 1.398 . S
C503 C509 1.491 . S
C504 H495 0.950 . S
C504 C503 1.398 . S
C504 C505 1.391 . S
C505 H493 0.950 . S
C505 C501 1.393 . S
C505 C504 1.391 . S
C506 H496 0.950 . S
C506 C507 1.386 . S
C506 C508 1.391 . S
C507 C506 1.386 . S
C507 C511 1.393 . S
C508 H497 0.950 . S
C508 C506 1.391 . S
C508 C509 1.400 . S
C509 C503 1.491 . S
C509 C508 1.400 . S
C509 C510 1.398 . S
C510 H498 0.950 . S
C510 C509 1.398 . S
C510 C511 1.391 . S
C511 H499 0.950 . S
C511 C507 1.393 . S
C511 C510 1.391 . S
H512 C520 0.950 . S
H513 C525 0.950 . S
H514 C522 0.950 . S
H515 C524 0.950 . S
H516 C526 0.950 . S
H517 C528 0.950 . S
H518 C530 0.950 . S
H519 C531 0.950 . S
C520 H512 0.950 . S
C520 C521 1.386 . S
C520 C522 1.391 . S
C521 C520 1.386 . S
C521 C525 1.393 . S
C522 H514 0.950 . S
C522 C520 1.391 . S
C522 C523 1.400 . S
C523 C522 1.400 . S
C523 C524 1.398 . S
C523 C529 1.491 1_556 S
C524 H515 0.950 . S
C524 C523 1.398 . S
C524 C525 1.391 . S
C525 H513 0.950 . S
C525 C521 1.393 . S
C525 C524 1.391 . S
C526 H516 0.950 . S
C526 C527 1.386 . S
C526 C528 1.391 . S
C527 C526 1.386 . S
C527 C531 1.393 . S
C528 H517 0.950 . S
C528 C526 1.391 . S
C528 C529 1.400 . S
C529 C523 1.491 1_554 S
C529 C528 1.400 . S
C529 C530 1.398 . S
C530 H518 0.950 . S
C530 C529 1.398 . S
C530 C531 1.391 . S
C531 H519 0.950 . S
C531 C527 1.393 . S
C531 C530 1.391 . S
H532 C540 0.950 . S
H533 C545 0.950 . S
H534 C542 0.950 . S
H535 C544 0.950 . S
H536 C546 0.950 . S
H537 C548 0.950 . S
H538 C550 0.950 . S
H539 C551 0.950 1_655 S
C540 H532 0.950 . S
C540 C541 1.386 . S
C540 C542 1.391 . S
C541 C540 1.386 . S
C541 C545 1.393 . S
C542 H534 0.950 . S
C542 C540 1.391 . S
C542 C543 1.400 . S
C543 C542 1.400 . S
C543 C544 1.398 . S
C543 C549 1.491 . S
C544 H535 0.950 . S
C544 C543 1.398 . S
C544 C545 1.391 . S
C545 H533 0.950 . S
C545 C541 1.393 . S
C545 C544 1.391 . S
C546 H536 0.950 . S
C546 C547 1.386 . S
C546 C548 1.391 . S
C547 C546 1.386 . S
C547 C551 1.393 . S
C548 H537 0.950 . S
C548 C546 1.391 . S
C548 C549 1.400 . S
C549 C543 1.491 . S
C549 C548 1.400 . S
C549 C550 1.398 . S
C550 H538 0.950 . S
C550 C549 1.398 . S
C550 C551 1.391 . S
C551 H539 0.950 1_455 S
C551 C547 1.393 . S
C551 C550 1.391 . S
C201 C19 2.120 . S
C207 C186 2.106 . S
C221 C46 1.284 . S
C227 C160 1.277 . S
C241 C95 0.526 . S
C247 C172 0.509 . S
C261 C10 1.751 . S
C267 C184 1.672 . S
C287 C162 1.173 . S
C281 C55 1.156 . S
C307 C174 0.412 . S
C301 C86 0.460 . S
C321 C59 3.166 . S
C327 C136 3.080 . S
C341 C90 2.172 . S
C347 C150 2.195 . S
C361 C15 1.137 . S
C367 C126 1.148 1_565 S
C387 C138 2.915 . S
C381 C50 2.939 . S
C407 C148 1.615 . S
C401 C99 1.696 . S
C421 C6 1.266 . S
C427 C124 1.245 . S
C447 C153 1.482 . S
C441 C9 1.433 . S
C461 C58 1.533 . S
C467 C129 1.539 . S
C481 C98 1.645 . S
C487 C141 1.747 . S
C507 C177 1.242 . S
C501 C49 1.204 . S
C527 C189 1.496 . S
C521 C89 1.464 . S
C541 C18 1.504 . S
C547 C165 1.513 . S
