# Generated by pormake.
# Topology zzz, (3,6)-cn, num edge types: 1
# Building blocks:
#     Node 0, Type 0, BuildingBlock: BELTOD_clean_linker_0, # of connection points: 3
#     Node 1, Type 0, BuildingBlock: BELTOD_clean_linker_0, # of connection points: 3
#     Node 2, Type 0, BuildingBlock: BELTOD_clean_linker_0, # of connection points: 3
#     Node 3, Type 0, BuildingBlock: BELTOD_clean_linker_0, # of connection points: 3
#     Node 4, Type 0, BuildingBlock: BELTOD_clean_linker_0, # of connection points: 3
#     Node 5, Type 0, BuildingBlock: BELTOD_clean_linker_0, # of connection points: 3
#     Node 6, Type 0, BuildingBlock: BELTOD_clean_linker_0, # of connection points: 3
#     Node 7, Type 0, BuildingBlock: BELTOD_clean_linker_0, # of connection points: 3
#     Node 8, Type 1, BuildingBlock: KUMJIN_clean_sbu_0, # of connection points: 6
#     Node 9, Type 1, BuildingBlock: KUMJIN_clean_sbu_0, # of connection points: 6
#     Node 10, Type 1, BuildingBlock: KUMJIN_clean_sbu_0, # of connection points: 6
#     Node 11, Type 1, BuildingBlock: KUMJIN_clean_sbu_0, # of connection points: 6
#     Edge 12, Type (0, 1), BuildingBlock: CIFDUS_clean_linker_0, # of connection points: 2
#     Edge 13, Type (0, 1), BuildingBlock: CIFDUS_clean_linker_0, # of connection points: 2
#     Edge 14, Type (0, 1), BuildingBlock: CIFDUS_clean_linker_0, # of connection points: 2
#     Edge 15, Type (0, 1), BuildingBlock: CIFDUS_clean_linker_0, # of connection points: 2
#     Edge 16, Type (0, 1), BuildingBlock: CIFDUS_clean_linker_0, # of connection points: 2
#     Edge 17, Type (0, 1), BuildingBlock: CIFDUS_clean_linker_0, # of connection points: 2
#     Edge 18, Type (0, 1), BuildingBlock: CIFDUS_clean_linker_0, # of connection points: 2
#     Edge 19, Type (0, 1), BuildingBlock: CIFDUS_clean_linker_0, # of connection points: 2
#     Edge 20, Type (0, 1), BuildingBlock: CIFDUS_clean_linker_0, # of connection points: 2
#     Edge 21, Type (0, 1), BuildingBlock: CIFDUS_clean_linker_0, # of connection points: 2
#     Edge 22, Type (0, 1), BuildingBlock: CIFDUS_clean_linker_0, # of connection points: 2
#     Edge 23, Type (0, 1), BuildingBlock: CIFDUS_clean_linker_0, # of connection points: 2
#     Edge 24, Type (0, 1), BuildingBlock: CIFDUS_clean_linker_0, # of connection points: 2
#     Edge 25, Type (0, 1), BuildingBlock: CIFDUS_clean_linker_0, # of connection points: 2
#     Edge 26, Type (0, 1), BuildingBlock: CIFDUS_clean_linker_0, # of connection points: 2
#     Edge 27, Type (0, 1), BuildingBlock: CIFDUS_clean_linker_0, # of connection points: 2
#     Edge 28, Type (0, 1), BuildingBlock: CIFDUS_clean_linker_0, # of connection points: 2
#     Edge 29, Type (0, 1), BuildingBlock: CIFDUS_clean_linker_0, # of connection points: 2
#     Edge 30, Type (0, 1), BuildingBlock: CIFDUS_clean_linker_0, # of connection points: 2
#     Edge 31, Type (0, 1), BuildingBlock: CIFDUS_clean_linker_0, # of connection points: 2
#     Edge 32, Type (0, 1), BuildingBlock: CIFDUS_clean_linker_0, # of connection points: 2
#     Edge 33, Type (0, 1), BuildingBlock: CIFDUS_clean_linker_0, # of connection points: 2
#     Edge 34, Type (0, 1), BuildingBlock: CIFDUS_clean_linker_0, # of connection points: 2
#     Edge 35, Type (0, 1), BuildingBlock: CIFDUS_clean_linker_0, # of connection points: 2
# Relax obj value: 0.305
# Max RMSD: 0.209
# Mean RMSD: 0.204
data_MOF--net-zzz--node1-KUMJIN_clean_sbu_0--node2-BELTOD_clean_linker_0--edge1-CIFDUS_clean_linker_0
_symmetry_space_group_name_H-M    P1
_symmetry_Int_Tables_number       1
_symmetry_cell_setting            triclinic
loop_
_symmetry_equiv_pos_as_xyz
'x, y, z'
_cell_length_a     47.812605
_cell_length_b     47.699131
_cell_length_c     16.569141
_cell_angle_alpha  90.631356
_cell_angle_beta   90.038472
_cell_angle_gamma 89.958955
loop_
_atom_site_label
_atom_site_type_symbol
_atom_site_fract_x
_atom_site_fract_y
_atom_site_fract_z
_atom_type_partial_charge
P0 P 0.74392 0.50571 0.17373 0.0
H1 H 0.76773 0.45995 0.2691 0.0
H2 H 0.80422 0.45976 0.37227 0.0
H3 H 0.79737 0.54957 0.39667 0.0
H4 H 0.75973 0.54957 0.29525 0.0
H5 H 0.70381 0.45975 0.15913 0.0
H6 H 0.65722 0.45791 0.10101 0.0
H7 H 0.65291 0.54837 0.10766 0.0
H8 H 0.70017 0.54998 0.16562 0.0
H9 H 0.79562 0.53913 0.18124 0.0
H10 H 0.72473 0.5305 0.02149 0.0
O11 O 0.75474 0.47676 0.1255 0.0
H12 H 0.81832 0.5686 0.08624 0.0
H13 H 0.74819 0.55999 0.92326 0.0
C14 C 0.76125 0.50488 0.2723 0.0
C15 C 0.7732 0.47959 0.2984 0.0
C16 C 0.79433 0.47948 0.35737 0.0
C17 C 0.80431 0.50472 0.39124 0.0
C18 C 0.79053 0.5298 0.37069 0.0
C19 C 0.7687 0.52976 0.31335 0.0
C20 C 0.70589 0.50499 0.16594 0.0
C21 C 0.69261 0.47925 0.15078 0.0
C22 C 0.66576 0.47824 0.11691 0.0
C23 C 0.65123 0.50302 0.0976 0.0
C24 C 0.6636 0.52884 0.1197 0.0
C25 C 0.69052 0.52978 0.15434 0.0
C26 C 0.7575 0.53358 0.11182 0.0
C27 C 0.78389 0.54498 0.12843 0.0
C28 C 0.79712 0.56206 0.07281 0.0
C29 C 0.78495 0.56719 0.99698 0.0
C30 C 0.75792 0.5569 0.98154 0.0
C31 C 0.74445 0.54004 0.03817 0.0
P32 P 0.00749 0.76192 0.18756 0.0
H33 H 0.05327 0.76773 0.30552 0.0
H34 H 0.06115 0.80463 0.40582 0.0
H35 H 0.97401 0.82789 0.39228 0.0
H36 H 0.96599 0.78977 0.29588 0.0
H37 H 0.99735 0.73813 0.02934 0.0
H38 H 0.99754 0.69125 0.97199 0.0
H39 H 0.01407 0.65729 0.20755 0.0
H40 H 0.01296 0.70524 0.26617 0.0
H41 H 0.00625 0.82129 0.16117 0.0
H42 H 0.95215 0.75113 0.10751 0.0
O43 O 0.03811 0.77099 0.14717 0.0
H44 H 0.97686 0.85146 0.08079 0.0
H45 H 0.9236 0.7812 0.02008 0.0
C46 C 0.00914 0.776 0.29086 0.0
C47 C 0.03549 0.77977 0.32688 0.0
C48 C 0.04011 0.80158 0.38325 0.0
C49 C 0.01855 0.8205 0.40501 0.0
C50 C 0.99137 0.81429 0.37692 0.0
C51 C 0.98671 0.79212 0.32146 0.0
C52 C 1.00355 0.72549 0.15333 0.0
C53 C 0.99977 0.72069 0.07003 0.0
C54 C 1.00011 0.69364 0.03667 0.0
C55 C 1.0053 0.67018 0.08484 0.0
C56 C 0.0097 0.67482 0.1685 0.0
C57 C 0.00883 0.70222 0.20242 0.0
C58 C 0.98217 0.78375 0.13737 0.0
C59 C 0.98782 0.81242 0.13262 0.0
C60 C 0.97067 0.82976 0.08756 0.0
C61 C 0.94779 0.81867 0.04439 0.0
C62 C 0.94094 0.79025 0.05337 0.0
C63 C 0.95764 0.77301 0.10175 0.0
P64 P 0.76249 1.00153 0.19967 0.0
H65 H 0.75153 0.0485 0.3098 0.0
H66 H 0.71303 0.05677 0.40332 0.0
H67 H 0.69235 0.96877 0.3946 0.0
H68 H 0.73178 0.96044 0.30232 0.0
H69 H 0.80575 0.04463 0.19135 0.0
H70 H 0.85277 0.04332 0.1362 0.0
H71 H 0.85118 0.95284 0.13844 0.0
H72 H 0.80365 0.95437 0.19513 0.0
H73 H 0.70469 0.98346 0.18177 0.0
H74 H 0.78286 0.96777 0.05919 0.0
O75 O 0.75482 0.03182 0.15514 0.0
H76 H 0.67983 0.96344 0.07075 0.0
H77 H 0.75797 0.94615 0.94826 0.0
C78 C 0.74423 1.00398 0.29653 0.0
C79 C 0.73952 0.03069 0.3302 0.0
C80 C 0.7171 0.03548 0.38316 0.0
C81 C 0.69873 0.01365 0.40427 0.0
C82 C 0.70574 0.98619 0.3791 0.0
C83 C 0.72848 0.98138 0.32633 0.0
C84 C 0.80061 0.9996 0.19545 0.0
C85 C 0.81568 0.02441 0.18269 0.0
C86 C 0.84277 0.02363 0.15059 0.0
C87 C 0.85569 0.99794 0.1305 0.0
C88 C 0.84168 0.97301 0.1512 0.0
C89 C 0.8146 0.97387 0.1849 0.0
C90 C 0.74603 0.97636 0.13222 0.0
C91 C 0.71686 0.97383 0.13402 0.0
C92 C 0.70242 0.96217 0.0689 0.0
C93 C 0.71671 0.95339 0.99858 0.0
C94 C 0.74612 0.95307 1.00045 0.0
C95 C 0.76057 0.96515 0.0655 0.0
P96 P 0.50791 0.79189 0.27433 0.0
H97 H 0.48749 0.77629 0.43511 0.0
H98 H 0.49408 0.73404 0.51422 0.0
H99 H 0.56245 0.70945 0.35875 0.0
H100 H 0.55635 0.75216 0.28163 0.0
H101 H 0.47959 0.84506 0.24851 0.0
H102 H 0.49221 0.88527 0.16945 0.0
H103 H 0.5778 0.85658 0.16095 0.0
H104 H 0.565 0.81605 0.24362 0.0
H105 H 0.46526 0.76254 0.17895 0.0
H106 H 0.55373 0.77941 0.16037 0.0
O107 O 0.47411 0.79622 0.29677 0.0
H108 H 0.46829 0.73165 0.06165 0.0
H109 H 0.55672 0.74872 0.04279 0.0
C110 C 0.52107 0.76767 0.35071 0.0
C111 C 0.50451 0.76233 0.41908 0.0
C112 C 0.50799 0.73769 0.4639 0.0
C113 C 0.52827 0.71755 0.44208 0.0
C114 C 0.54646 0.72415 0.37787 0.0
C115 C 0.54298 0.74888 0.33315 0.0
C116 C 0.52115 0.82684 0.25169 0.0
C117 C 0.50141 0.84768 0.23308 0.0
C118 C 0.50867 0.87096 0.18692 0.0
C119 C 0.53595 0.87412 0.15687 0.0
C120 C 0.5564 0.85458 0.18144 0.0
C121 C 0.54912 0.83138 0.22924 0.0
C122 C 0.50925 0.77331 0.17921 0.0
C123 C 0.48518 0.76033 0.14859 0.0
C124 C 0.48688 0.74289 0.0807 0.0
C125 C 0.51277 0.73792 0.04295 0.0
C126 C 0.53651 0.75233 0.07058 0.0
C127 C 0.53474 0.7699 0.13813 0.0
P128 P 0.28764 0.44815 0.05711 0.0
H129 H 0.26898 0.42787 0.89822 0.0
H130 H 0.23048 0.44272 0.81232 0.0
H131 H 0.22234 0.51882 0.95359 0.0
H132 H 0.26101 0.50377 0.0399 0.0
H133 H 0.33641 0.42003 0.12204 0.0
H134 H 0.37725 0.43585 0.19626 0.0
H135 H 0.35199 0.52188 0.16176 0.0
H136 H 0.31137 0.50563 0.08343 0.0
H137 H 0.23867 0.41372 0.08729 0.0
H138 H 0.2796 0.48474 0.19914 0.0
O139 O 0.29303 0.41473 0.0303 0.0
H140 H 0.19729 0.42234 0.17043 0.0
H141 H 0.23846 0.4939 0.27997 0.0
C142 C 0.26843 0.46478 0.97558 0.0
C143 C 0.25972 0.44825 0.90941 0.0
C144 C 0.23725 0.45657 0.86071 0.0
C145 C 0.22284 0.48176 0.87657 0.0
C146 C 0.23293 0.49933 0.93913 0.0
C147 C 0.25537 0.49087 0.98825 0.0
C148 C 0.32078 0.46156 0.09574 0.0
C149 C 0.3399 0.44237 0.12824 0.0
C150 C 0.3632 0.45149 0.17232 0.0
C151 C 0.36793 0.48021 0.18695 0.0
C152 C 0.34929 0.49958 0.15168 0.0
C153 C 0.32597 0.49034 0.1065 0.0
C154 C 0.26238 0.4484 0.13734 0.0
C155 C 0.2392 0.4305 0.13184 0.0
C156 C 0.21544 0.43564 0.17875 0.0
C157 C 0.21442 0.45902 0.23112 0.0
C158 C 0.23857 0.47551 0.24107 0.0
C159 C 0.26228 0.4703 0.19436 0.0
P160 P 0.0714 0.27496 0.11087 0.0
H161 H 0.06848 0.268 0.93413 0.0
H162 H 0.05449 0.22846 0.84966 0.0
H163 H 0.01791 0.18868 0.05755 0.0
H164 H 0.03063 0.22938 0.14066 0.0
H165 H 0.06515 0.33588 0.08802 0.0
H166 H 0.05369 0.37414 0.18222 0.0
H167 H 0.029 0.31381 0.36029 0.0
H168 H 0.03928 0.2755 0.26447 0.0
H169 H 0.09123 0.21665 0.09651 0.0
H170 H 0.09739 0.28353 0.27242 0.0
O171 O 0.09565 0.29056 0.05457 0.0
H172 H 0.10101 0.18273 0.19881 0.0
H173 H 0.10956 0.24967 0.37586 0.0
C174 C 0.05086 0.25189 0.04448 0.0
C175 C 0.05654 0.25131 0.96131 0.0
C176 C 0.04897 0.22813 0.91298 0.0
C177 C 0.03586 0.20442 0.94643 0.0
C178 C 0.02798 0.2062 0.02857 0.0
C179 C 0.03508 0.22976 0.0766 0.0
C180 C 0.05361 0.30255 0.16912 0.0
C181 C 0.05634 0.33075 0.14618 0.0
C182 C 0.04986 0.35274 0.20038 0.0
C183 C 0.04089 0.34709 0.27941 0.0
C184 C 0.03616 0.31891 0.30021 0.0
C185 C 0.04189 0.29694 0.2451 0.0
C186 C 0.09026 0.25225 0.17892 0.0
C187 C 0.09495 0.22415 0.15744 0.0
C188 C 0.10135 0.20461 0.21655 0.0
C189 C 0.10428 0.21305 0.29797 0.0
C190 C 0.10549 0.24205 0.31521 0.0
C191 C 0.09843 0.26154 0.25598 0.0
P192 P 0.24505 0.08222 0.07303 0.0
H193 H 0.25967 0.07567 0.90079 0.0
H194 H 0.29961 0.05343 0.83448 0.0
H195 H 0.32285 0.01561 0.06095 0.0
H196 H 0.28198 0.03638 0.12459 0.0
H197 H 0.19444 0.11319 0.11051 0.0
H198 H 0.15297 0.10273 0.18896 0.0
H199 H 0.18027 0.01674 0.21039 0.0
H200 H 0.22253 0.02783 0.1324 0.0
H201 H 0.29452 0.11788 0.08047 0.0
H202 H 0.24441 0.07051 0.24684 0.0
O203 O 0.23922 0.10975 0.01397 0.0
H204 H 0.33175 0.12129 0.18137 0.0
H205 H 0.28127 0.07277 0.34541 0.0
C206 C 0.26758 0.05781 0.01805 0.0
C207 C 0.27277 0.06173 0.93548 0.0
C208 C 0.29616 0.04938 0.89782 0.0
C209 C 0.31531 0.03303 0.94203 0.0
C210 C 0.30884 0.02771 0.02367 0.0
C211 C 0.28519 0.03965 0.0607 0.0
C212 C 0.21146 0.07119 0.11359 0.0
C213 C 0.19122 0.09183 0.12989 0.0
C214 C 0.16732 0.08577 0.17526 0.0
C215 C 0.16291 0.05882 0.2066 0.0
C216 C 0.18291 0.03784 0.1882 0.0
C217 C 0.20696 0.04399 0.14242 0.0
C218 C 0.26667 0.09391 0.1558 0.0
C219 C 0.29106 0.10917 0.13971 0.0
C220 C 0.31245 0.11085 0.19724 0.0
C221 C 0.30987 0.09691 0.27132 0.0
C222 C 0.28415 0.08411 0.28979 0.0
C223 C 0.26284 0.08259 0.23259 0.0
P224 P 0.45141 0.22769 0.01861 0.0
H225 H 0.45699 0.23813 0.84452 0.0
H226 H 0.47691 0.27773 0.77279 0.0
H227 H 0.51662 0.30609 0.99333 0.0
H228 H 0.49744 0.26579 0.06364 0.0
H229 H 0.42453 0.17475 0.05589 0.0
H230 H 0.43655 0.13636 0.14537 0.0
H231 H 0.51706 0.1743 0.19071 0.0
H232 H 0.50479 0.21296 0.10017 0.0
H233 H 0.42785 0.2833 1.00278 0.0
H234 H 0.44486 0.22634 0.19717 0.0
O235 O 0.42494 0.21819 0.95859 0.0
H236 H 0.42538 0.32193 0.09784 0.0
H237 H 0.44005 0.26458 0.29425 0.0
C238 C 0.47563 0.24874 0.95985 0.0
C239 C 0.47089 0.2522 0.8769 0.0
C240 C 0.48193 0.27533 0.83606 0.0
C241 C 0.49786 0.29585 0.87727 0.0
C242 C 0.50459 0.29092 0.95886 0.0
C243 C 0.49376 0.26758 0.9994 0.0
C244 C 0.46398 0.19656 0.06953 0.0
C245 C 0.4451 0.17456 0.08321 0.0
C246 C 0.45185 0.1527 0.13547 0.0
C247 C 0.47769 0.15225 0.17594 0.0
C248 C 0.49706 0.17382 0.16006 0.0
C249 C 0.49015 0.19591 0.10793 0.0
C250 C 0.43778 0.25219 0.09225 0.0
C251 C 0.42986 0.2789 0.06653 0.0
C252 C 0.42819 0.3011 0.12173 0.0
C253 C 0.4336 0.29678 0.2043 0.0
C254 C 0.43709 0.26902 0.23089 0.0
C255 C 0.43964 0.24695 0.17517 0.0
Eu256 Eu 0.04474 0.01015 0.75789 0.0
C257 C 0.93699 0.97197 0.57203 0.0
C258 C 0.95271 0.94116 0.46415 0.0
C259 C 0.90687 0.93425 0.52369 0.0
C260 C 0.95747 0.96396 0.51757 0.0
C261 C 0.91123 0.95755 0.5746 0.0
C262 C 0.92757 0.92606 0.46859 0.0
C263 C 0.89508 0.99153 0.67322 0.0
N264 N 0.94175 0.99456 0.62032 0.0
C265 C 0.92085 1.00519 0.6682 0.0
C266 C 0.89036 0.96737 0.62696 0.0
Eu267 Eu 0.9864 0.01605 0.61208 0.0
N268 N 0.98171 0.97885 0.51522 0.0
C269 C 1.00115 0.97299 0.45673 0.0
C270 C 0.97319 0.93436 0.40709 0.0
C271 C 0.99735 0.95057 0.4028 0.0
H272 H 0.92453 0.02378 0.70463 0.0
H273 H 0.01318 0.94572 0.35811 0.0
H274 H 0.92373 0.90833 0.42866 0.0
H275 H 0.87893 0.99959 0.71289 0.0
H276 H 0.02011 0.9849 0.45139 0.0
H277 H 0.01677 0.07063 0.03088 0.0
H278 H 0.97039 0.91693 0.36538 0.0
H279 H 0.11085 1.00417 0.69058 0.0
H280 H 0.01468 0.03121 0.93591 0.0
H281 H 0.15364 0.03298 0.68018 0.0
H282 H 0.88733 0.92276 0.52533 0.0
H283 H 0.05318 0.10698 0.01623 0.0
H284 H 0.0966 0.12319 0.94584 0.0
H285 H 0.87035 0.95683 0.63076 0.0
H286 H 0.13408 0.11317 0.84796 0.0
N287 N 0.04748 0.04603 0.86027 0.0
C288 C 0.02983 0.04731 0.92521 0.0
C289 C 0.05194 0.08989 0.97273 0.0
C290 C 0.07166 0.08708 0.91101 0.0
C291 C 0.03135 0.06948 0.98103 0.0
C292 C 0.06902 0.06445 0.85575 0.0
H293 H 0.15592 0.07914 0.7496 0.0
N294 N 0.08816 0.03493 0.7571 0.0
C295 C 0.13574 0.0408 0.71347 0.0
C296 C 0.08998 0.05886 0.80133 0.0
C297 C 0.11141 0.02467 0.71869 0.0
C298 C 0.13691 0.06684 0.75251 0.0
C299 C 0.11426 0.07569 0.79976 0.0
O300 O 0.0774 0.98155 0.79846 0.0
O301 O 0.01605 0.98737 0.67274 0.0
O302 O 0.97195 0.99057 0.7195 0.0
O303 O 1.00143 0.00798 0.81935 0.0
O304 O 0.057 0.97434 0.67137 0.0
O305 O 0.03782 0.98287 0.86091 0.0
O306 O 0.95357 0.04473 0.57476 0.0
O307 O 0.0153 0.03954 0.6967 0.0
O308 O 0.06289 0.02698 0.64111 0.0
O309 O 0.02793 0.02017 0.54409 0.0
O310 O 0.97349 0.05064 0.7001 0.0
O311 O 0.99114 0.04054 0.50233 0.0
C312 C 0.0325 0.96949 0.64195 0.0
C313 C 0.05792 0.93844 0.83343 0.0
C314 C 0.02903 0.89776 0.79836 0.0
C315 C 0.03176 0.92666 0.81398 0.0
C316 C 0.05347 0.88113 0.79742 0.0
C317 C 0.0818 0.92143 0.83269 0.0
C318 C 0.07958 0.89298 0.81372 0.0
C319 C 0.97765 0.99594 0.79624 0.0
C320 C 0.06078 0.96878 0.84791 0.0
C321 C 0.11585 0.0997 0.84932 0.0
C322 C 0.09457 0.10536 0.90517 0.0
C323 C 0.9979 0.05641 0.7284 0.0
C324 C 0.97019 0.0856 0.5151 0.0
C325 C 0.99595 0.09955 0.52432 0.0
C326 C 0.99705 0.12904 0.52475 0.0
C327 C 0.97183 0.14423 0.51847 0.0
C328 C 0.94546 0.1012 0.50871 0.0
C329 C 0.9463 0.13036 0.51103 0.0
C330 C 0.05406 0.02598 0.56534 0.0
C331 C 0.96828 0.05486 0.51588 0.0
H332 H 0.01348 0.94003 0.81162 0.0
H333 H 0.0525 0.85869 0.7878 0.0
H334 H 0.1022 0.93024 0.84587 0.0
H335 H 0.0981 0.87991 0.81342 0.0
H336 H 0.01505 0.08753 0.53067 0.0
H337 H 0.97177 0.1669 0.51628 0.0
H338 H 0.92544 0.09076 0.5024 0.0
H339 H 0.92712 0.14228 0.50571 0.0
Eu340 Eu 0.50831 0.05354 0.73236 0.0
C341 C 0.55181 0.93503 0.61677 0.0
C342 C 0.58265 0.94379 0.50412 0.0
C343 C 0.59047 0.90321 0.58853 0.0
C344 C 0.55956 0.95153 0.55267 0.0
C345 C 0.56672 0.91027 0.6342 0.0
C346 C 0.59844 0.91996 0.5236 0.0
C347 C 0.53196 0.89978 0.73514 0.0
N348 N 0.5287 0.94229 0.65925 0.0
C349 C 0.51788 0.92448 0.71541 0.0
C350 C 0.55677 0.89287 0.69529 0.0
Eu351 Eu 0.50643 0.98513 0.62635 0.0
N352 N 0.54384 0.97446 0.5356 0.0
C353 C 0.54898 0.98923 0.4668 0.0
C354 C 0.58885 0.95987 0.43646 0.0
C355 C 0.57169 0.98244 0.41714 0.0
H356 H 0.49882 0.92994 0.74701 0.0
H357 H 0.57596 0.99471 0.36399 0.0
H358 H 0.61642 0.91393 0.4876 0.0
H359 H 0.52375 0.88621 0.78136 0.0
H360 H 0.53611 1.00665 0.44957 0.0
H361 H 0.43524 0.04857 0.98649 0.0
H362 H 0.60646 0.9547 0.3979 0.0
H363 H 0.51658 0.10464 0.59708 0.0
H364 H 0.47492 0.03369 0.90286 0.0
H365 H 0.49267 0.14794 0.55392 0.0
H366 H 0.60238 0.88446 0.60156 0.0
H367 H 0.40753 0.0902 0.94897 0.0
H368 H 0.40014 0.13044 0.85522 0.0
H369 H 0.56764 0.87371 0.71057 0.0
H370 H 0.41544 0.1572 0.73712 0.0
N371 N 0.47008 0.06616 0.817 0.0
C372 C 0.46338 0.05194 0.88545 0.0
C373 C 0.42512 0.0838 0.91189 0.0
C374 C 0.43259 0.09892 0.84336 0.0
C375 C 0.44073 0.06033 0.9333 0.0
C376 C 0.45561 0.08959 0.79686 0.0
H377 H 0.44986 0.1639 0.62457 0.0
N378 N 0.48693 0.09566 0.68892 0.0
C379 C 0.48438 0.13595 0.60354 0.0
C380 C 0.46418 0.10468 0.73054 0.0
C381 C 0.49787 0.11149 0.62819 0.0
C382 C 0.46019 0.14484 0.64345 0.0
C383 C 0.45005 0.12944 0.70862 0.0
O384 O 0.5379 0.08769 0.74967 0.0
O385 O 0.5336 0.01975 0.67142 0.0
O386 O 0.52891 0.97902 0.74634 0.0
O387 O 0.51236 0.0171 0.82195 0.0
O388 O 0.54411 0.0603 0.64312 0.0
O389 O 0.52797 0.06041 0.84974 0.0
O390 O 0.47721 0.95078 0.60539 0.0
O391 O 0.4818 0.01822 0.69042 0.0
O392 O 0.48215 0.05727 0.61939 0.0
O393 O 0.50288 0.02274 0.53985 0.0
O394 O 0.4708 0.97772 0.71633 0.0
O395 O 0.48259 0.98237 0.51396 0.0
C396 C 0.55067 0.03438 0.63194 0.0
C397 C 0.57475 0.0744 0.83167 0.0
C398 C 0.61428 0.04229 0.82297 0.0
C399 C 0.58544 0.04727 0.8195 0.0
C400 C 0.63243 0.06514 0.83677 0.0
C401 C 0.59302 0.09687 0.84522 0.0
C402 C 0.62181 0.09222 0.84746 0.0
C403 C 0.52382 0.99169 0.81647 0.0
C404 C 0.54484 0.07957 0.82172 0.0
C405 C 0.42666 0.13833 0.75329 0.0
C406 C 0.41797 0.12311 0.82057 0.0
C407 C 0.46456 1.00365 0.72934 0.0
C408 C 0.43644 0.9671 0.54354 0.0
C409 C 0.42522 0.99378 0.52789 0.0
C410 C 0.39655 0.99906 0.53845 0.0
C411 C 0.37922 0.97744 0.56656 0.0
C412 C 0.41866 0.94572 0.57026 0.0
C413 C 0.39026 0.95097 0.5822 0.0
C414 C 0.48878 0.04661 0.54812 0.0
C415 C 0.46686 0.96213 0.54085 0.0
H416 H 0.57129 0.03004 0.80715 0.0
H417 H 0.65479 0.06206 0.84204 0.0
H418 H 0.58503 0.11799 0.85297 0.0
H419 H 0.63593 0.10958 0.85828 0.0
H420 H 0.43875 0.01058 0.50821 0.0
H421 H 0.35694 0.98068 0.57401 0.0
H422 H 0.42689 0.92511 0.58359 0.0
H423 H 0.37671 0.93441 0.60323 0.0
Eu424 Eu 0.5402 0.50049 0.59315 0.0
C425 C 0.41641 0.47185 0.67263 0.0
C426 C 0.38867 0.49583 0.57235 0.0
C427 C 0.37184 0.45224 0.62898 0.0
C428 C 0.41297 0.4941 0.62067 0.0
C429 C 0.3956 0.45098 0.67856 0.0
C430 C 0.3684 0.4746 0.57589 0.0
C431 C 0.42228 0.43012 0.78623 0.0
N432 N 0.43961 0.47109 0.71954 0.0
C433 C 0.44226 0.45127 0.77831 0.0
C434 C 0.399 0.42975 0.73541 0.0
Eu435 Eu 0.47316 0.50721 0.70154 0.0
N436 N 0.43308 0.51422 0.61806 0.0
C437 C 0.42929 0.53731 0.57098 0.0
C438 C 0.38532 0.51895 0.52217 0.0
C439 C 0.40561 0.53988 0.5221 0.0
H440 H 0.46038 0.45138 0.81745 0.0
H441 H 0.40316 0.55794 0.48376 0.0
H442 H 0.34978 0.4755 0.53868 0.0
H443 H 0.42489 0.41408 0.83135 0.0
H444 H 0.44468 0.55359 0.56807 0.0
H445 H 0.61247 0.44964 0.8065 0.0
H446 H 0.36708 0.52094 0.48383 0.0
H447 H 0.55532 0.55141 0.46274 0.0
H448 H 0.57089 0.45314 0.72326 0.0
H449 H 0.59198 0.58694 0.43975 0.0
H450 H 0.35577 0.43628 0.63219 0.0
H451 H 0.64839 0.48673 0.80367 0.0
H452 H 0.66574 0.53136 0.74417 0.0
H453 H 0.38351 0.41336 0.74169 0.0
H454 H 0.66019 0.56884 0.64482 0.0
N455 N 0.58116 0.49316 0.67397 0.0
C456 C 0.58561 0.47002 0.72061 0.0
C457 C 0.62982 0.48863 0.76656 0.0
C458 C 0.62623 0.51137 0.71521 0.0
C459 C 0.60961 0.46768 0.7683 0.0
C460 C 0.60152 0.51299 0.66851 0.0
H461 H 0.63311 0.58938 0.53017 0.0
N462 N 0.57519 0.53441 0.56626 0.0
C463 C 0.59399 0.57239 0.48908 0.0
C464 C 0.59837 0.53427 0.61324 0.0
C465 C 0.57331 0.55226 0.50226 0.0
C466 C 0.61709 0.57375 0.54042 0.0
C467 C 0.61981 0.55423 0.60239 0.0
O468 O 0.56309 0.49399 0.4805 0.0
O469 O 0.49389 0.4974 0.58533 0.0
O470 O 0.48073 0.46192 0.66584 0.0
O471 O 0.52917 0.45993 0.66148 0.0
O472 O 0.51283 0.51618 0.48907 0.0
O473 O 0.54212 0.45912 0.5349 0.0
O474 O 0.45537 0.50771 0.82211 0.0
O475 O 0.51979 0.5123 0.70977 0.0
O476 O 0.5318 0.54744 0.61057 0.0
O477 O 0.48456 0.54976 0.64621 0.0
O478 O 0.50078 0.49257 0.8053 0.0
O479 O 0.45872 0.54653 0.75626 0.0
C480 C 0.48921 0.5076 0.51687 0.0
C481 C 0.538 0.46399 0.39275 0.0
C482 C 0.50015 0.44119 0.31745 0.0
C483 C 0.51586 0.44464 0.38869 0.0
C484 C 0.50641 0.45797 0.25056 0.0
C485 C 0.54419 0.48011 0.3245 0.0
C486 C 0.5283 0.47726 0.25425 0.0
C487 C 0.50439 0.44783 0.67174 0.0
C488 C 0.55333 0.46886 0.46932 0.0
C489 C 0.64369 0.55348 0.65157 0.0
C490 C 0.64687 0.53211 0.70799 0.0
C491 C 0.52416 0.50204 0.77859 0.0
C492 C 0.46946 0.547 0.89675 0.0
C493 C 0.48654 0.57069 0.88861 0.0
C494 C 0.50125 0.58161 0.95517 0.0
C495 C 0.49977 0.56767 0.02951 0.0
C496 C 0.46785 0.53369 0.97188 0.0
C497 C 0.48323 0.54379 0.03751 0.0
C498 C 0.50823 0.56167 0.6219 0.0
C499 C 0.45471 0.53491 0.82651 0.0
H500 H 0.51071 0.4323 0.44114 0.0
H501 H 0.49505 0.45555 0.19434 0.0
H502 H 0.56107 0.49526 0.32577 0.0
H503 H 0.53316 0.48985 0.20213 0.0
H504 H 0.48817 0.58093 0.83074 0.0
H505 H 0.51041 0.57584 0.08244 0.0
H506 H 0.45494 0.51524 0.97956 0.0
H507 H 0.48191 0.5334 0.09515 0.0
Eu508 Eu 0.02258 0.54153 0.61246 0.0
C509 C 0.02402 0.41799 0.72746 0.0
C510 C 1.00189 0.39168 0.61938 0.0
C511 C 0.03634 0.36903 0.70441 0.0
C512 C 1.0055 0.41693 0.66363 0.0
C513 C 0.03925 0.3939 0.7497 0.0
C514 C 0.0177 0.36792 0.63935 0.0
C515 C 0.05752 0.42002 0.86365 0.0
N516 N 0.02635 0.44228 0.76995 0.0
C517 C 0.04202 0.4433 0.83926 0.0
C518 C 0.05643 0.39529 0.81804 0.0
Eu519 Eu 0.9993 0.48126 0.72655 0.0
N520 N 0.99064 0.44034 0.64564 0.0
C521 C 0.97107 0.43938 0.58534 0.0
C522 C 0.9824 0.39097 0.55655 0.0
C523 C 0.96682 0.41489 0.53985 0.0
H524 H 0.04306 0.46246 0.87463 0.0
H525 H 0.95161 0.41457 0.49142 0.0
H526 H 0.01539 0.3485 0.60544 0.0
H527 H 0.07034 0.4212 0.91744 0.0
H528 H 0.95891 0.45741 0.56976 0.0
H529 H 0.09939 0.5788 0.8435 0.0
H530 H 0.97916 0.37208 0.52085 0.0
H531 H 0.95728 0.57065 0.58469 0.0
H532 H 0.07425 0.54361 0.76838 0.0
H533 H 0.93365 0.61474 0.60751 0.0
H534 H 0.04805 0.3504 0.7201 0.0
H535 H 0.08258 0.6276 0.84662 0.0
H536 H 0.04527 0.66163 0.81268 0.0
H537 H 0.06842 0.37725 0.83704 0.0
H538 H 0.99951 0.67101 0.75208 0.0
N539 N 0.04545 0.57174 0.71163 0.0
C540 C 0.06772 0.56473 0.75991 0.0
C541 C 0.07207 0.61223 0.80872 0.0
C542 C 0.0477 0.61895 0.76697 0.0
C543 C 0.08168 0.5848 0.80676 0.0
C544 C 0.03458 0.59806 0.71861 0.0
H545 H 0.95758 0.65346 0.67892 0.0
N546 N 0.99505 0.58199 0.64636 0.0
C547 C 0.95469 0.61182 0.63013 0.0
C548 C 0.00856 0.60326 0.68535 0.0
C549 C 0.9684 0.58626 0.61833 0.0
C550 C 0.96832 0.63366 0.66977 0.0
C551 C 0.99544 0.62958 0.69841 0.0
O552 O 0.00865 0.5607 0.50041 0.0
O553 O 0.01028 0.4962 0.60444 0.0
O554 O 0.04733 0.48024 0.71982 0.0
O555 O 0.06315 0.5204 0.65304 0.0
O556 O 0.04413 0.50765 0.5359 0.0
O557 O 0.05164 0.56554 0.53874 0.0
O558 O 0.98812 0.46817 0.84794 0.0
O559 O 1.00114 0.52846 0.72508 0.0
O560 O 0.97938 0.5288 0.56488 0.0
O561 O 0.96106 0.49652 0.65511 0.0
O562 O 0.01637 0.50935 0.82733 0.0
O563 O 0.95547 0.47765 0.7634 0.0
C564 C 0.02853 0.48676 0.55578 0.0
C565 C 0.04224 0.56453 0.39797 0.0
C566 C 0.07113 0.53946 0.29931 0.0
C567 C 0.06275 0.54441 0.3796 0.0
C568 C 0.05823 0.55482 0.23735 0.0
C569 C 0.0296 0.57949 0.33543 0.0
C570 C 0.03752 0.57456 0.2555 0.0
C571 C 0.06767 0.49683 0.6935 0.0
C572 C 0.03337 0.56989 0.48165 0.0
C573 C 0.00926 0.65075 0.74206 0.0
C574 C 0.03534 0.64545 0.7763 0.0
C575 C 0.01032 0.53305 0.7956 0.0
C576 C 0.95144 0.49571 0.89721 0.0
C577 C 0.93524 0.51856 0.8714 0.0
C578 C 0.92671 0.53959 0.92632 0.0
C579 C 0.93605 0.53813 1.00693 0.0
C580 C 0.95997 0.49454 0.9782 0.0
C581 C 0.95264 0.51585 0.03228 0.0
C582 C 0.95822 0.51376 0.59321 0.0
C583 C 0.96198 0.47457 0.83911 0.0
H584 H 0.07214 0.53259 0.4279 0.0
H585 H 0.06448 0.55207 0.17497 0.0
H586 H 0.01359 0.59498 0.34849 0.0
H587 H 0.02772 0.58623 0.20753 0.0
H588 H 0.92914 0.51993 0.80861 0.0
H589 H 0.92954 0.55344 0.05181 0.0
H590 H 0.97279 0.47737 0.99931 0.0
H591 H 0.95941 0.51484 0.09454 0.0
H592 H 0.16105 0.02555 0.3407 0.0
H593 H 0.10928 0.08023 0.19821 0.0
H594 H 0.07105 0.07503 0.29455 0.0
H595 H 0.05244 0.05611 0.42374 0.0
H596 H 0.10374 0.99916 0.55885 0.0
H597 H 0.14158 1.00407 0.46199 0.0
C598 C 0.14131 0.036 0.32956 0.0
C599 C 0.13848 0.05345 0.26185 0.0
C600 C 0.1192 0.03286 0.38523 0.0
C601 C 0.11256 0.06704 0.25013 0.0
C602 C 0.09049 0.06398 0.30523 0.0
C603 C 0.07191 0.04479 0.43166 0.0
C604 C 0.07573 0.02831 0.501 0.0
C605 C 0.09363 0.04723 0.37381 0.0
C606 C 0.10087 0.01333 0.50922 0.0
C607 C 0.12239 0.01572 0.45274 0.0
H608 H 0.44294 0.13265 0.2932 0.0
H609 H 0.5261 0.1221 0.19701 0.0
H610 H 0.53611 0.0865 0.29859 0.0
H611 H 0.52178 0.05953 0.41913 0.0
H612 H 0.43967 0.07288 0.51953 0.0
H613 H 0.42846 0.10555 0.41146 0.0
C614 C 0.46317 0.12234 0.29375 0.0
C615 C 0.4837 0.13008 0.23706 0.0
C616 C 0.46889 0.10216 0.35311 0.0
C617 C 0.50997 0.11679 0.24005 0.0
C618 C 0.51565 0.0963 0.29798 0.0
C619 C 0.50127 0.0692 0.41611 0.0
C620 C 0.48137 0.06344 0.47637 0.0
C621 C 0.49535 0.0889 0.35525 0.0
C622 C 0.45518 0.07676 0.47332 0.0
C623 C 0.44884 0.09558 0.41178 0.0
H624 H 0.38775 0.45467 0.32312 0.0
H625 H 0.40173 0.52686 0.1736 0.0
H626 H 0.44004 0.54178 0.262 0.0
H627 H 0.47001 0.53425 0.38261 0.0
H628 H 0.45718 0.46043 0.52544 0.0
H629 H 0.41869 0.44597 0.43803 0.0
C630 C 0.3993 0.47351 0.3088 0.0
C631 C 0.39158 0.48951 0.24099 0.0
C632 C 0.42165 0.48177 0.3592 0.0
C633 C 0.40672 0.5142 0.22549 0.0
C634 C 0.42885 0.52268 0.27587 0.0
C635 C 0.45865 0.51508 0.39458 0.0
C636 C 0.46581 0.49904 0.46255 0.0
C637 C 0.43652 0.50667 0.34307 0.0
C638 C 0.45148 0.47378 0.47575 0.0
C639 C 0.42952 0.46537 0.42526 0.0
H640 H 0.01133 0.39668 0.27511 0.0
H641 H 0.06774 0.34948 0.42429 0.0
H642 H 0.06924 0.38806 0.5229 0.0
H643 H 0.05584 0.43641 0.56519 0.0
H644 H 0.99632 0.48195 0.42225 0.0
H645 H 0.99479 0.44336 0.32326 0.0
C646 C 0.02378 0.3948 0.32951 0.0
C647 C 0.03947 0.37013 0.34192 0.0
C648 C 0.02406 0.41697 0.38722 0.0
C649 C 0.05535 0.36806 0.4132 0.0
C650 C 0.05636 0.39025 0.46949 0.0
C651 C 0.04222 0.43759 0.51297 0.0
C652 C 0.02571 0.46173 0.50195 0.0
C653 C 0.04098 0.41493 0.45704 0.0
C654 C 0.00871 0.46332 0.43295 0.0
C655 C 0.00794 0.44128 0.37614 0.0
H656 H 0.8702 0.96426 1.0012 0.0
H657 H 0.90167 0.0316 0.15158 0.0
H658 H 0.94255 0.03596 0.06446 0.0
H659 H 0.96768 0.02327 0.93975 0.0
H660 H 0.93683 0.95585 0.78909 0.0
H661 H 0.89764 0.94894 0.88166 0.0
C662 C 0.88626 0.97951 0.01598 0.0
C663 C 0.88254 0.99769 0.08311 0.0
C664 C 0.90982 0.9821 0.96487 0.0
C665 C 0.90359 0.01756 0.10008 0.0
C666 C 0.92709 0.02005 0.0502 0.0
C667 C 0.95288 1.00657 0.92809 0.0
C668 C 0.95547 0.99004 0.85739 0.0
C669 C 0.93021 1.00282 0.98156 0.0
C670 C 0.93539 0.96903 0.84261 0.0
C671 C 0.91292 0.96504 0.89571 0.0
H672 H 0.51691 0.92846 0.14998 0.0
H673 H 0.56747 0.86842 0.0191 0.0
H674 H 0.57067 0.90054 0.90552 0.0
H675 H 0.55543 0.94399 0.83785 0.0
H676 H 0.50367 1.00306 0.96832 0.0
H677 H 0.50503 0.97341 0.08673 0.0
C678 C 0.5288 0.9224 0.0969 0.0
C679 C 0.54171 0.89576 0.09355 0.0
C680 C 0.53015 0.94082 0.03083 0.0
C681 C 0.55748 0.88874 0.02438 0.0
C682 C 0.5591 0.90705 0.95876 0.0
C683 C 0.54426 0.95032 0.89191 0.0
C684 C 0.52854 0.97543 0.89226 0.0
C685 C 0.54489 0.93285 0.96036 0.0
C686 C 0.51543 0.98375 0.96471 0.0
C687 C 0.51617 0.96669 0.03295 0.0
H688 H 0.63281 0.53749 0.97557 0.0
H689 H 0.60855 0.46499 0.11272 0.0
H690 H 0.56774 0.45846 0.02647 0.0
H691 H 0.53985 0.47168 0.90779 0.0
H692 H 0.56195 0.54536 0.77434 0.0
H693 H 0.60216 0.55338 0.86394 0.0
C694 C 0.61838 0.52055 0.98774 0.0
C695 C 0.6243 0.50152 0.05049 0.0
C696 C 0.59455 0.51696 0.93789 0.0
C697 C 0.60517 0.47962 0.06416 0.0
C698 C 0.58164 0.4759 0.0149 0.0
C699 C 0.55354 0.48947 0.89827 0.0
C700 C 0.5486 0.50725 0.83246 0.0
C701 C 0.5764 0.49407 0.95063 0.0
C702 C 0.56592 0.53076 0.82264 0.0
C703 C 0.58878 0.53546 0.87439 0.0
H704 H 0.97184 0.64636 0.9678 0.0
H705 H 0.04508 0.6297 0.11157 0.0
H706 H 0.05257 0.58566 0.03738 0.0
H707 H 0.03984 0.55286 0.92567 0.0
H708 H 0.96587 0.56899 0.78539 0.0
H709 H 0.95719 0.61195 0.86343 0.0
C710 C 0.9894 0.63307 0.98329 0.0
C711 C 0.00791 0.64164 0.04551 0.0
C712 C 0.99366 0.60771 0.93998 0.0
C713 C 0.03031 0.62375 0.06488 0.0
C714 C 0.03474 0.59857 0.02188 0.0
C715 C 0.02186 0.56586 0.91217 0.0
C716 C 1.0044 0.55852 0.8465 0.0
C717 C 0.01681 0.5905 0.95843 0.0
C718 C 0.98053 0.57494 0.83233 0.0
C719 C 0.97538 0.59938 0.87775 0.0
H720 H 0.07969 0.22245 0.44519 0.0
H721 H 0.11669 0.15609 0.30094 0.0
H722 H 0.08884 0.12168 0.37263 0.0
H723 H 0.04517 0.11313 0.44721 0.0
H724 H 0.01064 0.17921 0.59719 0.0
H725 H 0.04726 0.21098 0.55287 0.0
C726 C 0.08287 0.20047 0.43098 0.0
C727 C 0.09894 0.19228 0.3633 0.0
C728 C 0.0667 0.18074 0.47211 0.0
C729 C 0.10311 0.16338 0.34903 0.0
C730 C 0.0872 0.14356 0.39018 0.0
C731 C 0.04618 0.13409 0.47301 0.0
C732 C 0.02421 0.14425 0.52195 0.0
C733 C 0.06732 0.15234 0.44724 0.0
C734 C 0.02645 0.1713 0.55602 0.0
C735 C 0.04747 0.18948 0.531 0.0
H736 H 0.31325 0.09246 0.43572 0.0
H737 H 0.36314 0.08578 0.21905 0.0
H738 H 0.39844 0.05955 0.29151 0.0
H739 H 0.4086 0.02829 0.40358 0.0
H740 H 0.35636 0.03031 0.61583 0.0
H741 H 0.32833 0.06785 0.55752 0.0
C742 C 0.33207 0.08567 0.40465 0.0
C743 C 0.3349 0.09035 0.32127 0.0
C744 C 0.35149 0.06885 0.44522 0.0
C745 C 0.36004 0.08244 0.28294 0.0
C746 C 0.38017 0.06695 0.32408 0.0
C747 C 0.39165 0.03753 0.43831 0.0
C748 C 0.38411 0.02606 0.51301 0.0
C749 C 0.37512 0.05843 0.40338 0.0
C750 C 0.36211 0.03833 0.55723 0.0
C751 C 0.34612 0.05982 0.52398 0.0
H752 H 0.41326 0.35087 0.20171 0.0
H753 H 0.47233 0.29794 0.32653 0.0
H754 H 0.49461 0.33881 0.38484 0.0
H755 H 0.50421 0.38866 0.37647 0.0
H756 H 0.44916 0.44217 0.24055 0.0
H757 H 0.41928 0.40201 0.20837 0.0
C758 C 0.43089 0.34817 0.24206 0.0
C759 C 0.44134 0.32108 0.25736 0.0
C760 C 0.44501 0.37197 0.27168 0.0
C761 C 0.46347 0.31823 0.31298 0.0
C762 C 0.47669 0.34175 0.34572 0.0
C763 C 0.48522 0.39183 0.34192 0.0
C764 C 0.47915 0.41836 0.3102 0.0
C765 C 0.46863 0.36861 0.32185 0.0
C766 C 0.45459 0.42186 0.26459 0.0
C767 C 0.43746 0.39892 0.24633 0.0
H768 H 0.16397 0.45963 0.15607 0.0
H769 H 0.20437 0.48186 0.38092 0.0
H770 H 0.16273 0.50772 0.42355 0.0
H771 H 0.11768 0.5286 0.38931 0.0
H772 H 0.07612 0.50433 0.16759 0.0
H773 H 0.11584 0.47475 0.13105 0.0
C774 C 0.16342 0.46933 0.21554 0.0
C775 C 0.18742 0.46907 0.26484 0.0
C776 C 0.13954 0.48431 0.23937 0.0
C777 C 0.18637 0.48215 0.34124 0.0
C778 C 0.16259 0.49696 0.36558 0.0
C779 C 0.11679 0.51632 0.33395 0.0
C780 C 0.09397 0.51916 0.28079 0.0
C781 C 0.13945 0.49895 0.31391 0.0
C782 C 0.09369 0.50328 0.20872 0.0
C783 C 0.11629 0.48611 0.18806 0.0
H784 H 0.95035 0.80549 0.88642 0.0
H785 H 0.92241 0.87029 0.04992 0.0
H786 H 0.9407 0.90611 0.96056 0.0
H787 H 0.98105 0.91509 0.87508 0.0
H788 H 0.01219 0.84998 0.71541 0.0
H789 H 0.97625 0.81817 0.76393 0.0
C790 C 0.94662 0.82751 0.89972 0.0
C791 C 0.93693 0.83542 0.97673 0.0
C792 C 0.95934 0.84776 0.85122 0.0
C793 C 0.93087 0.86383 0.99198 0.0
C794 C 0.94199 0.8843 0.94172 0.0
C795 C 0.97944 0.89447 0.84744 0.0
C796 C 1.00087 0.8842 0.79655 0.0
C797 C 0.95908 0.87613 0.87677 0.0
C798 C 0.99727 0.85775 0.75945 0.0
C799 C 0.97654 0.83956 0.78667 0.0
H800 H 0.66286 0.93602 0.96678 0.0
H801 H 0.73546 0.97055 0.8494 0.0
H802 H 0.70581 0.99636 0.75858 0.0
H803 H 0.66203 0.02293 0.75211 0.0
H804 H 0.5911 0.99574 0.89175 0.0
H805 H 0.61644 0.95408 0.93245 0.0
C806 C 0.67219 0.94862 0.91983 0.0
C807 C 0.7013 0.95318 0.92006 0.0
C808 C 0.655 0.966 0.87342 0.0
C809 C 0.71311 0.96752 0.85432 0.0
C810 C 0.69607 0.98287 0.80264 0.0
C811 C 0.65195 0.00755 0.79006 0.0
C812 C 0.62534 0.01319 0.82225 0.0
C813 C 0.66736 0.98467 0.81821 0.0
C814 C 0.61186 0.99235 0.86749 0.0
C815 C 0.62647 0.96852 0.89152 0.0
H816 H 0.55093 0.69658 0.0524 0.0
H817 H 0.48023 0.72434 0.91253 0.0
H818 H 0.47449 0.67707 0.8565 0.0
H819 H 0.48194 0.62715 0.87662 0.0
H820 H 0.55076 0.59876 0.02354 0.0
H821 H 0.56513 0.64731 0.04725 0.0
C822 C 0.53504 0.69257 1.00697 0.0
C823 C 0.51561 0.71361 0.98774 0.0
C824 C 0.53108 0.66516 0.97831 0.0
C825 C 0.49508 0.70821 0.92904 0.0
C826 C 0.4917 0.6812 0.89756 0.0
C827 C 0.50075 0.63139 0.9112 0.0
C828 C 0.51478 0.60945 0.95035 0.0
C829 C 0.50838 0.65925 0.9262 0.0
C830 C 0.53911 0.61542 0.99495 0.0
C831 C 0.54735 0.64313 1.00833 0.0
H832 H 0.82408 0.60906 0.99589 0.0
H833 H 0.78888 0.54344 0.84668 0.0
H834 H 0.83419 0.53465 0.78617 0.0
H835 H 0.8835 0.53206 0.82072 0.0
H836 H 0.92 0.59425 0.98019 0.0
H837 H 0.87482 0.61766 0.99198 0.0
C838 C 0.82614 0.59383 0.94713 0.0
C839 C 0.80372 0.57558 0.93007 0.0
C840 C 0.85286 0.58717 0.91772 0.0
C841 C 0.80605 0.55707 0.8637 0.0
C842 C 0.83222 0.5516 0.82995 0.0
C843 C 0.8822 0.55149 0.855 0.0
C844 C 0.90472 0.56026 0.90397 0.0
C845 C 0.85601 0.56431 0.86351 0.0
C846 C 0.90251 0.58603 0.94577 0.0
C847 C 0.87667 0.59954 0.95229 0.0
H848 H 0.99451 0.16379 0.95694 0.0
H849 H 0.06964 0.18351 0.82458 0.0
H850 H 0.0648 0.14046 0.74587 0.0
H851 H 0.03981 0.09588 0.71487 0.0
H852 H 0.96592 0.0756 0.85068 0.0
H853 H 0.97011 0.1194 0.92778 0.0
C854 C 0.01006 0.15874 0.91153 0.0
C855 C 0.03227 0.17763 0.89724 0.0
C856 C 0.00758 0.13335 0.86693 0.0
C857 C 0.0518 0.17026 0.83657 0.0
C858 C 0.04925 0.14528 0.79152 0.0
C859 C 0.02495 0.10091 0.76229 0.0
C860 C 1.0031 0.08197 0.77887 0.0
C861 C 0.02734 0.12649 0.80632 0.0
C862 C 0.98331 0.08943 0.83808 0.0
C863 C 0.98562 0.1146 0.882 0.0
H864 H 0.34743 0.05746 0.8226 0.0
H865 H 0.34508 0.98498 0.97685 0.0
H866 H 0.39071 0.97041 0.9271 0.0
H867 H 0.43222 0.97835 0.84165 0.0
H868 H 0.43257 0.04781 0.67786 0.0
H869 H 0.38679 0.06286 0.72777 0.0
C870 C 0.35643 0.03815 0.84461 0.0
C871 C 0.34243 0.02276 0.90508 0.0
C872 C 0.38265 0.02929 0.81402 0.0
C873 C 0.35524 0.99796 0.9325 0.0
C874 C 0.38142 0.98936 0.90342 0.0
C875 C 0.42227 0.99684 0.81713 0.0
C876 C 0.43647 0.0127 0.7588 0.0
C877 C 0.39551 1.005 0.84491 0.0
C878 C 0.4228 0.03595 0.7254 0.0
C879 C 0.39639 0.0444 0.75344 0.0
H880 H 0.46698 0.32585 0.76847 0.0
H881 H 0.54543 0.32818 0.89739 0.0
H882 H 0.5554 0.37439 0.84192 0.0
H883 H 0.54061 0.41565 0.76191 0.0
H884 H 0.4624 0.41212 0.63228 0.0
H885 H 0.45404 0.3649 0.68138 0.0
C886 C 0.48661 0.33602 0.78332 0.0
C887 C 0.50532 0.32316 0.83763 0.0
C888 C 0.49233 0.36263 0.75083 0.0
C889 C 0.53031 0.33743 0.85694 0.0
C890 C 0.53615 0.36392 0.82475 0.0
C891 C 0.52208 0.4043 0.74291 0.0
C892 C 0.50219 0.41759 0.69325 0.0
C893 C 0.51717 0.37695 0.77228 0.0
C894 C 0.47805 0.40258 0.6706 0.0
C895 C 0.47318 0.37551 0.69885 0.0
H896 H 0.1797 0.44652 0.83651 0.0
H897 H 0.20596 0.53266 0.81702 0.0
H898 H 0.16173 0.54435 0.75075 0.0
H899 H 0.11471 0.53053 0.70304 0.0
H900 H 0.08791 0.44477 0.72875 0.0
H901 H 0.1334 0.43242 0.78475 0.0
C902 C 0.17599 0.4678 0.81676 0.0
C903 C 0.19637 0.48865 0.83192 0.0
C904 C 0.15027 0.47448 0.7796 0.0
C905 C 0.19073 0.51619 0.80695 0.0
C906 C 0.16542 0.52288 0.76863 0.0
C907 C 0.11863 0.50915 0.72123 0.0
C908 C 0.09713 0.4889 0.71474 0.0
C909 C 0.14485 0.50228 0.75547 0.0
C910 C 0.10342 0.4611 0.73593 0.0
C911 C 0.1296 0.45396 0.76768 0.0
H912 H 0.98624 0.85147 0.51496 0.0
H913 H 0.06564 0.85276 0.39058 0.0
H914 H 0.0767 0.89767 0.4528 0.0
H915 H 0.064 0.93784 0.53989 0.0
H916 H 0.98484 0.93796 0.6634 0.0
H917 H 0.9736 0.89199 0.60408 0.0
C918 C 0.00597 0.86148 0.50118 0.0
C919 C 0.02514 0.84793 0.44823 0.0
C920 C 0.01226 0.88802 0.5367 0.0
C921 C 0.05062 0.86173 0.43233 0.0
C922 C 0.05695 0.88781 0.46739 0.0
C923 C 0.0442 0.92784 0.55346 0.0
C924 C 0.02492 0.94187 0.604 0.0
C925 C 0.03795 0.90126 0.5193 0.0
C926 C 0.99969 0.92822 0.62251 0.0
C927 C 0.99336 0.90172 0.58903 0.0
H928 H 0.66999 0.98623 0.52687 0.0
H929 H 0.66374 0.05618 0.36462 0.0
H930 H 0.61818 0.06826 0.41974 0.0
H931 H 0.57949 0.05941 0.51298 0.0
H932 H 0.58463 0.99067 0.67836 0.0
H933 H 0.63078 0.97783 0.62397 0.0
C934 C 0.65867 1.00412 0.50371 0.0
C935 C 0.67081 0.02044 0.44201 0.0
C936 C 0.63205 0.0112 0.53623 0.0
C937 C 0.65554 0.04353 0.41307 0.0
C938 C 0.62923 0.05041 0.44422 0.0
C939 C 0.59068 0.04152 0.53684 0.0
C940 C 0.57823 0.02552 0.59793 0.0
C941 C 0.61726 0.03448 0.50569 0.0
C942 C 0.59332 1.00282 0.62957 0.0
C943 C 0.61985 0.99562 0.59878 0.0
H944 H 0.48468 0.68535 0.49859 0.0
H945 H 0.57468 0.68547 0.47796 0.0
H946 H 0.57654 0.63856 0.53535 0.0
H947 H 0.55263 0.59679 0.58921 0.0
H948 H 0.46274 0.5968 0.60907 0.0
H949 H 0.4611 0.64451 0.55828 0.0
C950 C 0.50482 0.67544 0.50767 0.0
C951 C 0.5295 0.68934 0.48294 0.0
C952 C 0.50582 0.64826 0.54111 0.0
C953 C 0.55523 0.67549 0.49466 0.0
C954 C 0.55636 0.64857 0.52815 0.0
C955 C 0.53262 0.60691 0.58108 0.0
C956 C 0.50779 0.59228 0.60008 0.0
C957 C 0.53176 0.63456 0.5507 0.0
C958 C 0.48224 0.60681 0.59332 0.0
C959 C 0.48125 0.63431 0.56412 0.0
H960 H 0.85188 0.53533 0.3701 0.0
H961 H 0.81565 0.47334 0.52533 0.0
H962 H 0.85931 0.47097 0.60291 0.0
H963 H 0.90867 0.4857 0.62463 0.0
H964 H 0.94529 0.54523 0.46103 0.0
H965 H 0.90107 0.54927 0.38988 0.0
C966 C 0.85342 0.52157 0.4216 0.0
C967 C 0.83029 0.5048 0.44233 0.0
C968 C 0.87894 0.51971 0.46453 0.0
C969 C 0.83299 0.48659 0.50818 0.0
C970 C 0.85804 0.48519 0.55249 0.0
C971 C 0.90703 0.4996 0.57353 0.0
C972 C 0.93062 0.51538 0.54963 0.0
C973 C 0.88133 0.50148 0.5309 0.0
C974 C 0.92776 0.53302 0.48233 0.0
C975 C 0.90232 0.53535 0.44103 0.0
loop_
_geom_bond_atom_site_label_1
_geom_bond_atom_site_label_2
_geom_bond_distance
_geom_bond_site_symmetry_2
_ccdc_geom_bond_type
P0 O11 1.490 . S
P0 C14 1.812 . S
P0 C20 1.803 . S
P0 C26 1.819 . S
H1 C15 0.941 . S
H2 C16 0.939 . S
H3 C18 0.940 . S
H4 C19 0.940 . S
H5 C21 0.939 . S
H6 C22 0.942 . S
H7 C24 0.940 . S
H8 C25 0.939 . S
H9 C27 0.941 . S
H10 C31 0.939 . S
O11 P0 1.490 . S
H12 C28 0.939 . S
H13 C30 0.940 . S
C14 P0 1.812 . S
C14 C15 1.389 . S
C14 C19 1.391 . S
C15 H1 0.941 . S
C15 C14 1.389 . S
C15 C16 1.397 . S
C16 H2 0.939 . S
C16 C15 1.397 . S
C16 C17 1.378 . S
C17 C16 1.378 . S
C17 C18 1.378 . S
C18 H3 0.940 . S
C18 C17 1.378 . S
C18 C19 1.396 . S
C19 H4 0.940 . S
C19 C14 1.391 . S
C19 C18 1.396 . S
C20 P0 1.803 . S
C20 C21 1.378 . S
C20 C25 1.400 . S
C21 H5 0.939 . S
C21 C20 1.378 . S
C21 C22 1.361 . S
C22 H6 0.942 . S
C22 C21 1.361 . S
C22 C23 1.369 . S
C23 C22 1.369 . S
C23 C24 1.404 . S
C24 H7 0.940 . S
C24 C23 1.404 . S
C24 C25 1.389 . S
C25 H8 0.939 . S
C25 C20 1.400 . S
C25 C24 1.389 . S
C26 P0 1.819 . S
C26 C27 1.391 . S
C26 C31 1.391 . S
C27 H9 0.941 . S
C27 C26 1.391 . S
C27 C28 1.396 . S
C28 H12 0.939 . S
C28 C27 1.396 . S
C28 C29 1.397 . S
C29 C28 1.397 . S
C29 C30 1.385 . S
C30 H13 0.940 . S
C30 C29 1.385 . S
C30 C31 1.388 . S
C31 H10 0.939 . S
C31 C26 1.391 . S
C31 C30 1.388 . S
P32 O43 1.490 1_655 S
P32 C46 1.812 . S
P32 C52 1.803 . S
P32 C58 1.819 . S
H33 C47 0.977 . S
H34 C48 0.939 . S
H35 C50 0.940 . S
H36 C51 0.940 . S
H37 C53 0.958 . S
H38 C54 0.942 . S
H39 C56 0.940 . S
H40 C57 0.939 . S
H41 C59 0.941 . S
H42 C63 0.939 . S
O43 P32 1.490 1_455 S
H44 C60 0.939 . S
H45 C62 0.940 . S
C46 P32 1.812 . S
C46 C47 1.389 . S
C46 C51 1.391 . S
C47 H33 0.977 . S
C47 C46 1.389 . S
C47 C48 1.397 . S
C48 H34 0.939 . S
C48 C47 1.397 . S
C48 C49 1.378 . S
C49 C48 1.378 . S
C49 C50 1.378 . S
C50 H35 0.940 . S
C50 C49 1.378 . S
C50 C51 1.396 . S
C51 H36 0.940 . S
C51 C46 1.391 . S
C51 C50 1.396 . S
C52 P32 1.803 . S
C52 C53 1.378 . S
C52 C57 1.400 . S
C53 H37 0.958 . S
C53 C52 1.378 . S
C53 C54 1.361 . S
C54 H38 0.942 . S
C54 C53 1.361 . S
C54 C55 1.369 . S
C55 C54 1.369 . S
C55 C56 1.404 . S
C56 H39 0.940 . S
C56 C55 1.404 . S
C56 C57 1.389 . S
C57 H40 0.939 . S
C57 C52 1.400 . S
C57 C56 1.389 . S
C58 P32 1.819 . S
C58 C59 1.391 . S
C58 C63 1.391 . S
C59 H41 0.941 . S
C59 C58 1.391 . S
C59 C60 1.396 . S
C60 H44 0.939 . S
C60 C59 1.396 . S
C60 C61 1.397 . S
C61 C60 1.397 . S
C61 C62 1.385 . S
C62 H45 0.940 . S
C62 C61 1.385 . S
C62 C63 1.388 . S
C63 H42 0.939 . S
C63 C58 1.391 . S
C63 C62 1.388 . S
P64 O75 1.490 1_565 S
P64 C78 1.812 . S
P64 C84 1.803 . S
P64 C90 1.819 . S
H65 C79 0.941 1_545 S
H66 C80 0.939 . S
H67 C82 0.940 . S
H68 C83 0.940 . S
H69 C85 0.939 1_545 S
H70 C86 0.942 . S
H71 C88 0.940 . S
H72 C89 0.939 . S
H73 C91 0.941 1_545 S
H74 C95 0.939 . S
O75 P64 1.490 1_545 S
H76 C92 0.939 . S
H77 C94 0.940 . S
C78 P64 1.812 . S
C78 C79 1.389 . S
C78 C83 1.391 . S
C79 H65 0.941 1_565 S
C79 C78 1.389 . S
C79 C80 1.397 . S
C80 H66 0.939 . S
C80 C79 1.397 . S
C80 C81 1.378 . S
C81 C80 1.378 . S
C81 C82 1.378 . S
C82 H67 0.940 . S
C82 C81 1.378 . S
C82 C83 1.396 . S
C83 H68 0.940 . S
C83 C78 1.391 . S
C83 C82 1.396 . S
C84 P64 1.803 . S
C84 C85 1.378 . S
C84 C89 1.400 . S
C85 H69 0.939 1_565 S
C85 C84 1.378 . S
C85 C86 1.361 . S
C86 H70 0.942 . S
C86 C85 1.361 . S
C86 C87 1.369 . S
C87 C86 1.369 . S
C87 C88 1.404 . S
C88 H71 0.940 . S
C88 C87 1.404 . S
C88 C89 1.389 . S
C89 H72 0.939 . S
C89 C84 1.400 . S
C89 C88 1.389 . S
C90 P64 1.819 . S
C90 C91 1.391 . S
C90 C95 1.391 . S
C91 H73 0.941 1_565 S
C91 C90 1.391 . S
C91 C92 1.396 . S
C92 H76 0.939 . S
C92 C91 1.396 . S
C92 C93 1.397 . S
C93 C92 1.397 . S
C93 C94 1.385 . S
C94 H77 0.940 . S
C94 C93 1.385 . S
C94 C95 1.388 . S
C95 H74 0.939 . S
C95 C90 1.391 . S
C95 C94 1.388 . S
P96 O107 1.490 . S
P96 C110 1.812 . S
P96 C116 1.803 . S
P96 C122 1.819 . S
H97 C111 0.941 . S
H98 C112 0.939 . S
H99 C114 0.940 . S
H100 C115 0.940 . S
H101 C117 0.939 . S
H102 C118 0.942 . S
H103 C120 0.940 . S
H104 C121 0.939 . S
H105 C123 0.941 . S
H106 C127 0.939 . S
O107 P96 1.490 . S
H108 C124 0.939 . S
H109 C126 0.940 . S
C110 P96 1.812 . S
C110 C111 1.389 . S
C110 C115 1.391 . S
C111 H97 0.941 . S
C111 C110 1.389 . S
C111 C112 1.397 . S
C112 H98 0.939 . S
C112 C111 1.397 . S
C112 C113 1.378 . S
C113 C112 1.378 . S
C113 C114 1.378 . S
C114 H99 0.940 . S
C114 C113 1.378 . S
C114 C115 1.396 . S
C115 H100 0.940 . S
C115 C110 1.391 . S
C115 C114 1.396 . S
C116 P96 1.803 . S
C116 C117 1.378 . S
C116 C121 1.400 . S
C117 H101 0.939 . S
C117 C116 1.378 . S
C117 C118 1.361 . S
C118 H102 0.942 . S
C118 C117 1.361 . S
C118 C119 1.369 . S
C119 C118 1.369 . S
C119 C120 1.404 . S
C120 H103 0.940 . S
C120 C119 1.404 . S
C120 C121 1.389 . S
C121 H104 0.939 . S
C121 C116 1.400 . S
C121 C120 1.389 . S
C122 P96 1.819 . S
C122 C123 1.391 . S
C122 C127 1.391 . S
C123 H105 0.941 . S
C123 C122 1.391 . S
C123 C124 1.396 . S
C124 H108 0.939 . S
C124 C123 1.396 . S
C124 C125 1.397 . S
C125 C124 1.397 . S
C125 C126 1.385 . S
C126 H109 0.940 . S
C126 C125 1.385 . S
C126 C127 1.388 . S
C127 H106 0.939 . S
C127 C122 1.391 . S
C127 C126 1.388 . S
P128 O139 1.490 . S
P128 C142 1.812 1_554 S
P128 C148 1.803 . S
P128 C154 1.819 . S
H129 C143 0.941 . S
H130 C144 0.939 . S
H131 C146 0.940 . S
H132 C147 0.940 . S
H133 C149 0.939 . S
H134 C150 0.942 . S
H135 C152 0.940 . S
H136 C153 0.939 1_556 S
H137 C155 0.941 . S
H138 C159 0.939 . S
O139 P128 1.490 . S
H140 C156 0.939 . S
H141 C158 0.940 . S
C142 P128 1.812 1_556 S
C142 C143 1.389 . S
C142 C147 1.391 . S
C143 H129 0.941 . S
C143 C142 1.389 . S
C143 C144 1.397 . S
C144 H130 0.939 . S
C144 C143 1.397 . S
C144 C145 1.378 . S
C145 C144 1.378 . S
C145 C146 1.378 . S
C146 H131 0.940 . S
C146 C145 1.378 . S
C146 C147 1.396 . S
C147 H132 0.940 . S
C147 C142 1.391 . S
C147 C146 1.396 . S
C148 P128 1.803 . S
C148 C149 1.378 . S
C148 C153 1.400 . S
C149 H133 0.939 . S
C149 C148 1.378 . S
C149 C150 1.361 . S
C150 H134 0.942 . S
C150 C149 1.361 . S
C150 C151 1.369 . S
C151 C150 1.369 . S
C151 C152 1.404 . S
C152 H135 0.940 . S
C152 C151 1.404 . S
C152 C153 1.389 . S
C153 H136 0.939 1_554 S
C153 C148 1.400 . S
C153 C152 1.389 . S
C154 P128 1.819 . S
C154 C155 1.391 . S
C154 C159 1.391 . S
C155 H137 0.941 . S
C155 C154 1.391 . S
C155 C156 1.396 . S
C156 H140 0.939 . S
C156 C155 1.396 . S
C156 C157 1.397 . S
C157 C156 1.397 . S
C157 C158 1.385 . S
C158 H141 0.940 . S
C158 C157 1.385 . S
C158 C159 1.388 . S
C159 H138 0.939 . S
C159 C154 1.391 . S
C159 C158 1.388 . S
P160 O171 1.490 . S
P160 C174 1.812 1_554 S
P160 C180 1.803 . S
P160 C186 1.819 . S
H161 C175 0.941 . S
H162 C176 0.939 . S
H163 C178 0.940 . S
H164 C179 0.940 . S
H165 C181 0.939 . S
H166 C182 0.942 . S
H167 C184 0.940 . S
H168 C185 0.939 1_556 S
H169 C187 0.941 . S
H170 C191 0.939 . S
O171 P160 1.490 . S
H172 C188 0.939 . S
H173 C190 0.940 . S
C174 P160 1.812 1_556 S
C174 C175 1.389 . S
C174 C179 1.391 . S
C175 H161 0.941 . S
C175 C174 1.389 . S
C175 C176 1.397 . S
C176 H162 0.939 . S
C176 C175 1.397 . S
C176 C177 1.378 . S
C177 C176 1.378 . S
C177 C178 1.378 . S
C178 H163 0.940 . S
C178 C177 1.378 . S
C178 C179 1.396 . S
C179 H164 0.940 . S
C179 C174 1.391 . S
C179 C178 1.396 . S
C180 P160 1.803 . S
C180 C181 1.378 . S
C180 C185 1.400 . S
C181 H165 0.939 . S
C181 C180 1.378 . S
C181 C182 1.361 . S
C182 H166 0.942 . S
C182 C181 1.361 . S
C182 C183 1.369 . S
C183 C182 1.369 . S
C183 C184 1.404 . S
C184 H167 0.940 . S
C184 C183 1.404 . S
C184 C185 1.389 . S
C185 H168 0.939 1_554 S
C185 C180 1.400 . S
C185 C184 1.389 . S
C186 P160 1.819 . S
C186 C187 1.391 . S
C186 C191 1.391 . S
C187 H169 0.941 . S
C187 C186 1.391 . S
C187 C188 1.396 . S
C188 H172 0.939 . S
C188 C187 1.396 . S
C188 C189 1.397 . S
C189 C188 1.397 . S
C189 C190 1.385 . S
C190 H173 0.940 . S
C190 C189 1.385 . S
C190 C191 1.388 . S
C191 H170 0.939 . S
C191 C186 1.391 . S
C191 C190 1.388 . S
P192 O203 1.490 . S
P192 C206 1.812 1_554 S
P192 C212 1.803 . S
P192 C218 1.819 . S
H193 C207 0.941 . S
H194 C208 0.939 . S
H195 C210 0.940 . S
H196 C211 0.940 . S
H197 C213 0.939 . S
H198 C214 0.942 . S
H199 C216 0.940 . S
H200 C217 0.939 1_556 S
H201 C219 0.941 . S
H202 C223 0.939 . S
O203 P192 1.490 . S
H204 C220 0.939 . S
H205 C222 0.940 . S
C206 P192 1.812 1_556 S
C206 C207 1.389 . S
C206 C211 1.391 . S
C207 H193 0.941 . S
C207 C206 1.389 . S
C207 C208 1.397 . S
C208 H194 0.939 . S
C208 C207 1.397 . S
C208 C209 1.378 . S
C209 C208 1.378 . S
C209 C210 1.378 . S
C210 H195 0.940 . S
C210 C209 1.378 . S
C210 C211 1.396 . S
C211 H196 0.940 . S
C211 C206 1.391 . S
C211 C210 1.396 . S
C212 P192 1.803 . S
C212 C213 1.378 . S
C212 C217 1.400 . S
C213 H197 0.939 . S
C213 C212 1.378 . S
C213 C214 1.361 . S
C214 H198 0.942 . S
C214 C213 1.361 . S
C214 C215 1.369 . S
C215 C214 1.369 . S
C215 C216 1.404 . S
C216 H199 0.940 . S
C216 C215 1.404 . S
C216 C217 1.389 . S
C217 H200 0.939 1_554 S
C217 C212 1.400 . S
C217 C216 1.389 . S
C218 P192 1.819 . S
C218 C219 1.391 . S
C218 C223 1.391 . S
C219 H201 0.941 . S
C219 C218 1.391 . S
C219 C220 1.396 . S
C220 H204 0.939 . S
C220 C219 1.396 . S
C220 C221 1.397 . S
C221 C220 1.397 . S
C221 C222 1.385 . S
C222 H205 0.940 . S
C222 C221 1.385 . S
C222 C223 1.388 . S
C223 H202 0.939 . S
C223 C218 1.391 . S
C223 C222 1.388 . S
P224 O235 1.490 . S
P224 C238 1.812 1_554 S
P224 C244 1.803 . S
P224 C250 1.819 . S
H225 C239 0.941 . S
H226 C240 0.939 . S
H227 C242 0.940 . S
H228 C243 0.940 . S
H229 C245 0.939 . S
H230 C246 0.942 . S
H231 C248 0.940 . S
H232 C249 0.939 1_556 S
H233 C251 0.941 . S
H234 C255 0.939 . S
O235 P224 1.490 . S
H236 C252 0.939 . S
H237 C254 0.940 . S
C238 P224 1.812 1_556 S
C238 C239 1.389 . S
C238 C243 1.391 . S
C239 H225 0.941 . S
C239 C238 1.389 . S
C239 C240 1.397 . S
C240 H226 0.939 . S
C240 C239 1.397 . S
C240 C241 1.378 . S
C241 C240 1.378 . S
C241 C242 1.378 . S
C242 H227 0.940 . S
C242 C241 1.378 . S
C242 C243 1.396 . S
C243 H228 0.940 . S
C243 C238 1.391 . S
C243 C242 1.396 . S
C244 P224 1.803 . S
C244 C245 1.378 . S
C244 C249 1.400 . S
C245 H229 0.939 . S
C245 C244 1.378 . S
C245 C246 1.361 . S
C246 H230 0.942 . S
C246 C245 1.361 . S
C246 C247 1.369 . S
C247 C246 1.369 . S
C247 C248 1.404 . S
C248 H231 0.940 . S
C248 C247 1.404 . S
C248 C249 1.389 . S
C249 H232 0.939 1_554 S
C249 C244 1.400 . S
C249 C248 1.389 . S
C250 P224 1.819 . S
C250 C251 1.391 . S
C250 C255 1.391 . S
C251 H233 0.941 . S
C251 C250 1.391 . S
C251 C252 1.396 . S
C252 H236 0.939 . S
C252 C251 1.396 . S
C252 C253 1.397 . S
C253 C252 1.397 . S
C253 C254 1.385 . S
C254 H237 0.940 . S
C254 C253 1.385 . S
C254 C255 1.388 . S
C255 H234 0.939 . S
C255 C250 1.391 . S
C255 C254 1.388 . S
Eu256 N287 2.657 1_565 S
Eu256 N294 2.609 . S
Eu256 O300 2.558 . S
Eu256 O301 2.612 1_455 S
Eu256 O303 2.339 1_455 S
Eu256 O304 2.563 . S
Eu256 O305 2.419 . S
Eu256 O307 2.380 1_565 S
Eu256 O308 2.432 . S
Eu256 C320 2.848 . S
C257 C260 1.429 1_545 S
C257 C261 1.411 1_545 S
C257 N264 1.377 . S
C258 C260 1.420 . S
C258 C262 1.423 . S
C258 C270 1.392 . S
C259 C261 1.420 . S
C259 C262 1.351 . S
C259 H282 0.931 . S
C260 C257 1.429 1_565 S
C260 C258 1.420 . S
C260 N268 1.362 . S
C261 C257 1.411 1_565 S
C261 C259 1.420 . S
C261 C266 1.395 1_565 S
C262 C258 1.423 . S
C262 C259 1.351 . S
C262 H274 0.930 . S
C263 C265 1.400 . S
C263 C266 1.386 . S
C263 H275 0.930 . S
N264 C257 1.377 . S
N264 C265 1.321 . S
N264 Eu267 2.609 . S
C265 C263 1.400 . S
C265 N264 1.321 . S
C265 H272 0.930 . S
C266 C261 1.395 1_545 S
C266 C263 1.386 . S
C266 H285 0.930 . S
Eu267 N264 2.609 . S
Eu267 N268 2.657 1_545 S
Eu267 O301 2.380 1_545 S
Eu267 O302 2.432 . S
Eu267 O306 2.558 . S
Eu267 O307 2.612 1_655 S
Eu267 O309 2.339 1_655 S
Eu267 O310 2.563 1_655 S
Eu267 O311 2.419 . S
Eu267 C331 2.848 . S
N268 C260 1.362 . S
N268 Eu267 2.657 1_565 S
N268 C269 1.358 . S
C269 N268 1.358 . S
C269 C271 1.416 . S
C269 H276 0.901 1_655 S
C270 C258 1.392 . S
C270 C271 1.367 . S
C270 H278 0.930 . S
C271 C269 1.416 . S
C271 C270 1.367 . S
C271 H273 0.930 1_655 S
H272 C265 0.930 . S
H273 C271 0.930 1_455 S
H274 C262 0.930 . S
H275 C263 0.930 . S
H276 C269 0.901 1_455 S
H277 C291 0.930 1_655 S
H278 C270 0.930 . S
H279 C297 0.930 . S
H280 C288 0.929 1_655 S
H281 C295 0.930 . S
H282 C259 0.931 . S
H283 C289 0.930 1_554 S
H284 C322 0.930 1_554 S
H285 C266 0.930 . S
H286 C321 0.931 . S
N287 Eu256 2.657 1_545 S
N287 C288 1.334 . S
N287 C292 1.362 . S
C288 H280 0.929 1_455 S
C288 N287 1.334 . S
C288 C291 1.413 . S
C289 H283 0.930 1_556 S
C289 C290 1.392 . S
C289 C291 1.367 . S
C290 C289 1.392 . S
C290 C292 1.420 . S
C290 C322 1.423 . S
C291 H277 0.930 1_455 S
C291 C288 1.413 . S
C291 C289 1.367 . S
C292 N287 1.362 . S
C292 C290 1.420 . S
C292 C296 1.429 . S
H293 C298 0.930 . S
N294 Eu256 2.609 . S
N294 C296 1.377 1_565 S
N294 C297 1.321 . S
C295 H281 0.930 . S
C295 C297 1.400 . S
C295 C298 1.386 1_565 S
C296 C292 1.429 . S
C296 N294 1.377 1_545 S
C296 C299 1.411 . S
C297 H279 0.930 . S
C297 N294 1.321 . S
C297 C295 1.400 . S
C298 H293 0.930 . S
C298 C295 1.386 1_545 S
C298 C299 1.395 . S
C299 C296 1.411 . S
C299 C298 1.395 . S
C299 C321 1.420 . S
O300 Eu256 2.558 . S
O300 C320 1.257 . S
O301 Eu256 2.612 1_655 S
O301 Eu267 2.380 1_565 S
O301 C312 1.276 . S
O302 Eu267 2.432 . S
O302 C319 1.264 . S
O303 Eu256 2.339 1_655 S
O303 C319 1.254 1_565 S
O304 Eu256 2.563 . S
O304 C312 1.235 1_455 S
O305 Eu256 2.419 . S
O305 C320 1.249 . S
O306 Eu267 2.558 . S
O306 C331 1.257 . S
O307 Eu256 2.380 1_545 S
O307 Eu267 2.612 1_455 S
O307 C323 1.276 . S
O308 Eu256 2.432 . S
O308 C330 1.264 1_565 S
O309 Eu267 2.339 1_455 S
O309 C330 1.254 . S
O310 Eu267 2.563 1_455 S
O310 C323 1.235 . S
O311 Eu267 2.419 . S
O311 C331 1.249 . S
C312 O301 1.276 . S
C312 O304 1.235 1_655 S
C313 C315 1.393 . S
C313 C317 1.395 . S
C313 C320 1.492 . S
C314 C315 1.392 . S
C314 C316 1.386 . S
C315 C313 1.393 . S
C315 C314 1.392 . S
C315 H332 0.930 . S
C316 C314 1.386 . S
C316 C318 1.395 . S
C316 H333 0.930 . S
C317 C313 1.395 . S
C317 C318 1.379 . S
C317 H334 0.930 . S
C318 C316 1.395 . S
C318 C317 1.379 . S
C318 H335 0.930 . S
C319 O302 1.264 . S
C319 O303 1.254 1_545 S
C320 Eu256 2.848 . S
C320 O300 1.257 . S
C320 O305 1.249 . S
C320 C313 1.492 . S
C321 H286 0.931 . S
C321 C299 1.420 . S
C321 C322 1.351 . S
C322 H284 0.930 1_556 S
C322 C290 1.423 . S
C322 C321 1.351 . S
C323 O307 1.276 . S
C323 O310 1.235 . S
C324 C325 1.393 . S
C324 C328 1.395 . S
C324 C331 1.492 . S
C325 C324 1.393 . S
C325 C326 1.392 . S
C325 H336 0.930 1_655 S
C326 C325 1.392 . S
C326 C327 1.386 . S
C327 C326 1.386 . S
C327 C329 1.395 . S
C327 H337 0.930 . S
C328 C324 1.395 . S
C328 C329 1.379 . S
C328 H338 0.930 . S
C329 C327 1.395 . S
C329 C328 1.379 . S
C329 H339 0.930 . S
C330 O308 1.264 1_545 S
C330 O309 1.254 . S
C331 Eu267 2.848 . S
C331 O306 1.257 . S
C331 O311 1.249 . S
C331 C324 1.492 . S
H332 C315 0.930 . S
H333 C316 0.930 . S
H334 C317 0.930 . S
H335 C318 0.930 . S
H336 C325 0.930 1_455 S
H337 C327 0.930 . S
H338 C328 0.930 . S
H339 C329 0.930 . S
Eu340 N371 2.657 . S
Eu340 N378 2.609 . S
Eu340 O384 2.558 . S
Eu340 O385 2.612 1_545 S
Eu340 O387 2.339 1_545 S
Eu340 O388 2.563 . S
Eu340 O389 2.419 . S
Eu340 O391 2.380 . S
Eu340 O392 2.432 . S
Eu340 C404 2.848 . S
C341 C344 1.429 . S
C341 C345 1.411 . S
C341 N348 1.377 . S
C342 C344 1.420 . S
C342 C346 1.423 . S
C342 C354 1.392 . S
C343 C345 1.420 . S
C343 C346 1.351 . S
C343 H366 0.931 . S
C344 C341 1.429 . S
C344 C342 1.420 . S
C344 N352 1.362 . S
C345 C341 1.411 . S
C345 C343 1.420 . S
C345 C350 1.395 . S
C346 C342 1.423 . S
C346 C343 1.351 . S
C346 H358 0.930 . S
C347 C349 1.400 . S
C347 C350 1.386 . S
C347 H359 0.930 . S
N348 C341 1.377 . S
N348 C349 1.321 . S
N348 Eu351 2.609 . S
C349 C347 1.400 . S
C349 N348 1.321 . S
C349 H356 0.930 . S
C350 C345 1.395 . S
C350 C347 1.386 . S
C350 H369 0.930 . S
Eu351 N348 2.609 . S
Eu351 N352 2.657 . S
Eu351 O385 2.380 . S
Eu351 O386 2.432 . S
Eu351 O390 2.558 . S
Eu351 O391 2.612 1_565 S
Eu351 O393 2.339 1_565 S
Eu351 O394 2.563 1_565 S
Eu351 O395 2.419 . S
Eu351 C415 2.848 . S
N352 C344 1.362 . S
N352 Eu351 2.657 . S
N352 C353 1.334 1_565 S
C353 N352 1.334 1_545 S
C353 C355 1.413 . S
C353 H360 0.929 . S
C354 C342 1.392 . S
C354 C355 1.367 1_565 S
C354 H362 0.930 . S
C355 C353 1.413 . S
C355 C354 1.367 1_545 S
C355 H357 0.930 . S
H356 C349 0.930 . S
H357 C355 0.930 . S
H358 C346 0.930 . S
H359 C347 0.930 . S
H360 C353 0.929 . S
H361 C375 0.930 1_565 S
H362 C354 0.930 . S
H363 C381 0.930 . S
H364 C372 0.929 1_565 S
H365 C379 0.930 . S
H366 C343 0.931 . S
H367 C373 0.930 1_554 S
H368 C406 0.930 1_554 S
H369 C350 0.930 . S
H370 C405 0.931 . S
N371 Eu340 2.657 . S
N371 C372 1.334 . S
N371 C376 1.362 . S
C372 H364 0.929 1_545 S
C372 N371 1.334 . S
C372 C375 1.413 . S
C373 H367 0.930 1_556 S
C373 C374 1.392 . S
C373 C375 1.367 . S
C374 C373 1.392 . S
C374 C376 1.420 . S
C374 C406 1.423 . S
C375 H361 0.930 1_545 S
C375 C372 1.413 . S
C375 C373 1.367 . S
C376 N371 1.362 . S
C376 C374 1.420 . S
C376 C380 1.429 . S
H377 C382 0.930 . S
N378 Eu340 2.609 . S
N378 C380 1.377 . S
N378 C381 1.321 . S
C379 H365 0.930 . S
C379 C381 1.400 . S
C379 C382 1.386 . S
C380 C376 1.429 . S
C380 N378 1.377 . S
C380 C383 1.411 . S
C381 H363 0.930 . S
C381 N378 1.321 . S
C381 C379 1.400 . S
C382 H377 0.930 . S
C382 C379 1.386 . S
C382 C383 1.395 . S
C383 C380 1.411 . S
C383 C382 1.395 . S
C383 C405 1.420 . S
O384 Eu340 2.558 . S
O384 C404 1.257 . S
O385 Eu340 2.612 1_565 S
O385 Eu351 2.380 . S
O385 C396 1.276 . S
O386 Eu351 2.432 . S
O386 C403 1.264 . S
O387 Eu340 2.339 1_565 S
O387 C403 1.254 . S
O388 Eu340 2.563 . S
O388 C396 1.235 1_545 S
O389 Eu340 2.419 . S
O389 C404 1.249 . S
O390 Eu351 2.558 . S
O390 C415 1.257 . S
O391 Eu340 2.380 . S
O391 Eu351 2.612 1_545 S
O391 C407 1.276 . S
O392 Eu340 2.432 . S
O392 C414 1.264 . S
O393 Eu351 2.339 1_545 S
O393 C414 1.254 . S
O394 Eu351 2.563 1_545 S
O394 C407 1.235 . S
O395 Eu351 2.419 . S
O395 C415 1.249 . S
C396 O385 1.276 . S
C396 O388 1.235 1_565 S
C397 C399 1.393 . S
C397 C401 1.395 . S
C397 C404 1.492 . S
C398 C399 1.392 . S
C398 C400 1.386 . S
C399 C397 1.393 . S
C399 C398 1.392 . S
C399 H416 0.930 . S
C400 C398 1.386 . S
C400 C402 1.395 . S
C400 H417 0.930 . S
C401 C397 1.395 . S
C401 C402 1.379 . S
C401 H418 0.930 . S
C402 C400 1.395 . S
C402 C401 1.379 . S
C402 H419 0.930 . S
C403 O386 1.264 . S
C403 O387 1.254 . S
C404 Eu340 2.848 . S
C404 O384 1.257 . S
C404 O389 1.249 . S
C404 C397 1.492 . S
C405 H370 0.931 . S
C405 C383 1.420 . S
C405 C406 1.351 . S
C406 H368 0.930 1_556 S
C406 C374 1.423 . S
C406 C405 1.351 . S
C407 O391 1.276 . S
C407 O394 1.235 . S
C408 C409 1.393 . S
C408 C412 1.395 . S
C408 C415 1.492 . S
C409 C408 1.393 . S
C409 C410 1.392 . S
C409 H420 0.930 1_565 S
C410 C409 1.392 . S
C410 C411 1.386 . S
C411 C410 1.386 . S
C411 C413 1.395 . S
C411 H421 0.930 . S
C412 C408 1.395 . S
C412 C413 1.379 . S
C412 H422 0.930 . S
C413 C411 1.395 . S
C413 C412 1.379 . S
C413 H423 0.930 . S
C414 O392 1.264 . S
C414 O393 1.254 . S
C415 Eu351 2.848 . S
C415 O390 1.257 . S
C415 O395 1.249 . S
C415 C408 1.492 . S
H416 C399 0.930 . S
H417 C400 0.930 . S
H418 C401 0.930 . S
H419 C402 0.930 . S
H420 C409 0.930 1_545 S
H421 C411 0.930 . S
H422 C412 0.930 . S
H423 C413 0.930 . S
Eu424 N455 2.657 . S
Eu424 N462 2.609 . S
Eu424 O468 2.558 . S
Eu424 O469 2.612 . S
Eu424 O471 2.339 . S
Eu424 O472 2.563 . S
Eu424 O473 2.419 . S
Eu424 O475 2.380 . S
Eu424 O476 2.432 . S
Eu424 C488 2.848 . S
C425 C428 1.429 . S
C425 C429 1.411 . S
C425 N432 1.377 . S
C426 C428 1.420 . S
C426 C430 1.423 . S
C426 C438 1.392 . S
C427 C429 1.420 . S
C427 C430 1.351 . S
C427 H450 0.931 . S
C428 C425 1.429 . S
C428 C426 1.420 . S
C428 N436 1.362 . S
C429 C425 1.411 . S
C429 C427 1.420 . S
C429 C434 1.395 . S
C430 C426 1.423 . S
C430 C427 1.351 . S
C430 H442 0.930 . S
C431 C433 1.400 . S
C431 C434 1.386 . S
C431 H443 0.930 . S
N432 C425 1.377 . S
N432 C433 1.321 . S
N432 Eu435 2.609 . S
C433 C431 1.400 . S
C433 N432 1.321 . S
C433 H440 0.930 . S
C434 C429 1.395 . S
C434 C431 1.386 . S
C434 H453 0.930 . S
Eu435 N432 2.609 . S
Eu435 N436 2.657 . S
Eu435 O469 2.380 . S
Eu435 O470 2.432 . S
Eu435 O474 2.558 . S
Eu435 O475 2.612 . S
Eu435 O477 2.339 . S
Eu435 O478 2.563 . S
Eu435 O479 2.419 . S
Eu435 C499 2.848 . S
N436 C428 1.362 . S
N436 Eu435 2.657 . S
N436 C437 1.334 . S
C437 N436 1.334 . S
C437 C439 1.413 . S
C437 H444 0.929 . S
C438 C426 1.392 . S
C438 C439 1.367 . S
C438 H446 0.930 . S
C439 C437 1.413 . S
C439 C438 1.367 . S
C439 H441 0.930 . S
H440 C433 0.930 . S
H441 C439 0.930 . S
H442 C430 0.930 . S
H443 C431 0.930 . S
H444 C437 0.929 . S
H445 C459 0.930 . S
H446 C438 0.930 . S
H447 C465 0.930 . S
H448 C456 0.929 . S
H449 C463 0.930 . S
H450 C427 0.931 . S
H451 C457 0.930 . S
H452 C490 0.930 . S
H453 C434 0.930 . S
H454 C489 0.931 . S
N455 Eu424 2.657 . S
N455 C456 1.334 . S
N455 C460 1.362 . S
C456 H448 0.929 . S
C456 N455 1.334 . S
C456 C459 1.413 . S
C457 H451 0.930 . S
C457 C458 1.392 . S
C457 C459 1.367 . S
C458 C457 1.392 . S
C458 C460 1.420 . S
C458 C490 1.423 . S
C459 H445 0.930 . S
C459 C456 1.413 . S
C459 C457 1.367 . S
C460 N455 1.362 . S
C460 C458 1.420 . S
C460 C464 1.429 . S
H461 C466 0.930 . S
N462 Eu424 2.609 . S
N462 C464 1.377 . S
N462 C465 1.321 . S
C463 H449 0.930 . S
C463 C465 1.400 . S
C463 C466 1.386 . S
C464 C460 1.429 . S
C464 N462 1.377 . S
C464 C467 1.411 . S
C465 H447 0.930 . S
C465 N462 1.321 . S
C465 C463 1.400 . S
C466 H461 0.930 . S
C466 C463 1.386 . S
C466 C467 1.395 . S
C467 C464 1.411 . S
C467 C466 1.395 . S
C467 C489 1.420 . S
O468 Eu424 2.558 . S
O468 C488 1.257 . S
O469 Eu424 2.612 . S
O469 Eu435 2.380 . S
O469 C480 1.276 . S
O470 Eu435 2.432 . S
O470 C487 1.264 . S
O471 Eu424 2.339 . S
O471 C487 1.254 . S
O472 Eu424 2.563 . S
O472 C480 1.235 . S
O473 Eu424 2.419 . S
O473 C488 1.249 . S
O474 Eu435 2.558 . S
O474 C499 1.257 . S
O475 Eu424 2.380 . S
O475 Eu435 2.612 . S
O475 C491 1.276 . S
O476 Eu424 2.432 . S
O476 C498 1.264 . S
O477 Eu435 2.339 . S
O477 C498 1.254 . S
O478 Eu435 2.563 . S
O478 C491 1.235 . S
O479 Eu435 2.419 . S
O479 C499 1.249 . S
C480 O469 1.276 . S
C480 O472 1.235 . S
C481 C483 1.393 . S
C481 C485 1.395 . S
C481 C488 1.492 . S
C482 C483 1.392 . S
C482 C484 1.386 . S
C483 C481 1.393 . S
C483 C482 1.392 . S
C483 H500 0.930 . S
C484 C482 1.386 . S
C484 C486 1.395 . S
C484 H501 0.930 . S
C485 C481 1.395 . S
C485 C486 1.379 . S
C485 H502 0.930 . S
C486 C484 1.395 . S
C486 C485 1.379 . S
C486 H503 0.930 . S
C487 O470 1.264 . S
C487 O471 1.254 . S
C488 Eu424 2.848 . S
C488 O468 1.257 . S
C488 O473 1.249 . S
C488 C481 1.492 . S
C489 H454 0.931 . S
C489 C467 1.420 . S
C489 C490 1.351 . S
C490 H452 0.930 . S
C490 C458 1.423 . S
C490 C489 1.351 . S
C491 O475 1.276 . S
C491 O478 1.235 . S
C492 C493 1.393 . S
C492 C496 1.395 . S
C492 C499 1.492 . S
C493 C492 1.393 . S
C493 C494 1.392 . S
C493 H504 0.930 . S
C494 C493 1.392 . S
C494 C495 1.386 1_556 S
C495 C494 1.386 1_554 S
C495 C497 1.395 . S
C495 H505 0.930 . S
C496 C492 1.395 . S
C496 C497 1.379 1_556 S
C496 H506 0.930 . S
C497 C495 1.395 . S
C497 C496 1.379 1_554 S
C497 H507 0.930 . S
C498 O476 1.264 . S
C498 O477 1.254 . S
C499 Eu435 2.848 . S
C499 O474 1.257 . S
C499 O479 1.249 . S
C499 C492 1.492 . S
H500 C483 0.930 . S
H501 C484 0.930 . S
H502 C485 0.930 . S
H503 C486 0.930 . S
H504 C493 0.930 . S
H505 C495 0.930 . S
H506 C496 0.930 . S
H507 C497 0.930 . S
Eu508 N539 2.657 . S
Eu508 N546 2.609 . S
Eu508 O552 2.558 . S
Eu508 O553 2.612 . S
Eu508 O555 2.339 . S
Eu508 O556 2.563 . S
Eu508 O557 2.419 . S
Eu508 O559 2.365 1_455 S
Eu508 O560 2.432 1_455 S
Eu508 C572 2.848 . S
C509 C512 1.429 . S
C509 C513 1.411 . S
C509 N516 1.377 . S
C510 C512 1.420 . S
C510 C514 1.423 . S
C510 C522 1.392 . S
C511 C513 1.420 . S
C511 C514 1.351 . S
C511 H534 0.931 . S
C512 C509 1.429 . S
C512 C510 1.420 . S
C512 N520 1.362 . S
C513 C509 1.411 . S
C513 C511 1.420 . S
C513 C518 1.414 . S
C514 C510 1.423 . S
C514 C511 1.351 . S
C514 H526 0.930 . S
C515 C517 1.400 . S
C515 C518 1.370 1_455 S
C515 H527 0.930 . S
N516 C509 1.377 . S
N516 C517 1.321 1_655 S
N516 Eu519 2.609 . S
C517 C515 1.400 . S
C517 N516 1.321 1_455 S
C517 H524 0.930 . S
C518 C513 1.414 . S
C518 C515 1.370 1_655 S
C518 H537 0.926 1_655 S
Eu519 N516 2.609 . S
Eu519 N520 2.657 . S
Eu519 O553 2.380 1_655 S
Eu519 O554 2.432 1_655 S
Eu519 O558 2.558 . S
Eu519 O559 2.622 . S
Eu519 O561 2.339 . S
Eu519 O562 2.563 . S
Eu519 O563 2.419 . S
Eu519 C583 2.848 . S
N520 C512 1.362 . S
N520 Eu519 2.657 . S
N520 C521 1.334 . S
C521 N520 1.334 . S
C521 C523 1.413 . S
C521 H528 0.929 . S
C522 C510 1.392 . S
C522 C523 1.367 . S
C522 H530 0.930 . S
C523 C521 1.413 . S
C523 C522 1.367 . S
C523 H525 0.930 . S
H524 C517 0.930 . S
H525 C523 0.930 . S
H526 C514 0.930 . S
H527 C515 0.930 . S
H528 C521 0.929 . S
H529 C543 0.930 . S
H530 C522 0.930 . S
H531 C549 0.937 . S
H532 C540 0.929 . S
H533 C547 0.930 . S
H534 C511 0.931 . S
H535 C541 0.930 . S
H536 C574 0.930 . S
H537 C518 0.926 1_455 S
H538 C573 0.931 . S
N539 Eu508 2.657 . S
N539 C540 1.334 . S
N539 C544 1.362 . S
C540 H532 0.929 . S
C540 N539 1.334 . S
C540 C543 1.413 . S
C541 H535 0.930 . S
C541 C542 1.392 . S
C541 C543 1.367 . S
C542 C541 1.392 . S
C542 C544 1.420 . S
C542 C574 1.423 . S
C543 H529 0.930 . S
C543 C540 1.413 . S
C543 C541 1.367 . S
C544 N539 1.362 . S
C544 C542 1.420 . S
C544 C548 1.429 . S
H545 C550 0.930 . S
N546 Eu508 2.609 . S
N546 C548 1.377 . S
N546 C549 1.312 1_455 S
C547 H533 0.930 . S
C547 C549 1.402 . S
C547 C550 1.386 1_655 S
C548 C544 1.429 . S
C548 N546 1.377 . S
C548 C551 1.411 . S
C549 H531 0.937 . S
C549 N546 1.312 1_655 S
C549 C547 1.402 . S
C550 H545 0.930 . S
C550 C547 1.386 1_455 S
C550 C551 1.395 . S
C551 C548 1.411 . S
C551 C550 1.395 . S
C551 C573 1.420 . S
O552 Eu508 2.558 . S
O552 C572 1.257 . S
O553 Eu508 2.612 . S
O553 Eu519 2.380 1_455 S
O553 C564 1.276 . S
O554 Eu519 2.432 1_455 S
O554 C571 1.264 . S
O555 Eu508 2.339 . S
O555 C571 1.254 . S
O556 Eu508 2.563 . S
O556 C564 1.235 . S
O557 Eu508 2.419 . S
O557 C572 1.249 . S
O558 Eu519 2.558 . S
O558 C583 1.257 . S
O559 Eu508 2.365 1_655 S
O559 Eu519 2.622 . S
O559 C575 1.287 . S
O560 Eu508 2.432 1_655 S
O560 C582 1.264 . S
O561 Eu519 2.339 . S
O561 C582 1.254 . S
O562 Eu519 2.563 . S
O562 C575 1.235 . S
O563 Eu519 2.419 . S
O563 C583 1.249 . S
C564 O553 1.276 . S
C564 O556 1.235 . S
C565 C567 1.393 . S
C565 C569 1.395 . S
C565 C572 1.492 . S
C566 C567 1.392 . S
C566 C568 1.386 . S
C567 C565 1.393 . S
C567 C566 1.392 . S
C567 H584 0.930 . S
C568 C566 1.386 . S
C568 C570 1.395 . S
C568 H585 0.930 . S
C569 C565 1.395 . S
C569 C570 1.379 . S
C569 H586 0.930 . S
C570 C568 1.395 . S
C570 C569 1.379 . S
C570 H587 0.930 . S
C571 O554 1.264 . S
C571 O555 1.254 . S
C572 Eu508 2.848 . S
C572 O552 1.257 . S
C572 O557 1.249 . S
C572 C565 1.492 . S
C573 H538 0.931 . S
C573 C551 1.420 . S
C573 C574 1.351 . S
C574 H536 0.930 . S
C574 C542 1.423 . S
C574 C573 1.351 . S
C575 O559 1.287 . S
C575 O562 1.235 . S
C576 C577 1.393 . S
C576 C580 1.395 . S
C576 C583 1.492 . S
C577 C576 1.393 . S
C577 C578 1.392 . S
C577 H588 0.930 . S
C578 C577 1.392 . S
C578 C579 1.386 1_556 S
C579 C578 1.386 1_554 S
C579 C581 1.395 . S
C579 H589 0.930 . S
C580 C576 1.395 . S
C580 C581 1.379 1_556 S
C580 H590 0.930 . S
C581 C579 1.395 . S
C581 C580 1.379 1_554 S
C581 H591 0.930 . S
C582 O560 1.264 . S
C582 O561 1.254 . S
C583 Eu519 2.848 . S
C583 O558 1.257 . S
C583 O563 1.249 . S
C583 C576 1.492 . S
H584 C567 0.930 . S
H585 C568 0.930 . S
H586 C569 0.930 . S
H587 C570 0.930 . S
H588 C577 0.930 . S
H589 C579 0.930 . S
H590 C580 0.930 . S
H591 C581 0.930 . S
H592 C598 0.930 . S
H593 C601 0.930 . S
H594 C602 0.930 . S
H595 C603 0.930 . S
H596 C606 0.930 . S
H597 C607 0.930 . S
C598 H592 0.930 . S
C598 C599 1.355 . S
C598 C600 1.415 . S
C599 C598 1.355 . S
C599 C601 1.419 . S
C600 C598 1.415 . S
C600 C605 1.425 . S
C600 C607 1.409 . S
C601 H593 0.930 . S
C601 C599 1.419 . S
C601 C602 1.362 . S
C602 H594 0.930 . S
C602 C601 1.362 . S
C602 C605 1.409 . S
C603 H595 0.930 . S
C603 C604 1.355 . S
C603 C605 1.415 . S
C604 C603 1.355 . S
C604 C606 1.419 . S
C605 C600 1.425 . S
C605 C602 1.409 . S
C605 C603 1.415 . S
C606 H596 0.930 . S
C606 C604 1.419 . S
C606 C607 1.362 . S
C607 H597 0.930 . S
C607 C600 1.409 . S
C607 C606 1.362 . S
H608 C614 0.930 . S
H609 C617 0.930 . S
H610 C618 0.930 . S
H611 C619 0.930 . S
H612 C622 0.930 . S
H613 C623 0.930 . S
C614 H608 0.930 . S
C614 C615 1.355 . S
C614 C616 1.415 . S
C615 C614 1.355 . S
C615 C617 1.419 . S
C616 C614 1.415 . S
C616 C621 1.425 . S
C616 C623 1.409 . S
C617 H609 0.930 . S
C617 C615 1.419 . S
C617 C618 1.362 . S
C618 H610 0.930 . S
C618 C617 1.362 . S
C618 C621 1.409 . S
C619 H611 0.930 . S
C619 C620 1.355 . S
C619 C621 1.415 . S
C620 C619 1.355 . S
C620 C622 1.419 . S
C621 C616 1.425 . S
C621 C618 1.409 . S
C621 C619 1.415 . S
C622 H612 0.930 . S
C622 C620 1.419 . S
C622 C623 1.362 . S
C623 H613 0.930 . S
C623 C616 1.409 . S
C623 C622 1.362 . S
H624 C630 0.930 . S
H625 C633 0.930 . S
H626 C634 0.930 . S
H627 C635 0.930 . S
H628 C638 0.930 . S
H629 C639 0.930 . S
C630 H624 0.930 . S
C630 C631 1.355 . S
C630 C632 1.415 . S
C631 C630 1.355 . S
C631 C633 1.419 . S
C632 C630 1.415 . S
C632 C637 1.425 . S
C632 C639 1.409 . S
C633 H625 0.930 . S
C633 C631 1.419 . S
C633 C634 1.362 . S
C634 H626 0.930 . S
C634 C633 1.362 . S
C634 C637 1.409 . S
C635 H627 0.930 . S
C635 C636 1.355 . S
C635 C637 1.415 . S
C636 C635 1.355 . S
C636 C638 1.419 . S
C637 C632 1.425 . S
C637 C634 1.409 . S
C637 C635 1.415 . S
C638 H628 0.930 . S
C638 C636 1.419 . S
C638 C639 1.362 . S
C639 H629 0.930 . S
C639 C632 1.409 . S
C639 C638 1.362 . S
H640 C646 0.930 . S
H641 C649 0.930 . S
H642 C650 0.930 . S
H643 C651 0.930 . S
H644 C654 0.930 . S
H645 C655 0.930 . S
C646 H640 0.930 . S
C646 C647 1.355 . S
C646 C648 1.415 . S
C647 C646 1.355 . S
C647 C649 1.419 . S
C648 C646 1.415 . S
C648 C653 1.425 . S
C648 C655 1.409 . S
C649 H641 0.930 . S
C649 C647 1.419 . S
C649 C650 1.362 . S
C650 H642 0.930 . S
C650 C649 1.362 . S
C650 C653 1.409 . S
C651 H643 0.930 . S
C651 C652 1.355 . S
C651 C653 1.415 . S
C652 C651 1.355 . S
C652 C654 1.419 . S
C653 C648 1.425 . S
C653 C650 1.409 . S
C653 C651 1.415 . S
C654 H644 0.930 . S
C654 C652 1.419 . S
C654 C655 1.362 . S
C655 H645 0.930 . S
C655 C648 1.409 . S
C655 C654 1.362 . S
H656 C662 0.930 . S
H657 C665 0.930 . S
H658 C666 0.930 1_545 S
H659 C667 0.930 1_545 S
H660 C670 0.930 . S
H661 C671 0.930 . S
C662 H656 0.930 . S
C662 C663 1.355 . S
C662 C664 1.415 1_554 S
C663 C662 1.355 . S
C663 C665 1.419 . S
C664 C662 1.415 1_556 S
C664 C669 1.425 . S
C664 C671 1.409 . S
C665 H657 0.930 . S
C665 C663 1.419 . S
C665 C666 1.362 . S
C666 H658 0.930 1_565 S
C666 C665 1.362 . S
C666 C669 1.409 1_554 S
C667 H659 0.930 1_565 S
C667 C668 1.355 . S
C667 C669 1.415 . S
C668 C667 1.355 . S
C668 C670 1.419 . S
C669 C664 1.425 . S
C669 C666 1.409 1_556 S
C669 C667 1.415 . S
C670 H660 0.930 . S
C670 C668 1.419 . S
C670 C671 1.362 . S
C671 H661 0.930 . S
C671 C664 1.409 . S
C671 C670 1.362 . S
H672 C678 0.930 . S
H673 C681 0.930 . S
H674 C682 0.930 1_556 S
H675 C683 0.930 . S
H676 C686 0.930 . S
H677 C687 0.930 . S
C678 H672 0.930 . S
C678 C679 1.355 . S
C678 C680 1.415 1_554 S
C679 C678 1.355 . S
C679 C681 1.419 . S
C680 C678 1.415 1_556 S
C680 C685 1.425 . S
C680 C687 1.409 . S
C681 H673 0.930 . S
C681 C679 1.419 . S
C681 C682 1.362 . S
C682 H674 0.930 1_554 S
C682 C681 1.362 . S
C682 C685 1.409 1_554 S
C683 H675 0.930 . S
C683 C684 1.355 . S
C683 C685 1.415 . S
C684 C683 1.355 . S
C684 C686 1.419 . S
C685 C680 1.425 . S
C685 C682 1.409 1_556 S
C685 C683 1.415 . S
C686 H676 0.930 . S
C686 C684 1.419 . S
C686 C687 1.362 . S
C687 H677 0.930 . S
C687 C680 1.409 . S
C687 C686 1.362 . S
H688 C694 0.930 . S
H689 C697 0.930 . S
H690 C698 0.930 1_556 S
H691 C699 0.930 . S
H692 C702 0.930 . S
H693 C703 0.930 . S
C694 H688 0.930 . S
C694 C695 1.355 . S
C694 C696 1.415 1_554 S
C695 C694 1.355 . S
C695 C697 1.419 . S
C696 C694 1.415 1_556 S
C696 C701 1.425 . S
C696 C703 1.409 . S
C697 H689 0.930 . S
C697 C695 1.419 . S
C697 C698 1.362 . S
C698 H690 0.930 1_554 S
C698 C697 1.362 . S
C698 C701 1.409 1_554 S
C699 H691 0.930 . S
C699 C700 1.355 . S
C699 C701 1.415 . S
C700 C699 1.355 . S
C700 C702 1.419 . S
C701 C696 1.425 . S
C701 C698 1.409 1_556 S
C701 C699 1.415 . S
C702 H692 0.930 . S
C702 C700 1.419 . S
C702 C703 1.362 . S
C703 H693 0.930 . S
C703 C696 1.409 . S
C703 C702 1.362 . S
H704 C710 0.930 . S
H705 C713 0.930 . S
H706 C714 0.930 . S
H707 C715 0.930 . S
H708 C718 0.930 1_455 S
H709 C719 0.930 . S
C710 H704 0.930 . S
C710 C711 1.355 . S
C710 C712 1.415 1_554 S
C711 C710 1.355 . S
C711 C713 1.419 . S
C712 C710 1.415 1_556 S
C712 C717 1.425 . S
C712 C719 1.409 . S
C713 H705 0.930 . S
C713 C711 1.419 . S
C713 C714 1.362 . S
C714 H706 0.930 . S
C714 C713 1.362 . S
C714 C717 1.409 1_554 S
C715 H707 0.930 . S
C715 C716 1.355 . S
C715 C717 1.415 . S
C716 C715 1.355 . S
C716 C718 1.419 . S
C717 C712 1.425 . S
C717 C714 1.409 1_556 S
C717 C715 1.415 . S
C718 H708 0.930 1_655 S
C718 C716 1.419 . S
C718 C719 1.362 . S
C719 H709 0.930 . S
C719 C712 1.409 . S
C719 C718 1.362 . S
H720 C726 0.930 . S
H721 C729 0.930 . S
H722 C730 0.930 . S
H723 C731 0.930 . S
H724 C734 0.930 . S
H725 C735 0.930 1_655 S
C726 H720 0.930 . S
C726 C727 1.355 . S
C726 C728 1.415 . S
C727 C726 1.355 . S
C727 C729 1.419 . S
C728 C726 1.415 . S
C728 C733 1.425 . S
C728 C735 1.409 . S
C729 H721 0.930 . S
C729 C727 1.419 . S
C729 C730 1.362 . S
C730 H722 0.930 . S
C730 C729 1.362 . S
C730 C733 1.409 . S
C731 H723 0.930 . S
C731 C732 1.355 1_455 S
C731 C733 1.415 . S
C732 C731 1.355 1_655 S
C732 C734 1.419 . S
C733 C728 1.425 . S
C733 C730 1.409 . S
C733 C731 1.415 . S
C734 H724 0.930 . S
C734 C732 1.419 . S
C734 C735 1.362 1_655 S
C735 H725 0.930 1_455 S
C735 C728 1.409 . S
C735 C734 1.362 1_455 S
H736 C742 0.930 . S
H737 C745 0.930 . S
H738 C746 0.930 . S
H739 C747 0.930 . S
H740 C750 0.930 . S
H741 C751 0.930 . S
C742 H736 0.930 . S
C742 C743 1.355 . S
C742 C744 1.415 . S
C743 C742 1.355 . S
C743 C745 1.419 . S
C744 C742 1.415 . S
C744 C749 1.425 . S
C744 C751 1.409 . S
C745 H737 0.930 . S
C745 C743 1.419 . S
C745 C746 1.362 . S
C746 H738 0.930 . S
C746 C745 1.362 . S
C746 C749 1.409 . S
C747 H739 0.930 . S
C747 C748 1.355 . S
C747 C749 1.415 1_565 S
C748 C747 1.355 . S
C748 C750 1.419 1_565 S
C749 C744 1.425 . S
C749 C746 1.409 . S
C749 C747 1.415 1_545 S
C750 H740 0.930 . S
C750 C748 1.419 1_545 S
C750 C751 1.362 . S
C751 H741 0.930 . S
C751 C744 1.409 . S
C751 C750 1.362 . S
H752 C758 0.930 . S
H753 C761 0.930 . S
H754 C762 0.930 . S
H755 C763 0.930 . S
H756 C766 0.930 . S
H757 C767 0.930 . S
C758 H752 0.930 . S
C758 C759 1.355 . S
C758 C760 1.415 . S
C759 C758 1.355 . S
C759 C761 1.419 . S
C760 C758 1.415 . S
C760 C765 1.425 . S
C760 C767 1.409 . S
C761 H753 0.930 . S
C761 C759 1.419 . S
C761 C762 1.362 . S
C762 H754 0.930 . S
C762 C761 1.362 . S
C762 C765 1.409 . S
C763 H755 0.930 . S
C763 C764 1.355 . S
C763 C765 1.415 . S
C764 C763 1.355 . S
C764 C766 1.419 . S
C765 C760 1.425 . S
C765 C762 1.409 . S
C765 C763 1.415 . S
C766 H756 0.930 . S
C766 C764 1.419 . S
C766 C767 1.362 . S
C767 H757 0.930 . S
C767 C760 1.409 . S
C767 C766 1.362 . S
H768 C774 0.930 . S
H769 C777 0.930 . S
H770 C778 0.930 . S
H771 C779 0.930 . S
H772 C782 0.930 . S
H773 C783 0.930 . S
C774 H768 0.930 . S
C774 C775 1.355 . S
C774 C776 1.415 . S
C775 C774 1.355 . S
C775 C777 1.419 . S
C776 C774 1.415 . S
C776 C781 1.425 . S
C776 C783 1.409 . S
C777 H769 0.930 . S
C777 C775 1.419 . S
C777 C778 1.362 . S
C778 H770 0.930 . S
C778 C777 1.362 . S
C778 C781 1.409 . S
C779 H771 0.930 . S
C779 C780 1.355 . S
C779 C781 1.415 . S
C780 C779 1.355 . S
C780 C782 1.419 . S
C781 C776 1.425 . S
C781 C778 1.409 . S
C781 C779 1.415 . S
C782 H772 0.930 . S
C782 C780 1.419 . S
C782 C783 1.362 . S
C783 H773 0.930 . S
C783 C776 1.409 . S
C783 C782 1.362 . S
H784 C790 0.930 1_556 S
H785 C793 0.930 . S
H786 C794 0.930 . S
H787 C795 0.930 1_554 S
H788 C798 0.930 . S
H789 C799 0.929 1_455 S
C790 H784 0.930 1_554 S
C790 C791 1.355 . S
C790 C792 1.415 1_554 S
C791 C790 1.355 . S
C791 C793 1.419 . S
C792 C790 1.415 1_556 S
C792 C797 1.425 1_556 S
C792 C799 1.409 . S
C793 H785 0.930 . S
C793 C791 1.419 . S
C793 C794 1.362 . S
C794 H786 0.930 . S
C794 C793 1.362 . S
C794 C797 1.409 . S
C795 H787 0.930 1_556 S
C795 C796 1.355 1_655 S
C795 C797 1.415 1_556 S
C796 C795 1.355 1_455 S
C796 C798 1.419 . S
C797 C792 1.425 1_554 S
C797 C794 1.409 . S
C797 C795 1.415 1_554 S
C798 H788 0.930 . S
C798 C796 1.419 . S
C798 C799 1.362 1_455 S
C799 H789 0.929 1_655 S
C799 C792 1.409 . S
C799 C798 1.362 1_655 S
H800 C806 0.930 . S
H801 C809 0.930 . S
H802 C810 0.930 1_546 S
H803 C811 0.930 . S
H804 C814 0.930 . S
H805 C815 0.930 . S
C806 H800 0.930 . S
C806 C807 1.355 . S
C806 C808 1.415 . S
C807 C806 1.355 . S
C807 C809 1.419 . S
C808 C806 1.415 . S
C808 C813 1.422 1_554 S
C808 C815 1.409 . S
C809 H801 0.930 . S
C809 C807 1.419 . S
C809 C810 1.362 . S
C810 H802 0.930 1_564 S
C810 C809 1.362 . S
C810 C813 1.407 1_554 S
C811 H803 0.930 . S
C811 C812 1.355 . S
C811 C813 1.420 1_545 S
C812 C811 1.355 . S
C812 C814 1.419 1_545 S
C813 C808 1.422 1_556 S
C813 C810 1.407 1_556 S
C813 C811 1.420 1_565 S
C814 H804 0.930 . S
C814 C812 1.419 1_565 S
C814 C815 1.362 1_556 S
C815 H805 0.930 . S
C815 C808 1.409 . S
C815 C814 1.362 1_554 S
H816 C822 0.930 . S
H817 C825 0.930 . S
H818 C826 0.930 . S
H819 C827 0.930 . S
H820 C830 0.930 . S
H821 C831 0.930 . S
C822 H816 0.930 . S
C822 C823 1.355 . S
C822 C824 1.415 . S
C823 C822 1.355 . S
C823 C825 1.419 . S
C824 C822 1.415 . S
C824 C829 1.425 1_554 S
C824 C831 1.409 . S
C825 H817 0.930 . S
C825 C823 1.419 . S
C825 C826 1.362 1_554 S
C826 H818 0.930 . S
C826 C825 1.362 1_556 S
C826 C829 1.409 . S
C827 H819 0.930 . S
C827 C828 1.355 . S
C827 C829 1.415 . S
C828 C827 1.355 . S
C828 C830 1.419 1_556 S
C829 C824 1.425 1_556 S
C829 C826 1.409 . S
C829 C827 1.415 . S
C830 H820 0.930 . S
C830 C828 1.419 1_554 S
C830 C831 1.362 . S
C831 H821 0.930 . S
C831 C824 1.409 . S
C831 C830 1.362 . S
H832 C838 0.930 . S
H833 C841 0.930 . S
H834 C842 0.930 . S
H835 C843 0.930 1_554 S
H836 C846 0.930 . S
H837 C847 0.930 . S
C838 H832 0.930 . S
C838 C839 1.355 . S
C838 C840 1.415 . S
C839 C838 1.355 . S
C839 C841 1.419 . S
C840 C838 1.415 . S
C840 C845 1.425 . S
C840 C847 1.409 1_554 S
C841 H833 0.930 . S
C841 C839 1.419 . S
C841 C842 1.362 . S
C842 H834 0.930 . S
C842 C841 1.362 . S
C842 C845 1.409 . S
C843 H835 0.930 1_556 S
C843 C844 1.355 . S
C843 C845 1.415 1_556 S
C844 C843 1.355 . S
C844 C846 1.419 . S
C845 C840 1.425 . S
C845 C842 1.409 . S
C845 C843 1.415 1_554 S
C846 H836 0.930 . S
C846 C844 1.419 . S
C846 C847 1.362 . S
C847 H837 0.930 . S
C847 C840 1.409 1_556 S
C847 C846 1.362 . S
H848 C854 0.930 . S
H849 C857 0.930 . S
H850 C858 0.930 . S
H851 C859 0.930 . S
H852 C862 0.930 1_655 S
H853 C863 0.930 1_655 S
C854 H848 0.930 . S
C854 C855 1.355 . S
C854 C856 1.415 . S
C855 C854 1.355 . S
C855 C857 1.419 . S
C856 C854 1.415 . S
C856 C861 1.425 . S
C856 C863 1.409 . S
C857 H849 0.930 . S
C857 C855 1.419 . S
C857 C858 1.362 . S
C858 H850 0.930 . S
C858 C857 1.362 . S
C858 C861 1.409 . S
C859 H851 0.930 . S
C859 C860 1.355 . S
C859 C861 1.415 . S
C860 C859 1.355 . S
C860 C862 1.419 . S
C861 C856 1.425 . S
C861 C858 1.409 . S
C861 C859 1.415 . S
C862 H852 0.930 1_455 S
C862 C860 1.419 . S
C862 C863 1.362 . S
C863 H853 0.930 1_455 S
C863 C856 1.409 . S
C863 C862 1.362 . S
H864 C870 0.930 . S
H865 C873 0.930 . S
H866 C874 0.930 1_565 S
H867 C875 0.930 . S
H868 C878 0.930 . S
H869 C879 0.930 . S
C870 H864 0.930 . S
C870 C871 1.355 . S
C870 C872 1.415 . S
C871 C870 1.355 . S
C871 C873 1.419 . S
C872 C870 1.415 . S
C872 C877 1.425 . S
C872 C879 1.409 . S
C873 H865 0.930 . S
C873 C871 1.419 . S
C873 C874 1.362 . S
C874 H866 0.930 1_545 S
C874 C873 1.362 . S
C874 C877 1.409 . S
C875 H867 0.930 . S
C875 C876 1.355 . S
C875 C877 1.415 . S
C876 C875 1.355 . S
C876 C878 1.419 . S
C877 C872 1.425 . S
C877 C874 1.409 . S
C877 C875 1.415 . S
C878 H868 0.930 . S
C878 C876 1.419 . S
C878 C879 1.362 . S
C879 H869 0.930 . S
C879 C872 1.409 . S
C879 C878 1.362 . S
H880 C886 0.930 . S
H881 C889 0.930 . S
H882 C890 0.930 . S
H883 C891 0.930 . S
H884 C894 0.930 . S
H885 C895 0.930 . S
C886 H880 0.930 . S
C886 C887 1.355 . S
C886 C888 1.415 . S
C887 C886 1.355 . S
C887 C889 1.419 . S
C888 C886 1.415 . S
C888 C893 1.425 . S
C888 C895 1.409 . S
C889 H881 0.930 . S
C889 C887 1.419 . S
C889 C890 1.362 . S
C890 H882 0.930 . S
C890 C889 1.362 . S
C890 C893 1.409 . S
C891 H883 0.930 . S
C891 C892 1.355 . S
C891 C893 1.415 . S
C892 C891 1.355 . S
C892 C894 1.419 . S
C893 C888 1.425 . S
C893 C890 1.409 . S
C893 C891 1.415 . S
C894 H884 0.930 . S
C894 C892 1.419 . S
C894 C895 1.362 . S
C895 H885 0.930 . S
C895 C888 1.409 . S
C895 C894 1.362 . S
H896 C902 0.930 . S
H897 C905 0.930 . S
H898 C906 0.930 . S
H899 C907 0.930 . S
H900 C910 0.930 . S
H901 C911 0.930 . S
C902 H896 0.930 . S
C902 C903 1.355 . S
C902 C904 1.415 . S
C903 C902 1.355 . S
C903 C905 1.419 . S
C904 C902 1.415 . S
C904 C909 1.425 . S
C904 C911 1.409 . S
C905 H897 0.930 . S
C905 C903 1.419 . S
C905 C906 1.362 . S
C906 H898 0.930 . S
C906 C905 1.362 . S
C906 C909 1.409 . S
C907 H899 0.930 . S
C907 C908 1.355 . S
C907 C909 1.415 . S
C908 C907 1.355 . S
C908 C910 1.419 . S
C909 C904 1.425 . S
C909 C906 1.409 . S
C909 C907 1.415 . S
C910 H900 0.930 . S
C910 C908 1.419 . S
C910 C911 1.362 . S
C911 H901 0.930 . S
C911 C904 1.409 . S
C911 C910 1.362 . S
H912 C918 0.930 . S
H913 C921 0.930 . S
H914 C922 0.930 1_455 S
H915 C923 0.930 1_455 S
H916 C926 0.930 . S
H917 C927 0.930 . S
C918 H912 0.930 . S
C918 C919 1.355 . S
C918 C920 1.415 . S
C919 C918 1.355 . S
C919 C921 1.419 . S
C920 C918 1.415 . S
C920 C925 1.425 . S
C920 C927 1.409 . S
C921 H913 0.930 . S
C921 C919 1.419 . S
C921 C922 1.362 . S
C922 H914 0.930 1_655 S
C922 C921 1.362 . S
C922 C925 1.409 . S
C923 H915 0.930 1_655 S
C923 C924 1.355 . S
C923 C925 1.415 . S
C924 C923 1.355 . S
C924 C926 1.419 . S
C925 C920 1.425 . S
C925 C922 1.409 . S
C925 C923 1.415 . S
C926 H916 0.930 . S
C926 C924 1.419 . S
C926 C927 1.362 . S
C927 H917 0.930 . S
C927 C920 1.409 . S
C927 C926 1.362 . S
H928 C934 0.930 . S
H929 C937 0.930 1_545 S
H930 C938 0.900 1_545 S
H931 C939 0.930 1_545 S
H932 C942 0.930 . S
H933 C943 0.930 . S
C934 H928 0.930 . S
C934 C935 1.355 . S
C934 C936 1.415 . S
C935 C934 1.355 . S
C935 C937 1.419 . S
C936 C934 1.415 . S
C936 C941 1.425 . S
C936 C943 1.409 . S
C937 H929 0.930 1_565 S
C937 C935 1.419 . S
C937 C938 1.373 . S
C938 H930 0.900 1_565 S
C938 C937 1.373 . S
C938 C941 1.428 . S
C939 H931 0.930 1_565 S
C939 C940 1.355 . S
C939 C941 1.415 . S
C940 C939 1.355 . S
C940 C942 1.419 . S
C941 C936 1.425 . S
C941 C938 1.428 . S
C941 C939 1.415 . S
C942 H932 0.930 . S
C942 C940 1.419 . S
C942 C943 1.362 . S
C943 H933 0.930 . S
C943 C936 1.409 . S
C943 C942 1.362 . S
H944 C950 0.930 . S
H945 C953 0.930 . S
H946 C954 0.930 . S
H947 C955 0.930 . S
H948 C958 0.930 . S
H949 C959 0.930 . S
C950 H944 0.930 . S
C950 C951 1.355 . S
C950 C952 1.415 . S
C951 C950 1.355 . S
C951 C953 1.419 . S
C952 C950 1.415 . S
C952 C957 1.425 . S
C952 C959 1.409 . S
C953 H945 0.930 . S
C953 C951 1.419 . S
C953 C954 1.362 . S
C954 H946 0.930 . S
C954 C953 1.362 . S
C954 C957 1.409 . S
C955 H947 0.930 . S
C955 C956 1.355 . S
C955 C957 1.415 . S
C956 C955 1.355 . S
C956 C958 1.419 . S
C957 C952 1.425 . S
C957 C954 1.409 . S
C957 C955 1.415 . S
C958 H948 0.930 . S
C958 C956 1.419 . S
C958 C959 1.362 . S
C959 H949 0.930 . S
C959 C952 1.409 . S
C959 C958 1.362 . S
H960 C966 0.930 . S
H961 C969 0.930 . S
H962 C970 0.930 . S
H963 C971 0.930 . S
H964 C974 0.930 . S
H965 C975 0.930 . S
C966 H960 0.930 . S
C966 C967 1.355 . S
C966 C968 1.415 . S
C967 C966 1.355 . S
C967 C969 1.419 . S
C968 C966 1.415 . S
C968 C973 1.425 . S
C968 C975 1.409 . S
C969 H961 0.930 . S
C969 C967 1.419 . S
C969 C970 1.362 . S
C970 H962 0.930 . S
C970 C969 1.362 . S
C970 C973 1.409 . S
C971 H963 0.930 . S
C971 C972 1.355 . S
C971 C973 1.415 . S
C972 C971 1.355 . S
C972 C974 1.419 . S
C973 C968 1.425 . S
C973 C970 1.409 . S
C973 C971 1.415 . S
C974 H964 0.930 . S
C974 C972 1.419 . S
C974 C975 1.362 . S
C975 H965 0.930 . S
C975 C968 1.409 . S
C975 C974 1.362 . S
C599 C215 2.275 . S
C604 C330 2.302 . S
C620 C414 2.313 . S
C615 C247 2.276 . S
C636 C480 2.189 . S
C631 C151 2.364 . S
C652 C564 2.147 . S
C647 C183 2.310 . S
C668 C319 2.308 1_565 S
C663 C87 2.157 . S
C679 C119 2.104 . S
C684 C403 2.291 . S
C695 C23 2.258 . S
C700 C491 2.202 . S
C711 C55 2.263 . S
C716 C575 2.208 . S
C732 C326 0.761 . S
C727 C189 0.817 . S
C748 C410 0.753 . S
C743 C221 0.695 . S
C764 C482 0.695 . S
C759 C253 0.669 . S
C775 C157 0.728 . S
C780 C566 0.726 . S
C791 C61 0.777 . S
C796 C314 0.784 . S
C812 C398 0.753 . S
C807 C93 0.681 . S
C828 C494 0.646 . S
C823 C125 0.717 . S
C839 C29 0.650 . S
C844 C578 0.730 . S
C855 C177 2.577 . S
C860 C323 2.644 . S
C871 C209 2.573 . S
C876 C407 2.664 . S
C892 C487 2.727 . S
C887 C241 2.479 . S
C908 C571 2.754 . S
C903 C145 2.504 . S
C919 C49 2.470 . S
C924 C312 2.677 . S
C940 C396 2.650 . S
C935 C81 2.449 . S
C956 C498 2.700 . S
C951 C113 2.399 . S
C967 C17 2.410 . S
C972 C582 2.749 . S
