# Generated by pormake.
# Topology anh, (6,3)-cn, num edge types: 1
# Building blocks:
#     Node 0, Type 0, BuildingBlock: PAMTOO_clean_sbu_0, # of connection points: 6
#     Node 1, Type 0, BuildingBlock: PAMTOO_clean_sbu_0, # of connection points: 6
#     Node 2, Type 0, BuildingBlock: PAMTOO_clean_sbu_0, # of connection points: 6
#     Node 3, Type 1, BuildingBlock: CUQRIR_clean_linker_1, # of connection points: 3
#     Node 4, Type 1, BuildingBlock: CUQRIR_clean_linker_1, # of connection points: 3
#     Node 5, Type 1, BuildingBlock: CUQRIR_clean_linker_1, # of connection points: 3
#     Node 6, Type 1, BuildingBlock: CUQRIR_clean_linker_1, # of connection points: 3
#     Node 7, Type 1, BuildingBlock: CUQRIR_clean_linker_1, # of connection points: 3
#     Node 8, Type 1, BuildingBlock: CUQRIR_clean_linker_1, # of connection points: 3
#     Edge 9, Type (0, 1), BuildingBlock: OJICUG_clean_linker_0, # of connection points: 2
#     Edge 10, Type (0, 1), BuildingBlock: OJICUG_clean_linker_0, # of connection points: 2
#     Edge 11, Type (0, 1), BuildingBlock: OJICUG_clean_linker_0, # of connection points: 2
#     Edge 12, Type (0, 1), BuildingBlock: OJICUG_clean_linker_0, # of connection points: 2
#     Edge 13, Type (0, 1), BuildingBlock: OJICUG_clean_linker_0, # of connection points: 2
#     Edge 14, Type (0, 1), BuildingBlock: OJICUG_clean_linker_0, # of connection points: 2
#     Edge 15, Type (0, 1), BuildingBlock: OJICUG_clean_linker_0, # of connection points: 2
#     Edge 16, Type (0, 1), BuildingBlock: OJICUG_clean_linker_0, # of connection points: 2
#     Edge 17, Type (0, 1), BuildingBlock: OJICUG_clean_linker_0, # of connection points: 2
#     Edge 18, Type (0, 1), BuildingBlock: OJICUG_clean_linker_0, # of connection points: 2
#     Edge 19, Type (0, 1), BuildingBlock: OJICUG_clean_linker_0, # of connection points: 2
#     Edge 20, Type (0, 1), BuildingBlock: OJICUG_clean_linker_0, # of connection points: 2
#     Edge 21, Type (0, 1), BuildingBlock: OJICUG_clean_linker_0, # of connection points: 2
#     Edge 22, Type (0, 1), BuildingBlock: OJICUG_clean_linker_0, # of connection points: 2
#     Edge 23, Type (0, 1), BuildingBlock: OJICUG_clean_linker_0, # of connection points: 2
#     Edge 24, Type (0, 1), BuildingBlock: OJICUG_clean_linker_0, # of connection points: 2
#     Edge 25, Type (0, 1), BuildingBlock: OJICUG_clean_linker_0, # of connection points: 2
#     Edge 26, Type (0, 1), BuildingBlock: OJICUG_clean_linker_0, # of connection points: 2
# Relax obj value: 0.292
# Max RMSD: 0.217
# Mean RMSD: 0.175
data_MOF--net-anh--node1-PAMTOO_clean_sbu_0--node2-CUQRIR_clean_linker_1--edge1-OJICUG_clean_linker_0
_symmetry_space_group_name_H-M    P1
_symmetry_Int_Tables_number       1
_symmetry_cell_setting            triclinic
loop_
_symmetry_equiv_pos_as_xyz
'x, y, z'
_cell_length_a     19.427245
_cell_length_b     19.026408
_cell_length_c     33.112312
_cell_angle_alpha  86.543082
_cell_angle_beta   91.027123
_cell_angle_gamma 92.221278
loop_
_atom_site_label
_atom_site_type_symbol
_atom_site_fract_x
_atom_site_fract_y
_atom_site_fract_z
_atom_type_partial_charge
Dy0 Dy 0.15018 0.54443 0.11291 0.0
Dy1 Dy 1.13566 0.38185 0.15079 0.0
C2 C 1.13381 0.4124 0.05427 0.0
O3 O 1.03772 0.52138 0.10116 0.0
O4 O 1.02567 0.42077 0.14315 0.0
O5 O 0.20829 0.62378 0.07662 0.0
O6 O 1.12555 0.65418 0.11389 0.0
O7 O 0.17978 0.44843 0.19823 0.0
O8 O 1.1216 0.54505 0.17814 0.0
O9 O 0.24963 0.39303 0.13414 0.0
O10 O 0.25697 0.51354 0.1333 0.0
O11 O 1.11263 0.32065 0.20624 0.0
O12 O 1.13012 0.26773 0.15159 0.0
C13 C 0.99844 0.47203 0.11985 0.0
O14 O 1.14406 0.48089 0.05752 0.0
O15 O 1.12648 0.36716 0.08544 0.0
C16 C 0.22851 0.72478 0.1134 0.0
C17 C 0.33085 0.80971 0.15121 0.0
C18 C 0.3179 0.81822 0.10921 0.0
C19 C 0.26728 0.77607 0.0905 0.0
C20 C 0.24054 0.71692 0.15537 0.0
C21 C 0.29067 0.75911 0.17405 0.0
C22 C 0.17999 0.67554 0.0934 0.0
C23 C 0.15099 0.5062 0.20693 0.0
C24 C 0.28717 0.45283 0.13231 0.0
C25 C 1.0424 0.22053 0.19583 0.0
C26 C 0.91157 0.15689 0.2143 0.0
C27 C 0.96605 0.15426 0.24296 0.0
C28 C 1.03071 0.18569 0.23376 0.0
C29 C 0.98867 0.2225 0.1669 0.0
C30 C 0.9242 0.19061 0.17592 0.0
C31 C 1.10772 0.26129 0.18862 0.0
H32 H 0.34824 0.85598 0.09054 0.0
H33 H 0.25951 0.7824 0.05803 0.0
H34 H 0.21193 0.67721 0.17375 0.0
H35 H 0.2981 0.75172 0.2065 0.0
H36 H 0.95829 0.12982 0.27299 0.0
H37 H 1.07108 0.18464 0.25677 0.0
H38 H 0.99601 0.25001 0.13759 0.0
H39 H 0.88416 0.19279 0.15276 0.0
Dy40 Dy 0.60141 0.08423 0.52793 0.0
Dy41 Dy 0.76989 0.09723 0.51942 0.0
C42 C 0.69741 0.10205 0.6055 0.0
O43 O 0.62321 0.20048 0.51554 0.0
O44 O 0.74065 0.20835 0.52627 0.0
O45 O 0.50819 0.05396 0.55997 0.0
O46 O 0.50266 0.1003 0.49854 0.0
O47 O 0.72093 0.11742 0.45807 0.0
O48 O 0.63262 0.039 0.47083 0.0
O49 O 0.74524 0.97988 0.5238 0.0
O50 O 0.63634 0.97825 0.5503 0.0
O51 O 0.85962 0.07748 0.48467 0.0
O52 O 0.87111 0.13193 0.54008 0.0
C53 C 0.68081 0.23782 0.52115 0.0
O54 O 0.64039 0.1207 0.58666 0.0
O55 O 0.74967 0.0787 0.586 0.0
C56 C 0.42128 1.00833 0.5163 0.0
C57 C 0.3387 0.89403 0.48969 0.0
C58 C 0.37429 0.88831 0.52703 0.0
C59 C 0.4152 0.94475 0.54017 0.0
C60 C 0.38365 1.01501 0.47976 0.0
C61 C 0.34311 0.95843 0.46649 0.0
C62 C 0.4691 0.06634 0.52802 0.0
C63 C 0.67382 0.07288 0.44505 0.0
C64 C 0.69167 0.94562 0.54069 0.0
C65 C 0.94376 0.1716 0.48653 0.0
C66 C 1.02036 0.28853 0.45113 0.0
C67 C 0.96458 0.2575 0.43004 0.0
C68 C 0.92647 0.19993 0.44761 0.0
C69 C 1.00044 0.20108 0.50714 0.0
C70 C 1.03813 0.25896 0.48978 0.0
C71 C 0.90077 0.11499 0.50722 0.0
H72 H 0.37106 0.83994 0.546 0.0
H73 H 0.44301 0.93789 0.56869 0.0
H74 H 0.38707 0.06345 0.46083 0.0
H75 H 0.3171 0.96455 0.43736 0.0
H76 H 0.94984 0.27804 0.40006 0.0
H77 H 0.88273 0.17854 0.43101 0.0
H78 H 1.01442 0.18053 0.53729 0.0
H79 H 1.07975 0.28195 0.5074 0.0
Dy80 Dy 0.81413 0.72044 0.83398 0.0
Dy81 Dy 0.65405 0.71028 0.85925 0.0
C82 C 0.69519 0.70756 0.76747 0.0
O83 O 0.79109 0.82998 0.84997 0.0
O84 O 0.6747 0.82251 0.83705 0.0
O85 O 0.88876 0.73036 0.78632 0.0
O86 O 0.92316 0.7205 0.8489 0.0
O87 O 0.72285 0.73664 0.91094 0.0
O88 O 0.80472 0.6643 0.8957 0.0
O89 O 0.68386 0.5968 0.86105 0.0
O90 O 0.78014 0.61034 0.82179 0.0
O91 O 0.54504 0.72563 0.85092 0.0
O92 O 0.58598 0.68783 0.9093 0.0
C93 C 0.73232 0.86026 0.84134 0.0
O94 O 0.75115 0.74345 0.77783 0.0
O95 O 0.65329 0.67948 0.79518 0.0
C96 C 0.97024 0.64716 0.80223 0.0
C97 C 1.00771 0.51522 0.7772 0.0
C98 C 1.0305 0.57768 0.75579 0.0
C99 C 1.01121 0.64331 0.76801 0.0
C100 C 0.94829 0.58473 0.82374 0.0
C101 C 0.96687 0.51967 0.81142 0.0
C102 C 0.93891 0.71338 0.81114 0.0
C103 C 0.76662 0.68939 0.92323 0.0
C104 C 0.73226 0.57003 0.83996 0.0
C105 C 0.48191 0.63444 0.88786 0.0
C106 C 0.39675 0.51158 0.8895 0.0
C107 C 0.43219 0.53052 0.92464 0.0
C108 C 0.47402 0.59195 0.92389 0.0
C109 C 0.44643 0.61493 0.85271 0.0
C110 C 0.4042 0.55413 0.85359 0.0
C111 C 0.53101 0.69554 0.88654 0.0
H112 H 1.0633 0.57562 0.72981 0.0
H113 H 1.02711 0.6908 0.75039 0.0
H114 H 0.91529 0.58596 0.84971 0.0
H115 H 0.95049 0.47271 0.8294 0.0
H116 H 0.42603 0.499 0.95279 0.0
H117 H 0.50051 0.60613 0.95143 0.0
H118 H 0.45148 0.64625 0.82443 0.0
H119 H 0.37679 0.54047 0.82618 0.0
C120 C 0.60199 1.00446 0.21604 0.0
N121 N 0.64248 0.03007 0.24601 0.0
N122 N 0.54489 0.97048 0.2315 0.0
C123 C 0.6208 1.00773 0.17208 0.0
C124 C 0.55212 0.97633 0.27194 0.0
N125 N 0.61186 1.01189 0.28093 0.0
C126 C 0.49794 0.95191 0.30213 0.0
H127 H 0.60169 0.05717 0.15717 0.0
H128 H 0.59689 0.96258 0.15659 0.0
H129 H 0.6775 1.00793 0.16858 0.0
H130 H 0.50864 0.89765 0.3141 0.0
H131 H 0.44599 0.95098 0.28764 0.0
H132 H 0.49809 0.9868 0.3278 0.0
C133 C 0.68822 0.59166 0.54415 0.0
N134 N 0.68604 0.64252 0.57125 0.0
N135 N 0.67809 0.52659 0.56282 0.0
C136 C 0.69686 0.60537 0.49938 0.0
C137 C 0.67017 0.5396 0.60218 0.0
N138 N 0.67427 0.60982 0.60731 0.0
C139 C 0.66376 0.48317 0.63596 0.0
H140 H 0.67094 0.65413 0.48861 0.0
H141 H 0.67583 0.56032 0.48263 0.0
H142 H 0.75259 0.61277 0.4929 0.0
H143 H 0.68539 0.43317 0.62733 0.0
H144 H 0.60845 0.47304 0.64281 0.0
H145 H 0.69065 0.50012 0.66379 0.0
C146 C 0.18042 0.26814 0.84425 0.0
N147 N 0.19574 0.28628 0.88234 0.0
N148 N 1.11267 0.27581 0.83463 0.0
C149 C 0.23439 0.25293 0.81419 0.0
C150 C 1.08559 0.2842 0.87169 0.0
N151 N 1.13564 0.29092 0.90016 0.0
C152 C 1.01069 0.29543 0.87933 0.0
H153 H 0.27229 0.29788 0.81033 0.0
H154 H 0.21063 0.24121 0.78448 0.0
H155 H 0.26342 0.20692 0.82621 0.0
H156 H 0.99747 0.34952 0.86823 0.0
H157 H 0.99927 0.28871 0.91207 0.0
H158 H 0.97772 0.25697 0.86322 0.0
C159 C 0.17806 0.59527 0.43459 0.0
N160 N 0.15543 0.55366 0.40497 0.0
N161 N 0.20017 0.65912 0.41865 0.0
C162 C 0.17579 0.57479 0.47914 0.0
C163 C 0.19042 0.65499 0.37829 0.0
N164 N 0.1623 0.59111 0.36994 0.0
C165 C 0.21509 0.71062 0.34699 0.0
H166 H 1.13005 0.53979 0.48624 0.0
H167 H 0.17456 0.62199 0.49718 0.0
H168 H 0.2226 0.54561 0.48797 0.0
H169 H 0.25719 0.74463 0.35922 0.0
H170 H 0.17151 0.74424 0.33763 0.0
H171 H 0.23387 0.68633 0.31982 0.0
C172 C 0.73332 0.21408 0.82879 0.0
N173 N 0.72813 0.15997 0.80379 0.0
N174 N 0.72556 0.27673 0.80755 0.0
C175 C 0.74777 0.20574 0.87348 0.0
C176 C 0.71551 0.25866 0.76892 0.0
N177 N 0.7168 0.18809 0.76669 0.0
C178 C 0.70601 0.31032 0.73312 0.0
H179 H 0.7189 0.15878 0.88685 0.0
H180 H 0.73414 0.25316 0.88902 0.0
H181 H 0.80356 0.19738 0.87848 0.0
H182 H 0.68229 0.3589 0.74232 0.0
H183 H 0.67345 0.28696 0.70919 0.0
H184 H 0.75718 0.32498 0.7201 0.0
C185 C 0.64459 0.45978 0.11642 0.0
N186 N 0.69917 0.48867 0.09437 0.0
N187 N 0.58256 0.47807 0.09925 0.0
C188 C 0.6514 0.41846 0.15622 0.0
C189 C 0.60164 0.51898 0.06612 0.0
N190 N 0.67127 0.52599 0.06322 0.0
C191 C 0.55158 0.55018 0.03543 0.0
H192 H 0.65723 0.36215 0.15053 0.0
H193 H 0.60479 0.4226 0.17469 0.0
H194 H 0.69758 0.43717 0.17326 0.0
H195 H 0.50249 0.51838 0.03497 0.0
H196 H 0.57393 0.55326 0.00476 0.0
H197 H 0.54019 0.60426 0.04343 0.0
C198 C 0.40292 0.52007 0.13039 0.0
C199 C 0.36545 0.45501 0.12874 0.0
H200 H 0.49992 0.57767 0.12319 0.0
C201 C 0.40363 0.39548 0.12105 0.0
H202 H 0.37673 0.56757 0.13621 0.0
C203 C 0.47574 0.40172 0.11379 0.0
C204 C 0.51193 0.46756 0.11411 0.0
H205 H 0.37746 0.34447 0.11923 0.0
H206 H 0.50264 0.35565 0.10619 0.0
C207 C 0.47425 0.52613 0.12315 0.0
C208 C 1.02167 0.40701 0.4123 0.0
C209 C 1.05756 0.35366 0.43418 0.0
H210 H 1.0258 0.51282 0.38537 0.0
C211 C 1.12846 0.36531 0.44207 0.0
H212 H 0.96701 0.40058 0.40597 0.0
C213 C 0.16137 0.42994 0.4307 0.0
C214 C 1.1245 0.4839 0.41071 0.0
H215 H 0.15832 0.32509 0.4579 0.0
H216 H 0.21524 0.43877 0.43851 0.0
C217 C 1.05502 0.47137 0.40051 0.0
C218 C 0.78907 0.98218 0.84181 0.0
C219 C 0.73106 0.93823 0.83365 0.0
H220 H 0.83329 0.08796 0.83872 0.0
C221 C 0.67197 0.9693 0.81633 0.0
H222 H 0.83548 0.96019 0.85503 0.0
C223 C 0.67126 0.04192 0.80681 0.0
C224 C 0.72917 0.08543 0.81472 0.0
H225 H 0.62638 0.93741 0.80942 0.0
H226 H 0.62532 0.06439 0.79328 0.0
C227 C 0.78794 0.0552 0.83262 0.0
C228 C 0.89 0.54034 0.10451 0.0
C229 C 0.92077 0.47568 0.11505 0.0
H230 H 0.79712 0.59594 0.09226 0.0
C231 C 0.87629 0.4154 0.1204 0.0
H232 H 0.92171 0.58828 0.10066 0.0
C233 C 0.80408 0.41951 0.1141 0.0
C234 C 0.77353 0.48427 0.10312 0.0
H235 H 0.89745 0.36452 0.12843 0.0
H236 H 0.77232 0.37156 0.11699 0.0
C237 C 0.81798 0.54468 0.09929 0.0
C238 C 0.32621 0.76436 0.47928 0.0
C239 C 0.29979 0.83226 0.47403 0.0
H240 H 0.31442 0.65566 0.46548 0.0
C241 C 0.23771 0.841 0.45205 0.0
H242 H 0.3744 0.75578 0.49542 0.0
C243 C 0.20415 0.7837 0.43469 0.0
C244 C 0.23163 0.71664 0.43926 0.0
H245 H 0.2153 0.89222 0.44797 0.0
H246 H 0.15714 0.79165 0.41722 0.0
C247 C 0.29225 0.70707 0.46213 0.0
C248 C 0.68292 0.44566 0.85307 0.0
C249 C 0.73283 0.49276 0.83511 0.0
H250 H 0.64183 0.33863 0.85837 0.0
C251 C 0.78326 0.46556 0.81101 0.0
H252 H 0.64328 0.46468 0.87176 0.0
C253 C 0.7829 0.39392 0.80419 0.0
C254 C 0.73201 0.34745 0.82089 0.0
H255 H 0.82204 0.49988 0.79624 0.0
H256 H 0.82067 0.37483 0.78435 0.0
C257 C 0.68239 0.37355 0.84584 0.0
C258 C 0.63634 0.83172 0.569 0.0
C259 C 0.69181 0.86734 0.54867 0.0
H260 H 0.59115 0.73266 0.59163 0.0
C261 C 0.74558 0.827 0.53555 0.0
H262 H 0.59377 0.86044 0.57956 0.0
C263 C 0.7436 0.75322 0.54252 0.0
C264 C 0.68806 0.71826 0.5629 0.0
H265 H 0.78905 0.85231 0.51975 0.0
H266 H 0.78581 0.72347 0.53249 0.0
C267 C 0.63464 0.75838 0.57605 0.0
C268 C 0.99369 0.38445 0.77332 0.0
C269 C 1.03579 0.44629 0.76953 0.0
H270 H 0.98763 0.27574 0.79456 0.0
C271 C 1.1072 0.44052 0.77133 0.0
H272 H 0.93836 0.38727 0.77032 0.0
C273 C 1.13496 0.37779 0.78627 0.0
C274 C 1.09153 0.3199 0.79961 0.0
H275 H 1.14119 0.48691 0.76765 0.0
H276 H 0.18938 0.37985 0.79325 0.0
C277 C 1.02189 0.32079 0.78749 0.0
C278 C 0.40101 0.92313 0.1594 0.0
C279 C 0.38708 0.85164 0.17119 0.0
H280 H 0.46244 1.01719 0.16972 0.0
C281 C 0.4274 0.82015 0.20258 0.0
H282 H 0.37076 0.94941 0.13566 0.0
C283 C 0.47914 0.85917 0.22206 0.0
C284 C 0.49228 0.93049 0.21057 0.0
H285 H 0.41954 0.76494 0.21193 0.0
H286 H 0.50944 0.83357 0.24602 0.0
C287 C 0.45321 0.9621 0.17888 0.0
C288 C 0.6163 0.34521 0.53673 0.0
C289 C 0.67791 0.31532 0.5257 0.0
H290 H 0.56863 0.43642 0.5575 0.0
C291 C 0.73819 0.35905 0.52316 0.0
H292 H 0.56906 0.31326 0.53939 0.0
C293 C 0.73735 0.42989 0.53289 0.0
C294 C 0.67655 0.45826 0.54589 0.0
H295 H 0.78659 0.33798 0.5148 0.0
H296 H 0.78484 0.46164 0.53222 0.0
C297 C 0.61587 0.41565 0.54711 0.0
C298 C 0.27867 0.46538 0.87781 0.0
C299 C 0.34604 0.45217 0.89071 0.0
H300 H 0.17866 0.42202 0.8654 0.0
C301 C 0.36382 0.38301 0.90315 0.0
H302 H 0.26361 0.51829 0.86858 0.0
C303 C 0.31457 0.3272 0.90115 0.0
C304 C 0.24763 0.34109 0.88731 0.0
H305 H 0.41589 0.37212 0.91322 0.0
H306 H 0.32858 0.27379 0.90975 0.0
C307 C 0.23019 0.41055 0.87617 0.0
C308 C 0.78188 0.1582 0.20914 0.0
C309 C 0.84169 0.12577 0.2245 0.0
H310 H 0.67138 0.15278 0.20437 0.0
C311 C 0.83393 0.06314 0.24929 0.0
H312 H 0.78535 0.20726 0.19082 0.0
C313 C 0.76835 0.03308 0.25762 0.0
C314 C 0.70935 0.06463 0.24113 0.0
H315 H 0.87853 0.0361 0.26134 0.0
H316 H 0.76363 0.98393 0.2758 0.0
C317 C 0.71655 0.12767 0.21718 0.0
C318 C 1.10554 0.41879 0.97969 0.0
C319 C 1.13279 0.38247 0.01413 0.0
H320 H 1.08293 0.41649 0.916 0.0
C321 C 0.15807 0.31483 0.01056 0.0
H322 H 1.08558 0.47082 0.98167 0.0
C323 C 0.15714 0.28447 0.97328 0.0
C324 C 1.12919 0.32002 0.93905 0.0
H325 H 0.17995 0.28579 0.03655 0.0
H326 H 0.17882 0.23332 0.97091 0.0
C327 C 1.10313 0.38742 0.94243 0.0
C328 C 0.67387 0.1105 0.37076 0.0
C329 C 0.66794 0.05715 0.40191 0.0
H330 H 0.65873 0.13794 0.30727 0.0
C331 C 0.65078 0.98795 0.39186 0.0
H332 H 0.68701 0.1643 0.37778 0.0
C333 C 0.63691 0.97271 0.35178 0.0
C334 C 0.63753 1.02661 0.32092 0.0
H335 H 0.64692 0.9456 0.41521 0.0
H336 H 0.62324 0.91896 0.34499 0.0
C337 C 0.65803 0.09543 0.33052 0.0
C338 C 0.62637 0.65085 0.71236 0.0
C339 C 0.68434 0.69147 0.72443 0.0
H340 H 0.57725 0.59421 0.66489 0.0
C341 C 0.73548 0.71052 0.69575 0.0
H342 H 0.58589 0.63545 0.73353 0.0
C343 C 0.73066 0.68614 0.65673 0.0
C344 C 0.67453 0.64264 0.6455 0.0
H345 H 0.7809 0.74166 0.7039 0.0
H346 H 0.77232 0.69852 0.6359 0.0
C347 C 0.62146 0.62694 0.67321 0.0
C348 C 0.76719 0.1163 0.66956 0.0
C349 C 0.70284 0.11159 0.64954 0.0
H350 H 0.82165 0.14453 0.7238 0.0
C351 C 0.6429 0.12221 0.67132 0.0
H352 H 0.81425 0.10843 0.65365 0.0
C353 C 0.64743 0.14192 0.7112 0.0
C354 C 0.71177 0.15132 0.7301 0.0
H355 H 0.59242 0.11821 0.65703 0.0
H356 H 0.60104 0.15403 0.72662 0.0
C357 C 0.77156 0.13645 0.7096 0.0
C358 C 0.71747 0.68131 0.99278 0.0
C359 C 0.75539 0.65054 0.96315 0.0
H360 H 0.66233 0.66551 0.04835 0.0
C361 C 0.77295 0.57951 0.96991 0.0
H362 H 0.70316 0.73578 0.98868 0.0
C363 C 0.74884 0.53912 0.00416 0.0
C364 C 0.7072 0.5692 0.03222 0.0
H365 H 0.8016 0.55394 0.94756 0.0
H366 H 0.75942 0.48361 0.00761 0.0
C367 C 0.69392 0.6412 0.0269 0.0
C368 C 0.18493 0.48556 0.27989 0.0
C369 C 0.15022 0.52593 0.24947 0.0
H370 H 0.21568 0.47512 0.34247 0.0
C371 C 1.11455 0.5847 0.26024 0.0
H372 H 0.2126 0.4397 0.2727 0.0
C373 C 1.1154 0.60384 0.30035 0.0
C374 C 0.15234 0.56502 0.33029 0.0
H375 H 1.08669 0.61644 0.23765 0.0
H376 H 1.08885 0.65015 0.30793 0.0
C377 C 0.18608 0.50509 0.31991 0.0
loop_
_geom_bond_atom_site_label_1
_geom_bond_atom_site_label_2
_geom_bond_distance
_geom_bond_site_symmetry_2
_ccdc_geom_bond_type
Dy0 O3 2.307 1_455 S
Dy0 O5 2.395 . S
Dy0 O6 2.379 . S
Dy0 O8 2.339 . S
Dy0 O10 2.298 . S
Dy0 O14 2.275 . S
Dy0 C22 2.738 . S
Dy1 O4 2.298 . S
Dy1 O7 2.275 1_655 S
Dy1 O9 2.307 1_655 S
Dy1 O11 2.395 . S
Dy1 O12 2.379 . S
Dy1 O15 2.339 . S
Dy1 C31 2.738 . S
C2 O14 1.254 . S
C2 O15 1.257 1_455 S
O3 Dy0 2.307 1_655 S
O3 C13 1.266 . S
O4 Dy1 2.298 . S
O4 C13 1.236 . S
O5 Dy0 2.395 . S
O5 C22 1.255 . S
O6 Dy0 2.379 . S
O6 C22 1.249 . S
O7 Dy1 2.275 1_455 S
O7 C23 1.254 . S
O8 Dy0 2.339 . S
O8 C23 1.257 . S
O9 Dy1 2.307 1_455 S
O9 C24 1.266 . S
O10 Dy0 2.298 . S
O10 C24 1.236 . S
O11 Dy1 2.395 . S
O11 C31 1.255 . S
O12 Dy1 2.379 . S
O12 C31 1.249 . S
C13 O3 1.266 . S
C13 O4 1.236 . S
O14 Dy0 2.275 . S
O14 C2 1.254 . S
O15 Dy1 2.339 . S
O15 C2 1.257 1_655 S
C16 C19 1.344 . S
C16 C20 1.328 . S
C16 C22 1.516 . S
C17 C18 1.304 . S
C17 C21 1.323 . S
C18 C17 1.304 . S
C18 C19 1.371 . S
C18 H32 0.930 . S
C19 C16 1.344 . S
C19 C18 1.371 . S
C19 H33 0.931 . S
C20 C16 1.328 . S
C20 C21 1.433 . S
C20 H34 0.931 . S
C21 C17 1.323 . S
C21 C20 1.433 . S
C21 H35 0.933 . S
C22 Dy0 2.738 . S
C22 O5 1.255 . S
C22 O6 1.249 . S
C22 C16 1.516 . S
C23 O7 1.254 . S
C23 O8 1.257 . S
C24 O9 1.266 . S
C24 O10 1.236 . S
C25 C28 1.344 . S
C25 C29 1.328 . S
C25 C31 1.516 . S
C26 C27 1.304 . S
C26 C30 1.323 . S
C27 C26 1.304 . S
C27 C28 1.371 . S
C27 H36 0.930 . S
C28 C25 1.344 . S
C28 C27 1.371 . S
C28 H37 0.931 . S
C29 C25 1.328 . S
C29 C30 1.433 . S
C29 H38 0.931 . S
C30 C26 1.323 . S
C30 C29 1.433 . S
C30 H39 0.933 . S
C31 Dy1 2.738 . S
C31 O11 1.255 . S
C31 O12 1.249 . S
C31 C25 1.516 . S
H32 C18 0.930 . S
H33 C19 0.931 . S
H34 C20 0.931 . S
H35 C21 0.933 . S
H36 C27 0.930 . S
H37 C28 0.931 . S
H38 C29 0.931 . S
H39 C30 0.933 . S
Dy40 O43 2.307 1_565 S
Dy40 O45 2.395 . S
Dy40 O46 2.379 . S
Dy40 O48 2.339 . S
Dy40 O50 2.298 . S
Dy40 O54 2.275 . S
Dy40 C62 2.738 . S
Dy41 O44 2.298 . S
Dy41 O47 2.275 . S
Dy41 O49 2.307 1_545 S
Dy41 O51 2.395 . S
Dy41 O52 2.379 . S
Dy41 O55 2.339 . S
Dy41 C71 2.738 . S
C42 O54 1.254 1_545 S
C42 O55 1.258 . S
O43 Dy40 2.307 1_545 S
O43 C53 1.266 . S
O44 Dy41 2.298 . S
O44 C53 1.236 . S
O45 Dy40 2.395 . S
O45 C62 1.255 . S
O46 Dy40 2.379 . S
O46 C62 1.249 . S
O47 Dy41 2.275 . S
O47 C63 1.254 . S
O48 Dy40 2.339 . S
O48 C63 1.257 1_565 S
O49 Dy41 2.307 1_565 S
O49 C64 1.266 . S
O50 Dy40 2.298 . S
O50 C64 1.236 . S
O51 Dy41 2.395 . S
O51 C71 1.255 . S
O52 Dy41 2.379 . S
O52 C71 1.249 . S
C53 O43 1.266 . S
C53 O44 1.236 . S
O54 Dy40 2.275 . S
O54 C42 1.254 1_565 S
O55 Dy41 2.339 . S
O55 C42 1.258 . S
C56 C59 1.344 . S
C56 C60 1.328 . S
C56 C62 1.516 . S
C57 C58 1.304 . S
C57 C61 1.323 . S
C58 C57 1.304 . S
C58 C59 1.371 . S
C58 H72 0.930 . S
C59 C56 1.344 . S
C59 C58 1.371 . S
C59 H73 0.931 . S
C60 C56 1.328 . S
C60 C61 1.433 . S
C60 H74 0.931 . S
C61 C57 1.323 . S
C61 C60 1.433 . S
C61 H75 0.933 . S
C62 Dy40 2.738 . S
C62 O45 1.255 . S
C62 O46 1.249 . S
C62 C56 1.516 . S
C63 O47 1.254 . S
C63 O48 1.257 1_545 S
C64 O49 1.266 . S
C64 O50 1.236 . S
C65 C68 1.344 . S
C65 C69 1.328 . S
C65 C71 1.516 . S
C66 C67 1.304 . S
C66 C70 1.323 . S
C67 C66 1.304 . S
C67 C68 1.371 . S
C67 H76 0.930 . S
C68 C65 1.344 . S
C68 C67 1.371 . S
C68 H77 0.931 . S
C69 C65 1.328 . S
C69 C70 1.433 . S
C69 H78 0.931 . S
C70 C66 1.323 . S
C70 C69 1.433 . S
C70 H79 0.933 . S
C71 Dy41 2.738 . S
C71 O51 1.255 . S
C71 O52 1.249 . S
C71 C65 1.516 . S
H72 C58 0.930 . S
H73 C59 0.931 . S
H74 C60 0.931 . S
H75 C61 0.933 . S
H76 C67 0.930 . S
H77 C68 0.931 . S
H78 C69 0.931 . S
H79 C70 0.933 . S
Dy80 O83 2.307 . S
Dy80 O85 2.395 . S
Dy80 O86 2.379 . S
Dy80 O88 2.339 . S
Dy80 O90 2.298 . S
Dy80 O94 2.275 . S
Dy80 C102 2.738 . S
Dy81 O84 2.298 . S
Dy81 O87 2.275 . S
Dy81 O89 2.307 . S
Dy81 O91 2.395 . S
Dy81 O92 2.379 . S
Dy81 O95 2.339 . S
Dy81 C111 2.738 . S
C82 O94 1.254 . S
C82 O95 1.257 . S
O83 Dy80 2.307 . S
O83 C93 1.266 . S
O84 Dy81 2.298 . S
O84 C93 1.236 . S
O85 Dy80 2.395 . S
O85 C102 1.255 . S
O86 Dy80 2.379 . S
O86 C102 1.249 . S
O87 Dy81 2.275 . S
O87 C103 1.254 . S
O88 Dy80 2.339 . S
O88 C103 1.257 . S
O89 Dy81 2.307 . S
O89 C104 1.266 . S
O90 Dy80 2.298 . S
O90 C104 1.236 . S
O91 Dy81 2.395 . S
O91 C111 1.255 . S
O92 Dy81 2.379 . S
O92 C111 1.249 . S
C93 O83 1.266 . S
C93 O84 1.236 . S
O94 Dy80 2.275 . S
O94 C82 1.254 . S
O95 Dy81 2.339 . S
O95 C82 1.257 . S
C96 C99 1.344 . S
C96 C100 1.328 . S
C96 C102 1.516 . S
C97 C98 1.304 . S
C97 C101 1.323 . S
C98 C97 1.304 . S
C98 C99 1.371 . S
C98 H112 0.930 . S
C99 C96 1.344 . S
C99 C98 1.371 . S
C99 H113 0.931 . S
C100 C96 1.328 . S
C100 C101 1.433 . S
C100 H114 0.931 . S
C101 C97 1.323 . S
C101 C100 1.433 . S
C101 H115 0.933 . S
C102 Dy80 2.738 . S
C102 O85 1.255 . S
C102 O86 1.249 . S
C102 C96 1.516 . S
C103 O87 1.254 . S
C103 O88 1.257 . S
C104 O89 1.266 . S
C104 O90 1.236 . S
C105 C108 1.344 . S
C105 C109 1.328 . S
C105 C111 1.516 . S
C106 C107 1.304 . S
C106 C110 1.323 . S
C107 C106 1.304 . S
C107 C108 1.371 . S
C107 H116 0.930 . S
C108 C105 1.344 . S
C108 C107 1.371 . S
C108 H117 0.931 . S
C109 C105 1.328 . S
C109 C110 1.433 . S
C109 H118 0.931 . S
C110 C106 1.323 . S
C110 C109 1.433 . S
C110 H119 0.933 . S
C111 Dy81 2.738 . S
C111 O91 1.255 . S
C111 O92 1.249 . S
C111 C105 1.516 . S
H112 C98 0.930 . S
H113 C99 0.931 . S
H114 C100 0.931 . S
H115 C101 0.933 . S
H116 C107 0.930 . S
H117 C108 0.931 . S
H118 C109 0.931 . S
H119 C110 0.933 . S
C120 N121 1.317 . S
C120 N122 1.348 1_545 S
C120 C123 1.485 . S
N121 C120 1.317 . S
N121 N125 1.370 . S
N122 C120 1.348 1_565 S
N122 C124 1.346 . S
C123 C120 1.485 . S
C123 H127 0.960 . S
C123 H128 0.961 1_545 S
C123 H129 0.960 . S
C124 N122 1.346 . S
C124 N125 1.307 1_565 S
C124 C126 1.486 . S
N125 N121 1.370 . S
N125 C124 1.307 1_545 S
C126 C124 1.486 . S
C126 H130 0.960 . S
C126 H131 0.960 . S
C126 H132 0.959 . S
H127 C123 0.960 . S
H128 C123 0.961 1_565 S
H129 C123 0.960 . S
H130 C126 0.960 . S
H131 C126 0.960 . S
H132 C126 0.959 . S
C133 N134 1.317 . S
C133 N135 1.348 . S
C133 C136 1.485 . S
N134 C133 1.317 . S
N134 N138 1.370 . S
N135 C133 1.348 . S
N135 C137 1.346 . S
C136 C133 1.485 . S
C136 H140 0.960 . S
C136 H141 0.961 . S
C136 H142 0.960 . S
C137 N135 1.346 . S
C137 N138 1.307 . S
C137 C139 1.486 . S
N138 N134 1.370 . S
N138 C137 1.307 . S
C139 C137 1.486 . S
C139 H143 0.960 . S
C139 H144 0.960 . S
C139 H145 0.959 . S
H140 C136 0.960 . S
H141 C136 0.961 . S
H142 C136 0.960 . S
H143 C139 0.960 . S
H144 C139 0.960 . S
H145 C139 0.959 . S
C146 N147 1.317 . S
C146 N148 1.348 1_455 S
C146 C149 1.485 . S
N147 C146 1.317 . S
N147 N151 1.370 . S
N148 C146 1.348 1_655 S
N148 C150 1.346 . S
C149 C146 1.485 . S
C149 H153 0.960 . S
C149 H154 0.961 1_455 S
C149 H155 0.960 . S
C150 N148 1.346 . S
C150 N151 1.307 1_655 S
C150 C152 1.486 . S
N151 N147 1.370 . S
N151 C150 1.307 1_455 S
C152 C150 1.486 . S
C152 H156 0.960 . S
C152 H157 0.960 . S
C152 H158 0.959 . S
H153 C149 0.960 . S
H154 C149 0.961 1_655 S
H155 C149 0.960 . S
H156 C152 0.960 . S
H157 C152 0.960 . S
H158 C152 0.959 . S
C159 N160 1.317 . S
C159 N161 1.348 . S
C159 C162 1.485 . S
N160 C159 1.317 . S
N160 N164 1.370 . S
N161 C159 1.348 . S
N161 C163 1.346 . S
C162 C159 1.485 . S
C162 H166 0.960 . S
C162 H167 0.961 . S
C162 H168 0.960 . S
C163 N161 1.346 . S
C163 N164 1.307 . S
C163 C165 1.486 . S
N164 N160 1.370 . S
N164 C163 1.307 . S
C165 C163 1.486 . S
C165 H169 0.960 . S
C165 H170 0.960 . S
C165 H171 0.959 . S
H166 C162 0.960 . S
H167 C162 0.961 . S
H168 C162 0.960 . S
H169 C165 0.960 . S
H170 C165 0.960 . S
H171 C165 0.959 . S
C172 N173 1.317 1_545 S
C172 N174 1.348 . S
C172 C175 1.485 . S
N173 C172 1.317 1_565 S
N173 N177 1.370 1_565 S
N174 C172 1.348 . S
N174 C176 1.346 . S
C175 C172 1.485 . S
C175 H179 0.960 . S
C175 H180 0.961 . S
C175 H181 0.960 1_545 S
C176 N174 1.346 . S
C176 N177 1.307 . S
C176 C178 1.486 . S
N177 N173 1.370 1_545 S
N177 C176 1.307 . S
C178 C176 1.486 . S
C178 H182 0.960 . S
C178 H183 0.960 . S
C178 H184 0.959 . S
H179 C175 0.960 . S
H180 C175 0.961 . S
H181 C175 0.960 1_565 S
H182 C178 0.960 . S
H183 C178 0.960 . S
H184 C178 0.959 . S
C185 N186 1.317 . S
C185 N187 1.348 . S
C185 C188 1.485 . S
N186 C185 1.317 . S
N186 N190 1.370 . S
N187 C185 1.348 . S
N187 C189 1.346 . S
C188 C185 1.485 . S
C188 H192 0.960 . S
C188 H193 0.961 . S
C188 H194 0.960 . S
C189 N187 1.346 . S
C189 N190 1.307 . S
C189 C191 1.486 . S
N190 N186 1.370 . S
N190 C189 1.307 . S
C191 C189 1.486 . S
C191 H195 0.960 . S
C191 H196 0.960 . S
C191 H197 0.959 . S
H192 C188 0.960 . S
H193 C188 0.961 . S
H194 C188 0.960 . S
H195 C191 0.960 . S
H196 C191 0.960 . S
H197 C191 0.959 . S
C198 C199 1.387 . S
C198 H202 0.950 . S
C198 C207 1.390 . S
C199 C198 1.387 . S
C199 C201 1.387 . S
H200 C207 0.950 . S
C201 C199 1.387 . S
C201 C203 1.390 . S
C201 H205 0.950 . S
H202 C198 0.950 . S
C203 C201 1.390 . S
C203 C204 1.387 . S
C203 H206 0.950 . S
C204 C203 1.387 . S
C204 C207 1.387 . S
H205 C201 0.950 . S
H206 C203 0.950 . S
C207 C198 1.390 . S
C207 H200 0.950 . S
C207 C204 1.387 . S
C208 C209 1.387 . S
C208 H212 0.950 . S
C208 C217 1.390 . S
C209 C208 1.387 . S
C209 C211 1.387 . S
H210 C217 0.950 . S
C211 C209 1.387 . S
C211 C213 1.390 . S
C211 H215 0.950 . S
H212 C208 0.950 . S
C213 C211 1.390 . S
C213 C214 1.387 . S
C213 H216 0.950 1_655 S
C214 C213 1.387 . S
C214 C217 1.387 . S
H215 C211 0.950 . S
H216 C213 0.950 1_455 S
C217 C208 1.390 . S
C217 H210 0.950 . S
C217 C214 1.387 . S
C218 C219 1.387 . S
C218 H222 0.950 . S
C218 C227 1.390 . S
C219 C218 1.387 . S
C219 C221 1.387 . S
H220 C227 0.950 . S
C221 C219 1.387 . S
C221 C223 1.390 . S
C221 H225 0.950 . S
H222 C218 0.950 . S
C223 C221 1.390 . S
C223 C224 1.387 . S
C223 H226 0.950 . S
C224 C223 1.387 . S
C224 C227 1.387 . S
H225 C221 0.950 . S
H226 C223 0.950 . S
C227 C218 1.390 . S
C227 H220 0.950 . S
C227 C224 1.387 . S
C228 C229 1.387 . S
C228 H232 0.950 . S
C228 C237 1.390 . S
C229 C228 1.387 . S
C229 C231 1.387 . S
H230 C237 0.950 . S
C231 C229 1.387 . S
C231 C233 1.390 . S
C231 H235 0.950 . S
H232 C228 0.950 . S
C233 C231 1.390 . S
C233 C234 1.387 . S
C233 H236 0.950 . S
C234 C233 1.387 . S
C234 C237 1.387 . S
H235 C231 0.950 . S
H236 C233 0.950 . S
C237 C228 1.390 . S
C237 H230 0.950 . S
C237 C234 1.387 . S
C238 C239 1.387 . S
C238 H242 0.950 . S
C238 C247 1.390 . S
C239 C238 1.387 . S
C239 C241 1.387 . S
H240 C247 0.950 . S
C241 C239 1.387 . S
C241 C243 1.390 . S
C241 H245 0.950 . S
H242 C238 0.950 . S
C243 C241 1.390 . S
C243 C244 1.387 . S
C243 H246 0.950 . S
C244 C243 1.387 . S
C244 C247 1.387 . S
H245 C241 0.950 . S
H246 C243 0.950 . S
C247 C238 1.390 . S
C247 H240 0.950 . S
C247 C244 1.387 . S
C248 C249 1.387 . S
C248 H252 0.950 . S
C248 C257 1.390 . S
C249 C248 1.387 . S
C249 C251 1.387 . S
H250 C257 0.950 . S
C251 C249 1.387 . S
C251 C253 1.390 . S
C251 H255 0.950 . S
H252 C248 0.950 . S
C253 C251 1.390 . S
C253 C254 1.387 . S
C253 H256 0.950 . S
C254 C253 1.387 . S
C254 C257 1.387 . S
H255 C251 0.950 . S
H256 C253 0.950 . S
C257 C248 1.390 . S
C257 H250 0.950 . S
C257 C254 1.387 . S
C258 C259 1.387 . S
C258 H262 0.950 . S
C258 C267 1.390 . S
C259 C258 1.387 . S
C259 C261 1.387 . S
H260 C267 0.950 . S
C261 C259 1.387 . S
C261 C263 1.390 . S
C261 H265 0.950 . S
H262 C258 0.950 . S
C263 C261 1.390 . S
C263 C264 1.387 . S
C263 H266 0.950 . S
C264 C263 1.387 . S
C264 C267 1.387 . S
H265 C261 0.950 . S
H266 C263 0.950 . S
C267 C258 1.390 . S
C267 H260 0.950 . S
C267 C264 1.387 . S
C268 C269 1.387 . S
C268 H272 0.950 . S
C268 C277 1.390 . S
C269 C268 1.387 . S
C269 C271 1.387 . S
H270 C277 0.950 . S
C271 C269 1.387 . S
C271 C273 1.390 . S
C271 H275 0.950 . S
H272 C268 0.950 . S
C273 C271 1.390 . S
C273 C274 1.387 . S
C273 H276 0.950 . S
C274 C273 1.387 . S
C274 C277 1.387 . S
H275 C271 0.950 . S
H276 C273 0.950 . S
C277 C268 1.390 . S
C277 H270 0.950 . S
C277 C274 1.387 . S
C278 C279 1.387 . S
C278 H282 0.950 . S
C278 C287 1.390 . S
C279 C278 1.387 . S
C279 C281 1.387 . S
H280 C287 0.950 1_545 S
C281 C279 1.387 . S
C281 C283 1.390 . S
C281 H285 0.950 . S
H282 C278 0.950 . S
C283 C281 1.390 . S
C283 C284 1.387 . S
C283 H286 0.950 . S
C284 C283 1.387 . S
C284 C287 1.387 . S
H285 C281 0.950 . S
H286 C283 0.950 . S
C287 C278 1.390 . S
C287 H280 0.950 1_565 S
C287 C284 1.387 . S
C288 C289 1.387 . S
C288 H292 0.950 . S
C288 C297 1.390 . S
C289 C288 1.387 . S
C289 C291 1.387 . S
H290 C297 0.950 . S
C291 C289 1.387 . S
C291 C293 1.390 . S
C291 H295 0.950 . S
H292 C288 0.950 . S
C293 C291 1.390 . S
C293 C294 1.387 . S
C293 H296 0.950 . S
C294 C293 1.387 . S
C294 C297 1.387 . S
H295 C291 0.950 . S
H296 C293 0.950 . S
C297 C288 1.390 . S
C297 H290 0.950 . S
C297 C294 1.387 . S
C298 C299 1.387 . S
C298 H302 0.950 . S
C298 C307 1.390 . S
C299 C298 1.387 . S
C299 C301 1.387 . S
H300 C307 0.950 . S
C301 C299 1.387 . S
C301 C303 1.390 . S
C301 H305 0.950 . S
H302 C298 0.950 . S
C303 C301 1.390 . S
C303 C304 1.387 . S
C303 H306 0.950 . S
C304 C303 1.387 . S
C304 C307 1.387 . S
H305 C301 0.950 . S
H306 C303 0.950 . S
C307 C298 1.390 . S
C307 H300 0.950 . S
C307 C304 1.387 . S
C308 C309 1.387 . S
C308 H312 0.950 . S
C308 C317 1.390 . S
C309 C308 1.387 . S
C309 C311 1.387 . S
H310 C317 0.950 . S
C311 C309 1.387 . S
C311 C313 1.390 . S
C311 H315 0.950 . S
H312 C308 0.950 . S
C313 C311 1.390 . S
C313 C314 1.387 . S
C313 H316 0.950 . S
C314 C313 1.387 . S
C314 C317 1.387 . S
H315 C311 0.950 . S
H316 C313 0.950 . S
C317 C308 1.390 . S
C317 H310 0.950 . S
C317 C314 1.387 . S
C318 C319 1.387 1_655 S
C318 H322 0.950 . S
C318 C327 1.391 1_554 S
C319 C318 1.387 1_455 S
C319 C321 1.387 . S
H320 C327 0.951 . S
C321 C319 1.387 . S
C321 C323 1.390 1_554 S
C321 H325 0.950 . S
H322 C318 0.950 . S
C323 C321 1.390 1_556 S
C323 C324 1.387 . S
C323 H326 0.950 . S
C324 C323 1.387 . S
C324 C327 1.385 1_455 S
H325 C321 0.950 . S
H326 C323 0.950 . S
C327 C318 1.391 1_556 S
C327 H320 0.951 . S
C327 C324 1.385 1_655 S
C328 C329 1.387 . S
C328 H332 0.950 . S
C328 C337 1.390 . S
C329 C328 1.387 . S
C329 C331 1.387 1_545 S
H330 C337 0.950 . S
C331 C329 1.387 1_565 S
C331 C333 1.390 . S
C331 H335 0.950 . S
H332 C328 0.950 . S
C333 C331 1.390 . S
C333 C334 1.387 1_565 S
C333 H336 0.950 . S
C334 C333 1.387 1_545 S
C334 C337 1.387 . S
H335 C331 0.950 . S
H336 C333 0.950 . S
C337 C328 1.390 . S
C337 H330 0.950 . S
C337 C334 1.387 . S
C338 C339 1.387 . S
C338 H342 0.950 . S
C338 C347 1.390 . S
C339 C338 1.387 . S
C339 C341 1.387 . S
H340 C347 0.950 . S
C341 C339 1.387 . S
C341 C343 1.390 . S
C341 H345 0.950 . S
H342 C338 0.950 . S
C343 C341 1.390 . S
C343 C344 1.387 . S
C343 H346 0.950 . S
C344 C343 1.387 . S
C344 C347 1.387 . S
H345 C341 0.950 . S
H346 C343 0.950 . S
C347 C338 1.390 . S
C347 H340 0.950 . S
C347 C344 1.387 . S
C348 C349 1.387 1_545 S
C348 H352 0.950 . S
C348 C357 1.390 . S
C349 C348 1.387 1_565 S
C349 C351 1.387 . S
H350 C357 0.950 . S
C351 C349 1.387 . S
C351 C353 1.390 . S
C351 H355 0.950 . S
H352 C348 0.950 . S
C353 C351 1.390 . S
C353 C354 1.387 1_565 S
C353 H356 0.950 . S
C354 C353 1.387 1_545 S
C354 C357 1.387 . S
H355 C351 0.950 . S
H356 C353 0.950 . S
C357 C348 1.390 . S
C357 H350 0.950 . S
C357 C354 1.387 . S
C358 C359 1.387 . S
C358 H362 0.950 . S
C358 C367 1.390 1_556 S
C359 C358 1.387 . S
C359 C361 1.387 . S
H360 C367 0.950 . S
C361 C359 1.387 . S
C361 C363 1.390 1_556 S
C361 H365 0.950 . S
H362 C358 0.950 . S
C363 C361 1.390 1_554 S
C363 C364 1.387 . S
C363 H366 0.950 . S
C364 C363 1.387 . S
C364 C367 1.387 . S
H365 C361 0.950 . S
H366 C363 0.950 . S
C367 C358 1.390 1_554 S
C367 H360 0.950 . S
C367 C364 1.387 . S
C368 C369 1.387 . S
C368 H372 0.950 . S
C368 C377 1.390 . S
C369 C368 1.387 . S
C369 C371 1.387 1_455 S
H370 C377 0.950 . S
C371 C369 1.387 1_655 S
C371 C373 1.390 . S
C371 H375 0.950 . S
H372 C368 0.950 . S
C373 C371 1.390 . S
C373 C374 1.387 1_655 S
C373 H376 0.950 . S
C374 C373 1.387 1_455 S
C374 C377 1.387 . S
H375 C371 0.950 . S
H376 C373 0.950 . S
C377 C368 1.390 . S
C377 H370 0.950 . S
C377 C374 1.387 . S
C199 C24 2.884 . S
C204 N187 2.858 . S
C209 C66 1.254 . S
C214 N160 1.285 1_655 S
C219 C93 1.800 . S
C224 N173 1.825 . S
C229 C13 3.298 . S
C234 N186 3.325 . S
C244 N161 1.494 . S
C239 C57 1.452 . S
C254 N174 1.966 . S
C249 C104 1.994 . S
C259 C64 1.868 . S
C264 N134 1.866 . S
C269 C97 0.792 . S
C274 N148 0.811 . S
C279 C17 1.505 . S
C284 N122 1.587 . S
C294 N135 1.885 . S
C289 C53 1.894 . S
C304 N147 0.918 . S
C299 C106 0.875 . S
C309 C26 1.371 . S
C314 N121 1.423 . S
C324 N151 1.126 . S
C319 C2 1.161 . S
C329 C63 1.486 . S
C334 N125 1.576 . S
C339 C82 1.430 . S
C344 N138 1.422 . S
C354 N177 1.538 . S
C349 C42 1.523 1_565 S
C364 N190 1.780 . S
C359 C103 1.739 . S
C369 C23 1.494 . S
C374 N164 1.568 . S
