# Generated by pormake.
# Topology anh, (6,3)-cn, num edge types: 1
# Building blocks:
#     Node 0, Type 0, BuildingBlock: BETFAJ_clean_sbu_0, # of connection points: 6
#     Node 1, Type 0, BuildingBlock: BETFAJ_clean_sbu_0, # of connection points: 6
#     Node 2, Type 0, BuildingBlock: BETFAJ_clean_sbu_0, # of connection points: 6
#     Node 3, Type 1, BuildingBlock: VETTIZ_charged_linker_0, # of connection points: 3
#     Node 4, Type 1, BuildingBlock: VETTIZ_charged_linker_0, # of connection points: 3
#     Node 5, Type 1, BuildingBlock: VETTIZ_charged_linker_0, # of connection points: 3
#     Node 6, Type 1, BuildingBlock: VETTIZ_charged_linker_0, # of connection points: 3
#     Node 7, Type 1, BuildingBlock: VETTIZ_charged_linker_0, # of connection points: 3
#     Node 8, Type 1, BuildingBlock: VETTIZ_charged_linker_0, # of connection points: 3
#     Edge 9, Type (0, 1), BuildingBlock: AJUNOK_clean_linker_0, # of connection points: 2
#     Edge 10, Type (0, 1), BuildingBlock: AJUNOK_clean_linker_0, # of connection points: 2
#     Edge 11, Type (0, 1), BuildingBlock: AJUNOK_clean_linker_0, # of connection points: 2
#     Edge 12, Type (0, 1), BuildingBlock: AJUNOK_clean_linker_0, # of connection points: 2
#     Edge 13, Type (0, 1), BuildingBlock: AJUNOK_clean_linker_0, # of connection points: 2
#     Edge 14, Type (0, 1), BuildingBlock: AJUNOK_clean_linker_0, # of connection points: 2
#     Edge 15, Type (0, 1), BuildingBlock: AJUNOK_clean_linker_0, # of connection points: 2
#     Edge 16, Type (0, 1), BuildingBlock: AJUNOK_clean_linker_0, # of connection points: 2
#     Edge 17, Type (0, 1), BuildingBlock: AJUNOK_clean_linker_0, # of connection points: 2
#     Edge 18, Type (0, 1), BuildingBlock: AJUNOK_clean_linker_0, # of connection points: 2
#     Edge 19, Type (0, 1), BuildingBlock: AJUNOK_clean_linker_0, # of connection points: 2
#     Edge 20, Type (0, 1), BuildingBlock: AJUNOK_clean_linker_0, # of connection points: 2
#     Edge 21, Type (0, 1), BuildingBlock: AJUNOK_clean_linker_0, # of connection points: 2
#     Edge 22, Type (0, 1), BuildingBlock: AJUNOK_clean_linker_0, # of connection points: 2
#     Edge 23, Type (0, 1), BuildingBlock: AJUNOK_clean_linker_0, # of connection points: 2
#     Edge 24, Type (0, 1), BuildingBlock: AJUNOK_clean_linker_0, # of connection points: 2
#     Edge 25, Type (0, 1), BuildingBlock: AJUNOK_clean_linker_0, # of connection points: 2
#     Edge 26, Type (0, 1), BuildingBlock: AJUNOK_clean_linker_0, # of connection points: 2
# Relax obj value: 0.217
# Max RMSD: 0.226
# Mean RMSD: 0.167
data_MOF--net-anh--node1-BETFAJ_clean_sbu_0--node2-VETTIZ_charged_linker_0--edge1-AJUNOK_clean_linker_0
_symmetry_space_group_name_H-M    P1
_symmetry_Int_Tables_number       1
_symmetry_cell_setting            triclinic
loop_
_symmetry_equiv_pos_as_xyz
'x, y, z'
_cell_length_a     27.726302
_cell_length_b     35.173407
_cell_length_c     53.086772
_cell_angle_alpha  92.017602
_cell_angle_beta   89.025033
_cell_angle_gamma 131.04692
loop_
_atom_site_label
_atom_site_type_symbol
_atom_site_fract_x
_atom_site_fract_y
_atom_site_fract_z
_atom_type_partial_charge
Sm0 Sm 0.17783 0.52649 0.13278 0.0
Sm1 Sm 1.08128 0.53264 0.1531 0.0
C2 C 0.27822 0.55078 0.10928 0.0
C3 C 0.34447 0.59352 0.11665 0.0
C4 C 0.39548 0.60838 0.10138 0.0
C5 C 0.45809 0.64416 0.11061 0.0
C6 C 0.46999 0.66494 0.13527 0.0
C7 C 0.41906 0.65334 0.14953 0.0
C8 C 0.3567 0.61789 0.14026 0.0
C9 C 0.1666 0.5215 0.18407 0.0
C10 C 0.22247 0.63921 0.14753 0.0
C11 C 0.98583 0.51293 0.17914 0.0
C12 C 0.91727 0.46852 0.17846 0.0
C13 C 0.88112 0.45204 0.20057 0.0
C14 C 0.815 0.41175 0.19947 0.0
C15 C 0.78433 0.38774 0.17619 0.0
C16 C 0.82176 0.40221 0.15445 0.0
C17 C 0.88765 0.44186 0.15562 0.0
C18 C 1.09463 0.53863 0.10175 0.0
C19 C 1.03636 0.4198 0.13797 0.0
O20 O 0.24602 0.56302 0.10095 0.0
O21 O 0.24638 0.51489 0.12565 0.0
O22 O 0.16722 0.55074 0.17084 0.0
O23 O 0.17868 0.49709 0.17075 0.0
O24 O 0.23235 0.61264 0.13398 0.0
O25 O 0.16886 0.6163 0.1602 0.0
O26 O 1.02251 0.50516 0.1877 0.0
O27 O 1.00885 0.5405 0.15907 0.0
O28 O 1.0923 0.50865 0.11511 0.0
O29 O 1.08537 0.56491 0.11522 0.0
O30 O 1.02462 0.44629 0.15031 0.0
O31 O 1.09144 0.442 0.12655 0.0
H32 H 0.38678 0.59025 0.08305 0.0
H33 H 0.49649 0.65171 0.09943 0.0
H34 H 0.42696 0.66829 0.16866 0.0
H35 H 0.31765 0.60704 0.15225 0.0
H36 H 0.9036 0.47147 0.21847 0.0
H37 H 0.78728 0.40155 0.2165 0.0
H38 H 0.79968 0.38569 0.13612 0.0
H39 H 0.915 0.45317 0.13841 0.0
Sm40 Sm 0.69525 0.04594 0.48042 0.0
Sm41 Sm 0.61001 0.06645 0.46574 0.0
C42 C 0.74434 1.01097 0.50164 0.0
C43 C 0.72593 0.96124 0.50376 0.0
C44 C 0.71669 0.94212 0.52777 0.0
C45 C 0.69737 0.89454 0.5304 0.0
C46 C 0.68761 0.86541 0.50907 0.0
C47 C 0.69686 0.88439 0.48499 0.0
C48 C 0.71558 0.9319 0.48233 0.0
C49 C 0.68701 0.05141 0.42941 0.0
C50 C 0.54041 0.94985 0.47033 0.0
C51 C 0.56194 0.1032 0.4458 0.0
C52 C 0.57767 0.15158 0.45077 0.0
C53 C 0.56191 0.17096 0.43332 0.0
C54 C 0.57849 0.21771 0.4382 0.0
C55 C 0.61127 0.24564 0.46056 0.0
C56 C 0.62671 0.22576 0.47795 0.0
C57 C 0.61063 0.17946 0.47299 0.0
C58 C 0.61957 0.06225 0.51683 0.0
C59 C 0.76643 0.16241 0.47416 0.0
O60 O 0.70818 1.01701 0.51373 0.0
O61 O 0.76157 0.03102 0.47943 0.0
O62 O 0.64087 0.02953 0.4445 0.0
O63 O 0.7394 0.06901 0.44085 0.0
O64 O 0.59301 0.96719 0.48246 0.0
O65 O 0.53787 0.98087 0.45844 0.0
O66 O 0.60722 0.10636 0.43505 0.0
O67 O 0.53506 0.07213 0.46446 0.0
O68 O 0.66518 0.0837 0.50153 0.0
O69 O 0.56703 0.0446 0.50556 0.0
O70 O 0.71205 0.14493 0.46363 0.0
O71 O 0.77096 0.13198 0.48537 0.0
H72 H 0.72421 0.96399 0.54454 0.0
H73 H 0.69091 0.88073 0.54917 0.0
H74 H 0.68909 0.86231 0.4683 0.0
H75 H 0.72167 0.94546 0.46354 0.0
H76 H 0.53691 0.15003 0.41598 0.0
H77 H 0.56585 0.23208 0.42452 0.0
H78 H 0.65016 0.24551 0.49568 0.0
H79 H 0.62356 0.16519 0.48662 0.0
Sm80 Sm 0.67181 0.57003 0.82061 0.0
Sm81 Sm 0.57895 0.45947 0.83059 0.0
C82 C 0.73527 0.66185 0.8035 0.0
C83 C 0.72694 0.69876 0.80141 0.0
C84 C 0.7723 0.74304 0.78834 0.0
C85 C 0.76371 0.77754 0.78515 0.0
C86 C 0.70941 0.76811 0.79491 0.0
C87 C 0.66456 0.72411 0.80839 0.0
C88 C 0.67347 0.68978 0.81176 0.0
C89 C 0.66054 0.54766 0.87051 0.0
C90 C 0.51647 0.51153 0.82847 0.0
C91 C 0.52324 0.36899 0.84727 0.0
C92 C 0.53617 0.33498 0.84247 0.0
C93 C 0.52169 0.30087 0.86064 0.0
C94 C 0.53688 0.27024 0.85641 0.0
C95 C 0.56657 0.27323 0.83388 0.0
C96 C 0.58121 0.30776 0.81584 0.0
C97 C 0.56651 0.33849 0.82015 0.0
C98 C 0.59463 0.48143 0.78044 0.0
C99 C 0.73438 0.51782 0.8225 0.0
O100 O 0.69755 0.62069 0.78937 0.0
O101 O 0.74262 0.65328 0.82627 0.0
O102 O 0.61459 0.52647 0.85516 0.0
O103 O 0.71446 0.5837 0.86004 0.0
O104 O 0.57223 0.54999 0.8186 0.0
O105 O 0.50924 0.47365 0.83785 0.0
O106 O 0.56778 0.4107 0.85995 0.0
O107 O 0.50146 0.37628 0.82805 0.0
O108 O 0.63855 0.5028 0.79666 0.0
O109 O 0.53959 0.44538 0.7902 0.0
O110 O 0.67787 0.47894 0.83159 0.0
O111 O 0.74312 0.55696 0.8141 0.0
H112 H 0.81384 0.75051 0.78024 0.0
H113 H 0.79846 0.81082 0.77436 0.0
H114 H 0.62251 0.71622 0.81614 0.0
H115 H 0.63837 0.65598 0.82214 0.0
H116 H 0.49928 0.29833 0.87818 0.0
H117 H 0.52621 0.24479 0.87088 0.0
H118 H 0.60367 0.31078 0.79823 0.0
H119 H 0.57908 0.36519 0.80604 0.0
C120 C 0.78848 0.16797 0.15584 0.0
C121 C 0.84304 0.2143 0.16682 0.0
C122 C 0.85175 0.2182 0.19308 0.0
C123 C 0.75322 0.13207 0.19745 0.0
C124 C 0.74437 0.12694 0.1716 0.0
C125 C 0.68453 0.07369 0.16393 0.0
H126 H 0.42131 0.8393 0.20395 0.0
C127 C 0.69946 0.08408 0.2089 0.0
C128 C 0.65846 0.04894 0.1895 0.0
H129 H 0.47297 0.88258 0.12664 0.0
H130 H 0.56747 0.96768 0.1407 0.0
H131 H 0.55546 0.8869 0.2219 0.0
H132 H 0.45333 0.93987 0.22469 0.0
H133 H 0.49328 0.95788 0.25376 0.0
H134 H 0.43508 0.89187 0.24467 0.0
H135 H 0.49466 0.86561 0.24478 0.0
H136 H 0.57747 0.92052 0.25072 0.0
C137 C 0.70491 0.04916 0.14766 0.0
C138 C 0.63831 0.07637 0.1502 0.0
C139 C 0.69124 0.07448 0.30448 0.0
C140 C 0.64866 0.0352 0.32097 0.0
C141 C 0.59424 0.98818 0.31091 0.0
C142 C 0.58301 0.98009 0.28487 0.0
C143 C 0.62673 1.01937 0.26855 0.0
C144 C 0.67958 0.06559 0.27846 0.0
C145 C 0.72136 0.1026 0.25829 0.0
C146 C 0.68487 0.07083 0.23458 0.0
C147 C 0.62958 0.02239 0.24076 0.0
C148 C 0.78789 0.1176 0.26013 0.0
C149 C 0.72238 0.14709 0.26182 0.0
C150 C 0.45236 0.86716 0.18996 0.0
C151 C 0.43898 0.85451 0.16424 0.0
C152 C 0.48204 0.89159 0.14665 0.0
C153 C 0.53682 0.94082 0.15484 0.0
C154 C 0.54924 0.95277 0.18088 0.0
C155 C 0.50693 0.91564 0.19775 0.0
C156 C 0.52688 0.93278 0.22461 0.0
C157 C 0.58821 0.98649 0.22147 0.0
C158 C 0.60195 0.99901 0.19586 0.0
C159 C 0.53893 0.89977 0.23634 0.0
C160 C 0.47455 0.93029 0.23785 0.0
H161 H 0.81724 0.18405 0.22816 0.0
H162 H 0.78073 0.16385 0.13565 0.0
H163 H 0.63238 0.1005 0.16124 0.0
H164 H 0.59012 0.03905 0.14772 0.0
H165 H 0.657 0.09278 0.13133 0.0
H166 H 0.74687 0.05673 0.1563 0.0
H167 H 0.71852 0.06458 0.12844 0.0
H168 H 0.66715 1.00779 0.146 0.0
H169 H 0.7329 0.11137 0.31162 0.0
H170 H 0.56087 0.95725 0.32321 0.0
H171 H 0.54094 0.94329 0.27851 0.0
H172 H 0.78459 0.08766 0.26887 0.0
H173 H 0.82181 0.15277 0.27175 0.0
H174 H 0.80921 0.1223 0.24144 0.0
H175 H 0.67459 0.13328 0.26764 0.0
H176 H 0.73304 0.16732 0.24432 0.0
H177 H 0.75741 0.17446 0.27664 0.0
H178 H 0.8927 0.25338 0.20198 0.0
C179 C 0.80744 0.17776 0.20833 0.0
C180 C 0.63759 0.65183 0.52309 0.0
C181 C 0.63589 0.6851 0.53773 0.0
C182 C 0.63032 0.68061 0.56409 0.0
C183 C 0.63181 0.61268 0.56113 0.0
C184 C 0.63575 0.61608 0.5352 0.0
C185 C 0.6389 0.57852 0.52283 0.0
H186 H 0.65971 0.39847 0.5359 0.0
C187 C 0.63459 0.57397 0.56804 0.0
C188 C 0.63918 0.5539 0.54575 0.0
H189 H 0.63765 0.44717 0.46689 0.0
H190 H 0.63768 0.50754 0.49058 0.0
H191 H 0.75912 0.50858 0.56447 0.0
H192 H 0.55416 0.39105 0.5649 0.0
H193 H 0.57897 0.41347 0.59613 0.0
H194 H 0.6064 0.38505 0.57981 0.0
H195 H 0.71968 0.45066 0.58035 0.0
H196 H 0.7343 0.50405 0.59572 0.0
C197 C 0.70219 0.60789 0.50802 0.0
C198 C 0.57794 0.54077 0.50639 0.0
C199 C 0.62522 0.53627 0.66024 0.0
C200 C 0.63168 0.50531 0.67264 0.0
C201 C 0.64465 0.47824 0.65865 0.0
C202 C 0.6496 0.48105 0.63234 0.0
C203 C 0.64176 0.51145 0.62001 0.0
C204 C 0.63112 0.5392 0.63401 0.0
C205 C 0.62787 0.57174 0.61791 0.0
C206 C 0.63556 0.55732 0.59182 0.0
C207 C 0.64309 0.52174 0.59314 0.0
C208 C 0.68484 0.62779 0.62532 0.0
C209 C 0.56102 0.55556 0.62129 0.0
C210 C 0.65613 0.42292 0.52594 0.0
C211 C 0.64986 0.4191 0.49961 0.0
C212 C 0.64315 0.45012 0.4872 0.0
C213 C 0.64294 0.48484 0.50098 0.0
C214 C 0.64835 0.48776 0.52743 0.0
C215 C 0.65447 0.45685 0.53944 0.0
C216 C 0.65466 0.46208 0.56765 0.0
C217 C 0.64768 0.50125 0.57067 0.0
C218 C 0.64489 0.51672 0.54708 0.0
C219 C 0.72 0.48203 0.57779 0.0
C220 C 0.59592 0.41035 0.57788 0.0
H221 H 0.62463 0.64364 0.59597 0.0
H222 H 0.64084 0.6539 0.50275 0.0
H223 H 0.53703 0.53654 0.51398 0.0
H224 H 0.56093 0.50218 0.50615 0.0
H225 H 0.58591 0.55351 0.48673 0.0
H226 H 0.74267 0.64064 0.51956 0.0
H227 H 0.69945 0.62255 0.49041 0.0
H228 H 0.71533 0.58501 0.5031 0.0
H229 H 0.61624 0.558 0.67078 0.0
H230 H 0.64995 0.45434 0.66809 0.0
H231 H 0.65889 0.45919 0.62262 0.0
H232 H 0.72513 0.6326 0.63373 0.0
H233 H 0.67034 0.64271 0.63938 0.0
H234 H 0.70612 0.65238 0.60887 0.0
H235 H 0.52329 0.51378 0.62198 0.0
H236 H 0.54703 0.5662 0.60549 0.0
H237 H 0.55877 0.57181 0.63912 0.0
H238 H 0.62945 0.70603 0.57578 0.0
C239 C 0.62818 0.64464 0.57584 0.0
C240 C 0.26968 0.51943 0.83581 0.0
C241 C 0.31491 0.52111 0.84971 0.0
C242 C 0.31823 0.52924 0.87594 0.0
C243 C 0.23242 0.53124 0.87487 0.0
C244 C 0.22835 0.52443 0.84895 0.0
C245 C 0.17564 0.52305 0.83864 0.0
H246 H 0.93104 0.52402 0.8716 0.0
C247 C 0.18345 0.53363 0.88372 0.0
C248 C 0.1488 0.52889 0.86274 0.0
H249 H 0.9789 0.51579 0.79522 0.0
H250 H 1.06648 0.52052 0.81081 0.0
H251 H 0.941 0.45061 0.89406 0.0
H252 H 1.06903 0.611 0.88855 0.0
H253 H 1.08631 0.60197 0.91815 0.0
H254 H 1.00676 0.57798 0.91152 0.0
H255 H 0.93563 0.48973 0.91414 0.0
H256 H 0.98268 0.47349 0.92278 0.0
C257 C 0.1245 0.47206 0.82487 0.0
C258 C 0.20614 0.56775 0.82128 0.0
C259 C 0.16244 0.54841 0.97855 0.0
C260 C 0.11981 0.54894 -0.00702 0.0
C261 C 1.07435 0.54767 0.98058 0.0
C262 C 1.07032 0.54488 0.95432 0.0
C263 C 1.11213 0.54322 0.94003 0.0
C264 C 0.15751 0.54541 0.95215 0.0
C265 C 0.19729 0.54276 0.93382 0.0
C266 C 0.16788 0.53832 0.90866 0.0
C267 C 1.11823 0.53854 0.91257 0.0
C268 C 0.18638 0.49449 0.93926 0.0
C269 C 0.26761 0.59299 0.93664 0.0
C270 C 0.95975 0.5229 0.858 0.0
C271 C 0.9471 0.51891 0.83229 0.0
C272 C 0.9872 0.51868 0.81532 0.0
C273 C 1.0378 0.52132 0.82434 0.0
C274 C 1.04911 0.52497 0.85057 0.0
C275 C 1.00993 0.52622 0.86652 0.0
C276 C 1.02715 0.53206 0.89353 0.0
C277 C 1.0828 0.53368 0.89194 0.0
C278 C 1.09705 0.52919 0.86685 0.0
C279 C 0.96882 0.48442 0.90704 0.0
C280 C 1.04801 0.58306 0.90369 0.0
H281 H 0.2841 0.54015 0.90839 0.0
H282 H 0.26587 0.51346 0.81555 0.0
H283 H 0.24572 0.60376 0.83127 0.0
H284 H 0.17112 0.57102 0.81522 0.0
H285 H 0.22606 0.56343 0.80419 0.0
H286 H 1.10597 0.44049 0.83748 0.0
H287 H 0.14488 0.46792 0.80788 0.0
H288 H 1.08343 0.46815 0.81885 0.0
H289 H 0.19851 0.55 0.98755 0.0
H290 H 1.04062 0.54757 0.99127 0.0
H291 H 1.03386 0.54334 0.94634 0.0
H292 H 0.1373 0.46421 0.94645 0.0
H293 H 0.22066 0.50229 0.9537 0.0
H294 H 0.18946 0.47724 0.92222 0.0
H295 H 0.26997 0.62483 0.94262 0.0
H296 H 0.29402 0.60498 0.91867 0.0
H297 H 0.29397 0.5904 0.95099 0.0
H298 H 0.35245 0.53144 0.8871 0.0
C299 C 0.27807 0.53438 0.88839 0.0
C300 C 1.02567 0.41252 0.45668 0.0
C301 C 0.98181 0.3638 0.44535 0.0
C302 C 0.98445 0.35729 0.41928 0.0
C303 C 1.07109 0.44702 0.41551 0.0
C304 C 1.07025 0.45383 0.44129 0.0
C305 C 0.12108 0.50892 0.44936 0.0
H306 H 0.34784 0.75293 0.41235 0.0
C307 C 1.11951 0.49676 0.40442 0.0
C308 C 0.14929 0.53376 0.42401 0.0
H309 H 0.30201 0.70273 0.48885 0.0
H310 H 0.22171 0.61542 0.47349 0.0
H311 H 0.35073 0.66873 0.3919 0.0
H312 H 0.20774 0.68235 0.3912 0.0
H313 H 0.1984 0.65172 0.36253 0.0
H314 H 0.27281 0.71473 0.3694 0.0
H315 H 0.3559 0.7122 0.37263 0.0
H316 H 0.31547 0.6485 0.36176 0.0
C317 C 0.17051 0.51439 0.46608 0.0
C318 C 1.08831 0.52637 0.46268 0.0
C319 C 0.1444 0.5065 0.30924 0.0
C320 C 0.17846 0.54703 0.29278 0.0
C321 C 0.217 0.59666 0.30307 0.0
C322 C 0.22162 0.60573 0.32918 0.0
C323 C 0.18693 0.56478 0.34533 0.0
C324 C 0.14839 0.51622 0.33525 0.0
C325 C 1.11142 0.47735 0.35512 0.0
C326 C 0.1357 0.51069 0.3789 0.0
C327 C 0.18044 0.56167 0.37305 0.0
C328 C 0.13136 0.4452 0.35432 0.0
C329 C 1.03903 0.44702 0.35028 0.0
C330 C 0.32023 0.7232 0.42584 0.0
C331 C 0.33082 0.73458 0.45175 0.0
C332 C 0.29468 0.69472 0.46873 0.0
C333 C 0.24824 0.64421 0.45977 0.0
C334 C 0.23857 0.63353 0.4336 0.0
C335 C 0.27494 0.67305 0.41725 0.0
C336 C 0.26141 0.65581 0.39013 0.0
C337 C 0.21127 0.59929 0.39261 0.0
C338 C 0.19684 0.58582 0.41805 0.0
C339 C 0.32391 0.67225 0.37825 0.0
C340 C 0.23407 0.67736 0.37744 0.0
H341 H 1.02766 0.39058 0.38461 0.0
H342 H 1.02466 0.41823 0.47679 0.0
H343 H 1.04665 0.51434 0.45138 0.0
H344 H 0.12031 0.56773 0.46507 0.0
H345 H 1.07071 0.50969 0.48155 0.0
H346 H 0.18023 0.4901 0.45852 0.0
H347 H 0.15267 0.50293 0.48564 0.0
H348 H 0.21737 0.55305 0.46665 0.0
H349 H 1.11521 0.4679 0.30214 0.0
H350 H 0.24317 0.62862 0.29087 0.0
H351 H 0.25187 0.64436 0.33572 0.0
H352 H 0.18356 0.46924 0.35084 0.0
H353 H 1.10573 0.41576 0.33899 0.0
H354 H 0.1233 0.42703 0.37233 0.0
H355 H 1.03086 0.46881 0.33937 0.0
H356 H 1.01208 0.43839 0.36791 0.0
H357 H 1.01673 0.4113 0.33943 0.0
H358 H 0.95129 0.32003 0.41035 0.0
C359 C 1.02873 0.3984 0.40436 0.0
C360 C 0.66693 0.93298 0.77516 0.0
C361 C 0.67103 0.90103 0.76059 0.0
C362 C 0.66871 0.90104 0.73415 0.0
C363 C 0.65905 0.96464 0.73688 0.0
C364 C 0.66038 0.96415 0.7629 0.0
C365 C 0.65239 0.99899 0.77524 0.0
H366 H 0.6202 0.17284 0.7618 0.0
C367 C 0.65172 1.00088 0.72994 0.0
C368 C 0.64738 1.02104 0.75233 0.0
H369 H 0.61924 0.11217 0.83122 0.0
H370 H 0.63317 0.05924 0.8078 0.0
H371 H 0.73339 0.18196 0.73361 0.0
H372 H 0.52818 0.07173 0.73373 0.0
H373 H 0.55015 0.06773 0.70326 0.0
H374 H 0.57071 0.12593 0.71449 0.0
H375 H 0.68318 0.19133 0.71998 0.0
H376 H 0.70756 0.16199 0.70214 0.0
C377 C 0.71306 0.03962 0.79114 0.0
C378 C 0.58971 0.96684 0.79059 0.0
C379 C 0.64798 0.03248 0.63741 0.0
C380 C 0.6387 0.0622 0.62541 0.0
C381 C 0.63098 0.092 0.63999 0.0
C382 C 0.63262 0.0924 0.66633 0.0
C383 C 0.64127 0.06214 0.67823 0.0
C384 C 0.64852 0.03269 0.66382 0.0
C385 C 0.65419 1.00126 0.67981 0.0
C386 C 0.64947 1.01698 0.70615 0.0
C387 C 0.64249 0.05289 0.70503 0.0
C388 C 0.72071 1.01761 0.67503 0.0
C389 C 0.59688 0.94479 0.67348 0.0
C390 C 0.62378 0.14853 0.77193 0.0
C391 C 0.61953 0.14683 0.79824 0.0
C392 C 0.62275 0.11399 0.81087 0.0
C393 C 0.63073 0.08341 0.79725 0.0
C394 C 0.63452 0.08532 0.77075 0.0
C395 C 0.63057 0.11736 0.75863 0.0
C396 C 0.63184 0.1129 0.73048 0.0
C397 C 0.63815 0.07337 0.72753 0.0
C398 C 0.64025 0.05747 0.75111 0.0
C399 C 0.69176 0.16467 0.72082 0.0
C400 C 0.56729 0.09395 0.71974 0.0
H401 H 0.66193 0.93119 0.70202 0.0
H402 H 0.66785 0.9331 0.79555 0.0
H403 H 0.55291 0.92912 0.78129 0.0
H404 H 0.5672 0.98358 0.79198 0.0
H405 H 0.59806 0.96077 0.80986 0.0
H406 H 0.7568 0.05401 0.78048 0.0
H407 H 0.71314 0.02382 0.80889 0.0
H408 H 0.71838 0.07298 0.79592 0.0
H409 H 0.6531 1.00873 0.62647 0.0
H410 H 0.6237 0.11504 0.63093 0.0
H411 H 0.62662 0.11602 0.67637 0.0
H412 H 0.75803 0.05935 0.67391 0.0
H413 H 0.72104 1.00084 0.65697 0.0
H414 H 0.73675 1.00765 0.69034 0.0
H415 H 0.55461 0.9391 0.66684 0.0
H416 H 0.57948 0.92091 0.6901 0.0
H417 H 0.60922 0.92982 0.65838 0.0
H418 H 0.67196 0.87669 0.72268 0.0
C419 C 0.66306 0.93279 0.72222 0.0
C420 C 0.5555 0.37174 0.13833 0.0
C421 C 0.57608 0.34586 0.13033 0.0
C422 C 0.5865 0.34464 0.10417 0.0
C423 C 0.57878 0.40811 0.09725 0.0
C424 C 0.56521 0.40709 0.12252 0.0
C425 C 0.58257 0.45568 0.1318 0.0
H426 H 0.6561 0.67267 0.10492 0.0
C427 C 0.59875 0.4551 0.08714 0.0
C428 C 0.60309 0.4838 0.10752 0.0
H429 H 0.63594 0.61563 0.17896 0.0
H430 H 0.62397 0.54694 0.15976 0.0
H431 H 0.75455 0.65591 0.08455 0.0
H432 H 0.55447 0.57755 0.07836 0.0
H433 H 0.57648 0.56953 0.04882 0.0
H434 H 0.61388 0.63225 0.06058 0.0
H435 H 0.72402 0.67532 0.06401 0.0
H436 H 0.73231 0.63038 0.05369 0.0
C437 C 0.63943 0.4826 0.15079 0.0
C438 C 0.52213 0.44364 0.14287 0.0
C439 C 0.6221 0.48281 0.99238 0.0
C440 C 0.63848 0.52298 0.97831 0.0
C441 C 0.65168 0.56484 0.9908 0.0
C442 C 0.64888 0.56711 0.017 0.0
C443 C 0.63309 0.5272 0.03099 0.0
C444 C 0.61993 0.48582 0.01881 0.0
C445 C 0.60742 0.44852 0.03727 0.0
C446 C 0.61151 0.47322 0.06227 0.0
C447 C 0.62766 0.51959 0.05832 0.0
C448 C 0.66124 0.44611 0.03479 0.0
C449 C 0.53977 0.39719 0.03229 0.0
C450 C 0.65307 0.64773 0.11752 0.0
C451 C 0.64549 0.64971 0.14375 0.0
C452 C 0.64015 0.61464 0.15869 0.0
C453 C 0.63325 0.57458 0.14747 0.0
C454 C 0.63488 0.57084 0.12108 0.0
C455 C 0.64816 0.60859 0.10674 0.0
C456 C 0.64964 0.59935 0.07902 0.0
C457 C 0.63427 0.54933 0.07903 0.0
C458 C 0.62396 0.53219 0.10359 0.0
C459 C 0.71836 0.64245 0.06959 0.0
C460 C 0.59635 0.59472 0.0658 0.0
H461 H 0.59732 0.37402 0.06817 0.0
H462 H 0.54476 0.37255 0.15793 0.0
H463 H 0.48118 0.4191 0.12947 0.0
H464 H 0.52835 0.4777 0.14658 0.0
H465 H 0.50852 0.42347 0.1608 0.0
H466 H 0.66637 0.46942 0.14828 0.0
H467 H 0.62264 0.47581 0.1706 0.0
H468 H 0.6762 0.52371 0.14801 0.0
H469 H 0.61277 0.45063 0.98308 0.0
H470 H 0.66419 0.59595 0.98016 0.0
H471 H 0.65934 0.60006 0.0253 0.0
H472 H 0.70427 0.47966 0.02537 0.0
H473 H 0.64497 0.4122 0.02355 0.0
H474 H 0.67888 0.44626 0.05339 0.0
H475 H 0.50374 0.4018 0.03252 0.0
H476 H 0.52531 0.36945 0.0466 0.0
H477 H 0.53724 0.38082 0.01355 0.0
H478 H 0.60234 0.32553 0.09668 0.0
C479 C 0.58582 0.37444 0.08751 0.0
C480 C 0.52329 0.65369 0.16665 0.0
C481 C 0.5293 0.684 0.14808 0.0
C482 C 0.5701 0.65007 0.16942 0.0
C483 C 0.62405 0.67679 0.15362 0.0
H484 H 0.47815 0.62662 0.17616 0.0
H485 H 0.55791 0.62005 0.1809 0.0
S486 S 0.67639 0.78152 0.11309 0.0
N487 N 0.60237 0.75463 0.12101 0.0
N488 N 0.69338 0.75095 0.12788 0.0
C489 C 0.63784 0.717 0.14041 0.0
C490 C 0.58913 0.71946 0.13691 0.0
C491 C 0.8155 0.25053 0.46422 0.0
C492 C 0.8235 0.21703 0.47205 0.0
C493 C 0.86812 0.30025 0.45801 0.0
C494 C 0.9308 0.31859 0.45952 0.0
H495 H 0.76804 0.23767 0.46173 0.0
H496 H 0.85947 0.32353 0.45042 0.0
S497 S 0.97914 0.24873 0.48095 0.0
N498 N 0.90031 0.20774 0.48279 0.0
N499 N 0.99877 0.30116 0.47081 0.0
C500 C 0.94002 0.28688 0.46877 0.0
C501 C 0.88649 0.23616 0.47518 0.0
C502 C 0.64103 0.7829 0.77636 0.0
C503 C 0.69737 0.80221 0.78923 0.0
C504 C 0.63184 0.81508 0.76791 0.0
C505 C 0.67808 0.8675 0.77249 0.0
H506 H 0.60507 0.74288 0.77184 0.0
H507 H 0.58896 0.79902 0.75721 0.0
S508 S 0.83146 0.93641 0.80693 0.0
N509 N 0.79852 0.87667 0.80723 0.0
N510 N 0.78057 0.93709 0.79169 0.0
C511 C 0.73322 0.88705 0.78629 0.0
C512 C 0.74308 0.8544 0.79455 0.0
C513 C 0.69123 0.38169 0.18197 0.0
C514 C 0.71493 0.35885 0.17301 0.0
C515 C 0.63896 0.3714 0.17035 0.0
C516 C 0.60781 0.3375 0.14926 0.0
H517 H 0.71809 0.41277 0.1957 0.0
H518 H 0.62954 0.39563 0.17629 0.0
S519 S 0.63356 0.25063 0.1273 0.0
N520 N 0.6917 0.2893 0.14799 0.0
N521 N 0.59069 0.26787 0.12666 0.0
C522 C 0.62299 0.30687 0.14387 0.0
C523 C 0.6773 0.31808 0.15558 0.0
C524 C 0.42922 0.87616 0.45536 0.0
C525 C 0.48489 0.89439 0.4685 0.0
C526 C 0.37832 0.82433 0.45124 0.0
C527 C 0.38044 0.78831 0.46025 0.0
H528 H 0.42537 0.90209 0.4475 0.0
H529 H 0.33754 0.81229 0.44026 0.0
S530 S 0.51321 0.81511 0.49671 0.0
N531 N 0.53754 0.87136 0.49142 0.0
N532 N 0.44154 0.77401 0.48356 0.0
C533 C 0.43439 0.80558 0.47427 0.0
C534 C 0.48665 0.85854 0.4784 0.0
C535 C 0.64203 0.26166 0.81823 0.0
C536 C 0.58233 0.24061 0.82869 0.0
C537 C 0.65518 0.23113 0.80979 0.0
C538 C 0.60952 0.17852 0.81183 0.0
H539 H 0.67821 0.30197 0.81579 0.0
H540 H 0.70053 0.24861 0.80075 0.0
S541 S 0.44721 0.10453 0.83861 0.0
N542 N 0.47782 0.16365 0.84121 0.0
N543 N 0.50356 0.10655 0.82583 0.0
C544 C 0.55101 0.15707 0.82337 0.0
C545 C 0.5372 0.18808 0.83174 0.0
C546 C 0.616 0.77996 0.52721 0.0
C547 C 0.66921 0.81582 0.51239 0.0
C548 C 0.60312 0.73597 0.53394 0.0
C549 C 0.64329 0.72649 0.52627 0.0
H550 H 0.58536 0.7868 0.53434 0.0
H551 H 0.56278 0.71009 0.54608 0.0
S552 S 0.78722 0.80785 0.48627 0.0
N553 N 0.76052 0.83814 0.48916 0.0
N554 N 0.73699 0.7557 0.50215 0.0
C555 C 0.69487 0.76091 0.51038 0.0
C556 C 0.70771 0.8056 0.50339 0.0
C557 C 0.78 0.47698 0.83316 0.0
C558 C 0.78815 0.51663 0.82186 0.0
C559 C 0.83029 0.47636 0.83472 0.0
C560 C 0.89147 0.51489 0.82476 0.0
H561 H 0.7348 0.44668 0.84172 0.0
H562 H 0.82186 0.44618 0.84474 0.0
S563 S 0.93813 0.62569 0.79154 0.0
N564 N 0.86266 0.5944 0.79914 0.0
N565 N 0.95635 0.59282 0.80214 0.0
C566 C 0.89974 0.55357 0.81239 0.0
C567 C 0.84854 0.55454 0.81094 0.0
C568 C 0.33502 0.71896 0.13851 0.0
C569 C 0.27488 0.6954 0.14961 0.0
C570 C 0.387 0.77107 0.14193 0.0
C571 C 0.38111 0.80186 0.15662 0.0
H572 H 0.34289 0.6968 0.12768 0.0
H573 H 0.43289 0.78687 0.13403 0.0
S574 S 0.23312 0.76106 0.18741 0.0
N575 N 0.21195 0.70876 0.1742 0.0
N576 N 0.30931 0.80614 0.18054 0.0
C577 C 0.32069 0.77947 0.16676 0.0
C578 C 0.26777 0.72651 0.16329 0.0
C579 C 0.57816 0.29692 0.46433 0.0
C580 C 0.62606 0.29389 0.46671 0.0
C581 C 0.58773 0.33927 0.47363 0.0
C582 C 0.64533 0.37977 0.48571 0.0
H583 H 0.53177 0.26528 0.45646 0.0
H584 H 0.5486 0.33912 0.47264 0.0
S585 S 0.7891 0.39404 0.49322 0.0
N586 N 0.73612 0.3381 0.47911 0.0
N587 N 0.75302 0.41688 0.49731 0.0
C588 C 0.69484 0.37862 0.48688 0.0
C589 C 0.68548 0.33588 0.47718 0.0
C590 C 0.40672 0.47465 0.84438 0.0
C591 C 0.4617 0.51162 0.83035 0.0
C592 C 0.35716 0.47574 0.84854 0.0
C593 C 0.35906 0.51357 0.83879 0.0
H594 H 0.4027 0.44533 0.85314 0.0
H595 H 0.31806 0.44782 0.86063 0.0
S596 S 0.48825 0.61674 0.79864 0.0
N597 N 0.5117 0.5853 0.80486 0.0
N598 N 0.41919 0.58742 0.8131 0.0
C599 C 0.41188 0.54932 0.82365 0.0
C600 C 0.46279 0.54836 0.81938 0.0
C601 C 1.00388 0.33677 0.14799 0.0
C602 C 0.98736 0.36393 0.13882 0.0
C603 C 0.95644 0.28621 0.15482 0.0
C604 C 0.89076 0.26063 0.15226 0.0
H605 H 1.05354 0.35577 0.15177 0.0
H606 H 0.97115 0.26795 0.16372 0.0
S607 S 0.8232 0.3124 0.12483 0.0
N608 N 0.90131 0.35992 0.12461 0.0
N609 N 0.81236 0.26466 0.13691 0.0
C610 C 0.87399 0.28606 0.14094 0.0
C611 C 0.92223 0.33781 0.13443 0.0
C612 C 1.10913 0.57845 0.06116 0.0
C613 C 1.10491 0.54236 0.07425 0.0
C614 C 1.11648 0.58161 0.03496 0.0
C615 C 0.11995 0.54879 0.02089 0.0
H616 H 1.10591 0.60411 0.07117 0.0
H617 H 1.11851 0.60946 0.02558 0.0
S618 S 1.11285 0.44834 0.04628 0.0
N619 N 1.10663 0.47402 0.07131 0.0
N620 N 1.11948 0.47953 0.022 0.0
C621 C 1.11742 0.51336 0.03381 0.0
C622 C 1.11002 0.51017 0.06051 0.0
C623 C 0.62025 0.02944 0.39148 0.0
C624 C 0.6798 0.05022 0.40181 0.0
C625 C 0.61101 0.02562 0.36535 0.0
C626 C 0.6609 0.04242 0.34856 0.0
H627 H 0.58027 1.01559 0.40363 0.0
H628 H 0.56422 1.00917 0.35823 0.0
S629 S 0.82603 0.0998 0.36605 0.0
N630 N 0.78976 0.08853 0.39328 0.0
N631 N 0.77195 0.08039 0.34414 0.0
C632 C 0.72095 0.06391 0.35866 0.0
C633 C 0.73046 0.068 0.38529 0.0
C634 C 0.5547 0.47115 0.73688 0.0
C635 C 0.60584 0.48932 0.75313 0.0
C636 C 0.56371 0.47716 0.7108 0.0
C637 C 0.62382 0.50062 0.70016 0.0
H638 H 0.50746 0.45232 0.74436 0.0
H639 H 0.52325 0.46272 0.69881 0.0
S640 S 0.77325 0.55518 0.73432 0.0
N641 N 0.71914 0.5327 0.75664 0.0
N642 N 0.73527 0.54273 0.7075 0.0
C643 C 0.67533 0.51905 0.7161 0.0
C644 C 0.66655 0.51377 0.74266 0.0
C645 C 0.5728 0.04204 0.55985 0.0
C646 C 0.62605 0.06222 0.5444 0.0
C647 C 0.57729 0.04195 0.58608 0.0
C648 C 0.63484 0.06121 0.59771 0.0
H649 H 0.52736 0.02657 0.55168 0.0
H650 H 0.53544 0.02662 0.59738 0.0
S651 S 0.7883 0.11871 0.56609 0.0
N652 N 0.73868 0.10303 0.54288 0.0
N653 N 0.74608 0.10106 0.59221 0.0
C654 C 0.68823 0.08099 0.58261 0.0
C655 C 0.68411 0.08198 0.55592 0.0
C656 C 0.70801 0.56783 0.91345 0.0
C657 C 0.65382 0.53697 0.89763 0.0
C658 C 0.70298 0.56132 0.9395 0.0
C659 C 0.64378 0.5232 0.95061 0.0
H660 H 0.75451 0.5983 0.90579 0.0
H661 H 0.7454 0.58716 0.95116 0.0
S662 S 0.48807 0.43046 0.91762 0.0
N663 N 0.53927 0.46551 0.89496 0.0
N664 N 0.53039 0.45294 0.94405 0.0
C665 C 0.58966 0.49072 0.93502 0.0
C666 C 0.59453 0.4977 0.90847 0.0
C667 C 0.22737 0.5629 0.22402 0.0
C668 C 0.1692 0.52502 0.21162 0.0
C669 C 0.23 0.5691 0.25031 0.0
C670 C 0.1743 0.53812 0.265 0.0
H671 H 0.27096 0.58808 0.21331 0.0
H672 H 0.27606 0.59849 0.25917 0.0
S673 S 1.00988 0.43379 0.2406 0.0
N674 N 1.05525 0.45541 0.21528 0.0
N675 N 1.05875 0.4687 0.26459 0.0
C676 C 1.11571 0.49993 0.25253 0.0
C677 C 1.11353 0.49306 0.22582 0.0
loop_
_geom_bond_atom_site_label_1
_geom_bond_atom_site_label_2
_geom_bond_distance
_geom_bond_site_symmetry_2
_ccdc_geom_bond_type
Sm0 C2 2.846 . S
Sm0 O20 2.543 . S
Sm0 O21 2.450 . S
Sm0 O22 2.681 . S
Sm0 O23 2.464 . S
Sm0 O24 2.396 . S
Sm0 O28 2.386 . S
Sm0 O31 2.408 1_455 S
Sm1 C11 2.846 . S
Sm1 O22 2.386 1_655 S
Sm1 O25 2.408 1_655 S
Sm1 O26 2.543 . S
Sm1 O27 2.450 . S
Sm1 O28 2.681 1_655 S
Sm1 O29 2.464 . S
Sm1 O30 2.396 . S
C2 Sm0 2.846 . S
C2 C3 1.506 . S
C2 O20 1.261 . S
C2 O21 1.242 . S
C3 C2 1.506 . S
C3 C4 1.358 . S
C3 C8 1.382 . S
C4 C3 1.358 . S
C4 C5 1.385 . S
C4 H32 0.930 . S
C5 C4 1.385 . S
C5 C6 1.395 . S
C5 H33 0.929 . S
C6 C5 1.395 . S
C6 C7 1.335 . S
C7 C6 1.335 . S
C7 C8 1.398 . S
C7 H34 0.930 . S
C8 C3 1.382 . S
C8 C7 1.398 . S
C8 H35 0.929 . S
C9 O22 1.271 . S
C9 O23 1.251 . S
C10 O24 1.252 . S
C10 O25 1.272 . S
C11 Sm1 2.846 . S
C11 C12 1.506 . S
C11 O26 1.261 . S
C11 O27 1.242 . S
C12 C11 1.506 . S
C12 C13 1.358 . S
C12 C17 1.382 . S
C13 C12 1.358 . S
C13 C14 1.385 . S
C13 H36 0.930 . S
C14 C13 1.385 . S
C14 C15 1.395 . S
C14 H37 0.929 . S
C15 C14 1.395 . S
C15 C16 1.335 . S
C16 C15 1.335 . S
C16 C17 1.398 . S
C16 H38 0.930 . S
C17 C12 1.382 . S
C17 C16 1.398 . S
C17 H39 0.929 . S
C18 O28 1.271 . S
C18 O29 1.251 1_455 S
C19 O30 1.252 . S
C19 O31 1.272 . S
O20 Sm0 2.543 . S
O20 C2 1.261 . S
O21 Sm0 2.450 . S
O21 C2 1.242 . S
O22 Sm0 2.681 . S
O22 Sm1 2.386 1_455 S
O22 C9 1.271 . S
O23 Sm0 2.464 . S
O23 C9 1.251 . S
O24 Sm0 2.396 . S
O24 C10 1.252 . S
O25 Sm1 2.408 1_455 S
O25 C10 1.272 . S
O26 Sm1 2.543 . S
O26 C11 1.261 . S
O27 Sm1 2.450 . S
O27 C11 1.242 . S
O28 Sm0 2.386 . S
O28 Sm1 2.681 1_455 S
O28 C18 1.271 . S
O29 Sm1 2.464 . S
O29 C18 1.251 1_655 S
O30 Sm1 2.396 . S
O30 C19 1.252 . S
O31 Sm0 2.408 1_655 S
O31 C19 1.272 . S
H32 C4 0.930 . S
H33 C5 0.929 . S
H34 C7 0.930 . S
H35 C8 0.929 . S
H36 C13 0.930 . S
H37 C14 0.929 . S
H38 C16 0.930 . S
H39 C17 0.929 . S
Sm40 C42 2.846 . S
Sm40 O60 2.543 . S
Sm40 O61 2.450 . S
Sm40 O62 2.681 1_565 S
Sm40 O63 2.464 . S
Sm40 O64 2.396 . S
Sm40 O68 2.386 . S
Sm40 O71 2.408 1_565 S
Sm41 C51 2.846 . S
Sm41 O62 2.386 . S
Sm41 O65 2.408 1_545 S
Sm41 O66 2.543 . S
Sm41 O67 2.450 . S
Sm41 O68 2.681 1_545 S
Sm41 O69 2.464 . S
Sm41 O70 2.396 . S
C42 Sm40 2.846 . S
C42 C43 1.506 . S
C42 O60 1.261 . S
C42 O61 1.242 . S
C43 C42 1.506 . S
C43 C44 1.358 . S
C43 C48 1.382 . S
C44 C43 1.358 . S
C44 C45 1.385 . S
C44 H72 0.930 . S
C45 C44 1.385 . S
C45 C46 1.395 . S
C45 H73 0.929 . S
C46 C45 1.395 . S
C46 C47 1.335 . S
C47 C46 1.335 . S
C47 C48 1.398 . S
C47 H74 0.930 . S
C48 C43 1.382 . S
C48 C47 1.398 . S
C48 H75 0.929 . S
C49 O62 1.271 . S
C49 O63 1.251 1_545 S
C50 O64 1.252 . S
C50 O65 1.272 . S
C51 Sm41 2.846 . S
C51 C52 1.506 . S
C51 O66 1.261 . S
C51 O67 1.242 . S
C52 C51 1.506 . S
C52 C53 1.358 . S
C52 C57 1.382 . S
C53 C52 1.358 . S
C53 C54 1.385 . S
C53 H76 0.930 . S
C54 C53 1.385 . S
C54 C55 1.395 . S
C54 H77 0.929 . S
C55 C54 1.395 . S
C55 C56 1.335 . S
C56 C55 1.335 . S
C56 C57 1.398 . S
C56 H78 0.930 . S
C57 C52 1.382 . S
C57 C56 1.398 . S
C57 H79 0.929 . S
C58 O68 1.271 1_545 S
C58 O69 1.251 . S
C59 O70 1.252 . S
C59 O71 1.272 . S
O60 Sm40 2.543 . S
O60 C42 1.261 . S
O61 Sm40 2.450 . S
O61 C42 1.242 . S
O62 Sm40 2.681 1_545 S
O62 Sm41 2.386 . S
O62 C49 1.271 . S
O63 Sm40 2.464 . S
O63 C49 1.251 1_565 S
O64 Sm40 2.396 . S
O64 C50 1.252 . S
O65 Sm41 2.408 1_565 S
O65 C50 1.272 . S
O66 Sm41 2.543 . S
O66 C51 1.261 . S
O67 Sm41 2.450 . S
O67 C51 1.242 . S
O68 Sm40 2.386 . S
O68 Sm41 2.681 1_565 S
O68 C58 1.271 1_565 S
O69 Sm41 2.464 . S
O69 C58 1.251 . S
O70 Sm41 2.396 . S
O70 C59 1.252 . S
O71 Sm40 2.408 1_545 S
O71 C59 1.272 . S
H72 C44 0.930 . S
H73 C45 0.929 . S
H74 C47 0.930 . S
H75 C48 0.929 . S
H76 C53 0.930 . S
H77 C54 0.929 . S
H78 C56 0.930 . S
H79 C57 0.929 . S
Sm80 C82 2.846 . S
Sm80 O100 2.543 . S
Sm80 O101 2.450 . S
Sm80 O102 2.681 . S
Sm80 O103 2.464 . S
Sm80 O104 2.396 . S
Sm80 O108 2.386 . S
Sm80 O111 2.408 . S
Sm81 C91 2.846 . S
Sm81 O102 2.386 . S
Sm81 O105 2.408 . S
Sm81 O106 2.543 . S
Sm81 O107 2.450 . S
Sm81 O108 2.681 . S
Sm81 O109 2.464 . S
Sm81 O110 2.396 . S
C82 Sm80 2.846 . S
C82 C83 1.506 . S
C82 O100 1.261 . S
C82 O101 1.242 . S
C83 C82 1.506 . S
C83 C84 1.358 . S
C83 C88 1.382 . S
C84 C83 1.358 . S
C84 C85 1.385 . S
C84 H112 0.930 . S
C85 C84 1.385 . S
C85 C86 1.395 . S
C85 H113 0.929 . S
C86 C85 1.395 . S
C86 C87 1.335 . S
C87 C86 1.335 . S
C87 C88 1.398 . S
C87 H114 0.930 . S
C88 C83 1.382 . S
C88 C87 1.398 . S
C88 H115 0.929 . S
C89 O102 1.271 . S
C89 O103 1.251 . S
C90 O104 1.252 . S
C90 O105 1.272 . S
C91 Sm81 2.846 . S
C91 C92 1.506 . S
C91 O106 1.261 . S
C91 O107 1.242 . S
C92 C91 1.506 . S
C92 C93 1.358 . S
C92 C97 1.382 . S
C93 C92 1.358 . S
C93 C94 1.385 . S
C93 H116 0.930 . S
C94 C93 1.385 . S
C94 C95 1.395 . S
C94 H117 0.929 . S
C95 C94 1.395 . S
C95 C96 1.335 . S
C96 C95 1.335 . S
C96 C97 1.398 . S
C96 H118 0.930 . S
C97 C92 1.382 . S
C97 C96 1.398 . S
C97 H119 0.929 . S
C98 O108 1.271 . S
C98 O109 1.251 . S
C99 O110 1.252 . S
C99 O111 1.272 . S
O100 Sm80 2.543 . S
O100 C82 1.261 . S
O101 Sm80 2.450 . S
O101 C82 1.242 . S
O102 Sm80 2.681 . S
O102 Sm81 2.386 . S
O102 C89 1.271 . S
O103 Sm80 2.464 . S
O103 C89 1.251 . S
O104 Sm80 2.396 . S
O104 C90 1.252 . S
O105 Sm81 2.408 . S
O105 C90 1.272 . S
O106 Sm81 2.543 . S
O106 C91 1.261 . S
O107 Sm81 2.450 . S
O107 C91 1.242 . S
O108 Sm80 2.386 . S
O108 Sm81 2.681 . S
O108 C98 1.271 . S
O109 Sm81 2.464 . S
O109 C98 1.251 . S
O110 Sm81 2.396 . S
O110 C99 1.252 . S
O111 Sm80 2.408 . S
O111 C99 1.272 . S
H112 C84 0.930 . S
H113 C85 0.929 . S
H114 C87 0.930 . S
H115 C88 0.929 . S
H116 C93 0.930 . S
H117 C94 0.929 . S
H118 C96 0.930 . S
H119 C97 0.929 . S
C120 C121 1.391 . S
C120 C124 1.391 . S
C120 H162 0.948 . S
C121 C120 1.391 . S
C121 C122 1.391 . S
C122 C121 1.391 . S
C122 H178 0.947 . S
C122 C179 1.392 . S
C123 C124 1.391 . S
C123 C127 1.397 . S
C123 C179 1.419 . S
C124 C120 1.391 . S
C124 C123 1.391 . S
C124 C125 1.399 . S
C125 C124 1.399 . S
C125 C128 1.396 . S
C125 C137 1.453 . S
C125 C138 1.684 . S
H126 C150 0.948 . S
C127 C123 1.397 . S
C127 C128 1.394 . S
C127 C146 1.723 . S
C128 C125 1.396 . S
C128 C127 1.394 . S
C128 C158 1.723 1_545 S
H129 C152 0.947 . S
H130 C153 0.948 . S
H131 C159 0.982 . S
H132 C160 0.979 . S
H133 C160 0.980 . S
H134 C160 0.983 . S
H135 C159 0.979 . S
H136 C159 0.977 . S
C137 C125 1.453 . S
C137 H166 0.982 . S
C137 H167 0.979 . S
C137 H168 0.977 1_545 S
C138 C125 1.684 . S
C138 H163 0.979 . S
C138 H164 0.980 . S
C138 H165 0.983 . S
C139 C140 1.391 . S
C139 C144 1.391 . S
C139 H169 0.948 . S
C140 C139 1.391 . S
C140 C141 1.391 1_545 S
C141 C140 1.391 1_565 S
C141 C142 1.392 . S
C141 H170 0.947 . S
C142 C141 1.392 . S
C142 C143 1.419 1_565 S
C142 H171 0.948 . S
C143 C142 1.419 1_545 S
C143 C144 1.391 . S
C143 C147 1.397 . S
C144 C139 1.391 . S
C144 C143 1.391 . S
C144 C145 1.399 . S
C145 C144 1.399 . S
C145 C146 1.396 . S
C145 C148 1.453 . S
C145 C149 1.684 . S
C146 C127 1.723 . S
C146 C145 1.396 . S
C146 C147 1.394 . S
C147 C143 1.397 . S
C147 C146 1.394 . S
C147 C157 1.723 1_545 S
C148 C145 1.453 . S
C148 H172 0.982 . S
C148 H173 0.979 . S
C148 H174 0.977 . S
C149 C145 1.684 . S
C149 H175 0.979 . S
C149 H176 0.980 . S
C149 H177 0.983 . S
C150 H126 0.948 . S
C150 C151 1.391 . S
C150 C155 1.391 . S
C151 C150 1.391 . S
C151 C152 1.391 . S
C152 H129 0.947 . S
C152 C151 1.391 . S
C152 C153 1.392 . S
C153 H130 0.948 . S
C153 C152 1.392 . S
C153 C154 1.419 . S
C154 C153 1.419 . S
C154 C155 1.391 . S
C154 C158 1.397 . S
C155 C150 1.391 . S
C155 C154 1.391 . S
C155 C156 1.399 . S
C156 C155 1.399 . S
C156 C157 1.396 . S
C156 C159 1.453 . S
C156 C160 1.684 . S
C157 C147 1.723 1_565 S
C157 C156 1.396 . S
C157 C158 1.394 . S
C158 C128 1.723 1_565 S
C158 C154 1.397 . S
C158 C157 1.394 . S
C159 H131 0.982 . S
C159 H135 0.979 . S
C159 H136 0.977 . S
C159 C156 1.453 . S
C160 H132 0.979 . S
C160 H133 0.980 . S
C160 H134 0.983 . S
C160 C156 1.684 . S
H161 C179 0.948 . S
H162 C120 0.948 . S
H163 C138 0.979 . S
H164 C138 0.980 . S
H165 C138 0.983 . S
H166 C137 0.982 . S
H167 C137 0.979 . S
H168 C137 0.977 1_565 S
H169 C139 0.948 . S
H170 C141 0.947 . S
H171 C142 0.948 . S
H172 C148 0.982 . S
H173 C148 0.979 . S
H174 C148 0.977 . S
H175 C149 0.979 . S
H176 C149 0.980 . S
H177 C149 0.983 . S
H178 C122 0.947 . S
C179 C122 1.392 . S
C179 C123 1.419 . S
C179 H161 0.948 . S
C180 C181 1.391 . S
C180 C184 1.391 . S
C180 H222 0.948 . S
C181 C180 1.391 . S
C181 C182 1.391 . S
C182 C181 1.391 . S
C182 H238 0.947 . S
C182 C239 1.392 . S
C183 C184 1.391 . S
C183 C187 1.397 . S
C183 C239 1.419 . S
C184 C180 1.391 . S
C184 C183 1.391 . S
C184 C185 1.399 . S
C185 C184 1.399 . S
C185 C188 1.396 . S
C185 C197 1.453 . S
C185 C198 1.684 . S
H186 C210 0.948 . S
C187 C183 1.397 . S
C187 C188 1.394 . S
C187 C206 1.723 . S
C188 C185 1.396 . S
C188 C187 1.394 . S
C188 C218 1.723 . S
H189 C212 0.947 . S
H190 C213 0.948 . S
H191 C219 0.982 . S
H192 C220 0.979 . S
H193 C220 0.980 . S
H194 C220 0.983 . S
H195 C219 0.979 . S
H196 C219 0.977 . S
C197 C185 1.453 . S
C197 H226 0.982 . S
C197 H227 0.979 . S
C197 H228 0.977 . S
C198 C185 1.684 . S
C198 H223 0.979 . S
C198 H224 0.980 . S
C198 H225 0.983 . S
C199 C200 1.391 . S
C199 C204 1.391 . S
C199 H229 0.948 . S
C200 C199 1.391 . S
C200 C201 1.391 . S
C201 C200 1.391 . S
C201 C202 1.392 . S
C201 H230 0.947 . S
C202 C201 1.392 . S
C202 C203 1.419 . S
C202 H231 0.948 . S
C203 C202 1.419 . S
C203 C204 1.391 . S
C203 C207 1.397 . S
C204 C199 1.391 . S
C204 C203 1.391 . S
C204 C205 1.399 . S
C205 C204 1.399 . S
C205 C206 1.396 . S
C205 C208 1.453 . S
C205 C209 1.684 . S
C206 C187 1.723 . S
C206 C205 1.396 . S
C206 C207 1.394 . S
C207 C203 1.397 . S
C207 C206 1.394 . S
C207 C217 1.723 . S
C208 C205 1.453 . S
C208 H232 0.982 . S
C208 H233 0.979 . S
C208 H234 0.977 . S
C209 C205 1.684 . S
C209 H235 0.979 . S
C209 H236 0.980 . S
C209 H237 0.983 . S
C210 H186 0.948 . S
C210 C211 1.391 . S
C210 C215 1.391 . S
C211 C210 1.391 . S
C211 C212 1.391 . S
C212 H189 0.947 . S
C212 C211 1.391 . S
C212 C213 1.392 . S
C213 H190 0.948 . S
C213 C212 1.392 . S
C213 C214 1.419 . S
C214 C213 1.419 . S
C214 C215 1.391 . S
C214 C218 1.397 . S
C215 C210 1.391 . S
C215 C214 1.391 . S
C215 C216 1.399 . S
C216 C215 1.399 . S
C216 C217 1.396 . S
C216 C219 1.453 . S
C216 C220 1.684 . S
C217 C207 1.723 . S
C217 C216 1.396 . S
C217 C218 1.394 . S
C218 C188 1.723 . S
C218 C214 1.397 . S
C218 C217 1.394 . S
C219 H191 0.982 . S
C219 H195 0.979 . S
C219 H196 0.977 . S
C219 C216 1.453 . S
C220 H192 0.979 . S
C220 H193 0.980 . S
C220 H194 0.983 . S
C220 C216 1.684 . S
H221 C239 0.948 . S
H222 C180 0.948 . S
H223 C198 0.979 . S
H224 C198 0.980 . S
H225 C198 0.983 . S
H226 C197 0.982 . S
H227 C197 0.979 . S
H228 C197 0.977 . S
H229 C199 0.948 . S
H230 C201 0.947 . S
H231 C202 0.948 . S
H232 C208 0.982 . S
H233 C208 0.979 . S
H234 C208 0.977 . S
H235 C209 0.979 . S
H236 C209 0.980 . S
H237 C209 0.983 . S
H238 C182 0.947 . S
C239 C182 1.392 . S
C239 C183 1.419 . S
C239 H221 0.948 . S
C240 C241 1.391 . S
C240 C244 1.391 . S
C240 H282 0.948 . S
C241 C240 1.391 . S
C241 C242 1.391 . S
C242 C241 1.391 . S
C242 H298 0.947 . S
C242 C299 1.392 . S
C243 C244 1.391 . S
C243 C247 1.397 . S
C243 C299 1.419 . S
C244 C240 1.391 . S
C244 C243 1.391 . S
C244 C245 1.399 . S
C245 C244 1.399 . S
C245 C248 1.396 . S
C245 C257 1.453 . S
C245 C258 1.684 . S
H246 C270 0.948 . S
C247 C243 1.397 . S
C247 C248 1.394 . S
C247 C266 1.723 . S
C248 C245 1.396 . S
C248 C247 1.394 . S
C248 C278 1.723 . S
H249 C272 0.947 . S
H250 C273 0.948 1_455 S
H251 C279 0.982 . S
H252 C280 0.979 . S
H253 C280 0.980 . S
H254 C280 0.983 . S
H255 C279 0.979 . S
H256 C279 0.977 . S
C257 C245 1.453 . S
C257 H286 0.982 . S
C257 H287 0.979 . S
C257 H288 0.977 . S
C258 C245 1.684 . S
C258 H283 0.979 . S
C258 H284 0.980 . S
C258 H285 0.983 . S
C259 C260 1.391 . S
C259 C264 1.391 . S
C259 H289 0.948 . S
C260 C259 1.391 . S
C260 C261 1.391 . S
C261 C260 1.391 . S
C261 C262 1.392 . S
C261 H290 0.947 1_455 S
C262 C261 1.392 . S
C262 C263 1.419 . S
C262 H291 0.948 1_455 S
C263 C262 1.419 . S
C263 C264 1.391 . S
C263 C267 1.397 . S
C264 C259 1.391 . S
C264 C263 1.391 . S
C264 C265 1.399 . S
C265 C264 1.399 . S
C265 C266 1.396 . S
C265 C268 1.453 . S
C265 C269 1.684 . S
C266 C247 1.723 . S
C266 C265 1.396 . S
C266 C267 1.394 . S
C267 C263 1.397 . S
C267 C266 1.394 . S
C267 C277 1.723 1_455 S
C268 C265 1.453 . S
C268 H292 0.982 . S
C268 H293 0.979 . S
C268 H294 0.977 . S
C269 C265 1.684 . S
C269 H295 0.979 . S
C269 H296 0.980 . S
C269 H297 0.983 . S
C270 H246 0.948 . S
C270 C271 1.391 . S
C270 C275 1.391 . S
C271 C270 1.391 . S
C271 C272 1.391 . S
C272 H249 0.947 . S
C272 C271 1.391 . S
C272 C273 1.392 . S
C273 H250 0.948 1_655 S
C273 C272 1.392 . S
C273 C274 1.419 . S
C274 C273 1.419 . S
C274 C275 1.391 . S
C274 C278 1.397 1_655 S
C275 C270 1.391 . S
C275 C274 1.391 . S
C275 C276 1.399 . S
C276 C275 1.399 . S
C276 C277 1.396 . S
C276 C279 1.453 . S
C276 C280 1.684 . S
C277 C267 1.723 1_655 S
C277 C276 1.396 . S
C277 C278 1.394 1_655 S
C278 C248 1.723 . S
C278 C274 1.397 1_455 S
C278 C277 1.394 1_455 S
C279 H251 0.982 . S
C279 H255 0.979 . S
C279 H256 0.977 . S
C279 C276 1.453 . S
C280 H252 0.979 . S
C280 H253 0.980 . S
C280 H254 0.983 . S
C280 C276 1.684 . S
H281 C299 0.948 . S
H282 C240 0.948 . S
H283 C258 0.979 . S
H284 C258 0.980 . S
H285 C258 0.983 . S
H286 C257 0.982 . S
H287 C257 0.979 . S
H288 C257 0.977 . S
H289 C259 0.948 . S
H290 C261 0.947 1_655 S
H291 C262 0.948 1_655 S
H292 C268 0.982 . S
H293 C268 0.979 . S
H294 C268 0.977 . S
H295 C269 0.979 . S
H296 C269 0.980 . S
H297 C269 0.983 . S
H298 C242 0.947 . S
C299 C242 1.392 . S
C299 C243 1.419 . S
C299 H281 0.948 . S
C300 C301 1.391 . S
C300 C304 1.391 . S
C300 H342 0.948 . S
C301 C300 1.391 . S
C301 C302 1.391 . S
C302 C301 1.391 . S
C302 H358 0.947 . S
C302 C359 1.392 . S
C303 C304 1.391 . S
C303 C307 1.397 . S
C303 C359 1.419 . S
C304 C300 1.391 . S
C304 C303 1.391 . S
C304 C305 1.399 . S
C305 C304 1.399 . S
C305 C308 1.396 . S
C305 C317 1.453 . S
C305 C318 1.684 . S
H306 C330 0.948 . S
C307 C303 1.397 . S
C307 C308 1.394 . S
C307 C326 1.723 . S
C308 C305 1.396 . S
C308 C307 1.394 . S
C308 C338 1.723 1_655 S
H309 C332 0.947 . S
H310 C333 0.948 . S
H311 C339 0.982 . S
H312 C340 0.979 . S
H313 C340 0.980 . S
H314 C340 0.983 . S
H315 C339 0.979 . S
H316 C339 0.977 . S
C317 C305 1.453 . S
C317 H346 0.982 1_655 S
C317 H347 0.979 . S
C317 H348 0.977 1_655 S
C318 C305 1.684 . S
C318 H343 0.979 . S
C318 H344 0.980 . S
C318 H345 0.983 . S
C319 C320 1.391 1_655 S
C319 C324 1.391 . S
C319 H349 0.948 . S
C320 C319 1.391 1_455 S
C320 C321 1.391 . S
C321 C320 1.391 . S
C321 C322 1.392 . S
C321 H350 0.947 . S
C322 C321 1.392 . S
C322 C323 1.419 . S
C322 H351 0.948 . S
C323 C322 1.419 . S
C323 C324 1.391 1_455 S
C323 C327 1.397 . S
C324 C319 1.391 . S
C324 C323 1.391 1_655 S
C324 C325 1.399 . S
C325 C324 1.399 . S
C325 C326 1.396 . S
C325 C328 1.453 . S
C325 C329 1.684 . S
C326 C307 1.723 . S
C326 C325 1.396 . S
C326 C327 1.394 1_655 S
C327 C323 1.397 . S
C327 C326 1.394 1_455 S
C327 C337 1.723 . S
C328 C325 1.453 . S
C328 H352 0.982 . S
C328 H353 0.979 . S
C328 H354 0.977 . S
C329 C325 1.684 . S
C329 H355 0.979 . S
C329 H356 0.980 . S
C329 H357 0.983 . S
C330 H306 0.948 . S
C330 C331 1.391 . S
C330 C335 1.391 . S
C331 C330 1.391 . S
C331 C332 1.391 . S
C332 H309 0.947 . S
C332 C331 1.391 . S
C332 C333 1.392 . S
C333 H310 0.948 . S
C333 C332 1.392 . S
C333 C334 1.419 . S
C334 C333 1.419 . S
C334 C335 1.391 . S
C334 C338 1.397 . S
C335 C330 1.391 . S
C335 C334 1.391 . S
C335 C336 1.399 . S
C336 C335 1.399 . S
C336 C337 1.396 . S
C336 C339 1.453 . S
C336 C340 1.684 . S
C337 C327 1.723 . S
C337 C336 1.396 . S
C337 C338 1.394 . S
C338 C308 1.723 1_455 S
C338 C334 1.397 . S
C338 C337 1.394 . S
C339 H311 0.982 . S
C339 H315 0.979 . S
C339 H316 0.977 . S
C339 C336 1.453 . S
C340 H312 0.979 . S
C340 H313 0.980 . S
C340 H314 0.983 . S
C340 C336 1.684 . S
H341 C359 0.948 . S
H342 C300 0.948 . S
H343 C318 0.979 . S
H344 C318 0.980 . S
H345 C318 0.983 . S
H346 C317 0.982 1_455 S
H347 C317 0.979 . S
H348 C317 0.977 1_455 S
H349 C319 0.948 . S
H350 C321 0.947 . S
H351 C322 0.948 . S
H352 C328 0.982 . S
H353 C328 0.979 . S
H354 C328 0.977 . S
H355 C329 0.979 . S
H356 C329 0.980 . S
H357 C329 0.983 . S
H358 C302 0.947 . S
C359 C302 1.392 . S
C359 C303 1.419 . S
C359 H341 0.948 . S
C360 C361 1.391 . S
C360 C364 1.391 . S
C360 H402 0.948 . S
C361 C360 1.391 . S
C361 C362 1.391 . S
C362 C361 1.391 . S
C362 H418 0.947 . S
C362 C419 1.392 . S
C363 C364 1.391 . S
C363 C367 1.397 . S
C363 C419 1.419 . S
C364 C360 1.391 . S
C364 C363 1.391 . S
C364 C365 1.399 . S
C365 C364 1.399 . S
C365 C368 1.396 . S
C365 C377 1.453 1_565 S
C365 C378 1.684 . S
H366 C390 0.948 . S
C367 C363 1.397 . S
C367 C368 1.394 . S
C367 C386 1.723 . S
C368 C365 1.396 . S
C368 C367 1.394 . S
C368 C398 1.723 1_565 S
H369 C392 0.947 . S
H370 C393 0.948 . S
H371 C399 0.982 . S
H372 C400 0.979 . S
H373 C400 0.980 . S
H374 C400 0.983 . S
H375 C399 0.979 . S
H376 C399 0.977 . S
C377 C365 1.453 1_545 S
C377 H406 0.982 . S
C377 H407 0.979 1_545 S
C377 H408 0.977 . S
C378 C365 1.684 . S
C378 H403 0.979 . S
C378 H404 0.980 . S
C378 H405 0.983 . S
C379 C380 1.391 . S
C379 C384 1.391 . S
C379 H409 0.948 . S
C380 C379 1.391 . S
C380 C381 1.391 1_565 S
C381 C380 1.391 1_545 S
C381 C382 1.392 . S
C381 H410 0.947 . S
C382 C381 1.392 . S
C382 C383 1.419 . S
C382 H411 0.948 . S
C383 C382 1.419 . S
C383 C384 1.391 1_545 S
C383 C387 1.397 . S
C384 C379 1.391 . S
C384 C383 1.391 1_565 S
C384 C385 1.399 . S
C385 C384 1.399 . S
C385 C386 1.396 . S
C385 C388 1.453 . S
C385 C389 1.684 . S
C386 C367 1.723 . S
C386 C385 1.396 . S
C386 C387 1.394 1_565 S
C387 C383 1.397 . S
C387 C386 1.394 1_545 S
C387 C397 1.723 . S
C388 C385 1.453 . S
C388 H412 0.982 . S
C388 H413 0.979 . S
C388 H414 0.977 . S
C389 C385 1.684 . S
C389 H415 0.979 . S
C389 H416 0.980 . S
C389 H417 0.983 . S
C390 H366 0.948 . S
C390 C391 1.391 . S
C390 C395 1.391 . S
C391 C390 1.391 . S
C391 C392 1.391 . S
C392 H369 0.947 . S
C392 C391 1.391 . S
C392 C393 1.392 . S
C393 H370 0.948 . S
C393 C392 1.392 . S
C393 C394 1.419 . S
C394 C393 1.419 . S
C394 C395 1.391 . S
C394 C398 1.397 . S
C395 C390 1.391 . S
C395 C394 1.391 . S
C395 C396 1.399 . S
C396 C395 1.399 . S
C396 C397 1.396 . S
C396 C399 1.453 . S
C396 C400 1.684 . S
C397 C387 1.723 . S
C397 C396 1.396 . S
C397 C398 1.394 . S
C398 C368 1.723 1_545 S
C398 C394 1.397 . S
C398 C397 1.394 . S
C399 H371 0.982 . S
C399 H375 0.979 . S
C399 H376 0.977 . S
C399 C396 1.453 . S
C400 H372 0.979 . S
C400 H373 0.980 . S
C400 H374 0.983 . S
C400 C396 1.684 . S
H401 C419 0.948 . S
H402 C360 0.948 . S
H403 C378 0.979 . S
H404 C378 0.980 . S
H405 C378 0.983 . S
H406 C377 0.982 . S
H407 C377 0.979 1_565 S
H408 C377 0.977 . S
H409 C379 0.948 . S
H410 C381 0.947 . S
H411 C382 0.948 . S
H412 C388 0.982 . S
H413 C388 0.979 . S
H414 C388 0.977 . S
H415 C389 0.979 . S
H416 C389 0.980 . S
H417 C389 0.983 . S
H418 C362 0.947 . S
C419 C362 1.392 . S
C419 C363 1.419 . S
C419 H401 0.948 . S
C420 C421 1.391 . S
C420 C424 1.391 . S
C420 H462 0.948 . S
C421 C420 1.391 . S
C421 C422 1.391 . S
C422 C421 1.391 . S
C422 H478 0.947 . S
C422 C479 1.392 . S
C423 C424 1.391 . S
C423 C427 1.397 . S
C423 C479 1.419 . S
C424 C420 1.391 . S
C424 C423 1.391 . S
C424 C425 1.399 . S
C425 C424 1.399 . S
C425 C428 1.396 . S
C425 C437 1.453 . S
C425 C438 1.684 . S
H426 C450 0.948 . S
C427 C423 1.397 . S
C427 C428 1.394 . S
C427 C446 1.723 . S
C428 C425 1.396 . S
C428 C427 1.394 . S
C428 C458 1.723 . S
H429 C452 0.947 . S
H430 C453 0.948 . S
H431 C459 0.982 . S
H432 C460 0.979 . S
H433 C460 0.980 . S
H434 C460 0.983 . S
H435 C459 0.979 . S
H436 C459 0.977 . S
C437 C425 1.453 . S
C437 H466 0.982 . S
C437 H467 0.979 . S
C437 H468 0.977 . S
C438 C425 1.684 . S
C438 H463 0.979 . S
C438 H464 0.980 . S
C438 H465 0.983 . S
C439 C440 1.391 . S
C439 C444 1.391 1_556 S
C439 H469 0.948 . S
C440 C439 1.391 . S
C440 C441 1.391 . S
C441 C440 1.391 . S
C441 C442 1.392 1_556 S
C441 H470 0.947 . S
C442 C441 1.392 1_554 S
C442 C443 1.419 . S
C442 H471 0.948 . S
C443 C442 1.419 . S
C443 C444 1.391 . S
C443 C447 1.397 . S
C444 C439 1.391 1_554 S
C444 C443 1.391 . S
C444 C445 1.399 . S
C445 C444 1.399 . S
C445 C446 1.396 . S
C445 C448 1.453 . S
C445 C449 1.684 . S
C446 C427 1.723 . S
C446 C445 1.396 . S
C446 C447 1.394 . S
C447 C443 1.397 . S
C447 C446 1.394 . S
C447 C457 1.723 . S
C448 C445 1.453 . S
C448 H472 0.982 . S
C448 H473 0.979 . S
C448 H474 0.977 . S
C449 C445 1.684 . S
C449 H475 0.979 . S
C449 H476 0.980 . S
C449 H477 0.983 . S
C450 H426 0.948 . S
C450 C451 1.391 . S
C450 C455 1.391 . S
C451 C450 1.391 . S
C451 C452 1.391 . S
C452 H429 0.947 . S
C452 C451 1.391 . S
C452 C453 1.392 . S
C453 H430 0.948 . S
C453 C452 1.392 . S
C453 C454 1.419 . S
C454 C453 1.419 . S
C454 C455 1.391 . S
C454 C458 1.397 . S
C455 C450 1.391 . S
C455 C454 1.391 . S
C455 C456 1.399 . S
C456 C455 1.399 . S
C456 C457 1.396 . S
C456 C459 1.453 . S
C456 C460 1.684 . S
C457 C447 1.723 . S
C457 C456 1.396 . S
C457 C458 1.394 . S
C458 C428 1.723 . S
C458 C454 1.397 . S
C458 C457 1.394 . S
C459 H431 0.982 . S
C459 H435 0.979 . S
C459 H436 0.977 . S
C459 C456 1.453 . S
C460 H432 0.979 . S
C460 H433 0.980 . S
C460 H434 0.983 . S
C460 C456 1.684 . S
H461 C479 0.948 . S
H462 C420 0.948 . S
H463 C438 0.979 . S
H464 C438 0.980 . S
H465 C438 0.983 . S
H466 C437 0.982 . S
H467 C437 0.979 . S
H468 C437 0.977 . S
H469 C439 0.948 . S
H470 C441 0.947 . S
H471 C442 0.948 . S
H472 C448 0.982 . S
H473 C448 0.979 . S
H474 C448 0.977 . S
H475 C449 0.979 . S
H476 C449 0.980 . S
H477 C449 0.983 . S
H478 C422 0.947 . S
C479 C422 1.392 . S
C479 C423 1.419 . S
C479 H461 0.948 . S
C480 C481 1.369 . S
C480 C482 1.419 . S
C480 H484 0.930 . S
C481 C480 1.369 . S
C481 C490 1.429 . S
C482 C480 1.419 . S
C482 C483 1.363 . S
C482 H485 0.929 . S
C483 C482 1.363 . S
C483 C489 1.428 . S
H484 C480 0.930 . S
H485 C482 0.929 . S
S486 N487 1.613 . S
S486 N488 1.610 . S
N487 S486 1.613 . S
N487 C490 1.350 . S
N488 S486 1.610 . S
N488 C489 1.351 . S
C489 C483 1.428 . S
C489 N488 1.351 . S
C489 C490 1.434 . S
C490 C481 1.429 . S
C490 N487 1.350 . S
C490 C489 1.434 . S
C491 C492 1.369 . S
C491 C493 1.419 . S
C491 H495 0.930 . S
C492 C491 1.369 . S
C492 C501 1.429 . S
C493 C491 1.419 . S
C493 C494 1.363 . S
C493 H496 0.929 . S
C494 C493 1.363 . S
C494 C500 1.428 . S
H495 C491 0.930 . S
H496 C493 0.929 . S
S497 N498 1.613 . S
S497 N499 1.610 . S
N498 S497 1.613 . S
N498 C501 1.350 . S
N499 S497 1.610 . S
N499 C500 1.351 . S
C500 C494 1.428 . S
C500 N499 1.351 . S
C500 C501 1.434 . S
C501 C492 1.429 . S
C501 N498 1.350 . S
C501 C500 1.434 . S
C502 C503 1.369 . S
C502 C504 1.419 . S
C502 H506 0.930 . S
C503 C502 1.369 . S
C503 C512 1.429 . S
C504 C502 1.419 . S
C504 C505 1.363 . S
C504 H507 0.929 . S
C505 C504 1.363 . S
C505 C511 1.428 . S
H506 C502 0.930 . S
H507 C504 0.929 . S
S508 N509 1.613 . S
S508 N510 1.610 . S
N509 S508 1.613 . S
N509 C512 1.350 . S
N510 S508 1.610 . S
N510 C511 1.351 . S
C511 C505 1.428 . S
C511 N510 1.351 . S
C511 C512 1.434 . S
C512 C503 1.429 . S
C512 N509 1.350 . S
C512 C511 1.434 . S
C513 C514 1.369 . S
C513 C515 1.419 . S
C513 H517 0.930 . S
C514 C513 1.369 . S
C514 C523 1.429 . S
C515 C513 1.419 . S
C515 C516 1.363 . S
C515 H518 0.929 . S
C516 C515 1.363 . S
C516 C522 1.428 . S
H517 C513 0.930 . S
H518 C515 0.929 . S
S519 N520 1.613 . S
S519 N521 1.610 . S
N520 S519 1.613 . S
N520 C523 1.350 . S
N521 S519 1.610 . S
N521 C522 1.351 . S
C522 C516 1.428 . S
C522 N521 1.351 . S
C522 C523 1.434 . S
C523 C514 1.429 . S
C523 N520 1.350 . S
C523 C522 1.434 . S
C524 C525 1.369 . S
C524 C526 1.419 . S
C524 H528 0.930 . S
C525 C524 1.369 . S
C525 C534 1.429 . S
C526 C524 1.419 . S
C526 C527 1.363 . S
C526 H529 0.929 . S
C527 C526 1.363 . S
C527 C533 1.428 . S
H528 C524 0.930 . S
H529 C526 0.929 . S
S530 N531 1.613 . S
S530 N532 1.610 . S
N531 S530 1.613 . S
N531 C534 1.350 . S
N532 S530 1.610 . S
N532 C533 1.351 . S
C533 C527 1.428 . S
C533 N532 1.351 . S
C533 C534 1.434 . S
C534 C525 1.429 . S
C534 N531 1.350 . S
C534 C533 1.434 . S
C535 C536 1.369 . S
C535 C537 1.419 . S
C535 H539 0.930 . S
C536 C535 1.369 . S
C536 C545 1.429 . S
C537 C535 1.419 . S
C537 C538 1.363 . S
C537 H540 0.929 . S
C538 C537 1.363 . S
C538 C544 1.428 . S
H539 C535 0.930 . S
H540 C537 0.929 . S
S541 N542 1.613 . S
S541 N543 1.610 . S
N542 S541 1.613 . S
N542 C545 1.350 . S
N543 S541 1.610 . S
N543 C544 1.351 . S
C544 C538 1.428 . S
C544 N543 1.351 . S
C544 C545 1.434 . S
C545 C536 1.429 . S
C545 N542 1.350 . S
C545 C544 1.434 . S
C546 C547 1.369 . S
C546 C548 1.419 . S
C546 H550 0.930 . S
C547 C546 1.369 . S
C547 C556 1.429 . S
C548 C546 1.419 . S
C548 C549 1.363 . S
C548 H551 0.929 . S
C549 C548 1.363 . S
C549 C555 1.428 . S
H550 C546 0.930 . S
H551 C548 0.929 . S
S552 N553 1.613 . S
S552 N554 1.610 . S
N553 S552 1.613 . S
N553 C556 1.350 . S
N554 S552 1.610 . S
N554 C555 1.351 . S
C555 C549 1.428 . S
C555 N554 1.351 . S
C555 C556 1.434 . S
C556 C547 1.429 . S
C556 N553 1.350 . S
C556 C555 1.434 . S
C557 C558 1.369 . S
C557 C559 1.419 . S
C557 H561 0.930 . S
C558 C557 1.369 . S
C558 C567 1.429 . S
C559 C557 1.419 . S
C559 C560 1.363 . S
C559 H562 0.929 . S
C560 C559 1.363 . S
C560 C566 1.428 . S
H561 C557 0.930 . S
H562 C559 0.929 . S
S563 N564 1.613 . S
S563 N565 1.610 . S
N564 S563 1.613 . S
N564 C567 1.350 . S
N565 S563 1.610 . S
N565 C566 1.351 . S
C566 C560 1.428 . S
C566 N565 1.351 . S
C566 C567 1.434 . S
C567 C558 1.429 . S
C567 N564 1.350 . S
C567 C566 1.434 . S
C568 C569 1.369 . S
C568 C570 1.419 . S
C568 H572 0.930 . S
C569 C568 1.369 . S
C569 C578 1.429 . S
C570 C568 1.419 . S
C570 C571 1.363 . S
C570 H573 0.929 . S
C571 C570 1.363 . S
C571 C577 1.428 . S
H572 C568 0.930 . S
H573 C570 0.929 . S
S574 N575 1.613 . S
S574 N576 1.610 . S
N575 S574 1.613 . S
N575 C578 1.350 . S
N576 S574 1.610 . S
N576 C577 1.351 . S
C577 C571 1.428 . S
C577 N576 1.351 . S
C577 C578 1.434 . S
C578 C569 1.429 . S
C578 N575 1.350 . S
C578 C577 1.434 . S
C579 C580 1.369 . S
C579 C581 1.419 . S
C579 H583 0.930 . S
C580 C579 1.369 . S
C580 C589 1.429 . S
C581 C579 1.419 . S
C581 C582 1.363 . S
C581 H584 0.929 . S
C582 C581 1.363 . S
C582 C588 1.428 . S
H583 C579 0.930 . S
H584 C581 0.929 . S
S585 N586 1.613 . S
S585 N587 1.610 . S
N586 S585 1.613 . S
N586 C589 1.350 . S
N587 S585 1.610 . S
N587 C588 1.351 . S
C588 C582 1.428 . S
C588 N587 1.351 . S
C588 C589 1.434 . S
C589 C580 1.429 . S
C589 N586 1.350 . S
C589 C588 1.434 . S
C590 C591 1.369 . S
C590 C592 1.419 . S
C590 H594 0.930 . S
C591 C590 1.369 . S
C591 C600 1.429 . S
C592 C590 1.419 . S
C592 C593 1.363 . S
C592 H595 0.929 . S
C593 C592 1.363 . S
C593 C599 1.428 . S
H594 C590 0.930 . S
H595 C592 0.929 . S
S596 N597 1.613 . S
S596 N598 1.610 . S
N597 S596 1.613 . S
N597 C600 1.350 . S
N598 S596 1.610 . S
N598 C599 1.351 . S
C599 C593 1.428 . S
C599 N598 1.351 . S
C599 C600 1.434 . S
C600 C591 1.429 . S
C600 N597 1.350 . S
C600 C599 1.434 . S
C601 C602 1.369 . S
C601 C603 1.419 . S
C601 H605 0.930 . S
C602 C601 1.369 . S
C602 C611 1.429 . S
C603 C601 1.419 . S
C603 C604 1.363 . S
C603 H606 0.929 . S
C604 C603 1.363 . S
C604 C610 1.428 . S
H605 C601 0.930 . S
H606 C603 0.929 . S
S607 N608 1.613 . S
S607 N609 1.610 . S
N608 S607 1.613 . S
N608 C611 1.350 . S
N609 S607 1.610 . S
N609 C610 1.351 . S
C610 C604 1.428 . S
C610 N609 1.351 . S
C610 C611 1.434 . S
C611 C602 1.429 . S
C611 N608 1.350 . S
C611 C610 1.434 . S
C612 C613 1.369 . S
C612 C614 1.419 . S
C612 H616 0.930 . S
C613 C612 1.369 . S
C613 C622 1.429 1_455 S
C614 C612 1.419 . S
C614 C615 1.363 . S
C614 H617 0.929 . S
C615 C614 1.363 . S
C615 C621 1.428 1_455 S
H616 C612 0.930 . S
H617 C614 0.929 . S
S618 N619 1.613 . S
S618 N620 1.610 . S
N619 S618 1.613 . S
N619 C622 1.350 . S
N620 S618 1.610 . S
N620 C621 1.351 . S
C621 C615 1.428 1_655 S
C621 N620 1.351 . S
C621 C622 1.434 . S
C622 C613 1.429 1_655 S
C622 N619 1.350 . S
C622 C621 1.434 . S
C623 C624 1.369 . S
C623 C625 1.419 . S
C623 H627 0.930 . S
C624 C623 1.369 . S
C624 C633 1.429 1_545 S
C625 C623 1.419 . S
C625 C626 1.363 . S
C625 H628 0.929 . S
C626 C625 1.363 . S
C626 C632 1.428 1_545 S
H627 C623 0.930 . S
H628 C625 0.929 . S
S629 N630 1.613 . S
S629 N631 1.610 . S
N630 S629 1.613 . S
N630 C633 1.350 . S
N631 S629 1.610 . S
N631 C632 1.351 . S
C632 C626 1.428 1_565 S
C632 N631 1.351 . S
C632 C633 1.434 . S
C633 C624 1.429 1_565 S
C633 N630 1.350 . S
C633 C632 1.434 . S
C634 C635 1.369 . S
C634 C636 1.419 . S
C634 H638 0.930 . S
C635 C634 1.369 . S
C635 C644 1.429 . S
C636 C634 1.419 . S
C636 C637 1.363 . S
C636 H639 0.929 . S
C637 C636 1.363 . S
C637 C643 1.428 . S
H638 C634 0.930 . S
H639 C636 0.929 . S
S640 N641 1.613 . S
S640 N642 1.610 . S
N641 S640 1.613 . S
N641 C644 1.350 . S
N642 S640 1.610 . S
N642 C643 1.351 . S
C643 C637 1.428 . S
C643 N642 1.351 . S
C643 C644 1.434 . S
C644 C635 1.429 . S
C644 N641 1.350 . S
C644 C643 1.434 . S
C645 C646 1.369 1_565 S
C645 C647 1.419 . S
C645 H649 0.930 . S
C646 C645 1.369 1_545 S
C646 C655 1.429 . S
C647 C645 1.419 . S
C647 C648 1.363 . S
C647 H650 0.929 . S
C648 C647 1.363 . S
C648 C654 1.428 1_565 S
H649 C645 0.930 . S
H650 C647 0.929 . S
S651 N652 1.613 . S
S651 N653 1.610 . S
N652 S651 1.613 . S
N652 C655 1.350 . S
N653 S651 1.610 . S
N653 C654 1.351 . S
C654 C648 1.428 1_545 S
C654 N653 1.351 . S
C654 C655 1.434 . S
C655 C646 1.429 . S
C655 N652 1.350 . S
C655 C654 1.434 . S
C656 C657 1.369 . S
C656 C658 1.419 . S
C656 H660 0.930 . S
C657 C656 1.369 . S
C657 C666 1.429 . S
C658 C656 1.419 . S
C658 C659 1.363 . S
C658 H661 0.929 . S
C659 C658 1.363 . S
C659 C665 1.428 . S
H660 C656 0.930 . S
H661 C658 0.929 . S
S662 N663 1.613 . S
S662 N664 1.610 . S
N663 S662 1.613 . S
N663 C666 1.350 . S
N664 S662 1.610 . S
N664 C665 1.351 . S
C665 C659 1.428 . S
C665 N664 1.351 . S
C665 C666 1.434 . S
C666 C657 1.429 . S
C666 N663 1.350 . S
C666 C665 1.434 . S
C667 C668 1.369 . S
C667 C669 1.419 . S
C667 H671 0.930 . S
C668 C667 1.369 . S
C668 C677 1.429 1_455 S
C669 C667 1.419 . S
C669 C670 1.370 . S
C669 H672 0.929 . S
C670 C669 1.370 . S
C670 C676 1.423 1_455 S
H671 C667 0.930 . S
H672 C669 0.929 . S
S673 N674 1.613 . S
S673 N675 1.610 . S
N674 S673 1.613 . S
N674 C677 1.350 . S
N675 S673 1.610 . S
N675 C676 1.351 . S
C676 C670 1.423 1_655 S
C676 N675 1.351 . S
C676 C677 1.434 . S
C677 C668 1.429 1_655 S
C677 N674 1.350 . S
C677 C676 1.434 . S
C481 C6 0.890 . S
C483 C451 0.971 . S
C492 C59 2.016 . S
C494 C301 1.846 . S
C503 C86 1.355 . S
C505 C361 1.383 . S
C514 C15 0.650 . S
C516 C421 0.587 . S
C527 C331 2.128 . S
C525 C50 2.154 . S
C538 C391 1.386 . S
C536 C95 1.367 . S
C547 C46 1.292 . S
C549 C181 1.284 . S
C558 C99 3.177 . S
C560 C271 3.169 . S
C569 C10 2.184 . S
C571 C151 2.190 . S
C582 C211 1.391 . S
C580 C55 1.349 . S
C593 C241 2.930 . S
C591 C90 3.114 . S
C602 C19 2.020 . S
C604 C121 1.848 . S
C615 C260 1.768 1_554 S
C613 C18 1.725 . S
C624 C49 1.320 . S
C626 C140 1.339 . S
C635 C98 1.451 . S
C637 C200 1.473 . S
C648 C380 1.457 . S
C646 C58 1.441 . S
C659 C440 1.077 . S
C657 C89 1.077 . S
C668 C9 1.318 . S
C670 C320 1.327 . S
