# Generated by pormake.
# Topology rtl, (3,6)-cn, num edge types: 1
# Building blocks:
#     Node 0, Type 0, BuildingBlock: BETDAH_clean_linker_0, # of connection points: 3
#     Node 1, Type 0, BuildingBlock: BETDAH_clean_linker_0, # of connection points: 3
#     Node 2, Type 0, BuildingBlock: BETDAH_clean_linker_0, # of connection points: 3
#     Node 3, Type 0, BuildingBlock: BETDAH_clean_linker_0, # of connection points: 3
#     Node 4, Type 1, BuildingBlock: KUMBOL_clean_sbu_1, # of connection points: 6
#     Node 5, Type 1, BuildingBlock: KUMBOL_clean_sbu_1, # of connection points: 6
#     Edge 6, Type (0, 1), BuildingBlock: MIFKUJ_clean_linker_0, # of connection points: 2
#     Edge 7, Type (0, 1), BuildingBlock: MIFKUJ_clean_linker_0, # of connection points: 2
#     Edge 8, Type (0, 1), BuildingBlock: MIFKUJ_clean_linker_0, # of connection points: 2
#     Edge 9, Type (0, 1), BuildingBlock: MIFKUJ_clean_linker_0, # of connection points: 2
#     Edge 10, Type (0, 1), BuildingBlock: MIFKUJ_clean_linker_0, # of connection points: 2
#     Edge 11, Type (0, 1), BuildingBlock: MIFKUJ_clean_linker_0, # of connection points: 2
#     Edge 12, Type (0, 1), BuildingBlock: MIFKUJ_clean_linker_0, # of connection points: 2
#     Edge 13, Type (0, 1), BuildingBlock: MIFKUJ_clean_linker_0, # of connection points: 2
#     Edge 14, Type (0, 1), BuildingBlock: MIFKUJ_clean_linker_0, # of connection points: 2
#     Edge 15, Type (0, 1), BuildingBlock: MIFKUJ_clean_linker_0, # of connection points: 2
#     Edge 16, Type (0, 1), BuildingBlock: MIFKUJ_clean_linker_0, # of connection points: 2
#     Edge 17, Type (0, 1), BuildingBlock: MIFKUJ_clean_linker_0, # of connection points: 2
# Relax obj value: 0.048
# Max RMSD: 0.206
# Mean RMSD: 0.150
data_MOF--net-rtl--node1-KUMBOL_clean_sbu_1--node2-BETDAH_clean_linker_0--edge1-MIFKUJ_clean_linker_0
_symmetry_space_group_name_H-M    P1
_symmetry_Int_Tables_number       1
_symmetry_cell_setting            triclinic
loop_
_symmetry_equiv_pos_as_xyz
'x, y, z'
_cell_length_a     45.658097
_cell_length_b     45.542385
_cell_length_c     34.378206
_cell_angle_alpha  80.979749
_cell_angle_beta   100.54302
_cell_angle_gamma 91.033393
loop_
_atom_site_label
_atom_site_type_symbol
_atom_site_fract_x
_atom_site_fract_y
_atom_site_fract_z
_atom_type_partial_charge
H0 H 0.16976 0.8763 1.00389 0.0
H1 H 0.20592 0.80295 0.09337 0.0
H2 H 0.21968 0.80689 0.9725 0.0
C3 C 0.18263 0.85582 0.01249 0.0
C4 C 0.19397 0.8434 0.98314 0.0
C5 C 0.18695 0.84172 0.05253 0.0
C6 C 0.20306 0.81481 0.063 0.0
C7 C 0.21537 0.80249 0.0347 0.0
C8 C 0.21082 0.81678 0.99465 0.0
N9 N 0.23067 0.77484 0.04756 0.0
C10 C 0.25255 0.76412 0.02997 0.0
H11 H 0.64422 0.66392 0.61392 0.0
H12 H 0.71273 0.72097 0.57362 0.0
H13 H 0.69309 0.72016 0.69142 0.0
C14 C 0.66123 0.68048 0.61909 0.0
C15 C 0.66676 0.69053 0.65623 0.0
C16 C 0.6779 0.69086 0.58911 0.0
C17 C 0.6996 0.71284 0.59621 0.0
C18 C 0.7049 0.72354 0.63318 0.0
C19 C 0.68866 0.71206 0.66291 0.0
N20 N 0.72664 0.74537 0.64238 0.0
C21 C 0.74448 0.76006 0.6169 0.0
H22 H 0.85145 0.13464 0.06184 0.0
H23 H 0.78935 0.19327 0.09232 0.0
H24 H 0.79199 0.18991 0.96873 0.0
C25 C 0.83342 0.15081 0.05249 0.0
C26 C 0.82332 0.16068 0.01152 0.0
C27 C 0.82111 0.16208 0.08181 0.0
C28 C 0.79889 0.18441 0.0699 0.0
C29 C 0.78851 0.19447 0.02884 0.0
C30 C 0.80063 0.18237 1.00017 0.0
N31 N 0.76562 0.21628 0.01458 0.0
C32 C 0.75235 0.23273 0.0376 0.0
H33 H 0.36755 0.36445 0.45035 0.0
H34 H 0.30838 0.29737 0.49437 0.0
H35 H 0.33009 0.30016 0.37732 0.0
C36 C 0.35293 0.34575 0.44615 0.0
C37 C 0.34999 0.33432 0.4101 0.0
C38 C 0.33832 0.33253 0.47719 0.0
C39 C 0.32008 0.30764 0.47113 0.0
C40 C 0.31716 0.29596 0.43499 0.0
C41 C 0.33244 0.3092 0.40508 0.0
N42 N 0.29957 0.27072 0.42738 0.0
C43 C 0.27903 0.25743 0.44976 0.0
C44 C 0.97659 0.10447 0.537 0.0
C45 C 0.92761 0.10818 0.49455 0.0
C46 C 0.95146 0.09087 0.51857 0.0
C47 C 0.92967 0.13932 0.4886 0.0
C48 C 0.9782 0.13571 0.53239 0.0
C49 C 0.95485 0.15305 0.50756 0.0
N50 N 0.99872 0.08717 0.56116 0.0
C51 C 0.02229 0.09952 0.58311 0.0
C52 C 1.00285 0.1486 0.55376 0.0
C53 C 0.02493 0.13042 0.57939 0.0
Gd54 Gd 0.03524 0.98206 0.50961 0.0
Gd55 Gd 0.99225 0.03585 0.56499 0.0
N56 N 0.95012 0.06066 0.52476 0.0
C57 C 0.90219 0.09368 0.47782 0.0
C58 C 0.92479 0.04646 0.51034 0.0
C59 C 0.90066 0.06272 0.4862 0.0
H60 H 0.92343 0.02258 0.51662 0.0
H61 H 0.88088 0.05135 0.47426 0.0
H62 H 0.09525 0.02585 0.49885 0.0
H63 H 0.03878 0.08544 0.60398 0.0
H64 H 0.14608 0.03145 0.53541 0.0
H65 H 0.88341 0.10617 0.4591 0.0
H66 H 0.91165 0.153 0.47003 0.0
H67 H 0.01432 0.91314 0.54078 0.0
H68 H 1.0046 0.17252 0.55149 0.0
H69 H 0.04375 0.14019 0.59666 0.0
H70 H 0.16213 0.94343 0.63361 0.0
H71 H 0.95582 0.17711 0.5034 0.0
H72 H 0.08584 0.86978 0.62814 0.0
H73 H 0.03502 0.86861 0.58819 0.0
N74 N 0.05315 0.93885 0.55371 0.0
C75 C 0.08143 0.93967 0.57437 0.0
C76 C 0.03662 0.91363 0.55787 0.0
C77 C 0.07699 0.8892 0.6071 0.0
C78 C 0.04827 0.88846 0.58465 0.0
C79 C 0.09398 0.91497 0.6021 0.0
H80 H 0.13275 0.89824 0.64592 0.0
N81 N 0.08543 0.98827 0.53946 0.0
C82 C 0.09778 0.96536 0.56771 0.0
C83 C 0.14442 0.99151 0.57776 0.0
C84 C 0.12742 0.96665 0.58823 0.0
C85 C 0.10321 0.01048 0.52574 0.0
C86 C 0.1325 0.01313 0.54559 0.0
O87 O 0.98301 0.04532 0.4974 0.0
O88 O 0.99441 0.00452 0.46934 0.0
O89 O 0.05724 0.98509 0.45785 0.0
O90 O 0.03458 0.94511 0.47668 0.0
O91 O 0.96842 0.99308 0.55268 0.0
O92 O 0.98841 0.96632 0.51048 0.0
O93 O 0.02833 0.97129 0.57415 0.0
O94 O 0.03643 0.01555 0.59619 0.0
O95 O 0.97666 0.0098 0.61583 0.0
O96 O 0.97673 0.05782 0.60907 0.0
O97 O 0.04286 0.03214 0.49975 0.0
O98 O 0.04038 0.04458 0.56119 0.0
C99 C 0.98112 0.03031 0.46732 0.0
C100 C 0.96795 0.97111 0.5315 0.0
C101 C 0.03466 0.9575 0.40783 0.0
C102 C 0.03947 0.94761 0.34129 0.0
C103 C 0.99075 0.95787 0.35606 0.0
C104 C 1.00377 0.96091 0.39516 0.0
C105 C 0.00833 0.95105 0.32939 0.0
C106 C 0.05245 0.95119 0.3808 0.0
C107 C 0.04834 0.95913 0.44965 0.0
C108 C 0.13956 0.94262 0.61718 0.0
C109 C 0.1229 0.91681 0.62403 0.0
H110 H 0.16726 0.99337 0.59276 0.0
C111 C 0.04003 0.98669 0.60221 0.0
C112 C 0.04949 0.05005 0.52672 0.0
C113 C 0.98465 0.0324 0.67458 0.0
C114 C 0.97916 0.04424 0.7397 0.0
C115 C 0.02631 0.02506 0.73022 0.0
C116 C 0.01428 0.02371 0.69021 0.0
C117 C 0.00892 0.03536 0.75485 0.0
C118 C 0.96717 0.04271 0.69935 0.0
C119 C 0.97238 0.03319 0.63185 0.0
H120 H 0.96685 0.96029 0.34659 0.0
H121 H 0.98971 0.96538 0.41575 0.0
H122 H 0.99732 0.94782 0.29972 0.0
H123 H 0.07634 0.94897 0.39078 0.0
H124 H 0.04927 0.01846 0.74202 0.0
H125 H 0.02818 0.01648 0.67128 0.0
H126 H 0.01886 0.03685 0.78558 0.0
H127 H 0.94431 0.04968 0.68714 0.0
C128 C 0.60109 0.55453 0.03684 0.0
C129 C 0.58947 0.60529 1.0042 0.0
C130 C 0.58096 0.57833 0.02532 0.0
C131 C 0.61785 0.60771 0.99376 0.0
C132 C 0.62964 0.55698 0.02647 0.0
C133 C 0.63784 0.58362 1.00478 0.0
N134 N 0.59243 0.52869 0.05705 0.0
C135 C 0.61144 0.50488 0.06891 0.0
C136 C 0.64897 0.53236 0.03762 0.0
C137 C 0.63981 0.50623 0.05895 0.0
Gd138 Gd 0.48134 0.48605 1.00173 0.0
Gd139 Gd 0.54402 0.52848 0.07063 0.0
N140 N 0.5532 0.57516 0.03476 0.0
C141 C 0.56937 0.62922 0.99459 0.0
C142 C 0.53427 0.59907 0.02747 0.0
C143 C 0.54181 0.62619 0.0067 0.0
H144 H 0.51374 0.59796 0.03863 0.0
H145 H 0.52654 0.64492 1.00066 0.0
H146 H 0.51686 0.41891 0.01619 0.0
H147 H 0.60496 0.48499 0.08662 0.0
H148 H 0.51568 0.37015 0.05801 0.0
H149 H 0.57526 0.65036 0.97883 0.0
H150 H 0.62459 0.62818 0.97725 0.0
H151 H 0.41817 0.52105 1.00377 0.0
H152 H 0.67099 0.5333 0.02996 0.0
H153 H 0.65464 0.48716 0.06777 0.0
H154 H 0.42861 0.37496 0.11634 0.0
H155 H 0.65961 0.58583 0.99639 0.0
H156 H 0.36807 0.46324 0.07732 0.0
H157 H 0.37342 0.51152 0.0349 0.0
N158 N 0.43766 0.47868 0.02853 0.0
C159 C 0.4348 0.45165 0.05071 0.0
C160 C 0.41586 0.49993 0.02217 0.0
C161 C 0.38758 0.46722 0.0635 0.0
C162 C 0.39055 0.49455 0.03966 0.0
C163 C 0.4098 0.44535 0.06925 0.0
H164 H 0.38908 0.41258 0.10812 0.0
N165 N 0.48133 0.43733 0.03743 0.0
C166 C 0.4575 0.43063 0.05588 0.0
C167 C 0.47706 0.38094 0.08096 0.0
C168 C 0.45512 0.40246 0.0789 0.0
C169 C 0.50079 0.41532 0.03578 0.0
C170 C 0.49959 0.38719 0.05851 0.0
O171 O 0.5495 0.52561 0.00711 0.0
O172 O 0.50242 0.52555 0.96913 0.0
O173 O 0.48187 0.4624 0.95132 0.0
O174 O 0.44191 0.48483 0.95607 0.0
O175 O 0.49711 0.54852 0.05481 0.0
O176 O 0.47353 0.53549 0.99399 0.0
O177 O 0.47615 0.49444 0.06361 0.0
O178 O 0.52297 0.48803 0.10063 0.0
O179 O 0.53661 0.55084 0.11976 0.0
O180 O 0.58019 0.53352 0.11932 0.0
O181 O 0.52972 0.47054 0.01213 0.0
O182 O 0.54939 0.47879 0.07631 0.0
C183 C 0.53073 0.53263 0.97319 0.0
C184 C 0.4764 0.55269 0.02194 0.0
C185 C 0.45038 0.48315 0.89111 0.0
C186 C 0.43636 0.47672 0.82065 0.0
C187 C 0.44714 0.526 0.83885 0.0
C188 C 0.45282 0.51385 0.87931 0.0
C189 C 0.43874 0.50773 0.80975 0.0
C190 C 0.44244 0.46462 0.86179 0.0
C191 C 0.45486 0.47055 0.93396 0.0
C192 C 0.43058 0.39635 0.09816 0.0
C193 C 0.40797 0.41771 0.09331 0.0
H194 H 0.47604 0.35905 0.0983 0.0
C195 C 0.49413 0.48477 0.09732 0.0
C196 C 0.54913 0.4644 0.04592 0.0
C197 C 0.56744 0.53332 0.18212 0.0
C198 C 0.58299 0.53979 0.25223 0.0
C199 C 0.57232 0.49041 0.23437 0.0
C200 C 0.56535 0.50258 0.19397 0.0
C201 C 0.5814 0.50873 0.26324 0.0
C202 C 0.57579 0.55187 0.21122 0.0
C203 C 0.56373 0.54582 0.13943 0.0
H204 H 0.44879 0.54976 0.82999 0.0
H205 H 0.45859 0.52846 0.90146 0.0
H206 H 0.43353 0.51814 0.77873 0.0
H207 H 0.44102 0.44088 0.87121 0.0
H208 H 0.57129 0.4666 0.24327 0.0
H209 H 0.5592 0.48793 0.17193 0.0
H210 H 0.58778 0.49841 0.29415 0.0
H211 H 0.57699 0.57563 0.2017 0.0
H212 H 0.28547 0.2046 0.49857 0.0
H213 H 0.24522 0.17136 0.51576 0.0
H214 H 0.18018 0.23769 0.45181 0.0
H215 H 0.2205 0.271 0.4352 0.0
H216 H 0.16213 0.20983 0.51782 0.0
H217 H 0.19928 0.18127 0.40708 0.0
H218 H 0.23759 0.16624 0.37177 0.0
H219 H 0.25793 0.08832 0.46046 0.0
H220 H 0.21999 0.10312 0.4966 0.0
H221 H 0.06277 0.07709 0.45532 0.0
H222 H 0.10034 0.11512 0.44454 0.0
H223 H 0.12182 0.11651 0.5717 0.0
H224 H 0.085 0.07794 0.58278 0.0
H225 H 0.16035 0.11149 0.47245 0.0
H226 H 0.14066 0.18672 0.58599 0.0
H227 H 0.09918 0.20556 0.61258 0.0
H228 H 0.03865 0.19463 0.50457 0.0
H229 H 0.07965 0.17547 0.47763 0.0
C230 C 0.26256 0.21225 0.48916 0.0
C231 C 0.25588 0.24028 0.46595 0.0
C232 C 0.23959 0.19322 0.49865 0.0
C233 C 0.20961 0.20183 0.48457 0.0
C234 C 0.20308 0.23053 0.46302 0.0
C235 C 0.22607 0.24956 0.45361 0.0
C236 C 0.18513 0.18037 0.49 0.0
C237 C 0.16188 0.18825 0.50815 0.0
C238 C 0.18429 0.15246 0.47649 0.0
C239 C 0.20703 0.14346 0.45476 0.0
C240 C 0.21209 0.16105 0.41921 0.0
C241 C 0.2337 0.15256 0.39902 0.0
C242 C 0.25024 0.12639 0.41392 0.0
C243 C 0.24514 0.10862 0.44899 0.0
C244 C 0.22357 0.11703 0.46933 0.0
C245 C 0.07536 0.08565 0.48096 0.0
C246 C 0.07063 0.07469 0.51988 0.0
C247 C 0.09684 0.10735 0.47476 0.0
C248 C 0.11377 0.11883 0.50727 0.0
C249 C 0.10873 0.10832 0.54609 0.0
C250 C 0.08749 0.08639 0.55235 0.0
C251 C 0.13762 0.14078 0.50081 0.0
C252 C 0.16077 0.13295 0.48248 0.0
C253 C 0.13804 0.16895 0.51336 0.0
C254 C 0.11315 0.17945 0.53 0.0
C255 C 0.11845 0.18824 0.56804 0.0
C256 C 0.09502 0.19892 0.5832 0.0
C257 C 0.06627 0.20122 0.56035 0.0
C258 C 0.06087 0.19268 0.52238 0.0
C259 C 0.08415 0.18174 0.50726 0.0
H260 H 0.04819 0.20963 0.57205 0.0
H261 H 0.26697 0.11984 0.39824 0.0
H262 H 0.25696 0.74573 0.9596 0.0
H263 H 0.29698 0.71425 0.94838 0.0
H264 H 0.34245 0.71534 0.06987 0.0
H265 H 0.30304 0.74725 0.08048 0.0
H266 H 0.38185 0.71863 0.02226 0.0
H267 H 0.29586 0.65707 0.04128 0.0
H268 H 0.24337 0.64225 0.02461 0.0
H269 H 0.25577 0.63096 0.90697 0.0
H270 H 0.30826 0.64605 0.92283 0.0
H271 H 0.46705 0.5866 0.07771 0.0
H272 H 0.43053 0.62651 0.06977 0.0
H273 H 0.39948 0.61484 0.94696 0.0
H274 H 0.43591 0.57459 0.95471 0.0
H275 H 0.35351 0.61988 0.98429 0.0
H276 H 0.44077 0.67601 0.96741 0.0
H277 H 0.49342 0.69019 0.98395 0.0
H278 H 0.47917 0.71094 0.09672 0.0
H279 H 0.42637 0.69692 0.0808 0.0
C280 C 0.27586 0.73961 0.98347 0.0
C281 C 0.27723 0.74881 0.0208 0.0
C282 C 0.29857 0.72149 0.97722 0.0
C283 C 0.3226 0.71202 0.00849 0.0
C284 C 0.32427 0.72232 0.04526 0.0
C285 C 0.30177 0.74051 0.05135 0.0
C286 C 0.34529 0.6902 1.0042 0.0
C287 C 0.37562 0.69701 0.01409 0.0
C288 C 0.33731 0.66222 0.99249 0.0
C289 C 0.30584 0.65301 0.98307 0.0
C290 C 0.28732 0.65161 0.01178 0.0
C291 C 0.25759 0.64314 1.00249 0.0
C292 C 0.24622 0.63576 0.96471 0.0
C293 C 0.26459 0.63674 0.93619 0.0
C294 C 0.29432 0.64524 0.94531 0.0
C295 C 0.45265 0.59261 0.04887 0.0
C296 C 0.45457 0.57743 0.0168 0.0
C297 C 0.43181 0.61556 0.04433 0.0
C298 C 0.41251 0.62401 0.00758 0.0
C299 C 0.41421 0.6088 0.97555 0.0
C300 C 0.43508 0.5858 0.98005 0.0
C301 C 0.39 0.64809 1.00327 0.0
C302 C 0.35975 0.64169 0.9918 0.0
C303 C 0.39803 0.67645 0.01346 0.0
C304 C 0.42967 0.68525 0.02301 0.0
C305 C 0.4489 0.68347 0.99581 0.0
C306 C 0.47877 0.6915 0.00506 0.0
C307 C 0.48968 0.7013 0.04146 0.0
C308 C 0.47069 0.70331 0.06855 0.0
C309 C 0.44076 0.69545 0.05936 0.0
H310 H 0.51284 0.70742 0.04861 0.0
H311 H 0.22319 0.62921 0.95757 0.0
H312 H 0.80127 0.74623 0.61463 0.0
H313 H 0.83907 0.78068 0.59236 0.0
H314 H 0.77259 0.85059 0.55577 0.0
H315 H 0.73481 0.81595 0.57753 0.0
H316 H 0.81028 0.85474 0.50366 0.0
H317 H 0.81855 0.84418 0.64648 0.0
H318 H 0.82449 0.8171 0.71548 0.0
H319 H 0.9096 0.78341 0.70553 0.0
H320 H 0.90397 0.80999 0.63622 0.0
H321 H 0.91766 0.9747 0.56404 0.0
H322 H 0.87884 0.93744 0.57008 0.0
H323 H 0.92365 0.88057 0.51013 0.0
H324 H 0.96198 0.91805 0.50237 0.0
H325 H 0.8976 0.86946 0.60798 0.0
H326 H 0.88175 0.8758 0.45729 0.0
H327 H 0.87326 0.90587 0.38991 0.0
H328 H 0.79996 0.95083 0.41851 0.0
H329 H 0.80871 0.92163 0.48651 0.0
C330 C 0.7947 0.76876 0.60087 0.0
C331 C 0.76528 0.77855 0.59738 0.0
C332 C 0.81629 0.78849 0.58848 0.0
C333 C 0.8088 0.8184 0.57293 0.0
C334 C 0.77894 0.82768 0.56764 0.0
C335 C 0.75737 0.80792 0.57998 0.0
C336 C 0.83228 0.84043 0.56462 0.0
C337 C 0.82939 0.8578 0.52652 0.0
C338 C 0.85723 0.84476 0.59437 0.0
C339 C 0.86068 0.82879 0.63602 0.0
C340 C 0.83842 0.8308 0.6589 0.0
C341 C 0.84175 0.81558 0.69808 0.0
C342 C 0.86736 0.79847 0.71484 0.0
C343 C 0.88974 0.79662 0.69248 0.0
C344 C 0.8865 0.81176 0.65325 0.0
C345 C 0.91909 0.95455 0.55143 0.0
C346 C 0.94309 0.94954 0.53263 0.0
C347 C 0.89683 0.93325 0.55496 0.0
C348 C 0.89814 0.90647 0.54001 0.0
C349 C 0.92185 0.90139 0.52104 0.0
C350 C 0.94389 0.92284 0.51691 0.0
C351 C 0.87585 0.88304 0.54694 0.0
C352 C 0.87877 0.86582 0.58502 0.0
C353 C 0.85092 0.87893 0.51736 0.0
C354 C 0.84627 0.89703 0.47709 0.0
C355 C 0.86425 0.89254 0.44944 0.0
C356 C 0.85934 0.90936 0.41112 0.0
C357 C 0.83624 0.93042 0.40002 0.0
C358 C 0.81802 0.93472 0.42724 0.0
C359 C 0.823 0.91811 0.46569 0.0
H360 H 0.83231 0.9432 0.37024 0.0
H361 H 0.86991 0.78671 0.74519 0.0
H362 H 0.69849 0.22321 0.0585 0.0
H363 H 0.66481 0.26137 0.06934 0.0
H364 H 0.73316 0.32719 0.05777 0.0
H365 H 0.76689 0.2889 0.04754 0.0
H366 H 0.70086 0.33807 0.11302 0.0
H367 H 0.68153 0.31739 0.97739 0.0
H368 H 0.6698 0.28548 0.92498 0.0
H369 H 0.58746 0.26046 0.96398 0.0
H370 H 0.59892 0.29193 0.017 0.0
H371 H 0.57467 0.4475 0.98722 0.0
H372 H 0.6113 0.40771 0.99372 0.0
H373 H 0.60878 0.38604 0.11993 0.0
H374 H 0.57326 0.42688 0.11373 0.0
H375 H 0.60841 0.35195 0.01041 0.0
H376 H 0.67159 0.35129 0.1711 0.0
H377 H 0.68619 0.38546 0.22018 0.0
H378 H 0.68547 0.4585 0.12458 0.0
H379 H 0.67065 0.4248 0.07477 0.0
C380 C 0.70652 0.24566 0.05958 0.0
C381 C 0.73517 0.25329 0.05257 0.0
C382 C 0.68725 0.26747 0.06545 0.0
C383 C 0.6963 0.29726 0.06377 0.0
C384 C 0.72569 0.3044 0.05924 0.0
C385 C 0.74495 0.28256 0.05347 0.0
C386 C 0.67448 0.32136 0.06277 0.0
C387 C 0.68056 0.34106 0.09073 0.0
C388 C 0.6482 0.32559 0.03332 0.0
C389 C 0.64123 0.30674 1.00141 0.0
C390 C 0.66103 0.3049 0.97497 0.0
C391 C 0.65442 0.28693 0.94514 0.0
C392 C 0.62794 0.27088 0.94123 0.0
C393 C 0.60799 0.27285 0.96709 0.0
C394 C 0.61452 0.29076 0.99702 0.0
C395 C 0.58211 0.43433 0.01636 0.0
C396 C 0.57128 0.4403 0.04999 0.0
C397 C 0.60302 0.41155 0.0201 0.0
C398 C 0.61322 0.39393 0.05744 0.0
C399 C 0.60201 0.39969 0.091 0.0
C400 C 0.58155 0.42292 0.08741 0.0
C401 C 0.63474 0.36903 0.06055 0.0
C402 C 0.62857 0.34901 0.03296 0.0
C403 C 0.66118 0.36493 0.08989 0.0
C404 C 0.66977 0.38556 0.11928 0.0
C405 C 0.67451 0.37465 0.16054 0.0
C406 C 0.68273 0.39395 0.18845 0.0
C407 C 0.68655 0.42417 0.17543 0.0
C408 C 0.68218 0.43514 0.13448 0.0
C409 C 0.6738 0.41598 0.10641 0.0
H410 H 0.693 0.43906 0.19708 0.0
H411 H 0.62286 0.25699 0.91811 0.0
H412 H 0.21125 0.84195 0.13184 0.0
H413 H 0.18907 0.8614 0.18233 0.0
H414 H 0.11188 0.89122 0.09322 0.0
H415 H 0.13307 0.87066 0.0429 0.0
H416 H 0.13667 0.93431 0.14462 0.0
H417 H 0.10493 0.83149 0.15228 0.0
H418 H 0.11385 0.77744 0.16043 0.0
H419 H 0.16776 0.77937 0.27627 0.0
H420 H 0.1595 0.83354 0.26853 0.0
H421 H 0.03141 0.96458 0.25955 0.0
H422 H 0.05908 0.948 0.21284 0.0
H423 H 0.11882 0.89742 0.31137 0.0
H424 H 0.08961 0.91173 0.35814 0.0
H425 H 0.10687 0.86548 0.25715 0.0
H426 H 0.13841 0.96573 0.25446 0.0
H427 H 0.13339 0.02014 0.24858 0.0
H428 H 0.08591 0.02455 0.12782 0.0
H429 H 0.09028 0.9701 0.13313 0.0
C430 C 0.1894 0.85232 0.12295 0.0
C431 C 0.17399 0.85458 0.08312 0.0
C432 C 0.17689 0.86364 0.15183 0.0
C433 C 0.14886 0.87771 0.14146 0.0
C434 C 0.13365 0.8806 0.10173 0.0
C435 C 0.14593 0.86894 0.07294 0.0
C436 C 0.13494 0.88871 0.17224 0.0
C437 C 0.12986 0.91933 0.16908 0.0
C438 C 0.12713 0.86919 0.20486 0.0
C439 C 0.13186 0.8366 0.20964 0.0
C440 C 0.11889 0.82042 0.17934 0.0
C441 C 0.12379 0.78976 0.18391 0.0
C442 C 0.14143 0.77499 0.2188 0.0
C443 C 0.15413 0.79084 0.24924 0.0
C444 C 0.14934 0.82152 0.24479 0.0
C445 C 0.05021 0.94965 0.27145 0.0
C446 C 0.05803 0.93946 0.31289 0.0
C447 C 0.06643 0.94059 0.24459 0.0
C448 C 0.09148 0.92182 0.25843 0.0
C449 C 0.09968 0.91199 0.2998 0.0
C450 C 0.0831 0.92057 0.32666 0.0
C451 C 0.10819 0.91135 0.22965 0.0
C452 C 0.11383 0.88072 0.23305 0.0
C453 C 0.1171 0.931 0.19772 0.0
C454 C 0.11446 0.96378 0.19433 0.0
C455 C 0.12671 0.97827 0.22674 0.0
C456 C 0.12401 0.00913 0.22349 0.0
C457 C 0.10928 0.02578 0.18788 0.0
C458 C 0.09729 0.01161 0.1554 0.0
C459 C 0.0999 0.98076 0.15849 0.0
H460 H 0.10721 0.04967 0.18542 0.0
H461 H 0.1452 0.75125 0.22228 0.0
H462 H 0.69026 0.67032 0.7346 0.0
H463 H 0.66439 0.64493 0.78653 0.0
H464 H 0.5811 0.65498 0.70285 0.0
H465 H 0.60686 0.68059 0.65073 0.0
H466 H 0.57665 0.6664 0.78053 0.0
H467 H 0.61485 0.59117 0.71871 0.0
H468 H 0.65375 0.56567 0.69488 0.0
H469 H 0.70397 0.54815 0.81469 0.0
H470 H 0.66556 0.57397 0.83915 0.0
H471 H 0.49934 0.56367 0.9034 0.0
H472 H 0.51936 0.59055 0.84684 0.0
H473 H 0.60865 0.56607 0.90895 0.0
H474 H 0.5885 0.53635 0.96275 0.0
H475 H 0.60734 0.56235 0.83777 0.0
H476 H 0.57112 0.63978 0.90013 0.0
H477 H 0.53306 0.66672 0.92402 0.0
H478 H 0.48046 0.68095 0.80568 0.0
H479 H 0.518 0.65409 0.78102 0.0
C480 C 0.66636 0.66755 0.72743 0.0
C481 C 0.65061 0.67735 0.68854 0.0
C482 C 0.65164 0.65288 0.75704 0.0
C483 C 0.62087 0.64785 0.74842 0.0
C484 C 0.60486 0.6586 0.71008 0.0
C485 C 0.61962 0.67304 0.68032 0.0
C486 C 0.60575 0.63016 0.77892 0.0
C487 C 0.5831 0.64355 0.79289 0.0
C488 C 0.61446 0.6005 0.7953 0.0
C489 C 0.63746 0.58475 0.78069 0.0
C490 C 0.6343 0.58209 0.73993 0.0
C491 C 0.65624 0.56755 0.72631 0.0
C492 C 0.68135 0.55536 0.75324 0.0
C493 C 0.68453 0.55763 0.79386 0.0
C494 C 0.66267 0.5722 0.80762 0.0
C495 C 0.5232 0.56365 0.90465 0.0
C496 C 0.54237 0.54839 0.93813 0.0
C497 C 0.53471 0.57951 0.87256 0.0
C498 C 0.56569 0.58124 0.87389 0.0
C499 C 0.58471 0.56547 0.90705 0.0
C500 C 0.57317 0.54885 0.93833 0.0
C501 C 0.57862 0.59875 0.8407 0.0
C502 C 0.60082 0.58525 0.82583 0.0
C503 C 0.56967 0.62842 0.82389 0.0
C504 C 0.54724 0.64469 0.83881 0.0
C505 C 0.55136 0.64852 0.87926 0.0
C506 C 0.52991 0.66377 0.89294 0.0
C507 C 0.50436 0.67536 0.86647 0.0
C508 C 0.50024 0.6719 0.82618 0.0
C509 C 0.52161 0.65673 0.81231 0.0
H510 H 0.4878 0.68711 0.87718 0.0
H511 H 0.69831 0.54411 0.74264 0.0
H512 H 0.83989 0.19265 0.14449 0.0
H513 H 0.86399 0.17172 0.21295 0.0
H514 H 0.85152 0.0832 0.18325 0.0
H515 H 0.82722 0.10392 0.11539 0.0
H516 H 0.84102 0.08512 0.25748 0.0
H517 H 0.91729 0.11758 0.18097 0.0
H518 H 0.94344 0.15382 0.13862 0.0
H519 H 0.95976 0.20853 0.23118 0.0
H520 H 0.93332 0.17278 0.27389 0.0
H521 H 0.95159 1.0028 0.40608 0.0
H522 H 0.92131 0.02639 0.34286 0.0
H523 H 0.93877 0.11254 0.3789 0.0
H524 H 0.96978 0.08926 0.44118 0.0
H525 H 0.94548 0.11383 0.3032 0.0
H526 H 0.87025 0.07996 0.38073 0.0
H527 H 0.84149 0.04471 0.42084 0.0
H528 H 0.82339 0.99231 0.32594 0.0
H529 H 0.85188 0.0272 0.28516 0.0
C530 C 0.84181 0.16874 0.15293 0.0
C531 C 0.83195 0.14991 0.1246 0.0
C532 C 0.85577 0.15681 0.19186 0.0
C533 C 0.85996 0.12589 0.20302 0.0
C534 C 0.84867 0.10709 0.17532 0.0
C535 C 0.83491 0.11896 0.13651 0.0
C536 C 0.87728 0.11293 0.24277 0.0
C537 C 0.86394 0.09122 0.26737 0.0
C538 C 0.90703 0.12124 0.25597 0.0
C539 C 0.92303 0.14269 0.23042 0.0
C540 C 0.92624 0.13746 0.19216 0.0
C541 C 0.94115 0.15789 0.16812 0.0
C542 C 0.95317 0.18351 0.18216 0.0
C543 C 0.95038 0.18871 0.22032 0.0
C544 C 0.93545 0.16836 0.24446 0.0
C545 C 0.94925 0.02676 0.40028 0.0
C546 C 0.96312 0.04412 0.42864 0.0
C547 C 0.93161 0.04021 0.36439 0.0
C548 C 0.92747 0.07126 0.35628 0.0
C549 C 0.94153 0.08858 0.38447 0.0
C550 C 0.95911 0.07518 0.42022 0.0
C551 C 0.90926 0.08586 0.31798 0.0
C552 C 0.92249 0.10785 0.29354 0.0
C553 C 0.87945 0.07771 0.30487 0.0
C554 C 0.86346 0.05602 0.33007 0.0
C555 C 0.86047 0.0607 0.36863 0.0
C556 C 0.8442 0.04082 0.39147 0.0
C557 C 0.83095 0.01614 0.37617 0.0
C558 C 0.83384 0.01131 0.33791 0.0
C559 C 0.84996 0.03117 0.31486 0.0
H560 H 0.81823 1.00093 0.39384 0.0
H561 H 0.96472 0.1993 0.1635 0.0
H562 H 0.34432 0.39074 0.4891 0.0
H563 H 0.3599 0.40946 0.55234 0.0
H564 H 0.35803 0.3207 0.61715 0.0
H565 H 0.34402 0.30127 0.55376 0.0
H566 H 0.32945 0.38041 0.64309 0.0
H567 H 0.41798 0.3307 0.62077 0.0
H568 H 0.45279 0.32035 0.57741 0.0
H569 H 0.47162 0.41346 0.55305 0.0
H570 H 0.4365 0.42438 0.59577 0.0
H571 H 0.40248 0.42575 0.82473 0.0
H572 H 0.38573 0.39593 0.77199 0.0
H573 H 0.42979 0.45544 0.69107 0.0
H574 H 0.44892 0.48363 0.74447 0.0
H575 H 0.4367 0.40431 0.67658 0.0
H576 H 0.35031 0.45666 0.69323 0.0
H577 H 0.31315 0.47218 0.73001 0.0
H578 H 0.28756 0.38128 0.75863 0.0
H579 H 0.32484 0.36519 0.72239 0.0
C580 C 0.34731 0.37503 0.51668 0.0
C581 C 0.34339 0.34433 0.51607 0.0
C582 C 0.35595 0.38589 0.55283 0.0
C583 C 0.36028 0.36643 0.58926 0.0
C584 C 0.35474 0.33604 0.58922 0.0
C585 C 0.34657 0.32502 0.55292 0.0
C586 C 0.37251 0.37795 0.62686 0.0
C587 C 0.35297 0.38512 0.65107 0.0
C588 C 0.40299 0.38495 0.63626 0.0
C589 C 0.4244 0.37837 0.61109 0.0
C590 C 0.42933 0.34898 0.60585 0.0
C591 C 0.44915 0.34301 0.58146 0.0
C592 C 0.46434 0.36624 0.56239 0.0
C593 C 0.45981 0.39549 0.56779 0.0
C594 C 0.43996 0.40158 0.59211 0.0
C595 C 0.40921 0.43221 0.79602 0.0
C596 C 0.42689 0.4575 0.78905 0.0
C597 C 0.39912 0.41533 0.76553 0.0
C598 C 0.40577 0.42374 0.727 0.0
C599 C 0.42406 0.44846 0.72032 0.0
C600 C 0.43468 0.46492 0.75094 0.0
C601 C 0.39365 0.4072 0.69335 0.0
C602 C 0.41321 0.39923 0.66945 0.0
C603 C 0.36302 0.40008 0.68381 0.0
C604 C 0.34058 0.4097 0.70552 0.0
C605 C 0.3369 0.43997 0.70761 0.0
C606 C 0.3158 0.44887 0.72832 0.0
C607 C 0.29807 0.42772 0.74675 0.0
C608 C 0.30135 0.39763 0.74441 0.0
C609 C 0.32244 0.38861 0.72377 0.0
H610 H 0.28175 0.43465 0.76277 0.0
H611 H 0.47968 0.36158 0.54352 0.0
H612 H 0.66685 0.63278 0.58067 0.0
H613 H 0.65388 0.61169 0.5194 0.0
H614 H 0.66664 0.69692 0.44999 0.0
H615 H 0.67753 0.71894 0.51172 0.0
H616 H 0.61925 0.67373 0.41469 0.0
H617 H 0.7173 0.63646 0.46321 0.0
H618 H 0.76007 0.61296 0.5119 0.0
H619 H 0.71179 0.53145 0.52715 0.0
H620 H 0.66855 0.55456 0.47898 0.0
H621 H 0.61663 0.59079 0.24634 0.0
H622 H 0.6348 0.62076 0.2988 0.0
H623 H 0.59245 0.56181 0.38197 0.0
H624 H 0.57251 0.53276 0.32939 0.0
H625 H 0.66018 0.57582 0.40352 0.0
H626 H 0.56002 0.61879 0.35786 0.0
H627 H 0.51989 0.64386 0.306 0.0
H628 H 0.57771 0.71704 0.28082 0.0
H629 H 0.61835 0.69214 0.33216 0.0
C630 C 0.66663 0.64727 0.55245 0.0
C631 C 0.67287 0.67775 0.55129 0.0
C632 C 0.6597 0.63497 0.51728 0.0
C633 C 0.65975 0.6525 0.47987 0.0
C634 C 0.66655 0.68285 0.47846 0.0
C635 C 0.67307 0.69537 0.51383 0.0
C636 C 0.65139 0.63905 0.44256 0.0
C637 C 0.62871 0.65262 0.41201 0.0
C638 C 0.66357 0.61144 0.43871 0.0
C639 C 0.68959 0.59733 0.46761 0.0
C640 C 0.71572 0.61358 0.47713 0.0
C641 C 0.74007 0.60032 0.50462 0.0
C642 C 0.73864 0.57075 0.52265 0.0
C643 C 0.71287 0.55435 0.51316 0.0
C644 C 0.68845 0.56751 0.48571 0.0
C645 C 0.6105 0.58449 0.27545 0.0
C646 C 0.59313 0.55909 0.28344 0.0
C647 C 0.62117 0.60156 0.30548 0.0
C648 C 0.61506 0.59335 0.34418 0.0
C649 C 0.59755 0.56834 0.35227 0.0
C650 C 0.58638 0.55162 0.32216 0.0
C651 C 0.62769 0.61011 0.37684 0.0
C652 C 0.65119 0.59714 0.40625 0.0
C653 C 0.61676 0.63848 0.37917 0.0
C654 C 0.59233 0.65342 0.34843 0.0
C655 C 0.56428 0.64006 0.34094 0.0
C656 C 0.54142 0.65427 0.31173 0.0
C657 C 0.54628 0.68197 0.29002 0.0
C658 C 0.57399 0.69555 0.29758 0.0
C659 C 0.59694 0.6814 0.32675 0.0
H660 H 0.52855 0.69295 0.26743 0.0
H661 H 0.75751 0.56052 0.54393 0.0
H662 H 0.84184 0.10335 0.01329 0.0
H663 H 0.86673 0.08421 0.96518 0.0
H664 H 0.85881 0.17031 0.89116 0.0
H665 H 0.83513 0.19019 0.93997 0.0
H666 H 0.84303 0.1188 0.84925 0.0
H667 H 0.92169 0.15538 0.94331 0.0
H668 H 0.94915 0.15929 0.01105 0.0
H669 H 0.96722 0.06536 0.03293 0.0
H670 H 0.93942 0.06082 0.9655 0.0
H671 H 0.94443 0.0945 0.72288 0.0
H672 H 0.91603 0.11429 0.767 0.0
H673 H 0.94403 0.03924 0.85918 0.0
H674 H 0.97327 0.02006 0.81567 0.0
H675 H 0.94872 0.0862 0.89163 0.0
H676 H 0.87118 0.04766 0.80046 0.0
H677 H 0.84185 0.04095 0.73478 0.0
H678 H 0.81957 0.13403 0.70916 0.0
H679 H 0.84911 0.14138 0.7745 0.0
C680 C 0.84562 0.11839 0.98704 0.0
C681 C 0.83669 0.14847 0.98085 0.0
C682 C 0.85961 0.1073 0.95941 0.0
C683 C 0.86467 0.12591 0.92479 0.0
C684 C 0.85496 0.15561 0.91768 0.0
C685 C 0.84131 0.16687 0.94558 0.0
C686 C 0.88119 0.11455 0.8969 0.0
C687 C 0.86625 0.112 0.85817 0.0
C688 C 0.91119 0.10497 0.90915 0.0
C689 C 0.92822 0.10772 0.94951 0.0
C690 C 0.9313 0.13552 0.96269 0.0
C691 C 0.94696 0.13786 1.001 0.0
C692 C 0.95985 0.11258 0.02632 0.0
C693 C 0.95718 0.08492 0.01331 0.0
C694 C 0.9415 0.08245 0.97504 0.0
C695 C 0.94427 0.08213 0.75244 0.0
C696 C 0.96096 0.05567 0.7658 0.0
C697 C 0.92796 0.0934 0.77762 0.0
C698 C 0.92748 0.07807 0.81632 0.0
C699 C 0.94403 0.05153 0.82953 0.0
C700 C 0.96071 0.04053 0.80462 0.0
C701 C 0.9106 0.09011 0.84361 0.0
C702 C 0.9255 0.0929 0.88239 0.0
C703 C 0.8804 0.09946 0.83153 0.0
C704 C 0.86262 0.09512 0.79221 0.0
C705 C 0.86022 0.06675 0.78069 0.0
C706 C 0.84353 0.06281 0.74354 0.0
C707 C 0.82893 0.08706 0.71776 0.0
C708 C 0.83093 0.11528 0.72913 0.0
C709 C 0.84763 0.11934 0.76623 0.0
H710 H 0.81601 0.08397 0.68902 0.0
H711 H 0.97196 0.11443 0.05598 0.0
H712 H 0.34677 0.39251 0.37548 0.0
H713 H 0.37182 0.41637 0.32144 0.0
H714 H 0.4133 0.33269 0.31844 0.0
H715 H 0.38758 0.3085 0.37169 0.0
H716 H 0.4504 0.39438 0.32609 0.0
H717 H 0.37135 0.34283 0.24839 0.0
H718 H 0.31884 0.32967 0.22733 0.0
H719 H 0.29595 0.42196 0.18821 0.0
H720 H 0.34829 0.43569 0.20969 0.0
H721 H 0.51795 0.43894 0.15478 0.0
H722 H 0.49463 0.41227 0.20865 0.0
H723 H 0.41869 0.47187 0.1719 0.0
H724 H 0.44158 0.49779 0.11743 0.0
H725 H 0.39898 0.41977 0.18482 0.0
H726 H 0.47294 0.47376 0.26156 0.0
H727 H 0.52225 0.49198 0.28973 0.0
H728 H 0.55257 0.40223 0.33441 0.0
H729 H 0.5034 0.38347 0.30652 0.0
C730 C 0.36119 0.37924 0.36318 0.0
C731 C 0.36527 0.3487 0.37763 0.0
C732 C 0.37537 0.39283 0.33233 0.0
C733 C 0.39424 0.37621 0.31596 0.0
C734 C 0.39868 0.34579 0.33065 0.0
C735 C 0.38398 0.33204 0.3609 0.0
C736 C 0.40986 0.39092 0.28416 0.0
C737 C 0.43946 0.39952 0.295 0.0
C738 C 0.39506 0.39853 0.24409 0.0
C739 C 0.36364 0.39029 0.23117 0.0
C740 C 0.35505 0.36033 0.23578 0.0
C741 C 0.32534 0.35277 0.22364 0.0
C742 C 0.30405 0.37497 0.20658 0.0
C743 C 0.31245 0.40479 0.20152 0.0
C744 C 0.34213 0.41247 0.21365 0.0
C745 C 0.49645 0.44649 0.15865 0.0
C746 C 0.48148 0.47032 0.13199 0.0
C747 C 0.48314 0.43131 0.18949 0.0
C748 C 0.45492 0.44014 0.19476 0.0
C749 C 0.44037 0.46446 0.16853 0.0
C750 C 0.45349 0.47935 0.13746 0.0
C751 C 0.43995 0.42347 0.22647 0.0
C752 C 0.4103 0.41451 0.21572 0.0
C753 C 0.45455 0.41612 0.26689 0.0
C754 C 0.48461 0.42721 0.28161 0.0
C755 C 0.49024 0.4579 0.27696 0.0
C756 C 0.51811 0.46833 0.29308 0.0
C757 C 0.54052 0.44826 0.31385 0.0
C758 C 0.53518 0.41773 0.31834 0.0
C759 C 0.50731 0.4072 0.30246 0.0
H760 H 0.56201 0.45633 0.32658 0.0
H761 H 0.28106 0.36907 0.19718 0.0
H762 H 0.17642 0.81602 0.91705 0.0
H763 H 0.1546 0.8397 0.84911 0.0
H764 H 0.17007 0.92605 0.88491 0.0
H765 H 0.19272 0.9027 0.95236 0.0
H766 H 0.11015 0.91517 0.85285 0.0
H767 H 0.20797 0.90674 0.82171 0.0
H768 H 0.25351 0.8803 0.81695 0.0
H769 H 0.20178 0.82647 0.73827 0.0
H770 H 0.15584 0.85229 0.74305 0.0
H771 H 0.08344 0.00929 0.65488 0.0
H772 H 0.11122 0.98331 0.71861 0.0
H773 H 0.06291 0.90313 0.69935 0.0
H774 H 0.03348 0.92956 0.63733 0.0
H775 H 0.13877 0.90941 0.72182 0.0
H776 H 0.04143 0.91193 0.75791 0.0
H777 H 0.99446 0.93366 0.76635 0.0
H778 H 0.04341 0.99299 0.83922 0.0
H779 H 0.09079 0.97257 0.82951 0.0
C780 C 0.17606 0.84005 0.91015 0.0
C781 C 0.18596 0.85745 0.94035 0.0
C782 C 0.16345 0.85355 0.87133 0.0
C783 C 0.1605 0.88462 0.8621 0.0
C784 C 0.17192 0.90203 0.89151 0.0
C785 C 0.18475 0.88862 0.93009 0.0
C786 C 0.14287 0.89895 0.82335 0.0
C787 C 0.11663 0.9142 0.82423 0.0
C788 C 0.1508 0.89677 0.78598 0.0
C789 C 0.17841 0.88121 0.78316 0.0
C790 C 0.20625 0.88905 0.80375 0.0
C791 C 0.23215 0.87422 0.80096 0.0
C792 C 0.23053 0.85165 0.77744 0.0
C793 C 0.203 0.84392 0.75655 0.0
C794 C 0.17703 0.85865 0.75927 0.0
C795 C 0.07845 0.98626 0.66459 0.0
C796 C 0.05643 0.97136 0.64104 0.0
C797 C 0.0944 0.97144 0.7008 0.0
C798 C 0.08895 0.9414 0.71365 0.0
C799 C 0.06723 0.9264 0.69005 0.0
C800 C 0.05065 0.94144 0.6545 0.0
C801 C 0.10627 0.9257 0.75159 0.0
C802 C 0.1324 0.91031 0.7505 0.0
C803 C 0.09802 0.92723 0.78886 0.0
C804 C 0.06968 0.94127 0.79201 0.0
C805 C 0.04224 0.93029 0.77458 0.0
C806 C 0.01551 0.94222 0.77984 0.0
C807 C 0.01595 0.96473 0.80321 0.0
C808 C 0.04311 0.9756 0.82101 0.0
C809 C 0.06991 0.96402 0.81536 0.0
H810 H 0.99522 0.97366 0.80761 0.0
H811 H 0.25061 0.84021 0.7753 0.0
loop_
_geom_bond_atom_site_label_1
_geom_bond_atom_site_label_2
_geom_bond_distance
_geom_bond_site_symmetry_2
_ccdc_geom_bond_type
H0 C3 0.929 . S
H1 C6 0.929 . S
H2 C8 0.930 . S
C3 H0 0.929 . S
C3 C4 1.398 1_554 S
C3 C5 1.396 . S
C4 C3 1.398 1_556 S
C4 C8 1.407 . S
C5 C3 1.396 . S
C5 C6 1.394 . S
C6 H1 0.929 . S
C6 C5 1.394 . S
C6 C7 1.382 . S
C7 C6 1.382 . S
C7 C8 1.392 1_554 S
C7 N9 1.420 . S
C8 H2 0.930 . S
C8 C4 1.407 . S
C8 C7 1.392 1_556 S
N9 C7 1.420 . S
N9 C10 1.244 . S
C10 N9 1.244 . S
H11 C14 0.929 . S
H12 C17 0.929 . S
H13 C19 0.930 . S
C14 H11 0.929 . S
C14 C15 1.398 . S
C14 C16 1.396 . S
C15 C14 1.398 . S
C15 C19 1.407 . S
C16 C14 1.396 . S
C16 C17 1.394 . S
C17 H12 0.929 . S
C17 C16 1.394 . S
C17 C18 1.382 . S
C18 C17 1.382 . S
C18 C19 1.392 . S
C18 N20 1.420 . S
C19 H13 0.930 . S
C19 C15 1.407 . S
C19 C18 1.392 . S
N20 C18 1.420 . S
N20 C21 1.244 . S
C21 N20 1.244 . S
H22 C25 0.929 . S
H23 C28 0.929 . S
H24 C30 0.930 . S
C25 H22 0.929 . S
C25 C26 1.398 1_554 S
C25 C27 1.396 . S
C26 C25 1.398 1_556 S
C26 C30 1.407 . S
C27 C25 1.396 . S
C27 C28 1.394 . S
C28 H23 0.929 . S
C28 C27 1.394 . S
C28 C29 1.382 . S
C29 C28 1.382 . S
C29 C30 1.392 1_554 S
C29 N31 1.420 . S
C30 H24 0.930 . S
C30 C26 1.407 . S
C30 C29 1.392 1_556 S
N31 C29 1.420 . S
N31 C32 1.244 . S
C32 N31 1.244 . S
H33 C36 0.929 . S
H34 C39 0.929 . S
H35 C41 0.930 . S
C36 H33 0.929 . S
C36 C37 1.398 . S
C36 C38 1.396 . S
C37 C36 1.398 . S
C37 C41 1.407 . S
C38 C36 1.396 . S
C38 C39 1.394 . S
C39 H34 0.929 . S
C39 C38 1.394 . S
C39 C40 1.382 . S
C40 C39 1.382 . S
C40 C41 1.392 . S
C40 N42 1.420 . S
C41 H35 0.930 . S
C41 C37 1.407 . S
C41 C40 1.392 . S
N42 C40 1.420 . S
N42 C43 1.244 . S
C43 N42 1.244 . S
C44 C46 1.422 . S
C44 C48 1.415 . S
C44 N50 1.369 . S
C45 C46 1.421 . S
C45 C47 1.417 . S
C45 C57 1.422 . S
C46 C44 1.422 . S
C46 C45 1.421 . S
C46 N56 1.359 . S
C47 C45 1.417 . S
C47 C49 1.329 . S
C47 H66 0.930 . S
C48 C44 1.415 . S
C48 C49 1.437 . S
C48 C52 1.413 . S
C49 C47 1.329 . S
C49 C48 1.437 . S
C49 H71 0.929 . S
N50 C44 1.369 . S
N50 C51 1.338 1_655 S
N50 Gd55 2.622 . S
C51 N50 1.338 1_455 S
C51 C53 1.378 . S
C51 H63 0.929 . S
C52 C48 1.413 . S
C52 C53 1.348 1_655 S
C52 H68 0.931 . S
C53 C51 1.378 . S
C53 C52 1.348 1_455 S
C53 H69 0.930 . S
Gd54 N74 2.622 . S
Gd54 N81 2.570 . S
Gd54 O88 2.353 1_465 S
Gd54 O89 2.468 . S
Gd54 O90 2.427 . S
Gd54 O92 2.388 1_455 S
Gd54 O93 2.386 . S
Gd54 O97 2.307 1_565 S
Gd54 C107 2.805 . S
Gd55 N50 2.622 . S
Gd55 N56 2.570 . S
Gd55 O87 2.386 . S
Gd55 O91 2.307 1_545 S
Gd55 O94 2.353 1_655 S
Gd55 O95 2.468 . S
Gd55 O96 2.427 . S
Gd55 O98 2.388 1_655 S
Gd55 C119 2.805 . S
N56 C46 1.359 . S
N56 Gd55 2.570 . S
N56 C58 1.343 . S
C57 C45 1.422 . S
C57 C59 1.321 . S
C57 H65 0.931 . S
C58 N56 1.343 . S
C58 C59 1.390 . S
C58 H60 0.931 . S
C59 C57 1.321 . S
C59 C58 1.390 . S
C59 H61 0.930 . S
H60 C58 0.931 . S
H61 C59 0.930 . S
H62 C85 0.931 . S
H63 C51 0.929 . S
H64 C86 0.930 . S
H65 C57 0.931 . S
H66 C47 0.930 . S
H67 C76 0.929 1_655 S
H68 C52 0.931 . S
H69 C53 0.930 . S
H70 C108 0.930 . S
H71 C49 0.929 . S
H72 C77 0.931 . S
H73 C78 0.930 1_655 S
N74 Gd54 2.622 . S
N74 C75 1.369 . S
N74 C76 1.338 . S
C75 N74 1.369 . S
C75 C79 1.415 . S
C75 C82 1.422 . S
C76 H67 0.929 1_455 S
C76 N74 1.338 . S
C76 C78 1.378 . S
C77 H72 0.931 . S
C77 C78 1.348 . S
C77 C79 1.413 . S
C78 H73 0.930 1_455 S
C78 C76 1.378 . S
C78 C77 1.348 . S
C79 C75 1.415 . S
C79 C77 1.413 . S
C79 C109 1.437 . S
H80 C109 0.929 . S
N81 Gd54 2.570 . S
N81 C82 1.359 . S
N81 C85 1.343 . S
C82 C75 1.422 . S
C82 N81 1.359 . S
C82 C84 1.421 . S
C83 C84 1.422 . S
C83 C86 1.321 . S
C83 H110 0.931 . S
C84 C82 1.421 . S
C84 C83 1.422 . S
C84 C108 1.417 . S
C85 H62 0.931 . S
C85 N81 1.343 . S
C85 C86 1.390 . S
C86 H64 0.930 . S
C86 C83 1.321 . S
C86 C85 1.390 . S
O87 Gd55 2.386 . S
O87 C99 1.265 . S
O88 Gd54 2.353 1_645 S
O88 C99 1.242 . S
O89 Gd54 2.468 . S
O89 C107 1.263 . S
O90 Gd54 2.427 . S
O90 C107 1.252 . S
O91 Gd55 2.307 1_565 S
O91 C100 1.261 . S
O92 Gd54 2.388 1_655 S
O92 C100 1.252 . S
O93 Gd54 2.386 . S
O93 C111 1.265 . S
O94 Gd55 2.353 1_455 S
O94 C111 1.242 1_545 S
O95 Gd55 2.468 . S
O95 C119 1.263 . S
O96 Gd55 2.427 . S
O96 C119 1.252 . S
O97 Gd54 2.307 1_545 S
O97 C112 1.261 . S
O98 Gd55 2.388 1_455 S
O98 C112 1.252 . S
C99 O87 1.265 . S
C99 O88 1.242 . S
C100 O91 1.261 . S
C100 O92 1.252 . S
C101 C104 1.394 . S
C101 C106 1.370 . S
C101 C107 1.500 . S
C102 C105 1.383 . S
C102 C106 1.395 . S
C103 C104 1.396 . S
C103 C105 1.365 . S
C103 H120 0.929 . S
C104 C101 1.394 . S
C104 C103 1.396 . S
C104 H121 0.930 . S
C105 C102 1.383 . S
C105 C103 1.365 . S
C105 H122 0.931 . S
C106 C101 1.370 . S
C106 C102 1.395 . S
C106 H123 0.930 . S
C107 Gd54 2.805 . S
C107 O89 1.263 . S
C107 O90 1.252 . S
C107 C101 1.500 . S
C108 H70 0.930 . S
C108 C84 1.417 . S
C108 C109 1.329 . S
C109 C79 1.437 . S
C109 H80 0.929 . S
C109 C108 1.329 . S
H110 C83 0.931 . S
C111 O93 1.265 . S
C111 O94 1.242 1_565 S
C112 O97 1.261 . S
C112 O98 1.252 . S
C113 C116 1.394 . S
C113 C118 1.370 . S
C113 C119 1.500 . S
C114 C117 1.383 . S
C114 C118 1.395 . S
C115 C116 1.396 . S
C115 C117 1.365 . S
C115 H124 0.929 . S
C116 C113 1.394 . S
C116 C115 1.396 . S
C116 H125 0.930 . S
C117 C114 1.383 . S
C117 C115 1.365 . S
C117 H126 0.931 . S
C118 C113 1.370 . S
C118 C114 1.395 . S
C118 H127 0.930 . S
C119 Gd55 2.805 . S
C119 O95 1.263 . S
C119 O96 1.252 . S
C119 C113 1.500 . S
H120 C103 0.929 . S
H121 C104 0.930 . S
H122 C105 0.931 . S
H123 C106 0.930 . S
H124 C115 0.929 . S
H125 C116 0.930 . S
H126 C117 0.931 . S
H127 C118 0.930 . S
C128 C130 1.422 . S
C128 C132 1.415 . S
C128 N134 1.369 . S
C129 C130 1.421 . S
C129 C131 1.417 . S
C129 C141 1.422 . S
C130 C128 1.422 . S
C130 C129 1.421 . S
C130 N140 1.359 . S
C131 C129 1.417 . S
C131 C133 1.329 . S
C131 H150 0.930 . S
C132 C128 1.415 . S
C132 C133 1.437 . S
C132 C136 1.413 . S
C133 C131 1.329 . S
C133 C132 1.437 . S
C133 H155 0.929 . S
N134 C128 1.369 . S
N134 C135 1.338 . S
N134 Gd139 2.622 . S
C135 N134 1.338 . S
C135 C137 1.378 . S
C135 H147 0.929 . S
C136 C132 1.413 . S
C136 C137 1.348 . S
C136 H152 0.931 . S
C137 C135 1.378 . S
C137 C136 1.348 . S
C137 H153 0.930 . S
Gd138 N158 2.621 . S
Gd138 N165 2.570 1_556 S
Gd138 O172 2.353 . S
Gd138 O173 2.468 . S
Gd138 O174 2.427 . S
Gd138 O176 2.388 1_556 S
Gd138 O177 2.386 1_556 S
Gd138 O181 2.307 1_556 S
Gd138 C191 2.805 . S
Gd139 N134 2.622 . S
Gd139 N140 2.570 . S
Gd139 O171 2.386 . S
Gd139 O175 2.307 . S
Gd139 O178 2.353 . S
Gd139 O179 2.468 . S
Gd139 O180 2.427 . S
Gd139 O182 2.388 . S
Gd139 C203 2.805 . S
N140 C130 1.359 . S
N140 Gd139 2.570 . S
N140 C142 1.343 . S
C141 C129 1.422 . S
C141 C143 1.321 . S
C141 H149 0.931 . S
C142 N140 1.343 . S
C142 C143 1.390 . S
C142 H144 0.931 . S
C143 C141 1.321 . S
C143 C142 1.390 . S
C143 H145 0.930 . S
H144 C142 0.931 . S
H145 C143 0.930 . S
H146 C169 0.931 . S
H147 C135 0.929 . S
H148 C170 0.930 . S
H149 C141 0.931 . S
H150 C131 0.930 . S
H151 C160 0.929 . S
H152 C136 0.931 . S
H153 C137 0.930 . S
H154 C192 0.930 . S
H155 C133 0.929 . S
H156 C161 0.931 . S
H157 C162 0.930 . S
N158 Gd138 2.621 . S
N158 C159 1.369 1_556 S
N158 C160 1.338 . S
C159 N158 1.369 1_554 S
C159 C163 1.415 . S
C159 C166 1.422 . S
C160 H151 0.929 . S
C160 N158 1.338 . S
C160 C162 1.385 . S
C161 H156 0.931 . S
C161 C162 1.341 1_554 S
C161 C163 1.413 . S
C162 H157 0.930 . S
C162 C160 1.385 . S
C162 C161 1.341 1_556 S
C163 C159 1.415 . S
C163 C161 1.413 . S
C163 C193 1.437 . S
H164 C193 0.929 . S
N165 Gd138 2.570 1_554 S
N165 C166 1.359 . S
N165 C169 1.343 . S
C166 C159 1.422 . S
C166 N165 1.359 . S
C166 C168 1.421 . S
C167 C168 1.422 . S
C167 C170 1.321 . S
C167 H194 0.931 . S
C168 C166 1.421 . S
C168 C167 1.422 . S
C168 C192 1.417 . S
C169 H146 0.931 . S
C169 N165 1.343 . S
C169 C170 1.390 . S
C170 H148 0.930 . S
C170 C167 1.321 . S
C170 C169 1.390 . S
O171 Gd139 2.386 . S
O171 C183 1.265 1_554 S
O172 Gd138 2.353 . S
O172 C183 1.242 . S
O173 Gd138 2.468 . S
O173 C191 1.263 . S
O174 Gd138 2.427 . S
O174 C191 1.252 . S
O175 Gd139 2.307 . S
O175 C184 1.261 . S
O176 Gd138 2.388 1_554 S
O176 C184 1.252 . S
O177 Gd138 2.386 1_554 S
O177 C195 1.265 . S
O178 Gd139 2.353 . S
O178 C195 1.242 . S
O179 Gd139 2.468 . S
O179 C203 1.263 . S
O180 Gd139 2.427 . S
O180 C203 1.252 . S
O181 Gd138 2.307 1_554 S
O181 C196 1.261 . S
O182 Gd139 2.388 . S
O182 C196 1.252 . S
C183 O171 1.265 1_556 S
C183 O172 1.242 . S
C184 O175 1.261 . S
C184 O176 1.252 . S
C185 C188 1.394 . S
C185 C190 1.370 . S
C185 C191 1.500 . S
C186 C189 1.383 . S
C186 C190 1.395 . S
C187 C188 1.396 . S
C187 C189 1.365 . S
C187 H204 0.929 . S
C188 C185 1.394 . S
C188 C187 1.396 . S
C188 H205 0.930 . S
C189 C186 1.383 . S
C189 C187 1.365 . S
C189 H206 0.931 . S
C190 C185 1.370 . S
C190 C186 1.395 . S
C190 H207 0.930 . S
C191 Gd138 2.805 . S
C191 O173 1.263 . S
C191 O174 1.252 . S
C191 C185 1.500 . S
C192 H154 0.930 . S
C192 C168 1.417 . S
C192 C193 1.329 . S
C193 C163 1.437 . S
C193 H164 0.929 . S
C193 C192 1.329 . S
H194 C167 0.931 . S
C195 O177 1.265 . S
C195 O178 1.242 . S
C196 O181 1.261 . S
C196 O182 1.252 . S
C197 C200 1.394 . S
C197 C202 1.370 . S
C197 C203 1.500 . S
C198 C201 1.383 . S
C198 C202 1.395 . S
C199 C200 1.396 . S
C199 C201 1.365 . S
C199 H208 0.929 . S
C200 C197 1.394 . S
C200 C199 1.396 . S
C200 H209 0.930 . S
C201 C198 1.383 . S
C201 C199 1.365 . S
C201 H210 0.931 . S
C202 C197 1.370 . S
C202 C198 1.395 . S
C202 H211 0.930 . S
C203 Gd139 2.805 . S
C203 O179 1.263 . S
C203 O180 1.252 . S
C203 C197 1.500 . S
H204 C187 0.929 . S
H205 C188 0.930 . S
H206 C189 0.931 . S
H207 C190 0.930 . S
H208 C199 0.929 . S
H209 C200 0.930 . S
H210 C201 0.931 . S
H211 C202 0.930 . S
H212 C230 0.951 . S
H213 C232 0.951 . S
H214 C234 0.950 . S
H215 C235 0.950 . S
H216 C237 0.950 . S
H217 C240 0.950 . S
H218 C241 0.950 . S
H219 C243 0.950 . S
H220 C244 0.950 . S
H221 C245 0.951 . S
H222 C247 0.951 . S
H223 C249 0.950 . S
H224 C250 0.950 . S
H225 C252 0.950 . S
H226 C255 0.950 . S
H227 C256 0.950 . S
H228 C258 0.950 . S
H229 C259 0.950 . S
C230 H212 0.951 . S
C230 C231 1.366 . S
C230 C232 1.388 . S
C231 C230 1.366 . S
C231 C235 1.385 . S
C232 H213 0.951 . S
C232 C230 1.388 . S
C232 C233 1.366 . S
C233 C232 1.366 . S
C233 C234 1.414 . S
C233 C236 1.499 . S
C234 H214 0.950 . S
C234 C233 1.414 . S
C234 C235 1.374 . S
C235 H215 0.950 . S
C235 C231 1.385 . S
C235 C234 1.374 . S
C236 C233 1.499 . S
C236 C237 1.373 . S
C236 C238 1.389 . S
C237 H216 0.950 . S
C237 C236 1.373 . S
C237 C253 1.377 . S
C238 C236 1.389 . S
C238 C239 1.524 . S
C238 C252 1.377 . S
C239 C238 1.524 . S
C239 C240 1.397 . S
C239 C244 1.363 . S
C240 H217 0.950 . S
C240 C239 1.397 . S
C240 C241 1.334 . S
C241 H218 0.950 . S
C241 C240 1.334 . S
C241 C242 1.287 . S
C242 C241 1.287 . S
C242 C243 1.524 . S
C242 H261 0.913 . S
C243 H219 0.950 . S
C243 C242 1.524 . S
C243 C244 1.415 . S
C244 H220 0.950 . S
C244 C239 1.363 . S
C244 C243 1.415 . S
C245 H221 0.951 . S
C245 C246 1.366 . S
C245 C247 1.388 . S
C246 C245 1.366 . S
C246 C250 1.385 . S
C247 H222 0.951 . S
C247 C245 1.388 . S
C247 C248 1.366 . S
C248 C247 1.366 . S
C248 C249 1.414 . S
C248 C251 1.499 . S
C249 H223 0.950 . S
C249 C248 1.414 . S
C249 C250 1.374 . S
C250 H224 0.950 . S
C250 C246 1.385 . S
C250 C249 1.374 . S
C251 C248 1.499 . S
C251 C252 1.373 . S
C251 C253 1.389 . S
C252 H225 0.950 . S
C252 C238 1.377 . S
C252 C251 1.373 . S
C253 C237 1.377 . S
C253 C251 1.389 . S
C253 C254 1.524 . S
C254 C253 1.524 . S
C254 C255 1.397 . S
C254 C259 1.363 . S
C255 H226 0.950 . S
C255 C254 1.397 . S
C255 C256 1.334 . S
C256 H227 0.950 . S
C256 C255 1.334 . S
C256 C257 1.287 . S
C257 C256 1.287 . S
C257 C258 1.524 . S
C257 H260 0.999 . S
C258 H228 0.950 . S
C258 C257 1.524 . S
C258 C259 1.415 . S
C259 H229 0.950 . S
C259 C254 1.363 . S
C259 C258 1.415 . S
H260 C257 0.999 . S
H261 C242 0.913 . S
H262 C280 0.951 1_556 S
H263 C282 0.951 1_556 S
H264 C284 0.950 . S
H265 C285 0.950 . S
H266 C287 0.950 . S
H267 C290 0.950 1_554 S
H268 C291 0.950 . S
H269 C293 0.950 . S
H270 C294 0.950 . S
H271 C295 0.951 . S
H272 C297 0.951 . S
H273 C299 0.950 1_556 S
H274 C300 0.950 1_556 S
H275 C302 0.950 1_556 S
H276 C305 0.950 . S
H277 C306 0.950 . S
H278 C308 0.950 . S
H279 C309 0.950 . S
C280 H262 0.951 1_554 S
C280 C281 1.366 . S
C280 C282 1.388 . S
C281 C280 1.366 . S
C281 C285 1.385 . S
C282 H263 0.951 1_554 S
C282 C280 1.388 . S
C282 C283 1.366 . S
C283 C282 1.366 . S
C283 C284 1.414 . S
C283 C286 1.499 . S
C284 H264 0.950 . S
C284 C283 1.414 . S
C284 C285 1.374 . S
C285 H265 0.950 . S
C285 C281 1.385 . S
C285 C284 1.374 . S
C286 C283 1.499 . S
C286 C287 1.373 . S
C286 C288 1.389 . S
C287 H266 0.950 . S
C287 C286 1.373 . S
C287 C303 1.377 . S
C288 C286 1.389 . S
C288 C289 1.524 1_554 S
C288 C302 1.377 . S
C289 C288 1.524 1_556 S
C289 C290 1.397 . S
C289 C294 1.363 . S
C290 H267 0.950 1_556 S
C290 C289 1.397 . S
C290 C291 1.334 . S
C291 H268 0.950 . S
C291 C290 1.334 . S
C291 C292 1.287 . S
C292 C291 1.287 . S
C292 C293 1.524 . S
C292 H311 0.913 . S
C293 H269 0.950 . S
C293 C292 1.524 . S
C293 C294 1.415 . S
C294 H270 0.950 . S
C294 C289 1.363 . S
C294 C293 1.415 . S
C295 H271 0.951 . S
C295 C296 1.366 . S
C295 C297 1.388 . S
C296 C295 1.366 . S
C296 C300 1.385 . S
C297 H272 0.951 . S
C297 C295 1.388 . S
C297 C298 1.366 . S
C298 C297 1.366 . S
C298 C299 1.414 . S
C298 C301 1.499 . S
C299 H273 0.950 1_554 S
C299 C298 1.414 . S
C299 C300 1.374 . S
C300 H274 0.950 1_554 S
C300 C296 1.385 . S
C300 C299 1.374 . S
C301 C298 1.499 . S
C301 C302 1.373 . S
C301 C303 1.389 . S
C302 H275 0.950 1_554 S
C302 C288 1.377 . S
C302 C301 1.373 . S
C303 C287 1.377 . S
C303 C301 1.389 . S
C303 C304 1.524 . S
C304 C303 1.524 . S
C304 C305 1.397 . S
C304 C309 1.363 . S
C305 H276 0.950 . S
C305 C304 1.397 . S
C305 C306 1.334 . S
C306 H277 0.950 . S
C306 C305 1.334 . S
C306 C307 1.287 . S
C307 C306 1.287 . S
C307 C308 1.524 . S
C307 H310 0.999 . S
C308 H278 0.950 . S
C308 C307 1.524 . S
C308 C309 1.415 . S
C309 H279 0.950 . S
C309 C304 1.363 . S
C309 C308 1.415 . S
H310 C307 0.999 . S
H311 C292 0.913 . S
H312 C330 0.951 . S
H313 C332 0.951 . S
H314 C334 0.950 . S
H315 C335 0.950 . S
H316 C337 0.950 . S
H317 C340 0.950 . S
H318 C341 0.950 . S
H319 C343 0.950 . S
H320 C344 0.950 . S
H321 C345 0.951 . S
H322 C347 0.951 . S
H323 C349 0.950 . S
H324 C350 0.950 . S
H325 C352 0.950 . S
H326 C355 0.950 . S
H327 C356 0.950 . S
H328 C358 0.950 . S
H329 C359 0.950 . S
C330 H312 0.951 . S
C330 C331 1.366 . S
C330 C332 1.388 . S
C331 C330 1.366 . S
C331 C335 1.385 . S
C332 H313 0.951 . S
C332 C330 1.388 . S
C332 C333 1.366 . S
C333 C332 1.366 . S
C333 C334 1.414 . S
C333 C336 1.499 . S
C334 H314 0.950 . S
C334 C333 1.414 . S
C334 C335 1.374 . S
C335 H315 0.950 . S
C335 C331 1.385 . S
C335 C334 1.374 . S
C336 C333 1.499 . S
C336 C337 1.373 . S
C336 C338 1.389 . S
C337 H316 0.950 . S
C337 C336 1.373 . S
C337 C353 1.377 . S
C338 C336 1.389 . S
C338 C339 1.524 . S
C338 C352 1.377 . S
C339 C338 1.524 . S
C339 C340 1.397 . S
C339 C344 1.363 . S
C340 H317 0.950 . S
C340 C339 1.397 . S
C340 C341 1.334 . S
C341 H318 0.950 . S
C341 C340 1.334 . S
C341 C342 1.287 . S
C342 C341 1.287 . S
C342 C343 1.524 . S
C342 H361 0.913 . S
C343 H319 0.950 . S
C343 C342 1.524 . S
C343 C344 1.415 . S
C344 H320 0.950 . S
C344 C339 1.363 . S
C344 C343 1.415 . S
C345 H321 0.951 . S
C345 C346 1.366 . S
C345 C347 1.388 . S
C346 C345 1.366 . S
C346 C350 1.385 . S
C347 H322 0.951 . S
C347 C345 1.388 . S
C347 C348 1.366 . S
C348 C347 1.366 . S
C348 C349 1.414 . S
C348 C351 1.499 . S
C349 H323 0.950 . S
C349 C348 1.414 . S
C349 C350 1.374 . S
C350 H324 0.950 . S
C350 C346 1.385 . S
C350 C349 1.374 . S
C351 C348 1.499 . S
C351 C352 1.373 . S
C351 C353 1.389 . S
C352 H325 0.950 . S
C352 C338 1.377 . S
C352 C351 1.373 . S
C353 C337 1.377 . S
C353 C351 1.389 . S
C353 C354 1.524 . S
C354 C353 1.524 . S
C354 C355 1.397 . S
C354 C359 1.363 . S
C355 H326 0.950 . S
C355 C354 1.397 . S
C355 C356 1.334 . S
C356 H327 0.950 . S
C356 C355 1.334 . S
C356 C357 1.287 . S
C357 C356 1.287 . S
C357 C358 1.524 . S
C357 H360 0.999 . S
C358 H328 0.950 . S
C358 C357 1.524 . S
C358 C359 1.415 . S
C359 H329 0.950 . S
C359 C354 1.363 . S
C359 C358 1.415 . S
H360 C357 0.999 . S
H361 C342 0.913 . S
H362 C380 0.951 . S
H363 C382 0.951 . S
H364 C384 0.950 . S
H365 C385 0.950 . S
H366 C387 0.950 . S
H367 C390 0.950 . S
H368 C391 0.950 . S
H369 C393 0.950 . S
H370 C394 0.950 . S
H371 C395 0.951 . S
H372 C397 0.951 . S
H373 C399 0.950 . S
H374 C400 0.950 . S
H375 C402 0.950 1_556 S
H376 C405 0.950 . S
H377 C406 0.950 . S
H378 C408 0.950 . S
H379 C409 0.950 . S
C380 H362 0.951 . S
C380 C381 1.366 . S
C380 C382 1.388 . S
C381 C380 1.366 . S
C381 C385 1.385 . S
C382 H363 0.951 . S
C382 C380 1.388 . S
C382 C383 1.366 . S
C383 C382 1.366 . S
C383 C384 1.414 . S
C383 C386 1.499 . S
C384 H364 0.950 . S
C384 C383 1.414 . S
C384 C385 1.374 . S
C385 H365 0.950 . S
C385 C381 1.385 . S
C385 C384 1.374 . S
C386 C383 1.499 . S
C386 C387 1.373 . S
C386 C388 1.391 . S
C387 H366 0.950 . S
C387 C386 1.373 . S
C387 C403 1.377 . S
C388 C386 1.391 . S
C388 C389 1.522 1_554 S
C388 C402 1.378 . S
C389 C388 1.522 1_556 S
C389 C390 1.397 . S
C389 C394 1.363 . S
C390 H367 0.950 . S
C390 C389 1.397 . S
C390 C391 1.334 . S
C391 H368 0.950 . S
C391 C390 1.334 . S
C391 C392 1.287 . S
C392 C391 1.287 . S
C392 C393 1.524 . S
C392 H411 0.913 . S
C393 H369 0.950 . S
C393 C392 1.524 . S
C393 C394 1.415 . S
C394 H370 0.950 . S
C394 C389 1.363 . S
C394 C393 1.415 . S
C395 H371 0.951 . S
C395 C396 1.366 . S
C395 C397 1.388 . S
C396 C395 1.366 . S
C396 C400 1.385 . S
C397 H372 0.951 . S
C397 C395 1.388 . S
C397 C398 1.366 . S
C398 C397 1.366 . S
C398 C399 1.414 . S
C398 C401 1.499 . S
C399 H373 0.950 . S
C399 C398 1.414 . S
C399 C400 1.374 . S
C400 H374 0.950 . S
C400 C396 1.385 . S
C400 C399 1.374 . S
C401 C398 1.499 . S
C401 C402 1.373 . S
C401 C403 1.389 . S
C402 H375 0.950 1_554 S
C402 C388 1.378 . S
C402 C401 1.373 . S
C403 C387 1.377 . S
C403 C401 1.389 . S
C403 C404 1.524 . S
C404 C403 1.524 . S
C404 C405 1.397 . S
C404 C409 1.363 . S
C405 H376 0.950 . S
C405 C404 1.397 . S
C405 C406 1.334 . S
C406 H377 0.950 . S
C406 C405 1.334 . S
C406 C407 1.287 . S
C407 C406 1.287 . S
C407 C408 1.524 . S
C407 H410 0.999 . S
C408 H378 0.950 . S
C408 C407 1.524 . S
C408 C409 1.415 . S
C409 H379 0.950 . S
C409 C404 1.363 . S
C409 C408 1.415 . S
H410 C407 0.999 . S
H411 C392 0.913 . S
H412 C430 0.951 . S
H413 C432 0.951 . S
H414 C434 0.950 . S
H415 C435 0.950 . S
H416 C437 0.950 . S
H417 C440 0.950 . S
H418 C441 0.950 . S
H419 C443 0.950 . S
H420 C444 0.950 . S
H421 C445 0.951 . S
H422 C447 0.951 . S
H423 C449 0.950 . S
H424 C450 0.950 . S
H425 C452 0.950 . S
H426 C455 0.950 . S
H427 C456 0.950 . S
H428 C458 0.950 . S
H429 C459 0.950 . S
C430 H412 0.951 . S
C430 C431 1.366 . S
C430 C432 1.388 . S
C431 C430 1.366 . S
C431 C435 1.385 . S
C432 H413 0.951 . S
C432 C430 1.388 . S
C432 C433 1.366 . S
C433 C432 1.366 . S
C433 C434 1.414 . S
C433 C436 1.499 . S
C434 H414 0.950 . S
C434 C433 1.414 . S
C434 C435 1.374 . S
C435 H415 0.950 . S
C435 C431 1.385 . S
C435 C434 1.374 . S
C436 C433 1.499 . S
C436 C437 1.373 . S
C436 C438 1.389 . S
C437 H416 0.950 . S
C437 C436 1.373 . S
C437 C453 1.377 . S
C438 C436 1.389 . S
C438 C439 1.524 . S
C438 C452 1.377 . S
C439 C438 1.524 . S
C439 C440 1.397 . S
C439 C444 1.363 . S
C440 H417 0.950 . S
C440 C439 1.397 . S
C440 C441 1.334 . S
C441 H418 0.950 . S
C441 C440 1.334 . S
C441 C442 1.287 . S
C442 C441 1.287 . S
C442 C443 1.524 . S
C442 H461 0.913 . S
C443 H419 0.950 . S
C443 C442 1.524 . S
C443 C444 1.415 . S
C444 H420 0.950 . S
C444 C439 1.363 . S
C444 C443 1.415 . S
C445 H421 0.951 . S
C445 C446 1.366 . S
C445 C447 1.388 . S
C446 C445 1.366 . S
C446 C450 1.385 . S
C447 H422 0.951 . S
C447 C445 1.388 . S
C447 C448 1.366 . S
C448 C447 1.366 . S
C448 C449 1.414 . S
C448 C451 1.499 . S
C449 H423 0.950 . S
C449 C448 1.414 . S
C449 C450 1.374 . S
C450 H424 0.950 . S
C450 C446 1.385 . S
C450 C449 1.374 . S
C451 C448 1.499 . S
C451 C452 1.373 . S
C451 C453 1.389 . S
C452 H425 0.950 . S
C452 C438 1.377 . S
C452 C451 1.373 . S
C453 C437 1.377 . S
C453 C451 1.389 . S
C453 C454 1.524 . S
C454 C453 1.524 . S
C454 C455 1.397 . S
C454 C459 1.363 . S
C455 H426 0.950 . S
C455 C454 1.397 . S
C455 C456 1.334 1_565 S
C456 H427 0.950 . S
C456 C455 1.334 1_545 S
C456 C457 1.287 . S
C457 C456 1.287 . S
C457 C458 1.524 . S
C457 H460 0.999 . S
C458 H428 0.950 . S
C458 C457 1.524 . S
C458 C459 1.415 1_545 S
C459 H429 0.950 . S
C459 C454 1.363 . S
C459 C458 1.415 1_565 S
H460 C457 0.999 . S
H461 C442 0.913 . S
H462 C480 0.951 . S
H463 C482 0.951 . S
H464 C484 0.950 . S
H465 C485 0.950 . S
H466 C487 0.950 . S
H467 C490 0.950 . S
H468 C491 0.950 . S
H469 C493 0.950 . S
H470 C494 0.950 . S
H471 C495 0.951 . S
H472 C497 0.951 . S
H473 C499 0.950 . S
H474 C500 0.950 . S
H475 C502 0.950 . S
H476 C505 0.950 . S
H477 C506 0.950 . S
H478 C508 0.950 . S
H479 C509 0.950 . S
C480 H462 0.951 . S
C480 C481 1.366 . S
C480 C482 1.388 . S
C481 C480 1.366 . S
C481 C485 1.385 . S
C482 H463 0.951 . S
C482 C480 1.388 . S
C482 C483 1.366 . S
C483 C482 1.366 . S
C483 C484 1.414 . S
C483 C486 1.499 . S
C484 H464 0.950 . S
C484 C483 1.414 . S
C484 C485 1.374 . S
C485 H465 0.950 . S
C485 C481 1.385 . S
C485 C484 1.374 . S
C486 C483 1.499 . S
C486 C487 1.373 . S
C486 C488 1.389 . S
C487 H466 0.950 . S
C487 C486 1.373 . S
C487 C503 1.377 . S
C488 C486 1.389 . S
C488 C489 1.524 . S
C488 C502 1.377 . S
C489 C488 1.524 . S
C489 C490 1.397 . S
C489 C494 1.363 . S
C490 H467 0.950 . S
C490 C489 1.397 . S
C490 C491 1.334 . S
C491 H468 0.950 . S
C491 C490 1.334 . S
C491 C492 1.287 . S
C492 C491 1.287 . S
C492 C493 1.524 . S
C492 H511 0.913 . S
C493 H469 0.950 . S
C493 C492 1.524 . S
C493 C494 1.415 . S
C494 H470 0.950 . S
C494 C489 1.363 . S
C494 C493 1.415 . S
C495 H471 0.951 . S
C495 C496 1.366 . S
C495 C497 1.388 . S
C496 C495 1.366 . S
C496 C500 1.385 . S
C497 H472 0.951 . S
C497 C495 1.388 . S
C497 C498 1.366 . S
C498 C497 1.366 . S
C498 C499 1.414 . S
C498 C501 1.499 . S
C499 H473 0.950 . S
C499 C498 1.414 . S
C499 C500 1.374 . S
C500 H474 0.950 . S
C500 C496 1.385 . S
C500 C499 1.374 . S
C501 C498 1.499 . S
C501 C502 1.373 . S
C501 C503 1.389 . S
C502 H475 0.950 . S
C502 C488 1.377 . S
C502 C501 1.373 . S
C503 C487 1.377 . S
C503 C501 1.389 . S
C503 C504 1.524 . S
C504 C503 1.524 . S
C504 C505 1.397 . S
C504 C509 1.363 . S
C505 H476 0.950 . S
C505 C504 1.397 . S
C505 C506 1.334 . S
C506 H477 0.950 . S
C506 C505 1.334 . S
C506 C507 1.287 . S
C507 C506 1.287 . S
C507 C508 1.524 . S
C507 H510 0.999 . S
C508 H478 0.950 . S
C508 C507 1.524 . S
C508 C509 1.415 . S
C509 H479 0.950 . S
C509 C504 1.363 . S
C509 C508 1.415 . S
H510 C507 0.999 . S
H511 C492 0.913 . S
H512 C530 0.951 . S
H513 C532 0.951 . S
H514 C534 0.950 . S
H515 C535 0.950 . S
H516 C537 0.950 . S
H517 C540 0.950 . S
H518 C541 0.950 . S
H519 C543 0.950 . S
H520 C544 0.950 . S
H521 C545 0.955 . S
H522 C547 0.951 . S
H523 C549 0.950 . S
H524 C550 0.950 . S
H525 C552 0.950 . S
H526 C555 0.950 . S
H527 C556 0.950 . S
H528 C558 0.950 . S
H529 C559 0.950 . S
C530 H512 0.951 . S
C530 C531 1.366 . S
C530 C532 1.388 . S
C531 C530 1.366 . S
C531 C535 1.385 . S
C532 H513 0.951 . S
C532 C530 1.388 . S
C532 C533 1.366 . S
C533 C532 1.366 . S
C533 C534 1.414 . S
C533 C536 1.499 . S
C534 H514 0.950 . S
C534 C533 1.414 . S
C534 C535 1.374 . S
C535 H515 0.950 . S
C535 C531 1.385 . S
C535 C534 1.374 . S
C536 C533 1.499 . S
C536 C537 1.373 . S
C536 C538 1.389 . S
C537 H516 0.950 . S
C537 C536 1.373 . S
C537 C553 1.377 . S
C538 C536 1.389 . S
C538 C539 1.524 . S
C538 C552 1.377 . S
C539 C538 1.524 . S
C539 C540 1.397 . S
C539 C544 1.363 . S
C540 H517 0.950 . S
C540 C539 1.397 . S
C540 C541 1.334 . S
C541 H518 0.950 . S
C541 C540 1.334 . S
C541 C542 1.287 . S
C542 C541 1.287 . S
C542 C543 1.524 . S
C542 H561 0.913 . S
C543 H519 0.950 . S
C543 C542 1.524 . S
C543 C544 1.415 . S
C544 H520 0.950 . S
C544 C539 1.363 . S
C544 C543 1.415 . S
C545 H521 0.955 . S
C545 C546 1.366 . S
C545 C547 1.388 . S
C546 C545 1.366 . S
C546 C550 1.385 . S
C547 H522 0.951 . S
C547 C545 1.388 . S
C547 C548 1.366 . S
C548 C547 1.366 . S
C548 C549 1.414 . S
C548 C551 1.499 . S
C549 H523 0.950 . S
C549 C548 1.414 . S
C549 C550 1.374 . S
C550 H524 0.950 . S
C550 C546 1.385 . S
C550 C549 1.374 . S
C551 C548 1.499 . S
C551 C552 1.373 . S
C551 C553 1.389 . S
C552 H525 0.950 . S
C552 C538 1.377 . S
C552 C551 1.373 . S
C553 C537 1.377 . S
C553 C551 1.389 . S
C553 C554 1.524 . S
C554 C553 1.524 . S
C554 C555 1.397 . S
C554 C559 1.363 . S
C555 H526 0.950 . S
C555 C554 1.397 . S
C555 C556 1.334 . S
C556 H527 0.950 . S
C556 C555 1.334 . S
C556 C557 1.287 1_545 S
C557 C556 1.287 1_565 S
C557 C558 1.524 . S
C557 H560 0.999 . S
C558 H528 0.950 . S
C558 C557 1.524 . S
C558 C559 1.415 1_565 S
C559 H529 0.950 . S
C559 C554 1.363 . S
C559 C558 1.415 1_545 S
H560 C557 0.999 . S
H561 C542 0.913 . S
H562 C580 0.951 . S
H563 C582 0.951 . S
H564 C584 0.950 . S
H565 C585 0.950 . S
H566 C587 0.950 . S
H567 C590 0.950 . S
H568 C591 0.950 . S
H569 C593 0.950 . S
H570 C594 0.950 . S
H571 C595 0.951 . S
H572 C597 0.951 . S
H573 C599 0.950 . S
H574 C600 0.950 . S
H575 C602 0.950 . S
H576 C605 0.950 . S
H577 C606 0.950 . S
H578 C608 0.950 . S
H579 C609 0.950 . S
C580 H562 0.951 . S
C580 C581 1.366 . S
C580 C582 1.388 . S
C581 C580 1.366 . S
C581 C585 1.385 . S
C582 H563 0.951 . S
C582 C580 1.388 . S
C582 C583 1.366 . S
C583 C582 1.366 . S
C583 C584 1.414 . S
C583 C586 1.499 . S
C584 H564 0.950 . S
C584 C583 1.414 . S
C584 C585 1.374 . S
C585 H565 0.950 . S
C585 C581 1.385 . S
C585 C584 1.374 . S
C586 C583 1.499 . S
C586 C587 1.373 . S
C586 C588 1.389 . S
C587 H566 0.950 . S
C587 C586 1.373 . S
C587 C603 1.377 . S
C588 C586 1.389 . S
C588 C589 1.524 . S
C588 C602 1.377 . S
C589 C588 1.524 . S
C589 C590 1.397 . S
C589 C594 1.363 . S
C590 H567 0.950 . S
C590 C589 1.397 . S
C590 C591 1.334 . S
C591 H568 0.950 . S
C591 C590 1.334 . S
C591 C592 1.287 . S
C592 C591 1.287 . S
C592 C593 1.524 . S
C592 H611 0.913 . S
C593 H569 0.950 . S
C593 C592 1.524 . S
C593 C594 1.415 . S
C594 H570 0.950 . S
C594 C589 1.363 . S
C594 C593 1.415 . S
C595 H571 0.951 . S
C595 C596 1.366 . S
C595 C597 1.388 . S
C596 C595 1.366 . S
C596 C600 1.385 . S
C597 H572 0.951 . S
C597 C595 1.388 . S
C597 C598 1.366 . S
C598 C597 1.366 . S
C598 C599 1.414 . S
C598 C601 1.499 . S
C599 H573 0.950 . S
C599 C598 1.414 . S
C599 C600 1.374 . S
C600 H574 0.950 . S
C600 C596 1.385 . S
C600 C599 1.374 . S
C601 C598 1.499 . S
C601 C602 1.373 . S
C601 C603 1.389 . S
C602 H575 0.950 . S
C602 C588 1.377 . S
C602 C601 1.373 . S
C603 C587 1.377 . S
C603 C601 1.389 . S
C603 C604 1.524 . S
C604 C603 1.524 . S
C604 C605 1.397 . S
C604 C609 1.363 . S
C605 H576 0.950 . S
C605 C604 1.397 . S
C605 C606 1.334 . S
C606 H577 0.950 . S
C606 C605 1.334 . S
C606 C607 1.287 . S
C607 C606 1.287 . S
C607 C608 1.524 . S
C607 H610 0.999 . S
C608 H578 0.950 . S
C608 C607 1.524 . S
C608 C609 1.415 . S
C609 H579 0.950 . S
C609 C604 1.363 . S
C609 C608 1.415 . S
H610 C607 0.999 . S
H611 C592 0.913 . S
H612 C630 0.951 . S
H613 C632 0.951 . S
H614 C634 0.950 . S
H615 C635 0.950 . S
H616 C637 0.950 . S
H617 C640 0.950 . S
H618 C641 0.950 . S
H619 C643 0.950 . S
H620 C644 0.950 . S
H621 C645 0.951 . S
H622 C647 0.951 . S
H623 C649 0.950 . S
H624 C650 0.950 . S
H625 C652 0.950 . S
H626 C655 0.950 . S
H627 C656 0.950 . S
H628 C658 0.950 . S
H629 C659 0.950 . S
C630 H612 0.951 . S
C630 C631 1.366 . S
C630 C632 1.388 . S
C631 C630 1.366 . S
C631 C635 1.385 . S
C632 H613 0.951 . S
C632 C630 1.388 . S
C632 C633 1.366 . S
C633 C632 1.366 . S
C633 C634 1.414 . S
C633 C636 1.499 . S
C634 H614 0.950 . S
C634 C633 1.414 . S
C634 C635 1.374 . S
C635 H615 0.950 . S
C635 C631 1.385 . S
C635 C634 1.374 . S
C636 C633 1.499 . S
C636 C637 1.373 . S
C636 C638 1.389 . S
C637 H616 0.950 . S
C637 C636 1.373 . S
C637 C653 1.377 . S
C638 C636 1.389 . S
C638 C639 1.524 . S
C638 C652 1.377 . S
C639 C638 1.524 . S
C639 C640 1.397 . S
C639 C644 1.363 . S
C640 H617 0.950 . S
C640 C639 1.397 . S
C640 C641 1.334 . S
C641 H618 0.950 . S
C641 C640 1.334 . S
C641 C642 1.287 . S
C642 C641 1.287 . S
C642 C643 1.524 . S
C642 H661 0.913 . S
C643 H619 0.950 . S
C643 C642 1.524 . S
C643 C644 1.415 . S
C644 H620 0.950 . S
C644 C639 1.363 . S
C644 C643 1.415 . S
C645 H621 0.951 . S
C645 C646 1.366 . S
C645 C647 1.388 . S
C646 C645 1.366 . S
C646 C650 1.385 . S
C647 H622 0.951 . S
C647 C645 1.388 . S
C647 C648 1.366 . S
C648 C647 1.366 . S
C648 C649 1.414 . S
C648 C651 1.499 . S
C649 H623 0.950 . S
C649 C648 1.414 . S
C649 C650 1.374 . S
C650 H624 0.950 . S
C650 C646 1.385 . S
C650 C649 1.374 . S
C651 C648 1.499 . S
C651 C652 1.373 . S
C651 C653 1.389 . S
C652 H625 0.950 . S
C652 C638 1.377 . S
C652 C651 1.373 . S
C653 C637 1.377 . S
C653 C651 1.389 . S
C653 C654 1.524 . S
C654 C653 1.524 . S
C654 C655 1.397 . S
C654 C659 1.363 . S
C655 H626 0.950 . S
C655 C654 1.397 . S
C655 C656 1.334 . S
C656 H627 0.950 . S
C656 C655 1.334 . S
C656 C657 1.287 . S
C657 C656 1.287 . S
C657 C658 1.524 . S
C657 H660 0.999 . S
C658 H628 0.950 . S
C658 C657 1.524 . S
C658 C659 1.415 . S
C659 H629 0.950 . S
C659 C654 1.363 . S
C659 C658 1.415 . S
H660 C657 0.999 . S
H661 C642 0.913 . S
H662 C680 0.933 1_554 S
H663 C682 0.951 . S
H664 C684 0.950 . S
H665 C685 0.950 . S
H666 C687 0.950 . S
H667 C690 0.950 . S
H668 C691 0.950 . S
H669 C693 0.950 . S
H670 C694 0.950 . S
H671 C695 0.951 . S
H672 C697 0.951 . S
H673 C699 0.950 . S
H674 C700 0.950 . S
H675 C702 0.950 . S
H676 C705 0.950 . S
H677 C706 0.950 . S
H678 C708 0.950 . S
H679 C709 0.950 . S
C680 H662 0.933 1_556 S
C680 C681 1.366 . S
C680 C682 1.388 . S
C681 C680 1.366 . S
C681 C685 1.385 . S
C682 H663 0.951 . S
C682 C680 1.388 . S
C682 C683 1.366 . S
C683 C682 1.366 . S
C683 C684 1.414 . S
C683 C686 1.499 . S
C684 H664 0.950 . S
C684 C683 1.414 . S
C684 C685 1.374 . S
C685 H665 0.950 . S
C685 C681 1.385 . S
C685 C684 1.374 . S
C686 C683 1.499 . S
C686 C687 1.373 . S
C686 C688 1.389 . S
C687 H666 0.950 . S
C687 C686 1.373 . S
C687 C703 1.377 . S
C688 C686 1.389 . S
C688 C689 1.524 . S
C688 C702 1.377 . S
C689 C688 1.524 . S
C689 C690 1.397 . S
C689 C694 1.363 . S
C690 H667 0.950 . S
C690 C689 1.397 . S
C690 C691 1.334 . S
C691 H668 0.950 . S
C691 C690 1.334 . S
C691 C692 1.287 . S
C692 C691 1.287 . S
C692 C693 1.524 . S
C692 H711 0.913 . S
C693 H669 0.950 . S
C693 C692 1.524 . S
C693 C694 1.415 . S
C694 H670 0.950 . S
C694 C689 1.363 . S
C694 C693 1.415 . S
C695 H671 0.951 . S
C695 C696 1.366 . S
C695 C697 1.388 . S
C696 C695 1.366 . S
C696 C700 1.385 . S
C697 H672 0.951 . S
C697 C695 1.388 . S
C697 C698 1.366 . S
C698 C697 1.366 . S
C698 C699 1.414 . S
C698 C701 1.499 . S
C699 H673 0.950 . S
C699 C698 1.414 . S
C699 C700 1.374 . S
C700 H674 0.950 . S
C700 C696 1.385 . S
C700 C699 1.374 . S
C701 C698 1.499 . S
C701 C702 1.373 . S
C701 C703 1.389 . S
C702 H675 0.950 . S
C702 C688 1.377 . S
C702 C701 1.373 . S
C703 C687 1.377 . S
C703 C701 1.389 . S
C703 C704 1.524 . S
C704 C703 1.524 . S
C704 C705 1.397 . S
C704 C709 1.363 . S
C705 H676 0.950 . S
C705 C704 1.397 . S
C705 C706 1.334 . S
C706 H677 0.950 . S
C706 C705 1.334 . S
C706 C707 1.287 . S
C707 C706 1.287 . S
C707 C708 1.524 . S
C707 H710 0.999 . S
C708 H678 0.950 . S
C708 C707 1.524 . S
C708 C709 1.415 . S
C709 H679 0.950 . S
C709 C704 1.363 . S
C709 C708 1.415 . S
H710 C707 0.999 . S
H711 C692 0.913 . S
H712 C730 0.951 . S
H713 C732 0.951 . S
H714 C734 0.950 . S
H715 C735 0.950 . S
H716 C737 0.950 . S
H717 C740 0.950 . S
H718 C741 0.950 . S
H719 C743 0.950 . S
H720 C744 0.950 . S
H721 C745 0.951 . S
H722 C747 0.951 . S
H723 C749 0.950 . S
H724 C750 0.950 . S
H725 C752 0.950 . S
H726 C755 0.950 . S
H727 C756 0.950 . S
H728 C758 0.950 . S
H729 C759 0.950 . S
C730 H712 0.951 . S
C730 C731 1.366 . S
C730 C732 1.388 . S
C731 C730 1.366 . S
C731 C735 1.385 . S
C732 H713 0.951 . S
C732 C730 1.388 . S
C732 C733 1.366 . S
C733 C732 1.366 . S
C733 C734 1.414 . S
C733 C736 1.499 . S
C734 H714 0.950 . S
C734 C733 1.414 . S
C734 C735 1.374 . S
C735 H715 0.950 . S
C735 C731 1.385 . S
C735 C734 1.374 . S
C736 C733 1.499 . S
C736 C737 1.373 . S
C736 C738 1.389 . S
C737 H716 0.950 . S
C737 C736 1.373 . S
C737 C753 1.377 . S
C738 C736 1.389 . S
C738 C739 1.524 . S
C738 C752 1.377 . S
C739 C738 1.524 . S
C739 C740 1.397 . S
C739 C744 1.363 . S
C740 H717 0.950 . S
C740 C739 1.397 . S
C740 C741 1.334 . S
C741 H718 0.950 . S
C741 C740 1.334 . S
C741 C742 1.287 . S
C742 C741 1.287 . S
C742 C743 1.524 . S
C742 H761 0.913 . S
C743 H719 0.950 . S
C743 C742 1.524 . S
C743 C744 1.415 . S
C744 H720 0.950 . S
C744 C739 1.363 . S
C744 C743 1.415 . S
C745 H721 0.951 . S
C745 C746 1.366 . S
C745 C747 1.388 . S
C746 C745 1.366 . S
C746 C750 1.385 . S
C747 H722 0.951 . S
C747 C745 1.388 . S
C747 C748 1.366 . S
C748 C747 1.366 . S
C748 C749 1.414 . S
C748 C751 1.499 . S
C749 H723 0.950 . S
C749 C748 1.414 . S
C749 C750 1.374 . S
C750 H724 0.950 . S
C750 C746 1.385 . S
C750 C749 1.374 . S
C751 C748 1.499 . S
C751 C752 1.373 . S
C751 C753 1.389 . S
C752 H725 0.950 . S
C752 C738 1.377 . S
C752 C751 1.373 . S
C753 C737 1.377 . S
C753 C751 1.389 . S
C753 C754 1.524 . S
C754 C753 1.524 . S
C754 C755 1.397 . S
C754 C759 1.363 . S
C755 H726 0.950 . S
C755 C754 1.397 . S
C755 C756 1.334 . S
C756 H727 0.950 . S
C756 C755 1.334 . S
C756 C757 1.287 . S
C757 C756 1.287 . S
C757 C758 1.524 . S
C757 H760 0.999 . S
C758 H728 0.950 . S
C758 C757 1.524 . S
C758 C759 1.415 . S
C759 H729 0.950 . S
C759 C754 1.363 . S
C759 C758 1.415 . S
H760 C757 0.999 . S
H761 C742 0.913 . S
H762 C780 0.951 . S
H763 C782 0.951 . S
H764 C784 0.950 . S
H765 C785 0.950 . S
H766 C787 0.950 . S
H767 C790 0.950 . S
H768 C791 0.950 . S
H769 C793 0.950 . S
H770 C794 0.950 . S
H771 C795 0.951 1_545 S
H772 C797 0.951 . S
H773 C799 0.950 . S
H774 C800 0.950 . S
H775 C802 0.950 . S
H776 C805 0.950 . S
H777 C806 0.950 1_655 S
H778 C808 0.950 . S
H779 C809 0.950 . S
C780 H762 0.951 . S
C780 C781 1.366 . S
C780 C782 1.388 . S
C781 C780 1.366 . S
C781 C785 1.385 . S
C782 H763 0.951 . S
C782 C780 1.388 . S
C782 C783 1.366 . S
C783 C782 1.366 . S
C783 C784 1.414 . S
C783 C786 1.499 . S
C784 H764 0.950 . S
C784 C783 1.414 . S
C784 C785 1.374 . S
C785 H765 0.950 . S
C785 C781 1.385 . S
C785 C784 1.374 . S
C786 C783 1.499 . S
C786 C787 1.373 . S
C786 C788 1.389 . S
C787 H766 0.950 . S
C787 C786 1.373 . S
C787 C803 1.377 . S
C788 C786 1.389 . S
C788 C789 1.524 . S
C788 C802 1.377 . S
C789 C788 1.524 . S
C789 C790 1.397 . S
C789 C794 1.363 . S
C790 H767 0.950 . S
C790 C789 1.397 . S
C790 C791 1.334 . S
C791 H768 0.950 . S
C791 C790 1.334 . S
C791 C792 1.287 . S
C792 C791 1.287 . S
C792 C793 1.524 . S
C792 H811 0.913 . S
C793 H769 0.950 . S
C793 C792 1.524 . S
C793 C794 1.415 . S
C794 H770 0.950 . S
C794 C789 1.363 . S
C794 C793 1.415 . S
C795 H771 0.951 1_565 S
C795 C796 1.366 . S
C795 C797 1.388 . S
C796 C795 1.366 . S
C796 C800 1.385 . S
C797 H772 0.951 . S
C797 C795 1.388 . S
C797 C798 1.366 . S
C798 C797 1.366 . S
C798 C799 1.414 . S
C798 C801 1.499 . S
C799 H773 0.950 . S
C799 C798 1.414 . S
C799 C800 1.374 . S
C800 H774 0.950 . S
C800 C796 1.385 . S
C800 C799 1.374 . S
C801 C798 1.499 . S
C801 C802 1.373 . S
C801 C803 1.389 . S
C802 H775 0.950 . S
C802 C788 1.377 . S
C802 C801 1.373 . S
C803 C787 1.377 . S
C803 C801 1.389 . S
C803 C804 1.524 . S
C804 C803 1.524 . S
C804 C805 1.397 . S
C804 C809 1.363 . S
C805 H776 0.950 . S
C805 C804 1.397 . S
C805 C806 1.334 . S
C806 H777 0.950 1_455 S
C806 C805 1.334 . S
C806 C807 1.287 . S
C807 C806 1.287 . S
C807 C808 1.524 . S
C807 H810 0.999 1_455 S
C808 H778 0.950 . S
C808 C807 1.524 . S
C808 C809 1.415 . S
C809 H779 0.950 . S
C809 C804 1.363 . S
C809 C808 1.415 . S
H810 C807 0.999 1_655 S
H811 C792 0.913 . S
C246 C112 1.672 . S
C231 C43 1.687 . S
C281 C10 1.687 . S
C296 C184 1.666 . S
C331 C21 1.692 . S
C346 C100 1.690 . S
C381 C32 1.660 . S
C396 C196 1.652 . S
C446 C102 1.463 . S
C431 C5 1.631 . S
C496 C183 1.736 . S
C481 C15 1.734 . S
C531 C27 1.656 . S
C546 C99 1.669 . S
C581 C38 1.624 . S
C596 C186 1.455 . S
C646 C198 1.401 . S
C631 C16 1.569 . S
C696 C114 1.401 . S
C681 C26 1.576 . S
C746 C195 1.647 . S
C731 C37 1.640 . S
C781 C4 1.579 . S
C796 C111 1.589 . S
