# Generated by pormake.
# Topology tbo, (3,4)-cn, num edge types: 1
# Building blocks:
#     Node 0, Type 0, BuildingBlock: WUSLED_clean_sbu_0, # of connection points: 3
#     Node 1, Type 0, BuildingBlock: WUSLED_clean_sbu_0, # of connection points: 3
#     Node 2, Type 0, BuildingBlock: WUSLED_clean_sbu_0, # of connection points: 3
#     Node 3, Type 0, BuildingBlock: WUSLED_clean_sbu_0, # of connection points: 3
#     Node 4, Type 0, BuildingBlock: WUSLED_clean_sbu_0, # of connection points: 3
#     Node 5, Type 0, BuildingBlock: WUSLED_clean_sbu_0, # of connection points: 3
#     Node 6, Type 0, BuildingBlock: WUSLED_clean_sbu_0, # of connection points: 3
#     Node 7, Type 0, BuildingBlock: WUSLED_clean_sbu_0, # of connection points: 3
#     Node 8, Type 0, BuildingBlock: WUSLED_clean_sbu_0, # of connection points: 3
#     Node 9, Type 0, BuildingBlock: WUSLED_clean_sbu_0, # of connection points: 3
#     Node 10, Type 0, BuildingBlock: WUSLED_clean_sbu_0, # of connection points: 3
#     Node 11, Type 0, BuildingBlock: WUSLED_clean_sbu_0, # of connection points: 3
#     Node 12, Type 0, BuildingBlock: WUSLED_clean_sbu_0, # of connection points: 3
#     Node 13, Type 0, BuildingBlock: WUSLED_clean_sbu_0, # of connection points: 3
#     Node 14, Type 0, BuildingBlock: WUSLED_clean_sbu_0, # of connection points: 3
#     Node 15, Type 0, BuildingBlock: WUSLED_clean_sbu_0, # of connection points: 3
#     Node 16, Type 0, BuildingBlock: WUSLED_clean_sbu_0, # of connection points: 3
#     Node 17, Type 0, BuildingBlock: WUSLED_clean_sbu_0, # of connection points: 3
#     Node 18, Type 0, BuildingBlock: WUSLED_clean_sbu_0, # of connection points: 3
#     Node 19, Type 0, BuildingBlock: WUSLED_clean_sbu_0, # of connection points: 3
#     Node 20, Type 0, BuildingBlock: WUSLED_clean_sbu_0, # of connection points: 3
#     Node 21, Type 0, BuildingBlock: WUSLED_clean_sbu_0, # of connection points: 3
#     Node 22, Type 0, BuildingBlock: WUSLED_clean_sbu_0, # of connection points: 3
#     Node 23, Type 0, BuildingBlock: WUSLED_clean_sbu_0, # of connection points: 3
#     Node 24, Type 0, BuildingBlock: WUSLED_clean_sbu_0, # of connection points: 3
#     Node 25, Type 0, BuildingBlock: WUSLED_clean_sbu_0, # of connection points: 3
#     Node 26, Type 0, BuildingBlock: WUSLED_clean_sbu_0, # of connection points: 3
#     Node 27, Type 0, BuildingBlock: WUSLED_clean_sbu_0, # of connection points: 3
#     Node 28, Type 0, BuildingBlock: WUSLED_clean_sbu_0, # of connection points: 3
#     Node 29, Type 0, BuildingBlock: WUSLED_clean_sbu_0, # of connection points: 3
#     Node 30, Type 0, BuildingBlock: WUSLED_clean_sbu_0, # of connection points: 3
#     Node 31, Type 0, BuildingBlock: WUSLED_clean_sbu_0, # of connection points: 3
#     Node 32, Type 1, BuildingBlock: KUFVIS_clean_linker_0, # of connection points: 4
#     Node 33, Type 1, BuildingBlock: KUFVIS_clean_linker_0, # of connection points: 4
#     Node 34, Type 1, BuildingBlock: KUFVIS_clean_linker_0, # of connection points: 4
#     Node 35, Type 1, BuildingBlock: KUFVIS_clean_linker_0, # of connection points: 4
#     Node 36, Type 1, BuildingBlock: KUFVIS_clean_linker_0, # of connection points: 4
#     Node 37, Type 1, BuildingBlock: KUFVIS_clean_linker_0, # of connection points: 4
#     Node 38, Type 1, BuildingBlock: KUFVIS_clean_linker_0, # of connection points: 4
#     Node 39, Type 1, BuildingBlock: KUFVIS_clean_linker_0, # of connection points: 4
#     Node 40, Type 1, BuildingBlock: KUFVIS_clean_linker_0, # of connection points: 4
#     Node 41, Type 1, BuildingBlock: KUFVIS_clean_linker_0, # of connection points: 4
#     Node 42, Type 1, BuildingBlock: KUFVIS_clean_linker_0, # of connection points: 4
#     Node 43, Type 1, BuildingBlock: KUFVIS_clean_linker_0, # of connection points: 4
#     Node 44, Type 1, BuildingBlock: KUFVIS_clean_linker_0, # of connection points: 4
#     Node 45, Type 1, BuildingBlock: KUFVIS_clean_linker_0, # of connection points: 4
#     Node 46, Type 1, BuildingBlock: KUFVIS_clean_linker_0, # of connection points: 4
#     Node 47, Type 1, BuildingBlock: KUFVIS_clean_linker_0, # of connection points: 4
#     Node 48, Type 1, BuildingBlock: KUFVIS_clean_linker_0, # of connection points: 4
#     Node 49, Type 1, BuildingBlock: KUFVIS_clean_linker_0, # of connection points: 4
#     Node 50, Type 1, BuildingBlock: KUFVIS_clean_linker_0, # of connection points: 4
#     Node 51, Type 1, BuildingBlock: KUFVIS_clean_linker_0, # of connection points: 4
#     Node 52, Type 1, BuildingBlock: KUFVIS_clean_linker_0, # of connection points: 4
#     Node 53, Type 1, BuildingBlock: KUFVIS_clean_linker_0, # of connection points: 4
#     Node 54, Type 1, BuildingBlock: KUFVIS_clean_linker_0, # of connection points: 4
#     Node 55, Type 1, BuildingBlock: KUFVIS_clean_linker_0, # of connection points: 4
#     Edge 56, Type (0, 1), BuildingBlock: XUDNAN_clean_linker_2, # of connection points: 2
#     Edge 57, Type (0, 1), BuildingBlock: XUDNAN_clean_linker_2, # of connection points: 2
#     Edge 58, Type (0, 1), BuildingBlock: XUDNAN_clean_linker_2, # of connection points: 2
#     Edge 59, Type (0, 1), BuildingBlock: XUDNAN_clean_linker_2, # of connection points: 2
#     Edge 60, Type (0, 1), BuildingBlock: XUDNAN_clean_linker_2, # of connection points: 2
#     Edge 61, Type (0, 1), BuildingBlock: XUDNAN_clean_linker_2, # of connection points: 2
#     Edge 62, Type (0, 1), BuildingBlock: XUDNAN_clean_linker_2, # of connection points: 2
#     Edge 63, Type (0, 1), BuildingBlock: XUDNAN_clean_linker_2, # of connection points: 2
#     Edge 64, Type (0, 1), BuildingBlock: XUDNAN_clean_linker_2, # of connection points: 2
#     Edge 65, Type (0, 1), BuildingBlock: XUDNAN_clean_linker_2, # of connection points: 2
#     Edge 66, Type (0, 1), BuildingBlock: XUDNAN_clean_linker_2, # of connection points: 2
#     Edge 67, Type (0, 1), BuildingBlock: XUDNAN_clean_linker_2, # of connection points: 2
#     Edge 68, Type (0, 1), BuildingBlock: XUDNAN_clean_linker_2, # of connection points: 2
#     Edge 69, Type (0, 1), BuildingBlock: XUDNAN_clean_linker_2, # of connection points: 2
#     Edge 70, Type (0, 1), BuildingBlock: XUDNAN_clean_linker_2, # of connection points: 2
#     Edge 71, Type (0, 1), BuildingBlock: XUDNAN_clean_linker_2, # of connection points: 2
#     Edge 72, Type (0, 1), BuildingBlock: XUDNAN_clean_linker_2, # of connection points: 2
#     Edge 73, Type (0, 1), BuildingBlock: XUDNAN_clean_linker_2, # of connection points: 2
#     Edge 74, Type (0, 1), BuildingBlock: XUDNAN_clean_linker_2, # of connection points: 2
#     Edge 75, Type (0, 1), BuildingBlock: XUDNAN_clean_linker_2, # of connection points: 2
#     Edge 76, Type (0, 1), BuildingBlock: XUDNAN_clean_linker_2, # of connection points: 2
#     Edge 77, Type (0, 1), BuildingBlock: XUDNAN_clean_linker_2, # of connection points: 2
#     Edge 78, Type (0, 1), BuildingBlock: XUDNAN_clean_linker_2, # of connection points: 2
#     Edge 79, Type (0, 1), BuildingBlock: XUDNAN_clean_linker_2, # of connection points: 2
#     Edge 80, Type (0, 1), BuildingBlock: XUDNAN_clean_linker_2, # of connection points: 2
#     Edge 81, Type (0, 1), BuildingBlock: XUDNAN_clean_linker_2, # of connection points: 2
#     Edge 82, Type (0, 1), BuildingBlock: XUDNAN_clean_linker_2, # of connection points: 2
#     Edge 83, Type (0, 1), BuildingBlock: XUDNAN_clean_linker_2, # of connection points: 2
#     Edge 84, Type (0, 1), BuildingBlock: XUDNAN_clean_linker_2, # of connection points: 2
#     Edge 85, Type (0, 1), BuildingBlock: XUDNAN_clean_linker_2, # of connection points: 2
#     Edge 86, Type (0, 1), BuildingBlock: XUDNAN_clean_linker_2, # of connection points: 2
#     Edge 87, Type (0, 1), BuildingBlock: XUDNAN_clean_linker_2, # of connection points: 2
#     Edge 88, Type (0, 1), BuildingBlock: XUDNAN_clean_linker_2, # of connection points: 2
#     Edge 89, Type (0, 1), BuildingBlock: XUDNAN_clean_linker_2, # of connection points: 2
#     Edge 90, Type (0, 1), BuildingBlock: XUDNAN_clean_linker_2, # of connection points: 2
#     Edge 91, Type (0, 1), BuildingBlock: XUDNAN_clean_linker_2, # of connection points: 2
#     Edge 92, Type (0, 1), BuildingBlock: XUDNAN_clean_linker_2, # of connection points: 2
#     Edge 93, Type (0, 1), BuildingBlock: XUDNAN_clean_linker_2, # of connection points: 2
#     Edge 94, Type (0, 1), BuildingBlock: XUDNAN_clean_linker_2, # of connection points: 2
#     Edge 95, Type (0, 1), BuildingBlock: XUDNAN_clean_linker_2, # of connection points: 2
#     Edge 96, Type (0, 1), BuildingBlock: XUDNAN_clean_linker_2, # of connection points: 2
#     Edge 97, Type (0, 1), BuildingBlock: XUDNAN_clean_linker_2, # of connection points: 2
#     Edge 98, Type (0, 1), BuildingBlock: XUDNAN_clean_linker_2, # of connection points: 2
#     Edge 99, Type (0, 1), BuildingBlock: XUDNAN_clean_linker_2, # of connection points: 2
#     Edge 100, Type (0, 1), BuildingBlock: XUDNAN_clean_linker_2, # of connection points: 2
#     Edge 101, Type (0, 1), BuildingBlock: XUDNAN_clean_linker_2, # of connection points: 2
#     Edge 102, Type (0, 1), BuildingBlock: XUDNAN_clean_linker_2, # of connection points: 2
#     Edge 103, Type (0, 1), BuildingBlock: XUDNAN_clean_linker_2, # of connection points: 2
#     Edge 104, Type (0, 1), BuildingBlock: XUDNAN_clean_linker_2, # of connection points: 2
#     Edge 105, Type (0, 1), BuildingBlock: XUDNAN_clean_linker_2, # of connection points: 2
#     Edge 106, Type (0, 1), BuildingBlock: XUDNAN_clean_linker_2, # of connection points: 2
#     Edge 107, Type (0, 1), BuildingBlock: XUDNAN_clean_linker_2, # of connection points: 2
#     Edge 108, Type (0, 1), BuildingBlock: XUDNAN_clean_linker_2, # of connection points: 2
#     Edge 109, Type (0, 1), BuildingBlock: XUDNAN_clean_linker_2, # of connection points: 2
#     Edge 110, Type (0, 1), BuildingBlock: XUDNAN_clean_linker_2, # of connection points: 2
#     Edge 111, Type (0, 1), BuildingBlock: XUDNAN_clean_linker_2, # of connection points: 2
#     Edge 112, Type (0, 1), BuildingBlock: XUDNAN_clean_linker_2, # of connection points: 2
#     Edge 113, Type (0, 1), BuildingBlock: XUDNAN_clean_linker_2, # of connection points: 2
#     Edge 114, Type (0, 1), BuildingBlock: XUDNAN_clean_linker_2, # of connection points: 2
#     Edge 115, Type (0, 1), BuildingBlock: XUDNAN_clean_linker_2, # of connection points: 2
#     Edge 116, Type (0, 1), BuildingBlock: XUDNAN_clean_linker_2, # of connection points: 2
#     Edge 117, Type (0, 1), BuildingBlock: XUDNAN_clean_linker_2, # of connection points: 2
#     Edge 118, Type (0, 1), BuildingBlock: XUDNAN_clean_linker_2, # of connection points: 2
#     Edge 119, Type (0, 1), BuildingBlock: XUDNAN_clean_linker_2, # of connection points: 2
#     Edge 120, Type (0, 1), BuildingBlock: XUDNAN_clean_linker_2, # of connection points: 2
#     Edge 121, Type (0, 1), BuildingBlock: XUDNAN_clean_linker_2, # of connection points: 2
#     Edge 122, Type (0, 1), BuildingBlock: XUDNAN_clean_linker_2, # of connection points: 2
#     Edge 123, Type (0, 1), BuildingBlock: XUDNAN_clean_linker_2, # of connection points: 2
#     Edge 124, Type (0, 1), BuildingBlock: XUDNAN_clean_linker_2, # of connection points: 2
#     Edge 125, Type (0, 1), BuildingBlock: XUDNAN_clean_linker_2, # of connection points: 2
#     Edge 126, Type (0, 1), BuildingBlock: XUDNAN_clean_linker_2, # of connection points: 2
#     Edge 127, Type (0, 1), BuildingBlock: XUDNAN_clean_linker_2, # of connection points: 2
#     Edge 128, Type (0, 1), BuildingBlock: XUDNAN_clean_linker_2, # of connection points: 2
#     Edge 129, Type (0, 1), BuildingBlock: XUDNAN_clean_linker_2, # of connection points: 2
#     Edge 130, Type (0, 1), BuildingBlock: XUDNAN_clean_linker_2, # of connection points: 2
#     Edge 131, Type (0, 1), BuildingBlock: XUDNAN_clean_linker_2, # of connection points: 2
#     Edge 132, Type (0, 1), BuildingBlock: XUDNAN_clean_linker_2, # of connection points: 2
#     Edge 133, Type (0, 1), BuildingBlock: XUDNAN_clean_linker_2, # of connection points: 2
#     Edge 134, Type (0, 1), BuildingBlock: XUDNAN_clean_linker_2, # of connection points: 2
#     Edge 135, Type (0, 1), BuildingBlock: XUDNAN_clean_linker_2, # of connection points: 2
#     Edge 136, Type (0, 1), BuildingBlock: XUDNAN_clean_linker_2, # of connection points: 2
#     Edge 137, Type (0, 1), BuildingBlock: XUDNAN_clean_linker_2, # of connection points: 2
#     Edge 138, Type (0, 1), BuildingBlock: XUDNAN_clean_linker_2, # of connection points: 2
#     Edge 139, Type (0, 1), BuildingBlock: XUDNAN_clean_linker_2, # of connection points: 2
#     Edge 140, Type (0, 1), BuildingBlock: XUDNAN_clean_linker_2, # of connection points: 2
#     Edge 141, Type (0, 1), BuildingBlock: XUDNAN_clean_linker_2, # of connection points: 2
#     Edge 142, Type (0, 1), BuildingBlock: XUDNAN_clean_linker_2, # of connection points: 2
#     Edge 143, Type (0, 1), BuildingBlock: XUDNAN_clean_linker_2, # of connection points: 2
#     Edge 144, Type (0, 1), BuildingBlock: XUDNAN_clean_linker_2, # of connection points: 2
#     Edge 145, Type (0, 1), BuildingBlock: XUDNAN_clean_linker_2, # of connection points: 2
#     Edge 146, Type (0, 1), BuildingBlock: XUDNAN_clean_linker_2, # of connection points: 2
#     Edge 147, Type (0, 1), BuildingBlock: XUDNAN_clean_linker_2, # of connection points: 2
#     Edge 148, Type (0, 1), BuildingBlock: XUDNAN_clean_linker_2, # of connection points: 2
#     Edge 149, Type (0, 1), BuildingBlock: XUDNAN_clean_linker_2, # of connection points: 2
#     Edge 150, Type (0, 1), BuildingBlock: XUDNAN_clean_linker_2, # of connection points: 2
#     Edge 151, Type (0, 1), BuildingBlock: XUDNAN_clean_linker_2, # of connection points: 2
# Relax obj value: 0.000
# Max RMSD: 0.055
# Mean RMSD: 0.026
data_MOF--net-tbo--node1-WUSLED_clean_sbu_0--node2-KUFVIS_clean_linker_0--edge1-XUDNAN_clean_linker_2
_symmetry_space_group_name_H-M    P1
_symmetry_Int_Tables_number       1
_symmetry_cell_setting            triclinic
loop_
_symmetry_equiv_pos_as_xyz
'x, y, z'
_cell_length_a     94.10862
_cell_length_b     94.457038
_cell_length_c     94.17205
_cell_angle_alpha  89.733649
_cell_angle_beta   90.337366
_cell_angle_gamma 90.785263
loop_
_atom_site_label
_atom_site_type_symbol
_atom_site_fract_x
_atom_site_fract_y
_atom_site_fract_z
_atom_type_partial_charge
C0 C 0.182 0.14343 0.20373 0.0
C1 C 0.19374 0.14485 0.21297 0.0
C2 C 0.19575 0.11916 0.21482 0.0
C3 C 0.20056 0.13287 0.21839 0.0
C4 C 0.18419 0.11776 0.20536 0.0
C5 C 0.17738 0.12973 0.19994 0.0
U6 U 0.17371 0.17536 0.179 0.0
O7 O 0.15292 0.18292 0.17157 0.0
O8 O 0.16653 0.19669 0.18469 0.0
C9 C 0.15406 0.19491 0.17853 0.0
C10 C 0.17374 0.15601 0.19919 0.0
C11 C 0.14164 0.19883 0.18706 0.0
C12 C 0.12527 0.19458 0.20659 0.0
C13 C 0.13714 0.19059 0.19868 0.0
C14 C 0.12232 0.21506 0.19134 0.0
C15 C 0.11772 0.20691 0.20304 0.0
C16 C 0.13414 0.21105 0.18345 0.0
C17 C 0.19769 0.18302 0.14619 0.0
C18 C 0.21257 0.20105 0.13473 0.0
C19 C 0.19895 0.18458 0.12035 0.0
C20 C 0.19356 0.17816 0.13266 0.0
C21 C 0.20869 0.19598 0.12121 0.0
C22 C 0.20719 0.19463 0.14706 0.0
C23 C 0.19331 0.17507 0.15917 0.0
O24 O 0.17997 0.16849 0.20049 0.0
O25 O 0.16624 0.15481 0.18741 0.0
O26 O 0.18138 0.16767 0.15842 0.0
O27 O 0.19505 0.18146 0.17145 0.0
H28 H 0.19746 0.15521 0.21632 0.0
H29 H 0.20929 0.13437 0.22579 0.0
H30 H 0.1803 0.10739 0.20223 0.0
H31 H 0.16827 0.12821 0.19299 0.0
H32 H 0.12214 0.18814 0.21561 0.0
H33 H 0.14283 0.18112 0.20164 0.0
H34 H 0.11667 0.22448 0.18815 0.0
H35 H 0.13742 0.21752 0.17448 0.0
H36 H 0.2202 0.20967 0.13584 0.0
H37 H 0.19557 0.18049 0.11012 0.0
H38 H 0.18641 0.16914 0.13156 0.0
H39 H 0.21081 0.19852 0.15727 0.0
C40 C 0.82636 0.18062 0.14968 0.0
C41 C 0.83297 0.19285 0.14416 0.0
C42 C 0.81501 0.19413 0.1254 0.0
C43 C 0.82733 0.19957 0.13212 0.0
C44 C 0.80845 0.18191 0.13108 0.0
C45 C 0.81407 0.17523 0.14308 0.0
U46 U 0.85357 0.17599 0.17997 0.0
O47 O 0.84984 0.16938 0.2021 0.0
O48 O 0.86285 0.15631 0.18821 0.0
C49 C 0.85636 0.15728 0.20048 0.0
C50 C 0.83205 0.17326 0.16223 0.0
C51 C 0.84817 0.14461 0.20485 0.0
C52 C 0.82844 0.12809 0.20132 0.0
C53 C 0.8362 0.14011 0.19705 0.0
C54 C 0.84454 0.12495 0.22121 0.0
C55 C 0.8325 0.12036 0.21347 0.0
C56 C 0.8523 0.13696 0.21692 0.0
C57 C 0.88483 0.20256 0.18385 0.0
C58 C 0.90289 0.20169 0.20242 0.0
C59 C 0.90414 0.21988 0.18423 0.0
C60 C 0.89174 0.21441 0.17798 0.0
C61 C 0.90992 0.21358 0.19651 0.0
C62 C 0.89045 0.1962 0.19611 0.0
C63 C 0.87182 0.19708 0.17692 0.0
O64 O 0.84426 0.16695 0.16048 0.0
O65 O 0.83128 0.18013 0.1743 0.0
O66 O 0.86006 0.19803 0.18429 0.0
O67 O 0.87299 0.18491 0.17035 0.0
H68 H 0.8425 0.19714 0.14913 0.0
H69 H 0.83272 0.20889 0.12797 0.0
H70 H 0.79882 0.17757 0.12635 0.0
H71 H 0.8088 0.16583 0.14724 0.0
H72 H 0.81912 0.12498 0.19522 0.0
H73 H 0.83283 0.14593 0.18771 0.0
H74 H 0.84807 0.11917 0.23052 0.0
H75 H 0.86154 0.14027 0.22304 0.0
H76 H 0.9071 0.19651 0.21179 0.0
H77 H 0.90909 0.22919 0.17954 0.0
H78 H 0.88752 0.21949 0.16855 0.0
H79 H 0.88524 0.18701 0.20077 0.0
C80 C 0.83117 0.84935 0.14869 0.0
C81 C 0.82255 0.83709 0.14959 0.0
C82 C 0.8203 0.83618 0.12375 0.0
C83 C 0.81723 0.83056 0.13728 0.0
C84 C 0.82918 0.84825 0.12286 0.0
C85 C 0.83449 0.85477 0.13515 0.0
U86 U 0.85521 0.85696 0.18162 0.0
O87 O 0.86303 0.8775 0.18968 0.0
O88 O 0.84919 0.86415 0.20295 0.0
C89 C 0.85564 0.87651 0.20146 0.0
C90 C 0.83555 0.85734 0.16163 0.0
C91 C 0.84774 0.88932 0.20584 0.0
C92 C 0.84687 0.91501 0.20818 0.0
C93 C 0.85327 0.90289 0.20277 0.0
C94 C 0.82907 0.90035 0.21971 0.0
C95 C 0.83481 0.91391 0.2169 0.0
C96 C 0.83548 0.8882 0.21429 0.0
C97 C 0.88749 0.83279 0.18972 0.0
C98 C 0.89848 0.81766 0.20766 0.0
C99 C 0.9133 0.83167 0.19194 0.0
C100 C 0.90116 0.83709 0.18534 0.0
C101 C 0.91214 0.82171 0.20305 0.0
C102 C 0.88631 0.82307 0.20104 0.0
C103 C 0.87471 0.83724 0.18153 0.0
O104 O 0.83378 0.85101 0.17398 0.0
O105 O 0.8475 0.86467 0.1609 0.0
O106 O 0.87579 0.84911 0.17423 0.0
O107 O 0.86227 0.83561 0.18767 0.0
H108 H 0.81958 0.83272 0.15982 0.0
H109 H 0.81028 0.8214 0.13841 0.0
H110 H 0.83194 0.85277 0.11264 0.0
H111 H 0.84096 0.86428 0.13404 0.0
H112 H 0.85148 0.92527 0.20562 0.0
H113 H 0.86278 0.90415 0.19645 0.0
H114 H 0.81992 0.89905 0.22653 0.0
H115 H 0.83103 0.87794 0.21708 0.0
H116 H 0.89715 0.80987 0.21605 0.0
H117 H 0.92364 0.83519 0.18822 0.0
H118 H 0.9025 0.84442 0.17655 0.0
H119 H 0.87599 0.81932 0.20456 0.0
C120 C 0.14498 0.83351 0.19063 0.0
C121 C 0.13202 0.84062 0.18898 0.0
C122 C 0.12079 0.82529 0.2067 0.0
C123 C 0.1201 0.83658 0.19693 0.0
C124 C 0.13377 0.81823 0.20838 0.0
C125 C 0.14568 0.82225 0.20041 0.0
U126 U 0.17711 0.85737 0.18125 0.0
O127 O 0.19864 0.85186 0.17433 0.0
O128 O 0.185 0.8646 0.16045 0.0
C129 C 0.19699 0.85771 0.16173 0.0
C130 C 0.15756 0.83724 0.18181 0.0
C131 C 0.20159 0.84944 0.14921 0.0
C132 C 0.21607 0.83095 0.13884 0.0
C133 C 0.21053 0.83771 0.15077 0.0
C134 C 0.2037 0.84736 0.1235 0.0
C135 C 0.2129 0.83583 0.12505 0.0
C136 C 0.19817 0.85411 0.13542 0.0
C137 C 0.18421 0.89043 0.20427 0.0
C138 C 0.20524 0.90568 0.20323 0.0
C139 C 0.18496 0.91262 0.21717 0.0
C140 C 0.17778 0.9002 0.21324 0.0
C141 C 0.19877 0.91556 0.21221 0.0
C142 C 0.19799 0.89323 0.19924 0.0
C143 C 0.17628 0.87744 0.20044 0.0
O144 O 0.15662 0.84862 0.17379 0.0
O145 O 0.17007 0.83604 0.18798 0.0
O146 O 0.18295 0.86544 0.20239 0.0
O147 O 0.16914 0.87792 0.18843 0.0
H148 H 0.131 0.84923 0.18143 0.0
H149 H 0.11024 0.84212 0.19518 0.0
H150 H 0.13479 0.80962 0.21593 0.0
H151 H 0.15545 0.81646 0.20185 0.0
H152 H 0.22326 0.82223 0.14046 0.0
H153 H 0.21358 0.83394 0.16122 0.0
H154 H 0.20087 0.85129 0.11306 0.0
H155 H 0.19146 0.86321 0.13381 0.0
H156 H 0.21582 0.90766 0.19914 0.0
H157 H 0.17975 0.91984 0.2243 0.0
H158 H 0.16717 0.89819 0.21727 0.0
H159 H 0.20311 0.8858 0.19226 0.0
C160 C 0.14621 0.82857 0.855 0.0
C161 C 0.13992 0.83764 0.84502 0.0
C162 C 0.12208 0.81952 0.83936 0.0
C163 C 0.12793 0.83317 0.83729 0.0
C164 C 0.12857 0.81043 0.84927 0.0
C165 C 0.14051 0.81493 0.85702 0.0
U166 U 0.17728 0.85406 0.86281 0.0
O167 O 0.18465 0.86275 0.88326 0.0
O168 O 0.19883 0.84958 0.87064 0.0
C169 C 0.19687 0.85621 0.8827 0.0
C170 C 0.15854 0.8332 0.86356 0.0
C171 C 0.20096 0.84846 0.89564 0.0
C172 C 0.19968 0.82772 0.91101 0.0
C173 C 0.19558 0.83483 0.89858 0.0
C174 C 0.21447 0.84784 0.91766 0.0
C175 C 0.20915 0.83418 0.92072 0.0
C176 C 0.21041 0.85489 0.90525 0.0
C177 C 0.18469 0.88608 0.83832 0.0
C178 C 0.20131 0.89803 0.82236 0.0
C179 C 0.18956 0.91139 0.84062 0.0
C180 C 0.18249 0.89907 0.84518 0.0
C181 C 0.19898 0.91105 0.82909 0.0
C182 C 0.1942 0.88572 0.82687 0.0
C183 C 0.17656 0.87311 0.84242 0.0
O184 O 0.17099 0.83217 0.85743 0.0
O185 O 0.15702 0.84515 0.87045 0.0
O186 O 0.16881 0.87382 0.85396 0.0
O187 O 0.18324 0.86103 0.84127 0.0
H188 H 0.14424 0.8482 0.84326 0.0
H189 H 0.12332 0.84036 0.82961 0.0
H190 H 0.12426 0.79992 0.85123 0.0
H191 H 0.14522 0.8078 0.86471 0.0
H192 H 0.19531 0.81726 0.91311 0.0
H193 H 0.1882 0.82973 0.89129 0.0
H194 H 0.22196 0.85303 0.92477 0.0
H195 H 0.2147 0.86539 0.90312 0.0
H196 H 0.20833 0.89742 0.81331 0.0
H197 H 0.18762 0.92122 0.84611 0.0
H198 H 0.17518 0.89981 0.85397 0.0
H199 H 0.19597 0.87593 0.82123 0.0
C200 C 0.14074 0.18186 0.83358 0.0
C201 C 0.14164 0.194 0.8249 0.0
C202 C 0.11577 0.19534 0.82366 0.0
C203 C 0.12932 0.20067 0.82004 0.0
C204 C 0.1149 0.18337 0.83258 0.0
C205 C 0.12721 0.17669 0.83742 0.0
U206 U 0.17429 0.17423 0.85648 0.0
O207 O 0.18263 0.15373 0.86366 0.0
O208 O 0.1954 0.16728 0.84956 0.0
C209 C 0.19402 0.1548 0.85568 0.0
C210 C 0.15366 0.17378 0.8375 0.0
C211 C 0.19763 0.14231 0.84688 0.0
C212 C 0.19441 0.11742 0.84059 0.0
C213 C 0.19029 0.12931 0.84834 0.0
C214 C 0.21325 0.13127 0.8297 0.0
C215 C 0.20601 0.11821 0.83123 0.0
C216 C 0.20915 0.14313 0.83747 0.0
C217 C 0.18361 0.19871 0.88815 0.0
C218 C 0.20197 0.19451 0.90592 0.0
C219 C 0.18898 0.21646 0.9061 0.0
C220 C 0.18115 0.21195 0.89424 0.0
C221 C 0.19947 0.20779 0.91215 0.0
C222 C 0.19413 0.19002 0.89401 0.0
C223 C 0.17485 0.19418 0.8759 0.0
O224 O 0.16604 0.18003 0.83535 0.0
O225 O 0.15321 0.16652 0.84944 0.0
O226 O 0.16785 0.18213 0.87739 0.0
O227 O 0.18069 0.19568 0.86333 0.0
H228 H 0.15186 0.19817 0.82152 0.0
H229 H 0.13043 0.20973 0.81302 0.0
H230 H 0.10466 0.17906 0.83574 0.0
H231 H 0.12611 0.16727 0.84395 0.0
H232 H 0.1887 0.10752 0.84222 0.0
H233 H 0.18147 0.1282 0.85561 0.0
H234 H 0.22209 0.13238 0.82246 0.0
H235 H 0.21512 0.15293 0.8362 0.0
H236 H 0.21008 0.18763 0.91017 0.0
H237 H 0.1866 0.22664 0.9107 0.0
H238 H 0.17304 0.21879 0.8899 0.0
H239 H 0.19622 0.17977 0.88941 0.0
C240 C 0.82915 0.14559 0.85678 0.0
C241 C 0.83417 0.1432 0.843 0.0
C242 C 0.82153 0.12046 0.84223 0.0
C243 C 0.83034 0.13076 0.83575 0.0
C244 C 0.81654 0.12299 0.85604 0.0
C245 C 0.82031 0.13542 0.86321 0.0
U246 U 0.85289 0.17833 0.86375 0.0
O247 O 0.84712 0.19974 0.87063 0.0
O248 O 0.86091 0.18673 0.88407 0.0
C249 C 0.8535 0.19839 0.88303 0.0
C250 C 0.83305 0.15849 0.86475 0.0
C251 C 0.84535 0.20256 0.89581 0.0
C252 C 0.84296 0.20314 0.92159 0.0
C253 C 0.85004 0.19856 0.90945 0.0
C254 C 0.82638 0.21596 0.9068 0.0
C255 C 0.83108 0.21195 0.92044 0.0
C256 C 0.83345 0.21135 0.89465 0.0
C257 C 0.88507 0.18546 0.83936 0.0
C258 C 0.89993 0.20677 0.83903 0.0
C259 C 0.9073 0.18586 0.82639 0.0
C260 C 0.895 0.17871 0.83079 0.0
C261 C 0.90997 0.19996 0.83048 0.0
C262 C 0.8876 0.19955 0.84349 0.0
C263 C 0.87228 0.17749 0.84381 0.0
O264 O 0.84498 0.15788 0.87203 0.0
O265 O 0.83145 0.1706 0.85803 0.0
O266 O 0.86006 0.18391 0.84221 0.0
O267 O 0.87335 0.17059 0.8559 0.0
H268 H 0.84108 0.15091 0.83787 0.0
H269 H 0.83445 0.1291 0.82518 0.0
H270 H 0.80955 0.11542 0.86126 0.0
H271 H 0.81631 0.13708 0.87383 0.0
H272 H 0.84702 0.20002 0.93191 0.0
H273 H 0.85933 0.19203 0.91077 0.0
H274 H 0.81719 0.22262 0.9055 0.0
H275 H 0.82964 0.21481 0.88435 0.0
H276 H 0.90171 0.21759 0.84244 0.0
H277 H 0.91466 0.18037 0.81961 0.0
H278 H 0.89321 0.16786 0.82745 0.0
H279 H 0.88007 0.20493 0.85017 0.0
C280 C 0.84885 0.8887 0.83598 0.0
C281 C 0.83756 0.8927 0.84471 0.0
C282 C 0.83205 0.91228 0.82861 0.0
C283 C 0.82925 0.90441 0.84107 0.0
C284 C 0.84344 0.90819 0.81999 0.0
C285 C 0.85172 0.89654 0.82365 0.0
U286 U 0.85903 0.85588 0.85833 0.0
O287 O 0.86651 0.83522 0.85092 0.0
O288 O 0.88034 0.84847 0.86433 0.0
C289 C 0.87928 0.83706 0.85642 0.0
C290 C 0.85775 0.87641 0.83939 0.0
C291 C 0.89154 0.83382 0.8471 0.0
C292 C 0.91682 0.83583 0.84162 0.0
C293 C 0.90508 0.83981 0.8497 0.0
C294 C 0.90179 0.81981 0.82811 0.0
C295 C 0.91537 0.82568 0.8308 0.0
C296 C 0.89006 0.82378 0.83618 0.0
C297 C 0.83659 0.84468 0.89111 0.0
C298 C 0.83941 0.83814 0.91608 0.0
C299 C 0.82073 0.82718 0.90203 0.0
C300 C 0.82506 0.83511 0.89018 0.0
C301 C 0.82774 0.8287 0.91519 0.0
C302 C 0.84376 0.84606 0.90421 0.0
C303 C 0.84017 0.85397 0.87879 0.0
O304 O 0.86533 0.87726 0.85112 0.0
O305 O 0.85173 0.8639 0.83758 0.0
O306 O 0.83814 0.84855 0.86609 0.0
O307 O 0.85186 0.86172 0.87971 0.0
H308 H 0.83516 0.88674 0.85428 0.0
H309 H 0.82049 0.90717 0.84788 0.0
H310 H 0.84607 0.9141 0.81046 0.0
H311 H 0.86042 0.89364 0.8168 0.0
H312 H 0.92713 0.84044 0.84414 0.0
H313 H 0.90669 0.84739 0.85817 0.0
H314 H 0.90021 0.8121 0.81976 0.0
H315 H 0.87985 0.8188 0.83398 0.0
H316 H 0.84495 0.83974 0.92606 0.0
H317 H 0.81183 0.81988 0.90086 0.0
H318 H 0.81919 0.8339 0.88032 0.0
H319 H 0.85255 0.85348 0.90541 0.0
C320 C 0.18823 0.64392 0.70352 0.0
C321 C 0.19707 0.64427 0.71561 0.0
C322 C 0.20273 0.61932 0.71269 0.0
C323 C 0.20428 0.63215 0.7201 0.0
C324 C 0.19406 0.61903 0.70046 0.0
C325 C 0.1869 0.63116 0.69594 0.0
U326 U 0.17964 0.67646 0.68003 0.0
O327 O 0.15897 0.68424 0.67249 0.0
O328 O 0.17239 0.69764 0.68616 0.0
C329 C 0.15996 0.69601 0.67986 0.0
C330 C 0.1797 0.65653 0.69963 0.0
C331 C 0.14714 0.70027 0.6879 0.0
C332 C 0.13608 0.71459 0.70621 0.0
C333 C 0.14827 0.70928 0.69974 0.0
C334 C 0.12132 0.70187 0.68934 0.0
C335 C 0.12244 0.71115 0.70095 0.0
C336 C 0.13349 0.69656 0.68287 0.0
C337 C 0.20383 0.68468 0.64785 0.0
C338 C 0.199 0.70159 0.6289 0.0
C339 C 0.22181 0.69009 0.63012 0.0
C340 C 0.21744 0.68272 0.64228 0.0
C341 C 0.21265 0.69959 0.62322 0.0
C342 C 0.19463 0.69422 0.64113 0.0
C343 C 0.19949 0.67643 0.66046 0.0
O344 O 0.18588 0.66898 0.70136 0.0
O345 O 0.17208 0.65575 0.6879 0.0
O346 O 0.18747 0.66925 0.65936 0.0
O347 O 0.20104 0.68278 0.67277 0.0
H348 H 0.19817 0.65386 0.72181 0.0
H349 H 0.21071 0.63272 0.72966 0.0
H350 H 0.19274 0.60937 0.69441 0.0
H351 H 0.18013 0.63043 0.68662 0.0
H352 H 0.13739 0.72184 0.71501 0.0
H353 H 0.15859 0.71256 0.70378 0.0
H354 H 0.11101 0.69883 0.6851 0.0
H355 H 0.13219 0.6898 0.67368 0.0
H356 H 0.19173 0.70895 0.62398 0.0
H357 H 0.23231 0.68812 0.62596 0.0
H358 H 0.22467 0.67537 0.64729 0.0
H359 H 0.18409 0.69591 0.6453 0.0
C360 C 0.82982 0.68431 0.65034 0.0
C361 C 0.83895 0.69423 0.64384 0.0
C362 C 0.82058 0.69979 0.62636 0.0
C363 C 0.83437 0.70188 0.63193 0.0
C364 C 0.81146 0.68993 0.63306 0.0
C365 C 0.81605 0.68227 0.64492 0.0
U366 U 0.85551 0.67605 0.68107 0.0
O367 O 0.8507 0.6683 0.70263 0.0
O368 O 0.86353 0.65548 0.68832 0.0
C369 C 0.85666 0.65599 0.70043 0.0
C370 C 0.83449 0.6758 0.66258 0.0
C371 C 0.84819 0.64323 0.70446 0.0
C372 C 0.83179 0.63142 0.72073 0.0
C373 C 0.83919 0.64359 0.71632 0.0
C374 C 0.84221 0.61821 0.70155 0.0
C375 C 0.83331 0.61856 0.71348 0.0
C376 C 0.84958 0.63039 0.6971 0.0
C377 C 0.88847 0.69964 0.68834 0.0
C378 C 0.90103 0.71527 0.70484 0.0
C379 C 0.91376 0.69666 0.69305 0.0
C380 C 0.90124 0.69243 0.68608 0.0
C381 C 0.91383 0.70819 0.70243 0.0
C382 C 0.88852 0.71109 0.69782 0.0
C383 C 0.87532 0.6959 0.68031 0.0
O384 O 0.8463 0.66876 0.66084 0.0
O385 O 0.83373 0.68197 0.67503 0.0
O386 O 0.86324 0.69732 0.6871 0.0
O387 O 0.87564 0.68441 0.6725 0.0
H388 H 0.8496 0.69599 0.64794 0.0
H389 H 0.8416 0.70952 0.62714 0.0
H390 H 0.80084 0.68794 0.62896 0.0
H391 H 0.80888 0.67463 0.64979 0.0
H392 H 0.82519 0.632 0.73009 0.0
H393 H 0.83805 0.65324 0.72235 0.0
H394 H 0.84353 0.6085 0.69567 0.0
H395 H 0.85649 0.62967 0.68798 0.0
H396 H 0.90075 0.72433 0.71183 0.0
H397 H 0.92342 0.6909 0.69105 0.0
H398 H 0.90165 0.68361 0.67879 0.0
H399 H 0.87892 0.71699 0.69965 0.0
C400 C 0.82747 0.3513 0.64974 0.0
C401 C 0.83398 0.33903 0.64468 0.0
C402 C 0.81746 0.33821 0.62454 0.0
C403 C 0.82899 0.33252 0.6322 0.0
C404 C 0.811 0.35047 0.62978 0.0
C405 C 0.81596 0.35692 0.64221 0.0
U406 U 0.85261 0.35666 0.68207 0.0
O407 O 0.86079 0.37665 0.69102 0.0
O408 O 0.84703 0.36282 0.70387 0.0
C409 C 0.85366 0.37512 0.7029 0.0
C410 C 0.83236 0.35849 0.66277 0.0
C411 C 0.84557 0.38754 0.7075 0.0
C412 C 0.82898 0.40656 0.70275 0.0
C413 C 0.83621 0.39451 0.69825 0.0
C414 C 0.84022 0.40466 0.72587 0.0
C415 C 0.83094 0.41183 0.71662 0.0
C416 C 0.84746 0.39267 0.72134 0.0
C417 C 0.88465 0.33195 0.68859 0.0
C418 C 0.8956 0.31703 0.70673 0.0
C419 C 0.91045 0.33026 0.69037 0.0
C420 C 0.89832 0.33577 0.68383 0.0
C421 C 0.90927 0.32067 0.7018 0.0
C422 C 0.88345 0.32255 0.70018 0.0
C423 C 0.87185 0.33676 0.68066 0.0
O424 O 0.83095 0.35133 0.67469 0.0
O425 O 0.84453 0.36542 0.66191 0.0
O426 O 0.87295 0.34894 0.67389 0.0
O427 O 0.85945 0.33494 0.68685 0.0
H428 H 0.8429 0.33454 0.65036 0.0
H429 H 0.83429 0.32316 0.62844 0.0
H430 H 0.80194 0.355 0.62436 0.0
H431 H 0.81075 0.36634 0.64598 0.0
H432 H 0.82178 0.41169 0.69541 0.0
H433 H 0.83455 0.39068 0.68753 0.0
H434 H 0.84211 0.40849 0.73655 0.0
H435 H 0.85466 0.38745 0.72863 0.0
H436 H 0.89425 0.30953 0.71536 0.0
H437 H 0.92079 0.33345 0.6864 0.0
H438 H 0.89966 0.34285 0.67484 0.0
H439 H 0.87312 0.31918 0.70402 0.0
C440 C 0.14207 0.33346 0.69174 0.0
C441 C 0.12945 0.34123 0.69074 0.0
C442 C 0.11788 0.3255 0.7079 0.0
C443 C 0.11751 0.33732 0.69875 0.0
C444 C 0.13058 0.31786 0.709 0.0
C445 C 0.14248 0.32175 0.70098 0.0
U446 U 0.17498 0.35602 0.68136 0.0
O447 O 0.19601 0.34914 0.67418 0.0
O448 O 0.18281 0.36225 0.66023 0.0
C449 C 0.19433 0.35458 0.6614 0.0
C450 C 0.15454 0.33682 0.68266 0.0
C451 C 0.19781 0.34526 0.64925 0.0
C452 C 0.19424 0.33772 0.62472 0.0
C453 C 0.1902 0.3459 0.63636 0.0
C454 C 0.21352 0.328 0.6386 0.0
C455 C 0.20602 0.32873 0.62564 0.0
C456 C 0.20951 0.3362 0.65021 0.0
C457 C 0.18438 0.38915 0.70434 0.0
C458 C 0.20316 0.40016 0.71864 0.0
C459 C 0.18651 0.41486 0.70588 0.0
C460 C 0.17966 0.40273 0.70057 0.0
C461 C 0.19819 0.41374 0.71519 0.0
C462 C 0.19631 0.38802 0.71333 0.0
C463 C 0.17583 0.37642 0.70029 0.0
O464 O 0.15385 0.34823 0.67465 0.0
O465 O 0.16712 0.33514 0.68855 0.0
O466 O 0.18165 0.36398 0.70232 0.0
O467 O 0.16846 0.37715 0.68841 0.0
H468 H 0.12868 0.35023 0.68362 0.0
H469 H 0.10788 0.34334 0.69748 0.0
H470 H 0.13135 0.30884 0.71609 0.0
H471 H 0.15199 0.31546 0.7019 0.0
H472 H 0.18832 0.33872 0.61488 0.0
H473 H 0.18123 0.35288 0.63514 0.0
H474 H 0.22251 0.32106 0.63981 0.0
H475 H 0.21568 0.33556 0.65993 0.0
H476 H 0.21201 0.39888 0.72592 0.0
H477 H 0.1825 0.42514 0.70284 0.0
H478 H 0.1704 0.404 0.69382 0.0
H479 H 0.20012 0.37775 0.71666 0.0
C480 C 0.14155 0.33076 0.35211 0.0
C481 C 0.13761 0.33911 0.3404 0.0
C482 C 0.11782 0.32294 0.33523 0.0
C483 C 0.12583 0.33524 0.33204 0.0
C484 C 0.12185 0.31466 0.34702 0.0
C485 C 0.13359 0.31855 0.35537 0.0
U486 U 0.17344 0.35474 0.361 0.0
O487 O 0.18103 0.36258 0.38172 0.0
O488 O 0.19481 0.34938 0.36871 0.0
C489 C 0.19296 0.35551 0.38107 0.0
C490 C 0.15386 0.33464 0.36105 0.0
C491 C 0.19704 0.34732 0.39392 0.0
C492 C 0.19804 0.34515 0.41972 0.0
C493 C 0.19342 0.35223 0.40749 0.0
C494 C 0.21008 0.32811 0.40513 0.0
C495 C 0.20651 0.33306 0.41869 0.0
C496 C 0.20543 0.33516 0.39289 0.0
C497 C 0.1822 0.38689 0.33712 0.0
C498 C 0.18786 0.41201 0.33969 0.0
C499 C 0.19918 0.39848 0.32127 0.0
C500 C 0.19171 0.38634 0.32567 0.0
C501 C 0.19721 0.41149 0.32812 0.0
C502 C 0.18044 0.39986 0.34413 0.0
C503 C 0.17358 0.37419 0.34098 0.0
O504 O 0.16637 0.33323 0.35512 0.0
O505 O 0.1527 0.3465 0.36817 0.0
O506 O 0.16585 0.37502 0.35253 0.0
O507 O 0.17978 0.36187 0.33963 0.0
H508 H 0.14367 0.34858 0.33772 0.0
H509 H 0.12314 0.34176 0.32295 0.0
H510 H 0.11582 0.30524 0.3499 0.0
H511 H 0.13645 0.31202 0.3644 0.0
H512 H 0.19526 0.34937 0.43 0.0
H513 H 0.18719 0.36172 0.40867 0.0
H514 H 0.21646 0.31873 0.40395 0.0
H515 H 0.20857 0.33114 0.38264 0.0
H516 H 0.18621 0.42185 0.34527 0.0
H517 H 0.20615 0.39776 0.31219 0.0
H518 H 0.19316 0.37657 0.31992 0.0
H519 H 0.17315 0.40073 0.35294 0.0
C520 C 0.14479 0.68287 0.33312 0.0
C521 C 0.13886 0.69288 0.34225 0.0
C522 C 0.1205 0.69815 0.32461 0.0
C523 C 0.12681 0.70043 0.33804 0.0
C524 C 0.12662 0.68819 0.31549 0.0
C525 C 0.13863 0.68064 0.31973 0.0
U526 U 0.17681 0.67494 0.35743 0.0
O527 O 0.18409 0.65438 0.36568 0.0
O528 O 0.19794 0.66708 0.35177 0.0
C529 C 0.19602 0.65499 0.35852 0.0
C530 C 0.15718 0.67444 0.33743 0.0
C531 C 0.19975 0.64204 0.35072 0.0
C532 C 0.1998 0.6276 0.32935 0.0
C533 C 0.19585 0.63997 0.33645 0.0
C534 C 0.21142 0.61924 0.35075 0.0
C535 C 0.20761 0.61706 0.33644 0.0
C536 C 0.20753 0.63159 0.35779 0.0
C537 C 0.18537 0.69967 0.38939 0.0
C538 C 0.18796 0.70056 0.41518 0.0
C539 C 0.20325 0.71511 0.40041 0.0
C540 C 0.19652 0.70968 0.38824 0.0
C541 C 0.19892 0.71078 0.41405 0.0
C542 C 0.18125 0.69511 0.40303 0.0
C543 C 0.17713 0.69514 0.3766 0.0
O544 O 0.16968 0.68059 0.33582 0.0
O545 O 0.15598 0.66754 0.34952 0.0
O546 O 0.16939 0.6835 0.37774 0.0
O547 O 0.18349 0.69632 0.36423 0.0
H548 H 0.14351 0.69479 0.35263 0.0
H549 H 0.1225 0.70814 0.34525 0.0
H550 H 0.12198 0.68603 0.30517 0.0
H551 H 0.14303 0.67293 0.31255 0.0
H552 H 0.1966 0.62621 0.31838 0.0
H553 H 0.18978 0.6479 0.33081 0.0
H554 H 0.21764 0.6115 0.35649 0.0
H555 H 0.21069 0.63301 0.36878 0.0
H556 H 0.18445 0.69684 0.42549 0.0
H557 H 0.21151 0.7231 0.39911 0.0
H558 H 0.19982 0.71363 0.37795 0.0
H559 H 0.1726 0.68755 0.40436 0.0
C560 C 0.83193 0.64592 0.35648 0.0
C561 C 0.83603 0.63243 0.36123 0.0
C562 C 0.82278 0.62113 0.34194 0.0
C563 C 0.83157 0.62021 0.35403 0.0
C564 C 0.81864 0.63462 0.33719 0.0
C565 C 0.82313 0.64685 0.34438 0.0
U566 U 0.85613 0.67846 0.36399 0.0
O567 O 0.85068 0.69992 0.37094 0.0
O568 O 0.8642 0.68663 0.38439 0.0
C569 C 0.85705 0.69846 0.38333 0.0
C570 C 0.8361 0.65878 0.36466 0.0
C571 C 0.8491 0.70292 0.39612 0.0
C572 C 0.83071 0.71711 0.40708 0.0
C573 C 0.8373 0.71186 0.39493 0.0
C574 C 0.84745 0.70453 0.4219 0.0
C575 C 0.8358 0.71366 0.42072 0.0
C576 C 0.85403 0.69928 0.40976 0.0
C577 C 0.88837 0.68552 0.33964 0.0
C578 C 0.90327 0.70681 0.33928 0.0
C579 C 0.91061 0.68587 0.32668 0.0
C580 C 0.89829 0.67875 0.33109 0.0
C581 C 0.9133 0.69998 0.33074 0.0
C582 C 0.89092 0.69961 0.34375 0.0
C583 C 0.87552 0.67759 0.34404 0.0
O584 O 0.84794 0.65806 0.3721 0.0
O585 O 0.83454 0.67109 0.35829 0.0
O586 O 0.86335 0.68411 0.34248 0.0
O587 O 0.87652 0.6706 0.35608 0.0
H588 H 0.84257 0.63128 0.37066 0.0
H589 H 0.83478 0.61 0.35813 0.0
H590 H 0.81199 0.63574 0.32784 0.0
H591 H 0.8196 0.65703 0.3405 0.0
H592 H 0.82191 0.72427 0.40575 0.0
H593 H 0.83333 0.71509 0.38461 0.0
H594 H 0.85155 0.7015 0.43222 0.0
H595 H 0.86319 0.69257 0.41109 0.0
H596 H 0.90506 0.71763 0.34267 0.0
H597 H 0.91795 0.68036 0.31991 0.0
H598 H 0.89649 0.6679 0.32776 0.0
H599 H 0.88339 0.70502 0.35041 0.0
C600 C 0.84901 0.38677 0.33404 0.0
C601 C 0.83965 0.3933 0.34345 0.0
C602 C 0.83415 0.41132 0.32559 0.0
C603 C 0.83231 0.40548 0.33927 0.0
C604 C 0.84345 0.4046 0.31619 0.0
C605 C 0.8508 0.39247 0.32039 0.0
U606 U 0.85674 0.35477 0.35839 0.0
O607 O 0.86355 0.33334 0.35265 0.0
O608 O 0.87729 0.34676 0.36603 0.0
C609 C 0.8758 0.33465 0.35934 0.0
C610 C 0.85722 0.37419 0.33826 0.0
C611 C 0.88841 0.32946 0.35187 0.0
C612 C 0.90566 0.3305 0.3327 0.0
C613 C 0.89352 0.3358 0.33936 0.0
C614 C 0.90757 0.31251 0.351 0.0
C615 C 0.91289 0.31882 0.33852 0.0
C616 C 0.8955 0.31778 0.35758 0.0
C617 C 0.83336 0.3462 0.39091 0.0
C618 C 0.83607 0.34054 0.41611 0.0
C619 C 0.81814 0.32831 0.40213 0.0
C620 C 0.82226 0.33611 0.39012 0.0
C621 C 0.82494 0.33045 0.41532 0.0
C622 C 0.8402 0.34833 0.40409 0.0
C623 C 0.83719 0.35489 0.37823 0.0
O624 O 0.86454 0.37526 0.35015 0.0
O625 O 0.85065 0.3619 0.3369 0.0
O626 O 0.83527 0.3489 0.36577 0.0
O627 O 0.84904 0.3624 0.37898 0.0
H628 H 0.83807 0.38902 0.35402 0.0
H629 H 0.8251 0.41025 0.34673 0.0
H630 H 0.84528 0.40887 0.30566 0.0
H631 H 0.858 0.38761 0.31298 0.0
H632 H 0.90951 0.33566 0.32315 0.0
H633 H 0.88818 0.34485 0.33479 0.0
H634 H 0.91263 0.30334 0.35563 0.0
H635 H 0.89166 0.31269 0.36719 0.0
H636 H 0.84141 0.34266 0.4261 0.0
H637 H 0.80966 0.32052 0.40104 0.0
H638 H 0.81665 0.33429 0.3802 0.0
H639 H 0.84865 0.35615 0.40519 0.0
C640 C 0.68482 0.14385 0.70625 0.0
C641 C 0.6959 0.14515 0.71628 0.0
C642 C 0.69842 0.11948 0.71729 0.0
C643 C 0.70265 0.13313 0.72168 0.0
C644 C 0.68756 0.11821 0.70702 0.0
C645 C 0.68082 0.13023 0.70161 0.0
U646 U 0.67603 0.17608 0.68197 0.0
O647 O 0.65509 0.1836 0.67493 0.0
O648 O 0.66875 0.19724 0.68813 0.0
C649 C 0.6561 0.19533 0.68237 0.0
C650 C 0.67648 0.15643 0.70186 0.0
C651 C 0.64367 0.19905 0.69125 0.0
C652 C 0.61858 0.19634 0.69729 0.0
C653 C 0.63045 0.19209 0.68955 0.0
C654 C 0.63284 0.21457 0.70864 0.0
C655 C 0.61958 0.20771 0.70686 0.0
C656 C 0.64469 0.21034 0.70089 0.0
C657 C 0.69957 0.1844 0.64894 0.0
C658 C 0.7135 0.20326 0.63763 0.0
C659 C 0.70162 0.1856 0.62314 0.0
C660 C 0.69628 0.17903 0.63539 0.0
C661 C 0.7105 0.19767 0.62409 0.0
C662 C 0.70815 0.19669 0.6499 0.0
C663 C 0.69536 0.17627 0.66187 0.0
O664 O 0.68268 0.16892 0.70325 0.0
O665 O 0.66887 0.15533 0.69015 0.0
O666 O 0.68347 0.16881 0.66113 0.0
O667 O 0.69721 0.18249 0.67422 0.0
H668 H 0.6991 0.15544 0.72029 0.0
H669 H 0.71083 0.13452 0.72971 0.0
H670 H 0.68413 0.10789 0.70326 0.0
H671 H 0.67222 0.12878 0.69403 0.0
H672 H 0.60852 0.19092 0.69547 0.0
H673 H 0.62917 0.18348 0.68208 0.0
H674 H 0.63409 0.22324 0.71604 0.0
H675 H 0.65465 0.21605 0.70236 0.0
H676 H 0.72044 0.21242 0.63881 0.0
H677 H 0.69891 0.1811 0.61291 0.0
H678 H 0.68985 0.1695 0.63425 0.0
H679 H 0.7111 0.20102 0.66014 0.0
C680 C 0.34935 0.19823 0.64689 0.0
C681 C 0.35416 0.19482 0.63324 0.0
C682 C 0.33584 0.2094 0.62239 0.0
C683 C 0.34746 0.20029 0.62114 0.0
C684 C 0.33083 0.21256 0.63605 0.0
C685 C 0.33753 0.20708 0.64814 0.0
U686 U 0.35767 0.17413 0.67942 0.0
O687 O 0.34995 0.15323 0.67231 0.0
O688 O 0.33634 0.16646 0.68547 0.0
C689 C 0.3382 0.15393 0.67977 0.0
C690 C 0.3576 0.19386 0.65964 0.0
C691 C 0.33453 0.14149 0.68881 0.0
C692 C 0.31909 0.13039 0.70645 0.0
C693 C 0.32311 0.14219 0.69833 0.0
C694 C 0.33776 0.11681 0.69571 0.0
C695 C 0.32629 0.1175 0.70518 0.0
C696 C 0.34182 0.12864 0.6876 0.0
C697 C 0.38967 0.18436 0.70293 0.0
C698 C 0.40029 0.20219 0.71844 0.0
C699 C 0.41413 0.1924 0.69937 0.0
C700 C 0.40253 0.18384 0.6954 0.0
C701 C 0.41318 0.20165 0.71098 0.0
C702 C 0.38873 0.19361 0.71451 0.0
C703 C 0.37741 0.17501 0.69923 0.0
O704 O 0.36493 0.18215 0.65867 0.0
O705 O 0.35145 0.19529 0.67205 0.0
O706 O 0.37848 0.16744 0.6876 0.0
O707 O 0.36475 0.1805 0.7008 0.0
H708 H 0.36335 0.18819 0.63188 0.0
H709 H 0.35149 0.1975 0.61079 0.0
H710 H 0.32205 0.2197 0.63743 0.0
H711 H 0.33367 0.21015 0.65848 0.0
H712 H 0.31034 0.1314 0.71378 0.0
H713 H 0.31719 0.15188 0.69943 0.0
H714 H 0.34343 0.10701 0.69429 0.0
H715 H 0.35055 0.12763 0.68025 0.0
H716 H 0.39909 0.20933 0.72731 0.0
H717 H 0.42394 0.19154 0.6935 0.0
H718 H 0.40371 0.17673 0.68651 0.0
H719 H 0.37902 0.19418 0.7206 0.0
C720 C 0.33015 0.84957 0.64772 0.0
C721 C 0.3362 0.83689 0.64313 0.0
C722 C 0.32035 0.8365 0.62245 0.0
C723 C 0.33131 0.83039 0.6306 0.0
C724 C 0.31435 0.84917 0.62723 0.0
C725 C 0.31921 0.85561 0.6397 0.0
U726 U 0.35495 0.85565 0.68036 0.0
O727 O 0.3624 0.87604 0.68907 0.0
O728 O 0.34886 0.86202 0.70194 0.0
C729 C 0.35507 0.87452 0.70082 0.0
C730 C 0.33491 0.8568 0.66079 0.0
C731 C 0.34634 0.88672 0.70483 0.0
C732 C 0.32717 0.90315 0.70004 0.0
C733 C 0.33524 0.89144 0.69607 0.0
C734 C 0.34119 0.90547 0.72157 0.0
C735 C 0.33004 0.91032 0.71286 0.0
C736 C 0.34924 0.8938 0.71758 0.0
C737 C 0.38759 0.83168 0.68752 0.0
C738 C 0.39876 0.8166 0.70541 0.0
C739 C 0.41343 0.83041 0.68938 0.0
C740 C 0.40121 0.83585 0.68291 0.0
C741 C 0.41238 0.82054 0.70058 0.0
C742 C 0.38653 0.82204 0.69893 0.0
C743 C 0.37472 0.83623 0.6795 0.0
O744 O 0.33355 0.84964 0.67272 0.0
O745 O 0.34695 0.86396 0.65998 0.0
O746 O 0.37562 0.84835 0.67261 0.0
O747 O 0.36232 0.8342 0.6856 0.0
H748 H 0.34469 0.83207 0.64919 0.0
H749 H 0.33623 0.82069 0.62719 0.0
H750 H 0.30572 0.85406 0.62143 0.0
H751 H 0.31436 0.86536 0.64312 0.0
H752 H 0.31857 0.90646 0.69315 0.0
H753 H 0.33281 0.88608 0.68619 0.0
H754 H 0.34384 0.91081 0.7314 0.0
H755 H 0.3578 0.89034 0.72446 0.0
H756 H 0.39751 0.80889 0.71387 0.0
H757 H 0.42372 0.83385 0.68548 0.0
H758 H 0.40246 0.84311 0.67405 0.0
H759 H 0.37623 0.81839 0.70264 0.0
C760 C 0.64585 0.83344 0.68933 0.0
C761 C 0.63282 0.84041 0.68761 0.0
C762 C 0.62154 0.82471 0.70499 0.0
C763 C 0.62084 0.83611 0.69535 0.0
C764 C 0.63459 0.81777 0.70671 0.0
C765 C 0.64655 0.82204 0.69894 0.0
U766 U 0.67784 0.85791 0.68126 0.0
O767 O 0.69956 0.85287 0.67453 0.0
O768 O 0.68602 0.86598 0.66089 0.0
C769 C 0.69823 0.85951 0.66231 0.0
C770 C 0.65853 0.83755 0.68081 0.0
C771 C 0.70333 0.85204 0.64968 0.0
C772 C 0.70214 0.83266 0.63274 0.0
C773 C 0.69704 0.83933 0.64496 0.0
C774 C 0.71983 0.85132 0.62997 0.0
C775 C 0.71356 0.83864 0.62504 0.0
C776 C 0.71476 0.85793 0.64213 0.0
C777 C 0.68435 0.89026 0.70527 0.0
C778 C 0.70526 0.90569 0.70445 0.0
C779 C 0.68504 0.91213 0.71873 0.0
C780 C 0.67791 0.89975 0.71453 0.0
C781 C 0.69879 0.91529 0.71372 0.0
C782 C 0.69807 0.89329 0.70021 0.0
C783 C 0.67648 0.87734 0.70107 0.0
O784 O 0.6576 0.84917 0.67312 0.0
O785 O 0.67096 0.83628 0.68712 0.0
O786 O 0.6832 0.86533 0.70277 0.0
O787 O 0.66948 0.8781 0.68899 0.0
H788 H 0.63179 0.84912 0.68017 0.0
H789 H 0.61094 0.84157 0.69356 0.0
H790 H 0.63561 0.80907 0.71416 0.0
H791 H 0.65637 0.81635 0.70043 0.0
H792 H 0.69701 0.82296 0.6292 0.0
H793 H 0.68818 0.83464 0.65066 0.0
H794 H 0.7288 0.85609 0.6245 0.0
H795 H 0.71979 0.86769 0.64566 0.0
H796 H 0.71579 0.90785 0.70032 0.0
H797 H 0.67983 0.91913 0.72606 0.0
H798 H 0.66735 0.89757 0.71858 0.0
H799 H 0.70319 0.88609 0.69298 0.0
C800 C 0.64424 0.83156 0.35495 0.0
C801 C 0.63837 0.84033 0.34445 0.0
C802 C 0.62029 0.82233 0.33917 0.0
C803 C 0.62647 0.83577 0.33664 0.0
C804 C 0.6263 0.81359 0.34968 0.0
C805 C 0.63815 0.81818 0.35749 0.0
U806 U 0.67566 0.85677 0.36259 0.0
O807 O 0.68368 0.86479 0.38306 0.0
O808 O 0.69731 0.85171 0.36978 0.0
C809 C 0.69554 0.85762 0.38226 0.0
C810 C 0.65667 0.83613 0.36336 0.0
C811 C 0.69943 0.84888 0.39481 0.0
C812 C 0.69554 0.84119 0.41925 0.0
C813 C 0.69154 0.84931 0.40745 0.0
C814 C 0.71538 0.83206 0.40607 0.0
C815 C 0.70753 0.83247 0.41873 0.0
C816 C 0.71142 0.84022 0.3943 0.0
C817 C 0.68266 0.88895 0.33774 0.0
C818 C 0.7015 0.90017 0.32381 0.0
C819 C 0.68392 0.91464 0.33521 0.0
C820 C 0.67731 0.90244 0.34067 0.0
C821 C 0.696 0.91366 0.32655 0.0
C822 C 0.6949 0.88797 0.3293 0.0
C823 C 0.67472 0.87605 0.34239 0.0
O824 O 0.66901 0.83505 0.35704 0.0
O825 O 0.65532 0.84807 0.37032 0.0
O826 O 0.66754 0.87696 0.35429 0.0
O827 O 0.68113 0.86384 0.341 0.0
H828 H 0.64301 0.85068 0.34229 0.0
H829 H 0.62222 0.84268 0.3285 0.0
H830 H 0.62172 0.80327 0.35201 0.0
H831 H 0.64254 0.81128 0.36558 0.0
H832 H 0.68937 0.84195 0.42888 0.0
H833 H 0.68231 0.85597 0.4083 0.0
H834 H 0.72456 0.82533 0.40518 0.0
H835 H 0.71778 0.83973 0.38476 0.0
H836 H 0.71065 0.89898 0.31702 0.0
H837 H 0.67949 0.92485 0.33768 0.0
H838 H 0.66781 0.90358 0.34699 0.0
H839 H 0.69921 0.87776 0.32662 0.0
C840 C 0.64457 0.18371 0.33461 0.0
C841 C 0.63857 0.19384 0.34355 0.0
C842 C 0.62039 0.19894 0.32567 0.0
C843 C 0.62657 0.20136 0.33913 0.0
C844 C 0.62658 0.18886 0.31674 0.0
C845 C 0.63852 0.18133 0.32118 0.0
U846 U 0.67622 0.17616 0.35948 0.0
O847 O 0.68382 0.15576 0.36777 0.0
O848 O 0.69769 0.16887 0.3543 0.0
C849 C 0.69585 0.1566 0.36075 0.0
C850 C 0.65697 0.17539 0.3391 0.0
C851 C 0.70028 0.1437 0.353 0.0
C852 C 0.71477 0.13244 0.33496 0.0
C853 C 0.70947 0.14467 0.34128 0.0
C854 C 0.7017 0.11796 0.35177 0.0
C855 C 0.71111 0.11891 0.34023 0.0
C856 C 0.69641 0.13018 0.35809 0.0
C857 C 0.68382 0.20096 0.39116 0.0
C858 C 0.70131 0.19663 0.40976 0.0
C859 C 0.68867 0.21879 0.40916 0.0
C860 C 0.68128 0.21429 0.39703 0.0
C861 C 0.69877 0.21002 0.41573 0.0
C862 C 0.69392 0.19216 0.39757 0.0
C863 C 0.67568 0.19648 0.37849 0.0
O864 O 0.66943 0.18168 0.33773 0.0
O865 O 0.65565 0.16845 0.35117 0.0
O866 O 0.6684 0.18457 0.37969 0.0
O867 O 0.68232 0.1977 0.36629 0.0
H868 H 0.64314 0.19588 0.35394 0.0
H869 H 0.62222 0.20918 0.34621 0.0
H870 H 0.62202 0.18659 0.3064 0.0
H871 H 0.64299 0.17353 0.31414 0.0
H872 H 0.72214 0.13362 0.32623 0.0
H873 H 0.71289 0.15489 0.33719 0.0
H874 H 0.69849 0.10774 0.35601 0.0
H875 H 0.6895 0.12902 0.36719 0.0
H876 H 0.70913 0.18968 0.41442 0.0
H877 H 0.68629 0.22906 0.41354 0.0
H878 H 0.6735 0.22123 0.39225 0.0
H879 H 0.69606 0.18184 0.39315 0.0
C880 C 0.33228 0.14556 0.35305 0.0
C881 C 0.34025 0.14212 0.34103 0.0
C882 C 0.3247 0.12171 0.33649 0.0
C883 C 0.3365 0.13028 0.33282 0.0
C884 C 0.31686 0.1252 0.34864 0.0
C885 C 0.32062 0.137 0.35681 0.0
U886 U 0.35577 0.17781 0.36242 0.0
O887 O 0.34958 0.199 0.36958 0.0
O888 O 0.36258 0.18558 0.38341 0.0
C889 C 0.35511 0.19721 0.38232 0.0
C890 C 0.33588 0.158 0.36179 0.0
C891 C 0.34592 0.20077 0.39458 0.0
C892 C 0.33984 0.1984 0.41965 0.0
C893 C 0.34806 0.19448 0.40799 0.0
C894 C 0.32719 0.21504 0.40481 0.0
C895 C 0.32933 0.20878 0.41824 0.0
C896 C 0.33541 0.21113 0.39316 0.0
C897 C 0.38894 0.18572 0.33933 0.0
C898 C 0.40354 0.20721 0.33905 0.0
C899 C 0.41156 0.18619 0.32703 0.0
C900 C 0.39923 0.17895 0.33121 0.0
C901 C 0.41392 0.2004 0.3309 0.0
C902 C 0.39117 0.1999 0.34328 0.0
C903 C 0.37601 0.17769 0.34328 0.0
O904 O 0.34753 0.15704 0.36947 0.0
O905 O 0.33458 0.17037 0.35551 0.0
O906 O 0.36383 0.18412 0.3414 0.0
O907 O 0.37666 0.1705 0.35524 0.0
H908 H 0.3493 0.14863 0.33797 0.0
H909 H 0.34268 0.128 0.32346 0.0
H910 H 0.30786 0.11873 0.35192 0.0
H911 H 0.31439 0.13946 0.3661 0.0
H912 H 0.34196 0.19352 0.42985 0.0
H913 H 0.35621 0.18664 0.40956 0.0
H914 H 0.31909 0.22295 0.40327 0.0
H915 H 0.33357 0.21632 0.38305 0.0
H916 H 0.40507 0.21811 0.34228 0.0
H917 H 0.41915 0.18068 0.32055 0.0
H918 H 0.39767 0.16803 0.32799 0.0
H919 H 0.38335 0.20531 0.34959 0.0
C920 C 0.34821 0.88965 0.3341 0.0
C921 C 0.337 0.8939 0.3428 0.0
C922 C 0.33179 0.91344 0.32655 0.0
C923 C 0.32887 0.90572 0.33906 0.0
C924 C 0.34309 0.90909 0.31794 0.0
C925 C 0.3512 0.89733 0.32169 0.0
U926 U 0.35795 0.85748 0.3574 0.0
O927 O 0.36536 0.83647 0.3509 0.0
O928 O 0.37911 0.85014 0.36397 0.0
C929 C 0.37809 0.83846 0.35645 0.0
C930 C 0.35699 0.87732 0.33772 0.0
C931 C 0.39041 0.8349 0.34735 0.0
C932 C 0.4155 0.83755 0.34124 0.0
C933 C 0.40371 0.84169 0.34916 0.0
C934 C 0.40101 0.81976 0.32947 0.0
C935 C 0.41435 0.82645 0.33136 0.0
C936 C 0.38924 0.82388 0.3374 0.0
C937 C 0.33509 0.84896 0.39063 0.0
C938 C 0.3347 0.82735 0.40487 0.0
C939 C 0.32302 0.84833 0.41338 0.0
C940 C 0.32716 0.85566 0.40113 0.0
C941 C 0.32674 0.83408 0.41546 0.0
C942 C 0.33888 0.83474 0.39257 0.0
C943 C 0.33892 0.85709 0.37775 0.0
O944 O 0.36468 0.87843 0.34936 0.0
O945 O 0.35078 0.86485 0.33635 0.0
O946 O 0.33706 0.85066 0.36551 0.0
O947 O 0.3508 0.86453 0.37842 0.0
H948 H 0.33452 0.88808 0.35243 0.0
H949 H 0.32016 0.90866 0.34586 0.0
H950 H 0.34581 0.91488 0.30836 0.0
H951 H 0.35985 0.89425 0.31487 0.0
H952 H 0.42562 0.84282 0.34315 0.0
H953 H 0.4051 0.85007 0.35688 0.0
H954 H 0.39964 0.8113 0.32184 0.0
H955 H 0.37922 0.8183 0.33584 0.0
H956 H 0.33782 0.81642 0.40616 0.0
H957 H 0.31669 0.8538 0.42113 0.0
H958 H 0.32405 0.86659 0.3998 0.0
H959 H 0.34503 0.82937 0.38459 0.0
C960 C 0.68769 0.6452 0.20556 0.0
C961 C 0.68596 0.63213 0.19859 0.0
C962 C 0.70365 0.62127 0.21413 0.0
C963 C 0.69385 0.62034 0.20281 0.0
C964 C 0.70538 0.63436 0.22106 0.0
C965 C 0.69746 0.64613 0.21688 0.0
U966 U 0.67861 0.67691 0.18137 0.0
O967 O 0.6579 0.68476 0.17404 0.0
O968 O 0.67185 0.69845 0.1869 0.0
C969 C 0.65934 0.69686 0.18078 0.0
C970 C 0.67893 0.65766 0.20164 0.0
C971 C 0.64697 0.70139 0.18912 0.0
C972 C 0.62837 0.69689 0.20649 0.0
C973 C 0.6404 0.69241 0.1991 0.0
C974 C 0.62949 0.71942 0.19416 0.0
C975 C 0.62272 0.71045 0.20408 0.0
C976 C 0.64147 0.71492 0.18677 0.0
C977 C 0.70289 0.68297 0.14853 0.0
C978 C 0.70151 0.70205 0.13112 0.0
C979 C 0.71898 0.68368 0.12844 0.0
C980 C 0.7141 0.67716 0.14087 0.0
C981 C 0.71274 0.69618 0.12334 0.0
C982 C 0.6966 0.69547 0.14361 0.0
C983 C 0.69816 0.67567 0.16157 0.0
O984 O 0.68512 0.67017 0.20286 0.0
O985 O 0.671 0.65655 0.19014 0.0
O986 O 0.68594 0.66882 0.16082 0.0
O987 O 0.69994 0.68261 0.17353 0.0
H988 H 0.6784 0.63092 0.18996 0.0
H989 H 0.69204 0.61041 0.19735 0.0
H990 H 0.71294 0.63557 0.2297 0.0
H991 H 0.69896 0.65599 0.22257 0.0
H992 H 0.62357 0.68976 0.21418 0.0
H993 H 0.64452 0.68193 0.20111 0.0
H994 H 0.62537 0.72984 0.19188 0.0
H995 H 0.64636 0.722 0.17908 0.0
H996 H 0.69641 0.71161 0.12746 0.0
H997 H 0.72781 0.67899 0.12294 0.0
H998 H 0.71914 0.66756 0.14454 0.0
H999 H 0.68792 0.70011 0.1494 0.0
C1000 C 0.33203 0.68112 0.14905 0.0
C1001 C 0.33403 0.67562 0.13537 0.0
C1002 C 0.32227 0.69593 0.12473 0.0
C1003 C 0.32928 0.68296 0.12336 0.0
C1004 C 0.32024 0.70144 0.13841 0.0
C1005 C 0.32506 0.69412 0.15043 0.0
U1006 U 0.35692 0.67355 0.18084 0.0
O1007 O 0.35183 0.66649 0.20253 0.0
O1008 O 0.3649 0.65321 0.18888 0.0
C1009 C 0.35802 0.6542 0.20095 0.0
C1010 C 0.33651 0.67281 0.16169 0.0
C1011 C 0.34997 0.64144 0.20573 0.0
C1012 C 0.33172 0.6305 0.22059 0.0
C1013 C 0.33841 0.64261 0.21505 0.0
C1014 C 0.34786 0.61575 0.20755 0.0
C1015 C 0.33645 0.61692 0.21703 0.0
C1016 C 0.35456 0.62785 0.20201 0.0
C1017 C 0.38918 0.69763 0.18878 0.0
C1018 C 0.41415 0.69476 0.19513 0.0
C1019 C 0.40048 0.71315 0.20622 0.0
C1020 C 0.38852 0.709 0.19832 0.0
C1021 C 0.41348 0.70613 0.20469 0.0
C1022 C 0.40216 0.69058 0.18725 0.0
C1023 C 0.37649 0.69363 0.18018 0.0
O1024 O 0.34838 0.66572 0.16048 0.0
O1025 O 0.3352 0.67886 0.17416 0.0
O1026 O 0.3641 0.69512 0.18636 0.0
O1027 O 0.37726 0.68192 0.17273 0.0
H1028 H 0.33914 0.66552 0.13396 0.0
H1029 H 0.33083 0.67832 0.113 0.0
H1030 H 0.31501 0.71147 0.13983 0.0
H1031 H 0.32321 0.69864 0.16079 0.0
H1032 H 0.32311 0.63181 0.22803 0.0
H1033 H 0.33473 0.65289 0.21835 0.0
H1034 H 0.35168 0.60545 0.20446 0.0
H1035 H 0.36354 0.62656 0.19501 0.0
H1036 H 0.42402 0.68925 0.19351 0.0
H1037 H 0.3995 0.72182 0.21361 0.0
H1038 H 0.37874 0.71474 0.19966 0.0
H1039 H 0.40313 0.68189 0.17988 0.0
C1040 C 0.33105 0.34537 0.14719 0.0
C1041 C 0.33476 0.35034 0.13359 0.0
C1042 C 0.32218 0.3305 0.12248 0.0
C1043 C 0.33044 0.34298 0.12141 0.0
C1044 C 0.31853 0.32547 0.13609 0.0
C1045 C 0.32288 0.33282 0.14829 0.0
U1046 U 0.35382 0.35483 0.18044 0.0
O1047 O 0.3607 0.37579 0.18813 0.0
O1048 O 0.34684 0.36241 0.20136 0.0
C1049 C 0.35283 0.37496 0.19961 0.0
C1050 C 0.33468 0.35394 0.15996 0.0
C1051 C 0.34407 0.38749 0.20304 0.0
C1052 C 0.32664 0.39881 0.21821 0.0
C1053 C 0.33393 0.38672 0.21394 0.0
C1054 C 0.33935 0.41274 0.20067 0.0
C1055 C 0.32943 0.41203 0.21178 0.0
C1056 C 0.34659 0.40065 0.19637 0.0
C1057 C 0.38684 0.33187 0.18969 0.0
C1058 C 0.3981 0.31707 0.20774 0.0
C1059 C 0.41268 0.33133 0.19201 0.0
C1060 C 0.40043 0.33646 0.18535 0.0
C1061 C 0.4117 0.32137 0.20313 0.0
C1062 C 0.38584 0.3222 0.20107 0.0
C1063 C 0.37402 0.33582 0.18129 0.0
O1064 O 0.33282 0.34791 0.17245 0.0
O1065 O 0.34637 0.3617 0.15933 0.0
O1066 O 0.37485 0.34755 0.17375 0.0
O1067 O 0.36154 0.33394 0.18729 0.0
H1068 H 0.34079 0.36011 0.13233 0.0
H1069 H 0.33327 0.34729 0.11112 0.0
H1070 H 0.31231 0.31582 0.13733 0.0
H1071 H 0.31966 0.32874 0.15856 0.0
H1072 H 0.31922 0.39789 0.22692 0.0
H1073 H 0.33188 0.37682 0.21946 0.0
H1074 H 0.34164 0.4227 0.19537 0.0
H1075 H 0.3544 0.40172 0.18802 0.0
H1076 H 0.39692 0.30928 0.21615 0.0
H1077 H 0.42295 0.33503 0.18829 0.0
H1078 H 0.40165 0.34376 0.17652 0.0
H1079 H 0.37558 0.31822 0.20455 0.0
C1080 C 0.64537 0.33338 0.18972 0.0
C1081 C 0.63239 0.34043 0.18796 0.0
C1082 C 0.621 0.32486 0.20539 0.0
C1083 C 0.62038 0.33623 0.1957 0.0
C1084 C 0.63397 0.31779 0.20709 0.0
C1085 C 0.64597 0.32195 0.19931 0.0
U1086 U 0.67735 0.35801 0.18265 0.0
O1087 O 0.69928 0.35323 0.17642 0.0
O1088 O 0.68603 0.36649 0.16265 0.0
C1089 C 0.69821 0.36002 0.16425 0.0
C1090 C 0.65817 0.33756 0.1814 0.0
C1091 C 0.70361 0.35267 0.15165 0.0
C1092 C 0.70213 0.33408 0.13385 0.0
C1093 C 0.69677 0.34062 0.14603 0.0
C1094 C 0.7212 0.35154 0.13291 0.0
C1095 C 0.71437 0.33954 0.12707 0.0
C1096 C 0.71586 0.35802 0.14504 0.0
C1097 C 0.68239 0.38969 0.20823 0.0
C1098 C 0.70163 0.40715 0.20748 0.0
C1099 C 0.68292 0.40926 0.22487 0.0
C1100 C 0.67641 0.39698 0.21959 0.0
C1101 C 0.69559 0.41456 0.21887 0.0
C1102 C 0.69506 0.39482 0.20218 0.0
C1103 C 0.67512 0.37683 0.20299 0.0
O1104 O 0.65736 0.3493 0.17388 0.0
O1105 O 0.6705 0.33621 0.18789 0.0
O1106 O 0.68204 0.36492 0.20449 0.0
O1107 O 0.66867 0.37796 0.19063 0.0
H1108 H 0.63145 0.34916 0.18054 0.0
H1109 H 0.61053 0.34179 0.19392 0.0
H1110 H 0.63494 0.3091 0.21456 0.0
H1111 H 0.65575 0.31621 0.20083 0.0
H1112 H 0.69656 0.32492 0.1296 0.0
H1113 H 0.68728 0.33635 0.15099 0.0
H1114 H 0.73078 0.35588 0.12819 0.0
H1115 H 0.72133 0.36727 0.14926 0.0
H1116 H 0.71132 0.41099 0.20255 0.0
H1117 H 0.67811 0.4145 0.2338 0.0
H1118 H 0.66667 0.39313 0.22444 0.0
H1119 H 0.69982 0.38932 0.19337 0.0
C1120 C 0.64143 0.33406 0.85535 0.0
C1121 C 0.63767 0.34257 0.8437 0.0
C1122 C 0.618 0.32646 0.83803 0.0
C1123 C 0.62604 0.33881 0.83512 0.0
C1124 C 0.62179 0.31807 0.84981 0.0
C1125 C 0.6334 0.32184 0.85838 0.0
U1126 U 0.67344 0.35769 0.864 0.0
O1127 O 0.68169 0.36521 0.88458 0.0
O1128 O 0.69497 0.35202 0.87106 0.0
C1129 C 0.69341 0.35785 0.88361 0.0
C1130 C 0.65379 0.33769 0.86429 0.0
C1131 C 0.69733 0.34902 0.89609 0.0
C1132 C 0.69501 0.34294 0.92118 0.0
C1133 C 0.69084 0.35095 0.90936 0.0
C1134 C 0.71228 0.33095 0.90679 0.0
C1135 C 0.70581 0.33287 0.92007 0.0
C1136 C 0.70814 0.33897 0.89499 0.0
C1137 C 0.68102 0.38991 0.83928 0.0
C1138 C 0.69934 0.40083 0.82448 0.0
C1139 C 0.68297 0.41559 0.83722 0.0
C1140 C 0.67631 0.40349 0.84284 0.0
C1141 C 0.69444 0.41441 0.82782 0.0
C1142 C 0.69268 0.38872 0.8301 0.0
C1143 C 0.6729 0.37715 0.84398 0.0
O1144 O 0.66621 0.33623 0.8582 0.0
O1145 O 0.65282 0.34949 0.87154 0.0
O1146 O 0.66584 0.37815 0.85594 0.0
O1147 O 0.67905 0.36483 0.84247 0.0
H1148 H 0.64381 0.35203 0.8412 0.0
H1149 H 0.62351 0.34542 0.82604 0.0
H1150 H 0.61573 0.3086 0.85246 0.0
H1151 H 0.63615 0.31518 0.86736 0.0
H1152 H 0.68995 0.34487 0.93128 0.0
H1153 H 0.68263 0.35874 0.91069 0.0
H1154 H 0.72052 0.32318 0.90548 0.0
H1155 H 0.71348 0.33732 0.88498 0.0
H1156 H 0.708 0.3995 0.81711 0.0
H1157 H 0.67903 0.42589 0.84016 0.0
H1158 H 0.66725 0.4048 0.84973 0.0
H1159 H 0.69646 0.37844 0.82692 0.0
C1160 C 0.6453 0.68293 0.83294 0.0
C1161 C 0.63896 0.69287 0.84185 0.0
C1162 C 0.62093 0.69776 0.82376 0.0
C1163 C 0.62688 0.70019 0.83732 0.0
C1164 C 0.62746 0.68787 0.81484 0.0
C1165 C 0.63949 0.68054 0.81941 0.0
U1166 U 0.67665 0.67595 0.85832 0.0
O1167 O 0.68444 0.65574 0.86691 0.0
O1168 O 0.69833 0.66898 0.85355 0.0
C1169 C 0.69675 0.65694 0.86047 0.0
C1170 C 0.65779 0.67481 0.83759 0.0
C1171 C 0.70187 0.64412 0.85334 0.0
C1172 C 0.70194 0.62753 0.83361 0.0
C1173 C 0.69672 0.63982 0.83999 0.0
C1174 C 0.71743 0.6238 0.85386 0.0
C1175 C 0.71233 0.61932 0.84052 0.0
C1176 C 0.71225 0.63604 0.86018 0.0
C1177 C 0.68318 0.70081 0.89051 0.0
C1178 C 0.68425 0.70267 0.91634 0.0
C1179 C 0.70152 0.71533 0.90202 0.0
C1180 C 0.69514 0.70989 0.88968 0.0
C1181 C 0.69606 0.71193 0.91552 0.0
C1182 C 0.67787 0.69723 0.904 0.0
C1183 C 0.67547 0.69612 0.87746 0.0
O1184 O 0.67016 0.68134 0.83644 0.0
O1185 O 0.65641 0.6678 0.84961 0.0
O1186 O 0.66814 0.6842 0.87834 0.0
O1187 O 0.68215 0.69758 0.86529 0.0
H1188 H 0.64333 0.69493 0.85233 0.0
H1189 H 0.62226 0.70786 0.84439 0.0
H1190 H 0.6231 0.68559 0.80442 0.0
H1191 H 0.64422 0.67289 0.81238 0.0
H1192 H 0.6977 0.62436 0.82338 0.0
H1193 H 0.68867 0.64593 0.83455 0.0
H1194 H 0.72561 0.61795 0.85939 0.0
H1195 H 0.71642 0.63922 0.87045 0.0
H1196 H 0.67985 0.69967 0.92653 0.0
H1197 H 0.71046 0.72259 0.90094 0.0
H1198 H 0.6994 0.71308 0.87948 0.0
H1199 H 0.66859 0.69041 0.90506 0.0
C1200 C 0.33098 0.64587 0.85515 0.0
C1201 C 0.32135 0.64657 0.84368 0.0
C1202 C 0.32056 0.62079 0.84196 0.0
C1203 C 0.31626 0.6342 0.83714 0.0
C1204 C 0.33036 0.6201 0.85327 0.0
C1205 C 0.33547 0.63247 0.8598 0.0
U1206 U 0.35514 0.67872 0.86253 0.0
O1207 O 0.34913 0.70016 0.86914 0.0
O1208 O 0.36258 0.68723 0.88301 0.0
C1209 C 0.35546 0.69903 0.88156 0.0
C1210 C 0.33526 0.65886 0.86306 0.0
C1211 C 0.34707 0.7033 0.89393 0.0
C1212 C 0.32901 0.69857 0.91177 0.0
C1213 C 0.33662 0.69433 0.8998 0.0
C1214 C 0.34211 0.72082 0.912 0.0
C1215 C 0.33168 0.71186 0.91804 0.0
C1216 C 0.34971 0.71656 0.90008 0.0
C1217 C 0.38784 0.68691 0.83904 0.0
C1218 C 0.39969 0.70298 0.8224 0.0
C1219 C 0.41307 0.69258 0.84172 0.0
C1220 C 0.4008 0.68546 0.84639 0.0
C1221 C 0.41271 0.7013 0.82958 0.0
C1222 C 0.38743 0.69581 0.82703 0.0
C1223 C 0.37505 0.67841 0.84307 0.0
O1224 O 0.34705 0.65827 0.8706 0.0
O1225 O 0.33375 0.67107 0.85647 0.0
O1226 O 0.36265 0.68438 0.84109 0.0
O1227 O 0.37577 0.67118 0.85502 0.0
H1228 H 0.31746 0.65667 0.83996 0.0
H1229 H 0.30856 0.63515 0.8286 0.0
H1230 H 0.33404 0.60998 0.85716 0.0
H1231 H 0.34273 0.63149 0.86871 0.0
H1232 H 0.32093 0.69148 0.91603 0.0
H1233 H 0.33439 0.68406 0.89515 0.0
H1234 H 0.34458 0.73103 0.91664 0.0
H1235 H 0.35777 0.72361 0.89572 0.0
H1236 H 0.39906 0.70945 0.8129 0.0
H1237 H 0.42289 0.69117 0.84758 0.0
H1238 H 0.40158 0.67864 0.85562 0.0
H1239 H 0.37767 0.697 0.82101 0.0
C1240 C 0.34981 0.38658 0.83384 0.0
C1241 C 0.34019 0.39305 0.84303 0.0
C1242 C 0.33512 0.41112 0.82511 0.0
C1243 C 0.33294 0.40522 0.83871 0.0
C1244 C 0.34466 0.40445 0.81592 0.0
C1245 C 0.35193 0.39232 0.82026 0.0
U1246 U 0.3567 0.35495 0.85871 0.0
O1247 O 0.36378 0.33342 0.85369 0.0
O1248 O 0.37693 0.34712 0.86736 0.0
C1249 C 0.37582 0.33495 0.86071 0.0
C1250 C 0.35794 0.37404 0.8383 0.0
C1251 C 0.38872 0.3301 0.85352 0.0
C1252 C 0.40592 0.33131 0.83431 0.0
C1253 C 0.39352 0.33624 0.84078 0.0
C1254 C 0.40874 0.31413 0.85325 0.0
C1255 C 0.41372 0.32023 0.84052 0.0
C1256 C 0.3964 0.31903 0.85966 0.0
C1257 C 0.33177 0.34804 0.89041 0.0
C1258 C 0.33209 0.32713 0.90565 0.0
C1259 C 0.31788 0.34727 0.91208 0.0
C1260 C 0.32237 0.35441 0.89983 0.0
C1261 C 0.3227 0.33356 0.9152 0.0
C1262 C 0.33663 0.33434 0.89338 0.0
C1263 C 0.33629 0.35594 0.87762 0.0
O1264 O 0.36494 0.37522 0.85037 0.0
O1265 O 0.3514 0.36174 0.83689 0.0
O1266 O 0.33501 0.34924 0.86547 0.0
O1267 O 0.34828 0.36314 0.87879 0.0
H1268 H 0.33835 0.38873 0.85354 0.0
H1269 H 0.32553 0.40995 0.846 0.0
H1270 H 0.34674 0.40876 0.80544 0.0
H1271 H 0.35934 0.3875 0.81303 0.0
H1272 H 0.40949 0.33631 0.82457 0.0
H1273 H 0.38773 0.34483 0.83589 0.0
H1274 H 0.41428 0.30541 0.8582 0.0
H1275 H 0.39283 0.31412 0.86945 0.0
H1276 H 0.33608 0.31663 0.90778 0.0
H1277 H 0.31046 0.35246 0.91903 0.0
H1278 H 0.31846 0.36495 0.8977 0.0
H1279 H 0.34394 0.32925 0.88625 0.0
H1280 H 0.26531 0.26585 0.96789 0.0
H1281 H 0.28447 0.2779 1.00735 0.0
H1282 H 0.24754 0.25004 1.00655 0.0
H1283 H 0.25301 0.24451 0.02784 0.0
H1284 H 0.26733 0.26219 0.06714 0.0
H1285 H 0.2784 0.28313 0.0284 0.0
C1286 C 0.26556 0.26531 0.97937 0.0
C1287 C 0.25578 0.25646 0.98642 0.0
C1288 C 0.27561 0.27345 0.98691 0.0
C1289 C 0.27602 0.27234 1.00184 0.0
C1290 C 0.26591 0.26406 1.00945 0.0
C1291 C 0.25576 0.25622 1.00139 0.0
C1292 C 0.26598 0.26367 0.02561 0.0
C1293 C 0.2587 0.25286 0.0333 0.0
C1294 C 0.25857 0.25268 0.04828 0.0
C1295 C 0.26657 0.26289 0.05567 0.0
C1296 C 0.27399 0.27368 0.04852 0.0
C1297 C 0.27331 0.27423 0.03359 0.0
H1298 H 0.76401 0.26763 0.07336 0.0
H1299 H 0.77516 0.24816 0.0341 0.0
H1300 H 0.75394 0.28845 0.03412 0.0
H1301 H 0.74656 0.28198 1.01309 0.0
H1302 H 0.76514 0.26816 0.97432 0.0
H1303 H 0.78378 0.25555 1.01391 0.0
C1304 C 0.76413 0.26784 0.06186 0.0
C1305 C 0.75778 0.27912 0.05458 0.0
C1306 C 0.77066 0.25681 0.05455 0.0
C1307 C 0.77054 0.25697 0.0396 0.0
C1308 C 0.76465 0.26837 0.03186 0.0
C1309 C 0.75841 0.27947 0.03962 0.0
C1310 C 0.76499 0.26857 0.01581 0.0
C1311 C 0.75484 0.27623 1.00783 0.0
C1312 C 0.75527 0.27661 0.9929 0.0
C1313 C 0.76541 0.26857 0.98582 0.0
C1314 C 0.77551 0.2607 0.99332 0.0
C1315 C 0.77545 0.26104 1.00827 0.0
H1316 H 0.76406 0.76829 0.96998 0.0
H1317 H 0.74543 0.75501 1.00926 0.0
H1318 H 0.78416 0.78034 1.00905 0.0
H1319 H 0.77727 0.78703 0.02999 0.0
H1320 H 0.76556 0.76699 0.06915 0.0
H1321 H 0.75285 0.7479 0.02987 0.0
C1322 C 0.76429 0.76806 0.98149 0.0
C1323 C 0.775 0.77558 0.98872 0.0
C1324 C 0.75383 0.76031 0.98881 0.0
C1325 C 0.75392 0.76051 1.00377 0.0
C1326 C 0.76482 0.76765 1.01151 0.0
C1327 C 0.77548 0.77497 1.00367 0.0
C1328 C 0.76505 0.76747 0.02762 0.0
C1329 C 0.7721 0.7783 0.03543 0.0
C1330 C 0.77264 0.77801 0.0504 0.0
C1331 C 0.7654 0.76712 0.05765 0.0
C1332 C 0.75796 0.75643 0.05034 0.0
C1333 C 0.75817 0.75648 0.03537 0.0
H1334 H 0.2687 0.7666 0.07235 0.0
H1335 H 0.2771 0.7458 0.03303 0.0
H1336 H 0.25464 0.78544 0.0335 0.0
H1337 H 0.24691 0.77896 1.01293 0.0
H1338 H 0.26551 0.76743 0.97336 0.0
H1339 H 0.28401 0.75245 1.01207 0.0
C1340 C 0.26756 0.76607 0.06091 0.0
C1341 C 0.26015 0.77676 0.05378 0.0
C1342 C 0.274 0.75508 0.05345 0.0
C1343 C 0.27278 0.75476 0.03855 0.0
C1344 C 0.26598 0.76572 0.03092 0.0
C1345 C 0.25979 0.77675 0.03883 0.0
C1346 C 0.26556 0.76578 0.01485 0.0
C1347 C 0.25526 0.77365 1.00732 0.0
C1348 C 0.25544 0.77472 0.99241 0.0
C1349 C 0.26542 0.76689 0.98484 0.0
C1350 C 0.27538 0.75842 0.99189 0.0
C1351 C 0.27564 0.75826 1.00684 0.0
H1352 H 0.06413 0.26532 0.26758 0.0
H1353 H 0.02464 0.24723 0.25347 0.0
H1354 H 0.02537 0.28384 0.28111 0.0
H1355 H 1.00441 0.27711 0.28715 0.0
H1356 H 0.96487 0.26598 0.26726 0.0
H1357 H 1.00374 0.25421 0.24748 0.0
C1358 C 0.05261 0.26538 0.26747 0.0
C1359 C 0.0455 0.27529 0.27573 0.0
C1360 C 0.04515 0.25555 0.2591 0.0
C1361 C 0.03018 0.25534 0.25946 0.0
C1362 C 0.02256 0.26553 0.26731 0.0
C1363 C 0.03057 0.27565 0.2752 0.0
C1364 C 1.00644 0.26564 0.26731 0.0
C1365 C 0.99883 0.27225 0.27836 0.0
C1366 C 0.98386 0.27279 0.27822 0.0
C1367 C 0.97638 0.26591 0.26728 0.0
C1368 C 0.98348 0.25892 0.25636 0.0
C1369 C 0.99845 0.25917 0.25625 0.0
H1370 H 0.76615 0.96708 0.27157 0.0
H1371 H 0.78668 1.00632 0.26061 0.0
H1372 H 0.74707 1.00599 0.28373 0.0
H1373 H 0.75421 0.02635 0.29163 0.0
H1374 H 0.76824 0.0659 0.27394 0.0
H1375 H 0.78043 0.02737 0.25398 0.0
C1376 C 0.76636 0.97855 0.27171 0.0
C1377 C 0.75562 0.98574 0.27882 0.0
C1378 C 0.77739 0.9859 0.26479 0.0
C1379 C 0.77782 1.00081 0.26547 0.0
C1380 C 0.76694 1.00848 0.27227 0.0
C1381 C 0.75574 1.00063 0.27869 0.0
C1382 C 0.76725 0.02452 0.27272 0.0
C1383 C 0.75994 0.032 0.28342 0.0
C1384 C 0.75986 0.04691 0.28365 0.0
C1385 C 0.76791 0.05443 0.2736 0.0
C1386 C 0.77563 0.04743 0.26314 0.0
C1387 C 0.77489 0.03255 0.26248 0.0
H1388 H 0.06564 0.7663 0.27106 0.0
H1389 H 0.0263 0.74732 0.28397 0.0
H1390 H 0.02675 0.78515 0.2577 0.0
H1391 H 1.00536 0.77915 0.25203 0.0
H1392 H 0.96646 0.7636 0.26978 0.0
H1393 H 1.00574 0.75426 0.29068 0.0
C1394 C 0.05412 0.76608 0.2708 0.0
C1395 C 0.04695 0.77633 0.26284 0.0
C1396 C 0.04673 0.75582 0.2787 0.0
C1397 C 0.03177 0.75584 0.27851 0.0
C1398 C 0.02408 0.76642 0.27109 0.0
C1399 C 0.03201 0.77677 0.26342 0.0
C1400 C 1.00794 0.76637 0.27113 0.0
C1401 C 1.00002 0.77338 0.26041 0.0
C1402 C 0.98503 0.77303 0.26031 0.0
C1403 C 0.9779 0.76482 0.27054 0.0
C1404 C 0.98532 0.75771 0.28131 0.0
C1405 C 1.00025 0.75902 0.28181 0.0
H1406 H 0.26511 0.06737 0.27164 0.0
H1407 H 0.24721 0.02805 0.25769 0.0
H1408 H 0.2858 0.02889 0.28304 0.0
H1409 H 0.281 1.0071 0.28796 0.0
H1410 H 0.26535 0.96858 0.26974 0.0
H1411 H 0.25403 1.00796 0.25055 0.0
C1412 C 0.26556 0.05593 0.27117 0.0
C1413 C 0.27629 0.04888 0.27863 0.0
C1414 C 0.25529 0.04847 0.2633 0.0
C1415 C 0.25566 0.03358 0.26322 0.0
C1416 C 0.26669 0.02603 0.27012 0.0
C1417 C 0.27711 0.03403 0.27767 0.0
C1418 C 0.26706 1.00997 0.26962 0.0
C1419 C 0.27486 1.00194 0.27971 0.0
C1420 C 0.2749 0.98702 0.27924 0.0
C1421 C 0.26622 0.98002 0.2693 0.0
C1422 C 0.25833 0.98753 0.25919 0.0
C1423 C 0.25933 1.00241 0.25907 0.0
H1424 H 0.06832 0.76703 0.76844 0.0
H1425 H 0.02931 0.75372 0.74887 0.0
H1426 H 0.02902 0.7774 0.78812 0.0
H1427 H 1.00821 0.78412 0.7817 0.0
H1428 H 0.96917 0.7668 0.76577 0.0
H1429 H 1.00823 0.74706 0.75478 0.0
C1430 C 0.05682 0.76627 0.76867 0.0
C1431 C 0.04941 0.77325 0.77936 0.0
C1432 C 0.04965 0.7588 0.75792 0.0
C1433 C 0.03466 0.75894 0.75759 0.0
C1434 C 0.02676 0.76572 0.76835 0.0
C1435 C 0.03447 0.7726 0.77934 0.0
C1436 C 1.01064 0.76575 0.76804 0.0
C1437 C 1.00282 0.77601 0.77558 0.0
C1438 C 0.98785 0.77594 0.77539 0.0
C1439 C 0.98062 0.76616 0.76675 0.0
C1440 C 0.98793 0.75594 0.75903 0.0
C1441 C 1.00285 0.75554 0.7601 0.0
H1442 H 0.26335 0.96462 0.7695 0.0
H1443 H 0.27971 1.00317 0.75194 0.0
H1444 H 0.25224 1.00379 0.78871 0.0
H1445 H 0.247 0.02477 0.78288 0.0
H1446 H 0.2665 0.06357 0.76944 0.0
H1447 H 0.28487 0.02457 0.75674 0.0
C1448 C 0.26435 0.97604 0.77002 0.0
C1449 C 0.25649 0.9835 0.78003 0.0
C1450 C 0.27318 0.98309 0.76029 0.0
C1451 C 0.2734 0.99801 0.76001 0.0
C1452 C 0.26569 1.006 0.77006 0.0
C1453 C 0.25762 0.99837 0.78029 0.0
C1454 C 0.26597 0.02211 0.76992 0.0
C1455 C 0.25555 0.02999 0.77726 0.0
C1456 C 0.25604 0.04489 0.77758 0.0
C1457 C 0.26635 0.05209 0.76961 0.0
C1458 C 0.27643 0.04476 0.76175 0.0
C1459 C 0.27654 0.02988 0.76237 0.0
H1460 H 0.06229 0.26467 0.76971 0.0
H1461 H 0.02273 0.24649 0.78317 0.0
H1462 H 0.02358 0.28518 0.75828 0.0
H1463 H 1.0023 0.27867 0.75171 0.0
H1464 H 0.96324 0.2635 0.76951 0.0
H1465 H 1.00248 0.25409 0.79053 0.0
C1466 C 0.05079 0.26505 0.77013 0.0
C1467 C 0.04371 0.27581 0.76277 0.0
C1468 C 0.04331 0.25469 0.77783 0.0
C1469 C 0.02835 0.25495 0.77777 0.0
C1470 C 0.0208 0.26593 0.77084 0.0
C1471 C 0.0288 0.27649 0.76356 0.0
C1472 C 1.00471 0.26606 0.77092 0.0
C1473 C 0.99687 0.27303 0.76012 0.0
C1474 C 0.98188 0.27274 0.75999 0.0
C1475 C 0.97468 0.26467 0.77029 0.0
C1476 C 0.98206 0.25759 0.78112 0.0
C1477 C 0.99698 0.25883 0.78164 0.0
H1478 H 0.76514 0.0662 0.77669 0.0
H1479 H 0.74814 0.02764 0.75996 0.0
H1480 H 0.78628 0.02735 0.78589 0.0
H1481 H 0.78109 1.00569 0.79055 0.0
H1482 H 0.76532 0.96758 0.77167 0.0
H1483 H 0.75426 1.00731 0.75305 0.0
C1484 C 0.76606 0.05488 0.77525 0.0
C1485 C 0.77678 0.04753 0.78247 0.0
C1486 C 0.75606 0.04779 0.76671 0.0
C1487 C 0.75641 0.03291 0.76599 0.0
C1488 C 0.76717 0.02504 0.77293 0.0
C1489 C 0.77751 0.03271 0.78089 0.0
C1490 C 0.76735 1.00897 0.77213 0.0
C1491 C 0.775 1.00072 0.78216 0.0
C1492 C 0.77491 0.98582 0.78151 0.0
C1493 C 0.76627 0.97902 0.7714 0.0
C1494 C 0.75846 0.98674 0.76137 0.0
C1495 C 0.75955 1.00162 0.76147 0.0
H1496 H 0.26621 0.76946 0.46836 0.0
H1497 H 0.24906 0.75334 0.5072 0.0
H1498 H 0.28763 0.77873 0.50754 0.0
H1499 H 0.28098 0.7854 0.52827 0.0
H1500 H 0.26662 0.7672 0.56734 0.0
H1501 H 0.25561 0.74681 0.52825 0.0
C1502 C 0.26715 0.76814 0.47976 0.0
C1503 C 0.27803 0.77532 0.48715 0.0
C1504 C 0.25704 0.75973 0.48687 0.0
C1505 C 0.25735 0.75925 0.50184 0.0
C1506 C 0.26815 0.76633 0.50974 0.0
C1507 C 0.27871 0.7739 0.50205 0.0
C1508 C 0.2682 0.76618 0.52587 0.0
C1509 C 0.27539 0.77694 0.53369 0.0
C1510 C 0.27539 0.77703 0.54866 0.0
C1511 C 0.26748 0.76663 0.55589 0.0
C1512 C 0.26016 0.75587 0.54859 0.0
C1513 C 0.26081 0.75554 0.53365 0.0
H1514 H 0.7667 0.76888 0.57208 0.0
H1515 H 0.77729 0.7483 0.53327 0.0
H1516 H 0.75301 0.78684 0.53259 0.0
H1517 H 0.74648 0.78001 0.5116 0.0
H1518 H 0.76733 0.76891 0.47309 0.0
H1519 H 0.785 0.75542 0.51279 0.0
C1520 C 0.76589 0.76826 0.56062 0.0
C1521 C 0.75827 0.77861 0.55318 0.0
C1522 C 0.77302 0.75752 0.55346 0.0
C1523 C 0.77236 0.75708 0.53855 0.0
C1524 C 0.76537 0.76769 0.53061 0.0
C1525 C 0.75837 0.77845 0.53821 0.0
C1526 C 0.76568 0.76769 0.51455 0.0
C1527 C 0.75522 0.77483 0.50647 0.0
C1528 C 0.75605 0.77565 0.49158 0.0
C1529 C 0.76683 0.76843 0.48458 0.0
C1530 C 0.77703 0.76075 0.49215 0.0
C1531 C 0.77665 0.7608 0.50709 0.0
H1532 H 0.76576 0.26608 0.47081 0.0
H1533 H 0.74712 0.25308 0.51015 0.0
H1534 H 0.78455 0.28036 0.50968 0.0
H1535 H 0.77806 0.28638 0.53069 0.0
H1536 H 0.76603 0.26693 0.57002 0.0
H1537 H 0.75432 0.24681 0.53101 0.0
C1538 C 0.76555 0.2665 0.48231 0.0
C1539 C 0.77574 0.27478 0.48945 0.0
C1540 C 0.75542 0.25842 0.48972 0.0
C1541 C 0.7555 0.25876 0.50467 0.0
C1542 C 0.76598 0.26657 0.51235 0.0
C1543 C 0.7762 0.27441 0.5044 0.0
C1544 C 0.76614 0.26661 0.52848 0.0
C1545 C 0.77296 0.27767 0.53619 0.0
C1546 C 0.77332 0.27765 0.55117 0.0
C1547 C 0.76611 0.26682 0.55852 0.0
C1548 C 0.75897 0.25587 0.55132 0.0
C1549 C 0.7594 0.25562 0.53637 0.0
H1550 H 0.26743 0.2672 0.5712 0.0
H1551 H 0.24617 0.27867 0.53268 0.0
H1552 H 0.28497 0.25454 0.53155 0.0
H1553 H 0.27824 0.24814 0.51077 0.0
H1554 H 0.26335 0.26668 0.47212 0.0
H1555 H 0.25201 0.28546 0.51162 0.0
C1556 C 0.26687 0.26699 0.55971 0.0
C1557 C 0.27707 0.25953 0.55212 0.0
C1558 C 0.25595 0.27421 0.55272 0.0
C1559 C 0.25503 0.27356 0.53781 0.0
C1560 C 0.26551 0.26662 0.52971 0.0
C1561 C 0.27661 0.25978 0.53718 0.0
C1562 C 0.26498 0.26664 0.51362 0.0
C1563 C 0.27234 0.25642 0.50558 0.0
C1564 C 0.27236 0.25685 0.49063 0.0
C1565 C 0.26408 0.26692 0.4836 0.0
C1566 C 0.25645 0.27703 0.49114 0.0
C1567 C 0.25725 0.27705 0.50606 0.0
H1568 H 0.76268 0.46674 0.76943 0.0
H1569 H 0.74539 0.50583 0.78344 0.0
H1570 H 0.78448 0.50551 0.75943 0.0
H1571 H 0.77845 0.52655 0.75288 0.0
H1572 H 0.76946 0.56527 0.77422 0.0
H1573 H 0.75232 0.52637 0.79049 0.0
C1574 C 0.76356 0.47816 0.77026 0.0
C1575 C 0.77463 0.48535 0.7633 0.0
C1576 C 0.75328 0.48548 0.7779 0.0
C1577 C 0.75375 0.50038 0.778 0.0
C1578 C 0.76488 0.50806 0.7713 0.0
C1579 C 0.77542 0.50022 0.76417 0.0
C1580 C 0.76561 0.52409 0.77184 0.0
C1581 C 0.77354 0.53187 0.76167 0.0
C1582 C 0.77518 0.54667 0.76255 0.0
C1583 C 0.76795 0.55393 0.7732 0.0
C1584 C 0.75924 0.54673 0.78296 0.0
C1585 C 0.7585 0.53182 0.78249 0.0
H1586 H 0.26427 0.56548 0.77468 0.0
H1587 H 0.25495 0.52668 0.75303 0.0
H1588 H 0.28026 0.52671 0.79153 0.0
H1589 H 0.2872 0.50608 0.78437 0.0
H1590 H 0.26703 0.46688 0.77272 0.0
H1591 H 0.24819 0.50579 0.75978 0.0
C1592 C 0.26556 0.55416 0.77367 0.0
C1593 C 0.27389 0.54702 0.78372 0.0
C1594 C 0.25845 0.54688 0.76274 0.0
C1595 C 0.2598 0.53207 0.76196 0.0
C1596 C 0.26737 0.52434 0.77243 0.0
C1597 C 0.27439 0.53211 0.78329 0.0
C1598 C 0.26762 0.50829 0.77217 0.0
C1599 C 0.27845 0.5006 0.77921 0.0
C1600 C 0.27828 0.48567 0.77951 0.0
C1601 C 0.26748 0.47834 0.77219 0.0
C1602 C 0.25686 0.48554 0.76471 0.0
C1603 C 0.2568 0.50044 0.76506 0.0
H1604 H 0.26361 0.46514 0.26932 0.0
H1605 H 0.25083 0.50377 0.28851 0.0
H1606 H 0.27816 0.50455 0.25178 0.0
H1607 H 0.28457 0.52516 0.25896 0.0
H1608 H 0.26754 0.56375 0.27439 0.0
H1609 H 0.24507 0.52482 0.28226 0.0
C1610 C 0.26384 0.47658 0.26951 0.0
C1611 C 0.27253 0.48404 0.25989 0.0
C1612 C 0.2555 0.4837 0.27943 0.0
C1613 C 0.25637 0.49856 0.28004 0.0
C1614 C 0.26445 0.50654 0.27015 0.0
C1615 C 0.27228 0.49897 0.25992 0.0
C1616 C 0.26491 0.52258 0.27078 0.0
C1617 C 0.27614 0.53044 0.26447 0.0
C1618 C 0.2767 0.54531 0.26512 0.0
C1619 C 0.26644 0.55241 0.27301 0.0
C1620 C 0.2552 0.54505 0.27955 0.0
C1621 C 0.25426 0.53023 0.27794 0.0
H1622 H 0.76783 0.56664 0.27394 0.0
H1623 H 0.75413 0.52806 0.2544 0.0
H1624 H 0.78026 0.52721 0.29244 0.0
H1625 H 0.78679 0.50656 0.28516 0.0
H1626 H 0.76578 0.46776 0.27376 0.0
H1627 H 0.74779 0.50701 0.26056 0.0
C1628 C 0.76741 0.55516 0.27402 0.0
C1629 C 0.77519 0.5477 0.28425 0.0
C1630 C 0.75941 0.54813 0.26357 0.0
C1631 C 0.75983 0.53324 0.26294 0.0
C1632 C 0.76736 0.52523 0.27326 0.0
C1633 C 0.77485 0.53278 0.284 0.0
C1634 C 0.7672 0.50916 0.27304 0.0
C1635 C 0.7779 0.50126 0.28006 0.0
C1636 C 0.77743 0.48634 0.28043 0.0
C1637 C 0.76647 0.47921 0.27316 0.0
C1638 C 0.75602 0.48659 0.26561 0.0
C1639 C 0.75626 0.5015 0.26591 0.0
H1640 H 0.46675 0.26693 0.77126 0.0
H1641 H 0.50649 0.28084 0.78887 0.0
H1642 H 0.50517 0.25591 0.75035 0.0
H1643 H 0.52641 0.24987 0.75571 0.0
H1644 H 0.56595 0.26878 0.76846 0.0
H1645 H 0.52729 0.2872 0.78237 0.0
C1646 C 0.47825 0.26749 0.77075 0.0
C1647 C 0.48522 0.26023 0.75998 0.0
C1648 C 0.48584 0.27533 0.78093 0.0
C1649 C 0.50082 0.27534 0.78053 0.0
C1650 C 0.50827 0.26838 0.76956 0.0
C1651 C 0.50011 0.26112 0.75913 0.0
C1652 C 0.52438 0.26855 0.76907 0.0
C1653 C 0.53195 0.25824 0.76132 0.0
C1654 C 0.5469 0.2586 0.76063 0.0
C1655 C 0.55442 0.26874 0.76855 0.0
C1656 C 0.54737 0.27874 0.77673 0.0
C1657 C 0.53244 0.27895 0.7765 0.0
H1658 H 0.5662 0.76488 0.76863 0.0
H1659 H 0.52679 0.74576 0.78118 0.0
H1660 H 0.52738 0.78356 0.75486 0.0
H1661 H 0.506 0.77772 0.74911 0.0
H1662 H 0.46696 0.7624 0.76672 0.0
H1663 H 0.50609 0.7525 0.78759 0.0
C1664 C 0.55469 0.76459 0.76825 0.0
C1665 C 0.54755 0.77482 0.76021 0.0
C1666 C 0.54725 0.75432 0.7761 0.0
C1667 C 0.53228 0.75429 0.77575 0.0
C1668 C 0.52462 0.76483 0.76823 0.0
C1669 C 0.5326 0.77519 0.76063 0.0
C1670 C 0.50847 0.76479 0.76814 0.0
C1671 C 0.50062 0.77194 0.75744 0.0
C1672 C 0.48562 0.77172 0.75732 0.0
C1673 C 0.47841 0.76351 0.76748 0.0
C1674 C 0.48574 0.75627 0.77823 0.0
C1675 C 0.50068 0.75739 0.77874 0.0
H1676 H 0.4681 0.76598 0.26862 0.0
H1677 H 0.50737 0.78484 0.28212 0.0
H1678 H 0.50699 0.74725 0.25578 0.0
H1679 H 0.52835 0.75292 0.2503 0.0
H1680 H 0.56743 0.76611 0.26984 0.0
H1681 H 0.52827 0.77882 0.28816 0.0
C1682 C 0.47962 0.766 0.26876 0.0
C1683 C 0.48682 0.75588 0.26086 0.0
C1684 C 0.48699 0.77615 0.27679 0.0
C1685 C 0.50195 0.77645 0.27643 0.0
C1686 C 0.50968 0.76601 0.26899 0.0
C1687 C 0.50175 0.7556 0.26142 0.0
C1688 C 0.52582 0.76595 0.26916 0.0
C1689 C 0.53367 0.75842 0.25887 0.0
C1690 C 0.54865 0.75812 0.25925 0.0
C1691 C 0.55592 0.76604 0.26962 0.0
C1692 C 0.54856 0.77388 0.27973 0.0
C1693 C 0.53362 0.77344 0.27968 0.0
H1694 H 0.56597 0.26654 0.27051 0.0
H1695 H 0.52708 0.28529 0.25702 0.0
H1696 H 0.52664 0.24786 0.28387 0.0
H1697 H 0.50614 0.25486 0.29052 0.0
H1698 H 0.46677 0.26394 0.26966 0.0
H1699 H 0.50557 0.27947 0.2517 0.0
C1700 C 0.55445 0.26634 0.2703 0.0
C1701 C 0.54706 0.25624 0.27841 0.0
C1702 C 0.54727 0.27649 0.26222 0.0
C1703 C 0.53233 0.27698 0.26285 0.0
C1704 C 0.5244 0.26678 0.27071 0.0
C1705 C 0.5321 0.25629 0.27826 0.0
C1706 C 0.50826 0.26677 0.27084 0.0
C1707 C 0.5006 0.25952 0.28162 0.0
C1708 C 0.48568 0.25818 0.28119 0.0
C1709 C 0.47821 0.2652 0.27039 0.0
C1710 C 0.48529 0.27339 0.2601 0.0
C1711 C 0.50028 0.27374 0.26012 0.0
H1712 H 0.21473 0.22404 0.11516 0.0
H1713 H 0.21788 0.18178 0.09765 0.0
H1714 H 0.22967 0.19169 0.0764 0.0
H1715 H 0.20829 0.24238 0.08167 0.0
H1716 H 0.21884 0.25765 0.08665 0.0
H1717 H 0.2099 0.2473 0.10009 0.0
H1718 H 0.23387 0.24377 0.11325 0.0
H1719 H 0.24287 0.2541 0.09984 0.0
H1720 H 0.24864 0.23639 0.10382 0.0
H1721 H 0.24251 0.20621 0.05753 0.0
H1722 H 0.25517 0.22408 0.04285 0.0
H1723 H 0.24314 0.25677 0.07254 0.0
C1724 C 0.21787 0.21685 0.10686 0.0
C1725 C 0.21528 0.20211 0.10811 0.0
C1726 C 0.2195 0.19313 0.0969 0.0
C1727 C 0.22628 0.19866 0.08479 0.0
C1728 C 0.22876 0.21321 0.08397 0.0
C1729 C 0.22463 0.22219 0.09469 0.0
C1730 C 0.22886 0.23738 0.09141 0.0
C1731 C 0.21569 0.24673 0.08986 0.0
C1732 C 0.23917 0.24325 0.10275 0.0
C1733 C 0.23623 0.23552 0.07729 0.0
C1734 C 0.23602 0.22153 0.07311 0.0
C1735 C 0.24261 0.21723 0.06063 0.0
C1736 C 0.24971 0.22748 0.0523 0.0
C1737 C 0.2502 0.24187 0.05649 0.0
C1738 C 0.24314 0.24586 0.06907 0.0
H1739 H 0.8122 0.2227 0.12027 0.0
H1740 H 0.80387 0.18148 0.10156 0.0
H1741 H 0.79243 0.19298 0.08096 0.0
H1742 H 0.77996 0.23845 0.10991 0.0
H1743 H 0.78768 0.25562 0.10615 0.0
H1744 H 0.79585 0.24421 0.11911 0.0
H1745 H 0.81965 0.24577 0.10544 0.0
H1746 H 0.81156 0.25725 0.09247 0.0
H1747 H 0.82 0.24121 0.08688 0.0
H1748 H 0.78074 0.20896 0.06293 0.0
H1749 H 0.76997 0.22821 0.04885 0.0
H1750 H 0.78693 0.25899 0.07881 0.0
C1751 C 0.80821 0.21609 0.11173 0.0
C1752 C 0.80891 0.20116 0.11259 0.0
C1753 C 0.80329 0.19292 0.10127 0.0
C1754 C 0.79685 0.19936 0.08946 0.0
C1755 C 0.79617 0.21407 0.08906 0.0
C1756 C 0.80177 0.22234 0.09985 0.0
C1757 C 0.79929 0.23792 0.09702 0.0
C1758 C 0.79015 0.24442 0.10874 0.0
C1759 C 0.81347 0.24601 0.09535 0.0
C1760 C 0.79125 0.23709 0.08306 0.0
C1761 C 0.7896 0.22326 0.0786 0.0
C1762 C 0.78211 0.21986 0.06623 0.0
C1763 C 0.77609 0.23088 0.05825 0.0
C1764 C 0.77758 0.24516 0.06267 0.0
C1765 C 0.78543 0.24821 0.07519 0.0
H1766 H 0.816 0.8079 0.11739 0.0
H1767 H 0.80946 0.8502 0.10057 0.0
H1768 H 0.79792 0.83999 0.0793 0.0
H1769 H 0.82299 0.79088 0.08357 0.0
H1770 H 0.81364 0.77479 0.08837 0.0
H1771 H 0.8221 0.78541 0.10192 0.0
H1772 H 0.79819 0.78693 0.1153 0.0
H1773 H 0.78967 0.77632 0.1018 0.0
H1774 H 0.78274 0.79346 0.1061 0.0
H1775 H 0.78577 0.82511 0.06032 0.0
H1776 H 0.77405 0.80682 0.04546 0.0
H1777 H 0.78901 0.7743 0.07442 0.0
C1778 C 0.81216 0.81504 0.10924 0.0
C1779 C 0.81376 0.82989 0.11068 0.0
C1780 C 0.80863 0.83879 0.09966 0.0
C1781 C 0.80198 0.83309 0.08754 0.0
C1782 C 0.80053 0.81843 0.0865 0.0
C1783 C 0.80552 0.80952 0.09705 0.0
C1784 C 0.8023 0.79417 0.09354 0.0
C1785 C 0.81608 0.78582 0.09174 0.0
C1786 C 0.79265 0.78732 0.10486 0.0
C1787 C 0.79452 0.79584 0.0795 0.0
C1788 C 0.79365 0.8099 0.07557 0.0
C1789 C 0.78652 0.81405 0.06323 0.0
C1790 C 0.77996 0.80356 0.05479 0.0
C1791 C 0.78056 0.78907 0.05871 0.0
C1792 C 0.78817 0.78526 0.07115 0.0
H1793 H 0.21778 0.80756 0.11996 0.0
H1794 H 0.22357 0.84944 0.10153 0.0
H1795 H 0.23538 0.83892 0.08086 0.0
H1796 H 0.25139 0.79412 0.10959 0.0
H1797 H 0.24471 0.77654 0.1059 0.0
H1798 H 0.23608 0.78729 0.11893 0.0
H1799 H 0.21214 0.78426 0.10546 0.0
H1800 H 0.22071 0.77348 0.0924 0.0
H1801 H 0.21111 0.78897 0.08691 0.0
H1802 H 0.24759 0.82386 0.06257 0.0
H1803 H 0.25904 0.80544 0.0482 0.0
H1804 H 0.24499 0.77344 0.07845 0.0
C1805 C 0.22154 0.81454 0.1116 0.0
C1806 C 0.21964 0.82935 0.11239 0.0
C1807 C 0.22464 0.83805 0.1011 0.0
C1808 C 0.23146 0.83218 0.08933 0.0
C1809 C 0.2332 0.81757 0.08894 0.0
C1810 C 0.22835 0.80886 0.09976 0.0
C1811 C 0.23179 0.79351 0.09688 0.0
C1812 C 0.24158 0.78752 0.10852 0.0
C1813 C 0.21812 0.78453 0.09532 0.0
C1814 C 0.23948 0.79498 0.08285 0.0
C1815 C 0.24015 0.80892 0.07841 0.0
C1816 C 0.24702 0.81289 0.06589 0.0
C1817 C 0.25343 0.80233 0.05774 0.0
C1818 C 0.25293 0.78795 0.06213 0.0
C1819 C 0.24572 0.78432 0.07483 0.0
H1820 H 0.21659 0.80625 0.92396 0.0
H1821 H 0.21211 0.84539 0.94737 0.0
H1822 H 0.22146 0.83372 0.96891 0.0
H1823 H 0.20706 0.78212 0.9537 0.0
H1824 H 0.21987 0.76914 0.94849 0.0
H1825 H 0.21162 0.7802 0.93525 0.0
H1826 H 0.23647 0.78849 0.92658 0.0
H1827 H 0.24479 0.77752 0.93981 0.0
H1828 H 0.24886 0.79621 0.9391 0.0
H1829 H 0.23338 0.81857 0.9872 0.0
H1830 H 0.24699 0.80105 1.00091 0.0
H1831 H 0.24247 0.77121 0.96614 0.0
C1832 C 0.21725 0.81227 0.9337 0.0
C1833 C 0.21364 0.82675 0.93395 0.0
C1834 C 0.21497 0.83433 0.94686 0.0
C1835 C 0.22017 0.82777 0.95919 0.0
C1836 C 0.22388 0.81357 0.95851 0.0
C1837 C 0.22241 0.80587 0.94612 0.0
C1838 C 0.22794 0.79098 0.94804 0.0
C1839 C 0.2159 0.77996 0.94627 0.0
C1840 C 0.24024 0.78814 0.93777 0.0
C1841 C 0.23311 0.79165 0.9633 0.0
C1842 C 0.23056 0.80473 0.96918 0.0
C1843 C 0.2352 0.80818 0.98282 0.0
C1844 C 0.24285 0.79809 0.99058 0.0
C1845 C 0.24581 0.78464 0.98471 0.0
C1846 C 0.24054 0.78137 0.97097 0.0
H1847 H 0.21004 0.23449 0.91802 0.0
H1848 H 0.20724 0.19192 0.93543 0.0
H1849 H 0.22034 0.19991 0.95683 0.0
H1850 H 0.24506 0.24254 0.93056 0.0
H1851 H 0.24132 0.26079 0.93442 0.0
H1852 H 0.23155 0.25171 0.92062 0.0
H1853 H 0.20787 0.25793 0.9329 0.0
H1854 H 0.21758 0.26699 0.94676 0.0
H1855 H 0.20518 0.25297 0.95121 0.0
H1856 H 0.2341 0.21264 0.97634 0.0
H1857 H 0.2483 0.22871 0.99165 0.0
H1858 H 0.24122 0.26308 0.96178 0.0
C1859 C 0.21204 0.22685 0.92638 0.0
C1860 C 0.20756 0.21255 0.92499 0.0
C1861 C 0.21068 0.20289 0.93612 0.0
C1862 C 0.21802 0.20736 0.94838 0.0
C1863 C 0.22218 0.22154 0.94941 0.0
C1864 C 0.21934 0.23113 0.93868 0.0
C1865 C 0.22524 0.24571 0.94223 0.0
C1866 C 0.23646 0.25046 0.93131 0.0
C1867 C 0.21325 0.25654 0.94334 0.0
C1868 C 0.23194 0.24281 0.9566 0.0
C1869 C 0.23001 0.22884 0.96061 0.0
C1870 C 0.23559 0.22363 0.97333 0.0
C1871 C 0.24355 0.23288 0.98203 0.0
C1872 C 0.24593 0.24719 0.97797 0.0
C1873 C 0.23977 0.25219 0.96517 0.0
H1874 H 0.8205 0.2385 0.92552 0.0
H1875 H 0.82491 0.19693 0.94475 0.0
H1876 H 0.81273 0.20532 0.96623 0.0
H1877 H 0.8257 0.25887 0.95773 0.0
H1878 H 0.81268 0.27188 0.95287 0.0
H1879 H 0.8223 0.26278 0.93927 0.0
H1880 H 0.79854 0.25452 0.92775 0.0
H1881 H 0.78886 0.26365 0.94127 0.0
H1882 H 0.78565 0.24503 0.93837 0.0
H1883 H 0.79901 0.21806 0.98529 0.0
H1884 H 0.78436 0.23382 0.99991 0.0
H1885 H 0.7894 0.26714 0.96836 0.0
C1886 C 0.81887 0.23112 0.93421 0.0
C1887 C 0.82372 0.21703 0.93341 0.0
C1888 C 0.82149 0.20781 0.94515 0.0
C1889 C 0.81453 0.21248 0.95739 0.0
C1890 C 0.8099 0.22642 0.95781 0.0
C1891 C 0.81198 0.23561 0.94652 0.0
C1892 C 0.80566 0.24996 0.94948 0.0
C1893 C 0.81728 0.26156 0.94986 0.0
C1894 C 0.79399 0.25349 0.93857 0.0
C1895 C 0.7995 0.24735 0.9641 0.0
C1896 C 0.80212 0.23374 0.96878 0.0
C1897 C 0.79701 0.22878 0.98178 0.0
C1898 C 0.78878 0.23785 0.99008 0.0
C1899 C 0.78569 0.25175 0.98534 0.0
C1900 C 0.79142 0.25656 0.97228 0.0
H1901 H 0.80011 0.82308 0.92308 0.0
H1902 H 0.84375 0.81626 0.93633 0.0
H1903 H 0.83516 0.8031 0.95743 0.0
H1904 H 0.78541 0.82755 0.95804 0.0
H1905 H 0.76907 0.8183 0.95376 0.0
H1906 H 0.7787 0.82765 0.94007 0.0
H1907 H 0.77961 0.80469 0.92514 0.0
H1908 H 0.76994 0.7953 0.93875 0.0
H1909 H 0.78688 0.78888 0.93295 0.0
H1910 H 0.8215 0.78981 0.97689 0.0
H1911 H 0.80412 0.77723 0.99228 0.0
H1912 H 0.76971 0.793 0.96603 0.0
C1913 C 0.80791 0.81876 0.93034 0.0
C1914 C 0.82264 0.82074 0.92798 0.0
C1915 C 0.83241 0.81507 0.93795 0.0
C1916 C 0.82763 0.80751 0.94996 0.0
C1917 C 0.81304 0.80574 0.95191 0.0
C1918 C 0.80334 0.81121 0.94234 0.0
C1919 C 0.78823 0.8076 0.94663 0.0
C1920 C 0.77986 0.82108 0.94982 0.0
C1921 C 0.78073 0.79858 0.93519 0.0
C1922 C 0.79092 0.79909 0.96001 0.0
C1923 C 0.80527 0.79817 0.96298 0.0
C1924 C 0.81024 0.79054 0.97469 0.0
C1925 C 0.80029 0.78349 0.98343 0.0
C1926 C 0.78555 0.78407 0.98036 0.0
C1927 C 0.7809 0.7922 0.96861 0.0
H1928 H 0.11075 0.23384 0.21113 0.0
H1929 H 0.09632 0.19011 0.2142 0.0
H1930 H 0.07553 0.19769 0.22808 0.0
H1931 H 0.1008 0.24411 0.24596 0.0
H1932 H 0.09537 0.26158 0.24064 0.0
H1933 H 0.10887 0.25264 0.23079 0.0
H1934 H 0.09414 0.25574 0.20766 0.0
H1935 H 0.08057 0.26467 0.21746 0.0
H1936 H 0.07603 0.24931 0.20701 0.0
H1937 H 0.05618 0.21037 0.242 0.0
H1938 H 0.04099 0.22678 0.25545 0.0
H1939 H 0.06804 0.26198 0.2424 0.0
C1940 C 0.10315 0.22584 0.21455 0.0
C1941 C 0.10519 0.21137 0.2115 0.0
C1942 C 0.09509 0.20125 0.2165 0.0
C1943 C 0.08318 0.20546 0.2243 0.0
C1944 C 0.08148 0.21984 0.22705 0.0
C1945 C 0.09124 0.22985 0.22234 0.0
C1946 C 0.08723 0.24459 0.22693 0.0
C1947 C 0.09875 0.25111 0.23666 0.0
C1948 C 0.08432 0.25414 0.21399 0.0
C1949 C 0.07373 0.24135 0.23503 0.0
C1950 C 0.07049 0.22704 0.23496 0.0
C1951 C 0.0586 0.2216 0.24206 0.0
C1952 C 0.04997 0.231 0.24959 0.0
C1953 C 0.05333 0.24566 0.25004 0.0
C1954 C 0.06525 0.25082 0.24242 0.0
H1955 H 0.82524 0.11275 0.24071 0.0
H1956 H 0.82064 0.09934 0.19689 0.0
H1957 H 0.80632 0.07863 0.20473 0.0
H1958 H 0.82848 0.07759 0.25604 0.0
H1959 H 0.81855 0.08199 0.27169 0.0
H1960 H 0.8287 0.0955 0.26257 0.0
H1961 H 0.80609 0.11071 0.26004 0.0
H1962 H 0.79587 0.09724 0.26912 0.0
H1963 H 0.79043 0.10318 0.25174 0.0
H1964 H 0.7919 0.05951 0.21756 0.0
H1965 H 0.77823 0.04422 0.23417 0.0
H1966 H 0.7931 0.06998 0.26942 0.0
C1967 C 0.82141 0.10537 0.23276 0.0
C1968 C 0.82411 0.10769 0.21817 0.0
C1969 C 0.81861 0.09789 0.20811 0.0
C1970 C 0.81054 0.08603 0.21247 0.0
C1971 C 0.80807 0.08409 0.22694 0.0
C1972 C 0.81336 0.09351 0.23691 0.0
C1973 C 0.80892 0.08927 0.25177 0.0
C1974 C 0.82194 0.08588 0.26106 0.0
C1975 C 0.79979 0.10078 0.25856 0.0
C1976 C 0.8002 0.07606 0.24861 0.0
C1977 C 0.79987 0.07317 0.23425 0.0
C1978 C 0.79218 0.06164 0.22884 0.0
C1979 C 0.78451 0.05296 0.23836 0.0
C1980 C 0.78454 0.0559 0.2531 0.0
C1981 C 0.7927 0.06752 0.25821 0.0
H1982 H 0.91761 0.81521 0.23117 0.0
H1983 H 0.93596 0.81295 0.18908 0.0
H1984 H 0.95709 0.80132 0.19916 0.0
H1985 H 0.95067 0.82192 0.25028 0.0
H1986 H 0.94557 0.81115 0.26531 0.0
H1987 H 0.93218 0.81989 0.25486 0.0
H1988 H 0.91938 0.7958 0.25063 0.0
H1989 H 0.93274 0.787 0.26105 0.0
H1990 H 0.92912 0.78136 0.24311 0.0
H1991 H 0.97584 0.78876 0.21376 0.0
H1992 H 0.99056 0.7765 0.2317 0.0
H1993 H 0.96017 0.78742 0.26425 0.0
C1994 C 0.92606 0.81228 0.22406 0.0
C1995 C 0.9251 0.8151 0.20931 0.0
C1996 C 0.9365 0.81115 0.20043 0.0
C1997 C 0.94854 0.80445 0.20605 0.0
C1998 C 0.9491 0.80178 0.2206 0.0
C1999 C 0.93817 0.80561 0.22949 0.0
C2000 C 0.94127 0.80129 0.24471 0.0
C2001 C 0.9425 0.81434 0.25436 0.0
C2002 C 0.92996 0.79073 0.25019 0.0
C2003 C 0.95553 0.79426 0.24295 0.0
C2004 C 0.9599 0.79467 0.22899 0.0
C2005 C 0.97257 0.78849 0.22476 0.0
C2006 C 0.98093 0.78162 0.23506 0.0
C2007 C 0.9766 0.78097 0.24944 0.0
C2008 C 0.96377 0.78756 0.25335 0.0
H2009 H 0.22679 0.91894 0.22039 0.0
H2010 H 0.18774 0.94216 0.2142 0.0
H2011 H 0.19945 0.96372 0.22356 0.0
H2012 H 0.23657 0.93426 0.25266 0.0
H2013 H 0.25538 0.93505 0.24919 0.0
H2014 H 0.24443 0.92176 0.24072 0.0
H2015 H 0.25309 0.93034 0.21603 0.0
H2016 H 0.26415 0.94363 0.22444 0.0
H2017 H 0.25131 0.94871 0.21114 0.0
H2018 H 0.21455 0.98205 0.23579 0.0
H2019 H 0.23199 0.99584 0.24979 0.0
H2020 H 0.26187 0.96132 0.24668 0.0
C2021 C 0.2208 0.92864 0.22067 0.0
C2022 C 0.20631 0.92882 0.21659 0.0
C2023 C 0.19879 0.94169 0.21743 0.0
C2024 C 0.20538 0.95404 0.22263 0.0
C2025 C 0.21957 0.95343 0.22683 0.0
C2026 C 0.22724 0.9411 0.22581 0.0
C2027 C 0.24212 0.94311 0.2318 0.0
C2028 C 0.24477 0.93295 0.24434 0.0
C2029 C 0.25333 0.94134 0.22016 0.0
C2030 C 0.24146 0.95835 0.23671 0.0
C2031 C 0.2284 0.96414 0.23365 0.0
C2032 C 0.22493 0.97773 0.238 0.0
C2033 C 0.23499 0.98554 0.24589 0.0
C2034 C 0.24843 0.97979 0.24935 0.0
C2035 C 0.25171 0.96608 0.24437 0.0
H2036 H 0.11697 0.79362 0.827 0.0
H2037 H 0.09809 0.83473 0.83349 0.0
H2038 H 0.07677 0.82692 0.82005 0.0
H2039 H 0.10457 0.7887 0.79167 0.0
H2040 H 0.10137 0.76994 0.79367 0.0
H2041 H 0.11485 0.77861 0.80426 0.0
H2042 H 0.10281 0.76915 0.82717 0.0
H2043 H 0.08926 0.76047 0.81663 0.0
H2044 H 0.08432 0.77279 0.83025 0.0
H2045 H 0.05771 0.81474 0.80531 0.0
H2046 H 0.04305 0.7996 0.78949 0.0
H2047 H 0.0742 0.7663 0.79322 0.0
C2048 C 0.10828 0.80093 0.82576 0.0
C2049 C 0.10921 0.81479 0.83133 0.0
C2050 C 0.0977 0.82411 0.8292 0.0
C2051 C 0.08549 0.81973 0.82168 0.0
C2052 C 0.08494 0.80599 0.81635 0.0
C2053 C 0.09605 0.79674 0.81826 0.0
C2054 C 0.09304 0.78273 0.81102 0.0
C2055 C 0.10411 0.77983 0.79947 0.0
C2056 C 0.09231 0.77057 0.82192 0.0
C2057 C 0.07856 0.78558 0.8046 0.0
C2058 C 0.07401 0.79901 0.80788 0.0
C2059 C 0.06113 0.80415 0.80277 0.0
C2060 C 0.05281 0.79544 0.79387 0.0
C2061 C 0.05744 0.78174 0.79011 0.0
C2062 C 0.07039 0.77674 0.7958 0.0
H2063 H 0.23338 0.11013 0.82542 0.0
H2064 H 0.18935 0.09733 0.81893 0.0
H2065 H 0.19723 0.07632 0.80572 0.0
H2066 H 0.24542 0.10053 0.79099 0.0
H2067 H 0.26247 0.09456 0.79723 0.0
H2068 H 0.25329 0.1081 0.80677 0.0
H2069 H 0.25468 0.09298 0.82977 0.0
H2070 H 0.26382 0.07935 0.82027 0.0
H2071 H 0.2477 0.07511 0.82972 0.0
H2072 H 0.21018 0.05687 0.79239 0.0
H2073 H 0.22695 0.04148 0.77962 0.0
H2074 H 0.26221 0.0674 0.79481 0.0
C2075 C 0.22534 0.10299 0.82117 0.0
C2076 C 0.21071 0.10545 0.82328 0.0
C2077 C 0.20062 0.09563 0.81767 0.0
C2078 C 0.205 0.08367 0.81008 0.0
C2079 C 0.21951 0.08162 0.80818 0.0
C2080 C 0.22951 0.09105 0.81356 0.0
C2081 C 0.24444 0.08671 0.80976 0.0
C2082 C 0.25184 0.09816 0.80064 0.0
C2083 C 0.25317 0.08334 0.82318 0.0
C2084 C 0.24129 0.07347 0.80125 0.0
C2085 C 0.22688 0.0706 0.80052 0.0
C2086 C 0.2215 0.059 0.79296 0.0
C2087 C 0.23109 0.05026 0.7858 0.0
C2088 C 0.24589 0.05324 0.78617 0.0
C2089 C 0.25096 0.0649 0.79421 0.0
H2090 H 0.91295 0.22733 0.82046 0.0
H2091 H 0.93687 0.18934 0.8295 0.0
H2092 H 0.95843 0.20076 0.8197 0.0
H2093 H 0.92866 0.23522 0.78778 0.0
H2094 H 0.92905 0.25416 0.79004 0.0
H2095 H 0.91578 0.24357 0.79897 0.0
H2096 H 0.92382 0.25395 0.82318 0.0
H2097 H 0.9371 0.26464 0.8143 0.0
H2098 H 0.94221 0.25284 0.82848 0.0
H2099 H 0.97676 0.21534 0.80691 0.0
H2100 H 0.99059 0.23209 0.79222 0.0
H2101 H 0.95532 0.26131 0.79262 0.0
C2102 C 0.92279 0.22153 0.82068 0.0
C2103 C 0.92318 0.2074 0.82572 0.0
C2104 C 0.93625 0.2001 0.82554 0.0
C2105 C 0.94859 0.20654 0.82009 0.0
C2106 C 0.94777 0.22035 0.81495 0.0
C2107 C 0.93525 0.22782 0.81528 0.0
C2108 C 0.9371 0.24226 0.80838 0.0
C2109 C 0.92705 0.24389 0.79553 0.0
C2110 C 0.93493 0.25413 0.81923 0.0
C2111 C 0.95249 0.24157 0.80378 0.0
C2112 C 0.95848 0.22889 0.80777 0.0
C2113 C 0.97228 0.22544 0.80396 0.0
C2114 C 0.98011 0.23511 0.79567 0.0
C2115 C 0.97418 0.24815 0.79126 0.0
C2116 C 0.96023 0.25144 0.79568 0.0
H2117 H 0.82252 0.91948 0.80194 0.0
H2118 H 0.82141 0.93305 0.84588 0.0
H2119 H 0.80709 0.95373 0.83878 0.0
H2120 H 0.82605 0.95421 0.7864 0.0
H2121 H 0.81495 0.94998 0.77131 0.0
H2122 H 0.82499 0.93628 0.77995 0.0
H2123 H 0.80186 0.92156 0.78373 0.0
H2124 H 0.79175 0.9352 0.77508 0.0
H2125 H 0.7871 0.92944 0.79274 0.0
H2126 H 0.79282 0.97325 0.8265 0.0
H2127 H 0.77922 0.98897 0.81041 0.0
H2128 H 0.79052 0.96263 0.77471 0.0
C2129 C 0.8194 0.92685 0.81009 0.0
C2130 C 0.82316 0.92463 0.82448 0.0
C2131 C 0.81856 0.93442 0.8348 0.0
C2132 C 0.8105 0.94626 0.83086 0.0
C2133 C 0.80709 0.94817 0.81654 0.0
C2134 C 0.81137 0.93868 0.80635 0.0
C2135 C 0.80622 0.94296 0.79171 0.0
C2136 C 0.8188 0.94604 0.78176 0.0
C2137 C 0.79613 0.93162 0.78545 0.0
C2138 C 0.79836 0.95635 0.79522 0.0
C2139 C 0.79897 0.95926 0.80958 0.0
C2140 C 0.79231 0.97107 0.81524 0.0
C2141 C 0.78468 0.98 0.80601 0.0
C2142 C 0.78374 0.97704 0.79129 0.0
C2143 C 0.79087 0.96512 0.78592 0.0
H2144 H 0.22416 0.11437 0.22017 0.0
H2145 H 0.18225 0.09515 0.22469 0.0
H2146 H 0.19294 0.07439 0.23638 0.0
H2147 H 0.24317 0.08181 0.21347 0.0
H2148 H 0.25861 0.08734 0.22352 0.0
H2149 H 0.24772 0.10035 0.21482 0.0
H2150 H 0.24441 0.11323 0.2388 0.0
H2151 H 0.25527 0.10026 0.24756 0.0
H2152 H 0.23755 0.10348 0.25383 0.0
H2153 H 0.20816 0.05618 0.24884 0.0
H2154 H 0.22666 0.04214 0.26093 0.0
H2155 H 0.25859 0.07307 0.24786 0.0
C2156 C 0.21721 0.1058 0.2236 0.0
C2157 C 0.20234 0.10641 0.22141 0.0
C2158 C 0.19368 0.09487 0.226 0.0
C2159 C 0.19965 0.08304 0.23273 0.0
C2160 C 0.21432 0.08284 0.23479 0.0
C2161 C 0.22299 0.0939 0.23032 0.0
C2162 C 0.23839 0.09123 0.23412 0.0
C2163 C 0.24751 0.09011 0.22068 0.0
C2164 C 0.24424 0.10273 0.24417 0.0
C2165 C 0.23701 0.07705 0.24162 0.0
C2166 C 0.22306 0.07234 0.24186 0.0
C2167 C 0.21915 0.0597 0.2486 0.0
C2168 C 0.22976 0.05174 0.25536 0.0
C2169 C 0.24413 0.05644 0.25537 0.0
C2170 C 0.24771 0.06921 0.24821 0.0
H2171 H 0.22664 0.91492 0.82036 0.0
H2172 H 0.1869 0.93705 0.82541 0.0
H2173 H 0.19792 0.95871 0.81535 0.0
H2174 H 0.2502 0.94517 0.8285 0.0
H2175 H 0.26312 0.94022 0.81544 0.0
H2176 H 0.25243 0.92679 0.82407 0.0
H2177 H 0.24384 0.91763 0.79953 0.0
H2178 H 0.2545 0.93102 0.79085 0.0
H2179 H 0.23571 0.92977 0.7872 0.0
H2180 H 0.21267 0.97734 0.80278 0.0
H2181 H 0.22995 0.99141 0.78886 0.0
H2182 H 0.26043 0.95749 0.79292 0.0
C2183 C 0.22028 0.92434 0.81943 0.0
C2184 C 0.20591 0.92428 0.82374 0.0
C2185 C 0.19798 0.93688 0.82239 0.0
C2186 C 0.20414 0.94923 0.81664 0.0
C2187 C 0.21828 0.94889 0.81238 0.0
C2188 C 0.22628 0.93679 0.81379 0.0
C2189 C 0.24109 0.93905 0.80789 0.0
C2190 C 0.25238 0.93773 0.81968 0.0
C2191 C 0.24395 0.92876 0.79564 0.0
C2192 C 0.24005 0.95417 0.80261 0.0
C2193 C 0.22684 0.9597 0.80537 0.0
C2194 C 0.22313 0.9732 0.80076 0.0
C2195 C 0.23308 0.98117 0.79293 0.0
C2196 C 0.24663 0.97565 0.78976 0.0
C2197 C 0.25017 0.96205 0.795 0.0
H2198 H 0.1102 0.22368 0.81959 0.0
H2199 H 0.09171 0.18173 0.81379 0.0
H2200 H 0.07042 0.19234 0.80291 0.0
H2201 H 0.07721 0.24177 0.82743 0.0
H2202 H 0.08236 0.25755 0.81782 0.0
H2203 H 0.09572 0.24669 0.82601 0.0
H2204 H 0.1084 0.24438 0.80179 0.0
H2205 H 0.09509 0.25522 0.79354 0.0
H2206 H 0.09855 0.23784 0.78666 0.0
H2207 H 0.05165 0.20756 0.79121 0.0
H2208 H 0.03721 0.22608 0.77968 0.0
H2209 H 0.06786 0.258 0.79348 0.0
C2210 C 0.10168 0.2167 0.81606 0.0
C2211 C 0.10266 0.20184 0.81765 0.0
C2212 C 0.09116 0.19315 0.81296 0.0
C2213 C 0.07903 0.19908 0.80668 0.0
C2214 C 0.07847 0.21374 0.80519 0.0
C2215 C 0.08949 0.22244 0.80979 0.0
C2216 C 0.08648 0.23783 0.80653 0.0
C2217 C 0.08537 0.24647 0.82027 0.0
C2218 C 0.0978 0.24418 0.79653 0.0
C2219 C 0.07219 0.23642 0.79915 0.0
C2220 C 0.06769 0.22246 0.79854 0.0
C2221 C 0.05501 0.21855 0.79176 0.0
C2222 C 0.04682 0.22916 0.78531 0.0
C2223 C 0.05135 0.24353 0.78563 0.0
C2224 C 0.06412 0.24712 0.79288 0.0
H2225 H 0.81336 0.11722 0.81425 0.0
H2226 H 0.82016 0.09357 0.85326 0.0
H2227 H 0.81159 0.07177 0.84148 0.0
H2228 H 0.78157 0.10037 0.80437 0.0
H2229 H 0.78513 0.10023 0.78558 0.0
H2230 H 0.79307 0.1137 0.79663 0.0
H2231 H 0.81809 0.1067 0.78799 0.0
H2232 H 0.81021 0.09321 0.77687 0.0
H2233 H 0.82366 0.08859 0.78972 0.0
H2234 H 0.80028 0.05298 0.82612 0.0
H2235 H 0.78682 0.03885 0.80853 0.0
H2236 H 0.78848 0.07433 0.77905 0.0
C2237 C 0.81336 0.1074 0.82022 0.0
C2238 C 0.81742 0.10714 0.83471 0.0
C2239 C 0.81695 0.09409 0.84221 0.0
C2240 C 0.81221 0.08161 0.83557 0.0
C2241 C 0.80805 0.08228 0.82137 0.0
C2242 C 0.80865 0.09482 0.81375 0.0
C2243 C 0.80277 0.09282 0.79885 0.0
C2244 C 0.78987 0.10234 0.79621 0.0
C2245 C 0.81438 0.09549 0.7877 0.0
C2246 C 0.79843 0.07731 0.79943 0.0
C2247 C 0.80169 0.07138 0.81246 0.0
C2248 C 0.79789 0.05744 0.81579 0.0
C2249 C 0.79031 0.04945 0.80566 0.0
C2250 C 0.78656 0.05539 0.79232 0.0
C2251 C 0.79105 0.06943 0.78914 0.0
H2252 H 0.92162 0.79867 0.82221 0.0
H2253 H 0.93776 0.84191 0.82081 0.0
H2254 H 0.95865 0.83394 0.80736 0.0
H2255 H 0.95539 0.78166 0.82624 0.0
H2256 H 0.95049 0.76689 0.8151 0.0
H2257 H 0.93705 0.776 0.82491 0.0
H2258 H 0.92306 0.78058 0.80159 0.0
H2259 H 0.93643 0.77145 0.79172 0.0
H2260 H 0.93185 0.78933 0.78695 0.0
H2261 H 0.97771 0.82104 0.79336 0.0
H2262 H 0.9927 0.80452 0.77985 0.0
H2263 H 0.96387 0.76996 0.79073 0.0
C2264 C 0.92946 0.80652 0.819 0.0
C2265 C 0.92798 0.82095 0.8226 0.0
C2266 C 0.93869 0.83078 0.81835 0.0
C2267 C 0.95058 0.82636 0.81064 0.0
C2268 C 0.95167 0.81205 0.80727 0.0
C2269 C 0.94137 0.8023 0.81132 0.0
C2270 C 0.94489 0.78758 0.80625 0.0
C2271 C 0.94709 0.77744 0.81888 0.0
C2272 C 0.93337 0.78191 0.79602 0.0
C2273 C 0.95872 0.79056 0.79859 0.0
C2274 C 0.96253 0.80471 0.79932 0.0
C2275 C 0.97484 0.80993 0.79279 0.0
C2276 C 0.98334 0.80045 0.78521 0.0
C2277 C 0.97947 0.78594 0.78416 0.0
C2278 C 0.96707 0.78101 0.79115 0.0
H2279 H 0.80653 0.92015 0.22096 0.0
H2280 H 0.84918 0.93674 0.22825 0.0
H2281 H 0.83922 0.95764 0.24001 0.0
H2282 H 0.7897 0.95403 0.21431 0.0
H2283 H 0.77358 0.949 0.22339 0.0
H2284 H 0.78406 0.93572 0.21485 0.0
H2285 H 0.78564 0.92176 0.23856 0.0
H2286 H 0.77517 0.93499 0.24715 0.0
H2287 H 0.79239 0.93053 0.25422 0.0
H2288 H 0.82453 0.97626 0.25227 0.0
H2289 H 0.80636 0.99081 0.26392 0.0
H2290 H 0.77338 0.96229 0.24815 0.0
C2291 C 0.81379 0.92817 0.22501 0.0
C2292 C 0.82867 0.92677 0.22356 0.0
C2293 C 0.83775 0.93763 0.22896 0.0
C2294 C 0.83219 0.94953 0.23574 0.0
C2295 C 0.8175 0.95052 0.23705 0.0
C2296 C 0.80842 0.94015 0.23178 0.0
C2297 C 0.79306 0.94356 0.23488 0.0
C2298 C 0.7846 0.94571 0.22103 0.0
C2299 C 0.78616 0.93203 0.24426 0.0
C2300 C 0.79493 0.95735 0.24288 0.0
C2301 C 0.80908 0.96124 0.24399 0.0
C2302 C 0.81339 0.97338 0.25134 0.0
C2303 C 0.80298 0.98164 0.25786 0.0
C2304 C 0.78839 0.97775 0.25701 0.0
C2305 C 0.78442 0.96552 0.24919 0.0
H2306 H 0.11216 0.79815 0.2135 0.0
H2307 H 0.1004 0.84209 0.21869 0.0
H2308 H 0.07932 0.83446 0.23242 0.0
H2309 H 0.07665 0.78363 0.21007 0.0
H2310 H 0.08068 0.76782 0.22001 0.0
H2311 H 0.09443 0.77676 0.21006 0.0
H2312 H 0.10994 0.77873 0.23282 0.0
H2313 H 0.09627 0.76975 0.24282 0.0
H2314 H 0.10273 0.78689 0.24842 0.0
H2315 H 0.05972 0.82177 0.24646 0.0
H2316 H 0.04411 0.80527 0.25999 0.0
H2317 H 0.06907 0.76994 0.24549 0.0
C2318 C 0.10523 0.80621 0.21757 0.0
C2319 C 0.10799 0.82075 0.21496 0.0
C2320 C 0.09845 0.83088 0.22035 0.0
C2321 C 0.08646 0.82665 0.22822 0.0
C2322 C 0.08411 0.81223 0.23062 0.0
C2323 C 0.09326 0.80219 0.22545 0.0
C2324 C 0.08863 0.78739 0.22978 0.0
C2325 C 0.08487 0.77837 0.2167 0.0
C2326 C 0.10007 0.78028 0.23901 0.0
C2327 C 0.07554 0.79067 0.23834 0.0
C2328 C 0.07299 0.80503 0.23866 0.0
C2329 C 0.06159 0.8105 0.24621 0.0
C2330 C 0.05273 0.80106 0.2538 0.0
C2331 C 0.05539 0.78633 0.25385 0.0
C2332 C 0.06683 0.78116 0.24579 0.0
H2333 H 0.916 0.21715 0.22495 0.0
H2334 H 0.93378 0.22365 0.18296 0.0
H2335 H 0.95504 0.23496 0.19367 0.0
H2336 H 0.9277 0.24956 0.23961 0.0
H2337 H 0.93172 0.24241 0.25693 0.0
H2338 H 0.91824 0.23411 0.24605 0.0
H2339 H 0.93132 0.2102 0.24791 0.0
H2340 H 0.94481 0.21842 0.25887 0.0
H2341 H 0.94974 0.20933 0.24289 0.0
H2342 H 0.97382 0.24688 0.20893 0.0
H2343 H 0.98859 0.25822 0.22756 0.0
H2344 H 0.95909 0.24286 0.2596 0.0
C2345 C 0.92447 0.22071 0.21801 0.0
C2346 C 0.92315 0.21954 0.20309 0.0
C2347 C 0.93441 0.22459 0.1944 0.0
C2348 C 0.94659 0.23095 0.20039 0.0
C2349 C 0.94745 0.23212 0.21511 0.0
C2350 C 0.93672 0.22706 0.22381 0.0
C2351 C 0.94006 0.23004 0.23928 0.0
C2352 C 0.92876 0.2396 0.24585 0.0
C2353 C 0.94158 0.21617 0.24774 0.0
C2354 C 0.95421 0.23774 0.23789 0.0
C2355 C 0.95833 0.2388 0.22388 0.0
C2356 C 0.97078 0.24597 0.21997 0.0
C2357 C 0.97915 0.25231 0.23064 0.0
C2358 C 0.97507 0.25146 0.24509 0.0
C2359 C 0.96249 0.24388 0.24867 0.0
H2360 H 0.23886 0.71163 0.61778 0.0
H2361 H 0.19711 0.70492 0.59898 0.0
H2362 H 0.20505 0.71735 0.5772 0.0
H2363 H 0.24488 0.74624 0.6038 0.0
H2364 H 0.26358 0.74371 0.60087 0.0
H2365 H 0.25463 0.734 0.61475 0.0
H2366 H 0.2631 0.71041 0.60392 0.0
H2367 H 0.27203 0.72006 0.58996 0.0
H2368 H 0.25909 0.7065 0.5856 0.0
H2369 H 0.21765 0.731 0.55747 0.0
H2370 H 0.2333 0.7458 0.54226 0.0
H2371 H 0.26691 0.74273 0.57382 0.0
C2372 C 0.23141 0.71262 0.60903 0.0
C2373 C 0.21734 0.70724 0.61012 0.0
C2374 C 0.20788 0.70906 0.5985 0.0
C2375 C 0.21234 0.716 0.58602 0.0
C2376 C 0.2263 0.72108 0.58529 0.0
C2377 C 0.23567 0.71951 0.59653 0.0
C2378 C 0.24997 0.72628 0.59328 0.0
C2379 C 0.25346 0.73827 0.6038 0.0
C2380 C 0.26174 0.71515 0.59318 0.0
C2381 C 0.24718 0.73202 0.5785 0.0
C2382 C 0.2335 0.72885 0.57401 0.0
C2383 C 0.22841 0.73345 0.56085 0.0
C2384 C 0.23742 0.74177 0.55222 0.0
C2385 C 0.25135 0.74546 0.5568 0.0
C2386 C 0.2563 0.74021 0.57001 0.0
H2387 H 0.79458 0.71194 0.62166 0.0
H2388 H 0.83562 0.70555 0.60208 0.0
H2389 H 0.82753 0.71858 0.58076 0.0
H2390 H 0.77336 0.70787 0.58959 0.0
H2391 H 0.76099 0.72137 0.5945 0.0
H2392 H 0.76992 0.71127 0.60807 0.0
H2393 H 0.77944 0.73449 0.61945 0.0
H2394 H 0.77053 0.74465 0.60595 0.0
H2395 H 0.78938 0.74696 0.60874 0.0
H2396 H 0.81503 0.73272 0.5617 0.0
H2397 H 0.79954 0.74782 0.54695 0.0
H2398 H 0.7665 0.74436 0.5788 0.0
C2399 C 0.80183 0.71314 0.61283 0.0
C2400 C 0.81574 0.7077 0.61355 0.0
C2401 C 0.82497 0.70975 0.60185 0.0
C2402 C 0.82043 0.71704 0.58965 0.0
C2403 C 0.80663 0.72221 0.58929 0.0
C2404 C 0.79748 0.72039 0.6006 0.0
C2405 C 0.78334 0.72735 0.59772 0.0
C2406 C 0.77119 0.7163 0.59745 0.0
C2407 C 0.78051 0.73906 0.60861 0.0
C2408 C 0.786 0.73348 0.58307 0.0
C2409 C 0.79945 0.73033 0.57835 0.0
C2410 C 0.80443 0.73517 0.56526 0.0
C2411 C 0.79551 0.74366 0.5569 0.0
C2412 C 0.78177 0.74727 0.56167 0.0
C2413 C 0.77696 0.74188 0.57486 0.0
H2414 H 0.81393 0.30973 0.6188 0.0
H2415 H 0.80852 0.3514 0.60009 0.0
H2416 H 0.79786 0.34048 0.57873 0.0
H2417 H 0.82277 0.29161 0.58553 0.0
H2418 H 0.81329 0.27565 0.59051 0.0
H2419 H 0.82125 0.28673 0.60399 0.0
H2420 H 0.79686 0.28853 0.61645 0.0
H2421 H 0.78882 0.27753 0.60298 0.0
H2422 H 0.78174 0.29478 0.60652 0.0
H2423 H 0.7862 0.32504 0.56 0.0
H2424 H 0.77483 0.30633 0.54544 0.0
H2425 H 0.78907 0.27469 0.57574 0.0
C2426 C 0.81077 0.31656 0.61011 0.0
C2427 C 0.81203 0.33146 0.61122 0.0
C2428 C 0.8075 0.33998 0.59964 0.0
C2429 C 0.80151 0.33387 0.58739 0.0
C2430 C 0.8002 0.31918 0.58676 0.0
C2431 C 0.80481 0.31062 0.59777 0.0
C2432 C 0.80173 0.29515 0.59464 0.0
C2433 C 0.81558 0.2868 0.5936 0.0
C2434 C 0.79169 0.28862 0.60581 0.0
C2435 C 0.79445 0.29637 0.58028 0.0
C2436 C 0.79372 0.3103 0.57588 0.0
C2437 C 0.78689 0.31407 0.56325 0.0
C2438 C 0.78052 0.30334 0.55499 0.0
C2439 C 0.78101 0.28897 0.55936 0.0
C2440 C 0.78832 0.28554 0.5721 0.0
H2441 H 0.23334 0.32342 0.61708 0.0
H2442 H 0.18926 0.31503 0.60575 0.0
H2443 H 0.19706 0.3012 0.58506 0.0
H2444 H 0.24684 0.3267 0.58145 0.0
H2445 H 0.26328 0.31799 0.58562 0.0
H2446 H 0.25417 0.3277 0.59916 0.0
H2447 H 0.2537 0.30537 0.61527 0.0
H2448 H 0.26285 0.29562 0.60181 0.0
H2449 H 0.2461 0.28909 0.60854 0.0
H2450 H 0.20996 0.28758 0.56574 0.0
H2451 H 0.22675 0.27493 0.55025 0.0
H2452 H 0.26212 0.29223 0.57462 0.0
C2453 C 0.22529 0.31861 0.61034 0.0
C2454 C 0.21066 0.32037 0.61311 0.0
C2455 C 0.20053 0.31404 0.6038 0.0
C2456 C 0.20486 0.3061 0.59203 0.0
C2457 C 0.21937 0.30457 0.58966 0.0
C2458 C 0.22941 0.31065 0.59859 0.0
C2459 C 0.24434 0.30719 0.59397 0.0
C2460 C 0.25264 0.3207 0.5898 0.0
C2461 C 0.25221 0.29882 0.60559 0.0
C2462 C 0.24116 0.29807 0.58114 0.0
C2463 C 0.22671 0.29673 0.57872 0.0
C2464 C 0.2213 0.28861 0.56753 0.0
C2465 C 0.2309 0.28152 0.55873 0.0
C2466 C 0.24574 0.28253 0.56124 0.0
C2467 C 0.25083 0.2911 0.57251 0.0
H2468 H 0.23314 0.32244 0.42357 0.0
H2469 H 0.1919 0.32719 0.44324 0.0
H2470 H 0.20069 0.3149 0.46473 0.0
H2471 H 0.23966 0.28771 0.43644 0.0
H2472 H 0.25843 0.29069 0.43913 0.0
H2473 H 0.24908 0.30054 0.42569 0.0
H2474 H 0.25784 0.32405 0.43706 0.0
H2475 H 0.26718 0.31426 0.45058 0.0
H2476 H 0.25435 0.32731 0.45556 0.0
H2477 H 0.21372 0.30089 0.48363 0.0
H2478 H 0.2297 0.28597 0.49805 0.0
H2479 H 0.2625 0.29096 0.46612 0.0
C2480 C 0.22593 0.32087 0.43237 0.0
C2481 C 0.21182 0.32579 0.4317 0.0
C2482 C 0.2028 0.32366 0.44355 0.0
C2483 C 0.20769 0.31666 0.45579 0.0
C2484 C 0.22165 0.31192 0.45607 0.0
C2485 C 0.23064 0.31395 0.44466 0.0
C2486 C 0.24504 0.30751 0.44746 0.0
C2487 C 0.24823 0.29592 0.43653 0.0
C2488 C 0.25679 0.31897 0.44768 0.0
C2489 C 0.24266 0.30128 0.46211 0.0
C2490 C 0.22915 0.304 0.46695 0.0
C2491 C 0.22438 0.29882 0.48 0.0
C2492 C 0.23358 0.29043 0.48817 0.0
C2493 C 0.24738 0.28726 0.48326 0.0
C2494 C 0.25199 0.29305 0.47016 0.0
H2495 H 0.22708 0.71775 0.41916 0.0
H2496 H 0.18526 0.719 0.43828 0.0
H2497 H 0.1956 0.73063 0.45944 0.0
H2498 H 0.24683 0.71107 0.45175 0.0
H2499 H 0.26168 0.72216 0.4466 0.0
H2500 H 0.25107 0.71336 0.43322 0.0
H2501 H 0.2464 0.73749 0.42097 0.0
H2502 H 0.25697 0.74635 0.43431 0.0
H2503 H 0.23891 0.75168 0.43111 0.0
H2504 H 0.21042 0.74332 0.47816 0.0
H2505 H 0.22852 0.75575 0.49279 0.0
H2506 H 0.26066 0.74569 0.46166 0.0
C2507 C 0.22008 0.72046 0.42779 0.0
C2508 C 0.20533 0.71737 0.42703 0.0
C2509 C 0.19661 0.72102 0.43865 0.0
C2510 C 0.20237 0.72771 0.45071 0.0
C2511 C 0.21692 0.73067 0.45107 0.0
C2512 C 0.22566 0.72711 0.43993 0.0
C2513 C 0.2409 0.73168 0.44284 0.0
C2514 C 0.25069 0.7188 0.44365 0.0
C2515 C 0.24609 0.74244 0.43164 0.0
C2516 C 0.23932 0.73854 0.45726 0.0
C2517 C 0.22543 0.73783 0.46186 0.0
C2518 C 0.22137 0.74381 0.47471 0.0
C2519 C 0.23176 0.75078 0.48301 0.0
C2520 C 0.24608 0.75173 0.47846 0.0
C2521 C 0.24982 0.74534 0.46544 0.0
H2522 H 0.80747 0.7182 0.42614 0.0
H2523 H 0.8496 0.72376 0.44447 0.0
H2524 H 0.83912 0.73506 0.46546 0.0
H2525 H 0.7941 0.75136 0.43703 0.0
H2526 H 0.77645 0.7447 0.44065 0.0
H2527 H 0.78719 0.73621 0.42752 0.0
H2528 H 0.78411 0.71224 0.44074 0.0
H2529 H 0.77335 0.72067 0.45392 0.0
H2530 H 0.7889 0.71101 0.45926 0.0
H2531 H 0.82405 0.74708 0.48397 0.0
H2532 H 0.80566 0.75883 0.49821 0.0
H2533 H 0.77348 0.74506 0.46789 0.0
C2534 C 0.81451 0.72177 0.43457 0.0
C2535 C 0.82938 0.71999 0.43364 0.0
C2536 C 0.83816 0.72475 0.44499 0.0
C2537 C 0.83232 0.73126 0.45695 0.0
C2538 C 0.81764 0.73292 0.45747 0.0
C2539 C 0.80885 0.72827 0.44658 0.0
C2540 C 0.79348 0.7317 0.44952 0.0
C2541 C 0.78745 0.74158 0.438 0.0
C2542 C 0.78443 0.71809 0.45095 0.0
C2543 C 0.79501 0.73921 0.46363 0.0
C2544 C 0.80901 0.73976 0.4681 0.0
C2545 C 0.81303 0.74659 0.48063 0.0
C2546 C 0.80249 0.75317 0.48871 0.0
C2547 C 0.78809 0.7529 0.48421 0.0
C2548 C 0.78439 0.74561 0.47158 0.0
H2549 H 0.79769 0.32303 0.4232 0.0
H2550 H 0.84169 0.3194 0.43665 0.0
H2551 H 0.83397 0.30593 0.45787 0.0
H2552 H 0.78256 0.3268 0.45808 0.0
H2553 H 0.76692 0.31638 0.45387 0.0
H2554 H 0.77591 0.32623 0.44009 0.0
H2555 H 0.7785 0.30325 0.42544 0.0
H2556 H 0.76947 0.29335 0.43914 0.0
H2557 H 0.78687 0.2881 0.43344 0.0
H2558 H 0.82123 0.292 0.47748 0.0
H2559 H 0.80471 0.27846 0.49302 0.0
H2560 H 0.76933 0.29136 0.46646 0.0
C2561 C 0.80575 0.31935 0.43053 0.0
C2562 C 0.82033 0.32234 0.4282 0.0
C2563 C 0.83045 0.31746 0.43826 0.0
C2564 C 0.82617 0.30973 0.45033 0.0
C2565 C 0.81172 0.30696 0.45227 0.0
C2566 C 0.80168 0.31162 0.44261 0.0
C2567 C 0.78684 0.307 0.4469 0.0
C2568 C 0.77751 0.31987 0.44992 0.0
C2569 C 0.78002 0.29735 0.43556 0.0
C2570 C 0.79009 0.29885 0.46039 0.0
C2571 C 0.80447 0.29899 0.46341 0.0
C2572 C 0.80994 0.29189 0.47524 0.0
C2573 C 0.80048 0.2843 0.48406 0.0
C2574 C 0.78573 0.2838 0.48096 0.0
C2575 C 0.78055 0.2914 0.46906 0.0
H2576 H 0.11649 0.71628 0.72916 0.0
H2577 H 0.09914 0.72121 0.68664 0.0
H2578 H 0.07807 0.73279 0.69654 0.0
H2579 H 0.08287 0.7094 0.74692 0.0
H2580 H 0.0879 0.71925 0.76255 0.0
H2581 H 0.10129 0.71072 0.75216 0.0
H2582 H 0.11476 0.73468 0.74936 0.0
H2583 H 0.1014 0.74327 0.75973 0.0
H2584 H 0.10554 0.74973 0.74217 0.0
H2585 H 0.05932 0.74506 0.71108 0.0
H2586 H 0.04458 0.75683 0.72905 0.0
H2587 H 0.07395 0.74343 0.76204 0.0
C2588 C 0.10827 0.71978 0.72191 0.0
C2589 C 0.1095 0.71772 0.70709 0.0
C2590 C 0.09839 0.7224 0.69804 0.0
C2591 C 0.08639 0.72908 0.70356 0.0
C2592 C 0.08557 0.731 0.71819 0.0
C2593 C 0.0962 0.72644 0.72725 0.0
C2594 C 0.09288 0.73005 0.74253 0.0
C2595 C 0.09113 0.71655 0.75157 0.0
C2596 C 0.10432 0.74003 0.74881 0.0
C2597 C 0.07884 0.73753 0.74063 0.0
C2598 C 0.07476 0.73794 0.72653 0.0
C2599 C 0.06235 0.74468 0.72218 0.0
C2600 C 0.05398 0.75127 0.73249 0.0
C2601 C 0.05803 0.75109 0.74702 0.0
C2602 C 0.07058 0.74393 0.75104 0.0
H2603 H 0.80593 0.61546 0.72325 0.0
H2604 H 0.84453 0.59203 0.71585 0.0
H2605 H 0.83311 0.57049 0.72573 0.0
H2606 H 0.79774 0.59998 0.75634 0.0
H2607 H 0.77879 0.59951 0.75349 0.0
H2608 H 0.78955 0.61276 0.74473 0.0
H2609 H 0.7796 0.60464 0.72033 0.0
H2610 H 0.76878 0.59136 0.72903 0.0
H2611 H 0.78093 0.58633 0.71528 0.0
H2612 H 0.81825 0.55208 0.73833 0.0
H2613 H 0.80105 0.53818 0.7525 0.0
H2614 H 0.77176 0.57331 0.7509 0.0
C2615 C 0.81196 0.60577 0.72363 0.0
C2616 C 0.82612 0.60543 0.71871 0.0
C2617 C 0.8336 0.59252 0.71934 0.0
C2618 C 0.82723 0.58023 0.72498 0.0
C2619 C 0.81331 0.58098 0.72986 0.0
C2620 C 0.80573 0.5934 0.72916 0.0
C2621 C 0.79112 0.59151 0.73564 0.0
C2622 C 0.7892 0.60153 0.7483 0.0
C2623 C 0.77942 0.59358 0.7244 0.0
C2624 C 0.79182 0.5762 0.74043 0.0
C2625 C 0.80467 0.57029 0.73692 0.0
C2626 C 0.80806 0.55652 0.74093 0.0
C2627 C 0.79815 0.54866 0.74892 0.0
C2628 C 0.78496 0.55456 0.75282 0.0
C2629 C 0.78175 0.56846 0.74823 0.0
H2630 H 0.91483 0.31487 0.73005 0.0
H2631 H 0.93292 0.31125 0.68794 0.0
H2632 H 0.95399 0.29972 0.69824 0.0
H2633 H 0.94801 0.32175 0.74884 0.0
H2634 H 0.94288 0.31143 0.76417 0.0
H2635 H 0.92952 0.32001 0.75354 0.0
H2636 H 0.91648 0.29594 0.74997 0.0
H2637 H 0.92979 0.28728 0.76058 0.0
H2638 H 0.92606 0.28122 0.74281 0.0
H2639 H 0.97274 0.28746 0.71312 0.0
H2640 H 0.98742 0.27553 0.73133 0.0
H2641 H 0.95721 0.28747 0.76367 0.0
C2642 C 0.92321 0.31165 0.72297 0.0
C2643 C 0.92219 0.31407 0.70816 0.0
C2644 C 0.9335 0.30977 0.69934 0.0
C2645 C 0.94551 0.30312 0.70508 0.0
C2646 C 0.94612 0.30085 0.7197 0.0
C2647 C 0.93528 0.30502 0.72853 0.0
C2648 C 0.9384 0.30107 0.74384 0.0
C2649 C 0.93978 0.31436 0.75314 0.0
C2650 C 0.92701 0.29076 0.74963 0.0
C2651 C 0.95258 0.29386 0.74222 0.0
C2652 C 0.9569 0.29388 0.72823 0.0
C2653 C 0.96951 0.2875 0.72413 0.0
C2654 C 0.97784 0.28081 0.73457 0.0
C2655 C 0.97353 0.28054 0.74898 0.0
C2656 C 0.96078 0.28733 0.75276 0.0
H2657 H 0.22655 0.4196 0.72042 0.0
H2658 H 0.1844 0.43693 0.72546 0.0
H2659 H 0.19483 0.45779 0.73752 0.0
H2660 H 0.23989 0.43003 0.75422 0.0
H2661 H 0.25754 0.43419 0.74799 0.0
H2662 H 0.24686 0.42104 0.73897 0.0
H2663 H 0.24991 0.43479 0.71527 0.0
H2664 H 0.26063 0.44797 0.72423 0.0
H2665 H 0.24508 0.45318 0.71434 0.0
H2666 H 0.20979 0.47619 0.75036 0.0
H2667 H 0.2281 0.49063 0.76269 0.0
H2668 H 0.26047 0.46151 0.74883 0.0
C2669 C 0.2195 0.42779 0.72403 0.0
C2670 C 0.20464 0.42662 0.72188 0.0
C2671 C 0.19584 0.43766 0.72672 0.0
C2672 C 0.20165 0.44953 0.73367 0.0
C2673 C 0.21632 0.45028 0.73569 0.0
C2674 C 0.22513 0.43973 0.73096 0.0
C2675 C 0.2405 0.44292 0.73478 0.0
C2676 C 0.24655 0.43136 0.74457 0.0
C2677 C 0.24956 0.44483 0.72135 0.0
C2678 C 0.23893 0.4568 0.74259 0.0
C2679 C 0.22491 0.4609 0.74297 0.0
C2680 C 0.22083 0.47315 0.75 0.0
C2681 C 0.23133 0.48135 0.75691 0.0
C2682 C 0.24578 0.47728 0.75675 0.0
C2683 C 0.24953 0.46489 0.74931 0.0
H2684 H 0.11042 0.29615 0.32646 0.0
H2685 H 0.0972 0.33991 0.32359 0.0
H2686 H 0.07669 0.33258 0.30866 0.0
H2687 H 0.10138 0.28651 0.29104 0.0
H2688 H 0.0953 0.26894 0.29577 0.0
H2689 H 0.1087 0.2777 0.3064 0.0
H2690 H 0.09313 0.27419 0.32879 0.0
H2691 H 0.07967 0.26543 0.31822 0.0
H2692 H 0.07517 0.2806 0.32874 0.0
H2693 H 0.05756 0.3202 0.29369 0.0
H2694 H 0.04227 0.30403 0.27941 0.0
H2695 H 0.06796 0.26857 0.29289 0.0
C2696 C 0.10313 0.3042 0.32285 0.0
C2697 C 0.10542 0.31862 0.32625 0.0
C2698 C 0.09576 0.32882 0.32102 0.0
C2699 C 0.08402 0.32474 0.31262 0.0
C2700 C 0.08207 0.31042 0.30952 0.0
C2701 C 0.0914 0.30033 0.31447 0.0
C2702 C 0.08717 0.28568 0.30943 0.0
C2703 C 0.09883 0.27934 0.3001 0.0
C2704 C 0.08357 0.2759 0.32205 0.0
C2705 C 0.07404 0.28908 0.30079 0.0
C2706 C 0.07119 0.30338 0.30099 0.0
C2707 C 0.05968 0.30897 0.29352 0.0
C2708 C 0.051 0.29971 0.28551 0.0
C2709 C 0.05394 0.28505 0.28498 0.0
C2710 C 0.06551 0.27974 0.29292 0.0
H2711 H 0.218 0.61432 0.30925 0.0
H2712 H 0.20733 0.58994 0.34698 0.0
H2713 H 0.21642 0.56839 0.33567 0.0
H2714 H 0.20914 0.58606 0.28331 0.0
H2715 H 0.22371 0.59095 0.27187 0.0
H2716 H 0.21524 0.60422 0.28245 0.0
H2717 H 0.23961 0.61115 0.29353 0.0
H2718 H 0.24813 0.59788 0.28305 0.0
H2719 H 0.25012 0.59773 0.30209 0.0
H2720 H 0.22865 0.54994 0.32116 0.0
H2721 H 0.24308 0.5361 0.30462 0.0
H2722 H 0.24461 0.57203 0.27567 0.0
C2723 C 0.21727 0.60439 0.31501 0.0
C2724 C 0.21197 0.60387 0.32905 0.0
C2725 C 0.21149 0.59068 0.3363 0.0
C2726 C 0.21653 0.57834 0.32992 0.0
C2727 C 0.22193 0.57928 0.3162 0.0
C2728 C 0.22224 0.59194 0.30878 0.0
C2729 C 0.22929 0.59021 0.29446 0.0
C2730 C 0.21871 0.59302 0.28231 0.0
C2731 C 0.24257 0.59981 0.29322 0.0
C2732 C 0.23322 0.5747 0.29516 0.0
C2733 C 0.22878 0.56856 0.30773 0.0
C2734 C 0.23197 0.55457 0.31116 0.0
C2735 C 0.24011 0.54674 0.30161 0.0
C2736 C 0.24503 0.55287 0.28873 0.0
C2737 C 0.24119 0.56698 0.28542 0.0
H2738 H 0.91629 0.72737 0.32075 0.0
H2739 H 0.9402 0.68934 0.32963 0.0
H2740 H 0.96173 0.70074 0.31977 0.0
H2741 H 0.93193 0.73534 0.28804 0.0
H2742 H 0.93235 0.75427 0.29037 0.0
H2743 H 0.91908 0.74367 0.29929 0.0
H2744 H 0.9272 0.75396 0.32351 0.0
H2745 H 0.94047 0.76467 0.31464 0.0
H2746 H 0.94561 0.75282 0.32877 0.0
H2747 H 0.98007 0.71537 0.30698 0.0
H2748 H 0.99389 0.73217 0.29232 0.0
H2749 H 0.95863 0.76139 0.29291 0.0
C2750 C 0.92613 0.72156 0.32093 0.0
C2751 C 0.92651 0.70742 0.32594 0.0
C2752 C 0.93957 0.7001 0.32569 0.0
C2753 C 0.9519 0.70653 0.32021 0.0
C2754 C 0.95109 0.72036 0.3151 0.0
C2755 C 0.93858 0.72784 0.3155 0.0
C2756 C 0.94043 0.74231 0.30864 0.0
C2757 C 0.93035 0.74398 0.29583 0.0
C2758 C 0.9383 0.75414 0.31954 0.0
C2759 C 0.95581 0.74162 0.304 0.0
C2760 C 0.96179 0.72891 0.30793 0.0
C2761 C 0.97559 0.72547 0.30407 0.0
C2762 C 0.98341 0.73517 0.2958 0.0
C2763 C 0.97747 0.74823 0.29145 0.0
C2764 C 0.96354 0.75151 0.29591 0.0
H2765 H 0.8217 0.41722 0.29969 0.0
H2766 H 0.8294 0.43519 0.34141 0.0
H2767 H 0.81696 0.45692 0.33404 0.0
H2768 H 0.82661 0.44986 0.27965 0.0
H2769 H 0.8127 0.44562 0.26707 0.0
H2770 H 0.8225 0.43163 0.27554 0.0
H2771 H 0.79896 0.42034 0.28456 0.0
H2772 H 0.7891 0.43425 0.27608 0.0
H2773 H 0.78695 0.43088 0.2948 0.0
H2774 H 0.80315 0.47669 0.32209 0.0
H2775 H 0.78811 0.49205 0.30708 0.0
H2776 H 0.79017 0.46136 0.27303 0.0
C2777 C 0.82093 0.42577 0.30725 0.0
C2778 C 0.82657 0.42444 0.32116 0.0
C2779 C 0.82505 0.43584 0.33076 0.0
C2780 C 0.81809 0.44829 0.32663 0.0
C2781 C 0.81271 0.44925 0.31283 0.0
C2782 C 0.81402 0.43826 0.30331 0.0
C2783 C 0.80692 0.44174 0.28925 0.0
C2784 C 0.81784 0.44224 0.27717 0.0
C2785 C 0.79476 0.43118 0.28599 0.0
C2786 C 0.8013 0.45635 0.29238 0.0
C2787 C 0.80482 0.46056 0.306 0.0
C2788 C 0.80042 0.47352 0.31138 0.0
C2789 C 0.79197 0.48224 0.30272 0.0
C2790 C 0.78792 0.47797 0.28885 0.0
C2791 C 0.79295 0.46494 0.28361 0.0
H2792 H 0.22978 0.61626 0.72366 0.0
H2793 H 0.19105 0.5926 0.71419 0.0
H2794 H 0.20179 0.57099 0.72414 0.0
H2795 H 0.25447 0.58759 0.71604 0.0
H2796 H 0.26635 0.59241 0.73036 0.0
H2797 H 0.25598 0.60579 0.72159 0.0
H2798 H 0.24553 0.6132 0.7458 0.0
H2799 H 0.25586 0.59987 0.75463 0.0
H2800 H 0.23685 0.60006 0.7568 0.0
H2801 H 0.21607 0.55237 0.73694 0.0
H2802 H 0.23271 0.53831 0.75139 0.0
H2803 H 0.26258 0.57379 0.7516 0.0
C2804 C 0.22358 0.60652 0.72361 0.0
C2805 C 0.20957 0.60615 0.71806 0.0
C2806 C 0.20186 0.59314 0.71815 0.0
C2807 C 0.20786 0.5808 0.72385 0.0
C2808 C 0.22164 0.58157 0.72932 0.0
C2809 C 0.22943 0.59408 0.72917 0.0
C2810 C 0.24385 0.59216 0.73614 0.0
C2811 C 0.25587 0.59463 0.72539 0.0
C2812 C 0.24562 0.6019 0.74911 0.0
C2813 C 0.2428 0.57673 0.74055 0.0
C2814 C 0.22994 0.57078 0.73646 0.0
C2815 C 0.22627 0.55686 0.74001 0.0
C2816 C 0.23587 0.5489 0.74815 0.0
C2817 C 0.24906 0.55483 0.75268 0.0
C2818 C 0.25259 0.56888 0.74849 0.0
H2819 H 0.22492 0.41498 0.31932 0.0
H2820 H 0.18545 0.43759 0.32444 0.0
H2821 H 0.19668 0.45909 0.31427 0.0
H2822 H 0.2488 0.44503 0.32737 0.0
H2823 H 0.26166 0.43994 0.31431 0.0
H2824 H 0.25085 0.42662 0.32296 0.0
H2825 H 0.24218 0.41752 0.29844 0.0
H2826 H 0.25293 0.43081 0.28972 0.0
H2827 H 0.23412 0.4297 0.2861 0.0
H2828 H 0.21146 0.47742 0.30163 0.0
H2829 H 0.22883 0.49143 0.28785 0.0
H2830 H 0.25918 0.45735 0.29196 0.0
C2831 C 0.21867 0.42448 0.31839 0.0
C2832 C 0.20431 0.42461 0.32274 0.0
C2833 C 0.19652 0.43729 0.32139 0.0
C2834 C 0.20279 0.44954 0.31557 0.0
C2835 C 0.2169 0.44901 0.31126 0.0
C2836 C 0.22479 0.43684 0.31269 0.0
C2837 C 0.23962 0.43896 0.30678 0.0
C2838 C 0.2509 0.43756 0.31856 0.0
C2839 C 0.24237 0.42864 0.29453 0.0
C2840 C 0.2387 0.45409 0.30147 0.0
C2841 C 0.22554 0.45971 0.30422 0.0
C2842 C 0.2219 0.47323 0.29963 0.0
C2843 C 0.23192 0.48116 0.29188 0.0
C2844 C 0.2455 0.47561 0.28881 0.0
C2845 C 0.24892 0.46194 0.29394 0.0
H2846 H 0.1145 0.70964 0.29837 0.0
H2847 H 0.09716 0.70447 0.3407 0.0
H2848 H 0.0757 0.71743 0.33326 0.0
H2849 H 0.10217 0.74455 0.29234 0.0
H2850 H 0.09826 0.74178 0.27379 0.0
H2851 H 0.11198 0.73172 0.28239 0.0
H2852 H 0.09945 0.7084 0.27456 0.0
H2853 H 0.08566 0.71841 0.26597 0.0
H2854 H 0.08111 0.70527 0.27919 0.0
H2855 H 0.05623 0.73154 0.32116 0.0
H2856 H 0.04115 0.74658 0.30586 0.0
H2857 H 0.07101 0.74176 0.27134 0.0
C2858 C 0.10613 0.71107 0.30605 0.0
C2859 C 0.10755 0.70599 0.32014 0.0
C2860 C 0.09642 0.70837 0.3299 0.0
C2861 C 0.08413 0.71562 0.32573 0.0
C2862 C 0.08307 0.72044 0.31175 0.0
C2863 C 0.09381 0.71828 0.30207 0.0
C2864 C 0.0903 0.72491 0.28782 0.0
C2865 C 0.10133 0.73642 0.28386 0.0
C2866 C 0.08905 0.71357 0.2762 0.0
C2867 C 0.07599 0.73126 0.29101 0.0
C2868 C 0.07193 0.7285 0.30483 0.0
C2869 C 0.05927 0.73367 0.31029 0.0
C2870 C 0.05071 0.74213 0.30148 0.0
C2871 C 0.05486 0.7454 0.28739 0.0
C2872 C 0.06756 0.73959 0.28209 0.0
H2873 H 0.79625 0.61531 0.3307 0.0
H2874 H 0.83818 0.59739 0.336 0.0
H2875 H 0.8301 0.57581 0.32342 0.0
H2876 H 0.77617 0.5825 0.33504 0.0
H2877 H 0.76314 0.58708 0.32175 0.0
H2878 H 0.77203 0.60081 0.33177 0.0
H2879 H 0.78034 0.61281 0.30838 0.0
H2880 H 0.77142 0.59916 0.29831 0.0
H2881 H 0.79009 0.60266 0.29563 0.0
H2882 H 0.81765 0.55657 0.30913 0.0
H2883 H 0.80214 0.54173 0.29381 0.0
H2884 H 0.76829 0.5721 0.29837 0.0
C2885 C 0.80377 0.60688 0.3292 0.0
C2886 C 0.81787 0.60807 0.3344 0.0
C2887 C 0.82728 0.59668 0.33231 0.0
C2888 C 0.82279 0.58438 0.32513 0.0
C2889 C 0.80883 0.58358 0.32014 0.0
C2890 C 0.79946 0.59453 0.32209 0.0
C2891 C 0.78515 0.59121 0.31536 0.0
C2892 C 0.77343 0.59035 0.32666 0.0
C2893 C 0.78154 0.60211 0.30373 0.0
C2894 C 0.788 0.57679 0.3091 0.0
C2895 C 0.80168 0.57251 0.31204 0.0
C2896 C 0.80687 0.55977 0.30688 0.0
C2897 C 0.79794 0.55134 0.29827 0.0
C2898 C 0.78397 0.5557 0.29484 0.0
C2899 C 0.77893 0.56848 0.30065 0.0
H2900 H 0.91811 0.31498 0.30995 0.0
H2901 H 0.93712 0.30949 0.3517 0.0
H2902 H 0.9578 0.29813 0.34082 0.0
H2903 H 0.92869 0.28241 0.29572 0.0
H2904 H 0.93239 0.28919 0.27819 0.0
H2905 H 0.91943 0.2977 0.28911 0.0
H2906 H 0.93304 0.3216 0.28653 0.0
H2907 H 0.946 0.31318 0.2755 0.0
H2908 H 0.95163 0.32262 0.2912 0.0
H2909 H 0.9757 0.28578 0.32555 0.0
H2910 H 0.98962 0.27401 0.30698 0.0
H2911 H 0.95972 0.28878 0.27506 0.0
C2912 C 0.92674 0.31165 0.31679 0.0
C2913 C 0.92589 0.31307 0.33172 0.0
C2914 C 0.93737 0.30833 0.34027 0.0
C2915 C 0.94923 0.30194 0.33418 0.0
C2916 C 0.9496 0.30045 0.31948 0.0
C2917 C 0.93872 0.30528 0.31088 0.0
C2918 C 0.94154 0.30197 0.29542 0.0
C2919 C 0.92982 0.29224 0.28925 0.0
C2920 C 0.94315 0.31566 0.28665 0.0
C2921 C 0.95555 0.29432 0.29672 0.0
C2922 C 0.96005 0.29358 0.31067 0.0
C2923 C 0.97239 0.28647 0.31455 0.0
C2924 C 0.98029 0.27988 0.30389 0.0
C2925 C 0.97587 0.28044 0.28947 0.0
C2926 C 0.96338 0.28796 0.28594 0.0
H2927 H 0.81844 0.41668 0.7425 0.0
H2928 H 0.82652 0.43639 0.70156 0.0
H2929 H 0.81419 0.45789 0.70945 0.0
H2930 H 0.78376 0.43032 0.74721 0.0
H2931 H 0.78578 0.43289 0.76608 0.0
H2932 H 0.79564 0.4193 0.75733 0.0
H2933 H 0.81916 0.43008 0.76715 0.0
H2934 H 0.80936 0.44374 0.7759 0.0
H2935 H 0.82338 0.44845 0.76372 0.0
H2936 H 0.80045 0.47718 0.72178 0.0
H2937 H 0.78544 0.49202 0.73702 0.0
H2938 H 0.78697 0.45987 0.77005 0.0
C2939 C 0.81777 0.42557 0.73523 0.0
C2940 C 0.82348 0.42481 0.72139 0.0
C2941 C 0.82211 0.43662 0.71215 0.0
C2942 C 0.81522 0.44894 0.71658 0.0
C2943 C 0.80975 0.44932 0.7303 0.0
C2944 C 0.81092 0.43793 0.73947 0.0
C2945 C 0.80373 0.44084 0.7535 0.0
C2946 C 0.7915 0.43021 0.75618 0.0
C2947 C 0.81456 0.44078 0.76579 0.0
C2948 C 0.79821 0.4556 0.75075 0.0
C2949 C 0.80187 0.46037 0.73735 0.0
C2950 C 0.79761 0.47358 0.73233 0.0
C2951 C 0.78916 0.48199 0.7411 0.0
C2952 C 0.78499 0.47716 0.75475 0.0
C2953 C 0.78985 0.46386 0.75964 0.0
H2954 H 0.10835 0.29835 0.71312 0.0
H2955 H 0.09827 0.34229 0.72118 0.0
H2956 H 0.07716 0.33455 0.73484 0.0
H2957 H 0.07228 0.28523 0.7096 0.0
H2958 H 0.07598 0.26873 0.71849 0.0
H2959 H 0.0898 0.27781 0.70875 0.0
H2960 H 0.10585 0.27794 0.73122 0.0
H2961 H 0.09211 0.26882 0.741 0.0
H2962 H 0.09926 0.2854 0.74745 0.0
H2963 H 0.05745 0.32168 0.74858 0.0
H2964 H 0.04166 0.3049 0.76158 0.0
H2965 H 0.06509 0.26973 0.74441 0.0
C2966 C 0.10178 0.30639 0.7178 0.0
C2967 C 0.10503 0.32095 0.71604 0.0
C2968 C 0.09594 0.33107 0.7222 0.0
C2969 C 0.08394 0.32678 0.73003 0.0
C2970 C 0.08112 0.31233 0.7316 0.0
C2971 C 0.08982 0.30231 0.72565 0.0
C2972 C 0.0848 0.28744 0.72921 0.0
C2973 C 0.08046 0.27933 0.71571 0.0
C2974 C 0.09618 0.27943 0.73773 0.0
C2975 C 0.07202 0.29062 0.73826 0.0
C2976 C 0.06995 0.30501 0.73947 0.0
C2977 C 0.05894 0.31039 0.74763 0.0
C2978 C 0.04998 0.3008 0.75492 0.0
C2979 C 0.05218 0.28602 0.75406 0.0
C2980 C 0.06321 0.28097 0.7454 0.0
H2981 H 0.91802 0.71689 0.73003 0.0
H2982 H 0.94005 0.71112 0.69016 0.0
H2983 H 0.96212 0.72065 0.70098 0.0
H2984 H 0.93399 0.7496 0.73882 0.0
H2985 H 0.93512 0.74605 0.75761 0.0
H2986 H 0.92142 0.73763 0.7471 0.0
H2987 H 0.92983 0.71301 0.75573 0.0
H2988 H 0.94357 0.72138 0.76628 0.0
H2989 H 0.94812 0.70816 0.75339 0.0
H2990 H 0.98121 0.73285 0.71552 0.0
H2991 H 0.99571 0.74665 0.73258 0.0
H2992 H 0.96156 0.7435 0.76331 0.0
C2993 C 0.92751 0.71754 0.7236 0.0
C2994 C 0.9273 0.71319 0.70925 0.0
C2995 C 0.93999 0.71417 0.70123 0.0
C2996 C 0.95257 0.71962 0.70727 0.0
C2997 C 0.95237 0.72393 0.7214 0.0
C2998 C 0.94019 0.72287 0.72949 0.0
C2999 C 0.94264 0.72879 0.74424 0.0
C3000 C 0.93271 0.74126 0.7471 0.0
C3001 C 0.94094 0.71714 0.75558 0.0
C3002 C 0.95798 0.7337 0.74305 0.0
C3003 C 0.96344 0.73073 0.72983 0.0
C3004 C 0.97712 0.73503 0.72599 0.0
C3005 C 0.98534 0.74279 0.73581 0.0
C3006 C 0.97986 0.74619 0.74936 0.0
C3007 C 0.96609 0.74123 0.75304 0.0
H3008 H 0.7149 0.22594 0.61759 0.0
H3009 H 0.72152 0.18365 0.60126 0.0
H3010 H 0.73338 0.19386 0.58021 0.0
H3011 H 0.70844 0.24305 0.58347 0.0
H3012 H 0.71778 0.25909 0.5884 0.0
H3013 H 0.70909 0.24847 0.6018 0.0
H3014 H 0.7328 0.24685 0.61581 0.0
H3015 H 0.74155 0.25745 0.60246 0.0
H3016 H 0.74835 0.24028 0.60707 0.0
H3017 H 0.74584 0.20874 0.56143 0.0
H3018 H 0.75773 0.22705 0.54667 0.0
H3019 H 0.74252 0.25954 0.57505 0.0
C3020 C 0.71882 0.2188 0.60959 0.0
C3021 C 0.71716 0.20396 0.61111 0.0
C3022 C 0.72239 0.19505 0.60028 0.0
C3023 C 0.72923 0.20075 0.58829 0.0
C3024 C 0.73076 0.21541 0.58719 0.0
C3025 C 0.72565 0.22431 0.59753 0.0
C3026 C 0.72898 0.23967 0.594 0.0
C3027 C 0.71525 0.24806 0.59178 0.0
C3028 C 0.73849 0.24646 0.60552 0.0
C3029 C 0.73694 0.23799 0.58018 0.0
C3030 C 0.73783 0.22393 0.57638 0.0
C3031 C 0.74509 0.2198 0.56424 0.0
C3032 C 0.75175 0.23029 0.55586 0.0
C3033 C 0.75112 0.24478 0.55964 0.0
C3034 C 0.7434 0.24858 0.5719 0.0
H3035 H 0.30752 0.21417 0.61688 0.0
H3036 H 0.34961 0.2202 0.59902 0.0
H3037 H 0.33912 0.23246 0.57835 0.0
H3038 H 0.2887 0.2086 0.58341 0.0
H3039 H 0.27328 0.21816 0.58904 0.0
H3040 H 0.28405 0.20903 0.60195 0.0
H3041 H 0.28741 0.23235 0.61605 0.0
H3042 H 0.27669 0.24154 0.60319 0.0
H3043 H 0.29443 0.24785 0.60716 0.0
H3044 H 0.32407 0.24544 0.56025 0.0
H3045 H 0.30569 0.2579 0.5463 0.0
H3046 H 0.27356 0.24308 0.57594 0.0
C3047 C 0.31455 0.21803 0.60862 0.0
C3048 C 0.3294 0.21613 0.60958 0.0
C3049 C 0.33818 0.22128 0.59844 0.0
C3050 C 0.33233 0.22834 0.58668 0.0
C3051 C 0.31766 0.23014 0.58615 0.0
C3052 C 0.30889 0.22508 0.59681 0.0
C3053 C 0.29354 0.22879 0.59394 0.0
C3054 C 0.28435 0.21534 0.59196 0.0
C3055 C 0.28768 0.23819 0.60579 0.0
C3056 C 0.29507 0.23692 0.58013 0.0
C3057 C 0.30904 0.23755 0.57575 0.0
C3058 C 0.31307 0.2449 0.56351 0.0
C3059 C 0.30254 0.25189 0.5556 0.0
C3060 C 0.28816 0.2515 0.56 0.0
C3061 C 0.28446 0.24374 0.57235 0.0
H3062 H 0.31543 0.80812 0.61712 0.0
H3063 H 0.31303 0.84969 0.59748 0.0
H3064 H 0.30244 0.83896 0.57599 0.0
H3065 H 0.32423 0.78886 0.58448 0.0
H3066 H 0.3137 0.77355 0.58943 0.0
H3067 H 0.32185 0.78443 0.60296 0.0
H3068 H 0.29724 0.78786 0.61456 0.0
H3069 H 0.28901 0.77707 0.60103 0.0
H3070 H 0.28283 0.79478 0.60404 0.0
H3071 H 0.29049 0.82387 0.5572 0.0
H3072 H 0.27857 0.80555 0.54258 0.0
H3073 H 0.29 0.77368 0.57386 0.0
C3074 C 0.31295 0.81495 0.6082 0.0
C3075 C 0.31502 0.82979 0.60907 0.0
C3076 C 0.31136 0.83833 0.5972 0.0
C3077 C 0.30542 0.83232 0.58488 0.0
C3078 C 0.30328 0.81771 0.58448 0.0
C3079 C 0.30703 0.80912 0.59578 0.0
C3080 C 0.30316 0.79378 0.59282 0.0
C3081 C 0.31653 0.78462 0.5924 0.0
C3082 C 0.29243 0.78804 0.60376 0.0
C3083 C 0.29643 0.79514 0.57822 0.0
C3084 C 0.29664 0.80901 0.57356 0.0
C3085 C 0.29045 0.81293 0.56065 0.0
C3086 C 0.28377 0.80241 0.55236 0.0
C3087 C 0.28332 0.7881 0.55697 0.0
C3088 C 0.28997 0.7845 0.57002 0.0
H3089 H 0.71785 0.81023 0.62017 0.0
H3090 H 0.7218 0.85163 0.60026 0.0
H3091 H 0.73255 0.84071 0.57922 0.0
H3092 H 0.75038 0.7968 0.60829 0.0
H3093 H 0.7438 0.77906 0.60524 0.0
H3094 H 0.73558 0.78996 0.6184 0.0
H3095 H 0.71112 0.7864 0.60603 0.0
H3096 H 0.71927 0.77541 0.59286 0.0
H3097 H 0.70925 0.79066 0.58744 0.0
H3098 H 0.7444 0.82549 0.56096 0.0
H3099 H 0.75606 0.80706 0.54684 0.0
H3100 H 0.74329 0.77543 0.57804 0.0
C3101 C 0.72072 0.81698 0.61128 0.0
C3102 C 0.71903 0.83182 0.61194 0.0
C3103 C 0.72317 0.84026 0.60013 0.0
C3104 C 0.7292 0.83415 0.58807 0.0
C3105 C 0.73095 0.81954 0.58788 0.0
C3106 C 0.72674 0.81104 0.59912 0.0
C3107 C 0.73026 0.79567 0.59643 0.0
C3108 C 0.74062 0.79005 0.60776 0.0
C3109 C 0.71666 0.7865 0.59564 0.0
C3110 C 0.73733 0.79692 0.58204 0.0
C3111 C 0.73757 0.81075 0.57725 0.0
C3112 C 0.74409 0.81458 0.56451 0.0
C3113 C 0.75062 0.804 0.5565 0.0
C3114 C 0.75059 0.78972 0.56123 0.0
C3115 C 0.74365 0.78622 0.57412 0.0
H3116 H 0.73465 0.82735 0.42828 0.0
H3117 H 0.69038 0.8181 0.43772 0.0
H3118 H 0.69779 0.8037 0.45837 0.0
H3119 H 0.74742 0.79293 0.4362 0.0
H3120 H 0.76397 0.79926 0.44371 0.0
H3121 H 0.75507 0.80952 0.43028 0.0
H3122 H 0.75502 0.83116 0.44712 0.0
H3123 H 0.76389 0.82094 0.46063 0.0
H3124 H 0.7473 0.82937 0.46453 0.0
H3125 H 0.71031 0.78949 0.47773 0.0
H3126 H 0.72686 0.77621 0.4933 0.0
H3127 H 0.76262 0.79459 0.47061 0.0
C3128 C 0.72648 0.82227 0.43462 0.0
C3129 C 0.71191 0.82392 0.43133 0.0
C3130 C 0.7016 0.8172 0.4401 0.0
C3131 C 0.70571 0.80894 0.45184 0.0
C3132 C 0.72017 0.80748 0.4547 0.0
C3133 C 0.73037 0.81396 0.4463 0.0
C3134 C 0.74521 0.81039 0.45129 0.0
C3135 C 0.75339 0.80256 0.43968 0.0
C3136 C 0.75333 0.82376 0.45618 0.0
C3137 C 0.74179 0.80073 0.4637 0.0
C3138 C 0.7273 0.79925 0.46562 0.0
C3139 C 0.72168 0.79062 0.47634 0.0
C3140 C 0.73113 0.78318 0.48517 0.0
C3141 C 0.746 0.78433 0.48311 0.0
C3142 C 0.7513 0.79339 0.47235 0.0
H3143 H 0.70975 0.23657 0.42142 0.0
H3144 H 0.70542 0.19442 0.43955 0.0
H3145 H 0.7182 0.20248 0.46112 0.0
H3146 H 0.7446 0.24382 0.43444 0.0
H3147 H 0.74138 0.26225 0.43786 0.0
H3148 H 0.73155 0.25321 0.4241 0.0
H3149 H 0.70791 0.26041 0.43588 0.0
H3150 H 0.71769 0.26944 0.4497 0.0
H3151 H 0.70478 0.25591 0.45423 0.0
H3152 H 0.73204 0.21522 0.48066 0.0
H3153 H 0.74673 0.23113 0.49572 0.0
H3154 H 0.74116 0.26503 0.46501 0.0
C3155 C 0.71131 0.22905 0.42998 0.0
C3156 C 0.70652 0.21484 0.42875 0.0
C3157 C 0.7091 0.20531 0.44014 0.0
C3158 C 0.71625 0.20983 0.4525 0.0
C3159 C 0.72077 0.22392 0.45336 0.0
C3160 C 0.71842 0.23338 0.44237 0.0
C3161 C 0.72473 0.24783 0.44571 0.0
C3162 C 0.73625 0.25202 0.43489 0.0
C3163 C 0.71308 0.25906 0.44643 0.0
C3164 C 0.73111 0.24502 0.46024 0.0
C3165 C 0.72865 0.23121 0.46454 0.0
C3166 C 0.73393 0.22609 0.47743 0.0
C3167 C 0.74218 0.23524 0.48598 0.0
C3168 C 0.74514 0.24934 0.48159 0.0
C3169 C 0.73922 0.25428 0.46866 0.0
H3170 H 0.32106 0.23569 0.42523 0.0
H3171 H 0.31827 0.19201 0.43959 0.0
H3172 H 0.30421 0.19949 0.46027 0.0
H3173 H 0.32411 0.25165 0.45976 0.0
H3174 H 0.31341 0.26665 0.45504 0.0
H3175 H 0.32358 0.25786 0.44164 0.0
H3176 H 0.30071 0.25391 0.42662 0.0
H3177 H 0.29047 0.26272 0.43996 0.0
H3178 H 0.28559 0.24504 0.4345 0.0
H3179 H 0.28979 0.21192 0.47929 0.0
H3180 H 0.27606 0.2281 0.49445 0.0
H3181 H 0.2885 0.26339 0.46739 0.0
C3182 C 0.31743 0.22764 0.43264 0.0
C3183 C 0.32082 0.21324 0.43073 0.0
C3184 C 0.316 0.20313 0.44088 0.0
C3185 C 0.30794 0.20727 0.45264 0.0
C3186 C 0.30478 0.22156 0.45416 0.0
C3187 C 0.30938 0.23158 0.44441 0.0
C3188 C 0.30443 0.24623 0.44831 0.0
C3189 C 0.31714 0.25618 0.45137 0.0
C3190 C 0.29472 0.25233 0.43666 0.0
C3191 C 0.2962 0.24289 0.4617 0.0
C3192 C 0.29655 0.22864 0.46498 0.0
C3193 C 0.28951 0.22311 0.47683 0.0
C3194 C 0.28179 0.23239 0.48544 0.0
C3195 C 0.28114 0.24702 0.4821 0.0
C3196 C 0.28862 0.25225 0.47015 0.0
H3197 H 0.31633 0.80668 0.41798 0.0
H3198 H 0.32651 0.84419 0.44269 0.0
H3199 H 0.31688 0.83251 0.46411 0.0
H3200 H 0.28383 0.79864 0.43417 0.0
H3201 H 0.28587 0.7797 0.43405 0.0
H3202 H 0.29465 0.79047 0.42086 0.0
H3203 H 0.31891 0.7799 0.42813 0.0
H3204 H 0.31017 0.76903 0.44132 0.0
H3205 H 0.3246 0.78071 0.44643 0.0
H3206 H 0.30412 0.81771 0.48233 0.0
H3207 H 0.28954 0.80075 0.49605 0.0
H3208 H 0.28901 0.77207 0.46008 0.0
C3209 C 0.31684 0.81233 0.42796 0.0
C3210 C 0.32214 0.82642 0.42859 0.0
C3211 C 0.32233 0.83349 0.44185 0.0
C3212 C 0.31698 0.8269 0.45412 0.0
C3213 C 0.31157 0.81314 0.45306 0.0
C3214 C 0.31157 0.80587 0.44036 0.0
C3215 C 0.30452 0.79142 0.442 0.0
C3216 C 0.29144 0.78998 0.43219 0.0
C3217 C 0.31519 0.77956 0.43931 0.0
C3218 C 0.30024 0.79187 0.4575 0.0
C3219 C 0.30448 0.80446 0.4637 0.0
C3220 C 0.30097 0.80769 0.47766 0.0
C3221 C 0.29274 0.79789 0.48543 0.0
C3222 C 0.2881 0.78493 0.47929 0.0
C3223 C 0.29222 0.78187 0.46517 0.0
H3224 H 0.61198 0.23508 0.71282 0.0
H3225 H 0.59823 0.19143 0.71885 0.0
H3226 H 0.57721 0.19961 0.73195 0.0
H3227 H 0.60233 0.24709 0.74721 0.0
H3228 H 0.59671 0.26422 0.74104 0.0
H3229 H 0.61018 0.25486 0.73154 0.0
H3230 H 0.59518 0.25666 0.70844 0.0
H3231 H 0.58162 0.26597 0.71789 0.0
H3232 H 0.57712 0.25005 0.7083 0.0
H3233 H 0.55793 0.2128 0.74533 0.0
H3234 H 0.54285 0.2297 0.75826 0.0
H3235 H 0.56948 0.26446 0.74329 0.0
C3236 C 0.60462 0.2272 0.71694 0.0
C3237 C 0.60682 0.21258 0.71475 0.0
C3238 C 0.59673 0.20269 0.72019 0.0
C3239 C 0.58477 0.20723 0.72771 0.0
C3240 C 0.58298 0.22172 0.72969 0.0
C3241 C 0.59266 0.23154 0.72446 0.0
C3242 C 0.58857 0.24647 0.72832 0.0
C3243 C 0.60013 0.25357 0.73758 0.0
C3244 C 0.58543 0.25531 0.71494 0.0
C3245 C 0.57517 0.24354 0.73671 0.0
C3246 C 0.57202 0.22923 0.73733 0.0
C3247 C 0.56027 0.22404 0.74484 0.0
C3248 C 0.55171 0.23372 0.75208 0.0
C3249 C 0.55498 0.2484 0.75183 0.0
C3250 C 0.56675 0.25329 0.74381 0.0
H3251 H 0.299 0.10881 0.71122 0.0
H3252 H 0.34304 0.09741 0.71809 0.0
H3253 H 0.33519 0.07654 0.73207 0.0
H3254 H 0.28706 0.09995 0.74594 0.0
H3255 H 0.26998 0.09335 0.74 0.0
H3256 H 0.27916 0.10682 0.72989 0.0
H3257 H 0.27769 0.09095 0.70752 0.0
H3258 H 0.26856 0.07739 0.7176 0.0
H3259 H 0.28465 0.07327 0.70827 0.0
H3260 H 0.32225 0.05717 0.74621 0.0
H3261 H 0.30547 0.04184 0.75974 0.0
H3262 H 0.27024 0.06639 0.74358 0.0
C3263 C 0.30704 0.10199 0.71571 0.0
C3264 C 0.32166 0.1048 0.71352 0.0
C3265 C 0.33177 0.09542 0.71943 0.0
C3266 C 0.32741 0.08355 0.72745 0.0
C3267 C 0.3129 0.08116 0.72943 0.0
C3268 C 0.30289 0.09016 0.72373 0.0
C3269 C 0.28798 0.08558 0.72774 0.0
C3270 C 0.28062 0.09711 0.73641 0.0
C3271 C 0.2792 0.08156 0.71449 0.0
C3272 C 0.29114 0.0727 0.73677 0.0
C3273 C 0.30555 0.07021 0.73756 0.0
C3274 C 0.31094 0.05901 0.74559 0.0
C3275 C 0.30135 0.05031 0.75318 0.0
C3276 C 0.28657 0.05296 0.75275 0.0
C3277 C 0.28149 0.06418 0.74422 0.0
H3278 H 0.41812 0.81409 0.72868 0.0
H3279 H 0.4361 0.81174 0.68643 0.0
H3280 H 0.45733 0.80016 0.69635 0.0
H3281 H 0.45132 0.82085 0.74752 0.0
H3282 H 0.44636 0.8101 0.7626 0.0
H3283 H 0.43287 0.81881 0.75224 0.0
H3284 H 0.42006 0.79471 0.74813 0.0
H3285 H 0.4335 0.78593 0.75846 0.0
H3286 H 0.42975 0.78027 0.74056 0.0
H3287 H 0.47625 0.78765 0.71086 0.0
H3288 H 0.49107 0.77535 0.7287 0.0
H3289 H 0.46091 0.78631 0.76144 0.0
C3290 C 0.4265 0.81115 0.72149 0.0
C3291 C 0.4254 0.81394 0.70674 0.0
C3292 C 0.43674 0.80998 0.69778 0.0
C3293 C 0.44884 0.80331 0.70331 0.0
C3294 C 0.44953 0.80067 0.71787 0.0
C3295 C 0.43868 0.80451 0.72684 0.0
C3296 C 0.4419 0.80021 0.74204 0.0
C3297 C 0.44319 0.81327 0.75166 0.0
C3298 C 0.43063 0.78965 0.74762 0.0
C3299 C 0.45615 0.79318 0.74018 0.0
C3300 C 0.46042 0.79359 0.72618 0.0
C3301 C 0.47306 0.78739 0.72188 0.0
C3302 C 0.48148 0.78049 0.73212 0.0
C3303 C 0.47722 0.77981 0.74653 0.0
C3304 C 0.46445 0.78646 0.75052 0.0
H3305 H 0.72686 0.9187 0.72172 0.0
H3306 H 0.6876 0.94176 0.71642 0.0
H3307 H 0.6993 0.96324 0.72599 0.0
H3308 H 0.73692 0.93356 0.75417 0.0
H3309 H 0.75568 0.93448 0.75048 0.0
H3310 H 0.74468 0.92128 0.74195 0.0
H3311 H 0.75302 0.93026 0.71729 0.0
H3312 H 0.76411 0.94349 0.72577 0.0
H3313 H 0.7511 0.94869 0.7127 0.0
H3314 H 0.71452 0.98151 0.73825 0.0
H3315 H 0.73207 0.99517 0.75226 0.0
H3316 H 0.762 0.96079 0.74836 0.0
C3317 C 0.72081 0.92835 0.72226 0.0
C3318 C 0.70628 0.92851 0.71834 0.0
C3319 C 0.69868 0.94131 0.71951 0.0
C3320 C 0.70527 0.95361 0.72483 0.0
C3321 C 0.71952 0.95302 0.72885 0.0
C3322 C 0.72724 0.94075 0.72753 0.0
C3323 C 0.74218 0.94275 0.73338 0.0
C3324 C 0.74502 0.93241 0.74573 0.0
C3325 C 0.75326 0.94121 0.72158 0.0
C3326 C 0.74151 0.95791 0.73853 0.0
C3327 C 0.72839 0.96368 0.73571 0.0
C3328 C 0.72493 0.9772 0.74029 0.0
C3329 C 0.73505 0.98494 0.74818 0.0
C3330 C 0.74853 0.97917 0.75143 0.0
C3331 C 0.75181 0.96556 0.7462 0.0
H3332 H 0.61522 0.79594 0.32794 0.0
H3333 H 0.59677 0.83761 0.33167 0.0
H3334 H 0.5758 0.82942 0.3179 0.0
H3335 H 0.60385 0.78934 0.2925 0.0
H3336 H 0.6003 0.77075 0.2954 0.0
H3337 H 0.61359 0.77979 0.30593 0.0
H3338 H 0.60074 0.77174 0.32893 0.0
H3339 H 0.58739 0.76269 0.31846 0.0
H3340 H 0.58224 0.77579 0.33122 0.0
H3341 H 0.55703 0.81674 0.30325 0.0
H3342 H 0.54252 0.80092 0.28799 0.0
H3343 H 0.57302 0.76741 0.29446 0.0
C3344 C 0.6067 0.8033 0.32602 0.0
C3345 C 0.60764 0.81742 0.33092 0.0
C3346 C 0.59636 0.82679 0.32791 0.0
C3347 C 0.58436 0.82221 0.3202 0.0
C3348 C 0.58378 0.80822 0.31556 0.0
C3349 C 0.59467 0.79892 0.31833 0.0
C3350 C 0.59166 0.78457 0.31178 0.0
C3351 C 0.60302 0.7809 0.30075 0.0
C3352 C 0.59043 0.77302 0.32328 0.0
C3353 C 0.57743 0.78727 0.30477 0.0
C3354 C 0.57301 0.80094 0.30715 0.0
C3355 C 0.56035 0.80598 0.30141 0.0
C3356 C 0.55212 0.79688 0.29283 0.0
C3357 C 0.5566 0.78291 0.29002 0.0
C3358 C 0.56934 0.77805 0.2963 0.0
H3359 H 0.71643 0.113 0.31208 0.0
H3360 H 0.72067 0.09546 0.35456 0.0
H3361 H 0.73216 0.07437 0.34467 0.0
H3362 H 0.70954 0.07962 0.2939 0.0
H3363 H 0.71972 0.08472 0.27851 0.0
H3364 H 0.71102 0.09801 0.28886 0.0
H3365 H 0.73507 0.11132 0.29224 0.0
H3366 H 0.74382 0.09808 0.2819 0.0
H3367 H 0.75002 0.10201 0.29961 0.0
H3368 H 0.74457 0.05568 0.33015 0.0
H3369 H 0.75689 0.04125 0.31227 0.0
H3370 H 0.74417 0.0709 0.27937 0.0
C3371 C 0.71975 0.10473 0.31933 0.0
C3372 C 0.71754 0.10592 0.33413 0.0
C3373 C 0.72198 0.09474 0.34317 0.0
C3374 C 0.7286 0.08273 0.33766 0.0
C3375 C 0.73069 0.08196 0.32304 0.0
C3376 C 0.72635 0.09266 0.31401 0.0
C3377 C 0.73023 0.08948 0.29877 0.0
C3378 C 0.71683 0.08786 0.28946 0.0
C3379 C 0.74039 0.1009 0.29278 0.0
C3380 C 0.73765 0.07545 0.30068 0.0
C3381 C 0.73775 0.07123 0.31473 0.0
C3382 C 0.74443 0.05883 0.31909 0.0
C3383 C 0.75134 0.05064 0.30884 0.0
C3384 C 0.75155 0.0549 0.29438 0.0
C3385 C 0.74437 0.06738 0.29033 0.0
H3386 H 0.4167 0.22771 0.32061 0.0
H3387 H 0.441 0.19014 0.33039 0.0
H3388 H 0.46249 0.20165 0.32057 0.0
H3389 H 0.43251 0.23537 0.28798 0.0
H3390 H 0.43271 0.25433 0.29 0.0
H3391 H 0.41949 0.24374 0.29899 0.0
H3392 H 0.42731 0.2545 0.32311 0.0
H3393 H 0.44053 0.26521 0.31416 0.0
H3394 H 0.44569 0.25365 0.32851 0.0
H3395 H 0.48071 0.21621 0.30755 0.0
H3396 H 0.49442 0.23288 0.29265 0.0
H3397 H 0.45888 0.26179 0.29264 0.0
C3398 C 0.42661 0.22203 0.321 0.0
C3399 C 0.42711 0.20797 0.32623 0.0
C3400 C 0.44027 0.20083 0.32627 0.0
C3401 C 0.45258 0.20733 0.32081 0.0
C3402 C 0.45165 0.22105 0.31545 0.0
C3403 C 0.43904 0.22839 0.31561 0.0
C3404 C 0.44078 0.24276 0.30853 0.0
C3405 C 0.43078 0.24412 0.29561 0.0
C3406 C 0.43844 0.25474 0.31922 0.0
C3407 C 0.45621 0.24217 0.30401 0.0
C3408 C 0.4623 0.2296 0.3082 0.0
C3409 C 0.47615 0.22622 0.30445 0.0
C3410 C 0.48391 0.23585 0.29604 0.0
C3411 C 0.47787 0.24879 0.29145 0.0
C3412 C 0.46388 0.25201 0.29581 0.0
H3413 H 0.32243 0.92072 0.29983 0.0
H3414 H 0.32143 0.93444 0.34372 0.0
H3415 H 0.30733 0.95525 0.33655 0.0
H3416 H 0.32624 0.95545 0.28416 0.0
H3417 H 0.31511 0.95123 0.26909 0.0
H3418 H 0.32508 0.93751 0.27778 0.0
H3419 H 0.30187 0.92292 0.28162 0.0
H3420 H 0.29184 0.93658 0.27293 0.0
H3421 H 0.28717 0.93091 0.29061 0.0
H3422 H 0.29313 0.97481 0.32422 0.0
H3423 H 0.27944 0.99044 0.30809 0.0
H3424 H 0.29064 0.96393 0.27248 0.0
C3425 C 0.31939 0.92816 0.30795 0.0
C3426 C 0.32311 0.92592 0.32236 0.0
C3427 C 0.31862 0.93581 0.33264 0.0
C3428 C 0.31069 0.94773 0.32865 0.0
C3429 C 0.3073 0.94963 0.31433 0.0
C3430 C 0.3115 0.94006 0.30417 0.0
C3431 C 0.30636 0.94432 0.28952 0.0
C3432 C 0.31895 0.94731 0.27955 0.0
C3433 C 0.29621 0.93301 0.28331 0.0
C3434 C 0.29857 0.95777 0.293 0.0
C3435 C 0.29924 0.96074 0.30733 0.0
C3436 C 0.29259 0.97258 0.31296 0.0
C3437 C 0.28491 0.98146 0.30372 0.0
C3438 C 0.2839 0.97841 0.28902 0.0
C3439 C 0.29104 0.96649 0.28368 0.0
H3440 H 0.72651 0.11494 0.72433 0.0
H3441 H 0.6847 0.095 0.72554 0.0
H3442 H 0.69494 0.07408 0.73735 0.0
H3443 H 0.74639 0.08288 0.71791 0.0
H3444 H 0.76111 0.0883 0.72905 0.0
H3445 H 0.75058 0.10143 0.72009 0.0
H3446 H 0.7456 0.11349 0.74418 0.0
H3447 H 0.75608 0.10039 0.75322 0.0
H3448 H 0.73795 0.10319 0.75846 0.0
H3449 H 0.70961 0.05572 0.75023 0.0
H3450 H 0.72757 0.04143 0.76279 0.0
H3451 H 0.75982 0.07316 0.75273 0.0
C3452 C 0.71949 0.10618 0.72706 0.0
C3453 C 0.70478 0.10664 0.72391 0.0
C3454 C 0.69603 0.09485 0.7276 0.0
C3455 C 0.70173 0.08293 0.7344 0.0
C3456 C 0.71624 0.08288 0.73742 0.0
C3457 C 0.72502 0.09418 0.73382 0.0
C3458 C 0.7402 0.09158 0.73849 0.0
C3459 C 0.75015 0.09101 0.72562 0.0
C3460 C 0.74525 0.10283 0.74922 0.0
C3461 C 0.73856 0.07717 0.74546 0.0
C3462 C 0.72468 0.07229 0.74471 0.0
C3463 C 0.72054 0.05938 0.75076 0.0
C3464 C 0.73086 0.05128 0.75781 0.0
C3465 C 0.74517 0.05609 0.75876 0.0
C3466 C 0.74898 0.06919 0.75235 0.0
H3467 H 0.72442 0.91996 0.32277 0.0
H3468 H 0.68226 0.93651 0.31505 0.0
H3469 H 0.69288 0.95745 0.30321 0.0
H3470 H 0.74219 0.9538 0.32918 0.0
H3471 H 0.7582 0.94873 0.32024 0.0
H3472 H 0.74729 0.93548 0.32887 0.0
H3473 H 0.74542 0.92147 0.30531 0.0
H3474 H 0.75629 0.93468 0.29661 0.0
H3475 H 0.73898 0.93022 0.28953 0.0
H3476 H 0.70815 0.97606 0.29095 0.0
H3477 H 0.72681 0.99064 0.27934 0.0
H3478 H 0.75888 0.96196 0.29533 0.0
C3479 C 0.7174 0.92798 0.31861 0.0
C3480 C 0.70248 0.92657 0.31993 0.0
C3481 C 0.69372 0.93742 0.31441 0.0
C3482 C 0.69965 0.94934 0.30759 0.0
C3483 C 0.71438 0.95031 0.30638 0.0
C3484 C 0.72314 0.93994 0.31178 0.0
C3485 C 0.7386 0.9433 0.30872 0.0
C3486 C 0.74706 0.94546 0.32258 0.0
C3487 C 0.7452 0.93173 0.29949 0.0
C3488 C 0.73717 0.95707 0.30057 0.0
C3489 C 0.72313 0.961 0.29938 0.0
C3490 C 0.71919 0.97314 0.29193 0.0
C3491 C 0.72988 0.98141 0.28543 0.0
C3492 C 0.74433 0.97748 0.28639 0.0
C3493 C 0.74793 0.96521 0.29424 0.0
H3494 H 0.61464 0.21014 0.29923 0.0
H3495 H 0.59694 0.20556 0.34147 0.0
H3496 H 0.57561 0.21853 0.33369 0.0
H3497 H 0.6025 0.24505 0.29266 0.0
H3498 H 0.59872 0.24207 0.27412 0.0
H3499 H 0.61233 0.23205 0.28294 0.0
H3500 H 0.59977 0.20868 0.27531 0.0
H3501 H 0.58609 0.21865 0.2665 0.0
H3502 H 0.58138 0.20569 0.27984 0.0
H3503 H 0.5563 0.23257 0.32129 0.0
H3504 H 0.54136 0.24743 0.30569 0.0
H3505 H 0.57145 0.24209 0.27143 0.0
C3506 C 0.60622 0.21169 0.30682 0.0
C3507 C 0.6075 0.20678 0.32098 0.0
C3508 C 0.59631 0.20933 0.33062 0.0
C3509 C 0.58409 0.2166 0.32626 0.0
C3510 C 0.58317 0.22126 0.31222 0.0
C3511 C 0.59396 0.21893 0.30266 0.0
C3512 C 0.59059 0.2254 0.28829 0.0
C3513 C 0.60169 0.23682 0.28428 0.0
C3514 C 0.58938 0.21392 0.27681 0.0
C3515 C 0.57627 0.23185 0.29129 0.0
C3516 C 0.57211 0.22928 0.30512 0.0
C3517 C 0.55943 0.23456 0.31041 0.0
C3518 C 0.55094 0.24291 0.30143 0.0
C3519 C 0.55519 0.24597 0.28731 0.0
C3520 C 0.56792 0.24008 0.28219 0.0
H3521 H 0.29766 0.11322 0.32906 0.0
H3522 H 0.34191 0.10215 0.32373 0.0
H3523 H 0.33453 0.08163 0.30905 0.0
H3524 H 0.28383 0.07742 0.33192 0.0
H3525 H 0.26775 0.08138 0.32228 0.0
H3526 H 0.27662 0.09499 0.33247 0.0
H3527 H 0.27798 0.111 0.31007 0.0
H3528 H 0.26911 0.09745 0.29982 0.0
H3529 H 0.28613 0.10435 0.2942 0.0
H3530 H 0.32195 0.06226 0.29451 0.0
H3531 H 0.30547 0.04668 0.28086 0.0
H3532 H 0.26976 0.07036 0.29669 0.0
C3533 C 0.30583 0.1064 0.32498 0.0
C3534 C 0.32038 0.1093 0.32762 0.0
C3535 C 0.3307 0.10024 0.32177 0.0
C3536 C 0.3266 0.0885 0.31349 0.0
C3537 C 0.31214 0.08593 0.31117 0.0
C3538 C 0.30194 0.09467 0.31674 0.0
C3539 C 0.28713 0.08989 0.31247 0.0
C3540 C 0.27832 0.08567 0.32557 0.0
C3541 C 0.27965 0.10135 0.30361 0.0
C3542 C 0.29055 0.07712 0.30355 0.0
C3543 C 0.30501 0.07492 0.30292 0.0
C3544 C 0.3106 0.06387 0.29499 0.0
C3545 C 0.30117 0.05501 0.28734 0.0
C3546 C 0.28633 0.05732 0.28764 0.0
C3547 C 0.28105 0.0684 0.29608 0.0
H3548 H 0.42167 0.79917 0.32465 0.0
H3549 H 0.4358 0.84284 0.31971 0.0
H3550 H 0.45673 0.83482 0.30635 0.0
H3551 H 0.45636 0.78386 0.32882 0.0
H3552 H 0.45176 0.76819 0.31885 0.0
H3553 H 0.43825 0.77738 0.32848 0.0
H3554 H 0.42333 0.77981 0.30539 0.0
H3555 H 0.43677 0.77057 0.29571 0.0
H3556 H 0.43128 0.78788 0.28992 0.0
H3557 H 0.47595 0.82178 0.2927 0.0
H3558 H 0.49106 0.80503 0.2796 0.0
H3559 H 0.46408 0.77016 0.29367 0.0
C3560 C 0.42909 0.8071 0.3207 0.0
C3561 C 0.42702 0.82167 0.32328 0.0
C3562 C 0.43719 0.83161 0.31806 0.0
C3563 C 0.4491 0.82715 0.3104 0.0
C3564 C 0.45076 0.8127 0.30804 0.0
C3565 C 0.441 0.80284 0.31304 0.0
C3566 C 0.44499 0.78797 0.30885 0.0
C3567 C 0.44802 0.77881 0.32204 0.0
C3568 C 0.43341 0.78117 0.2994 0.0
C3569 C 0.45844 0.79099 0.30055 0.0
C3570 C 0.46169 0.80529 0.30025 0.0
C3571 C 0.47352 0.81055 0.29294 0.0
C3572 C 0.4821 0.80095 0.28559 0.0
C3573 C 0.47876 0.78628 0.28555 0.0
C3574 C 0.46687 0.78132 0.29335 0.0
H3575 H 0.32041 0.91685 0.73955 0.0
H3576 H 0.32022 0.93204 0.69598 0.0
H3577 H 0.30618 0.9527 0.70326 0.0
H3578 H 0.28508 0.927 0.74803 0.0
H3579 H 0.28946 0.93209 0.76596 0.0
H3580 H 0.29957 0.91864 0.75727 0.0
H3581 H 0.32279 0.93295 0.76208 0.0
H3582 H 0.31274 0.94645 0.77079 0.0
H3583 H 0.32416 0.95109 0.75614 0.0
H3584 H 0.2919 0.97191 0.71558 0.0
H3585 H 0.27811 0.98718 0.73163 0.0
H3586 H 0.28846 0.9595 0.76699 0.0
C3587 C 0.31757 0.92457 0.73153 0.0
C3588 C 0.32148 0.92278 0.71717 0.0
C3589 C 0.31724 0.93305 0.70702 0.0
C3590 C 0.30934 0.94489 0.71107 0.0
C3591 C 0.30573 0.94635 0.72532 0.0
C3592 C 0.30969 0.93642 0.73538 0.0
C3593 C 0.30431 0.94026 0.74997 0.0
C3594 C 0.29399 0.92882 0.75563 0.0
C3595 C 0.31674 0.94284 0.76035 0.0
C3596 C 0.29666 0.95387 0.74657 0.0
C3597 C 0.2976 0.95728 0.73233 0.0
C3598 C 0.29115 0.96934 0.72677 0.0
C3599 C 0.28341 0.97801 0.73597 0.0
C3600 C 0.28213 0.97455 0.75057 0.0
C3601 C 0.28905 0.96239 0.75586 0.0
H3602 H 0.61309 0.79744 0.71155 0.0
H3603 H 0.60091 0.84124 0.71694 0.0
H3604 H 0.57979 0.83334 0.73045 0.0
H3605 H 0.5777 0.78266 0.70778 0.0
H3606 H 0.58177 0.76681 0.71765 0.0
H3607 H 0.59553 0.77592 0.70785 0.0
H3608 H 0.61086 0.77786 0.73074 0.0
H3609 H 0.59718 0.76871 0.74059 0.0
H3610 H 0.60347 0.78587 0.74634 0.0
H3611 H 0.56018 0.82043 0.74421 0.0
H3612 H 0.54456 0.80374 0.7575 0.0
H3613 H 0.56994 0.76869 0.74307 0.0
C3614 C 0.60606 0.80541 0.71562 0.0
C3615 C 0.60872 0.81999 0.71311 0.0
C3616 C 0.59905 0.83 0.7185 0.0
C3617 C 0.58703 0.82562 0.72626 0.0
C3618 C 0.58478 0.81117 0.72854 0.0
C3619 C 0.59406 0.80124 0.72339 0.0
C3620 C 0.58951 0.78638 0.7276 0.0
C3621 C 0.58591 0.77742 0.71443 0.0
C3622 C 0.60093 0.7793 0.73687 0.0
C3623 C 0.57631 0.7895 0.73608 0.0
C3624 C 0.57365 0.80383 0.73645 0.0
C3625 C 0.56214 0.80918 0.74393 0.0
C3626 C 0.55327 0.79962 0.75138 0.0
C3627 C 0.55604 0.78492 0.75137 0.0
C3628 C 0.56761 0.77988 0.74341 0.0
H3629 H 0.42198 0.20779 0.73815 0.0
H3630 H 0.43253 0.21571 0.69398 0.0
H3631 H 0.45296 0.23063 0.70156 0.0
H3632 H 0.42964 0.24275 0.75035 0.0
H3633 H 0.43673 0.23695 0.76719 0.0
H3634 H 0.42346 0.22635 0.7582 0.0
H3635 H 0.44023 0.2048 0.759 0.0
H3636 H 0.45357 0.21536 0.76797 0.0
H3637 H 0.45783 0.20646 0.75168 0.0
H3638 H 0.472 0.2454 0.71423 0.0
H3639 H 0.48734 0.25912 0.73083 0.0
H3640 H 0.46383 0.24153 0.7664 0.0
C3641 C 0.4285 0.21271 0.73003 0.0
C3642 C 0.42561 0.21054 0.71545 0.0
C3643 C 0.43461 0.21704 0.70522 0.0
C3644 C 0.44622 0.22558 0.70942 0.0
C3645 C 0.4487 0.22753 0.72389 0.0
C3646 C 0.44006 0.22128 0.73402 0.0
C3647 C 0.44472 0.2253 0.74888 0.0
C3648 C 0.43294 0.23332 0.7566 0.0
C3649 C 0.44937 0.2122 0.75738 0.0
C3650 C 0.45724 0.23493 0.74555 0.0
C3651 C 0.45948 0.23604 0.7311 0.0
C3652 C 0.47036 0.24456 0.72557 0.0
C3653 C 0.47906 0.25225 0.73506 0.0
C3654 C 0.47673 0.25144 0.74989 0.0
C3655 C 0.46577 0.2425 0.75511 0.0
H3656 H 0.71699 0.72465 0.11775 0.0
H3657 H 0.72086 0.6831 0.09877 0.0
H3658 H 0.73169 0.69401 0.07752 0.0
H3659 H 0.70849 0.74357 0.08449 0.0
H3660 H 0.71851 0.75914 0.08962 0.0
H3661 H 0.71027 0.74811 0.10299 0.0
H3662 H 0.73465 0.74536 0.11556 0.0
H3663 H 0.74297 0.75628 0.10219 0.0
H3664 H 0.7495 0.73875 0.10569 0.0
H3665 H 0.7438 0.7093 0.059 0.0
H3666 H 0.75567 0.72784 0.0446 0.0
H3667 H 0.74259 0.75954 0.07494 0.0
C3668 C 0.71984 0.71786 0.10902 0.0
C3669 C 0.71813 0.70298 0.11003 0.0
C3670 C 0.72225 0.69449 0.0984 0.0
C3671 C 0.72833 0.7006 0.08621 0.0
C3672 C 0.73012 0.71525 0.08569 0.0
C3673 C 0.72588 0.72379 0.09673 0.0
C3674 C 0.72945 0.73921 0.0937 0.0
C3675 C 0.71587 0.74802 0.09263 0.0
C3676 C 0.73976 0.74524 0.10495 0.0
C3677 C 0.73659 0.73796 0.07937 0.0
C3678 C 0.73684 0.72407 0.0749 0.0
C3679 C 0.74348 0.72025 0.0623 0.0
C3680 C 0.75014 0.73089 0.05413 0.0
C3681 C 0.75011 0.74523 0.05854 0.0
C3682 C 0.74301 0.74871 0.07127 0.0
H3683 H 0.29672 0.70934 0.12121 0.0
H3684 H 0.33591 0.69996 0.09933 0.0
H3685 H 0.32722 0.71277 0.07812 0.0
H3686 H 0.27334 0.706 0.09061 0.0
H3687 H 0.26221 0.7204 0.09592 0.0
H3688 H 0.27129 0.71004 0.10918 0.0
H3689 H 0.28298 0.73286 0.11938 0.0
H3690 H 0.2739 0.74328 0.10619 0.0
H3691 H 0.29297 0.74444 0.10776 0.0
H3692 H 0.31466 0.7276 0.05966 0.0
H3693 H 0.29942 0.74355 0.04561 0.0
H3694 H 0.26817 0.74264 0.07936 0.0
C3695 C 0.3035 0.71001 0.11198 0.0
C3696 C 0.317 0.70361 0.11194 0.0
C3697 C 0.32547 0.70462 0.09956 0.0
C3698 C 0.32064 0.71191 0.08748 0.0
C3699 C 0.30728 0.71809 0.08789 0.0
C3700 C 0.29883 0.71719 0.09981 0.0
C3701 C 0.28502 0.725 0.09763 0.0
C3702 C 0.27221 0.71475 0.09838 0.0
C3703 C 0.28365 0.73711 0.10838 0.0
C3704 C 0.28713 0.73062 0.08269 0.0
C3705 C 0.3 0.72647 0.07722 0.0
C3706 C 0.30449 0.73079 0.06378 0.0
C3707 C 0.29569 0.73978 0.05583 0.0
C3708 C 0.28254 0.74436 0.06132 0.0
C3709 C 0.27818 0.73946 0.07486 0.0
H3710 H 0.29594 0.31818 0.1174 0.0
H3711 H 0.33713 0.32562 0.09803 0.0
H3712 H 0.32883 0.31326 0.07639 0.0
H3713 H 0.29043 0.28325 0.10385 0.0
H3714 H 0.27161 0.28534 0.10112 0.0
H3715 H 0.28065 0.29526 0.11481 0.0
H3716 H 0.27135 0.31862 0.10387 0.0
H3717 H 0.26234 0.30876 0.09009 0.0
H3718 H 0.27485 0.32262 0.08547 0.0
H3719 H 0.31621 0.29925 0.05707 0.0
H3720 H 0.3006 0.28417 0.0421 0.0
H3721 H 0.2676 0.2863 0.074 0.0
C3722 C 0.30326 0.31716 0.10865 0.0
C3723 C 0.31721 0.32292 0.10945 0.0
C3724 C 0.32635 0.32148 0.09764 0.0
C3725 C 0.32174 0.31443 0.0853 0.0
C3726 C 0.30793 0.30891 0.08487 0.0
C3727 C 0.29884 0.31019 0.09625 0.0
C3728 C 0.28462 0.30307 0.09322 0.0
C3729 C 0.28166 0.29101 0.10388 0.0
C3730 C 0.27258 0.31392 0.09316 0.0
C3731 C 0.28721 0.2974 0.07845 0.0
C3732 C 0.30068 0.30094 0.07377 0.0
C3733 C 0.30559 0.29651 0.06059 0.0
C3734 C 0.2966 0.28803 0.0521 0.0
C3735 C 0.28284 0.28401 0.05682 0.0
C3736 C 0.27808 0.28904 0.07009 0.0
H3737 H 0.71673 0.31108 0.12106 0.0
H3738 H 0.72513 0.35289 0.10345 0.0
H3739 H 0.73611 0.34206 0.08248 0.0
H3740 H 0.74867 0.29548 0.11011 0.0
H3741 H 0.74079 0.2785 0.10589 0.0
H3742 H 0.73286 0.28947 0.11917 0.0
H3743 H 0.70888 0.28856 0.10551 0.0
H3744 H 0.71673 0.27752 0.09221 0.0
H3745 H 0.70832 0.29381 0.08709 0.0
H3746 H 0.74754 0.32667 0.064 0.0
H3747 H 0.75824 0.30792 0.04951 0.0
H3748 H 0.7413 0.27614 0.07853 0.0
C3749 C 0.72064 0.31796 0.11268 0.0
C3750 C 0.72011 0.33287 0.11399 0.0
C3751 C 0.72559 0.34146 0.10284 0.0
C3752 C 0.73177 0.33541 0.09082 0.0
C3753 C 0.73232 0.32071 0.08998 0.0
C3754 C 0.72683 0.31209 0.10057 0.0
C3755 C 0.72918 0.2966 0.09728 0.0
C3756 C 0.73843 0.28961 0.10879 0.0
C3757 C 0.71493 0.28866 0.09541 0.0
C3758 C 0.73705 0.29788 0.08332 0.0
C3759 C 0.73871 0.31186 0.07925 0.0
C3760 C 0.74614 0.31567 0.067 0.0
C3761 C 0.75212 0.30492 0.05877 0.0
C3762 C 0.75065 0.29049 0.0628 0.0
C3763 C 0.74281 0.28704 0.07517 0.0
H3764 H 0.73304 0.32561 0.9276 0.0
H3765 H 0.68919 0.3212 0.94118 0.0
H3766 H 0.69703 0.3073 0.96203 0.0
H3767 H 0.74345 0.29057 0.93695 0.0
H3768 H 0.76102 0.29589 0.94269 0.0
H3769 H 0.75194 0.30599 0.92926 0.0
H3770 H 0.75514 0.32867 0.94441 0.0
H3771 H 0.7642 0.31862 0.95792 0.0
H3772 H 0.74879 0.32877 0.96244 0.0
H3773 H 0.70983 0.29312 0.98119 0.0
H3774 H 0.72639 0.27957 0.99645 0.0
H3775 H 0.76158 0.29342 0.97003 0.0
C3776 C 0.72504 0.32167 0.93489 0.0
C3777 C 0.71048 0.32454 0.93271 0.0
C3778 C 0.70043 0.31933 0.94269 0.0
C3779 C 0.70477 0.31136 0.95454 0.0
C3780 C 0.71921 0.3087 0.95632 0.0
C3781 C 0.72918 0.31371 0.94673 0.0
C3782 C 0.74401 0.30917 0.95084 0.0
C3783 C 0.75048 0.29985 0.93925 0.0
C3784 C 0.75359 0.32208 0.9541 0.0
C3785 C 0.74083 0.30069 0.96414 0.0
C3786 C 0.7265 0.30059 0.96722 0.0
C3787 C 0.72109 0.2932 0.97891 0.0
C3788 C 0.73057 0.2856 0.98757 0.0
C3789 C 0.74527 0.2854 0.98443 0.0
C3790 C 0.75039 0.29323 0.97264 0.0
H3791 H 0.72435 0.71701 0.92189 0.0
H3792 H 0.68189 0.72192 0.93877 0.0
H3793 H 0.69202 0.73345 0.96008 0.0
H3794 H 0.74209 0.71018 0.95564 0.0
H3795 H 0.75786 0.72008 0.95082 0.0
H3796 H 0.7473 0.71147 0.93728 0.0
H3797 H 0.7448 0.73538 0.92394 0.0
H3798 H 0.75535 0.74405 0.93743 0.0
H3799 H 0.73786 0.75044 0.93319 0.0
H3800 H 0.70684 0.74577 0.9791 0.0
H3801 H 0.72504 0.75786 0.99393 0.0
H3802 H 0.75772 0.74448 0.96475 0.0
C3803 C 0.71716 0.72049 0.93006 0.0
C3804 C 0.70229 0.71845 0.92862 0.0
C3805 C 0.69332 0.7231 0.93967 0.0
C3806 C 0.69897 0.72975 0.95181 0.0
C3807 C 0.71365 0.73165 0.95283 0.0
C3808 C 0.72262 0.72712 0.94226 0.0
C3809 C 0.73797 0.73079 0.94572 0.0
C3810 C 0.74682 0.71733 0.94747 0.0
C3811 C 0.74437 0.74076 0.9344 0.0
C3812 C 0.73622 0.7383 0.95978 0.0
C3813 C 0.72213 0.73865 0.96376 0.0
C3814 C 0.71792 0.74545 0.97614 0.0
C3815 C 0.72836 0.75221 0.98456 0.0
C3816 C 0.74285 0.75217 0.98056 0.0
C3817 C 0.74674 0.74488 0.96808 0.0
H3818 H 0.32102 0.7382 0.92384 0.0
H3819 H 0.32439 0.69578 0.94135 0.0
H3820 H 0.31138 0.70331 0.96268 0.0
H3821 H 0.32582 0.75696 0.95709 0.0
H3822 H 0.31323 0.77046 0.95251 0.0
H3823 H 0.32302 0.76177 0.93875 0.0
H3824 H 0.2994 0.75459 0.92627 0.0
H3825 H 0.28954 0.76328 0.93996 0.0
H3826 H 0.28604 0.74488 0.9361 0.0
H3827 H 0.29758 0.7155 0.98204 0.0
H3828 H 0.2832 0.73101 0.9972 0.0
H3829 H 0.28964 0.76559 0.96731 0.0
C3830 C 0.31918 0.73051 0.93222 0.0
C3831 C 0.32376 0.71638 0.93089 0.0
C3832 C 0.32086 0.70661 0.94202 0.0
C3833 C 0.31357 0.71083 0.95424 0.0
C3834 C 0.30926 0.72485 0.95521 0.0
C3835 C 0.31193 0.73453 0.94448 0.0
C3836 C 0.30584 0.74887 0.94794 0.0
C3837 C 0.31769 0.76018 0.94915 0.0
C3838 C 0.29454 0.75315 0.93691 0.0
C3839 C 0.29923 0.74572 0.96225 0.0
C3840 C 0.30137 0.73184 0.96632 0.0
C3841 C 0.29592 0.72642 0.979 0.0
C3842 C 0.28785 0.73534 0.9876 0.0
C3843 C 0.28525 0.74954 0.98349 0.0
C3844 C 0.29127 0.75478 0.97073 0.0
H3845 H 0.31456 0.30552 0.91842 0.0
H3846 H 0.31967 0.34478 0.94178 0.0
H3847 H 0.30996 0.33312 0.96319 0.0
H3848 H 0.28194 0.29511 0.93328 0.0
H3849 H 0.28578 0.27648 0.9341 0.0
H3850 H 0.29421 0.28752 0.9209 0.0
H3851 H 0.31897 0.27961 0.92984 0.0
H3852 H 0.3106 0.26849 0.94305 0.0
H3853 H 0.32359 0.28167 0.94832 0.0
H3854 H 0.29788 0.31781 0.9815 0.0
H3855 H 0.28432 0.30004 0.99527 0.0
H3856 H 0.28822 0.27022 0.96057 0.0
C3857 C 0.31392 0.31159 0.92811 0.0
C3858 C 0.31785 0.32611 0.92836 0.0
C3859 C 0.31657 0.33371 0.94124 0.0
C3860 C 0.31116 0.32715 0.9535 0.0
C3861 C 0.30716 0.31292 0.95282 0.0
C3862 C 0.30855 0.30519 0.94049 0.0
C3863 C 0.30281 0.29022 0.94243 0.0
C3864 C 0.29045 0.28716 0.93206 0.0
C3865 C 0.3147 0.27936 0.94082 0.0
C3866 C 0.29768 0.29086 0.95765 0.0
C3867 C 0.30038 0.30401 0.96348 0.0
C3868 C 0.29591 0.30739 0.97713 0.0
C3869 C 0.28829 0.29715 0.98493 0.0
C3870 C 0.28517 0.28361 0.97913 0.0
C3871 C 0.29025 0.28044 0.96536 0.0
H3872 H 0.61739 0.7368 0.21517 0.0
H3873 H 0.59859 0.69488 0.21026 0.0
H3874 H 0.57706 0.70279 0.22266 0.0
H3875 H 0.6041 0.74337 0.24982 0.0
H3876 H 0.60099 0.7619 0.24659 0.0
H3877 H 0.61473 0.75298 0.23704 0.0
H3878 H 0.60332 0.76077 0.21319 0.0
H3879 H 0.58952 0.76968 0.22268 0.0
H3880 H 0.58493 0.75645 0.20964 0.0
H3881 H 0.55756 0.71534 0.23608 0.0
H3882 H 0.5425 0.73103 0.25038 0.0
H3883 H 0.57379 0.76489 0.24571 0.0
C3884 C 0.6087 0.7293 0.21655 0.0
C3885 C 0.60974 0.71519 0.21169 0.0
C3886 C 0.59817 0.70569 0.214 0.0
C3887 C 0.58582 0.71012 0.22094 0.0
C3888 C 0.58514 0.72412 0.22552 0.0
C3889 C 0.59631 0.73355 0.22345 0.0
C3890 C 0.5931 0.74789 0.22973 0.0
C3891 C 0.60387 0.75176 0.24149 0.0
C3892 C 0.59269 0.75938 0.21811 0.0
C3893 C 0.57844 0.74504 0.23577 0.0
C3894 C 0.57398 0.7313 0.23317 0.0
C3895 C 0.56093 0.72615 0.23809 0.0
C3896 C 0.55238 0.73519 0.24612 0.0
C3897 C 0.5569 0.74922 0.24922 0.0
C3898 C 0.57003 0.7542 0.24368 0.0
H3899 H 0.30812 0.61161 0.22225 0.0
H3900 H 0.34993 0.59325 0.22703 0.0
H3901 H 0.33918 0.57237 0.23888 0.0
H3902 H 0.29503 0.60085 0.256 0.0
H3903 H 0.27721 0.59726 0.24975 0.0
H3904 H 0.2881 0.61035 0.24088 0.0
H3905 H 0.28442 0.59721 0.21701 0.0
H3906 H 0.27348 0.58409 0.2258 0.0
H3907 H 0.28876 0.57872 0.21582 0.0
H3908 H 0.32389 0.55396 0.25137 0.0
H3909 H 0.30529 0.53956 0.26329 0.0
H3910 H 0.27361 0.56999 0.25011 0.0
C3911 C 0.31504 0.60321 0.22578 0.0
C3912 C 0.32988 0.60407 0.22364 0.0
C3913 C 0.33851 0.59275 0.22832 0.0
C3914 C 0.33251 0.58087 0.23515 0.0
C3915 C 0.31786 0.58043 0.23719 0.0
C3916 C 0.30924 0.59129 0.2326 0.0
C3917 C 0.29385 0.58841 0.23639 0.0
C3918 C 0.28823 0.5999 0.24635 0.0
C3919 C 0.28459 0.58702 0.22295 0.0
C3920 C 0.29519 0.57434 0.24401 0.0
C3921 C 0.3091 0.56986 0.24432 0.0
C3922 C 0.31294 0.5573 0.25108 0.0
C3923 C 0.30229 0.54915 0.25776 0.0
C3924 C 0.28797 0.55362 0.25765 0.0
C3925 C 0.28446 0.56634 0.25054 0.0
H3926 H 0.41737 0.31498 0.23124 0.0
H3927 H 0.43558 0.31292 0.18908 0.0
H3928 H 0.45688 0.30153 0.19907 0.0
H3929 H 0.45049 0.32207 0.25021 0.0
H3930 H 0.44556 0.31126 0.26527 0.0
H3931 H 0.43203 0.31986 0.25487 0.0
H3932 H 0.41945 0.29565 0.25071 0.0
H3933 H 0.43294 0.28698 0.26108 0.0
H3934 H 0.4293 0.28131 0.24316 0.0
H3935 H 0.4758 0.2891 0.21359 0.0
H3936 H 0.49068 0.27693 0.23146 0.0
H3937 H 0.46036 0.28766 0.26415 0.0
C3938 C 0.42583 0.31215 0.2241 0.0
C3939 C 0.42478 0.31495 0.20935 0.0
C3940 C 0.43619 0.31114 0.20043 0.0
C3941 C 0.44833 0.30457 0.206 0.0
C3942 C 0.44898 0.30191 0.22055 0.0
C3943 C 0.43805 0.30563 0.22949 0.0
C3944 C 0.44126 0.30135 0.24469 0.0
C3945 C 0.44241 0.31442 0.25433 0.0
C3946 C 0.43007 0.29069 0.25023 0.0
C3947 C 0.45559 0.29445 0.24287 0.0
C3948 C 0.45989 0.29491 0.22889 0.0
C3949 C 0.47259 0.28882 0.22461 0.0
C3950 C 0.48104 0.28199 0.23486 0.0
C3951 C 0.47677 0.2813 0.24927 0.0
C3952 C 0.46392 0.28782 0.25323 0.0
H3953 H 0.7241 0.41998 0.22356 0.0
H3954 H 0.68251 0.43884 0.22742 0.0
H3955 H 0.69349 0.45986 0.23869 0.0
H3956 H 0.73782 0.4315 0.25641 0.0
H3957 H 0.75556 0.43504 0.25008 0.0
H3958 H 0.74459 0.42184 0.24148 0.0
H3959 H 0.74789 0.4347 0.21733 0.0
H3960 H 0.75896 0.44791 0.22585 0.0
H3961 H 0.74354 0.45318 0.21578 0.0
H3962 H 0.70884 0.47818 0.25109 0.0
H3963 H 0.72742 0.4924 0.26324 0.0
H3964 H 0.75911 0.4622 0.25013 0.0
C3965 C 0.71732 0.42864 0.22651 0.0
C3966 C 0.70241 0.42769 0.22464 0.0
C3967 C 0.69393 0.4392 0.22891 0.0
C3968 C 0.70007 0.45125 0.23525 0.0
C3969 C 0.71476 0.45173 0.23716 0.0
C3970 C 0.72329 0.44078 0.23282 0.0
C3971 C 0.73873 0.44372 0.23655 0.0
C3972 C 0.74451 0.43235 0.24673 0.0
C3973 C 0.74782 0.44495 0.22307 0.0
C3974 C 0.7375 0.4579 0.24388 0.0
C3975 C 0.72361 0.46238 0.24408 0.0
C3976 C 0.7198 0.47487 0.25083 0.0
C3977 C 0.73046 0.48294 0.25764 0.0
C3978 C 0.7448 0.47851 0.25766 0.0
C3979 C 0.74827 0.46588 0.25048 0.0
H3980 H 0.61122 0.29978 0.82865 0.0
H3981 H 0.59749 0.34339 0.82616 0.0
H3982 H 0.57751 0.33606 0.81052 0.0
H3983 H 0.60328 0.29063 0.7928 0.0
H3984 H 0.59731 0.27292 0.79709 0.0
H3985 H 0.61034 0.28166 0.80818 0.0
H3986 H 0.59426 0.27759 0.83014 0.0
H3987 H 0.58119 0.26881 0.8191 0.0
H3988 H 0.57622 0.28375 0.82974 0.0
H3989 H 0.55891 0.32368 0.79494 0.0
H3990 H 0.54398 0.30748 0.78033 0.0
H3991 H 0.5699 0.27218 0.79379 0.0
C3992 C 0.60393 0.30779 0.82497 0.0
C3993 C 0.6059 0.32216 0.82869 0.0
C3994 C 0.59627 0.33233 0.82336 0.0
C3995 C 0.58484 0.32826 0.81455 0.0
C3996 C 0.58319 0.31398 0.81114 0.0
C3997 C 0.59251 0.30392 0.81619 0.0
C3998 C 0.58862 0.2893 0.81082 0.0
C3999 C 0.6006 0.28328 0.80168 0.0
C4000 C 0.58485 0.27927 0.82319 0.0
C4001 C 0.57567 0.29268 0.80192 0.0
C4002 C 0.57264 0.30694 0.80223 0.0
C4003 C 0.56118 0.31248 0.79465 0.0
C4004 C 0.55271 0.30321 0.78645 0.0
C4005 C 0.55581 0.28859 0.78585 0.0
C4006 C 0.56737 0.28333 0.79385 0.0
H4007 H 0.7192 0.61471 0.81244 0.0
H4008 H 0.71837 0.59415 0.85375 0.0
H4009 H 0.72934 0.573 0.84345 0.0
H4010 H 0.71117 0.58271 0.79166 0.0
H4011 H 0.72279 0.58796 0.77738 0.0
H4012 H 0.71422 0.60123 0.78789 0.0
H4013 H 0.73877 0.61261 0.7937 0.0
H4014 H 0.74741 0.59934 0.7833 0.0
H4015 H 0.75245 0.60191 0.80161 0.0
H4016 H 0.74181 0.55453 0.8289 0.0
H4017 H 0.75434 0.54019 0.81117 0.0
H4018 H 0.74592 0.57226 0.77912 0.0
C4019 C 0.72107 0.60567 0.81928 0.0
C4020 C 0.71796 0.60618 0.83396 0.0
C4021 C 0.72084 0.59415 0.84254 0.0
C4022 C 0.72699 0.58202 0.83676 0.0
C4023 C 0.73014 0.58197 0.82233 0.0
C4024 C 0.72719 0.59344 0.81368 0.0
C4025 C 0.73201 0.59083 0.79859 0.0
C4026 C 0.71929 0.59067 0.78827 0.0
C4027 C 0.74333 0.60183 0.79404 0.0
C4028 C 0.73832 0.57622 0.80018 0.0
C4029 C 0.73711 0.57126 0.81393 0.0
C4030 C 0.74266 0.55823 0.81805 0.0
C4031 C 0.7497 0.5501 0.80786 0.0
C4032 C 0.75114 0.555 0.79367 0.0
C4033 C 0.74518 0.5682 0.78986 0.0
H4034 H 0.4164 0.7283 0.81878 0.0
H4035 H 0.43901 0.68943 0.82743 0.0
H4036 H 0.46076 0.69999 0.81708 0.0
H4037 H 0.43175 0.73536 0.78536 0.0
H4038 H 0.43276 0.75429 0.78762 0.0
H4039 H 0.41929 0.7441 0.79672 0.0
H4040 H 0.428 0.75431 0.82079 0.0
H4041 H 0.4415 0.76454 0.81174 0.0
H4042 H 0.4464 0.7526 0.82587 0.0
H4043 H 0.47948 0.71404 0.80394 0.0
H4044 H 0.4937 0.73049 0.7892 0.0
H4045 H 0.45928 0.76066 0.78998 0.0
C4046 C 0.42595 0.72203 0.81858 0.0
C4047 C 0.42599 0.70804 0.82401 0.0
C4048 C 0.43875 0.70024 0.82357 0.0
C4049 C 0.45115 0.70613 0.81765 0.0
C4050 C 0.45071 0.7199 0.8123 0.0
C4051 C 0.43846 0.72779 0.81278 0.0
C4052 C 0.44068 0.74215 0.80584 0.0
C4053 C 0.43052 0.74408 0.79313 0.0
C4054 C 0.43905 0.75411 0.81671 0.0
C4055 C 0.45596 0.74096 0.80104 0.0
C4056 C 0.46159 0.72808 0.80494 0.0
C4057 C 0.47527 0.72426 0.80102 0.0
C4058 C 0.48332 0.73375 0.79271 0.0
C4059 C 0.47772 0.74697 0.78839 0.0
C4060 C 0.46392 0.75064 0.79294 0.0
H4061 H 0.32316 0.41706 0.799 0.0
H4062 H 0.33006 0.43493 0.84089 0.0
H4063 H 0.31762 0.45662 0.83339 0.0
H4064 H 0.3281 0.44988 0.77911 0.0
H4065 H 0.3144 0.44554 0.76633 0.0
H4066 H 0.32423 0.43162 0.77488 0.0
H4067 H 0.30068 0.42006 0.78355 0.0
H4068 H 0.29079 0.43391 0.77499 0.0
H4069 H 0.28842 0.43044 0.79367 0.0
H4070 H 0.30378 0.47627 0.82135 0.0
H4071 H 0.28867 0.49148 0.80625 0.0
H4072 H 0.29155 0.46099 0.77209 0.0
C4073 C 0.32223 0.4256 0.80656 0.0
C4074 C 0.32763 0.42425 0.82056 0.0
C4075 C 0.3259 0.4356 0.83017 0.0
C4076 C 0.31895 0.44803 0.82597 0.0
C4077 C 0.31378 0.449 0.81209 0.0
C4078 C 0.31531 0.43806 0.80255 0.0
C4079 C 0.30837 0.44152 0.78842 0.0
C4080 C 0.31944 0.44218 0.77648 0.0
C4081 C 0.29635 0.43085 0.78496 0.0
C4082 C 0.30256 0.45606 0.79153 0.0
C4083 C 0.30587 0.46026 0.8052 0.0
C4084 C 0.30123 0.47313 0.81059 0.0
C4085 C 0.29273 0.48176 0.80189 0.0
C4086 C 0.28889 0.47748 0.78796 0.0
C4087 C 0.29418 0.46456 0.78271 0.0
H4088 H 0.71072 0.61321 0.24142 0.0
H4089 H 0.71542 0.60065 0.19743 0.0
H4090 H 0.72911 0.57983 0.20519 0.0
H4091 H 0.74577 0.60396 0.25258 0.0
H4092 H 0.74025 0.59782 0.26986 0.0
H4093 H 0.7303 0.61131 0.26081 0.0
H4094 H 0.70738 0.59594 0.26306 0.0
H4095 H 0.71729 0.58237 0.27207 0.0
H4096 H 0.70718 0.5781 0.25631 0.0
H4097 H 0.74307 0.5605 0.21796 0.0
H4098 H 0.75645 0.54508 0.23453 0.0
H4099 H 0.74255 0.57059 0.26989 0.0
C4100 C 0.71469 0.60616 0.23337 0.0
C4101 C 0.71192 0.60863 0.21878 0.0
C4102 C 0.71718 0.59894 0.20868 0.0
C4103 C 0.72504 0.58709 0.21298 0.0
C4104 C 0.72758 0.58502 0.22744 0.0
C4105 C 0.72256 0.59432 0.23746 0.0
C4106 C 0.72698 0.58994 0.25232 0.0
C4107 C 0.73638 0.60144 0.2593 0.0
C4108 C 0.71393 0.58637 0.26147 0.0
C4109 C 0.73541 0.57681 0.24909 0.0
C4110 C 0.73559 0.57405 0.23471 0.0
C4111 C 0.74294 0.56255 0.22926 0.0
C4112 C 0.75044 0.55379 0.23875 0.0
C4113 C 0.75061 0.55662 0.25351 0.0
C4114 C 0.74278 0.5682 0.25866 0.0
H4115 H 0.72273 0.41999 0.82258 0.0
H4116 H 0.6807 0.43774 0.81739 0.0
H4117 H 0.69121 0.45852 0.80517 0.0
H4118 H 0.74171 0.4533 0.82834 0.0
H4119 H 0.75705 0.44789 0.81847 0.0
H4120 H 0.74629 0.43484 0.82757 0.0
H4121 H 0.74275 0.42113 0.80401 0.0
H4122 H 0.75347 0.43414 0.79484 0.0
H4123 H 0.73569 0.4302 0.78869 0.0
H4124 H 0.70626 0.47682 0.79224 0.0
H4125 H 0.72466 0.49107 0.77983 0.0
H4126 H 0.75672 0.46137 0.79376 0.0
C4127 C 0.71572 0.42825 0.8189 0.0
C4128 C 0.70088 0.42723 0.82103 0.0
C4129 C 0.69212 0.43836 0.81612 0.0
C4130 C 0.69798 0.45018 0.80909 0.0
C4131 C 0.71263 0.45077 0.80706 0.0
C4132 C 0.72138 0.44011 0.81187 0.0
C4133 C 0.73673 0.44309 0.808 0.0
C4134 C 0.74599 0.44489 0.8214 0.0
C4135 C 0.74249 0.43145 0.79831 0.0
C4136 C 0.73521 0.45697 0.80007 0.0
C4137 C 0.72125 0.46128 0.79968 0.0
C4138 C 0.71725 0.47361 0.79259 0.0
C4139 C 0.72779 0.48168 0.78563 0.0
C4140 C 0.74215 0.47737 0.7858 0.0
C4141 C 0.74583 0.4649 0.79328 0.0
H4142 H 0.61526 0.709 0.79729 0.0
H4143 H 0.59714 0.70382 0.8393 0.0
H4144 H 0.57567 0.71646 0.83136 0.0
H4145 H 0.60259 0.74371 0.79083 0.0
H4146 H 0.59907 0.74082 0.77223 0.0
H4147 H 0.61274 0.73096 0.78113 0.0
H4148 H 0.60065 0.70746 0.77319 0.0
H4149 H 0.5869 0.71727 0.76429 0.0
H4150 H 0.58225 0.70414 0.77748 0.0
H4151 H 0.55626 0.73029 0.81883 0.0
H4152 H 0.54129 0.7451 0.8032 0.0
H4153 H 0.57186 0.74048 0.76925 0.0
C4154 C 0.60671 0.71035 0.80479 0.0
C4155 C 0.60793 0.70537 0.81895 0.0
C4156 C 0.59657 0.70765 0.82846 0.0
C4157 C 0.58426 0.71473 0.82401 0.0
C4158 C 0.58342 0.71946 0.80999 0.0
C4159 C 0.59437 0.71739 0.80054 0.0
C4160 C 0.59105 0.72392 0.78619 0.0
C4161 C 0.60201 0.73554 0.78238 0.0
C4162 C 0.59016 0.71251 0.7746 0.0
C4163 C 0.57659 0.73012 0.78907 0.0
C4164 C 0.5723 0.72736 0.80282 0.0
C4165 C 0.55948 0.73242 0.80801 0.0
C4166 C 0.55098 0.74074 0.79901 0.0
C4167 C 0.55535 0.744 0.78497 0.0
C4168 C 0.56822 0.73832 0.77995 0.0
H4169 H 0.31483 0.6153 0.81374 0.0
H4170 H 0.31211 0.59644 0.85577 0.0
H4171 H 0.30116 0.57491 0.84542 0.0
H4172 H 0.28142 0.60243 0.80116 0.0
H4173 H 0.28745 0.59935 0.78333 0.0
H4174 H 0.29585 0.6129 0.79396 0.0
H4175 H 0.32033 0.60132 0.79014 0.0
H4176 H 0.312 0.58772 0.77948 0.0
H4177 H 0.32264 0.58293 0.7947 0.0
H4178 H 0.28919 0.55581 0.83049 0.0
H4179 H 0.27728 0.54096 0.81227 0.0
H4180 H 0.28829 0.57222 0.78009 0.0
C4181 C 0.31195 0.60665 0.82079 0.0
C4182 C 0.31442 0.60759 0.83559 0.0
C4183 C 0.31057 0.59593 0.84438 0.0
C4184 C 0.30426 0.58366 0.83861 0.0
C4185 C 0.3019 0.58314 0.824 0.0
C4186 C 0.30568 0.59432 0.81521 0.0
C4187 C 0.30167 0.59127 0.79991 0.0
C4188 C 0.29096 0.60213 0.79426 0.0
C4189 C 0.31495 0.59078 0.79051 0.0
C4190 C 0.29486 0.57673 0.8015 0.0
C4191 C 0.29513 0.57217 0.81545 0.0
C4192 C 0.28904 0.55922 0.81951 0.0
C4193 C 0.28237 0.55081 0.80906 0.0
C4194 C 0.28181 0.55538 0.79471 0.0
C4195 C 0.28837 0.56845 0.79097 0.0
H4196 H 0.41885 0.31567 0.81209 0.0
H4197 H 0.4385 0.31243 0.85377 0.0
H4198 H 0.45967 0.30182 0.84301 0.0
H4199 H 0.43086 0.28327 0.79882 0.0
H4200 H 0.434 0.28965 0.78103 0.0
H4201 H 0.42076 0.29785 0.79186 0.0
H4202 H 0.43313 0.32228 0.7883 0.0
H4203 H 0.44638 0.31416 0.77739 0.0
H4204 H 0.45172 0.32437 0.79268 0.0
H4205 H 0.47811 0.28997 0.82784 0.0
H4206 H 0.49227 0.27815 0.80945 0.0
H4207 H 0.46115 0.2903 0.77757 0.0
C4208 C 0.42771 0.313 0.81894 0.0
C4209 C 0.42693 0.31485 0.83381 0.0
C4210 C 0.43871 0.31094 0.84238 0.0
C4211 C 0.45085 0.30499 0.83635 0.0
C4212 C 0.45116 0.30309 0.8217 0.0
C4213 C 0.43994 0.30707 0.81309 0.0
C4214 C 0.44272 0.30341 0.79771 0.0
C4215 C 0.43141 0.29292 0.79203 0.0
C4216 C 0.44354 0.31686 0.78848 0.0
C4217 C 0.45712 0.29651 0.79907 0.0
C4218 C 0.46185 0.29648 0.81297 0.0
C4219 C 0.4746 0.29011 0.81688 0.0
C4220 C 0.48263 0.28348 0.80632 0.0
C4221 C 0.4779 0.28326 0.792 0.0
C4222 C 0.46505 0.2901 0.78841 0.0
H4223 H 0.30158 0.41569 0.22 0.0
H4224 H 0.34201 0.43799 0.21611 0.0
H4225 H 0.33132 0.45942 0.22611 0.0
H4226 H 0.27905 0.44606 0.21152 0.0
H4227 H 0.26564 0.44095 0.22421 0.0
H4228 H 0.27619 0.42763 0.21582 0.0
H4229 H 0.28387 0.41816 0.24053 0.0
H4230 H 0.27336 0.43145 0.24898 0.0
H4231 H 0.29202 0.43014 0.25312 0.0
H4232 H 0.31681 0.47784 0.23839 0.0
H4233 H 0.29959 0.49181 0.25184 0.0
H4234 H 0.26815 0.45806 0.24673 0.0
C4235 C 0.30817 0.42511 0.22118 0.0
C4236 C 0.32264 0.42514 0.21716 0.0
C4237 C 0.33085 0.43773 0.21885 0.0
C4238 C 0.32489 0.44996 0.22459 0.0
C4239 C 0.31064 0.44954 0.22852 0.0
C4240 C 0.30235 0.43746 0.22681 0.0
C4241 C 0.28744 0.43968 0.23233 0.0
C4242 C 0.27643 0.43851 0.22025 0.0
C4243 C 0.28398 0.42924 0.24446 0.0
C4244 C 0.28875 0.45475 0.23772 0.0
C4245 C 0.30219 0.46027 0.23536 0.0
C4246 C 0.30617 0.47372 0.2401 0.0
C4247 C 0.29623 0.48164 0.24765 0.0
C4248 C 0.28239 0.47617 0.25039 0.0
C4249 C 0.27862 0.46261 0.24503 0.0
H4250 H 0.61226 0.29774 0.21227 0.0
H4251 H 0.60068 0.34175 0.21735 0.0
H4252 H 0.57964 0.33425 0.23119 0.0
H4253 H 0.57662 0.28332 0.20916 0.0
H4254 H 0.58066 0.26754 0.21915 0.0
H4255 H 0.59437 0.27638 0.20904 0.0
H4256 H 0.61006 0.27841 0.23167 0.0
H4257 H 0.59643 0.26954 0.24183 0.0
H4258 H 0.60301 0.2867 0.24728 0.0
H4259 H 0.5601 0.32174 0.24538 0.0
H4260 H 0.54452 0.3054 0.25914 0.0
H4261 H 0.56927 0.26987 0.24477 0.0
C4262 C 0.60537 0.30584 0.21633 0.0
C4263 C 0.60818 0.32036 0.21364 0.0
C4264 C 0.5987 0.33055 0.21904 0.0
C4265 C 0.58673 0.3264 0.22698 0.0
C4266 C 0.58433 0.312 0.22945 0.0
C4267 C 0.59342 0.3019 0.22429 0.0
C4268 C 0.58877 0.28714 0.22875 0.0
C4269 C 0.58487 0.27806 0.21575 0.0
C4270 C 0.60025 0.28004 0.23793 0.0
C4271 C 0.57574 0.29051 0.23739 0.0
C4272 C 0.57325 0.30489 0.23761 0.0
C4273 C 0.56193 0.31046 0.2452 0.0
C4274 C 0.55308 0.30111 0.25293 0.0
C4275 C 0.55569 0.28637 0.25308 0.0
C4276 C 0.56706 0.28109 0.24499 0.0
H4277 H 0.42205 0.73335 0.21085 0.0
H4278 H 0.4339 0.68951 0.21722 0.0
H4279 H 0.45494 0.69738 0.23107 0.0
H4280 H 0.45757 0.74796 0.2077 0.0
H4281 H 0.45341 0.76387 0.21723 0.0
H4282 H 0.43976 0.75475 0.20719 0.0
H4283 H 0.42409 0.75298 0.2297 0.0
H4284 H 0.43765 0.76213 0.23978 0.0
H4285 H 0.43122 0.74502 0.24561 0.0
H4286 H 0.47436 0.71027 0.24515 0.0
H4287 H 0.48979 0.72698 0.25867 0.0
H4288 H 0.4648 0.76206 0.24302 0.0
C4289 C 0.42901 0.72536 0.21519 0.0
C4290 C 0.42629 0.71079 0.2129 0.0
C4291 C 0.43583 0.70075 0.21864 0.0
C4292 C 0.44779 0.70511 0.22658 0.0
C4293 C 0.45009 0.71956 0.22868 0.0
C4294 C 0.44093 0.72952 0.22314 0.0
C4295 C 0.44546 0.74438 0.22725 0.0
C4296 C 0.44928 0.75326 0.21406 0.0
C4297 C 0.43392 0.75154 0.23611 0.0
C4298 C 0.4585 0.74124 0.23612 0.0
C4299 C 0.4611 0.7269 0.23677 0.0
C4300 C 0.47245 0.72154 0.24465 0.0
C4301 C 0.4812 0.73109 0.25223 0.0
C4302 C 0.47847 0.74579 0.25193 0.0
C4303 C 0.46708 0.75086 0.24357 0.0
loop_
_geom_bond_atom_site_label_1
_geom_bond_atom_site_label_2
_geom_bond_distance
_geom_bond_site_symmetry_2
_ccdc_geom_bond_type
C0 C1 1.264 . S
C0 C5 1.479 . S
C0 C10 1.465 . S
C1 C0 1.264 . S
C1 C3 1.339 . S
C1 H28 0.931 . S
C2 C3 1.395 . S
C2 C4 1.320 . S
C3 C1 1.339 . S
C3 C2 1.395 . S
C3 H29 0.929 . S
C4 C2 1.320 . S
C4 C5 1.405 . S
C4 H30 0.930 . S
C5 C0 1.479 . S
C5 C4 1.405 . S
C5 H31 0.931 . S
U6 O7 2.454 . S
U6 O8 2.458 . S
U6 C9 2.984 . S
U6 C10 2.847 . S
U6 C23 2.882 . S
U6 O24 2.441 . S
U6 O25 2.420 . S
U6 O26 2.455 . S
U6 O27 2.449 . S
O7 U6 2.454 . S
O7 C9 1.353 . S
O8 U6 2.458 . S
O8 C9 1.286 . S
C9 U6 2.984 . S
C9 O7 1.353 . S
C9 O8 1.286 . S
C9 C11 1.363 . S
C10 C0 1.465 . S
C10 U6 2.847 . S
C10 O24 1.249 . S
C10 O25 1.202 . S
C11 C9 1.363 . S
C11 C13 1.408 . S
C11 C16 1.342 . S
C12 C13 1.310 . S
C12 C15 1.461 . S
C12 H32 0.932 . S
C13 C11 1.408 . S
C13 C12 1.310 . S
C13 H33 0.930 . S
C14 C15 1.474 . S
C14 C16 1.285 . S
C14 H34 0.929 . S
C15 C12 1.461 . S
C15 C14 1.474 . S
C16 C11 1.342 . S
C16 C14 1.285 . S
C16 H35 0.930 . S
C17 C20 1.424 . S
C17 C22 1.245 . S
C17 C23 1.428 . S
C18 C21 1.260 . S
C18 C22 1.477 . S
C18 H36 0.932 . S
C19 C20 1.384 . S
C19 C21 1.479 . S
C19 H37 0.929 . S
C20 C17 1.424 . S
C20 C19 1.384 . S
C20 H38 0.928 . S
C21 C18 1.260 . S
C21 C19 1.479 . S
C22 C17 1.245 . S
C22 C18 1.477 . S
C22 H39 0.932 . S
C23 U6 2.882 . S
C23 C17 1.428 . S
C23 O26 1.301 . S
C23 O27 1.282 . S
O24 U6 2.441 . S
O24 C10 1.249 . S
O25 U6 2.420 . S
O25 C10 1.202 . S
O26 U6 2.455 . S
O26 C23 1.301 . S
O27 U6 2.449 . S
O27 C23 1.282 . S
H28 C1 0.931 . S
H29 C3 0.929 . S
H30 C4 0.930 . S
H31 C5 0.931 . S
H32 C12 0.932 . S
H33 C13 0.930 . S
H34 C14 0.929 . S
H35 C16 0.930 . S
H36 C18 0.932 . S
H37 C19 0.929 . S
H38 C20 0.928 . S
H39 C22 0.932 . S
C40 C41 1.264 . S
C40 C45 1.479 . S
C40 C50 1.465 . S
C41 C40 1.264 . S
C41 C43 1.339 . S
C41 H68 0.931 . S
C42 C43 1.395 . S
C42 C44 1.320 . S
C43 C41 1.339 . S
C43 C42 1.395 . S
C43 H69 0.929 . S
C44 C42 1.320 . S
C44 C45 1.405 . S
C44 H70 0.930 . S
C45 C40 1.479 . S
C45 C44 1.405 . S
C45 H71 0.931 . S
U46 O47 2.454 . S
U46 O48 2.458 . S
U46 C49 2.984 . S
U46 C50 2.847 . S
U46 C63 2.882 . S
U46 O64 2.441 . S
U46 O65 2.420 . S
U46 O66 2.455 . S
U46 O67 2.449 . S
O47 U46 2.454 . S
O47 C49 1.353 . S
O48 U46 2.458 . S
O48 C49 1.286 . S
C49 U46 2.984 . S
C49 O47 1.353 . S
C49 O48 1.286 . S
C49 C51 1.363 . S
C50 C40 1.465 . S
C50 U46 2.847 . S
C50 O64 1.249 . S
C50 O65 1.202 . S
C51 C49 1.363 . S
C51 C53 1.408 . S
C51 C56 1.342 . S
C52 C53 1.310 . S
C52 C55 1.461 . S
C52 H72 0.932 . S
C53 C51 1.408 . S
C53 C52 1.310 . S
C53 H73 0.930 . S
C54 C55 1.474 . S
C54 C56 1.285 . S
C54 H74 0.929 . S
C55 C52 1.461 . S
C55 C54 1.474 . S
C56 C51 1.342 . S
C56 C54 1.285 . S
C56 H75 0.930 . S
C57 C60 1.424 . S
C57 C62 1.245 . S
C57 C63 1.428 . S
C58 C61 1.260 . S
C58 C62 1.477 . S
C58 H76 0.932 . S
C59 C60 1.384 . S
C59 C61 1.479 . S
C59 H77 0.929 . S
C60 C57 1.424 . S
C60 C59 1.384 . S
C60 H78 0.928 . S
C61 C58 1.260 . S
C61 C59 1.479 . S
C62 C57 1.245 . S
C62 C58 1.477 . S
C62 H79 0.932 . S
C63 U46 2.882 . S
C63 C57 1.428 . S
C63 O66 1.301 . S
C63 O67 1.282 . S
O64 U46 2.441 . S
O64 C50 1.249 . S
O65 U46 2.420 . S
O65 C50 1.202 . S
O66 U46 2.455 . S
O66 C63 1.301 . S
O67 U46 2.449 . S
O67 C63 1.282 . S
H68 C41 0.931 . S
H69 C43 0.929 . S
H70 C44 0.930 . S
H71 C45 0.931 . S
H72 C52 0.932 . S
H73 C53 0.930 . S
H74 C54 0.929 . S
H75 C56 0.930 . S
H76 C58 0.932 . S
H77 C59 0.929 . S
H78 C60 0.928 . S
H79 C62 0.932 . S
C80 C81 1.264 . S
C80 C85 1.479 . S
C80 C90 1.465 . S
C81 C80 1.264 . S
C81 C83 1.339 . S
C81 H108 0.931 . S
C82 C83 1.395 . S
C82 C84 1.320 . S
C83 C81 1.339 . S
C83 C82 1.395 . S
C83 H109 0.929 . S
C84 C82 1.320 . S
C84 C85 1.405 . S
C84 H110 0.930 . S
C85 C80 1.479 . S
C85 C84 1.405 . S
C85 H111 0.931 . S
U86 O87 2.454 . S
U86 O88 2.458 . S
U86 C89 2.984 . S
U86 C90 2.847 . S
U86 C103 2.882 . S
U86 O104 2.441 . S
U86 O105 2.420 . S
U86 O106 2.455 . S
U86 O107 2.449 . S
O87 U86 2.454 . S
O87 C89 1.353 . S
O88 U86 2.458 . S
O88 C89 1.286 . S
C89 U86 2.984 . S
C89 O87 1.353 . S
C89 O88 1.286 . S
C89 C91 1.363 . S
C90 C80 1.465 . S
C90 U86 2.847 . S
C90 O104 1.249 . S
C90 O105 1.202 . S
C91 C89 1.363 . S
C91 C93 1.408 . S
C91 C96 1.342 . S
C92 C93 1.310 . S
C92 C95 1.461 . S
C92 H112 0.932 . S
C93 C91 1.408 . S
C93 C92 1.310 . S
C93 H113 0.930 . S
C94 C95 1.474 . S
C94 C96 1.285 . S
C94 H114 0.929 . S
C95 C92 1.461 . S
C95 C94 1.474 . S
C96 C91 1.342 . S
C96 C94 1.285 . S
C96 H115 0.930 . S
C97 C100 1.424 . S
C97 C102 1.245 . S
C97 C103 1.428 . S
C98 C101 1.260 . S
C98 C102 1.477 . S
C98 H116 0.932 . S
C99 C100 1.384 . S
C99 C101 1.479 . S
C99 H117 0.929 . S
C100 C97 1.424 . S
C100 C99 1.384 . S
C100 H118 0.928 . S
C101 C98 1.260 . S
C101 C99 1.479 . S
C102 C97 1.245 . S
C102 C98 1.477 . S
C102 H119 0.932 . S
C103 U86 2.882 . S
C103 C97 1.428 . S
C103 O106 1.301 . S
C103 O107 1.282 . S
O104 U86 2.441 . S
O104 C90 1.249 . S
O105 U86 2.420 . S
O105 C90 1.202 . S
O106 U86 2.455 . S
O106 C103 1.301 . S
O107 U86 2.449 . S
O107 C103 1.282 . S
H108 C81 0.931 . S
H109 C83 0.929 . S
H110 C84 0.930 . S
H111 C85 0.931 . S
H112 C92 0.932 . S
H113 C93 0.930 . S
H114 C94 0.929 . S
H115 C96 0.930 . S
H116 C98 0.932 . S
H117 C99 0.929 . S
H118 C100 0.928 . S
H119 C102 0.932 . S
C120 C121 1.264 . S
C120 C125 1.479 . S
C120 C130 1.465 . S
C121 C120 1.264 . S
C121 C123 1.339 . S
C121 H148 0.931 . S
C122 C123 1.395 . S
C122 C124 1.320 . S
C123 C121 1.339 . S
C123 C122 1.395 . S
C123 H149 0.929 . S
C124 C122 1.320 . S
C124 C125 1.405 . S
C124 H150 0.930 . S
C125 C120 1.479 . S
C125 C124 1.405 . S
C125 H151 0.931 . S
U126 O127 2.454 . S
U126 O128 2.458 . S
U126 C129 2.984 . S
U126 C130 2.847 . S
U126 C143 2.882 . S
U126 O144 2.441 . S
U126 O145 2.420 . S
U126 O146 2.455 . S
U126 O147 2.449 . S
O127 U126 2.454 . S
O127 C129 1.353 . S
O128 U126 2.458 . S
O128 C129 1.286 . S
C129 U126 2.984 . S
C129 O127 1.353 . S
C129 O128 1.286 . S
C129 C131 1.363 . S
C130 C120 1.465 . S
C130 U126 2.847 . S
C130 O144 1.249 . S
C130 O145 1.202 . S
C131 C129 1.363 . S
C131 C133 1.408 . S
C131 C136 1.342 . S
C132 C133 1.310 . S
C132 C135 1.461 . S
C132 H152 0.932 . S
C133 C131 1.408 . S
C133 C132 1.310 . S
C133 H153 0.930 . S
C134 C135 1.474 . S
C134 C136 1.285 . S
C134 H154 0.929 . S
C135 C132 1.461 . S
C135 C134 1.474 . S
C136 C131 1.342 . S
C136 C134 1.285 . S
C136 H155 0.930 . S
C137 C140 1.424 . S
C137 C142 1.245 . S
C137 C143 1.428 . S
C138 C141 1.260 . S
C138 C142 1.477 . S
C138 H156 0.932 . S
C139 C140 1.384 . S
C139 C141 1.479 . S
C139 H157 0.929 . S
C140 C137 1.424 . S
C140 C139 1.384 . S
C140 H158 0.928 . S
C141 C138 1.260 . S
C141 C139 1.479 . S
C142 C137 1.245 . S
C142 C138 1.477 . S
C142 H159 0.932 . S
C143 U126 2.882 . S
C143 C137 1.428 . S
C143 O146 1.301 . S
C143 O147 1.282 . S
O144 U126 2.441 . S
O144 C130 1.249 . S
O145 U126 2.420 . S
O145 C130 1.202 . S
O146 U126 2.455 . S
O146 C143 1.301 . S
O147 U126 2.449 . S
O147 C143 1.282 . S
H148 C121 0.931 . S
H149 C123 0.929 . S
H150 C124 0.930 . S
H151 C125 0.931 . S
H152 C132 0.932 . S
H153 C133 0.930 . S
H154 C134 0.929 . S
H155 C136 0.930 . S
H156 C138 0.932 . S
H157 C139 0.929 . S
H158 C140 0.928 . S
H159 C142 0.932 . S
C160 C161 1.264 . S
C160 C165 1.479 . S
C160 C170 1.465 . S
C161 C160 1.264 . S
C161 C163 1.339 . S
C161 H188 0.931 . S
C162 C163 1.395 . S
C162 C164 1.320 . S
C163 C161 1.339 . S
C163 C162 1.395 . S
C163 H189 0.929 . S
C164 C162 1.320 . S
C164 C165 1.405 . S
C164 H190 0.930 . S
C165 C160 1.479 . S
C165 C164 1.405 . S
C165 H191 0.931 . S
U166 O167 2.454 . S
U166 O168 2.458 . S
U166 C169 2.984 . S
U166 C170 2.847 . S
U166 C183 2.882 . S
U166 O184 2.441 . S
U166 O185 2.420 . S
U166 O186 2.455 . S
U166 O187 2.449 . S
O167 U166 2.454 . S
O167 C169 1.353 . S
O168 U166 2.458 . S
O168 C169 1.286 . S
C169 U166 2.984 . S
C169 O167 1.353 . S
C169 O168 1.286 . S
C169 C171 1.363 . S
C170 C160 1.465 . S
C170 U166 2.847 . S
C170 O184 1.249 . S
C170 O185 1.202 . S
C171 C169 1.363 . S
C171 C173 1.408 . S
C171 C176 1.342 . S
C172 C173 1.310 . S
C172 C175 1.461 . S
C172 H192 0.932 . S
C173 C171 1.408 . S
C173 C172 1.310 . S
C173 H193 0.930 . S
C174 C175 1.474 . S
C174 C176 1.285 . S
C174 H194 0.929 . S
C175 C172 1.461 . S
C175 C174 1.474 . S
C176 C171 1.342 . S
C176 C174 1.285 . S
C176 H195 0.930 . S
C177 C180 1.424 . S
C177 C182 1.245 . S
C177 C183 1.428 . S
C178 C181 1.260 . S
C178 C182 1.477 . S
C178 H196 0.932 . S
C179 C180 1.384 . S
C179 C181 1.479 . S
C179 H197 0.929 . S
C180 C177 1.424 . S
C180 C179 1.384 . S
C180 H198 0.928 . S
C181 C178 1.260 . S
C181 C179 1.479 . S
C182 C177 1.245 . S
C182 C178 1.477 . S
C182 H199 0.932 . S
C183 U166 2.882 . S
C183 C177 1.428 . S
C183 O186 1.301 . S
C183 O187 1.282 . S
O184 U166 2.441 . S
O184 C170 1.249 . S
O185 U166 2.420 . S
O185 C170 1.202 . S
O186 U166 2.455 . S
O186 C183 1.301 . S
O187 U166 2.449 . S
O187 C183 1.282 . S
H188 C161 0.931 . S
H189 C163 0.929 . S
H190 C164 0.930 . S
H191 C165 0.931 . S
H192 C172 0.932 . S
H193 C173 0.930 . S
H194 C174 0.929 . S
H195 C176 0.930 . S
H196 C178 0.932 . S
H197 C179 0.929 . S
H198 C180 0.928 . S
H199 C182 0.932 . S
C200 C201 1.264 . S
C200 C205 1.479 . S
C200 C210 1.465 . S
C201 C200 1.264 . S
C201 C203 1.339 . S
C201 H228 0.931 . S
C202 C203 1.395 . S
C202 C204 1.320 . S
C203 C201 1.339 . S
C203 C202 1.395 . S
C203 H229 0.929 . S
C204 C202 1.320 . S
C204 C205 1.405 . S
C204 H230 0.930 . S
C205 C200 1.479 . S
C205 C204 1.405 . S
C205 H231 0.931 . S
U206 O207 2.454 . S
U206 O208 2.458 . S
U206 C209 2.984 . S
U206 C210 2.847 . S
U206 C223 2.882 . S
U206 O224 2.441 . S
U206 O225 2.420 . S
U206 O226 2.455 . S
U206 O227 2.449 . S
O207 U206 2.454 . S
O207 C209 1.353 . S
O208 U206 2.458 . S
O208 C209 1.286 . S
C209 U206 2.984 . S
C209 O207 1.353 . S
C209 O208 1.286 . S
C209 C211 1.363 . S
C210 C200 1.465 . S
C210 U206 2.847 . S
C210 O224 1.249 . S
C210 O225 1.202 . S
C211 C209 1.363 . S
C211 C213 1.408 . S
C211 C216 1.342 . S
C212 C213 1.310 . S
C212 C215 1.461 . S
C212 H232 0.932 . S
C213 C211 1.408 . S
C213 C212 1.310 . S
C213 H233 0.930 . S
C214 C215 1.474 . S
C214 C216 1.285 . S
C214 H234 0.929 . S
C215 C212 1.461 . S
C215 C214 1.474 . S
C216 C211 1.342 . S
C216 C214 1.285 . S
C216 H235 0.930 . S
C217 C220 1.424 . S
C217 C222 1.245 . S
C217 C223 1.428 . S
C218 C221 1.260 . S
C218 C222 1.477 . S
C218 H236 0.932 . S
C219 C220 1.384 . S
C219 C221 1.479 . S
C219 H237 0.929 . S
C220 C217 1.424 . S
C220 C219 1.384 . S
C220 H238 0.928 . S
C221 C218 1.260 . S
C221 C219 1.479 . S
C222 C217 1.245 . S
C222 C218 1.477 . S
C222 H239 0.932 . S
C223 U206 2.882 . S
C223 C217 1.428 . S
C223 O226 1.301 . S
C223 O227 1.282 . S
O224 U206 2.441 . S
O224 C210 1.249 . S
O225 U206 2.420 . S
O225 C210 1.202 . S
O226 U206 2.455 . S
O226 C223 1.301 . S
O227 U206 2.449 . S
O227 C223 1.282 . S
H228 C201 0.931 . S
H229 C203 0.929 . S
H230 C204 0.930 . S
H231 C205 0.931 . S
H232 C212 0.932 . S
H233 C213 0.930 . S
H234 C214 0.929 . S
H235 C216 0.930 . S
H236 C218 0.932 . S
H237 C219 0.929 . S
H238 C220 0.928 . S
H239 C222 0.932 . S
C240 C241 1.264 . S
C240 C245 1.479 . S
C240 C250 1.465 . S
C241 C240 1.264 . S
C241 C243 1.339 . S
C241 H268 0.931 . S
C242 C243 1.395 . S
C242 C244 1.320 . S
C243 C241 1.339 . S
C243 C242 1.395 . S
C243 H269 0.929 . S
C244 C242 1.320 . S
C244 C245 1.405 . S
C244 H270 0.930 . S
C245 C240 1.479 . S
C245 C244 1.405 . S
C245 H271 0.931 . S
U246 O247 2.454 . S
U246 O248 2.458 . S
U246 C249 2.984 . S
U246 C250 2.847 . S
U246 C263 2.882 . S
U246 O264 2.441 . S
U246 O265 2.420 . S
U246 O266 2.455 . S
U246 O267 2.449 . S
O247 U246 2.454 . S
O247 C249 1.353 . S
O248 U246 2.458 . S
O248 C249 1.286 . S
C249 U246 2.984 . S
C249 O247 1.353 . S
C249 O248 1.286 . S
C249 C251 1.363 . S
C250 C240 1.465 . S
C250 U246 2.847 . S
C250 O264 1.249 . S
C250 O265 1.202 . S
C251 C249 1.363 . S
C251 C253 1.408 . S
C251 C256 1.342 . S
C252 C253 1.310 . S
C252 C255 1.461 . S
C252 H272 0.932 . S
C253 C251 1.408 . S
C253 C252 1.310 . S
C253 H273 0.930 . S
C254 C255 1.474 . S
C254 C256 1.285 . S
C254 H274 0.929 . S
C255 C252 1.461 . S
C255 C254 1.474 . S
C256 C251 1.342 . S
C256 C254 1.285 . S
C256 H275 0.930 . S
C257 C260 1.424 . S
C257 C262 1.245 . S
C257 C263 1.428 . S
C258 C261 1.260 . S
C258 C262 1.477 . S
C258 H276 0.932 . S
C259 C260 1.384 . S
C259 C261 1.479 . S
C259 H277 0.929 . S
C260 C257 1.424 . S
C260 C259 1.384 . S
C260 H278 0.928 . S
C261 C258 1.260 . S
C261 C259 1.479 . S
C262 C257 1.245 . S
C262 C258 1.477 . S
C262 H279 0.932 . S
C263 U246 2.882 . S
C263 C257 1.428 . S
C263 O266 1.301 . S
C263 O267 1.282 . S
O264 U246 2.441 . S
O264 C250 1.249 . S
O265 U246 2.420 . S
O265 C250 1.202 . S
O266 U246 2.455 . S
O266 C263 1.301 . S
O267 U246 2.449 . S
O267 C263 1.282 . S
H268 C241 0.931 . S
H269 C243 0.929 . S
H270 C244 0.930 . S
H271 C245 0.931 . S
H272 C252 0.932 . S
H273 C253 0.930 . S
H274 C254 0.929 . S
H275 C256 0.930 . S
H276 C258 0.932 . S
H277 C259 0.929 . S
H278 C260 0.928 . S
H279 C262 0.932 . S
C280 C281 1.264 . S
C280 C285 1.479 . S
C280 C290 1.465 . S
C281 C280 1.264 . S
C281 C283 1.339 . S
C281 H308 0.931 . S
C282 C283 1.395 . S
C282 C284 1.320 . S
C283 C281 1.339 . S
C283 C282 1.395 . S
C283 H309 0.929 . S
C284 C282 1.320 . S
C284 C285 1.405 . S
C284 H310 0.930 . S
C285 C280 1.479 . S
C285 C284 1.405 . S
C285 H311 0.931 . S
U286 O287 2.454 . S
U286 O288 2.458 . S
U286 C289 2.984 . S
U286 C290 2.847 . S
U286 C303 2.882 . S
U286 O304 2.441 . S
U286 O305 2.420 . S
U286 O306 2.455 . S
U286 O307 2.449 . S
O287 U286 2.454 . S
O287 C289 1.353 . S
O288 U286 2.458 . S
O288 C289 1.286 . S
C289 U286 2.984 . S
C289 O287 1.353 . S
C289 O288 1.286 . S
C289 C291 1.363 . S
C290 C280 1.465 . S
C290 U286 2.847 . S
C290 O304 1.249 . S
C290 O305 1.202 . S
C291 C289 1.363 . S
C291 C293 1.408 . S
C291 C296 1.342 . S
C292 C293 1.310 . S
C292 C295 1.461 . S
C292 H312 0.932 . S
C293 C291 1.408 . S
C293 C292 1.310 . S
C293 H313 0.930 . S
C294 C295 1.474 . S
C294 C296 1.285 . S
C294 H314 0.929 . S
C295 C292 1.461 . S
C295 C294 1.474 . S
C296 C291 1.342 . S
C296 C294 1.285 . S
C296 H315 0.930 . S
C297 C300 1.424 . S
C297 C302 1.245 . S
C297 C303 1.428 . S
C298 C301 1.260 . S
C298 C302 1.477 . S
C298 H316 0.932 . S
C299 C300 1.384 . S
C299 C301 1.479 . S
C299 H317 0.929 . S
C300 C297 1.424 . S
C300 C299 1.384 . S
C300 H318 0.928 . S
C301 C298 1.260 . S
C301 C299 1.479 . S
C302 C297 1.245 . S
C302 C298 1.477 . S
C302 H319 0.932 . S
C303 U286 2.882 . S
C303 C297 1.428 . S
C303 O306 1.301 . S
C303 O307 1.282 . S
O304 U286 2.441 . S
O304 C290 1.249 . S
O305 U286 2.420 . S
O305 C290 1.202 . S
O306 U286 2.455 . S
O306 C303 1.301 . S
O307 U286 2.449 . S
O307 C303 1.282 . S
H308 C281 0.931 . S
H309 C283 0.929 . S
H310 C284 0.930 . S
H311 C285 0.931 . S
H312 C292 0.932 . S
H313 C293 0.930 . S
H314 C294 0.929 . S
H315 C296 0.930 . S
H316 C298 0.932 . S
H317 C299 0.929 . S
H318 C300 0.928 . S
H319 C302 0.932 . S
C320 C321 1.264 . S
C320 C325 1.479 . S
C320 C330 1.465 . S
C321 C320 1.264 . S
C321 C323 1.339 . S
C321 H348 0.931 . S
C322 C323 1.395 . S
C322 C324 1.320 . S
C323 C321 1.339 . S
C323 C322 1.395 . S
C323 H349 0.929 . S
C324 C322 1.320 . S
C324 C325 1.405 . S
C324 H350 0.930 . S
C325 C320 1.479 . S
C325 C324 1.405 . S
C325 H351 0.931 . S
U326 O327 2.454 . S
U326 O328 2.458 . S
U326 C329 2.984 . S
U326 C330 2.847 . S
U326 C343 2.882 . S
U326 O344 2.441 . S
U326 O345 2.420 . S
U326 O346 2.455 . S
U326 O347 2.449 . S
O327 U326 2.454 . S
O327 C329 1.353 . S
O328 U326 2.458 . S
O328 C329 1.286 . S
C329 U326 2.984 . S
C329 O327 1.353 . S
C329 O328 1.286 . S
C329 C331 1.363 . S
C330 C320 1.465 . S
C330 U326 2.847 . S
C330 O344 1.249 . S
C330 O345 1.202 . S
C331 C329 1.363 . S
C331 C333 1.408 . S
C331 C336 1.342 . S
C332 C333 1.310 . S
C332 C335 1.461 . S
C332 H352 0.932 . S
C333 C331 1.408 . S
C333 C332 1.310 . S
C333 H353 0.930 . S
C334 C335 1.474 . S
C334 C336 1.285 . S
C334 H354 0.929 . S
C335 C332 1.461 . S
C335 C334 1.474 . S
C336 C331 1.342 . S
C336 C334 1.285 . S
C336 H355 0.930 . S
C337 C340 1.424 . S
C337 C342 1.245 . S
C337 C343 1.428 . S
C338 C341 1.260 . S
C338 C342 1.477 . S
C338 H356 0.932 . S
C339 C340 1.384 . S
C339 C341 1.479 . S
C339 H357 0.929 . S
C340 C337 1.424 . S
C340 C339 1.384 . S
C340 H358 0.928 . S
C341 C338 1.260 . S
C341 C339 1.479 . S
C342 C337 1.245 . S
C342 C338 1.477 . S
C342 H359 0.932 . S
C343 U326 2.882 . S
C343 C337 1.428 . S
C343 O346 1.301 . S
C343 O347 1.282 . S
O344 U326 2.441 . S
O344 C330 1.249 . S
O345 U326 2.420 . S
O345 C330 1.202 . S
O346 U326 2.455 . S
O346 C343 1.301 . S
O347 U326 2.449 . S
O347 C343 1.282 . S
H348 C321 0.931 . S
H349 C323 0.929 . S
H350 C324 0.930 . S
H351 C325 0.931 . S
H352 C332 0.932 . S
H353 C333 0.930 . S
H354 C334 0.929 . S
H355 C336 0.930 . S
H356 C338 0.932 . S
H357 C339 0.929 . S
H358 C340 0.928 . S
H359 C342 0.932 . S
C360 C361 1.264 . S
C360 C365 1.479 . S
C360 C370 1.465 . S
C361 C360 1.264 . S
C361 C363 1.339 . S
C361 H388 0.931 . S
C362 C363 1.395 . S
C362 C364 1.320 . S
C363 C361 1.339 . S
C363 C362 1.395 . S
C363 H389 0.929 . S
C364 C362 1.320 . S
C364 C365 1.405 . S
C364 H390 0.930 . S
C365 C360 1.479 . S
C365 C364 1.405 . S
C365 H391 0.931 . S
U366 O367 2.454 . S
U366 O368 2.458 . S
U366 C369 2.984 . S
U366 C370 2.847 . S
U366 C383 2.882 . S
U366 O384 2.441 . S
U366 O385 2.420 . S
U366 O386 2.455 . S
U366 O387 2.449 . S
O367 U366 2.454 . S
O367 C369 1.353 . S
O368 U366 2.458 . S
O368 C369 1.286 . S
C369 U366 2.984 . S
C369 O367 1.353 . S
C369 O368 1.286 . S
C369 C371 1.363 . S
C370 C360 1.465 . S
C370 U366 2.847 . S
C370 O384 1.249 . S
C370 O385 1.202 . S
C371 C369 1.363 . S
C371 C373 1.408 . S
C371 C376 1.342 . S
C372 C373 1.310 . S
C372 C375 1.461 . S
C372 H392 0.932 . S
C373 C371 1.408 . S
C373 C372 1.310 . S
C373 H393 0.930 . S
C374 C375 1.474 . S
C374 C376 1.285 . S
C374 H394 0.929 . S
C375 C372 1.461 . S
C375 C374 1.474 . S
C376 C371 1.342 . S
C376 C374 1.285 . S
C376 H395 0.930 . S
C377 C380 1.424 . S
C377 C382 1.245 . S
C377 C383 1.428 . S
C378 C381 1.260 . S
C378 C382 1.477 . S
C378 H396 0.932 . S
C379 C380 1.384 . S
C379 C381 1.479 . S
C379 H397 0.929 . S
C380 C377 1.424 . S
C380 C379 1.384 . S
C380 H398 0.928 . S
C381 C378 1.260 . S
C381 C379 1.479 . S
C382 C377 1.245 . S
C382 C378 1.477 . S
C382 H399 0.932 . S
C383 U366 2.882 . S
C383 C377 1.428 . S
C383 O386 1.301 . S
C383 O387 1.282 . S
O384 U366 2.441 . S
O384 C370 1.249 . S
O385 U366 2.420 . S
O385 C370 1.202 . S
O386 U366 2.455 . S
O386 C383 1.301 . S
O387 U366 2.449 . S
O387 C383 1.282 . S
H388 C361 0.931 . S
H389 C363 0.929 . S
H390 C364 0.930 . S
H391 C365 0.931 . S
H392 C372 0.932 . S
H393 C373 0.930 . S
H394 C374 0.929 . S
H395 C376 0.930 . S
H396 C378 0.932 . S
H397 C379 0.929 . S
H398 C380 0.928 . S
H399 C382 0.932 . S
C400 C401 1.264 . S
C400 C405 1.479 . S
C400 C410 1.465 . S
C401 C400 1.264 . S
C401 C403 1.339 . S
C401 H428 0.931 . S
C402 C403 1.395 . S
C402 C404 1.320 . S
C403 C401 1.339 . S
C403 C402 1.395 . S
C403 H429 0.929 . S
C404 C402 1.320 . S
C404 C405 1.405 . S
C404 H430 0.930 . S
C405 C400 1.479 . S
C405 C404 1.405 . S
C405 H431 0.931 . S
U406 O407 2.454 . S
U406 O408 2.458 . S
U406 C409 2.984 . S
U406 C410 2.847 . S
U406 C423 2.882 . S
U406 O424 2.441 . S
U406 O425 2.420 . S
U406 O426 2.455 . S
U406 O427 2.449 . S
O407 U406 2.454 . S
O407 C409 1.353 . S
O408 U406 2.458 . S
O408 C409 1.286 . S
C409 U406 2.984 . S
C409 O407 1.353 . S
C409 O408 1.286 . S
C409 C411 1.363 . S
C410 C400 1.465 . S
C410 U406 2.847 . S
C410 O424 1.249 . S
C410 O425 1.202 . S
C411 C409 1.363 . S
C411 C413 1.408 . S
C411 C416 1.342 . S
C412 C413 1.310 . S
C412 C415 1.461 . S
C412 H432 0.932 . S
C413 C411 1.408 . S
C413 C412 1.310 . S
C413 H433 0.930 . S
C414 C415 1.474 . S
C414 C416 1.285 . S
C414 H434 0.929 . S
C415 C412 1.461 . S
C415 C414 1.474 . S
C416 C411 1.342 . S
C416 C414 1.285 . S
C416 H435 0.930 . S
C417 C420 1.424 . S
C417 C422 1.245 . S
C417 C423 1.428 . S
C418 C421 1.260 . S
C418 C422 1.477 . S
C418 H436 0.932 . S
C419 C420 1.384 . S
C419 C421 1.479 . S
C419 H437 0.929 . S
C420 C417 1.424 . S
C420 C419 1.384 . S
C420 H438 0.928 . S
C421 C418 1.260 . S
C421 C419 1.479 . S
C422 C417 1.245 . S
C422 C418 1.477 . S
C422 H439 0.932 . S
C423 U406 2.882 . S
C423 C417 1.428 . S
C423 O426 1.301 . S
C423 O427 1.282 . S
O424 U406 2.441 . S
O424 C410 1.249 . S
O425 U406 2.420 . S
O425 C410 1.202 . S
O426 U406 2.455 . S
O426 C423 1.301 . S
O427 U406 2.449 . S
O427 C423 1.282 . S
H428 C401 0.931 . S
H429 C403 0.929 . S
H430 C404 0.930 . S
H431 C405 0.931 . S
H432 C412 0.932 . S
H433 C413 0.930 . S
H434 C414 0.929 . S
H435 C416 0.930 . S
H436 C418 0.932 . S
H437 C419 0.929 . S
H438 C420 0.928 . S
H439 C422 0.932 . S
C440 C441 1.264 . S
C440 C445 1.479 . S
C440 C450 1.465 . S
C441 C440 1.264 . S
C441 C443 1.339 . S
C441 H468 0.931 . S
C442 C443 1.395 . S
C442 C444 1.320 . S
C443 C441 1.339 . S
C443 C442 1.395 . S
C443 H469 0.929 . S
C444 C442 1.320 . S
C444 C445 1.405 . S
C444 H470 0.930 . S
C445 C440 1.479 . S
C445 C444 1.405 . S
C445 H471 0.931 . S
U446 O447 2.454 . S
U446 O448 2.458 . S
U446 C449 2.984 . S
U446 C450 2.847 . S
U446 C463 2.882 . S
U446 O464 2.441 . S
U446 O465 2.420 . S
U446 O466 2.455 . S
U446 O467 2.449 . S
O447 U446 2.454 . S
O447 C449 1.353 . S
O448 U446 2.458 . S
O448 C449 1.286 . S
C449 U446 2.984 . S
C449 O447 1.353 . S
C449 O448 1.286 . S
C449 C451 1.363 . S
C450 C440 1.465 . S
C450 U446 2.847 . S
C450 O464 1.249 . S
C450 O465 1.202 . S
C451 C449 1.363 . S
C451 C453 1.408 . S
C451 C456 1.342 . S
C452 C453 1.310 . S
C452 C455 1.461 . S
C452 H472 0.932 . S
C453 C451 1.408 . S
C453 C452 1.310 . S
C453 H473 0.930 . S
C454 C455 1.474 . S
C454 C456 1.285 . S
C454 H474 0.929 . S
C455 C452 1.461 . S
C455 C454 1.474 . S
C456 C451 1.342 . S
C456 C454 1.285 . S
C456 H475 0.930 . S
C457 C460 1.424 . S
C457 C462 1.245 . S
C457 C463 1.428 . S
C458 C461 1.260 . S
C458 C462 1.477 . S
C458 H476 0.932 . S
C459 C460 1.384 . S
C459 C461 1.479 . S
C459 H477 0.929 . S
C460 C457 1.424 . S
C460 C459 1.384 . S
C460 H478 0.928 . S
C461 C458 1.260 . S
C461 C459 1.479 . S
C462 C457 1.245 . S
C462 C458 1.477 . S
C462 H479 0.932 . S
C463 U446 2.882 . S
C463 C457 1.428 . S
C463 O466 1.301 . S
C463 O467 1.282 . S
O464 U446 2.441 . S
O464 C450 1.249 . S
O465 U446 2.420 . S
O465 C450 1.202 . S
O466 U446 2.455 . S
O466 C463 1.301 . S
O467 U446 2.449 . S
O467 C463 1.282 . S
H468 C441 0.931 . S
H469 C443 0.929 . S
H470 C444 0.930 . S
H471 C445 0.931 . S
H472 C452 0.932 . S
H473 C453 0.930 . S
H474 C454 0.929 . S
H475 C456 0.930 . S
H476 C458 0.932 . S
H477 C459 0.929 . S
H478 C460 0.928 . S
H479 C462 0.932 . S
C480 C481 1.264 . S
C480 C485 1.479 . S
C480 C490 1.465 . S
C481 C480 1.264 . S
C481 C483 1.339 . S
C481 H508 0.931 . S
C482 C483 1.395 . S
C482 C484 1.320 . S
C483 C481 1.339 . S
C483 C482 1.395 . S
C483 H509 0.929 . S
C484 C482 1.320 . S
C484 C485 1.405 . S
C484 H510 0.930 . S
C485 C480 1.479 . S
C485 C484 1.405 . S
C485 H511 0.931 . S
U486 O487 2.454 . S
U486 O488 2.458 . S
U486 C489 2.984 . S
U486 C490 2.847 . S
U486 C503 2.882 . S
U486 O504 2.441 . S
U486 O505 2.420 . S
U486 O506 2.455 . S
U486 O507 2.449 . S
O487 U486 2.454 . S
O487 C489 1.353 . S
O488 U486 2.458 . S
O488 C489 1.286 . S
C489 U486 2.984 . S
C489 O487 1.353 . S
C489 O488 1.286 . S
C489 C491 1.363 . S
C490 C480 1.465 . S
C490 U486 2.847 . S
C490 O504 1.249 . S
C490 O505 1.202 . S
C491 C489 1.363 . S
C491 C493 1.408 . S
C491 C496 1.342 . S
C492 C493 1.310 . S
C492 C495 1.461 . S
C492 H512 0.932 . S
C493 C491 1.408 . S
C493 C492 1.310 . S
C493 H513 0.930 . S
C494 C495 1.474 . S
C494 C496 1.285 . S
C494 H514 0.929 . S
C495 C492 1.461 . S
C495 C494 1.474 . S
C496 C491 1.342 . S
C496 C494 1.285 . S
C496 H515 0.930 . S
C497 C500 1.424 . S
C497 C502 1.245 . S
C497 C503 1.428 . S
C498 C501 1.260 . S
C498 C502 1.477 . S
C498 H516 0.932 . S
C499 C500 1.384 . S
C499 C501 1.479 . S
C499 H517 0.929 . S
C500 C497 1.424 . S
C500 C499 1.384 . S
C500 H518 0.928 . S
C501 C498 1.260 . S
C501 C499 1.479 . S
C502 C497 1.245 . S
C502 C498 1.477 . S
C502 H519 0.932 . S
C503 U486 2.882 . S
C503 C497 1.428 . S
C503 O506 1.301 . S
C503 O507 1.282 . S
O504 U486 2.441 . S
O504 C490 1.249 . S
O505 U486 2.420 . S
O505 C490 1.202 . S
O506 U486 2.455 . S
O506 C503 1.301 . S
O507 U486 2.449 . S
O507 C503 1.282 . S
H508 C481 0.931 . S
H509 C483 0.929 . S
H510 C484 0.930 . S
H511 C485 0.931 . S
H512 C492 0.932 . S
H513 C493 0.930 . S
H514 C494 0.929 . S
H515 C496 0.930 . S
H516 C498 0.932 . S
H517 C499 0.929 . S
H518 C500 0.928 . S
H519 C502 0.932 . S
C520 C521 1.264 . S
C520 C525 1.479 . S
C520 C530 1.465 . S
C521 C520 1.264 . S
C521 C523 1.339 . S
C521 H548 0.931 . S
C522 C523 1.395 . S
C522 C524 1.320 . S
C523 C521 1.339 . S
C523 C522 1.395 . S
C523 H549 0.929 . S
C524 C522 1.320 . S
C524 C525 1.405 . S
C524 H550 0.930 . S
C525 C520 1.479 . S
C525 C524 1.405 . S
C525 H551 0.931 . S
U526 O527 2.454 . S
U526 O528 2.458 . S
U526 C529 2.984 . S
U526 C530 2.847 . S
U526 C543 2.882 . S
U526 O544 2.441 . S
U526 O545 2.420 . S
U526 O546 2.455 . S
U526 O547 2.449 . S
O527 U526 2.454 . S
O527 C529 1.353 . S
O528 U526 2.458 . S
O528 C529 1.286 . S
C529 U526 2.984 . S
C529 O527 1.353 . S
C529 O528 1.286 . S
C529 C531 1.363 . S
C530 C520 1.465 . S
C530 U526 2.847 . S
C530 O544 1.249 . S
C530 O545 1.202 . S
C531 C529 1.363 . S
C531 C533 1.408 . S
C531 C536 1.342 . S
C532 C533 1.310 . S
C532 C535 1.461 . S
C532 H552 0.932 . S
C533 C531 1.408 . S
C533 C532 1.310 . S
C533 H553 0.930 . S
C534 C535 1.474 . S
C534 C536 1.285 . S
C534 H554 0.929 . S
C535 C532 1.461 . S
C535 C534 1.474 . S
C536 C531 1.342 . S
C536 C534 1.285 . S
C536 H555 0.930 . S
C537 C540 1.424 . S
C537 C542 1.245 . S
C537 C543 1.428 . S
C538 C541 1.260 . S
C538 C542 1.477 . S
C538 H556 0.932 . S
C539 C540 1.384 . S
C539 C541 1.479 . S
C539 H557 0.929 . S
C540 C537 1.424 . S
C540 C539 1.384 . S
C540 H558 0.928 . S
C541 C538 1.260 . S
C541 C539 1.479 . S
C542 C537 1.245 . S
C542 C538 1.477 . S
C542 H559 0.932 . S
C543 U526 2.882 . S
C543 C537 1.428 . S
C543 O546 1.301 . S
C543 O547 1.282 . S
O544 U526 2.441 . S
O544 C530 1.249 . S
O545 U526 2.420 . S
O545 C530 1.202 . S
O546 U526 2.455 . S
O546 C543 1.301 . S
O547 U526 2.449 . S
O547 C543 1.282 . S
H548 C521 0.931 . S
H549 C523 0.929 . S
H550 C524 0.930 . S
H551 C525 0.931 . S
H552 C532 0.932 . S
H553 C533 0.930 . S
H554 C534 0.929 . S
H555 C536 0.930 . S
H556 C538 0.932 . S
H557 C539 0.929 . S
H558 C540 0.928 . S
H559 C542 0.932 . S
C560 C561 1.264 . S
C560 C565 1.479 . S
C560 C570 1.465 . S
C561 C560 1.264 . S
C561 C563 1.339 . S
C561 H588 0.931 . S
C562 C563 1.395 . S
C562 C564 1.320 . S
C563 C561 1.339 . S
C563 C562 1.395 . S
C563 H589 0.929 . S
C564 C562 1.320 . S
C564 C565 1.405 . S
C564 H590 0.930 . S
C565 C560 1.479 . S
C565 C564 1.405 . S
C565 H591 0.931 . S
U566 O567 2.454 . S
U566 O568 2.458 . S
U566 C569 2.984 . S
U566 C570 2.847 . S
U566 C583 2.882 . S
U566 O584 2.441 . S
U566 O585 2.420 . S
U566 O586 2.455 . S
U566 O587 2.449 . S
O567 U566 2.454 . S
O567 C569 1.353 . S
O568 U566 2.458 . S
O568 C569 1.286 . S
C569 U566 2.984 . S
C569 O567 1.353 . S
C569 O568 1.286 . S
C569 C571 1.363 . S
C570 C560 1.465 . S
C570 U566 2.847 . S
C570 O584 1.249 . S
C570 O585 1.202 . S
C571 C569 1.363 . S
C571 C573 1.408 . S
C571 C576 1.342 . S
C572 C573 1.310 . S
C572 C575 1.461 . S
C572 H592 0.932 . S
C573 C571 1.408 . S
C573 C572 1.310 . S
C573 H593 0.930 . S
C574 C575 1.474 . S
C574 C576 1.285 . S
C574 H594 0.929 . S
C575 C572 1.461 . S
C575 C574 1.474 . S
C576 C571 1.342 . S
C576 C574 1.285 . S
C576 H595 0.930 . S
C577 C580 1.424 . S
C577 C582 1.245 . S
C577 C583 1.428 . S
C578 C581 1.260 . S
C578 C582 1.477 . S
C578 H596 0.932 . S
C579 C580 1.384 . S
C579 C581 1.479 . S
C579 H597 0.929 . S
C580 C577 1.424 . S
C580 C579 1.384 . S
C580 H598 0.928 . S
C581 C578 1.260 . S
C581 C579 1.479 . S
C582 C577 1.245 . S
C582 C578 1.477 . S
C582 H599 0.932 . S
C583 U566 2.882 . S
C583 C577 1.428 . S
C583 O586 1.301 . S
C583 O587 1.282 . S
O584 U566 2.441 . S
O584 C570 1.249 . S
O585 U566 2.420 . S
O585 C570 1.202 . S
O586 U566 2.455 . S
O586 C583 1.301 . S
O587 U566 2.449 . S
O587 C583 1.282 . S
H588 C561 0.931 . S
H589 C563 0.929 . S
H590 C564 0.930 . S
H591 C565 0.931 . S
H592 C572 0.932 . S
H593 C573 0.930 . S
H594 C574 0.929 . S
H595 C576 0.930 . S
H596 C578 0.932 . S
H597 C579 0.929 . S
H598 C580 0.928 . S
H599 C582 0.932 . S
C600 C601 1.264 . S
C600 C605 1.479 . S
C600 C610 1.465 . S
C601 C600 1.264 . S
C601 C603 1.339 . S
C601 H628 0.931 . S
C602 C603 1.395 . S
C602 C604 1.320 . S
C603 C601 1.339 . S
C603 C602 1.395 . S
C603 H629 0.929 . S
C604 C602 1.320 . S
C604 C605 1.405 . S
C604 H630 0.930 . S
C605 C600 1.479 . S
C605 C604 1.405 . S
C605 H631 0.931 . S
U606 O607 2.454 . S
U606 O608 2.458 . S
U606 C609 2.984 . S
U606 C610 2.847 . S
U606 C623 2.882 . S
U606 O624 2.441 . S
U606 O625 2.420 . S
U606 O626 2.455 . S
U606 O627 2.449 . S
O607 U606 2.454 . S
O607 C609 1.353 . S
O608 U606 2.458 . S
O608 C609 1.286 . S
C609 U606 2.984 . S
C609 O607 1.353 . S
C609 O608 1.286 . S
C609 C611 1.363 . S
C610 C600 1.465 . S
C610 U606 2.847 . S
C610 O624 1.249 . S
C610 O625 1.202 . S
C611 C609 1.363 . S
C611 C613 1.408 . S
C611 C616 1.342 . S
C612 C613 1.310 . S
C612 C615 1.461 . S
C612 H632 0.932 . S
C613 C611 1.408 . S
C613 C612 1.310 . S
C613 H633 0.930 . S
C614 C615 1.474 . S
C614 C616 1.285 . S
C614 H634 0.929 . S
C615 C612 1.461 . S
C615 C614 1.474 . S
C616 C611 1.342 . S
C616 C614 1.285 . S
C616 H635 0.930 . S
C617 C620 1.424 . S
C617 C622 1.245 . S
C617 C623 1.428 . S
C618 C621 1.260 . S
C618 C622 1.477 . S
C618 H636 0.932 . S
C619 C620 1.384 . S
C619 C621 1.479 . S
C619 H637 0.929 . S
C620 C617 1.424 . S
C620 C619 1.384 . S
C620 H638 0.928 . S
C621 C618 1.260 . S
C621 C619 1.479 . S
C622 C617 1.245 . S
C622 C618 1.477 . S
C622 H639 0.932 . S
C623 U606 2.882 . S
C623 C617 1.428 . S
C623 O626 1.301 . S
C623 O627 1.282 . S
O624 U606 2.441 . S
O624 C610 1.249 . S
O625 U606 2.420 . S
O625 C610 1.202 . S
O626 U606 2.455 . S
O626 C623 1.301 . S
O627 U606 2.449 . S
O627 C623 1.282 . S
H628 C601 0.931 . S
H629 C603 0.929 . S
H630 C604 0.930 . S
H631 C605 0.931 . S
H632 C612 0.932 . S
H633 C613 0.930 . S
H634 C614 0.929 . S
H635 C616 0.930 . S
H636 C618 0.932 . S
H637 C619 0.929 . S
H638 C620 0.928 . S
H639 C622 0.932 . S
C640 C641 1.264 . S
C640 C645 1.479 . S
C640 C650 1.465 . S
C641 C640 1.264 . S
C641 C643 1.339 . S
C641 H668 0.931 . S
C642 C643 1.395 . S
C642 C644 1.320 . S
C643 C641 1.339 . S
C643 C642 1.395 . S
C643 H669 0.929 . S
C644 C642 1.320 . S
C644 C645 1.405 . S
C644 H670 0.930 . S
C645 C640 1.479 . S
C645 C644 1.405 . S
C645 H671 0.931 . S
U646 O647 2.454 . S
U646 O648 2.458 . S
U646 C649 2.984 . S
U646 C650 2.847 . S
U646 C663 2.882 . S
U646 O664 2.441 . S
U646 O665 2.420 . S
U646 O666 2.455 . S
U646 O667 2.449 . S
O647 U646 2.454 . S
O647 C649 1.353 . S
O648 U646 2.458 . S
O648 C649 1.286 . S
C649 U646 2.984 . S
C649 O647 1.353 . S
C649 O648 1.286 . S
C649 C651 1.363 . S
C650 C640 1.465 . S
C650 U646 2.847 . S
C650 O664 1.249 . S
C650 O665 1.202 . S
C651 C649 1.363 . S
C651 C653 1.408 . S
C651 C656 1.342 . S
C652 C653 1.310 . S
C652 C655 1.461 . S
C652 H672 0.932 . S
C653 C651 1.408 . S
C653 C652 1.310 . S
C653 H673 0.930 . S
C654 C655 1.474 . S
C654 C656 1.285 . S
C654 H674 0.929 . S
C655 C652 1.461 . S
C655 C654 1.474 . S
C656 C651 1.342 . S
C656 C654 1.285 . S
C656 H675 0.930 . S
C657 C660 1.424 . S
C657 C662 1.245 . S
C657 C663 1.428 . S
C658 C661 1.260 . S
C658 C662 1.477 . S
C658 H676 0.932 . S
C659 C660 1.384 . S
C659 C661 1.479 . S
C659 H677 0.929 . S
C660 C657 1.424 . S
C660 C659 1.384 . S
C660 H678 0.928 . S
C661 C658 1.260 . S
C661 C659 1.479 . S
C662 C657 1.245 . S
C662 C658 1.477 . S
C662 H679 0.932 . S
C663 U646 2.882 . S
C663 C657 1.428 . S
C663 O666 1.301 . S
C663 O667 1.282 . S
O664 U646 2.441 . S
O664 C650 1.249 . S
O665 U646 2.420 . S
O665 C650 1.202 . S
O666 U646 2.455 . S
O666 C663 1.301 . S
O667 U646 2.449 . S
O667 C663 1.282 . S
H668 C641 0.931 . S
H669 C643 0.929 . S
H670 C644 0.930 . S
H671 C645 0.931 . S
H672 C652 0.932 . S
H673 C653 0.930 . S
H674 C654 0.929 . S
H675 C656 0.930 . S
H676 C658 0.932 . S
H677 C659 0.929 . S
H678 C660 0.928 . S
H679 C662 0.932 . S
C680 C681 1.264 . S
C680 C685 1.479 . S
C680 C690 1.465 . S
C681 C680 1.264 . S
C681 C683 1.339 . S
C681 H708 0.931 . S
C682 C683 1.395 . S
C682 C684 1.320 . S
C683 C681 1.339 . S
C683 C682 1.395 . S
C683 H709 0.929 . S
C684 C682 1.320 . S
C684 C685 1.405 . S
C684 H710 0.930 . S
C685 C680 1.479 . S
C685 C684 1.405 . S
C685 H711 0.931 . S
U686 O687 2.454 . S
U686 O688 2.458 . S
U686 C689 2.984 . S
U686 C690 2.847 . S
U686 C703 2.882 . S
U686 O704 2.441 . S
U686 O705 2.420 . S
U686 O706 2.455 . S
U686 O707 2.449 . S
O687 U686 2.454 . S
O687 C689 1.353 . S
O688 U686 2.458 . S
O688 C689 1.286 . S
C689 U686 2.984 . S
C689 O687 1.353 . S
C689 O688 1.286 . S
C689 C691 1.363 . S
C690 C680 1.465 . S
C690 U686 2.847 . S
C690 O704 1.249 . S
C690 O705 1.202 . S
C691 C689 1.363 . S
C691 C693 1.408 . S
C691 C696 1.342 . S
C692 C693 1.310 . S
C692 C695 1.461 . S
C692 H712 0.932 . S
C693 C691 1.408 . S
C693 C692 1.310 . S
C693 H713 0.930 . S
C694 C695 1.474 . S
C694 C696 1.285 . S
C694 H714 0.929 . S
C695 C692 1.461 . S
C695 C694 1.474 . S
C696 C691 1.342 . S
C696 C694 1.285 . S
C696 H715 0.930 . S
C697 C700 1.424 . S
C697 C702 1.245 . S
C697 C703 1.428 . S
C698 C701 1.260 . S
C698 C702 1.477 . S
C698 H716 0.932 . S
C699 C700 1.384 . S
C699 C701 1.479 . S
C699 H717 0.929 . S
C700 C697 1.424 . S
C700 C699 1.384 . S
C700 H718 0.928 . S
C701 C698 1.260 . S
C701 C699 1.479 . S
C702 C697 1.245 . S
C702 C698 1.477 . S
C702 H719 0.932 . S
C703 U686 2.882 . S
C703 C697 1.428 . S
C703 O706 1.301 . S
C703 O707 1.282 . S
O704 U686 2.441 . S
O704 C690 1.249 . S
O705 U686 2.420 . S
O705 C690 1.202 . S
O706 U686 2.455 . S
O706 C703 1.301 . S
O707 U686 2.449 . S
O707 C703 1.282 . S
H708 C681 0.931 . S
H709 C683 0.929 . S
H710 C684 0.930 . S
H711 C685 0.931 . S
H712 C692 0.932 . S
H713 C693 0.930 . S
H714 C694 0.929 . S
H715 C696 0.930 . S
H716 C698 0.932 . S
H717 C699 0.929 . S
H718 C700 0.928 . S
H719 C702 0.932 . S
C720 C721 1.264 . S
C720 C725 1.479 . S
C720 C730 1.465 . S
C721 C720 1.264 . S
C721 C723 1.339 . S
C721 H748 0.931 . S
C722 C723 1.395 . S
C722 C724 1.320 . S
C723 C721 1.339 . S
C723 C722 1.395 . S
C723 H749 0.929 . S
C724 C722 1.320 . S
C724 C725 1.405 . S
C724 H750 0.930 . S
C725 C720 1.479 . S
C725 C724 1.405 . S
C725 H751 0.931 . S
U726 O727 2.454 . S
U726 O728 2.458 . S
U726 C729 2.984 . S
U726 C730 2.847 . S
U726 C743 2.882 . S
U726 O744 2.441 . S
U726 O745 2.420 . S
U726 O746 2.455 . S
U726 O747 2.449 . S
O727 U726 2.454 . S
O727 C729 1.353 . S
O728 U726 2.458 . S
O728 C729 1.286 . S
C729 U726 2.984 . S
C729 O727 1.353 . S
C729 O728 1.286 . S
C729 C731 1.363 . S
C730 C720 1.465 . S
C730 U726 2.847 . S
C730 O744 1.249 . S
C730 O745 1.202 . S
C731 C729 1.363 . S
C731 C733 1.408 . S
C731 C736 1.342 . S
C732 C733 1.310 . S
C732 C735 1.461 . S
C732 H752 0.932 . S
C733 C731 1.408 . S
C733 C732 1.310 . S
C733 H753 0.930 . S
C734 C735 1.474 . S
C734 C736 1.285 . S
C734 H754 0.929 . S
C735 C732 1.461 . S
C735 C734 1.474 . S
C736 C731 1.342 . S
C736 C734 1.285 . S
C736 H755 0.930 . S
C737 C740 1.424 . S
C737 C742 1.245 . S
C737 C743 1.428 . S
C738 C741 1.260 . S
C738 C742 1.477 . S
C738 H756 0.932 . S
C739 C740 1.384 . S
C739 C741 1.479 . S
C739 H757 0.929 . S
C740 C737 1.424 . S
C740 C739 1.384 . S
C740 H758 0.928 . S
C741 C738 1.260 . S
C741 C739 1.479 . S
C742 C737 1.245 . S
C742 C738 1.477 . S
C742 H759 0.932 . S
C743 U726 2.882 . S
C743 C737 1.428 . S
C743 O746 1.301 . S
C743 O747 1.282 . S
O744 U726 2.441 . S
O744 C730 1.249 . S
O745 U726 2.420 . S
O745 C730 1.202 . S
O746 U726 2.455 . S
O746 C743 1.301 . S
O747 U726 2.449 . S
O747 C743 1.282 . S
H748 C721 0.931 . S
H749 C723 0.929 . S
H750 C724 0.930 . S
H751 C725 0.931 . S
H752 C732 0.932 . S
H753 C733 0.930 . S
H754 C734 0.929 . S
H755 C736 0.930 . S
H756 C738 0.932 . S
H757 C739 0.929 . S
H758 C740 0.928 . S
H759 C742 0.932 . S
C760 C761 1.264 . S
C760 C765 1.479 . S
C760 C770 1.465 . S
C761 C760 1.264 . S
C761 C763 1.339 . S
C761 H788 0.931 . S
C762 C763 1.395 . S
C762 C764 1.320 . S
C763 C761 1.339 . S
C763 C762 1.395 . S
C763 H789 0.929 . S
C764 C762 1.320 . S
C764 C765 1.405 . S
C764 H790 0.930 . S
C765 C760 1.479 . S
C765 C764 1.405 . S
C765 H791 0.931 . S
U766 O767 2.454 . S
U766 O768 2.458 . S
U766 C769 2.984 . S
U766 C770 2.847 . S
U766 C783 2.882 . S
U766 O784 2.441 . S
U766 O785 2.420 . S
U766 O786 2.455 . S
U766 O787 2.449 . S
O767 U766 2.454 . S
O767 C769 1.353 . S
O768 U766 2.458 . S
O768 C769 1.286 . S
C769 U766 2.984 . S
C769 O767 1.353 . S
C769 O768 1.286 . S
C769 C771 1.363 . S
C770 C760 1.465 . S
C770 U766 2.847 . S
C770 O784 1.249 . S
C770 O785 1.202 . S
C771 C769 1.363 . S
C771 C773 1.408 . S
C771 C776 1.342 . S
C772 C773 1.310 . S
C772 C775 1.461 . S
C772 H792 0.932 . S
C773 C771 1.408 . S
C773 C772 1.310 . S
C773 H793 0.930 . S
C774 C775 1.474 . S
C774 C776 1.285 . S
C774 H794 0.929 . S
C775 C772 1.461 . S
C775 C774 1.474 . S
C776 C771 1.342 . S
C776 C774 1.285 . S
C776 H795 0.930 . S
C777 C780 1.424 . S
C777 C782 1.245 . S
C777 C783 1.428 . S
C778 C781 1.260 . S
C778 C782 1.477 . S
C778 H796 0.932 . S
C779 C780 1.384 . S
C779 C781 1.479 . S
C779 H797 0.929 . S
C780 C777 1.424 . S
C780 C779 1.384 . S
C780 H798 0.928 . S
C781 C778 1.260 . S
C781 C779 1.479 . S
C782 C777 1.245 . S
C782 C778 1.477 . S
C782 H799 0.932 . S
C783 U766 2.882 . S
C783 C777 1.428 . S
C783 O786 1.301 . S
C783 O787 1.282 . S
O784 U766 2.441 . S
O784 C770 1.249 . S
O785 U766 2.420 . S
O785 C770 1.202 . S
O786 U766 2.455 . S
O786 C783 1.301 . S
O787 U766 2.449 . S
O787 C783 1.282 . S
H788 C761 0.931 . S
H789 C763 0.929 . S
H790 C764 0.930 . S
H791 C765 0.931 . S
H792 C772 0.932 . S
H793 C773 0.930 . S
H794 C774 0.929 . S
H795 C776 0.930 . S
H796 C778 0.932 . S
H797 C779 0.929 . S
H798 C780 0.928 . S
H799 C782 0.932 . S
C800 C801 1.264 . S
C800 C805 1.479 . S
C800 C810 1.465 . S
C801 C800 1.264 . S
C801 C803 1.339 . S
C801 H828 0.931 . S
C802 C803 1.395 . S
C802 C804 1.320 . S
C803 C801 1.339 . S
C803 C802 1.395 . S
C803 H829 0.929 . S
C804 C802 1.320 . S
C804 C805 1.405 . S
C804 H830 0.930 . S
C805 C800 1.479 . S
C805 C804 1.405 . S
C805 H831 0.931 . S
U806 O807 2.454 . S
U806 O808 2.458 . S
U806 C809 2.984 . S
U806 C810 2.847 . S
U806 C823 2.882 . S
U806 O824 2.441 . S
U806 O825 2.420 . S
U806 O826 2.455 . S
U806 O827 2.449 . S
O807 U806 2.454 . S
O807 C809 1.353 . S
O808 U806 2.458 . S
O808 C809 1.286 . S
C809 U806 2.984 . S
C809 O807 1.353 . S
C809 O808 1.286 . S
C809 C811 1.363 . S
C810 C800 1.465 . S
C810 U806 2.847 . S
C810 O824 1.249 . S
C810 O825 1.202 . S
C811 C809 1.363 . S
C811 C813 1.408 . S
C811 C816 1.342 . S
C812 C813 1.310 . S
C812 C815 1.461 . S
C812 H832 0.932 . S
C813 C811 1.408 . S
C813 C812 1.310 . S
C813 H833 0.930 . S
C814 C815 1.474 . S
C814 C816 1.285 . S
C814 H834 0.929 . S
C815 C812 1.461 . S
C815 C814 1.474 . S
C816 C811 1.342 . S
C816 C814 1.285 . S
C816 H835 0.930 . S
C817 C820 1.424 . S
C817 C822 1.245 . S
C817 C823 1.428 . S
C818 C821 1.260 . S
C818 C822 1.477 . S
C818 H836 0.932 . S
C819 C820 1.384 . S
C819 C821 1.479 . S
C819 H837 0.929 . S
C820 C817 1.424 . S
C820 C819 1.384 . S
C820 H838 0.928 . S
C821 C818 1.260 . S
C821 C819 1.479 . S
C822 C817 1.245 . S
C822 C818 1.477 . S
C822 H839 0.932 . S
C823 U806 2.882 . S
C823 C817 1.428 . S
C823 O826 1.301 . S
C823 O827 1.282 . S
O824 U806 2.441 . S
O824 C810 1.249 . S
O825 U806 2.420 . S
O825 C810 1.202 . S
O826 U806 2.455 . S
O826 C823 1.301 . S
O827 U806 2.449 . S
O827 C823 1.282 . S
H828 C801 0.931 . S
H829 C803 0.929 . S
H830 C804 0.930 . S
H831 C805 0.931 . S
H832 C812 0.932 . S
H833 C813 0.930 . S
H834 C814 0.929 . S
H835 C816 0.930 . S
H836 C818 0.932 . S
H837 C819 0.929 . S
H838 C820 0.928 . S
H839 C822 0.932 . S
C840 C841 1.264 . S
C840 C845 1.479 . S
C840 C850 1.465 . S
C841 C840 1.264 . S
C841 C843 1.339 . S
C841 H868 0.931 . S
C842 C843 1.395 . S
C842 C844 1.320 . S
C843 C841 1.339 . S
C843 C842 1.395 . S
C843 H869 0.929 . S
C844 C842 1.320 . S
C844 C845 1.405 . S
C844 H870 0.930 . S
C845 C840 1.479 . S
C845 C844 1.405 . S
C845 H871 0.931 . S
U846 O847 2.454 . S
U846 O848 2.458 . S
U846 C849 2.984 . S
U846 C850 2.847 . S
U846 C863 2.882 . S
U846 O864 2.441 . S
U846 O865 2.420 . S
U846 O866 2.455 . S
U846 O867 2.449 . S
O847 U846 2.454 . S
O847 C849 1.353 . S
O848 U846 2.458 . S
O848 C849 1.286 . S
C849 U846 2.984 . S
C849 O847 1.353 . S
C849 O848 1.286 . S
C849 C851 1.363 . S
C850 C840 1.465 . S
C850 U846 2.847 . S
C850 O864 1.249 . S
C850 O865 1.202 . S
C851 C849 1.363 . S
C851 C853 1.408 . S
C851 C856 1.342 . S
C852 C853 1.310 . S
C852 C855 1.461 . S
C852 H872 0.932 . S
C853 C851 1.408 . S
C853 C852 1.310 . S
C853 H873 0.930 . S
C854 C855 1.474 . S
C854 C856 1.285 . S
C854 H874 0.929 . S
C855 C852 1.461 . S
C855 C854 1.474 . S
C856 C851 1.342 . S
C856 C854 1.285 . S
C856 H875 0.930 . S
C857 C860 1.424 . S
C857 C862 1.245 . S
C857 C863 1.428 . S
C858 C861 1.260 . S
C858 C862 1.477 . S
C858 H876 0.932 . S
C859 C860 1.384 . S
C859 C861 1.479 . S
C859 H877 0.929 . S
C860 C857 1.424 . S
C860 C859 1.384 . S
C860 H878 0.928 . S
C861 C858 1.260 . S
C861 C859 1.479 . S
C862 C857 1.245 . S
C862 C858 1.477 . S
C862 H879 0.932 . S
C863 U846 2.882 . S
C863 C857 1.428 . S
C863 O866 1.301 . S
C863 O867 1.282 . S
O864 U846 2.441 . S
O864 C850 1.249 . S
O865 U846 2.420 . S
O865 C850 1.202 . S
O866 U846 2.455 . S
O866 C863 1.301 . S
O867 U846 2.449 . S
O867 C863 1.282 . S
H868 C841 0.931 . S
H869 C843 0.929 . S
H870 C844 0.930 . S
H871 C845 0.931 . S
H872 C852 0.932 . S
H873 C853 0.930 . S
H874 C854 0.929 . S
H875 C856 0.930 . S
H876 C858 0.932 . S
H877 C859 0.929 . S
H878 C860 0.928 . S
H879 C862 0.932 . S
C880 C881 1.264 . S
C880 C885 1.479 . S
C880 C890 1.465 . S
C881 C880 1.264 . S
C881 C883 1.339 . S
C881 H908 0.931 . S
C882 C883 1.395 . S
C882 C884 1.320 . S
C883 C881 1.339 . S
C883 C882 1.395 . S
C883 H909 0.929 . S
C884 C882 1.320 . S
C884 C885 1.405 . S
C884 H910 0.930 . S
C885 C880 1.479 . S
C885 C884 1.405 . S
C885 H911 0.931 . S
U886 O887 2.454 . S
U886 O888 2.458 . S
U886 C889 2.984 . S
U886 C890 2.847 . S
U886 C903 2.882 . S
U886 O904 2.441 . S
U886 O905 2.420 . S
U886 O906 2.455 . S
U886 O907 2.449 . S
O887 U886 2.454 . S
O887 C889 1.353 . S
O888 U886 2.458 . S
O888 C889 1.286 . S
C889 U886 2.984 . S
C889 O887 1.353 . S
C889 O888 1.286 . S
C889 C891 1.363 . S
C890 C880 1.465 . S
C890 U886 2.847 . S
C890 O904 1.249 . S
C890 O905 1.202 . S
C891 C889 1.363 . S
C891 C893 1.408 . S
C891 C896 1.342 . S
C892 C893 1.310 . S
C892 C895 1.461 . S
C892 H912 0.932 . S
C893 C891 1.408 . S
C893 C892 1.310 . S
C893 H913 0.930 . S
C894 C895 1.474 . S
C894 C896 1.285 . S
C894 H914 0.929 . S
C895 C892 1.461 . S
C895 C894 1.474 . S
C896 C891 1.342 . S
C896 C894 1.285 . S
C896 H915 0.930 . S
C897 C900 1.424 . S
C897 C902 1.245 . S
C897 C903 1.428 . S
C898 C901 1.260 . S
C898 C902 1.477 . S
C898 H916 0.932 . S
C899 C900 1.384 . S
C899 C901 1.479 . S
C899 H917 0.929 . S
C900 C897 1.424 . S
C900 C899 1.384 . S
C900 H918 0.928 . S
C901 C898 1.260 . S
C901 C899 1.479 . S
C902 C897 1.245 . S
C902 C898 1.477 . S
C902 H919 0.932 . S
C903 U886 2.882 . S
C903 C897 1.428 . S
C903 O906 1.301 . S
C903 O907 1.282 . S
O904 U886 2.441 . S
O904 C890 1.249 . S
O905 U886 2.420 . S
O905 C890 1.202 . S
O906 U886 2.455 . S
O906 C903 1.301 . S
O907 U886 2.449 . S
O907 C903 1.282 . S
H908 C881 0.931 . S
H909 C883 0.929 . S
H910 C884 0.930 . S
H911 C885 0.931 . S
H912 C892 0.932 . S
H913 C893 0.930 . S
H914 C894 0.929 . S
H915 C896 0.930 . S
H916 C898 0.932 . S
H917 C899 0.929 . S
H918 C900 0.928 . S
H919 C902 0.932 . S
C920 C921 1.264 . S
C920 C925 1.479 . S
C920 C930 1.465 . S
C921 C920 1.264 . S
C921 C923 1.339 . S
C921 H948 0.931 . S
C922 C923 1.395 . S
C922 C924 1.320 . S
C923 C921 1.339 . S
C923 C922 1.395 . S
C923 H949 0.929 . S
C924 C922 1.320 . S
C924 C925 1.405 . S
C924 H950 0.930 . S
C925 C920 1.479 . S
C925 C924 1.405 . S
C925 H951 0.931 . S
U926 O927 2.454 . S
U926 O928 2.458 . S
U926 C929 2.984 . S
U926 C930 2.847 . S
U926 C943 2.882 . S
U926 O944 2.441 . S
U926 O945 2.420 . S
U926 O946 2.455 . S
U926 O947 2.449 . S
O927 U926 2.454 . S
O927 C929 1.353 . S
O928 U926 2.458 . S
O928 C929 1.286 . S
C929 U926 2.984 . S
C929 O927 1.353 . S
C929 O928 1.286 . S
C929 C931 1.363 . S
C930 C920 1.465 . S
C930 U926 2.847 . S
C930 O944 1.249 . S
C930 O945 1.202 . S
C931 C929 1.363 . S
C931 C933 1.408 . S
C931 C936 1.342 . S
C932 C933 1.310 . S
C932 C935 1.461 . S
C932 H952 0.932 . S
C933 C931 1.408 . S
C933 C932 1.310 . S
C933 H953 0.930 . S
C934 C935 1.474 . S
C934 C936 1.285 . S
C934 H954 0.929 . S
C935 C932 1.461 . S
C935 C934 1.474 . S
C936 C931 1.342 . S
C936 C934 1.285 . S
C936 H955 0.930 . S
C937 C940 1.424 . S
C937 C942 1.245 . S
C937 C943 1.428 . S
C938 C941 1.260 . S
C938 C942 1.477 . S
C938 H956 0.932 . S
C939 C940 1.384 . S
C939 C941 1.479 . S
C939 H957 0.929 . S
C940 C937 1.424 . S
C940 C939 1.384 . S
C940 H958 0.928 . S
C941 C938 1.260 . S
C941 C939 1.479 . S
C942 C937 1.245 . S
C942 C938 1.477 . S
C942 H959 0.932 . S
C943 U926 2.882 . S
C943 C937 1.428 . S
C943 O946 1.301 . S
C943 O947 1.282 . S
O944 U926 2.441 . S
O944 C930 1.249 . S
O945 U926 2.420 . S
O945 C930 1.202 . S
O946 U926 2.455 . S
O946 C943 1.301 . S
O947 U926 2.449 . S
O947 C943 1.282 . S
H948 C921 0.931 . S
H949 C923 0.929 . S
H950 C924 0.930 . S
H951 C925 0.931 . S
H952 C932 0.932 . S
H953 C933 0.930 . S
H954 C934 0.929 . S
H955 C936 0.930 . S
H956 C938 0.932 . S
H957 C939 0.929 . S
H958 C940 0.928 . S
H959 C942 0.932 . S
C960 C961 1.264 . S
C960 C965 1.479 . S
C960 C970 1.465 . S
C961 C960 1.264 . S
C961 C963 1.339 . S
C961 H988 0.931 . S
C962 C963 1.395 . S
C962 C964 1.320 . S
C963 C961 1.339 . S
C963 C962 1.395 . S
C963 H989 0.929 . S
C964 C962 1.320 . S
C964 C965 1.405 . S
C964 H990 0.930 . S
C965 C960 1.479 . S
C965 C964 1.405 . S
C965 H991 0.931 . S
U966 O967 2.454 . S
U966 O968 2.458 . S
U966 C969 2.984 . S
U966 C970 2.847 . S
U966 C983 2.882 . S
U966 O984 2.441 . S
U966 O985 2.420 . S
U966 O986 2.455 . S
U966 O987 2.449 . S
O967 U966 2.454 . S
O967 C969 1.353 . S
O968 U966 2.458 . S
O968 C969 1.286 . S
C969 U966 2.984 . S
C969 O967 1.353 . S
C969 O968 1.286 . S
C969 C971 1.363 . S
C970 C960 1.465 . S
C970 U966 2.847 . S
C970 O984 1.249 . S
C970 O985 1.202 . S
C971 C969 1.363 . S
C971 C973 1.408 . S
C971 C976 1.342 . S
C972 C973 1.310 . S
C972 C975 1.461 . S
C972 H992 0.932 . S
C973 C971 1.408 . S
C973 C972 1.310 . S
C973 H993 0.930 . S
C974 C975 1.474 . S
C974 C976 1.285 . S
C974 H994 0.929 . S
C975 C972 1.461 . S
C975 C974 1.474 . S
C976 C971 1.342 . S
C976 C974 1.285 . S
C976 H995 0.930 . S
C977 C980 1.424 . S
C977 C982 1.245 . S
C977 C983 1.428 . S
C978 C981 1.260 . S
C978 C982 1.477 . S
C978 H996 0.932 . S
C979 C980 1.384 . S
C979 C981 1.479 . S
C979 H997 0.929 . S
C980 C977 1.424 . S
C980 C979 1.384 . S
C980 H998 0.928 . S
C981 C978 1.260 . S
C981 C979 1.479 . S
C982 C977 1.245 . S
C982 C978 1.477 . S
C982 H999 0.932 . S
C983 U966 2.882 . S
C983 C977 1.428 . S
C983 O986 1.301 . S
C983 O987 1.282 . S
O984 U966 2.441 . S
O984 C970 1.249 . S
O985 U966 2.420 . S
O985 C970 1.202 . S
O986 U966 2.455 . S
O986 C983 1.301 . S
O987 U966 2.449 . S
O987 C983 1.282 . S
H988 C961 0.931 . S
H989 C963 0.929 . S
H990 C964 0.930 . S
H991 C965 0.931 . S
H992 C972 0.932 . S
H993 C973 0.930 . S
H994 C974 0.929 . S
H995 C976 0.930 . S
H996 C978 0.932 . S
H997 C979 0.929 . S
H998 C980 0.928 . S
H999 C982 0.932 . S
C1000 C1001 1.264 . S
C1000 C1005 1.479 . S
C1000 C1010 1.465 . S
C1001 C1000 1.264 . S
C1001 C1003 1.339 . S
C1001 H1028 0.931 . S
C1002 C1003 1.395 . S
C1002 C1004 1.320 . S
C1003 C1001 1.339 . S
C1003 C1002 1.395 . S
C1003 H1029 0.929 . S
C1004 C1002 1.320 . S
C1004 C1005 1.405 . S
C1004 H1030 0.930 . S
C1005 C1000 1.479 . S
C1005 C1004 1.405 . S
C1005 H1031 0.931 . S
U1006 O1007 2.454 . S
U1006 O1008 2.458 . S
U1006 C1009 2.984 . S
U1006 C1010 2.847 . S
U1006 C1023 2.882 . S
U1006 O1024 2.441 . S
U1006 O1025 2.420 . S
U1006 O1026 2.455 . S
U1006 O1027 2.449 . S
O1007 U1006 2.454 . S
O1007 C1009 1.353 . S
O1008 U1006 2.458 . S
O1008 C1009 1.286 . S
C1009 U1006 2.984 . S
C1009 O1007 1.353 . S
C1009 O1008 1.286 . S
C1009 C1011 1.363 . S
C1010 C1000 1.465 . S
C1010 U1006 2.847 . S
C1010 O1024 1.249 . S
C1010 O1025 1.202 . S
C1011 C1009 1.363 . S
C1011 C1013 1.408 . S
C1011 C1016 1.342 . S
C1012 C1013 1.310 . S
C1012 C1015 1.461 . S
C1012 H1032 0.932 . S
C1013 C1011 1.408 . S
C1013 C1012 1.310 . S
C1013 H1033 0.930 . S
C1014 C1015 1.474 . S
C1014 C1016 1.285 . S
C1014 H1034 0.929 . S
C1015 C1012 1.461 . S
C1015 C1014 1.474 . S
C1016 C1011 1.342 . S
C1016 C1014 1.285 . S
C1016 H1035 0.930 . S
C1017 C1020 1.424 . S
C1017 C1022 1.245 . S
C1017 C1023 1.428 . S
C1018 C1021 1.260 . S
C1018 C1022 1.477 . S
C1018 H1036 0.932 . S
C1019 C1020 1.384 . S
C1019 C1021 1.479 . S
C1019 H1037 0.929 . S
C1020 C1017 1.424 . S
C1020 C1019 1.384 . S
C1020 H1038 0.928 . S
C1021 C1018 1.260 . S
C1021 C1019 1.479 . S
C1022 C1017 1.245 . S
C1022 C1018 1.477 . S
C1022 H1039 0.932 . S
C1023 U1006 2.882 . S
C1023 C1017 1.428 . S
C1023 O1026 1.301 . S
C1023 O1027 1.282 . S
O1024 U1006 2.441 . S
O1024 C1010 1.249 . S
O1025 U1006 2.420 . S
O1025 C1010 1.202 . S
O1026 U1006 2.455 . S
O1026 C1023 1.301 . S
O1027 U1006 2.449 . S
O1027 C1023 1.282 . S
H1028 C1001 0.931 . S
H1029 C1003 0.929 . S
H1030 C1004 0.930 . S
H1031 C1005 0.931 . S
H1032 C1012 0.932 . S
H1033 C1013 0.930 . S
H1034 C1014 0.929 . S
H1035 C1016 0.930 . S
H1036 C1018 0.932 . S
H1037 C1019 0.929 . S
H1038 C1020 0.928 . S
H1039 C1022 0.932 . S
C1040 C1041 1.264 . S
C1040 C1045 1.479 . S
C1040 C1050 1.465 . S
C1041 C1040 1.264 . S
C1041 C1043 1.339 . S
C1041 H1068 0.931 . S
C1042 C1043 1.395 . S
C1042 C1044 1.320 . S
C1043 C1041 1.339 . S
C1043 C1042 1.395 . S
C1043 H1069 0.929 . S
C1044 C1042 1.320 . S
C1044 C1045 1.405 . S
C1044 H1070 0.930 . S
C1045 C1040 1.479 . S
C1045 C1044 1.405 . S
C1045 H1071 0.931 . S
U1046 O1047 2.454 . S
U1046 O1048 2.458 . S
U1046 C1049 2.984 . S
U1046 C1050 2.847 . S
U1046 C1063 2.882 . S
U1046 O1064 2.441 . S
U1046 O1065 2.420 . S
U1046 O1066 2.455 . S
U1046 O1067 2.449 . S
O1047 U1046 2.454 . S
O1047 C1049 1.353 . S
O1048 U1046 2.458 . S
O1048 C1049 1.286 . S
C1049 U1046 2.984 . S
C1049 O1047 1.353 . S
C1049 O1048 1.286 . S
C1049 C1051 1.363 . S
C1050 C1040 1.465 . S
C1050 U1046 2.847 . S
C1050 O1064 1.249 . S
C1050 O1065 1.202 . S
C1051 C1049 1.363 . S
C1051 C1053 1.408 . S
C1051 C1056 1.342 . S
C1052 C1053 1.310 . S
C1052 C1055 1.461 . S
C1052 H1072 0.932 . S
C1053 C1051 1.408 . S
C1053 C1052 1.310 . S
C1053 H1073 0.930 . S
C1054 C1055 1.474 . S
C1054 C1056 1.285 . S
C1054 H1074 0.929 . S
C1055 C1052 1.461 . S
C1055 C1054 1.474 . S
C1056 C1051 1.342 . S
C1056 C1054 1.285 . S
C1056 H1075 0.930 . S
C1057 C1060 1.424 . S
C1057 C1062 1.245 . S
C1057 C1063 1.428 . S
C1058 C1061 1.260 . S
C1058 C1062 1.477 . S
C1058 H1076 0.932 . S
C1059 C1060 1.384 . S
C1059 C1061 1.479 . S
C1059 H1077 0.929 . S
C1060 C1057 1.424 . S
C1060 C1059 1.384 . S
C1060 H1078 0.928 . S
C1061 C1058 1.260 . S
C1061 C1059 1.479 . S
C1062 C1057 1.245 . S
C1062 C1058 1.477 . S
C1062 H1079 0.932 . S
C1063 U1046 2.882 . S
C1063 C1057 1.428 . S
C1063 O1066 1.301 . S
C1063 O1067 1.282 . S
O1064 U1046 2.441 . S
O1064 C1050 1.249 . S
O1065 U1046 2.420 . S
O1065 C1050 1.202 . S
O1066 U1046 2.455 . S
O1066 C1063 1.301 . S
O1067 U1046 2.449 . S
O1067 C1063 1.282 . S
H1068 C1041 0.931 . S
H1069 C1043 0.929 . S
H1070 C1044 0.930 . S
H1071 C1045 0.931 . S
H1072 C1052 0.932 . S
H1073 C1053 0.930 . S
H1074 C1054 0.929 . S
H1075 C1056 0.930 . S
H1076 C1058 0.932 . S
H1077 C1059 0.929 . S
H1078 C1060 0.928 . S
H1079 C1062 0.932 . S
C1080 C1081 1.264 . S
C1080 C1085 1.479 . S
C1080 C1090 1.465 . S
C1081 C1080 1.264 . S
C1081 C1083 1.339 . S
C1081 H1108 0.931 . S
C1082 C1083 1.395 . S
C1082 C1084 1.320 . S
C1083 C1081 1.339 . S
C1083 C1082 1.395 . S
C1083 H1109 0.929 . S
C1084 C1082 1.320 . S
C1084 C1085 1.405 . S
C1084 H1110 0.930 . S
C1085 C1080 1.479 . S
C1085 C1084 1.405 . S
C1085 H1111 0.931 . S
U1086 O1087 2.454 . S
U1086 O1088 2.458 . S
U1086 C1089 2.984 . S
U1086 C1090 2.847 . S
U1086 C1103 2.882 . S
U1086 O1104 2.441 . S
U1086 O1105 2.420 . S
U1086 O1106 2.455 . S
U1086 O1107 2.449 . S
O1087 U1086 2.454 . S
O1087 C1089 1.353 . S
O1088 U1086 2.458 . S
O1088 C1089 1.286 . S
C1089 U1086 2.984 . S
C1089 O1087 1.353 . S
C1089 O1088 1.286 . S
C1089 C1091 1.363 . S
C1090 C1080 1.465 . S
C1090 U1086 2.847 . S
C1090 O1104 1.249 . S
C1090 O1105 1.202 . S
C1091 C1089 1.363 . S
C1091 C1093 1.408 . S
C1091 C1096 1.342 . S
C1092 C1093 1.310 . S
C1092 C1095 1.461 . S
C1092 H1112 0.932 . S
C1093 C1091 1.408 . S
C1093 C1092 1.310 . S
C1093 H1113 0.930 . S
C1094 C1095 1.474 . S
C1094 C1096 1.285 . S
C1094 H1114 0.929 . S
C1095 C1092 1.461 . S
C1095 C1094 1.474 . S
C1096 C1091 1.342 . S
C1096 C1094 1.285 . S
C1096 H1115 0.930 . S
C1097 C1100 1.424 . S
C1097 C1102 1.245 . S
C1097 C1103 1.428 . S
C1098 C1101 1.260 . S
C1098 C1102 1.477 . S
C1098 H1116 0.932 . S
C1099 C1100 1.384 . S
C1099 C1101 1.479 . S
C1099 H1117 0.929 . S
C1100 C1097 1.424 . S
C1100 C1099 1.384 . S
C1100 H1118 0.928 . S
C1101 C1098 1.260 . S
C1101 C1099 1.479 . S
C1102 C1097 1.245 . S
C1102 C1098 1.477 . S
C1102 H1119 0.932 . S
C1103 U1086 2.882 . S
C1103 C1097 1.428 . S
C1103 O1106 1.301 . S
C1103 O1107 1.282 . S
O1104 U1086 2.441 . S
O1104 C1090 1.249 . S
O1105 U1086 2.420 . S
O1105 C1090 1.202 . S
O1106 U1086 2.455 . S
O1106 C1103 1.301 . S
O1107 U1086 2.449 . S
O1107 C1103 1.282 . S
H1108 C1081 0.931 . S
H1109 C1083 0.929 . S
H1110 C1084 0.930 . S
H1111 C1085 0.931 . S
H1112 C1092 0.932 . S
H1113 C1093 0.930 . S
H1114 C1094 0.929 . S
H1115 C1096 0.930 . S
H1116 C1098 0.932 . S
H1117 C1099 0.929 . S
H1118 C1100 0.928 . S
H1119 C1102 0.932 . S
C1120 C1121 1.264 . S
C1120 C1125 1.479 . S
C1120 C1130 1.465 . S
C1121 C1120 1.264 . S
C1121 C1123 1.339 . S
C1121 H1148 0.931 . S
C1122 C1123 1.395 . S
C1122 C1124 1.320 . S
C1123 C1121 1.339 . S
C1123 C1122 1.395 . S
C1123 H1149 0.929 . S
C1124 C1122 1.320 . S
C1124 C1125 1.405 . S
C1124 H1150 0.930 . S
C1125 C1120 1.479 . S
C1125 C1124 1.405 . S
C1125 H1151 0.931 . S
U1126 O1127 2.454 . S
U1126 O1128 2.458 . S
U1126 C1129 2.984 . S
U1126 C1130 2.847 . S
U1126 C1143 2.882 . S
U1126 O1144 2.441 . S
U1126 O1145 2.420 . S
U1126 O1146 2.455 . S
U1126 O1147 2.449 . S
O1127 U1126 2.454 . S
O1127 C1129 1.353 . S
O1128 U1126 2.458 . S
O1128 C1129 1.286 . S
C1129 U1126 2.984 . S
C1129 O1127 1.353 . S
C1129 O1128 1.286 . S
C1129 C1131 1.363 . S
C1130 C1120 1.465 . S
C1130 U1126 2.847 . S
C1130 O1144 1.249 . S
C1130 O1145 1.202 . S
C1131 C1129 1.363 . S
C1131 C1133 1.408 . S
C1131 C1136 1.342 . S
C1132 C1133 1.310 . S
C1132 C1135 1.461 . S
C1132 H1152 0.932 . S
C1133 C1131 1.408 . S
C1133 C1132 1.310 . S
C1133 H1153 0.930 . S
C1134 C1135 1.474 . S
C1134 C1136 1.285 . S
C1134 H1154 0.929 . S
C1135 C1132 1.461 . S
C1135 C1134 1.474 . S
C1136 C1131 1.342 . S
C1136 C1134 1.285 . S
C1136 H1155 0.930 . S
C1137 C1140 1.424 . S
C1137 C1142 1.245 . S
C1137 C1143 1.428 . S
C1138 C1141 1.260 . S
C1138 C1142 1.477 . S
C1138 H1156 0.932 . S
C1139 C1140 1.384 . S
C1139 C1141 1.479 . S
C1139 H1157 0.929 . S
C1140 C1137 1.424 . S
C1140 C1139 1.384 . S
C1140 H1158 0.928 . S
C1141 C1138 1.260 . S
C1141 C1139 1.479 . S
C1142 C1137 1.245 . S
C1142 C1138 1.477 . S
C1142 H1159 0.932 . S
C1143 U1126 2.882 . S
C1143 C1137 1.428 . S
C1143 O1146 1.301 . S
C1143 O1147 1.282 . S
O1144 U1126 2.441 . S
O1144 C1130 1.249 . S
O1145 U1126 2.420 . S
O1145 C1130 1.202 . S
O1146 U1126 2.455 . S
O1146 C1143 1.301 . S
O1147 U1126 2.449 . S
O1147 C1143 1.282 . S
H1148 C1121 0.931 . S
H1149 C1123 0.929 . S
H1150 C1124 0.930 . S
H1151 C1125 0.931 . S
H1152 C1132 0.932 . S
H1153 C1133 0.930 . S
H1154 C1134 0.929 . S
H1155 C1136 0.930 . S
H1156 C1138 0.932 . S
H1157 C1139 0.929 . S
H1158 C1140 0.928 . S
H1159 C1142 0.932 . S
C1160 C1161 1.264 . S
C1160 C1165 1.479 . S
C1160 C1170 1.465 . S
C1161 C1160 1.264 . S
C1161 C1163 1.339 . S
C1161 H1188 0.931 . S
C1162 C1163 1.395 . S
C1162 C1164 1.320 . S
C1163 C1161 1.339 . S
C1163 C1162 1.395 . S
C1163 H1189 0.929 . S
C1164 C1162 1.320 . S
C1164 C1165 1.405 . S
C1164 H1190 0.930 . S
C1165 C1160 1.479 . S
C1165 C1164 1.405 . S
C1165 H1191 0.931 . S
U1166 O1167 2.454 . S
U1166 O1168 2.458 . S
U1166 C1169 2.984 . S
U1166 C1170 2.847 . S
U1166 C1183 2.882 . S
U1166 O1184 2.441 . S
U1166 O1185 2.420 . S
U1166 O1186 2.455 . S
U1166 O1187 2.449 . S
O1167 U1166 2.454 . S
O1167 C1169 1.353 . S
O1168 U1166 2.458 . S
O1168 C1169 1.286 . S
C1169 U1166 2.984 . S
C1169 O1167 1.353 . S
C1169 O1168 1.286 . S
C1169 C1171 1.363 . S
C1170 C1160 1.465 . S
C1170 U1166 2.847 . S
C1170 O1184 1.249 . S
C1170 O1185 1.202 . S
C1171 C1169 1.363 . S
C1171 C1173 1.408 . S
C1171 C1176 1.342 . S
C1172 C1173 1.310 . S
C1172 C1175 1.461 . S
C1172 H1192 0.932 . S
C1173 C1171 1.408 . S
C1173 C1172 1.310 . S
C1173 H1193 0.930 . S
C1174 C1175 1.474 . S
C1174 C1176 1.285 . S
C1174 H1194 0.929 . S
C1175 C1172 1.461 . S
C1175 C1174 1.474 . S
C1176 C1171 1.342 . S
C1176 C1174 1.285 . S
C1176 H1195 0.930 . S
C1177 C1180 1.424 . S
C1177 C1182 1.245 . S
C1177 C1183 1.428 . S
C1178 C1181 1.260 . S
C1178 C1182 1.477 . S
C1178 H1196 0.932 . S
C1179 C1180 1.384 . S
C1179 C1181 1.479 . S
C1179 H1197 0.929 . S
C1180 C1177 1.424 . S
C1180 C1179 1.384 . S
C1180 H1198 0.928 . S
C1181 C1178 1.260 . S
C1181 C1179 1.479 . S
C1182 C1177 1.245 . S
C1182 C1178 1.477 . S
C1182 H1199 0.932 . S
C1183 U1166 2.882 . S
C1183 C1177 1.428 . S
C1183 O1186 1.301 . S
C1183 O1187 1.282 . S
O1184 U1166 2.441 . S
O1184 C1170 1.249 . S
O1185 U1166 2.420 . S
O1185 C1170 1.202 . S
O1186 U1166 2.455 . S
O1186 C1183 1.301 . S
O1187 U1166 2.449 . S
O1187 C1183 1.282 . S
H1188 C1161 0.931 . S
H1189 C1163 0.929 . S
H1190 C1164 0.930 . S
H1191 C1165 0.931 . S
H1192 C1172 0.932 . S
H1193 C1173 0.930 . S
H1194 C1174 0.929 . S
H1195 C1176 0.930 . S
H1196 C1178 0.932 . S
H1197 C1179 0.929 . S
H1198 C1180 0.928 . S
H1199 C1182 0.932 . S
C1200 C1201 1.264 . S
C1200 C1205 1.479 . S
C1200 C1210 1.465 . S
C1201 C1200 1.264 . S
C1201 C1203 1.339 . S
C1201 H1228 0.931 . S
C1202 C1203 1.395 . S
C1202 C1204 1.320 . S
C1203 C1201 1.339 . S
C1203 C1202 1.395 . S
C1203 H1229 0.929 . S
C1204 C1202 1.320 . S
C1204 C1205 1.405 . S
C1204 H1230 0.930 . S
C1205 C1200 1.479 . S
C1205 C1204 1.405 . S
C1205 H1231 0.931 . S
U1206 O1207 2.454 . S
U1206 O1208 2.458 . S
U1206 C1209 2.984 . S
U1206 C1210 2.847 . S
U1206 C1223 2.882 . S
U1206 O1224 2.441 . S
U1206 O1225 2.420 . S
U1206 O1226 2.455 . S
U1206 O1227 2.449 . S
O1207 U1206 2.454 . S
O1207 C1209 1.353 . S
O1208 U1206 2.458 . S
O1208 C1209 1.286 . S
C1209 U1206 2.984 . S
C1209 O1207 1.353 . S
C1209 O1208 1.286 . S
C1209 C1211 1.363 . S
C1210 C1200 1.465 . S
C1210 U1206 2.847 . S
C1210 O1224 1.249 . S
C1210 O1225 1.202 . S
C1211 C1209 1.363 . S
C1211 C1213 1.408 . S
C1211 C1216 1.342 . S
C1212 C1213 1.310 . S
C1212 C1215 1.461 . S
C1212 H1232 0.932 . S
C1213 C1211 1.408 . S
C1213 C1212 1.310 . S
C1213 H1233 0.930 . S
C1214 C1215 1.474 . S
C1214 C1216 1.285 . S
C1214 H1234 0.929 . S
C1215 C1212 1.461 . S
C1215 C1214 1.474 . S
C1216 C1211 1.342 . S
C1216 C1214 1.285 . S
C1216 H1235 0.930 . S
C1217 C1220 1.424 . S
C1217 C1222 1.245 . S
C1217 C1223 1.428 . S
C1218 C1221 1.260 . S
C1218 C1222 1.477 . S
C1218 H1236 0.932 . S
C1219 C1220 1.384 . S
C1219 C1221 1.479 . S
C1219 H1237 0.929 . S
C1220 C1217 1.424 . S
C1220 C1219 1.384 . S
C1220 H1238 0.928 . S
C1221 C1218 1.260 . S
C1221 C1219 1.479 . S
C1222 C1217 1.245 . S
C1222 C1218 1.477 . S
C1222 H1239 0.932 . S
C1223 U1206 2.882 . S
C1223 C1217 1.428 . S
C1223 O1226 1.301 . S
C1223 O1227 1.282 . S
O1224 U1206 2.441 . S
O1224 C1210 1.249 . S
O1225 U1206 2.420 . S
O1225 C1210 1.202 . S
O1226 U1206 2.455 . S
O1226 C1223 1.301 . S
O1227 U1206 2.449 . S
O1227 C1223 1.282 . S
H1228 C1201 0.931 . S
H1229 C1203 0.929 . S
H1230 C1204 0.930 . S
H1231 C1205 0.931 . S
H1232 C1212 0.932 . S
H1233 C1213 0.930 . S
H1234 C1214 0.929 . S
H1235 C1216 0.930 . S
H1236 C1218 0.932 . S
H1237 C1219 0.929 . S
H1238 C1220 0.928 . S
H1239 C1222 0.932 . S
C1240 C1241 1.264 . S
C1240 C1245 1.479 . S
C1240 C1250 1.465 . S
C1241 C1240 1.264 . S
C1241 C1243 1.339 . S
C1241 H1268 0.931 . S
C1242 C1243 1.395 . S
C1242 C1244 1.320 . S
C1243 C1241 1.339 . S
C1243 C1242 1.395 . S
C1243 H1269 0.929 . S
C1244 C1242 1.320 . S
C1244 C1245 1.405 . S
C1244 H1270 0.930 . S
C1245 C1240 1.479 . S
C1245 C1244 1.405 . S
C1245 H1271 0.931 . S
U1246 O1247 2.454 . S
U1246 O1248 2.458 . S
U1246 C1249 2.984 . S
U1246 C1250 2.847 . S
U1246 C1263 2.882 . S
U1246 O1264 2.441 . S
U1246 O1265 2.420 . S
U1246 O1266 2.455 . S
U1246 O1267 2.449 . S
O1247 U1246 2.454 . S
O1247 C1249 1.353 . S
O1248 U1246 2.458 . S
O1248 C1249 1.286 . S
C1249 U1246 2.984 . S
C1249 O1247 1.353 . S
C1249 O1248 1.286 . S
C1249 C1251 1.363 . S
C1250 C1240 1.465 . S
C1250 U1246 2.847 . S
C1250 O1264 1.249 . S
C1250 O1265 1.202 . S
C1251 C1249 1.363 . S
C1251 C1253 1.408 . S
C1251 C1256 1.342 . S
C1252 C1253 1.310 . S
C1252 C1255 1.461 . S
C1252 H1272 0.932 . S
C1253 C1251 1.408 . S
C1253 C1252 1.310 . S
C1253 H1273 0.930 . S
C1254 C1255 1.474 . S
C1254 C1256 1.285 . S
C1254 H1274 0.929 . S
C1255 C1252 1.461 . S
C1255 C1254 1.474 . S
C1256 C1251 1.342 . S
C1256 C1254 1.285 . S
C1256 H1275 0.930 . S
C1257 C1260 1.424 . S
C1257 C1262 1.245 . S
C1257 C1263 1.428 . S
C1258 C1261 1.260 . S
C1258 C1262 1.477 . S
C1258 H1276 0.932 . S
C1259 C1260 1.384 . S
C1259 C1261 1.479 . S
C1259 H1277 0.929 . S
C1260 C1257 1.424 . S
C1260 C1259 1.384 . S
C1260 H1278 0.928 . S
C1261 C1258 1.260 . S
C1261 C1259 1.479 . S
C1262 C1257 1.245 . S
C1262 C1258 1.477 . S
C1262 H1279 0.932 . S
C1263 U1246 2.882 . S
C1263 C1257 1.428 . S
C1263 O1266 1.301 . S
C1263 O1267 1.282 . S
O1264 U1246 2.441 . S
O1264 C1250 1.249 . S
O1265 U1246 2.420 . S
O1265 C1250 1.202 . S
O1266 U1246 2.455 . S
O1266 C1263 1.301 . S
O1267 U1246 2.449 . S
O1267 C1263 1.282 . S
H1268 C1241 0.931 . S
H1269 C1243 0.929 . S
H1270 C1244 0.930 . S
H1271 C1245 0.931 . S
H1272 C1252 0.932 . S
H1273 C1253 0.930 . S
H1274 C1254 0.929 . S
H1275 C1256 0.930 . S
H1276 C1258 0.932 . S
H1277 C1259 0.929 . S
H1278 C1260 0.928 . S
H1279 C1262 0.932 . S
H1280 C1286 0.930 . S
H1281 C1289 0.931 . S
H1282 C1291 0.931 . S
H1283 C1293 0.930 . S
H1284 C1295 0.930 . S
H1285 C1297 0.931 . S
C1286 H1280 0.930 . S
C1286 C1287 1.380 . S
C1286 C1288 1.394 . S
C1287 C1286 1.380 . S
C1287 C1291 1.382 . S
C1288 C1286 1.394 . S
C1288 C1289 1.400 . S
C1289 H1281 0.931 . S
C1289 C1288 1.400 . S
C1289 C1290 1.375 . S
C1290 C1289 1.375 . S
C1290 C1291 1.415 . S
C1290 C1292 1.501 1_556 S
C1291 H1282 0.931 . S
C1291 C1287 1.382 . S
C1291 C1290 1.415 . S
C1292 C1290 1.501 1_554 S
C1292 C1293 1.384 . S
C1292 C1297 1.408 . S
C1293 H1283 0.930 . S
C1293 C1292 1.384 . S
C1293 C1294 1.389 . S
C1294 C1293 1.389 . S
C1294 C1295 1.405 . S
C1295 H1284 0.930 . S
C1295 C1294 1.405 . S
C1295 C1296 1.364 . S
C1296 C1295 1.364 . S
C1296 C1297 1.400 . S
C1297 H1285 0.931 . S
C1297 C1292 1.408 . S
C1297 C1296 1.400 . S
H1298 C1304 0.930 . S
H1299 C1307 0.931 . S
H1300 C1309 0.931 . S
H1301 C1311 0.930 . S
H1302 C1313 0.930 . S
H1303 C1315 0.931 . S
C1304 H1298 0.930 . S
C1304 C1305 1.380 . S
C1304 C1306 1.394 . S
C1305 C1304 1.380 . S
C1305 C1309 1.382 . S
C1306 C1304 1.394 . S
C1306 C1307 1.400 . S
C1307 H1299 0.931 . S
C1307 C1306 1.400 . S
C1307 C1308 1.375 . S
C1308 C1307 1.375 . S
C1308 C1309 1.415 . S
C1308 C1310 1.491 1_554 S
C1309 H1300 0.931 . S
C1309 C1305 1.382 . S
C1309 C1308 1.415 . S
C1310 C1308 1.491 1_556 S
C1310 C1311 1.389 . S
C1310 C1315 1.413 . S
C1311 H1301 0.930 . S
C1311 C1310 1.389 . S
C1311 C1312 1.389 . S
C1312 C1311 1.389 . S
C1312 C1313 1.405 . S
C1313 H1302 0.930 . S
C1313 C1312 1.405 . S
C1313 C1314 1.364 . S
C1314 C1313 1.364 . S
C1314 C1315 1.400 . S
C1315 H1303 0.931 . S
C1315 C1310 1.413 . S
C1315 C1314 1.400 . S
H1316 C1322 0.930 . S
H1317 C1325 0.931 . S
H1318 C1327 0.931 . S
H1319 C1329 0.930 . S
H1320 C1331 0.930 . S
H1321 C1333 0.931 . S
C1322 H1316 0.930 . S
C1322 C1323 1.380 . S
C1322 C1324 1.394 . S
C1323 C1322 1.380 . S
C1323 C1327 1.382 . S
C1324 C1322 1.394 . S
C1324 C1325 1.400 . S
C1325 H1317 0.931 . S
C1325 C1324 1.400 . S
C1325 C1326 1.375 . S
C1326 C1325 1.375 . S
C1326 C1327 1.415 . S
C1326 C1328 1.501 1_556 S
C1327 H1318 0.931 . S
C1327 C1323 1.382 . S
C1327 C1326 1.415 . S
C1328 C1326 1.501 1_554 S
C1328 C1329 1.384 . S
C1328 C1333 1.408 . S
C1329 H1319 0.930 . S
C1329 C1328 1.384 . S
C1329 C1330 1.389 . S
C1330 C1329 1.389 . S
C1330 C1331 1.405 . S
C1331 H1320 0.930 . S
C1331 C1330 1.405 . S
C1331 C1332 1.364 . S
C1332 C1331 1.364 . S
C1332 C1333 1.400 . S
C1333 H1321 0.931 . S
C1333 C1328 1.408 . S
C1333 C1332 1.400 . S
H1334 C1340 0.930 . S
H1335 C1343 0.931 . S
H1336 C1345 0.931 . S
H1337 C1347 0.930 . S
H1338 C1349 0.930 . S
H1339 C1351 0.931 . S
C1340 H1334 0.930 . S
C1340 C1341 1.380 . S
C1340 C1342 1.394 . S
C1341 C1340 1.380 . S
C1341 C1345 1.382 . S
C1342 C1340 1.394 . S
C1342 C1343 1.400 . S
C1343 H1335 0.931 . S
C1343 C1342 1.400 . S
C1343 C1344 1.375 . S
C1344 C1343 1.375 . S
C1344 C1345 1.415 . S
C1344 C1346 1.485 1_554 S
C1345 H1336 0.931 . S
C1345 C1341 1.382 . S
C1345 C1344 1.415 . S
C1346 C1344 1.485 1_556 S
C1346 C1347 1.392 . S
C1346 C1351 1.416 . S
C1347 H1337 0.930 . S
C1347 C1346 1.392 . S
C1347 C1348 1.389 . S
C1348 C1347 1.389 . S
C1348 C1349 1.405 . S
C1349 H1338 0.930 . S
C1349 C1348 1.405 . S
C1349 C1350 1.364 . S
C1350 C1349 1.364 . S
C1350 C1351 1.400 . S
C1351 H1339 0.931 . S
C1351 C1346 1.416 . S
C1351 C1350 1.400 . S
H1352 C1358 0.930 . S
H1353 C1361 0.931 . S
H1354 C1363 0.931 . S
H1355 C1365 0.930 . S
H1356 C1367 0.930 . S
H1357 C1369 0.931 . S
C1358 H1352 0.930 . S
C1358 C1359 1.380 . S
C1358 C1360 1.394 . S
C1359 C1358 1.380 . S
C1359 C1363 1.382 . S
C1360 C1358 1.394 . S
C1360 C1361 1.400 . S
C1361 H1353 0.931 . S
C1361 C1360 1.400 . S
C1361 C1362 1.375 . S
C1362 C1361 1.375 . S
C1362 C1363 1.415 . S
C1362 C1364 1.501 1_455 S
C1363 H1354 0.931 . S
C1363 C1359 1.382 . S
C1363 C1362 1.415 . S
C1364 C1362 1.501 1_655 S
C1364 C1365 1.384 . S
C1364 C1369 1.408 . S
C1365 H1355 0.930 . S
C1365 C1364 1.384 . S
C1365 C1366 1.389 . S
C1366 C1365 1.389 . S
C1366 C1367 1.405 . S
C1367 H1356 0.930 . S
C1367 C1366 1.405 . S
C1367 C1368 1.364 . S
C1368 C1367 1.364 . S
C1368 C1369 1.400 . S
C1369 H1357 0.931 . S
C1369 C1364 1.408 . S
C1369 C1368 1.400 . S
H1370 C1376 0.930 . S
H1371 C1379 0.931 . S
H1372 C1381 0.931 . S
H1373 C1383 0.930 . S
H1374 C1385 0.930 . S
H1375 C1387 0.931 . S
C1376 H1370 0.930 . S
C1376 C1377 1.380 . S
C1376 C1378 1.394 . S
C1377 C1376 1.380 . S
C1377 C1381 1.382 . S
C1378 C1376 1.394 . S
C1378 C1379 1.400 . S
C1379 H1371 0.931 . S
C1379 C1378 1.400 . S
C1379 C1380 1.375 . S
C1380 C1379 1.375 . S
C1380 C1381 1.415 . S
C1380 C1382 1.501 1_565 S
C1381 H1372 0.931 . S
C1381 C1377 1.382 . S
C1381 C1380 1.415 . S
C1382 C1380 1.501 1_545 S
C1382 C1383 1.384 . S
C1382 C1387 1.408 . S
C1383 H1373 0.930 . S
C1383 C1382 1.384 . S
C1383 C1384 1.389 . S
C1384 C1383 1.389 . S
C1384 C1385 1.405 . S
C1385 H1374 0.930 . S
C1385 C1384 1.405 . S
C1385 C1386 1.364 . S
C1386 C1385 1.364 . S
C1386 C1387 1.400 . S
C1387 H1375 0.931 . S
C1387 C1382 1.408 . S
C1387 C1386 1.400 . S
H1388 C1394 0.930 . S
H1389 C1397 0.931 . S
H1390 C1399 0.931 . S
H1391 C1401 0.930 . S
H1392 C1403 0.930 . S
H1393 C1405 0.931 . S
C1394 H1388 0.930 . S
C1394 C1395 1.380 . S
C1394 C1396 1.394 . S
C1395 C1394 1.380 . S
C1395 C1399 1.382 . S
C1396 C1394 1.394 . S
C1396 C1397 1.400 . S
C1397 H1389 0.931 . S
C1397 C1396 1.400 . S
C1397 C1398 1.375 . S
C1398 C1397 1.375 . S
C1398 C1399 1.415 . S
C1398 C1400 1.501 1_455 S
C1399 H1390 0.931 . S
C1399 C1395 1.382 . S
C1399 C1398 1.415 . S
C1400 C1398 1.501 1_655 S
C1400 C1401 1.384 . S
C1400 C1405 1.408 . S
C1401 H1391 0.930 . S
C1401 C1400 1.384 . S
C1401 C1402 1.389 . S
C1402 C1401 1.389 . S
C1402 C1403 1.405 . S
C1403 H1392 0.930 . S
C1403 C1402 1.405 . S
C1403 C1404 1.364 . S
C1404 C1403 1.364 . S
C1404 C1405 1.400 . S
C1405 H1393 0.931 . S
C1405 C1400 1.408 . S
C1405 C1404 1.400 . S
H1406 C1412 0.930 . S
H1407 C1415 0.931 . S
H1408 C1417 0.931 . S
H1409 C1419 0.930 . S
H1410 C1421 0.930 . S
H1411 C1423 0.931 . S
C1412 H1406 0.930 . S
C1412 C1413 1.380 . S
C1412 C1414 1.394 . S
C1413 C1412 1.380 . S
C1413 C1417 1.382 . S
C1414 C1412 1.394 . S
C1414 C1415 1.400 . S
C1415 H1407 0.931 . S
C1415 C1414 1.400 . S
C1415 C1416 1.375 . S
C1416 C1415 1.375 . S
C1416 C1417 1.415 . S
C1416 C1418 1.501 1_545 S
C1417 H1408 0.931 . S
C1417 C1413 1.382 . S
C1417 C1416 1.415 . S
C1418 C1416 1.501 1_565 S
C1418 C1419 1.384 . S
C1418 C1423 1.408 . S
C1419 H1409 0.930 . S
C1419 C1418 1.384 . S
C1419 C1420 1.389 . S
C1420 C1419 1.389 . S
C1420 C1421 1.405 . S
C1421 H1410 0.930 . S
C1421 C1420 1.405 . S
C1421 C1422 1.364 . S
C1422 C1421 1.364 . S
C1422 C1423 1.400 . S
C1423 H1411 0.931 . S
C1423 C1418 1.408 . S
C1423 C1422 1.400 . S
H1424 C1430 0.930 . S
H1425 C1433 0.931 . S
H1426 C1435 0.931 . S
H1427 C1437 0.930 . S
H1428 C1439 0.930 . S
H1429 C1441 0.931 . S
C1430 H1424 0.930 . S
C1430 C1431 1.380 . S
C1430 C1432 1.394 . S
C1431 C1430 1.380 . S
C1431 C1435 1.382 . S
C1432 C1430 1.394 . S
C1432 C1433 1.400 . S
C1433 H1425 0.931 . S
C1433 C1432 1.400 . S
C1433 C1434 1.375 . S
C1434 C1433 1.375 . S
C1434 C1435 1.415 . S
C1434 C1436 1.501 1_455 S
C1435 H1426 0.931 . S
C1435 C1431 1.382 . S
C1435 C1434 1.415 . S
C1436 C1434 1.501 1_655 S
C1436 C1437 1.384 . S
C1436 C1441 1.408 . S
C1437 H1427 0.930 . S
C1437 C1436 1.384 . S
C1437 C1438 1.389 . S
C1438 C1437 1.389 . S
C1438 C1439 1.405 . S
C1439 H1428 0.930 . S
C1439 C1438 1.405 . S
C1439 C1440 1.364 . S
C1440 C1439 1.364 . S
C1440 C1441 1.400 . S
C1441 H1429 0.931 . S
C1441 C1436 1.408 . S
C1441 C1440 1.400 . S
H1442 C1448 0.930 . S
H1443 C1451 0.931 . S
H1444 C1453 0.931 . S
H1445 C1455 0.930 . S
H1446 C1457 0.930 . S
H1447 C1459 0.931 . S
C1448 H1442 0.930 . S
C1448 C1449 1.380 . S
C1448 C1450 1.394 . S
C1449 C1448 1.380 . S
C1449 C1453 1.382 . S
C1450 C1448 1.394 . S
C1450 C1451 1.400 . S
C1451 H1443 0.931 . S
C1451 C1450 1.400 . S
C1451 C1452 1.375 . S
C1452 C1451 1.375 . S
C1452 C1453 1.415 . S
C1452 C1454 1.501 1_565 S
C1453 H1444 0.931 . S
C1453 C1449 1.382 . S
C1453 C1452 1.415 . S
C1454 C1452 1.501 1_545 S
C1454 C1455 1.384 . S
C1454 C1459 1.408 . S
C1455 H1445 0.930 . S
C1455 C1454 1.384 . S
C1455 C1456 1.389 . S
C1456 C1455 1.389 . S
C1456 C1457 1.405 . S
C1457 H1446 0.930 . S
C1457 C1456 1.405 . S
C1457 C1458 1.364 . S
C1458 C1457 1.364 . S
C1458 C1459 1.400 . S
C1459 H1447 0.931 . S
C1459 C1454 1.408 . S
C1459 C1458 1.400 . S
H1460 C1466 0.930 . S
H1461 C1469 0.931 . S
H1462 C1471 0.931 . S
H1463 C1473 0.930 . S
H1464 C1475 0.930 . S
H1465 C1477 0.931 . S
C1466 H1460 0.930 . S
C1466 C1467 1.380 . S
C1466 C1468 1.394 . S
C1467 C1466 1.380 . S
C1467 C1471 1.382 . S
C1468 C1466 1.394 . S
C1468 C1469 1.400 . S
C1469 H1461 0.931 . S
C1469 C1468 1.400 . S
C1469 C1470 1.375 . S
C1470 C1469 1.375 . S
C1470 C1471 1.415 . S
C1470 C1472 1.501 1_455 S
C1471 H1462 0.931 . S
C1471 C1467 1.382 . S
C1471 C1470 1.415 . S
C1472 C1470 1.501 1_655 S
C1472 C1473 1.384 . S
C1472 C1477 1.408 . S
C1473 H1463 0.930 . S
C1473 C1472 1.384 . S
C1473 C1474 1.389 . S
C1474 C1473 1.389 . S
C1474 C1475 1.405 . S
C1475 H1464 0.930 . S
C1475 C1474 1.405 . S
C1475 C1476 1.364 . S
C1476 C1475 1.364 . S
C1476 C1477 1.400 . S
C1477 H1465 0.931 . S
C1477 C1472 1.408 . S
C1477 C1476 1.400 . S
H1478 C1484 0.930 . S
H1479 C1487 0.931 . S
H1480 C1489 0.931 . S
H1481 C1491 0.930 . S
H1482 C1493 0.930 . S
H1483 C1495 0.931 . S
C1484 H1478 0.930 . S
C1484 C1485 1.380 . S
C1484 C1486 1.394 . S
C1485 C1484 1.380 . S
C1485 C1489 1.382 . S
C1486 C1484 1.394 . S
C1486 C1487 1.400 . S
C1487 H1479 0.931 . S
C1487 C1486 1.400 . S
C1487 C1488 1.375 . S
C1488 C1487 1.375 . S
C1488 C1489 1.415 . S
C1488 C1490 1.501 1_545 S
C1489 H1480 0.931 . S
C1489 C1485 1.382 . S
C1489 C1488 1.415 . S
C1490 C1488 1.501 1_565 S
C1490 C1491 1.384 . S
C1490 C1495 1.408 . S
C1491 H1481 0.930 . S
C1491 C1490 1.384 . S
C1491 C1492 1.389 . S
C1492 C1491 1.389 . S
C1492 C1493 1.405 . S
C1493 H1482 0.930 . S
C1493 C1492 1.405 . S
C1493 C1494 1.364 . S
C1494 C1493 1.364 . S
C1494 C1495 1.400 . S
C1495 H1483 0.931 . S
C1495 C1490 1.408 . S
C1495 C1494 1.400 . S
H1496 C1502 0.930 . S
H1497 C1505 0.931 . S
H1498 C1507 0.931 . S
H1499 C1509 0.930 . S
H1500 C1511 0.930 . S
H1501 C1513 0.931 . S
C1502 H1496 0.930 . S
C1502 C1503 1.380 . S
C1502 C1504 1.394 . S
C1503 C1502 1.380 . S
C1503 C1507 1.382 . S
C1504 C1502 1.394 . S
C1504 C1505 1.400 . S
C1505 H1497 0.931 . S
C1505 C1504 1.400 . S
C1505 C1506 1.375 . S
C1506 C1505 1.375 . S
C1506 C1507 1.415 . S
C1506 C1508 1.501 . S
C1507 H1498 0.931 . S
C1507 C1503 1.382 . S
C1507 C1506 1.415 . S
C1508 C1506 1.501 . S
C1508 C1509 1.384 . S
C1508 C1513 1.408 . S
C1509 H1499 0.930 . S
C1509 C1508 1.384 . S
C1509 C1510 1.389 . S
C1510 C1509 1.389 . S
C1510 C1511 1.405 . S
C1511 H1500 0.930 . S
C1511 C1510 1.405 . S
C1511 C1512 1.364 . S
C1512 C1511 1.364 . S
C1512 C1513 1.400 . S
C1513 H1501 0.931 . S
C1513 C1508 1.408 . S
C1513 C1512 1.400 . S
H1514 C1520 0.930 . S
H1515 C1523 0.931 . S
H1516 C1525 0.931 . S
H1517 C1527 0.930 . S
H1518 C1529 0.930 . S
H1519 C1531 0.931 . S
C1520 H1514 0.930 . S
C1520 C1521 1.380 . S
C1520 C1522 1.394 . S
C1521 C1520 1.380 . S
C1521 C1525 1.382 . S
C1522 C1520 1.394 . S
C1522 C1523 1.400 . S
C1523 H1515 0.931 . S
C1523 C1522 1.400 . S
C1523 C1524 1.375 . S
C1524 C1523 1.375 . S
C1524 C1525 1.415 . S
C1524 C1526 1.501 . S
C1525 H1516 0.931 . S
C1525 C1521 1.382 . S
C1525 C1524 1.415 . S
C1526 C1524 1.501 . S
C1526 C1527 1.384 . S
C1526 C1531 1.408 . S
C1527 H1517 0.930 . S
C1527 C1526 1.384 . S
C1527 C1528 1.389 . S
C1528 C1527 1.389 . S
C1528 C1529 1.405 . S
C1529 H1518 0.930 . S
C1529 C1528 1.405 . S
C1529 C1530 1.364 . S
C1530 C1529 1.364 . S
C1530 C1531 1.400 . S
C1531 H1519 0.931 . S
C1531 C1526 1.408 . S
C1531 C1530 1.400 . S
H1532 C1538 0.930 . S
H1533 C1541 0.931 . S
H1534 C1543 0.931 . S
H1535 C1545 0.930 . S
H1536 C1547 0.930 . S
H1537 C1549 0.931 . S
C1538 H1532 0.930 . S
C1538 C1539 1.380 . S
C1538 C1540 1.394 . S
C1539 C1538 1.380 . S
C1539 C1543 1.382 . S
C1540 C1538 1.394 . S
C1540 C1541 1.400 . S
C1541 H1533 0.931 . S
C1541 C1540 1.400 . S
C1541 C1542 1.375 . S
C1542 C1541 1.375 . S
C1542 C1543 1.415 . S
C1542 C1544 1.501 . S
C1543 H1534 0.931 . S
C1543 C1539 1.382 . S
C1543 C1542 1.415 . S
C1544 C1542 1.501 . S
C1544 C1545 1.384 . S
C1544 C1549 1.408 . S
C1545 H1535 0.930 . S
C1545 C1544 1.384 . S
C1545 C1546 1.389 . S
C1546 C1545 1.389 . S
C1546 C1547 1.405 . S
C1547 H1536 0.930 . S
C1547 C1546 1.405 . S
C1547 C1548 1.364 . S
C1548 C1547 1.364 . S
C1548 C1549 1.400 . S
C1549 H1537 0.931 . S
C1549 C1544 1.408 . S
C1549 C1548 1.400 . S
H1550 C1556 0.930 . S
H1551 C1559 0.931 . S
H1552 C1561 0.931 . S
H1553 C1563 0.930 . S
H1554 C1565 0.930 . S
H1555 C1567 0.931 . S
C1556 H1550 0.930 . S
C1556 C1557 1.380 . S
C1556 C1558 1.394 . S
C1557 C1556 1.380 . S
C1557 C1561 1.382 . S
C1558 C1556 1.394 . S
C1558 C1559 1.400 . S
C1559 H1551 0.931 . S
C1559 C1558 1.400 . S
C1559 C1560 1.375 . S
C1560 C1559 1.375 . S
C1560 C1561 1.415 . S
C1560 C1562 1.501 . S
C1561 H1552 0.931 . S
C1561 C1557 1.382 . S
C1561 C1560 1.415 . S
C1562 C1560 1.501 . S
C1562 C1563 1.384 . S
C1562 C1567 1.408 . S
C1563 H1553 0.930 . S
C1563 C1562 1.384 . S
C1563 C1564 1.389 . S
C1564 C1563 1.389 . S
C1564 C1565 1.405 . S
C1565 H1554 0.930 . S
C1565 C1564 1.405 . S
C1565 C1566 1.364 . S
C1566 C1565 1.364 . S
C1566 C1567 1.400 . S
C1567 H1555 0.931 . S
C1567 C1562 1.408 . S
C1567 C1566 1.400 . S
H1568 C1574 0.930 . S
H1569 C1577 0.931 . S
H1570 C1579 0.931 . S
H1571 C1581 0.930 . S
H1572 C1583 0.930 . S
H1573 C1585 0.931 . S
C1574 H1568 0.930 . S
C1574 C1575 1.380 . S
C1574 C1576 1.394 . S
C1575 C1574 1.380 . S
C1575 C1579 1.382 . S
C1576 C1574 1.394 . S
C1576 C1577 1.400 . S
C1577 H1569 0.931 . S
C1577 C1576 1.400 . S
C1577 C1578 1.375 . S
C1578 C1577 1.375 . S
C1578 C1579 1.415 . S
C1578 C1580 1.501 . S
C1579 H1570 0.931 . S
C1579 C1575 1.382 . S
C1579 C1578 1.415 . S
C1580 C1578 1.501 . S
C1580 C1581 1.384 . S
C1580 C1585 1.408 . S
C1581 H1571 0.930 . S
C1581 C1580 1.384 . S
C1581 C1582 1.389 . S
C1582 C1581 1.389 . S
C1582 C1583 1.405 . S
C1583 H1572 0.930 . S
C1583 C1582 1.405 . S
C1583 C1584 1.364 . S
C1584 C1583 1.364 . S
C1584 C1585 1.400 . S
C1585 H1573 0.931 . S
C1585 C1580 1.408 . S
C1585 C1584 1.400 . S
H1586 C1592 0.930 . S
H1587 C1595 0.931 . S
H1588 C1597 0.931 . S
H1589 C1599 0.930 . S
H1590 C1601 0.930 . S
H1591 C1603 0.931 . S
C1592 H1586 0.930 . S
C1592 C1593 1.380 . S
C1592 C1594 1.394 . S
C1593 C1592 1.380 . S
C1593 C1597 1.382 . S
C1594 C1592 1.394 . S
C1594 C1595 1.400 . S
C1595 H1587 0.931 . S
C1595 C1594 1.400 . S
C1595 C1596 1.375 . S
C1596 C1595 1.375 . S
C1596 C1597 1.415 . S
C1596 C1598 1.501 . S
C1597 H1588 0.931 . S
C1597 C1593 1.382 . S
C1597 C1596 1.415 . S
C1598 C1596 1.501 . S
C1598 C1599 1.384 . S
C1598 C1603 1.408 . S
C1599 H1589 0.930 . S
C1599 C1598 1.384 . S
C1599 C1600 1.389 . S
C1600 C1599 1.389 . S
C1600 C1601 1.405 . S
C1601 H1590 0.930 . S
C1601 C1600 1.405 . S
C1601 C1602 1.364 . S
C1602 C1601 1.364 . S
C1602 C1603 1.400 . S
C1603 H1591 0.931 . S
C1603 C1598 1.408 . S
C1603 C1602 1.400 . S
H1604 C1610 0.930 . S
H1605 C1613 0.931 . S
H1606 C1615 0.931 . S
H1607 C1617 0.930 . S
H1608 C1619 0.930 . S
H1609 C1621 0.931 . S
C1610 H1604 0.930 . S
C1610 C1611 1.380 . S
C1610 C1612 1.394 . S
C1611 C1610 1.380 . S
C1611 C1615 1.382 . S
C1612 C1610 1.394 . S
C1612 C1613 1.400 . S
C1613 H1605 0.931 . S
C1613 C1612 1.400 . S
C1613 C1614 1.375 . S
C1614 C1613 1.375 . S
C1614 C1615 1.415 . S
C1614 C1616 1.501 . S
C1615 H1606 0.931 . S
C1615 C1611 1.382 . S
C1615 C1614 1.415 . S
C1616 C1614 1.501 . S
C1616 C1617 1.384 . S
C1616 C1621 1.408 . S
C1617 H1607 0.930 . S
C1617 C1616 1.384 . S
C1617 C1618 1.389 . S
C1618 C1617 1.389 . S
C1618 C1619 1.405 . S
C1619 H1608 0.930 . S
C1619 C1618 1.405 . S
C1619 C1620 1.364 . S
C1620 C1619 1.364 . S
C1620 C1621 1.400 . S
C1621 H1609 0.931 . S
C1621 C1616 1.408 . S
C1621 C1620 1.400 . S
H1622 C1628 0.930 . S
H1623 C1631 0.931 . S
H1624 C1633 0.931 . S
H1625 C1635 0.930 . S
H1626 C1637 0.930 . S
H1627 C1639 0.931 . S
C1628 H1622 0.930 . S
C1628 C1629 1.380 . S
C1628 C1630 1.394 . S
C1629 C1628 1.380 . S
C1629 C1633 1.382 . S
C1630 C1628 1.394 . S
C1630 C1631 1.400 . S
C1631 H1623 0.931 . S
C1631 C1630 1.400 . S
C1631 C1632 1.375 . S
C1632 C1631 1.375 . S
C1632 C1633 1.415 . S
C1632 C1634 1.501 . S
C1633 H1624 0.931 . S
C1633 C1629 1.382 . S
C1633 C1632 1.415 . S
C1634 C1632 1.501 . S
C1634 C1635 1.384 . S
C1634 C1639 1.408 . S
C1635 H1625 0.930 . S
C1635 C1634 1.384 . S
C1635 C1636 1.389 . S
C1636 C1635 1.389 . S
C1636 C1637 1.405 . S
C1637 H1626 0.930 . S
C1637 C1636 1.405 . S
C1637 C1638 1.364 . S
C1638 C1637 1.364 . S
C1638 C1639 1.400 . S
C1639 H1627 0.931 . S
C1639 C1634 1.408 . S
C1639 C1638 1.400 . S
H1640 C1646 0.930 . S
H1641 C1649 0.931 . S
H1642 C1651 0.931 . S
H1643 C1653 0.930 . S
H1644 C1655 0.930 . S
H1645 C1657 0.931 . S
C1646 H1640 0.930 . S
C1646 C1647 1.380 . S
C1646 C1648 1.394 . S
C1647 C1646 1.380 . S
C1647 C1651 1.382 . S
C1648 C1646 1.394 . S
C1648 C1649 1.400 . S
C1649 H1641 0.931 . S
C1649 C1648 1.400 . S
C1649 C1650 1.375 . S
C1650 C1649 1.375 . S
C1650 C1651 1.415 . S
C1650 C1652 1.501 . S
C1651 H1642 0.931 . S
C1651 C1647 1.382 . S
C1651 C1650 1.415 . S
C1652 C1650 1.501 . S
C1652 C1653 1.384 . S
C1652 C1657 1.408 . S
C1653 H1643 0.930 . S
C1653 C1652 1.384 . S
C1653 C1654 1.389 . S
C1654 C1653 1.389 . S
C1654 C1655 1.405 . S
C1655 H1644 0.930 . S
C1655 C1654 1.405 . S
C1655 C1656 1.364 . S
C1656 C1655 1.364 . S
C1656 C1657 1.400 . S
C1657 H1645 0.931 . S
C1657 C1652 1.408 . S
C1657 C1656 1.400 . S
H1658 C1664 0.930 . S
H1659 C1667 0.931 . S
H1660 C1669 0.931 . S
H1661 C1671 0.930 . S
H1662 C1673 0.930 . S
H1663 C1675 0.931 . S
C1664 H1658 0.930 . S
C1664 C1665 1.380 . S
C1664 C1666 1.394 . S
C1665 C1664 1.380 . S
C1665 C1669 1.382 . S
C1666 C1664 1.394 . S
C1666 C1667 1.400 . S
C1667 H1659 0.931 . S
C1667 C1666 1.400 . S
C1667 C1668 1.375 . S
C1668 C1667 1.375 . S
C1668 C1669 1.415 . S
C1668 C1670 1.501 . S
C1669 H1660 0.931 . S
C1669 C1665 1.382 . S
C1669 C1668 1.415 . S
C1670 C1668 1.501 . S
C1670 C1671 1.384 . S
C1670 C1675 1.408 . S
C1671 H1661 0.930 . S
C1671 C1670 1.384 . S
C1671 C1672 1.389 . S
C1672 C1671 1.389 . S
C1672 C1673 1.405 . S
C1673 H1662 0.930 . S
C1673 C1672 1.405 . S
C1673 C1674 1.364 . S
C1674 C1673 1.364 . S
C1674 C1675 1.400 . S
C1675 H1663 0.931 . S
C1675 C1670 1.408 . S
C1675 C1674 1.400 . S
H1676 C1682 0.930 . S
H1677 C1685 0.931 . S
H1678 C1687 0.931 . S
H1679 C1689 0.930 . S
H1680 C1691 0.930 . S
H1681 C1693 0.931 . S
C1682 H1676 0.930 . S
C1682 C1683 1.380 . S
C1682 C1684 1.394 . S
C1683 C1682 1.380 . S
C1683 C1687 1.382 . S
C1684 C1682 1.394 . S
C1684 C1685 1.400 . S
C1685 H1677 0.931 . S
C1685 C1684 1.400 . S
C1685 C1686 1.375 . S
C1686 C1685 1.375 . S
C1686 C1687 1.415 . S
C1686 C1688 1.501 . S
C1687 H1678 0.931 . S
C1687 C1683 1.382 . S
C1687 C1686 1.415 . S
C1688 C1686 1.501 . S
C1688 C1689 1.384 . S
C1688 C1693 1.408 . S
C1689 H1679 0.930 . S
C1689 C1688 1.384 . S
C1689 C1690 1.389 . S
C1690 C1689 1.389 . S
C1690 C1691 1.405 . S
C1691 H1680 0.930 . S
C1691 C1690 1.405 . S
C1691 C1692 1.364 . S
C1692 C1691 1.364 . S
C1692 C1693 1.400 . S
C1693 H1681 0.931 . S
C1693 C1688 1.408 . S
C1693 C1692 1.400 . S
H1694 C1700 0.930 . S
H1695 C1703 0.931 . S
H1696 C1705 0.931 . S
H1697 C1707 0.930 . S
H1698 C1709 0.930 . S
H1699 C1711 0.931 . S
C1700 H1694 0.930 . S
C1700 C1701 1.380 . S
C1700 C1702 1.394 . S
C1701 C1700 1.380 . S
C1701 C1705 1.382 . S
C1702 C1700 1.394 . S
C1702 C1703 1.400 . S
C1703 H1695 0.931 . S
C1703 C1702 1.400 . S
C1703 C1704 1.375 . S
C1704 C1703 1.375 . S
C1704 C1705 1.415 . S
C1704 C1706 1.501 . S
C1705 H1696 0.931 . S
C1705 C1701 1.382 . S
C1705 C1704 1.415 . S
C1706 C1704 1.501 . S
C1706 C1707 1.384 . S
C1706 C1711 1.408 . S
C1707 H1697 0.930 . S
C1707 C1706 1.384 . S
C1707 C1708 1.389 . S
C1708 C1707 1.389 . S
C1708 C1709 1.405 . S
C1709 H1698 0.930 . S
C1709 C1708 1.405 . S
C1709 C1710 1.364 . S
C1710 C1709 1.364 . S
C1710 C1711 1.400 . S
C1711 H1699 0.931 . S
C1711 C1706 1.408 . S
C1711 C1710 1.400 . S
H1712 C1724 0.930 . S
H1713 C1726 0.930 . S
H1714 C1727 0.930 . S
H1715 C1731 0.959 . S
H1716 C1731 0.959 . S
H1717 C1731 0.961 . S
H1718 C1732 0.960 . S
H1719 C1732 0.961 . S
H1720 C1732 0.959 . S
H1721 C1735 0.929 . S
H1722 C1736 0.931 . S
H1723 C1738 0.930 . S
C1724 H1712 0.930 . S
C1724 C1725 1.399 . S
C1724 C1729 1.399 . S
C1725 C1724 1.399 . S
C1725 C1726 1.376 . S
C1726 H1713 0.930 . S
C1726 C1725 1.376 . S
C1726 C1727 1.388 . S
C1727 H1714 0.930 . S
C1727 C1726 1.388 . S
C1727 C1728 1.390 . S
C1728 C1727 1.390 . S
C1728 C1729 1.394 . S
C1728 C1734 1.465 . S
C1729 C1724 1.399 . S
C1729 C1728 1.394 . S
C1729 C1730 1.516 . S
C1730 C1729 1.516 . S
C1730 C1731 1.502 . S
C1730 C1732 1.561 . S
C1730 C1733 1.526 . S
C1731 H1715 0.959 . S
C1731 H1716 0.959 . S
C1731 H1717 0.961 . S
C1731 C1730 1.502 . S
C1732 H1718 0.960 . S
C1732 H1719 0.961 . S
C1732 H1720 0.959 . S
C1732 C1730 1.561 . S
C1733 C1730 1.526 . S
C1733 C1734 1.396 . S
C1733 C1738 1.390 . S
C1734 C1728 1.465 . S
C1734 C1733 1.396 . S
C1734 C1735 1.399 . S
C1735 H1721 0.929 . S
C1735 C1734 1.399 . S
C1735 C1736 1.385 . S
C1736 H1722 0.931 . S
C1736 C1735 1.385 . S
C1736 C1737 1.389 . S
C1737 C1736 1.389 . S
C1737 C1738 1.387 . S
C1738 H1723 0.930 . S
C1738 C1733 1.390 . S
C1738 C1737 1.387 . S
H1739 C1751 0.930 . S
H1740 C1753 0.930 . S
H1741 C1754 0.930 . S
H1742 C1758 0.959 . S
H1743 C1758 0.959 . S
H1744 C1758 0.961 . S
H1745 C1759 0.960 . S
H1746 C1759 0.961 . S
H1747 C1759 0.959 . S
H1748 C1762 0.929 . S
H1749 C1763 0.931 . S
H1750 C1765 0.930 . S
C1751 H1739 0.930 . S
C1751 C1752 1.399 . S
C1751 C1756 1.399 . S
C1752 C1751 1.399 . S
C1752 C1753 1.376 . S
C1753 H1740 0.930 . S
C1753 C1752 1.376 . S
C1753 C1754 1.388 . S
C1754 H1741 0.930 . S
C1754 C1753 1.388 . S
C1754 C1755 1.390 . S
C1755 C1754 1.390 . S
C1755 C1756 1.394 . S
C1755 C1761 1.465 . S
C1756 C1751 1.399 . S
C1756 C1755 1.394 . S
C1756 C1757 1.516 . S
C1757 C1756 1.516 . S
C1757 C1758 1.502 . S
C1757 C1759 1.561 . S
C1757 C1760 1.526 . S
C1758 H1742 0.959 . S
C1758 H1743 0.959 . S
C1758 H1744 0.961 . S
C1758 C1757 1.502 . S
C1759 H1745 0.960 . S
C1759 H1746 0.961 . S
C1759 H1747 0.959 . S
C1759 C1757 1.561 . S
C1760 C1757 1.526 . S
C1760 C1761 1.396 . S
C1760 C1765 1.390 . S
C1761 C1755 1.465 . S
C1761 C1760 1.396 . S
C1761 C1762 1.399 . S
C1762 H1748 0.929 . S
C1762 C1761 1.399 . S
C1762 C1763 1.385 . S
C1763 H1749 0.931 . S
C1763 C1762 1.385 . S
C1763 C1764 1.389 . S
C1764 C1763 1.389 . S
C1764 C1765 1.387 . S
C1765 H1750 0.930 . S
C1765 C1760 1.390 . S
C1765 C1764 1.387 . S
H1766 C1778 0.930 . S
H1767 C1780 0.930 . S
H1768 C1781 0.930 . S
H1769 C1785 0.959 . S
H1770 C1785 0.959 . S
H1771 C1785 0.961 . S
H1772 C1786 0.960 . S
H1773 C1786 0.961 . S
H1774 C1786 0.959 . S
H1775 C1789 0.929 . S
H1776 C1790 0.931 . S
H1777 C1792 0.930 . S
C1778 H1766 0.930 . S
C1778 C1779 1.399 . S
C1778 C1783 1.399 . S
C1779 C1778 1.399 . S
C1779 C1780 1.376 . S
C1780 H1767 0.930 . S
C1780 C1779 1.376 . S
C1780 C1781 1.388 . S
C1781 H1768 0.930 . S
C1781 C1780 1.388 . S
C1781 C1782 1.390 . S
C1782 C1781 1.390 . S
C1782 C1783 1.394 . S
C1782 C1788 1.465 . S
C1783 C1778 1.399 . S
C1783 C1782 1.394 . S
C1783 C1784 1.516 . S
C1784 C1783 1.516 . S
C1784 C1785 1.502 . S
C1784 C1786 1.561 . S
C1784 C1787 1.526 . S
C1785 H1769 0.959 . S
C1785 H1770 0.959 . S
C1785 H1771 0.961 . S
C1785 C1784 1.502 . S
C1786 H1772 0.960 . S
C1786 H1773 0.961 . S
C1786 H1774 0.959 . S
C1786 C1784 1.561 . S
C1787 C1784 1.526 . S
C1787 C1788 1.396 . S
C1787 C1792 1.390 . S
C1788 C1782 1.465 . S
C1788 C1787 1.396 . S
C1788 C1789 1.399 . S
C1789 H1775 0.929 . S
C1789 C1788 1.399 . S
C1789 C1790 1.385 . S
C1790 H1776 0.931 . S
C1790 C1789 1.385 . S
C1790 C1791 1.389 . S
C1791 C1790 1.389 . S
C1791 C1792 1.387 . S
C1792 H1777 0.930 . S
C1792 C1787 1.390 . S
C1792 C1791 1.387 . S
H1793 C1805 0.930 . S
H1794 C1807 0.930 . S
H1795 C1808 0.930 . S
H1796 C1812 0.959 . S
H1797 C1812 0.959 . S
H1798 C1812 0.961 . S
H1799 C1813 0.960 . S
H1800 C1813 0.961 . S
H1801 C1813 0.959 . S
H1802 C1816 0.929 . S
H1803 C1817 0.931 . S
H1804 C1819 0.930 . S
C1805 H1793 0.930 . S
C1805 C1806 1.399 . S
C1805 C1810 1.399 . S
C1806 C1805 1.399 . S
C1806 C1807 1.376 . S
C1807 H1794 0.930 . S
C1807 C1806 1.376 . S
C1807 C1808 1.388 . S
C1808 H1795 0.930 . S
C1808 C1807 1.388 . S
C1808 C1809 1.390 . S
C1809 C1808 1.390 . S
C1809 C1810 1.394 . S
C1809 C1815 1.465 . S
C1810 C1805 1.399 . S
C1810 C1809 1.394 . S
C1810 C1811 1.516 . S
C1811 C1810 1.516 . S
C1811 C1812 1.502 . S
C1811 C1813 1.561 . S
C1811 C1814 1.526 . S
C1812 H1796 0.959 . S
C1812 H1797 0.959 . S
C1812 H1798 0.961 . S
C1812 C1811 1.502 . S
C1813 H1799 0.960 . S
C1813 H1800 0.961 . S
C1813 H1801 0.959 . S
C1813 C1811 1.561 . S
C1814 C1811 1.526 . S
C1814 C1815 1.396 . S
C1814 C1819 1.390 . S
C1815 C1809 1.465 . S
C1815 C1814 1.396 . S
C1815 C1816 1.399 . S
C1816 H1802 0.929 . S
C1816 C1815 1.399 . S
C1816 C1817 1.385 . S
C1817 H1803 0.931 . S
C1817 C1816 1.385 . S
C1817 C1818 1.389 . S
C1818 C1817 1.389 . S
C1818 C1819 1.387 . S
C1819 H1804 0.930 . S
C1819 C1814 1.390 . S
C1819 C1818 1.387 . S
H1820 C1832 0.930 . S
H1821 C1834 0.930 . S
H1822 C1835 0.930 . S
H1823 C1839 0.959 . S
H1824 C1839 0.959 . S
H1825 C1839 0.961 . S
H1826 C1840 0.960 . S
H1827 C1840 0.961 . S
H1828 C1840 0.959 . S
H1829 C1843 0.929 . S
H1830 C1844 0.931 . S
H1831 C1846 0.930 . S
C1832 H1820 0.930 . S
C1832 C1833 1.399 . S
C1832 C1837 1.399 . S
C1833 C1832 1.399 . S
C1833 C1834 1.376 . S
C1834 H1821 0.930 . S
C1834 C1833 1.376 . S
C1834 C1835 1.388 . S
C1835 H1822 0.930 . S
C1835 C1834 1.388 . S
C1835 C1836 1.390 . S
C1836 C1835 1.390 . S
C1836 C1837 1.394 . S
C1836 C1842 1.465 . S
C1837 C1832 1.399 . S
C1837 C1836 1.394 . S
C1837 C1838 1.516 . S
C1838 C1837 1.516 . S
C1838 C1839 1.502 . S
C1838 C1840 1.561 . S
C1838 C1841 1.526 . S
C1839 H1823 0.959 . S
C1839 H1824 0.959 . S
C1839 H1825 0.961 . S
C1839 C1838 1.502 . S
C1840 H1826 0.960 . S
C1840 H1827 0.961 . S
C1840 H1828 0.959 . S
C1840 C1838 1.561 . S
C1841 C1838 1.526 . S
C1841 C1842 1.396 . S
C1841 C1846 1.390 . S
C1842 C1836 1.465 . S
C1842 C1841 1.396 . S
C1842 C1843 1.399 . S
C1843 H1829 0.929 . S
C1843 C1842 1.399 . S
C1843 C1844 1.385 . S
C1844 H1830 0.931 . S
C1844 C1843 1.385 . S
C1844 C1845 1.389 . S
C1845 C1844 1.389 . S
C1845 C1846 1.387 . S
C1846 H1831 0.930 . S
C1846 C1841 1.390 . S
C1846 C1845 1.387 . S
H1847 C1859 0.930 . S
H1848 C1861 0.930 . S
H1849 C1862 0.930 . S
H1850 C1866 0.959 . S
H1851 C1866 0.959 . S
H1852 C1866 0.961 . S
H1853 C1867 0.960 . S
H1854 C1867 0.961 . S
H1855 C1867 0.959 . S
H1856 C1870 0.929 . S
H1857 C1871 0.931 . S
H1858 C1873 0.930 . S
C1859 H1847 0.930 . S
C1859 C1860 1.399 . S
C1859 C1864 1.399 . S
C1860 C1859 1.399 . S
C1860 C1861 1.376 . S
C1861 H1848 0.930 . S
C1861 C1860 1.376 . S
C1861 C1862 1.388 . S
C1862 H1849 0.930 . S
C1862 C1861 1.388 . S
C1862 C1863 1.390 . S
C1863 C1862 1.390 . S
C1863 C1864 1.394 . S
C1863 C1869 1.465 . S
C1864 C1859 1.399 . S
C1864 C1863 1.394 . S
C1864 C1865 1.516 . S
C1865 C1864 1.516 . S
C1865 C1866 1.502 . S
C1865 C1867 1.561 . S
C1865 C1868 1.526 . S
C1866 H1850 0.959 . S
C1866 H1851 0.959 . S
C1866 H1852 0.961 . S
C1866 C1865 1.502 . S
C1867 H1853 0.960 . S
C1867 H1854 0.961 . S
C1867 H1855 0.959 . S
C1867 C1865 1.561 . S
C1868 C1865 1.526 . S
C1868 C1869 1.396 . S
C1868 C1873 1.390 . S
C1869 C1863 1.465 . S
C1869 C1868 1.396 . S
C1869 C1870 1.399 . S
C1870 H1856 0.929 . S
C1870 C1869 1.399 . S
C1870 C1871 1.385 . S
C1871 H1857 0.931 . S
C1871 C1870 1.385 . S
C1871 C1872 1.389 . S
C1872 C1871 1.389 . S
C1872 C1873 1.387 . S
C1873 H1858 0.930 . S
C1873 C1868 1.390 . S
C1873 C1872 1.387 . S
H1874 C1886 0.930 . S
H1875 C1888 0.930 . S
H1876 C1889 0.930 . S
H1877 C1893 0.959 . S
H1878 C1893 0.959 . S
H1879 C1893 0.961 . S
H1880 C1894 0.960 . S
H1881 C1894 0.961 . S
H1882 C1894 0.959 . S
H1883 C1897 0.929 . S
H1884 C1898 0.931 . S
H1885 C1900 0.930 . S
C1886 H1874 0.930 . S
C1886 C1887 1.399 . S
C1886 C1891 1.399 . S
C1887 C1886 1.399 . S
C1887 C1888 1.376 . S
C1888 H1875 0.930 . S
C1888 C1887 1.376 . S
C1888 C1889 1.388 . S
C1889 H1876 0.930 . S
C1889 C1888 1.388 . S
C1889 C1890 1.390 . S
C1890 C1889 1.390 . S
C1890 C1891 1.394 . S
C1890 C1896 1.465 . S
C1891 C1886 1.399 . S
C1891 C1890 1.394 . S
C1891 C1892 1.516 . S
C1892 C1891 1.516 . S
C1892 C1893 1.502 . S
C1892 C1894 1.561 . S
C1892 C1895 1.526 . S
C1893 H1877 0.959 . S
C1893 H1878 0.959 . S
C1893 H1879 0.961 . S
C1893 C1892 1.502 . S
C1894 H1880 0.960 . S
C1894 H1881 0.961 . S
C1894 H1882 0.959 . S
C1894 C1892 1.561 . S
C1895 C1892 1.526 . S
C1895 C1896 1.396 . S
C1895 C1900 1.390 . S
C1896 C1890 1.465 . S
C1896 C1895 1.396 . S
C1896 C1897 1.399 . S
C1897 H1883 0.929 . S
C1897 C1896 1.399 . S
C1897 C1898 1.385 . S
C1898 H1884 0.931 . S
C1898 C1897 1.385 . S
C1898 C1899 1.389 . S
C1899 C1898 1.389 . S
C1899 C1900 1.387 . S
C1900 H1885 0.930 . S
C1900 C1895 1.390 . S
C1900 C1899 1.387 . S
H1901 C1913 0.930 . S
H1902 C1915 0.930 . S
H1903 C1916 0.930 . S
H1904 C1920 0.959 . S
H1905 C1920 0.959 . S
H1906 C1920 0.961 . S
H1907 C1921 0.960 . S
H1908 C1921 0.961 . S
H1909 C1921 0.959 . S
H1910 C1924 0.929 . S
H1911 C1925 0.931 . S
H1912 C1927 0.930 . S
C1913 H1901 0.930 . S
C1913 C1914 1.399 . S
C1913 C1918 1.399 . S
C1914 C1913 1.399 . S
C1914 C1915 1.376 . S
C1915 H1902 0.930 . S
C1915 C1914 1.376 . S
C1915 C1916 1.388 . S
C1916 H1903 0.930 . S
C1916 C1915 1.388 . S
C1916 C1917 1.390 . S
C1917 C1916 1.390 . S
C1917 C1918 1.394 . S
C1917 C1923 1.465 . S
C1918 C1913 1.399 . S
C1918 C1917 1.394 . S
C1918 C1919 1.516 . S
C1919 C1918 1.516 . S
C1919 C1920 1.502 . S
C1919 C1921 1.561 . S
C1919 C1922 1.526 . S
C1920 H1904 0.959 . S
C1920 H1905 0.959 . S
C1920 H1906 0.961 . S
C1920 C1919 1.502 . S
C1921 H1907 0.960 . S
C1921 H1908 0.961 . S
C1921 H1909 0.959 . S
C1921 C1919 1.561 . S
C1922 C1919 1.526 . S
C1922 C1923 1.396 . S
C1922 C1927 1.390 . S
C1923 C1917 1.465 . S
C1923 C1922 1.396 . S
C1923 C1924 1.399 . S
C1924 H1910 0.929 . S
C1924 C1923 1.399 . S
C1924 C1925 1.385 . S
C1925 H1911 0.931 . S
C1925 C1924 1.385 . S
C1925 C1926 1.389 . S
C1926 C1925 1.389 . S
C1926 C1927 1.387 . S
C1927 H1912 0.930 . S
C1927 C1922 1.390 . S
C1927 C1926 1.387 . S
H1928 C1940 0.930 . S
H1929 C1942 0.930 . S
H1930 C1943 0.930 . S
H1931 C1947 0.959 . S
H1932 C1947 0.959 . S
H1933 C1947 0.961 . S
H1934 C1948 0.960 . S
H1935 C1948 0.961 . S
H1936 C1948 0.959 . S
H1937 C1951 0.929 . S
H1938 C1952 0.931 . S
H1939 C1954 0.930 . S
C1940 H1928 0.930 . S
C1940 C1941 1.399 . S
C1940 C1945 1.399 . S
C1941 C1940 1.399 . S
C1941 C1942 1.376 . S
C1942 H1929 0.930 . S
C1942 C1941 1.376 . S
C1942 C1943 1.388 . S
C1943 H1930 0.930 . S
C1943 C1942 1.388 . S
C1943 C1944 1.390 . S
C1944 C1943 1.390 . S
C1944 C1945 1.394 . S
C1944 C1950 1.465 . S
C1945 C1940 1.399 . S
C1945 C1944 1.394 . S
C1945 C1946 1.516 . S
C1946 C1945 1.516 . S
C1946 C1947 1.502 . S
C1946 C1948 1.561 . S
C1946 C1949 1.526 . S
C1947 H1931 0.959 . S
C1947 H1932 0.959 . S
C1947 H1933 0.961 . S
C1947 C1946 1.502 . S
C1948 H1934 0.960 . S
C1948 H1935 0.961 . S
C1948 H1936 0.959 . S
C1948 C1946 1.561 . S
C1949 C1946 1.526 . S
C1949 C1950 1.396 . S
C1949 C1954 1.390 . S
C1950 C1944 1.465 . S
C1950 C1949 1.396 . S
C1950 C1951 1.399 . S
C1951 H1937 0.929 . S
C1951 C1950 1.399 . S
C1951 C1952 1.385 . S
C1952 H1938 0.931 . S
C1952 C1951 1.385 . S
C1952 C1953 1.389 . S
C1953 C1952 1.389 . S
C1953 C1954 1.387 . S
C1954 H1939 0.930 . S
C1954 C1949 1.390 . S
C1954 C1953 1.387 . S
H1955 C1967 0.930 . S
H1956 C1969 0.930 . S
H1957 C1970 0.930 . S
H1958 C1974 0.959 . S
H1959 C1974 0.959 . S
H1960 C1974 0.961 . S
H1961 C1975 0.960 . S
H1962 C1975 0.961 . S
H1963 C1975 0.959 . S
H1964 C1978 0.929 . S
H1965 C1979 0.931 . S
H1966 C1981 0.930 . S
C1967 H1955 0.930 . S
C1967 C1968 1.399 . S
C1967 C1972 1.399 . S
C1968 C1967 1.399 . S
C1968 C1969 1.376 . S
C1969 H1956 0.930 . S
C1969 C1968 1.376 . S
C1969 C1970 1.388 . S
C1970 H1957 0.930 . S
C1970 C1969 1.388 . S
C1970 C1971 1.390 . S
C1971 C1970 1.390 . S
C1971 C1972 1.394 . S
C1971 C1977 1.465 . S
C1972 C1967 1.399 . S
C1972 C1971 1.394 . S
C1972 C1973 1.516 . S
C1973 C1972 1.516 . S
C1973 C1974 1.502 . S
C1973 C1975 1.561 . S
C1973 C1976 1.526 . S
C1974 H1958 0.959 . S
C1974 H1959 0.959 . S
C1974 H1960 0.961 . S
C1974 C1973 1.502 . S
C1975 H1961 0.960 . S
C1975 H1962 0.961 . S
C1975 H1963 0.959 . S
C1975 C1973 1.561 . S
C1976 C1973 1.526 . S
C1976 C1977 1.396 . S
C1976 C1981 1.390 . S
C1977 C1971 1.465 . S
C1977 C1976 1.396 . S
C1977 C1978 1.399 . S
C1978 H1964 0.929 . S
C1978 C1977 1.399 . S
C1978 C1979 1.385 . S
C1979 H1965 0.931 . S
C1979 C1978 1.385 . S
C1979 C1980 1.389 . S
C1980 C1979 1.389 . S
C1980 C1981 1.387 . S
C1981 H1966 0.930 . S
C1981 C1976 1.390 . S
C1981 C1980 1.387 . S
H1982 C1994 0.930 . S
H1983 C1996 0.930 . S
H1984 C1997 0.930 . S
H1985 C2001 0.959 . S
H1986 C2001 0.959 . S
H1987 C2001 0.961 . S
H1988 C2002 0.960 . S
H1989 C2002 0.961 . S
H1990 C2002 0.959 . S
H1991 C2005 0.929 . S
H1992 C2006 0.931 . S
H1993 C2008 0.930 . S
C1994 H1982 0.930 . S
C1994 C1995 1.399 . S
C1994 C1999 1.399 . S
C1995 C1994 1.399 . S
C1995 C1996 1.376 . S
C1996 H1983 0.930 . S
C1996 C1995 1.376 . S
C1996 C1997 1.388 . S
C1997 H1984 0.930 . S
C1997 C1996 1.388 . S
C1997 C1998 1.390 . S
C1998 C1997 1.390 . S
C1998 C1999 1.394 . S
C1998 C2004 1.465 . S
C1999 C1994 1.399 . S
C1999 C1998 1.394 . S
C1999 C2000 1.516 . S
C2000 C1999 1.516 . S
C2000 C2001 1.502 . S
C2000 C2002 1.561 . S
C2000 C2003 1.526 . S
C2001 H1985 0.959 . S
C2001 H1986 0.959 . S
C2001 H1987 0.961 . S
C2001 C2000 1.502 . S
C2002 H1988 0.960 . S
C2002 H1989 0.961 . S
C2002 H1990 0.959 . S
C2002 C2000 1.561 . S
C2003 C2000 1.526 . S
C2003 C2004 1.396 . S
C2003 C2008 1.390 . S
C2004 C1998 1.465 . S
C2004 C2003 1.396 . S
C2004 C2005 1.399 . S
C2005 H1991 0.929 . S
C2005 C2004 1.399 . S
C2005 C2006 1.385 . S
C2006 H1992 0.931 . S
C2006 C2005 1.385 . S
C2006 C2007 1.389 . S
C2007 C2006 1.389 . S
C2007 C2008 1.387 . S
C2008 H1993 0.930 . S
C2008 C2003 1.390 . S
C2008 C2007 1.387 . S
H2009 C2021 0.930 . S
H2010 C2023 0.930 . S
H2011 C2024 0.930 . S
H2012 C2028 0.959 . S
H2013 C2028 0.959 . S
H2014 C2028 0.961 . S
H2015 C2029 0.960 . S
H2016 C2029 0.961 . S
H2017 C2029 0.959 . S
H2018 C2032 0.929 . S
H2019 C2033 0.931 . S
H2020 C2035 0.930 . S
C2021 H2009 0.930 . S
C2021 C2022 1.399 . S
C2021 C2026 1.399 . S
C2022 C2021 1.399 . S
C2022 C2023 1.376 . S
C2023 H2010 0.930 . S
C2023 C2022 1.376 . S
C2023 C2024 1.388 . S
C2024 H2011 0.930 . S
C2024 C2023 1.388 . S
C2024 C2025 1.390 . S
C2025 C2024 1.390 . S
C2025 C2026 1.394 . S
C2025 C2031 1.465 . S
C2026 C2021 1.399 . S
C2026 C2025 1.394 . S
C2026 C2027 1.516 . S
C2027 C2026 1.516 . S
C2027 C2028 1.502 . S
C2027 C2029 1.561 . S
C2027 C2030 1.526 . S
C2028 H2012 0.959 . S
C2028 H2013 0.959 . S
C2028 H2014 0.961 . S
C2028 C2027 1.502 . S
C2029 H2015 0.960 . S
C2029 H2016 0.961 . S
C2029 H2017 0.959 . S
C2029 C2027 1.561 . S
C2030 C2027 1.526 . S
C2030 C2031 1.396 . S
C2030 C2035 1.390 . S
C2031 C2025 1.465 . S
C2031 C2030 1.396 . S
C2031 C2032 1.399 . S
C2032 H2018 0.929 . S
C2032 C2031 1.399 . S
C2032 C2033 1.385 . S
C2033 H2019 0.931 . S
C2033 C2032 1.385 . S
C2033 C2034 1.389 . S
C2034 C2033 1.389 . S
C2034 C2035 1.387 . S
C2035 H2020 0.930 . S
C2035 C2030 1.390 . S
C2035 C2034 1.387 . S
H2036 C2048 0.930 . S
H2037 C2050 0.930 . S
H2038 C2051 0.930 . S
H2039 C2055 0.959 . S
H2040 C2055 0.959 . S
H2041 C2055 0.961 . S
H2042 C2056 0.960 . S
H2043 C2056 0.961 . S
H2044 C2056 0.959 . S
H2045 C2059 0.929 . S
H2046 C2060 0.931 . S
H2047 C2062 0.930 . S
C2048 H2036 0.930 . S
C2048 C2049 1.399 . S
C2048 C2053 1.399 . S
C2049 C2048 1.399 . S
C2049 C2050 1.376 . S
C2050 H2037 0.930 . S
C2050 C2049 1.376 . S
C2050 C2051 1.388 . S
C2051 H2038 0.930 . S
C2051 C2050 1.388 . S
C2051 C2052 1.390 . S
C2052 C2051 1.390 . S
C2052 C2053 1.394 . S
C2052 C2058 1.465 . S
C2053 C2048 1.399 . S
C2053 C2052 1.394 . S
C2053 C2054 1.516 . S
C2054 C2053 1.516 . S
C2054 C2055 1.502 . S
C2054 C2056 1.561 . S
C2054 C2057 1.526 . S
C2055 H2039 0.959 . S
C2055 H2040 0.959 . S
C2055 H2041 0.961 . S
C2055 C2054 1.502 . S
C2056 H2042 0.960 . S
C2056 H2043 0.961 . S
C2056 H2044 0.959 . S
C2056 C2054 1.561 . S
C2057 C2054 1.526 . S
C2057 C2058 1.396 . S
C2057 C2062 1.390 . S
C2058 C2052 1.465 . S
C2058 C2057 1.396 . S
C2058 C2059 1.399 . S
C2059 H2045 0.929 . S
C2059 C2058 1.399 . S
C2059 C2060 1.385 . S
C2060 H2046 0.931 . S
C2060 C2059 1.385 . S
C2060 C2061 1.389 . S
C2061 C2060 1.389 . S
C2061 C2062 1.387 . S
C2062 H2047 0.930 . S
C2062 C2057 1.390 . S
C2062 C2061 1.387 . S
H2063 C2075 0.930 . S
H2064 C2077 0.930 . S
H2065 C2078 0.930 . S
H2066 C2082 0.959 . S
H2067 C2082 0.959 . S
H2068 C2082 0.961 . S
H2069 C2083 0.960 . S
H2070 C2083 0.961 . S
H2071 C2083 0.959 . S
H2072 C2086 0.929 . S
H2073 C2087 0.931 . S
H2074 C2089 0.930 . S
C2075 H2063 0.930 . S
C2075 C2076 1.399 . S
C2075 C2080 1.399 . S
C2076 C2075 1.399 . S
C2076 C2077 1.376 . S
C2077 H2064 0.930 . S
C2077 C2076 1.376 . S
C2077 C2078 1.388 . S
C2078 H2065 0.930 . S
C2078 C2077 1.388 . S
C2078 C2079 1.390 . S
C2079 C2078 1.390 . S
C2079 C2080 1.394 . S
C2079 C2085 1.465 . S
C2080 C2075 1.399 . S
C2080 C2079 1.394 . S
C2080 C2081 1.516 . S
C2081 C2080 1.516 . S
C2081 C2082 1.502 . S
C2081 C2083 1.561 . S
C2081 C2084 1.526 . S
C2082 H2066 0.959 . S
C2082 H2067 0.959 . S
C2082 H2068 0.961 . S
C2082 C2081 1.502 . S
C2083 H2069 0.960 . S
C2083 H2070 0.961 . S
C2083 H2071 0.959 . S
C2083 C2081 1.561 . S
C2084 C2081 1.526 . S
C2084 C2085 1.396 . S
C2084 C2089 1.390 . S
C2085 C2079 1.465 . S
C2085 C2084 1.396 . S
C2085 C2086 1.399 . S
C2086 H2072 0.929 . S
C2086 C2085 1.399 . S
C2086 C2087 1.385 . S
C2087 H2073 0.931 . S
C2087 C2086 1.385 . S
C2087 C2088 1.389 . S
C2088 C2087 1.389 . S
C2088 C2089 1.387 . S
C2089 H2074 0.930 . S
C2089 C2084 1.390 . S
C2089 C2088 1.387 . S
H2090 C2102 0.930 . S
H2091 C2104 0.930 . S
H2092 C2105 0.930 . S
H2093 C2109 0.959 . S
H2094 C2109 0.959 . S
H2095 C2109 0.961 . S
H2096 C2110 0.960 . S
H2097 C2110 0.961 . S
H2098 C2110 0.959 . S
H2099 C2113 0.929 . S
H2100 C2114 0.931 . S
H2101 C2116 0.930 . S
C2102 H2090 0.930 . S
C2102 C2103 1.399 . S
C2102 C2107 1.399 . S
C2103 C2102 1.399 . S
C2103 C2104 1.376 . S
C2104 H2091 0.930 . S
C2104 C2103 1.376 . S
C2104 C2105 1.388 . S
C2105 H2092 0.930 . S
C2105 C2104 1.388 . S
C2105 C2106 1.390 . S
C2106 C2105 1.390 . S
C2106 C2107 1.394 . S
C2106 C2112 1.465 . S
C2107 C2102 1.399 . S
C2107 C2106 1.394 . S
C2107 C2108 1.516 . S
C2108 C2107 1.516 . S
C2108 C2109 1.502 . S
C2108 C2110 1.561 . S
C2108 C2111 1.526 . S
C2109 H2093 0.959 . S
C2109 H2094 0.959 . S
C2109 H2095 0.961 . S
C2109 C2108 1.502 . S
C2110 H2096 0.960 . S
C2110 H2097 0.961 . S
C2110 H2098 0.959 . S
C2110 C2108 1.561 . S
C2111 C2108 1.526 . S
C2111 C2112 1.396 . S
C2111 C2116 1.390 . S
C2112 C2106 1.465 . S
C2112 C2111 1.396 . S
C2112 C2113 1.399 . S
C2113 H2099 0.929 . S
C2113 C2112 1.399 . S
C2113 C2114 1.385 . S
C2114 H2100 0.931 . S
C2114 C2113 1.385 . S
C2114 C2115 1.389 . S
C2115 C2114 1.389 . S
C2115 C2116 1.387 . S
C2116 H2101 0.930 . S
C2116 C2111 1.390 . S
C2116 C2115 1.387 . S
H2117 C2129 0.930 . S
H2118 C2131 0.930 . S
H2119 C2132 0.930 . S
H2120 C2136 0.959 . S
H2121 C2136 0.959 . S
H2122 C2136 0.961 . S
H2123 C2137 0.960 . S
H2124 C2137 0.961 . S
H2125 C2137 0.959 . S
H2126 C2140 0.929 . S
H2127 C2141 0.931 . S
H2128 C2143 0.930 . S
C2129 H2117 0.930 . S
C2129 C2130 1.399 . S
C2129 C2134 1.399 . S
C2130 C2129 1.399 . S
C2130 C2131 1.376 . S
C2131 H2118 0.930 . S
C2131 C2130 1.376 . S
C2131 C2132 1.388 . S
C2132 H2119 0.930 . S
C2132 C2131 1.388 . S
C2132 C2133 1.390 . S
C2133 C2132 1.390 . S
C2133 C2134 1.394 . S
C2133 C2139 1.465 . S
C2134 C2129 1.399 . S
C2134 C2133 1.394 . S
C2134 C2135 1.516 . S
C2135 C2134 1.516 . S
C2135 C2136 1.502 . S
C2135 C2137 1.561 . S
C2135 C2138 1.526 . S
C2136 H2120 0.959 . S
C2136 H2121 0.959 . S
C2136 H2122 0.961 . S
C2136 C2135 1.502 . S
C2137 H2123 0.960 . S
C2137 H2124 0.961 . S
C2137 H2125 0.959 . S
C2137 C2135 1.561 . S
C2138 C2135 1.526 . S
C2138 C2139 1.396 . S
C2138 C2143 1.390 . S
C2139 C2133 1.465 . S
C2139 C2138 1.396 . S
C2139 C2140 1.399 . S
C2140 H2126 0.929 . S
C2140 C2139 1.399 . S
C2140 C2141 1.385 . S
C2141 H2127 0.931 . S
C2141 C2140 1.385 . S
C2141 C2142 1.389 . S
C2142 C2141 1.389 . S
C2142 C2143 1.387 . S
C2143 H2128 0.930 . S
C2143 C2138 1.390 . S
C2143 C2142 1.387 . S
H2144 C2156 0.930 . S
H2145 C2158 0.930 . S
H2146 C2159 0.930 . S
H2147 C2163 0.959 . S
H2148 C2163 0.959 . S
H2149 C2163 0.961 . S
H2150 C2164 0.960 . S
H2151 C2164 0.961 . S
H2152 C2164 0.959 . S
H2153 C2167 0.929 . S
H2154 C2168 0.931 . S
H2155 C2170 0.930 . S
C2156 H2144 0.930 . S
C2156 C2157 1.399 . S
C2156 C2161 1.399 . S
C2157 C2156 1.399 . S
C2157 C2158 1.376 . S
C2158 H2145 0.930 . S
C2158 C2157 1.376 . S
C2158 C2159 1.388 . S
C2159 H2146 0.930 . S
C2159 C2158 1.388 . S
C2159 C2160 1.390 . S
C2160 C2159 1.390 . S
C2160 C2161 1.394 . S
C2160 C2166 1.465 . S
C2161 C2156 1.399 . S
C2161 C2160 1.394 . S
C2161 C2162 1.516 . S
C2162 C2161 1.516 . S
C2162 C2163 1.502 . S
C2162 C2164 1.561 . S
C2162 C2165 1.526 . S
C2163 H2147 0.959 . S
C2163 H2148 0.959 . S
C2163 H2149 0.961 . S
C2163 C2162 1.502 . S
C2164 H2150 0.960 . S
C2164 H2151 0.961 . S
C2164 H2152 0.959 . S
C2164 C2162 1.561 . S
C2165 C2162 1.526 . S
C2165 C2166 1.396 . S
C2165 C2170 1.390 . S
C2166 C2160 1.465 . S
C2166 C2165 1.396 . S
C2166 C2167 1.399 . S
C2167 H2153 0.929 . S
C2167 C2166 1.399 . S
C2167 C2168 1.385 . S
C2168 H2154 0.931 . S
C2168 C2167 1.385 . S
C2168 C2169 1.389 . S
C2169 C2168 1.389 . S
C2169 C2170 1.387 . S
C2170 H2155 0.930 . S
C2170 C2165 1.390 . S
C2170 C2169 1.387 . S
H2171 C2183 0.930 . S
H2172 C2185 0.930 . S
H2173 C2186 0.930 . S
H2174 C2190 0.959 . S
H2175 C2190 0.959 . S
H2176 C2190 0.961 . S
H2177 C2191 0.960 . S
H2178 C2191 0.961 . S
H2179 C2191 0.959 . S
H2180 C2194 0.929 . S
H2181 C2195 0.931 . S
H2182 C2197 0.930 . S
C2183 H2171 0.930 . S
C2183 C2184 1.399 . S
C2183 C2188 1.399 . S
C2184 C2183 1.399 . S
C2184 C2185 1.376 . S
C2185 H2172 0.930 . S
C2185 C2184 1.376 . S
C2185 C2186 1.388 . S
C2186 H2173 0.930 . S
C2186 C2185 1.388 . S
C2186 C2187 1.390 . S
C2187 C2186 1.390 . S
C2187 C2188 1.394 . S
C2187 C2193 1.465 . S
C2188 C2183 1.399 . S
C2188 C2187 1.394 . S
C2188 C2189 1.516 . S
C2189 C2188 1.516 . S
C2189 C2190 1.502 . S
C2189 C2191 1.561 . S
C2189 C2192 1.526 . S
C2190 H2174 0.959 . S
C2190 H2175 0.959 . S
C2190 H2176 0.961 . S
C2190 C2189 1.502 . S
C2191 H2177 0.960 . S
C2191 H2178 0.961 . S
C2191 H2179 0.959 . S
C2191 C2189 1.561 . S
C2192 C2189 1.526 . S
C2192 C2193 1.396 . S
C2192 C2197 1.390 . S
C2193 C2187 1.465 . S
C2193 C2192 1.396 . S
C2193 C2194 1.399 . S
C2194 H2180 0.929 . S
C2194 C2193 1.399 . S
C2194 C2195 1.385 . S
C2195 H2181 0.931 . S
C2195 C2194 1.385 . S
C2195 C2196 1.389 . S
C2196 C2195 1.389 . S
C2196 C2197 1.387 . S
C2197 H2182 0.930 . S
C2197 C2192 1.390 . S
C2197 C2196 1.387 . S
H2198 C2210 0.930 . S
H2199 C2212 0.930 . S
H2200 C2213 0.930 . S
H2201 C2217 0.959 . S
H2202 C2217 0.959 . S
H2203 C2217 0.961 . S
H2204 C2218 0.960 . S
H2205 C2218 0.961 . S
H2206 C2218 0.959 . S
H2207 C2221 0.929 . S
H2208 C2222 0.931 . S
H2209 C2224 0.930 . S
C2210 H2198 0.930 . S
C2210 C2211 1.399 . S
C2210 C2215 1.399 . S
C2211 C2210 1.399 . S
C2211 C2212 1.376 . S
C2212 H2199 0.930 . S
C2212 C2211 1.376 . S
C2212 C2213 1.388 . S
C2213 H2200 0.930 . S
C2213 C2212 1.388 . S
C2213 C2214 1.390 . S
C2214 C2213 1.390 . S
C2214 C2215 1.394 . S
C2214 C2220 1.465 . S
C2215 C2210 1.399 . S
C2215 C2214 1.394 . S
C2215 C2216 1.516 . S
C2216 C2215 1.516 . S
C2216 C2217 1.502 . S
C2216 C2218 1.561 . S
C2216 C2219 1.526 . S
C2217 H2201 0.959 . S
C2217 H2202 0.959 . S
C2217 H2203 0.961 . S
C2217 C2216 1.502 . S
C2218 H2204 0.960 . S
C2218 H2205 0.961 . S
C2218 H2206 0.959 . S
C2218 C2216 1.561 . S
C2219 C2216 1.526 . S
C2219 C2220 1.396 . S
C2219 C2224 1.390 . S
C2220 C2214 1.465 . S
C2220 C2219 1.396 . S
C2220 C2221 1.399 . S
C2221 H2207 0.929 . S
C2221 C2220 1.399 . S
C2221 C2222 1.385 . S
C2222 H2208 0.931 . S
C2222 C2221 1.385 . S
C2222 C2223 1.389 . S
C2223 C2222 1.389 . S
C2223 C2224 1.387 . S
C2224 H2209 0.930 . S
C2224 C2219 1.390 . S
C2224 C2223 1.387 . S
H2225 C2237 0.930 . S
H2226 C2239 0.930 . S
H2227 C2240 0.930 . S
H2228 C2244 0.959 . S
H2229 C2244 0.959 . S
H2230 C2244 0.961 . S
H2231 C2245 0.960 . S
H2232 C2245 0.961 . S
H2233 C2245 0.959 . S
H2234 C2248 0.929 . S
H2235 C2249 0.931 . S
H2236 C2251 0.930 . S
C2237 H2225 0.930 . S
C2237 C2238 1.399 . S
C2237 C2242 1.399 . S
C2238 C2237 1.399 . S
C2238 C2239 1.376 . S
C2239 H2226 0.930 . S
C2239 C2238 1.376 . S
C2239 C2240 1.388 . S
C2240 H2227 0.930 . S
C2240 C2239 1.388 . S
C2240 C2241 1.390 . S
C2241 C2240 1.390 . S
C2241 C2242 1.394 . S
C2241 C2247 1.465 . S
C2242 C2237 1.399 . S
C2242 C2241 1.394 . S
C2242 C2243 1.516 . S
C2243 C2242 1.516 . S
C2243 C2244 1.502 . S
C2243 C2245 1.561 . S
C2243 C2246 1.526 . S
C2244 H2228 0.959 . S
C2244 H2229 0.959 . S
C2244 H2230 0.961 . S
C2244 C2243 1.502 . S
C2245 H2231 0.960 . S
C2245 H2232 0.961 . S
C2245 H2233 0.959 . S
C2245 C2243 1.561 . S
C2246 C2243 1.526 . S
C2246 C2247 1.396 . S
C2246 C2251 1.390 . S
C2247 C2241 1.465 . S
C2247 C2246 1.396 . S
C2247 C2248 1.399 . S
C2248 H2234 0.929 . S
C2248 C2247 1.399 . S
C2248 C2249 1.385 . S
C2249 H2235 0.931 . S
C2249 C2248 1.385 . S
C2249 C2250 1.389 . S
C2250 C2249 1.389 . S
C2250 C2251 1.387 . S
C2251 H2236 0.930 . S
C2251 C2246 1.390 . S
C2251 C2250 1.387 . S
H2252 C2264 0.930 . S
H2253 C2266 0.930 . S
H2254 C2267 0.930 . S
H2255 C2271 0.959 . S
H2256 C2271 0.959 . S
H2257 C2271 0.961 . S
H2258 C2272 0.960 . S
H2259 C2272 0.961 . S
H2260 C2272 0.959 . S
H2261 C2275 0.929 . S
H2262 C2276 0.931 . S
H2263 C2278 0.930 . S
C2264 H2252 0.930 . S
C2264 C2265 1.399 . S
C2264 C2269 1.399 . S
C2265 C2264 1.399 . S
C2265 C2266 1.376 . S
C2266 H2253 0.930 . S
C2266 C2265 1.376 . S
C2266 C2267 1.388 . S
C2267 H2254 0.930 . S
C2267 C2266 1.388 . S
C2267 C2268 1.390 . S
C2268 C2267 1.390 . S
C2268 C2269 1.394 . S
C2268 C2274 1.465 . S
C2269 C2264 1.399 . S
C2269 C2268 1.394 . S
C2269 C2270 1.516 . S
C2270 C2269 1.516 . S
C2270 C2271 1.502 . S
C2270 C2272 1.561 . S
C2270 C2273 1.526 . S
C2271 H2255 0.959 . S
C2271 H2256 0.959 . S
C2271 H2257 0.961 . S
C2271 C2270 1.502 . S
C2272 H2258 0.960 . S
C2272 H2259 0.961 . S
C2272 H2260 0.959 . S
C2272 C2270 1.561 . S
C2273 C2270 1.526 . S
C2273 C2274 1.396 . S
C2273 C2278 1.390 . S
C2274 C2268 1.465 . S
C2274 C2273 1.396 . S
C2274 C2275 1.399 . S
C2275 H2261 0.929 . S
C2275 C2274 1.399 . S
C2275 C2276 1.385 . S
C2276 H2262 0.931 . S
C2276 C2275 1.385 . S
C2276 C2277 1.389 . S
C2277 C2276 1.389 . S
C2277 C2278 1.387 . S
C2278 H2263 0.930 . S
C2278 C2273 1.390 . S
C2278 C2277 1.387 . S
H2279 C2291 0.930 . S
H2280 C2293 0.930 . S
H2281 C2294 0.930 . S
H2282 C2298 0.959 . S
H2283 C2298 0.959 . S
H2284 C2298 0.961 . S
H2285 C2299 0.960 . S
H2286 C2299 0.961 . S
H2287 C2299 0.959 . S
H2288 C2302 0.929 . S
H2289 C2303 0.931 . S
H2290 C2305 0.930 . S
C2291 H2279 0.930 . S
C2291 C2292 1.399 . S
C2291 C2296 1.399 . S
C2292 C2291 1.399 . S
C2292 C2293 1.376 . S
C2293 H2280 0.930 . S
C2293 C2292 1.376 . S
C2293 C2294 1.388 . S
C2294 H2281 0.930 . S
C2294 C2293 1.388 . S
C2294 C2295 1.390 . S
C2295 C2294 1.390 . S
C2295 C2296 1.394 . S
C2295 C2301 1.465 . S
C2296 C2291 1.399 . S
C2296 C2295 1.394 . S
C2296 C2297 1.516 . S
C2297 C2296 1.516 . S
C2297 C2298 1.502 . S
C2297 C2299 1.561 . S
C2297 C2300 1.526 . S
C2298 H2282 0.959 . S
C2298 H2283 0.959 . S
C2298 H2284 0.961 . S
C2298 C2297 1.502 . S
C2299 H2285 0.960 . S
C2299 H2286 0.961 . S
C2299 H2287 0.959 . S
C2299 C2297 1.561 . S
C2300 C2297 1.526 . S
C2300 C2301 1.396 . S
C2300 C2305 1.390 . S
C2301 C2295 1.465 . S
C2301 C2300 1.396 . S
C2301 C2302 1.399 . S
C2302 H2288 0.929 . S
C2302 C2301 1.399 . S
C2302 C2303 1.385 . S
C2303 H2289 0.931 . S
C2303 C2302 1.385 . S
C2303 C2304 1.389 . S
C2304 C2303 1.389 . S
C2304 C2305 1.387 . S
C2305 H2290 0.930 . S
C2305 C2300 1.390 . S
C2305 C2304 1.387 . S
H2306 C2318 0.930 . S
H2307 C2320 0.930 . S
H2308 C2321 0.930 . S
H2309 C2325 0.959 . S
H2310 C2325 0.959 . S
H2311 C2325 0.961 . S
H2312 C2326 0.960 . S
H2313 C2326 0.961 . S
H2314 C2326 0.959 . S
H2315 C2329 0.929 . S
H2316 C2330 0.931 . S
H2317 C2332 0.930 . S
C2318 H2306 0.930 . S
C2318 C2319 1.399 . S
C2318 C2323 1.399 . S
C2319 C2318 1.399 . S
C2319 C2320 1.376 . S
C2320 H2307 0.930 . S
C2320 C2319 1.376 . S
C2320 C2321 1.388 . S
C2321 H2308 0.930 . S
C2321 C2320 1.388 . S
C2321 C2322 1.390 . S
C2322 C2321 1.390 . S
C2322 C2323 1.394 . S
C2322 C2328 1.465 . S
C2323 C2318 1.399 . S
C2323 C2322 1.394 . S
C2323 C2324 1.516 . S
C2324 C2323 1.516 . S
C2324 C2325 1.502 . S
C2324 C2326 1.561 . S
C2324 C2327 1.526 . S
C2325 H2309 0.959 . S
C2325 H2310 0.959 . S
C2325 H2311 0.961 . S
C2325 C2324 1.502 . S
C2326 H2312 0.960 . S
C2326 H2313 0.961 . S
C2326 H2314 0.959 . S
C2326 C2324 1.561 . S
C2327 C2324 1.526 . S
C2327 C2328 1.396 . S
C2327 C2332 1.390 . S
C2328 C2322 1.465 . S
C2328 C2327 1.396 . S
C2328 C2329 1.399 . S
C2329 H2315 0.929 . S
C2329 C2328 1.399 . S
C2329 C2330 1.385 . S
C2330 H2316 0.931 . S
C2330 C2329 1.385 . S
C2330 C2331 1.389 . S
C2331 C2330 1.389 . S
C2331 C2332 1.387 . S
C2332 H2317 0.930 . S
C2332 C2327 1.390 . S
C2332 C2331 1.387 . S
H2333 C2345 0.930 . S
H2334 C2347 0.930 . S
H2335 C2348 0.930 . S
H2336 C2352 0.959 . S
H2337 C2352 0.959 . S
H2338 C2352 0.961 . S
H2339 C2353 0.960 . S
H2340 C2353 0.961 . S
H2341 C2353 0.959 . S
H2342 C2356 0.929 . S
H2343 C2357 0.931 . S
H2344 C2359 0.930 . S
C2345 H2333 0.930 . S
C2345 C2346 1.399 . S
C2345 C2350 1.399 . S
C2346 C2345 1.399 . S
C2346 C2347 1.376 . S
C2347 H2334 0.930 . S
C2347 C2346 1.376 . S
C2347 C2348 1.388 . S
C2348 H2335 0.930 . S
C2348 C2347 1.388 . S
C2348 C2349 1.390 . S
C2349 C2348 1.390 . S
C2349 C2350 1.394 . S
C2349 C2355 1.465 . S
C2350 C2345 1.399 . S
C2350 C2349 1.394 . S
C2350 C2351 1.516 . S
C2351 C2350 1.516 . S
C2351 C2352 1.502 . S
C2351 C2353 1.561 . S
C2351 C2354 1.526 . S
C2352 H2336 0.959 . S
C2352 H2337 0.959 . S
C2352 H2338 0.961 . S
C2352 C2351 1.502 . S
C2353 H2339 0.960 . S
C2353 H2340 0.961 . S
C2353 H2341 0.959 . S
C2353 C2351 1.561 . S
C2354 C2351 1.526 . S
C2354 C2355 1.396 . S
C2354 C2359 1.390 . S
C2355 C2349 1.465 . S
C2355 C2354 1.396 . S
C2355 C2356 1.399 . S
C2356 H2342 0.929 . S
C2356 C2355 1.399 . S
C2356 C2357 1.385 . S
C2357 H2343 0.931 . S
C2357 C2356 1.385 . S
C2357 C2358 1.389 . S
C2358 C2357 1.389 . S
C2358 C2359 1.387 . S
C2359 H2344 0.930 . S
C2359 C2354 1.390 . S
C2359 C2358 1.387 . S
H2360 C2372 0.930 . S
H2361 C2374 0.930 . S
H2362 C2375 0.930 . S
H2363 C2379 0.959 . S
H2364 C2379 0.959 . S
H2365 C2379 0.961 . S
H2366 C2380 0.960 . S
H2367 C2380 0.961 . S
H2368 C2380 0.959 . S
H2369 C2383 0.929 . S
H2370 C2384 0.931 . S
H2371 C2386 0.930 . S
C2372 H2360 0.930 . S
C2372 C2373 1.399 . S
C2372 C2377 1.399 . S
C2373 C2372 1.399 . S
C2373 C2374 1.376 . S
C2374 H2361 0.930 . S
C2374 C2373 1.376 . S
C2374 C2375 1.388 . S
C2375 H2362 0.930 . S
C2375 C2374 1.388 . S
C2375 C2376 1.390 . S
C2376 C2375 1.390 . S
C2376 C2377 1.394 . S
C2376 C2382 1.465 . S
C2377 C2372 1.399 . S
C2377 C2376 1.394 . S
C2377 C2378 1.516 . S
C2378 C2377 1.516 . S
C2378 C2379 1.502 . S
C2378 C2380 1.561 . S
C2378 C2381 1.526 . S
C2379 H2363 0.959 . S
C2379 H2364 0.959 . S
C2379 H2365 0.961 . S
C2379 C2378 1.502 . S
C2380 H2366 0.960 . S
C2380 H2367 0.961 . S
C2380 H2368 0.959 . S
C2380 C2378 1.561 . S
C2381 C2378 1.526 . S
C2381 C2382 1.396 . S
C2381 C2386 1.390 . S
C2382 C2376 1.465 . S
C2382 C2381 1.396 . S
C2382 C2383 1.399 . S
C2383 H2369 0.929 . S
C2383 C2382 1.399 . S
C2383 C2384 1.385 . S
C2384 H2370 0.931 . S
C2384 C2383 1.385 . S
C2384 C2385 1.389 . S
C2385 C2384 1.389 . S
C2385 C2386 1.387 . S
C2386 H2371 0.930 . S
C2386 C2381 1.390 . S
C2386 C2385 1.387 . S
H2387 C2399 0.930 . S
H2388 C2401 0.930 . S
H2389 C2402 0.930 . S
H2390 C2406 0.959 . S
H2391 C2406 0.959 . S
H2392 C2406 0.961 . S
H2393 C2407 0.960 . S
H2394 C2407 0.961 . S
H2395 C2407 0.959 . S
H2396 C2410 0.929 . S
H2397 C2411 0.931 . S
H2398 C2413 0.930 . S
C2399 H2387 0.930 . S
C2399 C2400 1.399 . S
C2399 C2404 1.399 . S
C2400 C2399 1.399 . S
C2400 C2401 1.376 . S
C2401 H2388 0.930 . S
C2401 C2400 1.376 . S
C2401 C2402 1.388 . S
C2402 H2389 0.930 . S
C2402 C2401 1.388 . S
C2402 C2403 1.390 . S
C2403 C2402 1.390 . S
C2403 C2404 1.394 . S
C2403 C2409 1.465 . S
C2404 C2399 1.399 . S
C2404 C2403 1.394 . S
C2404 C2405 1.516 . S
C2405 C2404 1.516 . S
C2405 C2406 1.502 . S
C2405 C2407 1.561 . S
C2405 C2408 1.526 . S
C2406 H2390 0.959 . S
C2406 H2391 0.959 . S
C2406 H2392 0.961 . S
C2406 C2405 1.502 . S
C2407 H2393 0.960 . S
C2407 H2394 0.961 . S
C2407 H2395 0.959 . S
C2407 C2405 1.561 . S
C2408 C2405 1.526 . S
C2408 C2409 1.396 . S
C2408 C2413 1.390 . S
C2409 C2403 1.465 . S
C2409 C2408 1.396 . S
C2409 C2410 1.399 . S
C2410 H2396 0.929 . S
C2410 C2409 1.399 . S
C2410 C2411 1.385 . S
C2411 H2397 0.931 . S
C2411 C2410 1.385 . S
C2411 C2412 1.389 . S
C2412 C2411 1.389 . S
C2412 C2413 1.387 . S
C2413 H2398 0.930 . S
C2413 C2408 1.390 . S
C2413 C2412 1.387 . S
H2414 C2426 0.930 . S
H2415 C2428 0.930 . S
H2416 C2429 0.930 . S
H2417 C2433 0.959 . S
H2418 C2433 0.959 . S
H2419 C2433 0.961 . S
H2420 C2434 0.960 . S
H2421 C2434 0.961 . S
H2422 C2434 0.959 . S
H2423 C2437 0.929 . S
H2424 C2438 0.931 . S
H2425 C2440 0.930 . S
C2426 H2414 0.930 . S
C2426 C2427 1.399 . S
C2426 C2431 1.399 . S
C2427 C2426 1.399 . S
C2427 C2428 1.376 . S
C2428 H2415 0.930 . S
C2428 C2427 1.376 . S
C2428 C2429 1.388 . S
C2429 H2416 0.930 . S
C2429 C2428 1.388 . S
C2429 C2430 1.390 . S
C2430 C2429 1.390 . S
C2430 C2431 1.394 . S
C2430 C2436 1.465 . S
C2431 C2426 1.399 . S
C2431 C2430 1.394 . S
C2431 C2432 1.516 . S
C2432 C2431 1.516 . S
C2432 C2433 1.502 . S
C2432 C2434 1.561 . S
C2432 C2435 1.526 . S
C2433 H2417 0.959 . S
C2433 H2418 0.959 . S
C2433 H2419 0.961 . S
C2433 C2432 1.502 . S
C2434 H2420 0.960 . S
C2434 H2421 0.961 . S
C2434 H2422 0.959 . S
C2434 C2432 1.561 . S
C2435 C2432 1.526 . S
C2435 C2436 1.396 . S
C2435 C2440 1.390 . S
C2436 C2430 1.465 . S
C2436 C2435 1.396 . S
C2436 C2437 1.399 . S
C2437 H2423 0.929 . S
C2437 C2436 1.399 . S
C2437 C2438 1.385 . S
C2438 H2424 0.931 . S
C2438 C2437 1.385 . S
C2438 C2439 1.389 . S
C2439 C2438 1.389 . S
C2439 C2440 1.387 . S
C2440 H2425 0.930 . S
C2440 C2435 1.390 . S
C2440 C2439 1.387 . S
H2441 C2453 0.930 . S
H2442 C2455 0.930 . S
H2443 C2456 0.930 . S
H2444 C2460 0.959 . S
H2445 C2460 0.959 . S
H2446 C2460 0.961 . S
H2447 C2461 0.960 . S
H2448 C2461 0.961 . S
H2449 C2461 0.959 . S
H2450 C2464 0.929 . S
H2451 C2465 0.931 . S
H2452 C2467 0.930 . S
C2453 H2441 0.930 . S
C2453 C2454 1.399 . S
C2453 C2458 1.399 . S
C2454 C2453 1.399 . S
C2454 C2455 1.376 . S
C2455 H2442 0.930 . S
C2455 C2454 1.376 . S
C2455 C2456 1.388 . S
C2456 H2443 0.930 . S
C2456 C2455 1.388 . S
C2456 C2457 1.390 . S
C2457 C2456 1.390 . S
C2457 C2458 1.394 . S
C2457 C2463 1.465 . S
C2458 C2453 1.399 . S
C2458 C2457 1.394 . S
C2458 C2459 1.516 . S
C2459 C2458 1.516 . S
C2459 C2460 1.502 . S
C2459 C2461 1.561 . S
C2459 C2462 1.526 . S
C2460 H2444 0.959 . S
C2460 H2445 0.959 . S
C2460 H2446 0.961 . S
C2460 C2459 1.502 . S
C2461 H2447 0.960 . S
C2461 H2448 0.961 . S
C2461 H2449 0.959 . S
C2461 C2459 1.561 . S
C2462 C2459 1.526 . S
C2462 C2463 1.396 . S
C2462 C2467 1.390 . S
C2463 C2457 1.465 . S
C2463 C2462 1.396 . S
C2463 C2464 1.399 . S
C2464 H2450 0.929 . S
C2464 C2463 1.399 . S
C2464 C2465 1.385 . S
C2465 H2451 0.931 . S
C2465 C2464 1.385 . S
C2465 C2466 1.389 . S
C2466 C2465 1.389 . S
C2466 C2467 1.387 . S
C2467 H2452 0.930 . S
C2467 C2462 1.390 . S
C2467 C2466 1.387 . S
H2468 C2480 0.930 . S
H2469 C2482 0.930 . S
H2470 C2483 0.930 . S
H2471 C2487 0.959 . S
H2472 C2487 0.959 . S
H2473 C2487 0.961 . S
H2474 C2488 0.960 . S
H2475 C2488 0.961 . S
H2476 C2488 0.959 . S
H2477 C2491 0.929 . S
H2478 C2492 0.931 . S
H2479 C2494 0.930 . S
C2480 H2468 0.930 . S
C2480 C2481 1.399 . S
C2480 C2485 1.399 . S
C2481 C2480 1.399 . S
C2481 C2482 1.376 . S
C2482 H2469 0.930 . S
C2482 C2481 1.376 . S
C2482 C2483 1.388 . S
C2483 H2470 0.930 . S
C2483 C2482 1.388 . S
C2483 C2484 1.390 . S
C2484 C2483 1.390 . S
C2484 C2485 1.394 . S
C2484 C2490 1.465 . S
C2485 C2480 1.399 . S
C2485 C2484 1.394 . S
C2485 C2486 1.516 . S
C2486 C2485 1.516 . S
C2486 C2487 1.502 . S
C2486 C2488 1.561 . S
C2486 C2489 1.526 . S
C2487 H2471 0.959 . S
C2487 H2472 0.959 . S
C2487 H2473 0.961 . S
C2487 C2486 1.502 . S
C2488 H2474 0.960 . S
C2488 H2475 0.961 . S
C2488 H2476 0.959 . S
C2488 C2486 1.561 . S
C2489 C2486 1.526 . S
C2489 C2490 1.396 . S
C2489 C2494 1.390 . S
C2490 C2484 1.465 . S
C2490 C2489 1.396 . S
C2490 C2491 1.399 . S
C2491 H2477 0.929 . S
C2491 C2490 1.399 . S
C2491 C2492 1.385 . S
C2492 H2478 0.931 . S
C2492 C2491 1.385 . S
C2492 C2493 1.389 . S
C2493 C2492 1.389 . S
C2493 C2494 1.387 . S
C2494 H2479 0.930 . S
C2494 C2489 1.390 . S
C2494 C2493 1.387 . S
H2495 C2507 0.930 . S
H2496 C2509 0.930 . S
H2497 C2510 0.930 . S
H2498 C2514 0.959 . S
H2499 C2514 0.959 . S
H2500 C2514 0.961 . S
H2501 C2515 0.960 . S
H2502 C2515 0.961 . S
H2503 C2515 0.959 . S
H2504 C2518 0.929 . S
H2505 C2519 0.931 . S
H2506 C2521 0.930 . S
C2507 H2495 0.930 . S
C2507 C2508 1.399 . S
C2507 C2512 1.399 . S
C2508 C2507 1.399 . S
C2508 C2509 1.376 . S
C2509 H2496 0.930 . S
C2509 C2508 1.376 . S
C2509 C2510 1.388 . S
C2510 H2497 0.930 . S
C2510 C2509 1.388 . S
C2510 C2511 1.390 . S
C2511 C2510 1.390 . S
C2511 C2512 1.394 . S
C2511 C2517 1.465 . S
C2512 C2507 1.399 . S
C2512 C2511 1.394 . S
C2512 C2513 1.516 . S
C2513 C2512 1.516 . S
C2513 C2514 1.502 . S
C2513 C2515 1.561 . S
C2513 C2516 1.526 . S
C2514 H2498 0.959 . S
C2514 H2499 0.959 . S
C2514 H2500 0.961 . S
C2514 C2513 1.502 . S
C2515 H2501 0.960 . S
C2515 H2502 0.961 . S
C2515 H2503 0.959 . S
C2515 C2513 1.561 . S
C2516 C2513 1.526 . S
C2516 C2517 1.396 . S
C2516 C2521 1.390 . S
C2517 C2511 1.465 . S
C2517 C2516 1.396 . S
C2517 C2518 1.399 . S
C2518 H2504 0.929 . S
C2518 C2517 1.399 . S
C2518 C2519 1.385 . S
C2519 H2505 0.931 . S
C2519 C2518 1.385 . S
C2519 C2520 1.389 . S
C2520 C2519 1.389 . S
C2520 C2521 1.387 . S
C2521 H2506 0.930 . S
C2521 C2516 1.390 . S
C2521 C2520 1.387 . S
H2522 C2534 0.930 . S
H2523 C2536 0.930 . S
H2524 C2537 0.930 . S
H2525 C2541 0.959 . S
H2526 C2541 0.959 . S
H2527 C2541 0.961 . S
H2528 C2542 0.960 . S
H2529 C2542 0.961 . S
H2530 C2542 0.959 . S
H2531 C2545 0.929 . S
H2532 C2546 0.931 . S
H2533 C2548 0.930 . S
C2534 H2522 0.930 . S
C2534 C2535 1.399 . S
C2534 C2539 1.399 . S
C2535 C2534 1.399 . S
C2535 C2536 1.376 . S
C2536 H2523 0.930 . S
C2536 C2535 1.376 . S
C2536 C2537 1.388 . S
C2537 H2524 0.930 . S
C2537 C2536 1.388 . S
C2537 C2538 1.390 . S
C2538 C2537 1.390 . S
C2538 C2539 1.394 . S
C2538 C2544 1.465 . S
C2539 C2534 1.399 . S
C2539 C2538 1.394 . S
C2539 C2540 1.516 . S
C2540 C2539 1.516 . S
C2540 C2541 1.502 . S
C2540 C2542 1.561 . S
C2540 C2543 1.526 . S
C2541 H2525 0.959 . S
C2541 H2526 0.959 . S
C2541 H2527 0.961 . S
C2541 C2540 1.502 . S
C2542 H2528 0.960 . S
C2542 H2529 0.961 . S
C2542 H2530 0.959 . S
C2542 C2540 1.561 . S
C2543 C2540 1.526 . S
C2543 C2544 1.396 . S
C2543 C2548 1.390 . S
C2544 C2538 1.465 . S
C2544 C2543 1.396 . S
C2544 C2545 1.399 . S
C2545 H2531 0.929 . S
C2545 C2544 1.399 . S
C2545 C2546 1.385 . S
C2546 H2532 0.931 . S
C2546 C2545 1.385 . S
C2546 C2547 1.389 . S
C2547 C2546 1.389 . S
C2547 C2548 1.387 . S
C2548 H2533 0.930 . S
C2548 C2543 1.390 . S
C2548 C2547 1.387 . S
H2549 C2561 0.930 . S
H2550 C2563 0.930 . S
H2551 C2564 0.930 . S
H2552 C2568 0.959 . S
H2553 C2568 0.959 . S
H2554 C2568 0.961 . S
H2555 C2569 0.960 . S
H2556 C2569 0.961 . S
H2557 C2569 0.959 . S
H2558 C2572 0.929 . S
H2559 C2573 0.931 . S
H2560 C2575 0.930 . S
C2561 H2549 0.930 . S
C2561 C2562 1.399 . S
C2561 C2566 1.399 . S
C2562 C2561 1.399 . S
C2562 C2563 1.376 . S
C2563 H2550 0.930 . S
C2563 C2562 1.376 . S
C2563 C2564 1.388 . S
C2564 H2551 0.930 . S
C2564 C2563 1.388 . S
C2564 C2565 1.390 . S
C2565 C2564 1.390 . S
C2565 C2566 1.394 . S
C2565 C2571 1.465 . S
C2566 C2561 1.399 . S
C2566 C2565 1.394 . S
C2566 C2567 1.516 . S
C2567 C2566 1.516 . S
C2567 C2568 1.502 . S
C2567 C2569 1.561 . S
C2567 C2570 1.526 . S
C2568 H2552 0.959 . S
C2568 H2553 0.959 . S
C2568 H2554 0.961 . S
C2568 C2567 1.502 . S
C2569 H2555 0.960 . S
C2569 H2556 0.961 . S
C2569 H2557 0.959 . S
C2569 C2567 1.561 . S
C2570 C2567 1.526 . S
C2570 C2571 1.396 . S
C2570 C2575 1.390 . S
C2571 C2565 1.465 . S
C2571 C2570 1.396 . S
C2571 C2572 1.399 . S
C2572 H2558 0.929 . S
C2572 C2571 1.399 . S
C2572 C2573 1.385 . S
C2573 H2559 0.931 . S
C2573 C2572 1.385 . S
C2573 C2574 1.389 . S
C2574 C2573 1.389 . S
C2574 C2575 1.387 . S
C2575 H2560 0.930 . S
C2575 C2570 1.390 . S
C2575 C2574 1.387 . S
H2576 C2588 0.930 . S
H2577 C2590 0.930 . S
H2578 C2591 0.930 . S
H2579 C2595 0.959 . S
H2580 C2595 0.959 . S
H2581 C2595 0.961 . S
H2582 C2596 0.960 . S
H2583 C2596 0.961 . S
H2584 C2596 0.959 . S
H2585 C2599 0.929 . S
H2586 C2600 0.931 . S
H2587 C2602 0.930 . S
C2588 H2576 0.930 . S
C2588 C2589 1.399 . S
C2588 C2593 1.399 . S
C2589 C2588 1.399 . S
C2589 C2590 1.376 . S
C2590 H2577 0.930 . S
C2590 C2589 1.376 . S
C2590 C2591 1.388 . S
C2591 H2578 0.930 . S
C2591 C2590 1.388 . S
C2591 C2592 1.390 . S
C2592 C2591 1.390 . S
C2592 C2593 1.394 . S
C2592 C2598 1.465 . S
C2593 C2588 1.399 . S
C2593 C2592 1.394 . S
C2593 C2594 1.516 . S
C2594 C2593 1.516 . S
C2594 C2595 1.502 . S
C2594 C2596 1.561 . S
C2594 C2597 1.526 . S
C2595 H2579 0.959 . S
C2595 H2580 0.959 . S
C2595 H2581 0.961 . S
C2595 C2594 1.502 . S
C2596 H2582 0.960 . S
C2596 H2583 0.961 . S
C2596 H2584 0.959 . S
C2596 C2594 1.561 . S
C2597 C2594 1.526 . S
C2597 C2598 1.396 . S
C2597 C2602 1.390 . S
C2598 C2592 1.465 . S
C2598 C2597 1.396 . S
C2598 C2599 1.399 . S
C2599 H2585 0.929 . S
C2599 C2598 1.399 . S
C2599 C2600 1.385 . S
C2600 H2586 0.931 . S
C2600 C2599 1.385 . S
C2600 C2601 1.389 . S
C2601 C2600 1.389 . S
C2601 C2602 1.387 . S
C2602 H2587 0.930 . S
C2602 C2597 1.390 . S
C2602 C2601 1.387 . S
H2603 C2615 0.930 . S
H2604 C2617 0.930 . S
H2605 C2618 0.930 . S
H2606 C2622 0.959 . S
H2607 C2622 0.959 . S
H2608 C2622 0.961 . S
H2609 C2623 0.960 . S
H2610 C2623 0.961 . S
H2611 C2623 0.959 . S
H2612 C2626 0.929 . S
H2613 C2627 0.931 . S
H2614 C2629 0.930 . S
C2615 H2603 0.930 . S
C2615 C2616 1.399 . S
C2615 C2620 1.399 . S
C2616 C2615 1.399 . S
C2616 C2617 1.376 . S
C2617 H2604 0.930 . S
C2617 C2616 1.376 . S
C2617 C2618 1.388 . S
C2618 H2605 0.930 . S
C2618 C2617 1.388 . S
C2618 C2619 1.390 . S
C2619 C2618 1.390 . S
C2619 C2620 1.394 . S
C2619 C2625 1.465 . S
C2620 C2615 1.399 . S
C2620 C2619 1.394 . S
C2620 C2621 1.516 . S
C2621 C2620 1.516 . S
C2621 C2622 1.502 . S
C2621 C2623 1.561 . S
C2621 C2624 1.526 . S
C2622 H2606 0.959 . S
C2622 H2607 0.959 . S
C2622 H2608 0.961 . S
C2622 C2621 1.502 . S
C2623 H2609 0.960 . S
C2623 H2610 0.961 . S
C2623 H2611 0.959 . S
C2623 C2621 1.561 . S
C2624 C2621 1.526 . S
C2624 C2625 1.396 . S
C2624 C2629 1.390 . S
C2625 C2619 1.465 . S
C2625 C2624 1.396 . S
C2625 C2626 1.399 . S
C2626 H2612 0.929 . S
C2626 C2625 1.399 . S
C2626 C2627 1.385 . S
C2627 H2613 0.931 . S
C2627 C2626 1.385 . S
C2627 C2628 1.389 . S
C2628 C2627 1.389 . S
C2628 C2629 1.387 . S
C2629 H2614 0.930 . S
C2629 C2624 1.390 . S
C2629 C2628 1.387 . S
H2630 C2642 0.930 . S
H2631 C2644 0.930 . S
H2632 C2645 0.930 . S
H2633 C2649 0.959 . S
H2634 C2649 0.959 . S
H2635 C2649 0.961 . S
H2636 C2650 0.960 . S
H2637 C2650 0.961 . S
H2638 C2650 0.959 . S
H2639 C2653 0.929 . S
H2640 C2654 0.931 . S
H2641 C2656 0.930 . S
C2642 H2630 0.930 . S
C2642 C2643 1.399 . S
C2642 C2647 1.399 . S
C2643 C2642 1.399 . S
C2643 C2644 1.376 . S
C2644 H2631 0.930 . S
C2644 C2643 1.376 . S
C2644 C2645 1.388 . S
C2645 H2632 0.930 . S
C2645 C2644 1.388 . S
C2645 C2646 1.390 . S
C2646 C2645 1.390 . S
C2646 C2647 1.394 . S
C2646 C2652 1.465 . S
C2647 C2642 1.399 . S
C2647 C2646 1.394 . S
C2647 C2648 1.516 . S
C2648 C2647 1.516 . S
C2648 C2649 1.502 . S
C2648 C2650 1.561 . S
C2648 C2651 1.526 . S
C2649 H2633 0.959 . S
C2649 H2634 0.959 . S
C2649 H2635 0.961 . S
C2649 C2648 1.502 . S
C2650 H2636 0.960 . S
C2650 H2637 0.961 . S
C2650 H2638 0.959 . S
C2650 C2648 1.561 . S
C2651 C2648 1.526 . S
C2651 C2652 1.396 . S
C2651 C2656 1.390 . S
C2652 C2646 1.465 . S
C2652 C2651 1.396 . S
C2652 C2653 1.399 . S
C2653 H2639 0.929 . S
C2653 C2652 1.399 . S
C2653 C2654 1.385 . S
C2654 H2640 0.931 . S
C2654 C2653 1.385 . S
C2654 C2655 1.389 . S
C2655 C2654 1.389 . S
C2655 C2656 1.387 . S
C2656 H2641 0.930 . S
C2656 C2651 1.390 . S
C2656 C2655 1.387 . S
H2657 C2669 0.930 . S
H2658 C2671 0.930 . S
H2659 C2672 0.930 . S
H2660 C2676 0.959 . S
H2661 C2676 0.959 . S
H2662 C2676 0.961 . S
H2663 C2677 0.960 . S
H2664 C2677 0.961 . S
H2665 C2677 0.959 . S
H2666 C2680 0.929 . S
H2667 C2681 0.931 . S
H2668 C2683 0.930 . S
C2669 H2657 0.930 . S
C2669 C2670 1.399 . S
C2669 C2674 1.399 . S
C2670 C2669 1.399 . S
C2670 C2671 1.376 . S
C2671 H2658 0.930 . S
C2671 C2670 1.376 . S
C2671 C2672 1.388 . S
C2672 H2659 0.930 . S
C2672 C2671 1.388 . S
C2672 C2673 1.390 . S
C2673 C2672 1.390 . S
C2673 C2674 1.394 . S
C2673 C2679 1.465 . S
C2674 C2669 1.399 . S
C2674 C2673 1.394 . S
C2674 C2675 1.516 . S
C2675 C2674 1.516 . S
C2675 C2676 1.502 . S
C2675 C2677 1.561 . S
C2675 C2678 1.526 . S
C2676 H2660 0.959 . S
C2676 H2661 0.959 . S
C2676 H2662 0.961 . S
C2676 C2675 1.502 . S
C2677 H2663 0.960 . S
C2677 H2664 0.961 . S
C2677 H2665 0.959 . S
C2677 C2675 1.561 . S
C2678 C2675 1.526 . S
C2678 C2679 1.396 . S
C2678 C2683 1.390 . S
C2679 C2673 1.465 . S
C2679 C2678 1.396 . S
C2679 C2680 1.399 . S
C2680 H2666 0.929 . S
C2680 C2679 1.399 . S
C2680 C2681 1.385 . S
C2681 H2667 0.931 . S
C2681 C2680 1.385 . S
C2681 C2682 1.389 . S
C2682 C2681 1.389 . S
C2682 C2683 1.387 . S
C2683 H2668 0.930 . S
C2683 C2678 1.390 . S
C2683 C2682 1.387 . S
H2684 C2696 0.930 . S
H2685 C2698 0.930 . S
H2686 C2699 0.930 . S
H2687 C2703 0.959 . S
H2688 C2703 0.959 . S
H2689 C2703 0.961 . S
H2690 C2704 0.960 . S
H2691 C2704 0.961 . S
H2692 C2704 0.959 . S
H2693 C2707 0.929 . S
H2694 C2708 0.931 . S
H2695 C2710 0.930 . S
C2696 H2684 0.930 . S
C2696 C2697 1.399 . S
C2696 C2701 1.399 . S
C2697 C2696 1.399 . S
C2697 C2698 1.376 . S
C2698 H2685 0.930 . S
C2698 C2697 1.376 . S
C2698 C2699 1.388 . S
C2699 H2686 0.930 . S
C2699 C2698 1.388 . S
C2699 C2700 1.390 . S
C2700 C2699 1.390 . S
C2700 C2701 1.394 . S
C2700 C2706 1.465 . S
C2701 C2696 1.399 . S
C2701 C2700 1.394 . S
C2701 C2702 1.516 . S
C2702 C2701 1.516 . S
C2702 C2703 1.502 . S
C2702 C2704 1.561 . S
C2702 C2705 1.526 . S
C2703 H2687 0.959 . S
C2703 H2688 0.959 . S
C2703 H2689 0.961 . S
C2703 C2702 1.502 . S
C2704 H2690 0.960 . S
C2704 H2691 0.961 . S
C2704 H2692 0.959 . S
C2704 C2702 1.561 . S
C2705 C2702 1.526 . S
C2705 C2706 1.396 . S
C2705 C2710 1.390 . S
C2706 C2700 1.465 . S
C2706 C2705 1.396 . S
C2706 C2707 1.399 . S
C2707 H2693 0.929 . S
C2707 C2706 1.399 . S
C2707 C2708 1.385 . S
C2708 H2694 0.931 . S
C2708 C2707 1.385 . S
C2708 C2709 1.389 . S
C2709 C2708 1.389 . S
C2709 C2710 1.387 . S
C2710 H2695 0.930 . S
C2710 C2705 1.390 . S
C2710 C2709 1.387 . S
H2711 C2723 0.930 . S
H2712 C2725 0.930 . S
H2713 C2726 0.930 . S
H2714 C2730 0.959 . S
H2715 C2730 0.959 . S
H2716 C2730 0.961 . S
H2717 C2731 0.960 . S
H2718 C2731 0.961 . S
H2719 C2731 0.959 . S
H2720 C2734 0.929 . S
H2721 C2735 0.931 . S
H2722 C2737 0.930 . S
C2723 H2711 0.930 . S
C2723 C2724 1.399 . S
C2723 C2728 1.399 . S
C2724 C2723 1.399 . S
C2724 C2725 1.376 . S
C2725 H2712 0.930 . S
C2725 C2724 1.376 . S
C2725 C2726 1.388 . S
C2726 H2713 0.930 . S
C2726 C2725 1.388 . S
C2726 C2727 1.390 . S
C2727 C2726 1.390 . S
C2727 C2728 1.394 . S
C2727 C2733 1.465 . S
C2728 C2723 1.399 . S
C2728 C2727 1.394 . S
C2728 C2729 1.516 . S
C2729 C2728 1.516 . S
C2729 C2730 1.502 . S
C2729 C2731 1.561 . S
C2729 C2732 1.526 . S
C2730 H2714 0.959 . S
C2730 H2715 0.959 . S
C2730 H2716 0.961 . S
C2730 C2729 1.502 . S
C2731 H2717 0.960 . S
C2731 H2718 0.961 . S
C2731 H2719 0.959 . S
C2731 C2729 1.561 . S
C2732 C2729 1.526 . S
C2732 C2733 1.396 . S
C2732 C2737 1.390 . S
C2733 C2727 1.465 . S
C2733 C2732 1.396 . S
C2733 C2734 1.399 . S
C2734 H2720 0.929 . S
C2734 C2733 1.399 . S
C2734 C2735 1.385 . S
C2735 H2721 0.931 . S
C2735 C2734 1.385 . S
C2735 C2736 1.389 . S
C2736 C2735 1.389 . S
C2736 C2737 1.387 . S
C2737 H2722 0.930 . S
C2737 C2732 1.390 . S
C2737 C2736 1.387 . S
H2738 C2750 0.930 . S
H2739 C2752 0.930 . S
H2740 C2753 0.930 . S
H2741 C2757 0.959 . S
H2742 C2757 0.959 . S
H2743 C2757 0.961 . S
H2744 C2758 0.960 . S
H2745 C2758 0.961 . S
H2746 C2758 0.959 . S
H2747 C2761 0.929 . S
H2748 C2762 0.931 . S
H2749 C2764 0.930 . S
C2750 H2738 0.930 . S
C2750 C2751 1.399 . S
C2750 C2755 1.399 . S
C2751 C2750 1.399 . S
C2751 C2752 1.376 . S
C2752 H2739 0.930 . S
C2752 C2751 1.376 . S
C2752 C2753 1.388 . S
C2753 H2740 0.930 . S
C2753 C2752 1.388 . S
C2753 C2754 1.390 . S
C2754 C2753 1.390 . S
C2754 C2755 1.394 . S
C2754 C2760 1.465 . S
C2755 C2750 1.399 . S
C2755 C2754 1.394 . S
C2755 C2756 1.516 . S
C2756 C2755 1.516 . S
C2756 C2757 1.502 . S
C2756 C2758 1.561 . S
C2756 C2759 1.526 . S
C2757 H2741 0.959 . S
C2757 H2742 0.959 . S
C2757 H2743 0.961 . S
C2757 C2756 1.502 . S
C2758 H2744 0.960 . S
C2758 H2745 0.961 . S
C2758 H2746 0.959 . S
C2758 C2756 1.561 . S
C2759 C2756 1.526 . S
C2759 C2760 1.396 . S
C2759 C2764 1.390 . S
C2760 C2754 1.465 . S
C2760 C2759 1.396 . S
C2760 C2761 1.399 . S
C2761 H2747 0.929 . S
C2761 C2760 1.399 . S
C2761 C2762 1.385 . S
C2762 H2748 0.931 . S
C2762 C2761 1.385 . S
C2762 C2763 1.389 . S
C2763 C2762 1.389 . S
C2763 C2764 1.387 . S
C2764 H2749 0.930 . S
C2764 C2759 1.390 . S
C2764 C2763 1.387 . S
H2765 C2777 0.930 . S
H2766 C2779 0.930 . S
H2767 C2780 0.930 . S
H2768 C2784 0.959 . S
H2769 C2784 0.959 . S
H2770 C2784 0.961 . S
H2771 C2785 0.960 . S
H2772 C2785 0.961 . S
H2773 C2785 0.959 . S
H2774 C2788 0.929 . S
H2775 C2789 0.931 . S
H2776 C2791 0.930 . S
C2777 H2765 0.930 . S
C2777 C2778 1.399 . S
C2777 C2782 1.399 . S
C2778 C2777 1.399 . S
C2778 C2779 1.376 . S
C2779 H2766 0.930 . S
C2779 C2778 1.376 . S
C2779 C2780 1.388 . S
C2780 H2767 0.930 . S
C2780 C2779 1.388 . S
C2780 C2781 1.390 . S
C2781 C2780 1.390 . S
C2781 C2782 1.394 . S
C2781 C2787 1.465 . S
C2782 C2777 1.399 . S
C2782 C2781 1.394 . S
C2782 C2783 1.516 . S
C2783 C2782 1.516 . S
C2783 C2784 1.502 . S
C2783 C2785 1.561 . S
C2783 C2786 1.526 . S
C2784 H2768 0.959 . S
C2784 H2769 0.959 . S
C2784 H2770 0.961 . S
C2784 C2783 1.502 . S
C2785 H2771 0.960 . S
C2785 H2772 0.961 . S
C2785 H2773 0.959 . S
C2785 C2783 1.561 . S
C2786 C2783 1.526 . S
C2786 C2787 1.396 . S
C2786 C2791 1.390 . S
C2787 C2781 1.465 . S
C2787 C2786 1.396 . S
C2787 C2788 1.399 . S
C2788 H2774 0.929 . S
C2788 C2787 1.399 . S
C2788 C2789 1.385 . S
C2789 H2775 0.931 . S
C2789 C2788 1.385 . S
C2789 C2790 1.389 . S
C2790 C2789 1.389 . S
C2790 C2791 1.387 . S
C2791 H2776 0.930 . S
C2791 C2786 1.390 . S
C2791 C2790 1.387 . S
H2792 C2804 0.930 . S
H2793 C2806 0.930 . S
H2794 C2807 0.930 . S
H2795 C2811 0.959 . S
H2796 C2811 0.959 . S
H2797 C2811 0.961 . S
H2798 C2812 0.960 . S
H2799 C2812 0.961 . S
H2800 C2812 0.959 . S
H2801 C2815 0.929 . S
H2802 C2816 0.931 . S
H2803 C2818 0.930 . S
C2804 H2792 0.930 . S
C2804 C2805 1.399 . S
C2804 C2809 1.399 . S
C2805 C2804 1.399 . S
C2805 C2806 1.376 . S
C2806 H2793 0.930 . S
C2806 C2805 1.376 . S
C2806 C2807 1.388 . S
C2807 H2794 0.930 . S
C2807 C2806 1.388 . S
C2807 C2808 1.390 . S
C2808 C2807 1.390 . S
C2808 C2809 1.394 . S
C2808 C2814 1.465 . S
C2809 C2804 1.399 . S
C2809 C2808 1.394 . S
C2809 C2810 1.516 . S
C2810 C2809 1.516 . S
C2810 C2811 1.502 . S
C2810 C2812 1.561 . S
C2810 C2813 1.526 . S
C2811 H2795 0.959 . S
C2811 H2796 0.959 . S
C2811 H2797 0.961 . S
C2811 C2810 1.502 . S
C2812 H2798 0.960 . S
C2812 H2799 0.961 . S
C2812 H2800 0.959 . S
C2812 C2810 1.561 . S
C2813 C2810 1.526 . S
C2813 C2814 1.396 . S
C2813 C2818 1.390 . S
C2814 C2808 1.465 . S
C2814 C2813 1.396 . S
C2814 C2815 1.399 . S
C2815 H2801 0.929 . S
C2815 C2814 1.399 . S
C2815 C2816 1.385 . S
C2816 H2802 0.931 . S
C2816 C2815 1.385 . S
C2816 C2817 1.389 . S
C2817 C2816 1.389 . S
C2817 C2818 1.387 . S
C2818 H2803 0.930 . S
C2818 C2813 1.390 . S
C2818 C2817 1.387 . S
H2819 C2831 0.930 . S
H2820 C2833 0.930 . S
H2821 C2834 0.930 . S
H2822 C2838 0.959 . S
H2823 C2838 0.959 . S
H2824 C2838 0.961 . S
H2825 C2839 0.960 . S
H2826 C2839 0.961 . S
H2827 C2839 0.959 . S
H2828 C2842 0.929 . S
H2829 C2843 0.931 . S
H2830 C2845 0.930 . S
C2831 H2819 0.930 . S
C2831 C2832 1.399 . S
C2831 C2836 1.399 . S
C2832 C2831 1.399 . S
C2832 C2833 1.376 . S
C2833 H2820 0.930 . S
C2833 C2832 1.376 . S
C2833 C2834 1.388 . S
C2834 H2821 0.930 . S
C2834 C2833 1.388 . S
C2834 C2835 1.390 . S
C2835 C2834 1.390 . S
C2835 C2836 1.394 . S
C2835 C2841 1.465 . S
C2836 C2831 1.399 . S
C2836 C2835 1.394 . S
C2836 C2837 1.516 . S
C2837 C2836 1.516 . S
C2837 C2838 1.502 . S
C2837 C2839 1.561 . S
C2837 C2840 1.526 . S
C2838 H2822 0.959 . S
C2838 H2823 0.959 . S
C2838 H2824 0.961 . S
C2838 C2837 1.502 . S
C2839 H2825 0.960 . S
C2839 H2826 0.961 . S
C2839 H2827 0.959 . S
C2839 C2837 1.561 . S
C2840 C2837 1.526 . S
C2840 C2841 1.396 . S
C2840 C2845 1.390 . S
C2841 C2835 1.465 . S
C2841 C2840 1.396 . S
C2841 C2842 1.399 . S
C2842 H2828 0.929 . S
C2842 C2841 1.399 . S
C2842 C2843 1.385 . S
C2843 H2829 0.931 . S
C2843 C2842 1.385 . S
C2843 C2844 1.389 . S
C2844 C2843 1.389 . S
C2844 C2845 1.387 . S
C2845 H2830 0.930 . S
C2845 C2840 1.390 . S
C2845 C2844 1.387 . S
H2846 C2858 0.930 . S
H2847 C2860 0.930 . S
H2848 C2861 0.930 . S
H2849 C2865 0.959 . S
H2850 C2865 0.959 . S
H2851 C2865 0.961 . S
H2852 C2866 0.960 . S
H2853 C2866 0.961 . S
H2854 C2866 0.959 . S
H2855 C2869 0.929 . S
H2856 C2870 0.931 . S
H2857 C2872 0.930 . S
C2858 H2846 0.930 . S
C2858 C2859 1.399 . S
C2858 C2863 1.399 . S
C2859 C2858 1.399 . S
C2859 C2860 1.376 . S
C2860 H2847 0.930 . S
C2860 C2859 1.376 . S
C2860 C2861 1.388 . S
C2861 H2848 0.930 . S
C2861 C2860 1.388 . S
C2861 C2862 1.390 . S
C2862 C2861 1.390 . S
C2862 C2863 1.394 . S
C2862 C2868 1.465 . S
C2863 C2858 1.399 . S
C2863 C2862 1.394 . S
C2863 C2864 1.516 . S
C2864 C2863 1.516 . S
C2864 C2865 1.502 . S
C2864 C2866 1.561 . S
C2864 C2867 1.526 . S
C2865 H2849 0.959 . S
C2865 H2850 0.959 . S
C2865 H2851 0.961 . S
C2865 C2864 1.502 . S
C2866 H2852 0.960 . S
C2866 H2853 0.961 . S
C2866 H2854 0.959 . S
C2866 C2864 1.561 . S
C2867 C2864 1.526 . S
C2867 C2868 1.396 . S
C2867 C2872 1.390 . S
C2868 C2862 1.465 . S
C2868 C2867 1.396 . S
C2868 C2869 1.399 . S
C2869 H2855 0.929 . S
C2869 C2868 1.399 . S
C2869 C2870 1.385 . S
C2870 H2856 0.931 . S
C2870 C2869 1.385 . S
C2870 C2871 1.389 . S
C2871 C2870 1.389 . S
C2871 C2872 1.387 . S
C2872 H2857 0.930 . S
C2872 C2867 1.390 . S
C2872 C2871 1.387 . S
H2873 C2885 0.930 . S
H2874 C2887 0.930 . S
H2875 C2888 0.930 . S
H2876 C2892 0.959 . S
H2877 C2892 0.959 . S
H2878 C2892 0.961 . S
H2879 C2893 0.960 . S
H2880 C2893 0.961 . S
H2881 C2893 0.959 . S
H2882 C2896 0.929 . S
H2883 C2897 0.931 . S
H2884 C2899 0.930 . S
C2885 H2873 0.930 . S
C2885 C2886 1.399 . S
C2885 C2890 1.399 . S
C2886 C2885 1.399 . S
C2886 C2887 1.376 . S
C2887 H2874 0.930 . S
C2887 C2886 1.376 . S
C2887 C2888 1.388 . S
C2888 H2875 0.930 . S
C2888 C2887 1.388 . S
C2888 C2889 1.390 . S
C2889 C2888 1.390 . S
C2889 C2890 1.394 . S
C2889 C2895 1.465 . S
C2890 C2885 1.399 . S
C2890 C2889 1.394 . S
C2890 C2891 1.516 . S
C2891 C2890 1.516 . S
C2891 C2892 1.502 . S
C2891 C2893 1.561 . S
C2891 C2894 1.526 . S
C2892 H2876 0.959 . S
C2892 H2877 0.959 . S
C2892 H2878 0.961 . S
C2892 C2891 1.502 . S
C2893 H2879 0.960 . S
C2893 H2880 0.961 . S
C2893 H2881 0.959 . S
C2893 C2891 1.561 . S
C2894 C2891 1.526 . S
C2894 C2895 1.396 . S
C2894 C2899 1.390 . S
C2895 C2889 1.465 . S
C2895 C2894 1.396 . S
C2895 C2896 1.399 . S
C2896 H2882 0.929 . S
C2896 C2895 1.399 . S
C2896 C2897 1.385 . S
C2897 H2883 0.931 . S
C2897 C2896 1.385 . S
C2897 C2898 1.389 . S
C2898 C2897 1.389 . S
C2898 C2899 1.387 . S
C2899 H2884 0.930 . S
C2899 C2894 1.390 . S
C2899 C2898 1.387 . S
H2900 C2912 0.930 . S
H2901 C2914 0.930 . S
H2902 C2915 0.930 . S
H2903 C2919 0.959 . S
H2904 C2919 0.959 . S
H2905 C2919 0.961 . S
H2906 C2920 0.960 . S
H2907 C2920 0.961 . S
H2908 C2920 0.959 . S
H2909 C2923 0.929 . S
H2910 C2924 0.931 . S
H2911 C2926 0.930 . S
C2912 H2900 0.930 . S
C2912 C2913 1.399 . S
C2912 C2917 1.399 . S
C2913 C2912 1.399 . S
C2913 C2914 1.376 . S
C2914 H2901 0.930 . S
C2914 C2913 1.376 . S
C2914 C2915 1.388 . S
C2915 H2902 0.930 . S
C2915 C2914 1.388 . S
C2915 C2916 1.390 . S
C2916 C2915 1.390 . S
C2916 C2917 1.394 . S
C2916 C2922 1.465 . S
C2917 C2912 1.399 . S
C2917 C2916 1.394 . S
C2917 C2918 1.516 . S
C2918 C2917 1.516 . S
C2918 C2919 1.502 . S
C2918 C2920 1.561 . S
C2918 C2921 1.526 . S
C2919 H2903 0.959 . S
C2919 H2904 0.959 . S
C2919 H2905 0.961 . S
C2919 C2918 1.502 . S
C2920 H2906 0.960 . S
C2920 H2907 0.961 . S
C2920 H2908 0.959 . S
C2920 C2918 1.561 . S
C2921 C2918 1.526 . S
C2921 C2922 1.396 . S
C2921 C2926 1.390 . S
C2922 C2916 1.465 . S
C2922 C2921 1.396 . S
C2922 C2923 1.399 . S
C2923 H2909 0.929 . S
C2923 C2922 1.399 . S
C2923 C2924 1.385 . S
C2924 H2910 0.931 . S
C2924 C2923 1.385 . S
C2924 C2925 1.389 . S
C2925 C2924 1.389 . S
C2925 C2926 1.387 . S
C2926 H2911 0.930 . S
C2926 C2921 1.390 . S
C2926 C2925 1.387 . S
H2927 C2939 0.930 . S
H2928 C2941 0.930 . S
H2929 C2942 0.930 . S
H2930 C2946 0.959 . S
H2931 C2946 0.959 . S
H2932 C2946 0.961 . S
H2933 C2947 0.960 . S
H2934 C2947 0.961 . S
H2935 C2947 0.959 . S
H2936 C2950 0.929 . S
H2937 C2951 0.931 . S
H2938 C2953 0.930 . S
C2939 H2927 0.930 . S
C2939 C2940 1.399 . S
C2939 C2944 1.399 . S
C2940 C2939 1.399 . S
C2940 C2941 1.376 . S
C2941 H2928 0.930 . S
C2941 C2940 1.376 . S
C2941 C2942 1.388 . S
C2942 H2929 0.930 . S
C2942 C2941 1.388 . S
C2942 C2943 1.390 . S
C2943 C2942 1.390 . S
C2943 C2944 1.394 . S
C2943 C2949 1.465 . S
C2944 C2939 1.399 . S
C2944 C2943 1.394 . S
C2944 C2945 1.516 . S
C2945 C2944 1.516 . S
C2945 C2946 1.502 . S
C2945 C2947 1.561 . S
C2945 C2948 1.526 . S
C2946 H2930 0.959 . S
C2946 H2931 0.959 . S
C2946 H2932 0.961 . S
C2946 C2945 1.502 . S
C2947 H2933 0.960 . S
C2947 H2934 0.961 . S
C2947 H2935 0.959 . S
C2947 C2945 1.561 . S
C2948 C2945 1.526 . S
C2948 C2949 1.396 . S
C2948 C2953 1.390 . S
C2949 C2943 1.465 . S
C2949 C2948 1.396 . S
C2949 C2950 1.399 . S
C2950 H2936 0.929 . S
C2950 C2949 1.399 . S
C2950 C2951 1.385 . S
C2951 H2937 0.931 . S
C2951 C2950 1.385 . S
C2951 C2952 1.389 . S
C2952 C2951 1.389 . S
C2952 C2953 1.387 . S
C2953 H2938 0.930 . S
C2953 C2948 1.390 . S
C2953 C2952 1.387 . S
H2954 C2966 0.930 . S
H2955 C2968 0.930 . S
H2956 C2969 0.930 . S
H2957 C2973 0.959 . S
H2958 C2973 0.959 . S
H2959 C2973 0.961 . S
H2960 C2974 0.960 . S
H2961 C2974 0.961 . S
H2962 C2974 0.959 . S
H2963 C2977 0.929 . S
H2964 C2978 0.931 . S
H2965 C2980 0.930 . S
C2966 H2954 0.930 . S
C2966 C2967 1.399 . S
C2966 C2971 1.399 . S
C2967 C2966 1.399 . S
C2967 C2968 1.376 . S
C2968 H2955 0.930 . S
C2968 C2967 1.376 . S
C2968 C2969 1.388 . S
C2969 H2956 0.930 . S
C2969 C2968 1.388 . S
C2969 C2970 1.390 . S
C2970 C2969 1.390 . S
C2970 C2971 1.394 . S
C2970 C2976 1.465 . S
C2971 C2966 1.399 . S
C2971 C2970 1.394 . S
C2971 C2972 1.516 . S
C2972 C2971 1.516 . S
C2972 C2973 1.502 . S
C2972 C2974 1.561 . S
C2972 C2975 1.526 . S
C2973 H2957 0.959 . S
C2973 H2958 0.959 . S
C2973 H2959 0.961 . S
C2973 C2972 1.502 . S
C2974 H2960 0.960 . S
C2974 H2961 0.961 . S
C2974 H2962 0.959 . S
C2974 C2972 1.561 . S
C2975 C2972 1.526 . S
C2975 C2976 1.396 . S
C2975 C2980 1.390 . S
C2976 C2970 1.465 . S
C2976 C2975 1.396 . S
C2976 C2977 1.399 . S
C2977 H2963 0.929 . S
C2977 C2976 1.399 . S
C2977 C2978 1.385 . S
C2978 H2964 0.931 . S
C2978 C2977 1.385 . S
C2978 C2979 1.389 . S
C2979 C2978 1.389 . S
C2979 C2980 1.387 . S
C2980 H2965 0.930 . S
C2980 C2975 1.390 . S
C2980 C2979 1.387 . S
H2981 C2993 0.930 . S
H2982 C2995 0.930 . S
H2983 C2996 0.930 . S
H2984 C3000 0.959 . S
H2985 C3000 0.959 . S
H2986 C3000 0.961 . S
H2987 C3001 0.960 . S
H2988 C3001 0.961 . S
H2989 C3001 0.959 . S
H2990 C3004 0.929 . S
H2991 C3005 0.931 . S
H2992 C3007 0.930 . S
C2993 H2981 0.930 . S
C2993 C2994 1.399 . S
C2993 C2998 1.399 . S
C2994 C2993 1.399 . S
C2994 C2995 1.376 . S
C2995 H2982 0.930 . S
C2995 C2994 1.376 . S
C2995 C2996 1.388 . S
C2996 H2983 0.930 . S
C2996 C2995 1.388 . S
C2996 C2997 1.390 . S
C2997 C2996 1.390 . S
C2997 C2998 1.394 . S
C2997 C3003 1.465 . S
C2998 C2993 1.399 . S
C2998 C2997 1.394 . S
C2998 C2999 1.516 . S
C2999 C2998 1.516 . S
C2999 C3000 1.502 . S
C2999 C3001 1.561 . S
C2999 C3002 1.526 . S
C3000 H2984 0.959 . S
C3000 H2985 0.959 . S
C3000 H2986 0.961 . S
C3000 C2999 1.502 . S
C3001 H2987 0.960 . S
C3001 H2988 0.961 . S
C3001 H2989 0.959 . S
C3001 C2999 1.561 . S
C3002 C2999 1.526 . S
C3002 C3003 1.396 . S
C3002 C3007 1.390 . S
C3003 C2997 1.465 . S
C3003 C3002 1.396 . S
C3003 C3004 1.399 . S
C3004 H2990 0.929 . S
C3004 C3003 1.399 . S
C3004 C3005 1.385 . S
C3005 H2991 0.931 . S
C3005 C3004 1.385 . S
C3005 C3006 1.389 . S
C3006 C3005 1.389 . S
C3006 C3007 1.387 . S
C3007 H2992 0.930 . S
C3007 C3002 1.390 . S
C3007 C3006 1.387 . S
H3008 C3020 0.930 . S
H3009 C3022 0.930 . S
H3010 C3023 0.930 . S
H3011 C3027 0.959 . S
H3012 C3027 0.959 . S
H3013 C3027 0.961 . S
H3014 C3028 0.960 . S
H3015 C3028 0.961 . S
H3016 C3028 0.959 . S
H3017 C3031 0.929 . S
H3018 C3032 0.931 . S
H3019 C3034 0.930 . S
C3020 H3008 0.930 . S
C3020 C3021 1.399 . S
C3020 C3025 1.399 . S
C3021 C3020 1.399 . S
C3021 C3022 1.376 . S
C3022 H3009 0.930 . S
C3022 C3021 1.376 . S
C3022 C3023 1.388 . S
C3023 H3010 0.930 . S
C3023 C3022 1.388 . S
C3023 C3024 1.390 . S
C3024 C3023 1.390 . S
C3024 C3025 1.394 . S
C3024 C3030 1.465 . S
C3025 C3020 1.399 . S
C3025 C3024 1.394 . S
C3025 C3026 1.516 . S
C3026 C3025 1.516 . S
C3026 C3027 1.502 . S
C3026 C3028 1.561 . S
C3026 C3029 1.526 . S
C3027 H3011 0.959 . S
C3027 H3012 0.959 . S
C3027 H3013 0.961 . S
C3027 C3026 1.502 . S
C3028 H3014 0.960 . S
C3028 H3015 0.961 . S
C3028 H3016 0.959 . S
C3028 C3026 1.561 . S
C3029 C3026 1.526 . S
C3029 C3030 1.396 . S
C3029 C3034 1.390 . S
C3030 C3024 1.465 . S
C3030 C3029 1.396 . S
C3030 C3031 1.399 . S
C3031 H3017 0.929 . S
C3031 C3030 1.399 . S
C3031 C3032 1.385 . S
C3032 H3018 0.931 . S
C3032 C3031 1.385 . S
C3032 C3033 1.389 . S
C3033 C3032 1.389 . S
C3033 C3034 1.387 . S
C3034 H3019 0.930 . S
C3034 C3029 1.390 . S
C3034 C3033 1.387 . S
H3035 C3047 0.930 . S
H3036 C3049 0.930 . S
H3037 C3050 0.930 . S
H3038 C3054 0.959 . S
H3039 C3054 0.959 . S
H3040 C3054 0.961 . S
H3041 C3055 0.960 . S
H3042 C3055 0.961 . S
H3043 C3055 0.959 . S
H3044 C3058 0.929 . S
H3045 C3059 0.931 . S
H3046 C3061 0.930 . S
C3047 H3035 0.930 . S
C3047 C3048 1.399 . S
C3047 C3052 1.399 . S
C3048 C3047 1.399 . S
C3048 C3049 1.376 . S
C3049 H3036 0.930 . S
C3049 C3048 1.376 . S
C3049 C3050 1.388 . S
C3050 H3037 0.930 . S
C3050 C3049 1.388 . S
C3050 C3051 1.390 . S
C3051 C3050 1.390 . S
C3051 C3052 1.394 . S
C3051 C3057 1.465 . S
C3052 C3047 1.399 . S
C3052 C3051 1.394 . S
C3052 C3053 1.516 . S
C3053 C3052 1.516 . S
C3053 C3054 1.502 . S
C3053 C3055 1.561 . S
C3053 C3056 1.526 . S
C3054 H3038 0.959 . S
C3054 H3039 0.959 . S
C3054 H3040 0.961 . S
C3054 C3053 1.502 . S
C3055 H3041 0.960 . S
C3055 H3042 0.961 . S
C3055 H3043 0.959 . S
C3055 C3053 1.561 . S
C3056 C3053 1.526 . S
C3056 C3057 1.396 . S
C3056 C3061 1.390 . S
C3057 C3051 1.465 . S
C3057 C3056 1.396 . S
C3057 C3058 1.399 . S
C3058 H3044 0.929 . S
C3058 C3057 1.399 . S
C3058 C3059 1.385 . S
C3059 H3045 0.931 . S
C3059 C3058 1.385 . S
C3059 C3060 1.389 . S
C3060 C3059 1.389 . S
C3060 C3061 1.387 . S
C3061 H3046 0.930 . S
C3061 C3056 1.390 . S
C3061 C3060 1.387 . S
H3062 C3074 0.930 . S
H3063 C3076 0.930 . S
H3064 C3077 0.930 . S
H3065 C3081 0.959 . S
H3066 C3081 0.959 . S
H3067 C3081 0.961 . S
H3068 C3082 0.960 . S
H3069 C3082 0.961 . S
H3070 C3082 0.959 . S
H3071 C3085 0.929 . S
H3072 C3086 0.931 . S
H3073 C3088 0.930 . S
C3074 H3062 0.930 . S
C3074 C3075 1.399 . S
C3074 C3079 1.399 . S
C3075 C3074 1.399 . S
C3075 C3076 1.376 . S
C3076 H3063 0.930 . S
C3076 C3075 1.376 . S
C3076 C3077 1.388 . S
C3077 H3064 0.930 . S
C3077 C3076 1.388 . S
C3077 C3078 1.390 . S
C3078 C3077 1.390 . S
C3078 C3079 1.394 . S
C3078 C3084 1.465 . S
C3079 C3074 1.399 . S
C3079 C3078 1.394 . S
C3079 C3080 1.516 . S
C3080 C3079 1.516 . S
C3080 C3081 1.502 . S
C3080 C3082 1.561 . S
C3080 C3083 1.526 . S
C3081 H3065 0.959 . S
C3081 H3066 0.959 . S
C3081 H3067 0.961 . S
C3081 C3080 1.502 . S
C3082 H3068 0.960 . S
C3082 H3069 0.961 . S
C3082 H3070 0.959 . S
C3082 C3080 1.561 . S
C3083 C3080 1.526 . S
C3083 C3084 1.396 . S
C3083 C3088 1.390 . S
C3084 C3078 1.465 . S
C3084 C3083 1.396 . S
C3084 C3085 1.399 . S
C3085 H3071 0.929 . S
C3085 C3084 1.399 . S
C3085 C3086 1.385 . S
C3086 H3072 0.931 . S
C3086 C3085 1.385 . S
C3086 C3087 1.389 . S
C3087 C3086 1.389 . S
C3087 C3088 1.387 . S
C3088 H3073 0.930 . S
C3088 C3083 1.390 . S
C3088 C3087 1.387 . S
H3089 C3101 0.930 . S
H3090 C3103 0.930 . S
H3091 C3104 0.930 . S
H3092 C3108 0.959 . S
H3093 C3108 0.959 . S
H3094 C3108 0.961 . S
H3095 C3109 0.960 . S
H3096 C3109 0.961 . S
H3097 C3109 0.959 . S
H3098 C3112 0.929 . S
H3099 C3113 0.931 . S
H3100 C3115 0.930 . S
C3101 H3089 0.930 . S
C3101 C3102 1.399 . S
C3101 C3106 1.399 . S
C3102 C3101 1.399 . S
C3102 C3103 1.376 . S
C3103 H3090 0.930 . S
C3103 C3102 1.376 . S
C3103 C3104 1.388 . S
C3104 H3091 0.930 . S
C3104 C3103 1.388 . S
C3104 C3105 1.390 . S
C3105 C3104 1.390 . S
C3105 C3106 1.394 . S
C3105 C3111 1.465 . S
C3106 C3101 1.399 . S
C3106 C3105 1.394 . S
C3106 C3107 1.516 . S
C3107 C3106 1.516 . S
C3107 C3108 1.502 . S
C3107 C3109 1.561 . S
C3107 C3110 1.526 . S
C3108 H3092 0.959 . S
C3108 H3093 0.959 . S
C3108 H3094 0.961 . S
C3108 C3107 1.502 . S
C3109 H3095 0.960 . S
C3109 H3096 0.961 . S
C3109 H3097 0.959 . S
C3109 C3107 1.561 . S
C3110 C3107 1.526 . S
C3110 C3111 1.396 . S
C3110 C3115 1.390 . S
C3111 C3105 1.465 . S
C3111 C3110 1.396 . S
C3111 C3112 1.399 . S
C3112 H3098 0.929 . S
C3112 C3111 1.399 . S
C3112 C3113 1.385 . S
C3113 H3099 0.931 . S
C3113 C3112 1.385 . S
C3113 C3114 1.389 . S
C3114 C3113 1.389 . S
C3114 C3115 1.387 . S
C3115 H3100 0.930 . S
C3115 C3110 1.390 . S
C3115 C3114 1.387 . S
H3116 C3128 0.930 . S
H3117 C3130 0.930 . S
H3118 C3131 0.930 . S
H3119 C3135 0.959 . S
H3120 C3135 0.959 . S
H3121 C3135 0.961 . S
H3122 C3136 0.960 . S
H3123 C3136 0.961 . S
H3124 C3136 0.959 . S
H3125 C3139 0.929 . S
H3126 C3140 0.931 . S
H3127 C3142 0.930 . S
C3128 H3116 0.930 . S
C3128 C3129 1.399 . S
C3128 C3133 1.399 . S
C3129 C3128 1.399 . S
C3129 C3130 1.376 . S
C3130 H3117 0.930 . S
C3130 C3129 1.376 . S
C3130 C3131 1.388 . S
C3131 H3118 0.930 . S
C3131 C3130 1.388 . S
C3131 C3132 1.390 . S
C3132 C3131 1.390 . S
C3132 C3133 1.394 . S
C3132 C3138 1.465 . S
C3133 C3128 1.399 . S
C3133 C3132 1.394 . S
C3133 C3134 1.516 . S
C3134 C3133 1.516 . S
C3134 C3135 1.502 . S
C3134 C3136 1.561 . S
C3134 C3137 1.526 . S
C3135 H3119 0.959 . S
C3135 H3120 0.959 . S
C3135 H3121 0.961 . S
C3135 C3134 1.502 . S
C3136 H3122 0.960 . S
C3136 H3123 0.961 . S
C3136 H3124 0.959 . S
C3136 C3134 1.561 . S
C3137 C3134 1.526 . S
C3137 C3138 1.396 . S
C3137 C3142 1.390 . S
C3138 C3132 1.465 . S
C3138 C3137 1.396 . S
C3138 C3139 1.399 . S
C3139 H3125 0.929 . S
C3139 C3138 1.399 . S
C3139 C3140 1.385 . S
C3140 H3126 0.931 . S
C3140 C3139 1.385 . S
C3140 C3141 1.389 . S
C3141 C3140 1.389 . S
C3141 C3142 1.387 . S
C3142 H3127 0.930 . S
C3142 C3137 1.390 . S
C3142 C3141 1.387 . S
H3143 C3155 0.930 . S
H3144 C3157 0.930 . S
H3145 C3158 0.930 . S
H3146 C3162 0.959 . S
H3147 C3162 0.959 . S
H3148 C3162 0.961 . S
H3149 C3163 0.960 . S
H3150 C3163 0.961 . S
H3151 C3163 0.959 . S
H3152 C3166 0.929 . S
H3153 C3167 0.931 . S
H3154 C3169 0.930 . S
C3155 H3143 0.930 . S
C3155 C3156 1.399 . S
C3155 C3160 1.399 . S
C3156 C3155 1.399 . S
C3156 C3157 1.376 . S
C3157 H3144 0.930 . S
C3157 C3156 1.376 . S
C3157 C3158 1.388 . S
C3158 H3145 0.930 . S
C3158 C3157 1.388 . S
C3158 C3159 1.390 . S
C3159 C3158 1.390 . S
C3159 C3160 1.394 . S
C3159 C3165 1.465 . S
C3160 C3155 1.399 . S
C3160 C3159 1.394 . S
C3160 C3161 1.516 . S
C3161 C3160 1.516 . S
C3161 C3162 1.502 . S
C3161 C3163 1.561 . S
C3161 C3164 1.526 . S
C3162 H3146 0.959 . S
C3162 H3147 0.959 . S
C3162 H3148 0.961 . S
C3162 C3161 1.502 . S
C3163 H3149 0.960 . S
C3163 H3150 0.961 . S
C3163 H3151 0.959 . S
C3163 C3161 1.561 . S
C3164 C3161 1.526 . S
C3164 C3165 1.396 . S
C3164 C3169 1.390 . S
C3165 C3159 1.465 . S
C3165 C3164 1.396 . S
C3165 C3166 1.399 . S
C3166 H3152 0.929 . S
C3166 C3165 1.399 . S
C3166 C3167 1.385 . S
C3167 H3153 0.931 . S
C3167 C3166 1.385 . S
C3167 C3168 1.389 . S
C3168 C3167 1.389 . S
C3168 C3169 1.387 . S
C3169 H3154 0.930 . S
C3169 C3164 1.390 . S
C3169 C3168 1.387 . S
H3170 C3182 0.930 . S
H3171 C3184 0.930 . S
H3172 C3185 0.930 . S
H3173 C3189 0.959 . S
H3174 C3189 0.959 . S
H3175 C3189 0.961 . S
H3176 C3190 0.960 . S
H3177 C3190 0.961 . S
H3178 C3190 0.959 . S
H3179 C3193 0.929 . S
H3180 C3194 0.931 . S
H3181 C3196 0.930 . S
C3182 H3170 0.930 . S
C3182 C3183 1.399 . S
C3182 C3187 1.399 . S
C3183 C3182 1.399 . S
C3183 C3184 1.376 . S
C3184 H3171 0.930 . S
C3184 C3183 1.376 . S
C3184 C3185 1.388 . S
C3185 H3172 0.930 . S
C3185 C3184 1.388 . S
C3185 C3186 1.390 . S
C3186 C3185 1.390 . S
C3186 C3187 1.394 . S
C3186 C3192 1.465 . S
C3187 C3182 1.399 . S
C3187 C3186 1.394 . S
C3187 C3188 1.516 . S
C3188 C3187 1.516 . S
C3188 C3189 1.502 . S
C3188 C3190 1.561 . S
C3188 C3191 1.526 . S
C3189 H3173 0.959 . S
C3189 H3174 0.959 . S
C3189 H3175 0.961 . S
C3189 C3188 1.502 . S
C3190 H3176 0.960 . S
C3190 H3177 0.961 . S
C3190 H3178 0.959 . S
C3190 C3188 1.561 . S
C3191 C3188 1.526 . S
C3191 C3192 1.396 . S
C3191 C3196 1.390 . S
C3192 C3186 1.465 . S
C3192 C3191 1.396 . S
C3192 C3193 1.399 . S
C3193 H3179 0.929 . S
C3193 C3192 1.399 . S
C3193 C3194 1.385 . S
C3194 H3180 0.931 . S
C3194 C3193 1.385 . S
C3194 C3195 1.389 . S
C3195 C3194 1.389 . S
C3195 C3196 1.387 . S
C3196 H3181 0.930 . S
C3196 C3191 1.390 . S
C3196 C3195 1.387 . S
H3197 C3209 0.930 . S
H3198 C3211 0.930 . S
H3199 C3212 0.930 . S
H3200 C3216 0.959 . S
H3201 C3216 0.959 . S
H3202 C3216 0.961 . S
H3203 C3217 0.960 . S
H3204 C3217 0.961 . S
H3205 C3217 0.959 . S
H3206 C3220 0.929 . S
H3207 C3221 0.931 . S
H3208 C3223 0.930 . S
C3209 H3197 0.930 . S
C3209 C3210 1.399 . S
C3209 C3214 1.399 . S
C3210 C3209 1.399 . S
C3210 C3211 1.376 . S
C3211 H3198 0.930 . S
C3211 C3210 1.376 . S
C3211 C3212 1.388 . S
C3212 H3199 0.930 . S
C3212 C3211 1.388 . S
C3212 C3213 1.390 . S
C3213 C3212 1.390 . S
C3213 C3214 1.394 . S
C3213 C3219 1.465 . S
C3214 C3209 1.399 . S
C3214 C3213 1.394 . S
C3214 C3215 1.516 . S
C3215 C3214 1.516 . S
C3215 C3216 1.502 . S
C3215 C3217 1.561 . S
C3215 C3218 1.526 . S
C3216 H3200 0.959 . S
C3216 H3201 0.959 . S
C3216 H3202 0.961 . S
C3216 C3215 1.502 . S
C3217 H3203 0.960 . S
C3217 H3204 0.961 . S
C3217 H3205 0.959 . S
C3217 C3215 1.561 . S
C3218 C3215 1.526 . S
C3218 C3219 1.396 . S
C3218 C3223 1.390 . S
C3219 C3213 1.465 . S
C3219 C3218 1.396 . S
C3219 C3220 1.399 . S
C3220 H3206 0.929 . S
C3220 C3219 1.399 . S
C3220 C3221 1.385 . S
C3221 H3207 0.931 . S
C3221 C3220 1.385 . S
C3221 C3222 1.389 . S
C3222 C3221 1.389 . S
C3222 C3223 1.387 . S
C3223 H3208 0.930 . S
C3223 C3218 1.390 . S
C3223 C3222 1.387 . S
H3224 C3236 0.930 . S
H3225 C3238 0.930 . S
H3226 C3239 0.930 . S
H3227 C3243 0.959 . S
H3228 C3243 0.959 . S
H3229 C3243 0.961 . S
H3230 C3244 0.960 . S
H3231 C3244 0.961 . S
H3232 C3244 0.959 . S
H3233 C3247 0.929 . S
H3234 C3248 0.931 . S
H3235 C3250 0.930 . S
C3236 H3224 0.930 . S
C3236 C3237 1.399 . S
C3236 C3241 1.399 . S
C3237 C3236 1.399 . S
C3237 C3238 1.376 . S
C3238 H3225 0.930 . S
C3238 C3237 1.376 . S
C3238 C3239 1.388 . S
C3239 H3226 0.930 . S
C3239 C3238 1.388 . S
C3239 C3240 1.390 . S
C3240 C3239 1.390 . S
C3240 C3241 1.394 . S
C3240 C3246 1.465 . S
C3241 C3236 1.399 . S
C3241 C3240 1.394 . S
C3241 C3242 1.516 . S
C3242 C3241 1.516 . S
C3242 C3243 1.502 . S
C3242 C3244 1.561 . S
C3242 C3245 1.526 . S
C3243 H3227 0.959 . S
C3243 H3228 0.959 . S
C3243 H3229 0.961 . S
C3243 C3242 1.502 . S
C3244 H3230 0.960 . S
C3244 H3231 0.961 . S
C3244 H3232 0.959 . S
C3244 C3242 1.561 . S
C3245 C3242 1.526 . S
C3245 C3246 1.396 . S
C3245 C3250 1.390 . S
C3246 C3240 1.465 . S
C3246 C3245 1.396 . S
C3246 C3247 1.399 . S
C3247 H3233 0.929 . S
C3247 C3246 1.399 . S
C3247 C3248 1.385 . S
C3248 H3234 0.931 . S
C3248 C3247 1.385 . S
C3248 C3249 1.389 . S
C3249 C3248 1.389 . S
C3249 C3250 1.387 . S
C3250 H3235 0.930 . S
C3250 C3245 1.390 . S
C3250 C3249 1.387 . S
H3251 C3263 0.930 . S
H3252 C3265 0.930 . S
H3253 C3266 0.930 . S
H3254 C3270 0.959 . S
H3255 C3270 0.959 . S
H3256 C3270 0.961 . S
H3257 C3271 0.960 . S
H3258 C3271 0.961 . S
H3259 C3271 0.959 . S
H3260 C3274 0.929 . S
H3261 C3275 0.931 . S
H3262 C3277 0.930 . S
C3263 H3251 0.930 . S
C3263 C3264 1.399 . S
C3263 C3268 1.399 . S
C3264 C3263 1.399 . S
C3264 C3265 1.376 . S
C3265 H3252 0.930 . S
C3265 C3264 1.376 . S
C3265 C3266 1.388 . S
C3266 H3253 0.930 . S
C3266 C3265 1.388 . S
C3266 C3267 1.390 . S
C3267 C3266 1.390 . S
C3267 C3268 1.394 . S
C3267 C3273 1.465 . S
C3268 C3263 1.399 . S
C3268 C3267 1.394 . S
C3268 C3269 1.516 . S
C3269 C3268 1.516 . S
C3269 C3270 1.502 . S
C3269 C3271 1.561 . S
C3269 C3272 1.526 . S
C3270 H3254 0.959 . S
C3270 H3255 0.959 . S
C3270 H3256 0.961 . S
C3270 C3269 1.502 . S
C3271 H3257 0.960 . S
C3271 H3258 0.961 . S
C3271 H3259 0.959 . S
C3271 C3269 1.561 . S
C3272 C3269 1.526 . S
C3272 C3273 1.396 . S
C3272 C3277 1.390 . S
C3273 C3267 1.465 . S
C3273 C3272 1.396 . S
C3273 C3274 1.399 . S
C3274 H3260 0.929 . S
C3274 C3273 1.399 . S
C3274 C3275 1.385 . S
C3275 H3261 0.931 . S
C3275 C3274 1.385 . S
C3275 C3276 1.389 . S
C3276 C3275 1.389 . S
C3276 C3277 1.387 . S
C3277 H3262 0.930 . S
C3277 C3272 1.390 . S
C3277 C3276 1.387 . S
H3278 C3290 0.930 . S
H3279 C3292 0.930 . S
H3280 C3293 0.930 . S
H3281 C3297 0.959 . S
H3282 C3297 0.959 . S
H3283 C3297 0.961 . S
H3284 C3298 0.960 . S
H3285 C3298 0.961 . S
H3286 C3298 0.959 . S
H3287 C3301 0.929 . S
H3288 C3302 0.931 . S
H3289 C3304 0.930 . S
C3290 H3278 0.930 . S
C3290 C3291 1.399 . S
C3290 C3295 1.399 . S
C3291 C3290 1.399 . S
C3291 C3292 1.376 . S
C3292 H3279 0.930 . S
C3292 C3291 1.376 . S
C3292 C3293 1.388 . S
C3293 H3280 0.930 . S
C3293 C3292 1.388 . S
C3293 C3294 1.390 . S
C3294 C3293 1.390 . S
C3294 C3295 1.394 . S
C3294 C3300 1.465 . S
C3295 C3290 1.399 . S
C3295 C3294 1.394 . S
C3295 C3296 1.516 . S
C3296 C3295 1.516 . S
C3296 C3297 1.502 . S
C3296 C3298 1.561 . S
C3296 C3299 1.526 . S
C3297 H3281 0.959 . S
C3297 H3282 0.959 . S
C3297 H3283 0.961 . S
C3297 C3296 1.502 . S
C3298 H3284 0.960 . S
C3298 H3285 0.961 . S
C3298 H3286 0.959 . S
C3298 C3296 1.561 . S
C3299 C3296 1.526 . S
C3299 C3300 1.396 . S
C3299 C3304 1.390 . S
C3300 C3294 1.465 . S
C3300 C3299 1.396 . S
C3300 C3301 1.399 . S
C3301 H3287 0.929 . S
C3301 C3300 1.399 . S
C3301 C3302 1.385 . S
C3302 H3288 0.931 . S
C3302 C3301 1.385 . S
C3302 C3303 1.389 . S
C3303 C3302 1.389 . S
C3303 C3304 1.387 . S
C3304 H3289 0.930 . S
C3304 C3299 1.390 . S
C3304 C3303 1.387 . S
H3305 C3317 0.930 . S
H3306 C3319 0.930 . S
H3307 C3320 0.930 . S
H3308 C3324 0.959 . S
H3309 C3324 0.959 . S
H3310 C3324 0.961 . S
H3311 C3325 0.960 . S
H3312 C3325 0.961 . S
H3313 C3325 0.959 . S
H3314 C3328 0.929 . S
H3315 C3329 0.931 . S
H3316 C3331 0.930 . S
C3317 H3305 0.930 . S
C3317 C3318 1.399 . S
C3317 C3322 1.399 . S
C3318 C3317 1.399 . S
C3318 C3319 1.376 . S
C3319 H3306 0.930 . S
C3319 C3318 1.376 . S
C3319 C3320 1.388 . S
C3320 H3307 0.930 . S
C3320 C3319 1.388 . S
C3320 C3321 1.390 . S
C3321 C3320 1.390 . S
C3321 C3322 1.394 . S
C3321 C3327 1.465 . S
C3322 C3317 1.399 . S
C3322 C3321 1.394 . S
C3322 C3323 1.516 . S
C3323 C3322 1.516 . S
C3323 C3324 1.502 . S
C3323 C3325 1.561 . S
C3323 C3326 1.526 . S
C3324 H3308 0.959 . S
C3324 H3309 0.959 . S
C3324 H3310 0.961 . S
C3324 C3323 1.502 . S
C3325 H3311 0.960 . S
C3325 H3312 0.961 . S
C3325 H3313 0.959 . S
C3325 C3323 1.561 . S
C3326 C3323 1.526 . S
C3326 C3327 1.396 . S
C3326 C3331 1.390 . S
C3327 C3321 1.465 . S
C3327 C3326 1.396 . S
C3327 C3328 1.399 . S
C3328 H3314 0.929 . S
C3328 C3327 1.399 . S
C3328 C3329 1.385 . S
C3329 H3315 0.931 . S
C3329 C3328 1.385 . S
C3329 C3330 1.389 . S
C3330 C3329 1.389 . S
C3330 C3331 1.387 . S
C3331 H3316 0.930 . S
C3331 C3326 1.390 . S
C3331 C3330 1.387 . S
H3332 C3344 0.930 . S
H3333 C3346 0.930 . S
H3334 C3347 0.930 . S
H3335 C3351 0.959 . S
H3336 C3351 0.959 . S
H3337 C3351 0.961 . S
H3338 C3352 0.960 . S
H3339 C3352 0.961 . S
H3340 C3352 0.959 . S
H3341 C3355 0.929 . S
H3342 C3356 0.931 . S
H3343 C3358 0.930 . S
C3344 H3332 0.930 . S
C3344 C3345 1.399 . S
C3344 C3349 1.399 . S
C3345 C3344 1.399 . S
C3345 C3346 1.376 . S
C3346 H3333 0.930 . S
C3346 C3345 1.376 . S
C3346 C3347 1.388 . S
C3347 H3334 0.930 . S
C3347 C3346 1.388 . S
C3347 C3348 1.390 . S
C3348 C3347 1.390 . S
C3348 C3349 1.394 . S
C3348 C3354 1.465 . S
C3349 C3344 1.399 . S
C3349 C3348 1.394 . S
C3349 C3350 1.516 . S
C3350 C3349 1.516 . S
C3350 C3351 1.502 . S
C3350 C3352 1.561 . S
C3350 C3353 1.526 . S
C3351 H3335 0.959 . S
C3351 H3336 0.959 . S
C3351 H3337 0.961 . S
C3351 C3350 1.502 . S
C3352 H3338 0.960 . S
C3352 H3339 0.961 . S
C3352 H3340 0.959 . S
C3352 C3350 1.561 . S
C3353 C3350 1.526 . S
C3353 C3354 1.396 . S
C3353 C3358 1.390 . S
C3354 C3348 1.465 . S
C3354 C3353 1.396 . S
C3354 C3355 1.399 . S
C3355 H3341 0.929 . S
C3355 C3354 1.399 . S
C3355 C3356 1.385 . S
C3356 H3342 0.931 . S
C3356 C3355 1.385 . S
C3356 C3357 1.389 . S
C3357 C3356 1.389 . S
C3357 C3358 1.387 . S
C3358 H3343 0.930 . S
C3358 C3353 1.390 . S
C3358 C3357 1.387 . S
H3359 C3371 0.930 . S
H3360 C3373 0.930 . S
H3361 C3374 0.930 . S
H3362 C3378 0.959 . S
H3363 C3378 0.959 . S
H3364 C3378 0.961 . S
H3365 C3379 0.960 . S
H3366 C3379 0.961 . S
H3367 C3379 0.959 . S
H3368 C3382 0.929 . S
H3369 C3383 0.931 . S
H3370 C3385 0.930 . S
C3371 H3359 0.930 . S
C3371 C3372 1.399 . S
C3371 C3376 1.399 . S
C3372 C3371 1.399 . S
C3372 C3373 1.376 . S
C3373 H3360 0.930 . S
C3373 C3372 1.376 . S
C3373 C3374 1.388 . S
C3374 H3361 0.930 . S
C3374 C3373 1.388 . S
C3374 C3375 1.390 . S
C3375 C3374 1.390 . S
C3375 C3376 1.394 . S
C3375 C3381 1.465 . S
C3376 C3371 1.399 . S
C3376 C3375 1.394 . S
C3376 C3377 1.516 . S
C3377 C3376 1.516 . S
C3377 C3378 1.502 . S
C3377 C3379 1.561 . S
C3377 C3380 1.526 . S
C3378 H3362 0.959 . S
C3378 H3363 0.959 . S
C3378 H3364 0.961 . S
C3378 C3377 1.502 . S
C3379 H3365 0.960 . S
C3379 H3366 0.961 . S
C3379 H3367 0.959 . S
C3379 C3377 1.561 . S
C3380 C3377 1.526 . S
C3380 C3381 1.396 . S
C3380 C3385 1.390 . S
C3381 C3375 1.465 . S
C3381 C3380 1.396 . S
C3381 C3382 1.399 . S
C3382 H3368 0.929 . S
C3382 C3381 1.399 . S
C3382 C3383 1.385 . S
C3383 H3369 0.931 . S
C3383 C3382 1.385 . S
C3383 C3384 1.389 . S
C3384 C3383 1.389 . S
C3384 C3385 1.387 . S
C3385 H3370 0.930 . S
C3385 C3380 1.390 . S
C3385 C3384 1.387 . S
H3386 C3398 0.930 . S
H3387 C3400 0.930 . S
H3388 C3401 0.930 . S
H3389 C3405 0.959 . S
H3390 C3405 0.959 . S
H3391 C3405 0.961 . S
H3392 C3406 0.960 . S
H3393 C3406 0.961 . S
H3394 C3406 0.959 . S
H3395 C3409 0.929 . S
H3396 C3410 0.931 . S
H3397 C3412 0.930 . S
C3398 H3386 0.930 . S
C3398 C3399 1.399 . S
C3398 C3403 1.399 . S
C3399 C3398 1.399 . S
C3399 C3400 1.376 . S
C3400 H3387 0.930 . S
C3400 C3399 1.376 . S
C3400 C3401 1.388 . S
C3401 H3388 0.930 . S
C3401 C3400 1.388 . S
C3401 C3402 1.390 . S
C3402 C3401 1.390 . S
C3402 C3403 1.394 . S
C3402 C3408 1.465 . S
C3403 C3398 1.399 . S
C3403 C3402 1.394 . S
C3403 C3404 1.516 . S
C3404 C3403 1.516 . S
C3404 C3405 1.502 . S
C3404 C3406 1.561 . S
C3404 C3407 1.526 . S
C3405 H3389 0.959 . S
C3405 H3390 0.959 . S
C3405 H3391 0.961 . S
C3405 C3404 1.502 . S
C3406 H3392 0.960 . S
C3406 H3393 0.961 . S
C3406 H3394 0.959 . S
C3406 C3404 1.561 . S
C3407 C3404 1.526 . S
C3407 C3408 1.396 . S
C3407 C3412 1.390 . S
C3408 C3402 1.465 . S
C3408 C3407 1.396 . S
C3408 C3409 1.399 . S
C3409 H3395 0.929 . S
C3409 C3408 1.399 . S
C3409 C3410 1.385 . S
C3410 H3396 0.931 . S
C3410 C3409 1.385 . S
C3410 C3411 1.389 . S
C3411 C3410 1.389 . S
C3411 C3412 1.387 . S
C3412 H3397 0.930 . S
C3412 C3407 1.390 . S
C3412 C3411 1.387 . S
H3413 C3425 0.930 . S
H3414 C3427 0.930 . S
H3415 C3428 0.930 . S
H3416 C3432 0.959 . S
H3417 C3432 0.959 . S
H3418 C3432 0.961 . S
H3419 C3433 0.960 . S
H3420 C3433 0.961 . S
H3421 C3433 0.959 . S
H3422 C3436 0.929 . S
H3423 C3437 0.931 . S
H3424 C3439 0.930 . S
C3425 H3413 0.930 . S
C3425 C3426 1.399 . S
C3425 C3430 1.399 . S
C3426 C3425 1.399 . S
C3426 C3427 1.376 . S
C3427 H3414 0.930 . S
C3427 C3426 1.376 . S
C3427 C3428 1.388 . S
C3428 H3415 0.930 . S
C3428 C3427 1.388 . S
C3428 C3429 1.390 . S
C3429 C3428 1.390 . S
C3429 C3430 1.394 . S
C3429 C3435 1.465 . S
C3430 C3425 1.399 . S
C3430 C3429 1.394 . S
C3430 C3431 1.516 . S
C3431 C3430 1.516 . S
C3431 C3432 1.502 . S
C3431 C3433 1.561 . S
C3431 C3434 1.526 . S
C3432 H3416 0.959 . S
C3432 H3417 0.959 . S
C3432 H3418 0.961 . S
C3432 C3431 1.502 . S
C3433 H3419 0.960 . S
C3433 H3420 0.961 . S
C3433 H3421 0.959 . S
C3433 C3431 1.561 . S
C3434 C3431 1.526 . S
C3434 C3435 1.396 . S
C3434 C3439 1.390 . S
C3435 C3429 1.465 . S
C3435 C3434 1.396 . S
C3435 C3436 1.399 . S
C3436 H3422 0.929 . S
C3436 C3435 1.399 . S
C3436 C3437 1.385 . S
C3437 H3423 0.931 . S
C3437 C3436 1.385 . S
C3437 C3438 1.389 . S
C3438 C3437 1.389 . S
C3438 C3439 1.387 . S
C3439 H3424 0.930 . S
C3439 C3434 1.390 . S
C3439 C3438 1.387 . S
H3440 C3452 0.930 . S
H3441 C3454 0.930 . S
H3442 C3455 0.930 . S
H3443 C3459 0.959 . S
H3444 C3459 0.959 . S
H3445 C3459 0.961 . S
H3446 C3460 0.960 . S
H3447 C3460 0.961 . S
H3448 C3460 0.959 . S
H3449 C3463 0.929 . S
H3450 C3464 0.931 . S
H3451 C3466 0.930 . S
C3452 H3440 0.930 . S
C3452 C3453 1.399 . S
C3452 C3457 1.399 . S
C3453 C3452 1.399 . S
C3453 C3454 1.376 . S
C3454 H3441 0.930 . S
C3454 C3453 1.376 . S
C3454 C3455 1.388 . S
C3455 H3442 0.930 . S
C3455 C3454 1.388 . S
C3455 C3456 1.390 . S
C3456 C3455 1.390 . S
C3456 C3457 1.394 . S
C3456 C3462 1.465 . S
C3457 C3452 1.399 . S
C3457 C3456 1.394 . S
C3457 C3458 1.516 . S
C3458 C3457 1.516 . S
C3458 C3459 1.502 . S
C3458 C3460 1.561 . S
C3458 C3461 1.526 . S
C3459 H3443 0.959 . S
C3459 H3444 0.959 . S
C3459 H3445 0.961 . S
C3459 C3458 1.502 . S
C3460 H3446 0.960 . S
C3460 H3447 0.961 . S
C3460 H3448 0.959 . S
C3460 C3458 1.561 . S
C3461 C3458 1.526 . S
C3461 C3462 1.396 . S
C3461 C3466 1.390 . S
C3462 C3456 1.465 . S
C3462 C3461 1.396 . S
C3462 C3463 1.399 . S
C3463 H3449 0.929 . S
C3463 C3462 1.399 . S
C3463 C3464 1.385 . S
C3464 H3450 0.931 . S
C3464 C3463 1.385 . S
C3464 C3465 1.389 . S
C3465 C3464 1.389 . S
C3465 C3466 1.387 . S
C3466 H3451 0.930 . S
C3466 C3461 1.390 . S
C3466 C3465 1.387 . S
H3467 C3479 0.930 . S
H3468 C3481 0.930 . S
H3469 C3482 0.930 . S
H3470 C3486 0.959 . S
H3471 C3486 0.959 . S
H3472 C3486 0.961 . S
H3473 C3487 0.960 . S
H3474 C3487 0.961 . S
H3475 C3487 0.959 . S
H3476 C3490 0.929 . S
H3477 C3491 0.931 . S
H3478 C3493 0.930 . S
C3479 H3467 0.930 . S
C3479 C3480 1.399 . S
C3479 C3484 1.399 . S
C3480 C3479 1.399 . S
C3480 C3481 1.376 . S
C3481 H3468 0.930 . S
C3481 C3480 1.376 . S
C3481 C3482 1.388 . S
C3482 H3469 0.930 . S
C3482 C3481 1.388 . S
C3482 C3483 1.390 . S
C3483 C3482 1.390 . S
C3483 C3484 1.394 . S
C3483 C3489 1.465 . S
C3484 C3479 1.399 . S
C3484 C3483 1.394 . S
C3484 C3485 1.516 . S
C3485 C3484 1.516 . S
C3485 C3486 1.502 . S
C3485 C3487 1.561 . S
C3485 C3488 1.526 . S
C3486 H3470 0.959 . S
C3486 H3471 0.959 . S
C3486 H3472 0.961 . S
C3486 C3485 1.502 . S
C3487 H3473 0.960 . S
C3487 H3474 0.961 . S
C3487 H3475 0.959 . S
C3487 C3485 1.561 . S
C3488 C3485 1.526 . S
C3488 C3489 1.396 . S
C3488 C3493 1.390 . S
C3489 C3483 1.465 . S
C3489 C3488 1.396 . S
C3489 C3490 1.399 . S
C3490 H3476 0.929 . S
C3490 C3489 1.399 . S
C3490 C3491 1.385 . S
C3491 H3477 0.931 . S
C3491 C3490 1.385 . S
C3491 C3492 1.389 . S
C3492 C3491 1.389 . S
C3492 C3493 1.387 . S
C3493 H3478 0.930 . S
C3493 C3488 1.390 . S
C3493 C3492 1.387 . S
H3494 C3506 0.930 . S
H3495 C3508 0.930 . S
H3496 C3509 0.930 . S
H3497 C3513 0.959 . S
H3498 C3513 0.959 . S
H3499 C3513 0.961 . S
H3500 C3514 0.960 . S
H3501 C3514 0.961 . S
H3502 C3514 0.959 . S
H3503 C3517 0.929 . S
H3504 C3518 0.931 . S
H3505 C3520 0.930 . S
C3506 H3494 0.930 . S
C3506 C3507 1.399 . S
C3506 C3511 1.399 . S
C3507 C3506 1.399 . S
C3507 C3508 1.376 . S
C3508 H3495 0.930 . S
C3508 C3507 1.376 . S
C3508 C3509 1.388 . S
C3509 H3496 0.930 . S
C3509 C3508 1.388 . S
C3509 C3510 1.390 . S
C3510 C3509 1.390 . S
C3510 C3511 1.394 . S
C3510 C3516 1.465 . S
C3511 C3506 1.399 . S
C3511 C3510 1.394 . S
C3511 C3512 1.516 . S
C3512 C3511 1.516 . S
C3512 C3513 1.502 . S
C3512 C3514 1.561 . S
C3512 C3515 1.526 . S
C3513 H3497 0.959 . S
C3513 H3498 0.959 . S
C3513 H3499 0.961 . S
C3513 C3512 1.502 . S
C3514 H3500 0.960 . S
C3514 H3501 0.961 . S
C3514 H3502 0.959 . S
C3514 C3512 1.561 . S
C3515 C3512 1.526 . S
C3515 C3516 1.396 . S
C3515 C3520 1.390 . S
C3516 C3510 1.465 . S
C3516 C3515 1.396 . S
C3516 C3517 1.399 . S
C3517 H3503 0.929 . S
C3517 C3516 1.399 . S
C3517 C3518 1.385 . S
C3518 H3504 0.931 . S
C3518 C3517 1.385 . S
C3518 C3519 1.389 . S
C3519 C3518 1.389 . S
C3519 C3520 1.387 . S
C3520 H3505 0.930 . S
C3520 C3515 1.390 . S
C3520 C3519 1.387 . S
H3521 C3533 0.930 . S
H3522 C3535 0.930 . S
H3523 C3536 0.930 . S
H3524 C3540 0.959 . S
H3525 C3540 0.959 . S
H3526 C3540 0.961 . S
H3527 C3541 0.960 . S
H3528 C3541 0.961 . S
H3529 C3541 0.959 . S
H3530 C3544 0.929 . S
H3531 C3545 0.931 . S
H3532 C3547 0.930 . S
C3533 H3521 0.930 . S
C3533 C3534 1.399 . S
C3533 C3538 1.399 . S
C3534 C3533 1.399 . S
C3534 C3535 1.376 . S
C3535 H3522 0.930 . S
C3535 C3534 1.376 . S
C3535 C3536 1.388 . S
C3536 H3523 0.930 . S
C3536 C3535 1.388 . S
C3536 C3537 1.390 . S
C3537 C3536 1.390 . S
C3537 C3538 1.394 . S
C3537 C3543 1.465 . S
C3538 C3533 1.399 . S
C3538 C3537 1.394 . S
C3538 C3539 1.516 . S
C3539 C3538 1.516 . S
C3539 C3540 1.502 . S
C3539 C3541 1.561 . S
C3539 C3542 1.526 . S
C3540 H3524 0.959 . S
C3540 H3525 0.959 . S
C3540 H3526 0.961 . S
C3540 C3539 1.502 . S
C3541 H3527 0.960 . S
C3541 H3528 0.961 . S
C3541 H3529 0.959 . S
C3541 C3539 1.561 . S
C3542 C3539 1.526 . S
C3542 C3543 1.396 . S
C3542 C3547 1.390 . S
C3543 C3537 1.465 . S
C3543 C3542 1.396 . S
C3543 C3544 1.399 . S
C3544 H3530 0.929 . S
C3544 C3543 1.399 . S
C3544 C3545 1.385 . S
C3545 H3531 0.931 . S
C3545 C3544 1.385 . S
C3545 C3546 1.389 . S
C3546 C3545 1.389 . S
C3546 C3547 1.387 . S
C3547 H3532 0.930 . S
C3547 C3542 1.390 . S
C3547 C3546 1.387 . S
H3548 C3560 0.930 . S
H3549 C3562 0.930 . S
H3550 C3563 0.930 . S
H3551 C3567 0.959 . S
H3552 C3567 0.959 . S
H3553 C3567 0.961 . S
H3554 C3568 0.960 . S
H3555 C3568 0.961 . S
H3556 C3568 0.959 . S
H3557 C3571 0.929 . S
H3558 C3572 0.931 . S
H3559 C3574 0.930 . S
C3560 H3548 0.930 . S
C3560 C3561 1.399 . S
C3560 C3565 1.399 . S
C3561 C3560 1.399 . S
C3561 C3562 1.376 . S
C3562 H3549 0.930 . S
C3562 C3561 1.376 . S
C3562 C3563 1.388 . S
C3563 H3550 0.930 . S
C3563 C3562 1.388 . S
C3563 C3564 1.390 . S
C3564 C3563 1.390 . S
C3564 C3565 1.394 . S
C3564 C3570 1.465 . S
C3565 C3560 1.399 . S
C3565 C3564 1.394 . S
C3565 C3566 1.516 . S
C3566 C3565 1.516 . S
C3566 C3567 1.502 . S
C3566 C3568 1.561 . S
C3566 C3569 1.526 . S
C3567 H3551 0.959 . S
C3567 H3552 0.959 . S
C3567 H3553 0.961 . S
C3567 C3566 1.502 . S
C3568 H3554 0.960 . S
C3568 H3555 0.961 . S
C3568 H3556 0.959 . S
C3568 C3566 1.561 . S
C3569 C3566 1.526 . S
C3569 C3570 1.396 . S
C3569 C3574 1.390 . S
C3570 C3564 1.465 . S
C3570 C3569 1.396 . S
C3570 C3571 1.399 . S
C3571 H3557 0.929 . S
C3571 C3570 1.399 . S
C3571 C3572 1.385 . S
C3572 H3558 0.931 . S
C3572 C3571 1.385 . S
C3572 C3573 1.389 . S
C3573 C3572 1.389 . S
C3573 C3574 1.387 . S
C3574 H3559 0.930 . S
C3574 C3569 1.390 . S
C3574 C3573 1.387 . S
H3575 C3587 0.930 . S
H3576 C3589 0.930 . S
H3577 C3590 0.930 . S
H3578 C3594 0.959 . S
H3579 C3594 0.959 . S
H3580 C3594 0.961 . S
H3581 C3595 0.960 . S
H3582 C3595 0.961 . S
H3583 C3595 0.959 . S
H3584 C3598 0.929 . S
H3585 C3599 0.931 . S
H3586 C3601 0.930 . S
C3587 H3575 0.930 . S
C3587 C3588 1.399 . S
C3587 C3592 1.399 . S
C3588 C3587 1.399 . S
C3588 C3589 1.376 . S
C3589 H3576 0.930 . S
C3589 C3588 1.376 . S
C3589 C3590 1.388 . S
C3590 H3577 0.930 . S
C3590 C3589 1.388 . S
C3590 C3591 1.390 . S
C3591 C3590 1.390 . S
C3591 C3592 1.394 . S
C3591 C3597 1.465 . S
C3592 C3587 1.399 . S
C3592 C3591 1.394 . S
C3592 C3593 1.516 . S
C3593 C3592 1.516 . S
C3593 C3594 1.502 . S
C3593 C3595 1.561 . S
C3593 C3596 1.526 . S
C3594 H3578 0.959 . S
C3594 H3579 0.959 . S
C3594 H3580 0.961 . S
C3594 C3593 1.502 . S
C3595 H3581 0.960 . S
C3595 H3582 0.961 . S
C3595 H3583 0.959 . S
C3595 C3593 1.561 . S
C3596 C3593 1.526 . S
C3596 C3597 1.396 . S
C3596 C3601 1.390 . S
C3597 C3591 1.465 . S
C3597 C3596 1.396 . S
C3597 C3598 1.399 . S
C3598 H3584 0.929 . S
C3598 C3597 1.399 . S
C3598 C3599 1.385 . S
C3599 H3585 0.931 . S
C3599 C3598 1.385 . S
C3599 C3600 1.389 . S
C3600 C3599 1.389 . S
C3600 C3601 1.387 . S
C3601 H3586 0.930 . S
C3601 C3596 1.390 . S
C3601 C3600 1.387 . S
H3602 C3614 0.930 . S
H3603 C3616 0.930 . S
H3604 C3617 0.930 . S
H3605 C3621 0.959 . S
H3606 C3621 0.959 . S
H3607 C3621 0.961 . S
H3608 C3622 0.960 . S
H3609 C3622 0.961 . S
H3610 C3622 0.959 . S
H3611 C3625 0.929 . S
H3612 C3626 0.931 . S
H3613 C3628 0.930 . S
C3614 H3602 0.930 . S
C3614 C3615 1.399 . S
C3614 C3619 1.399 . S
C3615 C3614 1.399 . S
C3615 C3616 1.376 . S
C3616 H3603 0.930 . S
C3616 C3615 1.376 . S
C3616 C3617 1.388 . S
C3617 H3604 0.930 . S
C3617 C3616 1.388 . S
C3617 C3618 1.390 . S
C3618 C3617 1.390 . S
C3618 C3619 1.394 . S
C3618 C3624 1.465 . S
C3619 C3614 1.399 . S
C3619 C3618 1.394 . S
C3619 C3620 1.516 . S
C3620 C3619 1.516 . S
C3620 C3621 1.502 . S
C3620 C3622 1.561 . S
C3620 C3623 1.526 . S
C3621 H3605 0.959 . S
C3621 H3606 0.959 . S
C3621 H3607 0.961 . S
C3621 C3620 1.502 . S
C3622 H3608 0.960 . S
C3622 H3609 0.961 . S
C3622 H3610 0.959 . S
C3622 C3620 1.561 . S
C3623 C3620 1.526 . S
C3623 C3624 1.396 . S
C3623 C3628 1.390 . S
C3624 C3618 1.465 . S
C3624 C3623 1.396 . S
C3624 C3625 1.399 . S
C3625 H3611 0.929 . S
C3625 C3624 1.399 . S
C3625 C3626 1.385 . S
C3626 H3612 0.931 . S
C3626 C3625 1.385 . S
C3626 C3627 1.389 . S
C3627 C3626 1.389 . S
C3627 C3628 1.387 . S
C3628 H3613 0.930 . S
C3628 C3623 1.390 . S
C3628 C3627 1.387 . S
H3629 C3641 0.930 . S
H3630 C3643 0.930 . S
H3631 C3644 0.930 . S
H3632 C3648 0.959 . S
H3633 C3648 0.959 . S
H3634 C3648 0.961 . S
H3635 C3649 0.960 . S
H3636 C3649 0.961 . S
H3637 C3649 0.959 . S
H3638 C3652 0.929 . S
H3639 C3653 0.931 . S
H3640 C3655 0.930 . S
C3641 H3629 0.930 . S
C3641 C3642 1.399 . S
C3641 C3646 1.399 . S
C3642 C3641 1.399 . S
C3642 C3643 1.376 . S
C3643 H3630 0.930 . S
C3643 C3642 1.376 . S
C3643 C3644 1.388 . S
C3644 H3631 0.930 . S
C3644 C3643 1.388 . S
C3644 C3645 1.390 . S
C3645 C3644 1.390 . S
C3645 C3646 1.394 . S
C3645 C3651 1.465 . S
C3646 C3641 1.399 . S
C3646 C3645 1.394 . S
C3646 C3647 1.516 . S
C3647 C3646 1.516 . S
C3647 C3648 1.502 . S
C3647 C3649 1.561 . S
C3647 C3650 1.526 . S
C3648 H3632 0.959 . S
C3648 H3633 0.959 . S
C3648 H3634 0.961 . S
C3648 C3647 1.502 . S
C3649 H3635 0.960 . S
C3649 H3636 0.961 . S
C3649 H3637 0.959 . S
C3649 C3647 1.561 . S
C3650 C3647 1.526 . S
C3650 C3651 1.396 . S
C3650 C3655 1.390 . S
C3651 C3645 1.465 . S
C3651 C3650 1.396 . S
C3651 C3652 1.399 . S
C3652 H3638 0.929 . S
C3652 C3651 1.399 . S
C3652 C3653 1.385 . S
C3653 H3639 0.931 . S
C3653 C3652 1.385 . S
C3653 C3654 1.389 . S
C3654 C3653 1.389 . S
C3654 C3655 1.387 . S
C3655 H3640 0.930 . S
C3655 C3650 1.390 . S
C3655 C3654 1.387 . S
H3656 C3668 0.930 . S
H3657 C3670 0.930 . S
H3658 C3671 0.930 . S
H3659 C3675 0.959 . S
H3660 C3675 0.959 . S
H3661 C3675 0.961 . S
H3662 C3676 0.960 . S
H3663 C3676 0.961 . S
H3664 C3676 0.959 . S
H3665 C3679 0.929 . S
H3666 C3680 0.931 . S
H3667 C3682 0.930 . S
C3668 H3656 0.930 . S
C3668 C3669 1.399 . S
C3668 C3673 1.399 . S
C3669 C3668 1.399 . S
C3669 C3670 1.376 . S
C3670 H3657 0.930 . S
C3670 C3669 1.376 . S
C3670 C3671 1.388 . S
C3671 H3658 0.930 . S
C3671 C3670 1.388 . S
C3671 C3672 1.390 . S
C3672 C3671 1.390 . S
C3672 C3673 1.394 . S
C3672 C3678 1.465 . S
C3673 C3668 1.399 . S
C3673 C3672 1.394 . S
C3673 C3674 1.516 . S
C3674 C3673 1.516 . S
C3674 C3675 1.502 . S
C3674 C3676 1.561 . S
C3674 C3677 1.526 . S
C3675 H3659 0.959 . S
C3675 H3660 0.959 . S
C3675 H3661 0.961 . S
C3675 C3674 1.502 . S
C3676 H3662 0.960 . S
C3676 H3663 0.961 . S
C3676 H3664 0.959 . S
C3676 C3674 1.561 . S
C3677 C3674 1.526 . S
C3677 C3678 1.396 . S
C3677 C3682 1.390 . S
C3678 C3672 1.465 . S
C3678 C3677 1.396 . S
C3678 C3679 1.399 . S
C3679 H3665 0.929 . S
C3679 C3678 1.399 . S
C3679 C3680 1.385 . S
C3680 H3666 0.931 . S
C3680 C3679 1.385 . S
C3680 C3681 1.389 . S
C3681 C3680 1.389 . S
C3681 C3682 1.387 . S
C3682 H3667 0.930 . S
C3682 C3677 1.390 . S
C3682 C3681 1.387 . S
H3683 C3695 0.930 . S
H3684 C3697 0.930 . S
H3685 C3698 0.930 . S
H3686 C3702 0.959 . S
H3687 C3702 0.959 . S
H3688 C3702 0.961 . S
H3689 C3703 0.960 . S
H3690 C3703 0.961 . S
H3691 C3703 0.959 . S
H3692 C3706 0.929 . S
H3693 C3707 0.931 . S
H3694 C3709 0.930 . S
C3695 H3683 0.930 . S
C3695 C3696 1.399 . S
C3695 C3700 1.399 . S
C3696 C3695 1.399 . S
C3696 C3697 1.376 . S
C3697 H3684 0.930 . S
C3697 C3696 1.376 . S
C3697 C3698 1.388 . S
C3698 H3685 0.930 . S
C3698 C3697 1.388 . S
C3698 C3699 1.390 . S
C3699 C3698 1.390 . S
C3699 C3700 1.394 . S
C3699 C3705 1.465 . S
C3700 C3695 1.399 . S
C3700 C3699 1.394 . S
C3700 C3701 1.516 . S
C3701 C3700 1.516 . S
C3701 C3702 1.502 . S
C3701 C3703 1.561 . S
C3701 C3704 1.526 . S
C3702 H3686 0.959 . S
C3702 H3687 0.959 . S
C3702 H3688 0.961 . S
C3702 C3701 1.502 . S
C3703 H3689 0.960 . S
C3703 H3690 0.961 . S
C3703 H3691 0.959 . S
C3703 C3701 1.561 . S
C3704 C3701 1.526 . S
C3704 C3705 1.396 . S
C3704 C3709 1.390 . S
C3705 C3699 1.465 . S
C3705 C3704 1.396 . S
C3705 C3706 1.399 . S
C3706 H3692 0.929 . S
C3706 C3705 1.399 . S
C3706 C3707 1.385 . S
C3707 H3693 0.931 . S
C3707 C3706 1.385 . S
C3707 C3708 1.389 . S
C3708 C3707 1.389 . S
C3708 C3709 1.387 . S
C3709 H3694 0.930 . S
C3709 C3704 1.390 . S
C3709 C3708 1.387 . S
H3710 C3722 0.930 . S
H3711 C3724 0.930 . S
H3712 C3725 0.930 . S
H3713 C3729 0.959 . S
H3714 C3729 0.959 . S
H3715 C3729 0.961 . S
H3716 C3730 0.960 . S
H3717 C3730 0.961 . S
H3718 C3730 0.959 . S
H3719 C3733 0.929 . S
H3720 C3734 0.931 . S
H3721 C3736 0.930 . S
C3722 H3710 0.930 . S
C3722 C3723 1.399 . S
C3722 C3727 1.399 . S
C3723 C3722 1.399 . S
C3723 C3724 1.376 . S
C3724 H3711 0.930 . S
C3724 C3723 1.376 . S
C3724 C3725 1.388 . S
C3725 H3712 0.930 . S
C3725 C3724 1.388 . S
C3725 C3726 1.390 . S
C3726 C3725 1.390 . S
C3726 C3727 1.394 . S
C3726 C3732 1.465 . S
C3727 C3722 1.399 . S
C3727 C3726 1.394 . S
C3727 C3728 1.516 . S
C3728 C3727 1.516 . S
C3728 C3729 1.502 . S
C3728 C3730 1.561 . S
C3728 C3731 1.526 . S
C3729 H3713 0.959 . S
C3729 H3714 0.959 . S
C3729 H3715 0.961 . S
C3729 C3728 1.502 . S
C3730 H3716 0.960 . S
C3730 H3717 0.961 . S
C3730 H3718 0.959 . S
C3730 C3728 1.561 . S
C3731 C3728 1.526 . S
C3731 C3732 1.396 . S
C3731 C3736 1.390 . S
C3732 C3726 1.465 . S
C3732 C3731 1.396 . S
C3732 C3733 1.399 . S
C3733 H3719 0.929 . S
C3733 C3732 1.399 . S
C3733 C3734 1.385 . S
C3734 H3720 0.931 . S
C3734 C3733 1.385 . S
C3734 C3735 1.389 . S
C3735 C3734 1.389 . S
C3735 C3736 1.387 . S
C3736 H3721 0.930 . S
C3736 C3731 1.390 . S
C3736 C3735 1.387 . S
H3737 C3749 0.930 . S
H3738 C3751 0.930 . S
H3739 C3752 0.930 . S
H3740 C3756 0.959 . S
H3741 C3756 0.959 . S
H3742 C3756 0.961 . S
H3743 C3757 0.960 . S
H3744 C3757 0.961 . S
H3745 C3757 0.959 . S
H3746 C3760 0.929 . S
H3747 C3761 0.931 . S
H3748 C3763 0.930 . S
C3749 H3737 0.930 . S
C3749 C3750 1.399 . S
C3749 C3754 1.399 . S
C3750 C3749 1.399 . S
C3750 C3751 1.376 . S
C3751 H3738 0.930 . S
C3751 C3750 1.376 . S
C3751 C3752 1.388 . S
C3752 H3739 0.930 . S
C3752 C3751 1.388 . S
C3752 C3753 1.390 . S
C3753 C3752 1.390 . S
C3753 C3754 1.394 . S
C3753 C3759 1.465 . S
C3754 C3749 1.399 . S
C3754 C3753 1.394 . S
C3754 C3755 1.516 . S
C3755 C3754 1.516 . S
C3755 C3756 1.502 . S
C3755 C3757 1.561 . S
C3755 C3758 1.526 . S
C3756 H3740 0.959 . S
C3756 H3741 0.959 . S
C3756 H3742 0.961 . S
C3756 C3755 1.502 . S
C3757 H3743 0.960 . S
C3757 H3744 0.961 . S
C3757 H3745 0.959 . S
C3757 C3755 1.561 . S
C3758 C3755 1.526 . S
C3758 C3759 1.396 . S
C3758 C3763 1.390 . S
C3759 C3753 1.465 . S
C3759 C3758 1.396 . S
C3759 C3760 1.399 . S
C3760 H3746 0.929 . S
C3760 C3759 1.399 . S
C3760 C3761 1.385 . S
C3761 H3747 0.931 . S
C3761 C3760 1.385 . S
C3761 C3762 1.389 . S
C3762 C3761 1.389 . S
C3762 C3763 1.387 . S
C3763 H3748 0.930 . S
C3763 C3758 1.390 . S
C3763 C3762 1.387 . S
H3764 C3776 0.930 . S
H3765 C3778 0.930 . S
H3766 C3779 0.930 . S
H3767 C3783 0.959 . S
H3768 C3783 0.959 . S
H3769 C3783 0.961 . S
H3770 C3784 0.960 . S
H3771 C3784 0.961 . S
H3772 C3784 0.959 . S
H3773 C3787 0.929 . S
H3774 C3788 0.931 . S
H3775 C3790 0.930 . S
C3776 H3764 0.930 . S
C3776 C3777 1.399 . S
C3776 C3781 1.399 . S
C3777 C3776 1.399 . S
C3777 C3778 1.376 . S
C3778 H3765 0.930 . S
C3778 C3777 1.376 . S
C3778 C3779 1.388 . S
C3779 H3766 0.930 . S
C3779 C3778 1.388 . S
C3779 C3780 1.390 . S
C3780 C3779 1.390 . S
C3780 C3781 1.394 . S
C3780 C3786 1.465 . S
C3781 C3776 1.399 . S
C3781 C3780 1.394 . S
C3781 C3782 1.516 . S
C3782 C3781 1.516 . S
C3782 C3783 1.502 . S
C3782 C3784 1.561 . S
C3782 C3785 1.526 . S
C3783 H3767 0.959 . S
C3783 H3768 0.959 . S
C3783 H3769 0.961 . S
C3783 C3782 1.502 . S
C3784 H3770 0.960 . S
C3784 H3771 0.961 . S
C3784 H3772 0.959 . S
C3784 C3782 1.561 . S
C3785 C3782 1.526 . S
C3785 C3786 1.396 . S
C3785 C3790 1.390 . S
C3786 C3780 1.465 . S
C3786 C3785 1.396 . S
C3786 C3787 1.399 . S
C3787 H3773 0.929 . S
C3787 C3786 1.399 . S
C3787 C3788 1.385 . S
C3788 H3774 0.931 . S
C3788 C3787 1.385 . S
C3788 C3789 1.389 . S
C3789 C3788 1.389 . S
C3789 C3790 1.387 . S
C3790 H3775 0.930 . S
C3790 C3785 1.390 . S
C3790 C3789 1.387 . S
H3791 C3803 0.930 . S
H3792 C3805 0.930 . S
H3793 C3806 0.930 . S
H3794 C3810 0.959 . S
H3795 C3810 0.959 . S
H3796 C3810 0.961 . S
H3797 C3811 0.960 . S
H3798 C3811 0.961 . S
H3799 C3811 0.959 . S
H3800 C3814 0.929 . S
H3801 C3815 0.931 . S
H3802 C3817 0.930 . S
C3803 H3791 0.930 . S
C3803 C3804 1.399 . S
C3803 C3808 1.399 . S
C3804 C3803 1.399 . S
C3804 C3805 1.376 . S
C3805 H3792 0.930 . S
C3805 C3804 1.376 . S
C3805 C3806 1.388 . S
C3806 H3793 0.930 . S
C3806 C3805 1.388 . S
C3806 C3807 1.390 . S
C3807 C3806 1.390 . S
C3807 C3808 1.394 . S
C3807 C3813 1.465 . S
C3808 C3803 1.399 . S
C3808 C3807 1.394 . S
C3808 C3809 1.516 . S
C3809 C3808 1.516 . S
C3809 C3810 1.502 . S
C3809 C3811 1.561 . S
C3809 C3812 1.526 . S
C3810 H3794 0.959 . S
C3810 H3795 0.959 . S
C3810 H3796 0.961 . S
C3810 C3809 1.502 . S
C3811 H3797 0.960 . S
C3811 H3798 0.961 . S
C3811 H3799 0.959 . S
C3811 C3809 1.561 . S
C3812 C3809 1.526 . S
C3812 C3813 1.396 . S
C3812 C3817 1.390 . S
C3813 C3807 1.465 . S
C3813 C3812 1.396 . S
C3813 C3814 1.399 . S
C3814 H3800 0.929 . S
C3814 C3813 1.399 . S
C3814 C3815 1.385 . S
C3815 H3801 0.931 . S
C3815 C3814 1.385 . S
C3815 C3816 1.389 . S
C3816 C3815 1.389 . S
C3816 C3817 1.387 . S
C3817 H3802 0.930 . S
C3817 C3812 1.390 . S
C3817 C3816 1.387 . S
H3818 C3830 0.930 . S
H3819 C3832 0.930 . S
H3820 C3833 0.930 . S
H3821 C3837 0.959 . S
H3822 C3837 0.959 . S
H3823 C3837 0.961 . S
H3824 C3838 0.960 . S
H3825 C3838 0.961 . S
H3826 C3838 0.959 . S
H3827 C3841 0.929 . S
H3828 C3842 0.931 . S
H3829 C3844 0.930 . S
C3830 H3818 0.930 . S
C3830 C3831 1.399 . S
C3830 C3835 1.399 . S
C3831 C3830 1.399 . S
C3831 C3832 1.376 . S
C3832 H3819 0.930 . S
C3832 C3831 1.376 . S
C3832 C3833 1.388 . S
C3833 H3820 0.930 . S
C3833 C3832 1.388 . S
C3833 C3834 1.390 . S
C3834 C3833 1.390 . S
C3834 C3835 1.394 . S
C3834 C3840 1.465 . S
C3835 C3830 1.399 . S
C3835 C3834 1.394 . S
C3835 C3836 1.516 . S
C3836 C3835 1.516 . S
C3836 C3837 1.502 . S
C3836 C3838 1.561 . S
C3836 C3839 1.526 . S
C3837 H3821 0.959 . S
C3837 H3822 0.959 . S
C3837 H3823 0.961 . S
C3837 C3836 1.502 . S
C3838 H3824 0.960 . S
C3838 H3825 0.961 . S
C3838 H3826 0.959 . S
C3838 C3836 1.561 . S
C3839 C3836 1.526 . S
C3839 C3840 1.396 . S
C3839 C3844 1.390 . S
C3840 C3834 1.465 . S
C3840 C3839 1.396 . S
C3840 C3841 1.399 . S
C3841 H3827 0.929 . S
C3841 C3840 1.399 . S
C3841 C3842 1.385 . S
C3842 H3828 0.931 . S
C3842 C3841 1.385 . S
C3842 C3843 1.389 . S
C3843 C3842 1.389 . S
C3843 C3844 1.387 . S
C3844 H3829 0.930 . S
C3844 C3839 1.390 . S
C3844 C3843 1.387 . S
H3845 C3857 0.930 . S
H3846 C3859 0.930 . S
H3847 C3860 0.930 . S
H3848 C3864 0.959 . S
H3849 C3864 0.959 . S
H3850 C3864 0.961 . S
H3851 C3865 0.960 . S
H3852 C3865 0.961 . S
H3853 C3865 0.959 . S
H3854 C3868 0.929 . S
H3855 C3869 0.931 . S
H3856 C3871 0.930 . S
C3857 H3845 0.930 . S
C3857 C3858 1.399 . S
C3857 C3862 1.399 . S
C3858 C3857 1.399 . S
C3858 C3859 1.376 . S
C3859 H3846 0.930 . S
C3859 C3858 1.376 . S
C3859 C3860 1.388 . S
C3860 H3847 0.930 . S
C3860 C3859 1.388 . S
C3860 C3861 1.390 . S
C3861 C3860 1.390 . S
C3861 C3862 1.394 . S
C3861 C3867 1.465 . S
C3862 C3857 1.399 . S
C3862 C3861 1.394 . S
C3862 C3863 1.516 . S
C3863 C3862 1.516 . S
C3863 C3864 1.502 . S
C3863 C3865 1.561 . S
C3863 C3866 1.526 . S
C3864 H3848 0.959 . S
C3864 H3849 0.959 . S
C3864 H3850 0.961 . S
C3864 C3863 1.502 . S
C3865 H3851 0.960 . S
C3865 H3852 0.961 . S
C3865 H3853 0.959 . S
C3865 C3863 1.561 . S
C3866 C3863 1.526 . S
C3866 C3867 1.396 . S
C3866 C3871 1.390 . S
C3867 C3861 1.465 . S
C3867 C3866 1.396 . S
C3867 C3868 1.399 . S
C3868 H3854 0.929 . S
C3868 C3867 1.399 . S
C3868 C3869 1.385 . S
C3869 H3855 0.931 . S
C3869 C3868 1.385 . S
C3869 C3870 1.389 . S
C3870 C3869 1.389 . S
C3870 C3871 1.387 . S
C3871 H3856 0.930 . S
C3871 C3866 1.390 . S
C3871 C3870 1.387 . S
H3872 C3884 0.930 . S
H3873 C3886 0.930 . S
H3874 C3887 0.930 . S
H3875 C3891 0.959 . S
H3876 C3891 0.959 . S
H3877 C3891 0.961 . S
H3878 C3892 0.960 . S
H3879 C3892 0.961 . S
H3880 C3892 0.959 . S
H3881 C3895 0.929 . S
H3882 C3896 0.931 . S
H3883 C3898 0.930 . S
C3884 H3872 0.930 . S
C3884 C3885 1.399 . S
C3884 C3889 1.399 . S
C3885 C3884 1.399 . S
C3885 C3886 1.376 . S
C3886 H3873 0.930 . S
C3886 C3885 1.376 . S
C3886 C3887 1.388 . S
C3887 H3874 0.930 . S
C3887 C3886 1.388 . S
C3887 C3888 1.390 . S
C3888 C3887 1.390 . S
C3888 C3889 1.394 . S
C3888 C3894 1.465 . S
C3889 C3884 1.399 . S
C3889 C3888 1.394 . S
C3889 C3890 1.516 . S
C3890 C3889 1.516 . S
C3890 C3891 1.502 . S
C3890 C3892 1.561 . S
C3890 C3893 1.526 . S
C3891 H3875 0.959 . S
C3891 H3876 0.959 . S
C3891 H3877 0.961 . S
C3891 C3890 1.502 . S
C3892 H3878 0.960 . S
C3892 H3879 0.961 . S
C3892 H3880 0.959 . S
C3892 C3890 1.561 . S
C3893 C3890 1.526 . S
C3893 C3894 1.396 . S
C3893 C3898 1.390 . S
C3894 C3888 1.465 . S
C3894 C3893 1.396 . S
C3894 C3895 1.399 . S
C3895 H3881 0.929 . S
C3895 C3894 1.399 . S
C3895 C3896 1.385 . S
C3896 H3882 0.931 . S
C3896 C3895 1.385 . S
C3896 C3897 1.389 . S
C3897 C3896 1.389 . S
C3897 C3898 1.387 . S
C3898 H3883 0.930 . S
C3898 C3893 1.390 . S
C3898 C3897 1.387 . S
H3899 C3911 0.930 . S
H3900 C3913 0.930 . S
H3901 C3914 0.930 . S
H3902 C3918 0.959 . S
H3903 C3918 0.959 . S
H3904 C3918 0.961 . S
H3905 C3919 0.960 . S
H3906 C3919 0.961 . S
H3907 C3919 0.959 . S
H3908 C3922 0.929 . S
H3909 C3923 0.931 . S
H3910 C3925 0.930 . S
C3911 H3899 0.930 . S
C3911 C3912 1.399 . S
C3911 C3916 1.399 . S
C3912 C3911 1.399 . S
C3912 C3913 1.376 . S
C3913 H3900 0.930 . S
C3913 C3912 1.376 . S
C3913 C3914 1.388 . S
C3914 H3901 0.930 . S
C3914 C3913 1.388 . S
C3914 C3915 1.390 . S
C3915 C3914 1.390 . S
C3915 C3916 1.394 . S
C3915 C3921 1.465 . S
C3916 C3911 1.399 . S
C3916 C3915 1.394 . S
C3916 C3917 1.516 . S
C3917 C3916 1.516 . S
C3917 C3918 1.502 . S
C3917 C3919 1.561 . S
C3917 C3920 1.526 . S
C3918 H3902 0.959 . S
C3918 H3903 0.959 . S
C3918 H3904 0.961 . S
C3918 C3917 1.502 . S
C3919 H3905 0.960 . S
C3919 H3906 0.961 . S
C3919 H3907 0.959 . S
C3919 C3917 1.561 . S
C3920 C3917 1.526 . S
C3920 C3921 1.396 . S
C3920 C3925 1.390 . S
C3921 C3915 1.465 . S
C3921 C3920 1.396 . S
C3921 C3922 1.399 . S
C3922 H3908 0.929 . S
C3922 C3921 1.399 . S
C3922 C3923 1.385 . S
C3923 H3909 0.931 . S
C3923 C3922 1.385 . S
C3923 C3924 1.389 . S
C3924 C3923 1.389 . S
C3924 C3925 1.387 . S
C3925 H3910 0.930 . S
C3925 C3920 1.390 . S
C3925 C3924 1.387 . S
H3926 C3938 0.930 . S
H3927 C3940 0.930 . S
H3928 C3941 0.930 . S
H3929 C3945 0.959 . S
H3930 C3945 0.959 . S
H3931 C3945 0.961 . S
H3932 C3946 0.960 . S
H3933 C3946 0.961 . S
H3934 C3946 0.959 . S
H3935 C3949 0.929 . S
H3936 C3950 0.931 . S
H3937 C3952 0.930 . S
C3938 H3926 0.930 . S
C3938 C3939 1.399 . S
C3938 C3943 1.399 . S
C3939 C3938 1.399 . S
C3939 C3940 1.376 . S
C3940 H3927 0.930 . S
C3940 C3939 1.376 . S
C3940 C3941 1.388 . S
C3941 H3928 0.930 . S
C3941 C3940 1.388 . S
C3941 C3942 1.390 . S
C3942 C3941 1.390 . S
C3942 C3943 1.394 . S
C3942 C3948 1.465 . S
C3943 C3938 1.399 . S
C3943 C3942 1.394 . S
C3943 C3944 1.516 . S
C3944 C3943 1.516 . S
C3944 C3945 1.502 . S
C3944 C3946 1.561 . S
C3944 C3947 1.526 . S
C3945 H3929 0.959 . S
C3945 H3930 0.959 . S
C3945 H3931 0.961 . S
C3945 C3944 1.502 . S
C3946 H3932 0.960 . S
C3946 H3933 0.961 . S
C3946 H3934 0.959 . S
C3946 C3944 1.561 . S
C3947 C3944 1.526 . S
C3947 C3948 1.396 . S
C3947 C3952 1.390 . S
C3948 C3942 1.465 . S
C3948 C3947 1.396 . S
C3948 C3949 1.399 . S
C3949 H3935 0.929 . S
C3949 C3948 1.399 . S
C3949 C3950 1.385 . S
C3950 H3936 0.931 . S
C3950 C3949 1.385 . S
C3950 C3951 1.389 . S
C3951 C3950 1.389 . S
C3951 C3952 1.387 . S
C3952 H3937 0.930 . S
C3952 C3947 1.390 . S
C3952 C3951 1.387 . S
H3953 C3965 0.930 . S
H3954 C3967 0.930 . S
H3955 C3968 0.930 . S
H3956 C3972 0.959 . S
H3957 C3972 0.959 . S
H3958 C3972 0.961 . S
H3959 C3973 0.960 . S
H3960 C3973 0.961 . S
H3961 C3973 0.959 . S
H3962 C3976 0.929 . S
H3963 C3977 0.931 . S
H3964 C3979 0.930 . S
C3965 H3953 0.930 . S
C3965 C3966 1.399 . S
C3965 C3970 1.399 . S
C3966 C3965 1.399 . S
C3966 C3967 1.376 . S
C3967 H3954 0.930 . S
C3967 C3966 1.376 . S
C3967 C3968 1.388 . S
C3968 H3955 0.930 . S
C3968 C3967 1.388 . S
C3968 C3969 1.390 . S
C3969 C3968 1.390 . S
C3969 C3970 1.394 . S
C3969 C3975 1.465 . S
C3970 C3965 1.399 . S
C3970 C3969 1.394 . S
C3970 C3971 1.516 . S
C3971 C3970 1.516 . S
C3971 C3972 1.502 . S
C3971 C3973 1.561 . S
C3971 C3974 1.526 . S
C3972 H3956 0.959 . S
C3972 H3957 0.959 . S
C3972 H3958 0.961 . S
C3972 C3971 1.502 . S
C3973 H3959 0.960 . S
C3973 H3960 0.961 . S
C3973 H3961 0.959 . S
C3973 C3971 1.561 . S
C3974 C3971 1.526 . S
C3974 C3975 1.396 . S
C3974 C3979 1.390 . S
C3975 C3969 1.465 . S
C3975 C3974 1.396 . S
C3975 C3976 1.399 . S
C3976 H3962 0.929 . S
C3976 C3975 1.399 . S
C3976 C3977 1.385 . S
C3977 H3963 0.931 . S
C3977 C3976 1.385 . S
C3977 C3978 1.389 . S
C3978 C3977 1.389 . S
C3978 C3979 1.387 . S
C3979 H3964 0.930 . S
C3979 C3974 1.390 . S
C3979 C3978 1.387 . S
H3980 C3992 0.930 . S
H3981 C3994 0.930 . S
H3982 C3995 0.930 . S
H3983 C3999 0.959 . S
H3984 C3999 0.959 . S
H3985 C3999 0.961 . S
H3986 C4000 0.960 . S
H3987 C4000 0.961 . S
H3988 C4000 0.959 . S
H3989 C4003 0.929 . S
H3990 C4004 0.931 . S
H3991 C4006 0.930 . S
C3992 H3980 0.930 . S
C3992 C3993 1.399 . S
C3992 C3997 1.399 . S
C3993 C3992 1.399 . S
C3993 C3994 1.376 . S
C3994 H3981 0.930 . S
C3994 C3993 1.376 . S
C3994 C3995 1.388 . S
C3995 H3982 0.930 . S
C3995 C3994 1.388 . S
C3995 C3996 1.390 . S
C3996 C3995 1.390 . S
C3996 C3997 1.394 . S
C3996 C4002 1.465 . S
C3997 C3992 1.399 . S
C3997 C3996 1.394 . S
C3997 C3998 1.516 . S
C3998 C3997 1.516 . S
C3998 C3999 1.502 . S
C3998 C4000 1.561 . S
C3998 C4001 1.526 . S
C3999 H3983 0.959 . S
C3999 H3984 0.959 . S
C3999 H3985 0.961 . S
C3999 C3998 1.502 . S
C4000 H3986 0.960 . S
C4000 H3987 0.961 . S
C4000 H3988 0.959 . S
C4000 C3998 1.561 . S
C4001 C3998 1.526 . S
C4001 C4002 1.396 . S
C4001 C4006 1.390 . S
C4002 C3996 1.465 . S
C4002 C4001 1.396 . S
C4002 C4003 1.399 . S
C4003 H3989 0.929 . S
C4003 C4002 1.399 . S
C4003 C4004 1.385 . S
C4004 H3990 0.931 . S
C4004 C4003 1.385 . S
C4004 C4005 1.389 . S
C4005 C4004 1.389 . S
C4005 C4006 1.387 . S
C4006 H3991 0.930 . S
C4006 C4001 1.390 . S
C4006 C4005 1.387 . S
H4007 C4019 0.930 . S
H4008 C4021 0.930 . S
H4009 C4022 0.930 . S
H4010 C4026 0.959 . S
H4011 C4026 0.959 . S
H4012 C4026 0.961 . S
H4013 C4027 0.960 . S
H4014 C4027 0.961 . S
H4015 C4027 0.959 . S
H4016 C4030 0.929 . S
H4017 C4031 0.931 . S
H4018 C4033 0.930 . S
C4019 H4007 0.930 . S
C4019 C4020 1.399 . S
C4019 C4024 1.399 . S
C4020 C4019 1.399 . S
C4020 C4021 1.376 . S
C4021 H4008 0.930 . S
C4021 C4020 1.376 . S
C4021 C4022 1.388 . S
C4022 H4009 0.930 . S
C4022 C4021 1.388 . S
C4022 C4023 1.390 . S
C4023 C4022 1.390 . S
C4023 C4024 1.394 . S
C4023 C4029 1.465 . S
C4024 C4019 1.399 . S
C4024 C4023 1.394 . S
C4024 C4025 1.516 . S
C4025 C4024 1.516 . S
C4025 C4026 1.502 . S
C4025 C4027 1.561 . S
C4025 C4028 1.526 . S
C4026 H4010 0.959 . S
C4026 H4011 0.959 . S
C4026 H4012 0.961 . S
C4026 C4025 1.502 . S
C4027 H4013 0.960 . S
C4027 H4014 0.961 . S
C4027 H4015 0.959 . S
C4027 C4025 1.561 . S
C4028 C4025 1.526 . S
C4028 C4029 1.396 . S
C4028 C4033 1.390 . S
C4029 C4023 1.465 . S
C4029 C4028 1.396 . S
C4029 C4030 1.399 . S
C4030 H4016 0.929 . S
C4030 C4029 1.399 . S
C4030 C4031 1.385 . S
C4031 H4017 0.931 . S
C4031 C4030 1.385 . S
C4031 C4032 1.389 . S
C4032 C4031 1.389 . S
C4032 C4033 1.387 . S
C4033 H4018 0.930 . S
C4033 C4028 1.390 . S
C4033 C4032 1.387 . S
H4034 C4046 0.930 . S
H4035 C4048 0.930 . S
H4036 C4049 0.930 . S
H4037 C4053 0.959 . S
H4038 C4053 0.959 . S
H4039 C4053 0.961 . S
H4040 C4054 0.960 . S
H4041 C4054 0.961 . S
H4042 C4054 0.959 . S
H4043 C4057 0.929 . S
H4044 C4058 0.931 . S
H4045 C4060 0.930 . S
C4046 H4034 0.930 . S
C4046 C4047 1.399 . S
C4046 C4051 1.399 . S
C4047 C4046 1.399 . S
C4047 C4048 1.376 . S
C4048 H4035 0.930 . S
C4048 C4047 1.376 . S
C4048 C4049 1.388 . S
C4049 H4036 0.930 . S
C4049 C4048 1.388 . S
C4049 C4050 1.390 . S
C4050 C4049 1.390 . S
C4050 C4051 1.394 . S
C4050 C4056 1.465 . S
C4051 C4046 1.399 . S
C4051 C4050 1.394 . S
C4051 C4052 1.516 . S
C4052 C4051 1.516 . S
C4052 C4053 1.502 . S
C4052 C4054 1.561 . S
C4052 C4055 1.526 . S
C4053 H4037 0.959 . S
C4053 H4038 0.959 . S
C4053 H4039 0.961 . S
C4053 C4052 1.502 . S
C4054 H4040 0.960 . S
C4054 H4041 0.961 . S
C4054 H4042 0.959 . S
C4054 C4052 1.561 . S
C4055 C4052 1.526 . S
C4055 C4056 1.396 . S
C4055 C4060 1.390 . S
C4056 C4050 1.465 . S
C4056 C4055 1.396 . S
C4056 C4057 1.399 . S
C4057 H4043 0.929 . S
C4057 C4056 1.399 . S
C4057 C4058 1.385 . S
C4058 H4044 0.931 . S
C4058 C4057 1.385 . S
C4058 C4059 1.389 . S
C4059 C4058 1.389 . S
C4059 C4060 1.387 . S
C4060 H4045 0.930 . S
C4060 C4055 1.390 . S
C4060 C4059 1.387 . S
H4061 C4073 0.930 . S
H4062 C4075 0.930 . S
H4063 C4076 0.930 . S
H4064 C4080 0.959 . S
H4065 C4080 0.959 . S
H4066 C4080 0.961 . S
H4067 C4081 0.960 . S
H4068 C4081 0.961 . S
H4069 C4081 0.959 . S
H4070 C4084 0.929 . S
H4071 C4085 0.931 . S
H4072 C4087 0.930 . S
C4073 H4061 0.930 . S
C4073 C4074 1.399 . S
C4073 C4078 1.399 . S
C4074 C4073 1.399 . S
C4074 C4075 1.376 . S
C4075 H4062 0.930 . S
C4075 C4074 1.376 . S
C4075 C4076 1.388 . S
C4076 H4063 0.930 . S
C4076 C4075 1.388 . S
C4076 C4077 1.390 . S
C4077 C4076 1.390 . S
C4077 C4078 1.394 . S
C4077 C4083 1.465 . S
C4078 C4073 1.399 . S
C4078 C4077 1.394 . S
C4078 C4079 1.516 . S
C4079 C4078 1.516 . S
C4079 C4080 1.502 . S
C4079 C4081 1.561 . S
C4079 C4082 1.526 . S
C4080 H4064 0.959 . S
C4080 H4065 0.959 . S
C4080 H4066 0.961 . S
C4080 C4079 1.502 . S
C4081 H4067 0.960 . S
C4081 H4068 0.961 . S
C4081 H4069 0.959 . S
C4081 C4079 1.561 . S
C4082 C4079 1.526 . S
C4082 C4083 1.396 . S
C4082 C4087 1.390 . S
C4083 C4077 1.465 . S
C4083 C4082 1.396 . S
C4083 C4084 1.399 . S
C4084 H4070 0.929 . S
C4084 C4083 1.399 . S
C4084 C4085 1.385 . S
C4085 H4071 0.931 . S
C4085 C4084 1.385 . S
C4085 C4086 1.389 . S
C4086 C4085 1.389 . S
C4086 C4087 1.387 . S
C4087 H4072 0.930 . S
C4087 C4082 1.390 . S
C4087 C4086 1.387 . S
H4088 C4100 0.930 . S
H4089 C4102 0.930 . S
H4090 C4103 0.930 . S
H4091 C4107 0.959 . S
H4092 C4107 0.959 . S
H4093 C4107 0.961 . S
H4094 C4108 0.960 . S
H4095 C4108 0.961 . S
H4096 C4108 0.959 . S
H4097 C4111 0.929 . S
H4098 C4112 0.931 . S
H4099 C4114 0.930 . S
C4100 H4088 0.930 . S
C4100 C4101 1.399 . S
C4100 C4105 1.399 . S
C4101 C4100 1.399 . S
C4101 C4102 1.376 . S
C4102 H4089 0.930 . S
C4102 C4101 1.376 . S
C4102 C4103 1.388 . S
C4103 H4090 0.930 . S
C4103 C4102 1.388 . S
C4103 C4104 1.390 . S
C4104 C4103 1.390 . S
C4104 C4105 1.394 . S
C4104 C4110 1.465 . S
C4105 C4100 1.399 . S
C4105 C4104 1.394 . S
C4105 C4106 1.516 . S
C4106 C4105 1.516 . S
C4106 C4107 1.502 . S
C4106 C4108 1.561 . S
C4106 C4109 1.526 . S
C4107 H4091 0.959 . S
C4107 H4092 0.959 . S
C4107 H4093 0.961 . S
C4107 C4106 1.502 . S
C4108 H4094 0.960 . S
C4108 H4095 0.961 . S
C4108 H4096 0.959 . S
C4108 C4106 1.561 . S
C4109 C4106 1.526 . S
C4109 C4110 1.396 . S
C4109 C4114 1.390 . S
C4110 C4104 1.465 . S
C4110 C4109 1.396 . S
C4110 C4111 1.399 . S
C4111 H4097 0.929 . S
C4111 C4110 1.399 . S
C4111 C4112 1.385 . S
C4112 H4098 0.931 . S
C4112 C4111 1.385 . S
C4112 C4113 1.389 . S
C4113 C4112 1.389 . S
C4113 C4114 1.387 . S
C4114 H4099 0.930 . S
C4114 C4109 1.390 . S
C4114 C4113 1.387 . S
H4115 C4127 0.930 . S
H4116 C4129 0.930 . S
H4117 C4130 0.930 . S
H4118 C4134 0.959 . S
H4119 C4134 0.959 . S
H4120 C4134 0.961 . S
H4121 C4135 0.960 . S
H4122 C4135 0.961 . S
H4123 C4135 0.959 . S
H4124 C4138 0.929 . S
H4125 C4139 0.931 . S
H4126 C4141 0.930 . S
C4127 H4115 0.930 . S
C4127 C4128 1.399 . S
C4127 C4132 1.399 . S
C4128 C4127 1.399 . S
C4128 C4129 1.376 . S
C4129 H4116 0.930 . S
C4129 C4128 1.376 . S
C4129 C4130 1.388 . S
C4130 H4117 0.930 . S
C4130 C4129 1.388 . S
C4130 C4131 1.390 . S
C4131 C4130 1.390 . S
C4131 C4132 1.394 . S
C4131 C4137 1.465 . S
C4132 C4127 1.399 . S
C4132 C4131 1.394 . S
C4132 C4133 1.516 . S
C4133 C4132 1.516 . S
C4133 C4134 1.502 . S
C4133 C4135 1.561 . S
C4133 C4136 1.526 . S
C4134 H4118 0.959 . S
C4134 H4119 0.959 . S
C4134 H4120 0.961 . S
C4134 C4133 1.502 . S
C4135 H4121 0.960 . S
C4135 H4122 0.961 . S
C4135 H4123 0.959 . S
C4135 C4133 1.561 . S
C4136 C4133 1.526 . S
C4136 C4137 1.396 . S
C4136 C4141 1.390 . S
C4137 C4131 1.465 . S
C4137 C4136 1.396 . S
C4137 C4138 1.399 . S
C4138 H4124 0.929 . S
C4138 C4137 1.399 . S
C4138 C4139 1.385 . S
C4139 H4125 0.931 . S
C4139 C4138 1.385 . S
C4139 C4140 1.389 . S
C4140 C4139 1.389 . S
C4140 C4141 1.387 . S
C4141 H4126 0.930 . S
C4141 C4136 1.390 . S
C4141 C4140 1.387 . S
H4142 C4154 0.930 . S
H4143 C4156 0.930 . S
H4144 C4157 0.930 . S
H4145 C4161 0.959 . S
H4146 C4161 0.959 . S
H4147 C4161 0.961 . S
H4148 C4162 0.960 . S
H4149 C4162 0.961 . S
H4150 C4162 0.959 . S
H4151 C4165 0.929 . S
H4152 C4166 0.931 . S
H4153 C4168 0.930 . S
C4154 H4142 0.930 . S
C4154 C4155 1.399 . S
C4154 C4159 1.399 . S
C4155 C4154 1.399 . S
C4155 C4156 1.376 . S
C4156 H4143 0.930 . S
C4156 C4155 1.376 . S
C4156 C4157 1.388 . S
C4157 H4144 0.930 . S
C4157 C4156 1.388 . S
C4157 C4158 1.390 . S
C4158 C4157 1.390 . S
C4158 C4159 1.394 . S
C4158 C4164 1.465 . S
C4159 C4154 1.399 . S
C4159 C4158 1.394 . S
C4159 C4160 1.516 . S
C4160 C4159 1.516 . S
C4160 C4161 1.502 . S
C4160 C4162 1.561 . S
C4160 C4163 1.526 . S
C4161 H4145 0.959 . S
C4161 H4146 0.959 . S
C4161 H4147 0.961 . S
C4161 C4160 1.502 . S
C4162 H4148 0.960 . S
C4162 H4149 0.961 . S
C4162 H4150 0.959 . S
C4162 C4160 1.561 . S
C4163 C4160 1.526 . S
C4163 C4164 1.396 . S
C4163 C4168 1.390 . S
C4164 C4158 1.465 . S
C4164 C4163 1.396 . S
C4164 C4165 1.399 . S
C4165 H4151 0.929 . S
C4165 C4164 1.399 . S
C4165 C4166 1.385 . S
C4166 H4152 0.931 . S
C4166 C4165 1.385 . S
C4166 C4167 1.389 . S
C4167 C4166 1.389 . S
C4167 C4168 1.387 . S
C4168 H4153 0.930 . S
C4168 C4163 1.390 . S
C4168 C4167 1.387 . S
H4169 C4181 0.930 . S
H4170 C4183 0.930 . S
H4171 C4184 0.930 . S
H4172 C4188 0.959 . S
H4173 C4188 0.959 . S
H4174 C4188 0.961 . S
H4175 C4189 0.960 . S
H4176 C4189 0.961 . S
H4177 C4189 0.959 . S
H4178 C4192 0.929 . S
H4179 C4193 0.931 . S
H4180 C4195 0.930 . S
C4181 H4169 0.930 . S
C4181 C4182 1.399 . S
C4181 C4186 1.399 . S
C4182 C4181 1.399 . S
C4182 C4183 1.376 . S
C4183 H4170 0.930 . S
C4183 C4182 1.376 . S
C4183 C4184 1.388 . S
C4184 H4171 0.930 . S
C4184 C4183 1.388 . S
C4184 C4185 1.390 . S
C4185 C4184 1.390 . S
C4185 C4186 1.394 . S
C4185 C4191 1.465 . S
C4186 C4181 1.399 . S
C4186 C4185 1.394 . S
C4186 C4187 1.516 . S
C4187 C4186 1.516 . S
C4187 C4188 1.502 . S
C4187 C4189 1.561 . S
C4187 C4190 1.526 . S
C4188 H4172 0.959 . S
C4188 H4173 0.959 . S
C4188 H4174 0.961 . S
C4188 C4187 1.502 . S
C4189 H4175 0.960 . S
C4189 H4176 0.961 . S
C4189 H4177 0.959 . S
C4189 C4187 1.561 . S
C4190 C4187 1.526 . S
C4190 C4191 1.396 . S
C4190 C4195 1.390 . S
C4191 C4185 1.465 . S
C4191 C4190 1.396 . S
C4191 C4192 1.399 . S
C4192 H4178 0.929 . S
C4192 C4191 1.399 . S
C4192 C4193 1.385 . S
C4193 H4179 0.931 . S
C4193 C4192 1.385 . S
C4193 C4194 1.389 . S
C4194 C4193 1.389 . S
C4194 C4195 1.387 . S
C4195 H4180 0.930 . S
C4195 C4190 1.390 . S
C4195 C4194 1.387 . S
H4196 C4208 0.930 . S
H4197 C4210 0.930 . S
H4198 C4211 0.930 . S
H4199 C4215 0.959 . S
H4200 C4215 0.959 . S
H4201 C4215 0.961 . S
H4202 C4216 0.960 . S
H4203 C4216 0.961 . S
H4204 C4216 0.959 . S
H4205 C4219 0.929 . S
H4206 C4220 0.931 . S
H4207 C4222 0.930 . S
C4208 H4196 0.930 . S
C4208 C4209 1.399 . S
C4208 C4213 1.399 . S
C4209 C4208 1.399 . S
C4209 C4210 1.376 . S
C4210 H4197 0.930 . S
C4210 C4209 1.376 . S
C4210 C4211 1.388 . S
C4211 H4198 0.930 . S
C4211 C4210 1.388 . S
C4211 C4212 1.390 . S
C4212 C4211 1.390 . S
C4212 C4213 1.394 . S
C4212 C4218 1.465 . S
C4213 C4208 1.399 . S
C4213 C4212 1.394 . S
C4213 C4214 1.516 . S
C4214 C4213 1.516 . S
C4214 C4215 1.502 . S
C4214 C4216 1.561 . S
C4214 C4217 1.526 . S
C4215 H4199 0.959 . S
C4215 H4200 0.959 . S
C4215 H4201 0.961 . S
C4215 C4214 1.502 . S
C4216 H4202 0.960 . S
C4216 H4203 0.961 . S
C4216 H4204 0.959 . S
C4216 C4214 1.561 . S
C4217 C4214 1.526 . S
C4217 C4218 1.396 . S
C4217 C4222 1.390 . S
C4218 C4212 1.465 . S
C4218 C4217 1.396 . S
C4218 C4219 1.399 . S
C4219 H4205 0.929 . S
C4219 C4218 1.399 . S
C4219 C4220 1.385 . S
C4220 H4206 0.931 . S
C4220 C4219 1.385 . S
C4220 C4221 1.389 . S
C4221 C4220 1.389 . S
C4221 C4222 1.387 . S
C4222 H4207 0.930 . S
C4222 C4217 1.390 . S
C4222 C4221 1.387 . S
H4223 C4235 0.930 . S
H4224 C4237 0.930 . S
H4225 C4238 0.930 . S
H4226 C4242 0.959 . S
H4227 C4242 0.959 . S
H4228 C4242 0.961 . S
H4229 C4243 0.960 . S
H4230 C4243 0.961 . S
H4231 C4243 0.959 . S
H4232 C4246 0.929 . S
H4233 C4247 0.931 . S
H4234 C4249 0.930 . S
C4235 H4223 0.930 . S
C4235 C4236 1.399 . S
C4235 C4240 1.399 . S
C4236 C4235 1.399 . S
C4236 C4237 1.376 . S
C4237 H4224 0.930 . S
C4237 C4236 1.376 . S
C4237 C4238 1.388 . S
C4238 H4225 0.930 . S
C4238 C4237 1.388 . S
C4238 C4239 1.390 . S
C4239 C4238 1.390 . S
C4239 C4240 1.394 . S
C4239 C4245 1.465 . S
C4240 C4235 1.399 . S
C4240 C4239 1.394 . S
C4240 C4241 1.516 . S
C4241 C4240 1.516 . S
C4241 C4242 1.502 . S
C4241 C4243 1.561 . S
C4241 C4244 1.526 . S
C4242 H4226 0.959 . S
C4242 H4227 0.959 . S
C4242 H4228 0.961 . S
C4242 C4241 1.502 . S
C4243 H4229 0.960 . S
C4243 H4230 0.961 . S
C4243 H4231 0.959 . S
C4243 C4241 1.561 . S
C4244 C4241 1.526 . S
C4244 C4245 1.396 . S
C4244 C4249 1.390 . S
C4245 C4239 1.465 . S
C4245 C4244 1.396 . S
C4245 C4246 1.399 . S
C4246 H4232 0.929 . S
C4246 C4245 1.399 . S
C4246 C4247 1.385 . S
C4247 H4233 0.931 . S
C4247 C4246 1.385 . S
C4247 C4248 1.389 . S
C4248 C4247 1.389 . S
C4248 C4249 1.387 . S
C4249 H4234 0.930 . S
C4249 C4244 1.390 . S
C4249 C4248 1.387 . S
H4250 C4262 0.930 . S
H4251 C4264 0.930 . S
H4252 C4265 0.930 . S
H4253 C4269 0.959 . S
H4254 C4269 0.959 . S
H4255 C4269 0.961 . S
H4256 C4270 0.960 . S
H4257 C4270 0.961 . S
H4258 C4270 0.959 . S
H4259 C4273 0.929 . S
H4260 C4274 0.931 . S
H4261 C4276 0.930 . S
C4262 H4250 0.930 . S
C4262 C4263 1.399 . S
C4262 C4267 1.399 . S
C4263 C4262 1.399 . S
C4263 C4264 1.376 . S
C4264 H4251 0.930 . S
C4264 C4263 1.376 . S
C4264 C4265 1.388 . S
C4265 H4252 0.930 . S
C4265 C4264 1.388 . S
C4265 C4266 1.390 . S
C4266 C4265 1.390 . S
C4266 C4267 1.394 . S
C4266 C4272 1.465 . S
C4267 C4262 1.399 . S
C4267 C4266 1.394 . S
C4267 C4268 1.516 . S
C4268 C4267 1.516 . S
C4268 C4269 1.502 . S
C4268 C4270 1.561 . S
C4268 C4271 1.526 . S
C4269 H4253 0.959 . S
C4269 H4254 0.959 . S
C4269 H4255 0.961 . S
C4269 C4268 1.502 . S
C4270 H4256 0.960 . S
C4270 H4257 0.961 . S
C4270 H4258 0.959 . S
C4270 C4268 1.561 . S
C4271 C4268 1.526 . S
C4271 C4272 1.396 . S
C4271 C4276 1.390 . S
C4272 C4266 1.465 . S
C4272 C4271 1.396 . S
C4272 C4273 1.399 . S
C4273 H4259 0.929 . S
C4273 C4272 1.399 . S
C4273 C4274 1.385 . S
C4274 H4260 0.931 . S
C4274 C4273 1.385 . S
C4274 C4275 1.389 . S
C4275 C4274 1.389 . S
C4275 C4276 1.387 . S
C4276 H4261 0.930 . S
C4276 C4271 1.390 . S
C4276 C4275 1.387 . S
H4277 C4289 0.930 . S
H4278 C4291 0.930 . S
H4279 C4292 0.930 . S
H4280 C4296 0.959 . S
H4281 C4296 0.959 . S
H4282 C4296 0.961 . S
H4283 C4297 0.960 . S
H4284 C4297 0.961 . S
H4285 C4297 0.959 . S
H4286 C4300 0.929 . S
H4287 C4301 0.931 . S
H4288 C4303 0.930 . S
C4289 H4277 0.930 . S
C4289 C4290 1.399 . S
C4289 C4294 1.399 . S
C4290 C4289 1.399 . S
C4290 C4291 1.376 . S
C4291 H4278 0.930 . S
C4291 C4290 1.376 . S
C4291 C4292 1.388 . S
C4292 H4279 0.930 . S
C4292 C4291 1.388 . S
C4292 C4293 1.390 . S
C4293 C4292 1.390 . S
C4293 C4294 1.394 . S
C4293 C4299 1.465 . S
C4294 C4289 1.399 . S
C4294 C4293 1.394 . S
C4294 C4295 1.516 . S
C4295 C4294 1.516 . S
C4295 C4296 1.502 . S
C4295 C4297 1.561 . S
C4295 C4298 1.526 . S
C4296 H4280 0.959 . S
C4296 H4281 0.959 . S
C4296 H4282 0.961 . S
C4296 C4295 1.502 . S
C4297 H4283 0.960 . S
C4297 H4284 0.961 . S
C4297 H4285 0.959 . S
C4297 C4295 1.561 . S
C4298 C4295 1.526 . S
C4298 C4299 1.396 . S
C4298 C4303 1.390 . S
C4299 C4293 1.465 . S
C4299 C4298 1.396 . S
C4299 C4300 1.399 . S
C4300 H4286 0.929 . S
C4300 C4299 1.399 . S
C4300 C4301 1.385 . S
C4301 H4287 0.931 . S
C4301 C4300 1.385 . S
C4301 C4302 1.389 . S
C4302 C4301 1.389 . S
C4302 C4303 1.387 . S
C4303 H4288 0.930 . S
C4303 C4298 1.390 . S
C4303 C4302 1.387 . S
C1737 C1294 1.458 . S
C1725 C21 1.564 . S
C1764 C1306 1.455 . S
C1752 C42 1.487 . S
C1779 C82 1.533 . S
C1791 C1330 1.458 . S
C1818 C1341 1.424 . S
C1806 C135 1.540 . S
C1833 C175 1.483 . S
C1845 C1348 1.425 . S
C1860 C221 1.506 . S
C1872 C1287 1.530 . S
C1887 C255 1.532 . S
C1899 C1314 1.415 . S
C1926 C1323 1.466 . S
C1914 C301 1.572 . S
C1953 C1360 1.503 . S
C1941 C15 1.520 . S
C1968 C55 1.499 . S
C1980 C1386 1.406 . S
C1995 C101 1.565 . S
C2007 C1402 1.477 . S
C2034 C1422 1.503 . S
C2022 C141 1.544 . S
C2049 C162 1.454 . S
C2061 C1431 1.484 . S
C2088 C1456 1.439 . S
C2076 C215 1.544 . S
C2103 C261 1.540 . S
C2115 C1476 1.484 . S
C2142 C1492 1.482 . S
C2130 C282 1.556 . S
C2157 C2 1.546 . S
C2169 C1414 1.440 . S
C2184 C181 1.496 . S
C2196 C1449 1.381 . S
C2223 C1468 1.473 . S
C2211 C202 1.551 . S
C2238 C242 1.547 . S
C2250 C1485 1.512 . S
C2277 C1438 1.440 . S
C2265 C295 1.542 . S
C2304 C1378 1.516 . S
C2292 C95 1.525 . S
C2319 C122 1.540 . S
C2331 C1395 1.438 . S
C2358 C1368 1.464 . S
C2346 C61 1.512 . S
C2385 C1512 1.519 . S
C2373 C341 1.518 . S
C2400 C362 1.504 . S
C2412 C1522 1.437 . S
C2427 C402 1.506 . S
C2439 C1546 1.507 . S
C2466 C1558 1.421 . S
C2454 C455 1.541 . S
C2481 C495 1.472 . S
C2493 C1566 1.426 . S
C2508 C541 1.502 . S
C2520 C1504 1.533 . S
C2535 C575 1.522 . S
C2547 C1530 1.453 . S
C2562 C621 1.572 . S
C2574 C1539 1.465 . S
C2601 C1432 1.454 . S
C2589 C335 1.544 . S
C2616 C375 1.496 . S
C2628 C1582 1.405 . S
C2655 C1474 1.467 . S
C2643 C421 1.572 . S
C2670 C461 1.536 . S
C2682 C1602 1.469 . S
C2697 C482 1.455 . S
C2709 C1359 1.480 . S
C2736 C1620 1.486 . S
C2724 C535 1.530 . S
C2751 C581 1.543 . S
C2763 C1404 1.500 . S
C2790 C1636 1.506 . S
C2778 C602 1.558 . S
C2805 C322 1.544 . S
C2817 C1594 1.438 . S
C2844 C1612 1.470 . S
C2832 C501 1.430 . S
C2859 C522 1.522 . S
C2871 C1396 1.516 . S
C2898 C1629 1.429 . S
C2886 C562 1.542 . S
C2913 C615 1.525 . S
C2925 C1366 1.496 . S
C2940 C415 1.526 . S
C2952 C1575 1.510 . S
C2967 C442 1.538 . S
C2979 C1467 1.431 . S
C2994 C381 1.510 . S
C3006 C1440 1.399 . S
C3021 C661 1.566 . S
C3033 C1548 1.454 . S
C3060 C1557 1.375 . S
C3048 C682 1.495 . S
C3075 C722 1.522 . S
C3087 C1510 1.475 . S
C3102 C775 1.523 . S
C3114 C1521 1.485 . S
C3129 C815 1.483 . S
C3141 C1528 1.390 . S
C3156 C861 1.505 . S
C3168 C1540 1.536 . S
C3195 C1564 1.432 . S
C3183 C895 1.534 . S
C3210 C941 1.581 . S
C3222 C1503 1.544 . S
C3249 C1654 1.455 . S
C3237 C655 1.535 . S
C3264 C695 1.495 . S
C3276 C1458 1.424 . S
C3303 C1672 1.463 . S
C3291 C741 1.569 . S
C3318 C781 1.544 . S
C3330 C1494 1.502 . S
C3345 C802 1.454 . S
C3357 C1692 1.485 . S
C3372 C855 1.549 . S
C3384 C1384 1.429 . S
C3411 C1708 1.500 . S
C3399 C901 1.543 . S
C3426 C922 1.551 . S
C3438 C1420 1.469 . S
C3465 C1486 1.441 . S
C3453 C642 1.548 . S
C3492 C1377 1.375 . S
C3480 C821 1.497 . S
C3507 C842 1.514 . S
C3519 C1701 1.533 . S
C3534 C882 1.549 . S
C3546 C1413 1.512 . S
C3573 C1684 1.442 . S
C3561 C935 1.539 . S
C3600 C1450 1.514 . S
C3588 C735 1.525 . S
C3627 C1665 1.416 . S
C3615 C762 1.530 . S
C3654 C1647 1.429 . S
C3642 C701 1.509 . S
C3669 C981 1.531 . S
C3681 C1332 1.509 . S
C3696 C1002 1.500 . S
C3708 C1342 1.402 . S
C3735 C1296 1.471 . S
C3723 C1042 1.534 . S
C3762 C1305 1.498 . S
C3750 C1095 1.517 . S
C3789 C1312 1.386 . S
C3777 C1135 1.483 . S
C3816 C1324 1.531 . S
C3804 C1181 1.504 . S
C3843 C1350 1.447 . S
C3831 C1215 1.528 . S
C3858 C1261 1.578 . S
C3870 C1288 1.541 . S
C3885 C975 1.524 . S
C3897 C1690 1.509 . S
C3924 C1618 1.406 . S
C3912 C1015 1.496 . S
C3951 C1710 1.461 . S
C3939 C1061 1.569 . S
C3978 C1638 1.491 . S
C3966 C1101 1.540 . S
C3993 C1122 1.460 . S
C4005 C1656 1.478 . S
C4032 C1584 1.456 . S
C4020 C1175 1.537 . S
C4059 C1674 1.440 . S
C4047 C1221 1.536 . S
C4074 C1242 1.553 . S
C4086 C1600 1.494 . S
C4113 C1630 1.456 . S
C4101 C962 1.540 . S
C4140 C1576 1.385 . S
C4128 C1141 1.494 . S
C4167 C1666 1.521 . S
C4155 C1162 1.518 . S
C4182 C1202 1.532 . S
C4194 C1593 1.427 . S
C4209 C1255 1.518 . S
C4221 C1648 1.504 . S
C4236 C1055 1.553 . S
C4248 C1611 1.425 . S
C4263 C1082 1.525 . S
C4275 C1702 1.423 . S
C4302 C1683 1.412 . S
C4290 C1021 1.516 . S
