# Generated by pormake.
# Topology tsx, (6,3)-cn, num edge types: 1
# Building blocks:
#     Node 0, Type 0, BuildingBlock: MIDCAF_clean_sbu_0, # of connection points: 6
#     Node 1, Type 0, BuildingBlock: MIDCAF_clean_sbu_0, # of connection points: 6
#     Node 2, Type 1, BuildingBlock: VETTIZ_charged_linker_0, # of connection points: 3
#     Node 3, Type 1, BuildingBlock: VETTIZ_charged_linker_0, # of connection points: 3
#     Node 4, Type 1, BuildingBlock: VETTIZ_charged_linker_0, # of connection points: 3
#     Node 5, Type 1, BuildingBlock: VETTIZ_charged_linker_0, # of connection points: 3
#     Edge 6, Type (0, 1), BuildingBlock: ZUJKAS_clean_linker_0, # of connection points: 2
#     Edge 7, Type (0, 1), BuildingBlock: ZUJKAS_clean_linker_0, # of connection points: 2
#     Edge 8, Type (0, 1), BuildingBlock: ZUJKAS_clean_linker_0, # of connection points: 2
#     Edge 9, Type (0, 1), BuildingBlock: ZUJKAS_clean_linker_0, # of connection points: 2
#     Edge 10, Type (0, 1), BuildingBlock: ZUJKAS_clean_linker_0, # of connection points: 2
#     Edge 11, Type (0, 1), BuildingBlock: ZUJKAS_clean_linker_0, # of connection points: 2
#     Edge 12, Type (0, 1), BuildingBlock: ZUJKAS_clean_linker_0, # of connection points: 2
#     Edge 13, Type (0, 1), BuildingBlock: ZUJKAS_clean_linker_0, # of connection points: 2
#     Edge 14, Type (0, 1), BuildingBlock: ZUJKAS_clean_linker_0, # of connection points: 2
#     Edge 15, Type (0, 1), BuildingBlock: ZUJKAS_clean_linker_0, # of connection points: 2
#     Edge 16, Type (0, 1), BuildingBlock: ZUJKAS_clean_linker_0, # of connection points: 2
#     Edge 17, Type (0, 1), BuildingBlock: ZUJKAS_clean_linker_0, # of connection points: 2
# Relax obj value: 0.121
# Max RMSD: 0.183
# Mean RMSD: 0.115
data_MOF--net-tsx--node1-MIDCAF_clean_sbu_0--node2-VETTIZ_charged_linker_0--edge1-ZUJKAS_clean_linker_0
_symmetry_space_group_name_H-M    P1
_symmetry_Int_Tables_number       1
_symmetry_cell_setting            triclinic
loop_
_symmetry_equiv_pos_as_xyz
'x, y, z'
_cell_length_a     29.379576
_cell_length_b     30.377967
_cell_length_c     58.240322
_cell_angle_alpha  90.388601
_cell_angle_beta   94.197452
_cell_angle_gamma 90.183345
loop_
_atom_site_label
_atom_site_type_symbol
_atom_site_fract_x
_atom_site_fract_y
_atom_site_fract_z
_atom_type_partial_charge
Zn0 Zn 0.9654 0.03673 0.98325 0.0
Zn1 Zn 0.11558 0.03025 0.04032 0.0
Zn2 Zn 0.04161 0.03451 0.0116 0.0
C3 C 0.09641 0.11949 0.03386 0.0
C4 C 0.13748 0.98867 0.00012 0.0
O5 O 0.98589 0.99754 0.0271 0.0
O6 O 0.92481 0.0037 0.00273 0.0
C7 C 0.99021 0.12397 0.99447 0.0
O8 O 0.06471 0.10315 0.0198 0.0
O9 O 0.12231 0.09437 0.04602 0.0
O10 O 0.15633 1.00171 0.01913 0.0
O11 O 0.09517 0.99747 0.99464 0.0
O12 O 0.96054 0.10176 0.98263 0.0
O13 O 0.02317 0.10479 0.00628 0.0
O14 O 0.05735 0.00343 0.97867 0.0
O15 O 0.99193 0.00547 0.95728 0.0
C16 C 0.03363 0.99513 0.95962 0.0
O17 O 0.02403 0.99995 0.04314 0.0
O18 O 0.08963 0.99334 0.06406 0.0
C19 C 0.9435 0.98906 0.02132 0.0
C20 C 0.04722 0.98628 0.06134 0.0
Zn21 Zn 0.61112 0.53407 0.54012 0.0
Zn22 Zn 0.4677 0.52889 0.47976 0.0
Zn23 Zn 0.53959 0.5323 0.5097 0.0
C24 C 0.53875 0.48759 0.45889 0.0
C25 C 0.48712 0.61798 0.4882 0.0
O26 O 0.51912 0.50187 0.54194 0.0
O27 O 0.58233 0.50312 0.56506 0.0
C28 C 0.63759 0.486 0.50279 0.0
O29 O 0.56037 0.4984 0.47819 0.0
O30 O 0.49684 0.49625 0.45535 0.0
O31 O 0.46022 0.59313 0.47616 0.0
O32 O 0.51902 0.60134 0.50183 0.0
O33 O 0.65412 0.50109 0.52186 0.0
O34 O 0.59597 0.49452 0.49564 0.0
O35 O 0.55974 0.60256 0.51599 0.0
O36 O 0.61737 0.59869 0.5426 0.0
C37 C 0.59078 0.62145 0.52951 0.0
O38 O 0.48375 0.49432 0.52457 0.0
O39 O 0.42533 0.4962 0.49835 0.0
C40 C 0.54054 0.49359 0.56156 0.0
C41 C 0.44245 0.48343 0.51766 0.0
C42 C 0.15418 0.96564 0.43605 0.0
C43 C 0.18134 0.93203 0.42749 0.0
C44 C 0.17175 0.91684 0.40472 0.0
C45 C 0.10809 0.96699 0.39962 0.0
C46 C 0.11758 0.98242 0.42186 0.0
C47 C 0.08392 0.01702 0.42824 0.0
H48 H 0.90172 0.14517 0.39532 0.0
C49 C 0.0674 0.99014 0.38953 0.0
C50 C 0.05281 0.01951 0.40621 0.0
H51 H 0.97698 0.1434 0.46181 0.0
H52 H 0.02509 0.08477 0.44878 0.0
H53 H 0.9885 0.13402 0.36421 0.0
H54 H 0.89192 0.0445 0.3906 0.0
H55 H 0.90547 0.02176 0.3642 0.0
H56 H 0.87851 0.07512 0.36479 0.0
H57 H 0.92901 0.13227 0.35465 0.0
H58 H 0.96987 0.09768 0.34179 0.0
C59 C 0.11041 0.06051 0.4333 0.0
C60 C 0.05832 0.99983 0.44872 0.0
C61 C 0.00947 0.95859 0.30653 0.0
C62 C 0.97259 0.97512 0.29236 0.0
C63 C 0.94235 0.00493 0.30191 0.0
C64 C 0.94959 0.01925 0.32479 0.0
C65 C 0.98744 0.00361 0.33844 0.0
C66 C 0.01607 0.9731 0.32942 0.0
C67 C 0.05383 0.95929 0.34671 0.0
C68 C 0.04347 0.98713 0.36746 0.0
C69 C 1.0049 0.01329 0.36239 0.0
C70 C 0.09995 0.97235 0.33728 0.0
C71 C 0.04826 0.90936 0.35123 0.0
C72 C 0.92889 0.13242 0.40698 0.0
C73 C 0.93619 0.14918 0.42943 0.0
C74 C 0.97099 0.13097 0.44437 0.0
C75 C 0.99887 0.09711 0.43674 0.0
C76 C 0.99145 0.08104 0.41404 0.0
C77 C 0.95644 0.09839 0.39975 0.0
C78 C 0.95185 0.07641 0.37657 0.0
C79 C 0.99051 0.04354 0.37899 0.0
C80 C 0.014 0.0465 0.40087 0.0
C81 C 0.95989 0.11171 0.35819 0.0
C82 C 0.90448 0.05342 0.37366 0.0
H83 H 0.13003 0.9209 0.37369 0.0
H84 H 0.16055 0.97776 0.45352 0.0
H85 H 0.05258 0.96367 0.44724 0.0
H86 H 0.02389 0.01406 0.44932 0.0
H87 H 0.07816 0.00641 0.46537 0.0
H88 H 0.13592 0.06584 0.42037 0.0
H89 H 0.12908 0.05978 0.45059 0.0
H90 H 0.08832 0.0898 0.43225 0.0
H91 H 0.03366 0.93593 0.2998 0.0
H92 H 0.91315 0.01756 0.29161 0.0
H93 H 0.9257 0.04245 0.33084 0.0
H94 H 0.09715 0.00465 0.3284 0.0
H95 H 0.11067 0.94759 0.32465 0.0
H96 H 0.12771 0.97683 0.35092 0.0
H97 H 0.01177 0.89917 0.34909 0.0
H98 H 0.0594 0.9001 0.36908 0.0
H99 H 0.06714 0.8893 0.33907 0.0
H100 H 0.19257 0.8915 0.39761 0.0
C101 C 0.13544 0.93407 0.3908 0.0
C102 C 0.12347 0.12834 0.59494 0.0
C103 C 0.16282 0.14655 0.60675 0.0
C104 C 0.17502 0.13294 0.62944 0.0
C105 C 0.1103 0.08332 0.62817 0.0
C106 C 0.09791 0.09658 0.60594 0.0
C107 C 0.05572 0.0727 0.59598 0.0
H108 H 0.89054 0.91989 0.61036 0.0
C109 C 0.07745 0.04959 0.63465 0.0
C110 C 0.04537 0.04282 0.61586 0.0
H111 H 0.90547 1.00112 0.55066 0.0
H112 H 0.97337 0.03456 0.56948 0.0
H113 H 0.99442 0.89615 0.62006 0.0
H114 H 0.91172 0.99778 0.64744 0.0
H115 H 0.9459 0.97585 0.67055 0.0
H116 H 0.9056 0.94069 0.65438 0.0
H117 H 0.95366 0.88476 0.64075 0.0
H118 H 0.01151 0.90114 0.64949 0.0
C119 C 0.06844 0.04611 0.57464 0.0
C120 C 0.01769 0.10711 0.59083 0.0
C121 C 0.09336 0.98624 0.71531 0.0
C122 C 0.06855 0.9544 0.72669 0.0
C123 C 0.0325 0.93198 0.71416 0.0
C124 C 0.02053 0.94205 0.69104 0.0
C125 C 0.04481 0.97491 0.68017 0.0
C126 C 0.08106 0.99577 0.6922 0.0
C127 C 0.1037 0.02906 0.6778 0.0
C128 C 0.07439 0.02549 0.65528 0.0
C129 C 0.03978 0.99402 0.65681 0.0
C130 C 0.15349 0.01388 0.67521 0.0
C131 C 0.09938 0.0749 0.68931 0.0
C132 C 0.90789 0.9453 0.60135 0.0
C133 C 0.89211 0.95803 0.579 0.0
C134 C 0.91686 0.99044 0.56782 0.0
C135 C 0.95618 0.01001 0.57883 0.0
C136 C 0.97107 0.99711 0.6013 0.0
C137 C 0.94687 0.96521 0.61211 0.0
C138 C 0.9669 0.95565 0.63602 0.0
C139 C 0.00722 0.98699 0.63789 0.0
C140 C 0.00976 0.01129 0.61751 0.0
C141 C 0.98224 0.90686 0.63686 0.0
C142 C 0.93083 0.96773 0.65313 0.0
H143 H 0.16037 0.0929 0.65744 0.0
H144 H 0.11331 0.13802 0.57745 0.0
H145 H 0.01863 0.13279 0.60457 0.0
H146 H 0.98308 0.09281 0.59044 0.0
H147 H 0.02193 0.12388 0.57422 0.0
H148 H 0.10261 0.03072 0.57786 0.0
H149 H 0.06969 0.06772 0.55938 0.0
H150 H 0.04478 0.01854 0.57029 0.0
H151 H 0.12097 0.00449 0.72434 0.0
H152 H 0.0133 0.90669 0.72227 0.0
H153 H 0.9925 0.92411 0.68259 0.0
H154 H 0.15673 0.97749 0.67663 0.0
H155 H 0.17743 0.02878 0.68876 0.0
H156 H 0.16541 0.02148 0.65809 0.0
H157 H 0.06549 0.0785 0.69647 0.0
H158 H 0.10141 0.10242 0.67715 0.0
H159 H 0.12594 0.07962 0.7037 0.0
H160 H 0.20458 0.14698 0.63907 0.0
C161 C 0.14911 0.10158 0.64016 0.0
C162 C 0.66038 0.47689 0.93327 0.0
C163 C 0.6907 0.44708 0.92383 0.0
C164 C 0.68094 0.43134 0.90121 0.0
C165 C 0.61215 0.47503 0.89749 0.0
C166 C 0.62158 0.49083 0.91966 0.0
C167 C 0.58653 0.52403 0.92621 0.0
H168 H 0.40028 0.64702 0.89277 0.0
C169 C 0.56997 0.4961 0.8877 0.0
C170 C 0.55477 0.52527 0.90434 0.0
H171 H 0.47581 0.64896 0.95921 0.0
H172 H 0.52488 0.5905 0.94676 0.0
H173 H 0.48452 0.63937 0.86246 0.0
H174 H 0.39467 0.54341 0.88888 0.0
H175 H 0.40624 0.52439 0.86142 0.0
H176 H 0.37798 0.57661 0.86436 0.0
H177 H 0.42657 0.6318 0.8511 0.0
H178 H 0.47269 0.60059 0.84034 0.0
C179 C 0.61113 0.56857 0.93111 0.0
C180 C 0.56227 0.5058 0.94685 0.0
C181 C 0.50867 0.45783 0.80595 0.0
C182 C 0.47219 0.47439 0.7915 0.0
C183 C 0.44333 0.50627 0.80046 0.0
C184 C 0.45103 0.52184 0.82308 0.0
C185 C 0.48831 0.50587 0.83702 0.0
C186 C 0.51623 0.47423 0.82846 0.0
C187 C 0.55513 0.4623 0.84553 0.0
C188 C 0.54552 0.49171 0.86583 0.0
C189 C 0.50643 0.51707 0.86069 0.0
C190 C 0.60053 0.4748 0.83508 0.0
C191 C 0.55043 0.41289 0.85133 0.0
C192 C 0.42764 0.63512 0.90459 0.0
C193 C 0.43476 0.65297 0.92681 0.0
C194 C 0.46989 0.63574 0.94193 0.0
C195 C 0.4984 0.60203 0.93463 0.0
C196 C 0.49142 0.58523 0.91205 0.0
C197 C 0.4559 0.60141 0.89767 0.0
C198 C 0.45194 0.57905 0.87461 0.0
C199 C 0.49151 0.54728 0.87717 0.0
C200 C 0.51503 0.5511 0.89902 0.0
C201 C 0.45892 0.61428 0.85601 0.0
C202 C 0.40527 0.55476 0.87193 0.0
H203 H 0.6365 0.43147 0.87104 0.0
H204 H 0.66719 0.48957 0.95061 0.0
H205 H 0.55645 0.46971 0.94491 0.0
H206 H 0.52808 0.52007 0.94823 0.0
H207 H 0.58315 0.51152 0.96329 0.0
H208 H 0.63623 0.57491 0.9181 0.0
H209 H 0.62996 0.56866 0.94837 0.0
H210 H 0.58777 0.59692 0.93006 0.0
H211 H 0.53142 0.43311 0.79982 0.0
H212 H 0.41557 0.52047 0.78975 0.0
H213 H 0.42814 0.5465 0.82863 0.0
H214 H 0.59558 0.50203 0.82246 0.0
H215 H 0.61482 0.44638 0.82594 0.0
H216 H 0.62661 0.48756 0.84813 0.0
H217 H 0.51407 0.4041 0.85312 0.0
H218 H 0.56852 0.40391 0.86791 0.0
H219 H 0.563 0.39179 0.8375 0.0
H220 H 0.70344 0.40791 0.89372 0.0
C221 C 0.64188 0.44492 0.88808 0.0
C222 C 0.62248 0.63728 0.10068 0.0
C223 C 0.65701 0.66072 0.11369 0.0
C224 C 0.66791 0.64896 0.13677 0.0
C225 C 0.61148 0.59062 0.13356 0.0
C226 C 0.59987 0.60262 0.11104 0.0
C227 C 0.56118 0.57486 0.10024 0.0
H228 H 0.41438 0.40356 0.11015 0.0
C229 C 0.5829 0.55265 0.13907 0.0
C230 C 0.55313 0.54314 0.11969 0.0
H231 H 0.41976 0.49259 0.05287 0.0
H232 H 0.48313 0.53172 0.0729 0.0
H233 H 0.52153 0.39094 0.11971 0.0
H234 H 0.42635 0.47835 0.14931 0.0
H235 H 0.46235 0.4569 0.17192 0.0
H236 H 0.42682 0.42002 0.15409 0.0
H237 H 0.48308 0.3723 0.14017 0.0
H238 H 0.53837 0.39524 0.14919 0.0
C239 C 0.57809 0.55077 0.07901 0.0
C240 C 0.51962 0.60522 0.09468 0.0
C241 C 0.60594 0.48297 0.21805 0.0
C242 C 0.58623 0.44636 0.22826 0.0
C243 C 0.55422 0.42051 0.2148 0.0
C244 C 0.54109 0.43172 0.19195 0.0
C245 C 0.56019 0.46915 0.18228 0.0
C246 C 0.59271 0.49348 0.19518 0.0
C247 C 0.61049 0.53133 0.18192 0.0
C248 C 0.58253 0.5263 0.15908 0.0
C249 C 0.55285 0.49014 0.15945 0.0
C250 C 0.6621 0.5236 0.1795 0.0
C251 C 0.59915 0.57468 0.1945 0.0
C252 C 0.42947 0.43121 0.10179 0.0
C253 C 0.4123 0.44481 0.07984 0.0
C254 C 0.43229 0.48161 0.06981 0.0
C255 C 0.46908 0.50419 0.08145 0.0
C256 C 0.48572 0.49017 0.10347 0.0
C257 C 0.46569 0.4543 0.11326 0.0
C258 C 0.48645 0.44467 0.13703 0.0
C259 C 0.52213 0.48078 0.14005 0.0
C260 C 0.52194 0.50726 0.12031 0.0
C261 C 0.50832 0.39831 0.13674 0.0
C262 C 0.44874 0.44988 0.15411 0.0
H263 H 0.65577 0.6067 0.16431 0.0
H264 H 0.61303 0.64605 0.08298 0.0
H265 H 0.51879 0.63252 0.10748 0.0
H266 H 0.48667 0.58797 0.09565 0.0
H267 H 0.52085 0.6202 0.0774 0.0
H268 H 0.61268 0.53685 0.08313 0.0
H269 H 0.58024 0.57373 0.06436 0.0
H270 H 0.55621 0.52264 0.07326 0.0
H271 H 0.63024 0.50399 0.22779 0.0
H272 H 0.53907 0.39161 0.22196 0.0
H273 H 0.51623 0.411 0.18276 0.0
H274 H 0.66983 0.48784 0.17837 0.0
H275 H 0.68308 0.53727 0.19454 0.0
H276 H 0.67413 0.53752 0.16354 0.0
H277 H 0.56601 0.57189 0.20249 0.0
H278 H 0.59478 0.60304 0.18277 0.0
H279 H 0.62579 0.58278 0.20842 0.0
H280 H 0.69458 0.66631 0.14705 0.0
C281 C 0.6455 0.61409 0.14672 0.0
H282 H 0.12785 0.16701 0.07113 0.0
H283 H 0.16459 0.23892 0.07123 0.0
H284 H 0.12803 0.25113 -0.00154 0.0
H285 H 0.0912 0.17832 -0.0017 0.0
H286 H 0.21997 0.25824 0.00917 0.0
H287 H 0.13183 0.36795 0.06705 0.0
H288 H 0.14211 0.31544 0.08024 0.0
H289 H 0.10506 0.3191 0.05426 0.0
C290 C 0.12617 0.18568 0.05531 0.0
C291 C 0.10666 0.16714 0.03472 0.0
C292 C 0.14697 0.227 0.0554 0.0
C293 C 0.14881 0.25073 0.0349 0.0
C294 C 0.12666 0.23358 0.01453 0.0
H295 H 0.33453 0.47888 0.05783 0.0
H296 H 0.26727 0.43794 0.0415 0.0
C297 C 0.10533 0.19217 0.01447 0.0
C298 C 0.18031 0.28904 0.03449 0.0
H299 H 0.21411 0.38031 0.06585 0.0
C300 C 0.218 0.28566 0.02108 0.0
C301 C 0.17768 0.32519 0.04978 0.0
C302 C 0.13667 0.33237 0.06345 0.0
C303 C 0.25492 0.31512 0.02409 0.0
C304 C 0.25438 0.34844 0.04115 0.0
C305 C 0.21491 0.35431 0.05303 0.0
C306 C 0.29615 0.37371 0.04888 0.0
C307 C 0.29503 0.30915 0.00964 0.0
C308 C 0.33462 0.3512 0.05838 0.0
C309 C 0.37278 0.37437 0.06772 0.0
C310 C 0.37332 0.42063 0.06783 0.0
C311 C 0.33524 0.44324 0.05778 0.0
C312 C 0.29678 0.41994 0.04855 0.0
H313 H 0.28437 0.29339 0.99282 0.0
H314 H 0.31182 0.34111 0.00646 0.0
H315 H 0.32043 0.28732 0.01881 0.0
H316 H 0.33462 0.31559 0.05924 0.0
H317 H 0.40167 0.35603 0.07522 0.0
H318 H 0.22596 0.99865 0.99119 0.0
H319 H 0.27459 0.94428 0.97404 0.0
H320 H 0.15837 0.85798 0.96118 0.0
H321 H 0.10927 0.9134 0.97748 0.0
H322 H 0.29163 0.86787 0.99252 0.0
H323 H 0.22005 0.83946 0.90301 0.0
H324 H 0.20355 0.8858 0.92004 0.0
H325 H 0.17829 0.83247 0.92366 0.0
C326 C 0.21062 0.96862 0.98401 0.0
C327 C 0.16398 0.96015 0.98554 0.0
C328 C 0.2384 0.9375 0.97431 0.0
C329 C 0.22027 0.89694 0.96629 0.0
C330 C 0.1731 0.88929 0.96679 0.0
H331 H 0.38811 0.65982 0.96566 0.0
H332 H 0.33511 0.7182 0.97532 0.0
C333 C 0.14505 0.9209 0.97616 0.0
C334 C 0.25171 0.8612 0.96011 0.0
H335 H 0.27343 0.78602 0.9185 0.0
C336 C 0.28779 0.85024 0.97623 0.0
C337 C 0.24689 0.83824 0.93886 0.0
C338 C 0.21038 0.84987 0.92032 0.0
C339 C 0.31918 0.81717 0.97174 0.0
C340 C 0.3135 0.79312 0.95084 0.0
C341 C 0.27752 0.80413 0.93464 0.0
C342 C 0.34535 0.75739 0.94516 0.0
C343 C 0.35877 0.80926 0.98923 0.0
C344 C 0.36797 0.75941 0.92479 0.0
C345 C 0.39763 0.72587 0.91913 0.0
C346 C 0.40548 0.68965 0.93378 0.0
C347 C 0.3832 0.68773 0.95427 0.0
C348 C 0.35299 0.72108 0.95979 0.0
H349 H 0.36571 0.83843 0.00058 0.0
H350 H 0.35046 0.78122 0.00031 0.0
H351 H 0.39035 0.8012 0.98073 0.0
H352 H 0.36273 0.78706 0.91325 0.0
H353 H 0.4145 0.72821 0.90325 0.0
H354 H 0.97192 0.91439 0.04394 0.0
H355 H 0.92355 0.85931 0.06102 0.0
H356 H 0.80599 0.94207 0.04657 0.0
H357 H 0.85399 0.99653 0.02909 0.0
H358 H 0.86737 0.85687 0.09552 0.0
H359 H 0.76645 0.83103 0.01253 0.0
H360 H 0.81833 0.86313 0.01495 0.0
H361 H 0.7652 0.88719 0.02212 0.0
C362 C 0.93594 0.92116 0.0449 0.0
C363 C 0.91661 0.95962 0.03521 0.0
C364 C 0.90827 0.88958 0.05449 0.0
C365 C 0.86089 0.89598 0.05443 0.0
C366 C 0.84218 0.93575 0.04612 0.0
H367 H 0.67385 0.74302 0.13124 0.0
H368 H 0.723 0.79991 0.11658 0.0
C369 C 0.86967 0.96701 0.03634 0.0
C370 C 0.83074 0.8606 0.06227 0.0
H371 H 0.73704 0.79824 0.04542 0.0
C372 C 0.83893 0.844 0.08459 0.0
C373 C 0.79432 0.84289 0.04773 0.0
C374 C 0.7858 0.85662 0.02293 0.0
C375 C 0.81099 0.81112 0.09304 0.0
C376 C 0.77308 0.79513 0.07892 0.0
C377 C 0.76563 0.81093 0.05638 0.0
C378 C 0.74102 0.7617 0.08708 0.0
C379 C 0.82306 0.79335 0.11684 0.0
C380 C 0.73259 0.72227 0.07468 0.0
C381 C 0.70365 0.6901 0.08278 0.0
C382 C 0.68289 0.69673 0.10349 0.0
C383 C 0.68998 0.73685 0.1154 0.0
C384 C 0.71838 0.76919 0.10715 0.0
H385 H 0.85973 0.7987 0.12225 0.0
H386 H 0.80276 0.81085 0.12937 0.0
H387 H 0.81547 0.75759 0.1177 0.0
H388 H 0.74931 0.71591 0.05903 0.0
H389 H 0.69893 0.65937 0.07334 0.0
H390 H 0.01621 0.18434 0.96403 0.0
H391 H 0.98114 0.25674 0.95769 0.0
H392 H 0.90863 0.24075 0.01892 0.0
H393 H 0.94493 0.16917 0.02556 0.0
H394 H 0.89134 0.25615 0.94842 0.0
H395 H 0.93015 0.37187 0.02103 0.0
H396 H 0.9648 0.32408 0.0163 0.0
H397 H 0.91259 0.31874 0.03041 0.0
C398 C 0.99479 0.19755 0.97678 0.0
C399 C 0.9837 0.1718 0.99545 0.0
C400 C 0.97449 0.23873 0.97309 0.0
C401 C 0.94223 0.25441 0.98785 0.0
C402 C 0.9341 0.23008 0.00758 0.0
H403 H 0.69702 0.4089 0.96638 0.0
H404 H 0.76264 0.36801 0.98396 0.0
C405 C 0.95484 0.18911 0.01138 0.0
C406 C 0.9107 0.29051 0.98014 0.0
H407 H 0.86173 0.38656 0.99677 0.0
C408 C 0.88558 0.28505 0.95885 0.0
C409 C 0.90242 0.32782 0.99391 0.0
C410 C 0.92924 0.33623 0.01659 0.0
C411 C 0.85185 0.31508 0.95118 0.0
C412 C 0.84328 0.35223 0.96497 0.0
C413 C 0.86848 0.3581 0.98621 0.0
C414 C 0.80746 0.38437 0.95738 0.0
C415 C 0.82454 0.30599 0.92863 0.0
C416 C 0.81167 0.40865 0.93724 0.0
C417 C 0.77432 0.43154 0.92714 0.0
C418 C 0.73223 0.43103 0.93716 0.0
C419 C 0.72915 0.4099 0.95838 0.0
C420 C 0.76655 0.38656 0.9684 0.0
H421 H 0.82835 0.27143 0.92273 0.0
H422 H 0.78772 0.31258 0.93017 0.0
H423 H 0.83662 0.32799 0.9152 0.0
H424 H 0.8431 0.40779 0.92861 0.0
H425 H 0.77769 0.44797 0.9109 0.0
H426 H 0.59224 0.67457 0.49176 0.0
H427 H 0.62923 0.7474 0.49101 0.0
H428 H 0.6473 0.74765 0.56513 0.0
H429 H 0.61137 0.67512 0.56594 0.0
H430 H 0.62385 0.83654 0.53911 0.0
H431 H 0.77349 0.73983 0.5136 0.0
H432 H 0.71839 0.73195 0.49837 0.0
H433 H 0.72774 0.71364 0.52751 0.0
C434 C 0.60255 0.69105 0.50787 0.0
C435 C 0.59929 0.66929 0.52891 0.0
C436 C 0.62382 0.73245 0.50742 0.0
C437 C 0.64129 0.7526 0.52802 0.0
C438 C 0.634 0.73267 0.54907 0.0
H439 H 0.81355 0.93517 0.59858 0.0
H440 H 0.74974 0.89202 0.58159 0.0
C441 C 0.61348 0.69125 0.54951 0.0
C442 C 0.67329 0.79039 0.52804 0.0
H443 H 0.78715 0.81174 0.52685 0.0
C444 C 0.65939 0.83159 0.53591 0.0
C445 C 0.71954 0.78384 0.52376 0.0
C446 C 0.73609 0.74001 0.51537 0.0
C447 C 0.69107 0.86589 0.54061 0.0
C448 C 0.73805 0.85816 0.53815 0.0
C449 C 0.7513 0.81778 0.52886 0.0
C450 C 0.77451 0.88898 0.54749 0.0
C451 C 0.67384 0.90973 0.54854 0.0
C452 C 0.81053 0.90124 0.53421 0.0
C453 C 0.84801 0.92505 0.54413 0.0
C454 C 0.85034 0.93693 0.5676 0.0
C455 C 0.81338 0.92602 0.58057 0.0
C456 C 0.77625 0.90198 0.57072 0.0
H457 H 0.63884 0.91614 0.54075 0.0
H458 H 0.67203 0.90927 0.5675 0.0
H459 H 0.6965 0.9372 0.54405 0.0
H460 H 0.81027 0.89127 0.51631 0.0
H461 H 0.87598 0.93251 0.53366 0.0
H462 H 0.61041 0.4105 0.48003 0.0
H463 H 0.66012 0.3534 0.46558 0.0
H464 H 0.77761 0.43618 0.48245 0.0
H465 H 0.72829 0.49242 0.49762 0.0
H466 H 0.72101 0.34608 0.43353 0.0
H467 H 0.81017 0.32898 0.52006 0.0
H468 H 0.75925 0.3615 0.51503 0.0
H469 H 0.81409 0.3839 0.50929 0.0
C470 C 0.64677 0.41669 0.48024 0.0
C471 C 0.66569 0.45559 0.49005 0.0
C472 C 0.67514 0.38406 0.47208 0.0
C473 C 0.72274 0.38998 0.47362 0.0
C474 C 0.74117 0.43028 0.48182 0.0
H475 H 0.91856 0.22709 0.40797 0.0
H476 H 0.86627 0.2849 0.41876 0.0
C477 C 0.71298 0.46252 0.49028 0.0
C478 C 0.75332 0.35344 0.46773 0.0
H479 H 0.84392 0.29248 0.48927 0.0
C480 C 0.74775 0.33418 0.44574 0.0
C481 C 0.78747 0.33712 0.48388 0.0
C482 C 0.79282 0.3536 0.50845 0.0
C483 C 0.77619 0.29986 0.43924 0.0
C484 C 0.81211 0.28539 0.45494 0.0
C485 C 0.81688 0.30395 0.47712 0.0
C486 C 0.8451 0.25102 0.44882 0.0
C487 C 0.7667 0.27893 0.41579 0.0
C488 C 0.85261 0.21381 0.46281 0.0
C489 C 0.88344 0.18128 0.45699 0.0
C490 C 0.90695 0.18529 0.43698 0.0
C491 C 0.90034 0.22303 0.42334 0.0
C492 C 0.87013 0.25582 0.42936 0.0
H493 H 0.73049 0.28329 0.4093 0.0
H494 H 0.7883 0.29497 0.4034 0.0
H495 H 0.77446 0.24318 0.41614 0.0
H496 H 0.83401 0.20955 0.47804 0.0
H497 H 0.88782 0.15237 0.4677 0.0
H498 H 0.35056 0.48303 0.52014 0.0
H499 H 0.30423 0.42696 0.53744 0.0
H500 H 0.42642 0.35832 0.56187 0.0
H501 H 0.47304 0.41413 0.54417 0.0
H502 H 0.36106 0.30569 0.53622 0.0
H503 H 0.28124 0.3996 0.60466 0.0
H504 H 0.27671 0.42562 0.57699 0.0
H505 H 0.33195 0.4184 0.59186 0.0
C506 C 0.36756 0.45643 0.52959 0.0
C507 C 0.41539 0.45321 0.53109 0.0
C508 C 0.34108 0.42456 0.53957 0.0
C509 C 0.36189 0.38877 0.55118 0.0
C510 C 0.40973 0.38592 0.55315 0.0
H511 H 0.25568 0.14911 0.60746 0.0
H512 H 0.30357 0.20732 0.59325 0.0
C513 C 0.43631 0.41794 0.5432 0.0
C514 C 0.33344 0.35249 0.55935 0.0
H515 H 0.24879 0.32942 0.59468 0.0
C516 C 0.3368 0.31073 0.54916 0.0
C517 C 0.30157 0.35931 0.57607 0.0
C518 C 0.2978 0.40304 0.58821 0.0
C519 C 0.30848 0.27578 0.5549 0.0
C520 C 0.2764 0.28264 0.57153 0.0
C521 C 0.27317 0.32435 0.58181 0.0
C522 C 0.24705 0.2465 0.5791 0.0
C523 C 0.31241 0.23206 0.54277 0.0
C524 C 0.19928 0.24928 0.57595 0.0
C525 C 0.1717 0.21602 0.58416 0.0
C526 C 0.19151 0.17977 0.59592 0.0
C527 C 0.23939 0.17681 0.59864 0.0
C528 C 0.26683 0.20988 0.59038 0.0
H529 H 0.32963 0.23539 0.5265 0.0
H530 H 0.33294 0.20931 0.55415 0.0
H531 H 0.27826 0.21693 0.53878 0.0
H532 H 0.18337 0.27741 0.56735 0.0
H533 H 0.13495 0.2194 0.58199 0.0
H534 H 0.49582 0.67866 0.52353 0.0
H535 H 0.46152 0.75249 0.52315 0.0
H536 H 0.4221 0.73715 0.45071 0.0
H537 H 0.45672 0.66451 0.45095 0.0
H538 H 0.44546 0.82396 0.46296 0.0
H539 H 0.32147 0.75136 0.52035 0.0
H540 H 0.38078 0.75308 0.53043 0.0
H541 H 0.36227 0.71764 0.50675 0.0
C542 C 0.48135 0.69188 0.5074 0.0
C543 C 0.47842 0.6658 0.48731 0.0
C544 C 0.46136 0.73382 0.50724 0.0
C545 C 0.43834 0.7499 0.487 0.0
C546 C 0.43946 0.72543 0.46655 0.0
H547 H 0.19835 0.84481 0.43283 0.0
H548 H 0.26446 0.81026 0.45295 0.0
C549 C 0.45914 0.6838 0.46671 0.0
C550 C 0.40743 0.78848 0.48708 0.0
H551 H 0.29922 0.81448 0.5001 0.0
C552 C 0.41405 0.82284 0.47164 0.0
C553 C 0.36634 0.78671 0.49834 0.0
C554 C 0.35686 0.75023 0.51484 0.0
C555 C 0.37919 0.85314 0.46564 0.0
C556 C 0.33687 0.84919 0.47559 0.0
C557 C 0.33176 0.81734 0.49255 0.0
C558 C 0.29529 0.87146 0.46549 0.0
C559 C 0.38636 0.88663 0.44722 0.0
C560 C 0.29009 0.91739 0.4663 0.0
C561 C 0.25208 0.93734 0.45468 0.0
C562 C 0.21906 0.91157 0.44202 0.0
C563 C 0.2236 0.86555 0.44212 0.0
C564 C 0.26122 0.84576 0.45374 0.0
H565 H 0.42002 0.88297 0.43989 0.0
H566 H 0.35911 0.88347 0.43305 0.0
H567 H 0.38436 0.92027 0.45461 0.0
H568 H 0.31577 0.93777 0.4755 0.0
H569 H 0.24939 0.97289 0.45489 0.0
H570 H 0.07816 0.91775 0.08746 0.0
H571 H 0.05147 0.8954 0.1244 0.0
H572 H 0.94134 0.98897 0.11596 0.0
H573 H 0.96698 0.00994 0.07851 0.0
H574 H 0.05686 0.95224 0.15782 0.0
H575 H 0.87878 0.89256 0.14811 0.0
H576 H 0.91384 0.89717 0.12402 0.0
H577 H 0.88421 0.94453 0.13412 0.0
C578 C 0.04725 0.93229 0.09315 0.0
C579 C 0.02468 0.96565 0.08031 0.0
C580 C 0.03201 0.91953 0.11423 0.0
C581 C 0.99443 0.9405 0.12305 0.0
C582 C 0.96983 0.97161 0.1094 0.0
H583 H 0.94724 0.02947 0.25647 0.0
H584 H 0.94663 0.01325 0.21539 0.0
C585 C 0.98464 0.98381 0.08804 0.0
C586 C 0.98661 0.93601 0.14783 0.0
H587 H 0.90431 0.92294 0.18583 0.0
C588 C 0.02367 0.94477 0.16388 0.0
C589 C 0.94329 0.92656 0.15583 0.0
C590 C 0.9029 0.91423 0.13958 0.0
C591 C 0.01826 0.94614 0.18753 0.0
C592 C 0.97462 0.93885 0.19541 0.0
C593 C 0.9377 0.92866 0.1796 0.0
C594 C 0.96693 0.94539 0.21993 0.0
C595 C 0.05881 0.95715 0.20402 0.0
C596 C 0.97776 0.91219 0.23598 0.0
C597 C 0.97787 0.9212 0.25957 0.0
C598 C 0.96743 0.96368 0.26743 0.0
C599 C 0.95477 0.99624 0.25112 0.0
C600 C 0.95445 0.98711 0.2276 0.0
H601 H 0.09061 0.96178 0.19509 0.0
H602 H 0.05198 0.98779 0.21367 0.0
H603 H 0.06437 0.93036 0.21678 0.0
H604 H 0.9878 0.87986 0.23027 0.0
H605 H 0.98711 0.89521 0.27164 0.0
H606 H 0.99311 0.94137 0.92695 0.0
H607 H 0.02183 0.92043 0.89028 0.0
H608 H 0.15001 0.98483 0.91 0.0
H609 H 0.12057 0.0072 0.94667 0.0
H610 H 0.11183 0.01483 0.86986 0.0
H611 H 0.10976 0.83376 0.86573 0.0
H612 H 0.05661 0.85333 0.87503 0.0
H613 H 0.10872 0.86365 0.89261 0.0
C614 C 0.02784 0.95012 0.92373 0.0
C615 C 0.05473 0.97567 0.9397 0.0
C616 C 0.04446 0.93767 0.90284 0.0
C617 C 0.08839 0.95039 0.89749 0.0
C618 C 0.11622 0.97418 0.91389 0.0
H619 H 0.15225 0.95244 0.75127 0.0
H620 H 0.16727 0.94745 0.79314 0.0
C621 C 0.09951 0.98669 0.93489 0.0
C622 C 0.10136 0.94506 0.87348 0.0
H623 H 0.09449 0.87155 0.82872 0.0
C624 C 0.10958 0.9833 0.86099 0.0
C625 C 0.09854 0.90393 0.8619 0.0
C626 C 0.09343 0.86134 0.87463 0.0
C627 C 0.111 0.98197 0.83697 0.0
C628 C 0.10413 0.9414 0.82523 0.0
C629 C 0.09926 0.90269 0.83781 0.0
C630 C 0.09633 0.93977 0.79988 0.0
C631 C 0.11658 0.02434 0.82408 0.0
C632 C 0.05156 0.93643 0.78992 0.0
C633 C 0.04273 0.93991 0.76612 0.0
C634 C 0.07861 0.94651 0.75176 0.0
C635 C 0.12372 0.94811 0.76181 0.0
C636 C 0.13247 0.94492 0.78569 0.0
H637 H 0.1199 0.05343 0.83575 0.0
H638 H 0.14748 0.02242 0.81424 0.0
H639 H 0.08678 0.02925 0.8115 0.0
H640 H 0.02323 0.9328 0.80067 0.0
H641 H 0.00756 0.93921 0.75912 0.0
H642 H 0.45074 0.50389 0.57066 0.0
H643 H 0.41601 0.48385 0.60618 0.0
H644 H 0.54376 0.42741 0.63261 0.0
H645 H 0.57734 0.44447 0.59674 0.0
H646 H 0.47338 0.38183 0.64729 0.0
H647 H 0.44749 0.5616 0.66103 0.0
H648 H 0.41673 0.53776 0.63622 0.0
H649 H 0.47802 0.5408 0.63757 0.0
C650 C 0.47076 0.48568 0.5837 0.0
C651 C 0.51671 0.47566 0.58093 0.0
C652 C 0.45112 0.47486 0.60414 0.0
C653 C 0.47765 0.45518 0.62231 0.0
C654 C 0.52261 0.44273 0.6189 0.0
H655 H 0.53864 0.45645 0.76214 0.0
H656 H 0.52912 0.44308 0.72078 0.0
C657 C 0.5419 0.4528 0.59843 0.0
C658 C 0.46147 0.45178 0.64579 0.0
H659 H 0.43811 0.51531 0.69208 0.0
C660 C 0.4647 0.41089 0.65695 0.0
C661 C 0.45034 0.48979 0.65846 0.0
C662 C 0.44821 0.53505 0.64785 0.0
C663 C 0.45992 0.40752 0.68069 0.0
C664 C 0.45123 0.44583 0.69342 0.0
C665 C 0.44464 0.48605 0.68207 0.0
C666 C 0.45546 0.44643 0.71882 0.0
C667 C 0.46637 0.36356 0.69229 0.0
C668 C 0.41703 0.45204 0.73139 0.0
C669 C 0.42223 0.45887 0.75521 0.0
C670 C 0.46606 0.46121 0.76677 0.0
C671 C 0.50435 0.45412 0.75405 0.0
C672 C 0.49903 0.44666 0.73034 0.0
H673 H 0.46402 0.3359 0.67967 0.0
H674 H 0.50056 0.36271 0.70174 0.0
H675 H 0.44045 0.3587 0.70501 0.0
H676 H 0.38315 0.45219 0.72268 0.0
H677 H 0.39191 0.46333 0.76447 0.0
H678 H 0.62806 0.49827 0.44877 0.0
H679 H 0.66123 0.47619 0.41299 0.0
H680 H 0.53391 0.41396 0.38939 0.0
H681 H 0.5018 0.43362 0.42538 0.0
H682 H 0.60578 0.36909 0.37456 0.0
H683 H 0.62314 0.54843 0.35708 0.0
H684 H 0.65582 0.52776 0.38192 0.0
H685 H 0.59457 0.52856 0.38132 0.0
C686 C 0.60787 0.47839 0.43631 0.0
C687 C 0.56232 0.46773 0.43983 0.0
C688 C 0.6266 0.46636 0.41573 0.0
C689 C 0.59964 0.44441 0.39825 0.0
C690 C 0.55534 0.43105 0.40254 0.0
H691 H 0.52807 0.41673 0.2595 0.0
H692 H 0.54339 0.40882 0.30092 0.0
C693 C 0.5369 0.44255 0.42309 0.0
C694 C 0.6144 0.43957 0.37452 0.0
H695 H 0.63082 0.4999 0.32651 0.0
C696 C 0.61225 0.39761 0.36416 0.0
C697 C 0.6228 0.47683 0.3609 0.0
C698 C 0.62397 0.523 0.37073 0.0
C699 C 0.61538 0.39227 0.34036 0.0
C700 C 0.62085 0.42978 0.32664 0.0
C701 C 0.62658 0.47125 0.33718 0.0
C702 C 0.61443 0.4279 0.30121 0.0
C703 C 0.61091 0.34678 0.32991 0.0
C704 C 0.64941 0.44102 0.2876 0.0
C705 C 0.64093 0.44507 0.26375 0.0
C706 C 0.59702 0.4369 0.25315 0.0
C707 C 0.56248 0.42253 0.26688 0.0
C708 C 0.57115 0.41802 0.29064 0.0
H709 H 0.62002 0.32097 0.34285 0.0
H710 H 0.57497 0.34124 0.32323 0.0
H711 H 0.63296 0.34315 0.31532 0.0
H712 H 0.68296 0.44908 0.2955 0.0
H713 H 0.66859 0.45547 0.25371 0.0
loop_
_geom_bond_atom_site_label_1
_geom_bond_atom_site_label_2
_geom_bond_distance
_geom_bond_site_symmetry_2
_ccdc_geom_bond_type
Zn0 O6 1.899 1_546 S
Zn0 O12 1.898 . S
Zn0 O15 1.905 1_545 S
Zn1 O9 1.905 . S
Zn1 O10 1.898 1_545 S
Zn1 O18 1.920 1_545 S
Zn2 O5 2.080 1_445 S
Zn2 O8 2.114 . S
Zn2 O11 2.120 1_545 S
Zn2 O13 2.120 1_455 S
Zn2 O14 2.114 1_554 S
Zn2 O17 2.080 . S
C3 O8 1.166 . S
C3 O9 1.182 . S
C4 O10 1.167 . S
C4 O11 1.299 . S
O5 Zn2 2.080 1_665 S
O5 C19 1.305 . S
O6 Zn0 1.899 1_564 S
O6 C19 1.250 . S
C7 O12 1.169 . S
C7 O13 1.297 1_556 S
O8 Zn2 2.114 . S
O8 C3 1.166 . S
O9 Zn1 1.905 . S
O9 C3 1.182 . S
O10 Zn1 1.898 1_565 S
O10 C4 1.167 . S
O11 Zn2 2.120 1_565 S
O11 C4 1.299 . S
O12 Zn0 1.898 . S
O12 C7 1.169 . S
O13 Zn2 2.120 1_655 S
O13 C7 1.297 1_554 S
O14 Zn2 2.114 1_556 S
O14 C16 1.166 1_545 S
O15 Zn0 1.905 1_565 S
O15 C16 1.182 1_655 S
C16 O14 1.166 1_565 S
C16 O15 1.182 1_455 S
O17 Zn2 2.080 . S
O17 C20 1.305 1_545 S
O18 Zn1 1.920 1_565 S
O18 C20 1.234 . S
C19 O5 1.305 . S
C19 O6 1.250 . S
C20 O17 1.305 1_565 S
C20 O18 1.234 . S
Zn21 O27 1.920 . S
Zn21 O33 1.898 . S
Zn21 O36 1.905 . S
Zn22 O30 1.905 . S
Zn22 O31 1.898 . S
Zn22 O39 1.920 . S
Zn23 O26 2.080 . S
Zn23 O29 2.114 . S
Zn23 O32 2.120 . S
Zn23 O34 2.120 . S
Zn23 O35 2.114 . S
Zn23 O38 2.080 . S
C24 O29 1.166 . S
C24 O30 1.182 . S
C25 O31 1.167 . S
C25 O32 1.299 . S
O26 Zn23 2.080 . S
O26 C40 1.305 . S
O27 Zn21 1.920 . S
O27 C40 1.234 . S
C28 O33 1.167 . S
C28 O34 1.299 . S
O29 Zn23 2.114 . S
O29 C24 1.166 . S
O30 Zn22 1.905 . S
O30 C24 1.182 . S
O31 Zn22 1.898 . S
O31 C25 1.167 . S
O32 Zn23 2.120 . S
O32 C25 1.299 . S
O33 Zn21 1.898 . S
O33 C28 1.167 . S
O34 Zn23 2.120 . S
O34 C28 1.299 . S
O35 Zn23 2.114 . S
O35 C37 1.166 . S
O36 Zn21 1.905 . S
O36 C37 1.182 . S
C37 O35 1.166 . S
C37 O36 1.182 . S
O38 Zn23 2.080 . S
O38 C41 1.305 . S
O39 Zn22 1.920 . S
O39 C41 1.234 . S
C40 O26 1.305 . S
C40 O27 1.234 . S
C41 O38 1.305 . S
C41 O39 1.234 . S
C42 C43 1.391 . S
C42 C46 1.391 . S
C42 H84 0.948 . S
C43 C42 1.391 . S
C43 C44 1.391 . S
C44 C43 1.391 . S
C44 H100 0.947 . S
C44 C101 1.392 . S
C45 C46 1.391 . S
C45 C49 1.397 1_565 S
C45 C101 1.419 . S
C46 C42 1.391 . S
C46 C45 1.391 . S
C46 C47 1.385 1_565 S
C47 C46 1.385 1_545 S
C47 C50 1.407 . S
C47 C59 1.468 . S
C47 C60 1.679 1_545 S
H48 C72 0.948 . S
C49 C45 1.397 1_545 S
C49 C50 1.394 . S
C49 C68 1.723 . S
C50 C47 1.407 . S
C50 C49 1.394 . S
C50 C80 1.723 . S
H51 C74 0.947 . S
H52 C75 0.948 . S
H53 C81 0.982 . S
H54 C82 0.979 . S
H55 C82 0.980 . S
H56 C82 0.983 . S
H57 C81 0.979 1_655 S
H58 C81 0.977 . S
C59 C47 1.468 . S
C59 H88 0.982 . S
C59 H89 0.979 . S
C59 H90 0.977 . S
C60 C47 1.679 1_565 S
C60 H85 0.979 . S
C60 H86 0.980 1_565 S
C60 H87 0.983 . S
C61 C62 1.391 . S
C61 C66 1.391 . S
C61 H91 0.948 1_545 S
C62 C61 1.391 . S
C62 C63 1.391 . S
C63 C62 1.391 . S
C63 C64 1.392 . S
C63 H92 0.947 . S
C64 C63 1.392 . S
C64 C65 1.419 . S
C64 H93 0.948 . S
C65 C64 1.419 . S
C65 C66 1.391 . S
C65 C69 1.397 . S
C66 C61 1.391 . S
C66 C65 1.391 . S
C66 C67 1.399 1_545 S
C67 C66 1.399 1_565 S
C67 C68 1.396 1_565 S
C67 C70 1.453 . S
C67 C71 1.684 . S
C68 C49 1.723 . S
C68 C67 1.396 1_545 S
C68 C69 1.394 . S
C69 C65 1.397 . S
C69 C68 1.394 . S
C69 C79 1.723 . S
C70 C67 1.453 . S
C70 H94 0.982 1_565 S
C70 H95 0.979 . S
C70 H96 0.977 . S
C71 C67 1.684 . S
C71 H97 0.979 . S
C71 H98 0.980 . S
C71 H99 0.983 . S
C72 H48 0.948 . S
C72 C73 1.391 . S
C72 C77 1.391 . S
C73 C72 1.391 . S
C73 C74 1.391 . S
C74 H51 0.947 . S
C74 C73 1.391 . S
C74 C75 1.392 1_655 S
C75 H52 0.948 . S
C75 C74 1.392 1_455 S
C75 C76 1.419 . S
C76 C75 1.419 . S
C76 C77 1.391 1_455 S
C76 C80 1.397 . S
C77 C72 1.391 . S
C77 C76 1.391 1_655 S
C77 C78 1.399 . S
C78 C77 1.399 . S
C78 C79 1.396 1_655 S
C78 C81 1.453 1_655 S
C78 C82 1.684 . S
C79 C69 1.723 . S
C79 C78 1.396 1_455 S
C79 C80 1.394 . S
C80 C50 1.723 . S
C80 C76 1.397 . S
C80 C79 1.394 . S
C81 H53 0.982 . S
C81 H57 0.979 1_455 S
C81 H58 0.977 . S
C81 C78 1.453 1_455 S
C82 H54 0.979 . S
C82 H55 0.980 . S
C82 H56 0.983 . S
C82 C78 1.684 . S
H83 C101 0.948 . S
H84 C42 0.948 . S
H85 C60 0.979 . S
H86 C60 0.980 1_545 S
H87 C60 0.983 . S
H88 C59 0.982 . S
H89 C59 0.979 . S
H90 C59 0.977 . S
H91 C61 0.948 1_565 S
H92 C63 0.947 . S
H93 C64 0.948 . S
H94 C70 0.982 1_545 S
H95 C70 0.979 . S
H96 C70 0.977 . S
H97 C71 0.979 . S
H98 C71 0.980 . S
H99 C71 0.983 . S
H100 C44 0.947 . S
C101 C44 1.392 . S
C101 C45 1.419 . S
C101 H83 0.948 . S
C102 C103 1.391 . S
C102 C106 1.391 . S
C102 H144 0.948 . S
C103 C102 1.391 . S
C103 C104 1.391 . S
C104 C103 1.391 . S
C104 H160 0.947 . S
C104 C161 1.392 . S
C105 C106 1.391 . S
C105 C109 1.397 . S
C105 C161 1.419 . S
C106 C102 1.391 . S
C106 C105 1.391 . S
C106 C107 1.399 . S
C107 C106 1.399 . S
C107 C110 1.396 . S
C107 C119 1.453 . S
C107 C120 1.684 1_455 S
H108 C132 0.948 . S
C109 C105 1.397 . S
C109 C110 1.394 . S
C109 C128 1.723 . S
C110 C107 1.396 . S
C110 C109 1.394 . S
C110 C140 1.723 1_455 S
H111 C134 0.947 . S
H112 C135 0.948 . S
H113 C141 0.982 . S
H114 C142 0.979 . S
H115 C142 0.980 . S
H116 C142 0.983 . S
H117 C141 0.979 . S
H118 C141 0.977 . S
C119 C107 1.453 . S
C119 H148 0.982 . S
C119 H149 0.979 . S
C119 H150 0.977 . S
C120 C107 1.684 1_655 S
C120 H145 0.979 . S
C120 H146 0.980 . S
C120 H147 0.983 1_655 S
C121 C122 1.391 1_455 S
C121 C126 1.391 . S
C121 H151 0.948 . S
C122 C121 1.391 1_655 S
C122 C123 1.407 . S
C123 C122 1.407 . S
C123 C124 1.391 1_545 S
C123 H152 0.933 1_545 S
C124 C123 1.391 1_565 S
C124 C125 1.419 1_565 S
C124 H153 0.948 . S
C125 C124 1.419 1_545 S
C125 C126 1.391 1_655 S
C125 C129 1.397 . S
C126 C121 1.391 . S
C126 C125 1.391 1_455 S
C126 C127 1.399 . S
C127 C126 1.399 . S
C127 C128 1.396 . S
C127 C130 1.453 . S
C127 C131 1.684 . S
C128 C109 1.723 . S
C128 C127 1.396 . S
C128 C129 1.394 1_455 S
C129 C125 1.397 . S
C129 C128 1.394 1_655 S
C129 C139 1.723 1_545 S
C130 C127 1.453 . S
C130 H154 0.982 . S
C130 H155 0.979 . S
C130 H156 0.977 . S
C131 C127 1.684 . S
C131 H157 0.979 . S
C131 H158 0.980 . S
C131 H159 0.983 . S
C132 H108 0.948 . S
C132 C133 1.391 . S
C132 C137 1.391 . S
C133 C132 1.391 . S
C133 C134 1.391 . S
C134 H111 0.947 . S
C134 C133 1.391 . S
C134 C135 1.392 . S
C135 H112 0.948 . S
C135 C134 1.392 . S
C135 C136 1.419 . S
C136 C135 1.419 . S
C136 C137 1.391 . S
C136 C140 1.397 1_565 S
C137 C132 1.391 . S
C137 C136 1.391 . S
C137 C138 1.399 . S
C138 C137 1.399 . S
C138 C139 1.396 . S
C138 C141 1.453 . S
C138 C142 1.684 . S
C139 C129 1.723 1_565 S
C139 C138 1.396 . S
C139 C140 1.394 1_565 S
C140 C110 1.723 1_655 S
C140 C136 1.397 1_545 S
C140 C139 1.394 1_545 S
C141 H113 0.982 . S
C141 H117 0.979 . S
C141 H118 0.977 . S
C141 C138 1.453 . S
C142 H114 0.979 . S
C142 H115 0.980 . S
C142 H116 0.983 . S
C142 C138 1.684 . S
H143 C161 0.948 . S
H144 C102 0.948 . S
H145 C120 0.979 . S
H146 C120 0.980 . S
H147 C120 0.983 1_455 S
H148 C119 0.982 . S
H149 C119 0.979 . S
H150 C119 0.977 . S
H151 C121 0.948 . S
H152 C123 0.933 1_565 S
H153 C124 0.948 . S
H154 C130 0.982 . S
H155 C130 0.979 . S
H156 C130 0.977 . S
H157 C131 0.979 . S
H158 C131 0.980 . S
H159 C131 0.983 . S
H160 C104 0.947 . S
C161 C104 1.392 . S
C161 C105 1.419 . S
C161 H143 0.948 . S
C162 C163 1.391 . S
C162 C166 1.391 . S
C162 H204 0.948 . S
C163 C162 1.391 . S
C163 C164 1.391 . S
C164 C163 1.391 . S
C164 H220 0.947 . S
C164 C221 1.392 . S
C165 C166 1.391 . S
C165 C169 1.397 . S
C165 C221 1.419 . S
C166 C162 1.391 . S
C166 C165 1.391 . S
C166 C167 1.399 . S
C167 C166 1.399 . S
C167 C170 1.396 . S
C167 C179 1.453 . S
C167 C180 1.684 . S
H168 C192 0.948 . S
C169 C165 1.397 . S
C169 C170 1.394 . S
C169 C188 1.723 . S
C170 C167 1.396 . S
C170 C169 1.394 . S
C170 C200 1.723 . S
H171 C194 0.947 . S
H172 C195 0.948 . S
H173 C201 0.982 . S
H174 C202 0.979 . S
H175 C202 0.980 . S
H176 C202 0.983 . S
H177 C201 0.979 . S
H178 C201 0.977 . S
C179 C167 1.453 . S
C179 H208 0.982 . S
C179 H209 0.979 . S
C179 H210 0.977 . S
C180 C167 1.684 . S
C180 H205 0.979 . S
C180 H206 0.980 . S
C180 H207 0.983 . S
C181 C182 1.391 . S
C181 C186 1.391 . S
C181 H211 0.948 . S
C182 C181 1.391 . S
C182 C183 1.391 . S
C183 C182 1.391 . S
C183 C184 1.392 . S
C183 H212 0.947 . S
C184 C183 1.392 . S
C184 C185 1.419 . S
C184 H213 0.948 . S
C185 C184 1.419 . S
C185 C186 1.391 . S
C185 C189 1.397 . S
C186 C181 1.391 . S
C186 C185 1.391 . S
C186 C187 1.399 . S
C187 C186 1.399 . S
C187 C188 1.396 . S
C187 C190 1.453 . S
C187 C191 1.684 . S
C188 C169 1.723 . S
C188 C187 1.396 . S
C188 C189 1.394 . S
C189 C185 1.397 . S
C189 C188 1.394 . S
C189 C199 1.723 . S
C190 C187 1.453 . S
C190 H214 0.982 . S
C190 H215 0.979 . S
C190 H216 0.977 . S
C191 C187 1.684 . S
C191 H217 0.979 . S
C191 H218 0.980 . S
C191 H219 0.983 . S
C192 H168 0.948 . S
C192 C193 1.391 . S
C192 C197 1.391 . S
C193 C192 1.391 . S
C193 C194 1.391 . S
C194 H171 0.947 . S
C194 C193 1.391 . S
C194 C195 1.392 . S
C195 H172 0.948 . S
C195 C194 1.392 . S
C195 C196 1.419 . S
C196 C195 1.419 . S
C196 C197 1.391 . S
C196 C200 1.397 . S
C197 C192 1.391 . S
C197 C196 1.391 . S
C197 C198 1.399 . S
C198 C197 1.399 . S
C198 C199 1.396 . S
C198 C201 1.453 . S
C198 C202 1.684 . S
C199 C189 1.723 . S
C199 C198 1.396 . S
C199 C200 1.394 . S
C200 C170 1.723 . S
C200 C196 1.397 . S
C200 C199 1.394 . S
C201 H173 0.982 . S
C201 H177 0.979 . S
C201 H178 0.977 . S
C201 C198 1.453 . S
C202 H174 0.979 . S
C202 H175 0.980 . S
C202 H176 0.983 . S
C202 C198 1.684 . S
H203 C221 0.948 . S
H204 C162 0.948 . S
H205 C180 0.979 . S
H206 C180 0.980 . S
H207 C180 0.983 . S
H208 C179 0.982 . S
H209 C179 0.979 . S
H210 C179 0.977 . S
H211 C181 0.948 . S
H212 C183 0.947 . S
H213 C184 0.948 . S
H214 C190 0.982 . S
H215 C190 0.979 . S
H216 C190 0.977 . S
H217 C191 0.979 . S
H218 C191 0.980 . S
H219 C191 0.983 . S
H220 C164 0.947 . S
C221 C164 1.392 . S
C221 C165 1.419 . S
C221 H203 0.948 . S
C222 C223 1.391 . S
C222 C226 1.391 . S
C222 H264 0.948 . S
C223 C222 1.391 . S
C223 C224 1.391 . S
C224 C223 1.391 . S
C224 H280 0.947 . S
C224 C281 1.392 . S
C225 C226 1.391 . S
C225 C229 1.397 . S
C225 C281 1.419 . S
C226 C222 1.391 . S
C226 C225 1.391 . S
C226 C227 1.399 . S
C227 C226 1.399 . S
C227 C230 1.396 . S
C227 C239 1.453 . S
C227 C240 1.684 . S
H228 C252 0.948 . S
C229 C225 1.397 . S
C229 C230 1.394 . S
C229 C248 1.723 . S
C230 C227 1.396 . S
C230 C229 1.394 . S
C230 C260 1.723 . S
H231 C254 0.947 . S
H232 C255 0.948 . S
H233 C261 0.982 . S
H234 C262 0.979 . S
H235 C262 0.980 . S
H236 C262 0.983 . S
H237 C261 0.979 . S
H238 C261 0.977 . S
C239 C227 1.453 . S
C239 H268 0.982 . S
C239 H269 0.979 . S
C239 H270 0.977 . S
C240 C227 1.684 . S
C240 H265 0.979 . S
C240 H266 0.980 . S
C240 H267 0.983 . S
C241 C242 1.391 . S
C241 C246 1.391 . S
C241 H271 0.948 . S
C242 C241 1.391 . S
C242 C243 1.391 . S
C243 C242 1.391 . S
C243 C244 1.392 . S
C243 H272 0.947 . S
C244 C243 1.392 . S
C244 C245 1.419 . S
C244 H273 0.948 . S
C245 C244 1.419 . S
C245 C246 1.391 . S
C245 C249 1.397 . S
C246 C241 1.391 . S
C246 C245 1.391 . S
C246 C247 1.399 . S
C247 C246 1.399 . S
C247 C248 1.396 . S
C247 C250 1.453 . S
C247 C251 1.684 . S
C248 C229 1.723 . S
C248 C247 1.396 . S
C248 C249 1.394 . S
C249 C245 1.397 . S
C249 C248 1.394 . S
C249 C259 1.723 . S
C250 C247 1.453 . S
C250 H274 0.982 . S
C250 H275 0.979 . S
C250 H276 0.977 . S
C251 C247 1.684 . S
C251 H277 0.979 . S
C251 H278 0.980 . S
C251 H279 0.983 . S
C252 H228 0.948 . S
C252 C253 1.391 . S
C252 C257 1.391 . S
C253 C252 1.391 . S
C253 C254 1.391 . S
C254 H231 0.947 . S
C254 C253 1.391 . S
C254 C255 1.392 . S
C255 H232 0.948 . S
C255 C254 1.392 . S
C255 C256 1.419 . S
C256 C255 1.419 . S
C256 C257 1.391 . S
C256 C260 1.397 . S
C257 C252 1.391 . S
C257 C256 1.391 . S
C257 C258 1.399 . S
C258 C257 1.399 . S
C258 C259 1.396 . S
C258 C261 1.453 . S
C258 C262 1.684 . S
C259 C249 1.723 . S
C259 C258 1.396 . S
C259 C260 1.394 . S
C260 C230 1.723 . S
C260 C256 1.397 . S
C260 C259 1.394 . S
C261 H233 0.982 . S
C261 H237 0.979 . S
C261 H238 0.977 . S
C261 C258 1.453 . S
C262 H234 0.979 . S
C262 H235 0.980 . S
C262 H236 0.983 . S
C262 C258 1.684 . S
H263 C281 0.948 . S
H264 C222 0.948 . S
H265 C240 0.979 . S
H266 C240 0.980 . S
H267 C240 0.983 . S
H268 C239 0.982 . S
H269 C239 0.979 . S
H270 C239 0.977 . S
H271 C241 0.948 . S
H272 C243 0.947 . S
H273 C244 0.948 . S
H274 C250 0.982 . S
H275 C250 0.979 . S
H276 C250 0.977 . S
H277 C251 0.979 . S
H278 C251 0.980 . S
H279 C251 0.983 . S
H280 C224 0.947 . S
C281 C224 1.392 . S
C281 C225 1.419 . S
C281 H263 0.948 . S
H282 C290 0.929 . S
H283 C292 0.930 . S
H284 C294 0.930 . S
H285 C297 0.929 1_556 S
H286 C300 0.930 . S
H287 C302 0.960 . S
H288 C302 0.960 . S
H289 C302 0.960 . S
C290 H282 0.929 . S
C290 C291 1.377 . S
C290 C292 1.384 . S
C291 C290 1.377 . S
C291 C297 1.390 . S
C292 H283 0.930 . S
C292 C290 1.384 . S
C292 C293 1.372 . S
C293 C292 1.372 . S
C293 C294 1.400 . S
C293 C298 1.490 . S
C294 H284 0.930 . S
C294 C293 1.400 . S
C294 C297 1.386 . S
H295 C311 0.930 . S
H296 C312 0.931 . S
C297 H285 0.929 1_554 S
C297 C291 1.390 . S
C297 C294 1.386 . S
C298 C293 1.490 . S
C298 C300 1.395 . S
C298 C301 1.403 . S
H299 C305 0.930 . S
C300 H286 0.930 . S
C300 C298 1.395 . S
C300 C303 1.403 . S
C301 C298 1.403 . S
C301 C302 1.524 . S
C301 C305 1.400 . S
C302 H287 0.960 . S
C302 H288 0.960 . S
C302 H289 0.960 . S
C302 C301 1.524 . S
C303 C300 1.403 . S
C303 C304 1.392 . S
C303 C307 1.495 . S
C304 C303 1.392 . S
C304 C305 1.385 . S
C304 C306 1.478 . S
C305 H299 0.930 . S
C305 C301 1.400 . S
C305 C304 1.385 . S
C306 C304 1.478 . S
C306 C308 1.381 . S
C306 C312 1.383 . S
C307 C303 1.495 . S
C307 H313 0.959 . S
C307 H314 0.961 . S
C307 H315 0.960 . S
C308 C306 1.381 . S
C308 C309 1.394 . S
C308 H316 0.930 . S
C309 C308 1.394 . S
C309 C310 1.383 . S
C309 H317 0.929 . S
C310 C309 1.383 . S
C310 C311 1.377 . S
C311 H295 0.930 . S
C311 C310 1.377 . S
C311 C312 1.379 . S
C312 H296 0.931 . S
C312 C306 1.383 . S
C312 C311 1.379 . S
H313 C307 0.959 . S
H314 C307 0.961 . S
H315 C307 0.960 . S
H316 C308 0.930 . S
H317 C309 0.929 . S
H318 C326 0.929 . S
H319 C328 0.930 . S
H320 C330 0.930 . S
H321 C333 0.932 . S
H322 C336 0.930 1_554 S
H323 C338 0.960 . S
H324 C338 0.960 . S
H325 C338 0.960 . S
C326 H318 0.929 . S
C326 C327 1.377 . S
C326 C328 1.384 . S
C327 C326 1.377 . S
C327 C333 1.390 . S
C328 H319 0.930 . S
C328 C326 1.384 . S
C328 C329 1.372 . S
C329 C328 1.372 . S
C329 C330 1.400 . S
C329 C334 1.490 . S
C330 H320 0.930 . S
C330 C329 1.400 . S
C330 C333 1.386 . S
H331 C347 0.930 . S
H332 C348 0.931 . S
C333 H321 0.932 . S
C333 C327 1.390 . S
C333 C330 1.386 . S
C334 C329 1.490 . S
C334 C336 1.395 . S
C334 C337 1.403 . S
H335 C341 0.930 . S
C336 H322 0.930 1_556 S
C336 C334 1.395 . S
C336 C339 1.403 . S
C337 C334 1.403 . S
C337 C338 1.524 . S
C337 C341 1.400 . S
C338 H323 0.960 . S
C338 H324 0.960 . S
C338 H325 0.960 . S
C338 C337 1.524 . S
C339 C336 1.403 . S
C339 C340 1.392 . S
C339 C343 1.495 1_556 S
C340 C339 1.392 . S
C340 C341 1.385 . S
C340 C342 1.478 . S
C341 H335 0.930 . S
C341 C337 1.400 . S
C341 C340 1.385 . S
C342 C340 1.478 . S
C342 C344 1.381 . S
C342 C348 1.383 . S
C343 C339 1.495 1_554 S
C343 H349 0.959 . S
C343 H350 0.961 . S
C343 H351 0.960 . S
C344 C342 1.381 . S
C344 C345 1.394 . S
C344 H352 0.930 . S
C345 C344 1.394 . S
C345 C346 1.383 . S
C345 H353 0.929 . S
C346 C345 1.383 . S
C346 C347 1.377 . S
C347 H331 0.930 . S
C347 C346 1.377 . S
C347 C348 1.379 . S
C348 H332 0.931 . S
C348 C342 1.383 . S
C348 C347 1.379 . S
H349 C343 0.959 . S
H350 C343 0.961 . S
H351 C343 0.960 . S
H352 C344 0.930 . S
H353 C345 0.929 . S
H354 C362 0.929 . S
H355 C364 0.930 . S
H356 C366 0.930 . S
H357 C369 0.929 . S
H358 C372 0.930 . S
H359 C374 0.960 . S
H360 C374 0.952 1_556 S
H361 C374 0.960 . S
C362 H354 0.929 . S
C362 C363 1.377 . S
C362 C364 1.384 . S
C363 C362 1.377 . S
C363 C369 1.390 . S
C364 H355 0.930 . S
C364 C362 1.384 . S
C364 C365 1.372 . S
C365 C364 1.372 . S
C365 C366 1.400 . S
C365 C370 1.490 . S
C366 H356 0.930 . S
C366 C365 1.400 . S
C366 C369 1.386 . S
H367 C383 0.930 . S
H368 C384 0.931 . S
C369 H357 0.929 . S
C369 C363 1.390 . S
C369 C366 1.386 . S
C370 C365 1.490 . S
C370 C372 1.395 . S
C370 C373 1.403 . S
H371 C377 0.930 . S
C372 H358 0.930 . S
C372 C370 1.395 . S
C372 C375 1.403 . S
C373 C370 1.403 . S
C373 C374 1.524 . S
C373 C377 1.400 . S
C374 H359 0.960 . S
C374 H360 0.952 1_554 S
C374 H361 0.960 . S
C374 C373 1.524 . S
C375 C372 1.403 . S
C375 C376 1.392 . S
C375 C379 1.495 . S
C376 C375 1.392 . S
C376 C377 1.385 . S
C376 C378 1.478 . S
C377 H371 0.930 . S
C377 C373 1.400 . S
C377 C376 1.385 . S
C378 C376 1.478 . S
C378 C380 1.381 . S
C378 C384 1.383 . S
C379 C375 1.495 . S
C379 H385 0.959 . S
C379 H386 0.961 . S
C379 H387 0.960 . S
C380 C378 1.381 . S
C380 C381 1.394 . S
C380 H388 0.930 . S
C381 C380 1.394 . S
C381 C382 1.383 . S
C381 H389 0.929 . S
C382 C381 1.383 . S
C382 C383 1.377 . S
C383 H367 0.930 . S
C383 C382 1.377 . S
C383 C384 1.379 . S
C384 H368 0.931 . S
C384 C378 1.383 . S
C384 C383 1.379 . S
H385 C379 0.959 . S
H386 C379 0.961 . S
H387 C379 0.960 . S
H388 C380 0.930 . S
H389 C381 0.929 . S
H390 C398 0.939 . S
H391 C400 0.930 . S
H392 C402 0.930 . S
H393 C405 0.929 . S
H394 C408 0.930 . S
H395 C410 0.960 . S
H396 C410 0.960 . S
H397 C410 0.960 . S
C398 H390 0.939 . S
C398 C399 1.377 1_556 S
C398 C400 1.384 . S
C399 C398 1.377 1_554 S
C399 C405 1.390 . S
C400 H391 0.930 . S
C400 C398 1.384 . S
C400 C401 1.372 . S
C401 C400 1.372 . S
C401 C402 1.400 1_556 S
C401 C406 1.490 . S
C402 H392 0.930 . S
C402 C401 1.400 1_554 S
C402 C405 1.386 . S
H403 C419 0.930 . S
H404 C420 0.931 . S
C405 H393 0.929 . S
C405 C399 1.390 . S
C405 C402 1.386 . S
C406 C401 1.490 . S
C406 C408 1.395 . S
C406 C409 1.403 1_556 S
H407 C413 0.930 1_554 S
C408 H394 0.930 . S
C408 C406 1.395 . S
C408 C411 1.403 . S
C409 C406 1.403 1_554 S
C409 C410 1.524 . S
C409 C413 1.400 1_554 S
C410 H395 0.960 . S
C410 H396 0.960 . S
C410 H397 0.960 . S
C410 C409 1.524 . S
C411 C408 1.403 . S
C411 C412 1.392 . S
C411 C415 1.495 . S
C412 C411 1.392 . S
C412 C413 1.385 . S
C412 C414 1.478 . S
C413 H407 0.930 1_556 S
C413 C409 1.400 1_556 S
C413 C412 1.385 . S
C414 C412 1.478 . S
C414 C416 1.381 . S
C414 C420 1.383 . S
C415 C411 1.495 . S
C415 H421 0.959 . S
C415 H422 0.961 . S
C415 H423 0.960 . S
C416 C414 1.381 . S
C416 C417 1.394 . S
C416 H424 0.930 . S
C417 C416 1.394 . S
C417 C418 1.383 . S
C417 H425 0.929 . S
C418 C417 1.383 . S
C418 C419 1.377 . S
C419 H403 0.930 . S
C419 C418 1.377 . S
C419 C420 1.379 . S
C420 H404 0.931 . S
C420 C414 1.383 . S
C420 C419 1.379 . S
H421 C415 0.959 . S
H422 C415 0.961 . S
H423 C415 0.960 . S
H424 C416 0.930 . S
H425 C417 0.929 . S
H426 C434 0.929 . S
H427 C436 0.930 . S
H428 C438 0.930 . S
H429 C441 0.929 . S
H430 C444 0.930 . S
H431 C446 0.960 . S
H432 C446 0.960 . S
H433 C446 0.960 . S
C434 H426 0.929 . S
C434 C435 1.377 . S
C434 C436 1.384 . S
C435 C434 1.377 . S
C435 C441 1.390 . S
C436 H427 0.930 . S
C436 C434 1.384 . S
C436 C437 1.372 . S
C437 C436 1.372 . S
C437 C438 1.400 . S
C437 C442 1.490 . S
C438 H428 0.930 . S
C438 C437 1.400 . S
C438 C441 1.386 . S
H439 C455 0.930 . S
H440 C456 0.931 . S
C441 H429 0.929 . S
C441 C435 1.390 . S
C441 C438 1.386 . S
C442 C437 1.490 . S
C442 C444 1.395 . S
C442 C445 1.403 . S
H443 C449 0.930 . S
C444 H430 0.930 . S
C444 C442 1.395 . S
C444 C447 1.403 . S
C445 C442 1.403 . S
C445 C446 1.524 . S
C445 C449 1.400 . S
C446 H431 0.960 . S
C446 H432 0.960 . S
C446 H433 0.960 . S
C446 C445 1.524 . S
C447 C444 1.403 . S
C447 C448 1.392 . S
C447 C451 1.495 . S
C448 C447 1.392 . S
C448 C449 1.385 . S
C448 C450 1.478 . S
C449 H443 0.930 . S
C449 C445 1.400 . S
C449 C448 1.385 . S
C450 C448 1.478 . S
C450 C452 1.381 . S
C450 C456 1.383 . S
C451 C447 1.495 . S
C451 H457 0.959 . S
C451 H458 0.961 . S
C451 H459 0.960 . S
C452 C450 1.381 . S
C452 C453 1.394 . S
C452 H460 0.930 . S
C453 C452 1.394 . S
C453 C454 1.383 . S
C453 H461 0.929 . S
C454 C453 1.383 . S
C454 C455 1.377 . S
C455 H439 0.930 . S
C455 C454 1.377 . S
C455 C456 1.379 . S
C456 H440 0.931 . S
C456 C450 1.383 . S
C456 C455 1.379 . S
H457 C451 0.959 . S
H458 C451 0.961 . S
H459 C451 0.960 . S
H460 C452 0.930 . S
H461 C453 0.929 . S
H462 C470 0.929 . S
H463 C472 0.930 . S
H464 C474 0.930 . S
H465 C477 0.929 . S
H466 C480 0.930 . S
H467 C482 0.960 . S
H468 C482 0.960 . S
H469 C482 0.960 . S
C470 H462 0.929 . S
C470 C471 1.377 . S
C470 C472 1.384 . S
C471 C470 1.377 . S
C471 C477 1.390 . S
C472 H463 0.930 . S
C472 C470 1.384 . S
C472 C473 1.372 . S
C473 C472 1.372 . S
C473 C474 1.400 . S
C473 C478 1.490 . S
C474 H464 0.930 . S
C474 C473 1.400 . S
C474 C477 1.386 . S
H475 C491 0.930 . S
H476 C492 0.931 . S
C477 H465 0.929 . S
C477 C471 1.390 . S
C477 C474 1.386 . S
C478 C473 1.490 . S
C478 C480 1.395 . S
C478 C481 1.403 . S
H479 C485 0.930 . S
C480 H466 0.930 . S
C480 C478 1.395 . S
C480 C483 1.403 . S
C481 C478 1.403 . S
C481 C482 1.524 . S
C481 C485 1.400 . S
C482 H467 0.960 . S
C482 H468 0.960 . S
C482 H469 0.960 . S
C482 C481 1.524 . S
C483 C480 1.403 . S
C483 C484 1.392 . S
C483 C487 1.495 . S
C484 C483 1.392 . S
C484 C485 1.385 . S
C484 C486 1.478 . S
C485 H479 0.930 . S
C485 C481 1.400 . S
C485 C484 1.385 . S
C486 C484 1.478 . S
C486 C488 1.381 . S
C486 C492 1.383 . S
C487 C483 1.495 . S
C487 H493 0.959 . S
C487 H494 0.961 . S
C487 H495 0.960 . S
C488 C486 1.381 . S
C488 C489 1.394 . S
C488 H496 0.930 . S
C489 C488 1.394 . S
C489 C490 1.383 . S
C489 H497 0.929 . S
C490 C489 1.383 . S
C490 C491 1.377 . S
C491 H475 0.930 . S
C491 C490 1.377 . S
C491 C492 1.379 . S
C492 H476 0.931 . S
C492 C486 1.383 . S
C492 C491 1.379 . S
H493 C487 0.959 . S
H494 C487 0.961 . S
H495 C487 0.960 . S
H496 C488 0.930 . S
H497 C489 0.929 . S
H498 C506 0.929 . S
H499 C508 0.930 . S
H500 C510 0.930 . S
H501 C513 0.929 . S
H502 C516 0.930 . S
H503 C518 0.960 . S
H504 C518 0.960 . S
H505 C518 0.960 . S
C506 H498 0.929 . S
C506 C507 1.377 . S
C506 C508 1.384 . S
C507 C506 1.377 . S
C507 C513 1.390 . S
C508 H499 0.930 . S
C508 C506 1.384 . S
C508 C509 1.372 . S
C509 C508 1.372 . S
C509 C510 1.400 . S
C509 C514 1.490 . S
C510 H500 0.930 . S
C510 C509 1.400 . S
C510 C513 1.386 . S
H511 C527 0.930 . S
H512 C528 0.931 . S
C513 H501 0.929 . S
C513 C507 1.390 . S
C513 C510 1.386 . S
C514 C509 1.490 . S
C514 C516 1.395 . S
C514 C517 1.403 . S
H515 C521 0.930 . S
C516 H502 0.930 . S
C516 C514 1.395 . S
C516 C519 1.403 . S
C517 C514 1.403 . S
C517 C518 1.524 . S
C517 C521 1.400 . S
C518 H503 0.960 . S
C518 H504 0.960 . S
C518 H505 0.960 . S
C518 C517 1.524 . S
C519 C516 1.403 . S
C519 C520 1.392 . S
C519 C523 1.495 . S
C520 C519 1.392 . S
C520 C521 1.385 . S
C520 C522 1.478 . S
C521 H515 0.930 . S
C521 C517 1.400 . S
C521 C520 1.385 . S
C522 C520 1.478 . S
C522 C524 1.381 . S
C522 C528 1.383 . S
C523 C519 1.495 . S
C523 H529 0.959 . S
C523 H530 0.961 . S
C523 H531 0.960 . S
C524 C522 1.381 . S
C524 C525 1.394 . S
C524 H532 0.930 . S
C525 C524 1.394 . S
C525 C526 1.383 . S
C525 H533 0.929 . S
C526 C525 1.383 . S
C526 C527 1.377 . S
C527 H511 0.930 . S
C527 C526 1.377 . S
C527 C528 1.379 . S
C528 H512 0.931 . S
C528 C522 1.383 . S
C528 C527 1.379 . S
H529 C523 0.959 . S
H530 C523 0.961 . S
H531 C523 0.960 . S
H532 C524 0.930 . S
H533 C525 0.929 . S
H534 C542 0.929 . S
H535 C544 0.930 . S
H536 C546 0.930 . S
H537 C549 0.929 . S
H538 C552 0.930 . S
H539 C554 0.960 . S
H540 C554 0.960 . S
H541 C554 0.960 . S
C542 H534 0.929 . S
C542 C543 1.377 . S
C542 C544 1.384 . S
C543 C542 1.377 . S
C543 C549 1.390 . S
C544 H535 0.930 . S
C544 C542 1.384 . S
C544 C545 1.372 . S
C545 C544 1.372 . S
C545 C546 1.400 . S
C545 C550 1.490 . S
C546 H536 0.930 . S
C546 C545 1.400 . S
C546 C549 1.386 . S
H547 C563 0.930 . S
H548 C564 0.931 . S
C549 H537 0.929 . S
C549 C543 1.390 . S
C549 C546 1.386 . S
C550 C545 1.490 . S
C550 C552 1.395 . S
C550 C553 1.403 . S
H551 C557 0.930 . S
C552 H538 0.930 . S
C552 C550 1.395 . S
C552 C555 1.403 . S
C553 C550 1.403 . S
C553 C554 1.524 . S
C553 C557 1.400 . S
C554 H539 0.960 . S
C554 H540 0.960 . S
C554 H541 0.960 . S
C554 C553 1.524 . S
C555 C552 1.403 . S
C555 C556 1.392 . S
C555 C559 1.495 . S
C556 C555 1.392 . S
C556 C557 1.385 . S
C556 C558 1.478 . S
C557 H551 0.930 . S
C557 C553 1.400 . S
C557 C556 1.385 . S
C558 C556 1.478 . S
C558 C560 1.381 . S
C558 C564 1.383 . S
C559 C555 1.495 . S
C559 H565 0.959 . S
C559 H566 0.961 . S
C559 H567 0.960 . S
C560 C558 1.381 . S
C560 C561 1.394 . S
C560 H568 0.930 . S
C561 C560 1.394 . S
C561 C562 1.383 . S
C561 H569 0.929 . S
C562 C561 1.383 . S
C562 C563 1.377 . S
C563 H547 0.930 . S
C563 C562 1.377 . S
C563 C564 1.379 . S
C564 H548 0.931 . S
C564 C558 1.383 . S
C564 C563 1.379 . S
H565 C559 0.959 . S
H566 C559 0.961 . S
H567 C559 0.960 . S
H568 C560 0.930 . S
H569 C561 0.929 . S
H570 C578 0.933 . S
H571 C580 0.930 . S
H572 C582 0.930 . S
H573 C585 0.929 . S
H574 C588 0.930 . S
H575 C590 0.960 . S
H576 C590 0.960 1_655 S
H577 C590 0.960 . S
C578 H570 0.933 . S
C578 C579 1.377 . S
C578 C580 1.384 . S
C579 C578 1.377 . S
C579 C585 1.390 1_565 S
C580 H571 0.930 . S
C580 C578 1.384 . S
C580 C581 1.371 . S
C581 C580 1.371 . S
C581 C582 1.400 1_565 S
C581 C586 1.490 1_565 S
C582 H572 0.930 . S
C582 C581 1.400 1_545 S
C582 C585 1.386 . S
H583 C599 0.930 . S
H584 C600 0.931 . S
C585 H573 0.929 . S
C585 C579 1.390 1_545 S
C585 C582 1.386 . S
C586 C581 1.490 1_545 S
C586 C588 1.395 1_545 S
C586 C589 1.403 . S
H587 C593 0.930 . S
C588 H574 0.930 . S
C588 C586 1.395 1_565 S
C588 C591 1.403 . S
C589 C586 1.403 . S
C589 C590 1.524 . S
C589 C593 1.400 . S
C590 H575 0.960 . S
C590 H576 0.960 1_455 S
C590 H577 0.960 . S
C590 C589 1.524 . S
C591 C588 1.403 . S
C591 C592 1.392 1_565 S
C591 C595 1.495 . S
C592 C591 1.392 1_545 S
C592 C593 1.385 . S
C592 C594 1.478 . S
C593 H587 0.930 . S
C593 C589 1.400 . S
C593 C592 1.385 . S
C594 C592 1.478 . S
C594 C596 1.381 1_545 S
C594 C600 1.383 . S
C595 C591 1.495 . S
C595 H601 0.959 . S
C595 H602 0.961 . S
C595 H603 0.960 . S
C596 C594 1.381 1_565 S
C596 C597 1.394 1_565 S
C596 H604 0.930 . S
C597 C596 1.394 1_545 S
C597 C598 1.383 . S
C597 H605 0.929 1_545 S
C598 C597 1.383 . S
C598 C599 1.377 . S
C599 H583 0.930 . S
C599 C598 1.377 . S
C599 C600 1.379 . S
C600 H584 0.931 . S
C600 C594 1.383 . S
C600 C599 1.379 . S
H601 C595 0.959 . S
H602 C595 0.961 . S
H603 C595 0.960 . S
H604 C596 0.930 . S
H605 C597 0.929 1_565 S
H606 C614 0.929 . S
H607 C616 0.932 . S
H608 C618 0.930 . S
H609 C621 0.929 . S
H610 C624 0.930 . S
H611 C626 0.960 . S
H612 C626 0.960 . S
H613 C626 0.960 . S
C614 H606 0.929 . S
C614 C615 1.377 1_655 S
C614 C616 1.384 . S
C615 C614 1.377 1_455 S
C615 C621 1.390 . S
C616 H607 0.932 . S
C616 C614 1.384 . S
C616 C617 1.372 1_665 S
C617 C616 1.372 1_445 S
C617 C618 1.400 1_545 S
C617 C622 1.490 . S
C618 H608 0.930 . S
C618 C617 1.400 1_565 S
C618 C621 1.386 . S
H619 C635 0.930 . S
H620 C636 0.931 . S
C621 H609 0.929 . S
C621 C615 1.390 . S
C621 C618 1.386 . S
C622 C617 1.490 . S
C622 C624 1.395 1_455 S
C622 C625 1.403 1_545 S
H623 C629 0.930 . S
C624 H610 0.930 . S
C624 C622 1.395 1_655 S
C624 C627 1.403 . S
C625 C622 1.403 1_565 S
C625 C626 1.524 . S
C625 C629 1.400 . S
C626 H611 0.960 . S
C626 H612 0.960 . S
C626 H613 0.960 . S
C626 C625 1.524 . S
C627 C624 1.403 . S
C627 C628 1.392 1_655 S
C627 C631 1.495 . S
C628 C627 1.392 1_455 S
C628 C629 1.385 1_545 S
C628 C630 1.478 . S
C629 H623 0.930 . S
C629 C625 1.400 . S
C629 C628 1.385 1_565 S
C630 C628 1.478 . S
C630 C632 1.381 1_455 S
C630 C636 1.383 . S
C631 C627 1.495 . S
C631 H637 0.959 . S
C631 H638 0.961 . S
C631 H639 0.960 . S
C632 C630 1.381 1_655 S
C632 C633 1.394 . S
C632 H640 0.930 . S
C633 C632 1.394 . S
C633 C634 1.383 1_655 S
C633 H641 0.929 . S
C634 C633 1.383 1_455 S
C634 C635 1.377 . S
C635 H619 0.930 . S
C635 C634 1.377 . S
C635 C636 1.379 . S
C636 H620 0.931 . S
C636 C630 1.383 . S
C636 C635 1.379 . S
H637 C631 0.959 . S
H638 C631 0.961 . S
H639 C631 0.960 . S
H640 C632 0.930 . S
H641 C633 0.929 . S
H642 C650 0.929 . S
H643 C652 0.930 . S
H644 C654 0.930 . S
H645 C657 0.929 . S
H646 C660 0.930 . S
H647 C662 0.960 . S
H648 C662 0.960 . S
H649 C662 0.960 . S
C650 H642 0.929 . S
C650 C651 1.377 . S
C650 C652 1.384 . S
C651 C650 1.377 . S
C651 C657 1.390 . S
C652 H643 0.930 . S
C652 C650 1.384 . S
C652 C653 1.372 . S
C653 C652 1.372 . S
C653 C654 1.400 . S
C653 C658 1.490 . S
C654 H644 0.930 . S
C654 C653 1.400 . S
C654 C657 1.386 . S
H655 C671 0.930 . S
H656 C672 0.931 . S
C657 H645 0.929 . S
C657 C651 1.390 . S
C657 C654 1.386 . S
C658 C653 1.490 . S
C658 C660 1.395 . S
C658 C661 1.403 . S
H659 C665 0.930 . S
C660 H646 0.930 . S
C660 C658 1.395 . S
C660 C663 1.403 . S
C661 C658 1.403 . S
C661 C662 1.524 . S
C661 C665 1.400 . S
C662 H647 0.960 . S
C662 H648 0.960 . S
C662 H649 0.960 . S
C662 C661 1.524 . S
C663 C660 1.403 . S
C663 C664 1.392 . S
C663 C667 1.495 . S
C664 C663 1.392 . S
C664 C665 1.385 . S
C664 C666 1.478 . S
C665 H659 0.930 . S
C665 C661 1.400 . S
C665 C664 1.385 . S
C666 C664 1.478 . S
C666 C668 1.381 . S
C666 C672 1.383 . S
C667 C663 1.495 . S
C667 H673 0.959 . S
C667 H674 0.961 . S
C667 H675 0.960 . S
C668 C666 1.381 . S
C668 C669 1.394 . S
C668 H676 0.930 . S
C669 C668 1.394 . S
C669 C670 1.383 . S
C669 H677 0.929 . S
C670 C669 1.383 . S
C670 C671 1.377 . S
C671 H655 0.930 . S
C671 C670 1.377 . S
C671 C672 1.379 . S
C672 H656 0.931 . S
C672 C666 1.383 . S
C672 C671 1.379 . S
H673 C667 0.959 . S
H674 C667 0.961 . S
H675 C667 0.960 . S
H676 C668 0.930 . S
H677 C669 0.929 . S
H678 C686 0.929 . S
H679 C688 0.930 . S
H680 C690 0.930 . S
H681 C693 0.929 . S
H682 C696 0.930 . S
H683 C698 0.960 . S
H684 C698 0.960 . S
H685 C698 0.960 . S
C686 H678 0.929 . S
C686 C687 1.377 . S
C686 C688 1.384 . S
C687 C686 1.377 . S
C687 C693 1.390 . S
C688 H679 0.930 . S
C688 C686 1.384 . S
C688 C689 1.372 . S
C689 C688 1.372 . S
C689 C690 1.400 . S
C689 C694 1.490 . S
C690 H680 0.930 . S
C690 C689 1.400 . S
C690 C693 1.386 . S
H691 C707 0.930 . S
H692 C708 0.931 . S
C693 H681 0.929 . S
C693 C687 1.390 . S
C693 C690 1.386 . S
C694 C689 1.490 . S
C694 C696 1.395 . S
C694 C697 1.403 . S
H695 C701 0.930 . S
C696 H682 0.930 . S
C696 C694 1.395 . S
C696 C699 1.403 . S
C697 C694 1.403 . S
C697 C698 1.524 . S
C697 C701 1.400 . S
C698 H683 0.960 . S
C698 H684 0.960 . S
C698 H685 0.960 . S
C698 C697 1.524 . S
C699 C696 1.403 . S
C699 C700 1.392 . S
C699 C703 1.495 . S
C700 C699 1.392 . S
C700 C701 1.385 . S
C700 C702 1.478 . S
C701 H695 0.930 . S
C701 C697 1.400 . S
C701 C700 1.385 . S
C702 C700 1.478 . S
C702 C704 1.381 . S
C702 C708 1.383 . S
C703 C699 1.495 . S
C703 H709 0.959 . S
C703 H710 0.961 . S
C703 H711 0.960 . S
C704 C702 1.381 . S
C704 C705 1.394 . S
C704 H712 0.930 . S
C705 C704 1.394 . S
C705 C706 1.383 . S
C705 H713 0.929 . S
C706 C705 1.383 . S
C706 C707 1.377 . S
C707 H691 0.930 . S
C707 C706 1.377 . S
C707 C708 1.379 . S
C708 H692 0.931 . S
C708 C702 1.383 . S
C708 C707 1.379 . S
H709 C703 0.959 . S
H710 C703 0.961 . S
H711 C703 0.960 . S
H712 C704 0.930 . S
H713 C705 0.929 . S
C310 C253 1.149 . S
C291 C3 1.029 . S
C327 C4 1.507 1_556 S
C346 C193 1.612 . S
C363 C19 1.531 . S
C382 C223 1.557 . S
C399 C7 1.047 1_554 S
C418 C163 1.054 . S
C435 C37 1.023 . S
C454 C133 1.136 . S
C471 C28 1.498 . S
C490 C73 1.597 . S
C526 C103 1.589 . S
C507 C41 1.529 . S
C562 C43 1.094 . S
C543 C25 1.041 . S
C579 C20 1.278 . S
C598 C62 1.401 . S
C615 C16 1.323 . S
C634 C122 1.454 1_455 S
C670 C182 1.385 . S
C651 C40 1.272 . S
C687 C24 1.331 . S
C706 C242 1.439 . S
