# Generated by pormake.
# Topology zzz, (3,6)-cn, num edge types: 1
# Building blocks:
#     Node 0, Type 0, BuildingBlock: KAKCAD_clean_linker_0, # of connection points: 3
#     Node 1, Type 0, BuildingBlock: KAKCAD_clean_linker_0, # of connection points: 3
#     Node 2, Type 0, BuildingBlock: KAKCAD_clean_linker_0, # of connection points: 3
#     Node 3, Type 0, BuildingBlock: KAKCAD_clean_linker_0, # of connection points: 3
#     Node 4, Type 0, BuildingBlock: KAKCAD_clean_linker_0, # of connection points: 3
#     Node 5, Type 0, BuildingBlock: KAKCAD_clean_linker_0, # of connection points: 3
#     Node 6, Type 0, BuildingBlock: KAKCAD_clean_linker_0, # of connection points: 3
#     Node 7, Type 0, BuildingBlock: KAKCAD_clean_linker_0, # of connection points: 3
#     Node 8, Type 1, BuildingBlock: KUMJIN_clean_sbu_0, # of connection points: 6
#     Node 9, Type 1, BuildingBlock: KUMJIN_clean_sbu_0, # of connection points: 6
#     Node 10, Type 1, BuildingBlock: KUMJIN_clean_sbu_0, # of connection points: 6
#     Node 11, Type 1, BuildingBlock: KUMJIN_clean_sbu_0, # of connection points: 6
#     Edge 12, Type (0, 1), BuildingBlock: CIFDUS_clean_linker_0, # of connection points: 2
#     Edge 13, Type (0, 1), BuildingBlock: CIFDUS_clean_linker_0, # of connection points: 2
#     Edge 14, Type (0, 1), BuildingBlock: CIFDUS_clean_linker_0, # of connection points: 2
#     Edge 15, Type (0, 1), BuildingBlock: CIFDUS_clean_linker_0, # of connection points: 2
#     Edge 16, Type (0, 1), BuildingBlock: CIFDUS_clean_linker_0, # of connection points: 2
#     Edge 17, Type (0, 1), BuildingBlock: CIFDUS_clean_linker_0, # of connection points: 2
#     Edge 18, Type (0, 1), BuildingBlock: CIFDUS_clean_linker_0, # of connection points: 2
#     Edge 19, Type (0, 1), BuildingBlock: CIFDUS_clean_linker_0, # of connection points: 2
#     Edge 20, Type (0, 1), BuildingBlock: CIFDUS_clean_linker_0, # of connection points: 2
#     Edge 21, Type (0, 1), BuildingBlock: CIFDUS_clean_linker_0, # of connection points: 2
#     Edge 22, Type (0, 1), BuildingBlock: CIFDUS_clean_linker_0, # of connection points: 2
#     Edge 23, Type (0, 1), BuildingBlock: CIFDUS_clean_linker_0, # of connection points: 2
#     Edge 24, Type (0, 1), BuildingBlock: CIFDUS_clean_linker_0, # of connection points: 2
#     Edge 25, Type (0, 1), BuildingBlock: CIFDUS_clean_linker_0, # of connection points: 2
#     Edge 26, Type (0, 1), BuildingBlock: CIFDUS_clean_linker_0, # of connection points: 2
#     Edge 27, Type (0, 1), BuildingBlock: CIFDUS_clean_linker_0, # of connection points: 2
#     Edge 28, Type (0, 1), BuildingBlock: CIFDUS_clean_linker_0, # of connection points: 2
#     Edge 29, Type (0, 1), BuildingBlock: CIFDUS_clean_linker_0, # of connection points: 2
#     Edge 30, Type (0, 1), BuildingBlock: CIFDUS_clean_linker_0, # of connection points: 2
#     Edge 31, Type (0, 1), BuildingBlock: CIFDUS_clean_linker_0, # of connection points: 2
#     Edge 32, Type (0, 1), BuildingBlock: CIFDUS_clean_linker_0, # of connection points: 2
#     Edge 33, Type (0, 1), BuildingBlock: CIFDUS_clean_linker_0, # of connection points: 2
#     Edge 34, Type (0, 1), BuildingBlock: CIFDUS_clean_linker_0, # of connection points: 2
#     Edge 35, Type (0, 1), BuildingBlock: CIFDUS_clean_linker_0, # of connection points: 2
# Relax obj value: 0.310
# Max RMSD: 0.223
# Mean RMSD: 0.212
data_MOF--net-zzz--node1-KUMJIN_clean_sbu_0--node2-KAKCAD_clean_linker_0--edge1-CIFDUS_clean_linker_0
_symmetry_space_group_name_H-M    P1
_symmetry_Int_Tables_number       1
_symmetry_cell_setting            triclinic
loop_
_symmetry_equiv_pos_as_xyz
'x, y, z'
_cell_length_a     51.306136
_cell_length_b     51.348322
_cell_length_c     17.89897
_cell_angle_alpha  91.274401
_cell_angle_beta   89.787923
_cell_angle_gamma 89.840346
loop_
_atom_site_label
_atom_site_type_symbol
_atom_site_fract_x
_atom_site_fract_y
_atom_site_fract_z
_atom_type_partial_charge
C0 C 0.82406 0.64235 0.06385 0.0
C1 C 0.83244 0.6303 0.99622 0.0
C2 C 0.80202 0.63317 0.10129 0.0
C3 C 0.78725 0.61276 0.06995 0.0
C4 C 0.79277 0.60414 0.99687 0.0
C5 C 0.81514 0.61266 0.9605 0.0
C6 C 0.77067 0.59632 0.11744 0.0
C7 C 0.74585 0.5886 0.09396 0.0
C8 C 0.73225 0.56857 0.1298 0.0
C9 C 0.74476 0.55547 0.18937 0.0
C10 C 0.76978 0.56372 0.21457 0.0
C11 C 0.78202 0.58441 0.17887 0.0
C12 C 0.78573 0.55021 0.27206 0.0
C13 C 0.79053 0.56266 0.34164 0.0
C14 C 0.80259 0.52992 0.24899 0.0
C15 C 0.82462 0.52353 0.29154 0.0
C16 C 0.83042 0.53713 0.35877 0.0
C17 C 0.70564 0.56172 0.1001 0.0
C18 C 0.68794 0.5819 0.08439 0.0
C19 C 0.69916 0.53625 0.07612 0.0
C20 C 0.67638 0.53147 0.03373 0.0
C21 C 0.65963 0.55208 1.01396 0.0
C22 C 0.66545 0.5772 0.04201 0.0
C23 C 0.8124 0.556 0.38487 0.0
H24 H 0.83571 0.65714 0.09165 0.0
H25 H 0.79774 0.64054 0.15719 0.0
H26 H 0.78158 0.58849 0.9712 0.0
H27 H 0.82 0.60284 0.9083 0.0
H28 H 0.73751 0.59763 0.04531 0.0
H29 H 0.80163 0.58988 0.1954 0.0
H30 H 0.73519 0.53931 0.21581 0.0
H31 H 0.77847 0.57896 0.35987 0.0
H32 H 0.79999 0.52051 0.19477 0.0
H33 H 0.83795 0.50882 0.26968 0.0
H34 H 0.69208 0.60174 0.1024 0.0
H35 H 0.71241 0.52028 0.08639 0.0
H36 H 0.81629 0.56707 0.43582 0.0
H37 H 0.65288 0.5935 0.02967 0.0
H38 H 0.67261 0.51185 1.01325 0.0
C39 C 0.92288 0.80946 0.9441 0.0
C40 C 0.92957 0.83592 0.9493 0.0
C41 C 0.92809 0.79289 1.00365 0.0
C42 C 0.94115 0.80228 0.06823 0.0
C43 C 0.94569 0.8293 0.07475 0.0
C44 C 0.93959 0.84581 0.01698 0.0
C45 C 0.95343 0.78425 0.12317 0.0
C46 C 0.96113 0.75888 0.10139 0.0
C47 C 0.97723 0.74358 0.14662 0.0
C48 C 0.98741 0.75505 0.21368 0.0
C49 C 0.97933 0.78048 0.2372 0.0
C50 C 0.9611 0.7937 0.19399 0.0
C51 C 0.99126 0.7961 0.30018 0.0
C52 C 0.98067 0.79579 0.37274 0.0
C53 C 1.00786 0.81685 0.2824 0.0
C54 C 0.01277 0.83731 0.33393 0.0
C55 C 1.00139 0.83781 0.40593 0.0
C56 C 0.9838 0.71646 0.11808 0.0
C57 C 0.96388 0.70035 0.08872 0.0
C58 C 1.00969 0.7078 0.10968 0.0
C59 C 0.01546 0.6843 0.07041 0.0
C60 C 0.99552 0.66866 0.0385 0.0
C61 C 0.9696 0.67694 0.04976 0.0
C62 C 0.98588 0.81614 0.42505 0.0
H63 H 0.91506 0.80132 0.89255 0.0
H64 H 0.92312 0.77253 0.99683 0.0
H65 H 0.9561 0.83794 0.12136 0.0
H66 H 0.94551 0.866 0.02277 0.0
H67 H 0.95585 0.75117 0.04681 0.0
H68 H 0.95427 0.81251 0.21452 0.0
H69 H 1.00135 0.74446 0.24673 0.0
H70 H 0.96717 0.78058 0.38771 0.0
H71 H 0.01559 0.81825 0.2262 0.0
H72 H 0.02434 0.85347 0.31505 0.0
H73 H 0.94366 0.70625 0.0943 0.0
H74 H 0.02557 0.71977 0.13029 0.0
H75 H 0.97703 0.81515 0.47986 0.0
H76 H 0.95357 0.66539 0.02817 0.0
H77 H 0.03573 0.6789 0.06285 0.0
C78 C 0.74084 0.97449 0.91674 0.0
C79 C 0.71816 0.9896 0.91384 0.0
C80 C 0.75207 0.96917 0.98583 0.0
C81 C 0.74122 0.97969 0.05258 0.0
C82 C 0.71792 0.99405 0.04882 0.0
C83 C 0.70641 0.99871 0.98024 0.0
C84 C 0.75542 0.97833 0.12464 0.0
C85 C 0.78259 0.98013 0.12533 0.0
C86 C 0.79655 0.9819 0.19222 0.0
C87 C 0.78266 0.98276 0.26121 0.0
C88 C 0.75498 0.98064 0.26133 0.0
C89 C 0.74193 0.97788 0.19288 0.0
C90 C 0.73815 0.98192 0.32987 0.0
C91 C 0.72522 0.95934 0.35288 0.0
C92 C 0.7291 1.00613 0.35796 0.0
C93 C 0.70714 1.00775 0.40553 0.0
C94 C 0.69344 0.98518 0.42613 0.0
C95 C 0.82549 0.98336 0.18364 0.0
C96 C 0.83882 0.96128 0.15498 0.0
C97 C 0.83757 1.00778 0.17746 0.0
C98 C 0.86152 1.01021 0.13948 0.0
C99 C 0.87385 0.98832 0.10565 0.0
C100 C 0.8626 0.9637 0.11656 0.0
C101 C 0.70337 0.9609 0.40047 0.0
H102 H 0.75003 0.96724 0.86579 0.0
H103 H 0.76966 0.9575 0.98664 0.0
H104 H 0.70919 1.00296 0.09829 0.0
H105 H 0.68898 1.01066 0.97874 0.0
H106 H 0.79323 0.98114 0.07301 0.0
H107 H 0.72088 0.97602 0.19308 0.0
H108 H 0.79311 0.98481 0.31344 0.0
H109 H 0.73106 0.94047 0.33015 0.0
H110 H 0.73806 0.02395 0.33943 0.0
H111 H 0.7005 0.0268 0.42456 0.0
H112 H 0.82971 0.94229 0.15676 0.0
H113 H 0.82742 0.02526 0.19632 0.0
H114 H 0.69339 0.94302 0.41364 0.0
H115 H 0.87161 0.94633 0.09259 0.0
H116 H 0.86941 0.02952 0.13211 0.0
C117 C 0.51298 0.70169 0.31935 0.0
C118 C 0.52452 0.69873 0.3902 0.0
C119 C 0.52077 0.72166 0.27183 0.0
C120 C 0.54036 0.7393 0.29336 0.0
C121 C 0.55111 0.73726 0.36511 0.0
C122 C 0.54311 0.71747 0.41318 0.0
C123 C 0.55438 0.75403 0.23476 0.0
C124 C 0.54606 0.77851 0.20837 0.0
C125 C 0.55913 0.79007 0.14731 0.0
C126 C 0.57959 0.77617 0.11179 0.0
C127 C 0.58733 0.7516 0.13618 0.0
C128 C 0.57523 0.7412 0.19903 0.0
C129 C 0.60345 0.7341 0.08782 0.0
C130 C 0.5955 0.72934 1.01399 0.0
C131 C 0.62233 0.71771 0.11875 0.0
C132 C 0.6301 0.69488 0.08055 0.0
C133 C 0.61826 0.68757 1.01226 0.0
C134 C 0.55082 0.81542 0.11449 0.0
C135 C 0.52461 0.82037 0.09686 0.0
C136 C 0.56975 0.83334 0.09097 0.0
C137 C 0.56298 0.85465 0.04733 0.0
C138 C 0.53698 0.85884 0.02573 0.0
C139 C 0.51779 0.84176 0.05299 0.0
C140 C 0.60272 0.70631 0.97665 0.0
H141 H 0.49898 0.68765 0.29823 0.0
H142 H 0.5128 0.72215 0.2159 0.0
H143 H 0.56675 0.75013 0.38246 0.0
H144 H 0.5522 0.71642 0.4675 0.0
H145 H 0.52957 0.7883 0.23462 0.0
H146 H 0.58053 0.72179 0.21658 0.0
H147 H 0.5886 0.78379 0.06196 0.0
H148 H 0.58107 0.7417 0.98838 0.0
H149 H 0.62928 0.72134 0.1751 0.0
H150 H 0.6433 0.6818 0.1083 0.0
H151 H 0.50952 0.80696 0.11357 0.0
H152 H 0.59013 0.83027 0.1039 0.0
H153 H 0.59324 0.70215 0.92392 0.0
H154 H 0.49748 0.84453 0.03895 0.0
H155 H 0.57842 0.86709 0.02751 0.0
C156 C 0.23246 0.41907 0.33404 0.0
C157 C 0.20734 0.41362 0.30636 0.0
C158 C 0.25196 0.42791 0.28627 0.0
C159 C 0.24734 0.42969 0.20898 0.0
C160 C 0.22475 0.41769 0.18029 0.0
C161 C 0.2047 0.41033 0.2283 0.0
C162 C 0.26272 0.44819 0.16245 0.0
C163 C 0.28805 0.45574 0.18272 0.0
C164 C 0.30002 0.47792 0.15281 0.0
C165 C 0.28697 0.49128 0.09481 0.0
C166 C 0.26211 0.48269 0.06981 0.0
C167 C 0.25034 0.46163 0.10492 0.0
C168 C 0.2461 0.49572 1.01151 0.0
C169 C 0.22978 0.51679 0.03165 0.0
C170 C 0.24108 0.48234 0.9436 0.0
C171 C 0.21971 0.48904 0.89877 0.0
C172 C 0.20237 0.50919 0.92077 0.0
C173 C 0.32513 0.48712 0.1881 0.0
C174 C 0.32796 0.4863 0.26646 0.0
C175 C 0.34695 0.49454 0.14572 0.0
C176 C 0.3711 0.49982 0.18069 0.0
C177 C 0.37406 0.49769 0.25884 0.0
C178 C 0.35194 0.49128 0.30102 0.0
C179 C 0.20832 0.52349 0.98691 0.0
H180 H 0.23634 0.41952 0.3934 0.0
H181 H 0.26941 0.43574 0.31177 0.0
H182 H 0.22124 0.41646 0.12074 0.0
H183 H 0.18637 0.40491 0.2029 0.0
H184 H 0.29835 0.44483 0.22446 0.0
H185 H 0.23051 0.45688 0.08935 0.0
H186 H 0.29568 0.50839 0.07086 0.0
H187 H 0.23246 0.52688 0.08486 0.0
H188 H 0.25279 0.46554 0.92747 0.0
H189 H 0.21634 0.47779 0.84788 0.0
H190 H 0.31154 0.48134 0.30156 0.0
H191 H 0.34563 0.49535 0.08545 0.0
H192 H 0.19549 0.53893 1.00682 0.0
H193 H 0.3531 0.49017 0.36129 0.0
H194 H 0.38765 0.50481 0.14622 0.0
C195 C 0.11102 0.22353 0.36776 0.0
C196 C 0.12327 0.20092 0.33872 0.0
C197 C 0.10133 0.24224 0.31998 0.0
C198 C 0.104 0.23898 0.24211 0.0
C199 C 0.12028 0.21883 0.21435 0.0
C200 C 0.12979 0.19988 0.26231 0.0
C201 C 0.08556 0.25269 0.19201 0.0
C202 C 0.07655 0.27782 0.21051 0.0
C203 C 0.05418 0.28833 0.17718 0.0
C204 C 0.04184 0.27372 0.11857 0.0
C205 C 0.05155 0.24863 0.09687 0.0
C206 C 0.07324 0.23866 0.13416 0.0
C207 C 0.03884 0.2305 0.04113 0.0
C208 C 0.02664 0.20781 0.06668 0.0
C209 C 0.04525 0.23149 0.96481 0.0
C210 C 0.04059 0.20999 0.91618 0.0
C211 C 0.02967 0.18662 0.94255 0.0
C212 C 0.04355 0.3134 0.21094 0.0
C213 C 0.04195 0.31631 0.28947 0.0
C214 C 0.0381 0.33536 0.16799 0.0
C215 C 0.03234 0.35971 0.20291 0.0
C216 C 0.03194 0.36277 0.28173 0.0
C217 C 0.03639 0.34047 0.32412 0.0
C218 C 0.02209 0.18631 0.0184 0.0
H219 H 0.10569 0.2252 0.42627 0.0
H220 H 0.0891 0.25747 0.34412 0.0
H221 H 0.12362 0.2163 0.15485 0.0
H222 H 0.13979 0.18303 0.23848 0.0
H223 H 0.08635 0.28889 0.2543 0.0
H224 H 0.07948 0.2189 0.12072 0.0
H225 H 0.02438 0.28119 0.09274 0.0
H226 H 0.02225 0.20601 0.1256 0.0
H227 H 0.05535 0.24831 0.9436 0.0
H228 H 0.04633 0.21147 0.85819 0.0
H229 H 0.04566 0.29982 0.32467 0.0
H230 H 0.03936 0.334 0.10763 0.0
H231 H 0.01402 0.16886 0.04205 0.0
H232 H 0.03559 0.34164 0.38457 0.0
H233 H 0.02903 0.37634 0.16803 0.0
C234 C 0.30375 0.12526 0.35225 0.0
C235 C 0.3262 0.13755 0.32461 0.0
C236 C 0.28519 0.11498 0.30341 0.0
C237 C 0.28837 0.11713 0.22578 0.0
C238 C 0.30834 0.1333 0.19919 0.0
C239 C 0.32712 0.14344 0.24827 0.0
C240 C 0.27429 0.09877 0.17451 0.0
C241 C 0.24887 0.09066 0.19099 0.0
C242 C 0.23731 0.06933 0.15312 0.0
C243 C 0.25177 0.05632 0.09529 0.0
C244 C 0.27702 0.06526 0.07552 0.0
C245 C 0.28785 0.08626 0.11574 0.0
C246 C 0.29356 0.05343 1.01462 0.0
C247 C 0.31041 0.0325 0.02926 0.0
C248 C 0.29771 0.06744 0.94911 0.0
C249 C 0.31849 0.06124 0.90053 0.0
C250 C 0.33605 0.04085 0.91598 0.0
C251 C 0.21092 0.06068 0.17997 0.0
C252 C 0.20604 0.03463 0.19839 0.0
C253 C 0.19172 0.07945 0.19895 0.0
C254 C 0.16933 0.07283 0.2395 0.0
C255 C 0.1651 0.04709 0.26174 0.0
C256 C 0.18339 0.02791 0.23855 0.0
C257 C 0.3313 0.02623 0.98053 0.0
H258 H 0.30207 0.12035 0.41059 0.0
H259 H 0.27011 0.10285 0.3266 0.0
H260 H 0.31077 0.13625 0.13985 0.0
H261 H 0.34378 0.15349 0.22538 0.0
H262 H 0.23841 0.10031 0.23646 0.0
H263 H 0.3077 0.09194 0.10319 0.0
H264 H 0.24342 0.03975 0.06564 0.0
H265 H 0.30828 0.02187 0.08051 0.0
H266 H 0.2857 0.08427 0.93765 0.0
H267 H 0.32148 0.07339 0.85262 0.0
H268 H 0.22041 0.01968 0.18557 0.0
H269 H 0.19453 0.09967 0.18492 0.0
H270 H 0.34402 1.01021 0.99436 0.0
H271 H 0.18084 1.00786 0.25453 0.0
H272 H 0.15549 0.08804 0.25455 0.0
C273 C 0.44791 0.31832 0.88018 0.0
C274 C 0.47396 0.32547 0.86608 0.0
C275 C 0.44182 0.29875 0.93052 0.0
C276 C 0.46143 0.28572 0.96992 0.0
C277 C 0.48755 0.29161 0.95329 0.0
C278 C 0.49375 0.31117 0.90191 0.0
C279 C 0.45409 0.27099 0.03833 0.0
C280 C 0.46357 0.24574 0.05501 0.0
C281 C 0.45673 0.23412 0.12368 0.0
C282 C 0.44095 0.24806 0.17501 0.0
C283 C 0.43198 0.2731 0.15978 0.0
C284 C 0.43819 0.28408 0.09114 0.0
C285 C 0.42058 0.28998 0.21974 0.0
C286 C 0.39985 0.30697 0.20465 0.0
C287 C 0.4341 0.29308 0.28722 0.0
C288 C 0.42982 0.31504 0.3328 0.0
C289 C 0.41177 0.33434 0.312 0.0
C290 C 0.46694 0.20844 0.14817 0.0
C291 C 0.45624 0.1849 0.12095 0.0
C292 C 0.48289 0.2078 0.2118 0.0
C293 C 0.48682 0.18461 0.24995 0.0
C294 C 0.4749 0.16127 0.22575 0.0
C295 C 0.46033 0.16149 0.15908 0.0
C296 C 0.3952 0.32877 0.25113 0.0
H297 H 0.43186 0.32878 0.85563 0.0
H298 H 0.42147 0.29489 0.94231 0.0
H299 H 0.50316 0.28223 0.98325 0.0
H300 H 0.51408 0.3155 0.89194 0.0
H301 H 0.47632 0.23551 0.01588 0.0
H302 H 0.43215 0.30395 0.08093 0.0
H303 H 0.43639 0.2397 0.22864 0.0
H304 H 0.38871 0.30462 0.15365 0.0
H305 H 0.45013 0.28023 0.30055 0.0
H306 H 0.44304 0.31814 0.37907 0.0
H307 H 0.44336 0.1849 0.07312 0.0
H308 H 0.4911 0.22567 0.2347 0.0
H309 H 0.38033 0.34253 0.23497 0.0
H310 H 0.45084 0.1439 0.13883 0.0
H311 H 0.49856 0.18514 0.30015 0.0
Eu312 Eu 0.04556 1.00949 0.74313 0.0
C313 C 0.94445 0.9738 0.57031 0.0
C314 C 0.95832 0.94516 0.46864 0.0
C315 C 0.91577 0.93921 0.52567 0.0
C316 C 0.96325 0.96599 0.51939 0.0
C317 C 0.92023 0.96091 0.57302 0.0
C318 C 0.93479 0.93137 0.47343 0.0
C319 C 0.90575 0.99338 0.66377 0.0
N320 N 0.94927 0.99502 0.61425 0.0
C321 C 0.93001 1.00558 0.65855 0.0
C322 C 0.90095 0.97071 0.62159 0.0
Eu323 Eu 0.9916 0.01347 0.60855 0.0
N324 N 0.98575 0.97975 0.51654 0.0
C325 C 1.00321 0.97498 0.45991 0.0
C326 C 0.97686 0.93929 0.41331 0.0
C327 C 0.99921 0.95455 0.40822 0.0
H328 H 0.93369 0.02293 0.69204 0.0
H329 H 0.01346 0.95051 0.36475 0.0
H330 H 0.93085 0.91506 0.43574 0.0
H331 H 0.89083 1.00141 0.70053 0.0
H332 H 0.0206 0.98646 0.45457 0.0
H333 H 0.02331 0.06831 0.995 0.0
H334 H 0.97386 0.9234 0.37343 0.0
H335 H 0.10302 1.00496 0.65304 0.0
H336 H 0.01807 0.03202 0.90518 0.0
H337 H 0.14355 0.03042 0.63962 0.0
H338 H 0.89742 0.92886 0.5275 0.0
H339 H 0.05964 0.09936 0.98074 0.0
H340 H 0.10027 0.11204 0.9122 0.0
H341 H 0.88212 0.96134 0.62548 0.0
H342 H 0.13305 0.10177 0.81514 0.0
N343 N 0.05019 0.04277 0.8369 0.0
C344 C 0.03375 0.04545 0.89685 0.0
C345 C 0.05735 0.08343 0.94059 0.0
C346 C 0.07519 0.07959 0.88211 0.0
C347 C 0.03683 0.06597 0.94876 0.0
C348 C 0.07122 0.0586 0.83113 0.0
H349 H 0.14961 0.0711 0.71421 0.0
N350 N 0.08611 0.03139 0.73274 0.0
C351 C 0.12854 0.037 0.67832 0.0
C352 C 0.0897 0.0528 0.77703 0.0
C353 C 0.10566 0.02258 0.68634 0.0
C354 C 0.13183 0.06 0.72026 0.0
C355 C 0.11255 0.06787 0.77159 0.0
O356 O 0.07681 0.98328 0.77535 0.0
O357 O 0.02008 0.98712 0.66255 0.0
O358 O 0.97774 0.99044 0.70843 0.0
O359 O 1.00555 1.00584 0.80213 0.0
O360 O 0.05912 0.97785 0.65988 0.0
O361 O 0.04135 0.98548 0.84157 0.0
O362 O 0.96595 0.04534 0.57691 0.0
O363 O 0.01658 0.03529 0.69089 0.0
O364 O 0.0572 0.03463 0.64531 0.0
O365 O 0.03192 0.01608 0.55157 0.0
O366 O 0.97769 0.04529 0.69089 0.0
O367 O 0.99769 0.0335 0.50372 0.0
C368 C 0.03666 0.97176 0.63307 0.0
C369 C 0.06069 0.9441 0.8195 0.0
C370 C 0.03609 0.90517 0.78269 0.0
C371 C 0.0379 0.93243 0.79117 0.0
C372 C 0.05818 0.88998 0.7997 0.0
C373 C 0.0823 0.9286 0.83591 0.0
C374 C 0.08109 0.90167 0.82538 0.0
C375 C 0.98321 0.99505 0.77992 0.0
C376 C 0.06281 0.97254 0.82693 0.0
C377 C 0.11581 0.08974 0.81911 0.0
C378 C 0.09716 0.09557 0.87439 0.0
C379 C 0.99997 0.05072 0.72009 0.0
C380 C 0.99251 0.07863 0.52921 0.0
C381 C 0.01694 0.08407 0.49721 0.0
C382 C 0.02948 0.10789 0.51221 0.0
C383 C 0.01719 0.12642 0.55967 0.0
C384 C 0.98041 0.09769 0.57521 0.0
C385 C 0.99279 0.12133 0.59059 0.0
C386 C 0.0529 0.0291 0.57392 0.0
C387 C 0.98141 0.05211 0.52272 0.0
H388 H 0.02154 0.94464 0.77648 0.0
H389 H 0.05762 0.86892 0.79632 0.0
H390 H 0.10017 0.93736 0.85635 0.0
H391 H 0.0978 0.88973 0.83859 0.0
H392 H 0.02654 0.06953 0.4619 0.0
H393 H 0.02605 0.14518 0.57125 0.0
H394 H 0.96169 0.09408 0.6011 0.0
H395 H 0.98346 0.13577 0.62675 0.0
Eu396 Eu 0.51934 0.04324 0.70643 0.0
C397 C 0.53665 0.9411 0.53395 0.0
C398 C 0.56788 0.95417 0.44082 0.0
C399 C 0.56982 0.91048 0.48981 0.0
C400 C 0.54659 0.95989 0.48862 0.0
C401 C 0.54753 0.91585 0.53338 0.0
C402 C 0.58001 0.92965 0.44353 0.0
C403 C 0.5116 0.90238 0.61085 0.0
N404 N 0.51494 0.94695 0.57401 0.0
C405 C 0.50148 0.92768 0.60877 0.0
C406 C 0.53503 0.89654 0.57411 0.0
Eu407 Eu 0.50018 0.99096 0.57657 0.0
N408 N 0.53419 0.98321 0.4874 0.0
C409 C 0.5409 1.001 0.435 0.0
C410 C 0.57568 0.9729 0.3899 0.0
C411 C 0.56173 0.99618 0.38584 0.0
H412 H 0.4834 0.93217 0.63751 0.0
H413 H 0.56725 1.01062 0.34564 0.0
H414 H 0.59666 0.92504 0.4082 0.0
H415 H 0.50134 0.88743 0.64077 0.0
H416 H 0.5308 0.01932 0.43153 0.0
H417 H 0.57131 0.03043 0.96825 0.0
H418 H 0.59194 0.96931 0.35223 0.0
H419 H 0.45886 0.07297 0.67996 0.0
H420 H 0.56528 0.02993 0.83171 0.0
H421 H 0.42428 0.09223 0.75462 0.0
H422 H 0.57873 0.89132 0.48942 0.0
H423 H 0.53563 0.04576 0.0516 0.0
H424 H 0.49095 0.06499 0.06558 0.0
H425 H 0.54276 0.87689 0.57526 0.0
H426 H 0.4514 0.0822 1.00732 0.0
N427 N 0.5262 0.04385 0.83731 0.0
C428 C 0.54949 0.0365 0.86745 0.0
C429 C 0.53284 0.04543 0.99161 0.0
C430 C 0.50955 0.05423 0.96037 0.0
C431 C 0.55301 0.0368 0.94482 0.0
C432 C 0.50684 0.05339 0.8818 0.0
H433 H 0.42669 0.09275 0.89217 0.0
N434 N 0.48301 0.06269 0.77277 0.0
C435 C 0.44125 0.08431 0.78192 0.0
C436 C 0.48471 0.06326 0.84871 0.0
C437 C 0.46158 0.07342 0.73935 0.0
C438 C 0.44262 0.08447 0.85945 0.0
C439 C 0.46451 0.07401 0.8939 0.0
O440 O 0.53518 0.0728 0.63286 0.0
O441 O 0.53209 0.01841 0.60769 0.0
O442 O 0.51781 0.97147 0.67879 0.0
O443 O 0.52192 1.00488 0.76969 0.0
O444 O 0.55737 0.02066 0.6961 0.0
O445 O 0.54373 0.07535 0.74931 0.0
O446 O 0.46445 0.96951 0.55149 0.0
O447 O 0.48587 0.02053 0.6624 0.0
O448 O 0.49464 0.06058 0.61564 0.0
O449 O 0.49774 0.03032 0.51813 0.0
O450 O 0.47035 0.98351 0.66788 0.0
O451 O 0.47975 0.99571 0.47071 0.0
C452 C 0.55448 1.01141 0.6293 0.0
C453 C 0.57759 0.0847 0.66323 0.0
C454 C 0.62022 0.06332 0.66557 0.0
C455 C 0.59535 0.06781 0.69665 0.0
C456 C 0.628 0.07796 0.60391 0.0
C457 C 0.58567 0.09913 0.60178 0.0
C458 C 0.61091 0.09605 0.57311 0.0
C459 C 0.52229 0.97988 0.74832 0.0
C460 C 0.54973 0.08361 0.6834 0.0
C461 C 0.46679 0.07418 0.97204 0.0
C462 C 0.48927 0.06433 1.00522 0.0
C463 C 0.47034 1.00634 0.69876 0.0
C464 C 0.43431 0.99699 0.49443 0.0
C465 C 0.43274 0.02287 0.47066 0.0
C466 C 0.40996 0.03759 0.48232 0.0
C467 C 0.38842 0.02595 0.51707 0.0
C468 C 0.41244 0.98565 0.528 0.0
C469 C 0.38966 1.00011 0.53932 0.0
C470 C 0.49254 0.05413 0.54404 0.0
C471 C 0.45941 0.98286 0.49262 0.0
H472 H 0.58933 0.05735 0.7455 0.0
H473 H 0.64689 0.07494 0.57799 0.0
H474 H 0.57217 0.11205 0.5744 0.0
H475 H 0.61691 0.10698 0.525 0.0
H476 H 0.44932 0.0318 0.44411 0.0
H477 H 0.37033 0.03657 0.52525 0.0
H478 H 0.41318 0.96579 0.54718 0.0
H479 H 0.37295 0.99131 0.56575 0.0
Eu480 Eu 0.54753 0.50769 0.59882 0.0
C481 C 0.43159 0.48634 0.6837 0.0
C482 C 0.40494 0.50585 0.58854 0.0
C483 C 0.38959 0.46735 0.6515 0.0
C484 C 0.42813 0.5052 0.63073 0.0
C485 C 0.41212 0.46751 0.69579 0.0
C486 C 0.38598 0.48652 0.59805 0.0
C487 C 0.43746 0.45187 0.79916 0.0
N488 N 0.45343 0.48713 0.72596 0.0
C489 C 0.45603 0.47107 0.78559 0.0
C490 C 0.41556 0.44983 0.75339 0.0
Eu491 Eu 0.4851 0.51899 0.69659 0.0
N492 N 0.44702 0.52341 0.62211 0.0
C493 C 0.4429 0.54391 0.57605 0.0
C494 C 0.40131 0.52611 0.53869 0.0
C495 C 0.42023 0.5454 0.53321 0.0
H496 H 0.47305 0.4725 0.82086 0.0
H497 H 0.41744 0.5614 0.49567 0.0
H498 H 0.36825 0.48651 0.56533 0.0
H499 H 0.44006 0.43865 0.84482 0.0
H500 H 0.45702 0.55915 0.57086 0.0
H501 H 0.61841 0.46764 0.79411 0.0
H502 H 0.38384 0.52724 0.50504 0.0
H503 H 0.55753 0.55292 0.46969 0.0
H504 H 0.57812 0.4684 0.72106 0.0
H505 H 0.58978 0.58693 0.43996 0.0
H506 H 0.37455 0.45288 0.65942 0.0
H507 H 0.65057 0.50312 0.78294 0.0
H508 H 0.66434 0.54415 0.72055 0.0
H509 H 0.40111 0.43502 0.7642 0.0
H510 H 0.65651 0.57675 0.62438 0.0
N511 N 0.58634 0.50466 0.67036 0.0
C512 C 0.59164 0.48421 0.71555 0.0
C513 C 0.63278 0.50362 0.75055 0.0
C514 C 0.62804 0.52368 0.70077 0.0
C515 C 0.61468 0.48358 0.757 0.0
C516 C 0.60448 0.52348 0.6602 0.0
H517 H 0.62905 0.59253 0.5185 0.0
N518 N 0.57811 0.53994 0.56492 0.0
C519 C 0.59291 0.57443 0.48702 0.0
C520 C 0.60017 0.54175 0.60606 0.0
C521 C 0.57476 0.55514 0.50381 0.0
C522 C 0.61498 0.5776 0.53167 0.0
C523 C 0.61911 0.56084 0.59116 0.0
O524 O 0.5628 0.49853 0.4878 0.0
O525 O 0.50415 0.5048 0.5921 0.0
O526 O 0.4908 0.47543 0.67548 0.0
O527 O 0.53598 0.47273 0.67047 0.0
O528 O 0.52211 0.51723 0.49707 0.0
O529 O 0.5604 0.46816 0.56991 0.0
O530 O 0.46852 0.52712 0.80672 0.0
O531 O 0.5286 0.52142 0.70468 0.0
O532 O 0.54265 0.55097 0.62296 0.0
O533 O 0.49754 0.5545 0.62752 0.0
O534 O 0.50968 0.50839 0.79813 0.0
O535 O 0.47398 0.55868 0.72974 0.0
C536 C 0.49993 0.51136 0.52588 0.0
C537 C 0.5509 0.45735 0.44399 0.0
C538 C 0.51183 0.43497 0.40063 0.0
C539 C 0.52556 0.44817 0.45742 0.0
C540 C 0.52378 0.43104 0.33028 0.0
C541 C 0.56251 0.45322 0.37378 0.0
C542 C 0.54896 0.44009 0.31715 0.0
C543 C 0.51277 0.46225 0.68333 0.0
C544 C 0.56425 0.47366 0.4998 0.0
C545 C 0.64189 0.56203 0.63434 0.0
C546 C 0.64636 0.54346 0.68901 0.0
C547 C 0.5321 0.5143 0.77097 0.0
C548 C 0.48154 0.56695 0.85824 0.0
C549 C 0.50773 0.57454 0.85107 0.0
C550 C 0.52065 0.58673 0.91136 0.0
C551 C 0.50693 0.59111 0.9789 0.0
C552 C 0.46829 0.57145 0.92583 0.0
C553 C 0.48098 0.58349 0.98592 0.0
C554 C 0.52099 0.56471 0.61606 0.0
C555 C 0.46856 0.55222 0.79824 0.0
H556 H 0.51638 0.45166 0.51139 0.0
H557 H 0.51387 0.42043 0.28582 0.0
H558 H 0.58188 0.46055 0.36244 0.0
H559 H 0.55798 0.43692 0.26294 0.0
H560 H 0.51806 0.57075 0.79901 0.0
H561 H 0.51601 0.6011 0.0259 0.0
H562 H 0.44822 0.56535 0.93234 0.0
H563 H 0.47065 0.58702 0.03802 0.0
Eu564 Eu 0.02414 0.54346 0.59229 0.0
C565 C 0.02455 0.43167 0.70586 0.0
C566 C 1.00012 0.40819 0.61048 0.0
C567 C 0.03448 0.3861 0.6773 0.0
C568 C 1.0052 0.43135 0.65213 0.0
C569 C 0.03897 0.40884 0.72018 0.0
C570 C 0.01513 0.38579 0.6225 0.0
C571 C 0.05994 0.43189 0.82228 0.0
N572 N 0.02867 0.45394 0.74612 0.0
C573 C 0.04521 0.45397 0.80614 0.0
C574 C 0.0571 0.40932 0.77838 0.0
Eu575 Eu 1.00346 0.49103 0.71404 0.0
N576 N 0.9912 0.45346 0.64086 0.0
C577 C 0.97087 0.45301 0.59137 0.0
C578 C 0.98003 0.40812 0.55805 0.0
C579 C 0.96518 0.43054 0.54912 0.0
H580 H 0.04767 0.47148 0.84011 0.0
H581 H 0.94942 0.43063 0.50909 0.0
H582 H 1.01166 0.368 0.5904 0.0
H583 H 0.07353 0.43234 0.86841 0.0
H584 H 0.95908 0.46986 0.58182 0.0
H585 H 0.06782 0.61575 0.78707 0.0
H586 H 0.97568 0.39081 0.52474 0.0
H587 H 0.98821 0.55802 0.44136 0.0
H588 H 0.06578 0.57491 0.71624 0.0
H589 H 0.95844 0.59272 0.40007 0.0
H590 H 0.04556 0.36851 0.68699 0.0
H591 H 0.03498 0.65013 0.76728 0.0
H592 H 0.99693 0.66618 0.6942 0.0
H593 H 0.06853 0.39221 0.791 0.0
H594 H 0.96688 0.65989 0.58867 0.0
N595 N 0.03067 0.58415 0.65827 0.0
C596 C 0.05074 0.58895 0.7069 0.0
C597 C 0.03375 0.63189 0.73589 0.0
C598 C 0.01456 0.62791 0.68173 0.0
C599 C 0.05228 0.61254 0.74718 0.0
C600 C 0.01372 0.60369 0.64265 0.0
H601 H 0.95281 0.63284 0.47765 0.0
N602 N 0.99811 0.57761 0.5434 0.0
C603 C 0.96889 0.59502 0.4522 0.0
C604 C 0.99677 0.6002 0.58365 0.0
C605 C 0.98574 0.57544 0.47578 0.0
C606 C 0.96571 0.61756 0.49625 0.0
C607 C 0.98027 0.62071 0.56176 0.0
O608 O 0.03955 0.56038 0.4901 0.0
O609 O 0.02174 0.50029 0.60486 0.0
O610 O 0.04775 0.49087 0.70555 0.0
O611 O 0.05675 0.53365 0.67611 0.0
O612 O 1.01116 0.51416 0.50213 0.0
O613 O 0.06409 0.53572 0.55517 0.0
O614 O 0.99818 0.48199 0.83117 0.0
O615 O 1.00448 0.5346 0.70082 0.0
O616 O 0.98078 0.53768 0.57152 0.0
O617 O 0.96693 0.50632 0.65515 0.0
O618 O 0.0167 0.52074 0.80236 0.0
O619 O 0.96459 0.48319 0.75829 0.0
C620 C 0.01483 0.4933 0.53958 0.0
C621 C 0.06438 0.52858 0.42396 0.0
C622 C 0.07969 0.48711 0.36905 0.0
C623 C 0.07666 0.50422 0.43106 0.0
C624 C 0.06905 0.4943 0.30008 0.0
C625 C 0.05431 0.5354 0.35418 0.0
C626 C 0.05638 0.5182 0.29301 0.0
C627 C 0.06384 0.51092 0.7039 0.0
C628 C 0.06036 0.54592 0.49023 0.0
C629 C 0.97973 0.6441 0.60385 0.0
C630 C 0.99685 0.64768 0.66382 0.0
C631 C 0.0119 0.54152 0.76575 0.0
C632 C 0.95988 0.49835 0.88355 0.0
C633 C 0.95189 0.52382 0.8673 0.0
C634 C 0.941 0.54006 0.92355 0.0
C635 C 0.93869 0.53043 0.99651 0.0
C636 C 0.95745 0.48925 0.95637 0.0
C637 C 0.94696 0.50529 1.01262 0.0
C638 C 0.96246 0.5231 0.60125 0.0
C639 C 0.97291 0.48184 0.82704 0.0
H640 H 0.08397 0.49858 0.48505 0.0
H641 H 0.0714 0.482 0.25059 0.0
H642 H 0.04452 0.5539 0.34709 0.0
H643 H 0.04853 0.52361 0.23948 0.0
H644 H 0.9542 0.5309 0.81109 0.0
H645 H 0.92967 0.54195 0.04096 0.0
H646 H 0.96395 0.46981 0.96982 0.0
H647 H 0.94499 0.49813 0.06879 0.0
H648 H 0.14647 0.07447 0.38416 0.0
H649 H 0.13213 1.00499 0.25103 0.0
H650 H 0.09536 0.99411 0.33212 0.0
H651 H 0.06773 1.00367 0.44375 0.0
H652 H 0.08406 0.07186 0.58025 0.0
H653 H 0.11906 0.08401 0.49495 0.0
C654 C 0.13518 0.05705 0.3723 0.0
C655 C 0.14222 0.04063 0.31097 0.0
C656 C 0.11423 0.05067 0.42004 0.0
C657 C 0.12746 0.01792 0.29782 0.0
C658 C 0.10629 0.01173 0.34415 0.0
C659 C 0.07876 0.02134 0.45425 0.0
C660 C 0.07306 0.03692 0.51827 0.0
C661 C 0.09953 0.02787 0.40576 0.0
C662 C 0.08795 0.05949 0.53163 0.0
C663 C 0.10806 0.06645 0.48281 0.0
H664 H 0.46817 0.15861 0.37604 0.0
H665 H 0.48481 0.11026 0.1818 0.0
H666 H 0.49027 0.07233 0.26161 0.0
H667 H 0.49317 0.05353 0.38884 0.0
H668 H 0.47576 0.10314 0.58082 0.0
H669 H 0.46782 0.13955 0.49995 0.0
C670 C 0.4731 0.1398 0.35099 0.0
C671 C 0.47658 0.13752 0.27297 0.0
C672 C 0.47618 0.11815 0.39715 0.0
C673 C 0.48217 0.11273 0.24161 0.0
C674 C 0.48539 0.09102 0.28739 0.0
C675 C 0.48744 0.07223 0.41297 0.0
C676 C 0.48542 0.07536 0.49154 0.0
C677 C 0.48287 0.09355 0.36559 0.0
C678 C 0.47777 0.09988 0.52111 0.0
C679 C 0.4732 0.1209 0.47473 0.0
H680 H 0.39643 0.46975 0.37126 0.0
H681 H 0.40988 0.53626 0.23337 0.0
H682 H 0.45022 0.54575 0.30121 0.0
H683 H 0.4809 0.53648 0.4045 0.0
H684 H 0.46719 0.46998 0.54163 0.0
H685 H 0.42818 0.45911 0.46947 0.0
C686 C 0.40814 0.48636 0.35591 0.0
C687 C 0.39979 0.50236 0.2972 0.0
C688 C 0.4314 0.49176 0.39541 0.0
C689 C 0.41569 0.52347 0.27769 0.0
C690 C 0.43877 0.52901 0.31687 0.0
C691 C 0.46932 0.51962 0.41845 0.0
C692 C 0.47647 0.50462 0.48028 0.0
C693 C 0.4467 0.5135 0.37649 0.0
C694 C 0.46167 0.48242 0.49624 0.0
C695 C 0.4394 0.47608 0.45452 0.0
H696 H 0.05512 0.38407 0.40805 0.0
H697 H 0.99678 0.40055 0.24248 0.0
H698 H 0.98671 0.44188 0.30663 0.0
H699 H 0.99339 0.47317 0.41207 0.0
H700 H 0.05221 0.45736 0.57606 0.0
H701 H 0.06301 0.41621 0.5109 0.0
C702 C 0.04006 0.39657 0.38605 0.0
C703 C 0.02666 0.38879 0.32012 0.0
C704 C 0.03428 0.42051 0.42354 0.0
C705 C 1.00764 0.40582 0.29228 0.0
C706 C 1.00173 0.4295 0.32937 0.0
C707 C 1.00847 0.46061 0.43376 0.0
C708 C 0.02123 0.46791 0.50075 0.0
C709 C 0.01474 0.437 0.39535 0.0
C710 C 0.04135 0.45181 0.52647 0.0
C711 C 0.04767 0.42832 0.48875 0.0
H712 H 0.88374 0.96375 0.97059 0.0
H713 H 0.91653 0.02012 0.1255 0.0
H714 H 0.95349 0.02642 0.041 0.0
H715 H 0.97605 0.01688 0.92085 0.0
H716 H 0.94276 0.96084 0.76588 0.0
H717 H 0.90662 0.95371 0.85198 0.0
C718 C 0.89912 0.97717 0.98658 0.0
C719 C 0.89719 0.99132 0.05511 0.0
C720 C 0.92031 0.98091 0.93717 0.0
C721 C 0.91722 1.00903 0.07336 0.0
C722 C 0.93849 0.01259 0.02498 0.0
C723 C 0.96122 1.00274 0.90634 0.0
C724 C 0.96244 0.98937 0.8365 0.0
C725 C 0.94023 0.99873 0.95647 0.0
C726 C 0.94246 0.97158 0.81866 0.0
C727 C 0.9217 0.96744 0.86812 0.0
H728 H 0.55777 0.90819 1.01467 0.0
H729 H 0.50144 0.85659 0.91152 0.0
H730 H 0.49192 0.88913 0.81824 0.0
H731 H 0.49979 0.93217 0.76424 0.0
H732 H 0.5571 0.98311 0.8636 0.0
H733 H 0.56588 0.95117 0.95964 0.0
C734 C 0.54347 0.90393 0.97171 0.0
C735 C 0.53033 0.87974 0.97108 0.0
C736 C 0.53823 0.92273 0.91715 0.0
C737 C 0.5116 0.87503 0.91501 0.0
C738 C 0.50627 0.8936 0.86089 0.0
C739 C 0.51451 0.93611 0.80602 0.0
C740 C 0.52785 0.96008 0.80607 0.0
C741 C 0.51956 0.91746 0.86103 0.0
C742 C 0.54626 0.9651 0.86252 0.0
C743 C 0.55142 0.94669 0.91732 0.0
H744 H 0.62337 0.51241 1.00979 0.0
H745 H 0.64488 0.58278 0.89807 0.0
H746 H 0.60823 0.5774 0.81269 0.0
H747 H 0.56908 0.55311 0.76989 0.0
H748 H 0.5473 0.48309 0.88226 0.0
H749 H 0.58444 0.48806 0.96675 0.0
C750 C 0.62012 0.52653 0.96663 0.0
C751 C 0.63703 0.54806 0.96127 0.0
C752 C 0.59866 0.52348 0.91762 0.0
C753 C 0.63217 0.56619 0.90483 0.0
C754 C 0.61114 0.56312 0.85557 0.0
C755 C 0.57273 0.53878 0.81224 0.0
C756 C 0.55584 0.5173 0.81825 0.0
C757 C 0.59412 0.54192 0.86149 0.0
C758 C 0.56027 0.49949 0.87543 0.0
C759 C 0.58151 0.50237 0.92396 0.0
H760 H 0.97055 0.64806 0.91314 0.0
H761 H 0.03438 0.63286 0.06282 0.0
H762 H 0.04508 0.59326 0.99149 0.0
H763 H 0.03644 0.56226 0.8871 0.0
H764 H 0.97264 0.57662 0.73784 0.0
H765 H 0.9616 0.61663 0.80887 0.0
C766 C 0.9867 0.63605 0.93082 0.0
C767 C 1.00166 0.64394 0.99391 0.0
C768 C 0.99281 0.61295 0.88931 0.0
C769 C 0.02269 0.62792 1.01434 0.0
C770 C 0.02877 0.60501 0.97367 0.0
C771 C 0.02023 0.57428 0.8698 0.0
C772 C 1.00586 0.56676 0.80582 0.0
C773 C 0.01405 0.59733 0.91101 0.0
C774 C 0.98454 0.58228 0.78533 0.0
C775 C 0.97813 0.60512 0.82638 0.0
H776 H 0.10719 0.15372 0.28769 0.0
H777 H 0.13344 0.19365 0.48809 0.0
H778 H 0.1094 0.16289 0.56429 0.0
H779 H 0.07175 0.13327 0.57047 0.0
H780 H 0.04307 0.09687 0.36724 0.0
H781 H 0.07786 0.11684 0.29627 0.0
C782 C 0.1088 0.15505 0.34805 0.0
C783 C 0.12121 0.17664 0.3821 0.0
C784 C 0.0938 0.13824 0.39114 0.0
C785 C 0.12335 0.17765 0.46047 0.0
C786 C 0.10936 0.16023 0.50405 0.0
C787 C 0.07338 0.12945 0.51079 0.0
C788 C 0.05424 0.11444 0.47383 0.0
C789 C 0.09284 0.1419 0.46956 0.0
C790 C 0.05726 0.10864 0.39713 0.0
C791 C 0.07711 0.12021 0.35624 0.0
H792 H 0.37432 0.12315 0.27522 0.0
H793 H 0.3332 0.14756 0.47555 0.0
H794 H 0.3622 0.12092 0.55023 0.0
H795 H 0.38845 0.08059 0.55023 0.0
H796 H 0.42651 0.05441 0.34658 0.0
H797 H 0.4104 0.09246 0.28248 0.0
C798 C 0.37241 0.12385 0.33558 0.0
C799 C 0.35056 0.13601 0.36931 0.0
C800 C 0.38824 0.10742 0.37746 0.0
C801 C 0.34917 0.13737 0.44786 0.0
C802 C 0.36557 0.12188 0.49055 0.0
C803 C 0.39369 0.0836 0.49229 0.0
C804 C 0.40757 0.06416 0.45224 0.0
C805 C 0.38341 0.10498 0.45477 0.0
C806 C 0.41531 0.06878 0.37829 0.0
C807 C 0.40595 0.0905 0.34133 0.0
H808 H 0.4277 0.35193 0.45128 0.0
H809 H 0.40491 0.37958 0.2346 0.0
H810 H 0.42989 0.41882 0.25515 0.0
H811 H 0.46889 0.43742 0.31354 0.0
H812 H 0.49667 0.4068 0.52101 0.0
H813 H 0.45974 0.37694 0.52491 0.0
C814 C 0.42779 0.36673 0.40901 0.0
C815 C 0.41565 0.36176 0.33959 0.0
C816 C 0.44407 0.3885 0.41829 0.0
C817 C 0.4145 0.3821 0.28798 0.0
C818 C 0.42925 0.40461 0.29901 0.0
C819 C 0.46648 0.42457 0.36037 0.0
C820 C 0.48594 0.42344 0.41512 0.0
C821 C 0.44591 0.40672 0.36052 0.0
C822 C 0.48215 0.40762 0.47732 0.0
C823 C 0.46111 0.39042 0.47933 0.0
H824 H 0.1562 0.39665 0.28641 0.0
H825 H 0.20397 0.44274 0.43824 0.0
H826 H 0.16611 0.46554 0.4832 0.0
H827 H 0.12331 0.48175 0.45297 0.0
H828 H 0.07485 0.43937 0.29567 0.0
H829 H 0.1094 0.40695 0.27734 0.0
C830 C 0.15852 0.41159 0.32947 0.0
C831 C 0.18369 0.41876 0.35437 0.0
C832 C 0.13661 0.42629 0.35231 0.0
C833 C 0.18547 0.43674 0.41508 0.0
C834 C 0.16362 0.45036 0.44077 0.0
C835 C 0.11963 0.46499 0.41676 0.0
C836 C 0.09679 0.46367 0.37365 0.0
C837 C 0.13963 0.44674 0.40549 0.0
C838 C 0.09271 0.44155 0.32727 0.0
C839 C 0.11241 0.42288 0.31707 0.0
H840 H 0.95346 0.82199 0.81917 0.0
H841 H 0.91439 0.88651 0.92991 0.0
H842 H 0.94302 0.91692 0.86773 0.0
H843 H 0.98709 0.92273 0.82027 0.0
H844 H 0.02658 0.85849 0.70787 0.0
H845 H 0.98923 0.83053 0.73083 0.0
C846 C 0.95006 0.84277 0.82603 0.0
C847 C 0.93289 0.85202 0.88214 0.0
C848 C 0.96728 0.86016 0.79202 0.0
C849 C 0.92813 0.87896 0.88865 0.0
C850 C 0.94476 0.8964 0.85375 0.0
C851 C 0.98737 0.90301 0.79751 0.0
C852 C 1.01053 0.89225 0.7673 0.0
C853 C 0.96588 0.88697 0.81121 0.0
C854 C 1.00972 0.86683 0.73613 0.0
C855 C 0.98825 0.85082 0.74867 0.0
H856 H 0.67175 0.97672 0.85663 0.0
H857 H 0.74004 0.02286 0.81636 0.0
H858 H 0.71615 0.04847 0.72491 0.0
H859 H 0.67358 0.06286 0.67753 0.0
H860 H 0.60533 0.01677 0.72379 0.0
H861 H 0.63135 0.98609 0.79111 0.0
C862 C 0.68156 0.99176 0.82549 0.0
C863 C 0.70733 0.99817 0.84275 0.0
C864 C 0.66751 1.00686 0.77559 0.0
C865 C 0.72011 0.01765 0.80304 0.0
C866 C 0.70637 0.03248 0.7517 0.0
C867 C 0.66445 0.04579 0.70058 0.0
C868 C 0.63724 0.04271 0.69674 0.0
C869 C 0.67965 0.02813 0.74067 0.0
C870 C 0.62597 0.02031 0.72725 0.0
C871 C 0.64091 1.0025 0.76569 0.0
H872 H 0.60945 0.66579 0.87165 0.0
H873 H 0.62122 0.64424 0.10132 0.0
H874 H 0.59661 0.60489 0.08005 0.0
H875 H 0.56015 0.58516 1.01194 0.0
H876 H 0.54171 0.6114 0.79097 0.0
H877 H 0.57962 0.63991 0.79338 0.0
C878 C 0.60686 0.65246 0.91715 0.0
C879 C 0.61564 0.6594 0.98951 0.0
C880 C 0.59038 0.63089 0.9069 0.0
C881 C 0.61405 0.64048 0.04542 0.0
C882 C 0.59945 0.61789 0.03383 0.0
C883 C 0.56469 0.59683 0.96384 0.0
C884 C 0.54747 0.5971 0.90298 0.0
C885 C 0.58555 0.61434 0.96734 0.0
C886 C 0.5543 0.61122 0.83939 0.0
C887 C 0.57592 0.62773 0.84093 0.0
H888 H 0.85492 0.6193 0.85759 0.0
H889 H 0.87583 0.64197 0.08372 0.0
H890 H 0.91781 0.62156 0.06751 0.0
H891 H 0.94104 0.58472 1.00907 0.0
H892 H 0.91455 0.55355 0.79675 0.0
H893 H 0.88311 0.58885 0.78793 0.0
C894 C 0.86851 0.61982 0.90374 0.0
C895 C 0.86075 0.63029 0.97402 0.0
C896 C 0.89175 0.60542 0.89738 0.0
C897 C 0.88008 0.63317 0.02966 0.0
C898 C 0.90432 0.62105 0.02102 0.0
C899 C 0.92863 0.58586 0.96032 0.0
C900 C 0.92922 0.56571 0.90578 0.0
C901 C 0.9091 0.60495 0.95836 0.0
C902 C 0.91418 0.56836 0.84074 0.0
C903 C 0.89593 0.5885 0.83589 0.0
H904 H 0.99239 0.14776 0.94413 0.0
H905 H 0.06267 0.1698 0.82858 0.0
H906 H 0.06033 0.13018 0.751 0.0
H907 H 0.03848 0.08832 0.71556 0.0
H908 H 0.9689 0.06645 0.83376 0.0
H909 H 0.97117 0.10629 0.91069 0.0
C910 C 1.00742 0.14397 0.9026 0.0
C911 C 0.02762 0.16232 0.89296 0.0
C912 C 1.00624 0.12075 0.85847 0.0
C913 C 0.0465 0.15671 0.83718 0.0
C914 C 0.04533 0.13377 0.79281 0.0
C915 C 0.02414 0.09212 0.75914 0.0
C916 C 1.00397 0.07393 0.77047 0.0
C917 C 0.02537 0.1155 0.80302 0.0
C918 C 0.98491 0.07977 0.82497 0.0
C919 C 0.98614 0.10267 0.86883 0.0
H920 H 0.38591 0.02516 0.95433 0.0
H921 H 0.33921 0.04462 0.7631 0.0
H922 H 0.3768 0.0381 0.68141 0.0
H923 H 0.42297 0.02556 0.66209 0.0
H924 H 0.46912 1.00329 0.85048 0.0
H925 H 0.43203 0.01196 0.93468 0.0
C926 C 0.38376 0.0277 0.89473 0.0
C927 C 0.35937 0.03557 0.86581 0.0
C928 C 0.40559 0.02349 0.84712 0.0
C929 C 0.35752 0.03906 0.78805 0.0
C930 C 0.3791 0.03514 0.74077 0.0
C931 C 0.42492 0.02298 0.72177 0.0
C932 C 0.44904 0.01475 0.75049 0.0
C933 C 0.40323 0.02735 0.76948 0.0
C934 C 0.45104 1.01046 0.82746 0.0
C935 C 0.42972 0.0152 0.87546 0.0
H936 H 0.51506 0.36034 0.87629 0.0
H937 H 0.44644 0.34333 0.74482 0.0
H938 H 0.45225 0.38355 0.67778 0.0
H939 H 0.47553 0.42503 0.65937 0.0
H940 H 0.54608 0.44031 0.78245 0.0
H941 H 0.54114 0.39922 0.84759 0.0
C942 C 0.5016 0.36495 0.832 0.0
C943 C 0.4799 0.34861 0.81785 0.0
C944 C 0.50541 0.38803 0.79149 0.0
C945 C 0.46281 0.35558 0.75984 0.0
C946 C 0.46623 0.37864 0.72052 0.0
C947 C 0.49 0.41918 0.69979 0.0
C948 C 0.51119 0.43579 0.71582 0.0
C949 C 0.48719 0.39527 0.73663 0.0
C950 C 0.52978 0.42784 0.76821 0.0
C951 C 0.52683 0.40437 0.80602 0.0
H952 H 0.17047 0.47383 0.84748 0.0
H953 H 0.17771 0.55617 0.89638 0.0
H954 H 0.13655 0.56422 0.83258 0.0
H955 H 0.0974 0.5478 0.7654 0.0
H956 H 0.09112 0.46558 0.7146 0.0
H957 H 0.13279 0.45782 0.77532 0.0
C958 C 0.16341 0.49365 0.84335 0.0
C959 C 0.1776 0.51429 0.87753 0.0
C960 C 0.13959 0.49824 0.80603 0.0
C961 C 0.16738 0.53971 0.8721 0.0
C962 C 0.14377 0.5444 0.835 0.0
C963 C 0.10524 0.52824 0.76662 0.0
C964 C 0.09068 0.50731 0.73564 0.0
C965 C 0.12953 0.52382 0.8021 0.0
C966 C 0.10141 0.48208 0.73883 0.0
C967 C 0.12543 0.4776 0.77345 0.0
H968 H 0.04257 0.87253 0.41693 0.0
H969 H 0.96713 0.85738 0.51437 0.0
H970 H 0.97122 0.89631 0.59389 0.0
H971 H 0.99555 0.93649 0.63335 0.0
H972 H 0.06952 0.95214 0.52894 0.0
H973 H 0.0662 0.912 0.45411 0.0
C974 C 0.0267 0.87768 0.4545 0.0
C975 C 1.0045 0.86142 0.45818 0.0
C976 C 0.02875 0.90074 0.49895 0.0
C977 C 0.98477 0.86874 0.50997 0.0
C978 C 0.98694 0.89137 0.55545 0.0
C979 C 1.01072 0.93124 0.59342 0.0
C980 C 0.03247 0.94783 0.58539 0.0
C981 C 1.0087 0.90779 0.54994 0.0
C982 C 0.05238 0.94011 0.53537 0.0
C983 C 0.05053 0.91703 0.49259 0.0
H984 H 0.65399 0.0219 0.42046 0.0
H985 H 0.6759 0.9519 0.53396 0.0
H986 H 0.63455 0.95266 0.60176 0.0
H987 H 0.59184 0.97341 0.63095 0.0
H988 H 0.57096 0.04442 0.52251 0.0
H989 H 0.61189 0.04312 0.45157 0.0
C990 C 0.64997 1.00692 0.46057 0.0
C991 C 0.6684 0.98676 0.47106 0.0
C992 C 0.62599 1.0075 0.50015 0.0
C993 C 0.66224 0.96745 0.52308 0.0
C994 C 0.63849 0.9679 0.56238 0.0
C995 C 0.59613 0.98831 0.59075 0.0
C996 C 0.57793 1.00852 0.58017 0.0
C997 C 0.6201 0.98771 0.55114 0.0
C998 C 0.58421 0.02823 0.53 0.0
C999 C 0.60777 0.0276 0.48987 0.0
H1000 H 0.55706 0.67212 0.4847 0.0
H1001 H 0.47806 0.67191 0.4021 0.0
H1002 H 0.46949 0.63154 0.4668 0.0
H1003 H 0.4851 0.59455 0.54137 0.0
H1004 H 0.56322 0.59647 0.62947 0.0
H1005 H 0.57103 0.63798 0.56993 0.0
C1006 C 0.53773 0.66374 0.48184 0.0
C1007 C 0.51843 0.67533 0.43698 0.0
C1008 C 0.53268 0.64055 0.52042 0.0
C1009 C 0.49368 0.66345 0.43407 0.0
C1010 C 0.48862 0.64031 0.47177 0.0
C1011 C 0.50365 0.60424 0.54877 0.0
C1012 C 0.52365 0.59197 0.58908 0.0
C1013 C 0.50808 0.6284 0.51424 0.0
C1014 C 0.54757 0.60506 0.59777 0.0
C1015 C 0.55209 0.62891 0.56366 0.0
H1016 H 0.84243 0.53018 0.50842 0.0
H1017 H 0.87788 0.53775 0.29112 0.0
H1018 H 0.92112 0.53466 0.34636 0.0
H1019 H 0.94935 0.52983 0.4558 0.0
H1020 H 0.91507 0.51968 0.67314 0.0
H1021 H 0.87128 0.5235 0.61904 0.0
C1022 C 0.85963 0.53108 0.47324 0.0
C1023 C 0.85667 0.53407 0.39524 0.0
C1024 C 0.8848 0.52882 0.50554 0.0
C1025 C 0.87934 0.53509 0.35083 0.0
C1026 C 0.90419 0.53347 0.38253 0.0
C1027 C 0.93232 0.52871 0.49159 0.0
C1028 C 0.93563 0.5249 0.56883 0.0
C1029 C 0.90722 0.53037 0.45972 0.0
C1030 C 0.9132 0.52269 0.61368 0.0
C1031 C 0.88811 0.52493 0.58264 0.0
loop_
_geom_bond_atom_site_label_1
_geom_bond_atom_site_label_2
_geom_bond_distance
_geom_bond_site_symmetry_2
_ccdc_geom_bond_type
C0 C1 1.386 . S
C0 C2 1.397 . S
C0 H24 0.931 1_554 S
C1 C0 1.386 . S
C1 C5 1.397 . S
C2 C0 1.397 . S
C2 C3 1.384 . S
C2 H25 0.930 . S
C3 C2 1.384 . S
C3 C4 1.377 . S
C3 C6 1.481 . S
C4 C3 1.377 . S
C4 C5 1.389 . S
C4 H26 0.929 . S
C5 C1 1.397 . S
C5 C4 1.389 . S
C5 H27 0.931 . S
C6 C3 1.481 . S
C6 C7 1.387 . S
C6 C11 1.390 . S
C7 C6 1.387 . S
C7 C8 1.401 . S
C7 H28 0.930 . S
C8 C7 1.401 . S
C8 C9 1.376 . S
C8 C17 1.511 . S
C9 C8 1.376 . S
C9 C10 1.392 . S
C9 H30 0.931 . S
C10 C9 1.392 . S
C10 C11 1.361 . S
C10 C12 1.500 . S
C11 C6 1.390 . S
C11 C10 1.361 . S
C11 H29 0.931 . S
C12 C10 1.500 . S
C12 C13 1.371 . S
C12 C14 1.365 . S
C13 C12 1.371 . S
C13 C23 1.386 . S
C13 H31 0.931 . S
C14 C12 1.365 . S
C14 C15 1.409 . S
C14 H32 0.929 . S
C15 C14 1.409 . S
C15 C16 1.380 . S
C15 H33 0.930 . S
C16 C15 1.380 . S
C16 C23 1.357 . S
C17 C8 1.511 . S
C17 C18 1.341 . S
C17 C19 1.371 . S
C18 C17 1.341 . S
C18 C22 1.394 . S
C18 H34 0.930 . S
C19 C17 1.371 . S
C19 C20 1.392 . S
C19 H35 0.931 . S
C20 C19 1.392 . S
C20 C21 1.331 . S
C20 H38 0.932 . S
C21 C20 1.331 . S
C21 C22 1.336 . S
C22 C18 1.394 . S
C22 C21 1.336 . S
C22 H37 0.929 . S
C23 C13 1.386 . S
C23 C16 1.357 . S
C23 H36 0.928 . S
H24 C0 0.931 1_556 S
H25 C2 0.930 . S
H26 C4 0.929 . S
H27 C5 0.931 . S
H28 C7 0.930 . S
H29 C11 0.931 . S
H30 C9 0.931 . S
H31 C13 0.931 . S
H32 C14 0.929 . S
H33 C15 0.930 . S
H34 C18 0.930 . S
H35 C19 0.931 . S
H36 C23 0.928 . S
H37 C22 0.929 . S
H38 C20 0.932 . S
C39 C40 1.386 . S
C39 C41 1.397 . S
C39 H63 0.931 1_554 S
C40 C39 1.386 . S
C40 C44 1.397 . S
C41 C39 1.397 . S
C41 C42 1.384 . S
C41 H64 0.930 . S
C42 C41 1.384 . S
C42 C43 1.377 . S
C42 C45 1.481 . S
C43 C42 1.377 . S
C43 C44 1.389 . S
C43 H65 0.929 . S
C44 C40 1.397 . S
C44 C43 1.389 . S
C44 H66 0.931 . S
C45 C42 1.481 . S
C45 C46 1.387 . S
C45 C50 1.390 . S
C46 C45 1.387 . S
C46 C47 1.401 . S
C46 H67 0.930 . S
C47 C46 1.401 . S
C47 C48 1.376 . S
C47 C56 1.511 . S
C48 C47 1.376 . S
C48 C49 1.392 . S
C48 H69 0.931 . S
C49 C48 1.392 . S
C49 C50 1.361 . S
C49 C51 1.500 . S
C50 C45 1.390 . S
C50 C49 1.361 . S
C50 H68 0.931 . S
C51 C49 1.500 . S
C51 C52 1.371 . S
C51 C53 1.365 . S
C52 C51 1.371 . S
C52 C62 1.386 . S
C52 H70 0.931 . S
C53 C51 1.365 . S
C53 C54 1.409 . S
C53 H71 0.929 . S
C54 C53 1.409 . S
C54 C55 1.380 . S
C54 H72 0.930 . S
C55 C54 1.380 . S
C55 C62 1.357 . S
C56 C47 1.511 . S
C56 C57 1.341 . S
C56 C58 1.371 . S
C57 C56 1.341 . S
C57 C61 1.394 . S
C57 H73 0.930 . S
C58 C56 1.371 . S
C58 C59 1.392 . S
C58 H74 0.931 . S
C59 C58 1.392 . S
C59 C60 1.331 . S
C59 H77 0.932 . S
C60 C59 1.331 . S
C60 C61 1.336 . S
C61 C57 1.394 . S
C61 C60 1.336 . S
C61 H76 0.929 . S
C62 C52 1.386 . S
C62 C55 1.357 . S
C62 H75 0.928 . S
H63 C39 0.931 1_556 S
H64 C41 0.930 . S
H65 C43 0.929 . S
H66 C44 0.931 . S
H67 C46 0.930 . S
H68 C50 0.931 . S
H69 C48 0.931 . S
H70 C52 0.931 . S
H71 C53 0.929 . S
H72 C54 0.930 . S
H73 C57 0.930 . S
H74 C58 0.931 . S
H75 C62 0.928 . S
H76 C61 0.929 . S
H77 C59 0.932 . S
C78 C79 1.386 . S
C78 C80 1.397 . S
C78 H102 0.931 1_554 S
C79 C78 1.386 . S
C79 C83 1.397 . S
C80 C78 1.397 . S
C80 C81 1.384 . S
C80 H103 0.930 . S
C81 C80 1.384 . S
C81 C82 1.377 . S
C81 C84 1.481 . S
C82 C81 1.377 . S
C82 C83 1.389 . S
C82 H104 0.929 . S
C83 C79 1.397 . S
C83 C82 1.389 . S
C83 H105 0.931 . S
C84 C81 1.481 . S
C84 C85 1.387 . S
C84 C89 1.390 . S
C85 C84 1.387 . S
C85 C86 1.401 . S
C85 H106 0.930 . S
C86 C85 1.401 . S
C86 C87 1.376 . S
C86 C95 1.511 . S
C87 C86 1.376 . S
C87 C88 1.392 . S
C87 H108 0.931 . S
C88 C87 1.392 . S
C88 C89 1.361 . S
C88 C90 1.500 . S
C89 C84 1.390 . S
C89 C88 1.361 . S
C89 H107 0.931 . S
C90 C88 1.500 . S
C90 C91 1.371 . S
C90 C92 1.365 . S
C91 C90 1.371 . S
C91 C101 1.386 . S
C91 H109 0.931 . S
C92 C90 1.365 . S
C92 C93 1.409 . S
C92 H110 0.929 . S
C93 C92 1.409 . S
C93 C94 1.380 . S
C93 H111 0.930 . S
C94 C93 1.380 . S
C94 C101 1.357 . S
C95 C86 1.511 . S
C95 C96 1.341 . S
C95 C97 1.371 . S
C96 C95 1.341 . S
C96 C100 1.394 . S
C96 H112 0.930 . S
C97 C95 1.371 . S
C97 C98 1.392 . S
C97 H113 0.931 . S
C98 C97 1.392 . S
C98 C99 1.331 . S
C98 H116 0.932 . S
C99 C98 1.331 . S
C99 C100 1.336 . S
C100 C96 1.394 . S
C100 C99 1.336 . S
C100 H115 0.929 . S
C101 C91 1.386 . S
C101 C94 1.357 . S
C101 H114 0.928 . S
H102 C78 0.931 1_556 S
H103 C80 0.930 . S
H104 C82 0.929 . S
H105 C83 0.931 . S
H106 C85 0.930 . S
H107 C89 0.931 . S
H108 C87 0.931 . S
H109 C91 0.931 . S
H110 C92 0.929 . S
H111 C93 0.930 . S
H112 C96 0.930 . S
H113 C97 0.931 . S
H114 C101 0.928 . S
H115 C100 0.929 . S
H116 C98 0.932 . S
C117 C118 1.386 . S
C117 C119 1.397 . S
C117 H141 0.931 . S
C118 C117 1.386 . S
C118 C122 1.397 . S
C119 C117 1.397 . S
C119 C120 1.384 . S
C119 H142 0.930 . S
C120 C119 1.384 . S
C120 C121 1.377 . S
C120 C123 1.481 . S
C121 C120 1.377 . S
C121 C122 1.389 . S
C121 H143 0.929 . S
C122 C118 1.397 . S
C122 C121 1.389 . S
C122 H144 0.931 . S
C123 C120 1.481 . S
C123 C124 1.387 . S
C123 C128 1.390 . S
C124 C123 1.387 . S
C124 C125 1.401 . S
C124 H145 0.930 . S
C125 C124 1.401 . S
C125 C126 1.376 . S
C125 C134 1.511 . S
C126 C125 1.376 . S
C126 C127 1.392 . S
C126 H147 0.931 . S
C127 C126 1.392 . S
C127 C128 1.361 . S
C127 C129 1.500 . S
C128 C123 1.390 . S
C128 C127 1.361 . S
C128 H146 0.931 . S
C129 C127 1.500 . S
C129 C130 1.371 . S
C129 C131 1.365 . S
C130 C129 1.371 . S
C130 C140 1.386 . S
C130 H148 0.931 . S
C131 C129 1.365 . S
C131 C132 1.409 . S
C131 H149 0.929 . S
C132 C131 1.409 . S
C132 C133 1.380 . S
C132 H150 0.930 . S
C133 C132 1.380 . S
C133 C140 1.357 . S
C134 C125 1.511 . S
C134 C135 1.341 . S
C134 C136 1.371 . S
C135 C134 1.341 . S
C135 C139 1.394 . S
C135 H151 0.930 . S
C136 C134 1.371 . S
C136 C137 1.392 . S
C136 H152 0.931 . S
C137 C136 1.392 . S
C137 C138 1.331 . S
C137 H155 0.932 . S
C138 C137 1.331 . S
C138 C139 1.336 . S
C139 C135 1.394 . S
C139 C138 1.336 . S
C139 H154 0.929 . S
C140 C130 1.386 . S
C140 C133 1.357 . S
C140 H153 0.928 1_554 S
H141 C117 0.931 . S
H142 C119 0.930 . S
H143 C121 0.929 . S
H144 C122 0.931 . S
H145 C124 0.930 . S
H146 C128 0.931 . S
H147 C126 0.931 . S
H148 C130 0.931 . S
H149 C131 0.929 . S
H150 C132 0.930 . S
H151 C135 0.930 . S
H152 C136 0.931 . S
H153 C140 0.928 1_556 S
H154 C139 0.929 . S
H155 C137 0.932 . S
C156 C157 1.386 . S
C156 C158 1.397 . S
C156 H180 0.931 . S
C157 C156 1.386 . S
C157 C161 1.397 . S
C158 C156 1.397 . S
C158 C159 1.384 . S
C158 H181 0.930 . S
C159 C158 1.384 . S
C159 C160 1.377 . S
C159 C162 1.481 . S
C160 C159 1.377 . S
C160 C161 1.389 . S
C160 H182 0.929 . S
C161 C157 1.397 . S
C161 C160 1.389 . S
C161 H183 0.931 . S
C162 C159 1.481 . S
C162 C163 1.387 . S
C162 C167 1.390 . S
C163 C162 1.387 . S
C163 C164 1.401 . S
C163 H184 0.930 . S
C164 C163 1.401 . S
C164 C165 1.376 1_554 S
C164 C173 1.511 . S
C165 C164 1.376 1_556 S
C165 C166 1.392 . S
C165 H186 0.931 . S
C166 C165 1.392 . S
C166 C167 1.361 1_556 S
C166 C168 1.500 . S
C167 C162 1.390 . S
C167 C166 1.361 1_554 S
C167 H185 0.931 1_554 S
C168 C166 1.500 . S
C168 C169 1.371 . S
C168 C170 1.365 . S
C169 C168 1.371 . S
C169 C179 1.386 . S
C169 H187 0.931 . S
C170 C168 1.365 . S
C170 C171 1.409 . S
C170 H188 0.929 . S
C171 C170 1.409 . S
C171 C172 1.380 . S
C171 H189 0.930 . S
C172 C171 1.380 . S
C172 C179 1.357 . S
C173 C164 1.511 . S
C173 C174 1.341 . S
C173 C175 1.371 . S
C174 C173 1.341 . S
C174 C178 1.394 . S
C174 H190 0.930 . S
C175 C173 1.371 . S
C175 C176 1.392 . S
C175 H191 0.931 1_554 S
C176 C175 1.392 . S
C176 C177 1.331 . S
C176 H194 0.932 1_554 S
C177 C176 1.331 . S
C177 C178 1.336 . S
C178 C174 1.394 . S
C178 C177 1.336 . S
C178 H193 0.929 . S
C179 C169 1.386 . S
C179 C172 1.357 . S
C179 H192 0.928 . S
H180 C156 0.931 . S
H181 C158 0.930 . S
H182 C160 0.929 . S
H183 C161 0.931 . S
H184 C163 0.930 . S
H185 C167 0.931 1_556 S
H186 C165 0.931 . S
H187 C169 0.931 . S
H188 C170 0.929 . S
H189 C171 0.930 . S
H190 C174 0.930 . S
H191 C175 0.931 1_556 S
H192 C179 0.928 . S
H193 C178 0.929 . S
H194 C176 0.932 1_556 S
C195 C196 1.386 . S
C195 C197 1.397 . S
C195 H219 0.931 . S
C196 C195 1.386 . S
C196 C200 1.397 . S
C197 C195 1.397 . S
C197 C198 1.384 . S
C197 H220 0.930 . S
C198 C197 1.384 . S
C198 C199 1.377 . S
C198 C201 1.481 . S
C199 C198 1.377 . S
C199 C200 1.389 . S
C199 H221 0.929 . S
C200 C196 1.397 . S
C200 C199 1.389 . S
C200 H222 0.931 . S
C201 C198 1.481 . S
C201 C202 1.387 . S
C201 C206 1.390 . S
C202 C201 1.387 . S
C202 C203 1.401 . S
C202 H223 0.930 . S
C203 C202 1.401 . S
C203 C204 1.376 1_554 S
C203 C212 1.511 . S
C204 C203 1.376 1_556 S
C204 C205 1.392 . S
C204 H225 0.931 . S
C205 C204 1.392 . S
C205 C206 1.361 1_556 S
C205 C207 1.500 . S
C206 C201 1.390 . S
C206 C205 1.361 1_554 S
C206 H224 0.931 1_554 S
C207 C205 1.500 . S
C207 C208 1.371 . S
C207 C209 1.365 . S
C208 C207 1.371 . S
C208 C218 1.386 . S
C208 H226 0.931 . S
C209 C207 1.365 . S
C209 C210 1.409 . S
C209 H227 0.929 . S
C210 C209 1.409 . S
C210 C211 1.380 . S
C210 H228 0.930 . S
C211 C210 1.380 . S
C211 C218 1.357 . S
C212 C203 1.511 . S
C212 C213 1.341 . S
C212 C214 1.371 . S
C213 C212 1.341 . S
C213 C217 1.394 . S
C213 H229 0.930 . S
C214 C212 1.371 . S
C214 C215 1.392 . S
C214 H230 0.931 1_554 S
C215 C214 1.392 . S
C215 C216 1.331 . S
C215 H233 0.932 1_554 S
C216 C215 1.331 . S
C216 C217 1.336 . S
C217 C213 1.394 . S
C217 C216 1.336 . S
C217 H232 0.929 . S
C218 C208 1.386 . S
C218 C211 1.357 . S
C218 H231 0.928 . S
H219 C195 0.931 . S
H220 C197 0.930 . S
H221 C199 0.929 . S
H222 C200 0.931 . S
H223 C202 0.930 . S
H224 C206 0.931 1_556 S
H225 C204 0.931 . S
H226 C208 0.931 . S
H227 C209 0.929 . S
H228 C210 0.930 . S
H229 C213 0.930 . S
H230 C214 0.931 1_556 S
H231 C218 0.928 . S
H232 C217 0.929 . S
H233 C215 0.932 1_556 S
C234 C235 1.386 . S
C234 C236 1.397 . S
C234 H258 0.931 . S
C235 C234 1.386 . S
C235 C239 1.397 . S
C236 C234 1.397 . S
C236 C237 1.384 . S
C236 H259 0.930 . S
C237 C236 1.384 . S
C237 C238 1.377 . S
C237 C240 1.481 . S
C238 C237 1.377 . S
C238 C239 1.389 . S
C238 H260 0.929 . S
C239 C235 1.397 . S
C239 C238 1.389 . S
C239 H261 0.931 . S
C240 C237 1.481 . S
C240 C241 1.387 . S
C240 C245 1.390 . S
C241 C240 1.387 . S
C241 C242 1.401 . S
C241 H262 0.930 . S
C242 C241 1.401 . S
C242 C243 1.376 1_554 S
C242 C251 1.511 . S
C243 C242 1.376 1_556 S
C243 C244 1.392 . S
C243 H264 0.931 . S
C244 C243 1.392 . S
C244 C245 1.361 1_556 S
C244 C246 1.500 . S
C245 C240 1.390 . S
C245 C244 1.361 1_554 S
C245 H263 0.931 1_554 S
C246 C244 1.500 . S
C246 C247 1.371 . S
C246 C248 1.365 . S
C247 C246 1.371 . S
C247 C257 1.386 . S
C247 H265 0.931 . S
C248 C246 1.365 . S
C248 C249 1.409 . S
C248 H266 0.929 . S
C249 C248 1.409 . S
C249 C250 1.380 . S
C249 H267 0.930 . S
C250 C249 1.380 . S
C250 C257 1.357 . S
C251 C242 1.511 . S
C251 C252 1.341 . S
C251 C253 1.371 . S
C252 C251 1.341 . S
C252 C256 1.394 . S
C252 H268 0.930 . S
C253 C251 1.371 . S
C253 C254 1.392 . S
C253 H269 0.931 1_554 S
C254 C253 1.392 . S
C254 C255 1.331 . S
C254 H272 0.932 1_554 S
C255 C254 1.331 . S
C255 C256 1.336 . S
C256 C252 1.394 . S
C256 C255 1.336 . S
C256 H271 0.929 . S
C257 C247 1.386 . S
C257 C250 1.357 . S
C257 H270 0.928 . S
H258 C234 0.931 . S
H259 C236 0.930 . S
H260 C238 0.929 . S
H261 C239 0.931 . S
H262 C241 0.930 . S
H263 C245 0.931 1_556 S
H264 C243 0.931 . S
H265 C247 0.931 . S
H266 C248 0.929 . S
H267 C249 0.930 . S
H268 C252 0.930 . S
H269 C253 0.931 1_556 S
H270 C257 0.928 . S
H271 C256 0.929 . S
H272 C254 0.932 1_556 S
C273 C274 1.386 . S
C273 C275 1.397 . S
C273 H297 0.931 . S
C274 C273 1.386 . S
C274 C278 1.397 . S
C275 C273 1.397 . S
C275 C276 1.384 . S
C275 H298 0.930 . S
C276 C275 1.384 . S
C276 C277 1.377 . S
C276 C279 1.481 . S
C277 C276 1.377 . S
C277 C278 1.389 . S
C277 H299 0.929 . S
C278 C274 1.397 . S
C278 C277 1.389 . S
C278 H300 0.931 . S
C279 C276 1.481 . S
C279 C280 1.387 . S
C279 C284 1.390 1_556 S
C280 C279 1.387 . S
C280 C281 1.401 1_556 S
C280 H301 0.930 . S
C281 C280 1.401 1_554 S
C281 C282 1.376 . S
C281 C290 1.511 . S
C282 C281 1.376 . S
C282 C283 1.392 . S
C282 H303 0.931 . S
C283 C282 1.392 . S
C283 C284 1.361 . S
C283 C285 1.500 . S
C284 C279 1.390 1_554 S
C284 C283 1.361 . S
C284 H302 0.931 1_554 S
C285 C283 1.500 . S
C285 C286 1.371 . S
C285 C287 1.365 . S
C286 C285 1.371 . S
C286 C296 1.386 . S
C286 H304 0.931 . S
C287 C285 1.365 . S
C287 C288 1.409 . S
C287 H305 0.929 . S
C288 C287 1.409 . S
C288 C289 1.380 . S
C288 H306 0.930 . S
C289 C288 1.380 . S
C289 C296 1.357 . S
C290 C281 1.511 . S
C290 C291 1.341 . S
C290 C292 1.371 . S
C291 C290 1.341 . S
C291 C295 1.394 . S
C291 H307 0.930 1_554 S
C292 C290 1.371 . S
C292 C293 1.392 . S
C292 H308 0.931 . S
C293 C292 1.392 . S
C293 C294 1.331 . S
C293 H311 0.932 . S
C294 C293 1.331 . S
C294 C295 1.336 . S
C295 C291 1.394 . S
C295 C294 1.336 . S
C295 H310 0.929 1_554 S
C296 C286 1.386 . S
C296 C289 1.357 . S
C296 H309 0.928 . S
H297 C273 0.931 . S
H298 C275 0.930 . S
H299 C277 0.929 . S
H300 C278 0.931 . S
H301 C280 0.930 . S
H302 C284 0.931 1_556 S
H303 C282 0.931 . S
H304 C286 0.931 . S
H305 C287 0.929 . S
H306 C288 0.930 . S
H307 C291 0.930 1_556 S
H308 C292 0.931 . S
H309 C296 0.928 . S
H310 C295 0.929 1_556 S
H311 C293 0.932 . S
Eu312 N343 2.657 1_565 S
Eu312 N350 2.609 . S
Eu312 O356 2.558 . S
Eu312 O357 2.612 1_455 S
Eu312 O359 2.339 1_455 S
Eu312 O360 2.563 . S
Eu312 O361 2.419 . S
Eu312 O363 2.380 1_565 S
Eu312 O364 2.432 . S
Eu312 C376 2.848 . S
C313 C316 1.429 1_545 S
C313 C317 1.411 . S
C313 N320 1.377 . S
C314 C316 1.420 . S
C314 C318 1.423 . S
C314 C326 1.392 . S
C315 C317 1.421 1_565 S
C315 C318 1.351 . S
C315 H338 0.931 . S
C316 C313 1.429 1_565 S
C316 C314 1.420 . S
C316 N324 1.362 . S
C317 C313 1.411 . S
C317 C315 1.421 1_545 S
C317 C322 1.394 . S
C318 C314 1.423 . S
C318 C315 1.351 . S
C318 H330 0.930 . S
C319 C321 1.400 . S
C319 C322 1.386 . S
C319 H331 0.930 . S
N320 C313 1.377 . S
N320 C321 1.321 . S
N320 Eu323 2.609 . S
C321 C319 1.400 . S
C321 N320 1.321 . S
C321 H328 0.930 . S
C322 C317 1.394 . S
C322 C319 1.386 . S
C322 H341 0.930 . S
Eu323 N320 2.609 . S
Eu323 N324 2.657 1_545 S
Eu323 O357 2.380 1_545 S
Eu323 O358 2.432 . S
Eu323 O362 2.558 . S
Eu323 O363 2.612 1_655 S
Eu323 O365 2.339 1_655 S
Eu323 O366 2.563 1_655 S
Eu323 O367 2.419 . S
Eu323 C387 2.848 . S
N324 C316 1.362 . S
N324 Eu323 2.657 1_565 S
N324 C325 1.336 1_655 S
C325 N324 1.336 1_455 S
C325 C327 1.414 1_455 S
C325 H332 0.927 . S
C326 C314 1.392 . S
C326 C327 1.367 . S
C326 H334 0.930 . S
C327 C325 1.414 1_655 S
C327 C326 1.367 . S
C327 H329 0.930 1_655 S
H328 C321 0.930 . S
H329 C327 0.930 1_455 S
H330 C318 0.930 . S
H331 C319 0.930 . S
H332 C325 0.927 . S
H333 C347 0.930 1_655 S
H334 C326 0.930 . S
H335 C353 0.930 . S
H336 C344 0.929 1_655 S
H337 C351 0.930 . S
H338 C315 0.931 . S
H339 C345 0.930 . S
H340 C378 0.930 . S
H341 C322 0.930 . S
H342 C377 0.931 . S
N343 Eu312 2.657 1_545 S
N343 C344 1.334 . S
N343 C348 1.362 . S
C344 H336 0.929 1_455 S
C344 N343 1.334 . S
C344 C347 1.413 . S
C345 H339 0.930 . S
C345 C346 1.392 . S
C345 C347 1.367 . S
C346 C345 1.392 . S
C346 C348 1.420 . S
C346 C378 1.423 . S
C347 H333 0.930 1_455 S
C347 C344 1.413 . S
C347 C345 1.367 . S
C348 N343 1.362 . S
C348 C346 1.420 . S
C348 C352 1.429 . S
H349 C354 0.932 . S
N350 Eu312 2.609 . S
N350 C352 1.377 1_565 S
N350 C353 1.321 . S
C351 H337 0.930 . S
C351 C353 1.400 . S
C351 C354 1.370 1_565 S
C352 C348 1.429 . S
C352 N350 1.377 1_545 S
C352 C355 1.411 . S
C353 H335 0.930 . S
C353 N350 1.321 . S
C353 C351 1.400 . S
C354 H349 0.932 . S
C354 C351 1.370 1_545 S
C354 C355 1.409 . S
C355 C352 1.411 . S
C355 C354 1.409 . S
C355 C377 1.420 . S
O356 Eu312 2.558 . S
O356 C376 1.257 . S
O357 Eu312 2.612 1_655 S
O357 Eu323 2.380 1_565 S
O357 C368 1.276 . S
O358 Eu323 2.432 . S
O358 C375 1.264 . S
O359 Eu312 2.339 1_655 S
O359 C375 1.254 1_565 S
O360 Eu312 2.563 . S
O360 C368 1.235 1_455 S
O361 Eu312 2.419 . S
O361 C376 1.249 . S
O362 Eu323 2.558 . S
O362 C387 1.257 . S
O363 Eu312 2.380 1_545 S
O363 Eu323 2.612 1_455 S
O363 C379 1.276 . S
O364 Eu312 2.432 . S
O364 C386 1.264 1_565 S
O365 Eu323 2.339 1_455 S
O365 C386 1.254 . S
O366 Eu323 2.563 1_455 S
O366 C379 1.235 . S
O367 Eu323 2.419 . S
O367 C387 1.249 . S
C368 O357 1.276 . S
C368 O360 1.235 1_655 S
C369 C371 1.393 . S
C369 C373 1.395 . S
C369 C376 1.492 . S
C370 C371 1.392 . S
C370 C372 1.386 . S
C371 C369 1.393 . S
C371 C370 1.392 . S
C371 H388 0.930 . S
C372 C370 1.386 . S
C372 C374 1.395 . S
C372 H389 0.930 . S
C373 C369 1.395 . S
C373 C374 1.379 . S
C373 H390 0.930 . S
C374 C372 1.395 . S
C374 C373 1.379 . S
C374 H391 0.930 . S
C375 O358 1.264 . S
C375 O359 1.254 1_545 S
C376 Eu312 2.848 . S
C376 O356 1.257 . S
C376 O361 1.249 . S
C376 C369 1.492 . S
C377 H342 0.931 . S
C377 C355 1.420 . S
C377 C378 1.351 . S
C378 H340 0.930 . S
C378 C346 1.423 . S
C378 C377 1.351 . S
C379 O363 1.276 . S
C379 O366 1.235 . S
C380 C381 1.393 . S
C380 C384 1.395 . S
C380 C387 1.492 . S
C381 C380 1.393 . S
C381 C382 1.392 . S
C381 H392 0.930 1_655 S
C382 C381 1.392 . S
C382 C383 1.386 . S
C383 C382 1.386 . S
C383 C385 1.395 . S
C383 H393 0.930 . S
C384 C380 1.395 . S
C384 C385 1.379 . S
C384 H394 0.930 . S
C385 C383 1.395 . S
C385 C384 1.379 . S
C385 H395 0.930 . S
C386 O364 1.264 1_545 S
C386 O365 1.254 . S
C387 Eu323 2.848 . S
C387 O362 1.257 . S
C387 O367 1.249 . S
C387 C380 1.492 . S
H388 C371 0.930 . S
H389 C372 0.930 . S
H390 C373 0.930 . S
H391 C374 0.930 . S
H392 C381 0.930 1_455 S
H393 C383 0.930 . S
H394 C384 0.930 . S
H395 C385 0.930 . S
Eu396 N427 2.657 . S
Eu396 N434 2.609 . S
Eu396 O440 2.558 . S
Eu396 O441 2.612 1_545 S
Eu396 O443 2.339 1_545 S
Eu396 O444 2.563 . S
Eu396 O445 2.419 . S
Eu396 O447 2.380 . S
Eu396 O448 2.432 . S
Eu396 C460 2.848 . S
C397 C400 1.429 . S
C397 C401 1.411 . S
C397 N404 1.377 . S
C398 C400 1.420 . S
C398 C402 1.423 . S
C398 C410 1.392 . S
C399 C401 1.420 . S
C399 C402 1.351 . S
C399 H422 0.931 . S
C400 C397 1.429 . S
C400 C398 1.420 . S
C400 N408 1.362 . S
C401 C397 1.411 . S
C401 C399 1.420 . S
C401 C406 1.395 . S
C402 C398 1.423 . S
C402 C399 1.351 . S
C402 H414 0.930 . S
C403 C405 1.400 . S
C403 C406 1.386 . S
C403 H415 0.930 . S
N404 C397 1.377 . S
N404 C405 1.321 . S
N404 Eu407 2.609 . S
C405 C403 1.400 . S
C405 N404 1.321 . S
C405 H412 0.930 . S
C406 C401 1.395 . S
C406 C403 1.386 . S
C406 H425 0.930 . S
Eu407 N404 2.609 . S
Eu407 N408 2.657 . S
Eu407 O441 2.380 . S
Eu407 O442 2.432 . S
Eu407 O446 2.558 . S
Eu407 O447 2.612 1_565 S
Eu407 O449 2.339 1_565 S
Eu407 O450 2.563 1_565 S
Eu407 O451 2.419 . S
Eu407 C471 2.848 . S
N408 C400 1.362 . S
N408 Eu407 2.657 . S
N408 C409 1.334 1_565 S
C409 N408 1.334 1_545 S
C409 C411 1.413 . S
C409 H416 0.929 . S
C410 C398 1.392 . S
C410 C411 1.367 1_565 S
C410 H418 0.930 . S
C411 C409 1.413 . S
C411 C410 1.367 1_545 S
C411 H413 0.930 . S
H412 C405 0.930 . S
H413 C411 0.930 . S
H414 C402 0.930 . S
H415 C403 0.930 . S
H416 C409 0.929 . S
H417 C431 0.930 1_565 S
H418 C410 0.930 . S
H419 C437 0.930 . S
H420 C428 0.929 1_565 S
H421 C435 0.930 . S
H422 C399 0.931 . S
H423 C429 0.930 . S
H424 C462 0.930 . S
H425 C406 0.930 . S
H426 C461 0.931 . S
N427 Eu396 2.657 . S
N427 C428 1.334 . S
N427 C432 1.362 . S
C428 H420 0.929 1_545 S
C428 N427 1.334 . S
C428 C431 1.413 . S
C429 H423 0.930 . S
C429 C430 1.392 . S
C429 C431 1.367 . S
C430 C429 1.392 . S
C430 C432 1.420 . S
C430 C462 1.423 . S
C431 H417 0.930 1_545 S
C431 C428 1.413 . S
C431 C429 1.367 . S
C432 N427 1.362 . S
C432 C430 1.420 . S
C432 C436 1.429 . S
H433 C438 0.930 . S
N434 Eu396 2.609 . S
N434 C436 1.377 . S
N434 C437 1.321 . S
C435 H421 0.930 . S
C435 C437 1.400 . S
C435 C438 1.386 . S
C436 C432 1.429 . S
C436 N434 1.377 . S
C436 C439 1.411 . S
C437 H419 0.930 . S
C437 N434 1.321 . S
C437 C435 1.400 . S
C438 H433 0.930 . S
C438 C435 1.386 . S
C438 C439 1.395 . S
C439 C436 1.411 . S
C439 C438 1.395 . S
C439 C461 1.420 . S
O440 Eu396 2.558 . S
O440 C460 1.257 . S
O441 Eu396 2.612 1_565 S
O441 Eu407 2.380 . S
O441 C452 1.276 . S
O442 Eu407 2.432 . S
O442 C459 1.264 . S
O443 Eu396 2.339 1_565 S
O443 C459 1.254 . S
O444 Eu396 2.563 . S
O444 C452 1.235 1_545 S
O445 Eu396 2.419 . S
O445 C460 1.249 . S
O446 Eu407 2.558 . S
O446 C471 1.257 . S
O447 Eu396 2.380 . S
O447 Eu407 2.612 1_545 S
O447 C463 1.276 . S
O448 Eu396 2.432 . S
O448 C470 1.264 . S
O449 Eu407 2.339 1_545 S
O449 C470 1.254 . S
O450 Eu407 2.563 1_545 S
O450 C463 1.235 . S
O451 Eu407 2.419 . S
O451 C471 1.249 . S
C452 O441 1.276 . S
C452 O444 1.235 1_565 S
C453 C455 1.393 . S
C453 C457 1.395 . S
C453 C460 1.492 . S
C454 C455 1.392 . S
C454 C456 1.386 . S
C455 C453 1.393 . S
C455 C454 1.392 . S
C455 H472 0.930 . S
C456 C454 1.386 . S
C456 C458 1.395 . S
C456 H473 0.930 . S
C457 C453 1.395 . S
C457 C458 1.379 . S
C457 H474 0.930 . S
C458 C456 1.395 . S
C458 C457 1.379 . S
C458 H475 0.930 . S
C459 O442 1.264 . S
C459 O443 1.254 . S
C460 Eu396 2.848 . S
C460 O440 1.257 . S
C460 O445 1.249 . S
C460 C453 1.492 . S
C461 H426 0.931 . S
C461 C439 1.420 . S
C461 C462 1.351 . S
C462 H424 0.930 . S
C462 C430 1.423 . S
C462 C461 1.351 . S
C463 O447 1.276 . S
C463 O450 1.235 . S
C464 C465 1.393 . S
C464 C468 1.395 . S
C464 C471 1.492 . S
C465 C464 1.393 . S
C465 C466 1.392 . S
C465 H476 0.930 1_565 S
C466 C465 1.392 . S
C466 C467 1.386 . S
C467 C466 1.386 . S
C467 C469 1.395 . S
C467 H477 0.930 . S
C468 C464 1.395 . S
C468 C469 1.379 . S
C468 H478 0.930 . S
C469 C467 1.395 . S
C469 C468 1.379 . S
C469 H479 0.930 . S
C470 O448 1.264 . S
C470 O449 1.254 . S
C471 Eu407 2.848 . S
C471 O446 1.257 . S
C471 O451 1.249 . S
C471 C464 1.492 . S
H472 C455 0.930 . S
H473 C456 0.930 . S
H474 C457 0.930 . S
H475 C458 0.930 . S
H476 C465 0.930 1_545 S
H477 C467 0.930 . S
H478 C468 0.930 . S
H479 C469 0.930 . S
Eu480 N511 2.657 . S
Eu480 N518 2.609 . S
Eu480 O524 2.558 . S
Eu480 O525 2.612 . S
Eu480 O527 2.339 . S
Eu480 O528 2.563 . S
Eu480 O529 2.419 . S
Eu480 O531 2.380 . S
Eu480 O532 2.432 . S
Eu480 C544 2.848 . S
C481 C484 1.429 . S
C481 C485 1.411 . S
C481 N488 1.377 . S
C482 C484 1.420 . S
C482 C486 1.423 . S
C482 C494 1.392 . S
C483 C485 1.420 . S
C483 C486 1.351 . S
C483 H506 0.931 . S
C484 C481 1.429 . S
C484 C482 1.420 . S
C484 N492 1.362 . S
C485 C481 1.411 . S
C485 C483 1.420 . S
C485 C490 1.395 . S
C486 C482 1.423 . S
C486 C483 1.351 . S
C486 H498 0.930 . S
C487 C489 1.400 . S
C487 C490 1.386 . S
C487 H499 0.930 . S
N488 C481 1.377 . S
N488 C489 1.321 . S
N488 Eu491 2.609 . S
C489 C487 1.400 . S
C489 N488 1.321 . S
C489 H496 0.930 . S
C490 C485 1.395 . S
C490 C487 1.386 . S
C490 H509 0.930 . S
Eu491 N488 2.609 . S
Eu491 N492 2.657 . S
Eu491 O525 2.380 . S
Eu491 O526 2.432 . S
Eu491 O530 2.558 . S
Eu491 O531 2.612 . S
Eu491 O533 2.339 . S
Eu491 O534 2.563 . S
Eu491 O535 2.419 . S
Eu491 C555 2.848 . S
N492 C484 1.362 . S
N492 Eu491 2.657 . S
N492 C493 1.334 . S
C493 N492 1.334 . S
C493 C495 1.413 . S
C493 H500 0.929 . S
C494 C482 1.392 . S
C494 C495 1.367 . S
C494 H502 0.930 . S
C495 C493 1.413 . S
C495 C494 1.367 . S
C495 H497 0.930 . S
H496 C489 0.930 . S
H497 C495 0.930 . S
H498 C486 0.930 . S
H499 C487 0.930 . S
H500 C493 0.929 . S
H501 C515 0.930 . S
H502 C494 0.930 . S
H503 C521 0.930 . S
H504 C512 0.929 . S
H505 C519 0.930 . S
H506 C483 0.931 . S
H507 C513 0.930 . S
H508 C546 0.930 . S
H509 C490 0.930 . S
H510 C545 0.931 . S
N511 Eu480 2.657 . S
N511 C512 1.334 . S
N511 C516 1.362 . S
C512 H504 0.929 . S
C512 N511 1.334 . S
C512 C515 1.413 . S
C513 H507 0.930 . S
C513 C514 1.392 . S
C513 C515 1.367 . S
C514 C513 1.392 . S
C514 C516 1.420 . S
C514 C546 1.423 . S
C515 H501 0.930 . S
C515 C512 1.413 . S
C515 C513 1.367 . S
C516 N511 1.362 . S
C516 C514 1.420 . S
C516 C520 1.429 . S
H517 C522 0.930 . S
N518 Eu480 2.609 . S
N518 C520 1.377 . S
N518 C521 1.321 . S
C519 H505 0.930 . S
C519 C521 1.400 . S
C519 C522 1.386 . S
C520 C516 1.429 . S
C520 N518 1.377 . S
C520 C523 1.411 . S
C521 H503 0.930 . S
C521 N518 1.321 . S
C521 C519 1.400 . S
C522 H517 0.930 . S
C522 C519 1.386 . S
C522 C523 1.395 . S
C523 C520 1.411 . S
C523 C522 1.395 . S
C523 C545 1.420 . S
O524 Eu480 2.558 . S
O524 C544 1.257 . S
O525 Eu480 2.612 . S
O525 Eu491 2.380 . S
O525 C536 1.276 . S
O526 Eu491 2.432 . S
O526 C543 1.264 . S
O527 Eu480 2.339 . S
O527 C543 1.254 . S
O528 Eu480 2.563 . S
O528 C536 1.235 . S
O529 Eu480 2.419 . S
O529 C544 1.249 . S
O530 Eu491 2.558 . S
O530 C555 1.257 . S
O531 Eu480 2.380 . S
O531 Eu491 2.612 . S
O531 C547 1.276 . S
O532 Eu480 2.432 . S
O532 C554 1.264 . S
O533 Eu491 2.339 . S
O533 C554 1.254 . S
O534 Eu491 2.563 . S
O534 C547 1.235 . S
O535 Eu491 2.419 . S
O535 C555 1.249 . S
C536 O525 1.276 . S
C536 O528 1.235 . S
C537 C539 1.393 . S
C537 C541 1.395 . S
C537 C544 1.492 . S
C538 C539 1.392 . S
C538 C540 1.386 . S
C539 C537 1.393 . S
C539 C538 1.392 . S
C539 H556 0.930 . S
C540 C538 1.386 . S
C540 C542 1.395 . S
C540 H557 0.930 . S
C541 C537 1.395 . S
C541 C542 1.379 . S
C541 H558 0.930 . S
C542 C540 1.395 . S
C542 C541 1.379 . S
C542 H559 0.930 . S
C543 O526 1.264 . S
C543 O527 1.254 . S
C544 Eu480 2.848 . S
C544 O524 1.257 . S
C544 O529 1.249 . S
C544 C537 1.492 . S
C545 H510 0.931 . S
C545 C523 1.420 . S
C545 C546 1.351 . S
C546 H508 0.930 . S
C546 C514 1.423 . S
C546 C545 1.351 . S
C547 O531 1.276 . S
C547 O534 1.235 . S
C548 C549 1.393 . S
C548 C552 1.395 . S
C548 C555 1.492 . S
C549 C548 1.393 . S
C549 C550 1.392 . S
C549 H560 0.930 . S
C550 C549 1.392 . S
C550 C551 1.386 . S
C551 C550 1.386 . S
C551 C553 1.395 . S
C551 H561 0.930 1_556 S
C552 C548 1.395 . S
C552 C553 1.379 . S
C552 H562 0.930 . S
C553 C551 1.395 . S
C553 C552 1.379 . S
C553 H563 0.930 1_556 S
C554 O532 1.264 . S
C554 O533 1.254 . S
C555 Eu491 2.848 . S
C555 O530 1.257 . S
C555 O535 1.249 . S
C555 C548 1.492 . S
H556 C539 0.930 . S
H557 C540 0.930 . S
H558 C541 0.930 . S
H559 C542 0.930 . S
H560 C549 0.930 . S
H561 C551 0.930 1_554 S
H562 C552 0.930 . S
H563 C553 0.930 1_554 S
Eu564 N595 2.657 . S
Eu564 N602 2.609 . S
Eu564 O608 2.558 . S
Eu564 O609 2.612 . S
Eu564 O611 2.339 . S
Eu564 O612 2.563 . S
Eu564 O613 2.419 . S
Eu564 O615 2.372 1_455 S
Eu564 O616 2.432 1_455 S
Eu564 C628 2.848 . S
C565 C568 1.429 . S
C565 C569 1.411 . S
C565 N572 1.377 . S
C566 C568 1.420 . S
C566 C570 1.423 . S
C566 C578 1.392 . S
C567 C569 1.420 . S
C567 C570 1.351 . S
C567 H590 0.931 . S
C568 C565 1.429 . S
C568 C566 1.420 . S
C568 N576 1.362 . S
C569 C565 1.411 . S
C569 C567 1.420 . S
C569 C574 1.395 . S
C570 C566 1.423 . S
C570 C567 1.351 . S
C570 H582 0.930 . S
C571 C573 1.400 . S
C571 C574 1.386 1_455 S
C571 H583 0.930 . S
N572 C565 1.377 . S
N572 C573 1.321 1_655 S
N572 Eu575 2.609 . S
C573 C571 1.400 . S
C573 N572 1.321 1_455 S
C573 H580 0.930 . S
C574 C569 1.395 . S
C574 C571 1.386 1_655 S
C574 H593 0.931 . S
Eu575 N572 2.609 . S
Eu575 N576 2.657 . S
Eu575 O609 2.380 1_655 S
Eu575 O610 2.432 1_655 S
Eu575 O614 2.558 . S
Eu575 O615 2.617 . S
Eu575 O617 2.339 . S
Eu575 O618 2.563 . S
Eu575 O619 2.419 . S
Eu575 C639 2.848 . S
N576 C568 1.362 . S
N576 Eu575 2.657 . S
N576 C577 1.334 . S
C577 N576 1.334 . S
C577 C579 1.413 . S
C577 H584 0.929 . S
C578 C566 1.392 . S
C578 C579 1.367 . S
C578 H586 0.930 . S
C579 C577 1.413 . S
C579 C578 1.367 . S
C579 H581 0.930 . S
H580 C573 0.930 . S
H581 C579 0.930 . S
H582 C570 0.930 . S
H583 C571 0.930 . S
H584 C577 0.929 . S
H585 C599 0.930 . S
H586 C578 0.930 . S
H587 C605 0.912 1_655 S
H588 C596 0.929 . S
H589 C603 0.930 . S
H590 C567 0.931 . S
H591 C597 0.930 . S
H592 C630 0.930 . S
H593 C574 0.931 . S
H594 C629 0.931 . S
N595 Eu564 2.657 . S
N595 C596 1.334 . S
N595 C600 1.362 . S
C596 H588 0.929 . S
C596 N595 1.334 . S
C596 C599 1.413 . S
C597 H591 0.930 . S
C597 C598 1.392 . S
C597 C599 1.367 . S
C598 C597 1.392 . S
C598 C600 1.420 . S
C598 C630 1.423 . S
C599 H585 0.930 . S
C599 C596 1.413 . S
C599 C597 1.367 . S
C600 N595 1.362 . S
C600 C598 1.420 . S
C600 C604 1.429 . S
H601 C606 0.930 . S
N602 Eu564 2.609 . S
N602 C604 1.377 . S
N602 C605 1.344 . S
C603 H589 0.930 . S
C603 C605 1.395 1_655 S
C603 C606 1.386 1_655 S
C604 C600 1.429 . S
C604 N602 1.377 . S
C604 C607 1.411 . S
C605 H587 0.912 1_455 S
C605 N602 1.344 . S
C605 C603 1.395 1_455 S
C606 H601 0.930 . S
C606 C603 1.386 1_455 S
C606 C607 1.395 . S
C607 C604 1.411 . S
C607 C606 1.395 . S
C607 C629 1.420 . S
O608 Eu564 2.558 . S
O608 C628 1.257 . S
O609 Eu564 2.612 . S
O609 Eu575 2.380 1_455 S
O609 C620 1.276 . S
O610 Eu575 2.432 1_455 S
O610 C627 1.264 . S
O611 Eu564 2.339 . S
O611 C627 1.254 . S
O612 Eu564 2.563 . S
O612 C620 1.235 . S
O613 Eu564 2.419 . S
O613 C628 1.249 . S
O614 Eu575 2.558 . S
O614 C639 1.257 . S
O615 Eu564 2.372 1_655 S
O615 Eu575 2.617 . S
O615 C631 1.282 . S
O616 Eu564 2.432 1_655 S
O616 C638 1.264 . S
O617 Eu575 2.339 . S
O617 C638 1.254 . S
O618 Eu575 2.563 . S
O618 C631 1.235 . S
O619 Eu575 2.419 . S
O619 C639 1.249 . S
C620 O609 1.276 . S
C620 O612 1.235 . S
C621 C623 1.393 . S
C621 C625 1.395 . S
C621 C628 1.492 . S
C622 C623 1.392 . S
C622 C624 1.386 . S
C623 C621 1.393 . S
C623 C622 1.392 . S
C623 H640 0.930 . S
C624 C622 1.386 . S
C624 C626 1.395 . S
C624 H641 0.930 . S
C625 C621 1.395 . S
C625 C626 1.379 . S
C625 H642 0.930 . S
C626 C624 1.395 . S
C626 C625 1.379 . S
C626 H643 0.930 . S
C627 O610 1.264 . S
C627 O611 1.254 . S
C628 Eu564 2.848 . S
C628 O608 1.257 . S
C628 O613 1.249 . S
C628 C621 1.492 . S
C629 H594 0.931 . S
C629 C607 1.420 . S
C629 C630 1.351 . S
C630 H592 0.930 . S
C630 C598 1.423 . S
C630 C629 1.351 . S
C631 O615 1.282 . S
C631 O618 1.235 . S
C632 C633 1.393 . S
C632 C636 1.395 . S
C632 C639 1.492 . S
C633 C632 1.393 . S
C633 C634 1.392 . S
C633 H644 0.930 . S
C634 C633 1.392 . S
C634 C635 1.386 . S
C635 C634 1.386 . S
C635 C637 1.395 . S
C635 H645 0.930 1_556 S
C636 C632 1.395 . S
C636 C637 1.379 . S
C636 H646 0.930 . S
C637 C635 1.395 . S
C637 C636 1.379 . S
C637 H647 0.930 1_556 S
C638 O616 1.264 . S
C638 O617 1.254 . S
C639 Eu575 2.848 . S
C639 O614 1.257 . S
C639 O619 1.249 . S
C639 C632 1.492 . S
H640 C623 0.930 . S
H641 C624 0.930 . S
H642 C625 0.930 . S
H643 C626 0.930 . S
H644 C633 0.930 . S
H645 C635 0.930 1_554 S
H646 C636 0.930 . S
H647 C637 0.930 1_554 S
H648 C654 0.930 . S
H649 C657 0.930 . S
H650 C658 0.930 . S
H651 C659 0.930 . S
H652 C662 0.930 . S
H653 C663 0.930 . S
C654 H648 0.930 . S
C654 C655 1.355 . S
C654 C656 1.415 . S
C655 C654 1.355 . S
C655 C657 1.419 . S
C656 C654 1.415 . S
C656 C661 1.425 . S
C656 C663 1.409 . S
C657 H649 0.930 . S
C657 C655 1.419 . S
C657 C658 1.362 . S
C658 H650 0.930 . S
C658 C657 1.362 . S
C658 C661 1.409 . S
C659 H651 0.930 . S
C659 C660 1.355 . S
C659 C661 1.415 . S
C660 C659 1.355 . S
C660 C662 1.419 . S
C661 C656 1.425 . S
C661 C658 1.409 . S
C661 C659 1.415 . S
C662 H652 0.930 . S
C662 C660 1.419 . S
C662 C663 1.362 . S
C663 H653 0.930 . S
C663 C656 1.409 . S
C663 C662 1.362 . S
H664 C670 0.930 . S
H665 C673 0.930 . S
H666 C674 0.930 . S
H667 C675 0.930 . S
H668 C678 0.930 . S
H669 C679 0.930 . S
C670 H664 0.930 . S
C670 C671 1.355 . S
C670 C672 1.415 . S
C671 C670 1.355 . S
C671 C673 1.419 . S
C672 C670 1.415 . S
C672 C677 1.425 . S
C672 C679 1.409 . S
C673 H665 0.930 . S
C673 C671 1.419 . S
C673 C674 1.362 . S
C674 H666 0.930 . S
C674 C673 1.362 . S
C674 C677 1.409 . S
C675 H667 0.930 . S
C675 C676 1.355 . S
C675 C677 1.415 . S
C676 C675 1.355 . S
C676 C678 1.419 . S
C677 C672 1.425 . S
C677 C674 1.409 . S
C677 C675 1.415 . S
C678 H668 0.930 . S
C678 C676 1.419 . S
C678 C679 1.362 . S
C679 H669 0.930 . S
C679 C672 1.409 . S
C679 C678 1.362 . S
H680 C686 0.930 . S
H681 C689 0.930 . S
H682 C690 0.930 . S
H683 C691 0.930 . S
H684 C694 0.930 . S
H685 C695 0.930 . S
C686 H680 0.930 . S
C686 C687 1.355 . S
C686 C688 1.415 . S
C687 C686 1.355 . S
C687 C689 1.419 . S
C688 C686 1.415 . S
C688 C693 1.425 . S
C688 C695 1.409 . S
C689 H681 0.930 . S
C689 C687 1.419 . S
C689 C690 1.362 . S
C690 H682 0.930 . S
C690 C689 1.362 . S
C690 C693 1.409 . S
C691 H683 0.930 . S
C691 C692 1.355 . S
C691 C693 1.415 . S
C692 C691 1.355 . S
C692 C694 1.419 . S
C693 C688 1.425 . S
C693 C690 1.409 . S
C693 C691 1.415 . S
C694 H684 0.930 . S
C694 C692 1.419 . S
C694 C695 1.362 . S
C695 H685 0.930 . S
C695 C688 1.409 . S
C695 C694 1.362 . S
H696 C702 0.930 . S
H697 C705 0.930 . S
H698 C706 0.930 1_655 S
H699 C707 0.933 . S
H700 C710 0.930 . S
H701 C711 0.930 . S
C702 H696 0.930 . S
C702 C703 1.355 . S
C702 C704 1.415 . S
C703 C702 1.355 . S
C703 C705 1.419 . S
C704 C702 1.415 . S
C704 C709 1.425 . S
C704 C711 1.409 . S
C705 H697 0.930 . S
C705 C703 1.419 . S
C705 C706 1.362 . S
C706 H698 0.930 1_455 S
C706 C705 1.362 . S
C706 C709 1.409 . S
C707 H699 0.933 . S
C707 C708 1.355 . S
C707 C709 1.415 . S
C708 C707 1.355 . S
C708 C710 1.419 . S
C709 C704 1.425 . S
C709 C706 1.409 . S
C709 C707 1.415 . S
C710 H700 0.930 . S
C710 C708 1.419 . S
C710 C711 1.362 . S
C711 H701 0.930 . S
C711 C704 1.409 . S
C711 C710 1.362 . S
H712 C718 0.930 . S
H713 C721 0.930 . S
H714 C722 0.930 . S
H715 C723 0.930 . S
H716 C726 0.930 . S
H717 C727 0.930 . S
C718 H712 0.930 . S
C718 C719 1.355 . S
C718 C720 1.415 1_554 S
C719 C718 1.355 . S
C719 C721 1.419 . S
C720 C718 1.415 1_556 S
C720 C725 1.425 . S
C720 C727 1.409 . S
C721 H713 0.930 . S
C721 C719 1.419 . S
C721 C722 1.362 . S
C722 H714 0.930 . S
C722 C721 1.362 . S
C722 C725 1.409 1_554 S
C723 H715 0.930 . S
C723 C724 1.355 . S
C723 C725 1.415 . S
C724 C723 1.355 . S
C724 C726 1.419 . S
C725 C720 1.425 . S
C725 C722 1.409 1_556 S
C725 C723 1.415 . S
C726 H716 0.930 . S
C726 C724 1.419 . S
C726 C727 1.362 . S
C727 H717 0.930 . S
C727 C720 1.409 . S
C727 C726 1.362 . S
H728 C734 0.930 . S
H729 C737 0.930 . S
H730 C738 0.930 . S
H731 C739 0.930 . S
H732 C742 0.930 . S
H733 C743 0.930 . S
C734 H728 0.930 . S
C734 C735 1.355 . S
C734 C736 1.415 1_554 S
C735 C734 1.355 . S
C735 C737 1.419 . S
C736 C734 1.415 1_556 S
C736 C741 1.425 . S
C736 C743 1.409 . S
C737 H729 0.930 . S
C737 C735 1.419 . S
C737 C738 1.362 1_554 S
C738 H730 0.930 . S
C738 C737 1.362 1_556 S
C738 C741 1.409 . S
C739 H731 0.930 . S
C739 C740 1.355 . S
C739 C741 1.415 . S
C740 C739 1.355 . S
C740 C742 1.419 . S
C741 C736 1.425 . S
C741 C738 1.409 . S
C741 C739 1.415 . S
C742 H732 0.930 . S
C742 C740 1.419 . S
C742 C743 1.362 . S
C743 H733 0.930 . S
C743 C736 1.409 . S
C743 C742 1.362 . S
H744 C750 0.930 . S
H745 C753 0.930 . S
H746 C754 0.930 . S
H747 C755 0.930 . S
H748 C758 0.930 . S
H749 C759 0.930 . S
C750 H744 0.930 . S
C750 C751 1.355 . S
C750 C752 1.415 1_554 S
C751 C750 1.355 . S
C751 C753 1.419 . S
C752 C750 1.415 1_556 S
C752 C757 1.425 . S
C752 C759 1.409 . S
C753 H745 0.930 . S
C753 C751 1.419 . S
C753 C754 1.362 1_554 S
C754 H746 0.930 . S
C754 C753 1.362 1_556 S
C754 C757 1.409 . S
C755 H747 0.930 . S
C755 C756 1.355 . S
C755 C757 1.415 . S
C756 C755 1.355 . S
C756 C758 1.419 . S
C757 C752 1.425 . S
C757 C754 1.409 . S
C757 C755 1.415 . S
C758 H748 0.930 . S
C758 C756 1.419 . S
C758 C759 1.362 . S
C759 H749 0.930 . S
C759 C752 1.409 . S
C759 C758 1.362 . S
H760 C766 0.930 . S
H761 C769 0.930 . S
H762 C770 0.930 . S
H763 C771 0.930 . S
H764 C774 0.930 1_455 S
H765 C775 0.930 . S
C766 H760 0.930 . S
C766 C767 1.355 . S
C766 C768 1.415 1_554 S
C767 C766 1.355 . S
C767 C769 1.419 . S
C768 C766 1.415 1_556 S
C768 C773 1.425 . S
C768 C775 1.409 . S
C769 H761 0.930 . S
C769 C767 1.419 . S
C769 C770 1.362 1_554 S
C770 H762 0.930 . S
C770 C769 1.362 1_556 S
C770 C773 1.409 . S
C771 H763 0.930 . S
C771 C772 1.355 . S
C771 C773 1.415 . S
C772 C771 1.355 . S
C772 C774 1.419 . S
C773 C768 1.425 . S
C773 C770 1.409 . S
C773 C771 1.415 . S
C774 H764 0.930 1_655 S
C774 C772 1.419 . S
C774 C775 1.362 . S
C775 H765 0.930 . S
C775 C768 1.409 . S
C775 C774 1.362 . S
H776 C782 0.930 . S
H777 C785 0.930 . S
H778 C786 0.930 . S
H779 C787 0.930 . S
H780 C790 0.930 . S
H781 C791 0.942 . S
C782 H776 0.930 . S
C782 C783 1.355 . S
C782 C784 1.415 . S
C783 C782 1.355 . S
C783 C785 1.419 . S
C784 C782 1.415 . S
C784 C789 1.425 . S
C784 C791 1.409 . S
C785 H777 0.930 . S
C785 C783 1.419 . S
C785 C786 1.362 . S
C786 H778 0.930 . S
C786 C785 1.362 . S
C786 C789 1.409 . S
C787 H779 0.930 . S
C787 C788 1.345 1_455 S
C787 C789 1.415 . S
C788 C787 1.345 1_655 S
C788 C790 1.422 . S
C789 C784 1.425 . S
C789 C786 1.409 . S
C789 C787 1.415 . S
C790 H780 0.930 . S
C790 C788 1.422 . S
C790 C791 1.362 1_655 S
C791 H781 0.942 . S
C791 C784 1.409 . S
C791 C790 1.362 1_455 S
H792 C798 0.930 . S
H793 C801 0.930 . S
H794 C802 0.930 . S
H795 C803 0.930 1_565 S
H796 C806 0.930 . S
H797 C807 0.930 . S
C798 H792 0.930 . S
C798 C799 1.355 . S
C798 C800 1.415 . S
C799 C798 1.355 . S
C799 C801 1.419 . S
C800 C798 1.415 . S
C800 C805 1.425 . S
C800 C807 1.409 . S
C801 H793 0.930 . S
C801 C799 1.419 . S
C801 C802 1.362 . S
C802 H794 0.930 . S
C802 C801 1.362 . S
C802 C805 1.409 . S
C803 H795 0.930 1_545 S
C803 C804 1.355 . S
C803 C805 1.415 . S
C804 C803 1.355 . S
C804 C806 1.419 . S
C805 C800 1.425 . S
C805 C802 1.409 . S
C805 C803 1.415 . S
C806 H796 0.930 . S
C806 C804 1.419 . S
C806 C807 1.362 . S
C807 H797 0.930 . S
C807 C800 1.409 . S
C807 C806 1.362 . S
H808 C814 0.930 . S
H809 C817 0.930 . S
H810 C818 0.930 . S
H811 C819 0.930 . S
H812 C822 0.930 . S
H813 C823 0.930 . S
C814 H808 0.930 . S
C814 C815 1.355 . S
C814 C816 1.415 . S
C815 C814 1.355 . S
C815 C817 1.419 . S
C816 C814 1.415 . S
C816 C821 1.425 . S
C816 C823 1.409 . S
C817 H809 0.930 . S
C817 C815 1.419 . S
C817 C818 1.362 . S
C818 H810 0.930 . S
C818 C817 1.362 . S
C818 C821 1.409 . S
C819 H811 0.930 . S
C819 C820 1.355 . S
C819 C821 1.415 . S
C820 C819 1.355 . S
C820 C822 1.419 . S
C821 C816 1.425 . S
C821 C818 1.409 . S
C821 C819 1.415 . S
C822 H812 0.930 . S
C822 C820 1.419 . S
C822 C823 1.362 . S
C823 H813 0.930 . S
C823 C816 1.409 . S
C823 C822 1.362 . S
H824 C830 0.930 . S
H825 C833 0.930 . S
H826 C834 0.930 . S
H827 C835 0.930 . S
H828 C838 0.930 . S
H829 C839 0.930 . S
C830 H824 0.930 . S
C830 C831 1.355 . S
C830 C832 1.415 . S
C831 C830 1.355 . S
C831 C833 1.419 . S
C832 C830 1.415 . S
C832 C837 1.425 . S
C832 C839 1.409 . S
C833 H825 0.930 . S
C833 C831 1.419 . S
C833 C834 1.362 . S
C834 H826 0.930 . S
C834 C833 1.362 . S
C834 C837 1.409 . S
C835 H827 0.930 . S
C835 C836 1.355 . S
C835 C837 1.415 . S
C836 C835 1.355 . S
C836 C838 1.419 . S
C837 C832 1.425 . S
C837 C834 1.409 . S
C837 C835 1.415 . S
C838 H828 0.930 . S
C838 C836 1.419 . S
C838 C839 1.362 . S
C839 H829 0.930 . S
C839 C832 1.409 . S
C839 C838 1.362 . S
H840 C846 0.930 1_554 S
H841 C849 0.930 . S
H842 C850 0.930 . S
H843 C851 0.930 . S
H844 C854 0.930 . S
H845 C855 0.930 . S
C846 H840 0.930 1_556 S
C846 C847 1.355 . S
C846 C848 1.415 . S
C847 C846 1.355 . S
C847 C849 1.419 . S
C848 C846 1.415 . S
C848 C853 1.425 . S
C848 C855 1.409 1_655 S
C849 H841 0.930 . S
C849 C847 1.419 . S
C849 C850 1.362 . S
C850 H842 0.930 . S
C850 C849 1.362 . S
C850 C853 1.409 . S
C851 H843 0.930 . S
C851 C852 1.355 1_655 S
C851 C853 1.415 . S
C852 C851 1.355 1_455 S
C852 C854 1.419 . S
C853 C848 1.425 . S
C853 C850 1.409 . S
C853 C851 1.415 . S
C854 H844 0.930 . S
C854 C852 1.419 . S
C854 C855 1.362 . S
C855 H845 0.930 . S
C855 C848 1.409 1_455 S
C855 C854 1.362 . S
H856 C862 0.930 . S
H857 C865 0.930 . S
H858 C866 0.930 . S
H859 C867 0.930 . S
H860 C870 0.930 1_554 S
H861 C871 0.930 . S
C862 H856 0.930 . S
C862 C863 1.355 1_554 S
C862 C864 1.415 1_554 S
C863 C862 1.355 1_556 S
C863 C865 1.419 . S
C864 C862 1.415 1_556 S
C864 C869 1.425 . S
C864 C871 1.409 1_566 S
C865 H857 0.930 . S
C865 C863 1.419 . S
C865 C866 1.362 . S
C866 H858 0.930 . S
C866 C865 1.362 . S
C866 C869 1.409 . S
C867 H859 0.930 . S
C867 C868 1.355 1_565 S
C867 C869 1.415 . S
C868 C867 1.355 1_545 S
C868 C870 1.419 . S
C869 C864 1.425 . S
C869 C866 1.409 . S
C869 C867 1.415 . S
C870 H860 0.930 1_556 S
C870 C868 1.419 . S
C870 C871 1.362 1_556 S
C871 H861 0.930 . S
C871 C864 1.409 1_544 S
C871 C870 1.362 1_554 S
H872 C878 0.930 . S
H873 C881 0.930 . S
H874 C882 0.930 . S
H875 C883 0.930 1_554 S
H876 C886 0.930 . S
H877 C887 0.930 . S
C878 H872 0.930 . S
C878 C879 1.355 1_556 S
C878 C880 1.415 . S
C879 C878 1.355 1_554 S
C879 C881 1.419 . S
C880 C878 1.415 . S
C880 C885 1.425 . S
C880 C887 1.409 . S
C881 H873 0.930 . S
C881 C879 1.419 . S
C881 C882 1.362 . S
C882 H874 0.930 . S
C882 C881 1.362 . S
C882 C885 1.409 1_554 S
C883 H875 0.930 1_556 S
C883 C884 1.355 . S
C883 C885 1.415 . S
C884 C883 1.355 . S
C884 C886 1.419 . S
C885 C880 1.425 . S
C885 C882 1.409 1_556 S
C885 C883 1.415 . S
C886 H876 0.930 . S
C886 C884 1.419 . S
C886 C887 1.362 . S
C887 H877 0.930 . S
C887 C880 1.409 . S
C887 C886 1.362 . S
H888 C894 0.930 . S
H889 C897 0.930 . S
H890 C898 0.930 . S
H891 C899 0.930 1_554 S
H892 C902 0.930 . S
H893 C903 0.930 . S
C894 H888 0.930 . S
C894 C895 1.367 . S
C894 C896 1.415 . S
C895 C894 1.367 . S
C895 C897 1.408 1_556 S
C896 C894 1.415 . S
C896 C901 1.425 . S
C896 C903 1.409 . S
C897 H889 0.930 . S
C897 C895 1.408 1_554 S
C897 C898 1.362 . S
C898 H890 0.930 . S
C898 C897 1.362 . S
C898 C901 1.409 1_554 S
C899 H891 0.930 1_556 S
C899 C900 1.355 . S
C899 C901 1.415 . S
C900 C899 1.355 . S
C900 C902 1.419 . S
C901 C896 1.425 . S
C901 C898 1.409 1_556 S
C901 C899 1.415 . S
C902 H892 0.930 . S
C902 C900 1.419 . S
C902 C903 1.362 . S
C903 H893 0.930 . S
C903 C896 1.409 . S
C903 C902 1.362 . S
H904 C910 0.930 . S
H905 C913 0.930 . S
H906 C914 0.930 . S
H907 C915 0.930 . S
H908 C918 0.930 1_655 S
H909 C919 0.922 1_655 S
C910 H904 0.930 . S
C910 C911 1.355 . S
C910 C912 1.415 . S
C911 C910 1.355 . S
C911 C913 1.419 . S
C912 C910 1.415 . S
C912 C917 1.425 . S
C912 C919 1.409 . S
C913 H905 0.930 . S
C913 C911 1.419 . S
C913 C914 1.362 . S
C914 H906 0.930 . S
C914 C913 1.362 . S
C914 C917 1.409 . S
C915 H907 0.930 . S
C915 C916 1.355 . S
C915 C917 1.415 . S
C916 C915 1.355 . S
C916 C918 1.419 . S
C917 C912 1.425 . S
C917 C914 1.409 . S
C917 C915 1.415 . S
C918 H908 0.930 1_455 S
C918 C916 1.419 . S
C918 C919 1.362 . S
C919 H909 0.922 1_455 S
C919 C912 1.409 . S
C919 C918 1.362 . S
H920 C926 0.930 . S
H921 C929 0.930 . S
H922 C930 0.930 . S
H923 C931 0.930 . S
H924 C934 0.930 1_565 S
H925 C935 0.930 1_565 S
C926 H920 0.930 . S
C926 C927 1.355 . S
C926 C928 1.415 . S
C927 C926 1.355 . S
C927 C929 1.419 . S
C928 C926 1.415 . S
C928 C933 1.425 . S
C928 C935 1.409 . S
C929 H921 0.930 . S
C929 C927 1.419 . S
C929 C930 1.362 . S
C930 H922 0.930 . S
C930 C929 1.362 . S
C930 C933 1.409 . S
C931 H923 0.930 . S
C931 C932 1.355 . S
C931 C933 1.415 . S
C932 C931 1.355 . S
C932 C934 1.419 . S
C933 C928 1.425 . S
C933 C930 1.409 . S
C933 C931 1.415 . S
C934 H924 0.930 1_545 S
C934 C932 1.419 . S
C934 C935 1.362 . S
C935 H925 0.930 1_545 S
C935 C928 1.409 . S
C935 C934 1.362 . S
H936 C942 0.930 . S
H937 C945 0.930 . S
H938 C946 0.930 . S
H939 C947 0.930 . S
H940 C950 0.930 . S
H941 C951 0.930 . S
C942 H936 0.930 . S
C942 C943 1.355 . S
C942 C944 1.415 . S
C943 C942 1.355 . S
C943 C945 1.419 . S
C944 C942 1.415 . S
C944 C949 1.425 . S
C944 C951 1.409 . S
C945 H937 0.930 . S
C945 C943 1.419 . S
C945 C946 1.362 . S
C946 H938 0.930 . S
C946 C945 1.362 . S
C946 C949 1.409 . S
C947 H939 0.930 . S
C947 C948 1.355 . S
C947 C949 1.415 . S
C948 C947 1.355 . S
C948 C950 1.419 . S
C949 C944 1.425 . S
C949 C946 1.409 . S
C949 C947 1.415 . S
C950 H940 0.930 . S
C950 C948 1.419 . S
C950 C951 1.362 . S
C951 H941 0.930 . S
C951 C944 1.409 . S
C951 C950 1.362 . S
H952 C958 0.930 . S
H953 C961 0.930 . S
H954 C962 0.930 . S
H955 C963 0.930 . S
H956 C966 0.930 . S
H957 C967 0.930 . S
C958 H952 0.930 . S
C958 C959 1.355 . S
C958 C960 1.415 . S
C959 C958 1.355 . S
C959 C961 1.419 . S
C960 C958 1.415 . S
C960 C965 1.425 . S
C960 C967 1.409 . S
C961 H953 0.930 . S
C961 C959 1.419 . S
C961 C962 1.362 . S
C962 H954 0.930 . S
C962 C961 1.362 . S
C962 C965 1.409 . S
C963 H955 0.930 . S
C963 C964 1.355 . S
C963 C965 1.415 . S
C964 C963 1.355 . S
C964 C966 1.419 . S
C965 C960 1.425 . S
C965 C962 1.409 . S
C965 C963 1.415 . S
C966 H956 0.930 . S
C966 C964 1.419 . S
C966 C967 1.362 . S
C967 H957 0.930 . S
C967 C960 1.409 . S
C967 C966 1.362 . S
H968 C974 0.930 . S
H969 C977 0.930 . S
H970 C978 0.930 . S
H971 C979 0.930 . S
H972 C982 0.930 1_455 S
H973 C983 0.930 1_455 S
C974 H968 0.930 . S
C974 C975 1.355 . S
C974 C976 1.415 . S
C975 C974 1.355 . S
C975 C977 1.419 . S
C976 C974 1.415 . S
C976 C981 1.425 . S
C976 C983 1.409 . S
C977 H969 0.930 . S
C977 C975 1.419 . S
C977 C978 1.362 . S
C978 H970 0.930 . S
C978 C977 1.362 . S
C978 C981 1.409 . S
C979 H971 0.930 . S
C979 C980 1.355 . S
C979 C981 1.415 . S
C980 C979 1.355 . S
C980 C982 1.419 . S
C981 C976 1.425 . S
C981 C978 1.409 . S
C981 C979 1.415 . S
C982 H972 0.930 1_655 S
C982 C980 1.419 . S
C982 C983 1.362 . S
C983 H973 0.930 1_655 S
C983 C976 1.409 . S
C983 C982 1.362 . S
H984 C990 0.930 . S
H985 C993 0.930 . S
H986 C994 0.930 . S
H987 C995 0.930 . S
H988 C998 0.930 1_545 S
H989 C999 0.930 1_545 S
C990 H984 0.930 . S
C990 C991 1.355 . S
C990 C992 1.415 . S
C991 C990 1.355 . S
C991 C993 1.419 . S
C992 C990 1.415 . S
C992 C997 1.425 . S
C992 C999 1.409 . S
C993 H985 0.930 . S
C993 C991 1.419 . S
C993 C994 1.362 . S
C994 H986 0.930 . S
C994 C993 1.362 . S
C994 C997 1.409 . S
C995 H987 0.930 . S
C995 C996 1.355 . S
C995 C997 1.415 . S
C996 C995 1.355 . S
C996 C998 1.419 . S
C997 C992 1.425 . S
C997 C994 1.409 . S
C997 C995 1.415 . S
C998 H988 0.930 1_565 S
C998 C996 1.419 . S
C998 C999 1.362 . S
C999 H989 0.930 1_565 S
C999 C992 1.409 . S
C999 C998 1.362 . S
H1000 C1006 0.930 . S
H1001 C1009 0.930 . S
H1002 C1010 0.930 . S
H1003 C1011 0.930 . S
H1004 C1014 0.930 . S
H1005 C1015 0.930 . S
C1006 H1000 0.930 . S
C1006 C1007 1.355 . S
C1006 C1008 1.415 . S
C1007 C1006 1.355 . S
C1007 C1009 1.419 . S
C1008 C1006 1.415 . S
C1008 C1013 1.425 . S
C1008 C1015 1.409 . S
C1009 H1001 0.930 . S
C1009 C1007 1.419 . S
C1009 C1010 1.362 . S
C1010 H1002 0.930 . S
C1010 C1009 1.362 . S
C1010 C1013 1.409 . S
C1011 H1003 0.930 . S
C1011 C1012 1.355 . S
C1011 C1013 1.415 . S
C1012 C1011 1.355 . S
C1012 C1014 1.419 . S
C1013 C1008 1.425 . S
C1013 C1010 1.409 . S
C1013 C1011 1.415 . S
C1014 H1004 0.930 . S
C1014 C1012 1.419 . S
C1014 C1015 1.362 . S
C1015 H1005 0.930 . S
C1015 C1008 1.409 . S
C1015 C1014 1.362 . S
H1016 C1022 0.930 . S
H1017 C1025 0.930 . S
H1018 C1026 0.930 . S
H1019 C1027 0.930 . S
H1020 C1030 0.930 . S
H1021 C1031 0.930 . S
C1022 H1016 0.930 . S
C1022 C1023 1.355 . S
C1022 C1024 1.415 . S
C1023 C1022 1.355 . S
C1023 C1025 1.419 . S
C1024 C1022 1.415 . S
C1024 C1029 1.425 . S
C1024 C1031 1.409 . S
C1025 H1017 0.930 . S
C1025 C1023 1.419 . S
C1025 C1026 1.362 . S
C1026 H1018 0.930 . S
C1026 C1025 1.362 . S
C1026 C1029 1.409 . S
C1027 H1019 0.930 . S
C1027 C1028 1.355 . S
C1027 C1029 1.415 . S
C1028 C1027 1.355 . S
C1028 C1030 1.419 . S
C1029 C1024 1.425 . S
C1029 C1026 1.409 . S
C1029 C1027 1.415 . S
C1030 H1020 0.930 . S
C1030 C1028 1.419 . S
C1030 C1031 1.362 . S
C1031 H1021 0.930 . S
C1031 C1024 1.409 . S
C1031 C1030 1.362 . S
C655 C255 2.355 . S
C660 C386 2.478 . S
C676 C470 2.543 . S
C671 C294 2.429 . S
C692 C536 2.418 . S
C687 C177 2.527 . S
C708 C620 2.364 . S
C703 C216 2.477 . S
C724 C375 2.516 1_565 S
C719 C99 2.439 . S
C735 C138 2.359 . S
C740 C459 2.522 . S
C751 C21 2.507 . S
C756 C547 2.377 . S
C767 C60 2.533 . S
C772 C631 2.408 . S
C788 C382 0.827 . S
C783 C196 0.886 . S
C804 C466 0.787 1_545 S
C799 C235 0.683 . S
C820 C538 0.790 . S
C815 C289 0.704 . S
C831 C157 0.686 . S
C836 C622 0.829 . S
C847 C40 0.869 1_556 S
C852 C370 0.809 . S
C868 C454 0.743 . S
C863 C79 0.851 1_556 S
C884 C550 0.789 . S
C879 C133 0.681 . S
C895 C1 0.703 1_556 S
C900 C634 0.844 . S
C911 C211 2.866 . S
C916 C379 3.035 . S
C927 C250 2.817 . S
C932 C463 2.991 . S
C948 C543 3.119 . S
C943 C274 2.763 . S
C964 C627 3.161 . S
C959 C172 2.770 . S
C975 C55 2.889 . S
C980 C368 3.057 . S
C996 C452 3.024 . S
C991 C94 2.855 . S
C1012 C554 3.132 . S
C1007 C118 2.705 . S
C1023 C16 2.716 . S
C1028 C638 3.142 . S
