# Generated by pormake.
# Topology tsx, (6,3)-cn, num edge types: 1
# Building blocks:
#     Node 0, Type 0, BuildingBlock: MIDCAF_clean_sbu_0, # of connection points: 6
#     Node 1, Type 0, BuildingBlock: MIDCAF_clean_sbu_0, # of connection points: 6
#     Node 2, Type 1, BuildingBlock: BETDAH_clean_linker_0, # of connection points: 3
#     Node 3, Type 1, BuildingBlock: BETDAH_clean_linker_0, # of connection points: 3
#     Node 4, Type 1, BuildingBlock: BETDAH_clean_linker_0, # of connection points: 3
#     Node 5, Type 1, BuildingBlock: BETDAH_clean_linker_0, # of connection points: 3
#     Edge 6, Type (0, 1), BuildingBlock: XIVTED_clean_linker_0, # of connection points: 2
#     Edge 7, Type (0, 1), BuildingBlock: XIVTED_clean_linker_0, # of connection points: 2
#     Edge 8, Type (0, 1), BuildingBlock: XIVTED_clean_linker_0, # of connection points: 2
#     Edge 9, Type (0, 1), BuildingBlock: XIVTED_clean_linker_0, # of connection points: 2
#     Edge 10, Type (0, 1), BuildingBlock: XIVTED_clean_linker_0, # of connection points: 2
#     Edge 11, Type (0, 1), BuildingBlock: XIVTED_clean_linker_0, # of connection points: 2
#     Edge 12, Type (0, 1), BuildingBlock: XIVTED_clean_linker_0, # of connection points: 2
#     Edge 13, Type (0, 1), BuildingBlock: XIVTED_clean_linker_0, # of connection points: 2
#     Edge 14, Type (0, 1), BuildingBlock: XIVTED_clean_linker_0, # of connection points: 2
#     Edge 15, Type (0, 1), BuildingBlock: XIVTED_clean_linker_0, # of connection points: 2
#     Edge 16, Type (0, 1), BuildingBlock: XIVTED_clean_linker_0, # of connection points: 2
#     Edge 17, Type (0, 1), BuildingBlock: XIVTED_clean_linker_0, # of connection points: 2
# Relax obj value: 0.079
# Max RMSD: 0.148
# Mean RMSD: 0.108
data_MOF--net-tsx--node1-MIDCAF_clean_sbu_0--node2-BETDAH_clean_linker_0--edge1-XIVTED_clean_linker_0
_symmetry_space_group_name_H-M    P1
_symmetry_Int_Tables_number       1
_symmetry_cell_setting            triclinic
loop_
_symmetry_equiv_pos_as_xyz
'x, y, z'
_cell_length_a     20.459466
_cell_length_b     20.95583
_cell_length_c     35.187426
_cell_angle_alpha  90.377287
_cell_angle_beta   102.93656
_cell_angle_gamma 90.086431
loop_
_atom_site_label
_atom_site_type_symbol
_atom_site_fract_x
_atom_site_fract_y
_atom_site_fract_z
_atom_type_partial_charge
Zn0 Zn 0.95158 0.00492 0.9536 0.0
Zn1 Zn 0.16331 0.01108 0.0703 0.0
Zn2 Zn 0.05548 0.01626 0.01263 0.0
C3 C 0.12873 0.14072 0.05376 0.0
C4 C 0.19845 0.94748 0.00972 0.0
O5 O 0.975 0.96257 0.03166 0.0
O6 O 0.88935 0.96155 0.98056 0.0
C7 C 0.97908 0.13628 0.96865 0.0
O8 O 0.08224 0.11642 0.02682 0.0
O9 O 0.16934 0.10526 0.07653 0.0
O10 O 0.22564 0.96599 0.04379 0.0
O11 O 0.13702 0.96222 0.99453 0.0
O12 O 0.9422 0.09817 0.94528 0.0
O13 O 0.02461 0.115 0.99701 0.0
O14 O 0.08522 0.97353 0.96103 0.0
O15 O 0.99197 0.95682 0.91619 0.0
C16 C 0.05502 0.95427 0.92668 0.0
O17 O 0.02792 0.97334 0.06452 0.0
O18 O 0.12365 0.96395 0.10823 0.0
C19 C 0.91421 0.94669 0.01549 0.0
C20 C 0.06082 0.95692 0.09871 0.0
Zn21 Zn 0.63824 0.51348 0.56734 0.0
Zn22 Zn 0.42163 0.52683 0.45039 0.0
Zn23 Zn 0.53088 0.52877 0.50993 0.0
C24 C 0.52639 0.47804 0.42141 0.0
C25 C 0.45584 0.65533 0.47417 0.0
O26 O 0.50237 0.48234 0.56036 0.0
O27 O 0.59684 0.46453 0.60379 0.0
C28 C 0.67103 0.45883 0.50302 0.0
O29 O 0.55758 0.49073 0.4567 0.0
O30 O 0.46381 0.48588 0.41084 0.0
O31 O 0.41509 0.62167 0.4498 0.0
O32 O 0.50303 0.62912 0.49954 0.0
O33 O 0.69815 0.47035 0.53827 0.0
O34 O 0.61042 0.47693 0.48862 0.0
O35 O 0.56272 0.62647 0.52816 0.0
O36 O 0.64896 0.60673 0.5771 0.0
C37 C 0.61075 0.6461 0.55591 0.0
O38 O 0.45024 0.47232 0.52664 0.0
O39 O 0.36286 0.47565 0.47657 0.0
C40 C 0.53368 0.46177 0.59396 0.0
C41 C 0.38948 0.45639 0.51042 0.0
H42 H 0.14179 0.94992 0.36623 0.0
H43 H 0.96624 0.05653 0.37511 0.0
H44 H 0.12952 0.03674 0.47536 0.0
C45 C 0.11469 0.9785 0.38335 0.0
C46 C 0.14417 0.99148 0.42263 0.0
C47 C 0.05033 0.00095 0.36593 0.0
C48 C 0.01587 0.03888 0.38815 0.0
C49 C 0.04462 0.05127 0.42781 0.0
C50 C 0.108 0.02688 0.44483 0.0
N51 N 0.01056 0.08616 0.45202 0.0
C52 C 0.96206 0.13197 0.43882 0.0
H53 H 0.97807 0.9375 0.67467 0.0
H54 H 0.14386 0.03125 0.64268 0.0
H55 H 0.96972 0.98033 0.5541 0.0
C56 C 0.00052 0.95654 0.65201 0.0
C57 C 0.96498 0.95487 0.61294 0.0
C58 C 0.0656 0.98163 0.66274 0.0
C59 C 0.09379 0.01121 0.6345 0.0
C60 C 0.05816 0.0115 0.59524 0.0
C61 C 0.99497 0.98207 0.58463 0.0
N62 N 0.08561 0.0382 0.56534 0.0
C63 C 0.12879 0.09026 0.57091 0.0
H64 H 0.62034 0.42913 0.84948 0.0
H65 H 0.45616 0.52949 0.87911 0.0
H66 H 0.62729 0.47924 0.96925 0.0
C67 C 0.59777 0.45004 0.87168 0.0
C68 C 0.63252 0.44989 0.91092 0.0
C69 C 0.53345 0.47626 0.8602 0.0
C70 C 0.50555 0.50846 0.88785 0.0
C71 C 0.54047 0.51023 0.92725 0.0
C72 C 0.60267 0.4797 0.93861 0.0
N73 N 0.51336 0.53983 0.95658 0.0
C74 C 0.47033 0.59167 0.94992 0.0
H75 H 0.47046 0.46064 0.17415 0.0
H76 H 0.6358 0.55129 0.14027 0.0
H77 H 0.46408 0.49188 0.05236 0.0
C78 C 0.49284 0.47786 0.151 0.0
C79 C 0.45852 0.47159 0.11185 0.0
C80 C 0.55731 0.50414 0.1612 0.0
C81 C 0.58599 0.53064 0.13232 0.0
C82 C 0.55102 0.52755 0.09295 0.0
C83 C 0.48852 0.49669 0.08291 0.0
N84 N 0.57835 0.55276 0.06259 0.0
C85 C 0.62512 0.60189 0.06825 0.0
H86 H 0.14455 0.22376 0.99684 0.0
H87 H 0.42106 0.37016 0.15103 0.0
H88 H 0.14466 0.21227 0.11903 0.0
H89 H 0.34935 0.48618 0.04896 0.0
H90 H 0.31779 0.31087 0.13611 0.0
H91 H 0.21116 0.32271 0.00998 0.0
C92 C 0.15574 0.24387 0.02603 0.0
C93 C 0.14064 0.20973 0.05715 0.0
C94 C 0.32396 0.35007 0.11728 0.0
C95 C 0.21703 0.32056 0.0723 0.0
C96 C 0.38322 0.38463 0.12591 0.0
C97 C 0.39421 0.43494 0.10186 0.0
C98 C 0.27547 0.36355 0.08343 0.0
C99 C 0.34368 0.44777 0.06835 0.0
C100 C 0.19398 0.29995 0.03353 0.0
C101 C 0.1565 0.23699 0.09446 0.0
N102 N 0.28671 0.41155 0.05973 0.0
N103 N 0.19531 0.29004 0.10121 0.0
H104 H 0.14988 0.85047 0.95855 0.0
H105 H 0.51666 0.70963 0.96983 0.0
H106 H 0.33339 0.9444 0.01615 0.0
H107 H 0.33515 0.60206 0.92741 0.0
H108 H 0.44944 0.80457 0.97496 0.0
H109 H 0.21585 0.76853 0.93437 0.0
C110 C 0.20397 0.85489 0.96513 0.0
C111 C 0.23629 0.90435 0.98927 0.0
C112 C 0.42412 0.76054 0.96403 0.0
C113 C 0.312 0.81001 0.96271 0.0
C114 C 0.46247 0.70659 0.96102 0.0
C115 C 0.43088 0.64871 0.94824 0.0
C116 C 0.35374 0.75612 0.95442 0.0
C117 C 0.36086 0.64636 0.93737 0.0
C118 C 0.24163 0.80768 0.95173 0.0
C119 C 0.30655 0.90681 0.9978 0.0
N120 N 0.32436 0.69938 0.941 0.0
N121 N 0.34204 0.86003 0.98481 0.0
H122 H 0.78014 0.95308 0.00945 0.0
H123 H 0.76054 0.60386 0.09249 0.0
H124 H 0.95592 0.84874 0.0664 0.0
H125 H 0.58834 0.72215 0.04925 0.0
H126 H 0.83402 0.69617 0.09018 0.0
H127 H 0.70985 0.87412 0.0317 0.0
C128 C 0.8039 0.91401 0.02736 0.0
C129 C 0.87373 0.90706 0.03596 0.0
C130 C 0.78016 0.70222 0.08177 0.0
C131 C 0.79364 0.81532 0.06068 0.0
C132 C 0.73849 0.64967 0.08303 0.0
C133 C 0.66894 0.65615 0.07085 0.0
C134 C 0.75155 0.76098 0.06789 0.0
C135 C 0.64206 0.71577 0.05875 0.0
C136 C 0.7638 0.8688 0.04 0.0
C137 C 0.90217 0.85586 0.05935 0.0
N138 N 0.68347 0.76587 0.05724 0.0
N139 N 0.86189 0.8111 0.07033 0.0
H140 H 0.95637 0.20392 0.90221 0.0
H141 H 0.74191 0.4773 0.97181 0.0
H142 H 0.96068 0.2212 0.02484 0.0
H143 H 0.67324 0.34302 0.87728 0.0
H144 H 0.84813 0.41793 0.98925 0.0
H145 H 0.88577 0.29867 0.88996 0.0
C146 C 0.94469 0.22941 0.92675 0.0
C147 C 0.96302 0.20446 0.96442 0.0
C148 C 0.8097 0.40277 0.96437 0.0
C149 C 0.88114 0.31123 0.95052 0.0
C150 C 0.74882 0.43596 0.95455 0.0
C151 C 0.69811 0.41606 0.92251 0.0
C152 C 0.82032 0.35076 0.9413 0.0
C153 C 0.71087 0.36233 0.90119 0.0
C154 C 0.90412 0.28304 0.91973 0.0
C155 C 0.94688 0.23909 0.99533 0.0
N156 N 0.77059 0.33214 0.9108 0.0
N157 N 0.90486 0.29011 0.9876 0.0
H158 H 0.63964 0.7106 0.6241 0.0
H159 H 0.85501 0.98146 0.55263 0.0
H160 H 0.62653 0.73328 0.50101 0.0
H161 H 0.92276 0.85093 0.64803 0.0
H162 H 0.74736 0.92354 0.53654 0.0
H163 H 0.71267 0.80411 0.63711 0.0
C164 C 0.64997 0.73704 0.59972 0.0
C165 C 0.62831 0.71396 0.56156 0.0
C166 C 0.7859 0.9089 0.56133 0.0
C167 C 0.7132 0.81918 0.57624 0.0
C168 C 0.84759 0.94126 0.57037 0.0
C169 C 0.89849 0.92197 0.60222 0.0
C170 C 0.77474 0.85828 0.58494 0.0
C171 C 0.88508 0.86974 0.62419 0.0
C172 C 0.69202 0.78992 0.60714 0.0
C173 C 0.64286 0.74974 0.53088 0.0
N174 N 0.82468 0.84029 0.61529 0.0
N175 N 0.68633 0.79994 0.53892 0.0
H176 H 0.62362 0.36497 0.44938 0.0
H177 H 0.99511 0.25587 0.44275 0.0
H178 H 0.80408 0.46567 0.50482 0.0
H179 H 0.82626 0.12729 0.4227 0.0
H180 H 0.91941 0.34528 0.44594 0.0
H181 H 0.69157 0.29027 0.42045 0.0
C182 C 0.67729 0.37238 0.45452 0.0
C183 C 0.70856 0.42117 0.4796 0.0
C184 C 0.89863 0.29773 0.44003 0.0
C185 C 0.78614 0.33614 0.44713 0.0
C186 C 0.94168 0.24697 0.438 0.0
C187 C 0.91632 0.18484 0.4325 0.0
C188 C 0.82998 0.28584 0.43681 0.0
C189 C 0.84717 0.175 0.42691 0.0
C190 C 0.716 0.32953 0.43831 0.0
C191 C 0.77826 0.42821 0.4859 0.0
N192 N 0.80618 0.22509 0.42965 0.0
N193 N 0.81478 0.38588 0.47001 0.0
H194 H 0.25441 0.4507 0.50283 0.0
H195 H 0.26368 0.10338 0.59519 0.0
H196 H 0.43806 0.35811 0.55971 0.0
H197 H 0.0821 0.20585 0.54687 0.0
H198 H 0.32913 0.19977 0.58881 0.0
H199 H 0.19069 0.36606 0.52537 0.0
C200 C 0.2813 0.41302 0.52068 0.0
C201 C 0.35156 0.41145 0.52951 0.0
C202 C 0.27495 0.20149 0.58012 0.0
C203 C 0.27901 0.31347 0.55481 0.0
C204 C 0.23782 0.14664 0.58379 0.0
C205 C 0.16793 0.14747 0.57152 0.0
C206 C 0.24151 0.25685 0.56373 0.0
C207 C 0.13617 0.20391 0.55669 0.0
C208 C 0.24494 0.36461 0.53353 0.0
C209 C 0.38394 0.3616 0.55274 0.0
N210 N 0.17324 0.2563 0.55292 0.0
N211 N 0.34739 0.31404 0.56417 0.0
H212 H 0.45365 0.73162 0.53725 0.0
H213 H 0.18554 0.93459 0.49408 0.0
H214 H 0.42693 0.73418 0.41227 0.0
H215 H 0.25533 0.98695 0.39152 0.0
H216 H 0.28688 0.87157 0.51609 0.0
H217 H 0.39697 0.83549 0.53429 0.0
C218 C 0.43779 0.75516 0.50939 0.0
C219 C 0.44343 0.72425 0.47482 0.0
C220 C 0.2814 0.89862 0.48948 0.0
C221 C 0.37772 0.84108 0.47105 0.0
C222 C 0.22315 0.93446 0.47677 0.0
C223 C 0.21114 0.96471 0.44039 0.0
C224 C 0.32755 0.8928 0.46546 0.0
C225 C 0.26157 0.96265 0.41915 0.0
C226 C 0.40463 0.81381 0.50763 0.0
C227 C 0.42234 0.75631 0.43945 0.0
N228 N 0.31674 0.92599 0.43152 0.0
N229 N 0.38965 0.81266 0.43841 0.0
H230 H 0.0906 0.8621 0.15196 0.0
H231 H 0.98603 0.07929 0.30678 0.0
H232 H 0.95671 0.02034 0.11788 0.0
H233 H 0.04844 0.88436 0.33058 0.0
H234 H 0.96078 0.05449 0.23674 0.0
H235 H 0.06162 0.86164 0.21558 0.0
C236 C 0.05315 0.89524 0.1575 0.0
C237 C 0.02615 0.94142 0.1299 0.0
C238 C 0.97853 0.01678 0.25735 0.0
C239 C 0.99526 0.94362 0.20324 0.0
C240 C 0.99285 0.03095 0.29732 0.0
C241 C 0.02108 0.98427 0.32446 0.0
C242 C 0.99323 0.95577 0.2446 0.0
C243 C 0.02872 0.92233 0.31058 0.0
C244 C 0.03688 0.89539 0.19392 0.0
C245 C 0.97839 0.98384 0.1385 0.0
N246 N 0.01625 0.91024 0.27168 0.0
N247 N 0.96592 0.98527 0.17493 0.0
H248 H 0.03759 0.85535 0.87503 0.0
H249 H 0.11653 0.07311 0.71781 0.0
H250 H 0.15382 0.02637 0.90841 0.0
H251 H 0.09578 0.86977 0.70036 0.0
H252 H 0.14524 0.05605 0.78869 0.0
H253 H 0.07231 0.85449 0.81299 0.0
C254 C 0.07238 0.89145 0.86971 0.0
C255 C 0.09277 0.94105 0.89655 0.0
C256 C 0.13662 0.01504 0.76931 0.0
C257 C 0.13001 0.94254 0.82503 0.0
C258 C 0.12052 0.02486 0.72893 0.0
C259 C 0.10289 0.9728 0.70351 0.0
C260 C 0.1338 0.95293 0.78392 0.0
C261 C 0.10822 0.91115 0.71922 0.0
C262 C 0.09205 0.89126 0.83426 0.0
C263 C 0.13731 0.98721 0.88831 0.0
N264 N 0.12161 0.90297 0.7584 0.0
N265 N 0.15282 0.98809 0.85266 0.0
H266 H 0.43246 0.52927 0.61333 0.0
H267 H 0.50732 0.36372 0.82152 0.0
H268 H 0.55614 0.36332 0.64519 0.0
H269 H 0.47842 0.56631 0.80574 0.0
H270 H 0.47661 0.34853 0.75083 0.0
H271 H 0.40256 0.52645 0.67723 0.0
C272 C 0.45082 0.49057 0.63309 0.0
C273 C 0.49722 0.4467 0.62438 0.0
C274 C 0.4752 0.39611 0.76284 0.0
C275 C 0.46341 0.44327 0.69685 0.0
C276 C 0.49259 0.40484 0.80309 0.0
C277 C 0.49668 0.46651 0.81926 0.0
C278 C 0.46184 0.44942 0.73854 0.0
C279 C 0.47636 0.51811 0.79427 0.0
C280 C 0.43432 0.48944 0.66958 0.0
C281 C 0.52049 0.39811 0.65104 0.0
N282 N 0.46105 0.50858 0.7549 0.0
N283 N 0.50389 0.39806 0.68629 0.0
H284 H 0.50288 0.38418 0.36638 0.0
H285 H 0.60736 0.39587 0.19727 0.0
H286 H 0.63073 0.54576 0.40643 0.0
H287 H 0.58527 0.59666 0.21786 0.0
H288 H 0.62936 0.3774 0.26768 0.0
H289 H 0.54296 0.38299 0.30593 0.0
C290 C 0.54126 0.41791 0.36289 0.0
C291 C 0.56384 0.46494 0.39117 0.0
C292 C 0.62173 0.42571 0.25686 0.0
C293 C 0.6083 0.46543 0.32191 0.0
C294 C 0.60995 0.43637 0.21687 0.0
C295 C 0.59422 0.49779 0.20206 0.0
C296 C 0.61709 0.47685 0.28201 0.0
C297 C 0.59734 0.54871 0.22837 0.0
C298 C 0.5643 0.41724 0.3285 0.0
C299 C 0.61272 0.50845 0.38522 0.0
N300 N 0.6073 0.53696 0.26726 0.0
N301 N 0.63174 0.5091 0.35055 0.0
loop_
_geom_bond_atom_site_label_1
_geom_bond_atom_site_label_2
_geom_bond_distance
_geom_bond_site_symmetry_2
_ccdc_geom_bond_type
Zn0 O6 1.920 1_545 S
Zn0 O12 1.898 . S
Zn0 O15 1.905 1_545 S
Zn1 O9 1.905 . S
Zn1 O10 1.898 1_545 S
Zn1 O18 1.920 1_545 S
Zn2 O5 2.080 1_445 S
Zn2 O8 2.114 . S
Zn2 O11 2.120 1_545 S
Zn2 O13 2.120 1_455 S
Zn2 O14 2.114 1_554 S
Zn2 O17 2.080 . S
C3 O8 1.166 . S
C3 O9 1.182 . S
C4 O10 1.167 . S
C4 O11 1.299 . S
O5 Zn2 2.080 1_665 S
O5 C19 1.305 . S
O6 Zn0 1.920 1_565 S
O6 C19 1.234 1_556 S
C7 O12 1.167 . S
C7 O13 1.299 1_556 S
O8 Zn2 2.114 . S
O8 C3 1.166 . S
O9 Zn1 1.905 . S
O9 C3 1.182 . S
O10 Zn1 1.898 1_565 S
O10 C4 1.167 . S
O11 Zn2 2.120 1_565 S
O11 C4 1.299 . S
O12 Zn0 1.898 . S
O12 C7 1.167 . S
O13 Zn2 2.120 1_655 S
O13 C7 1.299 1_554 S
O14 Zn2 2.114 1_556 S
O14 C16 1.161 1_445 S
O15 Zn0 1.905 1_565 S
O15 C16 1.194 . S
C16 O14 1.161 1_665 S
C16 O15 1.194 . S
O17 Zn2 2.080 . S
O17 C20 1.305 1_545 S
O18 Zn1 1.920 1_565 S
O18 C20 1.234 . S
C19 O5 1.305 . S
C19 O6 1.234 1_554 S
C20 O17 1.305 1_565 S
C20 O18 1.234 . S
Zn21 O27 1.920 . S
Zn21 O33 1.898 . S
Zn21 O36 1.905 . S
Zn22 O30 1.905 . S
Zn22 O31 1.898 . S
Zn22 O39 1.920 . S
Zn23 O26 2.080 . S
Zn23 O29 2.114 . S
Zn23 O32 2.120 . S
Zn23 O34 2.120 . S
Zn23 O35 2.114 . S
Zn23 O38 2.080 . S
C24 O29 1.166 . S
C24 O30 1.182 . S
C25 O31 1.167 . S
C25 O32 1.299 . S
O26 Zn23 2.080 . S
O26 C40 1.305 . S
O27 Zn21 1.920 . S
O27 C40 1.234 . S
C28 O33 1.167 . S
C28 O34 1.299 . S
O29 Zn23 2.114 . S
O29 C24 1.166 . S
O30 Zn22 1.905 . S
O30 C24 1.182 . S
O31 Zn22 1.898 . S
O31 C25 1.167 . S
O32 Zn23 2.120 . S
O32 C25 1.299 . S
O33 Zn21 1.898 . S
O33 C28 1.167 . S
O34 Zn23 2.120 . S
O34 C28 1.299 . S
O35 Zn23 2.114 . S
O35 C37 1.166 . S
O36 Zn21 1.905 . S
O36 C37 1.182 . S
C37 O35 1.166 . S
C37 O36 1.182 . S
O38 Zn23 2.080 . S
O38 C41 1.305 . S
O39 Zn22 1.920 . S
O39 C41 1.234 . S
C40 O26 1.305 . S
C40 O27 1.234 . S
C41 O38 1.305 . S
C41 O39 1.234 . S
H42 C45 0.929 . S
H43 C48 0.929 . S
H44 C50 0.930 1_565 S
C45 H42 0.929 . S
C45 C46 1.398 . S
C45 C47 1.396 1_565 S
C46 C45 1.398 . S
C46 C50 1.407 1_565 S
C47 C45 1.396 1_545 S
C47 C48 1.394 . S
C48 H43 0.929 . S
C48 C47 1.394 . S
C48 C49 1.382 . S
C49 C48 1.382 . S
C49 C50 1.392 . S
C49 N51 1.420 . S
C50 H44 0.930 1_545 S
C50 C46 1.407 1_545 S
C50 C49 1.392 . S
N51 C49 1.420 . S
N51 C52 1.244 . S
C52 N51 1.244 . S
H53 C56 0.929 . S
H54 C59 0.929 . S
H55 C61 0.930 . S
C56 H53 0.929 . S
C56 C57 1.398 . S
C56 C58 1.396 1_565 S
C57 C56 1.398 . S
C57 C61 1.407 . S
C58 C56 1.396 1_545 S
C58 C59 1.394 1_655 S
C59 H54 0.929 . S
C59 C58 1.394 1_455 S
C59 C60 1.382 . S
C60 C59 1.382 . S
C60 C61 1.392 1_445 S
C60 N62 1.420 . S
C61 H55 0.930 . S
C61 C57 1.407 . S
C61 C60 1.392 1_665 S
N62 C60 1.420 . S
N62 C63 1.244 . S
C63 N62 1.244 . S
H64 C67 0.929 . S
H65 C70 0.929 . S
H66 C72 0.930 . S
C67 H64 0.929 . S
C67 C68 1.398 . S
C67 C69 1.396 . S
C68 C67 1.398 . S
C68 C72 1.407 . S
C69 C67 1.396 . S
C69 C70 1.394 . S
C70 H65 0.929 . S
C70 C69 1.394 . S
C70 C71 1.382 . S
C71 C70 1.382 . S
C71 C72 1.392 . S
C71 N73 1.420 . S
C72 H66 0.930 . S
C72 C68 1.407 . S
C72 C71 1.392 . S
N73 C71 1.420 . S
N73 C74 1.244 . S
C74 N73 1.244 . S
H75 C78 0.929 . S
H76 C81 0.929 . S
H77 C83 0.930 . S
C78 H75 0.929 . S
C78 C79 1.398 . S
C78 C80 1.396 . S
C79 C78 1.398 . S
C79 C83 1.407 . S
C80 C78 1.396 . S
C80 C81 1.394 . S
C81 H76 0.929 . S
C81 C80 1.394 . S
C81 C82 1.382 . S
C82 C81 1.382 . S
C82 C83 1.392 . S
C82 N84 1.420 . S
C83 H77 0.930 . S
C83 C79 1.407 . S
C83 C82 1.392 . S
N84 C82 1.420 . S
N84 C85 1.244 . S
C85 N84 1.244 . S
H86 C92 0.930 1_556 S
H87 C96 0.930 . S
H88 C101 0.929 . S
H89 C99 0.929 . S
H90 C94 0.929 . S
H91 C100 0.929 1_556 S
C92 H86 0.930 1_554 S
C92 C93 1.367 . S
C92 C100 1.378 . S
C93 C92 1.367 . S
C93 C101 1.433 . S
C94 H90 0.929 . S
C94 C96 1.378 . S
C94 C98 1.350 . S
C95 C98 1.463 . S
C95 C100 1.350 . S
C95 N103 1.427 . S
C96 H87 0.930 . S
C96 C94 1.378 . S
C96 C97 1.367 . S
C97 C96 1.367 . S
C97 C99 1.433 . S
C98 C94 1.350 . S
C98 C95 1.463 . S
C98 N102 1.427 . S
C99 H89 0.929 . S
C99 C97 1.433 . S
C99 N102 1.384 . S
C100 H91 0.929 1_554 S
C100 C92 1.378 . S
C100 C95 1.350 . S
C101 H88 0.929 . S
C101 C93 1.433 . S
C101 N103 1.384 . S
N102 C98 1.427 . S
N102 C99 1.384 . S
N103 C95 1.427 . S
N103 C101 1.384 . S
H104 C110 0.930 . S
H105 C114 0.930 . S
H106 C119 0.929 . S
H107 C117 0.929 . S
H108 C112 0.929 . S
H109 C118 0.929 . S
C110 H104 0.930 . S
C110 C111 1.367 . S
C110 C118 1.378 . S
C111 C110 1.367 . S
C111 C119 1.433 1_556 S
C112 H108 0.929 . S
C112 C114 1.378 . S
C112 C116 1.350 1_554 S
C113 C116 1.463 . S
C113 C118 1.350 . S
C113 N121 1.427 1_556 S
C114 H105 0.930 . S
C114 C112 1.378 . S
C114 C115 1.367 1_554 S
C115 C114 1.367 1_556 S
C115 C117 1.433 . S
C116 C112 1.350 1_556 S
C116 C113 1.463 . S
C116 N120 1.427 . S
C117 H107 0.929 . S
C117 C115 1.433 . S
C117 N120 1.384 . S
C118 H109 0.929 . S
C118 C110 1.378 . S
C118 C113 1.350 . S
C119 H106 0.929 . S
C119 C111 1.433 1_554 S
C119 N121 1.384 . S
N120 C116 1.427 . S
N120 C117 1.384 . S
N121 C113 1.427 1_554 S
N121 C119 1.384 . S
H122 C128 0.930 . S
H123 C132 0.930 . S
H124 C137 0.929 . S
H125 C135 0.929 . S
H126 C130 0.929 . S
H127 C136 0.929 . S
C128 H122 0.930 . S
C128 C129 1.367 . S
C128 C136 1.378 . S
C129 C128 1.367 . S
C129 C137 1.433 . S
C130 H126 0.929 . S
C130 C132 1.378 . S
C130 C134 1.350 . S
C131 C134 1.463 . S
C131 C136 1.350 . S
C131 N139 1.427 . S
C132 H123 0.930 . S
C132 C130 1.378 . S
C132 C133 1.367 . S
C133 C132 1.367 . S
C133 C135 1.433 . S
C134 C130 1.350 . S
C134 C131 1.463 . S
C134 N138 1.427 . S
C135 H125 0.929 . S
C135 C133 1.433 . S
C135 N138 1.384 . S
C136 H127 0.929 . S
C136 C128 1.378 . S
C136 C131 1.350 . S
C137 H124 0.929 . S
C137 C129 1.433 . S
C137 N139 1.384 . S
N138 C134 1.427 . S
N138 C135 1.384 . S
N139 C131 1.427 . S
N139 C137 1.384 . S
H140 C146 0.930 . S
H141 C150 0.930 1_554 S
H142 C155 0.929 . S
H143 C153 0.929 . S
H144 C148 0.929 1_554 S
H145 C154 0.929 . S
C146 H140 0.930 . S
C146 C147 1.367 . S
C146 C154 1.378 . S
C147 C146 1.367 . S
C147 C155 1.433 1_556 S
C148 H144 0.929 1_556 S
C148 C150 1.378 . S
C148 C152 1.350 . S
C149 C152 1.463 . S
C149 C154 1.350 . S
C149 N157 1.427 1_556 S
C150 H141 0.930 1_556 S
C150 C148 1.378 . S
C150 C151 1.367 . S
C151 C150 1.367 . S
C151 C153 1.433 . S
C152 C148 1.350 . S
C152 C149 1.463 . S
C152 N156 1.427 . S
C153 H143 0.929 . S
C153 C151 1.433 . S
C153 N156 1.384 . S
C154 H145 0.929 . S
C154 C146 1.378 . S
C154 C149 1.350 . S
C155 H142 0.929 . S
C155 C147 1.433 1_554 S
C155 N157 1.384 . S
N156 C152 1.427 . S
N156 C153 1.384 . S
N157 C149 1.427 1_554 S
N157 C155 1.384 . S
H158 C164 0.930 . S
H159 C168 0.930 . S
H160 C173 0.929 . S
H161 C171 0.929 . S
H162 C166 0.929 . S
H163 C172 0.929 . S
C164 H158 0.930 . S
C164 C165 1.367 . S
C164 C172 1.378 . S
C165 C164 1.367 . S
C165 C173 1.433 . S
C166 H162 0.929 . S
C166 C168 1.378 . S
C166 C170 1.350 . S
C167 C170 1.463 . S
C167 C172 1.350 . S
C167 N175 1.427 . S
C168 H159 0.930 . S
C168 C166 1.378 . S
C168 C169 1.367 . S
C169 C168 1.367 . S
C169 C171 1.433 . S
C170 C166 1.350 . S
C170 C167 1.463 . S
C170 N174 1.427 . S
C171 H161 0.929 . S
C171 C169 1.433 . S
C171 N174 1.384 . S
C172 H163 0.929 . S
C172 C164 1.378 . S
C172 C167 1.350 . S
C173 H160 0.929 . S
C173 C165 1.433 . S
C173 N175 1.384 . S
N174 C170 1.427 . S
N174 C171 1.384 . S
N175 C167 1.427 . S
N175 C173 1.384 . S
H176 C182 0.930 . S
H177 C186 0.930 1_455 S
H178 C191 0.929 . S
H179 C189 0.929 . S
H180 C184 0.929 . S
H181 C190 0.929 . S
C182 H176 0.930 . S
C182 C183 1.367 . S
C182 C190 1.378 . S
C183 C182 1.367 . S
C183 C191 1.433 . S
C184 H180 0.929 . S
C184 C186 1.378 . S
C184 C188 1.350 . S
C185 C188 1.463 . S
C185 C190 1.350 . S
C185 N193 1.427 . S
C186 H177 0.930 1_655 S
C186 C184 1.378 . S
C186 C187 1.367 . S
C187 C186 1.367 . S
C187 C189 1.433 . S
C188 C184 1.350 . S
C188 C185 1.463 . S
C188 N192 1.427 . S
C189 H179 0.929 . S
C189 C187 1.433 . S
C189 N192 1.384 . S
C190 H181 0.929 . S
C190 C182 1.378 . S
C190 C185 1.350 . S
C191 H178 0.929 . S
C191 C183 1.433 . S
C191 N193 1.384 . S
N192 C188 1.427 . S
N192 C189 1.384 . S
N193 C185 1.427 . S
N193 C191 1.384 . S
H194 C200 0.930 . S
H195 C204 0.930 . S
H196 C209 0.929 . S
H197 C207 0.929 . S
H198 C202 0.929 . S
H199 C208 0.929 . S
C200 H194 0.930 . S
C200 C201 1.367 . S
C200 C208 1.378 . S
C201 C200 1.367 . S
C201 C209 1.433 . S
C202 H198 0.929 . S
C202 C204 1.378 . S
C202 C206 1.350 . S
C203 C206 1.463 . S
C203 C208 1.350 . S
C203 N211 1.427 . S
C204 H195 0.930 . S
C204 C202 1.378 . S
C204 C205 1.367 . S
C205 C204 1.367 . S
C205 C207 1.433 . S
C206 C202 1.350 . S
C206 C203 1.463 . S
C206 N210 1.427 . S
C207 H197 0.929 . S
C207 C205 1.433 . S
C207 N210 1.384 . S
C208 H199 0.929 . S
C208 C200 1.378 . S
C208 C203 1.350 . S
C209 H196 0.929 . S
C209 C201 1.433 . S
C209 N211 1.384 . S
N210 C206 1.427 . S
N210 C207 1.384 . S
N211 C203 1.427 . S
N211 C209 1.384 . S
H212 C218 0.930 . S
H213 C222 0.930 . S
H214 C227 0.929 . S
H215 C225 0.929 . S
H216 C220 0.929 . S
H217 C226 0.929 . S
C218 H212 0.930 . S
C218 C219 1.367 . S
C218 C226 1.378 . S
C219 C218 1.367 . S
C219 C227 1.433 . S
C220 H216 0.929 . S
C220 C222 1.378 . S
C220 C224 1.350 . S
C221 C224 1.463 . S
C221 C226 1.350 . S
C221 N229 1.427 . S
C222 H213 0.930 . S
C222 C220 1.378 . S
C222 C223 1.367 . S
C223 C222 1.367 . S
C223 C225 1.433 . S
C224 C220 1.350 . S
C224 C221 1.463 . S
C224 N228 1.427 . S
C225 H215 0.929 . S
C225 C223 1.433 . S
C225 N228 1.384 . S
C226 H217 0.929 . S
C226 C218 1.378 . S
C226 C221 1.350 . S
C227 H214 0.929 . S
C227 C219 1.433 . S
C227 N229 1.384 . S
N228 C224 1.427 . S
N228 C225 1.384 . S
N229 C221 1.427 . S
N229 C227 1.384 . S
H230 C236 0.930 . S
H231 C240 0.930 . S
H232 C245 0.929 . S
H233 C243 0.929 . S
H234 C238 0.929 . S
H235 C244 0.929 . S
C236 H230 0.930 . S
C236 C237 1.367 . S
C236 C244 1.378 . S
C237 C236 1.367 . S
C237 C245 1.433 1_565 S
C238 H234 0.929 . S
C238 C240 1.378 . S
C238 C242 1.350 . S
C239 C242 1.463 . S
C239 C244 1.350 1_545 S
C239 N247 1.427 . S
C240 H231 0.930 . S
C240 C238 1.378 . S
C240 C241 1.367 . S
C241 C240 1.367 . S
C241 C243 1.433 1_545 S
C242 C238 1.350 . S
C242 C239 1.463 . S
C242 N246 1.427 1_545 S
C243 H233 0.929 . S
C243 C241 1.433 1_565 S
C243 N246 1.384 . S
C244 H235 0.929 . S
C244 C236 1.378 . S
C244 C239 1.350 1_565 S
C245 H232 0.929 . S
C245 C237 1.433 1_545 S
C245 N247 1.384 . S
N246 C242 1.427 1_565 S
N246 C243 1.384 . S
N247 C239 1.427 . S
N247 C245 1.384 . S
H248 C254 0.930 . S
H249 C258 0.930 . S
H250 C263 0.929 . S
H251 C261 0.929 . S
H252 C256 0.929 . S
H253 C262 0.929 . S
C254 H248 0.930 . S
C254 C255 1.367 1_655 S
C254 C262 1.378 . S
C255 C254 1.367 1_455 S
C255 C263 1.433 1_565 S
C256 H252 0.929 . S
C256 C258 1.378 . S
C256 C260 1.350 . S
C257 C260 1.460 1_565 S
C257 C262 1.359 1_455 S
C257 N265 1.420 1_565 S
C258 H249 0.930 . S
C258 C256 1.378 . S
C258 C259 1.367 1_455 S
C259 C258 1.367 1_655 S
C259 C261 1.433 1_545 S
C260 C256 1.350 . S
C260 C257 1.460 1_545 S
C260 N264 1.427 1_445 S
C261 H251 0.929 . S
C261 C259 1.433 1_565 S
C261 N264 1.384 . S
C262 H253 0.929 . S
C262 C254 1.378 . S
C262 C257 1.359 1_655 S
C263 H250 0.929 . S
C263 C255 1.433 1_545 S
C263 N265 1.384 . S
N264 C260 1.427 1_665 S
N264 C261 1.384 . S
N265 C257 1.420 1_545 S
N265 C263 1.384 . S
H266 C272 0.930 . S
H267 C276 0.930 . S
H268 C281 0.929 . S
H269 C279 0.929 . S
H270 C274 0.929 . S
H271 C280 0.929 . S
C272 H266 0.930 . S
C272 C273 1.367 . S
C272 C280 1.378 . S
C273 C272 1.367 . S
C273 C281 1.433 . S
C274 H270 0.929 . S
C274 C276 1.378 . S
C274 C278 1.350 . S
C275 C278 1.463 . S
C275 C280 1.350 . S
C275 N283 1.427 . S
C276 H267 0.930 . S
C276 C274 1.378 . S
C276 C277 1.367 . S
C277 C276 1.367 . S
C277 C279 1.433 . S
C278 C274 1.350 . S
C278 C275 1.463 . S
C278 N282 1.427 . S
C279 H269 0.929 . S
C279 C277 1.433 . S
C279 N282 1.384 . S
C280 H271 0.929 . S
C280 C272 1.378 . S
C280 C275 1.350 . S
C281 H268 0.929 . S
C281 C273 1.433 . S
C281 N283 1.384 . S
N282 C278 1.427 . S
N282 C279 1.384 . S
N283 C275 1.427 . S
N283 C281 1.384 . S
H284 C290 0.930 . S
H285 C294 0.930 . S
H286 C299 0.929 . S
H287 C297 0.929 . S
H288 C292 0.929 . S
H289 C298 0.929 . S
C290 H284 0.930 . S
C290 C291 1.367 . S
C290 C298 1.378 . S
C291 C290 1.367 . S
C291 C299 1.433 . S
C292 H288 0.929 . S
C292 C294 1.378 . S
C292 C296 1.350 . S
C293 C296 1.463 . S
C293 C298 1.350 . S
C293 N301 1.427 . S
C294 H285 0.930 . S
C294 C292 1.378 . S
C294 C295 1.367 . S
C295 C294 1.367 . S
C295 C297 1.433 . S
C296 C292 1.350 . S
C296 C293 1.463 . S
C296 N300 1.427 . S
C297 H287 0.929 . S
C297 C295 1.433 . S
C297 N300 1.384 . S
C298 H289 0.929 . S
C298 C290 1.378 . S
C298 C293 1.350 . S
C299 H286 0.929 . S
C299 C291 1.433 . S
C299 N301 1.384 . S
N300 C296 1.427 . S
N300 C297 1.384 . S
N301 C293 1.427 . S
N301 C299 1.384 . S
C97 C79 1.323 . S
C93 C3 1.229 . S
C111 C4 1.449 1_556 S
C115 C74 1.530 . S
C129 C19 1.462 . S
C133 C85 1.544 . S
C147 C7 1.216 . S
C151 C68 1.340 . S
C165 C37 1.215 . S
C169 C57 1.333 . S
C183 C28 1.450 . S
C187 C52 1.528 1_655 S
C205 C63 1.537 . S
C201 C41 1.456 . S
C223 C46 1.332 . S
C219 C25 1.234 . S
C237 C20 1.359 . S
C241 C47 1.493 . S
C255 C16 1.394 1_455 S
C259 C58 1.535 . S
C277 C69 1.486 . S
C273 C40 1.349 . S
C291 C24 1.393 . S
C295 C80 1.533 . S
