# Generated by pormake.
# Topology nom, (4,4)-cn, num edge types: 1
# Building blocks:
#     Node 0, Type 0, BuildingBlock: GIZVER_clean_linker_0, # of connection points: 4
#     Node 1, Type 0, BuildingBlock: GIZVER_clean_linker_0, # of connection points: 4
#     Node 2, Type 0, BuildingBlock: GIZVER_clean_linker_0, # of connection points: 4
#     Node 3, Type 0, BuildingBlock: GIZVER_clean_linker_0, # of connection points: 4
#     Node 4, Type 0, BuildingBlock: GIZVER_clean_linker_0, # of connection points: 4
#     Node 5, Type 0, BuildingBlock: GIZVER_clean_linker_0, # of connection points: 4
#     Node 6, Type 1, BuildingBlock: QUQFOY_clean_sbu_3, # of connection points: 4
#     Node 7, Type 1, BuildingBlock: QUQFOY_clean_sbu_3, # of connection points: 4
#     Node 8, Type 1, BuildingBlock: QUQFOY_clean_sbu_3, # of connection points: 4
#     Node 9, Type 1, BuildingBlock: QUQFOY_clean_sbu_3, # of connection points: 4
#     Node 10, Type 1, BuildingBlock: QUQFOY_clean_sbu_3, # of connection points: 4
#     Node 11, Type 1, BuildingBlock: QUQFOY_clean_sbu_3, # of connection points: 4
#     Edge 12, Type (0, 1), BuildingBlock: CIFDUS_clean_linker_0, # of connection points: 2
#     Edge 13, Type (0, 1), BuildingBlock: CIFDUS_clean_linker_0, # of connection points: 2
#     Edge 14, Type (0, 1), BuildingBlock: CIFDUS_clean_linker_0, # of connection points: 2
#     Edge 15, Type (0, 1), BuildingBlock: CIFDUS_clean_linker_0, # of connection points: 2
#     Edge 16, Type (0, 1), BuildingBlock: CIFDUS_clean_linker_0, # of connection points: 2
#     Edge 17, Type (0, 1), BuildingBlock: CIFDUS_clean_linker_0, # of connection points: 2
#     Edge 18, Type (0, 1), BuildingBlock: CIFDUS_clean_linker_0, # of connection points: 2
#     Edge 19, Type (0, 1), BuildingBlock: CIFDUS_clean_linker_0, # of connection points: 2
#     Edge 20, Type (0, 1), BuildingBlock: CIFDUS_clean_linker_0, # of connection points: 2
#     Edge 21, Type (0, 1), BuildingBlock: CIFDUS_clean_linker_0, # of connection points: 2
#     Edge 22, Type (0, 1), BuildingBlock: CIFDUS_clean_linker_0, # of connection points: 2
#     Edge 23, Type (0, 1), BuildingBlock: CIFDUS_clean_linker_0, # of connection points: 2
#     Edge 24, Type (0, 1), BuildingBlock: CIFDUS_clean_linker_0, # of connection points: 2
#     Edge 25, Type (0, 1), BuildingBlock: CIFDUS_clean_linker_0, # of connection points: 2
#     Edge 26, Type (0, 1), BuildingBlock: CIFDUS_clean_linker_0, # of connection points: 2
#     Edge 27, Type (0, 1), BuildingBlock: CIFDUS_clean_linker_0, # of connection points: 2
#     Edge 28, Type (0, 1), BuildingBlock: CIFDUS_clean_linker_0, # of connection points: 2
#     Edge 29, Type (0, 1), BuildingBlock: CIFDUS_clean_linker_0, # of connection points: 2
#     Edge 30, Type (0, 1), BuildingBlock: CIFDUS_clean_linker_0, # of connection points: 2
#     Edge 31, Type (0, 1), BuildingBlock: CIFDUS_clean_linker_0, # of connection points: 2
#     Edge 32, Type (0, 1), BuildingBlock: CIFDUS_clean_linker_0, # of connection points: 2
#     Edge 33, Type (0, 1), BuildingBlock: CIFDUS_clean_linker_0, # of connection points: 2
#     Edge 34, Type (0, 1), BuildingBlock: CIFDUS_clean_linker_0, # of connection points: 2
#     Edge 35, Type (0, 1), BuildingBlock: CIFDUS_clean_linker_0, # of connection points: 2
# Relax obj value: 0.004
# Max RMSD: 0.070
# Mean RMSD: 0.046
data_MOF--net-nom--node1-QUQFOY_clean_sbu_3--node2-GIZVER_clean_linker_0--edge1-CIFDUS_clean_linker_0
_symmetry_space_group_name_H-M    P1
_symmetry_Int_Tables_number       1
_symmetry_cell_setting            triclinic
loop_
_symmetry_equiv_pos_as_xyz
'x, y, z'
_cell_length_a     40.920108
_cell_length_b     41.74327
_cell_length_c     42.212399
_cell_angle_alpha  89.284186
_cell_angle_beta   90.198878
_cell_angle_gamma 119.81956
loop_
_atom_site_label
_atom_site_type_symbol
_atom_site_fract_x
_atom_site_fract_y
_atom_site_fract_z
_atom_type_partial_charge
H0 H 0.94735 0.56366 0.34084 0.0
H1 H 0.99631 0.58007 0.24787 0.0
H2 H 0.88609 0.48796 0.26645 0.0
H3 H 1.00334 0.62031 0.32884 0.0
H4 H 0.01262 0.6332 0.28796 0.0
H5 H 0.02934 0.58096 0.35309 0.0
H6 H 0.13923 0.61086 0.31869 0.0
H7 H 0.06792 0.63885 0.26382 0.0
C8 C 0.94589 0.55434 0.31676 0.0
C9 C 0.91345 0.52237 0.30649 0.0
C10 C 0.97587 0.5752 0.29567 0.0
C11 C 0.97357 0.5636 0.26429 0.0
C12 C 0.94154 0.53169 0.25376 0.0
C13 C 0.91187 0.5112 0.27507 0.0
C14 C 0.00877 0.61154 0.30558 0.0
C15 C 0.04429 0.60919 0.30772 0.0
C16 C 0.05037 0.5925 0.33444 0.0
C17 C 0.08428 0.5923 0.33783 0.0
C18 C 0.1121 0.60875 0.31443 0.0
C19 C 0.107 0.62612 0.28772 0.0
C20 C 0.07246 0.62551 0.2842 0.0
H21 H 0.4055 0.94232 0.50452 0.0
H22 H 0.45644 1.00235 0.41838 0.0
H23 H 0.44384 0.89522 0.43379 0.0
H24 H 0.41299 1.00233 0.49732 0.0
H25 H 0.40767 0.01048 0.45659 0.0
H26 H 0.47637 0.03584 0.52262 0.0
H27 H 0.55375 0.14096 0.48116 0.0
H28 H 0.45761 0.06324 0.42798 0.0
C29 C 0.41979 0.94451 0.48239 0.0
C30 C 0.42258 0.91413 0.47145 0.0
C31 C 0.43336 0.97707 0.46376 0.0
C32 C 0.44845 0.97851 0.43361 0.0
C33 C 0.4513 0.94861 0.42227 0.0
C34 C 0.44069 0.91786 0.44225 0.0
C35 C 0.42715 0.0083 0.4738 0.0
C36 C 0.4636 0.04485 0.47477 0.0
C37 C 0.48556 0.05459 0.50239 0.0
C38 C 0.51828 0.08916 0.50457 0.0
C39 C 0.52962 0.11351 0.4786 0.0
C40 C 0.50815 0.1047 0.4508 0.0
C41 C 0.47496 0.07014 0.44901 0.0
H42 H 0.39696 0.44438 0.60139 0.0
H43 H 0.42004 0.4428 0.70059 0.0
H44 H 0.42355 0.53871 0.65846 0.0
H45 H 0.38219 0.38653 0.62883 0.0
H46 H 0.39015 0.38585 0.67043 0.0
H47 H 0.43478 0.40645 0.59063 0.0
H48 H 0.52997 0.39807 0.62274 0.0
H49 H 0.45075 0.39537 0.69049 0.0
C50 C 0.40534 0.45848 0.62385 0.0
C51 C 0.40965 0.49394 0.62667 0.0
C52 C 0.41016 0.44041 0.65037 0.0
C53 C 0.41872 0.45776 0.67992 0.0
C54 C 0.42289 0.49302 0.68317 0.0
C55 C 0.42027 0.51148 0.65607 0.0
C56 C 0.40282 0.40136 0.648 0.0
C57 C 0.4389 0.40126 0.64129 0.0
C58 C 0.45124 0.40414 0.60978 0.0
C59 C 0.48436 0.40343 0.60295 0.0
C60 C 0.5053 0.40042 0.62793 0.0
C61 C 0.49372 0.39779 0.65945 0.0
C62 C 0.46028 0.39805 0.66618 0.0
H63 H 0.97252 0.43419 0.75385 0.0
H64 H 0.99466 0.47431 0.84937 0.0
H65 H 0.88545 0.43619 0.80917 0.0
H66 H 0.02709 0.44056 0.7809 0.0
H67 H 0.02985 0.44627 0.82284 0.0
H68 H 0.04176 0.50065 0.7476 0.0
H69 H 0.14663 0.59201 0.77754 0.0
H70 H 0.08522 0.49782 0.83939 0.0
C71 C 0.96336 0.44162 0.77519 0.0
C72 C 0.92601 0.43454 0.77769 0.0
C73 C 0.98837 0.45624 0.80093 0.0
C74 C 0.97607 0.46457 0.82905 0.0
C75 C 0.93913 0.45809 0.8317 0.0
C76 C 0.91467 0.4437 0.80591 0.0
C77 C 0.02611 0.45799 0.80019 0.0
C78 C 0.05825 0.49694 0.79536 0.0
C79 C 0.06258 0.51457 0.76592 0.0
C80 C 0.09534 0.54811 0.75891 0.0
C81 C 0.12205 0.56563 0.78283 0.0
C82 C 0.11992 0.54736 0.81168 0.0
C83 C 0.08722 0.51319 0.81796 0.0
H84 H 0.62567 0.07371 0.00955 0.0
H85 H 0.6027 0.04261 0.91166 0.0
H86 H 0.59761 0.13669 0.94496 0.0
H87 H 0.64388 0.03143 -0.01284 0.0
H88 H 0.63958 0.02274 0.94557 0.0
H89 H 0.59063 0.99486 0.02321 0.0
H90 H 0.50181 0.89175 -0.01166 0.0
H91 H 0.58143 0.97199 0.92317 0.0
C92 C 0.61696 0.07766 -0.01377 0.0
C93 C 0.61045 0.10727 -0.01942 0.0
C94 C 0.61397 0.0541 0.96143 0.0
C95 C 0.60402 0.06011 0.93096 0.0
C96 C 0.59749 0.08959 0.92501 0.0
C97 C 0.60016 0.1125 0.95002 0.0
C98 C 0.62439 0.02454 0.96669 0.0
C99 C 0.58962 0.98773 0.97254 0.0
C100 C 0.576 0.97675 0.00363 0.0
C101 C 0.54409 0.94219 0.00952 0.0
C102 C 0.52546 0.91919 -0.01607 0.0
C103 C 0.53851 0.92972 0.95284 0.0
C104 C 0.57077 0.96401 0.94713 0.0
H105 H 0.61695 0.55554 0.10781 0.0
H106 H 0.55804 0.5407 0.19539 0.0
H107 H 0.57772 0.45514 0.1623 0.0
H108 H 0.61113 0.60514 0.12714 0.0
H109 H 0.60576 0.60493 0.16898 0.0
H110 H 0.56065 0.59702 0.0921 0.0
H111 H 0.46361 0.59528 0.13249 0.0
H112 H 0.54512 0.59057 0.19339 0.0
C113 C 0.60117 0.53779 0.12753 0.0
C114 C 0.59931 0.50339 0.132 0.0
C115 C 0.5852 0.55088 0.14984 0.0
C116 C 0.56807 0.52966 0.17719 0.0
C117 C 0.56629 0.49553 0.1823 0.0
C118 C 0.57974 0.48174 0.15861 0.0
C119 C 0.59162 0.58976 0.14706 0.0
C120 C 0.55517 0.59025 0.143 0.0
C121 C 0.54334 0.59414 0.11249 0.0
C122 C 0.51103 0.59747 0.10874 0.0
C123 C 0.48891 0.59333 0.13537 0.0
C124 C 0.50129 0.59178 0.16597 0.0
C125 C 0.53457 0.59027 0.16975 0.0
C126 C 0.71654 0.45704 0.39168 0.0
O127 O 0.70782 0.47721 0.40779 0.0
Cd128 Cd 0.64753 0.46303 0.42623 0.0
O129 O 0.69149 0.42427 0.38399 0.0
Cd130 Cd 0.62125 0.38202 0.39308 0.0
C131 C 0.6026 0.4423 0.35329 0.0
O132 O 0.62353 0.40262 0.4462 0.0
O133 O 0.56752 0.37001 0.42828 0.0
O134 O 0.63388 0.33075 0.39891 0.0
C135 C 0.58858 0.38762 0.45122 0.0
O136 O 0.61533 0.46279 0.37752 0.0
C137 C 0.60382 0.30679 0.38563 0.0
O138 O 0.60295 0.41195 0.35171 0.0
O139 O 0.58268 0.31817 0.37406 0.0
C140 C 0.27706 0.55172 0.53702 0.0
O141 O 0.24523 0.53019 0.52485 0.0
Cd142 Cd 0.19538 0.54246 0.51493 0.0
O143 O 0.28625 0.585 0.54361 0.0
Cd144 Cd 0.25624 0.62524 0.53688 0.0
C145 C 0.18772 0.57296 0.58917 0.0
O146 O 0.22038 0.59976 0.48855 0.0
O147 O 0.2032 0.63121 0.51725 0.0
O148 O 0.30903 0.67316 0.50808 0.0
C149 C 0.19946 0.61389 0.49185 0.0
O150 O 0.17526 0.54943 0.567 0.0
C151 C 0.31379 0.70027 0.5247 0.0
O152 O 0.2186 0.60347 0.58606 0.0
O153 O 0.29387 0.69253 0.54971 0.0
C154 C 0.72751 0.29762 0.70518 0.0
O155 O 0.72699 0.27072 0.69098 0.0
Cd156 Cd 0.6714 0.213 0.68031 0.0
O157 O 0.69691 0.29562 0.71457 0.0
Cd158 Cd 0.62758 0.25113 0.71358 0.0
C159 C 0.63732 0.18689 0.75621 0.0
O160 O 0.62513 0.22697 0.66061 0.0
O161 O 0.57441 0.19889 0.68874 0.0
O162 O 0.61897 0.30457 0.70536 0.0
C163 C 0.59099 0.20159 0.66278 0.0
O164 O 0.65188 0.18162 0.7316 0.0
C165 C 0.59144 0.29383 0.72444 0.0
O166 O 0.628 0.21184 0.75668 0.0
O167 O 0.58161 0.26391 0.73958 0.0
C168 C 0.32174 0.60851 0.88621 0.0
O169 O 0.31876 0.58315 0.90487 0.0
Cd170 Cd 0.37443 0.57939 0.91616 0.0
O171 O 0.35411 0.63422 0.87742 0.0
Cd172 Cd 0.42193 0.6573 0.88726 0.0
C173 C 0.4085 0.58911 0.84019 0.0
O174 O 0.421 0.6351 0.94065 0.0
O175 O 0.46787 0.64283 0.9116 0.0
O176 O 0.42827 0.7172 0.89726 0.0
C177 C 0.45277 0.63685 0.9388 0.0
O178 O 0.39474 0.56809 0.86443 0.0
C179 C 0.45865 0.73584 0.88173 0.0
O180 O 0.41852 0.62318 0.84114 0.0
O181 O 0.47199 0.71789 0.86801 0.0
C182 C 0.7361 0.43966 0.0555 0.0
O183 O 0.76092 0.46555 0.03846 0.0
Cd184 Cd 0.81712 0.46554 0.02169 0.0
O185 O 0.73786 0.41049 0.06123 0.0
Cd186 Cd 0.77577 0.38153 0.04606 0.0
C187 C 0.84456 0.44331 0.09223 0.0
O188 O 0.79937 0.40986 -0.00617 0.0
O189 O 0.82787 0.38417 0.01678 0.0
O190 O 0.71869 0.32321 0.0348 0.0
C191 C 0.82458 0.40062 -0.00736 0.0
O192 O 0.85076 0.46734 0.07065 0.0
C193 C 0.72839 0.30337 0.0509 0.0
O194 O 0.81748 0.41034 0.08989 0.0
O195 O 0.75951 0.32005 0.06553 0.0
C196 C 0.31537 0.74704 0.22181 0.0
O197 O 0.32082 0.77749 0.21005 0.0
Cd198 Cd 0.37998 0.82746 0.19249 0.0
O199 O 0.3429 0.74118 0.2262 0.0
Cd200 Cd 0.41285 0.77466 0.21776 0.0
C201 C 0.43026 0.84943 0.26166 0.0
O202 O 0.40749 0.7966 0.16589 0.0
O203 O 0.46433 0.81738 0.18161 0.0
O204 O 0.40824 0.71402 0.21208 0.0
C205 C 0.44224 0.81632 0.16006 0.0
O206 O 0.41531 0.85918 0.23984 0.0
C207 C 0.4375 0.72204 0.2283 0.0
O208 O 0.43046 0.8191 0.2601 0.0
O209 O 0.45464 0.75408 0.24007 0.0
H210 H 0.16205 0.61158 0.26862 0.0
H211 H 0.12721 0.69351 0.26044 0.0
H212 H 0.18764 0.73687 0.23654 0.0
H213 H 0.25305 0.7544 0.2246 0.0
H214 H 0.2902 0.6748 0.23822 0.0
H215 H 0.22663 0.62821 0.25449 0.0
C216 C 0.16756 0.6389 0.26157 0.0
C217 C 0.14007 0.64925 0.26686 0.0
C218 C 0.20321 0.66452 0.24958 0.0
C219 C 0.14744 0.68442 0.25654 0.0
C220 C 0.18234 0.70955 0.24329 0.0
C221 C 0.24727 0.7268 0.23091 0.0
C222 C 0.27653 0.71827 0.23049 0.0
C223 C 0.21085 0.70034 0.24079 0.0
C224 C 0.26838 0.68229 0.23868 0.0
C225 C 0.23198 0.65557 0.24785 0.0
H226 H 0.57793 0.15165 0.42731 0.0
H227 H 0.46208 0.12543 0.42046 0.0
H228 H 0.4818 0.18455 0.39363 0.0
H229 H 0.53256 0.2482 0.38197 0.0
H230 H 0.64838 0.27618 0.39478 0.0
H231 H 0.62826 0.21224 0.40946 0.0
C232 C 0.55693 0.15858 0.41935 0.0
C233 C 0.51864 0.1344 0.42641 0.0
C234 C 0.56862 0.19342 0.40558 0.0
C235 C 0.49172 0.14341 0.41535 0.0
C236 C 0.50306 0.17751 0.40038 0.0
C237 C 0.5534 0.24006 0.38716 0.0
C238 C 0.59192 0.26698 0.38759 0.0
C239 C 0.54152 0.20346 0.39683 0.0
C240 C 0.61858 0.25606 0.39454 0.0
C241 C 0.60708 0.21951 0.40301 0.0
H242 H 0.34712 0.45825 0.59024 0.0
H243 H 0.44146 0.56669 0.60752 0.0
H244 H 0.40964 0.59483 0.57929 0.0
H245 H 0.35098 0.58859 0.55635 0.0
H246 H 0.25808 0.47937 0.53805 0.0
H247 H 0.29369 0.45189 0.55949 0.0
C248 C 0.36146 0.48798 0.58689 0.0
C249 C 0.39633 0.51025 0.60162 0.0
C250 C 0.34289 0.50401 0.57089 0.0
C251 C 0.41421 0.54883 0.59704 0.0
C252 C 0.39597 0.56499 0.58098 0.0
C253 C 0.33876 0.55882 0.55667 0.0
C254 C 0.30156 0.53621 0.54613 0.0
C255 C 0.35955 0.54289 0.56901 0.0
C256 C 0.28646 0.49763 0.54626 0.0
C257 C 0.3068 0.48173 0.55857 0.0
H258 H 0.86574 0.44127 0.75867 0.0
H259 H 0.91936 0.37595 0.74369 0.0
H260 H 0.86391 0.33019 0.71565 0.0
H261 H 0.79681 0.30372 0.70337 0.0
H262 H 0.74066 0.36538 0.72431 0.0
H263 H 0.80003 0.41694 0.74275 0.0
C264 C 0.86546 0.41715 0.74909 0.0
C265 C 0.89665 0.41196 0.7539 0.0
C266 C 0.83256 0.38972 0.73473 0.0
C267 C 0.8961 0.38106 0.74035 0.0
C268 C 0.86405 0.35446 0.72468 0.0
C269 C 0.79762 0.32864 0.71151 0.0
C270 C 0.76419 0.33048 0.71279 0.0
C271 C 0.83159 0.35774 0.72298 0.0
C272 C 0.76584 0.36303 0.72342 0.0
C273 C 0.79981 0.39256 0.73392 0.0
H274 H 0.57004 0.89983 0.91582 0.0
H275 H 0.46507 0.89624 0.93573 0.0
H276 H 0.43027 0.83639 0.91003 0.0
H277 H 0.42946 0.78029 0.89241 0.0
H278 H 0.53412 0.78254 0.87377 0.0
H279 H 0.56938 0.8478 0.88797 0.0
C280 C 0.5397 0.88659 0.91324 0.0
C281 C 0.51999 0.90204 0.92778 0.0
C282 C 0.51982 0.85155 0.89941 0.0
C283 C 0.48066 0.88463 0.92467 0.0
C284 C 0.46078 0.85027 0.91032 0.0
C285 C 0.45997 0.79534 0.89076 0.0
C286 C 0.47924 0.77657 0.88278 0.0
C287 C 0.47997 0.83262 0.89928 0.0
C288 C 0.51869 0.79641 0.88012 0.0
C289 C 0.53887 0.83367 0.88839 0.0
H290 H 0.63316 0.46361 0.14984 0.0
H291 H 0.61775 0.51839 0.06826 0.0
H292 H 0.65896 0.5039 0.03726 0.0
H293 H 0.70085 0.47672 0.03392 0.0
H294 H 0.70793 0.4154 0.11417 0.0
H295 H 0.66659 0.42991 0.14464 0.0
C296 C 0.6372 0.47135 0.12499 0.0
C297 C 0.62173 0.49204 0.11167 0.0
C298 C 0.65941 0.46155 0.10693 0.0
C299 C 0.62951 0.503 0.0796 0.0
C300 C 0.65289 0.49445 0.06168 0.0
C301 C 0.6929 0.46626 0.05796 0.0
C302 C 0.70754 0.44521 0.07189 0.0
C303 C 0.66829 0.474 0.07522 0.0
C304 C 0.69686 0.43148 0.10291 0.0
C305 C 0.67342 0.43995 0.12041 0.0
H306 H 0.39003 0.84625 0.44421 0.0
H307 H 0.4095 0.89723 0.53596 0.0
H308 H 0.37732 0.8358 0.56115 0.0
H309 H 0.3437 0.76671 0.55656 0.0
H310 H 0.33469 0.71989 0.46402 0.0
H311 H 0.36497 0.78093 0.44006 0.0
C312 C 0.38897 0.84465 0.46984 0.0
C313 C 0.40336 0.87704 0.48794 0.0
C314 C 0.3725 0.80966 0.48418 0.0
C315 C 0.39881 0.87314 0.52112 0.0
C316 C 0.38065 0.83791 0.53562 0.0
C317 C 0.34889 0.77005 0.53125 0.0
C318 C 0.33679 0.73856 0.51219 0.0
C319 C 0.36744 0.80584 0.51734 0.0
C320 C 0.34381 0.7434 0.4794 0.0
C321 C 0.36093 0.77839 0.46553 0.0
H322 H 0.46914 0.33833 0.69886 0.0
H323 H 0.56789 0.44076 0.67272 0.0
H324 H 0.60835 0.41902 0.69561 0.0
H325 H 0.61528 0.36606 0.71214 0.0
H326 H 0.5168 0.2633 0.73831 0.0
H327 H 0.47663 0.28997 0.7268 0.0
C328 C 0.49943 0.35644 0.69955 0.0
C329 C 0.51563 0.39086 0.68386 0.0
C330 C 0.52258 0.34328 0.71197 0.0
C331 C 0.55492 0.41408 0.68463 0.0
C332 C 0.57806 0.40148 0.69735 0.0
C333 C 0.58512 0.34987 0.71611 0.0
C334 C 0.56891 0.31261 0.72539 0.0
C335 C 0.56221 0.36534 0.70934 0.0
C336 C 0.5299 0.29202 0.73097 0.0
C337 C 0.50687 0.3072 0.72422 0.0
H338 H 0.19397 0.58675 0.79338 0.0
H339 H 0.12434 0.53773 0.87655 0.0
H340 H 0.18063 0.55271 0.90746 0.0
H341 H 0.24981 0.57685 0.9098 0.0
H342 H 0.31767 0.63233 0.8274 0.0
H343 H 0.26147 0.61934 0.79772 0.0
C344 C 0.19046 0.58052 0.81851 0.0
C345 C 0.1542 0.5609 0.83223 0.0
C346 C 0.22286 0.59054 0.83644 0.0
C347 C 0.15146 0.55205 0.86482 0.0
C348 C 0.18377 0.56089 0.88269 0.0
C349 C 0.25219 0.58655 0.88551 0.0
C350 C 0.28781 0.60525 0.87073 0.0
C351 C 0.21962 0.57957 0.86856 0.0
C352 C 0.29065 0.61801 0.83936 0.0
C353 C 0.25849 0.61038 0.82227 0.0
H354 H 0.67247 0.1391 0.01816 0.0
H355 H 0.57158 0.14279 -0.00485 0.0
H356 H 0.59797 0.2036 0.01905 0.0
H357 H 0.65428 0.25995 0.037 0.0
H358 H 0.75458 0.25566 0.06101 0.0
H359 H 0.72355 0.19056 0.04682 0.0
C360 C 0.6556 0.15248 0.01949 0.0
C361 C 0.62053 0.13688 0.00415 0.0
C362 C 0.67116 0.18768 0.03289 0.0
C363 C 0.59905 0.15466 0.00617 0.0
C364 C 0.61418 0.18951 0.01969 0.0
C365 C 0.669 0.24449 0.03978 0.0
C366 C 0.70687 0.26269 0.04932 0.0
C367 C 0.65101 0.20708 0.03153 0.0
C368 C 0.72547 0.24229 0.05344 0.0
C369 C 0.7078 0.20509 0.04519 0.0
H370 H 0.53568 0.64906 0.20583 0.0
H371 H 0.42711 0.55673 0.18303 0.0
H372 H 0.39597 0.58823 0.20564 0.0
H373 H 0.40103 0.64778 0.21926 0.0
H374 H 0.50993 0.74052 0.2412 0.0
H375 H 0.53951 0.70315 0.23185 0.0
C376 C 0.50518 0.63505 0.20736 0.0
C377 C 0.48368 0.60099 0.1923 0.0
C378 C 0.48759 0.65402 0.21919 0.0
C379 C 0.44417 0.58311 0.19435 0.0
C380 C 0.4264 0.6014 0.20678 0.0
C381 C 0.4311 0.65949 0.22274 0.0
C382 C 0.4534 0.69708 0.23003 0.0
C383 C 0.44799 0.63785 0.21719 0.0
C384 C 0.4922 0.71175 0.23517 0.0
C385 C 0.50918 0.69041 0.22975 0.0
H386 H 0.88396 0.55382 0.34426 0.0
H387 H 0.86471 0.44787 0.31291 0.0
H388 H 0.80216 0.41764 0.33731 0.0
H389 H 0.75078 0.42218 0.36375 0.0
H390 H 0.77184 0.5288 0.39548 0.0
H391 H 0.83574 0.55753 0.37513 0.0
C392 C 0.86659 0.524 0.3435 0.0
C393 C 0.87896 0.50325 0.32655 0.0
C394 C 0.83061 0.50684 0.35733 0.0
C395 C 0.85568 0.46461 0.32546 0.0
C396 C 0.81986 0.44729 0.33937 0.0
C397 C 0.76943 0.45164 0.36637 0.0
C398 C 0.75617 0.47321 0.38083 0.0
C399 C 0.80659 0.46827 0.35463 0.0
C400 C 0.781 0.51136 0.38434 0.0
C401 C 0.81771 0.52797 0.37269 0.0
H402 H 0.08596 0.6202 0.39519 0.0
H403 H 0.10827 0.54273 0.34689 0.0
H404 H 0.14373 0.5399 0.39261 0.0
H405 H 0.17624 0.56699 0.44238 0.0
H406 H 0.15657 0.64708 0.48948 0.0
H407 H 0.11213 0.64143 0.44817 0.0
C408 C 0.09741 0.60167 0.39527 0.0
C409 C 0.09462 0.58162 0.36799 0.0
C410 C 0.11904 0.60149 0.421 0.0
C411 C 0.11007 0.55819 0.36788 0.0
C412 C 0.13065 0.55695 0.3938 0.0
C413 C 0.16196 0.58295 0.44374 0.0
C414 C 0.17016 0.60793 0.46854 0.0
C415 C 0.13673 0.57977 0.41983 0.0
C416 C 0.15101 0.62796 0.47036 0.0
C417 C 0.12557 0.62471 0.44681 0.0
H418 H 0.48624 0.08862 0.56047 0.0
H419 H 0.5937 0.12302 0.51631 0.0
H420 H 0.62622 0.16018 0.56252 0.0
H421 H 0.62361 0.1882 0.61262 0.0
H422 H 0.51588 0.15425 0.65632 0.0
H423 H 0.48387 0.11157 0.61311 0.0
C424 C 0.51678 0.10329 0.56145 0.0
C425 C 0.53762 0.1032 0.53514 0.0
C426 C 0.53516 0.12533 0.58764 0.0
C427 C 0.57717 0.1228 0.5364 0.0
C428 C 0.59571 0.14425 0.56264 0.0
C429 C 0.59314 0.17135 0.6127 0.0
C430 C 0.57208 0.17476 0.63729 0.0
C431 C 0.57494 0.14675 0.58787 0.0
C432 C 0.53268 0.15231 0.63746 0.0
C433 C 0.51436 0.12785 0.61282 0.0
H434 H 0.38904 0.53129 0.70196 0.0
H435 H 0.45981 0.48894 0.73675 0.0
H436 H 0.45989 0.51307 0.78936 0.0
H437 H 0.44033 0.54743 0.82522 0.0
H438 H 0.37645 0.59556 0.78696 0.0
H439 H 0.3742 0.56884 0.73536 0.0
C440 C 0.40558 0.52816 0.72058 0.0
C441 C 0.4249 0.50874 0.71505 0.0
C442 C 0.40672 0.54321 0.75016 0.0
C443 C 0.44451 0.5036 0.74025 0.0
C444 C 0.44475 0.51757 0.77031 0.0
C445 C 0.42604 0.55193 0.80544 0.0
C446 C 0.40843 0.57313 0.80955 0.0
C447 C 0.42595 0.53747 0.77552 0.0
C448 C 0.39025 0.57935 0.784 0.0
C449 C 0.3889 0.56406 0.75463 0.0
H450 H 0.94204 0.42501 0.88597 0.0
H451 H 0.89831 0.4915 0.84587 0.0
H452 H 0.8595 0.48066 0.89318 0.0
H453 H 0.83353 0.44708 0.94344 0.0
H454 H 0.8763 0.37905 -0.01759 0.0
H455 H 0.9199 0.39558 0.93799 0.0
C456 C 0.92489 0.43805 0.88807 0.0
C457 C 0.92308 0.45917 0.86271 0.0
C458 C 0.90188 0.43071 0.91478 0.0
C459 C 0.90015 0.47527 0.8653 0.0
C460 C 0.87777 0.4688 0.89216 0.0
C461 C 0.85247 0.43598 0.94222 0.0
C462 C 0.85137 0.41154 0.96595 0.0
C463 C 0.87753 0.4456 0.91659 0.0
C464 C 0.8764 0.39772 0.9643 0.0
C465 C 0.90143 0.40722 0.93896 0.0
H466 H 0.47248 0.9048 0.03166 0.0
H467 H 0.58779 0.94646 0.06033 0.0
H468 H 0.56641 0.91236 0.11054 0.0
H469 H 0.51481 0.86571 0.14379 0.0
H470 H 0.39974 0.82173 0.11298 0.0
H471 H 0.42123 0.86099 0.06574 0.0
C472 C 0.49294 0.90662 0.04901 0.0
C473 C 0.53161 0.92779 0.04216 0.0
C474 C 0.48049 0.88588 0.07714 0.0
C475 C 0.55783 0.93055 0.06511 0.0
C476 C 0.54562 0.91067 0.09364 0.0
C477 C 0.49447 0.8648 0.12675 0.0
C478 C 0.45578 0.84056 0.13172 0.0
C479 C 0.50702 0.88738 0.09948 0.0
C480 C 0.42972 0.8399 0.10959 0.0
C481 C 0.44194 0.86245 0.08261 0.0
H482 H 0.58754 0.53036 0.2387 0.0
H483 H 0.52866 0.42143 0.19843 0.0
H484 H 0.53261 0.39451 0.24905 0.0
H485 H 0.56059 0.40319 0.30247 0.0
H486 H 0.61749 0.51255 0.34216 0.0
H487 H 0.60563 0.53777 0.29413 0.0
C488 C 0.5742 0.50059 0.24109 0.0
C489 C 0.55846 0.47811 0.21446 0.0
C490 C 0.57675 0.48535 0.27011 0.0
C491 C 0.54177 0.43955 0.2183 0.0
C492 C 0.54406 0.42411 0.24724 0.0
C493 C 0.56995 0.43245 0.30072 0.0
C494 C 0.59054 0.45599 0.32566 0.0
C495 C 0.56294 0.44695 0.27292 0.0
C496 C 0.60187 0.49376 0.32327 0.0
C497 C 0.59516 0.5083 0.29575 0.0
H498 H 0.48973 0.91772 0.39538 0.0
H499 H 0.42576 0.97148 0.37166 0.0
H500 H 0.41889 0.94988 0.31757 0.0
H501 H 0.4199 0.90582 0.28036 0.0
H502 H 0.4766 0.84552 0.30631 0.0
H503 H 0.49633 0.87856 0.35625 0.0
C504 C 0.4746 0.92505 0.37831 0.0
C505 C 0.45757 0.94548 0.38799 0.0
C506 C 0.46838 0.91035 0.34777 0.0
C507 C 0.43933 0.95589 0.36514 0.0
C508 C 0.43477 0.94299 0.33419 0.0
C509 C 0.43706 0.9003 0.29671 0.0
C510 C 0.44613 0.87275 0.28989 0.0
C511 C 0.44739 0.91859 0.32579 0.0
C512 C 0.46862 0.86612 0.31124 0.0
C513 C 0.48005 0.8851 0.33977 0.0
H514 H 0.555 0.44104 0.5792 0.0
H515 H 0.44059 0.36345 0.55305 0.0
H516 H 0.46261 0.35305 0.50242 0.0
H517 H 0.51522 0.36114 0.46831 0.0
H518 H 0.62961 0.43542 0.49748 0.0
H519 H 0.60679 0.45112 0.54462 0.0
C520 C 0.53484 0.42201 0.56232 0.0
C521 C 0.49633 0.40271 0.56999 0.0
C522 C 0.54779 0.41493 0.53412 0.0
C523 C 0.47041 0.37881 0.54763 0.0
C524 C 0.48304 0.37248 0.51887 0.0
C525 C 0.53508 0.38081 0.48497 0.0
C526 C 0.57402 0.39679 0.47956 0.0
C527 C 0.52177 0.38952 0.51233 0.0
C528 C 0.59948 0.42241 0.50124 0.0
C529 C 0.58649 0.43159 0.52814 0.0
H530 H 0.08707 0.50379 0.71007 0.0
H531 H 0.13176 0.61854 0.73302 0.0
H532 H 0.16498 0.63689 0.68208 0.0
H533 H 0.1858 0.61985 0.63305 0.0
H534 H 0.13928 0.50442 0.61139 0.0
H535 H 0.10222 0.48693 0.65985 0.0
C536 C 0.1029 0.53285 0.70362 0.0
C537 C 0.1069 0.5597 0.72545 0.0
C538 C 0.12234 0.54312 0.67475 0.0
C539 C 0.12839 0.59726 0.71674 0.0
C540 C 0.14759 0.60777 0.68772 0.0
C541 C 0.16754 0.59093 0.63905 0.0
C542 C 0.16566 0.56351 0.61884 0.0
C543 C 0.14575 0.5809 0.66697 0.0
C544 C 0.14138 0.52611 0.62657 0.0
C545 C 0.12007 0.51601 0.65425 0.0
H546 H 0.63892 0.09349 0.87363 0.0
H547 H 0.54887 0.11188 0.90337 0.0
H548 H 0.55267 0.14314 0.85303 0.0
H549 H 0.58574 0.17031 0.80286 0.0
H550 H 0.67487 0.15067 0.77277 0.0
H551 H 0.66709 0.11454 0.82096 0.0
C552 C 0.61935 0.10333 0.86874 0.0
C553 C 0.59386 0.10064 0.89226 0.0
C554 C 0.622 0.12161 0.83996 0.0
C555 C 0.56902 0.11399 0.8857 0.0
C556 C 0.57128 0.13198 0.85702 0.0
C557 C 0.60338 0.15803 0.80686 0.0
C558 C 0.63123 0.16362 0.78461 0.0
C559 C 0.59848 0.13697 0.83442 0.0
C560 C 0.65338 0.14693 0.78969 0.0
C561 C 0.64894 0.12626 0.81721 0.0
H562 H 0.51566 0.57746 0.04757 0.0
H563 H 0.48919 0.64882 0.10179 0.0
H564 H 0.46854 0.66654 0.05429 0.0
H565 H 0.45494 0.66 -0.00218 0.0
H566 H 0.48701 0.59489 0.94129 0.0
H567 H 0.50906 0.57696 -0.01105 0.0
C568 C 0.50575 0.59714 0.04887 0.0
C569 C 0.50249 0.61044 0.07849 0.0
C570 C 0.49488 0.60837 0.02106 0.0
C571 C 0.49029 0.63661 0.07961 0.0
C572 C 0.4788 0.64718 0.05239 0.0
C573 C 0.46697 0.64204 -0.00399 0.0
C574 C 0.46903 0.62835 0.96649 0.0
C575 C 0.48027 0.63271 0.02314 0.0
C576 C 0.48521 0.60566 0.96404 0.0
C577 C 0.49766 0.59535 -0.00877 0.0
H578 H 0.91241 0.46346 0.22871 0.0
H579 H 0.95776 0.57815 0.2027 0.0
H580 H 0.93586 0.56078 0.14845 0.0
H581 H 0.89536 0.51275 0.111 0.0
H582 H 0.84575 0.39791 0.13866 0.0
H583 H 0.87741 0.41561 0.18968 0.0
C584 C 0.9179 0.48465 0.21102 0.0
C585 C 0.93616 0.52193 0.21979 0.0
C586 C 0.9038 0.47442 0.18032 0.0
C587 C 0.94388 0.54922 0.19655 0.0
C588 C 0.93096 0.53929 0.16559 0.0
C589 C 0.89191 0.49158 0.128 0.0
C590 C 0.86769 0.45411 0.12125 0.0
C591 C 0.90955 0.50192 0.1576 0.0
C592 C 0.86375 0.427 0.14344 0.0
C593 C 0.8819 0.43706 0.17263 0.0
loop_
_geom_bond_atom_site_label_1
_geom_bond_atom_site_label_2
_geom_bond_distance
_geom_bond_site_symmetry_2
_ccdc_geom_bond_type
H0 C8 0.930 . S
H1 C11 0.930 . S
H2 C13 0.930 . S
H3 C14 0.970 . S
H4 C14 0.970 . S
H5 C16 0.930 . S
H6 C18 0.930 . S
H7 C20 0.930 . S
C8 H0 0.930 . S
C8 C9 1.382 . S
C8 C10 1.426 . S
C9 C8 1.382 . S
C9 C13 1.389 . S
C10 C8 1.426 . S
C10 C11 1.375 . S
C10 C14 1.532 1_655 S
C11 H1 0.930 . S
C11 C10 1.375 . S
C11 C12 1.416 . S
C12 C11 1.416 . S
C12 C13 1.371 . S
C13 H2 0.930 . S
C13 C9 1.389 . S
C13 C12 1.371 . S
C14 H3 0.970 . S
C14 H4 0.970 . S
C14 C10 1.532 1_455 S
C14 C15 1.499 . S
C15 C14 1.499 . S
C15 C16 1.370 . S
C15 C20 1.415 . S
C16 H5 0.930 . S
C16 C15 1.370 . S
C16 C17 1.407 . S
C17 C16 1.407 . S
C17 C18 1.365 . S
C18 H6 0.930 . S
C18 C17 1.365 . S
C18 C19 1.393 . S
C19 C18 1.393 . S
C19 C20 1.387 . S
C20 H7 0.930 . S
C20 C15 1.415 . S
C20 C19 1.387 . S
H21 C29 0.930 . S
H22 C32 0.930 . S
H23 C34 0.930 . S
H24 C35 0.970 . S
H25 C35 0.970 . S
H26 C37 0.930 . S
H27 C39 0.930 . S
H28 C41 0.930 . S
C29 H21 0.930 . S
C29 C30 1.382 . S
C29 C31 1.426 . S
C30 C29 1.382 . S
C30 C34 1.389 . S
C31 C29 1.426 . S
C31 C32 1.375 . S
C31 C35 1.532 1_565 S
C32 H22 0.930 . S
C32 C31 1.375 . S
C32 C33 1.416 . S
C33 C32 1.416 . S
C33 C34 1.371 . S
C34 H23 0.930 . S
C34 C30 1.389 . S
C34 C33 1.371 . S
C35 H24 0.970 . S
C35 H25 0.970 . S
C35 C31 1.532 1_545 S
C35 C36 1.499 . S
C36 C35 1.499 . S
C36 C37 1.370 . S
C36 C41 1.415 . S
C37 H26 0.930 . S
C37 C36 1.370 . S
C37 C38 1.407 . S
C38 C37 1.407 . S
C38 C39 1.365 . S
C39 H27 0.930 . S
C39 C38 1.365 . S
C39 C40 1.393 . S
C40 C39 1.393 . S
C40 C41 1.387 . S
C41 H28 0.930 . S
C41 C36 1.415 . S
C41 C40 1.387 . S
H42 C50 0.930 . S
H43 C53 0.930 . S
H44 C55 0.930 . S
H45 C56 0.970 . S
H46 C56 0.970 . S
H47 C58 0.930 . S
H48 C60 0.930 . S
H49 C62 0.930 . S
C50 H42 0.930 . S
C50 C51 1.382 . S
C50 C52 1.426 . S
C51 C50 1.382 . S
C51 C55 1.389 . S
C52 C50 1.426 . S
C52 C53 1.375 . S
C52 C56 1.532 . S
C53 H43 0.930 . S
C53 C52 1.375 . S
C53 C54 1.416 . S
C54 C53 1.416 . S
C54 C55 1.371 . S
C55 H44 0.930 . S
C55 C51 1.389 . S
C55 C54 1.371 . S
C56 H45 0.970 . S
C56 H46 0.970 . S
C56 C52 1.532 . S
C56 C57 1.499 . S
C57 C56 1.499 . S
C57 C58 1.370 . S
C57 C62 1.415 . S
C58 H47 0.930 . S
C58 C57 1.370 . S
C58 C59 1.407 . S
C59 C58 1.407 . S
C59 C60 1.365 . S
C60 H48 0.930 . S
C60 C59 1.365 . S
C60 C61 1.393 . S
C61 C60 1.393 . S
C61 C62 1.387 . S
C62 H49 0.930 . S
C62 C57 1.415 . S
C62 C61 1.387 . S
H63 C71 0.930 . S
H64 C74 0.930 . S
H65 C76 0.930 . S
H66 C77 0.970 . S
H67 C77 0.970 . S
H68 C79 0.930 . S
H69 C81 0.930 . S
H70 C83 0.930 . S
C71 H63 0.930 . S
C71 C72 1.382 . S
C71 C73 1.426 . S
C72 C71 1.382 . S
C72 C76 1.389 . S
C73 C71 1.426 . S
C73 C74 1.375 . S
C73 C77 1.532 1_655 S
C74 H64 0.930 . S
C74 C73 1.375 . S
C74 C75 1.416 . S
C75 C74 1.416 . S
C75 C76 1.371 . S
C76 H65 0.930 . S
C76 C72 1.389 . S
C76 C75 1.371 . S
C77 H66 0.970 . S
C77 H67 0.970 . S
C77 C73 1.532 1_455 S
C77 C78 1.499 . S
C78 C77 1.499 . S
C78 C79 1.370 . S
C78 C83 1.415 . S
C79 H68 0.930 . S
C79 C78 1.370 . S
C79 C80 1.407 . S
C80 C79 1.407 . S
C80 C81 1.365 . S
C81 H69 0.930 . S
C81 C80 1.365 . S
C81 C82 1.393 . S
C82 C81 1.393 . S
C82 C83 1.387 . S
C83 H70 0.930 . S
C83 C78 1.415 . S
C83 C82 1.387 . S
H84 C92 0.930 . S
H85 C95 0.930 . S
H86 C97 0.930 . S
H87 C98 0.970 1_554 S
H88 C98 0.968 1_565 S
H89 C100 0.930 . S
H90 C102 0.930 . S
H91 C104 0.930 . S
C92 H84 0.930 . S
C92 C93 1.380 1_554 S
C92 C94 1.426 1_554 S
C93 C92 1.380 1_556 S
C93 C97 1.398 . S
C94 C92 1.426 1_556 S
C94 C95 1.375 . S
C94 C98 1.532 . S
C95 H85 0.930 . S
C95 C94 1.375 . S
C95 C96 1.416 . S
C96 C95 1.416 . S
C96 C97 1.371 . S
C97 H86 0.930 . S
C97 C93 1.398 . S
C97 C96 1.371 . S
C98 H87 0.970 1_556 S
C98 H88 0.968 1_545 S
C98 C94 1.532 . S
C98 C99 1.495 1_546 S
C99 C98 1.495 1_564 S
C99 C100 1.390 . S
C99 C104 1.401 1_554 S
C100 H89 0.930 . S
C100 C99 1.390 . S
C100 C101 1.407 . S
C101 C100 1.407 . S
C101 C102 1.365 . S
C102 H90 0.930 . S
C102 C101 1.365 . S
C102 C103 1.393 1_554 S
C103 C102 1.393 1_556 S
C103 C104 1.387 . S
C104 H91 0.930 . S
C104 C99 1.401 1_556 S
C104 C103 1.387 . S
H105 C113 0.930 . S
H106 C116 0.930 . S
H107 C118 0.930 . S
H108 C119 0.970 . S
H109 C119 0.970 . S
H110 C121 0.930 . S
H111 C123 0.930 . S
H112 C125 0.930 . S
C113 H105 0.930 . S
C113 C114 1.382 . S
C113 C115 1.426 . S
C114 C113 1.382 . S
C114 C118 1.389 . S
C115 C113 1.426 . S
C115 C116 1.375 . S
C115 C119 1.532 . S
C116 H106 0.930 . S
C116 C115 1.375 . S
C116 C117 1.416 . S
C117 C116 1.416 . S
C117 C118 1.371 . S
C118 H107 0.930 . S
C118 C114 1.389 . S
C118 C117 1.371 . S
C119 H108 0.970 . S
C119 H109 0.970 . S
C119 C115 1.532 . S
C119 C120 1.499 . S
C120 C119 1.499 . S
C120 C121 1.370 . S
C120 C125 1.415 . S
C121 H110 0.930 . S
C121 C120 1.370 . S
C121 C122 1.407 . S
C122 C121 1.407 . S
C122 C123 1.365 . S
C123 H111 0.930 . S
C123 C122 1.365 . S
C123 C124 1.393 . S
C124 C123 1.393 . S
C124 C125 1.387 . S
C125 H112 0.930 . S
C125 C120 1.415 . S
C125 C124 1.387 . S
C126 O127 1.306 . S
C126 O129 1.160 . S
O127 C126 1.306 . S
O127 Cd128 2.228 . S
Cd128 O127 2.228 . S
Cd128 O132 2.273 . S
Cd128 O136 2.277 . S
O129 C126 1.160 . S
O129 Cd130 2.203 . S
Cd130 O129 2.203 . S
Cd130 O132 2.411 . S
Cd130 O133 2.333 . S
Cd130 O134 2.352 . S
Cd130 O138 2.277 . S
Cd130 O139 2.356 . S
C131 O136 1.209 . S
C131 O138 1.226 . S
O132 Cd128 2.273 . S
O132 Cd130 2.411 . S
O132 C135 1.320 . S
O133 Cd130 2.333 . S
O133 C135 1.214 . S
O134 Cd130 2.352 . S
O134 C137 1.258 . S
C135 O132 1.320 . S
C135 O133 1.214 . S
O136 Cd128 2.277 . S
O136 C131 1.209 . S
C137 O134 1.258 . S
C137 O139 1.282 . S
O138 Cd130 2.277 . S
O138 C131 1.226 . S
O139 Cd130 2.356 . S
O139 C137 1.282 . S
C140 O141 1.306 . S
C140 O143 1.160 . S
O141 C140 1.306 . S
O141 Cd142 2.228 . S
Cd142 O141 2.228 . S
Cd142 O146 2.273 . S
Cd142 O150 2.277 . S
O143 C140 1.160 . S
O143 Cd144 2.203 . S
Cd144 O143 2.203 . S
Cd144 O146 2.411 . S
Cd144 O147 2.333 . S
Cd144 O148 2.352 . S
Cd144 O152 2.277 . S
Cd144 O153 2.356 . S
C145 O150 1.209 . S
C145 O152 1.226 . S
O146 Cd142 2.273 . S
O146 Cd144 2.411 . S
O146 C149 1.320 . S
O147 Cd144 2.333 . S
O147 C149 1.214 . S
O148 Cd144 2.352 . S
O148 C151 1.258 . S
C149 O146 1.320 . S
C149 O147 1.214 . S
O150 Cd142 2.277 . S
O150 C145 1.209 . S
C151 O148 1.258 . S
C151 O153 1.282 . S
O152 Cd144 2.277 . S
O152 C145 1.226 . S
O153 Cd144 2.356 . S
O153 C151 1.282 . S
C154 O155 1.306 . S
C154 O157 1.160 . S
O155 C154 1.306 . S
O155 Cd156 2.228 . S
Cd156 O155 2.228 . S
Cd156 O160 2.273 . S
Cd156 O164 2.277 . S
O157 C154 1.160 . S
O157 Cd158 2.203 . S
Cd158 O157 2.203 . S
Cd158 O160 2.411 . S
Cd158 O161 2.333 . S
Cd158 O162 2.352 . S
Cd158 O166 2.277 . S
Cd158 O167 2.356 . S
C159 O164 1.209 . S
C159 O166 1.226 . S
O160 Cd156 2.273 . S
O160 Cd158 2.411 . S
O160 C163 1.320 . S
O161 Cd158 2.333 . S
O161 C163 1.214 . S
O162 Cd158 2.352 . S
O162 C165 1.258 . S
C163 O160 1.320 . S
C163 O161 1.214 . S
O164 Cd156 2.277 . S
O164 C159 1.209 . S
C165 O162 1.258 . S
C165 O167 1.282 . S
O166 Cd158 2.277 . S
O166 C159 1.226 . S
O167 Cd158 2.356 . S
O167 C165 1.282 . S
C168 O169 1.306 . S
C168 O171 1.160 . S
O169 C168 1.306 . S
O169 Cd170 2.228 . S
Cd170 O169 2.228 . S
Cd170 O174 2.273 . S
Cd170 O178 2.277 . S
O171 C168 1.160 . S
O171 Cd172 2.203 . S
Cd172 O171 2.203 . S
Cd172 O174 2.411 . S
Cd172 O175 2.333 . S
Cd172 O176 2.352 . S
Cd172 O180 2.277 . S
Cd172 O181 2.356 . S
C173 O178 1.209 . S
C173 O180 1.226 . S
O174 Cd170 2.273 . S
O174 Cd172 2.411 . S
O174 C177 1.320 . S
O175 Cd172 2.333 . S
O175 C177 1.214 . S
O176 Cd172 2.352 . S
O176 C179 1.258 . S
C177 O174 1.320 . S
C177 O175 1.214 . S
O178 Cd170 2.277 . S
O178 C173 1.209 . S
C179 O176 1.258 . S
C179 O181 1.282 . S
O180 Cd172 2.277 . S
O180 C173 1.226 . S
O181 Cd172 2.356 . S
O181 C179 1.282 . S
C182 O183 1.306 . S
C182 O185 1.160 . S
O183 C182 1.306 . S
O183 Cd184 2.228 . S
Cd184 O183 2.228 . S
Cd184 O188 2.273 . S
Cd184 O192 2.277 . S
O185 C182 1.160 . S
O185 Cd186 2.203 . S
Cd186 O185 2.203 . S
Cd186 O188 2.411 . S
Cd186 O189 2.333 . S
Cd186 O190 2.352 . S
Cd186 O194 2.277 . S
Cd186 O195 2.356 . S
C187 O192 1.209 . S
C187 O194 1.226 . S
O188 Cd184 2.273 . S
O188 Cd186 2.411 . S
O188 C191 1.320 . S
O189 Cd186 2.333 . S
O189 C191 1.214 . S
O190 Cd186 2.352 . S
O190 C193 1.258 . S
C191 O188 1.320 . S
C191 O189 1.214 . S
O192 Cd184 2.277 . S
O192 C187 1.209 . S
C193 O190 1.258 . S
C193 O195 1.282 . S
O194 Cd186 2.277 . S
O194 C187 1.226 . S
O195 Cd186 2.356 . S
O195 C193 1.282 . S
C196 O197 1.306 . S
C196 O199 1.160 . S
O197 C196 1.306 . S
O197 Cd198 2.228 . S
Cd198 O197 2.228 . S
Cd198 O202 2.273 . S
Cd198 O206 2.277 . S
O199 C196 1.160 . S
O199 Cd200 2.203 . S
Cd200 O199 2.203 . S
Cd200 O202 2.411 . S
Cd200 O203 2.333 . S
Cd200 O204 2.352 . S
Cd200 O208 2.277 . S
Cd200 O209 2.356 . S
C201 O206 1.209 . S
C201 O208 1.226 . S
O202 Cd198 2.273 . S
O202 Cd200 2.411 . S
O202 C205 1.320 . S
O203 Cd200 2.333 . S
O203 C205 1.214 . S
O204 Cd200 2.352 . S
O204 C207 1.258 . S
C205 O202 1.320 . S
C205 O203 1.214 . S
O206 Cd198 2.277 . S
O206 C201 1.209 . S
C207 O204 1.258 . S
C207 O209 1.282 . S
O208 Cd200 2.277 . S
O208 C201 1.226 . S
O209 Cd200 2.356 . S
O209 C207 1.282 . S
H210 C216 0.930 . S
H211 C219 0.930 . S
H212 C220 0.930 . S
H213 C221 0.930 . S
H214 C224 0.930 . S
H215 C225 0.930 . S
C216 H210 0.930 . S
C216 C217 1.355 . S
C216 C218 1.415 . S
C217 C216 1.355 . S
C217 C219 1.419 . S
C218 C216 1.415 . S
C218 C223 1.425 . S
C218 C225 1.409 . S
C219 H211 0.930 . S
C219 C217 1.419 . S
C219 C220 1.362 . S
C220 H212 0.930 . S
C220 C219 1.362 . S
C220 C223 1.409 . S
C221 H213 0.930 . S
C221 C222 1.355 . S
C221 C223 1.415 . S
C222 C221 1.355 . S
C222 C224 1.419 . S
C223 C218 1.425 . S
C223 C220 1.409 . S
C223 C221 1.415 . S
C224 H214 0.930 . S
C224 C222 1.419 . S
C224 C225 1.362 . S
C225 H215 0.930 . S
C225 C218 1.409 . S
C225 C224 1.362 . S
H226 C232 0.930 . S
H227 C235 0.930 . S
H228 C236 0.930 . S
H229 C237 0.930 . S
H230 C240 0.930 . S
H231 C241 0.930 . S
C232 H226 0.930 . S
C232 C233 1.355 . S
C232 C234 1.415 . S
C233 C232 1.355 . S
C233 C235 1.419 . S
C234 C232 1.415 . S
C234 C239 1.425 . S
C234 C241 1.409 . S
C235 H227 0.930 . S
C235 C233 1.419 . S
C235 C236 1.362 . S
C236 H228 0.930 . S
C236 C235 1.362 . S
C236 C239 1.409 . S
C237 H229 0.930 . S
C237 C238 1.355 . S
C237 C239 1.415 . S
C238 C237 1.355 . S
C238 C240 1.419 . S
C239 C234 1.425 . S
C239 C236 1.409 . S
C239 C237 1.415 . S
C240 H230 0.930 . S
C240 C238 1.419 . S
C240 C241 1.362 . S
C241 H231 0.930 . S
C241 C234 1.409 . S
C241 C240 1.362 . S
H242 C248 0.930 . S
H243 C251 0.930 . S
H244 C252 0.930 . S
H245 C253 0.930 . S
H246 C256 0.930 . S
H247 C257 0.930 . S
C248 H242 0.930 . S
C248 C249 1.355 . S
C248 C250 1.415 . S
C249 C248 1.355 . S
C249 C251 1.419 . S
C250 C248 1.415 . S
C250 C255 1.425 . S
C250 C257 1.409 . S
C251 H243 0.930 . S
C251 C249 1.419 . S
C251 C252 1.362 . S
C252 H244 0.930 . S
C252 C251 1.362 . S
C252 C255 1.409 . S
C253 H245 0.930 . S
C253 C254 1.355 . S
C253 C255 1.415 . S
C254 C253 1.355 . S
C254 C256 1.419 . S
C255 C250 1.425 . S
C255 C252 1.409 . S
C255 C253 1.415 . S
C256 H246 0.930 . S
C256 C254 1.419 . S
C256 C257 1.362 . S
C257 H247 0.930 . S
C257 C250 1.409 . S
C257 C256 1.362 . S
H258 C264 0.930 . S
H259 C267 0.930 . S
H260 C268 0.930 . S
H261 C269 0.930 . S
H262 C272 0.930 . S
H263 C273 0.930 . S
C264 H258 0.930 . S
C264 C265 1.355 . S
C264 C266 1.415 . S
C265 C264 1.355 . S
C265 C267 1.419 . S
C266 C264 1.415 . S
C266 C271 1.425 . S
C266 C273 1.409 . S
C267 H259 0.930 . S
C267 C265 1.419 . S
C267 C268 1.362 . S
C268 H260 0.930 . S
C268 C267 1.362 . S
C268 C271 1.409 . S
C269 H261 0.930 . S
C269 C270 1.355 . S
C269 C271 1.415 . S
C270 C269 1.355 . S
C270 C272 1.419 . S
C271 C266 1.425 . S
C271 C268 1.409 . S
C271 C269 1.415 . S
C272 H262 0.930 . S
C272 C270 1.419 . S
C272 C273 1.362 . S
C273 H263 0.930 . S
C273 C266 1.409 . S
C273 C272 1.362 . S
H274 C280 0.930 . S
H275 C283 0.930 1_554 S
H276 C284 0.930 1_554 S
H277 C285 0.930 . S
H278 C288 0.930 . S
H279 C289 0.930 . S
C280 H274 0.930 . S
C280 C281 1.355 . S
C280 C282 1.415 . S
C281 C280 1.355 . S
C281 C283 1.419 . S
C282 C280 1.415 . S
C282 C287 1.425 . S
C282 C289 1.409 . S
C283 H275 0.930 1_556 S
C283 C281 1.419 . S
C283 C284 1.362 . S
C284 H276 0.930 1_556 S
C284 C283 1.362 . S
C284 C287 1.409 . S
C285 H277 0.930 . S
C285 C286 1.355 . S
C285 C287 1.415 . S
C286 C285 1.355 . S
C286 C288 1.419 . S
C287 C282 1.425 . S
C287 C284 1.409 . S
C287 C285 1.415 . S
C288 H278 0.930 . S
C288 C286 1.419 . S
C288 C289 1.362 . S
C289 H279 0.930 . S
C289 C282 1.409 . S
C289 C288 1.362 . S
H290 C296 0.930 . S
H291 C299 0.930 . S
H292 C300 0.930 . S
H293 C301 0.930 . S
H294 C304 0.930 . S
H295 C305 0.930 . S
C296 H290 0.930 . S
C296 C297 1.355 . S
C296 C298 1.415 . S
C297 C296 1.355 . S
C297 C299 1.419 . S
C298 C296 1.415 . S
C298 C303 1.425 . S
C298 C305 1.409 . S
C299 H291 0.930 . S
C299 C297 1.419 . S
C299 C300 1.362 . S
C300 H292 0.930 . S
C300 C299 1.362 . S
C300 C303 1.409 . S
C301 H293 0.930 . S
C301 C302 1.355 . S
C301 C303 1.415 . S
C302 C301 1.355 . S
C302 C304 1.419 . S
C303 C298 1.425 . S
C303 C300 1.409 . S
C303 C301 1.415 . S
C304 H294 0.930 . S
C304 C302 1.419 . S
C304 C305 1.362 . S
C305 H295 0.930 . S
C305 C298 1.409 . S
C305 C304 1.362 . S
H306 C312 0.930 . S
H307 C315 0.930 . S
H308 C316 0.930 . S
H309 C317 0.930 . S
H310 C320 0.930 . S
H311 C321 0.930 . S
C312 H306 0.930 . S
C312 C313 1.355 . S
C312 C314 1.415 . S
C313 C312 1.355 . S
C313 C315 1.419 . S
C314 C312 1.415 . S
C314 C319 1.425 . S
C314 C321 1.409 . S
C315 H307 0.930 . S
C315 C313 1.419 . S
C315 C316 1.362 . S
C316 H308 0.930 . S
C316 C315 1.362 . S
C316 C319 1.409 . S
C317 H309 0.930 . S
C317 C318 1.355 . S
C317 C319 1.415 . S
C318 C317 1.355 . S
C318 C320 1.419 . S
C319 C314 1.425 . S
C319 C316 1.409 . S
C319 C317 1.415 . S
C320 H310 0.930 . S
C320 C318 1.419 . S
C320 C321 1.362 . S
C321 H311 0.930 . S
C321 C314 1.409 . S
C321 C320 1.362 . S
H322 C328 0.930 . S
H323 C331 0.930 . S
H324 C332 0.930 . S
H325 C333 0.930 . S
H326 C336 0.930 . S
H327 C337 0.930 . S
C328 H322 0.930 . S
C328 C329 1.355 . S
C328 C330 1.415 . S
C329 C328 1.355 . S
C329 C331 1.419 . S
C330 C328 1.415 . S
C330 C335 1.425 . S
C330 C337 1.409 . S
C331 H323 0.930 . S
C331 C329 1.419 . S
C331 C332 1.362 . S
C332 H324 0.930 . S
C332 C331 1.362 . S
C332 C335 1.409 . S
C333 H325 0.930 . S
C333 C334 1.355 . S
C333 C335 1.415 . S
C334 C333 1.355 . S
C334 C336 1.419 . S
C335 C330 1.425 . S
C335 C332 1.409 . S
C335 C333 1.415 . S
C336 H326 0.930 . S
C336 C334 1.419 . S
C336 C337 1.362 . S
C337 H327 0.930 . S
C337 C330 1.409 . S
C337 C336 1.362 . S
H338 C344 0.930 . S
H339 C347 0.930 . S
H340 C348 0.930 . S
H341 C349 0.930 . S
H342 C352 0.930 . S
H343 C353 0.930 . S
C344 H338 0.930 . S
C344 C345 1.355 . S
C344 C346 1.415 . S
C345 C344 1.355 . S
C345 C347 1.419 . S
C346 C344 1.415 . S
C346 C351 1.425 . S
C346 C353 1.409 . S
C347 H339 0.930 . S
C347 C345 1.419 . S
C347 C348 1.362 . S
C348 H340 0.930 . S
C348 C347 1.362 . S
C348 C351 1.409 . S
C349 H341 0.930 . S
C349 C350 1.355 . S
C349 C351 1.415 . S
C350 C349 1.355 . S
C350 C352 1.419 . S
C351 C346 1.425 . S
C351 C348 1.409 . S
C351 C349 1.415 . S
C352 H342 0.930 . S
C352 C350 1.419 . S
C352 C353 1.362 . S
C353 H343 0.930 . S
C353 C346 1.409 . S
C353 C352 1.362 . S
H354 C360 0.930 . S
H355 C363 0.930 1_556 S
H356 C364 0.930 . S
H357 C365 0.930 . S
H358 C368 0.930 . S
H359 C369 0.930 . S
C360 H354 0.930 . S
C360 C361 1.355 . S
C360 C362 1.415 . S
C361 C360 1.355 . S
C361 C363 1.419 . S
C362 C360 1.415 . S
C362 C367 1.425 . S
C362 C369 1.409 . S
C363 H355 0.930 1_554 S
C363 C361 1.419 . S
C363 C364 1.362 . S
C364 H356 0.930 . S
C364 C363 1.362 . S
C364 C367 1.409 . S
C365 H357 0.930 . S
C365 C366 1.355 . S
C365 C367 1.415 . S
C366 C365 1.355 . S
C366 C368 1.419 . S
C367 C362 1.425 . S
C367 C364 1.409 . S
C367 C365 1.415 . S
C368 H358 0.930 . S
C368 C366 1.419 . S
C368 C369 1.362 . S
C369 H359 0.930 . S
C369 C362 1.409 . S
C369 C368 1.362 . S
H370 C376 0.930 . S
H371 C379 0.930 . S
H372 C380 0.930 . S
H373 C381 0.930 . S
H374 C384 0.930 . S
H375 C385 0.930 . S
C376 H370 0.930 . S
C376 C377 1.355 . S
C376 C378 1.415 . S
C377 C376 1.355 . S
C377 C379 1.419 . S
C378 C376 1.415 . S
C378 C383 1.425 . S
C378 C385 1.409 . S
C379 H371 0.930 . S
C379 C377 1.419 . S
C379 C380 1.362 . S
C380 H372 0.930 . S
C380 C379 1.362 . S
C380 C383 1.409 . S
C381 H373 0.930 . S
C381 C382 1.355 . S
C381 C383 1.415 . S
C382 C381 1.355 . S
C382 C384 1.419 . S
C383 C378 1.425 . S
C383 C380 1.409 . S
C383 C381 1.415 . S
C384 H374 0.930 . S
C384 C382 1.419 . S
C384 C385 1.362 . S
C385 H375 0.930 . S
C385 C378 1.409 . S
C385 C384 1.362 . S
H386 C392 0.930 . S
H387 C395 0.930 . S
H388 C396 0.930 . S
H389 C397 0.930 . S
H390 C400 0.930 . S
H391 C401 0.930 . S
C392 H386 0.930 . S
C392 C393 1.355 . S
C392 C394 1.415 . S
C393 C392 1.355 . S
C393 C395 1.419 . S
C394 C392 1.415 . S
C394 C399 1.425 . S
C394 C401 1.409 . S
C395 H387 0.930 . S
C395 C393 1.419 . S
C395 C396 1.362 . S
C396 H388 0.930 . S
C396 C395 1.362 . S
C396 C399 1.409 . S
C397 H389 0.930 . S
C397 C398 1.355 . S
C397 C399 1.415 . S
C398 C397 1.355 . S
C398 C400 1.419 . S
C399 C394 1.425 . S
C399 C396 1.409 . S
C399 C397 1.415 . S
C400 H390 0.930 . S
C400 C398 1.419 . S
C400 C401 1.362 . S
C401 H391 0.930 . S
C401 C394 1.409 . S
C401 C400 1.362 . S
H402 C408 0.930 . S
H403 C411 0.930 . S
H404 C412 0.930 . S
H405 C413 0.930 . S
H406 C416 0.930 . S
H407 C417 0.930 . S
C408 H402 0.930 . S
C408 C409 1.355 . S
C408 C410 1.415 . S
C409 C408 1.355 . S
C409 C411 1.419 . S
C410 C408 1.415 . S
C410 C415 1.425 . S
C410 C417 1.409 . S
C411 H403 0.930 . S
C411 C409 1.419 . S
C411 C412 1.362 . S
C412 H404 0.930 . S
C412 C411 1.362 . S
C412 C415 1.409 . S
C413 H405 0.930 . S
C413 C414 1.355 . S
C413 C415 1.415 . S
C414 C413 1.355 . S
C414 C416 1.419 . S
C415 C410 1.425 . S
C415 C412 1.409 . S
C415 C413 1.415 . S
C416 H406 0.930 . S
C416 C414 1.419 . S
C416 C417 1.362 . S
C417 H407 0.930 . S
C417 C410 1.409 . S
C417 C416 1.362 . S
H418 C424 0.930 . S
H419 C427 0.930 . S
H420 C428 0.930 . S
H421 C429 0.930 . S
H422 C432 0.930 . S
H423 C433 0.930 . S
C424 H418 0.930 . S
C424 C425 1.355 . S
C424 C426 1.415 . S
C425 C424 1.355 . S
C425 C427 1.419 . S
C426 C424 1.415 . S
C426 C431 1.425 . S
C426 C433 1.409 . S
C427 H419 0.930 . S
C427 C425 1.419 . S
C427 C428 1.362 . S
C428 H420 0.930 . S
C428 C427 1.362 . S
C428 C431 1.409 . S
C429 H421 0.930 . S
C429 C430 1.355 . S
C429 C431 1.415 . S
C430 C429 1.355 . S
C430 C432 1.419 . S
C431 C426 1.425 . S
C431 C428 1.409 . S
C431 C429 1.415 . S
C432 H422 0.930 . S
C432 C430 1.419 . S
C432 C433 1.362 . S
C433 H423 0.930 . S
C433 C426 1.409 . S
C433 C432 1.362 . S
H434 C440 0.930 . S
H435 C443 0.930 . S
H436 C444 0.930 . S
H437 C445 0.930 . S
H438 C448 0.930 . S
H439 C449 0.930 . S
C440 H434 0.930 . S
C440 C441 1.355 . S
C440 C442 1.415 . S
C441 C440 1.355 . S
C441 C443 1.419 . S
C442 C440 1.415 . S
C442 C447 1.425 . S
C442 C449 1.409 . S
C443 H435 0.930 . S
C443 C441 1.419 . S
C443 C444 1.362 . S
C444 H436 0.930 . S
C444 C443 1.362 . S
C444 C447 1.409 . S
C445 H437 0.930 . S
C445 C446 1.355 . S
C445 C447 1.415 . S
C446 C445 1.355 . S
C446 C448 1.419 . S
C447 C442 1.425 . S
C447 C444 1.409 . S
C447 C445 1.415 . S
C448 H438 0.930 . S
C448 C446 1.419 . S
C448 C449 1.362 . S
C449 H439 0.930 . S
C449 C442 1.409 . S
C449 C448 1.362 . S
H450 C456 0.930 . S
H451 C459 0.930 . S
H452 C460 0.930 . S
H453 C461 0.930 . S
H454 C464 0.930 . S
H455 C465 0.930 . S
C456 H450 0.930 . S
C456 C457 1.355 . S
C456 C458 1.415 . S
C457 C456 1.355 . S
C457 C459 1.419 . S
C458 C456 1.415 . S
C458 C463 1.425 . S
C458 C465 1.409 . S
C459 H451 0.930 . S
C459 C457 1.419 . S
C459 C460 1.362 . S
C460 H452 0.930 . S
C460 C459 1.362 . S
C460 C463 1.409 . S
C461 H453 0.930 . S
C461 C462 1.354 . S
C461 C463 1.415 . S
C462 C461 1.354 . S
C462 C464 1.419 1_556 S
C463 C458 1.425 . S
C463 C460 1.409 . S
C463 C461 1.415 . S
C464 H454 0.930 . S
C464 C462 1.419 1_554 S
C464 C465 1.362 1_554 S
C465 H455 0.930 . S
C465 C458 1.409 . S
C465 C464 1.362 1_556 S
H466 C472 0.930 . S
H467 C475 0.930 . S
H468 C476 0.930 . S
H469 C477 0.930 . S
H470 C480 0.930 . S
H471 C481 0.930 . S
C472 H466 0.930 . S
C472 C473 1.355 . S
C472 C474 1.415 . S
C473 C472 1.355 . S
C473 C475 1.419 . S
C474 C472 1.415 . S
C474 C479 1.425 . S
C474 C481 1.409 . S
C475 H467 0.930 . S
C475 C473 1.419 . S
C475 C476 1.362 . S
C476 H468 0.930 . S
C476 C475 1.362 . S
C476 C479 1.409 . S
C477 H469 0.930 . S
C477 C478 1.355 . S
C477 C479 1.415 . S
C478 C477 1.355 . S
C478 C480 1.419 . S
C479 C474 1.425 . S
C479 C476 1.409 . S
C479 C477 1.415 . S
C480 H470 0.930 . S
C480 C478 1.419 . S
C480 C481 1.362 . S
C481 H471 0.930 . S
C481 C474 1.409 . S
C481 C480 1.362 . S
H482 C488 0.930 . S
H483 C491 0.930 . S
H484 C492 0.930 . S
H485 C493 0.930 . S
H486 C496 0.930 . S
H487 C497 0.930 . S
C488 H482 0.930 . S
C488 C489 1.355 . S
C488 C490 1.415 . S
C489 C488 1.355 . S
C489 C491 1.419 . S
C490 C488 1.415 . S
C490 C495 1.425 . S
C490 C497 1.409 . S
C491 H483 0.930 . S
C491 C489 1.419 . S
C491 C492 1.362 . S
C492 H484 0.930 . S
C492 C491 1.362 . S
C492 C495 1.409 . S
C493 H485 0.930 . S
C493 C494 1.355 . S
C493 C495 1.415 . S
C494 C493 1.355 . S
C494 C496 1.419 . S
C495 C490 1.425 . S
C495 C492 1.409 . S
C495 C493 1.415 . S
C496 H486 0.930 . S
C496 C494 1.419 . S
C496 C497 1.362 . S
C497 H487 0.930 . S
C497 C490 1.409 . S
C497 C496 1.362 . S
H498 C504 0.930 . S
H499 C507 0.930 . S
H500 C508 0.930 . S
H501 C509 0.930 . S
H502 C512 0.930 . S
H503 C513 0.930 . S
C504 H498 0.930 . S
C504 C505 1.355 . S
C504 C506 1.415 . S
C505 C504 1.355 . S
C505 C507 1.419 . S
C506 C504 1.415 . S
C506 C511 1.425 . S
C506 C513 1.409 . S
C507 H499 0.930 . S
C507 C505 1.419 . S
C507 C508 1.362 . S
C508 H500 0.930 . S
C508 C507 1.362 . S
C508 C511 1.409 . S
C509 H501 0.930 . S
C509 C510 1.355 . S
C509 C511 1.415 . S
C510 C509 1.355 . S
C510 C512 1.419 . S
C511 C506 1.425 . S
C511 C508 1.409 . S
C511 C509 1.415 . S
C512 H502 0.930 . S
C512 C510 1.419 . S
C512 C513 1.362 . S
C513 H503 0.930 . S
C513 C506 1.409 . S
C513 C512 1.362 . S
H514 C520 0.930 . S
H515 C523 0.930 . S
H516 C524 0.930 . S
H517 C525 0.930 . S
H518 C528 0.930 . S
H519 C529 0.930 . S
C520 H514 0.930 . S
C520 C521 1.355 . S
C520 C522 1.415 . S
C521 C520 1.355 . S
C521 C523 1.419 . S
C522 C520 1.415 . S
C522 C527 1.425 . S
C522 C529 1.409 . S
C523 H515 0.930 . S
C523 C521 1.419 . S
C523 C524 1.362 . S
C524 H516 0.930 . S
C524 C523 1.362 . S
C524 C527 1.409 . S
C525 H517 0.930 . S
C525 C526 1.355 . S
C525 C527 1.415 . S
C526 C525 1.355 . S
C526 C528 1.419 . S
C527 C522 1.425 . S
C527 C524 1.409 . S
C527 C525 1.415 . S
C528 H518 0.930 . S
C528 C526 1.419 . S
C528 C529 1.362 . S
C529 H519 0.930 . S
C529 C522 1.409 . S
C529 C528 1.362 . S
H530 C536 0.930 . S
H531 C539 0.930 . S
H532 C540 0.930 . S
H533 C541 0.930 . S
H534 C544 0.930 . S
H535 C545 0.930 . S
C536 H530 0.930 . S
C536 C537 1.355 . S
C536 C538 1.415 . S
C537 C536 1.355 . S
C537 C539 1.419 . S
C538 C536 1.415 . S
C538 C543 1.425 . S
C538 C545 1.409 . S
C539 H531 0.930 . S
C539 C537 1.419 . S
C539 C540 1.362 . S
C540 H532 0.930 . S
C540 C539 1.362 . S
C540 C543 1.409 . S
C541 H533 0.930 . S
C541 C542 1.355 . S
C541 C543 1.415 . S
C542 C541 1.355 . S
C542 C544 1.419 . S
C543 C538 1.425 . S
C543 C540 1.409 . S
C543 C541 1.415 . S
C544 H534 0.930 . S
C544 C542 1.419 . S
C544 C545 1.362 . S
C545 H535 0.930 . S
C545 C538 1.409 . S
C545 C544 1.362 . S
H546 C552 0.930 . S
H547 C555 0.930 . S
H548 C556 0.930 . S
H549 C557 0.930 . S
H550 C560 0.930 . S
H551 C561 0.930 . S
C552 H546 0.930 . S
C552 C553 1.355 . S
C552 C554 1.415 . S
C553 C552 1.355 . S
C553 C555 1.419 . S
C554 C552 1.415 . S
C554 C559 1.425 . S
C554 C561 1.409 . S
C555 H547 0.930 . S
C555 C553 1.419 . S
C555 C556 1.362 . S
C556 H548 0.930 . S
C556 C555 1.362 . S
C556 C559 1.409 . S
C557 H549 0.930 . S
C557 C558 1.355 . S
C557 C559 1.415 . S
C558 C557 1.355 . S
C558 C560 1.419 . S
C559 C554 1.425 . S
C559 C556 1.409 . S
C559 C557 1.415 . S
C560 H550 0.930 . S
C560 C558 1.419 . S
C560 C561 1.362 . S
C561 H551 0.930 . S
C561 C554 1.409 . S
C561 C560 1.362 . S
H562 C568 0.930 . S
H563 C571 0.930 . S
H564 C572 0.930 . S
H565 C573 0.930 . S
H566 C576 0.930 . S
H567 C577 0.930 . S
C568 H562 0.930 . S
C568 C569 1.355 . S
C568 C570 1.415 . S
C569 C568 1.355 . S
C569 C571 1.419 . S
C570 C568 1.415 . S
C570 C575 1.425 . S
C570 C577 1.409 1_554 S
C571 H563 0.930 . S
C571 C569 1.419 . S
C571 C572 1.362 . S
C572 H564 0.930 . S
C572 C571 1.362 . S
C572 C575 1.409 . S
C573 H565 0.930 . S
C573 C574 1.355 1_554 S
C573 C575 1.415 . S
C574 C573 1.355 1_556 S
C574 C576 1.419 . S
C575 C570 1.425 . S
C575 C572 1.409 . S
C575 C573 1.415 . S
C576 H566 0.930 . S
C576 C574 1.419 . S
C576 C577 1.362 . S
C577 H567 0.930 . S
C577 C570 1.409 1_556 S
C577 C576 1.362 . S
H578 C584 0.930 . S
H579 C587 0.930 . S
H580 C588 0.930 . S
H581 C589 0.930 . S
H582 C592 0.930 . S
H583 C593 0.930 . S
C584 H578 0.930 . S
C584 C585 1.355 . S
C584 C586 1.415 . S
C585 C584 1.355 . S
C585 C587 1.419 . S
C586 C584 1.415 . S
C586 C591 1.425 . S
C586 C593 1.409 . S
C587 H579 0.930 . S
C587 C585 1.419 . S
C587 C588 1.362 . S
C588 H580 0.930 . S
C588 C587 1.362 . S
C588 C591 1.409 . S
C589 H581 0.930 . S
C589 C590 1.355 . S
C589 C591 1.415 . S
C590 C589 1.355 . S
C590 C592 1.419 . S
C591 C586 1.425 . S
C591 C588 1.409 . S
C591 C589 1.415 . S
C592 H582 0.930 . S
C592 C590 1.419 . S
C592 C593 1.362 . S
C593 H583 0.930 . S
C593 C586 1.409 . S
C593 C592 1.362 . S
C222 C196 1.582 . S
C217 C19 1.453 . S
C233 C40 1.457 . S
C238 C137 1.584 . S
C249 C51 1.485 . S
C254 C140 1.566 . S
C265 C72 1.456 . S
C270 C154 1.594 . S
C286 C179 1.571 . S
C281 C103 1.464 . S
C297 C114 1.490 . S
C302 C182 1.573 . S
C313 C30 1.486 . S
C318 C151 1.569 . S
C329 C61 1.489 . S
C334 C165 1.559 . S
C345 C82 1.509 . S
C350 C168 1.551 . S
C366 C193 1.550 . S
C361 C93 1.468 1_554 S
C382 C207 1.559 . S
C377 C124 1.511 . S
C398 C126 1.547 . S
C393 C9 1.466 . S
C409 C17 1.468 . S
C414 C149 1.497 . S
C425 C38 1.433 . S
C430 C163 1.500 . S
C446 C173 1.510 . S
C441 C54 1.455 . S
C457 C75 1.400 . S
C462 C191 1.494 1_556 S
C478 C205 1.512 . S
C473 C101 1.373 . S
C494 C131 1.507 . S
C489 C117 1.428 . S
C510 C201 1.527 . S
C505 C33 1.414 . S
C521 C59 1.465 . S
C526 C135 1.519 . S
C542 C145 1.521 . S
C537 C80 1.410 . S
C553 C96 1.455 . S
C558 C159 1.530 . S
C569 C122 1.385 . S
C574 C177 1.515 . S
C585 C12 1.430 . S
C590 C187 1.526 . S
