# Generated by pormake.
# Topology pto, (3,4)-cn, num edge types: 1
# Building blocks:
#     Node 0, Type 0, BuildingBlock: OLANEW_clean_sbu_2, # of connection points: 3
#     Node 1, Type 0, BuildingBlock: OLANEW_clean_sbu_2, # of connection points: 3
#     Node 2, Type 0, BuildingBlock: OLANEW_clean_sbu_2, # of connection points: 3
#     Node 3, Type 0, BuildingBlock: OLANEW_clean_sbu_2, # of connection points: 3
#     Node 4, Type 0, BuildingBlock: OLANEW_clean_sbu_2, # of connection points: 3
#     Node 5, Type 0, BuildingBlock: OLANEW_clean_sbu_2, # of connection points: 3
#     Node 6, Type 0, BuildingBlock: OLANEW_clean_sbu_2, # of connection points: 3
#     Node 7, Type 0, BuildingBlock: OLANEW_clean_sbu_2, # of connection points: 3
#     Node 8, Type 1, BuildingBlock: AZAVOO_clean_linker_0, # of connection points: 4
#     Node 9, Type 1, BuildingBlock: AZAVOO_clean_linker_0, # of connection points: 4
#     Node 10, Type 1, BuildingBlock: AZAVOO_clean_linker_0, # of connection points: 4
#     Node 11, Type 1, BuildingBlock: AZAVOO_clean_linker_0, # of connection points: 4
#     Node 12, Type 1, BuildingBlock: AZAVOO_clean_linker_0, # of connection points: 4
#     Node 13, Type 1, BuildingBlock: AZAVOO_clean_linker_0, # of connection points: 4
#     Edge 14, Type (0, 1), BuildingBlock: XUDNAN_clean_linker_2, # of connection points: 2
#     Edge 15, Type (0, 1), BuildingBlock: XUDNAN_clean_linker_2, # of connection points: 2
#     Edge 16, Type (0, 1), BuildingBlock: XUDNAN_clean_linker_2, # of connection points: 2
#     Edge 17, Type (0, 1), BuildingBlock: XUDNAN_clean_linker_2, # of connection points: 2
#     Edge 18, Type (0, 1), BuildingBlock: XUDNAN_clean_linker_2, # of connection points: 2
#     Edge 19, Type (0, 1), BuildingBlock: XUDNAN_clean_linker_2, # of connection points: 2
#     Edge 20, Type (0, 1), BuildingBlock: XUDNAN_clean_linker_2, # of connection points: 2
#     Edge 21, Type (0, 1), BuildingBlock: XUDNAN_clean_linker_2, # of connection points: 2
#     Edge 22, Type (0, 1), BuildingBlock: XUDNAN_clean_linker_2, # of connection points: 2
#     Edge 23, Type (0, 1), BuildingBlock: XUDNAN_clean_linker_2, # of connection points: 2
#     Edge 24, Type (0, 1), BuildingBlock: XUDNAN_clean_linker_2, # of connection points: 2
#     Edge 25, Type (0, 1), BuildingBlock: XUDNAN_clean_linker_2, # of connection points: 2
#     Edge 26, Type (0, 1), BuildingBlock: XUDNAN_clean_linker_2, # of connection points: 2
#     Edge 27, Type (0, 1), BuildingBlock: XUDNAN_clean_linker_2, # of connection points: 2
#     Edge 28, Type (0, 1), BuildingBlock: XUDNAN_clean_linker_2, # of connection points: 2
#     Edge 29, Type (0, 1), BuildingBlock: XUDNAN_clean_linker_2, # of connection points: 2
#     Edge 30, Type (0, 1), BuildingBlock: XUDNAN_clean_linker_2, # of connection points: 2
#     Edge 31, Type (0, 1), BuildingBlock: XUDNAN_clean_linker_2, # of connection points: 2
#     Edge 32, Type (0, 1), BuildingBlock: XUDNAN_clean_linker_2, # of connection points: 2
#     Edge 33, Type (0, 1), BuildingBlock: XUDNAN_clean_linker_2, # of connection points: 2
#     Edge 34, Type (0, 1), BuildingBlock: XUDNAN_clean_linker_2, # of connection points: 2
#     Edge 35, Type (0, 1), BuildingBlock: XUDNAN_clean_linker_2, # of connection points: 2
#     Edge 36, Type (0, 1), BuildingBlock: XUDNAN_clean_linker_2, # of connection points: 2
#     Edge 37, Type (0, 1), BuildingBlock: XUDNAN_clean_linker_2, # of connection points: 2
# Relax obj value: 0.067
# Max RMSD: 0.223
# Mean RMSD: 0.134
data_MOF--net-pto--node1-OLANEW_clean_sbu_2--node2-AZAVOO_clean_linker_0--edge1-XUDNAN_clean_linker_2
_symmetry_space_group_name_H-M    P1
_symmetry_Int_Tables_number       1
_symmetry_cell_setting            triclinic
loop_
_symmetry_equiv_pos_as_xyz
'x, y, z'
_cell_length_a     45.620112
_cell_length_b     50.073015
_cell_length_c     51.18535
_cell_angle_alpha  92.79164
_cell_angle_beta   90.46881
_cell_angle_gamma 117.12723
loop_
_atom_site_label
_atom_site_type_symbol
_atom_site_fract_x
_atom_site_fract_y
_atom_site_fract_z
_atom_type_partial_charge
O0 O 0.36238 0.48697 0.24169 0.0
Cd1 Cd 0.37161 0.51901 0.28153 0.0
O2 O 0.30852 0.4687 0.24307 0.0
Cd3 Cd 0.30858 0.49948 0.2747 0.0
O4 O 0.28525 0.52543 0.29181 0.0
C5 C 0.26345 0.52632 0.27677 0.0
O6 O 0.25799 0.51264 0.25336 0.0
C7 C 0.33374 0.46895 0.2325 0.0
C8 C 0.39576 0.4975 0.32129 0.0
O9 O 0.36471 0.48746 0.31699 0.0
O10 O 0.41545 0.51816 0.30708 0.0
O11 O 0.35893 0.04208 0.82748 0.0
Cd12 Cd 0.32625 0.03937 0.78813 0.0
O13 O 0.31987 0.99714 0.83543 0.0
Cd14 Cd 0.28515 0.98658 0.80234 0.0
O15 O 0.24312 0.94768 0.78351 0.0
C16 C 0.2472 0.93333 0.76388 0.0
O17 O 0.27642 0.94378 0.75366 0.0
C18 C 0.34737 0.01968 0.84178 0.0
C19 C 0.35883 0.07852 0.74909 0.0
O20 O 0.34247 0.08516 0.76621 0.0
O21 O 0.36057 0.05383 0.75087 0.0
O22 O 0.90061 0.94773 0.32798 0.0
Cd23 Cd 0.95259 0.96008 0.3067 0.0
O24 O 0.87945 0.95666 0.29288 0.0
Cd25 Cd 0.84315 0.96455 0.27065 0.0
O26 O 0.80843 0.97283 0.24689 0.0
C27 C 0.79417 0.9876 0.25641 0.0
O28 O 0.8003 0.99774 0.28103 0.0
C29 C 0.87658 0.94904 0.31644 0.0
C30 C 0.9598 0.909 0.29283 0.0
O31 O 0.96676 0.92108 0.31617 0.0
O32 O 0.9494 0.92107 0.27594 0.0
O33 O 0.69243 0.26989 0.78654 0.0
Cd34 Cd 0.64057 0.22338 0.78354 0.0
O35 O 0.72262 0.24845 0.79882 0.0
Cd36 Cd 0.67799 0.20864 0.80855 0.0
O37 O 0.63248 0.19252 0.83017 0.0
C38 C 0.62966 0.21399 0.84221 0.0
O39 O 0.6534 0.24147 0.84053 0.0
C40 C 0.72057 0.27156 0.79168 0.0
C41 C 0.63554 0.19287 0.73535 0.0
O42 O 0.62527 0.21274 0.73806 0.0
O43 O 0.64769 0.18693 0.75562 0.0
O44 O 0.76383 0.86023 0.68761 0.0
Cd45 Cd 0.7562 0.82252 0.71925 0.0
O46 O 0.78981 0.89939 0.71533 0.0
Cd47 Cd 0.78353 0.87574 0.75114 0.0
O48 O 0.77519 0.89238 0.7892 0.0
C49 C 0.78997 0.92092 0.79192 0.0
O50 O 0.80925 0.93593 0.7733 0.0
C51 C 0.77853 0.88855 0.69237 0.0
C52 C 0.79975 0.79753 0.71451 0.0
O53 O 0.77529 0.78974 0.69831 0.0
O54 O 0.80404 0.81744 0.73286 0.0
O55 O 0.62798 0.31989 0.30623 0.0
Cd56 Cd 0.57404 0.27713 0.29598 0.0
O57 O 0.61754 0.32758 0.3471 0.0
Cd58 Cd 0.56498 0.29802 0.33981 0.0
O59 O 0.52137 0.28517 0.31438 0.0
C60 C 0.52699 0.30255 0.29574 0.0
O61 O 0.55631 0.32572 0.29482 0.0
C62 C 0.63763 0.33384 0.32854 0.0
C63 C 0.57253 0.22356 0.31029 0.0
O64 O 0.58058 0.23284 0.28728 0.0
O65 O 0.56491 0.23953 0.3265 0.0
O66 O 0.29958 0.48547 0.8334 0.0
Cd67 Cd 0.29421 0.50452 0.7914 0.0
O68 O 0.34269 0.48039 0.8202 0.0
Cd69 Cd 0.3451 0.49228 0.77965 0.0
O70 O 0.36611 0.47581 0.74842 0.0
C71 C 0.39134 0.47316 0.7557 0.0
O72 O 0.4032 0.4823 0.77976 0.0
C73 C 0.32243 0.47824 0.83786 0.0
C74 C 0.26213 0.5406 0.79411 0.0
O75 O 0.24584 0.5119 0.7913 0.0
O76 O 0.29365 0.5523 0.79597 0.0
O77 O 0.42649 0.01451 0.27294 0.0
Cd78 Cd 0.39689 0.98863 0.31103 0.0
O79 O 0.38972 0.98168 0.24448 0.0
Cd80 Cd 0.35389 0.95452 0.2724 0.0
O81 O 0.31116 0.91489 0.28505 0.0
C82 C 0.31534 0.89537 0.29732 0.0
O83 O 0.3455 0.90031 0.30343 0.0
C84 C 0.41704 0.00498 0.24936 0.0
C85 C 0.3886 0.02576 0.34958 0.0
O86 O 0.41604 0.02467 0.34781 0.0
O87 O 0.36529 0.0097 0.33292 0.0
H88 H 0.95997 0.43096 0.34092 0.0
H89 H 0.78782 0.61058 0.26196 0.0
H90 H 0.03326 0.5907 0.34314 0.0
H91 H 0.08285 0.58355 0.34473 0.0
H92 H 0.10145 0.60883 0.26467 0.0
H93 H 0.05116 0.61477 0.26301 0.0
H94 H 0.9591 0.54756 0.34611 0.0
H95 H 0.95636 0.49818 0.35144 0.0
H96 H 0.9889 0.49752 0.27239 0.0
H97 H 0.99117 0.54675 0.26723 0.0
H98 H 0.908 0.57824 0.34223 0.0
H99 H 0.85624 0.53529 0.35194 0.0
H100 H 0.864 0.4866 0.28235 0.0
H101 H 0.91486 0.53058 0.27199 0.0
H102 H 0.92705 0.64317 0.32943 0.0
H103 H 0.87645 0.64823 0.32439 0.0
H104 H 0.85095 0.59119 0.25312 0.0
H105 H 0.9018 0.58663 0.25821 0.0
H106 H 0.00464 0.68796 0.32823 0.0
H107 H 0.00603 0.73622 0.32065 0.0
H108 H 0.95734 0.7005 0.24487 0.0
H109 H 0.95865 0.65323 0.25187 0.0
H110 H 0.04991 0.65744 0.34142 0.0
H111 H 0.10481 0.70028 0.34499 0.0
H112 H 0.0972 0.71551 0.26338 0.0
H113 H 0.04192 0.67246 0.26004 0.0
O114 O 0.96119 0.45046 0.33838 0.0
O115 O 0.9782 0.45134 0.29769 0.0
O116 O 0.82227 0.63824 0.30115 0.0
O117 O 0.808 0.60896 0.26443 0.0
C118 C 0.00767 0.6061 0.30149 0.0
C119 C 0.97677 0.58056 0.30297 0.0
C120 C 0.94748 0.58358 0.30152 0.0
C121 C 0.94909 0.61186 0.29699 0.0
C122 C 0.98009 0.63745 0.29541 0.0
C123 C 0.00938 0.63469 0.29857 0.0
C124 C 0.03848 0.60295 0.30288 0.0
C125 C 0.04804 0.59458 0.32596 0.0
C126 C 0.07655 0.59083 0.3269 0.0
C127 C 0.09607 0.59555 0.30479 0.0
C128 C 0.08671 0.60458 0.2819 0.0
C129 C 0.05814 0.60818 0.28095 0.0
C130 C 0.97522 0.55064 0.30626 0.0
C131 C 0.96549 0.53663 0.32995 0.0
C132 C 0.96402 0.50847 0.33295 0.0
C133 C 0.97239 0.49388 0.31233 0.0
C134 C 0.98227 0.50811 0.28865 0.0
C135 C 0.98363 0.53623 0.28565 0.0
C136 C 0.91524 0.55756 0.30643 0.0
C137 C 0.89826 0.55844 0.32889 0.0
C138 C 0.86888 0.53366 0.33458 0.0
C139 C 0.85604 0.50723 0.31813 0.0
C140 C 0.87293 0.50661 0.29537 0.0
C141 C 0.90216 0.53162 0.2895 0.0
C142 C 0.91815 0.61464 0.29413 0.0
C143 C 0.91056 0.6319 0.31269 0.0
C144 C 0.88161 0.63468 0.3098 0.0
C145 C 0.85966 0.62013 0.28832 0.0
C146 C 0.8673 0.60271 0.26986 0.0
C147 C 0.89629 0.6 0.27275 0.0
C148 C 0.98169 0.6671 0.29056 0.0
C149 C 0.99487 0.6908 0.3098 0.0
C150 C 0.99518 0.71826 0.30555 0.0
C151 C 0.98158 0.72236 0.28218 0.0
C152 C 0.96855 0.6985 0.2629 0.0
C153 C 0.96892 0.67129 0.26696 0.0
C154 C 0.04202 0.66177 0.30046 0.0
C155 C 0.06008 0.67007 0.32432 0.0
C156 C 0.09148 0.69445 0.32629 0.0
C157 C 0.10547 0.71113 0.30441 0.0
C158 C 0.08699 0.70321 0.28062 0.0
C159 C 0.05551 0.67864 0.27864 0.0
C160 C 0.97081 0.46397 0.31559 0.0
C161 C 0.8289 0.62306 0.28512 0.0
H162 H 0.03885 0.48 0.84057 0.0
H163 H 0.76247 0.5294 0.72265 0.0
H164 H 0.04065 0.61779 0.82005 0.0
H165 H 0.09448 0.61874 0.8263 0.0
H166 H 0.1133 0.63412 0.74457 0.0
H167 H 0.05876 0.6318 0.73805 0.0
H168 H 0.97674 0.55724 0.82199 0.0
H169 H 0.99755 0.52302 0.83653 0.0
H170 H 0.04526 0.52932 0.7628 0.0
H171 H 0.02386 0.56316 0.74835 0.0
H172 H 0.90385 0.548 0.80479 0.0
H173 H 0.86807 0.49398 0.80828 0.0
H174 H 0.91568 0.47437 0.74282 0.0
H175 H 0.95061 0.52824 0.73898 0.0
H176 H 0.90229 0.61112 0.79237 0.0
H177 H 0.8433 0.59473 0.78528 0.0
H178 H 0.84249 0.53982 0.71712 0.0
H179 H 0.90154 0.55665 0.72425 0.0
H180 H 0.9698 0.67664 0.78623 0.0
H181 H 0.94863 0.71064 0.77198 0.0
H182 H 0.90966 0.65477 0.70049 0.0
H183 H 0.93334 0.62267 0.71398 0.0
H184 H 0.03857 0.67878 0.80153 0.0
H185 H 0.08049 0.72987 0.79409 0.0
H186 H 0.05536 0.71375 0.71124 0.0
H187 H 0.01418 0.66242 0.71883 0.0
O188 O 0.03051 0.49324 0.83429 0.0
O189 O 0.05217 0.49515 0.79525 0.0
O190 O 0.78759 0.56504 0.76099 0.0
O191 O 0.78581 0.53629 0.72588 0.0
C192 C 0.01003 0.61494 0.77341 0.0
C193 C 0.98717 0.58444 0.77586 0.0
C194 C 0.95327 0.57451 0.77048 0.0
C195 C 0.94202 0.59523 0.76322 0.0
C196 C 0.96492 0.62568 0.76017 0.0
C197 C 0.99902 0.63546 0.76508 0.0
C198 C 0.04566 0.62445 0.77855 0.0
C199 C 0.05676 0.62226 0.80364 0.0
C200 C 0.08737 0.62274 0.8072 0.0
C201 C 0.10769 0.62641 0.78587 0.0
C202 C 0.09798 0.63148 0.76128 0.0
C203 C 0.067 0.63032 0.75759 0.0
C204 C 0.99886 0.56272 0.78416 0.0
C205 C 0.99147 0.55101 0.80894 0.0
C206 C 0.00351 0.53158 0.81723 0.0
C207 C 0.02314 0.52349 0.80085 0.0
C208 C 0.0302 0.53507 0.77589 0.0
C209 C 0.01808 0.55444 0.76761 0.0
C210 C 0.92992 0.54204 0.7717 0.0
C211 C 0.90618 0.53203 0.79099 0.0
C212 C 0.88585 0.50126 0.79297 0.0
C213 C 0.88938 0.48008 0.77596 0.0
C214 C 0.91277 0.49022 0.75639 0.0
C215 C 0.93264 0.52092 0.75415 0.0
C216 C 0.90615 0.58501 0.75887 0.0
C217 C 0.88932 0.59559 0.7759 0.0
C218 C 0.85563 0.58617 0.77182 0.0
C219 C 0.83816 0.56592 0.75064 0.0
C220 C 0.85516 0.55538 0.73363 0.0
C221 C 0.88887 0.56488 0.7377 0.0
C222 C 0.95303 0.64705 0.75122 0.0
C223 C 0.95717 0.67212 0.76729 0.0
C224 C 0.94463 0.69132 0.75922 0.0
C225 C 0.92717 0.68556 0.73505 0.0
C226 C 0.92342 0.66048 0.71896 0.0
C227 C 0.93658 0.64174 0.72681 0.0
C228 C 0.02338 0.6669 0.76072 0.0
C229 C 0.04213 0.68635 0.7818 0.0
C230 C 0.06587 0.71558 0.77752 0.0
C231 C 0.07128 0.72589 0.75205 0.0
C232 C 0.05209 0.7064 0.73104 0.0
C233 C 0.02839 0.67717 0.73534 0.0
C234 C 0.0362 0.50312 0.80985 0.0
C235 C 0.80236 0.5558 0.74624 0.0
H236 H 0.38856 0.2461 0.35509 0.0
H237 H 0.49233 0.48602 0.58143 0.0
H238 H 0.36423 0.22598 0.49487 0.0
H239 H 0.35109 0.17809 0.47177 0.0
H240 H 0.44616 0.18657 0.49615 0.0
H241 H 0.4597 0.23561 0.51812 0.0
H242 H 0.37797 0.28082 0.46405 0.0
H243 H 0.37381 0.26679 0.4172 0.0
H244 H 0.46495 0.26041 0.42395 0.0
H245 H 0.46902 0.27486 0.47071 0.0
H246 H 0.38786 0.33797 0.5004 0.0
H247 H 0.39028 0.37457 0.4696 0.0
H248 H 0.48148 0.3797 0.44079 0.0
H249 H 0.47955 0.34407 0.47268 0.0
H250 H 0.39078 0.33994 0.55828 0.0
H251 H 0.40064 0.38951 0.57651 0.0
H252 H 0.50078 0.42705 0.55036 0.0
H253 H 0.49075 0.37716 0.53269 0.0
H254 H 0.38145 0.28698 0.58633 0.0
H255 H 0.38175 0.31299 0.62815 0.0
H256 H 0.48712 0.3671 0.6246 0.0
H257 H 0.48662 0.34067 0.58297 0.0
H258 H 0.36951 0.22944 0.56222 0.0
H259 H 0.36428 0.19449 0.59602 0.0
H260 H 0.47036 0.23458 0.60462 0.0
H261 H 0.47531 0.26955 0.57098 0.0
O262 O 0.39073 0.25171 0.37363 0.0
O263 O 0.43754 0.24852 0.37821 0.0
O264 O 0.43622 0.44561 0.58777 0.0
O265 O 0.48766 0.46623 0.57414 0.0
C266 C 0.42254 0.26577 0.51762 0.0
C267 C 0.42629 0.28728 0.49923 0.0
C268 C 0.43198 0.3165 0.50797 0.0
C269 C 0.43472 0.32441 0.53502 0.0
C270 C 0.43216 0.30327 0.55336 0.0
C271 C 0.42596 0.27392 0.54471 0.0
C272 C 0.41293 0.2343 0.50808 0.0
C273 C 0.382 0.21725 0.49557 0.0
C274 C 0.37449 0.18972 0.48248 0.0
C275 C 0.39759 0.17833 0.48195 0.0
C276 C 0.42798 0.19483 0.49576 0.0
C277 C 0.43563 0.22265 0.50864 0.0
C278 C 0.42387 0.27899 0.47073 0.0
C279 C 0.39711 0.27658 0.45532 0.0
C280 C 0.39475 0.26846 0.42859 0.0
C281 C 0.41907 0.26249 0.41681 0.0
C282 C 0.44581 0.26487 0.43238 0.0
C283 C 0.44819 0.27308 0.45909 0.0
C284 C 0.4336 0.33849 0.48886 0.0
C285 C 0.40849 0.34721 0.48757 0.0
C286 C 0.40977 0.3679 0.46976 0.0
C287 C 0.43604 0.38005 0.45262 0.0
C288 C 0.46114 0.37113 0.45393 0.0
C289 C 0.45996 0.35059 0.47195 0.0
C290 C 0.44012 0.35497 0.54433 0.0
C291 C 0.41482 0.35891 0.55652 0.0
C292 C 0.42051 0.38724 0.56688 0.0
C293 C 0.45155 0.41224 0.56496 0.0
C294 C 0.47663 0.40828 0.55222 0.0
C295 C 0.47095 0.37986 0.54201 0.0
C296 C 0.434 0.31199 0.58166 0.0
C297 C 0.40476 0.30354 0.59515 0.0
C298 C 0.40492 0.31872 0.6188 0.0
C299 C 0.43438 0.34243 0.62935 0.0
C300 C 0.46408 0.34888 0.61699 0.0
C301 C 0.46387 0.33375 0.59327 0.0
C302 C 0.42277 0.25185 0.56414 0.0
C303 C 0.39156 0.23051 0.57135 0.0
C304 C 0.38864 0.21076 0.59072 0.0
C305 C 0.41693 0.21185 0.60294 0.0
C306 C 0.44816 0.23306 0.59537 0.0
C307 C 0.45104 0.25304 0.57625 0.0
C308 C 0.41646 0.25381 0.38842 0.0
C309 C 0.45787 0.4423 0.57632 0.0
H310 H 0.58844 0.03226 0.84208 0.0
H311 H 0.76689 0.95275 0.05362 0.0
H312 H 0.59361 0.0675 0.97423 0.0
H313 H 0.5451 0.0659 0.95288 0.0
H314 H 0.4834 0.99393 0.00132 0.0
H315 H 0.53181 0.99221 0.01864 0.0
H316 H 0.64782 0.0567 0.94781 0.0
H317 H 0.6314 0.05379 0.90171 0.0
H318 H 0.54097 0.97382 0.91438 0.0
H319 H 0.55788 0.97676 0.96035 0.0
H320 H 0.70512 0.04792 0.98194 0.0
H321 H 0.73768 0.03763 0.94913 0.0
H322 H 0.6515 0.95586 0.92286 0.0
H323 H 0.61982 0.96542 0.95705 0.0
H324 H 0.70793 0.05185 0.04302 0.0
H325 H 0.75186 0.04024 0.05756 0.0
H326 H 0.69527 0.94863 0.02615 0.0
H327 H 0.65134 0.96044 0.01205 0.0
H328 H 0.65913 0.0648 0.07633 0.0
H329 H 0.67999 0.06213 0.11998 0.0
H330 H 0.64104 0.96595 0.10669 0.0
H331 H 0.62027 0.96883 0.06325 0.0
H332 H 0.60249 0.07729 0.04791 0.0
H333 H 0.57237 0.08518 0.08469 0.0
H334 H 0.53264 0.99119 0.10019 0.0
H335 H 0.56253 0.98356 0.06358 0.0
O336 O 0.59456 0.03286 0.86033 0.0
O337 O 0.54838 0.9919 0.86791 0.0
O338 O 0.77802 0.00532 0.06386 0.0
O339 O 0.75009 0.95805 0.04778 0.0
C340 C 0.59574 0.02524 0.00528 0.0
C341 C 0.61385 0.019 0.98551 0.0
C342 C 0.6407 0.01361 0.99242 0.0
C343 C 0.64903 0.01367 0.01904 0.0
C344 C 0.63056 0.01904 0.03877 0.0
C345 C 0.60418 0.02513 0.03199 0.0
C346 C 0.56655 0.02956 0.99767 0.0
C347 C 0.56952 0.05129 0.9801 0.0
C348 C 0.54146 0.05056 0.9681 0.0
C349 C 0.50965 0.029 0.97443 0.0
C350 C 0.50708 0.0098 0.99454 0.0
C351 C 0.53504 0.00939 0.00531 0.0
C352 C 0.60401 0.01699 0.95742 0.0
C353 C 0.62456 0.03849 0.94055 0.0
C354 C 0.61507 0.03681 0.91425 0.0
C355 C 0.58483 0.0136 0.90437 0.0
C356 C 0.56439 0.992 0.92135 0.0
C357 C 0.57396 0.99365 0.94762 0.0
C358 C 0.66006 0.00752 0.97182 0.0
C359 C 0.69337 0.02769 0.96919 0.0
C360 C 0.71185 0.02187 0.95023 0.0
C361 C 0.69725 0.99597 0.93313 0.0
C362 C 0.66377 0.9758 0.93585 0.0
C363 C 0.64545 0.98141 0.95515 0.0
C364 C 0.67651 0.007 0.02646 0.0
C365 C 0.70514 0.02932 0.03924 0.0
C366 C 0.73017 0.02262 0.04753 0.0
C367 C 0.72705 0.99347 0.04306 0.0
C368 C 0.69847 0.97128 0.02992 0.0
C369 C 0.67341 0.97799 0.02172 0.0
C370 C 0.63847 0.01705 0.0666 0.0
C371 C 0.6545 0.04312 0.08313 0.0
C372 C 0.66637 0.04154 0.10801 0.0
C373 C 0.66248 0.01387 0.11657 0.0
C374 C 0.64486 0.98763 0.10044 0.0
C375 C 0.63284 0.9892 0.07572 0.0
C376 C 0.58464 0.02986 0.05311 0.0
C377 C 0.58702 0.05843 0.05915 0.0
C378 C 0.56999 0.06291 0.08018 0.0
C379 C 0.55006 0.03877 0.09522 0.0
C380 C 0.54741 0.01013 0.08875 0.0
C381 C 0.56461 0.00576 0.06798 0.0
C382 C 0.57472 0.01202 0.87647 0.0
C383 C 0.75333 0.98611 0.05221 0.0
H384 H 0.61457 0.93624 0.32036 0.0
H385 H 0.60807 0.17795 0.51552 0.0
H386 H 0.64214 0.94732 0.45691 0.0
H387 H 0.66994 0.92289 0.43208 0.0
H388 H 0.76309 0.00223 0.44734 0.0
H389 H 0.73526 0.02607 0.47211 0.0
H390 H 0.59943 0.97528 0.42681 0.0
H391 H 0.59572 0.95397 0.3821 0.0
H392 H 0.70092 0.00766 0.37583 0.0
H393 H 0.70416 0.02918 0.42032 0.0
H394 H 0.57927 0.02979 0.45383 0.0
H395 H 0.5602 0.05306 0.42087 0.0
H396 H 0.65659 0.09113 0.38776 0.0
H397 H 0.6759 0.06916 0.42127 0.0
H398 H 0.59062 0.03816 0.5158 0.0
H399 H 0.57181 0.07515 0.52945 0.0
H400 H 0.65062 0.14237 0.48732 0.0
H401 H 0.6695 0.10529 0.47419 0.0
H402 H 0.62542 0.01349 0.55022 0.0
H403 H 0.62236 0.04141 0.59016 0.0
H404 H 0.69845 0.12327 0.56197 0.0
H405 H 0.70204 0.09529 0.5226 0.0
H406 H 0.6459 0.96563 0.5249 0.0
H407 H 0.67243 0.95005 0.55842 0.0
H408 H 0.76164 0.03367 0.55349 0.0
H409 H 0.73406 0.04952 0.52105 0.0
O410 O 0.61651 0.94525 0.33786 0.0
O411 O 0.67076 0.97292 0.33584 0.0
O412 O 0.57513 0.12757 0.53201 0.0
O413 O 0.6148 0.16281 0.5102 0.0
C414 C 0.66963 0.00655 0.4741 0.0
C415 C 0.65433 0.01536 0.45443 0.0
C416 C 0.64164 0.03575 0.46087 0.0
C417 C 0.64384 0.04696 0.48705 0.0
C418 C 0.65924 0.03822 0.50669 0.0
C419 C 0.67187 0.01783 0.50026 0.0
C420 C 0.6867 0.98846 0.46628 0.0
C421 C 0.66872 0.95886 0.4557 0.0
C422 C 0.68458 0.94512 0.44129 0.0
C423 C 0.71867 0.96076 0.43739 0.0
C424 C 0.73691 0.98935 0.45012 0.0
C425 C 0.72105 0.00304 0.46444 0.0
C426 C 0.65207 0.00354 0.42687 0.0
C427 C 0.62158 0.98253 0.41567 0.0
C428 C 0.61957 0.97034 0.39017 0.0
C429 C 0.64805 0.97899 0.37543 0.0
C430 C 0.67852 1.00042 0.38665 0.0
C431 C 0.68046 0.01268 0.41208 0.0
C432 C 0.62891 0.04756 0.43983 0.0
C433 C 0.59618 0.04306 0.43938 0.0
C434 C 0.58534 0.05629 0.42063 0.0
C435 C 0.6069 0.07359 0.40173 0.0
C436 C 0.63937 0.07747 0.40188 0.0
C437 C 0.65037 0.06487 0.42093 0.0
C438 C 0.63134 0.06903 0.49395 0.0
C439 C 0.60371 0.06087 0.50948 0.0
C440 C 0.59303 0.08203 0.51725 0.0
C441 C 0.60973 0.11174 0.50948 0.0
C442 C 0.63719 0.11971 0.49364 0.0
C443 C 0.64794 0.09855 0.486 0.0
C444 C 0.66381 0.05245 0.53351 0.0
C445 C 0.64238 0.03718 0.55324 0.0
C446 C 0.64055 0.05312 0.57589 0.0
C447 C 0.65989 0.08444 0.57879 0.0
C448 C 0.68318 0.09915 0.56 0.0
C449 C 0.68538 0.0832 0.53766 0.0
C450 C 0.68805 0.00871 0.52071 0.0
C451 C 0.67111 0.98057 0.53125 0.0
C452 C 0.6865 0.97162 0.55021 0.0
C453 C 0.71934 0.99051 0.55871 0.0
C454 C 0.73621 0.0187 0.54785 0.0
C455 C 0.7206 0.02778 0.52919 0.0
C456 C 0.64593 0.96563 0.34852 0.0
C457 C 0.59874 0.13441 0.51794 0.0
H458 H 0.43311 0.3155 0.84826 0.0
H459 H 0.45568 0.14603 0.07782 0.0
H460 H 0.42327 0.3506 0.98764 0.0
H461 H 0.40817 0.38562 0.96685 0.0
H462 H 0.30505 0.32407 0.97454 0.0
H463 H 0.32066 0.28956 0.99625 0.0
H464 H 0.45054 0.31122 0.96104 0.0
H465 H 0.45327 0.3178 0.91393 0.0
H466 H 0.34735 0.26519 0.90615 0.0
H467 H 0.34503 0.2585 0.95328 0.0
H468 H 0.47411 0.28044 0.00225 0.0
H469 H 0.50491 0.26152 0.97496 0.0
H470 H 0.41435 0.19819 0.93451 0.0
H471 H 0.38339 0.21678 0.96274 0.0
H472 H 0.46363 0.2801 0.05893 0.0
H473 H 0.48661 0.24998 0.07881 0.0
H474 H 0.40668 0.16916 0.04322 0.0
H475 H 0.38374 0.19954 0.02373 0.0
H476 H 0.43227 0.32393 0.07681 0.0
H477 H 0.44185 0.32517 0.1237 0.0
H478 H 0.37746 0.22951 0.12295 0.0
H479 H 0.36575 0.22914 0.07612 0.0
H480 H 0.40987 0.35435 0.04207 0.0
H481 H 0.39211 0.38255 0.07283 0.0
H482 H 0.30959 0.29956 0.0927 0.0
H483 H 0.32707 0.27161 0.06128 0.0
O484 O 0.43149 0.31241 0.86682 0.0
O485 O 0.37698 0.28527 0.86388 0.0
O486 O 0.48753 0.20068 0.08826 0.0
O487 O 0.44708 0.15848 0.07027 0.0
C488 C 0.38286 0.29621 0.00505 0.0
C489 C 0.39595 0.28063 0.98917 0.0
C490 C 0.40867 0.26283 0.0007 0.0
C491 C 0.40782 0.26024 0.02809 0.0
C492 C 0.39482 0.27591 0.04402 0.0
C493 C 0.38209 0.29372 0.03242 0.0
C494 C 0.37304 0.3175 0.9932 0.0
C495 C 0.39743 0.34478 0.98491 0.0
C496 C 0.38871 0.36468 0.97295 0.0
C497 C 0.35536 0.35754 0.96876 0.0
C498 C 0.33094 0.33041 0.97768 0.0
C499 C 0.33976 0.31057 0.98989 0.0
C500 C 0.39762 0.28417 0.9605 0.0
C501 C 0.428 0.30092 0.94908 0.0
C502 C 0.42947 0.30474 0.92218 0.0
C503 C 0.40053 0.292 0.90626 0.0
C504 C 0.3701 0.27527 0.91784 0.0
C505 C 0.3687 0.27141 0.94473 0.0
C506 C 0.42653 0.24992 0.98453 0.0
C507 C 0.46084 0.26219 0.98776 0.0
C508 C 0.47841 0.25153 0.97197 0.0
C509 C 0.46208 0.22854 0.9524 0.0
C510 C 0.42755 0.21578 0.94953 0.0
C511 C 0.40989 0.22645 0.96549 0.0
C512 C 0.42186 0.24196 0.0401 0.0
C513 C 0.45101 0.25587 0.05561 0.0
C514 C 0.46414 0.23862 0.06686 0.0
C515 C 0.44844 0.20713 0.06264 0.0
C516 C 0.41935 0.19333 0.04691 0.0
C517 C 0.40621 0.21061 0.03573 0.0
C518 C 0.39815 0.2765 0.07301 0.0
C519 C 0.41942 0.3034 0.08688 0.0
C520 C 0.42532 0.30393 0.11367 0.0
C521 C 0.41093 0.27732 0.12714 0.0
C522 C 0.38878 0.25048 0.11333 0.0
C523 C 0.38226 0.25014 0.08652 0.0
C524 C 0.36956 0.31097 0.04927 0.0
C525 C 0.38753 0.34235 0.05262 0.0
C526 C 0.3776 0.35837 0.07043 0.0
C527 C 0.34954 0.34325 0.08527 0.0
C528 C 0.3311 0.31187 0.08135 0.0
C529 C 0.34107 0.29586 0.06351 0.0
C530 C 0.40215 0.29628 0.87771 0.0
C531 C 0.46229 0.18869 0.07453 0.0
H532 H 0.21282 0.52843 0.24972 0.0
H533 H 0.26847 0.55755 0.32372 0.0
H534 H 0.23311 0.58052 0.33853 0.0
H535 H 0.19903 0.59374 0.24355 0.0
H536 H 0.15799 0.57186 0.22957 0.0
H537 H 0.18881 0.55923 0.22448 0.0
H538 H 0.15041 0.50829 0.24357 0.0
H539 H 0.11951 0.52076 0.2487 0.0
H540 H 0.13445 0.50803 0.27572 0.0
H541 H 0.18995 0.59862 0.34566 0.0
H542 H 0.1427 0.61015 0.34456 0.0
H543 H 0.11533 0.56781 0.26614 0.0
C544 C 0.21785 0.53986 0.26897 0.0
C545 C 0.24346 0.54125 0.28555 0.0
C546 C 0.249 0.55625 0.31066 0.0
C547 C 0.22908 0.56939 0.31923 0.0
C548 C 0.20383 0.56733 0.30241 0.0
C549 C 0.19824 0.55296 0.2778 0.0
C550 C 0.16889 0.55288 0.26378 0.0
C551 C 0.17932 0.57048 0.23887 0.0
C552 C 0.14172 0.52057 0.25759 0.0
C553 C 0.15854 0.56916 0.28445 0.0
C554 C 0.17905 0.57749 0.30655 0.0
C555 C 0.1738 0.59227 0.32842 0.0
C556 C 0.14679 0.59854 0.32768 0.0
C557 C 0.12535 0.58996 0.30525 0.0
C558 C 0.13156 0.57518 0.2834 0.0
H559 H 0.18905 0.89971 0.78764 0.0
H560 H 0.24612 0.89857 0.72052 0.0
H561 H 0.20501 0.84631 0.70838 0.0
H562 H 0.16843 0.82703 0.80525 0.0
H563 H 0.12742 0.81832 0.81531 0.0
H564 H 0.15907 0.8567 0.81707 0.0
H565 H 0.12268 0.87174 0.78819 0.0
H566 H 0.09074 0.83339 0.78652 0.0
H567 H 0.10671 0.85205 0.75683 0.0
H568 H 0.16026 0.79293 0.70567 0.0
H569 H 0.11511 0.74251 0.71245 0.0
H570 H 0.08726 0.77849 0.78137 0.0
C571 C 0.19256 0.88874 0.77005 0.0
C572 C 0.22074 0.90332 0.75493 0.0
C573 C 0.22468 0.88792 0.73234 0.0
C574 C 0.20144 0.85823 0.72527 0.0
C575 C 0.17436 0.84429 0.74096 0.0
C576 C 0.16972 0.85908 0.76281 0.0
C577 C 0.13971 0.83842 0.77731 0.0
C578 C 0.14925 0.83491 0.80539 0.0
C579 C 0.1134 0.84957 0.7772 0.0
C580 C 0.12863 0.80952 0.76054 0.0
C581 C 0.14873 0.81345 0.73952 0.0
C582 C 0.14408 0.78969 0.72185 0.0
C583 C 0.11827 0.76115 0.72581 0.0
C584 C 0.09751 0.75654 0.74736 0.0
C585 C 0.10277 0.78121 0.76478 0.0
H586 H 0.96125 0.86819 0.32565 0.0
H587 H 0.96683 0.88859 0.24387 0.0
H588 H 0.97433 0.84361 0.23213 0.0
H589 H 0.02078 0.84005 0.32604 0.0
H590 H 0.99798 0.81055 0.34753 0.0
H591 H 0.99398 0.84475 0.3495 0.0
H592 H 0.93065 0.81398 0.3423 0.0
H593 H 0.93446 0.77969 0.34046 0.0
H594 H 0.91421 0.78808 0.31403 0.0
H595 H 0.98301 0.79719 0.22975 0.0
H596 H 0.98794 0.75092 0.23627 0.0
H597 H 0.97187 0.75905 0.31924 0.0
C598 C 0.9642 0.86326 0.30528 0.0
C599 C 0.96374 0.88194 0.28566 0.0
C600 C 0.96714 0.87453 0.25919 0.0
C601 C 0.97152 0.84912 0.25236 0.0
C602 C 0.97196 0.83121 0.27222 0.0
C603 C 0.968 0.83776 0.29809 0.0
C604 C 0.96809 0.81429 0.31557 0.0
C605 C 0.99693 0.82825 0.33585 0.0
C606 C 0.93487 0.79805 0.32886 0.0
C607 C 0.97302 0.79362 0.29553 0.0
C608 C 0.97548 0.80387 0.27068 0.0
C609 C 0.98075 0.78876 0.24909 0.0
C610 C 0.98327 0.76234 0.25299 0.0
C611 C 0.98011 0.75102 0.27826 0.0
C612 C 0.97493 0.76711 0.29971 0.0
H613 H 0.72423 0.32739 0.78834 0.0
H614 H 0.78478 0.28119 0.79075 0.0
H615 H 0.83471 0.32964 0.7872 0.0
H616 H 0.77086 0.38107 0.74218 0.0
H617 H 0.76548 0.41133 0.75821 0.0
H618 H 0.73464 0.37302 0.76075 0.0
H619 H 0.74001 0.3803 0.81135 0.0
H620 H 0.77091 0.41864 0.80897 0.0
H621 H 0.77989 0.3933 0.82738 0.0
H622 H 0.87781 0.383 0.78212 0.0
H623 H 0.91114 0.43767 0.77784 0.0
H624 H 0.82244 0.449 0.78041 0.0
C625 C 0.74797 0.3274 0.78804 0.0
C626 C 0.75061 0.30047 0.78967 0.0
C627 C 0.78217 0.30154 0.78951 0.0
C628 C 0.81064 0.32893 0.78747 0.0
C629 C 0.80712 0.35504 0.78588 0.0
C630 C 0.7766 0.35453 0.78633 0.0
C631 C 0.77954 0.38578 0.78477 0.0
C632 C 0.76157 0.38791 0.76 0.0
C633 C 0.76684 0.39504 0.8096 0.0
C634 C 0.8165 0.40398 0.78316 0.0
C635 C 0.83196 0.38582 0.7837 0.0
C636 C 0.86598 0.39744 0.7818 0.0
C637 C 0.88466 0.42844 0.77927 0.0
C638 C 0.86931 0.44744 0.77887 0.0
C639 C 0.83481 0.43499 0.78097 0.0
H640 H 0.36051 0.44807 0.34915 0.0
H641 H 0.45976 0.51837 0.33897 0.0
H642 H 0.48102 0.49641 0.37186 0.0
H643 H 0.36821 0.4428 0.41874 0.0
H644 H 0.34379 0.40253 0.41726 0.0
H645 H 0.3364 0.42439 0.39356 0.0
H646 H 0.34484 0.39221 0.35596 0.0
H647 H 0.35229 0.37029 0.37955 0.0
H648 H 0.38245 0.3887 0.35543 0.0
H649 H 0.49137 0.46635 0.40574 0.0
H650 H 0.49003 0.43043 0.43769 0.0
H651 H 0.38421 0.3789 0.42403 0.0
C652 C 0.38669 0.45901 0.35396 0.0
C653 C 0.40846 0.48502 0.34158 0.0
C654 C 0.4426 0.49846 0.34824 0.0
C655 C 0.45491 0.48616 0.36691 0.0
C656 C 0.43277 0.46038 0.37861 0.0
C657 C 0.39939 0.44694 0.37237 0.0
C658 C 0.3809 0.41898 0.38725 0.0
C659 C 0.35585 0.4224 0.40527 0.0
C660 C 0.36414 0.39089 0.36842 0.0
C661 C 0.40908 0.41877 0.40287 0.0
C662 C 0.43879 0.44285 0.3977 0.0
C663 C 0.46824 0.44735 0.40988 0.0
C664 C 0.46726 0.42669 0.42786 0.0
C665 C 0.43703 0.40177 0.43341 0.0
C666 C 0.40767 0.39789 0.42058 0.0
H667 H 0.4061 0.06387 0.86499 0.0
H668 H 0.33089 0.97167 0.87139 0.0
H669 H 0.3623 0.96614 0.90785 0.0
H670 H 0.47484 0.05194 0.8778 0.0
H671 H 0.498 0.08616 0.89769 0.0
H672 H 0.46868 0.08452 0.87313 0.0
H673 H 0.43836 0.10079 0.90818 0.0
H674 H 0.46811 0.10297 0.93267 0.0
H675 H 0.42474 0.07992 0.93713 0.0
H676 H 0.40377 0.96742 0.93879 0.0
H677 H 0.45172 0.97657 0.96592 0.0
H678 H 0.49923 0.07 0.94499 0.0
C679 C 0.39608 0.04271 0.87434 0.0
C680 C 0.36598 0.0182 0.86513 0.0
C681 C 0.35379 0.99084 0.87791 0.0
C682 C 0.37144 0.9874 0.89875 0.0
C683 C 0.40112 0.01164 0.90703 0.0
C684 C 0.41329 0.03894 0.89563 0.0
C685 C 0.44644 0.06092 0.90829 0.0
C686 C 0.47359 0.07149 0.88801 0.0
C687 C 0.44428 0.08774 0.92241 0.0
C688 C 0.45134 0.04111 0.9277 0.0
C689 C 0.42475 0.01288 0.92653 0.0
C690 C 0.42435 0.98974 0.94063 0.0
C691 C 0.45192 0.99545 0.95641 0.0
C692 C 0.47962 0.0244 0.95867 0.0
C693 C 0.47887 0.04759 0.94411 0.0
H694 H 0.87343 0.96028 0.36861 0.0
H695 H 0.8124 0.92467 0.29763 0.0
H696 H 0.76366 0.91913 0.32212 0.0
H697 H 0.81112 0.91165 0.41356 0.0
H698 H 0.82406 0.94111 0.43918 0.0
H699 H 0.8535 0.94006 0.41641 0.0
H700 H 0.86862 0.99445 0.40447 0.0
H701 H 0.83934 0.99568 0.42719 0.0
H702 H 0.8365 0.00317 0.39343 0.0
H703 H 0.72284 0.92177 0.35361 0.0
H704 H 0.69346 0.93325 0.38914 0.0
H705 H 0.78057 0.96432 0.44023 0.0
C706 C 0.84971 0.95089 0.3583 0.0
C707 C 0.84679 0.94362 0.33109 0.0
C708 C 0.81541 0.93149 0.31825 0.0
C709 C 0.7875 0.92777 0.3321 0.0
C710 C 0.79137 0.93583 0.35884 0.0
C711 C 0.82167 0.94695 0.37183 0.0
C712 C 0.81967 0.95553 0.40028 0.0
C713 C 0.82755 0.93591 0.41842 0.0
C714 C 0.84237 0.9892 0.4067 0.0
C715 C 0.7837 0.94835 0.40111 0.0
C716 C 0.76768 0.93666 0.37711 0.0
C717 C 0.73493 0.93031 0.37264 0.0
C718 C 0.71835 0.93669 0.39305 0.0
C719 C 0.73456 0.94937 0.41763 0.0
C720 C 0.76744 0.95454 0.42174 0.0
H721 H 0.61639 0.25648 0.86672 0.0
H722 H 0.57647 0.15996 0.85203 0.0
H723 H 0.52778 0.15251 0.87781 0.0
H724 H 0.59163 0.25546 0.93236 0.0
H725 H 0.58232 0.28655 0.92953 0.0
H726 H 0.61323 0.2838 0.90957 0.0
H727 H 0.58223 0.28628 0.86777 0.0
H728 H 0.5512 0.28904 0.88762 0.0
H729 H 0.53946 0.25966 0.86203 0.0
H730 H 0.48362 0.15638 0.90624 0.0
H731 H 0.44914 0.17109 0.93491 0.0
H732 H 0.51899 0.26496 0.92926 0.0
C733 C 0.59747 0.23371 0.86882 0.0
C734 C 0.60025 0.2088 0.85738 0.0
C735 C 0.57483 0.1794 0.86063 0.0
C736 C 0.5471 0.17497 0.87521 0.0
C737 C 0.54523 0.20017 0.88624 0.0
C738 C 0.56981 0.22894 0.88312 0.0
C739 C 0.56244 0.2524 0.89701 0.0
C740 C 0.58898 0.27061 0.91838 0.0
C741 C 0.5586 0.27305 0.87744 0.0
C742 C 0.52996 0.23241 0.9087 0.0
C743 C 0.52021 0.20235 0.90229 0.0
C744 C 0.49101 0.17986 0.91129 0.0
C745 C 0.47153 0.18841 0.92744 0.0
C746 C 0.48152 0.21915 0.93446 0.0
C747 C 0.51093 0.24126 0.92462 0.0
H748 H 0.34483 0.12233 0.73129 0.0
H749 H 0.40636 0.0782 0.71698 0.0
H750 H 0.42941 0.1088 0.67888 0.0
H751 H 0.32462 0.12407 0.66452 0.0
H752 H 0.32492 0.16018 0.66818 0.0
H753 H 0.31511 0.13654 0.69548 0.0
H754 H 0.36178 0.17953 0.72367 0.0
H755 H 0.37162 0.20337 0.69649 0.0
H756 H 0.40312 0.19664 0.71188 0.0
H757 H 0.44488 0.14352 0.64176 0.0
H758 H 0.45016 0.17849 0.60749 0.0
H759 H 0.37694 0.19842 0.64509 0.0
C760 C 0.36351 0.11942 0.72038 0.0
C761 C 0.37403 0.09807 0.72722 0.0
C762 C 0.39803 0.0945 0.71213 0.0
C763 C 0.41129 0.1118 0.69049 0.0
C764 C 0.40008 0.13239 0.68407 0.0
C765 C 0.37666 0.1362 0.69852 0.0
C766 C 0.36759 0.15872 0.68672 0.0
C767 C 0.33088 0.14399 0.67822 0.0
C768 C 0.37658 0.1862 0.70583 0.0
C769 C 0.38942 0.16687 0.6633 0.0
C770 C 0.40822 0.15166 0.66225 0.0
C771 C 0.43032 0.15558 0.6424 0.0
C772 C 0.43322 0.17552 0.62309 0.0
C773 C 0.4139 0.19106 0.62362 0.0
C774 C 0.39176 0.1866 0.64405 0.0
H775 H 0.775 0.96837 0.20517 0.0
H776 H 0.76253 0.02132 0.26982 0.0
H777 H 0.72628 0.03301 0.24149 0.0
H778 H 0.7783 0.01631 0.15491 0.0
H779 H 0.75579 0.98593 0.13093 0.0
H780 H 0.78 0.98115 0.15652 0.0
H781 H 0.7285 0.93409 0.17045 0.0
H782 H 0.70414 0.93875 0.14488 0.0
H783 H 0.69162 0.93708 0.17832 0.0
H784 H 0.69289 0.04044 0.20532 0.0
H785 H 0.66401 0.04174 0.16455 0.0
H786 H 0.69837 0.9836 0.12424 0.0
C787 C 0.76457 0.98233 0.21346 0.0
C788 C 0.77166 0.99395 0.23973 0.0
C789 C 0.75746 0.01213 0.24976 0.0
C790 C 0.73684 0.01891 0.23382 0.0
C791 C 0.73054 0.00723 0.20796 0.0
C792 C 0.7439 0.98922 0.19789 0.0
C793 C 0.73361 0.97971 0.16941 0.0
C794 C 0.76372 0.99149 0.15192 0.0
C795 C 0.71326 0.94537 0.16555 0.0
C796 C 0.71256 0.99535 0.16495 0.0
C797 C 0.71107 0.01114 0.18737 0.0
C798 C 0.69373 0.028 0.1877 0.0
C799 C 0.67754 0.02872 0.16447 0.0
C800 C 0.6787 0.01255 0.14135 0.0
C801 C 0.69646 0.99568 0.14175 0.0
H802 H 0.64926 0.14558 0.72381 0.0
H803 H 0.61992 0.20704 0.68812 0.0
H804 H 0.62141 0.18473 0.64444 0.0
H805 H 0.70537 0.14685 0.67588 0.0
H806 H 0.69465 0.10752 0.67658 0.0
H807 H 0.6899 0.12729 0.70526 0.0
H808 H 0.62836 0.08832 0.70658 0.0
H809 H 0.63295 0.06833 0.67795 0.0
H810 H 0.60181 0.08106 0.67805 0.0
H811 H 0.62968 0.15848 0.60472 0.0
H812 H 0.64119 0.12759 0.57121 0.0
H813 H 0.66299 0.08153 0.63221 0.0
C814 C 0.64287 0.15416 0.70682 0.0
C815 C 0.63452 0.1781 0.70938 0.0
C816 C 0.62632 0.18869 0.68666 0.0
C817 C 0.62712 0.17618 0.66175 0.0
C818 C 0.63584 0.1529 0.6599 0.0
C819 C 0.64324 0.14174 0.68178 0.0
C820 C 0.65219 0.11676 0.67424 0.0
C821 C 0.68763 0.12512 0.68354 0.0
C822 C 0.62734 0.08685 0.68483 0.0
C823 C 0.64923 0.11603 0.64467 0.0
C824 C 0.63983 0.13714 0.63687 0.0
C825 C 0.63677 0.1417 0.61057 0.0
C826 C 0.64351 0.12422 0.59173 0.0
C827 C 0.65296 0.10236 0.59928 0.0
C828 C 0.65557 0.09801 0.62606 0.0
H829 H 0.38179 0.46095 0.20628 0.0
H830 H 0.276 0.42993 0.20675 0.0
H831 H 0.2686 0.39513 0.16864 0.0
H832 H 0.38854 0.45832 0.13615 0.0
H833 H 0.41936 0.44524 0.13697 0.0
H834 H 0.41649 0.4681 0.16414 0.0
H835 H 0.41024 0.42704 0.19574 0.0
H836 H 0.41317 0.40411 0.16868 0.0
H837 H 0.37807 0.38918 0.18929 0.0
H838 H 0.27252 0.36322 0.1308 0.0
H839 H 0.28772 0.33632 0.09597 0.0
H840 H 0.39069 0.38776 0.12062 0.0
C841 C 0.35707 0.44692 0.19835 0.0
C842 C 0.3295 0.44822 0.20952 0.0
C843 C 0.29754 0.42936 0.19857 0.0
C844 C 0.29305 0.40952 0.17688 0.0
C845 C 0.32074 0.40879 0.16638 0.0
C846 C 0.35211 0.42695 0.17673 0.0
C847 C 0.37767 0.42146 0.16198 0.0
C848 C 0.40194 0.44998 0.14904 0.0
C849 C 0.39585 0.40974 0.18 0.0
C850 C 0.35573 0.39737 0.14174 0.0
C851 C 0.32298 0.39038 0.14459 0.0
C852 C 0.29809 0.36849 0.12836 0.0
C853 C 0.30693 0.35325 0.10873 0.0
C854 C 0.34036 0.36001 0.10553 0.0
C855 C 0.36497 0.38243 0.12229 0.0
H856 H 0.82888 0.78267 0.75434 0.0
H857 H 0.81923 0.77949 0.66977 0.0
H858 H 0.85447 0.7539 0.66587 0.0
H859 H 0.91327 0.79252 0.75944 0.0
H860 H 0.90457 0.76769 0.78582 0.0
H861 H 0.88158 0.78857 0.782 0.0
H862 H 0.82693 0.73899 0.78038 0.0
H863 H 0.84975 0.71802 0.78428 0.0
H864 H 0.82131 0.70902 0.75673 0.0
H865 H 0.89037 0.72847 0.67126 0.0
H866 H 0.91957 0.70036 0.68513 0.0
H867 H 0.90051 0.71507 0.76629 0.0
C868 C 0.83473 0.77704 0.73503 0.0
C869 C 0.82187 0.78341 0.71231 0.0
C870 C 0.8291 0.77493 0.68736 0.0
C871 C 0.84916 0.76053 0.68498 0.0
C872 C 0.86128 0.75431 0.70776 0.0
C873 C 0.854 0.76193 0.73231 0.0
C874 C 0.86764 0.75026 0.7536 0.0
C875 C 0.89329 0.77632 0.77126 0.0
C876 C 0.83975 0.72773 0.76969 0.0
C877 C 0.88364 0.73485 0.73718 0.0
C878 C 0.88017 0.7379 0.71082 0.0
C879 C 0.89297 0.72568 0.69184 0.0
C880 C 0.90928 0.70945 0.69996 0.0
C881 C 0.91212 0.70495 0.72686 0.0
C882 C 0.8993 0.71823 0.74562 0.0
H883 H 0.68 0.36493 0.29087 0.0
H884 H 0.67196 0.35825 0.375 0.0
H885 H 0.72815 0.40039 0.38137 0.0
H886 H 0.76727 0.38514 0.28764 0.0
H887 H 0.77431 0.41122 0.26252 0.0
H888 H 0.7345 0.37917 0.26454 0.0
H889 H 0.70702 0.41448 0.26744 0.0
H890 H 0.74671 0.4466 0.26544 0.0
H891 H 0.72097 0.44455 0.29257 0.0
H892 H 0.78474 0.44372 0.3785 0.0
H893 H 0.83658 0.48661 0.36694 0.0
H894 H 0.80595 0.46692 0.28473 0.0
C895 C 0.69022 0.37203 0.31063 0.0
C896 C 0.67174 0.35815 0.33246 0.0
C897 C 0.68573 0.36852 0.35801 0.0
C898 C 0.71764 0.39236 0.36181 0.0
C899 C 0.73506 0.40572 0.33986 0.0
C900 C 0.72179 0.39603 0.31478 0.0
C901 C 0.74487 0.4153 0.2946 0.0
C902 C 0.75589 0.39658 0.27625 0.0
C903 C 0.72894 0.43117 0.27911 0.0
C904 C 0.77315 0.43747 0.31226 0.0
C905 C 0.76715 0.43136 0.33826 0.0
C906 C 0.78963 0.44882 0.35821 0.0
C907 C 0.81892 0.47332 0.35143 0.0
C908 C 0.82537 0.48046 0.32491 0.0
C909 C 0.80209 0.46201 0.30515 0.0
H910 H 0.19604 0.5226 0.79863 0.0
H911 H 0.28953 0.60159 0.7901 0.0
H912 H 0.26055 0.63289 0.78834 0.0
H913 H 0.1492 0.542 0.75516 0.0
H914 H 0.11263 0.52785 0.7741 0.0
H915 H 0.14032 0.51137 0.77599 0.0
H916 H 0.14682 0.52172 0.82621 0.0
H917 H 0.11852 0.53761 0.82489 0.0
H918 H 0.15898 0.55926 0.83998 0.0
H919 H 0.22054 0.6549 0.78428 0.0
H920 H 0.17284 0.66607 0.78137 0.0
H921 H 0.10659 0.57326 0.79499 0.0
C922 C 0.21049 0.54652 0.79659 0.0
C923 C 0.24506 0.55965 0.79446 0.0
C924 C 0.26303 0.59105 0.79184 0.0
C925 C 0.24679 0.609 0.79078 0.0
C926 C 0.21263 0.59528 0.79268 0.0
C927 C 0.19474 0.56479 0.79581 0.0
C928 C 0.15823 0.55543 0.79707 0.0
C929 C 0.13897 0.53282 0.77423 0.0
C930 C 0.14486 0.54277 0.82362 0.0
C931 C 0.15834 0.58537 0.79409 0.0
C932 C 0.18988 0.60809 0.79134 0.0
C933 C 0.1958 0.63739 0.78683 0.0
C934 C 0.16872 0.64355 0.78517 0.0
C935 C 0.13644 0.6206 0.78843 0.0
C936 C 0.13125 0.59126 0.793 0.0
H937 H 0.25059 0.87476 0.28134 0.0
H938 H 0.31572 0.85034 0.32531 0.0
H939 H 0.26896 0.80091 0.33231 0.0
H940 H 0.17858 0.83726 0.32072 0.0
H941 H 0.15011 0.82538 0.29292 0.0
H942 H 0.18844 0.85934 0.29232 0.0
H943 H 0.20288 0.83893 0.24944 0.0
H944 H 0.16471 0.80483 0.25 0.0
H945 H 0.20326 0.80305 0.2486 0.0
H946 H 0.21575 0.75364 0.33333 0.0
H947 H 0.15932 0.71189 0.32894 0.0
H948 H 0.12862 0.76694 0.28438 0.0
C949 C 0.25499 0.85916 0.29268 0.0
C950 C 0.28685 0.86648 0.30284 0.0
C951 C 0.29156 0.84528 0.31736 0.0
C952 C 0.26515 0.81713 0.32144 0.0
C953 C 0.23419 0.81051 0.31086 0.0
C954 C 0.22893 0.83092 0.29686 0.0
C955 C 0.19337 0.8179 0.28708 0.0
C956 C 0.17664 0.83605 0.29898 0.0
C957 C 0.19093 0.81607 0.257 0.0
C958 C 0.17952 0.78691 0.29766 0.0
C959 C 0.20348 0.78316 0.31137 0.0
C960 C 0.19672 0.75638 0.3228 0.0
C961 C 0.16456 0.73285 0.3203 0.0
C962 C 0.1395 0.73621 0.30646 0.0
C963 C 0.14726 0.76362 0.29492 0.0
H964 H 0.74691 0.87382 0.64383 0.0
H965 H 0.81135 0.94997 0.69558 0.0
H966 H 0.80653 0.9845 0.66517 0.0
H967 H 0.77615 0.91145 0.58132 0.0
H968 H 0.73531 0.89316 0.56635 0.0
H969 H 0.74714 0.87457 0.59053 0.0
H970 H 0.697 0.86834 0.61774 0.0
H971 H 0.68527 0.88723 0.59387 0.0
H972 H 0.69214 0.90111 0.62766 0.0
H973 H 0.78929 0.01032 0.63239 0.0
H974 H 0.76334 0.02595 0.59801 0.0
H975 H 0.71191 0.93349 0.56619 0.0
C976 C 0.76073 0.89778 0.64844 0.0
C977 C 0.77958 0.90914 0.67211 0.0
C978 C 0.79681 0.94067 0.67758 0.0
C979 C 0.79425 0.96052 0.6604 0.0
C980 C 0.77462 0.94856 0.6377 0.0
C981 C 0.75848 0.91796 0.63147 0.0
C982 C 0.73733 0.91092 0.60662 0.0
C983 C 0.74973 0.89669 0.58492 0.0
C984 C 0.70078 0.89071 0.6118 0.0
C985 C 0.74332 0.94224 0.60037 0.0
C986 C 0.76506 0.96362 0.61845 0.0
C987 C 0.77281 0.99388 0.61774 0.0
C988 C 0.75801 0.00256 0.598 0.0
C989 C 0.73572 0.98109 0.57908 0.0
C990 C 0.72863 0.95055 0.58033 0.0
H991 H 0.53846 0.3263 0.24806 0.0
H992 H 0.46089 0.26241 0.29398 0.0
H993 H 0.42142 0.24982 0.25627 0.0
H994 H 0.48918 0.35283 0.21257 0.0
H995 H 0.51066 0.35543 0.18266 0.0
H996 H 0.53179 0.36039 0.21377 0.0
H997 H 0.54708 0.31801 0.19955 0.0
H998 H 0.52605 0.31295 0.16842 0.0
H999 H 0.51488 0.28149 0.18865 0.0
H1000 H 0.39083 0.24413 0.21254 0.0
H1001 H 0.37265 0.24457 0.16694 0.0
H1002 H 0.47225 0.30998 0.15028 0.0
C1003 C 0.51309 0.30992 0.25039 0.0
C1004 C 0.50263 0.29551 0.274 0.0
C1005 C 0.46935 0.27379 0.27604 0.0
C1006 C 0.44679 0.26656 0.25477 0.0
C1007 C 0.45808 0.28109 0.23164 0.0
C1008 C 0.49053 0.30221 0.22939 0.0
C1009 C 0.49714 0.31364 0.20222 0.0
C1010 C 0.50781 0.34759 0.20286 0.0
C1011 C 0.5228 0.30605 0.18894 0.0
C1012 C 0.46334 0.2957 0.18942 0.0
C1013 C 0.44098 0.27719 0.20663 0.0
C1014 C 0.4082 0.25851 0.19891 0.0
C1015 C 0.39816 0.25878 0.17291 0.0
C1016 C 0.42091 0.27744 0.15493 0.0
C1017 C 0.45391 0.29597 0.16352 0.0
H1018 H 0.3677 0.44432 0.70731 0.0
H1019 H 0.44572 0.46531 0.76584 0.0
H1020 H 0.46593 0.43485 0.73963 0.0
H1021 H 0.34976 0.36878 0.69374 0.0
H1022 H 0.34226 0.36854 0.65908 0.0
H1023 H 0.33525 0.39387 0.68129 0.0
H1024 H 0.37484 0.4392 0.65567 0.0
H1025 H 0.38168 0.41394 0.63318 0.0
H1026 H 0.41618 0.44475 0.65018 0.0
H1027 H 0.47612 0.40006 0.70807 0.0
H1028 H 0.47616 0.36453 0.67267 0.0
H1029 H 0.39148 0.36626 0.63512 0.0
C1030 C 0.38933 0.4429 0.71443 0.0
C1031 C 0.40513 0.45725 0.73863 0.0
C1032 C 0.4332 0.45457 0.74735 0.0
C1033 C 0.44489 0.43729 0.73261 0.0
C1034 C 0.42832 0.42291 0.70914 0.0
C1035 C 0.40132 0.42572 0.69998 0.0
C1036 C 0.38736 0.4072 0.67452 0.0
C1037 C 0.35154 0.38318 0.67735 0.0
C1038 C 0.3902 0.42749 0.65206 0.0
C1039 C 0.41033 0.39313 0.67111 0.0
C1040 C 0.43395 0.40261 0.69116 0.0
C1041 C 0.45781 0.39254 0.6922 0.0
C1042 C 0.45766 0.3724 0.67208 0.0
C1043 C 0.43363 0.36242 0.65137 0.0
C1044 C 0.40974 0.373 0.651 0.0
H1045 H 0.40888 0.98411 0.19817 0.0
H1046 H 0.47523 0.05753 0.25139 0.0
H1047 H 0.51421 0.07788 0.21571 0.0
H1048 H 0.46887 0.97097 0.16832 0.0
H1049 H 0.44945 0.96172 0.13609 0.0
H1050 H 0.42474 0.95567 0.16447 0.0
H1051 H 0.39979 0.98875 0.14665 0.0
H1052 H 0.42436 0.9948 0.11806 0.0
H1053 H 0.42681 0.02648 0.13801 0.0
H1054 H 0.54834 0.08718 0.17522 0.0
H1055 H 0.57516 0.08352 0.13429 0.0
H1056 H 0.48644 0.0035 0.10835 0.0
C1057 C 0.43121 0.00489 0.20224 0.0
C1058 C 0.43887 0.01933 0.22756 0.0
C1059 C 0.46872 0.04615 0.23211 0.0
C1060 C 0.49097 0.05792 0.21194 0.0
C1061 C 0.48295 0.04267 0.18734 0.0
C1062 C 0.45369 0.01676 0.18245 0.0
C1063 C 0.4521 0.00297 0.15518 0.0
C1064 C 0.4486 0.97095 0.15609 0.0
C1065 C 0.42411 0.00329 0.13849 0.0
C1066 C 0.48546 0.02461 0.14572 0.0
C1067 C 0.50273 0.04767 0.16432 0.0
C1068 C 0.53485 0.06946 0.16039 0.0
C1069 C 0.54984 0.06727 0.13707 0.0
C1070 C 0.53284 0.04326 0.11818 0.0
C1071 C 0.50004 0.02208 0.12247 0.0
H1072 H 0.56083 0.20016 0.3587 0.0
H1073 H 0.58655 0.18462 0.2799 0.0
H1074 H 0.59209 0.14063 0.29389 0.0
H1075 H 0.61784 0.18426 0.39112 0.0
H1076 H 0.5918 0.16609 0.41768 0.0
H1077 H 0.58589 0.19404 0.40084 0.0
H1078 H 0.52485 0.15601 0.39078 0.0
H1079 H 0.53059 0.12779 0.40747 0.0
H1080 H 0.51482 0.12019 0.37409 0.0
H1081 H 0.60116 0.10231 0.31734 0.0
H1082 H 0.61233 0.07175 0.34875 0.0
H1083 H 0.57967 0.11133 0.41203 0.0
C1084 C 0.56699 0.18717 0.34425 0.0
C1085 C 0.57318 0.19579 0.31818 0.0
C1086 C 0.58162 0.17841 0.29997 0.0
C1087 C 0.58472 0.15332 0.3077 0.0
C1088 C 0.57904 0.14576 0.33366 0.0
C1089 C 0.57015 0.16204 0.35164 0.0
C1090 C 0.56783 0.15052 0.37876 0.0
C1091 C 0.5923 0.17519 0.39823 0.0
C1092 C 0.5324 0.13786 0.38831 0.0
C1093 C 0.57768 0.12576 0.37334 0.0
C1094 C 0.58381 0.12324 0.34716 0.0
C1095 C 0.59584 0.10366 0.33779 0.0
C1096 C 0.60221 0.0865 0.35572 0.0
C1097 C 0.59642 0.089 0.38262 0.0
C1098 C 0.58346 0.10848 0.39143 0.0
H1099 H 0.3679 0.45996 0.85175 0.0
H1100 H 0.28078 0.46504 0.87945 0.0
H1101 H 0.28131 0.43709 0.91796 0.0
H1102 H 0.34381 0.38625 0.86723 0.0
H1103 H 0.38461 0.39225 0.87667 0.0
H1104 H 0.37942 0.4155 0.85322 0.0
H1105 H 0.4172 0.46329 0.88202 0.0
H1106 H 0.42271 0.44017 0.90553 0.0
H1107 H 0.4077 0.46653 0.91579 0.0
H1108 H 0.28941 0.4048 0.95175 0.0
H1109 H 0.30487 0.37246 0.97779 0.0
H1110 H 0.38507 0.38785 0.92583 0.0
C1111 C 0.34919 0.45577 0.86609 0.0
C1112 C 0.32434 0.46481 0.86259 0.0
C1113 C 0.30019 0.4585 0.88178 0.0
C1114 C 0.30029 0.44261 0.90369 0.0
C1115 C 0.32474 0.43335 0.9061 0.0
C1116 C 0.34884 0.43992 0.88783 0.0
C1117 C 0.37124 0.42605 0.89378 0.0
C1118 C 0.36965 0.40369 0.8714 0.0
C1119 C 0.40682 0.45047 0.89963 0.0
C1120 C 0.35571 0.41013 0.91806 0.0
C1121 C 0.32909 0.41471 0.92509 0.0
C1122 C 0.31037 0.40127 0.94649 0.0
C1123 C 0.31917 0.38275 0.96103 0.0
C1124 C 0.34634 0.37773 0.95399 0.0
C1125 C 0.36467 0.39172 0.93219 0.0
H1126 H 0.43563 0.07662 0.37574 0.0
H1127 H 0.33046 0.0172 0.37061 0.0
H1128 H 0.322 0.04775 0.40633 0.0
H1129 H 0.44341 0.0934 0.44641 0.0
H1130 H 0.47299 0.13211 0.44337 0.0
H1131 H 0.47021 0.10369 0.41907 0.0
H1132 H 0.46121 0.13452 0.38285 0.0
H1133 H 0.46391 0.16242 0.40761 0.0
H1134 H 0.42811 0.14458 0.38584 0.0
H1135 H 0.32505 0.08431 0.44277 0.0
H1136 H 0.33819 0.12758 0.47395 0.0
H1137 H 0.44084 0.16576 0.45269 0.0
C1138 C 0.41087 0.06995 0.3823 0.0
C1139 C 0.38369 0.04444 0.37061 0.0
C1140 C 0.35159 0.03668 0.37934 0.0
C1141 C 0.34658 0.05377 0.3997 0.0
C1142 C 0.37389 0.07876 0.41087 0.0
C1143 C 0.40535 0.08711 0.40225 0.0
C1144 C 0.43012 0.11612 0.41637 0.0
C1145 C 0.4557 0.11103 0.43225 0.0
C1146 C 0.44681 0.14087 0.39702 0.0
C1147 C 0.40763 0.12285 0.43417 0.0
C1148 C 0.37541 0.10073 0.43098 0.0
C1149 C 0.35015 0.10192 0.44527 0.0
C1150 C 0.35787 0.12673 0.46284 0.0
C1151 C 0.39051 0.15041 0.46568 0.0
C1152 C 0.41572 0.14801 0.45136 0.0
H1153 H 0.74709 0.89754 0.83204 0.0
H1154 H 0.81718 0.98166 0.80137 0.0
H1155 H 0.80268 0.00975 0.83525 0.0
H1156 H 0.68549 0.91942 0.8461 0.0
H1157 H 0.67336 0.90031 0.87607 0.0
H1158 H 0.69082 0.8864 0.8507 0.0
H1159 H 0.73609 0.88964 0.88345 0.0
H1160 H 0.71857 0.9033 0.90902 0.0
H1161 H 0.76135 0.92472 0.90156 0.0
H1162 H 0.77743 0.02874 0.86956 0.0
H1163 H 0.74514 0.03763 0.90405 0.0
H1164 H 0.69317 0.94159 0.91438 0.0
C1165 C 0.75977 0.92187 0.83272 0.0
C1166 C 0.78328 0.93737 0.814 0.0
C1167 C 0.7991 0.96923 0.81546 0.0
C1168 C 0.79105 0.98545 0.83465 0.0
C1169 C 0.76731 0.96953 0.85242 0.0
C1170 C 0.75212 0.93848 0.85187 0.0
C1171 C 0.72672 0.92698 0.87285 0.0
C1172 C 0.69205 0.90711 0.86069 0.0
C1173 C 0.73627 0.91017 0.89291 0.0
C1174 C 0.72958 0.9564 0.88483 0.0
C1175 C 0.75318 0.98062 0.87276 0.0
C1176 C 0.7593 0.01 0.87953 0.0
C1177 C 0.74091 0.01482 0.89931 0.0
C1178 C 0.71677 0.9904 0.9123 0.0
C1179 C 0.71124 0.96081 0.90486 0.0
loop_
_geom_bond_atom_site_label_1
_geom_bond_atom_site_label_2
_geom_bond_distance
_geom_bond_site_symmetry_2
_ccdc_geom_bond_type
O0 Cd1 2.300 . S
O0 C7 1.275 . S
Cd1 O0 2.300 . S
Cd1 O9 2.381 . S
Cd1 O10 2.378 . S
O2 Cd3 2.385 . S
O2 C7 1.255 . S
Cd3 O2 2.385 . S
Cd3 O4 2.317 . S
O4 Cd3 2.317 . S
O4 C5 1.232 . S
C5 O4 1.232 . S
C5 O6 1.218 . S
O6 C5 1.218 . S
C7 O0 1.275 . S
C7 O2 1.255 . S
C8 O9 1.258 . S
C8 O10 1.256 . S
O9 Cd1 2.381 . S
O9 C8 1.258 . S
O10 Cd1 2.378 . S
O10 C8 1.256 . S
O11 Cd12 2.300 . S
O11 C18 1.275 . S
Cd12 O11 2.300 . S
Cd12 O20 2.381 . S
Cd12 O21 2.378 . S
O13 Cd14 2.385 . S
O13 C18 1.255 1_565 S
Cd14 O13 2.385 . S
Cd14 O15 2.317 . S
O15 Cd14 2.317 . S
O15 C16 1.232 . S
C16 O15 1.232 . S
C16 O17 1.218 . S
O17 C16 1.218 . S
C18 O11 1.275 . S
C18 O13 1.255 1_545 S
C19 O20 1.258 . S
C19 O21 1.256 . S
O20 Cd12 2.381 . S
O20 C19 1.258 . S
O21 Cd12 2.378 . S
O21 C19 1.256 . S
O22 Cd23 2.300 . S
O22 C29 1.275 . S
Cd23 O22 2.300 . S
Cd23 O31 2.381 . S
Cd23 O32 2.378 . S
O24 Cd25 2.385 . S
O24 C29 1.255 . S
Cd25 O24 2.385 . S
Cd25 O26 2.317 . S
O26 Cd25 2.317 . S
O26 C27 1.232 . S
C27 O26 1.232 . S
C27 O28 1.218 . S
O28 C27 1.218 . S
C29 O22 1.275 . S
C29 O24 1.255 . S
C30 O31 1.258 . S
C30 O32 1.256 . S
O31 Cd23 2.381 . S
O31 C30 1.258 . S
O32 Cd23 2.378 . S
O32 C30 1.256 . S
O33 Cd34 2.300 . S
O33 C40 1.275 . S
Cd34 O33 2.300 . S
Cd34 O42 2.381 . S
Cd34 O43 2.378 . S
O35 Cd36 2.385 . S
O35 C40 1.255 . S
Cd36 O35 2.385 . S
Cd36 O37 2.317 . S
O37 Cd36 2.317 . S
O37 C38 1.232 . S
C38 O37 1.232 . S
C38 O39 1.218 . S
O39 C38 1.218 . S
C40 O33 1.275 . S
C40 O35 1.255 . S
C41 O42 1.258 . S
C41 O43 1.256 . S
O42 Cd34 2.381 . S
O42 C41 1.258 . S
O43 Cd34 2.378 . S
O43 C41 1.256 . S
O44 Cd45 2.300 . S
O44 C51 1.275 . S
Cd45 O44 2.300 . S
Cd45 O53 2.381 . S
Cd45 O54 2.378 . S
O46 Cd47 2.385 . S
O46 C51 1.255 . S
Cd47 O46 2.385 . S
Cd47 O48 2.317 . S
O48 Cd47 2.317 . S
O48 C49 1.232 . S
C49 O48 1.232 . S
C49 O50 1.218 . S
O50 C49 1.218 . S
C51 O44 1.275 . S
C51 O46 1.255 . S
C52 O53 1.258 . S
C52 O54 1.256 . S
O53 Cd45 2.381 . S
O53 C52 1.258 . S
O54 Cd45 2.378 . S
O54 C52 1.256 . S
O55 Cd56 2.300 . S
O55 C62 1.275 . S
Cd56 O55 2.300 . S
Cd56 O64 2.381 . S
Cd56 O65 2.378 . S
O57 Cd58 2.385 . S
O57 C62 1.255 . S
Cd58 O57 2.385 . S
Cd58 O59 2.317 . S
O59 Cd58 2.317 . S
O59 C60 1.232 . S
C60 O59 1.232 . S
C60 O61 1.218 . S
O61 C60 1.218 . S
C62 O55 1.275 . S
C62 O57 1.255 . S
C63 O64 1.258 . S
C63 O65 1.256 . S
O64 Cd56 2.381 . S
O64 C63 1.258 . S
O65 Cd56 2.378 . S
O65 C63 1.256 . S
O66 Cd67 2.300 . S
O66 C73 1.275 . S
Cd67 O66 2.300 . S
Cd67 O75 2.381 . S
Cd67 O76 2.378 . S
O68 Cd69 2.385 . S
O68 C73 1.255 . S
Cd69 O68 2.385 . S
Cd69 O70 2.317 . S
O70 Cd69 2.317 . S
O70 C71 1.232 . S
C71 O70 1.232 . S
C71 O72 1.218 . S
O72 C71 1.218 . S
C73 O66 1.275 . S
C73 O68 1.255 . S
C74 O75 1.258 . S
C74 O76 1.256 . S
O75 Cd67 2.381 . S
O75 C74 1.258 . S
O76 Cd67 2.378 . S
O76 C74 1.256 . S
O77 Cd78 2.317 . S
O77 C84 1.275 . S
Cd78 O77 2.317 . S
Cd78 O86 2.377 1_565 S
Cd78 O87 2.361 1_565 S
O79 Cd80 2.385 . S
O79 C84 1.255 . S
Cd80 O79 2.385 . S
Cd80 O81 2.317 . S
O81 Cd80 2.317 . S
O81 C82 1.232 . S
C82 O81 1.232 . S
C82 O83 1.218 . S
O83 C82 1.218 . S
C84 O77 1.275 . S
C84 O79 1.255 . S
C85 O86 1.258 . S
C85 O87 1.256 . S
O86 Cd78 2.377 1_545 S
O86 C85 1.258 . S
O87 Cd78 2.361 1_545 S
O87 C85 1.256 . S
H88 O114 0.856 . S
H89 O117 0.854 . S
H90 C125 0.930 . S
H91 C126 0.930 . S
H92 C128 0.930 . S
H93 C129 0.930 . S
H94 C131 0.931 . S
H95 C132 0.930 . S
H96 C134 0.930 1_455 S
H97 C135 0.929 . S
H98 C137 0.930 . S
H99 C138 0.931 . S
H100 C140 0.930 . S
H101 C141 0.929 . S
H102 C143 0.931 . S
H103 C144 0.930 . S
H104 C146 0.930 . S
H105 C147 0.932 . S
H106 C149 0.930 . S
H107 C150 0.929 . S
H108 C152 0.931 . S
H109 C153 0.930 . S
H110 C155 0.929 . S
H111 C156 0.931 . S
H112 C158 0.930 . S
H113 C159 0.929 . S
O114 H88 0.856 . S
O114 C160 1.300 . S
O115 C160 1.209 . S
O116 C161 1.199 . S
O117 H89 0.854 . S
O117 C161 1.297 . S
C118 C119 1.404 1_455 S
C118 C123 1.397 . S
C118 C124 1.492 . S
C119 C118 1.404 1_655 S
C119 C120 1.396 . S
C119 C130 1.492 . S
C120 C119 1.396 . S
C120 C121 1.397 . S
C120 C136 1.509 . S
C121 C120 1.397 . S
C121 C122 1.412 . S
C121 C142 1.485 . S
C122 C121 1.412 . S
C122 C123 1.388 1_655 S
C122 C148 1.490 . S
C123 C118 1.397 . S
C123 C122 1.388 1_455 S
C123 C154 1.519 . S
C124 C118 1.492 . S
C124 C125 1.363 . S
C124 C129 1.390 . S
C125 H90 0.930 . S
C125 C124 1.363 . S
C125 C126 1.372 . S
C126 H91 0.930 . S
C126 C125 1.372 . S
C126 C127 1.383 . S
C127 C126 1.383 . S
C127 C128 1.395 . S
C128 H92 0.930 . S
C128 C127 1.395 . S
C128 C129 1.362 . S
C129 H93 0.930 . S
C129 C124 1.390 . S
C129 C128 1.362 . S
C130 C119 1.492 . S
C130 C131 1.377 . S
C130 C135 1.397 . S
C131 H94 0.931 . S
C131 C130 1.377 . S
C131 C132 1.376 . S
C132 H95 0.930 . S
C132 C131 1.376 . S
C132 C133 1.376 . S
C133 C132 1.376 . S
C133 C134 1.378 . S
C133 C160 1.486 . S
C134 H96 0.930 1_655 S
C134 C133 1.378 . S
C134 C135 1.376 . S
C135 H97 0.929 . S
C135 C130 1.397 . S
C135 C134 1.376 . S
C136 C120 1.509 . S
C136 C137 1.391 . S
C136 C141 1.386 . S
C137 H98 0.930 . S
C137 C136 1.391 . S
C137 C138 1.375 . S
C138 H99 0.931 . S
C138 C137 1.375 . S
C138 C139 1.375 . S
C139 C138 1.375 . S
C139 C140 1.361 . S
C140 H100 0.930 . S
C140 C139 1.361 . S
C140 C141 1.399 . S
C141 H101 0.929 . S
C141 C136 1.386 . S
C141 C140 1.399 . S
C142 C121 1.485 . S
C142 C143 1.394 . S
C142 C147 1.360 . S
C143 H102 0.931 . S
C143 C142 1.394 . S
C143 C144 1.372 . S
C144 H103 0.930 . S
C144 C143 1.372 . S
C144 C145 1.397 . S
C145 C144 1.397 . S
C145 C146 1.390 . S
C145 C161 1.476 . S
C146 H104 0.930 . S
C146 C145 1.390 . S
C146 C147 1.366 . S
C147 H105 0.932 . S
C147 C142 1.360 . S
C147 C146 1.366 . S
C148 C122 1.490 . S
C148 C149 1.380 . S
C148 C153 1.386 . S
C149 H106 0.930 . S
C149 C148 1.380 . S
C149 C150 1.381 . S
C150 H107 0.929 . S
C150 C149 1.381 . S
C150 C151 1.371 . S
C151 C150 1.371 . S
C151 C152 1.380 . S
C152 H108 0.931 . S
C152 C151 1.380 . S
C152 C153 1.387 . S
C153 H109 0.930 . S
C153 C148 1.386 . S
C153 C152 1.387 . S
C154 C123 1.519 . S
C154 C155 1.377 . S
C154 C159 1.361 . S
C155 H110 0.929 . S
C155 C154 1.377 . S
C155 C156 1.386 . S
C156 H111 0.931 . S
C156 C155 1.386 . S
C156 C157 1.363 . S
C157 C156 1.363 . S
C157 C158 1.385 . S
C158 H112 0.930 . S
C158 C157 1.385 . S
C158 C159 1.396 . S
C159 H113 0.929 . S
C159 C154 1.361 . S
C159 C158 1.396 . S
C160 O114 1.300 . S
C160 O115 1.209 . S
C160 C133 1.486 . S
C161 O116 1.199 . S
C161 O117 1.297 . S
C161 C145 1.476 . S
H162 O188 0.856 . S
H163 O191 0.854 . S
H164 C199 0.930 . S
H165 C200 0.930 . S
H166 C202 0.930 . S
H167 C203 0.930 . S
H168 C205 0.931 . S
H169 C206 0.930 . S
H170 C208 0.930 . S
H171 C209 0.929 . S
H172 C211 0.930 . S
H173 C212 0.931 . S
H174 C214 0.930 . S
H175 C215 0.929 . S
H176 C217 0.931 . S
H177 C218 0.930 . S
H178 C220 0.930 . S
H179 C221 0.932 . S
H180 C223 0.930 . S
H181 C224 0.929 . S
H182 C226 0.931 . S
H183 C227 0.930 . S
H184 C229 0.929 . S
H185 C230 0.931 . S
H186 C232 0.930 . S
H187 C233 0.929 . S
O188 H162 0.856 . S
O188 C234 1.300 . S
O189 C234 1.209 . S
O190 C235 1.199 . S
O191 H163 0.854 . S
O191 C235 1.297 . S
C192 C193 1.404 1_455 S
C192 C197 1.397 1_455 S
C192 C198 1.492 . S
C193 C192 1.404 1_655 S
C193 C194 1.396 . S
C193 C204 1.492 . S
C194 C193 1.396 . S
C194 C195 1.397 . S
C194 C210 1.509 . S
C195 C194 1.397 . S
C195 C196 1.412 . S
C195 C216 1.485 . S
C196 C195 1.412 . S
C196 C197 1.388 . S
C196 C222 1.490 . S
C197 C192 1.397 1_655 S
C197 C196 1.388 . S
C197 C228 1.519 1_655 S
C198 C192 1.492 . S
C198 C199 1.363 . S
C198 C203 1.390 . S
C199 H164 0.930 . S
C199 C198 1.363 . S
C199 C200 1.372 . S
C200 H165 0.930 . S
C200 C199 1.372 . S
C200 C201 1.383 . S
C201 C200 1.383 . S
C201 C202 1.395 . S
C202 H166 0.930 . S
C202 C201 1.395 . S
C202 C203 1.362 . S
C203 H167 0.930 . S
C203 C198 1.390 . S
C203 C202 1.362 . S
C204 C193 1.492 . S
C204 C205 1.377 . S
C204 C209 1.397 1_655 S
C205 H168 0.931 . S
C205 C204 1.377 . S
C205 C206 1.376 . S
C206 H169 0.930 . S
C206 C205 1.376 . S
C206 C207 1.376 1_655 S
C207 C206 1.376 1_455 S
C207 C208 1.378 . S
C207 C234 1.486 . S
C208 H170 0.930 . S
C208 C207 1.378 . S
C208 C209 1.376 . S
C209 H171 0.929 . S
C209 C204 1.397 1_455 S
C209 C208 1.376 . S
C210 C194 1.509 . S
C210 C211 1.391 . S
C210 C215 1.386 . S
C211 H172 0.930 . S
C211 C210 1.391 . S
C211 C212 1.375 . S
C212 H173 0.931 . S
C212 C211 1.375 . S
C212 C213 1.375 . S
C213 C212 1.375 . S
C213 C214 1.361 . S
C214 H174 0.930 . S
C214 C213 1.361 . S
C214 C215 1.399 . S
C215 H175 0.929 . S
C215 C210 1.386 . S
C215 C214 1.399 . S
C216 C195 1.485 . S
C216 C217 1.394 . S
C216 C221 1.360 . S
C217 H176 0.931 . S
C217 C216 1.394 . S
C217 C218 1.372 . S
C218 H177 0.930 . S
C218 C217 1.372 . S
C218 C219 1.397 . S
C219 C218 1.397 . S
C219 C220 1.390 . S
C219 C235 1.476 . S
C220 H178 0.930 . S
C220 C219 1.390 . S
C220 C221 1.366 . S
C221 H179 0.932 . S
C221 C216 1.360 . S
C221 C220 1.366 . S
C222 C196 1.490 . S
C222 C223 1.380 . S
C222 C227 1.386 . S
C223 H180 0.930 . S
C223 C222 1.380 . S
C223 C224 1.381 . S
C224 H181 0.929 . S
C224 C223 1.381 . S
C224 C225 1.371 . S
C225 C224 1.371 . S
C225 C226 1.380 . S
C226 H182 0.931 . S
C226 C225 1.380 . S
C226 C227 1.387 . S
C227 H183 0.930 . S
C227 C222 1.386 . S
C227 C226 1.387 . S
C228 C197 1.519 1_455 S
C228 C229 1.377 . S
C228 C233 1.361 . S
C229 H184 0.929 . S
C229 C228 1.377 . S
C229 C230 1.386 . S
C230 H185 0.931 . S
C230 C229 1.386 . S
C230 C231 1.363 . S
C231 C230 1.363 . S
C231 C232 1.385 . S
C232 H186 0.930 . S
C232 C231 1.385 . S
C232 C233 1.396 . S
C233 H187 0.929 . S
C233 C228 1.361 . S
C233 C232 1.396 . S
C234 O188 1.300 . S
C234 O189 1.209 . S
C234 C207 1.486 . S
C235 O190 1.199 . S
C235 O191 1.297 . S
C235 C219 1.476 . S
H236 O262 0.856 . S
H237 O265 0.854 . S
H238 C273 0.930 . S
H239 C274 0.930 . S
H240 C276 0.930 . S
H241 C277 0.930 . S
H242 C279 0.931 . S
H243 C280 0.930 . S
H244 C282 0.930 . S
H245 C283 0.929 . S
H246 C285 0.930 . S
H247 C286 0.931 . S
H248 C288 0.930 . S
H249 C289 0.929 . S
H250 C291 0.931 . S
H251 C292 0.930 . S
H252 C294 0.930 . S
H253 C295 0.932 . S
H254 C297 0.930 . S
H255 C298 0.929 . S
H256 C300 0.931 . S
H257 C301 0.930 . S
H258 C303 0.929 . S
H259 C304 0.931 . S
H260 C306 0.930 . S
H261 C307 0.929 . S
O262 H236 0.856 . S
O262 C308 1.300 . S
O263 C308 1.209 . S
O264 C309 1.199 . S
O265 H237 0.854 . S
O265 C309 1.297 . S
C266 C267 1.404 . S
C266 C271 1.397 . S
C266 C272 1.492 . S
C267 C266 1.404 . S
C267 C268 1.396 . S
C267 C278 1.492 . S
C268 C267 1.396 . S
C268 C269 1.397 . S
C268 C284 1.509 . S
C269 C268 1.397 . S
C269 C270 1.412 . S
C269 C290 1.485 . S
C270 C269 1.412 . S
C270 C271 1.388 . S
C270 C296 1.490 . S
C271 C266 1.397 . S
C271 C270 1.388 . S
C271 C302 1.519 . S
C272 C266 1.492 . S
C272 C273 1.363 . S
C272 C277 1.390 . S
C273 H238 0.930 . S
C273 C272 1.363 . S
C273 C274 1.372 . S
C274 H239 0.930 . S
C274 C273 1.372 . S
C274 C275 1.383 . S
C275 C274 1.383 . S
C275 C276 1.395 . S
C276 H240 0.930 . S
C276 C275 1.395 . S
C276 C277 1.362 . S
C277 H241 0.930 . S
C277 C272 1.390 . S
C277 C276 1.362 . S
C278 C267 1.492 . S
C278 C279 1.377 . S
C278 C283 1.397 . S
C279 H242 0.931 . S
C279 C278 1.377 . S
C279 C280 1.376 . S
C280 H243 0.930 . S
C280 C279 1.376 . S
C280 C281 1.376 . S
C281 C280 1.376 . S
C281 C282 1.378 . S
C281 C308 1.486 . S
C282 H244 0.930 . S
C282 C281 1.378 . S
C282 C283 1.376 . S
C283 H245 0.929 . S
C283 C278 1.397 . S
C283 C282 1.376 . S
C284 C268 1.509 . S
C284 C285 1.391 . S
C284 C289 1.386 . S
C285 H246 0.930 . S
C285 C284 1.391 . S
C285 C286 1.375 . S
C286 H247 0.931 . S
C286 C285 1.375 . S
C286 C287 1.375 . S
C287 C286 1.375 . S
C287 C288 1.361 . S
C288 H248 0.930 . S
C288 C287 1.361 . S
C288 C289 1.399 . S
C289 H249 0.929 . S
C289 C284 1.386 . S
C289 C288 1.399 . S
C290 C269 1.485 . S
C290 C291 1.394 . S
C290 C295 1.360 . S
C291 H250 0.931 . S
C291 C290 1.394 . S
C291 C292 1.372 . S
C292 H251 0.930 . S
C292 C291 1.372 . S
C292 C293 1.397 . S
C293 C292 1.397 . S
C293 C294 1.390 . S
C293 C309 1.476 . S
C294 H252 0.930 . S
C294 C293 1.390 . S
C294 C295 1.366 . S
C295 H253 0.932 . S
C295 C290 1.360 . S
C295 C294 1.366 . S
C296 C270 1.490 . S
C296 C297 1.380 . S
C296 C301 1.386 . S
C297 H254 0.930 . S
C297 C296 1.380 . S
C297 C298 1.381 . S
C298 H255 0.929 . S
C298 C297 1.381 . S
C298 C299 1.371 . S
C299 C298 1.371 . S
C299 C300 1.380 . S
C300 H256 0.931 . S
C300 C299 1.380 . S
C300 C301 1.387 . S
C301 H257 0.930 . S
C301 C296 1.386 . S
C301 C300 1.387 . S
C302 C271 1.519 . S
C302 C303 1.377 . S
C302 C307 1.361 . S
C303 H258 0.929 . S
C303 C302 1.377 . S
C303 C304 1.386 . S
C304 H259 0.931 . S
C304 C303 1.386 . S
C304 C305 1.363 . S
C305 C304 1.363 . S
C305 C306 1.385 . S
C306 H260 0.930 . S
C306 C305 1.385 . S
C306 C307 1.396 . S
C307 H261 0.929 . S
C307 C302 1.361 . S
C307 C306 1.396 . S
C308 O262 1.300 . S
C308 O263 1.209 . S
C308 C281 1.486 . S
C309 O264 1.199 . S
C309 O265 1.297 . S
C309 C293 1.476 . S
H310 O336 0.856 1_565 S
H311 O339 0.854 . S
H312 C347 0.930 . S
H313 C348 0.930 . S
H314 C350 0.930 . S
H315 C351 0.930 . S
H316 C353 0.931 . S
H317 C354 0.930 . S
H318 C356 0.930 . S
H319 C357 0.929 . S
H320 C359 0.930 1_545 S
H321 C360 0.936 . S
H322 C362 0.930 . S
H323 C363 0.929 . S
H324 C365 0.931 1_545 S
H325 C366 0.930 1_545 S
H326 C368 0.930 . S
H327 C369 0.932 . S
H328 C371 0.930 . S
H329 C372 0.929 . S
H330 C374 0.931 . S
H331 C375 0.930 . S
H332 C377 0.929 . S
H333 C378 0.931 . S
H334 C380 0.930 . S
H335 C381 0.929 . S
O336 H310 0.856 1_545 S
O336 C382 1.300 1_545 S
O337 C382 1.209 . S
O338 C383 1.199 . S
O339 H311 0.854 . S
O339 C383 1.297 . S
C340 C341 1.404 1_554 S
C340 C345 1.397 . S
C340 C346 1.492 1_565 S
C341 C340 1.404 1_556 S
C341 C342 1.396 . S
C341 C352 1.492 . S
C342 C341 1.396 . S
C342 C343 1.397 1_556 S
C342 C358 1.509 . S
C343 C342 1.397 1_554 S
C343 C344 1.412 . S
C343 C364 1.485 . S
C344 C343 1.412 . S
C344 C345 1.388 . S
C344 C370 1.490 . S
C345 C340 1.397 . S
C345 C344 1.388 . S
C345 C376 1.533 . S
C346 C340 1.492 1_545 S
C346 C347 1.363 1_554 S
C346 C351 1.390 1_545 S
C347 H312 0.930 . S
C347 C346 1.363 1_556 S
C347 C348 1.372 . S
C348 H313 0.930 . S
C348 C347 1.372 . S
C348 C349 1.383 . S
C349 C348 1.383 . S
C349 C350 1.395 1_546 S
C350 H314 0.930 . S
C350 C349 1.395 1_564 S
C350 C351 1.362 . S
C351 H315 0.930 . S
C351 C346 1.390 1_565 S
C351 C350 1.362 . S
C352 C341 1.492 . S
C352 C353 1.377 1_565 S
C352 C357 1.397 . S
C353 H316 0.931 . S
C353 C352 1.377 1_545 S
C353 C354 1.376 . S
C354 H317 0.930 . S
C354 C353 1.376 . S
C354 C355 1.376 1_545 S
C355 C354 1.376 1_565 S
C355 C356 1.378 . S
C355 C382 1.486 . S
C356 H318 0.930 . S
C356 C355 1.378 . S
C356 C357 1.376 . S
C357 H319 0.929 . S
C357 C352 1.397 . S
C357 C356 1.376 . S
C358 C342 1.509 . S
C358 C359 1.391 . S
C358 C363 1.386 . S
C359 H320 0.930 1_565 S
C359 C358 1.391 . S
C359 C360 1.375 . S
C360 H321 0.936 . S
C360 C359 1.375 . S
C360 C361 1.375 . S
C361 C360 1.375 . S
C361 C362 1.361 . S
C362 H322 0.930 . S
C362 C361 1.361 . S
C362 C363 1.399 . S
C363 H323 0.929 . S
C363 C358 1.386 . S
C363 C362 1.399 . S
C364 C343 1.485 . S
C364 C365 1.394 . S
C364 C369 1.360 . S
C365 H324 0.931 1_565 S
C365 C364 1.394 . S
C365 C366 1.372 . S
C366 H325 0.930 1_565 S
C366 C365 1.372 . S
C366 C367 1.397 . S
C367 C366 1.397 . S
C367 C368 1.390 . S
C367 C383 1.476 . S
C368 H326 0.930 . S
C368 C367 1.390 . S
C368 C369 1.366 . S
C369 H327 0.932 . S
C369 C364 1.360 . S
C369 C368 1.366 . S
C370 C344 1.490 . S
C370 C371 1.380 1_565 S
C370 C375 1.386 . S
C371 H328 0.930 . S
C371 C370 1.380 1_545 S
C371 C372 1.381 . S
C372 H329 0.929 . S
C372 C371 1.381 . S
C372 C373 1.367 1_545 S
C373 C372 1.367 1_565 S
C373 C374 1.383 . S
C374 H330 0.931 . S
C374 C373 1.383 . S
C374 C375 1.387 . S
C375 H331 0.930 . S
C375 C370 1.386 . S
C375 C374 1.387 . S
C376 C345 1.533 . S
C376 C377 1.338 1_565 S
C376 C381 1.388 . S
C377 H332 0.929 . S
C377 C376 1.338 1_545 S
C377 C378 1.386 . S
C378 H333 0.931 . S
C378 C377 1.386 . S
C378 C379 1.363 . S
C379 C378 1.363 . S
C379 C380 1.385 1_545 S
C380 H334 0.930 . S
C380 C379 1.385 1_565 S
C380 C381 1.396 . S
C381 H335 0.929 . S
C381 C376 1.388 . S
C381 C380 1.396 . S
C382 O336 1.300 1_565 S
C382 O337 1.209 . S
C382 C355 1.486 . S
C383 O338 1.199 . S
C383 O339 1.297 . S
C383 C367 1.476 . S
H384 O410 0.856 . S
H385 O413 0.854 . S
H386 C421 0.930 . S
H387 C422 0.930 . S
H388 C424 0.930 . S
H389 C425 0.930 . S
H390 C427 0.931 . S
H391 C428 0.928 . S
H392 C430 0.930 . S
H393 C431 0.929 . S
H394 C433 0.930 . S
H395 C434 0.931 . S
H396 C436 0.930 . S
H397 C437 0.929 . S
H398 C439 0.931 . S
H399 C440 0.930 . S
H400 C442 0.930 . S
H401 C443 0.932 . S
H402 C445 0.930 . S
H403 C446 0.929 . S
H404 C448 0.931 . S
H405 C449 0.930 . S
H406 C451 0.929 . S
H407 C452 0.931 . S
H408 C454 0.930 . S
H409 C455 0.929 . S
O410 H384 0.856 . S
O410 C456 1.300 . S
O411 C456 1.209 . S
O412 C457 1.199 . S
O413 H385 0.854 . S
O413 C457 1.297 . S
C414 C415 1.404 . S
C414 C419 1.397 . S
C414 C420 1.492 1_545 S
C415 C414 1.404 . S
C415 C416 1.396 . S
C415 C426 1.492 . S
C416 C415 1.396 . S
C416 C417 1.397 . S
C416 C432 1.509 . S
C417 C416 1.397 . S
C417 C418 1.412 . S
C417 C438 1.485 . S
C418 C417 1.412 . S
C418 C419 1.388 . S
C418 C444 1.490 . S
C419 C414 1.397 . S
C419 C418 1.388 . S
C419 C450 1.519 1_545 S
C420 C414 1.492 1_565 S
C420 C421 1.363 . S
C420 C425 1.390 . S
C421 H386 0.930 . S
C421 C420 1.363 . S
C421 C422 1.372 . S
C422 H387 0.930 . S
C422 C421 1.372 . S
C422 C423 1.383 . S
C423 C422 1.383 . S
C423 C424 1.395 . S
C424 H388 0.930 . S
C424 C423 1.395 . S
C424 C425 1.362 . S
C425 H389 0.930 . S
C425 C420 1.390 . S
C425 C424 1.362 . S
C426 C415 1.492 . S
C426 C427 1.377 . S
C426 C431 1.397 . S
C427 H390 0.931 . S
C427 C426 1.377 . S
C427 C428 1.376 . S
C428 H391 0.928 . S
C428 C427 1.376 . S
C428 C429 1.376 . S
C429 C428 1.376 . S
C429 C430 1.378 . S
C429 C456 1.486 . S
C430 H392 0.930 . S
C430 C429 1.378 . S
C430 C431 1.376 . S
C431 H393 0.929 . S
C431 C426 1.397 . S
C431 C430 1.376 . S
C432 C416 1.509 . S
C432 C433 1.391 . S
C432 C437 1.386 . S
C433 H394 0.930 . S
C433 C432 1.391 . S
C433 C434 1.375 . S
C434 H395 0.931 . S
C434 C433 1.375 . S
C434 C435 1.375 . S
C435 C434 1.375 . S
C435 C436 1.361 . S
C436 H396 0.930 . S
C436 C435 1.361 . S
C436 C437 1.399 . S
C437 H397 0.929 . S
C437 C432 1.386 . S
C437 C436 1.399 . S
C438 C417 1.485 . S
C438 C439 1.394 . S
C438 C443 1.360 . S
C439 H398 0.931 . S
C439 C438 1.394 . S
C439 C440 1.372 . S
C440 H399 0.930 . S
C440 C439 1.372 . S
C440 C441 1.397 . S
C441 C440 1.397 . S
C441 C442 1.390 . S
C441 C457 1.476 . S
C442 H400 0.930 . S
C442 C441 1.390 . S
C442 C443 1.366 . S
C443 H401 0.932 . S
C443 C438 1.360 . S
C443 C442 1.366 . S
C444 C418 1.490 . S
C444 C445 1.380 1_545 S
C444 C449 1.386 . S
C445 H402 0.930 . S
C445 C444 1.380 1_565 S
C445 C446 1.381 . S
C446 H403 0.929 . S
C446 C445 1.381 . S
C446 C447 1.371 1_565 S
C447 C446 1.371 1_545 S
C447 C448 1.380 . S
C448 H404 0.931 . S
C448 C447 1.380 . S
C448 C449 1.387 . S
C449 H405 0.930 . S
C449 C444 1.386 . S
C449 C448 1.387 . S
C450 C419 1.519 1_565 S
C450 C451 1.377 . S
C450 C455 1.361 1_565 S
C451 H406 0.929 . S
C451 C450 1.377 . S
C451 C452 1.386 . S
C452 H407 0.931 . S
C452 C451 1.386 . S
C452 C453 1.363 . S
C453 C452 1.363 . S
C453 C454 1.385 . S
C454 H408 0.930 . S
C454 C453 1.385 . S
C454 C455 1.396 1_565 S
C455 H409 0.929 . S
C455 C450 1.361 1_545 S
C455 C454 1.396 1_545 S
C456 O410 1.300 . S
C456 O411 1.209 . S
C456 C429 1.486 . S
C457 O412 1.199 . S
C457 O413 1.297 . S
C457 C441 1.476 . S
H458 O484 0.856 . S
H459 O487 0.854 . S
H460 C495 0.930 . S
H461 C496 0.930 . S
H462 C498 0.930 . S
H463 C499 0.930 . S
H464 C501 0.931 . S
H465 C502 0.930 . S
H466 C504 0.930 . S
H467 C505 0.929 . S
H468 C507 0.930 . S
H469 C508 0.931 . S
H470 C510 0.930 . S
H471 C511 0.929 . S
H472 C513 0.931 . S
H473 C514 0.930 . S
H474 C516 0.930 . S
H475 C517 0.932 . S
H476 C519 0.930 . S
H477 C520 0.929 . S
H478 C522 0.931 . S
H479 C523 0.930 . S
H480 C525 0.929 . S
H481 C526 0.931 . S
H482 C528 0.930 . S
H483 C529 0.929 . S
O484 H458 0.856 . S
O484 C530 1.300 . S
O485 C530 1.209 . S
O486 C531 1.199 . S
O487 H459 0.854 . S
O487 C531 1.297 . S
C488 C489 1.404 . S
C488 C493 1.397 1_556 S
C488 C494 1.492 . S
C489 C488 1.404 . S
C489 C490 1.396 . S
C489 C500 1.492 . S
C490 C489 1.396 . S
C490 C491 1.397 1_556 S
C490 C506 1.509 . S
C491 C490 1.397 1_554 S
C491 C492 1.412 . S
C491 C512 1.485 . S
C492 C491 1.412 . S
C492 C493 1.388 . S
C492 C518 1.490 . S
C493 C488 1.397 1_554 S
C493 C492 1.388 . S
C493 C524 1.519 . S
C494 C488 1.492 . S
C494 C495 1.363 . S
C494 C499 1.390 . S
C495 H460 0.930 . S
C495 C494 1.363 . S
C495 C496 1.372 . S
C496 H461 0.930 . S
C496 C495 1.372 . S
C496 C497 1.383 . S
C497 C496 1.383 . S
C497 C498 1.395 . S
C498 H462 0.930 . S
C498 C497 1.395 . S
C498 C499 1.362 . S
C499 H463 0.930 . S
C499 C494 1.390 . S
C499 C498 1.362 . S
C500 C489 1.492 . S
C500 C501 1.377 . S
C500 C505 1.397 . S
C501 H464 0.931 . S
C501 C500 1.377 . S
C501 C502 1.376 . S
C502 H465 0.930 . S
C502 C501 1.376 . S
C502 C503 1.376 . S
C503 C502 1.376 . S
C503 C504 1.378 . S
C503 C530 1.486 . S
C504 H466 0.930 . S
C504 C503 1.378 . S
C504 C505 1.376 . S
C505 H467 0.929 . S
C505 C500 1.397 . S
C505 C504 1.376 . S
C506 C490 1.509 . S
C506 C507 1.391 . S
C506 C511 1.386 . S
C507 H468 0.930 . S
C507 C506 1.391 . S
C507 C508 1.375 . S
C508 H469 0.931 . S
C508 C507 1.375 . S
C508 C509 1.375 . S
C509 C508 1.375 . S
C509 C510 1.361 . S
C510 H470 0.930 . S
C510 C509 1.361 . S
C510 C511 1.399 . S
C511 H471 0.929 . S
C511 C506 1.386 . S
C511 C510 1.399 . S
C512 C491 1.485 . S
C512 C513 1.394 . S
C512 C517 1.360 . S
C513 H472 0.931 . S
C513 C512 1.394 . S
C513 C514 1.372 . S
C514 H473 0.930 . S
C514 C513 1.372 . S
C514 C515 1.397 . S
C515 C514 1.397 . S
C515 C516 1.390 . S
C515 C531 1.476 . S
C516 H474 0.930 . S
C516 C515 1.390 . S
C516 C517 1.366 . S
C517 H475 0.932 . S
C517 C512 1.360 . S
C517 C516 1.366 . S
C518 C492 1.490 . S
C518 C519 1.380 . S
C518 C523 1.386 . S
C519 H476 0.930 . S
C519 C518 1.380 . S
C519 C520 1.381 . S
C520 H477 0.929 . S
C520 C519 1.381 . S
C520 C521 1.371 . S
C521 C520 1.371 . S
C521 C522 1.380 . S
C522 H478 0.931 . S
C522 C521 1.380 . S
C522 C523 1.387 . S
C523 H479 0.930 . S
C523 C518 1.386 . S
C523 C522 1.387 . S
C524 C493 1.519 . S
C524 C525 1.377 . S
C524 C529 1.361 . S
C525 H480 0.929 . S
C525 C524 1.377 . S
C525 C526 1.386 . S
C526 H481 0.931 . S
C526 C525 1.386 . S
C526 C527 1.363 . S
C527 C526 1.363 . S
C527 C528 1.385 . S
C528 H482 0.930 . S
C528 C527 1.385 . S
C528 C529 1.396 . S
C529 H483 0.929 . S
C529 C524 1.361 . S
C529 C528 1.396 . S
C530 O484 1.300 . S
C530 O485 1.209 . S
C530 C503 1.486 . S
C531 O486 1.199 . S
C531 O487 1.297 . S
C531 C515 1.476 . S
H532 C544 0.930 . S
H533 C546 0.930 . S
H534 C547 0.930 . S
H535 C551 0.959 . S
H536 C551 0.959 . S
H537 C551 0.961 . S
H538 C552 0.960 . S
H539 C552 0.961 . S
H540 C552 0.959 . S
H541 C555 0.929 . S
H542 C556 0.931 . S
H543 C558 0.930 . S
C544 H532 0.930 . S
C544 C545 1.399 . S
C544 C549 1.399 . S
C545 C544 1.399 . S
C545 C546 1.376 . S
C546 H533 0.930 . S
C546 C545 1.376 . S
C546 C547 1.388 . S
C547 H534 0.930 . S
C547 C546 1.388 . S
C547 C548 1.390 . S
C548 C547 1.390 . S
C548 C549 1.394 . S
C548 C554 1.465 . S
C549 C544 1.399 . S
C549 C548 1.394 . S
C549 C550 1.516 . S
C550 C549 1.516 . S
C550 C551 1.502 . S
C550 C552 1.561 . S
C550 C553 1.526 . S
C551 H535 0.959 . S
C551 H536 0.959 . S
C551 H537 0.961 . S
C551 C550 1.502 . S
C552 H538 0.960 . S
C552 H539 0.961 . S
C552 H540 0.959 . S
C552 C550 1.561 . S
C553 C550 1.526 . S
C553 C554 1.396 . S
C553 C558 1.390 . S
C554 C548 1.465 . S
C554 C553 1.396 . S
C554 C555 1.399 . S
C555 H541 0.929 . S
C555 C554 1.399 . S
C555 C556 1.385 . S
C556 H542 0.931 . S
C556 C555 1.385 . S
C556 C557 1.389 . S
C557 C556 1.389 . S
C557 C558 1.387 . S
C558 H543 0.930 . S
C558 C553 1.390 . S
C558 C557 1.387 . S
H559 C571 0.930 . S
H560 C573 0.930 . S
H561 C574 0.930 . S
H562 C578 0.959 . S
H563 C578 0.959 . S
H564 C578 0.961 . S
H565 C579 0.960 . S
H566 C579 0.961 . S
H567 C579 0.959 . S
H568 C582 0.929 . S
H569 C583 0.931 . S
H570 C585 0.930 . S
C571 H559 0.930 . S
C571 C572 1.399 . S
C571 C576 1.399 . S
C572 C571 1.399 . S
C572 C573 1.376 . S
C573 H560 0.930 . S
C573 C572 1.376 . S
C573 C574 1.388 . S
C574 H561 0.930 . S
C574 C573 1.388 . S
C574 C575 1.390 . S
C575 C574 1.390 . S
C575 C576 1.394 . S
C575 C581 1.465 . S
C576 C571 1.399 . S
C576 C575 1.394 . S
C576 C577 1.516 . S
C577 C576 1.516 . S
C577 C578 1.502 . S
C577 C579 1.561 . S
C577 C580 1.526 . S
C578 H562 0.959 . S
C578 H563 0.959 . S
C578 H564 0.961 . S
C578 C577 1.502 . S
C579 H565 0.960 . S
C579 H566 0.961 . S
C579 H567 0.959 . S
C579 C577 1.561 . S
C580 C577 1.526 . S
C580 C581 1.396 . S
C580 C585 1.390 . S
C581 C575 1.465 . S
C581 C580 1.396 . S
C581 C582 1.399 . S
C582 H568 0.929 . S
C582 C581 1.399 . S
C582 C583 1.385 . S
C583 H569 0.931 . S
C583 C582 1.385 . S
C583 C584 1.389 . S
C584 C583 1.389 . S
C584 C585 1.387 . S
C585 H570 0.930 . S
C585 C580 1.390 . S
C585 C584 1.387 . S
H586 C598 0.930 . S
H587 C600 0.930 . S
H588 C601 0.930 . S
H589 C605 0.959 . S
H590 C605 0.959 . S
H591 C605 0.961 . S
H592 C606 0.960 . S
H593 C606 0.961 . S
H594 C606 0.959 . S
H595 C609 0.929 . S
H596 C610 0.931 . S
H597 C612 0.930 . S
C598 H586 0.930 . S
C598 C599 1.399 . S
C598 C603 1.399 . S
C599 C598 1.399 . S
C599 C600 1.376 . S
C600 H587 0.930 . S
C600 C599 1.376 . S
C600 C601 1.388 . S
C601 H588 0.930 . S
C601 C600 1.388 . S
C601 C602 1.390 . S
C602 C601 1.390 . S
C602 C603 1.394 . S
C602 C608 1.465 . S
C603 C598 1.399 . S
C603 C602 1.394 . S
C603 C604 1.516 . S
C604 C603 1.516 . S
C604 C605 1.502 . S
C604 C606 1.561 . S
C604 C607 1.526 . S
C605 H589 0.959 . S
C605 H590 0.959 . S
C605 H591 0.961 . S
C605 C604 1.502 . S
C606 H592 0.960 . S
C606 H593 0.961 . S
C606 H594 0.959 . S
C606 C604 1.561 . S
C607 C604 1.526 . S
C607 C608 1.396 . S
C607 C612 1.390 . S
C608 C602 1.465 . S
C608 C607 1.396 . S
C608 C609 1.399 . S
C609 H595 0.929 . S
C609 C608 1.399 . S
C609 C610 1.385 . S
C610 H596 0.931 . S
C610 C609 1.385 . S
C610 C611 1.389 . S
C611 C610 1.389 . S
C611 C612 1.387 . S
C612 H597 0.930 . S
C612 C607 1.390 . S
C612 C611 1.387 . S
H613 C625 0.930 . S
H614 C627 0.930 . S
H615 C628 0.930 . S
H616 C632 0.959 . S
H617 C632 0.959 . S
H618 C632 0.961 . S
H619 C633 0.960 . S
H620 C633 0.961 . S
H621 C633 0.959 . S
H622 C636 0.929 . S
H623 C637 0.931 . S
H624 C639 0.930 . S
C625 H613 0.930 . S
C625 C626 1.399 . S
C625 C630 1.399 . S
C626 C625 1.399 . S
C626 C627 1.376 . S
C627 H614 0.930 . S
C627 C626 1.376 . S
C627 C628 1.388 . S
C628 H615 0.930 . S
C628 C627 1.388 . S
C628 C629 1.390 . S
C629 C628 1.390 . S
C629 C630 1.394 . S
C629 C635 1.465 . S
C630 C625 1.399 . S
C630 C629 1.394 . S
C630 C631 1.516 . S
C631 C630 1.516 . S
C631 C632 1.502 . S
C631 C633 1.561 . S
C631 C634 1.526 . S
C632 H616 0.959 . S
C632 H617 0.959 . S
C632 H618 0.961 . S
C632 C631 1.502 . S
C633 H619 0.960 . S
C633 H620 0.961 . S
C633 H621 0.959 . S
C633 C631 1.561 . S
C634 C631 1.526 . S
C634 C635 1.396 . S
C634 C639 1.390 . S
C635 C629 1.465 . S
C635 C634 1.396 . S
C635 C636 1.399 . S
C636 H622 0.929 . S
C636 C635 1.399 . S
C636 C637 1.385 . S
C637 H623 0.931 . S
C637 C636 1.385 . S
C637 C638 1.389 . S
C638 C637 1.389 . S
C638 C639 1.387 . S
C639 H624 0.930 . S
C639 C634 1.390 . S
C639 C638 1.387 . S
H640 C652 0.930 . S
H641 C654 0.930 . S
H642 C655 0.930 . S
H643 C659 0.959 . S
H644 C659 0.959 . S
H645 C659 0.961 . S
H646 C660 0.960 . S
H647 C660 0.961 . S
H648 C660 0.959 . S
H649 C663 0.929 . S
H650 C664 0.931 . S
H651 C666 0.930 . S
C652 H640 0.930 . S
C652 C653 1.399 . S
C652 C657 1.399 . S
C653 C652 1.399 . S
C653 C654 1.376 . S
C654 H641 0.930 . S
C654 C653 1.376 . S
C654 C655 1.388 . S
C655 H642 0.930 . S
C655 C654 1.388 . S
C655 C656 1.390 . S
C656 C655 1.390 . S
C656 C657 1.394 . S
C656 C662 1.465 . S
C657 C652 1.399 . S
C657 C656 1.394 . S
C657 C658 1.516 . S
C658 C657 1.516 . S
C658 C659 1.502 . S
C658 C660 1.561 . S
C658 C661 1.526 . S
C659 H643 0.959 . S
C659 H644 0.959 . S
C659 H645 0.961 . S
C659 C658 1.502 . S
C660 H646 0.960 . S
C660 H647 0.961 . S
C660 H648 0.959 . S
C660 C658 1.561 . S
C661 C658 1.526 . S
C661 C662 1.396 . S
C661 C666 1.390 . S
C662 C656 1.465 . S
C662 C661 1.396 . S
C662 C663 1.399 . S
C663 H649 0.929 . S
C663 C662 1.399 . S
C663 C664 1.385 . S
C664 H650 0.931 . S
C664 C663 1.385 . S
C664 C665 1.389 . S
C665 C664 1.389 . S
C665 C666 1.387 . S
C666 H651 0.930 . S
C666 C661 1.390 . S
C666 C665 1.387 . S
H667 C679 0.930 . S
H668 C681 0.930 . S
H669 C682 0.930 . S
H670 C686 0.959 . S
H671 C686 0.959 . S
H672 C686 0.961 . S
H673 C687 0.960 . S
H674 C687 0.961 . S
H675 C687 0.959 . S
H676 C690 0.929 . S
H677 C691 0.931 . S
H678 C693 0.930 . S
C679 H667 0.930 . S
C679 C680 1.399 . S
C679 C684 1.399 . S
C680 C679 1.399 . S
C680 C681 1.376 1_545 S
C681 H668 0.930 . S
C681 C680 1.376 1_565 S
C681 C682 1.388 . S
C682 H669 0.930 . S
C682 C681 1.388 . S
C682 C683 1.390 . S
C683 C682 1.390 . S
C683 C684 1.394 1_565 S
C683 C689 1.465 1_565 S
C684 C679 1.399 . S
C684 C683 1.394 1_545 S
C684 C685 1.516 . S
C685 C684 1.516 . S
C685 C686 1.502 . S
C685 C687 1.561 . S
C685 C688 1.526 . S
C686 H670 0.959 . S
C686 H671 0.959 . S
C686 H672 0.961 . S
C686 C685 1.502 . S
C687 H673 0.960 . S
C687 H674 0.961 . S
C687 H675 0.959 . S
C687 C685 1.561 . S
C688 C685 1.526 . S
C688 C689 1.396 . S
C688 C693 1.390 . S
C689 C683 1.465 1_545 S
C689 C688 1.396 . S
C689 C690 1.399 1_545 S
C690 H676 0.929 . S
C690 C689 1.399 1_565 S
C690 C691 1.385 . S
C691 H677 0.931 . S
C691 C690 1.385 . S
C691 C692 1.389 1_565 S
C692 C691 1.389 1_545 S
C692 C693 1.387 . S
C693 H678 0.930 . S
C693 C688 1.390 . S
C693 C692 1.387 . S
H694 C706 0.930 . S
H695 C708 0.930 . S
H696 C709 0.930 . S
H697 C713 0.959 . S
H698 C713 0.959 . S
H699 C713 0.961 . S
H700 C714 0.960 . S
H701 C714 0.961 . S
H702 C714 0.959 . S
H703 C717 0.929 . S
H704 C718 0.931 . S
H705 C720 0.930 . S
C706 H694 0.930 . S
C706 C707 1.399 . S
C706 C711 1.399 . S
C707 C706 1.399 . S
C707 C708 1.376 . S
C708 H695 0.930 . S
C708 C707 1.376 . S
C708 C709 1.388 . S
C709 H696 0.930 . S
C709 C708 1.388 . S
C709 C710 1.390 . S
C710 C709 1.390 . S
C710 C711 1.394 . S
C710 C716 1.465 . S
C711 C706 1.399 . S
C711 C710 1.394 . S
C711 C712 1.516 . S
C712 C711 1.516 . S
C712 C713 1.502 . S
C712 C714 1.561 . S
C712 C715 1.526 . S
C713 H697 0.959 . S
C713 H698 0.959 . S
C713 H699 0.961 . S
C713 C712 1.502 . S
C714 H700 0.960 . S
C714 H701 0.961 . S
C714 H702 0.959 . S
C714 C712 1.561 . S
C715 C712 1.526 . S
C715 C716 1.396 . S
C715 C720 1.390 . S
C716 C710 1.465 . S
C716 C715 1.396 . S
C716 C717 1.399 . S
C717 H703 0.929 . S
C717 C716 1.399 . S
C717 C718 1.385 . S
C718 H704 0.931 . S
C718 C717 1.385 . S
C718 C719 1.389 . S
C719 C718 1.389 . S
C719 C720 1.387 . S
C720 H705 0.930 . S
C720 C715 1.390 . S
C720 C719 1.387 . S
H721 C733 0.930 . S
H722 C735 0.930 . S
H723 C736 0.930 . S
H724 C740 0.959 . S
H725 C740 0.959 . S
H726 C740 0.961 . S
H727 C741 0.960 . S
H728 C741 0.961 . S
H729 C741 0.959 . S
H730 C744 0.929 . S
H731 C745 0.931 . S
H732 C747 0.930 . S
C733 H721 0.930 . S
C733 C734 1.399 . S
C733 C738 1.399 . S
C734 C733 1.399 . S
C734 C735 1.376 . S
C735 H722 0.930 . S
C735 C734 1.376 . S
C735 C736 1.388 . S
C736 H723 0.930 . S
C736 C735 1.388 . S
C736 C737 1.390 . S
C737 C736 1.390 . S
C737 C738 1.394 . S
C737 C743 1.465 . S
C738 C733 1.399 . S
C738 C737 1.394 . S
C738 C739 1.516 . S
C739 C738 1.516 . S
C739 C740 1.502 . S
C739 C741 1.561 . S
C739 C742 1.526 . S
C740 H724 0.959 . S
C740 H725 0.959 . S
C740 H726 0.961 . S
C740 C739 1.502 . S
C741 H727 0.960 . S
C741 H728 0.961 . S
C741 H729 0.959 . S
C741 C739 1.561 . S
C742 C739 1.526 . S
C742 C743 1.396 . S
C742 C747 1.390 . S
C743 C737 1.465 . S
C743 C742 1.396 . S
C743 C744 1.399 . S
C744 H730 0.929 . S
C744 C743 1.399 . S
C744 C745 1.385 . S
C745 H731 0.931 . S
C745 C744 1.385 . S
C745 C746 1.389 . S
C746 C745 1.389 . S
C746 C747 1.387 . S
C747 H732 0.930 . S
C747 C742 1.390 . S
C747 C746 1.387 . S
H748 C760 0.930 . S
H749 C762 0.930 . S
H750 C763 0.930 . S
H751 C767 0.959 . S
H752 C767 0.959 . S
H753 C767 0.961 . S
H754 C768 0.960 . S
H755 C768 0.961 . S
H756 C768 0.959 . S
H757 C771 0.929 . S
H758 C772 0.931 . S
H759 C774 0.930 . S
C760 H748 0.930 . S
C760 C761 1.399 . S
C760 C765 1.399 . S
C761 C760 1.399 . S
C761 C762 1.376 . S
C762 H749 0.930 . S
C762 C761 1.376 . S
C762 C763 1.388 . S
C763 H750 0.930 . S
C763 C762 1.388 . S
C763 C764 1.390 . S
C764 C763 1.390 . S
C764 C765 1.394 . S
C764 C770 1.465 . S
C765 C760 1.399 . S
C765 C764 1.394 . S
C765 C766 1.516 . S
C766 C765 1.516 . S
C766 C767 1.502 . S
C766 C768 1.561 . S
C766 C769 1.526 . S
C767 H751 0.959 . S
C767 H752 0.959 . S
C767 H753 0.961 . S
C767 C766 1.502 . S
C768 H754 0.960 . S
C768 H755 0.961 . S
C768 H756 0.959 . S
C768 C766 1.561 . S
C769 C766 1.526 . S
C769 C770 1.396 . S
C769 C774 1.390 . S
C770 C764 1.465 . S
C770 C769 1.396 . S
C770 C771 1.399 . S
C771 H757 0.929 . S
C771 C770 1.399 . S
C771 C772 1.385 . S
C772 H758 0.931 . S
C772 C771 1.385 . S
C772 C773 1.389 . S
C773 C772 1.389 . S
C773 C774 1.387 . S
C774 H759 0.930 . S
C774 C769 1.390 . S
C774 C773 1.387 . S
H775 C787 0.930 . S
H776 C789 0.930 1_545 S
H777 C790 0.930 . S
H778 C794 0.959 . S
H779 C794 0.959 . S
H780 C794 0.961 . S
H781 C795 0.960 . S
H782 C795 0.961 . S
H783 C795 0.959 . S
H784 C798 0.929 . S
H785 C799 0.931 . S
H786 C801 0.930 . S
C787 H775 0.930 . S
C787 C788 1.399 . S
C787 C792 1.399 . S
C788 C787 1.399 . S
C788 C789 1.376 . S
C789 H776 0.930 1_565 S
C789 C788 1.376 . S
C789 C790 1.388 1_565 S
C790 H777 0.930 . S
C790 C789 1.388 1_545 S
C790 C791 1.390 1_545 S
C791 C790 1.390 1_565 S
C791 C792 1.394 . S
C791 C797 1.465 . S
C792 C787 1.399 . S
C792 C791 1.394 . S
C792 C793 1.516 . S
C793 C792 1.516 . S
C793 C794 1.502 . S
C793 C795 1.561 . S
C793 C796 1.526 . S
C794 H778 0.959 . S
C794 H779 0.959 . S
C794 H780 0.961 . S
C794 C793 1.502 . S
C795 H781 0.960 . S
C795 H782 0.961 . S
C795 H783 0.959 . S
C795 C793 1.561 . S
C796 C793 1.526 . S
C796 C797 1.396 . S
C796 C801 1.390 . S
C797 C791 1.465 . S
C797 C796 1.396 . S
C797 C798 1.399 1_565 S
C798 H784 0.929 . S
C798 C797 1.399 1_545 S
C798 C799 1.385 . S
C799 H785 0.931 . S
C799 C798 1.385 . S
C799 C800 1.369 1_545 S
C800 C799 1.369 1_565 S
C800 C801 1.425 . S
C801 H786 0.930 . S
C801 C796 1.390 . S
C801 C800 1.425 . S
H802 C814 0.930 . S
H803 C816 0.930 . S
H804 C817 0.930 . S
H805 C821 0.959 . S
H806 C821 0.959 . S
H807 C821 0.961 . S
H808 C822 0.960 . S
H809 C822 0.961 . S
H810 C822 0.959 . S
H811 C825 0.929 . S
H812 C826 0.931 . S
H813 C828 0.930 . S
C814 H802 0.930 . S
C814 C815 1.399 . S
C814 C819 1.399 . S
C815 C814 1.399 . S
C815 C816 1.376 . S
C816 H803 0.930 . S
C816 C815 1.376 . S
C816 C817 1.388 . S
C817 H804 0.930 . S
C817 C816 1.388 . S
C817 C818 1.390 . S
C818 C817 1.390 . S
C818 C819 1.394 . S
C818 C824 1.465 . S
C819 C814 1.399 . S
C819 C818 1.394 . S
C819 C820 1.516 . S
C820 C819 1.516 . S
C820 C821 1.502 . S
C820 C822 1.561 . S
C820 C823 1.526 . S
C821 H805 0.959 . S
C821 H806 0.959 . S
C821 H807 0.961 . S
C821 C820 1.502 . S
C822 H808 0.960 . S
C822 H809 0.961 . S
C822 H810 0.959 . S
C822 C820 1.561 . S
C823 C820 1.526 . S
C823 C824 1.396 . S
C823 C828 1.390 . S
C824 C818 1.465 . S
C824 C823 1.396 . S
C824 C825 1.399 . S
C825 H811 0.929 . S
C825 C824 1.399 . S
C825 C826 1.385 . S
C826 H812 0.931 . S
C826 C825 1.385 . S
C826 C827 1.389 . S
C827 C826 1.389 . S
C827 C828 1.387 . S
C828 H813 0.930 . S
C828 C823 1.390 . S
C828 C827 1.387 . S
H829 C841 0.930 . S
H830 C843 0.930 . S
H831 C844 0.930 . S
H832 C848 0.959 . S
H833 C848 0.959 . S
H834 C848 0.961 . S
H835 C849 0.960 . S
H836 C849 0.961 . S
H837 C849 0.959 . S
H838 C852 0.929 . S
H839 C853 0.931 . S
H840 C855 0.930 . S
C841 H829 0.930 . S
C841 C842 1.399 . S
C841 C846 1.399 . S
C842 C841 1.399 . S
C842 C843 1.376 . S
C843 H830 0.930 . S
C843 C842 1.376 . S
C843 C844 1.388 . S
C844 H831 0.930 . S
C844 C843 1.388 . S
C844 C845 1.390 . S
C845 C844 1.390 . S
C845 C846 1.394 . S
C845 C851 1.465 . S
C846 C841 1.399 . S
C846 C845 1.394 . S
C846 C847 1.516 . S
C847 C846 1.516 . S
C847 C848 1.502 . S
C847 C849 1.561 . S
C847 C850 1.526 . S
C848 H832 0.959 . S
C848 H833 0.959 . S
C848 H834 0.961 . S
C848 C847 1.502 . S
C849 H835 0.960 . S
C849 H836 0.961 . S
C849 H837 0.959 . S
C849 C847 1.561 . S
C850 C847 1.526 . S
C850 C851 1.396 . S
C850 C855 1.390 . S
C851 C845 1.465 . S
C851 C850 1.396 . S
C851 C852 1.399 . S
C852 H838 0.929 . S
C852 C851 1.399 . S
C852 C853 1.385 . S
C853 H839 0.931 . S
C853 C852 1.385 . S
C853 C854 1.389 . S
C854 C853 1.389 . S
C854 C855 1.387 . S
C855 H840 0.930 . S
C855 C850 1.390 . S
C855 C854 1.387 . S
H856 C868 0.930 . S
H857 C870 0.930 . S
H858 C871 0.930 . S
H859 C875 0.959 . S
H860 C875 0.959 . S
H861 C875 0.961 . S
H862 C876 0.960 . S
H863 C876 0.961 . S
H864 C876 0.959 . S
H865 C879 0.929 . S
H866 C880 0.931 . S
H867 C882 0.930 . S
C868 H856 0.930 . S
C868 C869 1.399 . S
C868 C873 1.399 . S
C869 C868 1.399 . S
C869 C870 1.376 . S
C870 H857 0.930 . S
C870 C869 1.376 . S
C870 C871 1.388 . S
C871 H858 0.930 . S
C871 C870 1.388 . S
C871 C872 1.390 . S
C872 C871 1.390 . S
C872 C873 1.394 . S
C872 C878 1.465 . S
C873 C868 1.399 . S
C873 C872 1.394 . S
C873 C874 1.516 . S
C874 C873 1.516 . S
C874 C875 1.502 . S
C874 C876 1.561 . S
C874 C877 1.526 . S
C875 H859 0.959 . S
C875 H860 0.959 . S
C875 H861 0.961 . S
C875 C874 1.502 . S
C876 H862 0.960 . S
C876 H863 0.961 . S
C876 H864 0.959 . S
C876 C874 1.561 . S
C877 C874 1.526 . S
C877 C878 1.396 . S
C877 C882 1.390 . S
C878 C872 1.465 . S
C878 C877 1.396 . S
C878 C879 1.399 . S
C879 H865 0.929 . S
C879 C878 1.399 . S
C879 C880 1.385 . S
C880 H866 0.931 . S
C880 C879 1.385 . S
C880 C881 1.389 . S
C881 C880 1.389 . S
C881 C882 1.387 . S
C882 H867 0.930 . S
C882 C877 1.390 . S
C882 C881 1.387 . S
H883 C895 0.930 . S
H884 C897 0.930 . S
H885 C898 0.930 . S
H886 C902 0.959 . S
H887 C902 0.959 . S
H888 C902 0.961 . S
H889 C903 0.960 . S
H890 C903 0.961 . S
H891 C903 0.959 . S
H892 C906 0.929 . S
H893 C907 0.931 . S
H894 C909 0.930 . S
C895 H883 0.930 . S
C895 C896 1.399 . S
C895 C900 1.399 . S
C896 C895 1.399 . S
C896 C897 1.376 . S
C897 H884 0.930 . S
C897 C896 1.376 . S
C897 C898 1.388 . S
C898 H885 0.930 . S
C898 C897 1.388 . S
C898 C899 1.390 . S
C899 C898 1.390 . S
C899 C900 1.394 . S
C899 C905 1.465 . S
C900 C895 1.399 . S
C900 C899 1.394 . S
C900 C901 1.516 . S
C901 C900 1.516 . S
C901 C902 1.502 . S
C901 C903 1.561 . S
C901 C904 1.526 . S
C902 H886 0.959 . S
C902 H887 0.959 . S
C902 H888 0.961 . S
C902 C901 1.502 . S
C903 H889 0.960 . S
C903 H890 0.961 . S
C903 H891 0.959 . S
C903 C901 1.561 . S
C904 C901 1.526 . S
C904 C905 1.396 . S
C904 C909 1.390 . S
C905 C899 1.465 . S
C905 C904 1.396 . S
C905 C906 1.399 . S
C906 H892 0.929 . S
C906 C905 1.399 . S
C906 C907 1.385 . S
C907 H893 0.931 . S
C907 C906 1.385 . S
C907 C908 1.389 . S
C908 C907 1.389 . S
C908 C909 1.387 . S
C909 H894 0.930 . S
C909 C904 1.390 . S
C909 C908 1.387 . S
H910 C922 0.930 . S
H911 C924 0.930 . S
H912 C925 0.930 . S
H913 C929 0.959 . S
H914 C929 0.959 . S
H915 C929 0.961 . S
H916 C930 0.960 . S
H917 C930 0.961 . S
H918 C930 0.959 . S
H919 C933 0.929 . S
H920 C934 0.931 . S
H921 C936 0.930 . S
C922 H910 0.930 . S
C922 C923 1.399 . S
C922 C927 1.399 . S
C923 C922 1.399 . S
C923 C924 1.376 . S
C924 H911 0.930 . S
C924 C923 1.376 . S
C924 C925 1.388 . S
C925 H912 0.930 . S
C925 C924 1.388 . S
C925 C926 1.390 . S
C926 C925 1.390 . S
C926 C927 1.394 . S
C926 C932 1.465 . S
C927 C922 1.399 . S
C927 C926 1.394 . S
C927 C928 1.516 . S
C928 C927 1.516 . S
C928 C929 1.502 . S
C928 C930 1.561 . S
C928 C931 1.526 . S
C929 H913 0.959 . S
C929 H914 0.959 . S
C929 H915 0.961 . S
C929 C928 1.502 . S
C930 H916 0.960 . S
C930 H917 0.961 . S
C930 H918 0.959 . S
C930 C928 1.561 . S
C931 C928 1.526 . S
C931 C932 1.396 . S
C931 C936 1.390 . S
C932 C926 1.465 . S
C932 C931 1.396 . S
C932 C933 1.399 . S
C933 H919 0.929 . S
C933 C932 1.399 . S
C933 C934 1.385 . S
C934 H920 0.931 . S
C934 C933 1.385 . S
C934 C935 1.389 . S
C935 C934 1.389 . S
C935 C936 1.387 . S
C936 H921 0.930 . S
C936 C931 1.390 . S
C936 C935 1.387 . S
H937 C949 0.930 . S
H938 C951 0.930 . S
H939 C952 0.930 . S
H940 C956 0.959 . S
H941 C956 0.959 . S
H942 C956 0.961 . S
H943 C957 0.960 . S
H944 C957 0.961 . S
H945 C957 0.959 . S
H946 C960 0.929 . S
H947 C961 0.931 . S
H948 C963 0.930 . S
C949 H937 0.930 . S
C949 C950 1.399 . S
C949 C954 1.399 . S
C950 C949 1.399 . S
C950 C951 1.376 . S
C951 H938 0.930 . S
C951 C950 1.376 . S
C951 C952 1.388 . S
C952 H939 0.930 . S
C952 C951 1.388 . S
C952 C953 1.390 . S
C953 C952 1.390 . S
C953 C954 1.394 . S
C953 C959 1.465 . S
C954 C949 1.399 . S
C954 C953 1.394 . S
C954 C955 1.516 . S
C955 C954 1.516 . S
C955 C956 1.502 . S
C955 C957 1.561 . S
C955 C958 1.526 . S
C956 H940 0.959 . S
C956 H941 0.959 . S
C956 H942 0.961 . S
C956 C955 1.502 . S
C957 H943 0.960 . S
C957 H944 0.961 . S
C957 H945 0.959 . S
C957 C955 1.561 . S
C958 C955 1.526 . S
C958 C959 1.396 . S
C958 C963 1.390 . S
C959 C953 1.465 . S
C959 C958 1.396 . S
C959 C960 1.399 . S
C960 H946 0.929 . S
C960 C959 1.399 . S
C960 C961 1.385 . S
C961 H947 0.931 . S
C961 C960 1.385 . S
C961 C962 1.389 . S
C962 C961 1.389 . S
C962 C963 1.387 . S
C963 H948 0.930 . S
C963 C958 1.390 . S
C963 C962 1.387 . S
H964 C976 0.930 . S
H965 C978 0.930 . S
H966 C979 0.930 . S
H967 C983 0.959 . S
H968 C983 0.959 . S
H969 C983 0.961 . S
H970 C984 0.960 . S
H971 C984 0.961 . S
H972 C984 0.959 . S
H973 C987 0.929 . S
H974 C988 0.931 . S
H975 C990 0.930 . S
C976 H964 0.930 . S
C976 C977 1.399 . S
C976 C981 1.399 . S
C977 C976 1.399 . S
C977 C978 1.376 . S
C978 H965 0.930 . S
C978 C977 1.376 . S
C978 C979 1.388 . S
C979 H966 0.930 . S
C979 C978 1.388 . S
C979 C980 1.390 . S
C980 C979 1.390 . S
C980 C981 1.394 . S
C980 C986 1.465 . S
C981 C976 1.399 . S
C981 C980 1.394 . S
C981 C982 1.516 . S
C982 C981 1.516 . S
C982 C983 1.502 . S
C982 C984 1.561 . S
C982 C985 1.526 . S
C983 H967 0.959 . S
C983 H968 0.959 . S
C983 H969 0.961 . S
C983 C982 1.502 . S
C984 H970 0.960 . S
C984 H971 0.961 . S
C984 H972 0.959 . S
C984 C982 1.561 . S
C985 C982 1.526 . S
C985 C986 1.396 . S
C985 C990 1.390 . S
C986 C980 1.465 . S
C986 C985 1.396 . S
C986 C987 1.399 . S
C987 H973 0.929 . S
C987 C986 1.399 . S
C987 C988 1.385 . S
C988 H974 0.931 . S
C988 C987 1.385 . S
C988 C989 1.389 . S
C989 C988 1.389 . S
C989 C990 1.387 . S
C990 H975 0.930 . S
C990 C985 1.390 . S
C990 C989 1.387 . S
H991 C1003 0.930 . S
H992 C1005 0.930 . S
H993 C1006 0.930 . S
H994 C1010 0.959 . S
H995 C1010 0.959 . S
H996 C1010 0.961 . S
H997 C1011 0.960 . S
H998 C1011 0.961 . S
H999 C1011 0.959 . S
H1000 C1014 0.929 . S
H1001 C1015 0.931 . S
H1002 C1017 0.930 . S
C1003 H991 0.930 . S
C1003 C1004 1.399 . S
C1003 C1008 1.399 . S
C1004 C1003 1.399 . S
C1004 C1005 1.376 . S
C1005 H992 0.930 . S
C1005 C1004 1.376 . S
C1005 C1006 1.388 . S
C1006 H993 0.930 . S
C1006 C1005 1.388 . S
C1006 C1007 1.390 . S
C1007 C1006 1.390 . S
C1007 C1008 1.394 . S
C1007 C1013 1.465 . S
C1008 C1003 1.399 . S
C1008 C1007 1.394 . S
C1008 C1009 1.516 . S
C1009 C1008 1.516 . S
C1009 C1010 1.502 . S
C1009 C1011 1.561 . S
C1009 C1012 1.526 . S
C1010 H994 0.959 . S
C1010 H995 0.959 . S
C1010 H996 0.961 . S
C1010 C1009 1.502 . S
C1011 H997 0.960 . S
C1011 H998 0.961 . S
C1011 H999 0.959 . S
C1011 C1009 1.561 . S
C1012 C1009 1.526 . S
C1012 C1013 1.396 . S
C1012 C1017 1.390 . S
C1013 C1007 1.465 . S
C1013 C1012 1.396 . S
C1013 C1014 1.399 . S
C1014 H1000 0.929 . S
C1014 C1013 1.399 . S
C1014 C1015 1.385 . S
C1015 H1001 0.931 . S
C1015 C1014 1.385 . S
C1015 C1016 1.389 . S
C1016 C1015 1.389 . S
C1016 C1017 1.387 . S
C1017 H1002 0.930 . S
C1017 C1012 1.390 . S
C1017 C1016 1.387 . S
H1018 C1030 0.930 . S
H1019 C1032 0.930 . S
H1020 C1033 0.930 . S
H1021 C1037 0.959 . S
H1022 C1037 0.959 . S
H1023 C1037 0.961 . S
H1024 C1038 0.960 . S
H1025 C1038 0.961 . S
H1026 C1038 0.959 . S
H1027 C1041 0.929 . S
H1028 C1042 0.931 . S
H1029 C1044 0.930 . S
C1030 H1018 0.930 . S
C1030 C1031 1.399 . S
C1030 C1035 1.399 . S
C1031 C1030 1.399 . S
C1031 C1032 1.376 . S
C1032 H1019 0.930 . S
C1032 C1031 1.376 . S
C1032 C1033 1.388 . S
C1033 H1020 0.930 . S
C1033 C1032 1.388 . S
C1033 C1034 1.390 . S
C1034 C1033 1.390 . S
C1034 C1035 1.394 . S
C1034 C1040 1.465 . S
C1035 C1030 1.399 . S
C1035 C1034 1.394 . S
C1035 C1036 1.516 . S
C1036 C1035 1.516 . S
C1036 C1037 1.502 . S
C1036 C1038 1.561 . S
C1036 C1039 1.526 . S
C1037 H1021 0.959 . S
C1037 H1022 0.959 . S
C1037 H1023 0.961 . S
C1037 C1036 1.502 . S
C1038 H1024 0.960 . S
C1038 H1025 0.961 . S
C1038 H1026 0.959 . S
C1038 C1036 1.561 . S
C1039 C1036 1.526 . S
C1039 C1040 1.396 . S
C1039 C1044 1.390 . S
C1040 C1034 1.465 . S
C1040 C1039 1.396 . S
C1040 C1041 1.399 . S
C1041 H1027 0.929 . S
C1041 C1040 1.399 . S
C1041 C1042 1.385 . S
C1042 H1028 0.931 . S
C1042 C1041 1.385 . S
C1042 C1043 1.389 . S
C1043 C1042 1.389 . S
C1043 C1044 1.387 . S
C1044 H1029 0.930 . S
C1044 C1039 1.390 . S
C1044 C1043 1.387 . S
H1045 C1057 0.930 1_545 S
H1046 C1059 0.930 . S
H1047 C1060 0.930 . S
H1048 C1064 0.959 1_565 S
H1049 C1064 0.959 . S
H1050 C1064 0.961 . S
H1051 C1065 0.960 . S
H1052 C1065 0.961 . S
H1053 C1065 0.959 . S
H1054 C1068 0.929 . S
H1055 C1069 0.931 . S
H1056 C1071 0.930 . S
C1057 H1045 0.930 1_565 S
C1057 C1058 1.399 . S
C1057 C1062 1.399 . S
C1058 C1057 1.399 . S
C1058 C1059 1.376 . S
C1059 H1046 0.930 . S
C1059 C1058 1.376 . S
C1059 C1060 1.388 . S
C1060 H1047 0.930 . S
C1060 C1059 1.388 . S
C1060 C1061 1.390 . S
C1061 C1060 1.390 . S
C1061 C1062 1.394 . S
C1061 C1067 1.465 . S
C1062 C1057 1.399 . S
C1062 C1061 1.394 . S
C1062 C1063 1.516 1_565 S
C1063 C1062 1.516 1_545 S
C1063 C1064 1.502 . S
C1063 C1065 1.561 . S
C1063 C1066 1.526 . S
C1064 H1048 0.959 1_545 S
C1064 H1049 0.959 . S
C1064 H1050 0.961 . S
C1064 C1063 1.502 . S
C1065 H1051 0.960 . S
C1065 H1052 0.961 . S
C1065 H1053 0.959 . S
C1065 C1063 1.561 . S
C1066 C1063 1.526 . S
C1066 C1067 1.396 1_545 S
C1066 C1071 1.390 . S
C1067 C1061 1.465 . S
C1067 C1066 1.396 1_565 S
C1067 C1068 1.399 . S
C1068 H1054 0.929 . S
C1068 C1067 1.399 . S
C1068 C1069 1.385 . S
C1069 H1055 0.931 . S
C1069 C1068 1.385 . S
C1069 C1070 1.389 . S
C1070 C1069 1.389 . S
C1070 C1071 1.387 1_565 S
C1071 H1056 0.930 . S
C1071 C1066 1.390 . S
C1071 C1070 1.387 1_545 S
H1072 C1084 0.930 . S
H1073 C1086 0.930 . S
H1074 C1087 0.930 . S
H1075 C1091 0.959 . S
H1076 C1091 0.959 . S
H1077 C1091 0.961 . S
H1078 C1092 0.960 . S
H1079 C1092 0.961 . S
H1080 C1092 0.959 . S
H1081 C1095 0.929 . S
H1082 C1096 0.931 . S
H1083 C1098 0.930 . S
C1084 H1072 0.930 . S
C1084 C1085 1.399 . S
C1084 C1089 1.399 . S
C1085 C1084 1.399 . S
C1085 C1086 1.376 . S
C1086 H1073 0.930 . S
C1086 C1085 1.376 . S
C1086 C1087 1.388 . S
C1087 H1074 0.930 . S
C1087 C1086 1.388 . S
C1087 C1088 1.390 . S
C1088 C1087 1.390 . S
C1088 C1089 1.394 . S
C1088 C1094 1.465 . S
C1089 C1084 1.399 . S
C1089 C1088 1.394 . S
C1089 C1090 1.516 . S
C1090 C1089 1.516 . S
C1090 C1091 1.502 . S
C1090 C1092 1.561 . S
C1090 C1093 1.526 . S
C1091 H1075 0.959 . S
C1091 H1076 0.959 . S
C1091 H1077 0.961 . S
C1091 C1090 1.502 . S
C1092 H1078 0.960 . S
C1092 H1079 0.961 . S
C1092 H1080 0.959 . S
C1092 C1090 1.561 . S
C1093 C1090 1.526 . S
C1093 C1094 1.396 . S
C1093 C1098 1.390 . S
C1094 C1088 1.465 . S
C1094 C1093 1.396 . S
C1094 C1095 1.399 . S
C1095 H1081 0.929 . S
C1095 C1094 1.399 . S
C1095 C1096 1.385 . S
C1096 H1082 0.931 . S
C1096 C1095 1.385 . S
C1096 C1097 1.389 . S
C1097 C1096 1.389 . S
C1097 C1098 1.387 . S
C1098 H1083 0.930 . S
C1098 C1093 1.390 . S
C1098 C1097 1.387 . S
H1099 C1111 0.930 . S
H1100 C1113 0.930 . S
H1101 C1114 0.930 . S
H1102 C1118 0.959 . S
H1103 C1118 0.959 . S
H1104 C1118 0.961 . S
H1105 C1119 0.960 . S
H1106 C1119 0.961 . S
H1107 C1119 0.959 . S
H1108 C1122 0.929 . S
H1109 C1123 0.931 . S
H1110 C1125 0.930 . S
C1111 H1099 0.930 . S
C1111 C1112 1.399 . S
C1111 C1116 1.399 . S
C1112 C1111 1.399 . S
C1112 C1113 1.376 . S
C1113 H1100 0.930 . S
C1113 C1112 1.376 . S
C1113 C1114 1.388 . S
C1114 H1101 0.930 . S
C1114 C1113 1.388 . S
C1114 C1115 1.390 . S
C1115 C1114 1.390 . S
C1115 C1116 1.394 . S
C1115 C1121 1.465 . S
C1116 C1111 1.399 . S
C1116 C1115 1.394 . S
C1116 C1117 1.516 . S
C1117 C1116 1.516 . S
C1117 C1118 1.502 . S
C1117 C1119 1.561 . S
C1117 C1120 1.526 . S
C1118 H1102 0.959 . S
C1118 H1103 0.959 . S
C1118 H1104 0.961 . S
C1118 C1117 1.502 . S
C1119 H1105 0.960 . S
C1119 H1106 0.961 . S
C1119 H1107 0.959 . S
C1119 C1117 1.561 . S
C1120 C1117 1.526 . S
C1120 C1121 1.396 . S
C1120 C1125 1.390 . S
C1121 C1115 1.465 . S
C1121 C1120 1.396 . S
C1121 C1122 1.399 . S
C1122 H1108 0.929 . S
C1122 C1121 1.399 . S
C1122 C1123 1.385 . S
C1123 H1109 0.931 . S
C1123 C1122 1.385 . S
C1123 C1124 1.389 . S
C1124 C1123 1.389 . S
C1124 C1125 1.387 . S
C1125 H1110 0.930 . S
C1125 C1120 1.390 . S
C1125 C1124 1.387 . S
H1126 C1138 0.930 . S
H1127 C1140 0.930 . S
H1128 C1141 0.930 . S
H1129 C1145 0.959 . S
H1130 C1145 0.959 . S
H1131 C1145 0.961 . S
H1132 C1146 0.960 . S
H1133 C1146 0.961 . S
H1134 C1146 0.959 . S
H1135 C1149 0.929 . S
H1136 C1150 0.931 . S
H1137 C1152 0.930 . S
C1138 H1126 0.930 . S
C1138 C1139 1.399 . S
C1138 C1143 1.399 . S
C1139 C1138 1.399 . S
C1139 C1140 1.376 . S
C1140 H1127 0.930 . S
C1140 C1139 1.376 . S
C1140 C1141 1.388 . S
C1141 H1128 0.930 . S
C1141 C1140 1.388 . S
C1141 C1142 1.390 . S
C1142 C1141 1.390 . S
C1142 C1143 1.394 . S
C1142 C1148 1.465 . S
C1143 C1138 1.399 . S
C1143 C1142 1.394 . S
C1143 C1144 1.516 . S
C1144 C1143 1.516 . S
C1144 C1145 1.502 . S
C1144 C1146 1.561 . S
C1144 C1147 1.526 . S
C1145 H1129 0.959 . S
C1145 H1130 0.959 . S
C1145 H1131 0.961 . S
C1145 C1144 1.502 . S
C1146 H1132 0.960 . S
C1146 H1133 0.961 . S
C1146 H1134 0.959 . S
C1146 C1144 1.561 . S
C1147 C1144 1.526 . S
C1147 C1148 1.396 . S
C1147 C1152 1.390 . S
C1148 C1142 1.465 . S
C1148 C1147 1.396 . S
C1148 C1149 1.399 . S
C1149 H1135 0.929 . S
C1149 C1148 1.399 . S
C1149 C1150 1.385 . S
C1150 H1136 0.931 . S
C1150 C1149 1.385 . S
C1150 C1151 1.389 . S
C1151 C1150 1.389 . S
C1151 C1152 1.387 . S
C1152 H1137 0.930 . S
C1152 C1147 1.390 . S
C1152 C1151 1.387 . S
H1153 C1165 0.930 . S
H1154 C1167 0.930 . S
H1155 C1168 0.930 . S
H1156 C1172 0.959 . S
H1157 C1172 0.959 . S
H1158 C1172 0.961 . S
H1159 C1173 0.960 . S
H1160 C1173 0.961 . S
H1161 C1173 0.959 . S
H1162 C1176 0.929 . S
H1163 C1177 0.931 . S
H1164 C1179 0.930 . S
C1165 H1153 0.930 . S
C1165 C1166 1.399 . S
C1165 C1170 1.399 . S
C1166 C1165 1.399 . S
C1166 C1167 1.376 . S
C1167 H1154 0.930 . S
C1167 C1166 1.376 . S
C1167 C1168 1.388 . S
C1168 H1155 0.930 . S
C1168 C1167 1.388 . S
C1168 C1169 1.390 . S
C1169 C1168 1.390 . S
C1169 C1170 1.394 . S
C1169 C1175 1.465 . S
C1170 C1165 1.399 . S
C1170 C1169 1.394 . S
C1170 C1171 1.516 . S
C1171 C1170 1.516 . S
C1171 C1172 1.502 . S
C1171 C1173 1.561 . S
C1171 C1174 1.526 . S
C1172 H1156 0.959 . S
C1172 H1157 0.959 . S
C1172 H1158 0.961 . S
C1172 C1171 1.502 . S
C1173 H1159 0.960 . S
C1173 H1160 0.961 . S
C1173 H1161 0.959 . S
C1173 C1171 1.561 . S
C1174 C1171 1.526 . S
C1174 C1175 1.396 . S
C1174 C1179 1.390 . S
C1175 C1169 1.465 . S
C1175 C1174 1.396 . S
C1175 C1176 1.399 . S
C1176 H1162 0.929 . S
C1176 C1175 1.399 . S
C1176 C1177 1.385 . S
C1177 H1163 0.931 . S
C1177 C1176 1.385 . S
C1177 C1178 1.389 . S
C1178 C1177 1.389 . S
C1178 C1179 1.387 . S
C1179 H1164 0.930 . S
C1179 C1174 1.390 . S
C1179 C1178 1.387 . S
C557 C127 1.810 . S
C545 C5 1.721 . S
C584 C231 1.852 . S
C572 C16 1.437 . S
C611 C151 1.550 . S
C599 C30 1.498 . S
C638 C213 1.596 . S
C626 C40 1.590 . S
C665 C287 1.695 . S
C653 C8 1.678 . S
C692 C349 1.833 . S
C680 C18 1.913 . S
C707 C29 1.616 . S
C719 C423 1.496 . S
C746 C509 1.598 . S
C734 C38 1.591 . S
C773 C305 2.642 . S
C761 C19 2.619 . S
C788 C27 1.517 . S
C800 C373 1.777 . S
C827 C447 1.235 . S
C815 C41 1.370 . S
C854 C527 1.965 . S
C842 C7 1.969 . S
C869 C52 1.509 . S
C881 C225 1.434 . S
C908 C139 1.880 . S
C896 C62 2.005 . S
C923 C74 1.561 . S
C935 C201 1.529 . S
C950 C82 1.680 . S
C962 C157 1.933 . S
C989 C453 1.695 . S
C977 C51 1.705 . S
C1016 C521 1.331 . S
C1004 C60 1.281 . S
C1043 C299 1.864 . S
C1031 C71 1.774 . S
C1058 C84 2.314 . S
C1070 C379 2.372 1_565 S
C1097 C435 1.237 . S
C1085 C63 1.217 . S
C1124 C497 1.354 . S
C1112 C73 1.318 . S
C1151 C275 1.923 . S
C1139 C85 1.959 . S
C1166 C49 1.153 . S
C1178 C361 1.434 . S
