# Generated by pormake.
# Topology nom, (4,4)-cn, num edge types: 1
# Building blocks:
#     Node 0, Type 0, BuildingBlock: NAWXER_clean_linker_0, # of connection points: 4
#     Node 1, Type 0, BuildingBlock: NAWXER_clean_linker_0, # of connection points: 4
#     Node 2, Type 0, BuildingBlock: NAWXER_clean_linker_0, # of connection points: 4
#     Node 3, Type 0, BuildingBlock: NAWXER_clean_linker_0, # of connection points: 4
#     Node 4, Type 0, BuildingBlock: NAWXER_clean_linker_0, # of connection points: 4
#     Node 5, Type 0, BuildingBlock: NAWXER_clean_linker_0, # of connection points: 4
#     Node 6, Type 1, BuildingBlock: TATPOV_clean_sbu_0, # of connection points: 4
#     Node 7, Type 1, BuildingBlock: TATPOV_clean_sbu_0, # of connection points: 4
#     Node 8, Type 1, BuildingBlock: TATPOV_clean_sbu_0, # of connection points: 4
#     Node 9, Type 1, BuildingBlock: TATPOV_clean_sbu_0, # of connection points: 4
#     Node 10, Type 1, BuildingBlock: TATPOV_clean_sbu_0, # of connection points: 4
#     Node 11, Type 1, BuildingBlock: TATPOV_clean_sbu_0, # of connection points: 4
#     Edge 12, Type (0, 1), BuildingBlock: KIFKEQ_clean_linker_1, # of connection points: 2
#     Edge 13, Type (0, 1), BuildingBlock: KIFKEQ_clean_linker_1, # of connection points: 2
#     Edge 14, Type (0, 1), BuildingBlock: KIFKEQ_clean_linker_1, # of connection points: 2
#     Edge 15, Type (0, 1), BuildingBlock: KIFKEQ_clean_linker_1, # of connection points: 2
#     Edge 16, Type (0, 1), BuildingBlock: KIFKEQ_clean_linker_1, # of connection points: 2
#     Edge 17, Type (0, 1), BuildingBlock: KIFKEQ_clean_linker_1, # of connection points: 2
#     Edge 18, Type (0, 1), BuildingBlock: KIFKEQ_clean_linker_1, # of connection points: 2
#     Edge 19, Type (0, 1), BuildingBlock: KIFKEQ_clean_linker_1, # of connection points: 2
#     Edge 20, Type (0, 1), BuildingBlock: KIFKEQ_clean_linker_1, # of connection points: 2
#     Edge 21, Type (0, 1), BuildingBlock: KIFKEQ_clean_linker_1, # of connection points: 2
#     Edge 22, Type (0, 1), BuildingBlock: KIFKEQ_clean_linker_1, # of connection points: 2
#     Edge 23, Type (0, 1), BuildingBlock: KIFKEQ_clean_linker_1, # of connection points: 2
#     Edge 24, Type (0, 1), BuildingBlock: KIFKEQ_clean_linker_1, # of connection points: 2
#     Edge 25, Type (0, 1), BuildingBlock: KIFKEQ_clean_linker_1, # of connection points: 2
#     Edge 26, Type (0, 1), BuildingBlock: KIFKEQ_clean_linker_1, # of connection points: 2
#     Edge 27, Type (0, 1), BuildingBlock: KIFKEQ_clean_linker_1, # of connection points: 2
#     Edge 28, Type (0, 1), BuildingBlock: KIFKEQ_clean_linker_1, # of connection points: 2
#     Edge 29, Type (0, 1), BuildingBlock: KIFKEQ_clean_linker_1, # of connection points: 2
#     Edge 30, Type (0, 1), BuildingBlock: KIFKEQ_clean_linker_1, # of connection points: 2
#     Edge 31, Type (0, 1), BuildingBlock: KIFKEQ_clean_linker_1, # of connection points: 2
#     Edge 32, Type (0, 1), BuildingBlock: KIFKEQ_clean_linker_1, # of connection points: 2
#     Edge 33, Type (0, 1), BuildingBlock: KIFKEQ_clean_linker_1, # of connection points: 2
#     Edge 34, Type (0, 1), BuildingBlock: KIFKEQ_clean_linker_1, # of connection points: 2
#     Edge 35, Type (0, 1), BuildingBlock: KIFKEQ_clean_linker_1, # of connection points: 2
# Relax obj value: 0.024
# Max RMSD: 0.116
# Mean RMSD: 0.110
data_MOF--net-nom--node1-TATPOV_clean_sbu_0--node2-NAWXER_clean_linker_0--edge1-KIFKEQ_clean_linker_1
_symmetry_space_group_name_H-M    P1
_symmetry_Int_Tables_number       1
_symmetry_cell_setting            triclinic
loop_
_symmetry_equiv_pos_as_xyz
'x, y, z'
_cell_length_a     52.563436
_cell_length_b     53.314226
_cell_length_c     58.116329
_cell_angle_alpha  90.562968
_cell_angle_beta   90.648521
_cell_angle_gamma 120.00156
loop_
_atom_site_label
_atom_site_type_symbol
_atom_site_fract_x
_atom_site_fract_y
_atom_site_fract_z
_atom_type_partial_charge
C0 C 0.90886 0.44783 0.33972 0.0
C1 C 0.90071 0.43064 0.35938 0.0
C2 C 0.93563 0.45615 0.32934 0.0
C3 C 0.95441 0.44655 0.33781 0.0
C4 C 0.91952 0.4213 0.36816 0.0
C5 C 0.94612 0.42911 0.35739 0.0
C6 C 0.98424 0.45796 0.32836 0.0
C7 C 0.92156 0.41422 0.26808 0.0
C8 C 0.92278 0.43456 0.25227 0.0
C9 C 0.9435 0.42259 0.28518 0.0
C10 C 0.96703 0.45128 0.28639 0.0
C11 C 0.94661 0.46299 0.25332 0.0
C12 C 0.96863 0.47118 0.27006 0.0
C13 C 0.99012 0.46138 0.30457 0.0
C14 C 0.12375 0.53213 0.3024 0.0
C15 C 0.12541 0.55356 0.28754 0.0
C16 C 0.09646 0.51073 0.31045 0.0
C17 C 0.0706 0.51056 0.3037 0.0
C18 C 0.09937 0.55241 0.28006 0.0
C19 C 0.07231 0.53111 0.28796 0.0
C20 C 0.04152 0.49004 0.31308 0.0
C21 C 0.09569 0.54602 0.37351 0.0
C22 C 0.09655 0.53086 0.39292 0.0
C23 C 0.07651 0.53141 0.35504 0.0
C24 C 0.05844 0.50115 0.35515 0.0
C25 C 0.07856 0.50052 0.39291 0.0
C26 C 0.05967 0.48586 0.37424 0.0
C27 C 0.03581 0.48582 0.33687 0.0
H28 H 0.89511 0.45598 0.33302 0.0
H29 H 0.94206 0.47113 0.31526 0.0
H30 H 0.91377 0.40825 0.38346 0.0
H31 H 0.96051 0.42203 0.36464 0.0
H32 H 0.9034 0.39214 0.26748 0.0
H33 H 0.94205 0.40681 0.29747 0.0
H34 H 0.94823 0.47894 0.24112 0.0
H35 H 0.98659 0.49338 0.27061 0.0
H36 H 0.14355 0.53252 0.30834 0.0
H37 H 0.0956 0.49473 0.32225 0.0
H38 H 0.09997 0.56833 0.26829 0.0
H39 H 0.05269 0.53133 0.28235 0.0
H40 H 0.1094 0.56934 0.37274 0.0
H41 H 0.07523 0.54398 0.34102 0.0
H42 H 0.07818 0.48815 0.4077 0.0
H43 H 0.04548 0.46258 0.37494 0.0
N44 N 0.0074 0.46986 0.34351 0.0
N45 N 0.01844 0.47749 0.29799 0.0
C46 C 0.43631 0.92519 0.50359 0.0
C47 C 0.44683 0.91206 0.51883 0.0
C48 C 0.45562 0.95155 0.49367 0.0
C49 C 0.48583 0.96541 0.4989 0.0
C50 C 0.47712 0.92545 0.52367 0.0
C51 C 0.49649 0.95224 0.514 0.0
C52 C 0.50528 0.99495 0.49043 0.0
C53 C 0.48575 0.93583 0.4293 0.0
C54 C 0.46774 0.93814 0.41239 0.0
C55 C 0.49803 0.95637 0.44722 0.0
C56 C 0.49259 0.97961 0.44845 0.0
C57 C 0.46245 0.96148 0.41365 0.0
C58 C 0.47493 0.98211 0.43141 0.0
C59 C 0.50587 0.00189 0.467 0.0
C60 C 0.57608 0.13378 0.47017 0.0
C61 C 0.55765 0.13888 0.45561 0.0
C62 C 0.56794 0.10561 0.47672 0.0
C63 C 0.54093 0.08207 0.4692 0.0
C64 C 0.53123 0.11519 0.44735 0.0
C65 C 0.52299 0.08709 0.45406 0.0
C66 C 0.53071 0.05218 0.47707 0.0
C67 C 0.53587 0.10261 0.54148 0.0
C68 C 0.5589 0.10676 0.55653 0.0
C69 C 0.52733 0.08301 0.52299 0.0
C70 C 0.54153 0.06707 0.51919 0.0
C71 C 0.57323 0.09083 0.55249 0.0
C72 C 0.5644 0.07094 0.5341 0.0
C73 C 0.53137 0.04524 0.5004 0.0
H74 H 0.41303 0.91521 0.49964 0.0
H75 H 0.44679 0.96163 0.48251 0.0
H76 H 0.48559 0.9157 0.5355 0.0
H77 H 0.51967 0.96282 0.51849 0.0
H78 H 0.49016 0.91804 0.42874 0.0
H79 H 0.51206 0.95429 0.45993 0.0
H80 H 0.44901 0.96404 0.40066 0.0
H81 H 0.47058 -5e-05 0.43192 0.0
H82 H 0.59685 0.15158 0.47644 0.0
H83 H 0.58269 0.10229 0.48775 0.0
H84 H 0.51651 0.11844 0.43621 0.0
H85 H 0.50213 0.06931 0.44791 0.0
H86 H 0.52377 0.11385 0.54432 0.0
H87 H 0.50919 0.07984 0.51192 0.0
H88 H 0.59123 0.09365 0.56353 0.0
H89 H 0.57548 0.05865 0.53146 0.0
N90 N 0.51844 0.0169 0.50623 0.0
N91 N 0.51818 0.03019 0.46126 0.0
C92 C 0.56852 0.50026 0.60435 0.0
C93 C 0.55262 0.48849 0.5837 0.0
C94 C 0.55695 0.50943 0.62188 0.0
C95 C 0.52887 0.50635 0.6194 0.0
C96 C 0.52478 0.48588 0.58099 0.0
C97 C 0.51301 0.49471 0.59869 0.0
C98 C 0.51663 0.51647 0.63786 0.0
C99 C 0.51971 0.44287 0.67232 0.0
C100 C 0.54122 0.45132 0.68978 0.0
C101 C 0.51386 0.46319 0.66236 0.0
C102 C 0.52922 0.49224 0.6699 0.0
C103 C 0.55723 0.48049 0.6969 0.0
C104 C 0.55094 0.50078 0.68724 0.0
C105 C 0.52011 0.51266 0.66149 0.0
C106 C 0.44241 0.54112 0.71236 0.0
C107 C 0.46134 0.56116 0.72911 0.0
C108 C 0.45382 0.5351 0.69284 0.0
C109 C 0.4843 0.54879 0.68996 0.0
C110 C 0.49179 0.57569 0.72575 0.0
C111 C 0.50321 0.56923 0.70644 0.0
C112 C 0.49649 0.53939 0.67127 0.0
C113 C 0.46081 0.59263 0.6416 0.0
C114 C 0.4373 0.57711 0.62592 0.0
C115 C 0.47895 0.58167 0.64827 0.0
C116 C 0.47375 0.55478 0.6396 0.0
C117 C 0.4329 0.55076 0.61658 0.0
C118 C 0.45101 0.53978 0.6233 0.0
C119 C 0.49131 0.54173 0.6477 0.0
H120 H 0.59032 0.50317 0.60669 0.0
H121 H 0.57031 0.51947 0.63719 0.0
H122 H 0.51206 0.47689 0.56523 0.0
H123 H 0.49145 0.49234 0.59622 0.0
H124 H 0.50712 0.42042 0.66666 0.0
H125 H 0.49655 0.45599 0.64938 0.0
H126 H 0.57379 0.48732 0.71047 0.0
H127 H 0.56273 0.52303 0.69347 0.0
H128 H 0.41885 0.52965 0.71467 0.0
H129 H 0.43892 0.51893 0.68045 0.0
H130 H 0.50675 0.591 0.73858 0.0
H131 H 0.52681 0.57973 0.70457 0.0
H132 H 0.4648 0.61294 0.6492 0.0
H133 H 0.49685 0.59408 0.66038 0.0
H134 H 0.41536 0.53852 0.60414 0.0
H135 H 0.44675 0.51915 0.61618 0.0
N136 N 0.50187 0.53043 0.63186 0.0
N137 N 0.51038 0.5247 0.67725 0.0
C138 C 0.88656 0.40505 0.79555 0.0
C139 C 0.874 0.41571 0.77973 0.0
C140 C 0.91489 0.42295 0.80439 0.0
C141 C 0.93118 0.45204 0.79788 0.0
C142 C 0.89058 0.44469 0.77284 0.0
C143 C 0.91901 0.46264 0.78172 0.0
C144 C 0.96128 0.47088 0.80727 0.0
C145 C 0.90332 0.45463 0.86849 0.0
C146 C 0.90878 0.44158 0.88735 0.0
C147 C 0.92205 0.4636 0.84969 0.0
C148 C 0.94628 0.4592 0.84922 0.0
C149 C 0.93254 0.43651 0.88658 0.0
C150 C 0.95112 0.44528 0.86774 0.0
C151 C 0.96842 0.47172 0.83089 0.0
C152 C 0.09992 0.5525 0.83651 0.0
C153 C 0.10721 0.53478 0.84949 0.0
C154 C 0.07133 0.54149 0.82763 0.0
C155 C 0.04976 0.51259 0.83154 0.0
C156 C 0.08527 0.5062 0.85389 0.0
C157 C 0.05689 0.49528 0.84506 0.0
C158 C 0.01935 0.49992 0.82246 0.0
C159 C 0.07846 0.5243 0.76132 0.0
C160 C 0.07822 0.54662 0.7488 0.0
C161 C 0.05684 0.50904 0.77755 0.0
C162 C 0.03465 0.51584 0.7815 0.0
C163 C 0.05559 0.55292 0.7525 0.0
C164 C 0.03389 0.53752 0.76858 0.0
C165 C 0.01218 0.50063 0.79908 0.0
H166 H 0.87434 0.38294 0.80138 0.0
H167 H 0.92409 0.41397 0.81631 0.0
H168 H 0.88166 0.45342 0.76043 0.0
H169 H 0.93138 0.48488 0.77619 0.0
H170 H 0.88547 0.45925 0.86878 0.0
H171 H 0.91827 0.47508 0.83603 0.0
H172 H 0.93714 0.4263 0.9008 0.0
H173 H 0.9697 0.44174 0.86786 0.0
H174 H 0.11638 0.57464 0.83293 0.0
H175 H 0.0661 0.55551 0.81777 0.0
H176 H 0.09001 0.49221 0.86427 0.0
H177 H 0.04052 0.47306 0.84857 0.0
H178 H 0.09562 0.51898 0.75883 0.0
H179 H 0.05754 0.49204 0.78711 0.0
H180 H 0.05452 0.56963 0.74281 0.0
H181 H 0.01678 0.54289 0.77123 0.0
N182 N 0.98339 0.48592 0.79232 0.0
N183 N 0.99719 0.48573 0.83742 0.0
C184 C 0.50265 0.89722 0.9718 0.0
C185 C 0.4798 0.88614 0.95518 0.0
C186 C 0.51586 0.92609 0.97921 0.0
C187 C 0.50632 0.94448 0.97034 0.0
C188 C 0.47069 0.90474 0.94597 0.0
C189 C 0.48392 0.93367 0.95342 0.0
C190 C 0.52041 0.97519 0.97807 0.0
C191 C 0.47044 0.92579 0.03906 0.0
C192 C 0.48791 0.92534 0.05732 0.0
C193 C 0.48325 0.94443 0.02074 0.0
C194 C 0.51378 0.96308 0.02033 0.0
C195 C 0.51853 0.9437 0.05681 0.0
C196 C 0.53136 0.96275 0.03856 0.0
C197 C 0.52675 0.98389 0.00144 0.0
C198 C 0.57116 0.11205 -0.00032 0.0
C199 C 0.59678 0.12262 0.01348 0.0
C200 C 0.55578 0.08304 0.99241 0.0
C201 C 0.56601 0.06412 0.9984 0.0
C202 C 0.60639 0.10334 0.02003 0.0
C203 C 0.59109 0.07438 0.01263 0.0
C204 C 0.55034 0.03344 0.99058 0.0
C205 C 0.57981 0.08764 0.92637 0.0
C206 C 0.55604 0.08279 0.91192 0.0
C207 C 0.57572 0.0688 0.9444 0.0
C208 C 0.54772 0.04503 0.94842 0.0
C209 C 0.52816 0.05882 0.91597 0.0
C210 C 0.52412 0.04009 0.93391 0.0
C211 C 0.54238 0.02467 0.9673 0.0
H212 H 0.51067 0.88368 0.97885 0.0
H213 H 0.5338 0.93412 0.99169 0.0
H214 H 0.45302 0.89684 0.93325 0.0
H215 H 0.47636 0.9475 0.94618 0.0
H216 H 0.4468 0.9118 0.03903 0.0
H217 H 0.46919 0.94469 0.00708 0.0
H218 H 0.53239 0.94388 0.07082 0.0
H219 H 0.55493 0.97718 0.03864 0.0
H220 H 0.56318 0.12627 0.9942 0.0
H221 H 0.53595 0.07544 0.98203 0.0
H222 H 0.62565 0.11055 0.03103 0.0
H223 H 0.59908 0.06004 0.0178 0.0
H224 H 0.60162 0.10571 0.92352 0.0
H225 H 0.59439 0.07269 0.95509 0.0
H226 H 0.50928 0.05469 0.90545 0.0
H227 H 0.50233 0.0219 0.93668 0.0
N228 N 0.52796 0.99589 0.96196 0.0
N229 N 0.54199 0.01266 0.00679 0.0
C230 C 0.49285 0.60081 0.19438 0.0
C231 C 0.47098 0.59039 0.21112 0.0
C232 C 0.50234 0.58287 0.18487 0.0
C233 C 0.4899 0.55391 0.19161 0.0
C234 C 0.45883 0.5615 0.21816 0.0
C235 C 0.46839 0.54348 0.2086 0.0
C236 C 0.50057 0.53523 0.18173 0.0
C237 C 0.45225 0.54641 0.12126 0.0
C238 C 0.47118 0.56539 0.10458 0.0
C239 C 0.4632 0.53694 0.13913 0.0
C240 C 0.49319 0.54589 0.14051 0.0
C241 C 0.50146 0.57514 0.10667 0.0
C242 C 0.51225 0.56511 0.12424 0.0
C243 C 0.50439 0.53365 0.15788 0.0
C244 C 0.55234 0.4519 0.14982 0.0
C245 C 0.57421 0.46738 0.13362 0.0
C246 C 0.53723 0.46435 0.16014 0.0
C247 C 0.544 0.4926 0.15461 0.0
C248 C 0.58064 0.49552 0.12802 0.0
C249 C 0.56559 0.50789 0.1383 0.0
C250 C 0.52817 0.50631 0.16481 0.0
C251 C 0.57802 0.49635 0.22411 0.0
C252 C 0.55988 0.47698 0.24083 0.0
C253 C 0.56614 0.50567 0.20687 0.0
C254 C 0.53588 0.49577 0.20599 0.0
C255 C 0.52951 0.46674 0.23973 0.0
C256 C 0.51766 0.47632 0.22257 0.0
C257 C 0.52362 0.50711 0.18867 0.0
H258 H 0.50249 0.62284 0.1884 0.0
H259 H 0.51967 0.59178 0.17236 0.0
H260 H 0.44219 0.55292 0.23123 0.0
H261 H 0.45885 0.52136 0.21432 0.0
H262 H 0.42877 0.53788 0.1201 0.0
H263 H 0.44807 0.52176 0.15138 0.0
H264 H 0.51689 0.59025 0.09458 0.0
H265 H 0.53551 0.57232 0.1251 0.0
H266 H 0.54666 0.43006 0.15431 0.0
H267 H 0.52009 0.4518 0.17222 0.0
H268 H 0.59772 0.50828 0.11597 0.0
H269 H 0.57115 0.52968 0.13371 0.0
H270 H 0.60149 0.50451 0.22451 0.0
H271 H 0.5807 0.52112 0.19451 0.0
H272 H 0.51511 0.45206 0.25256 0.0
H273 H 0.49429 0.46868 0.2223 0.0
N274 N 0.51002 0.52161 0.19626 0.0
N275 N 0.51827 0.51954 0.15037 0.0
Zn276 Zn 0.69443 0.4649 0.4166 0.0
Zn277 Zn 0.65824 0.40757 0.41942 0.0
O278 O 0.70028 0.41451 0.41706 0.0
O279 O 0.73093 0.46142 0.41898 0.0
O280 O 0.63685 0.36464 0.42486 0.0
O281 O 0.67592 0.47121 0.44478 0.0
O282 O 0.64781 0.42399 0.4477 0.0
C283 C 0.72647 0.43582 0.41757 0.0
C284 C 0.6531 0.43788 0.37759 0.0
O285 O 0.64242 0.41471 0.38917 0.0
O286 O 0.67529 0.46092 0.38519 0.0
C287 C 0.61492 0.3441 0.41428 0.0
O288 O 0.60209 0.34993 0.39731 0.0
C289 C 0.65611 0.44956 0.45513 0.0
Zn290 Zn 0.21694 0.68228 0.57415 0.0
Zn291 Zn 0.24988 0.65709 0.5774 0.0
O292 O 0.27992 0.70043 0.57293 0.0
O293 O 0.25302 0.72126 0.56972 0.0
O294 O 0.27616 0.63982 0.58128 0.0
O295 O 0.20092 0.66857 0.60569 0.0
O296 O 0.22623 0.64593 0.60751 0.0
C297 C 0.27797 0.72306 0.5699 0.0
C298 C 0.20395 0.63888 0.53858 0.0
O299 O 0.2247 0.63684 0.54831 0.0
O300 O 0.19637 0.65633 0.54656 0.0
C301 C 0.29729 0.65177 0.59586 0.0
O302 O 0.30077 0.67436 0.60782 0.0
C303 C 0.20798 0.65226 0.61632 0.0
Zn304 Zn 0.53891 0.22091 0.7406 0.0
Zn305 Zn 0.59815 0.25381 0.74406 0.0
O306 O 0.58354 0.28309 0.74239 0.0
O307 O 0.53529 0.25682 0.74078 0.0
O308 O 0.64189 0.28027 0.74806 0.0
O309 O 0.53927 0.20118 0.77013 0.0
O310 O 0.5874 0.22839 0.77268 0.0
C311 C 0.55849 0.28137 0.74112 0.0
C312 C 0.56953 0.2134 0.70236 0.0
O313 O 0.5925 0.23131 0.71374 0.0
O314 O 0.54425 0.20585 0.70998 0.0
C315 C 0.66154 0.27815 0.7371 0.0
O316 O 0.65371 0.25712 0.72182 0.0
C317 C 0.56331 0.20841 0.7806 0.0
Zn318 Zn 0.34125 0.55711 0.91964 0.0
Zn319 Zn 0.37041 0.6152 0.91789 0.0
O320 O 0.32683 0.60408 0.91388 0.0
O321 O 0.303 0.55672 0.91765 0.0
O322 O 0.39204 0.6588 0.91974 0.0
O323 O 0.35885 0.55796 0.95073 0.0
O324 O 0.38297 0.60553 0.94878 0.0
C325 C 0.30275 0.58005 0.91449 0.0
C326 C 0.37966 0.5806 0.88037 0.0
O327 O 0.38626 0.60509 0.8893 0.0
O328 O 0.36132 0.55736 0.88997 0.0
C329 C 0.38448 0.67472 0.90891 0.0
O330 O 0.36177 0.66263 0.89463 0.0
C331 C 0.37672 0.58248 0.95952 0.0
Zn332 Zn 0.79025 0.4477 0.07473 0.0
Zn333 Zn 0.75904 0.38979 0.07242 0.0
O334 O 0.72781 0.40189 0.07726 0.0
O335 O 0.75293 0.44952 0.07642 0.0
O336 O 0.7348 0.3464 0.06846 0.0
O337 O 0.80859 0.44927 0.04426 0.0
O338 O 0.78186 0.40175 0.04196 0.0
C339 C 0.72865 0.42619 0.07806 0.0
C340 C 0.80345 0.41957 0.11176 0.0
O341 O 0.78466 0.39627 0.1014 0.0
O342 O 0.80927 0.44392 0.10388 0.0
C343 C 0.71326 0.33606 0.05421 0.0
O344 O 0.70745 0.35395 0.043 0.0
C345 C 0.80078 0.42577 0.0334 0.0
Zn346 Zn 0.34398 0.7898 0.23021 0.0
Zn347 Zn 0.37817 0.7659 0.23558 0.0
O348 O 0.33563 0.73192 0.23743 0.0
O349 O 0.30727 0.75093 0.23264 0.0
O350 O 0.40138 0.7452 0.23713 0.0
O351 O 0.36143 0.80477 0.19924 0.0
O352 O 0.39153 0.78785 0.20496 0.0
C353 C 0.3101 0.72905 0.23611 0.0
C354 C 0.38311 0.81066 0.27069 0.0
O355 O 0.39103 0.79281 0.26394 0.0
O356 O 0.364 0.81342 0.25922 0.0
C357 C 0.39411 0.72403 0.25051 0.0
O358 O 0.37229 0.71687 0.26465 0.0
C359 C 0.38259 0.80169 0.19266 0.0
H360 H 0.17291 0.55177 0.2702 0.0
H361 H 0.14234 0.61056 0.28917 0.0
H362 H 0.21832 0.59258 0.25572 0.0
H363 H 0.18743 0.65107 0.27524 0.0
H364 H 0.25302 0.71318 0.22712 0.0
H365 H 0.2093 0.66922 0.23863 0.0
H366 H 0.26351 0.63715 0.26746 0.0
H367 H 0.30748 0.68101 0.25527 0.0
C368 C 0.17608 0.57344 0.27149 0.0
C369 C 0.154 0.57802 0.28047 0.0
C370 C 0.202 0.59676 0.26321 0.0
C371 C 0.20623 0.625 0.26391 0.0
C372 C 0.18452 0.62952 0.27377 0.0
C373 C 0.15874 0.60634 0.28187 0.0
C374 C 0.25566 0.69664 0.23567 0.0
C375 C 0.28373 0.70074 0.24053 0.0
C376 C 0.23058 0.6715 0.24241 0.0
C377 C 0.23293 0.64994 0.25441 0.0
C378 C 0.26095 0.65333 0.25823 0.0
C379 C 0.28614 0.67848 0.25129 0.0
H380 H 0.55401 0.15907 0.41328 0.0
H381 H 0.57873 0.18625 0.48417 0.0
H382 H 0.56677 0.20835 0.40336 0.0
H383 H 0.59094 0.23532 0.47445 0.0
H384 H 0.64127 0.32545 0.44488 0.0
H385 H 0.62707 0.27604 0.45444 0.0
H386 H 0.55216 0.24431 0.40794 0.0
H387 H 0.567 0.2941 0.39775 0.0
C388 C 0.56196 0.17556 0.42676 0.0
C389 C 0.56556 0.16886 0.44947 0.0
C390 C 0.56915 0.20377 0.42111 0.0
C391 C 0.57994 0.22588 0.43808 0.0
C392 C 0.58323 0.21901 0.46084 0.0
C393 C 0.57624 0.19088 0.46644 0.0
C394 C 0.62169 0.308 0.43671 0.0
C395 C 0.60525 0.31378 0.42054 0.0
C396 C 0.61344 0.27958 0.44232 0.0
C397 C 0.58839 0.25612 0.43206 0.0
C398 C 0.57179 0.26186 0.41597 0.0
C399 C 0.58017 0.29039 0.41023 0.0
H400 H 0.45109 0.63301 0.61755 0.0
H401 H 0.37743 0.54581 0.62065 0.0
H402 H 0.41747 0.65097 0.60932 0.0
H403 H 0.34388 0.56376 0.61226 0.0
H404 H 0.29508 0.60391 0.57583 0.0
H405 H 0.32929 0.586 0.58173 0.0
H406 H 0.38004 0.65659 0.62977 0.0
H407 H 0.3462 0.67467 0.6237 0.0
C408 C 0.42773 0.61768 0.61655 0.0
C409 C 0.41698 0.58797 0.61983 0.0
C410 C 0.40847 0.62797 0.61182 0.0
C411 C 0.37799 0.6088 0.61021 0.0
C412 C 0.36726 0.57905 0.61308 0.0
C413 C 0.38652 0.56876 0.61787 0.0
C414 C 0.31357 0.61562 0.58762 0.0
C415 C 0.31789 0.64071 0.5993 0.0
C416 C 0.33309 0.60529 0.59107 0.0
C417 C 0.35741 0.6199 0.60618 0.0
C418 C 0.36176 0.64505 0.61777 0.0
C419 C 0.34221 0.6553 0.6144 0.0
H420 H 0.84836 0.35879 0.76616 0.0
H421 H 0.83071 0.42938 0.77331 0.0
H422 H 0.7973 0.32636 0.75472 0.0
H423 H 0.77987 0.39719 0.76091 0.0
H424 H 0.68487 0.32293 0.76846 0.0
H425 H 0.73649 0.35685 0.77685 0.0
H426 H 0.76115 0.31552 0.72432 0.0
H427 H 0.70938 0.28107 0.71623 0.0
C428 C 0.8336 0.36743 0.76515 0.0
C429 C 0.84354 0.39662 0.77085 0.0
C430 C 0.80441 0.34891 0.75832 0.0
C431 C 0.78446 0.35914 0.75699 0.0
C432 C 0.79459 0.38853 0.76206 0.0
C433 C 0.82381 0.40707 0.76891 0.0
C434 C 0.70127 0.32108 0.75864 0.0
C435 C 0.69298 0.29919 0.74173 0.0
C436 C 0.73089 0.3407 0.76334 0.0
C437 C 0.75297 0.33895 0.75123 0.0
C438 C 0.74469 0.31724 0.73415 0.0
C439 C 0.71501 0.29757 0.72945 0.0
H440 H 0.46414 0.83886 0.98183 0.0
H441 H 0.46326 0.86358 0.91138 0.0
H442 H 0.44197 0.78837 0.9695 0.0
H443 H 0.44093 0.81288 0.89902 0.0
H444 H 0.37184 0.71492 0.89145 0.0
H445 H 0.39497 0.76625 0.90196 0.0
H446 H 0.45508 0.75726 0.9478 0.0
H447 H 0.43177 0.70601 0.93765 0.0
C448 C 0.45943 0.83354 0.96367 0.0
C449 C 0.46562 0.85528 0.94758 0.0
C450 C 0.44673 0.80459 0.9566 0.0
C451 C 0.43987 0.79662 0.93325 0.0
C452 C 0.4457 0.81829 0.91715 0.0
C453 C 0.45846 0.84732 0.92424 0.0
C454 C 0.39012 0.72394 0.90365 0.0
C455 C 0.39982 0.7063 0.91382 0.0
C456 C 0.40344 0.75339 0.90961 0.0
C457 C 0.42669 0.76577 0.92587 0.0
C458 C 0.43686 0.74827 0.93554 0.0
C459 C 0.4236 0.7189 0.92959 0.0
H460 H 0.59086 0.47093 0.08881 0.0
H461 H 0.59584 0.43567 0.15425 0.0
H462 H 0.62439 0.45663 0.07258 0.0
H463 H 0.629 0.42091 0.13781 0.0
H464 H 0.67686 0.38435 0.09604 0.0
H465 H 0.63483 0.38942 0.10729 0.0
H466 H 0.67808 0.47645 0.0813 0.0
H467 H 0.71988 0.47153 0.07021 0.0
C468 C 0.59892 0.45992 0.09968 0.0
C469 C 0.59108 0.45489 0.12294 0.0
C470 C 0.618 0.45163 0.09034 0.0
C471 C 0.62949 0.43791 0.10399 0.0
C472 C 0.62028 0.43125 0.12684 0.0
C473 C 0.60129 0.43972 0.13625 0.0
C474 C 0.67714 0.40437 0.09242 0.0
C475 C 0.70174 0.42762 0.08238 0.0
C476 C 0.65318 0.4073 0.09897 0.0
C477 C 0.65323 0.43332 0.09519 0.0
C478 C 0.67728 0.45603 0.08422 0.0
C479 C 0.70131 0.45327 0.078 0.0
H480 H 0.44337 0.85921 0.51694 0.0
H481 H 0.40255 0.90463 0.54632 0.0
H482 H 0.40392 0.81349 0.53173 0.0
H483 H 0.36398 0.85958 0.56208 0.0
H484 H 0.28008 0.77279 0.55644 0.0
H485 H 0.32274 0.81828 0.54664 0.0
H486 H 0.37917 0.78351 0.56379 0.0
H487 H 0.33592 0.73718 0.57285 0.0
C488 C 0.42626 0.85939 0.52703 0.0
C489 C 0.42564 0.88518 0.53032 0.0
C490 C 0.40373 0.8333 0.53559 0.0
C491 C 0.38044 0.83271 0.54781 0.0
C492 C 0.38104 0.85901 0.5522 0.0
C493 C 0.40321 0.88487 0.54335 0.0
C494 C 0.30155 0.7748 0.55831 0.0
C495 C 0.30453 0.75129 0.56543 0.0
C496 C 0.32616 0.80107 0.55283 0.0
C497 C 0.35455 0.80477 0.55457 0.0
C498 C 0.35764 0.78137 0.56203 0.0
C499 C 0.33287 0.75487 0.56735 0.0
H500 H 0.50205 0.40718 0.71545 0.0
H501 H 0.59005 0.44586 0.68967 0.0
H502 H 0.50722 0.36817 0.73217 0.0
H503 H 0.59497 0.40595 0.70517 0.0
H504 H 0.60225 0.33815 0.74593 0.0
H505 H 0.59919 0.38128 0.73721 0.0
H506 H 0.50723 0.32693 0.7189 0.0
H507 H 0.51002 0.28434 0.72861 0.0
C508 C 0.52253 0.40719 0.71343 0.0
C509 C 0.54561 0.42921 0.70124 0.0
C510 C 0.52548 0.38478 0.72282 0.0
C511 C 0.55136 0.38355 0.71976 0.0
C512 C 0.57484 0.40627 0.70813 0.0
C513 C 0.57204 0.42903 0.6991 0.0
C514 C 0.58131 0.33553 0.74037 0.0
C515 C 0.55639 0.3078 0.73795 0.0
C516 C 0.57959 0.36024 0.73518 0.0
C517 C 0.55299 0.35772 0.72724 0.0
C518 C 0.52798 0.32994 0.72539 0.0
C519 C 0.52961 0.30536 0.73083 0.0
H520 H 0.14489 0.58721 0.87056 0.0
H521 H 0.13807 0.50647 0.84832 0.0
H522 H 0.19303 0.60199 0.88852 0.0
H523 H 0.18548 0.52097 0.86632 0.0
H524 H 0.24829 0.53542 0.92319 0.0
H525 H 0.20167 0.52791 0.90808 0.0
H526 H 0.24584 0.61276 0.87808 0.0
H527 H 0.29298 0.62055 0.89347 0.0
C528 C 0.15381 0.57282 0.86928 0.0
C529 C 0.13752 0.54547 0.85841 0.0
C530 C 0.18123 0.58124 0.87959 0.0
C531 C 0.19259 0.56233 0.87922 0.0
C532 C 0.17687 0.53564 0.86741 0.0
C533 C 0.14973 0.52734 0.8571 0.0
C534 C 0.24811 0.55273 0.9137 0.0
C535 C 0.27438 0.57838 0.90918 0.0
C536 C 0.22141 0.54836 0.90498 0.0
C537 C 0.22031 0.56949 0.89148 0.0
C538 C 0.24617 0.5961 0.88838 0.0
C539 C 0.27308 0.60053 0.89719 0.0
H540 H 0.57511 0.15759 0.02727 0.0
H541 H 0.65653 0.15805 0.01622 0.0
H542 H 0.60277 0.20883 0.03817 0.0
H543 H 0.68407 0.20912 0.02748 0.0
H544 H 0.7231 0.29344 0.07025 0.0
H545 H 0.69447 0.24152 0.06161 0.0
H546 H 0.63485 0.25541 0.01911 0.0
H547 H 0.66323 0.30718 0.02784 0.0
C548 C 0.59888 0.16861 0.02705 0.0
C549 C 0.61357 0.15366 0.0208 0.0
C550 C 0.61471 0.19795 0.03336 0.0
C551 C 0.64559 0.213 0.03369 0.0
C552 C 0.6603 0.19801 0.02772 0.0
C553 C 0.64448 0.16872 0.02129 0.0
C554 C 0.7038 0.2854 0.05916 0.0
C555 C 0.69548 0.30446 0.04969 0.0
C556 C 0.68751 0.25569 0.05412 0.0
C557 C 0.66244 0.24439 0.03966 0.0
C558 C 0.65388 0.26341 0.0305 0.0
C559 C 0.67026 0.29311 0.0354 0.0
H560 H 0.50432 0.64746 0.22402 0.0
H561 H 0.41453 0.577 0.22004 0.0
H562 H 0.48731 0.68032 0.23641 0.0
H563 H 0.39755 0.60988 0.23259 0.0
H564 H 0.37815 0.67267 0.27155 0.0
H565 H 0.3979 0.6404 0.26509 0.0
H566 H 0.46034 0.70141 0.21765 0.0
H567 H 0.44089 0.73378 0.22425 0.0
C568 C 0.48094 0.63897 0.22582 0.0
C569 C 0.46075 0.60967 0.2208 0.0
C570 C 0.47122 0.6578 0.23295 0.0
C571 C 0.44108 0.64775 0.23532 0.0
C572 C 0.42094 0.61822 0.23116 0.0
C573 C 0.43067 0.59937 0.22397 0.0
C574 C 0.39633 0.67937 0.25996 0.0
C575 C 0.40786 0.70576 0.24834 0.0
C576 C 0.4075 0.66078 0.25615 0.0
C577 C 0.43058 0.66829 0.24079 0.0
C578 C 0.44275 0.69512 0.22978 0.0
C579 C 0.43149 0.71361 0.23347 0.0
H580 H 0.8455 0.40724 0.34108 0.0
H581 H 0.89532 0.44143 0.40445 0.0
H582 H 0.80238 0.40431 0.35923 0.0
H583 H 0.85217 0.43877 0.42264 0.0
H584 H 0.78499 0.47432 0.42459 0.0
H585 H 0.82626 0.468 0.41394 0.0
H586 H 0.76588 0.38 0.39186 0.0
H587 H 0.7245 0.38611 0.40267 0.0
C588 C 0.84697 0.41359 0.35903 0.0
C589 C 0.87362 0.42457 0.3714 0.0
C590 C 0.82233 0.4118 0.36945 0.0
C591 C 0.82402 0.4214 0.39232 0.0
C592 C 0.85036 0.43133 0.40497 0.0
C593 C 0.87492 0.43267 0.39464 0.0
C594 C 0.78051 0.45345 0.41786 0.0
C595 C 0.75147 0.43081 0.41428 0.0
C596 C 0.80415 0.44979 0.41189 0.0
C597 C 0.79921 0.42355 0.40198 0.0
C598 C 0.77025 0.40049 0.39935 0.0
C599 C 0.74661 0.404 0.40561 0.0
H600 H 0.10608 0.58265 0.41057 0.0
H601 H 0.12733 0.51525 0.4226 0.0
H602 H 0.13353 0.60815 0.44502 0.0
H603 H 0.15339 0.54007 0.45815 0.0
H604 H 0.22085 0.60863 0.50996 0.0
H605 H 0.19632 0.58246 0.47426 0.0
H606 H 0.12725 0.6026 0.48528 0.0
H607 H 0.15205 0.62931 0.52018 0.0
C608 C 0.11679 0.57331 0.42044 0.0
C609 C 0.11446 0.54684 0.41368 0.0
C610 C 0.13217 0.58776 0.44049 0.0
C611 C 0.14535 0.57599 0.45459 0.0
C612 C 0.1436 0.54982 0.44766 0.0
C613 C 0.12835 0.53541 0.42741 0.0
C614 C 0.20038 0.60733 0.50472 0.0
C615 C 0.18857 0.62131 0.51777 0.0
C616 C 0.18627 0.59227 0.48433 0.0
C617 C 0.16001 0.59076 0.4767 0.0
C618 C 0.14784 0.60397 0.49024 0.0
C619 C 0.162 0.61916 0.51039 0.0
H620 H 0.57545 0.09962 0.5999 0.0
H621 H 0.55991 0.15868 0.55966 0.0
H622 H 0.58293 0.12933 0.63426 0.0
H623 H 0.56604 0.18742 0.59436 0.0
H624 H 0.52951 0.19285 0.66717 0.0
H625 H 0.53201 0.17082 0.63093 0.0
H626 H 0.61707 0.1837 0.65104 0.0
H627 H 0.61495 0.20649 0.68736 0.0
C628 C 0.57418 0.11917 0.59821 0.0
C629 C 0.5667 0.1265 0.57697 0.0
C630 C 0.57839 0.13611 0.61795 0.0
C631 C 0.57483 0.16046 0.6169 0.0
C632 C 0.5686 0.16854 0.59559 0.0
C633 C 0.56486 0.15191 0.5758 0.0
C634 C 0.54886 0.19119 0.66382 0.0
C635 C 0.572 0.20128 0.6801 0.0
C636 C 0.55035 0.17877 0.64303 0.0
C637 C 0.57476 0.17569 0.63825 0.0
C638 C 0.59804 0.18589 0.6544 0.0
C639 C 0.59684 0.19895 0.67508 0.0
H640 H 0.42788 0.51943 0.75903 0.0
H641 H 0.46884 0.6114 0.74847 0.0
H642 H 0.40957 0.52496 0.79582 0.0
H643 H 0.44899 0.61708 0.78479 0.0
H644 H 0.43161 0.62086 0.86146 0.0
H645 H 0.45206 0.6168 0.82498 0.0
H646 H 0.37467 0.53311 0.81213 0.0
H647 H 0.35545 0.53653 0.84898 0.0
C648 C 0.43247 0.5408 0.76451 0.0
C649 C 0.44949 0.56495 0.75095 0.0
C650 C 0.42186 0.54404 0.78555 0.0
C651 C 0.42743 0.57147 0.79332 0.0
C652 C 0.44453 0.59568 0.77961 0.0
C653 C 0.45571 0.59247 0.75872 0.0
C654 C 0.41916 0.60159 0.8508 0.0
C655 C 0.39214 0.57887 0.85817 0.0
C656 C 0.43073 0.59931 0.8298 0.0
C657 C 0.4152 0.57449 0.81554 0.0
C658 C 0.38778 0.55218 0.82282 0.0
C659 C 0.3766 0.5542 0.84395 0.0
H660 H 0.84891 0.41573 0.89125 0.0
H661 H 0.92972 0.45489 0.9314 0.0
H662 H 0.82123 0.40999 0.92643 0.0
H663 H 0.90217 0.44899 0.96632 0.0
H664 H 0.8486 0.47169 0.01507 0.0
H665 H 0.87329 0.47303 0.97961 0.0
H666 H 0.80974 0.38313 0.9658 0.0
H667 H 0.78479 0.38156 0.00164 0.0
C668 C 0.86068 0.42288 0.90758 0.0
C669 C 0.89146 0.43575 0.9086 0.0
C670 C 0.84486 0.41943 0.92767 0.0
C671 C 0.85962 0.42922 0.94902 0.0
C672 C 0.89028 0.44148 0.95005 0.0
C673 C 0.90601 0.44461 0.93009 0.0
C674 C 0.83972 0.45217 0.00451 0.0
C675 C 0.81476 0.42647 0.01125 0.0
C676 C 0.85401 0.45293 0.98425 0.0
C677 C 0.84355 0.42813 0.97009 0.0
C678 C 0.81819 0.40256 0.97643 0.0
C679 C 0.80402 0.40166 0.99695 0.0
H680 H 0.50045 0.88617 0.07693 0.0
H681 H 0.44358 0.92252 0.08253 0.0
H682 H 0.47471 0.85341 0.10849 0.0
H683 H 0.41875 0.89106 0.11452 0.0
H684 H 0.35969 0.81495 0.15577 0.0
H685 H 0.38541 0.8428 0.12241 0.0
H686 H 0.46618 0.85001 0.14865 0.0
H687 H 0.4398 0.82067 0.18153 0.0
C688 C 0.48265 0.88732 0.08513 0.0
C689 C 0.47375 0.90659 0.07722 0.0
C690 C 0.46794 0.86865 0.10323 0.0
C691 C 0.44431 0.86922 0.11393 0.0
C692 C 0.43617 0.88925 0.10631 0.0
C693 C 0.45053 0.9075 0.08808 0.0
C694 C 0.38287 0.8222 0.15425 0.0
C695 C 0.39779 0.81584 0.17132 0.0
C696 C 0.39774 0.83842 0.13523 0.0
C697 C 0.4281 0.8493 0.13301 0.0
C698 C 0.4428 0.84192 0.14967 0.0
C699 C 0.42772 0.82516 0.16856 0.0
H700 H 0.60694 0.51312 0.26768 0.0
H701 H 0.54208 0.42285 0.25756 0.0
H702 H 0.62878 0.50085 0.29948 0.0
H703 H 0.5646 0.41015 0.28913 0.0
H704 H 0.59522 0.40556 0.36398 0.0
H705 H 0.57204 0.41309 0.33001 0.0
H706 H 0.65734 0.47939 0.30738 0.0
H707 H 0.67999 0.47281 0.34169 0.0
C708 C 0.59764 0.49054 0.27209 0.0
C709 C 0.57299 0.46892 0.26005 0.0
C710 C 0.61024 0.48342 0.29027 0.0
C711 C 0.59877 0.45441 0.29674 0.0
C712 C 0.5739 0.43272 0.28476 0.0
C713 C 0.56105 0.43994 0.26665 0.0
C714 C 0.60893 0.42147 0.35154 0.0
C715 C 0.63931 0.43891 0.3556 0.0
C716 C 0.5957 0.42576 0.33205 0.0
C717 C 0.61273 0.44729 0.31614 0.0
C718 C 0.64337 0.4633 0.3196 0.0
C719 C 0.65643 0.45938 0.33918 0.0
H720 H 0.4113 0.91131 0.39607 0.0
H721 H 0.49501 0.91664 0.38545 0.0
H722 H 0.39065 0.87876 0.36279 0.0
H723 H 0.47456 0.88445 0.35177 0.0
H724 H 0.42003 0.807 0.3026 0.0
H725 H 0.43987 0.83565 0.33812 0.0
H726 H 0.39543 0.88316 0.32191 0.0
H727 H 0.37511 0.85424 0.28699 0.0
C728 C 0.42528 0.90553 0.38655 0.0
C729 C 0.4548 0.91669 0.3932 0.0
C730 C 0.4135 0.88695 0.36745 0.0
C731 C 0.43105 0.87928 0.35442 0.0
C732 C 0.46037 0.88972 0.36153 0.0
C733 C 0.47211 0.90818 0.38078 0.0
C734 C 0.41451 0.82356 0.30667 0.0
C735 C 0.39588 0.82824 0.292 0.0
C736 C 0.42596 0.84004 0.32697 0.0
C737 C 0.41906 0.86155 0.33296 0.0
C738 C 0.40069 0.86635 0.31812 0.0
C739 C 0.38919 0.84987 0.29796 0.0
H740 H 0.55534 0.50235 0.53843 0.0
H741 H 0.57979 0.45625 0.5863 0.0
H742 H 0.57992 0.4916 0.50762 0.0
H743 H 0.60449 0.44555 0.55543 0.0
H744 H 0.61847 0.40941 0.48554 0.0
H745 H 0.59214 0.41721 0.51678 0.0
H746 H 0.63367 0.50787 0.50031 0.0
H747 H 0.66006 0.5003 0.46934 0.0
C748 C 0.56567 0.48963 0.54228 0.0
C749 C 0.56574 0.48019 0.56474 0.0
C750 C 0.57993 0.48369 0.52472 0.0
C751 C 0.59424 0.46791 0.5292 0.0
C752 C 0.59354 0.45768 0.5515 0.0
C753 C 0.5796 0.46395 0.56915 0.0
C754 C 0.6221 0.43103 0.4887 0.0
C755 C 0.64136 0.45422 0.47494 0.0
C756 C 0.60709 0.43547 0.50658 0.0
C757 C 0.61071 0.46308 0.5108 0.0
C758 C 0.63018 0.48628 0.49724 0.0
C759 C 0.64546 0.48195 0.47961 0.0
H760 H 0.10844 0.60513 0.74319 0.0
H761 H 0.1001 0.52566 0.71601 0.0
H762 H 0.14371 0.63234 0.71356 0.0
H763 H 0.13503 0.55277 0.68603 0.0
H764 H 0.21319 0.61234 0.64257 0.0
H765 H 0.18536 0.58811 0.67677 0.0
H766 H 0.141 0.63778 0.673 0.0
H767 H 0.16908 0.66232 0.63948 0.0
C768 C 0.11415 0.59349 0.73084 0.0
C769 C 0.10126 0.56324 0.73176 0.0
C770 C 0.13435 0.60906 0.71385 0.0
C771 C 0.14201 0.59473 0.69724 0.0
C772 C 0.1299 0.56455 0.69868 0.0
C773 C 0.1098 0.54899 0.7158 0.0
C774 C 0.19777 0.61833 0.64926 0.0
C775 C 0.19331 0.63921 0.63821 0.0
C776 C 0.18168 0.6043 0.66875 0.0
C777 C 0.16087 0.61092 0.67763 0.0
C778 C 0.15711 0.63239 0.6669 0.0
C779 C 0.17313 0.64637 0.64751 0.0
H780 H 0.58869 0.14224 0.91153 0.0
H781 H 0.53222 0.06773 0.86856 0.0
H782 H 0.5918 0.17423 0.88041 0.0
H783 H 0.53503 0.09957 0.83779 0.0
H784 H 0.61039 0.21757 0.8078 0.0
H785 H 0.61038 0.18823 0.83992 0.0
H786 H 0.51636 0.13364 0.83209 0.0
H787 H 0.51625 0.1626 0.80008 0.0
C788 C 0.57724 0.13269 0.89539 0.0
C789 C 0.55991 0.10243 0.89263 0.0
C790 C 0.57897 0.15101 0.87761 0.0
C791 C 0.56331 0.13939 0.85681 0.0
C792 C 0.54679 0.10916 0.85383 0.0
C793 C 0.54518 0.09093 0.87148 0.0
C794 C 0.5897 0.19944 0.81305 0.0
C795 C 0.56335 0.19233 0.80125 0.0
C796 C 0.58971 0.18271 0.83149 0.0
C797 C 0.56342 0.15846 0.83833 0.0
C798 C 0.53704 0.1519 0.82694 0.0
C799 C 0.53698 0.16864 0.80867 0.0
H800 H 0.42352 0.57381 0.10271 0.0
H801 H 0.4912 0.57489 0.06023 0.0
H802 H 0.40072 0.58111 0.06852 0.0
H803 H 0.46929 0.58408 0.02663 0.0
H804 H 0.43042 0.62463 0.97586 0.0
H805 H 0.45468 0.62478 0.01227 0.0
H806 H 0.37814 0.54446 0.03058 0.0
H807 H 0.35422 0.54376 0.99406 0.0
C808 C 0.43374 0.57582 0.08625 0.0
C809 C 0.45915 0.57343 0.08437 0.0
C810 C 0.42078 0.58028 0.06675 0.0
C811 C 0.43338 0.5832 0.04509 0.0
C812 C 0.45943 0.58224 0.04325 0.0
C813 C 0.47203 0.57712 0.06261 0.0
C814 C 0.41872 0.60718 0.98779 0.0
C815 C 0.39055 0.58408 0.98213 0.0
C816 C 0.43259 0.60727 0.00851 0.0
C817 C 0.41813 0.58469 0.02411 0.0
C818 C 0.38957 0.56221 0.01885 0.0
C819 C 0.37602 0.56174 0.99794 0.0
H820 H 0.8915 0.46147 0.24455 0.0
H821 H 0.90211 0.39066 0.22003 0.0
H822 H 0.85907 0.45448 0.21184 0.0
H823 H 0.87009 0.384 0.1867 0.0
H824 H 0.79583 0.37191 0.13562 0.0
H825 H 0.8206 0.37173 0.17158 0.0
H826 H 0.87021 0.46527 0.17171 0.0
H827 H 0.84544 0.46554 0.13646 0.0
C828 C 0.88656 0.44419 0.23221 0.0
C829 C 0.8995 0.42683 0.23457 0.0
C830 C 0.86815 0.44026 0.21343 0.0
C831 C 0.86254 0.4191 0.19641 0.0
C832 C 0.87397 0.40046 0.19954 0.0
C833 C 0.89228 0.40425 0.21855 0.0
C834 C 0.812 0.39239 0.1434 0.0
C835 C 0.81852 0.41873 0.1332 0.0
C836 C 0.82622 0.39227 0.16394 0.0
C837 C 0.84707 0.41849 0.17467 0.0
C838 C 0.85374 0.44469 0.16424 0.0
C839 C 0.83965 0.44482 0.14386 0.0
loop_
_geom_bond_atom_site_label_1
_geom_bond_atom_site_label_2
_geom_bond_distance
_geom_bond_site_symmetry_2
_ccdc_geom_bond_type
C0 C1 1.384 . S
C0 C2 1.384 . S
C0 H28 0.931 . S
C1 C0 1.384 . S
C1 C4 1.382 . S
C2 C0 1.384 . S
C2 C3 1.381 . S
C2 H29 0.930 . S
C3 C2 1.381 . S
C3 C5 1.381 . S
C3 C6 1.487 . S
C4 C1 1.382 . S
C4 C5 1.387 . S
C4 H30 0.930 . S
C5 C3 1.381 . S
C5 C4 1.387 . S
C5 H31 0.931 . S
C6 C3 1.487 . S
C6 C13 1.399 . S
C6 N44 1.343 . S
C7 C8 1.384 . S
C7 C9 1.384 . S
C7 H32 0.931 . S
C8 C7 1.384 . S
C8 C11 1.382 . S
C9 C7 1.384 . S
C9 C10 1.381 . S
C9 H33 0.930 . S
C10 C9 1.381 . S
C10 C12 1.381 . S
C10 C13 1.487 . S
C11 C8 1.382 . S
C11 C12 1.387 . S
C11 H34 0.930 . S
C12 C10 1.381 . S
C12 C11 1.387 . S
C12 H35 0.931 . S
C13 C6 1.399 . S
C13 C10 1.487 . S
C13 N45 1.343 1_655 S
C14 C15 1.384 . S
C14 C16 1.384 . S
C14 H36 0.931 . S
C15 C14 1.384 . S
C15 C18 1.382 . S
C16 C14 1.384 . S
C16 C17 1.381 . S
C16 H37 0.930 . S
C17 C16 1.381 . S
C17 C19 1.381 . S
C17 C20 1.487 . S
C18 C15 1.382 . S
C18 C19 1.387 . S
C18 H38 0.930 . S
C19 C17 1.381 . S
C19 C18 1.387 . S
C19 H39 0.931 . S
C20 C17 1.487 . S
C20 C27 1.399 . S
C20 N45 1.343 . S
C21 C22 1.384 . S
C21 C23 1.384 . S
C21 H40 0.931 . S
C22 C21 1.384 . S
C22 C25 1.382 . S
C23 C21 1.384 . S
C23 C24 1.381 . S
C23 H41 0.930 . S
C24 C23 1.381 . S
C24 C26 1.381 . S
C24 C27 1.487 . S
C25 C22 1.382 . S
C25 C26 1.387 . S
C25 H42 0.930 . S
C26 C24 1.381 . S
C26 C25 1.387 . S
C26 H43 0.931 . S
C27 C20 1.399 . S
C27 C24 1.487 . S
C27 N44 1.343 1_455 S
H28 C0 0.931 . S
H29 C2 0.930 . S
H30 C4 0.930 . S
H31 C5 0.931 . S
H32 C7 0.931 . S
H33 C9 0.930 . S
H34 C11 0.930 . S
H35 C12 0.931 . S
H36 C14 0.931 . S
H37 C16 0.930 . S
H38 C18 0.930 . S
H39 C19 0.931 . S
H40 C21 0.931 . S
H41 C23 0.930 . S
H42 C25 0.930 . S
H43 C26 0.931 . S
N44 C6 1.343 . S
N44 C27 1.343 1_655 S
N45 C13 1.343 1_455 S
N45 C20 1.343 . S
C46 C47 1.384 . S
C46 C48 1.384 . S
C46 H74 0.931 . S
C47 C46 1.384 . S
C47 C50 1.382 . S
C48 C46 1.384 . S
C48 C49 1.381 . S
C48 H75 0.930 . S
C49 C48 1.381 . S
C49 C51 1.381 . S
C49 C52 1.487 . S
C50 C47 1.382 . S
C50 C51 1.387 . S
C50 H76 0.930 . S
C51 C49 1.381 . S
C51 C50 1.387 . S
C51 H77 0.931 . S
C52 C49 1.487 . S
C52 C59 1.399 . S
C52 N90 1.343 . S
C53 C54 1.384 . S
C53 C55 1.384 . S
C53 H78 0.931 . S
C54 C53 1.384 . S
C54 C57 1.382 . S
C55 C53 1.384 . S
C55 C56 1.381 . S
C55 H79 0.930 . S
C56 C55 1.381 . S
C56 C58 1.381 . S
C56 C59 1.487 . S
C57 C54 1.382 . S
C57 C58 1.387 . S
C57 H80 0.930 . S
C58 C56 1.381 . S
C58 C57 1.387 . S
C58 H81 0.931 . S
C59 C52 1.399 . S
C59 C56 1.487 . S
C59 N91 1.343 1_565 S
C60 C61 1.384 . S
C60 C62 1.384 . S
C60 H82 0.931 . S
C61 C60 1.384 . S
C61 C64 1.382 . S
C62 C60 1.384 . S
C62 C63 1.381 . S
C62 H83 0.930 . S
C63 C62 1.381 . S
C63 C65 1.381 . S
C63 C66 1.487 . S
C64 C61 1.382 . S
C64 C65 1.387 . S
C64 H84 0.930 . S
C65 C63 1.381 . S
C65 C64 1.387 . S
C65 H85 0.931 . S
C66 C63 1.487 . S
C66 C73 1.399 . S
C66 N91 1.343 . S
C67 C68 1.384 . S
C67 C69 1.384 . S
C67 H86 0.931 . S
C68 C67 1.384 . S
C68 C71 1.382 . S
C69 C67 1.384 . S
C69 C70 1.381 . S
C69 H87 0.930 . S
C70 C69 1.381 . S
C70 C72 1.381 . S
C70 C73 1.487 . S
C71 C68 1.382 . S
C71 C72 1.387 . S
C71 H88 0.930 . S
C72 C70 1.381 . S
C72 C71 1.387 . S
C72 H89 0.931 . S
C73 C66 1.399 . S
C73 C70 1.487 . S
C73 N90 1.343 1_545 S
H74 C46 0.931 . S
H75 C48 0.930 . S
H76 C50 0.930 . S
H77 C51 0.931 . S
H78 C53 0.931 . S
H79 C55 0.930 . S
H80 C57 0.930 . S
H81 C58 0.931 . S
H82 C60 0.931 . S
H83 C62 0.930 . S
H84 C64 0.930 . S
H85 C65 0.931 . S
H86 C67 0.931 . S
H87 C69 0.930 . S
H88 C71 0.930 . S
H89 C72 0.931 . S
N90 C52 1.343 . S
N90 C73 1.343 1_565 S
N91 C59 1.343 1_545 S
N91 C66 1.343 . S
C92 C93 1.384 . S
C92 C94 1.384 . S
C92 H120 0.931 . S
C93 C92 1.384 . S
C93 C96 1.382 . S
C94 C92 1.384 . S
C94 C95 1.381 . S
C94 H121 0.930 . S
C95 C94 1.381 . S
C95 C97 1.381 . S
C95 C98 1.487 . S
C96 C93 1.382 . S
C96 C97 1.387 . S
C96 H122 0.930 . S
C97 C95 1.381 . S
C97 C96 1.387 . S
C97 H123 0.931 . S
C98 C95 1.487 . S
C98 C105 1.399 . S
C98 N136 1.343 . S
C99 C100 1.384 . S
C99 C101 1.384 . S
C99 H124 0.931 . S
C100 C99 1.384 . S
C100 C103 1.382 . S
C101 C99 1.384 . S
C101 C102 1.381 . S
C101 H125 0.930 . S
C102 C101 1.381 . S
C102 C104 1.381 . S
C102 C105 1.487 . S
C103 C100 1.382 . S
C103 C104 1.387 . S
C103 H126 0.930 . S
C104 C102 1.381 . S
C104 C103 1.387 . S
C104 H127 0.931 . S
C105 C98 1.399 . S
C105 C102 1.487 . S
C105 N137 1.343 . S
C106 C107 1.384 . S
C106 C108 1.384 . S
C106 H128 0.931 . S
C107 C106 1.384 . S
C107 C110 1.382 . S
C108 C106 1.384 . S
C108 C109 1.381 . S
C108 H129 0.930 . S
C109 C108 1.381 . S
C109 C111 1.381 . S
C109 C112 1.487 . S
C110 C107 1.382 . S
C110 C111 1.387 . S
C110 H130 0.930 . S
C111 C109 1.381 . S
C111 C110 1.387 . S
C111 H131 0.931 . S
C112 C109 1.487 . S
C112 C119 1.399 . S
C112 N137 1.343 . S
C113 C114 1.384 . S
C113 C115 1.384 . S
C113 H132 0.931 . S
C114 C113 1.384 . S
C114 C117 1.382 . S
C115 C113 1.384 . S
C115 C116 1.381 . S
C115 H133 0.930 . S
C116 C115 1.381 . S
C116 C118 1.381 . S
C116 C119 1.487 . S
C117 C114 1.382 . S
C117 C118 1.387 . S
C117 H134 0.930 . S
C118 C116 1.381 . S
C118 C117 1.387 . S
C118 H135 0.931 . S
C119 C112 1.399 . S
C119 C116 1.487 . S
C119 N136 1.343 . S
H120 C92 0.931 . S
H121 C94 0.930 . S
H122 C96 0.930 . S
H123 C97 0.931 . S
H124 C99 0.931 . S
H125 C101 0.930 . S
H126 C103 0.930 . S
H127 C104 0.931 . S
H128 C106 0.931 . S
H129 C108 0.930 . S
H130 C110 0.930 . S
H131 C111 0.931 . S
H132 C113 0.931 . S
H133 C115 0.930 . S
H134 C117 0.930 . S
H135 C118 0.931 . S
N136 C98 1.343 . S
N136 C119 1.343 . S
N137 C105 1.343 . S
N137 C112 1.343 . S
C138 C139 1.384 . S
C138 C140 1.384 . S
C138 H166 0.931 . S
C139 C138 1.384 . S
C139 C142 1.382 . S
C140 C138 1.384 . S
C140 C141 1.381 . S
C140 H167 0.930 . S
C141 C140 1.381 . S
C141 C143 1.381 . S
C141 C144 1.487 . S
C142 C139 1.382 . S
C142 C143 1.387 . S
C142 H168 0.930 . S
C143 C141 1.381 . S
C143 C142 1.387 . S
C143 H169 0.931 . S
C144 C141 1.487 . S
C144 C151 1.399 . S
C144 N182 1.323 1_655 S
C145 C146 1.384 . S
C145 C147 1.384 . S
C145 H170 0.931 . S
C146 C145 1.384 . S
C146 C149 1.382 . S
C147 C145 1.384 . S
C147 C148 1.381 . S
C147 H171 0.930 . S
C148 C147 1.381 . S
C148 C150 1.381 . S
C148 C151 1.487 . S
C149 C146 1.382 . S
C149 C150 1.387 . S
C149 H172 0.930 . S
C150 C148 1.381 . S
C150 C149 1.387 . S
C150 H173 0.931 . S
C151 C144 1.399 . S
C151 C148 1.487 . S
C151 N183 1.343 1_655 S
C152 C153 1.384 . S
C152 C154 1.384 . S
C152 H174 0.931 . S
C153 C152 1.384 . S
C153 C156 1.382 . S
C154 C152 1.384 . S
C154 C155 1.381 . S
C154 H175 0.930 . S
C155 C154 1.381 . S
C155 C157 1.381 . S
C155 C158 1.487 . S
C156 C153 1.382 . S
C156 C157 1.387 . S
C156 H176 0.930 . S
C157 C155 1.381 . S
C157 C156 1.387 . S
C157 H177 0.931 . S
C158 C155 1.487 . S
C158 C165 1.399 . S
C158 N183 1.343 . S
C159 C160 1.384 . S
C159 C161 1.384 . S
C159 H178 0.931 . S
C160 C159 1.384 . S
C160 C163 1.382 . S
C161 C159 1.384 . S
C161 C162 1.381 . S
C161 H179 0.930 . S
C162 C161 1.381 . S
C162 C164 1.381 . S
C162 C165 1.487 . S
C163 C160 1.382 . S
C163 C164 1.387 . S
C163 H180 0.930 . S
C164 C162 1.381 . S
C164 C163 1.387 . S
C164 H181 0.931 . S
C165 C158 1.399 . S
C165 C162 1.487 . S
C165 N182 1.378 . S
H166 C138 0.931 . S
H167 C140 0.930 . S
H168 C142 0.930 . S
H169 C143 0.931 . S
H170 C145 0.931 . S
H171 C147 0.930 . S
H172 C149 0.930 . S
H173 C150 0.931 . S
H174 C152 0.931 . S
H175 C154 0.930 . S
H176 C156 0.930 . S
H177 C157 0.931 . S
H178 C159 0.931 . S
H179 C161 0.930 . S
H180 C163 0.930 . S
H181 C164 0.931 . S
N182 C144 1.323 1_455 S
N182 C165 1.378 . S
N183 C151 1.343 1_455 S
N183 C158 1.343 . S
C184 C185 1.384 . S
C184 C186 1.384 . S
C184 H212 0.931 . S
C185 C184 1.384 . S
C185 C188 1.382 . S
C186 C184 1.384 . S
C186 C187 1.381 . S
C186 H213 0.938 . S
C187 C186 1.381 . S
C187 C189 1.381 . S
C187 C190 1.487 . S
C188 C185 1.382 . S
C188 C189 1.387 . S
C188 H214 0.930 . S
C189 C187 1.381 . S
C189 C188 1.387 . S
C189 H215 0.931 . S
C190 C187 1.487 . S
C190 C197 1.399 1_556 S
C190 N228 1.347 . S
C191 C192 1.384 . S
C191 C193 1.384 . S
C191 H216 0.931 . S
C192 C191 1.384 . S
C192 C195 1.382 . S
C193 C191 1.384 . S
C193 C194 1.381 . S
C193 H217 0.930 . S
C194 C193 1.381 . S
C194 C196 1.381 . S
C194 C197 1.487 . S
C195 C192 1.382 . S
C195 C196 1.387 . S
C195 H218 0.930 . S
C196 C194 1.381 . S
C196 C195 1.387 . S
C196 H219 0.931 . S
C197 C190 1.399 1_554 S
C197 C194 1.487 . S
C197 N229 1.343 1_565 S
C198 C199 1.384 . S
C198 C200 1.384 1_554 S
C198 H220 0.931 1_554 S
C199 C198 1.384 . S
C199 C202 1.382 . S
C200 C198 1.384 1_556 S
C200 C201 1.381 1_556 S
C200 H221 0.930 . S
C201 C200 1.381 1_554 S
C201 C203 1.381 . S
C201 C204 1.487 1_554 S
C202 C199 1.382 . S
C202 C203 1.387 . S
C202 H222 0.930 . S
C203 C201 1.381 . S
C203 C202 1.387 . S
C203 H223 0.931 . S
C204 C201 1.487 1_556 S
C204 C211 1.399 . S
C204 N229 1.343 1_556 S
C205 C206 1.384 . S
C205 C207 1.384 . S
C205 H224 0.931 . S
C206 C205 1.384 . S
C206 C209 1.382 . S
C207 C205 1.384 . S
C207 C208 1.381 . S
C207 H225 0.930 . S
C208 C207 1.381 . S
C208 C210 1.381 . S
C208 C211 1.487 . S
C209 C206 1.382 . S
C209 C210 1.387 . S
C209 H226 0.930 . S
C210 C208 1.381 . S
C210 C209 1.387 . S
C210 H227 0.931 . S
C211 C204 1.399 . S
C211 C208 1.487 . S
C211 N228 1.338 1_545 S
H212 C184 0.931 . S
H213 C186 0.938 . S
H214 C188 0.930 . S
H215 C189 0.931 . S
H216 C191 0.931 . S
H217 C193 0.930 . S
H218 C195 0.930 . S
H219 C196 0.931 . S
H220 C198 0.931 1_556 S
H221 C200 0.930 . S
H222 C202 0.930 . S
H223 C203 0.931 . S
H224 C205 0.931 . S
H225 C207 0.930 . S
H226 C209 0.930 . S
H227 C210 0.931 . S
N228 C190 1.347 . S
N228 C211 1.338 1_565 S
N229 C197 1.343 1_545 S
N229 C204 1.343 1_554 S
C230 C231 1.384 . S
C230 C232 1.384 . S
C230 H258 0.931 . S
C231 C230 1.384 . S
C231 C234 1.382 . S
C232 C230 1.384 . S
C232 C233 1.381 . S
C232 H259 0.930 . S
C233 C232 1.381 . S
C233 C235 1.381 . S
C233 C236 1.487 . S
C234 C231 1.382 . S
C234 C235 1.387 . S
C234 H260 0.930 . S
C235 C233 1.381 . S
C235 C234 1.387 . S
C235 H261 0.931 . S
C236 C233 1.487 . S
C236 C243 1.399 . S
C236 N274 1.343 . S
C237 C238 1.384 . S
C237 C239 1.384 . S
C237 H262 0.931 . S
C238 C237 1.384 . S
C238 C241 1.382 . S
C239 C237 1.384 . S
C239 C240 1.381 . S
C239 H263 0.930 . S
C240 C239 1.381 . S
C240 C242 1.381 . S
C240 C243 1.487 . S
C241 C238 1.382 . S
C241 C242 1.387 . S
C241 H264 0.930 . S
C242 C240 1.381 . S
C242 C241 1.387 . S
C242 H265 0.931 . S
C243 C236 1.399 . S
C243 C240 1.487 . S
C243 N275 1.343 . S
C244 C245 1.384 . S
C244 C246 1.384 . S
C244 H266 0.931 . S
C245 C244 1.384 . S
C245 C248 1.382 . S
C246 C244 1.384 . S
C246 C247 1.381 . S
C246 H267 0.930 . S
C247 C246 1.381 . S
C247 C249 1.381 . S
C247 C250 1.487 . S
C248 C245 1.382 . S
C248 C249 1.387 . S
C248 H268 0.930 . S
C249 C247 1.381 . S
C249 C248 1.387 . S
C249 H269 0.931 . S
C250 C247 1.487 . S
C250 C257 1.399 . S
C250 N275 1.343 . S
C251 C252 1.384 . S
C251 C253 1.384 . S
C251 H270 0.931 . S
C252 C251 1.384 . S
C252 C255 1.382 . S
C253 C251 1.384 . S
C253 C254 1.381 . S
C253 H271 0.930 . S
C254 C253 1.381 . S
C254 C256 1.381 . S
C254 C257 1.487 . S
C255 C252 1.382 . S
C255 C256 1.387 . S
C255 H272 0.930 . S
C256 C254 1.381 . S
C256 C255 1.387 . S
C256 H273 0.931 . S
C257 C250 1.399 . S
C257 C254 1.487 . S
C257 N274 1.343 . S
H258 C230 0.931 . S
H259 C232 0.930 . S
H260 C234 0.930 . S
H261 C235 0.931 . S
H262 C237 0.931 . S
H263 C239 0.930 . S
H264 C241 0.930 . S
H265 C242 0.931 . S
H266 C244 0.931 . S
H267 C246 0.930 . S
H268 C248 0.930 . S
H269 C249 0.931 . S
H270 C251 0.931 . S
H271 C253 0.930 . S
H272 C255 0.930 . S
H273 C256 0.931 . S
N274 C236 1.343 . S
N274 C257 1.343 . S
N275 C243 1.343 . S
N275 C250 1.343 . S
Zn276 O279 2.031 . S
Zn276 O281 2.049 . S
Zn276 O286 2.067 . S
Zn277 O278 1.962 . S
Zn277 O280 1.986 . S
Zn277 O282 1.996 . S
Zn277 O285 1.943 . S
O278 Zn277 1.962 . S
O278 C283 1.254 . S
O279 Zn276 2.031 . S
O279 C283 1.269 . S
O280 Zn277 1.986 . S
O280 C287 1.262 . S
O281 Zn276 2.049 . S
O281 C289 1.260 . S
O282 Zn277 1.996 . S
O282 C289 1.257 . S
C283 O278 1.254 . S
C283 O279 1.269 . S
C284 O285 1.249 . S
C284 O286 1.270 . S
O285 Zn277 1.943 . S
O285 C284 1.249 . S
O286 Zn276 2.067 . S
O286 C284 1.270 . S
C287 O280 1.262 . S
C287 O288 1.232 . S
O288 C287 1.232 . S
C289 O281 1.260 . S
C289 O282 1.257 . S
Zn290 O293 2.031 . S
Zn290 O295 2.049 . S
Zn290 O300 2.067 . S
Zn291 O292 1.962 . S
Zn291 O294 1.986 . S
Zn291 O296 1.996 . S
Zn291 O299 1.943 . S
O292 Zn291 1.962 . S
O292 C297 1.254 . S
O293 Zn290 2.031 . S
O293 C297 1.269 . S
O294 Zn291 1.986 . S
O294 C301 1.262 . S
O295 Zn290 2.049 . S
O295 C303 1.260 . S
O296 Zn291 1.996 . S
O296 C303 1.257 . S
C297 O292 1.254 . S
C297 O293 1.269 . S
C298 O299 1.249 . S
C298 O300 1.270 . S
O299 Zn291 1.943 . S
O299 C298 1.249 . S
O300 Zn290 2.067 . S
O300 C298 1.270 . S
C301 O294 1.262 . S
C301 O302 1.232 . S
O302 C301 1.232 . S
C303 O295 1.260 . S
C303 O296 1.257 . S
Zn304 O307 2.031 . S
Zn304 O309 2.049 . S
Zn304 O314 2.067 . S
Zn305 O306 1.962 . S
Zn305 O308 1.986 . S
Zn305 O310 1.996 . S
Zn305 O313 1.943 . S
O306 Zn305 1.962 . S
O306 C311 1.254 . S
O307 Zn304 2.031 . S
O307 C311 1.269 . S
O308 Zn305 1.986 . S
O308 C315 1.262 . S
O309 Zn304 2.049 . S
O309 C317 1.260 . S
O310 Zn305 1.996 . S
O310 C317 1.257 . S
C311 O306 1.254 . S
C311 O307 1.269 . S
C312 O313 1.249 . S
C312 O314 1.270 . S
O313 Zn305 1.943 . S
O313 C312 1.249 . S
O314 Zn304 2.067 . S
O314 C312 1.270 . S
C315 O308 1.262 . S
C315 O316 1.232 . S
O316 C315 1.232 . S
C317 O309 1.260 . S
C317 O310 1.257 . S
Zn318 O321 2.031 . S
Zn318 O323 2.049 . S
Zn318 O328 2.067 . S
Zn319 O320 1.962 . S
Zn319 O322 1.986 . S
Zn319 O324 1.996 . S
Zn319 O327 1.943 . S
O320 Zn319 1.962 . S
O320 C325 1.254 . S
O321 Zn318 2.031 . S
O321 C325 1.269 . S
O322 Zn319 1.986 . S
O322 C329 1.262 . S
O323 Zn318 2.049 . S
O323 C331 1.260 . S
O324 Zn319 1.996 . S
O324 C331 1.257 . S
C325 O320 1.254 . S
C325 O321 1.269 . S
C326 O327 1.249 . S
C326 O328 1.270 . S
O327 Zn319 1.943 . S
O327 C326 1.249 . S
O328 Zn318 2.067 . S
O328 C326 1.270 . S
C329 O322 1.262 . S
C329 O330 1.232 . S
O330 C329 1.232 . S
C331 O323 1.260 . S
C331 O324 1.257 . S
Zn332 O335 2.031 . S
Zn332 O337 2.049 . S
Zn332 O342 2.067 . S
Zn333 O334 1.962 . S
Zn333 O336 1.986 . S
Zn333 O338 1.996 . S
Zn333 O341 1.943 . S
O334 Zn333 1.962 . S
O334 C339 1.254 . S
O335 Zn332 2.031 . S
O335 C339 1.269 . S
O336 Zn333 1.986 . S
O336 C343 1.262 . S
O337 Zn332 2.049 . S
O337 C345 1.260 . S
O338 Zn333 1.996 . S
O338 C345 1.257 . S
C339 O334 1.254 . S
C339 O335 1.269 . S
C340 O341 1.249 . S
C340 O342 1.270 . S
O341 Zn333 1.943 . S
O341 C340 1.249 . S
O342 Zn332 2.067 . S
O342 C340 1.270 . S
C343 O336 1.262 . S
C343 O344 1.232 . S
O344 C343 1.232 . S
C345 O337 1.260 . S
C345 O338 1.257 . S
Zn346 O349 2.031 . S
Zn346 O351 2.049 . S
Zn346 O356 2.067 . S
Zn347 O348 1.962 . S
Zn347 O350 1.986 . S
Zn347 O352 1.996 . S
Zn347 O355 1.943 . S
O348 Zn347 1.962 . S
O348 C353 1.254 . S
O349 Zn346 2.031 . S
O349 C353 1.269 . S
O350 Zn347 1.986 . S
O350 C357 1.262 . S
O351 Zn346 2.049 . S
O351 C359 1.260 . S
O352 Zn347 1.996 . S
O352 C359 1.257 . S
C353 O348 1.254 . S
C353 O349 1.269 . S
C354 O355 1.249 . S
C354 O356 1.270 . S
O355 Zn347 1.943 . S
O355 C354 1.249 . S
O356 Zn346 2.067 . S
O356 C354 1.270 . S
C357 O350 1.262 . S
C357 O358 1.232 . S
O358 C357 1.232 . S
C359 O351 1.260 . S
C359 O352 1.257 . S
H360 C368 0.950 . S
H361 C373 0.950 . S
H362 C370 0.950 . S
H363 C372 0.950 . S
H364 C374 0.950 . S
H365 C376 0.950 . S
H366 C378 0.950 . S
H367 C379 0.950 . S
C368 H360 0.950 . S
C368 C369 1.386 . S
C368 C370 1.391 . S
C369 C368 1.386 . S
C369 C373 1.393 . S
C370 H362 0.950 . S
C370 C368 1.391 . S
C370 C371 1.400 . S
C371 C370 1.400 . S
C371 C372 1.398 . S
C371 C377 1.491 . S
C372 H363 0.950 . S
C372 C371 1.398 . S
C372 C373 1.391 . S
C373 H361 0.950 . S
C373 C369 1.393 . S
C373 C372 1.391 . S
C374 H364 0.950 . S
C374 C375 1.386 . S
C374 C376 1.391 . S
C375 C374 1.386 . S
C375 C379 1.393 . S
C376 H365 0.950 . S
C376 C374 1.391 . S
C376 C377 1.400 . S
C377 C371 1.491 . S
C377 C376 1.400 . S
C377 C378 1.398 . S
C378 H366 0.950 . S
C378 C377 1.398 . S
C378 C379 1.391 . S
C379 H367 0.950 . S
C379 C375 1.393 . S
C379 C378 1.391 . S
H380 C388 0.950 . S
H381 C393 0.950 . S
H382 C390 0.950 . S
H383 C392 0.950 . S
H384 C394 0.950 . S
H385 C396 0.950 . S
H386 C398 0.950 . S
H387 C399 0.950 . S
C388 H380 0.950 . S
C388 C389 1.386 . S
C388 C390 1.391 . S
C389 C388 1.386 . S
C389 C393 1.393 . S
C390 H382 0.950 . S
C390 C388 1.391 . S
C390 C391 1.400 . S
C391 C390 1.400 . S
C391 C392 1.398 . S
C391 C397 1.491 . S
C392 H383 0.950 . S
C392 C391 1.398 . S
C392 C393 1.391 . S
C393 H381 0.950 . S
C393 C389 1.393 . S
C393 C392 1.391 . S
C394 H384 0.950 . S
C394 C395 1.386 . S
C394 C396 1.391 . S
C395 C394 1.386 . S
C395 C399 1.393 . S
C396 H385 0.950 . S
C396 C394 1.391 . S
C396 C397 1.400 . S
C397 C391 1.491 . S
C397 C396 1.400 . S
C397 C398 1.398 . S
C398 H386 0.950 . S
C398 C397 1.398 . S
C398 C399 1.391 . S
C399 H387 0.950 . S
C399 C395 1.393 . S
C399 C398 1.391 . S
H400 C408 0.950 . S
H401 C413 0.950 . S
H402 C410 0.950 . S
H403 C412 0.950 . S
H404 C414 0.950 . S
H405 C416 0.950 . S
H406 C418 0.950 . S
H407 C419 0.950 . S
C408 H400 0.950 . S
C408 C409 1.386 . S
C408 C410 1.391 . S
C409 C408 1.386 . S
C409 C413 1.393 . S
C410 H402 0.950 . S
C410 C408 1.391 . S
C410 C411 1.400 . S
C411 C410 1.400 . S
C411 C412 1.398 . S
C411 C417 1.491 . S
C412 H403 0.950 . S
C412 C411 1.398 . S
C412 C413 1.391 . S
C413 H401 0.950 . S
C413 C409 1.393 . S
C413 C412 1.391 . S
C414 H404 0.950 . S
C414 C415 1.386 . S
C414 C416 1.391 . S
C415 C414 1.386 . S
C415 C419 1.393 . S
C416 H405 0.950 . S
C416 C414 1.391 . S
C416 C417 1.400 . S
C417 C411 1.491 . S
C417 C416 1.400 . S
C417 C418 1.398 . S
C418 H406 0.950 . S
C418 C417 1.398 . S
C418 C419 1.391 . S
C419 H407 0.950 . S
C419 C415 1.393 . S
C419 C418 1.391 . S
H420 C428 0.950 . S
H421 C433 0.950 . S
H422 C430 0.950 . S
H423 C432 0.950 . S
H424 C434 0.950 . S
H425 C436 0.950 . S
H426 C438 0.950 . S
H427 C439 0.950 . S
C428 H420 0.950 . S
C428 C429 1.386 . S
C428 C430 1.391 . S
C429 C428 1.386 . S
C429 C433 1.393 . S
C430 H422 0.950 . S
C430 C428 1.391 . S
C430 C431 1.400 . S
C431 C430 1.400 . S
C431 C432 1.398 . S
C431 C437 1.491 . S
C432 H423 0.950 . S
C432 C431 1.398 . S
C432 C433 1.391 . S
C433 H421 0.950 . S
C433 C429 1.393 . S
C433 C432 1.391 . S
C434 H424 0.950 . S
C434 C435 1.386 . S
C434 C436 1.391 . S
C435 C434 1.386 . S
C435 C439 1.393 . S
C436 H425 0.950 . S
C436 C434 1.391 . S
C436 C437 1.400 . S
C437 C431 1.491 . S
C437 C436 1.400 . S
C437 C438 1.398 . S
C438 H426 0.950 . S
C438 C437 1.398 . S
C438 C439 1.391 . S
C439 H427 0.950 . S
C439 C435 1.393 . S
C439 C438 1.391 . S
H440 C448 0.950 . S
H441 C453 0.950 . S
H442 C450 0.950 . S
H443 C452 0.950 . S
H444 C454 0.950 . S
H445 C456 0.950 . S
H446 C458 0.950 . S
H447 C459 0.950 . S
C448 H440 0.950 . S
C448 C449 1.386 . S
C448 C450 1.391 . S
C449 C448 1.386 . S
C449 C453 1.393 . S
C450 H442 0.950 . S
C450 C448 1.391 . S
C450 C451 1.400 . S
C451 C450 1.400 . S
C451 C452 1.398 . S
C451 C457 1.491 . S
C452 H443 0.950 . S
C452 C451 1.398 . S
C452 C453 1.391 . S
C453 H441 0.950 . S
C453 C449 1.393 . S
C453 C452 1.391 . S
C454 H444 0.950 . S
C454 C455 1.386 . S
C454 C456 1.391 . S
C455 C454 1.386 . S
C455 C459 1.393 . S
C456 H445 0.950 . S
C456 C454 1.391 . S
C456 C457 1.400 . S
C457 C451 1.491 . S
C457 C456 1.400 . S
C457 C458 1.398 . S
C458 H446 0.950 . S
C458 C457 1.398 . S
C458 C459 1.391 . S
C459 H447 0.950 . S
C459 C455 1.393 . S
C459 C458 1.391 . S
H460 C468 0.950 . S
H461 C473 0.950 . S
H462 C470 0.950 . S
H463 C472 0.950 . S
H464 C474 0.950 . S
H465 C476 0.950 . S
H466 C478 0.950 . S
H467 C479 0.950 . S
C468 H460 0.950 . S
C468 C469 1.386 . S
C468 C470 1.391 . S
C469 C468 1.386 . S
C469 C473 1.393 . S
C470 H462 0.950 . S
C470 C468 1.391 . S
C470 C471 1.400 . S
C471 C470 1.400 . S
C471 C472 1.398 . S
C471 C477 1.491 . S
C472 H463 0.950 . S
C472 C471 1.398 . S
C472 C473 1.391 . S
C473 H461 0.950 . S
C473 C469 1.393 . S
C473 C472 1.391 . S
C474 H464 0.950 . S
C474 C475 1.386 . S
C474 C476 1.391 . S
C475 C474 1.386 . S
C475 C479 1.393 . S
C476 H465 0.950 . S
C476 C474 1.391 . S
C476 C477 1.400 . S
C477 C471 1.491 . S
C477 C476 1.400 . S
C477 C478 1.398 . S
C478 H466 0.950 . S
C478 C477 1.398 . S
C478 C479 1.391 . S
C479 H467 0.950 . S
C479 C475 1.393 . S
C479 C478 1.391 . S
H480 C488 0.950 . S
H481 C493 0.950 . S
H482 C490 0.950 . S
H483 C492 0.950 . S
H484 C494 0.950 . S
H485 C496 0.950 . S
H486 C498 0.950 . S
H487 C499 0.950 . S
C488 H480 0.950 . S
C488 C489 1.386 . S
C488 C490 1.391 . S
C489 C488 1.386 . S
C489 C493 1.393 . S
C490 H482 0.950 . S
C490 C488 1.391 . S
C490 C491 1.400 . S
C491 C490 1.400 . S
C491 C492 1.398 . S
C491 C497 1.491 . S
C492 H483 0.950 . S
C492 C491 1.398 . S
C492 C493 1.391 . S
C493 H481 0.950 . S
C493 C489 1.393 . S
C493 C492 1.391 . S
C494 H484 0.950 . S
C494 C495 1.386 . S
C494 C496 1.391 . S
C495 C494 1.386 . S
C495 C499 1.393 . S
C496 H485 0.950 . S
C496 C494 1.391 . S
C496 C497 1.400 . S
C497 C491 1.491 . S
C497 C496 1.400 . S
C497 C498 1.398 . S
C498 H486 0.950 . S
C498 C497 1.398 . S
C498 C499 1.391 . S
C499 H487 0.950 . S
C499 C495 1.393 . S
C499 C498 1.391 . S
H500 C508 0.950 . S
H501 C513 0.950 . S
H502 C510 0.950 . S
H503 C512 0.950 . S
H504 C514 0.950 . S
H505 C516 0.950 . S
H506 C518 0.950 . S
H507 C519 0.950 . S
C508 H500 0.950 . S
C508 C509 1.386 . S
C508 C510 1.391 . S
C509 C508 1.386 . S
C509 C513 1.393 . S
C510 H502 0.950 . S
C510 C508 1.391 . S
C510 C511 1.400 . S
C511 C510 1.400 . S
C511 C512 1.398 . S
C511 C517 1.491 . S
C512 H503 0.950 . S
C512 C511 1.398 . S
C512 C513 1.391 . S
C513 H501 0.950 . S
C513 C509 1.393 . S
C513 C512 1.391 . S
C514 H504 0.950 . S
C514 C515 1.386 . S
C514 C516 1.391 . S
C515 C514 1.386 . S
C515 C519 1.393 . S
C516 H505 0.950 . S
C516 C514 1.391 . S
C516 C517 1.400 . S
C517 C511 1.491 . S
C517 C516 1.400 . S
C517 C518 1.398 . S
C518 H506 0.950 . S
C518 C517 1.398 . S
C518 C519 1.391 . S
C519 H507 0.950 . S
C519 C515 1.393 . S
C519 C518 1.391 . S
H520 C528 0.950 . S
H521 C533 0.950 . S
H522 C530 0.950 . S
H523 C532 0.950 . S
H524 C534 0.950 . S
H525 C536 0.950 . S
H526 C538 0.950 . S
H527 C539 0.950 . S
C528 H520 0.950 . S
C528 C529 1.386 . S
C528 C530 1.391 . S
C529 C528 1.386 . S
C529 C533 1.393 . S
C530 H522 0.950 . S
C530 C528 1.391 . S
C530 C531 1.400 . S
C531 C530 1.400 . S
C531 C532 1.398 . S
C531 C537 1.491 . S
C532 H523 0.950 . S
C532 C531 1.398 . S
C532 C533 1.391 . S
C533 H521 0.950 . S
C533 C529 1.393 . S
C533 C532 1.391 . S
C534 H524 0.950 . S
C534 C535 1.386 . S
C534 C536 1.391 . S
C535 C534 1.386 . S
C535 C539 1.393 . S
C536 H525 0.950 . S
C536 C534 1.391 . S
C536 C537 1.400 . S
C537 C531 1.491 . S
C537 C536 1.400 . S
C537 C538 1.398 . S
C538 H526 0.950 . S
C538 C537 1.398 . S
C538 C539 1.391 . S
C539 H527 0.950 . S
C539 C535 1.393 . S
C539 C538 1.391 . S
H540 C548 0.950 . S
H541 C553 0.950 . S
H542 C550 0.950 . S
H543 C552 0.950 . S
H544 C554 0.950 . S
H545 C556 0.950 . S
H546 C558 0.950 . S
H547 C559 0.950 . S
C548 H540 0.950 . S
C548 C549 1.386 . S
C548 C550 1.391 . S
C549 C548 1.386 . S
C549 C553 1.393 . S
C550 H542 0.950 . S
C550 C548 1.391 . S
C550 C551 1.400 . S
C551 C550 1.400 . S
C551 C552 1.398 . S
C551 C557 1.491 . S
C552 H543 0.950 . S
C552 C551 1.398 . S
C552 C553 1.391 . S
C553 H541 0.950 . S
C553 C549 1.393 . S
C553 C552 1.391 . S
C554 H544 0.950 . S
C554 C555 1.386 . S
C554 C556 1.391 . S
C555 C554 1.386 . S
C555 C559 1.393 . S
C556 H545 0.950 . S
C556 C554 1.391 . S
C556 C557 1.400 . S
C557 C551 1.491 . S
C557 C556 1.400 . S
C557 C558 1.398 . S
C558 H546 0.950 . S
C558 C557 1.398 . S
C558 C559 1.391 . S
C559 H547 0.950 . S
C559 C555 1.393 . S
C559 C558 1.391 . S
H560 C568 0.950 . S
H561 C573 0.950 . S
H562 C570 0.950 . S
H563 C572 0.950 . S
H564 C574 0.950 . S
H565 C576 0.950 . S
H566 C578 0.950 . S
H567 C579 0.950 . S
C568 H560 0.950 . S
C568 C569 1.386 . S
C568 C570 1.391 . S
C569 C568 1.386 . S
C569 C573 1.393 . S
C570 H562 0.950 . S
C570 C568 1.391 . S
C570 C571 1.400 . S
C571 C570 1.400 . S
C571 C572 1.398 . S
C571 C577 1.491 . S
C572 H563 0.950 . S
C572 C571 1.398 . S
C572 C573 1.391 . S
C573 H561 0.950 . S
C573 C569 1.393 . S
C573 C572 1.391 . S
C574 H564 0.950 . S
C574 C575 1.386 . S
C574 C576 1.391 . S
C575 C574 1.386 . S
C575 C579 1.393 . S
C576 H565 0.950 . S
C576 C574 1.391 . S
C576 C577 1.400 . S
C577 C571 1.491 . S
C577 C576 1.400 . S
C577 C578 1.398 . S
C578 H566 0.950 . S
C578 C577 1.398 . S
C578 C579 1.391 . S
C579 H567 0.950 . S
C579 C575 1.393 . S
C579 C578 1.391 . S
H580 C588 0.950 . S
H581 C593 0.950 . S
H582 C590 0.950 . S
H583 C592 0.950 . S
H584 C594 0.950 . S
H585 C596 0.950 . S
H586 C598 0.950 . S
H587 C599 0.950 . S
C588 H580 0.950 . S
C588 C589 1.386 . S
C588 C590 1.391 . S
C589 C588 1.386 . S
C589 C593 1.393 . S
C590 H582 0.950 . S
C590 C588 1.391 . S
C590 C591 1.400 . S
C591 C590 1.400 . S
C591 C592 1.398 . S
C591 C597 1.491 . S
C592 H583 0.950 . S
C592 C591 1.398 . S
C592 C593 1.391 . S
C593 H581 0.950 . S
C593 C589 1.393 . S
C593 C592 1.391 . S
C594 H584 0.950 . S
C594 C595 1.386 . S
C594 C596 1.391 . S
C595 C594 1.386 . S
C595 C599 1.393 . S
C596 H585 0.950 . S
C596 C594 1.391 . S
C596 C597 1.400 . S
C597 C591 1.491 . S
C597 C596 1.400 . S
C597 C598 1.398 . S
C598 H586 0.950 . S
C598 C597 1.398 . S
C598 C599 1.391 . S
C599 H587 0.950 . S
C599 C595 1.393 . S
C599 C598 1.391 . S
H600 C608 0.950 . S
H601 C613 0.950 . S
H602 C610 0.950 . S
H603 C612 0.950 . S
H604 C614 0.950 . S
H605 C616 0.950 . S
H606 C618 0.950 . S
H607 C619 0.950 . S
C608 H600 0.950 . S
C608 C609 1.386 . S
C608 C610 1.391 . S
C609 C608 1.386 . S
C609 C613 1.393 . S
C610 H602 0.950 . S
C610 C608 1.391 . S
C610 C611 1.400 . S
C611 C610 1.400 . S
C611 C612 1.398 . S
C611 C617 1.491 . S
C612 H603 0.950 . S
C612 C611 1.398 . S
C612 C613 1.391 . S
C613 H601 0.950 . S
C613 C609 1.393 . S
C613 C612 1.391 . S
C614 H604 0.950 . S
C614 C615 1.386 . S
C614 C616 1.391 . S
C615 C614 1.386 . S
C615 C619 1.393 . S
C616 H605 0.950 . S
C616 C614 1.391 . S
C616 C617 1.400 . S
C617 C611 1.491 . S
C617 C616 1.400 . S
C617 C618 1.398 . S
C618 H606 0.950 . S
C618 C617 1.398 . S
C618 C619 1.391 . S
C619 H607 0.950 . S
C619 C615 1.393 . S
C619 C618 1.391 . S
H620 C628 0.950 . S
H621 C633 0.950 . S
H622 C630 0.950 . S
H623 C632 0.950 . S
H624 C634 0.950 . S
H625 C636 0.950 . S
H626 C638 0.950 . S
H627 C639 0.950 . S
C628 H620 0.950 . S
C628 C629 1.386 . S
C628 C630 1.391 . S
C629 C628 1.386 . S
C629 C633 1.393 . S
C630 H622 0.950 . S
C630 C628 1.391 . S
C630 C631 1.400 . S
C631 C630 1.400 . S
C631 C632 1.398 . S
C631 C637 1.491 . S
C632 H623 0.950 . S
C632 C631 1.398 . S
C632 C633 1.391 . S
C633 H621 0.950 . S
C633 C629 1.393 . S
C633 C632 1.391 . S
C634 H624 0.950 . S
C634 C635 1.386 . S
C634 C636 1.391 . S
C635 C634 1.386 . S
C635 C639 1.393 . S
C636 H625 0.950 . S
C636 C634 1.391 . S
C636 C637 1.400 . S
C637 C631 1.491 . S
C637 C636 1.400 . S
C637 C638 1.398 . S
C638 H626 0.950 . S
C638 C637 1.398 . S
C638 C639 1.391 . S
C639 H627 0.950 . S
C639 C635 1.393 . S
C639 C638 1.391 . S
H640 C648 0.950 . S
H641 C653 0.950 . S
H642 C650 0.950 . S
H643 C652 0.950 . S
H644 C654 0.950 . S
H645 C656 0.950 . S
H646 C658 0.950 . S
H647 C659 0.950 . S
C648 H640 0.950 . S
C648 C649 1.386 . S
C648 C650 1.391 . S
C649 C648 1.386 . S
C649 C653 1.393 . S
C650 H642 0.950 . S
C650 C648 1.391 . S
C650 C651 1.400 . S
C651 C650 1.400 . S
C651 C652 1.398 . S
C651 C657 1.491 . S
C652 H643 0.950 . S
C652 C651 1.398 . S
C652 C653 1.391 . S
C653 H641 0.950 . S
C653 C649 1.393 . S
C653 C652 1.391 . S
C654 H644 0.950 . S
C654 C655 1.386 . S
C654 C656 1.391 . S
C655 C654 1.386 . S
C655 C659 1.393 . S
C656 H645 0.950 . S
C656 C654 1.391 . S
C656 C657 1.400 . S
C657 C651 1.491 . S
C657 C656 1.400 . S
C657 C658 1.398 . S
C658 H646 0.950 . S
C658 C657 1.398 . S
C658 C659 1.391 . S
C659 H647 0.950 . S
C659 C655 1.393 . S
C659 C658 1.391 . S
H660 C668 0.950 . S
H661 C673 0.950 . S
H662 C670 0.950 . S
H663 C672 0.950 . S
H664 C674 0.950 . S
H665 C676 0.952 . S
H666 C678 0.950 . S
H667 C679 0.950 . S
C668 H660 0.950 . S
C668 C669 1.386 . S
C668 C670 1.391 . S
C669 C668 1.386 . S
C669 C673 1.393 . S
C670 H662 0.950 . S
C670 C668 1.391 . S
C670 C671 1.400 . S
C671 C670 1.400 . S
C671 C672 1.398 . S
C671 C677 1.491 . S
C672 H663 0.950 . S
C672 C671 1.398 . S
C672 C673 1.391 . S
C673 H661 0.950 . S
C673 C669 1.393 . S
C673 C672 1.391 . S
C674 H664 0.950 . S
C674 C675 1.386 . S
C674 C676 1.420 . S
C675 C674 1.386 . S
C675 C679 1.393 1_554 S
C676 H665 0.952 . S
C676 C674 1.420 . S
C676 C677 1.371 1_554 S
C677 C671 1.491 . S
C677 C676 1.371 1_556 S
C677 C678 1.398 . S
C678 H666 0.950 . S
C678 C677 1.398 . S
C678 C679 1.391 . S
C679 H667 0.950 . S
C679 C675 1.393 1_556 S
C679 C678 1.391 . S
H680 C688 0.950 . S
H681 C693 0.950 . S
H682 C690 0.950 . S
H683 C692 0.950 . S
H684 C694 0.950 . S
H685 C696 0.950 . S
H686 C698 0.950 . S
H687 C699 0.950 . S
C688 H680 0.950 . S
C688 C689 1.386 . S
C688 C690 1.391 . S
C689 C688 1.386 . S
C689 C693 1.393 . S
C690 H682 0.950 . S
C690 C688 1.391 . S
C690 C691 1.400 . S
C691 C690 1.400 . S
C691 C692 1.398 . S
C691 C697 1.491 . S
C692 H683 0.950 . S
C692 C691 1.398 . S
C692 C693 1.391 . S
C693 H681 0.950 . S
C693 C689 1.393 . S
C693 C692 1.391 . S
C694 H684 0.950 . S
C694 C695 1.386 . S
C694 C696 1.391 . S
C695 C694 1.386 . S
C695 C699 1.393 . S
C696 H685 0.950 . S
C696 C694 1.391 . S
C696 C697 1.400 . S
C697 C691 1.491 . S
C697 C696 1.400 . S
C697 C698 1.398 . S
C698 H686 0.950 . S
C698 C697 1.398 . S
C698 C699 1.391 . S
C699 H687 0.950 . S
C699 C695 1.393 . S
C699 C698 1.391 . S
H700 C708 0.950 . S
H701 C713 0.950 . S
H702 C710 0.950 . S
H703 C712 0.950 . S
H704 C714 0.950 . S
H705 C716 0.950 . S
H706 C718 0.950 . S
H707 C719 0.950 . S
C708 H700 0.950 . S
C708 C709 1.386 . S
C708 C710 1.391 . S
C709 C708 1.386 . S
C709 C713 1.393 . S
C710 H702 0.950 . S
C710 C708 1.391 . S
C710 C711 1.400 . S
C711 C710 1.400 . S
C711 C712 1.398 . S
C711 C717 1.491 . S
C712 H703 0.950 . S
C712 C711 1.398 . S
C712 C713 1.391 . S
C713 H701 0.950 . S
C713 C709 1.393 . S
C713 C712 1.391 . S
C714 H704 0.950 . S
C714 C715 1.386 . S
C714 C716 1.391 . S
C715 C714 1.386 . S
C715 C719 1.393 . S
C716 H705 0.950 . S
C716 C714 1.391 . S
C716 C717 1.400 . S
C717 C711 1.491 . S
C717 C716 1.400 . S
C717 C718 1.398 . S
C718 H706 0.950 . S
C718 C717 1.398 . S
C718 C719 1.391 . S
C719 H707 0.950 . S
C719 C715 1.393 . S
C719 C718 1.391 . S
H720 C728 0.950 . S
H721 C733 0.950 . S
H722 C730 0.950 . S
H723 C732 0.950 . S
H724 C734 0.950 . S
H725 C736 0.950 . S
H726 C738 0.950 . S
H727 C739 0.950 . S
C728 H720 0.950 . S
C728 C729 1.386 . S
C728 C730 1.391 . S
C729 C728 1.386 . S
C729 C733 1.393 . S
C730 H722 0.950 . S
C730 C728 1.391 . S
C730 C731 1.400 . S
C731 C730 1.400 . S
C731 C732 1.398 . S
C731 C737 1.491 . S
C732 H723 0.950 . S
C732 C731 1.398 . S
C732 C733 1.391 . S
C733 H721 0.950 . S
C733 C729 1.393 . S
C733 C732 1.391 . S
C734 H724 0.950 . S
C734 C735 1.386 . S
C734 C736 1.391 . S
C735 C734 1.386 . S
C735 C739 1.393 . S
C736 H725 0.950 . S
C736 C734 1.391 . S
C736 C737 1.400 . S
C737 C731 1.491 . S
C737 C736 1.400 . S
C737 C738 1.398 . S
C738 H726 0.950 . S
C738 C737 1.398 . S
C738 C739 1.391 . S
C739 H727 0.950 . S
C739 C735 1.393 . S
C739 C738 1.391 . S
H740 C748 0.950 . S
H741 C753 0.950 . S
H742 C750 0.950 . S
H743 C752 0.950 . S
H744 C754 0.950 . S
H745 C756 0.950 . S
H746 C758 0.950 . S
H747 C759 0.950 . S
C748 H740 0.950 . S
C748 C749 1.386 . S
C748 C750 1.391 . S
C749 C748 1.386 . S
C749 C753 1.393 . S
C750 H742 0.950 . S
C750 C748 1.391 . S
C750 C751 1.400 . S
C751 C750 1.400 . S
C751 C752 1.398 . S
C751 C757 1.491 . S
C752 H743 0.950 . S
C752 C751 1.398 . S
C752 C753 1.391 . S
C753 H741 0.950 . S
C753 C749 1.393 . S
C753 C752 1.391 . S
C754 H744 0.950 . S
C754 C755 1.386 . S
C754 C756 1.391 . S
C755 C754 1.386 . S
C755 C759 1.393 . S
C756 H745 0.950 . S
C756 C754 1.391 . S
C756 C757 1.400 . S
C757 C751 1.491 . S
C757 C756 1.400 . S
C757 C758 1.398 . S
C758 H746 0.950 . S
C758 C757 1.398 . S
C758 C759 1.391 . S
C759 H747 0.950 . S
C759 C755 1.393 . S
C759 C758 1.391 . S
H760 C768 0.950 . S
H761 C773 0.950 . S
H762 C770 0.950 . S
H763 C772 0.950 . S
H764 C774 0.950 . S
H765 C776 0.950 . S
H766 C778 0.950 . S
H767 C779 0.950 . S
C768 H760 0.950 . S
C768 C769 1.386 . S
C768 C770 1.391 . S
C769 C768 1.386 . S
C769 C773 1.393 . S
C770 H762 0.950 . S
C770 C768 1.391 . S
C770 C771 1.400 . S
C771 C770 1.400 . S
C771 C772 1.398 . S
C771 C777 1.491 . S
C772 H763 0.950 . S
C772 C771 1.398 . S
C772 C773 1.391 . S
C773 H761 0.950 . S
C773 C769 1.393 . S
C773 C772 1.391 . S
C774 H764 0.950 . S
C774 C775 1.386 . S
C774 C776 1.391 . S
C775 C774 1.386 . S
C775 C779 1.393 . S
C776 H765 0.950 . S
C776 C774 1.391 . S
C776 C777 1.400 . S
C777 C771 1.491 . S
C777 C776 1.400 . S
C777 C778 1.398 . S
C778 H766 0.950 . S
C778 C777 1.398 . S
C778 C779 1.391 . S
C779 H767 0.950 . S
C779 C775 1.393 . S
C779 C778 1.391 . S
H780 C788 0.950 . S
H781 C793 0.950 . S
H782 C790 0.950 . S
H783 C792 0.950 . S
H784 C794 0.950 . S
H785 C796 0.950 . S
H786 C798 0.950 . S
H787 C799 0.950 . S
C788 H780 0.950 . S
C788 C789 1.386 . S
C788 C790 1.391 . S
C789 C788 1.386 . S
C789 C793 1.393 . S
C790 H782 0.950 . S
C790 C788 1.391 . S
C790 C791 1.400 . S
C791 C790 1.400 . S
C791 C792 1.398 . S
C791 C797 1.491 . S
C792 H783 0.950 . S
C792 C791 1.398 . S
C792 C793 1.391 . S
C793 H781 0.950 . S
C793 C789 1.393 . S
C793 C792 1.391 . S
C794 H784 0.950 . S
C794 C795 1.386 . S
C794 C796 1.391 . S
C795 C794 1.386 . S
C795 C799 1.393 . S
C796 H785 0.950 . S
C796 C794 1.391 . S
C796 C797 1.400 . S
C797 C791 1.491 . S
C797 C796 1.400 . S
C797 C798 1.398 . S
C798 H786 0.950 . S
C798 C797 1.398 . S
C798 C799 1.391 . S
C799 H787 0.950 . S
C799 C795 1.393 . S
C799 C798 1.391 . S
H800 C808 0.950 . S
H801 C813 0.950 . S
H802 C810 0.950 . S
H803 C812 0.950 . S
H804 C814 0.950 . S
H805 C816 0.950 . S
H806 C818 0.950 . S
H807 C819 0.950 . S
C808 H800 0.950 . S
C808 C809 1.386 . S
C808 C810 1.391 . S
C809 C808 1.386 . S
C809 C813 1.393 . S
C810 H802 0.950 . S
C810 C808 1.391 . S
C810 C811 1.400 . S
C811 C810 1.400 . S
C811 C812 1.398 . S
C811 C817 1.491 . S
C812 H803 0.950 . S
C812 C811 1.398 . S
C812 C813 1.391 . S
C813 H801 0.950 . S
C813 C809 1.393 . S
C813 C812 1.391 . S
C814 H804 0.950 . S
C814 C815 1.386 . S
C814 C816 1.391 . S
C815 C814 1.386 . S
C815 C819 1.393 . S
C816 H805 0.950 . S
C816 C814 1.391 . S
C816 C817 1.400 1_556 S
C817 C811 1.491 . S
C817 C816 1.400 1_554 S
C817 C818 1.398 . S
C818 H806 0.950 . S
C818 C817 1.398 . S
C818 C819 1.391 1_554 S
C819 H807 0.950 . S
C819 C815 1.393 . S
C819 C818 1.391 1_556 S
H820 C828 0.950 . S
H821 C833 0.950 . S
H822 C830 0.950 . S
H823 C832 0.950 . S
H824 C834 0.950 . S
H825 C836 0.950 . S
H826 C838 0.950 . S
H827 C839 0.950 . S
C828 H820 0.950 . S
C828 C829 1.386 . S
C828 C830 1.391 . S
C829 C828 1.386 . S
C829 C833 1.393 . S
C830 H822 0.950 . S
C830 C828 1.391 . S
C830 C831 1.400 . S
C831 C830 1.400 . S
C831 C832 1.398 . S
C831 C837 1.491 . S
C832 H823 0.950 . S
C832 C831 1.398 . S
C832 C833 1.391 . S
C833 H821 0.950 . S
C833 C829 1.393 . S
C833 C832 1.391 . S
C834 H824 0.950 . S
C834 C835 1.386 . S
C834 C836 1.391 . S
C835 C834 1.386 . S
C835 C839 1.393 . S
C836 H825 0.950 . S
C836 C834 1.391 . S
C836 C837 1.400 . S
C837 C831 1.491 . S
C837 C836 1.400 . S
C837 C838 1.398 . S
C838 H826 0.950 . S
C838 C837 1.398 . S
C838 C839 1.391 . S
C839 H827 0.950 . S
C839 C835 1.393 . S
C839 C838 1.391 . S
C375 C353 1.561 . S
C369 C15 1.542 . S
C389 C61 1.447 . S
C395 C287 1.447 . S
C409 C114 1.392 . S
C415 C301 1.385 . S
C429 C139 1.475 . S
C435 C315 1.462 . S
C455 C329 1.523 . S
C449 C185 1.537 . S
C469 C245 1.496 . S
C475 C339 1.531 . S
C489 C47 1.562 . S
C495 C297 1.576 . S
C509 C100 1.643 . S
C515 C311 1.659 . S
C529 C153 1.561 . S
C535 C325 1.594 . S
C555 C343 1.495 . S
C549 C199 1.501 . S
C575 C357 1.506 . S
C569 C231 1.517 . S
C595 C283 1.539 . S
C589 C1 1.532 . S
C609 C22 1.475 . S
C615 C298 1.424 . S
C629 C68 1.556 . S
C635 C312 1.497 . S
C655 C326 1.518 . S
C649 C107 1.564 . S
C669 C146 1.464 . S
C675 C345 1.398 . S
C695 C359 1.386 . S
C689 C192 1.442 . S
C715 C284 1.409 . S
C709 C252 1.454 . S
C735 C354 1.411 . S
C729 C54 1.463 . S
C749 C93 1.355 . S
C755 C289 1.318 . S
C775 C303 1.310 . S
C769 C160 1.355 . S
C789 C206 1.446 . S
C795 C317 1.371 . S
C809 C238 1.467 . S
C815 C331 1.396 . S
C829 C8 1.493 . S
C835 C340 1.440 . S
