# Generated by pormake.
# Topology pto, (3,4)-cn, num edge types: 1
# Building blocks:
#     Node 0, Type 0, BuildingBlock: MIDCAF_clean_linker_0, # of connection points: 3
#     Node 1, Type 0, BuildingBlock: MIDCAF_clean_linker_0, # of connection points: 3
#     Node 2, Type 0, BuildingBlock: MIDCAF_clean_linker_0, # of connection points: 3
#     Node 3, Type 0, BuildingBlock: MIDCAF_clean_linker_0, # of connection points: 3
#     Node 4, Type 0, BuildingBlock: MIDCAF_clean_linker_0, # of connection points: 3
#     Node 5, Type 0, BuildingBlock: MIDCAF_clean_linker_0, # of connection points: 3
#     Node 6, Type 0, BuildingBlock: MIDCAF_clean_linker_0, # of connection points: 3
#     Node 7, Type 0, BuildingBlock: MIDCAF_clean_linker_0, # of connection points: 3
#     Node 8, Type 1, BuildingBlock: NAWXER_clean_sbu_0, # of connection points: 4
#     Node 9, Type 1, BuildingBlock: NAWXER_clean_sbu_0, # of connection points: 4
#     Node 10, Type 1, BuildingBlock: NAWXER_clean_sbu_0, # of connection points: 4
#     Node 11, Type 1, BuildingBlock: NAWXER_clean_sbu_0, # of connection points: 4
#     Node 12, Type 1, BuildingBlock: NAWXER_clean_sbu_0, # of connection points: 4
#     Node 13, Type 1, BuildingBlock: NAWXER_clean_sbu_0, # of connection points: 4
#     Edge 14, Type (0, 1), BuildingBlock: CIFDUS_clean_linker_0, # of connection points: 2
#     Edge 15, Type (0, 1), BuildingBlock: CIFDUS_clean_linker_0, # of connection points: 2
#     Edge 16, Type (0, 1), BuildingBlock: CIFDUS_clean_linker_0, # of connection points: 2
#     Edge 17, Type (0, 1), BuildingBlock: CIFDUS_clean_linker_0, # of connection points: 2
#     Edge 18, Type (0, 1), BuildingBlock: CIFDUS_clean_linker_0, # of connection points: 2
#     Edge 19, Type (0, 1), BuildingBlock: CIFDUS_clean_linker_0, # of connection points: 2
#     Edge 20, Type (0, 1), BuildingBlock: CIFDUS_clean_linker_0, # of connection points: 2
#     Edge 21, Type (0, 1), BuildingBlock: CIFDUS_clean_linker_0, # of connection points: 2
#     Edge 22, Type (0, 1), BuildingBlock: CIFDUS_clean_linker_0, # of connection points: 2
#     Edge 23, Type (0, 1), BuildingBlock: CIFDUS_clean_linker_0, # of connection points: 2
#     Edge 24, Type (0, 1), BuildingBlock: CIFDUS_clean_linker_0, # of connection points: 2
#     Edge 25, Type (0, 1), BuildingBlock: CIFDUS_clean_linker_0, # of connection points: 2
#     Edge 26, Type (0, 1), BuildingBlock: CIFDUS_clean_linker_0, # of connection points: 2
#     Edge 27, Type (0, 1), BuildingBlock: CIFDUS_clean_linker_0, # of connection points: 2
#     Edge 28, Type (0, 1), BuildingBlock: CIFDUS_clean_linker_0, # of connection points: 2
#     Edge 29, Type (0, 1), BuildingBlock: CIFDUS_clean_linker_0, # of connection points: 2
#     Edge 30, Type (0, 1), BuildingBlock: CIFDUS_clean_linker_0, # of connection points: 2
#     Edge 31, Type (0, 1), BuildingBlock: CIFDUS_clean_linker_0, # of connection points: 2
#     Edge 32, Type (0, 1), BuildingBlock: CIFDUS_clean_linker_0, # of connection points: 2
#     Edge 33, Type (0, 1), BuildingBlock: CIFDUS_clean_linker_0, # of connection points: 2
#     Edge 34, Type (0, 1), BuildingBlock: CIFDUS_clean_linker_0, # of connection points: 2
#     Edge 35, Type (0, 1), BuildingBlock: CIFDUS_clean_linker_0, # of connection points: 2
#     Edge 36, Type (0, 1), BuildingBlock: CIFDUS_clean_linker_0, # of connection points: 2
#     Edge 37, Type (0, 1), BuildingBlock: CIFDUS_clean_linker_0, # of connection points: 2
# Relax obj value: 0.000
# Max RMSD: 0.002
# Mean RMSD: 0.001
data_MOF--net-pto--node1-NAWXER_clean_sbu_0--node2-MIDCAF_clean_linker_0--edge1-CIFDUS_clean_linker_0
_symmetry_space_group_name_H-M    P1
_symmetry_Int_Tables_number       1
_symmetry_cell_setting            triclinic
loop_
_symmetry_equiv_pos_as_xyz
'x, y, z'
_cell_length_a     47.942634
_cell_length_b     45.17251
_cell_length_c     42.254087
_cell_angle_alpha  89.716506
_cell_angle_beta   90.018954
_cell_angle_gamma 90.125008
loop_
_atom_site_label
_atom_site_type_symbol
_atom_site_fract_x
_atom_site_fract_y
_atom_site_fract_z
_atom_type_partial_charge
C0 C 0.32409 0.23202 0.18164 0.0
C1 C 0.32825 0.25482 0.15936 0.0
C2 C 0.30657 0.27512 0.1539 0.0
C3 C 0.28143 0.27285 0.17047 0.0
H4 H 0.21228 0.32117 0.19454 0.0
H5 H 0.17717 0.35944 0.18695 0.0
H6 H 0.11561 0.30379 0.23226 0.0
H7 H 0.15084 0.26527 0.24021 0.0
H8 H 0.18321 0.22016 0.29679 0.0
H9 H 0.18109 0.18361 0.33961 0.0
H10 H 0.25264 0.13896 0.30033 0.0
H11 H 0.2552 0.17554 0.25823 0.0
H12 H 0.29659 0.21201 0.21539 0.0
H13 H 0.34047 0.2162 0.18665 0.0
H14 H 0.3089 0.29267 0.13654 0.0
H15 H 0.26527 0.28896 0.16561 0.0
N16 N 0.23034 0.26854 0.20645 0.0
N17 N 0.20248 0.24513 0.24485 0.0
N18 N 0.24677 0.22628 0.23264 0.0
C19 C 0.20614 0.26719 0.22315 0.0
C20 C 0.22277 0.22455 0.2497 0.0
C21 C 0.25074 0.24816 0.21096 0.0
C22 C 0.18443 0.29011 0.2181 0.0
C23 C 0.19126 0.31691 0.20282 0.0
C24 C 0.17119 0.33893 0.19854 0.0
C25 C 0.1437 0.33456 0.20901 0.0
C26 C 0.13663 0.30762 0.22375 0.0
C27 C 0.15685 0.28568 0.22848 0.0
C28 C 0.21959 0.20108 0.27422 0.0
C29 C 0.19835 0.20241 0.29716 0.0
C30 C 0.19706 0.18139 0.32166 0.0
C31 C 0.21693 0.15858 0.32367 0.0
C32 C 0.2374 0.15663 0.29996 0.0
C33 C 0.23878 0.17761 0.27567 0.0
C34 C 0.2773 0.25019 0.19294 0.0
C35 C 0.29893 0.22973 0.19824 0.0
C36 C 0.16067 0.6699 0.8004 0.0
C37 C 0.14335 0.6627 0.77457 0.0
C38 C 0.14977 0.67503 0.74473 0.0
C39 C 0.17218 0.69451 0.741 0.0
H40 H 0.18561 0.78636 0.70856 0.0
H41 H 0.18212 0.82817 0.67209 0.0
H42 H 0.27194 0.83683 0.67244 0.0
H43 H 0.27529 0.79599 0.7098 0.0
H44 H 0.30727 0.7692 0.76802 0.0
H45 H 0.3495 0.76578 0.79942 0.0
H46 H 0.31249 0.69605 0.85576 0.0
H47 H 0.27 0.69905 0.82387 0.0
H48 H 0.19646 0.69408 0.81676 0.0
H49 H 0.15635 0.66131 0.82385 0.0
H50 H 0.1377 0.66945 0.72394 0.0
H51 H 0.17636 0.70362 0.7177 0.0
N52 N 0.21125 0.74436 0.74041 0.0
N53 N 0.25661 0.75969 0.75283 0.0
N54 N 0.23679 0.71923 0.77969 0.0
C55 C 0.23292 0.76326 0.73562 0.0
C56 C 0.2588 0.73779 0.77488 0.0
C57 C 0.21303 0.7223 0.76235 0.0
C58 C 0.23072 0.78787 0.7123 0.0
C59 C 0.20461 0.79718 0.70081 0.0
C60 C 0.20262 0.82114 0.67975 0.0
C61 C 0.22672 0.83618 0.66937 0.0
C62 C 0.25284 0.82639 0.68044 0.0
C63 C 0.2548 0.80273 0.70175 0.0
C64 C 0.28497 0.73461 0.79353 0.0
C65 C 0.30798 0.75302 0.787 0.0
C66 C 0.33227 0.75114 0.8051 0.0
C67 C 0.33429 0.73086 0.83031 0.0
C68 C 0.31166 0.7118 0.83637 0.0
C69 C 0.28723 0.71367 0.81819 0.0
C70 C 0.18937 0.70159 0.76674 0.0
C71 C 0.18361 0.68885 0.79643 0.0
C72 C 0.67601 0.6994 0.16172 0.0
C73 C 0.65918 0.72373 0.15326 0.0
C74 C 0.6672 0.7521 0.16355 0.0
C75 C 0.69046 0.75592 0.18289 0.0
H76 H 0.70867 0.804 0.26266 0.0
H77 H 0.7051 0.84333 0.30152 0.0
H78 H 0.78348 0.81603 0.34265 0.0
H79 H 0.78746 0.77701 0.30334 0.0
H80 H 0.8235 0.72993 0.26679 0.0
H81 H 0.86495 0.69924 0.26552 0.0
H82 H 0.82639 0.643 0.1956 0.0
H83 H 0.78484 0.67418 0.19628 0.0
H84 H 0.71202 0.6842 0.18735 0.0
H85 H 0.67049 0.67721 0.15444 0.0
H86 H 0.65549 0.77157 0.15671 0.0
H87 H 0.69567 0.77806 0.19072 0.0
N88 N 0.72926 0.75836 0.23536 0.0
N89 N 0.77339 0.74555 0.25461 0.0
N90 N 0.7534 0.71843 0.21301 0.0
C91 C 0.75048 0.76317 0.25594 0.0
C92 C 0.77512 0.72321 0.23317 0.0
C93 C 0.73047 0.73609 0.21394 0.0
C94 C 0.74842 0.78725 0.27971 0.0
C95 C 0.72522 0.80631 0.27993 0.0
C96 C 0.72304 0.82882 0.30239 0.0
C97 C 0.74397 0.83288 0.32527 0.0
C98 C 0.76715 0.81381 0.32511 0.0
C99 C 0.76936 0.79131 0.3026 0.0
C100 C 0.80059 0.70449 0.23182 0.0
C101 C 0.82372 0.71108 0.25105 0.0
C102 C 0.84755 0.69338 0.25041 0.0
C103 C 0.84896 0.66848 0.23064 0.0
C104 C 0.8261 0.66215 0.2109 0.0
C105 C 0.80219 0.67995 0.21149 0.0
C106 C 0.70686 0.73162 0.19191 0.0
C107 C 0.69977 0.70336 0.18066 0.0
C108 C 0.77931 0.17718 0.67456 0.0
C109 C 0.75361 0.16646 0.6632 0.0
C110 C 0.7291 0.17426 0.6795 0.0
C111 C 0.73031 0.19277 0.70604 0.0
H112 H 0.70743 0.19935 0.81342 0.0
H113 H 0.67207 0.2012 0.85483 0.0
H114 H 0.68339 0.29611 0.86099 0.0
H115 H 0.72001 0.2936 0.82146 0.0
H116 H 0.80659 0.28505 0.82331 0.0
H117 H 0.84748 0.31711 0.82639 0.0
H118 H 0.85006 0.32159 0.72407 0.0
H119 H 0.81064 0.28794 0.72135 0.0
H120 H 0.80063 0.20397 0.70838 0.0
H121 H 0.79875 0.171 0.66339 0.0
H122 H 0.70891 0.16665 0.67139 0.0
H123 H 0.71106 0.19876 0.71777 0.0
N124 N 0.73723 0.22574 0.76585 0.0
N125 N 0.76105 0.26388 0.79231 0.0
N126 N 0.77953 0.24404 0.74569 0.0
C127 C 0.73887 0.24515 0.79032 0.0
C128 C 0.78147 0.2634 0.77006 0.0
C129 C 0.75756 0.22509 0.74342 0.0
C130 C 0.71659 0.24629 0.81445 0.0
C131 C 0.7023 0.22053 0.82379 0.0
C132 C 0.68186 0.2217 0.84742 0.0
C133 C 0.67473 0.24881 0.86167 0.0
C134 C 0.6887 0.27464 0.85149 0.0
C135 C 0.70961 0.27331 0.82855 0.0
C136 C 0.80556 0.28385 0.7721 0.0
C137 C 0.81604 0.29291 0.80155 0.0
C138 C 0.83943 0.31149 0.80325 0.0
C139 C 0.85249 0.32203 0.7755 0.0
C140 C 0.84136 0.31338 0.74606 0.0
C141 C 0.81849 0.29423 0.74441 0.0
C142 C 0.75599 0.20418 0.71654 0.0
C143 C 0.78045 0.19599 0.70061 0.0
C144 C 0.6939 0.76976 0.83221 0.0
C145 C 0.68205 0.74218 0.84025 0.0
C146 C 0.69373 0.71643 0.82707 0.0
C147 C 0.71662 0.71818 0.80667 0.0
H148 H 0.80718 0.68612 0.79368 0.0
H149 H 0.8418 0.64733 0.78753 0.0
H150 H 0.84873 0.66879 0.68788 0.0
H151 H 0.81548 0.70886 0.6948 0.0
H152 H 0.81015 0.78184 0.68443 0.0
H153 H 0.812 0.82383 0.64818 0.0
H154 H 0.74912 0.86847 0.70331 0.0
H155 H 0.74673 0.8263 0.73924 0.0
H156 H 0.72494 0.79313 0.80543 0.0
H157 H 0.68597 0.79006 0.84227 0.0
H158 H 0.68493 0.69481 0.83198 0.0
H159 H 0.72486 0.69793 0.79677 0.0
N160 N 0.76883 0.72432 0.77121 0.0
N161 N 0.79226 0.75034 0.73101 0.0
N162 N 0.75471 0.77239 0.75734 0.0
C163 C 0.78939 0.72561 0.74909 0.0
C164 C 0.77513 0.7739 0.73508 0.0
C165 C 0.75134 0.74765 0.77537 0.0
C166 C 0.80876 0.70058 0.74478 0.0
C167 C 0.81604 0.68238 0.77047 0.0
C168 C 0.83581 0.65996 0.76679 0.0
C169 C 0.84826 0.6547 0.73713 0.0
C170 C 0.8402 0.67247 0.71125 0.0
C171 C 0.82095 0.69535 0.71512 0.0
C172 C 0.778 0.80046 0.71459 0.0
C173 C 0.79685 0.80068 0.68904 0.0
C174 C 0.79809 0.82486 0.66834 0.0
C175 C 0.78057 0.84938 0.67273 0.0
C176 C 0.76256 0.84967 0.69898 0.0
C177 C 0.76125 0.82549 0.71964 0.0
C178 C 0.72807 0.74576 0.79832 0.0
C179 C 0.71644 0.77154 0.81126 0.0
C180 C 0.79076 0.2081 0.34211 0.0
C181 C 0.77375 0.18365 0.33491 0.0
C182 C 0.75569 0.18551 0.30877 0.0
C183 C 0.75385 0.21154 0.291 0.0
H184 H 0.71149 0.25001 0.21629 0.0
H185 H 0.67302 0.25506 0.17937 0.0
H186 H 0.67807 0.35035 0.18713 0.0
H187 H 0.71765 0.3452 0.223 0.0
H188 H 0.78092 0.36799 0.24144 0.0
H189 H 0.81789 0.40487 0.24071 0.0
H190 H 0.86837 0.34917 0.30102 0.0
H191 H 0.83121 0.3122 0.30224 0.0
H192 H 0.80197 0.25281 0.33083 0.0
H193 H 0.80471 0.20749 0.36227 0.0
H194 H 0.74271 0.16688 0.30217 0.0
H195 H 0.73938 0.21223 0.27132 0.0
N196 N 0.74505 0.26801 0.2608 0.0
N197 N 0.75988 0.31626 0.24898 0.0
N198 N 0.78529 0.28706 0.28485 0.0
C199 C 0.74134 0.29384 0.24482 0.0
C200 C 0.78199 0.31301 0.26887 0.0
C201 C 0.76685 0.26447 0.28099 0.0
C202 C 0.71761 0.2972 0.22265 0.0
C203 C 0.70438 0.27206 0.21018 0.0
C204 C 0.68211 0.27499 0.18912 0.0
C205 C 0.67211 0.30314 0.18037 0.0
C206 C 0.68537 0.32832 0.19294 0.0
C207 C 0.70799 0.32538 0.21366 0.0
C208 C 0.80318 0.33684 0.27149 0.0
C209 C 0.79972 0.36362 0.25488 0.0
C210 C 0.82094 0.38478 0.25438 0.0
C211 C 0.84616 0.37972 0.27046 0.0
C212 C 0.84912 0.35373 0.28851 0.0
C213 C 0.82784 0.33247 0.28901 0.0
C214 C 0.77019 0.23634 0.29877 0.0
C215 C 0.78905 0.23415 0.32419 0.0
C216 C 0.29643 0.20082 0.6806 0.0
C217 C 0.27602 0.19922 0.65681 0.0
C218 C 0.25707 0.22278 0.65344 0.0
C219 C 0.25807 0.24698 0.67392 0.0
H220 H 0.22461 0.33475 0.69589 0.0
H221 H 0.18484 0.36813 0.69857 0.0
H222 H 0.19298 0.37069 0.80054 0.0
H223 H 0.23374 0.33907 0.79739 0.0
H224 H 0.3026 0.33119 0.81878 0.0
H225 H 0.33776 0.32853 0.86074 0.0
H226 H 0.37902 0.25769 0.81119 0.0
H227 H 0.3442 0.25998 0.76968 0.0
H228 H 0.31326 0.22513 0.71934 0.0
H229 H 0.3111 0.18292 0.68419 0.0
H230 H 0.24137 0.22248 0.63501 0.0
H231 H 0.24292 0.26452 0.67092 0.0
N232 N 0.25708 0.29276 0.72206 0.0
N233 N 0.27668 0.31485 0.76719 0.0
N234 N 0.29854 0.27424 0.7436 0.0
C235 C 0.2562 0.31384 0.7449 0.0
C236 C 0.29813 0.29524 0.76645 0.0
C237 C 0.27818 0.27275 0.72138 0.0
C238 C 0.23236 0.33447 0.74641 0.0
C239 C 0.21794 0.3427 0.71881 0.0
C240 C 0.19495 0.36166 0.72043 0.0
C241 C 0.18545 0.37228 0.74979 0.0
C242 C 0.19993 0.36373 0.77738 0.0
C243 C 0.22328 0.34538 0.77566 0.0
C244 C 0.3203 0.29555 0.79097 0.0
C245 C 0.31929 0.31519 0.81673 0.0
C246 C 0.33947 0.31379 0.8407 0.0
C247 C 0.36091 0.29267 0.83939 0.0
C248 C 0.36244 0.27384 0.81313 0.0
C249 C 0.34244 0.27525 0.78925 0.0
C250 C 0.27814 0.24825 0.69814 0.0
C251 C 0.29754 0.22505 0.70093 0.0
C252 C 0.19561 0.67764 0.24086 0.0
C253 C 0.18445 0.66907 0.2704 0.0
C254 C 0.19775 0.67904 0.29807 0.0
C255 C 0.22108 0.69755 0.29628 0.0
H256 H 0.25342 0.76875 0.34356 0.0
H257 H 0.25412 0.80824 0.38227 0.0
H258 H 0.31638 0.85482 0.32738 0.0
H259 H 0.31604 0.81495 0.28845 0.0
H260 H 0.34238 0.77983 0.22935 0.0
H261 H 0.37583 0.77689 0.18617 0.0
H262 H 0.32598 0.70879 0.14215 0.0
H263 H 0.29277 0.71119 0.18557 0.0
H264 H 0.22716 0.70214 0.21604 0.0
H265 H 0.18574 0.67099 0.21898 0.0
H266 H 0.1903 0.67245 0.32124 0.0
H267 H 0.23063 0.70503 0.31807 0.0
N268 N 0.26019 0.74644 0.28876 0.0
N269 N 0.29895 0.76602 0.26213 0.0
N270 N 0.27354 0.72678 0.23986 0.0
C271 C 0.28147 0.76625 0.28743 0.0
C272 C 0.29524 0.74623 0.23831 0.0
C273 C 0.25602 0.72672 0.26514 0.0
C274 C 0.28437 0.78883 0.31256 0.0
C275 C 0.26748 0.78723 0.33971 0.0
C276 C 0.2678 0.80991 0.36193 0.0
C277 C 0.28499 0.83481 0.35759 0.0
C278 C 0.30297 0.83583 0.33135 0.0
C279 C 0.30266 0.81304 0.30901 0.0
C280 C 0.3149 0.74559 0.21117 0.0
C281 C 0.33842 0.76429 0.21044 0.0
C282 C 0.35757 0.76275 0.18555 0.0
C283 C 0.35366 0.74251 0.16077 0.0
C284 C 0.32985 0.72429 0.16114 0.0
C285 C 0.31072 0.72579 0.18602 0.0
C286 C 0.23208 0.70608 0.2668 0.0
C287 C 0.21933 0.69565 0.23911 0.0
C288 C 0.97917 0.48652 0.26841 0.0
C289 C 0.05576 0.55691 0.254 0.0
O290 O 0.99305 0.49898 0.29031 0.0
Zn291 Zn 0.01708 0.52243 0.26253 0.0
O292 O 0.98516 0.49206 0.23945 0.0
Zn293 Zn 0.01341 0.518 0.21213 0.0
O294 O 0.03407 0.48728 0.19021 0.0
O295 O 0.0432 0.48937 0.2415 0.0
O296 O 0.04612 0.54681 0.22786 0.0
O297 O 0.04437 0.54948 0.28004 0.0
O298 O 0.98775 0.55159 0.24066 0.0
O299 O 0.988 0.54409 0.18917 0.0
C300 C 0.04757 0.47802 0.21421 0.0
C301 C 0.97833 0.55775 0.21302 0.0
C302 C 0.96881 0.4475 0.7968 0.0
C303 C 0.033 0.53189 0.79817 0.0
O304 O 0.97965 0.4597 0.82093 0.0
Zn305 Zn 1.00118 0.48953 0.79846 0.0
O306 O 0.97483 0.45717 0.76904 0.0
Zn307 Zn 0.99977 0.49152 0.74802 0.0
O308 O 0.02633 0.46931 0.72309 0.0
O309 O 0.03293 0.46489 0.77465 0.0
O310 O 0.02545 0.52445 0.7702 0.0
O311 O 0.02387 0.51752 0.82198 0.0
O312 O 0.96865 0.51654 0.77888 0.0
O313 O 0.97239 0.51592 0.72672 0.0
C314 C 0.04032 0.45904 0.74621 0.0
C315 C 0.95999 0.52475 0.75151 0.0
C316 C 0.2473 0.9766 0.55599 0.0
C317 C 0.24863 0.04702 0.46723 0.0
O318 O 0.22636 0.98648 0.5408 0.0
Zn319 Zn 0.24692 0.01182 0.51153 0.0
O320 O 0.27193 0.98498 0.54819 0.0
Zn321 Zn 0.29145 0.01278 0.51346 0.0
O322 O 0.31058 0.04161 0.53894 0.0
O323 O 0.26472 0.04547 0.54128 0.0
O324 O 0.2729 0.04014 0.47767 0.0
O325 O 0.22714 0.03544 0.47997 0.0
O326 O 0.26768 0.97989 0.48285 0.0
O327 O 0.31314 0.985 0.48881 0.0
C328 C 0.28903 0.05462 0.54947 0.0
C329 C 0.29258 0.97175 0.47615 0.0
C330 C 0.53994 0.70323 0.02406 0.0
C331 C 0.46712 0.70846 0.9429 0.0
O332 O 0.52867 0.68141 0.01001 0.0
Zn333 Zn 0.50444 0.7048 0.98282 0.0
O334 O 0.53296 0.72976 0.0166 0.0
Zn335 Zn 0.50553 0.75201 0.98407 0.0
O336 O 0.48199 0.77381 0.0127 0.0
O337 O 0.47674 0.72533 0.01643 0.0
O338 O 0.47559 0.73388 0.95221 0.0
O339 O 0.47856 0.68526 0.954 0.0
O340 O 0.53483 0.7249 0.95242 0.0
O341 O 0.53101 0.7734 0.95653 0.0
C342 C 0.47015 0.75151 0.02542 0.0
C343 C 0.54297 0.75098 0.94464 0.0
C344 C 0.79576 0.97076 0.5358 0.0
C345 C 0.79363 0.04673 0.45317 0.0
O346 O 0.77135 0.9761 0.52492 0.0
Zn347 Zn 0.75149 1.00324 0.49056 0.0
O348 O 0.8167 0.98433 0.52421 0.0
Zn349 Zn 0.79601 0.00818 0.49369 0.0
O350 O 0.7721 0.03675 0.52354 0.0
O351 O 0.72724 0.02686 0.51748 0.0
O352 O 0.8152 0.03666 0.46705 0.0
O353 O 0.76955 0.03599 0.45995 0.0
O354 O 0.73606 0.97436 0.46121 0.0
O355 O 0.78201 0.97611 0.46023 0.0
C356 C 0.74655 0.04176 0.53063 0.0
C357 C 0.75906 0.96513 0.45 0.0
C358 C 0.54217 0.28606 0.06366 0.0
C359 C 0.47519 0.29404 0.9771 0.0
O360 O 0.53358 0.26074 0.05402 0.0
Zn361 Zn 0.50613 0.24376 0.01819 0.0
O362 O 0.53338 0.30955 0.05037 0.0
Zn363 Zn 0.50911 0.29062 0.02008 0.0
O364 O 0.47679 0.27098 0.04916 0.0
O365 O 0.47867 0.22257 0.04265 0.0
O366 O 0.48762 0.31513 0.99111 0.0
O367 O 0.48051 0.26724 0.98514 0.0
O368 O 0.53044 0.2215 0.99064 0.0
O369 O 0.53868 0.26958 0.98931 0.0
C370 C 0.46735 0.24496 0.05541 0.0
C371 C 0.54448 0.24329 0.98011 0.0
H372 H 0.14979 0.39188 0.22571 0.0
H373 H 0.09082 0.33087 0.18494 0.0
H374 H 0.05634 0.37066 0.18 0.0
H375 H 0.04244 0.42279 0.18933 0.0
H376 H 0.10067 0.48211 0.2341 0.0
H377 H 0.13618 0.44333 0.23492 0.0
C378 C 0.12947 0.3874 0.21546 0.0
C379 C 0.12285 0.35859 0.20557 0.0
C380 C 0.1097 0.41018 0.2133 0.0
C381 C 0.09629 0.3529 0.19285 0.0
C382 C 0.07665 0.37565 0.18992 0.0
C383 C 0.06308 0.42718 0.19876 0.0
C384 C 0.06922 0.45518 0.2113 0.0
C385 C 0.08305 0.40438 0.20026 0.0
C386 C 0.0957 0.46065 0.22418 0.0
C387 C 0.11592 0.4385 0.22475 0.0
H388 H 0.13713 0.61527 0.81535 0.0
H389 H 0.09342 0.66453 0.74274 0.0
H390 H 0.05547 0.62893 0.74434 0.0
H391 H 0.03558 0.58233 0.76405 0.0
H392 H 0.07636 0.53535 0.83997 0.0
H393 H 0.11408 0.57217 0.84013 0.0
C394 C 0.11913 0.61872 0.80029 0.0
C395 C 0.11882 0.64237 0.7783 0.0
C396 C 0.0967 0.59859 0.802 0.0
C397 C 0.09507 0.64605 0.75902 0.0
C398 C 0.07306 0.62583 0.76013 0.0
C399 C 0.05258 0.58041 0.7809 0.0
C400 C 0.0534 0.55616 0.8018 0.0
C401 C 0.07388 0.60175 0.78108 0.0
C402 C 0.07529 0.55398 0.82377 0.0
C403 C 0.09692 0.57489 0.82369 0.0
H404 H 0.8762 0.64187 0.18119 0.0
H405 H 0.87737 0.6502 0.28296 0.0
H406 H 0.91803 0.6182 0.28596 0.0
H407 H 0.95253 0.58708 0.26034 0.0
H408 H 0.95156 0.57669 0.15887 0.0
H409 H 0.91153 0.61021 0.15516 0.0
C410 C 0.88528 0.63653 0.20401 0.0
C411 C 0.87377 0.64867 0.23179 0.0
C412 C 0.90871 0.61778 0.20566 0.0
C413 C 0.886 0.64169 0.26114 0.0
C414 C 0.9092 0.62321 0.26293 0.0
C415 C 0.94375 0.59218 0.2373 0.0
C416 C 0.95513 0.57933 0.20991 0.0
C417 C 0.92068 0.61113 0.2354 0.0
C418 C 0.9433 0.58627 0.18034 0.0
C419 C 0.92034 0.60538 0.17823 0.0
H420 H 0.86554 0.36389 0.82043 0.0
H421 H 0.89665 0.32487 0.73413 0.0
H422 H 0.93524 0.35975 0.73356 0.0
H423 H 0.95936 0.40267 0.75612 0.0
H424 H 0.93132 0.43894 0.84471 0.0
H425 H 0.89293 0.40303 0.84637 0.0
C426 C 0.88096 0.36246 0.80177 0.0
C427 C 0.87748 0.34195 0.77695 0.0
C428 C 0.90385 0.38205 0.80205 0.0
C429 C 0.8979 0.34095 0.75298 0.0
C430 C 0.92029 0.36073 0.75277 0.0
C431 C 0.94499 0.40249 0.77595 0.0
C432 C 0.94799 0.42351 0.80013 0.0
C433 C 0.92325 0.38163 0.7769 0.0
C434 C 0.92948 0.42287 0.82588 0.0
C435 C 0.90743 0.40248 0.82671 0.0
H436 H 0.2622 0.1394 0.35604 0.0
H437 H 0.17261 0.13099 0.3531 0.0
H438 H 0.17414 0.09602 0.39761 0.0
H439 H 0.20139 0.06696 0.43685 0.0
H440 H 0.29117 0.07574 0.43782 0.0
H441 H 0.289 0.11096 0.39437 0.0
C442 C 0.24297 0.12968 0.36482 0.0
C443 C 0.21737 0.13762 0.35099 0.0
C444 C 0.24404 0.10951 0.3901 0.0
C445 C 0.19263 0.12539 0.36336 0.0
C446 C 0.1935 0.10526 0.38872 0.0
C447 C 0.22045 0.07658 0.42753 0.0
C448 C 0.24639 0.06853 0.44067 0.0
C449 C 0.21915 0.09703 0.40223 0.0
C450 C 0.27088 0.08133 0.42827 0.0
C451 C 0.26972 0.10158 0.40335 0.0
H452 H 0.36315 0.6832 0.85401 0.0
H453 H 0.3618 0.77877 0.85342 0.0
H454 H 0.40315 0.77997 0.8868 0.0
H455 H 0.43912 0.75439 0.91678 0.0
H456 H 0.44104 0.65889 0.91912 0.0
H457 H 0.40005 0.65719 0.88447 0.0
C458 C 0.37186 0.70425 0.86135 0.0
C459 C 0.35944 0.73086 0.85099 0.0
C460 C 0.39575 0.70483 0.8808 0.0
C461 C 0.37114 0.75796 0.86054 0.0
C462 C 0.39473 0.7587 0.87979 0.0
C463 C 0.43073 0.73311 0.90969 0.0
C464 C 0.44321 0.7068 0.9206 0.0
C465 C 0.40718 0.73232 0.89005 0.0
C466 C 0.43192 0.6795 0.91106 0.0
C467 C 0.40843 0.67852 0.8913 0.0
H468 H 0.78537 0.86912 0.34624 0.0
H469 H 0.6975 0.85122 0.35759 0.0
H470 H 0.69397 0.89108 0.3963 0.0
H471 H 0.71617 0.93061 0.42785 0.0
H472 H 0.80445 0.94698 0.41687 0.0
H473 H 0.80742 0.90802 0.37753 0.0
C474 C 0.76548 0.87368 0.3574 0.0
C475 C 0.74178 0.85708 0.34899 0.0
C476 C 0.76363 0.89643 0.37983 0.0
C477 C 0.71606 0.86381 0.3633 0.0
C478 C 0.71404 0.88653 0.3856 0.0
C479 C 0.73602 0.92571 0.41676 0.0
C480 C 0.76002 0.94176 0.42544 0.0
C481 C 0.73771 0.90298 0.39412 0.0
C482 C 0.7856 0.935 0.41084 0.0
C483 C 0.78737 0.91268 0.38826 0.0
H484 H 0.62764 0.21443 0.86892 0.0
H485 H 0.67294 0.28636 0.9126 0.0
H486 H 0.63653 0.29125 0.95212 0.0
H487 H 0.59151 0.2758 0.97421 0.0
H488 H 0.5484 0.2008 0.93455 0.0
H489 H 0.58476 0.19586 0.89416 0.0
C490 C 0.62996 0.23086 0.88733 0.0
C491 C 0.65303 0.25034 0.88707 0.0
C492 C 0.60934 0.23295 0.9109 0.0
C493 C 0.65515 0.27164 0.91122 0.0
C494 C 0.63442 0.2743 0.9342 0.0
C495 C 0.59015 0.25831 0.95675 0.0
C496 C 0.56725 0.23885 0.9571 0.0
C497 C 0.61133 0.25527 0.9341 0.0
C498 C 0.5659 0.21601 0.93473 0.0
C499 C 0.58661 0.21327 0.91159 0.0
H500 H 0.25845 0.8864 0.66911 0.0
H501 H 0.19055 0.84421 0.61945 0.0
H502 H 0.18877 0.88554 0.58205 0.0
H503 H 0.20874 0.93227 0.56108 0.0
H504 H 0.27934 0.97149 0.60841 0.0
H505 H 0.27798 0.93267 0.64878 0.0
C506 C 0.2434 0.88598 0.64996 0.0
C507 C 0.22481 0.86194 0.64715 0.0
C508 C 0.243 0.90939 0.62798 0.0
C509 C 0.20497 0.86243 0.62255 0.0
C510 C 0.20405 0.88602 0.60095 0.0
C511 C 0.22351 0.93248 0.58053 0.0
C512 C 0.24405 0.95472 0.58187 0.0
C513 C 0.22319 0.90947 0.60318 0.0
C514 C 0.26337 0.95454 0.60688 0.0
C515 C 0.26264 0.93233 0.62993 0.0
H516 H 0.64892 0.68459 0.10476 0.0
H517 H 0.61019 0.75402 0.15928 0.0
H518 H 0.56963 0.7527 0.12493 0.0
H519 H 0.54634 0.73453 0.07736 0.0
H520 H 0.58239 0.66278 0.02462 0.0
H521 H 0.62241 0.66167 0.06092 0.0
C522 C 0.63144 0.69907 0.10956 0.0
C523 C 0.6332 0.72003 0.13415 0.0
C524 C 0.60762 0.69775 0.09007 0.0
C525 C 0.61011 0.73847 0.13986 0.0
C526 C 0.58667 0.73757 0.1204 0.0
C527 C 0.56282 0.71838 0.07411 0.0
C528 C 0.56167 0.69895 0.04834 0.0
C529 C 0.58547 0.71779 0.09507 0.0
C530 C 0.58287 0.67788 0.04446 0.0
C531 C 0.6058 0.67741 0.06505 0.0
H532 H 0.71889 0.11934 0.65015 0.0
H533 H 0.78609 0.17146 0.61031 0.0
H534 H 0.78878 0.13819 0.56548 0.0
H535 H 0.77437 0.09271 0.53906 0.0
H536 H 0.70545 0.04176 0.57582 0.0
H537 H 0.70055 0.07668 0.61988 0.0
C538 C 0.73381 0.12378 0.63144 0.0
C539 C 0.75278 0.14757 0.63429 0.0
C540 C 0.73491 0.1048 0.60509 0.0
C541 C 0.77189 0.1528 0.60957 0.0
C542 C 0.77331 0.13393 0.58365 0.0
C543 C 0.75807 0.08944 0.55656 0.0
C544 C 0.74048 0.06463 0.5545 0.0
C545 C 0.75535 0.10956 0.5815 0.0
C546 C 0.71919 0.0608 0.57696 0.0
C547 C 0.71653 0.08064 0.60222 0.0
H548 H 0.35953 0.21061 0.13358 0.0
H549 H 0.3574 0.30538 0.14599 0.0
H550 H 0.40049 0.3105 0.11576 0.0
H551 H 0.43815 0.28835 0.08483 0.0
H552 H 0.44071 0.19358 0.07246 0.0
H553 H 0.39836 0.1882 0.10415 0.0
C554 C 0.36867 0.23235 0.13 0.0
C555 C 0.3551 0.25758 0.14189 0.0
C556 C 0.39356 0.23516 0.11264 0.0
C557 C 0.3671 0.28562 0.13667 0.0
C558 C 0.39185 0.28857 0.11953 0.0
C559 C 0.42958 0.26647 0.08917 0.0
C560 C 0.44262 0.24143 0.07617 0.0
C561 C 0.40514 0.26353 0.10721 0.0
C562 C 0.43115 0.21326 0.08212 0.0
C563 C 0.40688 0.21015 0.10021 0.0
H564 H 0.85186 0.60141 0.76789 0.0
H565 H 0.89431 0.65544 0.6982 0.0
H566 H 0.93082 0.61835 0.69377 0.0
H567 H 0.95273 0.57204 0.71244 0.0
H568 H 0.91313 0.52166 0.78684 0.0
H569 H 0.87384 0.55606 0.78709 0.0
C570 C 0.8692 0.6054 0.75197 0.0
C571 C 0.8701 0.63142 0.7335 0.0
C572 C 0.89084 0.58458 0.75047 0.0
C573 C 0.89256 0.63551 0.7124 0.0
C574 C 0.91371 0.61439 0.71002 0.0
C575 C 0.93528 0.56851 0.72837 0.0
C576 C 0.93561 0.54441 0.74947 0.0
C577 C 0.91327 0.58902 0.72923 0.0
C578 C 0.91322 0.54018 0.77043 0.0
C579 C 0.89081 0.55981 0.77059 0.0
H580 H 0.88205 0.40148 0.3153 0.0
H581 H 0.86411 0.40349 0.21516 0.0
H582 H 0.9035 0.43648 0.20619 0.0
H583 H 0.94285 0.46428 0.22615 0.0
H584 H 0.96202 0.4637 0.32597 0.0
H585 H 0.92235 0.4304 0.33571 0.0
C586 C 0.88687 0.40915 0.29157 0.0
C587 C 0.87001 0.40027 0.26597 0.0
C588 C 0.90973 0.42823 0.2865 0.0
C589 C 0.8764 0.41044 0.23534 0.0
C590 C 0.89904 0.42914 0.23013 0.0
C591 C 0.93853 0.45689 0.25013 0.0
C592 C 0.9555 0.46638 0.27529 0.0
C593 C 0.91579 0.43812 0.25548 0.0
C594 C 0.94932 0.45669 0.30616 0.0
C595 C 0.92665 0.43767 0.31172 0.0
H596 H 0.1385 0.37213 0.71236 0.0
H597 H 0.17606 0.4174 0.79169 0.0
H598 H 0.13432 0.44719 0.7978 0.0
H599 H 0.08695 0.46014 0.78142 0.0
H600 H 0.05079 0.41917 0.6991 0.0
H601 H 0.09262 0.38849 0.69281 0.0
C602 C 0.13791 0.38884 0.73065 0.0
C603 C 0.16048 0.39192 0.75186 0.0
C604 C 0.11409 0.40675 0.73348 0.0
C605 C 0.15886 0.41365 0.77559 0.0
C606 C 0.13504 0.431 0.77897 0.0
C607 C 0.08826 0.44447 0.76209 0.0
C608 C 0.06581 0.44155 0.74097 0.0
C609 C 0.11247 0.42754 0.75827 0.0
C610 C 0.06788 0.42169 0.71565 0.0
C611 C 0.09172 0.40414 0.71214 0.0
H612 H 0.16889 0.62444 0.23065 0.0
H613 H 0.14227 0.67075 0.31456 0.0
H614 H 0.10104 0.63928 0.318 0.0
H615 H 0.0717 0.5991 0.29644 0.0
H616 H 0.09662 0.55642 0.20984 0.0
H617 H 0.13888 0.58646 0.20785 0.0
C618 C 0.15394 0.62811 0.24946 0.0
C619 C 0.159 0.65002 0.27233 0.0
C620 C 0.12976 0.61059 0.25076 0.0
C621 C 0.13945 0.65373 0.2969 0.0
C622 C 0.11563 0.63589 0.29877 0.0
C623 C 0.08644 0.59643 0.27721 0.0
C624 C 0.08106 0.57562 0.25334 0.0
C625 C 0.11052 0.61426 0.2758 0.0
C626 C 0.10019 0.57248 0.22838 0.0
C627 C 0.12442 0.58957 0.22726 0.0
H628 H 0.82424 0.87643 0.64227 0.0
H629 H 0.73434 0.87613 0.649 0.0
H630 H 0.73157 0.91414 0.60816 0.0
H631 H 0.75409 0.94603 0.56957 0.0
H632 H 0.84381 0.94692 0.56105 0.0
H633 H 0.84721 0.90986 0.60352 0.0
C634 C 0.80407 0.88469 0.63472 0.0
C635 C 0.77954 0.87353 0.64881 0.0
C636 C 0.80257 0.90646 0.61087 0.0
C637 C 0.75357 0.88466 0.639 0.0
C638 C 0.75193 0.90623 0.61544 0.0
C639 C 0.77448 0.93819 0.57687 0.0
C640 C 0.79866 0.94908 0.56196 0.0
C641 C 0.77623 0.91709 0.6011 0.0
C642 C 0.82486 0.93884 0.57209 0.0
C643 C 0.8268 0.91764 0.59633 0.0
H644 H 0.62621 0.2676 0.17628 0.0
H645 H 0.66387 0.34522 0.13402 0.0
H646 H 0.62552 0.34853 0.09621 0.0
H647 H 0.58272 0.32743 0.07278 0.0
H648 H 0.54809 0.24709 0.11213 0.0
H649 H 0.58405 0.24653 0.15304 0.0
C650 C 0.62631 0.2851 0.15862 0.0
C651 C 0.64814 0.306 0.15805 0.0
C652 C 0.60471 0.28631 0.13626 0.0
C653 C 0.64728 0.32898 0.13543 0.0
C654 C 0.62543 0.33077 0.11356 0.0
C655 C 0.58293 0.31003 0.09057 0.0
C656 C 0.56281 0.28736 0.08954 0.0
C657 C 0.6042 0.30935 0.1135 0.0
C658 C 0.56346 0.26471 0.11241 0.0
C659 C 0.584 0.26438 0.13579 0.0
H660 H 0.31854 0.16726 0.631 0.0
H661 H 0.2287 0.17099 0.63705 0.0
H662 H 0.22498 0.12669 0.6046 0.0
H663 H 0.24703 0.0867 0.57509 0.0
H664 H 0.33686 0.08188 0.56987 0.0
H665 H 0.34073 0.12648 0.60211 0.0
C666 C 0.29814 0.15826 0.62545 0.0
C667 C 0.27394 0.17258 0.63639 0.0
C668 C 0.29613 0.13248 0.60715 0.0
C669 C 0.24768 0.1608 0.62852 0.0
C670 C 0.24551 0.13529 0.61019 0.0
C671 C 0.26751 0.09529 0.58104 0.0
C672 C 0.29162 0.08092 0.57005 0.0
C673 C 0.26958 0.12094 0.59945 0.0
C674 C 0.31794 0.09245 0.57804 0.0
C675 C 0.32018 0.118 0.59641 0.0
H676 H 0.38173 0.78673 0.12977 0.0
H677 H 0.37335 0.69163 0.13456 0.0
H678 H 0.4082 0.68626 0.09304 0.0
H679 H 0.44138 0.70825 0.05594 0.0
H680 H 0.45079 0.80324 0.05114 0.0
H681 H 0.41545 0.8089 0.09242 0.0
C682 C 0.38767 0.76483 0.12187 0.0
C683 C 0.3748 0.73964 0.13522 0.0
C684 C 0.40797 0.76185 0.09808 0.0
C685 C 0.38253 0.71143 0.12439 0.0
C686 C 0.40263 0.70831 0.10079 0.0
C687 C 0.43577 0.73025 0.06386 0.0
C688 C 0.44878 0.75528 0.05043 0.0
C689 C 0.41548 0.73334 0.0875 0.0
C690 C 0.44114 0.78357 0.06105 0.0
C691 C 0.42092 0.78683 0.08466 0.0
H692 H 0.81828 0.15545 0.36224 0.0
H693 H 0.72849 0.15203 0.3544 0.0
H694 H 0.72718 0.10876 0.38884 0.0
H695 H 0.75093 0.07299 0.42231 0.0
H696 H 0.84048 0.07635 0.43247 0.0
H697 H 0.84242 0.11874 0.39611 0.0
C698 C 0.79844 0.14529 0.3682 0.0
C699 C 0.77354 0.15691 0.35553 0.0
C700 C 0.79775 0.12049 0.38846 0.0
C701 C 0.74802 0.14328 0.36327 0.0
C702 C 0.74721 0.11864 0.38317 0.0
C703 C 0.77097 0.08282 0.41656 0.0
C704 C 0.79552 0.07149 0.43017 0.0
C705 C 0.77188 0.10718 0.39598 0.0
C706 C 0.82124 0.08463 0.42235 0.0
C707 C 0.82235 0.10889 0.4016 0.0
H708 H 0.38987 0.33557 0.87123 0.0
H709 H 0.37659 0.24113 0.86713 0.0
H710 H 0.41068 0.23354 0.90908 0.0
H711 H 0.4445 0.25323 0.94617 0.0
H712 H 0.45866 0.34746 0.95161 0.0
H713 H 0.42387 0.35566 0.90995 0.0
C714 C 0.39435 0.31341 0.87975 0.0
C715 C 0.38093 0.28892 0.86588 0.0
C716 C 0.41413 0.30914 0.90398 0.0
C717 C 0.38699 0.26028 0.87702 0.0
C718 C 0.40639 0.25592 0.9011 0.0
C719 C 0.44009 0.27564 0.93833 0.0
C720 C 0.45428 0.29968 0.95196 0.0
C721 C 0.4202 0.28013 0.91455 0.0
C722 C 0.44809 0.32853 0.94149 0.0
C723 C 0.42819 0.33322 0.91768 0.0
H724 H 0.3269 0.86749 0.38439 0.0
H725 H 0.23725 0.85972 0.37898 0.0
H726 H 0.232 0.9012 0.41499 0.0
H727 H 0.25243 0.9393 0.44798 0.0
H728 H 0.34191 0.94827 0.4544 0.0
H729 H 0.34766 0.90678 0.41781 0.0
C730 C 0.30626 0.87504 0.39103 0.0
C731 C 0.28251 0.86036 0.37928 0.0
C732 C 0.30335 0.89905 0.41185 0.0
C733 C 0.25587 0.87026 0.38816 0.0
C734 C 0.25283 0.8941 0.4086 0.0
C735 C 0.27327 0.9323 0.44144 0.0
C736 C 0.2967 0.9469 0.45394 0.0
C737 C 0.27638 0.90855 0.42064 0.0
C738 C 0.3235 0.93741 0.44513 0.0
C739 C 0.32679 0.9137 0.42422 0.0
H740 H 0.63848 0.78116 0.84664 0.0
H741 H 0.67056 0.69865 0.88386 0.0
H742 H 0.62994 0.69376 0.91788 0.0
H743 H 0.58548 0.71268 0.93747 0.0
H744 H 0.55508 0.79717 0.90459 0.0
H745 H 0.59529 0.80183 0.869 0.0
C746 C 0.63692 0.76231 0.8625 0.0
C747 C 0.65763 0.74013 0.86215 0.0
C748 C 0.6138 0.75999 0.88287 0.0
C749 C 0.65477 0.71572 0.88275 0.0
C750 C 0.6316 0.71298 0.90253 0.0
C751 C 0.58759 0.73208 0.9224 0.0
C752 C 0.56722 0.7544 0.92333 0.0
C753 C 0.61096 0.73487 0.90266 0.0
C754 C 0.57049 0.77967 0.90419 0.0
C755 C 0.59344 0.7823 0.88385 0.0
loop_
_geom_bond_atom_site_label_1
_geom_bond_atom_site_label_2
_geom_bond_distance
_geom_bond_site_symmetry_2
_ccdc_geom_bond_type
C0 C1 1.384 . S
C0 H13 0.947 . S
C0 C35 1.382 . S
C1 C0 1.384 . S
C1 C2 1.378 . S
C2 C1 1.378 . S
C2 C3 1.378 . S
C2 H14 0.952 . S
C3 C2 1.378 . S
C3 H15 0.950 . S
C3 C34 1.383 . S
H4 C23 0.947 . S
H5 C24 0.946 . S
H6 C26 0.953 . S
H7 C27 0.945 . S
H8 C29 0.952 . S
H9 C30 0.949 . S
H10 C32 0.950 . S
H11 C33 0.948 . S
H12 C35 0.951 . S
H13 C0 0.947 . S
H14 C2 0.952 . S
H15 C3 0.950 . S
N16 C19 1.382 . S
N16 C21 1.363 . S
N17 C19 1.371 . S
N17 C20 1.372 . S
N18 C20 1.361 . S
N18 C21 1.377 . S
C19 N16 1.382 . S
C19 N17 1.371 . S
C19 C22 1.480 . S
C20 N17 1.372 . S
C20 N18 1.361 . S
C20 C28 1.457 . S
C21 N16 1.363 . S
C21 N18 1.377 . S
C21 C34 1.479 . S
C22 C19 1.480 . S
C22 C23 1.383 . S
C22 C27 1.385 . S
C23 H4 0.947 . S
C23 C22 1.383 . S
C23 C24 1.388 . S
C24 H5 0.946 . S
C24 C23 1.388 . S
C24 C25 1.384 . S
C25 C24 1.384 . S
C25 C26 1.377 . S
C26 H6 0.953 . S
C26 C25 1.377 . S
C26 C27 1.369 . S
C27 H7 0.945 . S
C27 C22 1.385 . S
C27 C26 1.369 . S
C28 C20 1.457 . S
C28 C29 1.372 . S
C28 C33 1.364 . S
C29 H8 0.952 . S
C29 C28 1.372 . S
C29 C30 1.389 . S
C30 H9 0.949 . S
C30 C29 1.389 . S
C30 C31 1.387 . S
C31 C30 1.387 . S
C31 C32 1.372 . S
C32 H10 0.950 . S
C32 C31 1.372 . S
C32 C33 1.379 . S
C33 H11 0.948 . S
C33 C28 1.364 . S
C33 C32 1.379 . S
C34 C3 1.383 . S
C34 C21 1.479 . S
C34 C35 1.398 . S
C35 C0 1.382 . S
C35 H12 0.951 . S
C35 C34 1.398 . S
C36 C37 1.384 . S
C36 H49 0.947 . S
C36 C71 1.382 . S
C37 C36 1.384 . S
C37 C38 1.378 . S
C38 C37 1.378 . S
C38 C39 1.378 . S
C38 H50 0.952 . S
C39 C38 1.378 . S
C39 H51 0.950 . S
C39 C70 1.383 . S
H40 C59 0.947 . S
H41 C60 0.946 . S
H42 C62 0.953 . S
H43 C63 0.945 . S
H44 C65 0.952 . S
H45 C66 0.949 . S
H46 C68 0.950 . S
H47 C69 0.948 . S
H48 C71 0.951 . S
H49 C36 0.947 . S
H50 C38 0.952 . S
H51 C39 0.950 . S
N52 C55 1.382 . S
N52 C57 1.363 . S
N53 C55 1.371 . S
N53 C56 1.372 . S
N54 C56 1.361 . S
N54 C57 1.377 . S
C55 N52 1.382 . S
C55 N53 1.371 . S
C55 C58 1.480 . S
C56 N53 1.372 . S
C56 N54 1.361 . S
C56 C64 1.457 . S
C57 N52 1.363 . S
C57 N54 1.377 . S
C57 C70 1.479 . S
C58 C55 1.480 . S
C58 C59 1.383 . S
C58 C63 1.385 . S
C59 H40 0.947 . S
C59 C58 1.383 . S
C59 C60 1.388 . S
C60 H41 0.946 . S
C60 C59 1.388 . S
C60 C61 1.384 . S
C61 C60 1.384 . S
C61 C62 1.377 . S
C62 H42 0.953 . S
C62 C61 1.377 . S
C62 C63 1.369 . S
C63 H43 0.945 . S
C63 C58 1.385 . S
C63 C62 1.369 . S
C64 C56 1.457 . S
C64 C65 1.372 . S
C64 C69 1.364 . S
C65 H44 0.952 . S
C65 C64 1.372 . S
C65 C66 1.389 . S
C66 H45 0.949 . S
C66 C65 1.389 . S
C66 C67 1.387 . S
C67 C66 1.387 . S
C67 C68 1.372 . S
C68 H46 0.950 . S
C68 C67 1.372 . S
C68 C69 1.379 . S
C69 H47 0.948 . S
C69 C64 1.364 . S
C69 C68 1.379 . S
C70 C39 1.383 . S
C70 C57 1.479 . S
C70 C71 1.398 . S
C71 C36 1.382 . S
C71 H48 0.951 . S
C71 C70 1.398 . S
C72 C73 1.384 . S
C72 H85 0.947 . S
C72 C107 1.382 . S
C73 C72 1.384 . S
C73 C74 1.378 . S
C74 C73 1.378 . S
C74 C75 1.378 . S
C74 H86 0.952 . S
C75 C74 1.378 . S
C75 H87 0.950 . S
C75 C106 1.383 . S
H76 C95 0.947 . S
H77 C96 0.946 . S
H78 C98 0.953 . S
H79 C99 0.945 . S
H80 C101 0.952 . S
H81 C102 0.949 . S
H82 C104 0.950 . S
H83 C105 0.948 . S
H84 C107 0.951 . S
H85 C72 0.947 . S
H86 C74 0.952 . S
H87 C75 0.950 . S
N88 C91 1.382 . S
N88 C93 1.363 . S
N89 C91 1.371 . S
N89 C92 1.372 . S
N90 C92 1.361 . S
N90 C93 1.377 . S
C91 N88 1.382 . S
C91 N89 1.371 . S
C91 C94 1.480 . S
C92 N89 1.372 . S
C92 N90 1.361 . S
C92 C100 1.457 . S
C93 N88 1.363 . S
C93 N90 1.377 . S
C93 C106 1.479 . S
C94 C91 1.480 . S
C94 C95 1.383 . S
C94 C99 1.385 . S
C95 H76 0.947 . S
C95 C94 1.383 . S
C95 C96 1.388 . S
C96 H77 0.946 . S
C96 C95 1.388 . S
C96 C97 1.384 . S
C97 C96 1.384 . S
C97 C98 1.377 . S
C98 H78 0.953 . S
C98 C97 1.377 . S
C98 C99 1.369 . S
C99 H79 0.945 . S
C99 C94 1.385 . S
C99 C98 1.369 . S
C100 C92 1.457 . S
C100 C101 1.372 . S
C100 C105 1.364 . S
C101 H80 0.952 . S
C101 C100 1.372 . S
C101 C102 1.389 . S
C102 H81 0.949 . S
C102 C101 1.389 . S
C102 C103 1.387 . S
C103 C102 1.387 . S
C103 C104 1.372 . S
C104 H82 0.950 . S
C104 C103 1.372 . S
C104 C105 1.379 . S
C105 H83 0.948 . S
C105 C100 1.364 . S
C105 C104 1.379 . S
C106 C75 1.383 . S
C106 C93 1.479 . S
C106 C107 1.398 . S
C107 C72 1.382 . S
C107 H84 0.951 . S
C107 C106 1.398 . S
C108 C109 1.384 . S
C108 H121 0.947 . S
C108 C143 1.382 . S
C109 C108 1.384 . S
C109 C110 1.378 . S
C110 C109 1.378 . S
C110 C111 1.378 . S
C110 H122 0.952 . S
C111 C110 1.378 . S
C111 H123 0.950 . S
C111 C142 1.383 . S
H112 C131 0.947 . S
H113 C132 0.946 . S
H114 C134 0.953 . S
H115 C135 0.945 . S
H116 C137 0.952 . S
H117 C138 0.949 . S
H118 C140 0.950 . S
H119 C141 0.948 . S
H120 C143 0.951 . S
H121 C108 0.947 . S
H122 C110 0.952 . S
H123 C111 0.950 . S
N124 C127 1.382 . S
N124 C129 1.363 . S
N125 C127 1.371 . S
N125 C128 1.372 . S
N126 C128 1.361 . S
N126 C129 1.377 . S
C127 N124 1.382 . S
C127 N125 1.371 . S
C127 C130 1.480 . S
C128 N125 1.372 . S
C128 N126 1.361 . S
C128 C136 1.457 . S
C129 N124 1.363 . S
C129 N126 1.377 . S
C129 C142 1.479 . S
C130 C127 1.480 . S
C130 C131 1.383 . S
C130 C135 1.385 . S
C131 H112 0.947 . S
C131 C130 1.383 . S
C131 C132 1.388 . S
C132 H113 0.946 . S
C132 C131 1.388 . S
C132 C133 1.384 . S
C133 C132 1.384 . S
C133 C134 1.377 . S
C134 H114 0.953 . S
C134 C133 1.377 . S
C134 C135 1.369 . S
C135 H115 0.945 . S
C135 C130 1.385 . S
C135 C134 1.369 . S
C136 C128 1.457 . S
C136 C137 1.372 . S
C136 C141 1.364 . S
C137 H116 0.952 . S
C137 C136 1.372 . S
C137 C138 1.389 . S
C138 H117 0.949 . S
C138 C137 1.389 . S
C138 C139 1.387 . S
C139 C138 1.387 . S
C139 C140 1.372 . S
C140 H118 0.950 . S
C140 C139 1.372 . S
C140 C141 1.379 . S
C141 H119 0.948 . S
C141 C136 1.364 . S
C141 C140 1.379 . S
C142 C111 1.383 . S
C142 C129 1.479 . S
C142 C143 1.398 . S
C143 C108 1.382 . S
C143 H120 0.951 . S
C143 C142 1.398 . S
C144 C145 1.384 . S
C144 H157 0.947 . S
C144 C179 1.382 . S
C145 C144 1.384 . S
C145 C146 1.378 . S
C146 C145 1.378 . S
C146 C147 1.378 . S
C146 H158 0.952 . S
C147 C146 1.378 . S
C147 H159 0.950 . S
C147 C178 1.383 . S
H148 C167 0.947 . S
H149 C168 0.946 . S
H150 C170 0.953 . S
H151 C171 0.945 . S
H152 C173 0.952 . S
H153 C174 0.949 . S
H154 C176 0.950 . S
H155 C177 0.948 . S
H156 C179 0.951 . S
H157 C144 0.947 . S
H158 C146 0.952 . S
H159 C147 0.950 . S
N160 C163 1.382 . S
N160 C165 1.363 . S
N161 C163 1.371 . S
N161 C164 1.372 . S
N162 C164 1.361 . S
N162 C165 1.377 . S
C163 N160 1.382 . S
C163 N161 1.371 . S
C163 C166 1.480 . S
C164 N161 1.372 . S
C164 N162 1.361 . S
C164 C172 1.457 . S
C165 N160 1.363 . S
C165 N162 1.377 . S
C165 C178 1.479 . S
C166 C163 1.480 . S
C166 C167 1.383 . S
C166 C171 1.385 . S
C167 H148 0.947 . S
C167 C166 1.383 . S
C167 C168 1.388 . S
C168 H149 0.946 . S
C168 C167 1.388 . S
C168 C169 1.384 . S
C169 C168 1.384 . S
C169 C170 1.377 . S
C170 H150 0.953 . S
C170 C169 1.377 . S
C170 C171 1.369 . S
C171 H151 0.945 . S
C171 C166 1.385 . S
C171 C170 1.369 . S
C172 C164 1.457 . S
C172 C173 1.372 . S
C172 C177 1.364 . S
C173 H152 0.952 . S
C173 C172 1.372 . S
C173 C174 1.389 . S
C174 H153 0.949 . S
C174 C173 1.389 . S
C174 C175 1.387 . S
C175 C174 1.387 . S
C175 C176 1.372 . S
C176 H154 0.950 . S
C176 C175 1.372 . S
C176 C177 1.379 . S
C177 H155 0.948 . S
C177 C172 1.364 . S
C177 C176 1.379 . S
C178 C147 1.383 . S
C178 C165 1.479 . S
C178 C179 1.398 . S
C179 C144 1.382 . S
C179 H156 0.951 . S
C179 C178 1.398 . S
C180 C181 1.384 . S
C180 H193 0.947 . S
C180 C215 1.382 . S
C181 C180 1.384 . S
C181 C182 1.378 . S
C182 C181 1.378 . S
C182 C183 1.378 . S
C182 H194 0.952 . S
C183 C182 1.378 . S
C183 H195 0.950 . S
C183 C214 1.383 . S
H184 C203 0.947 . S
H185 C204 0.946 . S
H186 C206 0.953 . S
H187 C207 0.945 . S
H188 C209 0.952 . S
H189 C210 0.949 . S
H190 C212 0.950 . S
H191 C213 0.948 . S
H192 C215 0.951 . S
H193 C180 0.947 . S
H194 C182 0.952 . S
H195 C183 0.950 . S
N196 C199 1.382 . S
N196 C201 1.363 . S
N197 C199 1.371 . S
N197 C200 1.372 . S
N198 C200 1.361 . S
N198 C201 1.377 . S
C199 N196 1.382 . S
C199 N197 1.371 . S
C199 C202 1.480 . S
C200 N197 1.372 . S
C200 N198 1.361 . S
C200 C208 1.457 . S
C201 N196 1.363 . S
C201 N198 1.377 . S
C201 C214 1.479 . S
C202 C199 1.480 . S
C202 C203 1.383 . S
C202 C207 1.385 . S
C203 H184 0.947 . S
C203 C202 1.383 . S
C203 C204 1.388 . S
C204 H185 0.946 . S
C204 C203 1.388 . S
C204 C205 1.384 . S
C205 C204 1.384 . S
C205 C206 1.377 . S
C206 H186 0.953 . S
C206 C205 1.377 . S
C206 C207 1.369 . S
C207 H187 0.945 . S
C207 C202 1.385 . S
C207 C206 1.369 . S
C208 C200 1.457 . S
C208 C209 1.372 . S
C208 C213 1.364 . S
C209 H188 0.952 . S
C209 C208 1.372 . S
C209 C210 1.389 . S
C210 H189 0.949 . S
C210 C209 1.389 . S
C210 C211 1.387 . S
C211 C210 1.387 . S
C211 C212 1.372 . S
C212 H190 0.950 . S
C212 C211 1.372 . S
C212 C213 1.379 . S
C213 H191 0.948 . S
C213 C208 1.364 . S
C213 C212 1.379 . S
C214 C183 1.383 . S
C214 C201 1.479 . S
C214 C215 1.398 . S
C215 C180 1.382 . S
C215 H192 0.951 . S
C215 C214 1.398 . S
C216 C217 1.384 . S
C216 H229 0.947 . S
C216 C251 1.382 . S
C217 C216 1.384 . S
C217 C218 1.378 . S
C218 C217 1.378 . S
C218 C219 1.378 . S
C218 H230 0.952 . S
C219 C218 1.378 . S
C219 H231 0.950 . S
C219 C250 1.383 . S
H220 C239 0.947 . S
H221 C240 0.946 . S
H222 C242 0.953 . S
H223 C243 0.945 . S
H224 C245 0.952 . S
H225 C246 0.949 . S
H226 C248 0.950 . S
H227 C249 0.948 . S
H228 C251 0.951 . S
H229 C216 0.947 . S
H230 C218 0.952 . S
H231 C219 0.950 . S
N232 C235 1.382 . S
N232 C237 1.363 . S
N233 C235 1.371 . S
N233 C236 1.372 . S
N234 C236 1.361 . S
N234 C237 1.377 . S
C235 N232 1.382 . S
C235 N233 1.371 . S
C235 C238 1.480 . S
C236 N233 1.372 . S
C236 N234 1.361 . S
C236 C244 1.457 . S
C237 N232 1.363 . S
C237 N234 1.377 . S
C237 C250 1.479 . S
C238 C235 1.480 . S
C238 C239 1.383 . S
C238 C243 1.385 . S
C239 H220 0.947 . S
C239 C238 1.383 . S
C239 C240 1.388 . S
C240 H221 0.946 . S
C240 C239 1.388 . S
C240 C241 1.384 . S
C241 C240 1.384 . S
C241 C242 1.377 . S
C242 H222 0.953 . S
C242 C241 1.377 . S
C242 C243 1.369 . S
C243 H223 0.945 . S
C243 C238 1.385 . S
C243 C242 1.369 . S
C244 C236 1.457 . S
C244 C245 1.372 . S
C244 C249 1.364 . S
C245 H224 0.952 . S
C245 C244 1.372 . S
C245 C246 1.389 . S
C246 H225 0.949 . S
C246 C245 1.389 . S
C246 C247 1.387 . S
C247 C246 1.387 . S
C247 C248 1.372 . S
C248 H226 0.950 . S
C248 C247 1.372 . S
C248 C249 1.379 . S
C249 H227 0.948 . S
C249 C244 1.364 . S
C249 C248 1.379 . S
C250 C219 1.383 . S
C250 C237 1.479 . S
C250 C251 1.398 . S
C251 C216 1.382 . S
C251 H228 0.951 . S
C251 C250 1.398 . S
C252 C253 1.384 . S
C252 H265 0.947 . S
C252 C287 1.382 . S
C253 C252 1.384 . S
C253 C254 1.378 . S
C254 C253 1.378 . S
C254 C255 1.378 . S
C254 H266 0.952 . S
C255 C254 1.378 . S
C255 H267 0.950 . S
C255 C286 1.383 . S
H256 C275 0.947 . S
H257 C276 0.946 . S
H258 C278 0.953 . S
H259 C279 0.945 . S
H260 C281 0.952 . S
H261 C282 0.949 . S
H262 C284 0.950 . S
H263 C285 0.948 . S
H264 C287 0.951 . S
H265 C252 0.947 . S
H266 C254 0.952 . S
H267 C255 0.950 . S
N268 C271 1.382 . S
N268 C273 1.363 . S
N269 C271 1.371 . S
N269 C272 1.372 . S
N270 C272 1.361 . S
N270 C273 1.377 . S
C271 N268 1.382 . S
C271 N269 1.371 . S
C271 C274 1.480 . S
C272 N269 1.372 . S
C272 N270 1.361 . S
C272 C280 1.457 . S
C273 N268 1.363 . S
C273 N270 1.377 . S
C273 C286 1.479 . S
C274 C271 1.480 . S
C274 C275 1.383 . S
C274 C279 1.385 . S
C275 H256 0.947 . S
C275 C274 1.383 . S
C275 C276 1.388 . S
C276 H257 0.946 . S
C276 C275 1.388 . S
C276 C277 1.384 . S
C277 C276 1.384 . S
C277 C278 1.377 . S
C278 H258 0.953 . S
C278 C277 1.377 . S
C278 C279 1.369 . S
C279 H259 0.945 . S
C279 C274 1.385 . S
C279 C278 1.369 . S
C280 C272 1.457 . S
C280 C281 1.372 . S
C280 C285 1.364 . S
C281 H260 0.952 . S
C281 C280 1.372 . S
C281 C282 1.389 . S
C282 H261 0.949 . S
C282 C281 1.389 . S
C282 C283 1.387 . S
C283 C282 1.387 . S
C283 C284 1.372 . S
C284 H262 0.950 . S
C284 C283 1.372 . S
C284 C285 1.379 . S
C285 H263 0.948 . S
C285 C280 1.364 . S
C285 C284 1.379 . S
C286 C255 1.383 . S
C286 C273 1.479 . S
C286 C287 1.398 . S
C287 C252 1.382 . S
C287 H264 0.951 . S
C287 C286 1.398 . S
C288 O290 1.247 . S
C288 O292 1.258 . S
C289 O296 1.247 . S
C289 O297 1.258 . S
O290 C288 1.247 . S
O290 Zn291 2.028 1_655 S
Zn291 O290 2.028 1_455 S
Zn291 O295 2.035 . S
Zn291 O297 2.035 . S
Zn291 O298 2.028 1_455 S
O292 C288 1.258 . S
O292 Zn293 2.035 1_655 S
Zn293 O292 2.035 1_455 S
Zn293 O294 2.028 . S
Zn293 O296 2.028 . S
Zn293 O299 2.035 1_455 S
O294 Zn293 2.028 . S
O294 C300 1.247 . S
O295 Zn291 2.035 . S
O295 C300 1.258 . S
O296 C289 1.247 . S
O296 Zn293 2.028 . S
O297 C289 1.258 . S
O297 Zn291 2.035 . S
O298 Zn291 2.028 1_655 S
O298 C301 1.247 . S
O299 Zn293 2.035 1_655 S
O299 C301 1.258 . S
C300 O294 1.247 . S
C300 O295 1.258 . S
C301 O298 1.247 . S
C301 O299 1.258 . S
C302 O304 1.247 . S
C302 O306 1.258 . S
C303 O310 1.247 . S
C303 O311 1.258 . S
O304 C302 1.247 . S
O304 Zn305 2.028 1_655 S
Zn305 O304 2.028 1_455 S
Zn305 O309 2.035 . S
Zn305 O311 2.035 . S
Zn305 O312 2.028 1_455 S
O306 C302 1.258 . S
O306 Zn307 2.035 1_655 S
Zn307 O306 2.035 1_455 S
Zn307 O308 2.028 . S
Zn307 O310 2.028 . S
Zn307 O313 2.035 1_455 S
O308 Zn307 2.028 . S
O308 C314 1.247 . S
O309 Zn305 2.035 . S
O309 C314 1.258 . S
O310 C303 1.247 . S
O310 Zn307 2.028 . S
O311 C303 1.258 . S
O311 Zn305 2.035 . S
O312 Zn305 2.028 1_655 S
O312 C315 1.247 . S
O313 Zn307 2.035 1_655 S
O313 C315 1.258 . S
C314 O308 1.247 . S
C314 O309 1.258 . S
C315 O312 1.247 . S
C315 O313 1.258 . S
C316 O318 1.247 . S
C316 O320 1.258 . S
C317 O324 1.247 . S
C317 O325 1.258 . S
O318 C316 1.247 . S
O318 Zn319 2.028 1_565 S
Zn319 O318 2.028 1_545 S
Zn319 O323 2.035 . S
Zn319 O325 2.035 . S
Zn319 O326 2.028 1_545 S
O320 C316 1.258 . S
O320 Zn321 2.035 1_565 S
Zn321 O320 2.035 1_545 S
Zn321 O322 2.028 . S
Zn321 O324 2.028 . S
Zn321 O327 2.035 1_545 S
O322 Zn321 2.028 . S
O322 C328 1.247 . S
O323 Zn319 2.035 . S
O323 C328 1.258 . S
O324 C317 1.247 . S
O324 Zn321 2.028 . S
O325 C317 1.258 . S
O325 Zn319 2.035 . S
O326 Zn319 2.028 1_565 S
O326 C329 1.247 . S
O327 Zn321 2.035 1_565 S
O327 C329 1.258 . S
C328 O322 1.247 . S
C328 O323 1.258 . S
C329 O326 1.247 . S
C329 O327 1.258 . S
C330 O332 1.247 . S
C330 O334 1.258 . S
C331 O338 1.247 . S
C331 O339 1.258 . S
O332 C330 1.247 . S
O332 Zn333 2.028 . S
Zn333 O332 2.028 . S
Zn333 O337 2.035 . S
Zn333 O339 2.035 1_554 S
Zn333 O340 2.028 1_554 S
O334 C330 1.258 . S
O334 Zn335 2.035 . S
Zn335 O334 2.035 . S
Zn335 O336 2.028 . S
Zn335 O338 2.028 1_554 S
Zn335 O341 2.035 1_554 S
O336 Zn335 2.028 . S
O336 C342 1.247 . S
O337 Zn333 2.035 . S
O337 C342 1.258 . S
O338 C331 1.247 . S
O338 Zn335 2.028 1_556 S
O339 C331 1.258 . S
O339 Zn333 2.035 1_556 S
O340 Zn333 2.028 1_556 S
O340 C343 1.247 . S
O341 Zn335 2.035 1_556 S
O341 C343 1.258 . S
C342 O336 1.247 . S
C342 O337 1.258 . S
C343 O340 1.247 . S
C343 O341 1.258 . S
C344 O346 1.247 . S
C344 O348 1.258 . S
C345 O352 1.247 . S
C345 O353 1.258 . S
O346 C344 1.247 . S
O346 Zn347 2.002 1_565 S
Zn347 O346 2.002 1_545 S
Zn347 O351 2.062 . S
Zn347 O353 2.062 . S
Zn347 O354 2.002 1_545 S
O348 C344 1.258 . S
O348 Zn349 2.035 1_565 S
Zn349 O348 2.035 1_545 S
Zn349 O350 2.028 . S
Zn349 O352 2.028 . S
Zn349 O355 2.035 1_545 S
O350 Zn349 2.028 . S
O350 C356 1.247 . S
O351 Zn347 2.062 . S
O351 C356 1.258 . S
O352 C345 1.247 . S
O352 Zn349 2.028 . S
O353 C345 1.258 . S
O353 Zn347 2.062 . S
O354 Zn347 2.002 1_565 S
O354 C357 1.247 . S
O355 Zn349 2.035 1_565 S
O355 C357 1.258 . S
C356 O350 1.247 . S
C356 O351 1.258 . S
C357 O354 1.247 . S
C357 O355 1.258 . S
C358 O360 1.247 . S
C358 O362 1.258 . S
C359 O366 1.247 . S
C359 O367 1.258 . S
O360 C358 1.247 . S
O360 Zn361 2.035 . S
Zn361 O360 2.035 . S
Zn361 O365 2.042 . S
Zn361 O367 2.028 1_554 S
Zn361 O368 2.021 1_554 S
O362 C358 1.258 . S
O362 Zn363 2.034 1_554 S
Zn363 O362 2.034 1_556 S
Zn363 O364 2.027 1_556 S
Zn363 O366 2.029 . S
Zn363 O369 2.036 . S
O364 Zn363 2.027 1_554 S
O364 C370 1.247 . S
O365 Zn361 2.042 . S
O365 C370 1.258 . S
O366 C359 1.247 . S
O366 Zn363 2.029 . S
O367 C359 1.258 . S
O367 Zn361 2.028 1_556 S
O368 Zn361 2.021 1_556 S
O368 C371 1.247 . S
O369 Zn363 2.036 . S
O369 C371 1.258 . S
C370 O364 1.247 . S
C370 O365 1.258 . S
C371 O368 1.247 . S
C371 O369 1.258 . S
H372 C378 0.930 . S
H373 C381 0.930 . S
H374 C382 0.930 . S
H375 C383 0.930 . S
H376 C386 0.930 . S
H377 C387 0.930 . S
C378 H372 0.930 . S
C378 C379 1.355 . S
C378 C380 1.415 . S
C379 C378 1.355 . S
C379 C381 1.419 . S
C380 C378 1.415 . S
C380 C385 1.425 . S
C380 C387 1.409 . S
C381 H373 0.930 . S
C381 C379 1.419 . S
C381 C382 1.362 . S
C382 H374 0.930 . S
C382 C381 1.362 . S
C382 C385 1.409 . S
C383 H375 0.930 . S
C383 C384 1.355 . S
C383 C385 1.415 . S
C384 C383 1.355 . S
C384 C386 1.419 . S
C385 C380 1.425 . S
C385 C382 1.409 . S
C385 C383 1.415 . S
C386 H376 0.930 . S
C386 C384 1.419 . S
C386 C387 1.362 . S
C387 H377 0.930 . S
C387 C380 1.409 . S
C387 C386 1.362 . S
H388 C394 0.930 . S
H389 C397 0.930 . S
H390 C398 0.930 . S
H391 C399 0.930 . S
H392 C402 0.930 . S
H393 C403 0.930 . S
C394 H388 0.930 . S
C394 C395 1.355 . S
C394 C396 1.415 . S
C395 C394 1.355 . S
C395 C397 1.419 . S
C396 C394 1.415 . S
C396 C401 1.425 . S
C396 C403 1.409 . S
C397 H389 0.930 . S
C397 C395 1.419 . S
C397 C398 1.362 . S
C398 H390 0.930 . S
C398 C397 1.362 . S
C398 C401 1.409 . S
C399 H391 0.930 . S
C399 C400 1.355 . S
C399 C401 1.415 . S
C400 C399 1.355 . S
C400 C402 1.419 . S
C401 C396 1.425 . S
C401 C398 1.409 . S
C401 C399 1.415 . S
C402 H392 0.930 . S
C402 C400 1.419 . S
C402 C403 1.362 . S
C403 H393 0.930 . S
C403 C396 1.409 . S
C403 C402 1.362 . S
H404 C410 0.930 . S
H405 C413 0.930 . S
H406 C414 0.930 . S
H407 C415 0.930 . S
H408 C418 0.930 . S
H409 C419 0.930 . S
C410 H404 0.930 . S
C410 C411 1.355 . S
C410 C412 1.415 . S
C411 C410 1.355 . S
C411 C413 1.419 . S
C412 C410 1.415 . S
C412 C417 1.425 . S
C412 C419 1.409 . S
C413 H405 0.930 . S
C413 C411 1.419 . S
C413 C414 1.362 . S
C414 H406 0.930 . S
C414 C413 1.362 . S
C414 C417 1.409 . S
C415 H407 0.930 . S
C415 C416 1.355 . S
C415 C417 1.415 . S
C416 C415 1.355 . S
C416 C418 1.419 . S
C417 C412 1.425 . S
C417 C414 1.409 . S
C417 C415 1.415 . S
C418 H408 0.930 . S
C418 C416 1.419 . S
C418 C419 1.362 . S
C419 H409 0.930 . S
C419 C412 1.409 . S
C419 C418 1.362 . S
H420 C426 0.930 . S
H421 C429 0.930 . S
H422 C430 0.930 . S
H423 C431 0.930 . S
H424 C434 0.930 . S
H425 C435 0.930 . S
C426 H420 0.930 . S
C426 C427 1.355 . S
C426 C428 1.415 . S
C427 C426 1.355 . S
C427 C429 1.419 . S
C428 C426 1.415 . S
C428 C433 1.425 . S
C428 C435 1.409 . S
C429 H421 0.930 . S
C429 C427 1.419 . S
C429 C430 1.362 . S
C430 H422 0.930 . S
C430 C429 1.362 . S
C430 C433 1.409 . S
C431 H423 0.930 . S
C431 C432 1.355 . S
C431 C433 1.415 . S
C432 C431 1.355 . S
C432 C434 1.419 . S
C433 C428 1.425 . S
C433 C430 1.409 . S
C433 C431 1.415 . S
C434 H424 0.930 . S
C434 C432 1.419 . S
C434 C435 1.362 . S
C435 H425 0.930 . S
C435 C428 1.409 . S
C435 C434 1.362 . S
H436 C442 0.930 . S
H437 C445 0.930 . S
H438 C446 0.930 . S
H439 C447 0.930 . S
H440 C450 0.930 . S
H441 C451 0.930 . S
C442 H436 0.930 . S
C442 C443 1.355 . S
C442 C444 1.415 . S
C443 C442 1.355 . S
C443 C445 1.419 . S
C444 C442 1.415 . S
C444 C449 1.425 . S
C444 C451 1.409 . S
C445 H437 0.930 . S
C445 C443 1.419 . S
C445 C446 1.362 . S
C446 H438 0.930 . S
C446 C445 1.362 . S
C446 C449 1.409 . S
C447 H439 0.930 . S
C447 C448 1.355 . S
C447 C449 1.415 . S
C448 C447 1.355 . S
C448 C450 1.419 . S
C449 C444 1.425 . S
C449 C446 1.409 . S
C449 C447 1.415 . S
C450 H440 0.930 . S
C450 C448 1.419 . S
C450 C451 1.362 . S
C451 H441 0.930 . S
C451 C444 1.409 . S
C451 C450 1.362 . S
H452 C458 0.930 . S
H453 C461 0.930 . S
H454 C462 0.930 . S
H455 C463 0.930 . S
H456 C466 0.930 . S
H457 C467 0.930 . S
C458 H452 0.930 . S
C458 C459 1.355 . S
C458 C460 1.415 . S
C459 C458 1.355 . S
C459 C461 1.419 . S
C460 C458 1.415 . S
C460 C465 1.425 . S
C460 C467 1.409 . S
C461 H453 0.930 . S
C461 C459 1.419 . S
C461 C462 1.362 . S
C462 H454 0.930 . S
C462 C461 1.362 . S
C462 C465 1.409 . S
C463 H455 0.930 . S
C463 C464 1.355 . S
C463 C465 1.415 . S
C464 C463 1.355 . S
C464 C466 1.419 . S
C465 C460 1.425 . S
C465 C462 1.409 . S
C465 C463 1.415 . S
C466 H456 0.930 . S
C466 C464 1.419 . S
C466 C467 1.362 . S
C467 H457 0.930 . S
C467 C460 1.409 . S
C467 C466 1.362 . S
H468 C474 0.930 . S
H469 C477 0.930 . S
H470 C478 0.930 . S
H471 C479 0.930 . S
H472 C482 0.930 . S
H473 C483 0.930 . S
C474 H468 0.930 . S
C474 C475 1.355 . S
C474 C476 1.415 . S
C475 C474 1.355 . S
C475 C477 1.419 . S
C476 C474 1.415 . S
C476 C481 1.425 . S
C476 C483 1.409 . S
C477 H469 0.930 . S
C477 C475 1.419 . S
C477 C478 1.362 . S
C478 H470 0.930 . S
C478 C477 1.362 . S
C478 C481 1.409 . S
C479 H471 0.930 . S
C479 C480 1.355 . S
C479 C481 1.415 . S
C480 C479 1.355 . S
C480 C482 1.419 . S
C481 C476 1.425 . S
C481 C478 1.409 . S
C481 C479 1.415 . S
C482 H472 0.930 . S
C482 C480 1.419 . S
C482 C483 1.362 . S
C483 H473 0.930 . S
C483 C476 1.409 . S
C483 C482 1.362 . S
H484 C490 0.930 . S
H485 C493 0.930 . S
H486 C494 0.930 . S
H487 C495 0.930 . S
H488 C498 0.930 . S
H489 C499 0.930 . S
C490 H484 0.930 . S
C490 C491 1.355 . S
C490 C492 1.415 . S
C491 C490 1.355 . S
C491 C493 1.419 . S
C492 C490 1.415 . S
C492 C497 1.425 . S
C492 C499 1.409 . S
C493 H485 0.930 . S
C493 C491 1.419 . S
C493 C494 1.362 . S
C494 H486 0.930 . S
C494 C493 1.362 . S
C494 C497 1.409 . S
C495 H487 0.930 . S
C495 C496 1.355 . S
C495 C497 1.415 . S
C496 C495 1.355 . S
C496 C498 1.419 . S
C497 C492 1.425 . S
C497 C494 1.409 . S
C497 C495 1.415 . S
C498 H488 0.930 . S
C498 C496 1.419 . S
C498 C499 1.362 . S
C499 H489 0.930 . S
C499 C492 1.409 . S
C499 C498 1.362 . S
H500 C506 0.930 . S
H501 C509 0.930 . S
H502 C510 0.930 . S
H503 C511 0.930 . S
H504 C514 0.930 . S
H505 C515 0.930 . S
C506 H500 0.930 . S
C506 C507 1.355 . S
C506 C508 1.415 . S
C507 C506 1.355 . S
C507 C509 1.419 . S
C508 C506 1.415 . S
C508 C513 1.425 . S
C508 C515 1.409 . S
C509 H501 0.930 . S
C509 C507 1.419 . S
C509 C510 1.362 . S
C510 H502 0.930 . S
C510 C509 1.362 . S
C510 C513 1.409 . S
C511 H503 0.930 . S
C511 C512 1.355 . S
C511 C513 1.415 . S
C512 C511 1.355 . S
C512 C514 1.419 . S
C513 C508 1.425 . S
C513 C510 1.409 . S
C513 C511 1.415 . S
C514 H504 0.930 . S
C514 C512 1.419 . S
C514 C515 1.362 . S
C515 H505 0.930 . S
C515 C508 1.409 . S
C515 C514 1.362 . S
H516 C522 0.930 . S
H517 C525 0.930 . S
H518 C526 0.930 . S
H519 C527 0.930 . S
H520 C530 0.930 . S
H521 C531 0.930 . S
C522 H516 0.930 . S
C522 C523 1.355 . S
C522 C524 1.415 . S
C523 C522 1.355 . S
C523 C525 1.419 . S
C524 C522 1.415 . S
C524 C529 1.425 . S
C524 C531 1.409 . S
C525 H517 0.930 . S
C525 C523 1.419 . S
C525 C526 1.362 . S
C526 H518 0.930 . S
C526 C525 1.362 . S
C526 C529 1.409 . S
C527 H519 0.930 . S
C527 C528 1.355 . S
C527 C529 1.415 . S
C528 C527 1.355 . S
C528 C530 1.419 . S
C529 C524 1.425 . S
C529 C526 1.409 . S
C529 C527 1.415 . S
C530 H520 0.930 . S
C530 C528 1.419 . S
C530 C531 1.362 . S
C531 H521 0.930 . S
C531 C524 1.409 . S
C531 C530 1.362 . S
H532 C538 0.930 . S
H533 C541 0.930 . S
H534 C542 0.930 . S
H535 C543 0.930 . S
H536 C546 0.930 . S
H537 C547 0.930 . S
C538 H532 0.930 . S
C538 C539 1.355 . S
C538 C540 1.415 . S
C539 C538 1.355 . S
C539 C541 1.419 . S
C540 C538 1.415 . S
C540 C545 1.425 . S
C540 C547 1.409 . S
C541 H533 0.930 . S
C541 C539 1.419 . S
C541 C542 1.362 . S
C542 H534 0.930 . S
C542 C541 1.362 . S
C542 C545 1.409 . S
C543 H535 0.930 . S
C543 C544 1.355 . S
C543 C545 1.415 . S
C544 C543 1.355 . S
C544 C546 1.419 . S
C545 C540 1.425 . S
C545 C542 1.409 . S
C545 C543 1.415 . S
C546 H536 0.930 . S
C546 C544 1.419 . S
C546 C547 1.362 . S
C547 H537 0.930 . S
C547 C540 1.409 . S
C547 C546 1.362 . S
H548 C554 0.930 . S
H549 C557 0.930 . S
H550 C558 0.930 . S
H551 C559 0.930 . S
H552 C562 0.930 . S
H553 C563 0.930 . S
C554 H548 0.930 . S
C554 C555 1.355 . S
C554 C556 1.415 . S
C555 C554 1.355 . S
C555 C557 1.419 . S
C556 C554 1.415 . S
C556 C561 1.425 . S
C556 C563 1.409 . S
C557 H549 0.930 . S
C557 C555 1.419 . S
C557 C558 1.362 . S
C558 H550 0.930 . S
C558 C557 1.362 . S
C558 C561 1.409 . S
C559 H551 0.930 . S
C559 C560 1.355 . S
C559 C561 1.415 . S
C560 C559 1.355 . S
C560 C562 1.419 . S
C561 C556 1.425 . S
C561 C558 1.409 . S
C561 C559 1.415 . S
C562 H552 0.930 . S
C562 C560 1.419 . S
C562 C563 1.362 . S
C563 H553 0.930 . S
C563 C556 1.409 . S
C563 C562 1.362 . S
H564 C570 0.930 . S
H565 C573 0.930 . S
H566 C574 0.930 . S
H567 C575 0.930 . S
H568 C578 0.930 . S
H569 C579 0.930 . S
C570 H564 0.930 . S
C570 C571 1.355 . S
C570 C572 1.415 . S
C571 C570 1.355 . S
C571 C573 1.419 . S
C572 C570 1.415 . S
C572 C577 1.425 . S
C572 C579 1.409 . S
C573 H565 0.930 . S
C573 C571 1.419 . S
C573 C574 1.362 . S
C574 H566 0.930 . S
C574 C573 1.362 . S
C574 C577 1.409 . S
C575 H567 0.930 . S
C575 C576 1.355 . S
C575 C577 1.415 . S
C576 C575 1.355 . S
C576 C578 1.419 . S
C577 C572 1.425 . S
C577 C574 1.409 . S
C577 C575 1.415 . S
C578 H568 0.930 . S
C578 C576 1.419 . S
C578 C579 1.362 . S
C579 H569 0.930 . S
C579 C572 1.409 . S
C579 C578 1.362 . S
H580 C586 0.930 . S
H581 C589 0.930 . S
H582 C590 0.930 . S
H583 C591 0.930 . S
H584 C594 0.930 . S
H585 C595 0.930 . S
C586 H580 0.930 . S
C586 C587 1.355 . S
C586 C588 1.415 . S
C587 C586 1.355 . S
C587 C589 1.419 . S
C588 C586 1.415 . S
C588 C593 1.425 . S
C588 C595 1.409 . S
C589 H581 0.930 . S
C589 C587 1.419 . S
C589 C590 1.362 . S
C590 H582 0.930 . S
C590 C589 1.362 . S
C590 C593 1.409 . S
C591 H583 0.930 . S
C591 C592 1.355 . S
C591 C593 1.415 . S
C592 C591 1.355 . S
C592 C594 1.419 . S
C593 C588 1.425 . S
C593 C590 1.409 . S
C593 C591 1.415 . S
C594 H584 0.930 . S
C594 C592 1.419 . S
C594 C595 1.362 . S
C595 H585 0.930 . S
C595 C588 1.409 . S
C595 C594 1.362 . S
H596 C602 0.930 . S
H597 C605 0.930 . S
H598 C606 0.930 . S
H599 C607 0.930 . S
H600 C610 0.930 . S
H601 C611 0.930 . S
C602 H596 0.930 . S
C602 C603 1.355 . S
C602 C604 1.415 . S
C603 C602 1.355 . S
C603 C605 1.419 . S
C604 C602 1.415 . S
C604 C609 1.425 . S
C604 C611 1.409 . S
C605 H597 0.930 . S
C605 C603 1.419 . S
C605 C606 1.362 . S
C606 H598 0.930 . S
C606 C605 1.362 . S
C606 C609 1.409 . S
C607 H599 0.930 . S
C607 C608 1.355 . S
C607 C609 1.415 . S
C608 C607 1.355 . S
C608 C610 1.419 . S
C609 C604 1.425 . S
C609 C606 1.409 . S
C609 C607 1.415 . S
C610 H600 0.930 . S
C610 C608 1.419 . S
C610 C611 1.362 . S
C611 H601 0.930 . S
C611 C604 1.409 . S
C611 C610 1.362 . S
H612 C618 0.930 . S
H613 C621 0.930 . S
H614 C622 0.930 . S
H615 C623 0.930 . S
H616 C626 0.930 . S
H617 C627 0.930 . S
C618 H612 0.930 . S
C618 C619 1.355 . S
C618 C620 1.415 . S
C619 C618 1.355 . S
C619 C621 1.419 . S
C620 C618 1.415 . S
C620 C625 1.425 . S
C620 C627 1.409 . S
C621 H613 0.930 . S
C621 C619 1.419 . S
C621 C622 1.362 . S
C622 H614 0.930 . S
C622 C621 1.362 . S
C622 C625 1.409 . S
C623 H615 0.930 . S
C623 C624 1.355 . S
C623 C625 1.415 . S
C624 C623 1.355 . S
C624 C626 1.419 . S
C625 C620 1.425 . S
C625 C622 1.409 . S
C625 C623 1.415 . S
C626 H616 0.930 . S
C626 C624 1.419 . S
C626 C627 1.362 . S
C627 H617 0.930 . S
C627 C620 1.409 . S
C627 C626 1.362 . S
H628 C634 0.930 . S
H629 C637 0.930 . S
H630 C638 0.930 . S
H631 C639 0.930 . S
H632 C642 0.930 . S
H633 C643 0.930 . S
C634 H628 0.930 . S
C634 C635 1.355 . S
C634 C636 1.415 . S
C635 C634 1.355 . S
C635 C637 1.419 . S
C636 C634 1.415 . S
C636 C641 1.425 . S
C636 C643 1.409 . S
C637 H629 0.930 . S
C637 C635 1.419 . S
C637 C638 1.362 . S
C638 H630 0.930 . S
C638 C637 1.362 . S
C638 C641 1.409 . S
C639 H631 0.930 . S
C639 C640 1.355 . S
C639 C641 1.415 . S
C640 C639 1.355 . S
C640 C642 1.419 . S
C641 C636 1.425 . S
C641 C638 1.409 . S
C641 C639 1.415 . S
C642 H632 0.930 . S
C642 C640 1.419 . S
C642 C643 1.362 . S
C643 H633 0.930 . S
C643 C636 1.409 . S
C643 C642 1.362 . S
H644 C650 0.930 . S
H645 C653 0.930 . S
H646 C654 0.930 . S
H647 C655 0.930 . S
H648 C658 0.930 . S
H649 C659 0.930 . S
C650 H644 0.930 . S
C650 C651 1.355 . S
C650 C652 1.415 . S
C651 C650 1.355 . S
C651 C653 1.419 . S
C652 C650 1.415 . S
C652 C657 1.425 . S
C652 C659 1.409 . S
C653 H645 0.930 . S
C653 C651 1.419 . S
C653 C654 1.362 . S
C654 H646 0.930 . S
C654 C653 1.362 . S
C654 C657 1.409 . S
C655 H647 0.930 . S
C655 C656 1.355 . S
C655 C657 1.415 . S
C656 C655 1.355 . S
C656 C658 1.419 . S
C657 C652 1.425 . S
C657 C654 1.409 . S
C657 C655 1.415 . S
C658 H648 0.930 . S
C658 C656 1.419 . S
C658 C659 1.362 . S
C659 H649 0.930 . S
C659 C652 1.409 . S
C659 C658 1.362 . S
H660 C666 0.930 . S
H661 C669 0.930 . S
H662 C670 0.930 . S
H663 C671 0.930 . S
H664 C674 0.930 . S
H665 C675 0.930 . S
C666 H660 0.930 . S
C666 C667 1.355 . S
C666 C668 1.415 . S
C667 C666 1.355 . S
C667 C669 1.419 . S
C668 C666 1.415 . S
C668 C673 1.425 . S
C668 C675 1.409 . S
C669 H661 0.930 . S
C669 C667 1.419 . S
C669 C670 1.362 . S
C670 H662 0.930 . S
C670 C669 1.362 . S
C670 C673 1.409 . S
C671 H663 0.930 . S
C671 C672 1.355 . S
C671 C673 1.415 . S
C672 C671 1.355 . S
C672 C674 1.419 . S
C673 C668 1.425 . S
C673 C670 1.409 . S
C673 C671 1.415 . S
C674 H664 0.930 . S
C674 C672 1.419 . S
C674 C675 1.362 . S
C675 H665 0.930 . S
C675 C668 1.409 . S
C675 C674 1.362 . S
H676 C682 0.930 . S
H677 C685 0.930 . S
H678 C686 0.930 . S
H679 C687 0.930 . S
H680 C690 0.930 . S
H681 C691 0.930 . S
C682 H676 0.930 . S
C682 C683 1.355 . S
C682 C684 1.415 . S
C683 C682 1.355 . S
C683 C685 1.419 . S
C684 C682 1.415 . S
C684 C689 1.425 . S
C684 C691 1.409 . S
C685 H677 0.930 . S
C685 C683 1.419 . S
C685 C686 1.362 . S
C686 H678 0.930 . S
C686 C685 1.362 . S
C686 C689 1.409 . S
C687 H679 0.930 . S
C687 C688 1.355 . S
C687 C689 1.415 . S
C688 C687 1.355 . S
C688 C690 1.419 . S
C689 C684 1.425 . S
C689 C686 1.409 . S
C689 C687 1.415 . S
C690 H680 0.930 . S
C690 C688 1.419 . S
C690 C691 1.362 . S
C691 H681 0.930 . S
C691 C684 1.409 . S
C691 C690 1.362 . S
H692 C698 0.930 . S
H693 C701 0.930 . S
H694 C702 0.930 . S
H695 C703 0.930 . S
H696 C706 0.930 . S
H697 C707 0.930 . S
C698 H692 0.930 . S
C698 C699 1.355 . S
C698 C700 1.415 . S
C699 C698 1.355 . S
C699 C701 1.419 . S
C700 C698 1.415 . S
C700 C705 1.425 . S
C700 C707 1.409 . S
C701 H693 0.930 . S
C701 C699 1.419 . S
C701 C702 1.362 . S
C702 H694 0.930 . S
C702 C701 1.362 . S
C702 C705 1.409 . S
C703 H695 0.930 . S
C703 C704 1.355 . S
C703 C705 1.415 . S
C704 C703 1.355 . S
C704 C706 1.419 . S
C705 C700 1.425 . S
C705 C702 1.409 . S
C705 C703 1.415 . S
C706 H696 0.930 . S
C706 C704 1.419 . S
C706 C707 1.362 . S
C707 H697 0.930 . S
C707 C700 1.409 . S
C707 C706 1.362 . S
H708 C714 0.930 . S
H709 C717 0.930 . S
H710 C718 0.930 . S
H711 C719 0.930 . S
H712 C722 0.930 . S
H713 C723 0.930 . S
C714 H708 0.930 . S
C714 C715 1.355 . S
C714 C716 1.415 . S
C715 C714 1.355 . S
C715 C717 1.419 . S
C716 C714 1.415 . S
C716 C721 1.425 . S
C716 C723 1.409 . S
C717 H709 0.930 . S
C717 C715 1.419 . S
C717 C718 1.362 . S
C718 H710 0.930 . S
C718 C717 1.362 . S
C718 C721 1.409 . S
C719 H711 0.930 . S
C719 C720 1.355 . S
C719 C721 1.415 . S
C720 C719 1.355 . S
C720 C722 1.419 . S
C721 C716 1.425 . S
C721 C718 1.409 . S
C721 C719 1.415 . S
C722 H712 0.930 . S
C722 C720 1.419 . S
C722 C723 1.362 . S
C723 H713 0.930 . S
C723 C716 1.409 . S
C723 C722 1.362 . S
H724 C730 0.930 . S
H725 C733 0.930 . S
H726 C734 0.930 . S
H727 C735 0.930 . S
H728 C738 0.930 . S
H729 C739 0.930 . S
C730 H724 0.930 . S
C730 C731 1.355 . S
C730 C732 1.415 . S
C731 C730 1.355 . S
C731 C733 1.419 . S
C732 C730 1.415 . S
C732 C737 1.425 . S
C732 C739 1.409 . S
C733 H725 0.930 . S
C733 C731 1.419 . S
C733 C734 1.362 . S
C734 H726 0.930 . S
C734 C733 1.362 . S
C734 C737 1.409 . S
C735 H727 0.930 . S
C735 C736 1.355 . S
C735 C737 1.415 . S
C736 C735 1.355 . S
C736 C738 1.419 . S
C737 C732 1.425 . S
C737 C734 1.409 . S
C737 C735 1.415 . S
C738 H728 0.930 . S
C738 C736 1.419 . S
C738 C739 1.362 . S
C739 H729 0.930 . S
C739 C732 1.409 . S
C739 C738 1.362 . S
H740 C746 0.930 . S
H741 C749 0.930 . S
H742 C750 0.930 . S
H743 C751 0.930 . S
H744 C754 0.930 . S
H745 C755 0.930 . S
C746 H740 0.930 . S
C746 C747 1.355 . S
C746 C748 1.415 . S
C747 C746 1.355 . S
C747 C749 1.419 . S
C748 C746 1.415 . S
C748 C753 1.425 . S
C748 C755 1.409 . S
C749 H741 0.930 . S
C749 C747 1.419 . S
C749 C750 1.362 . S
C750 H742 0.930 . S
C750 C749 1.362 . S
C750 C753 1.409 . S
C751 H743 0.930 . S
C751 C752 1.355 . S
C751 C753 1.415 . S
C752 C751 1.355 . S
C752 C754 1.419 . S
C753 C748 1.425 . S
C753 C750 1.409 . S
C753 C751 1.415 . S
C754 H744 0.930 . S
C754 C752 1.419 . S
C754 C755 1.362 . S
C755 H745 0.930 . S
C755 C748 1.409 . S
C755 C754 1.362 . S
C384 C300 1.507 . S
C379 C25 1.503 . S
C400 C303 1.506 . S
C395 C37 1.500 . S
C416 C301 1.517 . S
C411 C103 1.515 . S
C432 C302 1.508 . S
C427 C139 1.500 . S
C448 C317 1.493 . S
C443 C31 1.501 . S
C464 C331 1.491 . S
C459 C67 1.501 . S
C475 C97 1.511 . S
C480 C357 1.507 . S
C496 C371 1.485 . S
C491 C133 1.491 . S
C512 C316 1.491 . S
C507 C61 1.500 . S
C523 C73 1.501 . S
C528 C330 1.513 . S
C544 C356 1.493 . S
C539 C109 1.499 . S
C560 C370 1.503 . S
C555 C1 1.493 . S
C571 C169 1.481 . S
C576 C315 1.505 . S
C592 C288 1.503 . S
C587 C211 1.482 . S
C603 C241 1.487 . S
C608 C314 1.492 . S
C619 C253 1.487 . S
C624 C289 1.505 . S
C640 C344 1.499 . S
C635 C175 1.511 . S
C656 C358 1.491 . S
C651 C205 1.477 . S
C672 C328 1.494 . S
C667 C217 1.495 . S
C683 C283 1.515 . S
C688 C342 1.511 . S
C704 C345 1.507 . S
C699 C181 1.496 . S
C720 C359 1.494 . S
C715 C247 1.509 . S
C736 C329 1.497 . S
C731 C277 1.485 . S
C747 C145 1.492 . S
C752 C343 1.500 . S
