# Generated by pormake.
# Topology pth, (4,4)-cn, num edge types: 1
# Building blocks:
#     Node 0, Type 0, BuildingBlock: AZAVOO_clean_sbu_0, # of connection points: 4
#     Node 1, Type 0, BuildingBlock: AZAVOO_clean_sbu_0, # of connection points: 4
#     Node 2, Type 0, BuildingBlock: AZAVOO_clean_sbu_0, # of connection points: 4
#     Node 3, Type 1, BuildingBlock: NAHDIM_clean_linker_0, # of connection points: 4
#     Node 4, Type 1, BuildingBlock: NAHDIM_clean_linker_0, # of connection points: 4
#     Node 5, Type 1, BuildingBlock: NAHDIM_clean_linker_0, # of connection points: 4
#     Edge 6, Type (0, 1), BuildingBlock: CIFDUS_clean_linker_0, # of connection points: 2
#     Edge 7, Type (0, 1), BuildingBlock: CIFDUS_clean_linker_0, # of connection points: 2
#     Edge 8, Type (0, 1), BuildingBlock: CIFDUS_clean_linker_0, # of connection points: 2
#     Edge 9, Type (0, 1), BuildingBlock: CIFDUS_clean_linker_0, # of connection points: 2
#     Edge 10, Type (0, 1), BuildingBlock: CIFDUS_clean_linker_0, # of connection points: 2
#     Edge 11, Type (0, 1), BuildingBlock: CIFDUS_clean_linker_0, # of connection points: 2
#     Edge 12, Type (0, 1), BuildingBlock: CIFDUS_clean_linker_0, # of connection points: 2
#     Edge 13, Type (0, 1), BuildingBlock: CIFDUS_clean_linker_0, # of connection points: 2
#     Edge 14, Type (0, 1), BuildingBlock: CIFDUS_clean_linker_0, # of connection points: 2
#     Edge 15, Type (0, 1), BuildingBlock: CIFDUS_clean_linker_0, # of connection points: 2
#     Edge 16, Type (0, 1), BuildingBlock: CIFDUS_clean_linker_0, # of connection points: 2
#     Edge 17, Type (0, 1), BuildingBlock: CIFDUS_clean_linker_0, # of connection points: 2
# Relax obj value: 0.086
# Max RMSD: 0.221
# Mean RMSD: 0.131
data_MOF--net-pth--node1-AZAVOO_clean_sbu_0--node2-NAHDIM_clean_linker_0--edge1-CIFDUS_clean_linker_0
_symmetry_space_group_name_H-M    P1
_symmetry_Int_Tables_number       1
_symmetry_cell_setting            triclinic
loop_
_symmetry_equiv_pos_as_xyz
'x, y, z'
_cell_length_a     28.666798
_cell_length_b     29.212501
_cell_length_c     72.339068
_cell_angle_alpha  90.366954
_cell_angle_beta   93.290124
_cell_angle_gamma 122.0511
loop_
_atom_site_label
_atom_site_type_symbol
_atom_site_fract_x
_atom_site_fract_y
_atom_site_fract_z
_atom_type_partial_charge
Mg0 Mg 0.12885 0.06018 0.07127 0.0
O1 O 0.04269 0.00886 0.05621 0.0
O2 O 0.02445 0.06479 0.0412 0.0
Mg3 Mg 0.10036 0.15079 0.04509 0.0
C4 C 0.01066 0.01736 0.04587 0.0
C5 C 0.08539 0.94104 0.08513 0.0
O6 O 0.07039 0.92631 0.06753 0.0
O7 O 0.09853 0.09508 0.09256 0.0
O8 O 0.09028 0.15516 0.07608 0.0
O9 O 0.16703 0.05193 0.04595 0.0
O10 O 0.15252 0.11755 0.05132 0.0
C11 C 0.08954 0.13343 0.09141 0.0
C12 C 0.16916 0.09508 0.04044 0.0
O13 O 0.11005 0.99082 0.09009 0.0
Mg14 Mg 0.9801 0.08453 0.37068 0.0
O15 O 0.03506 0.10036 0.39739 0.0
O16 O 0.03855 0.16657 0.41425 0.0
Mg17 Mg 0.98652 0.1935 0.39841 0.0
C18 C 0.05193 0.13175 0.41188 0.0
C19 C 0.00203 0.99267 0.36805 0.0
O20 O 0.98338 0.98772 0.38456 0.0
O21 O 0.04891 0.16154 0.35877 0.0
O22 O 0.04783 0.22548 0.37555 0.0
O23 O 0.90635 0.02565 0.38503 0.0
O24 O 0.93722 0.11278 0.3844 0.0
C25 C 0.06676 0.21118 0.36264 0.0
C26 C 0.90317 0.06602 0.39061 0.0
O27 O 0.00852 0.03169 0.35841 0.0
Mg28 Mg 0.96231 0.00566 0.71222 0.0
O29 O 0.02921 0.06523 0.73342 0.0
O30 O 0.99348 0.08746 0.75578 0.0
Mg31 Mg 0.89945 0.03612 0.74906 0.0
C32 C 0.03475 0.09166 0.7483 0.0
C33 C 0.06682 0.01573 0.69826 0.0
O34 O 0.06094 0.99009 0.71365 0.0
O35 O 0.95002 0.0712 0.70075 0.0
O36 O 0.90784 0.08512 0.72319 0.0
O37 O 0.95388 0.93783 0.72859 0.0
O38 O 0.90507 0.97525 0.73242 0.0
C39 C 0.92686 0.09453 0.70716 0.0
C40 C 0.91769 0.94076 0.73757 0.0
O41 O 0.03078 0.02665 0.69306 0.0
C42 C 0.9562 0.74078 0.2942 0.0
C43 C 0.00757 0.76509 0.30783 0.0
C44 C 0.06732 0.74202 0.29234 0.0
C45 C 0.11517 0.76304 0.28284 0.0
C46 C 0.13114 0.72926 0.27545 0.0
C47 C 0.09784 0.67276 0.27744 0.0
C48 C 0.04986 0.65113 0.28732 0.0
C49 C 0.03526 0.68594 0.2948 0.0
C50 C 0.18323 0.75389 0.26531 0.0
C51 C 0.01352 0.59107 0.28971 0.0
C52 C 0.34183 0.48375 0.31411 0.0
C53 C 0.28412 0.47395 0.31042 0.0
C54 C 0.2546 0.53725 0.30418 0.0
C55 C 0.19872 0.49995 0.29896 0.0
C56 C 0.16636 0.51645 0.28944 0.0
C57 C 0.19114 0.57087 0.28429 0.0
C58 C 0.2472 0.60876 0.28996 0.0
C59 C 0.27781 0.59154 0.3002 0.0
C60 C 0.106 0.4753 0.28461 0.0
C61 C 0.2753 0.6671 0.2848 0.0
C62 C 0.16856 0.42656 0.17633 0.0
C63 C 0.11366 0.40269 0.18098 0.0
C64 C 0.09349 0.43494 0.18638 0.0
C65 C 0.1286 0.49194 0.1868 0.0
C66 C 0.18251 0.51587 0.18083 0.0
C67 C 0.20177 0.48275 0.1757 0.0
C68 C 0.03534 0.40823 0.19229 0.0
C69 C 0.22061 0.57648 0.18069 0.0
C70 C 0.8881 0.67924 0.15287 0.0
C71 C 0.94667 0.6914 0.1516 0.0
C72 C 0.97464 0.62734 0.15787 0.0
C73 C 0.94936 0.57329 0.16245 0.0
C74 C 0.97799 0.55549 0.17354 0.0
C75 C 0.03395 0.5925 0.17959 0.0
C76 C 0.0607 0.64664 0.17398 0.0
C77 C 0.03047 0.66367 0.1634 0.0
C78 C 0.94806 0.49741 0.17906 0.0
C79 C 0.121 0.68673 0.17933 0.0
C80 C 0.11249 0.6363 0.2687 0.0
C81 C 0.14181 0.61919 0.27964 0.0
C82 C 0.15956 0.58735 0.272 0.0
C83 C 0.14812 0.57242 0.25285 0.0
C84 C 0.16709 0.54219 0.24454 0.0
C85 C 0.15461 0.5266 0.22584 0.0
C86 C 0.12377 0.5417 0.21455 0.0
C87 C 0.11128 0.52628 0.19547 0.0
C88 C 0.08222 0.54347 0.18447 0.0
C89 C 0.06405 0.57498 0.19211 0.0
C90 C 0.07473 0.5894 0.21132 0.0
C91 C 0.05555 0.61945 0.21965 0.0
C92 C 0.06766 0.6347 0.23843 0.0
C93 C 0.099 0.62008 0.24968 0.0
C94 C 0.11731 0.58843 0.24171 0.0
C95 C 0.10525 0.57317 0.22251 0.0
C96 C 0.22088 0.34076 0.18369 0.0
C97 C 0.17195 0.34373 0.17568 0.0
O98 O 0.05364 0.77718 0.29862 0.0
O99 O 0.9441 0.64332 0.14821 0.0
O100 O 0.19152 0.39752 0.17238 0.0
O101 O 0.28712 0.52248 0.31323 0.0
H102 H 0.00057 0.73541 0.31858 0.0
H103 H 0.94677 0.70192 0.28781 0.0
H104 H 0.96258 0.76872 0.2829 0.0
H105 H 0.91979 0.73278 0.30157 0.0
H106 H 0.13991 0.80626 0.2811 0.0
H107 H 0.99846 0.66873 0.30231 0.0
H108 H 0.20969 0.73916 0.27082 0.0
H109 H 0.20731 0.79878 0.26654 0.0
H110 H 0.17247 0.74114 0.2504 0.0
H111 H 0.97637 0.58026 0.29714 0.0
H112 H 0.03737 0.5767 0.2976 0.0
H113 H 1.00007 0.56932 0.27593 0.0
H114 H 0.27079 0.45977 0.29562 0.0
H115 H 0.35748 0.49819 0.32872 0.0
H116 H 0.37063 0.51486 0.30482 0.0
H117 H 0.34119 0.44594 0.31135 0.0
H118 H 0.18006 0.45806 0.30241 0.0
H119 H 0.3208 0.62011 0.30455 0.0
H120 H 0.08075 0.4934 0.28629 0.0
H121 H 0.09038 0.43958 0.29335 0.0
H122 H 0.10016 0.46106 0.26991 0.0
H123 H 0.32046 0.68986 0.2885 0.0
H124 H 0.25738 0.68707 0.29214 0.0
H125 H 0.26824 0.66961 0.26968 0.0
H126 H 0.14116 0.32825 0.18632 0.0
H127 H 0.08651 0.35918 0.18062 0.0
H128 H 0.24366 0.50073 0.17169 0.0
H129 H 0.0364 0.41893 0.20714 0.0
H130 H 0.01233 0.36349 0.1904 0.0
H131 H 0.01259 0.42342 0.18419 0.0
H132 H 0.2589 0.58861 0.17376 0.0
H133 H 0.23222 0.59352 0.19517 0.0
H134 H 0.1992 0.5945 0.17351 0.0
H135 H 0.96908 0.71005 0.16533 0.0
H136 H 0.88907 0.71716 0.15575 0.0
H137 H 0.86837 0.65171 0.16433 0.0
H138 H 0.86259 0.65942 0.13974 0.0
H139 H 0.9064 0.54548 0.15786 0.0
H140 H 0.05046 0.70524 0.15935 0.0
H141 H 0.95419 0.49543 0.19427 0.0
H142 H 0.9653 0.4761 0.17217 0.0
H143 H 0.90308 0.47564 0.17509 0.0
H144 H 0.13788 0.72346 0.17106 0.0
H145 H 0.1456 0.66802 0.17745 0.0
H146 H 0.12621 0.69938 0.19419 0.0
H147 H 0.15141 0.63127 0.29426 0.0
H148 H 0.19173 0.53 0.25237 0.0
H149 H 0.1699 0.50283 0.22035 0.0
H150 H 0.07367 0.53219 0.16978 0.0
H151 H 0.0311 0.63174 0.21174 0.0
H152 H 0.05206 0.65809 0.24402 0.0
H153 H 0.2073 0.29923 0.18788 0.0
H154 H 0.24043 0.36828 0.19621 0.0
H155 H 0.25233 0.35326 0.17336 0.0
C156 C 0.38268 0.21472 0.65728 0.0
C157 C 0.34002 0.17229 0.64283 0.0
C158 C 0.39084 0.13887 0.62692 0.0
C159 C 0.4248 0.18622 0.61754 0.0
C160 C 0.46311 0.18883 0.60566 0.0
C161 C 0.46703 0.14304 0.60289 0.0
C162 C 0.43294 0.09537 0.61228 0.0
C163 C 0.39547 0.09408 0.62424 0.0
C164 C 0.49936 0.24049 0.59599 0.0
C165 C 0.43584 0.04571 0.60956 0.0
C166 C 0.88342 0.27264 0.61572 0.0
C167 C 0.83995 0.23 0.62773 0.0
C168 C 0.74938 0.18289 0.61001 0.0
C169 C 0.70619 0.13154 0.60368 0.0
C170 C 0.65562 0.12287 0.59638 0.0
C171 C 0.64887 0.16733 0.59471 0.0
C172 C 0.69243 0.21958 0.60111 0.0
C173 C 0.74212 0.22679 0.60887 0.0
C174 C 0.60964 0.06615 0.59034 0.0
C175 C 0.68678 0.26792 0.59946 0.0
C176 C 0.65797 0.10693 0.47561 0.0
C177 C 0.62277 0.06302 0.48622 0.0
C178 C 0.58331 0.0642 0.49644 0.0
C179 C 0.57943 0.11051 0.49631 0.0
C180 C 0.61349 0.15402 0.48521 0.0
C181 C 0.65206 0.1514 0.47488 0.0
C182 C 0.54666 0.01643 0.50777 0.0
C183 C 0.61023 0.20386 0.48473 0.0
C184 C 0.1573 0.00757 0.50004 0.0
C185 C 0.20346 0.04811 0.48842 0.0
C186 C 0.28732 0.04544 0.48993 0.0
C187 C 0.30183 0.0078 0.49408 0.0
C188 C 0.35512 0.02448 0.50144 0.0
C189 C 0.39515 0.08037 0.50424 0.0
C190 C 0.38141 0.11877 0.4992 0.0
C191 C 0.3275 0.10088 0.49212 0.0
C192 C 0.36841 0.98238 0.50648 0.0
C193 C 0.42361 0.17863 0.50144 0.0
C194 C 0.5062 0.14478 0.58994 0.0
C195 C 0.55779 0.1566 0.59731 0.0
C196 C 0.59668 0.15907 0.58587 0.0
C197 C 0.58434 0.15066 0.56646 0.0
C198 C 0.62323 0.15491 0.55447 0.0
C199 C 0.60981 0.14392 0.53552 0.0
C200 C 0.55699 0.12834 0.52781 0.0
C201 C 0.54211 0.11445 0.5087 0.0
C202 C 0.48971 0.10025 0.50138 0.0
C203 C 0.45098 0.09844 0.51275 0.0
C204 C 0.4647 0.11103 0.532 0.0
C205 C 0.42632 0.10826 0.54394 0.0
C206 C 0.43992 0.11974 0.56289 0.0
C207 C 0.49231 0.13409 0.57066 0.0
C208 C 0.53164 0.13722 0.55888 0.0
C209 C 0.5179 0.12594 0.53953 0.0
C210 C 0.75345 0.08819 0.48659 0.0
C211 C 0.71904 0.07509 0.46808 0.0
O212 O 0.35347 0.13443 0.63872 0.0
O213 O 0.23457 0.0269 0.48353 0.0
O214 O 0.69847 0.10853 0.46615 0.0
O215 O 0.79735 0.18807 0.61667 0.0
H216 H 0.33885 0.19267 0.63002 0.0
H217 H 0.42424 0.23692 0.65187 0.0
H218 H 0.38501 0.19524 0.67015 0.0
H219 H 0.37138 0.24457 0.66075 0.0
H220 H 0.42201 0.22141 0.61942 0.0
H221 H 0.36922 0.05777 0.63153 0.0
H222 H 0.54338 0.25375 0.59873 0.0
H223 H 0.49392 0.27369 0.60052 0.0
H224 H 0.48947 0.23315 0.58079 0.0
H225 H 0.4049 0.01108 0.61729 0.0
H226 H 0.47765 0.05506 0.6143 0.0
H227 H 0.42892 0.03352 0.59459 0.0
H228 H 0.82374 0.24972 0.63625 0.0
H229 H 0.91849 0.30517 0.62465 0.0
H230 H 0.86537 0.29128 0.60698 0.0
H231 H 0.89926 0.25434 0.6064 0.0
H232 H 0.71212 0.09792 0.60465 0.0
H233 H 0.77527 0.26687 0.61363 0.0
H234 H 0.56989 0.05739 0.59533 0.0
H235 H 0.61801 0.0353 0.59554 0.0
H236 H 0.60487 0.06219 0.57498 0.0
H237 H 0.72597 0.30647 0.60359 0.0
H238 H 0.65456 0.26335 0.60844 0.0
H239 H 0.67338 0.27024 0.58496 0.0
H240 H 0.6843 0.03214 0.4675 0.0
H241 H 0.62599 0.02784 0.4868 0.0
H242 H 0.679 0.18488 0.46656 0.0
H243 H 0.55892 0.02778 0.52273 0.0
H244 H 0.54951 0.98084 0.50446 0.0
H245 H 0.50299 0.00465 0.50537 0.0
H246 H 0.64004 0.23453 0.47555 0.0
H247 H 0.61864 0.22233 0.49895 0.0
H248 H 0.56789 0.19251 0.47978 0.0
H249 H 0.22889 0.08588 0.49723 0.0
H250 H 0.13189 0.02375 0.50424 0.0
H251 H 0.17538 1.00009 0.51278 0.0
H252 H 0.13027 0.96847 0.4921 0.0
H253 H 0.2707 0.96512 0.49201 0.0
H254 H 0.31699 0.13016 0.48812 0.0
H255 H 0.38519 0.9892 0.52115 0.0
H256 H 0.40065 0.98607 0.4977 0.0
H257 H 0.3317 0.9406 0.50456 0.0
H258 H 0.4078 0.2032 0.49547 0.0
H259 H 0.46143 0.18845 0.49462 0.0
H260 H 0.43556 0.19031 0.51639 0.0
H261 H 0.5675 0.16323 0.61218 0.0
H262 H 0.66441 0.16642 0.55961 0.0
H263 H 0.64133 0.14744 0.52701 0.0
H264 H 0.47847 0.08919 0.48673 0.0
H265 H 0.3852 0.09693 0.53879 0.0
H266 H 0.4086 0.11669 0.57139 0.0
H267 H 0.78796 0.13124 0.48752 0.0
H268 H 0.77068 0.06202 0.48798 0.0
H269 H 0.72753 0.08087 0.49838 0.0
C270 C 0.77308 0.64499 0.79763 0.0
C271 C 0.77373 0.69499 0.80471 0.0
C272 C 0.74899 0.67892 0.83613 0.0
C273 C 0.70747 0.69022 0.83723 0.0
C274 C 0.66263 0.65909 0.84797 0.0
C275 C 0.65925 0.61551 0.8576 0.0
C276 C 0.70304 0.60632 0.85741 0.0
C277 C 0.74789 0.63876 0.84679 0.0
C278 C 0.6175 0.67101 0.84826 0.0
C279 C 0.70078 0.56015 0.86746 0.0
C280 C 0.36338 0.35227 0.77792 0.0
C281 C 0.33064 0.32187 0.79441 0.0
C282 C 0.37977 0.39086 0.81989 0.0
C283 C 0.42458 0.38402 0.82306 0.0
C284 C 0.46866 0.41791 0.83598 0.0
C285 C 0.46858 0.46022 0.84558 0.0
C286 C 0.42426 0.46808 0.84201 0.0
C287 C 0.38004 0.43262 0.82947 0.0
C288 C 0.51504 0.40815 0.83949 0.0
C289 C 0.42337 0.51389 0.85142 0.0
C290 C 0.32322 0.35203 0.94664 0.0
C291 C 0.37039 0.34948 0.95055 0.0
C292 C 0.42337 0.39506 0.9487 0.0
C293 C 0.42909 0.44402 0.9431 0.0
C294 C 0.38196 0.44786 0.94089 0.0
C295 C 0.3296 0.40168 0.94267 0.0
C296 C 0.473 0.3901 0.9516 0.0
C297 C 0.38658 0.49977 0.93538 0.0
C298 C 0.76372 0.82801 0.96271 0.0
C299 C 0.73958 0.8129 0.98174 0.0
C300 C 0.68381 0.71433 0.97603 0.0
C301 C 0.68628 0.66786 0.97699 0.0
C302 C 0.64843 0.62059 0.96635 0.0
C303 C 0.60665 0.61973 0.95467 0.0
C304 C 0.602 0.66559 0.95442 0.0
C305 C 0.6406 0.71238 0.96505 0.0
C306 C 0.65418 0.57222 0.96706 0.0
C307 C 0.55708 0.66571 0.9425 0.0
C308 C 0.60693 0.5752 0.86556 0.0
C309 C 0.5642 0.53685 0.85322 0.0
C310 C 0.5143 0.49602 0.85952 0.0
C311 C 0.50736 0.49191 0.87874 0.0
C312 C 0.4594 0.44893 0.88564 0.0
C313 C 0.4516 0.44661 0.90445 0.0
C314 C 0.49111 0.48765 0.9171 0.0
C315 C 0.48184 0.48723 0.93611 0.0
C316 C 0.52096 0.52965 0.94821 0.0
C317 C 0.56981 0.57251 0.9418 0.0
C318 C 0.58062 0.57249 0.92293 0.0
C319 C 0.62999 0.61397 0.91608 0.0
C320 C 0.6392 0.61459 0.89734 0.0
C321 C 0.59903 0.57426 0.88471 0.0
C322 C 0.54917 0.53204 0.89132 0.0
C323 C 0.54054 0.53047 0.9105 0.0
C324 C 0.20226 0.22175 0.93321 0.0
C325 C 0.25419 0.25389 0.94631 0.0
O326 O 0.78755 0.70323 0.82363 0.0
O327 O 0.72439 0.76029 0.98545 0.0
O328 O 0.27097 0.30802 0.94615 0.0
O329 O 0.33551 0.3585 0.80785 0.0
H330 H 0.73095 0.68584 0.80164 0.0
H331 H 0.73852 0.60812 0.80336 0.0
H332 H 0.81201 0.6473 0.80209 0.0
H333 H 0.76687 0.64076 0.78226 0.0
H334 H 0.70928 0.7221 0.82911 0.0
H335 H 0.78049 0.6307 0.84584 0.0
H336 H 0.58092 0.63988 0.8395 0.0
H337 H 0.63064 0.71136 0.84287 0.0
H338 H 0.60472 0.66923 0.86257 0.0
H339 H 0.73829 0.5586 0.86598 0.0
H340 H 0.66411 0.52124 0.86195 0.0
H341 H 0.69632 0.56416 0.88242 0.0
H342 H 0.34653 0.29723 0.80027 0.0
H343 H 0.36034 0.32346 0.7671 0.0
H344 H 0.40765 0.37994 0.78246 0.0
H345 H 0.34742 0.37655 0.77177 0.0
H346 H 0.42547 0.35217 0.81574 0.0
H347 H 0.34552 0.4378 0.82688 0.0
H348 H 0.52295 0.40646 0.85461 0.0
H349 H 0.55341 0.44225 0.8343 0.0
H350 H 0.50603 0.37003 0.83252 0.0
H351 H 0.39165 0.52034 0.84465 0.0
H352 H 0.46431 0.5521 0.85133 0.0
H353 H 0.41398 0.50458 0.86609 0.0
H354 H 0.2859 0.24753 0.94085 0.0
H355 H 0.36628 0.31198 0.95458 0.0
H356 H 0.29304 0.40359 0.94014 0.0
H357 H 0.48993 0.39173 0.93802 0.0
H358 H 0.46268 0.35166 0.95802 0.0
H359 H 0.50582 0.42455 0.96054 0.0
H360 H 0.34732 0.49825 0.93659 0.0
H361 H 0.39776 0.50745 0.92079 0.0
H362 H 0.41979 0.5343 0.94419 0.0
H363 H 0.70283 0.8164 0.98188 0.0
H364 H 0.77683 0.87039 0.95986 0.0
H365 H 0.73255 0.80154 0.9515 0.0
H366 H 0.79994 0.82376 0.96224 0.0
H367 H 0.71926 0.66937 0.98564 0.0
H368 H 0.63704 0.74737 0.96445 0.0
H369 H 0.6619 0.56285 0.95307 0.0
H370 H 0.61507 0.53635 0.97107 0.0
H371 H 0.68838 0.57895 0.97705 0.0
H372 H 0.55546 0.70226 0.94531 0.0
H373 H 0.5163 0.62929 0.94486 0.0
H374 H 0.56438 0.66427 0.92766 0.0
H375 H 0.56967 0.53917 0.83846 0.0
H376 H 0.42722 0.41661 0.87655 0.0
H377 H 0.41361 0.41254 0.90884 0.0
H378 H 0.51259 0.53012 0.96262 0.0
H379 H 0.66207 0.64646 0.92514 0.0
H380 H 0.67776 0.64755 0.89281 0.0
H381 H 0.16844 0.22599 0.93792 0.0
H382 H 0.18824 0.17823 0.93258 0.0
H383 H 0.21125 0.23702 0.91902 0.0
H384 H 0.10588 0.23315 0.09519 0.0
H385 H 0.07169 0.0946 0.12651 0.0
H386 H 0.08704 0.14631 0.15542 0.0
H387 H 0.12099 0.2341 0.17171 0.0
H388 H 0.16526 0.37411 0.1396 0.0
H389 H 0.13416 0.3183 0.1112 0.0
C390 C 0.10062 0.21368 0.10829 0.0
C391 C 0.08792 0.16007 0.10866 0.0
C392 C 0.11198 0.24425 0.12479 0.0
C393 C 0.08165 0.13585 0.12582 0.0
C394 C 0.09069 0.1655 0.14236 0.0
C395 C 0.12361 0.25231 0.15849 0.0
C396 C 0.14655 0.30852 0.15794 0.0
C397 C 0.10775 0.2203 0.142 0.0
C398 C 0.14861 0.33128 0.14066 0.0
C399 C 0.13082 0.29933 0.1243 0.0
H400 H 0.88702 0.14239 0.40527 0.0
H401 H 0.83204 0.97347 0.4074 0.0
H402 H 0.76928 0.96136 0.43093 0.0
H403 H 0.73152 0.99901 0.45147 0.0
H404 H 0.7888 0.16843 0.45032 0.0
H405 H 0.8495 0.18021 0.42593 0.0
C406 C 0.86155 0.103 0.41092 0.0
C407 C 0.86459 0.05904 0.40465 0.0
C408 C 0.82583 0.09636 0.4246 0.0
C409 C 0.8307 0.00809 0.412 0.0
C410 C 0.79477 0.00107 0.42547 0.0
C411 C 0.75684 0.03833 0.44569 0.0
C412 C 0.75458 0.0824 0.45231 0.0
C413 C 0.79215 0.04494 0.43192 0.0
C414 C 0.78877 0.13356 0.44512 0.0
C415 C 0.82369 0.14037 0.43126 0.0
H416 H 0.9492 0.88009 0.75637 0.0
H417 H 0.82296 0.91848 0.75234 0.0
H418 H 0.7694 0.84836 0.77387 0.0
H419 H 0.75439 0.77063 0.79145 0.0
H420 H 0.88219 0.73461 0.7967 0.0
H421 H 0.93936 0.80961 0.77725 0.0
C422 C 0.91025 0.87347 0.76037 0.0
C423 C 0.88967 0.90384 0.75257 0.0
C424 C 0.87966 0.83313 0.7728 0.0
C425 C 0.8396 0.89547 0.7581 0.0
C426 C 0.80881 0.85523 0.77035 0.0
C427 C 0.79486 0.77935 0.78839 0.0
C428 C 0.81275 0.74538 0.79474 0.0
C429 C 0.82778 0.82291 0.77739 0.0
C430 C 0.86629 0.75858 0.79133 0.0
C431 C 0.89918 0.80168 0.78028 0.0
H432 H 0.02332 0.83103 0.08015 0.0
H433 H 0.11196 0.9591 0.12237 0.0
H434 H 0.08006 0.89295 0.14636 0.0
H435 H 0.02205 0.79942 0.1556 0.0
H436 H 0.93184 0.67103 0.11377 0.0
H437 H 0.96946 0.73647 0.08939 0.0
C438 C 0.03611 0.84445 0.09458 0.0
C439 C 0.0697 0.90006 0.09941 0.0
C440 C 0.01721 0.80612 0.1084 0.0
C441 C 0.0859 0.91664 0.11821 0.0
C442 C 0.06765 0.87882 0.13198 0.0
C443 C 0.01137 0.78575 0.14113 0.0
C444 C 0.97471 0.73052 0.13647 0.0
C445 C 0.0326 0.82359 0.12726 0.0
C446 C 0.96053 0.71333 0.11767 0.0
C447 C 0.9818 0.75074 0.10376 0.0
H448 H 0.07763 0.05428 0.41435 0.0
H449 H 0.10324 0.19682 0.44309 0.0
H450 H 0.1548 0.18509 0.46858 0.0
H451 H 0.18873 0.13197 0.48352 0.0
H452 H 0.16089 0.98809 0.45541 0.0
H453 H 0.11431 0.00285 0.42886 0.0
C454 C 0.09483 0.08308 0.42611 0.0
C455 C 0.08623 0.12625 0.42677 0.0
C456 C 0.12408 0.07585 0.44087 0.0
C457 C 0.10885 0.16304 0.44218 0.0
C458 C 0.13842 0.15641 0.45681 0.0
C459 C 0.17316 0.10436 0.47145 0.0
C460 C 0.17916 0.05963 0.47127 0.0
C461 C 0.14573 0.11264 0.4564 0.0
C462 C 0.1577 0.0234 0.45572 0.0
C463 C 0.13082 0.03166 0.4406 0.0
H464 H 0.07402 0.18465 0.7692 0.0
H465 H 0.12219 0.08012 0.7464 0.0
H466 H 0.21664 0.14077 0.75936 0.0
H467 H 0.28629 0.22461 0.77645 0.0
H468 H 0.24055 0.33326 0.79713 0.0
H469 H 0.14477 0.27009 0.78583 0.0
C470 C 0.10517 0.17504 0.76724 0.0
C471 C 0.09112 0.12791 0.75694 0.0
C472 C 0.15991 0.21088 0.77434 0.0
C473 C 0.13202 0.11627 0.75424 0.0
C474 C 0.18604 0.15088 0.76165 0.0
C475 C 0.25519 0.2342 0.77858 0.0
C476 C 0.27049 0.28298 0.78797 0.0
C477 C 0.20053 0.19845 0.77161 0.0
C478 C 0.22998 0.29555 0.79029 0.0
C479 C 0.17512 0.2595 0.78376 0.0
H480 H 0.93334 0.10227 0.66981 0.0
H481 H 0.89738 0.16561 0.71731 0.0
H482 H 0.87101 0.21592 0.69706 0.0
H483 H 0.85184 0.23684 0.6657 0.0
H484 H 0.88318 0.16951 0.61825 0.0
H485 H 0.91802 0.12623 0.63863 0.0
C486 C 0.92051 0.12768 0.67579 0.0
C487 C 0.91719 0.12993 0.69507 0.0
C488 C 0.90421 0.15557 0.66404 0.0
C489 C 0.90007 0.16284 0.70252 0.0
C490 C 0.88487 0.1916 0.69094 0.0
C491 C 0.86678 0.2131 0.65985 0.0
C492 C 0.8651 0.20657 0.64049 0.0
C493 C 0.88573 0.18741 0.67166 0.0
C494 C 0.88441 0.17546 0.6331 0.0
C495 C 0.90413 0.15055 0.64475 0.0
H496 H 0.92145 0.01717 0.03082 0.0
H497 H 0.98246 0.91234 0.04179 0.0
H498 H 0.90218 0.83834 0.02404 0.0
H499 H 0.81916 0.80612 0.00288 0.0
H500 H 0.7575 0.91062 0.99255 0.0
H501 H 0.83358 0.98201 0.01251 0.0
C502 C 0.91688 0.97795 0.02952 0.0
C503 C 0.95825 0.97057 0.03747 0.0
C504 C 0.87062 0.93554 0.01929 0.0
C505 C 0.9513 0.91925 0.03583 0.0
C506 C 0.90551 0.87692 0.02558 0.0
C507 C 0.82161 0.844 0.00536 0.0
C508 C 0.78222 0.85277 0.99642 0.0
C509 C 0.86551 0.88494 0.0169 0.0
C510 C 0.78683 0.90265 -0.00051 0.0
C511 C 0.83046 0.94356 0.01081 0.0
H512 H 0.03405 0.98621 0.33373 0.0
H513 H 0.98455 0.90199 0.38466 0.0
H514 H 0.98496 0.82596 0.3709 0.0
H515 H 0.99259 0.78028 0.34377 0.0
H516 H 0.04278 0.86376 0.29285 0.0
H517 H 0.04895 0.94309 0.30723 0.0
C518 C 0.02393 0.95148 0.34188 0.0
C519 C 0.00872 0.94971 0.36014 0.0
C520 C 0.024 0.90752 0.33385 0.0
C521 C 0.99606 0.90445 0.37053 0.0
C522 C 0.99616 0.86077 0.36267 0.0
C523 C 0.00559 0.81611 0.3359 0.0
C524 C 0.01711 0.81613 0.31728 0.0
C525 C 0.00901 0.86142 0.34424 0.0
C526 C 0.03373 0.86284 0.30723 0.0
C527 C 0.03714 0.9081 0.31542 0.0
H528 H 0.1016 0.08561 0.67013 0.0
H529 H 0.14617 0.99184 0.70418 0.0
H530 H 0.23319 0.03024 0.68958 0.0
H531 H 0.29871 0.09363 0.66823 0.0
H532 H 0.25572 0.18923 0.63472 0.0
H533 H 0.16611 0.14709 0.64805 0.0
C534 C 0.13008 0.07315 0.67422 0.0
C535 C 0.11735 0.03595 0.68825 0.0
C536 C 0.18049 0.09593 0.66593 0.0
C537 C 0.15492 0.0205 0.69346 0.0
C538 C 0.2048 0.04249 0.68514 0.0
C539 C 0.26938 0.10469 0.6637 0.0
C540 C 0.28343 0.14387 0.65032 0.0
C541 C 0.21828 0.0807 0.67153 0.0
C542 C 0.24552 0.15866 0.64483 0.0
C543 C 0.19439 0.13469 0.65247 0.0
H544 H 0.1839 0.18822 0.02785 0.0
H545 H 0.19851 0.05384 0.01216 0.0
H546 H 0.22941 0.09307 0.98204 0.0
H547 H 0.24952 0.16481 0.95989 0.0
H548 H 0.22773 0.2947 0.97577 0.0
H549 H 0.20212 0.25769 0.00612 0.0
C550 C 0.19313 0.16693 0.01783 0.0
C551 C 0.18811 0.11772 0.02218 0.0
C552 C 0.20997 0.1892 0.00061 0.0
C553 C 0.20169 0.09161 0.00912 0.0
C554 C 0.21936 0.11404 0.99191 0.0
C555 C 0.23972 0.18517 0.97013 0.0
C556 C 0.2419 0.23313 0.96568 0.0
C557 C 0.22338 0.16275 0.98748 0.0
C558 C 0.22777 0.25852 0.97888 0.0
C559 C 0.21271 0.23717 0.99624 0.0
H560 H 0.12564 0.31986 0.37003 0.0
H561 H 0.10253 0.1983 0.32983 0.0
H562 H 0.16721 0.26887 0.31031 0.0
H563 H 0.2284 0.36527 0.30422 0.0
H564 H 0.25372 0.48633 0.34491 0.0
H565 H 0.18981 0.41575 0.36463 0.0
C566 C 0.13476 0.30866 0.35702 0.0
C567 C 0.10888 0.25374 0.35138 0.0
C568 C 0.17202 0.3494 0.34587 0.0
C569 C 0.12179 0.24016 0.33455 0.0
C570 C 0.15864 0.28051 0.32333 0.0
C571 C 0.21959 0.37603 0.31738 0.0
C572 C 0.24449 0.43085 0.32286 0.0
C573 C 0.18354 0.33523 0.32877 0.0
C574 C 0.23406 0.44446 0.34016 0.0
C575 C 0.19774 0.40411 0.35148 0.0
loop_
_geom_bond_atom_site_label_1
_geom_bond_atom_site_label_2
_geom_bond_distance
_geom_bond_site_symmetry_2
_ccdc_geom_bond_type
Mg0 O1 2.028 . S
Mg0 O7 1.986 . S
Mg0 O9 2.114 . S
Mg0 O10 2.251 . S
Mg0 O13 2.010 . S
O1 Mg0 2.028 . S
O1 C4 1.250 . S
O2 Mg3 2.028 . S
O2 C4 1.248 . S
Mg3 O2 2.028 . S
Mg3 O8 2.032 . S
Mg3 O10 2.079 . S
C4 O1 1.250 . S
C4 O2 1.248 . S
C5 O6 1.264 . S
C5 O13 1.249 . S
O6 C5 1.264 . S
O7 Mg0 1.986 . S
O7 C11 1.246 . S
O8 Mg3 2.032 . S
O8 C11 1.259 . S
O9 Mg0 2.114 . S
O9 C12 1.252 . S
O10 Mg0 2.251 . S
O10 Mg3 2.079 . S
O10 C12 1.273 . S
C11 O7 1.246 . S
C11 O8 1.259 . S
C12 O9 1.252 . S
C12 O10 1.273 . S
O13 Mg0 2.010 . S
O13 C5 1.249 . S
Mg14 O15 2.028 1_655 S
Mg14 O21 1.986 1_655 S
Mg14 O23 2.114 1_545 S
Mg14 O24 2.251 . S
Mg14 O27 2.010 1_545 S
O15 Mg14 2.028 1_455 S
O15 C18 1.250 . S
O16 Mg17 2.028 . S
O16 C18 1.248 . S
Mg17 O16 2.028 . S
Mg17 O22 2.032 . S
Mg17 O24 2.079 1_455 S
C18 O15 1.250 . S
C18 O16 1.248 . S
C19 O20 1.264 . S
C19 O27 1.249 . S
O20 C19 1.264 . S
O21 Mg14 1.986 1_455 S
O21 C25 1.246 . S
O22 Mg17 2.032 . S
O22 C25 1.259 . S
O23 Mg14 2.114 1_565 S
O23 C26 1.252 1_565 S
O24 Mg14 2.251 . S
O24 Mg17 2.079 1_655 S
O24 C26 1.273 . S
C25 O21 1.246 . S
C25 O22 1.259 . S
C26 O23 1.252 1_545 S
C26 O24 1.273 . S
O27 Mg14 2.010 1_565 S
O27 C19 1.249 . S
Mg28 O29 2.028 . S
Mg28 O35 1.986 1_455 S
Mg28 O37 2.114 1_545 S
Mg28 O38 2.251 1_455 S
Mg28 O41 2.010 . S
O29 Mg28 2.028 . S
O29 C32 1.250 . S
O30 Mg31 2.028 1_455 S
O30 C32 1.248 . S
Mg31 O30 2.028 1_655 S
Mg31 O36 2.032 . S
Mg31 O38 2.079 . S
C32 O29 1.250 . S
C32 O30 1.248 . S
C33 O34 1.264 1_545 S
C33 O41 1.249 . S
O34 C33 1.264 1_565 S
O35 Mg28 1.986 1_655 S
O35 C39 1.246 . S
O36 Mg31 2.032 . S
O36 C39 1.259 . S
O37 Mg28 2.114 1_565 S
O37 C40 1.252 1_455 S
O38 Mg28 2.251 1_655 S
O38 Mg31 2.079 . S
O38 C40 1.273 1_545 S
C39 O35 1.246 . S
C39 O36 1.259 . S
C40 O37 1.252 1_655 S
C40 O38 1.273 1_565 S
O41 Mg28 2.010 . S
O41 C33 1.249 . S
C42 C43 1.560 1_655 S
C42 H103 0.959 . S
C42 H104 0.959 . S
C42 H105 0.960 . S
C43 C42 1.560 1_455 S
C43 O98 1.426 1_455 S
C43 H102 0.980 . S
C44 C45 1.407 1_655 S
C44 C49 1.418 . S
C44 O98 1.334 . S
C45 C44 1.407 1_455 S
C45 C46 1.360 . S
C45 H106 0.929 . S
C46 C45 1.360 . S
C46 C47 1.401 . S
C46 C50 1.527 . S
C47 C46 1.401 . S
C47 C48 1.405 1_455 S
C47 C80 1.587 . S
C48 C47 1.405 1_655 S
C48 C49 1.332 . S
C48 C51 1.496 . S
C49 C44 1.418 . S
C49 C48 1.332 . S
C49 H107 0.929 . S
C50 C46 1.527 . S
C50 H108 0.959 . S
C50 H109 0.961 . S
C50 H110 0.961 . S
C51 C48 1.496 . S
C51 H111 0.960 . S
C51 H112 0.960 . S
C51 H113 0.961 . S
C52 C53 1.517 . S
C52 H115 0.961 . S
C52 H116 0.960 . S
C52 H117 0.959 . S
C53 C52 1.517 . S
C53 O101 1.468 . S
C53 H114 0.980 . S
C54 C55 1.349 . S
C54 C59 1.367 . S
C54 O101 1.408 . S
C55 C54 1.349 . S
C55 C56 1.407 . S
C55 H118 0.930 . S
C56 C55 1.407 . S
C56 C57 1.449 . S
C56 C60 1.535 1_455 S
C57 C56 1.449 . S
C57 C58 1.384 . S
C57 C82 1.553 . S
C58 C57 1.384 . S
C58 C59 1.364 . S
C58 C61 1.450 . S
C59 C54 1.367 . S
C59 C58 1.364 . S
C59 H119 0.931 . S
C60 C56 1.535 1_655 S
C60 H120 0.959 . S
C60 H121 0.961 . S
C60 H122 0.959 . S
C61 C58 1.450 . S
C61 H123 0.960 . S
C61 H124 0.960 . S
C61 H125 0.960 . S
C62 C63 1.309 . S
C62 C67 1.304 . S
C62 O100 1.435 . S
C63 C62 1.309 . S
C63 C64 1.476 . S
C63 H127 0.930 . S
C64 C63 1.476 . S
C64 C65 1.400 . S
C64 C68 1.567 1_455 S
C65 C64 1.400 . S
C65 C66 1.373 . S
C65 C87 1.432 . S
C66 C65 1.373 . S
C66 C67 1.339 . S
C66 C69 1.530 . S
C67 C62 1.304 . S
C67 C66 1.339 . S
C67 H128 0.930 . S
C68 C64 1.567 1_655 S
C68 H129 0.961 . S
C68 H130 0.960 . S
C68 H131 0.958 . S
C69 C66 1.530 . S
C69 H132 0.961 . S
C69 H133 0.960 . S
C69 H134 0.960 . S
C70 C71 1.530 . S
C70 H136 0.961 . S
C70 H137 0.961 1_455 S
C70 H138 0.959 1_455 S
C71 C70 1.530 . S
C71 O99 1.412 . S
C71 H135 0.980 . S
C72 C73 1.288 1_455 S
C72 C77 1.377 . S
C72 O99 1.393 . S
C73 C72 1.288 1_655 S
C73 C74 1.369 . S
C73 H139 0.932 . S
C74 C73 1.369 . S
C74 C75 1.398 1_655 S
C74 C78 1.527 . S
C75 C74 1.398 1_455 S
C75 C76 1.380 . S
C75 C89 1.497 . S
C76 C75 1.380 . S
C76 C77 1.383 . S
C76 C79 1.603 . S
C77 C72 1.377 . S
C77 C76 1.383 . S
C77 H140 0.929 . S
C78 C74 1.527 . S
C78 H141 0.961 . S
C78 H142 0.959 . S
C78 H143 0.959 . S
C79 C76 1.603 . S
C79 H144 0.960 . S
C79 H145 0.962 . S
C79 H146 0.961 . S
C80 C47 1.587 . S
C80 C81 1.360 . S
C80 C93 1.412 . S
C81 C80 1.360 . S
C81 C82 1.365 . S
C81 H147 0.929 . S
C82 C57 1.553 . S
C82 C81 1.365 . S
C82 C83 1.404 . S
C83 C82 1.404 . S
C83 C84 1.395 . S
C83 C94 1.451 . S
C84 C83 1.395 . S
C84 C85 1.322 . S
C84 H148 0.930 . S
C85 C84 1.322 . S
C85 C86 1.459 . S
C85 H149 0.929 . S
C86 C85 1.459 . S
C86 C87 1.445 . S
C86 C95 1.395 . S
C87 C65 1.432 . S
C87 C86 1.445 . S
C87 C88 1.370 . S
C88 C87 1.370 . S
C88 C89 1.438 . S
C88 H150 0.930 . S
C89 C75 1.497 . S
C89 C88 1.438 . S
C89 C90 1.360 . S
C90 C89 1.360 . S
C90 C91 1.401 . S
C90 C95 1.446 . S
C91 C90 1.401 . S
C91 C92 1.347 . S
C91 H151 0.929 . S
C92 C91 1.347 . S
C92 C93 1.455 . S
C92 H152 0.930 . S
C93 C80 1.412 . S
C93 C92 1.455 . S
C93 C94 1.331 . S
C94 C83 1.451 . S
C94 C93 1.331 . S
C94 C95 1.497 . S
C95 C86 1.395 . S
C95 C90 1.446 . S
C95 C94 1.497 . S
C96 C97 1.582 . S
C96 H153 0.962 . S
C96 H154 0.959 . S
C96 H155 0.958 . S
C97 C96 1.582 . S
C97 O100 1.458 . S
C97 H126 0.980 . S
O98 C43 1.426 1_655 S
O98 C44 1.334 . S
O99 C71 1.412 . S
O99 C72 1.393 . S
O100 C62 1.435 . S
O100 C97 1.458 . S
O101 C53 1.468 . S
O101 C54 1.408 . S
H102 C43 0.980 . S
H103 C42 0.959 . S
H104 C42 0.959 . S
H105 C42 0.960 . S
H106 C45 0.929 . S
H107 C49 0.929 . S
H108 C50 0.959 . S
H109 C50 0.961 . S
H110 C50 0.961 . S
H111 C51 0.960 . S
H112 C51 0.960 . S
H113 C51 0.961 . S
H114 C53 0.980 . S
H115 C52 0.961 . S
H116 C52 0.960 . S
H117 C52 0.959 . S
H118 C55 0.930 . S
H119 C59 0.931 . S
H120 C60 0.959 . S
H121 C60 0.961 . S
H122 C60 0.959 . S
H123 C61 0.960 . S
H124 C61 0.960 . S
H125 C61 0.960 . S
H126 C97 0.980 . S
H127 C63 0.930 . S
H128 C67 0.930 . S
H129 C68 0.961 . S
H130 C68 0.960 . S
H131 C68 0.958 . S
H132 C69 0.961 . S
H133 C69 0.960 . S
H134 C69 0.960 . S
H135 C71 0.980 . S
H136 C70 0.961 . S
H137 C70 0.961 1_655 S
H138 C70 0.959 1_655 S
H139 C73 0.932 . S
H140 C77 0.929 . S
H141 C78 0.961 . S
H142 C78 0.959 . S
H143 C78 0.959 . S
H144 C79 0.960 . S
H145 C79 0.962 . S
H146 C79 0.961 . S
H147 C81 0.929 . S
H148 C84 0.930 . S
H149 C85 0.929 . S
H150 C88 0.930 . S
H151 C91 0.929 . S
H152 C92 0.930 . S
H153 C96 0.962 . S
H154 C96 0.959 . S
H155 C96 0.958 . S
C156 C157 1.560 . S
C156 H217 0.959 . S
C156 H218 0.959 1_545 S
C156 H219 0.960 . S
C157 C156 1.560 . S
C157 O212 1.426 . S
C157 H216 0.980 . S
C158 C159 1.407 . S
C158 C163 1.418 . S
C158 O212 1.334 . S
C159 C158 1.407 . S
C159 C160 1.360 . S
C159 H220 0.929 . S
C160 C159 1.360 . S
C160 C161 1.401 . S
C160 C164 1.527 . S
C161 C160 1.401 . S
C161 C162 1.405 . S
C161 C194 1.587 . S
C162 C161 1.405 . S
C162 C163 1.332 . S
C162 C165 1.491 1_545 S
C163 C158 1.418 . S
C163 C162 1.332 . S
C163 H221 0.929 1_545 S
C164 C160 1.527 . S
C164 H222 0.959 . S
C164 H223 0.961 . S
C164 H224 0.961 . S
C165 C162 1.491 1_565 S
C165 H225 0.964 . S
C165 H226 0.962 1_565 S
C165 H227 0.960 1_565 S
C166 C167 1.517 . S
C166 H229 0.961 . S
C166 H230 0.960 . S
C166 H231 0.959 . S
C167 C166 1.517 . S
C167 O215 1.468 . S
C167 H228 0.980 . S
C168 C169 1.349 . S
C168 C173 1.367 . S
C168 O215 1.408 . S
C169 C168 1.349 . S
C169 C170 1.407 . S
C169 H232 0.930 . S
C170 C169 1.407 . S
C170 C171 1.449 . S
C170 C174 1.535 . S
C171 C170 1.449 . S
C171 C172 1.384 . S
C171 C196 1.553 . S
C172 C171 1.384 . S
C172 C173 1.364 . S
C172 C175 1.450 . S
C173 C168 1.367 . S
C173 C172 1.364 . S
C173 H233 0.931 . S
C174 C170 1.535 . S
C174 H234 0.959 . S
C174 H235 0.961 . S
C174 H236 0.959 . S
C175 C172 1.450 . S
C175 H237 0.960 . S
C175 H238 0.960 . S
C175 H239 0.960 . S
C176 C177 1.309 . S
C176 C181 1.304 . S
C176 O214 1.435 . S
C177 C176 1.309 . S
C177 C178 1.476 . S
C177 H241 0.930 . S
C178 C177 1.476 . S
C178 C179 1.400 . S
C178 C182 1.567 . S
C179 C178 1.400 . S
C179 C180 1.373 . S
C179 C201 1.432 . S
C180 C179 1.373 . S
C180 C181 1.339 . S
C180 C183 1.530 . S
C181 C176 1.304 . S
C181 C180 1.339 . S
C181 H242 0.930 . S
C182 C178 1.567 . S
C182 H243 0.961 . S
C182 H244 0.960 . S
C182 H245 0.958 . S
C183 C180 1.530 . S
C183 H246 0.961 . S
C183 H247 0.960 . S
C183 H248 0.960 . S
C184 C185 1.530 . S
C184 H250 0.961 . S
C184 H251 0.961 . S
C184 H252 0.959 . S
C185 C184 1.530 . S
C185 O213 1.412 . S
C185 H249 0.980 . S
C186 C187 1.288 . S
C186 C191 1.377 . S
C186 O213 1.393 . S
C187 C186 1.288 . S
C187 C188 1.369 . S
C187 H253 0.932 1_545 S
C188 C187 1.369 . S
C188 C189 1.398 . S
C188 C192 1.527 1_545 S
C189 C188 1.398 . S
C189 C190 1.380 . S
C189 C203 1.497 . S
C190 C189 1.380 . S
C190 C191 1.383 . S
C190 C193 1.603 . S
C191 C186 1.377 . S
C191 C190 1.383 . S
C191 H254 0.929 . S
C192 C188 1.527 1_565 S
C192 H255 0.961 . S
C192 H256 0.959 . S
C192 H257 0.959 . S
C193 C190 1.603 . S
C193 H258 0.960 . S
C193 H259 0.962 . S
C193 H260 0.961 . S
C194 C161 1.587 . S
C194 C195 1.360 . S
C194 C207 1.412 . S
C195 C194 1.360 . S
C195 C196 1.365 . S
C195 H261 0.929 . S
C196 C171 1.553 . S
C196 C195 1.365 . S
C196 C197 1.404 . S
C197 C196 1.404 . S
C197 C198 1.395 . S
C197 C208 1.451 . S
C198 C197 1.395 . S
C198 C199 1.322 . S
C198 H262 0.930 . S
C199 C198 1.322 . S
C199 C200 1.459 . S
C199 H263 0.929 . S
C200 C199 1.459 . S
C200 C201 1.445 . S
C200 C209 1.395 . S
C201 C179 1.432 . S
C201 C200 1.445 . S
C201 C202 1.370 . S
C202 C201 1.370 . S
C202 C203 1.438 . S
C202 H264 0.930 . S
C203 C189 1.497 . S
C203 C202 1.438 . S
C203 C204 1.360 . S
C204 C203 1.360 . S
C204 C205 1.401 . S
C204 C209 1.446 . S
C205 C204 1.401 . S
C205 C206 1.347 . S
C205 H265 0.929 . S
C206 C205 1.347 . S
C206 C207 1.455 . S
C206 H266 0.930 . S
C207 C194 1.412 . S
C207 C206 1.455 . S
C207 C208 1.331 . S
C208 C197 1.451 . S
C208 C207 1.331 . S
C208 C209 1.497 . S
C209 C200 1.395 . S
C209 C204 1.446 . S
C209 C208 1.497 . S
C210 C211 1.582 . S
C210 H267 0.962 . S
C210 H268 0.959 . S
C210 H269 0.958 . S
C211 C210 1.582 . S
C211 O214 1.458 . S
C211 H240 0.980 . S
O212 C157 1.426 . S
O212 C158 1.334 . S
O213 C185 1.412 . S
O213 C186 1.393 . S
O214 C176 1.435 . S
O214 C211 1.458 . S
O215 C167 1.468 . S
O215 C168 1.408 . S
H216 C157 0.980 . S
H217 C156 0.959 . S
H218 C156 0.959 1_565 S
H219 C156 0.960 . S
H220 C159 0.929 . S
H221 C163 0.929 1_565 S
H222 C164 0.959 . S
H223 C164 0.961 . S
H224 C164 0.961 . S
H225 C165 0.964 . S
H226 C165 0.962 1_545 S
H227 C165 0.960 1_545 S
H228 C167 0.980 . S
H229 C166 0.961 . S
H230 C166 0.960 . S
H231 C166 0.959 . S
H232 C169 0.930 . S
H233 C173 0.931 . S
H234 C174 0.959 . S
H235 C174 0.961 . S
H236 C174 0.959 . S
H237 C175 0.960 . S
H238 C175 0.960 . S
H239 C175 0.960 . S
H240 C211 0.980 . S
H241 C177 0.930 . S
H242 C181 0.930 . S
H243 C182 0.961 . S
H244 C182 0.960 . S
H245 C182 0.958 . S
H246 C183 0.961 . S
H247 C183 0.960 . S
H248 C183 0.960 . S
H249 C185 0.980 . S
H250 C184 0.961 . S
H251 C184 0.961 . S
H252 C184 0.959 . S
H253 C187 0.932 1_565 S
H254 C191 0.929 . S
H255 C192 0.961 . S
H256 C192 0.959 . S
H257 C192 0.959 . S
H258 C193 0.960 . S
H259 C193 0.962 . S
H260 C193 0.961 . S
H261 C195 0.929 . S
H262 C198 0.930 . S
H263 C199 0.929 . S
H264 C202 0.930 . S
H265 C205 0.929 . S
H266 C206 0.930 . S
H267 C210 0.962 . S
H268 C210 0.959 . S
H269 C210 0.958 . S
C270 C271 1.560 . S
C270 H331 0.959 . S
C270 H332 0.959 . S
C270 H333 0.960 . S
C271 C270 1.560 . S
C271 O326 1.426 . S
C271 H330 0.980 . S
C272 C273 1.407 . S
C272 C277 1.418 . S
C272 O326 1.334 . S
C273 C272 1.407 . S
C273 C274 1.360 . S
C273 H334 0.929 . S
C274 C273 1.360 . S
C274 C275 1.401 . S
C274 C278 1.527 . S
C275 C274 1.401 . S
C275 C276 1.405 . S
C275 C308 1.587 . S
C276 C275 1.405 . S
C276 C277 1.332 . S
C276 C279 1.496 . S
C277 C272 1.418 . S
C277 C276 1.332 . S
C277 H335 0.929 . S
C278 C274 1.527 . S
C278 H336 0.959 . S
C278 H337 0.961 . S
C278 H338 0.961 . S
C279 C276 1.496 . S
C279 H339 0.960 . S
C279 H340 0.960 . S
C279 H341 0.961 . S
C280 C281 1.517 . S
C280 H343 0.961 . S
C280 H344 0.960 . S
C280 H345 0.959 . S
C281 C280 1.517 . S
C281 O329 1.468 . S
C281 H342 0.980 . S
C282 C283 1.349 . S
C282 C287 1.367 . S
C282 O329 1.408 . S
C283 C282 1.349 . S
C283 C284 1.407 . S
C283 H346 0.930 . S
C284 C283 1.407 . S
C284 C285 1.449 . S
C284 C288 1.535 . S
C285 C284 1.449 . S
C285 C286 1.384 . S
C285 C310 1.553 . S
C286 C285 1.384 . S
C286 C287 1.364 . S
C286 C289 1.450 . S
C287 C282 1.367 . S
C287 C286 1.364 . S
C287 H347 0.931 . S
C288 C284 1.535 . S
C288 H348 0.959 . S
C288 H349 0.961 . S
C288 H350 0.959 . S
C289 C286 1.450 . S
C289 H351 0.960 . S
C289 H352 0.960 . S
C289 H353 0.960 . S
C290 C291 1.309 . S
C290 C295 1.304 . S
C290 O328 1.435 . S
C291 C290 1.309 . S
C291 C292 1.476 . S
C291 H355 0.930 . S
C292 C291 1.476 . S
C292 C293 1.400 . S
C292 C296 1.567 . S
C293 C292 1.400 . S
C293 C294 1.373 . S
C293 C315 1.432 . S
C294 C293 1.373 . S
C294 C295 1.339 . S
C294 C297 1.530 . S
C295 C290 1.304 . S
C295 C294 1.339 . S
C295 H356 0.930 . S
C296 C292 1.567 . S
C296 H357 0.961 . S
C296 H358 0.960 . S
C296 H359 0.958 . S
C297 C294 1.530 . S
C297 H360 0.961 . S
C297 H361 0.960 . S
C297 H362 0.960 . S
C298 C299 1.530 . S
C298 H364 0.961 . S
C298 H365 0.961 . S
C298 H366 0.959 . S
C299 C298 1.530 . S
C299 O327 1.412 . S
C299 H363 0.980 . S
C300 C301 1.288 . S
C300 C305 1.377 . S
C300 O327 1.393 . S
C301 C300 1.288 . S
C301 C302 1.369 . S
C301 H367 0.932 . S
C302 C301 1.369 . S
C302 C303 1.398 . S
C302 C306 1.527 . S
C303 C302 1.398 . S
C303 C304 1.380 . S
C303 C317 1.497 . S
C304 C303 1.380 . S
C304 C305 1.383 . S
C304 C307 1.603 . S
C305 C300 1.377 . S
C305 C304 1.383 . S
C305 H368 0.929 . S
C306 C302 1.527 . S
C306 H369 0.961 . S
C306 H370 0.959 . S
C306 H371 0.959 . S
C307 C304 1.603 . S
C307 H372 0.960 . S
C307 H373 0.962 . S
C307 H374 0.961 . S
C308 C275 1.587 . S
C308 C309 1.360 . S
C308 C321 1.412 . S
C309 C308 1.360 . S
C309 C310 1.365 . S
C309 H375 0.929 . S
C310 C285 1.553 . S
C310 C309 1.365 . S
C310 C311 1.404 . S
C311 C310 1.404 . S
C311 C312 1.395 . S
C311 C322 1.451 . S
C312 C311 1.395 . S
C312 C313 1.322 . S
C312 H376 0.930 . S
C313 C312 1.322 . S
C313 C314 1.459 . S
C313 H377 0.929 . S
C314 C313 1.459 . S
C314 C315 1.445 . S
C314 C323 1.395 . S
C315 C293 1.432 . S
C315 C314 1.445 . S
C315 C316 1.370 . S
C316 C315 1.370 . S
C316 C317 1.438 . S
C316 H378 0.930 . S
C317 C303 1.497 . S
C317 C316 1.438 . S
C317 C318 1.360 . S
C318 C317 1.360 . S
C318 C319 1.401 . S
C318 C323 1.446 . S
C319 C318 1.401 . S
C319 C320 1.347 . S
C319 H379 0.929 . S
C320 C319 1.347 . S
C320 C321 1.455 . S
C320 H380 0.930 . S
C321 C308 1.412 . S
C321 C320 1.455 . S
C321 C322 1.331 . S
C322 C311 1.451 . S
C322 C321 1.331 . S
C322 C323 1.497 . S
C323 C314 1.395 . S
C323 C318 1.446 . S
C323 C322 1.497 . S
C324 C325 1.582 . S
C324 H381 0.962 . S
C324 H382 0.959 . S
C324 H383 0.958 . S
C325 C324 1.582 . S
C325 O328 1.458 . S
C325 H354 0.980 . S
O326 C271 1.426 . S
O326 C272 1.334 . S
O327 C299 1.412 . S
O327 C300 1.393 . S
O328 C290 1.435 . S
O328 C325 1.458 . S
O329 C281 1.468 . S
O329 C282 1.408 . S
H330 C271 0.980 . S
H331 C270 0.959 . S
H332 C270 0.959 . S
H333 C270 0.960 . S
H334 C273 0.929 . S
H335 C277 0.929 . S
H336 C278 0.959 . S
H337 C278 0.961 . S
H338 C278 0.961 . S
H339 C279 0.960 . S
H340 C279 0.960 . S
H341 C279 0.961 . S
H342 C281 0.980 . S
H343 C280 0.961 . S
H344 C280 0.960 . S
H345 C280 0.959 . S
H346 C283 0.930 . S
H347 C287 0.931 . S
H348 C288 0.959 . S
H349 C288 0.961 . S
H350 C288 0.959 . S
H351 C289 0.960 . S
H352 C289 0.960 . S
H353 C289 0.960 . S
H354 C325 0.980 . S
H355 C291 0.930 . S
H356 C295 0.930 . S
H357 C296 0.961 . S
H358 C296 0.960 . S
H359 C296 0.958 . S
H360 C297 0.961 . S
H361 C297 0.960 . S
H362 C297 0.960 . S
H363 C299 0.980 . S
H364 C298 0.961 . S
H365 C298 0.961 . S
H366 C298 0.959 . S
H367 C301 0.932 . S
H368 C305 0.929 . S
H369 C306 0.961 . S
H370 C306 0.959 . S
H371 C306 0.959 . S
H372 C307 0.960 . S
H373 C307 0.962 . S
H374 C307 0.961 . S
H375 C309 0.929 . S
H376 C312 0.930 . S
H377 C313 0.929 . S
H378 C316 0.930 . S
H379 C319 0.929 . S
H380 C320 0.930 . S
H381 C324 0.962 . S
H382 C324 0.959 . S
H383 C324 0.958 . S
H384 C390 0.930 . S
H385 C393 0.930 . S
H386 C394 0.930 . S
H387 C395 0.930 1_655 S
H388 C398 0.930 . S
H389 C399 0.930 . S
C390 H384 0.930 . S
C390 C391 1.355 . S
C390 C392 1.415 . S
C391 C390 1.355 . S
C391 C393 1.419 1_455 S
C392 C390 1.415 . S
C392 C397 1.425 . S
C392 C399 1.409 . S
C393 H385 0.930 . S
C393 C391 1.419 1_655 S
C393 C394 1.362 . S
C394 H386 0.930 . S
C394 C393 1.362 . S
C394 C397 1.409 1_655 S
C395 H387 0.930 1_455 S
C395 C396 1.355 . S
C395 C397 1.415 . S
C396 C395 1.355 . S
C396 C398 1.419 . S
C397 C392 1.425 . S
C397 C394 1.409 1_455 S
C397 C395 1.415 . S
C398 H388 0.930 . S
C398 C396 1.419 . S
C398 C399 1.362 . S
C399 H389 0.930 . S
C399 C392 1.409 . S
C399 C398 1.362 . S
H400 C406 0.930 . S
H401 C409 0.934 . S
H402 C410 0.930 1_565 S
H403 C411 0.930 . S
H404 C414 0.930 . S
H405 C415 0.930 . S
C406 H400 0.930 . S
C406 C407 1.355 . S
C406 C408 1.415 . S
C407 C406 1.355 . S
C407 C409 1.418 1_545 S
C408 C406 1.415 . S
C408 C413 1.425 . S
C408 C415 1.409 . S
C409 H401 0.934 . S
C409 C407 1.418 1_565 S
C409 C410 1.359 1_565 S
C410 H402 0.930 1_545 S
C410 C409 1.359 1_545 S
C410 C413 1.409 . S
C411 H403 0.930 . S
C411 C412 1.355 . S
C411 C413 1.415 . S
C412 C411 1.355 . S
C412 C414 1.419 . S
C413 C408 1.425 . S
C413 C410 1.409 . S
C413 C411 1.415 . S
C414 H404 0.930 . S
C414 C412 1.419 . S
C414 C415 1.362 . S
C415 H405 0.930 . S
C415 C408 1.409 . S
C415 C414 1.362 . S
H416 C422 0.930 . S
H417 C425 0.930 1_545 S
H418 C426 0.930 . S
H419 C427 0.930 . S
H420 C430 0.930 . S
H421 C431 0.930 . S
C422 H416 0.930 . S
C422 C423 1.355 . S
C422 C424 1.415 . S
C423 C422 1.355 . S
C423 C425 1.419 . S
C424 C422 1.415 . S
C424 C429 1.425 . S
C424 C431 1.409 . S
C425 H417 0.930 1_565 S
C425 C423 1.419 . S
C425 C426 1.362 . S
C426 H418 0.930 . S
C426 C425 1.362 . S
C426 C429 1.409 . S
C427 H419 0.930 . S
C427 C428 1.355 . S
C427 C429 1.415 . S
C428 C427 1.355 . S
C428 C430 1.419 . S
C429 C424 1.425 . S
C429 C426 1.409 . S
C429 C427 1.415 . S
C430 H420 0.930 . S
C430 C428 1.419 . S
C430 C431 1.362 . S
C431 H421 0.930 . S
C431 C424 1.409 . S
C431 C430 1.362 . S
H432 C438 0.930 . S
H433 C441 0.930 . S
H434 C442 0.930 . S
H435 C443 0.930 . S
H436 C446 0.930 . S
H437 C447 0.930 . S
C438 H432 0.930 . S
C438 C439 1.355 . S
C438 C440 1.415 . S
C439 C438 1.355 . S
C439 C441 1.419 . S
C440 C438 1.415 . S
C440 C445 1.425 . S
C440 C447 1.409 . S
C441 H433 0.930 . S
C441 C439 1.419 . S
C441 C442 1.362 . S
C442 H434 0.930 . S
C442 C441 1.362 . S
C442 C445 1.409 . S
C443 H435 0.930 . S
C443 C444 1.355 . S
C443 C445 1.415 . S
C444 C443 1.355 . S
C444 C446 1.419 . S
C445 C440 1.425 . S
C445 C442 1.409 . S
C445 C443 1.415 . S
C446 H436 0.930 . S
C446 C444 1.419 . S
C446 C447 1.362 . S
C447 H437 0.930 . S
C447 C440 1.409 . S
C447 C446 1.362 . S
H448 C454 0.930 . S
H449 C457 0.930 . S
H450 C458 0.930 . S
H451 C459 0.930 . S
H452 C462 0.930 . S
H453 C463 0.930 . S
C454 H448 0.930 . S
C454 C455 1.355 . S
C454 C456 1.415 . S
C455 C454 1.355 . S
C455 C457 1.419 . S
C456 C454 1.415 . S
C456 C461 1.425 . S
C456 C463 1.409 . S
C457 H449 0.930 . S
C457 C455 1.419 . S
C457 C458 1.362 . S
C458 H450 0.930 . S
C458 C457 1.362 . S
C458 C461 1.409 . S
C459 H451 0.930 . S
C459 C460 1.355 . S
C459 C461 1.415 . S
C460 C459 1.355 . S
C460 C462 1.419 . S
C461 C456 1.425 . S
C461 C458 1.409 . S
C461 C459 1.415 . S
C462 H452 0.930 . S
C462 C460 1.419 . S
C462 C463 1.362 . S
C463 H453 0.930 . S
C463 C456 1.409 . S
C463 C462 1.362 . S
H464 C470 0.930 . S
H465 C473 0.930 . S
H466 C474 0.930 . S
H467 C475 0.930 . S
H468 C478 0.930 . S
H469 C479 0.930 . S
C470 H464 0.930 . S
C470 C471 1.355 . S
C470 C472 1.415 . S
C471 C470 1.355 . S
C471 C473 1.419 . S
C472 C470 1.415 . S
C472 C477 1.425 . S
C472 C479 1.409 . S
C473 H465 0.930 . S
C473 C471 1.419 . S
C473 C474 1.362 . S
C474 H466 0.930 . S
C474 C473 1.362 . S
C474 C477 1.409 . S
C475 H467 0.930 . S
C475 C476 1.355 . S
C475 C477 1.415 . S
C476 C475 1.355 . S
C476 C478 1.419 . S
C477 C472 1.425 . S
C477 C474 1.409 . S
C477 C475 1.415 . S
C478 H468 0.930 . S
C478 C476 1.419 . S
C478 C479 1.362 . S
C479 H469 0.930 . S
C479 C472 1.409 . S
C479 C478 1.362 . S
H480 C486 0.930 . S
H481 C489 0.930 . S
H482 C490 0.930 . S
H483 C491 0.930 . S
H484 C494 0.930 . S
H485 C495 0.930 . S
C486 H480 0.930 . S
C486 C487 1.355 . S
C486 C488 1.415 . S
C487 C486 1.355 . S
C487 C489 1.419 . S
C488 C486 1.415 . S
C488 C493 1.425 . S
C488 C495 1.409 . S
C489 H481 0.930 . S
C489 C487 1.419 . S
C489 C490 1.362 . S
C490 H482 0.930 . S
C490 C489 1.362 . S
C490 C493 1.409 . S
C491 H483 0.930 . S
C491 C492 1.355 . S
C491 C493 1.415 . S
C492 C491 1.355 . S
C492 C494 1.419 . S
C493 C488 1.425 . S
C493 C490 1.409 . S
C493 C491 1.415 . S
C494 H484 0.930 . S
C494 C492 1.419 . S
C494 C495 1.362 . S
C495 H485 0.930 . S
C495 C488 1.409 . S
C495 C494 1.362 . S
H496 C502 0.930 . S
H497 C505 0.930 . S
H498 C506 0.930 . S
H499 C507 0.930 . S
H500 C510 0.930 . S
H501 C511 0.930 . S
C502 H496 0.930 . S
C502 C503 1.355 . S
C502 C504 1.415 . S
C503 C502 1.355 . S
C503 C505 1.419 . S
C504 C502 1.415 . S
C504 C509 1.425 . S
C504 C511 1.409 1_554 S
C505 H497 0.930 . S
C505 C503 1.419 . S
C505 C506 1.362 . S
C506 H498 0.930 . S
C506 C505 1.362 . S
C506 C509 1.409 . S
C507 H499 0.930 . S
C507 C508 1.355 1_554 S
C507 C509 1.415 . S
C508 C507 1.355 1_556 S
C508 C510 1.419 . S
C509 C504 1.425 . S
C509 C506 1.409 . S
C509 C507 1.415 . S
C510 H500 0.930 . S
C510 C508 1.419 . S
C510 C511 1.362 . S
C511 H501 0.930 . S
C511 C504 1.409 1_556 S
C511 C510 1.362 . S
H512 C518 0.930 . S
H513 C521 0.930 . S
H514 C522 0.930 . S
H515 C523 0.930 . S
H516 C526 0.930 . S
H517 C527 0.930 . S
C518 H512 0.930 . S
C518 C519 1.355 1_455 S
C518 C520 1.415 . S
C519 C518 1.355 1_655 S
C519 C521 1.419 . S
C520 C518 1.415 . S
C520 C525 1.425 1_455 S
C520 C527 1.409 . S
C521 H513 0.930 . S
C521 C519 1.419 . S
C521 C522 1.362 . S
C522 H514 0.930 . S
C522 C521 1.362 . S
C522 C525 1.409 . S
C523 H515 0.930 . S
C523 C524 1.355 1_655 S
C523 C525 1.415 . S
C524 C523 1.355 1_455 S
C524 C526 1.419 . S
C525 C520 1.425 1_655 S
C525 C522 1.409 . S
C525 C523 1.415 . S
C526 H516 0.930 . S
C526 C524 1.419 . S
C526 C527 1.362 . S
C527 H517 0.930 . S
C527 C520 1.409 . S
C527 C526 1.362 . S
H528 C534 0.930 . S
H529 C537 0.930 1_565 S
H530 C538 0.936 . S
H531 C539 0.930 . S
H532 C542 0.930 . S
H533 C543 0.930 . S
C534 H528 0.930 . S
C534 C535 1.355 . S
C534 C536 1.415 . S
C535 C534 1.355 . S
C535 C537 1.419 . S
C536 C534 1.415 . S
C536 C541 1.425 . S
C536 C543 1.409 . S
C537 H529 0.930 1_545 S
C537 C535 1.419 . S
C537 C538 1.362 . S
C538 H530 0.936 . S
C538 C537 1.362 . S
C538 C541 1.409 . S
C539 H531 0.930 . S
C539 C540 1.355 . S
C539 C541 1.415 . S
C540 C539 1.355 . S
C540 C542 1.419 . S
C541 C536 1.425 . S
C541 C538 1.409 . S
C541 C539 1.415 . S
C542 H532 0.930 . S
C542 C540 1.419 . S
C542 C543 1.362 . S
C543 H533 0.930 . S
C543 C536 1.409 . S
C543 C542 1.362 . S
H544 C550 0.930 . S
H545 C553 0.930 . S
H546 C554 0.930 . S
H547 C555 0.930 1_554 S
H548 C558 0.930 . S
H549 C559 0.930 . S
C550 H544 0.930 . S
C550 C551 1.355 . S
C550 C552 1.415 1_554 S
C551 C550 1.355 . S
C551 C553 1.419 . S
C552 C550 1.415 1_556 S
C552 C557 1.425 1_556 S
C552 C559 1.409 . S
C553 H545 0.930 . S
C553 C551 1.419 . S
C553 C554 1.362 . S
C554 H546 0.930 . S
C554 C553 1.362 . S
C554 C557 1.409 . S
C555 H547 0.930 1_556 S
C555 C556 1.355 . S
C555 C557 1.415 1_556 S
C556 C555 1.355 . S
C556 C558 1.419 . S
C557 C552 1.425 1_554 S
C557 C554 1.409 . S
C557 C555 1.415 1_554 S
C558 H548 0.930 . S
C558 C556 1.419 . S
C558 C559 1.362 . S
C559 H549 0.930 . S
C559 C552 1.409 . S
C559 C558 1.362 . S
H560 C566 0.930 . S
H561 C569 0.930 . S
H562 C570 0.930 . S
H563 C571 0.930 . S
H564 C574 0.930 . S
H565 C575 0.930 . S
C566 H560 0.930 . S
C566 C567 1.355 . S
C566 C568 1.415 . S
C567 C566 1.355 . S
C567 C569 1.419 . S
C568 C566 1.415 . S
C568 C573 1.425 . S
C568 C575 1.409 . S
C569 H561 0.930 . S
C569 C567 1.419 . S
C569 C570 1.362 . S
C570 H562 0.930 . S
C570 C569 1.362 . S
C570 C573 1.409 . S
C571 H563 0.930 . S
C571 C572 1.355 . S
C571 C573 1.415 . S
C572 C571 1.355 . S
C572 C574 1.419 . S
C573 C568 1.425 . S
C573 C570 1.409 . S
C573 C571 1.415 . S
C574 H564 0.930 . S
C574 C572 1.419 . S
C574 C575 1.362 . S
C575 H565 0.930 . S
C575 C568 1.409 . S
C575 C574 1.362 . S
C396 C97 1.039 . S
C391 C11 1.467 . S
C407 C26 1.602 . S
C412 C211 1.168 . S
C423 C40 1.233 . S
C428 C271 0.915 . S
C439 C5 1.194 1_565 S
C444 C71 1.165 . S
C460 C185 1.219 . S
C455 C18 1.453 . S
C471 C32 1.382 . S
C476 C281 0.960 . S
C492 C167 0.889 . S
C487 C39 1.255 . S
C503 C4 1.349 1_665 S
C508 C299 0.986 . S
C524 C43 1.059 . S
C519 C19 1.062 . S
C540 C157 0.835 . S
C535 C33 0.980 . S
C556 C325 1.081 . S
C551 C12 1.481 . S
C567 C25 1.393 . S
C572 C53 0.705 . S
