# Generated by pormake.
# Topology pyr, (3,6)-cn, num edge types: 1
# Building blocks:
#     Node 0, Type 0, BuildingBlock: BETDAH_clean_linker_0, # of connection points: 3
#     Node 1, Type 0, BuildingBlock: BETDAH_clean_linker_0, # of connection points: 3
#     Node 2, Type 0, BuildingBlock: BETDAH_clean_linker_0, # of connection points: 3
#     Node 3, Type 0, BuildingBlock: BETDAH_clean_linker_0, # of connection points: 3
#     Node 4, Type 0, BuildingBlock: BETDAH_clean_linker_0, # of connection points: 3
#     Node 5, Type 0, BuildingBlock: BETDAH_clean_linker_0, # of connection points: 3
#     Node 6, Type 0, BuildingBlock: BETDAH_clean_linker_0, # of connection points: 3
#     Node 7, Type 0, BuildingBlock: BETDAH_clean_linker_0, # of connection points: 3
#     Node 8, Type 1, BuildingBlock: MIDCAF_clean_sbu_0, # of connection points: 6
#     Node 9, Type 1, BuildingBlock: MIDCAF_clean_sbu_0, # of connection points: 6
#     Node 10, Type 1, BuildingBlock: MIDCAF_clean_sbu_0, # of connection points: 6
#     Node 11, Type 1, BuildingBlock: MIDCAF_clean_sbu_0, # of connection points: 6
#     Edge 12, Type (0, 1), BuildingBlock: MIFKUJ_clean_linker_0, # of connection points: 2
#     Edge 13, Type (0, 1), BuildingBlock: MIFKUJ_clean_linker_0, # of connection points: 2
#     Edge 14, Type (0, 1), BuildingBlock: MIFKUJ_clean_linker_0, # of connection points: 2
#     Edge 15, Type (0, 1), BuildingBlock: MIFKUJ_clean_linker_0, # of connection points: 2
#     Edge 16, Type (0, 1), BuildingBlock: MIFKUJ_clean_linker_0, # of connection points: 2
#     Edge 17, Type (0, 1), BuildingBlock: MIFKUJ_clean_linker_0, # of connection points: 2
#     Edge 18, Type (0, 1), BuildingBlock: MIFKUJ_clean_linker_0, # of connection points: 2
#     Edge 19, Type (0, 1), BuildingBlock: MIFKUJ_clean_linker_0, # of connection points: 2
#     Edge 20, Type (0, 1), BuildingBlock: MIFKUJ_clean_linker_0, # of connection points: 2
#     Edge 21, Type (0, 1), BuildingBlock: MIFKUJ_clean_linker_0, # of connection points: 2
#     Edge 22, Type (0, 1), BuildingBlock: MIFKUJ_clean_linker_0, # of connection points: 2
#     Edge 23, Type (0, 1), BuildingBlock: MIFKUJ_clean_linker_0, # of connection points: 2
#     Edge 24, Type (0, 1), BuildingBlock: MIFKUJ_clean_linker_0, # of connection points: 2
#     Edge 25, Type (0, 1), BuildingBlock: MIFKUJ_clean_linker_0, # of connection points: 2
#     Edge 26, Type (0, 1), BuildingBlock: MIFKUJ_clean_linker_0, # of connection points: 2
#     Edge 27, Type (0, 1), BuildingBlock: MIFKUJ_clean_linker_0, # of connection points: 2
#     Edge 28, Type (0, 1), BuildingBlock: MIFKUJ_clean_linker_0, # of connection points: 2
#     Edge 29, Type (0, 1), BuildingBlock: MIFKUJ_clean_linker_0, # of connection points: 2
#     Edge 30, Type (0, 1), BuildingBlock: MIFKUJ_clean_linker_0, # of connection points: 2
#     Edge 31, Type (0, 1), BuildingBlock: MIFKUJ_clean_linker_0, # of connection points: 2
#     Edge 32, Type (0, 1), BuildingBlock: MIFKUJ_clean_linker_0, # of connection points: 2
#     Edge 33, Type (0, 1), BuildingBlock: MIFKUJ_clean_linker_0, # of connection points: 2
#     Edge 34, Type (0, 1), BuildingBlock: MIFKUJ_clean_linker_0, # of connection points: 2
#     Edge 35, Type (0, 1), BuildingBlock: MIFKUJ_clean_linker_0, # of connection points: 2
# Relax obj value: 0.082
# Max RMSD: 0.181
# Mean RMSD: 0.135
data_MOF--net-pyr--node1-MIDCAF_clean_sbu_0--node2-BETDAH_clean_linker_0--edge1-MIFKUJ_clean_linker_0
_symmetry_space_group_name_H-M    P1
_symmetry_Int_Tables_number       1
_symmetry_cell_setting            triclinic
loop_
_symmetry_equiv_pos_as_xyz
'x, y, z'
_cell_length_a     44.911724
_cell_length_b     45.653067
_cell_length_c     47.383689
_cell_angle_alpha  90.392975
_cell_angle_beta   90.879845
_cell_angle_gamma 96.965393
loop_
_atom_site_label
_atom_site_type_symbol
_atom_site_fract_x
_atom_site_fract_y
_atom_site_fract_z
_atom_type_partial_charge
H0 H 0.26229 0.20916 0.27809 0.0
H1 H 0.27776 0.25323 0.19898 0.0
H2 H 0.2036 0.27169 0.24984 0.0
C3 C 0.2564 0.22519 0.26282 0.0
C4 C 0.23111 0.24008 0.26714 0.0
C5 C 0.27298 0.22945 0.23806 0.0
C6 C 0.26488 0.24965 0.2181 0.0
C7 C 0.24037 0.26532 0.22224 0.0
C8 C 0.22303 0.26019 0.24667 0.0
N9 N 0.2343 0.28564 0.20093 0.0
C10 C 0.21104 0.30316 0.19981 0.0
H11 H 0.36476 0.80327 0.79138 0.0
H12 H 0.32902 0.88541 0.77549 0.0
H13 H 0.33028 0.82179 0.70902 0.0
C14 C 0.35389 0.81755 0.77743 0.0
C15 C 0.34786 0.8088 0.74917 0.0
C16 C 0.34731 0.84526 0.78734 0.0
C17 C 0.33323 0.86357 0.76878 0.0
C18 C 0.32698 0.8549 0.74064 0.0
C19 C 0.33453 0.82781 0.73101 0.0
N20 N 0.31797 0.87506 0.72058 0.0
C21 C 0.29037 0.88592 0.7206 0.0
H22 H 0.76058 0.30224 0.88597 0.0
H23 H 0.75986 0.33714 0.8017 0.0
H24 H 0.71054 0.25288 0.81952 0.0
C25 C 0.75284 0.30036 0.86417 0.0
C26 C 0.73414 0.27501 0.8552 0.0
C27 C 0.76273 0.32264 0.84492 0.0
C28 C 0.75258 0.32 0.81666 0.0
C29 C 0.73354 0.29485 0.80762 0.0
C30 C 0.72512 0.27223 0.82673 0.0
N31 N 0.72315 0.29122 0.77927 0.0
C32 C 0.71365 0.31389 0.76334 0.0
H33 H 0.76506 0.76581 0.37387 0.0
H34 H 0.82375 0.76198 0.30339 0.0
H35 H 0.74709 0.69696 0.31098 0.0
C36 C 0.77062 0.75524 0.35444 0.0
C37 C 0.75246 0.72983 0.34442 0.0
C38 C 0.79656 0.76671 0.33998 0.0
C39 C 0.80389 0.75316 0.31467 0.0
C40 C 0.78541 0.72838 0.30396 0.0
C41 C 0.76018 0.71683 0.31901 0.0
N42 N 0.79136 0.714 0.27837 0.0
C43 C 0.81616 0.72108 0.26145 0.0
H44 H 0.9596 0.88839 0.87064 0.0
H45 H 0.88343 0.89957 0.92259 0.0
H46 H 0.90107 0.95284 0.84906 0.0
C47 C 0.94019 0.8995 0.87522 0.0
C48 C 0.93286 0.92198 0.85727 0.0
C49 C 0.92257 0.89122 0.89896 0.0
C50 C 0.89716 0.90572 0.90448 0.0
C51 C 0.88968 0.92817 0.8864 0.0
C52 C 0.90745 0.93588 0.86305 0.0
N53 N 0.86423 0.9434 0.89007 0.0
C54 C 0.84603 0.94306 0.91355 0.0
H55 H 0.67527 0.12289 0.38988 0.0
H56 H 0.68806 0.15123 0.47633 0.0
H57 H 0.61499 0.17826 0.42752 0.0
C58 C 0.66848 0.13526 0.40779 0.0
C59 C 0.64309 0.15053 0.40547 0.0
C60 C 0.68511 0.13574 0.43313 0.0
C61 C 0.67584 0.15122 0.45641 0.0
C62 C 0.65101 0.16683 0.4545 0.0
C63 C 0.63453 0.16654 0.42897 0.0
N64 N 0.64271 0.18133 0.47921 0.0
C65 C 0.62899 0.20701 0.47972 0.0
H66 H 0.37695 0.65864 0.1236 0.0
H67 H 0.40744 0.59204 0.17707 0.0
H68 H 0.46538 0.67209 0.16107 0.0
C69 C 0.39442 0.65081 0.13656 0.0
C70 C 0.42157 0.66891 0.14105 0.0
C71 C 0.3891 0.62307 0.1494 0.0
C72 C 0.4112 0.6135 0.16724 0.0
C73 C 0.43888 0.63118 0.1711 0.0
C74 C 0.44396 0.65865 0.15794 0.0
N75 N 0.46264 0.62095 0.1866 0.0
C76 C 0.4607 0.61471 0.21516 0.0
H77 H 0.15993 0.41431 0.60454 0.0
H78 H 0.11338 0.46821 0.65953 0.0
H79 H 0.06476 0.39409 0.61617 0.0
C80 C 0.13935 0.41893 0.61436 0.0
C81 C 0.11238 0.40098 0.60797 0.0
C82 C 0.1399 0.44331 0.63279 0.0
C83 C 0.1131 0.44957 0.6452 0.0
C84 C 0.08598 0.43173 0.639 0.0
C85 C 0.08577 0.40792 0.62024 0.0
N86 N 0.05841 0.4371 0.65107 0.0
C87 C 0.05608 0.45021 0.67736 0.0
Zn88 Zn 0.99284 0.07232 0.55183 0.0
Zn89 Zn 0.06524 0.00886 0.4952 0.0
Zn90 Zn 0.02683 0.04033 0.5226 0.0
C91 C 0.0776 0.06802 0.47875 0.0
C92 C 0.00502 0.98703 0.47927 0.0
O93 O 0.02904 0.02873 0.56838 0.0
O94 O 0.00248 0.05945 0.5903 0.0
C95 C 0.03296 0.11225 0.5235 0.0
O96 O 0.05822 0.07113 0.49799 0.0
O97 O 0.08403 0.0427 0.47217 0.0
O98 O 0.03181 0.98123 0.47811 0.0
O99 O 0.99874 0.0096 0.49356 0.0
O100 O 0.01033 0.11182 0.53902 0.0
O101 O 0.04245 0.08792 0.51577 0.0
O102 O 0.98027 0.02968 0.5058 0.0
O103 O 0.95436 0.0554 0.5343 0.0
C104 C 0.95517 0.03789 0.5137 0.0
O105 O 0.05122 0.01582 0.55398 0.0
O106 O 0.0859 0.9961 0.52993 0.0
C107 C 0.01838 0.03849 0.59129 0.0
C108 C 0.07393 1.00107 0.55315 0.0
Zn109 Zn 0.49677 0.06515 0.04398 0.0
Zn110 Zn 0.55297 0.00231 0.10554 0.0
Zn111 Zn 0.5261 0.03192 0.07462 0.0
C112 C 0.59025 0.01286 0.06162 0.0
C113 C 0.5013 0.96719 0.09178 0.0
O114 O 0.50378 0.06204 0.10328 0.0
O115 O 0.47265 0.08078 0.07378 0.0
C116 C 0.55764 0.07975 0.03231 0.0
O117 O 0.57301 0.03335 0.05901 0.0
O118 O 0.58389 0.99238 0.07902 0.0
O119 O 0.51902 0.97151 0.11273 0.0
O120 O 0.50266 0.9863 0.07179 0.0
O121 O 0.53297 0.09027 0.03007 0.0
O122 O 0.55937 0.05606 0.04655 0.0
O123 O 0.49352 0.00199 0.04842 0.0
O124 O 0.47615 0.03362 0.01901 0.0
C125 C 0.47758 0.00737 0.02658 0.0
O126 O 0.5254 0.04953 0.11883 0.0
O127 O 0.56518 0.03129 0.13603 0.0
C128 C 0.48201 0.07757 0.09866 0.0
C129 C 0.54529 0.04833 0.13862 0.0
Zn130 Zn 0.54287 0.57283 0.59589 0.0
Zn131 Zn 0.45881 0.49694 0.54518 0.0
Zn132 Zn 0.50068 0.53544 0.56934 0.0
C133 C 0.50296 0.46427 0.56336 0.0
C134 C 0.48155 0.53701 0.50372 0.0
O135 O 0.47812 0.56133 0.60079 0.0
O136 O 0.51457 0.59384 0.61808 0.0
C137 C 0.55593 0.51537 0.60701 0.0
O138 O 0.5143 0.49011 0.57221 0.0
O139 O 0.47773 0.46082 0.55093 0.0
O140 O 0.46195 0.5151 0.50717 0.0
O141 O 0.49859 0.54745 0.52446 0.0
O142 O 0.56493 0.54192 0.61342 0.0
O143 O 0.53291 0.50912 0.59047 0.0
O144 O 0.52353 0.56473 0.53676 0.0
O145 O 0.55902 0.5923 0.56114 0.0
C146 C 0.54622 0.58497 0.53779 0.0
O147 O 0.4567 0.53961 0.5895 0.0
O148 O 0.42544 0.50368 0.56985 0.0
C149 C 0.48714 0.58374 0.61678 0.0
C150 C 0.43047 0.52467 0.58739 0.0
Zn151 Zn 0.06908 0.59703 0.99525 0.0
Zn152 Zn 0.99179 0.53409 0.05904 0.0
Zn153 Zn 0.02823 0.56475 0.02406 0.0
C154 C 0.04717 0.51766 0.07154 0.0
C155 C 0.97411 0.51768 0.00271 0.0
O156 O 0.01775 0.61161 0.0244 0.0
O157 O 0.05344 0.63559 0.9987 0.0
C158 C 0.10104 0.57181 0.03587 0.0
O159 O 0.05404 0.53859 0.0537 0.0
O160 O 0.02011 0.50958 0.07727 0.0
O161 O 0.96479 0.51652 0.02778 0.0
O162 O 0.9991 0.53329 0.99689 0.0
O163 O 0.10552 0.59036 0.01634 0.0
O164 O 0.07415 0.5599 0.04111 0.0
O165 O 0.02167 0.54863 0.97989 0.0
O166 O 0.06067 0.57422 0.95983 0.0
C167 C 0.03807 0.55492 0.95816 0.0
O168 O 0.00273 0.59625 0.04678 0.0
O169 O 0.98129 0.56855 0.08078 0.0
C170 C 0.02969 0.63557 0.01259 0.0
C171 C 0.98746 0.59352 0.06964 0.0
H172 H 0.249 0.24363 0.3224 0.0
H173 H 0.2207 0.2238 0.36323 0.0
H174 H 0.1437 0.19793 0.30909 0.0
H175 H 0.17163 0.21912 0.26848 0.0
H176 H 0.12486 0.21272 0.35842 0.0
H177 H 0.19628 0.14974 0.32717 0.0
H178 H 0.24644 0.13745 0.31463 0.0
H179 H 0.27869 0.15935 0.39886 0.0
H180 H 0.22879 0.17221 0.41177 0.0
H181 H 0.05874 0.08285 0.42718 0.0
H182 H 0.08268 0.12101 0.39599 0.0
H183 H 0.14908 0.14777 0.46088 0.0
H184 H 0.12513 0.10918 0.49202 0.0
H185 H 0.17419 0.13758 0.41068 0.0
H186 H 0.09457 0.18917 0.44232 0.0
H187 H 0.04285 0.19893 0.45116 0.0
H188 H 0.02229 0.19244 0.36249 0.0
H189 H 0.07392 0.18265 0.35289 0.0
C190 C 0.2258 0.23432 0.31941 0.0
C191 C 0.2125 0.23276 0.29233 0.0
C192 C 0.20968 0.22279 0.3427 0.0
C193 C 0.18026 0.20858 0.33922 0.0
C194 C 0.16637 0.20864 0.3124 0.0
C195 C 0.18232 0.22074 0.28918 0.0
C196 C 0.16494 0.19156 0.36281 0.0
C197 C 0.13551 0.1961 0.3697 0.0
C198 C 0.17899 0.17019 0.37797 0.0
C199 C 0.20893 0.16224 0.37034 0.0
C200 C 0.21413 0.15211 0.34296 0.0
C201 C 0.2425 0.14504 0.33579 0.0
C202 C 0.26576 0.1477 0.35592 0.0
C203 C 0.26066 0.15736 0.38328 0.0
C204 C 0.23235 0.16454 0.39054 0.0
C205 C 0.07811 0.09732 0.43489 0.0
C206 C 0.09004 0.09344 0.46194 0.0
C207 C 0.09171 0.11915 0.41714 0.0
C208 C 0.11755 0.13749 0.42614 0.0
C209 C 0.12909 0.13401 0.45354 0.0
C210 C 0.11539 0.11213 0.47133 0.0
C211 C 0.13386 0.15833 0.40602 0.0
C212 C 0.16356 0.15444 0.39971 0.0
C213 C 0.11964 0.17964 0.39095 0.0
C214 C 0.08835 0.1852 0.39684 0.0
C215 C 0.07911 0.18972 0.42463 0.0
C216 C 0.04975 0.19527 0.42982 0.0
C217 C 0.0293 0.19624 0.40746 0.0
C218 C 0.03818 0.19173 0.37981 0.0
C219 C 0.06754 0.18629 0.37447 0.0
H220 H 0.00657 0.20052 0.41155 0.0
H221 H 0.2877 0.14221 0.35033 0.0
H222 H 0.40071 0.83922 0.81426 0.0
H223 H 0.41973 0.86103 0.85914 0.0
H224 H 0.33734 0.89917 0.87001 0.0
H225 H 0.31799 0.87717 0.82511 0.0
H226 H 0.38465 0.93952 0.878 0.0
H227 H 0.35575 0.84136 0.91081 0.0
H228 H 0.3541 0.7872 0.91149 0.0
H229 H 0.44941 0.79556 0.92573 0.0
H230 H 0.45173 0.84979 0.92466 0.0
H231 H 0.41861 0.99984 0.01232 0.0
H232 H 0.39382 0.96665 0.97597 0.0
H233 H 0.47661 0.92982 0.96276 0.0
H234 H 0.50131 0.96285 0.99959 0.0
H235 H 0.42805 0.88741 0.95737 0.0
H236 H 0.458 0.98411 0.92098 0.0
H237 H 0.46108 0.03839 0.91994 0.0
H238 H 0.36519 0.03244 0.91152 0.0
H239 H 0.36152 0.97809 0.91292 0.0
C240 C 0.38627 0.85163 0.82647 0.0
C241 C 0.35772 0.85633 0.81601 0.0
C242 C 0.39726 0.86418 0.85218 0.0
C243 C 0.37992 0.8816 0.86816 0.0
C244 C 0.35117 0.88584 0.85808 0.0
C245 C 0.34016 0.8733 0.83235 0.0
C246 C 0.39259 0.89715 0.89424 0.0
C247 C 0.3936 0.92798 0.89555 0.0
C248 C 0.40526 0.88231 0.91682 0.0
C249 C 0.40394 0.84968 0.91734 0.0
C250 C 0.37641 0.83167 0.9138 0.0
C251 C 0.37534 0.80094 0.91431 0.0
C252 C 0.40165 0.78795 0.91856 0.0
C253 C 0.42906 0.80566 0.92238 0.0
C254 C 0.43026 0.83639 0.92183 0.0
C255 C 0.43124 0.98408 1.00215 0.0
C256 C 0.46168 0.98351 0.00895 0.0
C257 C 0.41715 0.96527 0.98128 0.0
C258 C 0.43346 0.94604 0.96629 0.0
C259 C 0.46356 0.94443 0.97403 0.0
C260 C 0.47764 0.96321 0.99507 0.0
C261 C 0.41978 0.92961 0.94109 0.0
C262 C 0.41881 0.89877 0.93987 0.0
C263 C 0.40731 0.94439 0.91841 0.0
C264 C 0.40947 0.97706 0.91735 0.0
C265 C 0.43756 0.99439 0.91911 0.0
C266 C 0.43941 0.02516 0.91843 0.0
C267 C 0.41334 0.03886 0.91574 0.0
C268 C 0.38536 0.0218 0.91365 0.0
C269 C 0.38338 0.99101 0.91437 0.0
H270 H 0.41482 0.06269 0.91521 0.0
H271 H 0.40077 0.76416 0.91898 0.0
H272 H 0.69956 0.36781 0.77808 0.0
H273 H 0.67276 0.40056 0.74858 0.0
H274 H 0.66991 0.33787 0.67966 0.0
H275 H 0.69708 0.30552 0.70902 0.0
H276 H 0.68251 0.39216 0.66053 0.0
H277 H 0.60859 0.34228 0.72123 0.0
H278 H 0.58694 0.32589 0.76682 0.0
H279 H 0.58627 0.41609 0.79281 0.0
H280 H 0.60829 0.43303 0.7475 0.0
H281 H 0.53328 0.4591 0.6215 0.0
H282 H 0.56044 0.42151 0.64356 0.0
H283 H 0.64219 0.4818 0.64284 0.0
H284 H 0.61535 0.51901 0.62021 0.0
H285 H 0.5877 0.4247 0.69429 0.0
H286 H 0.7021 0.44423 0.63852 0.0
H287 H 0.72286 0.4557 0.59142 0.0
H288 H 0.63954 0.41938 0.55252 0.0
H289 H 0.61799 0.4081 0.59946 0.0
C290 C 0.69346 0.36136 0.7565 0.0
C291 C 0.70032 0.33443 0.74557 0.0
C292 C 0.678 0.37988 0.73976 0.0
C293 C 0.66895 0.3715 0.712 0.0
C294 C 0.67662 0.34482 0.70097 0.0
C295 C 0.69211 0.32638 0.71769 0.0
C296 C 0.6511 0.3902 0.69453 0.0
C297 C 0.6618 0.39932 0.66793 0.0
C298 C 0.62372 0.39904 0.70388 0.0
C299 C 0.61033 0.38891 0.73108 0.0
C300 C 0.60402 0.35862 0.73675 0.0
C301 C 0.59165 0.34923 0.76253 0.0
C302 C 0.5853 0.36994 0.78273 0.0
C303 C 0.59123 0.40008 0.77716 0.0
C304 C 0.60363 0.40958 0.75142 0.0
C305 C 0.55718 0.46401 0.62541 0.0
C306 C 0.57227 0.49183 0.6188 0.0
C307 C 0.57263 0.44264 0.63824 0.0
C308 C 0.60344 0.44871 0.64463 0.0
C309 C 0.61857 0.47638 0.6377 0.0
C310 C 0.60314 0.49772 0.62497 0.0
C311 C 0.61939 0.42712 0.66046 0.0
C312 C 0.60837 0.41751 0.68683 0.0
C313 C 0.64628 0.41754 0.65073 0.0
C314 C 0.6584 0.42549 0.6225 0.0
C315 C 0.68813 0.43883 0.61992 0.0
C316 C 0.69998 0.44538 0.59327 0.0
C317 C 0.6824 0.43845 0.56903 0.0
C318 C 0.65289 0.42507 0.57138 0.0
C319 C 0.64082 0.4187 0.59799 0.0
H320 H 0.69167 0.44333 0.5484 0.0
H321 H 0.57573 0.36262 0.80267 0.0
H322 H 0.87145 0.70474 0.26811 0.0
H323 H 0.90666 0.6978 0.2303 0.0
H324 H 0.84776 0.73352 0.17023 0.0
H325 H 0.81243 0.74009 0.20812 0.0
H326 H 0.85982 0.68092 0.15388 0.0
H327 H 0.91853 0.76911 0.18449 0.0
H328 H 0.94536 0.80469 0.21822 0.0
H329 H 0.00485 0.74143 0.24067 0.0
H330 H 0.9781 0.70528 0.20739 0.0
H331 H 0.95275 0.63393 0.04896 0.0
H332 H 0.93022 0.67129 0.07616 0.0
H333 H 0.975 0.64522 0.15152 0.0
H334 H 0.99855 0.60913 0.124 0.0
H335 H 0.97067 0.70343 0.15343 0.0
H336 H 0.90451 0.61306 0.13238 0.0
H337 H 0.87732 0.57585 0.10032 0.0
H338 H 0.83157 0.64292 0.06164 0.0
H339 H 0.85879 0.68058 0.09328 0.0
C340 C 0.86662 0.71197 0.24697 0.0
C341 C 0.83958 0.72313 0.24084 0.0
C342 C 0.88672 0.70808 0.22538 0.0
C343 C 0.87998 0.71531 0.19738 0.0
C344 C 0.85351 0.7279 0.19164 0.0
C345 C 0.83344 0.73178 0.21325 0.0
C346 C 0.89834 0.70592 0.17387 0.0
C347 C 0.88398 0.68657 0.15336 0.0
C348 C 0.92993 0.71272 0.17345 0.0
C349 C 0.94616 0.7344 0.19352 0.0
C350 C 0.93719 0.76268 0.19677 0.0
C351 C 0.95241 0.78298 0.21579 0.0
C352 C 0.97677 0.77531 0.23161 0.0
C353 C 0.98598 0.74734 0.2284 0.0
C354 C 0.97081 0.72695 0.20942 0.0
C355 C 0.95898 0.63739 0.07094 0.0
C356 C 0.97785 0.61925 0.08427 0.0
C357 C 0.94571 0.65833 0.08663 0.0
C358 C 0.95066 0.66086 0.11599 0.0
C359 C 0.97092 0.64382 0.12893 0.0
C360 C 0.98424 0.6231 0.11324 0.0
C361 C 0.93212 0.67806 0.13401 0.0
C362 C 0.94642 0.69863 0.15354 0.0
C363 C 0.90043 0.67227 0.13376 0.0
C364 C 0.88391 0.64964 0.11492 0.0
C365 C 0.88878 0.61987 0.11691 0.0
C366 C 0.87336 0.59871 0.09884 0.0
C367 C 0.8528 0.60703 0.07889 0.0
C368 C 0.84755 0.63652 0.07705 0.0
C369 C 0.86296 0.65778 0.09504 0.0
H370 H 0.84088 0.59062 0.06492 0.0
H371 H 0.98853 0.79106 0.24632 0.0
H372 H 0.27688 0.19325 0.19311 0.0
H373 H 0.31822 0.16529 0.18109 0.0
H374 H 0.3666 0.19832 0.25631 0.0
H375 H 0.32461 0.22587 0.26887 0.0
H376 H 0.399 0.20335 0.19972 0.0
H377 H 0.34579 0.13394 0.26128 0.0
H378 H 0.30076 0.10492 0.28028 0.0
H379 H 0.2835 0.06114 0.20016 0.0
H380 H 0.32812 0.09029 0.18051 0.0
H381 H 0.50452 0.1099 0.14548 0.0
H382 H 0.47524 0.13358 0.18083 0.0
H383 H 0.3934 0.09829 0.13734 0.0
H384 H 0.42227 0.07419 0.10309 0.0
H385 H 0.38529 0.09417 0.19162 0.0
H386 H 0.43058 0.16881 0.12771 0.0
H387 H 0.47147 0.20102 0.10542 0.0
H388 H 0.50042 0.2374 0.18649 0.0
H389 H 0.46021 0.20474 0.20937 0.0
C390 C 0.29625 0.19437 0.20717 0.0
C391 C 0.29765 0.21166 0.23188 0.0
C392 C 0.31979 0.1784 0.20033 0.0
C393 C 0.34542 0.17974 0.21782 0.0
C394 C 0.34697 0.197 0.24257 0.0
C395 C 0.32302 0.21257 0.24977 0.0
C396 C 0.37056 0.16346 0.20936 0.0
C397 C 0.39653 0.17943 0.19863 0.0
C398 C 0.36694 0.13234 0.20758 0.0
C399 C 0.34025 0.11444 0.21938 0.0
C400 C 0.33228 0.11829 0.24764 0.0
C401 C 0.30683 0.10179 0.25854 0.0
C402 C 0.28927 0.08122 0.24143 0.0
C403 C 0.29714 0.07707 0.21339 0.0
C404 C 0.32253 0.09356 0.20237 0.0
C405 C 0.48026 0.10657 0.14414 0.0
C406 C 0.46559 0.08986 0.12188 0.0
C407 C 0.46356 0.12039 0.16407 0.0
C408 C 0.43202 0.11784 0.16175 0.0
C409 C 0.4176 0.1005 0.13982 0.0
C410 C 0.43415 0.08682 0.12013 0.0
C411 C 0.41342 0.13405 0.1808 0.0
C412 C 0.38847 0.11805 0.1935 0.0
C413 C 0.41783 0.16521 0.184 0.0
C414 C 0.44273 0.18392 0.17032 0.0
C415 C 0.44597 0.18331 0.14085 0.0
C416 C 0.46898 0.20171 0.12809 0.0
C417 C 0.48858 0.2212 0.14453 0.0
C418 C 0.48522 0.22229 0.17378 0.0
C419 C 0.46245 0.20371 0.18666 0.0
H420 H 0.50634 0.23547 0.13462 0.0
H421 H 0.26957 0.06847 0.2499 0.0
H422 H 0.23514 0.8557 0.7141 0.0
H423 H 0.1905 0.87493 0.69445 0.0
H424 H 0.23967 0.96212 0.69144 0.0
H425 H 0.28402 0.94291 0.71153 0.0
H426 H 0.18144 0.96508 0.70462 0.0
H427 H 0.23538 0.91653 0.63414 0.0
H428 H 0.25806 0.8748 0.61367 0.0
H429 H 0.17224 0.82182 0.61288 0.0
H430 H 0.14913 0.86316 0.63371 0.0
H431 H 0.11502 0.03176 0.58789 0.0
H432 H 0.14454 0.01175 0.62542 0.0
H433 H 0.09224 0.92652 0.61426 0.0
H434 H 0.06379 0.94642 0.57575 0.0
H435 H 0.1473 0.91963 0.61254 0.0
H436 H 0.09208 0.9713 0.67848 0.0
H437 H 0.07064 0.01345 0.69977 0.0
H438 H 0.1585 0.06154 0.708 0.0
H439 H 0.1806 0.01967 0.68712 0.0
C440 C 0.23601 0.8791 0.70997 0.0
C441 C 0.26272 0.89796 0.71439 0.0
C442 C 0.21063 0.89004 0.69858 0.0
C443 C 0.21183 0.91993 0.69105 0.0
C444 C 0.23814 0.93904 0.69708 0.0
C445 C 0.26345 0.92809 0.70855 0.0
C446 C 0.18695 0.93075 0.6745 0.0
C447 C 0.17396 0.95524 0.68444 0.0
C448 C 0.17678 0.91759 0.64841 0.0
C449 C 0.19061 0.89279 0.63578 0.0
C450 C 0.2214 0.8959 0.62979 0.0
C451 C 0.23432 0.87234 0.6181 0.0
C452 C 0.21662 0.84564 0.61206 0.0
C453 C 0.18593 0.84249 0.61762 0.0
C454 C 0.17291 0.86598 0.62936 0.0
C455 C 0.10944 0.00896 0.59405 0.0
C456 C 0.08715 0.99059 0.57924 0.0
C457 C 0.12616 0.99753 0.61563 0.0
C458 C 0.12056 0.96758 0.62303 0.0
C459 C 0.09709 0.94966 0.60904 0.0
C460 C 0.08074 0.961 0.58715 0.0
C461 C 0.14149 0.95416 0.64253 0.0
C462 C 0.15407 0.92923 0.633 0.0
C463 C 0.15127 0.96703 0.66891 0.0
C464 C 0.13796 0.9924 0.68108 0.0
C465 C 0.1068 0.99093 0.68467 0.0
C466 C 0.09453 0.01474 0.69669 0.0
C467 C 0.11312 0.04018 0.70501 0.0
C468 C 0.1441 0.04183 0.70151 0.0
C469 C 0.15654 0.01802 0.68972 0.0
H470 H 0.10353 0.05857 0.71426 0.0
H471 H 0.22666 0.82742 0.603 0.0
H472 H 0.75921 0.35899 0.89035 0.0
H473 H 0.79817 0.39675 0.90893 0.0
H474 H 0.8556 0.37964 0.84014 0.0
H475 H 0.81642 0.34208 0.82122 0.0
H476 H 0.88209 0.37749 0.89558 0.0
H477 H 0.83022 0.44196 0.83914 0.0
H478 H 0.78603 0.46351 0.82101 0.0
H479 H 0.76823 0.49357 0.90443 0.0
H480 H 0.81206 0.47181 0.92316 0.0
H481 H 0.99181 0.48977 0.95517 0.0
H482 H 0.95918 0.46074 0.92032 0.0
H483 H 0.88146 0.47774 0.96728 0.0
H484 H 0.91361 0.50749 1.00111 0.0
H485 H 0.86968 0.48233 0.91395 0.0
H486 H 0.91601 0.41394 0.97191 0.0
H487 H 0.95629 0.38842 0.99267 0.0
H488 H 0.98081 0.3616 0.91005 0.0
H489 H 0.94138 0.38792 0.88867 0.0
C490 C 0.77998 0.36363 0.87899 0.0
C491 C 0.78482 0.34772 0.85434 0.0
C492 C 0.80216 0.38521 0.88955 0.0
C493 C 0.82972 0.39102 0.87585 0.0
C494 C 0.83443 0.37554 0.85094 0.0
C495 C 0.81202 0.35427 0.84009 0.0
C496 C 0.85412 0.41188 0.88875 0.0
C497 C 0.87984 0.40063 0.89906 0.0
C498 C 0.85066 0.4418 0.89379 0.0
C499 C 0.82434 0.45506 0.88258 0.0
C500 C 0.81675 0.45296 0.85367 0.0
C501 C 0.79179 0.46525 0.84327 0.0
C502 C 0.7743 0.47986 0.86156 0.0
C503 C 0.78179 0.48225 0.89028 0.0
C504 C 0.80672 0.46997 0.9008 0.0
C505 C 0.96772 0.48791 0.9575 0.0
C506 C 0.95522 0.5013 0.98055 0.0
C507 C 0.94914 0.471 0.93784 0.0
C508 C 0.91782 0.46691 0.94117 0.0
C509 C 0.90547 0.48064 0.96405 0.0
C510 C 0.92391 0.49753 0.98351 0.0
C511 C 0.89751 0.44782 0.92164 0.0
C512 C 0.87245 0.45939 0.91001 0.0
C513 C 0.90138 0.418 0.91583 0.0
C514 C 0.92607 0.40342 0.92864 0.0
C515 C 0.93035 0.40312 0.9581 0.0
C516 C 0.953 0.38843 0.97 0.0
C517 C 0.97116 0.37347 0.95269 0.0
C518 C 0.96673 0.3732 0.92344 0.0
C519 C 0.94439 0.38819 0.91141 0.0
H520 H 0.98862 0.36204 0.96194 0.0
H521 H 0.75498 0.48936 0.85347 0.0
H522 H 0.74697 0.7272 0.40218 0.0
H523 H 0.70638 0.70161 0.42912 0.0
H524 H 0.65959 0.6723 0.35189 0.0
H525 H 0.69878 0.70032 0.32468 0.0
H526 H 0.6202 0.68211 0.38702 0.0
H527 H 0.70216 0.62631 0.39273 0.0
H528 H 0.75435 0.6162 0.40049 0.0
H529 H 0.75039 0.64246 0.48741 0.0
H530 H 0.6983 0.65313 0.48008 0.0
H531 H 0.54841 0.56174 0.48415 0.0
H532 H 0.57603 0.58475 0.44389 0.0
H533 H 0.60255 0.6627 0.49436 0.0
H534 H 0.57412 0.64061 0.53391 0.0
H535 H 0.64887 0.62022 0.4662 0.0
H536 H 0.56352 0.67808 0.45456 0.0
H537 H 0.51105 0.68384 0.44245 0.0
H538 H 0.5213 0.64645 0.36037 0.0
H539 H 0.57342 0.63895 0.37248 0.0
C540 C 0.72779 0.71602 0.39076 0.0
C541 C 0.72657 0.71574 0.36106 0.0
C542 C 0.70473 0.70081 0.40629 0.0
C543 C 0.68028 0.68409 0.39261 0.0
C544 C 0.67835 0.68465 0.36303 0.0
C545 C 0.70109 0.70045 0.34745 0.0
C546 C 0.65708 0.66588 0.40927 0.0
C547 C 0.62653 0.66824 0.40404 0.0
C548 C 0.66505 0.6472 0.4312 0.0
C549 C 0.69637 0.64071 0.43579 0.0
C550 C 0.71248 0.6301 0.41346 0.0
C551 C 0.74204 0.62425 0.41779 0.0
C552 C 0.75569 0.62873 0.44442 0.0
C553 C 0.73979 0.63901 0.46679 0.0
C554 C 0.71023 0.64493 0.46257 0.0
C555 C 0.55905 0.58424 0.48619 0.0
C556 C 0.55873 0.59955 0.51203 0.0
C557 C 0.57499 0.59724 0.46329 0.0
C558 C 0.59102 0.62551 0.46617 0.0
C559 C 0.58999 0.64102 0.49166 0.0
C560 C 0.57384 0.6283 0.51426 0.0
C561 C 0.61247 0.63756 0.4446 0.0
C562 C 0.6427 0.6338 0.44886 0.0
C563 C 0.60406 0.65413 0.42136 0.0
C564 C 0.57226 0.65738 0.4147 0.0
C565 C 0.5544 0.67028 0.43423 0.0
C566 C 0.52471 0.67395 0.42731 0.0
C567 C 0.51278 0.66525 0.40074 0.0
C568 C 0.53047 0.6528 0.38106 0.0
C569 C 0.56004 0.64873 0.38799 0.0
H570 H 0.48994 0.66842 0.3953 0.0
H571 H 0.77858 0.6242 0.44772 0.0
H572 H 0.19773 0.35216 0.22756 0.0
H573 H 0.17043 0.39109 0.20757 0.0
H574 H 0.15343 0.33983 0.13093 0.0
H575 H 0.18043 0.30107 0.15093 0.0
H576 H 0.17868 0.39708 0.12126 0.0
H577 H 0.09716 0.34713 0.17439 0.0
H578 H 0.07269 0.32662 0.21739 0.0
H579 H 0.08526 0.4124 0.2566 0.0
H580 H 0.11019 0.43335 0.21394 0.0
H581 H 0.0762 0.47602 0.04666 0.0
H582 H 0.10595 0.4416 0.07013 0.0
H583 H 0.09984 0.48838 0.149 0.0
H584 H 0.06807 0.52132 0.12568 0.0
H585 H 0.08882 0.43529 0.15983 0.0
H586 H 0.16913 0.48631 0.10733 0.0
H587 H 0.19719 0.50712 0.06618 0.0
H588 H 0.18904 0.42152 0.027 0.0
H589 H 0.16144 0.40006 0.06804 0.0
C590 C 0.18739 0.34899 0.20678 0.0
C591 C 0.19065 0.3236 0.19085 0.0
C592 C 0.17196 0.37123 0.19532 0.0
C593 C 0.15991 0.36839 0.1677 0.0
C594 C 0.16256 0.34253 0.15221 0.0
C595 C 0.17772 0.32031 0.16373 0.0
C596 C 0.14604 0.39291 0.15417 0.0
C597 C 0.15883 0.40531 0.12949 0.0
C598 C 0.12083 0.40431 0.16547 0.0
C599 C 0.10583 0.39174 0.1911 0.0
C600 C 0.09495 0.36156 0.19227 0.0
C601 C 0.08094 0.34987 0.21656 0.0
C602 C 0.0775 0.36818 0.23974 0.0
C603 C 0.08799 0.39823 0.23865 0.0
C604 C 0.10204 0.41003 0.21441 0.0
C605 C 0.0819 0.47927 0.06886 0.0
C606 C 0.07031 0.50145 0.08436 0.0
C607 C 0.09906 0.45967 0.08233 0.0
C608 C 0.10571 0.46239 0.11146 0.0
C609 C 0.09509 0.48556 0.1266 0.0
C610 C 0.07719 0.50459 0.11327 0.0
C611 C 0.12134 0.43972 0.12654 0.0
C612 C 0.10886 0.4275 0.15157 0.0
C613 C 0.14711 0.42868 0.1157 0.0
C614 C 0.1631 0.44165 0.09071 0.0
C615 C 0.17323 0.47199 0.08988 0.0
C616 C 0.18905 0.48389 0.06661 0.0
C617 C 0.19467 0.46575 0.04394 0.0
C618 C 0.18464 0.43558 0.04456 0.0
C619 C 0.16905 0.4235 0.06788 0.0
H620 H 0.20688 0.47505 0.02594 0.0
H621 H 0.06665 0.35908 0.25852 0.0
H622 H 0.70906 0.28208 0.90638 0.0
H623 H 0.68812 0.24369 0.93856 0.0
H624 H 0.71464 0.17688 0.8825 0.0
H625 H 0.73465 0.21539 0.84973 0.0
H626 H 0.66121 0.16068 0.89776 0.0
H627 H 0.75014 0.19424 0.94924 0.0
H628 H 0.78911 0.23001 0.97161 0.0
H629 H 0.7239 0.25858 0.02761 0.0
H630 H 0.68444 0.22329 0.00532 0.0
H631 H 0.59996 0.05631 1.00093 0.0
H632 H 0.63993 0.08391 0.97329 0.0
H633 H 0.61327 0.16583 0.00398 0.0
H634 H 0.57378 0.13853 0.03154 0.0
H635 H 0.67551 0.16661 1.00173 0.0
H636 H 0.58612 0.13617 0.9438 0.0
H637 H 0.5485 0.09967 0.92058 0.0
H638 H 0.61816 0.06356 0.87569 0.0
H639 H 0.65631 0.09935 0.89926 0.0
C640 C 0.71077 0.25922 0.90114 0.0
C641 C 0.72348 0.2517 0.8756 0.0
C642 C 0.69895 0.23724 0.91962 0.0
C643 C 0.70022 0.20727 0.91329 0.0
C644 C 0.71341 0.19978 0.88794 0.0
C645 C 0.72481 0.22177 0.86923 0.0
C646 C 0.68591 0.18389 0.9322 0.0
C647 C 0.66497 0.16159 0.92044 0.0
C648 C 0.69058 0.18498 0.96186 0.0
C649 C 0.71428 0.20619 0.97547 0.0
C650 C 0.74406 0.20827 0.9662 0.0
C651 C 0.76625 0.22846 0.97889 0.0
C652 C 0.75898 0.24658 1.00099 0.0
C653 C 0.72951 0.24452 0.01049 0.0
C654 C 0.70722 0.22439 0.99786 0.0
C655 C 0.60331 0.08017 0.00233 0.0
C656 C 0.58407 0.09537 0.01848 0.0
C657 C 0.62589 0.09587 0.98638 0.0
C658 C 0.62943 0.1269 0.9865 0.0
C659 C 0.61102 0.14193 0.00366 0.0
C660 C 0.5884 0.12633 0.01928 0.0
C661 C 0.65042 0.1442 0.96725 0.0
C662 C 0.67251 0.16535 0.97897 0.0
C663 C 0.64711 0.14181 0.93754 0.0
C664 C 0.62412 0.12011 0.92367 0.0
C665 C 0.59347 0.12018 0.92929 0.0
C666 C 0.57204 0.09965 0.91602 0.0
C667 C 0.58094 0.07923 0.89675 0.0
C668 C 0.61129 0.07937 0.89063 0.0
C669 C 0.63284 0.09969 0.90403 0.0
H670 H 0.56432 0.06336 0.88649 0.0
H671 H 0.77619 0.2622 0.01077 0.0
H672 H 0.78166 0.8199 0.35839 0.0
H673 H 0.81475 0.86015 0.38149 0.0
H674 H 0.88958 0.80997 0.37335 0.0
H675 H 0.85678 0.76997 0.34983 0.0
H676 H 0.87909 0.8335 0.4301 0.0
H677 H 0.88887 0.8634 0.33212 0.0
H678 H 0.8691 0.87689 0.28578 0.0
H679 H 0.83015 0.94842 0.32423 0.0
H680 H 0.84934 0.93506 0.37089 0.0
H681 H 0.00686 0.9291 0.46697 0.0
H682 H 0.96875 0.89464 0.44335 0.0
H683 H 0.91111 0.96333 0.43567 0.0
H684 H 0.95057 0.99845 0.45756 0.0
H685 H 0.90762 0.9325 0.38916 0.0
H686 H 0.89826 0.90711 0.48547 0.0
H687 H 0.9145 0.89487 0.53344 0.0
H688 H 0.94698 0.8166 0.50155 0.0
H689 H 0.93134 0.82859 0.45329 0.0
C690 C 0.80523 0.81763 0.36135 0.0
C691 C 0.81672 0.7919 0.35227 0.0
C692 C 0.82407 0.8406 0.37447 0.0
C693 C 0.85457 0.83798 0.37911 0.0
C694 C 0.8661 0.81238 0.36993 0.0
C695 C 0.84742 0.78967 0.35637 0.0
C696 C 0.87437 0.86145 0.39436 0.0
C697 C 0.88563 0.85506 0.42108 0.0
C698 C 0.88168 0.88996 0.38308 0.0
C699 C 0.87022 0.898 0.35504 0.0
C700 C 0.87583 0.88181 0.33074 0.0
C701 C 0.86479 0.88948 0.3044 0.0
C702 C 0.84829 0.91344 0.30207 0.0
C703 C 0.84288 0.92983 0.32607 0.0
C704 C 0.85385 0.92223 0.35246 0.0
C705 C 0.98609 0.93696 0.46026 0.0
C706 C 0.98127 0.96645 0.46502 0.0
C707 C 0.96414 0.91709 0.44697 0.0
C708 C 0.93658 0.92604 0.43842 0.0
C709 C 0.93194 0.95568 0.4425 0.0
C710 C 0.95419 0.97568 0.45555 0.0
C711 C 0.91315 0.90438 0.42477 0.0
C712 C 0.90102 0.91107 0.3984 0.0
C713 C 0.90443 0.8763 0.43668 0.0
C714 C 0.91382 0.86888 0.4657 0.0
C715 C 0.90906 0.88739 0.48864 0.0
C716 C 0.91813 0.88049 0.51589 0.0
C717 C 0.93182 0.85501 0.52053 0.0
C718 C 0.9364 0.83634 0.49792 0.0
C719 C 0.9274 0.84317 0.47061 0.0
H720 H 0.93883 0.84969 0.54165 0.0
H721 H 0.83978 0.91935 0.28167 0.0
H722 H 0.37713 0.80133 0.70022 0.0
H723 H 0.39171 0.75593 0.68043 0.0
H724 H 0.35514 0.70755 0.75243 0.0
H725 H 0.34063 0.75342 0.77263 0.0
H726 H 0.40731 0.68991 0.73897 0.0
H727 H 0.31819 0.70053 0.68807 0.0
H728 H 0.28174 0.72557 0.66071 0.0
H729 H 0.34511 0.74199 0.59403 0.0
H730 H 0.38214 0.71746 0.62117 0.0
H731 H 0.44334 0.5643 0.65467 0.0
H732 H 0.41034 0.59497 0.67982 0.0
H733 H 0.44972 0.67154 0.63484 0.0
H734 H 0.48279 0.64136 0.61044 0.0
H735 H 0.38443 0.66475 0.63827 0.0
H736 H 0.47575 0.66257 0.69644 0.0
H737 H 0.51097 0.63645 0.72432 0.0
H738 H 0.4392 0.60118 0.77777 0.0
H739 H 0.40348 0.62682 0.74991 0.0
C740 C 0.37187 0.781 0.71176 0.0
C741 C 0.35731 0.78092 0.73782 0.0
C742 C 0.38019 0.75499 0.70038 0.0
C743 C 0.37388 0.72809 0.71455 0.0
C744 C 0.36001 0.72797 0.74096 0.0
C745 C 0.3518 0.75417 0.75251 0.0
C746 C 0.38267 0.70055 0.70177 0.0
C747 C 0.40164 0.68399 0.71717 0.0
C748 C 0.37525 0.69256 0.67332 0.0
C749 C 0.35302 0.70725 0.65676 0.0
C750 C 0.32444 0.70964 0.66765 0.0
C751 C 0.30366 0.72373 0.65217 0.0
C752 C 0.31112 0.73539 0.62566 0.0
C753 C 0.33936 0.73294 0.61456 0.0
C754 C 0.36024 0.7189 0.62998 0.0
C755 C 0.4446 0.58763 0.65011 0.0
C756 C 0.46548 0.60061 0.63073 0.0
C757 C 0.42587 0.60508 0.66443 0.0
C758 C 0.42764 0.63552 0.65913 0.0
C759 C 0.4479 0.64811 0.63912 0.0
C760 C 0.46685 0.63091 0.62532 0.0
C761 C 0.40987 0.65516 0.67516 0.0
C762 C 0.38926 0.67023 0.66032 0.0
C763 C 0.41543 0.66149 0.70415 0.0
C764 C 0.43691 0.64625 0.7209 0.0
C765 C 0.46745 0.64902 0.71398 0.0
C766 C 0.4875 0.63436 0.7298 0.0
C767 C 0.47731 0.61708 0.75275 0.0
C768 C 0.44705 0.61451 0.75996 0.0
C769 C 0.4269 0.6291 0.74416 0.0
H770 H 0.49287 0.60575 0.76498 0.0
H771 H 0.295 0.74629 0.61371 0.0
H772 H 0.95411 0.8867 0.81679 0.0
H773 H 0.9772 0.90253 0.77183 0.0
H774 H 0.97505 0.99352 0.79594 0.0
H775 H 0.95224 0.97791 0.84064 0.0
H776 H 0.94756 0.98056 0.74563 0.0
H777 H 0.04053 0.96428 0.79142 0.0
H778 H 0.07584 0.93567 0.81629 0.0
H779 H 0.07215 0.87477 0.7465 0.0
H780 H 0.03642 0.90278 0.72138 0.0
H781 H 0.02104 0.06442 0.64298 0.0
H782 H 0.01467 0.03988 0.68841 0.0
H783 H 0.01622 0.9554 0.64756 0.0
H784 H 0.0225 0.98004 0.60168 0.0
H785 H 0.04293 0.95894 0.70326 0.0
H786 H 0.9512 0.97568 0.65724 0.0
H787 H 0.91692 0.00486 0.63163 0.0
H788 H 0.91844 0.06471 0.70208 0.0
H789 H 0.95316 0.03616 0.72794 0.0
C790 C 0.95924 0.91007 0.81272 0.0
C791 C 0.951 0.93107 0.83207 0.0
C792 C 0.97241 0.91909 0.78703 0.0
C793 C 0.97768 0.94923 0.78043 0.0
C794 C 0.97096 0.97015 0.80045 0.0
C795 C 0.95785 0.9612 0.82596 0.0
C796 C 0.98738 0.95924 0.75184 0.0
C797 C 0.96861 0.97608 0.73659 0.0
C798 C 0.01426 0.95244 0.73946 0.0
C799 C 0.03544 0.93539 0.7547 0.0
C800 C 0.04694 0.94458 0.78152 0.0
C801 C 0.06711 0.92852 0.79563 0.0
C802 C 0.07614 0.90335 0.78304 0.0
C803 C 0.06507 0.89423 0.75627 0.0
C804 C 0.04486 0.91019 0.74209 0.0
C805 C 0.02079 0.04067 0.64372 0.0
C806 C 0.02208 0.02411 0.61878 0.0
C807 C 0.01708 0.02667 0.66968 0.0
C808 C 0.01425 0.99578 0.67126 0.0
C809 C 0.0182 0.97926 0.64677 0.0
C810 C 0.02199 0.99336 0.62061 0.0
C811 C 0.00368 0.9812 0.69783 0.0
C812 C 0.02193 0.96331 0.71243 0.0
C813 C 0.97624 0.9869 0.70975 0.0
C814 C 0.95496 0.00389 0.69445 0.0
C815 C 0.94438 0.99517 0.6672 0.0
C816 C 0.92486 0.01159 0.65264 0.0
C817 C 0.91555 0.03665 0.6652 0.0
C818 C 0.92569 0.0453 0.69237 0.0
C819 C 0.94527 0.02899 0.707 0.0
H820 H 0.90044 0.04934 0.65388 0.0
H821 H 0.09179 0.89096 0.79398 0.0
H822 H 0.58222 0.13776 0.39839 0.0
H823 H 0.55412 0.12812 0.35374 0.0
H824 H 0.63591 0.14885 0.3076 0.0
H825 H 0.66395 0.15863 0.352 0.0
H826 H 0.5869 0.16997 0.2811 0.0
H827 H 0.6126 0.07908 0.3238 0.0
H828 H 0.61165 0.04263 0.36206 0.0
H829 H 0.51536 0.02956 0.35769 0.0
H830 H 0.51577 0.06629 0.31964 0.0
H831 H 0.59257 0.08385 0.15979 0.0
H832 H 0.59715 0.10842 0.20588 0.0
H833 H 0.50472 0.07681 0.22274 0.0
H834 H 0.50008 0.05216 0.17609 0.0
H835 H 0.54508 0.0652 0.26621 0.0
H836 H 0.52168 0.14558 0.21316 0.0
H837 H 0.52453 0.17831 0.17211 0.0
H838 H 0.61504 0.21219 0.19519 0.0
H839 H 0.61352 0.17813 0.23541 0.0
C840 C 0.59404 0.14088 0.37868 0.0
C841 C 0.62531 0.14868 0.37866 0.0
C842 C 0.578 0.13526 0.35321 0.0
C843 C 0.59296 0.13752 0.32734 0.0
C844 C 0.62389 0.14698 0.32728 0.0
C845 C 0.63992 0.15235 0.35267 0.0
C846 C 0.5774 0.12742 0.30046 0.0
C847 C 0.57765 0.14712 0.27779 0.0
C848 C 0.56442 0.0978 0.29643 0.0
C849 C 0.5642 0.07568 0.31918 0.0
C850 C 0.59123 0.0686 0.33117 0.0
C851 C 0.59079 0.04787 0.35279 0.0
C852 C 0.56346 0.03386 0.36237 0.0
C853 C 0.53651 0.04049 0.3503 0.0
C854 C 0.53683 0.06126 0.32872 0.0
C855 C 0.57305 0.08272 0.1731 0.0
C856 C 0.54587 0.06658 0.16438 0.0
C857 C 0.57567 0.09672 0.1994 0.0
C858 C 0.55124 0.09459 0.21769 0.0
C859 C 0.5238 0.0788 0.20888 0.0
C860 C 0.52108 0.06499 0.18225 0.0
C861 C 0.55558 0.10749 0.24654 0.0
C862 C 0.55336 0.08831 0.26961 0.0
C863 C 0.56668 0.13759 0.25088 0.0
C864 C 0.56751 0.15908 0.22734 0.0
C865 C 0.54232 0.1598 0.20941 0.0
C866 C 0.5437 0.17861 0.18624 0.0
C867 C 0.56983 0.19758 0.18118 0.0
C868 C 0.59476 0.19755 0.19919 0.0
C869 C 0.59371 0.17834 0.22212 0.0
H870 H 0.57078 0.21223 0.16327 0.0
H871 H 0.56316 0.01781 0.3791 0.0
H872 H 0.45811 0.65502 0.25649 0.0
H873 H 0.46594 0.64778 0.30734 0.0
H874 H 0.4755 0.55618 0.29145 0.0
H875 H 0.46805 0.56361 0.24071 0.0
H876 H 0.43617 0.6129 0.34571 0.0
H877 H 0.52838 0.53431 0.33451 0.0
H878 H 0.57008 0.527 0.30295 0.0
H879 H 0.57635 0.61779 0.2781 0.0
H880 H 0.53495 0.62573 0.30974 0.0
H881 H 0.48196 0.50679 0.45475 0.0
H882 H 0.48331 0.52644 0.40689 0.0
H883 H 0.4891 0.61501 0.44058 0.0
H884 H 0.48835 0.59528 0.48888 0.0
H885 H 0.52546 0.56814 0.37935 0.0
H886 H 0.43746 0.6486 0.39313 0.0
H887 H 0.39691 0.65738 0.42547 0.0
H888 H 0.38296 0.56509 0.44501 0.0
H889 H 0.42315 0.55572 0.41254 0.0
C890 C 0.4616 0.63333 0.26407 0.0
C891 C 0.4624 0.60978 0.24508 0.0
C892 C 0.46611 0.62923 0.29298 0.0
C893 C 0.47174 0.60156 0.30314 0.0
C894 C 0.47174 0.57784 0.28404 0.0
C895 C 0.46724 0.58198 0.25517 0.0
C896 C 0.47759 0.59728 0.33365 0.0
C897 C 0.45597 0.60364 0.35313 0.0
C898 C 0.50338 0.58509 0.34334 0.0
C899 C 0.52835 0.58052 0.32429 0.0
C900 C 0.53871 0.55273 0.32237 0.0
C901 C 0.56229 0.54848 0.30445 0.0
C902 C 0.57579 0.57189 0.28846 0.0
C903 C 0.56579 0.59964 0.2904 0.0
C904 C 0.54223 0.60401 0.30828 0.0
C905 C 0.48389 0.53048 0.45192 0.0
C906 C 0.48501 0.54959 0.47532 0.0
C907 C 0.48483 0.54166 0.42464 0.0
C908 C 0.48619 0.57212 0.42026 0.0
C909 C 0.48802 0.59143 0.44361 0.0
C910 C 0.48759 0.5802 0.47107 0.0
C911 C 0.48366 0.58296 0.39111 0.0
C912 C 0.50591 0.57781 0.3719 0.0
C913 C 0.45854 0.5964 0.38173 0.0
C914 C 0.43389 0.60161 0.40092 0.0
C915 C 0.42585 0.63021 0.40442 0.0
C916 C 0.40285 0.63527 0.42272 0.0
C917 C 0.38752 0.61184 0.43746 0.0
C918 C 0.395 0.58326 0.43376 0.0
C919 C 0.41795 0.57808 0.41545 0.0
H920 H 0.36974 0.61581 0.45163 0.0
H921 H 0.59404 0.56855 0.2746 0.0
H922 H 0.00561 0.46976 0.69564 0.0
H923 H 0.99527 0.48492 0.744 0.0
H924 H 0.08462 0.46973 0.77002 0.0
H925 H 0.09472 0.45424 0.72167 0.0
H926 H 0.04316 0.44592 0.80672 0.0
H927 H 0.06614 0.53952 0.75986 0.0
H928 H 0.05989 0.57662 0.72334 0.0
H929 H 0.9687 0.57933 0.74815 0.0
H930 H 0.97431 0.54194 0.7846 0.0
H931 H 0.0787 0.52943 0.92897 0.0
H932 H 0.07357 0.50859 0.88139 0.0
H933 H 0.98086 0.52468 0.87801 0.0
H934 H 0.98616 0.54602 0.92614 0.0
H935 H 0.01396 0.54455 0.83011 0.0
H936 H 0.99603 0.45819 0.8841 0.0
H937 H 0.00611 0.42593 0.92358 0.0
H938 H 0.0885 0.40884 0.88559 0.0
H939 H 0.08008 0.44291 0.84695 0.0
C940 C 0.02305 0.47 0.71173 0.0
C941 C 0.05099 0.4612 0.70522 0.0
C942 C 0.01716 0.47862 0.73928 0.0
C943 C 0.03922 0.47861 0.76062 0.0
C944 C 0.06726 0.46986 0.75392 0.0
C945 C 0.07311 0.46123 0.72637 0.0
C946 C 0.03316 0.48745 0.79002 0.0
C947 C 0.03695 0.46754 0.81187 0.0
C948 C 0.02392 0.51524 0.79662 0.0
C949 C 0.02053 0.53767 0.7747 0.0
C950 C 0.04468 0.54783 0.75735 0.0
C951 C 0.04127 0.56895 0.7367 0.0
C952 C 0.01389 0.58025 0.73336 0.0
C953 C 0.98988 0.57051 0.75072 0.0
C954 C 0.99316 0.54937 0.77139 0.0
C955 C 0.05708 0.52807 0.91825 0.0
C956 C 0.03268 0.53883 0.93123 0.0
C957 C 0.05417 0.51619 0.89109 0.0
C958 C 0.0268 0.5149 0.87624 0.0
C959 C 0.00215 0.52542 0.8892 0.0
C960 C 0.00506 0.53727 0.91667 0.0
C961 C 0.02491 0.50339 0.84683 0.0
C962 C 0.01958 0.52271 0.82494 0.0
C963 C 0.03285 0.47508 0.84021 0.0
C964 C 0.03746 0.45337 0.86266 0.0
C965 C 0.01644 0.4478 0.88428 0.0
C966 C 0.02188 0.42919 0.90654 0.0
C967 C 0.04775 0.41503 0.90695 0.0
C968 C 0.06841 0.41975 0.88521 0.0
C969 C 0.06341 0.43892 0.8632 0.0
H970 H 0.05183 0.40049 0.92416 0.0
H971 H 0.0113 0.59661 0.71737 0.0
H972 H 0.84887 0.98897 0.94971 0.0
H973 H 0.80697 0.00487 0.97608 0.0
H974 H 0.7501 0.92706 0.94728 0.0
H975 H 0.79199 0.91149 0.92057 0.0
H976 H 0.72361 0.97548 0.93822 0.0
H977 H 0.77498 0.93617 0.01676 0.0
H978 H 0.81807 0.93103 0.04845 0.0
H979 H 0.82365 0.0228 0.07105 0.0
H980 H 0.78081 0.02857 0.03919 0.0
H981 H 0.6017 0.96633 0.0305 0.0
H982 H 0.6476 0.95985 0.00539 0.0
H983 H 0.68483 0.04846 0.02859 0.0
H984 H 0.63823 0.05517 0.0536 0.0
H985 H 0.7232 1.00173 0.03998 0.0
H986 H 0.66715 0.03895 0.96601 0.0
H987 H 0.6217 0.04236 0.93718 0.0
H988 H 0.62463 0.95437 0.90574 0.0
H989 H 0.66928 0.94981 0.93558 0.0
C990 C 0.82762 0.9749 0.94978 0.0
C991 C 0.82359 0.94881 0.93366 0.0
C992 C 0.80367 0.98403 0.96472 0.0
C993 C 0.77532 0.96715 0.96375 0.0
C994 C 0.77171 0.94048 0.94833 0.0
C995 C 0.79567 0.9314 0.93336 0.0
C996 C 0.74901 0.97806 0.97731 0.0
C997 C 0.72345 0.98092 0.96053 0.0
C998 C 0.74915 0.98631 0.0062 0.0
C999 C 0.77491 0.98287 0.02534 0.0
C1000 C 0.78556 0.95531 0.0283 0.0
C1001 C 0.8099 0.95227 0.04633 0.0
C1002 C 0.82365 0.97659 0.06169 0.0
C1003 C 0.81302 0.00399 0.0591 0.0
C1004 C 0.78869 0.00715 0.04108 0.0
C1005 C 0.61949 0.9846 0.02981 0.0
C1006 C 0.61645 0.01134 0.04361 0.0
C1007 C 0.64569 0.98086 0.01556 0.0
C1008 C 0.6696 0.00364 0.01517 0.0
C1009 C 0.66659 0.03061 0.02871 0.0
C1010 C 0.64 0.03453 0.0427 0.0
C1011 C 0.69774 0.99841 1.00101 0.0
C1012 C 0.72359 0.99663 0.0176 0.0
C1013 C 0.69788 0.99112 0.97196 0.0
C1014 C 0.6715 0.99397 0.95327 0.0
C1015 C 0.65797 0.0202 0.95318 0.0
C1016 C 0.63234 0.02236 0.93662 0.0
C1017 C 0.62037 0.99869 0.91948 0.0
C1018 C 0.63395 0.97272 0.919 0.0
C1019 C 0.65938 0.9703 0.93583 0.0
H1020 H 0.60056 1.00046 0.9066 0.0
H1021 H 0.84249 0.97419 0.07565 0.0
H1022 H 0.73964 0.15792 0.45469 0.0
H1023 H 0.78355 0.13217 0.46241 0.0
H1024 H 0.73592 0.05283 0.42577 0.0
H1025 H 0.69188 0.07891 0.4175 0.0
H1026 H 0.78912 0.08811 0.49538 0.0
H1027 H 0.78926 0.01025 0.39891 0.0
H1028 H 0.77322 0.00773 0.34882 0.0
H1029 H 0.78196 0.10235 0.34556 0.0
H1030 H 0.79846 0.10543 0.39548 0.0
H1031 H 0.9032 0.00546 0.52863 0.0
H1032 H 0.85358 0.00996 0.50797 0.0
H1033 H 0.89512 0.06433 0.44187 0.0
H1034 H 0.94464 0.05897 0.46202 0.0
H1035 H 0.84193 0.03538 0.42324 0.0
H1036 H 0.87983 0.09519 0.50398 0.0
H1037 H 0.89989 0.10254 0.55261 0.0
H1038 H 0.82004 0.05353 0.58469 0.0
H1039 H 0.79972 0.04552 0.53615 0.0
C1040 C 0.73858 0.13503 0.44814 0.0
C1041 C 0.7123 0.12036 0.43567 0.0
C1042 C 0.76367 0.12031 0.45257 0.0
C1043 C 0.76309 0.09051 0.44477 0.0
C1044 C 0.73706 0.07589 0.43171 0.0
C1045 C 0.71193 0.09078 0.427 0.0
C1046 C 0.78943 0.07483 0.45164 0.0
C1047 C 0.80044 0.07639 0.47957 0.0
C1048 C 0.80438 0.05955 0.43111 0.0
C1049 C 0.79468 0.05803 0.40104 0.0
C1050 C 0.78779 0.03051 0.38748 0.0
C1051 C 0.77864 0.02898 0.35911 0.0
C1052 C 0.77644 0.05486 0.34405 0.0
C1053 C 0.78352 0.08232 0.35729 0.0
C1054 C 0.79274 0.08397 0.38563 0.0
C1055 C 0.90167 0.01705 0.50889 0.0
C1056 C 0.92755 0.0316 0.49666 0.0
C1057 C 0.87338 0.0198 0.49719 0.0
C1058 C 0.87062 0.03802 0.47371 0.0
C1059 C 0.89666 0.05016 0.45994 0.0
C1060 C 0.92495 0.04708 0.47144 0.0
C1061 C 0.84156 0.04899 0.46682 0.0
C1062 C 0.83011 0.04658 0.43904 0.0
C1063 C 0.8265 0.06424 0.48728 0.0
C1064 C 0.83842 0.06948 0.51647 0.0
C1065 C 0.86663 0.08587 0.52141 0.0
C1066 C 0.87804 0.09014 0.54894 0.0
C1067 C 0.86128 0.07844 0.57172 0.0
C1068 C 0.83302 0.06252 0.56702 0.0
C1069 C 0.82155 0.05811 0.53951 0.0
H1070 H 0.87016 0.08174 0.59303 0.0
H1071 H 0.76932 0.05364 0.3221 0.0
H1072 H 0.3461 0.60117 0.18672 0.0
H1073 H 0.29385 0.58154 0.17463 0.0
H1074 H 0.31533 0.58519 0.08622 0.0
H1075 H 0.36704 0.60473 0.09815 0.0
H1076 H 0.27145 0.62065 0.10295 0.0
H1077 H 0.29713 0.52153 0.11437 0.0
H1078 H 0.31446 0.47992 0.14021 0.0
H1079 H 0.24313 0.48208 0.19921 0.0
H1080 H 0.22568 0.52409 0.174 0.0
H1081 H 0.15617 0.56685 0.01626 0.0
H1082 H 0.20226 0.56587 0.04381 0.0
H1083 H 0.15178 0.56078 0.12068 0.0
H1084 H 0.10513 0.56211 0.09289 0.0
H1085 H 0.2055 0.5274 0.11987 0.0
H1086 H 0.17806 0.62435 0.10631 0.0
H1087 H 0.15974 0.66454 0.07904 0.0
H1088 H 0.23466 0.66583 0.02366 0.0
H1089 H 0.25315 0.62528 0.0503 0.0
C1090 C 0.33976 0.59675 0.16481 0.0
C1091 C 0.36032 0.60464 0.14329 0.0
C1092 C 0.31001 0.5856 0.15794 0.0
C1093 C 0.30077 0.58217 0.12953 0.0
C1094 C 0.32202 0.58779 0.10825 0.0
C1095 C 0.35151 0.59893 0.11506 0.0
C1096 C 0.26859 0.5774 0.12136 0.0
C1097 C 0.25711 0.60016 0.10657 0.0
C1098 C 0.24955 0.55118 0.12713 0.0
C1099 C 0.26042 0.52632 0.14258 0.0
C1100 C 0.28541 0.51345 0.1331 0.0
C1101 C 0.29519 0.48971 0.14757 0.0
C1102 C 0.28 0.47846 0.17142 0.0
C1103 C 0.25495 0.49089 0.1808 0.0
C1104 C 0.24511 0.51467 0.16643 0.0
C1105 C 0.15476 0.56484 0.03899 0.0
C1106 C 0.12718 0.56471 0.05251 0.0
C1107 C 0.18108 0.56424 0.05469 0.0
C1108 C 0.18043 0.56373 0.08426 0.0
C1109 C 0.15268 0.56115 0.09786 0.0
C1110 C 0.1261 0.56176 0.082 0.0
C1111 C 0.20911 0.57 0.10021 0.0
C1112 C 0.2198 0.54791 0.11663 0.0
C1113 C 0.22765 0.59689 0.09605 0.0
C1114 C 0.21689 0.62165 0.08023 0.0
C1115 C 0.19053 0.63307 0.08821 0.0
C1116 C 0.18012 0.65593 0.07287 0.0
C1117 C 0.196 0.66771 0.04961 0.0
C1118 C 0.22237 0.65669 0.04168 0.0
C1119 C 0.23285 0.63379 0.05692 0.0
H1120 H 0.1879 0.6854 0.03776 0.0
H1121 H 0.28757 0.46003 0.18256 0.0
H1122 H 0.19319 0.42549 0.6488 0.0
H1123 H 0.2419 0.45551 0.65332 0.0
H1124 H 0.20057 0.53365 0.63396 0.0
H1125 H 0.15147 0.50346 0.62943 0.0
H1126 H 0.24902 0.52732 0.6006 0.0
H1127 H 0.23031 0.52899 0.69821 0.0
H1128 H 0.21402 0.50931 0.74452 0.0
H1129 H 0.28349 0.45247 0.74421 0.0
H1130 H 0.29994 0.47144 0.69769 0.0
H1131 H 0.40427 0.57555 0.59327 0.0
H1132 H 0.35493 0.57911 0.61423 0.0
H1133 H 0.3515 0.48896 0.64216 0.0
H1134 H 0.40038 0.48566 0.6217 0.0
H1135 H 0.3227 0.52055 0.67867 0.0
H1136 H 0.32605 0.50603 0.57532 0.0
H1137 H 0.34189 0.52254 0.52777 0.0
H1138 H 0.30069 0.60185 0.53907 0.0
H1139 H 0.2849 0.58587 0.58684 0.0
C1140 C 0.19443 0.44912 0.6459 0.0
C1141 C 0.16864 0.46216 0.63866 0.0
C1142 C 0.22221 0.46631 0.64871 0.0
C1143 C 0.22485 0.49689 0.64425 0.0
C1144 C 0.19899 0.51013 0.6377 0.0
C1145 C 0.17101 0.49292 0.63521 0.0
C1146 C 0.25515 0.51397 0.64362 0.0
C1147 C 0.26492 0.52675 0.61802 0.0
C1148 C 0.27595 0.5131 0.66625 0.0
C1149 C 0.26633 0.50165 0.69437 0.0
C1150 C 0.24202 0.51217 0.70792 0.0
C1151 C 0.23276 0.50115 0.73423 0.0
C1152 C 0.2477 0.47966 0.74729 0.0
C1153 C 0.27196 0.46916 0.73408 0.0
C1154 C 0.2813 0.48009 0.70775 0.0
C1155 C 0.39333 0.55701 0.60487 0.0
C1156 C 0.40584 0.53031 0.60594 0.0
C1157 C 0.36517 0.55897 0.61669 0.0
C1158 C 0.34928 0.53412 0.62938 0.0
C1159 C 0.36324 0.50844 0.63257 0.0
C1160 C 0.39114 0.5065 0.62078 0.0
C1161 C 0.31671 0.53238 0.63525 0.0
C1162 C 0.30649 0.52237 0.66176 0.0
C1163 C 0.29546 0.53555 0.61341 0.0
C1164 C 0.30462 0.54496 0.58467 0.0
C1165 C 0.3205 0.52704 0.56767 0.0
C1166 C 0.32946 0.53629 0.54071 0.0
C1167 C 0.32238 0.56327 0.53044 0.0
C1168 C 0.30622 0.581 0.54708 0.0
C1169 C 0.29727 0.57186 0.57409 0.0
H1170 H 0.32935 0.57041 0.50956 0.0
H1171 H 0.2405 0.47114 0.76766 0.0
H1172 H 0.88597 0.84372 0.91921 0.0
H1173 H 0.90097 0.80153 0.9453 0.0
H1174 H 0.99284 0.84229 0.94665 0.0
H1175 H 0.97802 0.88407 0.92022 0.0
H1176 H 0.99115 0.78822 0.92979 0.0
H1177 H 0.94756 0.83539 0.0069 0.0
H1178 H 0.9082 0.8576 0.03227 0.0
H1179 H 0.85047 0.77554 0.02669 0.0
H1180 H 0.88933 0.75294 1.00091 0.0
H1181 H 0.05584 0.69203 0.01878 0.0
H1182 H 0.03385 0.73686 0.00652 0.0
H1183 H 0.94828 0.68511 0.99087 0.0
H1184 H 0.97051 0.64003 0.00253 0.0
H1185 H 0.94486 0.74353 0.01628 0.0
H1186 H 0.9887 0.6976 0.93765 0.0
H1187 H 0.02902 0.67566 0.91349 0.0
H1188 H 0.08722 0.75708 0.92314 0.0
H1189 H 0.04737 0.77935 0.9478 0.0
C1190 C 0.90927 0.84386 0.92551 0.0
C1191 C 0.93084 0.86713 0.91748 0.0
C1192 C 0.91784 0.81975 0.94048 0.0
C1193 C 0.94809 0.81865 0.94809 0.0
C1194 C 0.96942 0.84243 0.94092 0.0
C1195 C 0.96092 0.86632 0.92577 0.0
C1196 C 0.95806 0.79199 0.96168 0.0
C1197 C 0.98124 0.77884 0.94895 0.0
C1198 C 0.94468 0.77902 0.98627 0.0
C1199 C 0.92124 0.79257 1.00169 0.0
C1200 C 0.92637 0.82215 0.01085 0.0
C1201 C 0.90417 0.8348 0.02535 0.0
C1202 C 0.87682 0.81802 0.03101 0.0
C1203 C 0.87164 0.78853 0.02224 0.0
C1204 C 0.89376 0.77579 0.0077 0.0
C1205 C 0.0321 0.69035 0.01361 0.0
C1206 C 0.01468 0.66264 0.0122 0.0
C1207 C 0.01958 0.71595 0.00655 0.0
C1208 C 0.98946 0.71432 0.99764 0.0
C1209 C 0.97148 0.68691 0.99795 0.0
C1210 C 0.9841 0.66121 0.0049 0.0
C1211 C 0.97812 0.74043 0.98456 0.0
C1212 C 0.95469 0.7532 0.99721 0.0
C1213 C 0.99129 0.75327 0.95993 0.0
C1214 C 0.01516 0.74003 0.94482 0.0
C1215 C 0.01018 0.71074 0.93482 0.0
C1216 C 0.03293 0.69826 0.92101 0.0
C1217 C 0.06069 0.71494 0.91685 0.0
C1218 C 0.06572 0.74417 0.92642 0.0
C1219 C 0.04305 0.75674 0.94031 0.0
H1220 H 0.07828 0.70524 0.90615 0.0
H1221 H 0.85967 0.82784 0.04225 0.0
H1222 H 0.44165 0.71994 0.16876 0.0
H1223 H 0.44486 0.77023 0.15064 0.0
H1224 H 0.41376 0.73646 0.06879 0.0
H1225 H 0.41032 0.68582 0.08692 0.0
H1226 H 0.46514 0.7828 0.069 0.0
H1227 H 0.36534 0.76453 0.10198 0.0
H1228 H 0.32558 0.74675 0.13519 0.0
H1229 H 0.36419 0.80929 0.19762 0.0
H1230 H 0.40449 0.82712 0.16495 0.0
H1231 H 0.47693 0.93707 0.04491 0.0
H1232 H 0.45074 0.88675 0.04321 0.0
H1233 H 0.45635 0.88303 0.13413 0.0
H1234 H 0.48093 0.93341 0.13575 0.0
H1235 H 0.4059 0.85313 0.11663 0.0
H1236 H 0.51202 0.85956 0.08867 0.0
H1237 H 0.55359 0.87688 0.05709 0.0
H1238 H 0.50341 0.83661 0.98611 0.0
H1239 H 0.46147 0.81926 0.0173 0.0
C1240 C 0.43586 0.7232 0.14682 0.0
C1241 C 0.42575 0.69905 0.12923 0.0
C1242 C 0.43748 0.75189 0.13656 0.0
C1243 C 0.42922 0.75695 0.1085 0.0
C1244 C 0.42006 0.7329 0.09055 0.0
C1245 C 0.41805 0.70412 0.10093 0.0
C1246 C 0.43002 0.78763 0.09847 0.0
C1247 C 0.45167 0.79811 0.07881 0.0
C1248 C 0.41241 0.80747 0.11133 0.0
C1249 C 0.38803 0.79708 0.13102 0.0
C1250 C 0.36548 0.77436 0.12285 0.0
C1251 C 0.34282 0.76429 0.14158 0.0
C1252 C 0.34237 0.77686 0.16851 0.0
C1253 C 0.36456 0.79958 0.17675 0.0
C1254 C 0.38729 0.80971 0.15811 0.0
C1255 C 0.47147 0.92589 0.06444 0.0
C1256 C 0.48104 0.93917 0.09034 0.0
C1257 C 0.45686 0.89698 0.0635 0.0
C1258 C 0.45207 0.88086 0.08854 0.0
C1259 C 0.4598 0.89491 0.1145 0.0
C1260 C 0.47409 0.92372 0.1154 0.0
C1261 C 0.44215 0.84864 0.08829 0.0
C1262 C 0.41869 0.83775 0.10605 0.0
C1263 C 0.45821 0.82845 0.07379 0.0
C1264 C 0.48359 0.83838 0.05521 0.0
C1265 C 0.50988 0.85448 0.06631 0.0
C1266 C 0.53348 0.8643 0.04849 0.0
C1267 C 0.53112 0.8579 0.0196 0.0
C1268 C 0.50519 0.84157 0.00848 0.0
C1269 C 0.48152 0.83173 0.02621 0.0
H1270 H 0.54939 0.86555 0.00583 0.0
H1271 H 0.32482 0.76903 0.18298 0.0
H1272 H 0.06965 0.37959 0.56858 0.0
H1273 H 0.06492 0.33183 0.54433 0.0
H1274 H 0.14955 0.31433 0.58038 0.0
H1275 H 0.15403 0.36159 0.60571 0.0
H1276 H 0.13346 0.29353 0.51793 0.0
H1277 H 0.1001 0.2877 0.61584 0.0
H1278 H 0.07167 0.30465 0.65567 0.0
H1279 H 0.98988 0.28788 0.60696 0.0
H1280 H 0.01796 0.27132 0.56665 0.0
H1281 H 0.09268 0.13006 0.53035 0.0
H1282 H 0.11587 0.18137 0.53386 0.0
H1283 H 0.03279 0.21099 0.50605 0.0
H1284 H 0.00935 0.15984 0.50352 0.0
H1285 H 0.05375 0.22573 0.56316 0.0
H1286 H 0.10038 0.26534 0.46308 0.0
H1287 H 0.12843 0.25237 0.42124 0.0
H1288 H 0.18187 0.20163 0.47319 0.0
H1289 H 0.15478 0.21512 0.51538 0.0
C1290 C 0.08741 0.36574 0.57125 0.0
C1291 C 0.11195 0.37427 0.58957 0.0
C1292 C 0.08485 0.33863 0.55704 0.0
C1293 C 0.10689 0.31963 0.56059 0.0
C1294 C 0.13248 0.32887 0.57716 0.0
C1295 C 0.13494 0.35591 0.59166 0.0
C1296 C 0.1007 0.28859 0.55086 0.0
C1297 C 0.11629 0.27854 0.52796 0.0
C1298 C 0.07812 0.2692 0.56378 0.0
C1299 C 0.06115 0.27856 0.58818 0.0
C1300 C 0.07609 0.28786 0.61356 0.0
C1301 C 0.06004 0.29736 0.63623 0.0
C1302 C 0.029 0.29742 0.63382 0.0
C1303 C 0.01393 0.28787 0.60878 0.0
C1304 C 0.0299 0.27841 0.58603 0.0
C1305 C 0.07992 0.1475 0.52359 0.0
C1306 C 0.04933 0.14115 0.51659 0.0
C1307 C 0.09325 0.17686 0.52544 0.0
C1308 C 0.07626 0.20009 0.51969 0.0
C1309 C 0.04644 0.19343 0.5102 0.0
C1310 C 0.03305 0.16424 0.50879 0.0
C1311 C 0.08639 0.23039 0.53009 0.0
C1312 C 0.07123 0.24048 0.55322 0.0
C1313 C 0.10933 0.24956 0.51738 0.0
C1314 C 0.12513 0.24065 0.49219 0.0
C1315 C 0.11807 0.25135 0.4655 0.0
C1316 C 0.13397 0.24414 0.44179 0.0
C1317 C 0.15686 0.22612 0.44456 0.0
C1318 C 0.16401 0.21543 0.47106 0.0
C1319 C 0.1484 0.22285 0.49487 0.0
H1320 H 0.16912 0.22052 0.4262 0.0
H1321 H 0.01661 0.3048 0.65139 0.0
H1322 H 0.66005 0.2612 0.48193 0.0
H1323 H 0.64174 0.3068 0.49849 0.0
H1324 H 0.55363 0.25919 0.50936 0.0
H1325 H 0.57196 0.21377 0.49246 0.0
H1326 H 0.54977 0.3115 0.48607 0.0
H1327 H 0.60364 0.27576 0.56487 0.0
H1328 H 0.64696 0.26033 0.59096 0.0
H1329 H 0.69647 0.34565 0.57838 0.0
H1330 H 0.65368 0.36136 0.55169 0.0
H1331 H 0.48124 0.4069 0.57064 0.0
H1332 H 0.50662 0.36397 0.55941 0.0
H1333 H 0.58829 0.42112 0.54406 0.0
H1334 H 0.56319 0.46423 0.55609 0.0
H1335 H 0.59806 0.36642 0.56876 0.0
H1336 H 0.54507 0.40245 0.49033 0.0
H1337 H 0.50133 0.41923 0.46603 0.0
H1338 H 0.45071 0.33444 0.47848 0.0
H1339 H 0.49402 0.3173 0.5033 0.0
C1340 C 0.63667 0.26076 0.48741 0.0
C1341 C 0.61721 0.23434 0.48572 0.0
C1342 C 0.62631 0.28665 0.49715 0.0
C1343 C 0.59642 0.28634 0.50559 0.0
C1344 C 0.57679 0.25997 0.50302 0.0
C1345 C 0.58717 0.2341 0.49328 0.0
C1346 C 0.58544 0.31335 0.51719 0.0
C1347 C 0.56021 0.32329 0.50433 0.0
C1348 C 0.59956 0.32936 0.54053 0.0
C1349 C 0.62558 0.3196 0.55594 0.0
C1350 C 0.6239 0.2911 0.56733 0.0
C1351 C 0.64835 0.28232 0.58229 0.0
C1352 C 0.67449 0.30195 0.58624 0.0
C1353 C 0.67625 0.33042 0.57523 0.0
C1354 C 0.65192 0.33926 0.56017 0.0
C1355 C 0.50491 0.41022 0.56579 0.0
C1356 C 0.52026 0.43883 0.56412 0.0
C1357 C 0.51933 0.38572 0.55926 0.0
C1358 C 0.54921 0.38943 0.55044 0.0
C1359 C 0.56531 0.41779 0.55096 0.0
C1360 C 0.55095 0.44239 0.55784 0.0
C1361 C 0.5623 0.36413 0.53788 0.0
C1362 C 0.58787 0.35466 0.55042 0.0
C1363 C 0.54867 0.34859 0.51415 0.0
C1364 C 0.52271 0.35868 0.49888 0.0
C1365 C 0.52454 0.38745 0.48806 0.0
C1366 C 0.49984 0.39702 0.47418 0.0
C1367 C 0.47324 0.37794 0.47077 0.0
C1368 C 0.47132 0.34921 0.48117 0.0
C1369 C 0.49595 0.33955 0.49513 0.0
H1370 H 0.45413 0.38539 0.46001 0.0
H1371 H 0.69336 0.29514 0.59789 0.0
loop_
_geom_bond_atom_site_label_1
_geom_bond_atom_site_label_2
_geom_bond_distance
_geom_bond_site_symmetry_2
_ccdc_geom_bond_type
H0 C3 0.929 . S
H1 C6 0.929 . S
H2 C8 0.930 . S
C3 H0 0.929 . S
C3 C4 1.398 . S
C3 C5 1.396 . S
C4 C3 1.398 . S
C4 C8 1.407 . S
C5 C3 1.396 . S
C5 C6 1.394 . S
C6 H1 0.929 . S
C6 C5 1.394 . S
C6 C7 1.382 . S
C7 C6 1.382 . S
C7 C8 1.392 . S
C7 N9 1.420 . S
C8 H2 0.930 . S
C8 C4 1.407 . S
C8 C7 1.392 . S
N9 C7 1.420 . S
N9 C10 1.244 . S
C10 N9 1.244 . S
H11 C14 0.929 . S
H12 C17 0.929 . S
H13 C19 0.930 . S
C14 H11 0.929 . S
C14 C15 1.398 . S
C14 C16 1.396 . S
C15 C14 1.398 . S
C15 C19 1.407 . S
C16 C14 1.396 . S
C16 C17 1.394 . S
C17 H12 0.929 . S
C17 C16 1.394 . S
C17 C18 1.382 . S
C18 C17 1.382 . S
C18 C19 1.392 . S
C18 N20 1.420 . S
C19 H13 0.930 . S
C19 C15 1.407 . S
C19 C18 1.392 . S
N20 C18 1.420 . S
N20 C21 1.244 . S
C21 N20 1.244 . S
H22 C25 0.929 . S
H23 C28 0.929 . S
H24 C30 0.930 . S
C25 H22 0.929 . S
C25 C26 1.398 . S
C25 C27 1.396 . S
C26 C25 1.398 . S
C26 C30 1.407 . S
C27 C25 1.396 . S
C27 C28 1.394 . S
C28 H23 0.929 . S
C28 C27 1.394 . S
C28 C29 1.382 . S
C29 C28 1.382 . S
C29 C30 1.392 . S
C29 N31 1.420 . S
C30 H24 0.930 . S
C30 C26 1.407 . S
C30 C29 1.392 . S
N31 C29 1.420 . S
N31 C32 1.244 . S
C32 N31 1.244 . S
H33 C36 0.929 . S
H34 C39 0.929 . S
H35 C41 0.930 . S
C36 H33 0.929 . S
C36 C37 1.398 . S
C36 C38 1.396 . S
C37 C36 1.398 . S
C37 C41 1.407 . S
C38 C36 1.396 . S
C38 C39 1.394 . S
C39 H34 0.929 . S
C39 C38 1.394 . S
C39 C40 1.382 . S
C40 C39 1.382 . S
C40 C41 1.392 . S
C40 N42 1.420 . S
C41 H35 0.930 . S
C41 C37 1.407 . S
C41 C40 1.392 . S
N42 C40 1.420 . S
N42 C43 1.244 . S
C43 N42 1.244 . S
H44 C47 0.929 . S
H45 C50 0.929 . S
H46 C52 0.930 1_545 S
C47 H44 0.929 . S
C47 C48 1.398 . S
C47 C49 1.396 . S
C48 C47 1.398 . S
C48 C52 1.407 . S
C49 C47 1.396 . S
C49 C50 1.394 . S
C50 H45 0.929 . S
C50 C49 1.394 . S
C50 C51 1.382 . S
C51 C50 1.382 . S
C51 C52 1.392 . S
C51 N53 1.420 . S
C52 H46 0.930 1_565 S
C52 C48 1.407 . S
C52 C51 1.392 . S
N53 C51 1.420 . S
N53 C54 1.244 . S
C54 N53 1.244 . S
H55 C58 0.929 . S
H56 C61 0.929 . S
H57 C63 0.930 . S
C58 H55 0.929 . S
C58 C59 1.398 . S
C58 C60 1.396 . S
C59 C58 1.398 . S
C59 C63 1.407 . S
C60 C58 1.396 . S
C60 C61 1.394 . S
C61 H56 0.929 . S
C61 C60 1.394 . S
C61 C62 1.382 . S
C62 C61 1.382 . S
C62 C63 1.392 . S
C62 N64 1.420 . S
C63 H57 0.930 . S
C63 C59 1.407 . S
C63 C62 1.392 . S
N64 C62 1.420 . S
N64 C65 1.244 . S
C65 N64 1.244 . S
H66 C69 0.929 . S
H67 C72 0.929 . S
H68 C74 0.930 . S
C69 H66 0.929 . S
C69 C70 1.398 . S
C69 C71 1.396 . S
C70 C69 1.398 . S
C70 C74 1.407 . S
C71 C69 1.396 . S
C71 C72 1.394 . S
C72 H67 0.929 . S
C72 C71 1.394 . S
C72 C73 1.382 . S
C73 C72 1.382 . S
C73 C74 1.392 . S
C73 N75 1.420 . S
C74 H68 0.930 . S
C74 C70 1.407 . S
C74 C73 1.392 . S
N75 C73 1.420 . S
N75 C76 1.244 . S
C76 N75 1.244 . S
H77 C80 0.929 . S
H78 C83 0.929 . S
H79 C85 0.930 . S
C80 H77 0.929 . S
C80 C81 1.398 . S
C80 C82 1.396 . S
C81 C80 1.398 . S
C81 C85 1.407 . S
C82 C80 1.396 . S
C82 C83 1.394 . S
C83 H78 0.929 . S
C83 C82 1.394 . S
C83 C84 1.382 . S
C84 C83 1.382 . S
C84 C85 1.392 . S
C84 N86 1.420 . S
C85 H79 0.930 . S
C85 C81 1.407 . S
C85 C84 1.392 . S
N86 C84 1.420 . S
N86 C87 1.244 . S
C87 N86 1.244 . S
Zn88 O94 1.920 . S
Zn88 O100 1.898 . S
Zn88 O103 1.905 . S
Zn89 O97 1.905 1_565 S
Zn89 O98 1.898 . S
Zn89 O106 1.920 . S
Zn90 O93 2.080 1_455 S
Zn90 O96 2.114 . S
Zn90 O99 2.120 1_445 S
Zn90 O101 2.120 . S
Zn90 O102 2.114 1_455 S
Zn90 O105 2.080 . S
C91 O96 1.166 . S
C91 O97 1.182 . S
C92 O98 1.167 1_655 S
C92 O99 1.299 . S
O93 Zn90 2.080 1_655 S
O93 C107 1.305 . S
O94 Zn88 1.920 . S
O94 C107 1.234 . S
C95 O100 1.167 1_455 S
C95 O101 1.299 . S
O96 Zn90 2.114 . S
O96 C91 1.166 . S
O97 Zn89 1.905 1_545 S
O97 C91 1.182 . S
O98 Zn89 1.898 . S
O98 C92 1.167 1_455 S
O99 Zn90 2.120 1_665 S
O99 C92 1.299 . S
O100 Zn88 1.898 . S
O100 C95 1.167 1_655 S
O101 Zn90 2.120 . S
O101 C95 1.299 . S
O102 Zn90 2.114 1_655 S
O102 C104 1.166 . S
O103 Zn88 1.905 . S
O103 C104 1.182 . S
C104 O102 1.166 . S
C104 O103 1.182 . S
O105 Zn90 2.080 . S
O105 C108 1.305 . S
O106 Zn89 1.920 . S
O106 C108 1.234 1_565 S
C107 O93 1.305 . S
C107 O94 1.234 . S
C108 O105 1.305 . S
C108 O106 1.234 1_545 S
Zn109 O115 1.920 . S
Zn109 O121 1.898 . S
Zn109 O124 1.905 . S
Zn110 O118 1.905 . S
Zn110 O119 1.898 . S
Zn110 O127 1.920 1_565 S
Zn111 O114 2.080 . S
Zn111 O117 2.114 . S
Zn111 O120 2.120 1_545 S
Zn111 O122 2.120 . S
Zn111 O123 2.114 . S
Zn111 O126 2.080 . S
C112 O117 1.166 . S
C112 O118 1.182 1_545 S
C113 O119 1.167 . S
C113 O120 1.299 . S
O114 Zn111 2.080 . S
O114 C128 1.305 . S
O115 Zn109 1.920 . S
O115 C128 1.234 . S
C116 O121 1.167 . S
C116 O122 1.299 . S
O117 Zn111 2.114 . S
O117 C112 1.166 . S
O118 Zn110 1.905 . S
O118 C112 1.182 1_565 S
O119 Zn110 1.898 . S
O119 C113 1.167 . S
O120 Zn111 2.120 1_565 S
O120 C113 1.299 . S
O121 Zn109 1.898 . S
O121 C116 1.167 . S
O122 Zn111 2.120 . S
O122 C116 1.299 . S
O123 Zn111 2.114 . S
O123 C125 1.166 . S
O124 Zn109 1.905 . S
O124 C125 1.182 . S
C125 O123 1.166 . S
C125 O124 1.182 . S
O126 Zn111 2.080 . S
O126 C129 1.305 . S
O127 Zn110 1.920 1_545 S
O127 C129 1.234 . S
C128 O114 1.305 . S
C128 O115 1.234 . S
C129 O126 1.305 . S
C129 O127 1.234 . S
Zn130 O136 1.920 . S
Zn130 O142 1.898 . S
Zn130 O145 1.905 . S
Zn131 O139 1.905 . S
Zn131 O140 1.898 . S
Zn131 O148 1.920 . S
Zn132 O135 2.080 . S
Zn132 O138 2.114 . S
Zn132 O141 2.120 . S
Zn132 O143 2.120 . S
Zn132 O144 2.114 . S
Zn132 O147 2.080 . S
C133 O138 1.166 . S
C133 O139 1.182 . S
C134 O140 1.167 . S
C134 O141 1.299 . S
O135 Zn132 2.080 . S
O135 C149 1.305 . S
O136 Zn130 1.920 . S
O136 C149 1.234 . S
C137 O142 1.167 . S
C137 O143 1.299 . S
O138 Zn132 2.114 . S
O138 C133 1.166 . S
O139 Zn131 1.905 . S
O139 C133 1.182 . S
O140 Zn131 1.898 . S
O140 C134 1.167 . S
O141 Zn132 2.120 . S
O141 C134 1.299 . S
O142 Zn130 1.898 . S
O142 C137 1.167 . S
O143 Zn132 2.120 . S
O143 C137 1.299 . S
O144 Zn132 2.114 . S
O144 C146 1.166 . S
O145 Zn130 1.905 . S
O145 C146 1.182 . S
C146 O144 1.166 . S
C146 O145 1.182 . S
O147 Zn132 2.080 . S
O147 C150 1.305 . S
O148 Zn131 1.920 . S
O148 C150 1.234 . S
C149 O135 1.305 . S
C149 O136 1.234 . S
C150 O147 1.305 . S
C150 O148 1.234 . S
Zn151 O157 1.920 . S
Zn151 O163 1.898 . S
Zn151 O166 1.905 . S
Zn152 O160 1.905 1_655 S
Zn152 O161 1.898 . S
Zn152 O169 1.920 . S
Zn153 O156 2.080 1_554 S
Zn153 O159 2.114 . S
Zn153 O162 2.130 1_455 S
Zn153 O164 2.120 . S
Zn153 O165 2.114 1_554 S
Zn153 O168 2.080 . S
C154 O159 1.166 . S
C154 O160 1.182 . S
C155 O161 1.143 1_556 S
C155 O162 1.297 1_556 S
O156 Zn153 2.080 1_556 S
O156 C170 1.305 . S
O157 Zn151 1.920 . S
O157 C170 1.234 . S
C158 O163 1.167 1_554 S
C158 O164 1.299 . S
O159 Zn153 2.114 . S
O159 C154 1.166 . S
O160 Zn152 1.905 1_455 S
O160 C154 1.182 . S
O161 Zn152 1.898 . S
O161 C155 1.143 1_554 S
O162 Zn153 2.130 1_655 S
O162 C155 1.297 1_554 S
O163 Zn151 1.898 . S
O163 C158 1.167 1_556 S
O164 Zn153 2.120 . S
O164 C158 1.299 . S
O165 Zn153 2.114 1_556 S
O165 C167 1.166 . S
O166 Zn151 1.905 . S
O166 C167 1.182 . S
C167 O165 1.166 . S
C167 O166 1.182 . S
O168 Zn153 2.080 . S
O168 C171 1.325 . S
O169 Zn152 1.920 . S
O169 C171 1.221 1_655 S
C170 O156 1.305 . S
C170 O157 1.234 . S
C171 O168 1.325 . S
C171 O169 1.221 1_455 S
H172 C190 0.951 . S
H173 C192 0.951 . S
H174 C194 0.950 . S
H175 C195 0.950 . S
H176 C197 0.950 . S
H177 C200 0.950 . S
H178 C201 0.950 . S
H179 C203 0.950 . S
H180 C204 0.950 . S
H181 C205 0.951 . S
H182 C207 0.951 . S
H183 C209 0.950 . S
H184 C210 0.950 . S
H185 C212 0.950 . S
H186 C215 0.950 . S
H187 C216 0.962 . S
H188 C218 0.950 . S
H189 C219 0.950 . S
C190 H172 0.951 . S
C190 C191 1.366 . S
C190 C192 1.388 . S
C191 C190 1.366 . S
C191 C195 1.385 . S
C192 H173 0.951 . S
C192 C190 1.388 . S
C192 C193 1.366 . S
C193 C192 1.366 . S
C193 C194 1.414 . S
C193 C196 1.499 . S
C194 H174 0.950 . S
C194 C193 1.414 . S
C194 C195 1.374 . S
C195 H175 0.950 . S
C195 C191 1.385 . S
C195 C194 1.374 . S
C196 C193 1.499 . S
C196 C197 1.373 . S
C196 C198 1.389 . S
C197 H176 0.950 . S
C197 C196 1.373 . S
C197 C213 1.377 . S
C198 C196 1.389 . S
C198 C199 1.524 . S
C198 C212 1.377 . S
C199 C198 1.524 . S
C199 C200 1.397 . S
C199 C204 1.363 . S
C200 H177 0.950 . S
C200 C199 1.397 . S
C200 C201 1.334 . S
C201 H178 0.950 . S
C201 C200 1.334 . S
C201 C202 1.287 . S
C202 C201 1.287 . S
C202 C203 1.524 . S
C202 H221 0.913 . S
C203 H179 0.950 . S
C203 C202 1.524 . S
C203 C204 1.415 . S
C204 H180 0.950 . S
C204 C199 1.363 . S
C204 C203 1.415 . S
C205 H181 0.951 . S
C205 C206 1.366 . S
C205 C207 1.388 . S
C206 C205 1.366 . S
C206 C210 1.385 . S
C207 H182 0.951 . S
C207 C205 1.388 . S
C207 C208 1.366 . S
C208 C207 1.366 . S
C208 C209 1.414 . S
C208 C211 1.499 . S
C209 H183 0.950 . S
C209 C208 1.414 . S
C209 C210 1.374 . S
C210 H184 0.950 . S
C210 C206 1.385 . S
C210 C209 1.374 . S
C211 C208 1.499 . S
C211 C212 1.373 . S
C211 C213 1.389 . S
C212 H185 0.950 . S
C212 C198 1.377 . S
C212 C211 1.373 . S
C213 C197 1.377 . S
C213 C211 1.389 . S
C213 C214 1.524 . S
C214 C213 1.524 . S
C214 C215 1.397 . S
C214 C219 1.363 . S
C215 H186 0.950 . S
C215 C214 1.397 . S
C215 C216 1.334 . S
C216 H187 0.962 . S
C216 C215 1.334 . S
C216 C217 1.287 1_455 S
C217 C216 1.287 1_655 S
C217 C218 1.524 . S
C217 H220 0.999 . S
C218 H188 0.950 . S
C218 C217 1.524 . S
C218 C219 1.415 1_655 S
C219 H189 0.950 . S
C219 C214 1.363 . S
C219 C218 1.415 1_455 S
H220 C217 0.999 . S
H221 C202 0.913 . S
H222 C240 0.951 . S
H223 C242 0.951 . S
H224 C244 0.950 . S
H225 C245 0.950 . S
H226 C247 0.950 . S
H227 C250 0.950 . S
H228 C251 0.950 . S
H229 C253 0.950 . S
H230 C254 0.950 . S
H231 C255 0.951 . S
H232 C257 0.951 . S
H233 C259 0.950 . S
H234 C260 0.950 . S
H235 C262 0.950 . S
H236 C265 0.950 . S
H237 C266 0.950 . S
H238 C268 0.950 . S
H239 C269 0.950 . S
C240 H222 0.951 . S
C240 C241 1.366 . S
C240 C242 1.388 . S
C241 C240 1.366 . S
C241 C245 1.385 . S
C242 H223 0.951 . S
C242 C240 1.388 . S
C242 C243 1.366 . S
C243 C242 1.366 . S
C243 C244 1.414 . S
C243 C246 1.499 . S
C244 H224 0.950 . S
C244 C243 1.414 . S
C244 C245 1.374 . S
C245 H225 0.950 . S
C245 C241 1.385 . S
C245 C244 1.374 . S
C246 C243 1.499 . S
C246 C247 1.373 . S
C246 C248 1.389 . S
C247 H226 0.950 . S
C247 C246 1.373 . S
C247 C263 1.377 . S
C248 C246 1.389 . S
C248 C249 1.524 . S
C248 C262 1.377 . S
C249 C248 1.524 . S
C249 C250 1.397 . S
C249 C254 1.363 . S
C250 H227 0.950 . S
C250 C249 1.397 . S
C250 C251 1.334 . S
C251 H228 0.950 . S
C251 C250 1.334 . S
C251 C252 1.287 . S
C252 C251 1.287 . S
C252 C253 1.524 . S
C252 H271 0.913 . S
C253 H229 0.950 . S
C253 C252 1.524 . S
C253 C254 1.415 . S
C254 H230 0.950 . S
C254 C249 1.363 . S
C254 C253 1.415 . S
C255 H231 0.951 . S
C255 C256 1.366 . S
C255 C257 1.388 . S
C256 C255 1.366 . S
C256 C260 1.385 . S
C257 H232 0.951 . S
C257 C255 1.388 . S
C257 C258 1.366 . S
C258 C257 1.366 . S
C258 C259 1.414 . S
C258 C261 1.499 . S
C259 H233 0.950 . S
C259 C258 1.414 . S
C259 C260 1.374 . S
C260 H234 0.950 . S
C260 C256 1.385 . S
C260 C259 1.374 . S
C261 C258 1.499 . S
C261 C262 1.373 . S
C261 C263 1.389 . S
C262 H235 0.950 . S
C262 C248 1.377 . S
C262 C261 1.373 . S
C263 C247 1.377 . S
C263 C261 1.389 . S
C263 C264 1.524 . S
C264 C263 1.524 . S
C264 C265 1.397 1_565 S
C264 C269 1.363 . S
C265 H236 0.950 . S
C265 C264 1.397 1_545 S
C265 C266 1.334 . S
C266 H237 0.950 . S
C266 C265 1.334 . S
C266 C267 1.287 . S
C267 C266 1.287 . S
C267 C268 1.524 . S
C267 H270 0.999 . S
C268 H238 0.950 . S
C268 C267 1.524 . S
C268 C269 1.415 1_545 S
C269 H239 0.950 . S
C269 C264 1.363 . S
C269 C268 1.415 1_565 S
H270 C267 0.999 . S
H271 C252 0.913 . S
H272 C290 0.951 . S
H273 C292 0.951 . S
H274 C294 0.950 . S
H275 C295 0.950 . S
H276 C297 0.950 . S
H277 C300 0.950 . S
H278 C301 0.950 . S
H279 C303 0.950 . S
H280 C304 0.950 . S
H281 C305 0.951 . S
H282 C307 0.951 . S
H283 C309 0.950 . S
H284 C310 0.950 . S
H285 C312 0.950 . S
H286 C315 0.950 . S
H287 C316 0.950 . S
H288 C318 0.950 . S
H289 C319 0.950 . S
C290 H272 0.951 . S
C290 C291 1.366 . S
C290 C292 1.388 . S
C291 C290 1.366 . S
C291 C295 1.385 . S
C292 H273 0.951 . S
C292 C290 1.388 . S
C292 C293 1.366 . S
C293 C292 1.366 . S
C293 C294 1.414 . S
C293 C296 1.499 . S
C294 H274 0.950 . S
C294 C293 1.414 . S
C294 C295 1.374 . S
C295 H275 0.950 . S
C295 C291 1.385 . S
C295 C294 1.374 . S
C296 C293 1.499 . S
C296 C297 1.373 . S
C296 C298 1.389 . S
C297 H276 0.950 . S
C297 C296 1.373 . S
C297 C313 1.377 . S
C298 C296 1.389 . S
C298 C299 1.524 . S
C298 C312 1.377 . S
C299 C298 1.524 . S
C299 C300 1.397 . S
C299 C304 1.363 . S
C300 H277 0.950 . S
C300 C299 1.397 . S
C300 C301 1.334 . S
C301 H278 0.950 . S
C301 C300 1.334 . S
C301 C302 1.287 . S
C302 C301 1.287 . S
C302 C303 1.524 . S
C302 H321 0.913 . S
C303 H279 0.950 . S
C303 C302 1.524 . S
C303 C304 1.415 . S
C304 H280 0.950 . S
C304 C299 1.363 . S
C304 C303 1.415 . S
C305 H281 0.951 . S
C305 C306 1.366 . S
C305 C307 1.388 . S
C306 C305 1.366 . S
C306 C310 1.385 . S
C307 H282 0.951 . S
C307 C305 1.388 . S
C307 C308 1.366 . S
C308 C307 1.366 . S
C308 C309 1.414 . S
C308 C311 1.499 . S
C309 H283 0.950 . S
C309 C308 1.414 . S
C309 C310 1.374 . S
C310 H284 0.950 . S
C310 C306 1.385 . S
C310 C309 1.374 . S
C311 C308 1.499 . S
C311 C312 1.373 . S
C311 C313 1.389 . S
C312 H285 0.950 . S
C312 C298 1.377 . S
C312 C311 1.373 . S
C313 C297 1.377 . S
C313 C311 1.389 . S
C313 C314 1.524 . S
C314 C313 1.524 . S
C314 C315 1.397 . S
C314 C319 1.363 . S
C315 H286 0.950 . S
C315 C314 1.397 . S
C315 C316 1.334 . S
C316 H287 0.950 . S
C316 C315 1.334 . S
C316 C317 1.287 . S
C317 C316 1.287 . S
C317 C318 1.524 . S
C317 H320 0.999 . S
C318 H288 0.950 . S
C318 C317 1.524 . S
C318 C319 1.415 . S
C319 H289 0.950 . S
C319 C314 1.363 . S
C319 C318 1.415 . S
H320 C317 0.999 . S
H321 C302 0.913 . S
H322 C340 0.951 . S
H323 C342 0.951 . S
H324 C344 0.950 . S
H325 C345 0.950 . S
H326 C347 0.950 . S
H327 C350 0.950 . S
H328 C351 0.950 . S
H329 C353 0.950 . S
H330 C354 0.950 1_455 S
H331 C355 0.951 . S
H332 C357 0.951 . S
H333 C359 0.950 1_455 S
H334 C360 0.950 . S
H335 C362 0.950 . S
H336 C365 0.950 . S
H337 C366 0.950 . S
H338 C368 0.950 . S
H339 C369 0.950 . S
C340 H322 0.951 . S
C340 C341 1.366 . S
C340 C342 1.388 . S
C341 C340 1.366 . S
C341 C345 1.385 . S
C342 H323 0.951 . S
C342 C340 1.388 . S
C342 C343 1.366 . S
C343 C342 1.366 . S
C343 C344 1.414 . S
C343 C346 1.499 . S
C344 H324 0.950 . S
C344 C343 1.414 . S
C344 C345 1.374 . S
C345 H325 0.950 . S
C345 C341 1.385 . S
C345 C344 1.374 . S
C346 C343 1.499 . S
C346 C347 1.373 . S
C346 C348 1.389 . S
C347 H326 0.950 . S
C347 C346 1.373 . S
C347 C363 1.377 . S
C348 C346 1.389 . S
C348 C349 1.524 . S
C348 C362 1.377 . S
C349 C348 1.524 . S
C349 C350 1.397 . S
C349 C354 1.363 . S
C350 H327 0.950 . S
C350 C349 1.397 . S
C350 C351 1.334 . S
C351 H328 0.950 . S
C351 C350 1.334 . S
C351 C352 1.287 . S
C352 C351 1.287 . S
C352 C353 1.524 1_655 S
C352 H371 0.913 . S
C353 H329 0.950 . S
C353 C352 1.524 1_455 S
C353 C354 1.415 1_455 S
C354 H330 0.950 1_655 S
C354 C349 1.363 . S
C354 C353 1.415 1_655 S
C355 H331 0.951 . S
C355 C356 1.366 . S
C355 C357 1.388 . S
C356 C355 1.366 . S
C356 C360 1.385 1_655 S
C357 H332 0.951 . S
C357 C355 1.388 . S
C357 C358 1.366 . S
C358 C357 1.366 . S
C358 C359 1.414 . S
C358 C361 1.499 . S
C359 H333 0.950 1_655 S
C359 C358 1.414 . S
C359 C360 1.374 1_655 S
C360 H334 0.950 . S
C360 C356 1.385 1_455 S
C360 C359 1.374 1_455 S
C361 C358 1.499 . S
C361 C362 1.373 . S
C361 C363 1.389 . S
C362 H335 0.950 . S
C362 C348 1.377 . S
C362 C361 1.373 . S
C363 C347 1.377 . S
C363 C361 1.389 . S
C363 C364 1.524 . S
C364 C363 1.524 . S
C364 C365 1.397 . S
C364 C369 1.363 . S
C365 H336 0.950 . S
C365 C364 1.397 . S
C365 C366 1.334 . S
C366 H337 0.950 . S
C366 C365 1.334 . S
C366 C367 1.287 . S
C367 C366 1.287 . S
C367 C368 1.524 . S
C367 H370 0.999 . S
C368 H338 0.950 . S
C368 C367 1.524 . S
C368 C369 1.415 . S
C369 H339 0.950 . S
C369 C364 1.363 . S
C369 C368 1.415 . S
H370 C367 0.999 . S
H371 C352 0.913 . S
H372 C390 0.951 . S
H373 C392 0.951 . S
H374 C394 0.950 . S
H375 C395 0.950 . S
H376 C397 0.950 . S
H377 C400 0.950 . S
H378 C401 0.950 . S
H379 C403 0.950 . S
H380 C404 0.950 . S
H381 C405 0.951 . S
H382 C407 0.951 . S
H383 C409 0.950 . S
H384 C410 0.950 . S
H385 C412 0.950 . S
H386 C415 0.950 . S
H387 C416 0.950 . S
H388 C418 0.950 . S
H389 C419 0.950 . S
C390 H372 0.951 . S
C390 C391 1.366 . S
C390 C392 1.388 . S
C391 C390 1.366 . S
C391 C395 1.385 . S
C392 H373 0.951 . S
C392 C390 1.388 . S
C392 C393 1.366 . S
C393 C392 1.366 . S
C393 C394 1.414 . S
C393 C396 1.499 . S
C394 H374 0.950 . S
C394 C393 1.414 . S
C394 C395 1.374 . S
C395 H375 0.950 . S
C395 C391 1.385 . S
C395 C394 1.374 . S
C396 C393 1.499 . S
C396 C397 1.373 . S
C396 C398 1.389 . S
C397 H376 0.950 . S
C397 C396 1.373 . S
C397 C413 1.377 . S
C398 C396 1.389 . S
C398 C399 1.524 . S
C398 C412 1.377 . S
C399 C398 1.524 . S
C399 C400 1.397 . S
C399 C404 1.363 . S
C400 H377 0.950 . S
C400 C399 1.397 . S
C400 C401 1.334 . S
C401 H378 0.950 . S
C401 C400 1.334 . S
C401 C402 1.287 . S
C402 C401 1.287 . S
C402 C403 1.524 . S
C402 H421 0.913 . S
C403 H379 0.950 . S
C403 C402 1.524 . S
C403 C404 1.415 . S
C404 H380 0.950 . S
C404 C399 1.363 . S
C404 C403 1.415 . S
C405 H381 0.951 . S
C405 C406 1.366 . S
C405 C407 1.388 . S
C406 C405 1.366 . S
C406 C410 1.385 . S
C407 H382 0.951 . S
C407 C405 1.388 . S
C407 C408 1.366 . S
C408 C407 1.366 . S
C408 C409 1.414 . S
C408 C411 1.499 . S
C409 H383 0.950 . S
C409 C408 1.414 . S
C409 C410 1.374 . S
C410 H384 0.950 . S
C410 C406 1.385 . S
C410 C409 1.374 . S
C411 C408 1.499 . S
C411 C412 1.373 . S
C411 C413 1.389 . S
C412 H385 0.950 . S
C412 C398 1.377 . S
C412 C411 1.373 . S
C413 C397 1.377 . S
C413 C411 1.389 . S
C413 C414 1.524 . S
C414 C413 1.524 . S
C414 C415 1.397 . S
C414 C419 1.363 . S
C415 H386 0.950 . S
C415 C414 1.397 . S
C415 C416 1.334 . S
C416 H387 0.950 . S
C416 C415 1.334 . S
C416 C417 1.287 . S
C417 C416 1.287 . S
C417 C418 1.524 . S
C417 H420 0.999 . S
C418 H388 0.950 . S
C418 C417 1.524 . S
C418 C419 1.415 . S
C419 H389 0.950 . S
C419 C414 1.363 . S
C419 C418 1.415 . S
H420 C417 0.999 . S
H421 C402 0.913 . S
H422 C440 0.951 . S
H423 C442 0.951 . S
H424 C444 0.950 . S
H425 C445 0.950 . S
H426 C447 0.950 . S
H427 C450 0.950 . S
H428 C451 0.950 . S
H429 C453 0.950 . S
H430 C454 0.950 . S
H431 C455 0.951 . S
H432 C457 0.951 . S
H433 C459 0.950 . S
H434 C460 0.950 . S
H435 C462 0.950 . S
H436 C465 0.950 . S
H437 C466 0.950 . S
H438 C468 0.950 . S
H439 C469 0.950 . S
C440 H422 0.951 . S
C440 C441 1.366 . S
C440 C442 1.388 . S
C441 C440 1.366 . S
C441 C445 1.385 . S
C442 H423 0.951 . S
C442 C440 1.388 . S
C442 C443 1.366 . S
C443 C442 1.366 . S
C443 C444 1.414 . S
C443 C446 1.499 . S
C444 H424 0.950 . S
C444 C443 1.414 . S
C444 C445 1.374 . S
C445 H425 0.950 . S
C445 C441 1.385 . S
C445 C444 1.374 . S
C446 C443 1.499 . S
C446 C447 1.373 . S
C446 C448 1.389 . S
C447 H426 0.950 . S
C447 C446 1.373 . S
C447 C463 1.377 . S
C448 C446 1.389 . S
C448 C449 1.524 . S
C448 C462 1.377 . S
C449 C448 1.524 . S
C449 C450 1.397 . S
C449 C454 1.363 . S
C450 H427 0.950 . S
C450 C449 1.397 . S
C450 C451 1.334 . S
C451 H428 0.950 . S
C451 C450 1.334 . S
C451 C452 1.287 . S
C452 C451 1.287 . S
C452 C453 1.524 . S
C452 H471 0.913 . S
C453 H429 0.950 . S
C453 C452 1.524 . S
C453 C454 1.415 . S
C454 H430 0.950 . S
C454 C449 1.363 . S
C454 C453 1.415 . S
C455 H431 0.951 . S
C455 C456 1.347 1_545 S
C455 C457 1.388 . S
C456 C455 1.347 1_565 S
C456 C460 1.422 . S
C457 H432 0.951 . S
C457 C455 1.388 . S
C457 C458 1.366 1_545 S
C458 C457 1.366 1_565 S
C458 C459 1.414 . S
C458 C461 1.499 . S
C459 H433 0.950 . S
C459 C458 1.414 . S
C459 C460 1.374 . S
C460 H434 0.950 . S
C460 C456 1.422 . S
C460 C459 1.374 . S
C461 C458 1.499 . S
C461 C462 1.373 . S
C461 C463 1.389 . S
C462 H435 0.950 . S
C462 C448 1.377 . S
C462 C461 1.373 . S
C463 C447 1.377 . S
C463 C461 1.389 . S
C463 C464 1.524 . S
C464 C463 1.524 . S
C464 C465 1.397 . S
C464 C469 1.363 1_565 S
C465 H436 0.950 . S
C465 C464 1.397 . S
C465 C466 1.334 . S
C466 H437 0.950 . S
C466 C465 1.334 . S
C466 C467 1.287 1_565 S
C467 C466 1.287 1_545 S
C467 C468 1.524 . S
C467 H470 0.999 . S
C468 H438 0.950 . S
C468 C467 1.524 . S
C468 C469 1.415 . S
C469 H439 0.950 . S
C469 C464 1.363 1_545 S
C469 C468 1.415 . S
H470 C467 0.999 . S
H471 C452 0.913 . S
H472 C490 0.951 . S
H473 C492 0.951 . S
H474 C494 0.950 . S
H475 C495 0.950 . S
H476 C497 0.950 . S
H477 C500 0.950 . S
H478 C501 0.950 . S
H479 C503 0.950 1_554 S
H480 C504 0.950 . S
H481 C505 0.951 . S
H482 C507 0.951 . S
H483 C509 0.946 1_554 S
H484 C510 0.950 1_554 S
H485 C512 0.950 . S
H486 C515 0.950 . S
H487 C516 0.950 . S
H488 C518 0.950 . S
H489 C519 0.950 . S
C490 H472 0.951 . S
C490 C491 1.366 . S
C490 C492 1.388 . S
C491 C490 1.366 . S
C491 C495 1.385 . S
C492 H473 0.951 . S
C492 C490 1.388 . S
C492 C493 1.366 . S
C493 C492 1.366 . S
C493 C494 1.414 . S
C493 C496 1.499 . S
C494 H474 0.950 . S
C494 C493 1.414 . S
C494 C495 1.374 . S
C495 H475 0.950 . S
C495 C491 1.385 . S
C495 C494 1.374 . S
C496 C493 1.499 . S
C496 C497 1.373 . S
C496 C498 1.389 . S
C497 H476 0.950 . S
C497 C496 1.373 . S
C497 C513 1.377 . S
C498 C496 1.389 . S
C498 C499 1.524 . S
C498 C512 1.377 . S
C499 C498 1.524 . S
C499 C500 1.397 . S
C499 C504 1.363 . S
C500 H477 0.950 . S
C500 C499 1.397 . S
C500 C501 1.334 . S
C501 H478 0.950 . S
C501 C500 1.334 . S
C501 C502 1.287 . S
C502 C501 1.287 . S
C502 C503 1.524 . S
C502 H521 0.913 . S
C503 H479 0.950 1_556 S
C503 C502 1.524 . S
C503 C504 1.415 . S
C504 H480 0.950 . S
C504 C499 1.363 . S
C504 C503 1.415 . S
C505 H481 0.951 . S
C505 C506 1.366 . S
C505 C507 1.388 . S
C506 C505 1.366 . S
C506 C510 1.385 . S
C507 H482 0.951 . S
C507 C505 1.388 . S
C507 C508 1.366 . S
C508 C507 1.366 . S
C508 C509 1.414 . S
C508 C511 1.499 . S
C509 H483 0.946 1_556 S
C509 C508 1.414 . S
C509 C510 1.374 . S
C510 H484 0.950 1_556 S
C510 C506 1.385 . S
C510 C509 1.374 . S
C511 C508 1.499 . S
C511 C512 1.373 . S
C511 C513 1.389 . S
C512 H485 0.950 . S
C512 C498 1.377 . S
C512 C511 1.373 . S
C513 C497 1.377 . S
C513 C511 1.389 . S
C513 C514 1.524 . S
C514 C513 1.524 . S
C514 C515 1.397 . S
C514 C519 1.363 . S
C515 H486 0.950 . S
C515 C514 1.397 . S
C515 C516 1.334 . S
C516 H487 0.950 . S
C516 C515 1.334 . S
C516 C517 1.287 . S
C517 C516 1.287 . S
C517 C518 1.524 . S
C517 H520 0.999 . S
C518 H488 0.950 . S
C518 C517 1.524 . S
C518 C519 1.415 . S
C519 H489 0.950 . S
C519 C514 1.363 . S
C519 C518 1.415 . S
H520 C517 0.999 . S
H521 C502 0.913 . S
H522 C540 0.951 . S
H523 C542 0.951 . S
H524 C544 0.950 . S
H525 C545 0.950 . S
H526 C547 0.950 . S
H527 C550 0.950 . S
H528 C551 0.950 . S
H529 C553 0.950 . S
H530 C554 0.950 . S
H531 C555 0.951 . S
H532 C557 0.951 . S
H533 C559 0.950 . S
H534 C560 0.950 . S
H535 C562 0.950 . S
H536 C565 0.950 . S
H537 C566 0.950 . S
H538 C568 0.950 . S
H539 C569 0.950 . S
C540 H522 0.951 . S
C540 C541 1.366 . S
C540 C542 1.388 . S
C541 C540 1.366 . S
C541 C545 1.385 . S
C542 H523 0.951 . S
C542 C540 1.388 . S
C542 C543 1.366 . S
C543 C542 1.366 . S
C543 C544 1.414 . S
C543 C546 1.499 . S
C544 H524 0.950 . S
C544 C543 1.414 . S
C544 C545 1.374 . S
C545 H525 0.950 . S
C545 C541 1.385 . S
C545 C544 1.374 . S
C546 C543 1.499 . S
C546 C547 1.373 . S
C546 C548 1.389 . S
C547 H526 0.950 . S
C547 C546 1.373 . S
C547 C563 1.377 . S
C548 C546 1.389 . S
C548 C549 1.524 . S
C548 C562 1.377 . S
C549 C548 1.524 . S
C549 C550 1.397 . S
C549 C554 1.363 . S
C550 H527 0.950 . S
C550 C549 1.397 . S
C550 C551 1.334 . S
C551 H528 0.950 . S
C551 C550 1.334 . S
C551 C552 1.287 . S
C552 C551 1.287 . S
C552 C553 1.524 . S
C552 H571 0.913 . S
C553 H529 0.950 . S
C553 C552 1.524 . S
C553 C554 1.415 . S
C554 H530 0.950 . S
C554 C549 1.363 . S
C554 C553 1.415 . S
C555 H531 0.951 . S
C555 C556 1.366 . S
C555 C557 1.388 . S
C556 C555 1.366 . S
C556 C560 1.385 . S
C557 H532 0.951 . S
C557 C555 1.388 . S
C557 C558 1.366 . S
C558 C557 1.366 . S
C558 C559 1.414 . S
C558 C561 1.499 . S
C559 H533 0.950 . S
C559 C558 1.414 . S
C559 C560 1.374 . S
C560 H534 0.950 . S
C560 C556 1.385 . S
C560 C559 1.374 . S
C561 C558 1.499 . S
C561 C562 1.373 . S
C561 C563 1.389 . S
C562 H535 0.950 . S
C562 C548 1.377 . S
C562 C561 1.373 . S
C563 C547 1.377 . S
C563 C561 1.389 . S
C563 C564 1.524 . S
C564 C563 1.524 . S
C564 C565 1.397 . S
C564 C569 1.363 . S
C565 H536 0.950 . S
C565 C564 1.397 . S
C565 C566 1.334 . S
C566 H537 0.950 . S
C566 C565 1.334 . S
C566 C567 1.287 . S
C567 C566 1.287 . S
C567 C568 1.524 . S
C567 H570 0.999 . S
C568 H538 0.950 . S
C568 C567 1.524 . S
C568 C569 1.415 . S
C569 H539 0.950 . S
C569 C564 1.363 . S
C569 C568 1.415 . S
H570 C567 0.999 . S
H571 C552 0.913 . S
H572 C590 0.951 . S
H573 C592 0.951 . S
H574 C594 0.950 . S
H575 C595 0.950 . S
H576 C597 0.950 . S
H577 C600 0.950 . S
H578 C601 0.950 . S
H579 C603 0.950 . S
H580 C604 0.950 . S
H581 C605 0.951 . S
H582 C607 0.951 . S
H583 C609 0.950 . S
H584 C610 0.950 . S
H585 C612 0.950 . S
H586 C615 0.950 . S
H587 C616 0.950 . S
H588 C618 0.966 . S
H589 C619 0.950 . S
C590 H572 0.951 . S
C590 C591 1.366 . S
C590 C592 1.388 . S
C591 C590 1.366 . S
C591 C595 1.385 . S
C592 H573 0.951 . S
C592 C590 1.388 . S
C592 C593 1.366 . S
C593 C592 1.366 . S
C593 C594 1.414 . S
C593 C596 1.499 . S
C594 H574 0.950 . S
C594 C593 1.414 . S
C594 C595 1.374 . S
C595 H575 0.950 . S
C595 C591 1.385 . S
C595 C594 1.374 . S
C596 C593 1.499 . S
C596 C597 1.373 . S
C596 C598 1.389 . S
C597 H576 0.950 . S
C597 C596 1.373 . S
C597 C613 1.377 . S
C598 C596 1.389 . S
C598 C599 1.524 . S
C598 C612 1.377 . S
C599 C598 1.524 . S
C599 C600 1.397 . S
C599 C604 1.363 . S
C600 H577 0.950 . S
C600 C599 1.397 . S
C600 C601 1.334 . S
C601 H578 0.950 . S
C601 C600 1.334 . S
C601 C602 1.287 . S
C602 C601 1.287 . S
C602 C603 1.524 . S
C602 H621 0.913 . S
C603 H579 0.950 . S
C603 C602 1.524 . S
C603 C604 1.415 . S
C604 H580 0.950 . S
C604 C599 1.363 . S
C604 C603 1.415 . S
C605 H581 0.951 . S
C605 C606 1.366 . S
C605 C607 1.388 . S
C606 C605 1.366 . S
C606 C610 1.385 . S
C607 H582 0.951 . S
C607 C605 1.388 . S
C607 C608 1.366 . S
C608 C607 1.366 . S
C608 C609 1.414 . S
C608 C611 1.499 . S
C609 H583 0.950 . S
C609 C608 1.414 . S
C609 C610 1.374 . S
C610 H584 0.950 . S
C610 C606 1.385 . S
C610 C609 1.374 . S
C611 C608 1.499 . S
C611 C612 1.373 . S
C611 C613 1.389 . S
C612 H585 0.950 . S
C612 C598 1.377 . S
C612 C611 1.373 . S
C613 C597 1.377 . S
C613 C611 1.389 . S
C613 C614 1.524 . S
C614 C613 1.524 . S
C614 C615 1.397 . S
C614 C619 1.363 . S
C615 H586 0.950 . S
C615 C614 1.397 . S
C615 C616 1.334 . S
C616 H587 0.950 . S
C616 C615 1.334 . S
C616 C617 1.287 1_554 S
C617 C616 1.287 1_556 S
C617 C618 1.526 . S
C617 H620 0.999 . S
C618 H588 0.966 . S
C618 C617 1.526 . S
C618 C619 1.394 1_556 S
C619 H589 0.950 . S
C619 C614 1.363 . S
C619 C618 1.394 1_554 S
H620 C617 0.999 . S
H621 C602 0.913 . S
H622 C640 0.951 . S
H623 C642 0.951 . S
H624 C644 0.950 . S
H625 C645 0.950 . S
H626 C647 0.950 . S
H627 C650 0.950 . S
H628 C651 0.950 . S
H629 C653 0.950 . S
H630 C654 0.950 . S
H631 C655 0.951 . S
H632 C657 0.951 . S
H633 C659 0.950 . S
H634 C660 0.950 . S
H635 C662 0.950 . S
H636 C665 0.950 . S
H637 C666 0.950 . S
H638 C668 0.950 . S
H639 C669 0.950 . S
C640 H622 0.951 . S
C640 C641 1.366 . S
C640 C642 1.388 . S
C641 C640 1.366 . S
C641 C645 1.385 . S
C642 H623 0.951 . S
C642 C640 1.388 . S
C642 C643 1.366 . S
C643 C642 1.366 . S
C643 C644 1.414 . S
C643 C646 1.499 . S
C644 H624 0.950 . S
C644 C643 1.414 . S
C644 C645 1.374 . S
C645 H625 0.950 . S
C645 C641 1.385 . S
C645 C644 1.374 . S
C646 C643 1.499 . S
C646 C647 1.373 . S
C646 C648 1.389 . S
C647 H626 0.950 . S
C647 C646 1.373 . S
C647 C663 1.377 . S
C648 C646 1.389 . S
C648 C649 1.524 . S
C648 C662 1.377 . S
C649 C648 1.524 . S
C649 C650 1.397 . S
C649 C654 1.363 . S
C650 H627 0.950 . S
C650 C649 1.397 . S
C650 C651 1.334 1_556 S
C651 H628 0.950 . S
C651 C650 1.334 1_554 S
C651 C652 1.287 . S
C652 C651 1.287 . S
C652 C653 1.524 . S
C652 H671 0.913 . S
C653 H629 0.950 . S
C653 C652 1.524 . S
C653 C654 1.415 1_554 S
C654 H630 0.950 . S
C654 C649 1.363 . S
C654 C653 1.415 1_556 S
C655 H631 0.951 . S
C655 C656 1.366 . S
C655 C657 1.388 1_554 S
C656 C655 1.366 . S
C656 C660 1.385 . S
C657 H632 0.951 . S
C657 C655 1.388 1_556 S
C657 C658 1.366 . S
C658 C657 1.366 . S
C658 C659 1.414 . S
C658 C661 1.499 . S
C659 H633 0.950 . S
C659 C658 1.414 . S
C659 C660 1.374 1_556 S
C660 H634 0.950 . S
C660 C656 1.385 . S
C660 C659 1.374 1_554 S
C661 C658 1.499 . S
C661 C662 1.373 . S
C661 C663 1.389 . S
C662 H635 0.950 . S
C662 C648 1.377 . S
C662 C661 1.373 . S
C663 C647 1.377 . S
C663 C661 1.389 . S
C663 C664 1.524 . S
C664 C663 1.524 . S
C664 C665 1.397 . S
C664 C669 1.363 . S
C665 H636 0.950 . S
C665 C664 1.397 . S
C665 C666 1.334 . S
C666 H637 0.950 . S
C666 C665 1.334 . S
C666 C667 1.287 . S
C667 C666 1.287 . S
C667 C668 1.524 . S
C667 H670 0.999 . S
C668 H638 0.950 . S
C668 C667 1.524 . S
C668 C669 1.415 . S
C669 H639 0.950 . S
C669 C664 1.363 . S
C669 C668 1.415 . S
H670 C667 0.999 . S
H671 C652 0.913 . S
H672 C690 0.951 . S
H673 C692 0.951 . S
H674 C694 0.950 . S
H675 C695 0.950 . S
H676 C697 0.950 . S
H677 C700 0.950 . S
H678 C701 0.950 . S
H679 C703 0.950 . S
H680 C704 0.950 . S
H681 C705 0.951 1_455 S
H682 C707 0.951 . S
H683 C709 0.950 . S
H684 C710 0.950 . S
H685 C712 0.950 . S
H686 C715 0.950 . S
H687 C716 0.950 . S
H688 C718 0.950 . S
H689 C719 0.950 . S
C690 H672 0.951 . S
C690 C691 1.366 . S
C690 C692 1.388 . S
C691 C690 1.366 . S
C691 C695 1.385 . S
C692 H673 0.951 . S
C692 C690 1.388 . S
C692 C693 1.366 . S
C693 C692 1.366 . S
C693 C694 1.414 . S
C693 C696 1.499 . S
C694 H674 0.950 . S
C694 C693 1.414 . S
C694 C695 1.374 . S
C695 H675 0.950 . S
C695 C691 1.385 . S
C695 C694 1.374 . S
C696 C693 1.499 . S
C696 C697 1.373 . S
C696 C698 1.389 . S
C697 H676 0.950 . S
C697 C696 1.373 . S
C697 C713 1.377 . S
C698 C696 1.389 . S
C698 C699 1.524 . S
C698 C712 1.377 . S
C699 C698 1.524 . S
C699 C700 1.397 . S
C699 C704 1.363 . S
C700 H677 0.950 . S
C700 C699 1.397 . S
C700 C701 1.334 . S
C701 H678 0.950 . S
C701 C700 1.334 . S
C701 C702 1.287 . S
C702 C701 1.287 . S
C702 C703 1.524 . S
C702 H721 0.913 . S
C703 H679 0.950 . S
C703 C702 1.524 . S
C703 C704 1.415 . S
C704 H680 0.950 . S
C704 C699 1.363 . S
C704 C703 1.415 . S
C705 H681 0.951 1_655 S
C705 C706 1.366 . S
C705 C707 1.388 . S
C706 C705 1.366 . S
C706 C710 1.385 . S
C707 H682 0.951 . S
C707 C705 1.388 . S
C707 C708 1.366 . S
C708 C707 1.366 . S
C708 C709 1.414 . S
C708 C711 1.499 . S
C709 H683 0.950 . S
C709 C708 1.414 . S
C709 C710 1.374 . S
C710 H684 0.950 . S
C710 C706 1.385 . S
C710 C709 1.374 . S
C711 C708 1.499 . S
C711 C712 1.373 . S
C711 C713 1.389 . S
C712 H685 0.950 . S
C712 C698 1.377 . S
C712 C711 1.373 . S
C713 C697 1.377 . S
C713 C711 1.389 . S
C713 C714 1.524 . S
C714 C713 1.524 . S
C714 C715 1.397 . S
C714 C719 1.363 . S
C715 H686 0.950 . S
C715 C714 1.397 . S
C715 C716 1.334 . S
C716 H687 0.950 . S
C716 C715 1.334 . S
C716 C717 1.287 . S
C717 C716 1.287 . S
C717 C718 1.524 . S
C717 H720 0.999 . S
C718 H688 0.950 . S
C718 C717 1.524 . S
C718 C719 1.415 . S
C719 H689 0.950 . S
C719 C714 1.363 . S
C719 C718 1.415 . S
H720 C717 0.999 . S
H721 C702 0.913 . S
H722 C740 0.951 . S
H723 C742 0.951 . S
H724 C744 0.950 . S
H725 C745 0.950 . S
H726 C747 0.950 . S
H727 C750 0.950 . S
H728 C751 0.950 . S
H729 C753 0.950 . S
H730 C754 0.950 . S
H731 C755 0.951 . S
H732 C757 0.951 . S
H733 C759 0.950 . S
H734 C760 0.950 . S
H735 C762 0.950 . S
H736 C765 0.950 . S
H737 C766 0.950 . S
H738 C768 0.950 . S
H739 C769 0.950 . S
C740 H722 0.951 . S
C740 C741 1.366 . S
C740 C742 1.388 . S
C741 C740 1.366 . S
C741 C745 1.385 . S
C742 H723 0.951 . S
C742 C740 1.388 . S
C742 C743 1.366 . S
C743 C742 1.366 . S
C743 C744 1.414 . S
C743 C746 1.499 . S
C744 H724 0.950 . S
C744 C743 1.414 . S
C744 C745 1.374 . S
C745 H725 0.950 . S
C745 C741 1.385 . S
C745 C744 1.374 . S
C746 C743 1.499 . S
C746 C747 1.373 . S
C746 C748 1.389 . S
C747 H726 0.950 . S
C747 C746 1.373 . S
C747 C763 1.377 . S
C748 C746 1.389 . S
C748 C749 1.524 . S
C748 C762 1.377 . S
C749 C748 1.524 . S
C749 C750 1.397 . S
C749 C754 1.363 . S
C750 H727 0.950 . S
C750 C749 1.397 . S
C750 C751 1.334 . S
C751 H728 0.950 . S
C751 C750 1.334 . S
C751 C752 1.287 . S
C752 C751 1.287 . S
C752 C753 1.524 . S
C752 H771 0.913 . S
C753 H729 0.950 . S
C753 C752 1.524 . S
C753 C754 1.415 . S
C754 H730 0.950 . S
C754 C749 1.363 . S
C754 C753 1.415 . S
C755 H731 0.951 . S
C755 C756 1.366 . S
C755 C757 1.388 . S
C756 C755 1.366 . S
C756 C760 1.385 . S
C757 H732 0.951 . S
C757 C755 1.388 . S
C757 C758 1.366 . S
C758 C757 1.366 . S
C758 C759 1.414 . S
C758 C761 1.499 . S
C759 H733 0.950 . S
C759 C758 1.414 . S
C759 C760 1.374 . S
C760 H734 0.950 . S
C760 C756 1.385 . S
C760 C759 1.374 . S
C761 C758 1.499 . S
C761 C762 1.373 . S
C761 C763 1.389 . S
C762 H735 0.950 . S
C762 C748 1.377 . S
C762 C761 1.373 . S
C763 C747 1.377 . S
C763 C761 1.389 . S
C763 C764 1.524 . S
C764 C763 1.524 . S
C764 C765 1.397 . S
C764 C769 1.363 . S
C765 H736 0.950 . S
C765 C764 1.397 . S
C765 C766 1.334 . S
C766 H737 0.950 . S
C766 C765 1.334 . S
C766 C767 1.287 . S
C767 C766 1.287 . S
C767 C768 1.524 . S
C767 H770 0.999 . S
C768 H738 0.950 . S
C768 C767 1.524 . S
C768 C769 1.415 . S
C769 H739 0.950 . S
C769 C764 1.363 . S
C769 C768 1.415 . S
H770 C767 0.999 . S
H771 C752 0.913 . S
H772 C790 0.951 . S
H773 C792 0.951 . S
H774 C794 0.950 . S
H775 C795 0.950 . S
H776 C797 0.950 . S
H777 C800 0.936 1_545 S
H778 C801 0.950 . S
H779 C803 0.950 . S
H780 C804 0.950 . S
H781 C805 0.951 . S
H782 C807 0.951 . S
H783 C809 0.950 . S
H784 C810 0.950 . S
H785 C812 0.972 . S
H786 C815 0.943 1_565 S
H787 C816 0.950 . S
H788 C818 0.950 . S
H789 C819 0.950 . S
C790 H772 0.951 . S
C790 C791 1.366 . S
C790 C792 1.388 . S
C791 C790 1.366 . S
C791 C795 1.385 1_565 S
C792 H773 0.951 . S
C792 C790 1.388 . S
C792 C793 1.366 . S
C793 C792 1.366 . S
C793 C794 1.414 1_565 S
C793 C796 1.499 . S
C794 H774 0.950 . S
C794 C793 1.414 1_545 S
C794 C795 1.374 . S
C795 H775 0.950 . S
C795 C791 1.385 1_545 S
C795 C794 1.374 . S
C796 C793 1.499 . S
C796 C797 1.373 1_565 S
C796 C798 1.391 1_655 S
C797 H776 0.950 . S
C797 C796 1.373 1_545 S
C797 C813 1.377 . S
C798 C796 1.391 1_455 S
C798 C799 1.523 . S
C798 C812 1.376 . S
C799 C798 1.523 . S
C799 C800 1.397 . S
C799 C804 1.363 . S
C800 H777 0.936 1_565 S
C800 C799 1.397 . S
C800 C801 1.334 . S
C801 H778 0.950 . S
C801 C800 1.334 . S
C801 C802 1.287 . S
C802 C801 1.287 . S
C802 C803 1.524 . S
C802 H821 0.913 . S
C803 H779 0.950 . S
C803 C802 1.524 . S
C803 C804 1.415 . S
C804 H780 0.950 . S
C804 C799 1.363 . S
C804 C803 1.415 . S
C805 H781 0.951 . S
C805 C806 1.366 . S
C805 C807 1.388 . S
C806 C805 1.366 . S
C806 C810 1.385 1_545 S
C807 H782 0.951 . S
C807 C805 1.388 . S
C807 C808 1.366 . S
C808 C807 1.366 . S
C808 C809 1.414 1_545 S
C808 C811 1.499 . S
C809 H783 0.950 . S
C809 C808 1.414 1_565 S
C809 C810 1.374 . S
C810 H784 0.950 . S
C810 C806 1.385 1_565 S
C810 C809 1.374 . S
C811 C808 1.499 . S
C811 C812 1.353 1_645 S
C811 C813 1.389 . S
C812 H785 0.972 . S
C812 C798 1.376 . S
C812 C811 1.353 1_465 S
C813 C797 1.377 . S
C813 C811 1.389 . S
C813 C814 1.524 . S
C814 C813 1.524 . S
C814 C815 1.397 . S
C814 C819 1.363 . S
C815 H786 0.943 1_545 S
C815 C814 1.397 . S
C815 C816 1.334 . S
C816 H787 0.950 . S
C816 C815 1.334 . S
C816 C817 1.287 . S
C817 C816 1.287 . S
C817 C818 1.524 . S
C817 H820 0.999 . S
C818 H788 0.950 . S
C818 C817 1.524 . S
C818 C819 1.415 . S
C819 H789 0.950 . S
C819 C814 1.363 . S
C819 C818 1.415 . S
H820 C817 0.999 . S
H821 C802 0.913 . S
H822 C840 0.951 . S
H823 C842 0.951 . S
H824 C844 0.950 . S
H825 C845 0.950 . S
H826 C847 0.950 . S
H827 C850 0.950 . S
H828 C851 0.950 . S
H829 C853 0.950 1_565 S
H830 C854 0.950 . S
H831 C855 0.951 . S
H832 C857 0.951 . S
H833 C859 0.950 . S
H834 C860 0.950 . S
H835 C862 0.950 . S
H836 C865 0.950 . S
H837 C866 0.950 . S
H838 C868 0.950 . S
H839 C869 0.950 . S
C840 H822 0.951 . S
C840 C841 1.366 . S
C840 C842 1.388 . S
C841 C840 1.366 . S
C841 C845 1.385 . S
C842 H823 0.951 . S
C842 C840 1.388 . S
C842 C843 1.366 . S
C843 C842 1.366 . S
C843 C844 1.414 . S
C843 C846 1.499 . S
C844 H824 0.950 . S
C844 C843 1.414 . S
C844 C845 1.374 . S
C845 H825 0.950 . S
C845 C841 1.385 . S
C845 C844 1.374 . S
C846 C843 1.499 . S
C846 C847 1.373 . S
C846 C848 1.389 . S
C847 H826 0.950 . S
C847 C846 1.373 . S
C847 C863 1.377 . S
C848 C846 1.389 . S
C848 C849 1.524 . S
C848 C862 1.377 . S
C849 C848 1.524 . S
C849 C850 1.397 . S
C849 C854 1.363 . S
C850 H827 0.950 . S
C850 C849 1.397 . S
C850 C851 1.334 1_545 S
C851 H828 0.950 . S
C851 C850 1.334 1_565 S
C851 C852 1.287 . S
C852 C851 1.287 . S
C852 C853 1.524 1_565 S
C852 H871 0.913 . S
C853 H829 0.950 1_545 S
C853 C852 1.524 1_545 S
C853 C854 1.415 . S
C854 H830 0.950 . S
C854 C849 1.363 . S
C854 C853 1.415 . S
C855 H831 0.951 . S
C855 C856 1.366 . S
C855 C857 1.388 . S
C856 C855 1.366 . S
C856 C860 1.385 . S
C857 H832 0.951 . S
C857 C855 1.388 . S
C857 C858 1.366 . S
C858 C857 1.366 . S
C858 C859 1.414 . S
C858 C861 1.499 . S
C859 H833 0.950 . S
C859 C858 1.414 . S
C859 C860 1.374 . S
C860 H834 0.950 . S
C860 C856 1.385 . S
C860 C859 1.374 . S
C861 C858 1.499 . S
C861 C862 1.373 . S
C861 C863 1.389 . S
C862 H835 0.950 . S
C862 C848 1.377 . S
C862 C861 1.373 . S
C863 C847 1.377 . S
C863 C861 1.389 . S
C863 C864 1.524 . S
C864 C863 1.524 . S
C864 C865 1.397 . S
C864 C869 1.363 . S
C865 H836 0.950 . S
C865 C864 1.397 . S
C865 C866 1.334 . S
C866 H837 0.950 . S
C866 C865 1.334 . S
C866 C867 1.287 . S
C867 C866 1.287 . S
C867 C868 1.524 . S
C867 H870 0.999 . S
C868 H838 0.950 . S
C868 C867 1.524 . S
C868 C869 1.415 . S
C869 H839 0.950 . S
C869 C864 1.363 . S
C869 C868 1.415 . S
H870 C867 0.999 . S
H871 C852 0.913 . S
H872 C890 0.951 . S
H873 C892 0.951 . S
H874 C894 0.950 . S
H875 C895 0.950 . S
H876 C897 0.950 . S
H877 C900 0.950 . S
H878 C901 0.950 . S
H879 C903 0.950 . S
H880 C904 0.950 . S
H881 C905 0.951 . S
H882 C907 0.951 . S
H883 C909 0.950 . S
H884 C910 0.950 . S
H885 C912 0.950 . S
H886 C915 0.950 . S
H887 C916 0.950 . S
H888 C918 0.950 . S
H889 C919 0.950 . S
C890 H872 0.951 . S
C890 C891 1.366 . S
C890 C892 1.388 . S
C891 C890 1.366 . S
C891 C895 1.385 . S
C892 H873 0.951 . S
C892 C890 1.388 . S
C892 C893 1.366 . S
C893 C892 1.366 . S
C893 C894 1.414 . S
C893 C896 1.499 . S
C894 H874 0.950 . S
C894 C893 1.414 . S
C894 C895 1.374 . S
C895 H875 0.950 . S
C895 C891 1.385 . S
C895 C894 1.374 . S
C896 C893 1.499 . S
C896 C897 1.373 . S
C896 C898 1.389 . S
C897 H876 0.950 . S
C897 C896 1.373 . S
C897 C913 1.377 . S
C898 C896 1.389 . S
C898 C899 1.524 . S
C898 C912 1.377 . S
C899 C898 1.524 . S
C899 C900 1.397 . S
C899 C904 1.363 . S
C900 H877 0.950 . S
C900 C899 1.397 . S
C900 C901 1.334 . S
C901 H878 0.950 . S
C901 C900 1.334 . S
C901 C902 1.287 . S
C902 C901 1.287 . S
C902 C903 1.524 . S
C902 H921 0.913 . S
C903 H879 0.950 . S
C903 C902 1.524 . S
C903 C904 1.415 . S
C904 H880 0.950 . S
C904 C899 1.363 . S
C904 C903 1.415 . S
C905 H881 0.951 . S
C905 C906 1.366 . S
C905 C907 1.388 . S
C906 C905 1.366 . S
C906 C910 1.385 . S
C907 H882 0.951 . S
C907 C905 1.388 . S
C907 C908 1.366 . S
C908 C907 1.366 . S
C908 C909 1.414 . S
C908 C911 1.499 . S
C909 H883 0.950 . S
C909 C908 1.414 . S
C909 C910 1.374 . S
C910 H884 0.950 . S
C910 C906 1.385 . S
C910 C909 1.374 . S
C911 C908 1.499 . S
C911 C912 1.373 . S
C911 C913 1.389 . S
C912 H885 0.950 . S
C912 C898 1.377 . S
C912 C911 1.373 . S
C913 C897 1.377 . S
C913 C911 1.389 . S
C913 C914 1.524 . S
C914 C913 1.524 . S
C914 C915 1.397 . S
C914 C919 1.363 . S
C915 H886 0.950 . S
C915 C914 1.397 . S
C915 C916 1.334 . S
C916 H887 0.950 . S
C916 C915 1.334 . S
C916 C917 1.287 . S
C917 C916 1.287 . S
C917 C918 1.524 . S
C917 H920 0.999 . S
C918 H888 0.950 . S
C918 C917 1.524 . S
C918 C919 1.415 . S
C919 H889 0.950 . S
C919 C914 1.363 . S
C919 C918 1.415 . S
H920 C917 0.999 . S
H921 C902 0.913 . S
H922 C940 0.951 . S
H923 C942 0.951 . S
H924 C944 0.950 . S
H925 C945 0.950 . S
H926 C947 0.950 . S
H927 C950 0.950 . S
H928 C951 0.950 . S
H929 C953 0.950 . S
H930 C954 0.950 . S
H931 C955 0.951 . S
H932 C957 0.951 . S
H933 C959 0.950 . S
H934 C960 0.950 . S
H935 C962 0.950 . S
H936 C965 0.950 . S
H937 C966 0.950 . S
H938 C968 0.950 . S
H939 C969 0.950 . S
C940 H922 0.951 . S
C940 C941 1.366 . S
C940 C942 1.388 . S
C941 C940 1.366 . S
C941 C945 1.385 . S
C942 H923 0.951 . S
C942 C940 1.388 . S
C942 C943 1.366 . S
C943 C942 1.366 . S
C943 C944 1.414 . S
C943 C946 1.499 . S
C944 H924 0.950 . S
C944 C943 1.414 . S
C944 C945 1.374 . S
C945 H925 0.950 . S
C945 C941 1.385 . S
C945 C944 1.374 . S
C946 C943 1.499 . S
C946 C947 1.373 . S
C946 C948 1.389 . S
C947 H926 0.950 . S
C947 C946 1.373 . S
C947 C963 1.377 . S
C948 C946 1.389 . S
C948 C949 1.524 . S
C948 C962 1.377 . S
C949 C948 1.524 . S
C949 C950 1.397 . S
C949 C954 1.363 . S
C950 H927 0.950 . S
C950 C949 1.397 . S
C950 C951 1.334 . S
C951 H928 0.950 . S
C951 C950 1.334 . S
C951 C952 1.287 . S
C952 C951 1.287 . S
C952 C953 1.524 . S
C952 H971 0.913 . S
C953 H929 0.950 . S
C953 C952 1.524 . S
C953 C954 1.415 . S
C954 H930 0.950 . S
C954 C949 1.363 . S
C954 C953 1.415 . S
C955 H931 0.951 . S
C955 C956 1.366 . S
C955 C957 1.388 . S
C956 C955 1.366 . S
C956 C960 1.385 . S
C957 H932 0.951 . S
C957 C955 1.388 . S
C957 C958 1.366 . S
C958 C957 1.366 . S
C958 C959 1.414 . S
C958 C961 1.499 . S
C959 H933 0.950 . S
C959 C958 1.414 . S
C959 C960 1.374 . S
C960 H934 0.950 . S
C960 C956 1.385 . S
C960 C959 1.374 . S
C961 C958 1.499 . S
C961 C962 1.373 . S
C961 C963 1.389 . S
C962 H935 0.950 . S
C962 C948 1.377 . S
C962 C961 1.373 . S
C963 C947 1.377 . S
C963 C961 1.389 . S
C963 C964 1.524 . S
C964 C963 1.524 . S
C964 C965 1.397 . S
C964 C969 1.363 . S
C965 H936 0.950 . S
C965 C964 1.397 . S
C965 C966 1.334 . S
C966 H937 0.950 . S
C966 C965 1.334 . S
C966 C967 1.287 . S
C967 C966 1.287 . S
C967 C968 1.524 . S
C967 H970 0.999 . S
C968 H938 0.950 . S
C968 C967 1.524 . S
C968 C969 1.415 . S
C969 H939 0.950 . S
C969 C964 1.363 . S
C969 C968 1.415 . S
H970 C967 0.999 . S
H971 C952 0.913 . S
H972 C990 0.951 . S
H973 C992 0.951 . S
H974 C994 0.950 . S
H975 C995 0.950 . S
H976 C997 0.950 . S
H977 C1000 0.950 . S
H978 C1001 0.950 . S
H979 C1003 0.942 1_545 S
H980 C1004 0.950 . S
H981 C1005 0.951 . S
H982 C1007 0.951 . S
H983 C1009 0.950 . S
H984 C1010 0.950 . S
H985 C1012 0.951 . S
H986 C1015 0.950 . S
H987 C1016 0.950 . S
H988 C1018 0.950 . S
H989 C1019 0.950 . S
C990 H972 0.951 . S
C990 C991 1.366 1_544 S
C990 C992 1.388 . S
C991 C990 1.366 1_566 S
C991 C995 1.385 . S
C992 H973 0.951 . S
C992 C990 1.388 . S
C992 C993 1.366 1_545 S
C993 C992 1.366 1_565 S
C993 C994 1.414 1_554 S
C993 C996 1.499 . S
C994 H974 0.950 . S
C994 C993 1.414 1_556 S
C994 C995 1.374 . S
C995 H975 0.950 . S
C995 C991 1.385 . S
C995 C994 1.374 . S
C996 C993 1.499 . S
C996 C997 1.373 1_554 S
C996 C998 1.389 . S
C997 H976 0.950 . S
C997 C996 1.373 1_556 S
C997 C1013 1.377 1_565 S
C998 C996 1.389 . S
C998 C999 1.524 . S
C998 C1012 1.377 . S
C999 C998 1.524 . S
C999 C1000 1.397 . S
C999 C1004 1.363 1_565 S
C1000 H977 0.950 . S
C1000 C999 1.397 . S
C1000 C1001 1.334 . S
C1001 H978 0.950 . S
C1001 C1000 1.334 . S
C1001 C1002 1.287 . S
C1002 C1001 1.287 . S
C1002 C1003 1.537 . S
C1002 H1021 0.913 . S
C1003 H979 0.942 1_565 S
C1003 C1002 1.537 . S
C1003 C1004 1.411 1_565 S
C1004 H980 0.950 . S
C1004 C999 1.363 1_545 S
C1004 C1003 1.411 1_545 S
C1005 H981 0.951 . S
C1005 C1006 1.366 1_565 S
C1005 C1007 1.388 . S
C1006 C1005 1.366 1_545 S
C1006 C1010 1.385 . S
C1007 H982 0.951 . S
C1007 C1005 1.388 . S
C1007 C1008 1.366 1_565 S
C1008 C1007 1.366 1_545 S
C1008 C1009 1.414 . S
C1008 C1011 1.499 . S
C1009 H983 0.950 . S
C1009 C1008 1.414 . S
C1009 C1010 1.374 . S
C1010 H984 0.950 . S
C1010 C1006 1.385 . S
C1010 C1009 1.374 . S
C1011 C1008 1.499 . S
C1011 C1012 1.373 1_545 S
C1011 C1013 1.389 1_554 S
C1012 H985 0.951 . S
C1012 C998 1.377 . S
C1012 C1011 1.373 1_565 S
C1013 C997 1.377 1_545 S
C1013 C1011 1.389 1_556 S
C1013 C1014 1.524 . S
C1014 C1013 1.524 . S
C1014 C1015 1.397 . S
C1014 C1019 1.363 1_545 S
C1015 H986 0.950 . S
C1015 C1014 1.397 . S
C1015 C1016 1.334 . S
C1016 H987 0.950 . S
C1016 C1015 1.334 . S
C1016 C1017 1.287 . S
C1017 C1016 1.287 . S
C1017 C1018 1.524 1_545 S
C1017 H1020 0.999 . S
C1018 H988 0.950 . S
C1018 C1017 1.524 1_565 S
C1018 C1019 1.415 . S
C1019 H989 0.950 . S
C1019 C1014 1.363 1_565 S
C1019 C1018 1.415 . S
H1020 C1017 0.999 . S
H1021 C1002 0.913 . S
H1022 C1040 0.951 . S
H1023 C1042 0.951 . S
H1024 C1044 0.950 . S
H1025 C1045 0.950 . S
H1026 C1047 0.950 . S
H1027 C1050 0.950 . S
H1028 C1051 0.950 . S
H1029 C1053 0.950 . S
H1030 C1054 0.950 . S
H1031 C1055 0.951 . S
H1032 C1057 0.951 . S
H1033 C1059 0.950 . S
H1034 C1060 0.950 . S
H1035 C1062 0.950 . S
H1036 C1065 0.950 . S
H1037 C1066 0.950 . S
H1038 C1068 0.950 1_565 S
H1039 C1069 0.950 . S
C1040 H1022 0.951 . S
C1040 C1041 1.366 . S
C1040 C1042 1.388 . S
C1041 C1040 1.366 . S
C1041 C1045 1.385 . S
C1042 H1023 0.951 . S
C1042 C1040 1.388 . S
C1042 C1043 1.366 . S
C1043 C1042 1.366 . S
C1043 C1044 1.414 . S
C1043 C1046 1.499 . S
C1044 H1024 0.950 . S
C1044 C1043 1.414 . S
C1044 C1045 1.374 . S
C1045 H1025 0.950 . S
C1045 C1041 1.385 . S
C1045 C1044 1.374 . S
C1046 C1043 1.499 . S
C1046 C1047 1.373 . S
C1046 C1048 1.389 . S
C1047 H1026 0.950 . S
C1047 C1046 1.373 . S
C1047 C1063 1.377 . S
C1048 C1046 1.389 . S
C1048 C1049 1.524 . S
C1048 C1062 1.377 . S
C1049 C1048 1.524 . S
C1049 C1050 1.397 . S
C1049 C1054 1.363 . S
C1050 H1027 0.950 . S
C1050 C1049 1.397 . S
C1050 C1051 1.334 . S
C1051 H1028 0.950 . S
C1051 C1050 1.334 . S
C1051 C1052 1.287 . S
C1052 C1051 1.287 . S
C1052 C1053 1.524 . S
C1052 H1071 0.913 . S
C1053 H1029 0.950 . S
C1053 C1052 1.524 . S
C1053 C1054 1.415 . S
C1054 H1030 0.950 . S
C1054 C1049 1.363 . S
C1054 C1053 1.415 . S
C1055 H1031 0.951 . S
C1055 C1056 1.366 . S
C1055 C1057 1.388 . S
C1056 C1055 1.366 . S
C1056 C1060 1.385 . S
C1057 H1032 0.951 . S
C1057 C1055 1.388 . S
C1057 C1058 1.366 . S
C1058 C1057 1.366 . S
C1058 C1059 1.414 . S
C1058 C1061 1.499 . S
C1059 H1033 0.950 . S
C1059 C1058 1.414 . S
C1059 C1060 1.374 . S
C1060 H1034 0.950 . S
C1060 C1056 1.385 . S
C1060 C1059 1.374 . S
C1061 C1058 1.499 . S
C1061 C1062 1.373 . S
C1061 C1063 1.389 . S
C1062 H1035 0.950 . S
C1062 C1048 1.377 . S
C1062 C1061 1.373 . S
C1063 C1047 1.377 . S
C1063 C1061 1.389 . S
C1063 C1064 1.524 . S
C1064 C1063 1.524 . S
C1064 C1065 1.397 . S
C1064 C1069 1.363 . S
C1065 H1036 0.950 . S
C1065 C1064 1.397 . S
C1065 C1066 1.334 . S
C1066 H1037 0.950 . S
C1066 C1065 1.334 . S
C1066 C1067 1.287 . S
C1067 C1066 1.287 . S
C1067 C1068 1.524 . S
C1067 H1070 0.999 . S
C1068 H1038 0.950 1_545 S
C1068 C1067 1.524 . S
C1068 C1069 1.415 . S
C1069 H1039 0.950 . S
C1069 C1064 1.363 . S
C1069 C1068 1.415 . S
H1070 C1067 0.999 . S
H1071 C1052 0.913 . S
H1072 C1090 0.951 . S
H1073 C1092 0.951 . S
H1074 C1094 0.950 . S
H1075 C1095 0.950 . S
H1076 C1097 0.950 . S
H1077 C1100 0.950 . S
H1078 C1101 0.950 . S
H1079 C1103 0.950 . S
H1080 C1104 0.950 . S
H1081 C1105 0.951 1_556 S
H1082 C1107 0.951 . S
H1083 C1109 0.950 . S
H1084 C1110 0.950 . S
H1085 C1112 0.950 . S
H1086 C1115 0.950 . S
H1087 C1116 0.950 . S
H1088 C1118 0.950 . S
H1089 C1119 0.950 . S
C1090 H1072 0.951 . S
C1090 C1091 1.366 . S
C1090 C1092 1.388 . S
C1091 C1090 1.366 . S
C1091 C1095 1.385 . S
C1092 H1073 0.951 . S
C1092 C1090 1.388 . S
C1092 C1093 1.366 . S
C1093 C1092 1.366 . S
C1093 C1094 1.414 . S
C1093 C1096 1.499 . S
C1094 H1074 0.950 . S
C1094 C1093 1.414 . S
C1094 C1095 1.374 . S
C1095 H1075 0.950 . S
C1095 C1091 1.385 . S
C1095 C1094 1.374 . S
C1096 C1093 1.499 . S
C1096 C1097 1.373 . S
C1096 C1098 1.389 . S
C1097 H1076 0.950 . S
C1097 C1096 1.373 . S
C1097 C1113 1.377 . S
C1098 C1096 1.389 . S
C1098 C1099 1.524 . S
C1098 C1112 1.377 . S
C1099 C1098 1.524 . S
C1099 C1100 1.397 . S
C1099 C1104 1.363 . S
C1100 H1077 0.950 . S
C1100 C1099 1.397 . S
C1100 C1101 1.334 . S
C1101 H1078 0.950 . S
C1101 C1100 1.334 . S
C1101 C1102 1.287 . S
C1102 C1101 1.287 . S
C1102 C1103 1.524 . S
C1102 H1121 0.913 . S
C1103 H1079 0.950 . S
C1103 C1102 1.524 . S
C1103 C1104 1.415 . S
C1104 H1080 0.950 . S
C1104 C1099 1.363 . S
C1104 C1103 1.415 . S
C1105 H1081 0.951 1_554 S
C1105 C1106 1.366 . S
C1105 C1107 1.388 . S
C1106 C1105 1.366 . S
C1106 C1110 1.385 . S
C1107 H1082 0.951 . S
C1107 C1105 1.388 . S
C1107 C1108 1.366 . S
C1108 C1107 1.366 . S
C1108 C1109 1.414 . S
C1108 C1111 1.499 . S
C1109 H1083 0.950 . S
C1109 C1108 1.414 . S
C1109 C1110 1.374 . S
C1110 H1084 0.950 . S
C1110 C1106 1.385 . S
C1110 C1109 1.374 . S
C1111 C1108 1.499 . S
C1111 C1112 1.373 . S
C1111 C1113 1.389 . S
C1112 H1085 0.950 . S
C1112 C1098 1.377 . S
C1112 C1111 1.373 . S
C1113 C1097 1.377 . S
C1113 C1111 1.389 . S
C1113 C1114 1.524 . S
C1114 C1113 1.524 . S
C1114 C1115 1.397 . S
C1114 C1119 1.363 . S
C1115 H1086 0.950 . S
C1115 C1114 1.397 . S
C1115 C1116 1.334 . S
C1116 H1087 0.950 . S
C1116 C1115 1.334 . S
C1116 C1117 1.287 1_554 S
C1117 C1116 1.287 1_556 S
C1117 C1118 1.524 . S
C1117 H1120 0.999 . S
C1118 H1088 0.950 . S
C1118 C1117 1.524 . S
C1118 C1119 1.415 1_556 S
C1119 H1089 0.950 . S
C1119 C1114 1.363 . S
C1119 C1118 1.415 1_554 S
H1120 C1117 0.999 . S
H1121 C1102 0.913 . S
H1122 C1140 0.951 . S
H1123 C1142 0.951 . S
H1124 C1144 0.950 . S
H1125 C1145 0.950 . S
H1126 C1147 0.950 . S
H1127 C1150 0.950 . S
H1128 C1151 0.950 . S
H1129 C1153 0.950 . S
H1130 C1154 0.950 . S
H1131 C1155 0.951 . S
H1132 C1157 0.951 . S
H1133 C1159 0.950 . S
H1134 C1160 0.950 . S
H1135 C1162 0.950 . S
H1136 C1165 0.950 . S
H1137 C1166 0.950 . S
H1138 C1168 0.950 . S
H1139 C1169 0.950 . S
C1140 H1122 0.951 . S
C1140 C1141 1.366 . S
C1140 C1142 1.388 . S
C1141 C1140 1.366 . S
C1141 C1145 1.385 . S
C1142 H1123 0.951 . S
C1142 C1140 1.388 . S
C1142 C1143 1.366 . S
C1143 C1142 1.366 . S
C1143 C1144 1.414 . S
C1143 C1146 1.499 . S
C1144 H1124 0.950 . S
C1144 C1143 1.414 . S
C1144 C1145 1.374 . S
C1145 H1125 0.950 . S
C1145 C1141 1.385 . S
C1145 C1144 1.374 . S
C1146 C1143 1.499 . S
C1146 C1147 1.373 . S
C1146 C1148 1.389 . S
C1147 H1126 0.950 . S
C1147 C1146 1.373 . S
C1147 C1163 1.377 . S
C1148 C1146 1.389 . S
C1148 C1149 1.524 . S
C1148 C1162 1.377 . S
C1149 C1148 1.524 . S
C1149 C1150 1.397 . S
C1149 C1154 1.363 . S
C1150 H1127 0.950 . S
C1150 C1149 1.397 . S
C1150 C1151 1.334 . S
C1151 H1128 0.950 . S
C1151 C1150 1.334 . S
C1151 C1152 1.287 . S
C1152 C1151 1.287 . S
C1152 C1153 1.524 . S
C1152 H1171 0.913 . S
C1153 H1129 0.950 . S
C1153 C1152 1.524 . S
C1153 C1154 1.415 . S
C1154 H1130 0.950 . S
C1154 C1149 1.363 . S
C1154 C1153 1.415 . S
C1155 H1131 0.951 . S
C1155 C1156 1.366 . S
C1155 C1157 1.388 . S
C1156 C1155 1.366 . S
C1156 C1160 1.385 . S
C1157 H1132 0.951 . S
C1157 C1155 1.388 . S
C1157 C1158 1.366 . S
C1158 C1157 1.366 . S
C1158 C1159 1.414 . S
C1158 C1161 1.499 . S
C1159 H1133 0.950 . S
C1159 C1158 1.414 . S
C1159 C1160 1.374 . S
C1160 H1134 0.950 . S
C1160 C1156 1.385 . S
C1160 C1159 1.374 . S
C1161 C1158 1.499 . S
C1161 C1162 1.373 . S
C1161 C1163 1.389 . S
C1162 H1135 0.950 . S
C1162 C1148 1.377 . S
C1162 C1161 1.373 . S
C1163 C1147 1.377 . S
C1163 C1161 1.389 . S
C1163 C1164 1.524 . S
C1164 C1163 1.524 . S
C1164 C1165 1.397 . S
C1164 C1169 1.363 . S
C1165 H1136 0.950 . S
C1165 C1164 1.397 . S
C1165 C1166 1.334 . S
C1166 H1137 0.950 . S
C1166 C1165 1.334 . S
C1166 C1167 1.287 . S
C1167 C1166 1.287 . S
C1167 C1168 1.524 . S
C1167 H1170 0.999 . S
C1168 H1138 0.950 . S
C1168 C1167 1.524 . S
C1168 C1169 1.415 . S
C1169 H1139 0.950 . S
C1169 C1164 1.363 . S
C1169 C1168 1.415 . S
H1170 C1167 0.999 . S
H1171 C1152 0.913 . S
H1172 C1190 0.951 . S
H1173 C1192 0.951 . S
H1174 C1194 0.950 . S
H1175 C1195 0.950 1_455 S
H1176 C1197 0.950 . S
H1177 C1200 0.950 . S
H1178 C1201 0.950 . S
H1179 C1203 0.950 . S
H1180 C1204 0.950 . S
H1181 C1205 0.951 . S
H1182 C1207 0.948 1_554 S
H1183 C1209 0.950 . S
H1184 C1210 0.950 . S
H1185 C1212 0.957 . S
H1186 C1215 0.950 . S
H1187 C1216 0.950 . S
H1188 C1218 0.950 . S
H1189 C1219 0.950 . S
C1190 H1172 0.951 . S
C1190 C1191 1.366 . S
C1190 C1192 1.388 . S
C1191 C1190 1.366 . S
C1191 C1195 1.385 . S
C1192 H1173 0.951 . S
C1192 C1190 1.388 . S
C1192 C1193 1.366 . S
C1193 C1192 1.366 . S
C1193 C1194 1.414 1_655 S
C1193 C1196 1.499 . S
C1194 H1174 0.950 . S
C1194 C1193 1.414 1_455 S
C1194 C1195 1.374 1_455 S
C1195 H1175 0.950 1_655 S
C1195 C1191 1.385 . S
C1195 C1194 1.374 1_655 S
C1196 C1193 1.499 . S
C1196 C1197 1.373 1_655 S
C1196 C1198 1.389 . S
C1197 H1176 0.950 . S
C1197 C1196 1.373 1_455 S
C1197 C1213 1.377 . S
C1198 C1196 1.389 . S
C1198 C1199 1.524 1_556 S
C1198 C1212 1.377 . S
C1199 C1198 1.524 1_554 S
C1199 C1200 1.397 . S
C1199 C1204 1.363 1_554 S
C1200 H1177 0.950 . S
C1200 C1199 1.397 . S
C1200 C1201 1.334 . S
C1201 H1178 0.950 . S
C1201 C1200 1.334 . S
C1201 C1202 1.287 . S
C1202 C1201 1.287 . S
C1202 C1203 1.524 . S
C1202 H1221 0.913 . S
C1203 H1179 0.950 . S
C1203 C1202 1.524 . S
C1203 C1204 1.415 1_554 S
C1204 H1180 0.950 . S
C1204 C1199 1.363 1_556 S
C1204 C1203 1.415 1_556 S
C1205 H1181 0.951 . S
C1205 C1206 1.366 1_554 S
C1205 C1207 1.386 1_554 S
C1206 C1205 1.366 1_556 S
C1206 C1210 1.385 1_455 S
C1207 H1182 0.948 1_556 S
C1207 C1205 1.386 1_556 S
C1207 C1208 1.370 . S
C1208 C1207 1.370 . S
C1208 C1209 1.414 1_455 S
C1208 C1211 1.499 . S
C1209 H1183 0.950 . S
C1209 C1208 1.414 1_655 S
C1209 C1210 1.374 . S
C1210 H1184 0.950 . S
C1210 C1206 1.385 1_655 S
C1210 C1209 1.374 . S
C1211 C1208 1.499 . S
C1211 C1212 1.373 1_455 S
C1211 C1213 1.389 . S
C1212 H1185 0.957 . S
C1212 C1198 1.377 . S
C1212 C1211 1.373 1_655 S
C1213 C1197 1.377 . S
C1213 C1211 1.389 . S
C1213 C1214 1.524 . S
C1214 C1213 1.524 . S
C1214 C1215 1.397 . S
C1214 C1219 1.363 . S
C1215 H1186 0.950 . S
C1215 C1214 1.397 . S
C1215 C1216 1.334 . S
C1216 H1187 0.950 . S
C1216 C1215 1.334 . S
C1216 C1217 1.287 . S
C1217 C1216 1.287 . S
C1217 C1218 1.524 . S
C1217 H1220 0.999 . S
C1218 H1188 0.950 . S
C1218 C1217 1.524 . S
C1218 C1219 1.415 . S
C1219 H1189 0.950 . S
C1219 C1214 1.363 . S
C1219 C1218 1.415 . S
H1220 C1217 0.999 . S
H1221 C1202 0.913 . S
H1222 C1240 0.951 . S
H1223 C1242 0.951 . S
H1224 C1244 0.950 . S
H1225 C1245 0.950 . S
H1226 C1247 0.950 . S
H1227 C1250 0.950 . S
H1228 C1251 0.950 . S
H1229 C1253 0.950 . S
H1230 C1254 0.950 . S
H1231 C1255 0.951 . S
H1232 C1257 0.951 . S
H1233 C1259 0.950 . S
H1234 C1260 0.950 . S
H1235 C1262 0.950 . S
H1236 C1265 0.950 . S
H1237 C1266 0.950 . S
H1238 C1268 0.950 . S
H1239 C1269 0.950 . S
C1240 H1222 0.951 . S
C1240 C1241 1.366 . S
C1240 C1242 1.388 . S
C1241 C1240 1.366 . S
C1241 C1245 1.385 . S
C1242 H1223 0.951 . S
C1242 C1240 1.388 . S
C1242 C1243 1.366 . S
C1243 C1242 1.366 . S
C1243 C1244 1.414 . S
C1243 C1246 1.499 . S
C1244 H1224 0.950 . S
C1244 C1243 1.414 . S
C1244 C1245 1.374 . S
C1245 H1225 0.950 . S
C1245 C1241 1.385 . S
C1245 C1244 1.374 . S
C1246 C1243 1.499 . S
C1246 C1247 1.373 . S
C1246 C1248 1.389 . S
C1247 H1226 0.950 . S
C1247 C1246 1.373 . S
C1247 C1263 1.377 . S
C1248 C1246 1.389 . S
C1248 C1249 1.524 . S
C1248 C1262 1.377 . S
C1249 C1248 1.524 . S
C1249 C1250 1.397 . S
C1249 C1254 1.363 . S
C1250 H1227 0.950 . S
C1250 C1249 1.397 . S
C1250 C1251 1.334 . S
C1251 H1228 0.950 . S
C1251 C1250 1.334 . S
C1251 C1252 1.287 . S
C1252 C1251 1.287 . S
C1252 C1253 1.524 . S
C1252 H1271 0.913 . S
C1253 H1229 0.950 . S
C1253 C1252 1.524 . S
C1253 C1254 1.415 . S
C1254 H1230 0.950 . S
C1254 C1249 1.363 . S
C1254 C1253 1.415 . S
C1255 H1231 0.951 . S
C1255 C1256 1.366 . S
C1255 C1257 1.388 . S
C1256 C1255 1.366 . S
C1256 C1260 1.385 . S
C1257 H1232 0.951 . S
C1257 C1255 1.388 . S
C1257 C1258 1.366 . S
C1258 C1257 1.366 . S
C1258 C1259 1.414 . S
C1258 C1261 1.499 . S
C1259 H1233 0.950 . S
C1259 C1258 1.414 . S
C1259 C1260 1.374 . S
C1260 H1234 0.950 . S
C1260 C1256 1.385 . S
C1260 C1259 1.374 . S
C1261 C1258 1.499 . S
C1261 C1262 1.373 . S
C1261 C1263 1.389 . S
C1262 H1235 0.950 . S
C1262 C1248 1.377 . S
C1262 C1261 1.373 . S
C1263 C1247 1.377 . S
C1263 C1261 1.389 . S
C1263 C1264 1.524 . S
C1264 C1263 1.524 . S
C1264 C1265 1.397 . S
C1264 C1269 1.363 . S
C1265 H1236 0.950 . S
C1265 C1264 1.397 . S
C1265 C1266 1.334 . S
C1266 H1237 0.950 . S
C1266 C1265 1.334 . S
C1266 C1267 1.287 . S
C1267 C1266 1.287 . S
C1267 C1268 1.524 . S
C1267 H1270 0.999 . S
C1268 H1238 0.950 . S
C1268 C1267 1.524 . S
C1268 C1269 1.415 . S
C1269 H1239 0.950 . S
C1269 C1264 1.363 . S
C1269 C1268 1.415 . S
H1270 C1267 0.999 . S
H1271 C1252 0.913 . S
H1272 C1290 0.951 . S
H1273 C1292 0.951 . S
H1274 C1294 0.950 . S
H1275 C1295 0.950 . S
H1276 C1297 0.950 . S
H1277 C1300 0.950 . S
H1278 C1301 0.950 . S
H1279 C1303 0.950 . S
H1280 C1304 0.950 . S
H1281 C1305 0.951 . S
H1282 C1307 0.951 . S
H1283 C1309 0.950 . S
H1284 C1310 0.950 1_655 S
H1285 C1312 0.950 . S
H1286 C1315 0.950 . S
H1287 C1316 0.950 . S
H1288 C1318 0.950 . S
H1289 C1319 0.950 . S
C1290 H1272 0.951 . S
C1290 C1291 1.366 . S
C1290 C1292 1.388 . S
C1291 C1290 1.366 . S
C1291 C1295 1.385 . S
C1292 H1273 0.951 . S
C1292 C1290 1.388 . S
C1292 C1293 1.366 . S
C1293 C1292 1.366 . S
C1293 C1294 1.414 . S
C1293 C1296 1.499 . S
C1294 H1274 0.950 . S
C1294 C1293 1.414 . S
C1294 C1295 1.374 . S
C1295 H1275 0.950 . S
C1295 C1291 1.385 . S
C1295 C1294 1.374 . S
C1296 C1293 1.499 . S
C1296 C1297 1.373 . S
C1296 C1298 1.389 . S
C1297 H1276 0.950 . S
C1297 C1296 1.373 . S
C1297 C1313 1.377 . S
C1298 C1296 1.389 . S
C1298 C1299 1.524 . S
C1298 C1312 1.377 . S
C1299 C1298 1.524 . S
C1299 C1300 1.397 . S
C1299 C1304 1.363 . S
C1300 H1277 0.950 . S
C1300 C1299 1.397 . S
C1300 C1301 1.334 . S
C1301 H1278 0.950 . S
C1301 C1300 1.334 . S
C1301 C1302 1.287 . S
C1302 C1301 1.287 . S
C1302 C1303 1.524 . S
C1302 H1321 0.913 . S
C1303 H1279 0.950 . S
C1303 C1302 1.524 . S
C1303 C1304 1.415 . S
C1304 H1280 0.950 . S
C1304 C1299 1.363 . S
C1304 C1303 1.415 . S
C1305 H1281 0.951 . S
C1305 C1306 1.366 . S
C1305 C1307 1.388 . S
C1306 C1305 1.366 . S
C1306 C1310 1.385 . S
C1307 H1282 0.951 . S
C1307 C1305 1.388 . S
C1307 C1308 1.366 . S
C1308 C1307 1.366 . S
C1308 C1309 1.414 . S
C1308 C1311 1.499 . S
C1309 H1283 0.950 . S
C1309 C1308 1.414 . S
C1309 C1310 1.374 . S
C1310 H1284 0.950 1_455 S
C1310 C1306 1.385 . S
C1310 C1309 1.374 . S
C1311 C1308 1.499 . S
C1311 C1312 1.373 . S
C1311 C1313 1.389 . S
C1312 H1285 0.950 . S
C1312 C1298 1.377 . S
C1312 C1311 1.373 . S
C1313 C1297 1.377 . S
C1313 C1311 1.389 . S
C1313 C1314 1.524 . S
C1314 C1313 1.524 . S
C1314 C1315 1.397 . S
C1314 C1319 1.363 . S
C1315 H1286 0.950 . S
C1315 C1314 1.397 . S
C1315 C1316 1.334 . S
C1316 H1287 0.950 . S
C1316 C1315 1.334 . S
C1316 C1317 1.287 . S
C1317 C1316 1.287 . S
C1317 C1318 1.524 . S
C1317 H1320 0.999 . S
C1318 H1288 0.950 . S
C1318 C1317 1.524 . S
C1318 C1319 1.415 . S
C1319 H1289 0.950 . S
C1319 C1314 1.363 . S
C1319 C1318 1.415 . S
H1320 C1317 0.999 . S
H1321 C1302 0.913 . S
H1322 C1340 0.951 . S
H1323 C1342 0.951 . S
H1324 C1344 0.950 . S
H1325 C1345 0.950 . S
H1326 C1347 0.950 . S
H1327 C1350 0.950 . S
H1328 C1351 0.950 . S
H1329 C1353 0.950 . S
H1330 C1354 0.950 . S
H1331 C1355 0.951 . S
H1332 C1357 0.951 . S
H1333 C1359 0.950 . S
H1334 C1360 0.950 . S
H1335 C1362 0.950 . S
H1336 C1365 0.950 . S
H1337 C1366 0.950 . S
H1338 C1368 0.950 . S
H1339 C1369 0.950 . S
C1340 H1322 0.951 . S
C1340 C1341 1.366 . S
C1340 C1342 1.388 . S
C1341 C1340 1.366 . S
C1341 C1345 1.385 . S
C1342 H1323 0.951 . S
C1342 C1340 1.388 . S
C1342 C1343 1.366 . S
C1343 C1342 1.366 . S
C1343 C1344 1.414 . S
C1343 C1346 1.499 . S
C1344 H1324 0.950 . S
C1344 C1343 1.414 . S
C1344 C1345 1.374 . S
C1345 H1325 0.950 . S
C1345 C1341 1.385 . S
C1345 C1344 1.374 . S
C1346 C1343 1.499 . S
C1346 C1347 1.373 . S
C1346 C1348 1.389 . S
C1347 H1326 0.950 . S
C1347 C1346 1.373 . S
C1347 C1363 1.377 . S
C1348 C1346 1.389 . S
C1348 C1349 1.524 . S
C1348 C1362 1.377 . S
C1349 C1348 1.524 . S
C1349 C1350 1.397 . S
C1349 C1354 1.363 . S
C1350 H1327 0.950 . S
C1350 C1349 1.397 . S
C1350 C1351 1.334 . S
C1351 H1328 0.950 . S
C1351 C1350 1.334 . S
C1351 C1352 1.287 . S
C1352 C1351 1.287 . S
C1352 C1353 1.524 . S
C1352 H1371 0.913 . S
C1353 H1329 0.950 . S
C1353 C1352 1.524 . S
C1353 C1354 1.415 . S
C1354 H1330 0.950 . S
C1354 C1349 1.363 . S
C1354 C1353 1.415 . S
C1355 H1331 0.951 . S
C1355 C1356 1.366 . S
C1355 C1357 1.388 . S
C1356 C1355 1.366 . S
C1356 C1360 1.385 . S
C1357 H1332 0.951 . S
C1357 C1355 1.388 . S
C1357 C1358 1.366 . S
C1358 C1357 1.366 . S
C1358 C1359 1.414 . S
C1358 C1361 1.499 . S
C1359 H1333 0.950 . S
C1359 C1358 1.414 . S
C1359 C1360 1.374 . S
C1360 H1334 0.950 . S
C1360 C1356 1.385 . S
C1360 C1359 1.374 . S
C1361 C1358 1.499 . S
C1361 C1362 1.373 . S
C1361 C1363 1.389 . S
C1362 H1335 0.950 . S
C1362 C1348 1.377 . S
C1362 C1361 1.373 . S
C1363 C1347 1.377 . S
C1363 C1361 1.389 . S
C1363 C1364 1.524 . S
C1364 C1363 1.524 . S
C1364 C1365 1.397 . S
C1364 C1369 1.363 . S
C1365 H1336 0.950 . S
C1365 C1364 1.397 . S
C1365 C1366 1.334 . S
C1366 H1337 0.950 . S
C1366 C1365 1.334 . S
C1366 C1367 1.287 . S
C1367 C1366 1.287 . S
C1367 C1368 1.524 . S
C1367 H1370 0.999 . S
C1368 H1338 0.950 . S
C1368 C1367 1.524 . S
C1368 C1369 1.415 . S
C1369 H1339 0.950 . S
C1369 C1364 1.363 . S
C1369 C1368 1.415 . S
H1370 C1367 0.999 . S
H1371 C1352 0.913 . S
C191 C4 1.756 . S
C206 C91 1.632 . S
C241 C16 1.884 . S
C256 C125 1.737 1_566 S
C306 C137 0.980 . S
C291 C32 1.025 . S
C341 C43 1.327 . S
C356 C171 1.218 1_655 S
C406 C128 1.927 . S
C391 C5 2.082 . S
C456 C108 1.206 1_565 S
C441 C21 1.290 . S
C506 C155 1.255 . S
C491 C27 1.351 . S
C556 C146 1.336 . S
C541 C37 1.402 . S
C591 C10 1.586 . S
C606 C154 1.484 . S
C656 C116 1.489 . S
C641 C26 1.621 . S
C691 C38 1.232 . S
C706 C92 1.138 . S
C741 C15 1.704 . S
C756 C149 1.604 . S
C806 C107 1.838 . S
C791 C48 1.968 . S
C841 C59 1.680 . S
C856 C129 1.578 . S
C891 C76 1.471 . S
C906 C134 1.379 . S
C941 C87 1.270 . S
C956 C167 1.224 . S
C991 C54 1.466 . S
C1006 C112 1.398 . S
C1056 C104 1.914 . S
C1041 C60 2.049 . S
C1106 C158 1.406 . S
C1091 C71 1.453 . S
C1156 C150 1.297 . S
C1141 C82 1.395 . S
C1191 C49 1.861 . S
C1206 C170 1.762 . S
C1256 C113 1.210 . S
C1241 C70 1.305 . S
C1306 C95 1.545 . S
C1291 C81 1.681 . S
C1341 C65 1.570 . S
C1356 C133 1.477 . S
