# Generated by pormake.
# Topology cml, (3,6)-cn, num edge types: 1
# Building blocks:
#     Node 0, Type 0, BuildingBlock: CUQRIR_clean_linker_1, # of connection points: 3
#     Node 1, Type 0, BuildingBlock: CUQRIR_clean_linker_1, # of connection points: 3
#     Node 2, Type 0, BuildingBlock: CUQRIR_clean_linker_1, # of connection points: 3
#     Node 3, Type 0, BuildingBlock: CUQRIR_clean_linker_1, # of connection points: 3
#     Node 4, Type 0, BuildingBlock: CUQRIR_clean_linker_1, # of connection points: 3
#     Node 5, Type 0, BuildingBlock: CUQRIR_clean_linker_1, # of connection points: 3
#     Node 6, Type 0, BuildingBlock: CUQRIR_clean_linker_1, # of connection points: 3
#     Node 7, Type 0, BuildingBlock: CUQRIR_clean_linker_1, # of connection points: 3
#     Node 8, Type 1, BuildingBlock: IZENUY_clean_sbu_0, # of connection points: 6
#     Node 9, Type 1, BuildingBlock: IZENUY_clean_sbu_0, # of connection points: 6
#     Node 10, Type 1, BuildingBlock: IZENUY_clean_sbu_0, # of connection points: 6
#     Node 11, Type 1, BuildingBlock: IZENUY_clean_sbu_0, # of connection points: 6
#     Edge 12, Type (0, 1), BuildingBlock: EZIPEK_clean_linker_0, # of connection points: 2
#     Edge 13, Type (0, 1), BuildingBlock: EZIPEK_clean_linker_0, # of connection points: 2
#     Edge 14, Type (0, 1), BuildingBlock: EZIPEK_clean_linker_0, # of connection points: 2
#     Edge 15, Type (0, 1), BuildingBlock: EZIPEK_clean_linker_0, # of connection points: 2
#     Edge 16, Type (0, 1), BuildingBlock: EZIPEK_clean_linker_0, # of connection points: 2
#     Edge 17, Type (0, 1), BuildingBlock: EZIPEK_clean_linker_0, # of connection points: 2
#     Edge 18, Type (0, 1), BuildingBlock: EZIPEK_clean_linker_0, # of connection points: 2
#     Edge 19, Type (0, 1), BuildingBlock: EZIPEK_clean_linker_0, # of connection points: 2
#     Edge 20, Type (0, 1), BuildingBlock: EZIPEK_clean_linker_0, # of connection points: 2
#     Edge 21, Type (0, 1), BuildingBlock: EZIPEK_clean_linker_0, # of connection points: 2
#     Edge 22, Type (0, 1), BuildingBlock: EZIPEK_clean_linker_0, # of connection points: 2
#     Edge 23, Type (0, 1), BuildingBlock: EZIPEK_clean_linker_0, # of connection points: 2
#     Edge 24, Type (0, 1), BuildingBlock: EZIPEK_clean_linker_0, # of connection points: 2
#     Edge 25, Type (0, 1), BuildingBlock: EZIPEK_clean_linker_0, # of connection points: 2
#     Edge 26, Type (0, 1), BuildingBlock: EZIPEK_clean_linker_0, # of connection points: 2
#     Edge 27, Type (0, 1), BuildingBlock: EZIPEK_clean_linker_0, # of connection points: 2
#     Edge 28, Type (0, 1), BuildingBlock: EZIPEK_clean_linker_0, # of connection points: 2
#     Edge 29, Type (0, 1), BuildingBlock: EZIPEK_clean_linker_0, # of connection points: 2
#     Edge 30, Type (0, 1), BuildingBlock: EZIPEK_clean_linker_0, # of connection points: 2
#     Edge 31, Type (0, 1), BuildingBlock: EZIPEK_clean_linker_0, # of connection points: 2
#     Edge 32, Type (0, 1), BuildingBlock: EZIPEK_clean_linker_0, # of connection points: 2
#     Edge 33, Type (0, 1), BuildingBlock: EZIPEK_clean_linker_0, # of connection points: 2
#     Edge 34, Type (0, 1), BuildingBlock: EZIPEK_clean_linker_0, # of connection points: 2
#     Edge 35, Type (0, 1), BuildingBlock: EZIPEK_clean_linker_0, # of connection points: 2
# Relax obj value: 0.001
# Max RMSD: 0.074
# Mean RMSD: 0.055
data_MOF--net-cml--node1-IZENUY_clean_sbu_0--node2-CUQRIR_clean_linker_1--edge1-EZIPEK_clean_linker_0
_symmetry_space_group_name_H-M    P1
_symmetry_Int_Tables_number       1
_symmetry_cell_setting            triclinic
loop_
_symmetry_equiv_pos_as_xyz
'x, y, z'
_cell_length_a     24.734954
_cell_length_b     27.145885
_cell_length_c     23.062898
_cell_angle_alpha  90.053484
_cell_angle_beta   90.027301
_cell_angle_gamma 89.784988
loop_
_atom_site_label
_atom_site_type_symbol
_atom_site_fract_x
_atom_site_fract_y
_atom_site_fract_z
_atom_type_partial_charge
C0 C 0.25344 0.35992 0.04714 0.0
N1 N 0.29618 0.39093 0.05202 0.0
N2 N 0.23902 0.35428 0.99103 0.0
C3 C 0.22613 0.33411 0.0967 0.0
C4 C 0.2731 0.38377 0.96163 0.0
N5 N 0.30727 0.40678 0.99857 0.0
C6 C 0.2729 0.38992 0.89688 0.0
H7 H 0.23902 0.29492 0.09732 0.0
H8 H 0.18166 0.33478 0.09034 0.0
H9 H 0.23621 0.35151 0.13887 0.0
H10 H 0.2616 0.35493 0.87522 0.0
H11 H 0.31298 0.40214 0.88091 0.0
H12 H 0.24228 0.41815 0.88508 0.0
C13 C 0.76578 0.67826 0.5421 0.0
N14 N 0.72409 0.64615 0.5481 0.0
N15 N 0.78159 0.68131 0.4861 0.0
C16 C 0.79128 0.7071 0.59052 0.0
C17 C 0.74932 0.64909 0.45806 0.0
N18 N 0.71492 0.62704 0.49562 0.0
C19 C 0.751 0.63981 0.39384 0.0
H20 H 0.77665 0.74575 0.58878 0.0
H21 H 0.83582 0.70783 0.58483 0.0
H22 H 0.78142 0.69112 0.63348 0.0
H23 H 0.78164 0.61088 0.38475 0.0
H24 H 0.76299 0.67363 0.37021 0.0
H25 H 0.71121 0.62696 0.37765 0.0
C26 C 0.75294 0.34112 0.05737 0.0
N27 N 0.71988 0.38107 0.05963 0.0
N28 N 0.78578 0.34339 1.01067 0.0
C29 C 0.75282 0.2995 0.10026 0.0
C30 C 0.77177 0.38609 0.98444 0.0
N31 N 0.73044 0.40869 1.01305 0.0
C32 C 0.79897 0.40538 0.93083 0.0
H33 H 0.78334 0.30712 0.13434 0.0
H34 H 0.76394 0.26429 0.07879 0.0
H35 H 0.71266 0.29582 0.12119 0.0
H36 H 0.78434 0.38456 0.89253 0.0
H37 H 0.84327 0.3993 0.9339 0.0
H38 H 0.79065 0.44521 0.92455 0.0
C39 C 0.26315 0.69005 0.5575 0.0
N40 N 0.29706 0.65072 0.56005 0.0
N41 N 0.23093 0.68722 0.51027 0.0
C42 C 0.26207 0.7317 0.60042 0.0
C43 C 0.24609 0.64479 0.48417 0.0
N44 N 0.28755 0.623 0.51327 0.0
C45 C 0.2202 0.62519 0.42989 0.0
H46 H 0.23214 0.72314 0.63475 0.0
H47 H 0.24953 0.76656 0.57914 0.0
H48 H 0.30223 0.73652 0.62107 0.0
H49 H 0.23476 0.64658 0.39206 0.0
H50 H 0.1757 0.63021 0.43225 0.0
H51 H 0.22969 0.5856 0.42334 0.0
C52 C 0.75311 0.8602 0.04615 0.0
N53 N 0.79572 0.89162 0.05027 0.0
N54 N 0.73639 0.85584 0.99052 0.0
C55 C 0.72763 0.83325 0.09597 0.0
C56 C 0.76896 0.88647 0.96074 0.0
N57 N 0.8044 0.90883 0.99685 0.0
C58 C 0.76681 0.89364 0.89612 0.0
H59 H 0.741 0.7942 0.09524 0.0
H60 H 0.68299 0.83352 0.09106 0.0
H61 H 0.73868 0.85007 0.13818 0.0
H62 H 0.7376 0.92358 0.88619 0.0
H63 H 0.7528 0.85968 0.87404 0.0
H64 H 0.80697 0.90423 0.87883 0.0
C65 C 0.26249 0.1783 0.54319 0.0
N66 N 0.22789 0.14096 0.55418 0.0
N67 N 0.28069 0.17599 0.48826 0.0
C68 C 0.27473 0.21959 0.58474 0.0
C69 C 0.25563 0.13614 0.46554 0.0
N70 N 0.22452 0.113 0.50628 0.0
C71 C 0.25582 0.12523 0.40147 0.0
H72 H 0.3082 0.24314 0.56904 0.0
H73 H 0.28558 0.20444 0.62785 0.0
H74 H 0.23792 0.24261 0.59028 0.0
H75 H 0.29173 0.10249 0.39054 0.0
H76 H 0.25912 0.15995 0.37637 0.0
H77 H 0.21849 0.10599 0.38772 0.0
C78 C 0.26194 0.84968 0.05166 0.0
N79 N 0.23132 0.89109 0.05574 0.0
N80 N 0.28417 0.84566 0.99872 0.0
C81 C 0.26764 0.8112 0.09834 0.0
C82 C 0.26511 0.88527 0.96946 0.0
N83 N 0.23515 0.91559 1.0051 0.0
C84 C 0.26664 0.88679 0.90395 0.0
H85 H 0.29806 0.82374 0.13042 0.0
H86 H 0.28137 0.77543 0.08015 0.0
H87 H 0.22879 0.80571 0.12142 0.0
H88 H 0.23064 0.9053 0.88539 0.0
H89 H 0.26755 0.84903 0.88575 0.0
H90 H 0.30436 0.90471 0.88911 0.0
C91 C 0.75785 0.18522 0.55863 0.0
N92 N 0.79512 0.14848 0.55985 0.0
N93 N 0.72927 0.18413 0.50868 0.0
C94 C 0.7522 0.2243 0.60444 0.0
C95 C 0.7501 0.14515 0.47954 0.0
N96 N 0.79142 0.12397 0.50967 0.0
C97 C 0.72995 0.12845 0.42128 0.0
H98 H 0.7531 0.20732 0.64817 0.0
H99 H 0.71425 0.24571 0.59911 0.0
H100 H 0.78707 0.24976 0.60135 0.0
H101 H 0.74655 0.15288 0.38717 0.0
H102 H 0.68523 0.13162 0.41956 0.0
H103 H 0.74211 0.08984 0.41213 0.0
Fe104 Fe 0.01262 0.84458 0.31347 0.0
Fe105 Fe 1.00326 0.89875 0.43122 0.0
O106 O 0.00896 0.90001 0.35436 0.0
Fe107 Fe 0.00987 0.95801 0.31813 0.0
O108 O 0.94659 0.94382 0.28053 0.0
O109 O 0.97082 0.86893 0.25393 0.0
O110 O 0.95072 0.82032 0.34432 0.0
C111 C 0.93837 0.8175 0.39709 0.0
C112 C 0.08014 0.9006 0.24673 0.0
O113 O 0.96214 0.84296 0.43498 0.0
C114 C 0.07793 0.97613 0.409 0.0
O115 O 0.05444 0.81146 0.36686 0.0
O116 O 0.06523 0.86352 0.43971 0.0
O117 O 0.04972 0.93747 0.25476 0.0
O118 O 0.07519 0.86263 0.27763 0.0
C119 C 0.93683 0.97708 0.41088 0.0
O120 O 0.04442 0.9543 0.44169 0.0
O121 O 0.07298 0.97493 0.35427 0.0
C122 C 0.07767 0.8243 0.41348 0.0
O123 O 0.93999 0.93355 0.42935 0.0
O124 O 0.97047 0.9916 0.37341 0.0
C125 C 0.94007 0.9063 0.24851 0.0
Fe126 Fe 0.01851 0.13496 0.93544 0.0
Fe127 Fe 0.01958 0.07907 0.81867 0.0
O128 O 0.016 0.13539 0.85824 0.0
Fe129 Fe 0.00999 0.19228 0.82044 0.0
O130 O 0.07208 0.21539 0.85154 0.0
O131 O 0.0554 0.19336 0.94166 0.0
O132 O 0.08362 0.1041 0.9361 0.0
C133 C 0.09317 0.0629 0.91299 0.0
C134 C 0.94181 0.20648 0.91888 0.0
O135 O 0.06453 0.04734 0.87114 0.0
C136 C 0.94294 0.1366 0.75366 0.0
O137 O 0.98226 0.07651 0.94332 0.0
O138 O 0.95962 0.05529 0.85426 0.0
O139 O 0.96848 0.22291 0.87627 0.0
O140 O 0.95343 0.16566 0.9417 0.0
C141 C 0.08359 0.13721 0.75029 0.0
O142 O 0.97521 0.10028 0.75861 0.0
O143 O 0.94734 0.17366 0.78617 0.0
C144 C 0.95387 0.05164 0.90847 0.0
O145 O 0.08007 0.09843 0.78016 0.0
O146 O 0.05056 0.17245 0.75753 0.0
C147 C 0.0818 0.21815 0.905 0.0
Fe148 Fe 0.50959 0.34421 0.31777 0.0
Fe149 Fe 0.49801 0.39578 0.43706 0.0
O150 O 0.50331 0.3987 0.36013 0.0
Fe151 Fe 0.5009 0.45699 0.32501 0.0
O152 O 0.43893 0.44026 0.28703 0.0
O153 O 0.46849 0.36803 0.25729 0.0
O154 O 0.4479 0.31816 0.3469 0.0
C155 C 0.43535 0.31394 0.39951 0.0
C156 C 0.57482 0.40365 0.25344 0.0
O157 O 0.45917 0.33829 0.43857 0.0
C158 C 0.56684 0.47846 0.41634 0.0
O159 O 0.55136 0.31094 0.3711 0.0
O160 O 0.5617 0.36258 0.44429 0.0
O161 O 0.54266 0.43922 0.26204 0.0
O162 O 0.57188 0.36519 0.28395 0.0
C163 C 0.42707 0.47128 0.41794 0.0
O164 O 0.53655 0.45312 0.44927 0.0
O165 O 0.5621 0.47683 0.36169 0.0
C166 C 0.57468 0.32362 0.41769 0.0
O167 O 0.43313 0.42815 0.43684 0.0
O168 O 0.45922 0.48755 0.38009 0.0
C169 C 0.43516 0.40361 0.25346 0.0
Fe170 Fe 0.52033 0.63567 0.93446 0.0
Fe171 Fe 0.52104 0.57584 0.82107 0.0
O172 O 0.51669 0.63349 0.85737 0.0
Fe173 Fe 0.5099 0.68847 0.8161 0.0
O174 O 0.57119 0.71446 0.84651 0.0
O175 O 0.55727 0.69397 0.93765 0.0
O176 O 0.58608 0.60469 0.93549 0.0
C177 C 0.5939 0.56203 0.91562 0.0
C178 C 0.4422 0.70636 0.91429 0.0
O179 O 0.56351 0.54585 0.87592 0.0
C180 C 0.4455 0.62875 0.75098 0.0
O181 O 0.48377 0.57742 0.94515 0.0
O182 O 0.46029 0.55374 0.85688 0.0
O183 O 0.46748 0.72069 0.86971 0.0
O184 O 0.45529 0.66718 0.94034 0.0
C185 C 0.58546 0.63142 0.7504 0.0
O186 O 0.47865 0.5937 0.75852 0.0
O187 O 0.44804 0.66714 0.78173 0.0
C188 C 0.45499 0.55155 0.91141 0.0
O189 O 0.58275 0.59452 0.78365 0.0
O190 O 0.55123 0.66616 0.75501 0.0
C191 C 0.582 0.71862 0.89965 0.0
C192 C 0.21634 0.27248 0.95158 0.0
C193 C 0.19989 0.32062 0.9676 0.0
C194 C 0.10607 0.3019 0.94255 0.0
C195 C 0.12252 0.25371 0.92577 0.0
N196 N 0.19242 0.19313 0.90996 0.0
N197 N 0.13275 0.38416 0.97315 0.0
C198 C 0.17753 0.23896 0.92906 0.0
C199 C 0.14564 0.33613 0.96164 0.0
N200 N 0.26922 0.25909 0.95879 0.0
N201 N 0.05252 0.31447 0.94106 0.0
H202 H 0.1612 0.40943 0.98819 0.0
H203 H 0.09515 0.39995 0.96497 0.0
H204 H 0.02289 0.29126 0.92451 0.0
H205 H 0.03669 0.34682 0.95842 0.0
H206 H 0.28402 0.22348 0.95358 0.0
H207 H 0.29876 0.28401 0.9718 0.0
H208 H 0.23216 0.181 0.90615 0.0
H209 H 0.1646 0.16712 0.89545 0.0
C210 C 0.80373 0.76278 0.44479 0.0
C211 C 0.8204 0.71484 0.4613 0.0
C212 C 0.91249 0.73197 0.42788 0.0
C213 C 0.89699 0.78146 0.41604 0.0
N214 N 0.82934 0.84557 0.416 0.0
N215 N 0.88976 0.65398 0.47364 0.0
C216 C 0.8429 0.79731 0.42518 0.0
C217 C 0.8746 0.69945 0.45402 0.0
N218 N 0.75003 0.77456 0.44665 0.0
N219 N 0.96312 0.71595 0.41318 0.0
H220 H 0.86223 0.62928 0.49161 0.0
H221 H 0.92965 0.6418 0.4756 0.0
H222 H 0.99193 0.73881 0.39443 0.0
H223 H 0.97559 0.67937 0.41564 0.0
H224 H 0.73382 0.8071 0.43025 0.0
H225 H 0.7208 0.74985 0.46104 0.0
H226 H 0.79243 0.86101 0.42794 0.0
H227 H 0.85628 0.87117 0.39883 0.0
C228 C 0.80796 0.27285 0.94685 0.0
C229 C 0.82379 0.3067 0.99035 0.0
C230 C 0.91349 0.26829 0.99459 0.0
C231 C 0.89989 0.23842 0.94604 0.0
N232 N 0.83514 0.21316 0.87386 0.0
N233 N 0.89173 0.34046 0.05268 0.0
C234 C 0.84728 0.24093 0.92156 0.0
C235 C 0.8766 0.3053 1.01359 0.0
N236 N 0.75479 0.27041 0.93126 0.0
N237 N 0.96112 0.26062 0.02325 0.0
H238 H 0.86497 0.36735 0.06787 0.0
H239 H 0.93133 0.34524 0.06684 0.0
H240 H 0.98894 0.23375 1.01087 0.0
H241 H 0.97115 0.27793 0.06206 0.0
H242 H 0.73909 0.24375 0.90359 0.0
H243 H 0.72533 0.29271 0.95028 0.0
H244 H 0.79976 0.21729 0.84987 0.0
H245 H 0.8619 0.18738 0.85632 0.0
C246 C 0.1388 0.72231 0.50698 0.0
C247 C 0.1932 0.72351 0.48858 0.0
C248 C 0.17202 0.78992 0.41993 0.0
C249 C 0.11785 0.79041 0.44026 0.0
N250 N 0.05112 0.76243 0.5091 0.0
N251 N 0.26459 0.76272 0.43582 0.0
C252 C 0.10167 0.7582 0.4857 0.0
C253 C 0.21066 0.75864 0.44737 0.0
N254 N 0.12262 0.68577 0.5437 0.0
N255 N 0.18622 0.81877 0.37386 0.0
H256 H 0.29349 0.74054 0.45599 0.0
H257 H 0.28117 0.79043 0.41034 0.0
H258 H 0.1594 0.84319 0.35394 0.0
H259 H 0.22342 0.81646 0.35296 0.0
H260 H 0.08243 0.67893 0.55417 0.0
H261 H 0.14959 0.65997 0.56089 0.0
H262 H 0.03858 0.74357 0.54595 0.0
H263 H 0.02252 0.78755 0.4941 0.0
C264 C 0.64368 0.83671 0.95849 0.0
C265 C 0.6978 0.82154 0.96693 0.0
C266 C 0.67671 0.7393 0.9292 0.0
C267 C 0.62276 0.75496 0.91894 0.0
N268 N 0.55647 0.82018 0.91436 0.0
N269 N 0.76897 0.76244 0.9526 0.0
C270 C 0.60666 0.80425 0.93081 0.0
C271 C 0.71519 0.77386 0.95014 0.0
N272 N 0.62785 0.88201 0.97809 0.0
N273 N 0.69086 0.69123 0.91961 0.0
H274 H 0.79783 0.78717 0.96778 0.0
H275 H 0.78565 0.73021 0.93582 0.0
H276 H 0.66472 0.66577 0.90075 0.0
H277 H 0.72748 0.67584 0.93268 0.0
H278 H 0.58786 0.89404 0.97893 0.0
H279 H 0.65481 0.90664 0.99725 0.0
H280 H 0.54365 0.85666 0.91707 0.0
H281 H 0.52858 0.79739 0.89381 0.0
C282 C 0.37356 0.19543 0.45685 0.0
C283 C 0.31839 0.20894 0.46047 0.0
C284 C 0.33911 0.29087 0.42148 0.0
C285 C 0.39433 0.27691 0.41671 0.0
N286 N 0.4626 0.21329 0.41846 0.0
N287 N 0.24628 0.2652 0.43904 0.0
C288 C 0.41109 0.22829 0.43089 0.0
C289 C 0.30047 0.25549 0.44043 0.0
N290 N 0.39016 0.15179 0.48048 0.0
N291 N 0.324 0.33822 0.40909 0.0
H292 H 0.21766 0.23972 0.45313 0.0
H293 H 0.22937 0.29658 0.42046 0.0
H294 H 0.35088 0.36433 0.39287 0.0
H295 H 0.28567 0.35248 0.41733 0.0
H296 H 0.43057 0.14182 0.48547 0.0
H297 H 0.3633 0.12678 0.49896 0.0
H298 H 0.476 0.17707 0.42261 0.0
H299 H 0.49105 0.23635 0.39936 0.0
C300 C 0.30593 0.76782 0.94693 0.0
C301 C 0.32305 0.80924 0.97928 0.0
C302 C 0.4161 0.77772 0.97833 0.0
C303 C 0.40027 0.73957 0.93971 0.0
N304 N 0.33107 0.70158 0.88145 0.0
N305 N 0.39449 0.85723 0.02092 0.0
C306 C 0.3453 0.73538 0.92253 0.0
C307 C 0.37823 0.81511 0.99368 0.0
N308 N 0.25191 0.7594 0.94034 0.0
N309 N 0.46688 0.77753 1.00159 0.0
H310 H 0.36743 0.88484 0.03342 0.0
H311 H 0.43488 0.86656 0.02706 0.0
H312 H 0.49524 0.75028 0.9922 0.0
H313 H 0.47931 0.80162 0.03408 0.0
H314 H 0.2363 0.72738 0.92205 0.0
H315 H 0.22266 0.78316 0.95735 0.0
H316 H 0.29274 0.69983 0.86289 0.0
H317 H 0.35902 0.6776 0.86271 0.0
C318 C 0.70855 0.25828 0.45 0.0
C319 C 0.69096 0.22031 0.48753 0.0
C320 C 0.59918 0.25476 0.48635 0.0
C321 C 0.61541 0.28959 0.44373 0.0
N322 N 0.68427 0.32168 0.38045 0.0
N323 N 0.61965 0.17847 0.53722 0.0
C324 C 0.66983 0.29052 0.42421 0.0
C325 C 0.63622 0.21754 0.50458 0.0
N326 N 0.7626 0.26433 0.44069 0.0
N327 N 0.54882 0.25791 0.51035 0.0
H328 H 0.64642 0.15139 0.55187 0.0
H329 H 0.57928 0.17091 0.5462 0.0
H330 H 0.52076 0.28465 0.4983 0.0
H331 H 0.53626 0.23669 0.54537 0.0
H332 H 0.77891 0.29397 0.41816 0.0
H333 H 0.79158 0.24184 0.4602 0.0
H334 H 0.72173 0.32057 0.35991 0.0
H335 H 0.6573 0.34672 0.36198 0.0
C336 C 0.40081 0.43337 0.97869 0.0
C337 C 0.34518 0.44479 0.98264 0.0
C338 C 0.36151 0.52689 0.94111 0.0
C339 C 0.41732 0.51521 0.93708 0.0
N340 N 0.49212 0.46201 0.96261 0.0
N341 N 0.27072 0.50024 0.96643 0.0
C342 C 0.43761 0.46987 0.95924 0.0
C343 C 0.3251 0.49124 0.96383 0.0
N344 N 0.41773 0.38636 0.98969 0.0
N345 N 0.34402 0.5728 0.92512 0.0
H346 H 0.24362 0.47582 0.98555 0.0
H347 H 0.25164 0.53098 0.94892 0.0
H348 H 0.36996 0.59959 0.90887 0.0
H349 H 0.30473 0.58578 0.9301 0.0
H350 H 0.4568 0.37362 0.98195 0.0
H351 H 0.39115 0.35865 1.00208 0.0
H352 H 0.50966 0.43233 0.98419 0.0
H353 H 0.52037 0.48719 0.94761 0.0
C354 C 0.69732 0.54135 0.46383 0.0
C355 C 0.67721 0.58822 0.48109 0.0
C356 C 0.58437 0.55998 0.46512 0.0
C357 C 0.60463 0.51475 0.44248 0.0
N358 N 0.67982 0.46195 0.41878 0.0
N359 N 0.60341 0.64541 0.48809 0.0
C360 C 0.66106 0.5053 0.44151 0.0
C361 C 0.62113 0.59828 0.47952 0.0
N362 N 0.75124 0.53135 0.46976 0.0
N363 N 0.53005 0.56641 0.47288 0.0
H364 H 0.62989 0.67441 0.49587 0.0
H365 H 0.56354 0.65669 0.48204 0.0
H366 H 0.50179 0.53957 0.4625 0.0
H367 H 0.51318 0.59662 0.49407 0.0
H368 H 0.76844 0.49676 0.4633 0.0
H369 H 0.77874 0.55719 0.48537 0.0
H370 H 0.72035 0.45468 0.41014 0.0
H371 H 0.65423 0.43343 0.40616 0.0
C372 C 0.67519 0.44505 0.93368 0.0
C373 C 0.69708 0.44858 0.9903 0.0
C374 C 0.64937 0.52744 1.00191 0.0
C375 C 0.63452 0.52703 0.94187 0.0
N376 N 0.65484 0.49155 0.8478 0.0
N377 N 0.71773 0.50145 0.07086 0.0
C378 C 0.65414 0.48774 0.90681 0.0
C379 C 0.68811 0.49237 0.02229 0.0
N380 N 0.67303 0.40084 0.90571 0.0
N381 N 0.62509 0.55849 0.0406 0.0
H382 H 0.74908 0.47815 0.08362 0.0
H383 H 0.71541 0.53463 0.09356 0.0
H384 H 0.59333 0.58203 0.03025 0.0
H385 H 0.6324 0.55634 0.08507 0.0
H386 H 0.65375 0.3965 0.86579 0.0
H387 H 0.68482 0.36799 0.92532 0.0
H388 H 0.67195 0.4645 0.8213 0.0
H389 H 0.64556 0.52426 0.82629 0.0
C390 C 0.34488 0.58798 0.43489 0.0
C391 C 0.32198 0.58379 0.49094 0.0
C392 C 0.37052 0.50554 0.50308 0.0
C393 C 0.38637 0.50639 0.44344 0.0
N394 N 0.36826 0.54235 0.34917 0.0
N395 N 0.30071 0.53047 0.57077 0.0
C396 C 0.36731 0.54575 0.40823 0.0
C397 C 0.33102 0.54005 0.52287 0.0
N398 N 0.34645 0.6323 0.40721 0.0
N399 N 0.39466 0.47462 0.54197 0.0
H400 H 0.2688 0.55334 0.58301 0.0
H401 H 0.30316 0.49727 0.59334 0.0
H402 H 0.42713 0.45174 0.53196 0.0
H403 H 0.38654 0.47636 0.5863 0.0
H404 H 0.36659 0.63723 0.36792 0.0
H405 H 0.33301 0.66482 0.42643 0.0
H406 H 0.35142 0.56931 0.3224 0.0
H407 H 0.37865 0.50995 0.32759 0.0
C408 C 0.89824 0.93395 0.9753 0.0
C409 C 0.84279 0.94601 0.97955 0.0
C410 C 0.85953 0.02609 0.93324 0.0
C411 C 0.91562 1.01514 0.93249 0.0
N412 N 0.98985 0.96174 0.95938 0.0
N413 N 0.77004 1.00417 0.9678 0.0
C414 C 0.93545 0.97011 0.95592 0.0
C415 C 0.82333 0.99241 0.95998 0.0
N416 N 0.91464 0.88674 0.98594 0.0
N417 N 0.84098 0.06842 0.90777 0.0
H418 H 0.74248 0.9799 0.98644 0.0
H419 H 0.75365 0.03886 0.95991 0.0
H420 H 0.86658 0.09491 0.8901 0.0
H421 H 0.8003 0.07635 0.901 0.0
H422 H 0.95364 0.87382 0.97816 0.0
H423 H 0.88767 0.85912 0.99767 0.0
H424 H 1.00688 0.9327 0.98262 0.0
H425 H 0.01834 0.98557 0.9419 0.0
C426 C 0.21365 0.02941 0.46003 0.0
C427 C 0.19425 0.0669 0.49784 0.0
C428 C 0.10231 0.04268 0.47941 0.0
C429 C 0.11926 1.00801 0.43706 0.0
N430 N 0.19224 0.95607 0.40333 0.0
N431 N 0.13201 0.05402 0.57535 0.0
C432 C 0.17564 0.99754 0.43179 0.0
C433 C 0.14099 0.06134 0.51795 0.0
N434 N 0.26803 0.02364 0.45332 0.0
N435 N 0.04931 0.0548 0.48702 0.0
H436 H 0.16413 0.05 0.6043 0.0
H437 H 0.09389 0.0446 0.59133 0.0
H438 H 0.01893 0.04322 0.45889 0.0
H439 H 0.03742 0.07964 0.51926 0.0
H440 H 0.28567 1.00045 0.4227 0.0
H441 H 0.29535 0.04343 0.47876 0.0
H442 H 0.23235 0.94469 0.40053 0.0
H443 H 0.16491 0.93065 0.38651 0.0
C444 C 0.22292 0.98847 0.93757 0.0
C445 C 0.2098 0.96333 0.98933 0.0
C446 C 0.13052 1.01621 0.99944 0.0
C447 C 0.13474 0.03003 0.93995 0.0
N448 N 0.18919 0.03057 0.85273 0.0
N449 N 0.18732 0.99892 0.0809 0.0
C450 C 0.18237 1.01675 0.90903 0.0
C451 C 0.17304 0.9888 0.0253 0.0
N452 N 0.27563 0.99175 0.92116 0.0
N453 N 0.08659 0.02889 0.03192 0.0
H454 H 0.22637 0.99099 0.09541 0.0
H455 H 0.16433 0.02155 0.10803 0.0
H456 H 0.05408 0.04899 1.01565 0.0
H457 H 0.08144 1.01587 0.07415 0.0
H458 H 0.28853 1.01367 0.88677 0.0
H459 H 0.30645 0.97682 0.94679 0.0
H460 H 0.2215 0.01811 0.82757 0.0
H461 H 0.16058 0.05132 0.83033 0.0
C462 C 0.83721 0.0418 0.51498 0.0
C463 C 0.8295 0.08762 0.48703 0.0
C464 C 0.88144 0.05574 0.40465 0.0
C465 C 0.89803 1.01378 0.43729 0.0
N466 N 0.90177 0.97726 0.5338 0.0
N467 N 0.85762 0.14181 0.4098 0.0
C468 C 0.87896 1.00957 0.49558 0.0
C469 C 0.85618 0.09587 0.43349 0.0
N470 N 0.80277 0.02749 0.55764 0.0
N471 N 0.88623 0.05655 0.34566 0.0
H472 H 0.84053 0.17237 0.43005 0.0
H473 H 0.88045 0.14997 0.37305 0.0
H474 H 0.89785 0.02588 0.32147 0.0
H475 H 0.87103 0.08532 0.32044 0.0
H476 H 0.80485 0.99282 0.57701 0.0
H477 H 0.768 0.04768 0.56698 0.0
H478 H 0.89031 0.97604 0.57731 0.0
H479 H 0.93662 0.95705 0.52494 0.0
C480 C 0.35235 0.35314 0.12936 0.0
C481 C 0.33082 0.39584 0.10256 0.0
C482 C 0.38088 0.44626 0.17242 0.0
C483 C 0.39526 0.40309 0.20444 0.0
N484 N 0.37476 0.31715 0.2213 0.0
N485 N 0.31288 0.48268 0.10995 0.0
C486 C 0.37504 0.35698 0.1853 0.0
C487 C 0.3415 0.44244 0.1275 0.0
N488 N 0.35224 0.3089 0.10135 0.0
N489 N 0.40631 0.4901 0.18171 0.0
H490 H 0.28121 0.47981 0.08037 0.0
H491 H 0.31644 0.51703 0.12983 0.0
H492 H 0.43868 0.49443 0.21003 0.0
H493 H 0.39938 0.5209 0.15571 0.0
H494 H 0.3714 0.27771 0.11811 0.0
H495 H 0.3385 0.30489 0.05898 0.0
H496 H 0.35701 0.28373 0.20984 0.0
H497 H 0.38479 0.31988 0.26498 0.0
C498 C 0.68134 0.59464 0.62524 0.0
C499 C 0.68973 0.64106 0.59893 0.0
C500 C 0.64273 0.6797 0.68032 0.0
C501 C 0.62494 0.63306 0.70077 0.0
N502 N 0.61832 0.54533 0.67954 0.0
N503 N 0.66417 0.72698 0.59519 0.0
C504 C 0.64173 0.59001 0.66978 0.0
C505 C 0.66584 0.68334 0.62442 0.0
N506 N 0.71243 0.5554 0.60944 0.0
N507 N 0.64044 0.72036 0.71507 0.0
H508 H 0.67853 0.73079 0.55301 0.0
H509 H 0.64321 0.75766 0.61077 0.0
H510 H 0.63001 0.71841 0.7587 0.0
H511 H 0.65646 0.75427 0.70275 0.0
H512 H 0.71046 0.5214 0.63033 0.0
H513 H 0.74447 0.55915 0.58053 0.0
H514 H 0.62717 0.51444 0.6543 0.0
H515 H 0.58554 0.5402 0.70706 0.0
C516 C 0.70428 0.40347 0.16259 0.0
C517 C 0.6831 0.39266 0.10672 0.0
C518 C 0.591 0.3997 0.1451 0.0
C519 C 0.61204 0.40454 0.20238 0.0
N520 N 0.68855 0.41179 0.26622 0.0
N521 N 0.60744 0.37176 0.04672 0.0
C522 C 0.66877 0.40669 0.21121 0.0
C523 C 0.62671 0.38889 0.09838 0.0
N524 N 0.75852 0.41141 0.1686 0.0
N525 N 0.53699 0.40568 0.13496 0.0
H526 H 0.63292 0.36178 1.0127 0.0
H527 H 0.56705 0.36292 0.03954 0.0
H528 H 0.50938 0.41378 0.16748 0.0
H529 H 0.52027 0.4075 0.09356 0.0
H530 H 0.77666 0.42375 0.2066 0.0
H531 H 0.78535 0.40918 0.13381 0.0
H532 H 0.7291 0.40756 0.27722 0.0
H533 H 0.66365 0.41877 0.30176 0.0
C534 C 0.39086 0.64593 0.59759 0.0
C535 C 0.33476 0.64019 0.60665 0.0
C536 C 0.35118 0.62341 0.7102 0.0
C537 C 0.40763 0.62769 0.70053 0.0
N538 N 0.48179 0.63162 0.63243 0.0
N539 N 0.26071 0.61878 0.66907 0.0
C540 C 0.42765 0.63513 0.64332 0.0
C541 C 0.31473 0.62754 0.66242 0.0
N542 N 0.40863 0.66483 0.54622 0.0
N543 N 0.33268 0.6153 0.7652 0.0
H544 H 0.23323 0.62182 0.63494 0.0
H545 H 0.24325 0.60542 0.70689 0.0
H546 H 0.35852 0.60747 0.79975 0.0
H547 H 0.29224 0.61747 0.7773 0.0
H548 H 0.44856 0.67488 0.53845 0.0
H549 H 0.3822 0.67504 0.51315 0.0
H550 H 0.4983 0.63221 0.59094 0.0
H551 H 0.51005 0.62329 0.66425 0.0
C552 C 0.85375 0.85477 0.12708 0.0
C553 C 0.83152 0.89707 0.10008 0.0
C554 C 0.88365 0.94826 0.16784 0.0
C555 C 0.89878 0.90554 0.20034 0.0
N556 N 0.87689 0.82013 0.21947 0.0
N557 N 0.81366 0.98396 0.10729 0.0
C558 C 0.87751 0.85932 0.18252 0.0
C559 C 0.84296 0.94393 0.12416 0.0
N560 N 0.85318 0.81018 0.09985 0.0
N561 N 0.90929 0.9922 0.17556 0.0
H562 H 0.78081 0.98065 0.07933 0.0
H563 H 0.81785 0.01849 0.12657 0.0
H564 H 0.9423 0.99694 0.2029 0.0
H565 H 0.9017 0.02262 0.14915 0.0
H566 H 0.8727 0.77926 0.11685 0.0
H567 H 0.83859 0.80557 0.05787 0.0
H568 H 0.85866 0.78672 0.20885 0.0
H569 H 0.8868 0.82362 0.2631 0.0
C570 C 0.13879 0.1579 0.598 0.0
C571 C 0.19246 0.14075 0.60384 0.0
C572 C 0.17798 0.13012 0.70828 0.0
C573 C 0.12179 0.1388 0.70023 0.0
N574 N 0.04794 0.14677 0.63239 0.0
N575 N 0.26298 0.10655 0.66316 0.0
C576 C 0.10188 0.14959 0.64382 0.0
C577 C 0.21215 0.12587 0.6588 0.0
N578 N 0.12254 0.18 0.5478 0.0
N579 N 0.19904 0.12821 0.76292 0.0
H580 H 0.28851 0.10326 0.62732 0.0
H581 H 0.27792 0.09054 0.70097 0.0
H582 H 0.1754 0.13359 0.79979 0.0
H583 H 0.24037 0.12617 0.77135 0.0
H584 H 0.08471 0.19661 0.54317 0.0
H585 H 0.14857 0.18519 0.51278 0.0
H586 H 0.0317 0.15066 0.59094 0.0
H587 H 0.02061 0.13369 0.66289 0.0
C588 C 0.13735 0.88534 0.0928 0.0
C589 C 0.19222 0.89789 0.10204 0.0
C590 C 0.17247 0.91637 0.2044 0.0
C591 C 0.11844 0.90036 0.19647 0.0
N592 N 0.05008 0.86554 0.13408 0.0
N593 N 0.2642 0.91941 0.16718 0.0
C594 C 0.10095 0.88405 0.14075 0.0
C595 C 0.21039 0.91119 0.15832 0.0
N596 N 0.12032 0.87414 0.038 0.0
N597 N 0.18693 0.9384 0.2553 0.0
H598 H 0.29213 0.91969 0.13327 0.0
H599 H 0.28151 0.92346 0.20805 0.0
H600 H 0.15958 0.94394 0.28896 0.0
H601 H 0.22415 0.95516 0.26229 0.0
H602 H 0.07992 0.87074 0.02617 0.0
H603 H 0.14667 0.87081 1.00299 0.0
H604 H 0.03637 0.84791 0.09685 0.0
H605 H 0.02204 0.86496 0.16741 0.0
C606 C 0.81998 0.11446 0.6563 0.0
C607 C 0.83432 0.14133 0.60588 0.0
C608 C 0.91409 0.17256 0.65698 0.0
C609 C 0.90476 0.13895 0.70339 0.0
N610 N 0.85015 0.07423 0.74437 0.0
N611 N 0.89716 0.19345 0.5564 0.0
C612 C 0.85839 0.10833 0.70182 0.0
C613 C 0.88238 0.16921 0.60564 0.0
N614 N 0.76827 0.09796 0.66264 0.0
N615 N 0.95151 0.20917 0.66247 0.0
H616 H 0.87302 0.19386 0.51942 0.0
H617 H 0.93484 0.20984 0.55101 0.0
H618 H 0.97611 0.21339 0.69867 0.0
H619 H 0.95541 0.2378 0.63274 0.0
H620 H 0.75382 0.08246 0.7009 0.0
H621 H 0.73844 0.10425 0.63149 0.0
H622 H 0.81987 0.04771 0.74209 0.0
H623 H 0.87576 0.07039 0.78 0.0
loop_
_geom_bond_atom_site_label_1
_geom_bond_atom_site_label_2
_geom_bond_distance
_geom_bond_site_symmetry_2
_ccdc_geom_bond_type
C0 N1 1.317 . S
C0 N2 1.348 1_554 S
C0 C3 1.485 . S
N1 C0 1.317 . S
N1 N5 1.370 1_554 S
N2 C0 1.348 1_556 S
N2 C4 1.346 . S
C3 C0 1.485 . S
C3 H7 0.960 . S
C3 H8 0.961 . S
C3 H9 0.960 . S
C4 N2 1.346 . S
C4 N5 1.307 . S
C4 C6 1.486 . S
N5 N1 1.370 1_556 S
N5 C4 1.307 . S
C6 C4 1.486 . S
C6 H10 0.960 . S
C6 H11 0.960 . S
C6 H12 0.959 . S
H7 C3 0.960 . S
H8 C3 0.961 . S
H9 C3 0.960 . S
H10 C6 0.960 . S
H11 C6 0.960 . S
H12 C6 0.959 . S
C13 N14 1.317 . S
C13 N15 1.348 . S
C13 C16 1.485 . S
N14 C13 1.317 . S
N14 N18 1.370 . S
N15 C13 1.348 . S
N15 C17 1.346 . S
C16 C13 1.485 . S
C16 H20 0.960 . S
C16 H21 0.961 . S
C16 H22 0.960 . S
C17 N15 1.346 . S
C17 N18 1.307 . S
C17 C19 1.486 . S
N18 N14 1.370 . S
N18 C17 1.307 . S
C19 C17 1.486 . S
C19 H23 0.960 . S
C19 H24 0.960 . S
C19 H25 0.959 . S
H20 C16 0.960 . S
H21 C16 0.961 . S
H22 C16 0.960 . S
H23 C19 0.960 . S
H24 C19 0.960 . S
H25 C19 0.959 . S
C26 N27 1.317 . S
C26 N28 1.348 1_554 S
C26 C29 1.485 . S
N27 C26 1.317 . S
N27 N31 1.370 1_554 S
N28 C26 1.348 1_556 S
N28 C30 1.346 . S
C29 C26 1.485 . S
C29 H33 0.960 . S
C29 H34 0.961 . S
C29 H35 0.960 . S
C30 N28 1.346 . S
C30 N31 1.307 . S
C30 C32 1.486 . S
N31 N27 1.370 1_556 S
N31 C30 1.307 . S
C32 C30 1.486 . S
C32 H36 0.960 . S
C32 H37 0.960 . S
C32 H38 0.959 . S
H33 C29 0.960 . S
H34 C29 0.961 . S
H35 C29 0.960 . S
H36 C32 0.960 . S
H37 C32 0.960 . S
H38 C32 0.959 . S
C39 N40 1.317 . S
C39 N41 1.348 . S
C39 C42 1.485 . S
N40 C39 1.317 . S
N40 N44 1.370 . S
N41 C39 1.348 . S
N41 C43 1.346 . S
C42 C39 1.485 . S
C42 H46 0.960 . S
C42 H47 0.961 . S
C42 H48 0.960 . S
C43 N41 1.346 . S
C43 N44 1.307 . S
C43 C45 1.486 . S
N44 N40 1.370 . S
N44 C43 1.307 . S
C45 C43 1.486 . S
C45 H49 0.960 . S
C45 H50 0.960 . S
C45 H51 0.959 . S
H46 C42 0.960 . S
H47 C42 0.961 . S
H48 C42 0.960 . S
H49 C45 0.960 . S
H50 C45 0.960 . S
H51 C45 0.959 . S
C52 N53 1.317 . S
C52 N54 1.348 1_554 S
C52 C55 1.485 . S
N53 C52 1.317 . S
N53 N57 1.370 1_554 S
N54 C52 1.348 1_556 S
N54 C56 1.346 . S
C55 C52 1.485 . S
C55 H59 0.960 . S
C55 H60 0.961 . S
C55 H61 0.960 . S
C56 N54 1.346 . S
C56 N57 1.307 . S
C56 C58 1.486 . S
N57 N53 1.370 1_556 S
N57 C56 1.307 . S
C58 C56 1.486 . S
C58 H62 0.960 . S
C58 H63 0.960 . S
C58 H64 0.959 . S
H59 C55 0.960 . S
H60 C55 0.961 . S
H61 C55 0.960 . S
H62 C58 0.960 . S
H63 C58 0.960 . S
H64 C58 0.959 . S
C65 N66 1.317 . S
C65 N67 1.348 . S
C65 C68 1.485 . S
N66 C65 1.317 . S
N66 N70 1.370 . S
N67 C65 1.348 . S
N67 C69 1.346 . S
C68 C65 1.485 . S
C68 H72 0.960 . S
C68 H73 0.961 . S
C68 H74 0.960 . S
C69 N67 1.346 . S
C69 N70 1.307 . S
C69 C71 1.486 . S
N70 N66 1.370 . S
N70 C69 1.307 . S
C71 C69 1.486 . S
C71 H75 0.960 . S
C71 H76 0.960 . S
C71 H77 0.959 . S
H72 C68 0.960 . S
H73 C68 0.961 . S
H74 C68 0.960 . S
H75 C71 0.960 . S
H76 C71 0.960 . S
H77 C71 0.959 . S
C78 N79 1.317 . S
C78 N80 1.348 1_554 S
C78 C81 1.485 . S
N79 C78 1.317 . S
N79 N83 1.370 1_554 S
N80 C78 1.348 1_556 S
N80 C82 1.346 . S
C81 C78 1.485 . S
C81 H85 0.960 . S
C81 H86 0.961 . S
C81 H87 0.960 . S
C82 N80 1.346 . S
C82 N83 1.307 . S
C82 C84 1.486 . S
N83 N79 1.370 1_556 S
N83 C82 1.307 . S
C84 C82 1.486 . S
C84 H88 0.960 . S
C84 H89 0.960 . S
C84 H90 0.959 . S
H85 C81 0.960 . S
H86 C81 0.961 . S
H87 C81 0.960 . S
H88 C84 0.960 . S
H89 C84 0.960 . S
H90 C84 0.959 . S
C91 N92 1.317 . S
C91 N93 1.348 . S
C91 C94 1.485 . S
N92 C91 1.317 . S
N92 N96 1.370 . S
N93 C91 1.348 . S
N93 C95 1.346 . S
C94 C91 1.485 . S
C94 H98 0.960 . S
C94 H99 0.961 . S
C94 H100 0.960 . S
C95 N93 1.346 . S
C95 N96 1.307 . S
C95 C97 1.486 . S
N96 N92 1.370 . S
N96 C95 1.307 . S
C97 C95 1.486 . S
C97 H101 0.960 . S
C97 H102 0.960 . S
C97 H103 0.959 . S
H98 C94 0.960 . S
H99 C94 0.961 . S
H100 C94 0.960 . S
H101 C97 0.960 . S
H102 C97 0.960 . S
H103 C97 0.959 . S
Fe104 O106 1.918 . S
Fe104 O109 1.997 1_455 S
Fe104 O110 2.002 1_455 S
Fe104 O115 1.976 . S
Fe104 O118 1.996 . S
Fe105 O106 1.918 . S
Fe105 O113 1.997 1_455 S
Fe105 O116 1.996 . S
Fe105 O120 1.976 . S
Fe105 O123 2.002 1_455 S
O106 Fe104 1.918 . S
O106 Fe105 1.918 . S
O106 Fe107 1.918 . S
Fe107 O106 1.918 . S
Fe107 O108 2.002 1_455 S
Fe107 O117 1.976 . S
Fe107 O121 1.996 . S
Fe107 O124 1.997 1_455 S
O108 Fe107 2.002 1_655 S
O108 C125 1.295 . S
O109 Fe104 1.997 1_655 S
O109 C125 1.235 . S
O110 Fe104 2.002 1_655 S
O110 C111 1.295 . S
C111 O110 1.295 . S
C111 O113 1.235 . S
C112 O117 1.287 . S
C112 O118 1.255 . S
O113 Fe105 1.997 1_655 S
O113 C111 1.235 . S
C114 O120 1.287 . S
C114 O121 1.255 . S
O115 Fe104 1.976 . S
O115 C122 1.287 . S
O116 Fe105 1.996 . S
O116 C122 1.255 . S
O117 Fe107 1.976 . S
O117 C112 1.287 . S
O118 Fe104 1.996 . S
O118 C112 1.255 . S
C119 O123 1.295 . S
C119 O124 1.235 . S
O120 Fe105 1.976 . S
O120 C114 1.287 . S
O121 Fe107 1.996 . S
O121 C114 1.255 . S
C122 O115 1.287 . S
C122 O116 1.255 . S
O123 Fe105 2.002 1_655 S
O123 C119 1.295 . S
O124 Fe107 1.997 1_655 S
O124 C119 1.235 . S
C125 O108 1.295 . S
C125 O109 1.235 . S
Fe126 O128 1.918 1_455 S
Fe126 O131 2.011 . S
Fe126 O132 2.017 . S
Fe126 O137 1.961 1_455 S
Fe126 O140 1.981 1_455 S
Fe127 O128 1.918 1_455 S
Fe127 O135 2.011 . S
Fe127 O138 1.982 1_455 S
Fe127 O142 1.961 1_455 S
Fe127 O145 2.017 . S
O128 Fe126 1.918 1_655 S
O128 Fe127 1.918 1_655 S
O128 Fe129 1.918 1_655 S
Fe129 O128 1.918 1_455 S
Fe129 O130 2.017 . S
Fe129 O139 1.962 1_455 S
Fe129 O143 1.982 1_455 S
Fe129 O146 2.011 . S
O130 Fe129 2.017 . S
O130 C147 1.295 . S
O131 Fe126 2.011 . S
O131 C147 1.235 . S
O132 Fe126 2.017 . S
O132 C133 1.295 . S
C133 O132 1.295 . S
C133 O135 1.235 . S
C134 O139 1.287 . S
C134 O140 1.255 . S
O135 Fe127 2.011 . S
O135 C133 1.235 . S
C136 O142 1.287 . S
C136 O143 1.255 . S
O137 Fe126 1.961 1_655 S
O137 C144 1.287 . S
O138 Fe127 1.982 1_655 S
O138 C144 1.255 . S
O139 Fe129 1.962 1_655 S
O139 C134 1.287 . S
O140 Fe126 1.981 1_655 S
O140 C134 1.255 . S
C141 O145 1.295 . S
C141 O146 1.235 . S
O142 Fe127 1.961 1_655 S
O142 C136 1.287 . S
O143 Fe129 1.982 1_655 S
O143 C136 1.255 . S
C144 O137 1.287 . S
C144 O138 1.255 . S
O145 Fe127 2.017 . S
O145 C141 1.295 . S
O146 Fe129 2.011 . S
O146 C141 1.235 . S
C147 O130 1.295 . S
C147 O131 1.235 . S
Fe148 O150 1.918 . S
Fe148 O153 1.997 . S
Fe148 O154 2.002 . S
Fe148 O159 1.976 . S
Fe148 O162 1.996 . S
Fe149 O150 1.918 . S
Fe149 O157 1.997 . S
Fe149 O160 1.996 . S
Fe149 O164 1.976 . S
Fe149 O167 2.002 . S
O150 Fe148 1.918 . S
O150 Fe149 1.918 . S
O150 Fe151 1.918 . S
Fe151 O150 1.918 . S
Fe151 O152 2.002 . S
Fe151 O161 1.976 . S
Fe151 O165 1.996 . S
Fe151 O168 1.997 . S
O152 Fe151 2.002 . S
O152 C169 1.295 . S
O153 Fe148 1.997 . S
O153 C169 1.235 . S
O154 Fe148 2.002 . S
O154 C155 1.295 . S
C155 O154 1.295 . S
C155 O157 1.235 . S
C156 O161 1.287 . S
C156 O162 1.255 . S
O157 Fe149 1.997 . S
O157 C155 1.235 . S
C158 O164 1.287 . S
C158 O165 1.255 . S
O159 Fe148 1.976 . S
O159 C166 1.287 . S
O160 Fe149 1.996 . S
O160 C166 1.255 . S
O161 Fe151 1.976 . S
O161 C156 1.287 . S
O162 Fe148 1.996 . S
O162 C156 1.255 . S
C163 O167 1.295 . S
C163 O168 1.235 . S
O164 Fe149 1.976 . S
O164 C158 1.287 . S
O165 Fe151 1.996 . S
O165 C158 1.255 . S
C166 O159 1.287 . S
C166 O160 1.255 . S
O167 Fe149 2.002 . S
O167 C163 1.295 . S
O168 Fe151 1.997 . S
O168 C163 1.235 . S
C169 O152 1.295 . S
C169 O153 1.235 . S
Fe170 O172 1.918 . S
Fe170 O175 1.997 . S
Fe170 O176 2.002 . S
Fe170 O181 1.976 . S
Fe170 O184 1.996 . S
Fe171 O172 1.918 . S
Fe171 O179 1.997 . S
Fe171 O182 1.996 . S
Fe171 O186 1.976 . S
Fe171 O189 2.002 . S
O172 Fe170 1.918 . S
O172 Fe171 1.918 . S
O172 Fe173 1.918 . S
Fe173 O172 1.918 . S
Fe173 O174 2.002 . S
Fe173 O183 1.976 . S
Fe173 O187 1.996 . S
Fe173 O190 1.997 . S
O174 Fe173 2.002 . S
O174 C191 1.295 . S
O175 Fe170 1.997 . S
O175 C191 1.235 . S
O176 Fe170 2.002 . S
O176 C177 1.295 . S
C177 O176 1.295 . S
C177 O179 1.235 . S
C178 O183 1.287 . S
C178 O184 1.255 . S
O179 Fe171 1.997 . S
O179 C177 1.235 . S
C180 O186 1.287 . S
C180 O187 1.255 . S
O181 Fe170 1.976 . S
O181 C188 1.287 . S
O182 Fe171 1.996 . S
O182 C188 1.255 . S
O183 Fe173 1.976 . S
O183 C178 1.287 . S
O184 Fe170 1.996 . S
O184 C178 1.255 . S
C185 O189 1.295 . S
C185 O190 1.235 . S
O186 Fe171 1.976 . S
O186 C180 1.287 . S
O187 Fe173 1.996 . S
O187 C180 1.255 . S
C188 O181 1.287 . S
C188 O182 1.255 . S
O189 Fe171 2.002 . S
O189 C185 1.295 . S
O190 Fe173 1.997 . S
O190 C185 1.235 . S
C191 O174 1.295 . S
C191 O175 1.235 . S
C192 C193 1.363 . S
C192 C198 1.379 . S
C192 N200 1.356 . S
C193 C192 1.363 . S
C193 C199 1.363 . S
C194 C195 1.363 . S
C194 C199 1.379 . S
C194 N201 1.356 . S
C195 C194 1.363 . S
C195 C198 1.363 . S
N196 C198 1.356 . S
N196 H208 0.984 . S
N196 H209 0.985 . S
N197 C199 1.356 1_554 S
N197 H202 0.984 . S
N197 H203 0.985 . S
C198 C192 1.379 . S
C198 C195 1.363 . S
C198 N196 1.356 . S
C199 C193 1.363 . S
C199 C194 1.379 . S
C199 N197 1.356 1_556 S
N200 C192 1.356 . S
N200 H206 0.984 . S
N200 H207 0.984 . S
N201 C194 1.356 . S
N201 H204 0.984 . S
N201 H205 0.985 1_556 S
H202 N197 0.984 . S
H203 N197 0.985 . S
H204 N201 0.984 . S
H205 N201 0.985 1_554 S
H206 N200 0.984 . S
H207 N200 0.984 . S
H208 N196 0.984 . S
H209 N196 0.985 . S
C210 C211 1.363 . S
C210 C216 1.379 . S
C210 N218 1.356 . S
C211 C210 1.363 . S
C211 C217 1.363 . S
C212 C213 1.363 . S
C212 C217 1.379 . S
C212 N219 1.356 . S
C213 C212 1.363 . S
C213 C216 1.363 . S
N214 C216 1.356 . S
N214 H226 0.984 . S
N214 H227 0.985 . S
N215 C217 1.356 . S
N215 H220 0.984 . S
N215 H221 0.985 . S
C216 C210 1.379 . S
C216 C213 1.363 . S
C216 N214 1.356 . S
C217 C211 1.363 . S
C217 C212 1.379 . S
C217 N215 1.356 . S
N218 C210 1.356 . S
N218 H224 0.984 . S
N218 H225 0.984 . S
N219 C212 1.356 . S
N219 H222 0.984 . S
N219 H223 0.985 . S
H220 N215 0.984 . S
H221 N215 0.985 . S
H222 N219 0.984 . S
H223 N219 0.985 . S
H224 N218 0.984 . S
H225 N218 0.984 . S
H226 N214 0.984 . S
H227 N214 0.985 . S
C228 C229 1.363 . S
C228 C234 1.379 . S
C228 N236 1.356 . S
C229 C228 1.363 . S
C229 C235 1.363 . S
C230 C231 1.363 . S
C230 C235 1.379 . S
C230 N237 1.356 . S
C231 C230 1.363 . S
C231 C234 1.363 . S
N232 C234 1.356 . S
N232 H244 0.984 . S
N232 H245 0.985 . S
N233 C235 1.356 1_554 S
N233 H238 0.984 . S
N233 H239 0.985 . S
C234 C228 1.379 . S
C234 C231 1.363 . S
C234 N232 1.356 . S
C235 C229 1.363 . S
C235 C230 1.379 . S
C235 N233 1.356 1_556 S
N236 C228 1.356 . S
N236 H242 0.984 . S
N236 H243 0.984 . S
N237 C230 1.356 . S
N237 H240 0.984 . S
N237 H241 0.985 1_556 S
H238 N233 0.984 . S
H239 N233 0.985 . S
H240 N237 0.984 . S
H241 N237 0.985 1_554 S
H242 N236 0.984 . S
H243 N236 0.984 . S
H244 N232 0.984 . S
H245 N232 0.985 . S
C246 C247 1.363 . S
C246 C252 1.379 . S
C246 N254 1.356 . S
C247 C246 1.363 . S
C247 C253 1.363 . S
C248 C249 1.363 . S
C248 C253 1.379 . S
C248 N255 1.356 . S
C249 C248 1.363 . S
C249 C252 1.363 . S
N250 C252 1.356 . S
N250 H262 0.984 . S
N250 H263 0.985 . S
N251 C253 1.356 . S
N251 H256 0.984 . S
N251 H257 0.985 . S
C252 C246 1.379 . S
C252 C249 1.363 . S
C252 N250 1.356 . S
C253 C247 1.363 . S
C253 C248 1.379 . S
C253 N251 1.356 . S
N254 C246 1.356 . S
N254 H260 0.984 . S
N254 H261 0.984 . S
N255 C248 1.356 . S
N255 H258 0.984 . S
N255 H259 0.985 . S
H256 N251 0.984 . S
H257 N251 0.985 . S
H258 N255 0.984 . S
H259 N255 0.985 . S
H260 N254 0.984 . S
H261 N254 0.984 . S
H262 N250 0.984 . S
H263 N250 0.985 . S
C264 C265 1.363 . S
C264 C270 1.379 . S
C264 N272 1.356 . S
C265 C264 1.363 . S
C265 C271 1.363 . S
C266 C267 1.363 . S
C266 C271 1.379 . S
C266 N273 1.356 . S
C267 C266 1.363 . S
C267 C270 1.363 . S
N268 C270 1.356 . S
N268 H280 0.984 . S
N268 H281 0.985 . S
N269 C271 1.356 1_554 S
N269 H274 0.984 . S
N269 H275 0.985 . S
C270 C264 1.379 . S
C270 C267 1.363 . S
C270 N268 1.356 . S
C271 C265 1.363 . S
C271 C266 1.379 . S
C271 N269 1.356 1_556 S
N272 C264 1.356 . S
N272 H278 0.984 . S
N272 H279 0.984 . S
N273 C266 1.356 . S
N273 H276 0.984 . S
N273 H277 0.985 1_556 S
H274 N269 0.984 . S
H275 N269 0.985 . S
H276 N273 0.984 . S
H277 N273 0.985 1_554 S
H278 N272 0.984 . S
H279 N272 0.984 . S
H280 N268 0.984 . S
H281 N268 0.985 . S
C282 C283 1.363 . S
C282 C288 1.379 . S
C282 N290 1.356 . S
C283 C282 1.363 . S
C283 C289 1.363 . S
C284 C285 1.363 . S
C284 C289 1.379 . S
C284 N291 1.356 . S
C285 C284 1.363 . S
C285 C288 1.363 . S
N286 C288 1.356 . S
N286 H298 0.984 . S
N286 H299 0.985 . S
N287 C289 1.356 . S
N287 H292 0.984 . S
N287 H293 0.985 . S
C288 C282 1.379 . S
C288 C285 1.363 . S
C288 N286 1.356 . S
C289 C283 1.363 . S
C289 C284 1.379 . S
C289 N287 1.356 . S
N290 C282 1.356 . S
N290 H296 0.984 . S
N290 H297 0.984 . S
N291 C284 1.356 . S
N291 H294 0.984 . S
N291 H295 0.985 . S
H292 N287 0.984 . S
H293 N287 0.985 . S
H294 N291 0.984 . S
H295 N291 0.985 . S
H296 N290 0.984 . S
H297 N290 0.984 . S
H298 N286 0.984 . S
H299 N286 0.985 . S
C300 C301 1.363 . S
C300 C306 1.379 . S
C300 N308 1.356 . S
C301 C300 1.363 . S
C301 C307 1.363 . S
C302 C303 1.363 . S
C302 C307 1.379 . S
C302 N309 1.356 . S
C303 C302 1.363 . S
C303 C306 1.363 . S
N304 C306 1.356 . S
N304 H316 0.984 . S
N304 H317 0.985 . S
N305 C307 1.356 1_554 S
N305 H310 0.984 . S
N305 H311 0.985 . S
C306 C300 1.379 . S
C306 C303 1.363 . S
C306 N304 1.356 . S
C307 C301 1.363 . S
C307 C302 1.379 . S
C307 N305 1.356 1_556 S
N308 C300 1.356 . S
N308 H314 0.984 . S
N308 H315 0.984 . S
N309 C302 1.356 . S
N309 H312 0.984 . S
N309 H313 0.985 1_556 S
H310 N305 0.984 . S
H311 N305 0.985 . S
H312 N309 0.984 . S
H313 N309 0.985 1_554 S
H314 N308 0.984 . S
H315 N308 0.984 . S
H316 N304 0.984 . S
H317 N304 0.985 . S
C318 C319 1.363 . S
C318 C324 1.379 . S
C318 N326 1.356 . S
C319 C318 1.363 . S
C319 C325 1.363 . S
C320 C321 1.363 . S
C320 C325 1.379 . S
C320 N327 1.356 . S
C321 C320 1.363 . S
C321 C324 1.363 . S
N322 C324 1.356 . S
N322 H334 0.984 . S
N322 H335 0.985 . S
N323 C325 1.356 . S
N323 H328 0.984 . S
N323 H329 0.985 . S
C324 C318 1.379 . S
C324 C321 1.363 . S
C324 N322 1.356 . S
C325 C319 1.363 . S
C325 C320 1.379 . S
C325 N323 1.356 . S
N326 C318 1.356 . S
N326 H332 0.984 . S
N326 H333 0.984 . S
N327 C320 1.356 . S
N327 H330 0.984 . S
N327 H331 0.985 . S
H328 N323 0.984 . S
H329 N323 0.985 . S
H330 N327 0.984 . S
H331 N327 0.985 . S
H332 N326 0.984 . S
H333 N326 0.984 . S
H334 N322 0.984 . S
H335 N322 0.985 . S
C336 C337 1.363 . S
C336 C342 1.379 . S
C336 N344 1.356 . S
C337 C336 1.363 . S
C337 C343 1.363 . S
C338 C339 1.363 . S
C338 C343 1.379 . S
C338 N345 1.356 . S
C339 C338 1.363 . S
C339 C342 1.363 . S
N340 C342 1.356 . S
N340 H352 0.984 . S
N340 H353 0.985 . S
N341 C343 1.356 1_554 S
N341 H346 0.984 . S
N341 H347 0.985 . S
C342 C336 1.379 . S
C342 C339 1.363 . S
C342 N340 1.356 . S
C343 C337 1.363 . S
C343 C338 1.379 . S
C343 N341 1.356 1_556 S
N344 C336 1.356 . S
N344 H350 0.984 . S
N344 H351 0.984 . S
N345 C338 1.356 . S
N345 H348 0.984 . S
N345 H349 0.985 . S
H346 N341 0.984 . S
H347 N341 0.985 . S
H348 N345 0.984 . S
H349 N345 0.985 . S
H350 N344 0.984 . S
H351 N344 0.984 . S
H352 N340 0.984 . S
H353 N340 0.985 . S
C354 C355 1.363 . S
C354 C360 1.379 . S
C354 N362 1.356 . S
C355 C354 1.363 . S
C355 C361 1.363 . S
C356 C357 1.363 . S
C356 C361 1.379 . S
C356 N363 1.356 . S
C357 C356 1.363 . S
C357 C360 1.363 . S
N358 C360 1.356 . S
N358 H370 0.984 . S
N358 H371 0.985 . S
N359 C361 1.356 . S
N359 H364 0.984 . S
N359 H365 0.985 . S
C360 C354 1.379 . S
C360 C357 1.363 . S
C360 N358 1.356 . S
C361 C355 1.363 . S
C361 C356 1.379 . S
C361 N359 1.356 . S
N362 C354 1.356 . S
N362 H368 0.984 . S
N362 H369 0.984 . S
N363 C356 1.356 . S
N363 H366 0.984 . S
N363 H367 0.985 . S
H364 N359 0.984 . S
H365 N359 0.985 . S
H366 N363 0.984 . S
H367 N363 0.985 . S
H368 N362 0.984 . S
H369 N362 0.984 . S
H370 N358 0.984 . S
H371 N358 0.985 . S
C372 C373 1.363 . S
C372 C378 1.379 . S
C372 N380 1.356 . S
C373 C372 1.363 . S
C373 C379 1.363 . S
C374 C375 1.363 . S
C374 C379 1.379 . S
C374 N381 1.356 . S
C375 C374 1.363 . S
C375 C378 1.363 . S
N376 C378 1.356 . S
N376 H388 0.984 . S
N376 H389 0.985 . S
N377 C379 1.356 1_554 S
N377 H382 0.984 . S
N377 H383 0.985 . S
C378 C372 1.379 . S
C378 C375 1.363 . S
C378 N376 1.356 . S
C379 C373 1.363 . S
C379 C374 1.379 . S
C379 N377 1.356 1_556 S
N380 C372 1.356 . S
N380 H386 0.984 . S
N380 H387 0.984 . S
N381 C374 1.356 . S
N381 H384 0.984 . S
N381 H385 0.985 1_556 S
H382 N377 0.984 . S
H383 N377 0.985 . S
H384 N381 0.984 . S
H385 N381 0.985 1_554 S
H386 N380 0.984 . S
H387 N380 0.984 . S
H388 N376 0.984 . S
H389 N376 0.985 . S
C390 C391 1.363 . S
C390 C396 1.379 . S
C390 N398 1.356 . S
C391 C390 1.363 . S
C391 C397 1.363 . S
C392 C393 1.363 . S
C392 C397 1.379 . S
C392 N399 1.356 . S
C393 C392 1.363 . S
C393 C396 1.363 . S
N394 C396 1.356 . S
N394 H406 0.984 . S
N394 H407 0.985 . S
N395 C397 1.356 . S
N395 H400 0.984 . S
N395 H401 0.985 . S
C396 C390 1.379 . S
C396 C393 1.363 . S
C396 N394 1.356 . S
C397 C391 1.363 . S
C397 C392 1.379 . S
C397 N395 1.356 . S
N398 C390 1.356 . S
N398 H404 0.984 . S
N398 H405 0.984 . S
N399 C392 1.356 . S
N399 H402 0.984 . S
N399 H403 0.985 . S
H400 N395 0.984 . S
H401 N395 0.985 . S
H402 N399 0.984 . S
H403 N399 0.985 . S
H404 N398 0.984 . S
H405 N398 0.984 . S
H406 N394 0.984 . S
H407 N394 0.985 . S
C408 C409 1.363 . S
C408 C414 1.379 . S
C408 N416 1.356 . S
C409 C408 1.363 . S
C409 C415 1.363 . S
C410 C411 1.363 . S
C410 C415 1.379 1_545 S
C410 N417 1.356 . S
C411 C410 1.363 . S
C411 C414 1.363 1_545 S
N412 C414 1.356 . S
N412 H424 0.984 . S
N412 H425 0.985 . S
N413 C415 1.356 1_554 S
N413 H418 0.984 . S
N413 H419 0.985 1_565 S
C414 C408 1.379 . S
C414 C411 1.363 1_565 S
C414 N412 1.356 . S
C415 C409 1.363 . S
C415 C410 1.379 1_565 S
C415 N413 1.356 1_556 S
N416 C408 1.356 . S
N416 H422 0.984 . S
N416 H423 0.984 . S
N417 C410 1.356 . S
N417 H420 0.984 . S
N417 H421 0.985 . S
H418 N413 0.984 . S
H419 N413 0.985 1_545 S
H420 N417 0.984 . S
H421 N417 0.985 . S
H422 N416 0.984 . S
H423 N416 0.984 . S
H424 N412 0.984 . S
H425 N412 0.985 . S
C426 C427 1.363 . S
C426 C432 1.379 . S
C426 N434 1.356 . S
C427 C426 1.363 . S
C427 C433 1.363 . S
C428 C429 1.363 1_545 S
C428 C433 1.379 . S
C428 N435 1.356 1_545 S
C429 C428 1.363 1_565 S
C429 C432 1.363 1_565 S
N430 C432 1.356 1_565 S
N430 H442 0.982 1_565 S
N430 H443 0.985 . S
N431 C433 1.356 . S
N431 H436 0.984 . S
N431 H437 0.985 . S
C432 C426 1.379 . S
C432 C429 1.363 1_545 S
C432 N430 1.356 1_545 S
C433 C427 1.363 . S
C433 C428 1.379 . S
C433 N431 1.356 . S
N434 C426 1.356 . S
N434 H440 0.984 . S
N434 H441 0.984 . S
N435 C428 1.356 1_565 S
N435 H438 0.984 . S
N435 H439 0.985 . S
H436 N431 0.984 . S
H437 N431 0.985 . S
H438 N435 0.984 . S
H439 N435 0.985 . S
H440 N434 0.984 . S
H441 N434 0.984 . S
H442 N430 0.982 1_545 S
H443 N430 0.985 . S
C444 C445 1.363 . S
C444 C450 1.379 . S
C444 N452 1.356 . S
C445 C444 1.363 . S
C445 C451 1.363 . S
C446 C447 1.363 1_565 S
C446 C451 1.379 . S
C446 N453 1.356 1_565 S
C447 C446 1.363 1_545 S
C447 C450 1.363 1_545 S
N448 C450 1.356 1_545 S
N448 H460 0.984 . S
N448 H461 0.985 . S
N449 C451 1.356 1_554 S
N449 H454 0.984 . S
N449 H455 0.985 . S
C450 C444 1.379 . S
C450 C447 1.363 1_565 S
C450 N448 1.356 1_565 S
C451 C445 1.363 . S
C451 C446 1.379 . S
C451 N449 1.356 1_556 S
N452 C444 1.356 . S
N452 H458 0.984 . S
N452 H459 0.984 . S
N453 C446 1.356 1_545 S
N453 H456 0.984 . S
N453 H457 0.985 1_556 S
H454 N449 0.984 . S
H455 N449 0.985 . S
H456 N453 0.984 . S
H457 N453 0.985 1_554 S
H458 N452 0.984 . S
H459 N452 0.984 . S
H460 N448 0.984 . S
H461 N448 0.985 . S
C462 C463 1.363 . S
C462 C468 1.379 . S
C462 N470 1.356 . S
C463 C462 1.363 . S
C463 C469 1.363 . S
C464 C465 1.363 1_545 S
C464 C469 1.379 . S
C464 N471 1.356 1_545 S
C465 C464 1.363 1_565 S
C465 C468 1.363 1_565 S
N466 C468 1.356 1_565 S
N466 H478 0.984 . S
N466 H479 0.985 . S
N467 C469 1.356 . S
N467 H472 0.984 . S
N467 H473 0.985 . S
C468 C462 1.379 . S
C468 C465 1.363 1_545 S
C468 N466 1.356 1_545 S
C469 C463 1.363 . S
C469 C464 1.379 . S
C469 N467 1.356 . S
N470 C462 1.356 . S
N470 H476 0.984 . S
N470 H477 0.984 . S
N471 C464 1.356 1_565 S
N471 H474 0.984 . S
N471 H475 0.985 . S
H472 N467 0.984 . S
H473 N467 0.985 . S
H474 N471 0.984 . S
H475 N471 0.985 . S
H476 N470 0.984 . S
H477 N470 0.984 . S
H478 N466 0.984 . S
H479 N466 0.985 . S
C480 C481 1.363 . S
C480 C486 1.379 . S
C480 N488 1.356 . S
C481 C480 1.363 . S
C481 C487 1.363 . S
C482 C483 1.363 . S
C482 C487 1.379 . S
C482 N489 1.356 . S
C483 C482 1.363 . S
C483 C486 1.363 . S
N484 C486 1.356 . S
N484 H496 0.984 . S
N484 H497 0.985 . S
N485 C487 1.356 . S
N485 H490 0.984 . S
N485 H491 0.985 . S
C486 C480 1.379 . S
C486 C483 1.363 . S
C486 N484 1.356 . S
C487 C481 1.363 . S
C487 C482 1.379 . S
C487 N485 1.356 . S
N488 C480 1.356 . S
N488 H494 0.984 . S
N488 H495 0.984 . S
N489 C482 1.356 . S
N489 H492 0.984 . S
N489 H493 0.985 . S
H490 N485 0.984 . S
H491 N485 0.985 . S
H492 N489 0.984 . S
H493 N489 0.985 . S
H494 N488 0.984 . S
H495 N488 0.984 . S
H496 N484 0.984 . S
H497 N484 0.985 . S
C498 C499 1.363 . S
C498 C504 1.379 . S
C498 N506 1.356 . S
C499 C498 1.363 . S
C499 C505 1.363 . S
C500 C501 1.363 . S
C500 C505 1.379 . S
C500 N507 1.356 . S
C501 C500 1.363 . S
C501 C504 1.363 . S
N502 C504 1.356 . S
N502 H514 0.984 . S
N502 H515 0.985 . S
N503 C505 1.356 . S
N503 H508 0.984 . S
N503 H509 0.985 . S
C504 C498 1.379 . S
C504 C501 1.363 . S
C504 N502 1.356 . S
C505 C499 1.363 . S
C505 C500 1.379 . S
C505 N503 1.356 . S
N506 C498 1.356 . S
N506 H512 0.984 . S
N506 H513 0.984 . S
N507 C500 1.356 . S
N507 H510 0.984 . S
N507 H511 0.985 . S
H508 N503 0.984 . S
H509 N503 0.985 . S
H510 N507 0.984 . S
H511 N507 0.985 . S
H512 N506 0.984 . S
H513 N506 0.984 . S
H514 N502 0.984 . S
H515 N502 0.985 . S
C516 C517 1.363 . S
C516 C522 1.379 . S
C516 N524 1.356 . S
C517 C516 1.363 . S
C517 C523 1.363 . S
C518 C519 1.363 . S
C518 C523 1.379 . S
C518 N525 1.356 . S
C519 C518 1.363 . S
C519 C522 1.363 . S
N520 C522 1.356 . S
N520 H532 0.984 . S
N520 H533 0.985 . S
N521 C523 1.356 . S
N521 H526 0.984 . S
N521 H527 0.985 . S
C522 C516 1.379 . S
C522 C519 1.363 . S
C522 N520 1.356 . S
C523 C517 1.363 . S
C523 C518 1.379 . S
C523 N521 1.356 . S
N524 C516 1.356 . S
N524 H530 0.984 . S
N524 H531 0.984 . S
N525 C518 1.356 . S
N525 H528 0.984 . S
N525 H529 0.985 . S
H526 N521 0.984 . S
H527 N521 0.985 . S
H528 N525 0.984 . S
H529 N525 0.985 . S
H530 N524 0.984 . S
H531 N524 0.984 . S
H532 N520 0.984 . S
H533 N520 0.985 . S
C534 C535 1.363 . S
C534 C540 1.379 . S
C534 N542 1.356 . S
C535 C534 1.363 . S
C535 C541 1.363 . S
C536 C537 1.363 . S
C536 C541 1.379 . S
C536 N543 1.356 . S
C537 C536 1.363 . S
C537 C540 1.363 . S
N538 C540 1.356 . S
N538 H550 0.984 . S
N538 H551 0.985 . S
N539 C541 1.356 . S
N539 H544 0.984 . S
N539 H545 0.985 . S
C540 C534 1.379 . S
C540 C537 1.363 . S
C540 N538 1.356 . S
C541 C535 1.363 . S
C541 C536 1.379 . S
C541 N539 1.356 . S
N542 C534 1.356 . S
N542 H548 0.984 . S
N542 H549 0.984 . S
N543 C536 1.356 . S
N543 H546 0.984 . S
N543 H547 0.985 . S
H544 N539 0.984 . S
H545 N539 0.985 . S
H546 N543 0.984 . S
H547 N543 0.985 . S
H548 N542 0.984 . S
H549 N542 0.984 . S
H550 N538 0.984 . S
H551 N538 0.985 . S
C552 C553 1.363 . S
C552 C558 1.379 . S
C552 N560 1.356 . S
C553 C552 1.363 . S
C553 C559 1.363 . S
C554 C555 1.363 . S
C554 C559 1.379 . S
C554 N561 1.356 . S
C555 C554 1.363 . S
C555 C558 1.363 . S
N556 C558 1.356 . S
N556 H568 0.984 . S
N556 H569 0.985 . S
N557 C559 1.356 . S
N557 H562 0.984 . S
N557 H563 0.985 . S
C558 C552 1.379 . S
C558 C555 1.363 . S
C558 N556 1.356 . S
C559 C553 1.363 . S
C559 C554 1.379 . S
C559 N557 1.356 . S
N560 C552 1.356 . S
N560 H566 0.984 . S
N560 H567 0.984 . S
N561 C554 1.356 . S
N561 H564 0.984 . S
N561 H565 0.985 . S
H562 N557 0.984 . S
H563 N557 0.985 . S
H564 N561 0.984 . S
H565 N561 0.985 . S
H566 N560 0.984 . S
H567 N560 0.984 . S
H568 N556 0.984 . S
H569 N556 0.985 . S
C570 C571 1.363 . S
C570 C576 1.379 . S
C570 N578 1.356 . S
C571 C570 1.363 . S
C571 C577 1.363 . S
C572 C573 1.363 . S
C572 C577 1.379 . S
C572 N579 1.356 . S
C573 C572 1.363 . S
C573 C576 1.363 . S
N574 C576 1.356 . S
N574 H586 0.984 . S
N574 H587 0.985 . S
N575 C577 1.356 . S
N575 H580 0.984 . S
N575 H581 0.985 . S
C576 C570 1.379 . S
C576 C573 1.363 . S
C576 N574 1.356 . S
C577 C571 1.363 . S
C577 C572 1.379 . S
C577 N575 1.356 . S
N578 C570 1.356 . S
N578 H584 0.984 . S
N578 H585 0.984 . S
N579 C572 1.356 . S
N579 H582 0.984 . S
N579 H583 0.985 . S
H580 N575 0.984 . S
H581 N575 0.985 . S
H582 N579 0.984 . S
H583 N579 0.985 . S
H584 N578 0.984 . S
H585 N578 0.984 . S
H586 N574 0.984 . S
H587 N574 0.985 . S
C588 C589 1.363 . S
C588 C594 1.379 . S
C588 N596 1.356 . S
C589 C588 1.363 . S
C589 C595 1.363 . S
C590 C591 1.363 . S
C590 C595 1.379 . S
C590 N597 1.356 . S
C591 C590 1.363 . S
C591 C594 1.363 . S
N592 C594 1.356 . S
N592 H604 0.984 . S
N592 H605 0.985 . S
N593 C595 1.356 . S
N593 H598 0.984 . S
N593 H599 0.985 . S
C594 C588 1.379 . S
C594 C591 1.363 . S
C594 N592 1.356 . S
C595 C589 1.363 . S
C595 C590 1.379 . S
C595 N593 1.356 . S
N596 C588 1.356 . S
N596 H602 0.984 . S
N596 H603 0.984 . S
N597 C590 1.356 . S
N597 H600 0.984 . S
N597 H601 0.985 . S
H598 N593 0.984 . S
H599 N593 0.985 . S
H600 N597 0.984 . S
H601 N597 0.985 . S
H602 N596 0.984 . S
H603 N596 0.984 . S
H604 N592 0.984 . S
H605 N592 0.985 . S
C606 C607 1.363 . S
C606 C612 1.379 . S
C606 N614 1.356 . S
C607 C606 1.363 . S
C607 C613 1.363 . S
C608 C609 1.363 . S
C608 C613 1.379 . S
C608 N615 1.356 . S
C609 C608 1.363 . S
C609 C612 1.363 . S
N610 C612 1.356 . S
N610 H622 0.984 . S
N610 H623 0.985 . S
N611 C613 1.356 . S
N611 H616 0.984 . S
N611 H617 0.985 . S
C612 C606 1.379 . S
C612 C609 1.363 . S
C612 N610 1.356 . S
C613 C607 1.363 . S
C613 C608 1.379 . S
C613 N611 1.356 . S
N614 C606 1.356 . S
N614 H620 0.984 . S
N614 H621 0.984 . S
N615 C608 1.356 . S
N615 H618 0.984 . S
N615 H619 0.985 . S
H616 N611 0.984 . S
H617 N611 0.985 . S
H618 N615 0.984 . S
H619 N615 0.985 . S
H620 N614 0.984 . S
H621 N614 0.984 . S
H622 N610 0.984 . S
H623 N610 0.985 . S
C193 N2 1.536 . S
C195 C147 1.522 . S
C213 C111 1.522 . S
C211 N15 1.536 . S
C231 C134 1.525 . S
C229 N28 1.517 . S
C249 C122 1.525 . S
C247 N41 1.517 . S
C267 C191 1.522 . S
C265 N54 1.536 . S
C285 C155 1.522 . S
C283 N67 1.536 . S
C301 N80 1.517 . S
C303 C178 1.525 . S
C321 C166 1.525 . S
C319 N93 1.517 . S
C337 N5 1.504 . S
C339 C188 1.513 . S
C357 C158 1.513 . S
C355 N18 1.504 . S
C373 N31 1.520 . S
C375 C177 1.523 . S
C391 N44 1.520 . S
C393 C163 1.523 . S
C411 C144 1.513 . S
C409 N57 1.504 . S
C427 N70 1.503 . S
C429 C114 1.513 . S
C447 C133 1.523 . S
C445 N83 1.520 . S
C465 C119 1.523 . S
C463 N96 1.520 . S
C483 C169 1.525 . S
C481 N1 1.530 . S
C501 C185 1.525 . S
C499 N14 1.530 . S
C517 N27 1.487 . S
C519 C156 1.509 . S
C537 C180 1.509 . S
C535 N40 1.487 . S
C555 C125 1.525 . S
C553 N53 1.530 . S
C571 N66 1.530 . S
C573 C141 1.525 . S
C589 N79 1.487 . S
C591 C112 1.509 . S
C607 N92 1.487 . S
C609 C136 1.509 . S
