# Generated by pormake.
# Topology zzz, (3,6)-cn, num edge types: 1
# Building blocks:
#     Node 0, Type 0, BuildingBlock: PAMTOO_clean_linker_0, # of connection points: 3
#     Node 1, Type 0, BuildingBlock: PAMTOO_clean_linker_0, # of connection points: 3
#     Node 2, Type 0, BuildingBlock: PAMTOO_clean_linker_0, # of connection points: 3
#     Node 3, Type 0, BuildingBlock: PAMTOO_clean_linker_0, # of connection points: 3
#     Node 4, Type 0, BuildingBlock: PAMTOO_clean_linker_0, # of connection points: 3
#     Node 5, Type 0, BuildingBlock: PAMTOO_clean_linker_0, # of connection points: 3
#     Node 6, Type 0, BuildingBlock: PAMTOO_clean_linker_0, # of connection points: 3
#     Node 7, Type 0, BuildingBlock: PAMTOO_clean_linker_0, # of connection points: 3
#     Node 8, Type 1, BuildingBlock: NUHQIS_clean_sbu_0, # of connection points: 6
#     Node 9, Type 1, BuildingBlock: NUHQIS_clean_sbu_0, # of connection points: 6
#     Node 10, Type 1, BuildingBlock: NUHQIS_clean_sbu_0, # of connection points: 6
#     Node 11, Type 1, BuildingBlock: NUHQIS_clean_sbu_0, # of connection points: 6
#     Edge 12, Type (0, 1), BuildingBlock: XIVTED_clean_linker_0, # of connection points: 2
#     Edge 13, Type (0, 1), BuildingBlock: XIVTED_clean_linker_0, # of connection points: 2
#     Edge 14, Type (0, 1), BuildingBlock: XIVTED_clean_linker_0, # of connection points: 2
#     Edge 15, Type (0, 1), BuildingBlock: XIVTED_clean_linker_0, # of connection points: 2
#     Edge 16, Type (0, 1), BuildingBlock: XIVTED_clean_linker_0, # of connection points: 2
#     Edge 17, Type (0, 1), BuildingBlock: XIVTED_clean_linker_0, # of connection points: 2
#     Edge 18, Type (0, 1), BuildingBlock: XIVTED_clean_linker_0, # of connection points: 2
#     Edge 19, Type (0, 1), BuildingBlock: XIVTED_clean_linker_0, # of connection points: 2
#     Edge 20, Type (0, 1), BuildingBlock: XIVTED_clean_linker_0, # of connection points: 2
#     Edge 21, Type (0, 1), BuildingBlock: XIVTED_clean_linker_0, # of connection points: 2
#     Edge 22, Type (0, 1), BuildingBlock: XIVTED_clean_linker_0, # of connection points: 2
#     Edge 23, Type (0, 1), BuildingBlock: XIVTED_clean_linker_0, # of connection points: 2
#     Edge 24, Type (0, 1), BuildingBlock: XIVTED_clean_linker_0, # of connection points: 2
#     Edge 25, Type (0, 1), BuildingBlock: XIVTED_clean_linker_0, # of connection points: 2
#     Edge 26, Type (0, 1), BuildingBlock: XIVTED_clean_linker_0, # of connection points: 2
#     Edge 27, Type (0, 1), BuildingBlock: XIVTED_clean_linker_0, # of connection points: 2
#     Edge 28, Type (0, 1), BuildingBlock: XIVTED_clean_linker_0, # of connection points: 2
#     Edge 29, Type (0, 1), BuildingBlock: XIVTED_clean_linker_0, # of connection points: 2
#     Edge 30, Type (0, 1), BuildingBlock: XIVTED_clean_linker_0, # of connection points: 2
#     Edge 31, Type (0, 1), BuildingBlock: XIVTED_clean_linker_0, # of connection points: 2
#     Edge 32, Type (0, 1), BuildingBlock: XIVTED_clean_linker_0, # of connection points: 2
#     Edge 33, Type (0, 1), BuildingBlock: XIVTED_clean_linker_0, # of connection points: 2
#     Edge 34, Type (0, 1), BuildingBlock: XIVTED_clean_linker_0, # of connection points: 2
#     Edge 35, Type (0, 1), BuildingBlock: XIVTED_clean_linker_0, # of connection points: 2
# Relax obj value: 0.251
# Max RMSD: 0.157
# Mean RMSD: 0.137
data_MOF--net-zzz--node1-NUHQIS_clean_sbu_0--node2-PAMTOO_clean_linker_0--edge1-XIVTED_clean_linker_0
_symmetry_space_group_name_H-M    P1
_symmetry_Int_Tables_number       1
_symmetry_cell_setting            triclinic
loop_
_symmetry_equiv_pos_as_xyz
'x, y, z'
_cell_length_a     52.102184
_cell_length_b     51.982687
_cell_length_c     13.980232
_cell_angle_alpha  89.47388
_cell_angle_beta   89.984482
_cell_angle_gamma 89.927643
loop_
_atom_site_label
_atom_site_type_symbol
_atom_site_fract_x
_atom_site_fract_y
_atom_site_fract_z
_atom_type_partial_charge
H0 H 0.82734 0.47478 0.34605 0.0
H1 H 0.75598 0.4885 0.19955 0.0
H2 H 0.7777 0.536 0.43692 0.0
H3 H 0.71531 0.52955 0.41338 0.0
C4 C 0.71844 0.51873 0.34616 0.0
O5 O 0.7416 0.52662 0.3068 0.0
H6 H 0.71896 0.49786 0.36487 0.0
C7 C 0.80925 0.48504 0.3401 0.0
C8 C 0.80457 0.50568 0.40144 0.0
C9 C 0.79205 0.47874 0.26672 0.0
C10 C 0.76934 0.49298 0.25637 0.0
C11 C 0.76377 0.51321 0.31878 0.0
C12 C 0.78163 0.51989 0.39056 0.0
H13 H 0.07301 0.81659 0.39714 0.0
H14 H 0.06738 0.74734 0.23244 0.0
H15 H 1.00797 0.76675 0.43363 0.0
H16 H 1.01476 0.70516 0.40734 0.0
C17 C 0.02858 0.70819 0.34772 0.0
O18 O 0.02402 0.7322 0.3072 0.0
H19 H 0.04826 0.70716 0.37869 0.0
C20 C 0.06342 0.79858 0.38167 0.0
C21 C 0.03984 0.79345 0.42572 0.0
C22 C 0.07346 0.78234 0.31127 0.0
C23 C 0.0601 0.75985 0.28778 0.0
C24 C 0.03688 0.75373 0.33354 0.0
C25 C 0.02645 0.77083 0.40146 0.0
H26 H 0.72095 0.06136 0.36252 0.0
H27 H 0.79221 0.05161 0.21199 0.0
H28 H 0.77079 0.99826 0.43568 0.0
H29 H 0.83445 1.00591 0.40874 0.0
C30 C 0.83038 1.01822 0.34511 0.0
O31 O 0.80681 1.01098 0.30782 0.0
H32 H 0.8299 0.03859 0.36917 0.0
C33 C 0.73914 0.05146 0.35402 0.0
C34 C 0.74384 0.02934 0.40909 0.0
C35 C 0.75625 0.05961 0.28247 0.0
C36 C 0.77902 0.04579 0.26804 0.0
C37 C 0.78473 0.02412 0.32469 0.0
C38 C 0.76689 1.01556 0.39444 0.0
H39 H 0.47862 0.72601 0.41022 0.0
H40 H 0.4811 0.79839 0.25892 0.0
H41 H 0.54245 0.77703 0.45092 0.0
H42 H 0.53884 0.80273 0.20518 0.0
C43 C 0.54055 0.81827 0.25922 0.0
O44 O 0.52402 0.81393 0.33541 0.0
H45 H 0.56061 0.81765 0.28621 0.0
C46 C 0.4878 0.74441 0.39653 0.0
C47 C 0.51144 0.74943 0.4398 0.0
C48 C 0.4768 0.76169 0.33069 0.0
C49 C 0.48934 0.78495 0.31004 0.0
C50 C 0.51281 0.7908 0.35407 0.0
C51 C 0.52412 0.77279 0.4182 0.0
H52 H 0.22789 0.56774 0.1497 0.0
H53 H 0.30068 0.56231 0.29395 0.0
H54 H 0.27839 0.50432 0.09225 0.0
H55 H 0.31829 0.48308 0.25539 0.0
C56 C 0.31906 0.50291 0.28429 0.0
O57 O 0.31529 0.52025 0.20974 0.0
H58 H 0.30341 0.50435 0.33836 0.0
C59 C 0.2463 0.55832 0.15982 0.0
C60 C 0.25115 0.5354 0.11129 0.0
C61 C 0.26379 0.56806 0.22666 0.0
C62 C 0.28705 0.5551 0.24217 0.0
C63 C 0.29254 0.5323 0.19336 0.0
C64 C 0.2744 0.5222 0.12851 0.0
H65 H 0.97542 0.21848 0.17388 0.0
H66 H 0.98789 0.28905 0.32478 0.0
H67 H 0.03962 0.26666 0.09988 0.0
H68 H 1.00112 0.32649 0.16514 0.0
C69 C 0.02162 0.32641 0.18774 0.0
O70 O 0.02834 0.30282 0.22773 0.0
H71 H 0.03353 0.32957 0.12273 0.0
C72 C 0.98603 0.23626 0.18265 0.0
C73 C 1.00802 0.24046 0.12704 0.0
C74 C 0.97865 0.25348 0.25433 0.0
C75 C 0.9932 0.27575 0.26892 0.0
C76 C 1.01477 0.28096 0.21197 0.0
C77 C 0.02251 0.26305 0.14187 0.0
H78 H 0.31431 0.96879 0.11473 0.0
H79 H 0.24192 0.9765 0.25953 0.0
H80 H 0.26424 0.03201 0.04444 0.0
H81 H 0.22278 0.05488 0.20145 0.0
C82 C 0.22283 0.03543 0.23517 0.0
O83 O 0.22713 1.01733 0.16478 0.0
H84 H 0.23865 0.0353 0.28883 0.0
C85 C 0.29605 0.97857 0.12314 0.0
C86 C 0.29135 1.001 0.06977 0.0
C87 C 0.27861 0.96978 0.19253 0.0
C88 C 0.2555 0.98308 0.20594 0.0
C89 C 0.25003 1.00529 0.15202 0.0
C90 C 0.26821 1.01458 0.0848 0.0
H91 H 0.48089 0.31488 0.21271 0.0
H92 H 0.50024 0.23748 0.29272 0.0
H93 H 0.51293 0.26378 1.00341 0.0
H94 H 0.50524 0.19488 0.03478 0.0
C95 C 0.50042 0.20231 0.10686 0.0
O96 O 0.51575 0.22357 0.12462 0.0
H97 H 0.47973 0.20776 0.10412 0.0
C98 C 0.48711 0.2958 0.19194 0.0
C99 C 0.49618 0.29201 0.09869 0.0
C100 C 0.48838 0.2763 0.2619 0.0
C101 C 0.49825 0.25225 0.23807 0.0
C102 C 0.5062 0.24727 0.14448 0.0
C103 C 0.50568 0.26731 0.07468 0.0
Tb104 Tb 0.03986 1.01043 0.83899 0.0
Eu105 Eu 1.00008 0.0267 0.66771 0.0
C106 C 0.06052 0.02049 0.6306 0.0
C107 C 0.02225 0.06876 0.81325 0.0
C108 C 0.08901 0.97357 0.96952 0.0
C109 C 0.12404 0.95035 0.04556 0.0
C110 C 0.11007 0.97312 0.03166 0.0
C111 C 0.08307 0.9516 0.91681 0.0
C112 C 0.09661 0.92878 0.9318 0.0
C113 C 0.1168 0.92754 0.99878 0.0
C114 C 0.07241 0.99637 0.96262 0.0
O115 O 1.00413 0.01937 0.91429 0.0
O116 O 0.97578 1.013 0.79166 0.0
O117 O 1.01093 0.98579 0.63614 0.0
O118 O 0.02426 0.97379 0.78675 0.0
C119 C 0.98059 1.01565 0.88319 0.0
O120 O 0.96293 0.02265 0.59694 0.0
O121 O 0.99084 0.04962 0.54111 0.0
O122 O 0.04016 0.03456 0.61174 0.0
O123 O 0.06105 1.00523 0.70587 0.0
O124 O 0.04105 0.05273 0.83489 0.0
O125 O 1.00239 0.06128 0.76296 0.0
C126 C 1.01696 0.96789 0.6992 0.0
O127 O 0.07753 1.0123 0.89278 0.0
O128 O 0.04786 0.99179 0.96915 0.0
C129 C 0.94807 0.06265 0.53897 0.0
C130 C 0.92199 0.11008 0.53656 0.0
C131 C 0.92873 0.0983 0.62399 0.0
C132 C 0.94181 0.07482 0.62514 0.0
C133 C 0.93933 0.07306 0.45234 0.0
C134 C 0.92632 0.09656 0.45104 0.0
C135 C 0.96709 0.04185 0.5384 0.0
H136 H 0.13986 0.95045 0.09573 0.0
H137 H 0.11522 0.99011 0.07165 0.0
H138 H 0.06715 0.95177 0.86719 0.0
H139 H 0.09001 0.91181 0.89494 0.0
H140 H 0.92542 0.10801 0.69108 0.0
H141 H 0.94848 0.06702 0.69287 0.0
H142 H 0.94413 0.06395 0.38523 0.0
H143 H 0.92173 0.10512 0.38223 0.0
Tb144 Tb 0.52203 0.03675 0.79467 0.0
Eu145 Eu 0.50821 0.99495 0.63089 0.0
C146 C 0.51121 0.05437 0.58411 0.0
C147 C 0.46408 0.01971 0.76801 0.0
C148 C 0.56147 0.08037 0.93577 0.0
C149 C 0.58959 0.11496 0.98574 0.0
C150 C 0.56484 0.10535 0.97051 0.0
C151 C 0.58299 0.06513 0.91603 0.0
C152 C 0.6076 0.07466 0.93102 0.0
C153 C 0.61127 0.09973 0.96566 0.0
C154 C 0.53581 0.07101 0.91097 0.0
O155 O 0.53188 0.99875 0.85609 0.0
O156 O 0.50251 0.97542 0.77312 0.0
O157 O 0.55145 0.99308 0.64371 0.0
O158 O 0.55797 0.03202 0.71571 0.0
C159 C 0.51793 0.97778 0.84641 0.0
O160 O 0.51084 0.95595 0.57549 0.0
O161 O 0.48937 0.98505 0.49704 0.0
O162 O 0.519 0.03183 0.55448 0.0
O163 O 0.50418 0.05713 0.67372 0.0
O164 O 0.48192 0.02821 0.82644 0.0
O165 O 0.46983 1.00989 0.68403 0.0
C166 C 0.56678 1.01178 0.67024 0.0
O167 O 0.52916 0.07565 0.82296 0.0
O168 O 0.53049 0.0474 0.93609 0.0
C169 C 0.47209 0.9436 0.50245 0.0
C170 C 0.42366 0.91981 0.49071 0.0
C171 C 0.43434 0.92571 0.58027 0.0
C172 C 0.45827 0.93768 0.58603 0.0
C173 C 0.46247 0.93606 0.41369 0.0
C174 C 0.43847 0.92425 0.40774 0.0
C175 C 0.49454 0.96057 0.50652 0.0
H176 H 0.59176 0.13432 0.01245 0.0
H177 H 0.54838 0.11749 0.98473 0.0
H178 H 0.58077 0.04586 0.88841 0.0
H179 H 0.62376 0.06211 0.91714 0.0
H180 H 0.42365 0.92229 0.64559 0.0
H181 H 0.46537 0.94349 0.65541 0.0
H182 H 0.47281 0.94066 0.34849 0.0
H183 H 0.4308 0.9204 0.33735 0.0
Tb184 Tb 0.50487 0.53218 0.87326 0.0
Eu185 Eu 0.54175 0.5146 0.6987 0.0
C186 C 0.48165 0.52115 0.67373 0.0
C187 C 0.51702 0.47256 0.84258 0.0
C188 C 0.45881 0.57031 0.01116 0.0
C189 C 0.42435 0.59403 0.0873 0.0
C190 C 0.43792 0.57105 0.07412 0.0
C191 C 0.46506 0.5923 0.95757 0.0
C192 C 0.4519 0.6153 0.97163 0.0
C193 C 0.43176 0.61674 0.03865 0.0
C194 C 0.47451 0.54696 1.0024 0.0
O195 O 0.5421 0.52226 0.93764 0.0
O196 O 0.56828 0.53069 0.80966 0.0
O197 O 0.5369 0.55714 0.67248 0.0
O198 O 0.5192 0.5691 0.81642 0.0
C199 C 0.56502 0.52728 0.902 0.0
O200 O 0.57384 0.4919 0.64462 0.0
O201 O 0.55079 0.51447 0.54605 0.0
O202 O 0.50067 0.50507 0.66063 0.0
O203 O 0.48326 0.53834 0.74138 0.0
O204 O 0.50029 0.49004 0.87028 0.0
O205 O 0.53688 0.47897 0.79 0.0
C206 C 0.52917 0.57496 0.73212 0.0
O207 O 0.46793 0.53147 0.93399 0.0
O208 O 0.49929 0.55055 1.00457 0.0
C209 C 0.55596 0.47025 0.51536 0.0
C210 C 0.53087 0.4222 0.51168 0.0
C211 C 0.55767 0.42359 0.52459 0.0
C212 C 0.57007 0.44743 0.52715 0.0
C213 C 0.52977 0.46863 0.49195 0.0
C214 C 0.51731 0.44502 0.49198 0.0
C215 C 0.56562 0.49435 0.55676 0.0
H216 H 0.40861 0.59414 0.13785 0.0
H217 H 0.43251 0.55406 0.11478 0.0
H218 H 0.48083 0.59194 0.90735 0.0
H219 H 0.45865 0.6322 0.93357 0.0
H220 H 0.569 0.40638 0.5363 0.0
H221 H 0.59024 0.44812 0.5458 0.0
H222 H 0.51819 0.48577 0.48237 0.0
H223 H 0.49672 0.44506 0.48218 0.0
Tb224 Tb 0.01954 0.49992 0.84541 0.0
Eu225 Eu 0.03589 0.53915 0.6715 0.0
C226 C 0.02887 0.47866 0.63562 0.0
C227 C 0.07801 0.51502 0.81817 0.0
C228 C 0.98315 0.45004 0.97068 0.0
C229 C 0.94752 0.43152 0.88308 0.0
C230 C 0.97136 0.4438 0.88362 0.0
C231 C 0.972 0.44192 0.05673 0.0
C232 C 0.94817 0.42967 0.05635 0.0
C233 C 0.93504 0.4255 0.96966 0.0
C234 C 1.00415 0.46877 0.9724 0.0
O235 O 1.01354 0.53891 0.90096 0.0
O236 O 0.04215 0.56092 0.8075 0.0
O237 O 0.99258 0.54131 0.68192 0.0
O238 O 0.98564 0.50222 0.75389 0.0
C239 C 0.0277 0.55941 0.88396 0.0
O240 O 0.03313 0.5773 0.60619 0.0
O241 O 0.05619 0.54784 0.53874 0.0
O242 O 0.02594 0.50183 0.59893 0.0
O243 O 0.03172 0.47507 0.72828 0.0
O244 O 0.05944 0.50903 0.87821 0.0
O245 O 0.0732 0.52299 0.73026 0.0
C246 C 0.97716 0.52231 0.70565 0.0
O247 O 0.02356 0.46424 0.9163 0.0
O248 O 0.99664 0.4926 0.96585 0.0
C249 C 0.07201 0.58993 0.5343 0.0
C250 C 0.11905 0.61624 0.51851 0.0
C251 C 0.10917 0.60949 0.60897 0.0
C252 C 0.08592 0.59629 0.61674 0.0
C253 C 0.08077 0.59823 0.44466 0.0
C254 C 0.10409 0.6113 0.43671 0.0
C255 C 0.05018 0.57222 0.54062 0.0
H256 H 0.93812 0.4283 0.81516 0.0
H257 H 0.97973 0.44997 0.81628 0.0
H258 H 0.98079 0.44672 0.1245 0.0
H259 H 0.93911 0.42561 0.12454 0.0
H260 H 0.12002 0.61325 0.6734 0.0
H261 H 0.07942 0.58997 0.68674 0.0
H262 H 0.0703 0.59337 0.38036 0.0
H263 H 0.11119 0.6158 0.36572 0.0
H264 H 0.21268 1.00136 0.38219 0.0
H265 H 0.06777 0.04987 0.46726 0.0
H266 H 0.17565 0.05844 0.2046 0.0
H267 H 0.10571 0.99341 0.64608 0.0
H268 H 0.10609 0.05183 0.36561 0.0
H269 H 0.17274 0.99633 0.47371 0.0
C270 C 0.19603 1.01268 0.3621 0.0
C271 C 0.19756 0.03053 0.28641 0.0
C272 C 0.106 0.03894 0.42693 0.0
C273 C 0.15168 0.02503 0.39106 0.0
C274 C 0.08407 0.03781 0.48515 0.0
C275 C 0.08337 0.0215 0.5659 0.0
C276 C 0.12753 0.02366 0.44923 0.0
C277 C 0.10523 1.00634 0.58495 0.0
C278 C 0.17324 1.00989 0.41449 0.0
C279 C 0.17536 0.04462 0.26298 0.0
N280 N 0.12631 1.00784 0.52746 0.0
N281 N 0.15345 0.04171 0.31538 0.0
H282 H 0.53262 0.16005 0.10127 0.0
H283 H 0.48948 0.10205 0.61179 0.0
H284 H 0.47673 0.1965 0.28242 0.0
H285 H 0.53049 0.05797 0.401 0.0
H286 H 0.48816 0.13853 0.49955 0.0
H287 H 0.53596 0.12449 0.21765 0.0
C288 C 0.52123 0.16068 0.16605 0.0
C289 C 0.50431 0.18127 0.18198 0.0
C290 C 0.49743 0.12087 0.47777 0.0
C291 C 0.50806 0.1406 0.3161 0.0
C292 C 0.49822 0.09998 0.54197 0.0
C293 C 0.51001 0.07671 0.51604 0.0
C294 C 0.50878 0.11875 0.38686 0.0
C295 C 0.52104 0.07537 0.42428 0.0
C296 C 0.52305 0.14032 0.23232 0.0
C297 C 0.49008 0.18109 0.2674 0.0
N298 N 0.52022 0.09604 0.36341 0.0
N299 N 0.49223 0.16112 0.33096 0.0
H300 H 0.36507 0.47756 0.25873 0.0
H301 H 0.43863 0.5518 0.67959 0.0
H302 H 0.33095 0.53871 0.42135 0.0
H303 H 0.47102 0.48757 0.52778 0.0
H304 H 0.40013 0.54899 0.58 0.0
H305 H 0.40511 0.48292 0.34881 0.0
C306 C 0.36611 0.49224 0.31307 0.0
C307 C 0.34459 0.50752 0.33342 0.0
C308 C 0.41569 0.53555 0.56819 0.0
C309 C 0.39038 0.51381 0.4372 0.0
C310 C 0.43774 0.53713 0.62519 0.0
C311 C 0.45825 0.5199 0.61236 0.0
C312 C 0.41397 0.51659 0.49738 0.0
C313 C 0.45582 0.50132 0.54041 0.0
C314 C 0.38894 0.49526 0.36473 0.0
C315 C 0.34705 0.52641 0.40399 0.0
N316 N 0.43415 0.50015 0.48596 0.0
N317 N 0.36941 0.52891 0.45367 0.0
H318 H 0.03195 0.37669 0.14462 0.0
H319 H 0.02766 0.42735 0.68566 0.0
H320 H 0.01776 0.32693 0.38705 0.0
H321 H 0.02988 0.47765 0.43853 0.0
H322 H 0.02704 0.3902 0.57927 0.0
H323 H 0.03433 0.4135 0.25236 0.0
C324 C 0.02977 0.37346 0.22085 0.0
C325 C 0.02537 0.34854 0.25686 0.0
C326 C 0.02769 0.40935 0.54828 0.0
C327 C 0.02755 0.39083 0.38127 0.0
C328 C 0.02812 0.43065 0.60907 0.0
C329 C 0.02887 0.45583 0.57136 0.0
C330 C 0.02817 0.41309 0.44858 0.0
C331 C 0.02928 0.45871 0.47124 0.0
C332 C 0.03096 0.39452 0.28235 0.0
C333 C 0.02184 0.34565 0.35614 0.0
N334 N 0.02899 0.43767 0.41364 0.0
N335 N 0.02312 0.36647 0.41475 0.0
H336 H 0.82882 0.02142 0.1456 0.0
H337 H 0.98205 1.01593 0.08045 0.0
H338 H 0.88152 1.01125 0.38052 0.0
H339 H 0.92889 1.01443 0.84388 0.0
H340 H 0.94562 1.01566 0.19136 0.0
H341 H 0.86515 0.02021 0.03406 0.0
C342 C 0.84798 1.01855 0.17372 0.0
C343 C 0.85202 1.01568 0.27266 0.0
C344 C 0.94192 1.01532 0.11517 0.0
C345 C 0.89393 1.01505 0.14515 0.0
C346 C 0.96276 1.01551 0.05163 0.0
C347 C 0.95868 1.01515 0.95226 0.0
C348 C 0.91666 1.01493 0.0795 0.0
C349 C 0.93312 1.01462 0.91968 0.0
C350 C 0.86877 1.01798 0.10995 0.0
C351 C 0.87745 1.0129 0.30477 0.0
N352 N 0.91318 1.0146 0.98286 0.0
N353 N 0.89736 1.01265 0.24151 0.0
H354 H 0.56664 0.86436 0.27647 0.0
H355 H 0.48835 0.93437 0.85318 0.0
H356 H 0.50245 0.83052 0.13023 0.0
H357 H 0.55163 0.97055 0.99847 0.0
H358 H 0.49218 0.89741 0.96028 0.0
H359 H 0.56023 0.90428 0.18373 0.0
C360 C 0.55103 0.86545 0.22545 0.0
C361 C 0.53517 0.84399 0.21042 0.0
C362 C 0.50522 0.91341 0.96934 0.0
C363 C 0.52777 0.88964 0.10345 0.0
C364 C 0.50307 0.93466 0.90784 0.0
C365 C 0.51978 0.95578 0.916 0.0
C366 C 0.52431 0.91289 0.04022 0.0
C367 C 0.53833 0.9548 0.9891 0.0
C368 C 0.54742 0.88822 0.17229 0.0
C369 C 0.51518 0.84653 0.14373 0.0
N370 N 0.54018 0.93369 0.04791 0.0
N371 N 0.51219 0.86877 0.09242 0.0
H372 H 0.66832 0.52806 0.39189 0.0
H373 H 0.61599 0.52973 0.85176 0.0
H374 H 0.71721 0.51736 0.14677 0.0
H375 H 0.56653 0.52561 0.09905 0.0
H376 H 0.65335 0.52917 0.95768 0.0
H377 H 0.63113 0.53122 0.28519 0.0
C378 C 0.67127 0.5268 0.31537 0.0
C379 C 0.69604 0.52311 0.27827 0.0
C380 C 0.63434 0.52843 0.98883 0.0
C381 C 0.65335 0.52619 0.15517 0.0
C382 C 0.61291 0.52881 0.92833 0.0
C383 C 0.58792 0.52767 0.96622 0.0
C384 C 0.63091 0.52709 0.08845 0.0
C385 C 0.58533 0.52645 0.06628 0.0
C386 C 0.65 0.52843 0.25448 0.0
C387 C 0.6986 0.52082 0.17857 0.0
N388 N 0.60649 0.52622 0.12368 0.0
N389 N 0.67758 0.5225 0.12062 0.0
H390 H 0.99712 0.66549 0.35126 0.0
H391 H 0.05531 0.60426 0.87213 0.0
H392 H 0.05539 0.70216 0.17937 0.0
H393 H 0.99917 0.56559 0.04902 0.0
H394 H 0.05446 0.64068 0.98095 0.0
H395 H 0.99623 0.62958 0.23871 0.0
C396 C 1.00951 0.66612 0.28909 0.0
C397 C 0.02615 0.68703 0.27407 0.0
C398 C 0.0423 0.62426 0.99615 0.0
C399 C 0.02553 0.64571 0.14523 0.0
C400 C 0.04276 0.60335 0.93386 0.0
C401 C 0.02729 0.58163 0.95105 0.0
C402 C 0.02622 0.62371 0.07682 0.0
C403 C 1.01147 0.58181 0.0326 0.0
C404 C 1.00909 0.64554 0.22504 0.0
C405 C 0.04206 0.6866 0.19304 0.0
N406 N 1.01135 0.60245 0.09224 0.0
N407 N 0.04138 0.66633 0.13189 0.0
H408 H 0.97975 0.25258 0.44963 0.0
H409 H 0.88778 0.13518 0.41736 0.0
H410 H 0.93064 0.23595 0.21002 0.0
H411 H 0.94224 0.14887 0.64386 0.0
H412 H 0.88978 0.18077 0.37398 0.0
H413 H 0.95279 0.22535 0.55121 0.0
C414 C 0.96269 0.24401 0.41924 0.0
C415 C 0.95785 0.24575 0.32076 0.0
C416 C 0.9007 0.17393 0.43506 0.0
C417 C 0.92745 0.21398 0.43547 0.0
C418 C 0.8996 0.14787 0.4597 0.0
C419 C 0.91562 0.13795 0.53191 0.0
C420 C 0.91817 0.19003 0.48225 0.0
C421 C 0.92987 0.15545 0.58646 0.0
C422 C 0.94738 0.22827 0.4771 0.0
C423 C 0.93543 0.23438 0.28522 0.0
N424 N 0.93136 0.18049 0.5588 0.0
N425 N 0.92144 0.21837 0.34192 0.0
H426 H 0.29774 0.92228 0.14913 0.0
H427 H 0.38337 0.93844 0.59591 0.0
H428 H 0.27982 0.97124 0.3871 0.0
H429 H 0.40036 0.88687 0.36384 0.0
H430 H 0.3385 0.93814 0.54987 0.0
H431 H 0.32643 0.89724 0.2521 0.0
C432 C 0.29916 0.92713 0.22416 0.0
C433 C 0.28704 0.94923 0.25926 0.0
C434 C 0.35187 0.92634 0.51026 0.0
C435 C 0.32038 0.92132 0.37654 0.0
C436 C 0.37764 0.92633 0.53706 0.0
C437 C 0.39596 0.91336 0.48156 0.0
C438 C 0.34443 0.91377 0.42625 0.0
C439 C 0.38709 0.89803 0.40631 0.0
C440 C 0.31563 0.91293 0.28293 0.0
C441 C 0.28916 0.95454 0.35701 0.0
N442 N 0.36208 0.89922 0.37918 0.0
N443 N 0.30619 0.94117 0.4117 0.0
H444 H 0.52227 0.27302 0.40902 0.0
H445 H 0.48699 0.40734 0.41771 0.0
H446 H 0.44534 0.2974 0.34141 0.0
H447 H 0.54226 0.37997 0.62599 0.0
H448 H 0.46647 0.36594 0.42189 0.0
H449 H 0.52476 0.30633 0.52975 0.0
C450 C 0.50531 0.28442 0.42355 0.0
C451 C 0.48406 0.28353 0.36231 0.0
C452 C 0.48274 0.36903 0.46855 0.0
C453 C 0.48711 0.32211 0.49662 0.0
C454 C 0.49465 0.39289 0.46605 0.0
C455 C 0.51697 0.39726 0.51973 0.0
C456 C 0.49376 0.34882 0.52166 0.0
C457 C 0.52586 0.37726 0.57975 0.0
C458 C 0.5068 0.30367 0.49216 0.0
C459 C 0.46247 0.29835 0.38508 0.0
N460 N 0.51469 0.35365 0.57696 0.0
N461 N 0.46488 0.31788 0.448 0.0
H462 H 0.26574 0.56973 0.42155 0.0
H463 H 0.14006 0.65101 0.39048 0.0
H464 H 0.24158 0.61396 0.17517 0.0
H465 H 0.16067 0.59877 0.61981 0.0
H466 H 0.18502 0.65219 0.34083 0.0
H467 H 0.23719 0.59527 0.52141 0.0
C468 C 0.25522 0.58553 0.38904 0.0
C469 C 0.25529 0.5892 0.28955 0.0
C470 C 0.1798 0.64107 0.40375 0.0
C471 C 0.222 0.61786 0.40258 0.0
C472 C 0.15409 0.6403 0.43188 0.0
C473 C 0.14636 0.624 0.50719 0.0
C474 C 0.19778 0.62525 0.45075 0.0
C475 C 0.16553 0.61131 0.56032 0.0
C476 C 0.23871 0.59998 0.446 0.0
C477 C 0.2414 0.61003 0.25137 0.0
N478 N 0.19023 0.61167 0.52957 0.0
N479 N 0.22471 0.62312 0.30748 0.0
H480 H 0.1187 0.80315 0.37336 0.0
H481 H 0.12352 0.88337 0.89169 0.0
H482 H 0.07743 0.78418 0.11626 0.0
H483 H 0.13375 0.91268 0.17754 0.0
H484 H 0.12633 0.83961 0.95644 0.0
H485 H 0.14441 0.834 0.28153 0.0
C486 C 0.11574 0.80475 0.29682 0.0
C487 C 0.09531 0.79183 0.25289 0.0
C488 C 0.12876 0.85574 1.00409 0.0
C489 C 0.12443 0.82705 0.14809 0.0
C490 C 0.12689 0.88077 0.96757 0.0
C491 C 0.12713 0.90196 0.02964 0.0
C492 C 0.13139 0.8519 0.10298 0.0
C493 C 0.13295 0.89722 0.12642 0.0
C494 C 0.13037 0.82238 0.24459 0.0
C495 C 0.09267 0.79412 0.1533 0.0
N496 N 0.1343 0.87272 0.16029 0.0
N497 N 0.10656 0.81205 0.10451 0.0
H498 H 0.75675 0.0583 0.08722 0.0
H499 H 0.62749 0.12764 0.11991 0.0
H500 H 0.73515 0.10655 0.32317 0.0
H501 H 0.65537 0.09234 0.86162 0.0
H502 H 0.67153 0.13198 0.17513 0.0
H503 H 0.72715 0.08208 0.98446 0.0
C504 C 0.74656 0.07462 0.1165 0.0
C505 C 0.74761 0.07987 0.21459 0.0
C506 C 0.66814 0.12384 0.10524 0.0
C507 C 0.71297 0.10648 0.09864 0.0
C508 C 0.64289 0.12144 0.07343 0.0
C509 C 0.63765 0.10869 0.98764 0.0
C510 C 0.6882 0.1129 0.05184 0.0
C511 C 0.65849 0.10127 0.9303 0.0
C512 C 0.72942 0.0881 0.05792 0.0
C513 C 0.73416 0.10136 0.24843 0.0
N514 N 0.6828 0.10282 0.96457 0.0
N515 N 0.71672 0.11336 0.19135 0.0
H516 H 0.43181 0.74172 0.39882 0.0
H517 H 0.4248 0.66046 0.92659 0.0
H518 H 0.47137 0.76045 0.1366 0.0
H519 H 0.41525 0.63221 0.21616 0.0
H520 H 0.42202 0.70446 0.98606 0.0
H521 H 0.40527 0.71104 0.31185 0.0
C522 C 0.43413 0.74016 0.32207 0.0
C523 C 0.45432 0.75292 0.27518 0.0
C524 C 0.41972 0.68851 0.03575 0.0
C525 C 0.42444 0.71773 0.17608 0.0
C526 C 0.42158 0.66335 1.00224 0.0
C527 C 0.42152 0.64241 0.06687 0.0
C528 C 0.41734 0.69272 0.13425 0.0
C529 C 0.41591 0.64749 0.16323 0.0
C530 C 0.41908 0.72259 0.27261 0.0
C531 C 0.4563 0.7506 0.17561 0.0
N532 N 0.4146 0.67212 0.19416 0.0
N533 N 0.44206 0.73265 0.12959 0.0
H534 H 0.79026 0.48295 0.07145 0.0
H535 H 0.8975 0.44648 0.85599 0.0
H536 H 0.81247 0.43088 0.29841 0.0
H537 H 0.90833 0.39253 0.08894 0.0
H538 H 0.85251 0.44897 0.8941 0.0
H539 H 0.81639 0.45864 0.96051 0.0
C540 C 0.80014 0.46591 0.09735 0.0
C541 C 0.80007 0.45951 0.19497 0.0
C542 C 0.86427 0.4361 0.93641 0.0
C543 C 0.83142 0.43224 0.06954 0.0
C544 C 0.89027 0.43442 0.91353 0.0
C545 C 0.90704 0.42002 0.97172 0.0
C546 C 0.85505 0.42364 0.01936 0.0
C547 C 0.89631 0.40474 0.04458 0.0
C548 C 0.81556 0.45214 0.03401 0.0
C549 C 0.81283 0.43702 0.2242 0.0
N550 N 0.87116 0.40751 0.06796 0.0
N551 N 0.82854 0.42463 0.1624 0.0
H552 H 0.05154 0.2104 0.12841 0.0
H553 H 0.98822 0.10771 0.77325 0.0
H554 H 0.98046 0.22209 0.97706 0.0
H555 H 0.05769 0.09219 0.93182 0.0
H556 H 0.98808 0.15142 0.83459 0.0
H557 H 0.05757 0.16957 0.04295 0.0
C558 C 0.03766 0.20479 0.07488 0.0
C559 C 1.0156 0.2198 0.0591 0.0
C560 C 1.00347 0.13857 0.85585 0.0
C561 C 0.02191 0.17277 0.96305 0.0
C562 C 1.00356 0.11345 0.82077 0.0
C563 C 0.02294 0.09595 0.84758 0.0
C564 C 0.02283 0.14658 0.91894 0.0
C565 C 0.04231 0.10486 0.9092 0.0
C566 C 0.04091 0.18131 0.02703 0.0
C567 C 0.99785 0.21123 0.99081 0.0
N568 N 0.04168 0.12944 0.94314 0.0
N569 N 1.00128 0.18833 0.94612 0.0
H570 H 0.32259 0.04294 0.08963 0.0
H571 H 0.42256 0.99449 0.6908 0.0
H572 H 0.30888 0.97801 0.90779 0.0
H573 H 0.44286 0.04611 0.91854 0.0
H574 H 0.37833 0.99375 0.75049 0.0
H575 H 0.36367 0.0504 1.00703 0.0
C576 C 0.32782 0.03084 0.03002 0.0
C577 C 0.31213 1.01009 1.00446 0.0
C578 C 0.39242 1.00539 0.78699 0.0
C579 C 0.35943 1.01798 0.91129 0.0
C580 C 0.41773 1.00589 0.75275 0.0
C581 C 0.43666 0.02031 0.79976 0.0
C582 C 0.38575 0.01961 0.8685 0.0
C583 C 0.42908 0.03457 0.88012 0.0
C584 C 0.35144 0.03484 0.98379 0.0
C585 C 0.32024 0.99446 0.92869 0.0
N586 N 0.40432 0.03383 0.91185 0.0
N587 N 0.3433 0.99862 0.88522 0.0
H588 H 0.45788 0.32657 0.05944 0.0
H589 H 0.54915 0.43153 0.80661 0.0
H590 H 0.53727 0.31136 0.99472 0.0
H591 H 0.47658 0.44959 0.93886 0.0
H592 H 0.54325 0.38627 0.85208 0.0
H593 H 0.46228 0.36959 0.98928 0.0
C594 C 0.47615 0.33207 0.02844 0.0
C595 C 0.49725 0.31517 0.0335 0.0
C596 C 0.52862 0.40012 0.87113 0.0
C597 C 0.50257 0.36503 0.95358 0.0
C598 C 0.53194 0.42608 0.84526 0.0
C599 C 0.51344 0.44474 0.86955 0.0
C600 C 0.50647 0.39242 0.92109 0.0
C601 C 0.4915 0.43616 0.919 0.0
C602 C 0.47871 0.3568 0.98908 0.0
C603 C 0.52042 0.32353 0.99187 0.0
N604 N 0.48867 0.41077 0.94294 0.0
N605 N 0.52252 0.34789 0.95459 0.0
H606 H 0.23697 0.55268 0.93437 0.0
H607 H 0.09668 0.49246 0.98261 0.0
H608 H 0.21647 0.49763 0.15298 0.0
H609 H 0.12144 0.53522 0.73325 0.0
H610 H 0.14076 0.49284 0.04256 0.0
H611 H 0.1959 0.54462 0.8541 0.0
C612 C 0.22414 0.53821 0.96352 0.0
C613 C 0.23035 0.52536 0.04918 0.0
C614 C 0.13664 0.50196 0.97433 0.0
C615 C 0.18269 0.51688 0.96038 0.0
C616 C 0.11137 0.50184 0.94006 0.0
C617 C 0.10515 0.5139 0.85264 0.0
C618 C 0.156 0.51449 0.92166 0.0
C619 C 0.12521 0.52563 0.80086 0.0
C620 C 0.20056 0.53382 0.91837 0.0
C621 C 0.21267 0.50747 0.08588 0.0
N622 N 0.14959 0.52582 0.83649 0.0
N623 N 0.18955 0.504 0.04204 0.0
H624 H 0.05689 0.80863 0.60086 0.0
H625 H 0.99616 0.94799 0.53539 0.0
H626 H 1.00048 0.82649 0.38539 0.0
H627 H 0.03525 0.92466 0.7941 0.0
H628 H 0.99673 0.90339 0.48209 0.0
H629 H 0.04786 0.84992 0.67775 0.0
C630 C 0.04191 0.82088 0.57186 0.0
C631 C 0.02903 0.8139 0.48777 0.0
C632 C 1.00503 0.90794 0.55087 0.0
C633 C 0.01945 0.86184 0.57255 0.0
C634 C 1.00483 0.93352 0.58138 0.0
C635 C 1.01593 0.94035 0.66926 0.0
C636 C 1.01673 0.88884 0.60774 0.0
C637 C 0.02665 0.92051 0.72559 0.0
C638 C 0.03695 0.84459 0.61508 0.0
C639 C 1.01041 0.83087 0.45126 0.0
N640 N 0.02705 0.89578 0.69345 0.0
N641 N 1.00647 0.85418 0.49292 0.0
H642 H 0.7251 0.05407 0.56496 0.0
H643 H 0.59252 0.97569 0.56229 0.0
H644 H 0.7133 0.98656 0.39462 0.0
H645 H 0.605 0.04564 0.71942 0.0
H646 H 0.63788 0.97596 0.51514 0.0
H647 H 0.68324 0.04721 0.64035 0.0
C648 C 0.71402 0.03726 0.5459 0.0
C649 C 0.72289 0.02065 0.47443 0.0
C650 C 0.63072 0.99114 0.56053 0.0
C651 C 0.67421 1.01319 0.55764 0.0
C652 C 0.60476 0.99102 0.58754 0.0
C653 C 0.59467 1.01076 0.64468 0.0
C654 C 0.64691 1.01111 0.5909 0.0
C655 C 0.61167 0.03005 0.67504 0.0
C656 C 0.68992 0.03352 0.58799 0.0
C657 C 0.70742 0.99953 0.45067 0.0
N658 N 0.63676 0.02977 0.64755 0.0
N659 N 0.68372 0.99659 0.49118 0.0
H660 H 0.54976 0.71552 0.39663 0.0
H661 H 0.511 0.6183 0.82361 0.0
H662 H 0.49557 0.73436 0.6176 0.0
H663 H 0.55162 0.59511 0.56953 0.0
H664 H 0.51144 0.66281 0.76475 0.0
H665 H 0.55771 0.67389 0.47622 0.0
C666 C 0.54033 0.7113 0.46402 0.0
C667 C 0.52239 0.72865 0.50165 0.0
C668 C 0.52041 0.648 0.72216 0.0
C669 C 0.53062 0.68061 0.59157 0.0
C670 C 0.52013 0.62247 0.75576 0.0
C671 C 0.53099 0.60261 0.70126 0.0
C672 C 0.53186 0.65398 0.63357 0.0
C673 C 0.54278 0.60956 0.61408 0.0
C674 C 0.54452 0.68736 0.50868 0.0
C675 C 0.50994 0.72176 0.58732 0.0
N676 N 0.54282 0.63452 0.58303 0.0
N677 N 0.51414 0.69829 0.62893 0.0
H678 H 0.82368 0.47582 0.5457 0.0
H679 H 0.9522 0.55913 0.59641 0.0
H680 H 0.83363 0.54968 0.40895 0.0
H681 H 0.93943 0.48648 0.74062 0.0
H682 H 0.90786 0.55811 0.53791 0.0
H683 H 0.86418 0.48187 0.63108 0.0
C684 C 0.8341 0.49368 0.53585 0.0
C685 C 0.82513 0.5124 0.47098 0.0
C686 C 0.91471 0.54249 0.58291 0.0
C687 C 0.87222 0.51914 0.56594 0.0
C688 C 0.9401 0.54303 0.61636 0.0
C689 C 0.94981 0.52278 0.67326 0.0
C690 C 0.89876 0.52153 0.60621 0.0
C691 C 0.93302 0.50249 0.69663 0.0
C692 C 0.85739 0.49704 0.58384 0.0
C693 C 0.83965 0.53496 0.45947 0.0
N694 N 0.9085 0.50235 0.66272 0.0
N695 N 0.86262 0.53757 0.50543 0.0
loop_
_geom_bond_atom_site_label_1
_geom_bond_atom_site_label_2
_geom_bond_distance
_geom_bond_site_symmetry_2
_ccdc_geom_bond_type
H0 C7 0.929 . S
H1 C10 0.930 . S
H2 C12 0.929 . S
H3 C4 0.969 . S
C4 H3 0.969 . S
C4 O5 1.550 . S
C4 H6 0.973 . S
O5 C4 1.550 . S
O5 C11 1.412 . S
H6 C4 0.973 . S
C7 H0 0.929 . S
C7 C8 1.400 . S
C7 C9 1.364 . S
C8 C7 1.400 . S
C8 C12 1.377 . S
C9 C7 1.364 . S
C9 C10 1.374 . S
C10 H1 0.930 . S
C10 C9 1.374 . S
C10 C11 1.383 . S
C11 O5 1.412 . S
C11 C10 1.383 . S
C11 C12 1.394 . S
C12 H2 0.929 . S
C12 C8 1.377 . S
C12 C11 1.394 . S
H13 C20 0.928 1_655 S
H14 C23 0.930 . S
H15 C25 0.928 1_655 S
H16 C17 0.969 . S
C17 H16 0.969 . S
C17 O18 1.550 1_455 S
C17 H19 0.973 1_455 S
O18 C17 1.550 1_655 S
O18 C24 1.405 1_655 S
H19 C17 0.973 1_655 S
C20 H13 0.928 1_455 S
C20 C21 1.399 . S
C20 C22 1.364 . S
C21 C20 1.399 . S
C21 C25 1.377 . S
C22 C20 1.364 . S
C22 C23 1.374 1_455 S
C23 H14 0.930 . S
C23 C22 1.374 1_655 S
C23 C24 1.382 1_655 S
C24 O18 1.405 1_455 S
C24 C23 1.382 1_455 S
C24 C25 1.394 . S
C25 H15 0.928 1_455 S
C25 C21 1.377 . S
C25 C24 1.394 . S
H26 C33 0.928 1_565 S
H27 C36 0.930 . S
H28 C38 0.928 1_565 S
H29 C30 0.969 . S
C30 H29 0.969 . S
C30 O31 1.550 1_545 S
C30 H32 0.973 1_545 S
O31 C30 1.550 1_565 S
O31 C37 1.405 1_565 S
H32 C30 0.973 1_565 S
C33 H26 0.928 1_545 S
C33 C34 1.399 . S
C33 C35 1.364 . S
C34 C33 1.399 . S
C34 C38 1.377 . S
C35 C33 1.364 . S
C35 C36 1.374 1_545 S
C36 H27 0.930 . S
C36 C35 1.374 1_565 S
C36 C37 1.382 1_565 S
C37 O31 1.405 1_545 S
C37 C36 1.382 1_545 S
C37 C38 1.394 . S
C38 H28 0.928 1_545 S
C38 C34 1.377 . S
C38 C37 1.394 . S
H39 C46 0.929 . S
H40 C49 0.930 . S
H41 C51 0.929 . S
H42 C43 0.969 . S
C43 H42 0.969 . S
C43 O44 1.550 . S
C43 H45 0.973 . S
O44 C43 1.550 . S
O44 C50 1.412 . S
H45 C43 0.973 . S
C46 H39 0.929 . S
C46 C47 1.400 . S
C46 C48 1.364 . S
C47 C46 1.400 . S
C47 C51 1.377 . S
C48 C46 1.364 . S
C48 C49 1.374 . S
C49 H40 0.930 . S
C49 C48 1.374 . S
C49 C50 1.383 . S
C50 O44 1.412 . S
C50 C49 1.383 . S
C50 C51 1.394 . S
C51 H41 0.929 . S
C51 C47 1.377 . S
C51 C50 1.394 . S
H52 C59 0.929 . S
H53 C62 0.930 . S
H54 C64 0.929 . S
H55 C56 0.969 . S
C56 H55 0.969 . S
C56 O57 1.550 . S
C56 H58 0.973 . S
O57 C56 1.550 . S
O57 C63 1.412 . S
H58 C56 0.973 . S
C59 H52 0.929 . S
C59 C60 1.400 1_554 S
C59 C61 1.364 . S
C60 C59 1.400 1_556 S
C60 C64 1.377 . S
C61 C59 1.364 . S
C61 C62 1.374 . S
C62 H53 0.930 . S
C62 C61 1.374 . S
C62 C63 1.383 . S
C63 O57 1.412 . S
C63 C62 1.383 . S
C63 C64 1.394 1_554 S
C64 H54 0.929 . S
C64 C60 1.377 . S
C64 C63 1.394 1_556 S
H65 C72 0.928 1_655 S
H66 C75 0.930 . S
H67 C77 0.928 1_655 S
H68 C69 0.969 . S
C69 H68 0.969 . S
C69 O70 1.550 1_455 S
C69 H71 0.973 1_455 S
O70 C69 1.550 1_655 S
O70 C76 1.402 1_655 S
H71 C69 0.973 1_655 S
C72 H65 0.928 1_455 S
C72 C73 1.400 1_554 S
C72 C74 1.364 . S
C73 C72 1.400 1_556 S
C73 C77 1.377 . S
C74 C72 1.364 . S
C74 C75 1.374 1_455 S
C75 H66 0.930 . S
C75 C74 1.374 1_655 S
C75 C76 1.382 1_655 S
C76 O70 1.402 1_455 S
C76 C75 1.382 1_455 S
C76 C77 1.394 1_554 S
C77 H67 0.928 1_455 S
C77 C73 1.377 . S
C77 C76 1.394 1_556 S
H78 C85 0.928 1_565 S
H79 C88 0.930 . S
H80 C90 0.928 1_565 S
H81 C82 0.969 . S
C82 H81 0.969 . S
C82 O83 1.550 1_545 S
C82 H84 0.973 1_545 S
O83 C82 1.550 1_565 S
O83 C89 1.402 1_565 S
H84 C82 0.973 1_565 S
C85 H78 0.928 1_545 S
C85 C86 1.400 1_554 S
C85 C87 1.364 . S
C86 C85 1.400 1_556 S
C86 C90 1.377 . S
C87 C85 1.364 . S
C87 C88 1.374 1_545 S
C88 H79 0.930 . S
C88 C87 1.374 1_565 S
C88 C89 1.382 1_565 S
C89 O83 1.402 1_545 S
C89 C88 1.382 1_545 S
C89 C90 1.394 1_554 S
C90 H80 0.928 1_545 S
C90 C86 1.377 . S
C90 C89 1.394 1_556 S
H91 C98 0.929 . S
H92 C101 0.930 . S
H93 C103 0.929 . S
H94 C95 0.969 . S
C95 H94 0.969 . S
C95 O96 1.550 . S
C95 H97 0.973 . S
O96 C95 1.550 . S
O96 C102 1.412 . S
H97 C95 0.973 . S
C98 H91 0.929 . S
C98 C99 1.400 1_554 S
C98 C100 1.364 . S
C99 C98 1.400 1_556 S
C99 C103 1.377 . S
C100 C98 1.364 . S
C100 C101 1.374 . S
C101 H92 0.930 . S
C101 C100 1.374 . S
C101 C102 1.383 . S
C102 O96 1.412 . S
C102 C101 1.383 . S
C102 C103 1.394 1_554 S
C103 H93 0.929 . S
C103 C99 1.377 . S
C103 C102 1.394 1_556 S
Tb104 C114 2.825 . S
Tb104 O115 2.347 1_455 S
Tb104 O118 2.366 . S
Tb104 O123 2.418 . S
Tb104 O124 2.384 1_565 S
Tb104 O127 2.479 . S
Tb104 O128 2.471 . S
Eu105 O116 2.418 . S
Eu105 O117 2.384 1_545 S
Eu105 O120 2.479 . S
Eu105 O121 2.471 . S
Eu105 O122 2.347 1_655 S
Eu105 O125 2.366 . S
Eu105 C135 2.825 . S
C106 O122 1.259 1_565 S
C106 O123 1.265 . S
C107 O124 1.255 . S
C107 O125 1.265 1_455 S
C108 C110 1.380 . S
C108 C111 1.374 . S
C108 C114 1.507 1_554 S
C109 C110 1.384 . S
C109 C113 1.387 . S
C109 H136 0.930 . S
C110 C108 1.380 . S
C110 C109 1.384 . S
C110 H137 0.931 . S
C111 C108 1.374 . S
C111 C112 1.390 . S
C111 H138 0.930 1_455 S
C112 C111 1.390 . S
C112 C113 1.391 . S
C112 H139 0.930 1_455 S
C113 C109 1.387 . S
C113 C112 1.391 . S
C114 Tb104 2.825 . S
C114 C108 1.507 1_556 S
C114 O127 1.238 . S
C114 O128 1.247 . S
O115 Tb104 2.347 1_655 S
O115 C119 1.259 1_565 S
O116 Eu105 2.418 . S
O116 C119 1.265 . S
O117 Eu105 2.384 1_565 S
O117 C126 1.255 . S
O118 Tb104 2.366 . S
O118 C126 1.265 1_455 S
C119 O115 1.259 1_545 S
C119 O116 1.265 . S
O120 Eu105 2.479 . S
O120 C135 1.238 . S
O121 Eu105 2.471 . S
O121 C135 1.247 . S
O122 Eu105 2.347 1_455 S
O122 C106 1.259 1_545 S
O123 Tb104 2.418 . S
O123 C106 1.265 . S
O124 Tb104 2.384 1_545 S
O124 C107 1.255 . S
O125 Eu105 2.366 . S
O125 C107 1.265 1_655 S
C126 O117 1.255 . S
C126 O118 1.265 1_655 S
O127 Tb104 2.479 . S
O127 C114 1.238 . S
O128 Tb104 2.471 . S
O128 C114 1.247 . S
C129 C132 1.380 . S
C129 C133 1.374 . S
C129 C135 1.507 . S
C130 C131 1.387 . S
C130 C134 1.391 . S
C131 C130 1.387 . S
C131 C132 1.384 . S
C131 H140 0.930 . S
C132 C129 1.380 . S
C132 C131 1.384 . S
C132 H141 0.931 . S
C133 C129 1.374 . S
C133 C134 1.390 . S
C133 H142 0.930 1_655 S
C134 C130 1.391 . S
C134 C133 1.390 . S
C134 H143 0.930 1_655 S
C135 Eu105 2.825 . S
C135 O120 1.238 . S
C135 O121 1.247 . S
C135 C129 1.507 . S
H136 C109 0.930 . S
H137 C110 0.931 . S
H138 C111 0.930 1_655 S
H139 C112 0.930 1_655 S
H140 C131 0.930 . S
H141 C132 0.931 . S
H142 C133 0.930 1_455 S
H143 C134 0.930 1_455 S
Tb144 C154 2.825 . S
Tb144 O155 2.347 1_545 S
Tb144 O158 2.366 . S
Tb144 O163 2.418 . S
Tb144 O164 2.384 . S
Tb144 O167 2.479 . S
Tb144 O168 2.471 . S
Eu145 O156 2.418 . S
Eu145 O157 2.384 . S
Eu145 O160 2.479 . S
Eu145 O161 2.471 . S
Eu145 O162 2.347 1_565 S
Eu145 O165 2.366 . S
Eu145 C175 2.825 . S
C146 O162 1.259 . S
C146 O163 1.265 . S
C147 O164 1.255 . S
C147 O165 1.265 1_545 S
C148 C150 1.380 . S
C148 C151 1.374 . S
C148 C154 1.507 1_554 S
C149 C150 1.384 . S
C149 C153 1.387 . S
C149 H176 0.930 . S
C150 C148 1.380 . S
C150 C149 1.384 . S
C150 H177 0.931 . S
C151 C148 1.374 . S
C151 C152 1.390 . S
C151 H178 0.930 1_545 S
C152 C151 1.390 . S
C152 C153 1.391 . S
C152 H179 0.930 1_545 S
C153 C149 1.387 . S
C153 C152 1.391 . S
C154 Tb144 2.825 . S
C154 C148 1.507 1_556 S
C154 O167 1.238 . S
C154 O168 1.247 . S
O155 Tb144 2.347 1_565 S
O155 C159 1.259 . S
O156 Eu145 2.418 . S
O156 C159 1.265 . S
O157 Eu145 2.384 . S
O157 C166 1.255 . S
O158 Tb144 2.366 . S
O158 C166 1.265 1_545 S
C159 O155 1.259 . S
C159 O156 1.265 . S
O160 Eu145 2.479 . S
O160 C175 1.238 . S
O161 Eu145 2.471 . S
O161 C175 1.247 . S
O162 Eu145 2.347 1_545 S
O162 C146 1.259 . S
O163 Tb144 2.418 . S
O163 C146 1.265 . S
O164 Tb144 2.384 . S
O164 C147 1.255 . S
O165 Eu145 2.366 . S
O165 C147 1.265 1_565 S
C166 O157 1.255 . S
C166 O158 1.265 1_565 S
O167 Tb144 2.479 . S
O167 C154 1.238 . S
O168 Tb144 2.471 . S
O168 C154 1.247 . S
C169 C172 1.380 . S
C169 C173 1.374 . S
C169 C175 1.507 . S
C170 C171 1.387 . S
C170 C174 1.391 . S
C171 C170 1.387 . S
C171 C172 1.384 . S
C171 H180 0.930 . S
C172 C169 1.380 . S
C172 C171 1.384 . S
C172 H181 0.931 . S
C173 C169 1.374 . S
C173 C174 1.390 . S
C173 H182 0.930 1_565 S
C174 C170 1.391 . S
C174 C173 1.390 . S
C174 H183 0.930 1_565 S
C175 Eu145 2.825 . S
C175 O160 1.238 . S
C175 O161 1.247 . S
C175 C169 1.507 . S
H176 C149 0.930 . S
H177 C150 0.931 . S
H178 C151 0.930 1_565 S
H179 C152 0.930 1_565 S
H180 C171 0.930 . S
H181 C172 0.931 . S
H182 C173 0.930 1_545 S
H183 C174 0.930 1_545 S
Tb184 C194 2.825 . S
Tb184 O195 2.347 . S
Tb184 O198 2.366 . S
Tb184 O203 2.418 . S
Tb184 O204 2.384 . S
Tb184 O207 2.479 . S
Tb184 O208 2.471 . S
Eu185 O196 2.418 . S
Eu185 O197 2.384 . S
Eu185 O200 2.479 . S
Eu185 O201 2.471 . S
Eu185 O202 2.347 . S
Eu185 O205 2.366 . S
Eu185 C215 2.825 . S
C186 O202 1.259 . S
C186 O203 1.265 . S
C187 O204 1.255 . S
C187 O205 1.265 . S
C188 C190 1.380 . S
C188 C191 1.374 . S
C188 C194 1.507 1_554 S
C189 C190 1.384 . S
C189 C193 1.387 . S
C189 H216 0.930 . S
C190 C188 1.380 . S
C190 C189 1.384 . S
C190 H217 0.931 . S
C191 C188 1.374 . S
C191 C192 1.390 . S
C191 H218 0.930 . S
C192 C191 1.390 . S
C192 C193 1.391 . S
C192 H219 0.930 . S
C193 C189 1.387 . S
C193 C192 1.391 . S
C194 Tb184 2.825 . S
C194 C188 1.507 1_556 S
C194 O207 1.238 . S
C194 O208 1.247 . S
O195 Tb184 2.347 . S
O195 C199 1.259 . S
O196 Eu185 2.418 . S
O196 C199 1.265 . S
O197 Eu185 2.384 . S
O197 C206 1.255 . S
O198 Tb184 2.366 . S
O198 C206 1.265 . S
C199 O195 1.259 . S
C199 O196 1.265 . S
O200 Eu185 2.479 . S
O200 C215 1.238 . S
O201 Eu185 2.471 . S
O201 C215 1.247 . S
O202 Eu185 2.347 . S
O202 C186 1.259 . S
O203 Tb184 2.418 . S
O203 C186 1.265 . S
O204 Tb184 2.384 . S
O204 C187 1.255 . S
O205 Eu185 2.366 . S
O205 C187 1.265 . S
C206 O197 1.255 . S
C206 O198 1.265 . S
O207 Tb184 2.479 . S
O207 C194 1.238 . S
O208 Tb184 2.471 . S
O208 C194 1.247 . S
C209 C212 1.380 . S
C209 C213 1.374 . S
C209 C215 1.507 . S
C210 C211 1.387 . S
C210 C214 1.391 . S
C211 C210 1.387 . S
C211 C212 1.384 . S
C211 H220 0.930 . S
C212 C209 1.380 . S
C212 C211 1.384 . S
C212 H221 0.931 . S
C213 C209 1.374 . S
C213 C214 1.390 . S
C213 H222 0.930 . S
C214 C210 1.391 . S
C214 C213 1.390 . S
C214 H223 0.930 . S
C215 Eu185 2.825 . S
C215 O200 1.238 . S
C215 O201 1.247 . S
C215 C209 1.507 . S
H216 C189 0.930 . S
H217 C190 0.931 . S
H218 C191 0.930 . S
H219 C192 0.930 . S
H220 C211 0.930 . S
H221 C212 0.931 . S
H222 C213 0.930 . S
H223 C214 0.930 . S
Tb224 C234 2.825 . S
Tb224 O235 2.347 . S
Tb224 O238 2.366 . S
Tb224 O243 2.418 . S
Tb224 O244 2.384 1_655 S
Tb224 O247 2.479 . S
Tb224 O248 2.471 . S
Eu225 O236 2.418 . S
Eu225 O237 2.384 1_455 S
Eu225 O240 2.479 . S
Eu225 O241 2.471 . S
Eu225 O242 2.347 . S
Eu225 O245 2.366 . S
Eu225 C255 2.825 . S
C226 O242 1.259 1_655 S
C226 O243 1.265 . S
C227 O244 1.255 . S
C227 O245 1.265 . S
C228 C230 1.380 . S
C228 C231 1.374 . S
C228 C234 1.507 1_554 S
C229 C230 1.384 . S
C229 C233 1.387 . S
C229 H256 0.930 . S
C230 C228 1.380 . S
C230 C229 1.384 . S
C230 H257 0.931 . S
C231 C228 1.374 . S
C231 C232 1.390 . S
C231 H258 0.930 . S
C232 C231 1.390 . S
C232 C233 1.391 . S
C232 H259 0.930 . S
C233 C229 1.387 . S
C233 C232 1.391 . S
C234 Tb224 2.825 . S
C234 C228 1.507 1_556 S
C234 O247 1.238 . S
C234 O248 1.247 . S
O235 Tb224 2.347 . S
O235 C239 1.259 1_655 S
O236 Eu225 2.418 . S
O236 C239 1.265 . S
O237 Eu225 2.384 1_655 S
O237 C246 1.255 . S
O238 Tb224 2.366 . S
O238 C246 1.265 . S
C239 O235 1.259 1_455 S
C239 O236 1.265 . S
O240 Eu225 2.479 . S
O240 C255 1.238 . S
O241 Eu225 2.471 . S
O241 C255 1.247 . S
O242 Eu225 2.347 . S
O242 C226 1.259 1_455 S
O243 Tb224 2.418 . S
O243 C226 1.265 . S
O244 Tb224 2.384 1_455 S
O244 C227 1.255 . S
O245 Eu225 2.366 . S
O245 C227 1.265 . S
C246 O237 1.255 . S
C246 O238 1.265 . S
O247 Tb224 2.479 . S
O247 C234 1.238 . S
O248 Tb224 2.471 . S
O248 C234 1.247 . S
C249 C252 1.380 . S
C249 C253 1.374 . S
C249 C255 1.507 . S
C250 C251 1.387 . S
C250 C254 1.391 . S
C251 C250 1.387 . S
C251 C252 1.384 . S
C251 H260 0.930 . S
C252 C249 1.380 . S
C252 C251 1.384 . S
C252 H261 0.931 . S
C253 C249 1.374 . S
C253 C254 1.390 . S
C253 H262 0.930 . S
C254 C250 1.391 . S
C254 C253 1.390 . S
C254 H263 0.930 . S
C255 Eu225 2.825 . S
C255 O240 1.238 . S
C255 O241 1.247 . S
C255 C249 1.507 . S
H256 C229 0.930 . S
H257 C230 0.931 . S
H258 C231 0.930 . S
H259 C232 0.930 . S
H260 C251 0.930 . S
H261 C252 0.931 . S
H262 C253 0.930 . S
H263 C254 0.930 . S
H264 C270 0.930 . S
H265 C274 0.930 . S
H266 C279 0.929 . S
H267 C277 0.929 . S
H268 C272 0.929 . S
H269 C278 0.929 . S
C270 H264 0.930 . S
C270 C271 1.378 . S
C270 C278 1.378 . S
C271 C270 1.378 . S
C271 C279 1.422 1_565 S
C272 H268 0.929 . S
C272 C274 1.378 . S
C272 C276 1.389 . S
C273 C276 1.460 1_565 S
C273 C278 1.368 . S
C273 N281 1.409 1_565 S
C274 H265 0.930 . S
C274 C272 1.378 . S
C274 C275 1.399 . S
C275 C274 1.399 . S
C275 C277 1.401 1_545 S
C276 C272 1.389 . S
C276 C273 1.460 1_545 S
C276 N280 1.389 1_545 S
C277 H267 0.929 . S
C277 C275 1.401 1_565 S
C277 N280 1.384 . S
C278 H269 0.929 . S
C278 C270 1.378 . S
C278 C273 1.368 . S
C279 H266 0.929 . S
C279 C271 1.422 1_545 S
C279 N281 1.384 . S
N280 C276 1.389 1_565 S
N280 C277 1.384 . S
N281 C273 1.409 1_545 S
N281 C279 1.384 . S
H282 C288 0.930 . S
H283 C292 0.930 . S
H284 C297 0.929 . S
H285 C295 0.929 . S
H286 C290 0.929 . S
H287 C296 0.929 . S
C288 H282 0.930 . S
C288 C289 1.367 . S
C288 C296 1.378 . S
C289 C288 1.367 . S
C289 C297 1.433 . S
C290 H286 0.929 . S
C290 C292 1.378 . S
C290 C294 1.350 . S
C291 C294 1.463 . S
C291 C296 1.350 . S
C291 N299 1.427 . S
C292 H283 0.930 . S
C292 C290 1.378 . S
C292 C293 1.367 . S
C293 C292 1.367 . S
C293 C295 1.433 . S
C294 C290 1.350 . S
C294 C291 1.463 . S
C294 N298 1.427 . S
C295 H285 0.929 . S
C295 C293 1.433 . S
C295 N298 1.384 . S
C296 H287 0.929 . S
C296 C288 1.378 . S
C296 C291 1.350 . S
C297 H284 0.929 . S
C297 C289 1.433 . S
C297 N299 1.384 . S
N298 C294 1.427 . S
N298 C295 1.384 . S
N299 C291 1.427 . S
N299 C297 1.384 . S
H300 C306 0.930 . S
H301 C310 0.930 . S
H302 C315 0.929 . S
H303 C313 0.929 . S
H304 C308 0.929 . S
H305 C314 0.929 . S
C306 H300 0.930 . S
C306 C307 1.367 . S
C306 C314 1.378 . S
C307 C306 1.367 . S
C307 C315 1.433 . S
C308 H304 0.929 . S
C308 C310 1.378 . S
C308 C312 1.350 . S
C309 C312 1.463 . S
C309 C314 1.350 . S
C309 N317 1.427 . S
C310 H301 0.930 . S
C310 C308 1.378 . S
C310 C311 1.367 . S
C311 C310 1.367 . S
C311 C313 1.433 . S
C312 C308 1.350 . S
C312 C309 1.463 . S
C312 N316 1.427 . S
C313 H303 0.929 . S
C313 C311 1.433 . S
C313 N316 1.384 . S
C314 H305 0.929 . S
C314 C306 1.378 . S
C314 C309 1.350 . S
C315 H302 0.929 . S
C315 C307 1.433 . S
C315 N317 1.384 . S
N316 C312 1.427 . S
N316 C313 1.384 . S
N317 C309 1.427 . S
N317 C315 1.384 . S
H318 C324 0.930 . S
H319 C328 0.930 . S
H320 C333 0.929 . S
H321 C331 0.929 . S
H322 C326 0.929 . S
H323 C332 0.929 . S
C324 H318 0.930 . S
C324 C325 1.370 . S
C324 C332 1.378 . S
C325 C324 1.370 . S
C325 C333 1.430 1_655 S
C326 H322 0.929 . S
C326 C328 1.378 . S
C326 C330 1.350 . S
C327 C330 1.463 1_655 S
C327 C332 1.349 . S
C327 N335 1.428 1_655 S
C328 H319 0.930 . S
C328 C326 1.378 . S
C328 C329 1.367 . S
C329 C328 1.367 . S
C329 C331 1.433 1_455 S
C330 C326 1.350 . S
C330 C327 1.463 1_455 S
C330 N334 1.427 1_455 S
C331 H321 0.929 . S
C331 C329 1.433 1_655 S
C331 N334 1.384 . S
C332 H323 0.929 . S
C332 C324 1.378 . S
C332 C327 1.349 . S
C333 H320 0.929 . S
C333 C325 1.430 1_455 S
C333 N335 1.384 . S
N334 C330 1.427 1_655 S
N334 C331 1.384 . S
N335 C327 1.428 1_455 S
N335 C333 1.384 . S
H336 C342 0.930 . S
H337 C346 0.930 1_556 S
H338 C351 0.929 . S
H339 C349 0.929 . S
H340 C344 0.929 . S
H341 C350 0.929 . S
C342 H336 0.930 . S
C342 C343 1.377 . S
C342 C350 1.378 . S
C343 C342 1.377 . S
C343 C351 1.423 1_565 S
C344 H340 0.929 . S
C344 C346 1.378 . S
C344 C348 1.368 . S
C345 C348 1.461 1_565 S
C345 C350 1.370 . S
C345 N353 1.407 1_565 S
C346 H337 0.930 1_554 S
C346 C344 1.378 . S
C346 C347 1.374 1_554 S
C347 C346 1.374 1_556 S
C347 C349 1.426 1_545 S
C348 C344 1.368 . S
C348 C345 1.461 1_545 S
C348 N352 1.409 1_545 S
C349 H339 0.929 . S
C349 C347 1.426 1_565 S
C349 N352 1.384 1_556 S
C350 H341 0.929 . S
C350 C342 1.378 . S
C350 C345 1.370 . S
C351 H338 0.929 . S
C351 C343 1.423 1_545 S
C351 N353 1.384 . S
N352 C348 1.409 1_565 S
N352 C349 1.384 1_554 S
N353 C345 1.407 1_545 S
N353 C351 1.384 . S
H354 C360 0.930 . S
H355 C364 0.930 . S
H356 C369 0.929 . S
H357 C367 0.929 . S
H358 C362 0.929 . S
H359 C368 0.929 . S
C360 H354 0.930 . S
C360 C361 1.367 . S
C360 C368 1.378 . S
C361 C360 1.367 . S
C361 C369 1.433 . S
C362 H358 0.929 . S
C362 C364 1.378 . S
C362 C366 1.350 1_556 S
C363 C366 1.463 . S
C363 C368 1.350 . S
C363 N371 1.427 . S
C364 H355 0.930 . S
C364 C362 1.378 . S
C364 C365 1.367 . S
C365 C364 1.367 . S
C365 C367 1.433 1_556 S
C366 C362 1.350 1_554 S
C366 C363 1.463 . S
C366 N370 1.427 . S
C367 H357 0.929 . S
C367 C365 1.433 1_554 S
C367 N370 1.384 . S
C368 H359 0.929 . S
C368 C360 1.378 . S
C368 C363 1.350 . S
C369 H356 0.929 . S
C369 C361 1.433 . S
C369 N371 1.384 . S
N370 C366 1.427 . S
N370 C367 1.384 . S
N371 C363 1.427 . S
N371 C369 1.384 . S
H372 C378 0.930 . S
H373 C382 0.930 . S
H374 C387 0.929 . S
H375 C385 0.929 . S
H376 C380 0.929 . S
H377 C386 0.929 . S
C378 H372 0.930 . S
C378 C379 1.367 . S
C378 C386 1.378 . S
C379 C378 1.367 . S
C379 C387 1.433 . S
C380 H376 0.929 . S
C380 C382 1.378 1_554 S
C380 C384 1.350 . S
C381 C384 1.463 . S
C381 C386 1.350 . S
C381 N389 1.427 . S
C382 H373 0.930 . S
C382 C380 1.378 1_556 S
C382 C383 1.367 . S
C383 C382 1.367 . S
C383 C385 1.433 . S
C384 C380 1.350 . S
C384 C381 1.463 . S
C384 N388 1.427 . S
C385 H375 0.929 . S
C385 C383 1.433 . S
C385 N388 1.384 1_556 S
C386 H377 0.929 . S
C386 C378 1.378 . S
C386 C381 1.350 . S
C387 H374 0.929 . S
C387 C379 1.433 . S
C387 N389 1.384 . S
N388 C384 1.427 . S
N388 C385 1.384 1_554 S
N389 C381 1.427 . S
N389 C387 1.384 . S
H390 C396 0.930 . S
H391 C400 0.930 . S
H392 C405 0.929 . S
H393 C403 0.929 . S
H394 C398 0.929 . S
H395 C404 0.929 . S
C396 H390 0.930 . S
C396 C397 1.396 . S
C396 C404 1.378 . S
C397 C396 1.396 . S
C397 C405 1.404 1_655 S
C398 H394 0.929 . S
C398 C400 1.378 1_554 S
C398 C402 1.350 . S
C399 C402 1.463 1_655 S
C399 C404 1.350 . S
C399 N407 1.427 1_655 S
C400 H391 0.930 . S
C400 C398 1.378 1_556 S
C400 C401 1.352 1_455 S
C401 C400 1.352 1_655 S
C401 C403 1.448 . S
C402 C398 1.350 . S
C402 C399 1.463 1_455 S
C402 N406 1.428 1_455 S
C403 H393 0.929 . S
C403 C401 1.448 . S
C403 N406 1.384 1_556 S
C404 H395 0.929 . S
C404 C396 1.378 . S
C404 C399 1.350 . S
C405 H392 0.929 . S
C405 C397 1.404 1_455 S
C405 N407 1.384 . S
N406 C402 1.428 1_655 S
N406 C403 1.384 1_554 S
N407 C399 1.427 1_455 S
N407 C405 1.384 . S
H408 C414 0.932 . S
H409 C418 0.930 . S
H410 C423 0.929 . S
H411 C421 0.929 . S
H412 C416 0.929 . S
H413 C422 0.929 . S
C414 H408 0.932 . S
C414 C415 1.367 . S
C414 C422 1.376 1_455 S
C415 C414 1.367 . S
C415 C423 1.433 1_455 S
C416 H412 0.929 . S
C416 C418 1.378 . S
C416 C420 1.350 . S
C417 C420 1.463 . S
C417 C422 1.350 . S
C417 N425 1.427 . S
C418 H409 0.930 . S
C418 C416 1.378 . S
C418 C419 1.367 . S
C419 C418 1.367 . S
C419 C421 1.433 . S
C420 C416 1.350 . S
C420 C417 1.463 . S
C420 N424 1.427 . S
C421 H411 0.929 . S
C421 C419 1.433 . S
C421 N424 1.384 . S
C422 H413 0.929 . S
C422 C414 1.376 1_655 S
C422 C417 1.350 . S
C423 H410 0.929 . S
C423 C415 1.433 1_655 S
C423 N425 1.384 . S
N424 C420 1.427 . S
N424 C421 1.384 . S
N425 C417 1.427 . S
N425 C423 1.384 . S
H426 C432 0.930 . S
H427 C436 0.930 1_545 S
H428 C441 0.929 . S
H429 C439 0.929 . S
H430 C434 0.929 . S
H431 C440 0.929 . S
C432 H426 0.930 . S
C432 C433 1.326 1_565 S
C432 C440 1.378 . S
C433 C432 1.326 1_545 S
C433 C441 1.465 . S
C434 H430 0.929 . S
C434 C436 1.378 1_545 S
C434 C438 1.350 1_545 S
C435 C438 1.463 . S
C435 C440 1.350 . S
C435 N443 1.427 1_565 S
C436 H427 0.930 1_565 S
C436 C434 1.378 1_565 S
C436 C437 1.367 . S
C437 C436 1.367 . S
C437 C439 1.433 . S
C438 C434 1.350 1_565 S
C438 C435 1.463 . S
C438 N442 1.427 . S
C439 H429 0.929 . S
C439 C437 1.433 . S
C439 N442 1.384 . S
C440 H431 0.929 . S
C440 C432 1.378 . S
C440 C435 1.350 . S
C441 H428 0.929 . S
C441 C433 1.465 . S
C441 N443 1.384 . S
N442 C438 1.427 . S
N442 C439 1.384 . S
N443 C435 1.427 1_545 S
N443 C441 1.384 . S
H444 C450 0.930 . S
H445 C454 0.930 . S
H446 C459 0.929 . S
H447 C457 0.929 . S
H448 C452 0.929 . S
H449 C458 0.929 . S
C450 H444 0.930 . S
C450 C451 1.367 . S
C450 C458 1.378 . S
C451 C450 1.367 . S
C451 C459 1.433 . S
C452 H448 0.929 . S
C452 C454 1.378 . S
C452 C456 1.350 . S
C453 C456 1.463 . S
C453 C458 1.350 . S
C453 N461 1.427 . S
C454 H445 0.930 . S
C454 C452 1.378 . S
C454 C455 1.367 . S
C455 C454 1.367 . S
C455 C457 1.433 . S
C456 C452 1.350 . S
C456 C453 1.463 . S
C456 N460 1.427 . S
C457 H447 0.929 . S
C457 C455 1.433 . S
C457 N460 1.384 . S
C458 H449 0.929 . S
C458 C450 1.378 . S
C458 C453 1.350 . S
C459 H446 0.929 . S
C459 C451 1.433 . S
C459 N461 1.384 . S
N460 C456 1.427 . S
N460 C457 1.384 . S
N461 C453 1.427 . S
N461 C459 1.384 . S
H462 C468 0.930 . S
H463 C472 0.930 . S
H464 C477 0.929 . S
H465 C475 0.929 . S
H466 C470 0.929 . S
H467 C476 0.929 . S
C468 H462 0.930 . S
C468 C469 1.367 . S
C468 C476 1.378 . S
C469 C468 1.367 . S
C469 C477 1.433 . S
C470 H466 0.929 . S
C470 C472 1.378 . S
C470 C474 1.350 . S
C471 C474 1.463 . S
C471 C476 1.350 . S
C471 N479 1.427 . S
C472 H463 0.930 . S
C472 C470 1.378 . S
C472 C473 1.367 . S
C473 C472 1.367 . S
C473 C475 1.433 . S
C474 C470 1.350 . S
C474 C471 1.463 . S
C474 N478 1.427 . S
C475 H465 0.929 . S
C475 C473 1.433 . S
C475 N478 1.384 . S
C476 H467 0.929 . S
C476 C468 1.378 . S
C476 C471 1.350 . S
C477 H464 0.929 . S
C477 C469 1.433 . S
C477 N479 1.384 . S
N478 C474 1.427 . S
N478 C475 1.384 . S
N479 C471 1.427 . S
N479 C477 1.384 . S
H480 C486 0.930 . S
H481 C490 0.930 . S
H482 C495 0.929 . S
H483 C493 0.929 . S
H484 C488 0.929 1_655 S
H485 C494 0.929 . S
C486 H480 0.930 . S
C486 C487 1.367 1_455 S
C486 C494 1.378 . S
C487 C486 1.367 1_655 S
C487 C495 1.433 . S
C488 H484 0.929 1_455 S
C488 C490 1.378 . S
C488 C492 1.350 . S
C489 C492 1.463 . S
C489 C494 1.350 . S
C489 N497 1.427 1_455 S
C490 H481 0.930 . S
C490 C488 1.378 . S
C490 C491 1.367 . S
C491 C490 1.367 . S
C491 C493 1.433 . S
C492 C488 1.350 . S
C492 C489 1.463 . S
C492 N496 1.427 . S
C493 H483 0.929 . S
C493 C491 1.433 . S
C493 N496 1.384 . S
C494 H485 0.929 . S
C494 C486 1.378 . S
C494 C489 1.350 . S
C495 H482 0.929 . S
C495 C487 1.433 . S
C495 N497 1.384 . S
N496 C492 1.427 . S
N496 C493 1.384 . S
N497 C489 1.427 1_655 S
N497 C495 1.384 . S
H498 C504 0.930 . S
H499 C508 0.930 . S
H500 C513 0.929 . S
H501 C511 0.929 . S
H502 C506 0.929 . S
H503 C512 0.929 . S
C504 H498 0.930 . S
C504 C505 1.367 . S
C504 C512 1.378 . S
C505 C504 1.367 . S
C505 C513 1.433 1_565 S
C506 H502 0.929 . S
C506 C508 1.378 . S
C506 C510 1.350 . S
C507 C510 1.463 . S
C507 C512 1.350 1_545 S
C507 N515 1.427 . S
C508 H499 0.930 . S
C508 C506 1.378 . S
C508 C509 1.367 . S
C509 C508 1.367 . S
C509 C511 1.433 . S
C510 C506 1.350 . S
C510 C507 1.463 . S
C510 N514 1.427 . S
C511 H501 0.929 . S
C511 C509 1.433 . S
C511 N514 1.384 . S
C512 H503 0.929 . S
C512 C504 1.378 . S
C512 C507 1.350 1_565 S
C513 H500 0.929 . S
C513 C505 1.433 1_545 S
C513 N515 1.384 . S
N514 C510 1.427 . S
N514 C511 1.384 . S
N515 C507 1.427 . S
N515 C513 1.384 . S
H516 C522 0.930 . S
H517 C526 0.930 . S
H518 C531 0.929 . S
H519 C529 0.929 . S
H520 C524 0.929 . S
H521 C530 0.929 . S
C522 H516 0.930 . S
C522 C523 1.367 . S
C522 C530 1.378 . S
C523 C522 1.367 . S
C523 C531 1.433 . S
C524 H520 0.929 . S
C524 C526 1.378 . S
C524 C528 1.350 . S
C525 C528 1.463 . S
C525 C530 1.350 . S
C525 N533 1.427 . S
C526 H517 0.930 . S
C526 C524 1.378 . S
C526 C527 1.367 . S
C527 C526 1.367 . S
C527 C529 1.433 . S
C528 C524 1.350 . S
C528 C525 1.463 . S
C528 N532 1.427 . S
C529 H519 0.929 . S
C529 C527 1.433 . S
C529 N532 1.384 . S
C530 H521 0.929 . S
C530 C522 1.378 . S
C530 C525 1.350 . S
C531 H518 0.929 . S
C531 C523 1.433 . S
C531 N533 1.384 . S
N532 C528 1.427 . S
N532 C529 1.384 . S
N533 C525 1.427 . S
N533 C531 1.384 . S
H534 C540 0.930 . S
H535 C544 0.930 . S
H536 C549 0.929 . S
H537 C547 0.929 . S
H538 C542 0.929 . S
H539 C548 0.929 . S
C540 H534 0.930 . S
C540 C541 1.367 . S
C540 C548 1.378 . S
C541 C540 1.367 . S
C541 C549 1.433 . S
C542 H538 0.929 . S
C542 C544 1.378 . S
C542 C546 1.350 . S
C543 C546 1.463 . S
C543 C548 1.350 . S
C543 N551 1.427 . S
C544 H535 0.930 . S
C544 C542 1.378 . S
C544 C545 1.367 . S
C545 C544 1.367 . S
C545 C547 1.433 . S
C546 C542 1.350 . S
C546 C543 1.463 . S
C546 N550 1.427 . S
C547 H537 0.929 . S
C547 C545 1.433 . S
C547 N550 1.384 . S
C548 H539 0.929 . S
C548 C540 1.378 . S
C548 C543 1.350 . S
C549 H536 0.929 . S
C549 C541 1.433 . S
C549 N551 1.384 . S
N550 C546 1.427 . S
N550 C547 1.384 . S
N551 C543 1.427 . S
N551 C549 1.384 . S
H552 C558 0.930 . S
H553 C562 0.930 . S
H554 C567 0.929 1_554 S
H555 C565 0.929 . S
H556 C560 0.929 . S
H557 C566 0.929 . S
C558 H552 0.930 . S
C558 C559 1.367 . S
C558 C566 1.378 . S
C559 C558 1.367 . S
C559 C567 1.433 1_455 S
C560 H556 0.929 . S
C560 C562 1.378 . S
C560 C564 1.350 1_655 S
C561 C564 1.463 . S
C561 C566 1.350 . S
C561 N569 1.427 1_455 S
C562 H553 0.930 . S
C562 C560 1.378 . S
C562 C563 1.367 1_655 S
C563 C562 1.367 1_455 S
C563 C565 1.433 . S
C564 C560 1.350 1_455 S
C564 C561 1.463 . S
C564 N568 1.427 . S
C565 H555 0.929 . S
C565 C563 1.433 . S
C565 N568 1.384 . S
C566 H557 0.929 . S
C566 C558 1.378 . S
C566 C561 1.350 . S
C567 H554 0.929 1_556 S
C567 C559 1.433 1_655 S
C567 N569 1.384 . S
N568 C564 1.427 . S
N568 C565 1.384 . S
N569 C561 1.427 1_655 S
N569 C567 1.384 . S
H570 C576 0.930 . S
H571 C580 0.930 . S
H572 C585 0.929 . S
H573 C583 0.929 . S
H574 C578 0.929 . S
H575 C584 0.929 . S
C576 H570 0.930 . S
C576 C577 1.367 . S
C576 C584 1.378 . S
C577 C576 1.367 . S
C577 C585 1.433 1_545 S
C578 H574 0.929 . S
C578 C580 1.378 . S
C578 C582 1.350 1_565 S
C579 C582 1.463 . S
C579 C584 1.350 . S
C579 N587 1.427 1_545 S
C580 H571 0.930 . S
C580 C578 1.378 . S
C580 C581 1.367 1_565 S
C581 C580 1.367 1_545 S
C581 C583 1.433 . S
C582 C578 1.350 1_545 S
C582 C579 1.463 . S
C582 N586 1.427 . S
C583 H573 0.929 . S
C583 C581 1.433 . S
C583 N586 1.384 . S
C584 H575 0.929 . S
C584 C576 1.378 . S
C584 C579 1.350 . S
C585 H572 0.929 . S
C585 C577 1.433 1_565 S
C585 N587 1.384 . S
N586 C582 1.427 . S
N586 C583 1.384 . S
N587 C579 1.427 1_565 S
N587 C585 1.384 . S
H588 C594 0.930 . S
H589 C598 0.930 . S
H590 C603 0.929 1_554 S
H591 C601 0.929 . S
H592 C596 0.929 . S
H593 C602 0.929 . S
C594 H588 0.930 . S
C594 C595 1.367 . S
C594 C602 1.378 . S
C595 C594 1.367 . S
C595 C603 1.433 . S
C596 H592 0.929 . S
C596 C598 1.378 . S
C596 C600 1.350 . S
C597 C600 1.463 . S
C597 C602 1.350 . S
C597 N605 1.427 . S
C598 H589 0.930 . S
C598 C596 1.378 . S
C598 C599 1.367 . S
C599 C598 1.367 . S
C599 C601 1.433 . S
C600 C596 1.350 . S
C600 C597 1.463 . S
C600 N604 1.427 . S
C601 H591 0.929 . S
C601 C599 1.433 . S
C601 N604 1.384 . S
C602 H593 0.929 . S
C602 C594 1.378 . S
C602 C597 1.350 . S
C603 H590 0.929 1_556 S
C603 C595 1.433 . S
C603 N605 1.384 . S
N604 C600 1.427 . S
N604 C601 1.384 . S
N605 C597 1.427 . S
N605 C603 1.384 . S
H606 C612 0.930 . S
H607 C616 0.930 . S
H608 C621 0.929 . S
H609 C619 0.929 . S
H610 C614 0.929 . S
H611 C620 0.929 . S
C612 H606 0.930 . S
C612 C613 1.367 . S
C612 C620 1.378 . S
C613 C612 1.367 . S
C613 C621 1.433 . S
C614 H610 0.929 . S
C614 C616 1.378 . S
C614 C618 1.350 . S
C615 C618 1.463 . S
C615 C620 1.350 . S
C615 N623 1.427 . S
C616 H607 0.930 . S
C616 C614 1.378 . S
C616 C617 1.367 . S
C617 C616 1.367 . S
C617 C619 1.433 . S
C618 C614 1.350 . S
C618 C615 1.463 . S
C618 N622 1.427 . S
C619 H609 0.929 . S
C619 C617 1.433 . S
C619 N622 1.384 . S
C620 H611 0.929 . S
C620 C612 1.378 . S
C620 C615 1.350 . S
C621 H608 0.929 . S
C621 C613 1.433 . S
C621 N623 1.384 . S
N622 C618 1.427 . S
N622 C619 1.384 . S
N623 C615 1.427 . S
N623 C621 1.384 . S
H624 C630 0.930 . S
H625 C634 0.930 . S
H626 C639 0.929 . S
H627 C637 0.929 . S
H628 C632 0.929 . S
H629 C638 0.929 . S
C630 H624 0.930 . S
C630 C631 1.367 1_455 S
C630 C638 1.378 . S
C631 C630 1.367 1_655 S
C631 C639 1.433 . S
C632 H628 0.929 . S
C632 C634 1.378 . S
C632 C636 1.350 . S
C633 C636 1.463 . S
C633 C638 1.350 1_655 S
C633 N641 1.427 . S
C634 H625 0.930 . S
C634 C632 1.378 . S
C634 C635 1.367 . S
C635 C634 1.367 . S
C635 C637 1.433 1_655 S
C636 C632 1.350 . S
C636 C633 1.463 . S
C636 N640 1.427 1_655 S
C637 H627 0.929 . S
C637 C635 1.433 1_455 S
C637 N640 1.384 . S
C638 H629 0.929 . S
C638 C630 1.378 . S
C638 C633 1.350 1_455 S
C639 H626 0.929 . S
C639 C631 1.433 . S
C639 N641 1.384 . S
N640 C636 1.427 1_455 S
N640 C637 1.384 . S
N641 C633 1.427 . S
N641 C639 1.384 . S
H642 C648 0.930 . S
H643 C652 0.930 . S
H644 C657 0.929 . S
H645 C655 0.929 . S
H646 C650 0.929 . S
H647 C656 0.929 . S
C648 H642 0.930 . S
C648 C649 1.367 1_545 S
C648 C656 1.378 . S
C649 C648 1.367 1_565 S
C649 C657 1.433 . S
C650 H646 0.929 . S
C650 C652 1.378 . S
C650 C654 1.350 . S
C651 C654 1.463 . S
C651 C656 1.350 1_565 S
C651 N659 1.427 . S
C652 H643 0.930 . S
C652 C650 1.378 . S
C652 C653 1.367 . S
C653 C652 1.367 . S
C653 C655 1.433 1_565 S
C654 C650 1.350 . S
C654 C651 1.463 . S
C654 N658 1.427 1_565 S
C655 H645 0.929 . S
C655 C653 1.433 1_545 S
C655 N658 1.384 . S
C656 H647 0.929 . S
C656 C648 1.378 . S
C656 C651 1.350 1_545 S
C657 H644 0.929 . S
C657 C649 1.433 . S
C657 N659 1.384 . S
N658 C654 1.427 1_545 S
N658 C655 1.384 . S
N659 C651 1.427 . S
N659 C657 1.384 . S
H660 C666 0.930 . S
H661 C670 0.930 . S
H662 C675 0.929 . S
H663 C673 0.929 . S
H664 C668 0.929 . S
H665 C674 0.929 . S
C666 H660 0.930 . S
C666 C667 1.367 . S
C666 C674 1.378 . S
C667 C666 1.367 . S
C667 C675 1.433 . S
C668 H664 0.929 . S
C668 C670 1.378 . S
C668 C672 1.350 . S
C669 C672 1.463 . S
C669 C674 1.350 . S
C669 N677 1.427 . S
C670 H661 0.930 . S
C670 C668 1.378 . S
C670 C671 1.367 . S
C671 C670 1.367 . S
C671 C673 1.433 . S
C672 C668 1.350 . S
C672 C669 1.463 . S
C672 N676 1.427 . S
C673 H663 0.929 . S
C673 C671 1.433 . S
C673 N676 1.384 . S
C674 H665 0.929 . S
C674 C666 1.378 . S
C674 C669 1.350 . S
C675 H662 0.929 . S
C675 C667 1.433 . S
C675 N677 1.384 . S
N676 C672 1.427 . S
N676 C673 1.384 . S
N677 C669 1.427 . S
N677 C675 1.384 . S
H678 C684 0.930 . S
H679 C688 0.930 . S
H680 C693 0.929 . S
H681 C691 0.929 . S
H682 C686 0.929 . S
H683 C692 0.929 . S
C684 H678 0.930 . S
C684 C685 1.367 . S
C684 C692 1.378 . S
C685 C684 1.367 . S
C685 C693 1.433 . S
C686 H682 0.929 . S
C686 C688 1.378 . S
C686 C690 1.350 . S
C687 C690 1.463 . S
C687 C692 1.350 . S
C687 N695 1.427 . S
C688 H679 0.930 . S
C688 C686 1.378 . S
C688 C689 1.367 . S
C689 C688 1.367 . S
C689 C691 1.433 . S
C690 C686 1.350 . S
C690 C687 1.463 . S
C690 N694 1.427 . S
C691 H681 0.929 . S
C691 C689 1.433 . S
C691 N694 1.384 . S
C692 H683 0.929 . S
C692 C684 1.378 . S
C692 C687 1.350 . S
C693 H680 0.929 . S
C693 C685 1.433 . S
C693 N695 1.384 . S
N694 C690 1.427 . S
N694 C691 1.384 . S
N695 C687 1.427 . S
N695 C693 1.384 . S
C271 C82 1.682 1_565 S
C275 C106 1.966 1_545 S
C293 C146 1.980 . S
C289 C95 1.696 . S
C311 C186 1.984 . S
C307 C56 1.696 . S
C329 C226 1.977 1_455 S
C325 C69 1.700 1_655 S
C347 C119 1.969 . S
C343 C30 1.682 1_565 S
C361 C43 1.710 . S
C365 C159 1.981 . S
C379 C4 1.708 . S
C383 C199 1.987 . S
C397 C17 1.694 1_655 S
C401 C239 1.974 1_655 S
C419 C130 0.470 . S
C415 C74 0.517 . S
C437 C170 0.471 . S
C433 C87 0.499 . S
C455 C210 0.482 . S
C451 C100 0.525 . S
C469 C61 0.518 . S
C473 C250 0.486 . S
C487 C22 0.483 1_655 S
C491 C113 0.471 . S
C509 C153 0.490 . S
C505 C35 0.529 1_565 S
C527 C193 0.485 . S
C523 C48 0.500 . S
C541 C9 0.495 . S
C545 C233 0.491 . S
C559 C73 2.058 . S
C563 C107 2.292 . S
C577 C86 2.021 . S
C581 C147 2.268 . S
C599 C187 2.257 . S
C595 C99 2.017 . S
C617 C227 2.286 . S
C613 C60 2.035 . S
C631 C21 2.058 1_655 S
C635 C126 2.305 . S
C653 C166 2.271 . S
C649 C34 2.019 1_565 S
C671 C206 2.254 . S
C667 C47 2.005 . S
C685 C8 2.044 . S
C689 C246 2.292 . S
