# Generated by pormake.
# Topology apo, (3,6)-cn, num edge types: 1
# Building blocks:
#     Node 0, Type 0, BuildingBlock: KAKCAD_clean_linker_0, # of connection points: 3
#     Node 1, Type 0, BuildingBlock: KAKCAD_clean_linker_0, # of connection points: 3
#     Node 2, Type 0, BuildingBlock: KAKCAD_clean_linker_0, # of connection points: 3
#     Node 3, Type 0, BuildingBlock: KAKCAD_clean_linker_0, # of connection points: 3
#     Node 4, Type 0, BuildingBlock: KAKCAD_clean_linker_0, # of connection points: 3
#     Node 5, Type 0, BuildingBlock: KAKCAD_clean_linker_0, # of connection points: 3
#     Node 6, Type 0, BuildingBlock: KAKCAD_clean_linker_0, # of connection points: 3
#     Node 7, Type 0, BuildingBlock: KAKCAD_clean_linker_0, # of connection points: 3
#     Node 8, Type 1, BuildingBlock: MIDCAF_clean_sbu_0, # of connection points: 6
#     Node 9, Type 1, BuildingBlock: MIDCAF_clean_sbu_0, # of connection points: 6
#     Node 10, Type 1, BuildingBlock: MIDCAF_clean_sbu_0, # of connection points: 6
#     Node 11, Type 1, BuildingBlock: MIDCAF_clean_sbu_0, # of connection points: 6
#     Edge 12, Type (0, 1), BuildingBlock: TEMPAE_clean_linker_10, # of connection points: 2
#     Edge 13, Type (0, 1), BuildingBlock: TEMPAE_clean_linker_10, # of connection points: 2
#     Edge 14, Type (0, 1), BuildingBlock: TEMPAE_clean_linker_10, # of connection points: 2
#     Edge 15, Type (0, 1), BuildingBlock: TEMPAE_clean_linker_10, # of connection points: 2
#     Edge 16, Type (0, 1), BuildingBlock: TEMPAE_clean_linker_10, # of connection points: 2
#     Edge 17, Type (0, 1), BuildingBlock: TEMPAE_clean_linker_10, # of connection points: 2
#     Edge 18, Type (0, 1), BuildingBlock: TEMPAE_clean_linker_10, # of connection points: 2
#     Edge 19, Type (0, 1), BuildingBlock: TEMPAE_clean_linker_10, # of connection points: 2
#     Edge 20, Type (0, 1), BuildingBlock: TEMPAE_clean_linker_10, # of connection points: 2
#     Edge 21, Type (0, 1), BuildingBlock: TEMPAE_clean_linker_10, # of connection points: 2
#     Edge 22, Type (0, 1), BuildingBlock: TEMPAE_clean_linker_10, # of connection points: 2
#     Edge 23, Type (0, 1), BuildingBlock: TEMPAE_clean_linker_10, # of connection points: 2
#     Edge 24, Type (0, 1), BuildingBlock: TEMPAE_clean_linker_10, # of connection points: 2
#     Edge 25, Type (0, 1), BuildingBlock: TEMPAE_clean_linker_10, # of connection points: 2
#     Edge 26, Type (0, 1), BuildingBlock: TEMPAE_clean_linker_10, # of connection points: 2
#     Edge 27, Type (0, 1), BuildingBlock: TEMPAE_clean_linker_10, # of connection points: 2
#     Edge 28, Type (0, 1), BuildingBlock: TEMPAE_clean_linker_10, # of connection points: 2
#     Edge 29, Type (0, 1), BuildingBlock: TEMPAE_clean_linker_10, # of connection points: 2
#     Edge 30, Type (0, 1), BuildingBlock: TEMPAE_clean_linker_10, # of connection points: 2
#     Edge 31, Type (0, 1), BuildingBlock: TEMPAE_clean_linker_10, # of connection points: 2
#     Edge 32, Type (0, 1), BuildingBlock: TEMPAE_clean_linker_10, # of connection points: 2
#     Edge 33, Type (0, 1), BuildingBlock: TEMPAE_clean_linker_10, # of connection points: 2
#     Edge 34, Type (0, 1), BuildingBlock: TEMPAE_clean_linker_10, # of connection points: 2
#     Edge 35, Type (0, 1), BuildingBlock: TEMPAE_clean_linker_10, # of connection points: 2
# Relax obj value: 0.085
# Max RMSD: 0.099
# Mean RMSD: 0.090
data_MOF--net-apo--node1-MIDCAF_clean_sbu_0--node2-KAKCAD_clean_linker_0--edge1-TEMPAE_clean_linker_10
_symmetry_space_group_name_H-M    P1
_symmetry_Int_Tables_number       1
_symmetry_cell_setting            triclinic
loop_
_symmetry_equiv_pos_as_xyz
'x, y, z'
_cell_length_a     43.024666
_cell_length_b     51.315328
_cell_length_c     45.634207
_cell_angle_alpha  90.052848
_cell_angle_beta   90.137383
_cell_angle_gamma 90.262653
loop_
_atom_site_label
_atom_site_type_symbol
_atom_site_fract_x
_atom_site_fract_y
_atom_site_fract_z
_atom_type_partial_charge
C0 C 0.36606 0.4033 0.33211 0.0
C1 C 0.3973 0.40934 0.33835 0.0
C2 C 0.35187 0.3814 0.34454 0.0
C3 C 0.36859 0.36505 0.36352 0.0
C4 C 0.40001 0.37078 0.36927 0.0
C5 C 0.41421 0.39266 0.35681 0.0
C6 C 0.35324 0.34229 0.37765 0.0
C7 C 0.33297 0.32625 0.36167 0.0
C8 C 0.31808 0.30485 0.37487 0.0
C9 C 0.32481 0.29891 0.40442 0.0
C10 C 0.34531 0.31475 0.42095 0.0
C11 C 0.35868 0.33673 0.40729 0.0
C12 C 0.353 0.30892 0.45237 0.0
C13 C 0.33135 0.29727 0.47151 0.0
C14 C 0.38222 0.31601 0.46383 0.0
C15 C 0.38897 0.31311 0.49351 0.0
C16 C 0.36739 0.30175 0.51292 0.0
C17 C 0.29521 0.28928 0.35751 0.0
C18 C 0.27438 0.30192 0.33847 0.0
C19 C 0.29425 0.26193 0.35922 0.0
C20 C 0.27304 0.24762 0.34218 0.0
C21 C 0.25239 0.26035 0.32303 0.0
C22 C 0.25336 0.28767 0.32141 0.0
C23 C 0.33857 0.29348 0.50127 0.0
H24 H 0.35248 0.41564 0.31776 0.0
H25 H 0.32758 0.37763 0.33981 0.0
H26 H 0.41364 0.35838 0.3835 0.0
H27 H 0.43821 0.39691 0.36231 0.0
H28 H 0.32907 0.33025 0.33864 0.0
H29 H 0.37301 0.35009 0.41985 0.0
H30 H 0.31393 0.2821 0.41446 0.0
H31 H 0.30851 0.29159 0.46378 0.0
H32 H 0.40011 0.32424 0.44996 0.0
H33 H 0.41112 0.32055 0.50111 0.0
H34 H 0.27401 0.32299 0.33701 0.0
H35 H 0.31018 0.25155 0.37338 0.0
H36 H 0.32134 0.28423 0.51504 0.0
H37 H 0.23729 0.29814 0.30746 0.0
H38 H 0.27294 0.22657 0.34384 0.0
C39 C 0.13069 0.09281 0.82469 0.0
C40 C 0.09926 0.08763 0.83078 0.0
C41 C 0.14615 0.11352 0.83831 0.0
C42 C 0.1305 0.12979 0.85816 0.0
C43 C 0.09884 0.12502 0.86372 0.0
C44 C 0.08341 0.10415 0.85023 0.0
C45 C 0.14731 0.15149 0.8731 0.0
C46 C 0.16963 0.16613 0.85789 0.0
C47 C 0.18637 0.18608 0.87186 0.0
C48 C 0.18021 0.19193 0.90138 0.0
C49 C 0.15797 0.17746 0.91716 0.0
C50 C 0.14178 0.1572 0.90277 0.0
C51 C 0.15194 0.18285 0.94879 0.0
C52 C 0.17638 0.18878 0.96831 0.0
C53 C 0.12161 0.18097 0.95995 0.0
C54 C 0.11595 0.18391 0.98986 0.0
C55 C 0.14038 0.18921 0.0096 0.0
C56 C 0.21089 0.20016 0.85548 0.0
C57 C 0.23372 0.18608 0.8403 0.0
C58 C 0.21137 0.22749 0.85439 0.0
C59 C 0.23428 0.24051 0.83827 0.0
C60 C 0.25734 0.2264 0.82343 0.0
C61 C 0.25688 0.19908 0.82461 0.0
C62 C 0.17066 0.19195 0.99836 0.0
H63 H 0.14352 0.08067 0.80957 0.0
H64 H 0.17061 0.11638 0.83371 0.0
H65 H 0.08595 0.13738 0.87856 0.0
H66 H 0.05928 0.10056 0.85567 0.0
H67 H 0.17389 0.16222 0.8349 0.0
H68 H 0.12553 0.14524 0.91495 0.0
H69 H 0.193 0.20752 0.91205 0.0
H70 H 0.20009 0.1902 0.96056 0.0
H71 H 0.10212 0.17685 0.94558 0.0
H72 H 0.09238 0.18114 0.99756 0.0
H73 H 0.23388 0.16497 0.84091 0.0
H74 H 0.19389 0.23873 0.86577 0.0
H75 H 0.19003 0.19625 0.01278 0.0
H76 H 0.27447 0.18781 0.81342 0.0
H77 H 0.23443 0.26162 0.83795 0.0
C78 C 0.85742 0.08637 0.67717 0.0
C79 C 0.88843 0.08002 0.6708 0.0
C80 C 0.84271 0.10685 0.66268 0.0
C81 C 0.85875 0.12184 0.64176 0.0
C82 C 0.89005 0.11598 0.63598 0.0
C83 C 0.90467 0.09525 0.65024 0.0
C84 C 0.84266 0.14325 0.62584 0.0
C85 C 0.82072 0.15875 0.6403 0.0
C86 C 0.80463 0.17839 0.62539 0.0
C87 C 0.81088 0.18297 0.59561 0.0
C88 C 0.8329 0.16773 0.5807 0.0
C89 C 0.84855 0.1479 0.596 0.0
C90 C 0.83954 0.17192 0.54908 0.0
C91 C 0.81536 0.17437 0.52844 0.0
C92 C 0.87039 0.17202 0.53915 0.0
C93 C 0.87697 0.17345 0.50927 0.0
C94 C 0.85287 0.17463 0.48843 0.0
C95 C 0.78102 0.19367 0.64132 0.0
C96 C 0.75705 0.18077 0.6564 0.0
C97 C 0.7831 0.22094 0.64282 0.0
C98 C 0.76171 0.23506 0.65947 0.0
C99 C 0.73762 0.22214 0.67439 0.0
C100 C 0.73535 0.1949 0.67256 0.0
C101 C 0.82197 0.17568 0.49837 0.0
H102 H 0.84431 0.07533 0.69317 0.0
H103 H 0.81849 0.11053 0.6675 0.0
H104 H 0.90329 0.12734 0.62036 0.0
H105 H 0.92846 0.09076 0.64452 0.0
H106 H 0.81632 0.15583 0.66345 0.0
H107 H 0.86469 0.13552 0.58433 0.0
H108 H 0.79854 0.19823 0.58408 0.0
H109 H 0.79133 0.17424 0.53546 0.0
H110 H 0.88953 0.17068 0.55454 0.0
H111 H 0.90107 0.17334 0.50247 0.0
H112 H 0.75503 0.15973 0.65555 0.0
H113 H 0.80157 0.23124 0.63155 0.0
H114 H 0.80288 0.17655 0.48289 0.0
H115 H 0.7169 0.18455 0.6838 0.0
H116 H 0.76364 0.25611 0.66031 0.0
C117 C 0.6332 0.411 0.17891 0.0
C118 C 0.6016 0.41525 0.17269 0.0
C119 C 0.64916 0.39048 0.16568 0.0
C120 C 0.6339 0.37371 0.14591 0.0
C121 C 0.60212 0.3776 0.1402 0.0
C122 C 0.58614 0.39812 0.15346 0.0
C123 C 0.65115 0.35245 0.13098 0.0
C124 C 0.67268 0.33737 0.14648 0.0
C125 C 0.68946 0.31751 0.13254 0.0
C126 C 0.68338 0.31202 0.10275 0.0
C127 C 0.66168 0.32686 0.08665 0.0
C128 C 0.64635 0.34744 0.10108 0.0
C129 C 0.6548 0.32132 0.05493 0.0
C130 C 0.67729 0.31078 0.03593 0.0
C131 C 0.62541 0.32719 0.04314 0.0
C132 C 0.61917 0.32397 0.01336 0.0
C133 C 0.64149 0.31344 0.9942 0.0
C134 C 0.71365 0.30302 0.14928 0.0
C135 C 0.7331 0.3163 0.16922 0.0
C136 C 0.71751 0.27602 0.14572 0.0
C137 C 0.74036 0.2627 0.16157 0.0
C138 C 0.75988 0.27604 0.18142 0.0
C139 C 0.75579 0.30299 0.18515 0.0
C140 C 0.67061 0.30658 1.00613 0.0
H141 H 0.64569 0.42372 0.19384 0.0
H142 H 0.67367 0.38814 0.17043 0.0
H143 H 0.58959 0.36481 0.12537 0.0
H144 H 0.5619 0.401 0.14798 0.0
H145 H 0.67609 0.34092 0.16968 0.0
H146 H 0.631 0.36017 0.08897 0.0
H147 H 0.69574 0.29631 0.09218 0.0
H148 H 0.70036 0.30614 0.04379 0.0
H149 H 0.60689 0.33453 0.0568 0.0
H150 H 0.59674 0.33037 1.00553 0.0
H151 H 0.73112 0.33716 0.17228 0.0
H152 H 0.70277 0.26511 0.13081 0.0
H153 H 0.68846 0.29803 0.99258 0.0
H154 H 0.7702 0.31388 0.20037 0.0
H155 H 0.74316 0.24201 0.15778 0.0
C156 C 0.60376 0.61387 0.68142 0.0
C157 C 0.60399 0.58899 0.66855 0.0
C158 C 0.61908 0.63476 0.66789 0.0
C159 C 0.63464 0.63117 0.6411 0.0
C160 C 0.63441 0.60636 0.6281 0.0
C161 C 0.61926 0.58555 0.64164 0.0
C162 C 0.65178 0.65295 0.62693 0.0
C163 C 0.67108 0.66938 0.64359 0.0
C164 C 0.68895 0.689 0.63012 0.0
C165 C 0.68695 0.69229 0.5995 0.0
C166 C 0.66787 0.67587 0.58249 0.0
C167 C 0.65024 0.65643 0.59646 0.0
C168 C 0.66647 0.67833 0.55006 0.0
C169 C 0.66139 0.70257 0.53657 0.0
C170 C 0.66822 0.65592 0.53245 0.0
C171 C 0.6632 0.65743 0.50228 0.0
C172 C 0.65606 0.68136 0.48894 0.0
C173 C 0.71117 0.70468 0.64799 0.0
C174 C 0.70301 0.71358 0.67612 0.0
C175 C 0.74137 0.70955 0.63769 0.0
C176 C 0.763 0.72272 0.65518 0.0
C177 C 0.75498 0.73139 0.68342 0.0
C178 C 0.7247 0.72675 0.69367 0.0
C179 C 0.65615 0.70406 0.50627 0.0
H180 H 0.59222 0.61707 0.70218 0.0
H181 H 0.61869 0.65372 0.67831 0.0
H182 H 0.64644 0.60287 0.60766 0.0
H183 H 0.61946 0.56669 0.63095 0.0
H184 H 0.67333 0.66604 0.66694 0.0
H185 H 0.63506 0.64401 0.58351 0.0
H186 H 0.70067 0.70727 0.58882 0.0
H187 H 0.65991 0.72015 0.54963 0.0
H188 H 0.67276 0.63706 0.54215 0.0
H189 H 0.66395 0.63965 0.48947 0.0
H190 H 0.67981 0.71036 0.68459 0.0
H191 H 0.74865 0.70251 0.61642 0.0
H192 H 0.65054 0.72277 0.4967 0.0
H193 H 0.71771 0.73346 0.71517 0.0
H194 H 0.7863 0.72559 0.64681 0.0
C195 C 0.83132 0.79978 0.01326 0.0
C196 C 0.86177 0.79677 1.0027 0.0
C197 C 0.82594 0.80394 0.04319 0.0
C198 C 0.85096 0.80561 0.06302 0.0
C199 C 0.8813 0.80207 0.05252 0.0
C200 C 0.88663 0.79759 0.02276 0.0
C201 C 0.84576 0.81217 0.09436 0.0
C202 C 0.82302 0.79903 0.11079 0.0
C203 C 0.8179 0.8054 0.14042 0.0
C204 C 0.83615 0.8251 0.15342 0.0
C205 C 0.85884 0.8387 0.13731 0.0
C206 C 0.86344 0.83199 0.10774 0.0
C207 C 0.87695 0.86041 0.15112 0.0
C208 C 0.86302 0.87676 0.17211 0.0
C209 C 0.90808 0.86531 0.1432 0.0
C210 C 0.92451 0.88627 0.15545 0.0
C211 C 0.91043 0.90236 0.17639 0.0
C212 C 0.79288 0.79223 0.15763 0.0
C213 C 0.76456 0.78537 0.14423 0.0
C214 C 0.79661 0.78719 0.18779 0.0
C215 C 0.77244 0.77615 0.20416 0.0
C216 C 0.74405 0.76947 0.19074 0.0
C217 C 0.74065 0.77395 0.16045 0.0
C218 C 0.87969 0.89728 0.18481 0.0
H219 H 0.81173 0.79926 0.99831 0.0
H220 H 0.80232 0.80673 0.05069 0.0
H221 H 0.901 0.80309 0.06732 0.0
H222 H 0.9104 0.79575 0.0153 0.0
H223 H 0.80973 0.78351 0.10053 0.0
H224 H 0.88011 0.84276 0.09469 0.0
H225 H 0.83234 0.83013 0.17615 0.0
H226 H 0.83894 0.8742 0.17832 0.0
H227 H 0.91985 0.85297 0.12754 0.0
H228 H 0.94825 0.8899 0.14864 0.0
H229 H 0.76054 0.78919 0.1212 0.0
H230 H 0.81825 0.79172 0.19886 0.0
H231 H 0.8682 0.90977 0.20055 0.0
H232 H 0.71951 0.76848 0.14905 0.0
H233 H 0.77598 0.77314 0.2274 0.0
C234 C 0.10462 0.89311 0.34612 0.0
C235 C 0.10342 0.91635 0.36245 0.0
C236 C 0.1206 0.87143 0.35687 0.0
C237 C 0.13559 0.87247 0.38426 0.0
C238 C 0.13415 0.89559 0.40069 0.0
C239 C 0.11833 0.91728 0.3899 0.0
C240 C 0.15305 0.84966 0.39557 0.0
C241 C 0.17314 0.83572 0.37716 0.0
C242 C 0.19042 0.81451 0.38786 0.0
C243 C 0.18695 0.80718 0.41747 0.0
C244 C 0.1675 0.8213 0.43632 0.0
C245 C 0.15049 0.84235 0.4251 0.0
C246 C 0.16537 0.81472 0.46798 0.0
C247 C 0.16065 0.78891 0.47732 0.0
C248 C 0.16691 0.83463 0.48908 0.0
C249 C 0.16255 0.82907 0.51873 0.0
C250 C 0.15641 0.80346 0.52806 0.0
C251 C 0.21332 0.80109 0.36857 0.0
C252 C 0.2075 0.79752 0.33842 0.0
C253 C 0.2418 0.79246 0.38007 0.0
C254 C 0.26375 0.7806 0.36208 0.0
C255 C 0.25827 0.77743 0.33186 0.0
C256 C 0.22975 0.78595 0.32027 0.0
C257 C 0.15602 0.78334 0.50707 0.0
H258 H 0.09309 0.89163 0.32506 0.0
H259 H 0.12101 0.85377 0.34386 0.0
H260 H 0.14589 0.89715 0.42165 0.0
H261 H 0.11846 0.935 0.40281 0.0
H262 H 0.17624 0.84217 0.35476 0.0
H263 H 0.13489 0.85293 0.43939 0.0
H264 H 0.19986 0.79082 0.42612 0.0
H265 H 0.15935 0.77317 0.46152 0.0
H266 H 0.17093 0.85466 0.48259 0.0
H267 H 0.16255 0.84511 0.53418 0.0
H268 H 0.18569 0.80358 0.32878 0.0
H269 H 0.2475 0.7952 0.40299 0.0
H270 H 0.15143 0.7634 0.51358 0.0
H271 H 0.22468 0.78395 0.29713 0.0
H272 H 0.28503 0.77372 0.37208 0.0
C273 C 0.31943 0.68317 0.01205 0.0
C274 C 0.35002 0.68296 0.02293 0.0
C275 C 0.31382 0.68077 0.98184 0.0
C276 C 0.33872 0.67821 0.9621 0.0
C277 C 0.36925 0.67942 0.97301 0.0
C278 C 0.37481 0.68175 1.00299 0.0
C279 C 0.33333 0.67276 0.93045 0.0
C280 C 0.31075 0.68636 0.91431 0.0
C281 C 0.30653 0.68135 0.88421 0.0
C282 C 0.32484 0.66239 0.87041 0.0
C283 C 0.34681 0.64814 0.88639 0.0
C284 C 0.35103 0.65356 0.91629 0.0
C285 C 0.36422 0.62663 0.8723 0.0
C286 C 0.36664 0.60243 0.88644 0.0
C287 C 0.3779 0.62984 0.84456 0.0
C288 C 0.39363 0.60916 0.83122 0.0
C289 C 0.39554 0.58486 0.84524 0.0
C290 C 0.28245 0.69532 0.86718 0.0
C291 C 0.25202 0.69721 0.87791 0.0
C292 C 0.2895 0.70617 0.83971 0.0
C293 C 0.26662 0.71901 0.82345 0.0
C294 C 0.23611 0.72101 0.83419 0.0
C295 C 0.22906 0.70972 0.86152 0.0
C296 C 0.38207 0.58179 0.87305 0.0
H297 H 0.2999 0.6841 0.02694 0.0
H298 H 0.29003 0.67986 0.97409 0.0
H299 H 0.38894 0.67815 0.95834 0.0
H300 H 0.39866 0.68216 0.01068 0.0
H301 H 0.29696 0.70122 0.92496 0.0
H302 H 0.36803 0.64256 0.92866 0.0
H303 H 0.321 0.65794 0.84745 0.0
H304 H 0.35608 0.59929 0.90768 0.0
H305 H 0.37653 0.64835 0.83326 0.0
H306 H 0.40376 0.61201 0.80975 0.0
H307 H 0.24584 0.68859 0.89878 0.0
H308 H 0.31286 0.70507 0.831 0.0
H309 H 0.38351 0.56335 0.88452 0.0
H310 H 0.2057 0.71039 0.87024 0.0
H311 H 0.27303 0.72779 0.80275 0.0
Zn312 Zn 0.02548 0.1454 0.30182 0.0
Zn313 Zn 0.98061 0.12693 0.2071 0.0
Zn314 Zn 0.00233 0.13611 0.25307 0.0
C315 C 0.03878 0.14186 0.19282 0.0
C316 C 0.97482 0.08082 0.23211 0.0
O317 O 0.96588 0.15677 0.27936 0.0
O318 O 0.98858 0.15694 0.32289 0.0
C319 C 0.06193 0.17334 0.26511 0.0
O320 O 0.03596 0.15063 0.21921 0.0
O321 O 0.01827 0.12665 0.18279 0.0
O322 O 0.95974 0.09336 0.21318 0.0
O323 O 0.99511 0.09279 0.24818 0.0
O324 O 0.05521 0.17281 0.29193 0.0
O325 O 0.04637 0.15928 0.2467 0.0
O326 O 0.01265 0.09779 0.27355 0.0
O327 O 0.04212 0.11036 0.31069 0.0
C328 C 0.03054 0.09227 0.29537 0.0
O329 O 0.95745 0.15847 0.24977 0.0
O330 O 0.95316 0.15676 0.20181 0.0
C331 C 0.96522 0.1617 0.30711 0.0
C332 C 0.94385 0.16579 0.2259 0.0
Zn333 Zn 0.51917 0.36615 0.70021 0.0
Zn334 Zn 0.48664 0.36346 0.8079 0.0
Zn335 Zn 0.50251 0.36271 0.75386 0.0
C336 C 0.48777 0.41468 0.79315 0.0
C337 C 0.43935 0.33699 0.77847 0.0
O338 O 0.54805 0.34233 0.75057 0.0
O339 O 0.55909 0.34829 0.70377 0.0
C340 C 0.51572 0.4166 0.71688 0.0
O341 O 0.4947 0.40369 0.76857 0.0
O342 O 0.48413 0.40104 0.81584 0.0
O343 O 0.44703 0.34507 0.80357 0.0
O344 O 0.45738 0.34111 0.75637 0.0
O345 O 0.52083 0.40386 0.69379 0.0
O346 O 0.50856 0.40453 0.74077 0.0
O347 O 0.46588 0.34248 0.72652 0.0
O348 O 0.48477 0.34734 0.68178 0.0
C349 C 0.46378 0.33897 0.69855 0.0
O350 O 0.54039 0.3437 0.78053 0.0
O351 O 0.52137 0.34475 0.82551 0.0
C352 C 0.56641 0.33926 0.72852 0.0
C353 C 0.54289 0.33869 0.80817 0.0
Zn354 Zn 0.03147 0.8618 0.8061 0.0
Zn355 Zn 0.96868 0.85348 0.71037 0.0
Zn356 Zn 0.99853 0.85586 0.75954 0.0
C357 C 0.97042 0.90534 0.72322 0.0
C358 C 0.93498 0.82398 0.75051 0.0
O359 O 0.04337 0.83475 0.75383 0.0
O360 O 0.06957 0.84362 0.79448 0.0
C361 C 0.01932 0.9114 0.78965 0.0
O362 O 0.98653 0.89597 0.74463 0.0
O363 O 0.95828 0.89032 0.70451 0.0
O364 O 0.93615 0.82931 0.72358 0.0
O365 O 0.95568 0.83289 0.7684 0.0
O366 O 0.03318 0.8997 0.81006 0.0
O367 O 0.00557 0.89836 0.76913 0.0
O368 O 0.97077 0.8373 0.79547 0.0
O369 O 0.00253 0.84418 0.83279 0.0
C370 C 0.97694 0.83564 0.8231 0.0
O371 O 0.02926 0.83668 0.72619 0.0
O372 O 0.00187 0.8403 0.68537 0.0
C373 C 0.06794 0.83251 0.76988 0.0
C374 C 0.02666 0.83389 0.69817 0.0
Zn375 Zn 0.51469 0.63861 0.20575 0.0
Zn376 Zn 0.47534 0.63815 0.31117 0.0
Zn377 Zn 0.49538 0.6397 0.2585 0.0
C378 C 0.52974 0.66643 0.31453 0.0
C379 C 0.48078 0.58702 0.29642 0.0
O380 O 0.46062 0.66015 0.23001 0.0
O381 O 0.48413 0.66138 0.18701 0.0
C382 C 0.56179 0.66244 0.23774 0.0
O383 O 0.53042 0.6598 0.28724 0.0
O384 O 0.50669 0.66037 0.33015 0.0
O385 O 0.47613 0.60042 0.31914 0.0
O386 O 0.48779 0.59838 0.27207 0.0
O387 O 0.55611 0.65342 0.21258 0.0
O388 O 0.5414 0.66012 0.25829 0.0
O389 O 0.50243 0.59848 0.24432 0.0
O390 O 0.51299 0.60101 0.19705 0.0
C391 C 0.50881 0.58737 0.21968 0.0
O392 O 0.44982 0.66054 0.25897 0.0
O393 O 0.43437 0.6536 0.30442 0.0
C394 C 0.46126 0.66722 0.20288 0.0
C395 C 0.42929 0.663 0.27935 0.0
C396 C 0.09132 0.94689 0.32105 0.0
C397 C 0.08778 0.93993 0.3506 0.0
C398 C 0.07916 0.97033 0.31023 0.0
C399 C 0.06333 0.98738 0.32945 0.0
C400 C 0.05852 0.97997 0.35896 0.0
C401 C 0.07068 0.9563 0.36914 0.0
C402 C 0.0847 0.97743 0.2786 0.0
C403 C 0.04185 0.99761 0.38019 0.0
C404 C 0.06831 0.05983 0.31403 0.0
C405 C 0.03874 0.06512 0.3026 0.0
C406 C 0.07659 0.03458 0.32254 0.0
C407 C 0.05475 0.01404 0.31956 0.0
C408 C 0.02488 0.01921 0.30782 0.0
C409 C 0.01713 0.04481 0.2997 0.0
C410 C 0.10862 0.02998 0.33511 0.0
C411 C 0.00099 -0.00215 0.30437 0.0
H412 H 0.10473 0.93454 0.30659 0.0
H413 H 0.06729 0.95083 0.39185 0.0
H414 H 0.0635 0.98599 0.26881 0.0
H415 H 0.10342 0.99233 0.27734 0.0
H416 H 0.09175 0.9603 0.26532 0.0
H417 H 0.03783 0.98811 0.40173 0.0
H418 H 0.05584 0.01556 0.3838 0.0
H419 H 0.01913 0.00368 0.371 0.0
H420 H 0.08505 0.07555 0.31641 0.0
H421 H 0.99393 0.04908 0.29189 0.0
H422 H 0.12106 0.01528 0.32177 0.0
H423 H 0.10668 0.02211 0.35767 0.0
H424 H 0.12288 0.04808 0.33586 0.0
H425 H 0.01135 0.98083 0.2931 0.0
H426 H 0.9803 0.00441 0.29183 0.0
H427 H 0.99322 0.99117 0.32628 0.0
C428 C 0.44091 0.56506 0.81896 0.0
C429 C 0.41114 0.56245 0.8311 0.0
C430 C 0.45695 0.54321 0.80832 0.0
C431 C 0.44277 0.51828 0.80993 0.0
C432 C 0.41209 0.51584 0.8208 0.0
C433 C 0.39669 0.53794 0.83122 0.0
C434 C 0.48959 0.54686 0.79701 0.0
C435 C 0.39601 0.48966 0.82276 0.0
C436 C 0.46787 0.45633 0.77187 0.0
C437 C 0.48184 0.44293 0.79513 0.0
C438 C 0.45771 0.48211 0.77542 0.0
C439 C 0.46052 0.49423 0.80319 0.0
C440 C 0.47649 0.48137 0.82609 0.0
C441 C 0.48698 0.45587 0.82175 0.0
C442 C 0.44222 0.49568 0.75003 0.0
C443 C 0.48058 0.49383 0.85584 0.0
H444 H 0.45221 0.58399 0.81889 0.0
H445 H 0.37343 0.53597 0.84009 0.0
H446 H 0.50606 0.54632 0.81575 0.0
H447 H 0.49626 0.53135 0.78136 0.0
H448 H 0.49224 0.56611 0.78615 0.0
H449 H 0.37159 0.49132 0.83037 0.0
H450 H 0.39603 0.47991 0.80105 0.0
H451 H 0.40881 0.47692 0.83824 0.0
H452 H 0.46356 0.44632 0.75132 0.0
H453 H 0.49807 0.44561 0.83969 0.0
H454 H 0.44876 0.51662 0.74944 0.0
H455 H 0.41662 0.49443 0.75263 0.0
H456 H 0.44853 0.48658 0.72876 0.0
H457 H 0.49073 0.51363 0.85352 0.0
H458 H 0.49581 0.48218 0.87046 0.0
H459 H 0.45756 0.49594 0.8665 0.0
C460 C 0.60376 0.54231 0.68374 0.0
C461 C 0.58863 0.56641 0.68289 0.0
C462 C 0.58857 0.51994 0.69397 0.0
C463 C 0.55746 0.52168 0.70386 0.0
C464 C 0.54264 0.54627 0.70475 0.0
C465 C 0.55842 0.56839 0.69418 0.0
C466 C 0.60532 0.49414 0.69262 0.0
C467 C 0.5096 0.54935 0.71514 0.0
C468 C 0.51506 0.45848 0.68979 0.0
C469 C 0.52022 0.44512 0.71609 0.0
C470 C 0.52484 0.48434 0.68631 0.0
C471 C 0.53998 0.4972 0.70982 0.0
C472 C 0.54248 0.48466 0.73734 0.0
C473 C 0.53322 0.45848 0.73999 0.0
C474 C 0.52104 0.49723 0.6568 0.0
C475 C 0.55679 0.4982 0.76345 0.0
H476 H 0.62736 0.54082 0.67565 0.0
H477 H 0.54657 0.58698 0.69359 0.0
H478 H 0.60508 0.48463 0.71444 0.0
H479 H 0.59316 0.48092 0.67706 0.0
H480 H 0.62985 0.49631 0.68545 0.0
H481 H 0.50717 0.56763 0.72798 0.0
H482 H 0.49401 0.55089 0.69582 0.0
H483 H 0.50163 0.53275 0.72874 0.0
H484 H 0.50469 0.44826 0.67137 0.0
H485 H 0.53757 0.44817 0.76029 0.0
H486 H 0.54424 0.50055 0.64685 0.0
H487 H 0.50981 0.5165 0.65938 0.0
H488 H 0.50686 0.48526 0.64144 0.0
H489 H 0.58245 0.49643 0.76238 0.0
H490 H 0.54879 0.48931 0.78433 0.0
H491 H 0.55097 0.51926 0.76362 0.0
C492 C 0.92998 0.92908 0.21844 0.0
C493 C 0.92678 0.92553 0.18814 0.0
C494 C 0.94194 0.95248 0.22992 0.0
C495 C 0.95031 0.9729 0.21057 0.0
C496 C 0.9482 0.96891 0.17987 0.0
C497 C 0.93677 0.94513 0.16904 0.0
C498 C 0.94506 0.95546 0.26268 0.0
C499 C 0.95606 0.99036 0.15844 0.0
C500 C 0.93877 0.04331 0.23208 0.0
C501 C 0.96939 0.05251 0.23375 0.0
C502 C 0.93233 0.01705 0.22633 0.0
C503 C 0.95721 -0.0005 0.22201 0.0
C504 C 0.98826 0.00837 0.22547 0.0
C505 C 0.99403 0.03492 0.23129 0.0
C506 C 0.89888 0.00848 0.22286 0.0
C507 C 0.01527 0.99009 0.2216 0.0
H508 H 0.92254 0.91368 0.23314 0.0
H509 H 0.93404 0.94237 0.14561 0.0
H510 H 0.97007 0.95557 0.26853 0.0
H511 H 0.93504 0.97418 0.27021 0.0
H512 H 0.93358 0.93928 0.27473 0.0
H513 H 0.95517 0.98356 0.13533 0.0
H514 H 0.93933 0.0066 0.16105 0.0
H515 H 0.9796 -0.0017 0.16295 0.0
H516 H 0.91975 0.05704 0.23382 0.0
H517 H 0.01773 0.04216 0.23224 0.0
H518 H 0.89398 0.99148 0.23714 0.0
H519 H 0.89461 0.0023 0.19988 0.0
H520 H 0.88227 0.02425 0.22838 0.0
H521 H 0.0135 0.97395 0.23767 0.0
H522 H 0.03798 0.00015 0.22447 0.0
H523 H 0.01462 0.9812 0.19944 0.0
C524 C 0.88574 0.03369 0.68779 0.0
C525 C 0.90311 0.05667 0.68421 0.0
C526 C 0.89959 0.01081 0.69812 0.0
C527 C 0.93174 0.01072 0.7047 0.0
C528 C 0.94919 0.03407 0.70238 0.0
C529 C 0.93467 0.05678 0.69216 0.0
C530 C 0.88006 0.98637 0.7006 0.0
C531 C 0.98347 0.03489 0.70929 0.0
C532 C 0.95763 0.94919 0.74373 0.0
C533 C 0.96572 0.93356 0.71982 0.0
C534 C 0.94865 0.97523 0.73953 0.0
C535 C 0.9473 0.98548 0.71072 0.0
C536 C 0.9574 0.97014 0.68681 0.0
C537 C 0.96631 0.94432 0.69166 0.0
C538 C 0.93869 0.99095 0.76579 0.0
C539 C 0.95696 0.98045 0.65582 0.0
H540 H 0.86148 0.03321 0.68137 0.0
H541 H 0.9482 0.07454 0.68999 0.0
H542 H 0.88796 0.97182 0.68425 0.0
H543 H 0.88295 0.97758 0.72264 0.0
H544 H 0.85497 0.99017 0.69685 0.0
H545 H 0.99119 0.05485 0.71546 0.0
H546 H 0.98938 0.02131 0.72729 0.0
H547 H 0.99671 0.02885 0.6896 0.0
H548 H 0.95685 0.94076 0.76549 0.0
H549 H 0.97283 0.93219 0.6732 0.0
H550 H 0.91346 0.98783 0.76947 0.0
H551 H 0.94272 0.01211 0.76254 0.0
H552 H 0.95126 0.98462 0.78585 0.0
H553 H 0.93256 0.9836 0.64874 0.0
H554 H 0.96812 0.96687 0.64011 0.0
H555 H 0.96912 -0.00047 0.65473 0.0
C556 C 0.55465 0.43651 0.19498 0.0
C557 C 0.58533 0.43838 0.18476 0.0
C558 C 0.5385 0.45871 0.20445 0.0
C559 C 0.5533 0.4834 0.2033 0.0
C560 C 0.58455 0.48526 0.19379 0.0
C561 C 0.60016 0.46276 0.1847 0.0
C562 C 0.50529 0.45555 0.21442 0.0
C563 C 0.60115 0.51122 0.19199 0.0
C564 C 0.5099 0.54626 0.19082 0.0
C565 C 0.51432 0.55903 0.21768 0.0
C566 C 0.52055 0.52079 0.18649 0.0
C567 C 0.53589 0.50774 0.20964 0.0
C568 C 0.53799 0.5197 0.23757 0.0
C569 C 0.52772 0.54544 0.24111 0.0
C570 C 0.5172 0.5085 0.15657 0.0
C571 C 0.5529 0.50606 0.26323 0.0
H572 H 0.54311 0.41769 0.19538 0.0
H573 H 0.62368 0.46444 0.17645 0.0
H574 H 0.49764 0.47178 0.22867 0.0
H575 H 0.48987 0.45491 0.1949 0.0
H576 H 0.50218 0.4369 0.22643 0.0
H577 H 0.62572 0.50922 0.18494 0.0
H578 H 0.58896 0.52405 0.17616 0.0
H579 H 0.60076 0.52107 0.21363 0.0
H580 H 0.49933 0.55666 0.1727 0.0
H581 H 0.53158 0.55531 0.26182 0.0
H582 H 0.50632 0.48894 0.1585 0.0
H583 H 0.54053 0.50586 0.1467 0.0
H584 H 0.50292 0.52052 0.14149 0.0
H585 H 0.54812 0.4848 0.26272 0.0
H586 H 0.5445 0.5141 0.28439 0.0
H587 H 0.57845 0.50893 0.26224 0.0
C588 C 0.44239 0.43396 0.31667 0.0
C589 C 0.41169 0.43372 0.32706 0.0
C590 C 0.45681 0.45733 0.30802 0.0
C591 C 0.44025 0.48103 0.31014 0.0
C592 C 0.40896 0.48076 0.31972 0.0
C593 C 0.39508 0.45714 0.32802 0.0
C594 C 0.49012 0.45659 0.2978 0.0
C595 C 0.39049 0.50562 0.32239 0.0
C596 C 0.48002 0.54562 0.32467 0.0
C597 C 0.47557 0.55859 0.29799 0.0
C598 C 0.47032 0.51974 0.32836 0.0
C599 C 0.45594 0.50645 0.30472 0.0
C600 C 0.45347 0.51882 0.27708 0.0
C601 C 0.46278 0.54496 0.27419 0.0
C602 C 0.47377 0.50715 0.35808 0.0
C603 C 0.43934 0.50509 0.251 0.0
H604 H 0.45527 0.41588 0.31555 0.0
H605 H 0.37152 0.45719 0.33636 0.0
H606 H 0.49505 0.47211 0.28157 0.0
H607 H 0.50574 0.45969 0.31687 0.0
H608 H 0.49585 0.43741 0.28793 0.0
H609 H 0.36605 0.50195 0.32907 0.0
H610 H 0.40155 0.51862 0.33888 0.0
H611 H 0.3904 0.51616 0.30118 0.0
H612 H 0.49002 0.55609 0.34309 0.0
H613 H 0.45878 0.55502 0.25367 0.0
H614 H 0.48547 0.48803 0.35594 0.0
H615 H 0.45043 0.50351 0.3676 0.0
H616 H 0.48732 0.51947 0.37358 0.0
H617 H 0.44568 0.48416 0.25066 0.0
H618 H 0.44688 0.51418 0.23007 0.0
H619 H 0.41364 0.50635 0.25231 0.0
C620 C 0.05259 0.06481 0.80913 0.0
C621 C 0.08372 0.0641 0.8184 0.0
C622 C 0.03716 0.04208 0.79977 0.0
C623 C 0.05325 0.01806 0.7998 0.0
C624 C 0.08502 0.01746 0.80797 0.0
C625 C 0.09979 0.04042 0.81722 0.0
C626 C 0.00334 0.04398 0.79132 0.0
C627 C 0.10307 0.99227 0.80849 0.0
C628 C 0.01644 0.95314 0.81641 0.0
C629 C 0.02023 0.94005 0.78975 0.0
C630 C 0.0243 0.9795 0.8192 0.0
C631 C 0.03666 0.99295 0.79479 0.0
C632 C 0.03759 0.98049 0.76707 0.0
C633 C 0.02951 0.95398 0.76489 0.0
C634 C 0.02185 0.99231 0.8489 0.0
C635 C 0.04955 0.99432 0.74021 0.0
H636 H 0.04007 0.08309 0.80955 0.0
H637 H 0.12367 0.03954 0.82473 0.0
H638 H 0.99932 0.06169 0.77788 0.0
H639 H 0.99501 0.02673 0.77897 0.0
H640 H 0.98916 0.0459 0.81149 0.0
H641 H 0.12802 0.99536 0.81386 0.0
H642 H 0.09292 0.97891 0.82506 0.0
H643 H 0.10144 0.98242 0.78689 0.0
H644 H 0.00887 0.94232 0.83554 0.0
H645 H 0.03242 0.94381 0.74424 0.0
H646 H 0.0097 0.01126 0.84698 0.0
H647 H 0.04551 0.99628 0.85764 0.0
H648 H 0.00916 0.97995 0.86491 0.0
H649 H 0.0451 0.01559 0.74121 0.0
H650 H 0.03867 0.98627 0.72001 0.0
H651 H 0.07503 0.99139 0.73862 0.0
C652 C 0.10583 0.19997 0.05219 0.0
C653 C 0.13409 0.19004 0.0418 0.0
C654 C 0.09629 0.19572 0.08117 0.0
C655 C 0.11584 0.18179 0.10058 0.0
C656 C 0.14603 0.17473 0.09135 0.0
C657 C 0.15468 0.17856 0.06193 0.0
C658 C 0.06402 0.20395 0.09011 0.0
C659 C 0.16827 0.16123 0.11187 0.0
C660 C 0.07965 0.17409 0.17626 0.0
C661 C 0.06397 0.15027 0.17277 0.0
C662 C 0.09918 0.1838 0.15398 0.0
C663 C 0.102 0.16977 0.12731 0.0
C664 C 0.08779 0.14494 0.12464 0.0
C665 C 0.06943 0.13541 0.14751 0.0
C666 C 0.11515 0.20971 0.15853 0.0
C667 C 0.08989 0.12917 0.09669 0.0
H668 H 0.0903 0.20988 0.03721 0.0
H669 H 0.17676 0.17103 0.05444 0.0
H670 H 0.04924 0.18639 0.09329 0.0
H671 H 0.06483 0.21461 0.11124 0.0
H672 H 0.05282 0.21659 0.07343 0.0
H673 H 0.19267 0.16294 0.10414 0.0
H674 H 0.16666 0.16947 0.13431 0.0
H675 H 0.16223 0.14023 0.11316 0.0
H676 H 0.0754 0.18582 0.19554 0.0
H677 H 0.05784 0.11674 0.14482 0.0
H678 H 0.09951 0.22555 0.15118 0.0
H679 H 0.13709 0.2111 0.14588 0.0
H680 H 0.12039 0.21299 0.18211 0.0
H681 H 0.07894 0.14006 0.0784 0.0
H682 H 0.07816 0.10991 0.09855 0.0
H683 H 0.11453 0.12587 0.09079 0.0
C684 C 0.35158 0.30089 0.56667 0.0
C685 C 0.37491 0.2998 0.54508 0.0
C686 C 0.3591 0.30234 0.59672 0.0
C687 C 0.39064 0.30428 0.60544 0.0
C688 C 0.41422 0.30199 0.58397 0.0
C689 C 0.40604 0.29868 0.55445 0.0
C690 C 0.33295 0.30294 0.61868 0.0
C691 C 0.44829 0.30476 0.59176 0.0
C692 C 0.41838 0.34692 0.66756 0.0
C693 C 0.4355 0.32904 0.68411 0.0
C694 C 0.4009 0.33883 0.64321 0.0
C695 C 0.39964 0.31201 0.6359 0.0
C696 C 0.41308 0.29358 0.6552 0.0
C697 C 0.43185 0.30235 0.67859 0.0
C698 C 0.38703 0.35931 0.62341 0.0
C699 C 0.40955 0.26472 0.64977 0.0
H700 H 0.32735 0.30158 0.56032 0.0
H701 H 0.42445 0.29622 0.53858 0.0
H702 H 0.3408 0.29795 0.64116 0.0
H703 H 0.32254 0.32267 0.619 0.0
H704 H 0.31429 0.28908 0.61209 0.0
H705 H 0.46352 0.30441 0.57214 0.0
H706 H 0.45239 0.32339 0.60357 0.0
H707 H 0.45549 0.28874 0.60651 0.0
H708 H 0.42159 0.36759 0.67166 0.0
H709 H 0.44541 0.28847 0.69109 0.0
H710 H 0.36194 0.35539 0.62003 0.0
H711 H 0.39846 0.35864 0.60164 0.0
H712 H 0.38972 0.37929 0.63249 0.0
H713 H 0.38491 0.25997 0.64469 0.0
H714 H 0.41715 0.25305 0.66896 0.0
H715 H 0.42362 0.25884 0.63058 0.0
C716 C 0.65777 0.31214 0.94058 0.0
C717 C 0.63432 0.31062 0.96204 0.0
C718 C 0.6505 0.31223 0.91044 0.0
C719 C 0.61898 0.31231 0.9014 0.0
C720 C 0.59533 0.30979 0.9228 0.0
C721 C 0.60337 0.30789 0.9525 0.0
C722 C 0.67684 0.31325 0.8887 0.0
C723 C 0.56123 0.31064 0.91465 0.0
C724 C 0.58876 0.35041 0.83697 0.0
C725 C 0.57238 0.33093 0.82189 0.0
C726 C 0.60699 0.3444 0.86154 0.0
C727 C 0.60985 0.31809 0.87046 0.0
C728 C 0.59751 0.2981 0.85233 0.0
C729 C 0.57788 0.30476 0.82878 0.0
C730 C 0.61982 0.36646 0.87993 0.0
C731 C 0.60282 0.26977 0.85939 0.0
H732 H 0.68188 0.31412 0.94706 0.0
H733 H 0.58496 0.3051 0.9683 0.0
H734 H 0.66948 0.30754 0.86626 0.0
H735 H 0.68655 0.3333 0.88803 0.0
H736 H 0.69591 0.30016 0.89581 0.0
H737 H 0.54586 0.31077 0.93418 0.0
H738 H 0.55628 0.32833 0.90149 0.0
H739 H 0.555 0.29347 0.90109 0.0
H740 H 0.58417 0.37066 0.83177 0.0
H741 H 0.565 0.28963 0.81736 0.0
H742 H 0.64509 0.36383 0.88346 0.0
H743 H 0.60846 0.36642 0.90176 0.0
H744 H 0.61608 0.38579 0.8696 0.0
H745 H 0.62726 0.26668 0.86641 0.0
H746 H 0.59766 0.25704 0.84028 0.0
H747 H 0.58757 0.2637 0.87772 0.0
C748 C 0.84561 0.19011 0.43626 0.0
C749 C 0.86042 0.17375 0.45658 0.0
C750 C 0.85496 0.19069 0.40667 0.0
C751 C 0.87991 0.17478 0.39738 0.0
C752 C 0.89369 0.15724 0.41751 0.0
C753 C 0.88364 0.15683 0.44666 0.0
C754 C 0.83914 0.20927 0.3859 0.0
C755 C 0.92026 0.13973 0.40869 0.0
C756 C 0.90976 0.15736 0.32218 0.0
C757 C 0.93751 0.17171 0.32221 0.0
C758 C 0.88803 0.16055 0.34494 0.0
C759 C 0.89466 0.17822 0.36808 0.0
C760 C 0.92055 0.19521 0.3657 0.0
C761 C 0.94171 0.19166 0.3428 0.0
C762 C 0.85993 0.14294 0.34595 0.0
C763 C 0.92828 0.21475 0.38941 0.0
H764 H 0.82751 0.20317 0.44366 0.0
H765 H 0.89453 0.14355 0.46198 0.0
H766 H 0.85261 0.22773 0.38497 0.0
H767 H 0.83788 0.20117 0.36337 0.0
H768 H 0.81526 0.21397 0.39339 0.0
H769 H 0.92741 0.1264 0.42662 0.0
H770 H 0.9136 0.12781 0.38938 0.0
H771 H 0.94066 0.15178 0.40239 0.0
H772 H 0.90648 0.14196 0.30618 0.0
H773 H 0.96314 0.20288 0.34261 0.0
H774 H 0.83957 0.15333 0.3551 0.0
H775 H 0.86491 0.12607 0.36039 0.0
H776 H 0.8539 0.13538 0.32383 0.0
H777 H 0.90723 0.22555 0.39617 0.0
H778 H 0.9462 0.229 0.38219 0.0
H779 H 0.93728 0.20432 0.40895 0.0
C780 C 0.85516 0.81304 0.95127 0.0
C781 C 0.86835 0.79505 0.97076 0.0
C782 C 0.86668 0.81583 0.92264 0.0
C783 C 0.89199 0.80031 0.9134 0.0
C784 C 0.90272 0.78002 0.93179 0.0
C785 C 0.89089 0.77773 0.96032 0.0
C786 C 0.85415 0.83739 0.90358 0.0
C787 C 0.92917 0.76264 0.92264 0.0
C788 C 0.92976 0.809 0.83807 0.0
C789 C 0.95387 0.82644 0.84495 0.0
C790 C 0.90868 0.80056 0.8598 0.0
C791 C 0.91223 0.8096 0.88904 0.0
C792 C 0.93635 0.82746 0.89583 0.0
C793 C 0.95665 0.83561 0.87382 0.0
C794 C 0.88326 0.78157 0.85157 0.0
C795 C 0.9411 0.83787 0.92657 0.0
H796 H 0.83759 0.82641 0.9591 0.0
H797 H 0.90063 0.76335 0.97508 0.0
H798 H 0.87009 0.85443 0.90477 0.0
H799 H 0.8528 0.83114 0.88033 0.0
H800 H 0.83074 0.84372 0.91084 0.0
H801 H 0.93065 0.74492 0.93654 0.0
H802 H 0.92658 0.75662 0.89942 0.0
H803 H 0.95141 0.77355 0.92469 0.0
H804 H 0.92786 0.80144 0.81605 0.0
H805 H 0.97493 0.84937 0.87939 0.0
H806 H 0.86095 0.787 0.86201 0.0
H807 H 0.88951 0.76186 0.85957 0.0
H808 H 0.87981 0.7805 0.82745 0.0
H809 H 0.91969 0.84766 0.93429 0.0
H810 H 0.96066 0.85203 0.92799 0.0
H811 H 0.94598 0.82156 0.94183 0.0
C812 C 0.62383 0.66317 0.44821 0.0
C813 C 0.64522 0.68199 0.45792 0.0
C814 C 0.61087 0.6643 0.42008 0.0
C815 C 0.61951 0.68476 0.40087 0.0
C816 C 0.6422 0.70319 0.40994 0.0
C817 C 0.65455 0.70177 0.43853 0.0
C818 C 0.58662 0.64424 0.41154 0.0
C819 C 0.65257 0.725 0.39004 0.0
C820 C 0.58637 0.66804 0.3266 0.0
C821 C 0.55654 0.67853 0.32957 0.0
C822 C 0.60929 0.67286 0.34803 0.0
C823 C 0.60173 0.68798 0.37302 0.0
C824 C 0.57303 0.70132 0.37388 0.0
C825 C 0.55077 0.69639 0.35211 0.0
C826 C 0.64022 0.65939 0.34552 0.0
C827 C 0.56415 0.71811 0.39968 0.0
H828 H 0.61609 0.64807 0.46314 0.0
H829 H 0.67129 0.71626 0.44579 0.0
H830 H 0.56391 0.65393 0.40802 0.0
H831 H 0.59317 0.63465 0.39068 0.0
H832 H 0.58357 0.62895 0.42853 0.0
H833 H 0.676 0.73235 0.39628 0.0
H834 H 0.65304 0.71869 0.36678 0.0
H835 H 0.63602 0.74143 0.39186 0.0
H836 H 0.59093 0.65426 0.30913 0.0
H837 H 0.52776 0.70473 0.35419 0.0
H838 H 0.6396 0.64107 0.35841 0.0
H839 H 0.65921 0.6718 0.35442 0.0
H840 H 0.64556 0.65438 0.32238 0.0
H841 H 0.55888 0.70545 0.41877 0.0
H842 H 0.54334 0.73016 0.39495 0.0
H843 H 0.58361 0.7312 0.406 0.0
C844 C 0.37823 0.66458 0.06577 0.0
C845 C 0.35668 0.68253 0.05489 0.0
C846 C 0.38803 0.66537 0.095 0.0
C847 C 0.37589 0.68457 0.11411 0.0
C848 C 0.35246 0.70164 0.10384 0.0
C849 C 0.34314 0.70046 0.07422 0.0
C850 C 0.41279 0.64647 0.10491 0.0
C851 C 0.33841 0.72207 0.12349 0.0
C852 C 0.40511 0.66752 0.1894 0.0
C853 C 0.43447 0.67937 0.18819 0.0
C854 C 0.38312 0.67197 0.16709 0.0
C855 C 0.3911 0.68832 0.14321 0.0
C856 C 0.4188 0.70328 0.14456 0.0
C857 C 0.44025 0.6985 0.16701 0.0
C858 C 0.35312 0.6567 0.16726 0.0
C859 C 0.42789 0.72158 0.12013 0.0
H860 H 0.38812 0.65024 0.05107 0.0
H861 H 0.32628 0.71428 0.06595 0.0
H862 H 0.43436 0.65731 0.11059 0.0
H863 H 0.40506 0.63595 0.12484 0.0
H864 H 0.41848 0.63187 0.08778 0.0
H865 H 0.31469 0.7274 0.116 0.0
H866 H 0.33721 0.7154 0.14658 0.0
H867 H 0.35304 0.73992 0.12282 0.0
H868 H 0.40054 0.65284 0.20592 0.0
H869 H 0.46287 0.7079 0.16636 0.0
H870 H 0.35596 0.63879 0.1539 0.0
H871 H 0.3339 0.6682 0.15756 0.0
H872 H 0.34662 0.65079 0.18986 0.0
H873 H 0.43556 0.71004 0.10089 0.0
H874 H 0.44722 0.73479 0.12673 0.0
H875 H 0.4078 0.73354 0.1132 0.0
C876 C 0.16173 0.81188 0.58211 0.0
C877 C 0.14691 0.79869 0.55896 0.0
C878 C 0.14816 0.813 0.61005 0.0
C879 C 0.11896 0.80093 0.61476 0.0
C880 C 0.10601 0.78486 0.59258 0.0
C881 C 0.12011 0.78397 0.56488 0.0
C882 C 0.16337 0.82947 0.63348 0.0
C883 C 0.07527 0.77114 0.59689 0.0
C884 C 0.07272 0.80555 0.68603 0.0
C885 C 0.05322 0.82654 0.67953 0.0
C886 C 0.09561 0.79749 0.6659 0.0
C887 C 0.09843 0.81059 0.63863 0.0
C888 C 0.07954 0.83252 0.63276 0.0
C889 C 0.05732 0.84015 0.65324 0.0
C890 C 0.11553 0.77433 0.67338 0.0
C891 C 0.0818 0.8474 0.60423 0.0
H892 H 0.18296 0.82269 0.57791 0.0
H893 H 0.10856 0.77358 0.54723 0.0
H894 H 0.15203 0.84884 0.63414 0.0
H895 H 0.16059 0.82038 0.65538 0.0
H896 H 0.18852 0.83246 0.62909 0.0
H897 H 0.07109 0.756 0.5799 0.0
H898 H 0.07426 0.76188 0.61881 0.0
H899 H 0.05621 0.78561 0.59563 0.0
H900 H 0.06911 0.7947 0.70604 0.0
H901 H 0.04247 0.85663 0.64834 0.0
H902 H 0.13914 0.77616 0.66387 0.0
H903 H 0.10459 0.75645 0.66427 0.0
H904 H 0.11766 0.77181 0.69749 0.0
H905 H 0.10596 0.85433 0.60073 0.0
H906 H 0.06612 0.86454 0.60364 0.0
H907 H 0.07562 0.83439 0.58564 0.0
C908 C 0.21121 0.22586 0.31969 0.0
C909 C 0.22856 0.24554 0.30604 0.0
C910 C 0.18598 0.21396 0.30537 0.0
C911 C 0.17791 0.22182 0.27655 0.0
C912 C 0.19654 0.24048 0.26193 0.0
C913 C 0.22154 0.25226 0.27692 0.0
C914 C 0.16678 0.19411 0.32185 0.0
C915 C 0.18916 0.24905 0.23107 0.0
C916 C 0.11591 0.17668 0.24607 0.0
C917 C 0.08924 0.18894 0.25678 0.0
C918 C 0.1453 0.18853 0.24932 0.0
C919 C 0.14773 0.2129 0.26386 0.0
C920 C 0.12036 0.22659 0.27129 0.0
C921 C 0.09144 0.21438 0.2677 0.0
C922 C 0.17381 0.17371 0.24008 0.0
C923 C 0.12166 0.25279 0.28638 0.0
H924 H 0.21632 0.22068 0.34221 0.0
H925 H 0.2352 0.26716 0.26603 0.0
H926 H 0.14328 0.20209 0.32608 0.0
H927 H 0.16382 0.17617 0.30854 0.0
H928 H 0.17745 0.18873 0.34318 0.0
H929 H 0.20937 0.25883 0.22061 0.0
H930 H 0.1819 0.23225 0.21731 0.0
H931 H 0.16958 0.26303 0.23153 0.0
H932 H 0.1142 0.15691 0.23779 0.0
H933 H 0.07071 0.22378 0.27602 0.0
H934 H 0.18363 0.16345 0.25936 0.0
H935 H 0.19197 0.18708 0.23152 0.0
H936 H 0.16816 0.15894 0.22304 0.0
H937 H 0.12983 0.25018 0.30928 0.0
H938 H 0.09856 0.26235 0.28693 0.0
H939 H 0.13835 0.26596 0.27523 0.0
C940 C 0.27682 0.26007 0.78814 0.0
C941 C 0.28299 0.24023 0.8084 0.0
C942 C 0.3011 0.27501 0.77618 0.0
C943 C 0.33202 0.27047 0.78546 0.0
C944 C 0.33843 0.2495 0.80469 0.0
C945 C 0.31382 0.23448 0.81572 0.0
C946 C 0.29352 0.29653 0.75485 0.0
C947 C 0.37101 0.24415 0.81542 0.0
C948 C 0.40502 0.30278 0.75531 0.0
C949 C 0.40957 0.32265 0.77594 0.0
C950 C 0.37852 0.2866 0.75661 0.0
C951 C 0.35675 0.29009 0.77955 0.0
C952 C 0.3605 0.31109 0.79937 0.0
C953 C 0.38662 0.32721 0.79709 0.0
C954 C 0.3749 0.2649 0.73455 0.0
C955 C 0.33808 0.3155 0.82434 0.0
H956 H 0.25295 0.2642 0.78212 0.0
H957 H 0.31857 0.21914 0.83141 0.0
H958 H 0.29542 0.31565 0.76607 0.0
H959 H 0.3103 0.29662 0.73641 0.0
H960 H 0.2696 0.29454 0.74587 0.0
H961 H 0.37241 0.22585 0.82835 0.0
H962 H 0.38726 0.24274 0.79667 0.0
H963 H 0.37904 0.26054 0.82946 0.0
H964 H 0.42291 0.29892 0.73932 0.0
H965 H 0.3898 0.34279 0.81289 0.0
H966 H 0.35009 0.26154 0.72893 0.0
H967 H 0.38422 0.2466 0.74395 0.0
H968 H 0.38791 0.2692 0.71415 0.0
H969 H 0.31398 0.3171 0.81593 0.0
H970 H 0.34366 0.33342 0.83703 0.0
H971 H 0.33874 0.29861 0.83951 0.0
C972 C 0.68245 0.23403 0.6833 0.0
C973 C 0.71388 0.23717 0.69048 0.0
C974 C 0.65979 0.2501 0.69576 0.0
C975 C 0.66876 0.26941 0.71639 0.0
C976 C 0.70023 0.27133 0.72532 0.0
C977 C 0.72257 0.25544 0.71186 0.0
C978 C 0.62661 0.24767 0.68515 0.0
C979 C 0.71057 0.29107 0.74789 0.0
C980 C 0.61894 0.32928 0.70978 0.0
C981 C 0.59568 0.3244 0.73057 0.0
C982 C 0.64395 0.31231 0.70625 0.0
C983 C 0.64619 0.29007 0.72439 0.0
C984 C 0.62438 0.28628 0.74727 0.0
C985 C 0.59906 0.30343 0.74991 0.0
C986 C 0.66648 0.31712 0.68144 0.0
C987 C 0.62674 0.2633 0.76771 0.0
H988 H 0.67581 0.2199 0.66672 0.0
H989 H 0.74689 0.25758 0.71769 0.0
H990 H 0.61044 0.24634 0.70397 0.0
H991 H 0.62031 0.26533 0.67246 0.0
H992 H 0.62304 0.23033 0.67092 0.0
H993 H 0.73384 0.28633 0.757 0.0
H994 H 0.71191 0.31063 0.73764 0.0
H995 H 0.69363 0.2922 0.76614 0.0
H996 H 0.61667 0.34573 0.69503 0.0
H997 H 0.581 0.29944 0.76576 0.0
H998 H 0.66397 0.30145 0.66479 0.0
H999 H 0.69076 0.31664 0.68957 0.0
H1000 H 0.66255 0.33616 0.67051 0.0
H1001 H 0.62064 0.24516 0.75574 0.0
H1002 H 0.61089 0.26521 0.78674 0.0
H1003 H 0.65093 0.26118 0.77584 0.0
C1004 C 0.78101 0.23671 0.20748 0.0
C1005 C 0.78543 0.26213 0.19692 0.0
C1006 C 0.80602 0.22217 0.2185 0.0
C1007 C 0.8362 0.23331 0.21898 0.0
C1008 C 0.84031 0.25966 0.21065 0.0
C1009 C 0.81494 0.27371 0.19959 0.0
C1010 C 0.80056 0.1942 0.22739 0.0
C1011 C 0.87203 0.27237 0.21092 0.0
C1012 C 0.90489 0.19547 0.25064 0.0
C1013 C 0.91662 0.18354 0.22535 0.0
C1014 C 0.87846 0.2116 0.24928 0.0
C1015 C 0.86384 0.21613 0.22187 0.0
C1016 C 0.87582 0.20432 0.19631 0.0
C1017 C 0.90184 0.18826 0.19839 0.0
C1018 C 0.86637 0.22386 0.27704 0.0
C1019 C 0.86113 0.20857 0.16654 0.0
H1020 H 0.75814 0.22782 0.20623 0.0
H1021 H 0.81873 0.29329 0.19145 0.0
H1022 H 0.80947 0.1811 0.20999 0.0
H1023 H 0.81332 0.1896 0.24788 0.0
H1024 H 0.77549 0.18988 0.23066 0.0
H1025 H 0.87054 0.2939 0.20894 0.0
H1026 H 0.88477 0.26753 0.23135 0.0
H1027 H 0.88585 0.26488 0.19224 0.0
H1028 H 0.91635 0.19235 0.27138 0.0
H1029 H 0.91054 0.17926 0.17855 0.0
H1030 H 0.84107 0.22012 0.2793 0.0
H1031 H 0.86966 0.24529 0.27601 0.0
H1032 H 0.87843 0.2164 0.29688 0.0
H1033 H 0.83649 0.20211 0.16686 0.0
H1034 H 0.8733 0.19784 0.14884 0.0
H1035 H 0.86139 0.22963 0.16104 0.0
C1036 C 0.79805 0.76378 0.68928 0.0
C1037 C 0.7784 0.74511 0.70192 0.0
C1038 C 0.82202 0.77547 0.70548 0.0
C1039 C 0.82642 0.76851 0.73526 0.0
C1040 C 0.8058 0.75055 0.74862 0.0
C1041 C 0.78206 0.73896 0.73172 0.0
C1042 C 0.84327 0.79471 0.69031 0.0
C1043 C 0.80949 0.74275 0.7803 0.0
C1044 C 0.91056 0.78075 0.75174 0.0
C1045 C 0.90948 0.80699 0.75993 0.0
C1046 C 0.8831 0.76646 0.74737 0.0
C1047 C 0.85409 0.77896 0.7511 0.0
C1048 C 0.85315 0.80425 0.76354 0.0
C1049 C 0.88104 0.81815 0.7676 0.0
C1050 C 0.88524 0.73933 0.73478 0.0
C1051 C 0.82273 0.81789 0.76892 0.0
H1052 H 0.7949 0.76905 0.66647 0.0
H1053 H 0.76704 0.72443 0.74162 0.0
H1054 H 0.84361 0.81348 0.70238 0.0
H1055 H 0.86739 0.78712 0.69012 0.0
H1056 H 0.83608 0.79855 0.66733 0.0
H1057 H 0.78773 0.73413 0.78918 0.0
H1058 H 0.82811 0.72795 0.78211 0.0
H1059 H 0.81636 0.75964 0.7941 0.0
H1060 H 0.93267 0.77227 0.74564 0.0
H1061 H 0.88032 0.83855 0.77378 0.0
H1062 H 0.88064 0.7401 0.71085 0.0
H1063 H 0.86759 0.72629 0.74473 0.0
H1064 H 0.90864 0.73077 0.73824 0.0
H1065 H 0.8139 0.82589 0.74793 0.0
H1066 H 0.82554 0.83426 0.78466 0.0
H1067 H 0.805 0.8041 0.77747 0.0
C1068 C 0.68718 0.76268 0.20041 0.0
C1069 C 0.71819 0.75731 0.20778 0.0
C1070 C 0.6626 0.7484 0.21265 0.0
C1071 C 0.66902 0.72873 0.23351 0.0
C1072 C 0.69986 0.72522 0.24353 0.0
C1073 C 0.72418 0.73922 0.23021 0.0
C1074 C 0.63002 0.75296 0.20143 0.0
C1075 C 0.70742 0.70544 0.26691 0.0
C1076 C 0.5947 0.69727 0.2616 0.0
C1077 C 0.59161 0.67642 0.24194 0.0
C1078 C 0.62142 0.71323 0.2613 0.0
C1079 C 0.64469 0.70884 0.23991 0.0
C1080 C 0.64242 0.68682 0.22131 0.0
C1081 C 0.6162 0.67074 0.22291 0.0
C1082 C 0.62361 0.73559 0.28266 0.0
C1083 C 0.66642 0.68136 0.19796 0.0
H1084 H 0.68209 0.7774 0.18411 0.0
H1085 H 0.74793 0.73495 0.23641 0.0
H1086 H 0.62189 0.73553 0.18912 0.0
H1087 H 0.61385 0.75592 0.22 0.0
H1088 H 0.62863 0.77015 0.18671 0.0
H1089 H 0.73039 0.70942 0.27719 0.0
H1090 H 0.68933 0.70529 0.28422 0.0
H1091 H 0.70809 0.6857 0.25703 0.0
H1092 H 0.57564 0.70204 0.27607 0.0
H1093 H 0.61416 0.6544 0.20792 0.0
H1094 H 0.6127 0.75308 0.27285 0.0
H1095 H 0.64813 0.74042 0.28808 0.0
H1096 H 0.611 0.73099 0.30327 0.0
H1097 H 0.66668 0.69751 0.18179 0.0
H1098 H 0.66174 0.66286 0.18605 0.0
H1099 H 0.68994 0.68026 0.20781 0.0
C1100 C 0.31384 0.76837 0.31911 0.0
C1101 C 0.28213 0.76462 0.31308 0.0
C1102 C 0.33653 0.75294 0.30573 0.0
C1103 C 0.32746 0.7338 0.28501 0.0
C1104 C 0.29599 0.73214 0.2761 0.0
C1105 C 0.27355 0.74724 0.2906 0.0
C1106 C 0.36989 0.75563 0.31573 0.0
C1107 C 0.28569 0.71314 0.25273 0.0
C1108 C 0.39833 0.69876 0.25545 0.0
C1109 C 0.40024 0.6779 0.27516 0.0
C1110 C 0.37281 0.71583 0.25605 0.0
C1111 C 0.34961 0.71255 0.27778 0.0
C1112 C 0.35046 0.69043 0.29627 0.0
C1113 C 0.37545 0.67322 0.29436 0.0
C1114 C 0.37199 0.73821 0.23469 0.0
C1115 C 0.32649 0.68609 0.31998 0.0
H1116 H 0.32091 0.7826 0.3354 0.0
H1117 H 0.24921 0.74432 0.28535 0.0
H1118 H 0.37707 0.73763 0.32736 0.0
H1119 H 0.38544 0.75809 0.2966 0.0
H1120 H 0.37338 0.77247 0.33073 0.0
H1121 H 0.26304 0.71886 0.24299 0.0
H1122 H 0.30328 0.71178 0.23504 0.0
H1123 H 0.28294 0.69347 0.26247 0.0
H1124 H 0.41753 0.70276 0.24083 0.0
H1125 H 0.37653 0.65687 0.30936 0.0
H1126 H 0.38517 0.75494 0.24394 0.0
H1127 H 0.34785 0.74465 0.23019 0.0
H1128 H 0.38316 0.73271 0.21365 0.0
H1129 H 0.32783 0.70217 0.33623 0.0
H1130 H 0.32988 0.66735 0.33171 0.0
H1131 H 0.30275 0.68616 0.3105 0.0
C1132 C 0.21014 0.73425 0.78684 0.0
C1133 C 0.21193 0.73558 0.81758 0.0
C1134 C 0.18761 0.74845 0.77123 0.0
C1135 C 0.1663 0.76413 0.78678 0.0
C1136 C 0.16782 0.76531 0.81777 0.0
C1137 C 0.1907 0.75125 0.83269 0.0
C1138 C 0.18683 0.74693 0.7382 0.0
C1139 C 0.14544 0.78173 0.83531 0.0
C1140 C 0.12372 0.82391 0.76217 0.0
C1141 C 0.09311 0.81462 0.76221 0.0
C1142 C 0.1487 0.80684 0.76625 0.0
C1143 C 0.14263 0.78007 0.77127 0.0
C1144 C 0.11199 0.77027 0.76785 0.0
C1145 C 0.08747 0.78778 0.76337 0.0
C1146 C 0.18108 0.81803 0.76894 0.0
C1147 C 0.10445 0.74187 0.77274 0.0
H1148 H 0.22623 0.722 0.77495 0.0
H1149 H 0.19226 0.75292 0.85632 0.0
H1150 H 0.16329 0.74123 0.73051 0.0
H1151 H 0.19195 0.76641 0.72879 0.0
H1152 H 0.20395 0.73279 0.72946 0.0
H1153 H 0.14901 0.77969 0.85932 0.0
H1154 H 0.14833 0.80258 0.82944 0.0
H1155 H 0.12113 0.77609 0.83007 0.0
H1156 H 0.12793 0.84475 0.76146 0.0
H1157 H 0.06367 0.78071 0.76373 0.0
H1158 H 0.19844 0.80485 0.75893 0.0
H1159 H 0.18709 0.82025 0.79248 0.0
H1160 H 0.18288 0.83748 0.75838 0.0
H1161 H 0.12264 0.72916 0.76331 0.0
H1162 H 0.08162 0.73647 0.76301 0.0
H1163 H 0.10347 0.73801 0.79665 0.0
loop_
_geom_bond_atom_site_label_1
_geom_bond_atom_site_label_2
_geom_bond_distance
_geom_bond_site_symmetry_2
_ccdc_geom_bond_type
C0 C1 1.386 . S
C0 C2 1.397 . S
C0 H24 0.931 . S
C1 C0 1.386 . S
C1 C5 1.397 . S
C2 C0 1.397 . S
C2 C3 1.384 . S
C2 H25 0.930 . S
C3 C2 1.384 . S
C3 C4 1.377 . S
C3 C6 1.481 . S
C4 C3 1.377 . S
C4 C5 1.389 . S
C4 H26 0.929 . S
C5 C1 1.397 . S
C5 C4 1.389 . S
C5 H27 0.931 . S
C6 C3 1.481 . S
C6 C7 1.387 . S
C6 C11 1.390 . S
C7 C6 1.387 . S
C7 C8 1.401 . S
C7 H28 0.930 . S
C8 C7 1.401 . S
C8 C9 1.376 . S
C8 C17 1.511 . S
C9 C8 1.376 . S
C9 C10 1.392 . S
C9 H30 0.931 . S
C10 C9 1.392 . S
C10 C11 1.361 . S
C10 C12 1.500 . S
C11 C6 1.390 . S
C11 C10 1.361 . S
C11 H29 0.931 . S
C12 C10 1.500 . S
C12 C13 1.371 . S
C12 C14 1.365 . S
C13 C12 1.371 . S
C13 C23 1.386 . S
C13 H31 0.931 . S
C14 C12 1.365 . S
C14 C15 1.409 . S
C14 H32 0.929 . S
C15 C14 1.409 . S
C15 C16 1.380 . S
C15 H33 0.930 . S
C16 C15 1.380 . S
C16 C23 1.357 . S
C17 C8 1.511 . S
C17 C18 1.341 . S
C17 C19 1.371 . S
C18 C17 1.341 . S
C18 C22 1.394 . S
C18 H34 0.930 . S
C19 C17 1.371 . S
C19 C20 1.392 . S
C19 H35 0.931 . S
C20 C19 1.392 . S
C20 C21 1.331 . S
C20 H38 0.932 . S
C21 C20 1.331 . S
C21 C22 1.336 . S
C22 C18 1.394 . S
C22 C21 1.336 . S
C22 H37 0.929 . S
C23 C13 1.386 . S
C23 C16 1.357 . S
C23 H36 0.928 . S
H24 C0 0.931 . S
H25 C2 0.930 . S
H26 C4 0.929 . S
H27 C5 0.931 . S
H28 C7 0.930 . S
H29 C11 0.931 . S
H30 C9 0.931 . S
H31 C13 0.931 . S
H32 C14 0.929 . S
H33 C15 0.930 . S
H34 C18 0.930 . S
H35 C19 0.931 . S
H36 C23 0.928 . S
H37 C22 0.929 . S
H38 C20 0.932 . S
C39 C40 1.386 . S
C39 C41 1.397 . S
C39 H63 0.931 . S
C40 C39 1.386 . S
C40 C44 1.397 . S
C41 C39 1.397 . S
C41 C42 1.384 . S
C41 H64 0.930 . S
C42 C41 1.384 . S
C42 C43 1.377 . S
C42 C45 1.481 . S
C43 C42 1.377 . S
C43 C44 1.389 . S
C43 H65 0.929 . S
C44 C40 1.397 . S
C44 C43 1.389 . S
C44 H66 0.931 . S
C45 C42 1.481 . S
C45 C46 1.387 . S
C45 C50 1.390 . S
C46 C45 1.387 . S
C46 C47 1.401 . S
C46 H67 0.930 . S
C47 C46 1.401 . S
C47 C48 1.376 . S
C47 C56 1.511 . S
C48 C47 1.376 . S
C48 C49 1.392 . S
C48 H69 0.931 . S
C49 C48 1.392 . S
C49 C50 1.361 . S
C49 C51 1.500 . S
C50 C45 1.390 . S
C50 C49 1.361 . S
C50 H68 0.931 . S
C51 C49 1.500 . S
C51 C52 1.371 . S
C51 C53 1.365 . S
C52 C51 1.371 . S
C52 C62 1.386 . S
C52 H70 0.931 . S
C53 C51 1.365 . S
C53 C54 1.409 . S
C53 H71 0.929 . S
C54 C53 1.409 . S
C54 C55 1.380 1_556 S
C54 H72 0.930 . S
C55 C54 1.380 1_554 S
C55 C62 1.357 1_554 S
C56 C47 1.511 . S
C56 C57 1.341 . S
C56 C58 1.371 . S
C57 C56 1.341 . S
C57 C61 1.394 . S
C57 H73 0.930 . S
C58 C56 1.371 . S
C58 C59 1.392 . S
C58 H74 0.931 . S
C59 C58 1.392 . S
C59 C60 1.331 . S
C59 H77 0.932 . S
C60 C59 1.331 . S
C60 C61 1.336 . S
C61 C57 1.394 . S
C61 C60 1.336 . S
C61 H76 0.929 . S
C62 C52 1.386 . S
C62 C55 1.357 1_556 S
C62 H75 0.928 1_556 S
H63 C39 0.931 . S
H64 C41 0.930 . S
H65 C43 0.929 . S
H66 C44 0.931 . S
H67 C46 0.930 . S
H68 C50 0.931 . S
H69 C48 0.931 . S
H70 C52 0.931 . S
H71 C53 0.929 . S
H72 C54 0.930 . S
H73 C57 0.930 . S
H74 C58 0.931 . S
H75 C62 0.928 1_554 S
H76 C61 0.929 . S
H77 C59 0.932 . S
C78 C79 1.386 . S
C78 C80 1.397 . S
C78 H102 0.931 . S
C79 C78 1.386 . S
C79 C83 1.397 . S
C80 C78 1.397 . S
C80 C81 1.384 . S
C80 H103 0.930 . S
C81 C80 1.384 . S
C81 C82 1.377 . S
C81 C84 1.481 . S
C82 C81 1.377 . S
C82 C83 1.389 . S
C82 H104 0.929 . S
C83 C79 1.397 . S
C83 C82 1.389 . S
C83 H105 0.931 . S
C84 C81 1.481 . S
C84 C85 1.387 . S
C84 C89 1.390 . S
C85 C84 1.387 . S
C85 C86 1.401 . S
C85 H106 0.930 . S
C86 C85 1.401 . S
C86 C87 1.376 . S
C86 C95 1.511 . S
C87 C86 1.376 . S
C87 C88 1.392 . S
C87 H108 0.931 . S
C88 C87 1.392 . S
C88 C89 1.361 . S
C88 C90 1.500 . S
C89 C84 1.390 . S
C89 C88 1.361 . S
C89 H107 0.931 . S
C90 C88 1.500 . S
C90 C91 1.371 . S
C90 C92 1.365 . S
C91 C90 1.371 . S
C91 C101 1.386 . S
C91 H109 0.931 . S
C92 C90 1.365 . S
C92 C93 1.409 . S
C92 H110 0.929 . S
C93 C92 1.409 . S
C93 C94 1.380 . S
C93 H111 0.930 . S
C94 C93 1.380 . S
C94 C101 1.357 . S
C95 C86 1.511 . S
C95 C96 1.341 . S
C95 C97 1.371 . S
C96 C95 1.341 . S
C96 C100 1.394 . S
C96 H112 0.930 . S
C97 C95 1.371 . S
C97 C98 1.392 . S
C97 H113 0.931 . S
C98 C97 1.392 . S
C98 C99 1.331 . S
C98 H116 0.932 . S
C99 C98 1.331 . S
C99 C100 1.336 . S
C100 C96 1.394 . S
C100 C99 1.336 . S
C100 H115 0.929 . S
C101 C91 1.386 . S
C101 C94 1.357 . S
C101 H114 0.928 . S
H102 C78 0.931 . S
H103 C80 0.930 . S
H104 C82 0.929 . S
H105 C83 0.931 . S
H106 C85 0.930 . S
H107 C89 0.931 . S
H108 C87 0.931 . S
H109 C91 0.931 . S
H110 C92 0.929 . S
H111 C93 0.930 . S
H112 C96 0.930 . S
H113 C97 0.931 . S
H114 C101 0.928 . S
H115 C100 0.929 . S
H116 C98 0.932 . S
C117 C118 1.386 . S
C117 C119 1.397 . S
C117 H141 0.931 . S
C118 C117 1.386 . S
C118 C122 1.397 . S
C119 C117 1.397 . S
C119 C120 1.384 . S
C119 H142 0.930 . S
C120 C119 1.384 . S
C120 C121 1.377 . S
C120 C123 1.481 . S
C121 C120 1.377 . S
C121 C122 1.389 . S
C121 H143 0.929 . S
C122 C118 1.397 . S
C122 C121 1.389 . S
C122 H144 0.931 . S
C123 C120 1.481 . S
C123 C124 1.387 . S
C123 C128 1.390 . S
C124 C123 1.387 . S
C124 C125 1.401 . S
C124 H145 0.930 . S
C125 C124 1.401 . S
C125 C126 1.376 . S
C125 C134 1.511 . S
C126 C125 1.376 . S
C126 C127 1.392 . S
C126 H147 0.931 . S
C127 C126 1.392 . S
C127 C128 1.361 . S
C127 C129 1.500 . S
C128 C123 1.390 . S
C128 C127 1.361 . S
C128 H146 0.931 . S
C129 C127 1.500 . S
C129 C130 1.371 . S
C129 C131 1.365 . S
C130 C129 1.371 . S
C130 C140 1.386 . S
C130 H148 0.931 . S
C131 C129 1.365 . S
C131 C132 1.409 . S
C131 H149 0.929 . S
C132 C131 1.409 . S
C132 C133 1.380 1_554 S
C132 H150 0.930 . S
C133 C132 1.380 1_556 S
C133 C140 1.357 1_556 S
C134 C125 1.511 . S
C134 C135 1.341 . S
C134 C136 1.371 . S
C135 C134 1.341 . S
C135 C139 1.394 . S
C135 H151 0.930 . S
C136 C134 1.371 . S
C136 C137 1.392 . S
C136 H152 0.931 . S
C137 C136 1.392 . S
C137 C138 1.331 . S
C137 H155 0.932 . S
C138 C137 1.331 . S
C138 C139 1.336 . S
C139 C135 1.394 . S
C139 C138 1.336 . S
C139 H154 0.929 . S
C140 C130 1.386 . S
C140 C133 1.357 1_554 S
C140 H153 0.928 1_554 S
H141 C117 0.931 . S
H142 C119 0.930 . S
H143 C121 0.929 . S
H144 C122 0.931 . S
H145 C124 0.930 . S
H146 C128 0.931 . S
H147 C126 0.931 . S
H148 C130 0.931 . S
H149 C131 0.929 . S
H150 C132 0.930 . S
H151 C135 0.930 . S
H152 C136 0.931 . S
H153 C140 0.928 1_556 S
H154 C139 0.929 . S
H155 C137 0.932 . S
C156 C157 1.386 . S
C156 C158 1.397 . S
C156 H180 0.931 . S
C157 C156 1.386 . S
C157 C161 1.397 . S
C158 C156 1.397 . S
C158 C159 1.384 . S
C158 H181 0.930 . S
C159 C158 1.384 . S
C159 C160 1.377 . S
C159 C162 1.481 . S
C160 C159 1.377 . S
C160 C161 1.389 . S
C160 H182 0.929 . S
C161 C157 1.397 . S
C161 C160 1.389 . S
C161 H183 0.931 . S
C162 C159 1.481 . S
C162 C163 1.387 . S
C162 C167 1.390 . S
C163 C162 1.387 . S
C163 C164 1.401 . S
C163 H184 0.930 . S
C164 C163 1.401 . S
C164 C165 1.376 . S
C164 C173 1.511 . S
C165 C164 1.376 . S
C165 C166 1.392 . S
C165 H186 0.931 . S
C166 C165 1.392 . S
C166 C167 1.361 . S
C166 C168 1.500 . S
C167 C162 1.390 . S
C167 C166 1.361 . S
C167 H185 0.931 . S
C168 C166 1.500 . S
C168 C169 1.371 . S
C168 C170 1.365 . S
C169 C168 1.371 . S
C169 C179 1.386 . S
C169 H187 0.931 . S
C170 C168 1.365 . S
C170 C171 1.409 . S
C170 H188 0.929 . S
C171 C170 1.409 . S
C171 C172 1.380 . S
C171 H189 0.930 . S
C172 C171 1.380 . S
C172 C179 1.357 . S
C173 C164 1.511 . S
C173 C174 1.341 . S
C173 C175 1.371 . S
C174 C173 1.341 . S
C174 C178 1.394 . S
C174 H190 0.930 . S
C175 C173 1.371 . S
C175 C176 1.392 . S
C175 H191 0.931 . S
C176 C175 1.392 . S
C176 C177 1.331 . S
C176 H194 0.932 . S
C177 C176 1.331 . S
C177 C178 1.336 . S
C178 C174 1.394 . S
C178 C177 1.336 . S
C178 H193 0.929 . S
C179 C169 1.386 . S
C179 C172 1.357 . S
C179 H192 0.928 . S
H180 C156 0.931 . S
H181 C158 0.930 . S
H182 C160 0.929 . S
H183 C161 0.931 . S
H184 C163 0.930 . S
H185 C167 0.931 . S
H186 C165 0.931 . S
H187 C169 0.931 . S
H188 C170 0.929 . S
H189 C171 0.930 . S
H190 C174 0.930 . S
H191 C175 0.931 . S
H192 C179 0.928 . S
H193 C178 0.929 . S
H194 C176 0.932 . S
C195 C196 1.386 1_554 S
C195 C197 1.397 . S
C195 H219 0.931 1_554 S
C196 C195 1.386 1_556 S
C196 C200 1.397 1_556 S
C197 C195 1.397 . S
C197 C198 1.384 . S
C197 H220 0.930 . S
C198 C197 1.384 . S
C198 C199 1.377 . S
C198 C201 1.481 . S
C199 C198 1.377 . S
C199 C200 1.389 . S
C199 H221 0.929 . S
C200 C196 1.397 1_554 S
C200 C199 1.389 . S
C200 H222 0.931 . S
C201 C198 1.481 . S
C201 C202 1.387 . S
C201 C206 1.390 . S
C202 C201 1.387 . S
C202 C203 1.401 . S
C202 H223 0.930 . S
C203 C202 1.401 . S
C203 C204 1.376 . S
C203 C212 1.511 . S
C204 C203 1.376 . S
C204 C205 1.392 . S
C204 H225 0.931 . S
C205 C204 1.392 . S
C205 C206 1.361 . S
C205 C207 1.500 . S
C206 C201 1.390 . S
C206 C205 1.361 . S
C206 H224 0.931 . S
C207 C205 1.500 . S
C207 C208 1.371 . S
C207 C209 1.365 . S
C208 C207 1.371 . S
C208 C218 1.386 . S
C208 H226 0.931 . S
C209 C207 1.365 . S
C209 C210 1.409 . S
C209 H227 0.929 . S
C210 C209 1.409 . S
C210 C211 1.380 . S
C210 H228 0.930 . S
C211 C210 1.380 . S
C211 C218 1.357 . S
C212 C203 1.511 . S
C212 C213 1.341 . S
C212 C214 1.371 . S
C213 C212 1.341 . S
C213 C217 1.394 . S
C213 H229 0.930 . S
C214 C212 1.371 . S
C214 C215 1.392 . S
C214 H230 0.931 . S
C215 C214 1.392 . S
C215 C216 1.331 . S
C215 H233 0.932 . S
C216 C215 1.331 . S
C216 C217 1.336 . S
C217 C213 1.394 . S
C217 C216 1.336 . S
C217 H232 0.929 . S
C218 C208 1.386 . S
C218 C211 1.357 . S
C218 H231 0.928 . S
H219 C195 0.931 1_556 S
H220 C197 0.930 . S
H221 C199 0.929 . S
H222 C200 0.931 . S
H223 C202 0.930 . S
H224 C206 0.931 . S
H225 C204 0.931 . S
H226 C208 0.931 . S
H227 C209 0.929 . S
H228 C210 0.930 . S
H229 C213 0.930 . S
H230 C214 0.931 . S
H231 C218 0.928 . S
H232 C217 0.929 . S
H233 C215 0.932 . S
C234 C235 1.386 . S
C234 C236 1.397 . S
C234 H258 0.931 . S
C235 C234 1.386 . S
C235 C239 1.397 . S
C236 C234 1.397 . S
C236 C237 1.384 . S
C236 H259 0.930 . S
C237 C236 1.384 . S
C237 C238 1.377 . S
C237 C240 1.481 . S
C238 C237 1.377 . S
C238 C239 1.389 . S
C238 H260 0.929 . S
C239 C235 1.397 . S
C239 C238 1.389 . S
C239 H261 0.931 . S
C240 C237 1.481 . S
C240 C241 1.387 . S
C240 C245 1.390 . S
C241 C240 1.387 . S
C241 C242 1.401 . S
C241 H262 0.930 . S
C242 C241 1.401 . S
C242 C243 1.376 . S
C242 C251 1.511 . S
C243 C242 1.376 . S
C243 C244 1.392 . S
C243 H264 0.931 . S
C244 C243 1.392 . S
C244 C245 1.361 . S
C244 C246 1.500 . S
C245 C240 1.390 . S
C245 C244 1.361 . S
C245 H263 0.931 . S
C246 C244 1.500 . S
C246 C247 1.371 . S
C246 C248 1.365 . S
C247 C246 1.371 . S
C247 C257 1.386 . S
C247 H265 0.931 . S
C248 C246 1.365 . S
C248 C249 1.409 . S
C248 H266 0.929 . S
C249 C248 1.409 . S
C249 C250 1.380 . S
C249 H267 0.930 . S
C250 C249 1.380 . S
C250 C257 1.357 . S
C251 C242 1.511 . S
C251 C252 1.341 . S
C251 C253 1.371 . S
C252 C251 1.341 . S
C252 C256 1.394 . S
C252 H268 0.930 . S
C253 C251 1.371 . S
C253 C254 1.392 . S
C253 H269 0.931 . S
C254 C253 1.392 . S
C254 C255 1.331 . S
C254 H272 0.932 . S
C255 C254 1.331 . S
C255 C256 1.336 . S
C256 C252 1.394 . S
C256 C255 1.336 . S
C256 H271 0.929 . S
C257 C247 1.386 . S
C257 C250 1.357 . S
C257 H270 0.928 . S
H258 C234 0.931 . S
H259 C236 0.930 . S
H260 C238 0.929 . S
H261 C239 0.931 . S
H262 C241 0.930 . S
H263 C245 0.931 . S
H264 C243 0.931 . S
H265 C247 0.931 . S
H266 C248 0.929 . S
H267 C249 0.930 . S
H268 C252 0.930 . S
H269 C253 0.931 . S
H270 C257 0.928 . S
H271 C256 0.929 . S
H272 C254 0.932 . S
C273 C274 1.386 1_556 S
C273 C275 1.397 . S
C273 H297 0.931 1_556 S
C274 C273 1.386 1_554 S
C274 C278 1.397 1_554 S
C275 C273 1.397 . S
C275 C276 1.384 . S
C275 H298 0.930 . S
C276 C275 1.384 . S
C276 C277 1.377 . S
C276 C279 1.481 . S
C277 C276 1.377 . S
C277 C278 1.389 . S
C277 H299 0.929 . S
C278 C274 1.397 1_556 S
C278 C277 1.389 . S
C278 H300 0.931 . S
C279 C276 1.481 . S
C279 C280 1.387 . S
C279 C284 1.390 . S
C280 C279 1.387 . S
C280 C281 1.401 . S
C280 H301 0.930 . S
C281 C280 1.401 . S
C281 C282 1.376 . S
C281 C290 1.511 . S
C282 C281 1.376 . S
C282 C283 1.392 . S
C282 H303 0.931 . S
C283 C282 1.392 . S
C283 C284 1.361 . S
C283 C285 1.500 . S
C284 C279 1.390 . S
C284 C283 1.361 . S
C284 H302 0.931 . S
C285 C283 1.500 . S
C285 C286 1.371 . S
C285 C287 1.365 . S
C286 C285 1.371 . S
C286 C296 1.386 . S
C286 H304 0.931 . S
C287 C285 1.365 . S
C287 C288 1.409 . S
C287 H305 0.929 . S
C288 C287 1.409 . S
C288 C289 1.380 . S
C288 H306 0.930 . S
C289 C288 1.380 . S
C289 C296 1.357 . S
C290 C281 1.511 . S
C290 C291 1.341 . S
C290 C292 1.371 . S
C291 C290 1.341 . S
C291 C295 1.394 . S
C291 H307 0.930 . S
C292 C290 1.371 . S
C292 C293 1.392 . S
C292 H308 0.931 . S
C293 C292 1.392 . S
C293 C294 1.331 . S
C293 H311 0.932 . S
C294 C293 1.331 . S
C294 C295 1.336 . S
C295 C291 1.394 . S
C295 C294 1.336 . S
C295 H310 0.929 . S
C296 C286 1.386 . S
C296 C289 1.357 . S
C296 H309 0.928 . S
H297 C273 0.931 1_554 S
H298 C275 0.930 . S
H299 C277 0.929 . S
H300 C278 0.931 . S
H301 C280 0.930 . S
H302 C284 0.931 . S
H303 C282 0.931 . S
H304 C286 0.931 . S
H305 C287 0.929 . S
H306 C288 0.930 . S
H307 C291 0.930 . S
H308 C292 0.931 . S
H309 C296 0.928 . S
H310 C295 0.929 . S
H311 C293 0.932 . S
Zn312 O318 1.920 1_455 S
Zn312 O324 1.898 . S
Zn312 O327 1.905 . S
Zn313 O321 1.905 1_655 S
Zn313 O322 1.898 . S
Zn313 O330 1.920 . S
Zn314 O317 2.068 1_455 S
Zn314 O320 2.127 . S
Zn314 O323 2.102 1_455 S
Zn314 O325 2.135 . S
Zn314 O326 2.131 . S
Zn314 O329 2.065 1_455 S
C315 O320 1.166 . S
C315 O321 1.182 . S
C316 O322 1.167 . S
C316 O323 1.299 . S
O317 Zn314 2.068 1_655 S
O317 C331 1.305 . S
O318 Zn312 1.920 1_655 S
O318 C331 1.234 . S
C319 O324 1.167 . S
C319 O325 1.299 . S
O320 Zn314 2.127 . S
O320 C315 1.166 . S
O321 Zn313 1.905 1_455 S
O321 C315 1.182 . S
O322 Zn313 1.898 . S
O322 C316 1.167 . S
O323 Zn314 2.102 1_655 S
O323 C316 1.299 . S
O324 Zn312 1.898 . S
O324 C319 1.167 . S
O325 Zn314 2.135 . S
O325 C319 1.299 . S
O326 Zn314 2.131 . S
O326 C328 1.166 . S
O327 Zn312 1.905 . S
O327 C328 1.182 . S
C328 O326 1.166 . S
C328 O327 1.182 . S
O329 Zn314 2.065 1_655 S
O329 C332 1.305 . S
O330 Zn313 1.920 . S
O330 C332 1.234 . S
C331 O317 1.305 . S
C331 O318 1.234 . S
C332 O329 1.305 . S
C332 O330 1.234 . S
Zn333 O339 1.920 . S
Zn333 O345 1.898 . S
Zn333 O348 1.905 . S
Zn334 O342 1.905 . S
Zn334 O343 1.898 . S
Zn334 O351 1.920 . S
Zn335 O338 2.080 . S
Zn335 O341 2.114 . S
Zn335 O344 2.120 . S
Zn335 O346 2.120 . S
Zn335 O347 2.114 . S
Zn335 O350 2.080 . S
C336 O341 1.166 . S
C336 O342 1.182 . S
C337 O343 1.167 . S
C337 O344 1.299 . S
O338 Zn335 2.080 . S
O338 C352 1.305 . S
O339 Zn333 1.920 . S
O339 C352 1.234 . S
C340 O345 1.167 . S
C340 O346 1.299 . S
O341 Zn335 2.114 . S
O341 C336 1.166 . S
O342 Zn334 1.905 . S
O342 C336 1.182 . S
O343 Zn334 1.898 . S
O343 C337 1.167 . S
O344 Zn335 2.120 . S
O344 C337 1.299 . S
O345 Zn333 1.898 . S
O345 C340 1.167 . S
O346 Zn335 2.120 . S
O346 C340 1.299 . S
O347 Zn335 2.114 . S
O347 C349 1.166 . S
O348 Zn333 1.905 . S
O348 C349 1.182 . S
C349 O347 1.166 . S
C349 O348 1.182 . S
O350 Zn335 2.080 . S
O350 C353 1.305 . S
O351 Zn334 1.920 . S
O351 C353 1.234 . S
C352 O338 1.305 . S
C352 O339 1.234 . S
C353 O350 1.305 . S
C353 O351 1.234 . S
Zn354 O360 1.920 . S
Zn354 O366 1.898 . S
Zn354 O369 1.905 1_455 S
Zn355 O363 1.905 . S
Zn355 O364 1.898 . S
Zn355 O372 1.920 1_655 S
Zn356 O359 2.082 . S
Zn356 O362 2.112 1_455 S
Zn356 O365 2.119 1_455 S
Zn356 O367 2.121 . S
Zn356 O368 2.113 1_455 S
Zn356 O371 2.081 . S
C357 O362 1.166 . S
C357 O363 1.182 . S
C358 O364 1.167 . S
C358 O365 1.299 . S
O359 Zn356 2.082 . S
O359 C373 1.305 . S
O360 Zn354 1.920 . S
O360 C373 1.234 . S
C361 O366 1.167 . S
C361 O367 1.299 . S
O362 Zn356 2.112 1_655 S
O362 C357 1.166 . S
O363 Zn355 1.905 . S
O363 C357 1.182 . S
O364 Zn355 1.898 . S
O364 C358 1.167 . S
O365 Zn356 2.119 1_655 S
O365 C358 1.299 . S
O366 Zn354 1.898 . S
O366 C361 1.167 . S
O367 Zn356 2.121 . S
O367 C361 1.299 . S
O368 Zn356 2.113 1_655 S
O368 C370 1.166 . S
O369 Zn354 1.905 1_655 S
O369 C370 1.182 . S
C370 O368 1.166 . S
C370 O369 1.182 . S
O371 Zn356 2.081 . S
O371 C374 1.305 . S
O372 Zn355 1.920 1_455 S
O372 C374 1.234 . S
C373 O359 1.305 . S
C373 O360 1.234 . S
C374 O371 1.305 . S
C374 O372 1.234 . S
Zn375 O381 1.920 . S
Zn375 O387 1.898 . S
Zn375 O390 1.905 . S
Zn376 O384 1.905 . S
Zn376 O385 1.898 . S
Zn376 O393 1.920 . S
Zn377 O380 2.080 . S
Zn377 O383 2.114 . S
Zn377 O386 2.120 . S
Zn377 O388 2.120 . S
Zn377 O389 2.114 . S
Zn377 O392 2.080 . S
C378 O383 1.166 . S
C378 O384 1.182 . S
C379 O385 1.167 . S
C379 O386 1.299 . S
O380 Zn377 2.080 . S
O380 C394 1.305 . S
O381 Zn375 1.920 . S
O381 C394 1.234 . S
C382 O387 1.167 . S
C382 O388 1.299 . S
O383 Zn377 2.114 . S
O383 C378 1.166 . S
O384 Zn376 1.905 . S
O384 C378 1.182 . S
O385 Zn376 1.898 . S
O385 C379 1.167 . S
O386 Zn377 2.120 . S
O386 C379 1.299 . S
O387 Zn375 1.898 . S
O387 C382 1.167 . S
O388 Zn377 2.120 . S
O388 C382 1.299 . S
O389 Zn377 2.114 . S
O389 C391 1.166 . S
O390 Zn375 1.905 . S
O390 C391 1.182 . S
C391 O389 1.166 . S
C391 O390 1.182 . S
O392 Zn377 2.080 . S
O392 C395 1.305 . S
O393 Zn376 1.920 . S
O393 C395 1.234 . S
C394 O380 1.305 . S
C394 O381 1.234 . S
C395 O392 1.305 . S
C395 O393 1.234 . S
C396 C397 1.391 . S
C396 C398 1.394 . S
C396 H412 0.931 . S
C397 C396 1.391 . S
C397 C401 1.376 . S
C398 C396 1.394 . S
C398 C399 1.369 1_565 S
C398 C402 1.519 1_565 S
C399 C398 1.369 1_545 S
C399 C400 1.410 1_545 S
C399 C407 1.503 . S
C400 C399 1.410 1_565 S
C400 C401 1.392 . S
C400 C403 1.511 1_565 S
C401 C397 1.376 . S
C401 C400 1.392 . S
C401 H413 0.929 . S
C402 C398 1.519 1_545 S
C402 H414 0.977 . S
C402 H415 0.982 . S
C402 H416 0.937 1_545 S
C403 C400 1.511 1_545 S
C403 H417 0.959 1_545 S
C403 H418 0.961 . S
C403 H419 0.961 1_545 S
C404 C405 1.370 . S
C404 C406 1.363 . S
C404 H420 0.931 . S
C405 C404 1.370 . S
C405 C409 1.408 . S
C406 C404 1.363 . S
C406 C407 1.370 . S
C406 C410 1.524 . S
C407 C399 1.503 . S
C407 C406 1.370 . S
C407 C408 1.403 . S
C408 C407 1.403 . S
C408 C409 1.404 . S
C408 C411 1.539 . S
C409 C405 1.408 . S
C409 C408 1.404 . S
C409 H421 0.930 . S
C410 C406 1.524 . S
C410 H422 0.956 . S
C410 H423 0.961 . S
C410 H424 0.961 . S
C411 C408 1.539 . S
C411 H425 0.963 . S
C411 H426 0.961 1_455 S
C411 H427 0.960 1_545 S
H412 C396 0.931 . S
H413 C401 0.929 . S
H414 C402 0.977 . S
H415 C402 0.982 . S
H416 C402 0.937 1_565 S
H417 C403 0.959 1_565 S
H418 C403 0.961 . S
H419 C403 0.961 1_565 S
H420 C404 0.931 . S
H421 C409 0.930 . S
H422 C410 0.956 . S
H423 C410 0.961 . S
H424 C410 0.961 . S
H425 C411 0.963 . S
H426 C411 0.961 1_655 S
H427 C411 0.960 1_565 S
C428 C429 1.391 . S
C428 C430 1.394 . S
C428 H444 0.931 . S
C429 C428 1.391 . S
C429 C433 1.376 . S
C430 C428 1.394 . S
C430 C431 1.369 . S
C430 C434 1.531 . S
C431 C430 1.369 . S
C431 C432 1.410 . S
C431 C439 1.503 . S
C432 C431 1.410 . S
C432 C433 1.392 . S
C432 C435 1.511 . S
C433 C429 1.376 . S
C433 C432 1.392 . S
C433 H445 0.929 . S
C434 C430 1.531 . S
C434 H446 0.960 . S
C434 H447 0.962 . S
C434 H448 0.960 . S
C435 C432 1.511 . S
C435 H449 0.961 . S
C435 H450 0.961 . S
C435 H451 0.961 . S
C436 C437 1.370 . S
C436 C438 1.363 . S
C436 H452 0.931 . S
C437 C436 1.370 . S
C437 C441 1.408 . S
C438 C436 1.363 . S
C438 C439 1.370 . S
C438 C442 1.524 . S
C439 C431 1.503 . S
C439 C438 1.370 . S
C439 C440 1.403 . S
C440 C439 1.403 . S
C440 C441 1.404 . S
C440 C443 1.539 . S
C441 C437 1.408 . S
C441 C440 1.404 . S
C441 H453 0.930 . S
C442 C438 1.524 . S
C442 H454 0.956 . S
C442 H455 0.961 . S
C442 H456 0.961 . S
C443 C440 1.539 . S
C443 H457 0.958 . S
C443 H458 0.961 . S
C443 H459 0.960 . S
H444 C428 0.931 . S
H445 C433 0.929 . S
H446 C434 0.960 . S
H447 C434 0.962 . S
H448 C434 0.960 . S
H449 C435 0.961 . S
H450 C435 0.961 . S
H451 C435 0.961 . S
H452 C436 0.931 . S
H453 C441 0.930 . S
H454 C442 0.956 . S
H455 C442 0.961 . S
H456 C442 0.961 . S
H457 C443 0.958 . S
H458 C443 0.961 . S
H459 C443 0.960 . S
C460 C461 1.391 . S
C460 C462 1.394 . S
C460 H476 0.931 . S
C461 C460 1.391 . S
C461 C465 1.376 . S
C462 C460 1.394 . S
C462 C463 1.369 . S
C462 C466 1.531 . S
C463 C462 1.369 . S
C463 C464 1.410 . S
C463 C471 1.503 . S
C464 C463 1.410 . S
C464 C465 1.392 . S
C464 C467 1.511 . S
C465 C461 1.376 . S
C465 C464 1.392 . S
C465 H477 0.929 . S
C466 C462 1.531 . S
C466 H478 0.960 . S
C466 H479 0.962 . S
C466 H480 0.960 . S
C467 C464 1.511 . S
C467 H481 0.961 . S
C467 H482 0.961 . S
C467 H483 0.961 . S
C468 C469 1.370 . S
C468 C470 1.363 . S
C468 H484 0.931 . S
C469 C468 1.370 . S
C469 C473 1.408 . S
C470 C468 1.363 . S
C470 C471 1.370 . S
C470 C474 1.524 . S
C471 C463 1.503 . S
C471 C470 1.370 . S
C471 C472 1.403 . S
C472 C471 1.403 . S
C472 C473 1.404 . S
C472 C475 1.539 . S
C473 C469 1.408 . S
C473 C472 1.404 . S
C473 H485 0.930 . S
C474 C470 1.524 . S
C474 H486 0.956 . S
C474 H487 0.961 . S
C474 H488 0.961 . S
C475 C472 1.539 . S
C475 H489 0.958 . S
C475 H490 0.961 . S
C475 H491 0.960 . S
H476 C460 0.931 . S
H477 C465 0.929 . S
H478 C466 0.960 . S
H479 C466 0.962 . S
H480 C466 0.960 . S
H481 C467 0.961 . S
H482 C467 0.961 . S
H483 C467 0.961 . S
H484 C468 0.931 . S
H485 C473 0.930 . S
H486 C474 0.956 . S
H487 C474 0.961 . S
H488 C474 0.961 . S
H489 C475 0.958 . S
H490 C475 0.961 . S
H491 C475 0.960 . S
C492 C493 1.391 . S
C492 C494 1.394 . S
C492 H508 0.931 . S
C493 C492 1.391 . S
C493 C497 1.376 . S
C494 C492 1.394 . S
C494 C495 1.367 1_565 S
C494 C498 1.531 . S
C495 C494 1.367 1_545 S
C495 C496 1.409 1_545 S
C495 C503 1.506 . S
C496 C495 1.409 1_565 S
C496 C497 1.392 . S
C496 C499 1.511 1_565 S
C497 C493 1.376 . S
C497 C496 1.392 . S
C497 H509 0.929 . S
C498 C494 1.531 . S
C498 H510 0.960 1_565 S
C498 H511 0.962 1_565 S
C498 H512 0.960 . S
C499 C496 1.511 1_545 S
C499 H513 0.961 . S
C499 H514 0.961 . S
C499 H515 0.961 . S
C500 C501 1.370 . S
C500 C502 1.363 . S
C500 H516 0.931 . S
C501 C500 1.370 . S
C501 C505 1.408 . S
C502 C500 1.363 . S
C502 C503 1.370 . S
C502 C506 1.524 . S
C503 C495 1.506 . S
C503 C502 1.370 . S
C503 C504 1.403 . S
C504 C503 1.403 . S
C504 C505 1.404 . S
C504 C507 1.539 . S
C505 C501 1.408 . S
C505 C504 1.404 . S
C505 H517 0.942 . S
C506 C502 1.524 . S
C506 H518 0.956 . S
C506 H519 0.961 . S
C506 H520 0.961 . S
C507 C504 1.539 . S
C507 H521 0.943 1_545 S
C507 H522 0.961 1_655 S
C507 H523 0.960 1_545 S
H508 C492 0.931 . S
H509 C497 0.929 . S
H510 C498 0.960 1_545 S
H511 C498 0.962 1_545 S
H512 C498 0.960 . S
H513 C499 0.961 . S
H514 C499 0.961 . S
H515 C499 0.961 . S
H516 C500 0.931 . S
H517 C505 0.942 . S
H518 C506 0.956 . S
H519 C506 0.961 . S
H520 C506 0.961 . S
H521 C507 0.943 1_565 S
H522 C507 0.961 1_455 S
H523 C507 0.960 1_565 S
C524 C525 1.391 . S
C524 C526 1.394 1_545 S
C524 H540 0.931 . S
C525 C524 1.391 . S
C525 C529 1.376 . S
C526 C524 1.394 1_565 S
C526 C527 1.369 . S
C526 C530 1.531 . S
C527 C526 1.369 . S
C527 C528 1.410 1_565 S
C527 C535 1.503 . S
C528 C527 1.410 1_545 S
C528 C529 1.392 . S
C528 C531 1.511 . S
C529 C525 1.376 . S
C529 C528 1.392 . S
C529 H541 0.929 . S
C530 C526 1.531 . S
C530 H542 0.960 . S
C530 H543 0.962 . S
C530 H544 0.960 . S
C531 C528 1.511 . S
C531 H545 0.961 . S
C531 H546 0.961 . S
C531 H547 0.961 . S
C532 C533 1.370 . S
C532 C534 1.363 . S
C532 H548 0.931 . S
C533 C532 1.370 . S
C533 C537 1.408 . S
C534 C532 1.363 . S
C534 C535 1.370 . S
C534 C538 1.524 . S
C535 C527 1.503 . S
C535 C534 1.370 . S
C535 C536 1.403 . S
C536 C535 1.403 . S
C536 C537 1.404 . S
C536 C539 1.539 . S
C537 C533 1.408 . S
C537 C536 1.404 . S
C537 H549 0.930 . S
C538 C534 1.524 . S
C538 H550 0.956 . S
C538 H551 0.961 . S
C538 H552 0.961 . S
C539 C536 1.539 . S
C539 H553 0.958 . S
C539 H554 0.961 . S
C539 H555 0.960 . S
H540 C524 0.931 . S
H541 C529 0.929 . S
H542 C530 0.960 . S
H543 C530 0.962 . S
H544 C530 0.960 . S
H545 C531 0.961 . S
H546 C531 0.961 . S
H547 C531 0.961 . S
H548 C532 0.931 . S
H549 C537 0.930 . S
H550 C538 0.956 . S
H551 C538 0.961 . S
H552 C538 0.961 . S
H553 C539 0.958 . S
H554 C539 0.961 . S
H555 C539 0.960 . S
C556 C557 1.391 . S
C556 C558 1.394 . S
C556 H572 0.931 . S
C557 C556 1.391 . S
C557 C561 1.376 . S
C558 C556 1.394 . S
C558 C559 1.369 . S
C558 C562 1.531 . S
C559 C558 1.369 . S
C559 C560 1.410 . S
C559 C567 1.503 . S
C560 C559 1.410 . S
C560 C561 1.392 . S
C560 C563 1.511 . S
C561 C557 1.376 . S
C561 C560 1.392 . S
C561 H573 0.929 . S
C562 C558 1.531 . S
C562 H574 0.960 . S
C562 H575 0.962 . S
C562 H576 0.960 . S
C563 C560 1.511 . S
C563 H577 0.961 . S
C563 H578 0.961 . S
C563 H579 0.961 . S
C564 C565 1.370 . S
C564 C566 1.363 . S
C564 H580 0.931 . S
C565 C564 1.370 . S
C565 C569 1.408 . S
C566 C564 1.363 . S
C566 C567 1.370 . S
C566 C570 1.524 . S
C567 C559 1.503 . S
C567 C566 1.370 . S
C567 C568 1.403 . S
C568 C567 1.403 . S
C568 C569 1.404 . S
C568 C571 1.539 . S
C569 C565 1.408 . S
C569 C568 1.404 . S
C569 H581 0.930 . S
C570 C566 1.524 . S
C570 H582 0.956 . S
C570 H583 0.961 . S
C570 H584 0.961 . S
C571 C568 1.539 . S
C571 H585 0.958 . S
C571 H586 0.961 . S
C571 H587 0.960 . S
H572 C556 0.931 . S
H573 C561 0.929 . S
H574 C562 0.960 . S
H575 C562 0.962 . S
H576 C562 0.960 . S
H577 C563 0.961 . S
H578 C563 0.961 . S
H579 C563 0.961 . S
H580 C564 0.931 . S
H581 C569 0.930 . S
H582 C570 0.956 . S
H583 C570 0.961 . S
H584 C570 0.961 . S
H585 C571 0.958 . S
H586 C571 0.961 . S
H587 C571 0.960 . S
C588 C589 1.391 . S
C588 C590 1.394 . S
C588 H604 0.931 . S
C589 C588 1.391 . S
C589 C593 1.376 . S
C590 C588 1.394 . S
C590 C591 1.369 . S
C590 C594 1.531 . S
C591 C590 1.369 . S
C591 C592 1.410 . S
C591 C599 1.503 . S
C592 C591 1.410 . S
C592 C593 1.392 . S
C592 C595 1.511 . S
C593 C589 1.376 . S
C593 C592 1.392 . S
C593 H605 0.929 . S
C594 C590 1.531 . S
C594 H606 0.960 . S
C594 H607 0.962 . S
C594 H608 0.960 . S
C595 C592 1.511 . S
C595 H609 0.961 . S
C595 H610 0.961 . S
C595 H611 0.961 . S
C596 C597 1.370 . S
C596 C598 1.363 . S
C596 H612 0.931 . S
C597 C596 1.370 . S
C597 C601 1.408 . S
C598 C596 1.363 . S
C598 C599 1.370 . S
C598 C602 1.524 . S
C599 C591 1.503 . S
C599 C598 1.370 . S
C599 C600 1.403 . S
C600 C599 1.403 . S
C600 C601 1.404 . S
C600 C603 1.539 . S
C601 C597 1.408 . S
C601 C600 1.404 . S
C601 H613 0.930 . S
C602 C598 1.524 . S
C602 H614 0.956 . S
C602 H615 0.961 . S
C602 H616 0.961 . S
C603 C600 1.539 . S
C603 H617 0.958 . S
C603 H618 0.961 . S
C603 H619 0.960 . S
H604 C588 0.931 . S
H605 C593 0.929 . S
H606 C594 0.960 . S
H607 C594 0.962 . S
H608 C594 0.960 . S
H609 C595 0.961 . S
H610 C595 0.961 . S
H611 C595 0.961 . S
H612 C596 0.931 . S
H613 C601 0.930 . S
H614 C602 0.956 . S
H615 C602 0.961 . S
H616 C602 0.961 . S
H617 C603 0.958 . S
H618 C603 0.961 . S
H619 C603 0.960 . S
C620 C621 1.391 . S
C620 C622 1.394 . S
C620 H636 0.931 . S
C621 C620 1.391 . S
C621 C625 1.376 . S
C622 C620 1.394 . S
C622 C623 1.369 1_545 S
C622 C626 1.531 . S
C623 C622 1.369 1_565 S
C623 C624 1.410 . S
C623 C631 1.503 . S
C624 C623 1.410 . S
C624 C625 1.392 1_565 S
C624 C627 1.511 . S
C625 C621 1.376 . S
C625 C624 1.392 1_545 S
C625 H637 0.929 . S
C626 C622 1.531 . S
C626 H638 0.960 . S
C626 H639 0.962 . S
C626 H640 0.960 . S
C627 C624 1.511 . S
C627 H641 0.961 . S
C627 H642 0.961 . S
C627 H643 0.961 . S
C628 C629 1.370 . S
C628 C630 1.363 . S
C628 H644 0.931 . S
C629 C628 1.370 . S
C629 C633 1.408 . S
C630 C628 1.363 . S
C630 C631 1.370 . S
C630 C634 1.524 . S
C631 C623 1.503 . S
C631 C630 1.370 . S
C631 C632 1.403 . S
C632 C631 1.403 . S
C632 C633 1.404 . S
C632 C635 1.539 . S
C633 C629 1.408 . S
C633 C632 1.404 . S
C633 H645 0.930 . S
C634 C630 1.524 . S
C634 H646 0.956 . S
C634 H647 0.961 . S
C634 H648 0.961 . S
C635 C632 1.539 . S
C635 H649 0.958 . S
C635 H650 0.961 . S
C635 H651 0.960 . S
H636 C620 0.931 . S
H637 C625 0.929 . S
H638 C626 0.960 . S
H639 C626 0.962 . S
H640 C626 0.960 . S
H641 C627 0.961 . S
H642 C627 0.961 . S
H643 C627 0.961 . S
H644 C628 0.931 . S
H645 C633 0.930 . S
H646 C634 0.956 . S
H647 C634 0.961 . S
H648 C634 0.961 . S
H649 C635 0.958 . S
H650 C635 0.961 . S
H651 C635 0.960 . S
C652 C653 1.391 . S
C652 C654 1.394 . S
C652 H668 0.931 . S
C653 C652 1.391 . S
C653 C657 1.376 . S
C654 C652 1.394 . S
C654 C655 1.369 . S
C654 C658 1.531 . S
C655 C654 1.369 . S
C655 C656 1.410 . S
C655 C663 1.503 . S
C656 C655 1.410 . S
C656 C657 1.392 . S
C656 C659 1.511 . S
C657 C653 1.376 . S
C657 C656 1.392 . S
C657 H669 0.929 . S
C658 C654 1.531 . S
C658 H670 0.960 . S
C658 H671 0.962 . S
C658 H672 0.960 . S
C659 C656 1.511 . S
C659 H673 0.961 . S
C659 H674 0.961 . S
C659 H675 0.961 . S
C660 C661 1.370 . S
C660 C662 1.363 . S
C660 H676 0.931 . S
C661 C660 1.370 . S
C661 C665 1.408 . S
C662 C660 1.363 . S
C662 C663 1.370 . S
C662 C666 1.524 . S
C663 C655 1.503 . S
C663 C662 1.370 . S
C663 C664 1.403 . S
C664 C663 1.403 . S
C664 C665 1.404 . S
C664 C667 1.539 . S
C665 C661 1.408 . S
C665 C664 1.404 . S
C665 H677 0.930 . S
C666 C662 1.524 . S
C666 H678 0.956 . S
C666 H679 0.961 . S
C666 H680 0.961 . S
C667 C664 1.539 . S
C667 H681 0.958 . S
C667 H682 0.961 . S
C667 H683 0.960 . S
H668 C652 0.931 . S
H669 C657 0.929 . S
H670 C658 0.960 . S
H671 C658 0.962 . S
H672 C658 0.960 . S
H673 C659 0.961 . S
H674 C659 0.961 . S
H675 C659 0.961 . S
H676 C660 0.931 . S
H677 C665 0.930 . S
H678 C666 0.956 . S
H679 C666 0.961 . S
H680 C666 0.961 . S
H681 C667 0.958 . S
H682 C667 0.961 . S
H683 C667 0.960 . S
C684 C685 1.391 . S
C684 C686 1.394 . S
C684 H700 0.931 . S
C685 C684 1.391 . S
C685 C689 1.376 . S
C686 C684 1.394 . S
C686 C687 1.369 . S
C686 C690 1.531 . S
C687 C686 1.369 . S
C687 C688 1.410 . S
C687 C695 1.503 . S
C688 C687 1.410 . S
C688 C689 1.392 . S
C688 C691 1.511 . S
C689 C685 1.376 . S
C689 C688 1.392 . S
C689 H701 0.929 . S
C690 C686 1.531 . S
C690 H702 0.960 . S
C690 H703 0.962 . S
C690 H704 0.960 . S
C691 C688 1.511 . S
C691 H705 0.961 . S
C691 H706 0.961 . S
C691 H707 0.961 . S
C692 C693 1.370 . S
C692 C694 1.363 . S
C692 H708 0.931 . S
C693 C692 1.370 . S
C693 C697 1.408 . S
C694 C692 1.363 . S
C694 C695 1.370 . S
C694 C698 1.524 . S
C695 C687 1.503 . S
C695 C694 1.370 . S
C695 C696 1.403 . S
C696 C695 1.403 . S
C696 C697 1.404 . S
C696 C699 1.539 . S
C697 C693 1.408 . S
C697 C696 1.404 . S
C697 H709 0.930 . S
C698 C694 1.524 . S
C698 H710 0.956 . S
C698 H711 0.961 . S
C698 H712 0.961 . S
C699 C696 1.539 . S
C699 H713 0.958 . S
C699 H714 0.961 . S
C699 H715 0.960 . S
H700 C684 0.931 . S
H701 C689 0.929 . S
H702 C690 0.960 . S
H703 C690 0.962 . S
H704 C690 0.960 . S
H705 C691 0.961 . S
H706 C691 0.961 . S
H707 C691 0.961 . S
H708 C692 0.931 . S
H709 C697 0.930 . S
H710 C698 0.956 . S
H711 C698 0.961 . S
H712 C698 0.961 . S
H713 C699 0.958 . S
H714 C699 0.961 . S
H715 C699 0.960 . S
C716 C717 1.391 . S
C716 C718 1.394 . S
C716 H732 0.931 . S
C717 C716 1.391 . S
C717 C721 1.376 . S
C718 C716 1.394 . S
C718 C719 1.369 . S
C718 C722 1.531 . S
C719 C718 1.369 . S
C719 C720 1.410 . S
C719 C727 1.503 . S
C720 C719 1.410 . S
C720 C721 1.392 . S
C720 C723 1.511 . S
C721 C717 1.376 . S
C721 C720 1.392 . S
C721 H733 0.929 . S
C722 C718 1.531 . S
C722 H734 0.960 . S
C722 H735 0.962 . S
C722 H736 0.960 . S
C723 C720 1.511 . S
C723 H737 0.961 . S
C723 H738 0.961 . S
C723 H739 0.961 . S
C724 C725 1.370 . S
C724 C726 1.363 . S
C724 H740 0.931 . S
C725 C724 1.370 . S
C725 C729 1.408 . S
C726 C724 1.363 . S
C726 C727 1.370 . S
C726 C730 1.524 . S
C727 C719 1.503 . S
C727 C726 1.370 . S
C727 C728 1.403 . S
C728 C727 1.403 . S
C728 C729 1.404 . S
C728 C731 1.539 . S
C729 C725 1.408 . S
C729 C728 1.404 . S
C729 H741 0.930 . S
C730 C726 1.524 . S
C730 H742 0.956 . S
C730 H743 0.961 . S
C730 H744 0.961 . S
C731 C728 1.539 . S
C731 H745 0.958 . S
C731 H746 0.961 . S
C731 H747 0.960 . S
H732 C716 0.931 . S
H733 C721 0.929 . S
H734 C722 0.960 . S
H735 C722 0.962 . S
H736 C722 0.960 . S
H737 C723 0.961 . S
H738 C723 0.961 . S
H739 C723 0.961 . S
H740 C724 0.931 . S
H741 C729 0.930 . S
H742 C730 0.956 . S
H743 C730 0.961 . S
H744 C730 0.961 . S
H745 C731 0.958 . S
H746 C731 0.961 . S
H747 C731 0.960 . S
C748 C749 1.391 . S
C748 C750 1.394 . S
C748 H764 0.931 . S
C749 C748 1.391 . S
C749 C753 1.376 . S
C750 C748 1.394 . S
C750 C751 1.369 . S
C750 C754 1.531 . S
C751 C750 1.369 . S
C751 C752 1.410 . S
C751 C759 1.503 . S
C752 C751 1.410 . S
C752 C753 1.392 . S
C752 C755 1.511 . S
C753 C749 1.376 . S
C753 C752 1.392 . S
C753 H765 0.929 . S
C754 C750 1.531 . S
C754 H766 0.960 . S
C754 H767 0.962 . S
C754 H768 0.960 . S
C755 C752 1.511 . S
C755 H769 0.961 . S
C755 H770 0.961 . S
C755 H771 0.961 . S
C756 C757 1.370 . S
C756 C758 1.363 . S
C756 H772 0.931 . S
C757 C756 1.370 . S
C757 C761 1.408 . S
C758 C756 1.363 . S
C758 C759 1.370 . S
C758 C762 1.524 . S
C759 C751 1.503 . S
C759 C758 1.370 . S
C759 C760 1.403 . S
C760 C759 1.403 . S
C760 C761 1.404 . S
C760 C763 1.539 . S
C761 C757 1.408 . S
C761 C760 1.404 . S
C761 H773 0.930 . S
C762 C758 1.524 . S
C762 H774 0.956 . S
C762 H775 0.961 . S
C762 H776 0.961 . S
C763 C760 1.539 . S
C763 H777 0.958 . S
C763 H778 0.961 . S
C763 H779 0.960 . S
H764 C748 0.931 . S
H765 C753 0.929 . S
H766 C754 0.960 . S
H767 C754 0.962 . S
H768 C754 0.960 . S
H769 C755 0.961 . S
H770 C755 0.961 . S
H771 C755 0.961 . S
H772 C756 0.931 . S
H773 C761 0.930 . S
H774 C762 0.956 . S
H775 C762 0.961 . S
H776 C762 0.961 . S
H777 C763 0.958 . S
H778 C763 0.961 . S
H779 C763 0.960 . S
C780 C781 1.391 . S
C780 C782 1.394 . S
C780 H796 0.931 . S
C781 C780 1.391 . S
C781 C785 1.376 . S
C782 C780 1.394 . S
C782 C783 1.369 . S
C782 C786 1.531 . S
C783 C782 1.369 . S
C783 C784 1.410 . S
C783 C791 1.503 . S
C784 C783 1.410 . S
C784 C785 1.392 . S
C784 C787 1.511 . S
C785 C781 1.376 . S
C785 C784 1.392 . S
C785 H797 0.929 . S
C786 C782 1.531 . S
C786 H798 0.960 . S
C786 H799 0.962 . S
C786 H800 0.960 . S
C787 C784 1.511 . S
C787 H801 0.961 . S
C787 H802 0.961 . S
C787 H803 0.961 . S
C788 C789 1.370 . S
C788 C790 1.363 . S
C788 H804 0.931 . S
C789 C788 1.370 . S
C789 C793 1.408 . S
C790 C788 1.363 . S
C790 C791 1.370 . S
C790 C794 1.524 . S
C791 C783 1.503 . S
C791 C790 1.370 . S
C791 C792 1.403 . S
C792 C791 1.403 . S
C792 C793 1.404 . S
C792 C795 1.539 . S
C793 C789 1.408 . S
C793 C792 1.404 . S
C793 H805 0.930 . S
C794 C790 1.524 . S
C794 H806 0.956 . S
C794 H807 0.961 . S
C794 H808 0.961 . S
C795 C792 1.539 . S
C795 H809 0.958 . S
C795 H810 0.987 . S
C795 H811 0.960 . S
H796 C780 0.931 . S
H797 C785 0.929 . S
H798 C786 0.960 . S
H799 C786 0.962 . S
H800 C786 0.960 . S
H801 C787 0.961 . S
H802 C787 0.961 . S
H803 C787 0.961 . S
H804 C788 0.931 . S
H805 C793 0.930 . S
H806 C794 0.956 . S
H807 C794 0.961 . S
H808 C794 0.961 . S
H809 C795 0.958 . S
H810 C795 0.987 . S
H811 C795 0.960 . S
C812 C813 1.391 . S
C812 C814 1.394 . S
C812 H828 0.931 . S
C813 C812 1.391 . S
C813 C817 1.376 . S
C814 C812 1.394 . S
C814 C815 1.369 . S
C814 C818 1.531 . S
C815 C814 1.369 . S
C815 C816 1.410 . S
C815 C823 1.503 . S
C816 C815 1.410 . S
C816 C817 1.392 . S
C816 C819 1.511 . S
C817 C813 1.376 . S
C817 C816 1.392 . S
C817 H829 0.929 . S
C818 C814 1.531 . S
C818 H830 0.960 . S
C818 H831 0.962 . S
C818 H832 0.960 . S
C819 C816 1.511 . S
C819 H833 0.961 . S
C819 H834 0.961 . S
C819 H835 0.961 . S
C820 C821 1.370 . S
C820 C822 1.363 . S
C820 H836 0.931 . S
C821 C820 1.370 . S
C821 C825 1.408 . S
C822 C820 1.363 . S
C822 C823 1.370 . S
C822 C826 1.524 . S
C823 C815 1.503 . S
C823 C822 1.370 . S
C823 C824 1.403 . S
C824 C823 1.403 . S
C824 C825 1.404 . S
C824 C827 1.539 . S
C825 C821 1.408 . S
C825 C824 1.404 . S
C825 H837 0.930 . S
C826 C822 1.524 . S
C826 H838 0.956 . S
C826 H839 0.961 . S
C826 H840 0.961 . S
C827 C824 1.539 . S
C827 H841 0.958 . S
C827 H842 0.961 . S
C827 H843 0.960 . S
H828 C812 0.931 . S
H829 C817 0.929 . S
H830 C818 0.960 . S
H831 C818 0.962 . S
H832 C818 0.960 . S
H833 C819 0.961 . S
H834 C819 0.961 . S
H835 C819 0.961 . S
H836 C820 0.931 . S
H837 C825 0.930 . S
H838 C826 0.956 . S
H839 C826 0.961 . S
H840 C826 0.961 . S
H841 C827 0.958 . S
H842 C827 0.961 . S
H843 C827 0.960 . S
C844 C845 1.391 . S
C844 C846 1.394 . S
C844 H860 0.931 . S
C845 C844 1.391 . S
C845 C849 1.376 . S
C846 C844 1.394 . S
C846 C847 1.369 . S
C846 C850 1.531 . S
C847 C846 1.369 . S
C847 C848 1.410 . S
C847 C855 1.503 . S
C848 C847 1.410 . S
C848 C849 1.392 . S
C848 C851 1.511 . S
C849 C845 1.376 . S
C849 C848 1.392 . S
C849 H861 0.929 . S
C850 C846 1.531 . S
C850 H862 0.960 . S
C850 H863 0.962 . S
C850 H864 0.960 . S
C851 C848 1.511 . S
C851 H865 0.961 . S
C851 H866 0.961 . S
C851 H867 0.961 . S
C852 C853 1.370 . S
C852 C854 1.363 . S
C852 H868 0.931 . S
C853 C852 1.370 . S
C853 C857 1.408 . S
C854 C852 1.363 . S
C854 C855 1.370 . S
C854 C858 1.524 . S
C855 C847 1.503 . S
C855 C854 1.370 . S
C855 C856 1.403 . S
C856 C855 1.403 . S
C856 C857 1.404 . S
C856 C859 1.539 . S
C857 C853 1.408 . S
C857 C856 1.404 . S
C857 H869 0.930 . S
C858 C854 1.524 . S
C858 H870 0.956 . S
C858 H871 0.961 . S
C858 H872 0.961 . S
C859 C856 1.539 . S
C859 H873 0.958 . S
C859 H874 0.961 . S
C859 H875 0.960 . S
H860 C844 0.931 . S
H861 C849 0.929 . S
H862 C850 0.960 . S
H863 C850 0.962 . S
H864 C850 0.960 . S
H865 C851 0.961 . S
H866 C851 0.961 . S
H867 C851 0.961 . S
H868 C852 0.931 . S
H869 C857 0.930 . S
H870 C858 0.956 . S
H871 C858 0.961 . S
H872 C858 0.961 . S
H873 C859 0.958 . S
H874 C859 0.961 . S
H875 C859 0.960 . S
C876 C877 1.391 . S
C876 C878 1.394 . S
C876 H892 0.931 . S
C877 C876 1.391 . S
C877 C881 1.376 . S
C878 C876 1.394 . S
C878 C879 1.369 . S
C878 C882 1.531 . S
C879 C878 1.369 . S
C879 C880 1.410 . S
C879 C887 1.503 . S
C880 C879 1.410 . S
C880 C881 1.392 . S
C880 C883 1.511 . S
C881 C877 1.376 . S
C881 C880 1.392 . S
C881 H893 0.929 . S
C882 C878 1.531 . S
C882 H894 0.960 . S
C882 H895 0.962 . S
C882 H896 0.960 . S
C883 C880 1.511 . S
C883 H897 0.961 . S
C883 H898 0.961 . S
C883 H899 0.961 . S
C884 C885 1.370 . S
C884 C886 1.363 . S
C884 H900 0.931 . S
C885 C884 1.370 . S
C885 C889 1.408 . S
C886 C884 1.363 . S
C886 C887 1.370 . S
C886 C890 1.524 . S
C887 C879 1.503 . S
C887 C886 1.370 . S
C887 C888 1.403 . S
C888 C887 1.403 . S
C888 C889 1.404 . S
C888 C891 1.539 . S
C889 C885 1.408 . S
C889 C888 1.404 . S
C889 H901 0.930 . S
C890 C886 1.524 . S
C890 H902 0.956 . S
C890 H903 0.961 . S
C890 H904 0.961 . S
C891 C888 1.539 . S
C891 H905 0.958 . S
C891 H906 0.961 . S
C891 H907 0.960 . S
H892 C876 0.931 . S
H893 C881 0.929 . S
H894 C882 0.960 . S
H895 C882 0.962 . S
H896 C882 0.960 . S
H897 C883 0.961 . S
H898 C883 0.961 . S
H899 C883 0.961 . S
H900 C884 0.931 . S
H901 C889 0.930 . S
H902 C890 0.956 . S
H903 C890 0.961 . S
H904 C890 0.961 . S
H905 C891 0.958 . S
H906 C891 0.961 . S
H907 C891 0.960 . S
C908 C909 1.391 . S
C908 C910 1.394 . S
C908 H924 0.931 . S
C909 C908 1.391 . S
C909 C913 1.376 . S
C910 C908 1.394 . S
C910 C911 1.369 . S
C910 C914 1.531 . S
C911 C910 1.369 . S
C911 C912 1.410 . S
C911 C919 1.503 . S
C912 C911 1.410 . S
C912 C913 1.392 . S
C912 C915 1.511 . S
C913 C909 1.376 . S
C913 C912 1.392 . S
C913 H925 0.929 . S
C914 C910 1.531 . S
C914 H926 0.960 . S
C914 H927 0.962 . S
C914 H928 0.960 . S
C915 C912 1.511 . S
C915 H929 0.961 . S
C915 H930 0.961 . S
C915 H931 0.961 . S
C916 C917 1.370 . S
C916 C918 1.363 . S
C916 H932 0.931 . S
C917 C916 1.370 . S
C917 C921 1.408 . S
C918 C916 1.363 . S
C918 C919 1.370 . S
C918 C922 1.524 . S
C919 C911 1.503 . S
C919 C918 1.370 . S
C919 C920 1.403 . S
C920 C919 1.403 . S
C920 C921 1.404 . S
C920 C923 1.539 . S
C921 C917 1.408 . S
C921 C920 1.404 . S
C921 H933 0.930 . S
C922 C918 1.524 . S
C922 H934 0.956 . S
C922 H935 0.961 . S
C922 H936 0.961 . S
C923 C920 1.539 . S
C923 H937 0.958 . S
C923 H938 0.961 . S
C923 H939 0.960 . S
H924 C908 0.931 . S
H925 C913 0.929 . S
H926 C914 0.960 . S
H927 C914 0.962 . S
H928 C914 0.960 . S
H929 C915 0.961 . S
H930 C915 0.961 . S
H931 C915 0.961 . S
H932 C916 0.931 . S
H933 C921 0.930 . S
H934 C922 0.956 . S
H935 C922 0.961 . S
H936 C922 0.961 . S
H937 C923 0.958 . S
H938 C923 0.961 . S
H939 C923 0.960 . S
C940 C941 1.391 . S
C940 C942 1.394 . S
C940 H956 0.931 . S
C941 C940 1.391 . S
C941 C945 1.376 . S
C942 C940 1.394 . S
C942 C943 1.369 . S
C942 C946 1.531 . S
C943 C942 1.369 . S
C943 C944 1.410 . S
C943 C951 1.503 . S
C944 C943 1.410 . S
C944 C945 1.392 . S
C944 C947 1.511 . S
C945 C941 1.376 . S
C945 C944 1.392 . S
C945 H957 0.929 . S
C946 C942 1.531 . S
C946 H958 0.960 . S
C946 H959 0.962 . S
C946 H960 0.960 . S
C947 C944 1.511 . S
C947 H961 0.961 . S
C947 H962 0.961 . S
C947 H963 0.961 . S
C948 C949 1.370 . S
C948 C950 1.363 . S
C948 H964 0.931 . S
C949 C948 1.370 . S
C949 C953 1.408 . S
C950 C948 1.363 . S
C950 C951 1.370 . S
C950 C954 1.524 . S
C951 C943 1.503 . S
C951 C950 1.370 . S
C951 C952 1.403 . S
C952 C951 1.403 . S
C952 C953 1.404 . S
C952 C955 1.539 . S
C953 C949 1.408 . S
C953 C952 1.404 . S
C953 H965 0.930 . S
C954 C950 1.524 . S
C954 H966 0.956 . S
C954 H967 0.961 . S
C954 H968 0.961 . S
C955 C952 1.539 . S
C955 H969 0.958 . S
C955 H970 0.961 . S
C955 H971 0.960 . S
H956 C940 0.931 . S
H957 C945 0.929 . S
H958 C946 0.960 . S
H959 C946 0.962 . S
H960 C946 0.960 . S
H961 C947 0.961 . S
H962 C947 0.961 . S
H963 C947 0.961 . S
H964 C948 0.931 . S
H965 C953 0.930 . S
H966 C954 0.956 . S
H967 C954 0.961 . S
H968 C954 0.961 . S
H969 C955 0.958 . S
H970 C955 0.961 . S
H971 C955 0.960 . S
C972 C973 1.391 . S
C972 C974 1.394 . S
C972 H988 0.931 . S
C973 C972 1.391 . S
C973 C977 1.376 . S
C974 C972 1.394 . S
C974 C975 1.369 . S
C974 C978 1.531 . S
C975 C974 1.369 . S
C975 C976 1.410 . S
C975 C983 1.503 . S
C976 C975 1.410 . S
C976 C977 1.392 . S
C976 C979 1.511 . S
C977 C973 1.376 . S
C977 C976 1.392 . S
C977 H989 0.929 . S
C978 C974 1.531 . S
C978 H990 0.960 . S
C978 H991 0.962 . S
C978 H992 0.960 . S
C979 C976 1.511 . S
C979 H993 0.961 . S
C979 H994 0.961 . S
C979 H995 0.961 . S
C980 C981 1.370 . S
C980 C982 1.363 . S
C980 H996 0.931 . S
C981 C980 1.370 . S
C981 C985 1.408 . S
C982 C980 1.363 . S
C982 C983 1.370 . S
C982 C986 1.524 . S
C983 C975 1.503 . S
C983 C982 1.370 . S
C983 C984 1.403 . S
C984 C983 1.403 . S
C984 C985 1.404 . S
C984 C987 1.539 . S
C985 C981 1.408 . S
C985 C984 1.404 . S
C985 H997 0.930 . S
C986 C982 1.524 . S
C986 H998 0.956 . S
C986 H999 0.961 . S
C986 H1000 0.961 . S
C987 C984 1.539 . S
C987 H1001 0.958 . S
C987 H1002 0.961 . S
C987 H1003 0.960 . S
H988 C972 0.931 . S
H989 C977 0.929 . S
H990 C978 0.960 . S
H991 C978 0.962 . S
H992 C978 0.960 . S
H993 C979 0.961 . S
H994 C979 0.961 . S
H995 C979 0.961 . S
H996 C980 0.931 . S
H997 C985 0.930 . S
H998 C986 0.956 . S
H999 C986 0.961 . S
H1000 C986 0.961 . S
H1001 C987 0.958 . S
H1002 C987 0.961 . S
H1003 C987 0.960 . S
C1004 C1005 1.391 . S
C1004 C1006 1.394 . S
C1004 H1020 0.931 . S
C1005 C1004 1.391 . S
C1005 C1009 1.376 . S
C1006 C1004 1.394 . S
C1006 C1007 1.369 . S
C1006 C1010 1.531 . S
C1007 C1006 1.369 . S
C1007 C1008 1.410 . S
C1007 C1015 1.503 . S
C1008 C1007 1.410 . S
C1008 C1009 1.392 . S
C1008 C1011 1.511 . S
C1009 C1005 1.376 . S
C1009 C1008 1.392 . S
C1009 H1021 0.929 . S
C1010 C1006 1.531 . S
C1010 H1022 0.960 . S
C1010 H1023 0.962 . S
C1010 H1024 0.960 . S
C1011 C1008 1.511 . S
C1011 H1025 0.961 . S
C1011 H1026 0.961 . S
C1011 H1027 0.961 . S
C1012 C1013 1.370 . S
C1012 C1014 1.363 . S
C1012 H1028 0.931 . S
C1013 C1012 1.370 . S
C1013 C1017 1.408 . S
C1014 C1012 1.363 . S
C1014 C1015 1.370 . S
C1014 C1018 1.524 . S
C1015 C1007 1.503 . S
C1015 C1014 1.370 . S
C1015 C1016 1.403 . S
C1016 C1015 1.403 . S
C1016 C1017 1.404 . S
C1016 C1019 1.539 . S
C1017 C1013 1.408 . S
C1017 C1016 1.404 . S
C1017 H1029 0.930 . S
C1018 C1014 1.524 . S
C1018 H1030 0.956 . S
C1018 H1031 0.961 . S
C1018 H1032 0.961 . S
C1019 C1016 1.539 . S
C1019 H1033 0.958 . S
C1019 H1034 0.961 . S
C1019 H1035 0.960 . S
H1020 C1004 0.931 . S
H1021 C1009 0.929 . S
H1022 C1010 0.960 . S
H1023 C1010 0.962 . S
H1024 C1010 0.960 . S
H1025 C1011 0.961 . S
H1026 C1011 0.961 . S
H1027 C1011 0.961 . S
H1028 C1012 0.931 . S
H1029 C1017 0.930 . S
H1030 C1018 0.956 . S
H1031 C1018 0.961 . S
H1032 C1018 0.961 . S
H1033 C1019 0.958 . S
H1034 C1019 0.961 . S
H1035 C1019 0.960 . S
C1036 C1037 1.391 . S
C1036 C1038 1.394 . S
C1036 H1052 0.931 . S
C1037 C1036 1.391 . S
C1037 C1041 1.376 . S
C1038 C1036 1.394 . S
C1038 C1039 1.369 . S
C1038 C1042 1.531 . S
C1039 C1038 1.369 . S
C1039 C1040 1.410 . S
C1039 C1047 1.503 . S
C1040 C1039 1.410 . S
C1040 C1041 1.392 . S
C1040 C1043 1.511 . S
C1041 C1037 1.376 . S
C1041 C1040 1.392 . S
C1041 H1053 0.929 . S
C1042 C1038 1.531 . S
C1042 H1054 0.960 . S
C1042 H1055 0.962 . S
C1042 H1056 0.960 . S
C1043 C1040 1.511 . S
C1043 H1057 0.961 . S
C1043 H1058 0.961 . S
C1043 H1059 0.961 . S
C1044 C1045 1.370 . S
C1044 C1046 1.363 . S
C1044 H1060 0.931 . S
C1045 C1044 1.370 . S
C1045 C1049 1.408 . S
C1046 C1044 1.363 . S
C1046 C1047 1.370 . S
C1046 C1050 1.524 . S
C1047 C1039 1.503 . S
C1047 C1046 1.370 . S
C1047 C1048 1.403 . S
C1048 C1047 1.403 . S
C1048 C1049 1.404 . S
C1048 C1051 1.539 . S
C1049 C1045 1.408 . S
C1049 C1048 1.404 . S
C1049 H1061 0.930 . S
C1050 C1046 1.524 . S
C1050 H1062 0.956 . S
C1050 H1063 0.961 . S
C1050 H1064 0.961 . S
C1051 C1048 1.539 . S
C1051 H1065 0.958 . S
C1051 H1066 0.961 . S
C1051 H1067 0.960 . S
H1052 C1036 0.931 . S
H1053 C1041 0.929 . S
H1054 C1042 0.960 . S
H1055 C1042 0.962 . S
H1056 C1042 0.960 . S
H1057 C1043 0.961 . S
H1058 C1043 0.961 . S
H1059 C1043 0.961 . S
H1060 C1044 0.931 . S
H1061 C1049 0.930 . S
H1062 C1050 0.956 . S
H1063 C1050 0.961 . S
H1064 C1050 0.961 . S
H1065 C1051 0.958 . S
H1066 C1051 0.961 . S
H1067 C1051 0.960 . S
C1068 C1069 1.391 . S
C1068 C1070 1.394 . S
C1068 H1084 0.931 . S
C1069 C1068 1.391 . S
C1069 C1073 1.376 . S
C1070 C1068 1.394 . S
C1070 C1071 1.369 . S
C1070 C1074 1.531 . S
C1071 C1070 1.369 . S
C1071 C1072 1.410 . S
C1071 C1079 1.503 . S
C1072 C1071 1.410 . S
C1072 C1073 1.392 . S
C1072 C1075 1.511 . S
C1073 C1069 1.376 . S
C1073 C1072 1.392 . S
C1073 H1085 0.929 . S
C1074 C1070 1.531 . S
C1074 H1086 0.960 . S
C1074 H1087 0.962 . S
C1074 H1088 0.960 . S
C1075 C1072 1.511 . S
C1075 H1089 0.961 . S
C1075 H1090 0.961 . S
C1075 H1091 0.961 . S
C1076 C1077 1.370 . S
C1076 C1078 1.363 . S
C1076 H1092 0.931 . S
C1077 C1076 1.370 . S
C1077 C1081 1.408 . S
C1078 C1076 1.363 . S
C1078 C1079 1.370 . S
C1078 C1082 1.524 . S
C1079 C1071 1.503 . S
C1079 C1078 1.370 . S
C1079 C1080 1.403 . S
C1080 C1079 1.403 . S
C1080 C1081 1.404 . S
C1080 C1083 1.539 . S
C1081 C1077 1.408 . S
C1081 C1080 1.404 . S
C1081 H1093 0.930 . S
C1082 C1078 1.524 . S
C1082 H1094 0.956 . S
C1082 H1095 0.961 . S
C1082 H1096 0.961 . S
C1083 C1080 1.539 . S
C1083 H1097 0.958 . S
C1083 H1098 0.961 . S
C1083 H1099 0.960 . S
H1084 C1068 0.931 . S
H1085 C1073 0.929 . S
H1086 C1074 0.960 . S
H1087 C1074 0.962 . S
H1088 C1074 0.960 . S
H1089 C1075 0.961 . S
H1090 C1075 0.961 . S
H1091 C1075 0.961 . S
H1092 C1076 0.931 . S
H1093 C1081 0.930 . S
H1094 C1082 0.956 . S
H1095 C1082 0.961 . S
H1096 C1082 0.961 . S
H1097 C1083 0.958 . S
H1098 C1083 0.961 . S
H1099 C1083 0.960 . S
C1100 C1101 1.391 . S
C1100 C1102 1.394 . S
C1100 H1116 0.931 . S
C1101 C1100 1.391 . S
C1101 C1105 1.376 . S
C1102 C1100 1.394 . S
C1102 C1103 1.369 . S
C1102 C1106 1.531 . S
C1103 C1102 1.369 . S
C1103 C1104 1.410 . S
C1103 C1111 1.503 . S
C1104 C1103 1.410 . S
C1104 C1105 1.392 . S
C1104 C1107 1.511 . S
C1105 C1101 1.376 . S
C1105 C1104 1.392 . S
C1105 H1117 0.929 . S
C1106 C1102 1.531 . S
C1106 H1118 0.960 . S
C1106 H1119 0.962 . S
C1106 H1120 0.960 . S
C1107 C1104 1.511 . S
C1107 H1121 0.961 . S
C1107 H1122 0.961 . S
C1107 H1123 0.961 . S
C1108 C1109 1.370 . S
C1108 C1110 1.363 . S
C1108 H1124 0.931 . S
C1109 C1108 1.370 . S
C1109 C1113 1.408 . S
C1110 C1108 1.363 . S
C1110 C1111 1.370 . S
C1110 C1114 1.524 . S
C1111 C1103 1.503 . S
C1111 C1110 1.370 . S
C1111 C1112 1.403 . S
C1112 C1111 1.403 . S
C1112 C1113 1.404 . S
C1112 C1115 1.539 . S
C1113 C1109 1.408 . S
C1113 C1112 1.404 . S
C1113 H1125 0.930 . S
C1114 C1110 1.524 . S
C1114 H1126 0.956 . S
C1114 H1127 0.961 . S
C1114 H1128 0.961 . S
C1115 C1112 1.539 . S
C1115 H1129 0.958 . S
C1115 H1130 0.961 . S
C1115 H1131 0.960 . S
H1116 C1100 0.931 . S
H1117 C1105 0.929 . S
H1118 C1106 0.960 . S
H1119 C1106 0.962 . S
H1120 C1106 0.960 . S
H1121 C1107 0.961 . S
H1122 C1107 0.961 . S
H1123 C1107 0.961 . S
H1124 C1108 0.931 . S
H1125 C1113 0.930 . S
H1126 C1114 0.956 . S
H1127 C1114 0.961 . S
H1128 C1114 0.961 . S
H1129 C1115 0.958 . S
H1130 C1115 0.961 . S
H1131 C1115 0.960 . S
C1132 C1133 1.391 . S
C1132 C1134 1.394 . S
C1132 H1148 0.931 . S
C1133 C1132 1.391 . S
C1133 C1137 1.376 . S
C1134 C1132 1.394 . S
C1134 C1135 1.369 . S
C1134 C1138 1.531 . S
C1135 C1134 1.369 . S
C1135 C1136 1.410 . S
C1135 C1143 1.503 . S
C1136 C1135 1.410 . S
C1136 C1137 1.392 . S
C1136 C1139 1.511 . S
C1137 C1133 1.376 . S
C1137 C1136 1.392 . S
C1137 H1149 0.929 . S
C1138 C1134 1.531 . S
C1138 H1150 0.960 . S
C1138 H1151 0.962 . S
C1138 H1152 0.960 . S
C1139 C1136 1.511 . S
C1139 H1153 0.961 . S
C1139 H1154 0.961 . S
C1139 H1155 0.961 . S
C1140 C1141 1.370 . S
C1140 C1142 1.363 . S
C1140 H1156 0.931 . S
C1141 C1140 1.370 . S
C1141 C1145 1.408 . S
C1142 C1140 1.363 . S
C1142 C1143 1.370 . S
C1142 C1146 1.524 . S
C1143 C1135 1.503 . S
C1143 C1142 1.370 . S
C1143 C1144 1.403 . S
C1144 C1143 1.403 . S
C1144 C1145 1.404 . S
C1144 C1147 1.539 . S
C1145 C1141 1.408 . S
C1145 C1144 1.404 . S
C1145 H1157 0.930 . S
C1146 C1142 1.524 . S
C1146 H1158 0.956 . S
C1146 H1159 0.961 . S
C1146 H1160 0.961 . S
C1147 C1144 1.539 . S
C1147 H1161 0.958 . S
C1147 H1162 0.961 . S
C1147 H1163 0.960 . S
H1148 C1132 0.931 . S
H1149 C1137 0.929 . S
H1150 C1138 0.960 . S
H1151 C1138 0.962 . S
H1152 C1138 0.960 . S
H1153 C1139 0.961 . S
H1154 C1139 0.961 . S
H1155 C1139 0.961 . S
H1156 C1140 0.931 . S
H1157 C1145 0.930 . S
H1158 C1146 0.956 . S
H1159 C1146 0.961 . S
H1160 C1146 0.961 . S
H1161 C1147 0.958 . S
H1162 C1147 0.961 . S
H1163 C1147 0.960 . S
C397 C235 1.425 . S
C405 C328 1.386 . S
C437 C336 1.350 . S
C429 C289 1.394 . S
C469 C340 1.374 . S
C461 C157 1.431 . S
C493 C211 1.399 . S
C501 C316 1.356 . S
C533 C357 1.371 . S
C525 C79 1.399 . S
C565 C391 1.382 . S
C557 C118 1.439 . S
C589 C1 1.427 . S
C597 C379 1.366 . S
C621 C40 1.427 . S
C629 C361 1.365 . S
C661 C315 1.299 . S
C653 C55 1.426 . S
C693 C349 1.295 . S
C685 C16 1.455 . S
C725 C353 1.296 . S
C717 C133 1.455 . S
C757 C331 1.287 . S
C749 C94 1.453 . S
C789 C370 1.282 . S
C781 C196 1.437 . S
C813 C172 1.459 . S
C821 C378 1.321 . S
C853 C394 1.289 . S
C845 C274 1.452 . S
C877 C250 1.433 . S
C885 C374 1.289 . S
C917 C319 1.311 . S
C909 C21 1.484 . S
C949 C337 1.295 . S
C941 C60 1.493 . S
C973 C99 1.482 . S
C981 C352 1.331 . S
C1013 C332 1.294 . S
C1005 C138 1.478 . S
C1045 C358 1.324 . S
C1037 C177 1.507 . S
C1069 C216 1.497 . S
C1077 C382 1.290 . S
C1101 C255 1.491 . S
C1109 C395 1.297 . S
C1133 C294 1.473 . S
C1141 C373 1.308 . S
