# Generated by pormake.
# Topology pyr, (3,6)-cn, num edge types: 1
# Building blocks:
#     Node 0, Type 0, BuildingBlock: MIDCAF_clean_linker_0, # of connection points: 3
#     Node 1, Type 0, BuildingBlock: MIDCAF_clean_linker_0, # of connection points: 3
#     Node 2, Type 0, BuildingBlock: MIDCAF_clean_linker_0, # of connection points: 3
#     Node 3, Type 0, BuildingBlock: MIDCAF_clean_linker_0, # of connection points: 3
#     Node 4, Type 0, BuildingBlock: MIDCAF_clean_linker_0, # of connection points: 3
#     Node 5, Type 0, BuildingBlock: MIDCAF_clean_linker_0, # of connection points: 3
#     Node 6, Type 0, BuildingBlock: MIDCAF_clean_linker_0, # of connection points: 3
#     Node 7, Type 0, BuildingBlock: MIDCAF_clean_linker_0, # of connection points: 3
#     Node 8, Type 1, BuildingBlock: BETFEN_clean_sbu_0, # of connection points: 6
#     Node 9, Type 1, BuildingBlock: BETFEN_clean_sbu_0, # of connection points: 6
#     Node 10, Type 1, BuildingBlock: BETFEN_clean_sbu_0, # of connection points: 6
#     Node 11, Type 1, BuildingBlock: BETFEN_clean_sbu_0, # of connection points: 6
#     Edge 12, Type (0, 1), BuildingBlock: CIFDUS_clean_linker_0, # of connection points: 2
#     Edge 13, Type (0, 1), BuildingBlock: CIFDUS_clean_linker_0, # of connection points: 2
#     Edge 14, Type (0, 1), BuildingBlock: CIFDUS_clean_linker_0, # of connection points: 2
#     Edge 15, Type (0, 1), BuildingBlock: CIFDUS_clean_linker_0, # of connection points: 2
#     Edge 16, Type (0, 1), BuildingBlock: CIFDUS_clean_linker_0, # of connection points: 2
#     Edge 17, Type (0, 1), BuildingBlock: CIFDUS_clean_linker_0, # of connection points: 2
#     Edge 18, Type (0, 1), BuildingBlock: CIFDUS_clean_linker_0, # of connection points: 2
#     Edge 19, Type (0, 1), BuildingBlock: CIFDUS_clean_linker_0, # of connection points: 2
#     Edge 20, Type (0, 1), BuildingBlock: CIFDUS_clean_linker_0, # of connection points: 2
#     Edge 21, Type (0, 1), BuildingBlock: CIFDUS_clean_linker_0, # of connection points: 2
#     Edge 22, Type (0, 1), BuildingBlock: CIFDUS_clean_linker_0, # of connection points: 2
#     Edge 23, Type (0, 1), BuildingBlock: CIFDUS_clean_linker_0, # of connection points: 2
#     Edge 24, Type (0, 1), BuildingBlock: CIFDUS_clean_linker_0, # of connection points: 2
#     Edge 25, Type (0, 1), BuildingBlock: CIFDUS_clean_linker_0, # of connection points: 2
#     Edge 26, Type (0, 1), BuildingBlock: CIFDUS_clean_linker_0, # of connection points: 2
#     Edge 27, Type (0, 1), BuildingBlock: CIFDUS_clean_linker_0, # of connection points: 2
#     Edge 28, Type (0, 1), BuildingBlock: CIFDUS_clean_linker_0, # of connection points: 2
#     Edge 29, Type (0, 1), BuildingBlock: CIFDUS_clean_linker_0, # of connection points: 2
#     Edge 30, Type (0, 1), BuildingBlock: CIFDUS_clean_linker_0, # of connection points: 2
#     Edge 31, Type (0, 1), BuildingBlock: CIFDUS_clean_linker_0, # of connection points: 2
#     Edge 32, Type (0, 1), BuildingBlock: CIFDUS_clean_linker_0, # of connection points: 2
#     Edge 33, Type (0, 1), BuildingBlock: CIFDUS_clean_linker_0, # of connection points: 2
#     Edge 34, Type (0, 1), BuildingBlock: CIFDUS_clean_linker_0, # of connection points: 2
#     Edge 35, Type (0, 1), BuildingBlock: CIFDUS_clean_linker_0, # of connection points: 2
# Relax obj value: 0.147
# Max RMSD: 0.244
# Mean RMSD: 0.117
data_MOF--net-pyr--node1-BETFEN_clean_sbu_0--node2-MIDCAF_clean_linker_0--edge1-CIFDUS_clean_linker_0
_symmetry_space_group_name_H-M    P1
_symmetry_Int_Tables_number       1
_symmetry_cell_setting            triclinic
loop_
_symmetry_equiv_pos_as_xyz
'x, y, z'
_cell_length_a     40.496396
_cell_length_b     44.870736
_cell_length_c     40.638488
_cell_angle_alpha  91.160311
_cell_angle_beta   97.961776
_cell_angle_gamma 109.41557
loop_
_atom_site_label
_atom_site_type_symbol
_atom_site_fract_x
_atom_site_fract_y
_atom_site_fract_z
_atom_type_partial_charge
C0 C 0.33735 0.32902 0.41788 0.0
C1 C 0.34243 0.30144 0.4299 0.0
C2 C 0.36842 0.29133 0.4184 0.0
C3 C 0.38643 0.3066 0.39324 0.0
H4 H 0.46072 0.30442 0.32822 0.0
H5 H 0.4809 0.26624 0.30098 0.0
H6 H 0.4263 0.27971 0.20623 0.0
H7 H 0.40772 0.31889 0.23323 0.0
H8 H 0.37192 0.37105 0.22971 0.0
H9 H 0.33358 0.39528 0.1972 0.0
H10 H 0.3127 0.43229 0.28801 0.0
H11 H 0.35107 0.40831 0.32061 0.0
H12 H 0.34901 0.36421 0.38248 0.0
H13 H 0.31815 0.3379 0.42681 0.0
H14 H 0.37303 0.27015 0.42695 0.0
H15 H 0.4046 0.29684 0.38362 0.0
N16 N 0.40978 0.32844 0.33181 0.0
N17 N 0.4017 0.35363 0.28288 0.0
N18 N 0.37716 0.36292 0.3294 0.0
C19 C 0.41568 0.33382 0.30003 0.0
C20 C 0.38282 0.36865 0.29758 0.0
C21 C 0.39056 0.34287 0.34675 0.0
C22 C 0.43239 0.31449 0.28293 0.0
C23 C 0.45362 0.29962 0.30146 0.0
C24 C 0.46495 0.27754 0.28586 0.0
C25 C 0.4548 0.2694 0.25143 0.0
C26 C 0.43505 0.28553 0.23269 0.0
C27 C 0.42422 0.308 0.24823 0.0
C28 C 0.36427 0.3874 0.27782 0.0
C29 C 0.35975 0.38486 0.2428 0.0
C30 C 0.33763 0.39859 0.22413 0.0
C31 C 0.31993 0.41543 0.24007 0.0
C32 C 0.32616 0.41961 0.27501 0.0
C33 C 0.34799 0.40566 0.29369 0.0
C34 C 0.37864 0.33217 0.37878 0.0
C35 C 0.35522 0.3442 0.39255 0.0
C36 C 0.21489 0.90235 0.67808 0.0
C37 C 0.19192 0.89142 0.64787 0.0
C38 C 0.19371 0.86537 0.62933 0.0
C39 C 0.21837 0.85079 0.64062 0.0
H40 H 0.2958 0.81111 0.60494 0.0
H41 H 0.31793 0.7787 0.57023 0.0
H42 H 0.35009 0.73631 0.65794 0.0
H43 H 0.32828 0.76825 0.69222 0.0
H44 H 0.38096 0.85182 0.74362 0.0
H45 H 0.41658 0.8709 0.79774 0.0
H46 H 0.32232 0.86856 0.83824 0.0
H47 H 0.28742 0.85198 0.783 0.0
H48 H 0.2566 0.89677 0.71292 0.0
H49 H 0.21383 0.9222 0.69301 0.0
H50 H 0.17643 0.85663 0.60582 0.0
H51 H 0.21929 0.83091 0.62564 0.0
N52 N 0.27596 0.82677 0.66216 0.0
N53 N 0.3186 0.8215 0.70485 0.0
N54 N 0.28555 0.85387 0.71462 0.0
C55 C 0.3011 0.81387 0.67322 0.0
C56 C 0.31091 0.84135 0.72565 0.0
C57 C 0.268 0.84679 0.68288 0.0
C58 C 0.31054 0.79233 0.65129 0.0
C59 C 0.30709 0.79445 0.61659 0.0
C60 C 0.31987 0.77609 0.59679 0.0
C61 C 0.33559 0.75493 0.61139 0.0
C62 C 0.33768 0.75206 0.64589 0.0
C63 C 0.32545 0.77059 0.66559 0.0
C64 C 0.33157 0.85068 0.75922 0.0
C65 C 0.36794 0.85531 0.76421 0.0
C66 C 0.38829 0.86598 0.79545 0.0
C67 C 0.37257 0.8714 0.82277 0.0
C68 C 0.33573 0.86552 0.81782 0.0
C69 C 0.31557 0.85578 0.78624 0.0
C70 C 0.24143 0.86175 0.67087 0.0
C71 C 0.23923 0.8876 0.68954 0.0
C72 C 0.60764 0.2434 0.90466 0.0
C73 C 0.57951 0.21887 0.88617 0.0
C74 C 0.56497 0.22506 0.85447 0.0
C75 C 0.5789 0.25484 0.84146 0.0
H76 H 0.62662 0.41018 0.80506 0.0
H77 H 0.60812 0.43548 0.75738 0.0
H78 H 0.57555 0.34695 0.6974 0.0
H79 H 0.59273 0.32112 0.74644 0.0
H80 H 0.73249 0.39444 0.83136 0.0
H81 H 0.79014 0.42306 0.86413 0.0
H82 H 0.74462 0.40004 0.95464 0.0
H83 H 0.68822 0.36931 0.9216 0.0
H84 H 0.64315 0.29074 0.90732 0.0
H85 H 0.61895 0.24005 0.92947 0.0
H86 H 0.54324 0.20674 0.83947 0.0
H87 H 0.56753 0.25869 0.81688 0.0
N88 N 0.6101 0.32073 0.81855 0.0
N89 N 0.65803 0.36906 0.82654 0.0
N90 N 0.65541 0.33032 0.86449 0.0
C91 C 0.62683 0.35028 0.80855 0.0
C92 C 0.67239 0.35919 0.85444 0.0
C93 C 0.62451 0.3107 0.84692 0.0
C94 C 0.61137 0.36366 0.77953 0.0
C95 C 0.61523 0.39597 0.78176 0.0
C96 C 0.60495 0.41063 0.75413 0.0
C97 C 0.59113 0.39369 0.72291 0.0
C98 C 0.58603 0.36092 0.72089 0.0
C99 C 0.59584 0.34601 0.74899 0.0
C100 C 0.70617 0.37947 0.87403 0.0
C101 C 0.73503 0.39573 0.85829 0.0
C102 C 0.76804 0.41231 0.8772 0.0
C103 C 0.77261 0.41373 0.91233 0.0
C104 C 0.74287 0.39871 0.92781 0.0
C105 C 0.71029 0.38133 0.9089 0.0
C106 C 0.60762 0.27908 0.85993 0.0
C107 C 0.62142 0.27282 0.89183 0.0
C108 C 0.77406 0.64282 0.42318 0.0
C109 C 0.74869 0.61367 0.41042 0.0
C110 C 0.75542 0.59756 0.3833 0.0
C111 C 0.78623 0.61116 0.36854 0.0
H112 H 0.84656 0.60948 0.28247 0.0
H113 H 0.86876 0.58505 0.23965 0.0
H114 H 0.97357 0.65262 0.27002 0.0
H115 H 0.95151 0.67744 0.31205 0.0
H116 H 0.95061 0.75066 0.34595 0.0
H117 H 0.98047 0.80508 0.37031 0.0
H118 H 0.90742 0.78888 0.4414 0.0
H119 H 0.87743 0.73553 0.41694 0.0
H120 H 0.82283 0.67885 0.4197 0.0
H121 H 0.77023 0.65562 0.4444 0.0
H122 H 0.73638 0.57499 0.37288 0.0
H123 H 0.79025 0.59865 0.34723 0.0
N124 N 0.85403 0.64405 0.34031 0.0
N125 N 0.90297 0.69113 0.3402 0.0
N126 N 0.86242 0.68795 0.37679 0.0
C127 C 0.88415 0.66063 0.32769 0.0
C128 C 0.89203 0.70502 0.36478 0.0
C129 C 0.84318 0.65773 0.36524 0.0
C130 C 0.89714 0.64554 0.30101 0.0
C131 C 0.87432 0.61925 0.27995 0.0
C132 C 0.887 0.60533 0.2552 0.0
C133 C 0.92303 0.61678 0.25129 0.0
C134 C 0.94573 0.64303 0.27231 0.0
C135 C 0.93297 0.65735 0.29646 0.0
C136 C 0.91143 0.73836 0.37922 0.0
C137 C 0.94091 0.75875 0.36672 0.0
C138 C 0.95812 0.79001 0.38085 0.0
C139 C 0.94636 0.80176 0.40788 0.0
C140 C 0.91697 0.78124 0.42026 0.0
C141 C 0.89984 0.75025 0.40622 0.0
C142 C 0.81099 0.64102 0.38082 0.0
C143 C 0.8045 0.65616 0.40879 0.0
C144 C 0.59464 0.76136 0.78684 0.0
C145 C 0.59189 0.76006 0.82089 0.0
C146 C 0.59822 0.73511 0.83799 0.0
C147 C 0.60964 0.71329 0.82196 0.0
H148 H 0.66923 0.65722 0.84629 0.0
H149 H 0.70707 0.63455 0.88169 0.0
H150 H 0.73355 0.59676 0.7943 0.0
H151 H 0.69649 0.62005 0.75888 0.0
H152 H 0.7085 0.66768 0.69861 0.0
H153 H 0.74903 0.69599 0.66171 0.0
H154 H 0.70654 0.77241 0.66377 0.0
H155 H 0.66538 0.74383 0.69953 0.0
H156 H 0.60922 0.74216 0.74489 0.0
H157 H 0.58929 0.77999 0.77289 0.0
H158 H 0.59641 0.73356 0.86429 0.0
H159 H 0.61607 0.69537 0.83636 0.0
N160 N 0.64381 0.67534 0.79083 0.0
N161 N 0.67577 0.66882 0.74895 0.0
N162 N 0.64511 0.70481 0.74375 0.0
C163 C 0.66461 0.66081 0.7786 0.0
C164 C 0.66614 0.69076 0.7313 0.0
C165 C 0.6335 0.69707 0.77328 0.0
C166 C 0.68042 0.64101 0.79974 0.0
C167 C 0.68242 0.64342 0.83458 0.0
C168 C 0.70408 0.63035 0.85493 0.0
C169 C 0.72392 0.61445 0.8408 0.0
C170 C 0.71932 0.6096 0.80594 0.0
C171 C 0.69793 0.62283 0.78564 0.0
C172 C 0.68421 0.70379 0.70275 0.0
C173 C 0.70714 0.69015 0.69049 0.0
C174 C 0.73055 0.70646 0.66945 0.0
C175 C 0.73168 0.73683 0.66036 0.0
C176 C 0.70643 0.74905 0.67009 0.0
C177 C 0.68285 0.73265 0.69088 0.0
C178 C 0.61497 0.71602 0.78851 0.0
C179 C 0.60599 0.73957 0.77081 0.0
C180 C 0.72653 0.1701 0.2629 0.0
C181 C 0.69103 0.16742 0.25176 0.0
C182 C 0.67093 0.17341 0.27508 0.0
C183 C 0.68564 0.18147 0.30846 0.0
H184 H 0.71301 0.26025 0.3871 0.0
H185 H 0.68425 0.28983 0.41626 0.0
H186 H 0.69297 0.23729 0.50302 0.0
H187 H 0.72209 0.20719 0.47342 0.0
H188 H 0.78134 0.16737 0.46934 0.0
H189 H 0.81904 0.13823 0.49372 0.0
H190 H 0.84451 0.1224 0.39663 0.0
H191 H 0.8072 0.15145 0.37223 0.0
H192 H 0.76806 0.1786 0.30465 0.0
H193 H 0.74318 0.16636 0.24572 0.0
H194 H 0.6433 0.17079 0.268 0.0
H195 H 0.66913 0.18532 0.32578 0.0
N196 N 0.7228 0.20716 0.37468 0.0
N197 N 0.75529 0.19649 0.4226 0.0
N198 N 0.75712 0.1749 0.36992 0.0
C199 C 0.73322 0.21127 0.40811 0.0
C200 C 0.76756 0.17841 0.40348 0.0
C201 C 0.73455 0.18906 0.35547 0.0
C202 C 0.71957 0.23124 0.4279 0.0
C203 C 0.7092 0.25515 0.41252 0.0
C204 C 0.69297 0.27232 0.42935 0.0
C205 C 0.68646 0.26593 0.46195 0.0
C206 C 0.69764 0.2426 0.47784 0.0
C207 C 0.71443 0.22556 0.46102 0.0
C208 C 0.79122 0.16176 0.41882 0.0
C209 C 0.79512 0.15782 0.45323 0.0
C210 C 0.81647 0.14095 0.46717 0.0
C211 C 0.83464 0.12807 0.44704 0.0
C212 C 0.83104 0.1323 0.41277 0.0
C213 C 0.80949 0.14884 0.3988 0.0
C214 C 0.72052 0.18292 0.31965 0.0
C215 C 0.74095 0.17732 0.29661 0.0
C216 C 0.29361 0.62345 0.18107 0.0
C217 C 0.28158 0.63603 0.15223 0.0
C218 C 0.30234 0.66601 0.14403 0.0
C219 C 0.3345 0.68282 0.16374 0.0
H220 H 0.44009 0.73941 0.15336 0.0
H221 H 0.45881 0.78826 0.1255 0.0
H222 H 0.49175 0.84204 0.2207 0.0
H223 H 0.47269 0.79234 0.249 0.0
H224 H 0.49547 0.70199 0.28627 0.0
H225 H 0.51479 0.67267 0.33094 0.0
H226 H 0.40593 0.62593 0.34359 0.0
H227 H 0.38673 0.65496 0.29928 0.0
H228 H 0.33474 0.62991 0.22279 0.0
H229 H 0.27826 0.60034 0.18801 0.0
H230 H 0.29353 0.67677 0.12246 0.0
H231 H 0.34958 0.70582 0.15633 0.0
N232 N 0.4023 0.71546 0.20133 0.0
N233 N 0.44705 0.72205 0.2471 0.0
N234 N 0.39417 0.6779 0.24099 0.0
C235 C 0.43459 0.73259 0.2182 0.0
C236 C 0.42665 0.69442 0.25859 0.0
C237 C 0.38183 0.6883 0.21234 0.0
C238 C 0.45473 0.76195 0.20343 0.0
C239 C 0.45201 0.76157 0.16852 0.0
C240 C 0.46245 0.78964 0.15248 0.0
C241 C 0.47595 0.81915 0.17077 0.0
C242 C 0.48126 0.81966 0.20588 0.0
C243 C 0.47064 0.79123 0.22212 0.0
C244 C 0.43952 0.68074 0.28892 0.0
C245 C 0.47575 0.68593 0.29904 0.0
C246 C 0.48678 0.66893 0.32449 0.0
C247 C 0.4619 0.64673 0.34082 0.0
C248 C 0.42588 0.64292 0.33186 0.0
C249 C 0.41486 0.6595 0.3062 0.0
C250 C 0.34693 0.67022 0.19237 0.0
C251 C 0.326 0.64036 0.20095 0.0
C252 C 0.14049 0.26955 0.67628 0.0
C253 C 0.1118 0.24824 0.68891 0.0
C254 C 0.09983 0.25924 0.71624 0.0
C255 C 0.11586 0.29067 0.73017 0.0
H256 H 0.12452 0.35846 0.81291 0.0
H257 H 0.10235 0.38125 0.85676 0.0
H258 H 0.15828 0.47511 0.8299 0.0
H259 H 0.18072 0.45253 0.7864 0.0
H260 H 0.26331 0.44895 0.74974 0.0
H261 H 0.31342 0.47529 0.72068 0.0
H262 H 0.26029 0.41318 0.63267 0.0
H263 H 0.21162 0.38654 0.66182 0.0
H264 H 0.17821 0.31617 0.67911 0.0
H265 H 0.15022 0.26242 0.655 0.0
H266 H 0.07806 0.24353 0.72701 0.0
H267 H 0.10579 0.29824 0.75097 0.0
N268 N 0.151 0.35835 0.75664 0.0
N269 N 0.19405 0.4083 0.75244 0.0
N270 N 0.18799 0.3651 0.71587 0.0
C271 C 0.16707 0.38962 0.76777 0.0
C272 C 0.20456 0.39604 0.72632 0.0
C273 C 0.16146 0.34592 0.73059 0.0
C274 C 0.15448 0.4035 0.79571 0.0
C275 C 0.13231 0.38399 0.81638 0.0
C276 C 0.1197 0.39708 0.84179 0.0
C277 C 0.12829 0.43011 0.84701 0.0
C278 C 0.15073 0.44959 0.82657 0.0
C279 C 0.16379 0.43655 0.80158 0.0
C280 C 0.23351 0.41532 0.70837 0.0
C281 C 0.26232 0.44119 0.72411 0.0
C282 C 0.29108 0.4563 0.70733 0.0
C283 C 0.29157 0.4461 0.67429 0.0
C284 C 0.26182 0.4212 0.65832 0.0
C285 C 0.23354 0.406 0.67508 0.0
C286 C 0.14432 0.312 0.71714 0.0
C287 C 0.15644 0.30075 0.69011 0.0
Pr288 Pr 1.00446 1.01166 0.56673 0.0
Pr289 Pr 0.05659 0.03946 0.52758 0.0
C290 C 0.95858 0.97444 0.60363 0.0
C291 C 0.93115 0.94305 0.60209 0.0
C292 C 0.92709 0.9271 0.63129 0.0
C293 C 0.9 0.89811 0.63119 0.0
C294 C 0.87636 0.88452 0.60181 0.0
C295 C 0.88095 0.90026 0.57232 0.0
C296 C 0.90828 0.92927 0.57241 0.0
C297 C 0.04138 0.07547 0.59052 0.0
C298 C 0.08058 1.00154 0.58408 0.0
C299 C 0.10334 0.07593 0.49095 0.0
C300 C 0.13053 0.1075 0.4916 0.0
C301 C 0.16442 0.10965 0.48542 0.0
C302 C 0.18985 0.13912 0.48292 0.0
C303 C 0.18178 0.16706 0.48634 0.0
C304 C 0.14817 0.16497 0.49364 0.0
C305 C 0.12277 0.13544 0.49637 0.0
C306 C 1.0193 0.97559 0.50417 0.0
C307 C 0.9807 0.05046 0.51032 0.0
O308 O 0.95133 0.99521 0.58461 0.0
O309 O 0.99126 0.97528 0.60526 0.0
O310 O 0.05598 0.05638 0.58158 0.0
O311 O 1.00757 0.06165 0.58805 0.0
O312 O 0.09259 0.02946 0.57238 0.0
O313 O 0.0463 0.98612 0.57896 0.0
O314 O 0.11072 0.05599 0.51109 0.0
O315 O 0.07027 0.0743 0.48802 0.0
O316 O 1.00495 0.995 0.51274 0.0
O317 O 0.05322 0.98907 0.50701 0.0
O318 O 0.96807 0.02329 0.52342 0.0
O319 O 1.01513 0.06503 0.51402 0.0
H320 H 0.94447 0.93741 0.65441 0.0
H321 H 0.89685 0.88685 0.65443 0.0
H322 H 0.86329 0.89024 0.54929 0.0
H323 H 0.9112 0.94114 0.54949 0.0
H324 H 0.17092 0.08841 0.48155 0.0
H325 H 0.21531 0.13989 0.47679 0.0
H326 H 0.14132 0.18613 0.49663 0.0
H327 H 0.09687 0.13449 0.5014 0.0
Pr328 Pr 0.51115 0.02918 0.04678 0.0
Pr329 Pr 0.56726 1.01387 1.02208 0.0
C330 C 0.46872 0.04558 0.0837 0.0
C331 C 0.46992 0.07478 0.10217 0.0
C332 C 0.44927 0.09255 0.08855 0.0
C333 C 0.45098 0.12072 0.10511 0.0
C334 C 0.47304 0.13152 0.13585 0.0
C335 C 0.49337 0.1136 0.14975 0.0
C336 C 0.49192 0.08554 0.13305 0.0
C337 C 0.53618 0.06716 0.99512 0.0
C338 C 0.59441 0.06682 0.08254 0.0
C339 C 0.60957 0.99886 0.98395 0.0
C340 C 0.60714 0.97173 0.96136 0.0
C341 C 0.60395 0.94187 0.97331 0.0
C342 C 0.60169 0.91651 0.95157 0.0
C343 C 0.60238 0.92039 0.91739 0.0
C344 C 0.60518 0.95021 0.90546 0.0
C345 C 0.60769 0.97563 0.92725 0.0
C346 C 0.54483 0.97783 0.07543 0.0
C347 C 0.48371 0.97534 0.98747 0.0
O348 O 0.49111 0.03172 0.09569 0.0
O349 O 0.46481 0.0457 0.05125 0.0
O350 O 0.55545 0.06052 1.019 0.0
O351 O 0.50293 0.05395 0.99735 0.0
O352 O 0.60495 0.05689 0.05662 0.0
O353 O 0.56071 0.05716 0.08604 0.0
O354 O 0.5896 1.01556 0.97377 0.0
O355 O 0.61111 0.9946 1.01577 0.0
O356 O 0.52405 0.98268 0.05141 0.0
O357 O 0.5777 0.99195 0.07227 0.0
O358 O 0.47371 0.98529 1.01366 0.0
O359 O 0.51723 0.9853 0.98335 0.0
H360 H 0.43186 0.08472 0.06496 0.0
H361 H 0.43462 0.13383 0.09409 0.0
H362 H 0.51071 0.12149 0.17337 0.0
H363 H 0.5082 0.07246 0.14428 0.0
H364 H 0.6034 0.93804 0.99949 0.0
H365 H 0.60014 0.89404 0.96171 0.0
H366 H 0.60533 0.95394 0.87923 0.0
H367 H 0.61 0.99837 0.9174 0.0
Pr368 Pr 0.52504 0.54955 0.54948 0.0
Pr369 Pr 0.50612 0.48033 0.51502 0.0
C370 C 0.52715 0.6096 0.55876 0.0
C371 C 0.49945 0.62403 0.55688 0.0
C372 C 0.50829 0.65662 0.5641 0.0
C373 C 0.48157 0.66972 0.56535 0.0
C374 C 0.44565 0.65034 0.55938 0.0
C375 C 0.43704 0.61784 0.5508 0.0
C376 C 0.46373 0.60479 0.54975 0.0
C377 C 0.55969 0.51518 0.59006 0.0
C378 C 0.45096 0.49354 0.56411 0.0
C379 C 0.49576 0.41874 0.50154 0.0
C380 C 0.52133 0.402 0.50215 0.0
C381 C 0.51102 0.37092 0.48812 0.0
C382 C 0.53625 0.35597 0.48724 0.0
C383 C 0.5721 0.37208 0.50023 0.0
C384 C 0.58202 0.40298 0.515 0.0
C385 C 0.55685 0.4178 0.51596 0.0
C386 C 0.48691 0.52398 0.47533 0.0
C387 C 0.5813 0.53373 0.50469 0.0
O388 O 0.53124 0.59783 0.53043 0.0
O389 O 0.52758 0.59105 0.58318 0.0
O390 O 0.54012 0.50604 0.56242 0.0
O391 O 0.56368 0.54467 0.5972 0.0
O392 O 0.45853 0.47328 0.54482 0.0
O393 O 0.47089 0.52387 0.56881 0.0
O394 O 0.49338 0.43023 0.53061 0.0
O395 O 0.49695 0.43868 0.47831 0.0
O396 O 0.48359 0.52083 0.5057 0.0
O397 O 0.49809 0.50244 0.46382 0.0
O398 O 0.56808 0.55539 0.51393 0.0
O399 O 0.56598 0.5034 0.50922 0.0
H400 H 0.5358 0.67172 0.56981 0.0
H401 H 0.4891 0.69475 0.57248 0.0
H402 H 0.40967 0.60235 0.54573 0.0
H403 H 0.45652 0.57951 0.54434 0.0
H404 H 0.4837 0.35848 0.47731 0.0
H405 H 0.52795 0.33227 0.47538 0.0
H406 H 0.60934 0.41583 0.5255 0.0
H407 H 0.56521 0.44182 0.52703 0.0
Pr408 Pr 1.01361 0.53803 1.02606 0.0
Pr409 Pr 0.02351 0.49094 0.07471 0.0
C410 C 0.99245 0.57657 0.98452 0.0
C411 C 0.96072 0.58372 0.97067 0.0
C412 C 0.9648 0.61181 0.95482 0.0
C413 C 0.93532 0.61735 0.93766 0.0
C414 C 0.90121 0.59469 0.93579 0.0
C415 C 0.89705 0.56716 0.95314 0.0
C416 C 0.92662 0.56178 0.97056 0.0
C417 C 0.08186 0.55545 0.06275 0.0
C418 C 0.98504 0.53893 0.09952 0.0
C419 C 0.04833 0.45447 0.1161 0.0
C420 C 0.08138 0.44749 0.1241 0.0
C421 C 0.08013 0.41781 0.13506 0.0
C422 C 0.11141 0.41122 0.14406 0.0
C423 C 0.1445 0.43431 0.14237 0.0
C424 C 0.14562 0.46389 0.13078 0.0
C425 C 0.11429 0.47037 0.12153 0.0
C426 C 0.95476 0.47299 0.03983 0.0
C427 C 0.05109 0.48964 1.00031 0.0
O428 O 0.99347 0.54899 0.97489 0.0
O429 O 1.00502 0.58478 1.01601 0.0
O430 O 0.05338 0.54369 0.07407 0.0
O431 O 0.07591 0.56051 1.03156 0.0
O432 O 1.0059 0.52283 0.11028 0.0
O433 O 0.97882 0.54295 0.06729 0.0
O434 O 0.04984 0.48314 0.12481 0.0
O435 O 0.02968 0.44372 0.08678 0.0
O436 O 0.98249 0.48517 1.02711 0.0
O437 O 0.96208 0.46771 0.07081 0.0
O438 O 0.03142 0.50688 0.98998 0.0
O439 O 0.05629 0.48436 1.03229 0.0
H440 H 0.99093 0.62907 0.95484 0.0
H441 H 0.93934 0.63912 0.92523 0.0
H442 H 0.87121 0.54919 0.95212 0.0
H443 H 0.92301 0.54009 0.983 0.0
H444 H 0.05496 0.39989 0.13714 0.0
H445 H 0.10974 0.38835 0.15324 0.0
H446 H 0.17072 0.482 0.12893 0.0
H447 H 0.11577 0.49335 0.11275 0.0
H448 H 0.27126 0.2881 0.42317 0.0
H449 H 0.35722 0.26725 0.48186 0.0
H450 H 0.31467 0.2253 0.50708 0.0
H451 H 0.25302 0.19084 0.50765 0.0
H452 H 0.16765 0.21182 0.44818 0.0
H453 H 0.21009 0.25815 0.42896 0.0
C454 C 0.28087 0.27513 0.44223 0.0
C455 C 0.31747 0.28067 0.45031 0.0
C456 C 0.25631 0.2509 0.45638 0.0
C457 C 0.32921 0.26315 0.47473 0.0
C458 C 0.30489 0.23916 0.48919 0.0
C459 C 0.24375 0.2058 0.49076 0.0
C460 C 0.20728 0.19774 0.47913 0.0
C461 C 0.26837 0.23216 0.47936 0.0
C462 C 0.19555 0.21759 0.45769 0.0
C463 C 0.21983 0.24395 0.44646 0.0
H464 H 0.36218 0.91141 0.86889 0.0
H465 H 0.43364 0.86157 0.85119 0.0
H466 H 0.47413 0.88906 0.90082 0.0
H467 H 0.49099 0.9297 0.9475 0.0
H468 H 0.41674 0.97506 0.96823 0.0
H469 H 0.37489 0.9458 0.91969 0.0
C470 C 0.38602 0.90569 0.87615 0.0
C471 C 0.39492 0.8848 0.85556 0.0
C472 C 0.40874 0.92077 0.90538 0.0
C473 C 0.42644 0.87832 0.86565 0.0
C474 C 0.44957 0.89382 0.8943 0.0
C475 C 0.46544 0.93282 0.94152 0.0
C476 C 0.45696 0.95461 0.96103 0.0
C477 C 0.44132 0.91557 0.91395 0.0
C478 C 0.4237 0.95829 0.95349 0.0
C479 C 0.39989 0.94173 0.92568 0.0
H480 H 0.62629 0.45435 0.70839 0.0
H481 H 0.53712 0.37146 0.6693 0.0
H482 H 0.52192 0.40047 0.62261 0.0
H483 H 0.53113 0.45106 0.5951 0.0
H484 H 0.61698 0.53458 0.63819 0.0
H485 H 0.63587 0.50386 0.68117 0.0
C486 C 0.6032 0.44253 0.69001 0.0
C487 C 0.5827 0.41065 0.69301 0.0
C488 C 0.59389 0.45965 0.66379 0.0
C489 C 0.55367 0.39579 0.6679 0.0
C490 C 0.54475 0.4125 0.64119 0.0
C491 C 0.55428 0.46233 0.61361 0.0
C492 C 0.57278 0.49507 0.61335 0.0
C493 C 0.56433 0.44463 0.63913 0.0
C494 C 0.60236 0.50946 0.63783 0.0
C495 C 0.61311 0.49191 0.66248 0.0
H496 H 0.89891 0.60042 0.18407 0.0
H497 H 0.98035 0.59734 0.263 0.0
H498 H 1.00573 0.57231 0.22401 0.0
H499 H 1.00577 0.55182 0.1671 0.0
H500 H 0.92683 0.55781 0.0871 0.0
H501 H 0.89982 0.58088 0.12646 0.0
C502 C 0.9221 0.59411 0.19274 0.0
C503 C 0.93757 0.60083 0.22666 0.0
C504 C 0.93719 0.5802 0.16981 0.0
C505 C 0.96792 0.59273 0.23718 0.0
C506 C 0.98246 0.57829 0.21482 0.0
C507 C 0.98254 0.55801 0.15822 0.0
C508 C 0.96837 0.55277 0.12396 0.0
C509 C 0.96748 0.57199 0.18102 0.0
C510 C 0.93848 0.56146 0.11315 0.0
C511 C 0.92292 0.57469 0.13576 0.0
H512 H 0.471 0.2639 0.18887 0.0
H513 H 0.45451 0.21378 0.27815 0.0
H514 H 0.46165 0.16793 0.25113 0.0
H515 H 0.46792 0.14032 0.20088 0.0
H516 H 0.4802 0.18875 0.11044 0.0
H517 H 0.47845 0.23665 0.13891 0.0
C518 C 0.46881 0.24294 0.20243 0.0
C519 C 0.4622 0.24252 0.23558 0.0
C520 C 0.47175 0.21612 0.18639 0.0
C521 C 0.4602 0.21522 0.25286 0.0
C522 C 0.46389 0.18874 0.2373 0.0
C523 C 0.47067 0.16151 0.18757 0.0
C524 C 0.47409 0.16104 0.15365 0.0
C525 C 0.4691 0.18874 0.20394 0.0
C526 C 0.47718 0.1885 0.13652 0.0
C527 C 0.47629 0.21589 0.1528 0.0
H528 H 0.20514 0.95454 0.64448 0.0
H529 H 0.12156 0.86398 0.6239 0.0
H530 H 0.07929 0.8903 0.60388 0.0
H531 H 0.06643 0.93892 0.59147 0.0
H532 H 0.15049 0.02944 0.60986 0.0
H533 H 0.19224 1.0033 0.63198 0.0
C534 C 0.1776 0.94064 0.63584 0.0
C535 C 0.1664 0.90741 0.6357 0.0
C536 C 0.15359 0.9559 0.62413 0.0
C537 C 0.1308 0.88958 0.62397 0.0
C538 C 0.10663 0.90461 0.6127 0.0
C539 C 0.09381 0.95296 0.60063 0.0
C540 C 0.10535 0.98607 0.59924 0.0
C541 C 0.11776 0.93774 0.6126 0.0
C542 C 0.141 1.00391 0.61072 0.0
C543 C 0.16487 0.98899 0.62331 0.0
H544 H 0.79876 0.39765 0.97255 0.0
H545 H 0.82774 0.46549 0.89841 0.0
H546 H 0.88693 0.48875 0.93041 0.0
H547 H 0.931 0.48936 0.97941 0.0
H548 H 0.89859 0.42608 0.05639 0.0
H549 H 0.83991 0.4019 1.0235 0.0
C550 C 0.81746 0.41801 0.96351 0.0
C551 C 0.80834 0.42946 0.93273 0.0
C552 C 0.85104 0.4321 0.9826 0.0
C553 C 0.83387 0.45544 0.92148 0.0
C554 C 0.86779 0.46902 0.93994 0.0
C555 C 0.91088 0.47052 0.98903 0.0
C556 C 0.91903 0.45946 1.02018 0.0
C557 C 0.87674 0.4574 0.97044 0.0
C558 C 0.8929 0.435 1.03247 0.0
C559 C 0.85937 0.42114 1.01366 0.0
H560 H 0.71551 0.55409 0.43083 0.0
H561 H 0.7062 0.6468 0.42338 0.0
H562 H 0.65475 0.63077 0.45214 0.0
H563 H 0.61301 0.59116 0.48084 0.0
H564 H 0.62104 0.49798 0.48848 0.0
H565 H 0.67194 0.5134 0.45857 0.0
C566 C 0.70192 0.5706 0.43516 0.0
C567 C 0.71503 0.60173 0.42506 0.0
C568 C 0.67217 0.56126 0.45216 0.0
C569 C 0.69709 0.62284 0.43115 0.0
C570 C 0.66757 0.6137 0.44765 0.0
C571 C 0.62593 0.57419 0.47617 0.0
C572 C 0.61313 0.54348 0.48729 0.0
C573 C 0.65511 0.58313 0.45867 0.0
C574 C 0.6302 0.52184 0.48047 0.0
C575 C 0.65938 0.53063 0.46323 0.0
H576 H 0.26771 0.38162 0.19099 0.0
H577 H 0.3101 0.47259 0.24655 0.0
H578 H 0.26063 0.48741 0.2192 0.0
H579 H 0.20301 0.47276 0.18279 0.0
H580 H 0.16001 0.38112 0.12853 0.0
H581 H 0.2122 0.36833 0.15194 0.0
C582 C 0.26651 0.40494 0.19659 0.0
C583 C 0.2925 0.42599 0.22073 0.0
C584 C 0.23773 0.41303 0.18125 0.0
C585 C 0.29025 0.45591 0.2282 0.0
C586 C 0.262 0.46438 0.21258 0.0
C587 C 0.20539 0.45022 0.17565 0.0
C588 C 0.17764 0.42785 0.1541 0.0
C589 C 0.23523 0.44288 0.18956 0.0
C590 C 0.18084 0.39856 0.1454 0.0
C591 C 0.21069 0.39128 0.1587 0.0
H592 H 0.61723 0.18675 0.92217 0.0
H593 H 0.51014 0.18013 0.88328 0.0
H594 H 0.48733 0.1316 0.91171 0.0
H595 H 0.49771 0.09293 0.95095 0.0
H596 H 0.60495 0.10109 0.99107 0.0
H597 H 0.62766 0.14719 0.9592 0.0
C598 C 0.58885 0.17481 0.91992 0.0
C599 C 0.5655 0.18748 0.90075 0.0
C600 C 0.57589 0.14721 0.93684 0.0
C601 C 0.52884 0.17102 0.89759 0.0
C602 C 0.51574 0.14333 0.91411 0.0
C603 C 0.52606 0.10467 0.95251 0.0
C604 C 0.5496 0.09363 0.97359 0.0
C605 C 0.53899 0.13147 0.93427 0.0
C606 C 0.58624 0.10911 0.97522 0.0
C607 C 0.59925 0.13552 0.95699 0.0
H608 H 0.91733 0.84301 0.43362 0.0
H609 H 1.0178 0.83521 0.41886 0.0
H610 H 0.04864 0.88778 0.44675 0.0
H611 H 0.04761 0.9357 0.47665 0.0
H612 H 0.94764 0.9435 0.49259 0.0
H613 H 0.9163 0.89108 0.46367 0.0
C614 C 0.94601 0.8526 0.43666 0.0
C615 C 0.96502 0.83476 0.42391 0.0
C616 C 0.96378 0.88291 0.45322 0.0
C617 C 1.0022 0.84824 0.42775 0.0
C618 C 1.01997 0.87832 0.44404 0.0
C619 C 1.01894 0.92597 0.47378 0.0
C620 C 1.00003 0.94365 0.48675 0.0
C621 C 1.0011 0.89583 0.45702 0.0
C622 C 0.96288 0.93055 0.4828 0.0
C623 C 0.94495 0.90053 0.46624 0.0
H624 H 0.32885 0.69296 0.61301 0.0
H625 H 0.38053 0.77795 0.56644 0.0
H626 H 0.41712 0.75177 0.54295 0.0
H627 H 0.43926 0.70681 0.54156 0.0
H628 H 0.38919 0.62315 0.59117 0.0
H629 H 0.34704 0.64658 0.60727 0.0
C630 C 0.34783 0.70558 0.59734 0.0
C631 C 0.35233 0.73739 0.59177 0.0
C632 C 0.36932 0.6907 0.58473 0.0
C633 C 0.37651 0.75337 0.57098 0.0
C634 C 0.39768 0.73852 0.55783 0.0
C635 C 0.41896 0.69367 0.5557 0.0
C636 C 0.41758 0.66337 0.56531 0.0
C637 C 0.39513 0.70755 0.56551 0.0
C638 C 0.39072 0.64638 0.58314 0.0
C639 C 0.36672 0.65985 0.59261 0.0
H640 H 0.73071 0.77945 0.6132 0.0
H641 H 0.80119 0.74154 0.67441 0.0
H642 H 0.85218 0.78158 0.65794 0.0
H643 H 0.87707 0.83137 0.6322 0.0
H644 H 0.80722 0.87178 0.57408 0.0
H645 H 0.7559 0.82684 0.58315 0.0
C646 C 0.75722 0.77978 0.62271 0.0
C647 C 0.76192 0.75756 0.64524 0.0
C648 C 0.78667 0.80359 0.61398 0.0
C649 C 0.79652 0.758 0.65675 0.0
C650 C 0.82586 0.78118 0.64766 0.0
C651 C 0.85061 0.83019 0.6213 0.0
C652 C 0.84593 0.85505 0.60289 0.0
C653 C 0.82125 0.8047 0.62722 0.0
C654 C 0.81157 0.8529 0.58829 0.0
C655 C 0.78219 0.82733 0.59368 0.0
H656 H 0.705 0.12613 0.20967 0.0
H657 H 0.63858 0.18381 0.21413 0.0
H658 H 0.60352 0.15844 0.16126 0.0
H659 H 0.58838 0.11644 0.11638 0.0
H660 H 0.65799 0.06274 0.10883 0.0
H661 H 0.69612 0.09102 0.15989 0.0
C662 C 0.68362 0.13402 0.19882 0.0
C663 C 0.67399 0.1563 0.21669 0.0
C664 C 0.66412 0.12006 0.1678 0.0
C665 C 0.64589 0.16583 0.20184 0.0
C666 C 0.62593 0.15156 0.17136 0.0
C667 C 0.61229 0.11143 0.12568 0.0
C668 C 0.6204 0.0875 0.10936 0.0
C669 C 0.6342 0.12801 0.15464 0.0
C670 C 0.65147 0.08124 0.12115 0.0
C671 C 0.67307 0.09722 0.15039 0.0
H672 H 0.43945 0.62956 0.4008 0.0
H673 H 0.5086 0.61569 0.3347 0.0
H674 H 0.52278 0.57727 0.37058 0.0
H675 H 0.51343 0.5454 0.41924 0.0
H676 H 0.44565 0.55961 0.48637 0.0
H677 H 0.43311 0.59995 0.45185 0.0
C678 C 0.45774 0.61823 0.39433 0.0
C679 C 0.47285 0.62561 0.3649 0.0
C680 C 0.46589 0.59601 0.41523 0.0
C681 C 0.49684 0.61087 0.35724 0.0
C682 C 0.50477 0.58864 0.37766 0.0
C683 C 0.49594 0.55737 0.42633 0.0
C684 C 0.48032 0.54939 0.45528 0.0
C685 C 0.48911 0.58069 0.40645 0.0
C686 C 0.45813 0.56543 0.46436 0.0
C687 C 0.45084 0.5884 0.44449 0.0
H688 H 0.122 0.41532 0.91223 0.0
H689 H 0.09944 0.47715 0.83925 0.0
H690 H 0.07393 0.5007 0.87937 0.0
H691 H 0.05736 0.5039 0.93531 0.0
H692 H 0.08187 0.4437 1.00929 0.0
H693 H 0.10694 0.41969 0.96904 0.0
C694 C 0.1114 0.43388 0.90505 0.0
C695 C 0.11284 0.44432 0.87246 0.0
C696 C 0.097 0.44778 0.92861 0.0
C697 C 0.0992 0.46871 0.86403 0.0
C698 C 0.08438 0.48218 0.88702 0.0
C699 C 0.06818 0.48554 0.94274 0.0
C700 C 0.06742 0.47571 0.97557 0.0
C701 C 0.0831 0.47196 0.91943 0.0
C702 C 0.08197 0.45196 0.98443 0.0
C703 C 0.09632 0.43808 0.96129 0.0
H704 H 0.62398 0.82271 0.81604 0.0
H705 H 0.54815 0.75659 0.86761 0.0
H706 H 0.54337 0.8006 0.90106 0.0
H707 H 0.56263 0.85776 0.91692 0.0
H708 H 0.6407 0.92314 0.86657 0.0
H709 H 0.64187 0.87951 0.83067 0.0
C710 C 0.60588 0.81793 0.83415 0.0
C711 C 0.58631 0.78647 0.83924 0.0
C712 C 0.60367 0.84321 0.85348 0.0
C713 C 0.5636 0.78063 0.86335 0.0
C714 C 0.56084 0.80576 0.88243 0.0
C715 C 0.58002 0.86246 0.8982 0.0
C716 C 0.60157 0.89376 0.89455 0.0
C717 C 0.58116 0.83713 0.87802 0.0
C718 C 0.62345 0.89942 0.8697 0.0
C719 C 0.62438 0.87443 0.84929 0.0
H720 H 0.90124 0.13497 0.43639 0.0
H721 H 0.81891 0.08128 0.4902 0.0
H722 H 0.85617 0.05118 0.51326 0.0
H723 H 0.91251 0.04062 0.51848 0.0
H724 H 0.99554 0.09604 0.46626 0.0
H725 H 0.95743 0.12463 0.44174 0.0
C726 C 0.89141 0.11652 0.453 0.0
C727 C 0.85741 0.11026 0.46155 0.0
C728 C 0.913 0.09954 0.46626 0.0
C729 C 0.84514 0.08668 0.4835 0.0
C730 C 0.86633 0.06936 0.49651 0.0
C731 C 0.92207 0.05873 0.50145 0.0
C732 C 0.95666 0.0661 0.494 0.0
C733 C 0.90032 0.0756 0.48806 0.0
C734 C 0.96897 0.08995 0.47234 0.0
C735 C 0.94724 0.10634 0.45836 0.0
H736 H 0.21848 0.60281 0.17172 0.0
H737 H 0.26772 0.63015 0.08426 0.0
H738 H 0.2105 0.60684 0.04876 0.0
H739 H 0.14586 0.58134 0.04263 0.0
H740 H 0.09662 0.55317 0.12984 0.0
H741 H 0.1544 0.5736 0.16523 0.0
C742 C 0.2168 0.60318 0.14488 0.0
C743 C 0.24731 0.61861 0.13076 0.0
C744 C 0.18373 0.58972 0.12452 0.0
C745 C 0.24455 0.61902 0.09587 0.0
C746 C 0.21184 0.60559 0.0755 0.0
C747 C 0.14786 0.5796 0.06937 0.0
C748 C 0.11707 0.56619 0.08366 0.0
C749 C 0.18116 0.59143 0.08958 0.0
C750 C 0.11999 0.56369 0.11829 0.0
C751 C 0.15301 0.57535 0.13855 0.0
H752 H 0.31825 0.41634 0.63049 0.0
H753 H 0.33628 0.50848 0.67791 0.0
H754 H 0.38656 0.53143 0.64829 0.0
H755 H 0.42558 0.5254 0.60817 0.0
H756 H 0.40495 0.43283 0.56016 0.0
H757 H 0.35533 0.41056 0.58999 0.0
C758 C 0.33267 0.44157 0.63412 0.0
C759 C 0.3229 0.4605 0.65651 0.0
C760 C 0.36128 0.45475 0.6166 0.0
C761 C 0.34304 0.49304 0.66126 0.0
C762 C 0.37178 0.5063 0.64406 0.0
C763 C 0.41014 0.50039 0.60407 0.0
C764 C 0.41938 0.481 0.58168 0.0
C765 C 0.38118 0.4874 0.62155 0.0
C766 C 0.39884 0.44858 0.577 0.0
C767 C 0.3703 0.43566 0.5942 0.0
H768 H 0.79021 0.62364 0.82821 0.0
H769 H 0.72178 0.58813 0.90141 0.0
H770 H 0.77056 0.57868 0.93744 0.0
H771 H 0.83334 0.58197 0.94853 0.0
H772 H 0.90039 0.61672 0.87393 0.0
H773 H 0.85134 0.62495 0.83805 0.0
C774 C 0.78566 0.61322 0.85174 0.0
C775 C 0.75229 0.60633 0.86194 0.0
C776 C 0.81371 0.60802 0.87224 0.0
C777 C 0.74725 0.59372 0.89299 0.0
C778 C 0.77511 0.58829 0.91357 0.0
C779 C 0.83709 0.59109 0.92431 0.0
C780 C 0.87067 0.59906 0.91416 0.0
C781 C 0.80857 0.59559 0.90353 0.0
C782 C 0.87512 0.61105 0.88275 0.0
C783 C 0.84699 0.61554 0.86205 0.0
H784 H 0.5338 0.87392 0.18052 0.0
H785 H 0.43162 0.83091 0.11993 0.0
H786 H 0.44231 0.87682 0.08655 0.0
H787 H 0.48223 0.92816 0.07208 0.0
H788 H 0.58523 0.97036 0.13146 0.0
H789 H 0.5726 0.92648 0.16769 0.0
C790 C 0.51374 0.87481 0.16028 0.0
C791 C 0.48212 0.84876 0.15261 0.0
C792 C 0.52025 0.90128 0.14074 0.0
C793 C 0.45647 0.85033 0.12611 0.0
C794 C 0.46249 0.87668 0.10701 0.0
C795 C 0.50167 0.92792 0.09321 0.0
C796 C 0.53466 0.95252 0.09895 0.0
C797 C 0.49451 0.90213 0.11369 0.0
C798 C 0.55967 0.95168 0.12635 0.0
C799 C 0.5525 0.92652 0.14711 0.0
H800 H 0.14181 0.20822 0.66213 0.0
H801 H 0.04075 0.21368 0.67835 0.0
H802 H 1.0107 0.16126 0.64998 0.0
H803 H 1.01249 0.11418 0.61921 0.0
H804 H 0.11293 0.10845 0.60187 0.0
H805 H 0.14361 0.16075 0.63134 0.0
C806 C 0.11318 0.19811 0.65934 0.0
C807 C 0.09377 0.21526 0.67265 0.0
C808 C 0.09583 0.16785 0.64251 0.0
C809 C 0.05666 0.20117 0.66905 0.0
C810 C 0.03932 0.17117 0.65249 0.0
C811 C 0.04112 0.12431 0.62189 0.0
C812 C 0.06036 0.10728 0.60834 0.0
C813 C 0.05856 0.15435 0.63897 0.0
C814 C 0.09745 0.12091 0.61208 0.0
C815 C 0.115 0.15086 0.62896 0.0
H816 H 0.69613 0.32862 0.46429 0.0
H817 H 0.62994 0.23972 0.49437 0.0
H818 H 0.58949 0.26528 0.51119 0.0
H819 H 0.56995 0.31185 0.51189 0.0
H820 H 0.63563 0.40002 0.47963 0.0
H821 H 0.67918 0.37582 0.46903 0.0
C822 C 0.67302 0.31494 0.47486 0.0
C823 C 0.6658 0.28233 0.47779 0.0
C824 C 0.64958 0.32959 0.4837 0.0
C825 C 0.63614 0.26493 0.49204 0.0
C826 C 0.61283 0.27945 0.50132 0.0
C827 C 0.59388 0.32572 0.50266 0.0
C828 C 0.59947 0.35761 0.49638 0.0
C829 C 0.61875 0.31157 0.49634 0.0
C830 C 0.63083 0.3755 0.4849 0.0
C831 C 0.65568 0.36165 0.47868 0.0
loop_
_geom_bond_atom_site_label_1
_geom_bond_atom_site_label_2
_geom_bond_distance
_geom_bond_site_symmetry_2
_ccdc_geom_bond_type
C0 C1 1.384 . S
C0 H13 0.947 . S
C0 C35 1.382 . S
C1 C0 1.384 . S
C1 C2 1.378 . S
C2 C1 1.378 . S
C2 C3 1.378 . S
C2 H14 0.952 . S
C3 C2 1.378 . S
C3 H15 0.950 . S
C3 C34 1.383 . S
H4 C23 0.947 . S
H5 C24 0.946 . S
H6 C26 0.953 . S
H7 C27 0.945 . S
H8 C29 0.952 . S
H9 C30 0.949 . S
H10 C32 0.950 . S
H11 C33 0.948 . S
H12 C35 0.951 . S
H13 C0 0.947 . S
H14 C2 0.952 . S
H15 C3 0.950 . S
N16 C19 1.382 . S
N16 C21 1.363 . S
N17 C19 1.371 . S
N17 C20 1.372 . S
N18 C20 1.361 . S
N18 C21 1.377 . S
C19 N16 1.382 . S
C19 N17 1.371 . S
C19 C22 1.480 . S
C20 N17 1.372 . S
C20 N18 1.361 . S
C20 C28 1.457 . S
C21 N16 1.363 . S
C21 N18 1.377 . S
C21 C34 1.479 . S
C22 C19 1.480 . S
C22 C23 1.383 . S
C22 C27 1.385 . S
C23 H4 0.947 . S
C23 C22 1.383 . S
C23 C24 1.388 . S
C24 H5 0.946 . S
C24 C23 1.388 . S
C24 C25 1.384 . S
C25 C24 1.384 . S
C25 C26 1.377 . S
C26 H6 0.953 . S
C26 C25 1.377 . S
C26 C27 1.369 . S
C27 H7 0.945 . S
C27 C22 1.385 . S
C27 C26 1.369 . S
C28 C20 1.457 . S
C28 C29 1.372 . S
C28 C33 1.364 . S
C29 H8 0.952 . S
C29 C28 1.372 . S
C29 C30 1.389 . S
C30 H9 0.949 . S
C30 C29 1.389 . S
C30 C31 1.387 . S
C31 C30 1.387 . S
C31 C32 1.372 . S
C32 H10 0.950 . S
C32 C31 1.372 . S
C32 C33 1.379 . S
C33 H11 0.948 . S
C33 C28 1.364 . S
C33 C32 1.379 . S
C34 C3 1.383 . S
C34 C21 1.479 . S
C34 C35 1.398 . S
C35 C0 1.382 . S
C35 H12 0.951 . S
C35 C34 1.398 . S
C36 C37 1.384 . S
C36 H49 0.947 . S
C36 C71 1.382 . S
C37 C36 1.384 . S
C37 C38 1.378 . S
C38 C37 1.378 . S
C38 C39 1.378 . S
C38 H50 0.952 . S
C39 C38 1.378 . S
C39 H51 0.950 . S
C39 C70 1.383 . S
H40 C59 0.947 . S
H41 C60 0.946 . S
H42 C62 0.953 . S
H43 C63 0.945 . S
H44 C65 0.952 . S
H45 C66 0.949 . S
H46 C68 0.950 . S
H47 C69 0.948 . S
H48 C71 0.951 . S
H49 C36 0.947 . S
H50 C38 0.952 . S
H51 C39 0.950 . S
N52 C55 1.382 . S
N52 C57 1.363 . S
N53 C55 1.371 . S
N53 C56 1.372 . S
N54 C56 1.361 . S
N54 C57 1.377 . S
C55 N52 1.382 . S
C55 N53 1.371 . S
C55 C58 1.480 . S
C56 N53 1.372 . S
C56 N54 1.361 . S
C56 C64 1.457 . S
C57 N52 1.363 . S
C57 N54 1.377 . S
C57 C70 1.479 . S
C58 C55 1.480 . S
C58 C59 1.383 . S
C58 C63 1.385 . S
C59 H40 0.947 . S
C59 C58 1.383 . S
C59 C60 1.388 . S
C60 H41 0.946 . S
C60 C59 1.388 . S
C60 C61 1.384 . S
C61 C60 1.384 . S
C61 C62 1.377 . S
C62 H42 0.953 . S
C62 C61 1.377 . S
C62 C63 1.369 . S
C63 H43 0.945 . S
C63 C58 1.385 . S
C63 C62 1.369 . S
C64 C56 1.457 . S
C64 C65 1.372 . S
C64 C69 1.364 . S
C65 H44 0.952 . S
C65 C64 1.372 . S
C65 C66 1.389 . S
C66 H45 0.949 . S
C66 C65 1.389 . S
C66 C67 1.387 . S
C67 C66 1.387 . S
C67 C68 1.372 . S
C68 H46 0.950 . S
C68 C67 1.372 . S
C68 C69 1.379 . S
C69 H47 0.948 . S
C69 C64 1.364 . S
C69 C68 1.379 . S
C70 C39 1.383 . S
C70 C57 1.479 . S
C70 C71 1.398 . S
C71 C36 1.382 . S
C71 H48 0.951 . S
C71 C70 1.398 . S
C72 C73 1.384 . S
C72 H85 0.947 . S
C72 C107 1.382 . S
C73 C72 1.384 . S
C73 C74 1.378 . S
C74 C73 1.378 . S
C74 C75 1.378 . S
C74 H86 0.952 . S
C75 C74 1.378 . S
C75 H87 0.950 . S
C75 C106 1.383 . S
H76 C95 0.947 . S
H77 C96 0.946 . S
H78 C98 0.953 . S
H79 C99 0.945 . S
H80 C101 0.952 . S
H81 C102 0.949 . S
H82 C104 0.950 . S
H83 C105 0.948 . S
H84 C107 0.951 . S
H85 C72 0.947 . S
H86 C74 0.952 . S
H87 C75 0.950 . S
N88 C91 1.382 . S
N88 C93 1.363 . S
N89 C91 1.371 . S
N89 C92 1.372 . S
N90 C92 1.361 . S
N90 C93 1.377 . S
C91 N88 1.382 . S
C91 N89 1.371 . S
C91 C94 1.480 . S
C92 N89 1.372 . S
C92 N90 1.361 . S
C92 C100 1.457 . S
C93 N88 1.363 . S
C93 N90 1.377 . S
C93 C106 1.479 . S
C94 C91 1.480 . S
C94 C95 1.383 . S
C94 C99 1.385 . S
C95 H76 0.947 . S
C95 C94 1.383 . S
C95 C96 1.388 . S
C96 H77 0.946 . S
C96 C95 1.388 . S
C96 C97 1.384 . S
C97 C96 1.384 . S
C97 C98 1.377 . S
C98 H78 0.953 . S
C98 C97 1.377 . S
C98 C99 1.369 . S
C99 H79 0.945 . S
C99 C94 1.385 . S
C99 C98 1.369 . S
C100 C92 1.457 . S
C100 C101 1.372 . S
C100 C105 1.364 . S
C101 H80 0.952 . S
C101 C100 1.372 . S
C101 C102 1.389 . S
C102 H81 0.949 . S
C102 C101 1.389 . S
C102 C103 1.387 . S
C103 C102 1.387 . S
C103 C104 1.372 . S
C104 H82 0.950 . S
C104 C103 1.372 . S
C104 C105 1.379 . S
C105 H83 0.948 . S
C105 C100 1.364 . S
C105 C104 1.379 . S
C106 C75 1.383 . S
C106 C93 1.479 . S
C106 C107 1.398 . S
C107 C72 1.382 . S
C107 H84 0.951 . S
C107 C106 1.398 . S
C108 C109 1.384 . S
C108 H121 0.947 . S
C108 C143 1.382 . S
C109 C108 1.384 . S
C109 C110 1.378 . S
C110 C109 1.378 . S
C110 C111 1.378 . S
C110 H122 0.952 . S
C111 C110 1.378 . S
C111 H123 0.950 . S
C111 C142 1.383 . S
H112 C131 0.947 . S
H113 C132 0.946 . S
H114 C134 0.953 . S
H115 C135 0.945 . S
H116 C137 0.952 . S
H117 C138 0.949 . S
H118 C140 0.950 . S
H119 C141 0.948 . S
H120 C143 0.951 . S
H121 C108 0.947 . S
H122 C110 0.952 . S
H123 C111 0.950 . S
N124 C127 1.382 . S
N124 C129 1.363 . S
N125 C127 1.371 . S
N125 C128 1.372 . S
N126 C128 1.361 . S
N126 C129 1.377 . S
C127 N124 1.382 . S
C127 N125 1.371 . S
C127 C130 1.480 . S
C128 N125 1.372 . S
C128 N126 1.361 . S
C128 C136 1.457 . S
C129 N124 1.363 . S
C129 N126 1.377 . S
C129 C142 1.479 . S
C130 C127 1.480 . S
C130 C131 1.383 . S
C130 C135 1.385 . S
C131 H112 0.947 . S
C131 C130 1.383 . S
C131 C132 1.388 . S
C132 H113 0.946 . S
C132 C131 1.388 . S
C132 C133 1.384 . S
C133 C132 1.384 . S
C133 C134 1.377 . S
C134 H114 0.953 . S
C134 C133 1.377 . S
C134 C135 1.369 . S
C135 H115 0.945 . S
C135 C130 1.385 . S
C135 C134 1.369 . S
C136 C128 1.457 . S
C136 C137 1.372 . S
C136 C141 1.364 . S
C137 H116 0.952 . S
C137 C136 1.372 . S
C137 C138 1.389 . S
C138 H117 0.949 . S
C138 C137 1.389 . S
C138 C139 1.387 . S
C139 C138 1.387 . S
C139 C140 1.372 . S
C140 H118 0.950 . S
C140 C139 1.372 . S
C140 C141 1.379 . S
C141 H119 0.948 . S
C141 C136 1.364 . S
C141 C140 1.379 . S
C142 C111 1.383 . S
C142 C129 1.479 . S
C142 C143 1.398 . S
C143 C108 1.382 . S
C143 H120 0.951 . S
C143 C142 1.398 . S
C144 C145 1.384 . S
C144 H157 0.947 . S
C144 C179 1.382 . S
C145 C144 1.384 . S
C145 C146 1.378 . S
C146 C145 1.378 . S
C146 C147 1.378 . S
C146 H158 0.952 . S
C147 C146 1.378 . S
C147 H159 0.950 . S
C147 C178 1.383 . S
H148 C167 0.947 . S
H149 C168 0.946 . S
H150 C170 0.953 . S
H151 C171 0.945 . S
H152 C173 0.952 . S
H153 C174 0.949 . S
H154 C176 0.950 . S
H155 C177 0.948 . S
H156 C179 0.951 . S
H157 C144 0.947 . S
H158 C146 0.952 . S
H159 C147 0.950 . S
N160 C163 1.382 . S
N160 C165 1.363 . S
N161 C163 1.371 . S
N161 C164 1.372 . S
N162 C164 1.361 . S
N162 C165 1.377 . S
C163 N160 1.382 . S
C163 N161 1.371 . S
C163 C166 1.480 . S
C164 N161 1.372 . S
C164 N162 1.361 . S
C164 C172 1.457 . S
C165 N160 1.363 . S
C165 N162 1.377 . S
C165 C178 1.479 . S
C166 C163 1.480 . S
C166 C167 1.383 . S
C166 C171 1.385 . S
C167 H148 0.947 . S
C167 C166 1.383 . S
C167 C168 1.388 . S
C168 H149 0.946 . S
C168 C167 1.388 . S
C168 C169 1.384 . S
C169 C168 1.384 . S
C169 C170 1.377 . S
C170 H150 0.953 . S
C170 C169 1.377 . S
C170 C171 1.369 . S
C171 H151 0.945 . S
C171 C166 1.385 . S
C171 C170 1.369 . S
C172 C164 1.457 . S
C172 C173 1.372 . S
C172 C177 1.364 . S
C173 H152 0.952 . S
C173 C172 1.372 . S
C173 C174 1.389 . S
C174 H153 0.949 . S
C174 C173 1.389 . S
C174 C175 1.387 . S
C175 C174 1.387 . S
C175 C176 1.372 . S
C176 H154 0.950 . S
C176 C175 1.372 . S
C176 C177 1.379 . S
C177 H155 0.948 . S
C177 C172 1.364 . S
C177 C176 1.379 . S
C178 C147 1.383 . S
C178 C165 1.479 . S
C178 C179 1.398 . S
C179 C144 1.382 . S
C179 H156 0.951 . S
C179 C178 1.398 . S
C180 C181 1.384 . S
C180 H193 0.947 . S
C180 C215 1.382 . S
C181 C180 1.384 . S
C181 C182 1.378 . S
C182 C181 1.378 . S
C182 C183 1.378 . S
C182 H194 0.952 . S
C183 C182 1.378 . S
C183 H195 0.950 . S
C183 C214 1.383 . S
H184 C203 0.947 . S
H185 C204 0.946 . S
H186 C206 0.953 . S
H187 C207 0.945 . S
H188 C209 0.952 . S
H189 C210 0.949 . S
H190 C212 0.950 . S
H191 C213 0.948 . S
H192 C215 0.951 . S
H193 C180 0.947 . S
H194 C182 0.952 . S
H195 C183 0.950 . S
N196 C199 1.382 . S
N196 C201 1.363 . S
N197 C199 1.371 . S
N197 C200 1.372 . S
N198 C200 1.361 . S
N198 C201 1.377 . S
C199 N196 1.382 . S
C199 N197 1.371 . S
C199 C202 1.480 . S
C200 N197 1.372 . S
C200 N198 1.361 . S
C200 C208 1.457 . S
C201 N196 1.363 . S
C201 N198 1.377 . S
C201 C214 1.479 . S
C202 C199 1.480 . S
C202 C203 1.383 . S
C202 C207 1.385 . S
C203 H184 0.947 . S
C203 C202 1.383 . S
C203 C204 1.388 . S
C204 H185 0.946 . S
C204 C203 1.388 . S
C204 C205 1.384 . S
C205 C204 1.384 . S
C205 C206 1.377 . S
C206 H186 0.953 . S
C206 C205 1.377 . S
C206 C207 1.369 . S
C207 H187 0.945 . S
C207 C202 1.385 . S
C207 C206 1.369 . S
C208 C200 1.457 . S
C208 C209 1.372 . S
C208 C213 1.364 . S
C209 H188 0.952 . S
C209 C208 1.372 . S
C209 C210 1.389 . S
C210 H189 0.949 . S
C210 C209 1.389 . S
C210 C211 1.387 . S
C211 C210 1.387 . S
C211 C212 1.372 . S
C212 H190 0.950 . S
C212 C211 1.372 . S
C212 C213 1.379 . S
C213 H191 0.948 . S
C213 C208 1.364 . S
C213 C212 1.379 . S
C214 C183 1.383 . S
C214 C201 1.479 . S
C214 C215 1.398 . S
C215 C180 1.382 . S
C215 H192 0.951 . S
C215 C214 1.398 . S
C216 C217 1.384 . S
C216 H229 0.947 . S
C216 C251 1.382 . S
C217 C216 1.384 . S
C217 C218 1.378 . S
C218 C217 1.378 . S
C218 C219 1.378 . S
C218 H230 0.952 . S
C219 C218 1.378 . S
C219 H231 0.950 . S
C219 C250 1.383 . S
H220 C239 0.947 . S
H221 C240 0.946 . S
H222 C242 0.953 . S
H223 C243 0.945 . S
H224 C245 0.952 . S
H225 C246 0.949 . S
H226 C248 0.950 . S
H227 C249 0.948 . S
H228 C251 0.951 . S
H229 C216 0.947 . S
H230 C218 0.952 . S
H231 C219 0.950 . S
N232 C235 1.382 . S
N232 C237 1.363 . S
N233 C235 1.371 . S
N233 C236 1.372 . S
N234 C236 1.361 . S
N234 C237 1.377 . S
C235 N232 1.382 . S
C235 N233 1.371 . S
C235 C238 1.480 . S
C236 N233 1.372 . S
C236 N234 1.361 . S
C236 C244 1.457 . S
C237 N232 1.363 . S
C237 N234 1.377 . S
C237 C250 1.479 . S
C238 C235 1.480 . S
C238 C239 1.383 . S
C238 C243 1.385 . S
C239 H220 0.947 . S
C239 C238 1.383 . S
C239 C240 1.388 . S
C240 H221 0.946 . S
C240 C239 1.388 . S
C240 C241 1.384 . S
C241 C240 1.384 . S
C241 C242 1.377 . S
C242 H222 0.953 . S
C242 C241 1.377 . S
C242 C243 1.369 . S
C243 H223 0.945 . S
C243 C238 1.385 . S
C243 C242 1.369 . S
C244 C236 1.457 . S
C244 C245 1.372 . S
C244 C249 1.364 . S
C245 H224 0.952 . S
C245 C244 1.372 . S
C245 C246 1.389 . S
C246 H225 0.949 . S
C246 C245 1.389 . S
C246 C247 1.387 . S
C247 C246 1.387 . S
C247 C248 1.372 . S
C248 H226 0.950 . S
C248 C247 1.372 . S
C248 C249 1.379 . S
C249 H227 0.948 . S
C249 C244 1.364 . S
C249 C248 1.379 . S
C250 C219 1.383 . S
C250 C237 1.479 . S
C250 C251 1.398 . S
C251 C216 1.382 . S
C251 H228 0.951 . S
C251 C250 1.398 . S
C252 C253 1.384 . S
C252 H265 0.947 . S
C252 C287 1.382 . S
C253 C252 1.384 . S
C253 C254 1.378 . S
C254 C253 1.378 . S
C254 C255 1.378 . S
C254 H266 0.952 . S
C255 C254 1.378 . S
C255 H267 0.950 . S
C255 C286 1.383 . S
H256 C275 0.947 . S
H257 C276 0.946 . S
H258 C278 0.953 . S
H259 C279 0.945 . S
H260 C281 0.952 . S
H261 C282 0.949 . S
H262 C284 0.950 . S
H263 C285 0.948 . S
H264 C287 0.951 . S
H265 C252 0.947 . S
H266 C254 0.952 . S
H267 C255 0.950 . S
N268 C271 1.382 . S
N268 C273 1.363 . S
N269 C271 1.371 . S
N269 C272 1.372 . S
N270 C272 1.361 . S
N270 C273 1.377 . S
C271 N268 1.382 . S
C271 N269 1.371 . S
C271 C274 1.480 . S
C272 N269 1.372 . S
C272 N270 1.361 . S
C272 C280 1.457 . S
C273 N268 1.363 . S
C273 N270 1.377 . S
C273 C286 1.479 . S
C274 C271 1.480 . S
C274 C275 1.383 . S
C274 C279 1.385 . S
C275 H256 0.947 . S
C275 C274 1.383 . S
C275 C276 1.388 . S
C276 H257 0.946 . S
C276 C275 1.388 . S
C276 C277 1.384 . S
C277 C276 1.384 . S
C277 C278 1.377 . S
C278 H258 0.953 . S
C278 C277 1.377 . S
C278 C279 1.369 . S
C279 H259 0.945 . S
C279 C274 1.385 . S
C279 C278 1.369 . S
C280 C272 1.457 . S
C280 C281 1.372 . S
C280 C285 1.364 . S
C281 H260 0.952 . S
C281 C280 1.372 . S
C281 C282 1.389 . S
C282 H261 0.949 . S
C282 C281 1.389 . S
C282 C283 1.387 . S
C283 C282 1.387 . S
C283 C284 1.372 . S
C284 H262 0.950 . S
C284 C283 1.372 . S
C284 C285 1.379 . S
C285 H263 0.948 . S
C285 C280 1.364 . S
C285 C284 1.379 . S
C286 C255 1.383 . S
C286 C273 1.479 . S
C286 C287 1.398 . S
C287 C252 1.382 . S
C287 H264 0.951 . S
C287 C286 1.398 . S
Pr288 C290 2.880 . S
Pr288 O308 2.562 . S
Pr288 O309 2.490 . S
Pr288 O310 2.695 1_665 S
Pr288 O311 2.512 1_665 S
Pr288 O313 2.437 1_655 S
Pr288 O316 2.436 . S
Pr288 O318 2.438 1_565 S
Pr289 C299 2.880 . S
Pr289 O310 2.436 . S
Pr289 O312 2.438 1_545 S
Pr289 O314 2.562 . S
Pr289 O315 2.490 . S
Pr289 O316 2.695 1_445 S
Pr289 O317 2.521 1_545 S
Pr289 O319 2.437 1_455 S
C290 Pr288 2.880 . S
C290 C291 1.491 . S
C290 O308 1.254 . S
C290 O309 1.225 . S
C291 C290 1.491 . S
C291 C292 1.392 . S
C291 C296 1.356 . S
C292 C291 1.392 . S
C292 C293 1.368 . S
C292 H320 0.929 . S
C293 C292 1.368 . S
C293 C294 1.386 . S
C293 H321 0.929 . S
C294 C293 1.386 . S
C294 C295 1.373 . S
C295 C294 1.373 . S
C295 C296 1.409 . S
C295 H322 0.931 . S
C296 C291 1.356 . S
C296 C295 1.409 . S
C296 H323 0.930 . S
C297 O310 1.270 . S
C297 O311 1.248 . S
C298 O312 1.267 . S
C298 O313 1.278 . S
C299 Pr289 2.880 . S
C299 C300 1.491 . S
C299 O314 1.254 . S
C299 O315 1.225 . S
C300 C299 1.491 . S
C300 C301 1.392 . S
C300 C305 1.356 . S
C301 C300 1.392 . S
C301 C302 1.368 . S
C301 H324 0.929 . S
C302 C301 1.368 . S
C302 C303 1.386 . S
C302 H325 0.929 . S
C303 C302 1.386 . S
C303 C304 1.373 . S
C304 C303 1.373 . S
C304 C305 1.409 . S
C304 H326 0.931 . S
C305 C300 1.356 . S
C305 C304 1.409 . S
C305 H327 0.930 . S
C306 O316 1.270 . S
C306 O317 1.222 1_655 S
C307 O318 1.267 . S
C307 O319 1.278 . S
O308 Pr288 2.562 . S
O308 C290 1.254 . S
O309 Pr288 2.490 . S
O309 C290 1.225 . S
O310 Pr288 2.695 1_445 S
O310 Pr289 2.436 . S
O310 C297 1.270 . S
O311 Pr288 2.512 1_445 S
O311 C297 1.248 . S
O312 Pr289 2.438 1_565 S
O312 C298 1.267 . S
O313 Pr288 2.437 1_455 S
O313 C298 1.278 . S
O314 Pr289 2.562 . S
O314 C299 1.254 . S
O315 Pr289 2.490 . S
O315 C299 1.225 . S
O316 Pr288 2.436 . S
O316 Pr289 2.695 1_665 S
O316 C306 1.270 . S
O317 Pr289 2.521 1_565 S
O317 C306 1.222 1_455 S
O318 Pr288 2.438 1_545 S
O318 C307 1.267 . S
O319 Pr289 2.437 1_655 S
O319 C307 1.278 . S
H320 C292 0.929 . S
H321 C293 0.929 . S
H322 C295 0.931 . S
H323 C296 0.930 . S
H324 C301 0.929 . S
H325 C302 0.929 . S
H326 C304 0.931 . S
H327 C305 0.930 . S
Pr328 C330 2.880 . S
Pr328 O348 2.562 . S
Pr328 O349 2.490 . S
Pr328 O350 2.695 1_554 S
Pr328 O351 2.512 1_554 S
Pr328 O353 2.437 . S
Pr328 O356 2.436 1_545 S
Pr328 O358 2.438 1_544 S
Pr329 C339 2.880 1_554 S
Pr329 O350 2.436 1_564 S
Pr329 O352 2.438 1_565 S
Pr329 O354 2.562 1_554 S
Pr329 O355 2.490 1_554 S
Pr329 O356 2.695 . S
Pr329 O357 2.512 . S
Pr329 O359 2.437 1_554 S
C330 Pr328 2.880 . S
C330 C331 1.491 . S
C330 O348 1.254 . S
C330 O349 1.225 . S
C331 C330 1.491 . S
C331 C332 1.392 . S
C331 C336 1.356 . S
C332 C331 1.392 . S
C332 C333 1.368 . S
C332 H360 0.929 . S
C333 C332 1.368 . S
C333 C334 1.386 . S
C333 H361 0.929 . S
C334 C333 1.386 . S
C334 C335 1.373 . S
C335 C334 1.373 . S
C335 C336 1.409 . S
C335 H362 0.931 . S
C336 C331 1.356 . S
C336 C335 1.409 . S
C336 H363 0.930 . S
C337 O350 1.270 . S
C337 O351 1.248 . S
C338 O352 1.267 . S
C338 O353 1.278 . S
C339 Pr329 2.880 1_556 S
C339 C340 1.491 . S
C339 O354 1.254 . S
C339 O355 1.225 . S
C340 C339 1.491 . S
C340 C341 1.392 . S
C340 C345 1.356 . S
C341 C340 1.392 . S
C341 C342 1.368 . S
C341 H364 0.929 . S
C342 C341 1.368 . S
C342 C343 1.386 . S
C342 H365 0.929 . S
C343 C342 1.386 . S
C343 C344 1.373 . S
C344 C343 1.373 . S
C344 C345 1.409 . S
C344 H366 0.931 . S
C345 C340 1.356 . S
C345 C344 1.409 . S
C345 H367 0.930 . S
C346 O356 1.270 . S
C346 O357 1.248 . S
C347 O358 1.267 . S
C347 O359 1.278 . S
O348 Pr328 2.562 . S
O348 C330 1.254 . S
O349 Pr328 2.490 . S
O349 C330 1.225 . S
O350 Pr328 2.695 1_556 S
O350 Pr329 2.436 1_546 S
O350 C337 1.270 . S
O351 Pr328 2.512 1_556 S
O351 C337 1.248 . S
O352 Pr329 2.438 1_545 S
O352 C338 1.267 . S
O353 Pr328 2.437 . S
O353 C338 1.278 . S
O354 Pr329 2.562 1_556 S
O354 C339 1.254 . S
O355 Pr329 2.490 1_556 S
O355 C339 1.225 . S
O356 Pr328 2.436 1_565 S
O356 Pr329 2.695 . S
O356 C346 1.270 . S
O357 Pr329 2.512 . S
O357 C346 1.248 . S
O358 Pr328 2.438 1_566 S
O358 C347 1.267 . S
O359 Pr329 2.437 1_556 S
O359 C347 1.278 . S
H360 C332 0.929 . S
H361 C333 0.929 . S
H362 C335 0.931 . S
H363 C336 0.930 . S
H364 C341 0.929 . S
H365 C342 0.929 . S
H366 C344 0.931 . S
H367 C345 0.930 . S
Pr368 C370 2.880 . S
Pr368 O388 2.562 . S
Pr368 O389 2.490 . S
Pr368 O390 2.695 . S
Pr368 O391 2.512 . S
Pr368 O393 2.437 . S
Pr368 O396 2.436 . S
Pr368 O398 2.438 . S
Pr369 C379 2.880 . S
Pr369 O390 2.436 . S
Pr369 O392 2.438 . S
Pr369 O394 2.562 . S
Pr369 O395 2.490 . S
Pr369 O396 2.695 . S
Pr369 O397 2.512 . S
Pr369 O399 2.437 . S
C370 Pr368 2.880 . S
C370 C371 1.491 . S
C370 O388 1.254 . S
C370 O389 1.225 . S
C371 C370 1.491 . S
C371 C372 1.392 . S
C371 C376 1.356 . S
C372 C371 1.392 . S
C372 C373 1.368 . S
C372 H400 0.929 . S
C373 C372 1.368 . S
C373 C374 1.386 . S
C373 H401 0.929 . S
C374 C373 1.386 . S
C374 C375 1.373 . S
C375 C374 1.373 . S
C375 C376 1.409 . S
C375 H402 0.931 . S
C376 C371 1.356 . S
C376 C375 1.409 . S
C376 H403 0.930 . S
C377 O390 1.270 . S
C377 O391 1.248 . S
C378 O392 1.267 . S
C378 O393 1.278 . S
C379 Pr369 2.880 . S
C379 C380 1.491 . S
C379 O394 1.254 . S
C379 O395 1.225 . S
C380 C379 1.491 . S
C380 C381 1.392 . S
C380 C385 1.356 . S
C381 C380 1.392 . S
C381 C382 1.368 . S
C381 H404 0.929 . S
C382 C381 1.368 . S
C382 C383 1.386 . S
C382 H405 0.929 . S
C383 C382 1.386 . S
C383 C384 1.373 . S
C384 C383 1.373 . S
C384 C385 1.409 . S
C384 H406 0.931 . S
C385 C380 1.356 . S
C385 C384 1.409 . S
C385 H407 0.930 . S
C386 O396 1.270 . S
C386 O397 1.248 . S
C387 O398 1.267 . S
C387 O399 1.278 . S
O388 Pr368 2.562 . S
O388 C370 1.254 . S
O389 Pr368 2.490 . S
O389 C370 1.225 . S
O390 Pr368 2.695 . S
O390 Pr369 2.436 . S
O390 C377 1.270 . S
O391 Pr368 2.512 . S
O391 C377 1.248 . S
O392 Pr369 2.438 . S
O392 C378 1.267 . S
O393 Pr368 2.437 . S
O393 C378 1.278 . S
O394 Pr369 2.562 . S
O394 C379 1.254 . S
O395 Pr369 2.490 . S
O395 C379 1.225 . S
O396 Pr368 2.436 . S
O396 Pr369 2.695 . S
O396 C386 1.270 . S
O397 Pr369 2.512 . S
O397 C386 1.248 . S
O398 Pr368 2.438 . S
O398 C387 1.267 . S
O399 Pr369 2.437 . S
O399 C387 1.278 . S
H400 C372 0.929 . S
H401 C373 0.929 . S
H402 C375 0.931 . S
H403 C376 0.930 . S
H404 C381 0.929 . S
H405 C382 0.929 . S
H406 C384 0.931 . S
H407 C385 0.930 . S
Pr408 C410 2.890 . S
Pr408 O428 2.575 . S
Pr408 O429 2.496 . S
Pr408 O430 2.688 1_656 S
Pr408 O431 2.505 1_656 S
Pr408 O433 2.445 1_556 S
Pr408 O436 2.440 . S
Pr408 O438 2.427 1_655 S
Pr409 C419 2.880 . S
Pr409 O430 2.436 . S
Pr409 O432 2.438 1_455 S
Pr409 O434 2.562 . S
Pr409 O435 2.490 . S
Pr409 O436 2.695 1_454 S
Pr409 O437 2.512 1_454 S
Pr409 O439 2.437 1_554 S
C410 Pr408 2.890 . S
C410 C411 1.491 . S
C410 O428 1.254 . S
C410 O429 1.225 . S
C411 C410 1.491 . S
C411 C412 1.392 . S
C411 C416 1.356 . S
C412 C411 1.392 . S
C412 C413 1.368 . S
C412 H440 0.929 . S
C413 C412 1.368 . S
C413 C414 1.386 . S
C413 H441 0.929 . S
C414 C413 1.386 . S
C414 C415 1.373 . S
C415 C414 1.373 . S
C415 C416 1.409 . S
C415 H442 0.931 . S
C416 C411 1.356 . S
C416 C415 1.409 . S
C416 H443 0.930 . S
C417 O430 1.270 . S
C417 O431 1.248 . S
C418 O432 1.267 . S
C418 O433 1.278 . S
C419 Pr409 2.880 . S
C419 C420 1.491 . S
C419 O434 1.254 . S
C419 O435 1.225 . S
C420 C419 1.491 . S
C420 C421 1.392 . S
C420 C425 1.356 . S
C421 C420 1.392 . S
C421 C422 1.368 . S
C421 H444 0.929 . S
C422 C421 1.368 . S
C422 C423 1.386 . S
C422 H445 0.929 . S
C423 C422 1.386 . S
C423 C424 1.373 . S
C424 C423 1.373 . S
C424 C425 1.409 . S
C424 H446 0.931 . S
C425 C420 1.356 . S
C425 C424 1.409 . S
C425 H447 0.930 . S
C426 O436 1.270 . S
C426 O437 1.248 . S
C427 O438 1.267 . S
C427 O439 1.278 . S
O428 Pr408 2.575 . S
O428 C410 1.254 . S
O429 Pr408 2.496 . S
O429 C410 1.225 . S
O430 Pr408 2.688 1_454 S
O430 Pr409 2.436 . S
O430 C417 1.270 . S
O431 Pr408 2.505 1_454 S
O431 C417 1.248 . S
O432 Pr409 2.438 1_655 S
O432 C418 1.267 . S
O433 Pr408 2.445 1_554 S
O433 C418 1.278 . S
O434 Pr409 2.562 . S
O434 C419 1.254 . S
O435 Pr409 2.490 . S
O435 C419 1.225 . S
O436 Pr408 2.440 . S
O436 Pr409 2.695 1_656 S
O436 C426 1.270 . S
O437 Pr409 2.512 1_656 S
O437 C426 1.248 . S
O438 Pr408 2.427 1_455 S
O438 C427 1.267 . S
O439 Pr409 2.437 1_556 S
O439 C427 1.278 . S
H440 C412 0.929 . S
H441 C413 0.929 . S
H442 C415 0.931 . S
H443 C416 0.930 . S
H444 C421 0.929 . S
H445 C422 0.929 . S
H446 C424 0.931 . S
H447 C425 0.930 . S
H448 C454 0.930 . S
H449 C457 0.930 . S
H450 C458 0.930 . S
H451 C459 0.930 . S
H452 C462 0.930 . S
H453 C463 0.930 . S
C454 H448 0.930 . S
C454 C455 1.355 . S
C454 C456 1.415 . S
C455 C454 1.355 . S
C455 C457 1.419 . S
C456 C454 1.415 . S
C456 C461 1.425 . S
C456 C463 1.409 . S
C457 H449 0.930 . S
C457 C455 1.419 . S
C457 C458 1.362 . S
C458 H450 0.930 . S
C458 C457 1.362 . S
C458 C461 1.409 . S
C459 H451 0.930 . S
C459 C460 1.355 . S
C459 C461 1.415 . S
C460 C459 1.355 . S
C460 C462 1.419 . S
C461 C456 1.425 . S
C461 C458 1.409 . S
C461 C459 1.415 . S
C462 H452 0.930 . S
C462 C460 1.419 . S
C462 C463 1.362 . S
C463 H453 0.930 . S
C463 C456 1.409 . S
C463 C462 1.362 . S
H464 C470 0.930 . S
H465 C473 0.930 . S
H466 C474 0.930 . S
H467 C475 0.930 . S
H468 C478 0.930 . S
H469 C479 0.930 . S
C470 H464 0.930 . S
C470 C471 1.355 . S
C470 C472 1.415 . S
C471 C470 1.355 . S
C471 C473 1.419 . S
C472 C470 1.415 . S
C472 C477 1.425 . S
C472 C479 1.409 . S
C473 H465 0.930 . S
C473 C471 1.419 . S
C473 C474 1.362 . S
C474 H466 0.930 . S
C474 C473 1.362 . S
C474 C477 1.409 . S
C475 H467 0.930 . S
C475 C476 1.355 . S
C475 C477 1.415 . S
C476 C475 1.355 . S
C476 C478 1.419 . S
C477 C472 1.425 . S
C477 C474 1.409 . S
C477 C475 1.415 . S
C478 H468 0.930 . S
C478 C476 1.419 . S
C478 C479 1.362 . S
C479 H469 0.930 . S
C479 C472 1.409 . S
C479 C478 1.362 . S
H480 C486 0.930 . S
H481 C489 0.930 . S
H482 C490 0.930 . S
H483 C491 0.930 . S
H484 C494 0.930 . S
H485 C495 0.930 . S
C486 H480 0.930 . S
C486 C487 1.355 . S
C486 C488 1.415 . S
C487 C486 1.355 . S
C487 C489 1.419 . S
C488 C486 1.415 . S
C488 C493 1.425 . S
C488 C495 1.409 . S
C489 H481 0.930 . S
C489 C487 1.419 . S
C489 C490 1.362 . S
C490 H482 0.930 . S
C490 C489 1.362 . S
C490 C493 1.409 . S
C491 H483 0.930 . S
C491 C492 1.355 . S
C491 C493 1.415 . S
C492 C491 1.355 . S
C492 C494 1.419 . S
C493 C488 1.425 . S
C493 C490 1.409 . S
C493 C491 1.415 . S
C494 H484 0.930 . S
C494 C492 1.419 . S
C494 C495 1.362 . S
C495 H485 0.930 . S
C495 C488 1.409 . S
C495 C494 1.362 . S
H496 C502 0.930 . S
H497 C505 0.930 . S
H498 C506 0.930 . S
H499 C507 0.930 . S
H500 C510 0.930 . S
H501 C511 0.930 . S
C502 H496 0.930 . S
C502 C503 1.355 . S
C502 C504 1.415 . S
C503 C502 1.355 . S
C503 C505 1.419 . S
C504 C502 1.415 . S
C504 C509 1.425 . S
C504 C511 1.409 . S
C505 H497 0.930 . S
C505 C503 1.419 . S
C505 C506 1.362 . S
C506 H498 0.930 . S
C506 C505 1.362 . S
C506 C509 1.409 . S
C507 H499 0.930 . S
C507 C508 1.355 . S
C507 C509 1.415 . S
C508 C507 1.355 . S
C508 C510 1.419 . S
C509 C504 1.425 . S
C509 C506 1.409 . S
C509 C507 1.415 . S
C510 H500 0.930 . S
C510 C508 1.419 . S
C510 C511 1.362 . S
C511 H501 0.930 . S
C511 C504 1.409 . S
C511 C510 1.362 . S
H512 C518 0.930 . S
H513 C521 0.930 . S
H514 C522 0.930 . S
H515 C523 0.930 . S
H516 C526 0.930 . S
H517 C527 0.930 . S
C518 H512 0.930 . S
C518 C519 1.355 . S
C518 C520 1.415 . S
C519 C518 1.355 . S
C519 C521 1.419 . S
C520 C518 1.415 . S
C520 C525 1.425 . S
C520 C527 1.409 . S
C521 H513 0.930 . S
C521 C519 1.419 . S
C521 C522 1.362 . S
C522 H514 0.930 . S
C522 C521 1.362 . S
C522 C525 1.409 . S
C523 H515 0.930 . S
C523 C524 1.355 . S
C523 C525 1.415 . S
C524 C523 1.355 . S
C524 C526 1.419 . S
C525 C520 1.425 . S
C525 C522 1.409 . S
C525 C523 1.415 . S
C526 H516 0.930 . S
C526 C524 1.419 . S
C526 C527 1.362 . S
C527 H517 0.930 . S
C527 C520 1.409 . S
C527 C526 1.362 . S
H528 C534 0.930 . S
H529 C537 0.930 . S
H530 C538 0.930 . S
H531 C539 0.930 . S
H532 C542 0.930 . S
H533 C543 0.930 . S
C534 H528 0.930 . S
C534 C535 1.355 . S
C534 C536 1.415 . S
C535 C534 1.355 . S
C535 C537 1.419 . S
C536 C534 1.415 . S
C536 C541 1.425 . S
C536 C543 1.409 . S
C537 H529 0.930 . S
C537 C535 1.419 . S
C537 C538 1.362 . S
C538 H530 0.930 . S
C538 C537 1.362 . S
C538 C541 1.409 . S
C539 H531 0.930 . S
C539 C540 1.355 . S
C539 C541 1.415 . S
C540 C539 1.355 . S
C540 C542 1.419 . S
C541 C536 1.425 . S
C541 C538 1.409 . S
C541 C539 1.415 . S
C542 H532 0.930 . S
C542 C540 1.419 . S
C542 C543 1.362 . S
C543 H533 0.930 . S
C543 C536 1.409 . S
C543 C542 1.362 . S
H544 C550 0.930 . S
H545 C553 0.930 . S
H546 C554 0.930 . S
H547 C555 0.930 . S
H548 C558 0.930 . S
H549 C559 0.930 . S
C550 H544 0.930 . S
C550 C551 1.355 . S
C550 C552 1.415 . S
C551 C550 1.355 . S
C551 C553 1.419 . S
C552 C550 1.415 . S
C552 C557 1.425 . S
C552 C559 1.409 . S
C553 H545 0.930 . S
C553 C551 1.419 . S
C553 C554 1.362 . S
C554 H546 0.930 . S
C554 C553 1.362 . S
C554 C557 1.409 . S
C555 H547 0.930 . S
C555 C556 1.355 . S
C555 C557 1.415 . S
C556 C555 1.355 . S
C556 C558 1.419 . S
C557 C552 1.425 . S
C557 C554 1.409 . S
C557 C555 1.415 . S
C558 H548 0.930 . S
C558 C556 1.419 . S
C558 C559 1.362 . S
C559 H549 0.930 . S
C559 C552 1.409 . S
C559 C558 1.362 . S
H560 C566 0.930 . S
H561 C569 0.930 . S
H562 C570 0.930 . S
H563 C571 0.930 . S
H564 C574 0.930 . S
H565 C575 0.930 . S
C566 H560 0.930 . S
C566 C567 1.355 . S
C566 C568 1.415 . S
C567 C566 1.355 . S
C567 C569 1.419 . S
C568 C566 1.415 . S
C568 C573 1.425 . S
C568 C575 1.409 . S
C569 H561 0.930 . S
C569 C567 1.419 . S
C569 C570 1.362 . S
C570 H562 0.930 . S
C570 C569 1.362 . S
C570 C573 1.409 . S
C571 H563 0.930 . S
C571 C572 1.355 . S
C571 C573 1.415 . S
C572 C571 1.355 . S
C572 C574 1.419 . S
C573 C568 1.425 . S
C573 C570 1.409 . S
C573 C571 1.415 . S
C574 H564 0.930 . S
C574 C572 1.419 . S
C574 C575 1.362 . S
C575 H565 0.930 . S
C575 C568 1.409 . S
C575 C574 1.362 . S
H576 C582 0.930 . S
H577 C585 0.930 . S
H578 C586 0.930 . S
H579 C587 0.930 . S
H580 C590 0.930 . S
H581 C591 0.930 . S
C582 H576 0.930 . S
C582 C583 1.355 . S
C582 C584 1.415 . S
C583 C582 1.355 . S
C583 C585 1.419 . S
C584 C582 1.415 . S
C584 C589 1.425 . S
C584 C591 1.409 . S
C585 H577 0.930 . S
C585 C583 1.419 . S
C585 C586 1.362 . S
C586 H578 0.930 . S
C586 C585 1.362 . S
C586 C589 1.409 . S
C587 H579 0.930 . S
C587 C588 1.355 . S
C587 C589 1.415 . S
C588 C587 1.355 . S
C588 C590 1.419 . S
C589 C584 1.425 . S
C589 C586 1.409 . S
C589 C587 1.415 . S
C590 H580 0.930 . S
C590 C588 1.419 . S
C590 C591 1.362 . S
C591 H581 0.930 . S
C591 C584 1.409 . S
C591 C590 1.362 . S
H592 C598 0.930 . S
H593 C601 0.930 . S
H594 C602 0.930 . S
H595 C603 0.930 . S
H596 C606 0.930 . S
H597 C607 0.930 . S
C598 H592 0.930 . S
C598 C599 1.355 . S
C598 C600 1.415 . S
C599 C598 1.355 . S
C599 C601 1.419 . S
C600 C598 1.415 . S
C600 C605 1.425 . S
C600 C607 1.409 . S
C601 H593 0.930 . S
C601 C599 1.419 . S
C601 C602 1.362 . S
C602 H594 0.930 . S
C602 C601 1.362 . S
C602 C605 1.409 . S
C603 H595 0.930 . S
C603 C604 1.355 . S
C603 C605 1.415 . S
C604 C603 1.355 . S
C604 C606 1.419 . S
C605 C600 1.425 . S
C605 C602 1.409 . S
C605 C603 1.415 . S
C606 H596 0.930 . S
C606 C604 1.419 . S
C606 C607 1.362 . S
C607 H597 0.930 . S
C607 C600 1.409 . S
C607 C606 1.362 . S
H608 C614 0.930 . S
H609 C617 0.930 . S
H610 C618 0.930 . S
H611 C619 0.930 . S
H612 C622 0.930 . S
H613 C623 0.930 . S
C614 H608 0.930 . S
C614 C615 1.355 . S
C614 C616 1.415 . S
C615 C614 1.355 . S
C615 C617 1.419 . S
C616 C614 1.415 . S
C616 C621 1.425 . S
C616 C623 1.409 . S
C617 H609 0.930 . S
C617 C615 1.419 . S
C617 C618 1.362 . S
C618 H610 0.930 . S
C618 C617 1.362 . S
C618 C621 1.409 . S
C619 H611 0.930 . S
C619 C620 1.355 . S
C619 C621 1.415 . S
C620 C619 1.355 . S
C620 C622 1.419 . S
C621 C616 1.425 . S
C621 C618 1.409 . S
C621 C619 1.415 . S
C622 H612 0.930 . S
C622 C620 1.419 . S
C622 C623 1.362 . S
C623 H613 0.930 . S
C623 C616 1.409 . S
C623 C622 1.362 . S
H624 C630 0.930 . S
H625 C633 0.930 . S
H626 C634 0.930 . S
H627 C635 0.930 . S
H628 C638 0.930 . S
H629 C639 0.930 . S
C630 H624 0.930 . S
C630 C631 1.355 . S
C630 C632 1.415 . S
C631 C630 1.355 . S
C631 C633 1.419 . S
C632 C630 1.415 . S
C632 C637 1.425 . S
C632 C639 1.409 . S
C633 H625 0.930 . S
C633 C631 1.419 . S
C633 C634 1.362 . S
C634 H626 0.930 . S
C634 C633 1.362 . S
C634 C637 1.409 . S
C635 H627 0.930 . S
C635 C636 1.355 . S
C635 C637 1.415 . S
C636 C635 1.355 . S
C636 C638 1.419 . S
C637 C632 1.425 . S
C637 C634 1.409 . S
C637 C635 1.415 . S
C638 H628 0.930 . S
C638 C636 1.419 . S
C638 C639 1.362 . S
C639 H629 0.930 . S
C639 C632 1.409 . S
C639 C638 1.362 . S
H640 C646 0.930 . S
H641 C649 0.930 . S
H642 C650 0.930 . S
H643 C651 0.930 . S
H644 C654 0.930 . S
H645 C655 0.930 . S
C646 H640 0.930 . S
C646 C647 1.355 . S
C646 C648 1.415 . S
C647 C646 1.355 . S
C647 C649 1.419 . S
C648 C646 1.415 . S
C648 C653 1.425 . S
C648 C655 1.409 . S
C649 H641 0.930 . S
C649 C647 1.419 . S
C649 C650 1.362 . S
C650 H642 0.930 . S
C650 C649 1.362 . S
C650 C653 1.409 . S
C651 H643 0.930 . S
C651 C652 1.355 . S
C651 C653 1.415 . S
C652 C651 1.355 . S
C652 C654 1.419 . S
C653 C648 1.425 . S
C653 C650 1.409 . S
C653 C651 1.415 . S
C654 H644 0.930 . S
C654 C652 1.419 . S
C654 C655 1.362 . S
C655 H645 0.930 . S
C655 C648 1.409 . S
C655 C654 1.362 . S
H656 C662 0.930 . S
H657 C665 0.930 . S
H658 C666 0.930 . S
H659 C667 0.930 . S
H660 C670 0.930 . S
H661 C671 0.930 . S
C662 H656 0.930 . S
C662 C663 1.355 . S
C662 C664 1.415 . S
C663 C662 1.355 . S
C663 C665 1.419 . S
C664 C662 1.415 . S
C664 C669 1.425 . S
C664 C671 1.409 . S
C665 H657 0.930 . S
C665 C663 1.419 . S
C665 C666 1.362 . S
C666 H658 0.930 . S
C666 C665 1.362 . S
C666 C669 1.409 . S
C667 H659 0.930 . S
C667 C668 1.355 . S
C667 C669 1.415 . S
C668 C667 1.355 . S
C668 C670 1.419 . S
C669 C664 1.425 . S
C669 C666 1.409 . S
C669 C667 1.415 . S
C670 H660 0.930 . S
C670 C668 1.419 . S
C670 C671 1.362 . S
C671 H661 0.930 . S
C671 C664 1.409 . S
C671 C670 1.362 . S
H672 C678 0.930 . S
H673 C681 0.930 . S
H674 C682 0.930 . S
H675 C683 0.930 . S
H676 C686 0.930 . S
H677 C687 0.930 . S
C678 H672 0.930 . S
C678 C679 1.355 . S
C678 C680 1.415 . S
C679 C678 1.355 . S
C679 C681 1.419 . S
C680 C678 1.415 . S
C680 C685 1.425 . S
C680 C687 1.409 . S
C681 H673 0.930 . S
C681 C679 1.419 . S
C681 C682 1.362 . S
C682 H674 0.930 . S
C682 C681 1.362 . S
C682 C685 1.409 . S
C683 H675 0.930 . S
C683 C684 1.355 . S
C683 C685 1.415 . S
C684 C683 1.355 . S
C684 C686 1.419 . S
C685 C680 1.425 . S
C685 C682 1.409 . S
C685 C683 1.415 . S
C686 H676 0.930 . S
C686 C684 1.419 . S
C686 C687 1.362 . S
C687 H677 0.930 . S
C687 C680 1.409 . S
C687 C686 1.362 . S
H688 C694 0.930 . S
H689 C697 0.930 . S
H690 C698 0.930 . S
H691 C699 0.930 . S
H692 C702 0.930 . S
H693 C703 0.930 . S
C694 H688 0.930 . S
C694 C695 1.355 . S
C694 C696 1.415 . S
C695 C694 1.355 . S
C695 C697 1.419 . S
C696 C694 1.415 . S
C696 C701 1.425 . S
C696 C703 1.409 . S
C697 H689 0.930 . S
C697 C695 1.419 . S
C697 C698 1.362 . S
C698 H690 0.930 . S
C698 C697 1.362 . S
C698 C701 1.409 . S
C699 H691 0.930 . S
C699 C700 1.355 . S
C699 C701 1.415 . S
C700 C699 1.355 . S
C700 C702 1.419 . S
C701 C696 1.425 . S
C701 C698 1.409 . S
C701 C699 1.415 . S
C702 H692 0.930 . S
C702 C700 1.419 . S
C702 C703 1.362 . S
C703 H693 0.930 . S
C703 C696 1.409 . S
C703 C702 1.362 . S
H704 C710 0.930 . S
H705 C713 0.930 . S
H706 C714 0.930 . S
H707 C715 0.930 . S
H708 C718 0.930 . S
H709 C719 0.930 . S
C710 H704 0.930 . S
C710 C711 1.355 . S
C710 C712 1.415 . S
C711 C710 1.355 . S
C711 C713 1.419 . S
C712 C710 1.415 . S
C712 C717 1.425 . S
C712 C719 1.409 . S
C713 H705 0.930 . S
C713 C711 1.419 . S
C713 C714 1.362 . S
C714 H706 0.930 . S
C714 C713 1.362 . S
C714 C717 1.409 . S
C715 H707 0.930 . S
C715 C716 1.355 . S
C715 C717 1.415 . S
C716 C715 1.355 . S
C716 C718 1.419 . S
C717 C712 1.425 . S
C717 C714 1.409 . S
C717 C715 1.415 . S
C718 H708 0.930 . S
C718 C716 1.419 . S
C718 C719 1.362 . S
C719 H709 0.930 . S
C719 C712 1.409 . S
C719 C718 1.362 . S
H720 C726 0.930 . S
H721 C729 0.930 . S
H722 C730 0.930 . S
H723 C731 0.930 . S
H724 C734 0.930 1_455 S
H725 C735 0.930 . S
C726 H720 0.930 . S
C726 C727 1.355 . S
C726 C728 1.415 . S
C727 C726 1.355 . S
C727 C729 1.419 . S
C728 C726 1.415 . S
C728 C733 1.425 . S
C728 C735 1.409 . S
C729 H721 0.930 . S
C729 C727 1.419 . S
C729 C730 1.362 . S
C730 H722 0.930 . S
C730 C729 1.362 . S
C730 C733 1.409 . S
C731 H723 0.930 . S
C731 C732 1.355 . S
C731 C733 1.415 . S
C732 C731 1.355 . S
C732 C734 1.419 . S
C733 C728 1.425 . S
C733 C730 1.409 . S
C733 C731 1.415 . S
C734 H724 0.930 1_655 S
C734 C732 1.419 . S
C734 C735 1.362 . S
C735 H725 0.930 . S
C735 C728 1.409 . S
C735 C734 1.362 . S
H736 C742 0.930 . S
H737 C745 0.930 . S
H738 C746 0.930 . S
H739 C747 0.930 . S
H740 C750 0.930 . S
H741 C751 0.930 . S
C742 H736 0.930 . S
C742 C743 1.355 . S
C742 C744 1.415 . S
C743 C742 1.355 . S
C743 C745 1.419 . S
C744 C742 1.415 . S
C744 C749 1.425 . S
C744 C751 1.409 . S
C745 H737 0.930 . S
C745 C743 1.419 . S
C745 C746 1.362 . S
C746 H738 0.930 . S
C746 C745 1.362 . S
C746 C749 1.409 . S
C747 H739 0.930 . S
C747 C748 1.355 . S
C747 C749 1.415 . S
C748 C747 1.355 . S
C748 C750 1.419 . S
C749 C744 1.425 . S
C749 C746 1.409 . S
C749 C747 1.415 . S
C750 H740 0.930 . S
C750 C748 1.419 . S
C750 C751 1.362 . S
C751 H741 0.930 . S
C751 C744 1.409 . S
C751 C750 1.362 . S
H752 C758 0.930 . S
H753 C761 0.930 . S
H754 C762 0.930 . S
H755 C763 0.930 . S
H756 C766 0.930 . S
H757 C767 0.930 . S
C758 H752 0.930 . S
C758 C759 1.355 . S
C758 C760 1.415 . S
C759 C758 1.355 . S
C759 C761 1.419 . S
C760 C758 1.415 . S
C760 C765 1.425 . S
C760 C767 1.409 . S
C761 H753 0.930 . S
C761 C759 1.419 . S
C761 C762 1.362 . S
C762 H754 0.930 . S
C762 C761 1.362 . S
C762 C765 1.409 . S
C763 H755 0.930 . S
C763 C764 1.355 . S
C763 C765 1.415 . S
C764 C763 1.355 . S
C764 C766 1.419 . S
C765 C760 1.425 . S
C765 C762 1.409 . S
C765 C763 1.415 . S
C766 H756 0.930 . S
C766 C764 1.419 . S
C766 C767 1.362 . S
C767 H757 0.930 . S
C767 C760 1.409 . S
C767 C766 1.362 . S
H768 C774 0.930 . S
H769 C777 0.930 . S
H770 C778 0.930 . S
H771 C779 0.930 . S
H772 C782 0.930 . S
H773 C783 0.930 . S
C774 H768 0.930 . S
C774 C775 1.355 . S
C774 C776 1.415 . S
C775 C774 1.355 . S
C775 C777 1.419 . S
C776 C774 1.415 . S
C776 C781 1.425 . S
C776 C783 1.409 . S
C777 H769 0.930 . S
C777 C775 1.419 . S
C777 C778 1.362 . S
C778 H770 0.930 . S
C778 C777 1.362 . S
C778 C781 1.409 . S
C779 H771 0.930 . S
C779 C780 1.355 . S
C779 C781 1.415 . S
C780 C779 1.355 . S
C780 C782 1.419 . S
C781 C776 1.425 . S
C781 C778 1.409 . S
C781 C779 1.415 . S
C782 H772 0.930 . S
C782 C780 1.419 . S
C782 C783 1.362 . S
C783 H773 0.930 . S
C783 C776 1.409 . S
C783 C782 1.362 . S
H784 C790 0.930 . S
H785 C793 0.930 . S
H786 C794 0.930 . S
H787 C795 0.930 . S
H788 C798 0.930 . S
H789 C799 0.930 . S
C790 H784 0.930 . S
C790 C791 1.355 . S
C790 C792 1.415 . S
C791 C790 1.355 . S
C791 C793 1.419 . S
C792 C790 1.415 . S
C792 C797 1.425 . S
C792 C799 1.409 . S
C793 H785 0.930 . S
C793 C791 1.419 . S
C793 C794 1.362 . S
C794 H786 0.930 . S
C794 C793 1.362 . S
C794 C797 1.409 . S
C795 H787 0.930 . S
C795 C796 1.355 . S
C795 C797 1.415 . S
C796 C795 1.355 . S
C796 C798 1.419 . S
C797 C792 1.425 . S
C797 C794 1.409 . S
C797 C795 1.415 . S
C798 H788 0.930 . S
C798 C796 1.419 . S
C798 C799 1.362 . S
C799 H789 0.930 . S
C799 C792 1.409 . S
C799 C798 1.362 . S
H800 C806 0.930 . S
H801 C809 0.930 . S
H802 C810 0.930 . S
H803 C811 0.930 . S
H804 C814 0.930 . S
H805 C815 0.930 . S
C806 H800 0.930 . S
C806 C807 1.355 . S
C806 C808 1.415 . S
C807 C806 1.355 . S
C807 C809 1.419 . S
C808 C806 1.415 . S
C808 C813 1.425 . S
C808 C815 1.409 . S
C809 H801 0.930 . S
C809 C807 1.419 . S
C809 C810 1.362 . S
C810 H802 0.930 . S
C810 C809 1.362 . S
C810 C813 1.409 . S
C811 H803 0.930 . S
C811 C812 1.355 . S
C811 C813 1.415 . S
C812 C811 1.355 . S
C812 C814 1.419 . S
C813 C808 1.425 . S
C813 C810 1.409 . S
C813 C811 1.415 . S
C814 H804 0.930 . S
C814 C812 1.419 . S
C814 C815 1.362 . S
C815 H805 0.930 . S
C815 C808 1.409 . S
C815 C814 1.362 . S
H816 C822 0.930 . S
H817 C825 0.930 . S
H818 C826 0.930 . S
H819 C827 0.930 . S
H820 C830 0.930 . S
H821 C831 0.930 . S
C822 H816 0.930 . S
C822 C823 1.355 . S
C822 C824 1.415 . S
C823 C822 1.355 . S
C823 C825 1.419 . S
C824 C822 1.415 . S
C824 C829 1.425 . S
C824 C831 1.409 . S
C825 H817 0.930 . S
C825 C823 1.419 . S
C825 C826 1.362 . S
C826 H818 0.930 . S
C826 C825 1.362 . S
C826 C829 1.409 . S
C827 H819 0.930 . S
C827 C828 1.355 . S
C827 C829 1.415 . S
C828 C827 1.355 . S
C828 C830 1.419 . S
C829 C824 1.425 . S
C829 C826 1.409 . S
C829 C827 1.415 . S
C830 H820 0.930 . S
C830 C828 1.419 . S
C830 C831 1.362 . S
C831 H821 0.930 . S
C831 C824 1.409 . S
C831 C830 1.362 . S
C455 C1 1.240 . S
C460 C303 1.248 . S
C471 C67 1.689 . S
C476 C347 1.650 . S
C492 C377 2.226 . S
C487 C97 2.207 . S
C503 C133 2.758 . S
C508 C418 2.766 . S
C524 C334 0.823 . S
C519 C25 0.797 . S
C540 C298 2.508 . S
C535 C37 2.494 . S
C556 C426 1.175 . S
C551 C103 1.195 . S
C572 C387 2.341 . S
C567 C109 2.375 . S
C583 C31 1.305 . S
C588 C423 1.316 . S
C604 C337 2.088 . S
C599 C73 2.124 . S
C615 C139 2.058 . S
C620 C306 2.040 . S
C631 C61 1.946 . S
C636 C374 1.957 . S
C652 C294 1.143 . S
C647 C175 1.088 . S
C663 C181 1.671 . S
C668 C338 1.647 . S
C679 C247 2.187 . S
C684 C386 2.273 . S
C695 C277 2.758 . S
C700 C427 2.760 . S
C711 C145 0.838 . S
C716 C343 0.869 . S
C732 C307 2.521 . S
C727 C211 2.460 . S
C748 C417 1.171 . S
C743 C217 1.133 . S
C764 C378 2.308 . S
C759 C283 2.332 . S
C775 C169 1.256 . S
C780 C414 1.313 . S
C796 C346 2.062 . S
C791 C241 2.109 . S
C812 C297 2.030 . S
C807 C253 2.063 . S
C823 C205 1.985 . S
C828 C383 1.975 . S
