# Generated by pormake.
# Topology pyr, (3,6)-cn, num edge types: 1
# Building blocks:
#     Node 0, Type 0, BuildingBlock: PAMTOO_clean_linker_0, # of connection points: 3
#     Node 1, Type 0, BuildingBlock: PAMTOO_clean_linker_0, # of connection points: 3
#     Node 2, Type 0, BuildingBlock: PAMTOO_clean_linker_0, # of connection points: 3
#     Node 3, Type 0, BuildingBlock: PAMTOO_clean_linker_0, # of connection points: 3
#     Node 4, Type 0, BuildingBlock: PAMTOO_clean_linker_0, # of connection points: 3
#     Node 5, Type 0, BuildingBlock: PAMTOO_clean_linker_0, # of connection points: 3
#     Node 6, Type 0, BuildingBlock: PAMTOO_clean_linker_0, # of connection points: 3
#     Node 7, Type 0, BuildingBlock: PAMTOO_clean_linker_0, # of connection points: 3
#     Node 8, Type 1, BuildingBlock: BETDAH_clean_sbu_0, # of connection points: 6
#     Node 9, Type 1, BuildingBlock: BETDAH_clean_sbu_0, # of connection points: 6
#     Node 10, Type 1, BuildingBlock: BETDAH_clean_sbu_0, # of connection points: 6
#     Node 11, Type 1, BuildingBlock: BETDAH_clean_sbu_0, # of connection points: 6
#     Edge 12, Type (0, 1), BuildingBlock: UVAHIK_clean_linker_0, # of connection points: 2
#     Edge 13, Type (0, 1), BuildingBlock: UVAHIK_clean_linker_0, # of connection points: 2
#     Edge 14, Type (0, 1), BuildingBlock: UVAHIK_clean_linker_0, # of connection points: 2
#     Edge 15, Type (0, 1), BuildingBlock: UVAHIK_clean_linker_0, # of connection points: 2
#     Edge 16, Type (0, 1), BuildingBlock: UVAHIK_clean_linker_0, # of connection points: 2
#     Edge 17, Type (0, 1), BuildingBlock: UVAHIK_clean_linker_0, # of connection points: 2
#     Edge 18, Type (0, 1), BuildingBlock: UVAHIK_clean_linker_0, # of connection points: 2
#     Edge 19, Type (0, 1), BuildingBlock: UVAHIK_clean_linker_0, # of connection points: 2
#     Edge 20, Type (0, 1), BuildingBlock: UVAHIK_clean_linker_0, # of connection points: 2
#     Edge 21, Type (0, 1), BuildingBlock: UVAHIK_clean_linker_0, # of connection points: 2
#     Edge 22, Type (0, 1), BuildingBlock: UVAHIK_clean_linker_0, # of connection points: 2
#     Edge 23, Type (0, 1), BuildingBlock: UVAHIK_clean_linker_0, # of connection points: 2
#     Edge 24, Type (0, 1), BuildingBlock: UVAHIK_clean_linker_0, # of connection points: 2
#     Edge 25, Type (0, 1), BuildingBlock: UVAHIK_clean_linker_0, # of connection points: 2
#     Edge 26, Type (0, 1), BuildingBlock: UVAHIK_clean_linker_0, # of connection points: 2
#     Edge 27, Type (0, 1), BuildingBlock: UVAHIK_clean_linker_0, # of connection points: 2
#     Edge 28, Type (0, 1), BuildingBlock: UVAHIK_clean_linker_0, # of connection points: 2
#     Edge 29, Type (0, 1), BuildingBlock: UVAHIK_clean_linker_0, # of connection points: 2
#     Edge 30, Type (0, 1), BuildingBlock: UVAHIK_clean_linker_0, # of connection points: 2
#     Edge 31, Type (0, 1), BuildingBlock: UVAHIK_clean_linker_0, # of connection points: 2
#     Edge 32, Type (0, 1), BuildingBlock: UVAHIK_clean_linker_0, # of connection points: 2
#     Edge 33, Type (0, 1), BuildingBlock: UVAHIK_clean_linker_0, # of connection points: 2
#     Edge 34, Type (0, 1), BuildingBlock: UVAHIK_clean_linker_0, # of connection points: 2
#     Edge 35, Type (0, 1), BuildingBlock: UVAHIK_clean_linker_0, # of connection points: 2
# Relax obj value: 0.136
# Max RMSD: 0.214
# Mean RMSD: 0.147
data_MOF--net-pyr--node1-BETDAH_clean_sbu_0--node2-PAMTOO_clean_linker_0--edge1-UVAHIK_clean_linker_0
_symmetry_space_group_name_H-M    P1
_symmetry_Int_Tables_number       1
_symmetry_cell_setting            triclinic
loop_
_symmetry_equiv_pos_as_xyz
'x, y, z'
_cell_length_a     47.862614
_cell_length_b     53.008332
_cell_length_c     47.409542
_cell_angle_alpha  91.73501
_cell_angle_beta   89.789388
_cell_angle_gamma 103.5532
loop_
_atom_site_label
_atom_site_type_symbol
_atom_site_fract_x
_atom_site_fract_y
_atom_site_fract_z
_atom_type_partial_charge
H0 H 0.30773 0.29381 0.23465 0.0
H1 H 0.36528 0.24269 0.22596 0.0
H2 H 0.37543 0.30814 0.17288 0.0
H3 H 0.39861 0.26824 0.14091 0.0
C4 C 0.38837 0.25444 0.15719 0.0
O5 O 0.39346 0.26672 0.18344 0.0
H6 H 0.36492 0.24891 0.15219 0.0
C7 C 0.32658 0.28915 0.22512 0.0
C8 C 0.34051 0.30405 0.20288 0.0
C9 C 0.33553 0.26721 0.23403 0.0
C10 C 0.35838 0.25984 0.21994 0.0
C11 C 0.37257 0.27465 0.19797 0.0
C12 C 0.36416 0.29699 0.18998 0.0
H13 H 0.28916 0.8767 0.66903 0.0
H14 H 0.26623 0.84547 0.58526 0.0
H15 H 0.33202 0.82121 0.63095 0.0
H16 H 0.33133 0.84796 0.56468 0.0
C17 C 0.32174 0.82677 0.56142 0.0
O18 O 0.3035 0.81692 0.58314 0.0
H19 H 0.30919 0.82451 0.54145 0.0
C20 C 0.29172 0.86371 0.6516 0.0
C21 C 0.31219 0.84865 0.65339 0.0
C22 C 0.27502 0.86268 0.62718 0.0
C23 C 0.27858 0.84617 0.60451 0.0
C24 C 0.29929 0.83156 0.60581 0.0
C25 C 0.31607 0.8327 0.63018 0.0
H26 H 0.72505 0.32349 0.90568 0.0
H27 H 0.66168 0.31433 0.83936 0.0
H28 H 0.73046 0.38276 0.84421 0.0
H29 H 0.66832 0.38762 0.83478 0.0
C30 C 0.66395 0.37358 0.81647 0.0
O31 O 0.68468 0.35905 0.81569 0.0
H32 H 0.64256 0.36036 0.81992 0.0
C33 C 0.7166 0.33079 0.88727 0.0
C34 C 0.7311 0.35511 0.87689 0.0
C35 C 0.69148 0.31562 0.87413 0.0
C36 C 0.68086 0.32544 0.84992 0.0
C37 C 0.69466 0.34987 0.8394 0.0
C38 C 0.71965 0.36441 0.85294 0.0
H39 H 0.88009 0.7275 0.40699 0.0
H40 H 0.88173 0.66528 0.34706 0.0
H41 H 0.94676 0.73633 0.34391 0.0
H42 H 0.92872 0.7108 0.28677 0.0
C43 C 0.9221 0.69026 0.29323 0.0
O44 O 0.92886 0.68899 0.32154 0.0
H45 H 0.8984 0.68395 0.29026 0.0
C46 C 0.88994 0.72003 0.38899 0.0
C47 C 0.91487 0.73568 0.37687 0.0
C48 C 0.87746 0.69474 0.3784 0.0
C49 C 0.89056 0.68483 0.35522 0.0
C50 C 0.91562 0.69966 0.34287 0.0
C51 C 0.9276 0.72502 0.35371 0.0
H52 H 0.72627 0.82715 0.83705 0.0
H53 H 0.70606 0.7744 0.90527 0.0
H54 H 0.77325 0.76777 0.84777 0.0
H55 H 0.72578 0.71983 0.86198 0.0
C56 C 0.73134 0.72255 0.88486 0.0
O57 O 0.74424 0.74813 0.89152 0.0
H58 H 0.71104 0.71669 0.89697 0.0
C59 C 0.72997 0.8106 0.84802 0.0
C60 C 0.75196 0.79864 0.83901 0.0
C61 C 0.71372 0.80236 0.87216 0.0
C62 C 0.71828 0.7809 0.88648 0.0
C63 C 0.73917 0.76813 0.87703 0.0
C64 C 0.75617 0.77713 0.85367 0.0
H65 H 0.76941 0.13843 0.41964 0.0
H66 H 0.7054 0.18054 0.44218 0.0
H67 H 0.75897 0.16113 0.50623 0.0
H68 H 0.70047 0.16688 0.53062 0.0
C69 C 0.69438 0.17375 0.51011 0.0
O70 O 0.71893 0.18532 0.49575 0.0
H71 H 0.68156 0.15658 0.49802 0.0
C72 C 0.7582 0.14736 0.43552 0.0
C73 C 0.76662 0.14779 0.46389 0.0
C74 C 0.73582 0.15867 0.4273 0.0
C75 C 0.72268 0.17162 0.44786 0.0
C76 C 0.73131 0.17255 0.47616 0.0
C77 C 0.75303 0.16059 0.48416 0.0
H78 H 0.38186 0.72819 0.15298 0.0
H79 H 0.38014 0.67056 0.21559 0.0
H80 H 0.44648 0.74095 0.21841 0.0
H81 H 0.46791 0.69715 0.23847 0.0
C82 C 0.44723 0.68334 0.24322 0.0
O83 O 0.42541 0.69668 0.24369 0.0
H84 H 0.44293 0.66834 0.22581 0.0
C85 C 0.39137 0.72147 0.17114 0.0
C86 C 0.4162 0.73766 0.18371 0.0
C87 C 0.3779 0.69723 0.18231 0.0
C88 C 0.38988 0.68913 0.20669 0.0
C89 C 0.41462 0.70475 0.21973 0.0
C90 C 0.42747 0.72903 0.20829 0.0
H91 H 0.14735 0.33901 0.74925 0.0
H92 H 0.21855 0.40661 0.74777 0.0
H93 H 0.21433 0.34501 0.68679 0.0
H94 H 0.27158 0.36803 0.70719 0.0
C95 C 0.27032 0.3886 0.71043 0.0
O96 O 0.24303 0.39107 0.70337 0.0
H97 H 0.27431 0.39392 0.73319 0.0
C98 C 0.16747 0.34951 0.74042 0.0
C99 C 0.17906 0.33854 0.71666 0.0
C100 C 0.18109 0.37449 0.75186 0.0
C101 C 0.20709 0.38783 0.73938 0.0
C102 C 0.21882 0.37728 0.71594 0.0
C103 C 0.20479 0.35287 0.70478 0.0
Ho104 Ho 0.05675 0.04944 0.5183 0.0
Ho105 Ho 0.04033 0.02267 0.57481 0.0
C106 C 0.0713 0.0847 0.57636 0.0
C107 C 0.06277 0.07784 0.47413 0.0
C108 C 0.08711 0.09179 0.45737 0.0
C109 C 0.08561 0.11518 0.44521 0.0
C110 C 0.10872 0.1291 0.42973 0.0
C111 C 0.13372 0.11977 0.42606 0.0
C112 C 0.13515 0.09624 0.43823 0.0
C113 C 0.11208 0.08243 0.45392 0.0
C114 C 0.09618 0.02588 0.539 0.0
C115 C 0.02798 0.98849 0.51754 0.0
C116 C 0.03471 1.00107 0.62312 0.0
C117 C 0.0119 0.98093 0.63553 0.0
C118 C 0.01886 0.96353 0.65449 0.0
C119 C 0.99709 0.94484 0.66691 0.0
C120 C 0.96807 0.94349 0.66067 0.0
C121 C 0.96126 0.96057 0.64116 0.0
C122 C 0.98296 0.97902 0.6286 0.0
C123 C 0.99585 0.03238 0.5452 0.0
O124 O 0.07237 0.08383 0.54837 0.0
O125 O 0.0608 0.06359 0.59098 0.0
O126 O 0.05745 0.05253 0.47291 0.0
O127 O 0.06102 0.08699 0.49973 0.0
O128 O 0.09317 0.02927 0.51239 0.0
O129 O 0.08081 0.03777 0.553 0.0
O130 O 0.03729 0.98882 0.54388 0.0
O131 O 0.02799 1.01051 0.50491 0.0
O132 O 0.02787 0.02312 0.61847 0.0
O133 O 0.04896 0.99334 0.60219 0.0
O134 O 0.99345 1.01306 0.56177 0.0
O135 O 0.02072 0.04651 0.54737 0.0
H136 H 0.06654 0.12273 0.44774 0.0
H137 H 0.10688 0.14702 0.42034 0.0
H138 H 0.15425 0.08873 0.43597 0.0
H139 H 0.11381 0.06452 0.46342 0.0
H140 H 0.04108 0.96461 0.65993 0.0
H141 H 1.00288 0.93196 0.68198 0.0
H142 H 0.9391 0.95972 0.63568 0.0
H143 H 0.97705 0.99201 0.61374 0.0
Ho144 Ho 0.57473 0.03284 0.0424 0.0
Ho145 Ho 0.52422 1.01798 1.00628 0.0
C146 C 0.52224 0.05507 0.06135 0.0
C147 C 0.62484 0.05037 0.06529 0.0
C148 C 0.63591 0.06696 0.08994 0.0
C149 C 0.6176 0.07831 0.10662 0.0
C150 C 0.62782 0.09211 0.13154 0.0
C151 C 0.65645 0.09461 0.14015 0.0
C152 C 0.67491 0.08395 0.12277 0.0
C153 C 0.66469 0.07021 0.09787 0.0
C154 C 0.53548 0.99092 0.06145 0.0
C155 C 0.57599 0.99435 0.98825 0.0
C156 C 0.47482 1.00087 0.98188 0.0
C157 C 0.465 0.98406 0.95694 0.0
C158 C 0.44127 0.98742 0.94159 0.0
C159 C 0.43275 0.97274 0.91682 0.0
C160 C 0.44784 0.95443 0.90699 0.0
C161 C 0.47137 0.95081 0.92271 0.0
C162 C 0.47997 0.96561 0.94743 0.0
C163 C 0.56382 0.0602 0.98789 0.0
O164 O 0.55042 0.05948 0.0626 0.0
O165 O 0.50729 0.03731 0.04363 0.0
O166 O 0.608 0.02796 0.07093 0.0
O167 O 0.61512 0.06163 0.04459 0.0
O168 O 0.54956 1.01003 0.07729 0.0
O169 O 0.54292 0.99498 0.03597 0.0
O170 O 0.54796 0.99082 0.98633 0.0
O171 O 0.59118 1.01199 1.00594 0.0
O172 O 0.49187 0.0233 0.97672 0.0
O173 O 0.48345 0.98982 1.00338 0.0
O174 O 0.55012 0.04113 0.97179 0.0
O175 O 0.55581 0.05585 1.01311 0.0
H176 H 0.59524 0.07586 0.1008 0.0
H177 H 0.61303 0.09989 0.14461 0.0
H178 H 0.69717 0.08586 0.12868 0.0
H179 H 0.67907 0.06158 0.08516 0.0
H180 H 0.42955 1.00163 0.94859 0.0
H181 H 0.41432 0.97571 0.90533 0.0
H182 H 0.48356 0.93703 0.91552 0.0
H183 H 0.49854 0.96289 0.95887 0.0
Ho184 Ho 0.56592 0.5162 0.51204 0.0
Ho185 Ho 0.56731 0.55955 0.5512 0.0
C186 C 0.58947 0.51249 0.57636 0.0
C187 C 0.57805 0.47903 0.48156 0.0
C188 C 0.58331 0.45341 0.48755 0.0
C189 C 0.60458 0.45081 0.50688 0.0
C190 C 0.60893 0.42632 0.51253 0.0
C191 C 0.59198 0.40391 0.49914 0.0
C192 C 0.57053 0.4066 0.48001 0.0
C193 C 0.56635 0.43112 0.4742 0.0
C194 C 0.51606 0.51174 0.54128 0.0
C195 C 0.54274 0.5623 0.48707 0.0
C196 C 0.55656 0.59594 0.58422 0.0
C197 C 0.54482 0.61891 0.582 0.0
C198 C 0.53945 0.62806 0.55561 0.0
C199 C 0.52578 0.64854 0.55389 0.0
C200 C 0.51736 0.66014 0.57859 0.0
C201 C 0.52388 0.65149 0.60499 0.0
C202 C 0.53743 0.63097 0.60664 0.0
C203 C 0.61746 0.56337 0.52267 0.0
O204 O 0.58817 0.50346 0.54989 0.0
O205 O 0.58007 0.53344 0.5829 0.0
O206 O 0.55181 0.48148 0.48571 0.0
O207 O 0.59739 0.4994 0.49058 0.0
O208 O 0.51755 0.50553 0.51477 0.0
O209 O 0.54121 0.51947 0.55113 0.0
O210 O 0.54261 0.57056 0.51381 0.0
O211 O 0.55437 0.5427 0.48033 0.0
O212 O 0.58147 0.59707 0.57241 0.0
O213 O 0.53836 0.57372 0.57924 0.0
O214 O 0.61558 0.56858 0.54939 0.0
O215 O 0.59244 0.55633 0.51224 0.0
H216 H 0.61794 0.46765 0.51763 0.0
H217 H 0.62591 0.42503 0.52705 0.0
H218 H 0.55679 0.38975 0.46965 0.0
H219 H 0.54969 0.43267 0.45937 0.0
H220 H 0.54521 0.61898 0.53641 0.0
H221 H 0.52083 0.65459 0.53325 0.0
H222 H 0.51808 0.6603 0.62437 0.0
H223 H 0.54159 0.62415 0.62718 0.0
Ho224 Ho 0.05532 0.50275 0.04648 0.0
Ho225 Ho 0.05287 0.54841 0.01473 0.0
C226 C 0.10983 0.55311 0.05039 0.0
C227 C 0.06934 0.46354 0.06901 0.0
C228 C 0.09578 0.45807 0.08032 0.0
C229 C 0.12279 0.46938 0.06893 0.0
C230 C 0.14756 0.46306 0.07919 0.0
C231 C 0.14573 0.44549 0.10114 0.0
C232 C 0.11872 0.43476 0.11294 0.0
C233 C 0.09396 0.44096 0.10256 0.0
C234 C 0.02687 0.53494 0.07429 0.0
C235 C 0.99855 0.49788 1.01069 0.0
C236 C 0.039 0.58801 0.99279 0.0
C237 C 0.0125 0.59412 0.98253 0.0
C238 C 0.98544 0.58022 0.99152 0.0
C239 C 0.96047 0.58681 0.98226 0.0
C240 C 0.96213 0.6075 0.96393 0.0
C241 C 0.98933 0.62113 0.95473 0.0
C242 C 0.01428 0.61446 0.96395 0.0
C243 C 0.08127 0.51621 0.98673 0.0
O244 O 0.10083 0.52763 0.05248 0.0
O245 O 0.09343 0.56659 0.03842 0.0
O246 O 0.05869 0.48045 0.08338 0.0
O247 O 0.06875 0.46673 0.04182 0.0
O248 O 0.01868 0.5098 0.07336 0.0
O249 O 0.04994 0.54176 0.06044 0.0
O250 O 1.00737 0.52341 1.00892 0.0
O251 O 0.0151 0.4844 0.02242 0.0
O252 O 0.04848 0.57061 0.97802 0.0
O253 O 0.04032 0.58482 0.01992 0.0
O254 O 0.08926 0.54137 0.98756 0.0
O255 O 0.05827 0.50937 1.0007 0.0
H256 H 0.12472 0.48283 0.05189 0.0
H257 H 0.16812 0.47183 0.0699 0.0
H258 H 0.1166 0.42095 0.12965 0.0
H259 H 0.0733 0.4321 0.11163 0.0
H260 H 0.98363 0.56447 1.00594 0.0
H261 H 0.93986 0.57572 0.98947 0.0
H262 H 0.99142 0.63738 0.94094 0.0
H263 H 0.03501 0.62543 0.95687 0.0
C264 C 0.31105 0.26397 0.28103 0.0
C265 C 0.31986 0.25156 0.25712 0.0
C266 C 0.29392 0.24956 0.30154 0.0
C267 C 0.26837 0.18376 0.32919 0.0
H268 H 0.20211 0.2096 0.35216 0.0
C269 C 0.17184 0.12186 0.38912 0.0
C270 C 0.15809 0.13456 0.4094 0.0
C271 C 0.19371 0.13605 0.37234 0.0
C272 C 0.22073 0.20229 0.34639 0.0
H273 H 0.31841 0.21418 0.23653 0.0
H274 H 0.28852 0.18895 0.27252 0.0
H275 H 0.23698 0.23445 0.32009 0.0
H276 H 0.15736 0.17188 0.42897 0.0
H277 H 0.19576 0.19662 0.40004 0.0
H278 H 0.25196 0.15149 0.35549 0.0
C279 C 0.29505 0.20985 0.27541 0.0
C280 C 0.24071 0.21654 0.32795 0.0
C281 C 0.31218 0.2243 0.25481 0.0
C282 C 0.16722 0.16162 0.41314 0.0
C283 C 0.18919 0.17578 0.39653 0.0
C284 C 0.24839 0.16951 0.34781 0.0
C285 C 0.28524 0.22239 0.29868 0.0
C286 C 0.2647 0.20742 0.31906 0.0
C287 C 0.2024 0.16323 0.37561 0.0
C288 C 0.22427 0.17858 0.35655 0.0
H289 H 0.31709 0.28492 0.28369 0.0
H290 H 0.28717 0.25974 0.31951 0.0
H291 H 0.28679 0.17636 0.32289 0.0
H292 H 0.16507 0.10103 0.38562 0.0
H293 H 0.20316 0.12578 0.35622 0.0
C294 C 0.36021 0.85535 0.6772 0.0
C295 C 0.33015 0.8508 0.67913 0.0
C296 C 0.37727 0.86116 0.70152 0.0
C297 C 0.40468 0.89469 0.75199 0.0
H298 H 0.38163 0.86512 0.82469 0.0
C299 C 0.43247 0.95225 0.85641 0.0
C300 C 0.43933 0.9396 0.88012 0.0
C301 C 0.42364 0.93834 0.83128 0.0
C302 C 0.38867 0.87335 0.80451 0.0
H303 H 0.29427 0.8469 0.70795 0.0
H304 H 0.32389 0.85718 0.75028 0.0
H305 H 0.35794 0.84393 0.78182 0.0
H306 H 0.44272 0.90249 0.89598 0.0
H307 H 0.42721 0.87809 0.85188 0.0
H308 H 0.43491 0.92445 0.77471 0.0
C309 C 0.3344 0.85624 0.73013 0.0
C310 C 0.37494 0.86134 0.77999 0.0
C311 C 0.31742 0.85061 0.70587 0.0
C312 C 0.43767 0.91277 0.878 0.0
C313 C 0.42863 0.89879 0.85285 0.0
C314 C 0.41833 0.90673 0.7765 0.0
C315 C 0.36453 0.86229 0.72818 0.0
C316 C 0.38224 0.87229 0.75355 0.0
C317 C 0.42137 0.91143 0.82927 0.0
C318 C 0.4099 0.89662 0.80309 0.0
H319 H 0.37058 0.85568 0.65682 0.0
H320 H 0.40043 0.86551 0.6994 0.0
H321 H 0.41068 0.90374 0.73198 0.0
H322 H 0.4339 0.97295 0.85729 0.0
H323 H 0.41784 0.9486 0.81362 0.0
C324 C 0.65798 0.37523 0.76274 0.0
C325 C 0.66246 0.38818 0.78929 0.0
C326 C 0.65251 0.38824 0.73852 0.0
C327 C 0.65491 0.4554 0.71169 0.0
H328 H 0.60173 0.41781 0.65504 0.0
C329 C 0.60403 0.50874 0.62714 0.0
C330 C 0.60002 0.49809 0.59943 0.0
C331 C 0.61309 0.49514 0.64904 0.0
C332 C 0.61688 0.42864 0.67045 0.0
H333 H 0.66408 0.42505 0.81094 0.0
H334 H 0.65442 0.44747 0.76943 0.0
H335 H 0.61513 0.39479 0.69474 0.0
H336 H 0.60255 0.46432 0.57348 0.0
H337 H 0.61822 0.44062 0.6116 0.0
H338 H 0.65618 0.48933 0.68768 0.0
C339 C 0.6559 0.42747 0.76676 0.0
C340 C 0.6247 0.41534 0.69337 0.0
C341 C 0.66144 0.41453 0.79081 0.0
C342 C 0.60543 0.4733 0.59441 0.0
C343 C 0.61426 0.45957 0.61643 0.0
C344 C 0.64693 0.4687 0.68893 0.0
C345 C 0.65104 0.41459 0.74012 0.0
C346 C 0.6437 0.42849 0.71462 0.0
C347 C 0.61827 0.47025 0.64417 0.0
C348 C 0.62759 0.45564 0.66799 0.0
H349 H 0.65804 0.35483 0.76083 0.0
H350 H 0.64926 0.3775 0.71855 0.0
H351 H 0.6701 0.46638 0.72696 0.0
H352 H 0.60006 0.52767 0.63204 0.0
H353 H 0.6155 0.50402 0.67003 0.0
C354 C 0.92375 0.64669 0.26945 0.0
C355 C 0.93645 0.67324 0.27408 0.0
C356 C 0.93463 0.63181 0.24887 0.0
C357 C 0.98003 0.63908 0.18339 0.0
H358 H 0.97662 0.56608 0.19269 0.0
C359 C 0.03019 0.57792 0.10084 0.0
C360 C 0.01629 0.55164 0.09603 0.0
C361 C 0.02101 0.59292 0.1225 0.0
C362 C 0.97745 0.58637 0.18943 0.0
H363 H 0.97151 0.70458 0.26145 0.0
H364 H 0.99083 0.67874 0.22608 0.0
H365 H 0.96055 0.59116 0.23073 0.0
H366 H 0.98127 0.52087 0.11007 0.0
H367 H 0.96507 0.54684 0.14725 0.0
H368 H 0.99682 0.63425 0.14204 0.0
C369 C 0.97199 0.66938 0.23781 0.0
C370 C 0.96819 0.60087 0.21145 0.0
C371 C 0.96111 0.68422 0.2584 0.0
C372 C 0.99265 0.54098 0.11318 0.0
C373 C 0.98348 0.55592 0.13478 0.0
C374 C 0.98928 0.62457 0.16135 0.0
C375 C 0.95865 0.643 0.23225 0.0
C376 C 0.96922 0.6275 0.20886 0.0
C377 C 0.99762 0.58213 0.14009 0.0
C378 C 0.98807 0.59789 0.16388 0.0
H379 H 0.90468 0.63764 0.28106 0.0
H380 H 0.92348 0.61171 0.24532 0.0
H381 H 0.98079 0.65935 0.18012 0.0
H382 H 0.04852 0.58681 0.08814 0.0
H383 H 0.03276 0.61287 0.12585 0.0
C384 C 0.43076 0.23383 0.15608 0.0
C385 C 0.40086 0.23092 0.15553 0.0
C386 C 0.44257 0.2123 0.15148 0.0
C387 C 0.4259 0.14932 0.11428 0.0
H388 H 0.4927 0.13811 0.1535 0.0
C389 C 0.47711 0.06561 0.07994 0.0
C390 C 0.50725 0.07157 0.07852 0.0
C391 C 0.4629 0.08256 0.09386 0.0
C392 C 0.47415 0.14107 0.14222 0.0
H393 H 0.35975 0.20329 0.15128 0.0
H394 H 0.38036 0.16563 0.14312 0.0
H395 H 0.4702 0.17274 0.16999 0.0
H396 H 0.54618 0.09956 0.09151 0.0
H397 H 0.52146 0.12942 0.11503 0.0
H398 H 0.43033 0.11854 0.08583 0.0
C399 C 0.39469 0.18453 0.14681 0.0
C400 C 0.46125 0.16085 0.15172 0.0
C401 C 0.3829 0.20602 0.15157 0.0
C402 C 0.52291 0.09436 0.09223 0.0
C403 C 0.5087 0.11144 0.1059 0.0
C404 C 0.43891 0.12973 0.10465 0.0
C405 C 0.42465 0.18753 0.14612 0.0
C406 C 0.43716 0.16534 0.13767 0.0
C407 C 0.47849 0.10601 0.10642 0.0
C408 C 0.4634 0.12551 0.11828 0.0
H409 H 0.44495 0.25289 0.15913 0.0
H410 H 0.46573 0.21525 0.15086 0.0
H411 H 0.40765 0.15258 0.10271 0.0
H412 H 0.46442 0.04805 0.06987 0.0
H413 H 0.43963 0.07746 0.09436 0.0
C414 C 0.26551 0.90699 0.63012 0.0
C415 C 0.25545 0.88025 0.62438 0.0
C416 C 0.24814 0.92406 0.62468 0.0
C417 C 0.21506 0.95351 0.5879 0.0
H418 H 0.135 0.94186 0.60993 0.0
C419 C 0.13273 0.99961 0.53335 0.0
C420 C 0.11555 1.01126 0.55109 0.0
C421 C 0.15055 0.98509 0.54472 0.0
C422 C 0.15739 0.9454 0.60384 0.0
H423 H 0.21911 0.85018 0.60972 0.0
H424 H 0.18846 0.88011 0.60052 0.0
H425 H 0.16438 0.91321 0.62689 0.0
H426 H 0.10385 1.01753 0.5945 0.0
H427 H 0.13442 0.99135 0.61436 0.0
H428 H 0.2079 0.98518 0.56417 0.0
C429 C 0.2098 0.8878 0.60912 0.0
C430 C 0.17408 0.929 0.61339 0.0
C431 C 0.22733 0.87074 0.6142 0.0
C432 C 0.11661 1.0084 0.58038 0.0
C433 C 0.13408 0.99351 0.59173 0.0
C434 C 0.19828 0.96964 0.57801 0.0
C435 C 0.2203 0.91464 0.61377 0.0
C436 C 0.20299 0.93285 0.60534 0.0
C437 C 0.15116 0.98174 0.57396 0.0
C438 C 0.16927 0.96559 0.58573 0.0
H439 H 0.28721 0.91479 0.63776 0.0
H440 H 0.25661 0.94469 0.62853 0.0
H441 H 0.23725 0.95671 0.58121 0.0
H442 H 0.13228 1.00157 0.51069 0.0
H443 H 0.16341 0.97602 0.53061 0.0
C444 C 0.77849 0.35792 0.90224 0.0
C445 C 0.75837 0.37048 0.89086 0.0
C446 C 0.80376 0.37211 0.91552 0.0
C447 C 0.8528 0.4382 0.92159 0.0
H448 H 0.87999 0.41133 0.98868 0.0
C449 C 0.95148 0.49762 0.98608 0.0
C450 C 0.97009 0.48397 0.99832 0.0
C451 C 0.9253 0.48436 0.97359 0.0
C452 C 0.87306 0.41907 0.96976 0.0
H453 H 0.74966 0.40835 0.88496 0.0
H454 H 0.79371 0.433 0.90776 0.0
H455 H 0.8359 0.38742 0.96572 0.0
H456 H 0.97532 0.44535 1.00675 0.0
H457 H 0.93032 0.4224 0.98477 0.0
H458 H 0.89013 0.46971 0.92542 0.0
C459 C 0.79001 0.41205 0.90619 0.0
C460 C 0.84757 0.40527 0.95654 0.0
C461 C 0.76463 0.39783 0.89302 0.0
C462 C 0.9616 0.45666 0.99778 0.0
C463 C 0.93553 0.44341 0.98522 0.0
C464 C 0.87839 0.45196 0.93475 0.0
C465 C 0.80996 0.39942 0.91778 0.0
C466 C 0.83704 0.41453 0.93216 0.0
C467 C 0.91689 0.45698 0.97283 0.0
C468 C 0.88908 0.4426 0.95903 0.0
H469 H 0.77502 0.337 0.90056 0.0
H470 H 0.81871 0.3616 0.92363 0.0
H471 H 0.84571 0.44588 0.90269 0.0
H472 H 0.95714 0.51863 0.98604 0.0
H473 H 0.91155 0.49567 0.96473 0.0
C474 C 0.828 0.66404 0.37551 0.0
C475 C 0.85094 0.67874 0.39192 0.0
C476 C 0.80282 0.64989 0.3883 0.0
C477 C 0.77447 0.62139 0.45669 0.0
H478 H 0.69988 0.62244 0.42589 0.0
C479 C 0.66994 0.58519 0.52037 0.0
C480 C 0.64424 0.57335 0.50619 0.0
C481 C 0.69491 0.59626 0.50539 0.0
C482 C 0.72047 0.62152 0.43462 0.0
H483 H 0.86531 0.68927 0.43491 0.0
H484 H 0.82168 0.66482 0.45707 0.0
H485 H 0.74349 0.64479 0.40185 0.0
H486 H 0.62491 0.56346 0.4649 0.0
H487 H 0.66866 0.58235 0.4386 0.0
H488 H 0.75169 0.59809 0.48934 0.0
C489 C 0.82306 0.66417 0.43426 0.0
C490 C 0.74559 0.63445 0.42079 0.0
C491 C 0.84807 0.67847 0.4215 0.0
C492 C 0.64433 0.57245 0.4765 0.0
C493 C 0.66943 0.58351 0.46143 0.0
C494 C 0.74941 0.60836 0.47041 0.0
C495 C 0.79994 0.64974 0.41791 0.0
C496 C 0.77301 0.63486 0.4318 0.0
C497 C 0.69513 0.59578 0.47565 0.0
C498 C 0.72193 0.60846 0.45986 0.0
H499 H 0.82928 0.66386 0.3527 0.0
H500 H 0.78566 0.63887 0.37495 0.0
H501 H 0.7951 0.62075 0.46559 0.0
H502 H 0.67069 0.58636 0.54321 0.0
H503 H 0.71389 0.60582 0.5173 0.0
C504 C 0.31611 0.34102 0.20975 0.0
C505 C 0.32855 0.32526 0.1916 0.0
C506 C 0.30126 0.35835 0.19887 0.0
C507 C 0.26254 0.36727 0.1341 0.0
H508 H 0.25647 0.43145 0.17237 0.0
C509 C 0.19068 0.43039 0.09104 0.0
C510 C 0.17161 0.43731 0.1108 0.0
C511 C 0.21357 0.42035 0.09994 0.0
C512 C 0.25799 0.41356 0.16149 0.0
H513 H 0.33633 0.31653 0.14762 0.0
H514 H 0.31173 0.34754 0.12878 0.0
H515 H 0.29091 0.40781 0.18934 0.0
H516 H 0.16235 0.44034 0.15539 0.0
H517 H 0.20236 0.42272 0.17096 0.0
H518 H 0.22953 0.37292 0.1064 0.0
C519 C 0.31269 0.34596 0.15146 0.0
C520 C 0.27763 0.39996 0.17123 0.0
C521 C 0.32725 0.32842 0.16232 0.0
C522 C 0.17656 0.43493 0.13969 0.0
C523 C 0.1996 0.42509 0.14861 0.0
C524 C 0.24315 0.38096 0.12424 0.0
C525 C 0.29874 0.36056 0.16954 0.0
C526 C 0.27986 0.37643 0.15789 0.0
C527 C 0.21799 0.41721 0.12878 0.0
C528 C 0.24037 0.40405 0.13804 0.0
H529 H 0.31713 0.33945 0.23243 0.0
H530 H 0.2907 0.36915 0.21349 0.0
H531 H 0.26314 0.34897 0.12361 0.0
H532 H 0.1873 0.43183 0.06863 0.0
H533 H 0.22755 0.41462 0.08421 0.0
C534 C 0.67494 0.28584 0.91512 0.0
C535 C 0.67689 0.28954 0.88575 0.0
C536 C 0.66266 0.26137 0.92613 0.0
C537 C 0.6437 0.19022 0.90678 0.0
H538 H 0.5991 0.1848 0.97564 0.0
C539 C 0.58152 0.08989 0.94768 0.0
C540 C 0.57842 0.08627 0.97692 0.0
C541 C 0.59377 0.11446 0.93691 0.0
C542 C 0.61182 0.18581 0.95661 0.0
H543 H 0.66679 0.26968 0.84514 0.0
H544 H 0.64511 0.22723 0.86423 0.0
H545 H 0.6189 0.22732 0.95625 0.0
H546 H 0.58638 0.10597 0.01778 0.0
H547 H 0.60819 0.1487 0.99918 0.0
H548 H 0.63682 0.14878 0.90718 0.0
C549 C 0.65345 0.2433 0.87885 0.0
C550 C 0.62322 0.2104 0.94536 0.0
C551 C 0.66563 0.26785 0.86782 0.0
C552 C 0.58834 0.10797 0.99514 0.0
C553 C 0.60068 0.13262 0.98436 0.0
C554 C 0.63239 0.16565 0.91806 0.0
C555 C 0.65186 0.23955 0.90824 0.0
C556 C 0.63936 0.2131 0.9202 0.0
C557 C 0.6035 0.13639 0.95499 0.0
C558 C 0.61615 0.16291 0.94318 0.0
H559 H 0.68293 0.30196 0.92978 0.0
H560 H 0.66219 0.25951 0.94881 0.0
H561 H 0.65638 0.19127 0.88771 0.0
H562 H 0.57405 0.07372 0.93293 0.0
H563 H 0.59498 0.11628 0.91424 0.0
C564 C 0.95729 0.7736 0.38978 0.0
C565 C 0.92737 0.7628 0.38893 0.0
C566 C 0.96866 0.79828 0.40251 0.0
C567 C 0.95093 0.84513 0.45586 0.0
H568 H 0.01342 0.89547 0.42265 0.0
C569 C 0.01075 0.93949 0.5169 0.0
C570 C 0.01691 0.96285 0.50219 0.0
C571 C 1.00021 0.91543 0.50272 0.0
C572 C 0.9959 0.88169 0.43222 0.0
H573 H 0.88621 0.77102 0.39991 0.0
H574 H 0.90596 0.81316 0.42255 0.0
H575 H 0.99468 0.85336 0.39847 0.0
H576 H 0.01695 0.97878 0.46062 0.0
H577 H 0.99903 0.93685 0.43589 0.0
H578 H 0.95219 0.87327 0.48966 0.0
C579 C 0.92071 0.80237 0.41371 0.0
C580 C 0.98529 0.85739 0.41843 0.0
C581 C 0.90935 0.77795 0.40072 0.0
C582 C 0.01244 0.96131 0.47276 0.0
C583 C 1.00229 0.93717 0.4585 0.0
C584 C 0.96181 0.86921 0.46983 0.0
C585 C 0.95055 0.8129 0.41508 0.0
C586 C 0.96249 0.83875 0.42994 0.0
C587 C 0.99585 0.91383 0.47327 0.0
C588 C 0.9844 0.88797 0.45822 0.0
H589 H 0.97209 0.76273 0.3813 0.0
H590 H 0.99176 0.80559 0.40322 0.0
H591 H 0.93357 0.83131 0.46561 0.0
H592 H 0.01385 0.93974 0.53953 0.0
H593 H 0.99581 0.89798 0.51488 0.0
C594 C 0.37009 0.82028 0.57559 0.0
C595 C 0.34501 0.81222 0.55927 0.0
C596 C 0.39054 0.80533 0.57572 0.0
C597 C 0.39595 0.73808 0.56485 0.0
H598 H 0.47817 0.76758 0.56422 0.0
C599 C 0.47622 0.67851 0.59456 0.0
C600 C 0.50009 0.67988 0.57685 0.0
C601 C 0.45868 0.6959 0.59192 0.0
C602 C 0.45527 0.75909 0.56423 0.0
H603 H 0.32124 0.78239 0.53059 0.0
H604 H 0.35714 0.75629 0.53048 0.0
H605 H 0.4449 0.79588 0.55891 0.0
H606 H 0.52481 0.70107 0.54304 0.0
H607 H 0.49379 0.73141 0.53819 0.0
H608 H 0.40614 0.70136 0.57004 0.0
C609 C 0.36107 0.77414 0.54313 0.0
C610 C 0.43626 0.77528 0.56142 0.0
C611 C 0.34067 0.7891 0.543 0.0
C612 C 0.5064 0.69941 0.55681 0.0
C613 C 0.48883 0.7169 0.55421 0.0
C614 C 0.41488 0.72198 0.56777 0.0
C615 C 0.38603 0.78193 0.55977 0.0
C616 C 0.40641 0.76491 0.56177 0.0
C617 C 0.46455 0.71503 0.57148 0.0
C618 C 0.44472 0.73231 0.56769 0.0
H619 H 0.3735 0.83783 0.58872 0.0
H620 H 0.40935 0.8116 0.58907 0.0
H621 H 0.37306 0.72957 0.56555 0.0
H622 H 0.47056 0.66351 0.60999 0.0
H623 H 0.44032 0.69422 0.60578 0.0
C624 C 0.7797 0.837 0.81284 0.0
C625 C 0.77184 0.80992 0.81594 0.0
C626 C 0.79898 0.84789 0.79198 0.0
C627 C 0.86073 0.8398 0.75338 0.0
H628 H 0.84244 0.89039 0.70354 0.0
C629 C 0.94524 0.89898 0.6778 0.0
C630 C 0.94475 0.92521 0.6753 0.0
C631 C 0.92291 0.88195 0.69155 0.0
C632 C 0.84803 0.87649 0.71745 0.0
H633 H 0.77831 0.77315 0.79905 0.0
H634 H 0.81323 0.79256 0.76333 0.0
H635 H 0.80527 0.86585 0.73392 0.0
H636 H 0.92108 0.95438 0.68583 0.0
H637 H 0.88275 0.9251 0.71042 0.0
H638 H 0.90388 0.85142 0.73828 0.0
C639 C 0.80389 0.80509 0.77702 0.0
C640 C 0.82665 0.86231 0.73464 0.0
C641 C 0.78405 0.79407 0.79758 0.0
C642 C 0.92174 0.93414 0.68701 0.0
C643 C 0.89967 0.91727 0.70097 0.0
C644 C 0.8823 0.85429 0.73648 0.0
C645 C 0.81141 0.8321 0.77406 0.0
C646 C 0.83297 0.84426 0.75315 0.0
C647 C 0.89983 0.89091 0.70332 0.0
C648 C 0.87637 0.87329 0.71882 0.0
H649 H 0.77162 0.85001 0.827 0.0
H650 H 0.80486 0.86883 0.7904 0.0
H651 H 0.8661 0.82608 0.76768 0.0
H652 H 0.96267 0.89159 0.66877 0.0
H653 H 0.92363 0.86174 0.69272 0.0
C654 C 0.72543 0.13312 0.38178 0.0
C655 C 0.72623 0.15629 0.39734 0.0
C656 C 0.71869 0.13113 0.35315 0.0
C657 C 0.68033 0.15297 0.29775 0.0
H658 H 0.73518 0.12973 0.24898 0.0
C659 C 0.65921 0.1294 0.1781 0.0
C660 C 0.6665 0.10654 0.1681 0.0
C661 C 0.66798 0.13982 0.205 0.0
C662 C 0.71957 0.13611 0.26229 0.0
H663 H 0.71918 0.19518 0.39512 0.0
H664 H 0.70633 0.19121 0.34481 0.0
H665 H 0.74664 0.13967 0.2987 0.0
H666 H 0.68809 0.07638 0.17867 0.0
H667 H 0.70305 0.09422 0.22537 0.0
H668 H 0.65255 0.14806 0.26165 0.0
C669 C 0.71148 0.17486 0.35504 0.0
C670 C 0.72623 0.14193 0.29067 0.0
C671 C 0.71869 0.17704 0.38378 0.0
C672 C 0.6827 0.09434 0.18548 0.0
C673 C 0.69132 0.10463 0.21229 0.0
C674 C 0.67347 0.14682 0.26929 0.0
C675 C 0.71206 0.15206 0.33945 0.0
C676 C 0.70639 0.14974 0.30878 0.0
C677 C 0.68412 0.12749 0.22241 0.0
C678 C 0.69271 0.13759 0.25146 0.0
H679 H 0.73021 0.11646 0.39168 0.0
H680 H 0.71869 0.11315 0.34164 0.0
H681 H 0.6647 0.15891 0.31142 0.0
H682 H 0.64685 0.13928 0.16507 0.0
H683 H 0.66225 0.15755 0.21211 0.0
C684 C 0.45482 0.68466 0.29703 0.0
C685 C 0.45076 0.6705 0.27115 0.0
C686 C 0.46226 0.67348 0.32179 0.0
C687 C 0.46711 0.60893 0.35159 0.0
H688 H 0.51849 0.65196 0.4062 0.0
C689 C 0.52726 0.56432 0.43633 0.0
C690 C 0.53037 0.57535 0.46392 0.0
C691 C 0.51608 0.57627 0.41432 0.0
C692 C 0.5039 0.63962 0.39136 0.0
H693 H 0.45214 0.63351 0.25128 0.0
H694 H 0.46521 0.61428 0.29365 0.0
H695 H 0.50154 0.67182 0.36578 0.0
H696 H 0.52385 0.60806 0.48947 0.0
H697 H 0.5047 0.62907 0.45102 0.0
H698 H 0.47004 0.57669 0.37681 0.0
C699 C 0.46183 0.63375 0.29544 0.0
C700 C 0.49401 0.65108 0.36804 0.0
C701 C 0.45431 0.64486 0.27087 0.0
C702 C 0.5219 0.59888 0.46865 0.0
C703 C 0.511 0.61104 0.44646 0.0
C704 C 0.47719 0.59749 0.3747 0.0
C705 C 0.46622 0.64784 0.32143 0.0
C706 C 0.47563 0.63592 0.34747 0.0
C707 C 0.50779 0.59988 0.41889 0.0
C708 C 0.496 0.61255 0.39489 0.0
H709 H 0.45289 0.70461 0.29797 0.0
H710 H 0.46506 0.68509 0.3412 0.0
H711 H 0.45245 0.59641 0.33697 0.0
H712 H 0.53347 0.54628 0.43161 0.0
H713 H 0.51439 0.5671 0.39347 0.0
C714 C 0.17189 0.41447 0.77784 0.0
C715 C 0.16832 0.38727 0.7762 0.0
C716 C 0.1614 0.42684 0.80078 0.0
C717 C 0.13323 0.41652 0.87524 0.0
H718 H 0.11261 0.48186 0.8633 0.0
C719 C 0.08052 0.47261 0.96228 0.0
C720 C 0.09129 0.49973 0.96434 0.0
C721 C 0.08919 0.45769 0.94017 0.0
C722 C 0.11845 0.46373 0.86716 0.0
H723 H 0.14983 0.35197 0.79815 0.0
H724 H 0.1305 0.37336 0.8375 0.0
H725 H 0.12743 0.45821 0.82351 0.0
H726 H 0.12003 0.53217 0.9447 0.0
H727 H 0.13465 0.50647 0.90627 0.0
H728 H 0.12334 0.42206 0.91903 0.0
C729 C 0.14225 0.3853 0.82124 0.0
C730 C 0.1272 0.45007 0.84418 0.0
C731 C 0.15306 0.37288 0.79828 0.0
C732 C 0.11116 0.51139 0.94387 0.0
C733 C 0.11946 0.49661 0.92163 0.0
C734 C 0.12406 0.43008 0.89823 0.0
C735 C 0.14632 0.4126 0.82302 0.0
C736 C 0.13526 0.42637 0.84773 0.0
C737 C 0.1085 0.46954 0.91922 0.0
C738 C 0.11693 0.45412 0.89463 0.0
H739 H 0.18283 0.4265 0.76123 0.0
H740 H 0.16564 0.44781 0.80112 0.0
H741 H 0.13943 0.3986 0.87929 0.0
H742 H 0.06518 0.46294 0.97762 0.0
H743 H 0.08017 0.43695 0.93906 0.0
C744 C 0.6984 0.82777 0.91196 0.0
C745 C 0.69452 0.81816 0.884 0.0
C746 C 0.6832 0.84553 0.92231 0.0
C747 C 0.64329 0.89305 0.89739 0.0
H748 H 0.62514 0.89724 0.97693 0.0
C749 C 0.57648 0.96114 0.94964 0.0
C750 C 0.59018 0.97623 0.97277 0.0
C751 C 0.58839 0.94186 0.93711 0.0
C752 C 0.63017 0.89627 0.95467 0.0
H753 H 0.6709 0.81858 0.84525 0.0
H754 H 0.6432 0.84873 0.86365 0.0
H755 H 0.64482 0.86152 0.9589 0.0
H756 H 0.62733 0.98332 1.00053 0.0
H757 H 0.64769 0.94922 0.97899 0.0
H758 H 0.62764 0.92758 0.89336 0.0
C759 C 0.65869 0.84329 0.87738 0.0
C760 C 0.64159 0.8759 0.94431 0.0
C761 C 0.67431 0.82583 0.86688 0.0
C762 C 0.61635 0.97213 0.98264 0.0
C763 C 0.62791 0.95252 0.97049 0.0
C764 C 0.6313 0.91315 0.90772 0.0
C765 C 0.66338 0.85383 0.90507 0.0
C766 C 0.64883 0.87425 0.91561 0.0
C767 C 0.61384 0.93702 0.9479 0.0
C768 C 0.62514 0.91515 0.93652 0.0
H769 H 0.71423 0.82249 0.92543 0.0
H770 H 0.68794 0.85351 0.94351 0.0
H771 H 0.64896 0.89277 0.87528 0.0
H772 H 0.55628 0.96389 0.94158 0.0
H773 H 0.57719 0.93009 0.9197 0.0
C774 C 0.79085 0.11078 0.45907 0.0
C775 C 0.78942 0.13463 0.47208 0.0
C776 C 0.81281 0.09875 0.46586 0.0
C777 C 0.88531 0.11255 0.498 0.0
H778 H 0.86996 0.03753 0.50104 0.0
C779 C 0.9769 0.06147 0.51417 0.0
C780 C 0.97165 0.04085 0.53279 0.0
C781 C 0.9543 0.07146 0.50457 0.0
C782 C 0.87458 0.05851 0.50048 0.0
H783 H 0.80979 0.16436 0.50279 0.0
H784 H 0.84746 0.14284 0.51554 0.0
H785 H 0.83094 0.05814 0.49072 0.0
H786 H 0.93883 1.01377 0.55529 0.0
H787 H 0.89933 0.03169 0.5393 0.0
H788 H 0.92862 0.11304 0.50902 0.0
C789 C 0.83197 0.13374 0.49953 0.0
C790 C 0.85226 0.07033 0.49421 0.0
C791 C 0.81014 0.14591 0.49252 0.0
C792 C 0.94336 0.02969 0.54088 0.0
C793 C 0.92075 0.0399 0.53159 0.0
C794 C 0.90754 0.10076 0.50455 0.0
C795 C 0.8337 0.11011 0.4861 0.0
C796 C 0.85736 0.0975 0.49292 0.0
C797 C 0.92604 0.06124 0.51374 0.0
C798 C 0.90246 0.07359 0.50587 0.0
H799 H 0.77495 0.10132 0.44357 0.0
H800 H 0.81362 0.08073 0.45487 0.0
H801 H 0.89012 0.13349 0.49676 0.0
H802 H 0.99858 0.07018 0.50741 0.0
H803 H 0.95906 0.08746 0.49029 0.0
C804 C 0.32798 0.66726 0.18482 0.0
C805 C 0.35113 0.68073 0.16858 0.0
C806 C 0.30257 0.65277 0.17189 0.0
C807 C 0.26172 0.64497 0.10343 0.0
H808 H 0.21767 0.58208 0.13647 0.0
C809 C 0.14723 0.59425 0.06261 0.0
C810 C 0.13834 0.56698 0.06274 0.0
C811 C 0.17334 0.60748 0.07513 0.0
C812 C 0.22975 0.59946 0.1267 0.0
H813 H 0.3656 0.68845 0.12563 0.0
H814 H 0.3218 0.66319 0.10324 0.0
H815 H 0.26258 0.60548 0.15855 0.0
H816 H 0.15061 0.53234 0.07619 0.0
H817 H 0.19624 0.55526 0.09751 0.0
H818 H 0.22932 0.63868 0.07123 0.0
C819 C 0.32285 0.66429 0.12606 0.0
C820 C 0.25549 0.61317 0.13967 0.0
C821 C 0.34817 0.67883 0.13897 0.0
C822 C 0.15658 0.55333 0.07562 0.0
C823 C 0.18278 0.56657 0.08812 0.0
C824 C 0.23605 0.63126 0.09046 0.0
C825 C 0.29945 0.65116 0.14226 0.0
C826 C 0.27194 0.63623 0.1283 0.0
C827 C 0.19161 0.59392 0.08819 0.0
C828 C 0.2195 0.60829 0.10188 0.0
H829 H 0.32915 0.66844 0.20764 0.0
H830 H 0.28509 0.64334 0.18527 0.0
H831 H 0.27334 0.66274 0.09405 0.0
H832 H 0.13381 0.60556 0.05313 0.0
H833 H 0.17888 0.62848 0.07503 0.0
C834 C 0.31762 0.422 0.70526 0.0
C835 C 0.29343 0.4054 0.69244 0.0
C836 C 0.34071 0.43521 0.68901 0.0
C837 C 0.36251 0.45579 0.6159 0.0
H838 H 0.43932 0.4591 0.64387 0.0
C839 C 0.46395 0.4889 0.54595 0.0
C840 C 0.48985 0.50239 0.55872 0.0
C841 C 0.43967 0.47853 0.56228 0.0
C842 C 0.4181 0.4588 0.63583 0.0
H843 H 0.27468 0.38967 0.65237 0.0
H844 H 0.31488 0.41287 0.62382 0.0
H845 H 0.39783 0.43871 0.67178 0.0
H846 H 0.51022 0.51613 0.59878 0.0
H847 H 0.46782 0.49857 0.62731 0.0
H848 H 0.38278 0.47592 0.57996 0.0
C849 C 0.31587 0.41598 0.6465 0.0
C850 C 0.39416 0.44699 0.65191 0.0
C851 C 0.29277 0.40266 0.66284 0.0
C852 C 0.49066 0.50576 0.58826 0.0
C853 C 0.46632 0.49545 0.60464 0.0
C854 C 0.38647 0.46771 0.59985 0.0
C855 C 0.34042 0.43218 0.65938 0.0
C856 C 0.36595 0.44522 0.64221 0.0
C857 C 0.44046 0.48142 0.59195 0.0
C858 C 0.41472 0.46935 0.60948 0.0
H859 H 0.31898 0.42436 0.72803 0.0
H860 H 0.35893 0.44774 0.69976 0.0
H861 H 0.34122 0.45517 0.60782 0.0
H862 H 0.46256 0.48587 0.52325 0.0
H863 H 0.42048 0.46763 0.55158 0.0
C864 C 0.77297 0.70275 0.8728 0.0
C865 C 0.75176 0.7061 0.89212 0.0
C866 C 0.79359 0.68935 0.88032 0.0
C867 C 0.82964 0.67205 0.9427 0.0
H868 H 0.85568 0.62495 0.8902 0.0
C869 C 0.91381 0.61624 0.97474 0.0
C870 C 0.93574 0.61544 0.95516 0.0
C871 C 0.88969 0.62502 0.96695 0.0
C872 C 0.84879 0.6382 0.90502 0.0
H873 H 0.73563 0.6987 0.9345 0.0
H874 H 0.77148 0.67493 0.94768 0.0
H875 H 0.8164 0.64441 0.87674 0.0
H876 H 0.949 0.62243 0.91173 0.0
H877 H 0.90721 0.63828 0.8983 0.0
H878 H 0.86224 0.66624 0.9708 0.0
C879 C 0.77218 0.68259 0.92669 0.0
C880 C 0.82628 0.64933 0.89732 0.0
C881 C 0.75154 0.69596 0.91913 0.0
C882 C 0.93267 0.6231 0.92743 0.0
C883 C 0.90854 0.6319 0.91964 0.0
C884 C 0.85214 0.66097 0.95038 0.0
C885 C 0.79359 0.67932 0.90745 0.0
C886 C 0.81658 0.66651 0.91601 0.0
C887 C 0.88692 0.63323 0.93939 0.0
C888 C 0.86212 0.64405 0.93157 0.0
H889 H 0.77388 0.71094 0.85206 0.0
H890 H 0.81008 0.68757 0.86519 0.0
H891 H 0.82301 0.68554 0.95741 0.0
H892 H 0.9156 0.61071 0.99635 0.0
H893 H 0.87325 0.6255 0.98259 0.0
C894 C 0.44076 0.78588 0.18814 0.0
C895 C 0.42978 0.76353 0.17107 0.0
C896 C 0.45208 0.81017 0.17612 0.0
C897 C 0.45304 0.84596 0.10832 0.0
H898 H 0.51629 0.89533 0.14444 0.0
C899 C 0.51183 0.94278 0.05535 0.0
C900 C 0.52144 0.96495 0.073 0.0
C901 C 0.50032 0.91825 0.06684 0.0
C902 C 0.49838 0.88198 0.13412 0.0
H903 H 0.42342 0.74963 0.12752 0.0
H904 H 0.44319 0.79147 0.10678 0.0
H905 H 0.49768 0.85328 0.16521 0.0
H906 H 0.52573 0.97853 0.11668 0.0
H907 H 0.50563 0.93628 0.13653 0.0
H908 H 0.45392 0.87471 0.07713 0.0
C909 C 0.44242 0.79052 0.12956 0.0
C910 C 0.4876 0.85767 0.14616 0.0
C911 C 0.43105 0.76632 0.14155 0.0
C912 C 0.51873 0.96194 0.10236 0.0
C913 C 0.50735 0.93752 0.11382 0.0
C914 C 0.46389 0.87028 0.09623 0.0
C915 C 0.45297 0.81301 0.14657 0.0
C916 C 0.46466 0.83916 0.13355 0.0
C917 C 0.49816 0.91513 0.09634 0.0
C918 C 0.48671 0.88881 0.10896 0.0
H919 H 0.43993 0.78479 0.2109 0.0
H920 H 0.45953 0.82686 0.19016 0.0
H921 H 0.43509 0.83267 0.09802 0.0
H922 H 0.51363 0.94429 0.03265 0.0
H923 H 0.49375 0.90162 0.05253 0.0
C924 C 0.15304 0.29081 0.71999 0.0
C925 C 0.16466 0.31244 0.70351 0.0
C926 C 0.14214 0.26602 0.70727 0.0
C927 C 0.14627 0.22832 0.63956 0.0
H928 H 0.08031 0.1792 0.66882 0.0
C929 C 0.09347 0.1331 0.57693 0.0
C930 C 0.08226 0.11033 0.5918 0.0
C931 C 0.10322 0.15721 0.59118 0.0
C932 C 0.099 0.1925 0.66047 0.0
H933 H 0.17202 0.32479 0.66036 0.0
H934 H 0.15308 0.2822 0.63848 0.0
H935 H 0.09704 0.22169 0.69242 0.0
H936 H 0.07273 0.0956 0.6338 0.0
H937 H 0.08995 0.13744 0.65858 0.0
H938 H 0.14838 0.19928 0.60771 0.0
C939 C 0.15312 0.284 0.66129 0.0
C940 C 0.10863 0.21702 0.67409 0.0
C941 C 0.16398 0.30863 0.67393 0.0
C942 C 0.08117 0.11256 0.62148 0.0
C943 C 0.09091 0.13674 0.63576 0.0
C944 C 0.13667 0.20388 0.62599 0.0
C945 C 0.14246 0.2621 0.67767 0.0
C946 C 0.13233 0.23548 0.66374 0.0
C947 C 0.10215 0.15953 0.62087 0.0
C948 C 0.11273 0.18554 0.63603 0.0
H949 H 0.15328 0.29282 0.74279 0.0
H950 H 0.13428 0.24977 0.72076 0.0
H951 H 0.16499 0.24154 0.63117 0.0
H952 H 0.09459 0.1324 0.55411 0.0
H953 H 0.11121 0.17418 0.57875 0.0
C954 C 0.67852 0.20808 0.53983 0.0
C955 C 0.67666 0.1934 0.51449 0.0
C956 C 0.66482 0.22859 0.54245 0.0
C957 C 0.61109 0.25836 0.50793 0.0
H958 H 0.65673 0.32225 0.54174 0.0
C959 C 0.59543 0.3594 0.48237 0.0
C960 C 0.59717 0.37792 0.50456 0.0
C961 C 0.60141 0.33535 0.4871 0.0
C962 C 0.64351 0.30445 0.53266 0.0
H963 H 0.6595 0.1885 0.47203 0.0
H964 H 0.63589 0.22453 0.47627 0.0
H965 H 0.67373 0.2825 0.54393 0.0
H966 H 0.6057 0.38525 0.54938 0.0
H967 H 0.61686 0.34338 0.55741 0.0
H968 H 0.5815 0.28073 0.49564 0.0
C969 C 0.64711 0.21984 0.49447 0.0
C970 C 0.65319 0.28163 0.53396 0.0
C971 C 0.66067 0.19929 0.49194 0.0
C972 C 0.60465 0.37163 0.5317 0.0
C973 C 0.6109 0.34764 0.53636 0.0
C974 C 0.60152 0.28122 0.50645 0.0
C975 C 0.64936 0.23499 0.51962 0.0
C976 C 0.63738 0.25843 0.52111 0.0
C977 C 0.6095 0.32934 0.51406 0.0
C978 C 0.61792 0.30458 0.51833 0.0
H979 H 0.69112 0.20407 0.55735 0.0
H980 H 0.66677 0.23972 0.56217 0.0
H981 H 0.59812 0.24071 0.4983 0.0
H982 H 0.59026 0.36372 0.4611 0.0
H983 H 0.60064 0.32178 0.46941 0.0
loop_
_geom_bond_atom_site_label_1
_geom_bond_atom_site_label_2
_geom_bond_distance
_geom_bond_site_symmetry_2
_ccdc_geom_bond_type
H0 C7 0.929 . S
H1 C10 0.930 . S
H2 C12 0.929 . S
H3 C4 0.969 . S
C4 H3 0.969 . S
C4 O5 1.550 . S
C4 H6 0.973 . S
O5 C4 1.550 . S
O5 C11 1.412 . S
H6 C4 0.973 . S
C7 H0 0.929 . S
C7 C8 1.400 . S
C7 C9 1.364 . S
C8 C7 1.400 . S
C8 C12 1.377 . S
C9 C7 1.364 . S
C9 C10 1.374 . S
C10 H1 0.930 . S
C10 C9 1.374 . S
C10 C11 1.383 . S
C11 O5 1.412 . S
C11 C10 1.383 . S
C11 C12 1.394 . S
C12 H2 0.929 . S
C12 C8 1.377 . S
C12 C11 1.394 . S
H13 C20 0.929 . S
H14 C23 0.930 . S
H15 C25 0.929 . S
H16 C17 0.969 . S
C17 H16 0.969 . S
C17 O18 1.550 . S
C17 H19 0.973 . S
O18 C17 1.550 . S
O18 C24 1.412 . S
H19 C17 0.973 . S
C20 H13 0.929 . S
C20 C21 1.400 . S
C20 C22 1.364 . S
C21 C20 1.400 . S
C21 C25 1.377 . S
C22 C20 1.364 . S
C22 C23 1.374 . S
C23 H14 0.930 . S
C23 C22 1.374 . S
C23 C24 1.383 . S
C24 O18 1.412 . S
C24 C23 1.383 . S
C24 C25 1.394 . S
C25 H15 0.929 . S
C25 C21 1.377 . S
C25 C24 1.394 . S
H26 C33 0.929 . S
H27 C36 0.930 . S
H28 C38 0.929 . S
H29 C30 0.969 . S
C30 H29 0.969 . S
C30 O31 1.550 . S
C30 H32 0.973 . S
O31 C30 1.550 . S
O31 C37 1.412 . S
H32 C30 0.973 . S
C33 H26 0.929 . S
C33 C34 1.400 . S
C33 C35 1.364 . S
C34 C33 1.400 . S
C34 C38 1.377 . S
C35 C33 1.364 . S
C35 C36 1.374 . S
C36 H27 0.930 . S
C36 C35 1.374 . S
C36 C37 1.383 . S
C37 O31 1.412 . S
C37 C36 1.383 . S
C37 C38 1.394 . S
C38 H28 0.929 . S
C38 C34 1.377 . S
C38 C37 1.394 . S
H39 C46 0.929 . S
H40 C49 0.930 . S
H41 C51 0.929 . S
H42 C43 0.969 . S
C43 H42 0.969 . S
C43 O44 1.550 . S
C43 H45 0.973 . S
O44 C43 1.550 . S
O44 C50 1.412 . S
H45 C43 0.973 . S
C46 H39 0.929 . S
C46 C47 1.400 . S
C46 C48 1.364 . S
C47 C46 1.400 . S
C47 C51 1.377 . S
C48 C46 1.364 . S
C48 C49 1.374 . S
C49 H40 0.930 . S
C49 C48 1.374 . S
C49 C50 1.383 . S
C50 O44 1.412 . S
C50 C49 1.383 . S
C50 C51 1.394 . S
C51 H41 0.929 . S
C51 C47 1.377 . S
C51 C50 1.394 . S
H52 C59 0.929 . S
H53 C62 0.930 . S
H54 C64 0.929 . S
H55 C56 0.969 . S
C56 H55 0.969 . S
C56 O57 1.550 . S
C56 H58 0.973 . S
O57 C56 1.550 . S
O57 C63 1.412 . S
H58 C56 0.973 . S
C59 H52 0.929 . S
C59 C60 1.400 . S
C59 C61 1.364 . S
C60 C59 1.400 . S
C60 C64 1.377 . S
C61 C59 1.364 . S
C61 C62 1.374 . S
C62 H53 0.930 . S
C62 C61 1.374 . S
C62 C63 1.383 . S
C63 O57 1.412 . S
C63 C62 1.383 . S
C63 C64 1.394 . S
C64 H54 0.929 . S
C64 C60 1.377 . S
C64 C63 1.394 . S
H65 C72 0.929 . S
H66 C75 0.930 . S
H67 C77 0.929 . S
H68 C69 0.969 . S
C69 H68 0.969 . S
C69 O70 1.550 . S
C69 H71 0.973 . S
O70 C69 1.550 . S
O70 C76 1.412 . S
H71 C69 0.973 . S
C72 H65 0.929 . S
C72 C73 1.400 . S
C72 C74 1.364 . S
C73 C72 1.400 . S
C73 C77 1.377 . S
C74 C72 1.364 . S
C74 C75 1.374 . S
C75 H66 0.930 . S
C75 C74 1.374 . S
C75 C76 1.383 . S
C76 O70 1.412 . S
C76 C75 1.383 . S
C76 C77 1.394 . S
C77 H67 0.929 . S
C77 C73 1.377 . S
C77 C76 1.394 . S
H78 C85 0.929 . S
H79 C88 0.930 . S
H80 C90 0.929 . S
H81 C82 0.969 . S
C82 H81 0.969 . S
C82 O83 1.550 . S
C82 H84 0.973 . S
O83 C82 1.550 . S
O83 C89 1.412 . S
H84 C82 0.973 . S
C85 H78 0.929 . S
C85 C86 1.400 . S
C85 C87 1.364 . S
C86 C85 1.400 . S
C86 C90 1.377 . S
C87 C85 1.364 . S
C87 C88 1.374 . S
C88 H79 0.930 . S
C88 C87 1.374 . S
C88 C89 1.383 . S
C89 O83 1.412 . S
C89 C88 1.383 . S
C89 C90 1.394 . S
C90 H80 0.929 . S
C90 C86 1.377 . S
C90 C89 1.394 . S
H91 C98 0.929 . S
H92 C101 0.930 . S
H93 C103 0.929 . S
H94 C95 0.969 . S
C95 H94 0.969 . S
C95 O96 1.550 . S
C95 H97 0.973 . S
O96 C95 1.550 . S
O96 C102 1.412 . S
H97 C95 0.973 . S
C98 H91 0.929 . S
C98 C99 1.400 . S
C98 C100 1.364 . S
C99 C98 1.400 . S
C99 C103 1.377 . S
C100 C98 1.364 . S
C100 C101 1.374 . S
C101 H92 0.930 . S
C101 C100 1.374 . S
C101 C102 1.383 . S
C102 O96 1.412 . S
C102 C101 1.383 . S
C102 C103 1.394 . S
C103 H93 0.929 . S
C103 C99 1.377 . S
C103 C102 1.394 . S
Ho104 C107 2.811 . S
Ho104 O124 2.322 . S
Ho104 O126 2.378 . S
Ho104 O127 2.524 . S
Ho104 O128 2.381 . S
Ho104 O129 2.669 . S
Ho104 O131 2.346 1_545 S
Ho104 O135 2.305 . S
Ho105 C116 2.818 1_545 S
Ho105 O125 2.338 1_655 S
Ho105 O129 2.289 1_655 S
Ho105 O130 2.326 1_545 S
Ho105 O132 2.391 1_545 S
Ho105 O133 2.523 1_545 S
Ho105 O134 2.394 . S
Ho105 O135 2.670 1_655 S
C106 O124 1.259 . S
C106 O125 1.268 . S
C107 Ho104 2.811 . S
C107 C108 1.488 . S
C107 O126 1.215 . S
C107 O127 1.289 . S
C108 C107 1.488 . S
C108 C109 1.348 . S
C108 C113 1.413 . S
C109 C108 1.348 . S
C109 C110 1.442 . S
C109 H136 0.930 . S
C110 C109 1.442 . S
C110 C111 1.381 . S
C110 H137 0.931 . S
C111 C110 1.381 . S
C111 C112 1.321 . S
C112 C111 1.321 . S
C112 C113 1.403 . S
C112 H138 0.934 . S
C113 C108 1.413 . S
C113 C112 1.403 . S
C113 H139 0.930 . S
C114 O128 1.275 1_565 S
C114 O129 1.256 1_565 S
C115 O130 1.259 . S
C115 O131 1.268 1_655 S
C116 Ho105 2.818 1_565 S
C116 C117 1.488 . S
C116 O132 1.215 . S
C116 O133 1.289 . S
C117 C116 1.488 . S
C117 C118 1.348 . S
C117 C122 1.413 . S
C118 C117 1.348 . S
C118 C119 1.442 . S
C118 H140 0.930 . S
C119 C118 1.442 . S
C119 C120 1.381 . S
C119 H141 0.931 . S
C120 C119 1.381 . S
C120 C121 1.321 . S
C121 C120 1.321 . S
C121 C122 1.403 . S
C121 H142 0.934 . S
C122 C117 1.413 . S
C122 C121 1.403 . S
C122 H143 0.930 . S
C123 O134 1.275 . S
C123 O135 1.256 1_655 S
O124 Ho104 2.322 . S
O124 C106 1.259 . S
O125 Ho105 2.338 1_455 S
O125 C106 1.268 . S
O126 Ho104 2.378 . S
O126 C107 1.215 . S
O127 Ho104 2.524 . S
O127 C107 1.289 . S
O128 Ho104 2.381 . S
O128 C114 1.275 1_545 S
O129 Ho104 2.669 . S
O129 Ho105 2.289 1_455 S
O129 C114 1.256 1_545 S
O130 Ho105 2.326 1_565 S
O130 C115 1.259 . S
O131 Ho104 2.346 1_565 S
O131 C115 1.268 1_455 S
O132 Ho105 2.391 1_565 S
O132 C116 1.215 . S
O133 Ho105 2.523 1_565 S
O133 C116 1.289 . S
O134 Ho105 2.394 . S
O134 C123 1.275 . S
O135 Ho104 2.305 . S
O135 Ho105 2.670 1_455 S
O135 C123 1.256 1_455 S
H136 C109 0.930 . S
H137 C110 0.931 . S
H138 C112 0.934 . S
H139 C113 0.930 . S
H140 C118 0.930 . S
H141 C119 0.931 . S
H142 C121 0.934 . S
H143 C122 0.930 . S
Ho144 C147 2.811 . S
Ho144 O164 2.322 . S
Ho144 O166 2.378 . S
Ho144 O167 2.524 . S
Ho144 O168 2.381 1_545 S
Ho144 O169 2.669 1_545 S
Ho144 O171 2.346 1_544 S
Ho144 O175 2.305 . S
Ho145 C156 2.811 1_545 S
Ho145 O165 2.346 1_556 S
Ho145 O169 2.305 1_546 S
Ho145 O170 2.322 1_545 S
Ho145 O172 2.378 1_545 S
Ho145 O173 2.524 1_545 S
Ho145 O174 2.381 . S
Ho145 O175 2.669 1_556 S
C146 O164 1.259 . S
C146 O165 1.268 . S
C147 Ho144 2.811 . S
C147 C148 1.488 . S
C147 O166 1.215 . S
C147 O167 1.289 . S
C148 C147 1.488 . S
C148 C149 1.348 . S
C148 C153 1.413 . S
C149 C148 1.348 . S
C149 C150 1.442 . S
C149 H176 0.930 . S
C150 C149 1.442 . S
C150 C151 1.381 . S
C150 H177 0.931 . S
C151 C150 1.381 . S
C151 C152 1.321 . S
C152 C151 1.321 . S
C152 C153 1.403 . S
C152 H178 0.934 . S
C153 C148 1.413 . S
C153 C152 1.403 . S
C153 H179 0.930 . S
C154 O168 1.275 . S
C154 O169 1.256 . S
C155 O170 1.259 . S
C155 O171 1.268 . S
C156 Ho145 2.811 1_565 S
C156 C157 1.488 . S
C156 O172 1.215 . S
C156 O173 1.289 . S
C157 C156 1.488 . S
C157 C158 1.348 . S
C157 C162 1.413 . S
C158 C157 1.348 . S
C158 C159 1.442 . S
C158 H180 0.930 . S
C159 C158 1.442 . S
C159 C160 1.381 . S
C159 H181 0.931 . S
C160 C159 1.381 . S
C160 C161 1.321 . S
C161 C160 1.321 . S
C161 C162 1.403 . S
C161 H182 0.934 . S
C162 C157 1.413 . S
C162 C161 1.403 . S
C162 H183 0.930 . S
C163 O174 1.275 . S
C163 O175 1.256 1_556 S
O164 Ho144 2.322 . S
O164 C146 1.259 . S
O165 Ho145 2.346 1_554 S
O165 C146 1.268 . S
O166 Ho144 2.378 . S
O166 C147 1.215 . S
O167 Ho144 2.524 . S
O167 C147 1.289 . S
O168 Ho144 2.381 1_565 S
O168 C154 1.275 . S
O169 Ho144 2.669 1_565 S
O169 Ho145 2.305 1_564 S
O169 C154 1.256 . S
O170 Ho145 2.322 1_565 S
O170 C155 1.259 . S
O171 Ho144 2.346 1_566 S
O171 C155 1.268 . S
O172 Ho145 2.378 1_565 S
O172 C156 1.215 . S
O173 Ho145 2.524 1_565 S
O173 C156 1.289 . S
O174 Ho145 2.381 . S
O174 C163 1.275 . S
O175 Ho144 2.305 . S
O175 Ho145 2.669 1_554 S
O175 C163 1.256 1_554 S
H176 C149 0.930 . S
H177 C150 0.931 . S
H178 C152 0.934 . S
H179 C153 0.930 . S
H180 C158 0.930 . S
H181 C159 0.931 . S
H182 C161 0.934 . S
H183 C162 0.930 . S
Ho184 C187 2.811 . S
Ho184 O204 2.322 . S
Ho184 O206 2.378 . S
Ho184 O207 2.524 . S
Ho184 O208 2.381 . S
Ho184 O209 2.669 . S
Ho184 O211 2.346 . S
Ho184 O215 2.305 . S
Ho185 C196 2.811 . S
Ho185 O205 2.346 . S
Ho185 O209 2.305 . S
Ho185 O210 2.322 . S
Ho185 O212 2.378 . S
Ho185 O213 2.524 . S
Ho185 O214 2.381 . S
Ho185 O215 2.669 . S
C186 O204 1.259 . S
C186 O205 1.268 . S
C187 Ho184 2.811 . S
C187 C188 1.488 . S
C187 O206 1.215 . S
C187 O207 1.289 . S
C188 C187 1.488 . S
C188 C189 1.348 . S
C188 C193 1.413 . S
C189 C188 1.348 . S
C189 C190 1.442 . S
C189 H216 0.930 . S
C190 C189 1.442 . S
C190 C191 1.381 . S
C190 H217 0.931 . S
C191 C190 1.381 . S
C191 C192 1.321 . S
C192 C191 1.321 . S
C192 C193 1.403 . S
C192 H218 0.934 . S
C193 C188 1.413 . S
C193 C192 1.403 . S
C193 H219 0.930 . S
C194 O208 1.275 . S
C194 O209 1.256 . S
C195 O210 1.259 . S
C195 O211 1.268 . S
C196 Ho185 2.811 . S
C196 C197 1.488 . S
C196 O212 1.215 . S
C196 O213 1.289 . S
C197 C196 1.488 . S
C197 C198 1.348 . S
C197 C202 1.413 . S
C198 C197 1.348 . S
C198 C199 1.442 . S
C198 H220 0.930 . S
C199 C198 1.442 . S
C199 C200 1.381 . S
C199 H221 0.931 . S
C200 C199 1.381 . S
C200 C201 1.321 . S
C201 C200 1.321 . S
C201 C202 1.403 . S
C201 H222 0.934 . S
C202 C197 1.413 . S
C202 C201 1.403 . S
C202 H223 0.930 . S
C203 O214 1.275 . S
C203 O215 1.256 . S
O204 Ho184 2.322 . S
O204 C186 1.259 . S
O205 Ho185 2.346 . S
O205 C186 1.268 . S
O206 Ho184 2.378 . S
O206 C187 1.215 . S
O207 Ho184 2.524 . S
O207 C187 1.289 . S
O208 Ho184 2.381 . S
O208 C194 1.275 . S
O209 Ho184 2.669 . S
O209 Ho185 2.305 . S
O209 C194 1.256 . S
O210 Ho185 2.322 . S
O210 C195 1.259 . S
O211 Ho184 2.346 . S
O211 C195 1.268 . S
O212 Ho185 2.378 . S
O212 C196 1.215 . S
O213 Ho185 2.524 . S
O213 C196 1.289 . S
O214 Ho185 2.381 . S
O214 C203 1.275 . S
O215 Ho184 2.305 . S
O215 Ho185 2.669 . S
O215 C203 1.256 . S
H216 C189 0.930 . S
H217 C190 0.931 . S
H218 C192 0.934 . S
H219 C193 0.930 . S
H220 C198 0.930 . S
H221 C199 0.931 . S
H222 C201 0.934 . S
H223 C202 0.930 . S
Ho224 C227 2.811 . S
Ho224 O244 2.322 . S
Ho224 O246 2.378 . S
Ho224 O247 2.524 . S
Ho224 O248 2.381 . S
Ho224 O249 2.669 . S
Ho224 O251 2.346 1_455 S
Ho224 O255 2.305 . S
Ho225 C236 2.811 1_454 S
Ho225 O245 2.346 . S
Ho225 O249 2.305 . S
Ho225 O250 2.329 1_455 S
Ho225 O252 2.378 1_554 S
Ho225 O253 2.524 1_455 S
Ho225 O254 2.381 1_554 S
Ho225 O255 2.669 . S
C226 O244 1.259 . S
C226 O245 1.268 . S
C227 Ho224 2.811 . S
C227 C228 1.488 . S
C227 O246 1.215 . S
C227 O247 1.289 . S
C228 C227 1.488 . S
C228 C229 1.348 . S
C228 C233 1.413 . S
C229 C228 1.348 . S
C229 C230 1.442 . S
C229 H256 0.930 . S
C230 C229 1.442 . S
C230 C231 1.381 . S
C230 H257 0.931 . S
C231 C230 1.381 . S
C231 C232 1.321 . S
C232 C231 1.321 . S
C232 C233 1.403 . S
C232 H258 0.934 . S
C233 C228 1.413 . S
C233 C232 1.403 . S
C233 H259 0.930 . S
C234 O248 1.275 . S
C234 O249 1.256 . S
C235 O250 1.272 . S
C235 O251 1.268 . S
C236 Ho225 2.811 1_656 S
C236 C237 1.488 . S
C236 O252 1.215 1_655 S
C236 O253 1.289 1_556 S
C237 C236 1.488 . S
C237 C238 1.348 . S
C237 C242 1.413 . S
C238 C237 1.348 . S
C238 C239 1.442 . S
C238 H260 0.930 1_556 S
C239 C238 1.442 . S
C239 C240 1.381 . S
C239 H261 0.931 . S
C240 C239 1.381 . S
C240 C241 1.321 . S
C241 C240 1.321 . S
C241 C242 1.403 . S
C241 H262 0.934 . S
C242 C237 1.413 . S
C242 C241 1.403 . S
C242 H263 0.930 . S
C243 O254 1.275 . S
C243 O255 1.256 1_556 S
O244 Ho224 2.322 . S
O244 C226 1.259 . S
O245 Ho225 2.346 . S
O245 C226 1.268 . S
O246 Ho224 2.378 . S
O246 C227 1.215 . S
O247 Ho224 2.524 . S
O247 C227 1.289 . S
O248 Ho224 2.381 . S
O248 C234 1.275 . S
O249 Ho224 2.669 . S
O249 Ho225 2.305 . S
O249 C234 1.256 . S
O250 Ho225 2.329 1_655 S
O250 C235 1.272 . S
O251 Ho224 2.346 1_655 S
O251 C235 1.268 . S
O252 Ho225 2.378 1_556 S
O252 C236 1.215 1_455 S
O253 Ho225 2.524 1_655 S
O253 C236 1.289 1_554 S
O254 Ho225 2.381 1_556 S
O254 C243 1.275 . S
O255 Ho224 2.305 . S
O255 Ho225 2.669 . S
O255 C243 1.256 1_554 S
H256 C229 0.930 . S
H257 C230 0.931 . S
H258 C232 0.934 . S
H259 C233 0.930 . S
H260 C238 0.930 1_554 S
H261 C239 0.931 . S
H262 C241 0.934 . S
H263 C242 0.930 . S
C264 C265 1.349 . S
C264 C266 1.327 . S
C264 H289 0.950 . S
C265 C264 1.349 . S
C265 C281 1.349 . S
C266 C264 1.327 . S
C266 C285 1.429 . S
C266 H290 0.950 . S
C267 C284 1.574 . S
C267 C286 1.368 . S
C267 H291 0.949 . S
H268 C272 0.949 . S
C269 C270 1.349 . S
C269 C271 1.327 . S
C269 H292 0.950 . S
C270 C269 1.349 . S
C270 C282 1.349 . S
C271 C269 1.327 . S
C271 C287 1.429 . S
C271 H293 0.950 . S
C272 H268 0.949 . S
C272 C280 1.574 . S
C272 C288 1.368 . S
H273 C281 0.950 . S
H274 C279 0.950 . S
H275 C280 0.949 . S
H276 C282 0.950 . S
H277 C283 0.950 . S
H278 C284 0.949 . S
C279 H274 0.950 . S
C279 C281 1.327 . S
C279 C285 1.429 . S
C280 C272 1.574 . S
C280 H275 0.949 . S
C280 C286 1.368 . S
C281 C265 1.349 . S
C281 H273 0.950 . S
C281 C279 1.327 . S
C282 C270 1.349 . S
C282 H276 0.950 . S
C282 C283 1.327 . S
C283 H277 0.950 . S
C283 C282 1.327 . S
C283 C287 1.429 . S
C284 C267 1.574 . S
C284 H278 0.949 . S
C284 C288 1.368 . S
C285 C266 1.429 . S
C285 C279 1.429 . S
C285 C286 1.523 . S
C286 C267 1.368 . S
C286 C280 1.368 . S
C286 C285 1.523 . S
C287 C271 1.429 . S
C287 C283 1.429 . S
C287 C288 1.523 . S
C288 C272 1.368 . S
C288 C284 1.368 . S
C288 C287 1.523 . S
H289 C264 0.950 . S
H290 C266 0.950 . S
H291 C267 0.949 . S
H292 C269 0.950 . S
H293 C271 0.950 . S
C294 C295 1.349 . S
C294 C296 1.327 . S
C294 H319 0.950 . S
C295 C294 1.349 . S
C295 C311 1.349 . S
C296 C294 1.327 . S
C296 C315 1.429 . S
C296 H320 0.950 . S
C297 C314 1.574 . S
C297 C316 1.368 . S
C297 H321 0.949 . S
H298 C302 0.949 . S
C299 C300 1.349 . S
C299 C301 1.327 . S
C299 H322 0.950 . S
C300 C299 1.349 . S
C300 C312 1.349 . S
C301 C299 1.327 . S
C301 C317 1.429 . S
C301 H323 0.950 . S
C302 H298 0.949 . S
C302 C310 1.574 . S
C302 C318 1.368 . S
H303 C311 0.950 . S
H304 C309 0.950 . S
H305 C310 0.949 . S
H306 C312 0.950 . S
H307 C313 0.950 . S
H308 C314 0.949 . S
C309 H304 0.950 . S
C309 C311 1.327 . S
C309 C315 1.429 . S
C310 C302 1.574 . S
C310 H305 0.949 . S
C310 C316 1.368 . S
C311 C295 1.349 . S
C311 H303 0.950 . S
C311 C309 1.327 . S
C312 C300 1.349 . S
C312 H306 0.950 . S
C312 C313 1.327 . S
C313 H307 0.950 . S
C313 C312 1.327 . S
C313 C317 1.429 . S
C314 C297 1.574 . S
C314 H308 0.949 . S
C314 C318 1.368 . S
C315 C296 1.429 . S
C315 C309 1.429 . S
C315 C316 1.523 . S
C316 C297 1.368 . S
C316 C310 1.368 . S
C316 C315 1.523 . S
C317 C301 1.429 . S
C317 C313 1.429 . S
C317 C318 1.523 . S
C318 C302 1.368 . S
C318 C314 1.368 . S
C318 C317 1.523 . S
H319 C294 0.950 . S
H320 C296 0.950 . S
H321 C297 0.949 . S
H322 C299 0.950 . S
H323 C301 0.950 . S
C324 C325 1.349 . S
C324 C326 1.327 . S
C324 H349 0.950 . S
C325 C324 1.349 . S
C325 C341 1.349 . S
C326 C324 1.327 . S
C326 C345 1.429 . S
C326 H350 0.950 . S
C327 C344 1.574 . S
C327 C346 1.368 . S
C327 H351 0.949 . S
H328 C332 0.949 . S
C329 C330 1.349 . S
C329 C331 1.327 . S
C329 H352 0.950 . S
C330 C329 1.349 . S
C330 C342 1.349 . S
C331 C329 1.327 . S
C331 C347 1.429 . S
C331 H353 0.950 . S
C332 H328 0.949 . S
C332 C340 1.574 . S
C332 C348 1.368 . S
H333 C341 0.950 . S
H334 C339 0.950 . S
H335 C340 0.949 . S
H336 C342 0.950 . S
H337 C343 0.950 . S
H338 C344 0.949 . S
C339 H334 0.950 . S
C339 C341 1.327 . S
C339 C345 1.429 . S
C340 C332 1.574 . S
C340 H335 0.949 . S
C340 C346 1.368 . S
C341 C325 1.349 . S
C341 H333 0.950 . S
C341 C339 1.327 . S
C342 C330 1.349 . S
C342 H336 0.950 . S
C342 C343 1.327 . S
C343 H337 0.950 . S
C343 C342 1.327 . S
C343 C347 1.429 . S
C344 C327 1.574 . S
C344 H338 0.949 . S
C344 C348 1.368 . S
C345 C326 1.429 . S
C345 C339 1.429 . S
C345 C346 1.523 . S
C346 C327 1.368 . S
C346 C340 1.368 . S
C346 C345 1.523 . S
C347 C331 1.429 . S
C347 C343 1.429 . S
C347 C348 1.523 . S
C348 C332 1.368 . S
C348 C344 1.368 . S
C348 C347 1.523 . S
H349 C324 0.950 . S
H350 C326 0.950 . S
H351 C327 0.949 . S
H352 C329 0.950 . S
H353 C331 0.950 . S
C354 C355 1.349 . S
C354 C356 1.327 . S
C354 H379 0.950 . S
C355 C354 1.349 . S
C355 C371 1.349 . S
C356 C354 1.327 . S
C356 C375 1.429 . S
C356 H380 0.950 . S
C357 C374 1.574 . S
C357 C376 1.368 . S
C357 H381 0.949 . S
H358 C362 0.949 . S
C359 C360 1.349 . S
C359 C361 1.327 . S
C359 H382 0.950 . S
C360 C359 1.349 . S
C360 C372 1.349 1_655 S
C361 C359 1.327 . S
C361 C377 1.429 . S
C361 H383 0.950 . S
C362 H358 0.949 . S
C362 C370 1.574 . S
C362 C378 1.368 . S
H363 C371 0.950 . S
H364 C369 0.950 . S
H365 C370 0.949 . S
H366 C372 0.950 . S
H367 C373 0.950 1_455 S
H368 C374 0.949 . S
C369 H364 0.950 . S
C369 C371 1.327 . S
C369 C375 1.429 . S
C370 C362 1.574 . S
C370 H365 0.949 . S
C370 C376 1.368 . S
C371 C355 1.349 . S
C371 H363 0.950 . S
C371 C369 1.327 . S
C372 C360 1.349 1_455 S
C372 H366 0.950 . S
C372 C373 1.327 1_455 S
C373 H367 0.950 1_655 S
C373 C372 1.327 1_655 S
C373 C377 1.429 . S
C374 C357 1.574 . S
C374 H368 0.949 . S
C374 C378 1.368 . S
C375 C356 1.429 . S
C375 C369 1.429 . S
C375 C376 1.523 . S
C376 C357 1.368 . S
C376 C370 1.368 . S
C376 C375 1.523 . S
C377 C361 1.429 . S
C377 C373 1.429 . S
C377 C378 1.523 . S
C378 C362 1.368 . S
C378 C374 1.368 . S
C378 C377 1.523 . S
H379 C354 0.950 . S
H380 C356 0.950 . S
H381 C357 0.949 . S
H382 C359 0.950 . S
H383 C361 0.950 . S
C384 C385 1.349 . S
C384 C386 1.327 . S
C384 H409 0.950 . S
C385 C384 1.349 . S
C385 C401 1.349 . S
C386 C384 1.327 . S
C386 C405 1.429 . S
C386 H410 0.950 . S
C387 C404 1.574 . S
C387 C406 1.368 . S
C387 H411 0.949 . S
H388 C392 0.949 . S
C389 C390 1.349 . S
C389 C391 1.327 . S
C389 H412 0.950 . S
C390 C389 1.349 . S
C390 C402 1.349 . S
C391 C389 1.327 . S
C391 C407 1.429 . S
C391 H413 0.950 . S
C392 H388 0.949 . S
C392 C400 1.574 . S
C392 C408 1.368 . S
H393 C401 0.950 . S
H394 C399 0.950 . S
H395 C400 0.949 . S
H396 C402 0.950 . S
H397 C403 0.950 . S
H398 C404 0.949 . S
C399 H394 0.950 . S
C399 C401 1.327 . S
C399 C405 1.429 . S
C400 C392 1.574 . S
C400 H395 0.949 . S
C400 C406 1.368 . S
C401 C385 1.349 . S
C401 H393 0.950 . S
C401 C399 1.327 . S
C402 C390 1.349 . S
C402 H396 0.950 . S
C402 C403 1.327 . S
C403 H397 0.950 . S
C403 C402 1.327 . S
C403 C407 1.429 . S
C404 C387 1.574 . S
C404 H398 0.949 . S
C404 C408 1.368 . S
C405 C386 1.429 . S
C405 C399 1.429 . S
C405 C406 1.523 . S
C406 C387 1.368 . S
C406 C400 1.368 . S
C406 C405 1.523 . S
C407 C391 1.429 . S
C407 C403 1.429 . S
C407 C408 1.523 . S
C408 C392 1.368 . S
C408 C404 1.368 . S
C408 C407 1.523 . S
H409 C384 0.950 . S
H410 C386 0.950 . S
H411 C387 0.949 . S
H412 C389 0.950 . S
H413 C391 0.950 . S
C414 C415 1.349 . S
C414 C416 1.327 . S
C414 H439 0.950 . S
C415 C414 1.349 . S
C415 C431 1.349 . S
C416 C414 1.327 . S
C416 C435 1.429 . S
C416 H440 0.950 . S
C417 C434 1.574 . S
C417 C436 1.368 . S
C417 H441 0.949 . S
H418 C422 0.949 . S
C419 C420 1.349 . S
C419 C421 1.327 . S
C419 H442 0.950 . S
C420 C419 1.349 . S
C420 C432 1.349 . S
C421 C419 1.327 . S
C421 C437 1.429 . S
C421 H443 0.950 . S
C422 H418 0.949 . S
C422 C430 1.574 . S
C422 C438 1.368 . S
H423 C431 0.950 . S
H424 C429 0.950 . S
H425 C430 0.949 . S
H426 C432 0.950 1_545 S
H427 C433 0.950 . S
H428 C434 0.949 . S
C429 H424 0.950 . S
C429 C431 1.327 . S
C429 C435 1.429 . S
C430 C422 1.574 . S
C430 H425 0.949 . S
C430 C436 1.368 . S
C431 C415 1.349 . S
C431 H423 0.950 . S
C431 C429 1.327 . S
C432 C420 1.349 . S
C432 H426 0.950 1_565 S
C432 C433 1.327 . S
C433 H427 0.950 . S
C433 C432 1.327 . S
C433 C437 1.429 . S
C434 C417 1.574 . S
C434 H428 0.949 . S
C434 C438 1.368 . S
C435 C416 1.429 . S
C435 C429 1.429 . S
C435 C436 1.523 . S
C436 C417 1.368 . S
C436 C430 1.368 . S
C436 C435 1.523 . S
C437 C421 1.429 . S
C437 C433 1.429 . S
C437 C438 1.523 . S
C438 C422 1.368 . S
C438 C434 1.368 . S
C438 C437 1.523 . S
H439 C414 0.950 . S
H440 C416 0.950 . S
H441 C417 0.949 . S
H442 C419 0.950 . S
H443 C421 0.950 . S
C444 C445 1.349 . S
C444 C446 1.327 . S
C444 H469 0.950 . S
C445 C444 1.349 . S
C445 C461 1.349 . S
C446 C444 1.327 . S
C446 C465 1.429 . S
C446 H470 0.950 . S
C447 C464 1.574 . S
C447 C466 1.368 . S
C447 H471 0.949 . S
H448 C452 0.949 . S
C449 C450 1.349 1_556 S
C449 C451 1.327 . S
C449 H472 0.950 . S
C450 C449 1.349 1_554 S
C450 C462 1.349 . S
C451 C449 1.327 . S
C451 C467 1.429 . S
C451 H473 0.950 . S
C452 H448 0.949 . S
C452 C460 1.574 . S
C452 C468 1.368 . S
H453 C461 0.950 . S
H454 C459 0.950 . S
H455 C460 0.949 . S
H456 C462 0.950 . S
H457 C463 0.950 . S
H458 C464 0.949 . S
C459 H454 0.950 . S
C459 C461 1.327 . S
C459 C465 1.429 . S
C460 C452 1.574 . S
C460 H455 0.949 . S
C460 C466 1.368 . S
C461 C445 1.349 . S
C461 H453 0.950 . S
C461 C459 1.327 . S
C462 C450 1.349 . S
C462 H456 0.950 . S
C462 C463 1.327 1_554 S
C463 H457 0.950 . S
C463 C462 1.327 1_556 S
C463 C467 1.429 . S
C464 C447 1.574 . S
C464 H458 0.949 . S
C464 C468 1.368 . S
C465 C446 1.429 . S
C465 C459 1.429 . S
C465 C466 1.523 . S
C466 C447 1.368 . S
C466 C460 1.368 . S
C466 C465 1.523 . S
C467 C451 1.429 . S
C467 C463 1.429 . S
C467 C468 1.523 . S
C468 C452 1.368 . S
C468 C464 1.368 . S
C468 C467 1.523 . S
H469 C444 0.950 . S
H470 C446 0.950 . S
H471 C447 0.949 . S
H472 C449 0.950 . S
H473 C451 0.950 . S
C474 C475 1.349 . S
C474 C476 1.327 . S
C474 H499 0.950 . S
C475 C474 1.349 . S
C475 C491 1.349 . S
C476 C474 1.327 . S
C476 C495 1.429 . S
C476 H500 0.950 . S
C477 C494 1.574 . S
C477 C496 1.368 . S
C477 H501 0.949 . S
H478 C482 0.949 . S
C479 C480 1.349 . S
C479 C481 1.327 . S
C479 H502 0.950 . S
C480 C479 1.349 . S
C480 C492 1.349 . S
C481 C479 1.327 . S
C481 C497 1.429 . S
C481 H503 0.950 . S
C482 H478 0.949 . S
C482 C490 1.574 . S
C482 C498 1.368 . S
H483 C491 0.950 . S
H484 C489 0.950 . S
H485 C490 0.949 . S
H486 C492 0.950 . S
H487 C493 0.950 . S
H488 C494 0.949 . S
C489 H484 0.950 . S
C489 C491 1.327 . S
C489 C495 1.429 . S
C490 C482 1.574 . S
C490 H485 0.949 . S
C490 C496 1.368 . S
C491 C475 1.349 . S
C491 H483 0.950 . S
C491 C489 1.327 . S
C492 C480 1.349 . S
C492 H486 0.950 . S
C492 C493 1.327 . S
C493 H487 0.950 . S
C493 C492 1.327 . S
C493 C497 1.429 . S
C494 C477 1.574 . S
C494 H488 0.949 . S
C494 C498 1.368 . S
C495 C476 1.429 . S
C495 C489 1.429 . S
C495 C496 1.523 . S
C496 C477 1.368 . S
C496 C490 1.368 . S
C496 C495 1.523 . S
C497 C481 1.429 . S
C497 C493 1.429 . S
C497 C498 1.523 . S
C498 C482 1.368 . S
C498 C494 1.368 . S
C498 C497 1.523 . S
H499 C474 0.950 . S
H500 C476 0.950 . S
H501 C477 0.949 . S
H502 C479 0.950 . S
H503 C481 0.950 . S
C504 C505 1.349 . S
C504 C506 1.327 . S
C504 H529 0.950 . S
C505 C504 1.349 . S
C505 C521 1.349 . S
C506 C504 1.327 . S
C506 C525 1.429 . S
C506 H530 0.950 . S
C507 C524 1.574 . S
C507 C526 1.368 . S
C507 H531 0.949 . S
H508 C512 0.949 . S
C509 C510 1.349 . S
C509 C511 1.327 . S
C509 H532 0.950 . S
C510 C509 1.349 . S
C510 C522 1.349 . S
C511 C509 1.327 . S
C511 C527 1.429 . S
C511 H533 0.950 . S
C512 H508 0.949 . S
C512 C520 1.574 . S
C512 C528 1.368 . S
H513 C521 0.950 . S
H514 C519 0.950 . S
H515 C520 0.949 . S
H516 C522 0.950 . S
H517 C523 0.950 . S
H518 C524 0.949 . S
C519 H514 0.950 . S
C519 C521 1.327 . S
C519 C525 1.429 . S
C520 C512 1.574 . S
C520 H515 0.949 . S
C520 C526 1.368 . S
C521 C505 1.349 . S
C521 H513 0.950 . S
C521 C519 1.327 . S
C522 C510 1.349 . S
C522 H516 0.950 . S
C522 C523 1.327 . S
C523 H517 0.950 . S
C523 C522 1.327 . S
C523 C527 1.429 . S
C524 C507 1.574 . S
C524 H518 0.949 . S
C524 C528 1.368 . S
C525 C506 1.429 . S
C525 C519 1.429 . S
C525 C526 1.523 . S
C526 C507 1.368 . S
C526 C520 1.368 . S
C526 C525 1.523 . S
C527 C511 1.429 . S
C527 C523 1.429 . S
C527 C528 1.523 . S
C528 C512 1.368 . S
C528 C524 1.368 . S
C528 C527 1.523 . S
H529 C504 0.950 . S
H530 C506 0.950 . S
H531 C507 0.949 . S
H532 C509 0.950 . S
H533 C511 0.950 . S
C534 C535 1.349 . S
C534 C536 1.327 . S
C534 H559 0.950 . S
C535 C534 1.349 . S
C535 C551 1.349 . S
C536 C534 1.327 . S
C536 C555 1.429 . S
C536 H560 0.950 . S
C537 C554 1.574 . S
C537 C556 1.368 . S
C537 H561 0.949 . S
H538 C542 0.949 . S
C539 C540 1.349 . S
C539 C541 1.327 . S
C539 H562 0.950 . S
C540 C539 1.349 . S
C540 C552 1.349 . S
C541 C539 1.327 . S
C541 C557 1.429 . S
C541 H563 0.950 . S
C542 H538 0.949 . S
C542 C550 1.574 . S
C542 C558 1.368 . S
H543 C551 0.950 . S
H544 C549 0.950 . S
H545 C550 0.949 . S
H546 C552 0.950 . S
H547 C553 0.950 . S
H548 C554 0.949 . S
C549 H544 0.950 . S
C549 C551 1.327 . S
C549 C555 1.429 . S
C550 C542 1.574 . S
C550 H545 0.949 . S
C550 C556 1.368 . S
C551 C535 1.349 . S
C551 H543 0.950 . S
C551 C549 1.327 . S
C552 C540 1.349 . S
C552 H546 0.950 . S
C552 C553 1.327 . S
C553 H547 0.950 . S
C553 C552 1.327 . S
C553 C557 1.429 . S
C554 C537 1.574 . S
C554 H548 0.949 . S
C554 C558 1.368 . S
C555 C536 1.429 . S
C555 C549 1.429 . S
C555 C556 1.523 . S
C556 C537 1.368 . S
C556 C550 1.368 . S
C556 C555 1.523 . S
C557 C541 1.429 . S
C557 C553 1.429 . S
C557 C558 1.523 . S
C558 C542 1.368 . S
C558 C554 1.368 . S
C558 C557 1.523 . S
H559 C534 0.950 . S
H560 C536 0.950 . S
H561 C537 0.949 . S
H562 C539 0.950 . S
H563 C541 0.950 . S
C564 C565 1.349 . S
C564 C566 1.327 . S
C564 H589 0.950 . S
C565 C564 1.349 . S
C565 C581 1.349 . S
C566 C564 1.327 . S
C566 C585 1.429 . S
C566 H590 0.950 . S
C567 C584 1.574 . S
C567 C586 1.368 . S
C567 H591 0.949 . S
H568 C572 0.949 . S
C569 C570 1.349 . S
C569 C571 1.327 . S
C569 H592 0.950 . S
C570 C569 1.349 . S
C570 C582 1.349 . S
C571 C569 1.327 . S
C571 C587 1.429 . S
C571 H593 0.950 . S
C572 H568 0.949 . S
C572 C580 1.574 . S
C572 C588 1.368 . S
H573 C581 0.950 . S
H574 C579 0.950 . S
H575 C580 0.949 . S
H576 C582 0.950 1_455 S
H577 C583 0.950 1_455 S
H578 C584 0.949 . S
C579 H574 0.950 . S
C579 C581 1.327 . S
C579 C585 1.429 . S
C580 C572 1.574 . S
C580 H575 0.949 . S
C580 C586 1.368 . S
C581 C565 1.349 . S
C581 H573 0.950 . S
C581 C579 1.327 . S
C582 C570 1.349 . S
C582 H576 0.950 1_655 S
C582 C583 1.327 . S
C583 H577 0.950 1_655 S
C583 C582 1.327 . S
C583 C587 1.429 . S
C584 C567 1.574 . S
C584 H578 0.949 . S
C584 C588 1.368 . S
C585 C566 1.429 . S
C585 C579 1.429 . S
C585 C586 1.523 . S
C586 C567 1.368 . S
C586 C580 1.368 . S
C586 C585 1.523 . S
C587 C571 1.429 . S
C587 C583 1.429 . S
C587 C588 1.523 . S
C588 C572 1.368 . S
C588 C584 1.368 . S
C588 C587 1.523 . S
H589 C564 0.950 . S
H590 C566 0.950 . S
H591 C567 0.949 . S
H592 C569 0.950 . S
H593 C571 0.950 . S
C594 C595 1.349 . S
C594 C596 1.327 . S
C594 H619 0.950 . S
C595 C594 1.349 . S
C595 C611 1.349 . S
C596 C594 1.327 . S
C596 C615 1.429 . S
C596 H620 0.950 . S
C597 C614 1.574 . S
C597 C616 1.368 . S
C597 H621 0.949 . S
H598 C602 0.949 . S
C599 C600 1.349 . S
C599 C601 1.327 . S
C599 H622 0.950 . S
C600 C599 1.349 . S
C600 C612 1.349 . S
C601 C599 1.327 . S
C601 C617 1.429 . S
C601 H623 0.950 . S
C602 H598 0.949 . S
C602 C610 1.574 . S
C602 C618 1.368 . S
H603 C611 0.950 . S
H604 C609 0.950 . S
H605 C610 0.949 . S
H606 C612 0.950 . S
H607 C613 0.950 . S
H608 C614 0.949 . S
C609 H604 0.950 . S
C609 C611 1.327 . S
C609 C615 1.429 . S
C610 C602 1.574 . S
C610 H605 0.949 . S
C610 C616 1.368 . S
C611 C595 1.349 . S
C611 H603 0.950 . S
C611 C609 1.327 . S
C612 C600 1.349 . S
C612 H606 0.950 . S
C612 C613 1.327 . S
C613 H607 0.950 . S
C613 C612 1.327 . S
C613 C617 1.429 . S
C614 C597 1.574 . S
C614 H608 0.949 . S
C614 C618 1.368 . S
C615 C596 1.429 . S
C615 C609 1.429 . S
C615 C616 1.523 . S
C616 C597 1.368 . S
C616 C610 1.368 . S
C616 C615 1.523 . S
C617 C601 1.429 . S
C617 C613 1.429 . S
C617 C618 1.523 . S
C618 C602 1.368 . S
C618 C614 1.368 . S
C618 C617 1.523 . S
H619 C594 0.950 . S
H620 C596 0.950 . S
H621 C597 0.949 . S
H622 C599 0.950 . S
H623 C601 0.950 . S
C624 C625 1.349 . S
C624 C626 1.327 . S
C624 H649 0.950 . S
C625 C624 1.349 . S
C625 C641 1.349 . S
C626 C624 1.327 . S
C626 C645 1.429 . S
C626 H650 0.950 . S
C627 C644 1.574 . S
C627 C646 1.368 . S
C627 H651 0.949 . S
H628 C632 0.949 . S
C629 C630 1.349 . S
C629 C631 1.327 . S
C629 H652 0.950 . S
C630 C629 1.349 . S
C630 C642 1.349 . S
C631 C629 1.327 . S
C631 C647 1.429 . S
C631 H653 0.950 . S
C632 H628 0.949 . S
C632 C640 1.574 . S
C632 C648 1.368 . S
H633 C641 0.950 . S
H634 C639 0.950 . S
H635 C640 0.949 . S
H636 C642 0.950 . S
H637 C643 0.950 . S
H638 C644 0.949 . S
C639 H634 0.950 . S
C639 C641 1.327 . S
C639 C645 1.429 . S
C640 C632 1.574 . S
C640 H635 0.949 . S
C640 C646 1.368 . S
C641 C625 1.349 . S
C641 H633 0.950 . S
C641 C639 1.327 . S
C642 C630 1.349 . S
C642 H636 0.950 . S
C642 C643 1.327 . S
C643 H637 0.950 . S
C643 C642 1.327 . S
C643 C647 1.429 . S
C644 C627 1.574 . S
C644 H638 0.949 . S
C644 C648 1.368 . S
C645 C626 1.429 . S
C645 C639 1.429 . S
C645 C646 1.523 . S
C646 C627 1.368 . S
C646 C640 1.368 . S
C646 C645 1.523 . S
C647 C631 1.429 . S
C647 C643 1.429 . S
C647 C648 1.523 . S
C648 C632 1.368 . S
C648 C644 1.368 . S
C648 C647 1.523 . S
H649 C624 0.950 . S
H650 C626 0.950 . S
H651 C627 0.949 . S
H652 C629 0.950 . S
H653 C631 0.950 . S
C654 C655 1.349 . S
C654 C656 1.327 . S
C654 H679 0.950 . S
C655 C654 1.349 . S
C655 C671 1.349 . S
C656 C654 1.327 . S
C656 C675 1.429 . S
C656 H680 0.950 . S
C657 C674 1.574 . S
C657 C676 1.368 . S
C657 H681 0.949 . S
H658 C662 0.949 . S
C659 C660 1.349 . S
C659 C661 1.327 . S
C659 H682 0.950 . S
C660 C659 1.349 . S
C660 C672 1.349 . S
C661 C659 1.327 . S
C661 C677 1.429 . S
C661 H683 0.950 . S
C662 H658 0.949 . S
C662 C670 1.574 . S
C662 C678 1.368 . S
H663 C671 0.950 . S
H664 C669 0.950 . S
H665 C670 0.949 . S
H666 C672 0.950 . S
H667 C673 0.950 . S
H668 C674 0.949 . S
C669 H664 0.950 . S
C669 C671 1.327 . S
C669 C675 1.429 . S
C670 C662 1.574 . S
C670 H665 0.949 . S
C670 C676 1.368 . S
C671 C655 1.349 . S
C671 H663 0.950 . S
C671 C669 1.327 . S
C672 C660 1.349 . S
C672 H666 0.950 . S
C672 C673 1.327 . S
C673 H667 0.950 . S
C673 C672 1.327 . S
C673 C677 1.429 . S
C674 C657 1.574 . S
C674 H668 0.949 . S
C674 C678 1.368 . S
C675 C656 1.429 . S
C675 C669 1.429 . S
C675 C676 1.523 . S
C676 C657 1.368 . S
C676 C670 1.368 . S
C676 C675 1.523 . S
C677 C661 1.429 . S
C677 C673 1.429 . S
C677 C678 1.523 . S
C678 C662 1.368 . S
C678 C674 1.368 . S
C678 C677 1.523 . S
H679 C654 0.950 . S
H680 C656 0.950 . S
H681 C657 0.949 . S
H682 C659 0.950 . S
H683 C661 0.950 . S
C684 C685 1.349 . S
C684 C686 1.327 . S
C684 H709 0.950 . S
C685 C684 1.349 . S
C685 C701 1.349 . S
C686 C684 1.327 . S
C686 C705 1.429 . S
C686 H710 0.950 . S
C687 C704 1.574 . S
C687 C706 1.368 . S
C687 H711 0.949 . S
H688 C692 0.949 . S
C689 C690 1.349 . S
C689 C691 1.327 . S
C689 H712 0.950 . S
C690 C689 1.349 . S
C690 C702 1.349 . S
C691 C689 1.327 . S
C691 C707 1.429 . S
C691 H713 0.950 . S
C692 H688 0.949 . S
C692 C700 1.574 . S
C692 C708 1.368 . S
H693 C701 0.950 . S
H694 C699 0.950 . S
H695 C700 0.949 . S
H696 C702 0.950 . S
H697 C703 0.950 . S
H698 C704 0.949 . S
C699 H694 0.950 . S
C699 C701 1.327 . S
C699 C705 1.429 . S
C700 C692 1.574 . S
C700 H695 0.949 . S
C700 C706 1.368 . S
C701 C685 1.349 . S
C701 H693 0.950 . S
C701 C699 1.327 . S
C702 C690 1.349 . S
C702 H696 0.950 . S
C702 C703 1.327 . S
C703 H697 0.950 . S
C703 C702 1.327 . S
C703 C707 1.429 . S
C704 C687 1.574 . S
C704 H698 0.949 . S
C704 C708 1.368 . S
C705 C686 1.429 . S
C705 C699 1.429 . S
C705 C706 1.523 . S
C706 C687 1.368 . S
C706 C700 1.368 . S
C706 C705 1.523 . S
C707 C691 1.429 . S
C707 C703 1.429 . S
C707 C708 1.523 . S
C708 C692 1.368 . S
C708 C704 1.368 . S
C708 C707 1.523 . S
H709 C684 0.950 . S
H710 C686 0.950 . S
H711 C687 0.949 . S
H712 C689 0.950 . S
H713 C691 0.950 . S
C714 C715 1.349 . S
C714 C716 1.327 . S
C714 H739 0.950 . S
C715 C714 1.349 . S
C715 C731 1.349 . S
C716 C714 1.327 . S
C716 C735 1.429 . S
C716 H740 0.950 . S
C717 C734 1.574 . S
C717 C736 1.368 . S
C717 H741 0.949 . S
H718 C722 0.949 . S
C719 C720 1.349 . S
C719 C721 1.327 . S
C719 H742 0.950 . S
C720 C719 1.349 . S
C720 C732 1.349 . S
C721 C719 1.327 . S
C721 C737 1.429 . S
C721 H743 0.950 . S
C722 H718 0.949 . S
C722 C730 1.574 . S
C722 C738 1.368 . S
H723 C731 0.950 . S
H724 C729 0.950 . S
H725 C730 0.949 . S
H726 C732 0.950 . S
H727 C733 0.950 . S
H728 C734 0.949 . S
C729 H724 0.950 . S
C729 C731 1.327 . S
C729 C735 1.429 . S
C730 C722 1.574 . S
C730 H725 0.949 . S
C730 C736 1.368 . S
C731 C715 1.349 . S
C731 H723 0.950 . S
C731 C729 1.327 . S
C732 C720 1.349 . S
C732 H726 0.950 . S
C732 C733 1.327 . S
C733 H727 0.950 . S
C733 C732 1.327 . S
C733 C737 1.429 . S
C734 C717 1.574 . S
C734 H728 0.949 . S
C734 C738 1.368 . S
C735 C716 1.429 . S
C735 C729 1.429 . S
C735 C736 1.523 . S
C736 C717 1.368 . S
C736 C730 1.368 . S
C736 C735 1.523 . S
C737 C721 1.429 . S
C737 C733 1.429 . S
C737 C738 1.523 . S
C738 C722 1.368 . S
C738 C734 1.368 . S
C738 C737 1.523 . S
H739 C714 0.950 . S
H740 C716 0.950 . S
H741 C717 0.949 . S
H742 C719 0.950 . S
H743 C721 0.950 . S
C744 C745 1.349 . S
C744 C746 1.327 . S
C744 H769 0.950 . S
C745 C744 1.349 . S
C745 C761 1.349 . S
C746 C744 1.327 . S
C746 C765 1.429 . S
C746 H770 0.950 . S
C747 C764 1.574 . S
C747 C766 1.368 . S
C747 H771 0.949 . S
H748 C752 0.949 . S
C749 C750 1.349 . S
C749 C751 1.327 . S
C749 H772 0.950 . S
C750 C749 1.349 . S
C750 C762 1.349 . S
C751 C749 1.327 . S
C751 C767 1.429 . S
C751 H773 0.950 . S
C752 H748 0.949 . S
C752 C760 1.574 . S
C752 C768 1.368 . S
H753 C761 0.950 . S
H754 C759 0.950 . S
H755 C760 0.949 . S
H756 C762 0.950 . S
H757 C763 0.950 . S
H758 C764 0.949 . S
C759 H754 0.950 . S
C759 C761 1.327 . S
C759 C765 1.429 . S
C760 C752 1.574 . S
C760 H755 0.949 . S
C760 C766 1.368 . S
C761 C745 1.349 . S
C761 H753 0.950 . S
C761 C759 1.327 . S
C762 C750 1.349 . S
C762 H756 0.950 . S
C762 C763 1.327 . S
C763 H757 0.950 . S
C763 C762 1.327 . S
C763 C767 1.429 . S
C764 C747 1.574 . S
C764 H758 0.949 . S
C764 C768 1.368 . S
C765 C746 1.429 . S
C765 C759 1.429 . S
C765 C766 1.523 . S
C766 C747 1.368 . S
C766 C760 1.368 . S
C766 C765 1.523 . S
C767 C751 1.429 . S
C767 C763 1.429 . S
C767 C768 1.523 . S
C768 C752 1.368 . S
C768 C764 1.368 . S
C768 C767 1.523 . S
H769 C744 0.950 . S
H770 C746 0.950 . S
H771 C747 0.949 . S
H772 C749 0.950 . S
H773 C751 0.950 . S
C774 C775 1.349 . S
C774 C776 1.327 . S
C774 H799 0.950 . S
C775 C774 1.349 . S
C775 C791 1.349 . S
C776 C774 1.327 . S
C776 C795 1.429 . S
C776 H800 0.950 . S
C777 C794 1.574 . S
C777 C796 1.368 . S
C777 H801 0.949 . S
H778 C782 0.949 . S
C779 C780 1.349 . S
C779 C781 1.327 . S
C779 H802 0.950 . S
C780 C779 1.349 . S
C780 C792 1.349 . S
C781 C779 1.327 . S
C781 C797 1.429 . S
C781 H803 0.950 . S
C782 H778 0.949 . S
C782 C790 1.574 . S
C782 C798 1.368 . S
H783 C791 0.950 . S
H784 C789 0.950 . S
H785 C790 0.949 . S
H786 C792 0.950 . S
H787 C793 0.950 . S
H788 C794 0.949 . S
C789 H784 0.950 . S
C789 C791 1.327 . S
C789 C795 1.429 . S
C790 C782 1.574 . S
C790 H785 0.949 . S
C790 C796 1.368 . S
C791 C775 1.349 . S
C791 H783 0.950 . S
C791 C789 1.327 . S
C792 C780 1.349 . S
C792 H786 0.950 . S
C792 C793 1.327 . S
C793 H787 0.950 . S
C793 C792 1.327 . S
C793 C797 1.429 . S
C794 C777 1.574 . S
C794 H788 0.949 . S
C794 C798 1.368 . S
C795 C776 1.429 . S
C795 C789 1.429 . S
C795 C796 1.523 . S
C796 C777 1.368 . S
C796 C790 1.368 . S
C796 C795 1.523 . S
C797 C781 1.429 . S
C797 C793 1.429 . S
C797 C798 1.523 . S
C798 C782 1.368 . S
C798 C794 1.368 . S
C798 C797 1.523 . S
H799 C774 0.950 . S
H800 C776 0.950 . S
H801 C777 0.949 . S
H802 C779 0.950 . S
H803 C781 0.950 . S
C804 C805 1.349 . S
C804 C806 1.327 . S
C804 H829 0.950 . S
C805 C804 1.349 . S
C805 C821 1.349 . S
C806 C804 1.327 . S
C806 C825 1.429 . S
C806 H830 0.950 . S
C807 C824 1.574 . S
C807 C826 1.368 . S
C807 H831 0.949 . S
H808 C812 0.949 . S
C809 C810 1.349 . S
C809 C811 1.327 . S
C809 H832 0.950 . S
C810 C809 1.349 . S
C810 C822 1.349 . S
C811 C809 1.327 . S
C811 C827 1.429 . S
C811 H833 0.950 . S
C812 H808 0.949 . S
C812 C820 1.574 . S
C812 C828 1.368 . S
H813 C821 0.950 . S
H814 C819 0.950 . S
H815 C820 0.949 . S
H816 C822 0.950 . S
H817 C823 0.950 . S
H818 C824 0.949 . S
C819 H814 0.950 . S
C819 C821 1.327 . S
C819 C825 1.429 . S
C820 C812 1.574 . S
C820 H815 0.949 . S
C820 C826 1.368 . S
C821 C805 1.349 . S
C821 H813 0.950 . S
C821 C819 1.327 . S
C822 C810 1.349 . S
C822 H816 0.950 . S
C822 C823 1.327 . S
C823 H817 0.950 . S
C823 C822 1.327 . S
C823 C827 1.429 . S
C824 C807 1.574 . S
C824 H818 0.949 . S
C824 C828 1.368 . S
C825 C806 1.429 . S
C825 C819 1.429 . S
C825 C826 1.523 . S
C826 C807 1.368 . S
C826 C820 1.368 . S
C826 C825 1.523 . S
C827 C811 1.429 . S
C827 C823 1.429 . S
C827 C828 1.523 . S
C828 C812 1.368 . S
C828 C824 1.368 . S
C828 C827 1.523 . S
H829 C804 0.950 . S
H830 C806 0.950 . S
H831 C807 0.949 . S
H832 C809 0.950 . S
H833 C811 0.950 . S
C834 C835 1.349 . S
C834 C836 1.327 . S
C834 H859 0.950 . S
C835 C834 1.349 . S
C835 C851 1.349 . S
C836 C834 1.327 . S
C836 C855 1.429 . S
C836 H860 0.950 . S
C837 C854 1.574 . S
C837 C856 1.368 . S
C837 H861 0.949 . S
H838 C842 0.949 . S
C839 C840 1.349 . S
C839 C841 1.327 . S
C839 H862 0.950 . S
C840 C839 1.349 . S
C840 C852 1.349 . S
C841 C839 1.327 . S
C841 C857 1.429 . S
C841 H863 0.950 . S
C842 H838 0.949 . S
C842 C850 1.574 . S
C842 C858 1.368 . S
H843 C851 0.950 . S
H844 C849 0.950 . S
H845 C850 0.949 . S
H846 C852 0.950 . S
H847 C853 0.950 . S
H848 C854 0.949 . S
C849 H844 0.950 . S
C849 C851 1.327 . S
C849 C855 1.429 . S
C850 C842 1.574 . S
C850 H845 0.949 . S
C850 C856 1.368 . S
C851 C835 1.349 . S
C851 H843 0.950 . S
C851 C849 1.327 . S
C852 C840 1.349 . S
C852 H846 0.950 . S
C852 C853 1.327 . S
C853 H847 0.950 . S
C853 C852 1.327 . S
C853 C857 1.429 . S
C854 C837 1.574 . S
C854 H848 0.949 . S
C854 C858 1.368 . S
C855 C836 1.429 . S
C855 C849 1.429 . S
C855 C856 1.523 . S
C856 C837 1.368 . S
C856 C850 1.368 . S
C856 C855 1.523 . S
C857 C841 1.429 . S
C857 C853 1.429 . S
C857 C858 1.523 . S
C858 C842 1.368 . S
C858 C854 1.368 . S
C858 C857 1.523 . S
H859 C834 0.950 . S
H860 C836 0.950 . S
H861 C837 0.949 . S
H862 C839 0.950 . S
H863 C841 0.950 . S
C864 C865 1.349 . S
C864 C866 1.327 . S
C864 H889 0.950 . S
C865 C864 1.349 . S
C865 C881 1.349 . S
C866 C864 1.327 . S
C866 C885 1.429 . S
C866 H890 0.950 . S
C867 C884 1.574 . S
C867 C886 1.368 . S
C867 H891 0.949 . S
H868 C872 0.949 . S
C869 C870 1.349 . S
C869 C871 1.327 . S
C869 H892 0.950 . S
C870 C869 1.349 . S
C870 C882 1.349 . S
C871 C869 1.327 . S
C871 C887 1.429 . S
C871 H893 0.950 . S
C872 H868 0.949 . S
C872 C880 1.574 . S
C872 C888 1.368 . S
H873 C881 0.950 . S
H874 C879 0.950 . S
H875 C880 0.949 . S
H876 C882 0.950 . S
H877 C883 0.950 . S
H878 C884 0.949 . S
C879 H874 0.950 . S
C879 C881 1.327 . S
C879 C885 1.429 . S
C880 C872 1.574 . S
C880 H875 0.949 . S
C880 C886 1.368 . S
C881 C865 1.349 . S
C881 H873 0.950 . S
C881 C879 1.327 . S
C882 C870 1.349 . S
C882 H876 0.950 . S
C882 C883 1.327 . S
C883 H877 0.950 . S
C883 C882 1.327 . S
C883 C887 1.429 . S
C884 C867 1.574 . S
C884 H878 0.949 . S
C884 C888 1.368 . S
C885 C866 1.429 . S
C885 C879 1.429 . S
C885 C886 1.523 . S
C886 C867 1.368 . S
C886 C880 1.368 . S
C886 C885 1.523 . S
C887 C871 1.429 . S
C887 C883 1.429 . S
C887 C888 1.523 . S
C888 C872 1.368 . S
C888 C884 1.368 . S
C888 C887 1.523 . S
H889 C864 0.950 . S
H890 C866 0.950 . S
H891 C867 0.949 . S
H892 C869 0.950 . S
H893 C871 0.950 . S
C894 C895 1.349 . S
C894 C896 1.327 . S
C894 H919 0.950 . S
C895 C894 1.349 . S
C895 C911 1.349 . S
C896 C894 1.327 . S
C896 C915 1.429 . S
C896 H920 0.950 . S
C897 C914 1.574 . S
C897 C916 1.368 . S
C897 H921 0.949 . S
H898 C902 0.949 . S
C899 C900 1.349 . S
C899 C901 1.327 . S
C899 H922 0.950 . S
C900 C899 1.349 . S
C900 C912 1.349 . S
C901 C899 1.327 . S
C901 C917 1.429 . S
C901 H923 0.950 . S
C902 H898 0.949 . S
C902 C910 1.574 . S
C902 C918 1.368 . S
H903 C911 0.950 . S
H904 C909 0.950 . S
H905 C910 0.949 . S
H906 C912 0.950 . S
H907 C913 0.950 . S
H908 C914 0.949 . S
C909 H904 0.950 . S
C909 C911 1.327 . S
C909 C915 1.429 . S
C910 C902 1.574 . S
C910 H905 0.949 . S
C910 C916 1.368 . S
C911 C895 1.349 . S
C911 H903 0.950 . S
C911 C909 1.327 . S
C912 C900 1.349 . S
C912 H906 0.950 . S
C912 C913 1.327 . S
C913 H907 0.950 . S
C913 C912 1.327 . S
C913 C917 1.429 . S
C914 C897 1.574 . S
C914 H908 0.949 . S
C914 C918 1.368 . S
C915 C896 1.429 . S
C915 C909 1.429 . S
C915 C916 1.523 . S
C916 C897 1.368 . S
C916 C910 1.368 . S
C916 C915 1.523 . S
C917 C901 1.429 . S
C917 C913 1.429 . S
C917 C918 1.523 . S
C918 C902 1.368 . S
C918 C914 1.368 . S
C918 C917 1.523 . S
H919 C894 0.950 . S
H920 C896 0.950 . S
H921 C897 0.949 . S
H922 C899 0.950 . S
H923 C901 0.950 . S
C924 C925 1.349 . S
C924 C926 1.327 . S
C924 H949 0.950 . S
C925 C924 1.349 . S
C925 C941 1.349 . S
C926 C924 1.327 . S
C926 C945 1.429 . S
C926 H950 0.950 . S
C927 C944 1.574 . S
C927 C946 1.368 . S
C927 H951 0.949 . S
H928 C932 0.949 . S
C929 C930 1.349 . S
C929 C931 1.327 . S
C929 H952 0.950 . S
C930 C929 1.349 . S
C930 C942 1.349 . S
C931 C929 1.327 . S
C931 C947 1.429 . S
C931 H953 0.950 . S
C932 H928 0.949 . S
C932 C940 1.574 . S
C932 C948 1.368 . S
H933 C941 0.950 . S
H934 C939 0.950 . S
H935 C940 0.949 . S
H936 C942 0.950 . S
H937 C943 0.950 . S
H938 C944 0.949 . S
C939 H934 0.950 . S
C939 C941 1.327 . S
C939 C945 1.429 . S
C940 C932 1.574 . S
C940 H935 0.949 . S
C940 C946 1.368 . S
C941 C925 1.349 . S
C941 H933 0.950 . S
C941 C939 1.327 . S
C942 C930 1.349 . S
C942 H936 0.950 . S
C942 C943 1.327 . S
C943 H937 0.950 . S
C943 C942 1.327 . S
C943 C947 1.429 . S
C944 C927 1.574 . S
C944 H938 0.949 . S
C944 C948 1.368 . S
C945 C926 1.429 . S
C945 C939 1.429 . S
C945 C946 1.523 . S
C946 C927 1.368 . S
C946 C940 1.368 . S
C946 C945 1.523 . S
C947 C931 1.429 . S
C947 C943 1.429 . S
C947 C948 1.523 . S
C948 C932 1.368 . S
C948 C944 1.368 . S
C948 C947 1.523 . S
H949 C924 0.950 . S
H950 C926 0.950 . S
H951 C927 0.949 . S
H952 C929 0.950 . S
H953 C931 0.950 . S
C954 C955 1.349 . S
C954 C956 1.327 . S
C954 H979 0.950 . S
C955 C954 1.349 . S
C955 C971 1.349 . S
C956 C954 1.327 . S
C956 C975 1.429 . S
C956 H980 0.950 . S
C957 C974 1.574 . S
C957 C976 1.368 . S
C957 H981 0.949 . S
H958 C962 0.949 . S
C959 C960 1.349 . S
C959 C961 1.327 . S
C959 H982 0.950 . S
C960 C959 1.349 . S
C960 C972 1.349 . S
C961 C959 1.327 . S
C961 C977 1.429 . S
C961 H983 0.950 . S
C962 H958 0.949 . S
C962 C970 1.574 . S
C962 C978 1.368 . S
H963 C971 0.950 . S
H964 C969 0.950 . S
H965 C970 0.949 . S
H966 C972 0.950 . S
H967 C973 0.950 . S
H968 C974 0.949 . S
C969 H964 0.950 . S
C969 C971 1.327 . S
C969 C975 1.429 . S
C970 C962 1.574 . S
C970 H965 0.949 . S
C970 C976 1.368 . S
C971 C955 1.349 . S
C971 H963 0.950 . S
C971 C969 1.327 . S
C972 C960 1.349 . S
C972 H966 0.950 . S
C972 C973 1.327 . S
C973 H967 0.950 . S
C973 C972 1.327 . S
C973 C977 1.429 . S
C974 C957 1.574 . S
C974 H968 0.949 . S
C974 C978 1.368 . S
C975 C956 1.429 . S
C975 C969 1.429 . S
C975 C976 1.523 . S
C976 C957 1.368 . S
C976 C970 1.368 . S
C976 C975 1.523 . S
C977 C961 1.429 . S
C977 C973 1.429 . S
C977 C978 1.523 . S
C978 C962 1.368 . S
C978 C974 1.368 . S
C978 C977 1.523 . S
H979 C954 0.950 . S
H980 C956 0.950 . S
H981 C957 0.949 . S
H982 C959 0.950 . S
H983 C961 0.950 . S
C265 C9 1.496 . S
C270 C111 1.521 . S
C295 C21 1.035 . S
C300 C160 1.034 . S
C330 C186 2.100 . S
C325 C30 2.098 . S
C355 C43 2.080 . S
C360 C234 2.148 1_655 S
C390 C146 2.154 . S
C385 C4 1.934 . S
C420 C114 1.690 . S
C415 C22 1.737 . S
C450 C235 1.452 . S
C445 C34 1.487 . S
C480 C203 1.377 . S
C475 C48 1.393 . S
C505 C8 1.621 . S
C510 C231 1.661 . S
C540 C163 2.260 . S
C535 C35 2.319 . S
C565 C47 2.577 . S
C570 C115 2.570 . S
C595 C17 0.665 . S
C600 C200 0.662 . S
C630 C120 1.041 . S
C625 C60 1.030 . S
C655 C74 1.113 . S
C660 C151 1.106 . S
C685 C82 1.823 . S
C690 C195 1.868 . S
C715 C100 2.704 . S
C720 C243 2.644 . S
C745 C61 2.598 . S
C750 C155 2.678 . S
C780 C123 0.879 . S
C775 C73 0.892 . S
C810 C226 2.126 . S
C805 C87 2.175 . S
C840 C194 1.123 . S
C835 C95 1.111 . S
C865 C56 1.571 . S
C870 C240 1.577 . S
C900 C154 2.471 . S
C895 C86 2.529 . S
C930 C106 2.299 . S
C925 C99 2.304 . S
C955 C69 0.643 . S
C960 C191 0.592 . S
