# Generated by pormake.
# Topology nom, (4,4)-cn, num edge types: 1
# Building blocks:
#     Node 0, Type 0, BuildingBlock: NAHDIM_clean_linker_0, # of connection points: 4
#     Node 1, Type 0, BuildingBlock: NAHDIM_clean_linker_0, # of connection points: 4
#     Node 2, Type 0, BuildingBlock: NAHDIM_clean_linker_0, # of connection points: 4
#     Node 3, Type 0, BuildingBlock: NAHDIM_clean_linker_0, # of connection points: 4
#     Node 4, Type 0, BuildingBlock: NAHDIM_clean_linker_0, # of connection points: 4
#     Node 5, Type 0, BuildingBlock: NAHDIM_clean_linker_0, # of connection points: 4
#     Node 6, Type 1, BuildingBlock: TATPOV_clean_sbu_0, # of connection points: 4
#     Node 7, Type 1, BuildingBlock: TATPOV_clean_sbu_0, # of connection points: 4
#     Node 8, Type 1, BuildingBlock: TATPOV_clean_sbu_0, # of connection points: 4
#     Node 9, Type 1, BuildingBlock: TATPOV_clean_sbu_0, # of connection points: 4
#     Node 10, Type 1, BuildingBlock: TATPOV_clean_sbu_0, # of connection points: 4
#     Node 11, Type 1, BuildingBlock: TATPOV_clean_sbu_0, # of connection points: 4
#     Edge 12, Type (0, 1), BuildingBlock: TEMPAE_clean_linker_10, # of connection points: 2
#     Edge 13, Type (0, 1), BuildingBlock: TEMPAE_clean_linker_10, # of connection points: 2
#     Edge 14, Type (0, 1), BuildingBlock: TEMPAE_clean_linker_10, # of connection points: 2
#     Edge 15, Type (0, 1), BuildingBlock: TEMPAE_clean_linker_10, # of connection points: 2
#     Edge 16, Type (0, 1), BuildingBlock: TEMPAE_clean_linker_10, # of connection points: 2
#     Edge 17, Type (0, 1), BuildingBlock: TEMPAE_clean_linker_10, # of connection points: 2
#     Edge 18, Type (0, 1), BuildingBlock: TEMPAE_clean_linker_10, # of connection points: 2
#     Edge 19, Type (0, 1), BuildingBlock: TEMPAE_clean_linker_10, # of connection points: 2
#     Edge 20, Type (0, 1), BuildingBlock: TEMPAE_clean_linker_10, # of connection points: 2
#     Edge 21, Type (0, 1), BuildingBlock: TEMPAE_clean_linker_10, # of connection points: 2
#     Edge 22, Type (0, 1), BuildingBlock: TEMPAE_clean_linker_10, # of connection points: 2
#     Edge 23, Type (0, 1), BuildingBlock: TEMPAE_clean_linker_10, # of connection points: 2
#     Edge 24, Type (0, 1), BuildingBlock: TEMPAE_clean_linker_10, # of connection points: 2
#     Edge 25, Type (0, 1), BuildingBlock: TEMPAE_clean_linker_10, # of connection points: 2
#     Edge 26, Type (0, 1), BuildingBlock: TEMPAE_clean_linker_10, # of connection points: 2
#     Edge 27, Type (0, 1), BuildingBlock: TEMPAE_clean_linker_10, # of connection points: 2
#     Edge 28, Type (0, 1), BuildingBlock: TEMPAE_clean_linker_10, # of connection points: 2
#     Edge 29, Type (0, 1), BuildingBlock: TEMPAE_clean_linker_10, # of connection points: 2
#     Edge 30, Type (0, 1), BuildingBlock: TEMPAE_clean_linker_10, # of connection points: 2
#     Edge 31, Type (0, 1), BuildingBlock: TEMPAE_clean_linker_10, # of connection points: 2
#     Edge 32, Type (0, 1), BuildingBlock: TEMPAE_clean_linker_10, # of connection points: 2
#     Edge 33, Type (0, 1), BuildingBlock: TEMPAE_clean_linker_10, # of connection points: 2
#     Edge 34, Type (0, 1), BuildingBlock: TEMPAE_clean_linker_10, # of connection points: 2
#     Edge 35, Type (0, 1), BuildingBlock: TEMPAE_clean_linker_10, # of connection points: 2
# Relax obj value: 0.066
# Max RMSD: 0.134
# Mean RMSD: 0.125
data_MOF--net-nom--node1-TATPOV_clean_sbu_0--node2-NAHDIM_clean_linker_0--edge1-TEMPAE_clean_linker_10
_symmetry_space_group_name_H-M    P1
_symmetry_Int_Tables_number       1
_symmetry_cell_setting            triclinic
loop_
_symmetry_equiv_pos_as_xyz
'x, y, z'
_cell_length_a     57.567836
_cell_length_b     58.461218
_cell_length_c     69.965748
_cell_angle_alpha  90.644428
_cell_angle_beta   90.620582
_cell_angle_gamma 120.0293
loop_
_atom_site_label
_atom_site_type_symbol
_atom_site_fract_x
_atom_site_fract_y
_atom_site_fract_z
_atom_type_partial_charge
C0 C 0.12885 0.58628 0.21189 0.0
C1 C 0.14412 0.59479 0.23114 0.0
C2 C 0.10634 0.57819 0.25346 0.0
C3 C 0.10071 0.55187 0.25424 0.0
C4 C 0.07812 0.53275 0.26386 0.0
C5 C 0.0604 0.5399 0.2724 0.0
C6 C 0.06577 0.56628 0.27125 0.0
C7 C 0.08898 0.58513 0.26215 0.0
C8 C 0.07328 0.50493 0.26492 0.0
C9 C 0.047 0.57466 0.27954 0.0
C10 C 0.87447 0.3996 0.21451 0.0
C11 C 0.88051 0.39495 0.23435 0.0
C12 C 0.92674 0.4202 0.24656 0.0
C13 C 0.92673 0.4439 0.25018 0.0
C14 C 0.94784 0.46468 0.26068 0.0
C15 C 0.96923 0.46159 0.26773 0.0
C16 C 0.96966 0.43807 0.26355 0.0
C17 C 0.94847 0.41777 0.25288 0.0
C18 C 0.94713 0.48975 0.26455 0.0
C19 C 0.99223 0.43416 0.27072 0.0
C20 C 0.90472 0.43563 0.38581 0.0
C21 C 0.90866 0.4579 0.37582 0.0
C22 C 0.93377 0.47542 0.3682 0.0
C23 C 0.95509 0.47001 0.37012 0.0
C24 C 0.95129 0.44793 0.38073 0.0
C25 C 0.92622 0.43131 0.38877 0.0
C26 C 0.93729 0.49943 0.35784 0.0
C27 C 0.97347 0.44153 0.38332 0.0
C28 C 0.16908 0.60737 0.39676 0.0
C29 C 0.14528 0.58632 0.40781 0.0
C30 C 0.09935 0.572 0.39617 0.0
C31 C 0.08378 0.58191 0.38838 0.0
C32 C 0.05977 0.56537 0.37828 0.0
C33 C 0.05133 0.53825 0.37578 0.0
C34 C 0.06622 0.5278 0.38451 0.0
C35 C 0.08982 0.54469 0.39491 0.0
C36 C 0.04386 0.57702 0.3698 0.0
C37 C 0.05745 0.49883 0.38257 0.0
C38 C 0.03626 0.51989 0.28251 0.0
C39 C 0.01439 0.50115 0.2715 0.0
C40 C 0.99073 0.48242 0.28008 0.0
C41 C 0.98823 0.483 0.30015 0.0
C42 C 0.96435 0.46514 0.3092 0.0
C43 C 0.96192 0.46624 0.3289 0.0
C44 C 0.98338 0.48507 0.34038 0.0
C45 C 0.98091 0.48679 0.3604 0.0
C46 C 0.00319 0.50467 0.37149 0.0
C47 C 0.02794 0.5211 0.36312 0.0
C48 C 0.03041 0.52049 0.34304 0.0
C49 C 0.05482 0.53721 0.33408 0.0
C50 C 0.05683 0.53699 0.31429 0.0
C51 C 0.03465 0.51975 0.30268 0.0
C52 C 0.01028 0.50177 0.31148 0.0
C53 C 0.008 0.50249 0.33165 0.0
C54 C 0.84087 0.37819 0.38321 0.0
C55 C 0.85631 0.40836 0.3825 0.0
O56 O 0.12816 0.59756 0.24462 0.0
O57 O 0.12316 0.58943 0.40479 0.0
O58 O 0.88035 0.41786 0.39258 0.0
O59 O 0.90624 0.3992 0.23722 0.0
H60 H 0.1493 0.57973 0.23572 0.0
H61 H 0.10952 0.56757 0.21343 0.0
H62 H 0.12454 0.60172 0.20675 0.0
H63 H 0.14056 0.58271 0.20095 0.0
H64 H 0.1139 0.54607 0.24763 0.0
H65 H 0.09345 0.60545 0.26145 0.0
H66 H 0.05612 0.49179 0.25532 0.0
H67 H 0.09106 0.50362 0.26048 0.0
H68 H 0.06803 0.49744 0.27968 0.0
H69 H 0.05118 0.59416 0.27419 0.0
H70 H 0.02578 0.5598 0.27604 0.0
H71 H 0.04941 0.57622 0.29534 0.0
H72 H 0.87343 0.40254 0.24633 0.0
H73 H 0.87017 0.41631 0.216 0.0
H74 H 0.8944 0.41183 0.20746 0.0
H75 H 0.84565 0.36179 0.20449 0.0
H76 H 0.91033 0.44625 0.24486 0.0
H77 H 0.94842 0.39953 0.24982 0.0
H78 H 0.94543 0.49211 0.28015 0.0
H79 H 0.96613 0.50708 0.25994 0.0
H80 H 0.93003 0.48978 0.25707 0.0
H81 H 0.98948 0.41461 0.26636 0.0
H82 H 0.01158 0.44987 0.26511 0.0
H83 H 0.99362 0.4359 0.28657 0.0
H84 H 0.86022 0.41352 0.36711 0.0
H85 H 0.89211 0.4616 0.37404 0.0
H86 H 0.92297 0.41421 0.39677 0.0
H87 H 0.9371 0.49599 0.3422 0.0
H88 H 0.92096 0.50371 0.36102 0.0
H89 H 0.95686 0.51708 0.3618 0.0
H90 H 0.96604 0.42155 0.38924 0.0
H91 H 0.98326 0.44269 0.36949 0.0
H92 H 0.98892 0.45626 0.39334 0.0
H93 H 0.14196 0.56718 0.40193 0.0
H94 H 0.18744 0.60625 0.39991 0.0
H95 H 0.16463 0.60394 0.38116 0.0
H96 H 0.17301 0.62756 0.40039 0.0
H97 H 0.09087 0.60287 0.38985 0.0
H98 H 0.10058 0.5363 0.40195 0.0
H99 H 0.04557 0.57741 0.35401 0.0
H100 H 0.02228 0.56455 0.37316 0.0
H101 H 0.05106 0.59748 0.37517 0.0
H102 H 0.07213 0.49408 0.38919 0.0
H103 H 0.03785 0.48696 0.38956 0.0
H104 H 0.05468 0.49276 0.36724 0.0
H105 H 0.01586 0.501 0.25606 0.0
H106 H 0.94713 0.45028 0.30112 0.0
H107 H 0.94299 0.45208 0.33502 0.0
H108 H 0.00132 0.50563 0.38685 0.0
H109 H 0.0726 0.55092 0.34223 0.0
H110 H 0.07605 0.55049 0.3082 0.0
H111 H 0.82163 0.37003 0.375 0.0
H112 H 0.85298 0.37023 0.37674 0.0
H113 H 0.83656 0.37148 0.39821 0.0
C114 C 0.44062 0.85871 0.57911 0.0
C115 C 0.42108 0.85752 0.56349 0.0
C116 C 0.43763 0.90405 0.55548 0.0
C117 C 0.46139 0.90847 0.5467 0.0
C118 C 0.47925 0.93315 0.53903 0.0
C119 C 0.47304 0.95368 0.5398 0.0
C120 C 0.44905 0.94924 0.54842 0.0
C121 C 0.43175 0.9245 0.55624 0.0
C122 C 0.50487 0.93735 0.53018 0.0
C123 C 0.44172 0.97065 0.54938 0.0
C124 C 0.61118 0.13746 0.60486 0.0
C125 C 0.61711 0.12973 0.586 0.0
C126 C 0.59019 0.08411 0.57469 0.0
C127 C 0.56641 0.08465 0.5711 0.0
C128 C 0.54552 0.06467 0.55993 0.0
C129 C 0.5488 0.04416 0.55187 0.0
C130 C 0.57232 0.04307 0.55613 0.0
C131 C 0.59256 0.06292 0.56773 0.0
C132 C 0.52025 0.06584 0.55634 0.0
C133 C 0.57643 0.02136 0.54799 0.0
C134 C 0.57113 0.13002 0.44519 0.0
C135 C 0.54407 0.11838 0.45016 0.0
C136 C 0.52916 0.09142 0.45423 0.0
C137 C 0.5415 0.07575 0.45303 0.0
C138 C 0.56821 0.08704 0.44669 0.0
C139 C 0.5827 0.11415 0.44275 0.0
C140 C 0.50047 0.07987 0.46046 0.0
C141 C 0.58172 0.07072 0.44492 0.0
C142 C 0.39718 0.88279 0.4058 0.0
C143 C 0.4243 0.89829 0.39596 0.0
C144 C 0.44678 0.94275 0.41032 0.0
C145 C 0.43899 0.96064 0.41655 0.0
C146 C 0.45383 0.9798 0.43073 0.0
C147 C 0.47752 0.98153 0.43839 0.0
C148 C 0.48596 0.96395 0.43169 0.0
C149 C 0.47041 0.94463 0.41775 0.0
C150 C 0.44423 0.99824 0.43742 0.0
C151 C 0.51163 0.96584 0.43903 0.0
C152 C 0.49183 0.97995 0.53188 0.0
C153 C 0.51016 0.99962 0.54449 0.0
C154 C 0.52855 0.02477 0.53804 0.0
C155 C 0.5284 0.03075 0.51852 0.0
C156 C 0.54613 0.05605 0.51161 0.0
C157 C 0.54549 0.06189 0.49248 0.0
C158 C 0.52779 0.0424 0.47933 0.0
C159 C 0.52696 0.04818 0.45985 0.0
C160 C 0.51056 0.02796 0.4469 0.0
C161 C 0.49386 0.00215 0.45304 0.0
C162 C 0.49293 0.99643 0.47272 0.0
C163 C 0.47489 0.97122 0.47962 0.0
C164 C 0.47421 0.96585 0.49902 0.0
C165 C 0.49191 0.98533 0.5122 0.0
C166 C 0.51019 0.01088 0.50554 0.0
C167 C 0.51035 0.01655 0.48584 0.0
C168 C 0.61076 0.18225 0.47074 0.0
C169 C 0.58777 0.17505 0.45632 0.0
O170 O 0.42001 0.88069 0.56355 0.0
O171 O 0.43173 0.92482 0.39647 0.0
O172 O 0.58657 0.15654 0.44316 0.0
O173 O 0.61133 0.10374 0.58455 0.0
H174 H 0.42811 0.85467 0.54938 0.0
H175 H 0.46136 0.8747 0.57632 0.0
H176 H 0.43494 0.86261 0.59339 0.0
H177 H 0.44067 0.83973 0.57943 0.0
H178 H 0.46639 0.89297 0.54588 0.0
H179 H 0.41342 0.92098 0.563 0.0
H180 H 0.52239 0.95496 0.53684 0.0
H181 H 0.50768 0.92 0.53184 0.0
H182 H 0.50461 0.94118 0.5147 0.0
H183 H 0.42154 0.96355 0.55545 0.0
H184 H 0.45678 0.98741 0.55839 0.0
H185 H 0.4421 0.97828 0.53485 0.0
H186 H 0.61116 0.13657 0.57298 0.0
H187 H 0.59529 0.14278 0.60163 0.0
H188 H 0.5972 0.11852 0.61223 0.0
H189 H 0.64923 0.16489 0.616 0.0
H190 H 0.56415 0.10063 0.57696 0.0
H191 H 0.61084 0.06252 0.57084 0.0
H192 H 0.5196 0.07123 0.54126 0.0
H193 H 0.50229 0.04616 0.55857 0.0
H194 H 0.51914 0.08063 0.56581 0.0
H195 H 0.59642 0.02407 0.55193 0.0
H196 H 0.56071 0.00199 0.55333 0.0
H197 H 0.57442 0.02068 0.53216 0.0
H198 H 0.56924 0.16672 0.46492 0.0
H199 H 0.53469 0.13043 0.45111 0.0
H200 H 0.60348 0.12327 0.43854 0.0
H201 H 0.49864 0.07296 0.47538 0.0
H202 H 0.49341 0.09439 0.45976 0.0
H203 H 0.48709 0.06246 0.45127 0.0
H204 H 0.60194 0.08198 0.4386 0.0
H205 H 0.58379 0.06397 0.45928 0.0
H206 H 0.56914 0.05283 0.4359 0.0
H207 H 0.43911 0.89483 0.40382 0.0
H208 H 0.39116 0.86164 0.40714 0.0
H209 H 0.39864 0.89098 0.42046 0.0
H210 H 0.38135 0.8843 0.39763 0.0
H211 H 0.42095 0.95927 0.41044 0.0
H212 H 0.47717 0.93159 0.41233 0.0
H213 H 0.4445 0.99935 0.45329 0.0
H214 H 0.45799 0.0184 0.43221 0.0
H215 H 0.42361 0.99194 0.43206 0.0
H216 H 0.51673 0.95245 0.43104 0.0
H217 H 0.52853 0.98644 0.43795 0.0
H218 H 0.50957 0.96057 0.45435 0.0
H219 H 0.51033 0.9952 0.5595 0.0
H220 H 0.56052 0.07178 0.52095 0.0
H221 H 0.55935 0.08183 0.48808 0.0
H222 H 0.51047 0.03247 0.43191 0.0
H223 H 0.46094 0.95542 0.47012 0.0
H224 H 0.45979 0.94615 0.50353 0.0
H225 H 0.61303 0.19826 0.48065 0.0
H226 H 0.60628 0.16469 0.47934 0.0
H227 H 0.63003 0.1887 0.46342 0.0
C228 C 0.60977 0.45397 0.7337 0.0
C229 C 0.58872 0.43529 0.71894 0.0
C230 C 0.55646 0.45093 0.71451 0.0
C231 C 0.57371 0.47403 0.70464 0.0
C232 C 0.56437 0.49021 0.6972 0.0
C233 C 0.53725 0.4832 0.69967 0.0
C234 C 0.51995 0.46023 0.70982 0.0
C235 C 0.52984 0.44444 0.71716 0.0
C236 C 0.58341 0.51472 0.68657 0.0
C237 C 0.49094 0.45223 0.7127 0.0
C238 C 0.49742 0.62284 0.76123 0.0
C239 C 0.50949 0.62958 0.74196 0.0
C240 C 0.5268 0.60207 0.72941 0.0
C241 C 0.50179 0.5789 0.72696 0.0
C242 C 0.49945 0.55722 0.71643 0.0
C243 C 0.52246 0.55902 0.70784 0.0
C244 C 0.54777 0.5821 0.71076 0.0
C245 C 0.54961 0.60318 0.72174 0.0
C246 C 0.47233 0.53255 0.71425 0.0
C247 C 0.5728 0.58471 0.70198 0.0
C248 C 0.45403 0.5748 0.59855 0.0
C249 C 0.43761 0.55279 0.60955 0.0
C250 C 0.44627 0.53529 0.61524 0.0
C251 C 0.47215 0.54034 0.61014 0.0
C252 C 0.48823 0.5619 0.5983 0.0
C253 C 0.47871 0.57866 0.59239 0.0
C254 C 0.42803 0.51184 0.62713 0.0
C255 C 0.51582 0.56782 0.59249 0.0
C256 C 0.50054 0.37078 0.57192 0.0
C257 C 0.51456 0.40095 0.572 0.0
C258 C 0.49497 0.42855 0.5789 0.0
C259 C 0.47025 0.42532 0.58432 0.0
C260 C 0.4688 0.44463 0.59551 0.0
C261 C 0.49273 0.46816 0.60075 0.0
C262 C 0.5177 0.47229 0.59411 0.0
C263 C 0.51859 0.45223 0.58352 0.0
C264 C 0.4418 0.43952 0.60219 0.0
C265 C 0.54355 0.49765 0.59851 0.0
C266 C 0.52698 0.49972 0.69129 0.0
C267 C 0.52782 0.51996 0.70263 0.0
C268 C 0.52 0.53725 0.69525 0.0
C269 C 0.51095 0.53428 0.67599 0.0
C270 C 0.5035 0.55166 0.66795 0.0
C271 C 0.49436 0.5484 0.64908 0.0
C272 C 0.49257 0.52779 0.63742 0.0
C273 C 0.48298 0.52412 0.61828 0.0
C274 C 0.48313 0.50452 0.60672 0.0
C275 C 0.49188 0.48783 0.61394 0.0
C276 C 0.50001 0.49021 0.63338 0.0
C277 C 0.50745 0.47281 0.64144 0.0
C278 C 0.51614 0.47577 0.6604 0.0
C279 C 0.51762 0.49619 0.67211 0.0
C280 C 0.50966 0.51359 0.66443 0.0
C281 C 0.50071 0.51051 0.64507 0.0
C282 C 0.45543 0.63376 0.60785 0.0
C283 C 0.43682 0.60379 0.60702 0.0
O284 O 0.5645 0.43445 0.72177 0.0
O285 O 0.4954 0.40844 0.56937 0.0
O286 O 0.44673 0.59285 0.59403 0.0
O287 O 0.52972 0.62375 0.7389 0.0
H288 H 0.59607 0.44249 0.70436 0.0
H289 H 0.61346 0.47438 0.73211 0.0
H290 H 0.60289 0.44758 0.74847 0.0
H291 H 0.62905 0.45432 0.73158 0.0
H292 H 0.5945 0.4797 0.70268 0.0
H293 H 0.5167 0.42671 0.72487 0.0
H294 H 0.58382 0.53229 0.69316 0.0
H295 H 0.60418 0.51807 0.68653 0.0
H296 H 0.57625 0.51299 0.67154 0.0
H297 H 0.48 0.43367 0.72082 0.0
H298 H 0.48975 0.46822 0.72053 0.0
H299 H 0.48073 0.44944 0.6986 0.0
H300 H 0.49547 0.62447 0.72943 0.0
H301 H 0.4758 0.60748 0.75841 0.0
H302 H 0.50311 0.60859 0.76746 0.0
H303 H 0.50901 0.6598 0.77385 0.0
H304 H 0.48411 0.57764 0.73327 0.0
H305 H 0.56885 0.62104 0.72393 0.0
H306 H 0.4648 0.53075 0.69933 0.0
H307 H 0.47398 0.51477 0.71714 0.0
H308 H 0.45736 0.5328 0.72402 0.0
H309 H 0.59043 0.60483 0.70413 0.0
H310 H 0.57749 0.57025 0.70852 0.0
H311 H 0.5695 0.58013 0.6864 0.0
H312 H 0.43696 0.59662 0.62171 0.0
H313 H 0.41811 0.54944 0.61379 0.0
H314 H 0.49103 0.59557 0.58366 0.0
H315 H 0.4356 0.51555 0.64215 0.0
H316 H 0.40711 0.5081 0.62699 0.0
H317 H 0.4279 0.4938 0.62182 0.0
H318 H 0.52638 0.58618 0.58411 0.0
H319 H 0.52818 0.56989 0.60539 0.0
H320 H 0.51416 0.55111 0.58371 0.0
H321 H 0.52448 0.40796 0.58634 0.0
H322 H 0.51537 0.36419 0.57439 0.0
H323 H 0.48564 0.36298 0.58353 0.0
H324 H 0.48988 0.36238 0.55804 0.0
H325 H 0.45212 0.40707 0.58041 0.0
H326 H 0.53771 0.45507 0.57881 0.0
H327 H 0.4423 0.44236 0.61794 0.0
H328 H 0.43706 0.45391 0.59559 0.0
H329 H 0.42544 0.41924 0.59836 0.0
H330 H 0.56003 0.49999 0.58914 0.0
H331 H 0.54075 0.51499 0.59679 0.0
H332 H 0.54978 0.49763 0.61357 0.0
H333 H 0.53511 0.52257 0.71732 0.0
H334 H 0.50457 0.56798 0.67614 0.0
H335 H 0.48887 0.56239 0.64372 0.0
H336 H 0.47636 0.50223 0.59193 0.0
H337 H 0.50668 0.45667 0.63316 0.0
H338 H 0.52173 0.46186 0.66576 0.0
H339 H 0.44795 0.64298 0.61825 0.0
H340 H 0.47588 0.6385 0.61255 0.0
H341 H 0.45679 0.64243 0.59357 0.0
C342 C 0.17523 0.60893 0.88607 0.0
C343 C 0.1752 0.58867 0.87195 0.0
C344 C 0.12794 0.55362 0.86761 0.0
C345 C 0.11934 0.5686 0.85723 0.0
C346 C 0.09276 0.55716 0.85039 0.0
C347 C 0.0745 0.53024 0.85388 0.0
C348 C 0.08317 0.51506 0.86412 0.0
C349 C 0.10977 0.52703 0.87092 0.0
C350 C 0.08404 0.57391 0.83961 0.0
C351 C 0.06424 0.48627 0.86804 0.0
C352 C 0.96741 0.54825 0.94122 0.0
C353 C 0.95465 0.51896 0.9357 0.0
C354 C 0.95437 0.51122 0.9018 0.0
C355 C 0.95972 0.4904 0.90056 0.0
C356 C 0.97365 0.48815 0.88501 0.0
C357 C 0.9827 0.50741 0.87061 0.0
C358 C 0.97637 0.5279 0.8715 0.0
C359 C 0.96184 0.52928 0.88703 0.0
C360 C 0.97951 0.46573 0.88434 0.0
C361 C 0.98587 0.54888 0.85649 0.0
C362 C 0.87996 0.43094 0.77073 0.0
C363 C 0.88975 0.41509 0.77807 0.0
C364 C 0.91742 0.42512 0.78047 0.0
C365 C 0.93557 0.45151 0.77544 0.0
C366 C 0.92577 0.46688 0.76679 0.0
C367 C 0.89798 0.45623 0.76437 0.0
C368 C 0.92724 0.40791 0.78916 0.0
C369 C 0.9446 0.49494 0.76102 0.0
C370 C 0.12964 0.47523 0.72831 0.0
C371 C 0.11356 0.48953 0.72714 0.0
C372 C 0.0669 0.47186 0.73563 0.0
C373 C 0.04668 0.44861 0.74342 0.0
C374 C 0.02739 0.44895 0.75533 0.0
C375 C 0.02786 0.47309 0.75886 0.0
C376 C 0.04708 0.49633 0.74972 0.0
C377 C 0.06674 0.49556 0.73846 0.0
C378 C 0.00712 0.42369 0.76462 0.0
C379 C 0.0474 0.52216 0.75224 0.0
C380 C 0.04606 0.51824 0.84752 0.0
C381 C 0.02786 0.5183 0.86051 0.0
C382 C 0.00072 0.50738 0.85562 0.0
C383 C 0.99141 0.49644 0.8371 0.0
C384 C 0.9643 0.48548 0.83166 0.0
C385 C 0.95541 0.475 0.81334 0.0
C386 C 0.97323 0.47474 0.79982 0.0
C387 C 0.96429 0.46387 0.78122 0.0
C388 C 0.98252 0.46404 0.76809 0.0
C389 C 0.00959 0.47436 0.77316 0.0
C390 C 0.01882 0.48502 0.79181 0.0
C391 C 0.04573 0.49499 0.79761 0.0
C392 C 0.05474 0.50597 0.8158 0.0
C393 C 0.0371 0.50701 0.82904 0.0
C394 C 0.00972 0.49636 0.82374 0.0
C395 C 0.0006 0.48544 0.80508 0.0
C396 C 0.82737 0.42882 0.79349 0.0
C397 C 0.8357 0.40996 0.78471 0.0
O398 O 0.15326 0.56387 0.87492 0.0
O399 O 0.08647 0.47089 0.72566 0.0
O400 O 0.8533 0.4225 0.76996 0.0
O401 O 0.94305 0.51477 0.91759 0.0
H402 H 0.17447 0.59498 0.85712 0.0
H403 H 0.15709 0.61069 0.88379 0.0
H404 H 0.17537 0.60294 0.90106 0.0
H405 H 0.19317 0.62868 0.88394 0.0
H406 H 0.13302 0.58925 0.85461 0.0
H407 H 0.11656 0.51564 0.87895 0.0
H408 H 0.06716 0.574 0.84707 0.0
H409 H 0.10058 0.59463 0.83821 0.0
H410 H 0.07666 0.56527 0.82509 0.0
H411 H 0.0746 0.47671 0.87494 0.0
H412 H 0.04815 0.48446 0.87758 0.0
H413 H 0.05451 0.47545 0.85449 0.0
H414 H 0.97108 0.51409 0.93581 0.0
H415 H 0.97686 0.55203 0.9557 0.0
H416 H 0.9832 0.56036 0.93086 0.0
H417 H 0.95212 0.55456 0.94109 0.0
H418 H 0.95339 0.47623 0.91197 0.0
H419 H 0.95739 0.54519 0.88817 0.0
H420 H 0.97505 0.45646 0.86982 0.0
H421 H 0.00115 0.47358 0.8875 0.0
H422 H 0.96769 0.45032 0.89491 0.0
H423 H 0.97983 0.56385 0.85953 0.0
H424 H 0.00808 0.55905 0.85564 0.0
H425 H 0.97749 0.53957 0.84228 0.0
H426 H 0.84567 0.40516 0.79647 0.0
H427 H 0.87575 0.39505 0.78221 0.0
H428 H 0.89015 0.46809 0.75836 0.0
H429 H 0.93557 0.41555 0.80373 0.0
H430 H 0.91095 0.38702 0.79024 0.0
H431 H 0.94363 0.40861 0.7805 0.0
H432 H 0.93394 0.50384 0.7536 0.0
H433 H 0.95509 0.50719 0.77392 0.0
H434 H 0.96013 0.49555 0.75142 0.0
H435 H 0.11776 0.50125 0.74072 0.0
H436 H 0.15144 0.48974 0.72981 0.0
H437 H 0.12345 0.46233 0.74097 0.0
H438 H 0.1261 0.46275 0.71529 0.0
H439 H 0.04681 0.43036 0.74085 0.0
H440 H 0.08198 0.51343 0.73192 0.0
H441 H 0.00727 0.42681 0.78032 0.0
H442 H 0.98672 0.41778 0.75905 0.0
H443 H 0.01105 0.4072 0.76181 0.0
H444 H 0.05931 0.53646 0.74106 0.0
H445 H 0.02667 0.51891 0.7518 0.0
H446 H 0.05652 0.53111 0.76639 0.0
H447 H 0.03491 0.52682 0.87472 0.0
H448 H 0.94967 0.48502 0.84148 0.0
H449 H 0.93433 0.46705 0.80996 0.0
H450 H 0.97549 0.4557 0.75385 0.0
H451 H 0.06025 0.49454 0.78815 0.0
H452 H 0.07571 0.51355 0.81939 0.0
H453 H 0.81287 0.41895 0.80512 0.0
H454 H 0.84531 0.4465 0.79967 0.0
H455 H 0.81806 0.43549 0.78254 0.0
C456 C 0.43038 0.84595 0.91404 0.0
C457 C 0.44013 0.83924 0.93252 0.0
C458 C 0.47285 0.88416 0.94408 0.0
C459 C 0.4541 0.89113 0.95052 0.0
C460 C 0.46234 0.91715 0.95645 0.0
C461 C 0.48981 0.93662 0.95586 0.0
C462 C 0.50878 0.92961 0.94969 0.0
C463 C 0.50003 0.90338 0.94406 0.0
C464 C 0.44164 0.92393 0.96318 0.0
C465 C 0.53822 0.94992 0.94878 0.0
C466 C 0.45911 0.03258 0.86384 0.0
C467 C 0.48874 0.04956 0.86963 0.0
C468 C 0.49515 0.0479 0.90367 0.0
C469 C 0.51768 0.04475 0.90492 0.0
C470 C 0.52149 0.03214 0.9206 0.0
C471 C 0.50215 0.02225 0.93516 0.0
C472 C 0.47968 0.02598 0.93409 0.0
C473 C 0.47674 0.03923 0.91846 0.0
C474 C 0.54596 0.02901 0.92145 0.0
C475 C 0.45843 0.01536 0.94917 0.0
C476 C 0.57572 0.13361 0.03372 0.0
C477 C 0.5925 0.1244 0.02697 0.0
C478 C 0.58293 0.09725 0.02463 0.0
C479 C 0.55607 0.07895 0.02925 0.0
C480 C 0.53957 0.08813 0.03704 0.0
C481 C 0.54975 0.11543 0.03934 0.0
C482 C 0.60132 0.08811 0.0168 0.0
C483 C 0.51098 0.06911 0.04235 0.0
C484 C 0.54707 0.89994 0.08885 0.0
C485 C 0.53002 0.91322 0.08733 0.0
C486 C 0.54427 0.95767 0.07683 0.0
C487 C 0.56731 0.97823 0.06891 0.0
C488 C 0.56554 0.99514 0.05564 0.0
C489 C 0.54008 0.99192 0.05083 0.0
C490 C 0.51689 0.97236 0.06002 0.0
C491 C 0.51919 0.95509 0.07266 0.0
C492 C 0.59078 0.01585 0.04634 0.0
C493 C 0.48959 0.9692 0.05613 0.0
C494 C 0.49856 0.96449 0.96114 0.0
C495 C 0.49674 0.98035 0.9471 0.0
C496 C 0.50472 0.00682 0.95093 0.0
C497 C 0.51483 0.01791 0.96931 0.0
C498 C 0.52348 0.04457 0.97357 0.0
C499 C 0.5332 0.05522 0.99175 0.0
C500 C 0.53478 0.03966 0.00635 0.0
C501 C 0.54492 0.05041 0.02481 0.0
C502 C 0.54582 0.03431 0.03909 0.0
C503 C 0.53755 0.00774 0.0353 0.0
C504 C 0.52795 0.9968 0.01677 0.0
C505 C 0.52026 0.9704 0.01224 0.0
C506 C 0.51045 0.95971 0.9941 0.0
C507 C 0.50838 0.97513 0.97965 0.0
C508 C 0.51645 0.00192 0.98376 0.0
C509 C 0.52629 0.01277 0.00233 0.0
C510 C 0.57927 0.18336 0.00915 0.0
C511 C 0.59852 0.17824 0.02127 0.0
O512 O 0.4657 0.85942 0.93758 0.0
O513 O 0.54679 0.94039 0.08821 0.0
O514 O 0.58403 0.1598 0.03502 0.0
O515 O 0.49069 0.05898 0.8882 0.0
H516 H 0.42609 0.83639 0.94425 0.0
H517 H 0.42907 0.86412 0.91607 0.0
H518 H 0.44443 0.84922 0.90224 0.0
H519 H 0.41008 0.82961 0.90982 0.0
H520 H 0.433 0.87652 0.9509 0.0
H521 H 0.51437 0.89784 0.93917 0.0
H522 H 0.44059 0.93799 0.95315 0.0
H523 H 0.42134 0.90621 0.96409 0.0
H524 H 0.44761 0.93385 0.97746 0.0
H525 H 0.5503 0.94149 0.94302 0.0
H526 H 0.54103 0.96649 0.93963 0.0
H527 H 0.54602 0.95826 0.96331 0.0
H528 H 0.49789 0.0367 0.86866 0.0
H529 H 0.45709 0.02467 0.84902 0.0
H530 H 0.44905 0.01562 0.8736 0.0
H531 H 0.44881 0.04434 0.86466 0.0
H532 H 0.5322 0.05212 0.8936 0.0
H533 H 0.45952 0.042 0.91734 0.0
H534 H 0.55597 0.03541 0.93572 0.0
H535 H 0.53973 0.00784 0.91934 0.0
H536 H 0.56066 0.04058 0.91031 0.0
H537 H 0.44123 0.0182 0.94549 0.0
H538 H 0.45084 0.99394 0.95108 0.0
H539 H 0.46728 0.02553 0.96306 0.0
H540 H 0.60768 0.17053 0.01099 0.0
H541 H 0.61308 0.13835 0.0235 0.0
H542 H 0.53713 0.12274 0.0449 0.0
H543 H 0.59374 0.07864 0.00251 0.0
H544 H 0.62223 0.10465 0.01536 0.0
H545 H 0.60146 0.07307 0.02627 0.0
H546 H 0.50088 0.07936 0.04858 0.0
H547 H 0.49942 0.05763 0.02946 0.0
H548 H 0.51056 0.05482 0.05285 0.0
H549 H 0.51946 0.9072 0.07313 0.0
H550 H 0.5341 0.8781 0.0879 0.0
H551 H 0.56145 0.90632 0.07692 0.0
H552 H 0.55861 0.90545 0.10259 0.0
H553 H 0.58661 0.98022 0.0725 0.0
H554 H 0.50142 0.93959 0.07927 0.0
H555 H 0.5881 0.01451 0.03054 0.0
H556 H 0.59498 0.03579 0.05103 0.0
H557 H 0.60849 0.01388 0.0501 0.0
H558 H 0.47508 0.95752 0.06734 0.0
H559 H 0.49093 0.98878 0.05528 0.0
H560 H 0.48162 0.95874 0.04219 0.0
H561 H 0.48904 0.97198 0.93296 0.0
H562 H 0.5228 0.0575 0.9629 0.0
H563 H 0.53944 0.07584 0.9942 0.0
H564 H 0.55357 0.04271 0.05321 0.0
H565 H 0.52167 0.95759 0.02267 0.0
H566 H 0.50461 0.93921 0.99152 0.0
H567 H 0.56658 0.18812 0.01833 0.0
H568 H 0.59062 0.19973 0.99911 0.0
H569 H 0.56568 0.16529 0.00059 0.0
C570 C 0.58419 0.44658 0.07854 0.0
C571 C 0.59082 0.43663 0.09699 0.0
C572 C 0.5765 0.45953 0.11965 0.0
C573 C 0.54878 0.4415 0.11892 0.0
C574 C 0.53052 0.4486 0.12608 0.0
C575 C 0.54018 0.4744 0.13372 0.0
C576 C 0.56818 0.49233 0.13487 0.0
C577 C 0.58594 0.48436 0.1282 0.0
C578 C 0.50088 0.42873 0.12504 0.0
C579 C 0.57944 0.52028 0.14242 0.0
C580 C 0.44342 0.4736 0.03786 0.0
C581 C 0.45547 0.50332 0.04151 0.0
C582 C 0.45643 0.50798 0.0758 0.0
C583 C 0.48308 0.52675 0.08042 0.0
C584 C 0.49484 0.52563 0.09778 0.0
C585 C 0.47963 0.50503 0.11058 0.0
C586 C 0.45233 0.4867 0.10623 0.0
C587 C 0.44093 0.48873 0.08896 0.0
C588 C 0.52376 0.54592 0.10214 0.0
C589 C 0.43556 0.46424 0.11937 0.0
C590 C 0.44612 0.57611 0.21154 0.0
C591 C 0.47377 0.5882 0.20842 0.0
C592 C 0.48629 0.57301 0.20648 0.0
C593 C 0.47078 0.54519 0.20775 0.0
C594 C 0.44318 0.53309 0.21198 0.0
C595 C 0.43122 0.54882 0.214 0.0
C596 C 0.51593 0.58661 0.20254 0.0
C597 C 0.42619 0.50352 0.21368 0.0
C598 C 0.53132 0.4229 0.26839 0.0
C599 C 0.53409 0.4446 0.28239 0.0
C600 C 0.53557 0.47815 0.2606 0.0
C601 C 0.55235 0.50279 0.25268 0.0
C602 C 0.54293 0.51288 0.23833 0.0
C603 C 0.51604 0.49775 0.23169 0.0
C604 C 0.49864 0.47322 0.24009 0.0
C605 C 0.50852 0.4637 0.25452 0.0
C606 C 0.56187 0.53931 0.22988 0.0
C607 C 0.46977 0.45671 0.23342 0.0
C608 C 0.52115 0.48353 0.13884 0.0
C609 C 0.50876 0.48929 0.12388 0.0
C610 C 0.49301 0.50084 0.12734 0.0
C611 C 0.49024 0.50779 0.14625 0.0
C612 C 0.47635 0.52132 0.15016 0.0
C613 C 0.47401 0.52827 0.16884 0.0
C614 C 0.48518 0.52163 0.18433 0.0
C615 C 0.48311 0.52877 0.20337 0.0
C616 C 0.49355 0.52101 0.21848 0.0
C617 C 0.50651 0.50657 0.21507 0.0
C618 C 0.50975 0.50017 0.19609 0.0
C619 C 0.52349 0.48645 0.19213 0.0
C620 C 0.52716 0.48086 0.17339 0.0
C621 C 0.51684 0.48837 0.15794 0.0
C622 C 0.50191 0.50117 0.16162 0.0
C623 C 0.4989 0.50762 0.1807 0.0
C624 C 0.41333 0.59527 0.1836 0.0
C625 C 0.43613 0.60857 0.1985 0.0
O626 O 0.59482 0.45419 0.11188 0.0
O627 O 0.54647 0.46902 0.27372 0.0
O628 O 0.43335 0.59029 0.21207 0.0
O629 O 0.44568 0.50756 0.0584 0.0
H630 H 0.57401 0.41663 0.10026 0.0
H631 H 0.56768 0.45084 0.08091 0.0
H632 H 0.60206 0.46503 0.07382 0.0
H633 H 0.57721 0.43145 0.06689 0.0
H634 H 0.54124 0.42198 0.11268 0.0
H635 H 0.60739 0.498 0.12882 0.0
H636 H 0.49143 0.43393 0.11323 0.0
H637 H 0.49697 0.40833 0.12232 0.0
H638 H 0.49108 0.42911 0.13853 0.0
H639 H 0.60121 0.53276 0.13963 0.0
H640 H 0.56869 0.52963 0.13581 0.0
H641 H 0.57662 0.52002 0.15809 0.0
H642 H 0.4777 0.5124 0.04263 0.0
H643 H 0.45096 0.46993 0.02427 0.0
H644 H 0.44931 0.46487 0.04966 0.0
H645 H 0.42115 0.46355 0.03702 0.0
H646 H 0.49474 0.542 0.07027 0.0
H647 H 0.42026 0.47447 0.0852 0.0
H648 H 0.53641 0.53669 0.10024 0.0
H649 H 0.53122 0.56313 0.09256 0.0
H650 H 0.52623 0.55303 0.11721 0.0
H651 H 0.41512 0.45083 0.11337 0.0
H652 H 0.44558 0.45253 0.1221 0.0
H653 H 0.43363 0.47226 0.13333 0.0
H654 H 0.45519 0.61582 0.19065 0.0
H655 H 0.48556 0.6095 0.2074 0.0
H656 H 0.40996 0.53977 0.21676 0.0
H657 H 0.51897 0.58113 0.18791 0.0
H658 H 0.5256 0.60848 0.20363 0.0
H659 H 0.52612 0.57993 0.21275 0.0
H660 H 0.40509 0.49717 0.21726 0.0
H661 H 0.42632 0.49379 0.19998 0.0
H662 H 0.43484 0.49656 0.22492 0.0
H663 H 0.51377 0.43978 0.28711 0.0
H664 H 0.52242 0.40361 0.27568 0.0
H665 H 0.518 0.42073 0.2561 0.0
H666 H 0.55118 0.42769 0.26273 0.0
H667 H 0.5731 0.51395 0.25756 0.0
H668 H 0.49502 0.4448 0.26065 0.0
H669 H 0.56542 0.53646 0.2147 0.0
H670 H 0.55275 0.55214 0.23015 0.0
H671 H 0.58151 0.54961 0.23765 0.0
H672 H 0.45864 0.43824 0.24161 0.0
H673 H 0.45944 0.46835 0.23488 0.0
H674 H 0.469 0.4514 0.21804 0.0
H675 H 0.51172 0.48503 0.10926 0.0
H676 H 0.46739 0.52692 0.13879 0.0
H677 H 0.46322 0.53881 0.17098 0.0
H678 H 0.49157 0.52626 0.23305 0.0
H679 H 0.53189 0.48017 0.20344 0.0
H680 H 0.53812 0.4705 0.17114 0.0
H681 H 0.41501 0.60976 0.17278 0.0
H682 H 0.41452 0.57902 0.17614 0.0
H683 H 0.39346 0.58679 0.19046 0.0
Zn684 Zn 0.67649 0.46425 0.43157 0.0
Zn685 Zn 0.64839 0.41002 0.42835 0.0
O686 O 0.68754 0.42048 0.42652 0.0
O687 O 0.71185 0.46368 0.42953 0.0
O688 O 0.63113 0.37055 0.42927 0.0
O689 O 0.65864 0.4617 0.45729 0.0
O690 O 0.6362 0.41849 0.45327 0.0
C691 C 0.71035 0.44144 0.42711 0.0
C692 C 0.6389 0.4414 0.39841 0.0
O693 O 0.6339 0.41907 0.40476 0.0
O694 O 0.65566 0.46263 0.40711 0.0
C695 C 0.62535 0.35439 0.41531 0.0
O696 O 0.62895 0.36307 0.39774 0.0
C697 C 0.64138 0.43903 0.46306 0.0
Zn698 Zn 0.19551 0.64393 0.58314 0.0
Zn699 Zn 0.23267 0.62782 0.58189 0.0
O700 O 0.25427 0.66782 0.58465 0.0
O701 O 0.22584 0.68258 0.58403 0.0
O702 O 0.26269 0.61961 0.58254 0.0
O703 O 0.1811 0.6226 0.60737 0.0
O704 O 0.20969 0.60816 0.60471 0.0
C705 C 0.24974 0.68699 0.5849 0.0
C706 C 0.19398 0.61534 0.54817 0.0
O707 O 0.21422 0.61521 0.55562 0.0
O708 O 0.18217 0.62539 0.55722 0.0
C709 C 0.26149 0.59747 0.58009 0.0
O710 O 0.23822 0.57628 0.57624 0.0
C711 C 0.19036 0.60828 0.61333 0.0
Zn712 Zn 0.54948 0.19878 0.72581 0.0
Zn713 Zn 0.60119 0.22505 0.73992 0.0
O714 O 0.59064 0.25326 0.73634 0.0
O715 O 0.54948 0.23359 0.72449 0.0
O716 O 0.63917 0.24781 0.75006 0.0
O717 O 0.53956 0.17781 0.75033 0.0
O718 O 0.58138 0.19869 0.76113 0.0
C719 C 0.5704 0.25446 0.73019 0.0
C720 C 0.58737 0.19338 0.70196 0.0
O721 O 0.60413 0.20809 0.71491 0.0
O722 O 0.56277 0.18647 0.70327 0.0
C723 C 0.66029 0.25111 0.74199 0.0
O724 O 0.65811 0.2375 0.72634 0.0
C725 C 0.55681 0.18125 0.76317 0.0
Zn726 Zn 0.38092 0.55818 0.88408 0.0
Zn727 Zn 0.40524 0.60917 0.89795 0.0
O728 O 0.36609 0.59867 0.89368 0.0
O729 O 0.34548 0.55805 0.88195 0.0
O730 O 0.42083 0.64692 0.90705 0.0
O731 O 0.39213 0.54892 0.90924 0.0
O732 O 0.41182 0.59016 0.91987 0.0
C733 C 0.34485 0.57852 0.88729 0.0
C734 C 0.42393 0.59568 0.86059 0.0
O735 O 0.42549 0.61203 0.87343 0.0
O736 O 0.40669 0.57135 0.86183 0.0
C737 C 0.41838 0.66224 0.89548 0.0
O738 O 0.40742 0.65287 0.87853 0.0
C739 C 0.4052 0.56609 0.92224 0.0
Zn740 Zn 0.8202 0.45345 0.08674 0.0
Zn741 Zn 0.79305 0.40207 0.07454 0.0
O742 O 0.76418 0.41205 0.07855 0.0
O743 O 0.78534 0.45429 0.0867 0.0
O744 O 0.7702 0.36434 0.06536 0.0
O745 O 0.84158 0.46216 0.06256 0.0
O746 O 0.81883 0.42073 0.05242 0.0
C747 C 0.76371 0.43297 0.08298 0.0
C748 C 0.82519 0.4172 0.11227 0.0
O749 O 0.8106 0.39999 0.09958 0.0
O750 O 0.83196 0.44126 0.11019 0.0
C751 C 0.75286 0.34776 0.07658 0.0
O752 O 0.75191 0.35536 0.09416 0.0
C753 C 0.83695 0.44467 0.04988 0.0
Zn754 Zn 0.35942 0.81956 0.22288 0.0
Zn755 Zn 0.38431 0.79087 0.22801 0.0
O756 O 0.34412 0.76436 0.22621 0.0
O757 O 0.32346 0.78598 0.21807 0.0
O758 O 0.39877 0.76595 0.22733 0.0
O759 O 0.38409 0.8387 0.20075 0.0
O760 O 0.40221 0.81371 0.20487 0.0
C761 C 0.32267 0.76445 0.22181 0.0
C762 C 0.38723 0.82627 0.26031 0.0
O763 O 0.39533 0.8113 0.25337 0.0
O764 O 0.37183 0.83162 0.2506 0.0
C765 C 0.41166 0.76061 0.23964 0.0
O766 O 0.41838 0.77321 0.25624 0.0
C767 C 0.40081 0.83176 0.1958 0.0
C768 C 0.19052 0.62125 0.2175 0.0
C769 C 0.17055 0.62059 0.22921 0.0
C770 C 0.21513 0.64461 0.21526 0.0
C771 C 0.22037 0.66774 0.22554 0.0
C772 C 0.20057 0.66722 0.23763 0.0
C773 C 0.17579 0.64382 0.23912 0.0
C774 C 0.23553 0.64452 0.20192 0.0
C775 C 0.20574 0.69129 0.24928 0.0
C776 C 0.29326 0.71973 0.2349 0.0
C777 C 0.29672 0.7395 0.22217 0.0
C778 C 0.26846 0.69637 0.23623 0.0
C779 C 0.24685 0.69232 0.22408 0.0
C780 C 0.25044 0.71193 0.21083 0.0
C781 C 0.27525 0.73553 0.21026 0.0
C782 C 0.26524 0.6763 0.25093 0.0
C783 C 0.2281 0.70797 0.19726 0.0
H784 H 0.18683 0.60338 0.21001 0.0
H785 H 0.16076 0.64379 0.24831 0.0
H786 H 0.24165 0.66048 0.19137 0.0
H787 H 0.25382 0.64852 0.21013 0.0
H788 H 0.2277 0.62536 0.19408 0.0
H789 H 0.18845 0.68751 0.2583 0.0
H790 H 0.22367 0.69778 0.2587 0.0
H791 H 0.21006 0.70788 0.23969 0.0
H792 H 0.30977 0.72288 0.24427 0.0
H793 H 0.27797 0.75074 0.20032 0.0
H794 H 0.25938 0.65707 0.24382 0.0
H795 H 0.24894 0.67298 0.26082 0.0
H796 H 0.28394 0.68265 0.25946 0.0
H797 H 0.22078 0.68927 0.18892 0.0
H798 H 0.23457 0.7245 0.18715 0.0
H799 H 0.21091 0.70621 0.20545 0.0
C800 C 0.61478 0.21619 0.43673 0.0
C801 C 0.59096 0.19915 0.4461 0.0
C802 C 0.61908 0.24028 0.42948 0.0
C803 C 0.59872 0.24703 0.43109 0.0
C804 C 0.57377 0.22883 0.439 0.0
C805 C 0.57025 0.20518 0.44652 0.0
C806 C 0.64604 0.25921 0.42125 0.0
C807 C 0.55131 0.23498 0.44052 0.0
C808 C 0.62082 0.31953 0.43764 0.0
C809 C 0.61729 0.32655 0.41918 0.0
C810 C 0.61489 0.29376 0.44159 0.0
C811 C 0.6047 0.27429 0.4268 0.0
C812 C 0.60052 0.28102 0.4082 0.0
C813 C 0.6071 0.30719 0.40456 0.0
C814 C 0.61994 0.28748 0.46159 0.0
C815 C 0.58919 0.26062 0.39219 0.0
H816 H 0.63052 0.21124 0.43581 0.0
H817 H 0.55153 0.19176 0.45329 0.0
H818 H 0.6435 0.26653 0.40728 0.0
H819 H 0.65687 0.27663 0.43102 0.0
H820 H 0.6587 0.24999 0.41929 0.0
H821 H 0.53205 0.21735 0.4444 0.0
H822 H 0.5566 0.25058 0.45164 0.0
H823 H 0.54837 0.24264 0.42681 0.0
H824 H 0.62884 0.33436 0.44902 0.0
H825 H 0.60425 0.31247 0.39028 0.0
H826 H 0.63416 0.27989 0.46119 0.0
H827 H 0.60095 0.27177 0.46761 0.0
H828 H 0.62835 0.30501 0.47138 0.0
H829 H 0.60298 0.25294 0.38932 0.0
H830 H 0.58607 0.26877 0.37876 0.0
H831 H 0.56973 0.24359 0.39642 0.0
C832 C 0.40227 0.60016 0.58254 0.0
C833 C 0.4086 0.59709 0.60141 0.0
C834 C 0.37725 0.59749 0.57779 0.0
C835 C 0.35822 0.59179 0.59229 0.0
C836 C 0.36409 0.58756 0.61118 0.0
C837 C 0.38925 0.59039 0.61552 0.0
C838 C 0.37176 0.60215 0.55748 0.0
C839 C 0.34437 0.58147 0.62706 0.0
C840 C 0.31055 0.61854 0.58757 0.0
C841 C 0.28627 0.59582 0.58238 0.0
C842 C 0.33409 0.61747 0.59056 0.0
C843 C 0.33348 0.59309 0.58823 0.0
C844 C 0.30919 0.57014 0.58265 0.0
C845 C 0.28582 0.57176 0.57982 0.0
C846 C 0.35956 0.64241 0.59655 0.0
C847 C 0.30784 0.54385 0.57995 0.0
H848 H 0.4173 0.6056 0.57164 0.0
H849 H 0.39416 0.58821 0.63015 0.0
H850 H 0.35182 0.58606 0.55242 0.0
H851 H 0.37133 0.6209 0.55689 0.0
H852 H 0.38726 0.60343 0.54754 0.0
H853 H 0.35088 0.57616 0.64048 0.0
H854 H 0.34219 0.59898 0.63003 0.0
H855 H 0.32429 0.56494 0.62271 0.0
H856 H 0.31118 0.63725 0.58957 0.0
H857 H 0.26718 0.55413 0.57577 0.0
H858 H 0.37573 0.64649 0.58633 0.0
H859 H 0.36647 0.63984 0.6108 0.0
H860 H 0.35681 0.6599 0.59729 0.0
H861 H 0.32307 0.54565 0.56956 0.0
H862 H 0.28774 0.52811 0.57478 0.0
H863 H 0.31259 0.53767 0.59369 0.0
C864 C 0.79608 0.38563 0.76183 0.0
C865 C 0.8114 0.38488 0.77728 0.0
C866 C 0.77225 0.36295 0.75588 0.0
C867 C 0.76371 0.33888 0.76546 0.0
C868 C 0.7796 0.3378 0.78061 0.0
C869 C 0.80318 0.36086 0.78642 0.0
C870 C 0.75576 0.36495 0.73974 0.0
C871 C 0.77133 0.31244 0.79102 0.0
C872 C 0.689 0.28952 0.76381 0.0
C873 C 0.687 0.2722 0.74899 0.0
C874 C 0.71391 0.31104 0.76949 0.0
C875 C 0.73745 0.31526 0.76025 0.0
C876 C 0.73572 0.29741 0.74571 0.0
C877 C 0.71049 0.27613 0.7402 0.0
C878 C 0.71492 0.32969 0.78502 0.0
C879 C 0.76044 0.30114 0.73568 0.0
H880 H 0.80247 0.40416 0.75472 0.0
H881 H 0.815 0.3602 0.79834 0.0
H882 H 0.75203 0.35005 0.72838 0.0
H883 H 0.73593 0.36065 0.7451 0.0
H884 H 0.76571 0.38485 0.73331 0.0
H885 H 0.78686 0.31445 0.80154 0.0
H886 H 0.75241 0.3064 0.7987 0.0
H887 H 0.76735 0.29631 0.78067 0.0
H888 H 0.67099 0.28669 0.77068 0.0
H889 H 0.70916 0.26282 0.72878 0.0
H890 H 0.72275 0.34975 0.77917 0.0
H891 H 0.72884 0.3313 0.79672 0.0
H892 H 0.69489 0.32321 0.79115 0.0
H893 H 0.76962 0.3199 0.72774 0.0
H894 H 0.75588 0.28468 0.72545 0.0
H895 H 0.77562 0.30265 0.7463 0.0
C896 C 0.46234 0.8132 0.92166 0.0
C897 C 0.44016 0.81354 0.9295 0.0
C898 C 0.4613 0.78923 0.91715 0.0
C899 C 0.43731 0.76508 0.92009 0.0
C900 C 0.41498 0.7653 0.92818 0.0
C901 C 0.4167 0.78951 0.93278 0.0
C902 C 0.48557 0.78978 0.90866 0.0
C903 C 0.38891 0.73998 0.93129 0.0
C904 C 0.42083 0.70525 0.88883 0.0
C905 C 0.42547 0.68941 0.90143 0.0
C906 C 0.42527 0.73019 0.8946 0.0
C907 C 0.43473 0.73964 0.91342 0.0
C908 C 0.44034 0.72417 0.92604 0.0
C909 C 0.43559 0.69919 0.9199 0.0
C910 C 0.41901 0.74607 0.88071 0.0
C911 C 0.45066 0.73371 0.94616 0.0
H912 H 0.48034 0.83169 0.91869 0.0
H913 H 0.39937 0.78973 0.93848 0.0
H914 H 0.49057 0.77638 0.91652 0.0
H915 H 0.48109 0.78256 0.89359 0.0
H916 H 0.50343 0.80996 0.90898 0.0
H917 H 0.37392 0.74349 0.93864 0.0
H918 H 0.38021 0.72999 0.91732 0.0
H919 H 0.39254 0.72625 0.93994 0.0
H920 H 0.4131 0.69794 0.87451 0.0
H921 H 0.43931 0.68711 0.92972 0.0
H922 H 0.43677 0.76603 0.87916 0.0
H923 H 0.40254 0.74875 0.8863 0.0
H924 H 0.41287 0.73641 0.86634 0.0
H925 H 0.46873 0.75369 0.94596 0.0
H926 H 0.45582 0.7202 0.95373 0.0
H927 H 0.43521 0.73536 0.95442 0.0
C928 C 0.63548 0.44288 0.10954 0.0
C929 C 0.6159 0.43423 0.0948 0.0
C930 C 0.65885 0.44131 0.10753 0.0
C931 C 0.66293 0.43089 0.09038 0.0
C932 C 0.64291 0.42108 0.07579 0.0
C933 C 0.6194 0.42227 0.07837 0.0
C934 C 0.67938 0.45114 0.1237 0.0
C935 C 0.64662 0.40991 0.05724 0.0
C936 C 0.73566 0.45416 0.07925 0.0
C937 C 0.73778 0.43213 0.08419 0.0
C938 C 0.71111 0.45364 0.08055 0.0
C939 C 0.68847 0.43088 0.08761 0.0
C940 C 0.69054 0.40858 0.09265 0.0
C941 C 0.71512 0.40932 0.09057 0.0
C942 C 0.70944 0.47749 0.0745 0.0
C943 C 0.66708 0.38427 0.10079 0.0
H944 H 0.63277 0.45108 0.12272 0.0
H945 H 0.60398 0.41414 0.06729 0.0
H946 H 0.68409 0.43558 0.12771 0.0
H947 H 0.69832 0.46844 0.11902 0.0
H948 H 0.6724 0.45706 0.13659 0.0
H949 H 0.62907 0.40295 0.04734 0.0
H950 H 0.66471 0.42524 0.05 0.0
H951 H 0.64995 0.39314 0.06009 0.0
H952 H 0.75315 0.47168 0.07412 0.0
H953 H 0.71685 0.39234 0.09452 0.0
H954 H 0.70507 0.4864 0.08704 0.0
H955 H 0.69274 0.47149 0.06396 0.0
H956 H 0.72833 0.49282 0.06804 0.0
H957 H 0.66115 0.38953 0.11446 0.0
H958 H 0.67183 0.36834 0.10349 0.0
H959 H 0.64948 0.37645 0.09089 0.0
C960 C 0.37886 0.83365 0.58301 0.0
C961 C 0.39323 0.83433 0.56673 0.0
C962 C 0.35412 0.81124 0.58702 0.0
C963 C 0.34332 0.78918 0.57429 0.0
C964 C 0.35716 0.79022 0.55741 0.0
C965 C 0.38204 0.81269 0.55392 0.0
C966 C 0.34011 0.81077 0.60525 0.0
C967 C 0.34612 0.76726 0.54332 0.0
C968 C 0.29805 0.71948 0.59124 0.0
C969 C 0.27278 0.71427 0.58457 0.0
C970 C 0.32095 0.74426 0.58882 0.0
C971 C 0.31862 0.7642 0.57918 0.0
C972 C 0.29301 0.75943 0.57308 0.0
C973 C 0.2703 0.73454 0.57601 0.0
C974 C 0.34782 0.74871 0.59589 0.0
C975 C 0.28977 0.78008 0.56254 0.0
H976 H 0.38738 0.85043 0.59287 0.0
H977 H 0.39298 0.81313 0.54129 0.0
H978 H 0.31895 0.80508 0.60214 0.0
H979 H 0.33983 0.79567 0.61488 0.0
H980 H 0.35014 0.83019 0.61293 0.0
H981 H 0.35816 0.77207 0.53014 0.0
H982 H 0.34592 0.75007 0.55005 0.0
H983 H 0.3251 0.76115 0.53924 0.0
H984 H 0.30003 0.70394 0.59801 0.0
H985 H 0.25082 0.73054 0.57072 0.0
H986 H 0.35835 0.76723 0.60459 0.0
H987 H 0.36064 0.75093 0.58352 0.0
H988 H 0.34586 0.73211 0.60464 0.0
H989 H 0.30014 0.79928 0.57044 0.0
H990 H 0.26835 0.77425 0.56035 0.0
H991 H 0.29922 0.7832 0.54834 0.0
C992 C 0.59489 0.39777 0.70682 0.0
C993 C 0.58459 0.40769 0.72064 0.0
C994 C 0.5918 0.3725 0.70839 0.0
C995 C 0.57836 0.35689 0.7243 0.0
C996 C 0.56798 0.3668 0.73834 0.0
C997 C 0.5712 0.39208 0.73633 0.0
C998 C 0.60311 0.36259 0.69312 0.0
C999 C 0.55376 0.35083 0.75558 0.0
C1000 C 0.55135 0.28289 0.72014 0.0
C1001 C 0.57177 0.28044 0.7293 0.0
C1002 C 0.5531 0.30763 0.71856 0.0
C1003 C 0.57572 0.33041 0.72642 0.0
C1004 C 0.59617 0.32801 0.73597 0.0
C1005 C 0.59399 0.30309 0.73724 0.0
C1006 C 0.53097 0.30947 0.70819 0.0
C1007 C 0.62053 0.35182 0.74465 0.0
H1008 H 0.60545 0.40985 0.69476 0.0
H1009 H 0.56342 0.3998 0.74711 0.0
H1010 H 0.61854 0.35877 0.69949 0.0
H1011 H 0.58701 0.34359 0.68692 0.0
H1012 H 0.61235 0.37688 0.68139 0.0
H1013 H 0.54654 0.36125 0.76506 0.0
H1014 H 0.53635 0.3316 0.75096 0.0
H1015 H 0.56752 0.34649 0.76398 0.0
H1016 H 0.53414 0.26552 0.71394 0.0
H1017 H 0.60984 0.3014 0.74442 0.0
H1018 H 0.53921 0.32229 0.69559 0.0
H1019 H 0.52254 0.31872 0.71767 0.0
H1020 H 0.51444 0.28983 0.70324 0.0
H1021 H 0.63187 0.36607 0.73332 0.0
H1022 H 0.63421 0.34647 0.75214 0.0
H1023 H 0.61423 0.36211 0.755 0.0
C1024 C 0.2042 0.57541 0.89084 0.0
C1025 C 0.20053 0.58716 0.87458 0.0
C1026 C 0.2275 0.57375 0.89343 0.0
C1027 C 0.24757 0.58405 0.87941 0.0
C1028 C 0.24409 0.59612 0.86304 0.0
C1029 C 0.22065 0.59765 0.86086 0.0
C1030 C 0.23061 0.56095 0.91116 0.0
C1031 C 0.26509 0.60733 0.84778 0.0
C1032 C 0.3186 0.6014 0.893 0.0
C1033 C 0.31963 0.57944 0.88576 0.0
C1034 C 0.29518 0.60302 0.89121 0.0
C1035 C 0.27228 0.58225 0.88186 0.0
C1036 C 0.27308 0.55994 0.87465 0.0
C1037 C 0.29673 0.55875 0.87673 0.0
C1038 C 0.29502 0.62705 0.89921 0.0
C1039 C 0.24904 0.53747 0.86453 0.0
H1040 H 0.18873 0.56746 0.90152 0.0
H1041 H 0.21797 0.60692 0.84836 0.0
H1042 H 0.23279 0.54373 0.90709 0.0
H1043 H 0.24911 0.57512 0.91921 0.0
H1044 H 0.21324 0.55416 0.92079 0.0
H1045 H 0.25926 0.61599 0.83588 0.0
H1046 H 0.28446 0.62288 0.85409 0.0
H1047 H 0.26848 0.59159 0.84182 0.0
H1048 H 0.33616 0.61746 0.90004 0.0
H1049 H 0.29736 0.54174 0.87107 0.0
H1050 H 0.27865 0.62096 0.90962 0.0
H1051 H 0.29105 0.63741 0.88754 0.0
H1052 H 0.31433 0.64122 0.90643 0.0
H1053 H 0.23152 0.52907 0.87407 0.0
H1054 H 0.25283 0.52139 0.85993 0.0
H1055 H 0.24353 0.54491 0.85174 0.0
C1056 C 0.61941 0.22536 0.0353 0.0
C1057 C 0.62133 0.20285 0.03086 0.0
C1058 C 0.64132 0.24819 0.04333 0.0
C1059 C 0.66543 0.24827 0.0477 0.0
C1060 C 0.66703 0.22521 0.04426 0.0
C1061 C 0.64501 0.20285 0.03584 0.0
C1062 C 0.63887 0.27246 0.04673 0.0
C1063 C 0.69214 0.22428 0.04919 0.0
C1064 C 0.72922 0.31524 0.04973 0.0
C1065 C 0.73207 0.32129 0.06938 0.0
C1066 C 0.70792 0.29129 0.04253 0.0
C1067 C 0.68919 0.2728 0.0553 0.0
C1068 C 0.69255 0.27833 0.07521 0.0
C1069 C 0.71387 0.30258 0.082 0.0
C1070 C 0.70492 0.28617 0.02119 0.0
C1071 C 0.67321 0.25896 0.0893 0.0
H1072 H 0.60107 0.22556 0.0322 0.0
H1073 H 0.64639 0.18533 0.03293 0.0
H1074 H 0.64299 0.27868 0.062 0.0
H1075 H 0.65403 0.28906 0.03825 0.0
H1076 H 0.61866 0.26911 0.04273 0.0
H1077 H 0.68954 0.20432 0.04675 0.0
H1078 H 0.70896 0.23857 0.04038 0.0
H1079 H 0.69801 0.2302 0.06439 0.0
H1080 H 0.74315 0.32959 0.03987 0.0
H1081 H 0.71599 0.30703 0.09722 0.0
H1082 H 0.68585 0.28455 0.01603 0.0
H1083 H 0.70392 0.26713 0.01774 0.0
H1084 H 0.72174 0.30209 0.01325 0.0
H1085 H 0.65312 0.25689 0.08717 0.0
H1086 H 0.67985 0.26528 0.10436 0.0
H1087 H 0.67092 0.23914 0.08686 0.0
C1088 C 0.45528 0.65768 0.2035 0.0
C1089 C 0.43583 0.63179 0.20801 0.0
C1090 C 0.45368 0.67942 0.2105 0.0
C1091 C 0.4319 0.67512 0.22209 0.0
C1092 C 0.4128 0.6491 0.22734 0.0
C1093 C 0.41503 0.62773 0.22027 0.0
C1094 C 0.47453 0.70686 0.20467 0.0
C1095 C 0.38918 0.64369 0.23955 0.0
C1096 C 0.43272 0.73319 0.24802 0.0
C1097 C 0.41766 0.73925 0.23528 0.0
C1098 C 0.43776 0.71247 0.24391 0.0
C1099 C 0.42733 0.69742 0.22676 0.0
C1100 C 0.41224 0.70355 0.21384 0.0
C1101 C 0.40769 0.72439 0.21822 0.0
C1102 C 0.45413 0.70659 0.25791 0.0
C1103 C 0.40068 0.68795 0.19541 0.0
H1104 H 0.47137 0.6609 0.19402 0.0
H1105 H 0.39996 0.60773 0.22375 0.0
H1106 H 0.46534 0.71471 0.19458 0.0
H1107 H 0.48205 0.72044 0.2173 0.0
H1108 H 0.49185 0.70711 0.1976 0.0
H1109 H 0.37766 0.62272 0.24389 0.0
H1110 H 0.39602 0.6565 0.25259 0.0
H1111 H 0.37549 0.64843 0.23145 0.0
H1112 H 0.44053 0.74459 0.2612 0.0
H1113 H 0.396 0.72883 0.20826 0.0
H1114 H 0.47172 0.7077 0.25069 0.0
H1115 H 0.44191 0.68617 0.26318 0.0
H1116 H 0.46136 0.72051 0.27038 0.0
H1117 H 0.41701 0.68906 0.18649 0.0
H1118 H 0.38933 0.69523 0.18694 0.0
H1119 H 0.38701 0.66681 0.19855 0.0
C1120 C 0.82401 0.42524 0.37842 0.0
C1121 C 0.83957 0.41933 0.39072 0.0
C1122 C 0.80544 0.43184 0.3856 0.0
C1123 C 0.80223 0.43242 0.40561 0.0
C1124 C 0.8187 0.42757 0.41815 0.0
C1125 C 0.83706 0.42088 0.41055 0.0
C1126 C 0.78816 0.43671 0.37172 0.0
C1127 C 0.81594 0.42807 0.43956 0.0
C1128 C 0.76012 0.46215 0.42235 0.0
C1129 C 0.73469 0.43948 0.42361 0.0
C1130 C 0.78264 0.46018 0.41721 0.0
C1131 C 0.77956 0.43501 0.41315 0.0
C1132 C 0.75415 0.41206 0.41509 0.0
C1133 C 0.73212 0.41457 0.42035 0.0
C1134 C 0.8095 0.48505 0.41549 0.0
C1135 C 0.74995 0.38481 0.41087 0.0
H1136 H 0.82569 0.42374 0.36309 0.0
H1137 H 0.8488 0.41597 0.4201 0.0
H1138 H 0.76705 0.42043 0.37253 0.0
H1139 H 0.7885 0.45534 0.37555 0.0
H1140 H 0.7948 0.4379 0.35673 0.0
H1141 H 0.83249 0.42735 0.44732 0.0
H1142 H 0.81564 0.44613 0.4442 0.0
H1143 H 0.79663 0.41081 0.44376 0.0
H1144 H 0.76234 0.48147 0.42491 0.0
H1145 H 0.71263 0.39689 0.42137 0.0
H1146 H 0.81539 0.48805 0.40028 0.0
H1147 H 0.82519 0.48321 0.42353 0.0
H1148 H 0.80914 0.50281 0.4209 0.0
H1149 H 0.75388 0.38313 0.39557 0.0
H1150 H 0.72924 0.3689 0.41399 0.0
H1151 H 0.76429 0.3815 0.41944 0.0
C1152 C 0.14884 0.56622 0.4388 0.0
C1153 C 0.15154 0.58824 0.42905 0.0
C1154 C 0.15458 0.56771 0.45849 0.0
C1155 C 0.16355 0.59189 0.46859 0.0
C1156 C 0.16598 0.61408 0.45887 0.0
C1157 C 0.15951 0.61185 0.43931 0.0
C1158 C 0.15102 0.54344 0.46849 0.0
C1159 C 0.17564 0.64029 0.46909 0.0
C1160 C 0.15882 0.59699 0.5223 0.0
C1161 C 0.18532 0.60573 0.52831 0.0
C1162 C 0.15104 0.59084 0.503 0.0
C1163 C 0.17042 0.59424 0.48934 0.0
C1164 C 0.19696 0.60211 0.49543 0.0
C1165 C 0.20402 0.60744 0.51491 0.0
C1166 C 0.12235 0.58178 0.49716 0.0
C1167 C 0.21831 0.60638 0.48125 0.0
H1168 H 0.14217 0.54778 0.431 0.0
H1169 H 0.1609 0.6287 0.43198 0.0
H1170 H 0.17049 0.54726 0.47466 0.0
H1171 H 0.13701 0.53869 0.48052 0.0
H1172 H 0.1431 0.52594 0.45871 0.0
H1173 H 0.17725 0.65584 0.45931 0.0
H1174 H 0.16166 0.63805 0.48065 0.0
H1175 H 0.19561 0.64707 0.47588 0.0
H1176 H 0.14425 0.5954 0.53267 0.0
H1177 H 0.22456 0.61434 0.51949 0.0
H1178 H 0.11434 0.56412 0.48755 0.0
H1179 H 0.1215 0.59759 0.48911 0.0
H1180 H 0.10909 0.5769 0.50969 0.0
H1181 H 0.21134 0.58871 0.4718 0.0
H1182 H 0.23745 0.61071 0.48839 0.0
H1183 H 0.22226 0.62322 0.47201 0.0
C1184 C 0.64566 0.13019 0.61414 0.0
C1185 C 0.64371 0.14667 0.59201 0.0
C1186 C 0.63244 0.13757 0.63507 0.0
C1187 C 0.62361 0.16319 0.63467 0.0
C1188 C 0.62925 0.18359 0.61409 0.0
C1189 C 0.64231 0.17777 0.59246 0.0
C1190 C 0.62869 0.12233 0.65282 0.0
C1191 C 0.62307 0.20546 0.61501 0.0
C1192 C 0.57803 0.16602 0.672 0.0
C1193 C 0.59665 0.18474 0.68512 0.0
C1194 C 0.58656 0.15833 0.65566 0.0
C1195 C 0.61429 0.16973 0.65232 0.0
C1196 C 0.63319 0.18834 0.66557 0.0
C1197 C 0.62417 0.19556 0.68186 0.0
C1198 C 0.56592 0.13825 0.64186 0.0
C1199 C 0.66296 0.20105 0.66231 0.0
H1200 H 0.64912 0.11363 0.61369 0.0
H1201 H 0.64358 0.18832 0.57955 0.0
H1202 H 0.64177 0.13594 0.66441 0.0
H1203 H 0.60761 0.11368 0.65744 0.0
H1204 H 0.63365 0.1065 0.65034 0.0
H1205 H 0.62719 0.21571 0.60115 0.0
H1206 H 0.60168 0.1973 0.61868 0.0
H1207 H 0.6354 0.21968 0.62657 0.0
H1208 H 0.55673 0.15741 0.67442 0.0
H1209 H 0.63872 0.21007 0.69186 0.0
H1210 H 0.56973 0.12159 0.63968 0.0
H1211 H 0.56763 0.14751 0.6278 0.0
H1212 H 0.5451 0.13029 0.64696 0.0
H1213 H 0.66864 0.18559 0.66064 0.0
H1214 H 0.67511 0.21469 0.67423 0.0
H1215 H 0.66808 0.2123 0.64885 0.0
C1216 C 0.48702 0.65437 0.75123 0.0
C1217 C 0.51972 0.65548 0.74889 0.0
C1218 C 0.46991 0.64048 0.77314 0.0
C1219 C 0.48659 0.63369 0.79241 0.0
C1220 C 0.52131 0.64209 0.79124 0.0
C1221 C 0.54021 0.65608 0.76993 0.0
C1222 C 0.44173 0.63455 0.77538 0.0
C1223 C 0.53444 0.63738 0.80801 0.0
C1224 C 0.45807 0.63251 0.84099 0.0
C1225 C 0.44145 0.6053 0.84372 0.0
C1226 C 0.47339 0.64197 0.82446 0.0
C1227 C 0.47219 0.62384 0.81042 0.0
C1228 C 0.4561 0.5964 0.81327 0.0
C1229 C 0.44085 0.58742 0.82988 0.0
C1230 C 0.49032 0.67141 0.82179 0.0
C1231 C 0.45458 0.57658 0.79859 0.0
H1232 H 0.47653 0.65637 0.73901 0.0
H1233 H 0.56033 0.65934 0.76846 0.0
H1234 H 0.42883 0.61335 0.77871 0.0
H1235 H 0.44082 0.64627 0.78763 0.0
H1236 H 0.43431 0.63927 0.76215 0.0
H1237 H 0.55524 0.64242 0.80464 0.0
H1238 H 0.53468 0.64957 0.82035 0.0
H1239 H 0.52249 0.61635 0.81207 0.0
H1240 H 0.4587 0.64651 0.85157 0.0
H1241 H 0.42817 0.56636 0.83188 0.0
H1242 H 0.48294 0.67718 0.80903 0.0
H1243 H 0.51143 0.67684 0.81917 0.0
H1244 H 0.48989 0.68293 0.83439 0.0
H1245 H 0.44568 0.57879 0.78507 0.0
H1246 H 0.44228 0.5559 0.8034 0.0
H1247 H 0.47508 0.58042 0.79546 0.0
C1248 C 0.90885 0.5007 0.95045 0.0
C1249 C 0.93392 0.50217 0.95017 0.0
C1250 C 0.89103 0.48824 0.96541 0.0
C1251 C 0.89861 0.47724 0.98051 0.0
C1252 C 0.92336 0.4776 0.97983 0.0
C1253 C 0.94076 0.49018 0.96471 0.0
C1254 C 0.86481 0.48824 0.96562 0.0
C1255 C 0.9322 0.46612 0.99564 0.0
C1256 C 0.87289 0.47886 0.02981 0.0
C1257 C 0.85259 0.45252 0.03204 0.0
C1258 C 0.88782 0.48705 0.01309 0.0
C1259 C 0.8824 0.46847 0.99812 0.0
C1260 C 0.86197 0.44183 0.00019 0.0
C1261 C 0.84728 0.43414 0.01716 0.0
C1262 C 0.9095 0.51565 0.01148 0.0
C1263 C 0.85566 0.42152 0.98449 0.0
H1264 H 0.90363 0.51019 0.93933 0.0
H1265 H 0.96022 0.49148 0.96462 0.0
H1266 H 0.84799 0.46826 0.96883 0.0
H1267 H 0.86562 0.50192 0.97707 0.0
H1268 H 0.86043 0.49458 0.95179 0.0
H1269 H 0.95042 0.46521 0.99189 0.0
H1270 H 0.93666 0.47847 0.00882 0.0
H1271 H 0.91592 0.44592 0.99899 0.0
H1272 H 0.87719 0.49325 0.04119 0.0
H1273 H 0.83161 0.41376 0.01873 0.0
H1274 H 0.90539 0.52451 0.99887 0.0
H1275 H 0.9292 0.51698 0.00931 0.0
H1276 H 0.91108 0.52763 0.02439 0.0
H1277 H 0.85002 0.42774 0.97113 0.0
H1278 H 0.83905 0.40165 0.98826 0.0
H1279 H 0.87374 0.42004 0.98144 0.0
C1280 C 0.48353 0.88331 0.09959 0.0
C1281 C 0.50978 0.904 0.10319 0.0
C1282 C 0.46507 0.87257 0.11439 0.0
C1283 C 0.47311 0.88266 0.13328 0.0
C1284 C 0.49943 0.90394 0.13694 0.0
C1285 C 0.51751 0.91427 0.12185 0.0
C1286 C 0.43724 0.84983 0.10992 0.0
C1287 C 0.50875 0.91521 0.15688 0.0
C1288 C 0.41912 0.86583 0.17019 0.0
C1289 C 0.41909 0.84479 0.17969 0.0
C1290 C 0.43668 0.87847 0.15511 0.0
C1291 C 0.45455 0.8698 0.14935 0.0
C1292 C 0.45459 0.84856 0.15884 0.0
C1293 C 0.4369 0.83635 0.17388 0.0
C1294 C 0.43614 0.90109 0.14532 0.0
C1295 C 0.47329 0.83868 0.15308 0.0
H1296 H 0.47764 0.87512 0.08522 0.0
H1297 H 0.53792 0.92999 0.1247 0.0
H1298 H 0.43436 0.83184 0.11718 0.0
H1299 H 0.4219 0.85427 0.11542 0.0
H1300 H 0.43361 0.84541 0.09433 0.0
H1301 H 0.52916 0.93294 0.15711 0.0
H1302 H 0.49459 0.92067 0.16326 0.0
H1303 H 0.50905 0.90004 0.16611 0.0
H1304 H 0.40549 0.87254 0.17459 0.0
H1305 H 0.43706 0.82012 0.1811 0.0
H1306 H 0.43133 0.89633 0.12988 0.0
H1307 H 0.45623 0.91911 0.14644 0.0
H1308 H 0.42116 0.90556 0.15157 0.0
H1309 H 0.46956 0.83205 0.13787 0.0
H1310 H 0.47085 0.82199 0.16194 0.0
H1311 H 0.49443 0.85493 0.15442 0.0
C1312 C 0.57805 0.45445 0.29814 0.0
C1313 C 0.5506 0.44575 0.29976 0.0
C1314 C 0.59325 0.45427 0.31389 0.0
C1315 C 0.58075 0.44544 0.33173 0.0
C1316 C 0.55316 0.43704 0.33353 0.0
C1317 C 0.53837 0.4371 0.31748 0.0
C1318 C 0.62256 0.46313 0.31138 0.0
C1319 C 0.53921 0.42779 0.35238 0.0
C1320 C 0.61118 0.42057 0.36874 0.0
C1321 C 0.62469 0.44264 0.38104 0.0
C1322 C 0.59722 0.42138 0.35243 0.0
C1323 C 0.59641 0.44468 0.3485 0.0
C1324 C 0.61009 0.46706 0.36082 0.0
C1325 C 0.62424 0.46583 0.37686 0.0
C1326 C 0.58322 0.39726 0.33945 0.0
C1327 C 0.60939 0.49214 0.35723 0.0
H1328 H 0.58752 0.46108 0.28444 0.0
H1329 H 0.51715 0.43026 0.31877 0.0
H1330 H 0.63507 0.47977 0.32141 0.0
H1331 H 0.62628 0.44675 0.31486 0.0
H1332 H 0.62926 0.46954 0.29658 0.0
H1333 H 0.51787 0.42274 0.35153 0.0
H1334 H 0.53997 0.4101 0.35703 0.0
H1335 H 0.5497 0.44339 0.36356 0.0
H1336 H 0.6116 0.40264 0.37181 0.0
H1337 H 0.63452 0.48294 0.38635 0.0
H1338 H 0.59042 0.40251 0.32462 0.0
H1339 H 0.56131 0.38984 0.33908 0.0
H1340 H 0.5866 0.38104 0.34413 0.0
H1341 H 0.61733 0.49972 0.34288 0.0
H1342 H 0.6213 0.50787 0.36808 0.0
H1343 H 0.58835 0.48796 0.35739 0.0
C1344 C 0.42778 0.90516 0.3598 0.0
C1345 C 0.42247 0.88844 0.37544 0.0
C1346 C 0.42475 0.89549 0.34094 0.0
C1347 C 0.41559 0.86835 0.33757 0.0
C1348 C 0.41111 0.85158 0.3532 0.0
C1349 C 0.41514 0.86195 0.37191 0.0
C1350 C 0.43058 0.91419 0.32462 0.0
C1351 C 0.40088 0.82242 0.35021 0.0
C1352 C 0.37629 0.83964 0.29123 0.0
C1353 C 0.39474 0.83674 0.28007 0.0
C1354 C 0.38268 0.84932 0.3101 0.0
C1355 C 0.4085 0.85714 0.31778 0.0
C1356 C 0.42736 0.85452 0.3065 0.0
C1357 C 0.42006 0.84387 0.28783 0.0
C1358 C 0.36173 0.85109 0.32182 0.0
C1359 C 0.45535 0.86344 0.314 0.0
H1360 H 0.43404 0.9258 0.36214 0.0
H1361 H 0.41177 0.84908 0.38385 0.0
H1362 H 0.44357 0.91193 0.31406 0.0
H1363 H 0.41157 0.90939 0.3171 0.0
H1364 H 0.44059 0.93516 0.32957 0.0
H1365 H 0.39969 0.81233 0.36383 0.0
H1366 H 0.38057 0.8129 0.34344 0.0
H1367 H 0.41405 0.81931 0.34036 0.0
H1368 H 0.35659 0.83384 0.28529 0.0
H1369 H 0.43437 0.84176 0.27913 0.0
H1370 H 0.36873 0.87201 0.32574 0.0
H1371 H 0.35856 0.84021 0.33533 0.0
H1372 H 0.34216 0.84286 0.31405 0.0
H1373 H 0.46561 0.88481 0.31781 0.0
H1374 H 0.46763 0.86009 0.3034 0.0
H1375 H 0.45449 0.85278 0.32722 0.0
C1376 C 0.5619 0.41841 0.56087 0.0
C1377 C 0.53538 0.41171 0.55651 0.0
C1378 C 0.58093 0.42537 0.54646 0.0
C1379 C 0.5732 0.42551 0.52721 0.0
C1380 C 0.54666 0.41957 0.52279 0.0
C1381 C 0.52799 0.41251 0.53747 0.0
C1382 C 0.60895 0.43138 0.55175 0.0
C1383 C 0.53766 0.41957 0.50244 0.0
C1384 C 0.62618 0.45816 0.48915 0.0
C1385 C 0.62576 0.43618 0.48048 0.0
C1386 C 0.60945 0.4551 0.50458 0.0
C1387 C 0.59209 0.42951 0.51154 0.0
C1388 C 0.59219 0.40739 0.50323 0.0
C1389 C 0.60895 0.41098 0.4878 0.0
C1390 C 0.60983 0.47913 0.51308 0.0
C1391 C 0.57415 0.37978 0.51035 0.0
H1392 H 0.56753 0.41742 0.57554 0.0
H1393 H 0.5074 0.40692 0.53401 0.0
H1394 H 0.61235 0.41562 0.54584 0.0
H1395 H 0.62405 0.45027 0.54542 0.0
H1396 H 0.61241 0.43268 0.56748 0.0
H1397 H 0.51716 0.4169 0.50159 0.0
H1398 H 0.55179 0.43838 0.49551 0.0
H1399 H 0.53772 0.40333 0.49412 0.0
H1400 H 0.63902 0.47769 0.48356 0.0
H1401 H 0.60857 0.39388 0.48128 0.0
H1402 H 0.61362 0.48029 0.52874 0.0
H1403 H 0.58993 0.47748 0.51083 0.0
H1404 H 0.62536 0.49777 0.50665 0.0
H1405 H 0.57766 0.37899 0.52588 0.0
H1406 H 0.57742 0.36482 0.50281 0.0
H1407 H 0.55283 0.37429 0.50829 0.0
C1408 C 0.14178 0.53448 0.71292 0.0
C1409 C 0.12244 0.50775 0.71023 0.0
C1410 C 0.15222 0.55134 0.69733 0.0
C1411 C 0.1432 0.54116 0.67858 0.0
C1412 C 0.12338 0.51426 0.67578 0.0
C1413 C 0.11336 0.49782 0.69164 0.0
C1414 C 0.17341 0.57987 0.7009 0.0
C1415 C 0.11325 0.50269 0.656 0.0
C1416 C 0.15573 0.58961 0.63884 0.0
C1417 C 0.17843 0.59134 0.63016 0.0
C1418 C 0.14399 0.5733 0.65457 0.0
C1419 C 0.15527 0.55844 0.66185 0.0
C1420 C 0.17822 0.56017 0.65324 0.0
C1421 C 0.18948 0.57655 0.63748 0.0
C1422 C 0.11948 0.57189 0.66336 0.0
C1423 C 0.19091 0.54473 0.66067 0.0
H1424 H 0.14912 0.54208 0.72726 0.0
H1425 H 0.09875 0.47705 0.6895 0.0
H1426 H 0.19241 0.58394 0.69412 0.0
H1427 H 0.1671 0.59312 0.6943 0.0
H1428 H 0.17745 0.58494 0.71639 0.0
H1429 H 0.09684 0.48176 0.65633 0.0
H1430 H 0.10577 0.51437 0.6484 0.0
H1431 H 0.12994 0.50373 0.64756 0.0
H1432 H 0.14699 0.6009 0.63327 0.0
H1433 H 0.20702 0.57775 0.63091 0.0
H1434 H 0.12361 0.5781 0.67864 0.0
H1435 H 0.10257 0.55121 0.66281 0.0
H1436 H 0.1131 0.58462 0.65596 0.0
H1437 H 0.1971 0.55015 0.67588 0.0
H1438 H 0.20876 0.54833 0.6524 0.0
H1439 H 0.17608 0.52327 0.66004 0.0
C1440 C 0.50076 0.09505 0.85786 0.0
C1441 C 0.50279 0.0722 0.85597 0.0
C1442 C 0.51134 0.11479 0.84403 0.0
C1443 C 0.52379 0.11134 0.82778 0.0
C1444 C 0.52638 0.08857 0.826 0.0
C1445 C 0.51579 0.06927 0.84009 0.0
C1446 C 0.50827 0.13883 0.84645 0.0
C1447 C 0.53932 0.08404 0.80881 0.0
C1448 C 0.52182 0.14321 0.78133 0.0
C1449 C 0.54827 0.16429 0.78024 0.0
C1450 C 0.51355 0.12616 0.79689 0.0
C1451 C 0.5321 0.13033 0.81183 0.0
C1452 C 0.55867 0.1519 0.81108 0.0
C1453 C 0.56648 0.16859 0.79524 0.0
C1454 C 0.48506 0.10329 0.7971 0.0
C1455 C 0.57892 0.15708 0.82684 0.0
H1456 H 0.4903 0.09718 0.86993 0.0
H1457 H 0.51701 0.05144 0.83844 0.0
H1458 H 0.52783 0.15712 0.84451 0.0
H1459 H 0.49419 0.13847 0.83534 0.0
H1460 H 0.5005 0.13979 0.86073 0.0
H1461 H 0.54137 0.06622 0.81022 0.0
H1462 H 0.52707 0.08159 0.79578 0.0
H1463 H 0.55951 0.10142 0.80668 0.0
H1464 H 0.50757 0.13969 0.76984 0.0
H1465 H 0.58692 0.18489 0.79458 0.0
H1466 H 0.4751 0.10411 0.81036 0.0
H1467 H 0.48514 0.08434 0.79704 0.0
H1468 H 0.47293 0.10319 0.78461 0.0
H1469 H 0.57092 0.1587 0.84084 0.0
H1470 H 0.59834 0.17546 0.82461 0.0
H1471 H 0.58266 0.14025 0.82766 0.0
C1472 C 0.46675 0.52653 0.00996 0.0
C1473 C 0.44866 0.51546 0.02494 0.0
C1474 C 0.46009 0.53588 0.99364 0.0
C1475 C 0.43463 0.53399 0.99221 0.0
C1476 C 0.41636 0.52309 0.00736 0.0
C1477 C 0.4235 0.51373 0.02349 0.0
C1478 C 0.48001 0.54714 0.9777 0.0
C1479 C 0.38903 0.52073 0.00633 0.0
C1480 C 0.42532 0.57619 0.95539 0.0
C1481 C 0.41262 0.55797 0.94024 0.0
C1482 C 0.43237 0.56861 0.97248 0.0
C1483 C 0.42669 0.54224 0.97443 0.0
C1484 C 0.41383 0.52375 0.95924 0.0
C1485 C 0.4069 0.53182 0.94236 0.0
C1486 C 0.44596 0.58882 0.98843 0.0
C1487 C 0.40754 0.49547 0.96076 0.0
H1488 H 0.48599 0.5274 0.01089 0.0
H1489 H 0.40925 0.50467 0.03485 0.0
H1490 H 0.4715 0.5347 0.96457 0.0
H1491 H 0.48403 0.56727 0.97428 0.0
H1492 H 0.49936 0.54822 0.98139 0.0
H1493 H 0.37781 0.51323 0.01978 0.0
H1494 H 0.39106 0.54024 0.00333 0.0
H1495 H 0.37702 0.50709 0.99441 0.0
H1496 H 0.42974 0.5964 0.95392 0.0
H1497 H 0.39711 0.51758 0.93076 0.0
H1498 H 0.466 0.59129 0.9917 0.0
H1499 H 0.43406 0.58187 0.00163 0.0
H1500 H 0.44852 0.60839 0.9848 0.0
H1501 H 0.42634 0.49494 0.96319 0.0
H1502 H 0.39725 0.48349 0.9477 0.0
H1503 H 0.39457 0.48608 0.97319 0.0
C1504 C 0.83212 0.37193 0.2263 0.0
C1505 C 0.86243 0.36857 0.22928 0.0
C1506 C 0.82866 0.38339 0.20325 0.0
C1507 C 0.85025 0.38577 0.18391 0.0
C1508 C 0.8747 0.37518 0.18625 0.0
C1509 C 0.87973 0.36338 0.20872 0.0
C1510 C 0.80772 0.3909 0.20011 0.0
C1511 C 0.89096 0.37628 0.16949 0.0
C1512 C 0.82092 0.3822 0.13463 0.0
C1513 C 0.83314 0.40901 0.12999 0.0
C1514 C 0.82676 0.37436 0.15208 0.0
C1515 C 0.84545 0.39371 0.16505 0.0
C1516 C 0.85844 0.42067 0.16025 0.0
C1517 C 0.85207 0.42805 0.1428 0.0
C1518 C 0.81232 0.34541 0.15688 0.0
C1519 C 0.8787 0.44174 0.1737 0.0
H1520 H 0.82094 0.37259 0.23841 0.0
H1521 H 0.89567 0.35889 0.21075 0.0
H1522 H 0.8174 0.41164 0.19531 0.0
H1523 H 0.79369 0.37822 0.18853 0.0
H1524 H 0.79654 0.3887 0.21342 0.0
H1525 H 0.90617 0.37081 0.17365 0.0
H1526 H 0.87749 0.36254 0.15811 0.0
H1527 H 0.9009 0.39651 0.16365 0.0
H1528 H 0.80621 0.36735 0.12488 0.0
H1529 H 0.86174 0.44879 0.1393 0.0
H1530 H 0.80008 0.3422 0.16979 0.0
H1531 H 0.82709 0.33906 0.16029 0.0
H1532 H 0.79893 0.33272 0.14501 0.0
H1533 H 0.86872 0.44203 0.18711 0.0
H1534 H 0.88815 0.46172 0.16742 0.0
H1535 H 0.89467 0.43714 0.1775 0.0
loop_
_geom_bond_atom_site_label_1
_geom_bond_atom_site_label_2
_geom_bond_distance
_geom_bond_site_symmetry_2
_ccdc_geom_bond_type
C0 C1 1.560 . S
C0 H61 0.959 . S
C0 H62 0.959 . S
C0 H63 0.960 . S
C1 C0 1.560 . S
C1 O56 1.426 . S
C1 H60 0.980 . S
C2 C3 1.407 . S
C2 C7 1.418 . S
C2 O56 1.334 . S
C3 C2 1.407 . S
C3 C4 1.360 . S
C3 H64 0.929 . S
C4 C3 1.360 . S
C4 C5 1.401 . S
C4 C8 1.527 . S
C5 C4 1.401 . S
C5 C6 1.405 . S
C5 C38 1.587 . S
C6 C5 1.405 . S
C6 C7 1.332 . S
C6 C9 1.496 . S
C7 C2 1.418 . S
C7 C6 1.332 . S
C7 H65 0.929 . S
C8 C4 1.527 . S
C8 H66 0.959 . S
C8 H67 0.961 . S
C8 H68 0.961 . S
C9 C6 1.496 . S
C9 H69 0.960 . S
C9 H70 0.960 . S
C9 H71 0.961 . S
C10 C11 1.517 . S
C10 H73 0.961 . S
C10 H74 0.960 . S
C10 H75 0.959 . S
C11 C10 1.517 . S
C11 O59 1.468 . S
C11 H72 0.980 . S
C12 C13 1.349 . S
C12 C17 1.367 . S
C12 O59 1.408 . S
C13 C12 1.349 . S
C13 C14 1.407 . S
C13 H76 0.930 . S
C14 C13 1.407 . S
C14 C15 1.449 . S
C14 C18 1.535 . S
C15 C14 1.449 . S
C15 C16 1.384 . S
C15 C40 1.553 1_655 S
C16 C15 1.384 . S
C16 C17 1.364 . S
C16 C19 1.450 . S
C17 C12 1.367 . S
C17 C16 1.364 . S
C17 H77 0.931 . S
C18 C14 1.535 . S
C18 H78 0.959 1_655 S
C18 H79 0.960 1_655 S
C18 H80 0.959 . S
C19 C16 1.450 . S
C19 H81 0.960 . S
C19 H82 0.960 1_655 S
C19 H83 0.960 . S
C20 C21 1.309 . S
C20 C25 1.304 . S
C20 O58 1.435 . S
C21 C20 1.309 . S
C21 C22 1.476 . S
C21 H85 0.930 . S
C22 C21 1.476 . S
C22 C23 1.400 . S
C22 C26 1.567 . S
C23 C22 1.400 . S
C23 C24 1.373 . S
C23 C45 1.432 . S
C24 C23 1.373 . S
C24 C25 1.339 . S
C24 C27 1.530 . S
C25 C20 1.304 . S
C25 C24 1.339 . S
C25 H86 0.930 . S
C26 C22 1.567 . S
C26 H87 0.961 . S
C26 H88 0.960 . S
C26 H89 0.958 . S
C27 C24 1.530 . S
C27 H90 0.961 . S
C27 H91 0.960 . S
C27 H92 0.960 . S
C28 C29 1.530 . S
C28 H94 0.961 . S
C28 H95 0.961 . S
C28 H96 0.959 . S
C29 C28 1.530 . S
C29 O57 1.412 . S
C29 H93 0.980 . S
C30 C31 1.288 . S
C30 C35 1.377 . S
C30 O57 1.393 . S
C31 C30 1.288 . S
C31 C32 1.369 . S
C31 H97 0.932 . S
C32 C31 1.369 . S
C32 C33 1.398 . S
C32 C36 1.527 . S
C33 C32 1.398 . S
C33 C34 1.380 . S
C33 C47 1.497 . S
C34 C33 1.380 . S
C34 C35 1.383 . S
C34 C37 1.603 . S
C35 C30 1.377 . S
C35 C34 1.383 . S
C35 H98 0.929 . S
C36 C32 1.527 . S
C36 H99 0.961 . S
C36 H100 0.933 1_455 S
C36 H101 0.959 . S
C37 C34 1.603 . S
C37 H102 0.960 . S
C37 H103 0.962 . S
C37 H104 0.961 . S
C38 C5 1.587 . S
C38 C39 1.360 . S
C38 C51 1.412 . S
C39 C38 1.360 . S
C39 C40 1.365 . S
C39 H105 0.929 . S
C40 C15 1.553 1_455 S
C40 C39 1.365 . S
C40 C41 1.422 . S
C41 C40 1.422 . S
C41 C42 1.360 1_455 S
C41 C52 1.471 . S
C42 C41 1.360 1_655 S
C42 C43 1.322 . S
C42 H106 0.930 . S
C43 C42 1.322 . S
C43 C44 1.459 . S
C43 H107 0.929 . S
C44 C43 1.459 . S
C44 C45 1.445 . S
C44 C53 1.395 1_655 S
C45 C23 1.432 . S
C45 C44 1.445 . S
C45 C46 1.370 . S
C46 C45 1.370 . S
C46 C47 1.438 1_655 S
C46 H108 0.930 . S
C47 C33 1.497 . S
C47 C46 1.438 1_455 S
C47 C48 1.360 . S
C48 C47 1.360 . S
C48 C49 1.401 . S
C48 C53 1.446 . S
C49 C48 1.401 . S
C49 C50 1.347 . S
C49 H109 0.929 . S
C50 C49 1.347 . S
C50 C51 1.455 . S
C50 H110 0.930 . S
C51 C38 1.412 . S
C51 C50 1.455 . S
C51 C52 1.331 . S
C52 C41 1.471 . S
C52 C51 1.331 . S
C52 C53 1.497 . S
C53 C44 1.395 1_455 S
C53 C48 1.446 . S
C53 C52 1.497 . S
C54 C55 1.582 . S
C54 H111 0.962 . S
C54 H112 0.959 . S
C54 H113 0.958 . S
C55 C54 1.582 . S
C55 O58 1.458 . S
C55 H84 0.980 . S
O56 C1 1.426 . S
O56 C2 1.334 . S
O57 C29 1.412 . S
O57 C30 1.393 . S
O58 C20 1.435 . S
O58 C55 1.458 . S
O59 C11 1.468 . S
O59 C12 1.408 . S
H60 C1 0.980 . S
H61 C0 0.959 . S
H62 C0 0.959 . S
H63 C0 0.960 . S
H64 C3 0.929 . S
H65 C7 0.929 . S
H66 C8 0.959 . S
H67 C8 0.961 . S
H68 C8 0.961 . S
H69 C9 0.960 . S
H70 C9 0.960 . S
H71 C9 0.961 . S
H72 C11 0.980 . S
H73 C10 0.961 . S
H74 C10 0.960 . S
H75 C10 0.959 . S
H76 C13 0.930 . S
H77 C17 0.931 . S
H78 C18 0.959 1_455 S
H79 C18 0.960 1_455 S
H80 C18 0.959 . S
H81 C19 0.960 . S
H82 C19 0.960 1_455 S
H83 C19 0.960 . S
H84 C55 0.980 . S
H85 C21 0.930 . S
H86 C25 0.930 . S
H87 C26 0.961 . S
H88 C26 0.960 . S
H89 C26 0.958 . S
H90 C27 0.961 . S
H91 C27 0.960 . S
H92 C27 0.960 . S
H93 C29 0.980 . S
H94 C28 0.961 . S
H95 C28 0.961 . S
H96 C28 0.959 . S
H97 C31 0.932 . S
H98 C35 0.929 . S
H99 C36 0.961 . S
H100 C36 0.933 1_655 S
H101 C36 0.959 . S
H102 C37 0.960 . S
H103 C37 0.962 . S
H104 C37 0.961 . S
H105 C39 0.929 . S
H106 C42 0.930 . S
H107 C43 0.929 . S
H108 C46 0.930 . S
H109 C49 0.929 . S
H110 C50 0.930 . S
H111 C54 0.962 . S
H112 C54 0.959 . S
H113 C54 0.958 . S
C114 C115 1.560 . S
C114 H175 0.959 . S
C114 H176 0.959 . S
C114 H177 0.960 . S
C115 C114 1.560 . S
C115 O170 1.426 . S
C115 H174 0.980 . S
C116 C117 1.407 . S
C116 C121 1.418 . S
C116 O170 1.334 . S
C117 C116 1.407 . S
C117 C118 1.360 . S
C117 H178 0.929 . S
C118 C117 1.360 . S
C118 C119 1.401 . S
C118 C122 1.527 . S
C119 C118 1.401 . S
C119 C120 1.405 . S
C119 C152 1.587 . S
C120 C119 1.405 . S
C120 C121 1.332 . S
C120 C123 1.496 . S
C121 C116 1.418 . S
C121 C120 1.332 . S
C121 H179 0.929 . S
C122 C118 1.527 . S
C122 H180 0.959 . S
C122 H181 0.961 . S
C122 H182 0.961 . S
C123 C120 1.496 . S
C123 H183 0.960 . S
C123 H184 0.960 . S
C123 H185 0.961 . S
C124 C125 1.517 . S
C124 H187 0.961 . S
C124 H188 0.960 . S
C124 H189 0.959 . S
C125 C124 1.517 . S
C125 O173 1.468 . S
C125 H186 0.980 . S
C126 C127 1.349 . S
C126 C131 1.367 . S
C126 O173 1.408 . S
C127 C126 1.349 . S
C127 C128 1.407 . S
C127 H190 0.930 . S
C128 C127 1.407 . S
C128 C129 1.449 . S
C128 C132 1.535 . S
C129 C128 1.449 . S
C129 C130 1.384 . S
C129 C154 1.553 . S
C130 C129 1.384 . S
C130 C131 1.364 . S
C130 C133 1.450 . S
C131 C126 1.367 . S
C131 C130 1.364 . S
C131 H191 0.931 . S
C132 C128 1.535 . S
C132 H192 0.959 . S
C132 H193 0.961 . S
C132 H194 0.959 . S
C133 C130 1.450 . S
C133 H195 0.960 . S
C133 H196 0.960 . S
C133 H197 0.960 . S
C134 C135 1.309 . S
C134 C139 1.304 . S
C134 O172 1.435 . S
C135 C134 1.309 . S
C135 C136 1.476 . S
C135 H199 0.930 . S
C136 C135 1.476 . S
C136 C137 1.400 . S
C136 C140 1.567 . S
C137 C136 1.400 . S
C137 C138 1.373 . S
C137 C159 1.432 . S
C138 C137 1.373 . S
C138 C139 1.339 . S
C138 C141 1.530 . S
C139 C134 1.304 . S
C139 C138 1.339 . S
C139 H200 0.930 . S
C140 C136 1.567 . S
C140 H201 0.961 . S
C140 H202 0.960 . S
C140 H203 0.958 . S
C141 C138 1.530 . S
C141 H204 0.961 . S
C141 H205 0.960 . S
C141 H206 0.960 . S
C142 C143 1.530 . S
C142 H208 0.961 . S
C142 H209 0.961 . S
C142 H210 0.959 . S
C143 C142 1.530 . S
C143 O171 1.412 . S
C143 H207 0.980 . S
C144 C145 1.288 . S
C144 C149 1.377 . S
C144 O171 1.393 . S
C145 C144 1.288 . S
C145 C146 1.369 . S
C145 H211 0.932 . S
C146 C145 1.369 . S
C146 C147 1.398 . S
C146 C150 1.527 . S
C147 C146 1.398 . S
C147 C148 1.380 . S
C147 C161 1.514 . S
C148 C147 1.380 . S
C148 C149 1.383 . S
C148 C151 1.603 . S
C149 C144 1.377 . S
C149 C148 1.383 . S
C149 H212 0.929 . S
C150 C146 1.527 . S
C150 H213 0.961 . S
C150 H214 0.959 1_565 S
C150 H215 0.959 . S
C151 C148 1.603 . S
C151 H216 0.960 . S
C151 H217 0.962 . S
C151 H218 0.961 . S
C152 C119 1.587 . S
C152 C153 1.360 . S
C152 C165 1.412 . S
C153 C152 1.360 . S
C153 C154 1.365 1_565 S
C153 H219 0.929 . S
C154 C129 1.553 . S
C154 C153 1.365 1_545 S
C154 C155 1.404 . S
C155 C154 1.404 . S
C155 C156 1.395 . S
C155 C166 1.451 1_545 S
C156 C155 1.395 . S
C156 C157 1.322 . S
C156 H220 0.930 . S
C157 C156 1.322 . S
C157 C158 1.459 . S
C157 H221 0.929 . S
C158 C157 1.459 . S
C158 C159 1.445 . S
C158 C167 1.395 . S
C159 C137 1.432 . S
C159 C158 1.445 . S
C159 C160 1.370 . S
C160 C159 1.370 . S
C160 C161 1.402 1_545 S
C160 H222 0.930 . S
C161 C147 1.514 . S
C161 C160 1.402 1_565 S
C161 C162 1.377 . S
C162 C161 1.377 . S
C162 C163 1.401 . S
C162 C167 1.446 1_565 S
C163 C162 1.401 . S
C163 C164 1.347 . S
C163 H223 0.929 . S
C164 C163 1.347 . S
C164 C165 1.455 . S
C164 H224 0.930 . S
C165 C152 1.412 . S
C165 C164 1.455 . S
C165 C166 1.331 . S
C166 C155 1.451 1_565 S
C166 C165 1.331 . S
C166 C167 1.497 1_565 S
C167 C158 1.395 . S
C167 C162 1.446 1_545 S
C167 C166 1.497 1_545 S
C168 C169 1.582 . S
C168 H225 0.962 . S
C168 H226 0.959 . S
C168 H227 0.958 . S
C169 C168 1.582 . S
C169 O172 1.458 . S
C169 H198 0.980 . S
O170 C115 1.426 . S
O170 C116 1.334 . S
O171 C143 1.412 . S
O171 C144 1.393 . S
O172 C134 1.435 . S
O172 C169 1.458 . S
O173 C125 1.468 . S
O173 C126 1.408 . S
H174 C115 0.980 . S
H175 C114 0.959 . S
H176 C114 0.959 . S
H177 C114 0.960 . S
H178 C117 0.929 . S
H179 C121 0.929 . S
H180 C122 0.959 . S
H181 C122 0.961 . S
H182 C122 0.961 . S
H183 C123 0.960 . S
H184 C123 0.960 . S
H185 C123 0.961 . S
H186 C125 0.980 . S
H187 C124 0.961 . S
H188 C124 0.960 . S
H189 C124 0.959 . S
H190 C127 0.930 . S
H191 C131 0.931 . S
H192 C132 0.959 . S
H193 C132 0.961 . S
H194 C132 0.959 . S
H195 C133 0.960 . S
H196 C133 0.960 . S
H197 C133 0.960 . S
H198 C169 0.980 . S
H199 C135 0.930 . S
H200 C139 0.930 . S
H201 C140 0.961 . S
H202 C140 0.960 . S
H203 C140 0.958 . S
H204 C141 0.961 . S
H205 C141 0.960 . S
H206 C141 0.960 . S
H207 C143 0.980 . S
H208 C142 0.961 . S
H209 C142 0.961 . S
H210 C142 0.959 . S
H211 C145 0.932 . S
H212 C149 0.929 . S
H213 C150 0.961 . S
H214 C150 0.959 1_545 S
H215 C150 0.959 . S
H216 C151 0.960 . S
H217 C151 0.962 . S
H218 C151 0.961 . S
H219 C153 0.929 . S
H220 C156 0.930 . S
H221 C157 0.929 . S
H222 C160 0.930 . S
H223 C163 0.929 . S
H224 C164 0.930 . S
H225 C168 0.962 . S
H226 C168 0.959 . S
H227 C168 0.958 . S
C228 C229 1.560 . S
C228 H289 0.959 . S
C228 H290 0.959 . S
C228 H291 0.960 . S
C229 C228 1.560 . S
C229 O284 1.426 . S
C229 H288 0.980 . S
C230 C231 1.407 . S
C230 C235 1.418 . S
C230 O284 1.334 . S
C231 C230 1.407 . S
C231 C232 1.360 . S
C231 H292 0.929 . S
C232 C231 1.360 . S
C232 C233 1.401 . S
C232 C236 1.527 . S
C233 C232 1.401 . S
C233 C234 1.405 . S
C233 C266 1.587 . S
C234 C233 1.405 . S
C234 C235 1.332 . S
C234 C237 1.496 . S
C235 C230 1.418 . S
C235 C234 1.332 . S
C235 H293 0.929 . S
C236 C232 1.527 . S
C236 H294 0.959 . S
C236 H295 0.961 . S
C236 H296 0.961 . S
C237 C234 1.496 . S
C237 H297 0.960 . S
C237 H298 0.960 . S
C237 H299 0.961 . S
C238 C239 1.517 . S
C238 H301 0.961 . S
C238 H302 0.960 . S
C238 H303 0.959 . S
C239 C238 1.517 . S
C239 O287 1.468 . S
C239 H300 0.980 . S
C240 C241 1.349 . S
C240 C245 1.367 . S
C240 O287 1.408 . S
C241 C240 1.349 . S
C241 C242 1.407 . S
C241 H304 0.930 . S
C242 C241 1.407 . S
C242 C243 1.449 . S
C242 C246 1.535 . S
C243 C242 1.449 . S
C243 C244 1.384 . S
C243 C268 1.553 . S
C244 C243 1.384 . S
C244 C245 1.364 . S
C244 C247 1.450 . S
C245 C240 1.367 . S
C245 C244 1.364 . S
C245 H305 0.931 . S
C246 C242 1.535 . S
C246 H306 0.959 . S
C246 H307 0.961 . S
C246 H308 0.959 . S
C247 C244 1.450 . S
C247 H309 0.960 . S
C247 H310 0.960 . S
C247 H311 0.960 . S
C248 C249 1.309 . S
C248 C253 1.304 . S
C248 O286 1.435 . S
C249 C248 1.309 . S
C249 C250 1.476 . S
C249 H313 0.930 . S
C250 C249 1.476 . S
C250 C251 1.400 . S
C250 C254 1.567 . S
C251 C250 1.400 . S
C251 C252 1.373 . S
C251 C273 1.432 . S
C252 C251 1.373 . S
C252 C253 1.339 . S
C252 C255 1.530 . S
C253 C248 1.304 . S
C253 C252 1.339 . S
C253 H314 0.930 . S
C254 C250 1.567 . S
C254 H315 0.961 . S
C254 H316 0.960 . S
C254 H317 0.958 . S
C255 C252 1.530 . S
C255 H318 0.961 . S
C255 H319 0.960 . S
C255 H320 0.960 . S
C256 C257 1.530 . S
C256 H322 0.961 . S
C256 H323 0.961 . S
C256 H324 0.959 . S
C257 C256 1.530 . S
C257 O285 1.412 . S
C257 H321 0.980 . S
C258 C259 1.288 . S
C258 C263 1.377 . S
C258 O285 1.393 . S
C259 C258 1.288 . S
C259 C260 1.369 . S
C259 H325 0.932 . S
C260 C259 1.369 . S
C260 C261 1.398 . S
C260 C264 1.527 . S
C261 C260 1.398 . S
C261 C262 1.380 . S
C261 C275 1.497 . S
C262 C261 1.380 . S
C262 C263 1.383 . S
C262 C265 1.603 . S
C263 C258 1.377 . S
C263 C262 1.383 . S
C263 H326 0.929 . S
C264 C260 1.527 . S
C264 H327 0.961 . S
C264 H328 0.959 . S
C264 H329 0.959 . S
C265 C262 1.603 . S
C265 H330 0.960 . S
C265 H331 0.962 . S
C265 H332 0.961 . S
C266 C233 1.587 . S
C266 C267 1.360 . S
C266 C279 1.412 . S
C267 C266 1.360 . S
C267 C268 1.365 . S
C267 H333 0.929 . S
C268 C243 1.553 . S
C268 C267 1.365 . S
C268 C269 1.404 . S
C269 C268 1.404 . S
C269 C270 1.395 . S
C269 C280 1.451 . S
C270 C269 1.395 . S
C270 C271 1.322 . S
C270 H334 0.930 . S
C271 C270 1.322 . S
C271 C272 1.459 . S
C271 H335 0.929 . S
C272 C271 1.459 . S
C272 C273 1.445 . S
C272 C281 1.395 . S
C273 C251 1.432 . S
C273 C272 1.445 . S
C273 C274 1.370 . S
C274 C273 1.370 . S
C274 C275 1.438 . S
C274 H336 0.930 . S
C275 C261 1.497 . S
C275 C274 1.438 . S
C275 C276 1.360 . S
C276 C275 1.360 . S
C276 C277 1.401 . S
C276 C281 1.446 . S
C277 C276 1.401 . S
C277 C278 1.347 . S
C277 H337 0.929 . S
C278 C277 1.347 . S
C278 C279 1.455 . S
C278 H338 0.930 . S
C279 C266 1.412 . S
C279 C278 1.455 . S
C279 C280 1.331 . S
C280 C269 1.451 . S
C280 C279 1.331 . S
C280 C281 1.497 . S
C281 C272 1.395 . S
C281 C276 1.446 . S
C281 C280 1.497 . S
C282 C283 1.582 . S
C282 H339 0.962 . S
C282 H340 0.959 . S
C282 H341 0.958 . S
C283 C282 1.582 . S
C283 O286 1.458 . S
C283 H312 0.980 . S
O284 C229 1.426 . S
O284 C230 1.334 . S
O285 C257 1.412 . S
O285 C258 1.393 . S
O286 C248 1.435 . S
O286 C283 1.458 . S
O287 C239 1.468 . S
O287 C240 1.408 . S
H288 C229 0.980 . S
H289 C228 0.959 . S
H290 C228 0.959 . S
H291 C228 0.960 . S
H292 C231 0.929 . S
H293 C235 0.929 . S
H294 C236 0.959 . S
H295 C236 0.961 . S
H296 C236 0.961 . S
H297 C237 0.960 . S
H298 C237 0.960 . S
H299 C237 0.961 . S
H300 C239 0.980 . S
H301 C238 0.961 . S
H302 C238 0.960 . S
H303 C238 0.959 . S
H304 C241 0.930 . S
H305 C245 0.931 . S
H306 C246 0.959 . S
H307 C246 0.961 . S
H308 C246 0.959 . S
H309 C247 0.960 . S
H310 C247 0.960 . S
H311 C247 0.960 . S
H312 C283 0.980 . S
H313 C249 0.930 . S
H314 C253 0.930 . S
H315 C254 0.961 . S
H316 C254 0.960 . S
H317 C254 0.958 . S
H318 C255 0.961 . S
H319 C255 0.960 . S
H320 C255 0.960 . S
H321 C257 0.980 . S
H322 C256 0.961 . S
H323 C256 0.961 . S
H324 C256 0.959 . S
H325 C259 0.932 . S
H326 C263 0.929 . S
H327 C264 0.961 . S
H328 C264 0.959 . S
H329 C264 0.959 . S
H330 C265 0.960 . S
H331 C265 0.962 . S
H332 C265 0.961 . S
H333 C267 0.929 . S
H334 C270 0.930 . S
H335 C271 0.929 . S
H336 C274 0.930 . S
H337 C277 0.929 . S
H338 C278 0.930 . S
H339 C282 0.962 . S
H340 C282 0.959 . S
H341 C282 0.958 . S
C342 C343 1.560 . S
C342 H403 0.959 . S
C342 H404 0.959 . S
C342 H405 0.960 . S
C343 C342 1.560 . S
C343 O398 1.426 . S
C343 H402 0.980 . S
C344 C345 1.407 . S
C344 C349 1.418 . S
C344 O398 1.334 . S
C345 C344 1.407 . S
C345 C346 1.360 . S
C345 H406 0.929 . S
C346 C345 1.360 . S
C346 C347 1.401 . S
C346 C350 1.527 . S
C347 C346 1.401 . S
C347 C348 1.405 . S
C347 C380 1.587 . S
C348 C347 1.405 . S
C348 C349 1.332 . S
C348 C351 1.496 . S
C349 C344 1.418 . S
C349 C348 1.332 . S
C349 H407 0.929 . S
C350 C346 1.527 . S
C350 H408 0.959 . S
C350 H409 0.961 . S
C350 H410 0.961 . S
C351 C348 1.496 . S
C351 H411 0.960 . S
C351 H412 0.960 . S
C351 H413 0.961 . S
C352 C353 1.517 . S
C352 H415 0.961 . S
C352 H416 0.960 . S
C352 H417 0.959 . S
C353 C352 1.517 . S
C353 O401 1.468 . S
C353 H414 0.980 . S
C354 C355 1.349 . S
C354 C359 1.367 . S
C354 O401 1.408 . S
C355 C354 1.349 . S
C355 C356 1.407 . S
C355 H418 0.930 . S
C356 C355 1.407 . S
C356 C357 1.442 . S
C356 C360 1.510 1_655 S
C357 C356 1.442 . S
C357 C358 1.417 . S
C357 C382 1.528 1_655 S
C358 C357 1.417 . S
C358 C359 1.364 . S
C358 C361 1.450 . S
C359 C354 1.367 . S
C359 C358 1.364 . S
C359 H419 0.931 . S
C360 C356 1.510 1_455 S
C360 H420 0.981 . S
C360 H421 0.980 . S
C360 H422 0.945 1_455 S
C361 C358 1.450 . S
C361 H423 0.960 . S
C361 H424 0.960 1_655 S
C361 H425 0.960 . S
C362 C363 1.309 . S
C362 C367 1.304 . S
C362 O400 1.435 . S
C363 C362 1.309 . S
C363 C364 1.476 . S
C363 H427 0.930 . S
C364 C363 1.476 . S
C364 C365 1.400 . S
C364 C368 1.567 . S
C365 C364 1.400 . S
C365 C366 1.373 . S
C365 C387 1.432 . S
C366 C365 1.373 . S
C366 C367 1.339 . S
C366 C369 1.530 . S
C367 C362 1.304 . S
C367 C366 1.339 . S
C367 H428 0.930 . S
C368 C364 1.567 . S
C368 H429 0.961 . S
C368 H430 0.960 . S
C368 H431 0.958 . S
C369 C366 1.530 . S
C369 H432 0.961 . S
C369 H433 0.960 . S
C369 H434 0.960 . S
C370 C371 1.530 . S
C370 H436 0.961 . S
C370 H437 0.961 . S
C370 H438 0.959 . S
C371 C370 1.530 . S
C371 O399 1.412 . S
C371 H435 0.980 . S
C372 C373 1.288 . S
C372 C377 1.377 . S
C372 O399 1.393 . S
C373 C372 1.288 . S
C373 C374 1.369 . S
C373 H439 0.932 . S
C374 C373 1.369 . S
C374 C375 1.398 . S
C374 C378 1.527 . S
C375 C374 1.398 . S
C375 C376 1.380 . S
C375 C389 1.497 . S
C376 C375 1.380 . S
C376 C377 1.383 . S
C376 C379 1.603 . S
C377 C372 1.377 . S
C377 C376 1.383 . S
C377 H440 0.929 . S
C378 C374 1.527 . S
C378 H441 0.961 . S
C378 H442 0.959 . S
C378 H443 0.959 . S
C379 C376 1.603 . S
C379 H444 0.960 . S
C379 H445 0.962 . S
C379 H446 0.961 . S
C380 C347 1.587 . S
C380 C381 1.360 . S
C380 C393 1.412 . S
C381 C380 1.360 . S
C381 C382 1.365 . S
C381 H447 0.929 . S
C382 C357 1.528 1_455 S
C382 C381 1.365 . S
C382 C383 1.404 . S
C383 C382 1.404 . S
C383 C384 1.395 1_455 S
C383 C394 1.451 . S
C384 C383 1.395 1_655 S
C384 C385 1.322 . S
C384 H448 0.930 . S
C385 C384 1.322 . S
C385 C386 1.459 . S
C385 H449 0.929 . S
C386 C385 1.459 . S
C386 C387 1.445 . S
C386 C395 1.395 1_655 S
C387 C365 1.432 . S
C387 C386 1.445 . S
C387 C388 1.370 . S
C388 C387 1.370 . S
C388 C389 1.438 1_655 S
C388 H450 0.930 . S
C389 C375 1.497 . S
C389 C388 1.438 1_455 S
C389 C390 1.360 . S
C390 C389 1.360 . S
C390 C391 1.401 . S
C390 C395 1.446 . S
C391 C390 1.401 . S
C391 C392 1.347 . S
C391 H451 0.929 . S
C392 C391 1.347 . S
C392 C393 1.455 . S
C392 H452 0.930 . S
C393 C380 1.412 . S
C393 C392 1.455 . S
C393 C394 1.331 . S
C394 C383 1.451 . S
C394 C393 1.331 . S
C394 C395 1.497 . S
C395 C386 1.395 1_455 S
C395 C390 1.446 . S
C395 C394 1.497 . S
C396 C397 1.582 . S
C396 H453 0.962 . S
C396 H454 0.959 . S
C396 H455 0.958 . S
C397 C396 1.582 . S
C397 O400 1.458 . S
C397 H426 0.980 . S
O398 C343 1.426 . S
O398 C344 1.334 . S
O399 C371 1.412 . S
O399 C372 1.393 . S
O400 C362 1.435 . S
O400 C397 1.458 . S
O401 C353 1.468 . S
O401 C354 1.408 . S
H402 C343 0.980 . S
H403 C342 0.959 . S
H404 C342 0.959 . S
H405 C342 0.960 . S
H406 C345 0.929 . S
H407 C349 0.929 . S
H408 C350 0.959 . S
H409 C350 0.961 . S
H410 C350 0.961 . S
H411 C351 0.960 . S
H412 C351 0.960 . S
H413 C351 0.961 . S
H414 C353 0.980 . S
H415 C352 0.961 . S
H416 C352 0.960 . S
H417 C352 0.959 . S
H418 C355 0.930 . S
H419 C359 0.931 . S
H420 C360 0.981 . S
H421 C360 0.980 . S
H422 C360 0.945 1_655 S
H423 C361 0.960 . S
H424 C361 0.960 1_455 S
H425 C361 0.960 . S
H426 C397 0.980 . S
H427 C363 0.930 . S
H428 C367 0.930 . S
H429 C368 0.961 . S
H430 C368 0.960 . S
H431 C368 0.958 . S
H432 C369 0.961 . S
H433 C369 0.960 . S
H434 C369 0.960 . S
H435 C371 0.980 . S
H436 C370 0.961 . S
H437 C370 0.961 . S
H438 C370 0.959 . S
H439 C373 0.932 . S
H440 C377 0.929 . S
H441 C378 0.961 . S
H442 C378 0.959 . S
H443 C378 0.959 . S
H444 C379 0.960 . S
H445 C379 0.962 . S
H446 C379 0.961 . S
H447 C381 0.929 . S
H448 C384 0.930 . S
H449 C385 0.929 . S
H450 C388 0.930 . S
H451 C391 0.929 . S
H452 C392 0.930 . S
H453 C396 0.962 . S
H454 C396 0.959 . S
H455 C396 0.958 . S
C456 C457 1.560 . S
C456 H517 0.959 . S
C456 H518 0.959 . S
C456 H519 0.960 . S
C457 C456 1.560 . S
C457 O512 1.426 . S
C457 H516 0.980 . S
C458 C459 1.407 . S
C458 C463 1.418 . S
C458 O512 1.334 . S
C459 C458 1.407 . S
C459 C460 1.360 . S
C459 H520 0.929 . S
C460 C459 1.360 . S
C460 C461 1.401 . S
C460 C464 1.527 . S
C461 C460 1.401 . S
C461 C462 1.405 . S
C461 C494 1.587 . S
C462 C461 1.405 . S
C462 C463 1.332 . S
C462 C465 1.496 . S
C463 C458 1.418 . S
C463 C462 1.332 . S
C463 H521 0.929 . S
C464 C460 1.527 . S
C464 H522 0.959 . S
C464 H523 0.961 . S
C464 H524 0.961 . S
C465 C462 1.496 . S
C465 H525 0.960 . S
C465 H526 0.960 . S
C465 H527 0.961 . S
C466 C467 1.517 . S
C466 H529 0.961 . S
C466 H530 0.960 . S
C466 H531 0.959 . S
C467 C466 1.517 . S
C467 O515 1.468 . S
C467 H528 0.980 . S
C468 C469 1.349 . S
C468 C473 1.367 . S
C468 O515 1.408 . S
C469 C468 1.349 . S
C469 C470 1.407 . S
C469 H532 0.930 . S
C470 C469 1.407 . S
C470 C471 1.449 . S
C470 C474 1.535 . S
C471 C470 1.449 . S
C471 C472 1.384 . S
C471 C496 1.553 . S
C472 C471 1.384 . S
C472 C473 1.364 . S
C472 C475 1.450 . S
C473 C468 1.367 . S
C473 C472 1.364 . S
C473 H533 0.931 . S
C474 C470 1.535 . S
C474 H534 0.959 . S
C474 H535 0.961 . S
C474 H536 0.959 . S
C475 C472 1.450 . S
C475 H537 0.960 . S
C475 H538 0.960 . S
C475 H539 0.960 . S
C476 C477 1.309 . S
C476 C481 1.304 . S
C476 O514 1.435 . S
C477 C476 1.309 . S
C477 C478 1.476 . S
C477 H541 0.930 . S
C478 C477 1.476 . S
C478 C479 1.400 . S
C478 C482 1.567 . S
C479 C478 1.400 . S
C479 C480 1.373 . S
C479 C501 1.432 . S
C480 C479 1.373 . S
C480 C481 1.339 . S
C480 C483 1.530 . S
C481 C476 1.304 . S
C481 C480 1.339 . S
C481 H542 0.930 . S
C482 C478 1.567 . S
C482 H543 0.961 . S
C482 H544 0.960 . S
C482 H545 0.958 . S
C483 C480 1.530 . S
C483 H546 0.961 . S
C483 H547 0.960 . S
C483 H548 0.960 . S
C484 C485 1.530 . S
C484 H550 0.961 . S
C484 H551 0.961 . S
C484 H552 0.959 . S
C485 C484 1.530 . S
C485 O513 1.412 . S
C485 H549 0.980 . S
C486 C487 1.288 . S
C486 C491 1.377 . S
C486 O513 1.393 . S
C487 C486 1.288 . S
C487 C488 1.369 . S
C487 H553 0.932 . S
C488 C487 1.369 . S
C488 C489 1.398 . S
C488 C492 1.524 1_565 S
C489 C488 1.398 . S
C489 C490 1.380 . S
C489 C503 1.497 1_565 S
C490 C489 1.380 . S
C490 C491 1.383 . S
C490 C493 1.603 . S
C491 C486 1.377 . S
C491 C490 1.383 . S
C491 H554 0.929 . S
C492 C488 1.524 1_545 S
C492 H555 0.961 1_545 S
C492 H556 1.000 . S
C492 H557 0.923 1_545 S
C493 C490 1.603 . S
C493 H558 0.960 . S
C493 H559 0.962 . S
C493 H560 0.961 . S
C494 C461 1.587 . S
C494 C495 1.360 . S
C494 C507 1.412 . S
C495 C494 1.360 . S
C495 C496 1.365 1_565 S
C495 H561 0.929 . S
C496 C471 1.553 . S
C496 C495 1.365 1_545 S
C496 C497 1.404 . S
C497 C496 1.404 . S
C497 C498 1.395 . S
C497 C508 1.451 1_545 S
C498 C497 1.395 . S
C498 C499 1.322 . S
C498 H562 0.930 . S
C499 C498 1.322 . S
C499 C500 1.459 . S
C499 H563 0.929 . S
C500 C499 1.459 . S
C500 C501 1.445 1_556 S
C500 C509 1.395 . S
C501 C479 1.432 . S
C501 C500 1.445 1_554 S
C501 C502 1.370 . S
C502 C501 1.370 . S
C502 C503 1.438 . S
C502 H564 0.930 . S
C503 C489 1.497 1_545 S
C503 C502 1.438 . S
C503 C504 1.360 1_545 S
C504 C503 1.360 1_565 S
C504 C505 1.401 . S
C504 C509 1.446 1_564 S
C505 C504 1.401 . S
C505 C506 1.347 1_554 S
C505 H565 0.929 . S
C506 C505 1.347 1_556 S
C506 C507 1.455 . S
C506 H566 0.930 . S
C507 C494 1.412 . S
C507 C506 1.455 . S
C507 C508 1.331 . S
C508 C497 1.451 1_565 S
C508 C507 1.331 . S
C508 C509 1.497 1_565 S
C509 C500 1.395 . S
C509 C504 1.446 1_546 S
C509 C508 1.497 1_545 S
C510 C511 1.582 . S
C510 H567 0.962 . S
C510 H568 0.959 . S
C510 H569 0.958 . S
C511 C510 1.582 . S
C511 O514 1.458 . S
C511 H540 0.980 . S
O512 C457 1.426 . S
O512 C458 1.334 . S
O513 C485 1.412 . S
O513 C486 1.393 . S
O514 C476 1.435 . S
O514 C511 1.458 . S
O515 C467 1.468 . S
O515 C468 1.408 . S
H516 C457 0.980 . S
H517 C456 0.959 . S
H518 C456 0.959 . S
H519 C456 0.960 . S
H520 C459 0.929 . S
H521 C463 0.929 . S
H522 C464 0.959 . S
H523 C464 0.961 . S
H524 C464 0.961 . S
H525 C465 0.960 . S
H526 C465 0.960 . S
H527 C465 0.961 . S
H528 C467 0.980 . S
H529 C466 0.961 . S
H530 C466 0.960 . S
H531 C466 0.959 . S
H532 C469 0.930 . S
H533 C473 0.931 . S
H534 C474 0.959 . S
H535 C474 0.961 . S
H536 C474 0.959 . S
H537 C475 0.960 . S
H538 C475 0.960 . S
H539 C475 0.960 . S
H540 C511 0.980 . S
H541 C477 0.930 . S
H542 C481 0.930 . S
H543 C482 0.961 . S
H544 C482 0.960 . S
H545 C482 0.958 . S
H546 C483 0.961 . S
H547 C483 0.960 . S
H548 C483 0.960 . S
H549 C485 0.980 . S
H550 C484 0.961 . S
H551 C484 0.961 . S
H552 C484 0.959 . S
H553 C487 0.932 . S
H554 C491 0.929 . S
H555 C492 0.961 1_565 S
H556 C492 1.000 . S
H557 C492 0.923 1_565 S
H558 C493 0.960 . S
H559 C493 0.962 . S
H560 C493 0.961 . S
H561 C495 0.929 . S
H562 C498 0.930 . S
H563 C499 0.929 . S
H564 C502 0.930 . S
H565 C505 0.929 . S
H566 C506 0.930 . S
H567 C510 0.962 . S
H568 C510 0.959 . S
H569 C510 0.958 . S
C570 C571 1.560 . S
C570 H631 0.959 . S
C570 H632 0.959 . S
C570 H633 0.960 . S
C571 C570 1.560 . S
C571 O626 1.426 . S
C571 H630 0.980 . S
C572 C573 1.407 . S
C572 C577 1.418 . S
C572 O626 1.334 . S
C573 C572 1.407 . S
C573 C574 1.360 . S
C573 H634 0.929 . S
C574 C573 1.360 . S
C574 C575 1.401 . S
C574 C578 1.527 . S
C575 C574 1.401 . S
C575 C576 1.405 . S
C575 C608 1.587 . S
C576 C575 1.405 . S
C576 C577 1.332 . S
C576 C579 1.496 . S
C577 C572 1.418 . S
C577 C576 1.332 . S
C577 H635 0.929 . S
C578 C574 1.527 . S
C578 H636 0.959 . S
C578 H637 0.961 . S
C578 H638 0.961 . S
C579 C576 1.496 . S
C579 H639 0.960 . S
C579 H640 0.960 . S
C579 H641 0.961 . S
C580 C581 1.517 . S
C580 H643 0.961 . S
C580 H644 0.960 . S
C580 H645 0.959 . S
C581 C580 1.517 . S
C581 O629 1.468 . S
C581 H642 0.980 . S
C582 C583 1.349 . S
C582 C587 1.367 . S
C582 O629 1.408 . S
C583 C582 1.349 . S
C583 C584 1.407 . S
C583 H646 0.930 . S
C584 C583 1.407 . S
C584 C585 1.449 . S
C584 C588 1.535 . S
C585 C584 1.449 . S
C585 C586 1.384 . S
C585 C610 1.553 . S
C586 C585 1.384 . S
C586 C587 1.364 . S
C586 C589 1.450 . S
C587 C582 1.367 . S
C587 C586 1.364 . S
C587 H647 0.931 . S
C588 C584 1.535 . S
C588 H648 0.959 . S
C588 H649 0.961 . S
C588 H650 0.959 . S
C589 C586 1.450 . S
C589 H651 0.960 . S
C589 H652 0.960 . S
C589 H653 0.960 . S
C590 C591 1.309 . S
C590 C595 1.304 . S
C590 O628 1.435 . S
C591 C590 1.309 . S
C591 C592 1.476 . S
C591 H655 0.930 . S
C592 C591 1.476 . S
C592 C593 1.400 . S
C592 C596 1.567 . S
C593 C592 1.400 . S
C593 C594 1.373 . S
C593 C615 1.432 . S
C594 C593 1.373 . S
C594 C595 1.339 . S
C594 C597 1.530 . S
C595 C590 1.304 . S
C595 C594 1.339 . S
C595 H656 0.930 . S
C596 C592 1.567 . S
C596 H657 0.961 . S
C596 H658 0.960 . S
C596 H659 0.958 . S
C597 C594 1.530 . S
C597 H660 0.961 . S
C597 H661 0.960 . S
C597 H662 0.960 . S
C598 C599 1.530 . S
C598 H664 0.961 . S
C598 H665 0.961 . S
C598 H666 0.959 . S
C599 C598 1.530 . S
C599 O627 1.412 . S
C599 H663 0.980 . S
C600 C601 1.288 . S
C600 C605 1.377 . S
C600 O627 1.393 . S
C601 C600 1.288 . S
C601 C602 1.369 . S
C601 H667 0.932 . S
C602 C601 1.369 . S
C602 C603 1.398 . S
C602 C606 1.527 . S
C603 C602 1.398 . S
C603 C604 1.380 . S
C603 C617 1.497 . S
C604 C603 1.380 . S
C604 C605 1.383 . S
C604 C607 1.603 . S
C605 C600 1.377 . S
C605 C604 1.383 . S
C605 H668 0.929 . S
C606 C602 1.527 . S
C606 H669 0.961 . S
C606 H670 0.959 . S
C606 H671 0.959 . S
C607 C604 1.603 . S
C607 H672 0.960 . S
C607 H673 0.962 . S
C607 H674 0.961 . S
C608 C575 1.587 . S
C608 C609 1.360 . S
C608 C621 1.412 . S
C609 C608 1.360 . S
C609 C610 1.365 . S
C609 H675 0.929 . S
C610 C585 1.553 . S
C610 C609 1.365 . S
C610 C611 1.404 . S
C611 C610 1.404 . S
C611 C612 1.395 . S
C611 C622 1.451 . S
C612 C611 1.395 . S
C612 C613 1.322 . S
C612 H676 0.930 . S
C613 C612 1.322 . S
C613 C614 1.459 . S
C613 H677 0.929 . S
C614 C613 1.459 . S
C614 C615 1.445 . S
C614 C623 1.395 . S
C615 C593 1.432 . S
C615 C614 1.445 . S
C615 C616 1.370 . S
C616 C615 1.370 . S
C616 C617 1.438 . S
C616 H678 0.930 . S
C617 C603 1.497 . S
C617 C616 1.438 . S
C617 C618 1.360 . S
C618 C617 1.360 . S
C618 C619 1.401 . S
C618 C623 1.446 . S
C619 C618 1.401 . S
C619 C620 1.347 . S
C619 H679 0.929 . S
C620 C619 1.347 . S
C620 C621 1.455 . S
C620 H680 0.930 . S
C621 C608 1.412 . S
C621 C620 1.455 . S
C621 C622 1.331 . S
C622 C611 1.451 . S
C622 C621 1.331 . S
C622 C623 1.497 . S
C623 C614 1.395 . S
C623 C618 1.446 . S
C623 C622 1.497 . S
C624 C625 1.582 . S
C624 H681 0.962 . S
C624 H682 0.959 . S
C624 H683 0.958 . S
C625 C624 1.582 . S
C625 O628 1.458 . S
C625 H654 0.980 . S
O626 C571 1.426 . S
O626 C572 1.334 . S
O627 C599 1.412 . S
O627 C600 1.393 . S
O628 C590 1.435 . S
O628 C625 1.458 . S
O629 C581 1.468 . S
O629 C582 1.408 . S
H630 C571 0.980 . S
H631 C570 0.959 . S
H632 C570 0.959 . S
H633 C570 0.960 . S
H634 C573 0.929 . S
H635 C577 0.929 . S
H636 C578 0.959 . S
H637 C578 0.961 . S
H638 C578 0.961 . S
H639 C579 0.960 . S
H640 C579 0.960 . S
H641 C579 0.961 . S
H642 C581 0.980 . S
H643 C580 0.961 . S
H644 C580 0.960 . S
H645 C580 0.959 . S
H646 C583 0.930 . S
H647 C587 0.931 . S
H648 C588 0.959 . S
H649 C588 0.961 . S
H650 C588 0.959 . S
H651 C589 0.960 . S
H652 C589 0.960 . S
H653 C589 0.960 . S
H654 C625 0.980 . S
H655 C591 0.930 . S
H656 C595 0.930 . S
H657 C596 0.961 . S
H658 C596 0.960 . S
H659 C596 0.958 . S
H660 C597 0.961 . S
H661 C597 0.960 . S
H662 C597 0.960 . S
H663 C599 0.980 . S
H664 C598 0.961 . S
H665 C598 0.961 . S
H666 C598 0.959 . S
H667 C601 0.932 . S
H668 C605 0.929 . S
H669 C606 0.961 . S
H670 C606 0.959 . S
H671 C606 0.959 . S
H672 C607 0.960 . S
H673 C607 0.962 . S
H674 C607 0.961 . S
H675 C609 0.929 . S
H676 C612 0.930 . S
H677 C613 0.929 . S
H678 C616 0.930 . S
H679 C619 0.929 . S
H680 C620 0.930 . S
H681 C624 0.962 . S
H682 C624 0.959 . S
H683 C624 0.958 . S
Zn684 O687 2.031 . S
Zn684 O689 2.049 . S
Zn684 O694 2.067 . S
Zn685 O686 1.962 . S
Zn685 O688 1.986 . S
Zn685 O690 1.996 . S
Zn685 O693 1.943 . S
O686 Zn685 1.962 . S
O686 C691 1.254 . S
O687 Zn684 2.031 . S
O687 C691 1.269 . S
O688 Zn685 1.986 . S
O688 C695 1.262 . S
O689 Zn684 2.049 . S
O689 C697 1.260 . S
O690 Zn685 1.996 . S
O690 C697 1.257 . S
C691 O686 1.254 . S
C691 O687 1.269 . S
C692 O693 1.249 . S
C692 O694 1.270 . S
O693 Zn685 1.943 . S
O693 C692 1.249 . S
O694 Zn684 2.067 . S
O694 C692 1.270 . S
C695 O688 1.262 . S
C695 O696 1.232 . S
O696 C695 1.232 . S
C697 O689 1.260 . S
C697 O690 1.257 . S
Zn698 O701 2.031 . S
Zn698 O703 2.049 . S
Zn698 O708 2.067 . S
Zn699 O700 1.962 . S
Zn699 O702 1.986 . S
Zn699 O704 1.996 . S
Zn699 O707 1.943 . S
O700 Zn699 1.962 . S
O700 C705 1.254 . S
O701 Zn698 2.031 . S
O701 C705 1.269 . S
O702 Zn699 1.986 . S
O702 C709 1.262 . S
O703 Zn698 2.049 . S
O703 C711 1.260 . S
O704 Zn699 1.996 . S
O704 C711 1.257 . S
C705 O700 1.254 . S
C705 O701 1.269 . S
C706 O707 1.249 . S
C706 O708 1.270 . S
O707 Zn699 1.943 . S
O707 C706 1.249 . S
O708 Zn698 2.067 . S
O708 C706 1.270 . S
C709 O702 1.262 . S
C709 O710 1.232 . S
O710 C709 1.232 . S
C711 O703 1.260 . S
C711 O704 1.257 . S
Zn712 O715 2.031 . S
Zn712 O717 2.049 . S
Zn712 O722 2.067 . S
Zn713 O714 1.962 . S
Zn713 O716 1.986 . S
Zn713 O718 1.996 . S
Zn713 O721 1.943 . S
O714 Zn713 1.962 . S
O714 C719 1.254 . S
O715 Zn712 2.031 . S
O715 C719 1.269 . S
O716 Zn713 1.986 . S
O716 C723 1.262 . S
O717 Zn712 2.049 . S
O717 C725 1.260 . S
O718 Zn713 1.996 . S
O718 C725 1.257 . S
C719 O714 1.254 . S
C719 O715 1.269 . S
C720 O721 1.249 . S
C720 O722 1.270 . S
O721 Zn713 1.943 . S
O721 C720 1.249 . S
O722 Zn712 2.067 . S
O722 C720 1.270 . S
C723 O716 1.262 . S
C723 O724 1.232 . S
O724 C723 1.232 . S
C725 O717 1.260 . S
C725 O718 1.257 . S
Zn726 O729 2.031 . S
Zn726 O731 2.049 . S
Zn726 O736 2.067 . S
Zn727 O728 1.962 . S
Zn727 O730 1.986 . S
Zn727 O732 1.996 . S
Zn727 O735 1.943 . S
O728 Zn727 1.962 . S
O728 C733 1.254 . S
O729 Zn726 2.031 . S
O729 C733 1.269 . S
O730 Zn727 1.986 . S
O730 C737 1.262 . S
O731 Zn726 2.049 . S
O731 C739 1.260 . S
O732 Zn727 1.996 . S
O732 C739 1.257 . S
C733 O728 1.254 . S
C733 O729 1.269 . S
C734 O735 1.249 . S
C734 O736 1.270 . S
O735 Zn727 1.943 . S
O735 C734 1.249 . S
O736 Zn726 2.067 . S
O736 C734 1.270 . S
C737 O730 1.262 . S
C737 O738 1.232 . S
O738 C737 1.232 . S
C739 O731 1.260 . S
C739 O732 1.257 . S
Zn740 O743 2.031 . S
Zn740 O745 2.049 . S
Zn740 O750 2.067 . S
Zn741 O742 1.962 . S
Zn741 O744 1.986 . S
Zn741 O746 1.996 . S
Zn741 O749 1.943 . S
O742 Zn741 1.962 . S
O742 C747 1.254 . S
O743 Zn740 2.031 . S
O743 C747 1.269 . S
O744 Zn741 1.986 . S
O744 C751 1.262 . S
O745 Zn740 2.049 . S
O745 C753 1.260 . S
O746 Zn741 1.996 . S
O746 C753 1.257 . S
C747 O742 1.254 . S
C747 O743 1.269 . S
C748 O749 1.249 . S
C748 O750 1.270 . S
O749 Zn741 1.943 . S
O749 C748 1.249 . S
O750 Zn740 2.067 . S
O750 C748 1.270 . S
C751 O744 1.262 . S
C751 O752 1.232 . S
O752 C751 1.232 . S
C753 O745 1.260 . S
C753 O746 1.257 . S
Zn754 O757 2.031 . S
Zn754 O759 2.049 . S
Zn754 O764 2.067 . S
Zn755 O756 1.962 . S
Zn755 O758 1.986 . S
Zn755 O760 1.996 . S
Zn755 O763 1.943 . S
O756 Zn755 1.962 . S
O756 C761 1.254 . S
O757 Zn754 2.031 . S
O757 C761 1.269 . S
O758 Zn755 1.986 . S
O758 C765 1.262 . S
O759 Zn754 2.049 . S
O759 C767 1.260 . S
O760 Zn755 1.996 . S
O760 C767 1.257 . S
C761 O756 1.254 . S
C761 O757 1.269 . S
C762 O763 1.249 . S
C762 O764 1.270 . S
O763 Zn755 1.943 . S
O763 C762 1.249 . S
O764 Zn754 2.067 . S
O764 C762 1.270 . S
C765 O758 1.262 . S
C765 O766 1.232 . S
O766 C765 1.232 . S
C767 O759 1.260 . S
C767 O760 1.257 . S
C768 C769 1.391 . S
C768 C770 1.394 . S
C768 H784 0.931 . S
C769 C768 1.391 . S
C769 C773 1.376 . S
C770 C768 1.394 . S
C770 C771 1.369 . S
C770 C774 1.531 . S
C771 C770 1.369 . S
C771 C772 1.410 . S
C771 C779 1.503 . S
C772 C771 1.410 . S
C772 C773 1.392 . S
C772 C775 1.511 . S
C773 C769 1.376 . S
C773 C772 1.392 . S
C773 H785 0.929 . S
C774 C770 1.531 . S
C774 H786 0.960 . S
C774 H787 0.962 . S
C774 H788 0.960 . S
C775 C772 1.511 . S
C775 H789 0.961 . S
C775 H790 0.961 . S
C775 H791 0.961 . S
C776 C777 1.370 . S
C776 C778 1.363 . S
C776 H792 0.931 . S
C777 C776 1.370 . S
C777 C781 1.408 . S
C778 C776 1.363 . S
C778 C779 1.370 . S
C778 C782 1.524 . S
C779 C771 1.503 . S
C779 C778 1.370 . S
C779 C780 1.403 . S
C780 C779 1.403 . S
C780 C781 1.404 . S
C780 C783 1.539 . S
C781 C777 1.408 . S
C781 C780 1.404 . S
C781 H793 0.930 . S
C782 C778 1.524 . S
C782 H794 0.956 . S
C782 H795 0.961 . S
C782 H796 0.961 . S
C783 C780 1.539 . S
C783 H797 0.958 . S
C783 H798 0.961 . S
C783 H799 0.960 . S
H784 C768 0.931 . S
H785 C773 0.929 . S
H786 C774 0.960 . S
H787 C774 0.962 . S
H788 C774 0.960 . S
H789 C775 0.961 . S
H790 C775 0.961 . S
H791 C775 0.961 . S
H792 C776 0.931 . S
H793 C781 0.930 . S
H794 C782 0.956 . S
H795 C782 0.961 . S
H796 C782 0.961 . S
H797 C783 0.958 . S
H798 C783 0.961 . S
H799 C783 0.960 . S
C800 C801 1.391 . S
C800 C802 1.394 . S
C800 H816 0.931 . S
C801 C800 1.391 . S
C801 C805 1.376 . S
C802 C800 1.394 . S
C802 C803 1.369 . S
C802 C806 1.531 . S
C803 C802 1.369 . S
C803 C804 1.410 . S
C803 C811 1.503 . S
C804 C803 1.410 . S
C804 C805 1.392 . S
C804 C807 1.511 . S
C805 C801 1.376 . S
C805 C804 1.392 . S
C805 H817 0.929 . S
C806 C802 1.531 . S
C806 H818 0.960 . S
C806 H819 0.962 . S
C806 H820 0.960 . S
C807 C804 1.511 . S
C807 H821 0.961 . S
C807 H822 0.961 . S
C807 H823 0.961 . S
C808 C809 1.370 . S
C808 C810 1.363 . S
C808 H824 0.931 . S
C809 C808 1.370 . S
C809 C813 1.408 . S
C810 C808 1.363 . S
C810 C811 1.370 . S
C810 C814 1.524 . S
C811 C803 1.503 . S
C811 C810 1.370 . S
C811 C812 1.403 . S
C812 C811 1.403 . S
C812 C813 1.404 . S
C812 C815 1.539 . S
C813 C809 1.408 . S
C813 C812 1.404 . S
C813 H825 0.930 . S
C814 C810 1.524 . S
C814 H826 0.956 . S
C814 H827 0.961 . S
C814 H828 0.961 . S
C815 C812 1.539 . S
C815 H829 0.958 . S
C815 H830 0.961 . S
C815 H831 0.960 . S
H816 C800 0.931 . S
H817 C805 0.929 . S
H818 C806 0.960 . S
H819 C806 0.962 . S
H820 C806 0.960 . S
H821 C807 0.961 . S
H822 C807 0.961 . S
H823 C807 0.961 . S
H824 C808 0.931 . S
H825 C813 0.930 . S
H826 C814 0.956 . S
H827 C814 0.961 . S
H828 C814 0.961 . S
H829 C815 0.958 . S
H830 C815 0.961 . S
H831 C815 0.960 . S
C832 C833 1.391 . S
C832 C834 1.394 . S
C832 H848 0.931 . S
C833 C832 1.391 . S
C833 C837 1.376 . S
C834 C832 1.394 . S
C834 C835 1.369 . S
C834 C838 1.531 . S
C835 C834 1.369 . S
C835 C836 1.410 . S
C835 C843 1.503 . S
C836 C835 1.410 . S
C836 C837 1.392 . S
C836 C839 1.511 . S
C837 C833 1.376 . S
C837 C836 1.392 . S
C837 H849 0.929 . S
C838 C834 1.531 . S
C838 H850 0.960 . S
C838 H851 0.962 . S
C838 H852 0.960 . S
C839 C836 1.511 . S
C839 H853 0.961 . S
C839 H854 0.961 . S
C839 H855 0.961 . S
C840 C841 1.370 . S
C840 C842 1.363 . S
C840 H856 0.931 . S
C841 C840 1.370 . S
C841 C845 1.408 . S
C842 C840 1.363 . S
C842 C843 1.370 . S
C842 C846 1.524 . S
C843 C835 1.503 . S
C843 C842 1.370 . S
C843 C844 1.403 . S
C844 C843 1.403 . S
C844 C845 1.404 . S
C844 C847 1.539 . S
C845 C841 1.408 . S
C845 C844 1.404 . S
C845 H857 0.930 . S
C846 C842 1.524 . S
C846 H858 0.956 . S
C846 H859 0.961 . S
C846 H860 0.961 . S
C847 C844 1.539 . S
C847 H861 0.958 . S
C847 H862 0.961 . S
C847 H863 0.960 . S
H848 C832 0.931 . S
H849 C837 0.929 . S
H850 C838 0.960 . S
H851 C838 0.962 . S
H852 C838 0.960 . S
H853 C839 0.961 . S
H854 C839 0.961 . S
H855 C839 0.961 . S
H856 C840 0.931 . S
H857 C845 0.930 . S
H858 C846 0.956 . S
H859 C846 0.961 . S
H860 C846 0.961 . S
H861 C847 0.958 . S
H862 C847 0.961 . S
H863 C847 0.960 . S
C864 C865 1.391 . S
C864 C866 1.394 . S
C864 H880 0.931 . S
C865 C864 1.391 . S
C865 C869 1.376 . S
C866 C864 1.394 . S
C866 C867 1.369 . S
C866 C870 1.531 . S
C867 C866 1.369 . S
C867 C868 1.410 . S
C867 C875 1.503 . S
C868 C867 1.410 . S
C868 C869 1.392 . S
C868 C871 1.511 . S
C869 C865 1.376 . S
C869 C868 1.392 . S
C869 H881 0.929 . S
C870 C866 1.531 . S
C870 H882 0.960 . S
C870 H883 0.962 . S
C870 H884 0.960 . S
C871 C868 1.511 . S
C871 H885 0.961 . S
C871 H886 0.961 . S
C871 H887 0.961 . S
C872 C873 1.370 . S
C872 C874 1.363 . S
C872 H888 0.931 . S
C873 C872 1.370 . S
C873 C877 1.408 . S
C874 C872 1.363 . S
C874 C875 1.370 . S
C874 C878 1.524 . S
C875 C867 1.503 . S
C875 C874 1.370 . S
C875 C876 1.403 . S
C876 C875 1.403 . S
C876 C877 1.404 . S
C876 C879 1.539 . S
C877 C873 1.408 . S
C877 C876 1.404 . S
C877 H889 0.930 . S
C878 C874 1.524 . S
C878 H890 0.956 . S
C878 H891 0.961 . S
C878 H892 0.961 . S
C879 C876 1.539 . S
C879 H893 0.958 . S
C879 H894 0.961 . S
C879 H895 0.960 . S
H880 C864 0.931 . S
H881 C869 0.929 . S
H882 C870 0.960 . S
H883 C870 0.962 . S
H884 C870 0.960 . S
H885 C871 0.961 . S
H886 C871 0.961 . S
H887 C871 0.961 . S
H888 C872 0.931 . S
H889 C877 0.930 . S
H890 C878 0.956 . S
H891 C878 0.961 . S
H892 C878 0.961 . S
H893 C879 0.958 . S
H894 C879 0.961 . S
H895 C879 0.960 . S
C896 C897 1.391 . S
C896 C898 1.394 . S
C896 H912 0.931 . S
C897 C896 1.391 . S
C897 C901 1.376 . S
C898 C896 1.394 . S
C898 C899 1.369 . S
C898 C902 1.531 . S
C899 C898 1.369 . S
C899 C900 1.410 . S
C899 C907 1.503 . S
C900 C899 1.410 . S
C900 C901 1.392 . S
C900 C903 1.511 . S
C901 C897 1.376 . S
C901 C900 1.392 . S
C901 H913 0.929 . S
C902 C898 1.531 . S
C902 H914 0.960 . S
C902 H915 0.962 . S
C902 H916 0.960 . S
C903 C900 1.511 . S
C903 H917 0.961 . S
C903 H918 0.961 . S
C903 H919 0.961 . S
C904 C905 1.370 . S
C904 C906 1.363 . S
C904 H920 0.931 . S
C905 C904 1.370 . S
C905 C909 1.408 . S
C906 C904 1.363 . S
C906 C907 1.370 . S
C906 C910 1.524 . S
C907 C899 1.503 . S
C907 C906 1.370 . S
C907 C908 1.403 . S
C908 C907 1.403 . S
C908 C909 1.404 . S
C908 C911 1.539 . S
C909 C905 1.408 . S
C909 C908 1.404 . S
C909 H921 0.930 . S
C910 C906 1.524 . S
C910 H922 0.956 . S
C910 H923 0.961 . S
C910 H924 0.961 . S
C911 C908 1.539 . S
C911 H925 0.958 . S
C911 H926 0.961 . S
C911 H927 0.960 . S
H912 C896 0.931 . S
H913 C901 0.929 . S
H914 C902 0.960 . S
H915 C902 0.962 . S
H916 C902 0.960 . S
H917 C903 0.961 . S
H918 C903 0.961 . S
H919 C903 0.961 . S
H920 C904 0.931 . S
H921 C909 0.930 . S
H922 C910 0.956 . S
H923 C910 0.961 . S
H924 C910 0.961 . S
H925 C911 0.958 . S
H926 C911 0.961 . S
H927 C911 0.960 . S
C928 C929 1.391 . S
C928 C930 1.394 . S
C928 H944 0.931 . S
C929 C928 1.391 . S
C929 C933 1.376 . S
C930 C928 1.394 . S
C930 C931 1.369 . S
C930 C934 1.531 . S
C931 C930 1.369 . S
C931 C932 1.410 . S
C931 C939 1.503 . S
C932 C931 1.410 . S
C932 C933 1.392 . S
C932 C935 1.511 . S
C933 C929 1.376 . S
C933 C932 1.392 . S
C933 H945 0.929 . S
C934 C930 1.531 . S
C934 H946 0.960 . S
C934 H947 0.962 . S
C934 H948 0.960 . S
C935 C932 1.511 . S
C935 H949 0.961 . S
C935 H950 0.961 . S
C935 H951 0.961 . S
C936 C937 1.370 . S
C936 C938 1.363 . S
C936 H952 0.931 . S
C937 C936 1.370 . S
C937 C941 1.408 . S
C938 C936 1.363 . S
C938 C939 1.370 . S
C938 C942 1.524 . S
C939 C931 1.503 . S
C939 C938 1.370 . S
C939 C940 1.403 . S
C940 C939 1.403 . S
C940 C941 1.404 . S
C940 C943 1.539 . S
C941 C937 1.408 . S
C941 C940 1.404 . S
C941 H953 0.930 . S
C942 C938 1.524 . S
C942 H954 0.956 . S
C942 H955 0.961 . S
C942 H956 0.961 . S
C943 C940 1.539 . S
C943 H957 0.958 . S
C943 H958 0.961 . S
C943 H959 0.960 . S
H944 C928 0.931 . S
H945 C933 0.929 . S
H946 C934 0.960 . S
H947 C934 0.962 . S
H948 C934 0.960 . S
H949 C935 0.961 . S
H950 C935 0.961 . S
H951 C935 0.961 . S
H952 C936 0.931 . S
H953 C941 0.930 . S
H954 C942 0.956 . S
H955 C942 0.961 . S
H956 C942 0.961 . S
H957 C943 0.958 . S
H958 C943 0.961 . S
H959 C943 0.960 . S
C960 C961 1.391 . S
C960 C962 1.394 . S
C960 H976 0.931 . S
C961 C960 1.391 . S
C961 C965 1.376 . S
C962 C960 1.394 . S
C962 C963 1.369 . S
C962 C966 1.531 . S
C963 C962 1.369 . S
C963 C964 1.410 . S
C963 C971 1.503 . S
C964 C963 1.410 . S
C964 C965 1.392 . S
C964 C967 1.511 . S
C965 C961 1.376 . S
C965 C964 1.392 . S
C965 H977 0.929 . S
C966 C962 1.531 . S
C966 H978 0.960 . S
C966 H979 0.962 . S
C966 H980 0.960 . S
C967 C964 1.511 . S
C967 H981 0.961 . S
C967 H982 0.961 . S
C967 H983 0.961 . S
C968 C969 1.370 . S
C968 C970 1.363 . S
C968 H984 0.931 . S
C969 C968 1.370 . S
C969 C973 1.408 . S
C970 C968 1.363 . S
C970 C971 1.370 . S
C970 C974 1.524 . S
C971 C963 1.503 . S
C971 C970 1.370 . S
C971 C972 1.403 . S
C972 C971 1.403 . S
C972 C973 1.404 . S
C972 C975 1.539 . S
C973 C969 1.408 . S
C973 C972 1.404 . S
C973 H985 0.930 . S
C974 C970 1.524 . S
C974 H986 0.956 . S
C974 H987 0.961 . S
C974 H988 0.961 . S
C975 C972 1.539 . S
C975 H989 0.958 . S
C975 H990 0.961 . S
C975 H991 0.960 . S
H976 C960 0.931 . S
H977 C965 0.929 . S
H978 C966 0.960 . S
H979 C966 0.962 . S
H980 C966 0.960 . S
H981 C967 0.961 . S
H982 C967 0.961 . S
H983 C967 0.961 . S
H984 C968 0.931 . S
H985 C973 0.930 . S
H986 C974 0.956 . S
H987 C974 0.961 . S
H988 C974 0.961 . S
H989 C975 0.958 . S
H990 C975 0.961 . S
H991 C975 0.960 . S
C992 C993 1.391 . S
C992 C994 1.394 . S
C992 H1008 0.931 . S
C993 C992 1.391 . S
C993 C997 1.376 . S
C994 C992 1.394 . S
C994 C995 1.369 . S
C994 C998 1.531 . S
C995 C994 1.369 . S
C995 C996 1.410 . S
C995 C1003 1.503 . S
C996 C995 1.410 . S
C996 C997 1.392 . S
C996 C999 1.511 . S
C997 C993 1.376 . S
C997 C996 1.392 . S
C997 H1009 0.929 . S
C998 C994 1.531 . S
C998 H1010 0.960 . S
C998 H1011 0.962 . S
C998 H1012 0.960 . S
C999 C996 1.511 . S
C999 H1013 0.961 . S
C999 H1014 0.961 . S
C999 H1015 0.961 . S
C1000 C1001 1.370 . S
C1000 C1002 1.363 . S
C1000 H1016 0.931 . S
C1001 C1000 1.370 . S
C1001 C1005 1.408 . S
C1002 C1000 1.363 . S
C1002 C1003 1.370 . S
C1002 C1006 1.524 . S
C1003 C995 1.503 . S
C1003 C1002 1.370 . S
C1003 C1004 1.403 . S
C1004 C1003 1.403 . S
C1004 C1005 1.404 . S
C1004 C1007 1.539 . S
C1005 C1001 1.408 . S
C1005 C1004 1.404 . S
C1005 H1017 0.930 . S
C1006 C1002 1.524 . S
C1006 H1018 0.956 . S
C1006 H1019 0.961 . S
C1006 H1020 0.961 . S
C1007 C1004 1.539 . S
C1007 H1021 0.958 . S
C1007 H1022 0.961 . S
C1007 H1023 0.960 . S
H1008 C992 0.931 . S
H1009 C997 0.929 . S
H1010 C998 0.960 . S
H1011 C998 0.962 . S
H1012 C998 0.960 . S
H1013 C999 0.961 . S
H1014 C999 0.961 . S
H1015 C999 0.961 . S
H1016 C1000 0.931 . S
H1017 C1005 0.930 . S
H1018 C1006 0.956 . S
H1019 C1006 0.961 . S
H1020 C1006 0.961 . S
H1021 C1007 0.958 . S
H1022 C1007 0.961 . S
H1023 C1007 0.960 . S
C1024 C1025 1.391 . S
C1024 C1026 1.394 . S
C1024 H1040 0.931 . S
C1025 C1024 1.391 . S
C1025 C1029 1.376 . S
C1026 C1024 1.394 . S
C1026 C1027 1.369 . S
C1026 C1030 1.531 . S
C1027 C1026 1.369 . S
C1027 C1028 1.410 . S
C1027 C1035 1.503 . S
C1028 C1027 1.410 . S
C1028 C1029 1.392 . S
C1028 C1031 1.511 . S
C1029 C1025 1.376 . S
C1029 C1028 1.392 . S
C1029 H1041 0.929 . S
C1030 C1026 1.531 . S
C1030 H1042 0.960 . S
C1030 H1043 0.962 . S
C1030 H1044 0.960 . S
C1031 C1028 1.511 . S
C1031 H1045 0.961 . S
C1031 H1046 0.961 . S
C1031 H1047 0.961 . S
C1032 C1033 1.370 . S
C1032 C1034 1.363 . S
C1032 H1048 0.931 . S
C1033 C1032 1.370 . S
C1033 C1037 1.408 . S
C1034 C1032 1.363 . S
C1034 C1035 1.370 . S
C1034 C1038 1.524 . S
C1035 C1027 1.503 . S
C1035 C1034 1.370 . S
C1035 C1036 1.403 . S
C1036 C1035 1.403 . S
C1036 C1037 1.404 . S
C1036 C1039 1.539 . S
C1037 C1033 1.408 . S
C1037 C1036 1.404 . S
C1037 H1049 0.930 . S
C1038 C1034 1.524 . S
C1038 H1050 0.956 . S
C1038 H1051 0.961 . S
C1038 H1052 0.961 . S
C1039 C1036 1.539 . S
C1039 H1053 0.958 . S
C1039 H1054 0.961 . S
C1039 H1055 0.960 . S
H1040 C1024 0.931 . S
H1041 C1029 0.929 . S
H1042 C1030 0.960 . S
H1043 C1030 0.962 . S
H1044 C1030 0.960 . S
H1045 C1031 0.961 . S
H1046 C1031 0.961 . S
H1047 C1031 0.961 . S
H1048 C1032 0.931 . S
H1049 C1037 0.930 . S
H1050 C1038 0.956 . S
H1051 C1038 0.961 . S
H1052 C1038 0.961 . S
H1053 C1039 0.958 . S
H1054 C1039 0.961 . S
H1055 C1039 0.960 . S
C1056 C1057 1.391 . S
C1056 C1058 1.394 . S
C1056 H1072 0.931 . S
C1057 C1056 1.391 . S
C1057 C1061 1.376 . S
C1058 C1056 1.394 . S
C1058 C1059 1.369 . S
C1058 C1062 1.531 . S
C1059 C1058 1.369 . S
C1059 C1060 1.410 . S
C1059 C1067 1.503 . S
C1060 C1059 1.410 . S
C1060 C1061 1.392 . S
C1060 C1063 1.511 . S
C1061 C1057 1.376 . S
C1061 C1060 1.392 . S
C1061 H1073 0.929 . S
C1062 C1058 1.531 . S
C1062 H1074 0.960 . S
C1062 H1075 0.962 . S
C1062 H1076 0.960 . S
C1063 C1060 1.511 . S
C1063 H1077 0.961 . S
C1063 H1078 0.961 . S
C1063 H1079 0.961 . S
C1064 C1065 1.370 . S
C1064 C1066 1.363 . S
C1064 H1080 0.931 . S
C1065 C1064 1.370 . S
C1065 C1069 1.408 . S
C1066 C1064 1.363 . S
C1066 C1067 1.370 . S
C1066 C1070 1.524 . S
C1067 C1059 1.503 . S
C1067 C1066 1.370 . S
C1067 C1068 1.403 . S
C1068 C1067 1.403 . S
C1068 C1069 1.404 . S
C1068 C1071 1.539 . S
C1069 C1065 1.408 . S
C1069 C1068 1.404 . S
C1069 H1081 0.930 . S
C1070 C1066 1.524 . S
C1070 H1082 0.956 . S
C1070 H1083 0.961 . S
C1070 H1084 0.961 . S
C1071 C1068 1.539 . S
C1071 H1085 0.958 . S
C1071 H1086 0.961 . S
C1071 H1087 0.960 . S
H1072 C1056 0.931 . S
H1073 C1061 0.929 . S
H1074 C1062 0.960 . S
H1075 C1062 0.962 . S
H1076 C1062 0.960 . S
H1077 C1063 0.961 . S
H1078 C1063 0.961 . S
H1079 C1063 0.961 . S
H1080 C1064 0.931 . S
H1081 C1069 0.930 . S
H1082 C1070 0.956 . S
H1083 C1070 0.961 . S
H1084 C1070 0.961 . S
H1085 C1071 0.958 . S
H1086 C1071 0.961 . S
H1087 C1071 0.960 . S
C1088 C1089 1.391 . S
C1088 C1090 1.394 . S
C1088 H1104 0.931 . S
C1089 C1088 1.391 . S
C1089 C1093 1.376 . S
C1090 C1088 1.394 . S
C1090 C1091 1.369 . S
C1090 C1094 1.531 . S
C1091 C1090 1.369 . S
C1091 C1092 1.410 . S
C1091 C1099 1.503 . S
C1092 C1091 1.410 . S
C1092 C1093 1.392 . S
C1092 C1095 1.511 . S
C1093 C1089 1.376 . S
C1093 C1092 1.392 . S
C1093 H1105 0.929 . S
C1094 C1090 1.531 . S
C1094 H1106 0.960 . S
C1094 H1107 0.962 . S
C1094 H1108 0.960 . S
C1095 C1092 1.511 . S
C1095 H1109 0.961 . S
C1095 H1110 0.961 . S
C1095 H1111 0.961 . S
C1096 C1097 1.370 . S
C1096 C1098 1.363 . S
C1096 H1112 0.931 . S
C1097 C1096 1.370 . S
C1097 C1101 1.408 . S
C1098 C1096 1.363 . S
C1098 C1099 1.370 . S
C1098 C1102 1.524 . S
C1099 C1091 1.503 . S
C1099 C1098 1.370 . S
C1099 C1100 1.403 . S
C1100 C1099 1.403 . S
C1100 C1101 1.404 . S
C1100 C1103 1.539 . S
C1101 C1097 1.408 . S
C1101 C1100 1.404 . S
C1101 H1113 0.930 . S
C1102 C1098 1.524 . S
C1102 H1114 0.956 . S
C1102 H1115 0.961 . S
C1102 H1116 0.961 . S
C1103 C1100 1.539 . S
C1103 H1117 0.958 . S
C1103 H1118 0.961 . S
C1103 H1119 0.960 . S
H1104 C1088 0.931 . S
H1105 C1093 0.929 . S
H1106 C1094 0.960 . S
H1107 C1094 0.962 . S
H1108 C1094 0.960 . S
H1109 C1095 0.961 . S
H1110 C1095 0.961 . S
H1111 C1095 0.961 . S
H1112 C1096 0.931 . S
H1113 C1101 0.930 . S
H1114 C1102 0.956 . S
H1115 C1102 0.961 . S
H1116 C1102 0.961 . S
H1117 C1103 0.958 . S
H1118 C1103 0.961 . S
H1119 C1103 0.960 . S
C1120 C1121 1.391 . S
C1120 C1122 1.394 . S
C1120 H1136 0.931 . S
C1121 C1120 1.391 . S
C1121 C1125 1.376 . S
C1122 C1120 1.394 . S
C1122 C1123 1.369 . S
C1122 C1126 1.531 . S
C1123 C1122 1.369 . S
C1123 C1124 1.410 . S
C1123 C1131 1.503 . S
C1124 C1123 1.410 . S
C1124 C1125 1.392 . S
C1124 C1127 1.511 . S
C1125 C1121 1.376 . S
C1125 C1124 1.392 . S
C1125 H1137 0.929 . S
C1126 C1122 1.531 . S
C1126 H1138 0.960 . S
C1126 H1139 0.962 . S
C1126 H1140 0.960 . S
C1127 C1124 1.511 . S
C1127 H1141 0.961 . S
C1127 H1142 0.961 . S
C1127 H1143 0.961 . S
C1128 C1129 1.370 . S
C1128 C1130 1.363 . S
C1128 H1144 0.931 . S
C1129 C1128 1.370 . S
C1129 C1133 1.408 . S
C1130 C1128 1.363 . S
C1130 C1131 1.370 . S
C1130 C1134 1.524 . S
C1131 C1123 1.503 . S
C1131 C1130 1.370 . S
C1131 C1132 1.403 . S
C1132 C1131 1.403 . S
C1132 C1133 1.404 . S
C1132 C1135 1.539 . S
C1133 C1129 1.408 . S
C1133 C1132 1.404 . S
C1133 H1145 0.930 . S
C1134 C1130 1.524 . S
C1134 H1146 0.956 . S
C1134 H1147 0.961 . S
C1134 H1148 0.961 . S
C1135 C1132 1.539 . S
C1135 H1149 0.958 . S
C1135 H1150 0.961 . S
C1135 H1151 0.960 . S
H1136 C1120 0.931 . S
H1137 C1125 0.929 . S
H1138 C1126 0.960 . S
H1139 C1126 0.962 . S
H1140 C1126 0.960 . S
H1141 C1127 0.961 . S
H1142 C1127 0.961 . S
H1143 C1127 0.961 . S
H1144 C1128 0.931 . S
H1145 C1133 0.930 . S
H1146 C1134 0.956 . S
H1147 C1134 0.961 . S
H1148 C1134 0.961 . S
H1149 C1135 0.958 . S
H1150 C1135 0.961 . S
H1151 C1135 0.960 . S
C1152 C1153 1.391 . S
C1152 C1154 1.394 . S
C1152 H1168 0.931 . S
C1153 C1152 1.391 . S
C1153 C1157 1.376 . S
C1154 C1152 1.394 . S
C1154 C1155 1.369 . S
C1154 C1158 1.531 . S
C1155 C1154 1.369 . S
C1155 C1156 1.410 . S
C1155 C1163 1.503 . S
C1156 C1155 1.410 . S
C1156 C1157 1.392 . S
C1156 C1159 1.511 . S
C1157 C1153 1.376 . S
C1157 C1156 1.392 . S
C1157 H1169 0.929 . S
C1158 C1154 1.531 . S
C1158 H1170 0.960 . S
C1158 H1171 0.962 . S
C1158 H1172 0.960 . S
C1159 C1156 1.511 . S
C1159 H1173 0.961 . S
C1159 H1174 0.961 . S
C1159 H1175 0.961 . S
C1160 C1161 1.370 . S
C1160 C1162 1.363 . S
C1160 H1176 0.931 . S
C1161 C1160 1.370 . S
C1161 C1165 1.408 . S
C1162 C1160 1.363 . S
C1162 C1163 1.370 . S
C1162 C1166 1.524 . S
C1163 C1155 1.503 . S
C1163 C1162 1.370 . S
C1163 C1164 1.403 . S
C1164 C1163 1.403 . S
C1164 C1165 1.404 . S
C1164 C1167 1.539 . S
C1165 C1161 1.408 . S
C1165 C1164 1.404 . S
C1165 H1177 0.930 . S
C1166 C1162 1.524 . S
C1166 H1178 0.956 . S
C1166 H1179 0.961 . S
C1166 H1180 0.961 . S
C1167 C1164 1.539 . S
C1167 H1181 0.958 . S
C1167 H1182 0.961 . S
C1167 H1183 0.960 . S
H1168 C1152 0.931 . S
H1169 C1157 0.929 . S
H1170 C1158 0.960 . S
H1171 C1158 0.962 . S
H1172 C1158 0.960 . S
H1173 C1159 0.961 . S
H1174 C1159 0.961 . S
H1175 C1159 0.961 . S
H1176 C1160 0.931 . S
H1177 C1165 0.930 . S
H1178 C1166 0.956 . S
H1179 C1166 0.961 . S
H1180 C1166 0.961 . S
H1181 C1167 0.958 . S
H1182 C1167 0.961 . S
H1183 C1167 0.960 . S
C1184 C1185 1.391 . S
C1184 C1186 1.394 . S
C1184 H1200 0.931 . S
C1185 C1184 1.391 . S
C1185 C1189 1.376 . S
C1186 C1184 1.394 . S
C1186 C1187 1.369 . S
C1186 C1190 1.531 . S
C1187 C1186 1.369 . S
C1187 C1188 1.410 . S
C1187 C1195 1.503 . S
C1188 C1187 1.410 . S
C1188 C1189 1.392 . S
C1188 C1191 1.511 . S
C1189 C1185 1.376 . S
C1189 C1188 1.392 . S
C1189 H1201 0.929 . S
C1190 C1186 1.531 . S
C1190 H1202 0.960 . S
C1190 H1203 0.962 . S
C1190 H1204 0.960 . S
C1191 C1188 1.511 . S
C1191 H1205 0.961 . S
C1191 H1206 0.961 . S
C1191 H1207 0.961 . S
C1192 C1193 1.370 . S
C1192 C1194 1.363 . S
C1192 H1208 0.931 . S
C1193 C1192 1.370 . S
C1193 C1197 1.408 . S
C1194 C1192 1.363 . S
C1194 C1195 1.370 . S
C1194 C1198 1.524 . S
C1195 C1187 1.503 . S
C1195 C1194 1.370 . S
C1195 C1196 1.403 . S
C1196 C1195 1.403 . S
C1196 C1197 1.404 . S
C1196 C1199 1.539 . S
C1197 C1193 1.408 . S
C1197 C1196 1.404 . S
C1197 H1209 0.930 . S
C1198 C1194 1.524 . S
C1198 H1210 0.956 . S
C1198 H1211 0.961 . S
C1198 H1212 0.961 . S
C1199 C1196 1.539 . S
C1199 H1213 0.958 . S
C1199 H1214 0.961 . S
C1199 H1215 0.960 . S
H1200 C1184 0.931 . S
H1201 C1189 0.929 . S
H1202 C1190 0.960 . S
H1203 C1190 0.962 . S
H1204 C1190 0.960 . S
H1205 C1191 0.961 . S
H1206 C1191 0.961 . S
H1207 C1191 0.961 . S
H1208 C1192 0.931 . S
H1209 C1197 0.930 . S
H1210 C1198 0.956 . S
H1211 C1198 0.961 . S
H1212 C1198 0.961 . S
H1213 C1199 0.958 . S
H1214 C1199 0.961 . S
H1215 C1199 0.960 . S
C1216 C1217 1.391 . S
C1216 C1218 1.394 . S
C1216 H1232 0.931 . S
C1217 C1216 1.391 . S
C1217 C1221 1.376 . S
C1218 C1216 1.394 . S
C1218 C1219 1.369 . S
C1218 C1222 1.531 . S
C1219 C1218 1.369 . S
C1219 C1220 1.410 . S
C1219 C1227 1.503 . S
C1220 C1219 1.410 . S
C1220 C1221 1.392 . S
C1220 C1223 1.511 . S
C1221 C1217 1.376 . S
C1221 C1220 1.392 . S
C1221 H1233 0.929 . S
C1222 C1218 1.531 . S
C1222 H1234 0.960 . S
C1222 H1235 0.962 . S
C1222 H1236 0.960 . S
C1223 C1220 1.511 . S
C1223 H1237 0.961 . S
C1223 H1238 0.961 . S
C1223 H1239 0.961 . S
C1224 C1225 1.370 . S
C1224 C1226 1.363 . S
C1224 H1240 0.931 . S
C1225 C1224 1.370 . S
C1225 C1229 1.408 . S
C1226 C1224 1.363 . S
C1226 C1227 1.370 . S
C1226 C1230 1.524 . S
C1227 C1219 1.503 . S
C1227 C1226 1.370 . S
C1227 C1228 1.403 . S
C1228 C1227 1.403 . S
C1228 C1229 1.404 . S
C1228 C1231 1.539 . S
C1229 C1225 1.408 . S
C1229 C1228 1.404 . S
C1229 H1241 0.930 . S
C1230 C1226 1.524 . S
C1230 H1242 0.956 . S
C1230 H1243 0.961 . S
C1230 H1244 0.961 . S
C1231 C1228 1.539 . S
C1231 H1245 0.958 . S
C1231 H1246 0.961 . S
C1231 H1247 0.960 . S
H1232 C1216 0.931 . S
H1233 C1221 0.929 . S
H1234 C1222 0.960 . S
H1235 C1222 0.962 . S
H1236 C1222 0.960 . S
H1237 C1223 0.961 . S
H1238 C1223 0.961 . S
H1239 C1223 0.961 . S
H1240 C1224 0.931 . S
H1241 C1229 0.930 . S
H1242 C1230 0.956 . S
H1243 C1230 0.961 . S
H1244 C1230 0.961 . S
H1245 C1231 0.958 . S
H1246 C1231 0.961 . S
H1247 C1231 0.960 . S
C1248 C1249 1.391 . S
C1248 C1250 1.394 . S
C1248 H1264 0.931 . S
C1249 C1248 1.391 . S
C1249 C1253 1.376 . S
C1250 C1248 1.394 . S
C1250 C1251 1.369 . S
C1250 C1254 1.531 . S
C1251 C1250 1.369 . S
C1251 C1252 1.410 . S
C1251 C1259 1.503 . S
C1252 C1251 1.410 . S
C1252 C1253 1.392 . S
C1252 C1255 1.511 . S
C1253 C1249 1.376 . S
C1253 C1252 1.392 . S
C1253 H1265 0.929 . S
C1254 C1250 1.531 . S
C1254 H1266 0.960 . S
C1254 H1267 0.962 . S
C1254 H1268 0.960 . S
C1255 C1252 1.511 . S
C1255 H1269 0.961 . S
C1255 H1270 0.961 1_556 S
C1255 H1271 0.961 . S
C1256 C1257 1.370 . S
C1256 C1258 1.363 . S
C1256 H1272 0.931 . S
C1257 C1256 1.370 . S
C1257 C1261 1.408 . S
C1258 C1256 1.363 . S
C1258 C1259 1.370 1_554 S
C1258 C1262 1.524 1_554 S
C1259 C1251 1.503 . S
C1259 C1258 1.370 1_556 S
C1259 C1260 1.403 . S
C1260 C1259 1.403 . S
C1260 C1261 1.404 1_556 S
C1260 C1263 1.539 . S
C1261 C1257 1.408 . S
C1261 C1260 1.404 1_554 S
C1261 H1273 0.930 . S
C1262 C1258 1.524 1_556 S
C1262 H1274 0.956 . S
C1262 H1275 0.961 . S
C1262 H1276 0.961 1_556 S
C1263 C1260 1.539 . S
C1263 H1277 0.958 . S
C1263 H1278 0.961 . S
C1263 H1279 0.960 . S
H1264 C1248 0.931 . S
H1265 C1253 0.929 . S
H1266 C1254 0.960 . S
H1267 C1254 0.962 . S
H1268 C1254 0.960 . S
H1269 C1255 0.961 . S
H1270 C1255 0.961 1_554 S
H1271 C1255 0.961 . S
H1272 C1256 0.931 . S
H1273 C1261 0.930 . S
H1274 C1262 0.956 . S
H1275 C1262 0.961 . S
H1276 C1262 0.961 1_554 S
H1277 C1263 0.958 . S
H1278 C1263 0.961 . S
H1279 C1263 0.960 . S
C1280 C1281 1.391 . S
C1280 C1282 1.394 . S
C1280 H1296 0.931 . S
C1281 C1280 1.391 . S
C1281 C1285 1.376 . S
C1282 C1280 1.394 . S
C1282 C1283 1.369 . S
C1282 C1286 1.531 . S
C1283 C1282 1.369 . S
C1283 C1284 1.410 . S
C1283 C1291 1.503 . S
C1284 C1283 1.410 . S
C1284 C1285 1.392 . S
C1284 C1287 1.511 . S
C1285 C1281 1.376 . S
C1285 C1284 1.392 . S
C1285 H1297 0.929 . S
C1286 C1282 1.531 . S
C1286 H1298 0.960 . S
C1286 H1299 0.962 . S
C1286 H1300 0.960 . S
C1287 C1284 1.511 . S
C1287 H1301 0.961 . S
C1287 H1302 0.961 . S
C1287 H1303 0.961 . S
C1288 C1289 1.370 . S
C1288 C1290 1.363 . S
C1288 H1304 0.931 . S
C1289 C1288 1.370 . S
C1289 C1293 1.408 . S
C1290 C1288 1.363 . S
C1290 C1291 1.370 . S
C1290 C1294 1.524 . S
C1291 C1283 1.503 . S
C1291 C1290 1.370 . S
C1291 C1292 1.403 . S
C1292 C1291 1.403 . S
C1292 C1293 1.404 . S
C1292 C1295 1.539 . S
C1293 C1289 1.408 . S
C1293 C1292 1.404 . S
C1293 H1305 0.930 . S
C1294 C1290 1.524 . S
C1294 H1306 0.956 . S
C1294 H1307 0.961 . S
C1294 H1308 0.961 . S
C1295 C1292 1.539 . S
C1295 H1309 0.958 . S
C1295 H1310 0.961 . S
C1295 H1311 0.960 . S
H1296 C1280 0.931 . S
H1297 C1285 0.929 . S
H1298 C1286 0.960 . S
H1299 C1286 0.962 . S
H1300 C1286 0.960 . S
H1301 C1287 0.961 . S
H1302 C1287 0.961 . S
H1303 C1287 0.961 . S
H1304 C1288 0.931 . S
H1305 C1293 0.930 . S
H1306 C1294 0.956 . S
H1307 C1294 0.961 . S
H1308 C1294 0.961 . S
H1309 C1295 0.958 . S
H1310 C1295 0.961 . S
H1311 C1295 0.960 . S
C1312 C1313 1.391 . S
C1312 C1314 1.394 . S
C1312 H1328 0.931 . S
C1313 C1312 1.391 . S
C1313 C1317 1.376 . S
C1314 C1312 1.394 . S
C1314 C1315 1.369 . S
C1314 C1318 1.531 . S
C1315 C1314 1.369 . S
C1315 C1316 1.410 . S
C1315 C1323 1.503 . S
C1316 C1315 1.410 . S
C1316 C1317 1.392 . S
C1316 C1319 1.511 . S
C1317 C1313 1.376 . S
C1317 C1316 1.392 . S
C1317 H1329 0.929 . S
C1318 C1314 1.531 . S
C1318 H1330 0.960 . S
C1318 H1331 0.962 . S
C1318 H1332 0.960 . S
C1319 C1316 1.511 . S
C1319 H1333 0.961 . S
C1319 H1334 0.961 . S
C1319 H1335 0.961 . S
C1320 C1321 1.370 . S
C1320 C1322 1.363 . S
C1320 H1336 0.931 . S
C1321 C1320 1.370 . S
C1321 C1325 1.408 . S
C1322 C1320 1.363 . S
C1322 C1323 1.370 . S
C1322 C1326 1.524 . S
C1323 C1315 1.503 . S
C1323 C1322 1.370 . S
C1323 C1324 1.403 . S
C1324 C1323 1.403 . S
C1324 C1325 1.404 . S
C1324 C1327 1.539 . S
C1325 C1321 1.408 . S
C1325 C1324 1.404 . S
C1325 H1337 0.930 . S
C1326 C1322 1.524 . S
C1326 H1338 0.956 . S
C1326 H1339 0.961 . S
C1326 H1340 0.961 . S
C1327 C1324 1.539 . S
C1327 H1341 0.958 . S
C1327 H1342 0.961 . S
C1327 H1343 0.960 . S
H1328 C1312 0.931 . S
H1329 C1317 0.929 . S
H1330 C1318 0.960 . S
H1331 C1318 0.962 . S
H1332 C1318 0.960 . S
H1333 C1319 0.961 . S
H1334 C1319 0.961 . S
H1335 C1319 0.961 . S
H1336 C1320 0.931 . S
H1337 C1325 0.930 . S
H1338 C1326 0.956 . S
H1339 C1326 0.961 . S
H1340 C1326 0.961 . S
H1341 C1327 0.958 . S
H1342 C1327 0.961 . S
H1343 C1327 0.960 . S
C1344 C1345 1.391 . S
C1344 C1346 1.394 . S
C1344 H1360 0.931 . S
C1345 C1344 1.391 . S
C1345 C1349 1.376 . S
C1346 C1344 1.394 . S
C1346 C1347 1.369 . S
C1346 C1350 1.531 . S
C1347 C1346 1.369 . S
C1347 C1348 1.410 . S
C1347 C1355 1.503 . S
C1348 C1347 1.410 . S
C1348 C1349 1.392 . S
C1348 C1351 1.511 . S
C1349 C1345 1.376 . S
C1349 C1348 1.392 . S
C1349 H1361 0.929 . S
C1350 C1346 1.531 . S
C1350 H1362 0.960 . S
C1350 H1363 0.962 . S
C1350 H1364 0.960 . S
C1351 C1348 1.511 . S
C1351 H1365 0.961 . S
C1351 H1366 0.961 . S
C1351 H1367 0.961 . S
C1352 C1353 1.370 . S
C1352 C1354 1.363 . S
C1352 H1368 0.931 . S
C1353 C1352 1.370 . S
C1353 C1357 1.408 . S
C1354 C1352 1.363 . S
C1354 C1355 1.370 . S
C1354 C1358 1.524 . S
C1355 C1347 1.503 . S
C1355 C1354 1.370 . S
C1355 C1356 1.403 . S
C1356 C1355 1.403 . S
C1356 C1357 1.404 . S
C1356 C1359 1.539 . S
C1357 C1353 1.408 . S
C1357 C1356 1.404 . S
C1357 H1369 0.930 . S
C1358 C1354 1.524 . S
C1358 H1370 0.956 . S
C1358 H1371 0.961 . S
C1358 H1372 0.961 . S
C1359 C1356 1.539 . S
C1359 H1373 0.958 . S
C1359 H1374 0.961 . S
C1359 H1375 0.960 . S
H1360 C1344 0.931 . S
H1361 C1349 0.929 . S
H1362 C1350 0.960 . S
H1363 C1350 0.962 . S
H1364 C1350 0.960 . S
H1365 C1351 0.961 . S
H1366 C1351 0.961 . S
H1367 C1351 0.961 . S
H1368 C1352 0.931 . S
H1369 C1357 0.930 . S
H1370 C1358 0.956 . S
H1371 C1358 0.961 . S
H1372 C1358 0.961 . S
H1373 C1359 0.958 . S
H1374 C1359 0.961 . S
H1375 C1359 0.960 . S
C1376 C1377 1.391 . S
C1376 C1378 1.394 . S
C1376 H1392 0.931 . S
C1377 C1376 1.391 . S
C1377 C1381 1.376 . S
C1378 C1376 1.394 . S
C1378 C1379 1.369 . S
C1378 C1382 1.531 . S
C1379 C1378 1.369 . S
C1379 C1380 1.410 . S
C1379 C1387 1.503 . S
C1380 C1379 1.410 . S
C1380 C1381 1.392 . S
C1380 C1383 1.511 . S
C1381 C1377 1.376 . S
C1381 C1380 1.392 . S
C1381 H1393 0.929 . S
C1382 C1378 1.531 . S
C1382 H1394 0.960 . S
C1382 H1395 0.962 . S
C1382 H1396 0.960 . S
C1383 C1380 1.511 . S
C1383 H1397 0.961 . S
C1383 H1398 0.961 . S
C1383 H1399 0.961 . S
C1384 C1385 1.370 . S
C1384 C1386 1.363 . S
C1384 H1400 0.931 . S
C1385 C1384 1.370 . S
C1385 C1389 1.408 . S
C1386 C1384 1.363 . S
C1386 C1387 1.370 . S
C1386 C1390 1.524 . S
C1387 C1379 1.503 . S
C1387 C1386 1.370 . S
C1387 C1388 1.403 . S
C1388 C1387 1.403 . S
C1388 C1389 1.404 . S
C1388 C1391 1.539 . S
C1389 C1385 1.408 . S
C1389 C1388 1.404 . S
C1389 H1401 0.930 . S
C1390 C1386 1.524 . S
C1390 H1402 0.956 . S
C1390 H1403 0.961 . S
C1390 H1404 0.961 . S
C1391 C1388 1.539 . S
C1391 H1405 0.958 . S
C1391 H1406 0.961 . S
C1391 H1407 0.960 . S
H1392 C1376 0.931 . S
H1393 C1381 0.929 . S
H1394 C1382 0.960 . S
H1395 C1382 0.962 . S
H1396 C1382 0.960 . S
H1397 C1383 0.961 . S
H1398 C1383 0.961 . S
H1399 C1383 0.961 . S
H1400 C1384 0.931 . S
H1401 C1389 0.930 . S
H1402 C1390 0.956 . S
H1403 C1390 0.961 . S
H1404 C1390 0.961 . S
H1405 C1391 0.958 . S
H1406 C1391 0.961 . S
H1407 C1391 0.960 . S
C1408 C1409 1.391 . S
C1408 C1410 1.394 . S
C1408 H1424 0.931 . S
C1409 C1408 1.391 . S
C1409 C1413 1.376 . S
C1410 C1408 1.394 . S
C1410 C1411 1.369 . S
C1410 C1414 1.531 . S
C1411 C1410 1.369 . S
C1411 C1412 1.410 . S
C1411 C1419 1.503 . S
C1412 C1411 1.410 . S
C1412 C1413 1.392 . S
C1412 C1415 1.511 . S
C1413 C1409 1.376 . S
C1413 C1412 1.392 . S
C1413 H1425 0.929 . S
C1414 C1410 1.531 . S
C1414 H1426 0.960 . S
C1414 H1427 0.962 . S
C1414 H1428 0.960 . S
C1415 C1412 1.511 . S
C1415 H1429 0.961 . S
C1415 H1430 0.961 . S
C1415 H1431 0.961 . S
C1416 C1417 1.370 . S
C1416 C1418 1.363 . S
C1416 H1432 0.931 . S
C1417 C1416 1.370 . S
C1417 C1421 1.408 . S
C1418 C1416 1.363 . S
C1418 C1419 1.370 . S
C1418 C1422 1.524 . S
C1419 C1411 1.503 . S
C1419 C1418 1.370 . S
C1419 C1420 1.403 . S
C1420 C1419 1.403 . S
C1420 C1421 1.404 . S
C1420 C1423 1.539 . S
C1421 C1417 1.408 . S
C1421 C1420 1.404 . S
C1421 H1433 0.930 . S
C1422 C1418 1.524 . S
C1422 H1434 0.956 . S
C1422 H1435 0.961 . S
C1422 H1436 0.961 . S
C1423 C1420 1.539 . S
C1423 H1437 0.958 . S
C1423 H1438 0.961 . S
C1423 H1439 0.960 . S
H1424 C1408 0.931 . S
H1425 C1413 0.929 . S
H1426 C1414 0.960 . S
H1427 C1414 0.962 . S
H1428 C1414 0.960 . S
H1429 C1415 0.961 . S
H1430 C1415 0.961 . S
H1431 C1415 0.961 . S
H1432 C1416 0.931 . S
H1433 C1421 0.930 . S
H1434 C1422 0.956 . S
H1435 C1422 0.961 . S
H1436 C1422 0.961 . S
H1437 C1423 0.958 . S
H1438 C1423 0.961 . S
H1439 C1423 0.960 . S
C1440 C1441 1.391 . S
C1440 C1442 1.394 . S
C1440 H1456 0.931 . S
C1441 C1440 1.391 . S
C1441 C1445 1.376 . S
C1442 C1440 1.394 . S
C1442 C1443 1.369 . S
C1442 C1446 1.531 . S
C1443 C1442 1.369 . S
C1443 C1444 1.410 . S
C1443 C1451 1.503 . S
C1444 C1443 1.410 . S
C1444 C1445 1.392 . S
C1444 C1447 1.511 . S
C1445 C1441 1.376 . S
C1445 C1444 1.392 . S
C1445 H1457 0.929 . S
C1446 C1442 1.531 . S
C1446 H1458 0.960 . S
C1446 H1459 0.962 . S
C1446 H1460 0.960 . S
C1447 C1444 1.511 . S
C1447 H1461 0.961 . S
C1447 H1462 0.961 . S
C1447 H1463 0.961 . S
C1448 C1449 1.370 . S
C1448 C1450 1.363 . S
C1448 H1464 0.931 . S
C1449 C1448 1.370 . S
C1449 C1453 1.408 . S
C1450 C1448 1.363 . S
C1450 C1451 1.370 . S
C1450 C1454 1.524 . S
C1451 C1443 1.503 . S
C1451 C1450 1.370 . S
C1451 C1452 1.403 . S
C1452 C1451 1.403 . S
C1452 C1453 1.404 . S
C1452 C1455 1.539 . S
C1453 C1449 1.408 . S
C1453 C1452 1.404 . S
C1453 H1465 0.930 . S
C1454 C1450 1.524 . S
C1454 H1466 0.956 . S
C1454 H1467 0.961 . S
C1454 H1468 0.961 . S
C1455 C1452 1.539 . S
C1455 H1469 0.958 . S
C1455 H1470 0.961 . S
C1455 H1471 0.960 . S
H1456 C1440 0.931 . S
H1457 C1445 0.929 . S
H1458 C1446 0.960 . S
H1459 C1446 0.962 . S
H1460 C1446 0.960 . S
H1461 C1447 0.961 . S
H1462 C1447 0.961 . S
H1463 C1447 0.961 . S
H1464 C1448 0.931 . S
H1465 C1453 0.930 . S
H1466 C1454 0.956 . S
H1467 C1454 0.961 . S
H1468 C1454 0.961 . S
H1469 C1455 0.958 . S
H1470 C1455 0.961 . S
H1471 C1455 0.960 . S
C1472 C1473 1.391 . S
C1472 C1474 1.394 . S
C1472 H1488 0.931 . S
C1473 C1472 1.391 . S
C1473 C1477 1.376 . S
C1474 C1472 1.394 . S
C1474 C1475 1.369 . S
C1474 C1478 1.531 1_554 S
C1475 C1474 1.369 . S
C1475 C1476 1.410 . S
C1475 C1483 1.503 1_554 S
C1476 C1475 1.410 . S
C1476 C1477 1.392 . S
C1476 C1479 1.511 . S
C1477 C1473 1.376 . S
C1477 C1476 1.392 . S
C1477 H1489 0.929 . S
C1478 C1474 1.531 1_556 S
C1478 H1490 0.960 . S
C1478 H1491 0.962 . S
C1478 H1492 0.960 . S
C1479 C1476 1.511 . S
C1479 H1493 0.961 . S
C1479 H1494 0.961 . S
C1479 H1495 0.961 . S
C1480 C1481 1.370 . S
C1480 C1482 1.363 . S
C1480 H1496 0.931 . S
C1481 C1480 1.370 . S
C1481 C1485 1.408 . S
C1482 C1480 1.363 . S
C1482 C1483 1.370 . S
C1482 C1486 1.524 . S
C1483 C1475 1.503 1_556 S
C1483 C1482 1.370 . S
C1483 C1484 1.403 . S
C1484 C1483 1.403 . S
C1484 C1485 1.404 . S
C1484 C1487 1.539 . S
C1485 C1481 1.408 . S
C1485 C1484 1.404 . S
C1485 H1497 0.930 . S
C1486 C1482 1.524 . S
C1486 H1498 0.956 . S
C1486 H1499 0.961 1_556 S
C1486 H1500 0.961 . S
C1487 C1484 1.539 . S
C1487 H1501 0.958 . S
C1487 H1502 0.961 . S
C1487 H1503 0.960 . S
H1488 C1472 0.931 . S
H1489 C1477 0.929 . S
H1490 C1478 0.960 . S
H1491 C1478 0.962 . S
H1492 C1478 0.960 . S
H1493 C1479 0.961 . S
H1494 C1479 0.961 . S
H1495 C1479 0.961 . S
H1496 C1480 0.931 . S
H1497 C1485 0.930 . S
H1498 C1486 0.956 . S
H1499 C1486 0.961 1_554 S
H1500 C1486 0.961 . S
H1501 C1487 0.958 . S
H1502 C1487 0.961 . S
H1503 C1487 0.960 . S
C1504 C1505 1.391 . S
C1504 C1506 1.394 . S
C1504 H1520 0.931 . S
C1505 C1504 1.391 . S
C1505 C1509 1.376 . S
C1506 C1504 1.394 . S
C1506 C1507 1.369 . S
C1506 C1510 1.531 . S
C1507 C1506 1.369 . S
C1507 C1508 1.410 . S
C1507 C1515 1.503 . S
C1508 C1507 1.410 . S
C1508 C1509 1.392 . S
C1508 C1511 1.511 . S
C1509 C1505 1.376 . S
C1509 C1508 1.392 . S
C1509 H1521 0.929 . S
C1510 C1506 1.531 . S
C1510 H1522 0.960 . S
C1510 H1523 0.962 . S
C1510 H1524 0.960 . S
C1511 C1508 1.511 . S
C1511 H1525 0.961 . S
C1511 H1526 0.961 . S
C1511 H1527 0.961 . S
C1512 C1513 1.370 . S
C1512 C1514 1.363 . S
C1512 H1528 0.931 . S
C1513 C1512 1.370 . S
C1513 C1517 1.408 . S
C1514 C1512 1.363 . S
C1514 C1515 1.370 . S
C1514 C1518 1.524 . S
C1515 C1507 1.503 . S
C1515 C1514 1.370 . S
C1515 C1516 1.403 . S
C1516 C1515 1.403 . S
C1516 C1517 1.404 . S
C1516 C1519 1.539 . S
C1517 C1513 1.408 . S
C1517 C1516 1.404 . S
C1517 H1529 0.930 . S
C1518 C1514 1.524 . S
C1518 H1530 0.956 . S
C1518 H1531 0.961 . S
C1518 H1532 0.961 . S
C1519 C1516 1.539 . S
C1519 H1533 0.958 . S
C1519 H1534 0.961 . S
C1519 H1535 0.960 . S
H1520 C1504 0.931 . S
H1521 C1509 0.929 . S
H1522 C1510 0.960 . S
H1523 C1510 0.962 . S
H1524 C1510 0.960 . S
H1525 C1511 0.961 . S
H1526 C1511 0.961 . S
H1527 C1511 0.961 . S
H1528 C1512 0.931 . S
H1529 C1517 0.930 . S
H1530 C1518 0.956 . S
H1531 C1518 0.961 . S
H1532 C1518 0.961 . S
H1533 C1519 0.958 . S
H1534 C1519 0.961 . S
H1535 C1519 0.960 . S
C777 C761 1.618 . S
C769 C1 1.142 . S
C801 C169 1.423 . S
C809 C695 1.627 . S
C833 C283 1.400 . S
C841 C709 1.564 . S
C865 C397 1.342 . S
C873 C723 1.500 . S
C905 C737 1.464 . S
C897 C457 1.172 . S
C929 C571 1.103 . S
C937 C747 1.464 . S
C961 C115 1.243 . S
C969 C705 1.643 . S
C993 C229 1.165 . S
C1001 C719 1.636 . S
C1025 C343 1.132 . S
C1033 C733 1.525 . S
C1065 C751 1.578 . S
C1057 C511 1.426 . S
C1097 C765 1.655 . S
C1089 C625 1.358 . S
C1129 C691 1.731 . S
C1121 C55 1.361 . S
C1153 C29 1.095 . S
C1161 C706 1.379 . S
C1185 C125 1.052 . S
C1193 C720 1.576 . S
C1225 C734 1.497 . S
C1217 C239 0.893 . S
C1249 C353 0.975 . S
C1257 C753 1.388 . S
C1289 C767 1.290 . S
C1281 C485 0.962 . S
C1321 C692 1.327 . S
C1313 C599 1.112 . S
C1353 C762 1.373 . S
C1345 C143 1.190 . S
C1377 C257 0.994 . S
C1385 C697 1.262 . S
C1417 C711 1.196 . S
C1409 C371 0.927 . S
C1441 C467 0.996 . S
C1449 C725 1.366 . S
C1473 C581 0.812 . S
C1481 C739 1.388 . S
C1505 C11 0.839 . S
C1513 C748 1.474 . S
