# Generated by pormake.
# Topology ctn, (3,4)-cn, num edge types: 1
# Building blocks:
#     Node 0, Type 0, BuildingBlock: BETDIP_clean_linker_0, # of connection points: 3
#     Node 1, Type 0, BuildingBlock: BETDIP_clean_linker_0, # of connection points: 3
#     Node 2, Type 0, BuildingBlock: BETDIP_clean_linker_0, # of connection points: 3
#     Node 3, Type 0, BuildingBlock: BETDIP_clean_linker_0, # of connection points: 3
#     Node 4, Type 0, BuildingBlock: BETDIP_clean_linker_0, # of connection points: 3
#     Node 5, Type 0, BuildingBlock: BETDIP_clean_linker_0, # of connection points: 3
#     Node 6, Type 0, BuildingBlock: BETDIP_clean_linker_0, # of connection points: 3
#     Node 7, Type 0, BuildingBlock: BETDIP_clean_linker_0, # of connection points: 3
#     Node 8, Type 0, BuildingBlock: BETDIP_clean_linker_0, # of connection points: 3
#     Node 9, Type 0, BuildingBlock: BETDIP_clean_linker_0, # of connection points: 3
#     Node 10, Type 0, BuildingBlock: BETDIP_clean_linker_0, # of connection points: 3
#     Node 11, Type 0, BuildingBlock: BETDIP_clean_linker_0, # of connection points: 3
#     Node 12, Type 0, BuildingBlock: BETDIP_clean_linker_0, # of connection points: 3
#     Node 13, Type 0, BuildingBlock: BETDIP_clean_linker_0, # of connection points: 3
#     Node 14, Type 0, BuildingBlock: BETDIP_clean_linker_0, # of connection points: 3
#     Node 15, Type 0, BuildingBlock: BETDIP_clean_linker_0, # of connection points: 3
#     Node 16, Type 1, BuildingBlock: QUQFOY_clean_sbu_1, # of connection points: 4
#     Node 17, Type 1, BuildingBlock: QUQFOY_clean_sbu_1, # of connection points: 4
#     Node 18, Type 1, BuildingBlock: QUQFOY_clean_sbu_1, # of connection points: 4
#     Node 19, Type 1, BuildingBlock: QUQFOY_clean_sbu_1, # of connection points: 4
#     Node 20, Type 1, BuildingBlock: QUQFOY_clean_sbu_1, # of connection points: 4
#     Node 21, Type 1, BuildingBlock: QUQFOY_clean_sbu_1, # of connection points: 4
#     Node 22, Type 1, BuildingBlock: QUQFOY_clean_sbu_1, # of connection points: 4
#     Node 23, Type 1, BuildingBlock: QUQFOY_clean_sbu_1, # of connection points: 4
#     Node 24, Type 1, BuildingBlock: QUQFOY_clean_sbu_1, # of connection points: 4
#     Node 25, Type 1, BuildingBlock: QUQFOY_clean_sbu_1, # of connection points: 4
#     Node 26, Type 1, BuildingBlock: QUQFOY_clean_sbu_1, # of connection points: 4
#     Node 27, Type 1, BuildingBlock: QUQFOY_clean_sbu_1, # of connection points: 4
#     Edge 28, Type (0, 1), BuildingBlock: XUDNAN_clean_linker_2, # of connection points: 2
#     Edge 29, Type (0, 1), BuildingBlock: XUDNAN_clean_linker_2, # of connection points: 2
#     Edge 30, Type (0, 1), BuildingBlock: XUDNAN_clean_linker_2, # of connection points: 2
#     Edge 31, Type (0, 1), BuildingBlock: XUDNAN_clean_linker_2, # of connection points: 2
#     Edge 32, Type (0, 1), BuildingBlock: XUDNAN_clean_linker_2, # of connection points: 2
#     Edge 33, Type (0, 1), BuildingBlock: XUDNAN_clean_linker_2, # of connection points: 2
#     Edge 34, Type (0, 1), BuildingBlock: XUDNAN_clean_linker_2, # of connection points: 2
#     Edge 35, Type (0, 1), BuildingBlock: XUDNAN_clean_linker_2, # of connection points: 2
#     Edge 36, Type (0, 1), BuildingBlock: XUDNAN_clean_linker_2, # of connection points: 2
#     Edge 37, Type (0, 1), BuildingBlock: XUDNAN_clean_linker_2, # of connection points: 2
#     Edge 38, Type (0, 1), BuildingBlock: XUDNAN_clean_linker_2, # of connection points: 2
#     Edge 39, Type (0, 1), BuildingBlock: XUDNAN_clean_linker_2, # of connection points: 2
#     Edge 40, Type (0, 1), BuildingBlock: XUDNAN_clean_linker_2, # of connection points: 2
#     Edge 41, Type (0, 1), BuildingBlock: XUDNAN_clean_linker_2, # of connection points: 2
#     Edge 42, Type (0, 1), BuildingBlock: XUDNAN_clean_linker_2, # of connection points: 2
#     Edge 43, Type (0, 1), BuildingBlock: XUDNAN_clean_linker_2, # of connection points: 2
#     Edge 44, Type (0, 1), BuildingBlock: XUDNAN_clean_linker_2, # of connection points: 2
#     Edge 45, Type (0, 1), BuildingBlock: XUDNAN_clean_linker_2, # of connection points: 2
#     Edge 46, Type (0, 1), BuildingBlock: XUDNAN_clean_linker_2, # of connection points: 2
#     Edge 47, Type (0, 1), BuildingBlock: XUDNAN_clean_linker_2, # of connection points: 2
#     Edge 48, Type (0, 1), BuildingBlock: XUDNAN_clean_linker_2, # of connection points: 2
#     Edge 49, Type (0, 1), BuildingBlock: XUDNAN_clean_linker_2, # of connection points: 2
#     Edge 50, Type (0, 1), BuildingBlock: XUDNAN_clean_linker_2, # of connection points: 2
#     Edge 51, Type (0, 1), BuildingBlock: XUDNAN_clean_linker_2, # of connection points: 2
#     Edge 52, Type (0, 1), BuildingBlock: XUDNAN_clean_linker_2, # of connection points: 2
#     Edge 53, Type (0, 1), BuildingBlock: XUDNAN_clean_linker_2, # of connection points: 2
#     Edge 54, Type (0, 1), BuildingBlock: XUDNAN_clean_linker_2, # of connection points: 2
#     Edge 55, Type (0, 1), BuildingBlock: XUDNAN_clean_linker_2, # of connection points: 2
#     Edge 56, Type (0, 1), BuildingBlock: XUDNAN_clean_linker_2, # of connection points: 2
#     Edge 57, Type (0, 1), BuildingBlock: XUDNAN_clean_linker_2, # of connection points: 2
#     Edge 58, Type (0, 1), BuildingBlock: XUDNAN_clean_linker_2, # of connection points: 2
#     Edge 59, Type (0, 1), BuildingBlock: XUDNAN_clean_linker_2, # of connection points: 2
#     Edge 60, Type (0, 1), BuildingBlock: XUDNAN_clean_linker_2, # of connection points: 2
#     Edge 61, Type (0, 1), BuildingBlock: XUDNAN_clean_linker_2, # of connection points: 2
#     Edge 62, Type (0, 1), BuildingBlock: XUDNAN_clean_linker_2, # of connection points: 2
#     Edge 63, Type (0, 1), BuildingBlock: XUDNAN_clean_linker_2, # of connection points: 2
#     Edge 64, Type (0, 1), BuildingBlock: XUDNAN_clean_linker_2, # of connection points: 2
#     Edge 65, Type (0, 1), BuildingBlock: XUDNAN_clean_linker_2, # of connection points: 2
#     Edge 66, Type (0, 1), BuildingBlock: XUDNAN_clean_linker_2, # of connection points: 2
#     Edge 67, Type (0, 1), BuildingBlock: XUDNAN_clean_linker_2, # of connection points: 2
#     Edge 68, Type (0, 1), BuildingBlock: XUDNAN_clean_linker_2, # of connection points: 2
#     Edge 69, Type (0, 1), BuildingBlock: XUDNAN_clean_linker_2, # of connection points: 2
#     Edge 70, Type (0, 1), BuildingBlock: XUDNAN_clean_linker_2, # of connection points: 2
#     Edge 71, Type (0, 1), BuildingBlock: XUDNAN_clean_linker_2, # of connection points: 2
#     Edge 72, Type (0, 1), BuildingBlock: XUDNAN_clean_linker_2, # of connection points: 2
#     Edge 73, Type (0, 1), BuildingBlock: XUDNAN_clean_linker_2, # of connection points: 2
#     Edge 74, Type (0, 1), BuildingBlock: XUDNAN_clean_linker_2, # of connection points: 2
#     Edge 75, Type (0, 1), BuildingBlock: XUDNAN_clean_linker_2, # of connection points: 2
# Relax obj value: 0.095
# Max RMSD: 0.194
# Mean RMSD: 0.141
data_MOF--net-ctn--node1-QUQFOY_clean_sbu_1--node2-BETDIP_clean_linker_0--edge1-XUDNAN_clean_linker_2
_symmetry_space_group_name_H-M    P1
_symmetry_Int_Tables_number       1
_symmetry_cell_setting            triclinic
loop_
_symmetry_equiv_pos_as_xyz
'x, y, z'
_cell_length_a     52.271467
_cell_length_b     52.373205
_cell_length_c     58.042419
_cell_angle_alpha  96.882327
_cell_angle_beta   94.014608
_cell_angle_gamma 97.959694
loop_
_atom_site_label
_atom_site_type_symbol
_atom_site_fract_x
_atom_site_fract_y
_atom_site_fract_z
_atom_type_partial_charge
H0 H 0.02884 0.11351 0.08148 0.0
H1 H 0.0792 0.07514 0.03835 0.0
H2 H 0.07118 0.05724 0.10829 0.0
H3 H 0.07951 0.11354 0.0199 0.0
C4 C 0.0596 0.11701 0.02098 0.0
C5 C 0.04286 0.10015 0.07948 0.0
C6 C 0.04862 0.08574 0.0975 0.0
C7 C 0.05431 0.09701 0.05846 0.0
C8 C 0.07145 0.07864 0.05506 0.0
C9 C 0.07719 0.06362 0.07285 0.0
C10 C 0.0662 0.06794 0.09418 0.0
N11 N 0.04623 0.11125 0.04064 0.0
H12 H 0.24342 0.71032 0.22948 0.0
H13 H 0.31438 0.76237 0.23007 0.0
H14 H 0.30597 0.71014 0.28173 0.0
H15 H 0.28253 0.78788 0.21582 0.0
C16 C 0.27314 0.77252 0.2024 0.0
C17 C 0.26289 0.71758 0.2373 0.0
C18 C 0.27291 0.70745 0.25684 0.0
C19 C 0.2775 0.7377 0.22798 0.0
C20 C 0.30274 0.74759 0.23795 0.0
C21 C 0.31329 0.73776 0.25745 0.0
C22 C 0.29811 0.71777 0.26671 0.0
N23 N 0.26675 0.74681 0.2079 0.0
H24 H 0.97243 0.54618 0.02683 0.0
H25 H 0.01238 0.51348 0.08034 0.0
H26 H 0.96923 0.57604 0.09877 0.0
H27 H 0.99421 0.47471 0.05349 0.0
C28 C 0.00154 0.4824 0.03824 0.0
C29 C 0.97731 0.54575 0.04521 0.0
C30 C 0.96942 0.56402 0.06201 0.0
C31 C 0.99157 0.52672 0.05193 0.0
C32 C -0.00039 0.52693 0.07556 0.0
C33 C 0.99238 0.54526 0.09269 0.0
C34 C 0.97634 0.56294 0.08569 0.0
N35 N 0.99862 0.5082 0.03451 0.0
H36 H 0.7296 0.79205 0.20828 0.0
H37 H 0.74115 0.85897 0.26036 0.0
H38 H 0.79756 0.84942 0.21075 0.0
H39 H 0.69542 0.85154 0.25334 0.0
C40 C 0.69368 0.83128 0.25629 0.0
C41 C 0.74121 0.81017 0.21611 0.0
C42 C 0.76447 0.81927 0.20692 0.0
C43 C 0.73267 0.8245 0.23526 0.0
C44 C 0.74774 0.84792 0.24554 0.0
C45 C 0.77129 0.8571 0.23698 0.0
C46 C 0.7795 0.84256 0.21763 0.0
N47 N 0.70933 0.81473 0.2445 0.0
H48 H 0.06656 0.96798 0.44344 0.0
H49 H 0.13048 0.99508 0.49535 0.0
H50 H 0.12235 0.0336 0.43441 0.0
H51 H 0.12101 0.9521 0.50401 0.0
C52 C 0.10013 0.95162 0.50347 0.0
C53 C 0.08438 0.98103 0.44939 0.0
C54 C 0.09334 0.00067 0.43625 0.0
C55 C 0.09773 0.97871 0.47063 0.0
C56 C 0.12035 0.99623 0.47867 0.0
C57 C 0.12949 0.01596 0.4656 0.0
C58 C 0.11588 0.01802 0.44435 0.0
N59 N 0.0866 0.96027 0.48449 0.0
H60 H 0.23034 0.79385 0.80685 0.0
H61 H 0.27074 0.7316 0.78204 0.0
H62 H 0.28464 0.76633 0.85365 0.0
H63 H 0.23609 0.72201 0.75566 0.0
C64 C 0.22848 0.73985 0.75322 0.0
C65 C 0.24467 0.78132 0.81015 0.0
C66 C 0.25671 0.78227 0.83266 0.0
C67 C 0.24947 0.76314 0.79193 0.0
C68 C 0.26712 0.74587 0.79602 0.0
C69 C 0.27976 0.74666 0.81839 0.0
C70 C 0.27464 0.76519 0.83649 0.0
N71 N 0.23512 0.76221 0.77009 0.0
H72 H 0.97533 0.61427 0.47706 0.0
H73 H 0.92023 0.54464 0.45835 0.0
H74 H 0.89985 0.60936 0.50262 0.0
H75 H 0.94291 0.54756 0.42287 0.0
C76 C 0.96224 0.55007 0.43184 0.0
C77 C 0.95615 0.60359 0.47781 0.0
C78 C 0.93798 0.61502 0.49063 0.0
C79 C 0.94957 0.5786 0.46553 0.0
C80 C 0.92503 0.56439 0.46707 0.0
C81 C 0.90699 0.57535 0.48053 0.0
C82 C 0.91342 0.60091 0.49179 0.0
N83 N 0.9684 0.56776 0.45263 0.0
H84 H 0.79303 0.8498 0.77321 0.0
H85 H 0.81805 0.79905 0.82002 0.0
H86 H 0.74776 0.83218 0.82959 0.0
H87 H 0.84533 0.78955 0.79218 0.0
C88 C 0.84975 0.80779 0.78513 0.0
C89 C 0.7897 0.83944 0.78807 0.0
C90 C 0.76767 0.84188 0.80007 0.0
C91 C 0.80801 0.82437 0.79532 0.0
C92 C 0.80406 0.81104 0.81471 0.0
C93 C 0.78224 0.81352 0.82739 0.0
C94 C 0.76436 0.82937 0.81995 0.0
N95 N 0.83084 0.82465 0.78342 0.0
H96 H 0.29777 0.33971 0.27229 0.0
H97 H 0.34319 0.30318 0.31966 0.0
H98 H 0.27347 0.33054 0.34048 0.0
H99 H 0.36279 0.29015 0.28878 0.0
C100 C 0.36044 0.30335 0.27599 0.0
C101 C 0.30041 0.33259 0.28895 0.0
C102 C 0.28293 0.33667 0.30583 0.0
C103 C 0.32191 0.32019 0.29352 0.0
C104 C 0.32613 0.31182 0.31545 0.0
C105 C 0.3088 0.31566 0.33258 0.0
C106 C 0.28717 0.32793 0.32753 0.0
N107 N 0.33941 0.31788 0.27598 0.0
H108 H 0.40413 0.99709 0.53929 0.0
H109 H 0.44787 0.94429 0.56967 0.0
H110 H 0.47412 0.02715 0.58254 0.0
H111 H 0.39262 0.90658 0.54161 0.0
C112 C 0.40826 0.92133 0.53847 0.0
C113 C 0.42074 0.99382 0.55021 0.0
C114 C 0.43938 0.01481 0.56001 0.0
C115 C 0.42387 0.96845 0.55353 0.0
C116 C 0.44556 0.96406 0.56741 0.0
C117 C 0.46393 0.98501 0.57846 0.0
C118 C 0.46068 0.01045 0.57429 0.0
N119 N 0.40452 0.94775 0.54314 0.0
H120 H 0.25222 0.27837 0.7053 0.0
H121 H 0.25493 0.34718 0.7539 0.0
H122 H 0.3183 0.33849 0.71138 0.0
H123 H 0.20985 0.33692 0.74068 0.0
C124 C 0.20853 0.31737 0.74549 0.0
C125 C 0.26244 0.29709 0.71336 0.0
C126 C 0.28644 0.30702 0.70599 0.0
C127 C 0.25107 0.31155 0.73057 0.0
C128 C 0.26405 0.33595 0.74083 0.0
C129 C 0.2885 0.34593 0.73433 0.0
C130 C 0.29963 0.33113 0.71689 0.0
N131 N 0.2267 0.30121 0.73763 0.0
H132 H 0.75716 0.22312 0.72012 0.0
H133 H 0.82559 0.2797 0.73156 0.0
H134 H 0.81111 0.22406 0.77983 0.0
H135 H 0.78887 0.30374 0.71542 0.0
C136 C 0.78619 0.28901 0.70024 0.0
C137 C 0.77499 0.23126 0.73068 0.0
C138 C 0.78229 0.22068 0.75086 0.0
C139 C 0.79017 0.25287 0.72414 0.0
C140 C 0.81335 0.26383 0.73751 0.0
C141 C 0.82132 0.25348 0.75768 0.0
C142 C 0.80538 0.2321 0.76429 0.0
N143 N 0.78258 0.26227 0.70318 0.0
H144 H 0.53114 0.61843 0.58944 0.0
H145 H 0.56759 0.57265 0.53885 0.0
H146 H 0.55378 0.54523 0.60414 0.0
H147 H 0.58635 0.61465 0.53344 0.0
C148 C 0.56845 0.62297 0.53204 0.0
C149 C 0.54003 0.60129 0.58466 0.0
C150 C 0.54108 0.58229 0.59991 0.0
C151 C 0.55042 0.59841 0.56305 0.0
C152 C 0.56056 0.57558 0.55594 0.0
C153 C 0.56141 0.55623 0.57058 0.0
C154 C 0.55237 0.55999 0.59274 0.0
N155 N 0.54981 0.61825 0.54835 0.0
H156 H 0.55279 0.45547 0.94916 0.0
H157 H 0.6269 0.47686 0.98888 0.0
H158 H 0.60045 0.52777 0.94278 0.0
H159 H 0.62521 0.43263 0.98582 0.0
C160 C 0.60537 0.42769 0.9901 0.0
C161 C 0.57081 0.4687 0.95348 0.0
C162 C 0.57473 0.49201 0.94358 0.0
C163 C 0.58998 0.46252 0.96912 0.0
C164 C 0.61262 0.48051 0.97572 0.0
C165 C 0.61651 0.50398 0.96624 0.0
C166 C 0.59786 0.5093 0.94966 0.0
N167 N 0.58528 0.4392 0.97943 0.0
H168 H 0.73642 0.27807 0.31192 0.0
H169 H 0.77961 0.21795 0.28858 0.0
H170 H 0.79871 0.26074 0.35726 0.0
H171 H 0.73877 0.20285 0.26807 0.0
C172 C 0.73217 0.22034 0.26306 0.0
C173 C 0.75239 0.26749 0.31527 0.0
C174 C 0.76676 0.27178 0.33709 0.0
C175 C 0.75701 0.24837 0.29787 0.0
C176 C 0.77648 0.23311 0.30201 0.0
C177 C 0.79163 0.23727 0.32355 0.0
C178 C 0.7868 0.25694 0.34085 0.0
N179 N 0.74103 0.24472 0.27665 0.0
H180 H 0.48047 0.09187 0.955 0.0
H181 H 0.4315 0.01762 0.93936 0.0
H182 H 0.44265 0.05705 0.00941 0.0
H183 H 0.4642 0.0123 0.91396 0.0
C184 C 0.46616 0.03064 0.90678 0.0
C185 C 0.46748 0.07624 0.96055 0.0
C186 C 0.46281 0.07683 0.98405 0.0
C187 C 0.45684 0.05464 0.94443 0.0
C188 C 0.4404 0.03409 0.95178 0.0
C189 C 0.43482 0.03521 0.97515 0.0
C190 C 0.44628 0.05649 0.99119 0.0
N191 N 0.46355 0.05389 0.92114 0.0
O192 O 0.23411 0.86276 0.99703 0.0
Cd193 Cd 0.25229 0.87727 0.0295 0.0
Cd194 Cd 0.23478 0.9218 0.01925 0.0
O195 O 0.22577 0.90018 0.98685 0.0
O196 O 0.2606 0.84512 0.04172 0.0
O197 O 0.23786 0.8723 0.06037 0.0
C198 C 0.24829 0.85129 0.05951 0.0
C199 C 0.20324 0.94483 0.03461 0.0
C200 C 0.22649 0.87603 0.98165 0.0
C201 C 0.29206 0.92411 0.02821 0.0
O202 O 0.27332 0.93708 0.02663 0.0
O203 O 0.28777 0.89975 0.02889 0.0
O204 O 0.21646 0.95272 0.01822 0.0
O205 O 0.20812 0.92382 0.04254 0.0
O206 O 0.16598 0.53613 0.30581 0.0
Cd207 Cd 0.14302 0.50148 0.30771 0.0
Cd208 Cd 0.10543 0.52469 0.27815 0.0
O209 O 0.13974 0.55022 0.28024 0.0
O210 O 0.167 0.47968 0.321 0.0
O211 O 0.14653 0.46959 0.28573 0.0
C212 C 0.16254 0.4641 0.30176 0.0
C213 C 0.07818 0.53049 0.24584 0.0
C214 C 0.16124 0.55275 0.29252 0.0
C215 C 0.09223 0.5096 0.32621 0.0
O216 O 0.08611 0.51856 0.3075 0.0
O217 O 0.11394 0.50176 0.32954 0.0
O218 O 0.0828 0.5473 0.26418 0.0
O219 O 0.08843 0.50946 0.24586 0.0
O220 O 0.77524 0.72602 0.98496 0.0
Cd221 Cd 0.77802 0.7072 0.01434 0.0
Cd222 Cd 0.80576 0.67947 0.98619 0.0
O223 O 0.80426 0.7082 0.96507 0.0
O224 O 0.76273 0.72875 0.0389 0.0
O225 O 0.80334 0.72136 0.04228 0.0
C226 C 0.78463 0.73166 0.05125 0.0
C227 C 0.84413 0.66852 0.00186 0.0
C228 C 0.78838 0.72445 0.96732 0.0
C229 C 0.75664 0.65132 0.99876 0.0
O230 O 0.77373 0.65124 0.98428 0.0
O231 O 0.75634 0.67118 0.01352 0.0
O232 O 0.83551 0.66037 0.98047 0.0
O233 O 0.83151 0.68401 0.01407 0.0
O234 O 0.96923 0.03727 0.29406 0.0
Cd235 Cd 0.94142 0.04598 0.27046 0.0
Cd236 Cd 0.92422 0.06661 0.3106 0.0
O237 O 0.95985 0.06121 0.32532 0.0
O238 O 0.95588 0.03747 0.2402 0.0
O239 O 0.94927 0.07716 0.25333 0.0
C240 C 0.95749 0.06164 0.23743 0.0
C241 C 0.90755 0.10525 0.32041 0.0
C242 C 0.97428 0.04642 0.31542 0.0
C243 C 0.89158 0.01938 0.2834 0.0
O244 O 0.89663 0.03389 0.30282 0.0
O245 O 0.90592 0.02263 0.2669 0.0
O246 O 0.9094 0.08874 0.33499 0.0
O247 O 0.91617 0.1003 0.30027 0.0
O248 O 0.31814 0.22746 0.48768 0.0
Cd249 Cd 0.31349 0.20381 0.51372 0.0
Cd250 Cd 0.3337 0.17152 0.48219 0.0
O251 O 0.33714 0.2023 0.46314 0.0
O252 O 0.2985 0.22581 0.538 0.0
O253 O 0.33614 0.2121 0.54421 0.0
C254 C 0.31829 0.22461 0.55208 0.0
C255 C 0.36813 0.15581 0.49985 0.0
C256 C 0.32842 0.22347 0.4686 0.0
C257 C 0.28208 0.15112 0.49379 0.0
O258 O 0.29864 0.14767 0.47917 0.0
O259 O 0.28553 0.17123 0.50889 0.0
O260 O 0.36228 0.15058 0.47763 0.0
O261 O 0.35517 0.1711 0.5119 0.0
O262 O 0.46423 0.5473 0.80924 0.0
Cd263 Cd 0.44176 0.54906 0.77873 0.0
Cd264 Cd 0.4099 0.57153 0.80959 0.0
O265 O 0.43974 0.56697 0.83304 0.0
O266 O 0.46344 0.54134 0.75258 0.0
O267 O 0.44893 0.57894 0.75999 0.0
C268 C 0.46173 0.56424 0.74717 0.0
C269 C 0.38907 0.60822 0.81769 0.0
C270 C 0.45948 0.55574 0.82974 0.0
C271 C 0.38861 0.51982 0.78144 0.0
O272 O 0.38541 0.53778 0.79723 0.0
O273 O 0.40925 0.52115 0.77104 0.0
O274 O 0.38764 0.58977 0.83051 0.0
O275 O 0.40281 0.60622 0.80012 0.0
O276 O 0.74267 0.37005 0.4952 0.0
Cd277 Cd 0.75294 0.39284 0.52676 0.0
Cd278 Cd 0.71166 0.41757 0.51145 0.0
O279 O 0.71006 0.3892 0.48326 0.0
O280 O 0.77677 0.37231 0.54218 0.0
O281 O 0.74091 0.38209 0.55697 0.0
C282 C 0.76115 0.37053 0.5583 0.0
C283 C 0.67258 0.4309 0.52183 0.0
C284 C 0.72492 0.37214 0.47977 0.0
C285 C 0.76563 0.4485 0.51885 0.0
O286 O 0.74161 0.44773 0.51313 0.0
O287 O 0.77431 0.42874 0.52533 0.0
O288 O 0.68126 0.43422 0.50207 0.0
O289 O 0.68578 0.41937 0.53593 0.0
O290 O 0.66242 0.04642 0.78032 0.0
Cd291 Cd 0.63746 0.01181 0.77794 0.0
Cd292 Cd 0.61443 0.03107 0.74312 0.0
O293 O 0.64879 0.05621 0.74616 0.0
O294 O 0.65614 0.98852 0.79534 0.0
O295 O 0.64502 0.98062 0.75736 0.0
C296 C 0.65614 0.97388 0.77582 0.0
C297 C 0.59626 0.0107 0.70674 0.0
C298 C 0.66474 0.06076 0.7642 0.0
C299 C 0.58532 0.02599 0.7851 0.0
O300 O 0.58781 0.03744 0.76711 0.0
O301 O 0.60221 0.01242 0.79148 0.0
O302 O 0.59692 0.03531 0.71264 0.0
O303 O 0.60685 0.99759 0.72128 0.0
O304 O 0.01703 0.31924 0.92631 0.0
Cd305 Cd 0.01025 0.2838 0.90485 0.0
Cd306 Cd 0.03943 0.31254 0.87683 0.0
O307 O 0.04486 0.34006 0.90565 0.0
O308 O 0.9942 0.2588 0.92484 0.0
O309 O 0.03201 0.25569 0.91081 0.0
C310 C 0.01399 0.24676 0.92312 0.0
C311 C 0.07471 0.30619 0.85537 0.0
C312 C 0.03248 0.33949 0.92368 0.0
C313 C 0.98404 0.29324 0.8596 0.0
O314 O 0.00441 0.3087 0.85745 0.0
O315 O 0.983 0.27973 0.87638 0.0
O316 O 0.0641 0.32697 0.85555 0.0
O317 O 0.06561 0.2889 0.86796 0.0
O318 O 0.49363 0.80171 0.42856 0.0
Cd319 Cd 0.49863 0.77071 0.40466 0.0
Cd320 Cd 0.5244 0.80902 0.38566 0.0
O321 O 0.5215 0.83179 0.41662 0.0
O322 O 0.49201 0.73988 0.42167 0.0
O323 O 0.53021 0.75351 0.40966 0.0
C324 C 0.51622 0.73768 0.42085 0.0
C325 C 0.56318 0.80864 0.3682 0.0
C326 C 0.50569 0.82481 0.43114 0.0
C327 C 0.47457 0.78142 0.35982 0.0
O328 O 0.49169 0.80152 0.36268 0.0
O329 O 0.47496 0.76441 0.37371 0.0
O330 O 0.55093 0.82842 0.36878 0.0
O331 O 0.55401 0.78938 0.37866 0.0
O332 O 0.00087 0.78485 0.68323 0.0
Cd333 Cd 0.02552 0.77335 0.65888 0.0
Cd334 Cd 0.00981 0.81546 0.6381 0.0
O335 O 0.99484 0.82151 0.66984 0.0
O336 O 0.04382 0.74692 0.67217 0.0
O337 O 0.06406 0.78478 0.66499 0.0
C338 C 0.06517 0.76247 0.6721 0.0
C339 C 0.02598 0.85166 0.62072 0.0
C340 C 0.99154 0.8061 0.68506 0.0
C341 C 0.99601 0.76192 0.61155 0.0
O342 O 0.9919 0.78536 0.6137 0.0
O343 O 0.01008 0.7539 0.62703 0.0
O344 O 0.00168 0.84591 0.62318 0.0
O345 O 0.04163 0.8374 0.62917 0.0
O346 O 0.50634 0.26732 0.17134 0.0
Cd347 Cd 0.53516 0.25177 0.15418 0.0
Cd348 Cd 0.51685 0.28134 0.11949 0.0
O349 O 0.49313 0.29098 0.14502 0.0
O350 O 0.54868 0.22931 0.17602 0.0
O351 O 0.57318 0.26271 0.16492 0.0
C352 C 0.5712 0.24288 0.17628 0.0
C353 C 0.54025 0.31366 0.10202 0.0
C354 C 0.49155 0.28291 0.16475 0.0
C355 C 0.51513 0.22485 0.10514 0.0
O356 O 0.50857 0.24573 0.09923 0.0
O357 O 0.52577 0.22437 0.12537 0.0
O358 O 0.51557 0.30719 0.0972 0.0
O359 O 0.55161 0.30229 0.11756 0.0
H360 H 0.25054 0.77232 0.87756 0.0
H361 H 0.24606 0.83228 0.83243 0.0
H362 H 0.23193 0.86068 0.86466 0.0
H363 H 0.19616 0.78447 0.91066 0.0
H364 H 0.21213 0.77897 0.93778 0.0
H365 H 0.21975 0.76241 0.91064 0.0
H366 H 0.26848 0.78077 0.9205 0.0
H367 H 0.26104 0.79698 0.94779 0.0
H368 H 0.27808 0.81538 0.92776 0.0
H369 H 0.22016 0.88331 0.90229 0.0
H370 H 0.21639 0.90013 0.94327 0.0
H371 H 0.23003 0.82583 0.96396 0.0
C372 C 0.24678 0.79147 0.87441 0.0
C373 C 0.24931 0.79994 0.85233 0.0
C374 C 0.24385 0.82511 0.84902 0.0
C375 C 0.2358 0.84141 0.86723 0.0
C376 C 0.23334 0.83232 0.88868 0.0
C377 C 0.23894 0.80805 0.8924 0.0
C378 C 0.23651 0.80358 0.91749 0.0
C379 C 0.21484 0.78102 0.91923 0.0
C380 C 0.26258 0.79892 0.92906 0.0
C381 C 0.22921 0.82937 0.92744 0.0
C382 C 0.22703 0.84552 0.91046 0.0
C383 C 0.22164 0.87078 0.91571 0.0
C384 C 0.21942 0.88013 0.93906 0.0
C385 C 0.22288 0.86432 0.9569 0.0
C386 C 0.22702 0.83835 0.95078 0.0
H387 H 0.96445 0.53869 0.38516 0.0
H388 H 0.00734 0.5385 0.4518 0.0
H389 H 0.04363 0.52325 0.43158 0.0
H390 H 0.98805 0.4826 0.35294 0.0
H391 H 0.99027 0.49778 0.32673 0.0
H392 H 0.96627 0.50511 0.34636 0.0
H393 H 0.98396 0.55425 0.34936 0.0
H394 H 0.00796 0.54708 0.32977 0.0
H395 H 0.01785 0.56533 0.35809 0.0
H396 H 0.07599 0.51049 0.40429 0.0
H397 H 0.10385 0.50481 0.37204 0.0
H398 H 0.04095 0.5161 0.3231 0.0
C399 C 0.9813 0.53488 0.39541 0.0
C400 C 0.98317 0.53946 0.41993 0.0
C401 C 0.00566 0.535 0.43294 0.0
C402 C 0.02624 0.52621 0.42163 0.0
C403 C 0.02405 0.52227 0.39735 0.0
C404 C 0.00224 0.52665 0.38437 0.0
C405 C 0.00587 0.52356 0.35858 0.0
C406 C 0.98646 0.50091 0.34538 0.0
C407 C 0.0038 0.54907 0.34836 0.0
C408 C 0.03329 0.51726 0.35913 0.0
C409 C 0.04321 0.51606 0.38161 0.0
C410 C 0.0684 0.51122 0.38659 0.0
C411 C 0.08406 0.50798 0.36813 0.0
C412 C 0.0746 0.51006 0.34505 0.0
C413 C 0.04874 0.51438 0.34054 0.0
H414 H 0.81928 0.8001 0.85876 0.0
H415 H 0.7358 0.79516 0.84398 0.0
H416 H 0.72907 0.77531 0.87965 0.0
H417 H 0.81487 0.73624 0.8772 0.0
H418 H 0.84207 0.74547 0.89885 0.0
H419 H 0.84061 0.76158 0.87317 0.0
H420 H 0.84555 0.80609 0.89918 0.0
H421 H 0.84673 0.79009 0.92495 0.0
H422 H 0.82294 0.81133 0.92073 0.0
H423 H 0.73117 0.75739 0.91769 0.0
H424 H 0.74162 0.73603 0.95215 0.0
H425 H 0.82287 0.7464 0.93909 0.0
C426 C 0.79949 0.79462 0.86264 0.0
C427 C 0.77816 0.80001 0.84847 0.0
C428 C 0.75268 0.79245 0.85476 0.0
C429 C 0.74856 0.78086 0.87498 0.0
C430 C 0.77001 0.7762 0.88853 0.0
C431 C 0.79493 0.78224 0.88235 0.0
C432 C 0.81446 0.77336 0.89905 0.0
C433 C 0.82884 0.75295 0.88631 0.0
C434 C 0.83354 0.79661 0.91173 0.0
C435 C 0.79657 0.76145 0.91561 0.0
C436 C 0.77106 0.76384 0.90948 0.0
C437 C 0.75103 0.75516 0.92254 0.0
C438 C 0.75716 0.74322 0.94214 0.0
C439 C 0.78299 0.73953 0.94814 0.0
C440 C 0.80294 0.74887 0.93475 0.0
H441 H 0.06543 0.03971 0.43005 0.0
H442 H 0.08708 0.96928 0.39473 0.0
H443 H 0.06144 0.97531 0.35865 0.0
H444 H 6e-05 0.0285 0.4052 0.0
H445 H 0.99821 0.0623 0.40324 0.0
H446 H 0.01991 0.05348 0.42541 0.0
H447 H 0.05842 0.08208 0.41082 0.0
H448 H 0.03683 0.0909 0.38851 0.0
H449 H 0.06496 0.07658 0.38068 0.0
H450 H 0.03316 0.98889 0.32692 0.0
H451 H 0.00084 0.00631 0.30263 0.0
H452 H 0.99569 0.06676 0.35955 0.0
C453 C 0.06489 0.02577 0.41458 0.0
C454 C 0.07825 0.00419 0.41481 0.0
C455 C 0.07693 0.98596 0.3946 0.0
C456 C 0.06257 0.98931 0.37412 0.0
C457 C 0.04954 0.01085 0.37439 0.0
C458 C 0.05033 0.02862 0.39416 0.0
C459 C 0.03319 0.04906 0.39035 0.0
C460 C 0.01156 0.04827 0.40704 0.0
C461 C 0.04932 0.07626 0.39273 0.0
C462 C 0.02241 0.0399 0.36539 0.0
C463 C 0.03242 0.01809 0.3564 0.0
C464 C 0.0252 0.00596 0.33375 0.0
C465 C 0.00687 0.01608 0.32007 0.0
C466 C 0.99568 0.03789 0.32919 0.0
C467 C 0.00388 0.05008 0.35207 0.0
H468 H 0.26006 0.28829 0.66405 0.0
H469 H 0.33589 0.29574 0.70169 0.0
H470 H 0.35282 0.27474 0.66645 0.0
H471 H 0.26124 0.22594 0.63012 0.0
H472 H 0.24476 0.23475 0.60457 0.0
H473 H 0.23882 0.24913 0.6331 0.0
H474 H 0.25143 0.2951 0.62125 0.0
H475 H 0.25757 0.28088 0.59275 0.0
H476 H 0.28259 0.30341 0.61042 0.0
H477 H 0.36104 0.2527 0.62641 0.0
H478 H 0.36009 0.23317 0.58518 0.0
H479 H 0.27904 0.24236 0.57453 0.0
C480 C 0.28012 0.2851 0.665 0.0
C481 C 0.29663 0.29329 0.68559 0.0
C482 C 0.32295 0.28948 0.68602 0.0
C483 C 0.33268 0.27755 0.66614 0.0
C484 C 0.31585 0.26982 0.64602 0.0
C485 C 0.29014 0.27356 0.64536 0.0
C486 C 0.2762 0.26457 0.62148 0.0
C487 C 0.25395 0.24227 0.62238 0.0
C488 C 0.26638 0.28735 0.61086 0.0
C489 C 0.29803 0.25515 0.60872 0.0
C490 C 0.32074 0.25811 0.6231 0.0
C491 C 0.34336 0.25038 0.615 0.0
C492 C 0.34266 0.23933 0.5916 0.0
C493 C 0.31957 0.23644 0.57663 0.0
C494 C 0.29709 0.24453 0.58544 0.0
H495 H 0.51708 0.54395 0.62321 0.0
H496 H 0.5399 0.62767 0.62937 0.0
H497 H 0.52079 0.63252 0.66701 0.0
H498 H 0.45767 0.54345 0.64959 0.0
H499 H 0.46204 0.51605 0.66473 0.0
H500 H 0.47634 0.51933 0.6377 0.0
H501 H 0.52163 0.5169 0.65785 0.0
H502 H 0.50746 0.51347 0.68491 0.0
H503 H 0.53383 0.53922 0.68361 0.0
H504 H 0.49804 0.62807 0.7041 0.0
H505 H 0.47694 0.61426 0.73848 0.0
H506 H 0.47334 0.53354 0.70921 0.0
C507 C 0.51852 0.56335 0.63248 0.0
C508 C 0.53 0.58541 0.62299 0.0
C509 C 0.53076 0.61042 0.63581 0.0
C510 C 0.52011 0.6134 0.65737 0.0
C511 C 0.50904 0.59119 0.66612 0.0
C512 C 0.50849 0.56665 0.65417 0.0
C513 C 0.49639 0.54579 0.66765 0.0
C514 C 0.47164 0.53025 0.65411 0.0
C515 C 0.516 0.52779 0.67388 0.0
C516 C 0.49015 0.56241 0.68908 0.0
C517 C 0.49727 0.58858 0.68781 0.0
C518 C 0.49261 0.60762 0.70535 0.0
C519 C 0.48057 0.59963 0.72476 0.0
C520 C 0.47377 0.57287 0.72657 0.0
C521 C 0.47864 0.55414 0.70845 0.0
H522 H 0.76901 0.33282 0.68797 0.0
H523 H 0.79737 0.26265 0.65967 0.0
H524 H 0.79402 0.27614 0.62033 0.0
H525 H 0.72157 0.33253 0.639 0.0
H526 H 0.72601 0.36745 0.6404 0.0
H527 H 0.73133 0.35269 0.66647 0.0
H528 H 0.77777 0.37854 0.67379 0.0
H529 H 0.77262 0.39334 0.64773 0.0
H530 H 0.79979 0.37599 0.65135 0.0
H531 H 0.79025 0.29839 0.58483 0.0
H532 H 0.78184 0.32579 0.55417 0.0
H533 H 0.75171 0.37958 0.60438 0.0
C534 C 0.77447 0.32037 0.67342 0.0
C535 C 0.78352 0.29679 0.67671 0.0
C536 C 0.79029 0.28075 0.6574 0.0
C537 C 0.78854 0.28829 0.63505 0.0
C538 C 0.77952 0.31166 0.63232 0.0
C539 C 0.77219 0.32729 0.65087 0.0
C540 C 0.76222 0.35096 0.64295 0.0
C541 C 0.73358 0.35089 0.64747 0.0
C542 C 0.77911 0.3762 0.65465 0.0
C543 C 0.76544 0.34634 0.6171 0.0
C544 C 0.77578 0.32372 0.61145 0.0
C545 C 0.78183 0.31596 0.58895 0.0
C546 C 0.77709 0.33167 0.5717 0.0
C547 C 0.76593 0.35457 0.57695 0.0
C548 C 0.75989 0.36192 0.5999 0.0
H549 H 0.51237 0.01488 0.58977 0.0
H550 H 0.46486 0.94541 0.60603 0.0
H551 H 0.49903 0.93993 0.63526 0.0
H552 H 0.57732 0.99711 0.60396 0.0
H553 H 0.58975 0.02954 0.61785 0.0
H554 H 0.56482 0.02465 0.59398 0.0
H555 H 0.53564 0.04997 0.61973 0.0
H556 H 0.56048 0.05508 0.64351 0.0
H557 H 0.52829 0.03974 0.64741 0.0
H558 H 0.53592 0.94436 0.66603 0.0
H559 H 0.56882 0.96182 0.69888 0.0
H560 H 0.5888 0.03135 0.66635 0.0
C561 C 0.50895 0.99836 0.59925 0.0
C562 C 0.48567 0.98046 0.595 0.0
C563 C 0.48264 0.95905 0.608 0.0
C564 C 0.502 0.95576 0.62489 0.0
C565 C 0.52425 0.97418 0.62899 0.0
C566 C 0.52764 0.99527 0.61674 0.0
C567 C 0.55111 0.01458 0.627 0.0
C568 C 0.57198 0.01658 0.60966 0.0
C569 C 0.5434 0.04141 0.63489 0.0
C570 C 0.55972 0.00159 0.64753 0.0
C571 C 0.5446 0.97781 0.64786 0.0
C572 C 0.54807 0.96281 0.66582 0.0
C573 C 0.56685 0.97281 0.68435 0.0
C574 C 0.58127 0.99785 0.68502 0.0
C575 C 0.57812 0.01204 0.66609 0.0
H576 H 0.85452 0.22759 0.7823 0.0
H577 H 0.84531 0.30455 0.765 0.0
H578 H 0.88689 0.32243 0.78756 0.0
H579 H 0.87855 0.24996 0.84189 0.0
H580 H 0.90022 0.2261 0.84296 0.0
H581 H 0.87076 0.21895 0.82385 0.0
H582 H 0.8974 0.20879 0.78874 0.0
H583 H 0.92696 0.21605 0.80771 0.0
H584 H 0.92326 0.23293 0.78267 0.0
H585 H 0.92998 0.33182 0.81144 0.0
H586 H 0.9692 0.33287 0.83813 0.0
H587 H 0.94727 0.25103 0.84374 0.0
C588 C 0.86083 0.24829 0.78341 0.0
C589 C 0.8464 0.26451 0.77157 0.0
C590 C 0.8561 0.29143 0.77331 0.0
C591 C 0.87966 0.30187 0.78627 0.0
C592 C 0.89316 0.28529 0.79776 0.0
C593 C 0.8839 0.25916 0.79675 0.0
C594 C 0.90139 0.24577 0.81172 0.0
C595 C 0.88686 0.23454 0.83126 0.0
C596 C 0.91293 0.22464 0.79681 0.0
C597 C 0.92199 0.2685 0.82133 0.0
C598 C 0.9171 0.29103 0.81274 0.0
C599 C 0.93388 0.31437 0.81845 0.0
C600 C 0.95612 0.31475 0.83352 0.0
C601 C 0.96106 0.29208 0.84306 0.0
C602 C 0.94375 0.26869 0.83688 0.0
H603 H 0.41894 0.87232 0.52948 0.0
H604 H 0.4437 0.95089 0.51493 0.0
H605 H 0.47613 0.93503 0.49037 0.0
H606 H 0.48296 0.84923 0.5281 0.0
H607 H 0.46878 0.81759 0.51348 0.0
H608 H 0.4505 0.83568 0.53308 0.0
H609 H 0.41334 0.832 0.50029 0.0
H610 H 0.43145 0.81392 0.48067 0.0
H611 H 0.42044 0.84313 0.47289 0.0
H612 H 0.503 0.91008 0.46423 0.0
H613 H 0.51967 0.87784 0.4368 0.0
H614 H 0.47606 0.81541 0.46708 0.0
C615 C 0.43165 0.88626 0.52156 0.0
C616 C 0.42927 0.91291 0.52479 0.0
C617 C 0.44566 0.93051 0.51356 0.0
C618 C 0.46415 0.92165 0.49941 0.0
C619 C 0.46588 0.89516 0.4965 0.0
C620 C 0.44997 0.87771 0.5072 0.0
C621 C 0.45368 0.84997 0.4993 0.0
C622 C 0.46464 0.83738 0.51971 0.0
C623 C 0.42822 0.83382 0.48759 0.0
C624 C 0.47353 0.85448 0.48189 0.0
C625 C 0.48073 0.88069 0.48085 0.0
C626 C 0.49774 0.88951 0.46508 0.0
C627 C 0.50714 0.87104 0.44959 0.0
C628 C 0.49919 0.84409 0.44978 0.0
C629 C 0.48265 0.83585 0.46656 0.0
H630 H 0.17374 0.34586 0.76345 0.0
H631 H 0.20008 0.27097 0.76401 0.0
H632 H 0.16874 0.2596 0.79263 0.0
H633 H 0.16565 0.3573 0.82398 0.0
H634 H 0.13713 0.37263 0.81995 0.0
H635 H 0.16106 0.37428 0.79912 0.0
H636 H 0.12575 0.35422 0.7658 0.0
H637 H 0.10168 0.35268 0.78651 0.0
H638 H 0.10603 0.32368 0.76803 0.0
H639 H 0.13459 0.2572 0.82212 0.0
H640 H 0.10015 0.26352 0.84863 0.0
H641 H 0.09727 0.34018 0.82814 0.0
C642 C 0.17276 0.32698 0.76948 0.0
C643 C 0.18918 0.30927 0.76155 0.0
C644 C 0.18755 0.2848 0.76985 0.0
C645 C 0.16986 0.27821 0.78613 0.0
C646 C 0.15407 0.29632 0.79381 0.0
C647 C 0.15534 0.32016 0.78564 0.0
C648 C 0.13655 0.33636 0.79664 0.0
C649 C 0.15097 0.36163 0.81076 0.0
C650 C 0.1163 0.34206 0.77814 0.0
C651 C 0.12447 0.31799 0.81236 0.0
C652 C 0.13474 0.29498 0.81059 0.0
C653 C 0.1264 0.27515 0.8236 0.0
C654 C 0.1069 0.27892 0.83864 0.0
C655 C 0.09604 0.30233 0.84047 0.0
C656 C 0.10515 0.32205 0.8272 0.0
H657 H 0.52507 0.64486 0.51974 0.0
H658 H 0.6036 0.6385 0.50264 0.0
H659 H 0.59847 0.66585 0.47121 0.0
H660 H 0.49728 0.64196 0.46048 0.0
H661 H 0.47569 0.66511 0.46787 0.0
H662 H 0.4855 0.64501 0.489 0.0
H663 H 0.50249 0.68613 0.51841 0.0
H664 H 0.49259 0.70633 0.49743 0.0
H665 H 0.52574 0.71128 0.50992 0.0
H666 H 0.58521 0.69492 0.44241 0.0
H667 H 0.56468 0.72365 0.4183 0.0
H668 H 0.49436 0.70985 0.45338 0.0
C669 C 0.54118 0.64927 0.50941 0.0
C670 C 0.56481 0.63971 0.51363 0.0
C671 C 0.58538 0.64575 0.49966 0.0
C672 C 0.58263 0.6612 0.48177 0.0
C673 C 0.55909 0.6703 0.47797 0.0
C674 C 0.5387 0.66454 0.49136 0.0
C675 C 0.5155 0.67686 0.4837 0.0
C676 C 0.49212 0.65598 0.47473 0.0
C677 C 0.50869 0.69631 0.50355 0.0
C678 C 0.52611 0.6906 0.46408 0.0
C679 C 0.55128 0.68658 0.46105 0.0
C680 C 0.56543 0.69806 0.4445 0.0
C681 C 0.55361 0.71432 0.43088 0.0
C682 C 0.52787 0.71883 0.4338 0.0
C683 C 0.51394 0.70652 0.45048 0.0
H684 H 0.8822 0.7736 0.77043 0.0
H685 H 0.87185 0.85474 0.77439 0.0
H686 H 0.91055 0.86382 0.75313 0.0
H687 H 0.9545 0.78446 0.77489 0.0
H688 H 0.95592 0.75635 0.75408 0.0
H689 H 0.92941 0.75669 0.77234 0.0
H690 H 0.89661 0.74654 0.73568 0.0
H691 H 0.92295 0.74616 0.71737 0.0
H692 H 0.89923 0.76748 0.7132 0.0
H693 H 0.94703 0.8635 0.72823 0.0
H694 H 0.97881 0.85362 0.70031 0.0
H695 H 0.96617 0.77263 0.71193 0.0
C696 C 0.88849 0.79334 0.76721 0.0
C697 C 0.87412 0.81346 0.77403 0.0
C698 C 0.88254 0.839 0.76922 0.0
C699 C 0.9046 0.8444 0.75729 0.0
C700 C 0.91807 0.82407 0.75033 0.0
C701 C 0.91043 0.79904 0.75511 0.0
C702 C 0.92707 0.78037 0.74385 0.0
C703 C 0.94265 0.76879 0.7624 0.0
C704 C 0.91047 0.75888 0.72649 0.0
C705 C 0.94467 0.79871 0.73145 0.0
C706 C 0.93933 0.82387 0.73573 0.0
C707 C 0.95169 0.84397 0.72499 0.0
C708 C 0.96966 0.83813 0.70911 0.0
C709 C 0.97509 0.81239 0.70404 0.0
C710 C 0.96278 0.79257 0.71577 0.0
H711 H 0.11675 0.9209 0.53449 0.0
H712 H 0.05111 0.95817 0.5141 0.0
H713 H 0.02708 0.9402 0.54503 0.0
H714 H 0.07939 0.86217 0.5447 0.0
H715 H 0.10041 0.85717 0.56921 0.0
H716 H 0.11344 0.875 0.54697 0.0
H717 H 0.13154 0.914 0.57836 0.0
H718 H 0.11836 0.89631 0.60069 0.0
H719 H 0.10987 0.92796 0.5974 0.0
H720 H 0.00946 0.91697 0.57659 0.0
H721 H 0.99759 0.88673 0.60473 0.0
H722 H 0.07395 0.86296 0.60435 0.0
C723 C 0.09741 0.92542 0.53676 0.0
C724 C 0.08576 0.94089 0.522 0.0
C725 C 0.06033 0.94624 0.52517 0.0
C726 C 0.04661 0.93629 0.5428 0.0
C727 C 0.05856 0.92098 0.55702 0.0
C728 C 0.08329 0.91534 0.55412 0.0
C729 C 0.09077 0.89671 0.57063 0.0
C730 C 0.09632 0.87126 0.55706 0.0
C731 C 0.11402 0.90952 0.58779 0.0
C732 C 0.0662 0.89242 0.58294 0.0
C733 C 0.04808 0.90697 0.57505 0.0
C734 C 0.02351 0.90559 0.58302 0.0
C735 C 0.01697 0.88833 0.59903 0.0
C736 C 0.03485 0.8725 0.60678 0.0
C737 C 0.05999 0.87503 0.59898 0.0
H738 H 0.2053 0.78042 0.73987 0.0
H739 H 0.20104 0.69652 0.72792 0.0
H740 H 0.16013 0.69345 0.70287 0.0
H741 H 0.14007 0.78213 0.74525 0.0
H742 H 0.13789 0.81018 0.73041 0.0
H743 H 0.16829 0.80614 0.745 0.0
H744 H 0.19055 0.8094 0.70674 0.0
H745 H 0.16021 0.81369 0.69202 0.0
H746 H 0.17732 0.78796 0.68073 0.0
H747 H 0.11712 0.69908 0.68414 0.0
H748 H 0.07643 0.71319 0.66981 0.0
H749 H 0.10954 0.7937 0.69219 0.0
C750 C 0.19604 0.76144 0.73161 0.0
C751 C 0.20619 0.73863 0.73581 0.0
C752 C 0.19353 0.71418 0.72477 0.0
C753 C 0.17033 0.71227 0.71057 0.0
C754 C 0.16038 0.73507 0.70734 0.0
C755 C 0.17303 0.75924 0.71721 0.0
C756 C 0.15758 0.78061 0.71193 0.0
C757 C 0.15054 0.79564 0.73449 0.0
C758 C 0.1723 0.799 0.69696 0.0
C759 C 0.13382 0.76461 0.69823 0.0
C760 C 0.13587 0.73839 0.69576 0.0
C761 C 0.11551 0.71957 0.6855 0.0
C762 C 0.09245 0.72776 0.67756 0.0
C763 C 0.09003 0.75452 0.67972 0.0
C764 C 0.11111 0.77317 0.68992 0.0
H765 H 0.97848 0.63082 0.52354 0.0
H766 H 0.91238 0.65684 0.48913 0.0
H767 H 0.92167 0.6989 0.51492 0.0
H768 H 0.96788 0.65635 0.57989 0.0
H769 H 0.00168 0.66544 0.59005 0.0
H770 H 0.99189 0.63891 0.56705 0.0
H771 H 0.02312 0.66133 0.54027 0.0
H772 H 0.03321 0.68786 0.56329 0.0
H773 H 0.02076 0.69424 0.53513 0.0
H774 H 0.93693 0.73699 0.54581 0.0
H775 H 0.95606 0.76776 0.58035 0.0
H776 H 0.0107 0.71541 0.59558 0.0
C777 C 0.96643 0.64569 0.5211 0.0
C778 C 0.945 0.64097 0.50425 0.0
C779 C 0.92903 0.66039 0.50191 0.0
C780 C 0.93418 0.68425 0.5164 0.0
C781 C 0.95523 0.68816 0.5332 0.0
C782 C 0.97107 0.6694 0.53563 0.0
C783 C 0.99111 0.67753 0.55622 0.0
C784 C 0.98793 0.65842 0.57437 0.0
C785 C 0.01868 0.68042 0.54824 0.0
C786 C 0.98382 0.70361 0.56521 0.0
C787 C 0.96334 0.70959 0.55153 0.0
C788 C 0.95305 0.73258 0.55661 0.0
C789 C 0.96401 0.7499 0.57625 0.0
C790 C 0.98475 0.74389 0.59069 0.0
C791 C 0.99474 0.72047 0.58497 0.0
H792 H 0.80016 0.89455 0.21598 0.0
H793 H 0.7789 0.87568 0.28369 0.0
H794 H 0.80431 0.91698 0.30232 0.0
H795 H 0.86594 0.92065 0.23551 0.0
H796 H 0.86788 0.94543 0.2164 0.0
H797 H 0.84617 0.91541 0.20816 0.0
H798 H 0.80776 0.94128 0.20308 0.0
H799 H 0.82935 0.97141 0.2115 0.0
H800 H 0.80112 0.96399 0.22701 0.0
H801 H 0.83253 0.9599 0.3138 0.0
H802 H 0.86491 0.99952 0.31773 0.0
H803 H 0.87032 0.9889 0.24294 0.0
C804 C 0.80092 0.89892 0.23474 0.0
C805 C 0.78715 0.88185 0.24826 0.0
C806 C 0.78863 0.88863 0.27278 0.0
C807 C 0.80314 0.91203 0.28359 0.0
C808 C 0.81634 0.92837 0.26971 0.0
C809 C 0.81563 0.922 0.24587 0.0
C810 C 0.83284 0.94223 0.23513 0.0
C811 C 0.85449 0.93021 0.2231 0.0
C812 C 0.8168 0.95551 0.21818 0.0
C813 C 0.84356 0.96082 0.25674 0.0
C814 C 0.83346 0.95266 0.27644 0.0
C815 C 0.84058 0.96651 0.2985 0.0
C816 C 0.85893 0.98904 0.30053 0.0
C817 C 0.8702 0.99729 0.28065 0.0
C818 C 0.86209 0.9831 0.25846 0.0
H819 H 0.82416 0.21629 0.29325 0.0
H820 H 0.80371 0.21888 0.36471 0.0
H821 H 0.83497 0.18927 0.3725 0.0
H822 H 0.82701 0.14902 0.28504 0.0
H823 H 0.85369 0.15128 0.26697 0.0
H824 H 0.83217 0.1753 0.26768 0.0
H825 H 0.87134 0.21179 0.27933 0.0
H826 H 0.89301 0.18783 0.27874 0.0
H827 H 0.89292 0.21051 0.30466 0.0
H828 H 0.86561 0.15688 0.37199 0.0
H829 H 0.89234 0.12243 0.36278 0.0
H830 H 0.89188 0.13905 0.29124 0.0
C831 C 0.82627 0.21077 0.31059 0.0
C832 C 0.81154 0.22031 0.32842 0.0
C833 C 0.81513 0.21252 0.35087 0.0
C834 C 0.83279 0.19555 0.35546 0.0
C835 C 0.84672 0.18636 0.33745 0.0
C836 C 0.84364 0.19361 0.31544 0.0
C837 C 0.85958 0.17937 0.29874 0.0
C838 C 0.84206 0.16276 0.27842 0.0
C839 C 0.88045 0.19852 0.28985 0.0
C840 C 0.87161 0.16254 0.3147 0.0
C841 C 0.86418 0.16718 0.33703 0.0
C842 C 0.87176 0.15323 0.35463 0.0
C843 C 0.88694 0.13367 0.3492 0.0
C844 C 0.8943 0.12808 0.32631 0.0
C845 C 0.88687 0.14308 0.30897 0.0
H846 H 0.39186 0.0406 0.99787 0.0
H847 H 0.43797 0.98317 0.9705 0.0
H848 H 0.40907 0.94875 0.98595 0.0
H849 H 0.37587 0.01283 0.05063 0.0
H850 H 0.34326 0.02042 0.04872 0.0
H851 H 0.36876 0.04067 0.03723 0.0
H852 H 0.3424 0.03373 0.99686 0.0
H853 H 0.31672 0.01384 0.00833 0.0
H854 H 0.3311 0.00109 0.98288 0.0
H855 H 0.37458 0.92084 0.00378 0.0
H856 H 0.33386 0.90035 0.01715 0.0
H857 H 0.3096 0.97625 0.03144 0.0
C858 C 0.39592 0.02077 0.99532 0.0
C859 C 0.41709 0.01436 0.98321 0.0
C860 C 0.42172 0.98827 0.97974 0.0
C861 C 0.40561 0.96875 0.98865 0.0
C862 C 0.38499 0.97577 0.00078 0.0
C863 C 0.37991 0.0011 0.00381 0.0
C864 C 0.35534 0.00328 0.01571 0.0
C865 C 0.36117 0.02031 0.03949 0.0
C866 C 0.3352 0.01358 0.0 0.0
C867 C 0.34703 0.97509 0.01853 0.0
C868 C 0.36468 0.95961 0.01031 0.0
C869 C 0.36068 0.93277 0.01035 0.0
C870 C 0.33753 0.92133 0.01811 0.0
C871 C 0.31852 0.93671 0.02531 0.0
C872 C 0.3238 0.964 0.02616 0.0
H873 H 0.26668 0.37476 0.33527 0.0
H874 H 0.25027 0.33201 0.2658 0.0
H875 H 0.21579 0.35847 0.25757 0.0
H876 H 0.19958 0.38218 0.34536 0.0
H877 H 0.20879 0.41441 0.36096 0.0
H878 H 0.23087 0.39092 0.36163 0.0
H879 H 0.26618 0.42305 0.34655 0.0
H880 H 0.24421 0.44656 0.34573 0.0
H881 H 0.25908 0.43607 0.31983 0.0
H882 H 0.18451 0.39145 0.25648 0.0
H883 H 0.15953 0.42821 0.26257 0.0
H884 H 0.1967 0.44842 0.3329 0.0
C885 C 0.25548 0.37054 0.31849 0.0
C886 C 0.26108 0.35124 0.30121 0.0
C887 C 0.2464 0.34683 0.27925 0.0
C888 C 0.2267 0.36164 0.27447 0.0
C889 C 0.22188 0.38072 0.29186 0.0
C890 C 0.23583 0.3851 0.31345 0.0
C891 C 0.22778 0.40748 0.32881 0.0
C892 C 0.21605 0.39818 0.35047 0.0
C893 C 0.25067 0.42959 0.33562 0.0
C894 C 0.20739 0.41532 0.31239 0.0
C895 C 0.20408 0.39959 0.2912 0.0
C896 C 0.18681 0.40375 0.27307 0.0
C897 C 0.17272 0.42467 0.27668 0.0
C898 C 0.17612 0.44115 0.29821 0.0
C899 C 0.19354 0.43614 0.31627 0.0
H900 H 0.17087 0.03365 0.44233 0.0
H901 H 0.13896 0.04271 0.50936 0.0
H902 H 0.17541 0.07736 0.52414 0.0
H903 H 0.23901 0.04492 0.46515 0.0
H904 H 0.24939 0.0624 0.44171 0.0
H905 H 0.22141 0.03749 0.43675 0.0
H906 H 0.1937 0.07057 0.42193 0.0
H907 H 0.22154 0.0956 0.42693 0.0
H908 H 0.1922 0.10053 0.44029 0.0
H909 H 0.21316 0.11278 0.53068 0.0
H910 H 0.25175 0.1453 0.52963 0.0
H911 H 0.26019 0.11264 0.45865 0.0
C912 C 0.1717 0.04286 0.46016 0.0
C913 C 0.15222 0.03551 0.47478 0.0
C914 C 0.15391 0.04786 0.49802 0.0
C915 C 0.17443 0.06761 0.5065 0.0
C916 C 0.19316 0.07459 0.49157 0.0
C917 C 0.19217 0.06245 0.46897 0.0
C918 C 0.21465 0.07393 0.45648 0.0
C919 C 0.23215 0.05346 0.44963 0.0
C920 C 0.20493 0.08587 0.43515 0.0
C921 C 0.22819 0.0947 0.47549 0.0
C922 C 0.2154 0.09475 0.49554 0.0
C923 C 0.22352 0.11279 0.51517 0.0
C924 C 0.24539 0.13126 0.51435 0.0
C925 C 0.25901 0.13144 0.49408 0.0
C926 C 0.25031 0.11281 0.47445 0.0
H927 H 0.75415 0.17896 0.72213 0.0
H928 H 0.77333 0.20977 0.79518 0.0
H929 H 0.74798 0.17068 0.80638 0.0
H930 H 0.68796 0.15423 0.72889 0.0
H931 H 0.68694 0.12625 0.70729 0.0
H932 H 0.70826 0.15579 0.70507 0.0
H933 H 0.74732 0.13022 0.70404 0.0
H934 H 0.72614 0.10064 0.70647 0.0
H935 H 0.75391 0.11145 0.72728 0.0
H936 H 0.7207 0.128 0.80971 0.0
H937 H 0.68968 0.08718 0.80486 0.0
H938 H 0.68523 0.08649 0.72983 0.0
C939 C 0.7529 0.17776 0.74051 0.0
C940 C 0.76616 0.19749 0.75771 0.0
C941 C 0.76405 0.19472 0.78157 0.0
C942 C 0.74953 0.17262 0.78816 0.0
C943 C 0.73689 0.15358 0.77073 0.0
C944 C 0.73811 0.15611 0.7474 0.0
C945 C 0.72154 0.13356 0.7321 0.0
C946 C 0.69989 0.14303 0.71748 0.0
C947 C 0.73823 0.11805 0.71656 0.0
C948 C 0.71071 0.11802 0.75049 0.0
C949 C 0.72013 0.12966 0.77265 0.0
C950 C 0.7131 0.11874 0.79245 0.0
C951 C 0.69558 0.09552 0.78952 0.0
C952 C 0.68501 0.08378 0.76699 0.0
C953 C 0.6929 0.09512 0.74727 0.0
H954 H 0.40058 0.04319 0.56981 0.0
H955 H 0.47216 0.04468 0.53636 0.0
H956 H 0.46474 0.0855 0.52113 0.0
H957 H 0.36395 0.0632 0.52634 0.0
H958 H 0.34628 0.08339 0.54474 0.0
H959 H 0.35911 0.05663 0.55564 0.0
H960 H 0.38416 0.08791 0.59042 0.0
H961 H 0.37128 0.11485 0.57965 0.0
H962 H 0.40584 0.11601 0.58496 0.0
H963 H 0.445 0.12042 0.50337 0.0
H964 H 0.41666 0.14976 0.48782 0.0
H965 H 0.36034 0.12868 0.53612 0.0
C966 C 0.415 0.05264 0.55986 0.0
C967 C 0.43698 0.04111 0.55428 0.0
C968 C 0.45538 0.05356 0.54097 0.0
C969 C 0.4513 0.07667 0.53226 0.0
C970 C 0.42905 0.0873 0.53757 0.0
C971 C 0.4115 0.07601 0.55151 0.0
C972 C 0.3884 0.09041 0.55347 0.0
C973 C 0.36295 0.07233 0.5445 0.0
C974 C 0.38737 0.10305 0.57862 0.0
C975 C 0.39501 0.11075 0.53751 0.0
C976 C 0.41856 0.10867 0.5285 0.0
C977 C 0.42702 0.12292 0.51092 0.0
C978 C 0.41086 0.13947 0.50217 0.0
C979 C 0.38688 0.14195 0.51137 0.0
C980 C 0.37916 0.12787 0.52957 0.0
H981 H 0.59925 0.5332 0.59185 0.0
H982 H 0.54588 0.52488 0.52987 0.0
H983 H 0.5647 0.48681 0.5133 0.0
H984 H 0.65277 0.52055 0.56341 0.0
H985 H 0.66636 0.50266 0.58471 0.0
H986 H 0.64601 0.52644 0.59347 0.0
H987 H 0.61574 0.49156 0.61076 0.0
H988 H 0.63605 0.46759 0.60202 0.0
H989 H 0.6019 0.46178 0.59263 0.0
H990 H 0.59288 0.45467 0.50097 0.0
H991 H 0.62911 0.4301 0.49349 0.0
H992 H 0.66412 0.45741 0.56357 0.0
C993 C 0.5911 0.52282 0.5751 0.0
C994 C 0.57109 0.53182 0.56211 0.0
C995 C 0.56127 0.51826 0.54001 0.0
C996 C 0.5717 0.49653 0.53056 0.0
C997 C 0.59185 0.48848 0.54349 0.0
C998 C 0.60142 0.50106 0.56534 0.0
C999 C 0.62493 0.49001 0.57445 0.0
C1000 C 0.64893 0.51117 0.57928 0.0
C1001 C 0.61931 0.47695 0.59626 0.0
C1002 C 0.62768 0.47004 0.5539 0.0
C1003 C 0.60812 0.46929 0.53639 0.0
C1004 C 0.60792 0.45455 0.51473 0.0
C1005 C 0.62856 0.4407 0.51062 0.0
C1006 C 0.64898 0.4415 0.52812 0.0
C1007 C 0.64821 0.4558 0.55022 0.0
H1008 H 0.76942 0.26874 0.38448 0.0
H1009 H 0.74779 0.31781 0.33317 0.0
H1010 H 0.73051 0.34562 0.36364 0.0
H1011 H 0.71702 0.27339 0.4199 0.0
H1012 H 0.7366 0.27595 0.44714 0.0
H1013 H 0.74621 0.25868 0.42118 0.0
H1014 H 0.79094 0.28806 0.42652 0.0
H1015 H 0.78167 0.30503 0.45275 0.0
H1016 H 0.7923 0.3229 0.42961 0.0
H1017 H 0.71374 0.36704 0.39913 0.0
H1018 H 0.70662 0.38606 0.43869 0.0
H1019 H 0.74352 0.32625 0.46771 0.0
C1020 C 0.76149 0.28552 0.37957 0.0
C1021 C 0.75949 0.29053 0.35611 0.0
C1022 C 0.74877 0.31282 0.35074 0.0
C1023 C 0.73897 0.32888 0.36797 0.0
C1024 C 0.74052 0.32285 0.39067 0.0
C1025 C 0.75217 0.30218 0.39665 0.0
C1026 C 0.75298 0.3011 0.42267 0.0
C1027 C 0.73726 0.27577 0.42802 0.0
C1028 C 0.78115 0.30449 0.43353 0.0
C1029 C 0.73996 0.32443 0.43032 0.0
C1030 C 0.7324 0.33631 0.41149 0.0
C1031 C 0.71972 0.35804 0.41406 0.0
C1032 C 0.71555 0.36855 0.43659 0.0
C1033 C 0.72453 0.35764 0.45627 0.0
C1034 C 0.73642 0.33497 0.45299 0.0
H1035 H 0.4958 0.99704 0.88697 0.0
H1036 H 0.46499 0.06821 0.87787 0.0
H1037 H 0.48913 0.07249 0.84299 0.0
H1038 H 0.55849 0.01965 0.8744 0.0
H1039 H 0.56462 0.98906 0.85971 0.0
H1040 H 0.54198 0.98949 0.88165 0.0
H1041 H 0.50618 0.96196 0.85218 0.0
H1042 H 0.52878 0.96134 0.83013 0.0
H1043 H 0.49841 0.97313 0.8247 0.0
H1044 H 0.51882 0.07036 0.8107 0.0
H1045 H 0.55376 0.06362 0.78503 0.0
H1046 H 0.56704 0.99528 0.81704 0.0
C1047 C 0.4937 0.01315 0.87725 0.0
C1048 C 0.47844 0.03216 0.88482 0.0
C1049 C 0.47657 0.05341 0.87218 0.0
C1050 C 0.4901 0.05592 0.85235 0.0
C1051 C 0.50551 0.03712 0.84558 0.0
C1052 C 0.50745 0.01619 0.85772 0.0
C1053 C 0.52728 0.00014 0.84833 0.0
C1054 C 0.5494 -0.00043 0.86714 0.0
C1055 C 0.51438 0.9725 0.83823 0.0
C1056 C 0.53657 0.01557 0.82932 0.0
C1057 C 0.52344 0.03654 0.82769 0.0
C1058 C 0.52913 0.05393 0.81172 0.0
C1059 C 0.54898 0.04994 0.79722 0.0
C1060 C 0.56316 0.029 0.79912 0.0
C1061 C 0.5566 0.01151 0.81523 0.0
H1062 H 0.32421 0.26989 0.3428 0.0
H1063 H 0.30369 0.34254 0.37509 0.0
H1064 H 0.30942 0.328 0.41378 0.0
H1065 H 0.29172 0.22942 0.37908 0.0
H1066 H 0.31596 0.20816 0.38037 0.0
H1067 H 0.31188 0.22497 0.35539 0.0
H1068 H 0.36046 0.24495 0.36129 0.0
H1069 H 0.3647 0.22818 0.38634 0.0
H1070 H 0.37353 0.26299 0.38901 0.0
H1071 H 0.31468 0.30455 0.44859 0.0
H1072 H 0.31885 0.27368 0.47711 0.0
H1073 H 0.33713 0.21674 0.42232 0.0
C1074 C 0.32137 0.28293 0.35805 0.0
C1075 C 0.31344 0.30733 0.35591 0.0
C1076 C 0.30945 0.32362 0.37627 0.0
C1077 C 0.31286 0.31563 0.39833 0.0
C1078 C 0.32043 0.29136 0.39979 0.0
C1079 C 0.32473 0.27528 0.38022 0.0
C1080 C 0.33163 0.24967 0.3865 0.0
C1081 C 0.3116 0.22671 0.37463 0.0
C1082 C 0.35922 0.24626 0.38042 0.0
C1083 C 0.33009 0.2537 0.41261 0.0
C1084 C 0.32375 0.27794 0.41994 0.0
C1085 C 0.31993 0.28562 0.44311 0.0
C1086 C 0.32231 0.26793 0.45917 0.0
C1087 C 0.32848 0.24285 0.452 0.0
C1088 C 0.33278 0.23589 0.42845 0.0
H1089 H 0.57543 0.5029 0.89858 0.0
H1090 H 0.52725 0.49985 0.9563 0.0
H1091 H 0.49355 0.51798 0.93395 0.0
H1092 H 0.55944 0.56193 0.88036 0.0
H1093 H 0.55849 0.55103 0.84961 0.0
H1094 H 0.57899 0.5379 0.87001 0.0
H1095 H 0.55679 0.49115 0.8541 0.0
H1096 H 0.53648 0.50412 0.83343 0.0
H1097 H 0.52201 0.48338 0.85312 0.0
H1098 H 0.46669 0.53886 0.90665 0.0
H1099 H 0.44457 0.55486 0.87366 0.0
H1100 H 0.50847 0.54146 0.83199 0.0
C1101 C 0.55761 0.50583 0.9063 0.0
C1102 C 0.55371 0.5 0.92904 0.0
C1103 C 0.53032 0.50402 0.93878 0.0
C1104 C 0.51124 0.51448 0.92631 0.0
C1105 C 0.51579 0.52042 0.90405 0.0
C1106 C 0.53811 0.51575 0.89389 0.0
C1107 C 0.53762 0.52299 0.86934 0.0
C1108 C 0.55997 0.54476 0.86722 0.0
C1109 C 0.53825 0.49898 0.85144 0.0
C1110 C 0.5116 0.53261 0.86737 0.0
C1111 C 0.4996 0.53135 0.88777 0.0
C1112 C 0.47576 0.53973 0.89051 0.0
C1113 C 0.46344 0.54897 0.87168 0.0
C1114 C 0.47474 0.54938 0.85019 0.0
C1115 C 0.49932 0.54134 0.84816 0.0
H1116 H 0.7346 0.79949 0.16646 0.0
H1117 H 0.813 0.80762 0.19918 0.0
H1118 H 0.82711 0.78641 0.16278 0.0
H1119 H 0.73423 0.73646 0.1329 0.0
H1120 H 0.71546 0.74428 0.10815 0.0
H1121 H 0.71169 0.75939 0.13701 0.0
H1122 H 0.72215 0.80484 0.12354 0.0
H1123 H 0.72618 0.78987 0.0947 0.0
H1124 H 0.75201 0.81309 0.11052 0.0
H1125 H 0.83256 0.76446 0.12239 0.0
H1126 H 0.82873 0.74333 0.08153 0.0
H1127 H 0.74686 0.7505 0.07559 0.0
C1128 C 0.75465 0.79645 0.16608 0.0
C1129 C 0.7727 0.80509 0.18565 0.0
C1130 C 0.79889 0.80125 0.18432 0.0
C1131 C 0.80706 0.78918 0.16376 0.0
C1132 C 0.78882 0.78116 0.14468 0.0
C1133 C 0.76315 0.78461 0.14569 0.0
C1134 C 0.74748 0.77476 0.12266 0.0
C1135 C 0.72595 0.75239 0.12535 0.0
C1136 C 0.73631 0.79697 0.11225 0.0
C1137 C 0.76831 0.76519 0.10851 0.0
C1138 C 0.79203 0.76898 0.12148 0.0
C1139 C 0.81408 0.76143 0.11207 0.0
C1140 C 0.81174 0.74949 0.08885 0.0
C1141 C 0.78755 0.74536 0.07533 0.0
C1142 C 0.76568 0.75351 0.08538 0.0
H1143 H 0.0286 0.04639 0.12104 0.0
H1144 H 0.03773 0.13026 0.12286 0.0
H1145 H 0.01406 0.13352 0.15833 0.0
H1146 H 0.96484 0.03797 0.1401 0.0
H1147 H 0.97094 0.01266 0.15732 0.0
H1148 H 0.98833 0.01711 0.13205 0.0
H1149 H 0.03206 0.02201 0.15735 0.0
H1150 H 0.01481 0.01738 0.18266 0.0
H1151 H 0.03833 0.04604 0.18283 0.0
H1152 H 0.98945 0.12722 0.19414 0.0
H1153 H 0.96715 0.11198 0.22738 0.0
H1154 H 0.97514 0.03247 0.20151 0.0
C1155 C 0.02594 0.06551 0.12901 0.0
C1156 C 0.03512 0.08808 0.11921 0.0
C1157 C 0.03069 0.11266 0.12996 0.0
C1158 C 0.01734 0.11471 0.15014 0.0
C1159 C 0.00852 0.092 0.1593 0.0
C1160 C 0.01273 0.06789 0.14907 0.0
C1161 C 0.00153 0.04642 0.16229 0.0
C1162 C 0.98014 0.02743 0.14703 0.0
C1163 C 0.02296 0.03213 0.17185 0.0
C1164 C 0.99043 0.06218 0.18167 0.0
C1165 C 0.99453 0.08843 0.17968 0.0
C1166 C 0.98611 0.1067 0.19583 0.0
C1167 C 0.97343 0.09788 0.21461 0.0
C1168 C 0.96937 0.07105 0.21703 0.0
C1169 C 0.97787 0.0531 0.20017 0.0
H1170 H 0.27027 0.82071 0.19006 0.0
H1171 H 0.25932 0.73898 0.16207 0.0
H1172 H 0.24889 0.75027 0.12273 0.0
H1173 H 0.21747 0.83796 0.15229 0.0
H1174 H 0.23503 0.86938 0.14938 0.0
H1175 H 0.2406 0.85481 0.17553 0.0
H1176 H 0.2897 0.85914 0.16997 0.0
H1177 H 0.28429 0.87372 0.14385 0.0
H1178 H 0.30013 0.8452 0.14292 0.0
H1179 H 0.2441 0.77063 0.08614 0.0
H1180 H 0.24232 0.79863 0.05483 0.0
H1181 H 0.25278 0.86701 0.10656 0.0
C1182 C 0.2654 0.80523 0.17564 0.0
C1183 C 0.26554 0.77901 0.17904 0.0
C1184 C 0.25915 0.75919 0.15985 0.0
C1185 C 0.25322 0.76542 0.13745 0.0
C1186 C 0.25337 0.79149 0.13463 0.0
C1187 C 0.25897 0.81108 0.15322 0.0
C1188 C 0.25813 0.83757 0.14535 0.0
C1189 C 0.23652 0.8507 0.15629 0.0
C1190 C 0.28464 0.85492 0.15085 0.0
C1191 C 0.25182 0.82985 0.11935 0.0
C1192 C 0.24926 0.80317 0.11356 0.0
C1193 C 0.24553 0.79149 0.09048 0.0
C1194 C 0.24459 0.80751 0.07284 0.0
C1195 C 0.24694 0.83483 0.07839 0.0
C1196 C 0.25022 0.8461 0.10194 0.0
H1197 H 0.0053 0.50576 0.11741 0.0
H1198 H 0.0044 0.58932 0.12456 0.0
H1199 H 0.02241 0.59316 0.1651 0.0
H1200 H 0.9923 0.49544 0.17661 0.0
H1201 H 0.01499 0.47268 0.17873 0.0
H1202 H 0.99896 0.47551 0.15083 0.0
H1203 H 0.04352 0.48477 0.13417 0.0
H1204 H 0.05968 0.48193 0.16198 0.0
H1205 H 0.06736 0.51105 0.14859 0.0
H1206 H 0.04163 0.58888 0.20415 0.0
H1207 H 0.06449 0.57726 0.23892 0.0
H1208 H 0.05763 0.49727 0.20611 0.0
C1209 C 0.00884 0.52492 0.12738 0.0
C1210 C 0.00273 0.54713 0.11759 0.0
C1211 C 0.00781 0.57175 0.13159 0.0
C1212 C 0.01833 0.57424 0.1547 0.0
C1213 C 0.02418 0.55206 0.16362 0.0
C1214 C 0.01994 0.52791 0.1504 0.0
C1215 C 0.02999 0.50763 0.16382 0.0
C1216 C 0.00773 0.48657 0.16773 0.0
C1217 C 0.05141 0.49565 0.1514 0.0
C1218 C 0.04078 0.52432 0.18651 0.0
C1219 C 0.03675 0.54978 0.18605 0.0
C1220 C 0.04492 0.56901 0.20477 0.0
C1221 C 0.05787 0.56216 0.22447 0.0
C1222 C 0.0629 0.53636 0.22524 0.0
C1223 C 0.05408 0.51715 0.20601 0.0
H1224 H 0.34889 0.7118 0.27898 0.0
H1225 H 0.33796 0.78838 0.26186 0.0
H1226 H 0.38035 0.80666 0.28277 0.0
H1227 H 0.37312 0.73394 0.33694 0.0
H1228 H 0.39557 0.71085 0.33833 0.0
H1229 H 0.36645 0.70288 0.31887 0.0
H1230 H 0.39385 0.69385 0.28408 0.0
H1231 H 0.42311 0.70178 0.30345 0.0
H1232 H 0.41929 0.71865 0.2784 0.0
H1233 H 0.42249 0.81725 0.30763 0.0
H1234 H 0.45984 0.82003 0.33663 0.0
H1235 H 0.44098 0.73746 0.341 0.0
C1236 C 0.35522 0.73244 0.27955 0.0
C1237 C 0.33983 0.74854 0.26857 0.0
C1238 C 0.34942 0.77539 0.26958 0.0
C1239 C 0.37348 0.78604 0.28158 0.0
C1240 C 0.38768 0.76969 0.29268 0.0
C1241 C 0.37883 0.7435 0.29191 0.0
C1242 C 0.39659 0.73062 0.30711 0.0
C1243 C 0.38206 0.71889 0.32646 0.0
C1244 C 0.40894 0.71001 0.29238 0.0
C1245 C 0.41655 0.75381 0.31697 0.0
C1246 C 0.41133 0.77603 0.30801 0.0
C1247 C 0.42682 0.79997 0.31469 0.0
C1248 C 0.44802 0.80132 0.33117 0.0
C1249 C 0.4533 0.77896 0.34113 0.0
C1250 C 0.43742 0.75488 0.33374 0.0
H1251 H 0.99296 0.42953 0.03243 0.0
H1252 H 0.03141 0.49554 0.00329 0.0
H1253 H 0.04674 0.46563 0.97279 0.0
H1254 H 0.0404 0.38555 0.02037 0.0
H1255 H 0.016 0.35735 0.01261 0.0
H1256 H 0.00999 0.38382 0.03339 0.0
H1257 H 0.96808 0.38781 0.0083 0.0
H1258 H 0.9739 0.36131 0.98754 0.0
H1259 H 0.96984 0.39217 0.97808 0.0
H1260 H 0.05678 0.42878 0.94498 0.0
H1261 H 0.05775 0.38784 0.91955 0.0
H1262 H 0.01091 0.34557 0.9656 0.0
C1263 C 0.00486 0.43759 0.01975 0.0
C1264 C 0.01114 0.46474 0.02018 0.0
C1265 C 0.02637 0.47476 0.00318 0.0
C1266 C 0.03528 0.45793 0.9859 0.0
C1267 C 0.0286 0.43121 0.98583 0.0
C1268 C 0.01354 0.42108 0.00216 0.0
C1269 C 0.0075 0.3917 0.99715 0.0
C1270 C 0.01918 0.37885 0.01707 0.0
C1271 C 0.97809 0.38273 0.99248 0.0
C1272 C 0.02125 0.38692 0.97527 0.0
C1273 C 0.03365 0.40995 0.96928 0.0
C1274 C 0.04721 0.41062 0.94952 0.0
C1275 C 0.04769 0.3872 0.9352 0.0
C1276 C 0.03438 0.36343 0.94052 0.0
C1277 C 0.02134 0.36336 0.96106 0.0
H1278 H 0.66148 0.85918 0.27938 0.0
H1279 H 0.68599 0.78307 0.27165 0.0
H1280 H 0.6569 0.76948 0.3013 0.0
H1281 H 0.65655 0.86495 0.34131 0.0
H1282 H 0.62823 0.881 0.33994 0.0
H1283 H 0.65131 0.88468 0.3185 0.0
H1284 H 0.61476 0.86815 0.28539 0.0
H1285 H 0.59155 0.86466 0.3067 0.0
H1286 H 0.59481 0.83725 0.28573 0.0
H1287 H 0.62446 0.76442 0.33183 0.0
H1288 H 0.58989 0.76746 0.35866 0.0
H1289 H 0.58712 0.84702 0.34579 0.0
C1290 C 0.66068 0.83964 0.28393 0.0
C1291 C 0.67588 0.82216 0.27327 0.0
C1292 C 0.67441 0.79674 0.27959 0.0
C1293 C 0.65804 0.78891 0.29647 0.0
C1294 C 0.64337 0.80675 0.30679 0.0
C1295 C 0.64448 0.83154 0.30063 0.0
C1296 C 0.62636 0.84687 0.31375 0.0
C1297 C 0.64153 0.87079 0.3293 0.0
C1298 C 0.60564 0.85468 0.29688 0.0
C1299 C 0.61466 0.82679 0.32817 0.0
C1300 C 0.6248 0.80382 0.3241 0.0
C1301 C 0.61645 0.78235 0.33519 0.0
C1302 C 0.59688 0.78428 0.35046 0.0
C1303 C 0.58583 0.80748 0.35437 0.0
C1304 C 0.59521 0.82904 0.34328 0.0
H1305 H 0.08397 0.14751 0.99128 0.0
H1306 H 0.00826 0.1207 0.01315 0.0
H1307 H 0.98838 0.14844 0.98788 0.0
H1308 H 0.07498 0.21285 0.99126 0.0
H1309 H 0.09207 0.21815 0.96593 0.0
H1310 H 0.10033 0.1941 0.98371 0.0
H1311 H 0.09228 0.15889 0.94759 0.0
H1312 H 0.08406 0.18289 0.92964 0.0
H1313 H 0.06154 0.15369 0.93031 0.0
H1314 H 0.97701 0.18137 0.96344 0.0
H1315 H 0.97458 0.21778 0.94062 0.0
H1316 H 0.05733 0.22411 0.93377 0.0
C1317 C 0.06315 0.14717 0.99033 0.0
C1318 C 0.04765 0.13199 0.00416 0.0
C1319 C 0.02054 0.13227 0.00281 0.0
C1320 C 0.00903 0.14788 0.98842 0.0
C1321 C 0.02485 0.16308 0.97541 0.0
C1322 C 0.0513 0.16285 0.9761 0.0
C1323 C 0.06394 0.18241 0.96145 0.0
C1324 C 0.08401 0.2031 0.97649 0.0
C1325 C 0.07618 0.16864 0.94103 0.0
C1326 C 0.04051 0.194 0.95291 0.0
C1327 C 0.01818 0.18233 0.96107 0.0
C1328 C 0.99428 0.19047 0.95669 0.0
C1329 C 0.99313 0.21125 0.94377 0.0
C1330 C 0.01573 0.22372 0.93532 0.0
C1331 C 0.03968 0.21472 0.93972 0.0
H1332 H 0.40069 0.27604 0.26968 0.0
H1333 H 0.36122 0.33433 0.24094 0.0
H1334 H 0.39149 0.33645 0.21027 0.0
H1335 H 0.46577 0.30318 0.25881 0.0
H1336 H 0.47571 0.27186 0.25123 0.0
H1337 H 0.45133 0.27536 0.27136 0.0
H1338 H 0.41961 0.23909 0.24542 0.0
H1339 H 0.4439 0.23545 0.22525 0.0
H1340 H 0.41241 0.2421 0.21512 0.0
H1341 H 0.42517 0.33144 0.18212 0.0
H1342 H 0.45987 0.31941 0.15814 0.0
H1343 H 0.47775 0.26454 0.20525 0.0
C1344 C 0.39854 0.2893 0.25696 0.0
C1345 C 0.37865 0.30498 0.25766 0.0
C1346 C 0.3763 0.32208 0.24073 0.0
C1347 C 0.39344 0.32347 0.22325 0.0
C1348 C 0.41281 0.3077 0.22299 0.0
C1349 C 0.41548 0.29094 0.23938 0.0
C1350 C 0.43764 0.27571 0.23487 0.0
C1351 C 0.45887 0.28191 0.25528 0.0
C1352 C 0.42779 0.24635 0.22986 0.0
C1353 C 0.44688 0.28642 0.21329 0.0
C1354 C 0.43233 0.30488 0.20678 0.0
C1355 C 0.43679 0.31709 0.18709 0.0
C1356 C 0.45654 0.31009 0.17359 0.0
C1357 C 0.47162 0.29106 0.17982 0.0
C1358 C 0.46675 0.27927 0.20008 0.0
H1359 H 0.55828 0.40804 0.00454 0.0
H1360 H 0.64127 0.40916 0.01678 0.0
H1361 H 0.63401 0.38189 0.04837 0.0
H1362 H 0.54379 0.41065 0.06462 0.0
H1363 H 0.51365 0.38879 0.05808 0.0
H1364 H 0.52542 0.40893 0.03686 0.0
H1365 H 0.52328 0.36805 0.00641 0.0
H1366 H 0.51133 0.34783 0.02746 0.0
H1367 H 0.53999 0.34172 0.01345 0.0
H1368 H 0.6176 0.35442 0.07854 0.0
H1369 H 0.59309 0.32634 0.10331 0.0
H1370 H 0.52088 0.34277 0.07074 0.0
C1371 C 0.57491 0.40258 0.01388 0.0
C1372 C 0.60037 0.41071 0.00834 0.0
C1373 C 0.62163 0.40305 0.02084 0.0
C1374 C 0.6177 0.38769 0.03883 0.0
C1375 C 0.59237 0.3801 0.04402 0.0
C1376 C 0.57133 0.38713 0.0318 0.0
C1377 C 0.54606 0.37573 0.04033 0.0
C1378 C 0.53137 0.39732 0.05059 0.0
C1379 C 0.52918 0.35723 0.02075 0.0
C1380 C 0.55617 0.36106 0.05912 0.0
C1381 C 0.58293 0.36401 0.06114 0.0
C1382 C 0.59663 0.35199 0.07715 0.0
C1383 C 0.58255 0.33615 0.09119 0.0
C1384 C 0.55509 0.33237 0.08897 0.0
C1385 C 0.54186 0.3453 0.0729 0.0
H1386 H 0.71264 0.25901 0.24257 0.0
H1387 H 0.69878 0.17625 0.24713 0.0
H1388 H 0.65646 0.17277 0.22408 0.0
H1389 H 0.6495 0.27143 0.24925 0.0
H1390 H 0.64938 0.29462 0.22868 0.0
H1391 H 0.67946 0.29033 0.24375 0.0
H1392 H 0.6988 0.28028 0.20434 0.0
H1393 H 0.66887 0.28486 0.18912 0.0
H1394 H 0.68181 0.25489 0.1827 0.0
H1395 H 0.61398 0.17937 0.20483 0.0
H1396 H 0.57581 0.19435 0.1864 0.0
H1397 H 0.61809 0.27259 0.19251 0.0
C1398 C 0.70089 0.24008 0.23839 0.0
C1399 C 0.7088 0.21784 0.24665 0.0
C1400 C 0.69299 0.19342 0.24083 0.0
C1401 C 0.66895 0.19132 0.22786 0.0
C1402 C 0.66133 0.21376 0.22057 0.0
C1403 C 0.67702 0.23759 0.22523 0.0
C1404 C 0.66402 0.25881 0.21582 0.0
C1405 C 0.66037 0.28004 0.23556 0.0
C1406 C 0.67929 0.27039 0.19687 0.0
C1407 C 0.63827 0.24331 0.20563 0.0
C1408 C 0.63712 0.21739 0.20867 0.0
C1409 C 0.6148 0.19951 0.20201 0.0
C1410 C 0.59317 0.20826 0.19171 0.0
C1411 C 0.59407 0.2346 0.18796 0.0
C1412 C 0.61698 0.2523 0.19495 0.0
H1413 H 0.45728 0.12837 0.99021 0.0
H1414 H 0.49831 0.07086 0.01816 0.0
H1415 H 0.51824 0.10359 0.051 0.0
H1416 H 0.50844 0.18535 0.00827 0.0
H1417 H 0.48526 0.2068 0.01568 0.0
H1418 H 0.47656 0.17975 0.99292 0.0
H1419 H 0.43677 0.16332 0.01421 0.0
H1420 H 0.44547 0.19013 0.03714 0.0
H1421 H 0.44151 0.15723 0.04402 0.0
H1422 H 0.53034 0.14046 0.0821 0.0
H1423 H 0.53563 0.18052 0.10982 0.0
H1424 H 0.4866 0.21499 0.06237 0.0
C1425 C 0.47099 0.12305 0.003 0.0
C1426 C 0.47665 0.0974 0.00177 0.0
C1427 C 0.49406 0.0906 0.01894 0.0
C1428 C 0.50542 0.109 0.03756 0.0
C1429 C 0.49904 0.13402 0.03868 0.0
C1430 C 0.48238 0.1412 0.02186 0.0
C1431 C 0.47751 0.16894 0.02823 0.0
C1432 C 0.48755 0.18623 0.0102 0.0
C1433 C 0.4486 0.16995 0.03107 0.0
C1434 C 0.4937 0.17599 0.0514 0.0
C1435 C 0.50599 0.15554 0.05697 0.0
C1436 C 0.52108 0.15676 0.07787 0.0
C1437 C 0.52382 0.17957 0.09356 0.0
C1438 C 0.51154 0.20092 0.08826 0.0
C1439 C 0.49636 0.19908 0.06683 0.0
H1440 H 0.32015 0.38273 0.71448 0.0
H1441 H 0.2877 0.36852 0.77959 0.0
H1442 H 0.30667 0.41269 0.79704 0.0
H1443 H 0.38136 0.41691 0.74246 0.0
H1444 H 0.38531 0.43901 0.72101 0.0
H1445 H 0.36747 0.40684 0.71291 0.0
H1446 H 0.32796 0.42683 0.69759 0.0
H1447 H 0.34556 0.45909 0.70593 0.0
H1448 H 0.31454 0.45018 0.71679 0.0
H1449 H 0.3278 0.45862 0.80727 0.0
H1450 H 0.35576 0.50115 0.81182 0.0
H1451 H 0.379 0.48397 0.74194 0.0
C1452 C 0.31722 0.38862 0.7325 0.0
C1453 C 0.30178 0.37205 0.74537 0.0
C1454 C 0.29854 0.38095 0.76892 0.0
C1455 C 0.30941 0.40603 0.77913 0.0
C1456 C 0.32403 0.42188 0.7658 0.0
C1457 C 0.3285 0.41338 0.7432 0.0
C1458 C 0.34647 0.43377 0.73329 0.0
C1459 C 0.37165 0.42352 0.72706 0.0
C1460 C 0.33281 0.44301 0.71215 0.0
C1461 C 0.35139 0.45501 0.75391 0.0
C1462 C 0.33779 0.4479 0.77228 0.0
C1463 C 0.33871 0.46438 0.79309 0.0
C1464 C 0.35451 0.48856 0.79544 0.0
C1465 C 0.36957 0.4958 0.77725 0.0
C1466 C 0.36775 0.47888 0.75614 0.0
H1467 H 0.31498 0.72658 0.79043 0.0
H1468 H 0.28299 0.72183 0.85717 0.0
H1469 H 0.31018 0.68865 0.86518 0.0
H1470 H 0.3153 0.65868 0.77658 0.0
H1471 H 0.34513 0.66203 0.76267 0.0
H1472 H 0.32491 0.68721 0.76288 0.0
H1473 H 0.36367 0.72114 0.78201 0.0
H1474 H 0.38403 0.69602 0.78191 0.0
H1475 H 0.38055 0.71585 0.80879 0.0
H1476 H 0.33844 0.6544 0.86528 0.0
H1477 H 0.36565 0.6202 0.85713 0.0
H1478 H 0.37908 0.64567 0.78992 0.0
C1479 C 0.31372 0.71863 0.80676 0.0
C1480 C 0.29699 0.72717 0.82329 0.0
C1481 C 0.29606 0.71621 0.84446 0.0
C1482 C 0.31134 0.69719 0.84914 0.0
C1483 C 0.32747 0.68918 0.83248 0.0
C1484 C 0.32879 0.69947 0.8117 0.0
C1485 C 0.34684 0.6864 0.79633 0.0
C1486 C 0.33216 0.67277 0.77325 0.0
C1487 C 0.37016 0.70603 0.79201 0.0
C1488 C 0.35506 0.66686 0.81159 0.0
C1489 C 0.34377 0.66903 0.83243 0.0
C1490 C 0.34755 0.65261 0.8491 0.0
C1491 C 0.36303 0.6332 0.84427 0.0
C1492 C 0.37457 0.63028 0.82291 0.0
C1493 C 0.37076 0.6476 0.80649 0.0
H1494 H 0.89997 0.52578 0.49171 0.0
H1495 H 0.85862 0.58985 0.4792 0.0
H1496 H 0.81824 0.56508 0.48965 0.0
H1497 H 0.848 0.47404 0.46859 0.0
H1498 H 0.85553 0.45352 0.49017 0.0
H1499 H 0.88084 0.47629 0.48131 0.0
H1500 H 0.89248 0.49644 0.52442 0.0
H1501 H 0.86692 0.47401 0.53338 0.0
H1502 H 0.86776 0.50852 0.54099 0.0
H1503 H 0.78268 0.53354 0.50159 0.0
H1504 H 0.75354 0.49636 0.51212 0.0
H1505 H 0.81838 0.45307 0.51729 0.0
C1506 C 0.88232 0.5344 0.49078 0.0
C1507 C 0.88232 0.55965 0.48457 0.0
C1508 C 0.85898 0.57054 0.48402 0.0
C1509 C 0.83602 0.55666 0.48994 0.0
C1510 C 0.8368 0.532 0.49642 0.0
C1511 C 0.85929 0.52089 0.49673 0.0
C1512 C 0.85492 0.49411 0.50438 0.0
C1513 C 0.86012 0.47326 0.48495 0.0
C1514 C 0.87151 0.49324 0.52715 0.0
C1515 C 0.8264 0.49182 0.50818 0.0
C1516 C 0.81636 0.51393 0.50357 0.0
C1517 C 0.79031 0.51614 0.5053 0.0
C1518 C 0.77394 0.49493 0.51134 0.0
C1519 C 0.7837 0.47184 0.51562 0.0
C1520 C 0.81039 0.47055 0.51442 0.0
H1521 H 0.74546 0.87855 0.82632 0.0
H1522 H 0.74694 0.8418 0.75546 0.0
H1523 H 0.71645 0.86994 0.74158 0.0
H1524 H 0.677 0.88699 0.82187 0.0
H1525 H 0.68304 0.91813 0.83983 0.0
H1526 H 0.70364 0.89393 0.84424 0.0
H1527 H 0.74395 0.92682 0.83884 0.0
H1528 H 0.7235 0.95106 0.83438 0.0
H1529 H 0.7449 0.94225 0.8127 0.0
H1530 H 0.68724 0.90347 0.73531 0.0
H1531 H 0.66243 0.9405 0.73708 0.0
H1532 H 0.68033 0.95505 0.81209 0.0
C1533 C 0.739 0.87611 0.80795 0.0
C1534 C 0.74846 0.85796 0.79196 0.0
C1535 C 0.74002 0.85573 0.76797 0.0
C1536 C 0.72261 0.8715 0.75995 0.0
C1537 C 0.71382 0.88937 0.77616 0.0
C1538 C 0.72172 0.89174 0.79965 0.0
C1539 C 0.71042 0.91329 0.81332 0.0
C1540 C 0.69246 0.90243 0.83085 0.0
C1541 C 0.73198 0.93461 0.82552 0.0
C1542 C 0.69522 0.92292 0.79381 0.0
C1543 C 0.69722 0.90876 0.77253 0.0
C1544 C 0.68539 0.9146 0.75191 0.0
C1545 C 0.67135 0.93565 0.75308 0.0
C1546 C 0.66941 0.95064 0.77471 0.0
C1547 C 0.68134 0.94393 0.79529 0.0
H1548 H 0.65178 0.53099 0.94185 0.0
H1549 H 0.63036 0.52267 0.01172 0.0
H1550 H 0.66534 0.55832 0.0278 0.0
H1551 H 0.72204 0.54566 0.95775 0.0
H1552 H 0.727 0.56869 0.93718 0.0
H1553 H 0.70097 0.54174 0.93122 0.0
H1554 H 0.66803 0.5738 0.92624 0.0
H1555 H 0.69391 0.60083 0.93225 0.0
H1556 H 0.66647 0.59955 0.94945 0.0
H1557 H 0.6995 0.59709 0.0359 0.0
H1558 H 0.73356 0.63484 0.03595 0.0
H1559 H 0.73496 0.61652 0.96117 0.0
C1560 C 0.65471 0.53658 0.96053 0.0
C1561 C 0.63859 0.52413 0.97562 0.0
C1562 C 0.64281 0.53185 -4e-05 0.0
C1563 C 0.66251 0.55209 0.00922 0.0
C1564 C 0.67799 0.56413 0.9939 0.0
C1565 C 0.67459 0.55651 0.97011 0.0
C1566 C 0.69378 0.57294 0.95754 0.0
C1567 C 0.71203 0.55626 0.9452 0.0
C1568 C 0.6797 0.58765 0.94036 0.0
C1569 C 0.70809 0.59133 0.97794 0.0
C1570 C 0.69855 0.58595 0.99873 0.0
C1571 C 0.70746 0.60127 0.01981 0.0
C1572 C 0.72667 0.62268 0.01965 0.0
C1573 C 0.73697 0.62831 0.99861 0.0
C1574 C 0.72771 0.61229 0.97755 0.0
H1575 H 0.23753 0.6667 0.23369 0.0
H1576 H 0.2725 0.69951 0.303 0.0
H1577 H 0.24956 0.66242 0.31912 0.0
H1578 H 0.17439 0.64575 0.25306 0.0
H1579 H 0.16807 0.61702 0.23186 0.0
H1580 H 0.18838 0.64556 0.22553 0.0
H1581 H 0.22517 0.61814 0.2173 0.0
H1582 H 0.20507 0.58957 0.22385 0.0
H1583 H 0.23661 0.59991 0.23935 0.0
H1584 H 0.2245 0.62051 0.32756 0.0
H1585 H 0.19419 0.57993 0.32841 0.0
H1586 H 0.17163 0.57754 0.25475 0.0
C1587 C 0.24017 0.66645 0.25232 0.0
C1588 C 0.25742 0.68598 0.26688 0.0
C1589 C 0.26023 0.68447 0.29118 0.0
C1590 C 0.24708 0.66354 0.30062 0.0
C1591 C 0.23066 0.6445 0.28569 0.0
C1592 C 0.22671 0.64606 0.26215 0.0
C1593 C 0.20701 0.62367 0.25009 0.0
C1594 C 0.18304 0.6336 0.23952 0.0
C1595 C 0.21921 0.60683 0.23156 0.0
C1596 C 0.20064 0.60924 0.27054 0.0
C1597 C 0.21483 0.62133 0.29085 0.0
C1598 C 0.21305 0.61102 0.31183 0.0
C1599 C 0.19594 0.58795 0.31214 0.0
C1600 C 0.18053 0.57586 0.2917 0.0
C1601 C 0.18302 0.58662 0.27067 0.0
H1602 H 0.93162 0.56016 0.02545 0.0
H1603 H 0.97321 0.61468 0.08262 0.0
H1604 H 0.94679 0.64787 0.07269 0.0
H1605 H 0.9272 0.60854 0.98519 0.0
H1606 H 0.89545 0.5934 0.97252 0.0
H1607 H 0.9179 0.57392 0.98398 0.0
H1608 H 0.88383 0.55623 0.01073 0.0
H1609 H 0.86131 0.57568 0.99941 0.0
H1610 H 0.86993 0.5788 0.03034 0.0
H1611 H 0.91344 0.67409 0.05849 0.0
H1612 H 0.87751 0.69218 0.03915 0.0
H1613 H 0.86076 0.62222 0.98919 0.0
C1614 C 0.93558 0.57918 0.03568 0.0
C1615 C 0.95436 0.58452 0.05506 0.0
C1616 C 0.95851 0.60971 0.06808 0.0
C1617 C 0.94377 0.62886 0.06244 0.0
C1618 C 0.92524 0.6228 0.04345 0.0
C1619 C 0.92134 0.5987 0.03006 0.0
C1620 C 0.90009 0.59712 0.01061 0.0
C1621 C 0.91081 0.59301 0.98665 0.0
C1622 C 0.87745 0.57569 0.01293 0.0
C1623 C 0.89236 0.62394 0.01541 0.0
C1624 C 0.90699 0.63843 0.03451 0.0
C1625 C 0.90215 0.66313 0.04326 0.0
C1626 C 0.88173 0.67323 0.03222 0.0
C1627 C 0.86672 0.65877 0.0125 0.0
C1628 C 0.87235 0.63396 0.0039 0.0
H1629 H 0.12119 0.06303 0.04889 0.0
H1630 H 0.0696 0.01571 0.08787 0.0
H1631 H 0.09698 0.98117 0.08353 0.0
H1632 H 0.13271 0.00949 0.00722 0.0
H1633 H 0.16612 0.02265 0.00534 0.0
H1634 H 0.14285 0.04418 0.0121 0.0
H1635 H 0.17152 0.06479 0.04975 0.0
H1636 H 0.19479 0.04321 0.04318 0.0
H1637 H 0.18077 0.04423 0.07072 0.0
H1638 H 0.13027 0.95188 0.07577 0.0
H1639 H 0.1657 0.92862 0.06248 0.0
H1640 H 0.19438 0.9936 0.02673 0.0
C1641 C 0.11551 0.04534 0.05636 0.0
C1642 C 0.09342 0.04243 0.06911 0.0
C1643 C 0.0868 0.01887 0.07861 0.0
C1644 C 0.10214 0.99898 0.07612 0.0
C1645 C 0.12394 0.00266 0.0638 0.0
C1646 C 0.13051 0.0251 0.05385 0.0
C1647 C 0.15465 0.02377 0.04099 0.0
C1648 C 0.14872 0.02509 0.01486 0.0
C1649 C 0.17674 0.04528 0.05181 0.0
C1650 C 0.16055 0.9971 0.04529 0.0
C1651 C 0.14271 0.98536 0.05866 0.0
C1652 C 0.14431 0.96082 0.06519 0.0
C1653 C 0.16454 0.94778 0.05763 0.0
C1654 C 0.18273 0.95922 0.04351 0.0
C1655 C 0.18069 0.98427 0.0374 0.0
loop_
_geom_bond_atom_site_label_1
_geom_bond_atom_site_label_2
_geom_bond_distance
_geom_bond_site_symmetry_2
_ccdc_geom_bond_type
H0 C5 0.930 . S
H1 C8 0.930 . S
H2 C10 0.930 . S
H3 C4 1.016 . S
C4 H3 1.016 . S
C4 N11 1.286 . S
C5 H0 0.930 . S
C5 C6 1.397 . S
C5 C7 1.361 . S
C6 C5 1.397 . S
C6 C10 1.390 . S
C7 C5 1.361 . S
C7 C8 1.393 . S
C7 N11 1.413 . S
C8 H1 0.930 . S
C8 C7 1.393 . S
C8 C9 1.399 . S
C9 C8 1.399 . S
C9 C10 1.381 . S
C10 H2 0.930 . S
C10 C6 1.390 . S
C10 C9 1.381 . S
N11 C4 1.286 . S
N11 C7 1.413 . S
H12 C17 0.930 . S
H13 C20 0.930 . S
H14 C22 0.930 . S
H15 C16 1.016 . S
C16 H15 1.016 . S
C16 N23 1.286 . S
C17 H12 0.930 . S
C17 C18 1.397 . S
C17 C19 1.361 . S
C18 C17 1.397 . S
C18 C22 1.390 . S
C19 C17 1.361 . S
C19 C20 1.393 . S
C19 N23 1.413 . S
C20 H13 0.930 . S
C20 C19 1.393 . S
C20 C21 1.399 . S
C21 C20 1.399 . S
C21 C22 1.381 . S
C22 H14 0.930 . S
C22 C18 1.390 . S
C22 C21 1.381 . S
N23 C16 1.286 . S
N23 C19 1.413 . S
H24 C29 0.930 . S
H25 C32 0.930 . S
H26 C34 0.930 . S
H27 C28 1.016 . S
C28 H27 1.016 . S
C28 N35 1.286 . S
C29 H24 0.930 . S
C29 C30 1.397 . S
C29 C31 1.361 . S
C30 C29 1.397 . S
C30 C34 1.390 . S
C31 C29 1.361 . S
C31 C32 1.393 . S
C31 N35 1.413 . S
C32 H25 0.930 . S
C32 C31 1.393 . S
C32 C33 1.399 . S
C33 C32 1.399 . S
C33 C34 1.381 . S
C34 H26 0.930 . S
C34 C30 1.390 . S
C34 C33 1.381 . S
N35 C28 1.286 . S
N35 C31 1.413 . S
H36 C41 0.930 . S
H37 C44 0.930 . S
H38 C46 0.930 . S
H39 C40 1.016 . S
C40 H39 1.016 . S
C40 N47 1.286 . S
C41 H36 0.930 . S
C41 C42 1.397 . S
C41 C43 1.361 . S
C42 C41 1.397 . S
C42 C46 1.390 . S
C43 C41 1.361 . S
C43 C44 1.393 . S
C43 N47 1.413 . S
C44 H37 0.930 . S
C44 C43 1.393 . S
C44 C45 1.399 . S
C45 C44 1.399 . S
C45 C46 1.381 . S
C46 H38 0.930 . S
C46 C42 1.390 . S
C46 C45 1.381 . S
N47 C40 1.286 . S
N47 C43 1.413 . S
H48 C53 0.930 . S
H49 C56 0.930 . S
H50 C58 0.930 1_545 S
H51 C52 1.016 . S
C52 H51 1.016 . S
C52 N59 1.286 . S
C53 H48 0.930 . S
C53 C54 1.397 . S
C53 C55 1.361 . S
C54 C53 1.397 . S
C54 C58 1.390 . S
C55 C53 1.361 . S
C55 C56 1.393 . S
C55 N59 1.413 . S
C56 H49 0.930 . S
C56 C55 1.393 . S
C56 C57 1.399 . S
C57 C56 1.399 . S
C57 C58 1.381 . S
C58 H50 0.930 1_565 S
C58 C54 1.390 . S
C58 C57 1.381 . S
N59 C52 1.286 . S
N59 C55 1.413 . S
H60 C65 0.930 . S
H61 C68 0.930 . S
H62 C70 0.930 . S
H63 C64 1.016 . S
C64 H63 1.016 . S
C64 N71 1.286 . S
C65 H60 0.930 . S
C65 C66 1.397 . S
C65 C67 1.361 . S
C66 C65 1.397 . S
C66 C70 1.390 . S
C67 C65 1.361 . S
C67 C68 1.393 . S
C67 N71 1.413 . S
C68 H61 0.930 . S
C68 C67 1.393 . S
C68 C69 1.399 . S
C69 C68 1.399 . S
C69 C70 1.381 . S
C70 H62 0.930 . S
C70 C66 1.390 . S
C70 C69 1.381 . S
N71 C64 1.286 . S
N71 C67 1.413 . S
H72 C77 0.930 . S
H73 C80 0.930 . S
H74 C82 0.930 . S
H75 C76 1.016 . S
C76 H75 1.016 . S
C76 N83 1.286 . S
C77 H72 0.930 . S
C77 C78 1.397 . S
C77 C79 1.361 . S
C78 C77 1.397 . S
C78 C82 1.390 . S
C79 C77 1.361 . S
C79 C80 1.393 . S
C79 N83 1.413 . S
C80 H73 0.930 . S
C80 C79 1.393 . S
C80 C81 1.399 . S
C81 C80 1.399 . S
C81 C82 1.381 . S
C82 H74 0.930 . S
C82 C78 1.390 . S
C82 C81 1.381 . S
N83 C76 1.286 . S
N83 C79 1.413 . S
H84 C89 0.930 . S
H85 C92 0.930 . S
H86 C94 0.930 . S
H87 C88 1.016 . S
C88 H87 1.016 . S
C88 N95 1.286 . S
C89 H84 0.930 . S
C89 C90 1.397 . S
C89 C91 1.361 . S
C90 C89 1.397 . S
C90 C94 1.390 . S
C91 C89 1.361 . S
C91 C92 1.393 . S
C91 N95 1.413 . S
C92 H85 0.930 . S
C92 C91 1.393 . S
C92 C93 1.399 . S
C93 C92 1.399 . S
C93 C94 1.381 . S
C94 H86 0.930 . S
C94 C90 1.390 . S
C94 C93 1.381 . S
N95 C88 1.286 . S
N95 C91 1.413 . S
H96 C101 0.930 . S
H97 C104 0.930 . S
H98 C106 0.930 . S
H99 C100 1.016 . S
C100 H99 1.016 . S
C100 N107 1.286 . S
C101 H96 0.930 . S
C101 C102 1.397 . S
C101 C103 1.361 . S
C102 C101 1.397 . S
C102 C106 1.390 . S
C103 C101 1.361 . S
C103 C104 1.393 . S
C103 N107 1.413 . S
C104 H97 0.930 . S
C104 C103 1.393 . S
C104 C105 1.399 . S
C105 C104 1.399 . S
C105 C106 1.381 . S
C106 H98 0.930 . S
C106 C102 1.390 . S
C106 C105 1.381 . S
N107 C100 1.286 . S
N107 C103 1.413 . S
H108 C113 0.930 . S
H109 C116 0.930 . S
H110 C118 0.930 . S
H111 C112 1.016 . S
C112 H111 1.016 . S
C112 N119 1.286 . S
C113 H108 0.930 . S
C113 C114 1.397 . S
C113 C115 1.361 . S
C114 C113 1.397 . S
C114 C118 1.390 . S
C115 C113 1.361 . S
C115 C116 1.393 . S
C115 N119 1.413 . S
C116 H109 0.930 . S
C116 C115 1.393 . S
C116 C117 1.399 . S
C117 C116 1.399 . S
C117 C118 1.381 . S
C118 H110 0.930 . S
C118 C114 1.390 . S
C118 C117 1.381 . S
N119 C112 1.286 . S
N119 C115 1.413 . S
H120 C125 0.930 . S
H121 C128 0.930 . S
H122 C130 0.930 . S
H123 C124 1.016 . S
C124 H123 1.016 . S
C124 N131 1.286 . S
C125 H120 0.930 . S
C125 C126 1.397 . S
C125 C127 1.361 . S
C126 C125 1.397 . S
C126 C130 1.390 . S
C127 C125 1.361 . S
C127 C128 1.393 . S
C127 N131 1.413 . S
C128 H121 0.930 . S
C128 C127 1.393 . S
C128 C129 1.399 . S
C129 C128 1.399 . S
C129 C130 1.381 . S
C130 H122 0.930 . S
C130 C126 1.390 . S
C130 C129 1.381 . S
N131 C124 1.286 . S
N131 C127 1.413 . S
H132 C137 0.930 . S
H133 C140 0.930 . S
H134 C142 0.930 . S
H135 C136 1.016 . S
C136 H135 1.016 . S
C136 N143 1.286 . S
C137 H132 0.930 . S
C137 C138 1.397 . S
C137 C139 1.361 . S
C138 C137 1.397 . S
C138 C142 1.390 . S
C139 C137 1.361 . S
C139 C140 1.393 . S
C139 N143 1.413 . S
C140 H133 0.930 . S
C140 C139 1.393 . S
C140 C141 1.399 . S
C141 C140 1.399 . S
C141 C142 1.381 . S
C142 H134 0.930 . S
C142 C138 1.390 . S
C142 C141 1.381 . S
N143 C136 1.286 . S
N143 C139 1.413 . S
H144 C149 0.930 . S
H145 C152 0.930 . S
H146 C154 0.930 . S
H147 C148 1.016 . S
C148 H147 1.016 . S
C148 N155 1.286 . S
C149 H144 0.930 . S
C149 C150 1.397 . S
C149 C151 1.361 . S
C150 C149 1.397 . S
C150 C154 1.390 . S
C151 C149 1.361 . S
C151 C152 1.393 . S
C151 N155 1.413 . S
C152 H145 0.930 . S
C152 C151 1.393 . S
C152 C153 1.399 . S
C153 C152 1.399 . S
C153 C154 1.381 . S
C154 H146 0.930 . S
C154 C150 1.390 . S
C154 C153 1.381 . S
N155 C148 1.286 . S
N155 C151 1.413 . S
H156 C161 0.930 . S
H157 C164 0.930 . S
H158 C166 0.930 . S
H159 C160 1.016 . S
C160 H159 1.016 . S
C160 N167 1.286 . S
C161 H156 0.930 . S
C161 C162 1.397 . S
C161 C163 1.361 . S
C162 C161 1.397 . S
C162 C166 1.390 . S
C163 C161 1.361 . S
C163 C164 1.393 . S
C163 N167 1.413 . S
C164 H157 0.930 . S
C164 C163 1.393 . S
C164 C165 1.399 . S
C165 C164 1.399 . S
C165 C166 1.381 . S
C166 H158 0.930 . S
C166 C162 1.390 . S
C166 C165 1.381 . S
N167 C160 1.286 . S
N167 C163 1.413 . S
H168 C173 0.930 . S
H169 C176 0.930 . S
H170 C178 0.930 . S
H171 C172 1.016 . S
C172 H171 1.016 . S
C172 N179 1.286 . S
C173 H168 0.930 . S
C173 C174 1.397 . S
C173 C175 1.361 . S
C174 C173 1.397 . S
C174 C178 1.390 . S
C175 C173 1.361 . S
C175 C176 1.393 . S
C175 N179 1.413 . S
C176 H169 0.930 . S
C176 C175 1.393 . S
C176 C177 1.399 . S
C177 C176 1.399 . S
C177 C178 1.381 . S
C178 H170 0.930 . S
C178 C174 1.390 . S
C178 C177 1.381 . S
N179 C172 1.286 . S
N179 C175 1.413 . S
H180 C185 0.930 . S
H181 C188 0.930 . S
H182 C190 0.930 . S
H183 C184 1.016 . S
C184 H183 1.016 . S
C184 N191 1.286 . S
C185 H180 0.930 . S
C185 C186 1.397 . S
C185 C187 1.361 . S
C186 C185 1.397 . S
C186 C190 1.390 . S
C187 C185 1.361 . S
C187 C188 1.393 . S
C187 N191 1.413 . S
C188 H181 0.930 . S
C188 C187 1.393 . S
C188 C189 1.399 . S
C189 C188 1.399 . S
C189 C190 1.381 . S
C190 H182 0.930 . S
C190 C186 1.390 . S
C190 C189 1.381 . S
N191 C184 1.286 . S
N191 C187 1.413 . S
O192 Cd193 2.223 . S
O192 C200 1.315 . S
Cd193 O192 2.223 . S
Cd193 O196 2.297 . S
Cd193 O197 2.439 . S
Cd193 O203 2.240 . S
Cd194 O195 2.240 . S
Cd194 O202 2.223 . S
Cd194 O204 2.297 . S
Cd194 O205 2.439 . S
O195 Cd194 2.240 . S
O195 C200 1.279 . S
O196 Cd193 2.297 . S
O196 C198 1.247 . S
O197 Cd193 2.439 . S
O197 C198 1.208 . S
C198 O196 1.247 . S
C198 O197 1.208 . S
C199 O204 1.247 . S
C199 O205 1.208 . S
C200 O192 1.315 . S
C200 O195 1.279 . S
C201 O202 1.315 . S
C201 O203 1.279 . S
O202 Cd194 2.223 . S
O202 C201 1.315 . S
O203 Cd193 2.240 . S
O203 C201 1.279 . S
O204 Cd194 2.297 . S
O204 C199 1.247 . S
O205 Cd194 2.439 . S
O205 C199 1.208 . S
O206 Cd207 2.223 . S
O206 C214 1.315 . S
Cd207 O206 2.223 . S
Cd207 O210 2.297 . S
Cd207 O211 2.439 . S
Cd207 O217 2.240 . S
Cd208 O209 2.240 . S
Cd208 O216 2.223 . S
Cd208 O218 2.297 . S
Cd208 O219 2.439 . S
O209 Cd208 2.240 . S
O209 C214 1.279 . S
O210 Cd207 2.297 . S
O210 C212 1.247 . S
O211 Cd207 2.439 . S
O211 C212 1.208 . S
C212 O210 1.247 . S
C212 O211 1.208 . S
C213 O218 1.247 . S
C213 O219 1.208 . S
C214 O206 1.315 . S
C214 O209 1.279 . S
C215 O216 1.315 . S
C215 O217 1.279 . S
O216 Cd208 2.223 . S
O216 C215 1.315 . S
O217 Cd207 2.240 . S
O217 C215 1.279 . S
O218 Cd208 2.297 . S
O218 C213 1.247 . S
O219 Cd208 2.439 . S
O219 C213 1.208 . S
O220 Cd221 2.223 1_556 S
O220 C228 1.315 . S
Cd221 O220 2.223 1_554 S
Cd221 O224 2.297 . S
Cd221 O225 2.439 . S
Cd221 O231 2.240 . S
Cd222 O223 2.240 . S
Cd222 O230 2.223 . S
Cd222 O232 2.297 1_556 S
Cd222 O233 2.439 1_556 S
O223 Cd222 2.240 . S
O223 C228 1.279 . S
O224 Cd221 2.297 . S
O224 C226 1.247 . S
O225 Cd221 2.439 . S
O225 C226 1.208 . S
C226 O224 1.247 . S
C226 O225 1.208 . S
C227 O232 1.247 . S
C227 O233 1.208 . S
C228 O220 1.315 . S
C228 O223 1.279 . S
C229 O230 1.315 . S
C229 O231 1.279 1_556 S
O230 Cd222 2.223 . S
O230 C229 1.315 . S
O231 Cd221 2.240 . S
O231 C229 1.279 1_554 S
O232 Cd222 2.297 1_554 S
O232 C227 1.247 . S
O233 Cd222 2.439 1_554 S
O233 C227 1.208 . S
O234 Cd235 2.223 . S
O234 C242 1.315 . S
Cd235 O234 2.223 . S
Cd235 O238 2.297 . S
Cd235 O239 2.439 . S
Cd235 O245 2.240 . S
Cd236 O237 2.240 . S
Cd236 O244 2.223 . S
Cd236 O246 2.297 . S
Cd236 O247 2.439 . S
O237 Cd236 2.240 . S
O237 C242 1.279 . S
O238 Cd235 2.297 . S
O238 C240 1.247 . S
O239 Cd235 2.439 . S
O239 C240 1.208 . S
C240 O238 1.247 . S
C240 O239 1.208 . S
C241 O246 1.247 . S
C241 O247 1.208 . S
C242 O234 1.315 . S
C242 O237 1.279 . S
C243 O244 1.315 . S
C243 O245 1.279 . S
O244 Cd236 2.223 . S
O244 C243 1.315 . S
O245 Cd235 2.240 . S
O245 C243 1.279 . S
O246 Cd236 2.297 . S
O246 C241 1.247 . S
O247 Cd236 2.439 . S
O247 C241 1.208 . S
O248 Cd249 2.223 . S
O248 C256 1.315 . S
Cd249 O248 2.223 . S
Cd249 O252 2.297 . S
Cd249 O253 2.439 . S
Cd249 O259 2.240 . S
Cd250 O251 2.240 . S
Cd250 O258 2.223 . S
Cd250 O260 2.297 . S
Cd250 O261 2.439 . S
O251 Cd250 2.240 . S
O251 C256 1.279 . S
O252 Cd249 2.297 . S
O252 C254 1.247 . S
O253 Cd249 2.439 . S
O253 C254 1.208 . S
C254 O252 1.247 . S
C254 O253 1.208 . S
C255 O260 1.247 . S
C255 O261 1.208 . S
C256 O248 1.315 . S
C256 O251 1.279 . S
C257 O258 1.315 . S
C257 O259 1.279 . S
O258 Cd250 2.223 . S
O258 C257 1.315 . S
O259 Cd249 2.240 . S
O259 C257 1.279 . S
O260 Cd250 2.297 . S
O260 C255 1.247 . S
O261 Cd250 2.439 . S
O261 C255 1.208 . S
O262 Cd263 2.223 . S
O262 C270 1.315 . S
Cd263 O262 2.223 . S
Cd263 O266 2.297 . S
Cd263 O267 2.439 . S
Cd263 O273 2.240 . S
Cd264 O265 2.240 . S
Cd264 O272 2.223 . S
Cd264 O274 2.297 . S
Cd264 O275 2.439 . S
O265 Cd264 2.240 . S
O265 C270 1.279 . S
O266 Cd263 2.297 . S
O266 C268 1.247 . S
O267 Cd263 2.439 . S
O267 C268 1.208 . S
C268 O266 1.247 . S
C268 O267 1.208 . S
C269 O274 1.247 . S
C269 O275 1.208 . S
C270 O262 1.315 . S
C270 O265 1.279 . S
C271 O272 1.315 . S
C271 O273 1.279 . S
O272 Cd264 2.223 . S
O272 C271 1.315 . S
O273 Cd263 2.240 . S
O273 C271 1.279 . S
O274 Cd264 2.297 . S
O274 C269 1.247 . S
O275 Cd264 2.439 . S
O275 C269 1.208 . S
O276 Cd277 2.223 . S
O276 C284 1.315 . S
Cd277 O276 2.223 . S
Cd277 O280 2.297 . S
Cd277 O281 2.439 . S
Cd277 O287 2.240 . S
Cd278 O279 2.240 . S
Cd278 O286 2.223 . S
Cd278 O288 2.297 . S
Cd278 O289 2.439 . S
O279 Cd278 2.240 . S
O279 C284 1.279 . S
O280 Cd277 2.297 . S
O280 C282 1.247 . S
O281 Cd277 2.439 . S
O281 C282 1.208 . S
C282 O280 1.247 . S
C282 O281 1.208 . S
C283 O288 1.247 . S
C283 O289 1.208 . S
C284 O276 1.315 . S
C284 O279 1.279 . S
C285 O286 1.315 . S
C285 O287 1.279 . S
O286 Cd278 2.223 . S
O286 C285 1.315 . S
O287 Cd277 2.240 . S
O287 C285 1.279 . S
O288 Cd278 2.297 . S
O288 C283 1.247 . S
O289 Cd278 2.439 . S
O289 C283 1.208 . S
O290 Cd291 2.223 1_545 S
O290 C298 1.315 . S
Cd291 O290 2.223 1_565 S
Cd291 O294 2.297 . S
Cd291 O295 2.439 . S
Cd291 O301 2.240 1_565 S
Cd292 O293 2.240 . S
Cd292 O300 2.223 . S
Cd292 O302 2.297 . S
Cd292 O303 2.439 1_545 S
O293 Cd292 2.240 . S
O293 C298 1.279 . S
O294 Cd291 2.297 . S
O294 C296 1.247 . S
O295 Cd291 2.439 . S
O295 C296 1.208 . S
C296 O294 1.247 . S
C296 O295 1.208 . S
C297 O302 1.247 1_565 S
C297 O303 1.208 . S
C298 O290 1.315 . S
C298 O293 1.279 . S
C299 O300 1.315 . S
C299 O301 1.279 . S
O300 Cd292 2.223 . S
O300 C299 1.315 . S
O301 Cd291 2.240 1_545 S
O301 C299 1.279 . S
O302 Cd292 2.297 . S
O302 C297 1.247 1_545 S
O303 Cd292 2.439 1_565 S
O303 C297 1.208 . S
O304 Cd305 2.223 . S
O304 C312 1.315 . S
Cd305 O304 2.223 . S
Cd305 O308 2.297 1_655 S
Cd305 O309 2.439 1_655 S
Cd305 O315 2.240 . S
Cd306 O307 2.240 . S
Cd306 O314 2.223 1_455 S
Cd306 O316 2.297 . S
Cd306 O317 2.439 . S
O307 Cd306 2.240 . S
O307 C312 1.279 1_455 S
O308 Cd305 2.297 1_455 S
O308 C310 1.247 . S
O309 Cd305 2.439 1_455 S
O309 C310 1.208 . S
C310 O308 1.247 . S
C310 O309 1.208 . S
C311 O316 1.247 . S
C311 O317 1.208 . S
C312 O304 1.315 . S
C312 O307 1.279 1_655 S
C313 O314 1.315 . S
C313 O315 1.279 . S
O314 Cd306 2.223 1_655 S
O314 C313 1.315 . S
O315 Cd305 2.240 . S
O315 C313 1.279 . S
O316 Cd306 2.297 . S
O316 C311 1.247 . S
O317 Cd306 2.439 . S
O317 C311 1.208 . S
O318 Cd319 2.223 . S
O318 C326 1.315 . S
Cd319 O318 2.223 . S
Cd319 O322 2.297 . S
Cd319 O323 2.439 . S
Cd319 O329 2.240 . S
Cd320 O321 2.240 . S
Cd320 O328 2.223 . S
Cd320 O330 2.297 . S
Cd320 O331 2.439 . S
O321 Cd320 2.240 . S
O321 C326 1.279 . S
O322 Cd319 2.297 . S
O322 C324 1.247 . S
O323 Cd319 2.439 . S
O323 C324 1.208 . S
C324 O322 1.247 . S
C324 O323 1.208 . S
C325 O330 1.247 . S
C325 O331 1.208 . S
C326 O318 1.315 . S
C326 O321 1.279 . S
C327 O328 1.315 . S
C327 O329 1.279 . S
O328 Cd320 2.223 . S
O328 C327 1.315 . S
O329 Cd319 2.240 . S
O329 C327 1.279 . S
O330 Cd320 2.297 . S
O330 C325 1.247 . S
O331 Cd320 2.439 . S
O331 C325 1.208 . S
O332 Cd333 2.223 1_655 S
O332 C340 1.315 . S
Cd333 O332 2.223 1_455 S
Cd333 O336 2.297 . S
Cd333 O337 2.439 . S
Cd333 O343 2.240 . S
Cd334 O335 2.240 . S
Cd334 O342 2.223 1_455 S
Cd334 O344 2.297 . S
Cd334 O345 2.439 . S
O335 Cd334 2.240 . S
O335 C340 1.279 1_455 S
O336 Cd333 2.297 . S
O336 C338 1.247 . S
O337 Cd333 2.439 . S
O337 C338 1.208 . S
C338 O336 1.247 . S
C338 O337 1.208 . S
C339 O344 1.247 . S
C339 O345 1.208 . S
C340 O332 1.315 . S
C340 O335 1.279 1_655 S
C341 O342 1.315 . S
C341 O343 1.279 1_655 S
O342 Cd334 2.223 1_655 S
O342 C341 1.315 . S
O343 Cd333 2.240 . S
O343 C341 1.279 1_455 S
O344 Cd334 2.297 . S
O344 C339 1.247 . S
O345 Cd334 2.439 . S
O345 C339 1.208 . S
O346 Cd347 2.223 . S
O346 C354 1.315 . S
Cd347 O346 2.223 . S
Cd347 O350 2.297 . S
Cd347 O351 2.439 . S
Cd347 O357 2.240 . S
Cd348 O349 2.240 . S
Cd348 O356 2.223 . S
Cd348 O358 2.297 . S
Cd348 O359 2.439 . S
O349 Cd348 2.240 . S
O349 C354 1.279 . S
O350 Cd347 2.297 . S
O350 C352 1.247 . S
O351 Cd347 2.439 . S
O351 C352 1.208 . S
C352 O350 1.247 . S
C352 O351 1.208 . S
C353 O358 1.247 . S
C353 O359 1.208 . S
C354 O346 1.315 . S
C354 O349 1.279 . S
C355 O356 1.315 . S
C355 O357 1.279 . S
O356 Cd348 2.223 . S
O356 C355 1.315 . S
O357 Cd347 2.240 . S
O357 C355 1.279 . S
O358 Cd348 2.297 . S
O358 C353 1.247 . S
O359 Cd348 2.439 . S
O359 C353 1.208 . S
H360 C372 0.930 . S
H361 C374 0.930 . S
H362 C375 0.930 . S
H363 C379 0.959 . S
H364 C379 0.959 . S
H365 C379 0.961 . S
H366 C380 0.960 . S
H367 C380 0.961 . S
H368 C380 0.959 . S
H369 C383 0.929 . S
H370 C384 0.931 . S
H371 C386 0.930 1_554 S
C372 H360 0.930 . S
C372 C373 1.399 . S
C372 C377 1.399 . S
C373 C372 1.399 . S
C373 C374 1.376 . S
C374 H361 0.930 . S
C374 C373 1.376 . S
C374 C375 1.388 . S
C375 H362 0.930 . S
C375 C374 1.388 . S
C375 C376 1.390 . S
C376 C375 1.390 . S
C376 C377 1.394 . S
C376 C382 1.465 . S
C377 C372 1.399 . S
C377 C376 1.394 . S
C377 C378 1.516 . S
C378 C377 1.516 . S
C378 C379 1.502 . S
C378 C380 1.561 . S
C378 C381 1.526 . S
C379 H363 0.959 . S
C379 H364 0.959 . S
C379 H365 0.961 . S
C379 C378 1.502 . S
C380 H366 0.960 . S
C380 H367 0.961 . S
C380 H368 0.959 . S
C380 C378 1.561 . S
C381 C378 1.526 . S
C381 C382 1.396 . S
C381 C386 1.390 . S
C382 C376 1.465 . S
C382 C381 1.396 . S
C382 C383 1.399 . S
C383 H369 0.929 . S
C383 C382 1.399 . S
C383 C384 1.385 . S
C384 H370 0.931 . S
C384 C383 1.385 . S
C384 C385 1.389 . S
C385 C384 1.389 . S
C385 C386 1.387 . S
C386 H371 0.930 1_556 S
C386 C381 1.390 . S
C386 C385 1.387 . S
H387 C399 0.930 . S
H388 C401 0.930 . S
H389 C402 0.930 . S
H390 C406 0.959 . S
H391 C406 0.959 1_455 S
H392 C406 0.961 . S
H393 C407 0.960 . S
H394 C407 0.961 . S
H395 C407 0.959 . S
H396 C410 0.929 . S
H397 C411 0.931 . S
H398 C413 0.930 . S
C399 H387 0.930 . S
C399 C400 1.399 . S
C399 C404 1.388 1_655 S
C400 C399 1.399 . S
C400 C401 1.376 . S
C401 H388 0.930 . S
C401 C400 1.376 . S
C401 C402 1.388 1_655 S
C402 H389 0.930 . S
C402 C401 1.388 1_455 S
C402 C403 1.390 . S
C403 C402 1.390 . S
C403 C404 1.401 . S
C403 C409 1.465 . S
C404 C399 1.388 1_455 S
C404 C403 1.401 . S
C404 C405 1.522 . S
C405 C404 1.522 . S
C405 C406 1.502 1_455 S
C405 C407 1.561 . S
C405 C408 1.526 . S
C406 H390 0.959 . S
C406 H391 0.959 1_655 S
C406 H392 0.961 . S
C406 C405 1.502 1_655 S
C407 H393 0.960 . S
C407 H394 0.961 . S
C407 H395 0.959 . S
C407 C405 1.561 . S
C408 C405 1.526 . S
C408 C409 1.396 . S
C408 C413 1.390 . S
C409 C403 1.465 . S
C409 C408 1.396 . S
C409 C410 1.399 . S
C410 H396 0.929 . S
C410 C409 1.399 . S
C410 C411 1.385 . S
C411 H397 0.931 . S
C411 C410 1.385 . S
C411 C412 1.389 . S
C412 C411 1.389 . S
C412 C413 1.387 . S
C413 H398 0.930 . S
C413 C408 1.390 . S
C413 C412 1.387 . S
H414 C426 0.930 . S
H415 C428 0.930 . S
H416 C429 0.930 . S
H417 C433 0.959 . S
H418 C433 0.959 . S
H419 C433 0.961 . S
H420 C434 0.960 . S
H421 C434 0.961 . S
H422 C434 0.959 . S
H423 C437 0.929 . S
H424 C438 0.931 . S
H425 C440 0.930 . S
C426 H414 0.930 . S
C426 C427 1.399 . S
C426 C431 1.399 . S
C427 C426 1.399 . S
C427 C428 1.376 . S
C428 H415 0.930 . S
C428 C427 1.376 . S
C428 C429 1.388 . S
C429 H416 0.930 . S
C429 C428 1.388 . S
C429 C430 1.390 . S
C430 C429 1.390 . S
C430 C431 1.394 . S
C430 C436 1.465 . S
C431 C426 1.399 . S
C431 C430 1.394 . S
C431 C432 1.516 . S
C432 C431 1.516 . S
C432 C433 1.502 . S
C432 C434 1.561 . S
C432 C435 1.526 . S
C433 H417 0.959 . S
C433 H418 0.959 . S
C433 H419 0.961 . S
C433 C432 1.502 . S
C434 H420 0.960 . S
C434 H421 0.961 . S
C434 H422 0.959 . S
C434 C432 1.561 . S
C435 C432 1.526 . S
C435 C436 1.396 . S
C435 C440 1.390 . S
C436 C430 1.465 . S
C436 C435 1.396 . S
C436 C437 1.399 . S
C437 H423 0.929 . S
C437 C436 1.399 . S
C437 C438 1.385 . S
C438 H424 0.931 . S
C438 C437 1.385 . S
C438 C439 1.389 . S
C439 C438 1.389 . S
C439 C440 1.387 . S
C440 H425 0.930 . S
C440 C435 1.390 . S
C440 C439 1.387 . S
H441 C453 0.930 . S
H442 C455 0.930 . S
H443 C456 0.930 . S
H444 C460 0.959 . S
H445 C460 0.959 . S
H446 C460 0.961 . S
H447 C461 0.960 . S
H448 C461 0.961 . S
H449 C461 0.959 . S
H450 C464 0.929 . S
H451 C465 0.931 . S
H452 C467 0.930 . S
C453 H441 0.930 . S
C453 C454 1.399 1_545 S
C453 C458 1.399 . S
C454 C453 1.399 1_565 S
C454 C455 1.376 . S
C455 H442 0.930 . S
C455 C454 1.376 . S
C455 C456 1.388 . S
C456 H443 0.930 . S
C456 C455 1.388 . S
C456 C457 1.390 . S
C457 C456 1.390 . S
C457 C458 1.394 1_565 S
C457 C463 1.465 1_565 S
C458 C453 1.399 . S
C458 C457 1.394 1_545 S
C458 C459 1.516 . S
C459 C458 1.516 . S
C459 C460 1.502 . S
C459 C461 1.561 . S
C459 C462 1.526 . S
C460 H444 0.959 . S
C460 H445 0.959 . S
C460 H446 0.961 . S
C460 C459 1.502 . S
C461 H447 0.960 . S
C461 H448 0.961 . S
C461 H449 0.959 . S
C461 C459 1.561 . S
C462 C459 1.526 . S
C462 C463 1.396 . S
C462 C467 1.390 . S
C463 C457 1.465 1_545 S
C463 C462 1.396 . S
C463 C464 1.399 1_545 S
C464 H450 0.929 . S
C464 C463 1.399 1_565 S
C464 C465 1.385 1_465 S
C465 H451 0.931 . S
C465 C464 1.385 1_645 S
C465 C466 1.389 . S
C466 C465 1.389 . S
C466 C467 1.387 1_655 S
C467 H452 0.930 . S
C467 C462 1.390 . S
C467 C466 1.387 1_455 S
H468 C480 0.930 . S
H469 C482 0.930 . S
H470 C483 0.930 . S
H471 C487 0.959 . S
H472 C487 0.959 . S
H473 C487 0.961 . S
H474 C488 0.960 . S
H475 C488 0.961 . S
H476 C488 0.959 . S
H477 C491 0.929 . S
H478 C492 0.931 . S
H479 C494 0.930 . S
C480 H468 0.930 . S
C480 C481 1.399 . S
C480 C485 1.399 . S
C481 C480 1.399 . S
C481 C482 1.376 . S
C482 H469 0.930 . S
C482 C481 1.376 . S
C482 C483 1.388 . S
C483 H470 0.930 . S
C483 C482 1.388 . S
C483 C484 1.390 . S
C484 C483 1.390 . S
C484 C485 1.394 . S
C484 C490 1.465 . S
C485 C480 1.399 . S
C485 C484 1.394 . S
C485 C486 1.516 . S
C486 C485 1.516 . S
C486 C487 1.502 . S
C486 C488 1.561 . S
C486 C489 1.526 . S
C487 H471 0.959 . S
C487 H472 0.959 . S
C487 H473 0.961 . S
C487 C486 1.502 . S
C488 H474 0.960 . S
C488 H475 0.961 . S
C488 H476 0.959 . S
C488 C486 1.561 . S
C489 C486 1.526 . S
C489 C490 1.396 . S
C489 C494 1.390 . S
C490 C484 1.465 . S
C490 C489 1.396 . S
C490 C491 1.399 . S
C491 H477 0.929 . S
C491 C490 1.399 . S
C491 C492 1.385 . S
C492 H478 0.931 . S
C492 C491 1.385 . S
C492 C493 1.389 . S
C493 C492 1.389 . S
C493 C494 1.387 . S
C494 H479 0.930 . S
C494 C489 1.390 . S
C494 C493 1.387 . S
H495 C507 0.930 . S
H496 C509 0.930 . S
H497 C510 0.930 . S
H498 C514 0.959 . S
H499 C514 0.959 . S
H500 C514 0.961 . S
H501 C515 0.960 . S
H502 C515 0.961 . S
H503 C515 0.959 . S
H504 C518 0.929 . S
H505 C519 0.931 . S
H506 C521 0.930 . S
C507 H495 0.930 . S
C507 C508 1.399 . S
C507 C512 1.399 . S
C508 C507 1.399 . S
C508 C509 1.376 . S
C509 H496 0.930 . S
C509 C508 1.376 . S
C509 C510 1.388 . S
C510 H497 0.930 . S
C510 C509 1.388 . S
C510 C511 1.390 . S
C511 C510 1.390 . S
C511 C512 1.394 . S
C511 C517 1.465 . S
C512 C507 1.399 . S
C512 C511 1.394 . S
C512 C513 1.516 . S
C513 C512 1.516 . S
C513 C514 1.502 . S
C513 C515 1.561 . S
C513 C516 1.526 . S
C514 H498 0.959 . S
C514 H499 0.959 . S
C514 H500 0.961 . S
C514 C513 1.502 . S
C515 H501 0.960 . S
C515 H502 0.961 . S
C515 H503 0.959 . S
C515 C513 1.561 . S
C516 C513 1.526 . S
C516 C517 1.396 . S
C516 C521 1.390 . S
C517 C511 1.465 . S
C517 C516 1.396 . S
C517 C518 1.399 . S
C518 H504 0.929 . S
C518 C517 1.399 . S
C518 C519 1.385 . S
C519 H505 0.931 . S
C519 C518 1.385 . S
C519 C520 1.389 . S
C520 C519 1.389 . S
C520 C521 1.387 . S
C521 H506 0.930 . S
C521 C516 1.390 . S
C521 C520 1.387 . S
H522 C534 0.930 . S
H523 C536 0.930 . S
H524 C537 0.930 . S
H525 C541 0.959 . S
H526 C541 0.959 . S
H527 C541 0.961 . S
H528 C542 0.960 . S
H529 C542 0.961 . S
H530 C542 0.959 . S
H531 C545 0.929 . S
H532 C546 0.931 . S
H533 C548 0.930 . S
C534 H522 0.930 . S
C534 C535 1.399 . S
C534 C539 1.399 . S
C535 C534 1.399 . S
C535 C536 1.376 . S
C536 H523 0.930 . S
C536 C535 1.376 . S
C536 C537 1.388 . S
C537 H524 0.930 . S
C537 C536 1.388 . S
C537 C538 1.390 . S
C538 C537 1.390 . S
C538 C539 1.394 . S
C538 C544 1.465 . S
C539 C534 1.399 . S
C539 C538 1.394 . S
C539 C540 1.516 . S
C540 C539 1.516 . S
C540 C541 1.502 . S
C540 C542 1.561 . S
C540 C543 1.526 . S
C541 H525 0.959 . S
C541 H526 0.959 . S
C541 H527 0.961 . S
C541 C540 1.502 . S
C542 H528 0.960 . S
C542 H529 0.961 . S
C542 H530 0.959 . S
C542 C540 1.561 . S
C543 C540 1.526 . S
C543 C544 1.396 . S
C543 C548 1.390 . S
C544 C538 1.465 . S
C544 C543 1.396 . S
C544 C545 1.399 . S
C545 H531 0.929 . S
C545 C544 1.399 . S
C545 C546 1.385 . S
C546 H532 0.931 . S
C546 C545 1.385 . S
C546 C547 1.389 . S
C547 C546 1.389 . S
C547 C548 1.387 . S
C548 H533 0.930 . S
C548 C543 1.390 . S
C548 C547 1.387 . S
H549 C561 0.930 . S
H550 C563 0.930 . S
H551 C564 0.930 . S
H552 C568 0.959 . S
H553 C568 0.959 1_545 S
H554 C568 0.961 1_545 S
H555 C569 0.960 . S
H556 C569 0.961 . S
H557 C569 0.960 . S
H558 C572 0.929 . S
H559 C573 0.931 . S
H560 C575 0.930 . S
C561 H549 0.930 . S
C561 C562 1.399 . S
C561 C566 1.399 . S
C562 C561 1.399 . S
C562 C563 1.376 . S
C563 H550 0.930 . S
C563 C562 1.376 . S
C563 C564 1.388 . S
C564 H551 0.930 . S
C564 C563 1.388 . S
C564 C565 1.390 . S
C565 C564 1.390 . S
C565 C566 1.394 . S
C565 C571 1.465 . S
C566 C561 1.399 . S
C566 C565 1.394 . S
C566 C567 1.516 . S
C567 C566 1.516 . S
C567 C568 1.502 . S
C567 C569 1.561 1_565 S
C567 C570 1.526 . S
C568 H552 0.959 . S
C568 H553 0.959 1_565 S
C568 H554 0.961 1_565 S
C568 C567 1.502 . S
C569 H555 0.960 . S
C569 H556 0.961 . S
C569 H557 0.960 . S
C569 C567 1.561 1_545 S
C570 C567 1.526 . S
C570 C571 1.396 . S
C570 C575 1.390 . S
C571 C565 1.465 . S
C571 C570 1.396 . S
C571 C572 1.399 . S
C572 H558 0.929 . S
C572 C571 1.399 . S
C572 C573 1.385 . S
C573 H559 0.931 . S
C573 C572 1.385 . S
C573 C574 1.389 . S
C574 C573 1.389 . S
C574 C575 1.387 . S
C575 H560 0.930 . S
C575 C570 1.390 . S
C575 C574 1.387 . S
H576 C588 0.930 . S
H577 C590 0.930 . S
H578 C591 0.930 . S
H579 C595 0.959 . S
H580 C595 0.959 . S
H581 C595 0.961 . S
H582 C596 0.960 . S
H583 C596 0.961 . S
H584 C596 0.959 . S
H585 C599 0.929 . S
H586 C600 0.931 . S
H587 C602 0.930 . S
C588 H576 0.930 . S
C588 C589 1.399 . S
C588 C593 1.399 . S
C589 C588 1.399 . S
C589 C590 1.376 . S
C590 H577 0.930 . S
C590 C589 1.376 . S
C590 C591 1.388 . S
C591 H578 0.930 . S
C591 C590 1.388 . S
C591 C592 1.390 . S
C592 C591 1.390 . S
C592 C593 1.394 . S
C592 C598 1.465 . S
C593 C588 1.399 . S
C593 C592 1.394 . S
C593 C594 1.516 . S
C594 C593 1.516 . S
C594 C595 1.502 . S
C594 C596 1.561 . S
C594 C597 1.526 . S
C595 H579 0.959 . S
C595 H580 0.959 . S
C595 H581 0.961 . S
C595 C594 1.502 . S
C596 H582 0.960 . S
C596 H583 0.961 . S
C596 H584 0.959 . S
C596 C594 1.561 . S
C597 C594 1.526 . S
C597 C598 1.396 . S
C597 C602 1.390 . S
C598 C592 1.465 . S
C598 C597 1.396 . S
C598 C599 1.399 . S
C599 H585 0.929 . S
C599 C598 1.399 . S
C599 C600 1.385 . S
C600 H586 0.931 . S
C600 C599 1.385 . S
C600 C601 1.389 . S
C601 C600 1.389 . S
C601 C602 1.387 . S
C602 H587 0.930 . S
C602 C597 1.390 . S
C602 C601 1.387 . S
H603 C615 0.930 . S
H604 C617 0.930 . S
H605 C618 0.930 . S
H606 C622 0.959 . S
H607 C622 0.959 . S
H608 C622 0.961 . S
H609 C623 0.960 . S
H610 C623 0.961 . S
H611 C623 0.959 . S
H612 C626 0.929 . S
H613 C627 0.931 . S
H614 C629 0.930 . S
C615 H603 0.930 . S
C615 C616 1.399 . S
C615 C620 1.399 . S
C616 C615 1.399 . S
C616 C617 1.376 . S
C617 H604 0.930 . S
C617 C616 1.376 . S
C617 C618 1.388 . S
C618 H605 0.930 . S
C618 C617 1.388 . S
C618 C619 1.390 . S
C619 C618 1.390 . S
C619 C620 1.394 . S
C619 C625 1.465 . S
C620 C615 1.399 . S
C620 C619 1.394 . S
C620 C621 1.516 . S
C621 C620 1.516 . S
C621 C622 1.502 . S
C621 C623 1.561 . S
C621 C624 1.526 . S
C622 H606 0.959 . S
C622 H607 0.959 . S
C622 H608 0.961 . S
C622 C621 1.502 . S
C623 H609 0.960 . S
C623 H610 0.961 . S
C623 H611 0.959 . S
C623 C621 1.561 . S
C624 C621 1.526 . S
C624 C625 1.396 . S
C624 C629 1.390 . S
C625 C619 1.465 . S
C625 C624 1.396 . S
C625 C626 1.399 . S
C626 H612 0.929 . S
C626 C625 1.399 . S
C626 C627 1.385 . S
C627 H613 0.931 . S
C627 C626 1.385 . S
C627 C628 1.389 . S
C628 C627 1.389 . S
C628 C629 1.387 . S
C629 H614 0.930 . S
C629 C624 1.390 . S
C629 C628 1.387 . S
H630 C642 0.930 . S
H631 C644 0.930 . S
H632 C645 0.930 . S
H633 C649 0.959 . S
H634 C649 0.959 . S
H635 C649 0.961 . S
H636 C650 0.960 . S
H637 C650 0.961 . S
H638 C650 0.959 . S
H639 C653 0.929 . S
H640 C654 0.931 . S
H641 C656 0.930 . S
C642 H630 0.930 . S
C642 C643 1.399 . S
C642 C647 1.399 . S
C643 C642 1.399 . S
C643 C644 1.376 . S
C644 H631 0.930 . S
C644 C643 1.376 . S
C644 C645 1.388 . S
C645 H632 0.930 . S
C645 C644 1.388 . S
C645 C646 1.390 . S
C646 C645 1.390 . S
C646 C647 1.394 . S
C646 C652 1.465 . S
C647 C642 1.399 . S
C647 C646 1.394 . S
C647 C648 1.516 . S
C648 C647 1.516 . S
C648 C649 1.502 . S
C648 C650 1.561 . S
C648 C651 1.526 . S
C649 H633 0.959 . S
C649 H634 0.959 . S
C649 H635 0.961 . S
C649 C648 1.502 . S
C650 H636 0.960 . S
C650 H637 0.961 . S
C650 H638 0.959 . S
C650 C648 1.561 . S
C651 C648 1.526 . S
C651 C652 1.396 . S
C651 C656 1.390 . S
C652 C646 1.465 . S
C652 C651 1.396 . S
C652 C653 1.399 . S
C653 H639 0.929 . S
C653 C652 1.399 . S
C653 C654 1.385 . S
C654 H640 0.931 . S
C654 C653 1.385 . S
C654 C655 1.389 . S
C655 C654 1.389 . S
C655 C656 1.387 . S
C656 H641 0.930 . S
C656 C651 1.390 . S
C656 C655 1.387 . S
H657 C669 0.930 . S
H658 C671 0.930 . S
H659 C672 0.930 . S
H660 C676 0.959 . S
H661 C676 0.959 . S
H662 C676 0.961 . S
H663 C677 0.960 . S
H664 C677 0.961 . S
H665 C677 0.959 . S
H666 C680 0.929 . S
H667 C681 0.931 . S
H668 C683 0.930 . S
C669 H657 0.930 . S
C669 C670 1.399 . S
C669 C674 1.399 . S
C670 C669 1.399 . S
C670 C671 1.376 . S
C671 H658 0.930 . S
C671 C670 1.376 . S
C671 C672 1.388 . S
C672 H659 0.930 . S
C672 C671 1.388 . S
C672 C673 1.390 . S
C673 C672 1.390 . S
C673 C674 1.394 . S
C673 C679 1.465 . S
C674 C669 1.399 . S
C674 C673 1.394 . S
C674 C675 1.516 . S
C675 C674 1.516 . S
C675 C676 1.502 . S
C675 C677 1.561 . S
C675 C678 1.526 . S
C676 H660 0.959 . S
C676 H661 0.959 . S
C676 H662 0.961 . S
C676 C675 1.502 . S
C677 H663 0.960 . S
C677 H664 0.961 . S
C677 H665 0.959 . S
C677 C675 1.561 . S
C678 C675 1.526 . S
C678 C679 1.396 . S
C678 C683 1.390 . S
C679 C673 1.465 . S
C679 C678 1.396 . S
C679 C680 1.399 . S
C680 H666 0.929 . S
C680 C679 1.399 . S
C680 C681 1.385 . S
C681 H667 0.931 . S
C681 C680 1.385 . S
C681 C682 1.389 . S
C682 C681 1.389 . S
C682 C683 1.387 . S
C683 H668 0.930 . S
C683 C678 1.390 . S
C683 C682 1.387 . S
H684 C696 0.930 . S
H685 C698 0.930 . S
H686 C699 0.930 . S
H687 C703 0.959 . S
H688 C703 0.959 . S
H689 C703 0.961 . S
H690 C704 0.960 . S
H691 C704 0.961 . S
H692 C704 0.959 . S
H693 C707 0.929 . S
H694 C708 0.931 . S
H695 C710 0.930 . S
C696 H684 0.930 . S
C696 C697 1.399 . S
C696 C701 1.399 . S
C697 C696 1.399 . S
C697 C698 1.376 . S
C698 H685 0.930 . S
C698 C697 1.376 . S
C698 C699 1.388 . S
C699 H686 0.930 . S
C699 C698 1.388 . S
C699 C700 1.390 . S
C700 C699 1.390 . S
C700 C701 1.394 . S
C700 C706 1.465 . S
C701 C696 1.399 . S
C701 C700 1.394 . S
C701 C702 1.516 . S
C702 C701 1.516 . S
C702 C703 1.502 . S
C702 C704 1.561 . S
C702 C705 1.526 . S
C703 H687 0.959 . S
C703 H688 0.959 . S
C703 H689 0.961 . S
C703 C702 1.502 . S
C704 H690 0.960 . S
C704 H691 0.961 . S
C704 H692 0.959 . S
C704 C702 1.561 . S
C705 C702 1.526 . S
C705 C706 1.396 . S
C705 C710 1.390 . S
C706 C700 1.465 . S
C706 C705 1.396 . S
C706 C707 1.399 . S
C707 H693 0.929 . S
C707 C706 1.399 . S
C707 C708 1.385 . S
C708 H694 0.931 . S
C708 C707 1.385 . S
C708 C709 1.389 . S
C709 C708 1.389 . S
C709 C710 1.387 . S
C710 H695 0.930 . S
C710 C705 1.390 . S
C710 C709 1.387 . S
H711 C723 0.930 . S
H712 C725 0.930 . S
H713 C726 0.930 . S
H714 C730 0.959 . S
H715 C730 0.959 . S
H716 C730 0.961 . S
H717 C731 0.960 . S
H718 C731 0.961 . S
H719 C731 0.959 . S
H720 C734 0.929 . S
H721 C735 0.931 . S
H722 C737 0.930 . S
C723 H711 0.930 . S
C723 C724 1.399 . S
C723 C728 1.399 . S
C724 C723 1.399 . S
C724 C725 1.376 . S
C725 H712 0.930 . S
C725 C724 1.376 . S
C725 C726 1.388 . S
C726 H713 0.930 . S
C726 C725 1.388 . S
C726 C727 1.390 . S
C727 C726 1.390 . S
C727 C728 1.394 . S
C727 C733 1.465 . S
C728 C723 1.399 . S
C728 C727 1.394 . S
C728 C729 1.516 . S
C729 C728 1.516 . S
C729 C730 1.502 . S
C729 C731 1.561 . S
C729 C732 1.526 . S
C730 H714 0.959 . S
C730 H715 0.959 . S
C730 H716 0.961 . S
C730 C729 1.502 . S
C731 H717 0.960 . S
C731 H718 0.961 . S
C731 H719 0.959 . S
C731 C729 1.561 . S
C732 C729 1.526 . S
C732 C733 1.396 . S
C732 C737 1.390 . S
C733 C727 1.465 . S
C733 C732 1.396 . S
C733 C734 1.399 . S
C734 H720 0.929 . S
C734 C733 1.399 . S
C734 C735 1.385 . S
C735 H721 0.931 . S
C735 C734 1.385 . S
C735 C736 1.389 . S
C736 C735 1.389 . S
C736 C737 1.387 . S
C737 H722 0.930 . S
C737 C732 1.390 . S
C737 C736 1.387 . S
H738 C750 0.930 . S
H739 C752 0.930 . S
H740 C753 0.930 . S
H741 C757 0.959 . S
H742 C757 0.959 . S
H743 C757 0.961 . S
H744 C758 0.960 . S
H745 C758 0.961 . S
H746 C758 0.959 . S
H747 C761 0.929 . S
H748 C762 0.931 . S
H749 C764 0.930 . S
C750 H738 0.930 . S
C750 C751 1.399 . S
C750 C755 1.399 . S
C751 C750 1.399 . S
C751 C752 1.376 . S
C752 H739 0.930 . S
C752 C751 1.376 . S
C752 C753 1.388 . S
C753 H740 0.930 . S
C753 C752 1.388 . S
C753 C754 1.390 . S
C754 C753 1.390 . S
C754 C755 1.394 . S
C754 C760 1.465 . S
C755 C750 1.399 . S
C755 C754 1.394 . S
C755 C756 1.516 . S
C756 C755 1.516 . S
C756 C757 1.502 . S
C756 C758 1.561 . S
C756 C759 1.526 . S
C757 H741 0.959 . S
C757 H742 0.959 . S
C757 H743 0.961 . S
C757 C756 1.502 . S
C758 H744 0.960 . S
C758 H745 0.961 . S
C758 H746 0.959 . S
C758 C756 1.561 . S
C759 C756 1.526 . S
C759 C760 1.396 . S
C759 C764 1.390 . S
C760 C754 1.465 . S
C760 C759 1.396 . S
C760 C761 1.399 . S
C761 H747 0.929 . S
C761 C760 1.399 . S
C761 C762 1.385 . S
C762 H748 0.931 . S
C762 C761 1.385 . S
C762 C763 1.389 . S
C763 C762 1.389 . S
C763 C764 1.387 . S
C764 H749 0.930 . S
C764 C759 1.390 . S
C764 C763 1.387 . S
H765 C777 0.930 . S
H766 C779 0.930 . S
H767 C780 0.930 . S
H768 C784 0.959 . S
H769 C784 0.959 . S
H770 C784 0.961 . S
H771 C785 0.960 . S
H772 C785 0.961 1_455 S
H773 C785 0.959 . S
H774 C788 0.929 . S
H775 C789 0.931 . S
H776 C791 0.930 1_455 S
C777 H765 0.930 . S
C777 C778 1.399 . S
C777 C782 1.399 . S
C778 C777 1.399 . S
C778 C779 1.376 . S
C779 H766 0.930 . S
C779 C778 1.376 . S
C779 C780 1.388 . S
C780 H767 0.930 . S
C780 C779 1.388 . S
C780 C781 1.390 . S
C781 C780 1.390 . S
C781 C782 1.394 . S
C781 C787 1.465 . S
C782 C777 1.399 . S
C782 C781 1.394 . S
C782 C783 1.516 . S
C783 C782 1.516 . S
C783 C784 1.502 1_655 S
C783 C785 1.561 . S
C783 C786 1.526 . S
C784 H768 0.959 . S
C784 H769 0.959 . S
C784 H770 0.961 . S
C784 C783 1.502 1_455 S
C785 H771 0.960 . S
C785 H772 0.961 1_655 S
C785 H773 0.959 . S
C785 C783 1.561 . S
C786 C783 1.526 . S
C786 C787 1.396 . S
C786 C791 1.390 . S
C787 C781 1.465 . S
C787 C786 1.396 . S
C787 C788 1.399 . S
C788 H774 0.929 . S
C788 C787 1.399 . S
C788 C789 1.385 . S
C789 H775 0.931 . S
C789 C788 1.385 . S
C789 C790 1.389 . S
C790 C789 1.389 . S
C790 C791 1.387 . S
C791 H776 0.930 1_655 S
C791 C786 1.390 . S
C791 C790 1.387 . S
H792 C804 0.930 . S
H793 C806 0.930 . S
H794 C807 0.930 . S
H795 C811 0.959 . S
H796 C811 0.959 . S
H797 C811 0.961 . S
H798 C812 0.960 . S
H799 C812 0.961 . S
H800 C812 0.959 . S
H801 C815 0.929 . S
H802 C816 0.931 . S
H803 C818 0.930 . S
C804 H792 0.930 . S
C804 C805 1.399 . S
C804 C809 1.399 . S
C805 C804 1.399 . S
C805 C806 1.376 . S
C806 H793 0.930 . S
C806 C805 1.376 . S
C806 C807 1.388 . S
C807 H794 0.930 . S
C807 C806 1.388 . S
C807 C808 1.390 . S
C808 C807 1.390 . S
C808 C809 1.394 . S
C808 C814 1.465 . S
C809 C804 1.399 . S
C809 C808 1.394 . S
C809 C810 1.516 . S
C810 C809 1.516 . S
C810 C811 1.502 . S
C810 C812 1.561 . S
C810 C813 1.526 . S
C811 H795 0.959 . S
C811 H796 0.959 . S
C811 H797 0.961 . S
C811 C810 1.502 . S
C812 H798 0.960 . S
C812 H799 0.961 . S
C812 H800 0.959 . S
C812 C810 1.561 . S
C813 C810 1.526 . S
C813 C814 1.396 . S
C813 C818 1.390 . S
C814 C808 1.465 . S
C814 C813 1.396 . S
C814 C815 1.399 . S
C815 H801 0.929 . S
C815 C814 1.399 . S
C815 C816 1.385 1_565 S
C816 H802 0.931 . S
C816 C815 1.385 1_545 S
C816 C817 1.389 . S
C817 C816 1.389 . S
C817 C818 1.387 1_545 S
C818 H803 0.930 . S
C818 C813 1.390 . S
C818 C817 1.387 1_565 S
H819 C831 0.930 . S
H820 C833 0.930 . S
H821 C834 0.930 . S
H822 C838 0.959 . S
H823 C838 0.959 . S
H824 C838 0.961 . S
H825 C839 0.960 . S
H826 C839 0.961 . S
H827 C839 0.959 . S
H828 C842 0.929 . S
H829 C843 0.931 . S
H830 C845 0.930 . S
C831 H819 0.930 . S
C831 C832 1.399 . S
C831 C836 1.399 . S
C832 C831 1.399 . S
C832 C833 1.376 . S
C833 H820 0.930 . S
C833 C832 1.376 . S
C833 C834 1.388 . S
C834 H821 0.930 . S
C834 C833 1.388 . S
C834 C835 1.390 . S
C835 C834 1.390 . S
C835 C836 1.394 . S
C835 C841 1.465 . S
C836 C831 1.399 . S
C836 C835 1.394 . S
C836 C837 1.516 . S
C837 C836 1.516 . S
C837 C838 1.502 . S
C837 C839 1.561 . S
C837 C840 1.526 . S
C838 H822 0.959 . S
C838 H823 0.959 . S
C838 H824 0.961 . S
C838 C837 1.502 . S
C839 H825 0.960 . S
C839 H826 0.961 . S
C839 H827 0.959 . S
C839 C837 1.561 . S
C840 C837 1.526 . S
C840 C841 1.396 . S
C840 C845 1.390 . S
C841 C835 1.465 . S
C841 C840 1.396 . S
C841 C842 1.399 . S
C842 H828 0.929 . S
C842 C841 1.399 . S
C842 C843 1.385 . S
C843 H829 0.931 . S
C843 C842 1.385 . S
C843 C844 1.389 . S
C844 C843 1.389 . S
C844 C845 1.387 . S
C845 H830 0.930 . S
C845 C840 1.390 . S
C845 C844 1.387 . S
H846 C858 0.930 . S
H847 C860 0.930 . S
H848 C861 0.930 . S
H849 C865 0.959 . S
H850 C865 0.959 . S
H851 C865 0.961 . S
H852 C866 0.960 . S
H853 C866 0.961 1_554 S
H854 C866 0.959 . S
H855 C869 0.929 . S
H856 C870 0.931 . S
H857 C872 0.930 . S
C858 H846 0.930 . S
C858 C859 1.399 . S
C858 C863 1.399 . S
C859 C858 1.399 . S
C859 C860 1.376 . S
C860 H847 0.930 . S
C860 C859 1.376 . S
C860 C861 1.388 . S
C861 H848 0.930 . S
C861 C860 1.388 . S
C861 C862 1.390 . S
C862 C861 1.390 . S
C862 C863 1.394 . S
C862 C868 1.465 . S
C863 C858 1.399 . S
C863 C862 1.394 . S
C863 C864 1.516 1_556 S
C864 C863 1.516 1_554 S
C864 C865 1.502 . S
C864 C866 1.561 1_554 S
C864 C867 1.526 . S
C865 H849 0.959 . S
C865 H850 0.959 . S
C865 H851 0.961 . S
C865 C864 1.502 . S
C866 H852 0.960 . S
C866 H853 0.961 1_556 S
C866 H854 0.959 . S
C866 C864 1.561 1_556 S
C867 C864 1.526 . S
C867 C868 1.396 1_554 S
C867 C872 1.390 . S
C868 C862 1.465 . S
C868 C867 1.396 1_556 S
C868 C869 1.399 1_545 S
C869 H855 0.929 . S
C869 C868 1.399 1_565 S
C869 C870 1.385 1_556 S
C870 H856 0.931 . S
C870 C869 1.385 1_554 S
C870 C871 1.389 . S
C871 C870 1.389 . S
C871 C872 1.387 1_565 S
C872 H857 0.930 . S
C872 C867 1.390 . S
C872 C871 1.387 1_545 S
H873 C885 0.930 . S
H874 C887 0.930 . S
H875 C888 0.930 . S
H876 C892 0.959 . S
H877 C892 0.959 . S
H878 C892 0.961 . S
H879 C893 0.960 . S
H880 C893 0.961 . S
H881 C893 0.959 . S
H882 C896 0.929 . S
H883 C897 0.931 . S
H884 C899 0.930 . S
C885 H873 0.930 . S
C885 C886 1.399 . S
C885 C890 1.399 . S
C886 C885 1.399 . S
C886 C887 1.376 . S
C887 H874 0.930 . S
C887 C886 1.376 . S
C887 C888 1.388 . S
C888 H875 0.930 . S
C888 C887 1.388 . S
C888 C889 1.390 . S
C889 C888 1.390 . S
C889 C890 1.394 . S
C889 C895 1.465 . S
C890 C885 1.399 . S
C890 C889 1.394 . S
C890 C891 1.516 . S
C891 C890 1.516 . S
C891 C892 1.502 . S
C891 C893 1.561 . S
C891 C894 1.526 . S
C892 H876 0.959 . S
C892 H877 0.959 . S
C892 H878 0.961 . S
C892 C891 1.502 . S
C893 H879 0.960 . S
C893 H880 0.961 . S
C893 H881 0.959 . S
C893 C891 1.561 . S
C894 C891 1.526 . S
C894 C895 1.396 . S
C894 C899 1.390 . S
C895 C889 1.465 . S
C895 C894 1.396 . S
C895 C896 1.399 . S
C896 H882 0.929 . S
C896 C895 1.399 . S
C896 C897 1.385 . S
C897 H883 0.931 . S
C897 C896 1.385 . S
C897 C898 1.389 . S
C898 C897 1.389 . S
C898 C899 1.387 . S
C899 H884 0.930 . S
C899 C894 1.390 . S
C899 C898 1.387 . S
H900 C912 0.930 . S
H901 C914 0.930 . S
H902 C915 0.930 . S
H903 C919 0.959 . S
H904 C919 0.959 . S
H905 C919 0.961 . S
H906 C920 0.960 . S
H907 C920 0.961 . S
H908 C920 0.959 . S
H909 C923 0.929 . S
H910 C924 0.931 . S
H911 C926 0.930 . S
C912 H900 0.930 . S
C912 C913 1.399 . S
C912 C917 1.399 . S
C913 C912 1.399 . S
C913 C914 1.376 . S
C914 H901 0.930 . S
C914 C913 1.376 . S
C914 C915 1.388 . S
C915 H902 0.930 . S
C915 C914 1.388 . S
C915 C916 1.390 . S
C916 C915 1.390 . S
C916 C917 1.394 . S
C916 C922 1.465 . S
C917 C912 1.399 . S
C917 C916 1.394 . S
C917 C918 1.516 . S
C918 C917 1.516 . S
C918 C919 1.502 . S
C918 C920 1.561 . S
C918 C921 1.526 . S
C919 H903 0.959 . S
C919 H904 0.959 . S
C919 H905 0.961 . S
C919 C918 1.502 . S
C920 H906 0.960 . S
C920 H907 0.961 . S
C920 H908 0.959 . S
C920 C918 1.561 . S
C921 C918 1.526 . S
C921 C922 1.396 . S
C921 C926 1.390 . S
C922 C916 1.465 . S
C922 C921 1.396 . S
C922 C923 1.399 . S
C923 H909 0.929 . S
C923 C922 1.399 . S
C923 C924 1.385 . S
C924 H910 0.931 . S
C924 C923 1.385 . S
C924 C925 1.389 . S
C925 C924 1.389 . S
C925 C926 1.387 . S
C926 H911 0.930 . S
C926 C921 1.390 . S
C926 C925 1.387 . S
H927 C939 0.930 . S
H928 C941 0.930 . S
H929 C942 0.930 . S
H930 C946 0.959 . S
H931 C946 0.959 . S
H932 C946 0.961 . S
H933 C947 0.960 . S
H934 C947 0.961 . S
H935 C947 0.959 . S
H936 C950 0.929 . S
H937 C951 0.931 . S
H938 C953 0.930 . S
C939 H927 0.930 . S
C939 C940 1.399 . S
C939 C944 1.399 . S
C940 C939 1.399 . S
C940 C941 1.376 . S
C941 H928 0.930 . S
C941 C940 1.376 . S
C941 C942 1.388 . S
C942 H929 0.930 . S
C942 C941 1.388 . S
C942 C943 1.390 . S
C943 C942 1.390 . S
C943 C944 1.394 . S
C943 C949 1.465 . S
C944 C939 1.399 . S
C944 C943 1.394 . S
C944 C945 1.516 . S
C945 C944 1.516 . S
C945 C946 1.502 . S
C945 C947 1.561 . S
C945 C948 1.526 . S
C946 H930 0.959 . S
C946 H931 0.959 . S
C946 H932 0.961 . S
C946 C945 1.502 . S
C947 H933 0.960 . S
C947 H934 0.961 . S
C947 H935 0.959 . S
C947 C945 1.561 . S
C948 C945 1.526 . S
C948 C949 1.396 . S
C948 C953 1.390 . S
C949 C943 1.465 . S
C949 C948 1.396 . S
C949 C950 1.399 . S
C950 H936 0.929 . S
C950 C949 1.399 . S
C950 C951 1.385 . S
C951 H937 0.931 . S
C951 C950 1.385 . S
C951 C952 1.389 . S
C952 C951 1.389 . S
C952 C953 1.387 . S
C953 H938 0.930 . S
C953 C948 1.390 . S
C953 C952 1.387 . S
H954 C966 0.930 . S
H955 C968 0.930 . S
H956 C969 0.930 . S
H957 C973 0.959 . S
H958 C973 0.959 . S
H959 C973 0.961 . S
H960 C974 0.960 . S
H961 C974 0.961 . S
H962 C974 0.959 . S
H963 C977 0.929 . S
H964 C978 0.931 . S
H965 C980 0.930 . S
C966 H954 0.930 . S
C966 C967 1.399 1_545 S
C966 C971 1.399 . S
C967 C966 1.399 1_565 S
C967 C968 1.376 . S
C968 H955 0.930 . S
C968 C967 1.376 . S
C968 C969 1.388 1_565 S
C969 H956 0.930 . S
C969 C968 1.388 1_545 S
C969 C970 1.390 . S
C970 C969 1.390 . S
C970 C971 1.394 . S
C970 C976 1.465 . S
C971 C966 1.399 . S
C971 C970 1.394 . S
C971 C972 1.516 . S
C972 C971 1.516 . S
C972 C973 1.502 . S
C972 C974 1.561 . S
C972 C975 1.526 . S
C973 H957 0.959 . S
C973 H958 0.959 . S
C973 H959 0.961 . S
C973 C972 1.502 . S
C974 H960 0.960 . S
C974 H961 0.961 . S
C974 H962 0.959 . S
C974 C972 1.561 . S
C975 C972 1.526 . S
C975 C976 1.396 . S
C975 C980 1.390 . S
C976 C970 1.465 . S
C976 C975 1.396 . S
C976 C977 1.399 . S
C977 H963 0.929 . S
C977 C976 1.399 . S
C977 C978 1.385 . S
C978 H964 0.931 . S
C978 C977 1.385 . S
C978 C979 1.389 . S
C979 C978 1.389 . S
C979 C980 1.387 . S
C980 H965 0.930 . S
C980 C975 1.390 . S
C980 C979 1.387 . S
H981 C993 0.930 . S
H982 C995 0.930 . S
H983 C996 0.930 . S
H984 C1000 0.959 . S
H985 C1000 0.959 . S
H986 C1000 0.961 . S
H987 C1001 0.960 . S
H988 C1001 0.961 . S
H989 C1001 0.959 . S
H990 C1004 0.929 . S
H991 C1005 0.931 . S
H992 C1007 0.930 . S
C993 H981 0.930 . S
C993 C994 1.399 . S
C993 C998 1.399 . S
C994 C993 1.399 . S
C994 C995 1.376 . S
C995 H982 0.930 . S
C995 C994 1.376 . S
C995 C996 1.388 . S
C996 H983 0.930 . S
C996 C995 1.388 . S
C996 C997 1.390 . S
C997 C996 1.390 . S
C997 C998 1.394 . S
C997 C1003 1.465 . S
C998 C993 1.399 . S
C998 C997 1.394 . S
C998 C999 1.516 . S
C999 C998 1.516 . S
C999 C1000 1.502 . S
C999 C1001 1.561 . S
C999 C1002 1.526 . S
C1000 H984 0.959 . S
C1000 H985 0.959 . S
C1000 H986 0.961 . S
C1000 C999 1.502 . S
C1001 H987 0.960 . S
C1001 H988 0.961 . S
C1001 H989 0.959 . S
C1001 C999 1.561 . S
C1002 C999 1.526 . S
C1002 C1003 1.396 . S
C1002 C1007 1.390 . S
C1003 C997 1.465 . S
C1003 C1002 1.396 . S
C1003 C1004 1.399 . S
C1004 H990 0.929 . S
C1004 C1003 1.399 . S
C1004 C1005 1.385 . S
C1005 H991 0.931 . S
C1005 C1004 1.385 . S
C1005 C1006 1.389 . S
C1006 C1005 1.389 . S
C1006 C1007 1.387 . S
C1007 H992 0.930 . S
C1007 C1002 1.390 . S
C1007 C1006 1.387 . S
H1008 C1020 0.930 . S
H1009 C1022 0.930 . S
H1010 C1023 0.930 . S
H1011 C1027 0.959 . S
H1012 C1027 0.959 . S
H1013 C1027 0.961 . S
H1014 C1028 0.960 . S
H1015 C1028 0.961 . S
H1016 C1028 0.959 . S
H1017 C1031 0.929 . S
H1018 C1032 0.931 . S
H1019 C1034 0.930 . S
C1020 H1008 0.930 . S
C1020 C1021 1.399 . S
C1020 C1025 1.399 . S
C1021 C1020 1.399 . S
C1021 C1022 1.376 . S
C1022 H1009 0.930 . S
C1022 C1021 1.376 . S
C1022 C1023 1.388 . S
C1023 H1010 0.930 . S
C1023 C1022 1.388 . S
C1023 C1024 1.390 . S
C1024 C1023 1.390 . S
C1024 C1025 1.394 . S
C1024 C1030 1.465 . S
C1025 C1020 1.399 . S
C1025 C1024 1.394 . S
C1025 C1026 1.516 . S
C1026 C1025 1.516 . S
C1026 C1027 1.502 . S
C1026 C1028 1.561 . S
C1026 C1029 1.526 . S
C1027 H1011 0.959 . S
C1027 H1012 0.959 . S
C1027 H1013 0.961 . S
C1027 C1026 1.502 . S
C1028 H1014 0.960 . S
C1028 H1015 0.961 . S
C1028 H1016 0.959 . S
C1028 C1026 1.561 . S
C1029 C1026 1.526 . S
C1029 C1030 1.396 . S
C1029 C1034 1.390 . S
C1030 C1024 1.465 . S
C1030 C1029 1.396 . S
C1030 C1031 1.399 . S
C1031 H1017 0.929 . S
C1031 C1030 1.399 . S
C1031 C1032 1.385 . S
C1032 H1018 0.931 . S
C1032 C1031 1.385 . S
C1032 C1033 1.389 . S
C1033 C1032 1.389 . S
C1033 C1034 1.387 . S
C1034 H1019 0.930 . S
C1034 C1029 1.390 . S
C1034 C1033 1.387 . S
H1035 C1047 0.930 . S
H1036 C1049 0.930 . S
H1037 C1050 0.930 . S
H1038 C1054 0.959 . S
H1039 C1054 0.959 . S
H1040 C1054 0.961 . S
H1041 C1055 0.960 . S
H1042 C1055 0.959 1_565 S
H1043 C1055 0.959 . S
H1044 C1058 0.929 . S
H1045 C1059 0.931 . S
H1046 C1061 0.930 . S
C1047 H1035 0.930 . S
C1047 C1048 1.399 . S
C1047 C1052 1.399 . S
C1048 C1047 1.399 . S
C1048 C1049 1.376 . S
C1049 H1036 0.930 . S
C1049 C1048 1.376 . S
C1049 C1050 1.388 . S
C1050 H1037 0.930 . S
C1050 C1049 1.388 . S
C1050 C1051 1.390 . S
C1051 C1050 1.390 . S
C1051 C1052 1.394 . S
C1051 C1057 1.465 . S
C1052 C1047 1.399 . S
C1052 C1051 1.394 . S
C1052 C1053 1.516 . S
C1053 C1052 1.516 . S
C1053 C1054 1.502 . S
C1053 C1055 1.561 . S
C1053 C1056 1.526 . S
C1054 H1038 0.959 . S
C1054 H1039 0.959 . S
C1054 H1040 0.961 . S
C1054 C1053 1.502 . S
C1055 H1041 0.960 . S
C1055 H1042 0.959 1_545 S
C1055 H1043 0.959 . S
C1055 C1053 1.561 . S
C1056 C1053 1.526 . S
C1056 C1057 1.396 . S
C1056 C1061 1.390 . S
C1057 C1051 1.465 . S
C1057 C1056 1.396 . S
C1057 C1058 1.399 . S
C1058 H1044 0.929 . S
C1058 C1057 1.399 . S
C1058 C1059 1.385 . S
C1059 H1045 0.931 . S
C1059 C1058 1.385 . S
C1059 C1060 1.389 . S
C1060 C1059 1.389 . S
C1060 C1061 1.387 . S
C1061 H1046 0.930 . S
C1061 C1056 1.390 . S
C1061 C1060 1.387 . S
H1062 C1074 0.930 . S
H1063 C1076 0.930 . S
H1064 C1077 0.930 . S
H1065 C1081 0.959 . S
H1066 C1081 0.959 . S
H1067 C1081 0.961 . S
H1068 C1082 0.960 . S
H1069 C1082 0.961 . S
H1070 C1082 0.959 . S
H1071 C1085 0.929 . S
H1072 C1086 0.931 . S
H1073 C1088 0.930 . S
C1074 H1062 0.930 . S
C1074 C1075 1.399 . S
C1074 C1079 1.399 . S
C1075 C1074 1.399 . S
C1075 C1076 1.376 . S
C1076 H1063 0.930 . S
C1076 C1075 1.376 . S
C1076 C1077 1.388 . S
C1077 H1064 0.930 . S
C1077 C1076 1.388 . S
C1077 C1078 1.390 . S
C1078 C1077 1.390 . S
C1078 C1079 1.394 . S
C1078 C1084 1.465 . S
C1079 C1074 1.399 . S
C1079 C1078 1.394 . S
C1079 C1080 1.516 . S
C1080 C1079 1.516 . S
C1080 C1081 1.502 . S
C1080 C1082 1.561 . S
C1080 C1083 1.526 . S
C1081 H1065 0.959 . S
C1081 H1066 0.959 . S
C1081 H1067 0.961 . S
C1081 C1080 1.502 . S
C1082 H1068 0.960 . S
C1082 H1069 0.961 . S
C1082 H1070 0.959 . S
C1082 C1080 1.561 . S
C1083 C1080 1.526 . S
C1083 C1084 1.396 . S
C1083 C1088 1.390 . S
C1084 C1078 1.465 . S
C1084 C1083 1.396 . S
C1084 C1085 1.399 . S
C1085 H1071 0.929 . S
C1085 C1084 1.399 . S
C1085 C1086 1.385 . S
C1086 H1072 0.931 . S
C1086 C1085 1.385 . S
C1086 C1087 1.389 . S
C1087 C1086 1.389 . S
C1087 C1088 1.387 . S
C1088 H1073 0.930 . S
C1088 C1083 1.390 . S
C1088 C1087 1.387 . S
H1089 C1101 0.930 . S
H1090 C1103 0.930 . S
H1091 C1104 0.930 . S
H1092 C1108 0.959 . S
H1093 C1108 0.959 . S
H1094 C1108 0.961 . S
H1095 C1109 0.960 . S
H1096 C1109 0.961 . S
H1097 C1109 0.959 . S
H1098 C1112 0.929 . S
H1099 C1113 0.931 . S
H1100 C1115 0.930 . S
C1101 H1089 0.930 . S
C1101 C1102 1.399 . S
C1101 C1106 1.399 . S
C1102 C1101 1.399 . S
C1102 C1103 1.376 . S
C1103 H1090 0.930 . S
C1103 C1102 1.376 . S
C1103 C1104 1.388 . S
C1104 H1091 0.930 . S
C1104 C1103 1.388 . S
C1104 C1105 1.390 . S
C1105 C1104 1.390 . S
C1105 C1106 1.394 . S
C1105 C1111 1.465 . S
C1106 C1101 1.399 . S
C1106 C1105 1.394 . S
C1106 C1107 1.516 . S
C1107 C1106 1.516 . S
C1107 C1108 1.502 . S
C1107 C1109 1.561 . S
C1107 C1110 1.526 . S
C1108 H1092 0.959 . S
C1108 H1093 0.959 . S
C1108 H1094 0.961 . S
C1108 C1107 1.502 . S
C1109 H1095 0.960 . S
C1109 H1096 0.961 . S
C1109 H1097 0.959 . S
C1109 C1107 1.561 . S
C1110 C1107 1.526 . S
C1110 C1111 1.396 . S
C1110 C1115 1.390 . S
C1111 C1105 1.465 . S
C1111 C1110 1.396 . S
C1111 C1112 1.399 . S
C1112 H1098 0.929 . S
C1112 C1111 1.399 . S
C1112 C1113 1.385 . S
C1113 H1099 0.931 . S
C1113 C1112 1.385 . S
C1113 C1114 1.389 . S
C1114 C1113 1.389 . S
C1114 C1115 1.387 . S
C1115 H1100 0.930 . S
C1115 C1110 1.390 . S
C1115 C1114 1.387 . S
H1116 C1128 0.930 . S
H1117 C1130 0.930 . S
H1118 C1131 0.930 . S
H1119 C1135 0.959 . S
H1120 C1135 0.959 . S
H1121 C1135 0.961 . S
H1122 C1136 0.960 . S
H1123 C1136 0.961 . S
H1124 C1136 0.959 . S
H1125 C1139 0.929 . S
H1126 C1140 0.931 . S
H1127 C1142 0.930 . S
C1128 H1116 0.930 . S
C1128 C1129 1.399 . S
C1128 C1133 1.399 . S
C1129 C1128 1.399 . S
C1129 C1130 1.376 . S
C1130 H1117 0.930 . S
C1130 C1129 1.376 . S
C1130 C1131 1.388 . S
C1131 H1118 0.930 . S
C1131 C1130 1.388 . S
C1131 C1132 1.390 . S
C1132 C1131 1.390 . S
C1132 C1133 1.394 . S
C1132 C1138 1.465 . S
C1133 C1128 1.399 . S
C1133 C1132 1.394 . S
C1133 C1134 1.516 . S
C1134 C1133 1.516 . S
C1134 C1135 1.502 . S
C1134 C1136 1.561 . S
C1134 C1137 1.526 . S
C1135 H1119 0.959 . S
C1135 H1120 0.959 . S
C1135 H1121 0.961 . S
C1135 C1134 1.502 . S
C1136 H1122 0.960 . S
C1136 H1123 0.961 . S
C1136 H1124 0.959 . S
C1136 C1134 1.561 . S
C1137 C1134 1.526 . S
C1137 C1138 1.396 . S
C1137 C1142 1.390 . S
C1138 C1132 1.465 . S
C1138 C1137 1.396 . S
C1138 C1139 1.399 . S
C1139 H1125 0.929 . S
C1139 C1138 1.399 . S
C1139 C1140 1.385 . S
C1140 H1126 0.931 . S
C1140 C1139 1.385 . S
C1140 C1141 1.389 . S
C1141 C1140 1.389 . S
C1141 C1142 1.387 . S
C1142 H1127 0.930 . S
C1142 C1137 1.390 . S
C1142 C1141 1.387 . S
H1143 C1155 0.930 . S
H1144 C1157 0.930 . S
H1145 C1158 0.930 . S
H1146 C1162 0.959 . S
H1147 C1162 0.959 . S
H1148 C1162 0.961 . S
H1149 C1163 0.960 . S
H1150 C1163 0.961 . S
H1151 C1163 0.959 . S
H1152 C1166 0.929 . S
H1153 C1167 0.931 . S
H1154 C1169 0.930 . S
C1155 H1143 0.930 . S
C1155 C1156 1.399 . S
C1155 C1160 1.399 . S
C1156 C1155 1.399 . S
C1156 C1157 1.376 . S
C1157 H1144 0.930 . S
C1157 C1156 1.376 . S
C1157 C1158 1.388 . S
C1158 H1145 0.930 . S
C1158 C1157 1.388 . S
C1158 C1159 1.390 . S
C1159 C1158 1.390 . S
C1159 C1160 1.394 . S
C1159 C1165 1.465 . S
C1160 C1155 1.399 . S
C1160 C1159 1.394 . S
C1160 C1161 1.516 . S
C1161 C1160 1.516 . S
C1161 C1162 1.502 . S
C1161 C1163 1.561 . S
C1161 C1164 1.526 . S
C1162 H1146 0.959 . S
C1162 H1147 0.959 . S
C1162 H1148 0.961 . S
C1162 C1161 1.502 . S
C1163 H1149 0.960 . S
C1163 H1150 0.961 . S
C1163 H1151 0.959 . S
C1163 C1161 1.561 . S
C1164 C1161 1.526 . S
C1164 C1165 1.396 . S
C1164 C1169 1.390 . S
C1165 C1159 1.465 . S
C1165 C1164 1.396 . S
C1165 C1166 1.399 . S
C1166 H1152 0.929 . S
C1166 C1165 1.399 . S
C1166 C1167 1.385 . S
C1167 H1153 0.931 . S
C1167 C1166 1.385 . S
C1167 C1168 1.389 . S
C1168 C1167 1.389 . S
C1168 C1169 1.387 . S
C1169 H1154 0.930 . S
C1169 C1164 1.390 . S
C1169 C1168 1.387 . S
H1170 C1182 0.930 . S
H1171 C1184 0.930 . S
H1172 C1185 0.930 . S
H1173 C1189 0.959 . S
H1174 C1189 0.959 . S
H1175 C1189 0.961 . S
H1176 C1190 0.960 . S
H1177 C1190 0.961 . S
H1178 C1190 0.959 . S
H1179 C1193 0.929 . S
H1180 C1194 0.931 . S
H1181 C1196 0.930 . S
C1182 H1170 0.930 . S
C1182 C1183 1.399 . S
C1182 C1187 1.399 . S
C1183 C1182 1.399 . S
C1183 C1184 1.376 . S
C1184 H1171 0.930 . S
C1184 C1183 1.376 . S
C1184 C1185 1.388 . S
C1185 H1172 0.930 . S
C1185 C1184 1.388 . S
C1185 C1186 1.390 . S
C1186 C1185 1.390 . S
C1186 C1187 1.394 . S
C1186 C1192 1.465 . S
C1187 C1182 1.399 . S
C1187 C1186 1.394 . S
C1187 C1188 1.516 . S
C1188 C1187 1.516 . S
C1188 C1189 1.502 . S
C1188 C1190 1.561 . S
C1188 C1191 1.526 . S
C1189 H1173 0.959 . S
C1189 H1174 0.959 . S
C1189 H1175 0.961 . S
C1189 C1188 1.502 . S
C1190 H1176 0.960 . S
C1190 H1177 0.961 . S
C1190 H1178 0.959 . S
C1190 C1188 1.561 . S
C1191 C1188 1.526 . S
C1191 C1192 1.396 . S
C1191 C1196 1.390 . S
C1192 C1186 1.465 . S
C1192 C1191 1.396 . S
C1192 C1193 1.399 . S
C1193 H1179 0.929 . S
C1193 C1192 1.399 . S
C1193 C1194 1.385 . S
C1194 H1180 0.931 . S
C1194 C1193 1.385 . S
C1194 C1195 1.389 . S
C1195 C1194 1.389 . S
C1195 C1196 1.387 . S
C1196 H1181 0.930 . S
C1196 C1191 1.390 . S
C1196 C1195 1.387 . S
H1197 C1209 0.930 . S
H1198 C1211 0.930 . S
H1199 C1212 0.930 . S
H1200 C1216 0.959 . S
H1201 C1216 0.959 . S
H1202 C1216 0.961 . S
H1203 C1217 0.960 . S
H1204 C1217 0.961 1_455 S
H1205 C1217 0.959 1_455 S
H1206 C1220 0.929 . S
H1207 C1221 0.931 . S
H1208 C1223 0.930 . S
C1209 H1197 0.930 . S
C1209 C1210 1.399 . S
C1209 C1214 1.399 . S
C1210 C1209 1.399 . S
C1210 C1211 1.376 . S
C1211 H1198 0.930 . S
C1211 C1210 1.376 . S
C1211 C1212 1.388 . S
C1212 H1199 0.930 . S
C1212 C1211 1.388 . S
C1212 C1213 1.390 . S
C1213 C1212 1.390 . S
C1213 C1214 1.394 . S
C1213 C1219 1.465 1_655 S
C1214 C1209 1.399 . S
C1214 C1213 1.394 . S
C1214 C1215 1.516 . S
C1215 C1214 1.516 . S
C1215 C1216 1.502 . S
C1215 C1217 1.561 . S
C1215 C1218 1.526 1_655 S
C1216 H1200 0.959 . S
C1216 H1201 0.959 . S
C1216 H1202 0.961 . S
C1216 C1215 1.502 . S
C1217 H1203 0.960 . S
C1217 H1204 0.961 1_655 S
C1217 H1205 0.959 1_655 S
C1217 C1215 1.561 . S
C1218 C1215 1.526 1_455 S
C1218 C1219 1.396 . S
C1218 C1223 1.390 . S
C1219 C1213 1.465 1_455 S
C1219 C1218 1.396 . S
C1219 C1220 1.399 . S
C1220 H1206 0.929 . S
C1220 C1219 1.399 . S
C1220 C1221 1.385 . S
C1221 H1207 0.931 . S
C1221 C1220 1.385 . S
C1221 C1222 1.389 . S
C1222 C1221 1.389 . S
C1222 C1223 1.387 . S
C1223 H1208 0.930 . S
C1223 C1218 1.390 . S
C1223 C1222 1.387 . S
H1224 C1236 0.930 . S
H1225 C1238 0.930 . S
H1226 C1239 0.930 . S
H1227 C1243 0.959 . S
H1228 C1243 0.959 . S
H1229 C1243 0.961 . S
H1230 C1244 0.960 . S
H1231 C1244 0.961 . S
H1232 C1244 0.959 . S
H1233 C1247 0.929 . S
H1234 C1248 0.931 . S
H1235 C1250 0.930 . S
C1236 H1224 0.930 . S
C1236 C1237 1.399 . S
C1236 C1241 1.399 . S
C1237 C1236 1.399 . S
C1237 C1238 1.376 . S
C1238 H1225 0.930 . S
C1238 C1237 1.376 . S
C1238 C1239 1.388 . S
C1239 H1226 0.930 . S
C1239 C1238 1.388 . S
C1239 C1240 1.390 . S
C1240 C1239 1.390 . S
C1240 C1241 1.394 . S
C1240 C1246 1.465 . S
C1241 C1236 1.399 . S
C1241 C1240 1.394 . S
C1241 C1242 1.516 . S
C1242 C1241 1.516 . S
C1242 C1243 1.502 . S
C1242 C1244 1.561 . S
C1242 C1245 1.526 . S
C1243 H1227 0.959 . S
C1243 H1228 0.959 . S
C1243 H1229 0.961 . S
C1243 C1242 1.502 . S
C1244 H1230 0.960 . S
C1244 H1231 0.961 . S
C1244 H1232 0.959 . S
C1244 C1242 1.561 . S
C1245 C1242 1.526 . S
C1245 C1246 1.396 . S
C1245 C1250 1.390 . S
C1246 C1240 1.465 . S
C1246 C1245 1.396 . S
C1246 C1247 1.399 . S
C1247 H1233 0.929 . S
C1247 C1246 1.399 . S
C1247 C1248 1.385 . S
C1248 H1234 0.931 . S
C1248 C1247 1.385 . S
C1248 C1249 1.389 . S
C1249 C1248 1.389 . S
C1249 C1250 1.387 . S
C1250 H1235 0.930 . S
C1250 C1245 1.390 . S
C1250 C1249 1.387 . S
H1251 C1263 0.930 . S
H1252 C1265 0.930 . S
H1253 C1266 0.930 . S
H1254 C1270 0.959 . S
H1255 C1270 0.959 . S
H1256 C1270 0.961 . S
H1257 C1271 0.960 . S
H1258 C1271 0.959 1_556 S
H1259 C1271 0.959 1_556 S
H1260 C1274 0.929 . S
H1261 C1275 0.931 . S
H1262 C1277 0.930 . S
C1263 H1251 0.930 . S
C1263 C1264 1.399 . S
C1263 C1268 1.399 1_554 S
C1264 C1263 1.399 . S
C1264 C1265 1.376 1_554 S
C1265 H1252 0.930 . S
C1265 C1264 1.376 1_556 S
C1265 C1266 1.388 . S
C1266 H1253 0.930 . S
C1266 C1265 1.388 . S
C1266 C1267 1.390 . S
C1267 C1266 1.390 . S
C1267 C1268 1.394 . S
C1267 C1273 1.465 . S
C1268 C1263 1.399 1_556 S
C1268 C1267 1.394 . S
C1268 C1269 1.516 . S
C1269 C1268 1.516 . S
C1269 C1270 1.502 1_556 S
C1269 C1271 1.561 1_556 S
C1269 C1272 1.526 . S
C1270 H1254 0.959 . S
C1270 H1255 0.959 . S
C1270 H1256 0.961 . S
C1270 C1269 1.502 1_554 S
C1271 H1257 0.960 . S
C1271 H1258 0.959 1_554 S
C1271 H1259 0.959 1_554 S
C1271 C1269 1.561 1_554 S
C1272 C1269 1.526 . S
C1272 C1273 1.396 . S
C1272 C1277 1.390 . S
C1273 C1267 1.465 . S
C1273 C1272 1.396 . S
C1273 C1274 1.399 . S
C1274 H1260 0.929 . S
C1274 C1273 1.399 . S
C1274 C1275 1.385 . S
C1275 H1261 0.931 . S
C1275 C1274 1.385 . S
C1275 C1276 1.389 . S
C1276 C1275 1.389 . S
C1276 C1277 1.387 . S
C1277 H1262 0.930 . S
C1277 C1272 1.390 . S
C1277 C1276 1.387 . S
H1278 C1290 0.930 . S
H1279 C1292 0.930 . S
H1280 C1293 0.930 . S
H1281 C1297 0.959 . S
H1282 C1297 0.959 . S
H1283 C1297 0.961 . S
H1284 C1298 0.960 . S
H1285 C1298 0.961 . S
H1286 C1298 0.959 . S
H1287 C1301 0.929 . S
H1288 C1302 0.931 . S
H1289 C1304 0.930 . S
C1290 H1278 0.930 . S
C1290 C1291 1.399 . S
C1290 C1295 1.399 . S
C1291 C1290 1.399 . S
C1291 C1292 1.376 . S
C1292 H1279 0.930 . S
C1292 C1291 1.376 . S
C1292 C1293 1.388 . S
C1293 H1280 0.930 . S
C1293 C1292 1.388 . S
C1293 C1294 1.390 . S
C1294 C1293 1.390 . S
C1294 C1295 1.394 . S
C1294 C1300 1.465 . S
C1295 C1290 1.399 . S
C1295 C1294 1.394 . S
C1295 C1296 1.516 . S
C1296 C1295 1.516 . S
C1296 C1297 1.502 . S
C1296 C1298 1.561 . S
C1296 C1299 1.526 . S
C1297 H1281 0.959 . S
C1297 H1282 0.959 . S
C1297 H1283 0.961 . S
C1297 C1296 1.502 . S
C1298 H1284 0.960 . S
C1298 H1285 0.961 . S
C1298 H1286 0.959 . S
C1298 C1296 1.561 . S
C1299 C1296 1.526 . S
C1299 C1300 1.396 . S
C1299 C1304 1.390 . S
C1300 C1294 1.465 . S
C1300 C1299 1.396 . S
C1300 C1301 1.399 . S
C1301 H1287 0.929 . S
C1301 C1300 1.399 . S
C1301 C1302 1.385 . S
C1302 H1288 0.931 . S
C1302 C1301 1.385 . S
C1302 C1303 1.389 . S
C1303 C1302 1.389 . S
C1303 C1304 1.387 . S
C1304 H1289 0.930 . S
C1304 C1299 1.390 . S
C1304 C1303 1.387 . S
H1305 C1317 0.930 . S
H1306 C1319 0.930 . S
H1307 C1320 0.930 . S
H1308 C1324 0.959 . S
H1309 C1324 0.959 . S
H1310 C1324 0.961 . S
H1311 C1325 0.960 1_554 S
H1312 C1325 0.961 . S
H1313 C1325 0.959 . S
H1314 C1328 0.929 . S
H1315 C1329 0.931 . S
H1316 C1331 0.930 . S
C1317 H1305 0.930 . S
C1317 C1318 1.399 . S
C1317 C1322 1.399 . S
C1318 C1317 1.399 . S
C1318 C1319 1.376 . S
C1319 H1306 0.930 . S
C1319 C1318 1.376 . S
C1319 C1320 1.388 . S
C1320 H1307 0.930 . S
C1320 C1319 1.388 . S
C1320 C1321 1.390 . S
C1321 C1320 1.390 . S
C1321 C1322 1.394 . S
C1321 C1327 1.465 1_554 S
C1322 C1317 1.399 . S
C1322 C1321 1.394 . S
C1322 C1323 1.516 . S
C1323 C1322 1.516 . S
C1323 C1324 1.502 . S
C1323 C1325 1.561 1_554 S
C1323 C1326 1.526 1_554 S
C1324 H1308 0.959 . S
C1324 H1309 0.959 . S
C1324 H1310 0.961 . S
C1324 C1323 1.502 . S
C1325 H1311 0.960 1_556 S
C1325 H1312 0.961 . S
C1325 H1313 0.959 . S
C1325 C1323 1.561 1_556 S
C1326 C1323 1.526 1_556 S
C1326 C1327 1.396 . S
C1326 C1331 1.390 . S
C1327 C1321 1.465 1_556 S
C1327 C1326 1.396 . S
C1327 C1328 1.399 . S
C1328 H1314 0.929 . S
C1328 C1327 1.399 . S
C1328 C1329 1.385 . S
C1329 H1315 0.931 . S
C1329 C1328 1.385 . S
C1329 C1330 1.389 . S
C1330 C1329 1.389 . S
C1330 C1331 1.387 . S
C1331 H1316 0.930 . S
C1331 C1326 1.390 . S
C1331 C1330 1.387 . S
H1332 C1344 0.930 . S
H1333 C1346 0.930 . S
H1334 C1347 0.930 . S
H1335 C1351 0.959 . S
H1336 C1351 0.959 . S
H1337 C1351 0.961 . S
H1338 C1352 0.960 . S
H1339 C1352 0.961 . S
H1340 C1352 0.959 . S
H1341 C1355 0.929 . S
H1342 C1356 0.931 . S
H1343 C1358 0.930 . S
C1344 H1332 0.930 . S
C1344 C1345 1.399 . S
C1344 C1349 1.399 . S
C1345 C1344 1.399 . S
C1345 C1346 1.376 . S
C1346 H1333 0.930 . S
C1346 C1345 1.376 . S
C1346 C1347 1.388 . S
C1347 H1334 0.930 . S
C1347 C1346 1.388 . S
C1347 C1348 1.390 . S
C1348 C1347 1.390 . S
C1348 C1349 1.394 . S
C1348 C1354 1.465 . S
C1349 C1344 1.399 . S
C1349 C1348 1.394 . S
C1349 C1350 1.516 . S
C1350 C1349 1.516 . S
C1350 C1351 1.502 . S
C1350 C1352 1.561 . S
C1350 C1353 1.526 . S
C1351 H1335 0.959 . S
C1351 H1336 0.959 . S
C1351 H1337 0.961 . S
C1351 C1350 1.502 . S
C1352 H1338 0.960 . S
C1352 H1339 0.961 . S
C1352 H1340 0.959 . S
C1352 C1350 1.561 . S
C1353 C1350 1.526 . S
C1353 C1354 1.396 . S
C1353 C1358 1.390 . S
C1354 C1348 1.465 . S
C1354 C1353 1.396 . S
C1354 C1355 1.399 . S
C1355 H1341 0.929 . S
C1355 C1354 1.399 . S
C1355 C1356 1.385 . S
C1356 H1342 0.931 . S
C1356 C1355 1.385 . S
C1356 C1357 1.389 . S
C1357 C1356 1.389 . S
C1357 C1358 1.387 . S
C1358 H1343 0.930 . S
C1358 C1353 1.390 . S
C1358 C1357 1.387 . S
H1359 C1371 0.930 . S
H1360 C1373 0.930 . S
H1361 C1374 0.930 . S
H1362 C1378 0.959 1_554 S
H1363 C1378 0.959 . S
H1364 C1378 0.961 . S
H1365 C1379 0.960 . S
H1366 C1379 0.961 . S
H1367 C1379 0.959 . S
H1368 C1382 0.929 . S
H1369 C1383 0.931 . S
H1370 C1385 0.930 . S
C1371 H1359 0.930 . S
C1371 C1372 1.399 . S
C1371 C1376 1.399 . S
C1372 C1371 1.399 . S
C1372 C1373 1.376 . S
C1373 H1360 0.930 . S
C1373 C1372 1.376 . S
C1373 C1374 1.388 1_556 S
C1374 H1361 0.930 . S
C1374 C1373 1.388 1_554 S
C1374 C1375 1.390 . S
C1375 C1374 1.390 . S
C1375 C1376 1.394 1_554 S
C1375 C1381 1.465 . S
C1376 C1371 1.399 . S
C1376 C1375 1.394 1_556 S
C1376 C1377 1.516 1_556 S
C1377 C1376 1.516 1_554 S
C1377 C1378 1.502 1_554 S
C1377 C1379 1.561 1_554 S
C1377 C1380 1.526 . S
C1378 H1362 0.959 1_556 S
C1378 H1363 0.959 . S
C1378 H1364 0.961 . S
C1378 C1377 1.502 1_556 S
C1379 H1365 0.960 . S
C1379 H1366 0.961 . S
C1379 H1367 0.959 . S
C1379 C1377 1.561 1_556 S
C1380 C1377 1.526 . S
C1380 C1381 1.396 . S
C1380 C1385 1.390 . S
C1381 C1375 1.465 . S
C1381 C1380 1.396 . S
C1381 C1382 1.399 . S
C1382 H1368 0.929 . S
C1382 C1381 1.399 . S
C1382 C1383 1.385 . S
C1383 H1369 0.931 . S
C1383 C1382 1.385 . S
C1383 C1384 1.389 . S
C1384 C1383 1.389 . S
C1384 C1385 1.387 . S
C1385 H1370 0.930 . S
C1385 C1380 1.390 . S
C1385 C1384 1.387 . S
H1386 C1398 0.930 . S
H1387 C1400 0.930 . S
H1388 C1401 0.930 . S
H1389 C1405 0.959 . S
H1390 C1405 0.959 . S
H1391 C1405 0.961 . S
H1392 C1406 0.960 . S
H1393 C1406 0.961 . S
H1394 C1406 0.959 . S
H1395 C1409 0.929 . S
H1396 C1410 0.931 . S
H1397 C1412 0.930 . S
C1398 H1386 0.930 . S
C1398 C1399 1.399 . S
C1398 C1403 1.399 . S
C1399 C1398 1.399 . S
C1399 C1400 1.376 . S
C1400 H1387 0.930 . S
C1400 C1399 1.376 . S
C1400 C1401 1.388 . S
C1401 H1388 0.930 . S
C1401 C1400 1.388 . S
C1401 C1402 1.390 . S
C1402 C1401 1.390 . S
C1402 C1403 1.394 . S
C1402 C1408 1.465 . S
C1403 C1398 1.399 . S
C1403 C1402 1.394 . S
C1403 C1404 1.516 . S
C1404 C1403 1.516 . S
C1404 C1405 1.502 . S
C1404 C1406 1.561 . S
C1404 C1407 1.526 . S
C1405 H1389 0.959 . S
C1405 H1390 0.959 . S
C1405 H1391 0.961 . S
C1405 C1404 1.502 . S
C1406 H1392 0.960 . S
C1406 H1393 0.961 . S
C1406 H1394 0.959 . S
C1406 C1404 1.561 . S
C1407 C1404 1.526 . S
C1407 C1408 1.396 . S
C1407 C1412 1.390 . S
C1408 C1402 1.465 . S
C1408 C1407 1.396 . S
C1408 C1409 1.399 . S
C1409 H1395 0.929 . S
C1409 C1408 1.399 . S
C1409 C1410 1.385 . S
C1410 H1396 0.931 . S
C1410 C1409 1.385 . S
C1410 C1411 1.389 . S
C1411 C1410 1.389 . S
C1411 C1412 1.387 . S
C1412 H1397 0.930 . S
C1412 C1407 1.390 . S
C1412 C1411 1.387 . S
H1413 C1425 0.930 . S
H1414 C1427 0.930 . S
H1415 C1428 0.930 . S
H1416 C1432 0.965 . S
H1417 C1432 0.965 . S
H1418 C1432 0.935 1_556 S
H1419 C1433 0.960 1_556 S
H1420 C1433 0.961 . S
H1421 C1433 0.959 . S
H1422 C1436 0.929 . S
H1423 C1437 0.931 . S
H1424 C1439 0.930 . S
C1425 H1413 0.930 . S
C1425 C1426 1.399 . S
C1425 C1430 1.399 1_556 S
C1426 C1425 1.399 . S
C1426 C1427 1.376 . S
C1427 H1414 0.930 . S
C1427 C1426 1.376 . S
C1427 C1428 1.388 1_556 S
C1428 H1415 0.930 . S
C1428 C1427 1.388 1_554 S
C1428 C1429 1.390 . S
C1429 C1428 1.390 . S
C1429 C1430 1.394 . S
C1429 C1435 1.465 . S
C1430 C1425 1.399 1_554 S
C1430 C1429 1.394 . S
C1430 C1431 1.516 . S
C1431 C1430 1.516 . S
C1431 C1432 1.518 . S
C1431 C1433 1.561 . S
C1431 C1434 1.526 . S
C1432 H1416 0.965 . S
C1432 H1417 0.965 . S
C1432 H1418 0.935 1_554 S
C1432 C1431 1.518 . S
C1433 H1419 0.960 1_554 S
C1433 H1420 0.961 . S
C1433 H1421 0.959 . S
C1433 C1431 1.561 . S
C1434 C1431 1.526 . S
C1434 C1435 1.396 . S
C1434 C1439 1.390 . S
C1435 C1429 1.465 . S
C1435 C1434 1.396 . S
C1435 C1436 1.399 . S
C1436 H1422 0.929 . S
C1436 C1435 1.399 . S
C1436 C1437 1.385 . S
C1437 H1423 0.931 . S
C1437 C1436 1.385 . S
C1437 C1438 1.389 . S
C1438 C1437 1.389 . S
C1438 C1439 1.387 . S
C1439 H1424 0.930 . S
C1439 C1434 1.390 . S
C1439 C1438 1.387 . S
H1440 C1452 0.930 . S
H1441 C1454 0.930 . S
H1442 C1455 0.930 . S
H1443 C1459 0.959 . S
H1444 C1459 0.959 . S
H1445 C1459 0.961 . S
H1446 C1460 0.960 . S
H1447 C1460 0.961 . S
H1448 C1460 0.959 . S
H1449 C1463 0.929 . S
H1450 C1464 0.931 . S
H1451 C1466 0.930 . S
C1452 H1440 0.930 . S
C1452 C1453 1.399 . S
C1452 C1457 1.399 . S
C1453 C1452 1.399 . S
C1453 C1454 1.376 . S
C1454 H1441 0.930 . S
C1454 C1453 1.376 . S
C1454 C1455 1.388 . S
C1455 H1442 0.930 . S
C1455 C1454 1.388 . S
C1455 C1456 1.390 . S
C1456 C1455 1.390 . S
C1456 C1457 1.394 . S
C1456 C1462 1.465 . S
C1457 C1452 1.399 . S
C1457 C1456 1.394 . S
C1457 C1458 1.516 . S
C1458 C1457 1.516 . S
C1458 C1459 1.502 . S
C1458 C1460 1.561 . S
C1458 C1461 1.526 . S
C1459 H1443 0.959 . S
C1459 H1444 0.959 . S
C1459 H1445 0.961 . S
C1459 C1458 1.502 . S
C1460 H1446 0.960 . S
C1460 H1447 0.961 . S
C1460 H1448 0.959 . S
C1460 C1458 1.561 . S
C1461 C1458 1.526 . S
C1461 C1462 1.396 . S
C1461 C1466 1.390 . S
C1462 C1456 1.465 . S
C1462 C1461 1.396 . S
C1462 C1463 1.399 . S
C1463 H1449 0.929 . S
C1463 C1462 1.399 . S
C1463 C1464 1.385 . S
C1464 H1450 0.931 . S
C1464 C1463 1.385 . S
C1464 C1465 1.389 . S
C1465 C1464 1.389 . S
C1465 C1466 1.387 . S
C1466 H1451 0.930 . S
C1466 C1461 1.390 . S
C1466 C1465 1.387 . S
H1467 C1479 0.930 . S
H1468 C1481 0.930 . S
H1469 C1482 0.930 . S
H1470 C1486 0.959 . S
H1471 C1486 0.959 . S
H1472 C1486 0.961 . S
H1473 C1487 0.960 . S
H1474 C1487 0.961 . S
H1475 C1487 0.959 . S
H1476 C1490 0.929 . S
H1477 C1491 0.931 . S
H1478 C1493 0.930 . S
C1479 H1467 0.930 . S
C1479 C1480 1.399 . S
C1479 C1484 1.399 . S
C1480 C1479 1.399 . S
C1480 C1481 1.376 . S
C1481 H1468 0.930 . S
C1481 C1480 1.376 . S
C1481 C1482 1.388 . S
C1482 H1469 0.930 . S
C1482 C1481 1.388 . S
C1482 C1483 1.390 . S
C1483 C1482 1.390 . S
C1483 C1484 1.394 . S
C1483 C1489 1.465 . S
C1484 C1479 1.399 . S
C1484 C1483 1.394 . S
C1484 C1485 1.516 . S
C1485 C1484 1.516 . S
C1485 C1486 1.502 . S
C1485 C1487 1.561 . S
C1485 C1488 1.526 . S
C1486 H1470 0.959 . S
C1486 H1471 0.959 . S
C1486 H1472 0.961 . S
C1486 C1485 1.502 . S
C1487 H1473 0.960 . S
C1487 H1474 0.961 . S
C1487 H1475 0.959 . S
C1487 C1485 1.561 . S
C1488 C1485 1.526 . S
C1488 C1489 1.396 . S
C1488 C1493 1.390 . S
C1489 C1483 1.465 . S
C1489 C1488 1.396 . S
C1489 C1490 1.399 . S
C1490 H1476 0.929 . S
C1490 C1489 1.399 . S
C1490 C1491 1.385 . S
C1491 H1477 0.931 . S
C1491 C1490 1.385 . S
C1491 C1492 1.389 . S
C1492 C1491 1.389 . S
C1492 C1493 1.387 . S
C1493 H1478 0.930 . S
C1493 C1488 1.390 . S
C1493 C1492 1.387 . S
H1494 C1506 0.930 . S
H1495 C1508 0.930 . S
H1496 C1509 0.930 . S
H1497 C1513 0.959 . S
H1498 C1513 0.959 . S
H1499 C1513 0.961 . S
H1500 C1514 0.960 . S
H1501 C1514 0.961 . S
H1502 C1514 0.959 . S
H1503 C1517 0.929 . S
H1504 C1518 0.931 . S
H1505 C1520 0.930 . S
C1506 H1494 0.930 . S
C1506 C1507 1.399 . S
C1506 C1511 1.399 . S
C1507 C1506 1.399 . S
C1507 C1508 1.376 . S
C1508 H1495 0.930 . S
C1508 C1507 1.376 . S
C1508 C1509 1.388 . S
C1509 H1496 0.930 . S
C1509 C1508 1.388 . S
C1509 C1510 1.390 . S
C1510 C1509 1.390 . S
C1510 C1511 1.394 . S
C1510 C1516 1.465 . S
C1511 C1506 1.399 . S
C1511 C1510 1.394 . S
C1511 C1512 1.516 . S
C1512 C1511 1.516 . S
C1512 C1513 1.502 . S
C1512 C1514 1.561 . S
C1512 C1515 1.526 . S
C1513 H1497 0.959 . S
C1513 H1498 0.959 . S
C1513 H1499 0.961 . S
C1513 C1512 1.502 . S
C1514 H1500 0.960 . S
C1514 H1501 0.961 . S
C1514 H1502 0.959 . S
C1514 C1512 1.561 . S
C1515 C1512 1.526 . S
C1515 C1516 1.396 . S
C1515 C1520 1.390 . S
C1516 C1510 1.465 . S
C1516 C1515 1.396 . S
C1516 C1517 1.399 . S
C1517 H1503 0.929 . S
C1517 C1516 1.399 . S
C1517 C1518 1.385 . S
C1518 H1504 0.931 . S
C1518 C1517 1.385 . S
C1518 C1519 1.389 . S
C1519 C1518 1.389 . S
C1519 C1520 1.387 . S
C1520 H1505 0.930 . S
C1520 C1515 1.390 . S
C1520 C1519 1.387 . S
H1521 C1533 0.930 . S
H1522 C1535 0.930 . S
H1523 C1536 0.930 . S
H1524 C1540 0.959 . S
H1525 C1540 0.959 . S
H1526 C1540 0.961 . S
H1527 C1541 0.960 . S
H1528 C1541 0.961 . S
H1529 C1541 0.959 . S
H1530 C1544 0.929 . S
H1531 C1545 0.931 . S
H1532 C1547 0.930 . S
C1533 H1521 0.930 . S
C1533 C1534 1.399 . S
C1533 C1538 1.399 . S
C1534 C1533 1.399 . S
C1534 C1535 1.376 . S
C1535 H1522 0.930 . S
C1535 C1534 1.376 . S
C1535 C1536 1.388 . S
C1536 H1523 0.930 . S
C1536 C1535 1.388 . S
C1536 C1537 1.390 . S
C1537 C1536 1.390 . S
C1537 C1538 1.394 . S
C1537 C1543 1.465 . S
C1538 C1533 1.399 . S
C1538 C1537 1.394 . S
C1538 C1539 1.516 . S
C1539 C1538 1.516 . S
C1539 C1540 1.502 . S
C1539 C1541 1.561 . S
C1539 C1542 1.526 . S
C1540 H1524 0.959 . S
C1540 H1525 0.959 . S
C1540 H1526 0.961 . S
C1540 C1539 1.502 . S
C1541 H1527 0.960 . S
C1541 H1528 0.961 . S
C1541 H1529 0.959 . S
C1541 C1539 1.561 . S
C1542 C1539 1.526 . S
C1542 C1543 1.396 . S
C1542 C1547 1.390 . S
C1543 C1537 1.465 . S
C1543 C1542 1.396 . S
C1543 C1544 1.399 . S
C1544 H1530 0.929 . S
C1544 C1543 1.399 . S
C1544 C1545 1.385 . S
C1545 H1531 0.931 . S
C1545 C1544 1.385 . S
C1545 C1546 1.389 . S
C1546 C1545 1.389 . S
C1546 C1547 1.387 . S
C1547 H1532 0.930 . S
C1547 C1542 1.390 . S
C1547 C1546 1.387 . S
H1548 C1560 0.930 . S
H1549 C1562 0.930 . S
H1550 C1563 0.930 . S
H1551 C1567 0.959 . S
H1552 C1567 0.959 . S
H1553 C1567 0.961 . S
H1554 C1568 0.960 . S
H1555 C1568 0.961 . S
H1556 C1568 0.959 . S
H1557 C1571 0.897 1_554 S
H1558 C1572 0.931 1_554 S
H1559 C1574 0.930 . S
C1560 H1548 0.930 . S
C1560 C1561 1.399 . S
C1560 C1565 1.399 . S
C1561 C1560 1.399 . S
C1561 C1562 1.376 . S
C1562 H1549 0.930 . S
C1562 C1561 1.376 . S
C1562 C1563 1.388 . S
C1563 H1550 0.930 . S
C1563 C1562 1.388 . S
C1563 C1564 1.390 . S
C1564 C1563 1.390 . S
C1564 C1565 1.394 . S
C1564 C1570 1.465 . S
C1565 C1560 1.399 . S
C1565 C1564 1.394 . S
C1565 C1566 1.516 . S
C1566 C1565 1.516 . S
C1566 C1567 1.502 . S
C1566 C1568 1.561 . S
C1566 C1569 1.526 . S
C1567 H1551 0.959 . S
C1567 H1552 0.959 . S
C1567 H1553 0.961 . S
C1567 C1566 1.502 . S
C1568 H1554 0.960 . S
C1568 H1555 0.961 . S
C1568 H1556 0.959 . S
C1568 C1566 1.561 . S
C1569 C1566 1.526 . S
C1569 C1570 1.396 . S
C1569 C1574 1.390 . S
C1570 C1564 1.465 . S
C1570 C1569 1.396 . S
C1570 C1571 1.399 . S
C1571 H1557 0.897 1_556 S
C1571 C1570 1.399 . S
C1571 C1572 1.385 . S
C1572 H1558 0.931 1_556 S
C1572 C1571 1.385 . S
C1572 C1573 1.389 . S
C1573 C1572 1.389 . S
C1573 C1574 1.387 . S
C1574 H1559 0.930 . S
C1574 C1569 1.390 . S
C1574 C1573 1.387 . S
H1575 C1587 0.930 . S
H1576 C1589 0.930 . S
H1577 C1590 0.930 . S
H1578 C1594 0.959 . S
H1579 C1594 0.959 . S
H1580 C1594 0.961 . S
H1581 C1595 0.960 . S
H1582 C1595 0.961 . S
H1583 C1595 0.959 . S
H1584 C1598 0.929 . S
H1585 C1599 0.931 . S
H1586 C1601 0.930 . S
C1587 H1575 0.930 . S
C1587 C1588 1.399 . S
C1587 C1592 1.399 . S
C1588 C1587 1.399 . S
C1588 C1589 1.376 . S
C1589 H1576 0.930 . S
C1589 C1588 1.376 . S
C1589 C1590 1.388 . S
C1590 H1577 0.930 . S
C1590 C1589 1.388 . S
C1590 C1591 1.390 . S
C1591 C1590 1.390 . S
C1591 C1592 1.394 . S
C1591 C1597 1.465 . S
C1592 C1587 1.399 . S
C1592 C1591 1.394 . S
C1592 C1593 1.516 . S
C1593 C1592 1.516 . S
C1593 C1594 1.502 . S
C1593 C1595 1.561 . S
C1593 C1596 1.526 . S
C1594 H1578 0.959 . S
C1594 H1579 0.959 . S
C1594 H1580 0.961 . S
C1594 C1593 1.502 . S
C1595 H1581 0.960 . S
C1595 H1582 0.961 . S
C1595 H1583 0.959 . S
C1595 C1593 1.561 . S
C1596 C1593 1.526 . S
C1596 C1597 1.396 . S
C1596 C1601 1.390 . S
C1597 C1591 1.465 . S
C1597 C1596 1.396 . S
C1597 C1598 1.399 . S
C1598 H1584 0.929 . S
C1598 C1597 1.399 . S
C1598 C1599 1.385 . S
C1599 H1585 0.931 . S
C1599 C1598 1.385 . S
C1599 C1600 1.389 . S
C1600 C1599 1.389 . S
C1600 C1601 1.387 . S
C1601 H1586 0.930 . S
C1601 C1596 1.390 . S
C1601 C1600 1.387 . S
H1602 C1614 0.930 . S
H1603 C1616 0.930 . S
H1604 C1617 0.930 . S
H1605 C1621 0.959 . S
H1606 C1621 0.959 . S
H1607 C1621 0.961 . S
H1608 C1622 0.960 . S
H1609 C1622 0.961 . S
H1610 C1622 0.959 . S
H1611 C1625 0.929 . S
H1612 C1626 0.931 . S
H1613 C1628 0.930 . S
C1614 H1602 0.930 . S
C1614 C1615 1.399 . S
C1614 C1619 1.399 . S
C1615 C1614 1.399 . S
C1615 C1616 1.376 . S
C1616 H1603 0.930 . S
C1616 C1615 1.376 . S
C1616 C1617 1.388 . S
C1617 H1604 0.930 . S
C1617 C1616 1.388 . S
C1617 C1618 1.390 . S
C1618 C1617 1.390 . S
C1618 C1619 1.394 . S
C1618 C1624 1.465 . S
C1619 C1614 1.399 . S
C1619 C1618 1.394 . S
C1619 C1620 1.516 . S
C1620 C1619 1.516 . S
C1620 C1621 1.502 . S
C1620 C1622 1.561 . S
C1620 C1623 1.526 . S
C1621 H1605 0.959 . S
C1621 H1606 0.959 . S
C1621 H1607 0.961 . S
C1621 C1620 1.502 . S
C1622 H1608 0.960 . S
C1622 H1609 0.961 . S
C1622 H1610 0.959 . S
C1622 C1620 1.561 . S
C1623 C1620 1.526 . S
C1623 C1624 1.396 . S
C1623 C1628 1.390 . S
C1624 C1618 1.465 . S
C1624 C1623 1.396 . S
C1624 C1625 1.399 . S
C1625 H1611 0.929 . S
C1625 C1624 1.399 . S
C1625 C1626 1.385 . S
C1626 H1612 0.931 . S
C1626 C1625 1.385 . S
C1626 C1627 1.389 . S
C1627 C1626 1.389 . S
C1627 C1628 1.387 . S
C1628 H1613 0.930 . S
C1628 C1623 1.390 . S
C1628 C1627 1.387 . S
H1629 C1641 0.930 . S
H1630 C1643 0.930 . S
H1631 C1644 0.930 . S
H1632 C1648 0.959 . S
H1633 C1648 0.959 . S
H1634 C1648 0.961 . S
H1635 C1649 0.960 . S
H1636 C1649 0.961 . S
H1637 C1649 0.959 . S
H1638 C1652 0.929 . S
H1639 C1653 0.931 1_565 S
H1640 C1655 0.930 . S
C1641 H1629 0.930 . S
C1641 C1642 1.399 . S
C1641 C1646 1.399 . S
C1642 C1641 1.399 . S
C1642 C1643 1.376 . S
C1643 H1630 0.930 . S
C1643 C1642 1.376 . S
C1643 C1644 1.388 . S
C1644 H1631 0.930 . S
C1644 C1643 1.388 . S
C1644 C1645 1.390 . S
C1645 C1644 1.390 . S
C1645 C1646 1.394 . S
C1645 C1651 1.465 . S
C1646 C1641 1.399 . S
C1646 C1645 1.394 . S
C1646 C1647 1.516 . S
C1647 C1646 1.516 . S
C1647 C1648 1.502 . S
C1647 C1649 1.561 . S
C1647 C1650 1.526 . S
C1648 H1632 0.959 . S
C1648 H1633 0.959 . S
C1648 H1634 0.961 . S
C1648 C1647 1.502 . S
C1649 H1635 0.960 . S
C1649 H1636 0.961 . S
C1649 H1637 0.959 . S
C1649 C1647 1.561 . S
C1650 C1647 1.526 . S
C1650 C1651 1.396 . S
C1650 C1655 1.390 . S
C1651 C1645 1.465 . S
C1651 C1650 1.396 . S
C1651 C1652 1.399 . S
C1652 H1638 0.929 . S
C1652 C1651 1.399 . S
C1652 C1653 1.385 . S
C1653 H1639 0.931 1_545 S
C1653 C1652 1.385 . S
C1653 C1654 1.389 . S
C1654 C1653 1.389 . S
C1654 C1655 1.387 . S
C1655 H1640 0.930 . S
C1655 C1650 1.390 . S
C1655 C1654 1.387 . S
C385 C200 1.823 1_556 S
C373 C66 1.837 . S
C412 C215 1.447 . S
C400 C76 1.397 . S
C427 C93 2.053 . S
C439 C228 2.027 . S
C466 C242 1.410 . S
C454 C54 1.459 . S
C493 C254 1.674 . S
C481 C126 1.740 . S
C520 C268 1.600 . S
C508 C150 1.612 . S
C535 C136 1.351 . S
C547 C282 1.346 . S
C574 C297 1.676 . S
C562 C117 1.720 . S
C589 C141 1.388 . S
C601 C313 1.323 . S
C628 C326 1.375 . S
C616 C112 1.315 . S
C643 C124 1.652 . S
C655 C311 1.618 . S
C682 C324 1.376 . S
C670 C148 1.310 . S
C697 C88 1.631 . S
C709 C340 1.624 . S
C724 C52 1.557 . S
C736 C339 1.573 . S
C751 C64 1.443 . S
C763 C338 1.389 . S
C778 C78 1.341 . S
C790 C341 1.327 . S
C805 C45 1.943 . S
C817 C243 1.910 . S
C832 C177 1.759 . S
C844 C241 1.699 . S
C871 C201 1.357 . S
C859 C189 1.384 . S
C898 C212 1.823 . S
C886 C102 1.827 . S
C913 C57 1.619 1_545 S
C925 C257 1.634 . S
C952 C298 1.871 . S
C940 C138 1.870 . S
C979 C255 1.788 . S
C967 C114 1.826 . S
C1006 C283 1.544 . S
C994 C153 1.564 . S
C1033 C284 1.820 . S
C1021 C174 1.837 . S
C1048 C184 1.454 . S
C1060 C299 1.384 . S
C1075 C105 2.050 . S
C1087 C256 2.048 . S
C1114 C270 1.457 . S
C1102 C162 1.416 . S
C1129 C42 1.740 . S
C1141 C226 1.672 . S
C1168 C240 1.599 1_455 S
C1156 C6 1.615 . S
C1195 C198 1.359 . S
C1183 C16 1.360 . S
C1222 C213 1.604 . S
C1210 C33 1.691 . S
C1237 C21 1.383 . S
C1249 C327 1.326 . S
C1264 C28 1.376 . S
C1276 C312 1.384 . S
C1291 C40 1.656 . S
C1303 C325 1.608 . S
C1318 C4 1.293 . S
C1330 C310 1.355 . S
C1357 C354 1.629 . S
C1345 C100 1.634 . S
C1384 C353 1.597 . S
C1372 C160 1.565 . S
C1411 C352 1.384 . S
C1399 C172 1.445 . S
C1426 C186 1.319 . S
C1438 C355 1.348 . S
C1453 C129 1.943 . S
C1465 C271 1.910 . S
C1492 C269 1.700 . S
C1480 C69 1.756 . S
C1519 C285 1.294 . S
C1507 C81 1.392 . S
C1546 C296 1.823 . S
C1534 C90 1.827 . S
C1561 C165 1.619 . S
C1573 C229 1.634 . S
C1600 C214 1.875 . S
C1588 C18 1.874 . S
C1615 C30 1.835 . S
C1627 C227 1.836 . S
C1654 C199 1.601 1_545 S
C1642 C9 1.583 . S
