# Generated by pormake.
# Topology anh, (6,3)-cn, num edge types: 1
# Building blocks:
#     Node 0, Type 0, BuildingBlock: VOLQOD_clean_sbu_1, # of connection points: 6
#     Node 1, Type 0, BuildingBlock: VOLQOD_clean_sbu_1, # of connection points: 6
#     Node 2, Type 0, BuildingBlock: VOLQOD_clean_sbu_1, # of connection points: 6
#     Node 3, Type 1, BuildingBlock: BELTOD_clean_linker_0, # of connection points: 3
#     Node 4, Type 1, BuildingBlock: BELTOD_clean_linker_0, # of connection points: 3
#     Node 5, Type 1, BuildingBlock: BELTOD_clean_linker_0, # of connection points: 3
#     Node 6, Type 1, BuildingBlock: BELTOD_clean_linker_0, # of connection points: 3
#     Node 7, Type 1, BuildingBlock: BELTOD_clean_linker_0, # of connection points: 3
#     Node 8, Type 1, BuildingBlock: BELTOD_clean_linker_0, # of connection points: 3
#     Edge 9, Type (0, 1), BuildingBlock: OJICUG_clean_linker_0, # of connection points: 2
#     Edge 10, Type (0, 1), BuildingBlock: OJICUG_clean_linker_0, # of connection points: 2
#     Edge 11, Type (0, 1), BuildingBlock: OJICUG_clean_linker_0, # of connection points: 2
#     Edge 12, Type (0, 1), BuildingBlock: OJICUG_clean_linker_0, # of connection points: 2
#     Edge 13, Type (0, 1), BuildingBlock: OJICUG_clean_linker_0, # of connection points: 2
#     Edge 14, Type (0, 1), BuildingBlock: OJICUG_clean_linker_0, # of connection points: 2
#     Edge 15, Type (0, 1), BuildingBlock: OJICUG_clean_linker_0, # of connection points: 2
#     Edge 16, Type (0, 1), BuildingBlock: OJICUG_clean_linker_0, # of connection points: 2
#     Edge 17, Type (0, 1), BuildingBlock: OJICUG_clean_linker_0, # of connection points: 2
#     Edge 18, Type (0, 1), BuildingBlock: OJICUG_clean_linker_0, # of connection points: 2
#     Edge 19, Type (0, 1), BuildingBlock: OJICUG_clean_linker_0, # of connection points: 2
#     Edge 20, Type (0, 1), BuildingBlock: OJICUG_clean_linker_0, # of connection points: 2
#     Edge 21, Type (0, 1), BuildingBlock: OJICUG_clean_linker_0, # of connection points: 2
#     Edge 22, Type (0, 1), BuildingBlock: OJICUG_clean_linker_0, # of connection points: 2
#     Edge 23, Type (0, 1), BuildingBlock: OJICUG_clean_linker_0, # of connection points: 2
#     Edge 24, Type (0, 1), BuildingBlock: OJICUG_clean_linker_0, # of connection points: 2
#     Edge 25, Type (0, 1), BuildingBlock: OJICUG_clean_linker_0, # of connection points: 2
#     Edge 26, Type (0, 1), BuildingBlock: OJICUG_clean_linker_0, # of connection points: 2
# Relax obj value: 0.161
# Max RMSD: 0.227
# Mean RMSD: 0.107
data_MOF--net-anh--node1-VOLQOD_clean_sbu_1--node2-BELTOD_clean_linker_0--edge1-OJICUG_clean_linker_0
_symmetry_space_group_name_H-M    P1
_symmetry_Int_Tables_number       1
_symmetry_cell_setting            triclinic
loop_
_symmetry_equiv_pos_as_xyz
'x, y, z'
_cell_length_a     25.175561
_cell_length_b     25.148935
_cell_length_c     52.512866
_cell_angle_alpha  89.493231
_cell_angle_beta   89.61622
_cell_angle_gamma 120.23724
loop_
_atom_site_label
_atom_site_type_symbol
_atom_site_fract_x
_atom_site_fract_y
_atom_site_fract_z
_atom_type_partial_charge
O0 O 0.98219 0.56744 0.22166 0.0
Zn1 Zn 0.9828 0.59603 0.18534 0.0
O2 O -0.00825 0.54236 0.16068 0.0
Zn3 Zn 0.92278 0.50377 0.13756 0.0
Zn4 Zn -0.00241 0.47821 0.17891 0.0
Zn5 Zn 0.06488 0.58995 0.14005 0.0
O6 O 0.94891 0.51712 0.10024 0.0
O7 O 0.04608 0.59178 0.10333 0.0
O8 O 0.9039 0.59693 0.17884 0.0
O9 O 0.87122 0.54174 0.14339 0.0
O10 O 0.86763 0.41285 0.14566 0.0
O11 O 0.92267 0.39649 0.17413 0.0
O12 O 0.07053 0.47279 0.16774 0.0
O13 O 0.05623 0.68281 0.18319 0.0
O14 O 0.11947 0.55345 0.14165 0.0
O15 O 0.11238 0.67602 0.15197 0.0
C16 C -0.00662 0.52699 0.23077 0.0
C17 C -0.00055 0.55766 0.08995 0.0
C18 C 0.87456 0.37705 0.16084 0.0
C19 C 0.86672 0.57513 0.16034 0.0
C20 C 0.11562 0.5067 0.15301 0.0
C21 C 0.10417 0.70696 0.16896 0.0
O22 O 0.00274 0.49213 0.21632 0.0
O23 O 0.45557 0.01865 0.44301 0.0
Zn24 Zn 0.43043 0.01638 0.47988 0.0
O25 O 0.49012 0.0135 0.50284 0.0
Zn26 Zn 0.53091 0.08782 0.52254 0.0
Zn27 Zn 0.55091 0.00486 0.48291 0.0
Zn28 Zn 0.44898 0.94527 0.52686 0.0
O29 O 0.52976 0.07046 0.55996 0.0
O30 O 0.45928 0.97143 0.56337 0.0
O31 O 0.42035 0.09017 0.48677 0.0
O32 O 0.48701 0.13409 0.51821 0.0
O33 O 0.61869 0.14213 0.51097 0.0
O34 O 0.63375 0.08026 0.48589 0.0
O35 O 0.55765 0.9317 0.49417 0.0
O36 O 0.34858 0.93857 0.48432 0.0
O37 O 0.48775 0.89323 0.52534 0.0
O38 O 0.36034 0.89157 0.51802 0.0
C39 C 0.49535 0.00851 0.4325 0.0
C40 C 0.49674 0.02246 0.57348 0.0
C41 C 0.65361 0.13169 0.49683 0.0
C42 C 0.44572 0.13144 0.5036 0.0
C43 C 0.52947 0.89233 0.51191 0.0
C44 C 0.32731 0.89373 0.50022 0.0
O45 O 0.53218 -0.00085 0.44569 0.0
O46 O 0.42242 0.44415 0.77235 0.0
Zn47 Zn 0.39743 0.41798 0.80931 0.0
O48 O 0.46315 0.47287 0.83261 0.0
Zn49 Zn 0.4367 0.51441 0.85623 0.0
Zn50 Zn 0.53292 0.53413 0.81283 0.0
Zn51 Zn 0.48855 0.42617 0.85332 0.0
O52 O 0.44806 0.50004 0.8934 0.0
O53 O 0.46521 0.42222 0.88983 0.0
O54 O 0.31817 0.41796 0.81779 0.0
O55 O 0.34714 0.47901 0.85162 0.0
O56 O 0.47694 0.60564 0.84827 0.0
O57 O 0.54368 0.61724 0.81789 0.0
O58 O 0.6115 0.53792 0.82261 0.0
O59 O 0.38399 0.3313 0.81164 0.0
O60 O 0.58012 0.4644 0.85227 0.0
O61 O 0.45067 0.34059 0.84129 0.0
C62 C 0.47355 0.48385 0.76218 0.0
C63 C 0.45439 0.45728 0.90343 0.0
C64 C 0.51887 0.63942 0.83217 0.0
C65 C 0.30623 0.44348 0.83613 0.0
C66 C 0.62284 0.50775 0.8391 0.0
C67 C 0.40969 0.30851 0.8252 0.0
O68 O 0.51971 0.51905 0.77561 0.0
P69 P 0.52449 0.97042 0.23704 0.0
H70 H 0.46739 0.88717 0.19506 0.0
H71 H 0.36666 0.84408 0.17569 0.0
H72 H 0.32411 0.95651 0.22389 0.0
H73 H 0.42602 0.00012 0.24313 0.0
H74 H 0.63315 -0.00638 0.20751 0.0
H75 H 0.71265 0.08467 0.18494 0.0
H76 H 0.62278 0.18546 0.20703 0.0
H77 H 0.54272 0.09358 0.22935 0.0
H78 H 0.42552 0.9073 0.2745 0.0
H79 H 0.61105 0.06153 0.2728 0.0
O80 O 0.54182 0.91456 0.2359 0.0
H81 H 0.41834 0.92084 0.32015 0.0
H82 H 0.60428 0.07493 0.31861 0.0
C83 C 0.45302 0.94497 0.2211 0.0
C84 C 0.43669 0.90303 0.20129 0.0
C85 C 0.37932 0.87902 0.19003 0.0
C86 C 0.33737 0.8968 0.19837 0.0
C87 C 0.35534 0.94163 0.21728 0.0
C88 C 0.41328 0.96623 0.22834 0.0
C89 C 0.58265 0.03733 0.22035 0.0
C90 C 0.63046 0.03525 0.20748 0.0
C91 C 0.67587 0.08731 0.19457 0.0
C92 C 0.67403 0.14226 0.19424 0.0
C93 C 0.62504 0.1436 0.20667 0.0
C94 C 0.57966 0.09143 0.21963 0.0
C95 C 0.51811 0.98463 0.27011 0.0
C96 C 0.46426 0.94494 0.28384 0.0
C97 C 0.46018 0.95265 0.30993 0.0
C98 C 0.51056 -0.00074 0.32286 0.0
C99 C 0.56473 0.03868 0.30909 0.0
C100 C 0.56849 0.03133 0.2829 0.0
P101 P 0.59502 0.5401 0.57135 0.0
H102 H 0.62555 0.48707 0.52864 0.0
H103 H 0.56705 0.39008 0.50633 0.0
H104 H 0.40471 0.34959 0.55022 0.0
H105 H 0.46398 0.44695 0.5726 0.0
H106 H 0.65934 0.66916 0.58474 0.0
H107 H 0.6526 0.75751 0.56882 0.0
H108 H 0.52932 0.64447 0.51007 0.0
H109 H 0.53475 0.55606 0.52629 0.0
H110 H 0.58461 0.45372 0.61089 0.0
H111 H 0.53518 0.59408 0.60199 0.0
O112 O 0.66688 0.55331 0.57258 0.0
H113 H 0.54675 0.43619 0.65511 0.0
H114 H 0.49961 0.57818 0.64627 0.0
C115 C 0.54959 0.47264 0.5529 0.0
C116 C 0.57722 0.45761 0.53324 0.0
C117 C 0.54338 0.40261 0.52021 0.0
C118 C 0.48127 0.36201 0.52664 0.0
C119 C 0.4526 0.37973 0.54505 0.0
C120 C 0.48653 0.43497 0.55799 0.0
C121 C 0.59696 0.60603 0.55695 0.0
C122 C 0.63161 0.66369 0.56821 0.0
C123 C 0.62782 0.71394 0.55913 0.0
C124 C 0.59045 0.70734 0.5383 0.0
C125 C 0.55879 0.65053 0.52605 0.0
C126 C 0.56164 0.59996 0.53545 0.0
C127 C 0.56429 0.52627 0.60335 0.0
C128 C 0.56572 0.48076 0.61844 0.0
C129 C 0.54374 0.47047 0.64357 0.0
C130 C 0.52068 0.50614 0.654 0.0
C131 C 0.51772 0.55052 0.63864 0.0
C132 C 0.53859 0.55995 0.61339 0.0
P133 P 0.0609 0.62894 0.89377 0.0
H134 H 0.14786 0.65017 0.85255 0.0
H135 H 0.18519 0.58606 0.83419 0.0
H136 H 0.0596 0.43417 0.8829 0.0
H137 H 0.02284 0.49907 0.90137 0.0
H138 H 0.97623 0.66919 0.90954 0.0
H139 H 0.87379 0.64292 0.89488 0.0
H140 H 0.89086 0.5413 0.83267 0.0
H141 H -0.00743 0.56612 0.84767 0.0
H142 H 0.14589 0.66934 0.93623 0.0
H143 H 0.95187 0.54749 0.92515 0.0
O144 O 0.11542 0.70244 0.8895 0.0
H145 H 0.1314 0.64899 0.98202 0.0
H146 H 0.93599 0.53029 0.97091 0.0
C147 C 0.08435 0.57992 0.87892 0.0
C148 C 0.12812 0.60298 0.85916 0.0
C149 C 0.14866 0.56591 0.84839 0.0
C150 C 0.12543 0.50505 0.85717 0.0
C151 C 0.07871 0.48104 0.87593 0.0
C152 C 0.05807 0.51818 0.88662 0.0
C153 C -0.00896 0.6181 0.88015 0.0
C154 C 0.95815 0.64168 0.89263 0.0
C155 C 0.8999 0.62677 0.88429 0.0
C156 C 0.87477 0.58966 0.86289 0.0
C157 C 0.9096 0.56987 0.84927 0.0
C158 C 0.96748 0.58383 0.85793 0.0
C159 C 0.04975 0.61176 0.92741 0.0
C160 C 0.10002 0.63885 0.94372 0.0
C161 C 0.09146 0.62744 0.96995 0.0
C162 C 0.03221 0.58898 0.9804 0.0
C163 C 0.98229 0.56003 0.96372 0.0
C164 C -0.00883 0.57064 0.93747 0.0
P165 P 0.06263 0.47989 0.42194 0.0
H166 H 0.15785 0.53294 0.46009 0.0
H167 H 0.20299 0.62918 0.48325 0.0
H168 H 0.07565 0.67393 0.44774 0.0
H169 H 0.03095 0.5772 0.42434 0.0
H170 H 0.03709 0.36687 0.44891 0.0
H171 H 0.94505 0.28639 0.47074 0.0
H172 H 0.85027 0.38555 0.4538 0.0
H173 H 0.94269 0.46609 0.43227 0.0
H174 H 0.11697 0.58489 0.38637 0.0
H175 H 0.96805 0.39647 0.38694 0.0
O176 O 0.1156 0.45879 0.41972 0.0
H177 H 0.09516 0.59667 0.342 0.0
H178 H 0.94599 0.40803 0.34267 0.0
C179 C 0.09265 0.5492 0.43992 0.0
C180 C 0.13952 0.56335 0.45735 0.0
C181 C 0.16464 0.61801 0.47086 0.0
C182 C 0.14289 0.65924 0.46729 0.0
C183 C 0.0937 0.64334 0.45068 0.0
C184 C 0.06837 0.58832 0.43725 0.0
C185 C -0.0038 0.42189 0.43879 0.0
C186 C -0.00342 0.37136 0.45 0.0
C187 C 0.94401 0.32543 0.46245 0.0
C188 C 0.89048 0.32967 0.46394 0.0
C189 C 0.89105 0.38141 0.45326 0.0
C190 C 0.94359 0.42719 0.44079 0.0
C191 C 0.04306 0.49033 0.39015 0.0
C192 C 0.07874 0.54648 0.37713 0.0
C193 C 0.06621 0.55322 0.35181 0.0
C194 C 0.01863 0.50338 0.33895 0.0
C195 C 0.98299 0.44719 0.3521 0.0
C196 C -0.00469 0.44067 0.37745 0.0
P197 P 0.58951 0.0587 0.76704 0.0
H198 H 0.59683 0.1289 0.81169 0.0
H199 H 0.5324 0.16802 0.82783 0.0
H200 H 0.40034 0.07149 0.76879 0.0
H201 H 0.46571 0.0334 0.75249 0.0
H202 H 0.67748 0.0217 0.78199 0.0
H203 H 0.66563 0.92827 0.80189 0.0
H204 H 0.46857 0.85152 0.80514 0.0
H205 H 0.48123 0.94633 0.78613 0.0
H206 H 0.65085 0.13902 0.72322 0.0
H207 H 0.49961 0.955 0.73686 0.0
O208 O 0.66107 0.11628 0.77172 0.0
H209 H 0.62884 0.12882 0.67792 0.0
H210 H 0.4744 0.94564 0.69183 0.0
C211 C 0.53715 0.07997 0.78045 0.0
C212 C 0.55375 0.11569 0.80237 0.0
C213 C 0.51633 0.13733 0.81176 0.0
C214 C 0.46121 0.12305 0.79949 0.0
C215 C 0.44287 0.08393 0.77843 0.0
C216 C 0.48046 0.06231 0.76905 0.0
C217 C 0.58027 -0.00908 0.78276 0.0
C218 C 0.63182 0.98508 0.78731 0.0
C219 C 0.62492 0.93148 0.79857 0.0
C220 C 0.56612 0.88232 0.80508 0.0
C221 C 0.51457 0.88885 0.80078 0.0
C222 C 0.52165 0.94279 0.7897 0.0
C223 C 0.57738 0.04751 0.73335 0.0
C224 C 0.61308 0.09617 0.71642 0.0
C225 C 0.59972 0.09056 0.6905 0.0
C226 C 0.54926 0.03663 0.68108 0.0
C227 C 0.51414 0.98753 0.69819 0.0
C228 C 0.52842 -0.00718 0.72405 0.0
P229 P 0.4365 0.38706 0.09973 0.0
H230 H 0.47641 0.42408 0.15178 0.0
H231 H 0.57711 0.48971 0.17045 0.0
H232 H 0.66132 0.51761 0.0957 0.0
H233 H 0.5609 0.45578 0.07723 0.0
H234 H 0.30499 0.31342 0.11116 0.0
H235 H 0.23011 0.34164 0.12594 0.0
H236 H 0.37637 0.53032 0.13354 0.0
H237 H 0.4502 0.50229 0.11807 0.0
H238 H 0.47671 0.34139 0.05731 0.0
H239 H 0.3996 0.45912 0.06734 0.0
O240 O 0.41477 0.31376 0.10617 0.0
H241 H 0.48228 0.3595 0.01137 0.0
H242 H 0.40154 0.4745 0.02163 0.0
C243 C 0.51104 0.43554 0.11309 0.0
C244 C 0.51666 0.44529 0.13942 0.0
C245 C 0.57431 0.4827 0.15008 0.0
C246 C 0.62762 0.50965 0.13463 0.0
C247 C 0.62143 0.49942 0.10819 0.0
C248 C 0.56373 0.46298 0.09755 0.0
C249 C 0.38311 0.40547 0.1141 0.0
C250 C 0.3209 0.36055 0.11649 0.0
C251 C 0.2783 0.3767 0.12497 0.0
C252 C 0.29754 0.43818 0.13089 0.0
C253 C 0.36022 0.48271 0.12894 0.0
C254 C 0.40256 0.46656 0.12041 0.0
C255 C 0.43713 0.39818 0.06578 0.0
C256 C 0.46009 0.37034 0.04959 0.0
C257 C 0.46291 0.38055 0.02329 0.0
C258 C 0.44201 0.41827 0.01266 0.0
C259 C 0.41891 0.44596 0.02906 0.0
C260 C 0.41709 0.43651 0.05536 0.0
C261 C 0.15907 0.43745 0.1597 0.0
C262 C 0.16346 0.49039 0.14832 0.0
H263 H 0.19855 0.37968 0.16326 0.0
C264 C 0.21311 0.52672 0.13179 0.0
H265 H 0.1214 0.40853 0.17257 0.0
C266 C 0.25693 0.51001 0.12643 0.0
C267 C 0.25212 0.4567 0.13752 0.0
H268 H 0.2178 0.56769 0.12267 0.0
H269 H 0.29385 0.53813 0.11312 0.0
C270 C 0.20298 0.42071 0.1543 0.0
C271 C 0.73705 0.2423 0.49856 0.0
C272 C 0.71712 0.18154 0.49122 0.0
H273 H 0.80806 0.33698 0.49586 0.0
C274 C 0.75693 0.16951 0.47671 0.0
H275 H 0.70758 0.2531 0.50981 0.0
C276 C 0.81423 0.21747 0.46872 0.0
C277 C 0.83294 0.27852 0.47502 0.0
H278 H 0.74314 0.1232 0.47081 0.0
H279 H 0.84271 0.20695 0.45665 0.0
C280 C 0.79438 0.29038 0.49046 0.0
C281 C 0.50242 0.72865 0.83985 0.0
C282 C 0.53568 0.70434 0.82802 0.0
H283 H 0.48652 0.80456 0.84215 0.0
C284 C 0.58218 0.74107 0.81024 0.0
H285 H 0.46642 0.70161 0.85367 0.0
C286 C 0.59317 0.79944 0.80348 0.0
C287 C 0.55822 0.82286 0.81443 0.0
H288 H 0.60886 0.72397 0.80077 0.0
H289 H 0.62736 0.82507 0.78882 0.0
C290 C 0.51358 0.78739 0.83309 0.0
C291 C 0.80004 0.60657 0.13887 0.0
C292 C 0.81084 0.57902 0.15995 0.0
H293 H 0.7328 0.60881 0.11503 0.0
C294 C 0.76161 0.5387 0.17577 0.0
H295 H 0.83764 0.6374 0.12632 0.0
C296 C 0.7014 0.52003 0.16877 0.0
C297 C 0.68986 0.54223 0.14598 0.0
H298 H 0.76916 0.51611 0.19186 0.0
H299 H 0.66427 0.48377 0.17989 0.0
C300 C 0.73996 0.58916 0.13219 0.0
C301 C 0.24533 0.78639 0.51153 0.0
C302 C 0.26768 0.8379 0.49512 0.0
H303 H 0.18666 0.68894 0.51574 0.0
C304 C 0.23868 0.83164 0.47164 0.0
H305 H 0.26586 0.78981 0.52995 0.0
C306 C 0.19362 0.77369 0.46345 0.0
C307 C 0.17658 0.72116 0.47866 0.0
H308 H 0.25432 0.87047 0.45862 0.0
H309 H 0.17621 0.76956 0.44433 0.0
C310 C 0.20016 0.72852 0.50336 0.0
C311 C 0.41142 0.21475 0.83881 0.0
C312 C 0.40064 0.24731 0.81963 0.0
H313 H 0.4369 0.14744 0.84748 0.0
C314 C 0.3957 0.22822 0.7943 0.0
H315 H 0.41462 0.22817 0.85854 0.0
C316 C 0.40972 0.18282 0.78789 0.0
C317 C 0.42814 0.15561 0.80679 0.0
H318 H 0.38761 0.25274 0.77916 0.0
H319 H 0.4119 0.17358 0.76792 0.0
C320 C 0.42463 0.16892 0.83245 0.0
C321 C 0.53903 0.82353 0.54337 0.0
C322 C 0.54725 0.84638 0.51828 0.0
H323 H 0.54759 0.76233 0.5693 0.0
C324 C 0.5722 0.82489 0.49978 0.0
H325 H 0.52039 0.8397 0.55807 0.0
C326 C 0.587 0.77981 0.5062 0.0
C327 C 0.57858 0.75717 0.53133 0.0
H328 H 0.57891 0.84185 0.4803 0.0
H329 H 0.60491 0.7626 0.49164 0.0
C330 C 0.55507 0.77976 0.54987 0.0
C331 C 0.70263 0.51285 0.86832 0.0
C332 C 0.68717 0.52616 0.84439 0.0
H333 H 0.7748 0.52376 0.89292 0.0
C334 C 0.73397 0.55958 0.82623 0.0
H335 H 0.66761 0.48752 0.88274 0.0
C336 C 0.79526 0.57955 0.832 0.0
C337 C 0.81047 0.56757 0.85618 0.0
H338 H 0.72322 0.57032 0.80762 0.0
H339 H 0.83084 0.60537 0.81784 0.0
C340 C 0.76383 0.5339 0.87423 0.0
C341 C 0.16597 0.79038 0.19972 0.0
C342 C 0.1565 0.76837 0.1747 0.0
H343 H 0.23185 0.84916 0.22695 0.0
C344 C 0.20359 0.79923 0.15641 0.0
H345 H 0.13046 0.76757 0.2142 0.0
C346 C 0.26143 0.8461 0.16366 0.0
C347 C 0.27322 0.86271 0.18933 0.0
H348 H 0.19721 0.78391 0.13687 0.0
H349 H 0.29819 0.86605 0.14955 0.0
C350 C 0.2241 0.83721 0.20701 0.0
C351 C 0.41481 0.1916 0.53004 0.0
C352 C 0.43119 0.18062 0.50595 0.0
H353 H 0.41673 0.25827 0.55536 0.0
C354 C 0.45046 0.22597 0.48679 0.0
H355 H 0.40043 0.15716 0.54511 0.0
C356 C 0.46063 0.28448 0.49269 0.0
C357 C 0.45119 0.29771 0.51775 0.0
H358 H 0.464 0.2184 0.46816 0.0
H359 H 0.48085 0.32067 0.47832 0.0
C360 C 0.42419 0.24959 0.53586 0.0
C361 C 0.21976 0.42851 0.86347 0.0
C362 C 0.24558 0.43772 0.83895 0.0
H363 H 0.16044 0.44194 0.88836 0.0
C364 C 0.22197 0.45716 0.81915 0.0
H365 H 0.23777 0.41392 0.87903 0.0
C366 C 0.17799 0.47409 0.82452 0.0
C367 C 0.15688 0.47104 0.84969 0.0
H368 H 0.24186 0.46521 0.80016 0.0
H369 H 0.16387 0.4937 0.8094 0.0
C370 C 0.17543 0.44459 0.86877 0.0
C371 C 0.76275 0.2964 0.15967 0.0
C372 C 0.82366 0.31347 0.16553 0.0
H373 H 0.66729 0.22846 0.16417 0.0
C374 C 0.83493 0.27138 0.17876 0.0
H375 H 0.75258 0.32789 0.14956 0.0
C376 C 0.78632 0.21483 0.18713 0.0
C377 C 0.72525 0.19909 0.18257 0.0
H378 H 0.88134 0.28303 0.18351 0.0
H379 H 0.79659 0.18473 0.19827 0.0
C380 C 0.71393 0.23979 0.16824 0.0
C381 C 0.05047 0.62184 0.05121 0.0
C382 C 0.00538 0.5655 0.06196 0.0
H383 H 0.0928 0.67408 0.01736 0.0
C384 C 0.96819 0.51686 0.04578 0.0
H385 H 0.07943 0.66044 0.06319 0.0
C386 C 0.97702 0.52408 0.01934 0.0
C387 C 0.02252 0.5805 0.00853 0.0
H388 H 0.93341 0.47275 0.05357 0.0
H389 H 0.94888 0.48503 0.00746 0.0
C390 C 0.05853 0.62944 0.02487 0.0
C391 C 0.55144 0.01115 0.39257 0.0
C392 C 0.49959 0.00797 0.40439 0.0
H393 H 0.59555 0.01125 0.35758 0.0
C394 C 0.45205 0.00382 0.3891 0.0
H395 H 0.58902 0.01467 0.40378 0.0
C396 C 0.45581 0.00162 0.36258 0.0
C397 C 0.50752 0.0044 0.35085 0.0
H398 H 0.41153 0.00131 0.39761 0.0
H399 H 0.41832 -0.00216 0.35122 0.0
C400 C 0.55548 0.00971 0.3661 0.0
C401 C 0.52165 0.54694 0.72299 0.0
C402 C 0.48076 0.4895 0.73422 0.0
H403 H 0.56528 0.59706 0.68867 0.0
C404 C 0.45029 0.43766 0.71868 0.0
H405 H 0.54558 0.58767 0.73454 0.0
C406 C 0.46257 0.44291 0.69244 0.0
C407 C 0.50418 0.50033 0.68135 0.0
H408 H 0.41885 0.39282 0.72693 0.0
H409 H 0.44002 0.40217 0.68083 0.0
C410 C 0.53273 0.5524 0.69678 0.0
C411 C 0.49442 0.97223 0.61505 0.0
C412 C 0.50563 0.02508 0.60128 0.0
H413 H 0.50155 0.93469 0.65064 0.0
C414 C 0.52921 0.08119 0.61399 0.0
H415 H 0.47693 0.92846 0.60565 0.0
C416 C 0.54202 0.08459 0.63994 0.0
C417 C 0.53289 0.03221 0.65367 0.0
H418 H 0.53784 0.12257 0.60386 0.0
H419 H 0.55911 0.12845 0.64919 0.0
C420 C 0.50843 0.97585 0.6409 0.0
C421 C 0.43628 0.39032 0.94159 0.0
C422 C 0.44943 0.44752 0.93132 0.0
H423 H 0.4216 0.33562 0.97504 0.0
C424 C 0.4591 0.49496 0.94789 0.0
H425 H 0.42791 0.35258 0.92929 0.0
C426 C 0.45695 0.48569 0.97428 0.0
C427 C 0.44406 0.42843 0.98461 0.0
H428 H 0.46975 0.53966 0.9405 0.0
H429 H 0.46654 0.52384 0.98652 0.0
C430 C 0.43313 0.38074 0.96788 0.0
C431 C -0.00395 0.46803 0.26875 0.0
C432 C -0.0034 0.52027 0.25864 0.0
H433 H 0.0026 0.42199 0.30194 0.0
C434 C 0.00224 0.56623 0.27531 0.0
H435 H -0.00843 0.43164 0.25648 0.0
C436 C 0.00876 0.56064 0.30149 0.0
C437 C 0.00891 0.50866 0.31147 0.0
H438 H 0.0029 0.60704 0.2681 0.0
H439 H 0.01373 0.59696 0.31394 0.0
C440 C 0.00191 0.46222 0.29485 0.0
loop_
_geom_bond_atom_site_label_1
_geom_bond_atom_site_label_2
_geom_bond_distance
_geom_bond_site_symmetry_2
_ccdc_geom_bond_type
O0 Zn1 1.953 1_655 S
O0 C16 1.225 1_655 S
Zn1 O0 1.953 1_455 S
Zn1 O2 1.949 . S
Zn1 O8 1.919 1_455 S
Zn1 O13 1.924 . S
O2 Zn1 1.949 . S
O2 Zn3 1.923 1_455 S
O2 Zn4 1.950 . S
O2 Zn5 1.945 . S
Zn3 O2 1.923 1_655 S
Zn3 O6 1.933 . S
Zn3 O9 1.941 . S
Zn3 O10 1.965 . S
Zn4 O2 1.950 . S
Zn4 O11 1.938 1_455 S
Zn4 O12 1.906 . S
Zn4 O22 1.953 . S
Zn5 O2 1.945 . S
Zn5 O7 1.932 . S
Zn5 O14 1.977 . S
Zn5 O15 1.910 . S
O6 Zn3 1.933 . S
O6 C17 1.226 1_655 S
O7 Zn5 1.932 . S
O7 C17 1.307 . S
O8 Zn1 1.919 1_655 S
O8 C19 1.253 . S
O9 Zn3 1.941 . S
O9 C19 1.283 . S
O10 Zn3 1.965 . S
O10 C18 1.303 . S
O11 Zn4 1.938 1_655 S
O11 C18 1.247 . S
O12 Zn4 1.906 . S
O12 C20 1.304 . S
O13 Zn1 1.924 . S
O13 C21 1.311 . S
O14 Zn5 1.977 . S
O14 C20 1.272 . S
O15 Zn5 1.910 . S
O15 C21 1.231 . S
C16 O0 1.225 1_455 S
C16 O22 1.298 . S
C17 O6 1.226 1_455 S
C17 O7 1.307 . S
C18 O10 1.303 . S
C18 O11 1.247 . S
C19 O8 1.253 . S
C19 O9 1.283 . S
C20 O12 1.304 . S
C20 O14 1.272 . S
C21 O13 1.311 . S
C21 O15 1.231 . S
O22 Zn4 1.953 . S
O22 C16 1.298 . S
O23 Zn24 1.953 . S
O23 C39 1.225 . S
Zn24 O23 1.953 . S
Zn24 O25 1.949 . S
Zn24 O31 1.919 . S
Zn24 O36 1.924 1_545 S
O25 Zn24 1.949 . S
O25 Zn26 1.923 . S
O25 Zn27 1.950 . S
O25 Zn28 1.945 1_545 S
Zn26 O25 1.923 . S
Zn26 O29 1.933 . S
Zn26 O32 1.941 . S
Zn26 O33 1.965 . S
Zn27 O25 1.950 . S
Zn27 O34 1.938 . S
Zn27 O35 1.906 1_545 S
Zn27 O45 1.953 . S
Zn28 O25 1.945 1_565 S
Zn28 O30 1.932 . S
Zn28 O37 1.977 . S
Zn28 O38 1.910 . S
O29 Zn26 1.933 . S
O29 C40 1.226 . S
O30 Zn28 1.932 . S
O30 C40 1.307 1_565 S
O31 Zn24 1.919 . S
O31 C42 1.253 . S
O32 Zn26 1.941 . S
O32 C42 1.283 . S
O33 Zn26 1.965 . S
O33 C41 1.303 . S
O34 Zn27 1.938 . S
O34 C41 1.247 . S
O35 Zn27 1.906 1_565 S
O35 C43 1.304 . S
O36 Zn24 1.924 1_565 S
O36 C44 1.311 . S
O37 Zn28 1.977 . S
O37 C43 1.272 . S
O38 Zn28 1.910 . S
O38 C44 1.231 . S
C39 O23 1.225 . S
C39 O45 1.298 . S
C40 O29 1.226 . S
C40 O30 1.307 1_545 S
C41 O33 1.303 . S
C41 O34 1.247 . S
C42 O31 1.253 . S
C42 O32 1.283 . S
C43 O35 1.304 . S
C43 O37 1.272 . S
C44 O36 1.311 . S
C44 O38 1.231 . S
O45 Zn27 1.953 . S
O45 C39 1.298 . S
O46 Zn47 1.953 . S
O46 C62 1.225 . S
Zn47 O46 1.953 . S
Zn47 O48 1.949 . S
Zn47 O54 1.919 . S
Zn47 O59 1.924 . S
O48 Zn47 1.949 . S
O48 Zn49 1.923 . S
O48 Zn50 1.950 . S
O48 Zn51 1.945 . S
Zn49 O48 1.923 . S
Zn49 O52 1.933 . S
Zn49 O55 1.941 . S
Zn49 O56 1.965 . S
Zn50 O48 1.950 . S
Zn50 O57 1.938 . S
Zn50 O58 1.906 . S
Zn50 O68 1.953 . S
Zn51 O48 1.945 . S
Zn51 O53 1.932 . S
Zn51 O60 1.977 . S
Zn51 O61 1.910 . S
O52 Zn49 1.933 . S
O52 C63 1.226 . S
O53 Zn51 1.932 . S
O53 C63 1.307 . S
O54 Zn47 1.919 . S
O54 C65 1.253 . S
O55 Zn49 1.941 . S
O55 C65 1.283 . S
O56 Zn49 1.965 . S
O56 C64 1.303 . S
O57 Zn50 1.938 . S
O57 C64 1.247 . S
O58 Zn50 1.906 . S
O58 C66 1.304 . S
O59 Zn47 1.924 . S
O59 C67 1.311 . S
O60 Zn51 1.977 . S
O60 C66 1.272 . S
O61 Zn51 1.910 . S
O61 C67 1.231 . S
C62 O46 1.225 . S
C62 O68 1.298 . S
C63 O52 1.226 . S
C63 O53 1.307 . S
C64 O56 1.303 . S
C64 O57 1.247 . S
C65 O54 1.253 . S
C65 O55 1.283 . S
C66 O58 1.304 . S
C66 O60 1.272 . S
C67 O59 1.311 . S
C67 O61 1.231 . S
O68 Zn50 1.953 . S
O68 C62 1.298 . S
P69 O80 1.490 . S
P69 C83 1.812 . S
P69 C89 1.803 1_565 S
P69 C95 1.816 1_565 S
H70 C84 0.941 . S
H71 C85 0.939 . S
H72 C87 0.940 . S
H73 C88 0.940 . S
H74 C90 0.939 . S
H75 C91 0.942 . S
H76 C93 0.940 . S
H77 C94 0.939 . S
H78 C96 0.941 . S
H79 C100 0.939 . S
O80 P69 1.490 . S
H81 C97 0.939 . S
H82 C99 0.940 . S
C83 P69 1.812 . S
C83 C84 1.389 . S
C83 C88 1.391 . S
C84 H70 0.941 . S
C84 C83 1.389 . S
C84 C85 1.397 . S
C85 H71 0.939 . S
C85 C84 1.397 . S
C85 C86 1.378 . S
C86 C85 1.378 . S
C86 C87 1.378 . S
C87 H72 0.940 . S
C87 C86 1.378 . S
C87 C88 1.396 . S
C88 H73 0.940 . S
C88 C83 1.391 . S
C88 C87 1.396 . S
C89 P69 1.803 1_545 S
C89 C90 1.378 . S
C89 C94 1.400 . S
C90 H74 0.939 . S
C90 C89 1.378 . S
C90 C91 1.361 . S
C91 H75 0.942 . S
C91 C90 1.361 . S
C91 C92 1.369 . S
C92 C91 1.369 . S
C92 C93 1.404 . S
C93 H76 0.940 . S
C93 C92 1.404 . S
C93 C94 1.389 . S
C94 H77 0.939 . S
C94 C89 1.400 . S
C94 C93 1.389 . S
C95 P69 1.816 1_545 S
C95 C96 1.386 1_545 S
C95 C100 1.399 . S
C96 H78 0.941 . S
C96 C95 1.386 1_565 S
C96 C97 1.396 . S
C97 H81 0.939 . S
C97 C96 1.396 . S
C97 C98 1.397 1_565 S
C98 C97 1.397 1_545 S
C98 C99 1.385 . S
C99 H82 0.940 . S
C99 C98 1.385 . S
C99 C100 1.388 . S
C100 H79 0.939 . S
C100 C95 1.399 . S
C100 C99 1.388 . S
P101 O112 1.490 . S
P101 C115 1.812 . S
P101 C121 1.803 . S
P101 C127 1.819 . S
H102 C116 0.941 . S
H103 C117 0.939 . S
H104 C119 0.940 . S
H105 C120 0.940 . S
H106 C122 0.939 . S
H107 C123 0.942 . S
H108 C125 0.940 . S
H109 C126 0.939 . S
H110 C128 0.941 . S
H111 C132 0.939 . S
O112 P101 1.490 . S
H113 C129 0.939 . S
H114 C131 0.940 . S
C115 P101 1.812 . S
C115 C116 1.389 . S
C115 C120 1.391 . S
C116 H102 0.941 . S
C116 C115 1.389 . S
C116 C117 1.397 . S
C117 H103 0.939 . S
C117 C116 1.397 . S
C117 C118 1.378 . S
C118 C117 1.378 . S
C118 C119 1.378 . S
C119 H104 0.940 . S
C119 C118 1.378 . S
C119 C120 1.396 . S
C120 H105 0.940 . S
C120 C115 1.391 . S
C120 C119 1.396 . S
C121 P101 1.803 . S
C121 C122 1.378 . S
C121 C126 1.400 . S
C122 H106 0.939 . S
C122 C121 1.378 . S
C122 C123 1.361 . S
C123 H107 0.942 . S
C123 C122 1.361 . S
C123 C124 1.369 . S
C124 C123 1.369 . S
C124 C125 1.404 . S
C125 H108 0.940 . S
C125 C124 1.404 . S
C125 C126 1.389 . S
C126 H109 0.939 . S
C126 C121 1.400 . S
C126 C125 1.389 . S
C127 P101 1.819 . S
C127 C128 1.391 . S
C127 C132 1.391 . S
C128 H110 0.941 . S
C128 C127 1.391 . S
C128 C129 1.396 . S
C129 H113 0.939 . S
C129 C128 1.396 . S
C129 C130 1.397 . S
C130 C129 1.397 . S
C130 C131 1.385 . S
C131 H114 0.940 . S
C131 C130 1.385 . S
C131 C132 1.388 . S
C132 H111 0.939 . S
C132 C127 1.391 . S
C132 C131 1.388 . S
P133 O144 1.490 . S
P133 C147 1.812 . S
P133 C153 1.803 1_455 S
P133 C159 1.819 . S
H134 C148 0.941 . S
H135 C149 0.939 . S
H136 C151 0.940 . S
H137 C152 0.940 . S
H138 C154 0.939 . S
H139 C155 0.942 . S
H140 C157 0.940 . S
H141 C158 0.939 . S
H142 C160 0.941 . S
H143 C164 0.939 . S
O144 P133 1.490 . S
H145 C161 0.939 . S
H146 C163 0.940 . S
C147 P133 1.812 . S
C147 C148 1.389 . S
C147 C152 1.391 . S
C148 H134 0.941 . S
C148 C147 1.389 . S
C148 C149 1.397 . S
C149 H135 0.939 . S
C149 C148 1.397 . S
C149 C150 1.378 . S
C150 C149 1.378 . S
C150 C151 1.378 . S
C151 H136 0.940 . S
C151 C150 1.378 . S
C151 C152 1.396 . S
C152 H137 0.940 . S
C152 C147 1.391 . S
C152 C151 1.396 . S
C153 P133 1.803 1_655 S
C153 C154 1.378 . S
C153 C158 1.400 . S
C154 H138 0.939 . S
C154 C153 1.378 . S
C154 C155 1.361 . S
C155 H139 0.942 . S
C155 C154 1.361 . S
C155 C156 1.369 . S
C156 C155 1.369 . S
C156 C157 1.404 . S
C157 H140 0.940 . S
C157 C156 1.404 . S
C157 C158 1.389 . S
C158 H141 0.939 . S
C158 C153 1.400 . S
C158 C157 1.389 . S
C159 P133 1.819 . S
C159 C160 1.391 . S
C159 C164 1.391 1_455 S
C160 H142 0.941 . S
C160 C159 1.391 . S
C160 C161 1.396 . S
C161 H145 0.939 . S
C161 C160 1.396 . S
C161 C162 1.397 . S
C162 C161 1.397 . S
C162 C163 1.385 1_455 S
C163 H146 0.940 . S
C163 C162 1.385 1_655 S
C163 C164 1.388 . S
C164 H143 0.939 . S
C164 C159 1.391 1_655 S
C164 C163 1.388 . S
P165 O176 1.490 . S
P165 C179 1.812 . S
P165 C185 1.803 1_455 S
P165 C191 1.819 . S
H166 C180 0.941 . S
H167 C181 0.939 . S
H168 C183 0.940 . S
H169 C184 0.940 . S
H170 C186 0.939 . S
H171 C187 0.942 . S
H172 C189 0.940 . S
H173 C190 0.939 . S
H174 C192 0.941 . S
H175 C196 0.939 . S
O176 P165 1.490 . S
H177 C193 0.939 . S
H178 C195 0.940 . S
C179 P165 1.812 . S
C179 C180 1.389 . S
C179 C184 1.391 . S
C180 H166 0.941 . S
C180 C179 1.389 . S
C180 C181 1.397 . S
C181 H167 0.939 . S
C181 C180 1.397 . S
C181 C182 1.378 . S
C182 C181 1.378 . S
C182 C183 1.378 . S
C183 H168 0.940 . S
C183 C182 1.378 . S
C183 C184 1.396 . S
C184 H169 0.940 . S
C184 C179 1.391 . S
C184 C183 1.396 . S
C185 P165 1.803 1_655 S
C185 C186 1.378 . S
C185 C190 1.400 . S
C186 H170 0.939 . S
C186 C185 1.378 . S
C186 C187 1.361 . S
C187 H171 0.942 . S
C187 C186 1.361 . S
C187 C188 1.369 . S
C188 C187 1.369 . S
C188 C189 1.404 . S
C189 H172 0.940 . S
C189 C188 1.404 . S
C189 C190 1.389 . S
C190 H173 0.939 . S
C190 C185 1.400 . S
C190 C189 1.389 . S
C191 P165 1.819 . S
C191 C192 1.391 . S
C191 C196 1.391 1_455 S
C192 H174 0.941 . S
C192 C191 1.391 . S
C192 C193 1.396 . S
C193 H177 0.939 . S
C193 C192 1.396 . S
C193 C194 1.397 . S
C194 C193 1.397 . S
C194 C195 1.385 1_455 S
C195 H178 0.940 . S
C195 C194 1.385 1_655 S
C195 C196 1.388 . S
C196 H175 0.939 . S
C196 C191 1.391 1_655 S
C196 C195 1.388 . S
P197 O208 1.490 . S
P197 C211 1.812 . S
P197 C217 1.803 1_545 S
P197 C223 1.819 . S
H198 C212 0.941 . S
H199 C213 0.939 . S
H200 C215 0.940 . S
H201 C216 0.940 . S
H202 C218 0.939 . S
H203 C219 0.942 . S
H204 C221 0.940 . S
H205 C222 0.939 . S
H206 C224 0.941 . S
H207 C228 0.939 . S
O208 P197 1.490 . S
H209 C225 0.939 . S
H210 C227 0.940 . S
C211 P197 1.812 . S
C211 C212 1.389 . S
C211 C216 1.391 . S
C212 H198 0.941 . S
C212 C211 1.389 . S
C212 C213 1.397 . S
C213 H199 0.939 . S
C213 C212 1.397 . S
C213 C214 1.378 . S
C214 C213 1.378 . S
C214 C215 1.378 . S
C215 H200 0.940 . S
C215 C214 1.378 . S
C215 C216 1.396 . S
C216 H201 0.940 . S
C216 C211 1.391 . S
C216 C215 1.396 . S
C217 P197 1.803 1_565 S
C217 C218 1.378 . S
C217 C222 1.400 . S
C218 H202 0.939 . S
C218 C217 1.378 . S
C218 C219 1.361 . S
C219 H203 0.942 . S
C219 C218 1.361 . S
C219 C220 1.369 . S
C220 C219 1.369 . S
C220 C221 1.404 . S
C221 H204 0.940 . S
C221 C220 1.404 . S
C221 C222 1.389 . S
C222 H205 0.939 . S
C222 C217 1.400 . S
C222 C221 1.389 . S
C223 P197 1.819 . S
C223 C224 1.391 . S
C223 C228 1.391 1_545 S
C224 H206 0.941 . S
C224 C223 1.391 . S
C224 C225 1.396 . S
C225 H209 0.939 . S
C225 C224 1.396 . S
C225 C226 1.397 . S
C226 C225 1.397 . S
C226 C227 1.385 1_545 S
C227 H210 0.940 . S
C227 C226 1.385 1_565 S
C227 C228 1.388 . S
C228 H207 0.939 . S
C228 C223 1.391 1_565 S
C228 C227 1.388 . S
P229 O240 1.490 . S
P229 C243 1.812 . S
P229 C249 1.803 . S
P229 C255 1.819 . S
H230 C244 0.941 . S
H231 C245 0.939 . S
H232 C247 0.940 . S
H233 C248 0.940 . S
H234 C250 0.939 . S
H235 C251 0.942 . S
H236 C253 0.940 . S
H237 C254 0.939 . S
H238 C256 0.941 . S
H239 C260 0.939 . S
O240 P229 1.490 . S
H241 C257 0.939 . S
H242 C259 0.940 . S
C243 P229 1.812 . S
C243 C244 1.389 . S
C243 C248 1.391 . S
C244 H230 0.941 . S
C244 C243 1.389 . S
C244 C245 1.397 . S
C245 H231 0.939 . S
C245 C244 1.397 . S
C245 C246 1.378 . S
C246 C245 1.378 . S
C246 C247 1.378 . S
C247 H232 0.940 . S
C247 C246 1.378 . S
C247 C248 1.396 . S
C248 H233 0.940 . S
C248 C243 1.391 . S
C248 C247 1.396 . S
C249 P229 1.803 . S
C249 C250 1.378 . S
C249 C254 1.400 . S
C250 H234 0.939 . S
C250 C249 1.378 . S
C250 C251 1.361 . S
C251 H235 0.942 . S
C251 C250 1.361 . S
C251 C252 1.369 . S
C252 C251 1.369 . S
C252 C253 1.404 . S
C253 H236 0.940 . S
C253 C252 1.404 . S
C253 C254 1.389 . S
C254 H237 0.939 . S
C254 C249 1.400 . S
C254 C253 1.389 . S
C255 P229 1.819 . S
C255 C256 1.391 . S
C255 C260 1.391 . S
C256 H238 0.941 . S
C256 C255 1.391 . S
C256 C257 1.396 . S
C257 H241 0.939 . S
C257 C256 1.396 . S
C257 C258 1.397 . S
C258 C257 1.397 . S
C258 C259 1.385 . S
C259 H242 0.940 . S
C259 C258 1.385 . S
C259 C260 1.388 . S
C260 H239 0.939 . S
C260 C255 1.391 . S
C260 C259 1.388 . S
C261 C262 1.387 . S
C261 H265 0.950 . S
C261 C270 1.390 . S
C262 C261 1.387 . S
C262 C264 1.387 . S
H263 C270 0.950 . S
C264 C262 1.387 . S
C264 C266 1.390 . S
C264 H268 0.950 . S
H265 C261 0.950 . S
C266 C264 1.390 . S
C266 C267 1.387 . S
C266 H269 0.950 . S
C267 C266 1.387 . S
C267 C270 1.387 . S
H268 C264 0.950 . S
H269 C266 0.950 . S
C270 C261 1.390 . S
C270 H263 0.950 . S
C270 C267 1.387 . S
C271 C272 1.387 . S
C271 H275 0.950 . S
C271 C280 1.390 . S
C272 C271 1.387 . S
C272 C274 1.387 . S
H273 C280 0.950 . S
C274 C272 1.387 . S
C274 C276 1.390 . S
C274 H278 0.950 . S
H275 C271 0.950 . S
C276 C274 1.390 . S
C276 C277 1.387 . S
C276 H279 0.950 . S
C277 C276 1.387 . S
C277 C280 1.387 . S
H278 C274 0.950 . S
H279 C276 0.950 . S
C280 C271 1.390 . S
C280 H273 0.950 . S
C280 C277 1.387 . S
C281 C282 1.387 . S
C281 H285 0.950 . S
C281 C290 1.390 . S
C282 C281 1.387 . S
C282 C284 1.387 . S
H283 C290 0.950 . S
C284 C282 1.387 . S
C284 C286 1.390 . S
C284 H288 0.950 . S
H285 C281 0.950 . S
C286 C284 1.390 . S
C286 C287 1.387 . S
C286 H289 0.950 . S
C287 C286 1.387 . S
C287 C290 1.387 . S
H288 C284 0.950 . S
H289 C286 0.950 . S
C290 C281 1.390 . S
C290 H283 0.950 . S
C290 C287 1.387 . S
C291 C292 1.387 . S
C291 H295 0.950 . S
C291 C300 1.390 . S
C292 C291 1.387 . S
C292 C294 1.387 . S
H293 C300 0.950 . S
C294 C292 1.387 . S
C294 C296 1.390 . S
C294 H298 0.950 . S
H295 C291 0.950 . S
C296 C294 1.390 . S
C296 C297 1.387 . S
C296 H299 0.950 . S
C297 C296 1.387 . S
C297 C300 1.387 . S
H298 C294 0.950 . S
H299 C296 0.950 . S
C300 C291 1.390 . S
C300 H293 0.950 . S
C300 C297 1.387 . S
C301 C302 1.387 . S
C301 H305 0.950 . S
C301 C310 1.390 . S
C302 C301 1.387 . S
C302 C304 1.387 . S
H303 C310 0.950 . S
C304 C302 1.387 . S
C304 C306 1.390 . S
C304 H308 0.950 . S
H305 C301 0.950 . S
C306 C304 1.390 . S
C306 C307 1.387 . S
C306 H309 0.950 . S
C307 C306 1.387 . S
C307 C310 1.387 . S
H308 C304 0.950 . S
H309 C306 0.950 . S
C310 C301 1.390 . S
C310 H303 0.950 . S
C310 C307 1.387 . S
C311 C312 1.387 . S
C311 H315 0.950 . S
C311 C320 1.390 . S
C312 C311 1.387 . S
C312 C314 1.387 . S
H313 C320 0.950 . S
C314 C312 1.387 . S
C314 C316 1.390 . S
C314 H318 0.950 . S
H315 C311 0.950 . S
C316 C314 1.390 . S
C316 C317 1.387 . S
C316 H319 0.950 . S
C317 C316 1.387 . S
C317 C320 1.387 . S
H318 C314 0.950 . S
H319 C316 0.950 . S
C320 C311 1.390 . S
C320 H313 0.950 . S
C320 C317 1.387 . S
C321 C322 1.387 . S
C321 H325 0.950 . S
C321 C330 1.390 . S
C322 C321 1.387 . S
C322 C324 1.387 . S
H323 C330 0.950 . S
C324 C322 1.387 . S
C324 C326 1.390 . S
C324 H328 0.950 . S
H325 C321 0.950 . S
C326 C324 1.390 . S
C326 C327 1.387 . S
C326 H329 0.950 . S
C327 C326 1.387 . S
C327 C330 1.387 . S
H328 C324 0.950 . S
H329 C326 0.950 . S
C330 C321 1.390 . S
C330 H323 0.950 . S
C330 C327 1.387 . S
C331 C332 1.387 . S
C331 H335 0.950 . S
C331 C340 1.390 . S
C332 C331 1.387 . S
C332 C334 1.387 . S
H333 C340 0.950 . S
C334 C332 1.387 . S
C334 C336 1.390 . S
C334 H338 0.950 . S
H335 C331 0.950 . S
C336 C334 1.390 . S
C336 C337 1.387 . S
C336 H339 0.950 . S
C337 C336 1.387 . S
C337 C340 1.387 . S
H338 C334 0.950 . S
H339 C336 0.950 . S
C340 C331 1.390 . S
C340 H333 0.950 . S
C340 C337 1.387 . S
C341 C342 1.387 . S
C341 H345 0.950 . S
C341 C350 1.390 . S
C342 C341 1.387 . S
C342 C344 1.387 . S
H343 C350 0.950 . S
C344 C342 1.387 . S
C344 C346 1.390 . S
C344 H348 0.950 . S
H345 C341 0.950 . S
C346 C344 1.390 . S
C346 C347 1.387 . S
C346 H349 0.950 . S
C347 C346 1.387 . S
C347 C350 1.387 . S
H348 C344 0.950 . S
H349 C346 0.950 . S
C350 C341 1.390 . S
C350 H343 0.950 . S
C350 C347 1.387 . S
C351 C352 1.387 . S
C351 H355 0.950 . S
C351 C360 1.390 . S
C352 C351 1.387 . S
C352 C354 1.387 . S
H353 C360 0.950 . S
C354 C352 1.387 . S
C354 C356 1.390 . S
C354 H358 0.950 . S
H355 C351 0.950 . S
C356 C354 1.390 . S
C356 C357 1.387 . S
C356 H359 0.950 . S
C357 C356 1.387 . S
C357 C360 1.387 . S
H358 C354 0.950 . S
H359 C356 0.950 . S
C360 C351 1.390 . S
C360 H353 0.950 . S
C360 C357 1.387 . S
C361 C362 1.387 . S
C361 H365 0.950 . S
C361 C370 1.390 . S
C362 C361 1.387 . S
C362 C364 1.387 . S
H363 C370 0.950 . S
C364 C362 1.387 . S
C364 C366 1.390 . S
C364 H368 0.950 . S
H365 C361 0.950 . S
C366 C364 1.390 . S
C366 C367 1.387 . S
C366 H369 0.950 . S
C367 C366 1.387 . S
C367 C370 1.387 . S
H368 C364 0.950 . S
H369 C366 0.950 . S
C370 C361 1.390 . S
C370 H363 0.950 . S
C370 C367 1.387 . S
C371 C372 1.387 . S
C371 H375 0.950 . S
C371 C380 1.390 . S
C372 C371 1.387 . S
C372 C374 1.387 . S
H373 C380 0.950 . S
C374 C372 1.387 . S
C374 C376 1.390 . S
C374 H378 0.950 . S
H375 C371 0.950 . S
C376 C374 1.390 . S
C376 C377 1.387 . S
C376 H379 0.950 . S
C377 C376 1.387 . S
C377 C380 1.387 . S
H378 C374 0.950 . S
H379 C376 0.950 . S
C380 C371 1.390 . S
C380 H373 0.950 . S
C380 C377 1.387 . S
C381 C382 1.387 . S
C381 H385 0.950 . S
C381 C390 1.390 . S
C382 C381 1.387 . S
C382 C384 1.387 . S
H383 C390 0.950 . S
C384 C382 1.387 . S
C384 C386 1.390 . S
C384 H388 0.950 . S
H385 C381 0.950 . S
C386 C384 1.390 . S
C386 C387 1.387 . S
C386 H389 0.950 . S
C387 C386 1.387 . S
C387 C390 1.387 . S
H388 C384 0.950 . S
H389 C386 0.950 . S
C390 C381 1.390 . S
C390 H383 0.950 . S
C390 C387 1.387 . S
C391 C392 1.387 . S
C391 H395 0.950 . S
C391 C400 1.390 . S
C392 C391 1.387 . S
C392 C394 1.387 1_545 S
H393 C400 0.950 . S
C394 C392 1.387 1_565 S
C394 C396 1.390 . S
C394 H398 0.950 . S
H395 C391 0.950 . S
C396 C394 1.390 . S
C396 C397 1.387 1_565 S
C396 H399 0.950 . S
C397 C396 1.387 1_545 S
C397 C400 1.387 . S
H398 C394 0.950 . S
H399 C396 0.950 . S
C400 C391 1.390 . S
C400 H393 0.950 . S
C400 C397 1.387 . S
C401 C402 1.387 . S
C401 H405 0.950 . S
C401 C410 1.390 . S
C402 C401 1.387 . S
C402 C404 1.387 . S
H403 C410 0.950 . S
C404 C402 1.387 . S
C404 C406 1.390 . S
C404 H408 0.950 . S
H405 C401 0.950 . S
C406 C404 1.390 . S
C406 C407 1.387 . S
C406 H409 0.950 . S
C407 C406 1.387 . S
C407 C410 1.387 . S
H408 C404 0.950 . S
H409 C406 0.950 . S
C410 C401 1.390 . S
C410 H403 0.950 . S
C410 C407 1.387 . S
C411 C412 1.387 1_565 S
C411 H415 0.950 . S
C411 C420 1.390 . S
C412 C411 1.387 1_545 S
C412 C414 1.387 . S
H413 C420 0.950 . S
C414 C412 1.387 . S
C414 C416 1.390 . S
C414 H418 0.950 . S
H415 C411 0.950 . S
C416 C414 1.390 . S
C416 C417 1.387 . S
C416 H419 0.950 . S
C417 C416 1.387 . S
C417 C420 1.387 1_545 S
H418 C414 0.950 . S
H419 C416 0.950 . S
C420 C411 1.390 . S
C420 H413 0.950 . S
C420 C417 1.387 1_565 S
C421 C422 1.387 . S
C421 H425 0.950 . S
C421 C430 1.390 . S
C422 C421 1.387 . S
C422 C424 1.387 . S
H423 C430 0.950 . S
C424 C422 1.387 . S
C424 C426 1.390 . S
C424 H428 0.950 . S
H425 C421 0.950 . S
C426 C424 1.390 . S
C426 C427 1.387 . S
C426 H429 0.950 . S
C427 C426 1.387 . S
C427 C430 1.387 . S
H428 C424 0.950 . S
H429 C426 0.950 . S
C430 C421 1.390 . S
C430 H423 0.950 . S
C430 C427 1.387 . S
C431 C432 1.387 1_655 S
C431 H435 0.950 . S
C431 C440 1.390 . S
C432 C431 1.387 1_455 S
C432 C434 1.387 . S
H433 C440 0.950 . S
C434 C432 1.387 . S
C434 C436 1.390 . S
C434 H438 0.950 . S
H435 C431 0.950 . S
C436 C434 1.390 . S
C436 C437 1.387 . S
C436 H439 0.950 . S
C437 C436 1.387 . S
C437 C440 1.387 1_455 S
H438 C434 0.950 . S
H439 C436 0.950 . S
C440 C431 1.390 . S
C440 H433 0.950 . S
C440 C437 1.387 1_655 S
C262 C20 1.265 . S
C267 C252 1.271 . S
C272 C41 1.374 . S
C277 C188 1.310 . S
C282 C64 1.404 . S
C287 C220 1.331 . S
C292 C19 1.345 . S
C297 C246 1.439 . S
C307 C182 1.377 . S
C302 C44 1.353 . S
C317 C214 1.352 . S
C312 C67 1.336 . S
C322 C43 1.288 . S
C327 C124 1.295 . S
C332 C66 1.267 . S
C337 C156 1.274 . S
C342 C21 1.352 . S
C347 C86 1.372 . S
C357 C118 1.398 . S
C352 C42 1.315 . S
C367 C150 1.439 . S
C362 C65 1.346 . S
C372 C18 1.378 . S
C377 C92 1.312 . S
C387 C162 1.451 1_554 S
C382 C17 1.476 . S
C392 C39 1.472 . S
C397 C98 1.440 . S
C402 C62 1.488 . S
C407 C130 1.464 . S
C417 C226 1.427 . S
C412 C40 1.459 . S
C427 C258 1.451 1_556 S
C422 C63 1.476 . S
C432 C16 1.471 . S
C437 C194 1.440 . S
