# Generated by pormake.
# Topology pts, (4,4)-cn, num edge types: 1
# Building blocks:
#     Node 0, Type 0, BuildingBlock: AZAVOO_clean_linker_0, # of connection points: 4
#     Node 1, Type 0, BuildingBlock: AZAVOO_clean_linker_0, # of connection points: 4
#     Node 2, Type 1, BuildingBlock: UXUYUI_clean_sbu_0, # of connection points: 4
#     Node 3, Type 1, BuildingBlock: UXUYUI_clean_sbu_0, # of connection points: 4
#     Edge 4, Type (0, 1), BuildingBlock: MIFKUJ_clean_linker_0, # of connection points: 2
#     Edge 5, Type (0, 1), BuildingBlock: MIFKUJ_clean_linker_0, # of connection points: 2
#     Edge 6, Type (0, 1), BuildingBlock: MIFKUJ_clean_linker_0, # of connection points: 2
#     Edge 7, Type (0, 1), BuildingBlock: MIFKUJ_clean_linker_0, # of connection points: 2
#     Edge 8, Type (0, 1), BuildingBlock: MIFKUJ_clean_linker_0, # of connection points: 2
#     Edge 9, Type (0, 1), BuildingBlock: MIFKUJ_clean_linker_0, # of connection points: 2
#     Edge 10, Type (0, 1), BuildingBlock: MIFKUJ_clean_linker_0, # of connection points: 2
#     Edge 11, Type (0, 1), BuildingBlock: MIFKUJ_clean_linker_0, # of connection points: 2
# Relax obj value: 0.114
# Max RMSD: 0.231
# Mean RMSD: 0.163
data_MOF--net-pts--node1-UXUYUI_clean_sbu_0--node2-AZAVOO_clean_linker_0--edge1-MIFKUJ_clean_linker_0
_symmetry_space_group_name_H-M    P1
_symmetry_Int_Tables_number       1
_symmetry_cell_setting            triclinic
loop_
_symmetry_equiv_pos_as_xyz
'x, y, z'
_cell_length_a     39.049714
_cell_length_b     39.038826
_cell_length_c     67.378435
_cell_angle_alpha  91.27925
_cell_angle_beta   91.367611
_cell_angle_gamma 90.030182
loop_
_atom_site_label
_atom_site_type_symbol
_atom_site_fract_x
_atom_site_fract_y
_atom_site_fract_z
_atom_type_partial_charge
H0 H 0.48857 0.08221 0.87722 0.0
H1 H 0.75342 0.96675 0.03663 0.0
H2 H 0.48506 0.10536 0.98371 0.0
H3 H 0.43136 0.11405 0.96503 0.0
H4 H 0.40011 0.01091 0.97798 0.0
H5 H 0.45402 0.00241 0.99659 0.0
H6 H 0.54557 0.09327 0.95819 0.0
H7 H 0.52649 0.09785 0.92348 0.0
H8 H 0.48008 0.99745 0.92589 0.0
H9 H 0.49971 0.99308 0.96052 0.0
H10 H 0.60967 0.08367 0.97564 0.0
H11 H 0.6527 0.07853 0.94981 0.0
H12 H 0.62892 0.97087 0.94228 0.0
H13 H 0.58549 0.97639 0.96796 0.0
H14 H 0.6242 0.07666 0.02402 0.0
H15 H 0.68339 0.06546 0.03481 0.0
H16 H 0.67036 0.95854 0.01808 0.0
H17 H 0.61114 0.97012 0.00751 0.0
H18 H 0.5644 0.08653 0.05023 0.0
H19 H 0.59408 0.08264 0.08245 0.0
H20 H 0.59322 0.9721 0.07648 0.0
H21 H 0.56458 0.97648 0.04394 0.0
H22 H 0.48507 0.09957 0.03036 0.0
H23 H 0.44035 0.10443 0.05517 0.0
H24 H 0.44633 0.99523 0.06413 0.0
H25 H 0.49139 0.99086 0.03962 0.0
O26 O 0.49639 0.07963 0.89083 0.0
O27 O 0.47276 0.02803 0.89291 0.0
O28 O 0.73551 0.02711 0.04082 0.0
O29 O 0.73018 0.97193 0.0324 0.0
C30 C 0.50899 0.04527 0.99776 0.0
C31 C 0.53407 0.04083 0.98314 0.0
C32 C 0.56824 0.0339 0.98882 0.0
C33 C 0.57739 0.03092 0.00904 0.0
C34 C 0.5522 0.03459 0.02364 0.0
C35 C 0.51795 0.04176 0.01803 0.0
C36 C 0.47339 0.05322 0.99137 0.0
C37 C 0.46612 0.08505 0.98303 0.0
C38 C 0.43563 0.08987 0.97226 0.0
C39 C 0.41186 0.06299 0.96985 0.0
C40 C 0.41793 0.03211 0.97969 0.0
C41 C 0.44861 0.02722 0.99036 0.0
C42 C 0.5242 0.04277 0.96177 0.0
C43 C 0.53167 0.07214 0.95109 0.0
C44 C 0.52057 0.07475 0.93132 0.0
C45 C 0.5017 0.04803 0.92191 0.0
C46 C 0.49455 0.01848 0.93267 0.0
C47 C 0.50577 0.01588 0.95242 0.0
C48 C 0.59461 0.0304 0.97355 0.0
C49 C 0.61378 0.05903 0.96836 0.0
C50 C 0.63812 0.05609 0.95361 0.0
C51 C 0.64393 0.02433 0.94406 0.0
C52 C 0.62496 0.99557 0.9495 0.0
C53 C 0.60023 0.99866 0.96407 0.0
C54 C 0.61354 0.0242 0.01498 0.0
C55 C 0.63425 0.05087 0.02268 0.0
C56 C 0.66801 0.04439 0.02883 0.0
C57 C 0.68161 0.01107 0.02732 0.0
C58 C 0.66071 0.98447 0.01945 0.0
C59 C 0.62694 0.991 0.01335 0.0
C60 C 0.56253 0.03181 0.04481 0.0
C61 C 0.56981 0.06151 0.05618 0.0
C62 C 0.58672 0.05918 0.0746 0.0
C63 C 0.59644 0.02704 0.08194 0.0
C64 C 0.58671 0.99724 0.07108 0.0
C65 C 0.57005 -0.00036 0.05261 0.0
C66 C 0.49142 0.04489 0.03328 0.0
C67 C 0.47672 0.07679 0.03777 0.0
C68 C 0.45111 0.07946 0.05186 0.0
C69 C 0.43979 0.05021 0.06165 0.0
C70 C 0.45483 0.01832 0.05711 0.0
C71 C 0.48044 0.01572 0.04306 0.0
C72 C 0.48938 0.05115 0.90102 0.0
C73 C 0.71739 0.00401 0.03393 0.0
H74 H 0.02471 0.48849 0.37427 0.0
H75 H 0.06017 0.75977 0.54315 0.0
H76 H 0.99304 0.46878 0.48174 0.0
H77 H 0.99599 0.41366 0.46396 0.0
H78 H 0.10402 0.40725 0.4789 0.0
H79 H 0.10077 0.46275 0.49662 0.0
H80 H 0.99426 0.53151 0.45569 0.0
H81 H 0.99689 0.51549 0.42042 0.0
H82 H 0.10527 0.49511 0.42775 0.0
H83 H 0.10228 0.51155 0.46295 0.0
H84 H 0.99049 0.59758 0.47181 0.0
H85 H 0.99147 0.64156 0.44631 0.0
H86 H 0.1021 0.64002 0.44847 0.0
H87 H 0.10086 0.59562 0.47368 0.0
H88 H 0.98684 0.60807 0.52294 0.0
H89 H 0.98239 0.66735 0.53521 0.0
H90 H 0.08962 0.68294 0.52346 0.0
H91 H 0.09378 0.62346 0.51148 0.0
H92 H 0.9895 0.54361 0.5481 0.0
H93 H 0.98286 0.57171 0.5807 0.0
H94 H 0.088 0.6062 0.57952 0.0
H95 H 0.09444 0.57763 0.54723 0.0
H96 H 0.99705 0.46565 0.52427 0.0
H97 H -0.0006 0.41999 0.54847 0.0
H98 H 0.09787 0.45773 0.57015 0.0
H99 H 0.0961 0.50195 0.54507 0.0
O100 O 0.02429 0.49496 0.38822 0.0
O101 O 0.07989 0.48465 0.3928 0.0
O102 O 0.00619 0.7269 0.54412 0.0
O103 O 0.06114 0.73635 0.53821 0.0
C104 C 0.04604 0.50574 0.49742 0.0
C105 C 0.04626 0.53183 0.48324 0.0
C106 C 0.04504 0.56646 0.48944 0.0
C107 C 0.04347 0.57514 0.50978 0.0
C108 C 0.044 0.54907 0.52403 0.0
C109 C 0.04535 0.51429 0.51789 0.0
C110 C 0.04667 0.46957 0.49044 0.0
C111 C 0.01709 0.45496 0.48164 0.0
C112 C 0.01884 0.42348 0.47154 0.0
C113 C 0.0503 0.40626 0.46997 0.0
C114 C 0.07953 0.42014 0.47976 0.0
C115 C 0.07769 0.45158 0.48999 0.0
C116 C 0.0481 0.52278 0.46178 0.0
C117 C 0.01856 0.5238 0.44958 0.0
C118 C 0.02013 0.51453 0.42948 0.0
C119 C 0.0513 0.504 0.42126 0.0
C120 C 0.08087 0.5031 0.43359 0.0
C121 C 0.07926 0.51247 0.45368 0.0
C122 C 0.0456 0.59365 0.47453 0.0
C123 C 0.01487 0.60681 0.46674 0.0
C124 C 0.01548 0.6317 0.45219 0.0
C125 C 0.04687 0.64407 0.4455 0.0
C126 C 0.07761 0.63104 0.45351 0.0
C127 C 0.07696 0.60576 0.46783 0.0
C128 C 0.04057 0.61161 0.51624 0.0
C129 C 0.00928 0.62441 0.52295 0.0
C130 C 0.00683 0.65824 0.52997 0.0
C131 C 0.03567 0.6799 0.53031 0.0
C132 C 0.06692 0.66698 0.52338 0.0
C133 C 0.06935 0.63309 0.51644 0.0
C134 C 0.04237 0.55885 0.54534 0.0
C135 C 0.01136 0.55628 0.55524 0.0
C136 C 0.00756 0.57252 0.57375 0.0
C137 C 0.03481 0.59143 0.58257 0.0
C138 C 0.06664 0.59156 0.57324 0.0
C139 C 0.07036 0.5754 0.55476 0.0
C140 C 0.04647 0.48699 0.53285 0.0
C141 C 0.01925 0.46379 0.53413 0.0
C142 C 0.02049 0.43796 0.54815 0.0
C143 C 0.04883 0.43513 0.56133 0.0
C144 C 0.07592 0.45872 0.56006 0.0
C145 C 0.07482 0.48426 0.54587 0.0
C146 C 0.05283 0.49394 0.39992 0.0
C147 C 0.0333 0.71576 0.53796 0.0
Li148 Li 0.03443 0.0681 0.26297 0.0
Li149 Li 0.03681 0.00387 0.26115 0.0
Li150 Li 0.06113 0.04227 0.2349 0.0
Li151 Li 0.00098 0.03642 0.23824 0.0
C152 C 0.094 0.05219 0.27882 0.0
N153 N 0.12891 0.08308 0.31062 0.0
C154 C 0.09442 0.03702 0.29742 0.0
C155 C 0.11178 0.08285 0.27635 0.0
C156 C 0.11212 0.05308 0.31332 0.0
C157 C 0.12913 0.09814 0.29261 0.0
C158 C 0.96461 0.03535 0.27121 0.0
C159 C 0.91077 0.00729 0.27671 0.0
N160 N 0.8949 0.0383 0.27698 0.0
C161 C 0.94786 0.06697 0.27167 0.0
C162 C 0.94604 0.00526 0.27384 0.0
C163 C 0.91256 0.06791 0.27456 0.0
C164 C 0.04059 0.13707 0.27814 0.0
N165 N 0.03423 0.10386 0.28243 0.0
C166 C 0.0291 0.11814 0.31685 0.0
C167 C 0.02814 0.09412 0.30125 0.0
C168 C 0.03627 0.15257 0.31301 0.0
C169 C 0.04187 0.16201 0.29333 0.0
H170 H 0.0449 0.14416 0.26301 0.0
H171 H 0.02312 0.06746 0.30415 0.0
C172 C 0.0572 0.93564 0.27015 0.0
N173 N 0.04104 0.96445 0.27668 0.0
C174 C 0.06004 0.90728 0.2824 0.0
C175 C 0.03041 0.93936 0.30789 0.0
C176 C 0.02755 0.96672 0.29506 0.0
C177 C 0.04681 0.90924 0.30157 0.0
H178 H 0.06798 0.93478 0.25551 0.0
H179 H 0.01501 0.99009 0.29983 0.0
C180 C 0.03806 0.09913 0.21985 0.0
N181 N 0.06283 0.13732 0.18922 0.0
C182 C 0.02183 0.09775 0.20111 0.0
C183 C 0.06675 0.12016 0.223 0.0
C184 C 0.03475 0.11722 0.18583 0.0
C185 C 0.07895 0.13917 0.20732 0.0
C186 C 0.01846 0.97991 0.21683 0.0
C187 C 0.01078 0.99456 0.19853 0.0
C188 C 0.0099 0.94567 0.21987 0.0
C189 C 0.99453 0.97476 0.18356 0.0
C190 C 0.99371 0.92669 0.20452 0.0
N191 N 0.98641 0.94151 0.18684 0.0
C192 C 0.13098 0.04598 0.22599 0.0
C193 C 0.09435 0.04661 0.19747 0.0
C194 C 0.1598 0.04818 0.21423 0.0
N195 N 0.09903 0.04548 0.21751 0.0
C196 C 0.12245 0.04896 0.18515 0.0
C197 C 0.15573 0.0497 0.19351 0.0
H198 H 0.13417 0.04446 0.2419 0.0
H199 H 0.06887 0.0457 0.19098 0.0
C200 C 0.9412 0.06409 0.22021 0.0
N201 N 0.95628 0.0344 0.22593 0.0
C202 C 0.90811 0.06377 0.21188 0.0
C203 C 0.90626 0.00247 0.21603 0.0
C204 C 0.9392 0.00404 0.22445 0.0
C205 C 0.89041 0.03258 0.20952 0.0
H206 H 0.95474 0.0881 0.22234 0.0
H207 H 0.95089 0.98108 0.23011 0.0
O208 O 0.07589 0.03741 0.26321 0.0
O209 O 0.99893 0.03383 0.26782 0.0
O210 O 0.02592 0.08009 0.235 0.0
O211 O 0.03423 0.9989 0.23173 0.0
H212 H 0.08107 0.01324 0.29962 0.0
H213 H 0.11193 0.09489 0.26207 0.0
H214 H 0.11245 0.04171 0.32782 0.0
H215 H 0.14272 0.12201 0.29093 0.0
H216 H 0.896 0.9842 0.27863 0.0
H217 H 0.96191 0.09046 0.26956 0.0
H218 H 0.95866 0.98058 0.27341 0.0
H219 H 0.89918 0.09216 0.27482 0.0
H220 H 0.02502 0.10969 0.33181 0.0
H221 H 0.04701 0.18839 0.28972 0.0
H222 H 0.07298 0.88441 0.27714 0.0
H223 H 0.01972 0.94159 0.32255 0.0
H224 H -0.00026 0.08154 0.19828 0.0
H225 H 0.07974 0.12152 0.23731 0.0
H226 H 0.02253 0.11623 0.17125 0.0
H227 H 0.10127 0.15534 0.20955 0.0
H228 H 0.01659 0.02111 0.19604 0.0
H229 H 0.01535 0.93395 0.23398 0.0
H230 H 0.98822 0.98588 0.16937 0.0
H231 H 0.98685 0.90021 0.20669 0.0
H232 H 0.18498 0.0489 0.22132 0.0
H233 H 0.11816 0.04955 0.16922 0.0
H234 H 0.89669 0.08757 0.2071 0.0
H235 H 0.89312 0.97803 0.21492 0.0
Li236 Li 0.0074 0.03154 0.7616 0.0
Li237 Li 0.07145 0.0307 0.76416 0.0
Li238 Li 0.0413 0.05914 0.73616 0.0
Li239 Li 0.04033 0.99856 0.73886 0.0
C240 C 0.03569 0.09393 0.77983 0.0
N241 N 0.02756 0.14114 0.81054 0.0
C242 C 0.04457 0.08538 0.79932 0.0
C243 C 0.02315 0.1267 0.77594 0.0
C244 C 0.04013 0.10953 0.81465 0.0
C245 C 0.01909 0.15015 0.79167 0.0
C246 C 0.03454 0.95911 0.76948 0.0
C247 C 0.05861 0.90223 0.76927 0.0
N248 N 0.0266 0.88888 0.77065 0.0
C249 C 0.0019 0.94485 0.77099 0.0
C250 C 0.06318 0.93769 0.76871 0.0
C251 C 0.99842 0.90927 0.77154 0.0
C252 C 0.93539 0.03005 0.77046 0.0
N253 N 0.96806 0.03186 0.77791 0.0
C254 C 0.94802 0.02865 0.81106 0.0
C255 C 0.97472 0.03066 0.79777 0.0
C256 C 0.91405 0.02738 0.80381 0.0
C257 C 0.90785 0.02818 0.78323 0.0
H258 H 0.93046 0.02904 0.75466 0.0
H259 H 0.00089 0.03035 0.80329 0.0
C260 C 0.13023 0.06068 0.78258 0.0
N261 N 0.10842 0.03356 0.7827 0.0
C262 C 0.1552 0.0649 0.79765 0.0
C263 C 0.13506 0.01284 0.81231 0.0
C264 C 0.11047 0.00972 0.79705 0.0
C265 C 0.15752 0.04099 0.81293 0.0
H266 H 0.12749 0.07954 0.77113 0.0
H267 H 0.09235 0.9888 0.79698 0.0
C268 C 0.97279 0.04637 0.726 0.0
N269 N 0.91672 0.08357 0.71304 0.0
C270 C 0.95108 0.03307 0.71094 0.0
C271 C 0.96603 0.07862 0.73443 0.0
C272 C 0.92284 0.05226 0.70461 0.0
C273 C 0.93755 0.09702 0.72769 0.0
C274 C 0.09294 0.02574 0.71631 0.0
C275 C 0.06962 0.02083 0.70043 0.0
C276 C 0.1278 0.0292 0.71259 0.0
C277 C 0.08161 0.01946 0.68106 0.0
C278 C 0.13879 0.02767 0.693 0.0
N279 N 0.11566 0.02288 0.67778 0.0
C280 C 0.06423 0.12421 0.72547 0.0
C281 C 0.02664 0.09761 0.70162 0.0
C282 C 0.0667 0.1532 0.7138 0.0
N283 N 0.04421 0.09735 0.71929 0.0
C284 C 0.02798 0.12622 0.68964 0.0
C285 C 0.04809 0.1545 0.69574 0.0
H286 H 0.07809 0.12314 0.73953 0.0
H287 H 0.01149 0.07567 0.69682 0.0
C288 C 0.00778 0.94199 0.72097 0.0
N289 N 0.03916 0.9561 0.72459 0.0
C290 C 0.00477 0.90991 0.7116 0.0
C291 C 0.06647 0.90783 0.70944 0.0
C292 C 0.0683 0.93983 0.71909 0.0
C293 C 0.03435 0.89236 0.70565 0.0
H294 H 0.98511 0.95544 0.72577 0.0
H295 H 0.09295 0.95156 0.72236 0.0
O296 O 0.04037 0.07086 0.76453 0.0
O297 O 0.03838 0.99383 0.76838 0.0
O298 O 0.00087 0.02804 0.73202 0.0
O299 O 0.08194 0.02741 0.73544 0.0
H300 H 0.05466 0.06032 0.80262 0.0
H301 H 0.01679 0.13408 0.76091 0.0
H302 H 0.04674 0.10316 0.8298 0.0
H303 H 0.00931 0.17555 0.78887 0.0
H304 H 0.08051 0.88533 0.76851 0.0
H305 H 0.97945 0.96105 0.77149 0.0
H306 H 0.0886 0.94833 0.76733 0.0
H307 H 0.9733 0.89785 0.77259 0.0
H308 H 0.95393 0.028 0.82684 0.0
H309 H 0.88206 0.02635 0.77702 0.0
H310 H 0.17169 0.08721 0.79768 0.0
H311 H 0.13621 0.99357 0.82362 0.0
H312 H 0.9561 0.00821 0.70418 0.0
H313 H 0.98247 0.08923 0.74608 0.0
H314 H 0.90582 0.04228 0.69296 0.0
H315 H 0.93201 0.12199 0.73411 0.0
H316 H 0.04255 0.01804 0.70297 0.0
H317 H 0.14617 0.03307 0.72472 0.0
H318 H 0.06384 0.01568 0.66864 0.0
H319 H 0.16571 0.03032 0.68991 0.0
H320 H 0.08243 0.17459 0.71899 0.0
H321 H 0.01371 0.12611 0.67565 0.0
H322 H 0.97952 0.8988 0.70935 0.0
H323 H 0.08994 0.89554 0.70488 0.0
H324 H 0.43553 0.01776 0.0971 0.0
H325 H 0.38818 0.01942 0.12018 0.0
H326 H 0.33401 0.09022 0.08256 0.0
H327 H 0.38102 0.08831 0.05921 0.0
H328 H 0.3309 0.10851 0.1223 0.0
H329 H 0.31196 0.00815 0.08085 0.0
H330 H 0.32767 0.95316 0.06482 0.0
H331 H 0.34445 0.9089 0.122 0.0
H332 H 0.32932 0.96381 0.13838 0.0
H333 H 0.16425 0.0892 0.16093 0.0
H334 H 0.2138 0.09092 0.13943 0.0
H335 H 0.26545 0.01649 0.17583 0.0
H336 H 0.21564 0.01392 0.19705 0.0
H337 H 0.27053 0.00046 0.13706 0.0
H338 H 0.28853 0.1001 0.17868 0.0
H339 H 0.27342 0.15507 0.19493 0.0
H340 H 0.2589 0.20069 0.13795 0.0
H341 H 0.27345 0.14582 0.12134 0.0
C342 C 0.41347 0.03355 0.09367 0.0
C343 C 0.41194 0.0527 0.07624 0.0
C344 C 0.38651 0.03457 0.10691 0.0
C345 C 0.35747 0.05467 0.10295 0.0
C346 C 0.35624 0.07459 0.08588 0.0
C347 C 0.38318 0.07353 0.0726 0.0
C348 C 0.32797 0.05416 0.11635 0.0
C349 C 0.31739 0.08499 0.12536 0.0
C350 C 0.31093 0.0233 0.12065 0.0
C351 C 0.31984 0.99019 0.11083 0.0
C352 C 0.31927 0.98677 0.09 0.0
C353 C 0.32803 0.9556 0.08085 0.0
C354 C 0.33714 0.92758 0.09238 0.0
C355 C 0.33743 0.93064 0.11309 0.0
C356 C 0.32874 0.96177 0.12231 0.0
C357 C 0.18609 0.07307 0.16429 0.0
C358 C 0.18605 0.05145 0.1807 0.0
C359 C 0.21451 0.07433 0.15211 0.0
C360 C 0.24344 0.05409 0.15616 0.0
C361 C 0.24343 0.03241 0.17249 0.0
C362 C 0.21507 0.03118 0.18469 0.0
C363 C 0.27339 0.05483 0.14307 0.0
C364 C 0.28404 0.02401 0.13407 0.0
C365 C 0.29051 0.0857 0.13883 0.0
C366 C 0.28174 0.11874 0.14877 0.0
C367 C 0.28182 0.12177 0.16961 0.0
C368 C 0.27342 0.15292 0.17888 0.0
C369 C 0.26511 0.18133 0.16748 0.0
C370 C 0.26528 0.17865 0.14676 0.0
C371 C 0.27364 0.14753 0.13741 0.0
H372 H 0.25862 0.20543 0.17469 0.0
H373 H 0.34391 0.90347 0.08527 0.0
H374 H 0.99598 0.40978 0.58278 0.0
H375 H 0.99798 0.36364 0.60654 0.0
H376 H 0.10682 0.3533 0.5985 0.0
H377 H 0.10465 0.39794 0.57373 0.0
H378 H 0.07967 0.29307 0.59893 0.0
H379 H 0.07233 0.39264 0.64085 0.0
H380 H 0.04921 0.44773 0.65309 0.0
H381 H 0.95351 0.39913 0.66519 0.0
H382 H 0.9759 0.34381 0.65276 0.0
H383 H 0.10484 0.18903 0.68422 0.0
H384 H 0.10685 0.2387 0.66256 0.0
H385 H 0.99651 0.2388 0.65776 0.0
H386 H 0.99437 0.18906 0.67926 0.0
H387 H 0.02739 0.30511 0.66513 0.0
H388 H 0.03645 0.20565 0.62135 0.0
H389 H 0.06206 0.15116 0.60996 0.0
H390 H 0.1586 0.20153 0.60274 0.0
H391 H 0.13367 0.25626 0.61438 0.0
C392 C 0.02031 0.39748 0.58587 0.0
C393 C 0.05016 0.40767 0.5763 0.0
C394 C 0.0215 0.37139 0.59971 0.0
C395 C 0.05267 0.35535 0.6046 0.0
C396 C 0.0825 0.36541 0.59507 0.0
C397 C 0.08127 0.39123 0.58105 0.0
C398 C 0.05393 0.32739 0.61918 0.0
C399 C 0.06874 0.29599 0.61352 0.0
C400 C 0.03927 0.33091 0.63816 0.0
C401 C 0.02571 0.36412 0.6457 0.0
C402 C 0.04627 0.39374 0.64598 0.0
C403 C 0.03331 0.42501 0.65297 0.0
C404 C -0.00011 0.42694 0.65987 0.0
C405 C 0.97938 0.39759 0.65982 0.0
C406 C 0.99221 0.36627 0.65282 0.0
C407 C 0.08106 0.19986 0.67864 0.0
C408 C 0.04945 0.1852 0.6833 0.0
C409 C 0.08223 0.22807 0.66626 0.0
C410 C 0.05182 0.24222 0.65855 0.0
C411 C 0.02023 0.22818 0.66359 0.0
C412 C 0.01905 0.19971 0.67573 0.0
C413 C 0.05289 0.27109 0.64474 0.0
C414 C 0.03851 0.30252 0.65057 0.0
C415 C 0.06835 0.26779 0.62604 0.0
C416 C 0.0833 0.23495 0.61895 0.0
C417 C 0.06322 0.20504 0.61751 0.0
C418 C 0.07759 0.17413 0.61097 0.0
C419 C 0.11196 0.17286 0.60568 0.0
C420 C 0.132 0.20254 0.60687 0.0
C421 C 0.11776 0.23351 0.61343 0.0
H422 H 0.12304 0.14891 0.60062 0.0
H423 H 0.9899 0.45117 0.66528 0.0
H424 H 0.65104 0.98429 0.08687 0.0
H425 H 0.6932 0.98435 0.11403 0.0
H426 H 0.63874 0.06596 0.14371 0.0
H427 H 0.59569 0.06562 0.11662 0.0
H428 H 0.70677 0.08007 0.14022 0.0
H429 H 0.64017 0.988 0.1637 0.0
H430 H 0.60816 0.93355 0.16151 0.0
H431 H 0.69987 0.87988 0.14575 0.0
H432 H 0.73237 0.93409 0.14755 0.0
H433 H 0.83599 0.07487 0.21666 0.0
H434 H 0.7794 0.07345 0.20014 0.0
H435 H 0.81059 0.98634 0.16437 0.0
H436 H 0.8668 0.98732 0.18107 0.0
H437 H 0.74722 0.97759 0.17614 0.0
H438 H 0.81074 0.06976 0.14696 0.0
H439 H 0.84342 0.12388 0.14769 0.0
H440 H 0.75784 0.17677 0.17291 0.0
H441 H 0.7248 0.12283 0.17255 0.0
C442 C 0.64732 0.00158 0.09942 0.0
C443 C 0.6198 0.02483 0.0996 0.0
C444 C 0.67159 0.00166 0.11493 0.0
C445 C 0.66893 0.02494 0.13098 0.0
C446 C 0.64117 0.04774 0.13147 0.0
C447 C 0.6167 0.04758 0.11596 0.0
C448 C 0.69682 0.02708 0.14625 0.0
C449 C 0.71514 0.0579 0.14846 0.0
C450 C 0.70808 0.99794 0.15666 0.0
C451 C 0.68868 0.96519 0.15566 0.0
C452 C 0.65348 0.96463 0.15963 0.0
C453 C 0.63525 0.9338 0.15848 0.0
C454 C 0.65196 0.90329 0.15347 0.0
C455 C 0.68696 0.90354 0.14963 0.0
C456 C 0.70531 0.93431 0.15075 0.0
C457 C 0.83069 0.05546 0.20526 0.0
C458 C 0.8558 0.0313 0.20006 0.0
C459 C 0.79839 0.05463 0.19586 0.0
C460 C 0.79088 0.03002 0.18085 0.0
C461 C 0.81574 0.00548 0.17595 0.0
C462 C 0.84785 0.00607 0.18548 0.0
C463 C 0.75771 0.0303 0.16966 0.0
C464 C 0.73842 -5e-05 0.16821 0.0
C465 C 0.74567 0.05979 0.15981 0.0
C466 C 0.76547 0.09222 0.15995 0.0
C467 C 0.79899 0.09289 0.1528 0.0
C468 C 0.81756 0.12353 0.15312 0.0
C469 C 0.80276 0.15372 0.1604 0.0
C470 C 0.7693 0.15335 0.16731 0.0
C471 C 0.75064 0.12276 0.16705 0.0
H472 H 0.81717 0.17742 0.16064 0.0
H473 H 0.63779 0.87944 0.15259 0.0
H474 H 0.07679 0.60335 0.61524 0.0
H475 H 0.07206 0.6503 0.63974 0.0
H476 H 0.97541 0.67985 0.61294 0.0
H477 H 0.98034 0.63368 0.5882 0.0
H478 H 0.02139 0.73183 0.61484 0.0
H479 H 0.97855 0.64812 0.65914 0.0
H480 H 0.9795 0.59404 0.67736 0.0
H481 H 0.07322 0.62459 0.70736 0.0
H482 H 0.0731 0.67867 0.68911 0.0
H483 H 0.9854 0.8706 0.6784 0.0
H484 H 0.98142 0.81528 0.6611 0.0
H485 H 0.07391 0.78218 0.69124 0.0
H486 H 0.07696 0.83683 0.70962 0.0
H487 H 0.02922 0.73091 0.68842 0.0
H488 H 0.07495 0.81172 0.64355 0.0
H489 H 0.0769 0.86533 0.62494 0.0
H490 H 0.9815 0.83933 0.59533 0.0
H491 H 0.97874 0.78577 0.61398 0.0
C492 C 0.05424 0.61949 0.61483 0.0
C493 C 0.029 0.61489 0.59977 0.0
C494 C 0.05145 0.64613 0.62891 0.0
C495 C 0.02337 0.66852 0.62813 0.0
C496 C 0.99725 0.66279 0.6138 0.0
C497 C -3e-05 0.63618 0.59978 0.0
C498 C 0.02314 0.70019 0.64063 0.0
C499 C 0.02245 0.73162 0.63095 0.0
C500 C 0.02589 0.69981 0.66158 0.0
C501 C 0.02597 0.66733 0.67261 0.0
C502 C -0.00048 0.64319 0.66949 0.0
C503 C -0.00012 0.61255 0.67986 0.0
C504 C 0.02645 0.60584 0.69347 0.0
C505 C 0.05267 0.6298 0.69679 0.0
C506 C 0.05245 0.66047 0.68646 0.0
C507 C 0.0046 0.85141 0.68168 0.0
C508 C 0.03165 0.85835 0.69534 0.0
C509 C 0.00247 0.81987 0.67159 0.0
C510 C 0.02772 0.79482 0.6746 0.0
C511 C 0.05426 0.80122 0.6886 0.0
C512 C 0.05619 0.83267 0.6989 0.0
C513 C 0.02704 0.76252 0.6626 0.0
C514 C 0.02786 0.73106 0.67232 0.0
C515 C 0.02483 0.76274 0.6416 0.0
C516 C 0.02647 0.79491 0.63032 0.0
C517 C 0.05425 0.81756 0.63319 0.0
C518 C 0.05553 0.84792 0.62261 0.0
C519 C 0.0293 0.85578 0.609 0.0
C520 C 0.00178 0.83324 0.6059 0.0
C521 C 0.00035 0.80287 0.61646 0.0
H522 H 0.03033 0.87929 0.60082 0.0
H523 H 0.02668 0.58211 0.70148 0.0
H524 H 0.34469 0.04512 0.97443 0.0
H525 H 0.29872 0.04506 0.94898 0.0
H526 H 0.36892 0.08532 0.90679 0.0
H527 H 0.41457 0.08595 0.93218 0.0
H528 H 0.30859 0.11501 0.90246 0.0
H529 H 0.34955 -0.00062 0.90797 0.0
H530 H 0.36407 0.9463 0.92546 0.0
H531 H 0.25935 0.93556 0.94239 0.0
H532 H 0.24431 0.98888 0.92523 0.0
H533 H 0.22413 0.06305 0.8118 0.0
H534 H 0.26489 0.07044 0.83972 0.0
H535 H 0.18809 0.03696 0.87998 0.0
H536 H 0.14707 0.03002 0.85226 0.0
H537 H 0.2494 0.00506 0.88625 0.0
H538 H 0.20864 0.12021 0.87838 0.0
H539 H 0.19558 0.17262 0.85991 0.0
H540 H 0.30178 0.1833 0.84611 0.0
H541 H 0.31542 0.13065 0.86427 0.0
C542 C 0.35011 0.05423 0.95977 0.0
C543 C 0.38308 0.06565 0.95528 0.0
C544 C 0.32393 0.05411 0.94524 0.0
C545 C 0.33053 0.06477 0.92591 0.0
C546 C 0.36321 0.07711 0.92161 0.0
C547 C 0.38924 0.07754 0.93615 0.0
C548 C 0.30394 0.06182 0.90988 0.0
C549 C 0.29585 0.0909 0.89881 0.0
C550 C 0.28694 0.03049 0.9053 0.0
C551 C 0.29588 0.9983 0.9155 0.0
C552 C 0.32967 0.98583 0.91555 0.0
C553 C 0.33799 0.95568 0.92538 0.0
C554 C 0.31266 0.93762 0.93507 0.0
C555 C 0.27895 0.94961 0.9349 0.0
C556 C 0.27051 0.97978 0.92512 0.0
C557 C 0.2158 0.05763 0.82662 0.0
C558 C 0.18239 0.04583 0.82978 0.0
C559 C 0.23913 0.06181 0.84255 0.0
C560 C 0.2294 0.05443 0.86192 0.0
C561 C 0.19611 0.04268 0.86513 0.0
C562 C 0.17278 0.03856 0.84925 0.0
C563 C 0.25417 0.05819 0.87881 0.0
C564 C 0.26196 0.02922 0.89001 0.0
C565 C 0.27111 0.08953 0.88337 0.0
C566 C 0.26299 0.12131 0.87254 0.0
C567 C 0.22917 0.13358 0.87128 0.0
C568 C 0.22167 0.16336 0.86089 0.0
C569 C 0.24782 0.18123 0.8518 0.0
C570 C 0.28155 0.16941 0.85314 0.0
C571 C 0.28918 0.13962 0.86349 0.0
H572 H 0.24196 0.20428 0.84376 0.0
H573 H 0.31915 0.91428 0.94268 0.0
H574 H 0.00707 0.35113 0.46634 0.0
H575 H 0.00763 0.30558 0.44077 0.0
H576 H 0.09985 0.34806 0.41725 0.0
H577 H 0.09906 0.39399 0.4425 0.0
H578 H 0.05042 0.33723 0.38872 0.0
H579 H 0.10288 0.27366 0.44142 0.0
H580 H 0.10782 0.25035 0.47507 0.0
H581 H 0.01363 0.19505 0.46529 0.0
H582 H 0.00786 0.21843 0.43166 0.0
H583 H 0.08381 0.20338 0.31898 0.0
H584 H 0.08797 0.24488 0.34666 0.0
H585 H 0.99802 0.20108 0.37212 0.0
H586 H 0.99368 0.15953 0.34447 0.0
H587 H 0.04739 0.21212 0.39997 0.0
H588 H 0.99335 0.27639 0.34823 0.0
H589 H 0.98662 0.30017 0.31477 0.0
H590 H 0.08158 0.35475 0.32296 0.0
H591 H 0.08913 0.33089 0.35639 0.0
C592 C 0.02766 0.35048 0.45585 0.0
C593 C 0.05305 0.37604 0.45642 0.0
C594 C 0.02807 0.32437 0.44134 0.0
C595 C 0.05386 0.32342 0.42718 0.0
C596 C 0.07977 0.34834 0.42808 0.0
C597 C 0.07947 0.37434 0.44262 0.0
C598 C 0.05252 0.29787 0.41062 0.0
C599 C 0.05035 0.30985 0.39115 0.0
C600 C 0.05133 0.26223 0.41388 0.0
C601 C 0.05478 0.24806 0.43408 0.0
C602 C 0.08307 0.25676 0.4465 0.0
C603 C 0.08605 0.24349 0.46556 0.0
C604 C 0.06101 0.2213 0.47233 0.0
C605 C 0.03298 0.21227 0.46003 0.0
C606 C 0.02986 0.2255 0.44096 0.0
C607 C 0.0647 0.20285 0.33036 0.0
C608 C 0.03835 0.17828 0.32952 0.0
C609 C 0.06716 0.22649 0.34619 0.0
C610 C 0.04314 0.22621 0.36136 0.0
C611 C 0.01689 0.20165 0.3606 0.0
C612 C 0.01446 0.17793 0.34481 0.0
C613 C 0.04544 0.2515 0.37806 0.0
C614 C 0.04765 0.2395 0.39754 0.0
C615 C 0.04645 0.28717 0.37483 0.0
C616 C 0.04198 0.30156 0.35473 0.0
C617 C 0.01295 0.29322 0.34283 0.0
C618 C 0.00895 0.30676 0.32389 0.0
C619 C 0.0337 0.32887 0.31672 0.0
C620 C 0.06246 0.33757 0.32852 0.0
C621 C 0.0666 0.32407 0.34747 0.0
H622 H 0.03056 0.33934 0.30205 0.0
H623 H 0.06337 0.21105 0.4871 0.0
H624 H 0.69516 0.97721 0.94126 0.0
H625 H 0.74009 0.97423 0.91644 0.0
H626 H 0.69605 0.06157 0.88721 0.0
H627 H 0.65119 0.06477 0.91203 0.0
H628 H 0.71589 0.00615 0.861 0.0
H629 H 0.76068 0.07605 0.91579 0.0
H630 H 0.77564 0.08821 0.951 0.0
H631 H 0.84346 0.00167 0.95151 0.0
H632 H 0.82848 0.98868 0.91635 0.0
H633 H 0.85308 0.06166 0.80282 0.0
H634 H 0.80597 0.05713 0.82588 0.0
H635 H 0.86291 0.98179 0.85896 0.0
H636 H 0.91017 0.98635 0.83601 0.0
H637 H 0.83615 0.02777 0.88334 0.0
H638 H 0.79476 0.95861 0.82872 0.0
H639 H 0.7797 0.94425 0.79378 0.0
H640 H 0.70578 0.02562 0.79292 0.0
H641 H 0.72075 0.04081 0.82779 0.0
C642 C 0.69493 0.99551 0.92941 0.0
C643 C 0.66993 0.02132 0.92855 0.0
C644 C 0.72058 0.99386 0.91532 0.0
C645 C 0.72135 0.01779 0.90011 0.0
C646 C 0.69579 0.0429 0.89886 0.0
C647 C 0.67041 0.04484 0.91308 0.0
C648 C 0.74967 0.0176 0.88597 0.0
C649 C 0.74218 0.01119 0.86578 0.0
C650 C 0.78395 0.02326 0.89242 0.0
C651 C 0.79316 0.03117 0.91351 0.0
C652 C 0.77855 0.05943 0.92346 0.0
C653 C 0.78707 0.06651 0.9434 0.0
C654 C 0.81041 0.04566 0.95351 0.0
C655 C 0.82534 0.01776 0.94368 0.0
C656 C 0.81686 0.01054 0.92374 0.0
C657 C 0.8554 0.0439 0.8149 0.0
C658 C 0.8853 0.02439 0.81763 0.0
C659 C 0.82847 0.0413 0.82805 0.0
C660 C 0.83079 0.01883 0.84401 0.0
C661 C 0.86061 -0.00068 0.84676 0.0
C662 C 0.88762 0.00204 0.83368 0.0
C663 C 0.80251 0.01649 0.8582 0.0
C664 C 0.80997 0.02248 0.87846 0.0
C665 C 0.76824 0.01011 0.85181 0.0
C666 C 0.75912 0.00106 0.83082 0.0
C667 C 0.77549 0.97364 0.82103 0.0
C668 C 0.76693 0.96531 0.80125 0.0
C669 C 0.74186 0.98406 0.79112 0.0
C670 C 0.72523 0.01114 0.80078 0.0
C671 C 0.73372 0.0196 0.82056 0.0
H672 H 0.73526 0.97757 0.7758 0.0
H673 H 0.81699 0.05119 0.96895 0.0
H674 H 0.01252 0.64377 0.4098 0.0
H675 H 0.01405 0.6877 0.38433 0.0
H676 H 0.08403 0.74782 0.42135 0.0
H677 H 0.08286 0.70384 0.44676 0.0
H678 H 0.02576 0.78437 0.40496 0.0
H679 H 0.11628 0.70745 0.38489 0.0
H680 H 0.14011 0.65101 0.37563 0.0
H681 H 0.06835 0.64245 0.32648 0.0
H682 H 0.04373 0.69866 0.33563 0.0
H683 H 0.07416 0.9104 0.33897 0.0
H684 H 0.07601 0.86362 0.3625 0.0
H685 H 0.0272 0.79647 0.31856 0.0
H686 H 0.02675 0.84305 0.29468 0.0
H687 H 0.0731 0.76208 0.33819 0.0
H688 H 0.98183 0.83641 0.35678 0.0
H689 H 0.95416 0.89128 0.36555 0.0
H690 H 0.02116 0.90285 0.41672 0.0
H691 H 0.04958 0.84827 0.4081 0.0
C692 C 0.02814 0.66642 0.41247 0.0
C693 C 0.0476 0.67053 0.43017 0.0
C694 C 0.02913 0.69132 0.39793 0.0
C695 C 0.04927 0.72081 0.401 0.0
C696 C 0.06841 0.72515 0.41875 0.0
C697 C 0.06784 0.70003 0.43317 0.0
C698 C 0.05008 0.74743 0.38578 0.0
C699 C 0.03649 0.77974 0.39043 0.0
C700 C 0.06298 0.74077 0.36666 0.0
C701 C 0.07793 0.70709 0.36107 0.0
C702 C 0.10537 0.6934 0.37221 0.0
C703 C 0.11907 0.66147 0.36696 0.0
C704 C 0.10569 0.64311 0.35051 0.0
C705 C 0.07865 0.65668 0.33924 0.0
C706 C 0.06484 0.68858 0.34444 0.0
C707 C 0.06408 0.88554 0.33434 0.0
C708 C 0.05006 0.88023 0.31515 0.0
C709 C 0.06496 0.8589 0.34779 0.0
C710 C 0.05094 0.82675 0.34247 0.0
C711 C 0.038 0.82109 0.32303 0.0
C712 C 0.03772 0.84763 0.30943 0.0
C713 C 0.04907 0.79942 0.35737 0.0
C714 C 0.06232 0.76687 0.35268 0.0
C715 C 0.03523 0.80565 0.37637 0.0
C716 C 0.01804 0.83839 0.38169 0.0
C717 C 0.99082 0.85077 0.36983 0.0
C718 C 0.97498 0.8818 0.37478 0.0
C719 C 0.98595 0.90058 0.39166 0.0
C720 C 0.01272 0.8883 0.40364 0.0
C721 C 0.02868 0.8573 0.39874 0.0
H722 H 0.97366 0.9246 0.39546 0.0
H723 H 0.11633 0.61839 0.34647 0.0
loop_
_geom_bond_atom_site_label_1
_geom_bond_atom_site_label_2
_geom_bond_distance
_geom_bond_site_symmetry_2
_ccdc_geom_bond_type
H0 O26 0.856 . S
H1 O29 0.854 . S
H2 C37 0.930 . S
H3 C38 0.930 . S
H4 C40 0.930 1_565 S
H5 C41 0.930 1_565 S
H6 C43 0.931 . S
H7 C44 0.930 . S
H8 C46 0.944 . S
H9 C47 0.929 1_565 S
H10 C49 0.930 . S
H11 C50 0.931 . S
H12 C52 0.930 . S
H13 C53 0.929 . S
H14 C55 0.931 . S
H15 C56 0.930 . S
H16 C58 0.930 1_565 S
H17 C59 0.932 1_566 S
H18 C61 0.930 . S
H19 C62 0.929 . S
H20 C64 0.931 . S
H21 C65 0.930 1_565 S
H22 C67 0.929 . S
H23 C68 0.931 . S
H24 C70 0.930 1_565 S
H25 C71 0.929 1_565 S
O26 H0 0.856 . S
O26 C72 1.300 . S
O27 C72 1.209 1_565 S
O28 C73 1.199 . S
O29 H1 0.854 . S
O29 C73 1.297 . S
C30 C31 1.404 . S
C30 C35 1.397 1_556 S
C30 C36 1.492 . S
C31 C30 1.404 . S
C31 C32 1.396 . S
C31 C42 1.492 . S
C32 C31 1.396 . S
C32 C33 1.389 1_556 S
C32 C48 1.509 . S
C33 C32 1.389 1_554 S
C33 C34 1.418 . S
C33 C54 1.487 . S
C34 C33 1.418 . S
C34 C35 1.388 . S
C34 C60 1.490 . S
C35 C30 1.397 1_554 S
C35 C34 1.388 . S
C35 C66 1.519 . S
C36 C30 1.492 . S
C36 C37 1.363 . S
C36 C41 1.390 . S
C37 H2 0.930 . S
C37 C36 1.363 . S
C37 C38 1.372 . S
C38 H3 0.930 . S
C38 C37 1.372 . S
C38 C39 1.383 . S
C39 C38 1.383 . S
C39 C40 1.395 . S
C40 H4 0.930 1_545 S
C40 C39 1.395 . S
C40 C41 1.362 . S
C41 H5 0.930 1_545 S
C41 C36 1.390 . S
C41 C40 1.362 . S
C42 C31 1.492 . S
C42 C43 1.377 . S
C42 C47 1.397 . S
C43 H6 0.931 . S
C43 C42 1.377 . S
C43 C44 1.376 . S
C44 H7 0.930 . S
C44 C43 1.376 . S
C44 C45 1.376 . S
C45 C44 1.376 . S
C45 C46 1.365 1_545 S
C45 C72 1.486 . S
C46 H8 0.944 . S
C46 C45 1.365 1_565 S
C46 C47 1.375 1_565 S
C47 H9 0.929 1_545 S
C47 C42 1.397 . S
C47 C46 1.375 1_545 S
C48 C32 1.509 . S
C48 C49 1.391 . S
C48 C53 1.386 1_545 S
C49 H10 0.930 . S
C49 C48 1.391 . S
C49 C50 1.375 . S
C50 H11 0.931 . S
C50 C49 1.375 . S
C50 C51 1.375 . S
C51 C50 1.375 . S
C51 C52 1.361 1_545 S
C52 H12 0.930 . S
C52 C51 1.361 1_565 S
C52 C53 1.399 . S
C53 H13 0.929 . S
C53 C48 1.386 1_565 S
C53 C52 1.399 . S
C54 C33 1.487 . S
C54 C55 1.394 . S
C54 C59 1.360 . S
C55 H14 0.931 . S
C55 C54 1.394 . S
C55 C56 1.372 . S
C56 H15 0.930 . S
C56 C55 1.372 . S
C56 C57 1.397 . S
C57 C56 1.397 . S
C57 C58 1.390 . S
C57 C73 1.476 . S
C58 H16 0.930 1_545 S
C58 C57 1.390 . S
C58 C59 1.366 . S
C59 H17 0.932 1_544 S
C59 C54 1.360 . S
C59 C58 1.366 . S
C60 C34 1.490 . S
C60 C61 1.380 . S
C60 C65 1.386 . S
C61 H18 0.930 . S
C61 C60 1.380 . S
C61 C62 1.381 . S
C62 H19 0.929 . S
C62 C61 1.381 . S
C62 C63 1.371 . S
C63 C62 1.371 . S
C63 C64 1.380 . S
C64 H20 0.931 . S
C64 C63 1.380 . S
C64 C65 1.387 . S
C65 H21 0.930 1_545 S
C65 C60 1.386 . S
C65 C64 1.387 . S
C66 C35 1.519 . S
C66 C67 1.377 . S
C66 C71 1.361 . S
C67 H22 0.929 . S
C67 C66 1.377 . S
C67 C68 1.386 . S
C68 H23 0.931 . S
C68 C67 1.386 . S
C68 C69 1.363 . S
C69 C68 1.363 . S
C69 C70 1.385 . S
C70 H24 0.930 1_545 S
C70 C69 1.385 . S
C70 C71 1.396 . S
C71 H25 0.929 1_545 S
C71 C66 1.361 . S
C71 C70 1.396 . S
C72 O26 1.300 . S
C72 O27 1.209 1_545 S
C72 C45 1.486 . S
C73 O28 1.199 . S
C73 O29 1.297 . S
C73 C57 1.476 . S
H74 O100 0.856 . S
H75 O103 0.854 . S
H76 C111 0.930 1_655 S
H77 C112 0.936 . S
H78 C114 0.930 . S
H79 C115 0.930 . S
H80 C117 0.908 1_655 S
H81 C118 0.927 1_655 S
H82 C120 0.930 . S
H83 C121 0.929 . S
H84 C123 0.930 1_655 S
H85 C124 0.931 . S
H86 C126 0.930 . S
H87 C127 0.929 . S
H88 C129 0.931 1_655 S
H89 C130 0.930 . S
H90 C132 0.930 . S
H91 C133 0.932 . S
H92 C135 0.930 1_655 S
H93 C136 0.929 1_655 S
H94 C138 0.931 . S
H95 C139 0.930 . S
H96 C141 0.929 1_655 S
H97 C142 0.940 . S
H98 C144 0.930 . S
H99 C145 0.929 . S
O100 H74 0.856 . S
O100 C146 1.300 . S
O101 C146 1.209 . S
O102 C147 1.199 . S
O103 H75 0.854 . S
O103 C147 1.297 . S
C104 C105 1.404 . S
C104 C109 1.397 . S
C104 C110 1.492 . S
C105 C104 1.404 . S
C105 C106 1.396 . S
C105 C116 1.492 . S
C106 C105 1.396 . S
C106 C107 1.397 . S
C106 C122 1.509 . S
C107 C106 1.397 . S
C107 C108 1.412 . S
C107 C128 1.485 . S
C108 C107 1.412 . S
C108 C109 1.388 . S
C108 C134 1.490 . S
C109 C104 1.397 . S
C109 C108 1.388 . S
C109 C140 1.519 . S
C110 C104 1.492 . S
C110 C111 1.363 . S
C110 C115 1.390 . S
C111 H76 0.930 1_455 S
C111 C110 1.363 . S
C111 C112 1.371 1_455 S
C112 H77 0.936 . S
C112 C111 1.371 1_655 S
C112 C113 1.378 1_655 S
C113 C112 1.378 1_455 S
C113 C114 1.395 . S
C114 H78 0.930 . S
C114 C113 1.395 . S
C114 C115 1.362 . S
C115 H79 0.930 . S
C115 C110 1.390 . S
C115 C114 1.362 . S
C116 C105 1.492 . S
C116 C117 1.377 . S
C116 C121 1.397 . S
C117 H80 0.908 1_455 S
C117 C116 1.377 . S
C117 C118 1.376 . S
C118 H81 0.927 1_455 S
C118 C117 1.376 . S
C118 C119 1.376 . S
C119 C118 1.376 . S
C119 C120 1.378 . S
C119 C146 1.486 . S
C120 H82 0.930 . S
C120 C119 1.378 . S
C120 C121 1.376 . S
C121 H83 0.929 . S
C121 C116 1.397 . S
C121 C120 1.376 . S
C122 C106 1.509 . S
C122 C123 1.391 . S
C122 C127 1.386 . S
C123 H84 0.930 1_455 S
C123 C122 1.391 . S
C123 C124 1.375 . S
C124 H85 0.931 . S
C124 C123 1.375 . S
C124 C125 1.375 . S
C125 C124 1.375 . S
C125 C126 1.361 . S
C126 H86 0.930 . S
C126 C125 1.361 . S
C126 C127 1.399 . S
C127 H87 0.929 . S
C127 C122 1.386 . S
C127 C126 1.399 . S
C128 C107 1.485 . S
C128 C129 1.394 . S
C128 C133 1.360 . S
C129 H88 0.931 1_455 S
C129 C128 1.394 . S
C129 C130 1.372 . S
C130 H89 0.930 . S
C130 C129 1.372 . S
C130 C131 1.397 . S
C131 C130 1.397 . S
C131 C132 1.390 . S
C131 C147 1.476 . S
C132 H90 0.930 . S
C132 C131 1.390 . S
C132 C133 1.366 . S
C133 H91 0.932 . S
C133 C128 1.360 . S
C133 C132 1.366 . S
C134 C108 1.490 . S
C134 C135 1.380 . S
C134 C139 1.386 . S
C135 H92 0.930 1_455 S
C135 C134 1.380 . S
C135 C136 1.381 . S
C136 H93 0.929 1_455 S
C136 C135 1.381 . S
C136 C137 1.371 . S
C137 C136 1.371 . S
C137 C138 1.380 . S
C138 H94 0.931 . S
C138 C137 1.380 . S
C138 C139 1.387 . S
C139 H95 0.930 . S
C139 C134 1.386 . S
C139 C138 1.387 . S
C140 C109 1.519 . S
C140 C141 1.377 . S
C140 C145 1.361 . S
C141 H96 0.929 1_455 S
C141 C140 1.377 . S
C141 C142 1.386 . S
C142 H97 0.940 . S
C142 C141 1.386 . S
C142 C143 1.363 . S
C143 C142 1.363 . S
C143 C144 1.385 . S
C144 H98 0.930 . S
C144 C143 1.385 . S
C144 C145 1.396 . S
C145 H99 0.929 . S
C145 C140 1.361 . S
C145 C144 1.396 . S
C146 O100 1.300 . S
C146 O101 1.209 . S
C146 C119 1.486 . S
C147 O102 1.199 . S
C147 O103 1.297 . S
C147 C131 1.476 . S
Li148 N165 1.990 . S
Li148 O208 1.956 . S
Li148 O209 1.970 1_455 S
Li148 O210 1.961 . S
Li149 N173 1.990 1_545 S
Li149 O208 1.970 . S
Li149 O209 1.956 1_455 S
Li149 O211 1.961 . S
Li150 N195 1.990 . S
Li150 O208 1.961 . S
Li150 O210 1.956 . S
Li150 O211 1.975 . S
Li151 N201 1.990 . S
Li151 O209 1.961 . S
Li151 O210 1.970 1_655 S
Li151 O211 1.961 1_655 S
C152 C154 1.348 . S
C152 C155 1.356 . S
C152 O208 1.325 . S
N153 C156 1.314 . S
N153 C157 1.279 . S
C154 C152 1.348 . S
C154 C156 1.353 . S
C154 H212 0.929 . S
C155 C152 1.356 . S
C155 C157 1.358 . S
C155 H213 0.930 . S
C156 N153 1.314 . S
C156 C154 1.353 . S
C156 H214 0.930 . S
C157 N153 1.279 . S
C157 C155 1.358 . S
C157 H215 0.930 . S
C158 C161 1.348 . S
C158 C162 1.356 . S
C158 O209 1.325 . S
C159 N160 1.279 . S
C159 C162 1.358 . S
C159 H216 0.942 . S
N160 C159 1.279 . S
N160 C163 1.314 . S
C161 C158 1.348 . S
C161 C163 1.353 . S
C161 H217 0.929 . S
C162 C158 1.356 . S
C162 C159 1.358 . S
C162 H218 0.935 . S
C163 N160 1.314 . S
C163 C161 1.353 . S
C163 H219 0.930 . S
C164 N165 1.314 . S
C164 C169 1.353 . S
C164 H170 0.930 1_455 S
N165 Li148 1.990 . S
N165 C164 1.314 . S
N165 C167 1.279 . S
C166 C167 1.358 . S
C166 C168 1.356 . S
C166 H220 0.930 . S
C167 N165 1.279 . S
C167 C166 1.358 . S
C167 H171 0.930 . S
C168 C166 1.356 . S
C168 C169 1.348 . S
C169 C164 1.353 . S
C169 C168 1.348 . S
C169 H221 0.929 1_455 S
H170 C164 0.930 1_655 S
H171 C167 0.930 . S
C172 N173 1.314 . S
C172 C174 1.353 . S
C172 H178 0.930 . S
N173 Li149 1.990 1_565 S
N173 C172 1.314 . S
N173 C176 1.262 1_455 S
C174 C172 1.353 . S
C174 C177 1.348 . S
C174 H222 0.929 . S
C175 C176 1.359 . S
C175 C177 1.349 1_655 S
C175 H223 0.937 . S
C176 N173 1.262 1_655 S
C176 C175 1.359 . S
C176 H179 0.950 . S
C177 C174 1.348 . S
C177 C175 1.349 1_455 S
H178 C172 0.930 . S
H179 C176 0.950 . S
C180 C182 1.364 . S
C180 C183 1.356 . S
C180 O210 1.325 . S
N181 C184 1.314 . S
N181 C185 1.279 . S
C182 C180 1.364 . S
C182 C184 1.356 . S
C182 H224 0.912 1_455 S
C183 C180 1.356 . S
C183 C185 1.358 . S
C183 H225 0.930 . S
C184 N181 1.314 . S
C184 C182 1.356 . S
C184 H226 0.930 1_455 S
C185 N181 1.279 . S
C185 C183 1.358 . S
C185 H227 0.930 . S
C186 C187 1.348 . S
C186 C188 1.356 1_455 S
C186 O211 1.320 1_565 S
C187 C186 1.348 . S
C187 C189 1.353 . S
C187 H228 0.929 . S
C188 C186 1.356 1_655 S
C188 C190 1.358 . S
C188 H229 0.930 . S
C189 C187 1.353 . S
C189 N191 1.314 . S
C189 H230 0.930 . S
C190 C188 1.358 . S
C190 N191 1.279 1_655 S
C190 H231 0.930 . S
N191 C189 1.314 . S
N191 C190 1.279 1_455 S
C192 C194 1.353 . S
C192 N195 1.314 . S
C192 H198 0.930 . S
C193 N195 1.279 . S
C193 C196 1.358 . S
C193 H199 0.930 . S
C194 C192 1.353 . S
C194 C197 1.348 . S
C194 H232 0.929 . S
N195 Li150 1.990 . S
N195 C192 1.314 . S
N195 C193 1.279 . S
C196 C193 1.358 . S
C196 C197 1.356 . S
C196 H233 0.930 . S
C197 C194 1.348 . S
C197 C196 1.356 . S
H198 C192 0.930 . S
H199 C193 0.930 . S
C200 N201 1.314 . S
C200 C202 1.353 . S
C200 H206 0.930 . S
N201 Li151 1.990 . S
N201 C200 1.314 . S
N201 C204 1.279 . S
C202 C200 1.353 . S
C202 C205 1.348 . S
C202 H234 0.929 . S
C203 C204 1.358 . S
C203 C205 1.356 . S
C203 H235 0.923 1_545 S
C204 N201 1.279 . S
C204 C203 1.358 . S
C204 H207 0.930 1_545 S
C205 C202 1.348 . S
C205 C203 1.356 . S
H206 C200 0.930 . S
H207 C204 0.930 1_565 S
O208 Li148 1.956 . S
O208 Li149 1.970 . S
O208 Li150 1.961 . S
O208 C152 1.325 . S
O209 Li148 1.970 1_655 S
O209 Li149 1.956 1_655 S
O209 Li151 1.961 . S
O209 C158 1.325 . S
O210 Li148 1.961 . S
O210 Li150 1.956 . S
O210 Li151 1.970 1_455 S
O210 C180 1.325 . S
O211 Li149 1.961 . S
O211 Li150 1.975 . S
O211 Li151 1.961 1_455 S
O211 C186 1.320 1_545 S
H212 C154 0.929 . S
H213 C155 0.930 . S
H214 C156 0.930 . S
H215 C157 0.930 . S
H216 C159 0.942 . S
H217 C161 0.929 . S
H218 C162 0.935 . S
H219 C163 0.930 . S
H220 C166 0.930 . S
H221 C169 0.929 1_655 S
H222 C174 0.929 . S
H223 C175 0.937 . S
H224 C182 0.912 1_655 S
H225 C183 0.930 . S
H226 C184 0.930 1_655 S
H227 C185 0.930 . S
H228 C187 0.929 . S
H229 C188 0.930 . S
H230 C189 0.930 . S
H231 C190 0.930 . S
H232 C194 0.929 . S
H233 C196 0.930 . S
H234 C202 0.929 . S
H235 C203 0.923 1_565 S
Li236 N253 1.990 1_455 S
Li236 O296 1.956 . S
Li236 O297 1.970 1_545 S
Li236 O298 1.961 . S
Li237 N261 1.990 . S
Li237 O296 1.970 . S
Li237 O297 1.956 1_545 S
Li237 O299 1.961 . S
Li238 N283 1.990 . S
Li238 O296 1.961 . S
Li238 O298 1.956 . S
Li238 O299 1.970 . S
Li239 N289 1.990 . S
Li239 O297 1.961 . S
Li239 O298 1.970 1_565 S
Li239 O299 1.956 1_565 S
C240 C242 1.348 . S
C240 C243 1.356 . S
C240 O296 1.325 . S
N241 C244 1.314 . S
N241 C245 1.279 . S
C242 C240 1.348 . S
C242 C244 1.353 . S
C242 H300 0.929 . S
C243 C240 1.356 . S
C243 C245 1.358 . S
C243 H301 0.930 . S
C244 N241 1.314 . S
C244 C242 1.353 . S
C244 H302 0.930 . S
C245 N241 1.279 . S
C245 C243 1.358 . S
C245 H303 0.930 . S
C246 C249 1.348 . S
C246 C250 1.356 . S
C246 O297 1.325 . S
C247 N248 1.279 . S
C247 C250 1.358 . S
C247 H304 0.930 . S
N248 C247 1.279 . S
N248 C251 1.314 . S
C249 C246 1.348 . S
C249 C251 1.353 . S
C249 H305 0.929 . S
C250 C246 1.356 . S
C250 C247 1.358 . S
C250 H306 0.930 . S
C251 N248 1.314 . S
C251 C249 1.353 . S
C251 H307 0.930 . S
C252 N253 1.314 . S
C252 C257 1.353 . S
C252 H258 0.930 1_545 S
N253 Li236 1.990 1_655 S
N253 C252 1.314 . S
N253 C255 1.279 . S
C254 C255 1.358 . S
C254 C256 1.356 . S
C254 H308 0.930 . S
C255 N253 1.279 . S
C255 C254 1.358 . S
C255 H259 0.930 . S
C256 C254 1.356 . S
C256 C257 1.348 . S
C257 C252 1.353 . S
C257 C256 1.348 . S
C257 H309 0.929 1_545 S
H258 C252 0.930 1_565 S
H259 C255 0.930 . S
C260 N261 1.314 . S
C260 C262 1.353 . S
C260 H266 0.930 . S
N261 Li237 1.990 . S
N261 C260 1.314 . S
N261 C264 1.279 1_545 S
C262 C260 1.353 . S
C262 C265 1.348 . S
C262 H310 0.929 . S
C263 C264 1.359 . S
C263 C265 1.335 1_565 S
C263 H311 0.951 . S
C264 N261 1.279 1_565 S
C264 C263 1.359 . S
C264 H267 0.930 . S
C265 C262 1.348 . S
C265 C263 1.335 1_545 S
H266 C260 0.930 . S
H267 C264 0.930 . S
C268 C270 1.348 . S
C268 C271 1.356 . S
C268 O298 1.325 1_655 S
N269 C272 1.314 . S
N269 C273 1.279 . S
C270 C268 1.348 . S
C270 C272 1.353 . S
C270 H312 0.929 1_545 S
C271 C268 1.356 . S
C271 C273 1.358 . S
C271 H313 0.930 . S
C272 N269 1.314 . S
C272 C270 1.353 . S
C272 H314 0.930 1_545 S
C273 N269 1.279 . S
C273 C271 1.358 . S
C273 H315 0.930 . S
C274 C275 1.348 . S
C274 C276 1.356 1_545 S
C274 O299 1.325 . S
C275 C274 1.348 . S
C275 C277 1.353 . S
C275 H316 0.929 . S
C276 C274 1.356 1_565 S
C276 C278 1.358 . S
C276 H317 0.930 . S
C277 C275 1.353 . S
C277 N279 1.314 . S
C277 H318 0.930 . S
C278 C276 1.358 . S
C278 N279 1.279 1_565 S
C278 H319 0.930 . S
N279 C277 1.314 . S
N279 C278 1.279 1_545 S
C280 C282 1.353 . S
C280 N283 1.314 . S
C280 H286 0.930 . S
C281 N283 1.279 . S
C281 C284 1.358 . S
C281 H287 0.930 . S
C282 C280 1.353 . S
C282 C285 1.348 . S
C282 H320 0.929 . S
N283 Li238 1.990 . S
N283 C280 1.314 . S
N283 C281 1.279 . S
C284 C281 1.358 . S
C284 C285 1.356 . S
C284 H321 0.949 . S
C285 C282 1.348 . S
C285 C284 1.356 . S
H286 C280 0.930 . S
H287 C281 0.930 . S
C288 N289 1.314 . S
C288 C290 1.353 . S
C288 H294 0.930 . S
N289 Li239 1.990 . S
N289 C288 1.314 . S
N289 C292 1.279 . S
C290 C288 1.353 . S
C290 C293 1.348 . S
C290 H322 0.929 . S
C291 C292 1.358 . S
C291 C293 1.356 . S
C291 H323 0.930 . S
C292 N289 1.279 . S
C292 C291 1.358 . S
C292 H295 0.930 . S
C293 C290 1.348 . S
C293 C291 1.356 . S
H294 C288 0.930 . S
H295 C292 0.930 . S
O296 Li236 1.956 . S
O296 Li237 1.970 . S
O296 Li238 1.961 . S
O296 C240 1.325 . S
O297 Li236 1.970 1_565 S
O297 Li237 1.956 1_565 S
O297 Li239 1.961 . S
O297 C246 1.325 . S
O298 Li236 1.961 . S
O298 Li238 1.956 . S
O298 Li239 1.970 1_545 S
O298 C268 1.325 1_455 S
O299 Li237 1.961 . S
O299 Li238 1.970 . S
O299 Li239 1.956 1_545 S
O299 C274 1.325 . S
H300 C242 0.929 . S
H301 C243 0.930 . S
H302 C244 0.930 . S
H303 C245 0.930 . S
H304 C247 0.930 . S
H305 C249 0.929 . S
H306 C250 0.930 . S
H307 C251 0.930 . S
H308 C254 0.930 . S
H309 C257 0.929 1_565 S
H310 C262 0.929 . S
H311 C263 0.951 . S
H312 C270 0.929 1_565 S
H313 C271 0.930 . S
H314 C272 0.930 1_565 S
H315 C273 0.930 . S
H316 C275 0.929 . S
H317 C276 0.930 . S
H318 C277 0.930 . S
H319 C278 0.930 . S
H320 C282 0.929 . S
H321 C284 0.949 . S
H322 C290 0.929 . S
H323 C291 0.930 . S
H324 C342 0.951 1_565 S
H325 C344 0.951 1_565 S
H326 C346 0.950 . S
H327 C347 0.950 . S
H328 C349 0.950 . S
H329 C352 0.950 . S
H330 C353 0.950 . S
H331 C355 0.950 . S
H332 C356 0.950 . S
H333 C357 0.951 . S
H334 C359 0.951 . S
H335 C361 0.950 1_565 S
H336 C362 0.950 1_565 S
H337 C364 0.950 1_565 S
H338 C367 0.950 . S
H339 C368 0.950 . S
H340 C370 0.950 . S
H341 C371 0.950 . S
C342 H324 0.951 1_545 S
C342 C343 1.366 . S
C342 C344 1.388 . S
C343 C342 1.366 . S
C343 C347 1.385 . S
C344 H325 0.951 1_545 S
C344 C342 1.388 . S
C344 C345 1.366 . S
C345 C344 1.366 . S
C345 C346 1.414 . S
C345 C348 1.499 . S
C346 H326 0.950 . S
C346 C345 1.414 . S
C346 C347 1.374 . S
C347 H327 0.950 . S
C347 C343 1.385 . S
C347 C346 1.374 . S
C348 C345 1.499 . S
C348 C349 1.373 . S
C348 C350 1.389 . S
C349 H328 0.950 . S
C349 C348 1.373 . S
C349 C365 1.377 . S
C350 C348 1.389 . S
C350 C351 1.524 1_545 S
C350 C364 1.377 . S
C351 C350 1.524 1_565 S
C351 C352 1.397 . S
C351 C356 1.363 . S
C352 H329 0.950 . S
C352 C351 1.397 . S
C352 C353 1.334 . S
C353 H330 0.950 . S
C353 C352 1.334 . S
C353 C354 1.287 . S
C354 C353 1.287 . S
C354 C355 1.524 . S
C354 H373 0.913 . S
C355 H331 0.950 . S
C355 C354 1.524 . S
C355 C356 1.415 . S
C356 H332 0.950 . S
C356 C351 1.363 . S
C356 C355 1.415 . S
C357 H333 0.951 . S
C357 C358 1.366 . S
C357 C359 1.388 . S
C358 C357 1.366 . S
C358 C362 1.385 . S
C359 H334 0.951 . S
C359 C357 1.388 . S
C359 C360 1.366 . S
C360 C359 1.366 . S
C360 C361 1.414 . S
C360 C363 1.499 . S
C361 H335 0.950 1_545 S
C361 C360 1.414 . S
C361 C362 1.374 . S
C362 H336 0.950 1_545 S
C362 C358 1.385 . S
C362 C361 1.374 . S
C363 C360 1.499 . S
C363 C364 1.373 . S
C363 C365 1.389 . S
C364 H337 0.950 1_545 S
C364 C350 1.377 . S
C364 C363 1.373 . S
C365 C349 1.377 . S
C365 C363 1.389 . S
C365 C366 1.524 . S
C366 C365 1.524 . S
C366 C367 1.397 . S
C366 C371 1.363 . S
C367 H338 0.950 . S
C367 C366 1.397 . S
C367 C368 1.334 . S
C368 H339 0.950 . S
C368 C367 1.334 . S
C368 C369 1.287 . S
C369 C368 1.287 . S
C369 C370 1.524 . S
C369 H372 0.999 . S
C370 H340 0.950 . S
C370 C369 1.524 . S
C370 C371 1.415 . S
C371 H341 0.950 . S
C371 C366 1.363 . S
C371 C370 1.415 . S
H372 C369 0.999 . S
H373 C354 0.913 . S
H374 C392 0.951 1_655 S
H375 C394 0.951 1_655 S
H376 C396 0.950 . S
H377 C397 0.950 . S
H378 C399 0.950 . S
H379 C402 0.950 . S
H380 C403 0.950 . S
H381 C405 0.950 . S
H382 C406 0.950 . S
H383 C407 0.951 . S
H384 C409 0.951 . S
H385 C411 0.950 1_655 S
H386 C412 0.950 1_655 S
H387 C414 0.950 . S
H388 C417 0.950 . S
H389 C418 0.950 . S
H390 C420 0.950 . S
H391 C421 0.950 . S
C392 H374 0.951 1_455 S
C392 C393 1.366 . S
C392 C394 1.388 . S
C393 C392 1.366 . S
C393 C397 1.385 . S
C394 H375 0.951 1_455 S
C394 C392 1.388 . S
C394 C395 1.366 . S
C395 C394 1.366 . S
C395 C396 1.414 . S
C395 C398 1.499 . S
C396 H376 0.950 . S
C396 C395 1.414 . S
C396 C397 1.374 . S
C397 H377 0.950 . S
C397 C393 1.385 . S
C397 C396 1.374 . S
C398 C395 1.499 . S
C398 C399 1.373 . S
C398 C400 1.389 . S
C399 H378 0.950 . S
C399 C398 1.373 . S
C399 C415 1.377 . S
C400 C398 1.389 . S
C400 C401 1.524 . S
C400 C414 1.377 . S
C401 C400 1.524 . S
C401 C402 1.397 . S
C401 C406 1.363 1_455 S
C402 H379 0.950 . S
C402 C401 1.397 . S
C402 C403 1.334 . S
C403 H380 0.950 . S
C403 C402 1.334 . S
C403 C404 1.287 1_455 S
C404 C403 1.287 1_655 S
C404 C405 1.524 . S
C404 H423 0.913 . S
C405 H381 0.950 . S
C405 C404 1.524 . S
C405 C406 1.415 . S
C406 H382 0.950 . S
C406 C401 1.363 1_655 S
C406 C405 1.415 . S
C407 H383 0.951 . S
C407 C408 1.366 . S
C407 C409 1.388 . S
C408 C407 1.366 . S
C408 C412 1.385 . S
C409 H384 0.951 . S
C409 C407 1.388 . S
C409 C410 1.366 . S
C410 C409 1.366 . S
C410 C411 1.414 . S
C410 C413 1.499 . S
C411 H385 0.950 1_455 S
C411 C410 1.414 . S
C411 C412 1.374 . S
C412 H386 0.950 1_455 S
C412 C408 1.385 . S
C412 C411 1.374 . S
C413 C410 1.499 . S
C413 C414 1.373 . S
C413 C415 1.389 . S
C414 H387 0.950 . S
C414 C400 1.377 . S
C414 C413 1.373 . S
C415 C399 1.377 . S
C415 C413 1.389 . S
C415 C416 1.524 . S
C416 C415 1.524 . S
C416 C417 1.397 . S
C416 C421 1.363 . S
C417 H388 0.950 . S
C417 C416 1.397 . S
C417 C418 1.334 . S
C418 H389 0.950 . S
C418 C417 1.334 . S
C418 C419 1.287 . S
C419 C418 1.287 . S
C419 C420 1.524 . S
C419 H422 0.999 . S
C420 H390 0.950 . S
C420 C419 1.524 . S
C420 C421 1.415 . S
C421 H391 0.950 . S
C421 C416 1.363 . S
C421 C420 1.415 . S
H422 C419 0.999 . S
H423 C404 0.913 . S
H424 C442 0.951 . S
H425 C444 0.951 . S
H426 C446 0.950 . S
H427 C447 0.950 . S
H428 C449 0.950 . S
H429 C452 0.937 1_545 S
H430 C453 0.950 . S
H431 C455 0.950 . S
H432 C456 0.950 . S
H433 C457 0.951 . S
H434 C459 0.951 . S
H435 C461 0.950 . S
H436 C462 0.950 . S
H437 C464 0.950 1_565 S
H438 C467 0.950 . S
H439 C468 0.950 . S
H440 C470 0.950 . S
H441 C471 0.950 . S
C442 H424 0.951 . S
C442 C443 1.366 . S
C442 C444 1.388 . S
C443 C442 1.366 . S
C443 C447 1.385 . S
C444 H425 0.951 . S
C444 C442 1.388 . S
C444 C445 1.366 . S
C445 C444 1.366 . S
C445 C446 1.414 . S
C445 C448 1.499 . S
C446 H426 0.950 . S
C446 C445 1.414 . S
C446 C447 1.374 . S
C447 H427 0.950 . S
C447 C443 1.385 . S
C447 C446 1.374 . S
C448 C445 1.499 . S
C448 C449 1.373 . S
C448 C450 1.389 . S
C449 H428 0.950 . S
C449 C448 1.373 . S
C449 C465 1.377 . S
C450 C448 1.389 . S
C450 C451 1.524 1_545 S
C450 C464 1.377 . S
C451 C450 1.524 1_565 S
C451 C452 1.397 . S
C451 C456 1.363 . S
C452 H429 0.937 1_565 S
C452 C451 1.397 . S
C452 C453 1.334 . S
C453 H430 0.950 . S
C453 C452 1.334 . S
C453 C454 1.287 . S
C454 C453 1.287 . S
C454 C455 1.524 . S
C454 H473 0.913 . S
C455 H431 0.950 . S
C455 C454 1.524 . S
C455 C456 1.415 . S
C456 H432 0.950 . S
C456 C451 1.363 . S
C456 C455 1.415 . S
C457 H433 0.951 . S
C457 C458 1.366 . S
C457 C459 1.388 . S
C458 C457 1.366 . S
C458 C462 1.385 . S
C459 H434 0.951 . S
C459 C457 1.388 . S
C459 C460 1.366 . S
C460 C459 1.366 . S
C460 C461 1.414 . S
C460 C463 1.499 . S
C461 H435 0.950 . S
C461 C460 1.414 . S
C461 C462 1.374 . S
C462 H436 0.950 . S
C462 C458 1.385 . S
C462 C461 1.374 . S
C463 C460 1.499 . S
C463 C464 1.373 . S
C463 C465 1.389 . S
C464 H437 0.950 1_545 S
C464 C450 1.377 . S
C464 C463 1.373 . S
C465 C449 1.377 . S
C465 C463 1.389 . S
C465 C466 1.524 . S
C466 C465 1.524 . S
C466 C467 1.397 . S
C466 C471 1.363 . S
C467 H438 0.950 . S
C467 C466 1.397 . S
C467 C468 1.334 . S
C468 H439 0.950 . S
C468 C467 1.334 . S
C468 C469 1.287 . S
C469 C468 1.287 . S
C469 C470 1.524 . S
C469 H472 0.999 . S
C470 H440 0.950 . S
C470 C469 1.524 . S
C470 C471 1.415 . S
C471 H441 0.950 . S
C471 C466 1.363 . S
C471 C470 1.415 . S
H472 C469 0.999 . S
H473 C454 0.913 . S
H474 C492 0.951 . S
H475 C494 0.951 . S
H476 C496 0.950 . S
H477 C497 0.950 . S
H478 C499 0.950 . S
H479 C502 0.950 . S
H480 C503 0.950 . S
H481 C505 0.950 . S
H482 C506 0.950 . S
H483 C507 0.951 1_655 S
H484 C509 0.951 1_655 S
H485 C511 0.950 . S
H486 C512 0.950 . S
H487 C514 0.950 . S
H488 C517 0.950 . S
H489 C518 0.950 . S
H490 C520 0.950 . S
H491 C521 0.950 . S
C492 H474 0.951 . S
C492 C493 1.366 . S
C492 C494 1.388 . S
C493 C492 1.366 . S
C493 C497 1.385 1_455 S
C494 H475 0.951 . S
C494 C492 1.388 . S
C494 C495 1.366 . S
C495 C494 1.366 . S
C495 C496 1.414 1_455 S
C495 C498 1.499 . S
C496 H476 0.950 . S
C496 C495 1.414 1_655 S
C496 C497 1.374 . S
C497 H477 0.950 . S
C497 C493 1.385 1_655 S
C497 C496 1.374 . S
C498 C495 1.499 . S
C498 C499 1.373 . S
C498 C500 1.389 . S
C499 H478 0.950 . S
C499 C498 1.373 . S
C499 C515 1.377 . S
C500 C498 1.389 . S
C500 C501 1.524 . S
C500 C514 1.377 . S
C501 C500 1.524 . S
C501 C502 1.397 . S
C501 C506 1.363 . S
C502 H479 0.950 . S
C502 C501 1.397 . S
C502 C503 1.334 . S
C503 H480 0.950 . S
C503 C502 1.334 . S
C503 C504 1.287 . S
C504 C503 1.287 . S
C504 C505 1.524 . S
C504 H523 0.913 . S
C505 H481 0.950 . S
C505 C504 1.524 . S
C505 C506 1.415 . S
C506 H482 0.950 . S
C506 C501 1.363 . S
C506 C505 1.415 . S
C507 H483 0.951 1_455 S
C507 C508 1.366 . S
C507 C509 1.388 . S
C508 C507 1.366 . S
C508 C512 1.385 . S
C509 H484 0.951 1_455 S
C509 C507 1.388 . S
C509 C510 1.366 . S
C510 C509 1.366 . S
C510 C511 1.414 . S
C510 C513 1.499 . S
C511 H485 0.950 . S
C511 C510 1.414 . S
C511 C512 1.374 . S
C512 H486 0.950 . S
C512 C508 1.385 . S
C512 C511 1.374 . S
C513 C510 1.499 . S
C513 C514 1.373 . S
C513 C515 1.389 . S
C514 H487 0.950 . S
C514 C500 1.377 . S
C514 C513 1.373 . S
C515 C499 1.377 . S
C515 C513 1.389 . S
C515 C516 1.524 . S
C516 C515 1.524 . S
C516 C517 1.397 . S
C516 C521 1.363 1_455 S
C517 H488 0.950 . S
C517 C516 1.397 . S
C517 C518 1.334 . S
C518 H489 0.950 . S
C518 C517 1.334 . S
C518 C519 1.274 1_455 S
C519 C518 1.274 1_655 S
C519 C520 1.535 . S
C519 H522 1.003 . S
C520 H490 0.950 . S
C520 C519 1.535 . S
C520 C521 1.415 . S
C521 H491 0.950 . S
C521 C516 1.363 1_655 S
C521 C520 1.415 . S
H522 C519 1.003 . S
H523 C504 0.913 . S
H524 C542 0.951 . S
H525 C544 0.951 . S
H526 C546 0.950 . S
H527 C547 0.950 . S
H528 C549 0.950 . S
H529 C552 0.950 . S
H530 C553 0.950 . S
H531 C555 0.950 . S
H532 C556 0.950 . S
H533 C557 0.951 . S
H534 C559 0.951 . S
H535 C561 0.950 . S
H536 C562 0.950 . S
H537 C564 0.950 1_565 S
H538 C567 0.950 . S
H539 C568 0.950 . S
H540 C570 0.950 . S
H541 C571 0.950 . S
C542 H524 0.951 . S
C542 C543 1.366 . S
C542 C544 1.388 . S
C543 C542 1.366 . S
C543 C547 1.385 . S
C544 H525 0.951 . S
C544 C542 1.388 . S
C544 C545 1.366 . S
C545 C544 1.366 . S
C545 C546 1.414 . S
C545 C548 1.499 . S
C546 H526 0.950 . S
C546 C545 1.414 . S
C546 C547 1.374 . S
C547 H527 0.950 . S
C547 C543 1.385 . S
C547 C546 1.374 . S
C548 C545 1.499 . S
C548 C549 1.373 . S
C548 C550 1.389 . S
C549 H528 0.950 . S
C549 C548 1.373 . S
C549 C565 1.377 . S
C550 C548 1.389 . S
C550 C551 1.524 1_545 S
C550 C564 1.377 . S
C551 C550 1.524 1_565 S
C551 C552 1.397 . S
C551 C556 1.363 . S
C552 H529 0.950 . S
C552 C551 1.397 . S
C552 C553 1.334 . S
C553 H530 0.950 . S
C553 C552 1.334 . S
C553 C554 1.287 . S
C554 C553 1.287 . S
C554 C555 1.524 . S
C554 H573 0.913 . S
C555 H531 0.950 . S
C555 C554 1.524 . S
C555 C556 1.415 . S
C556 H532 0.950 . S
C556 C551 1.363 . S
C556 C555 1.415 . S
C557 H533 0.951 . S
C557 C558 1.366 . S
C557 C559 1.388 . S
C558 C557 1.366 . S
C558 C562 1.385 . S
C559 H534 0.951 . S
C559 C557 1.388 . S
C559 C560 1.366 . S
C560 C559 1.366 . S
C560 C561 1.414 . S
C560 C563 1.499 . S
C561 H535 0.950 . S
C561 C560 1.414 . S
C561 C562 1.374 . S
C562 H536 0.950 . S
C562 C558 1.385 . S
C562 C561 1.374 . S
C563 C560 1.499 . S
C563 C564 1.373 . S
C563 C565 1.389 . S
C564 H537 0.950 1_545 S
C564 C550 1.377 . S
C564 C563 1.373 . S
C565 C549 1.377 . S
C565 C563 1.389 . S
C565 C566 1.524 . S
C566 C565 1.524 . S
C566 C567 1.397 . S
C566 C571 1.363 . S
C567 H538 0.950 . S
C567 C566 1.397 . S
C567 C568 1.334 . S
C568 H539 0.950 . S
C568 C567 1.334 . S
C568 C569 1.287 . S
C569 C568 1.287 . S
C569 C570 1.524 . S
C569 H572 0.999 . S
C570 H540 0.950 . S
C570 C569 1.524 . S
C570 C571 1.415 . S
C571 H541 0.950 . S
C571 C566 1.363 . S
C571 C570 1.415 . S
H572 C569 0.999 . S
H573 C554 0.913 . S
H574 C592 0.951 1_655 S
H575 C594 0.951 1_655 S
H576 C596 0.950 . S
H577 C597 0.950 . S
H578 C599 0.950 . S
H579 C602 0.950 . S
H580 C603 0.950 . S
H581 C605 0.950 . S
H582 C606 0.950 . S
H583 C607 0.951 . S
H584 C609 0.951 . S
H585 C611 0.950 1_655 S
H586 C612 0.950 1_655 S
H587 C614 0.950 . S
H588 C617 0.950 . S
H589 C618 0.950 . S
H590 C620 0.950 . S
H591 C621 0.950 . S
C592 H574 0.951 1_455 S
C592 C593 1.366 . S
C592 C594 1.388 . S
C593 C592 1.366 . S
C593 C597 1.385 . S
C594 H575 0.951 1_455 S
C594 C592 1.388 . S
C594 C595 1.366 . S
C595 C594 1.366 . S
C595 C596 1.414 . S
C595 C598 1.499 . S
C596 H576 0.950 . S
C596 C595 1.414 . S
C596 C597 1.374 . S
C597 H577 0.950 . S
C597 C593 1.385 . S
C597 C596 1.374 . S
C598 C595 1.499 . S
C598 C599 1.373 . S
C598 C600 1.389 . S
C599 H578 0.950 . S
C599 C598 1.373 . S
C599 C615 1.377 . S
C600 C598 1.389 . S
C600 C601 1.524 . S
C600 C614 1.377 . S
C601 C600 1.524 . S
C601 C602 1.397 . S
C601 C606 1.363 . S
C602 H579 0.950 . S
C602 C601 1.397 . S
C602 C603 1.334 . S
C603 H580 0.950 . S
C603 C602 1.334 . S
C603 C604 1.287 . S
C604 C603 1.287 . S
C604 C605 1.524 . S
C604 H623 0.913 . S
C605 H581 0.950 . S
C605 C604 1.524 . S
C605 C606 1.415 . S
C606 H582 0.950 . S
C606 C601 1.363 . S
C606 C605 1.415 . S
C607 H583 0.951 . S
C607 C608 1.366 . S
C607 C609 1.388 . S
C608 C607 1.366 . S
C608 C612 1.385 . S
C609 H584 0.951 . S
C609 C607 1.388 . S
C609 C610 1.366 . S
C610 C609 1.366 . S
C610 C611 1.414 . S
C610 C613 1.499 . S
C611 H585 0.950 1_455 S
C611 C610 1.414 . S
C611 C612 1.374 . S
C612 H586 0.950 1_455 S
C612 C608 1.385 . S
C612 C611 1.374 . S
C613 C610 1.499 . S
C613 C614 1.373 . S
C613 C615 1.389 . S
C614 H587 0.950 . S
C614 C600 1.377 . S
C614 C613 1.373 . S
C615 C599 1.377 . S
C615 C613 1.389 . S
C615 C616 1.524 . S
C616 C615 1.524 . S
C616 C617 1.397 1_455 S
C616 C621 1.363 . S
C617 H588 0.950 . S
C617 C616 1.397 1_655 S
C617 C618 1.334 . S
C618 H589 0.950 . S
C618 C617 1.334 . S
C618 C619 1.287 . S
C619 C618 1.287 . S
C619 C620 1.524 1_655 S
C619 H622 0.999 . S
C620 H590 0.950 . S
C620 C619 1.524 1_455 S
C620 C621 1.415 . S
C621 H591 0.950 . S
C621 C616 1.363 . S
C621 C620 1.415 . S
H622 C619 0.999 . S
H623 C604 0.913 . S
H624 C642 0.951 1_565 S
H625 C644 0.951 1_565 S
H626 C646 0.950 . S
H627 C647 0.950 . S
H628 C649 0.950 1_565 S
H629 C652 0.950 . S
H630 C653 0.950 . S
H631 C655 0.950 . S
H632 C656 0.950 . S
H633 C657 0.951 . S
H634 C659 0.951 . S
H635 C661 0.950 1_565 S
H636 C662 0.941 1_565 S
H637 C664 0.950 . S
H638 C667 0.950 . S
H639 C668 0.950 . S
H640 C670 0.950 . S
H641 C671 0.950 1_545 S
C642 H624 0.951 1_545 S
C642 C643 1.366 . S
C642 C644 1.388 . S
C643 C642 1.366 . S
C643 C647 1.385 . S
C644 H625 0.951 1_545 S
C644 C642 1.388 . S
C644 C645 1.366 . S
C645 C644 1.366 . S
C645 C646 1.414 . S
C645 C648 1.499 . S
C646 H626 0.950 . S
C646 C645 1.414 . S
C646 C647 1.374 . S
C647 H627 0.950 . S
C647 C643 1.385 . S
C647 C646 1.374 . S
C648 C645 1.499 . S
C648 C649 1.373 . S
C648 C650 1.389 . S
C649 H628 0.950 1_545 S
C649 C648 1.373 . S
C649 C665 1.377 . S
C650 C648 1.389 . S
C650 C651 1.524 . S
C650 C664 1.377 . S
C651 C650 1.524 . S
C651 C652 1.397 . S
C651 C656 1.363 . S
C652 H629 0.950 . S
C652 C651 1.397 . S
C652 C653 1.334 . S
C653 H630 0.950 . S
C653 C652 1.334 . S
C653 C654 1.287 . S
C654 C653 1.287 . S
C654 C655 1.524 . S
C654 H673 0.913 . S
C655 H631 0.950 . S
C655 C654 1.524 . S
C655 C656 1.415 . S
C656 H632 0.950 . S
C656 C651 1.363 . S
C656 C655 1.415 . S
C657 H633 0.951 . S
C657 C658 1.366 . S
C657 C659 1.388 . S
C658 C657 1.366 . S
C658 C662 1.385 . S
C659 H634 0.951 . S
C659 C657 1.388 . S
C659 C660 1.366 . S
C660 C659 1.366 . S
C660 C661 1.414 . S
C660 C663 1.499 . S
C661 H635 0.950 1_545 S
C661 C660 1.414 . S
C661 C662 1.374 . S
C662 H636 0.941 1_545 S
C662 C658 1.385 . S
C662 C661 1.374 . S
C663 C660 1.499 . S
C663 C664 1.373 . S
C663 C665 1.389 . S
C664 H637 0.950 . S
C664 C650 1.377 . S
C664 C663 1.373 . S
C665 C649 1.377 . S
C665 C663 1.389 . S
C665 C666 1.524 1_545 S
C666 C665 1.524 1_565 S
C666 C667 1.397 . S
C666 C671 1.363 . S
C667 H638 0.950 . S
C667 C666 1.397 . S
C667 C668 1.334 . S
C668 H639 0.950 . S
C668 C667 1.334 . S
C668 C669 1.287 . S
C669 C668 1.287 . S
C669 C670 1.524 . S
C669 H672 0.999 . S
C670 H640 0.950 . S
C670 C669 1.524 . S
C670 C671 1.415 . S
C671 H641 0.950 1_565 S
C671 C666 1.363 . S
C671 C670 1.415 . S
H672 C669 0.999 . S
H673 C654 0.913 . S
H674 C692 0.951 . S
H675 C694 0.951 . S
H676 C696 0.950 . S
H677 C697 0.950 . S
H678 C699 0.950 . S
H679 C702 0.950 . S
H680 C703 0.950 . S
H681 C705 0.950 . S
H682 C706 0.950 . S
H683 C707 0.951 . S
H684 C709 0.951 . S
H685 C711 0.950 . S
H686 C712 0.950 1_655 S
H687 C714 0.950 . S
H688 C717 0.950 . S
H689 C718 0.950 . S
H690 C720 0.950 . S
H691 C721 0.950 . S
C692 H674 0.951 . S
C692 C693 1.366 . S
C692 C694 1.388 . S
C693 C692 1.366 . S
C693 C697 1.385 . S
C694 H675 0.951 . S
C694 C692 1.388 . S
C694 C695 1.366 . S
C695 C694 1.366 . S
C695 C696 1.414 . S
C695 C698 1.499 . S
C696 H676 0.950 . S
C696 C695 1.414 . S
C696 C697 1.374 . S
C697 H677 0.950 . S
C697 C693 1.385 . S
C697 C696 1.374 . S
C698 C695 1.499 . S
C698 C699 1.373 . S
C698 C700 1.389 . S
C699 H678 0.950 . S
C699 C698 1.373 . S
C699 C715 1.377 . S
C700 C698 1.389 . S
C700 C701 1.524 . S
C700 C714 1.377 . S
C701 C700 1.524 . S
C701 C702 1.397 . S
C701 C706 1.363 . S
C702 H679 0.950 . S
C702 C701 1.397 . S
C702 C703 1.334 . S
C703 H680 0.950 . S
C703 C702 1.334 . S
C703 C704 1.287 . S
C704 C703 1.287 . S
C704 C705 1.524 . S
C704 H723 0.913 . S
C705 H681 0.950 . S
C705 C704 1.524 . S
C705 C706 1.415 . S
C706 H682 0.950 . S
C706 C701 1.363 . S
C706 C705 1.415 . S
C707 H683 0.951 . S
C707 C708 1.366 . S
C707 C709 1.388 . S
C708 C707 1.366 . S
C708 C712 1.385 . S
C709 H684 0.951 . S
C709 C707 1.388 . S
C709 C710 1.366 . S
C710 C709 1.366 . S
C710 C711 1.414 . S
C710 C713 1.499 . S
C711 H685 0.950 . S
C711 C710 1.414 . S
C711 C712 1.374 . S
C712 H686 0.950 1_455 S
C712 C708 1.385 . S
C712 C711 1.374 . S
C713 C710 1.499 . S
C713 C714 1.373 . S
C713 C715 1.389 . S
C714 H687 0.950 . S
C714 C700 1.377 . S
C714 C713 1.373 . S
C715 C699 1.377 . S
C715 C713 1.389 . S
C715 C716 1.524 . S
C716 C715 1.524 . S
C716 C717 1.397 1_455 S
C716 C721 1.363 . S
C717 H688 0.950 . S
C717 C716 1.397 1_655 S
C717 C718 1.334 . S
C718 H689 0.950 . S
C718 C717 1.334 . S
C718 C719 1.287 . S
C719 C718 1.287 . S
C719 C720 1.524 1_655 S
C719 H722 0.999 . S
C720 H690 0.950 . S
C720 C719 1.524 1_455 S
C720 C721 1.415 . S
C721 H691 0.950 . S
C721 C716 1.363 . S
C721 C720 1.415 . S
H722 C719 0.999 . S
H723 C704 0.913 . S
C358 C197 2.327 . S
C343 C69 2.325 . S
C408 C285 2.336 . S
C393 C143 2.331 . S
C458 C205 1.398 . S
C443 C63 1.318 . S
C508 C293 1.384 . S
C493 C137 1.308 . S
C558 C265 1.336 . S
C543 C39 1.281 . S
C608 C168 1.319 . S
C593 C113 1.268 . S
C658 C256 0.545 . S
C643 C51 0.549 . S
C693 C125 0.575 . S
C708 C177 0.571 . S
