# Generated by pormake.
# Topology dag, (6,3)-cn, num edge types: 1
# Building blocks:
#     Node 0, Type 0, BuildingBlock: IZENUY_clean_sbu_0, # of connection points: 6
#     Node 1, Type 0, BuildingBlock: IZENUY_clean_sbu_0, # of connection points: 6
#     Node 2, Type 0, BuildingBlock: IZENUY_clean_sbu_0, # of connection points: 6
#     Node 3, Type 0, BuildingBlock: IZENUY_clean_sbu_0, # of connection points: 6
#     Node 4, Type 1, BuildingBlock: MIDCAF_clean_linker_0, # of connection points: 3
#     Node 5, Type 1, BuildingBlock: MIDCAF_clean_linker_0, # of connection points: 3
#     Node 6, Type 1, BuildingBlock: MIDCAF_clean_linker_0, # of connection points: 3
#     Node 7, Type 1, BuildingBlock: MIDCAF_clean_linker_0, # of connection points: 3
#     Node 8, Type 1, BuildingBlock: MIDCAF_clean_linker_0, # of connection points: 3
#     Node 9, Type 1, BuildingBlock: MIDCAF_clean_linker_0, # of connection points: 3
#     Node 10, Type 1, BuildingBlock: MIDCAF_clean_linker_0, # of connection points: 3
#     Node 11, Type 1, BuildingBlock: MIDCAF_clean_linker_0, # of connection points: 3
#     Edge 12, Type (0, 1), BuildingBlock: CIFDUS_clean_linker_0, # of connection points: 2
#     Edge 13, Type (0, 1), BuildingBlock: CIFDUS_clean_linker_0, # of connection points: 2
#     Edge 14, Type (0, 1), BuildingBlock: CIFDUS_clean_linker_0, # of connection points: 2
#     Edge 15, Type (0, 1), BuildingBlock: CIFDUS_clean_linker_0, # of connection points: 2
#     Edge 16, Type (0, 1), BuildingBlock: CIFDUS_clean_linker_0, # of connection points: 2
#     Edge 17, Type (0, 1), BuildingBlock: CIFDUS_clean_linker_0, # of connection points: 2
#     Edge 18, Type (0, 1), BuildingBlock: CIFDUS_clean_linker_0, # of connection points: 2
#     Edge 19, Type (0, 1), BuildingBlock: CIFDUS_clean_linker_0, # of connection points: 2
#     Edge 20, Type (0, 1), BuildingBlock: CIFDUS_clean_linker_0, # of connection points: 2
#     Edge 21, Type (0, 1), BuildingBlock: CIFDUS_clean_linker_0, # of connection points: 2
#     Edge 22, Type (0, 1), BuildingBlock: CIFDUS_clean_linker_0, # of connection points: 2
#     Edge 23, Type (0, 1), BuildingBlock: CIFDUS_clean_linker_0, # of connection points: 2
#     Edge 24, Type (0, 1), BuildingBlock: CIFDUS_clean_linker_0, # of connection points: 2
#     Edge 25, Type (0, 1), BuildingBlock: CIFDUS_clean_linker_0, # of connection points: 2
#     Edge 26, Type (0, 1), BuildingBlock: CIFDUS_clean_linker_0, # of connection points: 2
#     Edge 27, Type (0, 1), BuildingBlock: CIFDUS_clean_linker_0, # of connection points: 2
#     Edge 28, Type (0, 1), BuildingBlock: CIFDUS_clean_linker_0, # of connection points: 2
#     Edge 29, Type (0, 1), BuildingBlock: CIFDUS_clean_linker_0, # of connection points: 2
#     Edge 30, Type (0, 1), BuildingBlock: CIFDUS_clean_linker_0, # of connection points: 2
#     Edge 31, Type (0, 1), BuildingBlock: CIFDUS_clean_linker_0, # of connection points: 2
#     Edge 32, Type (0, 1), BuildingBlock: CIFDUS_clean_linker_0, # of connection points: 2
#     Edge 33, Type (0, 1), BuildingBlock: CIFDUS_clean_linker_0, # of connection points: 2
#     Edge 34, Type (0, 1), BuildingBlock: CIFDUS_clean_linker_0, # of connection points: 2
#     Edge 35, Type (0, 1), BuildingBlock: CIFDUS_clean_linker_0, # of connection points: 2
# Relax obj value: 0.260
# Max RMSD: 0.197
# Mean RMSD: 0.161
data_MOF--net-dag--node1-IZENUY_clean_sbu_0--node2-MIDCAF_clean_linker_0--edge1-CIFDUS_clean_linker_0
_symmetry_space_group_name_H-M    P1
_symmetry_Int_Tables_number       1
_symmetry_cell_setting            triclinic
loop_
_symmetry_equiv_pos_as_xyz
'x, y, z'
_cell_length_a     41.824102
_cell_length_b     43.466532
_cell_length_c     36.796111
_cell_angle_alpha  95.255858
_cell_angle_beta   90.335051
_cell_angle_gamma 90.050361
loop_
_atom_site_label
_atom_site_type_symbol
_atom_site_fract_x
_atom_site_fract_y
_atom_site_fract_z
_atom_type_partial_charge
Fe0 Fe 0.19536 0.83754 0.07437 0.0
Fe1 Fe 0.12605 0.85334 0.05579 0.0
O2 O 0.15626 0.82553 0.06034 0.0
Fe3 Fe 0.1474 0.78569 0.0509 0.0
O4 O 0.15825 0.7779 0.0973 0.0
O5 O 0.20377 0.80332 0.09821 0.0
O6 O 0.18088 0.8562 0.11748 0.0
C7 C 0.15883 0.87608 0.12001 0.0
C8 C 0.20884 0.79171 0.02084 0.0
O9 O 0.14095 0.8803 0.09309 0.0
C10 C 0.11492 0.80952 0.99528 0.0
O11 O 0.19398 0.87395 0.05305 0.0
O12 O 0.14894 0.87179 0.02197 0.0
O13 O 0.1873 0.77542 0.03371 0.0
O14 O 0.21252 0.81977 0.03233 0.0
C15 C 0.09136 0.80944 0.0863 0.0
O16 O 0.10538 0.83122 0.01784 0.0
O17 O 0.13613 0.79086 0.00393 0.0
C18 C 0.17671 0.88263 0.02757 0.0
O19 O 0.10126 0.83694 0.08929 0.0
O20 O 0.10562 0.78884 0.06595 0.0
C21 C 0.18534 0.78421 0.11148 0.0
Fe22 Fe 0.70095 0.64765 0.48048 0.0
Fe23 Fe 0.65441 0.69646 0.5156 0.0
O24 O 0.6662 0.65721 0.50642 0.0
Fe25 Fe 0.64368 0.62727 0.52307 0.0
O26 O 0.67753 0.61454 0.54861 0.0
O27 O 0.7107 0.61268 0.50278 0.0
O28 O 0.72562 0.66903 0.51449 0.0
C29 C 0.72172 0.69714 0.52547 0.0
C30 C 0.65947 0.60373 0.45123 0.0
O31 O 0.69593 0.71113 0.51881 0.0
C32 C 0.5955 0.66432 0.50175 0.0
O33 O 0.69786 0.68046 0.45308 0.0
O34 O 0.65141 0.70155 0.46734 0.0
O35 O 0.65155 0.5993 0.48356 0.0
O36 O 0.67775 0.62578 0.44525 0.0
C37 C 0.64302 0.67416 0.58153 0.0
O38 O 0.61096 0.68823 0.51414 0.0
O39 O 0.60849 0.63809 0.49899 0.0
C40 C 0.67354 0.69559 0.44478 0.0
O41 O 0.65637 0.69448 0.56459 0.0
O42 O 0.63161 0.64981 0.56504 0.0
C43 C 0.70338 0.60535 0.53413 0.0
Fe44 Fe 0.84107 0.21054 0.01333 0.0
Fe45 Fe 0.86183 0.14394 0.02243 0.0
O46 O 0.83561 0.17005 0.00364 0.0
Fe47 Fe 0.80386 0.15551 0.97504 0.0
O48 O 0.80397 0.18794 0.94694 0.0
O49 O 0.84595 0.21577 0.96523 0.0
O50 O 0.88503 0.20853 0.01653 0.0
C51 C 0.90407 0.18765 0.00372 0.0
C52 C 0.7742 0.20228 0.01671 0.0
O53 O 0.89566 0.15969 -0.00011 0.0
C54 C 0.80519 0.11432 0.03002 0.0
O55 O 0.83669 0.20815 0.06216 0.0
O56 O 0.86922 0.16862 0.06446 0.0
O57 O 0.77473 0.17382 0.00621 0.0
O58 O 0.79809 0.21943 0.01193 0.0
C59 C 0.85215 0.11696 0.95058 0.0
O60 O 0.82939 0.12659 0.04605 0.0
O61 O 0.79804 0.12029 0.99797 0.0
C62 C 0.8529 0.19032 0.08015 0.0
O63 O 0.85927 0.11453 0.98365 0.0
O64 O 0.83142 0.13625 0.94228 0.0
C65 C 0.82631 0.20625 0.9406 0.0
Fe66 Fe 0.36801 0.34992 0.55088 0.0
Fe67 Fe 0.3008 0.33773 0.57884 0.0
O68 O 0.33851 0.32384 0.56331 0.0
Fe69 Fe 0.3466 0.28369 0.56019 0.0
O70 O 0.38973 0.2879 0.56948 0.0
O71 O 0.39585 0.33754 0.58448 0.0
O72 O 0.35636 0.38105 0.58526 0.0
C73 C 0.34084 0.38037 0.61465 0.0
C74 C 0.37275 0.29959 0.49677 0.0
O75 O 0.31887 0.36077 0.61732 0.0
C76 C 0.2827 0.28634 0.53566 0.0
O77 O 0.34223 0.36434 0.51638 0.0
O78 O 0.30005 0.37083 0.55132 0.0
O79 O 0.35277 0.28275 0.51121 0.0
O80 O 0.38486 0.32317 0.51444 0.0
C81 C 0.31479 0.29077 0.62482 0.0
O82 O 0.28051 0.31538 0.54126 0.0
O83 O 0.30518 0.27203 0.54994 0.0
C84 C 0.31521 0.37635 0.52297 0.0
O85 O 0.29487 0.30737 0.60946 0.0
O86 O 0.34056 0.28239 0.60905 0.0
C87 C 0.40577 0.31023 0.58474 0.0
C88 C 0.95674 0.153 0.25211 0.0
C89 C 0.9536 0.18531 0.25379 0.0
C90 C 0.97475 0.20381 0.27615 0.0
C91 C 0.99963 0.19033 0.2947 0.0
H92 H 0.0707 0.20673 0.373 0.0
H93 H 0.10778 0.23926 0.41042 0.0
H94 H 0.18023 0.16857 0.39464 0.0
H95 H 0.14295 0.13563 0.358 0.0
H96 H 0.12219 0.06793 0.32017 0.0
H97 H 0.13682 0.01635 0.29326 0.0
H98 H 0.0499 0.0126 0.22892 0.0
H99 H 0.0349 0.06307 0.25626 0.0
H100 H 0.98399 0.11466 0.26725 0.0
H101 H 0.94117 0.13802 0.23477 0.0
H102 H 0.97277 0.22875 0.27821 0.0
H103 H 0.01629 0.20532 0.31052 0.0
N104 N 0.05345 0.16112 0.32795 0.0
N105 N 0.0889 0.1192 0.32742 0.0
N106 N 0.04086 0.11436 0.29431 0.0
C107 C 0.08134 0.14892 0.33913 0.0
C108 C 0.06865 0.10171 0.30502 0.0
C109 C 0.03302 0.14396 0.30564 0.0
C110 C 0.10378 0.16845 0.3625 0.0
C111 C 0.09451 0.19802 0.37753 0.0
C112 C 0.11584 0.21682 0.39883 0.0
C113 C 0.14696 0.20656 0.40553 0.0
C114 C 0.15625 0.17701 0.39049 0.0
C115 C 0.13488 0.15813 0.36933 0.0
C116 C 0.07733 0.0698 0.29045 0.0
C117 C 0.10606 0.05591 0.30054 0.0
C118 C 0.11455 0.02639 0.28499 0.0
C119 C 0.0945 0.01014 0.25903 0.0
C120 C 0.06566 0.02399 0.2494 0.0
C121 C 0.05715 0.05325 0.26495 0.0
C122 C 0.00398 0.15809 0.291 0.0
C123 C 0.98161 0.13956 0.27046 0.0
C124 C 0.43678 0.52201 0.76857 0.0
C125 C 0.40478 0.51629 0.75816 0.0
C126 C 0.38103 0.53679 0.77249 0.0
C127 C 0.38947 0.56371 0.79437 0.0
H128 H 0.36663 0.6335 0.88592 0.0
H129 H 0.3296 0.66721 0.92117 0.0
H130 H 0.38511 0.74678 0.8974 0.0
H131 H 0.42281 0.71298 0.86313 0.0
H132 H 0.48688 0.70368 0.81817 0.0
H133 H 0.53001 0.72403 0.78277 0.0
H134 H 0.55927 0.63068 0.74765 0.0
H135 H 0.5174 0.61062 0.78362 0.0
H136 H 0.47029 0.55334 0.79596 0.0
H137 H 0.45556 0.50627 0.75879 0.0
H138 H 0.35617 0.53306 0.76494 0.0
H139 H 0.37089 0.58002 0.80317 0.0
N140 N 0.41149 0.62033 0.83849 0.0
N141 N 0.44851 0.66114 0.83904 0.0
N142 N 0.46024 0.61316 0.80792 0.0
C143 C 0.41996 0.64999 0.84964 0.0
C144 C 0.46886 0.64276 0.81832 0.0
C145 C 0.43172 0.60174 0.81776 0.0
C146 C 0.39767 0.67049 0.87158 0.0
C147 C 0.37099 0.65817 0.88821 0.0
C148 C 0.34963 0.67756 0.90826 0.0
C149 C 0.35419 0.70977 0.91186 0.0
C150 C 0.38104 0.72207 0.89552 0.0
C151 C 0.40259 0.70265 0.87571 0.0
C152 C 0.49828 0.65549 0.80318 0.0
C153 C 0.50311 0.68756 0.80367 0.0
C154 C 0.52771 0.69924 0.78321 0.0
C155 C 0.54797 0.67907 0.76199 0.0
C156 C 0.54452 0.64706 0.7639 0.0
C157 C 0.5201 0.63545 0.7843 0.0
C158 C 0.42181 0.57063 0.80199 0.0
C159 C 0.44521 0.54892 0.79003 0.0
C160 C 0.69848 0.82251 0.26902 0.0
C161 C 0.71052 0.7965 0.28453 0.0
C162 C 0.74077 0.78507 0.27384 0.0
C163 C 0.75858 0.79911 0.2482 0.0
H164 H 0.85515 0.81775 0.22078 0.0
H165 H 0.91246 0.80774 0.21259 0.0
H166 H 0.90582 0.83287 0.10209 0.0
H167 H 0.8488 0.84385 0.11044 0.0
H168 H 0.78587 0.89655 0.09865 0.0
H169 H 0.78053 0.94838 0.07922 0.0
H170 H 0.73692 0.97925 0.18224 0.0
H171 H 0.7418 0.9269 0.20157 0.0
H172 H 0.70657 0.85673 0.23169 0.0
H173 H 0.67524 0.83181 0.27679 0.0
H174 H 0.75114 0.76554 0.28594 0.0
H175 H 0.78184 0.78957 0.24097 0.0
N176 N 0.79602 0.82881 0.19728 0.0
N177 N 0.80323 0.86681 0.15703 0.0
N178 N 0.75571 0.86545 0.19052 0.0
C179 C 0.81445 0.84198 0.17281 0.0
C180 C 0.77401 0.87872 0.16584 0.0
C181 C 0.76642 0.84006 0.20587 0.0
C182 C 0.84764 0.83166 0.16623 0.0
C183 C 0.86582 0.8206 0.19454 0.0
C184 C 0.89852 0.81499 0.18999 0.0
C185 C 0.91324 0.81954 0.15676 0.0
C186 C 0.89479 0.82904 0.12786 0.0
C187 C 0.8623 0.8354 0.13269 0.0
C188 C 0.76439 0.90787 0.15161 0.0
C189 C 0.77431 0.91419 0.11672 0.0
C190 C 0.7711 0.94379 0.10556 0.0
C191 C 0.75842 0.96777 0.12935 0.0
C192 C 0.74681 0.9611 0.1635 0.0
C193 C 0.74943 0.9312 0.17441 0.0
C194 C 0.74675 0.82516 0.23262 0.0
C195 C 0.71641 0.83669 0.24317 0.0
C196 C 0.80377 0.32138 0.75235 0.0
C197 C 0.79086 0.297 0.7701 0.0
C198 C 0.76119 0.28443 0.75842 0.0
C199 C 0.74472 0.29586 0.72961 0.0
H200 H 0.64954 0.32218 0.70189 0.0
H201 H 0.59134 0.31695 0.69699 0.0
H202 H 0.59623 0.32809 0.58189 0.0
H203 H 0.65439 0.33429 0.58676 0.0
H204 H 0.72034 0.37742 0.56425 0.0
H205 H 0.73307 0.42467 0.53639 0.0
H206 H 0.79339 0.45459 0.6285 0.0
H207 H 0.78111 0.40698 0.65627 0.0
H208 H 0.79777 0.35163 0.71001 0.0
H209 H 0.8266 0.33147 0.76088 0.0
H210 H 0.75034 0.266 0.77203 0.0
H211 H 0.72186 0.28558 0.72155 0.0
N212 N 0.70821 0.3242 0.67575 0.0
N213 N 0.7051 0.35523 0.62713 0.0
N214 N 0.75294 0.35284 0.66044 0.0
C215 C 0.69101 0.33541 0.64855 0.0
C216 C 0.73601 0.36408 0.63295 0.0
C217 C 0.73929 0.33248 0.68159 0.0
C218 C 0.65647 0.32871 0.64468 0.0
C219 C 0.63827 0.32309 0.67543 0.0
C220 C 0.60504 0.32023 0.67274 0.0
C221 C 0.58959 0.32212 0.63911 0.0
C222 C 0.6078 0.32641 0.60806 0.0
C223 C 0.64095 0.33004 0.61089 0.0
C224 C 0.74937 0.38877 0.61262 0.0
C225 C 0.73708 0.39364 0.57803 0.0
C226 C 0.74458 0.42055 0.56195 0.0
C227 C 0.76407 0.44325 0.58046 0.0
C228 C 0.77831 0.43736 0.61376 0.0
C229 C 0.77128 0.41013 0.62957 0.0
C230 C 0.75749 0.3202 0.71166 0.0
C231 C 0.7873 0.33278 0.72318 0.0
C232 C 0.45876 0.32461 0.30036 0.0
C233 C 0.46827 0.29662 0.31336 0.0
C234 C 0.49481 0.28089 0.29744 0.0
C235 C 0.51307 0.29423 0.27122 0.0
H236 H 0.5667 0.29166 0.16023 0.0
H237 H 0.60468 0.26815 0.11587 0.0
H238 H 0.67194 0.34178 0.14617 0.0
H239 H 0.63377 0.36573 0.18912 0.0
H240 H 0.61635 0.4194 0.24735 0.0
H241 H 0.63115 0.46438 0.28845 0.0
H242 H 0.53387 0.47177 0.32711 0.0
H243 H 0.51924 0.42637 0.28682 0.0
H244 H 0.47089 0.36097 0.26744 0.0
H245 H 0.43859 0.33738 0.31233 0.0
H246 H 0.50257 0.25924 0.30698 0.0
H247 H 0.53473 0.28272 0.26137 0.0
N248 N 0.5497 0.32859 0.21783 0.0
N249 N 0.57922 0.37477 0.21963 0.0
N250 N 0.53437 0.37176 0.25675 0.0
C251 C 0.57438 0.34512 0.20537 0.0
C252 C 0.55922 0.38829 0.24521 0.0
C253 C 0.52943 0.34202 0.24334 0.0
C254 C 0.59711 0.33063 0.1782 0.0
C255 C 0.58957 0.30285 0.15727 0.0
C256 C 0.61141 0.2893 0.13194 0.0
C257 C 0.64141 0.30308 0.12725 0.0
C258 C 0.64885 0.33082 0.14832 0.0
C259 C 0.62695 0.3445 0.17325 0.0
C260 C 0.56674 0.41895 0.26427 0.0
C261 C 0.59795 0.43099 0.26405 0.0
C262 C 0.60644 0.45686 0.28758 0.0
C263 C 0.58382 0.4713 0.31157 0.0
C264 C 0.55205 0.46067 0.30965 0.0
C265 C 0.54364 0.43473 0.2864 0.0
C266 C 0.50539 0.32376 0.2612 0.0
C267 C 0.47732 0.33818 0.27477 0.0
C268 C 0.28761 0.18155 0.81612 0.0
C269 C 0.28232 0.21251 0.80956 0.0
C270 C 0.26301 0.23101 0.8339 0.0
C271 C 0.24766 0.21841 0.86262 0.0
H272 H 0.14584 0.20176 0.88819 0.0
H273 H 0.08834 0.20956 0.89675 0.0
H274 H 0.09574 0.17879 0.00464 0.0
H275 H 0.15311 0.17014 0.99589 0.0
H276 H 0.21924 0.11686 0.00414 0.0
H277 H 0.22347 0.06451 0.02302 0.0
H278 H 0.25032 0.03053 0.91361 0.0
H279 H 0.24716 0.08328 0.89488 0.0
H280 H 0.27614 0.14479 0.8489 0.0
H281 H 0.30221 0.16663 0.79781 0.0
H282 H 0.25912 0.25517 0.83025 0.0
H283 H 0.23224 0.23314 0.88019 0.0
N284 N 0.20463 0.18652 0.90773 0.0
N285 N 0.1969 0.14781 0.94703 0.0
N286 N 0.24237 0.14667 0.90982 0.0
C287 C 0.18659 0.17385 0.93305 0.0
C288 C 0.22464 0.13411 0.93555 0.0
C289 C 0.23281 0.17336 0.89645 0.0
C290 C 0.15389 0.18513 0.9413 0.0
C291 C 0.1354 0.19748 0.91413 0.0
C292 C 0.10252 0.20183 0.9189 0.0
C293 C 0.08781 0.19466 0.95127 0.0
C294 C 0.10667 0.18464 0.97954 0.0
C295 C 0.1394 0.17961 0.97447 0.0
C296 C 0.23296 0.10397 0.94815 0.0
C297 C 0.22692 0.09834 0.98442 0.0
C298 C 0.22939 0.06849 0.99521 0.0
C299 C 0.23714 0.04371 0.96966 0.0
C300 C 0.24438 0.04943 0.93369 0.0
C301 C 0.24276 0.0795 0.92311 0.0
C302 C 0.25166 0.18711 0.86814 0.0
C303 C 0.27253 0.169 0.84528 0.0
C304 C 0.2536 0.71912 0.31094 0.0
C305 C 0.22856 0.70316 0.29175 0.0
C306 C 0.2177 0.67527 0.30385 0.0
C307 C 0.23215 0.66323 0.33388 0.0
H308 H 0.25714 0.57568 0.38147 0.0
H309 H 0.25084 0.52325 0.40038 0.0
H310 H 0.27172 0.55761 0.51177 0.0
H311 H 0.27881 0.60955 0.49287 0.0
H312 H 0.34536 0.65512 0.49055 0.0
H313 H 0.40033 0.66682 0.50861 0.0
H314 H 0.41152 0.72019 0.41627 0.0
H315 H 0.35609 0.70849 0.39777 0.0
H316 H 0.28747 0.72 0.35467 0.0
H317 H 0.26213 0.74098 0.30277 0.0
H318 H 0.1986 0.66232 0.28951 0.0
H319 H 0.22351 0.64143 0.34207 0.0
N320 N 0.26333 0.63879 0.39558 0.0
N321 N 0.30416 0.64114 0.43961 0.0
N322 N 0.30052 0.6796 0.39924 0.0
C323 C 0.27819 0.62666 0.4239 0.0
C324 C 0.31566 0.66748 0.42743 0.0
C325 C 0.27404 0.66561 0.38349 0.0
C326 C 0.26852 0.59654 0.43576 0.0
C327 C 0.25961 0.57206 0.41009 0.0
C328 C 0.2562 0.54213 0.42081 0.0
C329 C 0.2608 0.53652 0.45748 0.0
C330 C 0.26778 0.5614 0.48339 0.0
C331 C 0.27194 0.59105 0.47258 0.0
C332 C 0.34648 0.68029 0.44221 0.0
C333 C 0.35921 0.66982 0.47432 0.0
C334 C 0.39071 0.67654 0.48476 0.0
C335 C 0.41025 0.69395 0.46348 0.0
C336 C 0.39689 0.70672 0.43314 0.0
C337 C 0.36519 0.69993 0.42255 0.0
C338 C 0.25778 0.67885 0.3525 0.0
C339 C 0.26806 0.70712 0.34086 0.0
C340 C 0.93831 0.98839 0.78514 0.0
C341 C 0.90651 -0.00128 0.78364 0.0
C342 C 0.88451 0.98131 0.76123 0.0
C343 C 0.89353 0.95307 0.74294 0.0
H344 H 0.85524 0.87736 0.68886 0.0
H345 H 0.81595 0.84889 0.65066 0.0
H346 H 0.88603 0.77802 0.62121 0.0
H347 H 0.92524 0.80614 0.66102 0.0
H348 H 0.96674 0.80582 0.75778 0.0
H349 H 0.00602 0.78526 0.79893 0.0
H350 H 0.06062 0.86963 0.79985 0.0
H351 H 0.02134 0.89031 0.75935 0.0
H352 H 0.97161 0.9522 0.77024 0.0
H353 H 0.95602 0.00164 0.80151 0.0
H354 H 0.8598 0.9885 0.7596 0.0
H355 H 0.87551 0.93952 0.72744 0.0
N356 N 0.91189 0.89242 0.71107 0.0
N357 N 0.94323 0.84803 0.71507 0.0
N358 N 0.9587 0.89534 0.74622 0.0
C359 C 0.91713 0.86193 0.70149 0.0
C360 C 0.96424 0.86479 0.73735 0.0
C361 C 0.93257 0.90934 0.73326 0.0
C362 C 0.89348 0.84408 0.67795 0.0
C363 C 0.8624 0.85573 0.67422 0.0
C364 C 0.83983 0.83945 0.65202 0.0
C365 C 0.84777 0.81123 0.63244 0.0
C366 C 0.8789 0.79949 0.63618 0.0
C367 C 0.90145 0.81566 0.65889 0.0
C368 C 0.99086 0.84976 0.7556 0.0
C369 C 0.98759 0.8196 0.76599 0.0
C370 C 0.00994 0.8079 0.78967 0.0
C371 C 0.03627 0.82591 0.80267 0.0
C372 C 0.04072 0.85513 0.79005 0.0
C373 C 0.01812 0.86703 0.76703 0.0
C374 C 0.92468 0.94157 0.74689 0.0
C375 C 0.94727 0.96008 0.76712 0.0
H376 H 0.10509 0.88598 0.1582 0.0
H377 H 0.20363 0.91419 0.15463 0.0
H378 H 0.19318 0.95735 0.20095 0.0
H379 H 0.15397 0.99069 0.23576 0.0
H380 H 0.05582 0.96037 0.24062 0.0
H381 H 0.06818 0.91427 0.20056 0.0
C382 C 0.1244 0.90119 0.16833 0.0
C383 C 0.15498 0.89721 0.15322 0.0
C384 C 0.11814 0.92578 0.19467 0.0
C385 C 0.17996 0.91684 0.16629 0.0
C386 C 0.17388 0.94161 0.19246 0.0
C387 C 0.13545 0.97365 0.22888 0.0
C388 C 0.10377 0.97954 0.24045 0.0
C389 C 0.14278 0.94688 0.20596 0.0
C390 C 0.08016 0.95703 0.23118 0.0
C391 C 0.08722 0.93053 0.20841 0.0
H392 H 0.60283 0.71612 0.61464 0.0
H393 H 0.66831 0.64313 0.63478 0.0
H394 H 0.64887 0.6432 0.6974 0.0
H395 H 0.60721 0.65776 0.742 0.0
H396 H 0.53668 0.72569 0.71829 0.0
H397 H 0.56482 0.735 0.66259 0.0
C398 C 0.61344 0.70105 0.63331 0.0
C399 C 0.63698 0.67982 0.62069 0.0
C400 C 0.60101 0.7002 0.66858 0.0
C401 C 0.65027 0.65978 0.64441 0.0
C402 C 0.63904 0.65971 0.68001 0.0
C403 C 0.59819 0.67488 0.72488 0.0
C404 C 0.56947 0.69046 0.73404 0.0
C405 C 0.61342 0.67883 0.69179 0.0
C406 C 0.55872 0.7133 0.71211 0.0
C407 C 0.57459 0.71839 0.67989 0.0
H408 H 0.80804 0.09904 0.10018 0.0
H409 H 0.76434 0.07236 0.99534 0.0
H410 H 0.74208 0.02635 0.01863 0.0
H411 H 0.74043 0.99057 0.06634 0.0
H412 H 0.78426 0.01656 0.17097 0.0
H413 H 0.80035 0.06623 0.15054 0.0
C414 C 0.79337 0.08331 0.08257 0.0
C415 C 0.78844 0.08882 0.0459 0.0
C416 C 0.78061 0.05676 0.09609 0.0
C417 C 0.76884 0.06855 0.0236 0.0
C418 C 0.75609 0.04216 0.03685 0.0
C419 C 0.75295 0.00743 0.08482 0.0
C420 C 0.76141 -5e-05 0.11989 0.0
C421 C 0.76261 0.03559 0.07268 0.0
C422 C 0.77734 0.02196 0.14386 0.0
C423 C 0.78685 0.0502 0.13207 0.0
H424 H 0.44147 0.34637 0.63353 0.0
H425 H 0.44518 0.26302 0.56032 0.0
H426 H 0.50248 0.25859 0.57173 0.0
H427 H 0.55243 0.28078 0.5988 0.0
H428 H 0.54845 0.3627 0.67393 0.0
H429 H 0.49039 0.36539 0.66563 0.0
C430 C 0.45479 0.32704 0.62047 0.0
C431 C 0.43919 0.30521 0.59594 0.0
C432 C 0.4877 0.32454 0.62727 0.0
C433 C 0.45661 0.28009 0.57944 0.0
C434 C 0.48943 0.27764 0.58574 0.0
C435 C 0.53865 0.29896 0.61355 0.0
C436 C 0.55439 0.32164 0.63668 0.0
C437 C 0.50533 0.30008 0.60899 0.0
C438 C 0.53658 0.34502 0.65602 0.0
C439 C 0.5035 0.3466 0.65119 0.0
H440 H 0.61641 0.5575 0.45409 0.0
H441 H 0.67756 0.60066 0.37937 0.0
H442 H 0.65894 0.5641 0.3292 0.0
H443 H 0.62549 0.51942 0.30675 0.0
H444 H 0.56515 0.47655 0.38257 0.0
H445 H 0.58292 0.51383 0.43189 0.0
C446 C 0.62583 0.55891 0.42688 0.0
C447 C 0.64858 0.58163 0.42063 0.0
C448 C 0.61494 0.53801 0.39823 0.0
C449 C 0.66016 0.58329 0.38504 0.0
C450 C 0.64949 0.56242 0.35631 0.0
C451 C 0.6163 0.51823 0.33408 0.0
C452 C 0.59383 0.49531 0.3408 0.0
C453 C 0.62693 0.5396 0.36261 0.0
C454 C 0.58195 0.49428 0.37636 0.0
C455 C 0.59232 0.51542 0.40473 0.0
H456 H 0.9411 0.16286 0.94905 0.0
H457 H 0.94201 0.22957 0.04323 0.0
H458 H 0.99924 0.23871 0.03481 0.0
H459 H 0.04977 0.2252 0.00239 0.0
H460 H 0.0475 0.16088 0.90603 0.0
H461 H 0.99001 0.15344 0.91324 0.0
C462 C 0.95387 0.17955 0.96752 0.0
C463 C 0.93767 0.19532 0.99687 0.0
C464 C 0.98646 0.18507 0.96208 0.0
C465 C 0.95414 0.21723 0.0204 0.0
C466 C 0.98682 0.22234 0.01568 0.0
C467 C 0.03646 0.2099 0.98283 0.0
C468 C 0.05261 0.19356 0.95378 0.0
C469 C 0.00333 0.20607 0.98689 0.0
C470 C 0.03535 0.17384 0.92841 0.0
C471 C 0.00259 0.16945 0.93264 0.0
H472 H 0.26666 0.41652 0.53959 0.0
H473 H 0.33881 0.39313 0.45827 0.0
H474 H 0.32504 0.43905 0.42779 0.0
H475 H 0.29679 0.48885 0.42846 0.0
H476 H 0.22761 0.51363 0.51242 0.0
H477 H 0.23569 0.46398 0.53753 0.0
C478 C 0.2791 0.42113 0.51487 0.0
C479 C 0.30399 0.40152 0.50148 0.0
C480 C 0.27168 0.44796 0.49811 0.0
C481 C 0.31976 0.40795 0.46938 0.0
C482 C 0.31193 0.43424 0.45195 0.0
C483 C 0.28297 0.48297 0.4517 0.0
C484 C 0.26161 0.50469 0.46861 0.0
C485 C 0.28855 0.45484 0.46666 0.0
C486 C 0.24419 0.49717 0.49908 0.0
C487 C 0.24889 0.46888 0.51346 0.0
H488 H 0.13831 0.81177 0.92698 0.0
H489 H 0.05226 0.79663 0.98661 0.0
H490 H 0.02058 0.79593 0.93044 0.0
H491 H 0.0166 0.80592 0.86617 0.0
H492 H 0.10167 0.82593 0.80712 0.0
H493 H 0.1346 0.81831 0.86089 0.0
C494 C 0.11274 0.80758 0.92727 0.0
C495 C 0.0975 0.80397 0.96051 0.0
C496 C 0.09454 0.80847 0.89506 0.0
C497 C 0.06433 0.79926 0.96108 0.0
C498 C 0.04625 0.799 0.92907 0.0
C499 C 0.04242 0.80781 0.8648 0.0
C500 C 0.05673 0.81634 0.83275 0.0
C501 C 0.06097 0.80445 0.89611 0.0
C502 C 0.09016 0.81941 0.83158 0.0
C503 C 0.10895 0.81512 0.86231 0.0
H504 H 0.83891 0.10956 0.87704 0.0
H505 H 0.89835 0.07473 0.96057 0.0
H506 H 0.92146 0.0368 0.9159 0.0
H507 H 0.92299 0.01147 0.85442 0.0
H508 H 0.86435 0.04495 0.76967 0.0
H509 H 0.84266 0.08528 0.81358 0.0
C510 C 0.85698 0.09373 0.88539 0.0
C511 C 0.86653 0.09486 0.92227 0.0
C512 C 0.8703 0.07164 0.85943 0.0
C513 C 0.89019 0.07428 0.93254 0.0
C514 C 0.90355 0.05253 0.90698 0.0
C515 C 0.90602 0.02798 0.84522 0.0
C516 C 0.89548 0.02527 0.80875 0.0
C517 C 0.89357 0.0508 0.87051 0.0
C518 C 0.87276 0.04642 0.79767 0.0
C519 C 0.86038 0.0695 0.82275 0.0
H520 H 0.43341 0.28731 0.47697 0.0
H521 H 0.33787 0.2935 0.43409 0.0
H522 H 0.35875 0.28942 0.37159 0.0
H523 H 0.40514 0.29091 0.33025 0.0
H524 H 0.50042 0.28324 0.37398 0.0
H525 H 0.47879 0.28021 0.43493 0.0
C526 C 0.41722 0.28702 0.45377 0.0
C527 C 0.38433 0.29086 0.45969 0.0
C528 C 0.42939 0.28448 0.41819 0.0
C529 C 0.36332 0.29041 0.42981 0.0
C530 C 0.37528 0.28828 0.39422 0.0
C531 C 0.42101 0.28783 0.35305 0.0
C532 C 0.4543 0.28746 0.3477 0.0
C533 C 0.40838 0.28628 0.38818 0.0
C534 C 0.4747 0.2833 0.37734 0.0
C535 C 0.46238 0.2819 0.41229 0.0
H536 H 0.22607 0.92133 0.04645 0.0
H537 H 0.15111 0.90408 0.96594 0.0
H538 H 0.16611 0.95097 0.93804 0.0
H539 H 0.1975 -0.00081 0.94003 0.0
H540 H 0.26926 0.01796 0.02363 0.0
H541 H 0.25884 0.96784 0.04671 0.0
C542 C 0.2132 0.92754 0.02251 0.0
C543 C 0.18736 0.9093 0.00842 0.0
C544 C 0.2214 0.95483 0.00727 0.0
C545 C 0.17093 0.91784 0.97748 0.0
C546 C 0.1795 0.94463 0.96152 0.0
C547 C 0.21125 0.99187 0.96279 0.0
C548 C 0.23426 0.01186 0.98005 0.0
C549 C 0.20427 0.9636 0.97664 0.0
C550 C 0.25157 0.0027 0.00997 0.0
C551 C 0.2455 0.97419 0.02319 0.0
H552 H 0.55836 0.71571 0.49424 0.0
H553 H 0.5543 0.61609 0.49104 0.0
H554 H 0.49729 0.61702 0.47932 0.0
H555 H 0.44835 0.64538 0.47035 0.0
H556 H 0.4504 0.74447 0.47083 0.0
H557 H 0.50834 0.74452 0.48296 0.0
C558 C 0.54495 0.69427 0.49097 0.0
C559 C 0.56077 0.66592 0.49372 0.0
C560 C 0.51179 0.69482 0.48377 0.0
C561 C 0.543 0.6383 0.48908 0.0
C562 C 0.51025 0.63872 0.48241 0.0
C563 C 0.46145 0.66703 0.47341 0.0
C564 C 0.44521 0.6949 0.47034 0.0
C565 C 0.49444 0.66676 0.47986 0.0
C566 C 0.46251 0.72274 0.47333 0.0
C567 C 0.49555 0.72274 0.4803 0.0
H568 H 0.39083 0.41992 0.6204 0.0
H569 H 0.30697 0.39375 0.6781 0.0
H570 H 0.31937 0.43324 0.72808 0.0
H571 H 0.35421 0.47568 0.75509 0.0
H572 H 0.43765 0.50086 0.6958 0.0
H573 H 0.42532 0.46105 0.64702 0.0
C574 C 0.3751 0.42284 0.6438 0.0
C575 C 0.34785 0.40404 0.64529 0.0
C576 C 0.38244 0.44533 0.67235 0.0
C577 C 0.32805 0.40798 0.67614 0.0
C578 C 0.33513 0.43056 0.70473 0.0
C579 C 0.36962 0.47242 0.73145 0.0
C580 C 0.39701 0.49107 0.72938 0.0
C581 C 0.36227 0.44945 0.70309 0.0
C582 C 0.41681 0.48646 0.69859 0.0
C583 C 0.40965 0.46385 0.67045 0.0
H584 H 0.06124 0.83926 0.14436 0.0
H585 H 0.04924 0.76557 0.05847 0.0
H586 H 0.99305 0.76056 0.07446 0.0
H587 H 0.94599 0.78091 0.10872 0.0
H588 H 0.95818 0.85326 0.19583 0.0
H589 H 0.01567 0.85499 0.18376 0.0
C590 C 0.04639 0.82181 0.12956 0.0
C591 C 0.05922 0.80305 0.10009 0.0
C592 C 0.01412 0.819 0.13894 0.0
C593 C 0.03991 0.78026 0.08135 0.0
C594 C 0.00772 0.77751 0.09029 0.0
C595 C 0.96147 0.79663 0.12533 0.0
C596 C 0.9482 0.81705 0.15288 0.0
C597 C 0.99439 0.7973 0.11838 0.0
C598 C 0.96817 0.83729 0.17454 0.0
C599 C 0.0009 0.83838 0.16753 0.0
H600 H 0.74025 0.56102 0.4988 0.0
H601 H 0.70571 0.59404 0.6056 0.0
H602 H 0.72738 0.54829 0.63083 0.0
H603 H 0.74862 0.49581 0.62053 0.0
H604 H 0.77817 0.46042 0.51272 0.0
H605 H 0.76644 0.5104 0.48979 0.0
C606 C 0.73811 0.55852 0.52775 0.0
C607 C 0.72118 0.58067 0.5503 0.0
C608 C 0.74953 0.53163 0.54173 0.0
C609 C 0.71839 0.57708 0.58769 0.0
C610 C 0.73073 0.55095 0.60209 0.0
C611 C 0.75345 0.49941 0.59229 0.0
C612 C 0.76431 0.47468 0.56829 0.0
C613 C 0.74529 0.5276 0.57911 0.0
C614 C 0.76984 0.47927 0.53158 0.0
C615 C 0.76297 0.50773 0.5185 0.0
H616 H 0.89442 0.23101 0.11297 0.0
H617 H 0.82461 0.16203 0.13362 0.0
H618 H 0.84654 0.15897 0.195 0.0
H619 H 0.89228 0.16803 0.23669 0.0
H620 H 0.96535 0.23322 0.21273 0.0
H621 H 0.93507 0.24656 0.15966 0.0
C622 C 0.88321 0.21646 0.1317 0.0
C623 C 0.85782 0.19708 0.11942 0.0
C624 C 0.89698 0.21376 0.16614 0.0
C625 C 0.84386 0.17751 0.1431 0.0
C626 C 0.85666 0.17549 0.17792 0.0
C627 C 0.90121 0.18561 0.22025 0.0
C628 C 0.93131 0.19913 0.22826 0.0
C629 C 0.8843 0.19226 0.18887 0.0
C630 C 0.94227 0.22241 0.20725 0.0
C631 C 0.9251 0.22985 0.1766 0.0
H632 H 0.15125 0.75411 0.16108 0.0
H633 H 0.24733 0.7771 0.13054 0.0
H634 H 0.26881 0.75325 0.18257 0.0
H635 H 0.26079 0.72745 0.23767 0.0
H636 H 0.16539 0.70546 0.27091 0.0
H637 H 0.14329 0.72681 0.21674 0.0
C638 C 0.17686 0.75361 0.16571 0.0
C639 C 0.19757 0.76754 0.14201 0.0
C640 C 0.18925 0.74011 0.19622 0.0
C641 C 0.23075 0.76684 0.14847 0.0
C642 C 0.24315 0.75316 0.17824 0.0
C643 C 0.23512 0.72755 0.2333 0.0
C644 C 0.21479 0.7152 0.25851 0.0
C645 C 0.22265 0.74013 0.20252 0.0
C646 C 0.18162 0.71476 0.25185 0.0
C647 C 0.16896 0.72709 0.22097 0.0
H648 H 0.73218 0.75929 0.53318 0.0
H649 H 0.77072 0.67275 0.56232 0.0
H650 H 0.81337 0.70019 0.59734 0.0
H651 H 0.8385 0.74878 0.62167 0.0
H652 H 0.80198 0.83522 0.58948 0.0
H653 H 0.75964 0.80779 0.55415 0.0
C654 C 0.74996 0.74646 0.54714 0.0
C655 C 0.74819 0.71406 0.54525 0.0
C656 C 0.7747 0.76235 0.56692 0.0
C657 C 0.7716 0.69772 0.5632 0.0
C658 C 0.79596 0.71339 0.58334 0.0
C659 C 0.82167 0.76166 0.60646 0.0
C660 C 0.82337 0.79413 0.60874 0.0
C661 C 0.79765 0.74571 0.58556 0.0
C662 C 0.80093 0.8103 0.58907 0.0
C663 C 0.77677 0.79462 0.56859 0.0
H664 H 0.75685 0.26271 0.02391 0.0
H665 H 0.72695 0.1724 0.05033 0.0
H666 H 0.68223 0.19542 0.08553 0.0
H667 H 0.65414 0.24153 0.11245 0.0
H668 H 0.68269 0.33159 0.0835 0.0
H669 H 0.72563 0.30828 0.04599 0.0
C670 C 0.74041 0.24804 0.03714 0.0
C671 C 0.74536 0.21594 0.03474 0.0
C672 C 0.71471 0.26139 0.05721 0.0
C673 C 0.72363 0.19719 0.05169 0.0
C674 C 0.69814 0.21035 0.07197 0.0
C675 C 0.66929 0.25606 0.0974 0.0
C676 C 0.66538 0.28838 0.10139 0.0
C677 C 0.69374 0.24248 0.07539 0.0
C678 C 0.68558 0.30675 0.08181 0.0
C679 C 0.71006 0.29343 0.06011 0.0
H680 H 0.34945 0.25396 0.66764 0.0
H681 H 0.25851 0.30032 0.66026 0.0
H682 H 0.24112 0.28035 0.71616 0.0
H683 H 0.25051 0.24909 0.76629 0.0
H684 H 0.34111 0.20328 0.77671 0.0
H685 H 0.35953 0.22322 0.72022 0.0
C686 C 0.32587 0.25968 0.67833 0.0
C687 C 0.30537 0.27855 0.6595 0.0
C688 C 0.31581 0.24813 0.71095 0.0
C689 C 0.2749 0.28583 0.6739 0.0
C690 C 0.26481 0.27441 0.70598 0.0
C691 C 0.27455 0.24387 0.7567 0.0
C692 C 0.29448 0.22498 0.77596 0.0
C693 C 0.28498 0.25554 0.72463 0.0
C694 C 0.32519 0.21768 0.76233 0.0
C695 C 0.33577 0.22918 0.73012 0.0
H696 H 0.65801 0.7542 0.43139 0.0
H697 H 0.68932 0.66639 0.37986 0.0
H698 H 0.69775 0.68936 0.32256 0.0
H699 H 0.70329 0.73538 0.29013 0.0
H700 H 0.67844 0.82464 0.34328 0.0
H701 H 0.65929 0.80019 0.39642 0.0
C702 C 0.66599 0.74012 0.40729 0.0
C703 C 0.6733 0.70884 0.40957 0.0
C704 C 0.67207 0.75379 0.37488 0.0
C705 C 0.68389 0.69064 0.37853 0.0
C706 C 0.6887 0.70373 0.34587 0.0
C707 C 0.69344 0.74947 0.31325 0.0
C708 C 0.69288 0.78175 0.31313 0.0
C709 C 0.68404 0.73547 0.34419 0.0
C710 C 0.67918 0.79969 0.34275 0.0
C711 C 0.66853 0.78576 0.37328 0.0
H712 H 0.83827 0.26521 0.92459 0.0
H713 H 0.81535 0.17365 0.87618 0.0
H714 H 0.80747 0.19341 0.81689 0.0
H715 H 0.80009 0.23723 0.78105 0.0
H716 H 0.81808 0.3297 0.82962 0.0
H717 H 0.83576 0.3092 0.88626 0.0
C718 C 0.83222 0.24965 0.9008 0.0
C719 C 0.82701 0.21817 0.90456 0.0
C720 C 0.82663 0.26137 0.86696 0.0
C721 C 0.81904 0.19807 0.87379 0.0
C722 C 0.81454 0.20932 0.83996 0.0
C723 C 0.8082 0.25286 0.80395 0.0
C724 C 0.80727 0.28486 0.80152 0.0
C725 C 0.81711 0.24103 0.83658 0.0
C726 C 0.81855 0.30491 0.83095 0.0
C727 C 0.82839 0.29322 0.8634 0.0
H728 H 0.23818 0.30639 0.48852 0.0
H729 H 0.27088 0.22502 0.53676 0.0
H730 H 0.23136 0.19366 0.50166 0.0
H731 H 0.18826 0.18881 0.45667 0.0
H732 H 0.15645 0.26907 0.40582 0.0
H733 H 0.19441 0.30137 0.44296 0.0
C734 C 0.23647 0.28184 0.49148 0.0
C735 C 0.25751 0.26812 0.51519 0.0
C736 C 0.21384 0.26368 0.47079 0.0
C737 C 0.25514 0.23622 0.51856 0.0
C738 C 0.2325 0.21819 0.49853 0.0
C739 C 0.18982 0.21331 0.45339 0.0
C740 C 0.16965 0.22642 0.42836 0.0
C741 C 0.21196 0.23161 0.47434 0.0
C742 C 0.1715 0.25839 0.42514 0.0
C743 C 0.19333 0.27686 0.44621 0.0
H744 H 0.27226 0.80437 0.01391 0.0
H745 H 0.19664 0.74393 0.97047 0.0
H746 H 0.2347 0.71442 0.93127 0.0
H747 H 0.28954 0.70418 0.91161 0.0
H748 H 0.36626 0.76183 0.95804 0.0
H749 H 0.32769 0.79436 0.99322 0.0
C750 C 0.26416 0.78498 0.99548 0.0
C751 C 0.23179 0.77624 0.99505 0.0
C752 C 0.28635 0.76755 0.97369 0.0
C753 C 0.22154 0.75091 0.97139 0.0
C754 C 0.24325 0.73404 0.949 0.0
C755 C 0.29793 0.72368 0.92966 0.0
C756 C 0.3308 0.73033 0.93235 0.0
C757 C 0.27577 0.74179 0.95043 0.0
C758 C 0.34108 0.75625 0.95518 0.0
C759 C 0.31905 0.77478 0.9755 0.0
loop_
_geom_bond_atom_site_label_1
_geom_bond_atom_site_label_2
_geom_bond_distance
_geom_bond_site_symmetry_2
_ccdc_geom_bond_type
Fe0 O2 1.918 . S
Fe0 O5 1.997 . S
Fe0 O6 2.002 . S
Fe0 O11 1.976 . S
Fe0 O14 1.996 . S
Fe1 O2 1.918 . S
Fe1 O9 1.997 . S
Fe1 O12 1.996 . S
Fe1 O16 1.976 . S
Fe1 O19 2.002 . S
O2 Fe0 1.918 . S
O2 Fe1 1.918 . S
O2 Fe3 1.918 . S
Fe3 O2 1.918 . S
Fe3 O4 2.002 . S
Fe3 O13 1.976 . S
Fe3 O17 1.996 1_554 S
Fe3 O20 1.997 . S
O4 Fe3 2.002 . S
O4 C21 1.295 . S
O5 Fe0 1.997 . S
O5 C21 1.235 . S
O6 Fe0 2.002 . S
O6 C7 1.295 . S
C7 O6 1.295 . S
C7 O9 1.235 . S
C8 O13 1.287 . S
C8 O14 1.255 . S
O9 Fe1 1.997 . S
O9 C7 1.235 . S
C10 O16 1.287 1_556 S
C10 O17 1.255 . S
O11 Fe0 1.976 . S
O11 C18 1.287 . S
O12 Fe1 1.996 . S
O12 C18 1.255 . S
O13 Fe3 1.976 . S
O13 C8 1.287 . S
O14 Fe0 1.996 . S
O14 C8 1.255 . S
C15 O19 1.295 . S
C15 O20 1.235 . S
O16 Fe1 1.976 . S
O16 C10 1.287 1_554 S
O17 Fe3 1.996 1_556 S
O17 C10 1.255 . S
C18 O11 1.287 . S
C18 O12 1.255 . S
O19 Fe1 2.002 . S
O19 C15 1.295 . S
O20 Fe3 1.997 . S
O20 C15 1.235 . S
C21 O4 1.295 . S
C21 O5 1.235 . S
Fe22 O24 1.918 . S
Fe22 O27 1.997 . S
Fe22 O28 2.002 . S
Fe22 O33 1.976 . S
Fe22 O36 1.996 . S
Fe23 O24 1.918 . S
Fe23 O31 1.997 . S
Fe23 O34 1.996 . S
Fe23 O38 1.976 . S
Fe23 O41 2.002 . S
O24 Fe22 1.918 . S
O24 Fe23 1.918 . S
O24 Fe25 1.918 . S
Fe25 O24 1.918 . S
Fe25 O26 2.002 . S
Fe25 O35 1.976 . S
Fe25 O39 1.996 . S
Fe25 O42 1.997 . S
O26 Fe25 2.002 . S
O26 C43 1.295 . S
O27 Fe22 1.997 . S
O27 C43 1.235 . S
O28 Fe22 2.002 . S
O28 C29 1.295 . S
C29 O28 1.295 . S
C29 O31 1.235 . S
C30 O35 1.287 . S
C30 O36 1.255 . S
O31 Fe23 1.997 . S
O31 C29 1.235 . S
C32 O38 1.287 . S
C32 O39 1.255 . S
O33 Fe22 1.976 . S
O33 C40 1.287 . S
O34 Fe23 1.996 . S
O34 C40 1.255 . S
O35 Fe25 1.976 . S
O35 C30 1.287 . S
O36 Fe22 1.996 . S
O36 C30 1.255 . S
C37 O41 1.295 . S
C37 O42 1.235 . S
O38 Fe23 1.976 . S
O38 C32 1.287 . S
O39 Fe25 1.996 . S
O39 C32 1.255 . S
C40 O33 1.287 . S
C40 O34 1.255 . S
O41 Fe23 2.002 . S
O41 C37 1.295 . S
O42 Fe25 1.997 . S
O42 C37 1.235 . S
C43 O26 1.295 . S
C43 O27 1.235 . S
Fe44 O46 1.918 . S
Fe44 O49 1.997 1_554 S
Fe44 O50 2.002 1_554 S
Fe44 O55 1.976 . S
Fe44 O58 1.996 . S
Fe45 O46 1.918 . S
Fe45 O53 1.997 1_554 S
Fe45 O56 1.996 . S
Fe45 O60 1.976 . S
Fe45 O63 2.002 1_554 S
O46 Fe44 1.918 . S
O46 Fe45 1.918 . S
O46 Fe47 1.918 1_554 S
Fe47 O46 1.918 1_556 S
Fe47 O48 2.002 . S
Fe47 O57 1.976 1_556 S
Fe47 O61 1.996 1_556 S
Fe47 O64 1.997 . S
O48 Fe47 2.002 . S
O48 C65 1.295 . S
O49 Fe44 1.997 1_556 S
O49 C65 1.235 . S
O50 Fe44 2.002 1_556 S
O50 C51 1.295 . S
C51 O50 1.295 . S
C51 O53 1.235 . S
C52 O57 1.287 . S
C52 O58 1.255 . S
O53 Fe45 1.997 1_556 S
O53 C51 1.235 . S
C54 O60 1.287 . S
C54 O61 1.255 . S
O55 Fe44 1.976 . S
O55 C62 1.287 . S
O56 Fe45 1.996 . S
O56 C62 1.255 . S
O57 Fe47 1.976 1_554 S
O57 C52 1.287 . S
O58 Fe44 1.996 . S
O58 C52 1.255 . S
C59 O63 1.295 . S
C59 O64 1.235 . S
O60 Fe45 1.976 . S
O60 C54 1.287 . S
O61 Fe47 1.996 1_554 S
O61 C54 1.255 . S
C62 O55 1.287 . S
C62 O56 1.255 . S
O63 Fe45 2.002 1_556 S
O63 C59 1.295 . S
O64 Fe47 1.997 . S
O64 C59 1.235 . S
C65 O48 1.295 . S
C65 O49 1.235 . S
Fe66 O68 1.918 . S
Fe66 O71 1.997 . S
Fe66 O72 2.002 . S
Fe66 O77 1.976 . S
Fe66 O80 1.996 . S
Fe67 O68 1.918 . S
Fe67 O75 1.997 . S
Fe67 O78 1.996 . S
Fe67 O82 1.976 . S
Fe67 O85 2.002 . S
O68 Fe66 1.918 . S
O68 Fe67 1.918 . S
O68 Fe69 1.918 . S
Fe69 O68 1.918 . S
Fe69 O70 2.002 . S
Fe69 O79 1.976 . S
Fe69 O83 1.996 . S
Fe69 O86 1.997 . S
O70 Fe69 2.002 . S
O70 C87 1.295 . S
O71 Fe66 1.997 . S
O71 C87 1.235 . S
O72 Fe66 2.002 . S
O72 C73 1.295 . S
C73 O72 1.295 . S
C73 O75 1.235 . S
C74 O79 1.287 . S
C74 O80 1.255 . S
O75 Fe67 1.997 . S
O75 C73 1.235 . S
C76 O82 1.287 . S
C76 O83 1.255 . S
O77 Fe66 1.976 . S
O77 C84 1.287 . S
O78 Fe67 1.996 . S
O78 C84 1.255 . S
O79 Fe69 1.976 . S
O79 C74 1.287 . S
O80 Fe66 1.996 . S
O80 C74 1.255 . S
C81 O85 1.295 . S
C81 O86 1.235 . S
O82 Fe67 1.976 . S
O82 C76 1.287 . S
O83 Fe69 1.996 . S
O83 C76 1.255 . S
C84 O77 1.287 . S
C84 O78 1.255 . S
O85 Fe67 2.002 . S
O85 C81 1.295 . S
O86 Fe69 1.997 . S
O86 C81 1.235 . S
C87 O70 1.295 . S
C87 O71 1.235 . S
C88 C89 1.384 . S
C88 H101 0.947 . S
C88 C123 1.382 1_655 S
C89 C88 1.384 . S
C89 C90 1.378 . S
C90 C89 1.378 . S
C90 C91 1.378 1_655 S
C90 H102 0.952 . S
C91 C90 1.378 1_455 S
C91 H103 0.950 . S
C91 C122 1.383 . S
H92 C111 0.947 . S
H93 C112 0.946 . S
H94 C114 0.953 . S
H95 C115 0.945 . S
H96 C117 0.952 . S
H97 C118 0.949 . S
H98 C120 0.950 . S
H99 C121 0.948 . S
H100 C123 0.951 . S
H101 C88 0.947 . S
H102 C90 0.952 . S
H103 C91 0.950 . S
N104 C107 1.382 . S
N104 C109 1.363 . S
N105 C107 1.371 . S
N105 C108 1.372 . S
N106 C108 1.361 . S
N106 C109 1.377 . S
C107 N104 1.382 . S
C107 N105 1.371 . S
C107 C110 1.480 . S
C108 N105 1.372 . S
C108 N106 1.361 . S
C108 C116 1.457 . S
C109 N104 1.363 . S
C109 N106 1.377 . S
C109 C122 1.479 . S
C110 C107 1.480 . S
C110 C111 1.383 . S
C110 C115 1.385 . S
C111 H92 0.947 . S
C111 C110 1.383 . S
C111 C112 1.388 . S
C112 H93 0.946 . S
C112 C111 1.388 . S
C112 C113 1.384 . S
C113 C112 1.384 . S
C113 C114 1.377 . S
C114 H94 0.953 . S
C114 C113 1.377 . S
C114 C115 1.369 . S
C115 H95 0.945 . S
C115 C110 1.385 . S
C115 C114 1.369 . S
C116 C108 1.457 . S
C116 C117 1.372 . S
C116 C121 1.364 . S
C117 H96 0.952 . S
C117 C116 1.372 . S
C117 C118 1.389 . S
C118 H97 0.949 . S
C118 C117 1.389 . S
C118 C119 1.387 . S
C119 C118 1.387 . S
C119 C120 1.372 . S
C120 H98 0.950 . S
C120 C119 1.372 . S
C120 C121 1.379 . S
C121 H99 0.948 . S
C121 C116 1.364 . S
C121 C120 1.379 . S
C122 C91 1.383 . S
C122 C109 1.479 . S
C122 C123 1.398 . S
C123 C88 1.382 1_455 S
C123 H100 0.951 . S
C123 C122 1.398 . S
C124 C125 1.384 . S
C124 H137 0.947 . S
C124 C159 1.382 . S
C125 C124 1.384 . S
C125 C126 1.378 . S
C126 C125 1.378 . S
C126 C127 1.378 . S
C126 H138 0.952 . S
C127 C126 1.378 . S
C127 H139 0.950 . S
C127 C158 1.383 . S
H128 C147 0.947 . S
H129 C148 0.946 . S
H130 C150 0.953 . S
H131 C151 0.945 . S
H132 C153 0.952 . S
H133 C154 0.949 . S
H134 C156 0.950 . S
H135 C157 0.948 . S
H136 C159 0.951 . S
H137 C124 0.947 . S
H138 C126 0.952 . S
H139 C127 0.950 . S
N140 C143 1.382 . S
N140 C145 1.363 . S
N141 C143 1.371 . S
N141 C144 1.372 . S
N142 C144 1.361 . S
N142 C145 1.377 . S
C143 N140 1.382 . S
C143 N141 1.371 . S
C143 C146 1.480 . S
C144 N141 1.372 . S
C144 N142 1.361 . S
C144 C152 1.457 . S
C145 N140 1.363 . S
C145 N142 1.377 . S
C145 C158 1.479 . S
C146 C143 1.480 . S
C146 C147 1.383 . S
C146 C151 1.385 . S
C147 H128 0.947 . S
C147 C146 1.383 . S
C147 C148 1.388 . S
C148 H129 0.946 . S
C148 C147 1.388 . S
C148 C149 1.384 . S
C149 C148 1.384 . S
C149 C150 1.377 . S
C150 H130 0.953 . S
C150 C149 1.377 . S
C150 C151 1.369 . S
C151 H131 0.945 . S
C151 C146 1.385 . S
C151 C150 1.369 . S
C152 C144 1.457 . S
C152 C153 1.372 . S
C152 C157 1.364 . S
C153 H132 0.952 . S
C153 C152 1.372 . S
C153 C154 1.389 . S
C154 H133 0.949 . S
C154 C153 1.389 . S
C154 C155 1.387 . S
C155 C154 1.387 . S
C155 C156 1.372 . S
C156 H134 0.950 . S
C156 C155 1.372 . S
C156 C157 1.379 . S
C157 H135 0.948 . S
C157 C152 1.364 . S
C157 C156 1.379 . S
C158 C127 1.383 . S
C158 C145 1.479 . S
C158 C159 1.398 . S
C159 C124 1.382 . S
C159 H136 0.951 . S
C159 C158 1.398 . S
C160 C161 1.384 . S
C160 H173 0.947 . S
C160 C195 1.382 . S
C161 C160 1.384 . S
C161 C162 1.378 . S
C162 C161 1.378 . S
C162 C163 1.378 . S
C162 H174 0.952 . S
C163 C162 1.378 . S
C163 H175 0.950 . S
C163 C194 1.383 . S
H164 C183 0.947 . S
H165 C184 0.946 . S
H166 C186 0.953 . S
H167 C187 0.945 . S
H168 C189 0.952 . S
H169 C190 0.949 . S
H170 C192 0.950 . S
H171 C193 0.948 . S
H172 C195 0.951 . S
H173 C160 0.947 . S
H174 C162 0.952 . S
H175 C163 0.950 . S
N176 C179 1.382 . S
N176 C181 1.363 . S
N177 C179 1.371 . S
N177 C180 1.372 . S
N178 C180 1.361 . S
N178 C181 1.377 . S
C179 N176 1.382 . S
C179 N177 1.371 . S
C179 C182 1.480 . S
C180 N177 1.372 . S
C180 N178 1.361 . S
C180 C188 1.457 . S
C181 N176 1.363 . S
C181 N178 1.377 . S
C181 C194 1.479 . S
C182 C179 1.480 . S
C182 C183 1.383 . S
C182 C187 1.385 . S
C183 H164 0.947 . S
C183 C182 1.383 . S
C183 C184 1.388 . S
C184 H165 0.946 . S
C184 C183 1.388 . S
C184 C185 1.384 . S
C185 C184 1.384 . S
C185 C186 1.377 . S
C186 H166 0.953 . S
C186 C185 1.377 . S
C186 C187 1.369 . S
C187 H167 0.945 . S
C187 C182 1.385 . S
C187 C186 1.369 . S
C188 C180 1.457 . S
C188 C189 1.372 . S
C188 C193 1.364 . S
C189 H168 0.952 . S
C189 C188 1.372 . S
C189 C190 1.389 . S
C190 H169 0.949 . S
C190 C189 1.389 . S
C190 C191 1.387 . S
C191 C190 1.387 . S
C191 C192 1.372 . S
C192 H170 0.950 . S
C192 C191 1.372 . S
C192 C193 1.379 . S
C193 H171 0.948 . S
C193 C188 1.364 . S
C193 C192 1.379 . S
C194 C163 1.383 . S
C194 C181 1.479 . S
C194 C195 1.398 . S
C195 C160 1.382 . S
C195 H172 0.951 . S
C195 C194 1.398 . S
C196 C197 1.384 . S
C196 H209 0.947 . S
C196 C231 1.382 . S
C197 C196 1.384 . S
C197 C198 1.378 . S
C198 C197 1.378 . S
C198 C199 1.378 . S
C198 H210 0.952 . S
C199 C198 1.378 . S
C199 H211 0.950 . S
C199 C230 1.383 . S
H200 C219 0.947 . S
H201 C220 0.946 . S
H202 C222 0.953 . S
H203 C223 0.945 . S
H204 C225 0.952 . S
H205 C226 0.949 . S
H206 C228 0.950 . S
H207 C229 0.948 . S
H208 C231 0.951 . S
H209 C196 0.947 . S
H210 C198 0.952 . S
H211 C199 0.950 . S
N212 C215 1.382 . S
N212 C217 1.363 . S
N213 C215 1.371 . S
N213 C216 1.372 . S
N214 C216 1.361 . S
N214 C217 1.377 . S
C215 N212 1.382 . S
C215 N213 1.371 . S
C215 C218 1.480 . S
C216 N213 1.372 . S
C216 N214 1.361 . S
C216 C224 1.457 . S
C217 N212 1.363 . S
C217 N214 1.377 . S
C217 C230 1.479 . S
C218 C215 1.480 . S
C218 C219 1.383 . S
C218 C223 1.385 . S
C219 H200 0.947 . S
C219 C218 1.383 . S
C219 C220 1.388 . S
C220 H201 0.946 . S
C220 C219 1.388 . S
C220 C221 1.384 . S
C221 C220 1.384 . S
C221 C222 1.377 . S
C222 H202 0.953 . S
C222 C221 1.377 . S
C222 C223 1.369 . S
C223 H203 0.945 . S
C223 C218 1.385 . S
C223 C222 1.369 . S
C224 C216 1.457 . S
C224 C225 1.372 . S
C224 C229 1.364 . S
C225 H204 0.952 . S
C225 C224 1.372 . S
C225 C226 1.389 . S
C226 H205 0.949 . S
C226 C225 1.389 . S
C226 C227 1.387 . S
C227 C226 1.387 . S
C227 C228 1.372 . S
C228 H206 0.950 . S
C228 C227 1.372 . S
C228 C229 1.379 . S
C229 H207 0.948 . S
C229 C224 1.364 . S
C229 C228 1.379 . S
C230 C199 1.383 . S
C230 C217 1.479 . S
C230 C231 1.398 . S
C231 C196 1.382 . S
C231 H208 0.951 . S
C231 C230 1.398 . S
C232 C233 1.384 . S
C232 H245 0.947 . S
C232 C267 1.382 . S
C233 C232 1.384 . S
C233 C234 1.378 . S
C234 C233 1.378 . S
C234 C235 1.378 . S
C234 H246 0.952 . S
C235 C234 1.378 . S
C235 H247 0.950 . S
C235 C266 1.383 . S
H236 C255 0.947 . S
H237 C256 0.946 . S
H238 C258 0.953 . S
H239 C259 0.945 . S
H240 C261 0.952 . S
H241 C262 0.949 . S
H242 C264 0.950 . S
H243 C265 0.948 . S
H244 C267 0.951 . S
H245 C232 0.947 . S
H246 C234 0.952 . S
H247 C235 0.950 . S
N248 C251 1.382 . S
N248 C253 1.363 . S
N249 C251 1.371 . S
N249 C252 1.372 . S
N250 C252 1.361 . S
N250 C253 1.377 . S
C251 N248 1.382 . S
C251 N249 1.371 . S
C251 C254 1.480 . S
C252 N249 1.372 . S
C252 N250 1.361 . S
C252 C260 1.457 . S
C253 N248 1.363 . S
C253 N250 1.377 . S
C253 C266 1.479 . S
C254 C251 1.480 . S
C254 C255 1.383 . S
C254 C259 1.385 . S
C255 H236 0.947 . S
C255 C254 1.383 . S
C255 C256 1.388 . S
C256 H237 0.946 . S
C256 C255 1.388 . S
C256 C257 1.384 . S
C257 C256 1.384 . S
C257 C258 1.377 . S
C258 H238 0.953 . S
C258 C257 1.377 . S
C258 C259 1.369 . S
C259 H239 0.945 . S
C259 C254 1.385 . S
C259 C258 1.369 . S
C260 C252 1.457 . S
C260 C261 1.372 . S
C260 C265 1.364 . S
C261 H240 0.952 . S
C261 C260 1.372 . S
C261 C262 1.389 . S
C262 H241 0.949 . S
C262 C261 1.389 . S
C262 C263 1.387 . S
C263 C262 1.387 . S
C263 C264 1.372 . S
C264 H242 0.950 . S
C264 C263 1.372 . S
C264 C265 1.379 . S
C265 H243 0.948 . S
C265 C260 1.364 . S
C265 C264 1.379 . S
C266 C235 1.383 . S
C266 C253 1.479 . S
C266 C267 1.398 . S
C267 C232 1.382 . S
C267 H244 0.951 . S
C267 C266 1.398 . S
C268 C269 1.384 . S
C268 H281 0.947 . S
C268 C303 1.382 . S
C269 C268 1.384 . S
C269 C270 1.378 . S
C270 C269 1.378 . S
C270 C271 1.378 . S
C270 H282 0.952 . S
C271 C270 1.378 . S
C271 H283 0.950 . S
C271 C302 1.383 . S
H272 C291 0.947 . S
H273 C292 0.946 . S
H274 C294 0.953 . S
H275 C295 0.945 . S
H276 C297 0.952 . S
H277 C298 0.949 . S
H278 C300 0.950 . S
H279 C301 0.948 . S
H280 C303 0.951 . S
H281 C268 0.947 . S
H282 C270 0.952 . S
H283 C271 0.950 . S
N284 C287 1.382 . S
N284 C289 1.363 . S
N285 C287 1.371 . S
N285 C288 1.372 . S
N286 C288 1.361 . S
N286 C289 1.377 . S
C287 N284 1.382 . S
C287 N285 1.371 . S
C287 C290 1.480 . S
C288 N285 1.372 . S
C288 N286 1.361 . S
C288 C296 1.457 . S
C289 N284 1.363 . S
C289 N286 1.377 . S
C289 C302 1.479 . S
C290 C287 1.480 . S
C290 C291 1.383 . S
C290 C295 1.385 . S
C291 H272 0.947 . S
C291 C290 1.383 . S
C291 C292 1.388 . S
C292 H273 0.946 . S
C292 C291 1.388 . S
C292 C293 1.384 . S
C293 C292 1.384 . S
C293 C294 1.377 . S
C294 H274 0.953 . S
C294 C293 1.377 . S
C294 C295 1.369 . S
C295 H275 0.945 . S
C295 C290 1.385 . S
C295 C294 1.369 . S
C296 C288 1.457 . S
C296 C297 1.372 . S
C296 C301 1.364 . S
C297 H276 0.952 . S
C297 C296 1.372 . S
C297 C298 1.389 . S
C298 H277 0.949 . S
C298 C297 1.389 . S
C298 C299 1.387 . S
C299 C298 1.387 . S
C299 C300 1.372 . S
C300 H278 0.950 . S
C300 C299 1.372 . S
C300 C301 1.379 . S
C301 H279 0.948 . S
C301 C296 1.364 . S
C301 C300 1.379 . S
C302 C271 1.383 . S
C302 C289 1.479 . S
C302 C303 1.398 . S
C303 C268 1.382 . S
C303 H280 0.951 . S
C303 C302 1.398 . S
C304 C305 1.384 . S
C304 H317 0.947 . S
C304 C339 1.382 . S
C305 C304 1.384 . S
C305 C306 1.378 . S
C306 C305 1.378 . S
C306 C307 1.378 . S
C306 H318 0.952 . S
C307 C306 1.378 . S
C307 H319 0.950 . S
C307 C338 1.383 . S
H308 C327 0.947 . S
H309 C328 0.946 . S
H310 C330 0.953 . S
H311 C331 0.945 . S
H312 C333 0.952 . S
H313 C334 0.949 . S
H314 C336 0.950 . S
H315 C337 0.948 . S
H316 C339 0.951 . S
H317 C304 0.947 . S
H318 C306 0.952 . S
H319 C307 0.950 . S
N320 C323 1.382 . S
N320 C325 1.363 . S
N321 C323 1.371 . S
N321 C324 1.372 . S
N322 C324 1.361 . S
N322 C325 1.377 . S
C323 N320 1.382 . S
C323 N321 1.371 . S
C323 C326 1.480 . S
C324 N321 1.372 . S
C324 N322 1.361 . S
C324 C332 1.457 . S
C325 N320 1.363 . S
C325 N322 1.377 . S
C325 C338 1.479 . S
C326 C323 1.480 . S
C326 C327 1.383 . S
C326 C331 1.385 . S
C327 H308 0.947 . S
C327 C326 1.383 . S
C327 C328 1.388 . S
C328 H309 0.946 . S
C328 C327 1.388 . S
C328 C329 1.384 . S
C329 C328 1.384 . S
C329 C330 1.377 . S
C330 H310 0.953 . S
C330 C329 1.377 . S
C330 C331 1.369 . S
C331 H311 0.945 . S
C331 C326 1.385 . S
C331 C330 1.369 . S
C332 C324 1.457 . S
C332 C333 1.372 . S
C332 C337 1.364 . S
C333 H312 0.952 . S
C333 C332 1.372 . S
C333 C334 1.389 . S
C334 H313 0.949 . S
C334 C333 1.389 . S
C334 C335 1.387 . S
C335 C334 1.387 . S
C335 C336 1.372 . S
C336 H314 0.950 . S
C336 C335 1.372 . S
C336 C337 1.379 . S
C337 H315 0.948 . S
C337 C332 1.364 . S
C337 C336 1.379 . S
C338 C307 1.383 . S
C338 C325 1.479 . S
C338 C339 1.398 . S
C339 C304 1.382 . S
C339 H316 0.951 . S
C339 C338 1.398 . S
C340 C341 1.384 . S
C340 H353 0.947 . S
C340 C375 1.382 . S
C341 C340 1.384 . S
C341 C342 1.378 . S
C342 C341 1.378 . S
C342 C343 1.378 . S
C342 H354 0.952 . S
C343 C342 1.378 . S
C343 H355 0.950 . S
C343 C374 1.383 . S
H344 C363 0.947 . S
H345 C364 0.946 . S
H346 C366 0.953 . S
H347 C367 0.945 . S
H348 C369 0.952 . S
H349 C370 0.949 . S
H350 C372 0.950 . S
H351 C373 0.948 . S
H352 C375 0.951 . S
H353 C340 0.947 . S
H354 C342 0.952 . S
H355 C343 0.950 . S
N356 C359 1.382 . S
N356 C361 1.363 . S
N357 C359 1.371 . S
N357 C360 1.372 . S
N358 C360 1.361 . S
N358 C361 1.377 . S
C359 N356 1.382 . S
C359 N357 1.371 . S
C359 C362 1.480 . S
C360 N357 1.372 . S
C360 N358 1.361 . S
C360 C368 1.457 . S
C361 N356 1.363 . S
C361 N358 1.377 . S
C361 C374 1.479 . S
C362 C359 1.480 . S
C362 C363 1.383 . S
C362 C367 1.385 . S
C363 H344 0.947 . S
C363 C362 1.383 . S
C363 C364 1.388 . S
C364 H345 0.946 . S
C364 C363 1.388 . S
C364 C365 1.384 . S
C365 C364 1.384 . S
C365 C366 1.377 . S
C366 H346 0.953 . S
C366 C365 1.377 . S
C366 C367 1.369 . S
C367 H347 0.945 . S
C367 C362 1.385 . S
C367 C366 1.369 . S
C368 C360 1.457 . S
C368 C369 1.372 . S
C368 C373 1.364 . S
C369 H348 0.952 . S
C369 C368 1.372 . S
C369 C370 1.389 1_655 S
C370 H349 0.949 . S
C370 C369 1.389 1_455 S
C370 C371 1.387 . S
C371 C370 1.387 . S
C371 C372 1.372 . S
C372 H350 0.950 . S
C372 C371 1.372 . S
C372 C373 1.379 1_455 S
C373 H351 0.948 . S
C373 C368 1.364 . S
C373 C372 1.379 1_655 S
C374 C343 1.383 . S
C374 C361 1.479 . S
C374 C375 1.398 . S
C375 C340 1.382 . S
C375 H352 0.951 . S
C375 C374 1.398 . S
H376 C382 0.930 . S
H377 C385 0.930 . S
H378 C386 0.930 . S
H379 C387 0.930 . S
H380 C390 0.930 . S
H381 C391 0.930 . S
C382 H376 0.930 . S
C382 C383 1.355 . S
C382 C384 1.415 . S
C383 C382 1.355 . S
C383 C385 1.419 . S
C384 C382 1.415 . S
C384 C389 1.425 . S
C384 C391 1.409 . S
C385 H377 0.930 . S
C385 C383 1.419 . S
C385 C386 1.362 . S
C386 H378 0.930 . S
C386 C385 1.362 . S
C386 C389 1.409 . S
C387 H379 0.930 . S
C387 C388 1.355 . S
C387 C389 1.415 . S
C388 C387 1.355 . S
C388 C390 1.419 . S
C389 C384 1.425 . S
C389 C386 1.409 . S
C389 C387 1.415 . S
C390 H380 0.930 . S
C390 C388 1.419 . S
C390 C391 1.362 . S
C391 H381 0.930 . S
C391 C384 1.409 . S
C391 C390 1.362 . S
H392 C398 0.930 . S
H393 C401 0.930 . S
H394 C402 0.930 . S
H395 C403 0.930 . S
H396 C406 0.930 . S
H397 C407 0.930 . S
C398 H392 0.930 . S
C398 C399 1.355 . S
C398 C400 1.415 . S
C399 C398 1.355 . S
C399 C401 1.419 . S
C400 C398 1.415 . S
C400 C405 1.425 . S
C400 C407 1.409 . S
C401 H393 0.930 . S
C401 C399 1.419 . S
C401 C402 1.362 . S
C402 H394 0.930 . S
C402 C401 1.362 . S
C402 C405 1.409 . S
C403 H395 0.930 . S
C403 C404 1.355 . S
C403 C405 1.415 . S
C404 C403 1.355 . S
C404 C406 1.419 . S
C405 C400 1.425 . S
C405 C402 1.409 . S
C405 C403 1.415 . S
C406 H396 0.930 . S
C406 C404 1.419 . S
C406 C407 1.362 . S
C407 H397 0.930 . S
C407 C400 1.409 . S
C407 C406 1.362 . S
H408 C414 0.930 . S
H409 C417 0.930 . S
H410 C418 0.930 . S
H411 C419 0.930 . S
H412 C422 0.930 . S
H413 C423 0.930 1_545 S
C414 H408 0.930 . S
C414 C415 1.355 . S
C414 C416 1.415 . S
C415 C414 1.355 . S
C415 C417 1.419 . S
C416 C414 1.415 . S
C416 C421 1.425 . S
C416 C423 1.401 1_545 S
C417 H409 0.930 . S
C417 C415 1.419 . S
C417 C418 1.362 . S
C418 H410 0.930 . S
C418 C417 1.362 . S
C418 C421 1.409 . S
C419 H411 0.930 . S
C419 C420 1.355 . S
C419 C421 1.415 1_565 S
C420 C419 1.355 . S
C420 C422 1.419 . S
C421 C416 1.425 . S
C421 C418 1.409 . S
C421 C419 1.415 1_545 S
C422 H412 0.930 . S
C422 C420 1.419 . S
C422 C423 1.371 . S
C423 H413 0.930 1_565 S
C423 C416 1.401 1_565 S
C423 C422 1.371 . S
H424 C430 0.930 . S
H425 C433 0.930 . S
H426 C434 0.930 . S
H427 C435 0.930 . S
H428 C438 0.930 . S
H429 C439 0.930 . S
C430 H424 0.930 . S
C430 C431 1.355 . S
C430 C432 1.415 . S
C431 C430 1.355 . S
C431 C433 1.419 . S
C432 C430 1.415 . S
C432 C437 1.425 . S
C432 C439 1.409 . S
C433 H425 0.930 . S
C433 C431 1.419 . S
C433 C434 1.362 . S
C434 H426 0.930 . S
C434 C433 1.362 . S
C434 C437 1.409 . S
C435 H427 0.930 . S
C435 C436 1.355 . S
C435 C437 1.415 . S
C436 C435 1.355 . S
C436 C438 1.419 . S
C437 C432 1.425 . S
C437 C434 1.409 . S
C437 C435 1.415 . S
C438 H428 0.930 . S
C438 C436 1.419 . S
C438 C439 1.362 . S
C439 H429 0.930 . S
C439 C432 1.409 . S
C439 C438 1.362 . S
H440 C446 0.930 . S
H441 C449 0.930 . S
H442 C450 0.930 . S
H443 C451 0.930 . S
H444 C454 0.930 . S
H445 C455 0.930 . S
C446 H440 0.930 . S
C446 C447 1.355 . S
C446 C448 1.415 . S
C447 C446 1.355 . S
C447 C449 1.419 . S
C448 C446 1.415 . S
C448 C453 1.425 . S
C448 C455 1.409 . S
C449 H441 0.930 . S
C449 C447 1.419 . S
C449 C450 1.362 . S
C450 H442 0.930 . S
C450 C449 1.362 . S
C450 C453 1.409 . S
C451 H443 0.930 . S
C451 C452 1.355 . S
C451 C453 1.415 . S
C452 C451 1.355 . S
C452 C454 1.419 . S
C453 C448 1.425 . S
C453 C450 1.409 . S
C453 C451 1.415 . S
C454 H444 0.930 . S
C454 C452 1.419 . S
C454 C455 1.362 . S
C455 H445 0.930 . S
C455 C448 1.409 . S
C455 C454 1.362 . S
H456 C462 0.930 . S
H457 C465 0.930 . S
H458 C466 0.930 . S
H459 C467 0.930 1_554 S
H460 C470 0.930 . S
H461 C471 0.930 . S
C462 H456 0.930 . S
C462 C463 1.355 . S
C462 C464 1.415 1_655 S
C463 C462 1.355 . S
C463 C465 1.419 1_556 S
C464 C462 1.415 1_455 S
C464 C469 1.425 . S
C464 C471 1.409 . S
C465 H457 0.930 . S
C465 C463 1.419 1_554 S
C465 C466 1.362 . S
C466 H458 0.930 . S
C466 C465 1.362 . S
C466 C469 1.409 1_654 S
C467 H459 0.930 1_556 S
C467 C468 1.355 . S
C467 C469 1.415 . S
C468 C467 1.355 . S
C468 C470 1.419 . S
C469 C464 1.425 . S
C469 C466 1.409 1_456 S
C469 C467 1.415 . S
C470 H460 0.930 . S
C470 C468 1.419 . S
C470 C471 1.362 . S
C471 H461 0.930 . S
C471 C464 1.409 . S
C471 C470 1.362 . S
H472 C478 0.930 . S
H473 C481 0.930 . S
H474 C482 0.930 . S
H475 C483 0.930 . S
H476 C486 0.930 . S
H477 C487 0.930 . S
C478 H472 0.930 . S
C478 C479 1.355 . S
C478 C480 1.415 . S
C479 C478 1.355 . S
C479 C481 1.419 . S
C480 C478 1.415 . S
C480 C485 1.425 . S
C480 C487 1.409 . S
C481 H473 0.930 . S
C481 C479 1.419 . S
C481 C482 1.362 . S
C482 H474 0.930 . S
C482 C481 1.362 . S
C482 C485 1.409 . S
C483 H475 0.930 . S
C483 C484 1.355 . S
C483 C485 1.415 . S
C484 C483 1.355 . S
C484 C486 1.419 . S
C485 C480 1.425 . S
C485 C482 1.409 . S
C485 C483 1.415 . S
C486 H476 0.930 . S
C486 C484 1.419 . S
C486 C487 1.362 . S
C487 H477 0.930 . S
C487 C480 1.409 . S
C487 C486 1.362 . S
H488 C494 0.930 . S
H489 C497 0.930 . S
H490 C498 0.930 . S
H491 C499 0.930 . S
H492 C502 0.930 . S
H493 C503 0.930 . S
C494 H488 0.930 . S
C494 C495 1.355 . S
C494 C496 1.415 . S
C495 C494 1.355 . S
C495 C497 1.419 . S
C496 C494 1.415 . S
C496 C501 1.425 . S
C496 C503 1.409 . S
C497 H489 0.930 . S
C497 C495 1.419 . S
C497 C498 1.362 . S
C498 H490 0.930 . S
C498 C497 1.362 . S
C498 C501 1.409 . S
C499 H491 0.930 . S
C499 C500 1.355 . S
C499 C501 1.415 . S
C500 C499 1.355 . S
C500 C502 1.419 . S
C501 C496 1.425 . S
C501 C498 1.409 . S
C501 C499 1.415 . S
C502 H492 0.930 . S
C502 C500 1.419 . S
C502 C503 1.362 . S
C503 H493 0.930 . S
C503 C496 1.409 . S
C503 C502 1.362 . S
H504 C510 0.930 . S
H505 C513 0.930 . S
H506 C514 0.930 . S
H507 C515 0.930 1_565 S
H508 C518 0.930 . S
H509 C519 0.930 . S
C510 H504 0.930 . S
C510 C511 1.355 . S
C510 C512 1.415 . S
C511 C510 1.355 . S
C511 C513 1.419 . S
C512 C510 1.415 . S
C512 C517 1.425 . S
C512 C519 1.409 . S
C513 H505 0.930 . S
C513 C511 1.419 . S
C513 C514 1.362 . S
C514 H506 0.930 . S
C514 C513 1.362 . S
C514 C517 1.409 . S
C515 H507 0.930 1_545 S
C515 C516 1.355 . S
C515 C517 1.415 . S
C516 C515 1.355 . S
C516 C518 1.419 . S
C517 C512 1.425 . S
C517 C514 1.409 . S
C517 C515 1.415 . S
C518 H508 0.930 . S
C518 C516 1.419 . S
C518 C519 1.362 . S
C519 H509 0.930 . S
C519 C512 1.409 . S
C519 C518 1.362 . S
H520 C526 0.930 . S
H521 C529 0.930 . S
H522 C530 0.930 . S
H523 C531 0.930 . S
H524 C534 0.930 . S
H525 C535 0.930 . S
C526 H520 0.930 . S
C526 C527 1.355 . S
C526 C528 1.415 . S
C527 C526 1.355 . S
C527 C529 1.419 . S
C528 C526 1.415 . S
C528 C533 1.425 . S
C528 C535 1.409 . S
C529 H521 0.930 . S
C529 C527 1.419 . S
C529 C530 1.362 . S
C530 H522 0.930 . S
C530 C529 1.362 . S
C530 C533 1.409 . S
C531 H523 0.930 . S
C531 C532 1.355 . S
C531 C533 1.415 . S
C532 C531 1.355 . S
C532 C534 1.419 . S
C533 C528 1.425 . S
C533 C530 1.409 . S
C533 C531 1.415 . S
C534 H524 0.930 . S
C534 C532 1.419 . S
C534 C535 1.362 . S
C535 H525 0.930 . S
C535 C528 1.409 . S
C535 C534 1.362 . S
H536 C542 0.930 . S
H537 C545 0.930 . S
H538 C546 0.930 . S
H539 C547 0.930 . S
H540 C550 0.930 . S
H541 C551 0.930 . S
C542 H536 0.930 . S
C542 C543 1.355 . S
C542 C544 1.415 . S
C543 C542 1.355 . S
C543 C545 1.419 1_554 S
C544 C542 1.415 . S
C544 C549 1.425 1_554 S
C544 C551 1.409 . S
C545 H537 0.930 . S
C545 C543 1.419 1_556 S
C545 C546 1.362 . S
C546 H538 0.930 . S
C546 C545 1.362 . S
C546 C549 1.409 . S
C547 H539 0.930 . S
C547 C548 1.355 . S
C547 C549 1.415 1_545 S
C548 C547 1.355 . S
C548 C550 1.419 1_556 S
C549 C544 1.425 1_556 S
C549 C546 1.409 . S
C549 C547 1.415 1_565 S
C550 H540 0.930 . S
C550 C548 1.419 1_554 S
C550 C551 1.362 1_545 S
C551 H541 0.930 . S
C551 C544 1.409 . S
C551 C550 1.362 1_565 S
H552 C558 0.930 . S
H553 C561 0.930 . S
H554 C562 0.930 . S
H555 C563 0.930 . S
H556 C566 0.930 . S
H557 C567 0.930 . S
C558 H552 0.930 . S
C558 C559 1.355 . S
C558 C560 1.415 . S
C559 C558 1.355 . S
C559 C561 1.419 . S
C560 C558 1.415 . S
C560 C565 1.425 . S
C560 C567 1.409 . S
C561 H553 0.930 . S
C561 C559 1.419 . S
C561 C562 1.362 . S
C562 H554 0.930 . S
C562 C561 1.362 . S
C562 C565 1.409 . S
C563 H555 0.930 . S
C563 C564 1.355 . S
C563 C565 1.415 . S
C564 C563 1.355 . S
C564 C566 1.419 . S
C565 C560 1.425 . S
C565 C562 1.409 . S
C565 C563 1.415 . S
C566 H556 0.930 . S
C566 C564 1.419 . S
C566 C567 1.362 . S
C567 H557 0.930 . S
C567 C560 1.409 . S
C567 C566 1.362 . S
H568 C574 0.930 . S
H569 C577 0.930 . S
H570 C578 0.930 . S
H571 C579 0.930 . S
H572 C582 0.930 . S
H573 C583 0.930 . S
C574 H568 0.930 . S
C574 C575 1.355 . S
C574 C576 1.415 . S
C575 C574 1.355 . S
C575 C577 1.419 . S
C576 C574 1.415 . S
C576 C581 1.425 . S
C576 C583 1.409 . S
C577 H569 0.930 . S
C577 C575 1.419 . S
C577 C578 1.362 . S
C578 H570 0.930 . S
C578 C577 1.362 . S
C578 C581 1.409 . S
C579 H571 0.930 . S
C579 C580 1.355 . S
C579 C581 1.415 . S
C580 C579 1.355 . S
C580 C582 1.419 . S
C581 C576 1.425 . S
C581 C578 1.409 . S
C581 C579 1.415 . S
C582 H572 0.930 . S
C582 C580 1.419 . S
C582 C583 1.362 . S
C583 H573 0.930 . S
C583 C576 1.409 . S
C583 C582 1.362 . S
H584 C590 0.930 . S
H585 C593 0.930 . S
H586 C594 0.930 1_655 S
H587 C595 0.930 . S
H588 C598 0.930 . S
H589 C599 0.930 . S
C590 H584 0.930 . S
C590 C591 1.355 . S
C590 C592 1.415 1_455 S
C591 C590 1.355 . S
C591 C593 1.419 . S
C592 C590 1.415 1_655 S
C592 C597 1.425 . S
C592 C599 1.409 . S
C593 H585 0.930 . S
C593 C591 1.419 . S
C593 C594 1.362 . S
C594 H586 0.930 1_455 S
C594 C593 1.362 . S
C594 C597 1.409 1_455 S
C595 H587 0.930 . S
C595 C596 1.355 . S
C595 C597 1.415 . S
C596 C595 1.355 . S
C596 C598 1.419 . S
C597 C592 1.425 . S
C597 C594 1.409 1_655 S
C597 C595 1.415 . S
C598 H588 0.930 . S
C598 C596 1.419 . S
C598 C599 1.362 . S
C599 H589 0.930 . S
C599 C592 1.409 . S
C599 C598 1.362 . S
H600 C606 0.930 . S
H601 C609 0.930 . S
H602 C610 0.930 . S
H603 C611 0.930 . S
H604 C614 0.930 . S
H605 C615 0.930 . S
C606 H600 0.930 . S
C606 C607 1.355 . S
C606 C608 1.415 . S
C607 C606 1.355 . S
C607 C609 1.419 . S
C608 C606 1.415 . S
C608 C613 1.425 . S
C608 C615 1.409 . S
C609 H601 0.930 . S
C609 C607 1.419 . S
C609 C610 1.362 . S
C610 H602 0.930 . S
C610 C609 1.362 . S
C610 C613 1.409 . S
C611 H603 0.930 . S
C611 C612 1.355 . S
C611 C613 1.415 . S
C612 C611 1.355 . S
C612 C614 1.419 . S
C613 C608 1.425 . S
C613 C610 1.409 . S
C613 C611 1.415 . S
C614 H604 0.930 . S
C614 C612 1.419 . S
C614 C615 1.362 . S
C615 H605 0.930 . S
C615 C608 1.409 . S
C615 C614 1.362 . S
H616 C622 0.930 . S
H617 C625 0.930 . S
H618 C626 0.930 . S
H619 C627 0.930 . S
H620 C630 0.930 . S
H621 C631 0.930 . S
C622 H616 0.930 . S
C622 C623 1.355 . S
C622 C624 1.415 . S
C623 C622 1.355 . S
C623 C625 1.419 . S
C624 C622 1.415 . S
C624 C629 1.425 . S
C624 C631 1.409 . S
C625 H617 0.930 . S
C625 C623 1.419 . S
C625 C626 1.362 . S
C626 H618 0.930 . S
C626 C625 1.362 . S
C626 C629 1.409 . S
C627 H619 0.930 . S
C627 C628 1.355 . S
C627 C629 1.415 . S
C628 C627 1.355 . S
C628 C630 1.419 . S
C629 C624 1.425 . S
C629 C626 1.409 . S
C629 C627 1.415 . S
C630 H620 0.930 . S
C630 C628 1.419 . S
C630 C631 1.362 . S
C631 H621 0.930 . S
C631 C624 1.409 . S
C631 C630 1.362 . S
H632 C638 0.930 . S
H633 C641 0.930 . S
H634 C642 0.930 . S
H635 C643 0.930 . S
H636 C646 0.930 . S
H637 C647 0.930 . S
C638 H632 0.930 . S
C638 C639 1.355 . S
C638 C640 1.415 . S
C639 C638 1.355 . S
C639 C641 1.419 . S
C640 C638 1.415 . S
C640 C645 1.425 . S
C640 C647 1.409 . S
C641 H633 0.930 . S
C641 C639 1.419 . S
C641 C642 1.362 . S
C642 H634 0.930 . S
C642 C641 1.362 . S
C642 C645 1.409 . S
C643 H635 0.930 . S
C643 C644 1.355 . S
C643 C645 1.415 . S
C644 C643 1.355 . S
C644 C646 1.419 . S
C645 C640 1.425 . S
C645 C642 1.409 . S
C645 C643 1.415 . S
C646 H636 0.930 . S
C646 C644 1.419 . S
C646 C647 1.362 . S
C647 H637 0.930 . S
C647 C640 1.409 . S
C647 C646 1.362 . S
H648 C654 0.930 . S
H649 C657 0.930 . S
H650 C658 0.930 . S
H651 C659 0.930 . S
H652 C662 0.930 . S
H653 C663 0.930 . S
C654 H648 0.930 . S
C654 C655 1.355 . S
C654 C656 1.415 . S
C655 C654 1.355 . S
C655 C657 1.419 . S
C656 C654 1.415 . S
C656 C661 1.425 . S
C656 C663 1.409 . S
C657 H649 0.930 . S
C657 C655 1.419 . S
C657 C658 1.362 . S
C658 H650 0.930 . S
C658 C657 1.362 . S
C658 C661 1.409 . S
C659 H651 0.930 . S
C659 C660 1.355 . S
C659 C661 1.415 . S
C660 C659 1.355 . S
C660 C662 1.419 . S
C661 C656 1.425 . S
C661 C658 1.409 . S
C661 C659 1.415 . S
C662 H652 0.930 . S
C662 C660 1.419 . S
C662 C663 1.362 . S
C663 H653 0.930 . S
C663 C656 1.409 . S
C663 C662 1.362 . S
H664 C670 0.930 . S
H665 C673 0.930 . S
H666 C674 0.930 . S
H667 C675 0.930 . S
H668 C678 0.930 . S
H669 C679 0.930 . S
C670 H664 0.930 . S
C670 C671 1.355 . S
C670 C672 1.415 . S
C671 C670 1.355 . S
C671 C673 1.419 . S
C672 C670 1.415 . S
C672 C677 1.425 . S
C672 C679 1.409 . S
C673 H665 0.930 . S
C673 C671 1.419 . S
C673 C674 1.362 . S
C674 H666 0.930 . S
C674 C673 1.362 . S
C674 C677 1.409 . S
C675 H667 0.930 . S
C675 C676 1.355 . S
C675 C677 1.415 . S
C676 C675 1.355 . S
C676 C678 1.419 . S
C677 C672 1.425 . S
C677 C674 1.409 . S
C677 C675 1.415 . S
C678 H668 0.930 . S
C678 C676 1.419 . S
C678 C679 1.362 . S
C679 H669 0.930 . S
C679 C672 1.409 . S
C679 C678 1.362 . S
H680 C686 0.930 . S
H681 C689 0.930 . S
H682 C690 0.930 . S
H683 C691 0.930 . S
H684 C694 0.930 . S
H685 C695 0.930 . S
C686 H680 0.930 . S
C686 C687 1.355 . S
C686 C688 1.415 . S
C687 C686 1.355 . S
C687 C689 1.419 . S
C688 C686 1.415 . S
C688 C693 1.425 . S
C688 C695 1.409 . S
C689 H681 0.930 . S
C689 C687 1.419 . S
C689 C690 1.362 . S
C690 H682 0.930 . S
C690 C689 1.362 . S
C690 C693 1.409 . S
C691 H683 0.930 . S
C691 C692 1.355 . S
C691 C693 1.415 . S
C692 C691 1.355 . S
C692 C694 1.419 . S
C693 C688 1.425 . S
C693 C690 1.409 . S
C693 C691 1.415 . S
C694 H684 0.930 . S
C694 C692 1.419 . S
C694 C695 1.362 . S
C695 H685 0.930 . S
C695 C688 1.409 . S
C695 C694 1.362 . S
H696 C702 0.930 . S
H697 C705 0.930 . S
H698 C706 0.930 . S
H699 C707 0.930 . S
H700 C710 0.930 . S
H701 C711 0.930 . S
C702 H696 0.930 . S
C702 C703 1.355 . S
C702 C704 1.415 . S
C703 C702 1.355 . S
C703 C705 1.419 . S
C704 C702 1.415 . S
C704 C709 1.425 . S
C704 C711 1.409 . S
C705 H697 0.930 . S
C705 C703 1.419 . S
C705 C706 1.362 . S
C706 H698 0.930 . S
C706 C705 1.362 . S
C706 C709 1.409 . S
C707 H699 0.930 . S
C707 C708 1.355 . S
C707 C709 1.415 . S
C708 C707 1.355 . S
C708 C710 1.419 . S
C709 C704 1.425 . S
C709 C706 1.409 . S
C709 C707 1.415 . S
C710 H700 0.930 . S
C710 C708 1.419 . S
C710 C711 1.362 . S
C711 H701 0.930 . S
C711 C704 1.409 . S
C711 C710 1.362 . S
H712 C718 0.930 . S
H713 C721 0.930 . S
H714 C722 0.930 . S
H715 C723 0.930 . S
H716 C726 0.930 . S
H717 C727 0.930 . S
C718 H712 0.930 . S
C718 C719 1.355 . S
C718 C720 1.415 . S
C719 C718 1.355 . S
C719 C721 1.419 . S
C720 C718 1.415 . S
C720 C725 1.425 . S
C720 C727 1.409 . S
C721 H713 0.930 . S
C721 C719 1.419 . S
C721 C722 1.362 . S
C722 H714 0.930 . S
C722 C721 1.362 . S
C722 C725 1.409 . S
C723 H715 0.930 . S
C723 C724 1.355 . S
C723 C725 1.415 . S
C724 C723 1.355 . S
C724 C726 1.419 . S
C725 C720 1.425 . S
C725 C722 1.409 . S
C725 C723 1.415 . S
C726 H716 0.930 . S
C726 C724 1.419 . S
C726 C727 1.362 . S
C727 H717 0.930 . S
C727 C720 1.409 . S
C727 C726 1.362 . S
H728 C734 0.930 . S
H729 C737 0.930 . S
H730 C738 0.930 . S
H731 C739 0.930 . S
H732 C742 0.930 . S
H733 C743 0.930 . S
C734 H728 0.930 . S
C734 C735 1.355 . S
C734 C736 1.415 . S
C735 C734 1.355 . S
C735 C737 1.419 . S
C736 C734 1.415 . S
C736 C741 1.425 . S
C736 C743 1.409 . S
C737 H729 0.930 . S
C737 C735 1.419 . S
C737 C738 1.362 . S
C738 H730 0.930 . S
C738 C737 1.362 . S
C738 C741 1.409 . S
C739 H731 0.930 . S
C739 C740 1.355 . S
C739 C741 1.415 . S
C740 C739 1.355 . S
C740 C742 1.419 . S
C741 C736 1.425 . S
C741 C738 1.409 . S
C741 C739 1.415 . S
C742 H732 0.930 . S
C742 C740 1.419 . S
C742 C743 1.362 . S
C743 H733 0.930 . S
C743 C736 1.409 . S
C743 C742 1.362 . S
H744 C750 0.930 . S
H745 C753 0.930 . S
H746 C754 0.930 . S
H747 C755 0.930 . S
H748 C758 0.930 . S
H749 C759 0.930 . S
C750 H744 0.930 . S
C750 C751 1.355 . S
C750 C752 1.415 1_554 S
C751 C750 1.355 . S
C751 C753 1.419 . S
C752 C750 1.415 1_556 S
C752 C757 1.425 . S
C752 C759 1.409 . S
C753 H745 0.930 . S
C753 C751 1.419 . S
C753 C754 1.362 1_554 S
C754 H746 0.930 . S
C754 C753 1.362 1_556 S
C754 C757 1.409 . S
C755 H747 0.930 . S
C755 C756 1.355 . S
C755 C757 1.415 . S
C756 C755 1.355 . S
C756 C758 1.419 . S
C757 C752 1.425 . S
C757 C754 1.409 . S
C757 C755 1.415 . S
C758 H748 0.930 . S
C758 C756 1.419 . S
C758 C759 1.362 . S
C759 H749 0.930 . S
C759 C752 1.409 . S
C759 C758 1.362 . S
C383 C7 1.639 . S
C388 C119 1.527 1_565 S
C399 C37 1.623 . S
C404 C155 1.394 . S
C415 C54 1.766 . S
C420 C191 1.577 . S
C436 C221 1.482 . S
C431 C87 1.499 . S
C452 C263 1.448 . S
C447 C30 1.593 . S
C463 C51 1.540 . S
C468 C293 1.539 . S
C479 C84 1.830 . S
C484 C329 1.641 . S
C495 C10 1.579 . S
C500 C371 1.465 . S
C511 C59 1.627 . S
C516 C341 1.583 1_545 S
C532 C233 1.373 . S
C527 C74 1.561 . S
C548 C299 1.751 . S
C543 C18 1.829 . S
C559 C32 1.538 . S
C564 C335 1.546 . S
C580 C125 1.495 . S
C575 C73 1.637 . S
C591 C15 1.526 . S
C596 C185 1.454 . S
C612 C227 1.794 . S
C607 C43 1.849 . S
C628 C89 1.376 . S
C623 C62 1.562 . S
C644 C305 1.593 . S
C639 C21 1.627 . S
C660 C365 1.352 . S
C655 C29 1.402 . S
C671 C52 1.370 . S
C676 C257 1.310 . S
C692 C269 1.588 . S
C687 C81 1.623 . S
C708 C161 1.451 . S
C703 C40 1.561 . S
C719 C65 1.586 . S
C724 C197 1.533 . S
C740 C113 1.260 . S
C735 C76 1.353 . S
C756 C149 1.373 . S
C751 C8 1.420 . S
