# Generated by pormake.
# Topology anh, (6,3)-cn, num edge types: 1
# Building blocks:
#     Node 0, Type 0, BuildingBlock: HISSIN_clean_sbu_0, # of connection points: 6
#     Node 1, Type 0, BuildingBlock: HISSIN_clean_sbu_0, # of connection points: 6
#     Node 2, Type 0, BuildingBlock: HISSIN_clean_sbu_0, # of connection points: 6
#     Node 3, Type 1, BuildingBlock: BELTOD_clean_linker_0, # of connection points: 3
#     Node 4, Type 1, BuildingBlock: BELTOD_clean_linker_0, # of connection points: 3
#     Node 5, Type 1, BuildingBlock: BELTOD_clean_linker_0, # of connection points: 3
#     Node 6, Type 1, BuildingBlock: BELTOD_clean_linker_0, # of connection points: 3
#     Node 7, Type 1, BuildingBlock: BELTOD_clean_linker_0, # of connection points: 3
#     Node 8, Type 1, BuildingBlock: BELTOD_clean_linker_0, # of connection points: 3
#     Edge 9, Type (0, 1), BuildingBlock: XIVTED_clean_linker_0, # of connection points: 2
#     Edge 10, Type (0, 1), BuildingBlock: XIVTED_clean_linker_0, # of connection points: 2
#     Edge 11, Type (0, 1), BuildingBlock: XIVTED_clean_linker_0, # of connection points: 2
#     Edge 12, Type (0, 1), BuildingBlock: XIVTED_clean_linker_0, # of connection points: 2
#     Edge 13, Type (0, 1), BuildingBlock: XIVTED_clean_linker_0, # of connection points: 2
#     Edge 14, Type (0, 1), BuildingBlock: XIVTED_clean_linker_0, # of connection points: 2
#     Edge 15, Type (0, 1), BuildingBlock: XIVTED_clean_linker_0, # of connection points: 2
#     Edge 16, Type (0, 1), BuildingBlock: XIVTED_clean_linker_0, # of connection points: 2
#     Edge 17, Type (0, 1), BuildingBlock: XIVTED_clean_linker_0, # of connection points: 2
#     Edge 18, Type (0, 1), BuildingBlock: XIVTED_clean_linker_0, # of connection points: 2
#     Edge 19, Type (0, 1), BuildingBlock: XIVTED_clean_linker_0, # of connection points: 2
#     Edge 20, Type (0, 1), BuildingBlock: XIVTED_clean_linker_0, # of connection points: 2
#     Edge 21, Type (0, 1), BuildingBlock: XIVTED_clean_linker_0, # of connection points: 2
#     Edge 22, Type (0, 1), BuildingBlock: XIVTED_clean_linker_0, # of connection points: 2
#     Edge 23, Type (0, 1), BuildingBlock: XIVTED_clean_linker_0, # of connection points: 2
#     Edge 24, Type (0, 1), BuildingBlock: XIVTED_clean_linker_0, # of connection points: 2
#     Edge 25, Type (0, 1), BuildingBlock: XIVTED_clean_linker_0, # of connection points: 2
#     Edge 26, Type (0, 1), BuildingBlock: XIVTED_clean_linker_0, # of connection points: 2
# Relax obj value: 0.243
# Max RMSD: 0.183
# Mean RMSD: 0.147
data_MOF--net-anh--node1-HISSIN_clean_sbu_0--node2-BELTOD_clean_linker_0--edge1-XIVTED_clean_linker_0
_symmetry_space_group_name_H-M    P1
_symmetry_Int_Tables_number       1
_symmetry_cell_setting            triclinic
loop_
_symmetry_equiv_pos_as_xyz
'x, y, z'
_cell_length_a     34.63222
_cell_length_b     34.465959
_cell_length_c     61.224962
_cell_angle_alpha  94.195438
_cell_angle_beta   87.749507
_cell_angle_gamma 120.10672
loop_
_atom_site_label
_atom_site_type_symbol
_atom_site_fract_x
_atom_site_fract_y
_atom_site_fract_z
_atom_type_partial_charge
Eu0 Eu 1.04284 0.52038 0.16102 0.0
Eu1 Eu 0.09809 0.62561 0.17637 0.0
C2 C 1.0558 0.55323 0.21209 0.0
C3 C 0.95172 0.41895 0.13289 0.0
C4 C 0.92329 0.37246 0.1307 0.0
C5 C 0.89484 0.43007 0.11723 0.0
C6 C 0.88023 0.35482 0.12249 0.0
C7 C 0.9379 0.44763 0.1254 0.0
C8 C 0.86491 0.38355 0.11651 0.0
C9 C 0.99325 0.43805 0.14534 0.0
O10 O 0.14955 0.60297 0.17883 0.0
O11 O 0.11402 0.53355 0.16026 0.0
C12 C 0.15009 0.56748 0.16943 0.0
O13 O 1.05412 0.5613 0.13154 0.0
O14 O 0.1405 0.68143 0.19926 0.0
O15 O 0.12097 0.69459 0.16866 0.0
O16 O 0.12185 0.61582 0.14322 0.0
C17 C 0.09413 0.59412 0.12722 0.0
O18 O 0.98919 0.53874 0.16844 0.0
O19 O 1.03077 0.61452 0.165 0.0
O20 O 1.06013 0.59096 0.20611 0.0
O21 O 1.02899 0.46758 0.13547 0.0
O22 O 0.99057 0.45135 0.16557 0.0
O23 O 1.05675 0.5238 0.19739 0.0
C24 C 0.19573 0.73805 0.17891 0.0
C25 C 0.21526 0.71698 0.16607 0.0
C26 C 0.2673 0.80684 0.18096 0.0
C27 C 0.26052 0.74027 0.16101 0.0
C28 C 0.22176 0.78325 0.18614 0.0
C29 C 0.28714 0.78522 0.16865 0.0
C30 C 0.14869 0.7113 0.18512 0.0
C31 C 0.9916 0.57738 0.1658 0.0
H32 H 0.93341 0.34996 0.13652 0.0
H33 H 0.88416 0.45301 0.11269 0.0
H34 H 0.85789 0.31887 0.12253 0.0
H35 H 0.95956 0.48377 0.12701 0.0
H36 H 0.19566 0.68213 0.16026 0.0
H37 H 0.28729 0.84143 0.18722 0.0
H38 H 0.2748 0.72293 0.15134 0.0
H39 H 0.20715 0.79993 0.19609 0.0
Eu40 Eu 0.58083 1.00747 0.50165 0.0
Eu41 Eu 0.51992 1.05528 0.50373 0.0
C42 C 0.54301 1.02296 0.54769 0.0
C43 C 0.64173 0.93785 0.5043 0.0
C44 C 0.6304 0.92015 0.52501 0.0
C45 C 0.68441 0.90025 0.49671 0.0
C46 C 0.64705 0.89346 0.53174 0.0
C47 C 0.66766 0.92669 0.49 0.0
C48 C 0.67536 0.88437 0.51788 0.0
C49 C 0.63275 0.97285 0.49825 0.0
O50 O 0.59019 0.11173 0.49657 0.0
O51 O 0.62944 0.08186 0.5101 0.0
C52 C 0.62818 0.11637 0.50299 0.0
O53 O 0.5929 1.04061 0.47014 0.0
O54 O 0.50267 0.10292 0.52007 0.0
O55 O 0.46904 0.06634 0.49009 0.0
O56 O 0.52688 1.03948 0.46779 0.0
C57 C 0.5635 1.04351 0.45873 0.0
O58 O 0.51008 0.95054 0.49298 0.0
O59 O 0.46842 0.98184 0.50672 0.0
O60 O 0.53664 1.05313 0.53901 0.0
O61 O 0.60058 0.96204 0.48447 0.0
O62 O 0.63602 1.00246 0.51372 0.0
O63 O 0.55185 0.99552 0.53548 0.0
C64 C 0.49464 0.1441 0.49402 0.0
C65 C 0.52345 0.15498 0.47582 0.0
C66 C 0.51717 0.22279 0.50072 0.0
C67 C 0.55043 0.19968 0.47075 0.0
C68 C 0.49006 0.17799 0.50575 0.0
C69 C 0.5494 0.23425 0.48394 0.0
C70 C 0.47859 0.10084 0.50372 0.0
C71 C 0.47112 0.94676 0.49867 0.0
H72 H 0.61034 0.92849 0.53626 0.0
H73 H 0.70652 0.89448 0.48571 0.0
H74 H 0.63886 0.88107 0.548 0.0
H75 H 0.677 0.94046 0.47403 0.0
H76 H 0.52793 0.12944 0.46662 0.0
H77 H 0.51574 0.24858 0.51134 0.0
H78 H 0.57448 0.20739 0.45755 0.0
H79 H 0.46846 0.17033 0.51999 0.0
Eu80 Eu 0.51401 0.50452 0.83351 0.0
Eu81 Eu 0.6203 0.56118 0.84241 0.0
C82 C 0.5525 0.53349 0.88243 0.0
C83 C 0.40462 0.48141 0.81302 0.0
C84 C 0.42702 0.52643 0.80776 0.0
C85 C 0.33428 0.47538 0.8039 0.0
C86 C 0.40315 0.54654 0.80179 0.0
C87 C 0.35835 0.45544 0.81031 0.0
C88 C 0.3562 0.5218 0.80064 0.0
C89 C 0.42962 0.4638 0.82331 0.0
O90 O 0.60457 0.48888 0.84486 0.0
O91 O 0.53221 0.44968 0.83216 0.0
C92 C 0.56876 0.45078 0.83838 0.0
O93 O 0.55038 0.53094 0.80146 0.0
O94 O 0.68163 0.57709 0.85929 0.0
O95 O 0.68285 0.61998 0.83469 0.0
O96 O 0.61135 0.52645 0.80936 0.0
C97 C 0.58486 0.52693 0.79501 0.0
O98 O 0.52872 0.57668 0.83889 0.0
O99 O 0.60228 0.61033 0.82939 0.0
O100 O 0.5879 0.56667 0.87393 0.0
O101 O 0.45973 0.46095 0.81094 0.0
O102 O 0.44493 0.48213 0.84277 0.0
O103 O 0.52267 0.50012 0.86975 0.0
C104 C 0.74815 0.61529 0.83793 0.0
C105 C 0.76609 0.63762 0.81855 0.0
C106 C 0.81556 0.6117 0.84243 0.0
C107 C 0.8089 0.64813 0.81159 0.0
C108 C 0.77283 0.6014 0.84948 0.0
C109 C 0.83456 0.63651 0.82384 0.0
C110 C 0.70641 0.61104 0.84734 0.0
C111 C 0.56557 0.6123 0.83292 0.0
H112 H 0.4629 0.54684 0.80955 0.0
H113 H 0.29835 0.45491 0.80262 0.0
H114 H 0.42162 0.58233 0.79977 0.0
H115 H 0.34067 0.42041 0.81407 0.0
H116 H 0.74797 0.64886 0.80924 0.0
H117 H 0.83482 0.60288 0.85242 0.0
H118 H 0.8227 0.66709 0.79715 0.0
H119 H 0.76002 0.58447 0.86453 0.0
P120 P 0.6882 0.11329 0.22878 0.0
H121 H 0.69218 0.08333 0.1836 0.0
H122 H 0.64098 1.01427 0.16233 0.0
H123 H 0.57401 0.95453 0.22213 0.0
H124 H 0.62457 1.02311 0.24311 0.0
H125 H 0.7308 0.21 0.2258 0.0
H126 H 0.71564 0.25615 0.20322 0.0
H127 H 0.59404 0.13847 0.18009 0.0
H128 H 0.60897 0.09254 0.20321 0.0
H129 H 0.72456 0.09933 0.26749 0.0
H130 H 0.61504 0.11842 0.252 0.0
O131 O 0.74341 0.13547 0.22678 0.0
H132 H 0.70095 0.09124 0.30577 0.0
H133 H 0.59189 0.11173 0.2904 0.0
C134 C 0.66165 1.05854 0.21484 0.0
C135 C 0.66748 1.05469 0.19215 0.0
C136 C 0.63823 1.01535 0.18002 0.0
C137 C 0.6033 0.97926 0.19055 0.0
C138 C 0.60081 0.98163 0.21355 0.0
C139 C 0.62962 1.02113 0.2256 0.0
C140 C 0.67211 0.14776 0.21542 0.0
C141 C 0.70042 0.1943 0.21624 0.0
C142 C 0.6913 0.22069 0.20352 0.0
C143 C 0.6537 0.20081 0.18972 0.0
C144 C 0.62337 0.15458 0.19042 0.0
C145 C 0.63224 0.12831 0.20343 0.0
C146 C 0.67227 0.11064 0.2571 0.0
C147 C 0.6959 0.1026 0.27244 0.0
C148 C 0.68239 0.09809 0.29432 0.0
C149 C 0.64481 0.10138 0.3012 0.0
C150 C 0.62085 0.10888 0.28563 0.0
C151 C 0.63436 0.11322 0.26372 0.0
P152 P 0.85855 0.63131 0.5988 0.0
H153 H 0.88901 0.59896 0.56006 0.0
H154 H 0.84701 0.53804 0.53213 0.0
H155 H 0.72902 0.49038 0.57271 0.0
H156 H 0.77026 0.55022 0.60018 0.0
H157 H 0.8962 0.72784 0.60796 0.0
H158 H 0.88103 0.78224 0.59215 0.0
H159 H 0.80025 0.681 0.54217 0.0
H160 H 0.81542 0.62783 0.55763 0.0
H161 H 0.86087 0.60093 0.64193 0.0
H162 H 0.78239 0.64425 0.60906 0.0
O163 O 0.91097 0.64641 0.60488 0.0
H164 H 0.81044 0.58295 0.6735 0.0
H165 H 0.73164 0.6256 0.64011 0.0
C166 C 0.83295 0.57924 0.58225 0.0
C167 C 0.8545 0.57441 0.56321 0.0
C168 C 0.83048 0.53994 0.54722 0.0
C169 C 0.78462 0.51038 0.55011 0.0
C170 C 0.76413 0.51346 0.56987 0.0
C171 C 0.788 0.54757 0.58576 0.0
C172 C 0.85753 0.6739 0.58391 0.0
C173 C 0.87647 0.718 0.59317 0.0
C174 C 0.86744 0.74884 0.58425 0.0
C175 C 0.83939 0.73588 0.56592 0.0
C176 C 0.82264 0.69241 0.55603 0.0
C177 C 0.83139 0.6617 0.56499 0.0
C178 C 0.8261 0.62494 0.62338 0.0
C179 C 0.83332 0.60735 0.64168 0.0
C180 C 0.80413 0.59658 0.65958 0.0
C181 C 0.76687 0.60273 0.65932 0.0
C182 C 0.76034 0.62116 0.64106 0.0
C183 C 0.78954 0.63198 0.62325 0.0
P184 P 0.24826 0.81388 0.92079 0.0
H185 H 0.30753 0.83983 0.88279 0.0
H186 H 0.31896 0.79424 0.85351 0.0
H187 H 0.24359 0.67671 0.89073 0.0
H188 H 0.23061 0.72167 0.91909 0.0
H189 H 0.23332 0.86409 0.88868 0.0
H190 H 0.17405 0.83958 0.86145 0.0
H191 H 0.10106 0.71113 0.89029 0.0
H192 H 0.16016 0.73531 0.91691 0.0
H193 H 0.28801 0.7803 0.95017 0.0
H194 H 0.17428 0.79967 0.95049 0.0
O195 O 0.2848 0.86887 0.92319 0.0
H196 H 0.26123 0.7407 0.98383 0.0
H197 H 0.14765 0.76089 0.98442 0.0
C198 C 0.26967 0.78456 0.90353 0.0
C199 C 0.29483 0.80453 0.88492 0.0
C200 C 0.30095 0.77835 0.8681 0.0
C201 C 0.28156 0.73171 0.86962 0.0
C202 C 0.25814 0.71235 0.88878 0.0
C203 C 0.25173 0.73837 0.90539 0.0
C204 C 0.20034 0.8021 0.90529 0.0
C205 C 0.20383 0.83123 0.88951 0.0
C206 C 0.17028 0.81705 0.87384 0.0
C207 C 0.13337 0.77323 0.87357 0.0
C208 C 0.12953 0.74479 0.88983 0.0
C209 C 0.16284 0.75897 0.9054 0.0
C210 C 0.23228 0.79141 0.94743 0.0
C211 C 0.25744 0.77634 0.9576 0.0
C212 C 0.24214 0.75384 0.97691 0.0
C213 C 0.20177 0.74683 0.98661 0.0
C214 C 0.17814 0.76456 0.97704 0.0
C215 C 0.19351 0.78701 0.95771 0.0
P216 P 1.0632 0.50701 0.44943 0.0
H217 H 0.13848 0.53533 0.4795 0.0
H218 H 0.20323 0.60806 0.48967 0.0
H219 H 0.14609 0.67414 0.45692 0.0
H220 H 1.08092 0.60104 0.44702 0.0
H221 H 1.0285 0.47426 0.49329 0.0
H222 H 0.9558 0.41448 0.50574 0.0
H223 H 0.90077 0.40183 0.44188 0.0
H224 H 0.97247 0.46031 0.42966 0.0
H225 H 0.10202 0.48281 0.41095 0.0
H226 H 1.02183 0.54556 0.42342 0.0
O227 O 1.08498 0.47382 0.45151 0.0
H228 H 0.09907 0.48903 0.37181 0.0
H229 H 1.01801 0.55123 0.38405 0.0
C230 C 0.10426 0.56187 0.46223 0.0
C231 C 0.13917 0.56533 0.47479 0.0
C232 C 0.17684 0.60731 0.48041 0.0
C233 C 0.18096 0.64758 0.47379 0.0
C234 C 0.14461 0.64425 0.46238 0.0
C235 C 0.10692 0.60207 0.45667 0.0
C236 C 1.00659 0.47369 0.46065 0.0
C237 C 1.00042 0.45976 0.48218 0.0
C238 C 0.95874 0.42483 0.4892 0.0
C239 C 0.92178 0.40274 0.47488 0.0
C240 C 0.92772 0.41809 0.45364 0.0
C241 C 0.96935 0.45243 0.4466 0.0
C242 C 1.06172 0.51325 0.42028 0.0
C243 C 1.08351 0.49778 0.40533 0.0
C244 C 1.08158 0.50111 0.38279 0.0
C245 C 1.0579 0.52021 0.37458 0.0
C246 C 1.03689 0.53665 0.38968 0.0
C247 C 1.03898 0.53338 0.41226 0.0
P248 P 0.59973 1.0438 0.78583 0.0
H249 H 0.64503 0.11625 0.82007 0.0
H250 H 0.63608 0.18001 0.8328 0.0
H251 H 0.51399 0.1231 0.79566 0.0
H252 H 0.52235 1.05844 0.78388 0.0
H253 H 0.65074 1.01902 0.81314 0.0
H254 H 0.64039 0.94751 0.82327 0.0
H255 H 0.5082 0.87934 0.79528 0.0
H256 H 0.51849 0.95202 0.78577 0.0
H257 H 0.59735 0.10454 0.75577 0.0
H258 H 0.57018 0.96769 0.75212 0.0
O259 O 0.65536 0.07244 0.78422 0.0
H260 H 0.58213 0.09821 0.71687 0.0
H261 H 0.55319 0.9605 0.71335 0.0
C262 C 0.58473 0.08245 0.80072 0.0
C263 C 0.61563 0.11678 0.81512 0.0
C264 C 0.61081 0.15393 0.82212 0.0
C265 C 0.57494 0.1581 0.81485 0.0
C266 C 0.54218 0.12175 0.80174 0.0
C267 C 0.54684 0.08434 0.79495 0.0
C268 C 0.58588 0.99131 0.79814 0.0
C269 C 0.61913 0.98893 0.80942 0.0
C270 C 0.61333 0.94752 0.81501 0.0
C271 C 0.57395 0.90679 0.80954 0.0
C272 C 0.53919 0.90958 0.79972 0.0
C273 C 0.545 0.95136 0.79424 0.0
C274 C 0.58251 1.03584 0.75743 0.0
C275 C 0.58642 0.07246 0.74685 0.0
C276 C 0.57779 0.06884 0.72444 0.0
C277 C 0.56573 1.02862 0.71183 0.0
C278 C 0.56236 0.99207 0.72242 0.0
C279 C 0.57124 0.99585 0.74487 0.0
P280 P 0.55144 0.5275 0.12283 0.0
H281 H 0.5901 0.52574 0.16444 0.0
H282 H 0.6641 0.53921 0.17406 0.0
H283 H 0.71446 0.59289 0.11109 0.0
H284 H 0.641 0.57906 0.10156 0.0
H285 H 0.47909 0.48547 0.15516 0.0
H286 H 0.41595 0.49539 0.1657 0.0
H287 H 0.47196 0.61463 0.12931 0.0
H288 H 0.53579 0.60497 0.11911 0.0
H289 H 0.51161 0.45695 0.08729 0.0
H290 H 0.58475 0.60186 0.09306 0.0
O291 O 0.52942 0.47321 0.1274 0.0
H292 H 0.50806 0.4583 0.04784 0.0
H293 H 0.57954 0.60351 0.0535 0.0
C294 C 0.60921 0.55197 0.13237 0.0
C295 C 0.61733 0.54178 0.15294 0.0
C296 C 0.65977 0.54888 0.1583 0.0
C297 C 0.69571 0.56684 0.14332 0.0
C298 C 0.6881 0.57939 0.12323 0.0
C299 C 0.64555 0.57167 0.11777 0.0
C300 C 0.51261 0.54394 0.13592 0.0
C301 C 0.47859 0.51436 0.14969 0.0
C302 C 0.44182 0.51979 0.15556 0.0
C303 C 0.43771 0.5552 0.14796 0.0
C304 C 0.47344 0.58675 0.13547 0.0
C305 C 0.5103 0.58118 0.12954 0.0
C306 C 0.54864 0.52935 0.09336 0.0
C307 C 0.52672 0.48922 0.08017 0.0
C308 C 0.52427 0.49 0.05746 0.0
C309 C 0.54341 0.53099 0.0473 0.0
C310 C 0.56486 0.57123 0.06062 0.0
C311 C 0.56743 0.57037 0.08336 0.0
H312 H 0.2365 0.63719 0.17739 0.0
H313 H 0.35057 0.4854 0.14829 0.0
H314 H 0.16284 0.49594 0.15758 0.0
H315 H 0.42722 0.62997 0.15677 0.0
H316 H 0.28218 0.48872 0.15449 0.0
H317 H 0.30637 0.63523 0.17272 0.0
C318 C 0.23481 0.60563 0.17226 0.0
C319 C 0.19322 0.56661 0.16796 0.0
C320 C 0.31389 0.51981 0.15506 0.0
C321 C 0.27382 0.56421 0.16253 0.0
C322 C 0.35329 0.51796 0.15167 0.0
C323 C 0.3954 0.55744 0.15209 0.0
C324 C 0.31586 0.56147 0.15909 0.0
C325 C 0.39587 0.59854 0.1561 0.0
C326 C 0.27492 0.60463 0.16948 0.0
C327 C 0.19375 0.52695 0.16112 0.0
N328 N 0.35697 0.59945 0.1595 0.0
N329 N 0.23307 0.5268 0.1587 0.0
H330 H 0.64059 0.19265 0.48464 0.0
H331 H 0.90798 0.33322 0.50014 0.0
H332 H 0.714 0.14129 0.51563 0.0
H333 H 0.83511 0.37889 0.46426 0.0
H334 H 0.83734 0.2656 0.50826 0.0
H335 H 0.71078 0.26275 0.47919 0.0
C336 C 0.67132 0.1961 0.49049 0.0
C337 C 0.67086 0.16053 0.5007 0.0
C338 C 0.83673 0.29047 0.49867 0.0
C339 C 0.75225 0.2416 0.49436 0.0
C340 C 0.87723 0.3295 0.49414 0.0
C341 C 0.87816 0.36236 0.48137 0.0
C342 C 0.79622 0.2838 0.49054 0.0
C343 C 0.83668 0.35461 0.47389 0.0
C344 C 0.71157 0.23628 0.48729 0.0
C345 C 0.71227 0.16744 0.50771 0.0
N346 N 0.7978 0.31646 0.47854 0.0
N347 N 0.75098 0.20686 0.50442 0.0
H348 H 0.63656 0.69336 0.82181 0.0
H349 H 0.49987 0.82598 0.82095 0.0
H350 H 0.49568 0.6303 0.83616 0.0
H351 H 0.64027 0.88439 0.80611 0.0
H352 H 0.49655 0.75442 0.82648 0.0
H353 H 0.63747 0.76323 0.81622 0.0
C354 C 0.60569 0.69404 0.82382 0.0
C355 C 0.566 0.6554 0.82956 0.0
C356 C 0.5281 0.78298 0.82207 0.0
C357 C 0.56684 0.73649 0.82306 0.0
C358 C 0.53003 0.82402 0.81878 0.0
C359 C 0.57055 0.86212 0.81319 0.0
C360 C 0.5669 0.77951 0.81969 0.0
C361 C 0.60837 0.85682 0.81086 0.0
C362 C 0.60626 0.73423 0.8206 0.0
C363 C 0.52719 0.659 0.83184 0.0
N364 N 0.60557 0.81672 0.8141 0.0
N365 N 0.52859 0.69861 0.82861 0.0
H366 H 0.97962 0.64756 0.15497 0.0
H367 H 0.71097 0.50629 0.16317 0.0
H368 H 0.90501 0.5085 0.17048 0.0
H369 H 0.78189 0.63387 0.13375 0.0
H370 H 0.78223 0.50983 0.16909 0.0
H371 H 0.90878 0.64627 0.15004 0.0
C372 C 0.94852 0.61681 0.15746 0.0
C373 C 0.94881 0.57815 0.16324 0.0
C374 C 0.78234 0.53719 0.1614 0.0
C375 C 0.86693 0.5765 0.15766 0.0
C376 C 0.74147 0.53538 0.15815 0.0
C377 C 0.73985 0.56988 0.14795 0.0
C378 C 0.82261 0.57405 0.15467 0.0
C379 C 0.781 0.60622 0.14151 0.0
C380 C 0.90794 0.61607 0.15457 0.0
C381 C 0.90697 0.53929 0.16609 0.0
N382 N 0.8204 0.6074 0.14503 0.0
N383 N 0.86812 0.53955 0.16336 0.0
H384 H 0.46091 0.86347 0.48537 0.0
H385 H 0.19152 0.73226 0.48429 0.0
H386 H 0.3837 0.92714 0.50445 0.0
H387 H 0.26856 0.66583 0.4728 0.0
H388 H 0.26115 0.80396 0.49047 0.0
H389 H 0.39122 0.79154 0.47969 0.0
C390 C 0.42944 0.86251 0.48841 0.0
C391 C 0.42873 0.90197 0.49547 0.0
C392 C 0.26286 0.77369 0.48665 0.0
C393 C 0.34793 0.81887 0.4888 0.0
C394 C 0.22291 0.73253 0.48298 0.0
C395 C 0.2235 0.69223 0.47804 0.0
C396 C 0.30432 0.77525 0.48521 0.0
C397 C 0.26581 0.69543 0.47688 0.0
C398 C 0.38947 0.82122 0.48516 0.0
C399 C 0.38641 0.89798 0.49907 0.0
N400 N 0.30412 0.73586 0.48033 0.0
N401 N 0.34807 0.85755 0.49565 0.0
H402 H 0.6412 0.43844 0.84232 0.0
H403 H 0.50081 0.16917 0.82082 0.0
H404 H 0.4993 0.3641 0.83062 0.0
H405 H 0.64485 0.24599 0.8204 0.0
H406 H 0.49921 0.23925 0.82731 0.0
H407 H 0.64263 0.36781 0.83766 0.0
C408 C 0.61024 0.40735 0.83894 0.0
C409 C 0.57006 0.40767 0.83688 0.0
C410 C 0.53119 0.24074 0.82587 0.0
C411 C 0.5715 0.32602 0.83147 0.0
C412 C 0.5322 0.20052 0.82202 0.0
C413 C 0.57305 0.20085 0.81997 0.0
C414 C 0.57129 0.28217 0.82785 0.0
C415 C 0.61238 0.24322 0.82219 0.0
C416 C 0.61113 0.36691 0.83619 0.0
C417 C 0.53116 0.36593 0.83234 0.0
N418 N 0.61048 0.28179 0.82597 0.0
N419 N 0.53287 0.3271 0.82983 0.0
H420 H 0.71122 0.89496 0.5585 0.0
H421 H 0.82713 0.74949 0.52381 0.0
H422 H 0.69355 0.82348 0.49538 0.0
H423 H 0.81304 0.78745 0.59115 0.0
H424 H 0.78751 0.78642 0.51228 0.0
H425 H 0.75538 0.863 0.57026 0.0
C426 C 0.71605 0.87207 0.5472 0.0
C427 C 0.69858 0.86189 0.5259 0.0
C428 C 0.79339 0.78693 0.52957 0.0
C429 C 0.75024 0.82638 0.53907 0.0
C430 C 0.8161 0.766 0.53616 0.0
C431 C 0.82303 0.76501 0.55849 0.0
C432 C 0.77766 0.80724 0.54542 0.0
C433 C 0.80874 0.78765 0.57376 0.0
C434 C 0.74168 0.85425 0.55387 0.0
C435 C 0.70686 0.8328 0.51184 0.0
N436 N 0.78641 0.80759 0.56694 0.0
N437 N 0.73226 0.81624 0.51865 0.0
H438 H 0.89471 0.72291 0.8149 0.0
H439 H 0.0946 0.6919 0.85048 0.0
H440 H 0.88453 0.59501 0.82371 0.0
H441 H 0.09296 0.81653 0.85795 0.0
H442 H 1.02711 0.65912 0.82826 0.0
H443 H 0.97573 0.75908 0.81758 0.0
C444 C 0.9096 0.70219 0.81669 0.0
C445 C 0.88289 0.656 0.81955 0.0
C446 C 1.04199 0.69389 0.83442 0.0
C447 C 0.97534 0.69734 0.82305 0.0
C448 C 1.0803 0.71254 0.84718 0.0
C449 C 0.09846 0.75652 0.8566 0.0
C450 C 1.02165 0.71938 0.83114 0.0
C451 C 1.07963 0.78229 0.85123 0.0
C452 C 0.95584 0.72296 0.81839 0.0
C453 C 0.90396 0.63088 0.82194 0.0
N454 N 1.04164 0.76303 0.83917 0.0
N455 N 0.94899 0.65201 0.82403 0.0
H456 H 0.34336 0.75264 0.17375 0.0
H457 H 0.55986 0.99028 0.15763 0.0
H458 H 0.34165 0.87021 0.15525 0.0
H459 H 0.55717 0.88845 0.19572 0.0
H460 H 0.48416 0.937 0.14517 0.0
H461 H 0.4248 0.79363 0.17108 0.0
C462 C 0.36012 0.78686 0.16876 0.0
C463 C 0.3359 0.80838 0.16498 0.0
C464 C 0.50056 0.92599 0.15582 0.0
C465 C 0.42877 0.85521 0.16191 0.0
C466 C 0.54397 0.95618 0.16274 0.0
C467 C 0.56449 0.94387 0.178 0.0
C468 C 0.47765 0.88331 0.16423 0.0
C469 C 0.54213 0.8994 0.18425 0.0
C470 C 0.40652 0.81018 0.16729 0.0
C471 C 0.35922 0.85276 0.15869 0.0
N472 N 0.4995 0.87085 0.17762 0.0
N473 N 0.40447 0.87488 0.15751 0.0
H474 H 0.54629 0.31269 0.48833 0.0
H475 H 0.79951 0.44924 0.52543 0.0
H476 H 0.63812 0.26278 0.47874 0.0
H477 H 0.70675 0.49801 0.53447 0.0
H478 H 0.74616 0.38801 0.50056 0.0
H479 H 0.60934 0.38775 0.49704 0.0
C480 C 0.57978 0.3177 0.48762 0.0
C481 C 0.58682 0.2812 0.48328 0.0
C482 C 0.7378 0.41256 0.5077 0.0
C483 C 0.65909 0.36674 0.49354 0.0
C484 C 0.76826 0.44746 0.52184 0.0
C485 C 0.75684 0.47778 0.53239 0.0
C486 C 0.69583 0.40824 0.50421 0.0
C487 C 0.71617 0.4744 0.5271 0.0
C488 C 0.61582 0.36054 0.49259 0.0
C489 C 0.63103 0.2898 0.48213 0.0
N490 N 0.68687 0.43986 0.51365 0.0
N491 N 0.66541 0.33146 0.48771 0.0
H492 H 0.2763 0.50119 0.82074 0.0
H493 H 0.35334 0.74935 0.84273 0.0
H494 H 0.37809 0.59898 0.77978 0.0
H495 H 0.2166 0.64807 0.85451 0.0
H496 H 0.36059 0.69619 0.81664 0.0
H497 H 0.24865 0.55247 0.8294 0.0
C498 C 0.29219 0.53277 0.81293 0.0
C499 C 0.3309 0.54619 0.80011 0.0
C500 C 0.32871 0.68597 0.82459 0.0
C501 C 0.30015 0.6061 0.8109 0.0
C502 C 0.32459 0.71629 0.83953 0.0
C503 C 0.28475 0.70269 0.85135 0.0
C504 C 0.29299 0.64169 0.82175 0.0
C505 C 0.24854 0.65941 0.84644 0.0
C506 C 0.27642 0.56237 0.81809 0.0
C507 C 0.34957 0.58792 0.79064 0.0
N508 N 0.25381 0.63012 0.83239 0.0
N509 N 0.33501 0.61707 0.79682 0.0
H510 H 0.81524 0.42026 0.13351 0.0
H511 H 0.63825 0.1744 0.14633 0.0
H512 H 0.80305 0.30529 0.09442 0.0
H513 H 0.66692 0.2866 0.19213 0.0
H514 H 0.66873 0.22559 0.11689 0.0
H515 H 0.73618 0.37772 0.1422 0.0
C516 C 0.79566 0.38666 0.12596 0.0
C517 C 0.81625 0.36549 0.11406 0.0
C518 C 0.66678 0.23891 0.13322 0.0
C519 C 0.726 0.31625 0.12465 0.0
C520 C 0.64905 0.20957 0.15008 0.0
C521 C 0.65207 0.2267 0.17186 0.0
C522 C 0.68827 0.28544 0.13837 0.0
C523 C 0.6658 0.2724 0.17564 0.0
C524 C 0.75035 0.36223 0.13107 0.0
C525 C 0.78884 0.32214 0.10453 0.0
N526 N 0.68481 0.30051 0.15916 0.0
N527 N 0.74533 0.29836 0.11061 0.0
H528 H 0.17914 0.64365 0.11305 0.0
H529 H 0.11492 0.6847 0.99635 0.0
H530 H 1.04283 0.58008 0.09082 0.0
H531 H 0.24873 0.74934 0.02217 0.0
H532 H 1.08728 0.64241 0.02937 0.0
H533 H 0.20457 0.67718 0.07814 0.0
C534 C 0.15446 0.63648 0.1007 0.0
C535 C 0.10871 0.60937 0.10493 0.0
C536 C 0.12268 0.66575 0.02773 0.0
C537 C 0.1378 0.64832 0.06471 0.0
C538 C 0.13848 0.69018 0.00898 0.0
C539 C 0.18428 0.72081 0.00649 0.0
C540 C 0.15289 0.672 0.0441 0.0
C541 C 0.21328 0.72583 0.0232 0.0
C542 C 0.16907 0.65577 0.08072 0.0
C543 C 1.07839 0.60086 0.08821 0.0
N544 N 0.19708 0.70181 0.04125 0.0
N545 N 0.09348 0.62071 0.06883 0.0
H546 H 0.64489 0.07872 0.43933 0.0
H547 H 0.55959 1.05703 0.31808 0.0
H548 H 0.50699 1.03448 0.42573 0.0
H549 H 0.69793 0.13495 0.33747 0.0
H550 H 0.53816 1.04616 0.35674 0.0
H551 H 0.66354 0.09619 0.40138 0.0
C552 C 0.61839 0.07252 0.42831 0.0
C553 C 0.57418 1.05468 0.43566 0.0
C554 C 0.57313 0.06588 0.35247 0.0
C555 C 0.59551 0.07484 0.39196 0.0
C556 C 0.58542 0.07225 0.33044 0.0
C557 C 0.63071 0.09655 0.3245 0.0
C558 C 0.60641 0.08368 0.36859 0.0
C559 C 0.66272 0.11511 0.34121 0.0
C560 C 0.62918 0.08282 0.40662 0.0
C561 C 0.54146 1.04805 0.42068 0.0
N562 N 0.64996 0.10801 0.36243 0.0
N563 N 0.55272 1.05779 0.39939 0.0
H564 H 0.61972 0.47966 0.77438 0.0
H565 H 0.72261 0.64477 0.67779 0.0
H566 H 0.58317 0.57935 0.76382 0.0
H567 H 0.73518 0.52712 0.68218 0.0
H568 H 0.66866 0.61993 0.70793 0.0
H569 H 0.65787 0.49367 0.7391 0.0
C570 C 0.61902 0.50391 0.76432 0.0
C571 C 0.59846 0.52847 0.77191 0.0
C572 C 0.68302 0.59943 0.70218 0.0
C573 C 0.64323 0.54581 0.7318 0.0
C574 C 0.71384 0.61357 0.68497 0.0
C575 C 0.73393 0.58826 0.67756 0.0
C576 C 0.67235 0.55982 0.71214 0.0
C577 C 0.72147 0.54833 0.68764 0.0
C578 C 0.64094 0.51206 0.74422 0.0
C579 C 0.59846 0.55955 0.75838 0.0
N580 N 0.69175 0.53554 0.70446 0.0
N581 N 0.62131 0.56798 0.73906 0.0
H582 H 0.5626 0.97052 0.57132 0.0
H583 H 0.52723 0.06664 0.68896 0.0
H584 H 0.5231 0.07129 0.57952 0.0
H585 H 0.58852 0.98416 0.67923 0.0
H586 H 0.51956 0.06422 0.64926 0.0
H587 H 0.56556 0.9701 0.611 0.0
C588 C 0.55428 0.99245 0.58142 0.0
C589 C 0.54265 1.02109 0.57193 0.0
C590 C 0.53456 1.04656 0.65584 0.0
C591 C 0.54612 1.02075 0.6177 0.0
C592 C 0.53918 1.04807 0.67855 0.0
C593 C 0.55871 1.02566 0.68766 0.0
C594 C 0.54934 1.02228 0.642 0.0
C595 C 0.57267 1.00145 0.67318 0.0
C596 C 0.55613 0.99225 0.60416 0.0
C597 C 0.53233 1.04871 0.58603 0.0
N598 N 0.56778 1.00049 0.65116 0.0
N599 N 0.53434 1.04788 0.60818 0.0
H600 H 0.60933 0.59782 0.91229 0.0
H601 H 0.47544 0.47367 0.01878 0.0
H602 H 0.48636 0.47041 0.90824 0.0
H603 H 0.60811 0.58958 0.01991 0.0
H604 H 0.47543 0.474 0.9788 0.0
H605 H 0.60533 0.59772 0.95195 0.0
C606 C 0.58125 0.56975 0.9197 0.0
C607 C 0.54816 0.53391 0.90673 0.0
C608 C 0.50446 0.49938 0.98783 0.0
C609 C 0.54352 0.53368 0.95266 0.0
C610 C 0.50465 0.49914 0.0107 0.0
C611 C 0.54192 0.53163 0.02293 0.0
C612 C 0.5417 0.53245 0.977 0.0
C613 C 0.57832 0.56423 0.01139 0.0
C614 C 0.57909 0.56974 0.94247 0.0
C615 C 0.51266 0.4987 0.91751 0.0
N616 N 0.57727 0.56373 0.98919 0.0
N617 N 0.51131 0.49942 0.93985 0.0
H618 H 1.05152 0.60712 0.24601 0.0
H619 H 1.04994 0.45843 0.34115 0.0
H620 H 1.05255 0.48287 0.23282 0.0
H621 H 1.05981 0.58818 0.35262 0.0
H622 H 1.04746 0.4645 0.30172 0.0
H623 H 1.05019 0.59786 0.28508 0.0
C624 C 1.05126 0.57766 0.25128 0.0
C625 C 1.05226 0.54576 0.23593 0.0
C626 C 1.0501 0.4916 0.31287 0.0
C627 C 1.0509 0.53505 0.28112 0.0
C628 C 1.05181 0.48833 0.33544 0.0
C629 C 1.05528 0.52294 0.35042 0.0
C630 C 1.05178 0.52973 0.30506 0.0
C631 C 1.0566 0.56035 0.34188 0.0
C632 C 1.05058 0.57248 0.27371 0.0
C633 C 1.05179 0.50834 0.24397 0.0
N634 N 1.05494 0.56274 0.31986 0.0
N635 N 1.05127 0.50409 0.26599 0.0
loop_
_geom_bond_atom_site_label_1
_geom_bond_atom_site_label_2
_geom_bond_distance
_geom_bond_site_symmetry_2
_ccdc_geom_bond_type
Eu0 C9 2.828 . S
Eu0 O11 2.392 1_655 S
Eu0 O13 2.418 . S
Eu0 O18 2.373 . S
Eu0 O21 2.488 . S
Eu0 O22 2.471 . S
Eu0 O23 2.349 . S
Eu1 O10 2.373 . S
Eu1 O14 2.488 . S
Eu1 O15 2.471 . S
Eu1 O16 2.349 . S
Eu1 O19 2.392 1_455 S
Eu1 O20 2.418 . S
Eu1 C30 2.828 . S
C2 O20 1.244 . S
C2 O23 1.265 1_455 S
C3 C4 1.379 . S
C3 C7 1.373 . S
C3 C9 1.505 . S
C4 C3 1.379 . S
C4 C6 1.369 . S
C4 H32 0.930 . S
C5 C7 1.383 . S
C5 C8 1.382 . S
C5 H33 0.930 . S
C6 C4 1.369 . S
C6 C8 1.392 . S
C6 H34 0.930 . S
C7 C3 1.373 . S
C7 C5 1.383 . S
C7 H35 0.931 . S
C8 C5 1.382 . S
C8 C6 1.392 . S
C9 Eu0 2.828 . S
C9 C3 1.505 . S
C9 O21 1.249 . S
C9 O22 1.244 . S
O10 Eu1 2.373 . S
O10 C12 1.258 . S
O11 Eu0 2.392 1_455 S
O11 C12 1.242 . S
C12 O10 1.258 . S
C12 O11 1.242 . S
O13 Eu0 2.418 . S
O13 C17 1.244 . S
O14 Eu1 2.488 . S
O14 C30 1.249 . S
O15 Eu1 2.471 . S
O15 C30 1.244 . S
O16 Eu1 2.349 . S
O16 C17 1.265 1_455 S
C17 O13 1.244 . S
C17 O16 1.265 1_655 S
O18 Eu0 2.373 . S
O18 C31 1.258 . S
O19 Eu1 2.392 1_655 S
O19 C31 1.242 . S
O20 Eu1 2.418 . S
O20 C2 1.244 . S
O21 Eu0 2.488 . S
O21 C9 1.249 . S
O22 Eu0 2.471 . S
O22 C9 1.244 . S
O23 Eu0 2.349 . S
O23 C2 1.265 1_655 S
C24 C25 1.379 . S
C24 C28 1.373 . S
C24 C30 1.505 . S
C25 C24 1.379 . S
C25 C27 1.369 . S
C25 H36 0.930 . S
C26 C28 1.383 . S
C26 C29 1.382 . S
C26 H37 0.930 . S
C27 C25 1.369 . S
C27 C29 1.392 . S
C27 H38 0.930 . S
C28 C24 1.373 . S
C28 C26 1.383 . S
C28 H39 0.931 . S
C29 C26 1.382 . S
C29 C27 1.392 . S
C30 Eu1 2.828 . S
C30 O14 1.249 . S
C30 O15 1.244 . S
C30 C24 1.505 . S
C31 O18 1.258 . S
C31 O19 1.242 . S
H32 C4 0.930 . S
H33 C5 0.930 . S
H34 C6 0.930 . S
H35 C7 0.931 . S
H36 C25 0.930 . S
H37 C26 0.930 . S
H38 C27 0.930 . S
H39 C28 0.931 . S
Eu40 C49 2.828 . S
Eu40 O51 2.392 1_565 S
Eu40 O53 2.418 . S
Eu40 O58 2.373 . S
Eu40 O61 2.488 . S
Eu40 O62 2.471 . S
Eu40 O63 2.349 . S
Eu41 O50 2.373 . S
Eu41 O54 2.488 . S
Eu41 O55 2.471 . S
Eu41 O56 2.349 . S
Eu41 O59 2.392 1_545 S
Eu41 O60 2.418 . S
Eu41 C70 2.828 . S
C42 O60 1.244 . S
C42 O63 1.265 1_545 S
C43 C44 1.379 . S
C43 C47 1.373 . S
C43 C49 1.505 . S
C44 C43 1.379 . S
C44 C46 1.369 . S
C44 H72 0.930 . S
C45 C47 1.383 . S
C45 C48 1.382 . S
C45 H73 0.930 . S
C46 C44 1.369 . S
C46 C48 1.392 . S
C46 H74 0.930 . S
C47 C43 1.373 . S
C47 C45 1.383 . S
C47 H75 0.931 . S
C48 C45 1.382 . S
C48 C46 1.392 . S
C49 Eu40 2.828 . S
C49 C43 1.505 . S
C49 O61 1.249 . S
C49 O62 1.244 . S
O50 Eu41 2.373 . S
O50 C52 1.258 . S
O51 Eu40 2.392 1_545 S
O51 C52 1.242 . S
C52 O50 1.258 . S
C52 O51 1.242 . S
O53 Eu40 2.418 . S
O53 C57 1.244 1_565 S
O54 Eu41 2.488 . S
O54 C70 1.249 . S
O55 Eu41 2.471 . S
O55 C70 1.244 . S
O56 Eu41 2.349 . S
O56 C57 1.265 . S
C57 O53 1.244 1_545 S
C57 O56 1.265 . S
O58 Eu40 2.373 . S
O58 C71 1.258 . S
O59 Eu41 2.392 1_565 S
O59 C71 1.242 . S
O60 Eu41 2.418 . S
O60 C42 1.244 . S
O61 Eu40 2.488 . S
O61 C49 1.249 . S
O62 Eu40 2.471 . S
O62 C49 1.244 . S
O63 Eu40 2.349 . S
O63 C42 1.265 1_565 S
C64 C65 1.379 . S
C64 C68 1.373 . S
C64 C70 1.505 . S
C65 C64 1.379 . S
C65 C67 1.369 . S
C65 H76 0.930 . S
C66 C68 1.383 . S
C66 C69 1.382 . S
C66 H77 0.930 . S
C67 C65 1.369 . S
C67 C69 1.392 . S
C67 H78 0.930 . S
C68 C64 1.373 . S
C68 C66 1.383 . S
C68 H79 0.931 . S
C69 C66 1.382 . S
C69 C67 1.392 . S
C70 Eu41 2.828 . S
C70 O54 1.249 . S
C70 O55 1.244 . S
C70 C64 1.505 . S
C71 O58 1.258 . S
C71 O59 1.242 . S
H72 C44 0.930 . S
H73 C45 0.930 . S
H74 C46 0.930 . S
H75 C47 0.931 . S
H76 C65 0.930 . S
H77 C66 0.930 . S
H78 C67 0.930 . S
H79 C68 0.931 . S
Eu80 C89 2.828 . S
Eu80 O91 2.392 . S
Eu80 O93 2.418 . S
Eu80 O98 2.373 . S
Eu80 O101 2.488 . S
Eu80 O102 2.471 . S
Eu80 O103 2.349 . S
Eu81 O90 2.373 . S
Eu81 O94 2.488 . S
Eu81 O95 2.471 . S
Eu81 O96 2.349 . S
Eu81 O99 2.392 . S
Eu81 O100 2.418 . S
Eu81 C110 2.828 . S
C82 O100 1.244 . S
C82 O103 1.265 . S
C83 C84 1.379 . S
C83 C87 1.373 . S
C83 C89 1.505 . S
C84 C83 1.379 . S
C84 C86 1.369 . S
C84 H112 0.930 . S
C85 C87 1.383 . S
C85 C88 1.382 . S
C85 H113 0.930 . S
C86 C84 1.369 . S
C86 C88 1.392 . S
C86 H114 0.930 . S
C87 C83 1.373 . S
C87 C85 1.383 . S
C87 H115 0.931 . S
C88 C85 1.382 . S
C88 C86 1.392 . S
C89 Eu80 2.828 . S
C89 C83 1.505 . S
C89 O101 1.249 . S
C89 O102 1.244 . S
O90 Eu81 2.373 . S
O90 C92 1.258 . S
O91 Eu80 2.392 . S
O91 C92 1.242 . S
C92 O90 1.258 . S
C92 O91 1.242 . S
O93 Eu80 2.418 . S
O93 C97 1.244 . S
O94 Eu81 2.488 . S
O94 C110 1.249 . S
O95 Eu81 2.471 . S
O95 C110 1.244 . S
O96 Eu81 2.349 . S
O96 C97 1.265 . S
C97 O93 1.244 . S
C97 O96 1.265 . S
O98 Eu80 2.373 . S
O98 C111 1.258 . S
O99 Eu81 2.392 . S
O99 C111 1.242 . S
O100 Eu81 2.418 . S
O100 C82 1.244 . S
O101 Eu80 2.488 . S
O101 C89 1.249 . S
O102 Eu80 2.471 . S
O102 C89 1.244 . S
O103 Eu80 2.349 . S
O103 C82 1.265 . S
C104 C105 1.379 . S
C104 C108 1.373 . S
C104 C110 1.505 . S
C105 C104 1.379 . S
C105 C107 1.369 . S
C105 H116 0.930 . S
C106 C108 1.383 . S
C106 C109 1.382 . S
C106 H117 0.930 . S
C107 C105 1.369 . S
C107 C109 1.392 . S
C107 H118 0.930 . S
C108 C104 1.373 . S
C108 C106 1.383 . S
C108 H119 0.931 . S
C109 C106 1.382 . S
C109 C107 1.392 . S
C110 Eu81 2.828 . S
C110 O94 1.249 . S
C110 O95 1.244 . S
C110 C104 1.505 . S
C111 O98 1.258 . S
C111 O99 1.242 . S
H112 C84 0.930 . S
H113 C85 0.930 . S
H114 C86 0.930 . S
H115 C87 0.931 . S
H116 C105 0.930 . S
H117 C106 0.930 . S
H118 C107 0.930 . S
H119 C108 0.931 . S
P120 O131 1.514 . S
P120 C134 1.813 . S
P120 C140 1.782 1_565 S
P120 C146 1.812 1_565 S
H121 C135 0.941 . S
H122 C136 0.939 . S
H123 C138 0.940 . S
H124 C139 0.940 . S
H125 C141 0.939 . S
H126 C142 0.942 . S
H127 C144 0.940 . S
H128 C145 0.939 . S
H129 C147 0.941 . S
H130 C151 0.939 . S
O131 P120 1.514 . S
H132 C148 0.939 . S
H133 C150 0.940 . S
C134 P120 1.813 . S
C134 C135 1.389 . S
C134 C139 1.391 . S
C135 H121 0.941 . S
C135 C134 1.389 . S
C135 C136 1.397 . S
C136 H122 0.939 . S
C136 C135 1.397 . S
C136 C137 1.378 . S
C137 C136 1.378 . S
C137 C138 1.378 . S
C138 H123 0.940 . S
C138 C137 1.378 . S
C138 C139 1.396 . S
C139 H124 0.940 . S
C139 C134 1.391 . S
C139 C138 1.396 . S
C140 P120 1.782 1_545 S
C140 C141 1.378 . S
C140 C145 1.400 . S
C141 H125 0.939 . S
C141 C140 1.378 . S
C141 C142 1.361 . S
C142 H126 0.942 . S
C142 C141 1.361 . S
C142 C143 1.369 . S
C143 C142 1.369 . S
C143 C144 1.404 . S
C144 H127 0.940 . S
C144 C143 1.404 . S
C144 C145 1.389 . S
C145 H128 0.939 . S
C145 C140 1.400 . S
C145 C144 1.389 . S
C146 P120 1.812 1_545 S
C146 C147 1.391 1_545 S
C146 C151 1.391 . S
C147 H129 0.941 . S
C147 C146 1.391 1_565 S
C147 C148 1.396 . S
C148 H132 0.939 . S
C148 C147 1.396 . S
C148 C149 1.397 1_565 S
C149 C148 1.397 1_545 S
C149 C150 1.385 . S
C150 H133 0.940 . S
C150 C149 1.385 . S
C150 C151 1.388 . S
C151 H130 0.939 . S
C151 C146 1.391 . S
C151 C150 1.388 . S
P152 O163 1.490 . S
P152 C166 1.812 . S
P152 C172 1.803 . S
P152 C178 1.819 . S
H153 C167 0.941 . S
H154 C168 0.939 . S
H155 C170 0.940 . S
H156 C171 0.940 . S
H157 C173 0.939 . S
H158 C174 0.942 . S
H159 C176 0.940 . S
H160 C177 0.939 . S
H161 C179 0.941 . S
H162 C183 0.939 . S
O163 P152 1.490 . S
H164 C180 0.939 . S
H165 C182 0.940 . S
C166 P152 1.812 . S
C166 C167 1.389 . S
C166 C171 1.391 . S
C167 H153 0.941 . S
C167 C166 1.389 . S
C167 C168 1.397 . S
C168 H154 0.939 . S
C168 C167 1.397 . S
C168 C169 1.378 . S
C169 C168 1.378 . S
C169 C170 1.378 . S
C170 H155 0.940 . S
C170 C169 1.378 . S
C170 C171 1.396 . S
C171 H156 0.940 . S
C171 C166 1.391 . S
C171 C170 1.396 . S
C172 P152 1.803 . S
C172 C173 1.378 . S
C172 C177 1.400 . S
C173 H157 0.939 . S
C173 C172 1.378 . S
C173 C174 1.361 . S
C174 H158 0.942 . S
C174 C173 1.361 . S
C174 C175 1.369 . S
C175 C174 1.369 . S
C175 C176 1.404 . S
C176 H159 0.940 . S
C176 C175 1.404 . S
C176 C177 1.389 . S
C177 H160 0.939 . S
C177 C172 1.400 . S
C177 C176 1.389 . S
C178 P152 1.819 . S
C178 C179 1.391 . S
C178 C183 1.391 . S
C179 H161 0.941 . S
C179 C178 1.391 . S
C179 C180 1.396 . S
C180 H164 0.939 . S
C180 C179 1.396 . S
C180 C181 1.397 . S
C181 C180 1.397 . S
C181 C182 1.385 . S
C182 H165 0.940 . S
C182 C181 1.385 . S
C182 C183 1.388 . S
C183 H162 0.939 . S
C183 C178 1.391 . S
C183 C182 1.388 . S
P184 O195 1.490 . S
P184 C198 1.812 . S
P184 C204 1.803 . S
P184 C210 1.819 . S
H185 C199 0.941 . S
H186 C200 0.939 . S
H187 C202 0.940 . S
H188 C203 0.940 . S
H189 C205 0.939 1_455 S
H190 C206 0.942 . S
H191 C208 0.940 . S
H192 C209 0.939 1_455 S
H193 C211 0.941 . S
H194 C215 0.939 1_655 S
O195 P184 1.490 . S
H196 C212 0.939 . S
H197 C214 0.940 1_655 S
C198 P184 1.812 . S
C198 C199 1.389 . S
C198 C203 1.391 . S
C199 H185 0.941 . S
C199 C198 1.389 . S
C199 C200 1.397 . S
C200 H186 0.939 . S
C200 C199 1.397 . S
C200 C201 1.378 . S
C201 C200 1.378 . S
C201 C202 1.378 . S
C202 H187 0.940 . S
C202 C201 1.378 . S
C202 C203 1.396 . S
C203 H188 0.940 . S
C203 C198 1.391 . S
C203 C202 1.396 . S
C204 P184 1.803 . S
C204 C205 1.378 1_455 S
C204 C209 1.400 1_455 S
C205 H189 0.939 1_655 S
C205 C204 1.378 1_655 S
C205 C206 1.361 . S
C206 H190 0.942 . S
C206 C205 1.361 . S
C206 C207 1.369 . S
C207 C206 1.369 . S
C207 C208 1.404 . S
C208 H191 0.940 . S
C208 C207 1.404 . S
C208 C209 1.389 . S
C209 H192 0.939 1_655 S
C209 C204 1.400 1_655 S
C209 C208 1.389 . S
C210 P184 1.819 . S
C210 C211 1.391 . S
C210 C215 1.391 . S
C211 H193 0.941 . S
C211 C210 1.391 . S
C211 C212 1.396 . S
C212 H196 0.939 . S
C212 C211 1.396 . S
C212 C213 1.397 . S
C213 C212 1.397 . S
C213 C214 1.385 . S
C214 H197 0.940 1_455 S
C214 C213 1.385 . S
C214 C215 1.388 . S
C215 H194 0.939 1_455 S
C215 C210 1.391 . S
C215 C214 1.388 . S
P216 O227 1.490 . S
P216 C230 1.812 . S
P216 C236 1.803 1_455 S
P216 C242 1.819 . S
H217 C231 0.941 . S
H218 C232 0.939 . S
H219 C234 0.940 . S
H220 C235 0.940 . S
H221 C237 0.939 . S
H222 C238 0.942 . S
H223 C240 0.940 . S
H224 C241 0.939 . S
H225 C243 0.941 . S
H226 C247 0.939 . S
O227 P216 1.490 . S
H228 C244 0.939 . S
H229 C246 0.940 . S
C230 P216 1.812 . S
C230 C231 1.389 . S
C230 C235 1.391 . S
C231 H217 0.941 . S
C231 C230 1.389 . S
C231 C232 1.397 . S
C232 H218 0.939 . S
C232 C231 1.397 . S
C232 C233 1.378 . S
C233 C232 1.378 . S
C233 C234 1.378 . S
C234 H219 0.940 . S
C234 C233 1.378 . S
C234 C235 1.396 . S
C235 H220 0.940 . S
C235 C230 1.391 . S
C235 C234 1.396 . S
C236 P216 1.803 1_655 S
C236 C237 1.378 . S
C236 C241 1.400 . S
C237 H221 0.939 . S
C237 C236 1.378 . S
C237 C238 1.361 . S
C238 H222 0.942 . S
C238 C237 1.361 . S
C238 C239 1.369 . S
C239 C238 1.369 . S
C239 C240 1.404 . S
C240 H223 0.940 . S
C240 C239 1.404 . S
C240 C241 1.389 . S
C241 H224 0.939 . S
C241 C236 1.400 . S
C241 C240 1.389 . S
C242 P216 1.819 . S
C242 C243 1.391 . S
C242 C247 1.391 1_455 S
C243 H225 0.941 . S
C243 C242 1.391 . S
C243 C244 1.396 . S
C244 H228 0.939 . S
C244 C243 1.396 . S
C244 C245 1.397 . S
C245 C244 1.397 . S
C245 C246 1.385 1_455 S
C246 H229 0.940 . S
C246 C245 1.385 1_655 S
C246 C247 1.388 . S
C247 H226 0.939 . S
C247 C242 1.391 1_655 S
C247 C246 1.388 . S
P248 O259 1.490 . S
P248 C262 1.812 . S
P248 C268 1.803 1_545 S
P248 C274 1.819 . S
H249 C263 0.941 . S
H250 C264 0.939 . S
H251 C266 0.940 . S
H252 C267 0.940 . S
H253 C269 0.939 . S
H254 C270 0.942 . S
H255 C272 0.940 . S
H256 C273 0.939 . S
H257 C275 0.941 . S
H258 C279 0.939 . S
O259 P248 1.490 . S
H260 C276 0.939 . S
H261 C278 0.940 . S
C262 P248 1.812 . S
C262 C263 1.389 . S
C262 C267 1.391 . S
C263 H249 0.941 . S
C263 C262 1.389 . S
C263 C264 1.397 . S
C264 H250 0.939 . S
C264 C263 1.397 . S
C264 C265 1.378 . S
C265 C264 1.378 . S
C265 C266 1.378 . S
C266 H251 0.940 . S
C266 C265 1.378 . S
C266 C267 1.396 . S
C267 H252 0.940 . S
C267 C262 1.391 . S
C267 C266 1.396 . S
C268 P248 1.803 1_565 S
C268 C269 1.378 . S
C268 C273 1.400 . S
C269 H253 0.939 . S
C269 C268 1.378 . S
C269 C270 1.361 . S
C270 H254 0.942 . S
C270 C269 1.361 . S
C270 C271 1.369 . S
C271 C270 1.369 . S
C271 C272 1.404 . S
C272 H255 0.940 . S
C272 C271 1.404 . S
C272 C273 1.389 . S
C273 H256 0.939 . S
C273 C268 1.400 . S
C273 C272 1.389 . S
C274 P248 1.819 . S
C274 C275 1.391 . S
C274 C279 1.391 1_545 S
C275 H257 0.941 . S
C275 C274 1.391 . S
C275 C276 1.396 . S
C276 H260 0.939 . S
C276 C275 1.396 . S
C276 C277 1.397 . S
C277 C276 1.397 . S
C277 C278 1.385 1_545 S
C278 H261 0.940 . S
C278 C277 1.385 1_565 S
C278 C279 1.388 . S
C279 H258 0.939 . S
C279 C274 1.391 1_565 S
C279 C278 1.388 . S
P280 O291 1.490 . S
P280 C294 1.812 . S
P280 C300 1.803 . S
P280 C306 1.819 . S
H281 C295 0.941 . S
H282 C296 0.939 . S
H283 C298 0.940 . S
H284 C299 0.940 . S
H285 C301 0.939 . S
H286 C302 0.942 . S
H287 C304 0.940 . S
H288 C305 0.939 . S
H289 C307 0.941 . S
H290 C311 0.939 . S
O291 P280 1.490 . S
H292 C308 0.939 . S
H293 C310 0.940 . S
C294 P280 1.812 . S
C294 C295 1.389 . S
C294 C299 1.391 . S
C295 H281 0.941 . S
C295 C294 1.389 . S
C295 C296 1.397 . S
C296 H282 0.939 . S
C296 C295 1.397 . S
C296 C297 1.378 . S
C297 C296 1.378 . S
C297 C298 1.378 . S
C298 H283 0.940 . S
C298 C297 1.378 . S
C298 C299 1.396 . S
C299 H284 0.940 . S
C299 C294 1.391 . S
C299 C298 1.396 . S
C300 P280 1.803 . S
C300 C301 1.378 . S
C300 C305 1.400 . S
C301 H285 0.939 . S
C301 C300 1.378 . S
C301 C302 1.361 . S
C302 H286 0.942 . S
C302 C301 1.361 . S
C302 C303 1.369 . S
C303 C302 1.369 . S
C303 C304 1.404 . S
C304 H287 0.940 . S
C304 C303 1.404 . S
C304 C305 1.389 . S
C305 H288 0.939 . S
C305 C300 1.400 . S
C305 C304 1.389 . S
C306 P280 1.819 . S
C306 C307 1.391 . S
C306 C311 1.391 . S
C307 H289 0.941 . S
C307 C306 1.391 . S
C307 C308 1.396 . S
C308 H292 0.939 . S
C308 C307 1.396 . S
C308 C309 1.397 . S
C309 C308 1.397 . S
C309 C310 1.385 . S
C310 H293 0.940 . S
C310 C309 1.385 . S
C310 C311 1.388 . S
C311 H290 0.939 . S
C311 C306 1.391 . S
C311 C310 1.388 . S
H312 C318 0.930 . S
H313 C322 0.930 . S
H314 C327 0.929 . S
H315 C325 0.929 . S
H316 C320 0.929 . S
H317 C326 0.929 . S
C318 H312 0.930 . S
C318 C319 1.367 . S
C318 C326 1.378 . S
C319 C318 1.367 . S
C319 C327 1.433 . S
C320 H316 0.929 . S
C320 C322 1.378 . S
C320 C324 1.350 . S
C321 C324 1.463 . S
C321 C326 1.350 . S
C321 N329 1.427 . S
C322 H313 0.930 . S
C322 C320 1.378 . S
C322 C323 1.367 . S
C323 C322 1.367 . S
C323 C325 1.433 . S
C324 C320 1.350 . S
C324 C321 1.463 . S
C324 N328 1.427 . S
C325 H315 0.929 . S
C325 C323 1.433 . S
C325 N328 1.384 . S
C326 H317 0.929 . S
C326 C318 1.378 . S
C326 C321 1.350 . S
C327 H314 0.929 . S
C327 C319 1.433 . S
C327 N329 1.384 . S
N328 C324 1.427 . S
N328 C325 1.384 . S
N329 C321 1.427 . S
N329 C327 1.384 . S
H330 C336 0.930 . S
H331 C340 0.930 . S
H332 C345 0.929 . S
H333 C343 0.929 . S
H334 C338 0.929 . S
H335 C344 0.929 . S
C336 H330 0.930 . S
C336 C337 1.367 . S
C336 C344 1.378 . S
C337 C336 1.367 . S
C337 C345 1.433 . S
C338 H334 0.929 . S
C338 C340 1.378 . S
C338 C342 1.350 . S
C339 C342 1.463 . S
C339 C344 1.350 . S
C339 N347 1.427 . S
C340 H331 0.930 . S
C340 C338 1.378 . S
C340 C341 1.367 . S
C341 C340 1.367 . S
C341 C343 1.433 . S
C342 C338 1.350 . S
C342 C339 1.463 . S
C342 N346 1.427 . S
C343 H333 0.929 . S
C343 C341 1.433 . S
C343 N346 1.384 . S
C344 H335 0.929 . S
C344 C336 1.378 . S
C344 C339 1.350 . S
C345 H332 0.929 . S
C345 C337 1.433 . S
C345 N347 1.384 . S
N346 C342 1.427 . S
N346 C343 1.384 . S
N347 C339 1.427 . S
N347 C345 1.384 . S
H348 C354 0.930 . S
H349 C358 0.930 . S
H350 C363 0.929 . S
H351 C361 0.929 . S
H352 C356 0.929 . S
H353 C362 0.929 . S
C354 H348 0.930 . S
C354 C355 1.367 . S
C354 C362 1.378 . S
C355 C354 1.367 . S
C355 C363 1.433 . S
C356 H352 0.929 . S
C356 C358 1.378 . S
C356 C360 1.350 . S
C357 C360 1.463 . S
C357 C362 1.350 . S
C357 N365 1.427 . S
C358 H349 0.930 . S
C358 C356 1.378 . S
C358 C359 1.367 . S
C359 C358 1.367 . S
C359 C361 1.433 . S
C360 C356 1.350 . S
C360 C357 1.463 . S
C360 N364 1.427 . S
C361 H351 0.929 . S
C361 C359 1.433 . S
C361 N364 1.384 . S
C362 H353 0.929 . S
C362 C354 1.378 . S
C362 C357 1.350 . S
C363 H350 0.929 . S
C363 C355 1.433 . S
C363 N365 1.384 . S
N364 C360 1.427 . S
N364 C361 1.384 . S
N365 C357 1.427 . S
N365 C363 1.384 . S
H366 C372 0.930 . S
H367 C376 0.930 . S
H368 C381 0.929 . S
H369 C379 0.929 . S
H370 C374 0.929 . S
H371 C380 0.929 . S
C372 H366 0.930 . S
C372 C373 1.367 . S
C372 C380 1.378 . S
C373 C372 1.367 . S
C373 C381 1.433 . S
C374 H370 0.929 . S
C374 C376 1.378 . S
C374 C378 1.350 . S
C375 C378 1.463 . S
C375 C380 1.350 . S
C375 N383 1.427 . S
C376 H367 0.930 . S
C376 C374 1.378 . S
C376 C377 1.367 . S
C377 C376 1.367 . S
C377 C379 1.433 . S
C378 C374 1.350 . S
C378 C375 1.463 . S
C378 N382 1.427 . S
C379 H369 0.929 . S
C379 C377 1.433 . S
C379 N382 1.384 . S
C380 H371 0.929 . S
C380 C372 1.378 . S
C380 C375 1.350 . S
C381 H368 0.929 . S
C381 C373 1.433 . S
C381 N383 1.384 . S
N382 C378 1.427 . S
N382 C379 1.384 . S
N383 C375 1.427 . S
N383 C381 1.384 . S
H384 C390 0.930 . S
H385 C394 0.930 . S
H386 C399 0.929 . S
H387 C397 0.929 . S
H388 C392 0.929 . S
H389 C398 0.929 . S
C390 H384 0.930 . S
C390 C391 1.367 . S
C390 C398 1.378 . S
C391 C390 1.367 . S
C391 C399 1.433 . S
C392 H388 0.929 . S
C392 C394 1.378 . S
C392 C396 1.350 . S
C393 C396 1.463 . S
C393 C398 1.350 . S
C393 N401 1.427 . S
C394 H385 0.930 . S
C394 C392 1.378 . S
C394 C395 1.367 . S
C395 C394 1.367 . S
C395 C397 1.433 . S
C396 C392 1.350 . S
C396 C393 1.463 . S
C396 N400 1.427 . S
C397 H387 0.929 . S
C397 C395 1.433 . S
C397 N400 1.384 . S
C398 H389 0.929 . S
C398 C390 1.378 . S
C398 C393 1.350 . S
C399 H386 0.929 . S
C399 C391 1.433 . S
C399 N401 1.384 . S
N400 C396 1.427 . S
N400 C397 1.384 . S
N401 C393 1.427 . S
N401 C399 1.384 . S
H402 C408 0.930 . S
H403 C412 0.930 . S
H404 C417 0.929 . S
H405 C415 0.929 . S
H406 C410 0.929 . S
H407 C416 0.929 . S
C408 H402 0.930 . S
C408 C409 1.367 . S
C408 C416 1.378 . S
C409 C408 1.367 . S
C409 C417 1.433 . S
C410 H406 0.929 . S
C410 C412 1.378 . S
C410 C414 1.350 . S
C411 C414 1.463 . S
C411 C416 1.350 . S
C411 N419 1.427 . S
C412 H403 0.930 . S
C412 C410 1.378 . S
C412 C413 1.367 . S
C413 C412 1.367 . S
C413 C415 1.433 . S
C414 C410 1.350 . S
C414 C411 1.463 . S
C414 N418 1.427 . S
C415 H405 0.929 . S
C415 C413 1.433 . S
C415 N418 1.384 . S
C416 H407 0.929 . S
C416 C408 1.378 . S
C416 C411 1.350 . S
C417 H404 0.929 . S
C417 C409 1.433 . S
C417 N419 1.384 . S
N418 C414 1.427 . S
N418 C415 1.384 . S
N419 C411 1.427 . S
N419 C417 1.384 . S
H420 C426 0.930 . S
H421 C430 0.930 . S
H422 C435 0.929 . S
H423 C433 0.929 . S
H424 C428 0.929 . S
H425 C434 0.929 . S
C426 H420 0.930 . S
C426 C427 1.367 . S
C426 C434 1.378 . S
C427 C426 1.367 . S
C427 C435 1.433 . S
C428 H424 0.929 . S
C428 C430 1.378 . S
C428 C432 1.350 . S
C429 C432 1.463 . S
C429 C434 1.350 . S
C429 N437 1.427 . S
C430 H421 0.930 . S
C430 C428 1.378 . S
C430 C431 1.367 . S
C431 C430 1.367 . S
C431 C433 1.433 . S
C432 C428 1.350 . S
C432 C429 1.463 . S
C432 N436 1.427 . S
C433 H423 0.929 . S
C433 C431 1.433 . S
C433 N436 1.384 . S
C434 H425 0.929 . S
C434 C426 1.378 . S
C434 C429 1.350 . S
C435 H422 0.929 . S
C435 C427 1.433 . S
C435 N437 1.384 . S
N436 C432 1.427 . S
N436 C433 1.384 . S
N437 C429 1.427 . S
N437 C435 1.384 . S
H438 C444 0.930 . S
H439 C448 0.930 . S
H440 C453 0.929 . S
H441 C451 0.929 . S
H442 C446 0.929 . S
H443 C452 0.929 . S
C444 H438 0.930 . S
C444 C445 1.367 . S
C444 C452 1.378 . S
C445 C444 1.367 . S
C445 C453 1.433 . S
C446 H442 0.929 . S
C446 C448 1.378 . S
C446 C450 1.350 . S
C447 C450 1.463 . S
C447 C452 1.350 . S
C447 N455 1.427 . S
C448 H439 0.930 . S
C448 C446 1.378 . S
C448 C449 1.367 . S
C449 C448 1.367 . S
C449 C451 1.433 . S
C450 C446 1.350 . S
C450 C447 1.463 . S
C450 N454 1.427 . S
C451 H441 0.929 . S
C451 C449 1.433 . S
C451 N454 1.384 . S
C452 H443 0.929 . S
C452 C444 1.378 . S
C452 C447 1.350 . S
C453 H440 0.929 . S
C453 C445 1.433 . S
C453 N455 1.384 . S
N454 C450 1.427 . S
N454 C451 1.384 . S
N455 C447 1.427 . S
N455 C453 1.384 . S
H456 C462 0.930 . S
H457 C466 0.930 . S
H458 C471 0.929 . S
H459 C469 0.929 . S
H460 C464 0.929 . S
H461 C470 0.929 . S
C462 H456 0.930 . S
C462 C463 1.367 . S
C462 C470 1.378 . S
C463 C462 1.367 . S
C463 C471 1.433 . S
C464 H460 0.929 . S
C464 C466 1.378 . S
C464 C468 1.350 . S
C465 C468 1.463 . S
C465 C470 1.350 . S
C465 N473 1.427 . S
C466 H457 0.930 . S
C466 C464 1.378 . S
C466 C467 1.367 . S
C467 C466 1.367 . S
C467 C469 1.433 . S
C468 C464 1.350 . S
C468 C465 1.463 . S
C468 N472 1.427 . S
C469 H459 0.929 . S
C469 C467 1.433 . S
C469 N472 1.384 . S
C470 H461 0.929 . S
C470 C462 1.378 . S
C470 C465 1.350 . S
C471 H458 0.929 . S
C471 C463 1.433 . S
C471 N473 1.384 . S
N472 C468 1.427 . S
N472 C469 1.384 . S
N473 C465 1.427 . S
N473 C471 1.384 . S
H474 C480 0.930 . S
H475 C484 0.930 . S
H476 C489 0.929 . S
H477 C487 0.929 . S
H478 C482 0.929 . S
H479 C488 0.929 . S
C480 H474 0.930 . S
C480 C481 1.367 . S
C480 C488 1.378 . S
C481 C480 1.367 . S
C481 C489 1.433 . S
C482 H478 0.929 . S
C482 C484 1.378 . S
C482 C486 1.350 . S
C483 C486 1.463 . S
C483 C488 1.350 . S
C483 N491 1.427 . S
C484 H475 0.930 . S
C484 C482 1.378 . S
C484 C485 1.367 . S
C485 C484 1.367 . S
C485 C487 1.433 . S
C486 C482 1.350 . S
C486 C483 1.463 . S
C486 N490 1.427 . S
C487 H477 0.929 . S
C487 C485 1.433 . S
C487 N490 1.384 . S
C488 H479 0.929 . S
C488 C480 1.378 . S
C488 C483 1.350 . S
C489 H476 0.929 . S
C489 C481 1.433 . S
C489 N491 1.384 . S
N490 C486 1.427 . S
N490 C487 1.384 . S
N491 C483 1.427 . S
N491 C489 1.384 . S
H492 C498 0.930 . S
H493 C502 0.930 . S
H494 C507 0.929 . S
H495 C505 0.929 . S
H496 C500 0.929 . S
H497 C506 0.929 . S
C498 H492 0.930 . S
C498 C499 1.367 . S
C498 C506 1.378 . S
C499 C498 1.367 . S
C499 C507 1.433 . S
C500 H496 0.929 . S
C500 C502 1.378 . S
C500 C504 1.350 . S
C501 C504 1.463 . S
C501 C506 1.350 . S
C501 N509 1.427 . S
C502 H493 0.930 . S
C502 C500 1.378 . S
C502 C503 1.367 . S
C503 C502 1.367 . S
C503 C505 1.433 . S
C504 C500 1.350 . S
C504 C501 1.463 . S
C504 N508 1.427 . S
C505 H495 0.929 . S
C505 C503 1.433 . S
C505 N508 1.384 . S
C506 H497 0.929 . S
C506 C498 1.378 . S
C506 C501 1.350 . S
C507 H494 0.929 . S
C507 C499 1.433 . S
C507 N509 1.384 . S
N508 C504 1.427 . S
N508 C505 1.384 . S
N509 C501 1.427 . S
N509 C507 1.384 . S
H510 C516 0.930 . S
H511 C520 0.930 . S
H512 C525 0.929 . S
H513 C523 0.929 . S
H514 C518 0.929 . S
H515 C524 0.929 . S
C516 H510 0.930 . S
C516 C517 1.367 . S
C516 C524 1.378 . S
C517 C516 1.367 . S
C517 C525 1.433 . S
C518 H514 0.929 . S
C518 C520 1.378 . S
C518 C522 1.350 . S
C519 C522 1.463 . S
C519 C524 1.350 . S
C519 N527 1.427 . S
C520 H511 0.930 . S
C520 C518 1.378 . S
C520 C521 1.367 . S
C521 C520 1.367 . S
C521 C523 1.433 . S
C522 C518 1.350 . S
C522 C519 1.463 . S
C522 N526 1.427 . S
C523 H513 0.929 . S
C523 C521 1.433 . S
C523 N526 1.384 . S
C524 H515 0.929 . S
C524 C516 1.378 . S
C524 C519 1.350 . S
C525 H512 0.929 . S
C525 C517 1.433 . S
C525 N527 1.384 . S
N526 C522 1.427 . S
N526 C523 1.384 . S
N527 C519 1.427 . S
N527 C525 1.384 . S
H528 C534 0.930 . S
H529 C538 0.931 1_656 S
H530 C543 0.929 . S
H531 C541 0.929 . S
H532 C536 0.929 . S
H533 C542 0.929 . S
C534 H528 0.930 . S
C534 C535 1.367 . S
C534 C542 1.378 . S
C535 C534 1.367 . S
C535 C543 1.433 1_455 S
C536 H532 0.929 . S
C536 C538 1.378 1_655 S
C536 C540 1.350 1_655 S
C537 C540 1.463 . S
C537 C542 1.350 . S
C537 N545 1.427 1_455 S
C538 H529 0.931 1_454 S
C538 C536 1.378 1_455 S
C538 C539 1.366 1_554 S
C539 C538 1.366 1_556 S
C539 C541 1.433 1_556 S
C540 C536 1.350 1_455 S
C540 C537 1.463 . S
C540 N544 1.427 . S
C541 H531 0.929 . S
C541 C539 1.433 1_554 S
C541 N544 1.384 . S
C542 H533 0.929 . S
C542 C534 1.378 . S
C542 C537 1.350 . S
C543 H530 0.929 . S
C543 C535 1.433 1_655 S
C543 N545 1.384 . S
N544 C540 1.427 . S
N544 C541 1.384 . S
N545 C537 1.427 1_655 S
N545 C543 1.384 . S
H546 C552 0.930 . S
H547 C556 0.930 . S
H548 C561 0.929 . S
H549 C559 0.929 . S
H550 C554 0.929 . S
H551 C560 0.929 . S
C552 H546 0.930 . S
C552 C553 1.367 1_565 S
C552 C560 1.378 . S
C553 C552 1.367 1_545 S
C553 C561 1.433 . S
C554 H550 0.929 . S
C554 C556 1.378 . S
C554 C558 1.350 . S
C555 C558 1.463 . S
C555 C560 1.350 1_545 S
C555 N563 1.427 . S
C556 H547 0.930 . S
C556 C554 1.378 . S
C556 C557 1.367 . S
C557 C556 1.367 . S
C557 C559 1.433 1_545 S
C558 C554 1.350 . S
C558 C555 1.463 . S
C558 N562 1.427 1_545 S
C559 H549 0.929 . S
C559 C557 1.433 1_565 S
C559 N562 1.384 . S
C560 H551 0.929 . S
C560 C552 1.378 . S
C560 C555 1.350 1_565 S
C561 H548 0.929 . S
C561 C553 1.433 . S
C561 N563 1.384 . S
N562 C558 1.427 1_565 S
N562 C559 1.384 . S
N563 C555 1.427 . S
N563 C561 1.384 . S
H564 C570 0.930 . S
H565 C574 0.930 . S
H566 C579 0.929 . S
H567 C577 0.929 . S
H568 C572 0.929 . S
H569 C578 0.929 . S
C570 H564 0.930 . S
C570 C571 1.367 . S
C570 C578 1.378 . S
C571 C570 1.367 . S
C571 C579 1.433 . S
C572 H568 0.929 . S
C572 C574 1.378 . S
C572 C576 1.350 . S
C573 C576 1.463 . S
C573 C578 1.350 . S
C573 N581 1.427 . S
C574 H565 0.930 . S
C574 C572 1.378 . S
C574 C575 1.367 . S
C575 C574 1.367 . S
C575 C577 1.433 . S
C576 C572 1.350 . S
C576 C573 1.463 . S
C576 N580 1.427 . S
C577 H567 0.929 . S
C577 C575 1.433 . S
C577 N580 1.384 . S
C578 H569 0.929 . S
C578 C570 1.378 . S
C578 C573 1.350 . S
C579 H566 0.929 . S
C579 C571 1.433 . S
C579 N581 1.384 . S
N580 C576 1.427 . S
N580 C577 1.384 . S
N581 C573 1.427 . S
N581 C579 1.384 . S
H582 C588 0.930 . S
H583 C592 0.930 . S
H584 C597 0.929 . S
H585 C595 0.929 . S
H586 C590 0.929 . S
H587 C596 0.929 . S
C588 H582 0.930 . S
C588 C589 1.367 1_565 S
C588 C596 1.378 . S
C589 C588 1.367 1_545 S
C589 C597 1.433 . S
C590 H586 0.929 . S
C590 C592 1.378 . S
C590 C594 1.350 . S
C591 C594 1.463 . S
C591 C596 1.350 1_545 S
C591 N599 1.427 . S
C592 H583 0.930 . S
C592 C590 1.378 . S
C592 C593 1.367 . S
C593 C592 1.367 . S
C593 C595 1.433 1_545 S
C594 C590 1.350 . S
C594 C591 1.463 . S
C594 N598 1.427 1_545 S
C595 H585 0.929 . S
C595 C593 1.433 1_565 S
C595 N598 1.384 . S
C596 H587 0.929 . S
C596 C588 1.378 . S
C596 C591 1.350 1_565 S
C597 H584 0.929 . S
C597 C589 1.433 . S
C597 N599 1.384 . S
N598 C594 1.427 1_565 S
N598 C595 1.384 . S
N599 C591 1.427 . S
N599 C597 1.384 . S
H600 C606 0.930 . S
H601 C610 0.930 . S
H602 C615 0.929 . S
H603 C613 0.929 . S
H604 C608 0.929 . S
H605 C614 0.929 . S
C606 H600 0.930 . S
C606 C607 1.367 . S
C606 C614 1.378 . S
C607 C606 1.367 . S
C607 C615 1.433 . S
C608 H604 0.929 . S
C608 C610 1.378 1_556 S
C608 C612 1.350 . S
C609 C612 1.463 . S
C609 C614 1.350 . S
C609 N617 1.427 . S
C610 H601 0.930 . S
C610 C608 1.378 1_554 S
C610 C611 1.367 . S
C611 C610 1.367 . S
C611 C613 1.433 . S
C612 C608 1.350 . S
C612 C609 1.463 . S
C612 N616 1.427 . S
C613 H603 0.929 . S
C613 C611 1.433 . S
C613 N616 1.384 1_554 S
C614 H605 0.929 . S
C614 C606 1.378 . S
C614 C609 1.350 . S
C615 H602 0.929 . S
C615 C607 1.433 . S
C615 N617 1.384 . S
N616 C612 1.427 . S
N616 C613 1.384 1_556 S
N617 C609 1.427 . S
N617 C615 1.384 . S
H618 C624 0.930 . S
H619 C628 0.930 . S
H620 C633 0.929 . S
H621 C631 0.929 . S
H622 C626 0.929 . S
H623 C632 0.917 . S
C624 H618 0.930 . S
C624 C625 1.375 . S
C624 C632 1.378 . S
C625 C624 1.375 . S
C625 C633 1.425 1_655 S
C626 H622 0.929 . S
C626 C628 1.378 . S
C626 C630 1.350 . S
C627 C630 1.463 . S
C627 C632 1.349 1_455 S
C627 N635 1.427 . S
C628 H619 0.930 . S
C628 C626 1.378 . S
C628 C629 1.367 . S
C629 C628 1.367 . S
C629 C631 1.433 . S
C630 C626 1.350 . S
C630 C627 1.463 . S
C630 N634 1.427 . S
C631 H621 0.929 . S
C631 C629 1.433 . S
C631 N634 1.384 . S
C632 H623 0.917 . S
C632 C624 1.378 . S
C632 C627 1.349 1_655 S
C633 H620 0.929 . S
C633 C625 1.425 1_455 S
C633 N635 1.384 . S
N634 C630 1.427 . S
N634 C631 1.384 . S
N635 C627 1.427 . S
N635 C633 1.384 . S
C319 C12 2.902 . S
C323 C303 2.840 . S
C337 C52 2.929 . S
C341 C239 2.873 . S
C355 C111 2.973 . S
C359 C271 2.916 . S
C373 C31 3.108 . S
C377 C297 3.043 . S
C395 C233 3.017 . S
C391 C71 3.083 . S
C413 C265 2.973 . S
C409 C92 3.033 . S
C427 C48 0.499 . S
C431 C175 0.458 . S
C445 C109 0.520 . S
C449 C207 0.435 . S
C463 C29 0.528 . S
C467 C137 0.504 . S
C485 C169 0.339 . S
C481 C69 0.448 . S
C503 C201 0.319 . S
C499 C88 0.337 . S
C517 C8 0.344 . S
C521 C143 0.375 . S
C539 C213 1.076 . S
C535 C17 1.074 1_455 S
C553 C57 1.053 . S
C557 C149 1.054 . S
C571 C97 1.070 . S
C575 C181 1.078 . S
C593 C277 1.745 . S
C589 C42 1.727 . S
C611 C309 1.744 . S
C607 C82 1.730 . S
C625 C2 1.734 1_655 S
C629 C245 1.748 . S
