# Generated by pormake.
# Topology ctn, (3,4)-cn, num edge types: 1
# Building blocks:
#     Node 0, Type 0, BuildingBlock: KAKCAD_clean_linker_0, # of connection points: 3
#     Node 1, Type 0, BuildingBlock: KAKCAD_clean_linker_0, # of connection points: 3
#     Node 2, Type 0, BuildingBlock: KAKCAD_clean_linker_0, # of connection points: 3
#     Node 3, Type 0, BuildingBlock: KAKCAD_clean_linker_0, # of connection points: 3
#     Node 4, Type 0, BuildingBlock: KAKCAD_clean_linker_0, # of connection points: 3
#     Node 5, Type 0, BuildingBlock: KAKCAD_clean_linker_0, # of connection points: 3
#     Node 6, Type 0, BuildingBlock: KAKCAD_clean_linker_0, # of connection points: 3
#     Node 7, Type 0, BuildingBlock: KAKCAD_clean_linker_0, # of connection points: 3
#     Node 8, Type 0, BuildingBlock: KAKCAD_clean_linker_0, # of connection points: 3
#     Node 9, Type 0, BuildingBlock: KAKCAD_clean_linker_0, # of connection points: 3
#     Node 10, Type 0, BuildingBlock: KAKCAD_clean_linker_0, # of connection points: 3
#     Node 11, Type 0, BuildingBlock: KAKCAD_clean_linker_0, # of connection points: 3
#     Node 12, Type 0, BuildingBlock: KAKCAD_clean_linker_0, # of connection points: 3
#     Node 13, Type 0, BuildingBlock: KAKCAD_clean_linker_0, # of connection points: 3
#     Node 14, Type 0, BuildingBlock: KAKCAD_clean_linker_0, # of connection points: 3
#     Node 15, Type 0, BuildingBlock: KAKCAD_clean_linker_0, # of connection points: 3
#     Node 16, Type 1, BuildingBlock: KUFVIS_clean_sbu_0, # of connection points: 4
#     Node 17, Type 1, BuildingBlock: KUFVIS_clean_sbu_0, # of connection points: 4
#     Node 18, Type 1, BuildingBlock: KUFVIS_clean_sbu_0, # of connection points: 4
#     Node 19, Type 1, BuildingBlock: KUFVIS_clean_sbu_0, # of connection points: 4
#     Node 20, Type 1, BuildingBlock: KUFVIS_clean_sbu_0, # of connection points: 4
#     Node 21, Type 1, BuildingBlock: KUFVIS_clean_sbu_0, # of connection points: 4
#     Node 22, Type 1, BuildingBlock: KUFVIS_clean_sbu_0, # of connection points: 4
#     Node 23, Type 1, BuildingBlock: KUFVIS_clean_sbu_0, # of connection points: 4
#     Node 24, Type 1, BuildingBlock: KUFVIS_clean_sbu_0, # of connection points: 4
#     Node 25, Type 1, BuildingBlock: KUFVIS_clean_sbu_0, # of connection points: 4
#     Node 26, Type 1, BuildingBlock: KUFVIS_clean_sbu_0, # of connection points: 4
#     Node 27, Type 1, BuildingBlock: KUFVIS_clean_sbu_0, # of connection points: 4
#     Edge 28, Type (0, 1), BuildingBlock: OJICUG_clean_linker_0, # of connection points: 2
#     Edge 29, Type (0, 1), BuildingBlock: OJICUG_clean_linker_0, # of connection points: 2
#     Edge 30, Type (0, 1), BuildingBlock: OJICUG_clean_linker_0, # of connection points: 2
#     Edge 31, Type (0, 1), BuildingBlock: OJICUG_clean_linker_0, # of connection points: 2
#     Edge 32, Type (0, 1), BuildingBlock: OJICUG_clean_linker_0, # of connection points: 2
#     Edge 33, Type (0, 1), BuildingBlock: OJICUG_clean_linker_0, # of connection points: 2
#     Edge 34, Type (0, 1), BuildingBlock: OJICUG_clean_linker_0, # of connection points: 2
#     Edge 35, Type (0, 1), BuildingBlock: OJICUG_clean_linker_0, # of connection points: 2
#     Edge 36, Type (0, 1), BuildingBlock: OJICUG_clean_linker_0, # of connection points: 2
#     Edge 37, Type (0, 1), BuildingBlock: OJICUG_clean_linker_0, # of connection points: 2
#     Edge 38, Type (0, 1), BuildingBlock: OJICUG_clean_linker_0, # of connection points: 2
#     Edge 39, Type (0, 1), BuildingBlock: OJICUG_clean_linker_0, # of connection points: 2
#     Edge 40, Type (0, 1), BuildingBlock: OJICUG_clean_linker_0, # of connection points: 2
#     Edge 41, Type (0, 1), BuildingBlock: OJICUG_clean_linker_0, # of connection points: 2
#     Edge 42, Type (0, 1), BuildingBlock: OJICUG_clean_linker_0, # of connection points: 2
#     Edge 43, Type (0, 1), BuildingBlock: OJICUG_clean_linker_0, # of connection points: 2
#     Edge 44, Type (0, 1), BuildingBlock: OJICUG_clean_linker_0, # of connection points: 2
#     Edge 45, Type (0, 1), BuildingBlock: OJICUG_clean_linker_0, # of connection points: 2
#     Edge 46, Type (0, 1), BuildingBlock: OJICUG_clean_linker_0, # of connection points: 2
#     Edge 47, Type (0, 1), BuildingBlock: OJICUG_clean_linker_0, # of connection points: 2
#     Edge 48, Type (0, 1), BuildingBlock: OJICUG_clean_linker_0, # of connection points: 2
#     Edge 49, Type (0, 1), BuildingBlock: OJICUG_clean_linker_0, # of connection points: 2
#     Edge 50, Type (0, 1), BuildingBlock: OJICUG_clean_linker_0, # of connection points: 2
#     Edge 51, Type (0, 1), BuildingBlock: OJICUG_clean_linker_0, # of connection points: 2
#     Edge 52, Type (0, 1), BuildingBlock: OJICUG_clean_linker_0, # of connection points: 2
#     Edge 53, Type (0, 1), BuildingBlock: OJICUG_clean_linker_0, # of connection points: 2
#     Edge 54, Type (0, 1), BuildingBlock: OJICUG_clean_linker_0, # of connection points: 2
#     Edge 55, Type (0, 1), BuildingBlock: OJICUG_clean_linker_0, # of connection points: 2
#     Edge 56, Type (0, 1), BuildingBlock: OJICUG_clean_linker_0, # of connection points: 2
#     Edge 57, Type (0, 1), BuildingBlock: OJICUG_clean_linker_0, # of connection points: 2
#     Edge 58, Type (0, 1), BuildingBlock: OJICUG_clean_linker_0, # of connection points: 2
#     Edge 59, Type (0, 1), BuildingBlock: OJICUG_clean_linker_0, # of connection points: 2
#     Edge 60, Type (0, 1), BuildingBlock: OJICUG_clean_linker_0, # of connection points: 2
#     Edge 61, Type (0, 1), BuildingBlock: OJICUG_clean_linker_0, # of connection points: 2
#     Edge 62, Type (0, 1), BuildingBlock: OJICUG_clean_linker_0, # of connection points: 2
#     Edge 63, Type (0, 1), BuildingBlock: OJICUG_clean_linker_0, # of connection points: 2
#     Edge 64, Type (0, 1), BuildingBlock: OJICUG_clean_linker_0, # of connection points: 2
#     Edge 65, Type (0, 1), BuildingBlock: OJICUG_clean_linker_0, # of connection points: 2
#     Edge 66, Type (0, 1), BuildingBlock: OJICUG_clean_linker_0, # of connection points: 2
#     Edge 67, Type (0, 1), BuildingBlock: OJICUG_clean_linker_0, # of connection points: 2
#     Edge 68, Type (0, 1), BuildingBlock: OJICUG_clean_linker_0, # of connection points: 2
#     Edge 69, Type (0, 1), BuildingBlock: OJICUG_clean_linker_0, # of connection points: 2
#     Edge 70, Type (0, 1), BuildingBlock: OJICUG_clean_linker_0, # of connection points: 2
#     Edge 71, Type (0, 1), BuildingBlock: OJICUG_clean_linker_0, # of connection points: 2
#     Edge 72, Type (0, 1), BuildingBlock: OJICUG_clean_linker_0, # of connection points: 2
#     Edge 73, Type (0, 1), BuildingBlock: OJICUG_clean_linker_0, # of connection points: 2
#     Edge 74, Type (0, 1), BuildingBlock: OJICUG_clean_linker_0, # of connection points: 2
#     Edge 75, Type (0, 1), BuildingBlock: OJICUG_clean_linker_0, # of connection points: 2
# Relax obj value: 0.012
# Max RMSD: 0.061
# Mean RMSD: 0.029
data_MOF--net-ctn--node1-KUFVIS_clean_sbu_0--node2-KAKCAD_clean_linker_0--edge1-OJICUG_clean_linker_0
_symmetry_space_group_name_H-M    P1
_symmetry_Int_Tables_number       1
_symmetry_cell_setting            triclinic
loop_
_symmetry_equiv_pos_as_xyz
'x, y, z'
_cell_length_a     51.701492
_cell_length_b     51.55697
_cell_length_c     51.688686
_cell_angle_alpha  91.073382
_cell_angle_beta   90.499952
_cell_angle_gamma 91.793743
loop_
_atom_site_label
_atom_site_type_symbol
_atom_site_fract_x
_atom_site_fract_y
_atom_site_fract_z
_atom_type_partial_charge
C0 C 0.03352 0.11191 0.9775 0.0
C1 C 0.0232 0.13431 0.98872 0.0
C2 C 0.0398 0.09084 0.99275 0.0
C3 C 0.03623 0.09168 0.01974 0.0
C4 C 0.02592 0.11418 0.03096 0.0
C5 C 0.01937 0.13517 0.01561 0.0
C6 C 0.04297 0.06899 0.03586 0.0
C7 C 0.06458 0.05418 0.0297 0.0
C8 C 0.07022 0.03155 0.04329 0.0
C9 C 0.05414 0.0244 0.06406 0.0
C10 C 0.03322 0.03962 0.07141 0.0
C11 C 0.02763 0.06168 0.05703 0.0
C12 C 0.01726 0.03261 0.09428 0.0
C13 C 0.00845 0.00689 0.098 0.0
C14 C 0.01096 0.05169 0.11273 0.0
C15 C 0.99619 0.04525 0.13438 0.0
C16 C 0.98704 0.01957 0.13806 0.0
C17 C 0.09277 0.01547 0.03567 0.0
C18 C 0.10095 0.01411 0.00977 0.0
C19 C 0.10637 1.00129 0.05412 0.0
C20 C 0.12711 0.986 0.04684 0.0
C21 C 0.1355 0.98491 0.02097 0.0
C22 C 0.12215 0.99945 1.00263 0.0
C23 C 0.99343 1.00047 0.11954 0.0
H24 H 0.03632 0.11045 0.95678 0.0
H25 H 0.04709 0.0737 0.98325 0.0
H26 H 0.02321 0.11577 0.05167 0.0
H27 H 0.01168 0.15227 0.02486 0.0
H28 H 0.07729 0.06065 0.01443 0.0
H29 H 0.01082 0.07272 0.06197 0.0
H30 H 0.05788 0.00703 0.07473 0.0
H31 H 0.01277 0.99179 0.08399 0.0
H32 H 0.0178 0.07161 0.11063 0.0
H33 H 0.99221 0.06044 0.14839 0.0
H34 H 0.09088 0.02418 0.99471 0.0
H35 H 0.10121 1.00202 0.07435 0.0
H36 H 0.98643 0.98058 0.12137 0.0
H37 H 0.12806 0.99977 0.98261 0.0
H38 H 0.13631 0.97484 0.06164 0.0
C39 C 0.38314 0.73775 0.27178 0.0
C40 C 0.40265 0.71941 0.27442 0.0
C41 C 0.36405 0.73467 0.2526 0.0
C42 C 0.36358 0.71291 0.23597 0.0
C43 C 0.38254 0.69426 0.23872 0.0
C44 C 0.40204 0.6976 0.25755 0.0
C45 C 0.34313 0.7096 0.21593 0.0
C46 C 0.34027 0.72838 0.19694 0.0
C47 C 0.32074 0.72548 0.17793 0.0
C48 C 0.30392 0.70347 0.17831 0.0
C49 C 0.30607 0.68472 0.19767 0.0
C50 C 0.32601 0.688 0.21629 0.0
C51 C 0.28687 0.66249 0.19934 0.0
C52 C 0.26077 0.66537 0.19208 0.0
C53 C 0.29414 0.63854 0.20944 0.0
C54 C 0.27568 0.61866 0.2134 0.0
C55 C 0.24971 0.62194 0.20662 0.0
C56 C 0.31754 0.74571 0.15804 0.0
C57 C 0.31971 0.77223 0.16489 0.0
C58 C 0.31182 0.73868 0.13216 0.0
C59 C 0.30801 0.75768 0.11367 0.0
C60 C 0.30982 0.78421 0.12058 0.0
C61 C 0.31588 0.79125 0.14639 0.0
C62 C 0.24249 0.64517 0.19538 0.0
H63 H 0.38234 0.75448 0.28464 0.0
H64 H 0.34938 0.74912 0.251 0.0
H65 H 0.38252 0.67734 0.22597 0.0
H66 H 0.41683 0.68324 0.2585 0.0
H67 H 0.35359 0.74503 0.19677 0.0
H68 H 0.32779 0.67435 0.23184 0.0
H69 H 0.28887 0.7012 0.16368 0.0
H70 H 0.25413 0.68352 0.18469 0.0
H71 H 0.31406 0.63515 0.21462 0.0
H72 H 0.28163 0.60075 0.22198 0.0
H73 H 0.32385 0.77834 0.18469 0.0
H74 H 0.3103 0.71845 0.12615 0.0
H75 H 0.22252 0.64808 0.19009 0.0
H76 H 0.31766 0.81148 0.15234 0.0
H77 H 0.30304 0.75152 0.09406 0.0
C78 C 0.01107 0.50924 0.12949 0.0
C79 C 0.03774 0.50483 0.12876 0.0
C80 C 0.9953 0.50363 0.10785 0.0
C81 C 0.00583 0.49369 0.08482 0.0
C82 C 0.03257 0.48937 0.08411 0.0
C83 C 0.0483 0.49476 0.10584 0.0
C84 C 0.98895 0.48766 0.06176 0.0
C85 C 0.96831 0.50365 0.05562 0.0
C86 C 0.95153 0.49761 0.03462 0.0
C87 C 0.95615 0.47549 0.01916 0.0
C88 C 0.97686 0.4593 0.02476 0.0
C89 C 0.99303 0.46555 0.04615 0.0
C90 C 0.981 0.43517 0.00912 0.0
C91 C 0.95982 0.41922 1.00098 0.0
C92 C 0.00613 0.42741 1.00294 0.0
C93 C 0.00997 0.40407 0.98937 0.0
C94 C 0.98877 0.38788 0.98173 0.0
C95 C 0.92883 0.51407 0.02949 0.0
C96 C 0.91449 0.5241 0.0502 0.0
C97 C 0.92122 0.51992 1.00408 0.0
C98 C 0.90001 0.53561 0.99958 0.0
C99 C 0.88598 0.54591 0.02037 0.0
C100 C 0.89344 0.53982 0.04571 0.0
C101 C 0.96366 0.39596 0.98744 0.0
H102 H 1.0023 0.51666 0.14697 0.0
H103 H 0.97474 0.50673 0.10935 0.0
H104 H 0.04147 0.48212 0.06663 0.0
H105 H 0.06884 0.49149 0.10456 0.0
H106 H 0.96544 0.52111 0.0671 0.0
H107 H 0.00828 0.45258 0.05124 0.0
H108 H 0.94336 0.47064 1.00295 0.0
H109 H 0.94022 0.42438 1.00558 0.0
H110 H 0.02288 0.43938 0.00865 0.0
H111 H 0.02956 0.39845 0.98536 0.0
H112 H 0.91933 0.51954 0.07 0.0
H113 H 0.93193 0.51276 0.98766 0.0
H114 H 0.94683 0.38425 0.98145 0.0
H115 H 0.88275 0.54693 0.06218 0.0
H116 H 0.89491 0.54007 0.97983 0.0
C117 C 0.68292 0.75393 0.12453 0.0
C118 C 0.70768 0.74777 0.11563 0.0
C119 C 0.68002 0.77192 0.1449 0.0
C120 C 0.70182 0.78423 0.15679 0.0
C121 C 0.72654 0.77811 0.14778 0.0
C122 C 0.72942 0.76022 0.12746 0.0
C123 C 0.69913 0.80314 0.17874 0.0
C124 C 0.68105 0.79855 0.19847 0.0
C125 C 0.67988 0.81543 0.22011 0.0
C126 C 0.6973 0.83691 0.22199 0.0
C127 C 0.71524 0.84224 0.20226 0.0
C128 C 0.71554 0.82539 0.18052 0.0
C129 C 0.73415 0.86482 0.20473 0.0
C130 C 0.72786 0.88753 0.21863 0.0
C131 C 0.75906 0.8636 0.1939 0.0
C132 C 0.77713 0.88417 0.19723 0.0
C133 C 0.77112 0.90605 0.21222 0.0
C134 C 0.66061 0.81059 0.24093 0.0
C135 C 0.63485 0.80331 0.23467 0.0
C136 C 0.66768 0.81369 0.26718 0.0
C137 C 0.64943 0.80971 0.28667 0.0
C138 C 0.62361 0.80261 0.28041 0.0
C139 C 0.61657 0.79942 0.25415 0.0
C140 C 0.74627 0.90768 0.22267 0.0
H141 H 0.66575 0.74455 0.11603 0.0
H142 H 0.6607 0.77629 0.15121 0.0
H143 H 0.7438 0.78689 0.15668 0.0
H144 H 0.74877 0.75626 0.12094 0.0
H145 H 0.6685 0.78133 0.19746 0.0
H146 H 0.72852 0.82959 0.16472 0.0
H147 H 0.69685 0.84941 0.23901 0.0
H148 H 0.70878 0.88979 0.22663 0.0
H149 H 0.76507 0.84644 0.18349 0.0
H150 H 0.79619 0.88248 0.18899 0.0
H151 H 0.6287 0.80095 0.21465 0.0
H152 H 0.68742 0.81901 0.27271 0.0
H153 H 0.74114 0.92454 0.23412 0.0
H154 H 0.59696 0.7936 0.24862 0.0
H155 H 0.6555 0.81246 0.30667 0.0
C156 C 0.96594 0.97804 0.41583 0.0
C157 C 0.97682 0.989 0.3936 0.0
C158 C 0.9811 0.97447 0.43797 0.0
C159 C 0.00772 0.98123 0.43825 0.0
C160 C 0.01838 0.99275 0.41602 0.0
C161 C 1.00305 0.9968 0.39406 0.0
C162 C 0.02442 0.97552 0.46119 0.0
C163 C 0.01945 0.95324 0.47615 0.0
C164 C 0.0357 0.94719 0.49709 0.0
C165 C 0.05739 0.9635 0.50273 0.0
C166 C 0.06263 0.98559 0.48814 0.0
C167 C 0.046 0.99178 0.46777 0.0
C168 C 0.08622 1.00164 0.49367 0.0
C169 C 0.08479 0.02542 0.50709 0.0
C170 C 0.11037 0.99297 0.48572 0.0
C171 C 0.13281 0.00817 0.49058 0.0
C172 C 0.13153 0.03218 0.50382 0.0
C173 C 0.03035 0.92386 0.5131 0.0
C174 C 1.005 0.91701 0.52069 0.0
C175 C 0.05081 0.90882 0.52181 0.0
C176 C 0.04619 0.88803 0.53829 0.0
C177 C 0.02097 0.88158 0.54645 0.0
C178 C 1.00036 0.89607 0.53714 0.0
C179 C 0.1073 0.04044 0.51236 0.0
H180 H 0.9457 0.97193 0.41594 0.0
H181 H 0.9719 0.96618 0.45477 0.0
H182 H 0.03881 0.99784 0.4151 0.0
H183 H 0.01196 1.00495 0.37702 0.0
H184 H 1.00344 0.94004 0.47105 0.0
H185 H 0.05018 0.00919 0.45696 0.0
H186 H 0.07016 0.95927 0.51875 0.0
H187 H 0.06629 0.03231 0.5135 0.0
H188 H 0.1118 0.97454 0.47548 0.0
H189 H 0.15118 1.00112 0.484 0.0
H190 H 0.9888 0.92829 0.51454 0.0
H191 H 0.0705 0.91311 0.5159 0.0
H192 H 0.10564 0.05881 0.52257 0.0
H193 H 0.98071 0.89169 0.54315 0.0
H194 H 0.06245 0.87692 0.54459 0.0
C195 C 0.11169 0.70084 0.77728 0.0
C196 C 0.11643 0.70354 0.75071 0.0
C197 C 0.13215 0.69777 0.79473 0.0
C198 C 0.15779 0.69708 0.78597 0.0
C199 C 0.16248 0.69916 0.75933 0.0
C200 C 0.14204 0.7025 0.74191 0.0
C201 C 0.17969 0.69555 0.80465 0.0
C202 C 0.19992 0.67852 0.80011 0.0
C203 C 0.22122 0.67793 0.81718 0.0
C204 C 0.22239 0.69521 0.83858 0.0
C205 C 0.20221 0.7123 0.8437 0.0
C206 C 0.18074 0.71188 0.82673 0.0
C207 C 0.20391 0.73103 0.86623 0.0
C208 C 0.21757 0.72501 0.88897 0.0
C209 C 0.19255 0.75551 0.86497 0.0
C210 C 0.19516 0.77345 0.8855 0.0
C211 C 0.20998 0.76781 0.90737 0.0
C212 C 0.24205 0.65899 0.81296 0.0
C213 C 0.23575 0.63308 0.80592 0.0
C214 C 0.26828 0.66642 0.81656 0.0
C215 C 0.2877 0.64834 0.81329 0.0
C216 C 0.28136 0.62236 0.80647 0.0
C217 C 0.25514 0.615 0.80274 0.0
C218 C 0.22094 0.74336 0.90908 0.0
H219 H 0.09219 0.70173 0.78468 0.0
H220 H 0.12793 0.69606 0.81513 0.0
H221 H 0.18205 0.69891 0.75204 0.0
H222 H 0.14627 0.70427 0.72152 0.0
H223 H 0.19907 0.66574 0.78322 0.0
H224 H 0.16484 0.72458 0.83035 0.0
H225 H 0.23917 0.69522 0.85125 0.0
H226 H 0.22594 0.70621 0.89129 0.0
H227 H 0.1823 0.76135 0.8478 0.0
H228 H 0.18655 0.79221 0.88377 0.0
H229 H 0.21575 0.62663 0.80324 0.0
H230 H 0.27383 0.68628 0.82174 0.0
H231 H 0.2323 0.73853 0.92593 0.0
H232 H 0.24955 0.59527 0.79708 0.0
H233 H 0.30768 0.65465 0.81643 0.0
C234 C 0.9902 0.63241 0.51639 0.0
C235 C 1.00228 0.63031 0.54072 0.0
C236 C 0.98669 0.6106 0.50011 0.0
C237 C 0.99485 0.58629 0.508 0.0
C238 C 0.00702 0.58407 0.53216 0.0
C239 C 0.01094 0.60597 0.5483 0.0
C240 C 0.99007 0.56323 0.49114 0.0
C241 C 1.00549 0.55916 0.4694 0.0
C242 C 0.99996 0.53833 0.45204 0.0
C243 C 0.97872 0.52142 0.45704 0.0
C244 C 0.96285 0.52545 0.47874 0.0
C245 C 0.96894 0.54636 0.49582 0.0
C246 C 0.93883 0.50923 0.48255 0.0
C247 C 0.92307 0.50169 0.46125 0.0
C248 C 0.93068 0.50231 0.5075 0.0
C249 C 0.9071 0.48876 0.51107 0.0
C250 C 0.89109 0.48179 0.48976 0.0
C251 C 0.01541 0.53529 0.42797 0.0
C252 C 0.02332 0.55728 0.41408 0.0
C253 C 0.02206 0.51063 0.41842 0.0
C254 C 0.03619 0.50812 0.39549 0.0
C255 C 0.04388 0.53019 0.38155 0.0
C256 C 0.03742 0.55479 0.39132 0.0
C257 C 0.89962 0.48808 0.4648 0.0
H258 H 0.98355 0.65094 0.50992 0.0
H259 H 0.97725 0.61262 0.48149 0.0
H260 H 0.01342 0.56541 0.53853 0.0
H261 H 0.02024 0.60374 0.56693 0.0
H262 H 0.02174 0.57242 0.46601 0.0
H263 H 0.95659 0.55034 0.51216 0.0
H264 H 0.97409 0.50554 0.44361 0.0
H265 H 0.92844 0.5069 0.44179 0.0
H266 H 0.94246 0.50754 0.52434 0.0
H267 H 0.90115 0.48429 0.53056 0.0
H268 H 0.01828 0.57656 0.42055 0.0
H269 H 0.01647 0.49328 0.42873 0.0
H270 H 0.8881 0.48257 0.44786 0.0
H271 H 0.04339 0.57228 0.38142 0.0
H272 H 0.04072 0.48888 0.38849 0.0
C273 C 0.81786 0.75263 0.89222 0.0
C274 C 0.79193 0.74462 0.89598 0.0
C275 C 0.82411 0.77226 0.87469 0.0
C276 C 0.80456 0.78434 0.86056 0.0
C277 C 0.77866 0.77656 0.86474 0.0
C278 C 0.77244 0.75718 0.88229 0.0
C279 C 0.81086 0.80439 0.84092 0.0
C280 C 0.83213 0.80171 0.82444 0.0
C281 C 0.83708 0.81946 0.80454 0.0
C282 C 0.82015 0.84004 0.80113 0.0
C283 C 0.79861 0.84295 0.81729 0.0
C284 C 0.79455 0.82537 0.83742 0.0
C285 C 0.7795 0.86344 0.81251 0.0
C286 C 0.78758 0.88875 0.80595 0.0
C287 C 0.75281 0.85761 0.81423 0.0
C288 C 0.73466 0.87652 0.8095 0.0
C289 C 0.74269 0.90181 0.80285 0.0
C290 C 0.85906 0.81533 0.78653 0.0
C291 C 0.88267 0.80618 0.79588 0.0
C292 C 0.85618 0.81891 0.75972 0.0
C293 C 0.87594 0.81233 0.74264 0.0
C294 C 0.8989 0.80184 0.75198 0.0
C295 C 0.90227 0.7994 0.77881 0.0
C296 C 0.76939 0.90773 0.80124 0.0
H297 H 0.83335 0.74336 0.9024 0.0
H298 H 0.84426 0.77795 0.87218 0.0
H299 H 0.76305 0.78504 0.85403 0.0
H300 H 0.75221 0.75197 0.88504 0.0
H301 H 0.84417 0.78501 0.82632 0.0
H302 H 0.77844 0.828 0.85037 0.0
H303 H 0.82343 0.8535 0.78557 0.0
H304 H 0.80798 0.89395 0.80462 0.0
H305 H 0.74585 0.83823 0.81888 0.0
H306 H 0.71429 0.87132 0.81114 0.0
H307 H 0.88583 0.80373 0.81642 0.0
H308 H 0.83822 0.82565 0.75176 0.0
H309 H 0.77626 0.92693 0.79587 0.0
H310 H 0.91991 0.7917 0.78659 0.0
H311 H 0.87271 0.8142 0.72203 0.0
C312 C 0.31933 0.25352 0.39255 0.0
C313 C 0.2934 0.24537 0.39607 0.0
C314 C 0.32562 0.27321 0.37509 0.0
C315 C 0.30613 0.28519 0.3608 0.0
C316 C 0.28023 0.27726 0.36475 0.0
C317 C 0.27397 0.25783 0.38223 0.0
C318 C 0.3125 0.30527 0.34121 0.0
C319 C 0.33393 0.3027 0.32493 0.0
C320 C 0.33894 0.32043 0.30503 0.0
C321 C 0.32193 0.3409 0.30144 0.0
C322 C 0.30026 0.34374 0.31742 0.0
C323 C 0.2961 0.32616 0.33753 0.0
C324 C 0.28112 0.36414 0.31244 0.0
C325 C 0.28919 0.38946 0.30591 0.0
C326 C 0.25442 0.35822 0.3139 0.0
C327 C 0.23627 0.37705 0.3089 0.0
C328 C 0.24429 0.40234 0.30226 0.0
C329 C 0.36105 0.31637 0.28718 0.0
C330 C 0.38471 0.30759 0.29675 0.0
C331 C 0.35821 0.31959 0.26032 0.0
C332 C 0.37808 0.31294 0.24339 0.0
C333 C 0.40111 0.30278 0.25296 0.0
C334 C 0.40443 0.30079 0.27985 0.0
C335 C 0.27099 0.40836 0.30094 0.0
H336 H 0.33479 0.24434 0.40286 0.0
H337 H 0.34577 0.27901 0.37277 0.0
H338 H 0.26466 0.28566 0.35391 0.0
H339 H 0.25373 0.2525 0.3848 0.0
H340 H 0.34607 0.28609 0.32694 0.0
H341 H 0.27985 0.3287 0.35033 0.0
H342 H 0.32527 0.35433 0.28585 0.0
H343 H 0.30959 0.39473 0.30478 0.0
H344 H 0.24748 0.33883 0.31853 0.0
H345 H 0.21589 0.37178 0.31034 0.0
H346 H 0.3878 0.30543 0.31734 0.0
H347 H 0.3402 0.32606 0.25221 0.0
H348 H 0.27785 0.42756 0.29559 0.0
H349 H 0.42213 0.29336 0.28781 0.0
H350 H 0.37487 0.31447 0.22275 0.0
C351 C 0.51109 0.00906 0.62948 0.0
C352 C 0.53775 1.00458 0.62881 0.0
C353 C 0.49532 1.00331 0.60788 0.0
C354 C 0.50585 0.99318 0.58492 0.0
C355 C 0.53258 0.98877 0.58428 0.0
C356 C 0.5483 0.9943 0.60599 0.0
C357 C 0.48897 0.98708 0.56186 0.0
C358 C 0.46837 1.00309 0.55566 0.0
C359 C 0.45158 0.997 0.53469 0.0
C360 C 0.45615 0.97482 0.51929 0.0
C361 C 0.47685 0.95861 0.52495 0.0
C362 C 0.49302 0.9649 0.54633 0.0
C363 C 0.48097 0.93444 0.50937 0.0
C364 C 0.45979 0.91848 0.50124 0.0
C365 C 0.5061 0.92664 0.50323 0.0
C366 C 0.50994 0.90327 0.48971 0.0
C367 C 0.48874 0.88708 0.48208 0.0
C368 C 0.42891 0.01352 0.52952 0.0
C369 C 0.41461 0.02362 0.55022 0.0
C370 C 0.42136 0.01939 0.5041 0.0
C371 C 0.40025 0.03522 0.49958 0.0
C372 C 0.38628 0.04563 0.52037 0.0
C373 C 0.39366 0.03947 0.54571 0.0
C374 C 0.46362 0.89518 0.48776 0.0
H375 H 0.50233 0.01665 0.6469 0.0
H376 H 0.47478 0.00647 0.60934 0.0
H377 H 0.54147 0.98138 0.56686 0.0
H378 H 0.56883 0.99095 0.60476 0.0
H379 H 0.46553 0.0206 0.56706 0.0
H380 H 0.50824 0.95193 0.55147 0.0
H381 H 0.44336 0.96995 0.5031 0.0
H382 H 0.4402 0.92367 0.50581 0.0
H383 H 0.52286 0.9386 0.50892 0.0
H384 H 0.52953 0.89763 0.48572 0.0
H385 H 0.41941 0.01904 0.57002 0.0
H386 H 0.43203 0.01216 0.48769 0.0
H387 H 0.44679 0.88347 0.48178 0.0
H388 H 0.38301 0.04665 0.56217 0.0
H389 H 0.39519 0.03971 0.47983 0.0
C390 C 0.18314 0.25449 0.62397 0.0
C391 C 0.20799 0.24849 0.61519 0.0
C392 C 0.18003 0.27253 0.64426 0.0
C393 C 0.2017 0.28504 0.65619 0.0
C394 C 0.22651 0.27905 0.64732 0.0
C395 C 0.2296 0.26111 0.62709 0.0
C396 C 0.19878 0.30407 0.678 0.0
C397 C 0.1807 0.29945 0.69771 0.0
C398 C 0.17934 0.31645 0.71924 0.0
C399 C 0.19656 0.3381 0.72101 0.0
C400 C 0.2145 0.34344 0.7013 0.0
C401 C 0.215 0.32646 0.67968 0.0
C402 C 0.2333 0.36611 0.70374 0.0
C403 C 0.22686 0.38885 0.7175 0.0
C404 C 0.25829 0.36488 0.69312 0.0
C405 C 0.27631 0.38547 0.69656 0.0
C406 C 0.27016 0.40738 0.71144 0.0
C407 C 0.16014 0.31155 0.7401 0.0
C408 C 0.13444 0.30394 0.73393 0.0
C409 C 0.16722 0.31494 0.76633 0.0
C410 C 0.14904 0.31094 0.78587 0.0
C411 C 0.12328 0.30351 0.7797 0.0
C412 C 0.11623 0.30002 0.75348 0.0
C413 C 0.24522 0.40903 0.72166 0.0
H414 H 0.16607 0.24497 0.61543 0.0
H415 H 0.16065 0.2768 0.65047 0.0
H416 H 0.24368 0.28799 0.65626 0.0
H417 H 0.24901 0.25726 0.62066 0.0
H418 H 0.1683 0.28212 0.69679 0.0
H419 H 0.22801 0.33066 0.66389 0.0
H420 H 0.19597 0.35071 0.73795 0.0
H421 H 0.20771 0.3911 0.72535 0.0
H422 H 0.26442 0.3477 0.68284 0.0
H423 H 0.29546 0.38375 0.68855 0.0
H424 H 0.12829 0.30134 0.71394 0.0
H425 H 0.18692 0.32051 0.7718 0.0
H426 H 0.23999 0.4259 0.73303 0.0
H427 H 0.09667 0.29393 0.74802 0.0
H428 H 0.15512 0.31395 0.80584 0.0
C429 C 0.88409 0.23644 0.77202 0.0
C430 C 0.90381 0.21835 0.77471 0.0
C431 C 0.86512 0.2332 0.75274 0.0
C432 C 0.86499 0.2115 0.73603 0.0
C433 C 0.88417 0.19309 0.73882 0.0
C434 C 0.90355 0.1966 0.75776 0.0
C435 C 0.84451 0.20793 0.71602 0.0
C436 C 0.84117 0.2268 0.69718 0.0
C437 C 0.82112 0.22396 0.67875 0.0
C438 C 0.8045 0.20186 0.67928 0.0
C439 C 0.80713 0.18299 0.69843 0.0
C440 C 0.82748 0.18624 0.71663 0.0
C441 C 0.78792 0.16077 0.70034 0.0
C442 C 0.76184 0.16361 0.69298 0.0
C443 C 0.79512 0.13688 0.71066 0.0
C444 C 0.77661 0.11703 0.71466 0.0
C445 C 0.75068 0.12027 0.70766 0.0
C446 C 0.81675 0.2446 0.65965 0.0
C447 C 0.79168 0.25352 0.65542 0.0
C448 C 0.83743 0.25572 0.64576 0.0
C449 C 0.83306 0.27518 0.62782 0.0
C450 C 0.80797 0.28415 0.62371 0.0
C451 C 0.78737 0.27312 0.63775 0.0
C452 C 0.74355 0.14343 0.69625 0.0
H453 H 0.88301 0.2531 0.78495 0.0
H454 H 0.85025 0.24745 0.75115 0.0
H455 H 0.8844 0.1762 0.72604 0.0
H456 H 0.91851 0.18242 0.75876 0.0
H457 H 0.85392 0.2439 0.6972 0.0
H458 H 0.82959 0.17258 0.73211 0.0
H459 H 0.78952 0.19945 0.66458 0.0
H460 H 0.75517 0.1817 0.68548 0.0
H461 H 0.81501 0.13349 0.71594 0.0
H462 H 0.78249 0.09918 0.72338 0.0
H463 H 0.7754 0.24552 0.66602 0.0
H464 H 0.85693 0.24915 0.64856 0.0
H465 H 0.72362 0.14631 0.69078 0.0
H466 H 0.76778 0.2794 0.6348 0.0
H467 H 0.84932 0.28338 0.61734 0.0
C468 C 0.5296 0.60931 0.47577 0.0
C469 C 0.51924 0.6318 0.48679 0.0
C470 C 0.536 0.58842 0.49124 0.0
C471 C 0.53248 0.58955 0.51822 0.0
C472 C 0.52187 0.61203 0.52918 0.0
C473 C 0.51522 0.63282 0.51364 0.0
C474 C 0.54045 0.56773 0.53492 0.0
C475 C 0.56288 0.55404 0.52921 0.0
C476 C 0.57097 0.53392 0.54503 0.0
C477 C 0.55669 0.52791 0.56728 0.0
C478 C 0.53383 0.54089 0.5733 0.0
C479 C 0.52584 0.56064 0.55672 0.0
C480 C 0.51819 0.53363 0.5966 0.0
C481 C 0.51758 0.50805 0.60576 0.0
C482 C 0.50361 0.55215 0.60993 0.0
C483 C 0.48859 0.54524 0.6313 0.0
C484 C 0.48816 0.5197 0.6406 0.0
C485 C 0.59403 0.51878 0.53794 0.0
C486 C 0.59728 0.50985 0.51234 0.0
C487 C 0.6126 0.51261 0.55668 0.0
C488 C 0.63385 0.49776 0.55 0.0
C489 C 0.63697 0.4885 0.52443 0.0
C490 C 0.6184 0.49485 0.50569 0.0
C491 C 0.50317 0.50131 0.62757 0.0
H492 H 0.53254 0.60775 0.45508 0.0
H493 H 0.54359 0.5713 0.48196 0.0
H494 H 0.51923 0.61386 0.54988 0.0
H495 H 0.50751 0.64998 0.52276 0.0
H496 H 0.57452 0.55939 0.5127 0.0
H497 H 0.50786 0.5702 0.56036 0.0
H498 H 0.56341 0.51283 0.57973 0.0
H499 H 0.52798 0.49291 0.59598 0.0
H500 H 0.50378 0.57218 0.60403 0.0
H501 H 0.47707 0.56004 0.64022 0.0
H502 H 0.58312 0.51396 0.49752 0.0
H503 H 0.61083 0.51947 0.5765 0.0
H504 H 0.504 0.48157 0.63416 0.0
H505 H 0.6198 0.48773 0.48593 0.0
H506 H 0.64794 0.49372 0.56488 0.0
C507 C 0.46607 0.47525 0.91629 0.0
C508 C 0.47681 0.48646 0.89412 0.0
C509 C 0.4813 0.4717 0.93838 0.0
C510 C 0.50786 0.47874 0.93867 0.0
C511 C 0.51838 0.49048 0.91648 0.0
C512 C 0.50296 0.49451 0.89458 0.0
C513 C 0.52465 0.47309 0.96156 0.0
C514 C 0.51991 0.45071 0.97642 0.0
C515 C 0.53624 0.44472 0.99731 0.0
C516 C 0.5578 0.46119 1.003 0.0
C517 C 0.56282 0.4834 0.98851 0.0
C518 C 0.54609 0.48953 0.96819 0.0
C519 C 0.58626 0.49968 0.99409 0.0
C520 C 0.58456 0.52355 0.00728 0.0
C521 C 0.61053 0.49116 0.98633 0.0
C522 C 0.63282 0.50661 0.99115 0.0
C523 C 0.63126 0.53071 1.00417 0.0
C524 C 0.53105 0.4213 0.01324 0.0
C525 C 0.50575 0.41426 0.02083 0.0
C526 C 0.55162 0.40636 0.02186 0.0
C527 C 0.54715 0.38548 0.03826 0.0
C528 C 0.52197 0.37886 0.04644 0.0
C529 C 0.50125 0.39324 0.03721 0.0
C530 C 0.60692 0.53882 0.01253 0.0
H531 H 0.44588 0.46897 0.91642 0.0
H532 H 0.47221 0.46323 0.95515 0.0
H533 H 0.53877 0.49578 0.91557 0.0
H534 H 0.51176 0.50288 0.87759 0.0
H535 H 0.50401 0.43739 0.97127 0.0
H536 H 0.55008 0.50703 0.95746 0.0
H537 H 0.57063 0.457 0.01898 0.0
H538 H 0.56596 0.53034 0.01352 0.0
H539 H 0.61218 0.47267 0.97625 0.0
H540 H 0.65129 0.49969 0.9847 0.0
H541 H 0.48948 0.42546 0.01474 0.0
H542 H 0.57128 0.4108 0.01595 0.0
H543 H 0.60505 0.55725 0.02256 0.0
H544 H 0.48164 0.38873 0.04324 0.0
H545 H 0.56349 0.37445 0.04451 0.0
C546 C 0.61473 0.20425 0.27931 0.0
C547 C 0.61899 0.2054 0.25253 0.0
C548 C 0.63548 0.20184 0.29656 0.0
C549 C 0.66091 0.20025 0.28738 0.0
C550 C 0.66511 0.20082 0.26057 0.0
C551 C 0.64439 0.2035 0.24333 0.0
C552 C 0.68313 0.19917 0.30574 0.0
C553 C 0.70283 0.18143 0.30168 0.0
C554 C 0.72436 0.18102 0.31849 0.0
C555 C 0.72628 0.19918 0.33913 0.0
C556 C 0.70666 0.21706 0.34371 0.0
C557 C 0.68497 0.21651 0.32701 0.0
C558 C 0.70904 0.23656 0.36551 0.0
C559 C 0.72215 0.23077 0.38862 0.0
C560 C 0.69866 0.26142 0.36325 0.0
C561 C 0.70147 0.27987 0.38334 0.0
C562 C 0.71541 0.27423 0.40579 0.0
C563 C 0.74469 0.16145 0.31466 0.0
C564 C 0.73775 0.1355 0.3083 0.0
C565 C 0.7711 0.16838 0.31768 0.0
C566 C 0.79007 0.14984 0.31436 0.0
C567 C 0.78312 0.12388 0.308 0.0
C568 C 0.7567 0.11698 0.30502 0.0
C569 C 0.72563 0.24953 0.40834 0.0
H570 H 0.59541 0.20583 0.28699 0.0
H571 H 0.63165 0.2013 0.31711 0.0
H572 H 0.68451 0.19984 0.25294 0.0
H573 H 0.64824 0.20408 0.22278 0.0
H574 H 0.70139 0.16794 0.28536 0.0
H575 H 0.6695 0.22983 0.33028 0.0
H576 H 0.74317 0.19928 0.35165 0.0
H577 H 0.72983 0.21177 0.39159 0.0
H578 H 0.6889 0.26703 0.34572 0.0
H579 H 0.69353 0.29886 0.38095 0.0
H580 H 0.7176 0.12941 0.3061 0.0
H581 H 0.77715 0.18823 0.32234 0.0
H582 H 0.73633 0.24474 0.42563 0.0
H583 H 0.75062 0.09728 0.29975 0.0
H584 H 0.81021 0.15582 0.31696 0.0
C585 C 0.49278 0.13201 0.01733 0.0
C586 C 0.50075 0.12812 0.04298 0.0
C587 C 0.4889 0.11089 1.00024 0.0
C588 C 0.49234 0.08551 0.00867 0.0
C589 C 0.50028 0.08153 0.03427 0.0
C590 C 0.50482 0.10273 0.0512 0.0
C591 C 0.48693 0.0633 0.99076 0.0
C592 C 0.502 0.06008 0.96855 0.0
C593 C 0.49571 0.04041 0.95008 0.0
C594 C 0.4737 0.02425 0.95406 0.0
C595 C 0.45848 0.02732 0.97629 0.0
C596 C 0.46552 0.04655 0.99482 0.0
C597 C 0.434 0.01196 0.97899 0.0
C598 C 0.41485 0.01295 0.95972 0.0
C599 C 0.42935 0.99675 1.00082 0.0
C600 C 0.40619 0.98208 1.0029 0.0
C601 C 0.38699 0.98274 0.98339 0.0
C602 C 0.51145 0.03753 0.92619 0.0
C603 C 0.52089 0.0596 0.91332 0.0
C604 C 0.5171 0.01285 0.91598 0.0
C605 C 0.53177 0.01036 0.89342 0.0
C606 C 0.54102 0.0325 0.88049 0.0
C607 C 0.53552 0.05712 0.89088 0.0
C608 C 0.39155 0.99882 0.96203 0.0
H609 H 0.48962 0.15142 0.01052 0.0
H610 H 0.48271 0.11432 0.98055 0.0
H611 H 0.50302 0.06206 0.0411 0.0
H612 H 0.51098 0.09926 0.07085 0.0
H613 H 0.51867 0.07296 0.96577 0.0
H614 H 0.4535 0.04944 0.01166 0.0
H615 H 0.46796 0.00965 0.93959 0.0
H616 H 0.4178 0.02498 0.94297 0.0
H617 H 0.44388 0.9958 0.01598 0.0
H618 H 0.40363 0.96981 0.0195 0.0
H619 H 0.5167 0.07891 0.92038 0.0
H620 H 0.51035 0.99542 0.92553 0.0
H621 H 0.37706 1.00063 0.94698 0.0
H622 H 0.54266 0.07463 0.88173 0.0
H623 H 0.53552 0.99111 0.8859 0.0
Mn624 Mn 0.2578 0.87778 0.00966 0.0
Mn625 Mn 0.25101 0.89547 0.9475 0.0
C626 C 0.23527 0.85105 0.97997 0.0
C627 C 0.27955 0.85641 0.04239 0.0
C628 C 0.21999 0.91851 0.99143 0.0
O629 O 0.28638 0.90588 0.00627 0.0
O630 O 0.28068 0.91497 0.96411 0.0
C631 C 0.29983 0.87434 0.9277 0.0
N632 N 0.27357 0.87556 0.9264 0.0
C633 C 0.27149 0.84563 0.89009 0.0
C634 C 0.29853 0.84434 0.89083 0.0
C635 C 0.31274 0.85866 0.9098 0.0
C636 C 0.25968 0.86156 0.90846 0.0
H637 H 0.31084 0.88512 0.94236 0.0
C638 C 0.29283 0.91793 0.98577 0.0
O639 O 0.26383 0.87491 0.04763 0.0
O640 O 0.28359 0.85125 0.01812 0.0
N641 N 0.22341 0.87757 0.92893 0.0
C642 C 0.19739 0.87966 0.93185 0.0
C643 C 0.18037 0.86614 0.91468 0.0
C644 C 0.19027 0.85068 0.89466 0.0
C645 C 0.21712 0.84873 0.89209 0.0
C646 C 0.23313 0.86282 0.90965 0.0
H647 H 0.18967 0.89138 0.94725 0.0
O648 O 0.23083 0.84911 1.00453 0.0
O649 O 0.25231 0.86871 0.97366 0.0
O650 O 0.23014 0.90536 0.00932 0.0
O651 O 0.22636 0.91644 0.96765 0.0
C652 C 0.22862 0.83317 0.87296 0.0
C653 C 0.25577 0.83146 0.87208 0.0
H654 H 0.30856 0.83223 0.87708 0.0
H655 H 0.3336 0.85759 0.91064 0.0
H656 H 0.15967 0.8676 0.91691 0.0
H657 H 0.17707 0.84023 0.88151 0.0
H658 H 0.21676 0.82219 0.85899 0.0
H659 H 0.26435 0.81907 0.85757 0.0
Mn660 Mn 0.14793 0.51268 0.25358 0.0
Mn661 Mn 0.12606 0.57368 0.25176 0.0
C662 C 0.17174 0.54514 0.23334 0.0
C663 C 0.17166 0.48027 0.27288 0.0
C664 C 0.10508 0.53005 0.21674 0.0
O665 O 0.12066 0.51253 0.2821 0.0
O666 O 0.10826 0.55396 0.27941 0.0
C667 C 0.14706 0.59236 0.30247 0.0
N668 N 0.14535 0.59482 0.27633 0.0
C669 C 0.17369 0.63276 0.27767 0.0
C670 C 0.17563 0.63072 0.30463 0.0
C671 C 0.16231 0.61039 0.31707 0.0
C672 C 0.15823 0.6142 0.26415 0.0
H673 H 0.1369 0.57674 0.31211 0.0
C674 C 0.10695 0.53146 0.28954 0.0
O675 O 0.15299 0.4747 0.25656 0.0
O676 O 0.17575 0.50462 0.27888 0.0
N677 N 0.14178 0.59511 0.22606 0.0
C678 C 0.13823 0.59404 0.1999 0.0
C679 C 0.15025 0.61301 0.18456 0.0
C680 C 0.16558 0.63298 0.19627 0.0
C681 C 0.16876 0.63382 0.22325 0.0
C682 C 0.15611 0.61452 0.23756 0.0
H683 H 0.12635 0.57882 0.1908 0.0
O684 O 0.17509 0.52095 0.2273 0.0
O685 O 0.15461 0.54957 0.25097 0.0
O686 O 0.11965 0.51264 0.22548 0.0
O687 O 0.10568 0.55345 0.22538 0.0
C688 C 0.18408 0.65295 0.23649 0.0
C689 C 0.18666 0.65234 0.26367 0.0
H690 H 0.1874 0.64457 0.31595 0.0
H691 H 0.1638 0.60863 0.33785 0.0
H692 H 0.14768 0.61226 0.16376 0.0
H693 H 0.17481 0.64757 0.18435 0.0
H694 H 0.19412 0.66812 0.22596 0.0
H695 H 0.19873 0.66698 0.2736 0.0
Mn696 Mn 0.75563 0.62923 0.0105 0.0
Mn697 Mn 0.69971 0.64764 0.98296 0.0
C698 C 0.71813 0.60344 0.01397 0.0
C699 C 0.79521 0.60833 0.00904 0.0
C700 C 0.72219 0.67215 0.03248 0.0
O701 O 0.76769 0.65713 0.98502 0.0
O702 O 0.72956 0.66411 0.96512 0.0
C703 C 0.70517 0.62164 0.93181 0.0
N704 N 0.69122 0.62579 0.95364 0.0
C705 C 0.65644 0.59749 0.9379 0.0
C706 C 0.67027 0.5932 0.91508 0.0
C707 C 0.6948 0.60521 0.91209 0.0
C708 C 0.6678 0.61398 0.9569 0.0
H709 H 0.7241 0.63068 0.92955 0.0
C710 C 0.75412 0.66763 0.96747 0.0
O711 O 0.79102 0.62697 0.02553 0.0
O712 O 0.77663 0.60231 0.99271 0.0
N713 N 0.66908 0.63297 0.99811 0.0
C714 C 0.65879 0.63822 0.02175 0.0
C715 C 0.6344 0.62746 0.02799 0.0
C716 C 0.62075 0.61164 0.00979 0.0
C717 C 0.63169 0.60655 0.98557 0.0
C718 C 0.65594 0.61801 0.98035 0.0
H719 H 0.66902 0.65063 0.03571 0.0
O720 O 0.7371 0.6011 0.03028 0.0
O721 O 0.72177 0.6205 0.99614 0.0
O722 O 0.74115 0.65708 0.03443 0.0
O723 O 0.70623 0.67102 0.01344 0.0
C724 C 0.61957 0.5904 0.96647 0.0
C725 C 0.63202 0.58572 0.94272 0.0
H726 H 0.66235 0.58052 0.89985 0.0
H727 H 0.7057 0.6018 0.89464 0.0
H728 H 0.62609 0.63146 0.04673 0.0
H729 H 0.60189 0.6035 0.01464 0.0
H730 H 0.60085 0.58118 0.96999 0.0
H731 H 0.62272 0.57291 0.92838 0.0
Mn732 Mn 0.87833 0.01153 0.26166 0.0
Mn733 Mn 0.89684 0.94948 0.25621 0.0
C734 C 0.85266 0.98068 0.23928 0.0
C735 C 0.85625 0.04477 0.28242 0.0
C736 C 0.92052 0.99331 0.22482 0.0
O737 O 0.90567 0.0093 0.2906 0.0
O738 O 0.91425 0.96677 0.28658 0.0
C739 C 0.87269 0.92962 0.30401 0.0
N740 N 0.87569 0.92809 0.27788 0.0
C741 C 0.84603 0.89124 0.2745 0.0
C742 C 0.84297 0.89216 0.30142 0.0
C743 C 0.85626 0.91153 0.31622 0.0
C744 C 0.86266 0.9098 0.26341 0.0
H745 H 0.8826 0.94464 0.31543 0.0
C746 C 0.91691 0.98893 0.29814 0.0
O747 O 0.87524 0.04969 0.26683 0.0
O748 O 0.85104 0.02052 0.28709 0.0
N749 N 0.8809 0.93033 0.22791 0.0
C750 C 0.88487 0.93296 0.20205 0.0
C751 C 0.87241 0.9155 0.18448 0.0
C752 C 0.8562 0.89541 0.19368 0.0
C753 C 0.85255 0.89297 0.22038 0.0
C754 C 0.86558 0.91086 0.23696 0.0
H755 H 0.89742 0.94827 0.19485 0.0
O756 O 0.85052 0.00515 0.23462 0.0
O757 O 0.86978 0.97513 0.25661 0.0
O758 O 0.90624 0.01093 0.23392 0.0
O759 O 0.91928 0.96985 0.23245 0.0
C760 C 0.83632 0.87364 0.23118 0.0
C761 C 0.8329 0.8729 0.2582 0.0
H762 H 0.83026 0.87828 0.3109 0.0
H763 H 0.85379 0.91254 0.33698 0.0
H764 H 0.8753 0.91752 0.1639 0.0
H765 H 0.84654 0.88205 0.18006 0.0
H766 H 0.82613 0.85942 0.21887 0.0
H767 H 0.82 0.85824 0.26622 0.0
Mn768 Mn 0.25653 0.12987 0.51032 0.0
Mn769 Mn 0.20079 0.14846 0.48255 0.0
C770 C 0.21892 0.10424 0.5137 0.0
C771 C 0.296 0.10875 0.50895 0.0
C772 C 0.22315 0.17293 0.53214 0.0
O773 O 0.26879 0.15771 0.48487 0.0
O774 O 0.23076 0.1648 0.4648 0.0
C775 C 0.20633 0.12237 0.43145 0.0
N776 N 0.19232 0.12662 0.45321 0.0
C777 C 0.15745 0.09848 0.43736 0.0
C778 C 0.17135 0.0941 0.4146 0.0
C779 C 0.19596 0.10598 0.41171 0.0
C780 C 0.16882 0.11493 0.45639 0.0
H781 H 0.22532 0.13131 0.42926 0.0
C782 C 0.25532 0.16824 0.46726 0.0
O783 O 0.29188 0.12741 0.52543 0.0
O784 O 0.27743 0.10284 0.49258 0.0
N785 N 0.17003 0.13394 0.49759 0.0
C786 C 0.15966 0.13927 0.52118 0.0
C787 C 0.13519 0.12864 0.52732 0.0
C788 C 0.12153 0.11289 0.50908 0.0
C789 C 0.13255 0.10772 0.48491 0.0
C790 C 0.15688 0.11905 0.47979 0.0
H791 H 0.16991 0.15163 0.53518 0.0
O792 O 0.23783 0.10182 0.53006 0.0
O793 O 0.22268 0.12126 0.49586 0.0
O794 O 0.24207 0.15781 0.53419 0.0
O795 O 0.20728 0.17183 0.51302 0.0
C796 C 0.12042 0.09162 0.46577 0.0
C797 C 0.13295 0.08686 0.44208 0.0
H798 H 0.16343 0.08145 0.39934 0.0
H799 H 0.20692 0.1025 0.39431 0.0
H800 H 0.12682 0.13271 0.54602 0.0
H801 H 0.1026 0.10486 0.51385 0.0
H802 H 0.10164 0.0825 0.46922 0.0
H803 H 0.12364 0.07408 0.42771 0.0
Mn804 Mn 0.37839 0.51088 0.76263 0.0
Mn805 Mn 0.39551 0.44839 0.75701 0.0
C806 C 0.35253 0.48067 0.73956 0.0
C807 C 0.35608 0.54419 0.78301 0.0
C808 C 0.42067 0.49182 0.72621 0.0
O809 O 0.40488 0.50799 0.79215 0.0
O810 O 0.4136 0.46558 0.78713 0.0
C811 C 0.3714 0.42953 0.80524 0.0
N812 N 0.37414 0.42765 0.77909 0.0
C813 C 0.34387 0.39126 0.77638 0.0
C814 C 0.34106 0.39255 0.80332 0.0
C815 C 0.35479 0.41186 0.81779 0.0
C816 C 0.3607 0.40941 0.76494 0.0
H817 H 0.38167 0.4445 0.81642 0.0
C818 C 0.41625 0.48751 0.79915 0.0
O819 O 0.37559 0.54911 0.76804 0.0
O820 O 0.35057 0.51994 0.78734 0.0
N821 N 0.37891 0.42925 0.72905 0.0
C822 C 0.38244 0.43168 0.70311 0.0
C823 C 0.36967 0.41415 0.68585 0.0
C824 C 0.35343 0.39428 0.69542 0.0
C825 C 0.34998 0.39222 0.72218 0.0
C826 C 0.36342 0.41009 0.73846 0.0
H827 H 0.39474 0.447 0.69563 0.0
O828 O 0.35121 0.5052 0.73482 0.0
O829 O 0.36911 0.47464 0.75723 0.0
O830 O 0.40734 0.50997 0.73583 0.0
O831 O 0.418 0.46812 0.73283 0.0
C832 C 0.3335 0.37331 0.73333 0.0
C833 C 0.33031 0.37295 0.76039 0.0
H834 H 0.32821 0.37899 0.81307 0.0
H835 H 0.35253 0.41315 0.83857 0.0
H836 H 0.37228 0.416 0.66521 0.0
H837 H 0.34356 0.38085 0.68202 0.0
H838 H 0.32294 0.35915 0.72126 0.0
H839 H 0.31723 0.35861 0.76869 0.0
Mn840 Mn 0.75904 0.38032 0.51354 0.0
Mn841 Mn 0.75473 0.40203 0.45248 0.0
C842 C 0.73806 0.35533 0.48154 0.0
C843 C 0.77947 0.35765 0.54621 0.0
C844 C 0.72163 0.42194 0.49625 0.0
O845 O 0.78761 0.40867 0.51287 0.0
O846 O 0.7834 0.42087 0.47136 0.0
C847 C 0.80456 0.38304 0.43305 0.0
N848 N 0.77828 0.38361 0.43117 0.0
C849 C 0.77782 0.355 0.39383 0.0
C850 C 0.80488 0.35423 0.39528 0.0
C851 C 0.81829 0.36827 0.41502 0.0
C852 C 0.76518 0.37006 0.41235 0.0
H853 H 0.81496 0.39373 0.44822 0.0
C854 C 0.79454 0.42242 0.49362 0.0
O855 O 0.76324 0.37567 0.55143 0.0
O856 O 0.78472 0.35356 0.52198 0.0
N857 N 0.728 0.38503 0.43197 0.0
C858 C 0.70187 0.38711 0.4338 0.0
C859 C 0.68561 0.37397 0.41565 0.0
C860 C 0.69637 0.359 0.39573 0.0
C861 C 0.72333 0.35732 0.39411 0.0
C862 C 0.73857 0.37098 0.41264 0.0
H863 H 0.69349 0.39865 0.44903 0.0
O864 O 0.73261 0.35184 0.50571 0.0
O865 O 0.75526 0.37347 0.47692 0.0
O866 O 0.73096 0.40749 0.51352 0.0
O867 O 0.72928 0.42169 0.4728 0.0
C868 C 0.73567 0.34246 0.37498 0.0
C869 C 0.76288 0.34118 0.37493 0.0
H870 H 0.81554 0.34282 0.38144 0.0
H871 H 0.83917 0.36768 0.41633 0.0
H872 H 0.66482 0.37535 0.41703 0.0
H873 H 0.68376 0.3488 0.38185 0.0
H874 H 0.72442 0.33175 0.36034 0.0
H875 H 0.77212 0.32941 0.36033 0.0
Mn876 Mn 0.64703 0.01267 0.75438 0.0
Mn877 Mn 0.62613 0.07397 0.75155 0.0
C878 C 0.67156 0.04455 0.73406 0.0
C879 C 0.67019 0.98011 0.77416 0.0
C880 C 0.60487 0.03021 0.71685 0.0
O881 O 0.61944 0.01327 0.78262 0.0
O882 O 0.60774 0.05486 0.77922 0.0
C883 C 0.6468 0.09298 0.80228 0.0
N884 N 0.64542 0.09515 0.77609 0.0
C885 C 0.67415 0.13279 0.7773 0.0
C886 C 0.67577 0.13106 0.80431 0.0
C887 C 0.66209 0.11102 0.81683 0.0
C888 C 0.65867 0.11423 0.76382 0.0
H889 H 0.63636 0.07759 0.81198 0.0
C890 C 0.60594 0.03252 0.78965 0.0
O891 O 0.65153 0.97465 0.75779 0.0
O892 O 0.67451 1.00446 0.78003 0.0
N893 N 0.64243 0.09486 0.72578 0.0
C894 C 0.63917 0.09351 0.69959 0.0
C895 C 0.65154 0.11219 0.68416 0.0
C896 C 0.66692 0.13216 0.69581 0.0
C897 C 0.66983 0.13326 0.72281 0.0
C898 C 0.65685 0.11424 0.7372 0.0
H899 H 0.62722 0.07831 0.69053 0.0
O900 O 0.67458 0.02025 0.7283 0.0
O901 O 0.6543 0.04944 0.75143 0.0
O902 O 0.61906 0.0127 0.72599 0.0
O903 O 0.60574 0.05372 0.72518 0.0
C904 C 0.68516 0.15242 0.73601 0.0
C905 C 0.68746 0.15209 0.76322 0.0
H906 H 0.68754 0.14492 0.8156 0.0
H907 H 0.66332 0.10948 0.83766 0.0
H908 H 0.64918 0.11123 0.66334 0.0
H909 H 0.67638 0.14654 0.68382 0.0
H910 H 0.69542 0.16741 0.72542 0.0
H911 H 0.69954 0.16675 0.77312 0.0
Mn912 Mn 0.01329 0.25704 0.88011 0.0
Mn913 Mn 0.95218 0.25153 0.90236 0.0
C914 C 0.98098 0.23586 0.85559 0.0
C915 C 0.04605 0.27766 0.85641 0.0
C916 C 0.99578 0.21909 0.92218 0.0
O917 O 0.01274 0.28572 0.90818 0.0
O918 O 0.97118 0.28049 0.92076 0.0
C919 C 0.93282 0.30123 0.88334 0.0
N920 N 0.93096 0.27483 0.88399 0.0
C921 C 0.89383 0.27377 0.85554 0.0
C922 C 0.89527 0.30094 0.85468 0.0
C923 C 0.91488 0.31472 0.86859 0.0
C924 C 0.91223 0.26138 0.87057 0.0
H925 H 0.9479 0.31191 0.89394 0.0
C926 C 0.99345 0.29214 0.92207 0.0
O927 O 0.05125 0.26173 0.87475 0.0
O928 O 0.02186 0.28278 0.85286 0.0
N929 N 0.93171 0.22442 0.88565 0.0
C930 C 0.9336 0.19824 0.88773 0.0
C931 C 0.91564 0.18163 0.87461 0.0
C932 C 0.89587 0.1921 0.85961 0.0
C933 C 0.8942 0.21911 0.85793 0.0
C934 C 0.91252 0.2347 0.87159 0.0
H935 H 0.94874 0.19008 0.89924 0.0
O936 O 1.00505 0.23053 0.85197 0.0
O937 O 0.97667 0.2528 0.87375 0.0
O938 O 0.01311 0.22883 0.90754 0.0
O939 O 0.97236 0.22631 0.92202 0.0
C940 C 0.87526 0.23117 0.84298 0.0
C941 C 0.87509 0.25848 0.84178 0.0
H942 H 0.88152 0.31141 0.84326 0.0
H943 H 0.91619 0.33568 0.86794 0.0
H944 H 0.91708 0.16081 0.87599 0.0
H945 H 0.88219 0.17923 0.84934 0.0
H946 H 0.86091 0.21962 0.8321 0.0
H947 H 0.8606 0.26752 0.82999 0.0
Mn948 Mn 0.51261 0.75651 0.37995 0.0
Mn949 Mn 0.45129 0.75176 0.4018 0.0
C950 C 0.48014 0.73606 0.35506 0.0
C951 C 0.5458 0.77692 0.35662 0.0
C952 C 0.49416 0.71823 0.42136 0.0
O953 O 0.51235 0.78491 0.40832 0.0
O954 O 0.47067 0.78018 0.42063 0.0
C955 C 0.43296 0.80205 0.38326 0.0
N956 N 0.4306 0.77568 0.38362 0.0
C957 C 0.39352 0.77562 0.35514 0.0
C958 C 0.39547 0.80279 0.35458 0.0
C959 C 0.41532 0.81605 0.36865 0.0
C960 C 0.41166 0.76272 0.37004 0.0
H961 H 0.44821 0.81234 0.39399 0.0
C962 C 0.4931 0.79148 0.42217 0.0
O963 O 0.55067 0.76069 0.37479 0.0
O964 O 0.52172 0.78245 0.35304 0.0
N965 N 0.43041 0.7252 0.38472 0.0
C966 C 0.43174 0.69894 0.38658 0.0
C967 C 0.41348 0.68281 0.3733 0.0
C968 C 0.39395 0.69383 0.3584 0.0
C969 C 0.39283 0.7209 0.35697 0.0
C970 C 0.41145 0.736 0.37077 0.0
H971 H 0.44668 0.69036 0.39803 0.0
O972 O 0.50415 0.73043 0.35149 0.0
O973 O 0.47597 0.75291 0.37335 0.0
O974 O 0.51179 0.72791 0.40702 0.0
O975 O 0.4709 0.72591 0.42119 0.0
C976 C 0.37414 0.73349 0.34217 0.0
C977 C 0.3745 0.76083 0.34124 0.0
H978 H 0.38195 0.81365 0.34328 0.0
H979 H 0.41702 0.83701 0.36822 0.0
H980 H 0.41448 0.66194 0.3745 0.0
H981 H 0.38003 0.68132 0.34802 0.0
H982 H 0.35957 0.72232 0.3312 0.0
H983 H 0.36021 0.77027 0.32956 0.0
Mn984 Mn 0.00881 0.75513 0.63722 0.0
Mn985 Mn 0.98007 0.6998 0.65864 0.0
C986 C 0.01067 0.71702 0.61294 0.0
C987 C 0.00834 0.79399 0.61453 0.0
C988 C 0.0315 0.72107 0.67954 0.0
O989 O 0.98434 0.76853 0.66499 0.0
O990 O 0.96605 0.7304 0.677 0.0
C991 C 0.92752 0.70844 0.63796 0.0
N992 N 0.94861 0.69336 0.63957 0.0
C993 C 0.92854 0.66052 0.6117 0.0
C994 C 0.90653 0.67562 0.60986 0.0
C995 C 0.90606 0.69972 0.62299 0.0
C996 C 0.94936 0.67025 0.62686 0.0
H997 H 0.9271 0.72698 0.64799 0.0
C998 C 0.96862 0.75517 0.67875 0.0
O999 O 0.02501 0.7903 0.63291 0.0
O1000 O 0.99128 0.77542 0.60992 0.0
N1001 N 0.99149 0.66841 0.64274 0.0
C1002 C 0.01434 0.65639 0.64624 0.0
C1003 C 0.01793 0.63201 0.63448 0.0
C1004 C 0.99794 0.62013 0.6195 0.0
C1005 C 0.97451 0.63273 0.61641 0.0
C1006 C 0.97193 0.65687 0.62883 0.0
H1007 H 0.0297 0.66534 0.65791 0.0
O1008 O 0.0276 0.73574 0.60966 0.0
O1009 O 0.993 0.72118 0.63014 0.0
O1010 O 0.03275 0.74091 0.66515 0.0
O1011 O 0.01256 0.70454 0.67883 0.0
C1012 C 0.95367 0.62238 0.60134 0.0
C1013 C 0.93076 0.63633 0.59888 0.0
H1014 H 0.88995 0.66898 0.59832 0.0
H1015 H 0.88918 0.71153 0.62158 0.0
H1016 H 0.03606 0.62238 0.63699 0.0
H1017 H 1.00078 0.60132 0.61048 0.0
H1018 H 0.95518 0.60385 0.59134 0.0
H1019 H 0.91498 0.62831 0.58701 0.0
Mn1020 Mn 0.51031 0.25327 0.13859 0.0
Mn1021 Mn 0.48159 0.1987 0.16174 0.0
C1022 C 0.51163 0.21449 0.11525 0.0
C1023 C 0.50983 0.29165 0.11512 0.0
C1024 C 0.53324 0.2204 0.18168 0.0
O1025 O 0.48624 0.26747 0.16635 0.0
O1026 O 0.46765 0.22979 0.17925 0.0
C1027 C 0.42896 0.20668 0.14095 0.0
N1028 N 0.4501 0.19172 0.14289 0.0
C1029 C 0.43012 0.15822 0.11574 0.0
C1030 C 0.40806 0.17322 0.11356 0.0
C1031 C 0.40752 0.19758 0.12616 0.0
C1032 C 0.45092 0.16836 0.13066 0.0
H1033 H 0.4285 0.22544 0.15057 0.0
C1034 C 0.47045 0.25456 0.18045 0.0
O1035 O 0.52668 0.28819 0.13338 0.0
O1036 O 0.49262 0.2731 0.11101 0.0
N1037 N 0.49303 0.16693 0.14668 0.0
C1038 C 0.51582 0.15496 0.15067 0.0
C1039 C 0.5194 0.13024 0.13968 0.0
C1040 C 0.49944 0.11799 0.12493 0.0
C1041 C 0.47609 0.13059 0.12126 0.0
C1042 C 0.47352 0.15507 0.13298 0.0
H1043 H 0.53114 0.16417 0.16221 0.0
O1044 O 0.5286 0.23301 0.11123 0.0
O1045 O 0.49427 0.21927 0.13258 0.0
O1046 O 0.5345 0.23966 0.16654 0.0
O1047 O 0.51417 0.20404 0.18175 0.0
C1048 C 0.45529 0.11986 0.1064 0.0
C1049 C 0.43237 0.13374 0.10352 0.0
H1050 H 0.39148 0.16627 0.10217 0.0
H1051 H 0.39061 0.20931 0.12448 0.0
H1052 H 0.53745 0.12061 0.14265 0.0
H1053 H 0.50224 0.09887 0.11661 0.0
H1054 H 0.45679 0.10105 0.09693 0.0
H1055 H 0.4166 0.1254 0.09185 0.0
C1056 C 0.19618 0.80103 0.94027 0.0
C1057 C 0.21597 0.7882 0.92721 0.0
H1058 H 0.18686 0.83094 0.96798 0.0
C1059 C 0.24185 0.79572 0.93226 0.0
H1060 H 0.17608 0.79548 0.93664 0.0
C1061 C 0.24787 0.8162 0.94948 0.0
C1062 C 0.22816 0.8294 0.96213 0.0
H1063 H 0.25741 0.78624 0.92228 0.0
H1064 H 0.268 0.82192 0.95275 0.0
C1065 C 0.20229 0.82121 0.95807 0.0
C1066 C 0.05305 0.54469 0.33642 0.0
C1067 C 0.05844 0.52801 0.35684 0.0
H1068 H 0.06388 0.55861 0.2993 0.0
C1069 C 0.07852 0.51037 0.35377 0.0
H1070 H 0.03729 0.55799 0.33771 0.0
C1071 C 0.09367 0.51044 0.33133 0.0
C1072 C 0.0891 0.52826 0.31166 0.0
H1073 H 0.08325 0.49728 0.36913 0.0
H1074 H 0.10965 0.4974 0.32992 0.0
C1075 C 0.06823 0.54492 0.31426 0.0
C1076 C 0.79703 0.72025 0.9378 0.0
C1077 C 0.78477 0.723 0.91358 0.0
H1078 H 0.79712 0.70026 0.97401 0.0
C1079 C 0.76444 0.7055 0.90654 0.0
H1080 H 0.81277 0.7334 0.94384 0.0
C1081 C 0.75536 0.687 0.9238 0.0
C1082 C 0.76663 0.68504 0.94849 0.0
H1083 H 0.75507 0.70641 0.88776 0.0
H1084 H 0.73904 0.67453 0.91791 0.0
C1085 C 0.7881 0.70131 0.95509 0.0
C1086 C 0.95053 0.96665 0.35887 0.0
C1087 C 0.96146 0.98979 0.36927 0.0
H1088 H 0.92862 0.9482 0.3283 0.0
C1089 C 0.95799 0.01307 0.35605 0.0
H1090 H 0.95314 0.94843 0.36853 0.0
C1091 C 0.94333 0.01314 0.333 0.0
C1092 C 0.93257 0.9898 0.32246 0.0
H1093 H 0.96634 0.03117 0.36373 0.0
H1094 H 0.94069 0.03132 0.3233 0.0
C1095 C 0.93655 0.96659 0.33568 0.0
C1096 C 0.23191 0.21157 0.5951 0.0
C1097 C 0.21156 0.229 0.59393 0.0
H1098 H 0.25156 0.18045 0.57678 0.0
C1099 C 0.19493 0.22777 0.57221 0.0
H1100 H 0.24483 0.21162 0.6117 0.0
C1101 C 0.19868 0.20969 0.55213 0.0
C1102 C 0.21917 0.19237 0.55326 0.0
H1103 H 0.17922 0.24107 0.57052 0.0
H1104 H 0.18553 0.20935 0.5357 0.0
C1105 C 0.23569 0.19355 0.57506 0.0
C1106 C 0.46594 0.53058 0.68287 0.0
C1107 C 0.47186 0.51222 0.6634 0.0
H1108 H 0.44513 0.53868 0.71765 0.0
C1109 C 0.46162 0.48669 0.66575 0.0
H1110 H 0.4739 0.55022 0.68248 0.0
C1111 C 0.44594 0.47986 0.68665 0.0
C1112 C 0.43928 0.49849 0.70541 0.0
H1113 H 0.46508 0.47194 0.65115 0.0
H1114 H 0.43839 0.46009 0.68759 0.0
C1115 C 0.4496 0.5239 0.70334 0.0
C1116 C 0.7865 0.32493 0.6107 0.0
C1117 C 0.80299 0.3046 0.60456 0.0
H1118 H 0.76654 0.35788 0.59726 0.0
C1119 C 0.81351 0.30321 0.5796 0.0
H1120 H 0.77839 0.32672 0.62988 0.0
C1121 C 0.80668 0.32107 0.56083 0.0
C1122 C 0.78939 0.34081 0.56673 0.0
H1123 H 0.82618 0.28769 0.57426 0.0
H1124 H 0.81435 0.31894 0.5415 0.0
C1125 C 0.77986 0.34289 0.59204 0.0
C1126 C 0.5522 0.03442 0.66548 0.0
C1127 C 0.55452 0.01083 0.65175 0.0
H1128 H 0.56622 0.0591 0.69661 0.0
C1129 C 0.57312 0.99338 0.65997 0.0
H1130 H 0.53819 0.04836 0.65949 0.0
C1131 C 0.58911 0.99943 0.68136 0.0
C1132 C 0.58707 0.02321 0.6949 0.0
H1133 H 0.5752 0.97494 0.64993 0.0
H1134 H 0.60333 0.98558 0.68704 0.0
C1135 C 0.56836 0.0406 0.6867 0.0
C1136 C 0.93254 0.24772 0.8028 0.0
C1137 C 0.92451 0.22241 0.79493 0.0
H1138 H 0.95627 0.27149 0.82841 0.0
C1139 C 0.9363 0.20126 0.80679 0.0
H1140 H 0.92482 0.26459 0.7937 0.0
C1141 C 0.95517 0.20542 0.8262 0.0
C1142 C 0.96187 0.23069 0.83474 0.0
H1143 H 0.93058 0.18147 0.8016 0.0
H1144 H 0.96384 0.18892 0.83516 0.0
C1145 C 0.95078 0.25176 0.82258 0.0
C1146 C 0.47662 0.84004 0.4746 0.0
C1147 C 0.49248 0.86167 0.46854 0.0
H1148 H 0.4648 0.80095 0.46511 0.0
C1149 C 0.51098 0.85893 0.44888 0.0
H1150 H 0.46269 0.84115 0.49008 0.0
C1151 C 0.51248 0.83553 0.43467 0.0
C1152 C 0.49543 0.81451 0.43981 0.0
H1153 H 0.5235 0.8752 0.44369 0.0
H1154 H 0.526 0.83438 0.41883 0.0
C1155 C 0.478 0.81687 0.4604 0.0
C1156 C 0.07832 0.3069 0.79766 0.0
C1157 C 0.10395 0.29888 0.8005 0.0
H1158 H 0.04007 0.30692 0.81327 0.0
C1159 C 0.11074 0.28566 0.82301 0.0
H1160 H 0.07253 0.31749 0.78079 0.0
C1161 C 0.09217 0.27977 0.84173 0.0
C1162 C 0.06637 0.28699 0.83843 0.0
H1163 H 0.13022 0.27902 0.82576 0.0
H1164 H 0.09789 0.26882 0.85841 0.0
C1165 C 0.05977 0.30106 0.81642 0.0
C1166 C 0.53025 0.66286 0.45129 0.0
C1167 C 0.51291 0.6542 0.47032 0.0
H1168 H 0.53816 0.68987 0.42122 0.0
C1169 C 0.48952 0.66705 0.47342 0.0
H1170 H 0.54855 0.65355 0.4486 0.0
C1171 C 0.48346 0.68785 0.45764 0.0
C1172 C 0.50079 0.69652 0.43856 0.0
H1173 H 0.47567 0.66073 0.48778 0.0
H1174 H 0.46514 0.6971 0.46041 0.0
C1175 C 0.52434 0.68382 0.43571 0.0
C1176 C 0.92708 0.766 0.73756 0.0
C1177 C 0.91816 0.7911 0.73382 0.0
H1178 H 0.94986 0.73515 0.72318 0.0
C1179 C 0.92687 0.805 0.71221 0.0
H1180 H 0.92051 0.75469 0.75383 0.0
C1181 C 0.94405 0.79384 0.69462 0.0
C1182 C 0.95231 0.76839 0.69807 0.0
H1183 H 0.92032 0.82442 0.7089 0.0
H1184 H 0.95023 0.80478 0.67796 0.0
C1185 C 0.94377 0.75474 0.71986 0.0
C1186 C 0.0334 0.85699 0.58594 0.0
C1187 C 0.01648 0.86 0.56483 0.0
H1188 H 0.04392 0.83412 0.61827 0.0
C1189 C 0.99578 0.84189 0.56116 0.0
H1190 H 0.04927 0.87083 0.58961 0.0
C1191 C 0.99265 0.8208 0.5777 0.0
C1192 C 0.01005 0.81746 0.59837 0.0
H1193 H 0.98247 0.84357 0.54503 0.0
H1194 H 0.97693 0.80682 0.57396 0.0
C1195 C 0.03021 0.83603 0.60251 0.0
C1196 C 0.07147 0.69322 0.73384 0.0
C1197 C 0.09476 0.70789 0.73233 0.0
H1198 H 0.03341 0.6857 0.71839 0.0
C1199 C 0.09709 0.72698 0.71336 0.0
H1200 H 0.06917 0.67822 0.74811 0.0
C1201 C 0.07654 0.73142 0.69637 0.0
C1202 C 0.05324 0.71668 0.6978 0.0
H1203 H 0.11469 0.73879 0.71189 0.0
H1204 H 0.079 0.74633 0.68204 0.0
C1205 C 0.05101 0.69746 0.71671 0.0
C1206 C 0.98401 0.66952 0.56237 0.0
C1207 C 1.00501 0.65325 0.55846 0.0
H1208 H 0.96944 0.70237 0.58302 0.0
C1209 C 0.0283 0.65875 0.57204 0.0
H1210 H 0.96579 0.66575 0.55228 0.0
C1211 C 0.03035 0.67979 0.58954 0.0
C1212 C 0.00891 0.69511 0.59431 0.0
H1213 H 0.04491 0.64679 0.56912 0.0
H1214 H 0.04841 0.68365 0.59989 0.0
C1215 C 0.98597 0.69027 0.58013 0.0
C1216 C 0.79747 0.93181 0.24468 0.0
C1217 C 0.79134 0.92613 0.21866 0.0
H1218 H 0.82212 0.95333 0.27139 0.0
C1219 C 0.80521 0.93901 0.19916 0.0
H1220 H 0.78717 0.922 0.26003 0.0
C1221 C 0.82497 0.95728 0.2057 0.0
C1222 C 0.8317 0.96204 0.23174 0.0
H1223 H 0.80073 0.93494 0.17896 0.0
H1224 H 0.83545 0.96709 0.19049 0.0
C1225 C 0.81754 0.94952 0.25115 0.0
C1226 C 0.82596 0.11045 0.29015 0.0
C1227 C 0.80324 0.10417 0.30377 0.0
H1228 H 0.86063 0.09672 0.27297 0.0
C1229 C 0.79939 0.07858 0.3123 0.0
H1230 H 0.82949 0.12988 0.2831 0.0
C1231 C 0.81724 0.05954 0.30643 0.0
C1232 C 0.83938 0.0656 0.29187 0.0
H1233 H 0.78235 0.07316 0.32324 0.0
H1234 H 0.81326 0.03987 0.31263 0.0
C1235 C 0.84381 0.0914 0.28428 0.0
C1236 C 0.3513 0.95598 0.96171 0.0
C1237 C 0.36271 0.96625 0.98464 0.0
H1238 H 0.32053 0.93345 0.9441 0.0
C1239 C 0.35076 0.96041 0.00836 0.0
H1240 H 0.36015 0.95921 0.94309 0.0
C1241 C 0.32804 0.94474 0.009 0.0
C1242 C 0.31657 0.93494 0.98591 0.0
H1243 H 0.35874 0.96813 0.02644 0.0
H1244 H 0.31935 0.94053 0.0275 0.0
C1245 C 0.3285 0.94089 0.96231 0.0
C1246 C 0.20265 0.41526 0.28125 0.0
C1247 C 0.22485 0.42213 0.2961 0.0
H1248 H 0.16841 0.42811 0.26247 0.0
C1249 C 0.22854 0.4481 0.30451 0.0
H1250 H 0.19932 0.39551 0.27421 0.0
C1251 C 0.21078 0.46683 0.29774 0.0
C1252 C 0.18897 0.46004 0.28234 0.0
H1253 H 0.24521 0.45398 0.31628 0.0
H1254 H 0.21446 0.48674 0.30414 0.0
C1255 C 0.18494 0.43398 0.27445 0.0
C1256 C 0.16002 0.06287 0.53088 0.0
C1257 C 0.15513 0.04915 0.50744 0.0
H1258 H 0.18448 0.09101 0.55138 0.0
C1259 C 0.17241 0.05265 0.48685 0.0
H1260 H 0.14726 0.06031 0.5472 0.0
C1261 C 0.19338 0.07029 0.48923 0.0
C1262 C 0.19748 0.08481 0.51218 0.0
H1263 H 0.16916 0.04255 0.4685 0.0
H1264 H 0.20607 0.07306 0.47287 0.0
C1265 C 0.18128 0.08032 0.53334 0.0
C1266 C 0.72518 0.09549 0.74001 0.0
C1267 C 0.73077 0.10034 0.71402 0.0
H1268 H 0.70151 0.07416 0.76657 0.0
C1269 C 0.71689 0.08658 0.69443 0.0
H1270 H 0.73563 0.10597 0.75539 0.0
C1271 C 0.69769 0.06808 0.70083 0.0
C1272 C 0.6915 0.06398 0.72684 0.0
H1273 H 0.72101 0.09008 0.67426 0.0
H1274 H 0.68727 0.05746 0.68553 0.0
C1275 C 0.70562 0.07751 0.74637 0.0
C1276 C 0.36071 0.0848 0.53194 0.0
C1277 C 0.36404 0.06282 0.51592 0.0
H1278 H 0.33694 0.11657 0.5421 0.0
C1279 C 0.34552 0.05703 0.49637 0.0
H1280 H 0.37481 0.09012 0.54688 0.0
C1281 C 0.32374 0.07233 0.49355 0.0
C1282 C 0.32008 0.09382 0.51013 0.0
H1283 H 0.34741 0.04017 0.48379 0.0
H1284 H 0.30948 0.06694 0.47878 0.0
C1285 C 0.33905 0.10009 0.52907 0.0
C1286 C 0.66821 0.45343 0.53472 0.0
C1287 C 0.65916 0.47193 0.51741 0.0
H1288 H 0.69482 0.42335 0.54177 0.0
C1289 C 0.67122 0.47409 0.49319 0.0
H1290 H 0.6592 0.45084 0.55336 0.0
C1291 C 0.69151 0.45801 0.48637 0.0
C1292 C 0.70045 0.43946 0.50365 0.0
H1293 H 0.66512 0.48835 0.47949 0.0
H1294 H 0.70021 0.4602 0.46751 0.0
C1295 C 0.68861 0.4375 0.52798 0.0
C1296 C 0.74646 0.30215 0.43175 0.0
C1297 C 0.72077 0.29461 0.42578 0.0
H1298 H 0.77185 0.32775 0.45391 0.0
C1299 C 0.70051 0.30697 0.43854 0.0
H1300 H 0.76235 0.29295 0.42206 0.0
C1301 C 0.70597 0.3266 0.45711 0.0
C1302 C 0.73167 0.33473 0.46228 0.0
H1303 H 0.68056 0.30135 0.43424 0.0
H1304 H 0.69019 0.33586 0.46691 0.0
C1305 C 0.75185 0.32211 0.44976 0.0
C1306 C 0.55211 0.04774 0.83605 0.0
C1307 C 0.55618 0.03031 0.85615 0.0
H1308 H 0.56429 0.06184 0.79944 0.0
C1309 C 0.57541 0.01174 0.85308 0.0
H1310 H 0.53704 0.06181 0.83736 0.0
C1311 C 0.59099 0.01151 0.83094 0.0
C1312 C 0.5877 0.02993 0.81155 0.0
H1313 H 0.5791 0.99805 0.8682 0.0
H1314 H 0.60626 0.99766 0.82953 0.0
C1315 C 0.56769 0.04763 0.81418 0.0
C1316 C 0.29829 0.22099 0.43792 0.0
C1317 C 0.28622 0.22369 0.41359 0.0
H1318 H 0.29817 0.20101 0.47413 0.0
C1319 C 0.26602 0.20609 0.40638 0.0
H1320 H 0.31392 0.23421 0.44409 0.0
C1321 C 0.25689 0.18755 0.42357 0.0
C1322 C 0.26796 0.18564 0.44835 0.0
H1323 H 0.25681 0.20696 0.38753 0.0
H1324 H 0.24066 0.175 0.41755 0.0
C1325 C 0.2893 0.202 0.45513 0.0
C1326 C 0.45771 0.5109 0.85702 0.0
C1327 C 0.46132 0.48747 0.86989 0.0
H1328 H 0.44014 0.52955 0.82466 0.0
C1329 C 0.45038 0.46442 0.85926 0.0
H1330 H 0.46606 0.52893 0.86488 0.0
C1331 C 0.43623 0.46463 0.83618 0.0
C1332 C 0.43211 0.48802 0.82332 0.0
H1333 H 0.45309 0.44608 0.86867 0.0
H1334 H 0.42827 0.44633 0.82859 0.0
C1335 C 0.4429 0.51124 0.83408 0.0
C1336 C 0.73129 0.71071 0.09544 0.0
C1337 C 0.71104 0.72826 0.09434 0.0
H1338 H 0.75071 0.6795 0.07705 0.0
C1339 C 0.69432 0.72712 0.07269 0.0
H1340 H 0.74427 0.71068 0.112 0.0
C1341 C 0.69791 0.709 0.05259 0.0
C1342 C 0.71831 0.69158 0.05364 0.0
H1343 H 0.67868 0.7405 0.07106 0.0
H1344 H 0.6847 0.70873 0.0362 0.0
C1345 C 0.7349 0.69267 0.07538 0.0
C1346 C 0.95251 0.03054 0.17027 0.0
C1347 C 0.97056 0.01292 0.16081 0.0
H1348 H 0.92294 0.03839 0.1977 0.0
C1349 C 0.97244 0.98889 0.17314 0.0
H1350 H 0.95004 0.04902 0.1611 0.0
C1351 C 0.95651 0.98259 0.19408 0.0
C1352 C 0.93842 1.00023 0.20341 0.0
H1353 H 0.98635 0.97493 0.16673 0.0
H1354 H 0.95837 0.96384 0.2029 0.0
C1355 C 0.93679 0.02436 0.1913 0.0
C1356 C 0.28969 0.82593 0.10767 0.0
C1357 C 0.30441 0.80432 0.10108 0.0
H1358 H 0.27049 0.85947 0.09438 0.0
C1359 C 0.31282 0.80144 0.07541 0.0
H1360 H 0.28268 0.82866 0.12719 0.0
C1361 C 0.30572 0.81906 0.05657 0.0
C1362 C 0.29008 0.84001 0.06296 0.0
H1363 H 0.32458 0.7853 0.06975 0.0
H1364 H 0.31189 0.81581 0.03683 0.0
C1365 C 0.28262 0.84358 0.08883 0.0
C1366 C 0.0521 0.53437 0.1657 0.0
C1367 C 0.05452 0.51093 0.15173 0.0
H1368 H 0.06609 0.55883 0.197 0.0
C1369 C 0.07326 0.49352 0.15971 0.0
H1370 H 0.03799 0.54828 0.1599 0.0
C1371 C 0.08931 0.49946 0.18108 0.0
C1372 C 0.08718 0.5231 0.19485 0.0
H1373 H 0.07542 0.47519 0.14949 0.0
H1374 H 0.10364 0.48565 0.18656 0.0
C1375 C 0.0683 0.54044 0.18691 0.0
C1376 C 0.43508 0.70198 0.30632 0.0
C1377 C 0.42348 0.72326 0.29453 0.0
H1378 H 0.46255 0.68932 0.3346 0.0
C1379 C 0.43181 0.74849 0.30236 0.0
H1380 H 0.42913 0.68224 0.30118 0.0
C1381 C 0.45014 0.75233 0.32209 0.0
C1382 C 0.46101 0.73113 0.33421 0.0
H1383 H 0.42425 0.76545 0.29329 0.0
H1384 H 0.45585 0.772 0.32793 0.0
C1385 C 0.45405 0.70592 0.32567 0.0
C1386 C 0.9767 0.34084 0.97427 0.0
C1387 C 0.99252 0.36249 0.96818 0.0
H1388 H 0.965 0.30171 0.96488 0.0
C1389 C 0.01102 0.35977 0.94852 0.0
H1390 H 0.96278 0.34194 0.98976 0.0
C1391 C 0.01258 0.33635 0.93435 0.0
C1392 C 0.99559 0.31529 0.93954 0.0
H1393 H 0.02351 0.37606 0.94331 0.0
H1394 H 0.02612 0.3352 0.91853 0.0
C1395 C 0.97814 0.31765 0.96012 0.0
C1396 C 0.61071 0.78446 0.32351 0.0
C1397 C 0.60417 0.79802 0.30113 0.0
H1398 H 0.59751 0.76736 0.35866 0.0
C1399 C 0.57868 0.80642 0.29833 0.0
H1400 H 0.63009 0.77753 0.32623 0.0
C1401 C 0.55999 0.80061 0.31696 0.0
C1402 C 0.56632 0.78618 0.33882 0.0
H1403 H 0.57308 0.81728 0.28156 0.0
H1404 H 0.54039 0.80677 0.31382 0.0
C1405 C 0.592 0.77858 0.34211 0.0
C1406 C 0.99279 0.16897 0.97537 0.0
C1407 C 0.01644 0.15659 0.97228 0.0
H1408 H 0.96758 0.19817 0.96195 0.0
C1409 C 0.03343 0.1653 0.95298 0.0
H1410 H 0.97919 0.16258 0.98993 0.0
C1411 C 0.0269 0.18578 0.93704 0.0
C1412 C 1.00305 0.19793 0.93979 0.0
H1413 H 0.05191 0.15633 0.95027 0.0
H1414 H 0.04046 0.19184 0.92231 0.0
C1415 C 0.9861 0.18929 0.95922 0.0
C1416 C 0.42952 0.26685 0.23935 0.0
C1417 C 0.42041 0.29177 0.23501 0.0
H1418 H 0.45233 0.23576 0.22561 0.0
C1419 C 0.42889 0.30514 0.21299 0.0
H1420 H 0.42312 0.25592 0.25595 0.0
C1421 C 0.44599 0.2936 0.19555 0.0
C1422 C 0.45437 0.2683 0.1996 0.0
H1423 H 0.4222 0.32441 0.20921 0.0
H1424 H 0.45196 0.3041 0.17854 0.0
C1425 C 0.44612 0.25522 0.22183 0.0
C1426 C 0.49702 0.33906 0.06133 0.0
C1427 C 0.51765 0.35728 0.06487 0.0
H1428 H 0.47832 0.304 0.0744 0.0
C1429 C 0.53464 0.35445 0.08595 0.0
H1430 H 0.48365 0.34062 0.04523 0.0
C1431 C 0.53157 0.33358 0.10263 0.0
C1432 C 0.51146 0.31492 0.09866 0.0
H1433 H 0.55045 0.36837 0.08953 0.0
H1434 H 0.54532 0.33184 0.11839 0.0
C1435 C 0.49401 0.31805 0.07801 0.0
C1436 C 0.59931 0.22715 0.21435 0.0
C1437 C 0.59706 0.20908 0.23429 0.0
H1438 H 0.58099 0.24509 0.18232 0.0
C1439 C 0.57366 0.19479 0.23685 0.0
H1440 H 0.61701 0.23864 0.21205 0.0
C1441 C 0.553 0.1984 0.21976 0.0
C1442 C 0.55515 0.2166 0.19988 0.0
H1443 H 0.57142 0.18058 0.2519 0.0
H1444 H 0.53529 0.18697 0.22225 0.0
C1445 C 0.57857 0.23096 0.19742 0.0
C1446 C 0.48358 0.16752 0.06492 0.0
C1447 C 0.50395 0.15048 0.06126 0.0
H1448 H 0.47008 0.20098 0.08537 0.0
C1449 C 0.52717 0.15488 0.07523 0.0
H1450 H 0.46548 0.16451 0.0544 0.0
C1451 C 0.52992 0.17599 0.09261 0.0
C1452 C 0.50913 0.19231 0.09698 0.0
H1453 H 0.54321 0.14212 0.07254 0.0
H1454 H 0.54799 0.17918 0.10312 0.0
C1455 C 0.48612 0.18821 0.0827 0.0
C1456 C 0.3045 0.44028 0.69884 0.0
C1457 C 0.29039 0.42737 0.71814 0.0
H1458 H 0.33518 0.46802 0.69057 0.0
C1459 C 0.29642 0.43275 0.74424 0.0
H1460 H 0.30011 0.43642 0.67858 0.0
C1461 C 0.31668 0.45014 0.75097 0.0
C1462 C 0.33115 0.46262 0.73175 0.0
H1463 H 0.28593 0.42292 0.75945 0.0
H1464 H 0.32123 0.45367 0.77126 0.0
C1465 C 0.32445 0.45824 0.70564 0.0
C1466 C 0.29823 0.57744 0.81143 0.0
C1467 C 0.30191 0.603 0.8028 0.0
H1468 H 0.31261 0.53899 0.81236 0.0
C1469 C 0.32489 0.60956 0.78971 0.0
H1470 H 0.28101 0.57183 0.822 0.0
C1471 C 0.34315 0.59074 0.78437 0.0
C1472 C 0.33888 0.56494 0.79202 0.0
H1473 H 0.3283 0.62901 0.78266 0.0
H1474 H 0.36015 0.59621 0.7734 0.0
C1475 C 0.31649 0.55865 0.80611 0.0
C1476 C 0.84432 0.47465 0.47753 0.0
C1477 C 0.86544 0.46832 0.49325 0.0
H1478 H 0.80539 0.46542 0.46565 0.0
C1479 C 0.86198 0.44849 0.5114 0.0
H1480 H 0.84597 0.49029 0.46389 0.0
C1481 C 0.83835 0.43443 0.51276 0.0
C1482 C 0.81784 0.43984 0.49586 0.0
H1483 H 0.87784 0.44306 0.52379 0.0
H1484 H 0.83663 0.4185 0.52606 0.0
C1485 C 0.82092 0.46052 0.47872 0.0
C1486 C 0.72711 0.94763 0.80538 0.0
C1487 C 0.72324 0.92168 0.79697 0.0
H1488 H 0.71321 0.98635 0.80516 0.0
C1489 C 0.70085 0.91492 0.78237 0.0
H1490 H 0.74393 0.95344 0.81697 0.0
C1491 C 0.68315 0.93373 0.77578 0.0
C1492 C 0.68738 0.95977 0.78362 0.0
H1493 H 0.69736 0.89519 0.77533 0.0
H1494 H 0.66649 0.92794 0.76395 0.0
C1495 C 0.70936 0.96645 0.79882 0.0
C1496 C 0.65949 0.56169 0.03117 0.0
C1497 C 0.6547 0.54792 0.00774 0.0
H1498 H 0.68377 0.59 0.05166 0.0
C1499 C 0.67193 0.55155 0.98715 0.0
H1500 H 0.64675 0.55904 0.0475 0.0
C1501 C 0.69277 0.56935 0.9895 0.0
C1502 C 0.6968 0.58389 0.01245 0.0
H1503 H 0.66875 0.54141 0.9688 0.0
H1504 H 0.70542 0.57222 0.97313 0.0
C1505 C 0.68063 0.57929 0.03362 0.0
C1506 C 0.22471 0.59676 0.23906 0.0
C1507 C 0.2299 0.60192 0.21304 0.0
H1508 H 0.2017 0.57487 0.26573 0.0
C1509 C 0.21593 0.58818 0.19351 0.0
H1510 H 0.23527 0.6072 0.25439 0.0
C1511 C 0.19704 0.56938 0.19999 0.0
C1512 C 0.19127 0.56494 0.22604 0.0
H1513 H 0.21976 0.59188 0.17332 0.0
H1514 H 0.18656 0.55875 0.18474 0.0
C1515 C 0.20548 0.57848 0.2455 0.0
C1516 C 0.86016 0.5849 0.03192 0.0
C1517 C 0.86361 0.56293 0.01594 0.0
H1518 H 0.83618 0.61651 0.04208 0.0
C1519 C 0.84509 0.55697 0.99643 0.0
H1520 H 0.87426 0.59035 0.04683 0.0
C1521 C 0.82318 0.57209 0.99363 0.0
C1522 C 0.8194 0.59358 0.01019 0.0
H1523 H 0.84708 0.54011 0.98388 0.0
H1524 H 0.80892 0.56658 0.9789 0.0
C1525 C 0.83837 0.60002 0.02907 0.0
C1526 C 0.1591 0.95768 0.98793 0.0
C1527 C 0.15775 0.96852 0.01313 0.0
H1528 H 0.17996 0.93428 0.96115 0.0
C1529 C 0.17781 0.96328 0.03077 0.0
H1530 H 0.14399 0.96057 0.97376 0.0
C1531 C 0.19799 0.94717 0.02371 0.0
C1532 C 0.19915 0.93641 0.99859 0.0
H1533 H 0.17816 0.97169 0.05011 0.0
H1534 H 0.21285 0.94332 0.03791 0.0
C1535 C 0.17971 0.94224 0.98066 0.0
loop_
_geom_bond_atom_site_label_1
_geom_bond_atom_site_label_2
_geom_bond_distance
_geom_bond_site_symmetry_2
_ccdc_geom_bond_type
C0 C1 1.386 . S
C0 C2 1.397 . S
C0 H24 0.931 . S
C1 C0 1.386 . S
C1 C5 1.397 . S
C2 C0 1.397 . S
C2 C3 1.391 . S
C2 H25 0.930 . S
C3 C2 1.391 . S
C3 C4 1.375 1_556 S
C3 C6 1.476 1_556 S
C4 C3 1.375 1_554 S
C4 C5 1.389 1_554 S
C4 H26 0.929 . S
C5 C1 1.397 . S
C5 C4 1.389 1_556 S
C5 H27 0.935 . S
C6 C3 1.476 1_554 S
C6 C7 1.387 . S
C6 C11 1.390 . S
C7 C6 1.387 . S
C7 C8 1.401 . S
C7 H28 0.923 1_554 S
C8 C7 1.401 . S
C8 C9 1.376 . S
C8 C17 1.511 1_545 S
C9 C8 1.376 . S
C9 C10 1.392 . S
C9 H30 0.929 1_545 S
C10 C9 1.392 . S
C10 C11 1.361 . S
C10 C12 1.515 . S
C11 C6 1.390 . S
C11 C10 1.361 . S
C11 H29 0.931 . S
C12 C10 1.515 . S
C12 C13 1.367 1_455 S
C12 C14 1.354 1_455 S
C13 C12 1.367 1_655 S
C13 C23 1.387 . S
C13 H31 0.931 1_645 S
C14 C12 1.354 1_655 S
C14 C15 1.409 . S
C14 H32 0.929 . S
C15 C14 1.409 . S
C15 C16 1.380 . S
C15 H33 0.930 . S
C16 C15 1.380 . S
C16 C23 1.364 . S
C17 C8 1.511 1_565 S
C17 C18 1.341 . S
C17 C19 1.371 . S
C18 C17 1.341 . S
C18 C22 1.397 . S
C18 H34 0.930 1_564 S
C19 C17 1.371 . S
C19 C20 1.392 . S
C19 H35 0.931 . S
C20 C19 1.392 . S
C20 C21 1.331 . S
C20 H38 0.932 . S
C21 C20 1.331 . S
C21 C22 1.354 . S
C22 C18 1.397 . S
C22 C21 1.354 . S
C22 H37 0.909 1_554 S
C23 C13 1.387 . S
C23 C16 1.364 . S
C23 H36 0.921 1_545 S
H24 C0 0.931 . S
H25 C2 0.930 . S
H26 C4 0.929 . S
H27 C5 0.935 . S
H28 C7 0.923 1_556 S
H29 C11 0.931 . S
H30 C9 0.929 1_565 S
H31 C13 0.931 1_465 S
H32 C14 0.929 . S
H33 C15 0.930 . S
H34 C18 0.930 1_546 S
H35 C19 0.931 . S
H36 C23 0.921 1_565 S
H37 C22 0.909 1_556 S
H38 C20 0.932 . S
C39 C40 1.386 . S
C39 C41 1.397 . S
C39 H63 0.931 . S
C40 C39 1.386 . S
C40 C44 1.397 . S
C41 C39 1.397 . S
C41 C42 1.384 . S
C41 H64 0.930 . S
C42 C41 1.384 . S
C42 C43 1.377 . S
C42 C45 1.481 . S
C43 C42 1.377 . S
C43 C44 1.389 . S
C43 H65 0.929 . S
C44 C40 1.397 . S
C44 C43 1.389 . S
C44 H66 0.931 . S
C45 C42 1.481 . S
C45 C46 1.387 . S
C45 C50 1.390 . S
C46 C45 1.387 . S
C46 C47 1.401 . S
C46 H67 0.930 . S
C47 C46 1.401 . S
C47 C48 1.376 . S
C47 C56 1.511 . S
C48 C47 1.376 . S
C48 C49 1.392 . S
C48 H69 0.931 . S
C49 C48 1.392 . S
C49 C50 1.361 . S
C49 C51 1.500 . S
C50 C45 1.390 . S
C50 C49 1.361 . S
C50 H68 0.931 . S
C51 C49 1.500 . S
C51 C52 1.371 . S
C51 C53 1.365 . S
C52 C51 1.371 . S
C52 C62 1.386 . S
C52 H70 0.931 . S
C53 C51 1.365 . S
C53 C54 1.409 . S
C53 H71 0.929 . S
C54 C53 1.409 . S
C54 C55 1.380 . S
C54 H72 0.930 . S
C55 C54 1.380 . S
C55 C62 1.357 . S
C56 C47 1.511 . S
C56 C57 1.341 . S
C56 C58 1.371 . S
C57 C56 1.341 . S
C57 C61 1.394 . S
C57 H73 0.930 . S
C58 C56 1.371 . S
C58 C59 1.392 . S
C58 H74 0.931 . S
C59 C58 1.392 . S
C59 C60 1.331 . S
C59 H77 0.932 . S
C60 C59 1.331 . S
C60 C61 1.336 . S
C61 C57 1.394 . S
C61 C60 1.336 . S
C61 H76 0.929 . S
C62 C52 1.386 . S
C62 C55 1.357 . S
C62 H75 0.928 . S
H63 C39 0.931 . S
H64 C41 0.930 . S
H65 C43 0.929 . S
H66 C44 0.931 . S
H67 C46 0.930 . S
H68 C50 0.931 . S
H69 C48 0.931 . S
H70 C52 0.931 . S
H71 C53 0.929 . S
H72 C54 0.930 . S
H73 C57 0.930 . S
H74 C58 0.931 . S
H75 C62 0.928 . S
H76 C61 0.929 . S
H77 C59 0.932 . S
C78 C79 1.386 . S
C78 C80 1.397 1_455 S
C78 H102 0.931 . S
C79 C78 1.386 . S
C79 C83 1.397 . S
C80 C78 1.397 1_655 S
C80 C81 1.374 1_655 S
C80 H103 0.930 . S
C81 C80 1.374 1_455 S
C81 C82 1.406 . S
C81 C84 1.463 1_455 S
C82 C81 1.406 . S
C82 C83 1.389 . S
C82 H104 0.929 . S
C83 C79 1.397 . S
C83 C82 1.389 . S
C83 H105 0.931 . S
C84 C81 1.463 1_655 S
C84 C85 1.387 . S
C84 C89 1.390 . S
C85 C84 1.387 . S
C85 C86 1.401 . S
C85 H106 0.930 . S
C86 C85 1.401 . S
C86 C87 1.376 . S
C86 C95 1.511 . S
C87 C86 1.376 . S
C87 C88 1.392 . S
C87 H108 0.947 . S
C88 C87 1.392 . S
C88 C89 1.361 . S
C88 C90 1.481 1_554 S
C89 C84 1.390 . S
C89 C88 1.361 . S
C89 H107 0.941 . S
C90 C88 1.481 1_556 S
C90 C91 1.386 . S
C90 C92 1.406 . S
C91 C90 1.386 . S
C91 C101 1.386 . S
C91 H109 0.931 . S
C92 C90 1.406 . S
C92 C93 1.402 1_655 S
C92 H110 0.901 1_656 S
C93 C92 1.402 1_455 S
C93 C94 1.380 1_455 S
C93 H111 0.930 . S
C94 C93 1.380 1_655 S
C94 C101 1.357 . S
C95 C86 1.511 . S
C95 C96 1.341 . S
C95 C97 1.371 . S
C96 C95 1.341 . S
C96 C100 1.394 . S
C96 H112 0.930 . S
C97 C95 1.371 . S
C97 C98 1.387 1_554 S
C97 H113 0.931 1_554 S
C98 C97 1.387 1_556 S
C98 C99 1.304 1_556 S
C98 H116 0.964 . S
C99 C98 1.304 1_554 S
C99 C100 1.336 . S
C100 C96 1.394 . S
C100 C99 1.336 . S
C100 H115 0.929 . S
C101 C91 1.386 . S
C101 C94 1.357 . S
C101 H114 0.928 . S
H102 C78 0.931 . S
H103 C80 0.930 . S
H104 C82 0.929 . S
H105 C83 0.931 . S
H106 C85 0.930 . S
H107 C89 0.941 . S
H108 C87 0.947 . S
H109 C91 0.931 . S
H110 C92 0.901 1_454 S
H111 C93 0.930 . S
H112 C96 0.930 . S
H113 C97 0.931 1_556 S
H114 C101 0.928 . S
H115 C100 0.929 . S
H116 C98 0.964 . S
C117 C118 1.386 . S
C117 C119 1.397 . S
C117 H141 0.931 . S
C118 C117 1.386 . S
C118 C122 1.397 . S
C119 C117 1.397 . S
C119 C120 1.384 . S
C119 H142 0.930 . S
C120 C119 1.384 . S
C120 C121 1.377 . S
C120 C123 1.481 . S
C121 C120 1.377 . S
C121 C122 1.389 . S
C121 H143 0.929 . S
C122 C118 1.397 . S
C122 C121 1.389 . S
C122 H144 0.931 . S
C123 C120 1.481 . S
C123 C124 1.387 . S
C123 C128 1.390 . S
C124 C123 1.387 . S
C124 C125 1.401 . S
C124 H145 0.930 . S
C125 C124 1.401 . S
C125 C126 1.376 . S
C125 C134 1.511 . S
C126 C125 1.376 . S
C126 C127 1.392 . S
C126 H147 0.931 . S
C127 C126 1.392 . S
C127 C128 1.361 . S
C127 C129 1.500 . S
C128 C123 1.390 . S
C128 C127 1.361 . S
C128 H146 0.931 . S
C129 C127 1.500 . S
C129 C130 1.371 . S
C129 C131 1.365 . S
C130 C129 1.371 . S
C130 C140 1.386 . S
C130 H148 0.931 . S
C131 C129 1.365 . S
C131 C132 1.409 . S
C131 H149 0.929 . S
C132 C131 1.409 . S
C132 C133 1.380 . S
C132 H150 0.930 . S
C133 C132 1.380 . S
C133 C140 1.357 . S
C134 C125 1.511 . S
C134 C135 1.341 . S
C134 C136 1.371 . S
C135 C134 1.341 . S
C135 C139 1.394 . S
C135 H151 0.930 . S
C136 C134 1.371 . S
C136 C137 1.392 . S
C136 H152 0.931 . S
C137 C136 1.392 . S
C137 C138 1.331 . S
C137 H155 0.932 . S
C138 C137 1.331 . S
C138 C139 1.336 . S
C139 C135 1.394 . S
C139 C138 1.336 . S
C139 H154 0.929 . S
C140 C130 1.386 . S
C140 C133 1.357 . S
C140 H153 0.928 . S
H141 C117 0.931 . S
H142 C119 0.930 . S
H143 C121 0.929 . S
H144 C122 0.931 . S
H145 C124 0.930 . S
H146 C128 0.931 . S
H147 C126 0.931 . S
H148 C130 0.931 . S
H149 C131 0.929 . S
H150 C132 0.930 . S
H151 C135 0.930 . S
H152 C136 0.931 . S
H153 C140 0.928 . S
H154 C139 0.929 . S
H155 C137 0.932 . S
C156 C157 1.386 . S
C156 C158 1.397 . S
C156 H180 0.931 . S
C157 C156 1.386 . S
C157 C161 1.397 . S
C158 C156 1.397 . S
C158 C159 1.384 1_655 S
C158 H181 0.930 . S
C159 C158 1.384 1_455 S
C159 C160 1.377 . S
C159 C162 1.481 . S
C160 C159 1.377 . S
C160 C161 1.389 1_455 S
C160 H182 0.929 . S
C161 C157 1.397 . S
C161 C160 1.389 1_655 S
C161 H183 0.931 1_655 S
C162 C159 1.481 . S
C162 C163 1.387 . S
C162 C167 1.390 . S
C163 C162 1.387 . S
C163 C164 1.401 . S
C163 H184 0.930 . S
C164 C163 1.401 . S
C164 C165 1.376 . S
C164 C173 1.511 . S
C165 C164 1.376 . S
C165 C166 1.392 . S
C165 H186 0.931 . S
C166 C165 1.392 . S
C166 C167 1.361 . S
C166 C168 1.500 1_565 S
C167 C162 1.390 . S
C167 C166 1.361 . S
C167 H185 0.931 1_565 S
C168 C166 1.500 1_545 S
C168 C169 1.371 . S
C168 C170 1.365 . S
C169 C168 1.371 . S
C169 C179 1.386 . S
C169 H187 0.931 . S
C170 C168 1.365 . S
C170 C171 1.409 . S
C170 H188 0.929 . S
C171 C170 1.409 . S
C171 C172 1.380 . S
C171 H189 0.930 . S
C172 C171 1.380 . S
C172 C179 1.357 . S
C173 C164 1.511 . S
C173 C174 1.341 . S
C173 C175 1.371 . S
C174 C173 1.341 . S
C174 C178 1.394 . S
C174 H190 0.930 1_455 S
C175 C173 1.371 . S
C175 C176 1.392 . S
C175 H191 0.931 . S
C176 C175 1.392 . S
C176 C177 1.331 . S
C176 H194 0.932 . S
C177 C176 1.331 . S
C177 C178 1.336 . S
C178 C174 1.394 . S
C178 C177 1.336 . S
C178 H193 0.929 1_455 S
C179 C169 1.386 . S
C179 C172 1.357 . S
C179 H192 0.928 . S
H180 C156 0.931 . S
H181 C158 0.930 . S
H182 C160 0.929 . S
H183 C161 0.931 1_455 S
H184 C163 0.930 . S
H185 C167 0.931 1_545 S
H186 C165 0.931 . S
H187 C169 0.931 . S
H188 C170 0.929 . S
H189 C171 0.930 . S
H190 C174 0.930 1_655 S
H191 C175 0.931 . S
H192 C179 0.928 . S
H193 C178 0.929 1_655 S
H194 C176 0.932 . S
C195 C196 1.386 . S
C195 C197 1.397 . S
C195 H219 0.931 . S
C196 C195 1.386 . S
C196 C200 1.397 . S
C197 C195 1.397 . S
C197 C198 1.384 . S
C197 H220 0.930 . S
C198 C197 1.384 . S
C198 C199 1.377 . S
C198 C201 1.481 . S
C199 C198 1.377 . S
C199 C200 1.389 . S
C199 H221 0.929 . S
C200 C196 1.397 . S
C200 C199 1.389 . S
C200 H222 0.931 . S
C201 C198 1.481 . S
C201 C202 1.387 . S
C201 C206 1.390 . S
C202 C201 1.387 . S
C202 C203 1.401 . S
C202 H223 0.930 . S
C203 C202 1.401 . S
C203 C204 1.376 . S
C203 C212 1.511 . S
C204 C203 1.376 . S
C204 C205 1.392 . S
C204 H225 0.931 . S
C205 C204 1.392 . S
C205 C206 1.361 . S
C205 C207 1.500 . S
C206 C201 1.390 . S
C206 C205 1.361 . S
C206 H224 0.931 . S
C207 C205 1.500 . S
C207 C208 1.371 . S
C207 C209 1.365 . S
C208 C207 1.371 . S
C208 C218 1.386 . S
C208 H226 0.931 . S
C209 C207 1.365 . S
C209 C210 1.409 . S
C209 H227 0.929 . S
C210 C209 1.409 . S
C210 C211 1.380 . S
C210 H228 0.930 . S
C211 C210 1.380 . S
C211 C218 1.357 . S
C212 C203 1.511 . S
C212 C213 1.341 . S
C212 C214 1.371 . S
C213 C212 1.341 . S
C213 C217 1.394 . S
C213 H229 0.930 . S
C214 C212 1.371 . S
C214 C215 1.392 . S
C214 H230 0.931 . S
C215 C214 1.392 . S
C215 C216 1.331 . S
C215 H233 0.932 . S
C216 C215 1.331 . S
C216 C217 1.336 . S
C217 C213 1.394 . S
C217 C216 1.336 . S
C217 H232 0.929 . S
C218 C208 1.386 . S
C218 C211 1.357 . S
C218 H231 0.928 . S
H219 C195 0.931 . S
H220 C197 0.930 . S
H221 C199 0.929 . S
H222 C200 0.931 . S
H223 C202 0.930 . S
H224 C206 0.931 . S
H225 C204 0.931 . S
H226 C208 0.931 . S
H227 C209 0.929 . S
H228 C210 0.930 . S
H229 C213 0.930 . S
H230 C214 0.931 . S
H231 C218 0.928 . S
H232 C217 0.929 . S
H233 C215 0.932 . S
C234 C235 1.386 . S
C234 C236 1.397 . S
C234 H258 0.931 . S
C235 C234 1.386 . S
C235 C239 1.397 . S
C236 C234 1.397 . S
C236 C237 1.384 . S
C236 H259 0.930 . S
C237 C236 1.384 . S
C237 C238 1.377 . S
C237 C240 1.481 . S
C238 C237 1.377 . S
C238 C239 1.389 . S
C238 H260 0.929 . S
C239 C235 1.397 . S
C239 C238 1.389 . S
C239 H261 0.931 . S
C240 C237 1.481 . S
C240 C241 1.387 . S
C240 C245 1.390 . S
C241 C240 1.387 . S
C241 C242 1.401 . S
C241 H262 0.930 1_655 S
C242 C241 1.401 . S
C242 C243 1.376 . S
C242 C251 1.511 1_655 S
C243 C242 1.376 . S
C243 C244 1.392 . S
C243 H264 0.931 . S
C244 C243 1.392 . S
C244 C245 1.361 . S
C244 C246 1.500 . S
C245 C240 1.390 . S
C245 C244 1.361 . S
C245 H263 0.931 . S
C246 C244 1.500 . S
C246 C247 1.371 . S
C246 C248 1.365 . S
C247 C246 1.371 . S
C247 C257 1.386 . S
C247 H265 0.931 . S
C248 C246 1.365 . S
C248 C249 1.409 . S
C248 H266 0.929 . S
C249 C248 1.409 . S
C249 C250 1.380 . S
C249 H267 0.930 . S
C250 C249 1.380 . S
C250 C257 1.357 . S
C251 C242 1.511 1_455 S
C251 C252 1.341 . S
C251 C253 1.371 . S
C252 C251 1.341 . S
C252 C256 1.394 . S
C252 H268 0.930 . S
C253 C251 1.371 . S
C253 C254 1.392 . S
C253 H269 0.931 1_455 S
C254 C253 1.392 . S
C254 C255 1.331 . S
C254 H272 0.932 . S
C255 C254 1.331 . S
C255 C256 1.336 . S
C256 C252 1.394 . S
C256 C255 1.336 . S
C256 H271 0.929 . S
C257 C247 1.386 . S
C257 C250 1.357 . S
C257 H270 0.928 . S
H258 C234 0.931 . S
H259 C236 0.930 . S
H260 C238 0.929 . S
H261 C239 0.931 . S
H262 C241 0.930 1_455 S
H263 C245 0.931 . S
H264 C243 0.931 . S
H265 C247 0.931 . S
H266 C248 0.929 . S
H267 C249 0.930 . S
H268 C252 0.930 . S
H269 C253 0.931 1_655 S
H270 C257 0.928 . S
H271 C256 0.929 . S
H272 C254 0.932 . S
C273 C274 1.386 . S
C273 C275 1.397 . S
C273 H297 0.931 . S
C274 C273 1.386 . S
C274 C278 1.397 . S
C275 C273 1.397 . S
C275 C276 1.384 . S
C275 H298 0.930 . S
C276 C275 1.384 . S
C276 C277 1.377 . S
C276 C279 1.481 . S
C277 C276 1.377 . S
C277 C278 1.389 . S
C277 H299 0.929 . S
C278 C274 1.397 . S
C278 C277 1.389 . S
C278 H300 0.931 . S
C279 C276 1.481 . S
C279 C280 1.387 . S
C279 C284 1.390 . S
C280 C279 1.387 . S
C280 C281 1.401 . S
C280 H301 0.930 . S
C281 C280 1.401 . S
C281 C282 1.376 . S
C281 C290 1.511 . S
C282 C281 1.376 . S
C282 C283 1.392 . S
C282 H303 0.931 . S
C283 C282 1.392 . S
C283 C284 1.361 . S
C283 C285 1.500 . S
C284 C279 1.390 . S
C284 C283 1.361 . S
C284 H302 0.931 . S
C285 C283 1.500 . S
C285 C286 1.371 . S
C285 C287 1.365 . S
C286 C285 1.371 . S
C286 C296 1.386 . S
C286 H304 0.931 . S
C287 C285 1.365 . S
C287 C288 1.409 . S
C287 H305 0.929 . S
C288 C287 1.409 . S
C288 C289 1.380 . S
C288 H306 0.930 . S
C289 C288 1.380 . S
C289 C296 1.357 . S
C290 C281 1.511 . S
C290 C291 1.341 . S
C290 C292 1.371 . S
C291 C290 1.341 . S
C291 C295 1.394 . S
C291 H307 0.930 . S
C292 C290 1.371 . S
C292 C293 1.392 . S
C292 H308 0.931 . S
C293 C292 1.392 . S
C293 C294 1.331 . S
C293 H311 0.932 . S
C294 C293 1.331 . S
C294 C295 1.336 . S
C295 C291 1.394 . S
C295 C294 1.336 . S
C295 H310 0.929 . S
C296 C286 1.386 . S
C296 C289 1.357 . S
C296 H309 0.928 . S
H297 C273 0.931 . S
H298 C275 0.930 . S
H299 C277 0.929 . S
H300 C278 0.931 . S
H301 C280 0.930 . S
H302 C284 0.931 . S
H303 C282 0.931 . S
H304 C286 0.931 . S
H305 C287 0.929 . S
H306 C288 0.930 . S
H307 C291 0.930 . S
H308 C292 0.931 . S
H309 C296 0.928 . S
H310 C295 0.929 . S
H311 C293 0.932 . S
C312 C313 1.386 . S
C312 C314 1.397 . S
C312 H336 0.931 . S
C313 C312 1.386 . S
C313 C317 1.397 . S
C314 C312 1.397 . S
C314 C315 1.384 . S
C314 H337 0.930 . S
C315 C314 1.384 . S
C315 C316 1.377 . S
C315 C318 1.481 . S
C316 C315 1.377 . S
C316 C317 1.389 . S
C316 H338 0.929 . S
C317 C313 1.397 . S
C317 C316 1.389 . S
C317 H339 0.931 . S
C318 C315 1.481 . S
C318 C319 1.387 . S
C318 C323 1.390 . S
C319 C318 1.387 . S
C319 C320 1.401 . S
C319 H340 0.930 . S
C320 C319 1.401 . S
C320 C321 1.376 . S
C320 C329 1.511 . S
C321 C320 1.376 . S
C321 C322 1.392 . S
C321 H342 0.931 . S
C322 C321 1.392 . S
C322 C323 1.361 . S
C322 C324 1.500 . S
C323 C318 1.390 . S
C323 C322 1.361 . S
C323 H341 0.931 . S
C324 C322 1.500 . S
C324 C325 1.371 . S
C324 C326 1.365 . S
C325 C324 1.371 . S
C325 C335 1.386 . S
C325 H343 0.931 . S
C326 C324 1.365 . S
C326 C327 1.409 . S
C326 H344 0.929 . S
C327 C326 1.409 . S
C327 C328 1.380 . S
C327 H345 0.930 . S
C328 C327 1.380 . S
C328 C335 1.357 . S
C329 C320 1.511 . S
C329 C330 1.341 . S
C329 C331 1.371 . S
C330 C329 1.341 . S
C330 C334 1.394 . S
C330 H346 0.930 . S
C331 C329 1.371 . S
C331 C332 1.392 . S
C331 H347 0.931 . S
C332 C331 1.392 . S
C332 C333 1.331 . S
C332 H350 0.932 . S
C333 C332 1.331 . S
C333 C334 1.336 . S
C334 C330 1.394 . S
C334 C333 1.336 . S
C334 H349 0.929 . S
C335 C325 1.386 . S
C335 C328 1.357 . S
C335 H348 0.928 . S
H336 C312 0.931 . S
H337 C314 0.930 . S
H338 C316 0.929 . S
H339 C317 0.931 . S
H340 C319 0.930 . S
H341 C323 0.931 . S
H342 C321 0.931 . S
H343 C325 0.931 . S
H344 C326 0.929 . S
H345 C327 0.930 . S
H346 C330 0.930 . S
H347 C331 0.931 . S
H348 C335 0.928 . S
H349 C334 0.929 . S
H350 C332 0.932 . S
C351 C352 1.386 . S
C351 C353 1.397 . S
C351 H375 0.931 . S
C352 C351 1.386 . S
C352 C356 1.397 . S
C353 C351 1.397 . S
C353 C354 1.384 . S
C353 H376 0.930 . S
C354 C353 1.384 . S
C354 C355 1.377 . S
C354 C357 1.481 . S
C355 C354 1.377 . S
C355 C356 1.389 . S
C355 H377 0.929 . S
C356 C352 1.397 . S
C356 C355 1.389 . S
C356 H378 0.931 . S
C357 C354 1.481 . S
C357 C358 1.387 . S
C357 C362 1.390 . S
C358 C357 1.387 . S
C358 C359 1.401 . S
C358 H379 0.930 1_565 S
C359 C358 1.401 . S
C359 C360 1.376 . S
C359 C368 1.511 1_565 S
C360 C359 1.376 . S
C360 C361 1.392 . S
C360 H381 0.931 . S
C361 C360 1.392 . S
C361 C362 1.361 . S
C361 C363 1.500 . S
C362 C357 1.390 . S
C362 C361 1.361 . S
C362 H380 0.931 . S
C363 C361 1.500 . S
C363 C364 1.371 . S
C363 C365 1.365 . S
C364 C363 1.371 . S
C364 C374 1.386 . S
C364 H382 0.931 . S
C365 C363 1.365 . S
C365 C366 1.409 . S
C365 H383 0.929 . S
C366 C365 1.409 . S
C366 C367 1.380 . S
C366 H384 0.930 . S
C367 C366 1.380 . S
C367 C374 1.357 . S
C368 C359 1.511 1_545 S
C368 C369 1.341 . S
C368 C370 1.371 . S
C369 C368 1.341 . S
C369 C373 1.394 . S
C369 H385 0.930 . S
C370 C368 1.371 . S
C370 C371 1.392 . S
C370 H386 0.931 1_545 S
C371 C370 1.392 . S
C371 C372 1.331 . S
C371 H389 0.932 . S
C372 C371 1.331 . S
C372 C373 1.336 . S
C373 C369 1.394 . S
C373 C372 1.336 . S
C373 H388 0.929 . S
C374 C364 1.386 . S
C374 C367 1.357 . S
C374 H387 0.928 . S
H375 C351 0.931 . S
H376 C353 0.930 . S
H377 C355 0.929 . S
H378 C356 0.931 . S
H379 C358 0.930 1_545 S
H380 C362 0.931 . S
H381 C360 0.931 . S
H382 C364 0.931 . S
H383 C365 0.929 . S
H384 C366 0.930 . S
H385 C369 0.930 . S
H386 C370 0.931 1_565 S
H387 C374 0.928 . S
H388 C373 0.929 . S
H389 C371 0.932 . S
C390 C391 1.386 . S
C390 C392 1.397 . S
C390 H414 0.931 . S
C391 C390 1.386 . S
C391 C395 1.397 . S
C392 C390 1.397 . S
C392 C393 1.384 . S
C392 H415 0.930 . S
C393 C392 1.384 . S
C393 C394 1.377 . S
C393 C396 1.481 . S
C394 C393 1.377 . S
C394 C395 1.389 . S
C394 H416 0.929 . S
C395 C391 1.397 . S
C395 C394 1.389 . S
C395 H417 0.931 . S
C396 C393 1.481 . S
C396 C397 1.387 . S
C396 C401 1.390 . S
C397 C396 1.387 . S
C397 C398 1.401 . S
C397 H418 0.930 . S
C398 C397 1.401 . S
C398 C399 1.376 . S
C398 C407 1.511 . S
C399 C398 1.376 . S
C399 C400 1.392 . S
C399 H420 0.931 . S
C400 C399 1.392 . S
C400 C401 1.361 . S
C400 C402 1.500 . S
C401 C396 1.390 . S
C401 C400 1.361 . S
C401 H419 0.931 . S
C402 C400 1.500 . S
C402 C403 1.371 . S
C402 C404 1.365 . S
C403 C402 1.371 . S
C403 C413 1.386 . S
C403 H421 0.931 . S
C404 C402 1.365 . S
C404 C405 1.409 . S
C404 H422 0.929 . S
C405 C404 1.409 . S
C405 C406 1.380 . S
C405 H423 0.930 . S
C406 C405 1.380 . S
C406 C413 1.357 . S
C407 C398 1.511 . S
C407 C408 1.341 . S
C407 C409 1.371 . S
C408 C407 1.341 . S
C408 C412 1.394 . S
C408 H424 0.930 . S
C409 C407 1.371 . S
C409 C410 1.392 . S
C409 H425 0.931 . S
C410 C409 1.392 . S
C410 C411 1.331 . S
C410 H428 0.932 . S
C411 C410 1.331 . S
C411 C412 1.336 . S
C412 C408 1.394 . S
C412 C411 1.336 . S
C412 H427 0.929 . S
C413 C403 1.386 . S
C413 C406 1.357 . S
C413 H426 0.928 . S
H414 C390 0.931 . S
H415 C392 0.930 . S
H416 C394 0.929 . S
H417 C395 0.931 . S
H418 C397 0.930 . S
H419 C401 0.931 . S
H420 C399 0.931 . S
H421 C403 0.931 . S
H422 C404 0.929 . S
H423 C405 0.930 . S
H424 C408 0.930 . S
H425 C409 0.931 . S
H426 C413 0.928 . S
H427 C412 0.929 . S
H428 C410 0.932 . S
C429 C430 1.386 . S
C429 C431 1.397 . S
C429 H453 0.931 . S
C430 C429 1.386 . S
C430 C434 1.397 . S
C431 C429 1.397 . S
C431 C432 1.384 . S
C431 H454 0.930 . S
C432 C431 1.384 . S
C432 C433 1.377 . S
C432 C435 1.481 . S
C433 C432 1.377 . S
C433 C434 1.389 . S
C433 H455 0.929 . S
C434 C430 1.397 . S
C434 C433 1.389 . S
C434 H456 0.931 . S
C435 C432 1.481 . S
C435 C436 1.387 . S
C435 C440 1.390 . S
C436 C435 1.387 . S
C436 C437 1.401 . S
C436 H457 0.930 . S
C437 C436 1.401 . S
C437 C438 1.376 . S
C437 C446 1.511 . S
C438 C437 1.376 . S
C438 C439 1.392 . S
C438 H459 0.931 . S
C439 C438 1.392 . S
C439 C440 1.361 . S
C439 C441 1.500 . S
C440 C435 1.390 . S
C440 C439 1.361 . S
C440 H458 0.931 . S
C441 C439 1.500 . S
C441 C442 1.371 . S
C441 C443 1.365 . S
C442 C441 1.371 . S
C442 C452 1.386 . S
C442 H460 0.931 . S
C443 C441 1.365 . S
C443 C444 1.409 . S
C443 H461 0.929 . S
C444 C443 1.409 . S
C444 C445 1.380 . S
C444 H462 0.930 . S
C445 C444 1.380 . S
C445 C452 1.357 . S
C446 C437 1.511 . S
C446 C447 1.341 . S
C446 C448 1.371 . S
C447 C446 1.341 . S
C447 C451 1.394 . S
C447 H463 0.930 . S
C448 C446 1.371 . S
C448 C449 1.392 . S
C448 H464 0.931 . S
C449 C448 1.392 . S
C449 C450 1.331 . S
C449 H467 0.932 . S
C450 C449 1.331 . S
C450 C451 1.336 . S
C451 C447 1.394 . S
C451 C450 1.336 . S
C451 H466 0.929 . S
C452 C442 1.386 . S
C452 C445 1.357 . S
C452 H465 0.928 . S
H453 C429 0.931 . S
H454 C431 0.930 . S
H455 C433 0.929 . S
H456 C434 0.931 . S
H457 C436 0.930 . S
H458 C440 0.931 . S
H459 C438 0.931 . S
H460 C442 0.931 . S
H461 C443 0.929 . S
H462 C444 0.930 . S
H463 C447 0.930 . S
H464 C448 0.931 . S
H465 C452 0.928 . S
H466 C451 0.929 . S
H467 C449 0.932 . S
C468 C469 1.386 . S
C468 C470 1.397 . S
C468 H492 0.931 . S
C469 C468 1.386 . S
C469 C473 1.397 . S
C470 C468 1.397 . S
C470 C471 1.384 . S
C470 H493 0.930 . S
C471 C470 1.384 . S
C471 C472 1.377 . S
C471 C474 1.481 . S
C472 C471 1.377 . S
C472 C473 1.389 . S
C472 H494 0.929 . S
C473 C469 1.397 . S
C473 C472 1.389 . S
C473 H495 0.931 . S
C474 C471 1.481 . S
C474 C475 1.387 . S
C474 C479 1.390 . S
C475 C474 1.387 . S
C475 C476 1.401 . S
C475 H496 0.930 . S
C476 C475 1.401 . S
C476 C477 1.376 . S
C476 C485 1.511 . S
C477 C476 1.376 . S
C477 C478 1.392 . S
C477 H498 0.931 . S
C478 C477 1.392 . S
C478 C479 1.361 . S
C478 C480 1.500 . S
C479 C474 1.390 . S
C479 C478 1.361 . S
C479 H497 0.931 . S
C480 C478 1.500 . S
C480 C481 1.371 . S
C480 C482 1.365 . S
C481 C480 1.371 . S
C481 C491 1.386 . S
C481 H499 0.931 . S
C482 C480 1.365 . S
C482 C483 1.409 . S
C482 H500 0.929 . S
C483 C482 1.409 . S
C483 C484 1.380 . S
C483 H501 0.930 . S
C484 C483 1.380 . S
C484 C491 1.357 . S
C485 C476 1.511 . S
C485 C486 1.341 . S
C485 C487 1.371 . S
C486 C485 1.341 . S
C486 C490 1.394 . S
C486 H502 0.930 . S
C487 C485 1.371 . S
C487 C488 1.392 . S
C487 H503 0.931 . S
C488 C487 1.392 . S
C488 C489 1.331 . S
C488 H506 0.932 . S
C489 C488 1.331 . S
C489 C490 1.336 . S
C490 C486 1.394 . S
C490 C489 1.336 . S
C490 H505 0.929 . S
C491 C481 1.386 . S
C491 C484 1.357 . S
C491 H504 0.928 . S
H492 C468 0.931 . S
H493 C470 0.930 . S
H494 C472 0.929 . S
H495 C473 0.931 . S
H496 C475 0.930 . S
H497 C479 0.931 . S
H498 C477 0.931 . S
H499 C481 0.931 . S
H500 C482 0.929 . S
H501 C483 0.930 . S
H502 C486 0.930 . S
H503 C487 0.931 . S
H504 C491 0.928 . S
H505 C490 0.929 . S
H506 C488 0.932 . S
C507 C508 1.386 . S
C507 C509 1.397 . S
C507 H531 0.931 . S
C508 C507 1.386 . S
C508 C512 1.397 . S
C509 C507 1.397 . S
C509 C510 1.384 . S
C509 H532 0.930 . S
C510 C509 1.384 . S
C510 C511 1.377 . S
C510 C513 1.481 . S
C511 C510 1.377 . S
C511 C512 1.389 . S
C511 H533 0.929 . S
C512 C508 1.397 . S
C512 C511 1.389 . S
C512 H534 0.931 . S
C513 C510 1.481 . S
C513 C514 1.387 . S
C513 C518 1.390 . S
C514 C513 1.387 . S
C514 C515 1.401 . S
C514 H535 0.930 . S
C515 C514 1.401 . S
C515 C516 1.376 . S
C515 C524 1.511 1_556 S
C516 C515 1.376 . S
C516 C517 1.392 . S
C516 H537 0.931 1_556 S
C517 C516 1.392 . S
C517 C518 1.361 . S
C517 C519 1.500 . S
C518 C513 1.390 . S
C518 C517 1.361 . S
C518 H536 0.931 . S
C519 C517 1.500 . S
C519 C520 1.371 . S
C519 C521 1.365 . S
C520 C519 1.371 . S
C520 C530 1.386 1_556 S
C520 H538 0.931 1_556 S
C521 C519 1.365 . S
C521 C522 1.409 . S
C521 H539 0.929 . S
C522 C521 1.409 . S
C522 C523 1.380 . S
C522 H540 0.930 . S
C523 C522 1.380 . S
C523 C530 1.357 1_556 S
C524 C515 1.511 1_554 S
C524 C525 1.341 . S
C524 C526 1.371 . S
C525 C524 1.341 . S
C525 C529 1.394 . S
C525 H541 0.930 1_554 S
C526 C524 1.371 . S
C526 C527 1.392 . S
C526 H542 0.931 . S
C527 C526 1.392 . S
C527 C528 1.331 . S
C527 H545 0.932 . S
C528 C527 1.331 . S
C528 C529 1.336 . S
C529 C525 1.394 . S
C529 C528 1.336 . S
C529 H544 0.929 . S
C530 C520 1.386 1_554 S
C530 C523 1.357 1_554 S
C530 H543 0.928 . S
H531 C507 0.931 . S
H532 C509 0.930 . S
H533 C511 0.929 . S
H534 C512 0.931 . S
H535 C514 0.930 . S
H536 C518 0.931 . S
H537 C516 0.931 1_554 S
H538 C520 0.931 1_554 S
H539 C521 0.929 . S
H540 C522 0.930 . S
H541 C525 0.930 1_556 S
H542 C526 0.931 . S
H543 C530 0.928 . S
H544 C529 0.929 . S
H545 C527 0.932 . S
C546 C547 1.386 . S
C546 C548 1.397 . S
C546 H570 0.931 . S
C547 C546 1.386 . S
C547 C551 1.397 . S
C548 C546 1.397 . S
C548 C549 1.384 . S
C548 H571 0.930 . S
C549 C548 1.384 . S
C549 C550 1.377 . S
C549 C552 1.481 . S
C550 C549 1.377 . S
C550 C551 1.389 . S
C550 H572 0.929 . S
C551 C547 1.397 . S
C551 C550 1.389 . S
C551 H573 0.931 . S
C552 C549 1.481 . S
C552 C553 1.387 . S
C552 C557 1.390 . S
C553 C552 1.387 . S
C553 C554 1.401 . S
C553 H574 0.930 . S
C554 C553 1.401 . S
C554 C555 1.376 . S
C554 C563 1.511 . S
C555 C554 1.376 . S
C555 C556 1.392 . S
C555 H576 0.931 . S
C556 C555 1.392 . S
C556 C557 1.361 . S
C556 C558 1.500 . S
C557 C552 1.390 . S
C557 C556 1.361 . S
C557 H575 0.931 . S
C558 C556 1.500 . S
C558 C559 1.371 . S
C558 C560 1.365 . S
C559 C558 1.371 . S
C559 C569 1.386 . S
C559 H577 0.931 . S
C560 C558 1.365 . S
C560 C561 1.409 . S
C560 H578 0.929 . S
C561 C560 1.409 . S
C561 C562 1.380 . S
C561 H579 0.930 . S
C562 C561 1.380 . S
C562 C569 1.357 . S
C563 C554 1.511 . S
C563 C564 1.341 . S
C563 C565 1.371 . S
C564 C563 1.341 . S
C564 C568 1.394 . S
C564 H580 0.930 . S
C565 C563 1.371 . S
C565 C566 1.392 . S
C565 H581 0.931 . S
C566 C565 1.392 . S
C566 C567 1.331 . S
C566 H584 0.932 . S
C567 C566 1.331 . S
C567 C568 1.336 . S
C568 C564 1.394 . S
C568 C567 1.336 . S
C568 H583 0.929 . S
C569 C559 1.386 . S
C569 C562 1.357 . S
C569 H582 0.928 . S
H570 C546 0.931 . S
H571 C548 0.930 . S
H572 C550 0.929 . S
H573 C551 0.931 . S
H574 C553 0.930 . S
H575 C557 0.931 . S
H576 C555 0.931 . S
H577 C559 0.931 . S
H578 C560 0.929 . S
H579 C561 0.930 . S
H580 C564 0.930 . S
H581 C565 0.931 . S
H582 C569 0.928 . S
H583 C568 0.929 . S
H584 C566 0.932 . S
C585 C586 1.386 . S
C585 C587 1.397 1_554 S
C585 H609 0.931 . S
C586 C585 1.386 . S
C586 C590 1.397 . S
C587 C585 1.397 1_556 S
C587 C588 1.384 1_556 S
C587 H610 0.930 . S
C588 C587 1.384 1_554 S
C588 C589 1.377 . S
C588 C591 1.481 1_554 S
C589 C588 1.377 . S
C589 C590 1.389 . S
C589 H611 0.929 . S
C590 C586 1.397 . S
C590 C589 1.389 . S
C590 H612 0.931 . S
C591 C588 1.481 1_556 S
C591 C592 1.387 . S
C591 C596 1.390 . S
C592 C591 1.387 . S
C592 C593 1.401 . S
C592 H613 0.930 . S
C593 C592 1.401 . S
C593 C594 1.376 . S
C593 C602 1.511 . S
C594 C593 1.376 . S
C594 C595 1.392 . S
C594 H615 0.931 . S
C595 C594 1.392 . S
C595 C596 1.361 . S
C595 C597 1.500 . S
C596 C591 1.390 . S
C596 C595 1.361 . S
C596 H614 0.931 1_556 S
C597 C595 1.500 . S
C597 C598 1.371 1_545 S
C597 C599 1.365 1_546 S
C598 C597 1.371 1_565 S
C598 C608 1.386 . S
C598 H616 0.931 . S
C599 C597 1.365 1_564 S
C599 C600 1.409 . S
C599 H617 0.929 1_565 S
C600 C599 1.409 . S
C600 C601 1.380 1_554 S
C600 H618 0.930 . S
C601 C600 1.380 1_556 S
C601 C608 1.357 . S
C602 C593 1.511 . S
C602 C603 1.341 . S
C602 C604 1.371 . S
C603 C602 1.341 . S
C603 C607 1.394 . S
C603 H619 0.930 . S
C604 C602 1.371 . S
C604 C605 1.392 . S
C604 H620 0.931 1_545 S
C605 C604 1.392 . S
C605 C606 1.331 . S
C605 H623 0.932 1_545 S
C606 C605 1.331 . S
C606 C607 1.336 . S
C607 C603 1.394 . S
C607 C606 1.336 . S
C607 H622 0.929 . S
C608 C598 1.386 . S
C608 C601 1.357 . S
C608 H621 0.928 . S
H609 C585 0.931 . S
H610 C587 0.930 . S
H611 C589 0.929 . S
H612 C590 0.931 . S
H613 C592 0.930 . S
H614 C596 0.931 1_554 S
H615 C594 0.931 . S
H616 C598 0.931 . S
H617 C599 0.929 1_545 S
H618 C600 0.930 . S
H619 C603 0.930 . S
H620 C604 0.931 1_565 S
H621 C608 0.928 . S
H622 C607 0.929 . S
H623 C605 0.932 1_565 S
Mn624 O629 2.095 . S
Mn624 O639 2.162 . S
Mn624 O640 2.297 . S
Mn624 O648 2.385 1_554 S
Mn624 O649 2.209 1_554 S
Mn624 O650 2.094 . S
Mn625 O630 2.121 . S
Mn625 N632 2.257 . S
Mn625 N641 2.282 . S
Mn625 O649 2.215 . S
Mn625 O651 2.117 . S
C626 O648 1.234 . S
C626 O649 1.283 . S
C627 O639 1.281 . S
C627 O640 1.236 . S
C628 O650 1.240 . S
C628 O651 1.264 1_554 S
O629 Mn624 2.095 . S
O629 C638 1.258 . S
O630 Mn625 2.121 . S
O630 C638 1.248 1_556 S
C631 N632 1.326 . S
C631 C635 1.460 . S
C631 H637 0.929 . S
N632 Mn625 2.257 . S
N632 C631 1.326 . S
N632 C636 1.362 . S
C633 C634 1.258 . S
C633 C636 1.431 . S
C633 C653 1.449 . S
C634 C633 1.258 . S
C634 C635 1.477 . S
C634 H654 0.931 . S
C635 C631 1.460 . S
C635 C634 1.477 . S
C635 H655 0.930 . S
C636 N632 1.362 . S
C636 C633 1.431 . S
C636 C646 1.476 . S
H637 C631 0.929 . S
C638 O629 1.258 . S
C638 O630 1.248 1_554 S
O639 Mn624 2.162 . S
O639 C627 1.281 . S
O640 Mn624 2.297 . S
O640 C627 1.236 . S
N641 Mn625 2.282 . S
N641 C642 1.328 . S
N641 C646 1.318 . S
C642 N641 1.328 . S
C642 C643 1.457 . S
C642 H647 0.929 . S
C643 C642 1.457 . S
C643 C644 1.291 . S
C643 H656 0.931 . S
C644 C643 1.291 . S
C644 C645 1.373 . S
C644 H657 0.929 . S
C645 C644 1.373 . S
C645 C646 1.396 . S
C645 C652 1.403 . S
C646 C636 1.476 . S
C646 N641 1.318 . S
C646 C645 1.396 . S
H647 C642 0.929 . S
O648 Mn624 2.385 1_556 S
O648 C626 1.234 . S
O649 Mn624 2.209 1_556 S
O649 Mn625 2.215 . S
O649 C626 1.283 . S
O650 Mn624 2.094 . S
O650 C628 1.240 . S
O651 Mn625 2.117 . S
O651 C628 1.264 1_556 S
C652 C645 1.403 . S
C652 C653 1.399 . S
C652 H658 0.929 . S
C653 C633 1.449 . S
C653 C652 1.399 . S
C653 H659 0.930 . S
H654 C634 0.931 . S
H655 C635 0.930 . S
H656 C643 0.931 . S
H657 C644 0.929 . S
H658 C652 0.929 . S
H659 C653 0.930 . S
Mn660 O665 2.095 . S
Mn660 O675 2.162 . S
Mn660 O676 2.297 . S
Mn660 O684 2.385 . S
Mn660 O685 2.209 . S
Mn660 O686 2.094 . S
Mn661 O666 2.121 . S
Mn661 N668 2.257 . S
Mn661 N677 2.282 . S
Mn661 O685 2.215 . S
Mn661 O687 2.117 . S
C662 O684 1.234 . S
C662 O685 1.283 . S
C663 O675 1.281 . S
C663 O676 1.236 . S
C664 O686 1.240 . S
C664 O687 1.264 . S
O665 Mn660 2.095 . S
O665 C674 1.250 . S
O666 Mn661 2.121 . S
O666 C674 1.258 . S
C667 N668 1.326 . S
C667 C671 1.460 . S
C667 H673 0.929 . S
N668 Mn661 2.257 . S
N668 C667 1.326 . S
N668 C672 1.362 . S
C669 C670 1.258 . S
C669 C672 1.431 . S
C669 C689 1.449 . S
C670 C669 1.258 . S
C670 C671 1.477 . S
C670 H690 0.931 . S
C671 C667 1.460 . S
C671 C670 1.477 . S
C671 H691 0.930 . S
C672 N668 1.362 . S
C672 C669 1.431 . S
C672 C682 1.476 . S
H673 C667 0.929 . S
C674 O665 1.250 . S
C674 O666 1.258 . S
O675 Mn660 2.162 . S
O675 C663 1.281 . S
O676 Mn660 2.297 . S
O676 C663 1.236 . S
N677 Mn661 2.282 . S
N677 C678 1.328 . S
N677 C682 1.318 . S
C678 N677 1.328 . S
C678 C679 1.457 . S
C678 H683 0.929 . S
C679 C678 1.457 . S
C679 C680 1.291 . S
C679 H692 0.931 . S
C680 C679 1.291 . S
C680 C681 1.373 . S
C680 H693 0.929 . S
C681 C680 1.373 . S
C681 C682 1.396 . S
C681 C688 1.403 . S
C682 C672 1.476 . S
C682 N677 1.318 . S
C682 C681 1.396 . S
H683 C678 0.929 . S
O684 Mn660 2.385 . S
O684 C662 1.234 . S
O685 Mn660 2.209 . S
O685 Mn661 2.215 . S
O685 C662 1.283 . S
O686 Mn660 2.094 . S
O686 C664 1.240 . S
O687 Mn661 2.117 . S
O687 C664 1.264 . S
C688 C681 1.403 . S
C688 C689 1.399 . S
C688 H694 0.929 . S
C689 C669 1.449 . S
C689 C688 1.399 . S
C689 H695 0.930 . S
H690 C670 0.931 . S
H691 C671 0.930 . S
H692 C679 0.931 . S
H693 C680 0.929 . S
H694 C688 0.929 . S
H695 C689 0.930 . S
Mn696 O701 2.095 1_554 S
Mn696 O711 2.162 . S
Mn696 O712 2.297 1_554 S
Mn696 O720 2.385 . S
Mn696 O721 2.209 1_554 S
Mn696 O722 2.094 . S
Mn697 O702 2.121 . S
Mn697 N704 2.257 . S
Mn697 N713 2.282 . S
Mn697 O721 2.215 . S
Mn697 O723 2.117 1_556 S
C698 O720 1.213 1_556 S
C698 O721 1.298 . S
C699 O711 1.281 . S
C699 O712 1.236 1_554 S
C700 O722 1.240 . S
C700 O723 1.264 . S
O701 Mn696 2.095 1_556 S
O701 C710 1.250 . S
O702 Mn697 2.121 . S
O702 C710 1.258 . S
C703 N704 1.326 . S
C703 C707 1.460 . S
C703 H709 0.929 . S
N704 Mn697 2.257 . S
N704 C703 1.326 . S
N704 C708 1.362 . S
C705 C706 1.258 . S
C705 C708 1.431 . S
C705 C725 1.449 . S
C706 C705 1.258 . S
C706 C707 1.477 . S
C706 H726 0.931 . S
C707 C703 1.460 . S
C707 C706 1.477 . S
C707 H727 0.930 . S
C708 N704 1.362 . S
C708 C705 1.431 . S
C708 C718 1.476 . S
H709 C703 0.929 . S
C710 O701 1.250 . S
C710 O702 1.258 . S
O711 Mn696 2.162 . S
O711 C699 1.281 . S
O712 Mn696 2.297 1_556 S
O712 C699 1.236 1_556 S
N713 Mn697 2.282 . S
N713 C714 1.328 1_556 S
N713 C718 1.318 . S
C714 N713 1.328 1_554 S
C714 C715 1.457 . S
C714 H719 0.929 . S
C715 C714 1.457 . S
C715 C716 1.291 . S
C715 H728 0.931 . S
C716 C715 1.291 . S
C716 C717 1.373 1_554 S
C716 H729 0.929 . S
C717 C716 1.373 1_556 S
C717 C718 1.396 . S
C717 C724 1.403 . S
C718 C708 1.476 . S
C718 N713 1.318 . S
C718 C717 1.396 . S
H719 C714 0.929 . S
O720 Mn696 2.385 . S
O720 C698 1.213 1_554 S
O721 Mn696 2.209 1_556 S
O721 Mn697 2.215 . S
O721 C698 1.298 . S
O722 Mn696 2.094 . S
O722 C700 1.240 . S
O723 Mn697 2.117 1_554 S
O723 C700 1.264 . S
C724 C717 1.403 . S
C724 C725 1.399 . S
C724 H730 0.929 . S
C725 C705 1.449 . S
C725 C724 1.399 . S
C725 H731 0.930 . S
H726 C706 0.931 . S
H727 C707 0.930 . S
H728 C715 0.931 . S
H729 C716 0.929 . S
H730 C724 0.929 . S
H731 C725 0.930 . S
Mn732 O737 2.095 . S
Mn732 O747 2.162 . S
Mn732 O748 2.297 . S
Mn732 O756 2.385 1_545 S
Mn732 O757 2.209 1_545 S
Mn732 O758 2.094 . S
Mn733 O738 2.121 . S
Mn733 N740 2.257 . S
Mn733 N749 2.282 . S
Mn733 O757 2.215 . S
Mn733 O759 2.117 . S
C734 O756 1.234 . S
C734 O757 1.283 . S
C735 O747 1.281 . S
C735 O748 1.236 . S
C736 O758 1.240 . S
C736 O759 1.264 1_545 S
O737 Mn732 2.095 . S
O737 C746 1.250 1_545 S
O738 Mn733 2.121 . S
O738 C746 1.258 . S
C739 N740 1.326 . S
C739 C743 1.460 . S
C739 H745 0.929 . S
N740 Mn733 2.257 . S
N740 C739 1.326 . S
N740 C744 1.362 . S
C741 C742 1.258 . S
C741 C744 1.431 . S
C741 C761 1.449 . S
C742 C741 1.258 . S
C742 C743 1.477 . S
C742 H762 0.931 . S
C743 C739 1.460 . S
C743 C742 1.477 . S
C743 H763 0.930 . S
C744 N740 1.362 . S
C744 C741 1.431 . S
C744 C754 1.476 . S
H745 C739 0.929 . S
C746 O737 1.250 1_565 S
C746 O738 1.258 . S
O747 Mn732 2.162 . S
O747 C735 1.281 . S
O748 Mn732 2.297 . S
O748 C735 1.236 . S
N749 Mn733 2.282 . S
N749 C750 1.328 . S
N749 C754 1.318 . S
C750 N749 1.328 . S
C750 C751 1.457 . S
C750 H755 0.929 . S
C751 C750 1.457 . S
C751 C752 1.291 . S
C751 H764 0.931 . S
C752 C751 1.291 . S
C752 C753 1.373 . S
C752 H765 0.929 . S
C753 C752 1.373 . S
C753 C754 1.396 . S
C753 C760 1.403 . S
C754 C744 1.476 . S
C754 N749 1.318 . S
C754 C753 1.396 . S
H755 C750 0.929 . S
O756 Mn732 2.385 1_565 S
O756 C734 1.234 . S
O757 Mn732 2.209 1_565 S
O757 Mn733 2.215 . S
O757 C734 1.283 . S
O758 Mn732 2.094 . S
O758 C736 1.240 . S
O759 Mn733 2.117 . S
O759 C736 1.264 1_565 S
C760 C753 1.403 . S
C760 C761 1.399 . S
C760 H766 0.929 . S
C761 C741 1.449 . S
C761 C760 1.399 . S
C761 H767 0.930 . S
H762 C742 0.931 . S
H763 C743 0.930 . S
H764 C751 0.931 . S
H765 C752 0.929 . S
H766 C760 0.929 . S
H767 C761 0.930 . S
Mn768 O773 2.095 . S
Mn768 O783 2.162 . S
Mn768 O784 2.297 . S
Mn768 O792 2.385 . S
Mn768 O793 2.209 . S
Mn768 O794 2.094 . S
Mn769 O774 2.121 . S
Mn769 N776 2.257 . S
Mn769 N785 2.282 . S
Mn769 O793 2.215 . S
Mn769 O795 2.117 . S
C770 O792 1.234 . S
C770 O793 1.283 . S
C771 O783 1.281 . S
C771 O784 1.236 . S
C772 O794 1.240 . S
C772 O795 1.264 . S
O773 Mn768 2.095 . S
O773 C782 1.250 . S
O774 Mn769 2.121 . S
O774 C782 1.258 . S
C775 N776 1.326 . S
C775 C779 1.460 . S
C775 H781 0.929 . S
N776 Mn769 2.257 . S
N776 C775 1.326 . S
N776 C780 1.362 . S
C777 C778 1.258 . S
C777 C780 1.431 . S
C777 C797 1.449 . S
C778 C777 1.258 . S
C778 C779 1.477 . S
C778 H798 0.931 . S
C779 C775 1.460 . S
C779 C778 1.477 . S
C779 H799 0.930 . S
C780 N776 1.362 . S
C780 C777 1.431 . S
C780 C790 1.476 . S
H781 C775 0.929 . S
C782 O773 1.250 . S
C782 O774 1.258 . S
O783 Mn768 2.162 . S
O783 C771 1.281 . S
O784 Mn768 2.297 . S
O784 C771 1.236 . S
N785 Mn769 2.282 . S
N785 C786 1.328 . S
N785 C790 1.318 . S
C786 N785 1.328 . S
C786 C787 1.457 . S
C786 H791 0.929 . S
C787 C786 1.457 . S
C787 C788 1.291 . S
C787 H800 0.931 . S
C788 C787 1.291 . S
C788 C789 1.373 . S
C788 H801 0.929 . S
C789 C788 1.373 . S
C789 C790 1.396 . S
C789 C796 1.403 . S
C790 C780 1.476 . S
C790 N785 1.318 . S
C790 C789 1.396 . S
H791 C786 0.929 . S
O792 Mn768 2.385 . S
O792 C770 1.234 . S
O793 Mn768 2.209 . S
O793 Mn769 2.215 . S
O793 C770 1.283 . S
O794 Mn768 2.094 . S
O794 C772 1.240 . S
O795 Mn769 2.117 . S
O795 C772 1.264 . S
C796 C789 1.403 . S
C796 C797 1.399 . S
C796 H802 0.929 . S
C797 C777 1.449 . S
C797 C796 1.399 . S
C797 H803 0.930 . S
H798 C778 0.931 . S
H799 C779 0.930 . S
H800 C787 0.931 . S
H801 C788 0.929 . S
H802 C796 0.929 . S
H803 C797 0.930 . S
Mn804 O809 2.095 . S
Mn804 O819 2.162 . S
Mn804 O820 2.297 . S
Mn804 O828 2.385 . S
Mn804 O829 2.209 . S
Mn804 O830 2.094 . S
Mn805 O810 2.121 . S
Mn805 N812 2.257 . S
Mn805 N821 2.282 . S
Mn805 O829 2.215 . S
Mn805 O831 2.117 . S
C806 O828 1.234 . S
C806 O829 1.283 . S
C807 O819 1.281 . S
C807 O820 1.236 . S
C808 O830 1.240 . S
C808 O831 1.264 . S
O809 Mn804 2.095 . S
O809 C818 1.250 . S
O810 Mn805 2.121 . S
O810 C818 1.258 . S
C811 N812 1.326 . S
C811 C815 1.460 . S
C811 H817 0.929 . S
N812 Mn805 2.257 . S
N812 C811 1.326 . S
N812 C816 1.362 . S
C813 C814 1.258 . S
C813 C816 1.431 . S
C813 C833 1.449 . S
C814 C813 1.258 . S
C814 C815 1.477 . S
C814 H834 0.931 . S
C815 C811 1.460 . S
C815 C814 1.477 . S
C815 H835 0.930 . S
C816 N812 1.362 . S
C816 C813 1.431 . S
C816 C826 1.476 . S
H817 C811 0.929 . S
C818 O809 1.250 . S
C818 O810 1.258 . S
O819 Mn804 2.162 . S
O819 C807 1.281 . S
O820 Mn804 2.297 . S
O820 C807 1.236 . S
N821 Mn805 2.282 . S
N821 C822 1.328 . S
N821 C826 1.318 . S
C822 N821 1.328 . S
C822 C823 1.457 . S
C822 H827 0.929 . S
C823 C822 1.457 . S
C823 C824 1.291 . S
C823 H836 0.931 . S
C824 C823 1.291 . S
C824 C825 1.373 . S
C824 H837 0.929 . S
C825 C824 1.373 . S
C825 C826 1.396 . S
C825 C832 1.403 . S
C826 C816 1.476 . S
C826 N821 1.318 . S
C826 C825 1.396 . S
H827 C822 0.929 . S
O828 Mn804 2.385 . S
O828 C806 1.234 . S
O829 Mn804 2.209 . S
O829 Mn805 2.215 . S
O829 C806 1.283 . S
O830 Mn804 2.094 . S
O830 C808 1.240 . S
O831 Mn805 2.117 . S
O831 C808 1.264 . S
C832 C825 1.403 . S
C832 C833 1.399 . S
C832 H838 0.929 . S
C833 C813 1.449 . S
C833 C832 1.399 . S
C833 H839 0.930 . S
H834 C814 0.931 . S
H835 C815 0.930 . S
H836 C823 0.931 . S
H837 C824 0.929 . S
H838 C832 0.929 . S
H839 C833 0.930 . S
Mn840 O845 2.095 . S
Mn840 O855 2.162 . S
Mn840 O856 2.297 . S
Mn840 O864 2.385 . S
Mn840 O865 2.209 . S
Mn840 O866 2.094 . S
Mn841 O846 2.121 . S
Mn841 N848 2.257 . S
Mn841 N857 2.282 . S
Mn841 O865 2.215 . S
Mn841 O867 2.117 . S
C842 O864 1.234 . S
C842 O865 1.283 . S
C843 O855 1.281 . S
C843 O856 1.236 . S
C844 O866 1.240 . S
C844 O867 1.264 . S
O845 Mn840 2.095 . S
O845 C854 1.250 . S
O846 Mn841 2.121 . S
O846 C854 1.258 . S
C847 N848 1.326 . S
C847 C851 1.460 . S
C847 H853 0.929 . S
N848 Mn841 2.257 . S
N848 C847 1.326 . S
N848 C852 1.362 . S
C849 C850 1.258 . S
C849 C852 1.431 . S
C849 C869 1.449 . S
C850 C849 1.258 . S
C850 C851 1.477 . S
C850 H870 0.931 . S
C851 C847 1.460 . S
C851 C850 1.477 . S
C851 H871 0.930 . S
C852 N848 1.362 . S
C852 C849 1.431 . S
C852 C862 1.476 . S
H853 C847 0.929 . S
C854 O845 1.250 . S
C854 O846 1.258 . S
O855 Mn840 2.162 . S
O855 C843 1.281 . S
O856 Mn840 2.297 . S
O856 C843 1.236 . S
N857 Mn841 2.282 . S
N857 C858 1.328 . S
N857 C862 1.318 . S
C858 N857 1.328 . S
C858 C859 1.457 . S
C858 H863 0.929 . S
C859 C858 1.457 . S
C859 C860 1.291 . S
C859 H872 0.931 . S
C860 C859 1.291 . S
C860 C861 1.373 . S
C860 H873 0.929 . S
C861 C860 1.373 . S
C861 C862 1.396 . S
C861 C868 1.403 . S
C862 C852 1.476 . S
C862 N857 1.318 . S
C862 C861 1.396 . S
H863 C858 0.929 . S
O864 Mn840 2.385 . S
O864 C842 1.234 . S
O865 Mn840 2.209 . S
O865 Mn841 2.215 . S
O865 C842 1.283 . S
O866 Mn840 2.094 . S
O866 C844 1.240 . S
O867 Mn841 2.117 . S
O867 C844 1.264 . S
C868 C861 1.403 . S
C868 C869 1.399 . S
C868 H874 0.929 . S
C869 C849 1.449 . S
C869 C868 1.399 . S
C869 H875 0.930 . S
H870 C850 0.931 . S
H871 C851 0.930 . S
H872 C859 0.931 . S
H873 C860 0.929 . S
H874 C868 0.929 . S
H875 C869 0.930 . S
Mn876 O881 2.095 . S
Mn876 O891 2.162 . S
Mn876 O892 2.297 . S
Mn876 O900 2.385 1_565 S
Mn876 O901 2.209 1_565 S
Mn876 O902 2.094 . S
Mn877 O882 2.121 . S
Mn877 N884 2.257 . S
Mn877 N893 2.282 . S
Mn877 O901 2.215 . S
Mn877 O903 2.117 . S
C878 O900 1.234 . S
C878 O901 1.283 . S
C879 O891 1.281 . S
C879 O892 1.236 . S
C880 O902 1.221 1_545 S
C880 O903 1.288 . S
O881 Mn876 2.095 . S
O881 C890 1.250 1_565 S
O882 Mn877 2.121 . S
O882 C890 1.258 . S
C883 N884 1.326 . S
C883 C887 1.460 . S
C883 H889 0.929 . S
N884 Mn877 2.257 . S
N884 C883 1.326 . S
N884 C888 1.362 . S
C885 C886 1.258 . S
C885 C888 1.431 . S
C885 C905 1.449 . S
C886 C885 1.258 . S
C886 C887 1.477 . S
C886 H906 0.931 . S
C887 C883 1.460 . S
C887 C886 1.477 . S
C887 H907 0.930 . S
C888 N884 1.362 . S
C888 C885 1.431 . S
C888 C898 1.476 . S
H889 C883 0.929 . S
C890 O881 1.250 1_545 S
C890 O882 1.258 . S
O891 Mn876 2.162 . S
O891 C879 1.281 . S
O892 Mn876 2.297 . S
O892 C879 1.236 . S
N893 Mn877 2.282 . S
N893 C894 1.328 . S
N893 C898 1.318 . S
C894 N893 1.328 . S
C894 C895 1.457 . S
C894 H899 0.929 . S
C895 C894 1.457 . S
C895 C896 1.291 . S
C895 H908 0.931 . S
C896 C895 1.291 . S
C896 C897 1.373 . S
C896 H909 0.929 . S
C897 C896 1.373 . S
C897 C898 1.396 . S
C897 C904 1.403 . S
C898 C888 1.476 . S
C898 N893 1.318 . S
C898 C897 1.396 . S
H899 C894 0.929 . S
O900 Mn876 2.385 1_545 S
O900 C878 1.234 . S
O901 Mn876 2.209 1_545 S
O901 Mn877 2.215 . S
O901 C878 1.283 . S
O902 Mn876 2.094 . S
O902 C880 1.221 1_565 S
O903 Mn877 2.117 . S
O903 C880 1.288 . S
C904 C897 1.403 . S
C904 C905 1.399 . S
C904 H910 0.929 . S
C905 C885 1.449 . S
C905 C904 1.399 . S
C905 H911 0.930 . S
H906 C886 0.931 . S
H907 C887 0.930 . S
H908 C895 0.931 . S
H909 C896 0.929 . S
H910 C904 0.929 . S
H911 C905 0.930 . S
Mn912 O917 2.095 . S
Mn912 O927 2.162 . S
Mn912 O928 2.297 . S
Mn912 O936 2.385 1_455 S
Mn912 O937 2.209 1_455 S
Mn912 O938 2.094 . S
Mn913 O918 2.121 . S
Mn913 N920 2.257 . S
Mn913 N929 2.282 . S
Mn913 O937 2.215 . S
Mn913 O939 2.117 . S
C914 O936 1.234 . S
C914 O937 1.283 . S
C915 O927 1.281 . S
C915 O928 1.236 . S
C916 O938 1.240 . S
C916 O939 1.264 1_455 S
O917 Mn912 2.095 . S
O917 C926 1.250 1_455 S
O918 Mn913 2.121 . S
O918 C926 1.258 . S
C919 N920 1.326 . S
C919 C923 1.460 . S
C919 H925 0.929 . S
N920 Mn913 2.257 . S
N920 C919 1.326 . S
N920 C924 1.362 . S
C921 C922 1.258 . S
C921 C924 1.431 . S
C921 C941 1.449 . S
C922 C921 1.258 . S
C922 C923 1.477 . S
C922 H942 0.931 . S
C923 C919 1.460 . S
C923 C922 1.477 . S
C923 H943 0.930 . S
C924 N920 1.362 . S
C924 C921 1.431 . S
C924 C934 1.476 . S
H925 C919 0.929 . S
C926 O917 1.250 1_655 S
C926 O918 1.258 . S
O927 Mn912 2.162 . S
O927 C915 1.281 . S
O928 Mn912 2.297 . S
O928 C915 1.236 . S
N929 Mn913 2.282 . S
N929 C930 1.328 . S
N929 C934 1.318 . S
C930 N929 1.328 . S
C930 C931 1.457 . S
C930 H935 0.929 . S
C931 C930 1.457 . S
C931 C932 1.291 . S
C931 H944 0.931 . S
C932 C931 1.291 . S
C932 C933 1.373 . S
C932 H945 0.929 . S
C933 C932 1.373 . S
C933 C934 1.396 . S
C933 C940 1.403 . S
C934 C924 1.476 . S
C934 N929 1.318 . S
C934 C933 1.396 . S
H935 C930 0.929 . S
O936 Mn912 2.385 1_655 S
O936 C914 1.234 . S
O937 Mn912 2.209 1_655 S
O937 Mn913 2.215 . S
O937 C914 1.283 . S
O938 Mn912 2.094 . S
O938 C916 1.240 . S
O939 Mn913 2.117 . S
O939 C916 1.264 1_655 S
C940 C933 1.403 . S
C940 C941 1.399 . S
C940 H946 0.929 . S
C941 C921 1.449 . S
C941 C940 1.399 . S
C941 H947 0.930 . S
H942 C922 0.931 . S
H943 C923 0.930 . S
H944 C931 0.931 . S
H945 C932 0.929 . S
H946 C940 0.929 . S
H947 C941 0.930 . S
Mn948 O953 2.095 . S
Mn948 O963 2.162 . S
Mn948 O964 2.297 . S
Mn948 O972 2.385 . S
Mn948 O973 2.209 . S
Mn948 O974 2.094 . S
Mn949 O954 2.121 . S
Mn949 N956 2.257 . S
Mn949 N965 2.282 . S
Mn949 O973 2.215 . S
Mn949 O975 2.117 . S
C950 O972 1.234 . S
C950 O973 1.283 . S
C951 O963 1.281 . S
C951 O964 1.236 . S
C952 O974 1.240 . S
C952 O975 1.264 . S
O953 Mn948 2.095 . S
O953 C962 1.250 . S
O954 Mn949 2.121 . S
O954 C962 1.258 . S
C955 N956 1.326 . S
C955 C959 1.460 . S
C955 H961 0.929 . S
N956 Mn949 2.257 . S
N956 C955 1.326 . S
N956 C960 1.362 . S
C957 C958 1.258 . S
C957 C960 1.431 . S
C957 C977 1.449 . S
C958 C957 1.258 . S
C958 C959 1.477 . S
C958 H978 0.931 . S
C959 C955 1.460 . S
C959 C958 1.477 . S
C959 H979 0.930 . S
C960 N956 1.362 . S
C960 C957 1.431 . S
C960 C970 1.476 . S
H961 C955 0.929 . S
C962 O953 1.250 . S
C962 O954 1.258 . S
O963 Mn948 2.162 . S
O963 C951 1.281 . S
O964 Mn948 2.297 . S
O964 C951 1.236 . S
N965 Mn949 2.282 . S
N965 C966 1.328 . S
N965 C970 1.318 . S
C966 N965 1.328 . S
C966 C967 1.457 . S
C966 H971 0.929 . S
C967 C966 1.457 . S
C967 C968 1.291 . S
C967 H980 0.931 . S
C968 C967 1.291 . S
C968 C969 1.373 . S
C968 H981 0.929 . S
C969 C968 1.373 . S
C969 C970 1.396 . S
C969 C976 1.403 . S
C970 C960 1.476 . S
C970 N965 1.318 . S
C970 C969 1.396 . S
H971 C966 0.929 . S
O972 Mn948 2.385 . S
O972 C950 1.234 . S
O973 Mn948 2.209 . S
O973 Mn949 2.215 . S
O973 C950 1.283 . S
O974 Mn948 2.094 . S
O974 C952 1.240 . S
O975 Mn949 2.117 . S
O975 C952 1.264 . S
C976 C969 1.403 . S
C976 C977 1.399 . S
C976 H982 0.929 . S
C977 C957 1.449 . S
C977 C976 1.399 . S
C977 H983 0.930 . S
H978 C958 0.931 . S
H979 C959 0.930 . S
H980 C967 0.931 . S
H981 C968 0.929 . S
H982 C976 0.929 . S
H983 C977 0.930 . S
Mn984 O989 2.095 1_455 S
Mn984 O999 2.162 . S
Mn984 O1000 2.297 1_455 S
Mn984 O1008 2.385 . S
Mn984 O1009 2.209 1_455 S
Mn984 O1010 2.094 . S
Mn985 O990 2.121 . S
Mn985 N992 2.257 . S
Mn985 N1001 2.282 1_655 S
Mn985 O1009 2.215 . S
Mn985 O1011 2.117 1_655 S
C986 O1008 1.234 . S
C986 O1009 1.283 1_455 S
C987 O999 1.281 . S
C987 O1000 1.236 1_455 S
C988 O1010 1.240 . S
C988 O1011 1.264 . S
O989 Mn984 2.095 1_655 S
O989 C998 1.250 . S
O990 Mn985 2.121 . S
O990 C998 1.258 . S
C991 N992 1.326 . S
C991 C995 1.460 . S
C991 H997 0.929 . S
N992 Mn985 2.257 . S
N992 C991 1.326 . S
N992 C996 1.362 . S
C993 C994 1.258 . S
C993 C996 1.431 . S
C993 C1013 1.449 . S
C994 C993 1.258 . S
C994 C995 1.477 . S
C994 H1014 0.931 . S
C995 C991 1.460 . S
C995 C994 1.477 . S
C995 H1015 0.930 . S
C996 N992 1.362 . S
C996 C993 1.431 . S
C996 C1006 1.476 . S
H997 C991 0.929 . S
C998 O989 1.250 . S
C998 O990 1.258 . S
O999 Mn984 2.162 . S
O999 C987 1.281 . S
O1000 Mn984 2.297 1_655 S
O1000 C987 1.236 1_655 S
N1001 Mn985 2.282 1_455 S
N1001 C1002 1.328 . S
N1001 C1006 1.318 1_455 S
C1002 N1001 1.328 . S
C1002 C1003 1.457 . S
C1002 H1007 0.929 . S
C1003 C1002 1.457 . S
C1003 C1004 1.291 . S
C1003 H1016 0.931 . S
C1004 C1003 1.291 . S
C1004 C1005 1.373 1_455 S
C1004 H1017 0.929 . S
C1005 C1004 1.373 1_655 S
C1005 C1006 1.396 . S
C1005 C1012 1.403 . S
C1006 C996 1.476 . S
C1006 N1001 1.318 1_655 S
C1006 C1005 1.396 . S
H1007 C1002 0.929 . S
O1008 Mn984 2.385 . S
O1008 C986 1.234 . S
O1009 Mn984 2.209 1_655 S
O1009 Mn985 2.215 . S
O1009 C986 1.283 1_655 S
O1010 Mn984 2.094 . S
O1010 C988 1.240 . S
O1011 Mn985 2.117 1_455 S
O1011 C988 1.264 . S
C1012 C1005 1.403 . S
C1012 C1013 1.399 . S
C1012 H1018 0.929 . S
C1013 C993 1.449 . S
C1013 C1012 1.399 . S
C1013 H1019 0.930 . S
H1014 C994 0.931 . S
H1015 C995 0.930 . S
H1016 C1003 0.931 . S
H1017 C1004 0.929 . S
H1018 C1012 0.929 . S
H1019 C1013 0.930 . S
Mn1020 O1025 2.095 . S
Mn1020 O1035 2.162 . S
Mn1020 O1036 2.297 . S
Mn1020 O1044 2.385 . S
Mn1020 O1045 2.209 . S
Mn1020 O1046 2.094 . S
Mn1021 O1026 2.121 . S
Mn1021 N1028 2.257 . S
Mn1021 N1037 2.282 . S
Mn1021 O1045 2.215 . S
Mn1021 O1047 2.117 . S
C1022 O1044 1.234 . S
C1022 O1045 1.283 . S
C1023 O1035 1.281 . S
C1023 O1036 1.236 . S
C1024 O1046 1.240 . S
C1024 O1047 1.264 . S
O1025 Mn1020 2.095 . S
O1025 C1034 1.250 . S
O1026 Mn1021 2.121 . S
O1026 C1034 1.258 . S
C1027 N1028 1.326 . S
C1027 C1031 1.460 . S
C1027 H1033 0.929 . S
N1028 Mn1021 2.257 . S
N1028 C1027 1.326 . S
N1028 C1032 1.362 . S
C1029 C1030 1.258 . S
C1029 C1032 1.431 . S
C1029 C1049 1.449 . S
C1030 C1029 1.258 . S
C1030 C1031 1.477 . S
C1030 H1050 0.931 . S
C1031 C1027 1.460 . S
C1031 C1030 1.477 . S
C1031 H1051 0.930 . S
C1032 N1028 1.362 . S
C1032 C1029 1.431 . S
C1032 C1042 1.476 . S
H1033 C1027 0.929 . S
C1034 O1025 1.250 . S
C1034 O1026 1.258 . S
O1035 Mn1020 2.162 . S
O1035 C1023 1.281 . S
O1036 Mn1020 2.297 . S
O1036 C1023 1.236 . S
N1037 Mn1021 2.282 . S
N1037 C1038 1.328 . S
N1037 C1042 1.318 . S
C1038 N1037 1.328 . S
C1038 C1039 1.457 . S
C1038 H1043 0.929 . S
C1039 C1038 1.457 . S
C1039 C1040 1.291 . S
C1039 H1052 0.931 . S
C1040 C1039 1.291 . S
C1040 C1041 1.373 . S
C1040 H1053 0.929 . S
C1041 C1040 1.373 . S
C1041 C1042 1.396 . S
C1041 C1048 1.403 . S
C1042 C1032 1.476 . S
C1042 N1037 1.318 . S
C1042 C1041 1.396 . S
H1043 C1038 0.929 . S
O1044 Mn1020 2.385 . S
O1044 C1022 1.234 . S
O1045 Mn1020 2.209 . S
O1045 Mn1021 2.215 . S
O1045 C1022 1.283 . S
O1046 Mn1020 2.094 . S
O1046 C1024 1.240 . S
O1047 Mn1021 2.117 . S
O1047 C1024 1.264 . S
C1048 C1041 1.403 . S
C1048 C1049 1.399 . S
C1048 H1054 0.929 . S
C1049 C1029 1.449 . S
C1049 C1048 1.399 . S
C1049 H1055 0.930 . S
H1050 C1030 0.931 . S
H1051 C1031 0.930 . S
H1052 C1039 0.931 . S
H1053 C1040 0.929 . S
H1054 C1048 0.929 . S
H1055 C1049 0.930 . S
C1056 C1057 1.387 . S
C1056 H1060 0.950 . S
C1056 C1065 1.390 . S
C1057 C1056 1.387 . S
C1057 C1059 1.387 . S
H1058 C1065 0.950 . S
C1059 C1057 1.387 . S
C1059 C1061 1.390 . S
C1059 H1063 0.950 . S
H1060 C1056 0.950 . S
C1061 C1059 1.390 . S
C1061 C1062 1.387 . S
C1061 H1064 0.950 . S
C1062 C1061 1.387 . S
C1062 C1065 1.387 . S
H1063 C1059 0.950 . S
H1064 C1061 0.950 . S
C1065 C1056 1.390 . S
C1065 H1058 0.950 . S
C1065 C1062 1.387 . S
C1066 C1067 1.387 . S
C1066 H1070 0.950 . S
C1066 C1075 1.390 . S
C1067 C1066 1.387 . S
C1067 C1069 1.387 . S
H1068 C1075 0.950 . S
C1069 C1067 1.387 . S
C1069 C1071 1.390 . S
C1069 H1073 0.950 . S
H1070 C1066 0.950 . S
C1071 C1069 1.390 . S
C1071 C1072 1.387 . S
C1071 H1074 0.950 . S
C1072 C1071 1.387 . S
C1072 C1075 1.387 . S
H1073 C1069 0.950 . S
H1074 C1071 0.950 . S
C1075 C1066 1.390 . S
C1075 H1068 0.950 . S
C1075 C1072 1.387 . S
C1076 C1077 1.387 . S
C1076 H1080 0.950 . S
C1076 C1085 1.390 . S
C1077 C1076 1.387 . S
C1077 C1079 1.387 . S
H1078 C1085 0.950 . S
C1079 C1077 1.387 . S
C1079 C1081 1.390 . S
C1079 H1083 0.950 . S
H1080 C1076 0.950 . S
C1081 C1079 1.390 . S
C1081 C1082 1.387 . S
C1081 H1084 0.950 . S
C1082 C1081 1.387 . S
C1082 C1085 1.387 . S
H1083 C1079 0.950 . S
H1084 C1081 0.950 . S
C1085 C1076 1.390 . S
C1085 H1078 0.950 . S
C1085 C1082 1.387 . S
C1086 C1087 1.387 . S
C1086 H1090 0.950 . S
C1086 C1095 1.390 . S
C1087 C1086 1.387 . S
C1087 C1089 1.387 1_565 S
H1088 C1095 0.950 . S
C1089 C1087 1.387 1_545 S
C1089 C1091 1.390 . S
C1089 H1093 0.950 . S
H1090 C1086 0.950 . S
C1091 C1089 1.390 . S
C1091 C1092 1.385 . S
C1091 H1094 0.950 . S
C1092 C1091 1.385 . S
C1092 C1095 1.391 1_545 S
H1093 C1089 0.950 . S
H1094 C1091 0.950 . S
C1095 C1086 1.390 . S
C1095 H1088 0.950 . S
C1095 C1092 1.391 1_565 S
C1096 C1097 1.387 . S
C1096 H1100 0.950 . S
C1096 C1105 1.390 . S
C1097 C1096 1.387 . S
C1097 C1099 1.387 . S
H1098 C1105 0.950 . S
C1099 C1097 1.387 . S
C1099 C1101 1.390 . S
C1099 H1103 0.950 . S
H1100 C1096 0.950 . S
C1101 C1099 1.390 . S
C1101 C1102 1.387 . S
C1101 H1104 0.950 . S
C1102 C1101 1.387 . S
C1102 C1105 1.387 . S
H1103 C1099 0.950 . S
H1104 C1101 0.950 . S
C1105 C1096 1.390 . S
C1105 H1098 0.950 . S
C1105 C1102 1.387 . S
C1106 C1107 1.387 . S
C1106 H1110 0.950 . S
C1106 C1115 1.390 . S
C1107 C1106 1.387 . S
C1107 C1109 1.387 . S
H1108 C1115 0.950 . S
C1109 C1107 1.387 . S
C1109 C1111 1.390 . S
C1109 H1113 0.950 . S
H1110 C1106 0.950 . S
C1111 C1109 1.390 . S
C1111 C1112 1.387 . S
C1111 H1114 0.950 . S
C1112 C1111 1.387 . S
C1112 C1115 1.387 . S
H1113 C1109 0.950 . S
H1114 C1111 0.950 . S
C1115 C1106 1.390 . S
C1115 H1108 0.950 . S
C1115 C1112 1.387 . S
C1116 C1117 1.387 . S
C1116 H1120 0.950 . S
C1116 C1125 1.390 . S
C1117 C1116 1.387 . S
C1117 C1119 1.387 . S
H1118 C1125 0.950 . S
C1119 C1117 1.387 . S
C1119 C1121 1.390 . S
C1119 H1123 0.950 . S
H1120 C1116 0.950 . S
C1121 C1119 1.390 . S
C1121 C1122 1.387 . S
C1121 H1124 0.950 . S
C1122 C1121 1.387 . S
C1122 C1125 1.387 . S
H1123 C1119 0.950 . S
H1124 C1121 0.950 . S
C1125 C1116 1.390 . S
C1125 H1118 0.950 . S
C1125 C1122 1.387 . S
C1126 C1127 1.387 1_545 S
C1126 H1130 0.950 . S
C1126 C1135 1.390 . S
C1127 C1126 1.387 1_565 S
C1127 C1129 1.387 . S
H1128 C1135 0.950 . S
C1129 C1127 1.387 . S
C1129 C1131 1.390 . S
C1129 H1133 0.950 . S
H1130 C1126 0.950 . S
C1131 C1129 1.390 . S
C1131 C1132 1.387 . S
C1131 H1134 0.950 . S
C1132 C1131 1.387 . S
C1132 C1135 1.387 1_565 S
H1133 C1129 0.950 . S
H1134 C1131 0.950 . S
C1135 C1126 1.390 . S
C1135 H1128 0.950 . S
C1135 C1132 1.387 1_545 S
C1136 C1137 1.387 . S
C1136 H1140 0.950 . S
C1136 C1145 1.390 . S
C1137 C1136 1.387 . S
C1137 C1139 1.387 . S
H1138 C1145 0.950 . S
C1139 C1137 1.387 . S
C1139 C1141 1.390 . S
C1139 H1143 0.950 . S
H1140 C1136 0.950 . S
C1141 C1139 1.390 . S
C1141 C1142 1.387 . S
C1141 H1144 0.950 . S
C1142 C1141 1.387 . S
C1142 C1145 1.387 . S
H1143 C1139 0.950 . S
H1144 C1141 0.950 . S
C1145 C1136 1.390 . S
C1145 H1138 0.950 . S
C1145 C1142 1.387 . S
C1146 C1147 1.387 . S
C1146 H1150 0.950 . S
C1146 C1155 1.390 . S
C1147 C1146 1.387 . S
C1147 C1149 1.387 . S
H1148 C1155 0.950 . S
C1149 C1147 1.387 . S
C1149 C1151 1.390 . S
C1149 H1153 0.950 . S
H1150 C1146 0.950 . S
C1151 C1149 1.390 . S
C1151 C1152 1.387 . S
C1151 H1154 0.950 . S
C1152 C1151 1.387 . S
C1152 C1155 1.387 . S
H1153 C1149 0.950 . S
H1154 C1151 0.950 . S
C1155 C1146 1.390 . S
C1155 H1148 0.950 . S
C1155 C1152 1.387 . S
C1156 C1157 1.387 . S
C1156 H1160 0.950 . S
C1156 C1165 1.390 . S
C1157 C1156 1.387 . S
C1157 C1159 1.387 . S
H1158 C1165 0.950 . S
C1159 C1157 1.387 . S
C1159 C1161 1.390 . S
C1159 H1163 0.950 . S
H1160 C1156 0.950 . S
C1161 C1159 1.390 . S
C1161 C1162 1.387 . S
C1161 H1164 0.950 . S
C1162 C1161 1.387 . S
C1162 C1165 1.387 . S
H1163 C1159 0.950 . S
H1164 C1161 0.950 . S
C1165 C1156 1.390 . S
C1165 H1158 0.950 . S
C1165 C1162 1.387 . S
C1166 C1167 1.387 . S
C1166 H1170 0.950 . S
C1166 C1175 1.390 . S
C1167 C1166 1.387 . S
C1167 C1169 1.387 . S
H1168 C1175 0.950 . S
C1169 C1167 1.387 . S
C1169 C1171 1.390 . S
C1169 H1173 0.950 . S
H1170 C1166 0.950 . S
C1171 C1169 1.390 . S
C1171 C1172 1.387 . S
C1171 H1174 0.950 . S
C1172 C1171 1.387 . S
C1172 C1175 1.387 . S
H1173 C1169 0.950 . S
H1174 C1171 0.950 . S
C1175 C1166 1.390 . S
C1175 H1168 0.950 . S
C1175 C1172 1.387 . S
C1176 C1177 1.387 . S
C1176 H1180 0.950 . S
C1176 C1185 1.390 . S
C1177 C1176 1.387 . S
C1177 C1179 1.387 . S
H1178 C1185 0.950 . S
C1179 C1177 1.387 . S
C1179 C1181 1.390 . S
C1179 H1183 0.950 . S
H1180 C1176 0.950 . S
C1181 C1179 1.390 . S
C1181 C1182 1.387 . S
C1181 H1184 0.950 . S
C1182 C1181 1.387 . S
C1182 C1185 1.387 . S
H1183 C1179 0.950 . S
H1184 C1181 0.950 . S
C1185 C1176 1.390 . S
C1185 H1178 0.950 . S
C1185 C1182 1.387 . S
C1186 C1187 1.387 . S
C1186 H1190 0.950 . S
C1186 C1195 1.390 . S
C1187 C1186 1.387 . S
C1187 C1189 1.387 1_455 S
H1188 C1195 0.950 . S
C1189 C1187 1.387 1_655 S
C1189 C1191 1.390 . S
C1189 H1193 0.950 . S
H1190 C1186 0.950 . S
C1191 C1189 1.390 . S
C1191 C1192 1.387 1_655 S
C1191 H1194 0.950 . S
C1192 C1191 1.387 1_455 S
C1192 C1195 1.387 . S
H1193 C1189 0.950 . S
H1194 C1191 0.950 . S
C1195 C1186 1.390 . S
C1195 H1188 0.950 . S
C1195 C1192 1.387 . S
C1196 C1197 1.387 . S
C1196 H1200 0.950 . S
C1196 C1205 1.390 . S
C1197 C1196 1.387 . S
C1197 C1199 1.387 . S
H1198 C1205 0.950 . S
C1199 C1197 1.387 . S
C1199 C1201 1.390 . S
C1199 H1203 0.950 . S
H1200 C1196 0.950 . S
C1201 C1199 1.390 . S
C1201 C1202 1.387 . S
C1201 H1204 0.950 . S
C1202 C1201 1.387 . S
C1202 C1205 1.387 . S
H1203 C1199 0.950 . S
H1204 C1201 0.950 . S
C1205 C1196 1.390 . S
C1205 H1198 0.950 . S
C1205 C1202 1.387 . S
C1206 C1207 1.387 . S
C1206 H1210 0.950 . S
C1206 C1215 1.390 . S
C1207 C1206 1.387 . S
C1207 C1209 1.387 1_655 S
H1208 C1215 0.950 . S
C1209 C1207 1.387 1_455 S
C1209 C1211 1.390 . S
C1209 H1213 0.950 . S
H1210 C1206 0.950 . S
C1211 C1209 1.390 . S
C1211 C1212 1.387 1_455 S
C1211 H1214 0.950 . S
C1212 C1211 1.387 1_655 S
C1212 C1215 1.387 . S
H1213 C1209 0.950 . S
H1214 C1211 0.950 . S
C1215 C1206 1.390 . S
C1215 H1208 0.950 . S
C1215 C1212 1.387 . S
C1216 C1217 1.387 . S
C1216 H1220 0.950 . S
C1216 C1225 1.390 . S
C1217 C1216 1.387 . S
C1217 C1219 1.387 . S
H1218 C1225 0.950 . S
C1219 C1217 1.387 . S
C1219 C1221 1.390 . S
C1219 H1223 0.950 . S
H1220 C1216 0.950 . S
C1221 C1219 1.390 . S
C1221 C1222 1.387 . S
C1221 H1224 0.950 . S
C1222 C1221 1.387 . S
C1222 C1225 1.387 . S
H1223 C1219 0.950 . S
H1224 C1221 0.950 . S
C1225 C1216 1.390 . S
C1225 H1218 0.950 . S
C1225 C1222 1.387 . S
C1226 C1227 1.387 . S
C1226 H1230 0.950 . S
C1226 C1235 1.390 . S
C1227 C1226 1.387 . S
C1227 C1229 1.387 . S
H1228 C1235 0.950 . S
C1229 C1227 1.387 . S
C1229 C1231 1.390 . S
C1229 H1233 0.950 . S
H1230 C1226 0.950 . S
C1231 C1229 1.390 . S
C1231 C1232 1.387 . S
C1231 H1234 0.950 . S
C1232 C1231 1.387 . S
C1232 C1235 1.387 . S
H1233 C1229 0.950 . S
H1234 C1231 0.950 . S
C1235 C1226 1.390 . S
C1235 H1228 0.950 . S
C1235 C1232 1.387 . S
C1236 C1237 1.387 . S
C1236 H1240 0.950 . S
C1236 C1245 1.390 . S
C1237 C1236 1.387 . S
C1237 C1239 1.387 1_556 S
H1238 C1245 0.950 . S
C1239 C1237 1.387 1_554 S
C1239 C1241 1.390 . S
C1239 H1243 0.950 . S
H1240 C1236 0.950 . S
C1241 C1239 1.390 . S
C1241 C1242 1.387 . S
C1241 H1244 0.950 . S
C1242 C1241 1.387 . S
C1242 C1245 1.387 1_554 S
H1243 C1239 0.950 . S
H1244 C1241 0.950 . S
C1245 C1236 1.390 . S
C1245 H1238 0.950 . S
C1245 C1242 1.387 1_556 S
C1246 C1247 1.387 . S
C1246 H1250 0.950 . S
C1246 C1255 1.390 . S
C1247 C1246 1.387 . S
C1247 C1249 1.387 . S
H1248 C1255 0.950 . S
C1249 C1247 1.387 . S
C1249 C1251 1.390 . S
C1249 H1253 0.950 . S
H1250 C1246 0.950 . S
C1251 C1249 1.390 . S
C1251 C1252 1.387 . S
C1251 H1254 0.950 . S
C1252 C1251 1.387 . S
C1252 C1255 1.387 . S
H1253 C1249 0.950 . S
H1254 C1251 0.950 . S
C1255 C1246 1.390 . S
C1255 H1248 0.950 . S
C1255 C1252 1.387 . S
C1256 C1257 1.387 . S
C1256 H1260 0.950 . S
C1256 C1265 1.390 . S
C1257 C1256 1.387 . S
C1257 C1259 1.387 . S
H1258 C1265 0.950 . S
C1259 C1257 1.387 . S
C1259 C1261 1.390 . S
C1259 H1263 0.950 . S
H1260 C1256 0.950 . S
C1261 C1259 1.390 . S
C1261 C1262 1.387 . S
C1261 H1264 0.950 . S
C1262 C1261 1.387 . S
C1262 C1265 1.387 . S
H1263 C1259 0.950 . S
H1264 C1261 0.950 . S
C1265 C1256 1.390 . S
C1265 H1258 0.950 . S
C1265 C1262 1.387 . S
C1266 C1267 1.387 . S
C1266 H1270 0.950 . S
C1266 C1275 1.390 . S
C1267 C1266 1.387 . S
C1267 C1269 1.387 . S
H1268 C1275 0.950 . S
C1269 C1267 1.387 . S
C1269 C1271 1.390 . S
C1269 H1273 0.950 . S
H1270 C1266 0.950 . S
C1271 C1269 1.390 . S
C1271 C1272 1.387 . S
C1271 H1274 0.950 . S
C1272 C1271 1.387 . S
C1272 C1275 1.387 . S
H1273 C1269 0.950 . S
H1274 C1271 0.950 . S
C1275 C1266 1.390 . S
C1275 H1268 0.950 . S
C1275 C1272 1.387 . S
C1276 C1277 1.387 . S
C1276 H1280 0.950 . S
C1276 C1285 1.390 . S
C1277 C1276 1.387 . S
C1277 C1279 1.387 . S
H1278 C1285 0.950 . S
C1279 C1277 1.387 . S
C1279 C1281 1.390 . S
C1279 H1283 0.950 . S
H1280 C1276 0.950 . S
C1281 C1279 1.390 . S
C1281 C1282 1.387 . S
C1281 H1284 0.950 . S
C1282 C1281 1.387 . S
C1282 C1285 1.387 . S
H1283 C1279 0.950 . S
H1284 C1281 0.950 . S
C1285 C1276 1.390 . S
C1285 H1278 0.950 . S
C1285 C1282 1.387 . S
C1286 C1287 1.387 . S
C1286 H1290 0.950 . S
C1286 C1295 1.390 . S
C1287 C1286 1.387 . S
C1287 C1289 1.387 . S
H1288 C1295 0.950 . S
C1289 C1287 1.387 . S
C1289 C1291 1.390 . S
C1289 H1293 0.950 . S
H1290 C1286 0.950 . S
C1291 C1289 1.390 . S
C1291 C1292 1.387 . S
C1291 H1294 0.950 . S
C1292 C1291 1.387 . S
C1292 C1295 1.387 . S
H1293 C1289 0.950 . S
H1294 C1291 0.950 . S
C1295 C1286 1.390 . S
C1295 H1288 0.950 . S
C1295 C1292 1.387 . S
C1296 C1297 1.387 . S
C1296 H1300 0.950 . S
C1296 C1305 1.390 . S
C1297 C1296 1.387 . S
C1297 C1299 1.387 . S
H1298 C1305 0.950 . S
C1299 C1297 1.387 . S
C1299 C1301 1.390 . S
C1299 H1303 0.950 . S
H1300 C1296 0.950 . S
C1301 C1299 1.390 . S
C1301 C1302 1.387 . S
C1301 H1304 0.950 . S
C1302 C1301 1.387 . S
C1302 C1305 1.387 . S
H1303 C1299 0.950 . S
H1304 C1301 0.950 . S
C1305 C1296 1.390 . S
C1305 H1298 0.950 . S
C1305 C1302 1.387 . S
C1306 C1307 1.387 . S
C1306 H1310 0.950 . S
C1306 C1315 1.390 . S
C1307 C1306 1.387 . S
C1307 C1309 1.387 1_545 S
H1308 C1315 0.950 . S
C1309 C1307 1.387 1_565 S
C1309 C1311 1.390 . S
C1309 H1313 0.950 . S
H1310 C1306 0.950 . S
C1311 C1309 1.390 . S
C1311 C1312 1.387 1_565 S
C1311 H1314 0.950 . S
C1312 C1311 1.387 1_545 S
C1312 C1315 1.387 . S
H1313 C1309 0.950 . S
H1314 C1311 0.950 . S
C1315 C1306 1.390 . S
C1315 H1308 0.950 . S
C1315 C1312 1.387 . S
C1316 C1317 1.387 . S
C1316 H1320 0.950 . S
C1316 C1325 1.390 . S
C1317 C1316 1.387 . S
C1317 C1319 1.387 . S
H1318 C1325 0.950 . S
C1319 C1317 1.387 . S
C1319 C1321 1.390 . S
C1319 H1323 0.950 . S
H1320 C1316 0.950 . S
C1321 C1319 1.390 . S
C1321 C1322 1.387 . S
C1321 H1324 0.950 . S
C1322 C1321 1.387 . S
C1322 C1325 1.387 . S
H1323 C1319 0.950 . S
H1324 C1321 0.950 . S
C1325 C1316 1.390 . S
C1325 H1318 0.950 . S
C1325 C1322 1.387 . S
C1326 C1327 1.387 . S
C1326 H1330 0.950 . S
C1326 C1335 1.390 . S
C1327 C1326 1.387 . S
C1327 C1329 1.387 . S
H1328 C1335 0.950 . S
C1329 C1327 1.387 . S
C1329 C1331 1.390 . S
C1329 H1333 0.950 . S
H1330 C1326 0.950 . S
C1331 C1329 1.390 . S
C1331 C1332 1.387 . S
C1331 H1334 0.950 . S
C1332 C1331 1.387 . S
C1332 C1335 1.387 . S
H1333 C1329 0.950 . S
H1334 C1331 0.950 . S
C1335 C1326 1.390 . S
C1335 H1328 0.950 . S
C1335 C1332 1.387 . S
C1336 C1337 1.387 . S
C1336 H1340 0.950 . S
C1336 C1345 1.390 . S
C1337 C1336 1.387 . S
C1337 C1339 1.387 . S
H1338 C1345 0.950 . S
C1339 C1337 1.387 . S
C1339 C1341 1.390 . S
C1339 H1343 0.950 . S
H1340 C1336 0.950 . S
C1341 C1339 1.390 . S
C1341 C1342 1.387 . S
C1341 H1344 0.950 . S
C1342 C1341 1.387 . S
C1342 C1345 1.387 . S
H1343 C1339 0.950 . S
H1344 C1341 0.950 . S
C1345 C1336 1.390 . S
C1345 H1338 0.950 . S
C1345 C1342 1.387 . S
C1346 C1347 1.387 . S
C1346 H1350 0.950 . S
C1346 C1355 1.390 . S
C1347 C1346 1.387 . S
C1347 C1349 1.387 1_545 S
H1348 C1355 0.950 . S
C1349 C1347 1.387 1_565 S
C1349 C1351 1.390 . S
C1349 H1353 0.950 . S
H1350 C1346 0.950 . S
C1351 C1349 1.390 . S
C1351 C1352 1.387 1_565 S
C1351 H1354 0.950 . S
C1352 C1351 1.387 1_545 S
C1352 C1355 1.387 . S
H1353 C1349 0.950 . S
H1354 C1351 0.950 . S
C1355 C1346 1.390 . S
C1355 H1348 0.950 . S
C1355 C1352 1.387 . S
C1356 C1357 1.387 . S
C1356 H1360 0.950 . S
C1356 C1365 1.390 . S
C1357 C1356 1.387 . S
C1357 C1359 1.387 . S
H1358 C1365 0.950 . S
C1359 C1357 1.387 . S
C1359 C1361 1.390 . S
C1359 H1363 0.950 . S
H1360 C1356 0.950 . S
C1361 C1359 1.390 . S
C1361 C1362 1.387 . S
C1361 H1364 0.950 . S
C1362 C1361 1.387 . S
C1362 C1365 1.387 . S
H1363 C1359 0.950 . S
H1364 C1361 0.950 . S
C1365 C1356 1.390 . S
C1365 H1358 0.950 . S
C1365 C1362 1.387 . S
C1366 C1367 1.387 . S
C1366 H1370 0.950 . S
C1366 C1375 1.390 . S
C1367 C1366 1.387 . S
C1367 C1369 1.387 . S
H1368 C1375 0.950 . S
C1369 C1367 1.387 . S
C1369 C1371 1.390 . S
C1369 H1373 0.950 . S
H1370 C1366 0.950 . S
C1371 C1369 1.390 . S
C1371 C1372 1.387 . S
C1371 H1374 0.950 . S
C1372 C1371 1.387 . S
C1372 C1375 1.387 . S
H1373 C1369 0.950 . S
H1374 C1371 0.950 . S
C1375 C1366 1.390 . S
C1375 H1368 0.950 . S
C1375 C1372 1.387 . S
C1376 C1377 1.387 . S
C1376 H1380 0.950 . S
C1376 C1385 1.390 . S
C1377 C1376 1.387 . S
C1377 C1379 1.387 . S
H1378 C1385 0.950 . S
C1379 C1377 1.387 . S
C1379 C1381 1.390 . S
C1379 H1383 0.950 . S
H1380 C1376 0.950 . S
C1381 C1379 1.390 . S
C1381 C1382 1.387 . S
C1381 H1384 0.950 . S
C1382 C1381 1.387 . S
C1382 C1385 1.387 . S
H1383 C1379 0.950 . S
H1384 C1381 0.950 . S
C1385 C1376 1.390 . S
C1385 H1378 0.950 . S
C1385 C1382 1.387 . S
C1386 C1387 1.387 . S
C1386 H1390 0.950 . S
C1386 C1395 1.390 . S
C1387 C1386 1.387 . S
C1387 C1389 1.387 1_655 S
H1388 C1395 0.950 . S
C1389 C1387 1.387 1_455 S
C1389 C1391 1.390 . S
C1389 H1393 0.950 . S
H1390 C1386 0.950 . S
C1391 C1389 1.390 . S
C1391 C1392 1.387 1_455 S
C1391 H1394 0.950 . S
C1392 C1391 1.387 1_655 S
C1392 C1395 1.387 . S
H1393 C1389 0.950 . S
H1394 C1391 0.950 . S
C1395 C1386 1.390 . S
C1395 H1388 0.950 . S
C1395 C1392 1.387 . S
C1396 C1397 1.387 . S
C1396 H1400 0.950 . S
C1396 C1405 1.390 . S
C1397 C1396 1.387 . S
C1397 C1399 1.387 . S
H1398 C1405 0.950 . S
C1399 C1397 1.387 . S
C1399 C1401 1.390 . S
C1399 H1403 0.950 . S
H1400 C1396 0.950 . S
C1401 C1399 1.390 . S
C1401 C1402 1.387 . S
C1401 H1404 0.950 . S
C1402 C1401 1.387 . S
C1402 C1405 1.387 . S
H1403 C1399 0.950 . S
H1404 C1401 0.950 . S
C1405 C1396 1.390 . S
C1405 H1398 0.950 . S
C1405 C1402 1.387 . S
C1406 C1407 1.387 1_655 S
C1406 H1410 0.950 . S
C1406 C1415 1.390 . S
C1407 C1406 1.387 1_455 S
C1407 C1409 1.387 . S
H1408 C1415 0.950 . S
C1409 C1407 1.387 . S
C1409 C1411 1.390 . S
C1409 H1413 0.950 . S
H1410 C1406 0.950 . S
C1411 C1409 1.390 . S
C1411 C1412 1.387 . S
C1411 H1414 0.950 . S
C1412 C1411 1.387 . S
C1412 C1415 1.387 1_455 S
H1413 C1409 0.950 . S
H1414 C1411 0.950 . S
C1415 C1406 1.390 . S
C1415 H1408 0.950 . S
C1415 C1412 1.387 1_655 S
C1416 C1417 1.387 . S
C1416 H1420 0.950 . S
C1416 C1425 1.390 . S
C1417 C1416 1.387 . S
C1417 C1419 1.387 . S
H1418 C1425 0.950 . S
C1419 C1417 1.387 . S
C1419 C1421 1.390 . S
C1419 H1423 0.950 . S
H1420 C1416 0.950 . S
C1421 C1419 1.390 . S
C1421 C1422 1.387 . S
C1421 H1424 0.950 . S
C1422 C1421 1.387 . S
C1422 C1425 1.387 . S
H1423 C1419 0.950 . S
H1424 C1421 0.950 . S
C1425 C1416 1.390 . S
C1425 H1418 0.950 . S
C1425 C1422 1.387 . S
C1426 C1427 1.387 . S
C1426 H1430 0.950 . S
C1426 C1435 1.390 . S
C1427 C1426 1.387 . S
C1427 C1429 1.387 . S
H1428 C1435 0.950 . S
C1429 C1427 1.387 . S
C1429 C1431 1.390 . S
C1429 H1433 0.950 . S
H1430 C1426 0.950 . S
C1431 C1429 1.390 . S
C1431 C1432 1.387 . S
C1431 H1434 0.950 . S
C1432 C1431 1.387 . S
C1432 C1435 1.387 . S
H1433 C1429 0.950 . S
H1434 C1431 0.950 . S
C1435 C1426 1.390 . S
C1435 H1428 0.950 . S
C1435 C1432 1.387 . S
C1436 C1437 1.387 . S
C1436 H1440 0.950 . S
C1436 C1445 1.390 . S
C1437 C1436 1.387 . S
C1437 C1439 1.387 . S
H1438 C1445 0.950 . S
C1439 C1437 1.387 . S
C1439 C1441 1.390 . S
C1439 H1443 0.950 . S
H1440 C1436 0.950 . S
C1441 C1439 1.390 . S
C1441 C1442 1.387 . S
C1441 H1444 0.950 . S
C1442 C1441 1.387 . S
C1442 C1445 1.387 . S
H1443 C1439 0.950 . S
H1444 C1441 0.950 . S
C1445 C1436 1.390 . S
C1445 H1438 0.950 . S
C1445 C1442 1.387 . S
C1446 C1447 1.387 . S
C1446 H1450 0.950 . S
C1446 C1455 1.390 . S
C1447 C1446 1.387 . S
C1447 C1449 1.387 . S
H1448 C1455 0.950 . S
C1449 C1447 1.387 . S
C1449 C1451 1.390 . S
C1449 H1453 0.950 . S
H1450 C1446 0.950 . S
C1451 C1449 1.390 . S
C1451 C1452 1.387 . S
C1451 H1454 0.950 . S
C1452 C1451 1.387 . S
C1452 C1455 1.387 . S
H1453 C1449 0.950 . S
H1454 C1451 0.950 . S
C1455 C1446 1.390 . S
C1455 H1448 0.950 . S
C1455 C1452 1.387 . S
C1456 C1457 1.387 . S
C1456 H1460 0.950 . S
C1456 C1465 1.390 . S
C1457 C1456 1.387 . S
C1457 C1459 1.387 . S
H1458 C1465 0.950 . S
C1459 C1457 1.387 . S
C1459 C1461 1.390 . S
C1459 H1463 0.950 . S
H1460 C1456 0.950 . S
C1461 C1459 1.390 . S
C1461 C1462 1.387 . S
C1461 H1464 0.950 . S
C1462 C1461 1.387 . S
C1462 C1465 1.387 . S
H1463 C1459 0.950 . S
H1464 C1461 0.950 . S
C1465 C1456 1.390 . S
C1465 H1458 0.950 . S
C1465 C1462 1.387 . S
C1466 C1467 1.387 . S
C1466 H1470 0.950 . S
C1466 C1475 1.390 . S
C1467 C1466 1.387 . S
C1467 C1469 1.387 . S
H1468 C1475 0.950 . S
C1469 C1467 1.387 . S
C1469 C1471 1.390 . S
C1469 H1473 0.950 . S
H1470 C1466 0.950 . S
C1471 C1469 1.390 . S
C1471 C1472 1.387 . S
C1471 H1474 0.950 . S
C1472 C1471 1.387 . S
C1472 C1475 1.387 . S
H1473 C1469 0.950 . S
H1474 C1471 0.950 . S
C1475 C1466 1.390 . S
C1475 H1468 0.950 . S
C1475 C1472 1.387 . S
C1476 C1477 1.387 . S
C1476 H1480 0.950 . S
C1476 C1485 1.390 . S
C1477 C1476 1.387 . S
C1477 C1479 1.387 . S
H1478 C1485 0.950 . S
C1479 C1477 1.387 . S
C1479 C1481 1.390 . S
C1479 H1483 0.950 . S
H1480 C1476 0.950 . S
C1481 C1479 1.390 . S
C1481 C1482 1.387 . S
C1481 H1484 0.950 . S
C1482 C1481 1.387 . S
C1482 C1485 1.387 . S
H1483 C1479 0.950 . S
H1484 C1481 0.950 . S
C1485 C1476 1.390 . S
C1485 H1478 0.950 . S
C1485 C1482 1.387 . S
C1486 C1487 1.387 . S
C1486 H1490 0.950 . S
C1486 C1495 1.390 . S
C1487 C1486 1.387 . S
C1487 C1489 1.387 . S
H1488 C1495 0.950 . S
C1489 C1487 1.387 . S
C1489 C1491 1.390 . S
C1489 H1493 0.950 . S
H1490 C1486 0.950 . S
C1491 C1489 1.390 . S
C1491 C1492 1.387 . S
C1491 H1494 0.950 . S
C1492 C1491 1.387 . S
C1492 C1495 1.387 . S
H1493 C1489 0.950 . S
H1494 C1491 0.950 . S
C1495 C1486 1.390 . S
C1495 H1488 0.950 . S
C1495 C1492 1.387 . S
C1496 C1497 1.387 1_554 S
C1496 H1500 0.950 . S
C1496 C1505 1.390 . S
C1497 C1496 1.387 1_556 S
C1497 C1499 1.387 . S
H1498 C1505 0.950 . S
C1499 C1497 1.387 . S
C1499 C1501 1.390 . S
C1499 H1503 0.950 . S
H1500 C1496 0.950 . S
C1501 C1499 1.390 . S
C1501 C1502 1.387 . S
C1501 H1504 0.950 . S
C1502 C1501 1.387 . S
C1502 C1505 1.387 1_556 S
H1503 C1499 0.950 . S
H1504 C1501 0.950 . S
C1505 C1496 1.390 . S
C1505 H1498 0.950 . S
C1505 C1502 1.387 1_554 S
C1506 C1507 1.387 . S
C1506 H1510 0.950 . S
C1506 C1515 1.390 . S
C1507 C1506 1.387 . S
C1507 C1509 1.387 . S
H1508 C1515 0.950 . S
C1509 C1507 1.387 . S
C1509 C1511 1.390 . S
C1509 H1513 0.950 . S
H1510 C1506 0.950 . S
C1511 C1509 1.390 . S
C1511 C1512 1.387 . S
C1511 H1514 0.950 . S
C1512 C1511 1.387 . S
C1512 C1515 1.387 . S
H1513 C1509 0.950 . S
H1514 C1511 0.950 . S
C1515 C1506 1.390 . S
C1515 H1508 0.950 . S
C1515 C1512 1.387 . S
C1516 C1517 1.387 . S
C1516 H1520 0.950 . S
C1516 C1525 1.390 . S
C1517 C1516 1.387 . S
C1517 C1519 1.387 1_554 S
H1518 C1525 0.950 . S
C1519 C1517 1.387 1_556 S
C1519 C1521 1.390 . S
C1519 H1523 0.950 . S
H1520 C1516 0.950 . S
C1521 C1519 1.390 . S
C1521 C1522 1.387 1_556 S
C1521 H1524 0.950 . S
C1522 C1521 1.387 1_554 S
C1522 C1525 1.387 . S
H1523 C1519 0.950 . S
H1524 C1521 0.950 . S
C1525 C1516 1.390 . S
C1525 H1518 0.950 . S
C1525 C1522 1.387 . S
C1526 C1527 1.387 1_556 S
C1526 H1530 0.950 . S
C1526 C1535 1.390 . S
C1527 C1526 1.387 1_554 S
C1527 C1529 1.387 . S
H1528 C1535 0.950 . S
C1529 C1527 1.387 . S
C1529 C1531 1.390 . S
C1529 H1533 0.950 . S
H1530 C1526 0.950 . S
C1531 C1529 1.390 . S
C1531 C1532 1.387 . S
C1531 H1534 0.950 . S
C1532 C1531 1.387 . S
C1532 C1535 1.387 1_554 S
H1533 C1529 0.950 . S
H1534 C1531 0.950 . S
C1535 C1526 1.390 . S
C1535 H1528 0.950 . S
C1535 C1532 1.387 1_556 S
C1062 C626 1.476 . S
C1057 C211 1.486 . S
C1072 C674 1.601 . S
C1067 C255 1.643 . S
C1077 C274 1.466 . S
C1082 C710 1.407 . S
C1092 C746 1.560 1_545 S
C1087 C157 1.606 . S
C1102 C772 1.516 . S
C1097 C391 1.516 . S
C1112 C808 1.568 . S
C1107 C484 1.570 . S
C1117 C450 1.516 . S
C1122 C843 1.538 . S
C1132 C880 1.587 1_565 S
C1127 C352 1.593 . S
C1137 C430 1.478 . S
C1142 C914 1.469 . S
C1152 C962 1.551 . S
C1147 C367 1.593 . S
C1157 C411 1.504 . S
C1162 C915 1.524 . S
C1172 C952 1.594 . S
C1167 C469 1.597 . S
C1177 C294 1.501 . S
C1182 C998 1.438 . S
C1187 C177 1.606 . S
C1192 C987 1.599 . S
C1197 C196 1.526 . S
C1202 C988 1.523 . S
C1207 C235 1.625 . S
C1212 C986 1.619 1_655 S
C1217 C133 1.508 . S
C1222 C734 1.496 . S
C1227 C567 1.482 . S
C1232 C735 1.497 . S
C1242 C638 1.579 . S
C1237 C601 1.623 . S
C1252 C663 1.504 . S
C1247 C328 1.492 . S
C1257 C172 1.607 . S
C1262 C770 1.604 . S
C1272 C878 1.507 . S
C1267 C445 1.519 . S
C1282 C771 1.583 . S
C1277 C372 1.588 . S
C1292 C844 1.588 . S
C1287 C489 1.594 . S
C1302 C842 1.477 . S
C1297 C562 1.486 . S
C1307 C606 1.643 . S
C1312 C890 1.601 . S
C1317 C313 1.467 . S
C1322 C782 1.407 . S
C1332 C818 1.558 . S
C1327 C508 1.606 . S
C1337 C118 1.517 . S
C1342 C700 1.516 . S
C1352 C736 1.568 . S
C1347 C16 1.570 . S
C1362 C627 1.539 . S
C1357 C60 1.517 . S
C1372 C664 1.591 . S
C1367 C79 1.593 . S
C1377 C40 1.476 . S
C1382 C950 1.467 . S
C1387 C94 1.593 . S
C1392 C926 1.550 . S
C1397 C138 1.506 . S
C1402 C951 1.525 . S
C1407 C1 1.598 . S
C1412 C916 1.595 . S
C1422 C1034 1.439 . S
C1417 C333 1.501 . S
C1432 C1023 1.599 . S
C1427 C528 1.606 . S
C1442 C1024 1.525 . S
C1437 C547 1.528 . S
C1447 C586 1.625 . S
C1452 C1022 1.619 . S
C1457 C406 1.507 . S
C1462 C806 1.495 . S
C1472 C807 1.496 . S
C1467 C216 1.481 . S
C1482 C854 1.578 . S
C1477 C250 1.623 . S
C1492 C879 1.503 . S
C1487 C289 1.495 . S
C1497 C523 1.607 . S
C1502 C698 1.609 . S
C1512 C662 1.508 . S
C1507 C55 1.523 . S
C1517 C99 1.588 . S
C1522 C699 1.583 . S
C1532 C628 1.588 . S
C1527 C21 1.595 . S
