# Generated by pormake.
# Topology rtl, (3,6)-cn, num edge types: 1
# Building blocks:
#     Node 0, Type 0, BuildingBlock: CUQRIR_clean_linker_1, # of connection points: 3
#     Node 1, Type 0, BuildingBlock: CUQRIR_clean_linker_1, # of connection points: 3
#     Node 2, Type 0, BuildingBlock: CUQRIR_clean_linker_1, # of connection points: 3
#     Node 3, Type 0, BuildingBlock: CUQRIR_clean_linker_1, # of connection points: 3
#     Node 4, Type 1, BuildingBlock: KUMJIN_clean_sbu_1, # of connection points: 6
#     Node 5, Type 1, BuildingBlock: KUMJIN_clean_sbu_1, # of connection points: 6
#     Edge 6, Type (0, 1), BuildingBlock: AJUNOK_clean_linker_0, # of connection points: 2
#     Edge 7, Type (0, 1), BuildingBlock: AJUNOK_clean_linker_0, # of connection points: 2
#     Edge 8, Type (0, 1), BuildingBlock: AJUNOK_clean_linker_0, # of connection points: 2
#     Edge 9, Type (0, 1), BuildingBlock: AJUNOK_clean_linker_0, # of connection points: 2
#     Edge 10, Type (0, 1), BuildingBlock: AJUNOK_clean_linker_0, # of connection points: 2
#     Edge 11, Type (0, 1), BuildingBlock: AJUNOK_clean_linker_0, # of connection points: 2
#     Edge 12, Type (0, 1), BuildingBlock: AJUNOK_clean_linker_0, # of connection points: 2
#     Edge 13, Type (0, 1), BuildingBlock: AJUNOK_clean_linker_0, # of connection points: 2
#     Edge 14, Type (0, 1), BuildingBlock: AJUNOK_clean_linker_0, # of connection points: 2
#     Edge 15, Type (0, 1), BuildingBlock: AJUNOK_clean_linker_0, # of connection points: 2
#     Edge 16, Type (0, 1), BuildingBlock: AJUNOK_clean_linker_0, # of connection points: 2
#     Edge 17, Type (0, 1), BuildingBlock: AJUNOK_clean_linker_0, # of connection points: 2
# Relax obj value: 0.067
# Max RMSD: 0.251
# Mean RMSD: 0.190
data_MOF--net-rtl--node1-KUMJIN_clean_sbu_1--node2-CUQRIR_clean_linker_1--edge1-AJUNOK_clean_linker_0
_symmetry_space_group_name_H-M    P1
_symmetry_Int_Tables_number       1
_symmetry_cell_setting            triclinic
loop_
_symmetry_equiv_pos_as_xyz
'x, y, z'
_cell_length_a     23.739778
_cell_length_b     24.288258
_cell_length_c     18.39046
_cell_angle_alpha  72.050991
_cell_angle_beta   97.644755
_cell_angle_gamma 91.365342
loop_
_atom_site_label
_atom_site_type_symbol
_atom_site_fract_x
_atom_site_fract_y
_atom_site_fract_z
_atom_type_partial_charge
C0 C 0.22908 0.76254 0.98215 0.0
N1 N 0.18971 0.79663 0.99515 0.0
N2 N 0.26554 0.73863 0.04707 0.0
C3 C 0.23232 0.75354 0.90538 0.0
C4 C 0.24663 0.75913 0.10037 0.0
N5 N 0.20083 0.79495 0.06864 0.0
C6 C 0.27286 0.74472 0.18339 0.0
H7 H 0.19024 0.7417 0.8812 0.0
H8 H 0.26299 0.71874 0.90949 0.0
H9 H 0.24486 0.79471 0.8648 0.0
H10 H 0.29054 0.78449 0.19439 0.0
H11 H 0.30782 0.71221 0.19866 0.0
H12 H 0.23966 0.72874 0.22167 0.0
C13 C 0.75083 0.7303 0.75398 0.0
N14 N 0.71189 0.69025 0.74535 0.0
N15 N 0.77226 0.75584 0.68691 0.0
C16 C 0.76862 0.74295 0.82866 0.0
C17 C 0.74424 0.73015 0.63708 0.0
N18 N 0.7075 0.69039 0.67244 0.0
C19 C 0.75334 0.74293 0.554 0.0
H20 H 0.7306 0.75528 0.84973 0.0
H21 H 0.80026 0.77778 0.82293 0.0
H22 H 0.78733 0.70311 0.87264 0.0
H23 H 0.77033 0.70349 0.54552 0.0
H24 H 0.78269 0.77922 0.53555 0.0
H25 H 0.71221 0.75455 0.51622 0.0
C26 C 0.77204 0.2108 0.21109 0.0
N27 N 0.81249 0.17543 0.20349 0.0
N28 N 0.74529 0.24158 0.14136 0.0
C29 C 0.76193 0.21876 0.28623 0.0
C30 C 0.77156 0.22464 0.09066 0.0
N31 N 0.81314 0.18462 0.12846 0.0
C32 C 0.75478 0.24605 1.00486 0.0
H33 H 0.73567 0.18284 0.31672 0.0
H34 H 0.73941 0.26023 0.27758 0.0
H35 H 0.80307 0.21743 0.32315 0.0
H36 H 0.77532 0.28811 0.98104 0.0
H37 H 0.70809 0.25354 0.99122 0.0
H38 H 0.76787 0.21486 0.97683 0.0
C39 C 0.30579 0.27286 0.44596 0.0
N40 N 0.34548 0.31316 0.4514 0.0
N41 N 0.28297 0.25146 0.51292 0.0
C42 C 0.29215 0.2514 0.37725 0.0
C43 C 0.3103 0.28051 0.55913 0.0
N44 N 0.3487 0.31718 0.5223 0.0
C45 C 0.29562 0.27783 0.63729 0.0
H46 H 0.25497 0.27613 0.33928 0.0
H47 H 0.28114 0.20493 0.39579 0.0
H48 H 0.32851 0.25748 0.34354 0.0
H49 H 0.32627 0.24832 0.68246 0.0
H50 H 0.25195 0.26186 0.64484 0.0
H51 H 0.29911 0.32125 0.64546 0.0
Eu52 Eu 0.0661 0.97168 0.53267 0.0
C53 C 0.96201 0.19012 0.54838 0.0
N54 N 1.00332 0.15801 0.60182 0.0
C55 C 0.05951 0.24298 0.59138 0.0
C56 C 0.96924 0.24952 0.51115 0.0
C57 C 0.04963 0.18457 0.62784 0.0
C58 C 0.01979 0.27528 0.53132 0.0
C59 C 0.86351 0.19853 0.49032 0.0
C60 C 0.90997 0.16508 0.53772 0.0
C61 C 0.87162 0.25658 0.44865 0.0
C62 C 0.92454 0.28198 0.45876 0.0
Eu63 Eu 0.98541 0.05745 0.65339 0.0
N64 N 0.90337 0.1093 0.57966 0.0
C65 C 0.80976 0.17345 0.48955 0.0
C66 C 0.85059 0.08575 0.58306 0.0
C67 C 0.80314 0.11708 0.53701 0.0
H68 H 0.07965 0.16061 0.67615 0.0
H69 H 0.76156 0.09783 0.5383 0.0
H70 H 0.0628 0.82874 0.61661 0.0
H71 H 0.25659 0.09447 0.45126 0.0
H72 H 0.84571 0.04214 0.61986 0.0
H73 H 0.77276 0.19796 0.455 0.0
H74 H 0.15497 0.06957 0.43659 0.0
H75 H 0.09744 0.26316 0.61021 0.0
H76 H 0.83668 0.28282 0.411 0.0
H77 H 0.92956 0.32746 0.42882 0.0
H78 H 0.1261 0.74905 0.70278 0.0
H79 H 0.02709 0.32074 0.50397 0.0
H80 H 0.32386 0.03067 0.55611 0.0
N81 N 0.12556 0.89273 0.61063 0.0
C82 C 0.18107 0.90383 0.62778 0.0
C83 C 0.14201 0.79252 0.68283 0.0
C84 C 0.219 0.86005 0.67652 0.0
C85 C 0.10624 0.83749 0.63413 0.0
C86 C 0.19852 0.80401 0.70496 0.0
N87 N 0.16403 0.99523 0.53593 0.0
C88 C 0.1839 0.04203 0.48339 0.0
C89 C 0.25953 0.96881 0.59895 0.0
C90 C 0.20096 0.95727 0.58943 0.0
C91 C 0.27924 0.02004 0.55058 0.0
C92 C 0.24145 0.05603 0.49114 0.0
H93 H 0.22653 0.76885 0.74111 0.0
H94 H 0.30622 0.84013 0.72995 0.0
H95 H 0.34181 0.93576 0.662 0.0
O96 O 0.10176 0.95129 0.43987 0.0
O97 O 0.0617 0.92954 0.66124 0.0
O98 O 0.06781 0.008 0.70566 0.0
O99 O 1.01176 0.94518 0.44386 0.0
O100 O 0.07916 0.06747 0.5198 0.0
O101 O 0.07998 0.07206 0.642 0.0
O102 O 0.95461 0.00934 0.76153 0.0
O103 O 0.94247 0.04602 0.54067 0.0
O104 O 0.01865 0.05646 0.47542 0.0
O105 O 0.96449 0.10143 0.7346 0.0
O106 O 0.94329 0.97272 0.65015 0.0
O107 O 0.98655 0.92484 0.5779 0.0
C108 C 0.07322 0.95224 0.71777 0.0
C109 C 0.05357 0.88448 0.38535 0.0
C110 C 0.07628 0.83579 0.29401 0.0
C111 C 0.05579 0.78396 0.34115 0.0
C112 C 0.03307 0.83238 0.43089 0.0
C113 C 0.03413 0.78248 0.40871 0.0
C114 C 0.07518 0.88602 0.31698 0.0
C115 C 0.10123 0.08691 0.57627 0.0
C116 C 0.05352 0.93736 0.40868 0.0
C117 C 0.27659 0.87284 0.69146 0.0
C118 C 0.29683 0.9273 0.65284 0.0
C119 C 0.96379 0.05922 0.47539 0.0
C120 C 0.9694 0.04724 0.86713 0.0
C121 C 0.95292 0.06822 0.98442 0.0
C122 C 0.99639 0.02841 0.02648 0.0
C123 C 1.0133 0.00822 0.90982 0.0
C124 C 0.93986 0.07761 0.9046 0.0
C125 C 0.02674 0.99904 0.98911 0.0
C126 C 0.94688 0.9298 0.62044 0.0
C127 C 0.9508 0.05427 0.78495 0.0
H128 H 0.05779 0.74405 0.3269 0.0
H129 H 0.0166 0.83022 0.48375 0.0
H130 H 0.01872 0.74227 0.44453 0.0
H131 H 0.0912 0.92625 0.28184 0.0
H132 H 1.00699 0.02033 0.08806 0.0
H133 H 0.03644 0.98423 0.88221 0.0
H134 H 0.90549 0.10732 0.87205 0.0
H135 H 0.06033 0.96854 1.02185 0.0
Eu136 Eu 0.47234 0.48343 1.01306 0.0
C137 C 0.63643 0.65973 0.07922 0.0
N138 N 0.64964 0.60298 0.11402 0.0
C139 C 0.74335 0.61778 0.07743 0.0
C140 C 0.67549 0.69759 0.03847 0.0
C141 C 0.703 0.58196 0.11697 0.0
C142 C 0.72909 0.67558 0.03655 0.0
C143 C 0.57365 0.74065 0.06351 0.0
C144 C 0.58603 0.68069 0.09109 0.0
C145 C 0.60994 0.77803 1.01707 0.0
C146 C 0.66084 0.75648 1.0045 0.0
Eu147 Eu 0.57716 0.54308 0.17002 0.0
N148 N 0.55285 0.64342 0.13775 0.0
C149 C 0.52742 0.7616 0.08771 0.0
C150 C 0.51226 0.66463 0.16887 0.0
C151 C 0.49768 0.72362 0.14249 0.0
H152 H 0.71335 0.53689 0.14735 0.0
H153 H 0.46371 0.73974 0.16468 0.0
H154 H 0.43051 0.60788 0.87498 0.0
H155 H 0.34252 0.29515 0.12348 0.0
H156 H 0.48998 0.6359 0.21287 0.0
H157 H 0.51641 0.80733 0.06786 0.0
H158 H 0.43128 0.34774 0.09185 0.0
H159 H 0.78512 0.60069 0.07787 0.0
H160 H 0.60051 0.82405 0.99402 0.0
H161 H 0.68978 0.78614 0.97166 0.0
H162 H 0.34219 0.66612 0.81975 0.0
H163 H 0.76044 0.70331 1.00624 0.0
H164 H 0.25001 0.34799 0.08537 0.0
N165 N 0.38908 0.53837 0.94845 0.0
C166 C 0.33875 0.51499 0.96799 0.0
C167 C 0.34061 0.62375 0.86168 0.0
C168 C 0.28711 0.54596 0.93688 0.0
C169 C 0.39053 0.59078 0.89317 0.0
C170 C 0.28871 0.60162 0.88458 0.0
N171 N 0.38916 0.42927 0.03959 0.0
C172 C 0.39088 0.37086 0.07525 0.0
C173 C 0.28708 0.43025 0.03053 0.0
C174 C 0.33874 0.45828 1.01454 0.0
C175 C 0.28874 0.37111 0.07167 0.0
C176 C 0.34086 0.34111 0.09317 0.0
H177 H 0.25001 0.62697 0.8596 0.0
H178 H 0.19553 0.54285 0.9341 0.0
H179 H 0.19547 0.44121 1.01591 0.0
O180 O 0.53402 0.45851 0.94932 0.0
O181 O 0.45769 0.43989 0.13838 0.0
O182 O 0.50907 0.48232 0.22505 0.0
O183 O 0.44442 0.44722 0.91969 0.0
O184 O 0.53339 0.42077 0.10538 0.0
O185 O 0.61228 0.47244 0.13065 0.0
O186 O 0.61698 0.57363 0.26494 0.0
O187 O 0.60491 0.5427 0.05521 0.0
O188 O 0.52275 0.56516 0.97115 0.0
O189 O 0.62348 0.48362 0.27429 0.0
O190 O 0.48194 0.56114 0.15035 0.0
O191 O 0.46976 0.57347 1.02232 0.0
C192 C 0.47128 0.44578 0.20777 0.0
C193 C 0.49983 0.46632 0.81805 0.0
C194 C 0.4752 0.45609 0.6891 0.0
C195 C 0.5026 0.50844 0.65801 0.0
C196 C 0.52731 0.51817 0.78576 0.0
C197 C 0.52877 0.53896 0.70621 0.0
C198 C 0.47418 0.43544 0.76949 0.0
C199 C 0.58879 0.42592 0.11795 0.0
C200 C 0.49504 0.44452 0.90138 0.0
C201 C 0.23562 0.51957 0.95665 0.0
C202 C 0.23559 0.46169 1.00319 0.0
C203 C 0.57824 0.56785 0.9856 0.0
C204 C 0.61904 0.50673 0.39065 0.0
C205 C 0.62262 0.52941 0.5123 0.0
C206 C 0.59932 0.47523 0.54569 0.0
C207 C 0.59561 0.45287 0.42566 0.0
C208 C 0.63196 0.54509 0.43437 0.0
C209 C 0.58535 0.43759 0.50232 0.0
C210 C 0.45171 0.58097 0.08251 0.0
C211 C 0.63239 0.52224 0.31014 0.0
H212 H 0.50459 0.52538 0.59666 0.0
H213 H 0.54719 0.5427 0.82184 0.0
H214 H 0.55011 0.57901 0.68179 0.0
H215 H 0.45233 0.39572 0.79436 0.0
H216 H 0.59211 0.46187 0.60549 0.0
H217 H 0.58597 0.42213 0.39423 0.0
H218 H 0.65085 0.58641 0.40848 0.0
H219 H 0.56729 0.39598 0.5286 0.0
C220 C 0.18661 0.21715 0.47961 0.0
C221 C 0.23801 0.20979 0.52978 0.0
C222 C 0.14241 0.17739 0.4953 0.0
C223 C 0.1473 0.12974 0.56292 0.0
H224 H 0.18046 0.25413 0.42808 0.0
H225 H 0.10379 0.18432 0.45469 0.0
S226 S 0.27408 0.0884 0.71021 0.0
N227 N 0.29248 0.14845 0.64692 0.0
N228 N 0.20797 0.0761 0.67883 0.0
C229 C 0.19811 0.12201 0.6138 0.0
C230 C 0.24382 0.1614 0.5966 0.0
C231 C 0.31529 0.64454 0.11048 0.0
C232 C 0.31314 0.70019 0.05659 0.0
C233 C 0.36091 0.60635 0.11949 0.0
C234 C 0.40427 0.62164 0.07233 0.0
H235 H 0.28148 0.6307 0.14589 0.0
H236 H 0.36186 0.56435 0.16273 0.0
S237 S 0.41883 0.7624 0.92362 0.0
N238 N 0.35978 0.76973 0.95851 0.0
N239 N 0.44289 0.69599 0.97056 0.0
C240 C 0.40226 0.67675 1.01755 0.0
C241 C 0.35727 0.71651 1.01083 0.0
C242 C 0.80937 0.85345 0.67862 0.0
C243 C 0.8168 0.79798 0.67246 0.0
C244 C 0.85161 0.89544 0.66193 0.0
C245 C 0.90271 0.88403 0.63705 0.0
H246 H 0.7704 0.86443 0.69601 0.0
H247 H 0.84364 0.9374 0.6679 0.0
S248 S 0.94245 0.74384 0.61383 0.0
N249 N 0.8792 0.73257 0.64315 0.0
N250 N 0.95738 0.81163 0.60828 0.0
C251 C 0.91016 0.82834 0.63066 0.0
C252 C 0.86763 0.78535 0.64929 0.0
C253 C 0.72371 0.34416 0.11913 0.0
C254 C 0.70471 0.28799 0.1259 0.0
C255 C 0.68569 0.38846 0.1156 0.0
C256 C 0.62715 0.37812 0.11872 0.0
H257 H 0.76859 0.35322 0.11907 0.0
H258 H 0.70264 0.43099 0.1113 0.0
S259 S 0.55689 0.23743 0.13378 0.0
N260 N 0.62477 0.22374 0.13397 0.0
N261 N 0.55236 0.30678 0.12632 0.0
C262 C 0.60763 0.32201 0.12327 0.0
C263 C 0.64668 0.27695 0.12731 0.0
C264 C 0.18673 0.85061 0.15722 0.0
C265 C 0.16436 0.8168 0.11078 0.0
C266 C 0.15646 0.85978 0.2133 0.0
C267 C 0.10252 0.83567 0.22456 0.0
H268 H 0.22917 0.86749 0.15281 0.0
H269 H 0.17698 0.88289 0.2511 0.0
S270 S 0.02129 0.75292 0.10734 0.0
N271 N 0.08282 0.76512 0.07307 0.0
N272 N 0.0247 0.78407 0.17595 0.0
C273 C 0.07771 0.80635 0.17334 0.0
C274 C 0.10882 0.79669 0.11686 0.0
C275 C 0.70187 0.61406 0.86818 0.0
C276 C 0.67741 0.6576 0.8024 0.0
C277 C 0.66932 0.58463 0.92645 0.0
C278 C 0.61147 0.59881 0.92214 0.0
H279 H 0.74647 0.60276 0.87437 0.0
H280 H 0.68973 0.55049 0.97523 0.0
S281 S 0.52855 0.71148 0.76178 0.0
N282 N 0.59268 0.71362 0.73556 0.0
N283 N 0.53179 0.66068 0.84612 0.0
C284 C 0.58682 0.64267 0.85635 0.0
C285 C 0.61973 0.67152 0.79636 0.0
C286 C 0.90945 0.15439 0.2732 0.0
C287 C 0.85188 0.13987 0.2655 0.0
C288 C 0.94619 0.12654 0.34042 0.0
C289 C 0.92615 0.08376 0.40207 0.0
H290 H 0.92533 0.18922 0.22849 0.0
H291 H 0.98987 0.14036 0.34547 0.0
S292 S 0.78045 0.02541 0.40457 0.0
N293 N 0.77774 0.07669 0.32065 0.0
N294 N 0.8464 0.02424 0.4472 0.0
C295 C 0.86927 0.067 0.39298 0.0
C296 C 0.8322 0.0951 0.32455 0.0
C297 C 0.42534 0.32825 0.62048 0.0
C298 C 0.38609 0.35359 0.55497 0.0
C299 C 0.45557 0.36201 0.66151 0.0
C300 C 0.44743 0.42251 0.63884 0.0
H301 H 0.43117 0.28166 0.64142 0.0
H302 H 0.48461 0.34035 0.71254 0.0
S303 S 0.35022 0.50956 0.46895 0.0
N304 N 0.3417 0.44223 0.46732 0.0
N305 N 0.39806 0.50633 0.54422 0.0
C306 C 0.40979 0.44857 0.57126 0.0
C307 C 0.37916 0.41394 0.52944 0.0
C308 C 0.63902 0.66544 0.57431 0.0
C309 C 0.67892 0.64792 0.64117 0.0
C310 C 0.61988 0.6266 0.53373 0.0
C311 C 0.6393 0.56862 0.55947 0.0
H312 H 0.62423 0.71005 0.5518 0.0
H313 H 0.59047 0.64224 0.48115 0.0
S314 S 0.74157 0.50088 0.73393 0.0
N315 N 0.73582 0.56885 0.73249 0.0
N316 N 0.69861 0.49515 0.65832 0.0
C317 C 0.67689 0.54997 0.6286 0.0
C318 C 0.6969 0.58976 0.66906 0.0
C319 C 0.85376 0.09543 0.11667 0.0
C320 C 0.85079 0.15619 0.09516 0.0
C321 C 0.88796 0.06712 0.0819 0.0
C322 C 0.91984 0.09873 1.02392 0.0
H323 H 0.82847 0.0698 0.15943 0.0
H324 H 0.88834 0.02026 0.09898 0.0
S325 S 0.93173 0.2583 0.95381 0.0
N326 N 0.88694 0.24672 1.01824 0.0
N327 N 0.94941 0.19377 0.95065 0.0
C328 C 0.91846 0.1594 1.00364 0.0
C329 C 0.88443 0.18808 0.03988 0.0
C330 C 0.43654 0.34462 0.4002 0.0
C331 C 0.37681 0.34727 0.3911 0.0
C332 C 0.46703 0.37632 0.34047 0.0
C333 C 0.43879 0.41167 0.26982 0.0
H334 H 0.45961 0.31717 0.45332 0.0
H335 H 0.51285 0.37214 0.34889 0.0
S336 S 0.28316 0.43778 0.22091 0.0
N337 N 0.29094 0.3911 0.30868 0.0
N338 N 0.34786 0.4498 0.19642 0.0
C339 C 0.37917 0.4152 0.26081 0.0
C340 C 0.34829 0.38333 0.32152 0.0
C341 C 0.11101 0.8176 0.88809 0.0
C342 C 0.15239 0.83736 0.9358 0.0
C343 C 0.0845 0.8554 0.81846 0.0
C344 C 0.09784 0.9145 0.79482 0.0
H345 H 0.10115 0.77204 0.90314 0.0
H346 H 0.05427 0.83793 0.78213 0.0
S347 S 0.1999 0.98818 0.9035 0.0
N348 N 0.20314 0.91969 0.95759 0.0
N349 N 0.1524 0.99156 0.82791 0.0
C350 C 0.13656 0.93537 0.84469 0.0
C351 C 0.1639 0.89661 0.9151 0.0
loop_
_geom_bond_atom_site_label_1
_geom_bond_atom_site_label_2
_geom_bond_distance
_geom_bond_site_symmetry_2
_ccdc_geom_bond_type
C0 N1 1.317 . S
C0 N2 1.348 1_556 S
C0 C3 1.485 . S
N1 C0 1.317 . S
N1 N5 1.370 1_556 S
N2 C0 1.348 1_554 S
N2 C4 1.346 . S
C3 C0 1.485 . S
C3 H7 0.960 . S
C3 H8 0.961 . S
C3 H9 0.960 . S
C4 N2 1.346 . S
C4 N5 1.307 . S
C4 C6 1.486 . S
N5 N1 1.370 1_554 S
N5 C4 1.307 . S
C6 C4 1.486 . S
C6 H10 0.960 . S
C6 H11 0.960 . S
C6 H12 0.959 . S
H7 C3 0.960 . S
H8 C3 0.961 . S
H9 C3 0.960 . S
H10 C6 0.960 . S
H11 C6 0.960 . S
H12 C6 0.959 . S
C13 N14 1.317 . S
C13 N15 1.348 . S
C13 C16 1.485 . S
N14 C13 1.317 . S
N14 N18 1.370 . S
N15 C13 1.348 . S
N15 C17 1.346 . S
C16 C13 1.485 . S
C16 H20 0.960 . S
C16 H21 0.961 . S
C16 H22 0.960 . S
C17 N15 1.346 . S
C17 N18 1.307 . S
C17 C19 1.486 . S
N18 N14 1.370 . S
N18 C17 1.307 . S
C19 C17 1.486 . S
C19 H23 0.960 . S
C19 H24 0.960 . S
C19 H25 0.959 . S
H20 C16 0.960 . S
H21 C16 0.961 . S
H22 C16 0.960 . S
H23 C19 0.960 . S
H24 C19 0.960 . S
H25 C19 0.959 . S
C26 N27 1.317 . S
C26 N28 1.348 . S
C26 C29 1.485 . S
N27 C26 1.317 . S
N27 N31 1.370 . S
N28 C26 1.348 . S
N28 C30 1.346 . S
C29 C26 1.485 . S
C29 H33 0.960 . S
C29 H34 0.961 . S
C29 H35 0.960 . S
C30 N28 1.346 . S
C30 N31 1.307 . S
C30 C32 1.486 1_554 S
N31 N27 1.370 . S
N31 C30 1.307 . S
C32 C30 1.486 1_556 S
C32 H36 0.960 . S
C32 H37 0.960 . S
C32 H38 0.959 . S
H33 C29 0.960 . S
H34 C29 0.961 . S
H35 C29 0.960 . S
H36 C32 0.960 . S
H37 C32 0.960 . S
H38 C32 0.959 . S
C39 N40 1.317 . S
C39 N41 1.348 . S
C39 C42 1.485 . S
N40 C39 1.317 . S
N40 N44 1.370 . S
N41 C39 1.348 . S
N41 C43 1.346 . S
C42 C39 1.485 . S
C42 H46 0.960 . S
C42 H47 0.961 . S
C42 H48 0.960 . S
C43 N41 1.346 . S
C43 N44 1.307 . S
C43 C45 1.486 . S
N44 N40 1.370 . S
N44 C43 1.307 . S
C45 C43 1.486 . S
C45 H49 0.960 . S
C45 H50 0.960 . S
C45 H51 0.959 . S
H46 C42 0.960 . S
H47 C42 0.961 . S
H48 C42 0.960 . S
H49 C45 0.960 . S
H50 C45 0.960 . S
H51 C45 0.959 . S
Eu52 N81 2.600 . S
Eu52 N87 2.562 . S
Eu52 O96 2.462 . S
Eu52 O97 2.373 . S
Eu52 O99 2.432 . S
Eu52 O100 2.291 1_565 S
Eu52 O104 2.335 1_465 S
Eu52 O107 2.372 1_455 S
Eu52 C116 2.787 . S
C53 N54 1.365 . S
C53 C56 1.405 . S
C53 C60 1.448 . S
N54 C53 1.365 . S
N54 C57 1.319 1_655 S
N54 Eu63 2.600 . S
C55 C57 1.397 . S
C55 C58 1.367 1_455 S
C55 H75 0.931 . S
C56 C53 1.405 . S
C56 C58 1.403 . S
C56 C62 1.439 . S
C57 N54 1.319 1_455 S
C57 C55 1.397 . S
C57 H68 0.930 . S
C58 C55 1.367 1_655 S
C58 C56 1.403 . S
C58 H79 0.929 . S
C59 C60 1.430 . S
C59 C61 1.387 . S
C59 C65 1.404 . S
C60 C53 1.448 . S
C60 C59 1.430 . S
C60 N64 1.351 . S
C61 C59 1.387 . S
C61 C62 1.374 . S
C61 H76 0.931 . S
C62 C56 1.439 . S
C62 C61 1.374 . S
C62 H77 0.931 . S
Eu63 N54 2.600 . S
Eu63 N64 2.562 . S
Eu63 O98 2.335 1_655 S
Eu63 O101 2.372 1_655 S
Eu63 O102 2.462 . S
Eu63 O103 2.373 . S
Eu63 O105 2.432 . S
Eu63 O106 2.291 1_545 S
Eu63 C127 2.787 . S
N64 C60 1.351 . S
N64 Eu63 2.562 . S
N64 C66 1.325 . S
C65 C59 1.404 . S
C65 C67 1.366 . S
C65 H73 0.930 . S
C66 N64 1.325 . S
C66 C67 1.416 . S
C66 H72 0.929 . S
C67 C65 1.366 . S
C67 C66 1.416 . S
C67 H69 0.930 . S
H68 C57 0.930 . S
H69 C67 0.930 . S
H70 C85 0.930 1_655 S
H71 C92 0.930 . S
H72 C66 0.929 . S
H73 C65 0.930 . S
H74 C88 0.929 . S
H75 C55 0.931 . S
H76 C61 0.931 . S
H77 C62 0.931 . S
H78 C83 0.931 1_655 S
H79 C58 0.929 . S
H80 C91 0.930 . S
N81 Eu52 2.600 . S
N81 C82 1.365 . S
N81 C85 1.319 . S
C82 N81 1.365 . S
C82 C84 1.405 . S
C82 C90 1.448 . S
C83 H78 0.931 1_455 S
C83 C85 1.397 . S
C83 C86 1.367 . S
C84 C82 1.405 . S
C84 C86 1.403 . S
C84 C117 1.439 . S
C85 H70 0.930 1_455 S
C85 N81 1.319 . S
C85 C83 1.397 . S
C86 C83 1.367 . S
C86 C84 1.403 . S
C86 H93 0.929 . S
N87 Eu52 2.562 . S
N87 C88 1.325 . S
N87 C90 1.351 . S
C88 H74 0.929 . S
C88 N87 1.325 . S
C88 C92 1.416 . S
C89 C90 1.430 . S
C89 C91 1.404 . S
C89 C118 1.387 . S
C90 C82 1.448 . S
C90 N87 1.351 . S
C90 C89 1.430 . S
C91 H80 0.930 . S
C91 C89 1.404 . S
C91 C92 1.366 . S
C92 H71 0.930 . S
C92 C88 1.416 . S
C92 C91 1.366 . S
H93 C86 0.929 . S
H94 C117 0.931 . S
H95 C118 0.931 . S
O96 Eu52 2.462 . S
O96 C116 1.252 . S
O97 Eu52 2.373 . S
O97 C108 1.249 . S
O98 Eu63 2.335 1_455 S
O98 C108 1.264 1_545 S
O99 Eu52 2.432 . S
O99 C116 1.268 . S
O100 Eu52 2.291 1_545 S
O100 C115 1.255 . S
O101 Eu63 2.372 1_455 S
O101 C115 1.257 . S
O102 Eu63 2.462 . S
O102 C127 1.252 . S
O103 Eu63 2.373 . S
O103 C119 1.249 . S
O104 Eu52 2.335 1_645 S
O104 C119 1.264 . S
O105 Eu63 2.432 . S
O105 C127 1.268 . S
O106 Eu63 2.291 1_565 S
O106 C126 1.255 . S
O107 Eu52 2.372 1_655 S
O107 C126 1.257 . S
C108 O97 1.249 . S
C108 O98 1.264 1_565 S
C109 C112 1.382 . S
C109 C114 1.390 . S
C109 C116 1.506 . S
C110 C111 1.398 . S
C110 C114 1.392 . S
C111 C110 1.398 . S
C111 C113 1.372 . S
C111 H128 0.931 . S
C112 C109 1.382 . S
C112 C113 1.390 . S
C112 H129 0.931 . S
C113 C111 1.372 . S
C113 C112 1.390 . S
C113 H130 0.929 . S
C114 C109 1.390 . S
C114 C110 1.392 . S
C114 H131 0.930 . S
C115 O100 1.255 . S
C115 O101 1.257 . S
C116 Eu52 2.787 . S
C116 O96 1.252 . S
C116 O99 1.268 . S
C116 C109 1.506 . S
C117 C84 1.439 . S
C117 H94 0.931 . S
C117 C118 1.374 . S
C118 C89 1.387 . S
C118 H95 0.931 . S
C118 C117 1.374 . S
C119 O103 1.249 . S
C119 O104 1.264 . S
C120 C123 1.382 . S
C120 C124 1.390 . S
C120 C127 1.506 . S
C121 C122 1.398 . S
C121 C124 1.392 . S
C122 C121 1.398 . S
C122 C125 1.372 . S
C122 H132 0.931 . S
C123 C120 1.382 . S
C123 C125 1.390 . S
C123 H133 0.931 . S
C124 C120 1.390 . S
C124 C121 1.392 . S
C124 H134 0.930 . S
C125 C122 1.372 . S
C125 C123 1.390 . S
C125 H135 0.929 . S
C126 O106 1.255 . S
C126 O107 1.257 . S
C127 Eu63 2.787 . S
C127 O102 1.252 . S
C127 O105 1.268 . S
C127 C120 1.506 . S
H128 C111 0.931 . S
H129 C112 0.931 . S
H130 C113 0.929 . S
H131 C114 0.930 . S
H132 C122 0.931 . S
H133 C123 0.931 . S
H134 C124 0.930 . S
H135 C125 0.929 . S
Eu136 N165 2.600 . S
Eu136 N171 2.562 . S
Eu136 O180 2.462 1_554 S
Eu136 O181 2.373 . S
Eu136 O183 2.432 1_554 S
Eu136 O184 2.291 . S
Eu136 O188 2.335 1_554 S
Eu136 O191 2.372 . S
Eu136 C200 2.787 1_554 S
C137 N138 1.365 . S
C137 C140 1.405 . S
C137 C144 1.448 . S
N138 C137 1.365 . S
N138 C141 1.319 . S
N138 Eu147 2.600 . S
C139 C141 1.397 . S
C139 C142 1.367 . S
C139 H159 0.931 . S
C140 C137 1.405 . S
C140 C142 1.403 . S
C140 C146 1.439 . S
C141 N138 1.319 . S
C141 C139 1.397 . S
C141 H152 0.930 . S
C142 C139 1.367 . S
C142 C140 1.403 . S
C142 H163 0.929 . S
C143 C144 1.430 . S
C143 C145 1.387 . S
C143 C149 1.404 . S
C144 C137 1.448 . S
C144 C143 1.430 . S
C144 N148 1.351 . S
C145 C143 1.387 . S
C145 C146 1.374 . S
C145 H160 0.931 . S
C146 C140 1.439 . S
C146 C145 1.374 . S
C146 H161 0.931 . S
Eu147 N138 2.600 . S
Eu147 N148 2.562 . S
Eu147 O182 2.335 . S
Eu147 O185 2.372 . S
Eu147 O186 2.462 . S
Eu147 O187 2.373 . S
Eu147 O189 2.432 . S
Eu147 O190 2.291 . S
Eu147 C211 2.787 . S
N148 C144 1.351 . S
N148 Eu147 2.562 . S
N148 C150 1.325 . S
C149 C143 1.404 . S
C149 C151 1.366 . S
C149 H157 0.930 . S
C150 N148 1.325 . S
C150 C151 1.416 . S
C150 H156 0.929 . S
C151 C149 1.366 . S
C151 C150 1.416 . S
C151 H153 0.930 . S
H152 C141 0.930 . S
H153 C151 0.930 . S
H154 C169 0.930 . S
H155 C176 0.930 . S
H156 C150 0.929 . S
H157 C149 0.930 . S
H158 C172 0.929 . S
H159 C139 0.931 . S
H160 C145 0.931 . S
H161 C146 0.931 . S
H162 C167 0.931 . S
H163 C142 0.929 . S
H164 C175 0.930 . S
N165 Eu136 2.600 . S
N165 C166 1.365 . S
N165 C169 1.319 1_554 S
C166 N165 1.365 . S
C166 C168 1.405 . S
C166 C174 1.448 . S
C167 H162 0.931 . S
C167 C169 1.397 . S
C167 C170 1.367 1_556 S
C168 C166 1.405 . S
C168 C170 1.403 . S
C168 C201 1.439 . S
C169 H154 0.930 . S
C169 N165 1.319 1_556 S
C169 C167 1.397 . S
C170 C167 1.367 1_554 S
C170 C168 1.403 . S
C170 H177 0.929 . S
N171 Eu136 2.562 . S
N171 C172 1.325 . S
N171 C174 1.351 . S
C172 H158 0.929 . S
C172 N171 1.325 . S
C172 C176 1.416 . S
C173 C174 1.430 . S
C173 C175 1.404 . S
C173 C202 1.387 . S
C174 C166 1.448 . S
C174 N171 1.351 . S
C174 C173 1.430 . S
C175 H164 0.930 . S
C175 C173 1.404 . S
C175 C176 1.366 . S
C176 H155 0.930 . S
C176 C172 1.416 . S
C176 C175 1.366 . S
H177 C170 0.929 . S
H178 C201 0.931 . S
H179 C202 0.931 . S
O180 Eu136 2.462 1_556 S
O180 C200 1.252 . S
O181 Eu136 2.373 . S
O181 C192 1.249 . S
O182 Eu147 2.335 . S
O182 C192 1.264 . S
O183 Eu136 2.432 1_556 S
O183 C200 1.268 . S
O184 Eu136 2.291 . S
O184 C199 1.255 . S
O185 Eu147 2.372 . S
O185 C199 1.257 . S
O186 Eu147 2.462 . S
O186 C211 1.252 . S
O187 Eu147 2.373 . S
O187 C203 1.249 1_554 S
O188 Eu136 2.335 1_556 S
O188 C203 1.264 . S
O189 Eu147 2.432 . S
O189 C211 1.268 . S
O190 Eu147 2.291 . S
O190 C210 1.255 . S
O191 Eu136 2.372 . S
O191 C210 1.257 . S
C192 O181 1.249 . S
C192 O182 1.264 . S
C193 C196 1.382 . S
C193 C198 1.390 . S
C193 C200 1.506 . S
C194 C195 1.398 . S
C194 C198 1.392 . S
C195 C194 1.398 . S
C195 C197 1.372 . S
C195 H212 0.931 . S
C196 C193 1.382 . S
C196 C197 1.390 . S
C196 H213 0.931 . S
C197 C195 1.372 . S
C197 C196 1.390 . S
C197 H214 0.929 . S
C198 C193 1.390 . S
C198 C194 1.392 . S
C198 H215 0.930 . S
C199 O184 1.255 . S
C199 O185 1.257 . S
C200 Eu136 2.787 1_556 S
C200 O180 1.252 . S
C200 O183 1.268 . S
C200 C193 1.506 . S
C201 C168 1.439 . S
C201 H178 0.931 . S
C201 C202 1.374 . S
C202 C173 1.387 . S
C202 H179 0.931 . S
C202 C201 1.374 . S
C203 O187 1.249 1_556 S
C203 O188 1.264 . S
C204 C207 1.382 . S
C204 C208 1.390 . S
C204 C211 1.506 . S
C205 C206 1.398 . S
C205 C208 1.392 . S
C206 C205 1.398 . S
C206 C209 1.372 . S
C206 H216 0.931 . S
C207 C204 1.382 . S
C207 C209 1.390 . S
C207 H217 0.931 . S
C208 C204 1.390 . S
C208 C205 1.392 . S
C208 H218 0.930 . S
C209 C206 1.372 . S
C209 C207 1.390 . S
C209 H219 0.929 . S
C210 O190 1.255 . S
C210 O191 1.257 . S
C211 Eu147 2.787 . S
C211 O186 1.252 . S
C211 O189 1.268 . S
C211 C204 1.506 . S
H212 C195 0.931 . S
H213 C196 0.931 . S
H214 C197 0.929 . S
H215 C198 0.930 . S
H216 C206 0.931 . S
H217 C207 0.931 . S
H218 C208 0.930 . S
H219 C209 0.929 . S
C220 C221 1.369 . S
C220 C222 1.419 . S
C220 H224 0.930 . S
C221 C220 1.369 . S
C221 C230 1.429 . S
C222 C220 1.419 . S
C222 C223 1.363 . S
C222 H225 0.929 . S
C223 C222 1.363 . S
C223 C229 1.428 . S
H224 C220 0.930 . S
H225 C222 0.929 . S
S226 N227 1.613 . S
S226 N228 1.610 . S
N227 S226 1.613 . S
N227 C230 1.350 . S
N228 S226 1.610 . S
N228 C229 1.351 . S
C229 C223 1.428 . S
C229 N228 1.351 . S
C229 C230 1.434 . S
C230 C221 1.429 . S
C230 N227 1.350 . S
C230 C229 1.434 . S
C231 C232 1.369 . S
C231 C233 1.419 . S
C231 H235 0.930 . S
C232 C231 1.369 . S
C232 C241 1.429 . S
C233 C231 1.419 . S
C233 C234 1.363 . S
C233 H236 0.929 . S
C234 C233 1.363 . S
C234 C240 1.428 . S
H235 C231 0.930 . S
H236 C233 0.929 . S
S237 N238 1.613 . S
S237 N239 1.610 . S
N238 S237 1.613 . S
N238 C241 1.350 . S
N239 S237 1.610 . S
N239 C240 1.351 . S
C240 C234 1.428 . S
C240 N239 1.351 . S
C240 C241 1.434 . S
C241 C232 1.429 . S
C241 N238 1.350 . S
C241 C240 1.434 . S
C242 C243 1.369 . S
C242 C244 1.419 . S
C242 H246 0.930 . S
C243 C242 1.369 . S
C243 C252 1.429 . S
C244 C242 1.419 . S
C244 C245 1.363 . S
C244 H247 0.929 . S
C245 C244 1.363 . S
C245 C251 1.428 . S
H246 C242 0.930 . S
H247 C244 0.929 . S
S248 N249 1.613 . S
S248 N250 1.610 . S
N249 S248 1.613 . S
N249 C252 1.350 . S
N250 S248 1.610 . S
N250 C251 1.351 . S
C251 C245 1.428 . S
C251 N250 1.351 . S
C251 C252 1.434 . S
C252 C243 1.429 . S
C252 N249 1.350 . S
C252 C251 1.434 . S
C253 C254 1.369 . S
C253 C255 1.419 . S
C253 H257 0.930 . S
C254 C253 1.369 . S
C254 C263 1.429 . S
C255 C253 1.419 . S
C255 C256 1.363 . S
C255 H258 0.929 . S
C256 C255 1.363 . S
C256 C262 1.428 . S
H257 C253 0.930 . S
H258 C255 0.929 . S
S259 N260 1.613 . S
S259 N261 1.610 . S
N260 S259 1.613 . S
N260 C263 1.350 1_556 S
N261 S259 1.610 . S
N261 C262 1.351 1_556 S
C262 C256 1.428 . S
C262 N261 1.351 1_554 S
C262 C263 1.434 . S
C263 C254 1.429 . S
C263 N260 1.350 1_554 S
C263 C262 1.434 . S
C264 C265 1.369 . S
C264 C266 1.419 . S
C264 H268 0.930 . S
C265 C264 1.369 . S
C265 C274 1.429 . S
C266 C264 1.419 . S
C266 C267 1.363 . S
C266 H269 0.929 . S
C267 C266 1.363 . S
C267 C273 1.428 . S
H268 C264 0.930 . S
H269 C266 0.929 . S
S270 N271 1.613 . S
S270 N272 1.610 . S
N271 S270 1.613 . S
N271 C274 1.350 . S
N272 S270 1.610 . S
N272 C273 1.351 . S
C273 C267 1.428 . S
C273 N272 1.351 . S
C273 C274 1.434 . S
C274 C265 1.429 . S
C274 N271 1.350 . S
C274 C273 1.434 . S
C275 C276 1.369 . S
C275 C277 1.419 . S
C275 H279 0.930 . S
C276 C275 1.369 . S
C276 C285 1.429 . S
C277 C275 1.419 . S
C277 C278 1.363 . S
C277 H280 0.929 . S
C278 C277 1.363 . S
C278 C284 1.428 . S
H279 C275 0.930 . S
H280 C277 0.929 . S
S281 N282 1.613 . S
S281 N283 1.610 . S
N282 S281 1.613 . S
N282 C285 1.350 . S
N283 S281 1.610 . S
N283 C284 1.351 . S
C284 C278 1.428 . S
C284 N283 1.351 . S
C284 C285 1.434 . S
C285 C276 1.429 . S
C285 N282 1.350 . S
C285 C284 1.434 . S
C286 C287 1.369 . S
C286 C288 1.419 . S
C286 H290 0.930 . S
C287 C286 1.369 . S
C287 C296 1.429 . S
C288 C286 1.419 . S
C288 C289 1.363 . S
C288 H291 0.929 . S
C289 C288 1.363 . S
C289 C295 1.428 . S
H290 C286 0.930 . S
H291 C288 0.929 . S
S292 N293 1.613 . S
S292 N294 1.610 . S
N293 S292 1.613 . S
N293 C296 1.350 . S
N294 S292 1.610 . S
N294 C295 1.351 . S
C295 C289 1.428 . S
C295 N294 1.351 . S
C295 C296 1.434 . S
C296 C287 1.429 . S
C296 N293 1.350 . S
C296 C295 1.434 . S
C297 C298 1.369 . S
C297 C299 1.419 . S
C297 H301 0.930 . S
C298 C297 1.369 . S
C298 C307 1.429 . S
C299 C297 1.419 . S
C299 C300 1.363 . S
C299 H302 0.929 . S
C300 C299 1.363 . S
C300 C306 1.428 . S
H301 C297 0.930 . S
H302 C299 0.929 . S
S303 N304 1.613 . S
S303 N305 1.610 . S
N304 S303 1.613 . S
N304 C307 1.350 . S
N305 S303 1.610 . S
N305 C306 1.351 . S
C306 C300 1.428 . S
C306 N305 1.351 . S
C306 C307 1.434 . S
C307 C298 1.429 . S
C307 N304 1.350 . S
C307 C306 1.434 . S
C308 C309 1.369 . S
C308 C310 1.419 . S
C308 H312 0.930 . S
C309 C308 1.369 . S
C309 C318 1.429 . S
C310 C308 1.419 . S
C310 C311 1.363 . S
C310 H313 0.929 . S
C311 C310 1.363 . S
C311 C317 1.428 . S
H312 C308 0.930 . S
H313 C310 0.929 . S
S314 N315 1.613 . S
S314 N316 1.610 . S
N315 S314 1.613 . S
N315 C318 1.350 . S
N316 S314 1.610 . S
N316 C317 1.351 . S
C317 C311 1.428 . S
C317 N316 1.351 . S
C317 C318 1.434 . S
C318 C309 1.429 . S
C318 N315 1.350 . S
C318 C317 1.434 . S
C319 C320 1.369 . S
C319 C321 1.419 . S
C319 H323 0.930 . S
C320 C319 1.369 . S
C320 C329 1.429 1_554 S
C321 C319 1.419 . S
C321 C322 1.363 1_554 S
C321 H324 0.929 . S
C322 C321 1.363 1_556 S
C322 C328 1.428 . S
H323 C319 0.930 . S
H324 C321 0.929 . S
S325 N326 1.613 . S
S325 N327 1.610 . S
N326 S325 1.613 . S
N326 C329 1.350 . S
N327 S325 1.610 . S
N327 C328 1.351 . S
C328 C322 1.428 . S
C328 N327 1.351 . S
C328 C329 1.434 . S
C329 C320 1.429 1_556 S
C329 N326 1.350 . S
C329 C328 1.434 . S
C330 C331 1.369 . S
C330 C332 1.419 . S
C330 H334 0.930 . S
C331 C330 1.369 . S
C331 C340 1.429 . S
C332 C330 1.419 . S
C332 C333 1.363 . S
C332 H335 0.929 . S
C333 C332 1.363 . S
C333 C339 1.428 . S
H334 C330 0.930 . S
H335 C332 0.929 . S
S336 N337 1.613 . S
S336 N338 1.610 . S
N337 S336 1.613 . S
N337 C340 1.350 . S
N338 S336 1.610 . S
N338 C339 1.351 . S
C339 C333 1.428 . S
C339 N338 1.351 . S
C339 C340 1.434 . S
C340 C331 1.429 . S
C340 N337 1.350 . S
C340 C339 1.434 . S
C341 C342 1.369 . S
C341 C343 1.419 . S
C341 H345 0.930 . S
C342 C341 1.369 . S
C342 C351 1.429 . S
C343 C341 1.419 . S
C343 C344 1.363 . S
C343 H346 0.929 . S
C344 C343 1.363 . S
C344 C350 1.428 . S
H345 C341 0.930 . S
H346 C343 0.929 . S
S347 N348 1.613 1_545 S
S347 N349 1.610 . S
N348 S347 1.613 1_565 S
N348 C351 1.350 . S
N349 S347 1.610 . S
N349 C350 1.351 1_545 S
C350 C344 1.428 . S
C350 N349 1.351 1_565 S
C350 C351 1.434 . S
C351 C342 1.429 . S
C351 N348 1.350 . S
C351 C350 1.434 . S
C223 C115 1.640 . S
C221 N41 1.671 . S
C232 N2 1.612 . S
C234 C210 1.604 . S
C243 N15 1.663 . S
C245 C126 1.640 . S
C254 N28 1.605 . S
C256 C199 1.606 . S
C267 C110 1.370 . S
C265 N5 1.591 . S
C278 C203 1.654 . S
C276 N14 1.648 . S
C287 N27 1.566 . S
C289 C119 1.609 . S
C298 N44 1.576 . S
C300 C194 1.402 . S
C311 C205 1.406 . S
C309 N18 1.573 . S
C322 C121 1.372 . S
C320 N31 1.589 . S
C333 C192 1.652 . S
C331 N40 1.655 . S
C342 N1 1.591 . S
C344 C108 1.610 . S
