# Generated by pormake.
# Topology nom, (4,4)-cn, num edge types: 1
# Building blocks:
#     Node 0, Type 0, BuildingBlock: MUDLON_clean_linker_0, # of connection points: 4
#     Node 1, Type 0, BuildingBlock: MUDLON_clean_linker_0, # of connection points: 4
#     Node 2, Type 0, BuildingBlock: MUDLON_clean_linker_0, # of connection points: 4
#     Node 3, Type 0, BuildingBlock: MUDLON_clean_linker_0, # of connection points: 4
#     Node 4, Type 0, BuildingBlock: MUDLON_clean_linker_0, # of connection points: 4
#     Node 5, Type 0, BuildingBlock: MUDLON_clean_linker_0, # of connection points: 4
#     Node 6, Type 1, BuildingBlock: AZAVOO_clean_sbu_0, # of connection points: 4
#     Node 7, Type 1, BuildingBlock: AZAVOO_clean_sbu_0, # of connection points: 4
#     Node 8, Type 1, BuildingBlock: AZAVOO_clean_sbu_0, # of connection points: 4
#     Node 9, Type 1, BuildingBlock: AZAVOO_clean_sbu_0, # of connection points: 4
#     Node 10, Type 1, BuildingBlock: AZAVOO_clean_sbu_0, # of connection points: 4
#     Node 11, Type 1, BuildingBlock: AZAVOO_clean_sbu_0, # of connection points: 4
#     Edge 12, Type (0, 1), BuildingBlock: EZIPEK_clean_linker_0, # of connection points: 2
#     Edge 13, Type (0, 1), BuildingBlock: EZIPEK_clean_linker_0, # of connection points: 2
#     Edge 14, Type (0, 1), BuildingBlock: EZIPEK_clean_linker_0, # of connection points: 2
#     Edge 15, Type (0, 1), BuildingBlock: EZIPEK_clean_linker_0, # of connection points: 2
#     Edge 16, Type (0, 1), BuildingBlock: EZIPEK_clean_linker_0, # of connection points: 2
#     Edge 17, Type (0, 1), BuildingBlock: EZIPEK_clean_linker_0, # of connection points: 2
#     Edge 18, Type (0, 1), BuildingBlock: EZIPEK_clean_linker_0, # of connection points: 2
#     Edge 19, Type (0, 1), BuildingBlock: EZIPEK_clean_linker_0, # of connection points: 2
#     Edge 20, Type (0, 1), BuildingBlock: EZIPEK_clean_linker_0, # of connection points: 2
#     Edge 21, Type (0, 1), BuildingBlock: EZIPEK_clean_linker_0, # of connection points: 2
#     Edge 22, Type (0, 1), BuildingBlock: EZIPEK_clean_linker_0, # of connection points: 2
#     Edge 23, Type (0, 1), BuildingBlock: EZIPEK_clean_linker_0, # of connection points: 2
#     Edge 24, Type (0, 1), BuildingBlock: EZIPEK_clean_linker_0, # of connection points: 2
#     Edge 25, Type (0, 1), BuildingBlock: EZIPEK_clean_linker_0, # of connection points: 2
#     Edge 26, Type (0, 1), BuildingBlock: EZIPEK_clean_linker_0, # of connection points: 2
#     Edge 27, Type (0, 1), BuildingBlock: EZIPEK_clean_linker_0, # of connection points: 2
#     Edge 28, Type (0, 1), BuildingBlock: EZIPEK_clean_linker_0, # of connection points: 2
#     Edge 29, Type (0, 1), BuildingBlock: EZIPEK_clean_linker_0, # of connection points: 2
#     Edge 30, Type (0, 1), BuildingBlock: EZIPEK_clean_linker_0, # of connection points: 2
#     Edge 31, Type (0, 1), BuildingBlock: EZIPEK_clean_linker_0, # of connection points: 2
#     Edge 32, Type (0, 1), BuildingBlock: EZIPEK_clean_linker_0, # of connection points: 2
#     Edge 33, Type (0, 1), BuildingBlock: EZIPEK_clean_linker_0, # of connection points: 2
#     Edge 34, Type (0, 1), BuildingBlock: EZIPEK_clean_linker_0, # of connection points: 2
#     Edge 35, Type (0, 1), BuildingBlock: EZIPEK_clean_linker_0, # of connection points: 2
# Relax obj value: 0.037
# Max RMSD: 0.158
# Mean RMSD: 0.121
data_MOF--net-nom--node1-AZAVOO_clean_sbu_0--node2-MUDLON_clean_linker_0--edge1-EZIPEK_clean_linker_0
_symmetry_space_group_name_H-M    P1
_symmetry_Int_Tables_number       1
_symmetry_cell_setting            triclinic
loop_
_symmetry_equiv_pos_as_xyz
'x, y, z'
_cell_length_a     48.360227
_cell_length_b     49.325322
_cell_length_c     46.685418
_cell_angle_alpha  91.508474
_cell_angle_beta   90.850475
_cell_angle_gamma 120.29364
loop_
_atom_site_label
_atom_site_type_symbol
_atom_site_fract_x
_atom_site_fract_y
_atom_site_fract_z
_atom_type_partial_charge
H0 H 0.17304 0.54709 0.331 0.0
N1 N 0.12267 0.54375 0.3562 0.0
H2 H 0.21137 0.5889 0.30076 0.0
H3 H 0.11951 0.59507 0.3391 0.0
H4 H 0.15739 0.63638 0.30876 0.0
H5 H 0.12728 0.59191 0.39055 0.0
H6 H 0.15097 0.60651 0.43928 0.0
H7 H 0.14089 0.51197 0.38884 0.0
H8 H 0.16477 0.5267 0.43773 0.0
H9 H 0.09176 0.48788 0.32933 0.0
H10 H 0.0773 0.56048 0.36641 0.0
H11 H 0.03525 0.45766 0.31432 0.0
H12 H 0.0215 0.53182 0.34977 0.0
H13 H 0.84329 0.36459 0.26896 0.0
H14 H 0.81908 0.35849 0.2211 0.0
H15 H 0.89094 0.45375 0.20381 0.0
H16 H 0.91295 0.46093 0.25288 0.0
H17 H 0.87658 0.4647 0.29439 0.0
H18 H 0.82796 0.46207 0.31276 0.0
H19 H 0.80152 0.37362 0.35035 0.0
H20 H 0.84981 0.37595 0.33143 0.0
H21 H 0.9409 0.42218 0.2675 0.0
H22 H 0.99715 0.45429 0.28168 0.0
H23 H 0.97142 0.48859 0.35688 0.0
N24 N 0.88965 0.41695 0.29476 0.0
H25 H 0.9158 0.45844 0.3419 0.0
C26 C 0.14326 0.56766 0.33709 0.0
C27 C 0.16938 0.56639 0.32601 0.0
C28 C 0.19119 0.59018 0.30893 0.0
C29 C 0.1871 0.61561 0.30264 0.0
C30 C 0.16085 0.61687 0.31344 0.0
C31 C 0.13914 0.59315 0.33067 0.0
C32 C 0.13213 0.55061 0.38611 0.0
C33 C 0.13464 0.57708 0.40081 0.0
C34 C 0.14832 0.58554 0.42856 0.0
C35 C 0.15968 0.56772 0.44192 0.0
C36 C 0.15611 0.54069 0.4277 0.0
C37 C 0.14242 0.53224 0.39999 0.0
C38 C 0.0889 0.52648 0.34874 0.0
C39 C 0.07636 0.49738 0.33401 0.0
C40 C 0.04408 0.48035 0.32513 0.0
C41 C 0.02358 0.49234 0.33041 0.0
C42 C 0.03626 0.52153 0.34549 0.0
C43 C 0.06847 0.53826 0.35482 0.0
C44 C 0.88032 0.41292 0.26455 0.0
C45 C 0.8541 0.38405 0.25475 0.0
C46 C 0.84022 0.38063 0.22747 0.0
C47 C 0.85316 0.40562 0.20872 0.0
C48 C 0.88045 0.43413 0.21788 0.0
C49 C 0.89332 0.43809 0.2458 0.0
C50 C 0.8664 0.42019 0.31129 0.0
C51 C 0.86083 0.44526 0.30733 0.0
C52 C 0.83326 0.44384 0.31788 0.0
C53 C 0.8113 0.41762 0.33279 0.0
C54 C 0.8184 0.39411 0.33906 0.0
C55 C 0.84581 0.39539 0.32829 0.0
C56 C 0.92336 0.43856 0.30246 0.0
C57 C 0.94728 0.43739 0.28656 0.0
C58 C 0.97964 0.45542 0.29507 0.0
C59 C 0.98915 0.47431 0.32049 0.0
C60 C 0.96533 0.47512 0.33676 0.0
C61 C 0.93303 0.45755 0.328 0.0
H62 H 0.49294 0.85715 0.45929 0.0
N63 N 0.48991 0.90676 0.44299 0.0
H64 H 0.45525 0.81468 0.48936 0.0
H65 H 0.43865 0.90405 0.47063 0.0
H66 H 0.40165 0.86214 0.50075 0.0
H67 H 0.43245 0.89259 0.41745 0.0
H68 H 0.41422 0.87176 0.36837 0.0
H69 H 0.52388 0.90048 0.40183 0.0
H70 H 0.50551 0.87961 0.35238 0.0
H71 H 0.54709 0.94297 0.46811 0.0
H72 H 0.46335 0.94436 0.43753 0.0
H73 H 0.57126 0.99775 0.48499 0.0
H74 H 0.48602 0.99811 0.45607 0.0
H75 H 0.64278 0.17829 0.54039 0.0
H76 H 0.64708 0.19548 0.59084 0.0
H77 H 0.54958 0.12194 0.60252 0.0
H78 H 0.54467 0.10602 0.55145 0.0
H79 H 0.54138 0.14341 0.51263 0.0
H80 H 0.53454 0.18034 0.48301 0.0
H81 H 0.62389 0.20663 0.4428 0.0
H82 H 0.63089 0.17 0.47265 0.0
H83 H 0.59628 0.08626 0.53577 0.0
H84 H 0.57022 0.03127 0.51996 0.0
H85 H 0.52404 0.04992 0.44944 0.0
N86 N 0.59179 0.13297 0.51188 0.0
H87 H 0.54797 0.10379 0.46618 0.0
C88 C 0.46903 0.88399 0.46288 0.0
C89 C 0.47329 0.85854 0.46859 0.0
C90 C 0.45182 0.83437 0.48555 0.0
C91 C 0.42578 0.83542 0.49716 0.0
C92 C 0.42169 0.86106 0.49195 0.0
C93 C 0.44302 0.8851 0.47484 0.0
C94 C 0.47974 0.89825 0.41331 0.0
C95 C 0.44885 0.89043 0.4034 0.0
C96 C 0.43833 0.87836 0.37543 0.0
C97 C 0.45847 0.87396 0.35695 0.0
C98 C 0.48964 0.88275 0.36644 0.0
C99 C 0.50013 0.89477 0.39446 0.0
C100 C 0.50344 0.93941 0.45173 0.0
C101 C 0.53385 0.95509 0.46525 0.0
C102 C 0.54742 0.98633 0.47521 0.0
C103 C 0.53056 0.00256 0.47229 0.0
C104 C 0.50004 0.98674 0.45847 0.0
C105 C 0.48678 0.95568 0.44802 0.0
C106 C 0.5937 0.14069 0.54223 0.0
C107 C 0.62238 0.16584 0.55385 0.0
C108 C 0.62477 0.17563 0.58255 0.0
C109 C 0.59866 0.16 0.60046 0.0
C110 C 0.56998 0.13437 0.58906 0.0
C111 C 0.56727 0.12517 0.56001 0.0
C112 C 0.58685 0.15425 0.49484 0.0
C113 C 0.55958 0.15731 0.49761 0.0
C114 C 0.55564 0.17823 0.48074 0.0
C115 C 0.5788 0.19614 0.4609 0.0
C116 C 0.60588 0.19299 0.45809 0.0
C117 C 0.60986 0.17221 0.475 0.0
C118 C 0.57373 0.09974 0.50315 0.0
C119 C 0.57985 0.07841 0.51735 0.0
C120 C 0.56528 0.04689 0.50792 0.0
C121 C 0.54489 0.03585 0.48329 0.0
C122 C 0.5389 0.05713 0.46887 0.0
C123 C 0.55295 0.08848 0.47861 0.0
H124 H 0.49514 0.64519 0.63112 0.0
N125 N 0.49117 0.59253 0.64825 0.0
H126 H 0.45095 0.65149 0.61276 0.0
H127 H 0.43265 0.54451 0.62724 0.0
H128 H 0.38883 0.55093 0.60885 0.0
H129 H 0.43813 0.56125 0.68102 0.0
H130 H 0.4315 0.57857 0.72852 0.0
H131 H 0.53751 0.6346 0.68378 0.0
H132 H 0.53092 0.65146 0.73206 0.0
H133 H 0.53719 0.59932 0.61391 0.0
H134 H 0.46095 0.531 0.6641 0.0
H135 H 0.55067 0.55962 0.59866 0.0
H136 H 0.47346 0.49108 0.64837 0.0
H137 H 0.59747 0.46686 0.56568 0.0
H138 H 0.61938 0.46628 0.51862 0.0
H139 H 0.52935 0.38491 0.49165 0.0
H140 H 0.50755 0.38527 0.53884 0.0
H141 H 0.51423 0.36472 0.59766 0.0
H142 H 0.53752 0.34404 0.63187 0.0
H143 H 0.61688 0.43777 0.64964 0.0
H144 H 0.59358 0.45846 0.6155 0.0
H145 H 0.54028 0.47204 0.55213 0.0
H146 H 0.52956 0.51255 0.56864 0.0
H147 H 0.51269 0.4756 0.65344 0.0
N148 N 0.53769 0.42405 0.58362 0.0
H149 H 0.52239 0.43421 0.6369 0.0
C150 C 0.46743 0.59454 0.6307 0.0
C151 C 0.47237 0.62447 0.62525 0.0
C152 C 0.44723 0.62806 0.61483 0.0
C153 C 0.41677 0.60165 0.60951 0.0
C154 C 0.41231 0.57152 0.61264 0.0
C155 C 0.43745 0.56793 0.62319 0.0
C156 C 0.48839 0.59701 0.67856 0.0
C157 C 0.45884 0.58039 0.69212 0.0
C158 C 0.455 0.59019 0.71933 0.0
C159 C 0.48065 0.61636 0.73358 0.0
C160 C 0.5109 0.63113 0.72133 0.0
C161 C 0.51464 0.62157 0.69388 0.0
C162 C 0.49822 0.5683 0.64011 0.0
C163 C 0.52334 0.57572 0.62155 0.0
C164 C 0.53083 0.55296 0.61275 0.0
C165 C 0.51315 0.52211 0.62227 0.0
C166 C 0.48793 0.51471 0.64097 0.0
C167 C 0.48058 0.53756 0.64988 0.0
C168 C 0.55081 0.42592 0.55569 0.0
C169 C 0.58248 0.44888 0.5497 0.0
C170 C 0.59493 0.44864 0.52291 0.0
C171 C 0.57593 0.42547 0.50189 0.0
C172 C 0.54428 0.40292 0.50771 0.0
C173 C 0.53187 0.40315 0.53445 0.0
C174 C 0.55204 0.41298 0.60412 0.0
C175 C 0.53664 0.38075 0.60894 0.0
C176 C 0.54992 0.36902 0.62828 0.0
C177 C 0.57889 0.38944 0.64307 0.0
C178 C 0.59457 0.42173 0.63823 0.0
C179 C 0.58132 0.43346 0.61878 0.0
C180 C 0.53424 0.45046 0.59354 0.0
C181 C 0.53525 0.47276 0.57454 0.0
C182 C 0.52892 0.49616 0.58398 0.0
C183 C 0.52071 0.49768 0.61248 0.0
C184 C 0.51894 0.47518 0.63132 0.0
C185 C 0.5251 0.45169 0.62189 0.0
H186 H 0.17022 0.66332 0.81633 0.0
N187 N 0.11967 0.60985 0.79715 0.0
H188 H 0.22111 0.6703 0.83536 0.0
H189 H 0.12852 0.56266 0.81834 0.0
H190 H 0.17897 0.56985 0.8373 0.0
H191 H 0.14211 0.57863 0.76415 0.0
H192 H 0.1659 0.59398 0.71747 0.0
H193 H 0.11729 0.65128 0.76324 0.0
H194 H 0.14139 0.6667 0.71598 0.0
H195 H 0.07678 0.6155 0.82753 0.0
H196 H 0.0901 0.54757 0.77888 0.0
H197 H 0.02263 0.57382 0.83918 0.0
H198 H 0.03686 0.50615 0.79115 0.0
H199 H 0.90475 0.49073 0.87292 0.0
H200 H 0.88339 0.496 0.91841 0.0
H201 H 0.8601 0.4022 0.93878 0.0
H202 H 0.8828 0.39726 0.8935 0.0
H203 H 0.84427 0.4313 0.85024 0.0
H204 H 0.80037 0.39731 0.81689 0.0
H205 H 0.8635 0.37678 0.76887 0.0
H206 H 0.90739 0.40907 0.8036 0.0
H207 H 0.91535 0.48955 0.82277 0.0
H208 H 0.96762 0.53233 0.80818 0.0
H209 H 0.01348 0.48427 0.84331 0.0
N210 N 0.90481 0.43798 0.85186 0.0
H211 H 0.96139 0.44223 0.85876 0.0
C212 C 0.14539 0.61263 0.81557 0.0
C213 C 0.17154 0.64283 0.82193 0.0
C214 C 0.20052 0.64682 0.83272 0.0
C215 C 0.20363 0.62055 0.83758 0.0
C216 C 0.17683 0.59035 0.83379 0.0
C217 C 0.1479 0.58634 0.82284 0.0
C218 C 0.12788 0.61394 0.76734 0.0
C219 C 0.1407 0.59714 0.75357 0.0
C220 C 0.15434 0.60589 0.72687 0.0
C221 C 0.1553 0.63138 0.71343 0.0
C222 C 0.14054 0.64677 0.72604 0.0
C223 C 0.12691 0.63804 0.7529 0.0
C224 C 0.08774 0.5848 0.80267 0.0
C225 C 0.06806 0.5917 0.81936 0.0
C226 C 0.03724 0.56802 0.82588 0.0
C227 C 0.02587 0.53691 0.81612 0.0
C228 C 0.0453 0.52999 0.79904 0.0
C229 C 0.0758 0.55376 0.79205 0.0
C230 C 0.89568 0.4435 0.8798 0.0
C231 C 0.89605 0.47157 0.88734 0.0
C232 C 0.88378 0.47464 0.91335 0.0
C233 C 0.87011 0.44946 0.93182 0.0
C234 C 0.87066 0.42191 0.9248 0.0
C235 C 0.8835 0.41906 0.89905 0.0
C236 C 0.87948 0.42247 0.82996 0.0
C237 C 0.84914 0.41973 0.83269 0.0
C238 C 0.82389 0.40037 0.81349 0.0
C239 C 0.82858 0.38414 0.79073 0.0
C240 C 0.85934 0.38886 0.78651 0.0
C241 C 0.88434 0.40732 0.80628 0.0
C242 C 0.93478 0.46302 0.8422 0.0
C243 C 0.93673 0.48845 0.82753 0.0
C244 C 0.96644 0.51274 0.8192 0.0
C245 C 0.99436 0.51143 0.82472 0.0
C246 C 0.99221 0.48565 0.83877 0.0
C247 C 0.96265 0.46179 0.84762 0.0
H248 H 0.51129 0.16505 0.01587 0.0
N249 N 0.51389 0.13497 0.96878 0.0
H250 H 0.55686 0.20913 0.0424 0.0
H251 H 0.57718 0.15218 0.964 0.0
H252 H 0.62231 0.19655 0.98975 0.0
H253 H 0.53916 0.11564 0.92588 0.0
H254 H 0.55418 0.13845 0.87877 0.0
H255 H 0.49905 0.17454 0.94514 0.0
H256 H 0.51399 0.19726 0.8977 0.0
H257 H 0.4515 0.09745 0.97311 0.0
H258 H 0.54079 0.09777 0.97504 0.0
H259 H 0.42223 0.04062 0.9787 0.0
H260 H 0.51175 0.04085 0.97994 0.0
H261 H 0.39354 0.85524 0.01925 0.0
H262 H 0.38145 0.84072 0.06836 0.0
H263 H 0.35882 0.91384 0.08295 0.0
H264 H 0.37015 0.92858 0.0328 0.0
H265 H 0.44571 0.90248 0.98701 0.0
H266 H 0.45325 0.86413 0.95885 0.0
H267 H 0.35534 0.81994 0.927 0.0
H268 H 0.34771 0.85827 0.95535 0.0
H269 H 0.37756 0.937 0.9564 0.0
H270 H 0.40939 0.99373 0.95042 0.0
H271 H 0.47912 5e-05 0.01332 0.0
N272 N 0.38942 0.9028 0.99199 0.0
H273 H 0.44738 0.94317 0.01865 0.0
C274 C 0.54067 0.15561 0.9877 0.0
C275 C 0.53547 0.1711 0.01078 0.0
C276 C 0.56137 0.19612 0.02588 0.0
C277 C 0.59281 0.20615 0.01775 0.0
C278 C 0.59816 0.1891 0.99624 0.0
C279 C 0.57231 0.16382 0.98146 0.0
C280 C 0.51801 0.14355 0.93918 0.0
C281 C 0.53274 0.13278 0.91977 0.0
C282 C 0.54126 0.1457 0.8928 0.0
C283 C 0.53508 0.16941 0.88486 0.0
C284 C 0.51866 0.17877 0.90345 0.0
C285 C 0.51024 0.16592 0.93042 0.0
C286 C 0.49816 0.10184 0.9737 0.0
C287 C 0.46473 0.08518 0.97482 0.0
C288 C 0.4481 0.05273 0.97774 0.0
C289 C 0.46465 0.03616 0.97947 0.0
C290 C 0.49832 0.05296 0.97886 0.0
C291 C 0.51497 0.08555 0.97598 0.0
C292 C 0.38373 0.89398 0.02178 0.0
C293 C 0.38645 0.86884 0.03248 0.0
C294 C 0.37933 0.8602 0.06076 0.0
C295 C 0.36935 0.87624 0.07912 0.0
C296 C 0.36659 0.90126 0.06896 0.0
C297 C 0.37321 0.90968 0.04042 0.0
C298 C 0.39604 0.88327 0.9731 0.0
C299 C 0.4261 0.88509 0.97347 0.0
C300 C 0.43036 0.86311 0.9576 0.0
C301 C 0.40482 0.83929 0.94096 0.0
C302 C 0.37528 0.83821 0.93974 0.0
C303 C 0.37096 0.86003 0.95575 0.0
C304 C 0.40996 0.93597 0.98795 0.0
C305 C 0.39985 0.95068 0.96866 0.0
C306 C 0.41795 0.98306 0.96548 0.0
C307 C 0.44661 0.00146 0.98166 0.0
C308 C 0.45728 0.98653 0.00041 0.0
C309 C 0.43915 0.95404 0.00352 0.0
H310 H 0.50921 0.3906 0.12267 0.0
N311 N 0.51118 0.43669 0.1547 0.0
H312 H 0.55486 0.38856 0.10267 0.0
H313 H 0.57256 0.4863 0.15275 0.0
H314 H 0.61836 0.48408 0.13329 0.0
H315 H 0.55193 0.47171 0.19954 0.0
H316 H 0.5588 0.45056 0.24397 0.0
H317 H 0.46985 0.38158 0.17539 0.0
H318 H 0.47704 0.36022 0.22004 0.0
H319 H 0.46285 0.42202 0.11841 0.0
H320 H 0.53306 0.49766 0.17366 0.0
H321 H 0.44021 0.45451 0.10487 0.0
H322 H 0.5099 0.52993 0.16124 0.0
H323 H 0.3602 0.5447 0.0696 0.0
H324 H 0.35547 0.55666 0.01953 0.0
H325 H 0.4584 0.61235 0.01655 0.0
H326 H 0.46312 0.60007 0.06628 0.0
H327 H 0.46199 0.62731 0.10882 0.0
H328 H 0.45903 0.66914 0.13552 0.0
H329 H 0.36591 0.60125 0.16488 0.0
H330 H 0.36877 0.55928 0.13791 0.0
H331 H 0.38454 0.50547 0.11145 0.0
H332 H 0.40913 0.47469 0.12499 0.0
H333 H 0.50279 0.55825 0.12339 0.0
N334 N 0.4134 0.56612 0.10171 0.0
H335 H 0.47772 0.58894 0.11101 0.0
C336 C 0.53744 0.43851 0.13906 0.0
C337 C 0.53285 0.41134 0.12438 0.0
C338 C 0.55883 0.41011 0.11322 0.0
C339 C 0.5899 0.43609 0.11672 0.0
C340 C 0.59451 0.46381 0.13046 0.0
C341 C 0.56838 0.46508 0.14146 0.0
C342 C 0.51022 0.42814 0.18405 0.0
C343 C 0.53443 0.44785 0.2043 0.0
C344 C 0.53843 0.43577 0.22974 0.0
C345 C 0.51843 0.4039 0.23514 0.0
C346 C 0.49247 0.38497 0.21628 0.0
C347 C 0.48839 0.39711 0.19089 0.0
C348 C 0.4993 0.45714 0.14721 0.0
C349 C 0.47323 0.44562 0.12772 0.0
C350 C 0.46022 0.46417 0.12021 0.0
C351 C 0.47295 0.49477 0.13223 0.0
C352 C 0.4996 0.50657 0.15142 0.0
C353 C 0.51275 0.48797 0.15878 0.0
C354 C 0.41187 0.5714 0.07168 0.0
C355 C 0.38171 0.5591 0.05797 0.0
C356 C 0.37903 0.56597 0.02957 0.0
C357 C 0.4066 0.58546 0.01448 0.0
C358 C 0.43689 0.59727 0.02791 0.0
C359 C 0.43955 0.59025 0.0563 0.0
C360 C 0.41537 0.59012 0.12125 0.0
C361 C 0.44133 0.62116 0.12158 0.0
C362 C 0.43973 0.64506 0.13691 0.0
C363 C 0.41228 0.63817 0.15214 0.0
C364 C 0.38737 0.60689 0.15341 0.0
C365 C 0.38895 0.58306 0.13804 0.0
C366 C 0.42917 0.5493 0.11003 0.0
C367 C 0.41036 0.51706 0.11413 0.0
C368 C 0.42453 0.49952 0.12164 0.0
C369 C 0.45803 0.51389 0.125 0.0
C370 C 0.47692 0.54644 0.12119 0.0
C371 C 0.46262 0.56403 0.11384 0.0
Mg372 Mg 0.60684 0.3458 0.34948 0.0
O373 O 0.60529 0.37667 0.38583 0.0
O374 O 0.62511 0.42556 0.37086 0.0
Mg375 Mg 0.63608 0.42474 0.32327 0.0
C376 C 0.61305 0.4053 0.3902 0.0
C377 C 0.57425 0.28496 0.38568 0.0
O378 O 0.5484 0.28021 0.37155 0.0
O379 O 0.66115 0.36962 0.35384 0.0
O380 O 0.67751 0.41609 0.33417 0.0
O381 O 0.55745 0.33332 0.3342 0.0
O382 O 0.60237 0.37357 0.31944 0.0
C383 C 0.68325 0.39607 0.34549 0.0
C384 C 0.5716 0.35777 0.31867 0.0
O385 O 0.60102 0.30944 0.38157 0.0
Mg386 Mg 0.28613 0.67274 0.58943 0.0
O387 O 0.25011 0.64026 0.55427 0.0
O388 O 0.21991 0.59312 0.57286 0.0
Mg389 Mg 0.23417 0.59688 0.62058 0.0
C390 C 0.22772 0.61154 0.55197 0.0
C391 C 0.33336 0.73606 0.56593 0.0
O392 O 0.32979 0.74334 0.59235 0.0
O393 O 0.31432 0.64727 0.58646 0.0
O394 O 0.28357 0.60341 0.60996 0.0
O395 O 0.25253 0.6887 0.60394 0.0
O396 O 0.25435 0.64811 0.62083 0.0
C397 C 0.30933 0.62175 0.59727 0.0
C398 C 0.24143 0.66537 0.62089 0.0
O399 O 0.31748 0.70758 0.55683 0.0
Mg400 Mg 0.63209 0.28083 0.75048 0.0
O401 O 0.6214 0.24171 0.71705 0.0
O402 O 0.63194 0.20689 0.73647 0.0
Mg403 Mg 0.65169 0.22544 0.78222 0.0
C404 C 0.62263 0.21649 0.71531 0.0
C405 C 0.62451 0.3331 0.72417 0.0
O406 O 0.63008 0.34232 0.75136 0.0
O407 O 0.68549 0.30273 0.74293 0.0
O408 O 0.69555 0.26875 0.76444 0.0
O409 O 0.58357 0.25315 0.76916 0.0
O410 O 0.62657 0.25202 0.78411 0.0
C411 C 0.70506 0.29387 0.7506 0.0
C412 C 0.59661 0.2424 0.78645 0.0
O413 O 0.62513 0.30865 0.71603 0.0
Mg414 Mg 0.40614 0.67908 0.85741 0.0
O415 O 0.40601 0.65006 0.89494 0.0
O416 O 0.38109 0.5997 0.87945 0.0
Mg417 Mg 0.37055 0.59759 0.83101 0.0
C418 C 0.39494 0.62098 0.89932 0.0
C419 C 0.40845 0.73918 0.87737 0.0
O420 O 0.39832 0.73531 0.85049 0.0
O421 O 0.35237 0.65905 0.86011 0.0
O422 O 0.33199 0.61111 0.83907 0.0
O423 O 0.45399 0.68763 0.84355 0.0
O424 O 0.40741 0.64753 0.82814 0.0
C425 C 0.3287 0.63317 0.85037 0.0
C426 C 0.43815 0.66211 0.82774 0.0
O427 O 0.4154 0.71973 0.8878 0.0
Mg428 Mg 0.74025 0.40165 0.05547 0.0
O429 O 0.76953 0.399 0.09362 0.0
O430 O 0.79671 0.37681 0.07663 0.0
Mg431 Mg 0.78347 0.36328 0.02898 0.0
C432 C 0.78949 0.38948 0.09717 0.0
C433 C 0.6871 0.41352 0.07105 0.0
O434 O 0.68227 0.40517 0.04366 0.0
O435 O 0.70395 0.34954 0.05742 0.0
O436 O 0.73042 0.32769 0.03759 0.0
O437 O 0.78164 0.44743 0.04182 0.0
O438 O 0.77151 0.40043 0.02649 0.0
C439 C 0.70514 0.32562 0.04799 0.0
C440 C 0.78925 0.43038 0.02596 0.0
O441 O 0.71087 0.41476 0.08437 0.0
Mg442 Mg 0.34217 0.76201 0.20687 0.0
O443 O 0.37707 0.79401 0.24281 0.0
O444 O 0.42398 0.82574 0.22301 0.0
Mg445 Mg 0.41792 0.81557 0.17419 0.0
C446 C 0.40632 0.81593 0.24476 0.0
C447 C 0.27879 0.71416 0.23258 0.0
O448 O 0.26913 0.72003 0.20829 0.0
O449 O 0.36769 0.73402 0.20303 0.0
O450 O 0.41106 0.76605 0.17854 0.0
O451 O 0.326 0.79651 0.19825 0.0
O452 O 0.36569 0.79538 0.17653 0.0
C453 C 0.39291 0.73975 0.18985 0.0
C454 C 0.3479 0.80769 0.17922 0.0
O455 O 0.30848 0.72874 0.23939 0.0
C456 C 0.21114 0.63508 0.25498 0.0
C457 C 0.21049 0.64104 0.28475 0.0
C458 C 0.2527 0.69588 0.27988 0.0
C459 C 0.25549 0.68905 0.2507 0.0
N460 N 0.24215 0.65039 0.21212 0.0
N461 N 0.23423 0.67534 0.32674 0.0
C462 C 0.23598 0.65816 0.23864 0.0
C463 C 0.23231 0.67097 0.29758 0.0
N464 N 0.18754 0.60768 0.24213 0.0
N465 N 0.26849 0.7263 0.2904 0.0
H466 H 0.21972 0.65765 0.34045 0.0
H467 H 0.25204 0.69561 0.33748 0.0
H468 H 0.28324 0.74528 0.278 0.0
H469 H 0.26468 0.73302 0.31061 0.0
H470 H 0.18487 0.60356 0.21998 0.0
H471 H 0.16885 0.59018 0.25337 0.0
H472 H 0.23085 0.62743 0.20359 0.0
H473 H 0.26086 0.66625 0.19979 0.0
C474 C 0.56221 0.20819 0.41412 0.0
C475 C 0.57473 0.21805 0.44254 0.0
C476 C 0.58163 0.27008 0.43491 0.0
C477 C 0.57271 0.26136 0.40554 0.0
N478 N 0.55866 0.22365 0.36602 0.0
N479 N 0.59913 0.25881 0.47973 0.0
C480 C 0.56381 0.23072 0.39483 0.0
C481 C 0.5851 0.24911 0.45294 0.0
N482 N 0.54849 0.1772 0.40568 0.0
N483 N 0.58582 0.298 0.44572 0.0
H484 H 0.60127 0.24386 0.49383 0.0
H485 H 0.6106 0.28212 0.48731 0.0
H486 H 0.58314 0.31379 0.43319 0.0
H487 H 0.58915 0.30435 0.46748 0.0
H488 H 0.53582 0.16792 0.38627 0.0
H489 H 0.54737 0.16013 0.41912 0.0
H490 H 0.55575 0.20296 0.3566 0.0
H491 H 0.56001 0.23955 0.35104 0.0
C492 C 0.37513 0.61114 0.63053 0.0
C493 C 0.38864 0.60581 0.60577 0.0
C494 C 0.34826 0.60818 0.57515 0.0
C495 C 0.3365 0.61603 0.59978 0.0
N496 N 0.34266 0.6312 0.65014 0.0
N497 N 0.39094 0.60242 0.55441 0.0
C498 C 0.35094 0.61912 0.62729 0.0
C499 C 0.376 0.60519 0.57798 0.0
N500 N 0.38501 0.608 0.65723 0.0
N501 N 0.33234 0.60273 0.54929 0.0
H502 H 0.4108 0.59945 0.55587 0.0
H503 H 0.38508 0.60509 0.53354 0.0
H504 H 0.31211 0.60492 0.5466 0.0
H505 H 0.33764 0.59389 0.53103 0.0
H506 H 0.37339 0.60788 0.67588 0.0
H507 H 0.40321 0.60287 0.66073 0.0
H508 H 0.355 0.63745 0.66989 0.0
H509 H 0.32535 0.63784 0.64877 0.0
C510 C 0.78989 0.32812 0.77446 0.0
C511 C 0.80062 0.36067 0.77262 0.0
C512 C 0.75342 0.34763 0.7419 0.0
C513 C 0.74054 0.31563 0.74844 0.0
N514 N 0.7546 0.27578 0.75406 0.0
N515 N 0.79561 0.40199 0.75119 0.0
C516 C 0.76152 0.30596 0.75921 0.0
C517 C 0.78346 0.37063 0.75489 0.0
N518 N 0.80507 0.31803 0.79251 0.0
N519 N 0.738 0.35546 0.72191 0.0
H520 H 0.81847 0.41903 0.75876 0.0
H521 H 0.78304 0.41134 0.7413 0.0
H522 H 0.71864 0.33841 0.7094 0.0
H523 H 0.74632 0.37813 0.71514 0.0
H524 H 0.79587 0.29442 0.79679 0.0
H525 H 0.82521 0.33312 0.80525 0.0
H526 H 0.7703 0.26794 0.75949 0.0
H527 H 0.73503 0.25998 0.74095 0.0
C528 C 0.39256 0.78354 0.93673 0.0
C529 C 0.40825 0.81426 0.92601 0.0
C530 C 0.4293 0.79656 0.8869 0.0
C531 C 0.41007 0.76512 0.89538 0.0
N532 N 0.36949 0.72789 0.92593 0.0
N533 N 0.43876 0.84974 0.88923 0.0
C534 C 0.39081 0.75835 0.91979 0.0
C535 C 0.42603 0.82078 0.90069 0.0
N536 N 0.37984 0.77856 0.96335 0.0
N537 N 0.45136 0.80336 0.86622 0.0
H538 H 0.43702 0.86815 0.89881 0.0
H539 H 0.44885 0.85482 0.86913 0.0
H540 H 0.45477 0.78625 0.85601 0.0
H541 H 0.46831 0.82619 0.86114 0.0
H542 H 0.37108 0.75734 0.97352 0.0
H543 H 0.38078 0.79649 0.97645 0.0
H544 H 0.35231 0.72171 0.94149 0.0
H545 H 0.36689 0.70862 0.91384 0.0
C546 C 0.63408 0.44878 0.08234 0.0
C547 C 0.61761 0.43341 0.10709 0.0
C548 C 0.64796 0.40589 0.10949 0.0
C549 C 0.66541 0.4223 0.08543 0.0
N550 N 0.68095 0.4652 0.05377 0.0
N551 N 0.61409 0.40347 0.1483 0.0
C552 C 0.66024 0.44556 0.07332 0.0
C553 C 0.62628 0.41393 0.122 0.0
N554 N 0.62392 0.46537 0.06673 0.0
N555 N 0.65059 0.38143 0.11941 0.0
H556 H 0.59828 0.40905 0.15818 0.0
H557 H 0.62197 0.39184 0.16148 0.0
H558 H 0.66578 0.37438 0.11067 0.0
H559 H 0.63571 0.36638 0.13473 0.0
H560 H 0.63265 0.47401 0.04671 0.0
H561 H 0.60492 0.4684 0.07267 0.0
H562 H 0.68025 0.48455 0.04628 0.0
H563 H 0.70095 0.46413 0.04729 0.0
C564 C 0.41117 0.80559 0.54246 0.0
C565 C 0.40233 0.80933 0.5144 0.0
C566 C 0.34757 0.76603 0.52058 0.0
C567 C 0.35715 0.76061 0.5477 0.0
N568 N 0.39986 0.77053 0.58149 0.0
N569 N 0.3642 0.78946 0.47442 0.0
C570 C 0.38948 0.77909 0.55785 0.0
C571 C 0.37111 0.78843 0.50274 0.0
N572 N 0.43989 0.82784 0.55477 0.0
N573 N 0.31584 0.75089 0.51239 0.0
H574 H 0.38087 0.80548 0.46063 0.0
H575 H 0.34294 0.77266 0.46401 0.0
H576 H 0.29773 0.73474 0.52505 0.0
H577 H 0.30718 0.75646 0.49426 0.0
H578 H 0.44604 0.8281 0.5763 0.0
H579 H 0.45647 0.84765 0.5442 0.0
H580 H 0.42388 0.78127 0.58809 0.0
H581 H 0.38502 0.75062 0.59283 0.0
C582 C 0.61847 0.37306 0.65767 0.0
C583 C 0.59208 0.37686 0.66444 0.0
C584 C 0.5859 0.35035 0.70946 0.0
C585 C 0.61387 0.34881 0.70386 0.0
N586 N 0.66016 0.36357 0.67527 0.0
N587 N 0.55477 0.37513 0.69907 0.0
C588 C 0.63115 0.36154 0.67867 0.0
C589 C 0.57708 0.36737 0.69108 0.0
N590 N 0.63071 0.37948 0.63088 0.0
N591 N 0.56669 0.33407 0.73135 0.0
H592 H 0.54765 0.3876 0.68614 0.0
H593 H 0.54556 0.37179 0.71954 0.0
H594 H 0.57154 0.32034 0.7448 0.0
H595 H 0.54425 0.3316 0.73441 0.0
H596 H 0.64753 0.37385 0.62362 0.0
H597 H 0.62226 0.38825 0.61503 0.0
H598 H 0.67542 0.37555 0.65882 0.0
H599 H 0.67035 0.35567 0.69036 0.0
C600 C 0.25393 0.62733 0.81686 0.0
C601 C 0.23592 0.62442 0.8415 0.0
C602 C 0.27821 0.62577 0.87229 0.0
C603 C 0.29694 0.63058 0.84779 0.0
N604 N 0.30574 0.64221 0.79772 0.0
N605 N 0.23175 0.62471 0.89281 0.0
C606 C 0.28565 0.6331 0.82033 0.0
C607 C 0.24833 0.62478 0.86932 0.0
N608 N 0.24039 0.62373 0.79004 0.0
N609 N 0.28859 0.62119 0.89813 0.0
H610 H 0.20954 0.62337 0.89121 0.0
H611 H 0.24083 0.62813 0.91377 0.0
H612 H 0.31046 0.62204 0.90093 0.0
H613 H 0.27477 0.61443 0.91627 0.0
H614 H 0.25084 0.62175 0.77136 0.0
H615 H 0.21747 0.62025 0.78638 0.0
H616 H 0.30017 0.64804 0.77804 0.0
H617 H 0.32924 0.64674 0.79929 0.0
C618 C 0.62499 0.26443 0.01408 0.0
C619 C 0.61973 0.23715 0.02819 0.0
C620 C 0.66781 0.26909 0.05897 0.0
C621 C 0.67465 0.29566 0.04292 0.0
N622 N 0.66242 0.31824 0.00278 0.0
N623 N 0.63617 0.21236 0.06287 0.0
C624 C 0.65377 0.29333 0.02004 0.0
C625 C 0.6411 0.23917 0.05044 0.0
N626 N 0.60248 0.26271 0.99482 0.0
N627 N 0.68658 0.27272 0.0826 0.0
H628 H 0.61615 0.19037 0.05787 0.0
H629 H 0.65252 0.21149 0.07699 0.0
H630 H 0.70632 0.29436 0.08914 0.0
H631 H 0.68146 0.25507 0.09688 0.0
H632 H 0.6029 0.28236 0.98671 0.0
H633 H 0.58193 0.24174 0.98835 0.0
H634 H 0.65041 0.31676 0.9836 0.0
H635 H 0.6832 0.34002 0.00625 0.0
C636 C 0.42163 0.68048 0.18906 0.0
C637 C 0.40729 0.664 0.16264 0.0
C638 C 0.38084 0.69478 0.1564 0.0
C639 C 0.39718 0.713 0.18159 0.0
N640 N 0.43533 0.72586 0.22064 0.0
N641 N 0.37778 0.65871 0.11865 0.0
C642 C 0.41824 0.70661 0.19762 0.0
C643 C 0.38806 0.67199 0.14565 0.0
N644 N 0.4378 0.67065 0.20615 0.0
N645 N 0.35804 0.699 0.1429 0.0
H646 H 0.38239 0.64179 0.10984 0.0
H647 H 0.36701 0.66631 0.10393 0.0
H648 H 0.35274 0.71624 0.14934 0.0
H649 H 0.34254 0.68386 0.12665 0.0
H650 H 0.44617 0.67955 0.22691 0.0
H651 H 0.44101 0.6519 0.20022 0.0
H652 H 0.45355 0.72461 0.23156 0.0
H653 H 0.43253 0.74451 0.22785 0.0
C654 C 0.75514 0.39603 0.31435 0.0
C655 C 0.77845 0.41185 0.33683 0.0
C656 C 0.73841 0.41469 0.36645 0.0
C657 C 0.71585 0.40096 0.34317 0.0
N658 N 0.70288 0.38141 0.29396 0.0
N659 N 0.79405 0.43876 0.38312 0.0
C660 C 0.72426 0.39238 0.31685 0.0
C661 C 0.77057 0.42185 0.36264 0.0
N662 N 0.76233 0.38381 0.29084 0.0
N663 N 0.72884 0.42041 0.3922 0.0
H664 H 0.81759 0.44368 0.38114 0.0
H665 H 0.79088 0.44952 0.40123 0.0
H666 H 0.70565 0.41606 0.3953 0.0
H667 H 0.74305 0.42758 0.41092 0.0
H668 H 0.74534 0.36863 0.27549 0.0
H669 H 0.78502 0.38697 0.28747 0.0
H670 H 0.70886 0.37867 0.27319 0.0
H671 H 0.6794 0.37685 0.29517 0.0
C672 C 0.21087 0.59371 0.47167 0.0
C673 C 0.17692 0.57833 0.47024 0.0
C674 C 0.17621 0.58616 0.52225 0.0
C675 C 0.21002 0.59926 0.52398 0.0
N676 N 0.25865 0.60955 0.50112 0.0
N677 N 0.12672 0.55509 0.49424 0.0
C678 C 0.22714 0.60143 0.49888 0.0
C679 C 0.15941 0.57311 0.49558 0.0
N680 N 0.22766 0.60175 0.447 0.0
N681 N 0.16028 0.58746 0.54571 0.0
H682 H 0.11361 0.54552 0.47503 0.0
H683 H 0.11279 0.54747 0.51231 0.0
H684 H 0.17154 0.59687 0.56563 0.0
H685 H 0.13638 0.58168 0.5449 0.0
H686 H 0.25247 0.61611 0.44674 0.0
H687 H 0.21665 0.5963 0.42662 0.0
H688 H 0.27144 0.60828 0.4839 0.0
H689 H 0.27124 0.61464 0.5207 0.0
C690 C 0.58276 0.18282 0.64198 0.0
C691 C 0.60194 0.17083 0.63112 0.0
C692 C 0.63531 0.18935 0.67525 0.0
C693 C 0.61441 0.19874 0.6872 0.0
N694 N 0.56314 0.19603 0.68438 0.0
N695 N 0.64055 0.15472 0.64096 0.0
C696 C 0.5865 0.19286 0.67132 0.0
C697 C 0.62626 0.17146 0.64896 0.0
N698 N 0.56218 0.18625 0.62412 0.0
N699 N 0.66481 0.19923 0.6877 0.0
H700 H 0.63392 0.14065 0.62217 0.0
H701 H 0.65639 0.15216 0.65446 0.0
H702 H 0.67374 0.21427 0.70581 0.0
H703 H 0.68192 0.1954 0.67809 0.0
H704 H 0.55019 0.19789 0.63049 0.0
H705 H 0.55943 0.1803 0.60226 0.0
H706 H 0.54107 0.18929 0.67438 0.0
H707 H 0.56434 0.20201 0.70614 0.0
C708 C 0.47317 0.61954 0.78664 0.0
C709 C 0.47424 0.63102 0.75886 0.0
C710 C 0.455 0.66535 0.77728 0.0
C711 C 0.45389 0.65386 0.80504 0.0
N712 N 0.46666 0.62471 0.83778 0.0
N713 N 0.47126 0.66814 0.72808 0.0
C714 C 0.46456 0.63241 0.81024 0.0
C715 C 0.46688 0.65509 0.75435 0.0
N716 N 0.47957 0.5958 0.79016 0.0
N717 N 0.44336 0.68512 0.77263 0.0
H718 H 0.47814 0.66017 0.71018 0.0
H719 H 0.47017 0.68827 0.72425 0.0
H720 H 0.436 0.69455 0.78907 0.0
H721 H 0.43931 0.69103 0.7524 0.0
H722 H 0.47605 0.58394 0.80908 0.0
H723 H 0.48714 0.58683 0.7735 0.0
H724 H 0.47655 0.61112 0.84362 0.0
H725 H 0.46056 0.63402 0.85527 0.0
C726 C 0.86402 0.45062 0.9852 0.0
C727 C 0.85232 0.45053 0.95709 0.0
C728 C 0.80517 0.4493 0.97703 0.0
C729 C 0.81417 0.44396 0.00436 0.0
N730 N 0.85159 0.43926 0.03527 0.0
N731 N 0.8097 0.44584 0.92575 0.0
C732 C 0.84364 0.44485 0.00876 0.0
C733 C 0.82256 0.44932 0.95284 0.0
N734 N 0.89466 0.45659 0.98927 0.0
N735 N 0.77956 0.45373 0.97414 0.0
H736 H 0.82101 0.44475 0.90729 0.0
H737 H 0.78645 0.44113 0.92159 0.0
H738 H 0.76595 0.45334 0.99142 0.0
H739 H 0.77377 0.46082 0.95527 0.0
H740 H 0.90561 0.45968 0.0094 0.0
H741 H 0.91013 0.46111 0.97239 0.0
H742 H 0.87079 0.43578 0.03929 0.0
H743 H 0.83795 0.43686 0.05317 0.0
C744 C 0.33009 0.84311 0.11521 0.0
C745 C 0.36185 0.86604 0.10896 0.0
C746 C 0.38101 0.85832 0.15511 0.0
C747 C 0.35059 0.83124 0.15862 0.0
N748 N 0.29586 0.79677 0.14132 0.0
N749 N 0.41764 0.89741 0.12296 0.0
C750 C 0.32472 0.82378 0.13895 0.0
C751 C 0.38728 0.87463 0.12921 0.0
N752 N 0.3052 0.83937 0.09801 0.0
N753 N 0.40378 0.86828 0.17667 0.0
H754 H 0.42259 0.91087 0.10483 0.0
H755 H 0.43801 0.90218 0.13498 0.0
H756 H 0.39951 0.85649 0.1957 0.0
H757 H 0.42557 0.88931 0.17678 0.0
H758 H 0.28123 0.82535 0.10303 0.0
H759 H 0.30853 0.85264 0.08001 0.0
H760 H 0.27771 0.78805 0.12552 0.0
H761 H 0.29049 0.78162 0.15812 0.0
C762 C 0.54849 0.37686 0.24788 0.0
C763 C 0.52889 0.38917 0.25673 0.0
C764 C 0.5346 0.37823 0.30677 0.0
C765 C 0.55371 0.36549 0.29769 0.0
N766 N 0.57197 0.34512 0.25953 0.0
N767 N 0.4988 0.39727 0.29313 0.0
C768 C 0.55854 0.36252 0.26819 0.0
C769 C 0.52045 0.38844 0.28579 0.0
N770 N 0.55854 0.37994 0.22027 0.0
N771 N 0.53107 0.38165 0.33539 0.0
H772 H 0.48857 0.40532 0.27822 0.0
H773 H 0.48927 0.39465 0.31339 0.0
H774 H 0.54042 0.37359 0.35113 0.0
H775 H 0.52043 0.39384 0.34371 0.0
H776 H 0.57612 0.37513 0.21358 0.0
H777 H 0.55117 0.38955 0.20432 0.0
H778 H 0.57304 0.33927 0.23814 0.0
H779 H 0.57921 0.33381 0.27382 0.0
C780 C 0.43778 0.82761 0.32202 0.0
C781 C 0.44641 0.85939 0.32783 0.0
C782 C 0.42607 0.86157 0.28014 0.0
C783 C 0.42015 0.83084 0.27335 0.0
N784 N 0.42454 0.78608 0.28605 0.0
N785 N 0.45434 0.9085 0.31094 0.0
C786 C 0.42722 0.81425 0.2938 0.0
C787 C 0.44226 0.87696 0.30641 0.0
N788 N 0.43852 0.80986 0.34371 0.0
N789 N 0.41479 0.87545 0.26215 0.0
H790 H 0.46633 0.92058 0.32997 0.0
H791 H 0.45506 0.92318 0.29497 0.0
H792 H 0.4016 0.86428 0.24338 0.0
H793 H 0.41554 0.8965 0.26727 0.0
H794 H 0.42916 0.7857 0.34155 0.0
H795 H 0.44616 0.81879 0.36464 0.0
H796 H 0.43268 0.77449 0.29898 0.0
H797 H 0.41647 0.7754 0.26569 0.0
C798 C 0.60839 0.41031 0.47096 0.0
C799 C 0.58907 0.42426 0.4737 0.0
C800 C 0.58688 0.42777 0.42157 0.0
C801 C 0.60723 0.41485 0.41883 0.0
N802 N 0.6437 0.40123 0.44108 0.0
N803 N 0.56596 0.45277 0.45285 0.0
C804 C 0.61993 0.40838 0.44363 0.0
C805 C 0.58032 0.43515 0.44935 0.0
N806 N 0.61468 0.3978 0.49424 0.0
N807 N 0.5722 0.43123 0.39783 0.0
H808 H 0.56058 0.45836 0.47294 0.0
H809 H 0.56206 0.4642 0.43619 0.0
H810 H 0.57604 0.42607 0.37702 0.0
H811 H 0.55414 0.43682 0.39885 0.0
H812 H 0.62532 0.38399 0.49286 0.0
H813 H 0.60715 0.39923 0.51476 0.0
H814 H 0.65609 0.39924 0.45858 0.0
H815 H 0.6533 0.40039 0.42144 0.0
C816 C 0.16394 0.6347 0.6603 0.0
C817 C 0.17632 0.64475 0.68876 0.0
C818 C 0.23115 0.67241 0.67179 0.0
C819 C 0.21884 0.66174 0.64339 0.0
N820 N 0.17444 0.63936 0.60932 0.0
N821 N 0.22036 0.67851 0.72138 0.0
C822 C 0.18542 0.64507 0.63721 0.0
C823 C 0.20956 0.66544 0.69439 0.0
N824 N 0.13188 0.61437 0.65558 0.0
N825 N 0.26356 0.68835 0.6772 0.0
H826 H 0.20533 0.67343 0.73867 0.0
H827 H 0.24376 0.69625 0.72634 0.0
H828 H 0.28023 0.69572 0.66103 0.0
H829 H 0.27412 0.69309 0.69768 0.0
H830 H 0.12163 0.60336 0.63579 0.0
H831 H 0.11552 0.60726 0.672 0.0
H832 H 0.15041 0.62951 0.60313 0.0
H833 H 0.18986 0.64692 0.59217 0.0
C834 C 0.57809 0.21768 0.86304 0.0
C835 C 0.55006 0.18773 0.8592 0.0
C836 C 0.55286 0.19269 0.80698 0.0
C837 C 0.57936 0.22361 0.81111 0.0
N838 N 0.61255 0.26821 0.84308 0.0
N839 N 0.50798 0.14802 0.82828 0.0
C840 C 0.59067 0.23687 0.83915 0.0
C841 C 0.53658 0.17556 0.83134 0.0
N842 N 0.59337 0.22743 0.88938 0.0
N843 N 0.54406 0.17935 0.77991 0.0
H844 H 0.49577 0.13479 0.8457 0.0
H845 H 0.49522 0.13945 0.80884 0.0
H846 H 0.55544 0.19136 0.7617 0.0
H847 H 0.52714 0.15579 0.77562 0.0
H848 H 0.61588 0.24742 0.89267 0.0
H849 H 0.58505 0.21413 0.90759 0.0
H850 H 0.619 0.27981 0.86314 0.0
H851 H 0.6219 0.28343 0.8262 0.0
C852 C 0.41219 0.58196 0.9612 0.0
C853 C 0.40365 0.59445 0.98492 0.0
C854 C 0.38602 0.62128 0.95225 0.0
C855 C 0.39775 0.61157 0.92874 0.0
N856 N 0.42752 0.58743 0.91164 0.0
N857 N 0.38805 0.63069 0.00361 0.0
C858 C 0.41229 0.59312 0.9334 0.0
C859 C 0.39218 0.61549 0.98062 0.0
N860 N 0.41937 0.55879 0.9651 0.0
N861 N 0.36771 0.63475 0.9475 0.0
H862 H 0.39246 0.62724 0.02476 0.0
H863 H 0.38311 0.64882 0.00162 0.0
H864 H 0.36179 0.63864 0.92706 0.0
H865 H 0.35572 0.63919 0.96364 0.0
H866 H 0.42233 0.54636 0.94821 0.0
H867 H 0.41958 0.55003 0.98515 0.0
H868 H 0.44149 0.57708 0.91463 0.0
H869 H 0.42881 0.5957 0.89112 0.0
C870 C 0.83109 0.37641 0.16094 0.0
C871 C 0.83736 0.402 0.17991 0.0
C872 C 0.81628 0.42179 0.14294 0.0
C873 C 0.80537 0.39364 0.12597 0.0
N874 N 0.79506 0.34018 0.12395 0.0
N875 N 0.82721 0.44433 0.19118 0.0
C876 C 0.81066 0.36974 0.13641 0.0
C877 C 0.8274 0.42336 0.17161 0.0
N878 N 0.84534 0.35899 0.1657 0.0
N879 N 0.81774 0.44768 0.13153 0.0
H880 H 0.83323 0.44507 0.21283 0.0
H881 H 0.81749 0.45843 0.18645 0.0
H882 H 0.81249 0.44873 0.11 0.0
H883 H 0.82807 0.46937 0.14265 0.0
H884 H 0.84348 0.3418 0.15102 0.0
H885 H 0.86185 0.36413 0.18255 0.0
H886 H 0.79638 0.3215 0.13245 0.0
H887 H 0.77776 0.33334 0.10749 0.0
loop_
_geom_bond_atom_site_label_1
_geom_bond_atom_site_label_2
_geom_bond_distance
_geom_bond_site_symmetry_2
_ccdc_geom_bond_type
H0 C27 0.929 . S
N1 C26 1.433 . S
N1 C32 1.435 . S
N1 C38 1.423 . S
H2 C28 0.930 . S
H3 C31 0.931 . S
H4 C30 0.929 . S
H5 C33 0.930 . S
H6 C34 0.932 . S
H7 C37 0.929 . S
H8 C36 0.931 . S
H9 C39 0.929 . S
H10 C43 0.932 . S
H11 C40 0.931 . S
H12 C42 0.929 . S
H13 C45 0.929 . S
H14 C46 0.930 . S
H15 C48 0.929 . S
H16 C49 0.931 . S
H17 C51 0.930 . S
H18 C52 0.932 . S
H19 C54 0.931 . S
H20 C55 0.929 . S
H21 C57 0.929 . S
H22 C58 0.931 . S
H23 C60 0.929 . S
N24 C44 1.433 . S
N24 C50 1.435 . S
N24 C56 1.423 . S
H25 C61 0.932 . S
C26 N1 1.433 . S
C26 C27 1.363 . S
C26 C31 1.370 . S
C27 H0 0.929 . S
C27 C26 1.363 . S
C27 C28 1.385 . S
C28 H2 0.930 . S
C28 C27 1.385 . S
C28 C29 1.357 . S
C29 C28 1.357 . S
C29 C30 1.406 . S
C30 H4 0.929 . S
C30 C29 1.406 . S
C30 C31 1.391 . S
C31 H3 0.931 . S
C31 C26 1.370 . S
C31 C30 1.391 . S
C32 N1 1.435 . S
C32 C33 1.358 . S
C32 C37 1.371 . S
C33 H5 0.930 . S
C33 C32 1.358 . S
C33 C34 1.405 . S
C34 H6 0.932 . S
C34 C33 1.405 . S
C34 C35 1.383 . S
C35 C34 1.383 . S
C35 C36 1.393 . S
C36 H8 0.931 . S
C36 C35 1.393 . S
C36 C37 1.382 . S
C37 H7 0.929 . S
C37 C32 1.371 . S
C37 C36 1.382 . S
C38 N1 1.423 . S
C38 C39 1.362 . S
C38 C43 1.388 . S
C39 H9 0.929 . S
C39 C38 1.362 . S
C39 C40 1.376 . S
C40 H11 0.931 . S
C40 C39 1.376 . S
C40 C41 1.396 . S
C41 C40 1.396 . S
C41 C42 1.348 . S
C41 C59 1.472 1_455 S
C42 H12 0.929 . S
C42 C41 1.348 . S
C42 C43 1.443 . S
C43 H10 0.932 . S
C43 C38 1.388 . S
C43 C42 1.443 . S
C44 N24 1.433 . S
C44 C45 1.363 . S
C44 C49 1.370 . S
C45 H13 0.929 . S
C45 C44 1.363 . S
C45 C46 1.385 . S
C46 H14 0.930 . S
C46 C45 1.385 . S
C46 C47 1.357 . S
C47 C46 1.357 . S
C47 C48 1.406 . S
C48 H15 0.929 . S
C48 C47 1.406 . S
C48 C49 1.391 . S
C49 H16 0.931 . S
C49 C44 1.370 . S
C49 C48 1.391 . S
C50 N24 1.435 . S
C50 C51 1.358 . S
C50 C55 1.371 . S
C51 H17 0.930 . S
C51 C50 1.358 . S
C51 C52 1.405 . S
C52 H18 0.932 . S
C52 C51 1.405 . S
C52 C53 1.383 . S
C53 C52 1.383 . S
C53 C54 1.393 . S
C54 H19 0.931 . S
C54 C53 1.393 . S
C54 C55 1.382 . S
C55 H20 0.929 . S
C55 C50 1.371 . S
C55 C54 1.382 . S
C56 N24 1.423 . S
C56 C57 1.362 . S
C56 C61 1.388 . S
C57 H21 0.929 . S
C57 C56 1.362 . S
C57 C58 1.376 . S
C58 H22 0.931 . S
C58 C57 1.376 . S
C58 C59 1.396 . S
C59 C41 1.472 1_655 S
C59 C58 1.396 . S
C59 C60 1.348 . S
C60 H23 0.929 . S
C60 C59 1.348 . S
C60 C61 1.443 . S
C61 H25 0.932 . S
C61 C56 1.388 . S
C61 C60 1.443 . S
H62 C89 0.929 . S
N63 C88 1.433 . S
N63 C94 1.435 . S
N63 C100 1.423 . S
H64 C90 0.930 . S
H65 C93 0.931 . S
H66 C92 0.929 . S
H67 C95 0.930 . S
H68 C96 0.932 . S
H69 C99 0.929 . S
H70 C98 0.931 . S
H71 C101 0.929 . S
H72 C105 0.932 . S
H73 C102 0.931 . S
H74 C104 0.929 1_545 S
H75 C107 0.929 . S
H76 C108 0.930 . S
H77 C110 0.929 . S
H78 C111 0.931 . S
H79 C113 0.930 . S
H80 C114 0.932 . S
H81 C116 0.931 . S
H82 C117 0.929 . S
H83 C119 0.929 . S
H84 C120 0.931 . S
H85 C122 0.929 . S
N86 C106 1.433 . S
N86 C112 1.435 . S
N86 C118 1.423 . S
H87 C123 0.932 . S
C88 N63 1.433 . S
C88 C89 1.363 . S
C88 C93 1.370 . S
C89 H62 0.929 . S
C89 C88 1.363 . S
C89 C90 1.385 . S
C90 H64 0.930 . S
C90 C89 1.385 . S
C90 C91 1.357 . S
C91 C90 1.357 . S
C91 C92 1.406 . S
C92 H66 0.929 . S
C92 C91 1.406 . S
C92 C93 1.391 . S
C93 H65 0.931 . S
C93 C88 1.370 . S
C93 C92 1.391 . S
C94 N63 1.435 . S
C94 C95 1.358 . S
C94 C99 1.371 . S
C95 H67 0.930 . S
C95 C94 1.358 . S
C95 C96 1.405 . S
C96 H68 0.932 . S
C96 C95 1.405 . S
C96 C97 1.383 . S
C97 C96 1.383 . S
C97 C98 1.393 . S
C98 H70 0.931 . S
C98 C97 1.393 . S
C98 C99 1.382 . S
C99 H69 0.929 . S
C99 C94 1.371 . S
C99 C98 1.382 . S
C100 N63 1.423 . S
C100 C101 1.362 . S
C100 C105 1.388 . S
C101 H71 0.929 . S
C101 C100 1.362 . S
C101 C102 1.376 . S
C102 H73 0.931 . S
C102 C101 1.376 . S
C102 C103 1.396 1_565 S
C103 C102 1.396 1_545 S
C103 C104 1.348 1_545 S
C103 C121 1.472 . S
C104 H74 0.929 1_565 S
C104 C103 1.348 1_565 S
C104 C105 1.443 . S
C105 H72 0.932 . S
C105 C100 1.388 . S
C105 C104 1.443 . S
C106 N86 1.433 . S
C106 C107 1.363 . S
C106 C111 1.370 . S
C107 H75 0.929 . S
C107 C106 1.363 . S
C107 C108 1.385 . S
C108 H76 0.930 . S
C108 C107 1.385 . S
C108 C109 1.357 . S
C109 C108 1.357 . S
C109 C110 1.406 . S
C110 H77 0.929 . S
C110 C109 1.406 . S
C110 C111 1.391 . S
C111 H78 0.931 . S
C111 C106 1.370 . S
C111 C110 1.391 . S
C112 N86 1.435 . S
C112 C113 1.358 . S
C112 C117 1.371 . S
C113 H79 0.930 . S
C113 C112 1.358 . S
C113 C114 1.405 . S
C114 H80 0.932 . S
C114 C113 1.405 . S
C114 C115 1.383 . S
C115 C114 1.383 . S
C115 C116 1.393 . S
C116 H81 0.931 . S
C116 C115 1.393 . S
C116 C117 1.382 . S
C117 H82 0.929 . S
C117 C112 1.371 . S
C117 C116 1.382 . S
C118 N86 1.423 . S
C118 C119 1.362 . S
C118 C123 1.388 . S
C119 H83 0.929 . S
C119 C118 1.362 . S
C119 C120 1.376 . S
C120 H84 0.931 . S
C120 C119 1.376 . S
C120 C121 1.396 . S
C121 C103 1.472 . S
C121 C120 1.396 . S
C121 C122 1.348 . S
C122 H85 0.929 . S
C122 C121 1.348 . S
C122 C123 1.443 . S
C123 H87 0.932 . S
C123 C118 1.388 . S
C123 C122 1.443 . S
H124 C151 0.929 . S
N125 C150 1.433 . S
N125 C156 1.435 . S
N125 C162 1.423 . S
H126 C152 0.930 . S
H127 C155 0.931 . S
H128 C154 0.929 . S
H129 C157 0.930 . S
H130 C158 0.932 . S
H131 C161 0.929 . S
H132 C160 0.931 . S
H133 C163 0.929 . S
H134 C167 0.932 . S
H135 C164 0.931 . S
H136 C166 0.929 . S
H137 C169 0.929 . S
H138 C170 0.930 . S
H139 C172 0.929 . S
H140 C173 0.931 . S
H141 C175 0.930 . S
H142 C176 0.932 . S
H143 C178 0.931 . S
H144 C179 0.929 . S
H145 C181 0.929 . S
H146 C182 0.931 . S
H147 C184 0.929 . S
N148 C168 1.433 . S
N148 C174 1.435 . S
N148 C180 1.423 . S
H149 C185 0.932 . S
C150 N125 1.433 . S
C150 C151 1.363 . S
C150 C155 1.370 . S
C151 H124 0.929 . S
C151 C150 1.363 . S
C151 C152 1.385 . S
C152 H126 0.930 . S
C152 C151 1.385 . S
C152 C153 1.357 . S
C153 C152 1.357 . S
C153 C154 1.406 . S
C154 H128 0.929 . S
C154 C153 1.406 . S
C154 C155 1.391 . S
C155 H127 0.931 . S
C155 C150 1.370 . S
C155 C154 1.391 . S
C156 N125 1.435 . S
C156 C157 1.358 . S
C156 C161 1.371 . S
C157 H129 0.930 . S
C157 C156 1.358 . S
C157 C158 1.405 . S
C158 H130 0.932 . S
C158 C157 1.405 . S
C158 C159 1.383 . S
C159 C158 1.383 . S
C159 C160 1.393 . S
C160 H132 0.931 . S
C160 C159 1.393 . S
C160 C161 1.382 . S
C161 H131 0.929 . S
C161 C156 1.371 . S
C161 C160 1.382 . S
C162 N125 1.423 . S
C162 C163 1.362 . S
C162 C167 1.388 . S
C163 H133 0.929 . S
C163 C162 1.362 . S
C163 C164 1.376 . S
C164 H135 0.931 . S
C164 C163 1.376 . S
C164 C165 1.396 . S
C165 C164 1.396 . S
C165 C166 1.348 . S
C165 C183 1.472 . S
C166 H136 0.929 . S
C166 C165 1.348 . S
C166 C167 1.443 . S
C167 H134 0.932 . S
C167 C162 1.388 . S
C167 C166 1.443 . S
C168 N148 1.433 . S
C168 C169 1.363 . S
C168 C173 1.370 . S
C169 H137 0.929 . S
C169 C168 1.363 . S
C169 C170 1.385 . S
C170 H138 0.930 . S
C170 C169 1.385 . S
C170 C171 1.357 . S
C171 C170 1.357 . S
C171 C172 1.406 . S
C172 H139 0.929 . S
C172 C171 1.406 . S
C172 C173 1.391 . S
C173 H140 0.931 . S
C173 C168 1.370 . S
C173 C172 1.391 . S
C174 N148 1.435 . S
C174 C175 1.358 . S
C174 C179 1.371 . S
C175 H141 0.930 . S
C175 C174 1.358 . S
C175 C176 1.405 . S
C176 H142 0.932 . S
C176 C175 1.405 . S
C176 C177 1.383 . S
C177 C176 1.383 . S
C177 C178 1.393 . S
C178 H143 0.931 . S
C178 C177 1.393 . S
C178 C179 1.382 . S
C179 H144 0.929 . S
C179 C174 1.371 . S
C179 C178 1.382 . S
C180 N148 1.423 . S
C180 C181 1.362 . S
C180 C185 1.388 . S
C181 H145 0.929 . S
C181 C180 1.362 . S
C181 C182 1.376 . S
C182 H146 0.931 . S
C182 C181 1.376 . S
C182 C183 1.396 . S
C183 C165 1.472 . S
C183 C182 1.396 . S
C183 C184 1.348 . S
C184 H147 0.929 . S
C184 C183 1.348 . S
C184 C185 1.443 . S
C185 H149 0.932 . S
C185 C180 1.388 . S
C185 C184 1.443 . S
H186 C213 0.929 . S
N187 C212 1.433 . S
N187 C218 1.435 . S
N187 C224 1.423 . S
H188 C214 0.930 . S
H189 C217 0.931 . S
H190 C216 0.929 . S
H191 C219 0.930 . S
H192 C220 0.932 . S
H193 C223 0.929 . S
H194 C222 0.931 . S
H195 C225 0.929 . S
H196 C229 0.932 . S
H197 C226 0.931 . S
H198 C228 0.929 . S
H199 C231 0.929 . S
H200 C232 0.930 . S
H201 C234 0.929 . S
H202 C235 0.931 . S
H203 C237 0.930 . S
H204 C238 0.932 . S
H205 C240 0.931 . S
H206 C241 0.929 . S
H207 C243 0.929 . S
H208 C244 0.931 . S
H209 C246 0.929 . S
N210 C230 1.433 . S
N210 C236 1.435 . S
N210 C242 1.423 . S
H211 C247 0.932 . S
C212 N187 1.433 . S
C212 C213 1.363 . S
C212 C217 1.370 . S
C213 H186 0.929 . S
C213 C212 1.363 . S
C213 C214 1.385 . S
C214 H188 0.930 . S
C214 C213 1.385 . S
C214 C215 1.357 . S
C215 C214 1.357 . S
C215 C216 1.406 . S
C216 H190 0.929 . S
C216 C215 1.406 . S
C216 C217 1.391 . S
C217 H189 0.931 . S
C217 C212 1.370 . S
C217 C216 1.391 . S
C218 N187 1.435 . S
C218 C219 1.358 . S
C218 C223 1.371 . S
C219 H191 0.930 . S
C219 C218 1.358 . S
C219 C220 1.405 . S
C220 H192 0.932 . S
C220 C219 1.405 . S
C220 C221 1.383 . S
C221 C220 1.383 . S
C221 C222 1.393 . S
C222 H194 0.931 . S
C222 C221 1.393 . S
C222 C223 1.382 . S
C223 H193 0.929 . S
C223 C218 1.371 . S
C223 C222 1.382 . S
C224 N187 1.423 . S
C224 C225 1.362 . S
C224 C229 1.388 . S
C225 H195 0.929 . S
C225 C224 1.362 . S
C225 C226 1.376 . S
C226 H197 0.931 . S
C226 C225 1.376 . S
C226 C227 1.396 . S
C227 C226 1.396 . S
C227 C228 1.348 . S
C227 C245 1.472 1_455 S
C228 H198 0.929 . S
C228 C227 1.348 . S
C228 C229 1.443 . S
C229 H196 0.932 . S
C229 C224 1.388 . S
C229 C228 1.443 . S
C230 N210 1.433 . S
C230 C231 1.363 . S
C230 C235 1.370 . S
C231 H199 0.929 . S
C231 C230 1.363 . S
C231 C232 1.385 . S
C232 H200 0.930 . S
C232 C231 1.385 . S
C232 C233 1.357 . S
C233 C232 1.357 . S
C233 C234 1.406 . S
C234 H201 0.929 . S
C234 C233 1.406 . S
C234 C235 1.391 . S
C235 H202 0.931 . S
C235 C230 1.370 . S
C235 C234 1.391 . S
C236 N210 1.435 . S
C236 C237 1.358 . S
C236 C241 1.371 . S
C237 H203 0.930 . S
C237 C236 1.358 . S
C237 C238 1.405 . S
C238 H204 0.932 . S
C238 C237 1.405 . S
C238 C239 1.383 . S
C239 C238 1.383 . S
C239 C240 1.393 . S
C240 H205 0.931 . S
C240 C239 1.393 . S
C240 C241 1.382 . S
C241 H206 0.929 . S
C241 C236 1.371 . S
C241 C240 1.382 . S
C242 N210 1.423 . S
C242 C243 1.362 . S
C242 C247 1.388 . S
C243 H207 0.929 . S
C243 C242 1.362 . S
C243 C244 1.376 . S
C244 H208 0.931 . S
C244 C243 1.376 . S
C244 C245 1.396 . S
C245 C227 1.472 1_655 S
C245 C244 1.396 . S
C245 C246 1.348 . S
C246 H209 0.929 . S
C246 C245 1.348 . S
C246 C247 1.443 . S
C247 H211 0.932 . S
C247 C242 1.388 . S
C247 C246 1.443 . S
H248 C275 0.929 . S
N249 C274 1.433 . S
N249 C280 1.435 . S
N249 C286 1.423 . S
H250 C276 0.930 . S
H251 C279 0.931 . S
H252 C278 0.929 . S
H253 C281 0.930 . S
H254 C282 0.932 . S
H255 C285 0.929 . S
H256 C284 0.931 . S
H257 C287 0.929 . S
H258 C291 0.932 . S
H259 C288 0.931 . S
H260 C290 0.929 . S
H261 C293 0.929 . S
H262 C294 0.930 . S
H263 C296 0.929 . S
H264 C297 0.931 . S
H265 C299 0.930 1_554 S
H266 C300 0.932 . S
H267 C302 0.931 . S
H268 C303 0.929 . S
H269 C305 0.929 . S
H270 C306 0.907 1_544 S
H271 C308 0.929 . S
N272 C292 1.433 . S
N272 C298 1.435 1_554 S
N272 C304 1.423 1_554 S
H273 C309 0.932 . S
C274 N249 1.433 . S
C274 C275 1.363 . S
C274 C279 1.370 . S
C275 H248 0.929 . S
C275 C274 1.363 . S
C275 C276 1.385 . S
C276 H250 0.930 . S
C276 C275 1.385 . S
C276 C277 1.357 1_556 S
C277 C276 1.357 1_554 S
C277 C278 1.406 . S
C278 H252 0.929 . S
C278 C277 1.406 . S
C278 C279 1.391 1_554 S
C279 H251 0.931 . S
C279 C274 1.370 . S
C279 C278 1.391 1_556 S
C280 N249 1.435 . S
C280 C281 1.358 . S
C280 C285 1.371 . S
C281 H253 0.930 . S
C281 C280 1.358 . S
C281 C282 1.405 . S
C282 H254 0.932 . S
C282 C281 1.405 . S
C282 C283 1.383 . S
C283 C282 1.383 . S
C283 C284 1.393 . S
C284 H256 0.931 . S
C284 C283 1.393 . S
C284 C285 1.382 . S
C285 H255 0.929 . S
C285 C280 1.371 . S
C285 C284 1.382 . S
C286 N249 1.423 . S
C286 C287 1.362 . S
C286 C291 1.388 . S
C287 H257 0.929 . S
C287 C286 1.362 . S
C287 C288 1.376 . S
C288 H259 0.931 . S
C288 C287 1.376 . S
C288 C289 1.396 . S
C289 C288 1.396 . S
C289 C290 1.348 . S
C289 C307 1.472 1_545 S
C290 H260 0.929 . S
C290 C289 1.348 . S
C290 C291 1.443 . S
C291 H258 0.932 . S
C291 C286 1.388 . S
C291 C290 1.443 . S
C292 N272 1.433 . S
C292 C293 1.363 . S
C292 C297 1.370 . S
C293 H261 0.929 . S
C293 C292 1.363 . S
C293 C294 1.385 . S
C294 H262 0.930 . S
C294 C293 1.385 . S
C294 C295 1.357 . S
C295 C294 1.357 . S
C295 C296 1.406 . S
C296 H263 0.929 . S
C296 C295 1.406 . S
C296 C297 1.391 . S
C297 H264 0.931 . S
C297 C292 1.370 . S
C297 C296 1.391 . S
C298 N272 1.435 1_556 S
C298 C299 1.358 . S
C298 C303 1.371 . S
C299 H265 0.930 1_556 S
C299 C298 1.358 . S
C299 C300 1.405 . S
C300 H266 0.932 . S
C300 C299 1.405 . S
C300 C301 1.383 . S
C301 C300 1.383 . S
C301 C302 1.393 . S
C302 H267 0.931 . S
C302 C301 1.393 . S
C302 C303 1.382 . S
C303 H268 0.929 . S
C303 C298 1.371 . S
C303 C302 1.382 . S
C304 N272 1.423 1_556 S
C304 C305 1.362 1_556 S
C304 C309 1.388 . S
C305 H269 0.929 . S
C305 C304 1.362 1_554 S
C305 C306 1.376 1_554 S
C306 H270 0.907 1_566 S
C306 C305 1.376 1_556 S
C306 C307 1.396 . S
C307 C289 1.472 1_565 S
C307 C306 1.396 . S
C307 C308 1.348 . S
C308 H271 0.929 . S
C308 C307 1.348 . S
C308 C309 1.443 . S
C309 H273 0.932 . S
C309 C304 1.388 . S
C309 C308 1.443 . S
H310 C337 0.929 . S
N311 C336 1.433 . S
N311 C342 1.435 . S
N311 C348 1.423 . S
H312 C338 0.930 . S
H313 C341 0.931 . S
H314 C340 0.929 . S
H315 C343 0.930 . S
H316 C344 0.932 . S
H317 C347 0.929 . S
H318 C346 0.931 . S
H319 C349 0.929 . S
H320 C353 0.932 . S
H321 C350 0.931 . S
H322 C352 0.929 . S
H323 C355 0.929 . S
H324 C356 0.930 . S
H325 C358 0.929 . S
H326 C359 0.931 . S
H327 C361 0.930 . S
H328 C362 0.932 . S
H329 C364 0.931 . S
H330 C365 0.929 . S
H331 C367 0.929 . S
H332 C368 0.931 . S
H333 C370 0.929 . S
N334 C354 1.433 . S
N334 C360 1.435 . S
N334 C366 1.423 . S
H335 C371 0.932 . S
C336 N311 1.433 . S
C336 C337 1.363 . S
C336 C341 1.370 . S
C337 H310 0.929 . S
C337 C336 1.363 . S
C337 C338 1.385 . S
C338 H312 0.930 . S
C338 C337 1.385 . S
C338 C339 1.357 . S
C339 C338 1.357 . S
C339 C340 1.406 . S
C340 H314 0.929 . S
C340 C339 1.406 . S
C340 C341 1.391 . S
C341 H313 0.931 . S
C341 C336 1.370 . S
C341 C340 1.391 . S
C342 N311 1.435 . S
C342 C343 1.358 . S
C342 C347 1.371 . S
C343 H315 0.930 . S
C343 C342 1.358 . S
C343 C344 1.405 . S
C344 H316 0.932 . S
C344 C343 1.405 . S
C344 C345 1.383 . S
C345 C344 1.383 . S
C345 C346 1.393 . S
C346 H318 0.931 . S
C346 C345 1.393 . S
C346 C347 1.382 . S
C347 H317 0.929 . S
C347 C342 1.371 . S
C347 C346 1.382 . S
C348 N311 1.423 . S
C348 C349 1.362 . S
C348 C353 1.388 . S
C349 H319 0.929 . S
C349 C348 1.362 . S
C349 C350 1.376 . S
C350 H321 0.931 . S
C350 C349 1.376 . S
C350 C351 1.396 . S
C351 C350 1.396 . S
C351 C352 1.348 . S
C351 C369 1.472 . S
C352 H322 0.929 . S
C352 C351 1.348 . S
C352 C353 1.443 . S
C353 H320 0.932 . S
C353 C348 1.388 . S
C353 C352 1.443 . S
C354 N334 1.433 . S
C354 C355 1.363 . S
C354 C359 1.370 . S
C355 H323 0.929 . S
C355 C354 1.363 . S
C355 C356 1.385 . S
C356 H324 0.930 . S
C356 C355 1.385 . S
C356 C357 1.357 . S
C357 C356 1.357 . S
C357 C358 1.406 . S
C358 H325 0.929 . S
C358 C357 1.406 . S
C358 C359 1.391 . S
C359 H326 0.931 . S
C359 C354 1.370 . S
C359 C358 1.391 . S
C360 N334 1.435 . S
C360 C361 1.358 . S
C360 C365 1.371 . S
C361 H327 0.930 . S
C361 C360 1.358 . S
C361 C362 1.405 . S
C362 H328 0.932 . S
C362 C361 1.405 . S
C362 C363 1.383 . S
C363 C362 1.383 . S
C363 C364 1.393 . S
C364 H329 0.931 . S
C364 C363 1.393 . S
C364 C365 1.382 . S
C365 H330 0.929 . S
C365 C360 1.371 . S
C365 C364 1.382 . S
C366 N334 1.423 . S
C366 C367 1.362 . S
C366 C371 1.388 . S
C367 H331 0.929 . S
C367 C366 1.362 . S
C367 C368 1.376 . S
C368 H332 0.931 . S
C368 C367 1.376 . S
C368 C369 1.396 . S
C369 C351 1.472 . S
C369 C368 1.396 . S
C369 C370 1.348 . S
C370 H333 0.929 . S
C370 C369 1.348 . S
C370 C371 1.443 . S
C371 H335 0.932 . S
C371 C366 1.388 . S
C371 C370 1.443 . S
Mg372 O373 2.028 . S
Mg372 O379 1.986 . S
Mg372 O381 2.114 . S
Mg372 O382 2.251 . S
Mg372 O385 2.010 . S
O373 Mg372 2.028 . S
O373 C376 1.250 . S
O374 Mg375 2.028 . S
O374 C376 1.248 . S
Mg375 O374 2.028 . S
Mg375 O380 2.032 . S
Mg375 O382 2.079 . S
C376 O373 1.250 . S
C376 O374 1.248 . S
C377 O378 1.264 . S
C377 O385 1.249 . S
O378 C377 1.264 . S
O379 Mg372 1.986 . S
O379 C383 1.246 . S
O380 Mg375 2.032 . S
O380 C383 1.259 . S
O381 Mg372 2.114 . S
O381 C384 1.252 . S
O382 Mg372 2.251 . S
O382 Mg375 2.079 . S
O382 C384 1.273 . S
C383 O379 1.246 . S
C383 O380 1.259 . S
C384 O381 1.252 . S
C384 O382 1.273 . S
O385 Mg372 2.010 . S
O385 C377 1.249 . S
Mg386 O387 2.028 . S
Mg386 O393 1.986 . S
Mg386 O395 2.114 . S
Mg386 O396 2.251 . S
Mg386 O399 2.010 . S
O387 Mg386 2.028 . S
O387 C390 1.250 . S
O388 Mg389 2.028 . S
O388 C390 1.248 . S
Mg389 O388 2.028 . S
Mg389 O394 2.032 . S
Mg389 O396 2.079 . S
C390 O387 1.250 . S
C390 O388 1.248 . S
C391 O392 1.264 . S
C391 O399 1.249 . S
O392 C391 1.264 . S
O393 Mg386 1.986 . S
O393 C397 1.246 . S
O394 Mg389 2.032 . S
O394 C397 1.259 . S
O395 Mg386 2.114 . S
O395 C398 1.252 . S
O396 Mg386 2.251 . S
O396 Mg389 2.079 . S
O396 C398 1.273 . S
C397 O393 1.246 . S
C397 O394 1.259 . S
C398 O395 1.252 . S
C398 O396 1.273 . S
O399 Mg386 2.010 . S
O399 C391 1.249 . S
Mg400 O401 2.028 . S
Mg400 O407 1.986 . S
Mg400 O409 2.114 . S
Mg400 O410 2.251 . S
Mg400 O413 2.010 . S
O401 Mg400 2.028 . S
O401 C404 1.250 . S
O402 Mg403 2.028 . S
O402 C404 1.248 . S
Mg403 O402 2.028 . S
Mg403 O408 2.032 . S
Mg403 O410 2.079 . S
C404 O401 1.250 . S
C404 O402 1.248 . S
C405 O406 1.264 . S
C405 O413 1.249 . S
O406 C405 1.264 . S
O407 Mg400 1.986 . S
O407 C411 1.246 . S
O408 Mg403 2.032 . S
O408 C411 1.259 . S
O409 Mg400 2.114 . S
O409 C412 1.252 . S
O410 Mg400 2.251 . S
O410 Mg403 2.079 . S
O410 C412 1.273 . S
C411 O407 1.246 . S
C411 O408 1.259 . S
C412 O409 1.252 . S
C412 O410 1.273 . S
O413 Mg400 2.010 . S
O413 C405 1.249 . S
Mg414 O415 2.028 . S
Mg414 O421 1.986 . S
Mg414 O423 2.114 . S
Mg414 O424 2.251 . S
Mg414 O427 2.010 . S
O415 Mg414 2.028 . S
O415 C418 1.250 . S
O416 Mg417 2.028 . S
O416 C418 1.248 . S
Mg417 O416 2.028 . S
Mg417 O422 2.032 . S
Mg417 O424 2.079 . S
C418 O415 1.250 . S
C418 O416 1.248 . S
C419 O420 1.264 . S
C419 O427 1.249 . S
O420 C419 1.264 . S
O421 Mg414 1.986 . S
O421 C425 1.246 . S
O422 Mg417 2.032 . S
O422 C425 1.259 . S
O423 Mg414 2.114 . S
O423 C426 1.252 . S
O424 Mg414 2.251 . S
O424 Mg417 2.079 . S
O424 C426 1.273 . S
C425 O421 1.246 . S
C425 O422 1.259 . S
C426 O423 1.252 . S
C426 O424 1.273 . S
O427 Mg414 2.010 . S
O427 C419 1.249 . S
Mg428 O429 2.028 . S
Mg428 O435 1.986 . S
Mg428 O437 2.114 . S
Mg428 O438 2.251 . S
Mg428 O441 2.010 . S
O429 Mg428 2.028 . S
O429 C432 1.250 . S
O430 Mg431 2.028 . S
O430 C432 1.248 . S
Mg431 O430 2.028 . S
Mg431 O436 2.032 . S
Mg431 O438 2.079 . S
C432 O429 1.250 . S
C432 O430 1.248 . S
C433 O434 1.264 . S
C433 O441 1.249 . S
O434 C433 1.264 . S
O435 Mg428 1.986 . S
O435 C439 1.246 . S
O436 Mg431 2.032 . S
O436 C439 1.259 . S
O437 Mg428 2.114 . S
O437 C440 1.252 . S
O438 Mg428 2.251 . S
O438 Mg431 2.079 . S
O438 C440 1.273 . S
C439 O435 1.246 . S
C439 O436 1.259 . S
C440 O437 1.252 . S
C440 O438 1.273 . S
O441 Mg428 2.010 . S
O441 C433 1.249 . S
Mg442 O443 2.028 . S
Mg442 O449 1.986 . S
Mg442 O451 2.114 . S
Mg442 O452 2.251 . S
Mg442 O455 2.010 . S
O443 Mg442 2.028 . S
O443 C446 1.250 . S
O444 Mg445 2.028 . S
O444 C446 1.248 . S
Mg445 O444 2.028 . S
Mg445 O450 2.032 . S
Mg445 O452 2.079 . S
C446 O443 1.250 . S
C446 O444 1.248 . S
C447 O448 1.264 . S
C447 O455 1.249 . S
O448 C447 1.264 . S
O449 Mg442 1.986 . S
O449 C453 1.246 . S
O450 Mg445 2.032 . S
O450 C453 1.259 . S
O451 Mg442 2.114 . S
O451 C454 1.252 . S
O452 Mg442 2.251 . S
O452 Mg445 2.079 . S
O452 C454 1.273 . S
C453 O449 1.246 . S
C453 O450 1.259 . S
C454 O451 1.252 . S
C454 O452 1.273 . S
O455 Mg442 2.010 . S
O455 C447 1.249 . S
C456 C457 1.363 . S
C456 C462 1.379 . S
C456 N464 1.356 . S
C457 C456 1.363 . S
C457 C463 1.363 . S
C458 C459 1.363 . S
C458 C463 1.379 . S
C458 N465 1.356 . S
C459 C458 1.363 . S
C459 C462 1.363 . S
N460 C462 1.356 . S
N460 H472 0.984 . S
N460 H473 0.985 . S
N461 C463 1.356 . S
N461 H466 0.984 . S
N461 H467 0.985 . S
C462 C456 1.379 . S
C462 C459 1.363 . S
C462 N460 1.356 . S
C463 C457 1.363 . S
C463 C458 1.379 . S
C463 N461 1.356 . S
N464 C456 1.356 . S
N464 H470 0.984 . S
N464 H471 0.984 . S
N465 C458 1.356 . S
N465 H468 0.984 . S
N465 H469 0.985 . S
H466 N461 0.984 . S
H467 N461 0.985 . S
H468 N465 0.984 . S
H469 N465 0.985 . S
H470 N464 0.984 . S
H471 N464 0.984 . S
H472 N460 0.984 . S
H473 N460 0.985 . S
C474 C475 1.363 . S
C474 C480 1.379 . S
C474 N482 1.356 . S
C475 C474 1.363 . S
C475 C481 1.363 . S
C476 C477 1.363 . S
C476 C481 1.379 . S
C476 N483 1.356 . S
C477 C476 1.363 . S
C477 C480 1.363 . S
N478 C480 1.356 . S
N478 H490 0.984 . S
N478 H491 0.985 . S
N479 C481 1.356 . S
N479 H484 0.984 . S
N479 H485 0.985 . S
C480 C474 1.379 . S
C480 C477 1.363 . S
C480 N478 1.356 . S
C481 C475 1.363 . S
C481 C476 1.379 . S
C481 N479 1.356 . S
N482 C474 1.356 . S
N482 H488 0.984 . S
N482 H489 0.984 . S
N483 C476 1.356 . S
N483 H486 0.984 . S
N483 H487 0.985 . S
H484 N479 0.984 . S
H485 N479 0.985 . S
H486 N483 0.984 . S
H487 N483 0.985 . S
H488 N482 0.984 . S
H489 N482 0.984 . S
H490 N478 0.984 . S
H491 N478 0.985 . S
C492 C493 1.363 . S
C492 C498 1.379 . S
C492 N500 1.356 . S
C493 C492 1.363 . S
C493 C499 1.363 . S
C494 C495 1.363 . S
C494 C499 1.379 . S
C494 N501 1.356 . S
C495 C494 1.363 . S
C495 C498 1.363 . S
N496 C498 1.356 . S
N496 H508 0.984 . S
N496 H509 0.985 . S
N497 C499 1.356 . S
N497 H502 0.984 . S
N497 H503 0.985 . S
C498 C492 1.379 . S
C498 C495 1.363 . S
C498 N496 1.356 . S
C499 C493 1.363 . S
C499 C494 1.379 . S
C499 N497 1.356 . S
N500 C492 1.356 . S
N500 H506 0.984 . S
N500 H507 0.984 . S
N501 C494 1.356 . S
N501 H504 0.984 . S
N501 H505 0.985 . S
H502 N497 0.984 . S
H503 N497 0.985 . S
H504 N501 0.984 . S
H505 N501 0.985 . S
H506 N500 0.984 . S
H507 N500 0.984 . S
H508 N496 0.984 . S
H509 N496 0.985 . S
C510 C511 1.363 . S
C510 C516 1.379 . S
C510 N518 1.356 . S
C511 C510 1.363 . S
C511 C517 1.363 . S
C512 C513 1.363 . S
C512 C517 1.379 . S
C512 N519 1.356 . S
C513 C512 1.363 . S
C513 C516 1.363 . S
N514 C516 1.356 . S
N514 H526 0.984 . S
N514 H527 0.985 . S
N515 C517 1.356 . S
N515 H520 0.984 . S
N515 H521 0.985 . S
C516 C510 1.379 . S
C516 C513 1.363 . S
C516 N514 1.356 . S
C517 C511 1.363 . S
C517 C512 1.379 . S
C517 N515 1.356 . S
N518 C510 1.356 . S
N518 H524 0.984 . S
N518 H525 0.984 . S
N519 C512 1.356 . S
N519 H522 0.984 . S
N519 H523 0.985 . S
H520 N515 0.984 . S
H521 N515 0.985 . S
H522 N519 0.984 . S
H523 N519 0.985 . S
H524 N518 0.984 . S
H525 N518 0.984 . S
H526 N514 0.984 . S
H527 N514 0.985 . S
C528 C529 1.363 . S
C528 C534 1.379 . S
C528 N536 1.356 . S
C529 C528 1.363 . S
C529 C535 1.363 . S
C530 C531 1.363 . S
C530 C535 1.379 . S
C530 N537 1.356 . S
C531 C530 1.363 . S
C531 C534 1.363 . S
N532 C534 1.356 . S
N532 H544 0.984 . S
N532 H545 0.985 . S
N533 C535 1.356 . S
N533 H538 0.984 . S
N533 H539 0.985 . S
C534 C528 1.379 . S
C534 C531 1.363 . S
C534 N532 1.356 . S
C535 C529 1.363 . S
C535 C530 1.379 . S
C535 N533 1.356 . S
N536 C528 1.356 . S
N536 H542 0.984 . S
N536 H543 0.984 . S
N537 C530 1.356 . S
N537 H540 0.984 . S
N537 H541 0.985 . S
H538 N533 0.984 . S
H539 N533 0.985 . S
H540 N537 0.984 . S
H541 N537 0.985 . S
H542 N536 0.984 . S
H543 N536 0.984 . S
H544 N532 0.984 . S
H545 N532 0.985 . S
C546 C547 1.363 . S
C546 C552 1.379 . S
C546 N554 1.356 . S
C547 C546 1.363 . S
C547 C553 1.363 . S
C548 C549 1.363 . S
C548 C553 1.379 . S
C548 N555 1.356 . S
C549 C548 1.363 . S
C549 C552 1.363 . S
N550 C552 1.356 . S
N550 H562 0.984 . S
N550 H563 0.985 . S
N551 C553 1.356 . S
N551 H556 0.984 . S
N551 H557 0.985 . S
C552 C546 1.379 . S
C552 C549 1.363 . S
C552 N550 1.356 . S
C553 C547 1.363 . S
C553 C548 1.379 . S
C553 N551 1.356 . S
N554 C546 1.356 . S
N554 H560 0.984 . S
N554 H561 0.984 . S
N555 C548 1.356 . S
N555 H558 0.984 . S
N555 H559 0.985 . S
H556 N551 0.984 . S
H557 N551 0.985 . S
H558 N555 0.984 . S
H559 N555 0.985 . S
H560 N554 0.984 . S
H561 N554 0.984 . S
H562 N550 0.984 . S
H563 N550 0.985 . S
C564 C565 1.363 . S
C564 C570 1.379 . S
C564 N572 1.356 . S
C565 C564 1.363 . S
C565 C571 1.363 . S
C566 C567 1.363 . S
C566 C571 1.379 . S
C566 N573 1.356 . S
C567 C566 1.363 . S
C567 C570 1.363 . S
N568 C570 1.356 . S
N568 H580 0.984 . S
N568 H581 0.985 . S
N569 C571 1.356 . S
N569 H574 0.984 . S
N569 H575 0.985 . S
C570 C564 1.379 . S
C570 C567 1.363 . S
C570 N568 1.356 . S
C571 C565 1.363 . S
C571 C566 1.379 . S
C571 N569 1.356 . S
N572 C564 1.356 . S
N572 H578 0.984 . S
N572 H579 0.984 . S
N573 C566 1.356 . S
N573 H576 0.984 . S
N573 H577 0.985 . S
H574 N569 0.984 . S
H575 N569 0.985 . S
H576 N573 0.984 . S
H577 N573 0.985 . S
H578 N572 0.984 . S
H579 N572 0.984 . S
H580 N568 0.984 . S
H581 N568 0.985 . S
C582 C583 1.363 . S
C582 C588 1.379 . S
C582 N590 1.356 . S
C583 C582 1.363 . S
C583 C589 1.363 . S
C584 C585 1.363 . S
C584 C589 1.379 . S
C584 N591 1.356 . S
C585 C584 1.363 . S
C585 C588 1.363 . S
N586 C588 1.356 . S
N586 H598 0.984 . S
N586 H599 0.985 . S
N587 C589 1.356 . S
N587 H592 0.984 . S
N587 H593 0.985 . S
C588 C582 1.379 . S
C588 C585 1.363 . S
C588 N586 1.356 . S
C589 C583 1.363 . S
C589 C584 1.379 . S
C589 N587 1.356 . S
N590 C582 1.356 . S
N590 H596 0.984 . S
N590 H597 0.984 . S
N591 C584 1.356 . S
N591 H594 0.984 . S
N591 H595 0.985 . S
H592 N587 0.984 . S
H593 N587 0.985 . S
H594 N591 0.984 . S
H595 N591 0.985 . S
H596 N590 0.984 . S
H597 N590 0.984 . S
H598 N586 0.984 . S
H599 N586 0.985 . S
C600 C601 1.363 . S
C600 C606 1.379 . S
C600 N608 1.356 . S
C601 C600 1.363 . S
C601 C607 1.363 . S
C602 C603 1.363 . S
C602 C607 1.379 . S
C602 N609 1.356 . S
C603 C602 1.363 . S
C603 C606 1.363 . S
N604 C606 1.356 . S
N604 H616 0.984 . S
N604 H617 0.985 . S
N605 C607 1.356 . S
N605 H610 0.984 . S
N605 H611 0.985 . S
C606 C600 1.379 . S
C606 C603 1.363 . S
C606 N604 1.356 . S
C607 C601 1.363 . S
C607 C602 1.379 . S
C607 N605 1.356 . S
N608 C600 1.356 . S
N608 H614 0.984 . S
N608 H615 0.984 . S
N609 C602 1.356 . S
N609 H612 0.984 . S
N609 H613 0.985 . S
H610 N605 0.984 . S
H611 N605 0.985 . S
H612 N609 0.984 . S
H613 N609 0.985 . S
H614 N608 0.984 . S
H615 N608 0.984 . S
H616 N604 0.984 . S
H617 N604 0.985 . S
C618 C619 1.363 . S
C618 C624 1.379 . S
C618 N626 1.374 . S
C619 C618 1.363 . S
C619 C625 1.363 . S
C620 C621 1.363 . S
C620 C625 1.379 . S
C620 N627 1.356 . S
C621 C620 1.363 . S
C621 C624 1.363 . S
N622 C624 1.356 . S
N622 H634 0.984 1_554 S
N622 H635 0.985 . S
N623 C625 1.356 . S
N623 H628 0.984 . S
N623 H629 0.985 . S
C624 C618 1.379 . S
C624 C621 1.363 . S
C624 N622 1.356 . S
C625 C619 1.363 . S
C625 C620 1.379 . S
C625 N623 1.356 . S
N626 C618 1.374 . S
N626 H632 0.964 1_554 S
N626 H633 0.988 . S
N627 C620 1.356 . S
N627 H630 0.984 . S
N627 H631 0.985 . S
H628 N623 0.984 . S
H629 N623 0.985 . S
H630 N627 0.984 . S
H631 N627 0.985 . S
H632 N626 0.964 1_556 S
H633 N626 0.988 . S
H634 N622 0.984 1_556 S
H635 N622 0.985 . S
C636 C637 1.363 . S
C636 C642 1.379 . S
C636 N644 1.356 . S
C637 C636 1.363 . S
C637 C643 1.363 . S
C638 C639 1.363 . S
C638 C643 1.379 . S
C638 N645 1.356 . S
C639 C638 1.363 . S
C639 C642 1.363 . S
N640 C642 1.356 . S
N640 H652 0.984 . S
N640 H653 0.985 . S
N641 C643 1.356 . S
N641 H646 0.984 . S
N641 H647 0.985 . S
C642 C636 1.379 . S
C642 C639 1.363 . S
C642 N640 1.356 . S
C643 C637 1.363 . S
C643 C638 1.379 . S
C643 N641 1.356 . S
N644 C636 1.356 . S
N644 H650 0.984 . S
N644 H651 0.984 . S
N645 C638 1.356 . S
N645 H648 0.984 . S
N645 H649 0.985 . S
H646 N641 0.984 . S
H647 N641 0.985 . S
H648 N645 0.984 . S
H649 N645 0.985 . S
H650 N644 0.984 . S
H651 N644 0.984 . S
H652 N640 0.984 . S
H653 N640 0.985 . S
C654 C655 1.363 . S
C654 C660 1.379 . S
C654 N662 1.356 . S
C655 C654 1.363 . S
C655 C661 1.363 . S
C656 C657 1.363 . S
C656 C661 1.379 . S
C656 N663 1.356 . S
C657 C656 1.363 . S
C657 C660 1.363 . S
N658 C660 1.356 . S
N658 H670 0.984 . S
N658 H671 0.985 . S
N659 C661 1.356 . S
N659 H664 0.984 . S
N659 H665 0.985 . S
C660 C654 1.379 . S
C660 C657 1.363 . S
C660 N658 1.356 . S
C661 C655 1.363 . S
C661 C656 1.379 . S
C661 N659 1.356 . S
N662 C654 1.356 . S
N662 H668 0.984 . S
N662 H669 0.984 . S
N663 C656 1.356 . S
N663 H666 0.984 . S
N663 H667 0.985 . S
H664 N659 0.984 . S
H665 N659 0.985 . S
H666 N663 0.984 . S
H667 N663 0.985 . S
H668 N662 0.984 . S
H669 N662 0.984 . S
H670 N658 0.984 . S
H671 N658 0.985 . S
C672 C673 1.363 . S
C672 C678 1.379 . S
C672 N680 1.356 . S
C673 C672 1.363 . S
C673 C679 1.363 . S
C674 C675 1.363 . S
C674 C679 1.379 . S
C674 N681 1.356 . S
C675 C674 1.363 . S
C675 C678 1.363 . S
N676 C678 1.356 . S
N676 H688 0.984 . S
N676 H689 0.985 . S
N677 C679 1.356 . S
N677 H682 0.984 . S
N677 H683 0.985 . S
C678 C672 1.379 . S
C678 C675 1.363 . S
C678 N676 1.356 . S
C679 C673 1.363 . S
C679 C674 1.379 . S
C679 N677 1.356 . S
N680 C672 1.356 . S
N680 H686 0.984 . S
N680 H687 0.984 . S
N681 C674 1.356 . S
N681 H684 0.984 . S
N681 H685 0.985 . S
H682 N677 0.984 . S
H683 N677 0.985 . S
H684 N681 0.984 . S
H685 N681 0.985 . S
H686 N680 0.984 . S
H687 N680 0.984 . S
H688 N676 0.984 . S
H689 N676 0.985 . S
C690 C691 1.363 . S
C690 C696 1.379 . S
C690 N698 1.356 . S
C691 C690 1.363 . S
C691 C697 1.363 . S
C692 C693 1.363 . S
C692 C697 1.379 . S
C692 N699 1.356 . S
C693 C692 1.363 . S
C693 C696 1.363 . S
N694 C696 1.356 . S
N694 H706 0.984 . S
N694 H707 0.985 . S
N695 C697 1.356 . S
N695 H700 0.984 . S
N695 H701 0.985 . S
C696 C690 1.379 . S
C696 C693 1.363 . S
C696 N694 1.356 . S
C697 C691 1.363 . S
C697 C692 1.379 . S
C697 N695 1.356 . S
N698 C690 1.356 . S
N698 H704 0.984 . S
N698 H705 0.984 . S
N699 C692 1.356 . S
N699 H702 0.984 . S
N699 H703 0.985 . S
H700 N695 0.984 . S
H701 N695 0.985 . S
H702 N699 0.984 . S
H703 N699 0.985 . S
H704 N698 0.984 . S
H705 N698 0.984 . S
H706 N694 0.984 . S
H707 N694 0.985 . S
C708 C709 1.363 . S
C708 C714 1.379 . S
C708 N716 1.356 . S
C709 C708 1.363 . S
C709 C715 1.363 . S
C710 C711 1.363 . S
C710 C715 1.379 . S
C710 N717 1.356 . S
C711 C710 1.363 . S
C711 C714 1.363 . S
N712 C714 1.356 . S
N712 H724 0.984 . S
N712 H725 0.985 . S
N713 C715 1.356 . S
N713 H718 0.984 . S
N713 H719 0.985 . S
C714 C708 1.379 . S
C714 C711 1.363 . S
C714 N712 1.356 . S
C715 C709 1.363 . S
C715 C710 1.379 . S
C715 N713 1.356 . S
N716 C708 1.356 . S
N716 H722 0.984 . S
N716 H723 0.984 . S
N717 C710 1.356 . S
N717 H720 0.984 . S
N717 H721 0.985 . S
H718 N713 0.984 . S
H719 N713 0.985 . S
H720 N717 0.984 . S
H721 N717 0.985 . S
H722 N716 0.984 . S
H723 N716 0.984 . S
H724 N712 0.984 . S
H725 N712 0.985 . S
C726 C727 1.363 . S
C726 C732 1.379 . S
C726 N734 1.356 . S
C727 C726 1.363 . S
C727 C733 1.363 . S
C728 C729 1.363 . S
C728 C733 1.379 . S
C728 N735 1.356 . S
C729 C728 1.363 . S
C729 C732 1.363 . S
N730 C732 1.356 1_554 S
N730 H742 0.984 . S
N730 H743 0.985 . S
N731 C733 1.356 . S
N731 H736 0.984 . S
N731 H737 0.985 . S
C732 C726 1.379 . S
C732 C729 1.363 . S
C732 N730 1.356 1_556 S
C733 C727 1.363 . S
C733 C728 1.379 . S
C733 N731 1.356 . S
N734 C726 1.356 . S
N734 H740 0.984 . S
N734 H741 0.984 . S
N735 C728 1.356 . S
N735 H738 0.984 . S
N735 H739 0.985 . S
H736 N731 0.984 . S
H737 N731 0.985 . S
H738 N735 0.984 . S
H739 N735 0.985 . S
H740 N734 0.984 . S
H741 N734 0.984 . S
H742 N730 0.984 . S
H743 N730 0.985 . S
C744 C745 1.363 . S
C744 C750 1.379 . S
C744 N752 1.356 . S
C745 C744 1.363 . S
C745 C751 1.363 . S
C746 C747 1.363 . S
C746 C751 1.379 . S
C746 N753 1.356 . S
C747 C746 1.363 . S
C747 C750 1.363 . S
N748 C750 1.356 . S
N748 H760 0.984 . S
N748 H761 0.985 . S
N749 C751 1.356 . S
N749 H754 0.984 . S
N749 H755 0.985 . S
C750 C744 1.379 . S
C750 C747 1.363 . S
C750 N748 1.356 . S
C751 C745 1.363 . S
C751 C746 1.379 . S
C751 N749 1.356 . S
N752 C744 1.356 . S
N752 H758 0.984 . S
N752 H759 0.984 . S
N753 C746 1.356 . S
N753 H756 0.984 . S
N753 H757 0.985 . S
H754 N749 0.984 . S
H755 N749 0.985 . S
H756 N753 0.984 . S
H757 N753 0.985 . S
H758 N752 0.984 . S
H759 N752 0.984 . S
H760 N748 0.984 . S
H761 N748 0.985 . S
C762 C763 1.363 . S
C762 C768 1.379 . S
C762 N770 1.356 . S
C763 C762 1.363 . S
C763 C769 1.363 . S
C764 C765 1.363 . S
C764 C769 1.379 . S
C764 N771 1.356 . S
C765 C764 1.363 . S
C765 C768 1.363 . S
N766 C768 1.356 . S
N766 H778 0.984 . S
N766 H779 0.985 . S
N767 C769 1.356 . S
N767 H772 0.984 . S
N767 H773 0.985 . S
C768 C762 1.379 . S
C768 C765 1.363 . S
C768 N766 1.356 . S
C769 C763 1.363 . S
C769 C764 1.379 . S
C769 N767 1.356 . S
N770 C762 1.356 . S
N770 H776 0.984 . S
N770 H777 0.984 . S
N771 C764 1.356 . S
N771 H774 0.984 . S
N771 H775 0.985 . S
H772 N767 0.984 . S
H773 N767 0.985 . S
H774 N771 0.984 . S
H775 N771 0.985 . S
H776 N770 0.984 . S
H777 N770 0.984 . S
H778 N766 0.984 . S
H779 N766 0.985 . S
C780 C781 1.363 . S
C780 C786 1.379 . S
C780 N788 1.356 . S
C781 C780 1.363 . S
C781 C787 1.363 . S
C782 C783 1.363 . S
C782 C787 1.379 . S
C782 N789 1.356 . S
C783 C782 1.363 . S
C783 C786 1.363 . S
N784 C786 1.356 . S
N784 H796 0.984 . S
N784 H797 0.985 . S
N785 C787 1.356 . S
N785 H790 0.984 . S
N785 H791 0.985 . S
C786 C780 1.379 . S
C786 C783 1.363 . S
C786 N784 1.356 . S
C787 C781 1.363 . S
C787 C782 1.379 . S
C787 N785 1.356 . S
N788 C780 1.356 . S
N788 H794 0.984 . S
N788 H795 0.984 . S
N789 C782 1.356 . S
N789 H792 0.984 . S
N789 H793 0.985 . S
H790 N785 0.984 . S
H791 N785 0.985 . S
H792 N789 0.984 . S
H793 N789 0.985 . S
H794 N788 0.984 . S
H795 N788 0.984 . S
H796 N784 0.984 . S
H797 N784 0.985 . S
C798 C799 1.363 . S
C798 C804 1.379 . S
C798 N806 1.356 . S
C799 C798 1.363 . S
C799 C805 1.363 . S
C800 C801 1.363 . S
C800 C805 1.379 . S
C800 N807 1.356 . S
C801 C800 1.363 . S
C801 C804 1.363 . S
N802 C804 1.356 . S
N802 H814 0.984 . S
N802 H815 0.985 . S
N803 C805 1.356 . S
N803 H808 0.984 . S
N803 H809 0.985 . S
C804 C798 1.379 . S
C804 C801 1.363 . S
C804 N802 1.356 . S
C805 C799 1.363 . S
C805 C800 1.379 . S
C805 N803 1.356 . S
N806 C798 1.356 . S
N806 H812 0.984 . S
N806 H813 0.984 . S
N807 C800 1.356 . S
N807 H810 0.984 . S
N807 H811 0.985 . S
H808 N803 0.984 . S
H809 N803 0.985 . S
H810 N807 0.984 . S
H811 N807 0.985 . S
H812 N806 0.984 . S
H813 N806 0.984 . S
H814 N802 0.984 . S
H815 N802 0.985 . S
C816 C817 1.363 . S
C816 C822 1.379 . S
C816 N824 1.356 . S
C817 C816 1.363 . S
C817 C823 1.363 . S
C818 C819 1.363 . S
C818 C823 1.379 . S
C818 N825 1.356 . S
C819 C818 1.363 . S
C819 C822 1.363 . S
N820 C822 1.356 . S
N820 H832 0.984 . S
N820 H833 0.985 . S
N821 C823 1.356 . S
N821 H826 0.984 . S
N821 H827 0.985 . S
C822 C816 1.379 . S
C822 C819 1.363 . S
C822 N820 1.356 . S
C823 C817 1.363 . S
C823 C818 1.379 . S
C823 N821 1.356 . S
N824 C816 1.356 . S
N824 H830 0.984 . S
N824 H831 0.984 . S
N825 C818 1.356 . S
N825 H828 0.984 . S
N825 H829 0.985 . S
H826 N821 0.984 . S
H827 N821 0.985 . S
H828 N825 0.984 . S
H829 N825 0.985 . S
H830 N824 0.984 . S
H831 N824 0.984 . S
H832 N820 0.984 . S
H833 N820 0.985 . S
C834 C835 1.363 . S
C834 C840 1.379 . S
C834 N842 1.356 . S
C835 C834 1.363 . S
C835 C841 1.363 . S
C836 C837 1.363 . S
C836 C841 1.379 . S
C836 N843 1.356 . S
C837 C836 1.363 . S
C837 C840 1.363 . S
N838 C840 1.356 . S
N838 H850 0.984 . S
N838 H851 0.985 . S
N839 C841 1.356 . S
N839 H844 0.984 . S
N839 H845 0.985 . S
C840 C834 1.379 . S
C840 C837 1.363 . S
C840 N838 1.356 . S
C841 C835 1.363 . S
C841 C836 1.379 . S
C841 N839 1.356 . S
N842 C834 1.356 . S
N842 H848 0.984 . S
N842 H849 0.984 . S
N843 C836 1.356 . S
N843 H846 0.984 . S
N843 H847 0.985 . S
H844 N839 0.984 . S
H845 N839 0.985 . S
H846 N843 0.984 . S
H847 N843 0.985 . S
H848 N842 0.984 . S
H849 N842 0.984 . S
H850 N838 0.984 . S
H851 N838 0.985 . S
C852 C853 1.363 . S
C852 C858 1.379 . S
C852 N860 1.356 . S
C853 C852 1.363 . S
C853 C859 1.363 1_556 S
C854 C855 1.363 . S
C854 C859 1.379 1_556 S
C854 N861 1.356 . S
C855 C854 1.363 . S
C855 C858 1.363 . S
N856 C858 1.356 . S
N856 H868 0.984 . S
N856 H869 0.985 . S
N857 C859 1.356 . S
N857 H862 0.984 . S
N857 H863 0.985 . S
C858 C852 1.379 . S
C858 C855 1.363 . S
C858 N856 1.356 . S
C859 C853 1.363 1_554 S
C859 C854 1.379 1_554 S
C859 N857 1.356 . S
N860 C852 1.356 . S
N860 H866 0.984 . S
N860 H867 0.984 . S
N861 C854 1.356 . S
N861 H864 0.984 . S
N861 H865 0.985 1_556 S
H862 N857 0.984 . S
H863 N857 0.985 . S
H864 N861 0.984 . S
H865 N861 0.985 1_554 S
H866 N860 0.984 . S
H867 N860 0.984 . S
H868 N856 0.984 . S
H869 N856 0.985 . S
C870 C871 1.363 . S
C870 C876 1.379 . S
C870 N878 1.356 . S
C871 C870 1.363 . S
C871 C877 1.363 . S
C872 C873 1.363 . S
C872 C877 1.379 . S
C872 N879 1.356 . S
C873 C872 1.363 . S
C873 C876 1.363 . S
N874 C876 1.356 . S
N874 H886 0.984 . S
N874 H887 0.985 . S
N875 C877 1.356 . S
N875 H880 0.984 . S
N875 H881 0.985 . S
C876 C870 1.379 . S
C876 C873 1.363 . S
C876 N874 1.356 . S
C877 C871 1.363 . S
C877 C872 1.379 . S
C877 N875 1.356 . S
N878 C870 1.356 . S
N878 H884 0.984 . S
N878 H885 0.984 . S
N879 C872 1.356 . S
N879 H882 0.984 . S
N879 H883 0.985 . S
H880 N875 0.984 . S
H881 N875 0.985 . S
H882 N879 0.984 . S
H883 N879 0.985 . S
H884 N878 0.984 . S
H885 N878 0.984 . S
H886 N874 0.984 . S
H887 N874 0.985 . S
C459 C447 1.381 . S
C457 C29 1.587 . S
C475 C115 1.624 . S
C477 C377 1.378 . S
C493 C153 1.527 . S
C495 C397 1.641 . S
C511 C239 1.517 . S
C513 C411 1.523 . S
C531 C419 1.323 . S
C529 C301 1.578 . S
C547 C339 1.765 . S
C549 C433 1.531 . S
C565 C91 1.572 . S
C567 C391 1.383 . S
C583 C177 1.564 . S
C585 C405 1.329 . S
C601 C215 1.494 . S
C603 C425 1.589 . S
C621 C439 1.900 . S
C619 C277 1.759 . S
C639 C453 1.604 . S
C637 C363 1.572 . S
C657 C383 1.572 . S
C655 C53 1.561 . S
C673 C35 1.522 . S
C675 C390 1.545 . S
C691 C109 1.354 . S
C693 C404 1.449 . S
C711 C426 1.440 . S
C709 C159 1.427 . S
C727 C233 1.562 . S
C729 C440 1.728 1_556 S
C747 C454 1.550 . S
C745 C295 1.352 . S
C765 C384 1.330 . S
C763 C345 1.313 . S
C783 C446 1.418 . S
C781 C97 1.424 . S
C799 C171 1.336 . S
C801 C376 1.446 . S
C819 C398 1.550 . S
C817 C221 1.514 . S
C835 C283 1.375 . S
C837 C412 1.383 . S
C853 C357 1.412 1_556 S
C855 C418 1.547 . S
C871 C47 1.595 . S
C873 C432 1.710 . S
