# Generated by pormake.
# Topology llk, (3,12)-cn, num edge types: 1
# Building blocks:
#     Node 0, Type 0, BuildingBlock: ESEHIV_clean_linker_0, # of connection points: 3
#     Node 1, Type 0, BuildingBlock: ESEHIV_clean_linker_0, # of connection points: 3
#     Node 2, Type 0, BuildingBlock: ESEHIV_clean_linker_0, # of connection points: 3
#     Node 3, Type 0, BuildingBlock: ESEHIV_clean_linker_0, # of connection points: 3
#     Node 4, Type 0, BuildingBlock: ESEHIV_clean_linker_0, # of connection points: 3
#     Node 5, Type 0, BuildingBlock: ESEHIV_clean_linker_0, # of connection points: 3
#     Node 6, Type 0, BuildingBlock: ESEHIV_clean_linker_0, # of connection points: 3
#     Node 7, Type 0, BuildingBlock: ESEHIV_clean_linker_0, # of connection points: 3
#     Node 8, Type 0, BuildingBlock: ESEHIV_clean_linker_0, # of connection points: 3
#     Node 9, Type 0, BuildingBlock: ESEHIV_clean_linker_0, # of connection points: 3
#     Node 10, Type 0, BuildingBlock: ESEHIV_clean_linker_0, # of connection points: 3
#     Node 11, Type 0, BuildingBlock: ESEHIV_clean_linker_0, # of connection points: 3
#     Node 12, Type 0, BuildingBlock: ESEHIV_clean_linker_0, # of connection points: 3
#     Node 13, Type 0, BuildingBlock: ESEHIV_clean_linker_0, # of connection points: 3
#     Node 14, Type 0, BuildingBlock: ESEHIV_clean_linker_0, # of connection points: 3
#     Node 15, Type 0, BuildingBlock: ESEHIV_clean_linker_0, # of connection points: 3
#     Node 16, Type 0, BuildingBlock: ESEHIV_clean_linker_0, # of connection points: 3
#     Node 17, Type 0, BuildingBlock: ESEHIV_clean_linker_0, # of connection points: 3
#     Node 18, Type 0, BuildingBlock: ESEHIV_clean_linker_0, # of connection points: 3
#     Node 19, Type 0, BuildingBlock: ESEHIV_clean_linker_0, # of connection points: 3
#     Node 20, Type 0, BuildingBlock: ESEHIV_clean_linker_0, # of connection points: 3
#     Node 21, Type 0, BuildingBlock: ESEHIV_clean_linker_0, # of connection points: 3
#     Node 22, Type 0, BuildingBlock: ESEHIV_clean_linker_0, # of connection points: 3
#     Node 23, Type 0, BuildingBlock: ESEHIV_clean_linker_0, # of connection points: 3
#     Node 24, Type 1, BuildingBlock: EZIPEK_clean_sbu_0, # of connection points: 12
#     Node 25, Type 1, BuildingBlock: EZIPEK_clean_sbu_0, # of connection points: 12
#     Node 26, Type 1, BuildingBlock: EZIPEK_clean_sbu_0, # of connection points: 12
#     Node 27, Type 1, BuildingBlock: EZIPEK_clean_sbu_0, # of connection points: 12
#     Node 28, Type 1, BuildingBlock: EZIPEK_clean_sbu_0, # of connection points: 12
#     Node 29, Type 1, BuildingBlock: EZIPEK_clean_sbu_0, # of connection points: 12
#     Edge 30, Type (0, 1), BuildingBlock: OJICUG_clean_linker_0, # of connection points: 2
#     Edge 31, Type (0, 1), BuildingBlock: OJICUG_clean_linker_0, # of connection points: 2
#     Edge 32, Type (0, 1), BuildingBlock: OJICUG_clean_linker_0, # of connection points: 2
#     Edge 33, Type (0, 1), BuildingBlock: OJICUG_clean_linker_0, # of connection points: 2
#     Edge 34, Type (0, 1), BuildingBlock: OJICUG_clean_linker_0, # of connection points: 2
#     Edge 35, Type (0, 1), BuildingBlock: OJICUG_clean_linker_0, # of connection points: 2
#     Edge 36, Type (0, 1), BuildingBlock: OJICUG_clean_linker_0, # of connection points: 2
#     Edge 37, Type (0, 1), BuildingBlock: OJICUG_clean_linker_0, # of connection points: 2
#     Edge 38, Type (0, 1), BuildingBlock: OJICUG_clean_linker_0, # of connection points: 2
#     Edge 39, Type (0, 1), BuildingBlock: OJICUG_clean_linker_0, # of connection points: 2
#     Edge 40, Type (0, 1), BuildingBlock: OJICUG_clean_linker_0, # of connection points: 2
#     Edge 41, Type (0, 1), BuildingBlock: OJICUG_clean_linker_0, # of connection points: 2
#     Edge 42, Type (0, 1), BuildingBlock: OJICUG_clean_linker_0, # of connection points: 2
#     Edge 43, Type (0, 1), BuildingBlock: OJICUG_clean_linker_0, # of connection points: 2
#     Edge 44, Type (0, 1), BuildingBlock: OJICUG_clean_linker_0, # of connection points: 2
#     Edge 45, Type (0, 1), BuildingBlock: OJICUG_clean_linker_0, # of connection points: 2
#     Edge 46, Type (0, 1), BuildingBlock: OJICUG_clean_linker_0, # of connection points: 2
#     Edge 47, Type (0, 1), BuildingBlock: OJICUG_clean_linker_0, # of connection points: 2
#     Edge 48, Type (0, 1), BuildingBlock: OJICUG_clean_linker_0, # of connection points: 2
#     Edge 49, Type (0, 1), BuildingBlock: OJICUG_clean_linker_0, # of connection points: 2
#     Edge 50, Type (0, 1), BuildingBlock: OJICUG_clean_linker_0, # of connection points: 2
#     Edge 51, Type (0, 1), BuildingBlock: OJICUG_clean_linker_0, # of connection points: 2
#     Edge 52, Type (0, 1), BuildingBlock: OJICUG_clean_linker_0, # of connection points: 2
#     Edge 53, Type (0, 1), BuildingBlock: OJICUG_clean_linker_0, # of connection points: 2
#     Edge 54, Type (0, 1), BuildingBlock: OJICUG_clean_linker_0, # of connection points: 2
#     Edge 55, Type (0, 1), BuildingBlock: OJICUG_clean_linker_0, # of connection points: 2
#     Edge 56, Type (0, 1), BuildingBlock: OJICUG_clean_linker_0, # of connection points: 2
#     Edge 57, Type (0, 1), BuildingBlock: OJICUG_clean_linker_0, # of connection points: 2
#     Edge 58, Type (0, 1), BuildingBlock: OJICUG_clean_linker_0, # of connection points: 2
#     Edge 59, Type (0, 1), BuildingBlock: OJICUG_clean_linker_0, # of connection points: 2
#     Edge 60, Type (0, 1), BuildingBlock: OJICUG_clean_linker_0, # of connection points: 2
#     Edge 61, Type (0, 1), BuildingBlock: OJICUG_clean_linker_0, # of connection points: 2
#     Edge 62, Type (0, 1), BuildingBlock: OJICUG_clean_linker_0, # of connection points: 2
#     Edge 63, Type (0, 1), BuildingBlock: OJICUG_clean_linker_0, # of connection points: 2
#     Edge 64, Type (0, 1), BuildingBlock: OJICUG_clean_linker_0, # of connection points: 2
#     Edge 65, Type (0, 1), BuildingBlock: OJICUG_clean_linker_0, # of connection points: 2
#     Edge 66, Type (0, 1), BuildingBlock: OJICUG_clean_linker_0, # of connection points: 2
#     Edge 67, Type (0, 1), BuildingBlock: OJICUG_clean_linker_0, # of connection points: 2
#     Edge 68, Type (0, 1), BuildingBlock: OJICUG_clean_linker_0, # of connection points: 2
#     Edge 69, Type (0, 1), BuildingBlock: OJICUG_clean_linker_0, # of connection points: 2
#     Edge 70, Type (0, 1), BuildingBlock: OJICUG_clean_linker_0, # of connection points: 2
#     Edge 71, Type (0, 1), BuildingBlock: OJICUG_clean_linker_0, # of connection points: 2
#     Edge 72, Type (0, 1), BuildingBlock: OJICUG_clean_linker_0, # of connection points: 2
#     Edge 73, Type (0, 1), BuildingBlock: OJICUG_clean_linker_0, # of connection points: 2
#     Edge 74, Type (0, 1), BuildingBlock: OJICUG_clean_linker_0, # of connection points: 2
#     Edge 75, Type (0, 1), BuildingBlock: OJICUG_clean_linker_0, # of connection points: 2
#     Edge 76, Type (0, 1), BuildingBlock: OJICUG_clean_linker_0, # of connection points: 2
#     Edge 77, Type (0, 1), BuildingBlock: OJICUG_clean_linker_0, # of connection points: 2
#     Edge 78, Type (0, 1), BuildingBlock: OJICUG_clean_linker_0, # of connection points: 2
#     Edge 79, Type (0, 1), BuildingBlock: OJICUG_clean_linker_0, # of connection points: 2
#     Edge 80, Type (0, 1), BuildingBlock: OJICUG_clean_linker_0, # of connection points: 2
#     Edge 81, Type (0, 1), BuildingBlock: OJICUG_clean_linker_0, # of connection points: 2
#     Edge 82, Type (0, 1), BuildingBlock: OJICUG_clean_linker_0, # of connection points: 2
#     Edge 83, Type (0, 1), BuildingBlock: OJICUG_clean_linker_0, # of connection points: 2
#     Edge 84, Type (0, 1), BuildingBlock: OJICUG_clean_linker_0, # of connection points: 2
#     Edge 85, Type (0, 1), BuildingBlock: OJICUG_clean_linker_0, # of connection points: 2
#     Edge 86, Type (0, 1), BuildingBlock: OJICUG_clean_linker_0, # of connection points: 2
#     Edge 87, Type (0, 1), BuildingBlock: OJICUG_clean_linker_0, # of connection points: 2
#     Edge 88, Type (0, 1), BuildingBlock: OJICUG_clean_linker_0, # of connection points: 2
#     Edge 89, Type (0, 1), BuildingBlock: OJICUG_clean_linker_0, # of connection points: 2
#     Edge 90, Type (0, 1), BuildingBlock: OJICUG_clean_linker_0, # of connection points: 2
#     Edge 91, Type (0, 1), BuildingBlock: OJICUG_clean_linker_0, # of connection points: 2
#     Edge 92, Type (0, 1), BuildingBlock: OJICUG_clean_linker_0, # of connection points: 2
#     Edge 93, Type (0, 1), BuildingBlock: OJICUG_clean_linker_0, # of connection points: 2
#     Edge 94, Type (0, 1), BuildingBlock: OJICUG_clean_linker_0, # of connection points: 2
#     Edge 95, Type (0, 1), BuildingBlock: OJICUG_clean_linker_0, # of connection points: 2
#     Edge 96, Type (0, 1), BuildingBlock: OJICUG_clean_linker_0, # of connection points: 2
#     Edge 97, Type (0, 1), BuildingBlock: OJICUG_clean_linker_0, # of connection points: 2
#     Edge 98, Type (0, 1), BuildingBlock: OJICUG_clean_linker_0, # of connection points: 2
#     Edge 99, Type (0, 1), BuildingBlock: OJICUG_clean_linker_0, # of connection points: 2
#     Edge 100, Type (0, 1), BuildingBlock: OJICUG_clean_linker_0, # of connection points: 2
#     Edge 101, Type (0, 1), BuildingBlock: OJICUG_clean_linker_0, # of connection points: 2
# Relax obj value: 0.107
# Max RMSD: 0.160
# Mean RMSD: 0.134
data_MOF--net-llk--node1-EZIPEK_clean_sbu_0--node2-ESEHIV_clean_linker_0--edge1-OJICUG_clean_linker_0
_symmetry_space_group_name_H-M    P1
_symmetry_Int_Tables_number       1
_symmetry_cell_setting            triclinic
loop_
_symmetry_equiv_pos_as_xyz
'x, y, z'
_cell_length_a     32.493439
_cell_length_b     32.523905
_cell_length_c     32.520816
_cell_angle_alpha  89.887608
_cell_angle_beta   90.03613
_cell_angle_gamma 90.067311
loop_
_atom_site_label
_atom_site_type_symbol
_atom_site_fract_x
_atom_site_fract_y
_atom_site_fract_z
_atom_type_partial_charge
H0 H 0.94963 0.24765 0.33663 0.0
H1 H 0.96691 0.34653 0.25163 0.0
H2 H 0.02663 0.23094 0.23019 0.0
C3 C 0.96133 0.25888 0.30742 0.0
C4 C 0.98855 0.23419 0.28519 0.0
C5 C 0.95891 0.30087 0.29887 0.0
C6 C 0.97072 0.31446 0.25987 0.0
C7 C 0.9939 0.28921 0.23382 0.0
C8 C 1.00477 0.24914 0.24744 0.0
H9 H 0.6921 0.08962 0.24187 0.0
H10 H 0.78048 0.07562 0.33821 0.0
H11 H 0.78762 0.99841 0.23166 0.0
C12 C 0.7203 0.07597 0.25343 0.0
C13 C 0.7385 0.04402 0.23103 0.0
C14 C 0.73109 0.0822 0.29462 0.0
C15 C 0.76967 0.06837 0.30755 0.0
C16 C 0.79069 0.03811 0.28546 0.0
C17 C 0.77418 0.0245 0.2473 0.0
H18 H 0.08844 0.78701 0.33324 0.0
H19 H 0.07455 0.678 0.26124 0.0
H20 H 0.99006 0.77791 0.24484 0.0
C21 C 0.07355 0.77056 0.30831 0.0
C22 C 0.03829 0.78757 0.29033 0.0
C23 C 0.08236 0.72895 0.30282 0.0
C24 C 0.06573 0.70926 0.2683 0.0
C25 C 0.03305 0.72665 0.24621 0.0
C26 C 0.01796 0.76576 0.2584 0.0
H27 H 0.25198 0.08663 0.34719 0.0
H28 H 0.35336 0.07039 0.26506 0.0
H29 H 0.24012 1.00614 0.24282 0.0
C30 C 0.26428 0.07458 0.31862 0.0
C31 C 0.2408 0.0463 0.29623 0.0
C32 C 0.30631 0.07868 0.31079 0.0
C33 C 0.32128 0.06555 0.27276 0.0
C34 C 0.29765 0.04006 0.24734 0.0
C35 C 0.2573 0.02909 0.25979 0.0
H36 H 0.93735 0.779 0.69389 0.0
H37 H 0.9559 0.6828 0.78144 0.0
H38 H 0.02418 0.79523 0.7928 0.0
C39 C 0.95093 0.76825 0.72246 0.0
C40 C 0.981 0.79253 0.74145 0.0
C41 C 0.94792 0.72653 0.73238 0.0
C42 C 0.96104 0.71417 0.77139 0.0
C43 C 0.98798 0.73872 0.79434 0.0
C44 C 0.9999 0.77773 0.77818 0.0
H45 H 0.26269 0.95438 0.68091 0.0
H46 H 0.33552 0.94465 0.78964 0.0
H47 H 0.22627 0.01971 0.78975 0.0
C48 C 0.26681 0.96057 0.71336 0.0
C49 C 0.23732 0.98456 0.73386 0.0
C50 C 0.30398 0.94994 0.73229 0.0
C51 C 0.30751 0.95496 0.77458 0.0
C52 C 0.28184 0.98263 0.795 0.0
C53 C 0.24586 0.99736 0.77482 0.0
H54 H 0.94101 0.34297 0.76959 0.0
H55 H 0.93228 0.2393 0.69027 0.0
H56 H 0.02981 0.24579 0.77995 0.0
C57 C 0.95145 0.31274 0.76047 0.0
C58 C 0.98523 0.29581 0.78118 0.0
C59 C 0.93792 0.29586 0.72329 0.0
C60 C 0.94633 0.25431 0.71656 0.0
C61 C 0.98146 0.23669 0.7343 0.0
C62 C 1.00154 0.25777 0.76703 0.0
H63 H 0.69891 0.93112 0.78943 0.0
H64 H 0.79373 0.93582 0.70011 0.0
H65 H 0.7698 0.04221 0.77493 0.0
C66 C 0.72385 0.94773 0.77478 0.0
C67 C 0.73262 0.98781 0.78807 0.0
C68 C 0.73859 0.93445 0.73654 0.0
C69 C 0.77689 0.95027 0.7249 0.0
C70 C 0.78731 0.99058 0.73593 0.0
C71 C 0.76421 1.01025 0.76749 0.0
H72 H 0.27135 0.34944 0.95678 0.0
H73 H 0.34333 0.24012 0.94879 0.0
H74 H 0.23126 0.24015 0.01962 0.0
C75 C 0.27483 0.31683 0.96269 0.0
C76 C 0.24456 0.29643 0.98576 0.0
C77 C 0.31198 0.29756 0.95297 0.0
C78 C 0.31495 0.25522 0.95789 0.0
C79 C 0.28786 0.23474 0.98429 0.0
C80 C 0.25186 0.25516 0.99814 0.0
H81 H 0.33479 0.77624 0.94792 0.0
H82 H 0.25608 0.67317 0.97081 0.0
H83 H 0.23574 0.7863 0.03517 0.0
C84 C 0.3076 0.76319 0.9623 0.0
C85 C 0.2872 0.78608 0.99241 0.0
C86 C 0.30061 0.72093 0.95931 0.0
C87 C 0.2636 0.70536 0.97484 0.0
C88 C 0.23874 0.72904 1.00084 0.0
C89 C 0.25163 0.76935 1.01136 0.0
H90 H 0.68343 0.25776 0.93928 0.0
H91 H 0.79303 0.32878 0.9284 0.0
H92 H 0.78364 0.23565 0.02252 0.0
C93 C 0.71491 0.26375 0.94841 0.0
C94 C 0.73213 0.23936 0.97957 0.0
C95 C 0.73446 0.29991 0.93538 0.0
C96 C 0.7767 0.30301 0.94206 0.0
C97 C 0.79394 0.28326 0.97622 0.0
C98 C 0.77154 0.25064 0.99534 0.0
H99 H 0.69548 0.79261 0.09255 0.0
H100 H 0.77876 0.69153 0.08627 0.0
H101 H 0.78107 0.78376 0.99173 0.0
C102 C 0.72146 0.77756 0.07806 0.0
C103 C 0.73692 0.79386 0.04125 0.0
C104 C 0.73068 0.73701 0.08906 0.0
C105 C 0.76782 0.72075 0.07465 0.0
C106 C 0.78644 0.7366 0.03922 0.0
C107 C 0.7698 0.77294 0.02115 0.0
H108 H 0.45289 0.73401 0.83529 0.0
H109 H 0.46525 0.8368 0.75403 0.0
H110 H 0.54714 0.73426 0.74224 0.0
C111 C 0.46675 0.74809 0.80835 0.0
C112 C 0.50076 0.72899 0.79022 0.0
C113 C 0.45848 0.78936 0.79983 0.0
C114 C 0.47339 0.80575 0.76294 0.0
C115 C 0.50471 0.78593 0.74104 0.0
C116 C 0.51996 0.74784 0.75584 0.0
H117 H 0.20436 0.58599 0.74966 0.0
H118 H 0.2839 0.57106 0.85337 0.0
H119 H 0.29941 0.49396 0.7477 0.0
C120 C 0.23088 0.57167 0.764 0.0
C121 C 0.24965 0.53861 0.74403 0.0
C122 C 0.23814 0.57803 0.80586 0.0
C123 C 0.27543 0.56373 0.82205 0.0
C124 C 0.29907 0.5345 0.80091 0.0
C125 C 0.2848 0.52007 0.76223 0.0
H126 H 0.44661 0.19843 0.74051 0.0
H127 H 0.45506 0.27668 0.84555 0.0
H128 H 0.5508 0.27898 0.75487 0.0
C129 C 0.46207 0.22271 0.75732 0.0
C130 C 0.50028 0.23658 0.74308 0.0
C131 C 0.45037 0.23085 0.79785 0.0
C132 C 0.46654 0.26641 0.8161 0.0
C133 C 0.50243 0.28487 0.80077 0.0
C134 C 0.52076 0.26846 0.76475 0.0
H135 H 0.74877 0.60339 0.83075 0.0
H136 H 0.84909 0.59172 0.74722 0.0
H137 H 0.7538 0.5003 0.74809 0.0
C138 C 0.7635 0.58759 0.80541 0.0
C139 C 0.74632 0.55064 0.79156 0.0
C140 C 0.80465 0.59633 0.7963 0.0
C141 C 0.81964 0.58132 0.75879 0.0
C142 C 0.80167 0.54665 0.74046 0.0
C143 C 0.76557 0.52967 0.75844 0.0
H144 H 0.46168 0.28684 0.20093 0.0
H145 H 0.47589 0.18155 0.27854 0.0
H146 H 0.54939 0.28907 0.30036 0.0
C147 C 0.47488 0.27262 0.22814 0.0
C148 C 0.5066 0.29296 0.24885 0.0
C149 C 0.46836 0.23077 0.23484 0.0
C150 C 0.48257 0.21346 0.27158 0.0
C151 C 0.51046 0.23456 0.29678 0.0
C152 C 0.52437 0.27416 0.2842 0.0
H153 H 0.74412 0.43714 0.20504 0.0
H154 H 0.85619 0.4519 0.27225 0.0
H155 H 0.75581 0.53469 0.29367 0.0
C156 C 0.76133 0.45187 0.22957 0.0
C157 C 0.74491 0.48706 0.24796 0.0
C158 C 0.80339 0.44406 0.23285 0.0
C159 C 0.82439 0.46023 0.26686 0.0
C160 C 0.80722 0.49191 0.2905 0.0
C161 C 0.76767 0.50705 0.27949 0.0
H162 H 0.44871 0.83512 0.2908 0.0
H163 H 0.45862 0.75415 0.18808 0.0
H164 H 0.54069 0.73975 0.29045 0.0
C165 C 0.46199 0.80797 0.27673 0.0
C166 C 0.49557 0.78901 0.29587 0.0
C167 C 0.45397 0.80023 0.23531 0.0
C168 C 0.46736 0.7628 0.21901 0.0
C169 C 0.49817 0.73993 0.2386 0.0
C170 C 0.51393 0.75418 0.27684 0.0
H171 H 0.19472 0.44207 0.28625 0.0
H172 H 0.2715 0.45718 0.18073 0.0
H173 H 0.30343 0.51783 0.29358 0.0
C174 C 0.22319 0.45318 0.27271 0.0
C175 C 0.2481 0.47993 0.29544 0.0
C176 C 0.22859 0.44951 0.23037 0.0
C177 C 0.26609 0.46174 0.21327 0.0
C178 C 0.29429 0.4854 0.23573 0.0
C179 C 0.28449 0.49601 0.27704 0.0
H180 H 0.74344 0.82508 0.43141 0.0
H181 H 0.8518 0.75201 0.44063 0.0
H182 H 0.75784 0.74063 0.53259 0.0
C183 C 0.76036 0.80033 0.44611 0.0
C184 C 0.74535 0.78408 0.48307 0.0
C185 C 0.80199 0.79562 0.43682 0.0
C186 C 0.82134 0.75996 0.45143 0.0
C187 C 0.80586 0.73918 0.48593 0.0
C188 C 0.76819 0.75278 0.50335 0.0
H189 H 0.83722 0.29089 0.43925 0.0
H190 H 0.75549 0.18883 0.45371 0.0
H191 H 0.75399 0.28639 0.54223 0.0
C192 C 0.81171 0.27625 0.45508 0.0
C193 C 0.79685 0.29417 0.49129 0.0
C194 C 0.80229 0.23523 0.44611 0.0
C195 C 0.76618 0.21895 0.46302 0.0
C196 C 0.74822 0.2367 0.49781 0.0
C197 C 0.76472 0.27411 0.51324 0.0
H198 H 0.18964 0.75053 0.47326 0.0
H199 H 0.2864 0.83726 0.45254 0.0
H200 H 0.30546 0.73503 0.53491 0.0
C201 C 0.22146 0.75983 0.477 0.0
C202 C 0.24694 0.736 0.50225 0.0
C203 C 0.2342 0.79822 0.46266 0.0
C204 C 0.27588 0.8084 0.46569 0.0
C205 C 0.3013 0.78785 0.4938 0.0
C206 C 0.28694 0.75076 0.51211 0.0
H207 H 0.19808 0.27904 0.59067 0.0
H208 H 0.27599 0.17427 0.57722 0.0
H209 H 0.30178 0.28392 0.50823 0.0
C210 C 0.22585 0.26519 0.57839 0.0
C211 C 0.24812 0.28649 0.54839 0.0
C212 C 0.23163 0.22301 0.58315 0.0
C213 C 0.26938 0.20631 0.57105 0.0
C214 C 0.29617 0.22823 0.54528 0.0
C215 C 0.28436 0.26826 0.53193 0.0
C216 C 1.0054 0.9141 0.61372 0.0
C217 C 1.01156 0.91341 0.41071 0.0
C218 C 1.00858 0.11216 0.61208 0.0
C219 C 0.01511 0.11116 0.4089 0.0
C220 C 0.9169 0.11367 0.48687 0.0
C221 C 0.91121 0.91778 0.49071 0.0
C222 C 0.10903 0.10975 0.53288 0.0
C223 C 0.10855 0.91462 0.49885 0.0
C224 C 0.11244 0.01676 0.41316 0.0
C225 C 0.91463 1.0105 0.4069 0.0
C226 C 0.10689 1.00865 0.61468 0.0
C227 C 0.90762 0.0188 0.60941 0.0
Eu228 Eu 1.00944 0.93452 0.5118 0.0
O229 O 0.97577 0.97834 0.47558 0.0
O230 O 0.04592 0.97548 0.54912 0.0
Eu231 Eu 0.93204 0.01497 0.50874 0.0
Eu232 Eu 0.08831 1.0124 0.51339 0.0
O233 O 0.97081 0.97608 0.54687 0.0
O234 O 0.04714 0.9762 0.47677 0.0
Eu235 Eu 1.00758 0.01282 0.58846 0.0
Eu236 Eu 1.01319 0.01293 0.43393 0.0
O237 O 0.97275 0.05148 0.54654 0.0
O238 O 0.97658 0.04954 0.4744 0.0
O239 O 0.05021 0.05059 0.47464 0.0
O240 O 0.045 0.048 0.5473 0.0
Eu241 Eu 1.01225 0.09151 0.51056 0.0
O242 O 1.00811 0.9004 0.57468 0.0
O243 O 1.00934 0.90037 0.44989 0.0
O244 O 1.00799 0.12546 0.57283 0.0
O245 O 0.01924 0.12473 0.4478 0.0
O246 O 0.9021 0.07555 0.4911 0.0
O247 O 0.89798 0.95581 0.49805 0.0
O248 O 0.12184 0.07103 0.52904 0.0
O249 O 0.12134 0.95301 0.50474 0.0
O250 O 0.07365 0.01469 0.40029 0.0
O251 O 0.95432 1.01172 0.39662 0.0
O252 O 0.06729 1.01096 0.62572 0.0
O253 O 0.94666 0.01624 0.62179 0.0
O254 O 0.07166 0.12387 0.52393 0.0
O255 O 0.95457 0.12613 0.49692 0.0
O256 O 0.06985 0.90108 0.50188 0.0
O257 O 0.94916 0.90353 0.49709 0.0
O258 O 0.01405 0.95267 0.39906 0.0
O259 O 1.01074 0.072 0.39813 0.0
O260 O 1.00384 0.95355 0.62453 0.0
O261 O 1.00919 0.0728 0.62368 0.0
O262 O 0.89546 0.01899 0.56977 0.0
O263 O 0.90012 1.01098 0.44558 0.0
O264 O 0.12049 1.00732 0.57576 0.0
O265 O 0.12451 0.01732 0.45269 0.0
C266 C 0.49641 0.91771 0.1144 0.0
C267 C 0.4952 0.11314 0.10965 0.0
C268 C 0.48999 0.91226 0.91822 0.0
C269 C 0.48367 0.10869 0.91388 0.0
C270 C 0.60521 0.01438 0.90975 0.0
C271 C 0.6128 0.01679 0.10845 0.0
C272 C 0.40207 1.01104 0.9183 0.0
C273 C 0.41053 1.01193 0.11564 0.0
C274 C 0.40416 0.10937 0.01474 0.0
C275 C 0.60734 0.11455 1.00826 0.0
C276 C 0.40789 0.9124 0.01749 0.0
C277 C 0.61091 0.91558 1.01219 0.0
Eu278 Eu 0.51066 0.01478 0.09107 0.0
O279 O 0.54484 0.05188 0.0479 0.0
O280 O 0.47387 0.97704 0.05131 0.0
Eu281 Eu 0.58479 0.01471 1.01009 0.0
Eu282 Eu 0.43032 1.01147 0.01595 0.0
O283 O 0.54643 0.97732 0.04963 0.0
O284 O 0.47234 0.04943 0.04979 0.0
Eu285 Eu 0.50898 0.93479 0.01504 0.0
Eu286 Eu 0.50596 0.09156 1.01147 0.0
O287 O 0.54318 0.97599 0.97534 0.0
O288 O 0.54189 0.05044 0.97355 0.0
O289 O 0.47003 0.04759 0.9778 0.0
O290 O 0.4712 0.97546 0.97902 0.0
Eu291 Eu 0.50436 1.01159 0.93459 0.0
O292 O 0.50388 0.95607 0.12635 0.0
O293 O 0.5001 0.07491 0.12356 0.0
O294 O 0.4923 0.95057 0.90364 0.0
O295 O 0.49111 0.07055 0.90102 0.0
O296 O 0.61791 0.015 0.94879 0.0
O297 O 0.62284 0.01722 0.06864 0.0
O298 O 0.39233 1.00919 0.95797 0.0
O299 O 0.3973 1.01246 0.07691 0.0
O300 O 0.44292 0.12382 0.01526 0.0
O301 O 0.56779 0.12702 1.00888 0.0
O302 O 0.44725 0.8997 0.01718 0.0
O303 O 0.5719 0.9016 0.01381 0.0
O304 O 0.44057 0.01278 0.90327 0.0
O305 O 0.56547 0.01286 0.89789 0.0
O306 O 0.45014 1.0121 0.12733 0.0
O307 O 0.57408 0.01568 0.12305 0.0
O308 O 0.49947 0.12575 0.07093 0.0
O309 O 0.49006 0.12308 0.95172 0.0
O310 O 0.49916 0.90329 0.07615 0.0
O311 O 0.49858 0.90026 0.95643 0.0
O312 O 0.62156 0.95526 1.01079 0.0
O313 O 0.6194 0.07532 1.00827 0.0
O314 O 0.39582 0.95144 0.01724 0.0
O315 O 0.39354 0.06993 0.0139 0.0
C316 C 0.015 0.40578 0.10482 0.0
C317 C 0.01578 0.41737 0.90682 0.0
C318 C 1.00387 0.60722 0.11883 0.0
C319 C 0.01516 0.61955 0.92076 0.0
C320 C 0.90977 0.61138 0.01497 0.0
C321 C 0.91519 0.40839 1.00363 0.0
C322 C 0.10845 0.61455 0.02715 0.0
C323 C 0.11362 0.41441 1.00779 0.0
C324 C 0.1128 0.53802 0.92032 0.0
C325 C 0.91745 0.53897 0.91423 0.0
C326 C 0.10596 0.49232 0.11403 0.0
C327 C 0.91154 0.48308 0.10556 0.0
Eu328 Eu 0.01365 0.43536 1.00685 0.0
O329 O 0.97551 0.47684 0.97101 0.0
O330 O 0.04636 0.47593 0.04715 0.0
Eu331 Eu 0.93309 0.51036 1.01031 0.0
Eu332 Eu 0.08979 0.5142 0.01617 0.0
O333 O 0.97627 0.47436 0.04443 0.0
O334 O 0.05202 0.47884 0.9741 0.0
Eu335 Eu 1.0089 0.50776 0.09094 0.0
Eu336 Eu 0.01449 0.51711 0.93491 0.0
O337 O 0.97107 0.54627 0.05199 0.0
O338 O 0.97721 0.54822 0.97937 0.0
O339 O 0.04722 0.55054 0.98147 0.0
O340 O 0.04721 0.54796 0.0546 0.0
Eu341 Eu 1.00963 0.58961 0.01882 0.0
O342 O 1.01338 0.39627 0.06492 0.0
O343 O 0.01566 0.40367 0.9454 0.0
O344 O 1.00603 0.62114 0.08036 0.0
O345 O 1.01103 0.62869 0.96061 0.0
O346 O 0.89732 0.57181 0.01531 0.0
O347 O 0.90074 0.44721 1.00338 0.0
O348 O 0.12195 0.5756 0.02869 0.0
O349 O 0.12564 0.45391 1.00902 0.0
O350 O 0.07567 0.52931 0.90522 0.0
O351 O 0.95617 0.53428 0.9016 0.0
O352 O 0.06767 0.49981 0.12644 0.0
O353 O 0.94928 0.48899 0.12039 0.0
O354 O 0.06929 0.62578 0.02201 0.0
O355 O 0.94897 0.62355 0.01556 0.0
O356 O 0.07463 0.40158 1.00724 0.0
O357 O 0.95486 0.39812 1.00491 0.0
O358 O 0.01516 0.4574 0.89604 0.0
O359 O 0.01776 0.58133 0.90538 0.0
O360 O 0.01451 0.44397 0.1203 0.0
O361 O 1.00387 0.5672 0.12948 0.0
O362 O 0.89849 0.49272 0.06785 0.0
O363 O 0.90236 0.52748 0.95064 0.0
O364 O 0.12036 0.49658 0.07589 0.0
O365 O 0.12474 0.53331 0.95928 0.0
C366 C 0.53082 0.41494 0.12389 0.0
C367 C 0.5222 0.61251 0.11852 0.0
C368 C 0.53225 0.41072 0.92142 0.0
C369 C 0.52928 0.60888 0.91593 0.0
C370 C 0.62803 0.51876 0.92008 0.0
C371 C 0.62367 0.5138 0.12325 0.0
C372 C 0.42932 0.5067 0.91727 0.0
C373 C 0.42517 0.51091 0.11858 0.0
C374 C 0.42631 0.60626 0.99837 0.0
C375 C 0.61908 0.61469 0.04222 0.0
C376 C 0.43441 0.40967 1.00416 0.0
C377 C 0.62922 0.42001 1.00029 0.0
Eu378 Eu 0.52487 0.51281 0.09672 0.0
O379 O 0.55982 0.54888 0.0542 0.0
O380 O 0.48996 0.47326 0.05653 0.0
Eu381 Eu 0.60594 0.51587 0.02134 0.0
Eu382 Eu 0.44912 0.50921 0.01814 0.0
O383 O 0.56593 0.47697 0.05825 0.0
O384 O 0.48766 0.54886 0.05475 0.0
Eu385 Eu 0.53086 0.4339 0.02202 0.0
Eu386 Eu 0.52445 0.59016 0.01751 0.0
O387 O 0.56493 0.4778 0.9864 0.0
O388 O 0.56469 0.55083 0.98224 0.0
O389 O 0.49058 0.54607 0.98227 0.0
O390 O 0.49411 0.47441 0.98475 0.0
Eu391 Eu 0.52893 0.51086 0.94229 0.0
O392 O 0.52599 0.45429 0.13397 0.0
O393 O 0.52424 0.57343 0.13091 0.0
O394 O 0.53158 0.44978 0.90875 0.0
O395 O 0.52658 0.56944 0.90554 0.0
O396 O 0.6406 0.52292 0.95938 0.0
O397 O 0.6382 0.51211 0.08452 0.0
O398 O 0.41598 0.50603 0.95625 0.0
O399 O 0.41299 0.51062 0.07905 0.0
O400 O 0.46407 0.62088 1.00476 0.0
O401 O 0.58127 0.62623 0.03164 0.0
O402 O 0.47267 0.39765 1.01257 0.0
O403 O 0.59197 0.40463 1.00799 0.0
O404 O 0.46882 0.50876 0.90595 0.0
O405 O 0.58927 0.51258 0.90832 0.0
O406 O 0.46425 0.51114 0.13113 0.0
O407 O 0.58397 0.51515 0.13355 0.0
O408 O 0.52011 0.62495 0.07909 0.0
O409 O 0.53126 0.62299 0.95476 0.0
O410 O 0.53434 0.40085 0.08513 0.0
O411 O 0.53181 0.39859 0.96092 0.0
O412 O 0.64169 0.45842 1.00723 0.0
O413 O 0.63481 0.57697 0.03836 0.0
O414 O 0.41954 0.44771 1.00701 0.0
O415 O 0.41409 0.56748 1.00382 0.0
C416 C 1.00153 0.41098 0.61168 0.0
C417 C 1.0098 0.41874 0.418 0.0
C418 C 1.00746 0.60729 0.61949 0.0
C419 C 0.05224 0.61364 0.42664 0.0
C420 C 0.92871 0.61509 0.51789 0.0
C421 C 0.92289 0.41645 0.51608 0.0
C422 C 0.13048 0.60773 0.52841 0.0
C423 C 0.12634 0.41108 0.52036 0.0
C424 C 0.13028 0.50787 0.42327 0.0
C425 C 0.92838 0.52178 0.41712 0.0
C426 C 0.1257 0.50846 0.62142 0.0
C427 C 0.92306 0.51212 0.61653 0.0
Eu428 Eu 0.02509 0.43451 0.51682 0.0
O429 O 0.99119 0.4791 0.48148 0.0
O430 O 0.06172 0.47207 0.55761 0.0
Eu431 Eu 0.94918 0.51528 0.51708 0.0
Eu432 Eu 0.10361 0.50972 0.52204 0.0
O433 O 0.98978 0.47718 0.55249 0.0
O434 O 0.06332 0.47566 0.48162 0.0
Eu435 Eu 0.02454 0.50936 0.5983 0.0
Eu436 Eu 0.02863 0.51558 0.44106 0.0
O437 O 0.99142 0.54773 0.55575 0.0
O438 O 0.99161 0.55297 0.48184 0.0
O439 O 0.0637 0.5479 0.48637 0.0
O440 O 0.0632 0.54703 0.55946 0.0
Eu441 Eu 0.02897 0.5903 0.52235 0.0
O442 O 1.01172 0.39874 0.57406 0.0
O443 O 0.01649 0.40422 0.45571 0.0
O444 O 0.01586 0.62132 0.58199 0.0
O445 O 0.04492 0.62559 0.4651 0.0
O446 O 0.91586 0.57618 0.51883 0.0
O447 O 0.91234 0.45608 0.51549 0.0
O448 O 0.14082 0.56859 0.52217 0.0
O449 O 0.13823 0.45004 0.52349 0.0
O450 O 0.09146 0.5092 0.40895 0.0
O451 O 0.96798 0.52458 0.4054 0.0
O452 O 0.08623 0.50715 0.63419 0.0
O453 O 0.96183 0.50958 0.63056 0.0
O454 O 0.09174 0.62166 0.53215 0.0
O455 O 0.9684 0.62684 0.51712 0.0
O456 O 0.08691 0.39856 0.51689 0.0
O457 O 0.96176 0.40229 0.51656 0.0
O458 O 0.01388 0.45769 0.40576 0.0
O459 O 0.04605 0.57603 0.4114 0.0
O460 O 1.00687 0.44857 0.62714 0.0
O461 O 1.0115 0.56854 0.63246 0.0
O462 O 0.91247 0.51477 0.57686 0.0
O463 O 0.91579 0.51696 0.45588 0.0
O464 O 0.13765 0.50982 0.5823 0.0
O465 O 0.14089 0.50809 0.46294 0.0
C466 C 0.53148 0.90775 0.61691 0.0
C467 C 0.52518 0.91198 0.41915 0.0
C468 C 0.52989 0.11052 0.62317 0.0
C469 C 0.53019 0.1145 0.42504 0.0
C470 C 0.42763 0.11115 0.52525 0.0
C471 C 0.42873 0.90921 0.51758 0.0
C472 C 0.62683 0.11245 0.52827 0.0
C473 C 0.62665 0.91036 0.51391 0.0
C474 C 0.62233 0.03215 0.42119 0.0
C475 C 0.42713 0.03158 0.42707 0.0
C476 C 0.62666 0.98674 0.61627 0.0
C477 C 0.43186 0.99198 0.62124 0.0
Eu478 Eu 0.52765 0.93414 0.51814 0.0
O479 O 0.48872 0.97471 0.48284 0.0
O480 O 0.56328 0.97601 0.55435 0.0
Eu481 Eu 0.44963 1.01029 0.52315 0.0
Eu482 Eu 0.60647 1.01157 0.51974 0.0
O483 O 0.49309 0.97448 0.55702 0.0
O484 O 0.56507 0.9755 0.48164 0.0
Eu485 Eu 0.52941 1.00963 0.59967 0.0
Eu486 Eu 0.52583 0.01276 0.44307 0.0
O487 O 0.4904 0.04706 0.56103 0.0
O488 O 0.4916 0.04682 0.48785 0.0
O489 O 0.56201 0.04705 0.48638 0.0
O490 O 0.5665 0.04741 0.55942 0.0
Eu491 Eu 0.52744 0.08839 0.52416 0.0
O492 O 0.52945 0.89723 0.57732 0.0
O493 O 0.52629 0.8998 0.45818 0.0
O494 O 0.52785 0.12249 0.58412 0.0
O495 O 0.5283 0.12529 0.46462 0.0
O496 O 0.41502 0.07181 0.52702 0.0
O497 O 0.41551 0.94836 0.51803 0.0
O498 O 0.6402 0.0733 0.52955 0.0
O499 O 0.64028 0.94946 0.51235 0.0
O500 O 0.58472 0.02155 0.40902 0.0
O501 O 0.46527 0.02782 0.41239 0.0
O502 O 0.58971 0.99681 0.63082 0.0
O503 O 0.47019 0.99886 0.63419 0.0
O504 O 0.58752 0.12363 0.52466 0.0
O505 O 0.46686 0.12335 0.52388 0.0
O506 O 0.58736 0.89912 0.51689 0.0
O507 O 0.46811 0.89782 0.51811 0.0
O508 O 0.52471 0.95151 0.40669 0.0
O509 O 0.52995 0.07567 0.41105 0.0
O510 O 0.53186 0.94645 0.63121 0.0
O511 O 0.53123 0.07105 0.63576 0.0
O512 O 0.41792 0.99642 0.58297 0.0
O513 O 0.41482 0.02294 0.46513 0.0
O514 O 0.63968 0.9922 0.57772 0.0
O515 O 0.63697 0.02972 0.45953 0.0
C516 C 0.15903 0.20937 0.56206 0.0
C517 C 0.19478 0.19584 0.58282 0.0
H518 H 0.10504 0.19288 0.52888 0.0
C519 C 0.19838 0.15378 0.59223 0.0
H520 H 0.15407 0.24125 0.55407 0.0
C521 C 0.17048 0.12567 0.57586 0.0
C522 C 0.13766 0.13923 0.5513 0.0
H523 H 0.22431 0.14219 0.60965 0.0
H524 H 0.17517 0.09332 0.58164 0.0
C525 C 0.1309 0.18138 0.54653 0.0
C526 C 0.87633 0.21637 0.45338 0.0
C527 C 0.83688 0.20598 0.43843 0.0
H528 H 0.93103 0.1958 0.48244 0.0
C529 C 0.82868 0.16414 0.43034 0.0
H530 H 0.8857 0.24779 0.45875 0.0
C531 C 0.85483 0.1337 0.44571 0.0
C532 C 0.89055 0.14478 0.46732 0.0
H533 H 0.80019 0.15465 0.41593 0.0
H534 H 0.84629 0.10172 0.44193 0.0
C535 C 0.9025 0.18617 0.4681 0.0
C536 C 0.87031 0.83029 0.42695 0.0
C537 C 0.82775 0.83365 0.43401 0.0
H538 H 0.93004 0.85251 0.44249 0.0
C539 C 0.81307 0.87044 0.45201 0.0
H540 H 0.88307 0.80433 0.41057 0.0
C541 C 0.84017 0.89813 0.47 0.0
C542 C 0.88243 0.89022 0.4696 0.0
H543 H 0.78068 0.8763 0.45659 0.0
H544 H 0.82776 0.92444 0.48618 0.0
C545 C 0.89739 0.85763 0.4457 0.0
C546 C 0.21264 0.86905 0.48091 0.0
C547 C 0.20323 0.83174 0.46109 0.0
H548 H 0.19037 0.92298 0.50978 0.0
C549 C 0.162 0.82382 0.45016 0.0
H550 H 0.24356 0.8768 0.49042 0.0
C551 C 0.13073 0.85047 0.46273 0.0
C552 C 0.14045 0.88579 0.48553 0.0
H553 H 0.15361 0.796 0.43393 0.0
H554 H 0.09911 0.84323 0.45499 0.0
C555 C 0.18174 0.89552 0.49301 0.0
C556 C 0.4493 0.16274 0.20353 0.0
C557 C 0.46299 0.20351 0.19866 0.0
H558 H 0.45032 0.10148 0.17958 0.0
C559 C 0.48196 0.21484 0.16125 0.0
H560 H 0.43332 0.1531 0.23113 0.0
C561 C 0.4913 0.18552 0.13193 0.0
C562 C 0.4822 0.14419 0.13929 0.0
H563 H 0.49338 0.24559 0.15565 0.0
H564 H 0.50792 0.195 0.10462 0.0
C565 C 0.45944 0.13312 0.1743 0.0
C566 C 0.86881 0.42546 0.19645 0.0
C567 C 0.82718 0.43701 0.19435 0.0
H568 H 0.92877 0.43276 0.17051 0.0
C569 C 0.81256 0.45462 0.15729 0.0
H570 H 0.88094 0.4097 0.22319 0.0
C571 C 0.8399 0.46767 0.12718 0.0
C572 C 0.88217 0.46301 0.13329 0.0
H573 H 0.78071 0.46315 0.15304 0.0
H574 H 0.82803 0.48433 0.10084 0.0
C575 C 0.89628 0.43913 0.16651 0.0
C576 C 0.44035 0.82977 0.16515 0.0
C577 C 0.45089 0.8359 0.20668 0.0
H578 H 0.44912 0.84946 0.10306 0.0
C579 C 0.47065 0.87305 0.21754 0.0
H580 H 0.42322 0.80288 0.15554 0.0
C581 C 0.48513 0.89962 0.18751 0.0
C582 C 0.4799 0.89009 0.14594 0.0
H583 H 0.47892 0.88029 0.24888 0.0
H584 H 0.50224 0.92659 0.19703 0.0
C585 C 0.45561 0.85614 0.13496 0.0
C586 C 0.19477 0.43583 0.16237 0.0
C587 C 0.19177 0.44899 0.20339 0.0
H588 H 0.17048 0.44069 0.10144 0.0
C589 C 0.15684 0.47176 0.21541 0.0
H590 H 0.2205 0.4173 0.15223 0.0
C591 C 0.12833 0.48484 0.18646 0.0
C592 C 0.13424 0.4758 0.1449 0.0
H593 H 0.15306 0.48292 0.24649 0.0
H594 H 0.10302 0.50408 0.19639 0.0
C595 C 0.16652 0.44966 0.13322 0.0
C596 C 0.47045 0.80818 0.87309 0.0
C597 C 0.45228 0.81808 0.8349 0.0
H598 H 0.498 0.83004 0.92808 0.0
C599 C 0.44004 0.85906 0.82795 0.0
H600 H 0.48022 0.77735 0.88076 0.0
C601 C 0.45194 0.88999 0.8552 0.0
C602 C 0.47487 0.88013 0.89048 0.0
H603 H 0.42421 0.86777 0.79996 0.0
H604 H 0.44418 0.9216 0.84805 0.0
C605 C 0.4817 0.83882 0.90035 0.0
C606 C 0.16337 0.5671 0.82086 0.0
C607 C 0.20202 0.58208 0.83403 0.0
H608 H 0.10616 0.54028 0.83734 0.0
C609 C 0.20755 0.58946 0.8764 0.0
H610 H 0.15629 0.56129 0.78895 0.0
C611 C 0.17835 0.57566 0.90479 0.0
C612 C 0.14252 0.55567 0.89117 0.0
H613 H 0.23557 0.60319 0.88803 0.0
H614 H 0.18443 0.57961 0.9373 0.0
C615 C 0.13425 0.55397 0.84901 0.0
C616 C 0.45223 0.15527 0.81307 0.0
C617 C 0.4401 0.19519 0.82525 0.0
H618 H 0.47761 0.09781 0.83128 0.0
C619 C 0.43204 0.20164 0.86735 0.0
H620 H 0.45685 0.1469 0.7813 0.0
C621 C 0.44549 0.17313 0.8965 0.0
C622 C 0.46504 0.13682 0.88382 0.0
H623 H 0.41921 0.23028 0.87828 0.0
H624 H 0.44205 0.18033 0.92883 0.0
C625 C 0.46507 0.12671 0.84204 0.0
C626 C 0.82136 0.58709 0.8713 0.0
C627 C 0.83437 0.59925 0.83157 0.0
H628 H 0.83648 0.5562 0.92698 0.0
C629 C 0.87712 0.60048 0.82411 0.0
H630 H 0.78954 0.58787 0.88075 0.0
C631 C 0.90434 0.58111 0.85106 0.0
C632 C 0.88958 0.56195 0.8869 0.0
H633 H 0.88949 0.61295 0.79587 0.0
H634 H 0.93666 0.58 0.84297 0.0
C635 C 0.84846 0.56795 0.89818 0.0
C636 C 0.70386 0.66569 0.10306 0.0
C637 C 0.69578 0.70752 0.09493 0.0
H638 H 0.68775 0.6034 0.08958 0.0
C639 C 0.65696 0.71767 0.07816 0.0
H640 H 0.73154 0.65622 0.11895 0.0
C641 C 0.63187 0.68736 0.06174 0.0
C642 C 0.64426 0.64614 0.06266 0.0
H643 H 0.64744 0.74906 0.07294 0.0
H644 H 0.6039 0.69675 0.0462 0.0
C645 C 0.67899 0.63525 0.08587 0.0
C646 C 0.33132 0.65064 0.94818 0.0
C647 C 0.33664 0.69282 0.95644 0.0
H648 H 0.35494 0.58973 0.95649 0.0
C649 C 0.37466 0.70597 0.97285 0.0
H650 H 0.30342 0.63929 0.93394 0.0
C651 C 0.40387 0.67776 0.98555 0.0
C652 C 0.39616 0.63561 0.98211 0.0
H653 H 0.38102 0.73782 0.97978 0.0
H654 H 0.43159 0.68921 1.00013 0.0
C655 C 0.36061 0.62218 0.96149 0.0
C656 C 0.3818 0.30957 0.98204 0.0
C657 C 0.35011 0.32237 0.95512 0.0
H658 H 0.43276 0.32759 0.01954 0.0
C659 C 0.35056 0.36281 0.94012 0.0
H660 H 0.38276 0.27874 0.99458 0.0
C661 C 0.37854 0.39104 0.95593 0.0
C662 C 0.40701 0.37904 0.98612 0.0
H663 H 0.32738 0.37338 0.91861 0.0
H664 H 0.37731 0.42249 0.94527 0.0
C665 C 0.41012 0.33771 0.99725 0.0
C666 C 0.72575 0.37303 0.95796 0.0
C667 C 0.70976 0.33853 0.9367 0.0
H668 H 0.71282 0.42454 0.99655 0.0
C669 C 0.66713 0.33693 0.92965 0.0
H670 H 0.75834 0.37726 0.96304 0.0
C671 C 0.64106 0.3635 0.95062 0.0
C672 C 0.65719 0.39356 0.97708 0.0
H673 H 0.65355 0.31273 0.91128 0.0
H674 H 0.60822 0.3597 0.94696 0.0
C675 C 0.69964 0.40008 0.97817 0.0
C676 C 0.94529 0.65362 0.70594 0.0
C677 C 0.95114 0.69595 0.69847 0.0
H678 H 0.96023 0.59209 0.68786 0.0
C679 C 0.97151 0.70782 0.66203 0.0
H680 H 0.9283 0.64301 0.73254 0.0
C681 C 0.99007 0.67893 0.63715 0.0
C682 C 0.98821 0.63712 0.64718 0.0
H683 H 0.97673 0.73963 0.65394 0.0
H684 H 1.00713 0.68981 0.61065 0.0
C685 C 0.96415 0.62442 0.68076 0.0
C686 C 0.37609 0.9736 0.72043 0.0
C687 C 0.34207 0.94992 0.70715 0.0
H688 H 0.43075 1.006 0.70344 0.0
C689 C 0.34145 0.93561 0.66647 0.0
H690 H 0.37803 0.98575 0.75132 0.0
C691 C 0.37123 0.9489 0.63868 0.0
C692 C 0.40265 0.9757 0.65134 0.0
H693 H 0.31652 0.91646 0.65541 0.0
H694 H 0.3691 0.93905 0.60704 0.0
C695 C 0.40619 0.9861 0.6928 0.0
C696 C 0.95792 0.3113 0.65064 0.0
C697 C 0.9377 0.32402 0.68693 0.0
H698 H 0.99617 0.32839 0.6003 0.0
C699 C 0.93122 0.36647 0.69252 0.0
H700 H 0.96225 0.27927 0.64307 0.0
C701 C 0.95235 0.39485 0.66826 0.0
C702 C 0.9783 0.38133 0.63657 0.0
H703 H 0.91329 0.37785 0.7181 0.0
H704 H 0.94916 0.42724 0.67505 0.0
C705 C 0.97845 0.33962 0.62615 0.0
C706 C 0.66519 0.93357 0.71175 0.0
C707 C 0.70739 0.92861 0.70278 0.0
H708 H 0.60827 0.95983 0.69337 0.0
C709 C 0.71936 0.93277 0.66111 0.0
H710 H 0.65265 0.92739 0.74189 0.0
C711 C 0.69316 0.9514 0.63269 0.0
C712 C 0.65389 0.96439 0.64479 0.0
H713 H 0.75021 0.92579 0.65094 0.0
H714 H 0.70446 0.95726 0.6019 0.0
C715 C 0.63929 0.95268 0.68367 0.0
C716 C 0.95267 0.37223 0.32832 0.0
C717 C 0.96199 0.33027 0.3336 0.0
H718 H 0.96192 0.43366 0.35026 0.0
C719 C 0.98422 0.31816 0.36886 0.0
H720 H 0.9348 0.3827 0.30221 0.0
C721 C 0.99978 0.34707 0.39576 0.0
C722 C 0.99352 0.38897 0.38852 0.0
H723 H 0.99277 0.28656 0.37455 0.0
H724 H 0.01806 0.33643 0.42156 0.0
C725 C 0.96871 0.40144 0.3554 0.0
C726 C 0.66011 0.06403 0.31698 0.0
C727 C 0.69777 0.08355 0.32613 0.0
H728 H 0.60869 0.03071 0.33914 0.0
C729 C 0.70686 0.09188 0.36775 0.0
H730 H 0.65061 0.0573 0.28586 0.0
C731 C 0.68265 0.07501 0.39906 0.0
C732 C 0.6482 0.05087 0.38918 0.0
H733 H 0.73431 0.10872 0.37627 0.0
H734 H 0.69137 0.08016 0.43079 0.0
C735 C 0.63604 0.04762 0.34797 0.0
C736 C 0.10364 0.66197 0.33472 0.0
C737 C 0.09202 0.70332 0.33964 0.0
H738 H 0.09691 0.60064 0.35712 0.0
C739 C 0.07642 0.71563 0.37828 0.0
H740 H 0.11818 0.65148 0.3067 0.0
C741 C 0.06532 0.68648 0.4075 0.0
C742 C 0.06973 0.64461 0.39883 0.0
H743 H 0.06797 0.74709 0.38473 0.0
H744 H 0.05033 0.69676 0.43539 0.0
C745 C 0.09131 0.63269 0.3635 0.0
C746 C 0.32434 0.05757 0.38204 0.0
C747 C 0.33538 0.07917 0.34604 0.0
H748 H 0.34461 0.02441 0.43464 0.0
C749 C 0.37693 0.09005 0.34032 0.0
H750 H 0.29298 0.0483 0.38826 0.0
C751 C 0.40707 0.0746 0.3667 0.0
C752 C 0.39589 0.04922 0.39985 0.0
H753 H 0.38649 0.1079 0.31384 0.0
H754 H 0.43907 0.08181 0.36064 0.0
C755 C 0.35424 0.04279 0.40852 0.0
C756 C 0.03088 0.20699 0.34283 0.0
C757 C 1.00546 0.19866 0.30859 0.0
H758 H 0.05282 0.18692 0.40202 0.0
C759 C 0.98602 0.16027 0.30639 0.0
H760 H 0.04536 0.23686 0.34587 0.0
C761 C 0.99051 0.13162 0.33841 0.0
C762 C 1.01355 0.14109 0.37406 0.0
H763 H 0.96512 0.15353 0.28133 0.0
H764 H 0.97393 0.1028 0.33621 0.0
C765 C 0.03446 0.17881 0.37543 0.0
C766 C 0.86554 0.03173 0.3023 0.0
C767 C 0.82503 0.01798 0.30829 0.0
H768 H 0.92552 0.04001 0.32855 0.0
C769 C 0.81562 0.99727 0.34531 0.0
H770 H 0.87344 0.04892 0.27485 0.0
C771 C 0.84484 0.99376 0.37694 0.0
C772 C 0.8846 1.01002 0.37204 0.0
H773 H 0.78435 0.98732 0.3513 0.0
H774 H 0.83581 0.97967 0.40578 0.0
C775 C 0.89511 0.02732 0.33359 0.0
C776 C 1.00345 0.81141 0.35356 0.0
C777 C 0.01924 0.82139 0.31445 0.0
H778 H 0.99134 0.83132 0.41501 0.0
C779 C 0.02918 0.86256 0.30616 0.0
H780 H 0.99688 0.77964 0.36131 0.0
C781 C 0.0249 0.89269 0.33684 0.0
C782 C 1.01199 0.88208 0.37701 0.0
H783 H 0.04285 0.87093 0.27695 0.0
H784 H 0.03405 0.92391 0.32966 0.0
C785 C 1.0007 0.84107 0.38461 0.0
C786 C 0.21259 1.00544 0.35414 0.0
C787 C 0.20488 0.02909 0.31856 0.0
H788 H 0.19012 0.98416 0.41256 0.0
C789 C 0.16562 0.04599 0.31303 0.0
H790 H 0.243 0.99291 0.35959 0.0
C791 C 0.13524 0.04072 0.34327 0.0
C792 C 0.14398 0.01958 0.38021 0.0
H793 H 0.15927 0.06541 0.28669 0.0
H794 H 0.10555 0.05516 0.33871 0.0
C795 C 0.18269 1.00117 0.38486 0.0
C796 C 0.97896 0.8663 0.71818 0.0
C797 C 0.99692 0.82718 0.71562 0.0
H798 H 0.96758 0.92407 0.68836 0.0
C799 C 0.01969 0.81759 0.67991 0.0
H800 H 0.95997 0.87415 0.74437 0.0
C801 C 0.02252 0.84539 0.64678 0.0
C802 C 1.00339 0.88403 0.64876 0.0
H803 H 0.03299 0.78726 0.67648 0.0
H804 H 0.03918 0.83637 0.61942 0.0
C805 C 0.9827 0.89455 0.68553 0.0
C806 C 0.16088 0.98997 0.7182 0.0
C807 C 0.20192 0.99974 0.70843 0.0
H808 H 0.09839 0.98528 0.69642 0.0
C809 C 0.21017 0.01629 0.66921 0.0
H810 H 0.15351 0.97667 0.74785 0.0
C811 C 0.17938 0.01925 0.63935 0.0
C812 C 0.13867 1.00767 0.64809 0.0
H813 H 0.24139 0.02432 0.6606 0.0
H814 H 0.18797 0.02949 0.60889 0.0
C815 C 0.12945 0.99437 0.68845 0.0
C816 C 0.98588 0.16203 0.71597 0.0
C817 C 0.99996 0.20243 0.71016 0.0
H818 H 0.97768 0.10207 0.68988 0.0
C819 C 0.01988 0.2121 0.67282 0.0
H820 H 0.96907 0.15399 0.7436 0.0
C821 C 0.02325 0.18294 0.64112 0.0
C822 C 1.00748 0.143 0.64623 0.0
H823 H 0.02991 0.24334 0.6669 0.0
H824 H 0.03728 0.19198 0.61228 0.0
C825 C 0.99015 0.13254 0.68469 0.0
C826 C 0.8046 0.01929 0.66676 0.0
C827 C 0.8169 1.01156 0.70771 0.0
H828 H 0.82289 0.02719 0.60369 0.0
C829 C 0.85912 1.01072 0.71645 0.0
H830 H 0.7722 0.01881 0.65882 0.0
C831 C 0.88825 0.01517 0.68481 0.0
C832 C 0.87605 0.01987 0.64324 0.0
H833 H 0.86963 1.00347 0.74724 0.0
H834 H 0.92047 1.01259 0.69291 0.0
C835 C 0.8337 0.02332 0.63496 0.0
C836 C 0.35672 1.00076 0.21859 0.0
C837 C 0.31947 0.02187 0.21159 0.0
H838 H 0.41511 0.98198 0.19425 0.0
C839 C 0.31043 0.03527 0.17162 0.0
H840 H 0.36466 0.9905 0.24931 0.0
C841 C 0.33937 0.0303 0.13998 0.0
C842 C 0.37818 1.0125 0.14795 0.0
H843 H 0.28247 0.05236 0.16555 0.0
H844 H 0.33229 0.04273 0.10988 0.0
C845 C 0.38594 0.99654 0.18728 0.0
C846 C 0.03619 0.34429 0.20176 0.0
C847 C 1.01065 0.30966 0.19642 0.0
H848 H 0.05665 0.40225 0.17759 0.0
C849 C 0.99092 0.30433 0.15836 0.0
H850 H 0.05108 0.34965 0.2311 0.0
C851 C 0.99431 0.33449 0.12747 0.0
C852 C 0.0166 0.37099 0.13456 0.0
H853 H 0.97017 0.27865 0.15377 0.0
H854 H 0.97704 0.33059 0.09923 0.0
C855 C 0.03869 0.37484 0.17145 0.0
C856 C 0.67575 1.00683 0.20724 0.0
C857 C 0.71278 0.02704 0.19695 0.0
H858 H 0.6151 0.98858 0.1882 0.0
C859 C 0.71777 0.04108 0.1564 0.0
H860 H 0.67055 0.99661 0.23855 0.0
C861 C 0.68595 0.03627 0.12734 0.0
C862 C 0.64785 0.01841 0.13844 0.0
H863 H 0.74522 0.05796 0.14786 0.0
H864 H 0.69044 0.0486 0.09671 0.0
C865 C 0.64363 1.00291 0.17858 0.0
C866 C 0.01641 0.71106 0.17242 0.0
C867 C 0.01377 0.70011 0.21401 0.0
H868 H 0.01541 0.69067 0.10998 0.0
C869 C 1.00258 0.65929 0.22395 0.0
H870 H 0.02558 0.74191 0.16375 0.0
C871 C 0.99779 0.62936 0.19326 0.0
C872 C 1.00349 0.63954 0.15167 0.0
H873 H 1.00051 0.64983 0.25585 0.0
H874 H 0.99131 0.59795 0.20232 0.0
C875 C 1.01115 0.68124 0.14165 0.0
C876 C 0.33427 0.02923 0.82443 0.0
C877 C 0.30128 1.00184 0.83163 0.0
H878 H 0.3929 0.05219 0.84501 0.0
C879 C 0.29981 0.98113 0.86949 0.0
H880 H 0.337 0.04458 0.79495 0.0
C881 C 0.33176 0.98566 0.89823 0.0
C882 C 0.36663 1.00992 0.88922 0.0
H883 H 0.27582 0.95871 0.87535 0.0
H884 H 0.33046 0.96793 0.92641 0.0
C885 C 0.36691 0.03269 0.85254 0.0
C886 C 1.0015 0.31271 0.85486 0.0
C887 C 1.00467 0.3227 0.81307 0.0
H888 H 1.00234 0.33436 0.91688 0.0
C889 C 0.0159 0.36336 0.80241 0.0
H890 H 0.99201 0.28212 0.86409 0.0
C891 C 0.0207 0.39393 0.83253 0.0
C892 C 0.01495 0.38462 0.87431 0.0
H893 H 0.01801 0.37219 0.77033 0.0
H894 H 0.02747 0.42511 0.82291 0.0
C895 C 1.00681 0.34315 0.88506 0.0
C896 C 0.66122 1.01059 0.80605 0.0
C897 C 0.70273 1.00589 0.81799 0.0
H898 H 0.59812 0.01666 0.82488 0.0
C899 C 0.71211 1.00756 0.86003 0.0
H900 H 0.65286 1.00845 0.77386 0.0
C901 C 0.68065 1.01195 0.88944 0.0
C902 C 0.63871 0.01422 0.87771 0.0
H903 H 0.74347 1.00286 0.87034 0.0
H904 H 0.68928 1.01168 0.9216 0.0
C905 C 0.62968 0.01469 0.8354 0.0
C906 C 0.03173 0.68289 0.82333 0.0
C907 C 1.00706 0.7178 0.83056 0.0
H908 H 0.05282 0.62426 0.84537 0.0
C909 C 0.9893 0.72229 0.86968 0.0
H910 H 0.04486 0.67789 0.79313 0.0
C911 C 0.9939 0.69145 0.8998 0.0
C912 C 0.01547 0.65484 0.89113 0.0
H913 H 0.96903 0.74797 0.87582 0.0
H914 H 0.97808 0.69505 0.92888 0.0
C915 C 0.03551 0.65166 0.85298 0.0
C916 C 0.21696 0.36062 0.0178 0.0
C917 C 0.20911 0.32183 1.0001 0.0
H918 H 0.19388 0.4204 0.03261 0.0
C919 C 0.16861 0.31233 0.98849 0.0
H920 H 0.24788 0.36887 0.02721 0.0
C921 C 0.13728 0.34195 0.99213 0.0
C922 C 0.14599 0.38187 1.00687 0.0
H923 H 0.1617 0.28302 0.97429 0.0
H924 H 0.10664 0.33413 0.98157 0.0
C925 C 0.18605 0.39038 0.02056 0.0
C926 C 0.16299 0.71606 1.00586 0.0
C927 C 0.20298 0.70752 0.01966 0.0
H928 H 0.10158 0.69339 0.99753 0.0
C929 C 0.20998 0.67065 0.04138 0.0
H930 H 0.15691 0.74373 0.98829 0.0
C931 C 0.17882 0.64117 0.04554 0.0
C932 C 0.1396 0.64819 0.02881 0.0
H933 H 0.2407 0.66305 0.05191 0.0
H934 H 0.18604 0.61212 0.06018 0.0
C935 C 0.13149 0.68682 1.01069 0.0
C936 C 0.30405 0.16012 0.98247 0.0
C937 C 0.30568 0.19756 1.00373 0.0
H938 H 0.33407 0.10293 0.96944 0.0
C939 C 0.33772 0.20372 0.0324 0.0
H940 H 0.28074 0.15511 0.95918 0.0
C941 C 0.36968 0.17505 0.03648 0.0
C942 C 0.36939 0.13887 0.01315 0.0
H943 H 0.34044 0.23287 0.04826 0.0
H944 H 0.39519 0.18177 0.05687 0.0
C945 C 0.33524 0.13078 0.98765 0.0
C946 C 0.81925 0.34168 0.01858 0.0
C947 C 0.82879 0.30634 0.99532 0.0
H948 H 0.83791 0.40217 0.03808 0.0
C949 C 0.86816 0.30382 0.97768 0.0
H950 H 0.78868 0.34528 0.03137 0.0
C951 C 0.8964 0.33641 0.98157 0.0
C952 C 0.88558 0.37309 1.00201 0.0
H953 H 0.87598 0.27797 0.95825 0.0
H954 H 0.92598 0.33378 0.96645 0.0
C955 C 0.847 0.37483 0.02143 0.0
C956 C 0.67197 0.81503 1.00606 0.0
C957 C 0.71072 0.82648 0.02202 0.0
H958 H 0.61013 0.83335 0.99123 0.0
C959 C 0.7172 0.86808 0.03156 0.0
H960 H 0.6655 0.78298 0.99969 0.0
C961 C 0.68538 0.8971 0.02667 0.0
C962 C 0.64574 0.88514 0.01322 0.0
H963 H 0.74598 0.87769 0.04536 0.0
H964 H 0.69128 0.92859 0.03571 0.0
C965 C 0.63989 0.8438 1.00201 0.0
C966 C 0.80737 0.66946 1.00796 0.0
C967 C 0.81856 0.70958 0.02035 0.0
H968 H 0.82654 0.6071 0.99724 0.0
C969 C 0.86038 0.71771 0.02731 0.0
H970 H 0.7752 0.66185 1.00347 0.0
C971 C 0.88984 0.68618 0.02414 0.0
C972 C 0.8783 0.6453 0.01461 0.0
H973 H 0.86994 0.74771 0.03817 0.0
H974 H 0.92154 0.6936 0.03131 0.0
C975 C 0.83672 0.63777 1.00529 0.0
C976 C 0.3044 0.86128 0.99578 0.0
C977 C 0.3113 0.82099 1.00942 0.0
H978 H 0.32933 0.92182 0.98819 0.0
C979 C 0.34894 0.81188 0.02903 0.0
H980 H 0.27632 0.86888 0.97949 0.0
C981 C 0.38025 0.84136 0.03194 0.0
C982 C 0.37415 0.88127 0.0168 0.0
H983 H 0.35539 0.78076 0.03909 0.0
H984 H 0.40957 0.83248 0.04495 0.0
C985 C 0.33523 0.89129 1.00011 0.0
C986 C 0.71311 0.16489 0.99148 0.0
C987 C 0.70453 0.20676 0.99732 0.0
H988 H 0.68958 0.10326 0.99008 0.0
C989 C 0.66454 0.21761 1.01044 0.0
H990 H 0.74312 0.15547 0.98054 0.0
C991 C 0.63332 0.18794 0.0148 0.0
C992 C 0.64116 0.14624 1.00671 0.0
H993 H 0.65668 0.24969 0.01477 0.0
H994 H 0.60274 0.19792 0.02342 0.0
C995 C 0.68197 0.13504 0.99636 0.0
C996 C 0.50642 0.65514 0.81058 0.0
C997 C 0.51974 0.69582 0.81528 0.0
H998 H 0.49905 0.59599 0.83844 0.0
C999 C 0.53966 0.70694 0.85219 0.0
H1000 H 0.48967 0.64611 0.78323 0.0
C1001 C 0.54365 0.67878 0.88473 0.0
C1002 C 0.52846 0.63856 0.88083 0.0
H1003 H 0.54908 0.73852 0.85711 0.0
H1004 H 0.55744 0.6889 0.91331 0.0
C1005 C 0.51119 0.62672 0.84273 0.0
C1006 C 0.32568 0.49885 0.86329 0.0
C1007 C 0.33395 0.51603 0.82439 0.0
H1008 H 0.34824 0.48431 0.92324 0.0
C1009 C 0.37494 0.52561 0.81448 0.0
H1010 H 0.29429 0.4918 0.87211 0.0
C1011 C 0.40647 0.52048 0.84383 0.0
C1012 C 0.39744 0.50657 0.88401 0.0
H1013 H 0.38214 0.5398 0.78519 0.0
H1014 H 0.43743 0.52989 0.83582 0.0
C1015 C 0.35673 0.49487 0.89284 0.0
C1016 C 0.53152 0.30616 0.86853 0.0
C1017 C 0.5219 0.31659 0.82755 0.0
H1018 H 0.54129 0.327 0.93018 0.0
C1019 C 0.52024 0.35833 0.81679 0.0
H1020 H 0.53231 0.27416 0.87789 0.0
C1021 C 0.52553 0.38889 0.8469 0.0
C1022 C 0.53201 0.3784 0.88862 0.0
H1023 H 0.51194 0.36731 0.78579 0.0
H1024 H 0.52229 0.42074 0.8377 0.0
C1025 C 0.53615 0.33654 0.89868 0.0
C1026 C 0.72816 0.51747 0.85838 0.0
C1027 C 0.71513 0.53191 0.81951 0.0
H1028 H 0.71155 0.50287 0.92082 0.0
C1029 C 0.67317 0.53977 0.81361 0.0
H1030 H 0.76059 0.51229 0.86417 0.0
C1031 C 0.64512 0.53448 0.84605 0.0
C1032 C 0.65841 0.52216 0.88563 0.0
H1033 H 0.66242 0.55234 0.78467 0.0
H1034 H 0.61312 0.54195 0.8405 0.0
C1035 C 0.70025 0.51292 0.89111 0.0
C1036 C 0.50788 0.36727 0.22894 0.0
C1037 C 0.52495 0.32786 0.22537 0.0
H1038 H 0.4964 0.42536 0.20005 0.0
C1039 C 0.54729 0.31851 0.18935 0.0
H1040 H 0.48915 0.37491 0.25538 0.0
C1041 C 0.54989 0.34665 0.15656 0.0
C1042 C 0.53096 0.38534 0.15928 0.0
H1043 H 0.55957 0.28785 0.18504 0.0
H1044 H 0.56562 0.33762 0.12866 0.0
C1045 C 0.51135 0.39582 0.19662 0.0
C1046 C 0.72175 0.52603 0.18672 0.0
C1047 C 0.71108 0.50655 0.22402 0.0
H1048 H 0.7037 0.54153 0.1251 0.0
C1049 C 0.67045 0.49277 0.22899 0.0
H1050 H 0.75326 0.5356 0.18138 0.0
C1051 C 0.64176 0.49677 0.19685 0.0
C1052 C 0.65342 0.51326 0.15836 0.0
H1053 H 0.66171 0.47619 0.25657 0.0
H1054 H 0.61106 0.48454 0.20136 0.0
C1055 C 0.69357 0.52866 0.15408 0.0
C1056 C 0.505 0.66481 0.22237 0.0
C1057 C 0.51598 0.70568 0.21383 0.0
H1058 H 0.49816 0.60348 0.1991 0.0
C1059 C 0.53263 0.71481 0.17477 0.0
H1060 H 0.49103 0.65699 0.25159 0.0
C1061 C 0.53525 0.68465 0.14408 0.0
C1062 C 0.522 0.64425 0.15178 0.0
H1063 H 0.54058 0.74624 0.16695 0.0
H1064 H 0.54664 0.69329 0.11397 0.0
C1065 C 0.50839 0.63436 0.19187 0.0
C1066 C 0.37031 0.48846 0.22031 0.0
C1067 C 0.33013 0.50194 0.21198 0.0
H1068 H 0.4318 0.48065 0.1974 0.0
C1069 C 0.32271 0.52227 0.17429 0.0
H1070 H 0.3769 0.472 0.24854 0.0
C1071 C 0.35354 0.52581 0.14433 0.0
C1072 C 0.3931 0.51012 0.15157 0.0
H1073 H 0.29197 0.53279 0.16677 0.0
H1074 H 0.34605 0.53995 0.11509 0.0
C1075 C 0.40155 0.49288 0.1906 0.0
C1076 C 0.86587 0.5108 0.71899 0.0
C1077 C 0.8268 0.52609 0.70811 0.0
H1078 H 0.92678 0.49531 0.69938 0.0
C1079 C 0.81827 0.53266 0.66629 0.0
H1080 H 0.87373 0.50649 0.75111 0.0
C1081 C 0.84883 0.52615 0.63631 0.0
C1082 C 0.88894 0.51367 0.64756 0.0
H1083 H 0.78897 0.5456 0.65706 0.0
H1084 H 0.8416 0.53321 0.60457 0.0
C1085 C 0.89655 0.50496 0.68927 0.0
C1086 C 0.54144 0.8488 0.71758 0.0
C1087 C 0.52403 0.81042 0.70754 0.0
H1088 H 0.5559 0.90984 0.69764 0.0
C1089 C 0.51368 0.80269 0.66639 0.0
H1090 H 0.54885 0.85593 0.74928 0.0
C1091 C 0.51811 0.83365 0.63649 0.0
C1092 C 0.53211 0.87331 0.64735 0.0
H1093 H 0.49918 0.7739 0.65797 0.0
H1094 H 0.50803 0.82723 0.60541 0.0
C1095 C 0.5449 0.87998 0.68805 0.0
C1096 C 0.23028 0.53197 0.66976 0.0
C1097 C 0.22458 0.51973 0.71066 0.0
H1098 H 0.20383 0.538 0.60983 0.0
C1099 C 0.18703 0.50064 0.72146 0.0
H1100 H 0.2581 0.54805 0.66083 0.0
C1101 C 0.155 0.49627 0.69273 0.0
C1102 C 0.15998 0.51021 0.65217 0.0
H1103 H 0.18131 0.49199 0.75315 0.0
H1104 H 0.12603 0.48303 0.70258 0.0
C1105 C 0.19864 0.5268 0.64079 0.0
C1106 C 0.53361 0.17029 0.72434 0.0
C1107 C 0.52018 0.20969 0.71195 0.0
H1108 H 0.54655 0.10791 0.7067 0.0
C1109 C 0.51345 0.21687 0.67005 0.0
H1110 H 0.53769 0.16352 0.75673 0.0
C1111 C 0.51828 0.18503 0.64143 0.0
C1112 C 0.52914 0.14476 0.65399 0.0
H1113 H 0.50167 0.2463 0.65976 0.0
H1114 H 0.51125 0.19169 0.60955 0.0
C1115 C 0.53787 0.13816 0.69579 0.0
C1116 C 0.82391 0.50704 0.36457 0.0
C1117 C 0.83422 0.51047 0.32284 0.0
H1118 H 0.84517 0.50788 0.4269 0.0
C1119 C 0.87467 0.52266 0.31263 0.0
H1120 H 0.79335 0.49709 0.37347 0.0
C1121 C 0.90482 0.52805 0.34309 0.0
C1122 C 0.89535 0.52179 0.3848 0.0
H1123 H 0.88368 0.52537 0.28066 0.0
H1124 H 0.93594 0.53542 0.3337 0.0
C1125 C 0.85401 0.51274 0.39516 0.0
C1126 C 0.53407 0.85098 0.31916 0.0
C1127 C 0.51465 0.8135 0.32958 0.0
H1128 H 0.55145 0.91189 0.33837 0.0
C1129 C 0.50162 0.80784 0.37026 0.0
H1130 H 0.54336 0.8567 0.28767 0.0
C1131 C 0.50638 0.8394 0.39933 0.0
C1132 C 0.5232 0.87798 0.38822 0.0
H1133 H 0.48522 0.78012 0.3789 0.0
H1134 H 0.49478 0.83423 0.43012 0.0
C1135 C 0.53787 0.88298 0.34793 0.0
C1136 C 0.23168 0.47875 0.3711 0.0
C1137 C 0.22752 0.49756 0.33237 0.0
H1138 H 0.20457 0.46784 0.4305 0.0
C1139 C 0.19287 0.52266 0.3254 0.0
H1140 H 0.25711 0.45804 0.37693 0.0
C1141 C 0.16151 0.5259 0.35475 0.0
C1142 C 0.16473 0.50592 0.39287 0.0
H1143 H 0.18806 0.53649 0.29543 0.0
H1144 H 0.13411 0.54296 0.34695 0.0
C1145 C 0.20105 0.48367 0.40138 0.0
C1146 C 0.54666 0.17272 0.32455 0.0
C1147 C 0.5272 0.21066 0.33233 0.0
H1148 H 0.5621 0.1126 0.34702 0.0
C1149 C 0.51289 0.21833 0.37233 0.0
H1150 H 0.55731 0.16555 0.29382 0.0
C1151 C 0.51561 0.18782 0.40301 0.0
C1152 C 0.53194 0.14861 0.39412 0.0
H1153 H 0.49678 0.24667 0.37904 0.0
H1154 H 0.50259 0.19413 0.43298 0.0
C1155 C 0.54867 0.14203 0.35485 0.0
C1156 C 0.7247 0.84623 0.5222 0.0
C1157 C 0.71282 0.80922 0.50294 0.0
H1158 H 0.70763 0.90775 0.53943 0.0
C1159 C 0.67188 0.80501 0.49002 0.0
H1160 H 0.75649 0.85089 0.53116 0.0
C1161 C 0.64395 0.83752 0.49472 0.0
C1162 C 0.65653 0.8756 0.51138 0.0
H1163 H 0.66224 0.77767 0.47365 0.0
H1164 H 0.61292 0.83349 0.4832 0.0
C1165 C 0.69704 0.87921 0.52597 0.0
C1166 C 0.67489 0.21876 0.5131 0.0
C1167 C 0.71684 0.21082 0.51913 0.0
H1168 H 0.61379 0.19433 0.51129 0.0
C1169 C 0.72846 0.17143 0.53325 0.0
H1170 H 0.66507 0.24827 0.50112 0.0
C1171 C 0.69931 0.13982 0.53785 0.0
C1172 C 0.65759 0.14689 0.52896 0.0
H1173 H 0.76075 0.1641 0.53722 0.0
H1174 H 0.70981 0.10943 0.54654 0.0
C1175 C 0.64561 0.18734 0.51826 0.0
C1176 C 0.8236 0.66598 0.50317 0.0
C1177 C 0.83354 0.70786 0.50499 0.0
H1178 H 0.84555 0.60401 0.50558 0.0
C1179 C 0.87425 0.71901 0.51532 0.0
H1180 H 0.79285 0.65643 0.4945 0.0
C1181 C 0.90491 0.68913 0.52075 0.0
C1182 C 0.89566 0.64717 0.51629 0.0
H1183 H 0.88294 0.75117 0.5165 0.0
H1184 H 0.93611 0.69905 0.52702 0.0
C1185 C 0.8542 0.63599 0.50894 0.0
C1186 C 0.32815 0.85004 0.52911 0.0
C1187 C 0.33682 0.81246 0.50938 0.0
H1188 H 0.34895 0.91049 0.54481 0.0
C1189 C 0.37699 0.80574 0.49506 0.0
H1190 H 0.29726 0.85642 0.53987 0.0
C1191 C 0.40725 0.83657 0.49911 0.0
C1192 C 0.39756 0.87532 0.51618 0.0
H1193 H 0.38434 0.77773 0.47869 0.0
H1194 H 0.43767 0.83079 0.48687 0.0
C1195 C 0.35772 0.88129 0.53164 0.0
C1196 C 0.19006 0.31326 0.50627 0.0
C1197 C 0.22554 0.32188 0.52991 0.0
H1198 H 0.13031 0.33352 0.4859 0.0
C1199 C 0.22915 0.36099 0.54756 0.0
H1200 H 0.18575 0.28286 0.49338 0.0
C1201 C 0.19742 0.39001 0.54323 0.0
C1202 C 0.16059 0.38033 0.52214 0.0
H1203 H 0.25511 0.36809 0.56723 0.0
H1204 H 0.2009 0.41939 0.55847 0.0
C1205 C 0.15778 0.34187 0.50284 0.0
C1206 C 0.37225 0.21326 0.54411 0.0
C1207 C 0.33244 0.20471 0.52955 0.0
H1208 H 0.43355 0.19049 0.55425 0.0
C1209 C 0.32554 0.16664 0.50995 0.0
H1210 H 0.37836 0.24174 0.56021 0.0
C1211 C 0.35649 0.13668 0.50797 0.0
C1212 C 0.39562 0.14418 0.52474 0.0
H1213 H 0.29504 0.15885 0.49891 0.0
H1214 H 0.3494 0.1072 0.4942 0.0
C1215 C 0.40363 0.1835 0.54131 0.0
C1216 C 0.86115 0.31684 0.52639 0.0
C1217 C 0.82308 0.32761 0.50855 0.0
H1218 H 0.92256 0.33578 0.54217 0.0
C1219 C 0.81727 0.36847 0.49591 0.0
H1220 H 0.86705 0.28521 0.53511 0.0
C1221 C 0.84915 0.3975 0.4998 0.0
C1222 C 0.88811 0.38615 0.51541 0.0
H1223 H 0.78899 0.37733 0.48064 0.0
H1224 H 0.84387 0.42839 0.48849 0.0
C1225 C 0.8933 0.34562 0.52959 0.0
C1226 C 0.19155 0.70614 0.54587 0.0
C1227 C 0.22673 0.69956 0.52136 0.0
H1228 H 0.13307 0.68309 0.56635 0.0
C1229 C 0.23241 0.66055 0.50393 0.0
H1230 H 0.18586 0.73624 0.55892 0.0
C1231 C 0.20213 0.62996 0.50828 0.0
C1232 C 0.16504 0.63803 0.52937 0.0
H1233 H 0.25846 0.6549 0.48396 0.0
H1234 H 0.20655 0.60097 0.49257 0.0
C1235 C 0.16084 0.67599 0.54939 0.0
loop_
_geom_bond_atom_site_label_1
_geom_bond_atom_site_label_2
_geom_bond_distance
_geom_bond_site_symmetry_2
_ccdc_geom_bond_type
H0 C3 0.931 1_655 S
H1 C6 0.928 . S
H2 C8 0.931 . S
C3 H0 0.931 1_455 S
C3 C4 1.413 . S
C3 C5 1.360 . S
C4 C3 1.413 . S
C4 C8 1.429 . S
C5 C3 1.360 . S
C5 C6 1.372 1_455 S
C6 H1 0.928 . S
C6 C5 1.372 1_655 S
C6 C7 1.404 1_655 S
C7 C6 1.404 1_455 S
C7 C8 1.390 . S
C8 H2 0.931 . S
C8 C4 1.429 . S
C8 C7 1.390 . S
H9 C12 0.931 . S
H10 C15 0.928 . S
H11 C17 0.930 . S
C12 H9 0.931 . S
C12 C13 1.413 . S
C12 C14 1.360 . S
C13 C12 1.413 . S
C13 C17 1.429 1_545 S
C14 C12 1.360 . S
C14 C15 1.373 . S
C15 H10 0.928 . S
C15 C14 1.373 . S
C15 C16 1.405 . S
C16 C15 1.405 . S
C16 C17 1.390 1_545 S
C17 H11 0.930 . S
C17 C13 1.429 1_565 S
C17 C16 1.390 1_565 S
H18 C21 0.931 . S
H19 C24 0.928 . S
H20 C26 0.930 1_655 S
C21 H18 0.931 . S
C21 C22 1.414 . S
C21 C23 1.360 . S
C22 C21 1.414 . S
C22 C26 1.429 . S
C23 C21 1.360 . S
C23 C24 1.372 . S
C24 H19 0.928 . S
C24 C23 1.372 . S
C24 C25 1.404 . S
C25 C24 1.404 . S
C25 C26 1.391 . S
C26 H20 0.930 1_455 S
C26 C22 1.429 . S
C26 C25 1.391 . S
H27 C30 0.931 . S
H28 C33 0.928 . S
H29 C35 0.930 . S
C30 H27 0.931 . S
C30 C31 1.413 . S
C30 C32 1.360 . S
C31 C30 1.413 . S
C31 C35 1.429 1_545 S
C32 C30 1.360 . S
C32 C33 1.373 . S
C33 H28 0.928 . S
C33 C32 1.373 . S
C33 C34 1.405 . S
C34 C33 1.405 . S
C34 C35 1.390 1_545 S
C35 H29 0.930 . S
C35 C31 1.429 1_565 S
C35 C34 1.390 1_565 S
H36 C39 0.931 1_655 S
H37 C42 0.928 . S
H38 C44 0.931 . S
C39 H36 0.931 1_455 S
C39 C40 1.413 . S
C39 C41 1.360 . S
C40 C39 1.413 . S
C40 C44 1.429 . S
C41 C39 1.360 . S
C41 C42 1.372 1_455 S
C42 H37 0.928 . S
C42 C41 1.372 1_655 S
C42 C43 1.404 1_655 S
C43 C42 1.404 1_455 S
C43 C44 1.390 . S
C44 H38 0.931 . S
C44 C40 1.429 . S
C44 C43 1.390 . S
H45 C48 0.931 . S
H46 C51 0.928 . S
H47 C53 0.931 . S
C48 H45 0.931 . S
C48 C49 1.413 . S
C48 C50 1.360 . S
C49 C48 1.413 . S
C49 C53 1.429 1_565 S
C50 C48 1.360 . S
C50 C51 1.372 . S
C51 H46 0.928 . S
C51 C50 1.372 . S
C51 C52 1.404 . S
C52 C51 1.404 . S
C52 C53 1.390 1_565 S
C53 H47 0.931 . S
C53 C49 1.429 1_545 S
C53 C52 1.390 1_545 S
H54 C57 0.931 1_655 S
H55 C60 0.928 . S
H56 C62 0.931 . S
C57 H54 0.931 1_455 S
C57 C58 1.413 . S
C57 C59 1.360 . S
C58 C57 1.413 . S
C58 C62 1.429 . S
C59 C57 1.360 . S
C59 C60 1.372 1_455 S
C60 H55 0.928 . S
C60 C59 1.372 1_655 S
C60 C61 1.404 1_655 S
C61 C60 1.404 1_455 S
C61 C62 1.390 . S
C62 H56 0.931 . S
C62 C58 1.429 . S
C62 C61 1.390 . S
H63 C66 0.931 . S
H64 C69 0.928 . S
H65 C71 0.931 . S
C66 H63 0.931 . S
C66 C67 1.413 . S
C66 C68 1.360 . S
C67 C66 1.413 . S
C67 C71 1.429 1_565 S
C68 C66 1.360 . S
C68 C69 1.372 . S
C69 H64 0.928 . S
C69 C68 1.372 . S
C69 C70 1.404 . S
C70 C69 1.404 . S
C70 C71 1.390 1_565 S
C71 H65 0.931 . S
C71 C67 1.429 1_545 S
C71 C70 1.390 1_545 S
H72 C75 0.931 . S
H73 C78 0.928 . S
H74 C80 0.931 . S
C75 H72 0.931 . S
C75 C76 1.413 . S
C75 C77 1.360 . S
C76 C75 1.413 . S
C76 C80 1.429 1_556 S
C77 C75 1.360 . S
C77 C78 1.372 . S
C78 H73 0.928 . S
C78 C77 1.372 . S
C78 C79 1.404 . S
C79 C78 1.404 . S
C79 C80 1.390 1_556 S
C80 H74 0.931 . S
C80 C76 1.429 1_554 S
C80 C79 1.390 1_554 S
H81 C84 0.931 . S
H82 C87 0.928 . S
H83 C89 0.931 . S
C84 H81 0.931 . S
C84 C85 1.413 . S
C84 C86 1.360 . S
C85 C84 1.413 . S
C85 C89 1.429 1_556 S
C86 C84 1.360 . S
C86 C87 1.372 . S
C87 H82 0.928 . S
C87 C86 1.372 . S
C87 C88 1.404 . S
C88 C87 1.404 . S
C88 C89 1.390 1_556 S
C89 H83 0.931 . S
C89 C85 1.429 1_554 S
C89 C88 1.390 1_554 S
H90 C93 0.931 . S
H91 C96 0.928 . S
H92 C98 0.931 . S
C93 H90 0.931 . S
C93 C94 1.413 . S
C93 C95 1.360 . S
C94 C93 1.413 . S
C94 C98 1.429 1_556 S
C95 C93 1.360 . S
C95 C96 1.372 . S
C96 H91 0.928 . S
C96 C95 1.372 . S
C96 C97 1.404 . S
C97 C96 1.404 . S
C97 C98 1.390 1_556 S
C98 H92 0.931 . S
C98 C94 1.429 1_554 S
C98 C97 1.390 1_554 S
H99 C102 0.931 . S
H100 C105 0.928 . S
H101 C107 0.930 . S
C102 H99 0.931 . S
C102 C103 1.413 . S
C102 C104 1.360 . S
C103 C102 1.413 . S
C103 C107 1.429 1_554 S
C104 C102 1.360 . S
C104 C105 1.373 . S
C105 H100 0.928 . S
C105 C104 1.373 . S
C105 C106 1.405 . S
C106 C105 1.405 . S
C106 C107 1.390 1_554 S
C107 H101 0.930 . S
C107 C103 1.429 1_556 S
C107 C106 1.390 1_556 S
H108 C111 0.931 . S
H109 C114 0.928 . S
H110 C116 0.930 . S
C111 H108 0.931 . S
C111 C112 1.413 . S
C111 C113 1.360 . S
C112 C111 1.413 . S
C112 C116 1.429 . S
C113 C111 1.360 . S
C113 C114 1.372 . S
C114 H109 0.928 . S
C114 C113 1.372 . S
C114 C115 1.404 . S
C115 C114 1.404 . S
C115 C116 1.391 . S
C116 H110 0.930 . S
C116 C112 1.429 . S
C116 C115 1.391 . S
H117 C120 0.931 . S
H118 C123 0.928 . S
H119 C125 0.930 . S
C120 H117 0.931 . S
C120 C121 1.413 . S
C120 C122 1.360 . S
C121 C120 1.413 . S
C121 C125 1.429 . S
C122 C120 1.360 . S
C122 C123 1.372 . S
C123 H118 0.928 . S
C123 C122 1.372 . S
C123 C124 1.404 . S
C124 C123 1.404 . S
C124 C125 1.391 . S
C125 H119 0.930 . S
C125 C121 1.429 . S
C125 C124 1.391 . S
H126 C129 0.931 . S
H127 C132 0.928 . S
H128 C134 0.930 . S
C129 H126 0.931 . S
C129 C130 1.413 . S
C129 C131 1.360 . S
C130 C129 1.413 . S
C130 C134 1.429 . S
C131 C129 1.360 . S
C131 C132 1.372 . S
C132 H127 0.928 . S
C132 C131 1.372 . S
C132 C133 1.404 . S
C133 C132 1.404 . S
C133 C134 1.391 . S
C134 H128 0.930 . S
C134 C130 1.429 . S
C134 C133 1.391 . S
H135 C138 0.931 . S
H136 C141 0.928 . S
H137 C143 0.930 . S
C138 H135 0.931 . S
C138 C139 1.413 . S
C138 C140 1.360 . S
C139 C138 1.413 . S
C139 C143 1.429 . S
C140 C138 1.360 . S
C140 C141 1.372 . S
C141 H136 0.928 . S
C141 C140 1.372 . S
C141 C142 1.404 . S
C142 C141 1.404 . S
C142 C143 1.391 . S
C143 H137 0.930 . S
C143 C139 1.429 . S
C143 C142 1.391 . S
H144 C147 0.931 . S
H145 C150 0.928 . S
H146 C152 0.930 . S
C147 H144 0.931 . S
C147 C148 1.413 . S
C147 C149 1.360 . S
C148 C147 1.413 . S
C148 C152 1.429 . S
C149 C147 1.360 . S
C149 C150 1.372 . S
C150 H145 0.928 . S
C150 C149 1.372 . S
C150 C151 1.404 . S
C151 C150 1.404 . S
C151 C152 1.391 . S
C152 H146 0.930 . S
C152 C148 1.429 . S
C152 C151 1.391 . S
H153 C156 0.931 . S
H154 C159 0.928 . S
H155 C161 0.930 . S
C156 H153 0.931 . S
C156 C157 1.413 . S
C156 C158 1.360 . S
C157 C156 1.413 . S
C157 C161 1.429 . S
C158 C156 1.360 . S
C158 C159 1.372 . S
C159 H154 0.928 . S
C159 C158 1.372 . S
C159 C160 1.404 . S
C160 C159 1.404 . S
C160 C161 1.391 . S
C161 H155 0.930 . S
C161 C157 1.429 . S
C161 C160 1.391 . S
H162 C165 0.931 . S
H163 C168 0.928 . S
H164 C170 0.930 . S
C165 H162 0.931 . S
C165 C166 1.413 . S
C165 C167 1.360 . S
C166 C165 1.413 . S
C166 C170 1.429 . S
C167 C165 1.360 . S
C167 C168 1.372 . S
C168 H163 0.928 . S
C168 C167 1.372 . S
C168 C169 1.404 . S
C169 C168 1.404 . S
C169 C170 1.391 . S
C170 H164 0.930 . S
C170 C166 1.429 . S
C170 C169 1.391 . S
H171 C174 0.931 . S
H172 C177 0.928 . S
H173 C179 0.930 . S
C174 H171 0.931 . S
C174 C175 1.413 . S
C174 C176 1.360 . S
C175 C174 1.413 . S
C175 C179 1.429 . S
C176 C174 1.360 . S
C176 C177 1.372 . S
C177 H172 0.928 . S
C177 C176 1.372 . S
C177 C178 1.404 . S
C178 C177 1.404 . S
C178 C179 1.391 . S
C179 H173 0.930 . S
C179 C175 1.429 . S
C179 C178 1.391 . S
H180 C183 0.931 . S
H181 C186 0.928 . S
H182 C188 0.930 . S
C183 H180 0.931 . S
C183 C184 1.413 . S
C183 C185 1.360 . S
C184 C183 1.413 . S
C184 C188 1.429 . S
C185 C183 1.360 . S
C185 C186 1.372 . S
C186 H181 0.928 . S
C186 C185 1.372 . S
C186 C187 1.404 . S
C187 C186 1.404 . S
C187 C188 1.391 . S
C188 H182 0.930 . S
C188 C184 1.429 . S
C188 C187 1.391 . S
H189 C192 0.931 . S
H190 C195 0.928 . S
H191 C197 0.930 . S
C192 H189 0.931 . S
C192 C193 1.413 . S
C192 C194 1.360 . S
C193 C192 1.413 . S
C193 C197 1.429 . S
C194 C192 1.360 . S
C194 C195 1.372 . S
C195 H190 0.928 . S
C195 C194 1.372 . S
C195 C196 1.404 . S
C196 C195 1.404 . S
C196 C197 1.391 . S
C197 H191 0.930 . S
C197 C193 1.429 . S
C197 C196 1.391 . S
H198 C201 0.931 . S
H199 C204 0.928 . S
H200 C206 0.930 . S
C201 H198 0.931 . S
C201 C202 1.413 . S
C201 C203 1.360 . S
C202 C201 1.413 . S
C202 C206 1.429 . S
C203 C201 1.360 . S
C203 C204 1.372 . S
C204 H199 0.928 . S
C204 C203 1.372 . S
C204 C205 1.404 . S
C205 C204 1.404 . S
C205 C206 1.391 . S
C206 H200 0.930 . S
C206 C202 1.429 . S
C206 C205 1.391 . S
H207 C210 0.931 . S
H208 C213 0.928 . S
H209 C215 0.930 . S
C210 H207 0.931 . S
C210 C211 1.413 . S
C210 C212 1.360 . S
C211 C210 1.413 . S
C211 C215 1.429 . S
C212 C210 1.360 . S
C212 C213 1.372 . S
C213 H208 0.928 . S
C213 C212 1.372 . S
C213 C214 1.404 . S
C214 C213 1.404 . S
C214 C215 1.391 . S
C215 H209 0.930 . S
C215 C211 1.429 . S
C215 C214 1.391 . S
C216 O242 1.283 . S
C216 O260 1.283 . S
C217 O243 1.283 . S
C217 O258 1.283 . S
C218 O244 1.283 . S
C218 O261 1.283 . S
C219 O245 1.283 . S
C219 O259 1.283 . S
C220 O246 1.283 . S
C220 O255 1.283 . S
C221 O247 1.283 . S
C221 O257 1.283 . S
C222 O248 1.283 . S
C222 O254 1.283 . S
C223 O249 1.283 . S
C223 O256 1.283 . S
C224 O250 1.283 . S
C224 O265 1.283 . S
C225 O251 1.283 . S
C225 O263 1.283 . S
C226 O252 1.283 . S
C226 O264 1.283 . S
C227 O253 1.283 . S
C227 O262 1.283 . S
Eu228 O229 2.359 1_455 S
Eu228 O230 2.382 . S
Eu228 O233 2.359 1_455 S
Eu228 O234 2.382 . S
Eu228 O242 2.363 . S
Eu228 O243 2.363 . S
Eu228 O256 2.382 . S
Eu228 O257 2.343 1_455 S
O229 Eu228 2.359 1_655 S
O229 Eu231 2.368 1_565 S
O229 Eu236 2.356 1_665 S
O230 Eu228 2.382 . S
O230 Eu232 2.368 1_565 S
O230 Eu235 2.380 1_565 S
Eu231 O229 2.368 1_545 S
Eu231 O233 2.368 1_545 S
Eu231 O237 2.373 . S
Eu231 O238 2.373 . S
Eu231 O246 2.367 . S
Eu231 O247 2.359 1_545 S
Eu231 O262 2.363 . S
Eu231 O263 2.363 . S
Eu232 O230 2.368 1_545 S
Eu232 O234 2.368 1_545 S
Eu232 O239 2.372 . S
Eu232 O240 2.372 . S
Eu232 O248 2.367 . S
Eu232 O249 2.359 1_545 S
Eu232 O264 2.363 . S
Eu232 O265 2.363 . S
O233 Eu228 2.359 1_655 S
O233 Eu231 2.368 1_565 S
O233 Eu235 2.356 1_665 S
O234 Eu228 2.382 . S
O234 Eu232 2.368 1_565 S
O234 Eu236 2.379 1_565 S
Eu235 O230 2.380 1_545 S
Eu235 O233 2.356 1_445 S
Eu235 O237 2.361 1_455 S
Eu235 O240 2.384 . S
Eu235 O252 2.383 . S
Eu235 O253 2.343 1_455 S
Eu235 O260 2.359 1_545 S
Eu235 O261 2.367 . S
Eu236 O229 2.356 1_445 S
Eu236 O234 2.379 1_545 S
Eu236 O238 2.361 1_455 S
Eu236 O239 2.384 . S
Eu236 O250 2.383 . S
Eu236 O251 2.343 1_455 S
Eu236 O258 2.359 1_545 S
Eu236 O259 2.367 . S
O237 Eu231 2.373 . S
O237 Eu235 2.361 1_655 S
O237 Eu241 2.358 1_655 S
O238 Eu231 2.373 . S
O238 Eu236 2.361 1_655 S
O238 Eu241 2.358 1_655 S
O239 Eu232 2.372 . S
O239 Eu236 2.384 . S
O239 Eu241 2.382 . S
O240 Eu232 2.372 . S
O240 Eu235 2.384 . S
O240 Eu241 2.382 . S
Eu241 O237 2.358 1_455 S
Eu241 O238 2.358 1_455 S
Eu241 O239 2.382 . S
Eu241 O240 2.382 . S
Eu241 O244 2.363 . S
Eu241 O245 2.363 . S
Eu241 O254 2.383 . S
Eu241 O255 2.343 1_455 S
O242 C216 1.283 . S
O242 Eu228 2.363 . S
O243 C217 1.283 . S
O243 Eu228 2.363 . S
O244 C218 1.283 . S
O244 Eu241 2.363 . S
O245 C219 1.283 . S
O245 Eu241 2.363 . S
O246 C220 1.283 . S
O246 Eu231 2.367 . S
O247 C221 1.283 . S
O247 Eu231 2.359 1_565 S
O248 C222 1.283 . S
O248 Eu232 2.367 . S
O249 C223 1.283 . S
O249 Eu232 2.359 1_565 S
O250 C224 1.283 . S
O250 Eu236 2.383 . S
O251 C225 1.283 . S
O251 Eu236 2.343 1_655 S
O252 C226 1.283 . S
O252 Eu235 2.383 . S
O253 C227 1.283 . S
O253 Eu235 2.343 1_655 S
O254 C222 1.283 . S
O254 Eu241 2.383 . S
O255 C220 1.283 . S
O255 Eu241 2.343 1_655 S
O256 C223 1.283 . S
O256 Eu228 2.382 . S
O257 C221 1.283 . S
O257 Eu228 2.343 1_655 S
O258 C217 1.283 . S
O258 Eu236 2.359 1_565 S
O259 C219 1.283 . S
O259 Eu236 2.367 . S
O260 C216 1.283 . S
O260 Eu235 2.359 1_565 S
O261 C218 1.283 . S
O261 Eu235 2.367 . S
O262 C227 1.283 . S
O262 Eu231 2.363 . S
O263 C225 1.283 . S
O263 Eu231 2.363 . S
O264 C226 1.283 . S
O264 Eu232 2.363 . S
O265 C224 1.283 . S
O265 Eu232 2.363 . S
C266 O292 1.283 . S
C266 O310 1.283 . S
C267 O293 1.283 . S
C267 O308 1.283 . S
C268 O294 1.283 . S
C268 O311 1.283 . S
C269 O295 1.283 . S
C269 O309 1.283 . S
C270 O296 1.283 . S
C270 O305 1.283 . S
C271 O297 1.283 . S
C271 O307 1.283 . S
C272 O298 1.283 . S
C272 O304 1.283 . S
C273 O299 1.283 . S
C273 O306 1.283 . S
C274 O300 1.283 . S
C274 O315 1.283 . S
C275 O301 1.283 . S
C275 O313 1.283 . S
C276 O302 1.283 . S
C276 O314 1.283 . S
C277 O303 1.283 . S
C277 O312 1.283 . S
Eu278 O279 2.370 . S
Eu278 O280 2.370 1_545 S
Eu278 O283 2.370 1_545 S
Eu278 O284 2.370 . S
Eu278 O292 2.362 1_545 S
Eu278 O293 2.363 . S
Eu278 O306 2.363 . S
Eu278 O307 2.363 . S
O279 Eu278 2.370 . S
O279 Eu281 2.372 . S
O279 Eu286 2.372 . S
O280 Eu278 2.370 1_565 S
O280 Eu282 2.372 1_565 S
O280 Eu285 2.373 . S
Eu281 O279 2.372 . S
Eu281 O283 2.372 1_545 S
Eu281 O287 2.368 1_544 S
Eu281 O288 2.368 1_554 S
Eu281 O296 2.359 1_554 S
Eu281 O297 2.367 . S
Eu281 O312 2.363 1_545 S
Eu281 O313 2.363 . S
Eu282 O280 2.372 1_545 S
Eu282 O284 2.372 . S
Eu282 O289 2.368 1_554 S
Eu282 O290 2.368 1_544 S
Eu282 O298 2.359 1_554 S
Eu282 O299 2.367 . S
Eu282 O314 2.363 1_545 S
Eu282 O315 2.363 . S
O283 Eu278 2.370 1_565 S
O283 Eu281 2.372 1_565 S
O283 Eu285 2.373 . S
O284 Eu278 2.370 . S
O284 Eu282 2.372 . S
O284 Eu286 2.372 . S
Eu285 O280 2.373 . S
Eu285 O283 2.373 . S
Eu285 O287 2.368 1_554 S
Eu285 O290 2.368 1_554 S
Eu285 O302 2.363 . S
Eu285 O303 2.363 . S
Eu285 O310 2.367 . S
Eu285 O311 2.359 1_554 S
Eu286 O279 2.372 . S
Eu286 O284 2.372 . S
Eu286 O288 2.368 1_554 S
Eu286 O289 2.368 1_554 S
Eu286 O300 2.363 . S
Eu286 O301 2.363 . S
Eu286 O308 2.366 . S
Eu286 O309 2.360 1_554 S
O287 Eu281 2.368 1_566 S
O287 Eu285 2.368 1_556 S
O287 Eu291 2.370 1_565 S
O288 Eu281 2.368 1_556 S
O288 Eu286 2.368 1_556 S
O288 Eu291 2.370 . S
O289 Eu282 2.368 1_556 S
O289 Eu286 2.368 1_556 S
O289 Eu291 2.370 . S
O290 Eu282 2.368 1_566 S
O290 Eu285 2.368 1_556 S
O290 Eu291 2.370 1_565 S
Eu291 O287 2.370 1_545 S
Eu291 O288 2.370 . S
Eu291 O289 2.370 . S
Eu291 O290 2.370 1_545 S
Eu291 O294 2.363 1_545 S
Eu291 O295 2.362 . S
Eu291 O304 2.363 . S
Eu291 O305 2.363 . S
O292 C266 1.283 . S
O292 Eu278 2.362 1_565 S
O293 C267 1.283 . S
O293 Eu278 2.363 . S
O294 C268 1.283 . S
O294 Eu291 2.363 1_565 S
O295 C269 1.283 . S
O295 Eu291 2.362 . S
O296 C270 1.283 . S
O296 Eu281 2.359 1_556 S
O297 C271 1.283 . S
O297 Eu281 2.367 . S
O298 C272 1.283 . S
O298 Eu282 2.359 1_556 S
O299 C273 1.283 . S
O299 Eu282 2.367 . S
O300 C274 1.283 . S
O300 Eu286 2.363 . S
O301 C275 1.283 . S
O301 Eu286 2.363 . S
O302 C276 1.283 . S
O302 Eu285 2.363 . S
O303 C277 1.283 . S
O303 Eu285 2.363 . S
O304 C272 1.283 . S
O304 Eu291 2.363 . S
O305 C270 1.283 . S
O305 Eu291 2.363 . S
O306 C273 1.283 . S
O306 Eu278 2.363 . S
O307 C271 1.283 . S
O307 Eu278 2.363 . S
O308 C267 1.283 . S
O308 Eu286 2.366 . S
O309 C269 1.283 . S
O309 Eu286 2.360 1_556 S
O310 C266 1.283 . S
O310 Eu285 2.367 . S
O311 C268 1.283 . S
O311 Eu285 2.359 1_556 S
O312 C277 1.283 . S
O312 Eu281 2.363 1_565 S
O313 C275 1.283 . S
O313 Eu281 2.363 . S
O314 C276 1.283 . S
O314 Eu282 2.363 1_565 S
O315 C274 1.283 . S
O315 Eu282 2.363 . S
C316 O342 1.283 . S
C316 O360 1.283 . S
C317 O343 1.283 . S
C317 O358 1.283 . S
C318 O344 1.283 . S
C318 O361 1.283 . S
C319 O345 1.283 . S
C319 O359 1.283 . S
C320 O346 1.283 . S
C320 O355 1.283 . S
C321 O347 1.283 . S
C321 O357 1.283 . S
C322 O348 1.283 . S
C322 O354 1.283 . S
C323 O349 1.283 . S
C323 O356 1.283 . S
C324 O350 1.283 . S
C324 O365 1.283 . S
C325 O351 1.283 . S
C325 O363 1.283 . S
C326 O352 1.283 . S
C326 O364 1.283 . S
C327 O353 1.283 . S
C327 O362 1.283 . S
Eu328 O329 2.363 1_454 S
Eu328 O330 2.377 . S
Eu328 O333 2.363 1_455 S
Eu328 O334 2.377 1_554 S
Eu328 O342 2.363 . S
Eu328 O343 2.363 1_554 S
Eu328 O356 2.374 . S
Eu328 O357 2.352 1_455 S
O329 Eu328 2.363 1_656 S
O329 Eu331 2.370 1_556 S
O329 Eu336 2.363 1_655 S
O330 Eu328 2.377 . S
O330 Eu332 2.370 . S
O330 Eu335 2.377 . S
Eu331 O329 2.370 1_554 S
Eu331 O333 2.370 . S
Eu331 O337 2.370 . S
Eu331 O338 2.370 1_554 S
Eu331 O346 2.363 . S
Eu331 O347 2.363 . S
Eu331 O362 2.363 . S
Eu331 O363 2.363 1_554 S
Eu332 O330 2.370 . S
Eu332 O334 2.370 1_554 S
Eu332 O339 2.370 1_554 S
Eu332 O340 2.370 . S
Eu332 O348 2.363 . S
Eu332 O349 2.363 . S
Eu332 O364 2.363 . S
Eu332 O365 2.363 1_554 S
O333 Eu328 2.363 1_655 S
O333 Eu331 2.370 . S
O333 Eu335 2.363 1_655 S
O334 Eu328 2.377 1_556 S
O334 Eu332 2.370 1_556 S
O334 Eu336 2.377 . S
Eu335 O330 2.377 . S
Eu335 O333 2.363 1_455 S
Eu335 O337 2.363 1_455 S
Eu335 O340 2.377 . S
Eu335 O352 2.374 . S
Eu335 O353 2.352 1_455 S
Eu335 O360 2.363 . S
Eu335 O361 2.363 . S
Eu336 O329 2.363 1_455 S
Eu336 O334 2.377 . S
Eu336 O338 2.363 1_455 S
Eu336 O339 2.377 . S
Eu336 O350 2.374 . S
Eu336 O351 2.352 1_455 S
Eu336 O358 2.363 . S
Eu336 O359 2.363 . S
O337 Eu331 2.370 . S
O337 Eu335 2.363 1_655 S
O337 Eu341 2.363 1_655 S
O338 Eu331 2.370 1_556 S
O338 Eu336 2.363 1_655 S
O338 Eu341 2.363 1_656 S
O339 Eu332 2.370 1_556 S
O339 Eu336 2.377 . S
O339 Eu341 2.377 1_556 S
O340 Eu332 2.370 . S
O340 Eu335 2.377 . S
O340 Eu341 2.377 . S
Eu341 O337 2.363 1_455 S
Eu341 O338 2.363 1_454 S
Eu341 O339 2.377 1_554 S
Eu341 O340 2.377 . S
Eu341 O344 2.363 . S
Eu341 O345 2.363 1_554 S
Eu341 O354 2.374 . S
Eu341 O355 2.352 1_455 S
O342 C316 1.283 . S
O342 Eu328 2.363 . S
O343 C317 1.283 . S
O343 Eu328 2.363 1_556 S
O344 C318 1.283 . S
O344 Eu341 2.363 . S
O345 C319 1.283 . S
O345 Eu341 2.363 1_556 S
O346 C320 1.283 . S
O346 Eu331 2.363 . S
O347 C321 1.283 . S
O347 Eu331 2.363 . S
O348 C322 1.283 . S
O348 Eu332 2.363 . S
O349 C323 1.283 . S
O349 Eu332 2.363 . S
O350 C324 1.283 . S
O350 Eu336 2.374 . S
O351 C325 1.283 . S
O351 Eu336 2.352 1_655 S
O352 C326 1.283 . S
O352 Eu335 2.374 . S
O353 C327 1.283 . S
O353 Eu335 2.352 1_655 S
O354 C322 1.283 . S
O354 Eu341 2.374 . S
O355 C320 1.283 . S
O355 Eu341 2.352 1_655 S
O356 C323 1.283 . S
O356 Eu328 2.374 . S
O357 C321 1.283 . S
O357 Eu328 2.352 1_655 S
O358 C317 1.283 . S
O358 Eu336 2.363 . S
O359 C319 1.283 . S
O359 Eu336 2.363 . S
O360 C316 1.283 . S
O360 Eu335 2.363 . S
O361 C318 1.283 . S
O361 Eu335 2.363 . S
O362 C327 1.283 . S
O362 Eu331 2.363 . S
O363 C325 1.283 . S
O363 Eu331 2.363 1_556 S
O364 C326 1.283 . S
O364 Eu332 2.363 . S
O365 C324 1.283 . S
O365 Eu332 2.363 1_556 S
C366 O392 1.283 . S
C366 O410 1.283 . S
C367 O393 1.283 . S
C367 O408 1.283 . S
C368 O394 1.283 . S
C368 O411 1.283 . S
C369 O395 1.283 . S
C369 O409 1.283 . S
C370 O396 1.283 . S
C370 O405 1.283 . S
C371 O397 1.283 . S
C371 O407 1.283 . S
C372 O398 1.283 . S
C372 O404 1.283 . S
C373 O399 1.283 . S
C373 O406 1.283 . S
C374 O400 1.283 . S
C374 O415 1.283 . S
C375 O401 1.283 . S
C375 O413 1.283 . S
C376 O402 1.283 . S
C376 O414 1.283 . S
C377 O403 1.283 . S
C377 O412 1.283 . S
Eu378 O379 2.370 . S
Eu378 O380 2.370 . S
Eu378 O383 2.370 . S
Eu378 O384 2.370 . S
Eu378 O392 2.363 . S
Eu378 O393 2.363 . S
Eu378 O406 2.363 . S
Eu378 O407 2.363 . S
O379 Eu378 2.370 . S
O379 Eu381 2.373 . S
O379 Eu386 2.373 . S
O380 Eu378 2.370 . S
O380 Eu382 2.373 . S
O380 Eu385 2.373 . S
Eu381 O379 2.373 . S
Eu381 O383 2.373 . S
Eu381 O387 2.367 1_554 S
Eu381 O388 2.367 1_554 S
Eu381 O396 2.358 1_554 S
Eu381 O397 2.368 . S
Eu381 O412 2.363 . S
Eu381 O413 2.363 . S
Eu382 O380 2.373 . S
Eu382 O384 2.373 . S
Eu382 O389 2.367 1_554 S
Eu382 O390 2.367 1_554 S
Eu382 O398 2.358 1_554 S
Eu382 O399 2.368 . S
Eu382 O414 2.363 . S
Eu382 O415 2.363 . S
O383 Eu378 2.370 . S
O383 Eu381 2.373 . S
O383 Eu385 2.373 . S
O384 Eu378 2.370 . S
O384 Eu382 2.373 . S
O384 Eu386 2.373 . S
Eu385 O380 2.373 . S
Eu385 O383 2.373 . S
Eu385 O387 2.367 1_554 S
Eu385 O390 2.367 1_554 S
Eu385 O402 2.363 . S
Eu385 O403 2.363 . S
Eu385 O410 2.367 . S
Eu385 O411 2.358 1_554 S
Eu386 O379 2.373 . S
Eu386 O384 2.373 . S
Eu386 O388 2.367 1_554 S
Eu386 O389 2.367 1_554 S
Eu386 O400 2.363 . S
Eu386 O401 2.363 . S
Eu386 O408 2.368 . S
Eu386 O409 2.358 1_554 S
O387 Eu381 2.367 1_556 S
O387 Eu385 2.367 1_556 S
O387 Eu391 2.370 . S
O388 Eu381 2.367 1_556 S
O388 Eu386 2.367 1_556 S
O388 Eu391 2.370 . S
O389 Eu382 2.367 1_556 S
O389 Eu386 2.367 1_556 S
O389 Eu391 2.370 . S
O390 Eu382 2.367 1_556 S
O390 Eu385 2.367 1_556 S
O390 Eu391 2.370 . S
Eu391 O387 2.370 . S
Eu391 O388 2.370 . S
Eu391 O389 2.370 . S
Eu391 O390 2.370 . S
Eu391 O394 2.363 . S
Eu391 O395 2.363 . S
Eu391 O404 2.363 . S
Eu391 O405 2.363 . S
O392 C366 1.283 . S
O392 Eu378 2.363 . S
O393 C367 1.283 . S
O393 Eu378 2.363 . S
O394 C368 1.283 . S
O394 Eu391 2.363 . S
O395 C369 1.283 . S
O395 Eu391 2.363 . S
O396 C370 1.283 . S
O396 Eu381 2.358 1_556 S
O397 C371 1.283 . S
O397 Eu381 2.368 . S
O398 C372 1.283 . S
O398 Eu382 2.358 1_556 S
O399 C373 1.283 . S
O399 Eu382 2.368 . S
O400 C374 1.283 . S
O400 Eu386 2.363 . S
O401 C375 1.283 . S
O401 Eu386 2.363 . S
O402 C376 1.283 . S
O402 Eu385 2.363 . S
O403 C377 1.283 . S
O403 Eu385 2.363 . S
O404 C372 1.283 . S
O404 Eu391 2.363 . S
O405 C370 1.283 . S
O405 Eu391 2.363 . S
O406 C373 1.283 . S
O406 Eu378 2.363 . S
O407 C371 1.283 . S
O407 Eu378 2.363 . S
O408 C367 1.283 . S
O408 Eu386 2.368 . S
O409 C369 1.283 . S
O409 Eu386 2.358 1_556 S
O410 C366 1.283 . S
O410 Eu385 2.367 . S
O411 C368 1.283 . S
O411 Eu385 2.358 1_556 S
O412 C377 1.283 . S
O412 Eu381 2.363 . S
O413 C375 1.283 . S
O413 Eu381 2.363 . S
O414 C376 1.283 . S
O414 Eu382 2.363 . S
O415 C374 1.283 . S
O415 Eu382 2.363 . S
C416 O442 1.283 . S
C416 O460 1.283 . S
C417 O443 1.283 . S
C417 O458 1.283 . S
C418 O444 1.283 . S
C418 O461 1.283 . S
C419 O445 1.283 . S
C419 O459 1.283 . S
C420 O446 1.283 . S
C420 O455 1.283 . S
C421 O447 1.283 . S
C421 O457 1.283 . S
C422 O448 1.283 . S
C422 O454 1.283 . S
C423 O449 1.283 . S
C423 O456 1.283 . S
C424 O450 1.283 . S
C424 O465 1.283 . S
C425 O451 1.283 . S
C425 O463 1.283 . S
C426 O452 1.283 . S
C426 O464 1.283 . S
C427 O453 1.283 . S
C427 O462 1.283 . S
Eu428 O429 2.361 1_455 S
Eu428 O430 2.379 . S
Eu428 O433 2.361 1_455 S
Eu428 O434 2.379 . S
Eu428 O442 2.363 . S
Eu428 O443 2.363 . S
Eu428 O456 2.379 . S
Eu428 O457 2.347 1_455 S
O429 Eu428 2.361 1_655 S
O429 Eu431 2.370 . S
O429 Eu436 2.361 1_655 S
O430 Eu428 2.379 . S
O430 Eu432 2.370 . S
O430 Eu435 2.379 . S
Eu431 O429 2.370 . S
Eu431 O433 2.370 . S
Eu431 O437 2.370 . S
Eu431 O438 2.370 . S
Eu431 O446 2.363 . S
Eu431 O447 2.363 . S
Eu431 O462 2.363 . S
Eu431 O463 2.363 . S
Eu432 O430 2.370 . S
Eu432 O434 2.370 . S
Eu432 O439 2.370 . S
Eu432 O440 2.370 . S
Eu432 O448 2.363 . S
Eu432 O449 2.363 . S
Eu432 O464 2.363 . S
Eu432 O465 2.363 . S
O433 Eu428 2.361 1_655 S
O433 Eu431 2.370 . S
O433 Eu435 2.361 1_655 S
O434 Eu428 2.379 . S
O434 Eu432 2.370 . S
O434 Eu436 2.379 . S
Eu435 O430 2.379 . S
Eu435 O433 2.361 1_455 S
Eu435 O437 2.361 1_455 S
Eu435 O440 2.379 . S
Eu435 O452 2.379 . S
Eu435 O453 2.347 1_455 S
Eu435 O460 2.363 . S
Eu435 O461 2.363 . S
Eu436 O429 2.361 1_455 S
Eu436 O434 2.379 . S
Eu436 O438 2.361 1_455 S
Eu436 O439 2.379 . S
Eu436 O450 2.379 . S
Eu436 O451 2.347 1_455 S
Eu436 O458 2.363 . S
Eu436 O459 2.363 . S
O437 Eu431 2.370 . S
O437 Eu435 2.361 1_655 S
O437 Eu441 2.361 1_655 S
O438 Eu431 2.370 . S
O438 Eu436 2.361 1_655 S
O438 Eu441 2.361 1_655 S
O439 Eu432 2.370 . S
O439 Eu436 2.379 . S
O439 Eu441 2.379 . S
O440 Eu432 2.370 . S
O440 Eu435 2.379 . S
O440 Eu441 2.379 . S
Eu441 O437 2.361 1_455 S
Eu441 O438 2.361 1_455 S
Eu441 O439 2.379 . S
Eu441 O440 2.379 . S
Eu441 O444 2.363 . S
Eu441 O445 2.363 . S
Eu441 O454 2.379 . S
Eu441 O455 2.347 1_455 S
O442 C416 1.283 . S
O442 Eu428 2.363 . S
O443 C417 1.283 . S
O443 Eu428 2.363 . S
O444 C418 1.283 . S
O444 Eu441 2.363 . S
O445 C419 1.283 . S
O445 Eu441 2.363 . S
O446 C420 1.283 . S
O446 Eu431 2.363 . S
O447 C421 1.283 . S
O447 Eu431 2.363 . S
O448 C422 1.283 . S
O448 Eu432 2.363 . S
O449 C423 1.283 . S
O449 Eu432 2.363 . S
O450 C424 1.283 . S
O450 Eu436 2.379 . S
O451 C425 1.283 . S
O451 Eu436 2.347 1_655 S
O452 C426 1.283 . S
O452 Eu435 2.379 . S
O453 C427 1.283 . S
O453 Eu435 2.347 1_655 S
O454 C422 1.283 . S
O454 Eu441 2.379 . S
O455 C420 1.283 . S
O455 Eu441 2.347 1_655 S
O456 C423 1.283 . S
O456 Eu428 2.379 . S
O457 C421 1.283 . S
O457 Eu428 2.347 1_655 S
O458 C417 1.283 . S
O458 Eu436 2.363 . S
O459 C419 1.283 . S
O459 Eu436 2.363 . S
O460 C416 1.283 . S
O460 Eu435 2.363 . S
O461 C418 1.283 . S
O461 Eu435 2.363 . S
O462 C427 1.283 . S
O462 Eu431 2.363 . S
O463 C425 1.283 . S
O463 Eu431 2.363 . S
O464 C426 1.283 . S
O464 Eu432 2.363 . S
O465 C424 1.283 . S
O465 Eu432 2.363 . S
C466 O492 1.283 . S
C466 O510 1.283 . S
C467 O493 1.283 . S
C467 O508 1.283 . S
C468 O494 1.283 . S
C468 O511 1.283 . S
C469 O495 1.283 . S
C469 O509 1.283 . S
C470 O496 1.283 . S
C470 O505 1.283 . S
C471 O497 1.283 . S
C471 O507 1.283 . S
C472 O498 1.283 . S
C472 O504 1.283 . S
C473 O499 1.283 . S
C473 O506 1.283 . S
C474 O500 1.283 . S
C474 O515 1.283 . S
C475 O501 1.283 . S
C475 O513 1.283 . S
C476 O502 1.283 . S
C476 O514 1.283 . S
C477 O503 1.283 . S
C477 O512 1.283 . S
Eu478 O479 2.370 . S
Eu478 O480 2.370 . S
Eu478 O483 2.370 . S
Eu478 O484 2.370 . S
Eu478 O492 2.363 . S
Eu478 O493 2.363 . S
Eu478 O506 2.363 . S
Eu478 O507 2.363 . S
O479 Eu478 2.370 . S
O479 Eu481 2.367 1_565 S
O479 Eu486 2.367 1_565 S
O480 Eu478 2.370 . S
O480 Eu482 2.367 1_565 S
O480 Eu485 2.367 1_565 S
Eu481 O479 2.367 1_545 S
Eu481 O483 2.367 1_545 S
Eu481 O487 2.373 . S
Eu481 O488 2.373 . S
Eu481 O496 2.368 . S
Eu481 O497 2.358 1_545 S
Eu481 O512 2.363 . S
Eu481 O513 2.363 . S
Eu482 O480 2.367 1_545 S
Eu482 O484 2.367 1_545 S
Eu482 O489 2.373 . S
Eu482 O490 2.373 . S
Eu482 O498 2.368 . S
Eu482 O499 2.358 1_545 S
Eu482 O514 2.363 . S
Eu482 O515 2.363 . S
O483 Eu478 2.370 . S
O483 Eu481 2.367 1_565 S
O483 Eu485 2.367 1_565 S
O484 Eu478 2.370 . S
O484 Eu482 2.367 1_565 S
O484 Eu486 2.367 1_565 S
Eu485 O480 2.367 1_545 S
Eu485 O483 2.367 1_545 S
Eu485 O487 2.373 . S
Eu485 O490 2.373 . S
Eu485 O502 2.363 . S
Eu485 O503 2.363 . S
Eu485 O510 2.358 1_545 S
Eu485 O511 2.368 . S
Eu486 O479 2.367 1_545 S
Eu486 O484 2.367 1_545 S
Eu486 O488 2.373 . S
Eu486 O489 2.373 . S
Eu486 O500 2.363 . S
Eu486 O501 2.363 . S
Eu486 O508 2.358 1_545 S
Eu486 O509 2.368 . S
O487 Eu481 2.373 . S
O487 Eu485 2.373 . S
O487 Eu491 2.370 . S
O488 Eu481 2.373 . S
O488 Eu486 2.373 . S
O488 Eu491 2.370 . S
O489 Eu482 2.373 . S
O489 Eu486 2.373 . S
O489 Eu491 2.370 . S
O490 Eu482 2.373 . S
O490 Eu485 2.373 . S
O490 Eu491 2.370 . S
Eu491 O487 2.370 . S
Eu491 O488 2.370 . S
Eu491 O489 2.370 . S
Eu491 O490 2.370 . S
Eu491 O494 2.363 . S
Eu491 O495 2.363 . S
Eu491 O504 2.363 . S
Eu491 O505 2.363 . S
O492 C466 1.283 . S
O492 Eu478 2.363 . S
O493 C467 1.283 . S
O493 Eu478 2.363 . S
O494 C468 1.283 . S
O494 Eu491 2.363 . S
O495 C469 1.283 . S
O495 Eu491 2.363 . S
O496 C470 1.283 . S
O496 Eu481 2.368 . S
O497 C471 1.283 . S
O497 Eu481 2.358 1_565 S
O498 C472 1.283 . S
O498 Eu482 2.368 . S
O499 C473 1.283 . S
O499 Eu482 2.358 1_565 S
O500 C474 1.283 . S
O500 Eu486 2.363 . S
O501 C475 1.283 . S
O501 Eu486 2.363 . S
O502 C476 1.283 . S
O502 Eu485 2.363 . S
O503 C477 1.283 . S
O503 Eu485 2.363 . S
O504 C472 1.283 . S
O504 Eu491 2.363 . S
O505 C470 1.283 . S
O505 Eu491 2.363 . S
O506 C473 1.283 . S
O506 Eu478 2.363 . S
O507 C471 1.283 . S
O507 Eu478 2.363 . S
O508 C467 1.283 . S
O508 Eu486 2.358 1_565 S
O509 C469 1.283 . S
O509 Eu486 2.368 . S
O510 C466 1.283 . S
O510 Eu485 2.358 1_565 S
O511 C468 1.283 . S
O511 Eu485 2.368 . S
O512 C477 1.283 . S
O512 Eu481 2.363 . S
O513 C475 1.283 . S
O513 Eu481 2.363 . S
O514 C476 1.283 . S
O514 Eu482 2.363 . S
O515 C474 1.283 . S
O515 Eu482 2.363 . S
C516 C517 1.387 . S
C516 H520 0.950 . S
C516 C525 1.390 . S
C517 C516 1.387 . S
C517 C519 1.387 . S
H518 C525 0.950 . S
C519 C517 1.387 . S
C519 C521 1.390 . S
C519 H523 0.950 . S
H520 C516 0.950 . S
C521 C519 1.390 . S
C521 C522 1.387 . S
C521 H524 0.950 . S
C522 C521 1.387 . S
C522 C525 1.387 . S
H523 C519 0.950 . S
H524 C521 0.950 . S
C525 C516 1.390 . S
C525 H518 0.950 . S
C525 C522 1.387 . S
C526 C527 1.387 . S
C526 H530 0.950 . S
C526 C535 1.390 . S
C527 C526 1.387 . S
C527 C529 1.387 . S
H528 C535 0.950 . S
C529 C527 1.387 . S
C529 C531 1.390 . S
C529 H533 0.950 . S
H530 C526 0.950 . S
C531 C529 1.390 . S
C531 C532 1.387 . S
C531 H534 0.950 . S
C532 C531 1.387 . S
C532 C535 1.387 . S
H533 C529 0.950 . S
H534 C531 0.950 . S
C535 C526 1.390 . S
C535 H528 0.950 . S
C535 C532 1.387 . S
C536 C537 1.387 . S
C536 H540 0.950 . S
C536 C545 1.390 . S
C537 C536 1.387 . S
C537 C539 1.387 . S
H538 C545 0.950 . S
C539 C537 1.387 . S
C539 C541 1.390 . S
C539 H543 0.950 . S
H540 C536 0.950 . S
C541 C539 1.390 . S
C541 C542 1.387 . S
C541 H544 0.950 . S
C542 C541 1.387 . S
C542 C545 1.387 . S
H543 C539 0.950 . S
H544 C541 0.950 . S
C545 C536 1.390 . S
C545 H538 0.950 . S
C545 C542 1.387 . S
C546 C547 1.387 . S
C546 H550 0.950 . S
C546 C555 1.390 . S
C547 C546 1.387 . S
C547 C549 1.387 . S
H548 C555 0.950 . S
C549 C547 1.387 . S
C549 C551 1.390 . S
C549 H553 0.950 . S
H550 C546 0.950 . S
C551 C549 1.390 . S
C551 C552 1.387 . S
C551 H554 0.950 . S
C552 C551 1.387 . S
C552 C555 1.387 . S
H553 C549 0.950 . S
H554 C551 0.950 . S
C555 C546 1.390 . S
C555 H548 0.950 . S
C555 C552 1.387 . S
C556 C557 1.387 . S
C556 H560 0.950 . S
C556 C565 1.390 . S
C557 C556 1.387 . S
C557 C559 1.387 . S
H558 C565 0.950 . S
C559 C557 1.387 . S
C559 C561 1.390 . S
C559 H563 0.950 . S
H560 C556 0.950 . S
C561 C559 1.390 . S
C561 C562 1.387 . S
C561 H564 0.950 . S
C562 C561 1.387 . S
C562 C565 1.387 . S
H563 C559 0.950 . S
H564 C561 0.950 . S
C565 C556 1.390 . S
C565 H558 0.950 . S
C565 C562 1.387 . S
C566 C567 1.387 . S
C566 H570 0.950 . S
C566 C575 1.390 . S
C567 C566 1.387 . S
C567 C569 1.387 . S
H568 C575 0.950 . S
C569 C567 1.387 . S
C569 C571 1.390 . S
C569 H573 0.950 . S
H570 C566 0.950 . S
C571 C569 1.390 . S
C571 C572 1.387 . S
C571 H574 0.950 . S
C572 C571 1.387 . S
C572 C575 1.387 . S
H573 C569 0.950 . S
H574 C571 0.950 . S
C575 C566 1.390 . S
C575 H568 0.950 . S
C575 C572 1.387 . S
C576 C577 1.387 . S
C576 H580 0.950 . S
C576 C585 1.390 . S
C577 C576 1.387 . S
C577 C579 1.387 . S
H578 C585 0.950 . S
C579 C577 1.387 . S
C579 C581 1.390 . S
C579 H583 0.950 . S
H580 C576 0.950 . S
C581 C579 1.390 . S
C581 C582 1.387 . S
C581 H584 0.950 . S
C582 C581 1.387 . S
C582 C585 1.387 . S
H583 C579 0.950 . S
H584 C581 0.950 . S
C585 C576 1.390 . S
C585 H578 0.950 . S
C585 C582 1.387 . S
C586 C587 1.387 . S
C586 H590 0.950 . S
C586 C595 1.390 . S
C587 C586 1.387 . S
C587 C589 1.387 . S
H588 C595 0.950 . S
C589 C587 1.387 . S
C589 C591 1.390 . S
C589 H593 0.950 . S
H590 C586 0.950 . S
C591 C589 1.390 . S
C591 C592 1.387 . S
C591 H594 0.950 . S
C592 C591 1.387 . S
C592 C595 1.387 . S
H593 C589 0.950 . S
H594 C591 0.950 . S
C595 C586 1.390 . S
C595 H588 0.950 . S
C595 C592 1.387 . S
C596 C597 1.387 . S
C596 H600 0.950 . S
C596 C605 1.390 . S
C597 C596 1.387 . S
C597 C599 1.387 . S
H598 C605 0.950 . S
C599 C597 1.387 . S
C599 C601 1.390 . S
C599 H603 0.950 . S
H600 C596 0.950 . S
C601 C599 1.390 . S
C601 C602 1.387 . S
C601 H604 0.950 . S
C602 C601 1.387 . S
C602 C605 1.387 . S
H603 C599 0.950 . S
H604 C601 0.950 . S
C605 C596 1.390 . S
C605 H598 0.950 . S
C605 C602 1.387 . S
C606 C607 1.387 . S
C606 H610 0.950 . S
C606 C615 1.390 . S
C607 C606 1.387 . S
C607 C609 1.387 . S
H608 C615 0.950 . S
C609 C607 1.387 . S
C609 C611 1.390 . S
C609 H613 0.950 . S
H610 C606 0.950 . S
C611 C609 1.390 . S
C611 C612 1.387 . S
C611 H614 0.950 . S
C612 C611 1.387 . S
C612 C615 1.387 . S
H613 C609 0.950 . S
H614 C611 0.950 . S
C615 C606 1.390 . S
C615 H608 0.950 . S
C615 C612 1.387 . S
C616 C617 1.387 . S
C616 H620 0.950 . S
C616 C625 1.390 . S
C617 C616 1.387 . S
C617 C619 1.387 . S
H618 C625 0.950 . S
C619 C617 1.387 . S
C619 C621 1.390 . S
C619 H623 0.950 . S
H620 C616 0.950 . S
C621 C619 1.390 . S
C621 C622 1.387 . S
C621 H624 0.950 . S
C622 C621 1.387 . S
C622 C625 1.387 . S
H623 C619 0.950 . S
H624 C621 0.950 . S
C625 C616 1.390 . S
C625 H618 0.950 . S
C625 C622 1.387 . S
C626 C627 1.387 . S
C626 H630 0.950 . S
C626 C635 1.390 . S
C627 C626 1.387 . S
C627 C629 1.387 . S
H628 C635 0.950 . S
C629 C627 1.387 . S
C629 C631 1.390 . S
C629 H633 0.950 . S
H630 C626 0.950 . S
C631 C629 1.390 . S
C631 C632 1.387 . S
C631 H634 0.950 . S
C632 C631 1.387 . S
C632 C635 1.387 . S
H633 C629 0.950 . S
H634 C631 0.950 . S
C635 C626 1.390 . S
C635 H628 0.950 . S
C635 C632 1.387 . S
C636 C637 1.392 . S
C636 H640 0.950 . S
C636 C645 1.390 . S
C637 C636 1.392 . S
C637 C639 1.383 1_554 S
H638 C645 0.950 . S
C639 C637 1.383 1_556 S
C639 C641 1.390 . S
C639 H643 0.950 . S
H640 C636 0.950 . S
C641 C639 1.390 . S
C641 C642 1.383 1_556 S
C641 H644 0.950 . S
C642 C641 1.383 1_554 S
C642 C645 1.392 . S
H643 C639 0.950 . S
H644 C641 0.950 . S
C645 C636 1.390 . S
C645 H638 0.950 . S
C645 C642 1.392 . S
C646 C647 1.383 1_556 S
C646 H650 0.950 . S
C646 C655 1.390 . S
C647 C646 1.383 1_554 S
C647 C649 1.392 . S
H648 C655 0.950 . S
C649 C647 1.392 . S
C649 C651 1.390 . S
C649 H653 0.950 . S
H650 C646 0.950 . S
C651 C649 1.390 . S
C651 C652 1.392 . S
C651 H654 0.950 . S
C652 C651 1.392 . S
C652 C655 1.383 1_554 S
H653 C649 0.950 . S
H654 C651 0.950 . S
C655 C646 1.390 . S
C655 H648 0.950 . S
C655 C652 1.383 1_556 S
C656 C657 1.390 . S
C656 H660 0.950 . S
C656 C665 1.390 . S
C657 C656 1.390 . S
C657 C659 1.385 1_554 S
H658 C665 0.950 . S
C659 C657 1.385 1_556 S
C659 C661 1.390 . S
C659 H663 0.950 . S
H660 C656 0.950 . S
C661 C659 1.390 . S
C661 C662 1.384 1_556 S
C661 H664 0.950 . S
C662 C661 1.384 1_554 S
C662 C665 1.391 . S
H663 C659 0.950 . S
H664 C661 0.950 . S
C665 C656 1.390 . S
C665 H658 0.950 . S
C665 C662 1.391 . S
C666 C667 1.390 . S
C666 H670 0.950 . S
C666 C675 1.390 . S
C667 C666 1.390 . S
C667 C669 1.385 1_554 S
H668 C675 0.950 . S
C669 C667 1.385 1_556 S
C669 C671 1.390 . S
C669 H673 0.950 . S
H670 C666 0.950 . S
C671 C669 1.390 . S
C671 C672 1.384 1_556 S
C671 H674 0.950 . S
C672 C671 1.384 1_554 S
C672 C675 1.391 . S
H673 C669 0.950 . S
H674 C671 0.950 . S
C675 C666 1.390 . S
C675 H668 0.950 . S
C675 C672 1.391 . S
C676 C677 1.373 1_655 S
C676 H680 0.950 . S
C676 C685 1.390 . S
C677 C676 1.373 1_455 S
C677 C679 1.402 . S
H678 C685 0.950 . S
C679 C677 1.402 . S
C679 C681 1.390 . S
C679 H683 0.950 . S
H680 C676 0.950 . S
C681 C679 1.390 . S
C681 C682 1.402 . S
C681 H684 0.950 . S
C682 C681 1.402 . S
C682 C685 1.373 1_455 S
H683 C679 0.950 . S
H684 C681 0.950 . S
C685 C676 1.390 . S
C685 H678 0.950 . S
C685 C682 1.373 1_655 S
C686 C687 1.390 . S
C686 H690 0.950 . S
C686 C695 1.390 . S
C687 C686 1.390 . S
C687 C689 1.385 1_545 S
H688 C695 0.950 . S
C689 C687 1.385 1_565 S
C689 C691 1.390 . S
C689 H693 0.950 . S
H690 C686 0.950 . S
C691 C689 1.390 . S
C691 C692 1.384 1_565 S
C691 H694 0.950 . S
C692 C691 1.384 1_545 S
C692 C695 1.391 . S
H693 C689 0.950 . S
H694 C691 0.950 . S
C695 C686 1.390 . S
C695 H688 0.950 . S
C695 C692 1.391 . S
C696 C697 1.372 1_655 S
C696 H700 0.950 . S
C696 C705 1.390 . S
C697 C696 1.372 1_455 S
C697 C699 1.403 . S
H698 C705 0.950 . S
C699 C697 1.403 . S
C699 C701 1.390 . S
C699 H703 0.950 . S
H700 C696 0.950 . S
C701 C699 1.390 . S
C701 C702 1.403 . S
C701 H704 0.950 . S
C702 C701 1.403 . S
C702 C705 1.372 1_455 S
H703 C699 0.950 . S
H704 C701 0.950 . S
C705 C696 1.390 . S
C705 H698 0.950 . S
C705 C702 1.372 1_655 S
C706 C707 1.390 . S
C706 H710 0.950 . S
C706 C715 1.390 . S
C707 C706 1.390 . S
C707 C709 1.385 1_545 S
H708 C715 0.950 . S
C709 C707 1.385 1_565 S
C709 C711 1.390 . S
C709 H713 0.950 . S
H710 C706 0.950 . S
C711 C709 1.390 . S
C711 C712 1.383 1_565 S
C711 H714 0.950 . S
C712 C711 1.383 1_545 S
C712 C715 1.392 . S
H713 C709 0.950 . S
H714 C711 0.950 . S
C715 C706 1.390 . S
C715 H708 0.950 . S
C715 C712 1.392 . S
C716 C717 1.372 1_655 S
C716 H720 0.950 . S
C716 C725 1.390 . S
C717 C716 1.372 1_455 S
C717 C719 1.403 . S
H718 C725 0.950 . S
C719 C717 1.403 . S
C719 C721 1.390 . S
C719 H723 0.950 . S
H720 C716 0.950 . S
C721 C719 1.390 . S
C721 C722 1.403 . S
C721 H724 0.950 . S
C722 C721 1.403 . S
C722 C725 1.372 1_455 S
H723 C719 0.950 . S
H724 C721 0.950 . S
C725 C716 1.390 . S
C725 H718 0.950 . S
C725 C722 1.372 1_655 S
C726 C727 1.383 1_565 S
C726 H730 0.950 . S
C726 C735 1.390 . S
C727 C726 1.383 1_545 S
C727 C729 1.392 . S
H728 C735 0.950 . S
C729 C727 1.392 . S
C729 C731 1.390 . S
C729 H733 0.950 . S
H730 C726 0.950 . S
C731 C729 1.390 . S
C731 C732 1.392 . S
C731 H734 0.950 . S
C732 C731 1.392 . S
C732 C735 1.383 1_545 S
H733 C729 0.950 . S
H734 C731 0.950 . S
C735 C726 1.390 . S
C735 H728 0.950 . S
C735 C732 1.383 1_565 S
C736 C737 1.402 . S
C736 H740 0.950 . S
C736 C745 1.390 . S
C737 C736 1.402 . S
C737 C739 1.373 1_455 S
H738 C745 0.950 . S
C739 C737 1.373 1_655 S
C739 C741 1.390 . S
C739 H743 0.950 . S
H740 C736 0.950 . S
C741 C739 1.390 . S
C741 C742 1.373 1_655 S
C741 H744 0.950 . S
C742 C741 1.373 1_455 S
C742 C745 1.402 . S
H743 C739 0.950 . S
H744 C741 0.950 . S
C745 C736 1.390 . S
C745 H738 0.950 . S
C745 C742 1.402 . S
C746 C747 1.384 1_565 S
C746 H750 0.950 . S
C746 C755 1.390 . S
C747 C746 1.384 1_545 S
C747 C749 1.391 . S
H748 C755 0.950 . S
C749 C747 1.391 . S
C749 C751 1.390 . S
C749 H753 0.950 . S
H750 C746 0.950 . S
C751 C749 1.390 . S
C751 C752 1.392 . S
C751 H754 0.950 . S
C752 C751 1.392 . S
C752 C755 1.383 1_545 S
H753 C749 0.950 . S
H754 C751 0.950 . S
C755 C746 1.390 . S
C755 H748 0.950 . S
C755 C752 1.383 1_565 S
C756 C757 1.404 . S
C756 H760 0.950 . S
C756 C765 1.390 . S
C757 C756 1.404 . S
C757 C759 1.371 1_455 S
H758 C765 0.950 . S
C759 C757 1.371 1_655 S
C759 C761 1.390 . S
C759 H763 0.950 . S
H760 C756 0.950 . S
C761 C759 1.390 . S
C761 C762 1.369 1_655 S
C761 H764 0.950 . S
C762 C761 1.369 1_455 S
C762 C765 1.406 . S
H763 C759 0.950 . S
H764 C761 0.950 . S
C765 C756 1.390 . S
C765 H758 0.950 . S
C765 C762 1.406 . S
C766 C767 1.392 . S
C766 H770 0.950 . S
C766 C775 1.390 . S
C767 C766 1.392 . S
C767 C769 1.383 1_545 S
H768 C775 0.950 . S
C769 C767 1.383 1_565 S
C769 C771 1.390 . S
C769 H773 0.950 . S
H770 C766 0.950 . S
C771 C769 1.390 . S
C771 C772 1.383 1_565 S
C771 H774 0.950 . S
C772 C771 1.383 1_545 S
C772 C775 1.392 . S
H773 C769 0.950 . S
H774 C771 0.950 . S
C775 C766 1.390 . S
C775 H768 0.950 . S
C775 C772 1.392 . S
C776 C777 1.372 1_655 S
C776 H780 0.950 . S
C776 C785 1.390 . S
C777 C776 1.372 1_455 S
C777 C779 1.403 . S
H778 C785 0.950 . S
C779 C777 1.403 . S
C779 C781 1.390 . S
C779 H783 0.950 . S
H780 C776 0.950 . S
C781 C779 1.390 . S
C781 C782 1.405 . S
C781 H784 0.950 . S
C782 C781 1.405 . S
C782 C785 1.370 1_455 S
H783 C779 0.950 . S
H784 C781 0.950 . S
C785 C776 1.390 . S
C785 H778 0.950 . S
C785 C782 1.370 1_655 S
C786 C787 1.384 1_565 S
C786 H790 0.950 . S
C786 C795 1.390 . S
C787 C786 1.384 1_545 S
C787 C789 1.391 . S
H788 C795 0.950 . S
C789 C787 1.391 . S
C789 C791 1.390 . S
C789 H793 0.950 . S
H790 C786 0.950 . S
C791 C789 1.390 . S
C791 C792 1.391 . S
C791 H794 0.950 . S
C792 C791 1.391 . S
C792 C795 1.384 1_545 S
H793 C789 0.950 . S
H794 C791 0.950 . S
C795 C786 1.390 . S
C795 H788 0.950 . S
C795 C792 1.384 1_565 S
C796 C797 1.372 1_655 S
C796 H800 0.950 . S
C796 C805 1.390 . S
C797 C796 1.372 1_455 S
C797 C799 1.403 . S
H798 C805 0.950 . S
C799 C797 1.403 . S
C799 C801 1.390 . S
C799 H803 0.950 . S
H800 C796 0.950 . S
C801 C799 1.390 . S
C801 C802 1.405 . S
C801 H804 0.950 . S
C802 C801 1.405 . S
C802 C805 1.370 1_455 S
H803 C799 0.950 . S
H804 C801 0.950 . S
C805 C796 1.390 . S
C805 H798 0.950 . S
C805 C802 1.370 1_655 S
C806 C807 1.386 1_565 S
C806 H810 0.950 . S
C806 C815 1.390 . S
C807 C806 1.386 1_545 S
C807 C809 1.389 . S
H808 C815 0.950 . S
C809 C807 1.389 . S
C809 C811 1.390 . S
C809 H813 0.950 . S
H810 C806 0.950 . S
C811 C809 1.390 . S
C811 C812 1.390 . S
C811 H814 0.950 . S
C812 C811 1.390 . S
C812 C815 1.384 1_545 S
H813 C809 0.950 . S
H814 C811 0.950 . S
C815 C806 1.390 . S
C815 H808 0.950 . S
C815 C812 1.384 1_565 S
C816 C817 1.371 1_655 S
C816 H820 0.950 . S
C816 C825 1.390 . S
C817 C816 1.371 1_455 S
C817 C819 1.404 . S
H818 C825 0.950 . S
C819 C817 1.404 . S
C819 C821 1.390 . S
C819 H823 0.950 . S
H820 C816 0.950 . S
C821 C819 1.390 . S
C821 C822 1.406 . S
C821 H824 0.950 . S
C822 C821 1.406 . S
C822 C825 1.369 1_455 S
H823 C819 0.950 . S
H824 C821 0.950 . S
C825 C816 1.390 . S
C825 H818 0.950 . S
C825 C822 1.369 1_655 S
C826 C827 1.390 . S
C826 H830 0.950 . S
C826 C835 1.390 . S
C827 C826 1.390 . S
C827 C829 1.385 1_545 S
H828 C835 0.950 . S
C829 C827 1.385 1_565 S
C829 C831 1.390 . S
C829 H833 0.950 . S
H830 C826 0.950 . S
C831 C829 1.390 . S
C831 C832 1.384 1_565 S
C831 H834 0.950 . S
C832 C831 1.384 1_545 S
C832 C835 1.391 . S
H833 C829 0.950 . S
H834 C831 0.950 . S
C835 C826 1.390 . S
C835 H828 0.950 . S
C835 C832 1.391 . S
C836 C837 1.385 1_565 S
C836 H840 0.950 . S
C836 C845 1.390 . S
C837 C836 1.385 1_545 S
C837 C839 1.390 . S
H838 C845 0.950 . S
C839 C837 1.390 . S
C839 C841 1.390 . S
C839 H843 0.950 . S
H840 C836 0.950 . S
C841 C839 1.390 . S
C841 C842 1.388 . S
C841 H844 0.950 . S
C842 C841 1.388 . S
C842 C845 1.387 1_545 S
H843 C839 0.950 . S
H844 C841 0.950 . S
C845 C836 1.390 . S
C845 H838 0.950 . S
C845 C842 1.387 1_565 S
C846 C847 1.401 . S
C846 H850 0.950 . S
C846 C855 1.390 . S
C847 C846 1.401 . S
C847 C849 1.374 1_455 S
H848 C855 0.950 . S
C849 C847 1.374 1_655 S
C849 C851 1.390 . S
C849 H853 0.950 . S
H850 C846 0.950 . S
C851 C849 1.390 . S
C851 C852 1.376 1_655 S
C851 H854 0.950 . S
C852 C851 1.376 1_455 S
C852 C855 1.399 . S
H853 C849 0.950 . S
H854 C851 0.950 . S
C855 C846 1.390 . S
C855 H848 0.950 . S
C855 C852 1.399 . S
C856 C857 1.384 1_565 S
C856 H860 0.950 . S
C856 C865 1.390 . S
C857 C856 1.384 1_545 S
C857 C859 1.391 . S
H858 C865 0.950 . S
C859 C857 1.391 . S
C859 C861 1.390 . S
C859 H863 0.950 . S
H860 C856 0.950 . S
C861 C859 1.390 . S
C861 C862 1.389 . S
C861 H864 0.950 . S
C862 C861 1.389 . S
C862 C865 1.386 1_545 S
H863 C859 0.950 . S
H864 C861 0.950 . S
C865 C856 1.390 . S
C865 H858 0.950 . S
C865 C862 1.386 1_565 S
C866 C867 1.401 . S
C866 H870 0.950 . S
C866 C875 1.390 . S
C867 C866 1.401 . S
C867 C869 1.374 1_455 S
H868 C875 0.950 . S
C869 C867 1.374 1_655 S
C869 C871 1.390 . S
C869 H873 0.950 . S
H870 C866 0.950 . S
C871 C869 1.390 . S
C871 C872 1.376 1_655 S
C871 H874 0.950 . S
C872 C871 1.376 1_455 S
C872 C875 1.399 . S
H873 C869 0.950 . S
H874 C871 0.950 . S
C875 C866 1.390 . S
C875 H868 0.950 . S
C875 C872 1.399 . S
C876 C877 1.388 . S
C876 H880 0.950 . S
C876 C885 1.390 . S
C877 C876 1.388 . S
C877 C879 1.387 1_545 S
H878 C885 0.950 . S
C879 C877 1.387 1_565 S
C879 C881 1.390 . S
C879 H883 0.950 . S
H880 C876 0.950 . S
C881 C879 1.390 . S
C881 C882 1.388 1_565 S
C881 H884 0.950 . S
C882 C881 1.388 1_545 S
C882 C885 1.387 . S
H883 C879 0.950 . S
H884 C881 0.950 . S
C885 C876 1.390 . S
C885 H878 0.950 . S
C885 C882 1.387 . S
C886 C887 1.374 1_655 S
C886 H890 0.950 . S
C886 C895 1.390 . S
C887 C886 1.374 1_455 S
C887 C889 1.401 . S
H888 C895 0.950 . S
C889 C887 1.401 . S
C889 C891 1.390 . S
C889 H893 0.950 . S
H890 C886 0.950 . S
C891 C889 1.390 . S
C891 C892 1.399 . S
C891 H894 0.950 . S
C892 C891 1.399 . S
C892 C895 1.376 1_455 S
H893 C889 0.950 . S
H894 C891 0.950 . S
C895 C886 1.390 . S
C895 H888 0.950 . S
C895 C892 1.376 1_655 S
C896 C897 1.389 . S
C896 H900 0.950 . S
C896 C905 1.390 . S
C897 C896 1.389 . S
C897 C899 1.386 1_545 S
H898 C905 0.950 . S
C899 C897 1.386 1_565 S
C899 C901 1.390 . S
C899 H903 0.950 . S
H900 C896 0.950 . S
C901 C899 1.390 . S
C901 C902 1.388 1_565 S
C901 H904 0.950 . S
C902 C901 1.388 1_545 S
C902 C905 1.387 . S
H903 C899 0.950 . S
H904 C901 0.950 . S
C905 C896 1.390 . S
C905 H898 0.950 . S
C905 C902 1.387 . S
C906 C907 1.401 . S
C906 H910 0.950 . S
C906 C915 1.390 . S
C907 C906 1.401 . S
C907 C909 1.374 1_455 S
H908 C915 0.950 . S
C909 C907 1.374 1_655 S
C909 C911 1.390 . S
C909 H913 0.950 . S
H910 C906 0.950 . S
C911 C909 1.390 . S
C911 C912 1.376 1_655 S
C911 H914 0.950 . S
C912 C911 1.376 1_455 S
C912 C915 1.399 . S
H913 C909 0.950 . S
H914 C911 0.950 . S
C915 C906 1.390 . S
C915 H908 0.950 . S
C915 C912 1.399 . S
C916 C917 1.389 . S
C916 H920 0.950 . S
C916 C925 1.390 . S
C917 C916 1.389 . S
C917 C919 1.386 1_554 S
H918 C925 0.950 . S
C919 C917 1.386 1_556 S
C919 C921 1.390 . S
C919 H923 0.950 . S
H920 C916 0.950 . S
C921 C919 1.390 . S
C921 C922 1.387 1_556 S
C921 H924 0.950 . S
C922 C921 1.387 1_554 S
C922 C925 1.388 . S
H923 C919 0.950 . S
H924 C921 0.950 . S
C925 C916 1.390 . S
C925 H918 0.950 . S
C925 C922 1.388 . S
C926 C927 1.385 1_556 S
C926 H930 0.950 . S
C926 C935 1.390 . S
C927 C926 1.385 1_554 S
C927 C929 1.390 . S
H928 C935 0.950 . S
C929 C927 1.390 . S
C929 C931 1.390 . S
C929 H933 0.950 . S
H930 C926 0.950 . S
C931 C929 1.390 . S
C931 C932 1.388 . S
C931 H934 0.950 . S
C932 C931 1.388 . S
C932 C935 1.387 1_554 S
H933 C929 0.950 . S
H934 C931 0.950 . S
C935 C926 1.390 . S
C935 H928 0.950 . S
C935 C932 1.387 1_556 S
C936 C937 1.386 1_556 S
C936 H940 0.950 . S
C936 C945 1.390 . S
C937 C936 1.386 1_554 S
C937 C939 1.389 . S
H938 C945 0.950 . S
C939 C937 1.389 . S
C939 C941 1.390 . S
C939 H943 0.950 . S
H940 C936 0.950 . S
C941 C939 1.390 . S
C941 C942 1.390 . S
C941 H944 0.950 . S
C942 C941 1.390 . S
C942 C945 1.385 1_554 S
H943 C939 0.950 . S
H944 C941 0.950 . S
C945 C936 1.390 . S
C945 H938 0.950 . S
C945 C942 1.385 1_556 S
C946 C947 1.389 . S
C946 H950 0.950 . S
C946 C955 1.390 . S
C947 C946 1.389 . S
C947 C949 1.386 1_554 S
H948 C955 0.950 . S
C949 C947 1.386 1_556 S
C949 C951 1.390 . S
C949 H953 0.950 . S
H950 C946 0.950 . S
C951 C949 1.390 . S
C951 C952 1.387 1_556 S
C951 H954 0.950 . S
C952 C951 1.387 1_554 S
C952 C955 1.388 . S
H953 C949 0.950 . S
H954 C951 0.950 . S
C955 C946 1.390 . S
C955 H948 0.950 . S
C955 C952 1.388 . S
C956 C957 1.384 1_556 S
C956 H960 0.950 . S
C956 C965 1.390 . S
C957 C956 1.384 1_554 S
C957 C959 1.391 . S
H958 C965 0.950 . S
C959 C957 1.391 . S
C959 C961 1.390 . S
C959 H963 0.950 . S
H960 C956 0.950 . S
C961 C959 1.390 . S
C961 C962 1.392 . S
C961 H964 0.950 . S
C962 C961 1.392 . S
C962 C965 1.383 1_554 S
H963 C959 0.950 . S
H964 C961 0.950 . S
C965 C956 1.390 . S
C965 H958 0.950 . S
C965 C962 1.383 1_556 S
C966 C967 1.385 1_556 S
C966 H970 0.950 . S
C966 C975 1.390 . S
C967 C966 1.385 1_554 S
C967 C969 1.390 . S
H968 C975 0.950 . S
C969 C967 1.390 . S
C969 C971 1.390 . S
C969 H973 0.950 . S
H970 C966 0.950 . S
C971 C969 1.390 . S
C971 C972 1.388 . S
C971 H974 0.950 . S
C972 C971 1.388 . S
C972 C975 1.387 1_554 S
H973 C969 0.950 . S
H974 C971 0.950 . S
C975 C966 1.390 . S
C975 H968 0.950 . S
C975 C972 1.387 1_556 S
C976 C977 1.384 1_556 S
C976 H980 0.950 . S
C976 C985 1.390 . S
C977 C976 1.384 1_554 S
C977 C979 1.391 . S
H978 C985 0.950 . S
C979 C977 1.391 . S
C979 C981 1.390 . S
C979 H983 0.950 . S
H980 C976 0.950 . S
C981 C979 1.390 . S
C981 C982 1.392 . S
C981 H984 0.950 . S
C982 C981 1.392 . S
C982 C985 1.383 1_554 S
H983 C979 0.950 . S
H984 C981 0.950 . S
C985 C976 1.390 . S
C985 H978 0.950 . S
C985 C982 1.383 1_556 S
C986 C987 1.386 1_556 S
C986 H990 0.950 . S
C986 C995 1.390 . S
C987 C986 1.386 1_554 S
C987 C989 1.389 . S
H988 C995 0.950 . S
C989 C987 1.389 . S
C989 C991 1.390 . S
C989 H993 0.950 . S
H990 C986 0.950 . S
C991 C989 1.390 . S
C991 C992 1.390 . S
C991 H994 0.950 . S
C992 C991 1.390 . S
C992 C995 1.385 1_554 S
H993 C989 0.950 . S
H994 C991 0.950 . S
C995 C986 1.390 . S
C995 H988 0.950 . S
C995 C992 1.385 1_556 S
C996 C997 1.387 . S
C996 H1000 0.950 . S
C996 C1005 1.390 . S
C997 C996 1.387 . S
C997 C999 1.387 . S
H998 C1005 0.950 . S
C999 C997 1.387 . S
C999 C1001 1.390 . S
C999 H1003 0.950 . S
H1000 C996 0.950 . S
C1001 C999 1.390 . S
C1001 C1002 1.387 . S
C1001 H1004 0.950 . S
C1002 C1001 1.387 . S
C1002 C1005 1.387 . S
H1003 C999 0.950 . S
H1004 C1001 0.950 . S
C1005 C996 1.390 . S
C1005 H998 0.950 . S
C1005 C1002 1.387 . S
C1006 C1007 1.387 . S
C1006 H1010 0.950 . S
C1006 C1015 1.390 . S
C1007 C1006 1.387 . S
C1007 C1009 1.387 . S
H1008 C1015 0.950 . S
C1009 C1007 1.387 . S
C1009 C1011 1.390 . S
C1009 H1013 0.950 . S
H1010 C1006 0.950 . S
C1011 C1009 1.390 . S
C1011 C1012 1.387 . S
C1011 H1014 0.950 . S
C1012 C1011 1.387 . S
C1012 C1015 1.387 . S
H1013 C1009 0.950 . S
H1014 C1011 0.950 . S
C1015 C1006 1.390 . S
C1015 H1008 0.950 . S
C1015 C1012 1.387 . S
C1016 C1017 1.387 . S
C1016 H1020 0.950 . S
C1016 C1025 1.390 . S
C1017 C1016 1.387 . S
C1017 C1019 1.387 . S
H1018 C1025 0.950 . S
C1019 C1017 1.387 . S
C1019 C1021 1.390 . S
C1019 H1023 0.950 . S
H1020 C1016 0.950 . S
C1021 C1019 1.390 . S
C1021 C1022 1.387 . S
C1021 H1024 0.950 . S
C1022 C1021 1.387 . S
C1022 C1025 1.387 . S
H1023 C1019 0.950 . S
H1024 C1021 0.950 . S
C1025 C1016 1.390 . S
C1025 H1018 0.950 . S
C1025 C1022 1.387 . S
C1026 C1027 1.387 . S
C1026 H1030 0.950 . S
C1026 C1035 1.390 . S
C1027 C1026 1.387 . S
C1027 C1029 1.387 . S
H1028 C1035 0.950 . S
C1029 C1027 1.387 . S
C1029 C1031 1.390 . S
C1029 H1033 0.950 . S
H1030 C1026 0.950 . S
C1031 C1029 1.390 . S
C1031 C1032 1.387 . S
C1031 H1034 0.950 . S
C1032 C1031 1.387 . S
C1032 C1035 1.387 . S
H1033 C1029 0.950 . S
H1034 C1031 0.950 . S
C1035 C1026 1.390 . S
C1035 H1028 0.950 . S
C1035 C1032 1.387 . S
C1036 C1037 1.387 . S
C1036 H1040 0.950 . S
C1036 C1045 1.390 . S
C1037 C1036 1.387 . S
C1037 C1039 1.387 . S
H1038 C1045 0.950 . S
C1039 C1037 1.387 . S
C1039 C1041 1.390 . S
C1039 H1043 0.950 . S
H1040 C1036 0.950 . S
C1041 C1039 1.390 . S
C1041 C1042 1.387 . S
C1041 H1044 0.950 . S
C1042 C1041 1.387 . S
C1042 C1045 1.387 . S
H1043 C1039 0.950 . S
H1044 C1041 0.950 . S
C1045 C1036 1.390 . S
C1045 H1038 0.950 . S
C1045 C1042 1.387 . S
C1046 C1047 1.387 . S
C1046 H1050 0.950 . S
C1046 C1055 1.390 . S
C1047 C1046 1.387 . S
C1047 C1049 1.387 . S
H1048 C1055 0.950 . S
C1049 C1047 1.387 . S
C1049 C1051 1.390 . S
C1049 H1053 0.950 . S
H1050 C1046 0.950 . S
C1051 C1049 1.390 . S
C1051 C1052 1.387 . S
C1051 H1054 0.950 . S
C1052 C1051 1.387 . S
C1052 C1055 1.387 . S
H1053 C1049 0.950 . S
H1054 C1051 0.950 . S
C1055 C1046 1.390 . S
C1055 H1048 0.950 . S
C1055 C1052 1.387 . S
C1056 C1057 1.387 . S
C1056 H1060 0.950 . S
C1056 C1065 1.390 . S
C1057 C1056 1.387 . S
C1057 C1059 1.387 . S
H1058 C1065 0.950 . S
C1059 C1057 1.387 . S
C1059 C1061 1.390 . S
C1059 H1063 0.950 . S
H1060 C1056 0.950 . S
C1061 C1059 1.390 . S
C1061 C1062 1.387 . S
C1061 H1064 0.950 . S
C1062 C1061 1.387 . S
C1062 C1065 1.387 . S
H1063 C1059 0.950 . S
H1064 C1061 0.950 . S
C1065 C1056 1.390 . S
C1065 H1058 0.950 . S
C1065 C1062 1.387 . S
C1066 C1067 1.387 . S
C1066 H1070 0.950 . S
C1066 C1075 1.390 . S
C1067 C1066 1.387 . S
C1067 C1069 1.387 . S
H1068 C1075 0.950 . S
C1069 C1067 1.387 . S
C1069 C1071 1.390 . S
C1069 H1073 0.950 . S
H1070 C1066 0.950 . S
C1071 C1069 1.390 . S
C1071 C1072 1.387 . S
C1071 H1074 0.950 . S
C1072 C1071 1.387 . S
C1072 C1075 1.387 . S
H1073 C1069 0.950 . S
H1074 C1071 0.950 . S
C1075 C1066 1.390 . S
C1075 H1068 0.950 . S
C1075 C1072 1.387 . S
C1076 C1077 1.387 . S
C1076 H1080 0.950 . S
C1076 C1085 1.390 . S
C1077 C1076 1.387 . S
C1077 C1079 1.387 . S
H1078 C1085 0.950 . S
C1079 C1077 1.387 . S
C1079 C1081 1.390 . S
C1079 H1083 0.950 . S
H1080 C1076 0.950 . S
C1081 C1079 1.390 . S
C1081 C1082 1.387 . S
C1081 H1084 0.950 . S
C1082 C1081 1.387 . S
C1082 C1085 1.387 . S
H1083 C1079 0.950 . S
H1084 C1081 0.950 . S
C1085 C1076 1.390 . S
C1085 H1078 0.950 . S
C1085 C1082 1.387 . S
C1086 C1087 1.387 . S
C1086 H1090 0.950 . S
C1086 C1095 1.390 . S
C1087 C1086 1.387 . S
C1087 C1089 1.387 . S
H1088 C1095 0.950 . S
C1089 C1087 1.387 . S
C1089 C1091 1.390 . S
C1089 H1093 0.950 . S
H1090 C1086 0.950 . S
C1091 C1089 1.390 . S
C1091 C1092 1.387 . S
C1091 H1094 0.950 . S
C1092 C1091 1.387 . S
C1092 C1095 1.387 . S
H1093 C1089 0.950 . S
H1094 C1091 0.950 . S
C1095 C1086 1.390 . S
C1095 H1088 0.950 . S
C1095 C1092 1.387 . S
C1096 C1097 1.387 . S
C1096 H1100 0.950 . S
C1096 C1105 1.390 . S
C1097 C1096 1.387 . S
C1097 C1099 1.387 . S
H1098 C1105 0.950 . S
C1099 C1097 1.387 . S
C1099 C1101 1.390 . S
C1099 H1103 0.950 . S
H1100 C1096 0.950 . S
C1101 C1099 1.390 . S
C1101 C1102 1.387 . S
C1101 H1104 0.950 . S
C1102 C1101 1.387 . S
C1102 C1105 1.387 . S
H1103 C1099 0.950 . S
H1104 C1101 0.950 . S
C1105 C1096 1.390 . S
C1105 H1098 0.950 . S
C1105 C1102 1.387 . S
C1106 C1107 1.387 . S
C1106 H1110 0.950 . S
C1106 C1115 1.390 . S
C1107 C1106 1.387 . S
C1107 C1109 1.387 . S
H1108 C1115 0.950 . S
C1109 C1107 1.387 . S
C1109 C1111 1.390 . S
C1109 H1113 0.950 . S
H1110 C1106 0.950 . S
C1111 C1109 1.390 . S
C1111 C1112 1.387 . S
C1111 H1114 0.950 . S
C1112 C1111 1.387 . S
C1112 C1115 1.387 . S
H1113 C1109 0.950 . S
H1114 C1111 0.950 . S
C1115 C1106 1.390 . S
C1115 H1108 0.950 . S
C1115 C1112 1.387 . S
C1116 C1117 1.387 . S
C1116 H1120 0.950 . S
C1116 C1125 1.390 . S
C1117 C1116 1.387 . S
C1117 C1119 1.387 . S
H1118 C1125 0.950 . S
C1119 C1117 1.387 . S
C1119 C1121 1.390 . S
C1119 H1123 0.950 . S
H1120 C1116 0.950 . S
C1121 C1119 1.390 . S
C1121 C1122 1.387 . S
C1121 H1124 0.950 . S
C1122 C1121 1.387 . S
C1122 C1125 1.387 . S
H1123 C1119 0.950 . S
H1124 C1121 0.950 . S
C1125 C1116 1.390 . S
C1125 H1118 0.950 . S
C1125 C1122 1.387 . S
C1126 C1127 1.387 . S
C1126 H1130 0.950 . S
C1126 C1135 1.390 . S
C1127 C1126 1.387 . S
C1127 C1129 1.387 . S
H1128 C1135 0.950 . S
C1129 C1127 1.387 . S
C1129 C1131 1.390 . S
C1129 H1133 0.950 . S
H1130 C1126 0.950 . S
C1131 C1129 1.390 . S
C1131 C1132 1.387 . S
C1131 H1134 0.950 . S
C1132 C1131 1.387 . S
C1132 C1135 1.387 . S
H1133 C1129 0.950 . S
H1134 C1131 0.950 . S
C1135 C1126 1.390 . S
C1135 H1128 0.950 . S
C1135 C1132 1.387 . S
C1136 C1137 1.387 . S
C1136 H1140 0.950 . S
C1136 C1145 1.390 . S
C1137 C1136 1.387 . S
C1137 C1139 1.387 . S
H1138 C1145 0.950 . S
C1139 C1137 1.387 . S
C1139 C1141 1.390 . S
C1139 H1143 0.950 . S
H1140 C1136 0.950 . S
C1141 C1139 1.390 . S
C1141 C1142 1.387 . S
C1141 H1144 0.950 . S
C1142 C1141 1.387 . S
C1142 C1145 1.387 . S
H1143 C1139 0.950 . S
H1144 C1141 0.950 . S
C1145 C1136 1.390 . S
C1145 H1138 0.950 . S
C1145 C1142 1.387 . S
C1146 C1147 1.387 . S
C1146 H1150 0.950 . S
C1146 C1155 1.390 . S
C1147 C1146 1.387 . S
C1147 C1149 1.387 . S
H1148 C1155 0.950 . S
C1149 C1147 1.387 . S
C1149 C1151 1.390 . S
C1149 H1153 0.950 . S
H1150 C1146 0.950 . S
C1151 C1149 1.390 . S
C1151 C1152 1.387 . S
C1151 H1154 0.950 . S
C1152 C1151 1.387 . S
C1152 C1155 1.387 . S
H1153 C1149 0.950 . S
H1154 C1151 0.950 . S
C1155 C1146 1.390 . S
C1155 H1148 0.950 . S
C1155 C1152 1.387 . S
C1156 C1157 1.387 . S
C1156 H1160 0.950 . S
C1156 C1165 1.390 . S
C1157 C1156 1.387 . S
C1157 C1159 1.387 . S
H1158 C1165 0.950 . S
C1159 C1157 1.387 . S
C1159 C1161 1.390 . S
C1159 H1163 0.950 . S
H1160 C1156 0.950 . S
C1161 C1159 1.390 . S
C1161 C1162 1.387 . S
C1161 H1164 0.950 . S
C1162 C1161 1.387 . S
C1162 C1165 1.387 . S
H1163 C1159 0.950 . S
H1164 C1161 0.950 . S
C1165 C1156 1.390 . S
C1165 H1158 0.950 . S
C1165 C1162 1.387 . S
C1166 C1167 1.387 . S
C1166 H1170 0.950 . S
C1166 C1175 1.390 . S
C1167 C1166 1.387 . S
C1167 C1169 1.387 . S
H1168 C1175 0.950 . S
C1169 C1167 1.387 . S
C1169 C1171 1.390 . S
C1169 H1173 0.950 . S
H1170 C1166 0.950 . S
C1171 C1169 1.390 . S
C1171 C1172 1.387 . S
C1171 H1174 0.950 . S
C1172 C1171 1.387 . S
C1172 C1175 1.387 . S
H1173 C1169 0.950 . S
H1174 C1171 0.950 . S
C1175 C1166 1.390 . S
C1175 H1168 0.950 . S
C1175 C1172 1.387 . S
C1176 C1177 1.387 . S
C1176 H1180 0.950 . S
C1176 C1185 1.390 . S
C1177 C1176 1.387 . S
C1177 C1179 1.387 . S
H1178 C1185 0.950 . S
C1179 C1177 1.387 . S
C1179 C1181 1.390 . S
C1179 H1183 0.950 . S
H1180 C1176 0.950 . S
C1181 C1179 1.390 . S
C1181 C1182 1.387 . S
C1181 H1184 0.950 . S
C1182 C1181 1.387 . S
C1182 C1185 1.387 . S
H1183 C1179 0.950 . S
H1184 C1181 0.950 . S
C1185 C1176 1.390 . S
C1185 H1178 0.950 . S
C1185 C1182 1.387 . S
C1186 C1187 1.387 . S
C1186 H1190 0.950 . S
C1186 C1195 1.390 . S
C1187 C1186 1.387 . S
C1187 C1189 1.387 . S
H1188 C1195 0.950 . S
C1189 C1187 1.387 . S
C1189 C1191 1.390 . S
C1189 H1193 0.950 . S
H1190 C1186 0.950 . S
C1191 C1189 1.390 . S
C1191 C1192 1.387 . S
C1191 H1194 0.950 . S
C1192 C1191 1.387 . S
C1192 C1195 1.387 . S
H1193 C1189 0.950 . S
H1194 C1191 0.950 . S
C1195 C1186 1.390 . S
C1195 H1188 0.950 . S
C1195 C1192 1.387 . S
C1196 C1197 1.387 . S
C1196 H1200 0.950 . S
C1196 C1205 1.390 . S
C1197 C1196 1.387 . S
C1197 C1199 1.387 . S
H1198 C1205 0.950 . S
C1199 C1197 1.387 . S
C1199 C1201 1.390 . S
C1199 H1203 0.950 . S
H1200 C1196 0.950 . S
C1201 C1199 1.390 . S
C1201 C1202 1.387 . S
C1201 H1204 0.950 . S
C1202 C1201 1.387 . S
C1202 C1205 1.387 . S
H1203 C1199 0.950 . S
H1204 C1201 0.950 . S
C1205 C1196 1.390 . S
C1205 H1198 0.950 . S
C1205 C1202 1.387 . S
C1206 C1207 1.387 . S
C1206 H1210 0.950 . S
C1206 C1215 1.390 . S
C1207 C1206 1.387 . S
C1207 C1209 1.387 . S
H1208 C1215 0.950 . S
C1209 C1207 1.387 . S
C1209 C1211 1.390 . S
C1209 H1213 0.950 . S
H1210 C1206 0.950 . S
C1211 C1209 1.390 . S
C1211 C1212 1.387 . S
C1211 H1214 0.950 . S
C1212 C1211 1.387 . S
C1212 C1215 1.387 . S
H1213 C1209 0.950 . S
H1214 C1211 0.950 . S
C1215 C1206 1.390 . S
C1215 H1208 0.950 . S
C1215 C1212 1.387 . S
C1216 C1217 1.387 . S
C1216 H1220 0.950 . S
C1216 C1225 1.390 . S
C1217 C1216 1.387 . S
C1217 C1219 1.387 . S
H1218 C1225 0.950 . S
C1219 C1217 1.387 . S
C1219 C1221 1.390 . S
C1219 H1223 0.950 . S
H1220 C1216 0.950 . S
C1221 C1219 1.390 . S
C1221 C1222 1.387 . S
C1221 H1224 0.950 . S
C1222 C1221 1.387 . S
C1222 C1225 1.387 . S
H1223 C1219 0.950 . S
H1224 C1221 0.950 . S
C1225 C1216 1.390 . S
C1225 H1218 0.950 . S
C1225 C1222 1.387 . S
C1226 C1227 1.387 . S
C1226 H1230 0.950 . S
C1226 C1235 1.390 . S
C1227 C1226 1.387 . S
C1227 C1229 1.387 . S
H1228 C1235 0.950 . S
C1229 C1227 1.387 . S
C1229 C1231 1.390 . S
C1229 H1233 0.950 . S
H1230 C1226 0.950 . S
C1231 C1229 1.390 . S
C1231 C1232 1.387 . S
C1231 H1234 0.950 . S
C1232 C1231 1.387 . S
C1232 C1235 1.387 . S
H1233 C1229 0.950 . S
H1234 C1231 0.950 . S
C1235 C1226 1.390 . S
C1235 H1228 0.950 . S
C1235 C1232 1.387 . S
C522 C222 1.226 . S
C517 C212 1.226 . S
C527 C194 1.228 . S
C532 C220 1.229 . S
C542 C221 1.228 . S
C537 C185 1.228 . S
C547 C203 1.226 . S
C552 C223 1.226 . S
C562 C267 1.229 . S
C557 C149 1.228 . S
C572 C327 1.229 . S
C567 C158 1.228 . S
C577 C167 1.226 . S
C582 C266 1.226 . S
C592 C326 1.231 . S
C587 C176 1.230 . S
C597 C113 1.225 . S
C602 C268 1.226 . S
C612 C324 1.228 . S
C607 C122 1.229 . S
C617 C131 1.228 . S
C622 C269 1.228 . S
C627 C140 1.226 . S
C632 C325 1.226 . S
C642 C375 1.225 . S
C637 C104 1.224 . S
C647 C86 1.227 1_554 S
C652 C374 1.227 . S
C657 C77 1.230 1_554 S
C662 C376 1.230 . S
C672 C377 1.228 . S
C667 C95 1.227 1_554 S
C677 C41 1.225 . S
C682 C418 1.225 . S
C687 C50 1.227 1_545 S
C692 C477 1.227 . S
C697 C59 1.225 . S
C702 C416 1.226 . S
C707 C68 1.229 1_545 S
C712 C476 1.229 . S
C722 C417 1.229 . S
C717 C5 1.228 . S
C732 C474 1.230 . S
C727 C14 1.229 . S
C737 C23 1.228 . S
C742 C419 1.228 . S
C752 C475 1.227 . S
C747 C32 1.227 . S
C762 C219 1.592 . S
C757 C4 1.516 . S
C767 C16 1.505 . S
C772 C225 1.592 . S
C777 C22 1.516 . S
C782 C217 1.593 . S
C787 C31 1.518 . S
C792 C224 1.594 . S
C797 C40 1.512 . S
C802 C216 1.591 . S
C812 C226 1.594 . S
C807 C49 1.515 1_545 S
C817 C61 1.500 . S
C822 C218 1.588 . S
C832 C227 1.591 . S
C827 C70 1.501 1_545 S
C842 C273 1.590 . S
C837 C34 1.500 . S
C847 C7 1.500 . S
C852 C316 1.589 . S
C862 C271 1.596 . S
C857 C13 1.520 . S
C872 C318 1.590 . S
C867 C25 1.503 . S
C877 C52 1.500 1_545 S
C882 C272 1.590 . S
C892 C317 1.591 . S
C887 C58 1.513 . S
C902 C270 1.596 . S
C897 C67 1.520 1_545 S
C912 C319 1.588 . S
C907 C43 1.498 . S
C922 C323 1.596 . S
C917 C76 1.520 1_554 S
C927 C88 1.505 1_554 S
C932 C322 1.591 . S
C942 C274 1.589 . S
C937 C79 1.502 1_554 S
C952 C321 1.588 . S
C947 C97 1.498 1_554 S
C957 C103 1.515 . S
C962 C277 1.592 . S
C967 C106 1.497 . S
C972 C320 1.587 . S
C982 C276 1.590 . S
C977 C85 1.511 1_554 S
C992 C275 1.592 . S
C987 C94 1.513 1_554 S
C1002 C369 1.590 . S
C997 C112 1.511 . S
C1012 C372 1.591 . S
C1007 C124 1.501 . S
C1017 C133 1.499 . S
C1022 C368 1.589 . S
C1032 C370 1.595 . S
C1027 C139 1.519 . S
C1042 C366 1.592 . S
C1037 C148 1.513 . S
C1047 C157 1.519 . S
C1052 C371 1.595 . S
C1057 C169 1.500 . S
C1062 C367 1.587 . S
C1072 C373 1.592 . S
C1067 C178 1.505 . S
C1082 C427 1.588 . S
C1077 C142 1.498 . S
C1087 C115 1.499 . S
C1092 C466 1.589 . S
C1102 C426 1.593 . S
C1097 C121 1.515 . S
C1112 C468 1.593 . S
C1107 C130 1.517 . S
C1122 C425 1.591 . S
C1117 C160 1.505 . S
C1127 C166 1.517 . S
C1132 C467 1.593 . S
C1142 C424 1.596 . S
C1137 C175 1.517 . S
C1152 C469 1.589 . S
C1147 C151 1.499 . S
C1162 C473 1.595 . S
C1157 C184 1.520 . S
C1167 C196 1.504 . S
C1172 C472 1.591 . S
C1182 C420 1.588 . S
C1177 C187 1.501 . S
C1187 C205 1.498 . S
C1192 C471 1.588 . S
C1202 C423 1.593 . S
C1197 C211 1.517 . S
C1212 C470 1.588 . S
C1207 C214 1.501 . S
C1222 C421 1.592 . S
C1217 C193 1.516 . S
C1227 C202 1.515 . S
C1232 C422 1.592 . S
