# Generated by pormake.
# Topology tsx, (6,3)-cn, num edge types: 1
# Building blocks:
#     Node 0, Type 0, BuildingBlock: JUFBIX_clean_sbu_0, # of connection points: 6
#     Node 1, Type 0, BuildingBlock: JUFBIX_clean_sbu_0, # of connection points: 6
#     Node 2, Type 1, BuildingBlock: KAKCAD_clean_linker_0, # of connection points: 3
#     Node 3, Type 1, BuildingBlock: KAKCAD_clean_linker_0, # of connection points: 3
#     Node 4, Type 1, BuildingBlock: KAKCAD_clean_linker_0, # of connection points: 3
#     Node 5, Type 1, BuildingBlock: KAKCAD_clean_linker_0, # of connection points: 3
#     Edge 6, Type (0, 1), BuildingBlock: FUNLAD_clean_linker_1, # of connection points: 2
#     Edge 7, Type (0, 1), BuildingBlock: FUNLAD_clean_linker_1, # of connection points: 2
#     Edge 8, Type (0, 1), BuildingBlock: FUNLAD_clean_linker_1, # of connection points: 2
#     Edge 9, Type (0, 1), BuildingBlock: FUNLAD_clean_linker_1, # of connection points: 2
#     Edge 10, Type (0, 1), BuildingBlock: FUNLAD_clean_linker_1, # of connection points: 2
#     Edge 11, Type (0, 1), BuildingBlock: FUNLAD_clean_linker_1, # of connection points: 2
#     Edge 12, Type (0, 1), BuildingBlock: FUNLAD_clean_linker_1, # of connection points: 2
#     Edge 13, Type (0, 1), BuildingBlock: FUNLAD_clean_linker_1, # of connection points: 2
#     Edge 14, Type (0, 1), BuildingBlock: FUNLAD_clean_linker_1, # of connection points: 2
#     Edge 15, Type (0, 1), BuildingBlock: FUNLAD_clean_linker_1, # of connection points: 2
#     Edge 16, Type (0, 1), BuildingBlock: FUNLAD_clean_linker_1, # of connection points: 2
#     Edge 17, Type (0, 1), BuildingBlock: FUNLAD_clean_linker_1, # of connection points: 2
# Relax obj value: 0.159
# Max RMSD: 0.166
# Mean RMSD: 0.134
data_MOF--net-tsx--node1-JUFBIX_clean_sbu_0--node2-KAKCAD_clean_linker_0--edge1-FUNLAD_clean_linker_1
_symmetry_space_group_name_H-M    P1
_symmetry_Int_Tables_number       1
_symmetry_cell_setting            triclinic
loop_
_symmetry_equiv_pos_as_xyz
'x, y, z'
_cell_length_a     24.564494
_cell_length_b     29.201148
_cell_length_c     45.071321
_cell_angle_alpha  92.536844
_cell_angle_beta   89.523566
_cell_angle_gamma 97.592149
loop_
_atom_site_label
_atom_site_type_symbol
_atom_site_fract_x
_atom_site_fract_y
_atom_site_fract_z
_atom_type_partial_charge
Co0 Co 0.03083 0.9835 0.01422 0.0
C1 C 0.98673 0.01857 0.9637 0.0
Co2 Co 0.96923 0.03185 0.02325 0.0
C3 C 0.12892 0.93545 0.01499 0.0
C4 C 0.06961 0.90827 0.98207 0.0
N5 N 0.07963 0.94167 0.0037 0.0
N6 N 0.14945 0.89912 1.00142 0.0
C7 C 0.11222 0.88226 0.98055 0.0
H8 H 0.14909 0.95678 0.033 0.0
H9 H 0.03334 0.90303 0.96825 0.0
C10 C 0.01446 0.99666 0.07373 0.0
N11 N 0.9185 0.07202 0.034 0.0
C12 C 0.90671 0.11137 0.0221 0.0
C13 C 0.88442 0.0661 0.05757 0.0
N14 N 0.86695 0.13001 0.03764 0.0
C15 C 0.85325 0.10171 0.05997 0.0
C16 C 0.92238 0.94074 0.01775 0.0
O17 O 0.04126 0.97454 0.05509 0.0
O18 O 0.98196 0.02334 0.06444 0.0
O19 O 0.91192 0.98174 0.02275 0.0
O20 O 0.97173 0.93356 0.01313 0.0
O21 O 0.95763 0.03951 0.98193 0.0
H22 H 0.88222 0.03751 0.07219 0.0
H23 H 0.92728 0.1262 0.00275 0.0
O24 O 0.02038 0.99333 0.9734 0.0
O25 O 0.08866 0.03391 0.01566 0.0
O26 O 0.02723 0.08172 0.02374 0.0
C27 C 0.07702 0.07493 0.02012 0.0
H28 H 0.11561 0.85365 0.96487 0.0
H29 H 0.8223 0.10632 0.0767 0.0
Co30 Co 0.55824 0.51145 0.51138 0.0
C31 C 0.50554 0.53199 0.45984 0.0
Co32 Co 0.48388 0.54616 0.51936 0.0
C33 C 0.63462 0.44236 0.51064 0.0
C34 C 0.66385 0.50214 0.48636 0.0
N35 N 0.62132 0.48388 0.5031 0.0
N36 N 0.68377 0.43431 0.49918 0.0
C37 C 0.70222 0.47196 0.48409 0.0
H38 H 0.60854 0.41852 0.524 0.0
H39 H 0.66644 0.53503 0.47595 0.0
C40 C 0.53705 0.52561 0.57083 0.0
N41 N 0.42097 0.57383 0.52739 0.0
C42 C 0.40255 0.60932 0.51397 0.0
C43 C 0.38328 0.56191 0.54857 0.0
N44 N 0.35504 0.62008 0.52599 0.0
C45 C 0.34277 0.59019 0.54779 0.0
C46 C 0.46323 0.44971 0.51572 0.0
O47 O 0.56998 0.50878 0.5528 0.0
O48 O 0.49689 0.54367 0.56086 0.0
O49 O 0.44136 0.48667 0.51956 0.0
O50 O 0.5147 0.4523 0.51131 0.0
O51 O 0.47204 0.54824 0.47779 0.0
H52 H 0.385 0.53419 0.56354 0.0
H53 H 0.42353 0.62693 0.49565 0.0
O54 O 0.54593 0.51442 0.46995 0.0
O55 O 0.60071 0.57135 0.51189 0.0
O56 O 0.5269 0.60532 0.51924 0.0
C57 C 0.57857 0.60817 0.51566 0.0
H58 H 0.74039 0.47681 0.47172 0.0
H59 H 0.3069 0.58821 0.56197 0.0
C60 C 0.95539 0.94871 0.32022 0.0
C61 C 0.97961 0.98675 0.30462 0.0
C62 C 0.95602 0.95003 0.35129 0.0
C63 C 0.97947 0.99 0.36734 0.0
C64 C 1.00317 0.02833 0.35179 0.0
C65 C 1.00369 0.02661 0.32069 0.0
C66 C 0.97815 0.99196 0.40027 0.0
C67 C 0.99957 0.95828 0.41617 0.0
C68 C 0.99821 0.95949 0.44746 0.0
C69 C 0.97396 0.99492 0.46272 0.0
C70 C 0.95232 0.02907 0.447 0.0
C71 C 0.95503 0.02732 0.41578 0.0
C72 C 0.92585 0.06636 0.46267 0.0
C73 C 0.88794 0.05642 0.48581 0.0
C74 C 0.93594 0.11196 0.45324 0.0
C75 C 0.90699 0.14629 0.46555 0.0
C76 C 0.86676 0.13584 0.48753 0.0
C77 C 0.02422 0.9246 0.46371 0.0
C78 C 0.02045 0.87854 0.4525 0.0
C79 C 0.05621 0.93752 0.48924 0.0
C80 C 0.0861 0.90585 0.50212 0.0
C81 C 0.0852 0.86084 0.48959 0.0
C82 C 0.05056 0.84708 0.46522 0.0
C83 C 0.85885 0.09089 0.49816 0.0
H84 H 0.93617 0.91779 0.30832 0.0
H85 H 0.93712 0.92019 0.36281 0.0
H86 H 0.02141 0.05955 0.36371 0.0
H87 H 0.0216 0.05688 0.30929 0.0
H88 H 0.01889 0.93189 0.40401 0.0
H89 H 0.93757 0.05279 0.40336 0.0
H90 H 0.97216 0.9961 0.48678 0.0
H91 H 0.87918 0.02163 0.49356 0.0
H92 H 0.96597 0.12104 0.43602 0.0
H93 H 0.91626 0.18092 0.45766 0.0
H94 H 0.99475 0.86687 0.43351 0.0
H95 H 0.06008 0.97262 0.49856 0.0
H96 H 0.82875 0.08198 0.51537 0.0
H97 H 0.0467 0.81207 0.45579 0.0
H98 H 0.11168 0.91712 0.52122 0.0
C99 C 0.96699 0.07291 0.7228 0.0
C100 C 0.95503 0.03024 0.73623 0.0
C101 C 0.97851 0.0745 0.69234 0.0
C102 C 0.97946 0.03346 0.67471 0.0
C103 C 0.9681 0.99087 0.68855 0.0
C104 C 0.95518 0.98935 0.71878 0.0
C105 C 0.99146 0.03491 0.64207 0.0
C106 C 0.02738 0.07141 0.63041 0.0
C107 C 0.03811 0.07334 0.59968 0.0
C108 C 0.01323 0.03745 0.58042 0.0
C109 C 0.97832 1.00032 0.59175 0.0
C110 C 0.96713 0.99959 0.62231 0.0
C111 C 0.95333 0.96131 0.57222 0.0
C112 C 0.91103 0.96697 0.55252 0.0
C113 C 0.96736 0.91691 0.57594 0.0
C114 C 0.93776 0.87839 0.5614 0.0
C115 C 0.89266 0.88338 0.54346 0.0
C116 C 0.07589 0.11277 0.58811 0.0
C117 C 0.07358 0.15801 0.59958 0.0
C118 C 0.11559 0.10554 0.56634 0.0
C119 C 0.15309 0.14252 0.55691 0.0
C120 C 0.15163 0.18769 0.56907 0.0
C121 C 0.11086 0.19487 0.59017 0.0
C122 C 0.8807 0.92825 0.53828 0.0
H123 H 0.96615 0.10501 0.73569 0.0
H124 H 0.9857 0.10799 0.68261 0.0
H125 H 0.96964 0.95844 0.67618 0.0
H126 H 0.94631 0.95604 0.7287 0.0
H127 H 0.04829 0.09796 0.64535 0.0
H128 H 0.93848 0.97148 0.63045 0.0
H129 H 0.02102 0.03821 0.55672 0.0
H130 H 0.89971 1.00103 0.54932 0.0
H131 H 1.0 0.91188 0.59101 0.0
H132 H 0.94828 0.84434 0.5655 0.0
H133 H 0.0429 0.165 0.61598 0.0
H134 H 0.11861 0.07108 0.55711 0.0
H135 H 0.84721 0.93343 0.52387 0.0
H136 H 0.10819 0.22918 0.59978 0.0
H137 H 0.18303 0.13513 0.5403 0.0
C138 C 0.50332 0.49586 0.8191 0.0
C139 C 0.52517 0.5332 0.80223 0.0
C140 C 0.51066 0.49748 0.84987 0.0
C141 C 0.53881 0.53703 0.86445 0.0
C142 C 0.55962 0.57491 0.8477 0.0
C143 C 0.55325 0.57292 0.81681 0.0
C144 C 0.54622 0.53854 0.89709 0.0
C145 C 0.56798 0.50269 0.91053 0.0
C146 C 0.57353 0.50255 0.94153 0.0
C147 C 0.55623 0.53891 0.95931 0.0
C148 C 0.53376 0.57509 0.94607 0.0
C149 C 0.52979 0.57482 0.9149 0.0
C150 C 0.50976 0.61137 0.96415 0.0
C151 C 0.4714 0.59907 0.98666 0.0
C152 C 0.51888 0.65773 0.9561 0.0
C153 C 0.48758 0.69034 0.96865 0.0
C154 C 0.44629 0.67733 0.98967 0.0
C155 C 0.59747 0.46385 0.95457 0.0
C156 C 0.57948 0.41811 0.94466 0.0
C157 C 0.64209 0.47229 0.97424 0.0
C158 C 0.66998 0.43591 0.98259 0.0
C159 C 0.65343 0.39032 0.97142 0.0
C160 C 0.60716 0.38193 0.95293 0.0
C161 C 0.43976 0.63165 0.99911 0.0
H162 H 0.48111 0.46508 0.8084 0.0
H163 H 0.49374 0.46802 0.86235 0.0
H164 H 0.58133 0.60582 0.85848 0.0
H165 H 0.56944 0.60272 0.80447 0.0
H166 H 0.58146 0.47502 0.89665 0.0
H167 H 0.51129 0.60173 0.90447 0.0
H168 H 0.55941 0.53866 0.98327 0.0
H169 H 0.46316 0.56356 0.99321 0.0
H170 H 0.54843 0.66827 0.93891 0.0
H171 H 0.49368 0.72476 0.96026 0.0
H172 H 0.54485 0.41049 0.9297 0.0
H173 H 0.65722 0.5073 0.98187 0.0
H174 H 0.40826 0.62052 0.01519 0.0
H175 H 0.59311 0.34728 0.94413 0.0
H176 H 0.7057 0.44418 0.99662 0.0
C177 C 0.52722 0.53207 0.21324 0.0
C178 C 0.53849 0.49396 0.22912 0.0
C179 C 0.52761 0.52998 0.18216 0.0
C180 C 0.53918 0.48983 0.1663 0.0
C181 C 0.55104 0.45204 0.1822 0.0
C182 C 0.55104 0.45424 0.21324 0.0
C183 C 0.53871 0.48722 0.13328 0.0
C184 C 0.56371 0.52433 0.1171 0.0
C185 C 0.56371 0.52199 0.08583 0.0
C186 C 0.53763 0.48193 0.07072 0.0
C187 C 0.51252 0.44446 0.08664 0.0
C188 C 0.51343 0.44739 0.11783 0.0
C189 C 0.48392 0.40237 0.07113 0.0
C190 C 0.44405 0.40572 0.04946 0.0
C191 C 0.49341 0.35839 0.07962 0.0
C192 C 0.46188 0.31862 0.06772 0.0
C193 C 0.41958 0.322 0.04753 0.0
C194 C 0.59318 0.5608 0.06934 0.0
C195 C 0.58959 0.6068 0.07877 0.0
C196 C 0.62859 0.55224 0.04568 0.0
C197 C 0.66186 0.58883 0.03287 0.0
C198 C 0.66028 0.63474 0.04325 0.0
C199 C 0.62278 0.64334 0.066 0.0
C200 C 0.41197 0.36589 0.03781 0.0
H201 H 0.51888 0.5638 0.22462 0.0
H202 H 0.51825 0.55965 0.17052 0.0
H203 H 0.56092 0.42087 0.17063 0.0
H204 H 0.56045 0.42458 0.22489 0.0
H205 H 0.58488 0.55453 0.12894 0.0
H206 H 0.49302 0.41894 0.13015 0.0
H207 H 0.5371 0.47978 0.04665 0.0
H208 H 0.43609 0.43922 0.04246 0.0
H209 H 0.52444 0.35485 0.096 0.0
H210 H 0.46904 0.28523 0.0753 0.0
H211 H 0.56218 0.61453 0.09672 0.0
H212 H 0.63262 0.51715 0.03807 0.0
H213 H 0.38077 0.36963 0.0216 0.0
H214 H 0.62035 0.67781 0.07518 0.0
H215 H 0.69037 0.58106 0.01547 0.0
H216 H 0.1076 0.14911 0.02541 0.0
C217 C 0.12033 0.11498 0.02198 0.0
H218 H 0.18785 0.07727 0.01682 0.0
H219 H 0.35092 0.25242 0.97871 0.0
H220 H 0.34476 0.20476 0.93301 0.0
H221 H 0.27972 0.13282 0.92858 0.0
H222 H 0.22046 0.10799 0.9698 0.0
C223 C 0.17416 0.11089 0.02089 0.0
C224 C 0.21621 0.1525 0.02435 0.0
C225 C 0.251 0.16618 1.00016 0.0
C226 C 0.28858 0.20766 0.0027 0.0
C227 C 0.32205 0.22102 0.97803 0.0
C228 C 0.31881 0.19406 0.95166 0.0
C229 C 0.28217 0.15355 0.94916 0.0
C230 C 0.24844 0.13967 0.97301 0.0
H231 H 0.39833 0.24631 0.03979 0.0
C232 C 0.38278 0.27934 0.0383 0.0
H233 H 0.31124 0.31132 0.03308 0.0
H234 H 0.16242 0.13231 0.07675 0.0
H235 H 0.16903 0.17977 0.12237 0.0
H236 H 0.23121 0.25339 0.12599 0.0
H237 H 0.28757 0.27968 0.08406 0.0
C238 C 0.32932 0.27931 0.03217 0.0
C239 C 0.29133 0.23526 0.02944 0.0
C240 C 0.25756 0.22102 0.05389 0.0
C241 C 0.22067 0.1792 0.05154 0.0
C242 C 0.18953 0.16466 0.07685 0.0
C243 C 0.19331 0.19137 0.10331 0.0
C244 C 0.22839 0.23276 0.10537 0.0
C245 C 0.26041 0.24749 0.08108 0.0
H246 H 0.23252 0.90568 0.01984 0.0
C247 C 0.20137 0.88308 0.0073 0.0
H248 H 0.18144 0.81817 0.98469 0.0
H249 H 0.41294 0.78031 0.94302 0.0
H250 H 0.38223 0.81299 0.89866 0.0
H251 H 0.29941 0.85247 0.89955 0.0
H252 H 0.24666 0.85933 0.94489 0.0
C253 C 0.21227 0.84115 0.99707 0.0
C254 C 0.2676 0.8257 0.99868 0.0
C255 C 0.29892 0.82293 0.97225 0.0
C256 C 0.34715 0.80075 0.97189 0.0
C257 C 0.37645 0.79732 0.94482 0.0
C258 C 0.35921 0.81586 0.9191 0.0
C259 C 0.31255 0.83802 0.91958 0.0
C260 C 0.28256 0.84157 0.94575 0.0
H261 H 0.36497 0.6917 0.00633 0.0
C262 C 0.4048 0.7082 0.99898 0.0
H263 H 0.45121 0.77225 0.9895 0.0
H264 H 0.2187 0.82696 0.05336 0.0
H265 H 0.25171 0.79761 0.0985 0.0
H266 H 0.33737 0.76199 0.09838 0.0
H267 H 0.39027 0.75492 0.053 0.0
C268 C 0.41194 0.75443 0.99643 0.0
C269 C 0.36426 0.78142 0.99804 0.0
C270 C 0.33476 0.78665 0.02493 0.0
C271 C 0.28605 0.80838 0.02517 0.0
C272 C 0.25631 0.81145 0.05204 0.0
C273 C 0.27481 0.79473 0.07809 0.0
C274 C 0.32301 0.77459 0.07801 0.0
C275 C 0.35282 0.77052 0.05181 0.0
H276 H 0.83687 0.91045 0.02558 0.0
C277 C 0.87736 0.90219 0.01918 0.0
H278 H 0.92472 0.84839 0.00785 0.0
H279 H 0.73095 0.73847 0.08994 0.0
H280 H 0.78464 0.77734 0.1308 0.0
H281 H 0.86444 0.83568 0.1215 0.0
H282 H 0.89093 0.85555 0.07127 0.0
C283 C 0.88494 0.85773 0.01462 0.0
C284 C 0.83929 0.82019 0.02 0.0
C285 C 0.82465 0.80868 0.0495 0.0
C286 C 0.77889 0.77483 0.05483 0.0
C287 C 0.76516 0.76408 0.08455 0.0
C288 C 0.79572 0.78605 0.10825 0.0
C289 C 0.84063 0.8189 0.10302 0.0
C290 C 0.85521 0.83014 0.07405 0.0
H291 H 0.73764 0.66107 0.02047 0.0
C292 C 0.70201 0.67176 0.032 0.0
H293 H 0.66536 0.72995 0.048 0.0
H294 H 0.85833 0.8327 0.96093 0.0
H295 H 0.80494 0.79364 0.91985 0.0
H296 H 0.72463 0.73573 0.92905 0.0
H297 H 0.6973 0.71631 0.97931 0.0
C298 C 0.69996 0.71734 0.03675 0.0
C299 C 0.74828 0.7521 0.03063 0.0
C300 C 0.76349 0.76306 1.0011 0.0
C301 C 0.80937 0.79693 0.99579 0.0
C302 C 0.82371 0.80737 0.96614 0.0
C303 C 0.79343 0.78523 0.9424 0.0
C304 C 0.74824 0.75258 0.94758 0.0
C305 C 0.73315 0.74158 0.97653 0.0
H306 H 0.81806 0.1842 0.05116 0.0
C307 C 0.8421 0.17113 0.03305 0.0
H308 H 0.86648 0.17962 0.98832 0.0
H309 H 0.64417 0.28799 0.01463 0.0
H310 H 0.59564 0.21142 0.02148 0.0
H311 H 0.64452 0.14281 0.01802 0.0
H312 H 0.74252 0.15063 0.00864 0.0
C313 C 0.84294 0.19162 0.0069 0.0
C314 C 0.81165 0.23163 0.00311 0.0
C315 C 0.75361 0.22612 0.00656 0.0
C316 C 0.72472 0.2653 0.00641 0.0
C317 C 0.66767 0.25919 0.0127 0.0
C318 C 0.63932 0.21543 0.01697 0.0
C319 C 0.66689 0.17685 0.01518 0.0
C320 C 0.7233 0.1819 0.01005 0.0
H321 H 0.67532 0.3201 0.9621 0.0
C322 C 0.68458 0.3509 0.9766 0.0
H323 H 0.73375 0.38007 0.01286 0.0
H324 H 0.92212 0.2542 0.99467 0.0
H325 H 0.96991 0.33007 0.98465 0.0
H326 H 0.91917 0.3971 0.98118 0.0
H327 H 0.82042 0.38886 0.98801 0.0
C328 C 0.72265 0.3503 0.99787 0.0
C329 C 0.75315 0.30951 1.00039 0.0
C330 C 0.81089 0.31473 0.99595 0.0
C331 C 0.84013 0.27585 0.99746 0.0
C332 C 0.89784 0.28238 0.99348 0.0
C333 C 0.9258 0.32576 0.98771 0.0
C334 C 0.89723 0.36351 0.98578 0.0
C335 C 0.8405 0.35828 0.9898 0.0
H336 H 0.59131 0.68444 0.52025 0.0
C337 C 0.61225 0.65404 0.51702 0.0
H338 H 0.68892 0.62921 0.51194 0.0
H339 H 0.82305 0.81716 0.47409 0.0
H340 H 0.82171 0.77117 0.42785 0.0
H341 H 0.76503 0.69494 0.42274 0.0
H342 H 0.70936 0.66418 0.46382 0.0
C343 C 0.66747 0.65918 0.51586 0.0
C344 C 0.70109 0.70561 0.51904 0.0
C345 C 0.73378 0.72299 0.49489 0.0
C346 C 0.76672 0.76692 0.49786 0.0
C347 C 0.79804 0.78373 0.47319 0.0
C348 C 0.79743 0.75779 0.44647 0.0
C349 C 0.76551 0.71487 0.44359 0.0
C350 C 0.73385 0.69757 0.46739 0.0
H351 H 0.8755 0.80887 0.5304 0.0
C352 C 0.85734 0.8409 0.53228 0.0
H353 H 0.78255 0.86937 0.53311 0.0
H354 H 0.6487 0.68053 0.57109 0.0
H355 H 0.6498 0.72668 0.61704 0.0
H356 H 0.70407 0.804 0.62151 0.0
H357 H 0.75797 0.83535 0.58007 0.0
C358 C 0.80267 0.83878 0.52883 0.0
C359 C 0.76715 0.79335 0.52503 0.0
C360 C 0.73434 0.77607 0.54917 0.0
C361 C 0.70199 0.7319 0.54636 0.0
C362 C 0.6723 0.71452 0.57147 0.0
C363 C 0.67296 0.74051 0.59816 0.0
C364 C 0.70358 0.78399 0.60069 0.0
C365 C 0.73422 0.80162 0.57664 0.0
H366 H 0.75316 0.39622 0.49105 0.0
C367 C 0.71209 0.39423 0.50057 0.0
H368 H 0.64738 0.34969 0.51949 0.0
H369 H 0.73527 0.17567 0.45396 0.0
H370 H 0.64804 0.17684 0.42926 0.0
H371 H 0.59222 0.23981 0.44038 0.0
H372 H 0.62309 0.30191 0.47632 0.0
C373 C 0.68925 0.3538 0.51121 0.0
C374 C 0.71881 0.31227 0.50804 0.0
C375 C 0.69977 0.27587 0.48731 0.0
C376 C 0.73228 0.23982 0.48064 0.0
C377 C 0.71255 0.20421 0.45956 0.0
C378 C 0.66249 0.20437 0.4453 0.0
C379 C 0.63103 0.2398 0.45159 0.0
C380 C 0.64926 0.27525 0.47228 0.0
H381 H 0.81301 0.16585 0.52108 0.0
C382 C 0.83227 0.17088 0.49946 0.0
H383 H 0.83604 0.21036 0.46111 0.0
H384 H 0.76196 0.37168 0.55289 0.0
H385 H 0.84878 0.37022 0.57803 0.0
H386 H 0.90726 0.30982 0.5649 0.0
H387 H 0.87909 0.2502 0.52692 0.0
C388 C 0.82132 0.20681 0.48376 0.0
C389 C 0.78376 0.24008 0.49472 0.0
C390 C 0.80124 0.27495 0.51679 0.0
C391 C 0.76834 0.3107 0.52372 0.0
C392 C 0.78619 0.34459 0.54621 0.0
C393 C 0.83574 0.34399 0.56091 0.0
C394 C 0.8686 0.30991 0.55356 0.0
C395 C 0.85185 0.27578 0.53174 0.0
H396 H 0.45058 0.37331 0.51592 0.0
C397 C 0.42987 0.40399 0.5178 0.0
H398 H 0.3541 0.42975 0.52509 0.0
H399 H 0.21776 0.2338 0.48886 0.0
H400 H 0.22111 0.26725 0.44039 0.0
H401 H 0.28041 0.3404 0.43152 0.0
H402 H 0.33676 0.38065 0.47108 0.0
C403 C 0.37561 0.39953 0.52334 0.0
C404 C 0.34321 0.35364 0.52807 0.0
C405 C 0.31083 0.33041 0.50473 0.0
C406 C 0.27681 0.2881 0.50983 0.0
C407 C 0.2445 0.2659 0.48616 0.0
C408 C 0.24601 0.28474 0.45825 0.0
C409 C 0.27939 0.32595 0.45326 0.0
C410 C 0.31146 0.34871 0.47614 0.0
H411 H 0.18459 0.26206 0.57043 0.0
C412 C 0.19162 0.22836 0.56103 0.0
H413 H 0.24613 0.19423 0.53366 0.0
H414 H 0.40048 0.38919 0.57759 0.0
H415 H 0.39972 0.35448 0.62551 0.0
H416 H 0.34315 0.27983 0.63389 0.0
H417 H 0.28659 0.23968 0.59449 0.0
C418 C 0.23673 0.22642 0.54405 0.0
C419 C 0.27497 0.26924 0.53833 0.0
C420 C 0.30889 0.29169 0.56141 0.0
C421 C 0.34256 0.33418 0.55636 0.0
C422 C 0.37476 0.35652 0.58005 0.0
C423 C 0.37468 0.337 0.6077 0.0
C424 C 0.34275 0.29502 0.61243 0.0
C425 C 0.31023 0.27245 0.58965 0.0
H426 H 0.33728 0.67324 0.49622 0.0
C427 C 0.32405 0.65535 0.51622 0.0
H428 H 0.26456 0.64878 0.55051 0.0
H429 H 0.23063 0.85242 0.49762 0.0
H430 H 0.32215 0.87912 0.51619 0.0
H431 H 0.37858 0.82481 0.53737 0.0
H432 H 0.34418 0.74331 0.53961 0.0
C433 C 0.27921 0.66658 0.5308 0.0
C434 C 0.24479 0.70034 0.51927 0.0
C435 C 0.26478 0.74821 0.51909 0.0
C436 C 0.23128 0.77991 0.50799 0.0
C437 C 0.2534 0.82709 0.50673 0.0
C438 C 0.30605 0.84287 0.51719 0.0
C439 C 0.33789 0.81227 0.52903 0.0
C440 C 0.31772 0.76549 0.53004 0.0
H441 H 0.13265 0.83434 0.52538 0.0
C442 C 0.12097 0.82911 0.50213 0.0
H443 H 0.1321 0.79104 0.46199 0.0
H444 H 0.19361 0.61106 0.51658 0.0
H445 H 0.1009 0.58476 0.49962 0.0
H446 H 0.0418 0.63999 0.48209 0.0
H447 H 0.07512 0.72187 0.48129 0.0
C448 C 0.14202 0.79622 0.48542 0.0
C449 C 0.17708 0.76393 0.4981 0.0
C450 C 0.15687 0.71619 0.49874 0.0
C451 C 0.19071 0.68441 0.50927 0.0
C452 C 0.16953 0.63685 0.50921 0.0
C453 C 0.11638 0.62122 0.49946 0.0
C454 C 0.08314 0.65231 0.48955 0.0
C455 C 0.10288 0.69923 0.48914 0.0
H456 H 0.05406 0.97271 0.11302 0.0
C457 C 0.02161 0.99165 0.10588 0.0
H458 H 0.95736 0.02936 0.11925 0.0
H459 H 0.01003 0.91568 0.23955 0.0
H460 H 0.98427 0.84515 0.20975 0.0
H461 H 0.96113 0.84795 0.15675 0.0
H462 H 0.96554 0.92118 0.13306 0.0
C463 C 0.98917 0.00963 0.12627 0.0
C464 C 0.99824 0.00725 0.15885 0.0
C465 C 0.99213 0.96417 0.17274 0.0
C466 C 1.00148 0.9627 0.20383 0.0
C467 C 0.99992 0.91903 0.21652 0.0
C468 C 0.98574 0.87819 0.19958 0.0
C469 C 0.97301 0.87975 0.16971 0.0
C470 C 0.97613 0.9221 0.15633 0.0
H471 H 0.9399 0.96639 0.26129 0.0
C472 C 0.97661 0.98494 0.2717 0.0
H473 H 0.05509 0.02172 0.26466 0.0
H474 H 0.0161 0.09541 0.13914 0.0
H475 H 0.03716 0.16612 0.16934 0.0
H476 H 0.04575 0.164 0.22373 0.0
H477 H 0.03416 0.09121 0.24818 0.0
C478 C 0.01783 1.00389 0.25445 0.0
C479 C 0.01256 1.00447 0.22143 0.0
C480 C 0.01833 0.04753 0.2075 0.0
C481 C 0.01184 0.04886 0.1762 0.0
C482 C 0.01937 0.09232 0.16287 0.0
C483 C 0.03164 0.13326 0.17994 0.0
C484 C 0.03659 0.13205 0.21054 0.0
C485 C 0.02998 0.08988 0.22428 0.0
H486 H 0.01848 0.01348 0.91833 0.0
C487 C 0.98427 0.02363 0.93139 0.0
H488 H 0.90717 0.04786 0.93 0.0
H489 H 0.94463 0.13447 0.80371 0.0
H490 H 0.9255 0.20002 0.8351 0.0
H491 H 0.91491 0.19357 0.88927 0.0
H492 H 0.92249 0.12134 0.91236 0.0
C493 C 0.94163 0.03742 0.91732 0.0
C494 C 0.94211 0.04005 0.88419 0.0
C495 C 0.93831 0.08275 0.87106 0.0
C496 C 0.94587 0.08679 0.83984 0.0
C497 C 0.94049 0.12962 0.82732 0.0
C498 C 0.92934 0.16755 0.84507 0.0
C499 C 0.9233 0.1639 0.87557 0.0
C500 C 0.92775 0.12215 0.88854 0.0
H501 H 0.91047 0.99938 0.77486 0.0
C502 C 0.94146 0.0272 0.76827 0.0
H503 H 1.00153 0.08157 0.78299 0.0
H504 H 0.93549 0.95005 0.90026 0.0
H505 H 0.96019 0.88532 0.86981 0.0
H506 H 0.99002 0.89561 0.81784 0.0
H507 H 0.9927 0.96981 0.79573 0.0
C508 C 0.96982 0.05419 0.78938 0.0
C509 C 0.95883 0.04852 0.82183 0.0
C510 C 0.9624 0.00568 0.83505 0.0
C511 C 0.95068 1.00083 0.86581 0.0
C512 C 0.94818 0.95642 0.87761 0.0
C513 C 0.96171 0.91887 0.8603 0.0
C514 C 0.97811 0.92459 0.83101 0.0
C515 C 0.97872 0.96739 0.81845 0.0
H516 H 0.5822 0.51044 0.61063 0.0
C517 C 0.54614 0.52449 0.60308 0.0
H518 H 0.47641 0.55595 0.61585 0.0
H519 H 0.5495 0.45951 0.73883 0.0
H520 H 0.52582 0.38599 0.71192 0.0
H521 H 0.49778 0.3828 0.65936 0.0
H522 H 0.49491 0.45317 0.63319 0.0
C523 C 0.51168 0.54055 0.62313 0.0
C524 C 0.52314 0.54192 0.65558 0.0
C525 C 0.52171 0.50041 0.67095 0.0
C526 C 0.53441 0.50227 0.70178 0.0
C527 C 0.53702 0.46025 0.71593 0.0
C528 C 0.52405 0.41773 0.70065 0.0
C529 C 0.50853 0.41593 0.67103 0.0
C530 C 0.50739 0.45665 0.65622 0.0
H531 H 0.47883 0.51067 0.76111 0.0
C532 C 0.51662 0.53027 0.76963 0.0
H533 H 0.59321 0.56727 0.75848 0.0
H534 H 0.53123 0.62784 0.63262 0.0
H535 H 0.55097 0.70148 0.65991 0.0
H536 H 0.56673 0.70486 0.71399 0.0
H537 H 0.56364 0.63469 0.74102 0.0
C538 C 0.55477 0.54838 0.75035 0.0
C539 C 0.5448 0.54569 0.71765 0.0
C540 C 0.54574 0.58716 0.70226 0.0
C541 C 0.53536 0.58524 0.67119 0.0
C542 C 0.53786 0.62722 0.65629 0.0
C543 C 0.54926 0.66978 0.67167 0.0
C544 C 0.55823 0.67168 0.7021 0.0
C545 C 0.55646 0.63103 0.71734 0.0
H546 H 0.46393 0.55088 0.4197 0.0
C547 C 0.49774 0.5341 0.42753 0.0
H548 H 0.5645 0.49834 0.41517 0.0
H549 H 0.45678 0.44027 0.28833 0.0
H550 H 0.42372 0.37112 0.31439 0.0
H551 H 0.43618 0.36835 0.36851 0.0
H552 H 0.48132 0.43499 0.39694 0.0
C553 C 0.53129 0.51619 0.40778 0.0
C554 C 0.52313 0.51839 0.37525 0.0
C555 C 0.49785 0.47887 0.35886 0.0
C556 C 0.49188 0.48012 0.32755 0.0
C557 C 0.46422 0.44076 0.31196 0.0
C558 C 0.4446 0.40092 0.32669 0.0
C559 C 0.45153 0.39938 0.35717 0.0
C560 C 0.47763 0.43784 0.3732 0.0
H561 H 0.56253 0.47073 0.27263 0.0
C562 C 0.53905 0.49463 0.26213 0.0
H563 H 0.48547 0.54514 0.27005 0.0
H564 H 0.57339 0.60016 0.40016 0.0
H565 H 0.60629 0.66954 0.37424 0.0
H566 H 0.59679 0.67164 0.31989 0.0
H567 H 0.55443 0.60435 0.2911 0.0
C568 C 0.51014 0.52133 0.27957 0.0
C569 C 0.51276 0.52055 0.31258 0.0
C570 C 0.5369 0.56045 0.32912 0.0
C571 C 0.54225 0.55931 0.36048 0.0
C572 C 0.56776 0.59927 0.37635 0.0
C573 C 0.58697 0.6393 0.36174 0.0
C574 C 0.58163 0.64047 0.33114 0.0
C575 C 0.55711 0.6016 0.31489 0.0
loop_
_geom_bond_atom_site_label_1
_geom_bond_atom_site_label_2
_geom_bond_distance
_geom_bond_site_symmetry_2
_ccdc_geom_bond_type
Co0 N5 2.057 . S
Co0 O17 2.021 . S
Co0 O20 2.062 1_455 S
Co0 O24 2.117 1_554 S
Co0 O25 2.020 1_565 S
C1 O21 1.259 1_455 S
C1 O24 1.258 1_545 S
Co2 N11 2.057 . S
Co2 O18 2.117 . S
Co2 O19 2.020 1_545 S
Co2 O21 2.021 1_554 S
Co2 O26 2.062 1_655 S
C3 N5 1.316 . S
C3 N6 1.347 . S
C3 H8 0.931 . S
C4 N5 1.375 1_556 S
C4 C7 1.350 . S
C4 H9 0.930 . S
N5 Co0 2.057 . S
N5 C3 1.316 . S
N5 C4 1.375 1_554 S
N6 C3 1.347 . S
N6 C7 1.373 1_554 S
C7 C4 1.350 . S
C7 N6 1.373 1_556 S
C7 H28 0.931 . S
H8 C3 0.931 . S
H9 C4 0.930 . S
C10 O17 1.259 1_545 S
C10 O18 1.258 1_455 S
N11 Co2 2.057 . S
N11 C12 1.316 . S
N11 C13 1.375 . S
C12 N11 1.316 . S
C12 N14 1.347 . S
C12 H23 0.931 1_554 S
C13 N11 1.375 . S
C13 C15 1.350 . S
C13 H22 0.930 . S
N14 C12 1.347 . S
N14 C15 1.373 . S
C15 C13 1.350 . S
C15 N14 1.373 . S
C15 H29 0.931 . S
C16 O19 1.256 . S
C16 O20 1.255 . S
O17 Co0 2.021 . S
O17 C10 1.259 1_565 S
O18 Co2 2.117 . S
O18 C10 1.258 1_655 S
O19 Co2 2.020 1_565 S
O19 C16 1.256 . S
O20 Co0 2.062 1_655 S
O20 C16 1.255 . S
O21 C1 1.259 1_655 S
O21 Co2 2.021 1_556 S
H22 C13 0.930 . S
H23 C12 0.931 1_556 S
O24 Co0 2.117 1_556 S
O24 C1 1.258 1_565 S
O25 Co0 2.020 1_545 S
O25 C27 1.256 . S
O26 Co2 2.062 1_455 S
O26 C27 1.255 . S
C27 O25 1.256 . S
C27 O26 1.255 . S
H28 C7 0.931 . S
H29 C15 0.931 . S
Co30 N35 2.057 . S
Co30 O47 2.021 . S
Co30 O50 2.062 . S
Co30 O54 2.117 . S
Co30 O55 2.020 . S
C31 O51 1.259 . S
C31 O54 1.258 . S
Co32 N41 2.057 . S
Co32 O48 2.117 . S
Co32 O49 2.020 . S
Co32 O51 2.021 . S
Co32 O56 2.062 . S
C33 N35 1.316 . S
C33 N36 1.347 . S
C33 H38 0.931 . S
C34 N35 1.375 . S
C34 C37 1.350 . S
C34 H39 0.930 . S
N35 Co30 2.057 . S
N35 C33 1.316 . S
N35 C34 1.375 . S
N36 C33 1.347 . S
N36 C37 1.373 . S
C37 C34 1.350 . S
C37 N36 1.373 . S
C37 H58 0.931 . S
H38 C33 0.931 . S
H39 C34 0.930 . S
C40 O47 1.259 . S
C40 O48 1.258 . S
N41 Co32 2.057 . S
N41 C42 1.316 . S
N41 C43 1.375 . S
C42 N41 1.316 . S
C42 N44 1.347 . S
C42 H53 0.931 . S
C43 N41 1.375 . S
C43 C45 1.350 . S
C43 H52 0.930 . S
N44 C42 1.347 . S
N44 C45 1.373 . S
C45 C43 1.350 . S
C45 N44 1.373 . S
C45 H59 0.931 . S
C46 O49 1.256 . S
C46 O50 1.255 . S
O47 Co30 2.021 . S
O47 C40 1.259 . S
O48 Co32 2.117 . S
O48 C40 1.258 . S
O49 Co32 2.020 . S
O49 C46 1.256 . S
O50 Co30 2.062 . S
O50 C46 1.255 . S
O51 C31 1.259 . S
O51 Co32 2.021 . S
H52 C43 0.930 . S
H53 C42 0.931 . S
O54 Co30 2.117 . S
O54 C31 1.258 . S
O55 Co30 2.020 . S
O55 C57 1.256 . S
O56 Co32 2.062 . S
O56 C57 1.255 . S
C57 O55 1.256 . S
C57 O56 1.255 . S
H58 C37 0.931 . S
H59 C45 0.931 . S
C60 C61 1.386 1_665 S
C60 C62 1.397 . S
C60 H84 0.931 . S
C61 C60 1.386 1_445 S
C61 C65 1.397 . S
C62 C60 1.397 . S
C62 C63 1.384 1_665 S
C62 H85 0.930 . S
C63 C62 1.384 1_445 S
C63 C64 1.377 . S
C63 C66 1.481 . S
C64 C63 1.377 . S
C64 C65 1.389 . S
C64 H86 0.929 . S
C65 C61 1.397 . S
C65 C64 1.389 . S
C65 H87 0.931 . S
C66 C63 1.481 . S
C66 C67 1.387 1_545 S
C66 C71 1.390 1_455 S
C67 C66 1.387 1_565 S
C67 C68 1.401 . S
C67 H88 0.930 . S
C68 C67 1.401 . S
C68 C69 1.376 1_465 S
C68 C77 1.511 . S
C69 C68 1.376 1_645 S
C69 C70 1.392 . S
C69 H90 0.931 . S
C70 C69 1.392 . S
C70 C71 1.361 . S
C70 C72 1.500 . S
C71 C66 1.390 1_655 S
C71 C70 1.361 . S
C71 H89 0.931 . S
C72 C70 1.500 . S
C72 C73 1.371 . S
C72 C74 1.365 . S
C73 C72 1.371 . S
C73 C83 1.386 . S
C73 H91 0.931 . S
C74 C72 1.365 . S
C74 C75 1.409 . S
C74 H92 0.929 . S
C75 C74 1.409 . S
C75 C76 1.380 . S
C75 H93 0.930 . S
C76 C75 1.380 . S
C76 C83 1.357 . S
C77 C68 1.511 . S
C77 C78 1.341 . S
C77 C79 1.371 . S
C78 C77 1.341 . S
C78 C82 1.394 . S
C78 H94 0.930 . S
C79 C77 1.371 . S
C79 C80 1.392 . S
C79 H95 0.931 . S
C80 C79 1.392 . S
C80 C81 1.331 . S
C80 H98 0.932 . S
C81 C80 1.331 . S
C81 C82 1.336 . S
C82 C78 1.394 . S
C82 C81 1.336 . S
C82 H97 0.929 . S
C83 C73 1.386 . S
C83 C76 1.357 . S
C83 H96 0.928 . S
H84 C60 0.931 . S
H85 C62 0.930 . S
H86 C64 0.929 . S
H87 C65 0.931 . S
H88 C67 0.930 . S
H89 C71 0.931 . S
H90 C69 0.931 . S
H91 C73 0.931 . S
H92 C74 0.929 . S
H93 C75 0.930 . S
H94 C78 0.930 . S
H95 C79 0.931 . S
H96 C83 0.928 . S
H97 C82 0.929 . S
H98 C80 0.932 . S
C99 C100 1.386 . S
C99 C101 1.397 . S
C99 H123 0.931 . S
C100 C99 1.386 . S
C100 C104 1.397 1_545 S
C101 C99 1.397 . S
C101 C102 1.384 . S
C101 H124 0.930 . S
C102 C101 1.384 . S
C102 C103 1.377 1_545 S
C102 C105 1.481 . S
C103 C102 1.377 1_565 S
C103 C104 1.389 . S
C103 H125 0.929 . S
C104 C100 1.397 1_565 S
C104 C103 1.389 . S
C104 H126 0.931 . S
C105 C102 1.481 . S
C105 C106 1.387 . S
C105 C110 1.390 1_445 S
C106 C105 1.387 . S
C106 C107 1.401 . S
C106 H127 0.930 . S
C107 C106 1.401 . S
C107 C108 1.376 . S
C107 C116 1.511 . S
C108 C107 1.376 . S
C108 C109 1.392 1_445 S
C108 H129 0.931 1_455 S
C109 C108 1.392 1_665 S
C109 C110 1.361 . S
C109 C111 1.500 . S
C110 C105 1.390 1_665 S
C110 C109 1.361 . S
C110 H128 0.931 . S
C111 C109 1.500 . S
C111 C112 1.371 . S
C111 C113 1.365 . S
C112 C111 1.371 . S
C112 C122 1.386 . S
C112 H130 0.931 . S
C113 C111 1.365 . S
C113 C114 1.409 . S
C113 H131 0.929 . S
C114 C113 1.409 . S
C114 C115 1.380 . S
C114 H132 0.930 . S
C115 C114 1.380 . S
C115 C122 1.357 . S
C116 C107 1.511 . S
C116 C117 1.341 . S
C116 C118 1.371 . S
C117 C116 1.341 . S
C117 C121 1.394 . S
C117 H133 0.930 . S
C118 C116 1.371 . S
C118 C119 1.392 . S
C118 H134 0.931 . S
C119 C118 1.392 . S
C119 C120 1.331 . S
C119 H137 0.932 . S
C120 C119 1.331 . S
C120 C121 1.336 . S
C121 C117 1.394 . S
C121 C120 1.336 . S
C121 H136 0.929 . S
C122 C112 1.386 . S
C122 C115 1.357 . S
C122 H135 0.928 . S
H123 C99 0.931 . S
H124 C101 0.930 . S
H125 C103 0.929 . S
H126 C104 0.931 . S
H127 C106 0.930 . S
H128 C110 0.931 . S
H129 C108 0.931 1_655 S
H130 C112 0.931 . S
H131 C113 0.929 . S
H132 C114 0.930 . S
H133 C117 0.930 . S
H134 C118 0.931 . S
H135 C122 0.928 . S
H136 C121 0.929 . S
H137 C119 0.932 . S
C138 C139 1.386 . S
C138 C140 1.397 . S
C138 H162 0.931 . S
C139 C138 1.386 . S
C139 C143 1.397 . S
C140 C138 1.397 . S
C140 C141 1.384 . S
C140 H163 0.930 . S
C141 C140 1.384 . S
C141 C142 1.377 . S
C141 C144 1.481 . S
C142 C141 1.377 . S
C142 C143 1.389 . S
C142 H164 0.929 . S
C143 C139 1.397 . S
C143 C142 1.389 . S
C143 H165 0.931 . S
C144 C141 1.481 . S
C144 C145 1.387 . S
C144 C149 1.390 . S
C145 C144 1.387 . S
C145 C146 1.401 . S
C145 H166 0.930 . S
C146 C145 1.401 . S
C146 C147 1.376 . S
C146 C155 1.511 . S
C147 C146 1.376 . S
C147 C148 1.392 . S
C147 H168 0.931 . S
C148 C147 1.392 . S
C148 C149 1.361 . S
C148 C150 1.500 . S
C149 C144 1.390 . S
C149 C148 1.361 . S
C149 H167 0.931 . S
C150 C148 1.500 . S
C150 C151 1.371 . S
C150 C152 1.365 . S
C151 C150 1.371 . S
C151 C161 1.383 1_556 S
C151 H169 0.931 . S
C152 C150 1.365 . S
C152 C153 1.409 . S
C152 H170 0.929 . S
C153 C152 1.409 . S
C153 C154 1.380 . S
C153 H171 0.930 . S
C154 C153 1.380 . S
C154 C161 1.354 1_556 S
C155 C146 1.511 . S
C155 C156 1.341 . S
C155 C157 1.371 . S
C156 C155 1.341 . S
C156 C160 1.394 . S
C156 H172 0.930 . S
C157 C155 1.371 . S
C157 C158 1.392 1_556 S
C157 H173 0.931 . S
C158 C157 1.392 1_554 S
C158 C159 1.331 1_554 S
C158 H176 0.932 . S
C159 C158 1.331 1_556 S
C159 C160 1.336 . S
C160 C156 1.394 . S
C160 C159 1.336 . S
C160 H175 0.929 . S
C161 C151 1.383 1_554 S
C161 C154 1.354 1_554 S
C161 H174 0.935 . S
H162 C138 0.931 . S
H163 C140 0.930 . S
H164 C142 0.929 . S
H165 C143 0.931 . S
H166 C145 0.930 . S
H167 C149 0.931 . S
H168 C147 0.931 . S
H169 C151 0.931 . S
H170 C152 0.929 . S
H171 C153 0.930 . S
H172 C156 0.930 . S
H173 C157 0.931 . S
H174 C161 0.935 . S
H175 C160 0.929 . S
H176 C158 0.932 . S
C177 C178 1.386 . S
C177 C179 1.397 . S
C177 H201 0.931 . S
C178 C177 1.386 . S
C178 C182 1.397 . S
C179 C177 1.397 . S
C179 C180 1.384 . S
C179 H202 0.930 . S
C180 C179 1.384 . S
C180 C181 1.377 . S
C180 C183 1.481 . S
C181 C180 1.377 . S
C181 C182 1.389 . S
C181 H203 0.929 . S
C182 C178 1.397 . S
C182 C181 1.389 . S
C182 H204 0.931 . S
C183 C180 1.481 . S
C183 C184 1.387 . S
C183 C188 1.390 . S
C184 C183 1.387 . S
C184 C185 1.401 . S
C184 H205 0.930 . S
C185 C184 1.401 . S
C185 C186 1.376 . S
C185 C194 1.511 . S
C186 C185 1.376 . S
C186 C187 1.392 . S
C186 H207 0.931 . S
C187 C186 1.392 . S
C187 C188 1.361 . S
C187 C189 1.500 . S
C188 C183 1.390 . S
C188 C187 1.361 . S
C188 H206 0.931 . S
C189 C187 1.500 . S
C189 C190 1.371 . S
C189 C191 1.365 . S
C190 C189 1.371 . S
C190 C200 1.386 . S
C190 H208 0.931 . S
C191 C189 1.365 . S
C191 C192 1.409 . S
C191 H209 0.929 . S
C192 C191 1.409 . S
C192 C193 1.380 . S
C192 H210 0.930 . S
C193 C192 1.380 . S
C193 C200 1.357 . S
C194 C185 1.511 . S
C194 C195 1.341 . S
C194 C196 1.371 . S
C195 C194 1.341 . S
C195 C199 1.394 . S
C195 H211 0.930 . S
C196 C194 1.371 . S
C196 C197 1.392 . S
C196 H212 0.931 . S
C197 C196 1.392 . S
C197 C198 1.331 . S
C197 H215 0.932 . S
C198 C197 1.331 . S
C198 C199 1.336 . S
C199 C195 1.394 . S
C199 C198 1.336 . S
C199 H214 0.929 . S
C200 C190 1.386 . S
C200 C193 1.357 . S
C200 H213 0.928 . S
H201 C177 0.931 . S
H202 C179 0.930 . S
H203 C181 0.929 . S
H204 C182 0.931 . S
H205 C184 0.930 . S
H206 C188 0.931 . S
H207 C186 0.931 . S
H208 C190 0.931 . S
H209 C191 0.929 . S
H210 C192 0.930 . S
H211 C195 0.930 . S
H212 C196 0.931 . S
H213 C200 0.928 . S
H214 C199 0.929 . S
H215 C197 0.932 . S
H216 C217 0.951 . S
C217 H216 0.951 . S
C217 C223 1.265 . S
H218 C223 0.950 . S
H219 C227 0.949 . S
H220 C228 0.950 . S
H221 C229 0.951 . S
H222 C230 0.951 . S
C223 C217 1.265 . S
C223 H218 0.950 . S
C223 C224 1.478 . S
C224 C223 1.478 . S
C224 C225 1.397 1_554 S
C224 C241 1.394 . S
C225 C224 1.397 1_556 S
C225 C226 1.439 . S
C225 C230 1.429 . S
C226 C225 1.439 . S
C226 C227 1.438 . S
C226 C239 1.383 1_556 S
C227 H219 0.949 . S
C227 C226 1.438 . S
C227 C228 1.345 . S
C228 H220 0.950 . S
C228 C227 1.345 . S
C228 C229 1.424 . S
C229 H221 0.951 . S
C229 C228 1.424 . S
C229 C230 1.347 . S
C230 H222 0.951 . S
C230 C225 1.429 . S
C230 C229 1.347 . S
H231 C232 0.951 . S
C232 H231 0.951 . S
C232 C238 1.265 . S
H233 C238 0.950 . S
H234 C242 0.949 . S
H235 C243 0.950 . S
H236 C244 0.951 . S
H237 C245 0.951 . S
C238 C232 1.265 . S
C238 H233 0.950 . S
C238 C239 1.478 . S
C239 C226 1.383 1_554 S
C239 C238 1.478 . S
C239 C240 1.397 . S
C240 C239 1.397 . S
C240 C241 1.438 . S
C240 C245 1.429 . S
C241 C224 1.394 . S
C241 C240 1.438 . S
C241 C242 1.428 . S
C242 H234 0.949 . S
C242 C241 1.428 . S
C242 C243 1.345 . S
C243 H235 0.950 . S
C243 C242 1.345 . S
C243 C244 1.424 . S
C244 H236 0.951 . S
C244 C243 1.424 . S
C244 C245 1.347 . S
C245 H237 0.951 . S
C245 C240 1.429 . S
C245 C244 1.347 . S
H246 C247 0.951 . S
C247 H246 0.951 . S
C247 C253 1.265 . S
H248 C253 0.950 . S
H249 C257 0.949 . S
H250 C258 0.950 . S
H251 C259 0.951 . S
H252 C260 0.951 . S
C253 C247 1.265 . S
C253 H248 0.950 . S
C253 C254 1.478 . S
C254 C253 1.478 . S
C254 C255 1.397 1_554 S
C254 C271 1.394 . S
C255 C254 1.397 1_556 S
C255 C256 1.438 . S
C255 C260 1.429 . S
C256 C255 1.438 . S
C256 C257 1.428 . S
C256 C269 1.394 1_556 S
C257 H249 0.949 . S
C257 C256 1.428 . S
C257 C258 1.345 . S
C258 H250 0.950 . S
C258 C257 1.345 . S
C258 C259 1.424 . S
C259 H251 0.951 . S
C259 C258 1.424 . S
C259 C260 1.347 . S
C260 H252 0.951 . S
C260 C255 1.429 . S
C260 C259 1.347 . S
H261 C262 0.951 . S
C262 H261 0.951 . S
C262 C268 1.265 1_556 S
H263 C268 0.950 . S
H264 C272 0.949 . S
H265 C273 0.950 . S
H266 C274 0.951 . S
H267 C275 0.951 . S
C268 C262 1.265 1_554 S
C268 H263 0.950 . S
C268 C269 1.478 . S
C269 C256 1.394 1_554 S
C269 C268 1.478 . S
C269 C270 1.397 . S
C270 C269 1.397 . S
C270 C271 1.438 . S
C270 C275 1.429 . S
C271 C254 1.394 . S
C271 C270 1.438 . S
C271 C272 1.428 . S
C272 H264 0.949 . S
C272 C271 1.428 . S
C272 C273 1.345 . S
C273 H265 0.950 . S
C273 C272 1.345 . S
C273 C274 1.424 . S
C274 H266 0.951 . S
C274 C273 1.424 . S
C274 C275 1.347 . S
C275 H267 0.951 . S
C275 C270 1.429 . S
C275 C274 1.347 . S
H276 C277 0.951 . S
C277 H276 0.951 . S
C277 C283 1.265 . S
H278 C283 0.950 . S
H279 C287 0.949 . S
H280 C288 0.950 . S
H281 C289 0.951 . S
H282 C290 0.951 . S
C283 C277 1.265 . S
C283 H278 0.950 . S
C283 C284 1.478 . S
C284 C283 1.478 . S
C284 C285 1.397 . S
C284 C301 1.394 1_554 S
C285 C284 1.397 . S
C285 C286 1.438 . S
C285 C290 1.429 . S
C286 C285 1.438 . S
C286 C287 1.428 . S
C286 C299 1.394 . S
C287 H279 0.949 . S
C287 C286 1.428 . S
C287 C288 1.345 . S
C288 H280 0.950 . S
C288 C287 1.345 . S
C288 C289 1.424 . S
C289 H281 0.951 . S
C289 C288 1.424 . S
C289 C290 1.347 . S
C290 H282 0.951 . S
C290 C285 1.429 . S
C290 C289 1.347 . S
H291 C292 0.951 . S
C292 H291 0.951 . S
C292 C298 1.265 . S
H293 C298 0.950 . S
H294 C302 0.949 . S
H295 C303 0.950 . S
H296 C304 0.951 . S
H297 C305 0.951 . S
C298 C292 1.265 . S
C298 H293 0.950 . S
C298 C299 1.478 . S
C299 C286 1.394 . S
C299 C298 1.478 . S
C299 C300 1.397 1_554 S
C300 C299 1.397 1_556 S
C300 C301 1.438 . S
C300 C305 1.429 . S
C301 C284 1.394 1_556 S
C301 C300 1.438 . S
C301 C302 1.428 . S
C302 H294 0.949 . S
C302 C301 1.428 . S
C302 C303 1.345 . S
C303 H295 0.950 . S
C303 C302 1.345 . S
C303 C304 1.424 . S
C304 H296 0.951 . S
C304 C303 1.424 . S
C304 C305 1.347 . S
C305 H297 0.951 . S
C305 C300 1.429 . S
C305 C304 1.347 . S
H306 C307 0.951 . S
C307 H306 0.951 . S
C307 C313 1.265 1_554 S
H308 C313 0.950 . S
H309 C317 0.949 . S
H310 C318 0.950 . S
H311 C319 0.951 . S
H312 C320 0.951 . S
C313 C307 1.265 1_556 S
C313 H308 0.950 . S
C313 C314 1.478 1_556 S
C314 C313 1.478 1_554 S
C314 C315 1.397 1_554 S
C314 C331 1.394 . S
C315 C314 1.397 1_556 S
C315 C316 1.438 . S
C315 C320 1.429 . S
C316 C315 1.438 . S
C316 C317 1.428 . S
C316 C329 1.394 1_556 S
C317 H309 0.949 . S
C317 C316 1.428 . S
C317 C318 1.345 . S
C318 H310 0.950 . S
C318 C317 1.345 . S
C318 C319 1.424 . S
C319 H311 0.951 . S
C319 C318 1.424 . S
C319 C320 1.347 . S
C320 H312 0.951 . S
C320 C315 1.429 . S
C320 C319 1.347 . S
H321 C322 0.951 . S
C322 H321 0.951 . S
C322 C328 1.265 1_556 S
H323 C328 0.950 . S
H324 C332 0.949 . S
H325 C333 0.950 . S
H326 C334 0.951 . S
H327 C335 0.951 . S
C328 C322 1.265 1_554 S
C328 H323 0.950 . S
C328 C329 1.478 . S
C329 C316 1.394 1_554 S
C329 C328 1.478 . S
C329 C330 1.397 . S
C330 C329 1.397 . S
C330 C331 1.438 . S
C330 C335 1.429 . S
C331 C314 1.394 . S
C331 C330 1.438 . S
C331 C332 1.428 . S
C332 H324 0.949 . S
C332 C331 1.428 . S
C332 C333 1.345 . S
C333 H325 0.950 . S
C333 C332 1.345 . S
C333 C334 1.424 . S
C334 H326 0.951 . S
C334 C333 1.424 . S
C334 C335 1.347 . S
C335 H327 0.951 . S
C335 C330 1.429 . S
C335 C334 1.347 . S
H336 C337 0.951 . S
C337 H336 0.951 . S
C337 C343 1.265 . S
H338 C343 0.950 . S
H339 C347 0.949 . S
H340 C348 0.950 . S
H341 C349 0.951 . S
H342 C350 0.951 . S
C343 C337 1.265 . S
C343 H338 0.950 . S
C343 C344 1.478 . S
C344 C343 1.478 . S
C344 C345 1.397 . S
C344 C361 1.394 . S
C345 C344 1.397 . S
C345 C346 1.438 . S
C345 C350 1.429 . S
C346 C345 1.438 . S
C346 C347 1.428 . S
C346 C359 1.394 . S
C347 H339 0.949 . S
C347 C346 1.428 . S
C347 C348 1.345 . S
C348 H340 0.950 . S
C348 C347 1.345 . S
C348 C349 1.424 . S
C349 H341 0.951 . S
C349 C348 1.424 . S
C349 C350 1.347 . S
C350 H342 0.951 . S
C350 C345 1.429 . S
C350 C349 1.347 . S
H351 C352 0.951 . S
C352 H351 0.951 . S
C352 C358 1.265 . S
H353 C358 0.950 . S
H354 C362 0.949 . S
H355 C363 0.950 . S
H356 C364 0.951 . S
H357 C365 0.951 . S
C358 C352 1.265 . S
C358 H353 0.950 . S
C358 C359 1.478 . S
C359 C346 1.394 . S
C359 C358 1.478 . S
C359 C360 1.397 . S
C360 C359 1.397 . S
C360 C361 1.438 . S
C360 C365 1.429 . S
C361 C344 1.394 . S
C361 C360 1.438 . S
C361 C362 1.428 . S
C362 H354 0.949 . S
C362 C361 1.428 . S
C362 C363 1.345 . S
C363 H355 0.950 . S
C363 C362 1.345 . S
C363 C364 1.424 . S
C364 H356 0.951 . S
C364 C363 1.424 . S
C364 C365 1.347 . S
C365 H357 0.951 . S
C365 C360 1.429 . S
C365 C364 1.347 . S
H366 C367 0.951 . S
C367 H366 0.951 . S
C367 C373 1.265 . S
H368 C373 0.950 . S
H369 C377 0.949 . S
H370 C378 0.950 . S
H371 C379 0.951 . S
H372 C380 0.951 . S
C373 C367 1.265 . S
C373 H368 0.950 . S
C373 C374 1.478 . S
C374 C373 1.478 . S
C374 C375 1.397 . S
C374 C391 1.394 . S
C375 C374 1.397 . S
C375 C376 1.438 . S
C375 C380 1.429 . S
C376 C375 1.438 . S
C376 C377 1.428 . S
C376 C389 1.394 . S
C377 H369 0.949 . S
C377 C376 1.428 . S
C377 C378 1.345 . S
C378 H370 0.950 . S
C378 C377 1.345 . S
C378 C379 1.424 . S
C379 H371 0.951 . S
C379 C378 1.424 . S
C379 C380 1.347 . S
C380 H372 0.951 . S
C380 C375 1.429 . S
C380 C379 1.347 . S
H381 C382 0.951 . S
C382 H381 0.951 . S
C382 C388 1.265 . S
H383 C388 0.950 . S
H384 C392 0.949 . S
H385 C393 0.950 . S
H386 C394 0.951 . S
H387 C395 0.951 . S
C388 C382 1.265 . S
C388 H383 0.950 . S
C388 C389 1.478 . S
C389 C376 1.394 . S
C389 C388 1.478 . S
C389 C390 1.397 . S
C390 C389 1.397 . S
C390 C391 1.438 . S
C390 C395 1.429 . S
C391 C374 1.394 . S
C391 C390 1.438 . S
C391 C392 1.428 . S
C392 H384 0.949 . S
C392 C391 1.428 . S
C392 C393 1.345 . S
C393 H385 0.950 . S
C393 C392 1.345 . S
C393 C394 1.424 . S
C394 H386 0.951 . S
C394 C393 1.424 . S
C394 C395 1.347 . S
C395 H387 0.951 . S
C395 C390 1.429 . S
C395 C394 1.347 . S
H396 C397 0.951 . S
C397 H396 0.951 . S
C397 C403 1.265 . S
H398 C403 0.950 . S
H399 C407 0.949 . S
H400 C408 0.950 . S
H401 C409 0.951 . S
H402 C410 0.951 . S
C403 C397 1.265 . S
C403 H398 0.950 . S
C403 C404 1.478 . S
C404 C403 1.478 . S
C404 C405 1.397 . S
C404 C421 1.394 . S
C405 C404 1.397 . S
C405 C406 1.438 . S
C405 C410 1.429 . S
C406 C405 1.438 . S
C406 C407 1.428 . S
C406 C419 1.394 . S
C407 H399 0.949 . S
C407 C406 1.428 . S
C407 C408 1.345 . S
C408 H400 0.950 . S
C408 C407 1.345 . S
C408 C409 1.424 . S
C409 H401 0.951 . S
C409 C408 1.424 . S
C409 C410 1.347 . S
C410 H402 0.951 . S
C410 C405 1.429 . S
C410 C409 1.347 . S
H411 C412 0.951 . S
C412 H411 0.951 . S
C412 C418 1.265 . S
H413 C418 0.950 . S
H414 C422 0.949 . S
H415 C423 0.950 . S
H416 C424 0.951 . S
H417 C425 0.951 . S
C418 C412 1.265 . S
C418 H413 0.950 . S
C418 C419 1.478 . S
C419 C406 1.394 . S
C419 C418 1.478 . S
C419 C420 1.397 . S
C420 C419 1.397 . S
C420 C421 1.438 . S
C420 C425 1.429 . S
C421 C404 1.394 . S
C421 C420 1.438 . S
C421 C422 1.428 . S
C422 H414 0.949 . S
C422 C421 1.428 . S
C422 C423 1.345 . S
C423 H415 0.950 . S
C423 C422 1.345 . S
C423 C424 1.424 . S
C424 H416 0.951 . S
C424 C423 1.424 . S
C424 C425 1.347 . S
C425 H417 0.951 . S
C425 C420 1.429 . S
C425 C424 1.347 . S
H426 C427 0.951 . S
C427 H426 0.951 . S
C427 C433 1.265 . S
H428 C433 0.950 . S
H429 C437 0.949 . S
H430 C438 0.950 . S
H431 C439 0.951 . S
H432 C440 0.951 . S
C433 C427 1.265 . S
C433 H428 0.950 . S
C433 C434 1.478 . S
C434 C433 1.478 . S
C434 C435 1.397 . S
C434 C451 1.394 . S
C435 C434 1.397 . S
C435 C436 1.438 . S
C435 C440 1.429 . S
C436 C435 1.438 . S
C436 C437 1.428 . S
C436 C449 1.394 . S
C437 H429 0.949 . S
C437 C436 1.428 . S
C437 C438 1.345 . S
C438 H430 0.950 . S
C438 C437 1.345 . S
C438 C439 1.424 . S
C439 H431 0.951 . S
C439 C438 1.424 . S
C439 C440 1.347 . S
C440 H432 0.951 . S
C440 C435 1.429 . S
C440 C439 1.347 . S
H441 C442 0.951 . S
C442 H441 0.951 . S
C442 C448 1.265 . S
H443 C448 0.950 . S
H444 C452 0.949 . S
H445 C453 0.950 . S
H446 C454 0.951 . S
H447 C455 0.951 . S
C448 C442 1.265 . S
C448 H443 0.950 . S
C448 C449 1.478 . S
C449 C436 1.394 . S
C449 C448 1.478 . S
C449 C450 1.397 . S
C450 C449 1.397 . S
C450 C451 1.438 . S
C450 C455 1.429 . S
C451 C434 1.394 . S
C451 C450 1.438 . S
C451 C452 1.428 . S
C452 H444 0.949 . S
C452 C451 1.428 . S
C452 C453 1.345 . S
C453 H445 0.950 . S
C453 C452 1.345 . S
C453 C454 1.424 . S
C454 H446 0.951 . S
C454 C453 1.424 . S
C454 C455 1.347 . S
C455 H447 0.951 . S
C455 C450 1.429 . S
C455 C454 1.347 . S
H456 C457 0.951 . S
C457 H456 0.951 . S
C457 C463 1.265 1_455 S
H458 C463 0.950 1_565 S
H459 C467 0.949 . S
H460 C468 0.950 . S
H461 C469 0.951 . S
H462 C470 0.951 . S
C463 C457 1.265 1_655 S
C463 H458 0.950 1_545 S
C463 C464 1.478 . S
C464 C463 1.478 . S
C464 C465 1.397 1_545 S
C464 C481 1.394 1_655 S
C465 C464 1.397 1_565 S
C465 C466 1.438 . S
C465 C470 1.429 . S
C466 C465 1.438 . S
C466 C467 1.428 . S
C466 C479 1.394 1_665 S
C467 H459 0.949 . S
C467 C466 1.428 . S
C467 C468 1.345 . S
C468 H460 0.950 . S
C468 C467 1.345 . S
C468 C469 1.424 . S
C469 H461 0.951 . S
C469 C468 1.424 . S
C469 C470 1.347 . S
C470 H462 0.951 . S
C470 C465 1.429 . S
C470 C469 1.347 . S
H471 C472 0.951 1_565 S
C472 H471 0.951 1_545 S
C472 C478 1.265 1_655 S
H473 C478 0.950 . S
H474 C482 0.949 . S
H475 C483 0.950 . S
H476 C484 0.951 . S
H477 C485 0.951 . S
C478 C472 1.265 1_455 S
C478 H473 0.950 . S
C478 C479 1.478 . S
C479 C466 1.394 1_445 S
C479 C478 1.478 . S
C479 C480 1.397 . S
C480 C479 1.397 . S
C480 C481 1.438 . S
C480 C485 1.429 . S
C481 C464 1.394 1_455 S
C481 C480 1.438 . S
C481 C482 1.428 . S
C482 H474 0.949 . S
C482 C481 1.428 . S
C482 C483 1.345 . S
C483 H475 0.950 . S
C483 C482 1.345 . S
C483 C484 1.424 . S
C484 H476 0.951 . S
C484 C483 1.424 . S
C484 C485 1.347 . S
C485 H477 0.951 . S
C485 C480 1.429 . S
C485 C484 1.347 . S
H486 C487 0.951 . S
C487 H486 0.951 . S
C487 C493 1.265 1_455 S
H488 C493 0.950 . S
H489 C497 0.949 . S
H490 C498 0.950 . S
H491 C499 0.951 . S
H492 C500 0.951 . S
C493 C487 1.265 1_655 S
C493 H488 0.950 . S
C493 C494 1.478 . S
C494 C493 1.478 . S
C494 C495 1.397 . S
C494 C511 1.394 1_645 S
C495 C494 1.397 . S
C495 C496 1.438 . S
C495 C500 1.429 . S
C496 C495 1.438 . S
C496 C497 1.428 . S
C496 C509 1.394 1_655 S
C497 H489 0.949 . S
C497 C496 1.428 . S
C497 C498 1.345 . S
C498 H490 0.950 . S
C498 C497 1.345 . S
C498 C499 1.424 . S
C499 H491 0.951 . S
C499 C498 1.424 . S
C499 C500 1.347 . S
C500 H492 0.951 . S
C500 C495 1.429 . S
C500 C499 1.347 . S
H501 C502 0.951 . S
C502 H501 0.951 . S
C502 C508 1.265 1_655 S
H503 C508 0.950 . S
H504 C512 0.949 . S
H505 C513 0.950 . S
H506 C514 0.951 . S
H507 C515 0.951 . S
C508 C502 1.265 1_455 S
C508 H503 0.950 . S
C508 C509 1.478 . S
C509 C496 1.394 1_455 S
C509 C508 1.478 . S
C509 C510 1.397 1_545 S
C510 C509 1.397 1_565 S
C510 C511 1.438 . S
C510 C515 1.429 . S
C511 C494 1.394 1_465 S
C511 C510 1.438 . S
C511 C512 1.428 . S
C512 H504 0.949 . S
C512 C511 1.428 . S
C512 C513 1.345 . S
C513 H505 0.950 . S
C513 C512 1.345 . S
C513 C514 1.424 . S
C514 H506 0.951 . S
C514 C513 1.424 . S
C514 C515 1.347 . S
C515 H507 0.951 . S
C515 C510 1.429 . S
C515 C514 1.347 . S
H516 C517 0.951 . S
C517 H516 0.951 . S
C517 C523 1.265 . S
H518 C523 0.950 . S
H519 C527 0.949 . S
H520 C528 0.950 . S
H521 C529 0.951 . S
H522 C530 0.951 . S
C523 C517 1.265 . S
C523 H518 0.950 . S
C523 C524 1.478 . S
C524 C523 1.478 . S
C524 C525 1.397 . S
C524 C541 1.394 . S
C525 C524 1.397 . S
C525 C526 1.438 . S
C525 C530 1.429 . S
C526 C525 1.438 . S
C526 C527 1.428 . S
C526 C539 1.394 . S
C527 H519 0.949 . S
C527 C526 1.428 . S
C527 C528 1.345 . S
C528 H520 0.950 . S
C528 C527 1.345 . S
C528 C529 1.424 . S
C529 H521 0.951 . S
C529 C528 1.424 . S
C529 C530 1.347 . S
C530 H522 0.951 . S
C530 C525 1.429 . S
C530 C529 1.347 . S
H531 C532 0.951 . S
C532 H531 0.951 . S
C532 C538 1.265 . S
H533 C538 0.950 . S
H534 C542 0.949 . S
H535 C543 0.950 . S
H536 C544 0.951 . S
H537 C545 0.951 . S
C538 C532 1.265 . S
C538 H533 0.950 . S
C538 C539 1.478 . S
C539 C526 1.394 . S
C539 C538 1.478 . S
C539 C540 1.397 . S
C540 C539 1.397 . S
C540 C541 1.438 . S
C540 C545 1.429 . S
C541 C524 1.394 . S
C541 C540 1.438 . S
C541 C542 1.428 . S
C542 H534 0.949 . S
C542 C541 1.428 . S
C542 C543 1.345 . S
C543 H535 0.950 . S
C543 C542 1.345 . S
C543 C544 1.424 . S
C544 H536 0.951 . S
C544 C543 1.424 . S
C544 C545 1.347 . S
C545 H537 0.951 . S
C545 C540 1.429 . S
C545 C544 1.347 . S
H546 C547 0.951 . S
C547 H546 0.951 . S
C547 C553 1.265 . S
H548 C553 0.950 . S
H549 C557 0.949 . S
H550 C558 0.950 . S
H551 C559 0.951 . S
H552 C560 0.951 . S
C553 C547 1.265 . S
C553 H548 0.950 . S
C553 C554 1.478 . S
C554 C553 1.478 . S
C554 C555 1.397 . S
C554 C571 1.394 . S
C555 C554 1.397 . S
C555 C556 1.438 . S
C555 C560 1.429 . S
C556 C555 1.438 . S
C556 C557 1.428 . S
C556 C569 1.394 . S
C557 H549 0.949 . S
C557 C556 1.428 . S
C557 C558 1.345 . S
C558 H550 0.950 . S
C558 C557 1.345 . S
C558 C559 1.424 . S
C559 H551 0.951 . S
C559 C558 1.424 . S
C559 C560 1.347 . S
C560 H552 0.951 . S
C560 C555 1.429 . S
C560 C559 1.347 . S
H561 C562 0.951 . S
C562 H561 0.951 . S
C562 C568 1.265 . S
H563 C568 0.950 . S
H564 C572 0.949 . S
H565 C573 0.950 . S
H566 C574 0.951 . S
H567 C575 0.951 . S
C568 C562 1.265 . S
C568 H563 0.950 . S
C568 C569 1.478 . S
C569 C556 1.394 . S
C569 C568 1.478 . S
C569 C570 1.397 . S
C570 C569 1.397 . S
C570 C571 1.438 . S
C570 C575 1.429 . S
C571 C554 1.394 . S
C571 C570 1.438 . S
C571 C572 1.428 . S
C572 H564 0.949 . S
C572 C571 1.428 . S
C572 C573 1.345 . S
C573 H565 0.950 . S
C573 C572 1.345 . S
C573 C574 1.424 . S
C574 H566 0.951 . S
C574 C573 1.424 . S
C574 C575 1.347 . S
C575 H567 0.951 . S
C575 C570 1.429 . S
C575 C574 1.347 . S
C232 C193 1.434 . S
C217 C27 1.470 . S
C247 N6 1.361 . S
C262 C154 1.395 . S
C277 C16 1.456 . S
C292 C198 1.416 . S
C307 N14 1.362 . S
C322 C159 1.351 . S
C337 C57 1.471 . S
C352 C115 1.431 . S
C367 N36 1.367 . S
C382 C76 1.390 . S
C412 C120 1.432 . S
C397 C46 1.455 . S
C442 C81 1.421 . S
C427 N44 1.416 . S
C457 C10 1.368 . S
C472 C61 1.383 1_655 S
C487 C1 1.531 . S
C502 C100 1.523 1_655 S
C532 C139 1.383 . S
C517 C40 1.367 . S
C547 C31 1.505 . S
C562 C178 1.523 . S
