# Generated by pormake.
# Topology cml, (3,6)-cn, num edge types: 1
# Building blocks:
#     Node 0, Type 0, BuildingBlock: PAMTOO_clean_linker_0, # of connection points: 3
#     Node 1, Type 0, BuildingBlock: PAMTOO_clean_linker_0, # of connection points: 3
#     Node 2, Type 0, BuildingBlock: PAMTOO_clean_linker_0, # of connection points: 3
#     Node 3, Type 0, BuildingBlock: PAMTOO_clean_linker_0, # of connection points: 3
#     Node 4, Type 0, BuildingBlock: PAMTOO_clean_linker_0, # of connection points: 3
#     Node 5, Type 0, BuildingBlock: PAMTOO_clean_linker_0, # of connection points: 3
#     Node 6, Type 0, BuildingBlock: PAMTOO_clean_linker_0, # of connection points: 3
#     Node 7, Type 0, BuildingBlock: PAMTOO_clean_linker_0, # of connection points: 3
#     Node 8, Type 1, BuildingBlock: OJICUG_clean_sbu_0, # of connection points: 6
#     Node 9, Type 1, BuildingBlock: OJICUG_clean_sbu_0, # of connection points: 6
#     Node 10, Type 1, BuildingBlock: OJICUG_clean_sbu_0, # of connection points: 6
#     Node 11, Type 1, BuildingBlock: OJICUG_clean_sbu_0, # of connection points: 6
#     Edge 12, Type (0, 1), BuildingBlock: ZUJKAS_clean_linker_0, # of connection points: 2
#     Edge 13, Type (0, 1), BuildingBlock: ZUJKAS_clean_linker_0, # of connection points: 2
#     Edge 14, Type (0, 1), BuildingBlock: ZUJKAS_clean_linker_0, # of connection points: 2
#     Edge 15, Type (0, 1), BuildingBlock: ZUJKAS_clean_linker_0, # of connection points: 2
#     Edge 16, Type (0, 1), BuildingBlock: ZUJKAS_clean_linker_0, # of connection points: 2
#     Edge 17, Type (0, 1), BuildingBlock: ZUJKAS_clean_linker_0, # of connection points: 2
#     Edge 18, Type (0, 1), BuildingBlock: ZUJKAS_clean_linker_0, # of connection points: 2
#     Edge 19, Type (0, 1), BuildingBlock: ZUJKAS_clean_linker_0, # of connection points: 2
#     Edge 20, Type (0, 1), BuildingBlock: ZUJKAS_clean_linker_0, # of connection points: 2
#     Edge 21, Type (0, 1), BuildingBlock: ZUJKAS_clean_linker_0, # of connection points: 2
#     Edge 22, Type (0, 1), BuildingBlock: ZUJKAS_clean_linker_0, # of connection points: 2
#     Edge 23, Type (0, 1), BuildingBlock: ZUJKAS_clean_linker_0, # of connection points: 2
#     Edge 24, Type (0, 1), BuildingBlock: ZUJKAS_clean_linker_0, # of connection points: 2
#     Edge 25, Type (0, 1), BuildingBlock: ZUJKAS_clean_linker_0, # of connection points: 2
#     Edge 26, Type (0, 1), BuildingBlock: ZUJKAS_clean_linker_0, # of connection points: 2
#     Edge 27, Type (0, 1), BuildingBlock: ZUJKAS_clean_linker_0, # of connection points: 2
#     Edge 28, Type (0, 1), BuildingBlock: ZUJKAS_clean_linker_0, # of connection points: 2
#     Edge 29, Type (0, 1), BuildingBlock: ZUJKAS_clean_linker_0, # of connection points: 2
#     Edge 30, Type (0, 1), BuildingBlock: ZUJKAS_clean_linker_0, # of connection points: 2
#     Edge 31, Type (0, 1), BuildingBlock: ZUJKAS_clean_linker_0, # of connection points: 2
#     Edge 32, Type (0, 1), BuildingBlock: ZUJKAS_clean_linker_0, # of connection points: 2
#     Edge 33, Type (0, 1), BuildingBlock: ZUJKAS_clean_linker_0, # of connection points: 2
#     Edge 34, Type (0, 1), BuildingBlock: ZUJKAS_clean_linker_0, # of connection points: 2
#     Edge 35, Type (0, 1), BuildingBlock: ZUJKAS_clean_linker_0, # of connection points: 2
# Relax obj value: 0.007
# Max RMSD: 0.056
# Mean RMSD: 0.045
data_MOF--net-cml--node1-OJICUG_clean_sbu_0--node2-PAMTOO_clean_linker_0--edge1-ZUJKAS_clean_linker_0
_symmetry_space_group_name_H-M    P1
_symmetry_Int_Tables_number       1
_symmetry_cell_setting            triclinic
loop_
_symmetry_equiv_pos_as_xyz
'x, y, z'
_cell_length_a     52.386863
_cell_length_b     51.623148
_cell_length_c     45.235463
_cell_angle_alpha  89.952058
_cell_angle_beta   88.347689
_cell_angle_gamma 89.984274
loop_
_atom_site_label
_atom_site_type_symbol
_atom_site_fract_x
_atom_site_fract_y
_atom_site_fract_z
_atom_type_partial_charge
H0 H 0.32486 0.41112 0.02733 0.0
H1 H 0.27574 0.3945 0.95503 0.0
H2 H 0.26982 0.34935 0.03451 0.0
H3 H 0.26996 0.32048 0.97921 0.0
C4 C 0.25855 0.33391 0.96554 0.0
O5 O 0.25238 0.35588 0.98152 0.0
H6 H 0.27043 0.33922 0.94565 0.0
C7 C 0.3095 0.39999 0.01804 0.0
C8 C 0.29829 0.37974 0.03462 0.0
C9 C 0.30167 0.40555 0.98926 0.0
C10 C 0.28186 0.3909 0.97734 0.0
C11 C 0.27057 0.37065 0.99367 0.0
C12 C 0.27867 0.36515 0.02223 0.0
H13 H 0.68726 0.5752 0.535 0.0
H14 H 0.74796 0.63143 0.53385 0.0
H15 H 0.74004 0.57978 0.46047 0.0
H16 H 0.79417 0.59107 0.47319 0.0
C17 C 0.79113 0.6096 0.48533 0.0
O18 O 0.76643 0.61799 0.48186 0.0
H19 H 0.7948 0.60603 0.50913 0.0
C20 C 0.70419 0.58351 0.52441 0.0
C21 C 0.71227 0.57461 0.49635 0.0
C22 C 0.71682 0.60402 0.5382 0.0
C23 C 0.73794 0.61556 0.52366 0.0
C24 C 0.74633 0.60659 0.49584 0.0
C25 C 0.73346 0.58632 0.48213 0.0
H26 H 0.68697 0.42818 0.03716 0.0
H27 H 0.73926 0.36387 0.0378 0.0
H28 H 0.72994 0.4074 0.95811 0.0
H29 H 0.73342 0.35262 0.94833 0.0
C30 C 0.7447 0.34671 0.96769 0.0
O31 O 0.75322 0.3684 0.98215 0.0
H32 H 0.73201 0.33501 0.9827 0.0
C33 C 0.70123 0.41622 0.02594 0.0
C34 C 0.70712 0.42059 0.99584 0.0
C35 C 0.71256 0.39578 0.04133 0.0
C36 C 0.73054 0.37997 0.02648 0.0
C37 C 0.73688 0.38445 0.99665 0.0
C38 C 0.72541 0.4048 0.98144 0.0
H39 H 0.3192 0.59113 0.52688 0.0
H40 H 0.26486 0.60519 0.45908 0.0
H41 H 0.26378 0.65221 0.53735 0.0
H42 H 0.21359 0.63787 0.51808 0.0
C43 C 0.21707 0.63707 0.49371 0.0
O44 O 0.24209 0.64355 0.48689 0.0
H45 H 0.2133 0.61695 0.48613 0.0
C46 C 0.30313 0.60191 0.51863 0.0
C47 C 0.29262 0.62221 0.53564 0.0
C48 C 0.29353 0.59565 0.49086 0.0
C49 C 0.27256 0.60959 0.48048 0.0
C50 C 0.26187 0.62987 0.49732 0.0
C51 C 0.27208 0.63637 0.52465 0.0
H52 H 0.8157 0.91576 0.03386 0.0
H53 H 0.76707 0.90089 0.96072 0.0
H54 H 0.76476 0.85028 0.036 0.0
H55 H 0.76542 0.82434 0.97983 0.0
C56 C 0.75381 0.83796 0.96667 0.0
O57 O 0.74663 0.85901 0.98374 0.0
H58 H 0.76563 0.84472 0.94732 0.0
C59 C 0.80065 0.90455 0.02402 0.0
C60 C 0.79105 0.88249 0.03875 0.0
C61 C 0.79217 0.91149 0.99592 0.0
C62 C 0.77379 0.896 0.98246 0.0
C63 C 0.76402 0.87401 0.99698 0.0
C64 C 0.77249 0.86737 0.02509 0.0
H65 H 0.18096 0.07975 0.53192 0.0
H66 H 0.24517 0.13124 0.53849 0.0
H67 H 0.23426 0.08889 0.45839 0.0
H68 H 0.28762 0.0931 0.47301 0.0
C69 C 0.28704 0.11139 0.48603 0.0
O70 O 0.26305 0.12222 0.48503 0.0
H71 H 0.2917 0.10672 0.5093 0.0
C72 C 0.19817 0.0883 0.52231 0.0
C73 C 0.20587 0.08187 0.49322 0.0
C74 C 0.21205 0.10617 0.53887 0.0
C75 C 0.2342 0.11734 0.52619 0.0
C76 C 0.24225 0.11075 0.49741 0.0
C77 C 0.22812 0.09318 0.48094 0.0
H78 H 0.18897 0.93031 0.03095 0.0
H79 H 0.23785 0.86343 0.03447 0.0
H80 H 0.23886 0.91114 0.95688 0.0
H81 H 0.23777 0.85603 0.94496 0.0
C82 C 0.2481 0.84865 0.96441 0.0
O83 O 0.25674 0.86916 0.98086 0.0
H84 H 0.2345 0.83666 0.97796 0.0
C85 C 0.20408 0.91848 0.02118 0.0
C86 C 0.21324 0.92394 0.99235 0.0
C87 C 0.21277 0.89674 0.03668 0.0
C88 C 0.23109 0.88048 0.02311 0.0
C89 C 0.24032 0.88574 0.9944 0.0
C90 C 0.23165 0.9075 0.97918 0.0
H91 H 0.82083 0.09274 0.5293 0.0
H92 H 0.76398 0.10504 0.46399 0.0
H93 H 0.76358 0.15175 0.54262 0.0
H94 H 0.71315 0.13441 0.52377 0.0
C95 C 0.71634 0.13528 0.49935 0.0
O96 O 0.74104 0.14296 0.49269 0.0
H97 H 0.71298 0.11557 0.4903 0.0
C98 C 0.80414 0.10304 0.52185 0.0
C99 C 0.79334 0.12274 0.53952 0.0
C100 C 0.79383 0.09654 0.49458 0.0
C101 C 0.77219 0.1098 0.48502 0.0
C102 C 0.76141 0.12974 0.50235 0.0
C103 C 0.77209 0.13633 0.52941 0.0
Sc104 Sc 0.99787 0.82151 0.31555 0.0
Sc105 Sc 0.99394 0.88963 0.31482 0.0
Sc106 Sc 0.99358 0.85633 0.38278 0.0
O107 O 0.99511 0.85578 0.33774 0.0
C108 C 0.95882 0.80733 0.36873 0.0
C109 C 0.95821 0.85317 0.27693 0.0
C110 C 0.95387 0.90104 0.36779 0.0
C111 C 0.03498 0.85735 0.27635 0.0
C112 C 0.03478 0.81174 0.36951 0.0
C113 C 0.03049 0.90413 0.36735 0.0
O114 O 0.96858 0.80363 0.343 0.0
O115 O 0.96522 0.87529 0.28601 0.0
O116 O 0.96231 0.8836 0.38482 0.0
O117 O 0.02771 0.83523 0.28562 0.0
O118 O 0.02449 0.82894 0.38609 0.0
O119 O 0.0226 0.90718 0.34128 0.0
O120 O 0.02732 0.80706 0.34354 0.0
O121 O 0.02426 0.87827 0.28467 0.0
O122 O 0.02147 0.88702 0.38503 0.0
O123 O 0.96852 0.83215 0.2852 0.0
O124 O 0.96581 0.82562 0.38548 0.0
O125 O 0.96364 0.90549 0.34228 0.0
Sc126 Sc 0.00072 0.18273 0.81711 0.0
Sc127 Sc -0.00023 0.11446 0.81661 0.0
Sc128 Sc 0.99898 0.14796 0.88442 0.0
O129 O -0.00021 0.14839 0.83939 0.0
C130 C 0.03795 0.19424 0.87028 0.0
C131 C 0.03972 0.14837 0.77845 0.0
C132 C 0.03718 0.10136 0.86912 0.0
C133 C 0.96286 0.14939 0.77816 0.0
C134 C 0.96118 0.19466 0.87042 0.0
C135 C 0.96045 0.10191 0.86988 0.0
O136 O 0.02972 0.19864 0.84459 0.0
O137 O 0.03018 0.1269 0.78699 0.0
O138 O 0.02843 0.11887 0.88639 0.0
O139 O 0.9718 0.17087 0.78691 0.0
O140 O 0.96951 0.17701 0.88726 0.0
O141 O 0.96949 0.09812 0.84386 0.0
O142 O 0.97059 0.19897 0.84466 0.0
O143 O 0.97108 0.12765 0.78704 0.0
O144 O 0.96922 0.11908 0.887 0.0
O145 O 0.03105 0.17014 0.78724 0.0
O146 O 0.02867 0.17668 0.88712 0.0
O147 O 0.02853 0.09746 0.84354 0.0
Sc148 Sc 0.49938 0.32018 0.31753 0.0
Sc149 Sc 0.49527 0.38824 0.31854 0.0
Sc150 Sc 0.49251 0.35349 0.38555 0.0
O151 O 0.4957 0.35394 0.34057 0.0
C152 C 0.45843 0.30498 0.36857 0.0
C153 C 0.46137 0.35228 0.27759 0.0
C154 C 0.45308 0.39836 0.36931 0.0
C155 C 0.538 0.35724 0.28157 0.0
C156 C 0.53419 0.30904 0.37274 0.0
C157 C 0.52959 0.4016 0.37379 0.0
O158 O 0.46988 0.30129 0.34375 0.0
O159 O 0.46881 0.37423 0.28673 0.0
O160 O 0.46197 0.38179 0.38715 0.0
O161 O 0.52962 0.33492 0.2887 0.0
O162 O 0.52264 0.32521 0.38962 0.0
O163 O 0.5217 0.40603 0.34796 0.0
O164 O 0.52836 0.30562 0.34593 0.0
O165 O 0.52764 0.37804 0.29088 0.0
O166 O 0.52101 0.38319 0.38992 0.0
O167 O 0.47053 0.33101 0.28675 0.0
O168 O 0.46393 0.32352 0.38575 0.0
O169 O 0.46287 0.40238 0.34372 0.0
Sc170 Sc 0.50192 0.68318 0.8115 0.0
Sc171 Sc 0.50218 0.61495 0.80884 0.0
Sc172 Sc 0.49937 0.64668 0.87769 0.0
O173 O 0.50114 0.64829 0.83269 0.0
C174 C 0.53809 0.69365 0.86595 0.0
C175 C 0.542 0.65041 0.77245 0.0
C176 C 0.53851 0.60095 0.86197 0.0
C177 C 0.46518 0.65016 0.77082 0.0
C178 C 0.46147 0.69347 0.86435 0.0
C179 C 0.46192 0.60056 0.86062 0.0
O180 O 0.53019 0.69876 0.84027 0.0
O181 O 0.53273 0.62861 0.7802 0.0
O182 O 0.52884 0.61767 0.87962 0.0
O183 O 0.47364 0.67161 0.78028 0.0
O184 O 0.46969 0.6755 0.8808 0.0
O185 O 0.47172 0.59749 0.83484 0.0
O186 O 0.47119 0.69842 0.83889 0.0
O187 O 0.4737 0.62839 0.77922 0.0
O188 O 0.46987 0.61748 0.87859 0.0
O189 O 0.53287 0.67182 0.78179 0.0
O190 O 0.5288 0.67548 0.88191 0.0
O191 O 0.53085 0.59779 0.83582 0.0
H192 H 0.23275 0.34051 0.91433 0.0
H193 H 0.19377 0.31839 0.89916 0.0
H194 H 0.1913 0.27589 0.98136 0.0
H195 H 0.23012 0.2982 0.99666 0.0
H196 H 0.18743 0.26475 0.89234 0.0
H197 H 0.11853 0.30448 0.97615 0.0
H198 H 0.14945 0.31889 0.96861 0.0
H199 H 0.14665 0.29037 0.99128 0.0
C200 C 0.22379 0.32646 0.9291 0.0
C201 C 0.23453 0.32065 0.9564 0.0
C202 C 0.20158 0.31391 0.92048 0.0
C203 C 0.18957 0.29567 0.93924 0.0
C204 C 0.20006 0.29018 0.96675 0.0
H205 H 0.06181 0.19057 0.92332 0.0
H206 H 0.09849 0.21546 0.93967 0.0
C207 C 0.22228 0.30273 0.97537 0.0
C208 C 0.16674 0.28154 0.9294 0.0
H209 H 0.10393 0.26972 0.94665 0.0
C210 C 0.16912 0.26595 0.90408 0.0
C211 C 0.14294 0.28308 0.94489 0.0
C212 C 0.13907 0.30028 0.9716 0.0
C213 C 0.14843 0.25147 0.89408 0.0
C214 C 0.12463 0.25301 0.90955 0.0
C215 C 0.12222 0.2686 0.93487 0.0
C216 C 0.10202 0.23848 0.89979 0.0
C217 C 0.15238 0.23417 0.86745 0.0
C218 C 0.09162 0.24352 0.87215 0.0
C219 C 0.07068 0.22933 0.86268 0.0
C220 C 0.05963 0.2099 0.88077 0.0
C221 C 0.06984 0.20531 0.90875 0.0
C222 C 0.09079 0.21953 0.91818 0.0
H223 H 0.17294 0.23025 0.8627 0.0
H224 H 0.14232 0.2154 0.8707 0.0
H225 H 0.14448 0.24382 0.84778 0.0
H226 H 0.09974 0.25842 0.85787 0.0
H227 H 0.06328 0.23353 0.84108 0.0
H228 H 0.80865 0.65211 0.51424 0.0
H229 H 0.8358 0.6871 0.49419 0.0
H230 H 0.83998 0.64834 0.40971 0.0
H231 H 0.81259 0.61354 0.42964 0.0
H232 H 0.88547 0.68372 0.46922 0.0
H233 H 0.81675 0.72185 0.38872 0.0
H234 H 0.80735 0.70012 0.41838 0.0
H235 H 0.82299 0.68774 0.38543 0.0
C236 C 0.81559 0.65106 0.49148 0.0
C237 C 0.80903 0.63005 0.47356 0.0
C238 C 0.83096 0.67101 0.48005 0.0
C239 C 0.83963 0.67039 0.45042 0.0
C240 C 0.83314 0.64934 0.43251 0.0
H241 H 0.93901 0.76534 0.34032 0.0
H242 H 0.90945 0.73293 0.36072 0.0
C243 C 0.81776 0.62941 0.44394 0.0
C244 C 0.85587 0.69157 0.43841 0.0
H245 H 0.85898 0.73864 0.38538 0.0
C246 C 0.87964 0.69586 0.45102 0.0
C247 C 0.84814 0.70731 0.41467 0.0
C248 C 0.82232 0.70425 0.40114 0.0
C249 C 0.89622 0.71514 0.44005 0.0
C250 C 0.88857 0.73077 0.41619 0.0
C251 C 0.86473 0.72658 0.40368 0.0
C252 C 0.90531 0.75124 0.40356 0.0
C253 C 0.92205 0.71821 0.45358 0.0
C254 C 0.91222 0.77259 0.42073 0.0
C255 C 0.92913 0.79117 0.40919 0.0
C256 C 0.93936 0.78877 0.3802 0.0
C257 C 0.93164 0.76776 0.36276 0.0
C258 C 0.91473 0.74921 0.37434 0.0
H259 H 0.92725 0.70103 0.46693 0.0
H260 H 0.93713 0.72135 0.43618 0.0
H261 H 0.92171 0.73536 0.46835 0.0
H262 H 0.90473 0.77471 0.44317 0.0
H263 H 0.93448 0.80716 0.4232 0.0
H264 H 0.7688 0.30868 -0.0017 0.0
H265 H 0.80644 0.28333 0.98246 0.0
H266 H 0.80913 0.32427 0.89923 0.0
H267 H 0.77167 0.34978 0.91518 0.0
H268 H 0.8117 0.25102 0.93209 0.0
H269 H 0.88213 0.33146 0.92934 0.0
H270 H 0.85135 0.33405 0.94812 0.0
H271 H 0.85399 0.33738 0.9086 0.0
C272 C 0.77745 0.31211 0.97661 0.0
C273 C 0.76724 0.33075 0.95768 0.0
C274 C 0.79888 0.29773 0.96763 0.0
C275 C 0.81062 0.30212 0.93981 0.0
C276 C 0.80052 0.32087 0.92095 0.0
H277 H 0.93725 0.23384 0.84114 0.0
H278 H 0.90057 0.25943 0.85845 0.0
C279 C 0.77908 0.33524 0.92992 0.0
C280 C 0.83309 0.28662 0.93023 0.0
H281 H 0.896 0.29123 0.90917 0.0
C282 C 0.83019 0.25975 0.92723 0.0
C283 C 0.8571 0.29816 0.92389 0.0
C284 C 0.8615 0.32681 0.92787 0.0
C285 C 0.85061 0.24409 0.91743 0.0
C286 C 0.8746 0.25564 0.911 0.0
C287 C 0.87753 0.2825 0.9141 0.0
C288 C 0.89691 0.24017 0.90084 0.0
C289 C 0.84618 0.21544 0.91338 0.0
C290 C 0.90717 0.22114 0.91917 0.0
C291 C 0.92812 0.20643 0.90938 0.0
C292 C 0.9393 0.21062 0.88111 0.0
C293 C 0.92914 0.23003 0.863 0.0
C294 C 0.90818 0.2447 0.87284 0.0
H295 H 0.82553 0.21076 0.91228 0.0
H296 H 0.85605 0.20832 0.8929 0.0
H297 H 0.854 0.2048 0.93242 0.0
H298 H 0.899 0.21771 0.9411 0.0
H299 H 0.9355 0.19176 0.92399 0.0
H300 H 0.17863 0.62691 0.45533 0.0
H301 H 0.14926 0.65787 0.4331 0.0
H302 H 0.18617 0.72061 0.47804 0.0
H303 H 0.21557 0.68964 0.50039 0.0
H304 H 0.11565 0.69305 0.46488 0.0
H305 H 0.185 0.74375 0.38958 0.0
H306 H 0.19131 0.71224 0.40517 0.0
H307 H 0.19413 0.7408 0.42746 0.0
C308 C 0.18055 0.64733 0.46028 0.0
C309 C 0.19946 0.656 0.47931 0.0
C310 C 0.1638 0.66495 0.44762 0.0
C311 C 0.16579 0.69152 0.45365 0.0
C312 C 0.18462 0.70023 0.47273 0.0
H313 H 0.05215 0.81099 0.42611 0.0
H314 H 0.08454 0.78245 0.44637 0.0
C315 C 0.2013 0.68259 0.48551 0.0
C316 C 0.14754 0.70999 0.44082 0.0
H317 H 0.14317 0.76118 0.39335 0.0
C318 C 0.12163 0.70795 0.44924 0.0
C319 C 0.15545 0.72923 0.42027 0.0
C320 C 0.18295 0.73164 0.40982 0.0
C321 C 0.1034 0.72488 0.43786 0.0
C322 C 0.11137 0.74443 0.41772 0.0
C323 C 0.13722 0.74629 0.409 0.0
C324 C 0.09291 0.76276 0.40505 0.0
C325 C 0.07569 0.72155 0.44711 0.0
C326 C 0.08743 0.76154 0.37494 0.0
C327 C 0.06889 0.77778 0.36324 0.0
C328 C 0.05564 0.7957 0.38143 0.0
C329 C 0.06186 0.79739 0.41145 0.0
C330 C 0.08031 0.78104 0.42313 0.0
H331 H 0.07208 0.7026 0.45811 0.0
H332 H 0.0701 0.73714 0.46289 0.0
H333 H 0.06329 0.72312 0.42769 0.0
H334 H 0.09707 0.74759 0.36064 0.0
H335 H 0.06473 0.77602 0.34001 0.0
H336 H 0.71268 0.82163 0.0004 0.0
H337 H 0.67526 0.79723 0.98441 0.0
H338 H 0.70576 0.79713 0.89484 0.0
H339 H 0.74308 0.82163 0.91067 0.0
H340 H 0.63974 0.81201 0.93734 0.0
H341 H 0.69114 0.71914 0.91692 0.0
H342 H 0.70362 0.74448 0.93993 0.0
H343 H 0.70547 0.74753 0.9004 0.0
C344 C 0.71122 0.81656 0.97728 0.0
C345 C 0.7305 0.82379 0.95666 0.0
C346 C 0.68995 0.80263 0.96821 0.0
C347 C 0.6879 0.79533 0.93852 0.0
C348 C 0.70715 0.80246 0.9179 0.0
H349 H 0.55958 0.73764 0.84207 0.0
H350 H 0.59527 0.76267 0.8608 0.0
C351 C 0.72833 0.81653 0.92691 0.0
C352 C 0.66559 0.78025 0.92904 0.0
H353 H 0.64817 0.72128 0.90218 0.0
C354 C 0.64151 0.79216 0.92971 0.0
C355 C 0.66804 0.75431 0.91941 0.0
C356 C 0.69339 0.74043 0.91927 0.0
C357 C 0.61979 0.77888 0.92038 0.0
C358 C 0.62236 0.75315 0.91005 0.0
C359 C 0.64636 0.74109 0.90995 0.0
C360 C 0.60035 0.73839 0.89918 0.0
C361 C 0.59423 0.79234 0.92185 0.0
C362 C 0.59163 0.7163 0.91442 0.0
C363 C 0.57122 0.70195 0.90384 0.0
C364 C 0.55932 0.70928 0.8776 0.0
C365 C 0.56823 0.73144 0.86236 0.0
C366 C 0.58855 0.74586 0.87308 0.0
H367 H 0.59455 0.8099 0.93602 0.0
H368 H 0.58903 0.79836 0.89925 0.0
H369 H 0.57913 0.77904 0.93054 0.0
H370 H 0.60063 0.71019 0.93453 0.0
H371 H 0.56498 0.68494 0.91608 0.0
H372 H 0.29278 0.1255 0.42823 0.0
H373 H 0.32174 0.15832 0.40664 0.0
H374 H 0.35197 0.17286 0.49274 0.0
H375 H 0.32293 0.14022 0.51441 0.0
H376 H 0.32423 0.21314 0.42647 0.0
H377 H 0.41548 0.15875 0.43503 0.0
H378 H 0.38473 0.14288 0.43537 0.0
H379 H 0.39504 0.15956 0.46769 0.0
C380 C 0.30585 0.13556 0.44238 0.0
C381 C 0.30599 0.13019 0.47281 0.0
C382 C 0.32223 0.15427 0.43012 0.0
C383 C 0.33907 0.16773 0.44811 0.0
C384 C 0.3393 0.16237 0.4785 0.0
H385 H 0.42626 0.30787 0.41737 0.0
H386 H 0.39604 0.27498 0.43546 0.0
C387 C 0.32278 0.14378 0.49082 0.0
C388 C 0.3559 0.18796 0.43522 0.0
H389 H 0.41837 0.20252 0.41972 0.0
C390 C 0.34481 0.21087 0.4249 0.0
C391 C 0.38266 0.18471 0.43309 0.0
C392 C 0.3953 0.1601 0.44316 0.0
C393 C 0.35993 0.2309 0.41287 0.0
C394 C 0.38673 0.22784 0.41127 0.0
C395 C 0.39778 0.20477 0.42116 0.0
C396 C 0.40374 0.24838 0.39939 0.0
C397 C 0.34722 0.25509 0.40172 0.0
C398 C 0.41798 0.24421 0.37314 0.0
C399 C 0.4352 0.26293 0.36267 0.0
C400 C 0.43871 0.28607 0.3785 0.0
C401 C 0.42406 0.2903 0.40463 0.0
C402 C 0.40672 0.27159 0.41496 0.0
H403 H 0.32635 0.25239 0.39929 0.0
H404 H 0.35016 0.2711 0.41763 0.0
H405 H 0.35584 0.26105 0.38005 0.0
H406 H 0.41594 0.22632 0.36091 0.0
H407 H 0.44618 0.25896 0.34252 0.0
H408 H 0.27034 0.80881 0.99396 0.0
H409 H 0.30743 0.7827 0.97797 0.0
H410 H 0.31326 0.8265 0.89677 0.0
H411 H 0.2764 0.85278 0.91289 0.0
H412 H 0.31263 0.752 0.92665 0.0
H413 H 0.38576 0.82976 0.92858 0.0
H414 H 0.35474 0.83299 0.94664 0.0
H415 H 0.35833 0.83748 0.90733 0.0
C416 C 0.27958 0.81272 0.97269 0.0
C417 C 0.27042 0.8324 0.95436 0.0
C418 C 0.3007 0.79791 0.96362 0.0
C419 C 0.31316 0.80285 0.93633 0.0
C420 C 0.30411 0.82265 0.9181 0.0
H421 H 0.43832 0.73379 0.83624 0.0
H422 H 0.40207 0.75966 0.85423 0.0
C423 C 0.283 0.83746 0.92716 0.0
C424 C 0.33522 0.78684 0.92657 0.0
H425 H 0.39843 0.78987 0.90647 0.0
C426 C 0.33145 0.7602 0.9224 0.0
C427 C 0.35967 0.79769 0.92106 0.0
C428 C 0.36502 0.82601 0.92637 0.0
C429 C 0.35142 0.74415 0.9122 0.0
C430 C 0.37583 0.75504 0.9065 0.0
C431 C 0.37964 0.78165 0.91082 0.0
C432 C 0.39767 0.73917 0.89579 0.0
C433 C 0.3461 0.71583 0.90691 0.0
C434 C 0.40732 0.71928 0.91339 0.0
C435 C 0.42803 0.70441 0.90321 0.0
C436 C 0.43956 0.70928 0.87526 0.0
C437 C 0.42992 0.72944 0.85783 0.0
C438 C 0.40921 0.74428 0.86806 0.0
H439 H 0.32532 0.71188 0.90558 0.0
H440 H 0.35579 0.70908 0.88615 0.0
H441 H 0.35356 0.70429 0.92548 0.0
H442 H 0.39892 0.71537 0.9351 0.0
H443 H 0.435 0.68914 0.91729 0.0
H444 H 0.69929 0.13612 0.44285 0.0
H445 H 0.66997 0.16727 0.42074 0.0
H446 H 0.66368 0.20823 0.50374 0.0
H447 H 0.69329 0.17733 0.52569 0.0
H448 H 0.61985 0.17794 0.43849 0.0
H449 H 0.67991 0.26622 0.44475 0.0
H450 H 0.69265 0.23402 0.44944 0.0
H451 H 0.67535 0.2496 0.47938 0.0
C452 C 0.69158 0.1518 0.45627 0.0
C453 C 0.69812 0.15419 0.48602 0.0
C454 C 0.67493 0.16957 0.44367 0.0
C455 C 0.66485 0.1902 0.46052 0.0
C456 C 0.67157 0.19272 0.49021 0.0
H457 H 0.55259 0.30993 0.42895 0.0
H458 H 0.58465 0.2813 0.44982 0.0
C459 C 0.68825 0.17497 0.5028 0.0
C460 C 0.64656 0.20847 0.4473 0.0
H461 H 0.63676 0.27234 0.43136 0.0
C462 C 0.6236 0.19856 0.43677 0.0
C463 C 0.65149 0.23537 0.44518 0.0
C464 C 0.67628 0.24696 0.45503 0.0
C465 C 0.60523 0.21487 0.42459 0.0
C466 C 0.61015 0.24175 0.42248 0.0
C467 C 0.63308 0.25171 0.43304 0.0
C468 C 0.59164 0.25981 0.40937 0.0
C469 C 0.58047 0.20328 0.41463 0.0
C470 C 0.58541 0.25755 0.37955 0.0
C471 C 0.56711 0.27384 0.36752 0.0
C472 C 0.55472 0.29281 0.38508 0.0
C473 C 0.56161 0.29548 0.41479 0.0
C474 C 0.57995 0.27917 0.42678 0.0
H475 H 0.57713 0.18368 0.42417 0.0
H476 H 0.56404 0.21589 0.42099 0.0
H477 H 0.58113 0.20145 0.39018 0.0
H478 H 0.59458 0.24302 0.36562 0.0
H479 H 0.56247 0.2713 0.34452 0.0
H480 H 0.28089 0.44219 0.95298 0.0
H481 H 0.30354 0.47611 0.92465 0.0
H482 H 0.37513 0.44915 0.95806 0.0
H483 H 0.35293 0.41479 0.98524 0.0
H484 H 0.33283 0.51578 0.94503 0.0
H485 H 0.3912 0.4535 0.87033 0.0
H486 H 0.36425 0.44123 0.89181 0.0
H487 H 0.39496 0.44467 0.9083 0.0
C488 C 0.3015 0.44328 0.95387 0.0
C489 C 0.31509 0.42585 0.97144 0.0
C490 C 0.31438 0.46273 0.93784 0.0
C491 C 0.34106 0.4649 0.9389 0.0
C492 C 0.35461 0.44752 0.9564 0.0
H493 H 0.44314 0.59248 0.91699 0.0
H494 H 0.41083 0.56115 0.93331 0.0
C495 C 0.34182 0.42809 0.97229 0.0
C496 C 0.35489 0.48594 0.92293 0.0
H497 H 0.4064 0.49711 0.87687 0.0
C498 C 0.34867 0.51175 0.92975 0.0
C499 C 0.37522 0.4807 0.90255 0.0
C500 C 0.38162 0.45351 0.89257 0.0
C501 C 0.36316 0.5324 0.91798 0.0
C502 C 0.38476 0.52701 0.89947 0.0
C503 C 0.39008 0.50127 0.89141 0.0
C504 C 0.40284 0.5475 0.88928 0.0
C505 C 0.3552 0.55973 0.92561 0.0
C506 C 0.4095 0.54996 0.85913 0.0
C507 C 0.42832 0.56755 0.84976 0.0
C508 C 0.44086 0.58309 0.87037 0.0
C509 C 0.43375 0.58098 0.9005 0.0
C510 C 0.4151 0.56319 0.90986 0.0
H511 H 0.33438 0.5609 0.93082 0.0
H512 H 0.36537 0.56612 0.94551 0.0
H513 H 0.35992 0.57334 0.90723 0.0
H514 H 0.40039 0.53797 0.84287 0.0
H515 H 0.43323 0.56875 0.82638 0.0
H516 H 0.69672 0.57359 0.43917 0.0
H517 H 0.66792 0.5422 0.41691 0.0
H518 H 0.66566 0.49814 0.49798 0.0
H519 H 0.6944 0.5294 0.52037 0.0
H520 H 0.67046 0.48727 0.40903 0.0
H521 H 0.59039 0.51707 0.48474 0.0
H522 H 0.61931 0.53582 0.48017 0.0
H523 H 0.61883 0.50731 0.50301 0.0
C524 C 0.69045 0.55696 0.45205 0.0
C525 C 0.69755 0.55407 0.48161 0.0
C526 C 0.67394 0.53913 0.43936 0.0
C527 C 0.66431 0.5182 0.45604 0.0
C528 C 0.67247 0.51451 0.48499 0.0
H529 H 0.55134 0.39922 0.42812 0.0
H530 H 0.58501 0.42684 0.44701 0.0
C531 C 0.68887 0.53233 0.49772 0.0
C532 C 0.64485 0.50088 0.44369 0.0
H533 H 0.58311 0.48098 0.4539 0.0
C534 C 0.65134 0.4859 0.41873 0.0
C535 C 0.61991 0.4993 0.45641 0.0
C536 C 0.61153 0.51588 0.4824 0.0
C537 C 0.63361 0.46888 0.40648 0.0
C538 C 0.60873 0.46719 0.41934 0.0
C539 C 0.60226 0.48226 0.44422 0.0
C540 C 0.58897 0.45004 0.4073 0.0
C541 C 0.64177 0.45248 0.38029 0.0
C542 C 0.57989 0.45417 0.37883 0.0
C543 C 0.5606 0.43846 0.36794 0.0
C544 C 0.54994 0.4184 0.38542 0.0
C545 C 0.55907 0.41444 0.41403 0.0
C546 C 0.57834 0.43018 0.42488 0.0
H547 H 0.6629 0.45134 0.3777 0.0
H548 H 0.634 0.43254 0.38244 0.0
H549 H 0.63427 0.46118 0.35984 0.0
H550 H 0.5875 0.46975 0.36517 0.0
H551 H 0.55402 0.44213 0.34584 0.0
H552 H 0.72521 0.45464 0.95339 0.0
H553 H 0.7005 0.48631 0.92556 0.0
H554 H 0.63186 0.46264 0.97314 0.0
H555 H 0.65602 0.43041 -6e-05 0.0
H556 H 0.62551 0.46631 0.91334 0.0
H557 H 0.67154 0.55502 0.95685 0.0
H558 H 0.69275 0.53167 0.93983 0.0
H559 H 0.67556 0.52355 0.9735 0.0
C560 C 0.70484 0.45615 0.95779 0.0
C561 C 0.69264 0.44023 0.97914 0.0
C562 C 0.69081 0.47441 0.9421 0.0
C563 C 0.66443 0.47707 0.94764 0.0
C564 C 0.65224 0.46102 0.96868 0.0
H565 H 0.55509 0.59586 0.91851 0.0
H566 H 0.58764 0.56629 0.93627 0.0
C567 C 0.66615 0.44278 0.98421 0.0
C568 C 0.64909 0.49617 0.93141 0.0
H569 H 0.63909 0.56102 0.92248 0.0
C570 C 0.62858 0.48703 0.9151 0.0
C571 C 0.65308 0.52316 0.93402 0.0
C572 C 0.67428 0.53406 0.95216 0.0
C573 C 0.61147 0.50412 0.90197 0.0
C574 C 0.61538 0.53113 0.90465 0.0
C575 C 0.63627 0.54029 0.92034 0.0
C576 C 0.59693 0.55011 0.89317 0.0
C577 C 0.58872 0.4931 0.88653 0.0
C578 C 0.59174 0.55115 0.86295 0.0
C579 C 0.57294 0.56786 0.85273 0.0
C580 C 0.55923 0.58407 0.87253 0.0
C581 C 0.56519 0.58361 0.90265 0.0
C582 C 0.58384 0.56676 0.91285 0.0
H583 H 0.58537 0.47245 0.89237 0.0
H584 H 0.57114 0.50426 0.89223 0.0
H585 H 0.59216 0.49429 0.86225 0.0
H586 H 0.60202 0.53885 0.84732 0.0
H587 H 0.56908 0.56796 0.82933 0.0
H588 H 0.34456 0.58784 0.48182 0.0
H589 H 0.36571 0.55219 0.4558 0.0
H590 H 0.29255 0.52138 0.43213 0.0
H591 H 0.27104 0.55679 0.45929 0.0
H592 H 0.32426 0.48405 0.45413 0.0
H593 H 0.37604 0.54076 0.36796 0.0
H594 H 0.38204 0.55304 0.40416 0.0
H595 H 0.35018 0.55426 0.39025 0.0
C596 C 0.33291 0.57349 0.47112 0.0
C597 C 0.30611 0.57503 0.47279 0.0
C598 C 0.34505 0.55329 0.45592 0.0
C599 C 0.33073 0.53435 0.44163 0.0
C600 C 0.30395 0.53594 0.44284 0.0
H601 H 0.42059 0.42508 0.33437 0.0
H602 H 0.38687 0.45515 0.35 0.0
C603 C 0.29172 0.55622 0.45818 0.0
C604 C 0.34402 0.51231 0.42689 0.0
H605 H 0.39318 0.49849 0.37845 0.0
C606 C 0.33904 0.4871 0.4372 0.0
C607 C 0.36296 0.51623 0.40444 0.0
C608 C 0.36792 0.54252 0.39084 0.0
C609 C 0.35351 0.46589 0.42681 0.0
C610 C 0.37386 0.47017 0.4061 0.0
C611 C 0.37785 0.49519 0.39464 0.0
C612 C 0.39203 0.44941 0.39685 0.0
C613 C 0.3469 0.4392 0.43824 0.0
C614 C 0.40598 0.43585 0.41798 0.0
C615 C 0.42511 0.41838 0.4091 0.0
C616 C 0.43103 0.41457 0.37891 0.0
C617 C 0.41664 0.42772 0.35782 0.0
C618 C 0.39731 0.44489 0.36671 0.0
H619 H 0.3264 0.4379 0.4451 0.0
H620 H 0.35109 0.4241 0.42131 0.0
H621 H 0.35832 0.43502 0.45797 0.0
H622 H 0.40277 0.4395 0.44136 0.0
H623 H 0.43599 0.40873 0.42588 0.0
H624 H 0.80958 0.91442 0.93837 0.0
H625 H 0.83412 0.9498 0.91514 0.0
H626 H 0.82578 0.99468 0.99518 0.0
H627 H 0.80126 0.95948 0.01853 0.0
H628 H 0.82408 0.00458 0.90653 0.0
H629 H 0.90386 0.98575 0.98206 0.0
H630 H 0.87803 0.96312 0.97744 0.0
H631 H 0.87339 0.99136 0.00017 0.0
C632 C 0.81253 0.93205 0.95079 0.0
C633 C 0.80379 0.93409 0.98038 0.0
C634 C 0.82661 0.95218 0.93753 0.0
C635 C 0.83213 0.97459 0.95367 0.0
C636 C 0.82212 0.9773 0.98259 0.0
H637 H 0.93515 0.104 0.92375 0.0
H638 H 0.90205 0.07464 0.94292 0.0
C639 C 0.80814 0.9572 0.99586 0.0
C640 C 0.84969 0.99441 0.94104 0.0
H641 H 0.90811 0.02194 0.95039 0.0
C642 C 0.84247 0.00842 0.91604 0.0
C643 C 0.87368 0.99924 0.95352 0.0
C644 C 0.88289 0.98396 0.97962 0.0
C645 C 0.8585 0.02753 0.90345 0.0
C646 C 0.88249 0.03235 0.91597 0.0
C647 C 0.88964 0.01831 0.94096 0.0
C648 C 0.90088 0.05139 0.90322 0.0
C649 C 0.84947 0.04269 0.87721 0.0
C650 C 0.91117 0.04805 0.87451 0.0
C651 C 0.93011 0.0648 0.86344 0.0
C652 C 0.93929 0.08509 0.88099 0.0
C653 C 0.92861 0.08858 0.90961 0.0
C654 C 0.90965 0.07184 0.92062 0.0
H655 H 0.82837 0.04178 0.87547 0.0
H656 H 0.85534 0.06331 0.87857 0.0
H657 H 0.85813 0.03435 0.85666 0.0
H658 H 0.90508 0.03205 0.86094 0.0
H659 H 0.93791 0.06144 0.84134 0.0
H660 H 0.22223 0.04295 0.45597 0.0
H661 H 0.19583 0.0127 0.42839 0.0
H662 H 0.1278 0.04936 0.46443 0.0
H663 H 0.15386 0.08026 0.49078 0.0
H664 H 0.16189 0.97762 0.45007 0.0
H665 H 0.11227 0.04648 0.37786 0.0
H666 H 0.14005 0.05548 0.39817 0.0
H667 H 0.10885 0.05562 0.41599 0.0
C668 C 0.20165 0.04485 0.45754 0.0
C669 C 0.19015 0.06396 0.47563 0.0
C670 C 0.18661 0.02747 0.44193 0.0
C671 C 0.15986 0.02903 0.44402 0.0
C672 C 0.14839 0.04815 0.46196 0.0
H673 H 0.04586 0.91196 0.42401 0.0
H674 H 0.07927 0.94113 0.44047 0.0
C675 C 0.16335 0.06556 0.47739 0.0
C676 C 0.14376 0.00988 0.42889 0.0
H677 H 0.09221 0.00486 0.38489 0.0
C678 C 0.14688 0.98351 0.43547 0.0
C679 C 0.12449 0.01754 0.40942 0.0
C680 C 0.12139 0.0453 0.39969 0.0
C681 C 0.13045 0.96471 0.42421 0.0
C682 C 0.10999 0.97262 0.40654 0.0
C683 C 0.10764 0.99884 0.39883 0.0
C684 C 0.09036 0.95422 0.39645 0.0
C685 C 0.13523 0.9366 0.43136 0.0
C686 C 0.08498 0.95242 0.36632 0.0
C687 C 0.06558 0.93612 0.35689 0.0
C688 C 0.0512 0.92122 0.37742 0.0
C689 C 0.05671 0.92298 0.40759 0.0
C690 C 0.07595 0.9395 0.41702 0.0
H691 H 0.15561 0.93312 0.43626 0.0
H692 H 0.12363 0.93112 0.4513 0.0
H693 H 0.12986 0.92378 0.41284 0.0
H694 H 0.09577 0.96371 0.35008 0.0
H695 H 0.06193 0.93515 0.33347 0.0
H696 H 0.19849 0.9231 0.93488 0.0
H697 H 0.17385 0.95597 0.90924 0.0
H698 H 0.17554 0.00508 0.98625 0.0
H699 H 0.20098 0.97273 0.01165 0.0
H700 H 0.12638 0.97089 0.92909 0.0
H701 H 0.18973 0.05663 0.91989 0.0
H702 H 0.2016 0.02456 0.92766 0.0
H703 H 0.18711 0.0438 0.95673 0.0
C704 C 0.19435 0.94125 0.94602 0.0
C705 C 0.20164 0.9453 0.97533 0.0
C706 C 0.18012 0.95993 0.9314 0.0
C707 C 0.17304 0.98304 0.94574 0.0
C708 C 0.18119 0.98761 0.97455 0.0
H709 H 0.06127 0.10306 0.92214 0.0
H710 H 0.09518 0.07454 0.93901 0.0
C711 C 0.19547 0.96897 0.98916 0.0
C712 C 0.15472 0.00092 0.93201 0.0
H713 H 0.14517 0.06407 0.9127 0.0
C714 C 0.1306 0.99119 0.92512 0.0
C715 C 0.16024 0.02742 0.92711 0.0
C716 C 0.18617 0.0387 0.93297 0.0
C717 C 0.11156 0.00738 0.91424 0.0
C718 C 0.11695 0.03394 0.90973 0.0
C719 C 0.14115 0.04367 0.91625 0.0
C720 C 0.09741 0.05194 0.89879 0.0
C721 C 0.08557 0.99611 0.90854 0.0
C722 C 0.08779 0.04887 0.87041 0.0
C723 C 0.06837 0.06504 0.8607 0.0
C724 C 0.05827 0.08468 0.87919 0.0
C725 C 0.06845 0.08806 0.90739 0.0
C726 C 0.08789 0.07186 0.91705 0.0
H727 H 0.08288 0.97688 0.91922 0.0
H728 H 0.0702 0.0093 0.91675 0.0
H729 H 0.08346 0.99363 0.88437 0.0
H730 H 0.09519 0.03382 0.85585 0.0
H731 H 0.06118 0.06198 0.83877 0.0
H732 H 0.7717 0.05357 0.47078 0.0
H733 H 0.79384 0.01656 0.44727 0.0
H734 H 0.86573 0.05651 0.45415 0.0
H735 H 0.84387 0.09308 0.478 0.0
H736 H 0.82583 0.01042 0.39725 0.0
H737 H 0.87761 0.98951 0.49944 0.0
H738 H 0.85085 0.01149 0.49873 0.0
H739 H 0.88227 0.02226 0.48718 0.0
C740 C 0.79217 0.0545 0.46682 0.0
C741 C 0.80618 0.07593 0.4765 0.0
C742 C 0.80478 0.03338 0.45353 0.0
C743 C 0.83149 0.03355 0.44973 0.0
C744 C 0.84521 0.05569 0.45766 0.0
H745 H 0.93726 0.94632 0.34359 0.0
H746 H 0.9043 0.9754 0.36305 0.0
C747 C 0.83271 0.07659 0.47113 0.0
C748 C 0.84539 0.01042 0.43846 0.0
H749 H 0.89418 0.96966 0.45508 0.0
C750 C 0.84057 0.00125 0.40998 0.0
C751 C 0.86414 0.99805 0.4554 0.0
C752 C 0.86885 0.00564 0.48701 0.0
C753 C 0.85501 0.98091 0.39737 0.0
C754 C 0.87513 0.96993 0.41348 0.0
C755 C 0.87899 0.97824 0.44254 0.0
C756 C 0.89346 0.95097 0.40025 0.0
C757 C 0.84854 0.97147 0.36694 0.0
C758 C 0.89881 0.92771 0.41499 0.0
C759 C 0.9181 0.91119 0.40421 0.0
C760 C 0.93237 0.9176 0.37842 0.0
C761 C 0.92654 0.94063 0.36337 0.0
C762 C 0.90748 0.95723 0.37433 0.0
H763 H 0.82805 0.97478 0.36244 0.0
H764 H 0.85999 0.98245 0.35014 0.0
H765 H 0.8528 0.95052 0.36422 0.0
H766 H 0.88836 0.92255 0.43515 0.0
H767 H 0.92201 0.89358 0.4163 0.0
H768 H 0.31107 0.41284 0.07894 0.0
H769 H 0.33402 0.40238 0.12369 0.0
H770 H 0.33094 0.32114 0.10193 0.0
H771 H 0.30874 0.33152 0.0565 0.0
H772 H 0.32363 0.37024 0.17288 0.0
H773 H 0.4077 0.33593 0.10569 0.0
H774 H 0.38177 0.3536 0.08972 0.0
H775 H 0.37799 0.31992 0.09888 0.0
C776 C 0.31519 0.39273 0.08374 0.0
C777 C 0.30846 0.37304 0.06396 0.0
C778 C 0.32813 0.38677 0.10941 0.0
C779 C 0.3346 0.36105 0.11578 0.0
C780 C 0.32652 0.34117 0.09709 0.0
H781 H 0.44238 0.30995 0.24876 0.0
H782 H 0.40934 0.30938 0.21158 0.0
C783 C 0.3136 0.34712 0.07132 0.0
C784 C 0.35122 0.35549 0.14094 0.0
H785 H 0.4114 0.33573 0.15727 0.0
C786 C 0.34274 0.36246 0.16955 0.0
C787 C 0.37614 0.34535 0.13646 0.0
C788 C 0.38662 0.33843 0.10604 0.0
C789 C 0.35871 0.36 0.19377 0.0
C790 C 0.38389 0.35068 0.18911 0.0
C791 C 0.39205 0.34283 0.16072 0.0
C792 C 0.40273 0.35073 0.21287 0.0
C793 C 0.34859 0.36759 0.2241 0.0
C794 C 0.41011 0.3742 0.22563 0.0
C795 C 0.42902 0.37466 0.24673 0.0
C796 C 0.44106 0.35161 0.25543 0.0
C797 C 0.43352 0.32806 0.24264 0.0
C798 C 0.41462 0.32766 0.22142 0.0
H799 H 0.32739 0.36686 0.22547 0.0
H800 H 0.35628 0.35474 0.24142 0.0
H801 H 0.35454 0.38775 0.22888 0.0
H802 H 0.40158 0.39229 0.21883 0.0
H803 H 0.4343 0.39315 0.25604 0.0
H804 H 0.70897 0.6545 0.5545 0.0
H805 H 0.68677 0.67026 0.59943 0.0
H806 H 0.67884 0.59167 0.63085 0.0
H807 H 0.70152 0.57593 0.58656 0.0
H808 H 0.63746 0.65727 0.61335 0.0
H809 H 0.69866 0.62903 0.70541 0.0
H810 H 0.71047 0.63052 0.66752 0.0
H811 H 0.69344 0.60236 0.68095 0.0
C812 C 0.70317 0.64069 0.57143 0.0
C813 C 0.70685 0.61398 0.56701 0.0
C814 C 0.69041 0.6497 0.597 0.0
C815 C 0.68143 0.63217 0.61863 0.0
C816 C 0.68609 0.6056 0.61479 0.0
H817 H 0.56849 0.60881 0.75023 0.0
H818 H 0.60427 0.60897 0.71461 0.0
C819 C 0.69877 0.5966 0.5893 0.0
C820 C 0.66438 0.64097 0.6433 0.0
H821 H 0.65352 0.63411 0.71763 0.0
C822 C 0.64121 0.65282 0.63627 0.0
C823 C 0.66934 0.63513 0.67313 0.0
C824 C 0.69447 0.6238 0.68223 0.0
C825 C 0.6221 0.65732 0.65802 0.0
C826 C 0.6265 0.65005 0.68757 0.0
C827 C 0.6502 0.63953 0.69488 0.0
C828 C 0.60583 0.65069 0.71049 0.0
C829 C 0.59678 0.66828 0.64895 0.0
C830 C 0.59508 0.67417 0.72022 0.0
C831 C 0.57447 0.6742 0.7406 0.0
C832 C 0.56432 0.6507 0.75155 0.0
C833 C 0.57563 0.62727 0.74216 0.0
C834 C 0.59619 0.6273 0.72189 0.0
H835 H 0.5952 0.66926 0.62453 0.0
H836 H 0.5808 0.65635 0.65814 0.0
H837 H 0.59455 0.68817 0.65793 0.0
H838 H 0.60249 0.69243 0.71188 0.0
H839 H 0.56635 0.6926 0.74749 0.0
H840 H 0.70459 0.42935 0.08729 0.0
H841 H 0.68112 0.42063 0.13378 0.0
H842 H 0.67552 0.33992 0.11031 0.0
H843 H 0.6989 0.34851 0.06375 0.0
H844 H 0.63114 0.40146 0.13059 0.0
H845 H 0.69066 0.33745 0.19941 0.0
H846 H 0.70402 0.35735 0.16993 0.0
H847 H 0.68795 0.32765 0.16151 0.0
C848 C 0.69886 0.40965 0.09237 0.0
C849 C 0.70338 0.38964 0.07182 0.0
C850 C 0.68557 0.40468 0.11895 0.0
C851 C 0.67671 0.37963 0.1255 0.0
C852 C 0.68262 0.35929 0.10592 0.0
H853 H 0.56043 0.31906 0.24746 0.0
H854 H 0.59551 0.324 0.21087 0.0
C855 C 0.69596 0.36424 0.07931 0.0
C856 C 0.65812 0.37566 0.1503 0.0
H857 H 0.64702 0.34241 0.21468 0.0
C858 C 0.6347 0.38874 0.14913 0.0
C859 C 0.66272 0.35872 0.17412 0.0
C860 C 0.68777 0.3446 0.17658 0.0
C861 C 0.61559 0.38519 0.171 0.0
C862 C 0.62025 0.36852 0.19507 0.0
C863 C 0.64361 0.35526 0.19623 0.0
C864 C 0.60092 0.36486 0.21917 0.0
C865 C 0.59034 0.39888 0.16776 0.0
C866 C 0.59291 0.38604 0.23643 0.0
C867 C 0.5728 0.38339 0.25707 0.0
C868 C 0.56047 0.35938 0.26111 0.0
C869 C 0.5694 0.33785 0.24478 0.0
C870 C 0.58947 0.34059 0.22394 0.0
H871 H 0.58751 0.40529 0.14463 0.0
H872 H 0.57416 0.38613 0.17465 0.0
H873 H 0.58983 0.41632 0.18208 0.0
H874 H 0.60187 0.40482 0.23345 0.0
H875 H 0.56673 0.40029 0.26959 0.0
H876 H 0.30547 0.5891 0.57965 0.0
H877 H 0.33121 0.5987 0.6225 0.0
H878 H 0.33197 0.67966 0.59898 0.0
H879 H 0.30627 0.67014 0.55575 0.0
H880 H 0.38115 0.62303 0.61221 0.0
H881 H 0.31805 0.67755 0.69152 0.0
H882 H 0.30546 0.65593 0.66411 0.0
H883 H 0.31807 0.68685 0.65312 0.0
C884 C 0.31077 0.60902 0.58387 0.0
C885 C 0.30412 0.62885 0.56422 0.0
C886 C 0.32536 0.61447 0.60838 0.0
C887 C 0.33341 0.63986 0.61386 0.0
C888 C 0.32563 0.65999 0.59529 0.0
H889 H 0.44437 0.69206 0.74261 0.0
H890 H 0.4121 0.69148 0.70442 0.0
C891 C 0.31097 0.65453 0.57066 0.0
C892 C 0.35241 0.64446 0.6368 0.0
H893 H 0.36082 0.67096 0.70497 0.0
C894 C 0.37675 0.63358 0.63246 0.0
C895 C 0.34663 0.65852 0.66292 0.0
C896 C 0.32062 0.67035 0.66849 0.0
C897 C 0.39542 0.63596 0.65382 0.0
C898 C 0.38938 0.64912 0.68051 0.0
C899 C 0.36529 0.66075 0.68452 0.0
C900 C 0.4076 0.64985 0.70489 0.0
C901 C 0.42147 0.62434 0.6476 0.0
C902 C 0.41524 0.62668 0.71818 0.0
C903 C 0.43368 0.62688 0.7398 0.0
C904 C 0.44476 0.65032 0.74878 0.0
C905 C 0.43637 0.67365 0.73611 0.0
C906 C 0.4179 0.67339 0.71436 0.0
H907 H 0.42524 0.62154 0.62352 0.0
H908 H 0.43676 0.63678 0.65647 0.0
H909 H 0.42252 0.6051 0.65845 0.0
H910 H 0.40714 0.60835 0.71154 0.0
H911 H 0.43938 0.60856 0.74928 0.0
H912 H 0.80208 0.91359 0.08554 0.0
H913 H 0.82585 0.90196 0.12929 0.0
H914 H 0.82751 0.82213 0.10128 0.0
H915 H 0.80455 0.83378 0.05678 0.0
H916 H 0.81776 0.86696 0.17587 0.0
H917 H 0.90318 0.84068 0.10614 0.0
H918 H 0.87619 0.85757 0.09145 0.0
H919 H 0.8744 0.82334 0.09845 0.0
C920 C 0.80743 0.89353 0.08873 0.0
C921 C 0.8018 0.87468 0.06745 0.0
C922 C 0.82084 0.88689 0.11384 0.0
C923 C 0.82887 0.86129 0.1182 0.0
C924 C 0.8219 0.84209 0.098 0.0
H925 H 0.94075 0.81073 0.24701 0.0
H926 H 0.90707 0.80952 0.21062 0.0
C927 C 0.80854 0.84874 0.07276 0.0
C928 C 0.8459 0.85531 0.14286 0.0
H929 H 0.90721 0.83822 0.15759 0.0
C930 C 0.83724 0.86042 0.17193 0.0
C931 C 0.87132 0.84679 0.13762 0.0
C932 C 0.882 0.84194 0.10675 0.0
C933 C 0.85351 0.85775 0.19586 0.0
C934 C 0.87914 0.85011 0.19047 0.0
C935 C 0.88751 0.84403 0.16159 0.0
C936 C 0.89817 0.85034 0.21402 0.0
C937 C 0.84323 0.86342 0.22667 0.0
C938 C 0.90441 0.87374 0.22777 0.0
C939 C 0.92369 0.87456 0.2484 0.0
C940 C 0.93722 0.85198 0.25566 0.0
C941 C 0.93072 0.82848 0.24202 0.0
C942 C 0.91147 0.82772 0.22124 0.0
H943 H 0.82211 0.86145 0.22816 0.0
H944 H 0.85176 0.85026 0.24313 0.0
H945 H 0.8481 0.88364 0.23261 0.0
H946 H 0.89476 0.89152 0.22202 0.0
H947 H 0.92813 0.89301 0.25843 0.0
H948 H 0.19326 0.07508 0.58322 0.0
H949 H 0.17042 0.08861 0.62847 0.0
H950 H 0.18613 0.16861 0.60732 0.0
H951 H 0.20836 0.15525 0.56142 0.0
H952 H 0.18304 0.11931 0.67803 0.0
H953 H 0.10764 0.16435 0.61039 0.0
H954 H 0.1317 0.14311 0.59455 0.0
H955 H 0.13966 0.17589 0.60383 0.0
C956 C 0.19201 0.09555 0.58831 0.0
C957 C 0.20222 0.11413 0.56856 0.0
C958 C 0.17913 0.10323 0.61425 0.0
C959 C 0.17621 0.12961 0.6209 0.0
C960 C 0.18785 0.14817 0.60228 0.0
H961 H 0.06441 0.1896 0.75197 0.0
H962 H 0.10052 0.18819 0.71641 0.0
C963 C 0.20073 0.14049 0.57624 0.0
C964 C 0.15919 0.1374 0.64598 0.0
H965 H 0.10056 0.16364 0.66173 0.0
C966 C 0.16515 0.12931 0.67458 0.0
C967 C 0.13588 0.15045 0.64133 0.0
C968 C 0.12812 0.15884 0.61089 0.0
C969 C 0.14805 0.1333 0.6986 0.0
C970 C 0.12428 0.1453 0.69368 0.0
C971 C 0.11884 0.15445 0.66536 0.0
C972 C 0.10381 0.14642 0.71686 0.0
C973 C 0.15541 0.12428 0.72891 0.0
C974 C 0.0936 0.12339 0.7286 0.0
C975 C 0.07295 0.12407 0.74875 0.0
C976 C 0.06196 0.14785 0.75746 0.0
C977 C 0.07238 0.17095 0.74577 0.0
C978 C 0.09305 0.17021 0.72552 0.0
H979 H 0.17649 0.12325 0.73079 0.0
H980 H 0.14756 0.13734 0.74642 0.0
H981 H 0.14761 0.10456 0.73291 0.0
H982 H 0.10122 0.10479 0.72164 0.0
H983 H 0.06547 0.10589 0.75724 0.0
H984 H 0.19608 0.84922 0.05579 0.0
H985 H 0.17006 0.83976 0.10036 0.0
H986 H 0.17563 0.91959 0.12728 0.0
H987 H 0.20189 0.9292 0.08299 0.0
H988 H 0.17704 0.85061 0.16559 0.0
H989 H 0.09764 0.90361 0.11319 0.0
H990 H 0.12525 0.89202 0.09235 0.0
H991 H 0.12748 0.9207 0.11456 0.0
C992 C 0.19237 0.8646 0.07161 0.0
C993 C 0.20078 0.89003 0.06577 0.0
C994 C 0.17745 0.85917 0.09697 0.0
C995 C 0.17074 0.87907 0.11676 0.0
C996 C 0.18045 0.90407 0.112 0.0
H997 H 0.06012 0.90097 0.25773 0.0
H998 H 0.09454 0.90441 0.22059 0.0
C999 C 0.19534 0.90953 0.0867 0.0
C1000 C 0.15159 0.8744 0.14075 0.0
H1001 H 0.09055 0.88961 0.16238 0.0
C1002 C 0.15808 0.85901 0.16497 0.0
C1003 C 0.1269 0.8853 0.13958 0.0
C1004 C 0.1187 0.90117 0.11345 0.0
C1005 C 0.1406 0.8549 0.18867 0.0
C1006 C 0.116 0.86612 0.18765 0.0
C1007 C 0.10948 0.88114 0.16314 0.0
C1008 C 0.09671 0.86325 0.21197 0.0
C1009 C 0.14878 0.83922 0.2149 0.0
C1010 C 0.0866 0.83889 0.21954 0.0
C1011 C 0.06684 0.83679 0.2409 0.0
C1012 C 0.05673 0.85909 0.25477 0.0
C1013 C 0.06727 0.88339 0.24738 0.0
C1014 C 0.08702 0.88542 0.2262 0.0
H1015 H 0.16988 0.83715 0.21538 0.0
H1016 H 0.14191 0.84826 0.23593 0.0
H1017 H 0.14037 0.81954 0.21367 0.0
H1018 H 0.09348 0.82159 0.20837 0.0
H1019 H 0.05913 0.81779 0.24601 0.0
H1020 H 0.80652 0.17047 0.56073 0.0
H1021 H 0.83215 0.17944 0.60428 0.0
H1022 H 0.83221 0.09806 0.62574 0.0
H1023 H 0.80667 0.089 0.58257 0.0
H1024 H 0.82577 0.16398 0.66934 0.0
H1025 H 0.909 0.12049 0.60873 0.0
H1026 H 0.88086 0.13154 0.59031 0.0
H1027 H 0.8805 0.10109 0.60957 0.0
C1028 C 0.81152 0.15463 0.57517 0.0
C1029 C 0.80497 0.12901 0.56811 0.0
C1030 C 0.82617 0.15976 0.59992 0.0
C1031 C 0.83432 0.13933 0.61783 0.0
C1032 C 0.82634 0.114 0.6119 0.0
H1033 H 0.9385 0.10768 0.75462 0.0
H1034 H 0.90622 0.10772 0.71688 0.0
C1035 C 0.81183 0.10887 0.58725 0.0
C1036 C 0.85295 0.14382 0.64119 0.0
H1037 H 0.91389 0.12902 0.65972 0.0
C1038 C 0.84513 0.15663 0.66724 0.0
C1039 C 0.87817 0.13426 0.63816 0.0
C1040 C 0.8878 0.12126 0.61011 0.0
C1041 C 0.86171 0.15914 0.69098 0.0
C1042 C 0.8867 0.14885 0.68823 0.0
C1043 C 0.89465 0.13673 0.6618 0.0
C1044 C 0.90478 0.14943 0.71275 0.0
C1045 C 0.85215 0.17189 0.71917 0.0
C1046 C 0.91462 0.17294 0.72298 0.0
C1047 C 0.93319 0.17303 0.74461 0.0
C1048 C 0.94232 0.14957 0.75624 0.0
C1049 C 0.93204 0.12611 0.74617 0.0
C1050 C 0.91353 0.12607 0.7246 0.0
H1051 H 0.83106 0.17423 0.71979 0.0
H1052 H 0.85775 0.16042 0.73873 0.0
H1053 H 0.86091 0.19138 0.72093 0.0
H1054 H 0.90842 0.19116 0.71373 0.0
H1055 H 0.94068 0.19145 0.75181 0.0
loop_
_geom_bond_atom_site_label_1
_geom_bond_atom_site_label_2
_geom_bond_distance
_geom_bond_site_symmetry_2
_ccdc_geom_bond_type
H0 C7 0.929 . S
H1 C10 0.930 . S
H2 C12 0.929 . S
H3 C4 0.969 . S
C4 H3 0.969 . S
C4 O5 1.550 1_556 S
C4 H6 0.973 . S
O5 C4 1.550 1_554 S
O5 C11 1.412 . S
H6 C4 0.973 . S
C7 H0 0.929 . S
C7 C8 1.400 . S
C7 C9 1.363 . S
C8 C7 1.400 . S
C8 C12 1.377 . S
C9 C7 1.363 . S
C9 C10 1.375 1_554 S
C10 H1 0.930 . S
C10 C9 1.375 1_556 S
C10 C11 1.383 1_556 S
C11 O5 1.412 . S
C11 C10 1.383 1_554 S
C11 C12 1.394 . S
C12 H2 0.929 . S
C12 C8 1.377 . S
C12 C11 1.394 . S
H13 C20 0.929 . S
H14 C23 0.930 . S
H15 C25 0.929 . S
H16 C17 0.969 . S
C17 H16 0.969 . S
C17 O18 1.550 . S
C17 H19 0.973 . S
O18 C17 1.550 . S
O18 C24 1.412 . S
H19 C17 0.973 . S
C20 H13 0.929 . S
C20 C21 1.400 . S
C20 C22 1.364 . S
C21 C20 1.400 . S
C21 C25 1.377 . S
C22 C20 1.364 . S
C22 C23 1.374 . S
C23 H14 0.930 . S
C23 C22 1.374 . S
C23 C24 1.383 . S
C24 O18 1.412 . S
C24 C23 1.383 . S
C24 C25 1.394 . S
C25 H15 0.929 . S
C25 C21 1.377 . S
C25 C24 1.394 . S
H26 C33 0.929 . S
H27 C36 0.930 . S
H28 C38 0.929 . S
H29 C30 0.969 . S
C30 H29 0.969 . S
C30 O31 1.550 . S
C30 H32 0.973 1_556 S
O31 C30 1.550 . S
O31 C37 1.412 . S
H32 C30 0.973 1_554 S
C33 H26 0.929 . S
C33 C34 1.400 1_554 S
C33 C35 1.364 . S
C34 C33 1.400 1_556 S
C34 C38 1.377 . S
C35 C33 1.364 . S
C35 C36 1.374 . S
C36 H27 0.930 . S
C36 C35 1.374 . S
C36 C37 1.383 1_554 S
C37 O31 1.412 . S
C37 C36 1.383 1_556 S
C37 C38 1.394 . S
C38 H28 0.929 . S
C38 C34 1.377 . S
C38 C37 1.394 . S
H39 C46 0.929 . S
H40 C49 0.930 . S
H41 C51 0.929 . S
H42 C43 0.969 . S
C43 H42 0.969 . S
C43 O44 1.550 . S
C43 H45 0.973 . S
O44 C43 1.550 . S
O44 C50 1.412 . S
H45 C43 0.973 . S
C46 H39 0.929 . S
C46 C47 1.400 . S
C46 C48 1.364 . S
C47 C46 1.400 . S
C47 C51 1.377 . S
C48 C46 1.364 . S
C48 C49 1.374 . S
C49 H40 0.930 . S
C49 C48 1.374 . S
C49 C50 1.383 . S
C50 O44 1.412 . S
C50 C49 1.383 . S
C50 C51 1.394 . S
C51 H41 0.929 . S
C51 C47 1.377 . S
C51 C50 1.394 . S
H52 C59 0.929 . S
H53 C62 0.930 . S
H54 C64 0.929 . S
H55 C56 0.969 . S
C56 H55 0.969 . S
C56 O57 1.550 1_556 S
C56 H58 0.973 . S
O57 C56 1.550 1_554 S
O57 C63 1.412 . S
H58 C56 0.973 . S
C59 H52 0.929 . S
C59 C60 1.400 . S
C59 C61 1.363 . S
C60 C59 1.400 . S
C60 C64 1.377 . S
C61 C59 1.363 . S
C61 C62 1.375 1_554 S
C62 H53 0.930 . S
C62 C61 1.375 1_556 S
C62 C63 1.383 1_556 S
C63 O57 1.412 . S
C63 C62 1.383 1_554 S
C63 C64 1.394 . S
C64 H54 0.929 . S
C64 C60 1.377 . S
C64 C63 1.394 . S
H65 C72 0.929 . S
H66 C75 0.930 . S
H67 C77 0.929 . S
H68 C69 0.969 . S
C69 H68 0.969 . S
C69 O70 1.550 . S
C69 H71 0.973 . S
O70 C69 1.550 . S
O70 C76 1.412 . S
H71 C69 0.973 . S
C72 H65 0.929 . S
C72 C73 1.400 . S
C72 C74 1.364 . S
C73 C72 1.400 . S
C73 C77 1.377 . S
C74 C72 1.364 . S
C74 C75 1.374 . S
C75 H66 0.930 . S
C75 C74 1.374 . S
C75 C76 1.383 . S
C76 O70 1.412 . S
C76 C75 1.383 . S
C76 C77 1.394 . S
C77 H67 0.929 . S
C77 C73 1.377 . S
C77 C76 1.394 . S
H78 C85 0.929 . S
H79 C88 0.930 . S
H80 C90 0.929 . S
H81 C82 0.969 . S
C82 H81 0.969 . S
C82 O83 1.550 . S
C82 H84 0.973 1_556 S
O83 C82 1.550 . S
O83 C89 1.412 . S
H84 C82 0.973 1_554 S
C85 H78 0.929 . S
C85 C86 1.400 1_554 S
C85 C87 1.364 . S
C86 C85 1.400 1_556 S
C86 C90 1.377 . S
C87 C85 1.364 . S
C87 C88 1.374 . S
C88 H79 0.930 . S
C88 C87 1.374 . S
C88 C89 1.383 1_554 S
C89 O83 1.412 . S
C89 C88 1.383 1_556 S
C89 C90 1.394 . S
C90 H80 0.929 . S
C90 C86 1.377 . S
C90 C89 1.394 . S
H91 C98 0.929 . S
H92 C101 0.930 . S
H93 C103 0.929 . S
H94 C95 0.969 . S
C95 H94 0.969 . S
C95 O96 1.550 . S
C95 H97 0.973 . S
O96 C95 1.550 . S
O96 C102 1.412 . S
H97 C95 0.973 . S
C98 H91 0.929 . S
C98 C99 1.400 . S
C98 C100 1.364 . S
C99 C98 1.400 . S
C99 C103 1.377 . S
C100 C98 1.364 . S
C100 C101 1.374 . S
C101 H92 0.930 . S
C101 C100 1.374 . S
C101 C102 1.383 . S
C102 O96 1.412 . S
C102 C101 1.383 . S
C102 C103 1.394 . S
C103 H93 0.929 . S
C103 C99 1.377 . S
C103 C102 1.394 . S
Sc104 O107 2.025 . S
Sc104 O114 2.105 1_455 S
Sc104 O117 2.105 . S
Sc104 O120 2.105 . S
Sc104 O123 2.105 1_455 S
Sc105 O107 2.025 . S
Sc105 O115 2.105 1_455 S
Sc105 O119 2.105 . S
Sc105 O121 2.105 . S
Sc105 O125 2.105 1_455 S
Sc106 O107 2.025 . S
Sc106 O116 2.076 1_455 S
Sc106 O118 2.134 . S
Sc106 O122 2.134 . S
Sc106 O124 2.076 1_455 S
O107 Sc104 2.025 . S
O107 Sc105 2.025 . S
O107 Sc106 2.025 . S
C108 O114 1.268 . S
C108 O124 1.268 . S
C109 O115 1.268 . S
C109 O123 1.268 . S
C110 O116 1.268 . S
C110 O125 1.268 . S
C111 O117 1.268 . S
C111 O121 1.268 . S
C112 O118 1.268 . S
C112 O120 1.268 . S
C113 O119 1.268 . S
C113 O122 1.268 . S
O114 Sc104 2.105 1_655 S
O114 C108 1.268 . S
O115 Sc105 2.105 1_655 S
O115 C109 1.268 . S
O116 Sc106 2.076 1_655 S
O116 C110 1.268 . S
O117 Sc104 2.105 . S
O117 C111 1.268 . S
O118 Sc106 2.134 . S
O118 C112 1.268 . S
O119 Sc105 2.105 . S
O119 C113 1.268 . S
O120 Sc104 2.105 . S
O120 C112 1.268 . S
O121 Sc105 2.105 . S
O121 C111 1.268 . S
O122 Sc106 2.134 . S
O122 C113 1.268 . S
O123 Sc104 2.105 1_655 S
O123 C109 1.268 . S
O124 Sc106 2.076 1_655 S
O124 C108 1.268 . S
O125 Sc105 2.105 1_655 S
O125 C110 1.268 . S
Sc126 O129 2.025 . S
Sc126 O136 2.105 . S
Sc126 O139 2.105 1_455 S
Sc126 O142 2.105 1_455 S
Sc126 O145 2.105 . S
Sc127 O129 2.025 . S
Sc127 O137 2.105 . S
Sc127 O141 2.105 1_455 S
Sc127 O143 2.105 1_455 S
Sc127 O147 2.105 . S
Sc128 O129 2.025 . S
Sc128 O138 2.134 . S
Sc128 O140 2.076 1_455 S
Sc128 O144 2.076 1_455 S
Sc128 O146 2.134 . S
O129 Sc126 2.025 . S
O129 Sc127 2.025 . S
O129 Sc128 2.025 . S
C130 O136 1.268 . S
C130 O146 1.268 . S
C131 O137 1.268 . S
C131 O145 1.268 . S
C132 O138 1.268 . S
C132 O147 1.268 . S
C133 O139 1.268 . S
C133 O143 1.268 . S
C134 O140 1.268 . S
C134 O142 1.268 . S
C135 O141 1.268 . S
C135 O144 1.268 . S
O136 Sc126 2.105 . S
O136 C130 1.268 . S
O137 Sc127 2.105 . S
O137 C131 1.268 . S
O138 Sc128 2.134 . S
O138 C132 1.268 . S
O139 Sc126 2.105 1_655 S
O139 C133 1.268 . S
O140 Sc128 2.076 1_655 S
O140 C134 1.268 . S
O141 Sc127 2.105 1_655 S
O141 C135 1.268 . S
O142 Sc126 2.105 1_655 S
O142 C134 1.268 . S
O143 Sc127 2.105 1_655 S
O143 C133 1.268 . S
O144 Sc128 2.076 1_655 S
O144 C135 1.268 . S
O145 Sc126 2.105 . S
O145 C131 1.268 . S
O146 Sc128 2.134 . S
O146 C130 1.268 . S
O147 Sc127 2.105 . S
O147 C132 1.268 . S
Sc148 O151 2.025 . S
Sc148 O158 2.105 . S
Sc148 O161 2.105 . S
Sc148 O164 2.105 . S
Sc148 O167 2.105 . S
Sc149 O151 2.025 . S
Sc149 O159 2.105 . S
Sc149 O163 2.105 . S
Sc149 O165 2.105 . S
Sc149 O169 2.105 . S
Sc150 O151 2.025 . S
Sc150 O160 2.105 . S
Sc150 O162 2.105 . S
Sc150 O166 2.105 . S
Sc150 O168 2.105 . S
O151 Sc148 2.025 . S
O151 Sc149 2.025 . S
O151 Sc150 2.025 . S
C152 O158 1.268 . S
C152 O168 1.268 . S
C153 O159 1.268 . S
C153 O167 1.268 . S
C154 O160 1.268 . S
C154 O169 1.268 . S
C155 O161 1.268 . S
C155 O165 1.268 . S
C156 O162 1.268 . S
C156 O164 1.268 . S
C157 O163 1.268 . S
C157 O166 1.268 . S
O158 Sc148 2.105 . S
O158 C152 1.268 . S
O159 Sc149 2.105 . S
O159 C153 1.268 . S
O160 Sc150 2.105 . S
O160 C154 1.268 . S
O161 Sc148 2.105 . S
O161 C155 1.268 . S
O162 Sc150 2.105 . S
O162 C156 1.268 . S
O163 Sc149 2.105 . S
O163 C157 1.268 . S
O164 Sc148 2.105 . S
O164 C156 1.268 . S
O165 Sc149 2.105 . S
O165 C155 1.268 . S
O166 Sc150 2.105 . S
O166 C157 1.268 . S
O167 Sc148 2.105 . S
O167 C153 1.268 . S
O168 Sc150 2.105 . S
O168 C152 1.268 . S
O169 Sc149 2.105 . S
O169 C154 1.268 . S
Sc170 O173 2.025 . S
Sc170 O180 2.105 . S
Sc170 O183 2.105 . S
Sc170 O186 2.105 . S
Sc170 O189 2.105 . S
Sc171 O173 2.025 . S
Sc171 O181 2.105 . S
Sc171 O185 2.105 . S
Sc171 O187 2.105 . S
Sc171 O191 2.105 . S
Sc172 O173 2.025 . S
Sc172 O182 2.105 . S
Sc172 O184 2.105 . S
Sc172 O188 2.105 . S
Sc172 O190 2.105 . S
O173 Sc170 2.025 . S
O173 Sc171 2.025 . S
O173 Sc172 2.025 . S
C174 O180 1.268 . S
C174 O190 1.268 . S
C175 O181 1.268 . S
C175 O189 1.268 . S
C176 O182 1.268 . S
C176 O191 1.268 . S
C177 O183 1.268 . S
C177 O187 1.268 . S
C178 O184 1.268 . S
C178 O186 1.268 . S
C179 O185 1.268 . S
C179 O188 1.268 . S
O180 Sc170 2.105 . S
O180 C174 1.268 . S
O181 Sc171 2.105 . S
O181 C175 1.268 . S
O182 Sc172 2.105 . S
O182 C176 1.268 . S
O183 Sc170 2.105 . S
O183 C177 1.268 . S
O184 Sc172 2.105 . S
O184 C178 1.268 . S
O185 Sc171 2.105 . S
O185 C179 1.268 . S
O186 Sc170 2.105 . S
O186 C178 1.268 . S
O187 Sc171 2.105 . S
O187 C177 1.268 . S
O188 Sc172 2.105 . S
O188 C179 1.268 . S
O189 Sc170 2.105 . S
O189 C175 1.268 . S
O190 Sc172 2.105 . S
O190 C174 1.268 . S
O191 Sc171 2.105 . S
O191 C176 1.268 . S
H192 C200 0.929 . S
H193 C202 0.930 . S
H194 C204 0.930 . S
H195 C207 0.929 1_554 S
H196 C210 0.930 . S
H197 C212 0.960 . S
H198 C212 0.960 . S
H199 C212 0.960 . S
C200 H192 0.929 . S
C200 C201 1.377 . S
C200 C202 1.384 . S
C201 C200 1.377 . S
C201 C207 1.390 . S
C202 H193 0.930 . S
C202 C200 1.384 . S
C202 C203 1.372 . S
C203 C202 1.372 . S
C203 C204 1.400 . S
C203 C208 1.490 . S
C204 H194 0.930 . S
C204 C203 1.400 . S
C204 C207 1.386 . S
H205 C221 0.930 . S
H206 C222 0.931 . S
C207 H195 0.929 1_556 S
C207 C201 1.390 . S
C207 C204 1.386 . S
C208 C203 1.490 . S
C208 C210 1.395 . S
C208 C211 1.403 . S
H209 C215 0.930 . S
C210 H196 0.930 . S
C210 C208 1.395 . S
C210 C213 1.403 . S
C211 C208 1.403 . S
C211 C212 1.524 . S
C211 C215 1.400 . S
C212 H197 0.960 . S
C212 H198 0.960 . S
C212 H199 0.960 . S
C212 C211 1.524 . S
C213 C210 1.403 . S
C213 C214 1.392 . S
C213 C217 1.495 . S
C214 C213 1.392 . S
C214 C215 1.385 . S
C214 C216 1.478 . S
C215 H209 0.930 . S
C215 C211 1.400 . S
C215 C214 1.385 . S
C216 C214 1.478 . S
C216 C218 1.381 . S
C216 C222 1.383 . S
C217 C213 1.495 . S
C217 H223 0.959 . S
C217 H224 0.961 . S
C217 H225 0.960 . S
C218 C216 1.381 . S
C218 C219 1.394 . S
C218 H226 0.930 . S
C219 C218 1.394 . S
C219 C220 1.383 . S
C219 H227 0.929 . S
C220 C219 1.383 . S
C220 C221 1.377 . S
C221 H205 0.930 . S
C221 C220 1.377 . S
C221 C222 1.379 . S
C222 H206 0.931 . S
C222 C216 1.383 . S
C222 C221 1.379 . S
H223 C217 0.959 . S
H224 C217 0.961 . S
H225 C217 0.960 . S
H226 C218 0.930 . S
H227 C219 0.929 . S
H228 C236 0.929 . S
H229 C238 0.930 . S
H230 C240 0.930 . S
H231 C243 0.929 . S
H232 C246 0.930 . S
H233 C248 0.960 . S
H234 C248 0.960 . S
H235 C248 0.960 . S
C236 H228 0.929 . S
C236 C237 1.377 . S
C236 C238 1.384 . S
C237 C236 1.377 . S
C237 C243 1.390 . S
C238 H229 0.930 . S
C238 C236 1.384 . S
C238 C239 1.372 . S
C239 C238 1.372 . S
C239 C240 1.400 . S
C239 C244 1.490 . S
C240 H230 0.930 . S
C240 C239 1.400 . S
C240 C243 1.386 . S
H241 C257 0.930 . S
H242 C258 0.931 . S
C243 H231 0.929 . S
C243 C237 1.390 . S
C243 C240 1.386 . S
C244 C239 1.490 . S
C244 C246 1.395 . S
C244 C247 1.403 . S
H245 C251 0.930 . S
C246 H232 0.930 . S
C246 C244 1.395 . S
C246 C249 1.403 . S
C247 C244 1.403 . S
C247 C248 1.524 . S
C247 C251 1.400 . S
C248 H233 0.960 . S
C248 H234 0.960 . S
C248 H235 0.960 . S
C248 C247 1.524 . S
C249 C246 1.403 . S
C249 C250 1.392 . S
C249 C253 1.495 . S
C250 C249 1.392 . S
C250 C251 1.385 . S
C250 C252 1.478 . S
C251 H245 0.930 . S
C251 C247 1.400 . S
C251 C250 1.385 . S
C252 C250 1.478 . S
C252 C254 1.381 . S
C252 C258 1.383 . S
C253 C249 1.495 . S
C253 H259 0.959 . S
C253 H260 0.961 . S
C253 H261 0.960 . S
C254 C252 1.381 . S
C254 C255 1.394 . S
C254 H262 0.930 . S
C255 C254 1.394 . S
C255 C256 1.383 . S
C255 H263 0.929 . S
C256 C255 1.383 . S
C256 C257 1.377 . S
C257 H241 0.930 . S
C257 C256 1.377 . S
C257 C258 1.379 . S
C258 H242 0.931 . S
C258 C252 1.383 . S
C258 C257 1.379 . S
H259 C253 0.959 . S
H260 C253 0.961 . S
H261 C253 0.960 . S
H262 C254 0.930 . S
H263 C255 0.929 . S
H264 C272 0.929 1_554 S
H265 C274 0.930 . S
H266 C276 0.930 . S
H267 C279 0.929 . S
H268 C282 0.930 . S
H269 C284 0.960 . S
H270 C284 0.960 . S
H271 C284 0.960 . S
C272 H264 0.929 1_556 S
C272 C273 1.377 . S
C272 C274 1.384 . S
C273 C272 1.377 . S
C273 C279 1.390 . S
C274 H265 0.930 . S
C274 C272 1.384 . S
C274 C275 1.372 . S
C275 C274 1.372 . S
C275 C276 1.400 . S
C275 C280 1.490 . S
C276 H266 0.930 . S
C276 C275 1.400 . S
C276 C279 1.386 . S
H277 C293 0.930 . S
H278 C294 0.931 . S
C279 H267 0.929 . S
C279 C273 1.390 . S
C279 C276 1.386 . S
C280 C275 1.490 . S
C280 C282 1.395 . S
C280 C283 1.403 . S
H281 C287 0.930 . S
C282 H268 0.930 . S
C282 C280 1.395 . S
C282 C285 1.403 . S
C283 C280 1.403 . S
C283 C284 1.524 . S
C283 C287 1.400 . S
C284 H269 0.960 . S
C284 H270 0.960 . S
C284 H271 0.960 . S
C284 C283 1.524 . S
C285 C282 1.403 . S
C285 C286 1.392 . S
C285 C289 1.495 . S
C286 C285 1.392 . S
C286 C287 1.385 . S
C286 C288 1.478 . S
C287 H281 0.930 . S
C287 C283 1.400 . S
C287 C286 1.385 . S
C288 C286 1.478 . S
C288 C290 1.381 . S
C288 C294 1.383 . S
C289 C285 1.495 . S
C289 H295 0.959 . S
C289 H296 0.961 . S
C289 H297 0.960 . S
C290 C288 1.381 . S
C290 C291 1.394 . S
C290 H298 0.930 . S
C291 C290 1.394 . S
C291 C292 1.383 . S
C291 H299 0.929 . S
C292 C291 1.383 . S
C292 C293 1.377 . S
C293 H277 0.930 . S
C293 C292 1.377 . S
C293 C294 1.379 . S
C294 H278 0.931 . S
C294 C288 1.383 . S
C294 C293 1.379 . S
H295 C289 0.959 . S
H296 C289 0.961 . S
H297 C289 0.960 . S
H298 C290 0.930 . S
H299 C291 0.929 . S
H300 C308 0.929 . S
H301 C310 0.930 . S
H302 C312 0.930 . S
H303 C315 0.929 . S
H304 C318 0.930 . S
H305 C320 0.960 . S
H306 C320 0.960 . S
H307 C320 0.960 . S
C308 H300 0.929 . S
C308 C309 1.377 . S
C308 C310 1.384 . S
C309 C308 1.377 . S
C309 C315 1.390 . S
C310 H301 0.930 . S
C310 C308 1.384 . S
C310 C311 1.372 . S
C311 C310 1.372 . S
C311 C312 1.400 . S
C311 C316 1.490 . S
C312 H302 0.930 . S
C312 C311 1.400 . S
C312 C315 1.386 . S
H313 C329 0.930 . S
H314 C330 0.931 . S
C315 H303 0.929 . S
C315 C309 1.390 . S
C315 C312 1.386 . S
C316 C311 1.490 . S
C316 C318 1.395 . S
C316 C319 1.403 . S
H317 C323 0.930 . S
C318 H304 0.930 . S
C318 C316 1.395 . S
C318 C321 1.403 . S
C319 C316 1.403 . S
C319 C320 1.524 . S
C319 C323 1.400 . S
C320 H305 0.960 . S
C320 H306 0.960 . S
C320 H307 0.960 . S
C320 C319 1.524 . S
C321 C318 1.403 . S
C321 C322 1.392 . S
C321 C325 1.495 . S
C322 C321 1.392 . S
C322 C323 1.385 . S
C322 C324 1.478 . S
C323 H317 0.930 . S
C323 C319 1.400 . S
C323 C322 1.385 . S
C324 C322 1.478 . S
C324 C326 1.381 . S
C324 C330 1.383 . S
C325 C321 1.495 . S
C325 H331 0.959 . S
C325 H332 0.961 . S
C325 H333 0.960 . S
C326 C324 1.381 . S
C326 C327 1.394 . S
C326 H334 0.930 . S
C327 C326 1.394 . S
C327 C328 1.383 . S
C327 H335 0.929 . S
C328 C327 1.383 . S
C328 C329 1.377 . S
C329 H313 0.930 . S
C329 C328 1.377 . S
C329 C330 1.379 . S
C330 H314 0.931 . S
C330 C324 1.383 . S
C330 C329 1.379 . S
H331 C325 0.959 . S
H332 C325 0.961 . S
H333 C325 0.960 . S
H334 C326 0.930 . S
H335 C327 0.929 . S
H336 C344 0.914 1_554 S
H337 C346 0.930 . S
H338 C348 0.930 . S
H339 C351 0.929 . S
H340 C354 0.930 . S
H341 C356 0.960 . S
H342 C356 0.960 . S
H343 C356 0.960 . S
C344 H336 0.914 1_556 S
C344 C345 1.377 . S
C344 C346 1.384 . S
C345 C344 1.377 . S
C345 C351 1.390 . S
C346 H337 0.930 . S
C346 C344 1.384 . S
C346 C347 1.372 . S
C347 C346 1.372 . S
C347 C348 1.400 . S
C347 C352 1.490 . S
C348 H338 0.930 . S
C348 C347 1.400 . S
C348 C351 1.386 . S
H349 C365 0.930 . S
H350 C366 0.931 . S
C351 H339 0.929 . S
C351 C345 1.390 . S
C351 C348 1.386 . S
C352 C347 1.490 . S
C352 C354 1.395 . S
C352 C355 1.403 . S
H353 C359 0.930 . S
C354 H340 0.930 . S
C354 C352 1.395 . S
C354 C357 1.403 . S
C355 C352 1.403 . S
C355 C356 1.524 . S
C355 C359 1.400 . S
C356 H341 0.960 . S
C356 H342 0.960 . S
C356 H343 0.960 . S
C356 C355 1.524 . S
C357 C354 1.403 . S
C357 C358 1.392 . S
C357 C361 1.495 . S
C358 C357 1.392 . S
C358 C359 1.385 . S
C358 C360 1.478 . S
C359 H353 0.930 . S
C359 C355 1.400 . S
C359 C358 1.385 . S
C360 C358 1.478 . S
C360 C362 1.381 . S
C360 C366 1.383 . S
C361 C357 1.495 . S
C361 H367 0.959 . S
C361 H368 0.961 . S
C361 H369 0.960 . S
C362 C360 1.381 . S
C362 C363 1.394 . S
C362 H370 0.930 . S
C363 C362 1.394 . S
C363 C364 1.383 . S
C363 H371 0.929 . S
C364 C363 1.383 . S
C364 C365 1.377 . S
C365 H349 0.930 . S
C365 C364 1.377 . S
C365 C366 1.379 . S
C366 H350 0.931 . S
C366 C360 1.383 . S
C366 C365 1.379 . S
H367 C361 0.959 . S
H368 C361 0.961 . S
H369 C361 0.960 . S
H370 C362 0.930 . S
H371 C363 0.929 . S
H372 C380 0.929 . S
H373 C382 0.930 . S
H374 C384 0.930 . S
H375 C387 0.929 . S
H376 C390 0.930 . S
H377 C392 0.960 . S
H378 C392 0.960 . S
H379 C392 0.960 . S
C380 H372 0.929 . S
C380 C381 1.377 . S
C380 C382 1.384 . S
C381 C380 1.377 . S
C381 C387 1.390 . S
C382 H373 0.930 . S
C382 C380 1.384 . S
C382 C383 1.372 . S
C383 C382 1.372 . S
C383 C384 1.400 . S
C383 C388 1.490 . S
C384 H374 0.930 . S
C384 C383 1.400 . S
C384 C387 1.386 . S
H385 C401 0.930 . S
H386 C402 0.931 . S
C387 H375 0.929 . S
C387 C381 1.390 . S
C387 C384 1.386 . S
C388 C383 1.490 . S
C388 C390 1.395 . S
C388 C391 1.403 . S
H389 C395 0.930 . S
C390 H376 0.930 . S
C390 C388 1.395 . S
C390 C393 1.403 . S
C391 C388 1.403 . S
C391 C392 1.524 . S
C391 C395 1.400 . S
C392 H377 0.960 . S
C392 H378 0.960 . S
C392 H379 0.960 . S
C392 C391 1.524 . S
C393 C390 1.403 . S
C393 C394 1.392 . S
C393 C397 1.495 . S
C394 C393 1.392 . S
C394 C395 1.385 . S
C394 C396 1.478 . S
C395 H389 0.930 . S
C395 C391 1.400 . S
C395 C394 1.385 . S
C396 C394 1.478 . S
C396 C398 1.381 . S
C396 C402 1.383 . S
C397 C393 1.495 . S
C397 H403 0.959 . S
C397 H404 0.961 . S
C397 H405 0.960 . S
C398 C396 1.381 . S
C398 C399 1.394 . S
C398 H406 0.930 . S
C399 C398 1.394 . S
C399 C400 1.383 . S
C399 H407 0.929 . S
C400 C399 1.383 . S
C400 C401 1.377 . S
C401 H385 0.930 . S
C401 C400 1.377 . S
C401 C402 1.379 . S
C402 H386 0.931 . S
C402 C396 1.383 . S
C402 C401 1.379 . S
H403 C397 0.959 . S
H404 C397 0.961 . S
H405 C397 0.960 . S
H406 C398 0.930 . S
H407 C399 0.929 . S
H408 C416 0.929 1_554 S
H409 C418 0.930 . S
H410 C420 0.930 . S
H411 C423 0.929 . S
H412 C426 0.930 . S
H413 C428 0.960 . S
H414 C428 0.960 . S
H415 C428 0.960 . S
C416 H408 0.929 1_556 S
C416 C417 1.377 . S
C416 C418 1.384 . S
C417 C416 1.377 . S
C417 C423 1.390 . S
C418 H409 0.930 . S
C418 C416 1.384 . S
C418 C419 1.372 . S
C419 C418 1.372 . S
C419 C420 1.400 . S
C419 C424 1.490 . S
C420 H410 0.930 . S
C420 C419 1.400 . S
C420 C423 1.386 . S
H421 C437 0.930 . S
H422 C438 0.931 . S
C423 H411 0.929 . S
C423 C417 1.390 . S
C423 C420 1.386 . S
C424 C419 1.490 . S
C424 C426 1.395 . S
C424 C427 1.403 . S
H425 C431 0.930 . S
C426 H412 0.930 . S
C426 C424 1.395 . S
C426 C429 1.403 . S
C427 C424 1.403 . S
C427 C428 1.524 . S
C427 C431 1.400 . S
C428 H413 0.960 . S
C428 H414 0.960 . S
C428 H415 0.960 . S
C428 C427 1.524 . S
C429 C426 1.403 . S
C429 C430 1.392 . S
C429 C433 1.495 . S
C430 C429 1.392 . S
C430 C431 1.385 . S
C430 C432 1.478 . S
C431 H425 0.930 . S
C431 C427 1.400 . S
C431 C430 1.385 . S
C432 C430 1.478 . S
C432 C434 1.381 . S
C432 C438 1.383 . S
C433 C429 1.495 . S
C433 H439 0.959 . S
C433 H440 0.961 . S
C433 H441 0.960 . S
C434 C432 1.381 . S
C434 C435 1.394 . S
C434 H442 0.930 . S
C435 C434 1.394 . S
C435 C436 1.383 . S
C435 H443 0.929 . S
C436 C435 1.383 . S
C436 C437 1.377 . S
C437 H421 0.930 . S
C437 C436 1.377 . S
C437 C438 1.379 . S
C438 H422 0.931 . S
C438 C432 1.383 . S
C438 C437 1.379 . S
H439 C433 0.959 . S
H440 C433 0.961 . S
H441 C433 0.960 . S
H442 C434 0.930 . S
H443 C435 0.929 . S
H444 C452 0.929 . S
H445 C454 0.930 . S
H446 C456 0.930 . S
H447 C459 0.929 . S
H448 C462 0.930 . S
H449 C464 0.960 . S
H450 C464 0.960 . S
H451 C464 0.960 . S
C452 H444 0.929 . S
C452 C453 1.377 . S
C452 C454 1.384 . S
C453 C452 1.377 . S
C453 C459 1.390 . S
C454 H445 0.930 . S
C454 C452 1.384 . S
C454 C455 1.372 . S
C455 C454 1.372 . S
C455 C456 1.400 . S
C455 C460 1.490 . S
C456 H446 0.930 . S
C456 C455 1.400 . S
C456 C459 1.386 . S
H457 C473 0.930 . S
H458 C474 0.931 . S
C459 H447 0.929 . S
C459 C453 1.390 . S
C459 C456 1.386 . S
C460 C455 1.490 . S
C460 C462 1.395 . S
C460 C463 1.403 . S
H461 C467 0.930 . S
C462 H448 0.930 . S
C462 C460 1.395 . S
C462 C465 1.403 . S
C463 C460 1.403 . S
C463 C464 1.524 . S
C463 C467 1.400 . S
C464 H449 0.960 . S
C464 H450 0.960 . S
C464 H451 0.960 . S
C464 C463 1.524 . S
C465 C462 1.403 . S
C465 C466 1.392 . S
C465 C469 1.495 . S
C466 C465 1.392 . S
C466 C467 1.385 . S
C466 C468 1.478 . S
C467 H461 0.930 . S
C467 C463 1.400 . S
C467 C466 1.385 . S
C468 C466 1.478 . S
C468 C470 1.381 . S
C468 C474 1.383 . S
C469 C465 1.495 . S
C469 H475 0.959 . S
C469 H476 0.961 . S
C469 H477 0.960 . S
C470 C468 1.381 . S
C470 C471 1.394 . S
C470 H478 0.930 . S
C471 C470 1.394 . S
C471 C472 1.383 . S
C471 H479 0.929 . S
C472 C471 1.383 . S
C472 C473 1.377 . S
C473 H457 0.930 . S
C473 C472 1.377 . S
C473 C474 1.379 . S
C474 H458 0.931 . S
C474 C468 1.383 . S
C474 C473 1.379 . S
H475 C469 0.959 . S
H476 C469 0.961 . S
H477 C469 0.960 . S
H478 C470 0.930 . S
H479 C471 0.929 . S
H480 C488 0.929 . S
H481 C490 0.930 . S
H482 C492 0.930 . S
H483 C495 0.929 1_554 S
H484 C498 0.930 . S
H485 C500 0.960 . S
H486 C500 0.960 . S
H487 C500 0.960 . S
C488 H480 0.929 . S
C488 C489 1.377 . S
C488 C490 1.384 . S
C489 C488 1.377 . S
C489 C495 1.390 . S
C490 H481 0.930 . S
C490 C488 1.384 . S
C490 C491 1.372 . S
C491 C490 1.372 . S
C491 C492 1.400 . S
C491 C496 1.490 . S
C492 H482 0.930 . S
C492 C491 1.400 . S
C492 C495 1.386 . S
H493 C509 0.930 . S
H494 C510 0.931 . S
C495 H483 0.929 1_556 S
C495 C489 1.390 . S
C495 C492 1.386 . S
C496 C491 1.490 . S
C496 C498 1.395 . S
C496 C499 1.403 . S
H497 C503 0.930 . S
C498 H484 0.930 . S
C498 C496 1.395 . S
C498 C501 1.403 . S
C499 C496 1.403 . S
C499 C500 1.524 . S
C499 C503 1.400 . S
C500 H485 0.960 . S
C500 H486 0.960 . S
C500 H487 0.960 . S
C500 C499 1.524 . S
C501 C498 1.403 . S
C501 C502 1.392 . S
C501 C505 1.495 . S
C502 C501 1.392 . S
C502 C503 1.385 . S
C502 C504 1.478 . S
C503 H497 0.930 . S
C503 C499 1.400 . S
C503 C502 1.385 . S
C504 C502 1.478 . S
C504 C506 1.381 . S
C504 C510 1.383 . S
C505 C501 1.495 . S
C505 H511 0.959 . S
C505 H512 0.961 . S
C505 H513 0.960 . S
C506 C504 1.381 . S
C506 C507 1.394 . S
C506 H514 0.930 . S
C507 C506 1.394 . S
C507 C508 1.383 . S
C507 H515 0.929 . S
C508 C507 1.383 . S
C508 C509 1.377 . S
C509 H493 0.930 . S
C509 C508 1.377 . S
C509 C510 1.379 . S
C510 H494 0.931 . S
C510 C504 1.383 . S
C510 C509 1.379 . S
H511 C505 0.959 . S
H512 C505 0.961 . S
H513 C505 0.960 . S
H514 C506 0.930 . S
H515 C507 0.929 . S
H516 C524 0.929 . S
H517 C526 0.930 . S
H518 C528 0.930 . S
H519 C531 0.929 . S
H520 C534 0.930 . S
H521 C536 0.960 . S
H522 C536 0.960 . S
H523 C536 0.960 . S
C524 H516 0.929 . S
C524 C525 1.377 . S
C524 C526 1.384 . S
C525 C524 1.377 . S
C525 C531 1.390 . S
C526 H517 0.930 . S
C526 C524 1.384 . S
C526 C527 1.372 . S
C527 C526 1.372 . S
C527 C528 1.400 . S
C527 C532 1.490 . S
C528 H518 0.930 . S
C528 C527 1.400 . S
C528 C531 1.386 . S
H529 C545 0.930 . S
H530 C546 0.931 . S
C531 H519 0.929 . S
C531 C525 1.390 . S
C531 C528 1.386 . S
C532 C527 1.490 . S
C532 C534 1.395 . S
C532 C535 1.403 . S
H533 C539 0.930 . S
C534 H520 0.930 . S
C534 C532 1.395 . S
C534 C537 1.403 . S
C535 C532 1.403 . S
C535 C536 1.524 . S
C535 C539 1.400 . S
C536 H521 0.960 . S
C536 H522 0.960 . S
C536 H523 0.960 . S
C536 C535 1.524 . S
C537 C534 1.403 . S
C537 C538 1.392 . S
C537 C541 1.495 . S
C538 C537 1.392 . S
C538 C539 1.385 . S
C538 C540 1.478 . S
C539 H533 0.930 . S
C539 C535 1.400 . S
C539 C538 1.385 . S
C540 C538 1.478 . S
C540 C542 1.381 . S
C540 C546 1.383 . S
C541 C537 1.495 . S
C541 H547 0.959 . S
C541 H548 0.961 . S
C541 H549 0.960 . S
C542 C540 1.381 . S
C542 C543 1.394 . S
C542 H550 0.930 . S
C543 C542 1.394 . S
C543 C544 1.383 . S
C543 H551 0.929 . S
C544 C543 1.383 . S
C544 C545 1.377 . S
C545 H529 0.930 . S
C545 C544 1.377 . S
C545 C546 1.379 . S
C546 H530 0.931 . S
C546 C540 1.383 . S
C546 C545 1.379 . S
H547 C541 0.959 . S
H548 C541 0.961 . S
H549 C541 0.960 . S
H550 C542 0.930 . S
H551 C543 0.929 . S
H552 C560 0.929 . S
H553 C562 0.930 . S
H554 C564 0.930 . S
H555 C567 0.955 . S
H556 C570 0.930 . S
H557 C572 0.960 . S
H558 C572 0.960 . S
H559 C572 0.960 . S
C560 H552 0.929 . S
C560 C561 1.377 . S
C560 C562 1.384 . S
C561 C560 1.377 . S
C561 C567 1.390 . S
C562 H553 0.930 . S
C562 C560 1.384 . S
C562 C563 1.372 . S
C563 C562 1.372 . S
C563 C564 1.400 . S
C563 C568 1.490 . S
C564 H554 0.930 . S
C564 C563 1.400 . S
C564 C567 1.386 . S
H565 C581 0.930 . S
H566 C582 0.931 . S
C567 H555 0.955 . S
C567 C561 1.390 . S
C567 C564 1.386 . S
C568 C563 1.490 . S
C568 C570 1.395 . S
C568 C571 1.403 . S
H569 C575 0.930 . S
C570 H556 0.930 . S
C570 C568 1.395 . S
C570 C573 1.403 . S
C571 C568 1.403 . S
C571 C572 1.524 . S
C571 C575 1.400 . S
C572 H557 0.960 . S
C572 H558 0.960 . S
C572 H559 0.960 . S
C572 C571 1.524 . S
C573 C570 1.403 . S
C573 C574 1.392 . S
C573 C577 1.495 . S
C574 C573 1.392 . S
C574 C575 1.385 . S
C574 C576 1.478 . S
C575 H569 0.930 . S
C575 C571 1.400 . S
C575 C574 1.385 . S
C576 C574 1.478 . S
C576 C578 1.381 . S
C576 C582 1.383 . S
C577 C573 1.495 . S
C577 H583 0.959 . S
C577 H584 0.961 . S
C577 H585 0.960 . S
C578 C576 1.381 . S
C578 C579 1.394 . S
C578 H586 0.930 . S
C579 C578 1.394 . S
C579 C580 1.383 . S
C579 H587 0.929 . S
C580 C579 1.383 . S
C580 C581 1.377 . S
C581 H565 0.930 . S
C581 C580 1.377 . S
C581 C582 1.379 . S
C582 H566 0.931 . S
C582 C576 1.383 . S
C582 C581 1.379 . S
H583 C577 0.959 . S
H584 C577 0.961 . S
H585 C577 0.960 . S
H586 C578 0.930 . S
H587 C579 0.929 . S
H588 C596 0.929 . S
H589 C598 0.930 . S
H590 C600 0.930 . S
H591 C603 0.929 . S
H592 C606 0.930 . S
H593 C608 0.960 . S
H594 C608 0.960 . S
H595 C608 0.960 . S
C596 H588 0.929 . S
C596 C597 1.377 . S
C596 C598 1.384 . S
C597 C596 1.377 . S
C597 C603 1.390 . S
C598 H589 0.930 . S
C598 C596 1.384 . S
C598 C599 1.372 . S
C599 C598 1.372 . S
C599 C600 1.400 . S
C599 C604 1.490 . S
C600 H590 0.930 . S
C600 C599 1.400 . S
C600 C603 1.386 . S
H601 C617 0.930 . S
H602 C618 0.931 . S
C603 H591 0.929 . S
C603 C597 1.390 . S
C603 C600 1.386 . S
C604 C599 1.490 . S
C604 C606 1.395 . S
C604 C607 1.403 . S
H605 C611 0.930 . S
C606 H592 0.930 . S
C606 C604 1.395 . S
C606 C609 1.403 . S
C607 C604 1.403 . S
C607 C608 1.524 . S
C607 C611 1.400 . S
C608 H593 0.960 . S
C608 H594 0.960 . S
C608 H595 0.960 . S
C608 C607 1.524 . S
C609 C606 1.403 . S
C609 C610 1.392 . S
C609 C613 1.495 . S
C610 C609 1.392 . S
C610 C611 1.385 . S
C610 C612 1.478 . S
C611 H605 0.930 . S
C611 C607 1.400 . S
C611 C610 1.385 . S
C612 C610 1.478 . S
C612 C614 1.381 . S
C612 C618 1.383 . S
C613 C609 1.495 . S
C613 H619 0.959 . S
C613 H620 0.961 . S
C613 H621 0.960 . S
C614 C612 1.381 . S
C614 C615 1.394 . S
C614 H622 0.930 . S
C615 C614 1.394 . S
C615 C616 1.383 . S
C615 H623 0.929 . S
C616 C615 1.383 . S
C616 C617 1.377 . S
C617 H601 0.930 . S
C617 C616 1.377 . S
C617 C618 1.379 . S
C618 H602 0.931 . S
C618 C612 1.383 . S
C618 C617 1.379 . S
H619 C613 0.959 . S
H620 C613 0.961 . S
H621 C613 0.960 . S
H622 C614 0.930 . S
H623 C615 0.929 . S
H624 C632 0.929 . S
H625 C634 0.930 . S
H626 C636 0.930 . S
H627 C639 0.894 1_554 S
H628 C642 0.930 . S
H629 C644 0.960 . S
H630 C644 0.960 . S
H631 C644 0.960 . S
C632 H624 0.929 . S
C632 C633 1.377 . S
C632 C634 1.384 . S
C633 C632 1.377 . S
C633 C639 1.411 . S
C634 H625 0.930 . S
C634 C632 1.384 . S
C634 C635 1.372 . S
C635 C634 1.372 . S
C635 C636 1.400 . S
C635 C640 1.490 . S
C636 H626 0.930 . S
C636 C635 1.400 . S
C636 C639 1.400 . S
H637 C653 0.930 . S
H638 C654 0.931 . S
C639 H627 0.894 1_556 S
C639 C633 1.411 . S
C639 C636 1.400 . S
C640 C635 1.490 . S
C640 C642 1.395 1_565 S
C640 C643 1.403 . S
H641 C647 0.928 1_565 S
C642 H628 0.930 . S
C642 C640 1.395 1_545 S
C642 C645 1.403 . S
C643 C640 1.403 . S
C643 C644 1.524 . S
C643 C647 1.388 1_565 S
C644 H629 0.960 . S
C644 H630 0.960 . S
C644 H631 0.960 . S
C644 C643 1.524 . S
C645 C642 1.403 . S
C645 C646 1.392 . S
C645 C649 1.495 . S
C646 C645 1.392 . S
C646 C647 1.398 . S
C646 C648 1.478 . S
C647 H641 0.928 1_545 S
C647 C643 1.388 1_545 S
C647 C646 1.398 . S
C648 C646 1.478 . S
C648 C650 1.381 . S
C648 C654 1.383 . S
C649 C645 1.495 . S
C649 H655 0.959 . S
C649 H656 0.961 . S
C649 H657 0.960 . S
C650 C648 1.381 . S
C650 C651 1.394 . S
C650 H658 0.930 . S
C651 C650 1.394 . S
C651 C652 1.383 . S
C651 H659 0.929 . S
C652 C651 1.383 . S
C652 C653 1.377 . S
C653 H637 0.930 . S
C653 C652 1.377 . S
C653 C654 1.379 . S
C654 H638 0.931 . S
C654 C648 1.383 . S
C654 C653 1.379 . S
H655 C649 0.959 . S
H656 C649 0.961 . S
H657 C649 0.960 . S
H658 C650 0.930 . S
H659 C651 0.929 . S
H660 C668 0.929 . S
H661 C670 0.930 . S
H662 C672 0.930 . S
H663 C675 0.929 . S
H664 C678 0.930 . S
H665 C680 0.960 . S
H666 C680 0.960 . S
H667 C680 0.960 . S
C668 H660 0.929 . S
C668 C669 1.377 . S
C668 C670 1.384 . S
C669 C668 1.377 . S
C669 C675 1.390 . S
C670 H661 0.930 . S
C670 C668 1.384 . S
C670 C671 1.372 . S
C671 C670 1.372 . S
C671 C672 1.400 . S
C671 C676 1.490 . S
C672 H662 0.930 . S
C672 C671 1.400 . S
C672 C675 1.386 . S
H673 C689 0.930 . S
H674 C690 0.931 . S
C675 H663 0.929 . S
C675 C669 1.390 . S
C675 C672 1.386 . S
C676 C671 1.490 . S
C676 C678 1.395 1_545 S
C676 C679 1.403 . S
H677 C683 0.927 1_545 S
C678 H664 0.930 . S
C678 C676 1.395 1_565 S
C678 C681 1.403 . S
C679 C676 1.403 . S
C679 C680 1.524 . S
C679 C683 1.393 1_545 S
C680 H665 0.960 . S
C680 H666 0.960 . S
C680 H667 0.960 . S
C680 C679 1.524 . S
C681 C678 1.403 . S
C681 C682 1.392 . S
C681 C685 1.495 . S
C682 C681 1.392 . S
C682 C683 1.395 . S
C682 C684 1.478 . S
C683 H677 0.927 1_565 S
C683 C679 1.393 1_565 S
C683 C682 1.395 . S
C684 C682 1.478 . S
C684 C686 1.381 . S
C684 C690 1.383 . S
C685 C681 1.495 . S
C685 H691 0.959 . S
C685 H692 0.961 . S
C685 H693 0.960 . S
C686 C684 1.381 . S
C686 C687 1.394 . S
C686 H694 0.930 . S
C687 C686 1.394 . S
C687 C688 1.383 . S
C687 H695 0.929 . S
C688 C687 1.383 . S
C688 C689 1.377 . S
C689 H673 0.930 . S
C689 C688 1.377 . S
C689 C690 1.379 . S
C690 H674 0.931 . S
C690 C684 1.383 . S
C690 C689 1.379 . S
H691 C685 0.959 . S
H692 C685 0.961 . S
H693 C685 0.960 . S
H694 C686 0.930 . S
H695 C687 0.929 . S
H696 C704 0.929 . S
H697 C706 0.930 . S
H698 C708 0.930 . S
H699 C711 0.929 1_554 S
H700 C714 0.930 . S
H701 C716 0.960 . S
H702 C716 0.960 . S
H703 C716 0.960 . S
C704 H696 0.929 . S
C704 C705 1.377 . S
C704 C706 1.384 . S
C705 C704 1.377 . S
C705 C711 1.390 . S
C706 H697 0.930 . S
C706 C704 1.384 . S
C706 C707 1.372 . S
C707 C706 1.372 . S
C707 C708 1.400 . S
C707 C712 1.490 . S
C708 H698 0.930 . S
C708 C707 1.400 . S
C708 C711 1.386 . S
H709 C725 0.930 . S
H710 C726 0.931 . S
C711 H699 0.929 1_556 S
C711 C705 1.390 . S
C711 C708 1.386 . S
C712 C707 1.490 . S
C712 C714 1.395 . S
C712 C715 1.403 1_565 S
H713 C719 0.930 . S
C714 H700 0.930 . S
C714 C712 1.395 . S
C714 C717 1.403 . S
C715 C712 1.403 1_545 S
C715 C716 1.524 . S
C715 C719 1.400 . S
C716 H701 0.960 . S
C716 H702 0.960 . S
C716 H703 0.960 . S
C716 C715 1.524 . S
C717 C714 1.403 . S
C717 C718 1.392 1_565 S
C717 C721 1.495 . S
C718 C717 1.392 1_545 S
C718 C719 1.385 . S
C718 C720 1.478 . S
C719 H713 0.930 . S
C719 C715 1.400 . S
C719 C718 1.385 . S
C720 C718 1.478 . S
C720 C722 1.381 . S
C720 C726 1.383 . S
C721 C717 1.495 . S
C721 H727 0.959 . S
C721 H728 0.961 . S
C721 H729 0.960 . S
C722 C720 1.381 . S
C722 C723 1.394 . S
C722 H730 0.930 . S
C723 C722 1.394 . S
C723 C724 1.383 . S
C723 H731 0.929 . S
C724 C723 1.383 . S
C724 C725 1.377 . S
C725 H709 0.930 . S
C725 C724 1.377 . S
C725 C726 1.379 . S
C726 H710 0.931 . S
C726 C720 1.383 . S
C726 C725 1.379 . S
H727 C721 0.959 . S
H728 C721 0.961 . S
H729 C721 0.960 . S
H730 C722 0.930 . S
H731 C723 0.929 . S
H732 C740 0.929 . S
H733 C742 0.930 . S
H734 C744 0.930 . S
H735 C747 0.929 . S
H736 C750 0.930 . S
H737 C752 0.960 . S
H738 C752 0.960 . S
H739 C752 0.960 . S
C740 H732 0.929 . S
C740 C741 1.377 . S
C740 C742 1.384 . S
C741 C740 1.377 . S
C741 C747 1.390 . S
C742 H733 0.930 . S
C742 C740 1.384 . S
C742 C743 1.372 . S
C743 C742 1.372 . S
C743 C744 1.400 . S
C743 C748 1.490 . S
C744 H734 0.930 . S
C744 C743 1.400 . S
C744 C747 1.386 . S
H745 C761 0.930 . S
H746 C762 0.931 . S
C747 H735 0.929 . S
C747 C741 1.390 . S
C747 C744 1.386 . S
C748 C743 1.490 . S
C748 C750 1.395 . S
C748 C751 1.403 . S
H749 C755 0.930 . S
C750 H736 0.930 . S
C750 C748 1.395 . S
C750 C753 1.403 1_545 S
C751 C748 1.403 . S
C751 C752 1.524 . S
C751 C755 1.400 1_545 S
C752 H737 0.960 . S
C752 H738 0.960 . S
C752 H739 0.960 . S
C752 C751 1.524 . S
C753 C750 1.403 1_565 S
C753 C754 1.392 . S
C753 C757 1.495 . S
C754 C753 1.392 . S
C754 C755 1.385 . S
C754 C756 1.478 . S
C755 H749 0.930 . S
C755 C751 1.400 1_565 S
C755 C754 1.385 . S
C756 C754 1.478 . S
C756 C758 1.381 . S
C756 C762 1.383 . S
C757 C753 1.495 . S
C757 H763 0.959 . S
C757 H764 0.961 . S
C757 H765 0.960 . S
C758 C756 1.381 . S
C758 C759 1.394 . S
C758 H766 0.930 . S
C759 C758 1.394 . S
C759 C760 1.383 . S
C759 H767 0.929 . S
C760 C759 1.383 . S
C760 C761 1.377 . S
C761 H745 0.930 . S
C761 C760 1.377 . S
C761 C762 1.379 . S
C762 H746 0.931 . S
C762 C756 1.383 . S
C762 C761 1.379 . S
H763 C757 0.959 . S
H764 C757 0.961 . S
H765 C757 0.960 . S
H766 C758 0.930 . S
H767 C759 0.929 . S
H768 C776 0.929 . S
H769 C778 0.930 . S
H770 C780 0.930 . S
H771 C783 0.929 . S
H772 C786 0.930 . S
H773 C788 0.960 . S
H774 C788 0.960 . S
H775 C788 0.960 . S
C776 H768 0.929 . S
C776 C777 1.377 . S
C776 C778 1.384 . S
C777 C776 1.377 . S
C777 C783 1.390 . S
C778 H769 0.930 . S
C778 C776 1.384 . S
C778 C779 1.372 . S
C779 C778 1.372 . S
C779 C780 1.400 . S
C779 C784 1.490 . S
C780 H770 0.930 . S
C780 C779 1.400 . S
C780 C783 1.386 . S
H781 C797 0.930 . S
H782 C798 0.931 . S
C783 H771 0.929 . S
C783 C777 1.390 . S
C783 C780 1.386 . S
C784 C779 1.490 . S
C784 C786 1.395 . S
C784 C787 1.403 . S
H785 C791 0.930 . S
C786 H772 0.930 . S
C786 C784 1.395 . S
C786 C789 1.403 . S
C787 C784 1.403 . S
C787 C788 1.524 . S
C787 C791 1.400 . S
C788 H773 0.960 . S
C788 H774 0.960 . S
C788 H775 0.960 . S
C788 C787 1.524 . S
C789 C786 1.403 . S
C789 C790 1.392 . S
C789 C793 1.495 . S
C790 C789 1.392 . S
C790 C791 1.385 . S
C790 C792 1.478 . S
C791 H785 0.930 . S
C791 C787 1.400 . S
C791 C790 1.385 . S
C792 C790 1.478 . S
C792 C794 1.381 . S
C792 C798 1.383 . S
C793 C789 1.495 . S
C793 H799 0.959 . S
C793 H800 0.961 . S
C793 H801 0.960 . S
C794 C792 1.381 . S
C794 C795 1.394 . S
C794 H802 0.930 . S
C795 C794 1.394 . S
C795 C796 1.383 . S
C795 H803 0.929 . S
C796 C795 1.383 . S
C796 C797 1.377 . S
C797 H781 0.930 . S
C797 C796 1.377 . S
C797 C798 1.379 . S
C798 H782 0.931 . S
C798 C792 1.383 . S
C798 C797 1.379 . S
H799 C793 0.959 . S
H800 C793 0.961 . S
H801 C793 0.960 . S
H802 C794 0.930 . S
H803 C795 0.929 . S
H804 C812 0.929 . S
H805 C814 0.930 . S
H806 C816 0.930 . S
H807 C819 0.929 . S
H808 C822 0.930 . S
H809 C824 0.960 . S
H810 C824 0.960 . S
H811 C824 0.960 . S
C812 H804 0.929 . S
C812 C813 1.377 . S
C812 C814 1.384 . S
C813 C812 1.377 . S
C813 C819 1.390 . S
C814 H805 0.930 . S
C814 C812 1.384 . S
C814 C815 1.372 . S
C815 C814 1.372 . S
C815 C816 1.400 . S
C815 C820 1.490 . S
C816 H806 0.930 . S
C816 C815 1.400 . S
C816 C819 1.386 . S
H817 C833 0.930 . S
H818 C834 0.931 . S
C819 H807 0.929 . S
C819 C813 1.390 . S
C819 C816 1.386 . S
C820 C815 1.490 . S
C820 C822 1.395 . S
C820 C823 1.403 . S
H821 C827 0.930 . S
C822 H808 0.930 . S
C822 C820 1.395 . S
C822 C825 1.403 . S
C823 C820 1.403 . S
C823 C824 1.524 . S
C823 C827 1.400 . S
C824 H809 0.960 . S
C824 H810 0.960 . S
C824 H811 0.960 . S
C824 C823 1.524 . S
C825 C822 1.403 . S
C825 C826 1.392 . S
C825 C829 1.495 . S
C826 C825 1.392 . S
C826 C827 1.385 . S
C826 C828 1.478 . S
C827 H821 0.930 . S
C827 C823 1.400 . S
C827 C826 1.385 . S
C828 C826 1.478 . S
C828 C830 1.381 . S
C828 C834 1.383 . S
C829 C825 1.495 . S
C829 H835 0.959 . S
C829 H836 0.961 . S
C829 H837 0.960 . S
C830 C828 1.381 . S
C830 C831 1.394 . S
C830 H838 0.930 . S
C831 C830 1.394 . S
C831 C832 1.383 . S
C831 H839 0.929 . S
C832 C831 1.383 . S
C832 C833 1.377 . S
C833 H817 0.930 . S
C833 C832 1.377 . S
C833 C834 1.379 . S
C834 H818 0.931 . S
C834 C828 1.383 . S
C834 C833 1.379 . S
H835 C829 0.959 . S
H836 C829 0.961 . S
H837 C829 0.960 . S
H838 C830 0.930 . S
H839 C831 0.929 . S
H840 C848 0.929 . S
H841 C850 0.930 . S
H842 C852 0.930 . S
H843 C855 0.929 . S
H844 C858 0.930 . S
H845 C860 0.960 . S
H846 C860 0.960 . S
H847 C860 0.960 . S
C848 H840 0.929 . S
C848 C849 1.377 . S
C848 C850 1.384 . S
C849 C848 1.377 . S
C849 C855 1.390 . S
C850 H841 0.930 . S
C850 C848 1.384 . S
C850 C851 1.372 . S
C851 C850 1.372 . S
C851 C852 1.400 . S
C851 C856 1.490 . S
C852 H842 0.930 . S
C852 C851 1.400 . S
C852 C855 1.386 . S
H853 C869 0.930 . S
H854 C870 0.931 . S
C855 H843 0.929 . S
C855 C849 1.390 . S
C855 C852 1.386 . S
C856 C851 1.490 . S
C856 C858 1.395 . S
C856 C859 1.403 . S
H857 C863 0.930 . S
C858 H844 0.930 . S
C858 C856 1.395 . S
C858 C861 1.403 . S
C859 C856 1.403 . S
C859 C860 1.524 . S
C859 C863 1.400 . S
C860 H845 0.960 . S
C860 H846 0.960 . S
C860 H847 0.960 . S
C860 C859 1.524 . S
C861 C858 1.403 . S
C861 C862 1.392 . S
C861 C865 1.495 . S
C862 C861 1.392 . S
C862 C863 1.385 . S
C862 C864 1.478 . S
C863 H857 0.930 . S
C863 C859 1.400 . S
C863 C862 1.385 . S
C864 C862 1.478 . S
C864 C866 1.381 . S
C864 C870 1.383 . S
C865 C861 1.495 . S
C865 H871 0.959 . S
C865 H872 0.961 . S
C865 H873 0.960 . S
C866 C864 1.381 . S
C866 C867 1.394 . S
C866 H874 0.930 . S
C867 C866 1.394 . S
C867 C868 1.383 . S
C867 H875 0.929 . S
C868 C867 1.383 . S
C868 C869 1.377 . S
C869 H853 0.930 . S
C869 C868 1.377 . S
C869 C870 1.379 . S
C870 H854 0.931 . S
C870 C864 1.383 . S
C870 C869 1.379 . S
H871 C865 0.959 . S
H872 C865 0.961 . S
H873 C865 0.960 . S
H874 C866 0.930 . S
H875 C867 0.929 . S
H876 C884 0.929 . S
H877 C886 0.930 . S
H878 C888 0.930 . S
H879 C891 0.929 . S
H880 C894 0.930 . S
H881 C896 0.960 . S
H882 C896 0.960 . S
H883 C896 0.960 . S
C884 H876 0.929 . S
C884 C885 1.377 . S
C884 C886 1.384 . S
C885 C884 1.377 . S
C885 C891 1.390 . S
C886 H877 0.930 . S
C886 C884 1.384 . S
C886 C887 1.372 . S
C887 C886 1.372 . S
C887 C888 1.400 . S
C887 C892 1.490 . S
C888 H878 0.930 . S
C888 C887 1.400 . S
C888 C891 1.386 . S
H889 C905 0.930 . S
H890 C906 0.931 . S
C891 H879 0.929 . S
C891 C885 1.390 . S
C891 C888 1.386 . S
C892 C887 1.490 . S
C892 C894 1.395 . S
C892 C895 1.403 . S
H893 C899 0.930 . S
C894 H880 0.930 . S
C894 C892 1.395 . S
C894 C897 1.403 . S
C895 C892 1.403 . S
C895 C896 1.524 . S
C895 C899 1.400 . S
C896 H881 0.960 . S
C896 H882 0.960 . S
C896 H883 0.960 . S
C896 C895 1.524 . S
C897 C894 1.403 . S
C897 C898 1.392 . S
C897 C901 1.495 . S
C898 C897 1.392 . S
C898 C899 1.385 . S
C898 C900 1.478 . S
C899 H893 0.930 . S
C899 C895 1.400 . S
C899 C898 1.385 . S
C900 C898 1.478 . S
C900 C902 1.381 . S
C900 C906 1.383 . S
C901 C897 1.495 . S
C901 H907 0.959 . S
C901 H908 0.961 . S
C901 H909 0.960 . S
C902 C900 1.381 . S
C902 C903 1.394 . S
C902 H910 0.930 . S
C903 C902 1.394 . S
C903 C904 1.383 . S
C903 H911 0.929 . S
C904 C903 1.383 . S
C904 C905 1.377 . S
C905 H889 0.930 . S
C905 C904 1.377 . S
C905 C906 1.379 . S
C906 H890 0.931 . S
C906 C900 1.383 . S
C906 C905 1.379 . S
H907 C901 0.959 . S
H908 C901 0.961 . S
H909 C901 0.960 . S
H910 C902 0.930 . S
H911 C903 0.929 . S
H912 C920 0.929 . S
H913 C922 0.930 . S
H914 C924 0.930 . S
H915 C927 0.929 . S
H916 C930 0.930 . S
H917 C932 0.960 . S
H918 C932 0.960 . S
H919 C932 0.960 . S
C920 H912 0.929 . S
C920 C921 1.377 . S
C920 C922 1.384 . S
C921 C920 1.377 . S
C921 C927 1.390 . S
C922 H913 0.930 . S
C922 C920 1.384 . S
C922 C923 1.372 . S
C923 C922 1.372 . S
C923 C924 1.400 . S
C923 C928 1.490 . S
C924 H914 0.930 . S
C924 C923 1.400 . S
C924 C927 1.386 . S
H925 C941 0.930 . S
H926 C942 0.931 . S
C927 H915 0.929 . S
C927 C921 1.390 . S
C927 C924 1.386 . S
C928 C923 1.490 . S
C928 C930 1.395 . S
C928 C931 1.403 . S
H929 C935 0.930 . S
C930 H916 0.930 . S
C930 C928 1.395 . S
C930 C933 1.403 . S
C931 C928 1.403 . S
C931 C932 1.524 . S
C931 C935 1.400 . S
C932 H917 0.960 . S
C932 H918 0.960 . S
C932 H919 0.960 . S
C932 C931 1.524 . S
C933 C930 1.403 . S
C933 C934 1.392 . S
C933 C937 1.495 . S
C934 C933 1.392 . S
C934 C935 1.385 . S
C934 C936 1.478 . S
C935 H929 0.930 . S
C935 C931 1.400 . S
C935 C934 1.385 . S
C936 C934 1.478 . S
C936 C938 1.381 . S
C936 C942 1.383 . S
C937 C933 1.495 . S
C937 H943 0.959 . S
C937 H944 0.961 . S
C937 H945 0.960 . S
C938 C936 1.381 . S
C938 C939 1.394 . S
C938 H946 0.930 . S
C939 C938 1.394 . S
C939 C940 1.383 . S
C939 H947 0.929 . S
C940 C939 1.383 . S
C940 C941 1.377 . S
C941 H925 0.930 . S
C941 C940 1.377 . S
C941 C942 1.379 . S
C942 H926 0.931 . S
C942 C936 1.383 . S
C942 C941 1.379 . S
H943 C937 0.959 . S
H944 C937 0.961 . S
H945 C937 0.960 . S
H946 C938 0.930 . S
H947 C939 0.929 . S
H948 C956 0.929 . S
H949 C958 0.930 . S
H950 C960 0.930 . S
H951 C963 0.929 . S
H952 C966 0.930 . S
H953 C968 0.960 . S
H954 C968 0.960 . S
H955 C968 0.960 . S
C956 H948 0.929 . S
C956 C957 1.377 . S
C956 C958 1.384 . S
C957 C956 1.377 . S
C957 C963 1.390 . S
C958 H949 0.930 . S
C958 C956 1.384 . S
C958 C959 1.372 . S
C959 C958 1.372 . S
C959 C960 1.400 . S
C959 C964 1.490 . S
C960 H950 0.930 . S
C960 C959 1.400 . S
C960 C963 1.386 . S
H961 C977 0.930 . S
H962 C978 0.931 . S
C963 H951 0.929 . S
C963 C957 1.390 . S
C963 C960 1.386 . S
C964 C959 1.490 . S
C964 C966 1.395 . S
C964 C967 1.403 . S
H965 C971 0.930 . S
C966 H952 0.930 . S
C966 C964 1.395 . S
C966 C969 1.403 . S
C967 C964 1.403 . S
C967 C968 1.524 . S
C967 C971 1.400 . S
C968 H953 0.960 . S
C968 H954 0.960 . S
C968 H955 0.960 . S
C968 C967 1.524 . S
C969 C966 1.403 . S
C969 C970 1.392 . S
C969 C973 1.495 . S
C970 C969 1.392 . S
C970 C971 1.385 . S
C970 C972 1.478 . S
C971 H965 0.930 . S
C971 C967 1.400 . S
C971 C970 1.385 . S
C972 C970 1.478 . S
C972 C974 1.381 . S
C972 C978 1.383 . S
C973 C969 1.495 . S
C973 H979 0.959 . S
C973 H980 0.961 . S
C973 H981 0.960 . S
C974 C972 1.381 . S
C974 C975 1.394 . S
C974 H982 0.930 . S
C975 C974 1.394 . S
C975 C976 1.383 . S
C975 H983 0.929 . S
C976 C975 1.383 . S
C976 C977 1.377 . S
C977 H961 0.930 . S
C977 C976 1.377 . S
C977 C978 1.379 . S
C978 H962 0.931 . S
C978 C972 1.383 . S
C978 C977 1.379 . S
H979 C973 0.959 . S
H980 C973 0.961 . S
H981 C973 0.960 . S
H982 C974 0.930 . S
H983 C975 0.929 . S
H984 C992 0.929 . S
H985 C994 0.930 . S
H986 C996 0.930 . S
H987 C999 0.929 . S
H988 C1002 0.930 . S
H989 C1004 0.960 . S
H990 C1004 0.960 . S
H991 C1004 0.960 . S
C992 H984 0.929 . S
C992 C993 1.377 . S
C992 C994 1.384 . S
C993 C992 1.377 . S
C993 C999 1.390 . S
C994 H985 0.930 . S
C994 C992 1.384 . S
C994 C995 1.372 . S
C995 C994 1.372 . S
C995 C996 1.400 . S
C995 C1000 1.490 . S
C996 H986 0.930 . S
C996 C995 1.400 . S
C996 C999 1.386 . S
H997 C1013 0.930 . S
H998 C1014 0.931 . S
C999 H987 0.929 . S
C999 C993 1.390 . S
C999 C996 1.386 . S
C1000 C995 1.490 . S
C1000 C1002 1.395 . S
C1000 C1003 1.403 . S
H1001 C1007 0.930 . S
C1002 H988 0.930 . S
C1002 C1000 1.395 . S
C1002 C1005 1.403 . S
C1003 C1000 1.403 . S
C1003 C1004 1.524 . S
C1003 C1007 1.400 . S
C1004 H989 0.960 . S
C1004 H990 0.960 . S
C1004 H991 0.960 . S
C1004 C1003 1.524 . S
C1005 C1002 1.403 . S
C1005 C1006 1.392 . S
C1005 C1009 1.495 . S
C1006 C1005 1.392 . S
C1006 C1007 1.385 . S
C1006 C1008 1.478 . S
C1007 H1001 0.930 . S
C1007 C1003 1.400 . S
C1007 C1006 1.385 . S
C1008 C1006 1.478 . S
C1008 C1010 1.381 . S
C1008 C1014 1.383 . S
C1009 C1005 1.495 . S
C1009 H1015 0.959 . S
C1009 H1016 0.961 . S
C1009 H1017 0.960 . S
C1010 C1008 1.381 . S
C1010 C1011 1.394 . S
C1010 H1018 0.930 . S
C1011 C1010 1.394 . S
C1011 C1012 1.383 . S
C1011 H1019 0.929 . S
C1012 C1011 1.383 . S
C1012 C1013 1.377 . S
C1013 H997 0.930 . S
C1013 C1012 1.377 . S
C1013 C1014 1.379 . S
C1014 H998 0.931 . S
C1014 C1008 1.383 . S
C1014 C1013 1.379 . S
H1015 C1009 0.959 . S
H1016 C1009 0.961 . S
H1017 C1009 0.960 . S
H1018 C1010 0.930 . S
H1019 C1011 0.929 . S
H1020 C1028 0.929 . S
H1021 C1030 0.930 . S
H1022 C1032 0.930 . S
H1023 C1035 0.929 . S
H1024 C1038 0.930 . S
H1025 C1040 0.960 . S
H1026 C1040 0.960 . S
H1027 C1040 0.960 . S
C1028 H1020 0.929 . S
C1028 C1029 1.377 . S
C1028 C1030 1.384 . S
C1029 C1028 1.377 . S
C1029 C1035 1.390 . S
C1030 H1021 0.930 . S
C1030 C1028 1.384 . S
C1030 C1031 1.372 . S
C1031 C1030 1.372 . S
C1031 C1032 1.400 . S
C1031 C1036 1.490 . S
C1032 H1022 0.930 . S
C1032 C1031 1.400 . S
C1032 C1035 1.386 . S
H1033 C1049 0.930 . S
H1034 C1050 0.931 . S
C1035 H1023 0.929 . S
C1035 C1029 1.390 . S
C1035 C1032 1.386 . S
C1036 C1031 1.490 . S
C1036 C1038 1.395 . S
C1036 C1039 1.403 . S
H1037 C1043 0.930 . S
C1038 H1024 0.930 . S
C1038 C1036 1.395 . S
C1038 C1041 1.403 . S
C1039 C1036 1.403 . S
C1039 C1040 1.524 . S
C1039 C1043 1.400 . S
C1040 H1025 0.960 . S
C1040 H1026 0.960 . S
C1040 H1027 0.960 . S
C1040 C1039 1.524 . S
C1041 C1038 1.403 . S
C1041 C1042 1.392 . S
C1041 C1045 1.495 . S
C1042 C1041 1.392 . S
C1042 C1043 1.385 . S
C1042 C1044 1.478 . S
C1043 H1037 0.930 . S
C1043 C1039 1.400 . S
C1043 C1042 1.385 . S
C1044 C1042 1.478 . S
C1044 C1046 1.381 . S
C1044 C1050 1.383 . S
C1045 C1041 1.495 . S
C1045 H1051 0.959 . S
C1045 H1052 0.961 . S
C1045 H1053 0.960 . S
C1046 C1044 1.381 . S
C1046 C1047 1.394 . S
C1046 H1054 0.930 . S
C1047 C1046 1.394 . S
C1047 C1048 1.383 . S
C1047 H1055 0.929 . S
C1048 C1047 1.383 . S
C1048 C1049 1.377 . S
C1049 H1033 0.930 . S
C1049 C1048 1.377 . S
C1049 C1050 1.379 . S
C1050 H1034 0.931 . S
C1050 C1044 1.383 . S
C1050 C1049 1.379 . S
H1051 C1045 0.959 . S
H1052 C1045 0.961 . S
H1053 C1045 0.960 . S
H1054 C1046 0.930 . S
H1055 C1047 0.929 . S
C201 C4 1.549 . S
C220 C130 1.617 . S
C256 C108 1.432 . S
C237 C17 1.440 . S
C292 C134 1.466 . S
C273 C30 1.407 . S
C328 C112 1.587 . S
C309 C43 1.587 . S
C364 C174 1.590 . S
C345 C56 1.557 . S
C400 C152 1.466 . S
C381 C69 1.448 . S
C417 C82 1.406 . S
C436 C178 1.467 . S
C472 C156 1.586 . S
C453 C95 1.590 . S
C489 C9 1.548 1_556 S
C508 C179 1.572 . S
C544 C157 1.429 . S
C525 C21 1.421 . S
C561 C34 1.422 . S
C580 C176 1.418 . S
C597 C48 1.545 . S
C616 C154 1.565 . S
C652 C135 1.574 . S
C633 C61 1.547 1_556 S
C669 C73 1.424 . S
C688 C113 1.425 . S
C724 C132 1.400 . S
C705 C86 1.422 . S
C760 C110 1.570 . S
C741 C100 1.547 . S
C796 C153 1.494 . S
C777 C8 1.484 . S
C832 C175 1.471 . S
C813 C22 1.481 . S
C849 C35 1.479 . S
C868 C155 1.479 . S
C904 C177 1.465 . S
C885 C47 1.492 . S
C940 C109 1.494 . S
C921 C60 1.485 . S
C957 C74 1.475 . S
C976 C131 1.499 . S
C993 C87 1.471 . S
C1012 C111 1.494 . S
C1029 C99 1.489 . S
C1048 C133 1.494 . S
