# Generated by pormake.
# Topology anh, (6,3)-cn, num edge types: 1
# Building blocks:
#     Node 0, Type 0, BuildingBlock: BETFEN_clean_sbu_0, # of connection points: 6
#     Node 1, Type 0, BuildingBlock: BETFEN_clean_sbu_0, # of connection points: 6
#     Node 2, Type 0, BuildingBlock: BETFEN_clean_sbu_0, # of connection points: 6
#     Node 3, Type 1, BuildingBlock: QEWDON_clean_linker_0, # of connection points: 3
#     Node 4, Type 1, BuildingBlock: QEWDON_clean_linker_0, # of connection points: 3
#     Node 5, Type 1, BuildingBlock: QEWDON_clean_linker_0, # of connection points: 3
#     Node 6, Type 1, BuildingBlock: QEWDON_clean_linker_0, # of connection points: 3
#     Node 7, Type 1, BuildingBlock: QEWDON_clean_linker_0, # of connection points: 3
#     Node 8, Type 1, BuildingBlock: QEWDON_clean_linker_0, # of connection points: 3
#     Edge 9, Type (0, 1), BuildingBlock: UVAHIK_clean_linker_0, # of connection points: 2
#     Edge 10, Type (0, 1), BuildingBlock: UVAHIK_clean_linker_0, # of connection points: 2
#     Edge 11, Type (0, 1), BuildingBlock: UVAHIK_clean_linker_0, # of connection points: 2
#     Edge 12, Type (0, 1), BuildingBlock: UVAHIK_clean_linker_0, # of connection points: 2
#     Edge 13, Type (0, 1), BuildingBlock: UVAHIK_clean_linker_0, # of connection points: 2
#     Edge 14, Type (0, 1), BuildingBlock: UVAHIK_clean_linker_0, # of connection points: 2
#     Edge 15, Type (0, 1), BuildingBlock: UVAHIK_clean_linker_0, # of connection points: 2
#     Edge 16, Type (0, 1), BuildingBlock: UVAHIK_clean_linker_0, # of connection points: 2
#     Edge 17, Type (0, 1), BuildingBlock: UVAHIK_clean_linker_0, # of connection points: 2
#     Edge 18, Type (0, 1), BuildingBlock: UVAHIK_clean_linker_0, # of connection points: 2
#     Edge 19, Type (0, 1), BuildingBlock: UVAHIK_clean_linker_0, # of connection points: 2
#     Edge 20, Type (0, 1), BuildingBlock: UVAHIK_clean_linker_0, # of connection points: 2
#     Edge 21, Type (0, 1), BuildingBlock: UVAHIK_clean_linker_0, # of connection points: 2
#     Edge 22, Type (0, 1), BuildingBlock: UVAHIK_clean_linker_0, # of connection points: 2
#     Edge 23, Type (0, 1), BuildingBlock: UVAHIK_clean_linker_0, # of connection points: 2
#     Edge 24, Type (0, 1), BuildingBlock: UVAHIK_clean_linker_0, # of connection points: 2
#     Edge 25, Type (0, 1), BuildingBlock: UVAHIK_clean_linker_0, # of connection points: 2
#     Edge 26, Type (0, 1), BuildingBlock: UVAHIK_clean_linker_0, # of connection points: 2
# Relax obj value: 0.112
# Max RMSD: 0.165
# Mean RMSD: 0.127
data_MOF--net-anh--node1-BETFEN_clean_sbu_0--node2-QEWDON_clean_linker_0--edge1-UVAHIK_clean_linker_0
_symmetry_space_group_name_H-M    P1
_symmetry_Int_Tables_number       1
_symmetry_cell_setting            triclinic
loop_
_symmetry_equiv_pos_as_xyz
'x, y, z'
_cell_length_a     40.702506
_cell_length_b     43.348456
_cell_length_c     62.718359
_cell_angle_alpha  94.000515
_cell_angle_beta   97.312201
_cell_angle_gamma 108.48475
loop_
_atom_site_label
_atom_site_type_symbol
_atom_site_fract_x
_atom_site_fract_y
_atom_site_fract_z
_atom_type_partial_charge
Pr0 Pr 0.05083 0.55377 0.15389 0.0
Pr1 Pr 0.07162 0.62505 0.14625 0.0
C2 C 0.02333 0.49456 0.16747 0.0
C3 C 0.98917 0.47107 0.17019 0.0
C4 C 0.98043 0.43815 0.16176 0.0
C5 C 0.94838 0.41526 0.16406 0.0
C6 C 0.9244 0.42474 0.17499 0.0
C7 C 0.93324 0.45773 0.18356 0.0
C8 C 0.96526 0.48074 0.1811 0.0
C9 C 0.05713 0.56421 0.11112 0.0
C10 C 0.98789 0.58874 0.14432 0.0
C11 C 0.09931 0.68492 0.13365 0.0
C12 C 0.13343 0.71128 0.13667 0.0
C13 C 0.15894 0.71459 0.15475 0.0
C14 C 0.1907 0.74055 0.15784 0.0
C15 C 0.19768 0.76358 0.14281 0.0
C16 C 0.17222 0.75962 0.12446 0.0
C17 C 0.1404 0.73375 0.12146 0.0
C18 C 0.06559 0.61421 0.18906 0.0
C19 C 0.13471 0.5896 0.15378 0.0
O20 O 0.03571 0.52193 0.18055 0.0
O21 O 0.02898 0.49836 0.14762 0.0
O22 O 0.04233 0.57848 0.12311 0.0
O23 O 0.06802 0.54294 0.12085 0.0
O24 O 1.011 0.61287 0.137 0.0
O25 O 0.99742 0.56545 0.15326 0.0
O26 O 0.09676 0.65781 0.122 0.0
O27 O 0.08378 0.67989 0.15071 0.0
O28 O 0.08055 0.60035 0.17697 0.0
O29 O 0.05437 0.63531 0.17943 0.0
O30 O 0.11164 0.56393 0.15979 0.0
O31 O 0.12535 0.61435 0.14709 0.0
H32 H 0.9985 0.4301 0.15338 0.0
H33 H 0.94255 0.38999 0.15749 0.0
H34 H 0.91515 0.46586 0.19186 0.0
H35 H 0.97121 0.50603 0.18765 0.0
H36 H 0.1541 0.69736 0.16664 0.0
H37 H 0.20942 0.74296 0.17228 0.0
H38 H 0.17687 0.77647 0.11235 0.0
H39 H 0.1211 0.73143 0.10732 0.0
Pr40 Pr 0.58435 0.10048 0.50962 0.0
Pr41 Pr 0.50224 0.07495 0.51089 0.0
C42 C 0.64977 0.12992 0.50129 0.0
C43 C 0.67134 0.16213 0.49618 0.0
C44 C 0.66594 0.19104 0.50393 0.0
C45 C 0.68808 0.22157 0.5002 0.0
C46 C 0.71599 0.22382 0.48856 0.0
C47 C 0.72063 0.19471 0.48029 0.0
C48 C 0.69855 0.16418 0.48412 0.0
C49 C 0.5646 0.08929 0.54982 0.0
C50 C 0.54085 0.15841 0.51163 0.0
C51 C 0.43997 0.04894 0.52414 0.0
C52 C 0.41072 1.01791 0.51812 0.0
C53 C 0.40854 0.99772 0.49915 0.0
C54 C 0.38204 0.96728 0.49412 0.0
C55 C 0.35727 0.95627 0.50805 0.0
C56 C 0.35945 0.97682 0.52697 0.0
C57 C 0.38597 1.00733 0.53196 0.0
C58 C 0.51331 0.07155 0.46763 0.0
C59 C 0.54614 1.01738 0.50902 0.0
O60 O 0.62393 0.11212 0.48633 0.0
O61 O 0.64164 0.12887 0.52082 0.0
O62 O 0.55047 0.10264 0.53579 0.0
O63 O 0.59124 0.08267 0.54371 0.0
O64 O 0.5119 0.13383 0.51377 0.0
O65 O 0.57017 0.15151 0.50909 0.0
O66 O 0.46922 0.04621 0.53382 0.0
O67 O 0.44482 0.06956 0.50956 0.0
O68 O 0.53614 0.0811 0.48429 0.0
O69 O 0.48229 0.0626 0.47314 0.0
O70 O 0.57431 0.04151 0.50528 0.0
O71 O 0.51757 0.02472 0.51277 0.0
H72 H 0.64495 0.19006 0.51315 0.0
H73 H 0.68341 0.24345 0.50649 0.0
H74 H 0.74199 0.19556 0.47141 0.0
H75 H 0.70314 0.14215 0.47801 0.0
H76 H 0.42761 1.00536 0.48833 0.0
H77 H 0.38094 0.95239 0.47927 0.0
H78 H 0.34118 0.96902 0.53822 0.0
H79 H 0.38749 1.02244 0.5468 0.0
Pr80 Pr 0.53844 0.52691 0.8135 0.0
Pr81 Pr 0.56539 0.59525 0.83604 0.0
C82 C 0.53181 0.47178 0.78858 0.0
C83 C 0.5558 0.45266 0.78946 0.0
C84 C 0.58199 0.45869 0.80758 0.0
C85 C 0.60491 0.44067 0.80897 0.0
C86 C 0.6021 0.41629 0.79223 0.0
C87 C 0.57662 0.41105 0.77372 0.0
C88 C 0.55355 0.42916 0.77236 0.0
C89 C 0.54259 0.53012 0.85836 0.0
C90 C 0.62548 0.56336 0.8288 0.0
C91 C 0.57608 0.65114 0.86149 0.0
C92 C 0.55887 0.67622 0.86168 0.0
C93 C 0.5461 0.68559 0.84221 0.0
C94 C 0.52876 0.70862 0.84244 0.0
C95 C 0.52334 0.7224 0.86212 0.0
C96 C 0.53594 0.71271 0.88161 0.0
C97 C 0.55361 0.68982 0.88137 0.0
C98 C 0.55988 0.5919 0.79097 0.0
C99 C 0.478 0.55768 0.82225 0.0
O100 O 0.54438 0.50086 0.78241 0.0
O101 O 0.5159 0.47191 0.80543 0.0
O102 O 0.56588 0.54718 0.84856 0.0
O103 O 0.51669 0.5095 0.84502 0.0
O104 O 0.61828 0.58444 0.84205 0.0
O105 O 0.60014 0.54206 0.81473 0.0
O106 O 0.55752 0.62246 0.86608 0.0
O107 O 0.59326 0.64941 0.84543 0.0
O108 O 0.5372 0.57478 0.8011 0.0
O109 O 0.5858 0.61287 0.80409 0.0
O110 O 0.48453 0.53627 0.80881 0.0
O111 O 0.5039 0.57982 0.83557 0.0
H112 H 0.58439 0.47708 0.82084 0.0
H113 H 0.62449 0.44542 0.82331 0.0
H114 H 0.57369 0.39215 0.76069 0.0
H115 H 0.53371 0.4245 0.75816 0.0
H116 H 0.54949 0.6751 0.82679 0.0
H117 H 0.52003 0.71592 0.82715 0.0
H118 H 0.53185 0.72253 0.89702 0.0
H119 H 0.5629 0.68252 0.89653 0.0
H120 H 0.55604 0.13699 0.2391 0.0
C121 C 0.54051 0.11349 0.23013 0.0
C122 C 0.52628 0.08657 0.24135 0.0
C123 C 0.53218 0.11071 0.20742 0.0
H124 H 0.49422 0.03573 0.23818 0.0
C125 C 0.50534 0.05648 0.22958 0.0
C126 C 0.49678 0.05326 0.20702 0.0
C127 C 0.51026 0.08048 0.19604 0.0
C128 C 0.54309 0.13985 0.19555 0.0
H129 H 0.50335 0.07824 0.17859 0.0
C130 C 0.57843 0.16026 0.1979 0.0
C131 C 0.58814 0.18634 0.18519 0.0
C132 C 0.51762 0.14672 0.18111 0.0
H133 H 0.49025 0.13174 0.17924 0.0
C134 C 0.52709 0.17294 0.16896 0.0
H135 H 0.59837 0.15506 0.20883 0.0
C136 C 0.56208 0.19248 0.17084 0.0
H137 H 0.56885 0.21256 0.16107 0.0
H138 H 0.50724 0.17798 0.1579 0.0
H139 H 0.54345 0.60068 0.55335 0.0
C140 C 0.54308 0.57752 0.54561 0.0
C141 C 0.54209 0.55224 0.55872 0.0
C142 C 0.54286 0.57325 0.52313 0.0
H143 H 0.54084 0.50264 0.56044 0.0
C144 C 0.54096 0.52121 0.5497 0.0
C145 C 0.54073 0.5135 0.52756 0.0
C146 C 0.54203 0.54024 0.51425 0.0
C147 C 0.54319 0.60336 0.50988 0.0
H148 H 0.54176 0.53475 0.49718 0.0
C149 C 0.54416 0.63658 0.51853 0.0
C150 C 0.54493 0.66296 0.50483 0.0
C151 C 0.54249 0.59874 0.48739 0.0
H152 H 0.54157 0.5756 0.47936 0.0
C153 C 0.54295 0.62362 0.47431 0.0
H154 H 0.54486 0.64242 0.53562 0.0
C155 C 0.54427 0.65473 0.48273 0.0
H156 H 0.54466 0.67279 0.47157 0.0
H157 H 0.54238 0.61866 0.45708 0.0
H158 H 0.08188 0.57183 0.87338 0.0
C159 C 0.05511 0.56956 0.86707 0.0
C160 C 0.03092 0.56641 0.88159 0.0
C161 C 0.04489 0.57023 0.84475 0.0
H162 H 0.97842 0.56424 0.8853 0.0
C163 C 0.99669 0.56544 0.87396 0.0
C164 C 0.98569 0.56666 0.85209 0.0
C165 C 1.00945 0.56786 0.83741 0.0
C166 C 0.07143 0.57519 0.8294 0.0
H167 H 1.00028 0.56774 0.82044 0.0
C168 C 0.10182 0.56546 0.83321 0.0
C169 C 0.12633 0.57091 0.81856 0.0
C170 C 0.06698 0.59099 0.81086 0.0
H171 H 0.04542 0.60035 0.80761 0.0
C172 C 0.09083 0.59591 0.79632 0.0
H173 H 0.10632 0.5532 0.84718 0.0
C174 C 0.12011 0.58589 0.80004 0.0
H175 H 0.1385 0.59063 0.78863 0.0
H176 H 0.08683 0.60804 0.78218 0.0
H177 H 0.99999 0.57203 0.41882 0.0
C178 C 0.02349 0.59134 0.42671 0.0
C179 C 0.05069 0.60485 0.41487 0.0
C180 C 0.0258 0.60384 0.44836 0.0
H181 H 0.10066 0.64215 0.41549 0.0
C182 C 0.08051 0.63074 0.42494 0.0
C183 C 0.08316 0.64388 0.44643 0.0
C184 C 0.05588 0.62997 0.45809 0.0
C185 C 0.99561 0.59201 0.46027 0.0
H186 H 0.05783 0.63984 0.47474 0.0
C187 C 0.97745 0.55826 0.4602 0.0
C188 C 0.94935 0.54783 0.47203 0.0
C189 C 0.9847 0.61503 0.47179 0.0
H190 H 0.99762 0.64106 0.4718 0.0
C191 C 0.95665 0.60484 0.48315 0.0
H192 H 0.98581 0.54027 0.45155 0.0
C193 C 0.93913 0.57159 0.48332 0.0
H194 H 0.91721 0.56447 0.49216 0.0
H195 H 0.94838 0.62283 0.49184 0.0
H196 H 0.48167 0.04244 0.77709 0.0
C197 C 0.50556 0.06296 0.78239 0.0
C198 C 0.52765 0.07573 0.76745 0.0
C199 C 0.51406 0.07708 0.80409 0.0
H200 H 0.5734 0.11374 0.7621 0.0
C201 C 0.55792 0.10295 0.77418 0.0
C202 C 0.56674 0.11761 0.79574 0.0
C203 C 0.54488 0.10392 0.81068 0.0
C204 C 0.49075 0.06422 0.82 0.0
H205 H 0.55159 0.11423 0.82753 0.0
C206 C 0.47998 0.03073 0.82243 0.0
C207 C 0.46062 1.01884 0.83887 0.0
C208 C 0.48079 0.08563 0.83367 0.0
H209 H 0.48863 0.11156 0.832 0.0
C210 C 0.46081 0.07375 0.84969 0.0
H211 H 0.48832 1.01421 0.8123 0.0
C212 C 0.45108 0.04055 0.85248 0.0
H213 H 0.4363 0.03183 0.86531 0.0
H214 H 0.45336 0.0904 0.8602 0.0
H215 H 0.53448 0.58753 0.09676 0.0
C216 C 0.55967 0.58608 0.10363 0.0
C217 C 0.57896 0.5736 0.09024 0.0
C218 C 0.57343 0.59803 0.12551 0.0
H219 H 0.62756 0.56393 0.08874 0.0
C220 C 0.61202 0.57248 0.09906 0.0
C221 C 0.62659 0.58431 0.12068 0.0
C222 C 0.60723 0.59707 0.13386 0.0
C223 C 0.55419 0.61444 0.13896 0.0
H224 H 0.61863 0.60627 0.15056 0.0
C225 C 0.51692 0.60313 0.13749 0.0
C226 C 0.49993 0.61986 0.15026 0.0
C227 C 0.57365 0.64295 0.15297 0.0
H228 H 0.60188 0.65305 0.15411 0.0
C229 C 0.55709 0.6596 0.16528 0.0
H230 H 0.50134 0.58116 0.12689 0.0
C231 C 0.52077 0.64831 0.16396 0.0
H232 H 0.50891 0.66233 0.17355 0.0
H233 H 0.57254 0.68168 0.17581 0.0
C234 C 0.19821 0.62016 0.15189 0.0
C235 C 0.17187 0.59063 0.15377 0.0
C236 C 0.23287 0.62118 0.15109 0.0
C237 C 0.28723 0.57004 0.13806 0.0
H238 H 0.36346 0.64116 0.1721 0.0
C239 C 0.43697 0.59949 0.13025 0.0
C240 C 0.46081 0.60894 0.14979 0.0
C241 C 0.40091 0.59447 0.13011 0.0
C242 C 0.34255 0.62104 0.16251 0.0
H243 H 0.16178 0.53888 0.15607 0.0
H244 H 0.2222 0.54063 0.15443 0.0
H245 H 0.30293 0.63835 0.17335 0.0
H246 H 0.46442 0.61777 0.18463 0.0
H247 H 0.40242 0.60953 0.18431 0.0
H248 H 0.32718 0.55293 0.12715 0.0
C249 C 0.21594 0.56305 0.15362 0.0
C250 C 0.30773 0.61957 0.1631 0.0
C251 C 0.1813 0.56211 0.15476 0.0
C252 C 0.44719 0.61135 0.16918 0.0
C253 C 0.41149 0.60666 0.16903 0.0
C254 C 0.32221 0.57179 0.13722 0.0
C255 C 0.24228 0.59264 0.15183 0.0
C256 C 0.27948 0.59399 0.15099 0.0
C257 C 0.38789 0.59897 0.14949 0.0
C258 C 0.35039 0.59719 0.14959 0.0
H259 H 0.1921 0.64265 0.15103 0.0
H260 H 0.25227 0.64437 0.14953 0.0
H261 H 0.26622 0.55012 0.12837 0.0
H262 H 0.44639 0.59749 0.11499 0.0
H263 H 0.38351 0.58848 0.11475 0.0
C264 C 0.75307 0.28156 0.50312 0.0
C265 C 0.74082 0.25641 0.48574 0.0
C266 C 0.77659 0.31212 0.50072 0.0
C267 C 0.84041 0.35494 0.46606 0.0
H268 H 0.82965 0.43217 0.49523 0.0
C269 C 0.91921 0.48977 0.45417 0.0
C270 C 0.93027 0.51248 0.47293 0.0
C271 C 0.8976 0.45749 0.45493 0.0
C272 C 0.83326 0.41085 0.48713 0.0
H273 H 0.74372 0.24384 0.45213 0.0
H274 H 0.78447 0.2974 0.44782 0.0
H275 H 0.7884 0.37847 0.49776 0.0
H276 H 0.9295 0.51834 0.50747 0.0
H277 H 0.89201 0.46247 0.50877 0.0
H278 H 0.88523 0.38779 0.45526 0.0
C279 C 0.77631 0.29329 0.46345 0.0
C280 C 0.80959 0.37997 0.48862 0.0
C281 C 0.75287 0.26259 0.4659 0.0
C282 C 0.92076 0.50173 0.49261 0.0
C283 C 0.89921 0.46969 0.49336 0.0
C284 C 0.86405 0.38599 0.46447 0.0
C285 C 0.78842 0.31853 0.48082 0.0
C286 C 0.81304 0.3515 0.47834 0.0
C287 C 0.88663 0.44737 0.47446 0.0
C288 C 0.861 0.41427 0.47524 0.0
H289 H 0.74492 0.27746 0.51875 0.0
H290 H 0.78588 0.33061 0.51462 0.0
H291 H 0.8441 0.33359 0.45808 0.0
H292 H 0.92599 0.4973 0.43875 0.0
H293 H 0.88833 0.44088 0.44008 0.0
C294 C 0.51767 0.77502 0.87789 0.0
C295 C 0.50555 0.74748 0.86217 0.0
C296 C 0.50323 0.8002 0.87662 0.0
C297 C 0.46559 0.83944 0.8362 0.0
H298 H 0.44319 0.88555 0.88454 0.0
C299 C 0.43737 0.95905 0.82585 0.0
C300 C 0.45325 0.98434 0.84282 0.0
C301 C 0.43478 0.92681 0.82888 0.0
C302 C 0.44955 0.87308 0.8709 0.0
H303 H 0.46701 0.72383 0.83368 0.0
H304 H 0.44268 0.76838 0.83112 0.0
H305 H 0.45601 0.8348 0.8892 0.0
H306 H 0.47786 0.99603 0.87638 0.0
H307 H 0.47479 0.94012 0.88154 0.0
H308 H 0.46157 0.87832 0.8182 0.0
C309 C 0.46345 0.7704 0.84433 0.0
C310 C 0.45668 0.84397 0.87357 0.0
C311 C 0.47757 0.74505 0.84574 0.0
C312 C 0.4652 0.97679 0.86313 0.0
C313 C 0.46324 0.94467 0.86607 0.0
C314 C 0.45904 0.86874 0.83361 0.0
C315 C 0.47663 0.79846 0.8595 0.0
C316 C 0.46525 0.82719 0.85632 0.0
C317 C 0.4488 0.91937 0.84882 0.0
C318 C 0.4515 0.88627 0.85102 0.0
H319 H 0.5394 0.77788 0.89063 0.0
H320 H 0.5141 0.82178 0.88838 0.0
H321 H 0.47264 0.8272 0.82272 0.0
H322 H 0.42773 0.96437 0.8101 0.0
H323 H 0.4227 0.90789 0.81539 0.0
C324 C 0.94158 0.61619 0.1391 0.0
C325 C 0.95064 0.58804 0.1429 0.0
C326 C 0.90681 0.61585 0.13837 0.0
C327 C 0.81491 0.56085 0.12767 0.0
H328 H 0.79458 0.63132 0.15883 0.0
C329 C 0.6709 0.55551 0.12791 0.0
C330 C 0.66306 0.58484 0.12842 0.0
C331 C 0.70577 0.55585 0.13161 0.0
C332 C 0.79956 0.6116 0.1497 0.0
H333 H 0.92967 0.53732 0.14878 0.0
H334 H 0.86896 0.53653 0.14693 0.0
H335 H 0.85513 0.63227 0.16062 0.0
H336 H 0.68574 0.6376 0.13328 0.0
H337 H 0.74658 0.63854 0.13902 0.0
H338 H 0.75994 0.54068 0.11595 0.0
C339 C 0.8889 0.55897 0.14465 0.0
C340 C 0.83449 0.61212 0.15085 0.0
C341 C 0.92379 0.55946 0.14577 0.0
C342 C 0.69096 0.61459 0.13321 0.0
C343 C 0.72597 0.61501 0.1365 0.0
C344 C 0.78009 0.56058 0.1262 0.0
C345 C 0.87991 0.5872 0.14105 0.0
C346 C 0.84266 0.5867 0.1399 0.0
C347 C 0.7341 0.58561 0.13537 0.0
C348 C 0.77163 0.58588 0.13725 0.0
H349 H 0.96148 0.63871 0.13692 0.0
H350 H 0.90086 0.63797 0.1354 0.0
H351 H 0.82021 0.54107 0.11877 0.0
H352 H 0.64993 0.5322 0.12414 0.0
H353 H 0.71036 0.53258 0.13119 0.0
C354 C 0.29535 0.91851 0.50712 0.0
C355 C 0.32971 0.92333 0.503 0.0
C356 C 0.26954 0.88759 0.50226 0.0
C357 C 0.24735 0.80865 0.468 0.0
H358 H 0.18131 0.77632 0.50727 0.0
C359 C 0.14724 0.67771 0.45217 0.0
C360 C 0.11289 0.67395 0.45585 0.0
C361 C 0.17454 0.70717 0.45928 0.0
C362 C 0.19932 0.78508 0.49601 0.0
H363 H 0.36388 0.89892 0.49099 0.0
H364 H 0.31887 0.84523 0.48237 0.0
H365 H 0.22687 0.82972 0.51674 0.0
H366 H 0.08049 0.69824 0.47015 0.0
H367 H 0.12795 0.74956 0.48246 0.0
H368 H 0.21964 0.76434 0.44713 0.0
C369 C 0.31176 0.86548 0.48908 0.0
C370 C 0.22546 0.81573 0.50146 0.0
C371 C 0.33758 0.89634 0.494 0.0
C372 C 0.10672 0.70009 0.46734 0.0
C373 C 0.13399 0.72959 0.47439 0.0
C374 C 0.22117 0.77808 0.46253 0.0
C375 C 0.27738 0.86071 0.4931 0.0
C376 C 0.24977 0.82793 0.48749 0.0
C377 C 0.16818 0.7337 0.47019 0.0
C378 C 0.19673 0.76588 0.47643 0.0
H379 H 0.28818 0.93877 0.51376 0.0
H380 H 0.24322 0.8849 0.50529 0.0
H381 H 0.26527 0.81748 0.45671 0.0
H382 H 0.15297 0.65791 0.44361 0.0
H383 H 0.20064 0.70919 0.45613 0.0
C384 C 0.6393 0.38533 0.77827 0.0
C385 C 0.62325 0.39426 0.79511 0.0
C386 C 0.65543 0.36134 0.78038 0.0
C387 C 0.67588 0.30525 0.81962 0.0
H388 H 0.64104 0.24138 0.76868 0.0
C389 C 0.59286 0.17365 0.81662 0.0
C390 C 0.59609 0.14928 0.80179 0.0
C391 C 0.61614 0.20558 0.81884 0.0
C392 C 0.65202 0.25916 0.78291 0.0
H393 H 0.61274 0.38627 0.82765 0.0
H394 H 0.63921 0.34394 0.83107 0.0
H395 H 0.64517 0.29774 0.7656 0.0
H396 H 0.62943 0.13888 0.77976 0.0
H397 H 0.66843 0.19547 0.78251 0.0
H398 H 0.67827 0.26516 0.83726 0.0
C399 C 0.64077 0.3559 0.81647 0.0
C400 C 0.65445 0.29169 0.78118 0.0
C401 C 0.6252 0.3801 0.81446 0.0
C402 C 0.62527 0.15717 0.79076 0.0
C403 C 0.648 0.18942 0.79254 0.0
C404 C 0.67264 0.27251 0.82142 0.0
C405 C 0.65517 0.3454 0.79922 0.0
C406 C 0.66414 0.31467 0.79979 0.0
C407 C 0.64272 0.21408 0.80598 0.0
C408 C 0.65872 0.24894 0.80327 0.0
H409 H 0.63859 0.39629 0.76329 0.0
H410 H 0.66682 0.35439 0.76692 0.0
H411 H 0.68476 0.32255 0.83415 0.0
H412 H 0.57076 0.16899 0.8253 0.0
H413 H 0.6112 0.22427 0.82911 0.0
C414 C 0.57536 0.97109 0.50541 0.0
C415 C 0.54631 0.98098 0.50937 0.0
C416 C 0.57539 0.93787 0.50596 0.0
C417 C 0.51552 0.84757 0.51115 0.0
H418 H 0.60275 0.8293 0.51366 0.0
C419 C 0.51946 0.7092 0.51769 0.0
C420 C 0.54752 0.69962 0.51137 0.0
C421 C 0.5193 0.7426 0.5184 0.0
C422 C 0.57763 0.83306 0.51273 0.0
H423 H 0.49405 0.96038 0.51721 0.0
H424 H 0.49405 0.90417 0.51839 0.0
H425 H 0.6025 0.88508 0.51269 0.0
H426 H 0.59716 0.72066 0.50029 0.0
H427 H 0.59738 0.77701 0.50184 0.0
H428 H 0.49074 0.79536 0.51129 0.0
C429 C 0.5173 0.92187 0.51451 0.0
C430 C 0.57748 0.8662 0.51216 0.0
C431 C 0.51729 0.95505 0.51392 0.0
C432 C 0.57531 0.72598 0.50601 0.0
C433 C 0.57527 0.75917 0.5068 0.0
C434 C 0.51568 0.81438 0.51177 0.0
C435 C 0.54637 0.91173 0.51058 0.0
C436 C 0.54643 0.875 0.51129 0.0
C437 C 0.54709 0.76898 0.51273 0.0
C438 C 0.54675 0.80564 0.51251 0.0
H439 H 0.59858 0.98922 0.50177 0.0
H440 H 0.59867 0.93291 0.50248 0.0
H441 H 0.4904 0.85134 0.51027 0.0
H442 H 0.49663 0.69051 0.52128 0.0
H443 H 0.49671 0.74749 0.52326 0.0
C444 C 0.68985 0.58614 0.84429 0.0
C445 C 0.66229 0.56317 0.82984 0.0
C446 C 0.72442 0.58599 0.84532 0.0
C447 C 0.78366 0.55626 0.81481 0.0
H448 H 0.84208 0.57467 0.87106 0.0
C449 C 0.925 0.54542 0.82949 0.0
C450 C 0.94973 0.56831 0.84551 0.0
C451 C 0.88979 0.54456 0.82603 0.0
C452 C 0.82639 0.56989 0.85515 0.0
H453 H 0.64989 0.52186 0.80509 0.0
H454 H 0.71007 0.52144 0.80703 0.0
H455 H 0.78154 0.57323 0.86838 0.0
H456 H 0.95743 0.60955 0.8694 0.0
H457 H 0.8969 0.6086 0.86314 0.0
H458 H 0.82883 0.55291 0.80165 0.0
C459 C 0.70501 0.5399 0.81741 0.0
C460 C 0.79148 0.56905 0.85361 0.0
C461 C 0.67037 0.54004 0.81639 0.0
C462 C 0.93892 0.59132 0.85713 0.0
C463 C 0.90405 0.59057 0.85365 0.0
C464 C 0.81874 0.55712 0.81635 0.0
C465 C 0.73258 0.56282 0.83195 0.0
C466 C 0.76961 0.56257 0.83342 0.0
C467 C 0.87866 0.56664 0.8385 0.0
C468 C 0.84077 0.56436 0.83654 0.0
H469 H 0.68479 0.60442 0.85484 0.0
H470 H 0.74488 0.60438 0.85649 0.0
H471 H 0.7678 0.55141 0.79894 0.0
H472 H 0.93249 0.52728 0.82036 0.0
H473 H 0.87106 0.52575 0.81423 0.0
C474 C 0.26278 0.78855 0.15574 0.0
C475 C 0.23093 0.79201 0.14654 0.0
C476 C 0.29364 0.81555 0.16002 0.0
C477 C 0.33505 0.89915 0.14605 0.0
H478 H 0.39206 0.91219 0.20247 0.0
C479 C 0.44143 1.0227 0.18144 0.0
C480 C 0.47097 1.02223 0.19551 0.0
C481 C 0.41437 0.99352 0.17324 0.0
C482 C 0.37692 0.90871 0.18646 0.0
H483 H 0.2069 0.8269 0.13461 0.0
H484 H 0.26077 0.87376 0.14179 0.0
H485 H 0.34079 0.86333 0.19244 0.0
H486 H 0.49642 0.9908 0.21093 0.0
H487 H 0.44977 0.93982 0.19619 0.0
H488 H 0.37114 0.9446 0.14008 0.0
C489 C 0.26187 0.85004 0.14551 0.0
C490 C 0.34739 0.88067 0.18075 0.0
C491 C 0.23096 0.82311 0.14136 0.0
C492 C 0.47376 0.9919 0.2003 0.0
C493 C 0.44688 0.96272 0.19197 0.0
C494 C 0.36477 0.92714 0.1517 0.0
C495 C 0.29351 0.84665 0.15507 0.0
C496 C 0.32591 0.87569 0.16057 0.0
C497 C 0.41636 0.96318 0.17881 0.0
C498 C 0.38594 0.93245 0.17208 0.0
H499 H 0.26394 0.76491 0.15958 0.0
H500 H 0.31769 0.81204 0.16714 0.0
H501 H 0.31926 0.89582 0.13027 0.0
H502 H 0.43837 0.04575 0.17768 0.0
H503 H 0.39118 0.99495 0.16336 0.0
C504 C 0.57089 0.22198 0.51078 0.0
C505 C 0.54063 0.19487 0.51216 0.0
C506 C 0.57075 0.25526 0.51129 0.0
C507 C 0.51097 0.31061 0.5186 0.0
H508 H 0.5914 0.37984 0.50697 0.0
C509 C 0.51307 0.45045 0.52813 0.0
C510 C 0.538 0.47685 0.52051 0.0
C511 C 0.5133 0.41736 0.52615 0.0
C512 C 0.5682 0.36131 0.51021 0.0
H513 H 0.48591 0.18456 0.51508 0.0
H514 H 0.48527 0.24066 0.51568 0.0
H515 H 0.59193 0.32376 0.50551 0.0
H516 H 0.58358 0.48584 0.50447 0.0
H517 H 0.5836 0.42889 0.50039 0.0
H518 H 0.48691 0.34781 0.52284 0.0
C519 C 0.50997 0.23689 0.51445 0.0
C520 C 0.56859 0.32805 0.50953 0.0
C521 C 0.51019 0.20365 0.51401 0.0
C522 C 0.56307 0.46723 0.51027 0.0
C523 C 0.56335 0.43379 0.50826 0.0
C524 C 0.51056 0.34375 0.51922 0.0
C525 C 0.54026 0.26429 0.51315 0.0
C526 C 0.53999 0.30113 0.51375 0.0
C527 C 0.53865 0.40744 0.51638 0.0
C528 C 0.53917 0.37069 0.51515 0.0
H529 H 0.5953 0.21758 0.50935 0.0
H530 H 0.59527 0.27398 0.51034 0.0
H531 H 0.48787 0.29239 0.52218 0.0
H532 H 0.49334 0.45561 0.53647 0.0
H533 H 0.4936 0.3997 0.53311 0.0
C534 C 0.41315 0.5372 0.80712 0.0
C535 C 0.44115 0.55699 0.82281 0.0
C536 C 0.37862 0.53673 0.8079 0.0
C537 C 0.32733 0.5839 0.83317 0.0
H538 H 0.24895 0.50449 0.81315 0.0
C539 C 0.18397 0.57548 0.84121 0.0
C540 C 0.15928 0.56239 0.82232 0.0
C541 C 0.21763 0.57254 0.84284 0.0
C542 C 0.27052 0.52693 0.81875 0.0
H543 H 0.45429 0.59145 0.85188 0.0
H544 H 0.39452 0.58997 0.85358 0.0
H545 H 0.30871 0.50433 0.81261 0.0
H546 H 0.15001 0.53457 0.79082 0.0
H547 H 0.20814 0.52882 0.79381 0.0
H548 H 0.28899 0.60633 0.83947 0.0
C549 C 0.39907 0.57538 0.84026 0.0
C550 C 0.30495 0.52693 0.81833 0.0
C551 C 0.43356 0.57608 0.83937 0.0
C552 C 0.16841 0.54484 0.80562 0.0
C553 C 0.20177 0.54151 0.80736 0.0
C554 C 0.29294 0.58379 0.8338 0.0
C555 C 0.37094 0.5558 0.82451 0.0
C556 C 0.334 0.5555 0.82537 0.0
C557 C 0.22721 0.55602 0.82575 0.0
C558 C 0.26399 0.55539 0.82643 0.0
H559 H 0.41792 0.52225 0.79408 0.0
H560 H 0.35802 0.5217 0.79521 0.0
H561 H 0.34866 0.60663 0.83837 0.0
H562 H 0.17787 0.58941 0.85425 0.0
H563 H 0.2364 0.58372 0.85734 0.0
C564 C 0.87733 0.39898 0.197 0.0
C565 C 0.89019 0.40023 0.17718 0.0
C566 C 0.84543 0.3754 0.19902 0.0
C567 C 0.76228 0.32204 0.1667 0.0
H568 H 0.75373 0.27133 0.21548 0.0
C569 C 0.63925 0.21169 0.1667 0.0
C570 C 0.62527 0.20696 0.18602 0.0
C571 C 0.67252 0.23417 0.16668 0.0
C572 C 0.75551 0.28553 0.20189 0.0
H573 H 0.87931 0.37805 0.14387 0.0
H574 H 0.82376 0.33709 0.14737 0.0
H575 H 0.80944 0.31368 0.21356 0.0
H576 H 0.63555 0.22112 0.22062 0.0
H577 H 0.69377 0.26114 0.22064 0.0
H578 H 0.70852 0.2946 0.1551 0.0
C579 C 0.83832 0.35428 0.16136 0.0
C580 C 0.78747 0.30978 0.20078 0.0
C581 C 0.8703 0.37758 0.15941 0.0
C582 C 0.64586 0.22422 0.20553 0.0
C583 C 0.67918 0.24711 0.20549 0.0
C584 C 0.73038 0.29808 0.16787 0.0
C585 C 0.8255 0.35286 0.18119 0.0
C586 C 0.7913 0.32804 0.18303 0.0
C587 C 0.6926 0.25291 0.18596 0.0
C588 C 0.72661 0.27914 0.18532 0.0
H589 H 0.89218 0.41595 0.21103 0.0
H590 H 0.83614 0.37507 0.21447 0.0
H591 H 0.76416 0.33611 0.15302 0.0
H592 H 0.62407 0.19836 0.15147 0.0
H593 H 0.6823 0.23715 0.15142 0.0
C594 C 0.04306 0.58898 0.07768 0.0
C595 C 0.05943 0.56895 0.08822 0.0
C596 C 0.04402 0.59197 0.05568 0.0
C597 C 0.0901 0.57869 0.01031 0.0
H598 H 1.00097 0.56735 0.97479 0.0
C599 C 0.07073 0.58874 0.91726 0.0
C600 C 0.0408 0.5652 0.90506 0.0
C601 C 0.07647 0.59045 0.93991 0.0
C602 C 0.02605 0.57048 0.98449 0.0
H603 H 0.09074 0.53734 0.08433 0.0
H604 H 0.09232 0.54247 0.04597 0.0
H605 H 1.00476 0.56992 0.01397 0.0
H606 H 0.99499 0.52349 0.90678 0.0
H607 H 1.00497 0.52644 0.9461 0.0
H608 H 0.11113 0.57864 0.9806 0.0
C609 C 0.07887 0.55597 0.05464 0.0
C610 C 0.02832 0.57235 0.00696 0.0
C611 C 0.07771 0.55282 0.07657 0.0
C612 C 0.01794 0.54226 0.9158 0.0
C613 C 0.02357 0.54403 0.9383 0.0
C614 C 0.08789 0.57709 0.98777 0.0
C615 C 0.06162 0.5752 0.04386 0.0
C616 C 0.06023 0.57602 0.02012 0.0
C617 C 0.0523 0.5687 0.95065 0.0
C618 C 0.05567 0.57238 0.97462 0.0
H619 H 0.02901 0.60189 0.08634 0.0
H620 H 0.03078 0.60724 0.04785 0.0
H621 H 0.11513 0.5818 0.02007 0.0
H622 H 0.08867 0.60683 0.9094 0.0
H623 H 0.09887 0.60969 0.94904 0.0
C624 C 0.55351 0.08842 0.44014 0.0
C625 C 0.51991 0.07275 0.44504 0.0
C626 C 0.55883 0.09062 0.41857 0.0
C627 C 0.51803 0.0525 0.3628 0.0
H628 H 0.57174 0.13511 0.34505 0.0
C629 C 0.49991 0.077 0.27504 0.0
C630 C 0.52988 0.08985 0.26534 0.0
C631 C 0.50273 0.07643 0.29735 0.0
C632 C 0.55709 0.11179 0.34983 0.0
H633 H 0.46556 0.04707 0.43132 0.0
H634 H 0.47465 0.05088 0.39387 0.0
H635 H 0.56947 0.13008 0.3836 0.0
H636 H 0.58614 0.11406 0.27155 0.0
H637 H 0.59115 0.11328 0.31105 0.0
H638 H 0.50492 0.03435 0.32919 0.0
C639 C 0.49709 0.06116 0.40656 0.0
C640 C 0.5558 0.10888 0.37187 0.0
C641 C 0.49181 0.05912 0.42804 0.0
C642 C 0.56266 0.10389 0.27863 0.0
C643 C 0.5655 0.1034 0.30116 0.0
C644 C 0.51924 0.05543 0.3409 0.0
C645 C 0.53062 0.07696 0.40153 0.0
C646 C 0.53551 0.07939 0.37853 0.0
C647 C 0.53559 0.08883 0.31063 0.0
C648 C 0.53801 0.08531 0.33411 0.0
H649 H 0.57553 0.09939 0.45295 0.0
H650 H 0.58499 0.10282 0.41523 0.0
H651 H 0.50287 0.02922 0.36741 0.0
H652 H 0.47415 0.06682 0.26529 0.0
H653 H 0.47909 0.0659 0.30421 0.0
C654 C 0.58189 0.61085 0.75703 0.0
C655 C 0.55682 0.58898 0.7671 0.0
C656 C 0.57939 0.60772 0.73446 0.0
C657 C 0.54166 0.54749 0.68598 0.0
H658 H 0.55817 0.62398 0.65503 0.0
C659 C 0.51819 0.53526 0.59266 0.0
C660 C 0.54211 0.55806 0.58241 0.0
C661 C 0.51909 0.5398 0.61505 0.0
C662 C 0.55391 0.60238 0.66341 0.0
H663 H 0.50946 0.5467 0.76149 0.0
H664 H 0.50514 0.54111 0.72209 0.0
H665 H 0.56172 0.63035 0.69431 0.0
H666 H 0.58561 0.60364 0.58763 0.0
H667 H 0.58765 0.61141 0.62679 0.0
H668 H 0.53443 0.51951 0.65527 0.0
C669 C 0.52682 0.56063 0.73162 0.0
C670 C 0.55588 0.60605 0.68595 0.0
C671 C 0.52917 0.56393 0.75417 0.0
C672 C 0.56663 0.58581 0.59504 0.0
C673 C 0.56771 0.59026 0.61749 0.0
C674 C 0.53993 0.54383 0.66349 0.0
C675 C 0.55192 0.58246 0.72148 0.0
C676 C 0.54972 0.57864 0.6975 0.0
C677 C 0.54412 0.56717 0.62784 0.0
C678 C 0.54594 0.57121 0.65186 0.0
H679 H 0.60355 0.63034 0.76659 0.0
H680 H 0.59936 0.62472 0.72719 0.0
H681 H 0.53733 0.52592 0.69442 0.0
H682 H 0.49865 0.51387 0.58331 0.0
H683 H 0.5 0.52186 0.62231 0.0
C684 C 0.56927 0.0657 0.58471 0.0
C685 C 0.55193 0.08105 0.57039 0.0
C686 C 0.55791 0.05817 0.60437 0.0
C687 C 0.50826 0.08254 0.64382 0.0
H688 H 0.51989 1.00733 0.66989 0.0
C689 C 0.48832 0.06515 0.73186 0.0
C690 C 0.5185 0.06287 0.74428 0.0
C691 C 0.48376 0.05998 0.70924 0.0
C692 C 0.51624 0.02829 0.66273 0.0
H693 H 0.50876 0.10015 0.56516 0.0
H694 H 0.48832 0.08638 0.59939 0.0
H695 H 0.52801 1.013 0.63228 0.0
H696 H 0.56633 0.05142 0.74322 0.0
H697 H 0.5581 0.04169 0.70379 0.0
H698 H 0.49719 0.0981 0.67445 0.0
C699 C 0.51107 0.08059 0.59559 0.0
C700 C 0.52112 0.03169 0.64126 0.0
C701 C 0.52265 0.08835 0.57595 0.0
C702 C 0.54276 0.05311 0.73391 0.0
C703 C 0.53797 0.04747 0.71137 0.0
C704 C 0.50305 0.07896 0.66523 0.0
C705 C 0.52874 0.06561 0.61013 0.0
C706 C 0.51835 0.05943 0.63176 0.0
C707 C 0.50909 0.052 0.69879 0.0
C708 C 0.50806 0.05233 0.6751 0.0
H709 H 0.59197 0.05984 0.58086 0.0
H710 H 0.57265 0.04729 0.6153 0.0
H711 H 0.50623 0.10437 0.63717 0.0
H712 H 0.46948 0.07297 0.73957 0.0
H713 H 0.4612 0.06348 0.69991 0.0
C714 C 0.57478 0.5537 0.89566 0.0
C715 C 0.54427 0.53342 0.88211 0.0
C716 C 0.57614 0.55687 0.91814 0.0
C717 C 0.52072 0.54828 0.96083 0.0
H718 H 0.60229 0.54229 -0.00264 0.0
C719 C 0.55269 0.5845 0.05416 0.0
C720 C 0.56662 0.56441 0.06655 0.0
C721 C 0.54641 0.57874 0.03152 0.0
C722 C 0.57922 0.54379 0.98738 0.0
H723 H 0.49113 0.50093 0.88136 0.0
H724 H 0.49342 0.50666 0.92063 0.0
H725 H 0.59931 0.53691 0.95811 0.0
H726 H 0.58238 0.52107 0.06486 0.0
H727 H 0.57177 0.51128 0.02543 0.0
H728 H 0.50078 0.55538 0.9902 0.0
C729 C 0.51626 0.52008 0.91388 0.0
C730 C 0.57769 0.54105 0.96491 0.0
C731 C 0.51504 0.51664 0.89143 0.0
C732 C 0.57228 0.53739 0.0558 0.0
C733 C 0.56626 0.53179 0.03321 0.0
C734 C 0.52243 0.5514 0.98335 0.0
C735 C 0.54687 0.54011 0.92749 0.0
C736 C 0.54843 0.54323 0.95138 0.0
C737 C 0.55412 0.55288 0.02081 0.0
C738 C 0.55166 0.54907 -0.00314 0.0
H739 H 0.59764 0.56705 0.88889 0.0
H740 H 0.59998 0.57273 0.92821 0.0
H741 H 0.49793 0.55027 0.9508 0.0
H742 H 0.54838 0.60572 0.06188 0.0
H743 H 0.53717 0.59549 0.02238 0.0
C744 C 0.03552 0.61656 0.22095 0.0
C745 C 0.06088 0.6074 0.2114 0.0
C746 C 0.03124 0.61122 0.24226 0.0
C747 C 0.05589 0.56772 0.28807 0.0
H748 H 0.03244 0.63394 0.32184 0.0
C749 C 0.07422 0.58904 0.38224 0.0
C750 C 0.04665 0.59507 0.39129 0.0
C751 C 0.0728 0.58518 0.35977 0.0
C752 C 0.03858 0.61503 0.31254 0.0
H753 H 0.10132 0.58493 0.2164 0.0
H754 H 0.0952 0.57699 0.2541 0.0
H755 H 0.03732 0.63873 0.28396 0.0
H756 H 0.9955 0.60063 0.38398 0.0
H757 H 0.99323 0.59431 0.34469 0.0
H758 H 0.05884 0.54514 0.31737 0.0
C759 C 0.07782 0.5875 0.245 0.0
C760 C 0.04125 0.61764 0.29073 0.0
C761 C 0.08159 0.59226 0.22344 0.0
C762 C 0.01696 0.5957 0.37744 0.0
C763 C 1.01578 0.59236 0.355 0.0
C764 C 0.05382 0.56545 0.31007 0.0
C765 C 0.0528 0.59724 0.25479 0.0
C766 C 0.04981 0.59398 0.2781 0.0
C767 C 0.04405 0.58784 0.34597 0.0
C768 C 0.045 0.58905 0.32248 0.0
H769 H 0.01878 0.62779 0.21189 0.0
H770 H 1.01096 0.61816 0.24888 0.0
H771 H 0.06204 0.54875 0.27889 0.0
H772 H 0.0974 0.58845 0.39259 0.0
H773 H 0.09501 0.58189 0.35323 0.0
loop_
_geom_bond_atom_site_label_1
_geom_bond_atom_site_label_2
_geom_bond_distance
_geom_bond_site_symmetry_2
_ccdc_geom_bond_type
Pr0 C2 2.880 1_455 S
Pr0 O20 2.562 1_455 S
Pr0 O21 2.490 1_455 S
Pr0 O22 2.695 . S
Pr0 O23 2.512 . S
Pr0 O25 2.437 1_455 S
Pr0 O28 2.436 . S
Pr0 O30 2.438 . S
Pr1 C11 2.880 . S
Pr1 O22 2.436 . S
Pr1 O24 2.438 1_455 S
Pr1 O26 2.562 . S
Pr1 O27 2.490 . S
Pr1 O28 2.695 . S
Pr1 O29 2.512 . S
Pr1 O31 2.437 . S
C2 Pr0 2.880 1_655 S
C2 C3 1.491 . S
C2 O20 1.254 . S
C2 O21 1.225 . S
C3 C2 1.491 . S
C3 C4 1.392 . S
C3 C8 1.356 . S
C4 C3 1.392 . S
C4 C5 1.368 . S
C4 H32 0.929 . S
C5 C4 1.368 . S
C5 C6 1.386 . S
C5 H33 0.929 . S
C6 C5 1.386 . S
C6 C7 1.373 . S
C7 C6 1.373 . S
C7 C8 1.409 . S
C7 H34 0.931 . S
C8 C3 1.356 . S
C8 C7 1.409 . S
C8 H35 0.930 . S
C9 O22 1.270 . S
C9 O23 1.248 . S
C10 O24 1.267 . S
C10 O25 1.278 . S
C11 Pr1 2.880 . S
C11 C12 1.491 . S
C11 O26 1.254 . S
C11 O27 1.225 . S
C12 C11 1.491 . S
C12 C13 1.392 . S
C12 C17 1.356 . S
C13 C12 1.392 . S
C13 C14 1.368 . S
C13 H36 0.929 . S
C14 C13 1.368 . S
C14 C15 1.386 . S
C14 H37 0.929 . S
C15 C14 1.386 . S
C15 C16 1.373 . S
C16 C15 1.373 . S
C16 C17 1.409 . S
C16 H38 0.931 . S
C17 C12 1.356 . S
C17 C16 1.409 . S
C17 H39 0.930 . S
C18 O28 1.270 . S
C18 O29 1.248 . S
C19 O30 1.267 . S
C19 O31 1.278 . S
O20 Pr0 2.562 1_655 S
O20 C2 1.254 . S
O21 Pr0 2.490 1_655 S
O21 C2 1.225 . S
O22 Pr0 2.695 . S
O22 Pr1 2.436 . S
O22 C9 1.270 . S
O23 Pr0 2.512 . S
O23 C9 1.248 . S
O24 Pr1 2.438 1_655 S
O24 C10 1.267 . S
O25 Pr0 2.437 1_655 S
O25 C10 1.278 . S
O26 Pr1 2.562 . S
O26 C11 1.254 . S
O27 Pr1 2.490 . S
O27 C11 1.225 . S
O28 Pr0 2.436 . S
O28 Pr1 2.695 . S
O28 C18 1.270 . S
O29 Pr1 2.512 . S
O29 C18 1.248 . S
O30 Pr0 2.438 . S
O30 C19 1.267 . S
O31 Pr1 2.437 . S
O31 C19 1.278 . S
H32 C4 0.929 . S
H33 C5 0.929 . S
H34 C7 0.931 . S
H35 C8 0.930 . S
H36 C13 0.929 . S
H37 C14 0.929 . S
H38 C16 0.931 . S
H39 C17 0.930 . S
Pr40 C42 2.880 . S
Pr40 O60 2.562 . S
Pr40 O61 2.490 . S
Pr40 O62 2.695 . S
Pr40 O63 2.512 . S
Pr40 O65 2.437 . S
Pr40 O68 2.436 . S
Pr40 O70 2.438 . S
Pr41 C51 2.880 1_545 S
Pr41 O62 2.436 . S
Pr41 O64 2.438 . S
Pr41 O66 2.562 1_545 S
Pr41 O67 2.490 1_545 S
Pr41 O68 2.695 . S
Pr41 O69 2.512 . S
Pr41 O71 2.437 . S
C42 Pr40 2.880 . S
C42 C43 1.491 . S
C42 O60 1.254 . S
C42 O61 1.225 . S
C43 C42 1.491 . S
C43 C44 1.392 . S
C43 C48 1.356 . S
C44 C43 1.392 . S
C44 C45 1.368 . S
C44 H72 0.929 . S
C45 C44 1.368 . S
C45 C46 1.386 . S
C45 H73 0.929 . S
C46 C45 1.386 . S
C46 C47 1.373 . S
C47 C46 1.373 . S
C47 C48 1.409 . S
C47 H74 0.931 . S
C48 C43 1.356 . S
C48 C47 1.409 . S
C48 H75 0.930 . S
C49 O62 1.270 . S
C49 O63 1.248 . S
C50 O64 1.267 . S
C50 O65 1.278 . S
C51 Pr41 2.880 1_565 S
C51 C52 1.491 . S
C51 O66 1.254 . S
C51 O67 1.225 . S
C52 C51 1.491 . S
C52 C53 1.392 . S
C52 C57 1.356 . S
C53 C52 1.392 . S
C53 C54 1.368 . S
C53 H76 0.929 . S
C54 C53 1.368 . S
C54 C55 1.386 . S
C54 H77 0.929 . S
C55 C54 1.386 . S
C55 C56 1.373 . S
C56 C55 1.373 . S
C56 C57 1.409 . S
C56 H78 0.931 . S
C57 C52 1.356 . S
C57 C56 1.409 . S
C57 H79 0.930 . S
C58 O68 1.270 . S
C58 O69 1.248 . S
C59 O70 1.267 1_565 S
C59 O71 1.278 1_565 S
O60 Pr40 2.562 . S
O60 C42 1.254 . S
O61 Pr40 2.490 . S
O61 C42 1.225 . S
O62 Pr40 2.695 . S
O62 Pr41 2.436 . S
O62 C49 1.270 . S
O63 Pr40 2.512 . S
O63 C49 1.248 . S
O64 Pr41 2.438 . S
O64 C50 1.267 . S
O65 Pr40 2.437 . S
O65 C50 1.278 . S
O66 Pr41 2.562 1_565 S
O66 C51 1.254 . S
O67 Pr41 2.490 1_565 S
O67 C51 1.225 . S
O68 Pr40 2.436 . S
O68 Pr41 2.695 . S
O68 C58 1.270 . S
O69 Pr41 2.512 . S
O69 C58 1.248 . S
O70 Pr40 2.438 . S
O70 C59 1.267 1_545 S
O71 Pr41 2.437 . S
O71 C59 1.278 1_545 S
H72 C44 0.929 . S
H73 C45 0.929 . S
H74 C47 0.931 . S
H75 C48 0.930 . S
H76 C53 0.929 . S
H77 C54 0.929 . S
H78 C56 0.931 . S
H79 C57 0.930 . S
Pr80 C82 2.880 . S
Pr80 O100 2.562 . S
Pr80 O101 2.490 . S
Pr80 O102 2.695 . S
Pr80 O103 2.512 . S
Pr80 O105 2.437 . S
Pr80 O108 2.436 . S
Pr80 O110 2.438 . S
Pr81 C91 2.880 . S
Pr81 O102 2.436 . S
Pr81 O104 2.438 . S
Pr81 O106 2.562 . S
Pr81 O107 2.490 . S
Pr81 O108 2.695 . S
Pr81 O109 2.512 . S
Pr81 O111 2.437 . S
C82 Pr80 2.880 . S
C82 C83 1.491 . S
C82 O100 1.254 . S
C82 O101 1.225 . S
C83 C82 1.491 . S
C83 C84 1.392 . S
C83 C88 1.356 . S
C84 C83 1.392 . S
C84 C85 1.368 . S
C84 H112 0.929 . S
C85 C84 1.368 . S
C85 C86 1.386 . S
C85 H113 0.929 . S
C86 C85 1.386 . S
C86 C87 1.373 . S
C87 C86 1.373 . S
C87 C88 1.409 . S
C87 H114 0.931 . S
C88 C83 1.356 . S
C88 C87 1.409 . S
C88 H115 0.930 . S
C89 O102 1.270 . S
C89 O103 1.248 . S
C90 O104 1.267 . S
C90 O105 1.278 . S
C91 Pr81 2.880 . S
C91 C92 1.491 . S
C91 O106 1.254 . S
C91 O107 1.225 . S
C92 C91 1.491 . S
C92 C93 1.392 . S
C92 C97 1.356 . S
C93 C92 1.392 . S
C93 C94 1.368 . S
C93 H116 0.929 . S
C94 C93 1.368 . S
C94 C95 1.386 . S
C94 H117 0.929 . S
C95 C94 1.386 . S
C95 C96 1.373 . S
C96 C95 1.373 . S
C96 C97 1.409 . S
C96 H118 0.931 . S
C97 C92 1.356 . S
C97 C96 1.409 . S
C97 H119 0.930 . S
C98 O108 1.270 . S
C98 O109 1.248 . S
C99 O110 1.267 . S
C99 O111 1.278 . S
O100 Pr80 2.562 . S
O100 C82 1.254 . S
O101 Pr80 2.490 . S
O101 C82 1.225 . S
O102 Pr80 2.695 . S
O102 Pr81 2.436 . S
O102 C89 1.270 . S
O103 Pr80 2.512 . S
O103 C89 1.248 . S
O104 Pr81 2.438 . S
O104 C90 1.267 . S
O105 Pr80 2.437 . S
O105 C90 1.278 . S
O106 Pr81 2.562 . S
O106 C91 1.254 . S
O107 Pr81 2.490 . S
O107 C91 1.225 . S
O108 Pr80 2.436 . S
O108 Pr81 2.695 . S
O108 C98 1.270 . S
O109 Pr81 2.512 . S
O109 C98 1.248 . S
O110 Pr80 2.438 . S
O110 C99 1.267 . S
O111 Pr81 2.437 . S
O111 C99 1.278 . S
H112 C84 0.929 . S
H113 C85 0.929 . S
H114 C87 0.931 . S
H115 C88 0.930 . S
H116 C93 0.929 . S
H117 C94 0.929 . S
H118 C96 0.931 . S
H119 C97 0.930 . S
H120 C121 0.949 . S
C121 H120 0.949 . S
C121 C122 1.395 . S
C121 C123 1.391 . S
C122 C121 1.395 . S
C122 C125 1.390 . S
C123 C121 1.391 . S
C123 C127 1.387 . S
C123 C128 1.491 . S
H124 C125 0.950 . S
C125 C122 1.390 . S
C125 H124 0.950 . S
C125 C126 1.378 . S
C126 C125 1.378 . S
C126 C127 1.409 . S
C127 C123 1.387 . S
C127 C126 1.409 . S
C127 H129 0.951 . S
C128 C123 1.491 . S
C128 C130 1.382 . S
C128 C132 1.404 . S
H129 C127 0.951 . S
C130 C128 1.382 . S
C130 C131 1.390 . S
C130 H135 0.949 . S
C131 C130 1.390 . S
C131 C136 1.399 . S
C132 C128 1.404 . S
C132 H133 0.950 . S
C132 C134 1.375 . S
H133 C132 0.950 . S
C134 C132 1.375 . S
C134 C136 1.382 . S
C134 H138 0.950 . S
H135 C130 0.949 . S
C136 C131 1.399 . S
C136 C134 1.382 . S
C136 H137 0.952 . S
H137 C136 0.952 . S
H138 C134 0.950 . S
H139 C140 0.949 . S
C140 H139 0.949 . S
C140 C141 1.395 . S
C140 C142 1.391 . S
C141 C140 1.395 . S
C141 C144 1.390 . S
C142 C140 1.391 . S
C142 C146 1.387 . S
C142 C147 1.491 . S
H143 C144 0.950 . S
C144 C141 1.390 . S
C144 H143 0.950 . S
C144 C145 1.378 . S
C145 C144 1.378 . S
C145 C146 1.409 . S
C146 C142 1.387 . S
C146 C145 1.409 . S
C146 H148 0.951 . S
C147 C142 1.491 . S
C147 C149 1.382 . S
C147 C151 1.404 . S
H148 C146 0.951 . S
C149 C147 1.382 . S
C149 C150 1.390 . S
C149 H154 0.949 . S
C150 C149 1.390 . S
C150 C155 1.399 . S
C151 C147 1.404 . S
C151 H152 0.950 . S
C151 C153 1.375 . S
H152 C151 0.950 . S
C153 C151 1.375 . S
C153 C155 1.382 . S
C153 H157 0.950 . S
H154 C149 0.949 . S
C155 C150 1.399 . S
C155 C153 1.382 . S
C155 H156 0.952 . S
H156 C155 0.952 . S
H157 C153 0.950 . S
H158 C159 0.949 . S
C159 H158 0.949 . S
C159 C160 1.395 . S
C159 C161 1.391 . S
C160 C159 1.395 . S
C160 C163 1.390 . S
C161 C159 1.391 . S
C161 C165 1.387 . S
C161 C166 1.491 . S
H162 C163 0.950 1_655 S
C163 C160 1.390 . S
C163 H162 0.950 1_455 S
C163 C164 1.378 1_455 S
C164 C163 1.378 1_655 S
C164 C165 1.409 1_655 S
C165 C161 1.387 . S
C165 C164 1.409 1_455 S
C165 H167 0.951 . S
C166 C161 1.491 . S
C166 C168 1.382 . S
C166 C170 1.404 . S
H167 C165 0.951 . S
C168 C166 1.382 . S
C168 C169 1.390 . S
C168 H173 0.949 . S
C169 C168 1.390 . S
C169 C174 1.399 . S
C170 C166 1.404 . S
C170 H171 0.950 . S
C170 C172 1.375 . S
H171 C170 0.950 . S
C172 C170 1.375 . S
C172 C174 1.382 . S
C172 H176 0.950 . S
H173 C168 0.949 . S
C174 C169 1.399 . S
C174 C172 1.382 . S
C174 H175 0.952 . S
H175 C174 0.952 . S
H176 C172 0.950 . S
H177 C178 0.941 1_655 S
C178 H177 0.941 1_455 S
C178 C179 1.404 . S
C178 C180 1.390 . S
C179 C178 1.404 . S
C179 C182 1.390 . S
C180 C178 1.390 . S
C180 C184 1.387 . S
C180 C185 1.491 1_455 S
H181 C182 0.950 . S
C182 C179 1.390 . S
C182 H181 0.950 . S
C182 C183 1.378 . S
C183 C182 1.378 . S
C183 C184 1.409 . S
C184 C180 1.387 . S
C184 C183 1.409 . S
C184 H186 0.951 . S
C185 C180 1.491 1_655 S
C185 C187 1.382 . S
C185 C189 1.404 . S
H186 C184 0.951 . S
C187 C185 1.382 . S
C187 C188 1.390 . S
C187 H192 0.949 . S
C188 C187 1.390 . S
C188 C193 1.399 . S
C189 C185 1.404 . S
C189 H190 0.950 . S
C189 C191 1.375 . S
H190 C189 0.950 . S
C191 C189 1.375 . S
C191 C193 1.382 . S
C191 H195 0.950 . S
H192 C187 0.949 . S
C193 C188 1.399 . S
C193 C191 1.382 . S
C193 H194 0.952 . S
H194 C193 0.952 . S
H195 C191 0.950 . S
H196 C197 0.948 . S
C197 H196 0.948 . S
C197 C198 1.395 . S
C197 C199 1.391 . S
C198 C197 1.395 . S
C198 C201 1.390 . S
C199 C197 1.391 . S
C199 C203 1.387 . S
C199 C204 1.491 1_545 S
H200 C201 0.950 . S
C201 C198 1.390 . S
C201 H200 0.950 . S
C201 C202 1.378 . S
C202 C201 1.378 . S
C202 C203 1.409 . S
C203 C199 1.387 . S
C203 C202 1.409 . S
C203 H205 0.951 . S
C204 C199 1.491 1_565 S
C204 C206 1.382 . S
C204 C208 1.404 . S
H205 C203 0.951 . S
C206 C204 1.382 . S
C206 C207 1.390 . S
C206 H211 0.949 . S
C207 C206 1.390 . S
C207 C212 1.399 . S
C208 C204 1.404 . S
C208 H209 0.950 1_565 S
C208 C210 1.375 . S
H209 C208 0.950 1_545 S
C210 C208 1.375 . S
C210 C212 1.382 . S
C210 H214 0.950 . S
H211 C206 0.949 . S
C212 C207 1.399 . S
C212 C210 1.382 . S
C212 H213 0.952 . S
H213 C212 0.952 . S
H214 C210 0.950 . S
H215 C216 0.949 . S
C216 H215 0.949 . S
C216 C217 1.395 . S
C216 C218 1.391 . S
C217 C216 1.395 . S
C217 C220 1.390 . S
C218 C216 1.391 . S
C218 C222 1.387 . S
C218 C223 1.491 . S
H219 C220 0.950 . S
C220 C217 1.390 . S
C220 H219 0.950 . S
C220 C221 1.378 . S
C221 C220 1.378 . S
C221 C222 1.409 . S
C222 C218 1.387 . S
C222 C221 1.409 . S
C222 H224 0.951 . S
C223 C218 1.491 . S
C223 C225 1.382 . S
C223 C227 1.404 . S
H224 C222 0.951 . S
C225 C223 1.382 . S
C225 C226 1.390 . S
C225 H230 0.949 . S
C226 C225 1.390 . S
C226 C231 1.399 . S
C227 C223 1.404 . S
C227 H228 0.950 . S
C227 C229 1.375 . S
H228 C227 0.950 . S
C229 C227 1.375 . S
C229 C231 1.382 . S
C229 H233 0.950 . S
H230 C225 0.949 . S
C231 C226 1.399 . S
C231 C229 1.382 . S
C231 H232 0.952 . S
H232 C231 0.952 . S
H233 C229 0.950 . S
C234 C235 1.349 . S
C234 C236 1.327 . S
C234 H259 0.950 . S
C235 C234 1.349 . S
C235 C251 1.349 . S
C236 C234 1.327 . S
C236 C255 1.429 . S
C236 H260 0.950 . S
C237 C254 1.574 . S
C237 C256 1.368 . S
C237 H261 0.949 . S
H238 C242 0.949 . S
C239 C240 1.349 . S
C239 C241 1.327 . S
C239 H262 0.950 . S
C240 C239 1.349 . S
C240 C252 1.349 . S
C241 C239 1.327 . S
C241 C257 1.429 . S
C241 H263 0.950 . S
C242 H238 0.949 . S
C242 C250 1.574 . S
C242 C258 1.368 . S
H243 C251 0.950 . S
H244 C249 0.950 . S
H245 C250 0.949 . S
H246 C252 0.950 . S
H247 C253 0.950 . S
H248 C254 0.949 . S
C249 H244 0.950 . S
C249 C251 1.327 . S
C249 C255 1.429 . S
C250 C242 1.574 . S
C250 H245 0.949 . S
C250 C256 1.368 . S
C251 C235 1.349 . S
C251 H243 0.950 . S
C251 C249 1.327 . S
C252 C240 1.349 . S
C252 H246 0.950 . S
C252 C253 1.327 . S
C253 H247 0.950 . S
C253 C252 1.327 . S
C253 C257 1.429 . S
C254 C237 1.574 . S
C254 H248 0.949 . S
C254 C258 1.368 . S
C255 C236 1.429 . S
C255 C249 1.429 . S
C255 C256 1.523 . S
C256 C237 1.368 . S
C256 C250 1.368 . S
C256 C255 1.523 . S
C257 C241 1.429 . S
C257 C253 1.429 . S
C257 C258 1.523 . S
C258 C242 1.368 . S
C258 C254 1.368 . S
C258 C257 1.523 . S
H259 C234 0.950 . S
H260 C236 0.950 . S
H261 C237 0.949 . S
H262 C239 0.950 . S
H263 C241 0.950 . S
C264 C265 1.349 . S
C264 C266 1.327 . S
C264 H289 0.950 . S
C265 C264 1.349 . S
C265 C281 1.349 . S
C266 C264 1.327 . S
C266 C285 1.429 . S
C266 H290 0.950 . S
C267 C284 1.574 . S
C267 C286 1.368 . S
C267 H291 0.949 . S
H268 C272 0.949 . S
C269 C270 1.349 . S
C269 C271 1.327 . S
C269 H292 0.950 . S
C270 C269 1.349 . S
C270 C282 1.349 . S
C271 C269 1.327 . S
C271 C287 1.429 . S
C271 H293 0.950 . S
C272 H268 0.949 . S
C272 C280 1.574 . S
C272 C288 1.368 . S
H273 C281 0.950 . S
H274 C279 0.950 . S
H275 C280 0.949 . S
H276 C282 0.950 . S
H277 C283 0.950 . S
H278 C284 0.949 . S
C279 H274 0.950 . S
C279 C281 1.327 . S
C279 C285 1.429 . S
C280 C272 1.574 . S
C280 H275 0.949 . S
C280 C286 1.368 . S
C281 C265 1.349 . S
C281 H273 0.950 . S
C281 C279 1.327 . S
C282 C270 1.349 . S
C282 H276 0.950 . S
C282 C283 1.327 . S
C283 H277 0.950 . S
C283 C282 1.327 . S
C283 C287 1.429 . S
C284 C267 1.574 . S
C284 H278 0.949 . S
C284 C288 1.368 . S
C285 C266 1.429 . S
C285 C279 1.429 . S
C285 C286 1.523 . S
C286 C267 1.368 . S
C286 C280 1.368 . S
C286 C285 1.523 . S
C287 C271 1.429 . S
C287 C283 1.429 . S
C287 C288 1.523 . S
C288 C272 1.368 . S
C288 C284 1.368 . S
C288 C287 1.523 . S
H289 C264 0.950 . S
H290 C266 0.950 . S
H291 C267 0.949 . S
H292 C269 0.950 . S
H293 C271 0.950 . S
C294 C295 1.349 . S
C294 C296 1.327 . S
C294 H319 0.950 . S
C295 C294 1.349 . S
C295 C311 1.349 . S
C296 C294 1.327 . S
C296 C315 1.429 . S
C296 H320 0.950 . S
C297 C314 1.574 . S
C297 C316 1.368 . S
C297 H321 0.949 . S
H298 C302 0.949 . S
C299 C300 1.349 . S
C299 C301 1.327 . S
C299 H322 0.950 . S
C300 C299 1.349 . S
C300 C312 1.349 . S
C301 C299 1.327 . S
C301 C317 1.429 . S
C301 H323 0.950 . S
C302 H298 0.949 . S
C302 C310 1.574 . S
C302 C318 1.368 . S
H303 C311 0.950 . S
H304 C309 0.950 . S
H305 C310 0.949 . S
H306 C312 0.950 . S
H307 C313 0.950 . S
H308 C314 0.949 . S
C309 H304 0.950 . S
C309 C311 1.327 . S
C309 C315 1.429 . S
C310 C302 1.574 . S
C310 H305 0.949 . S
C310 C316 1.368 . S
C311 C295 1.349 . S
C311 H303 0.950 . S
C311 C309 1.327 . S
C312 C300 1.349 . S
C312 H306 0.950 . S
C312 C313 1.327 . S
C313 H307 0.950 . S
C313 C312 1.327 . S
C313 C317 1.429 . S
C314 C297 1.574 . S
C314 H308 0.949 . S
C314 C318 1.368 . S
C315 C296 1.429 . S
C315 C309 1.429 . S
C315 C316 1.523 . S
C316 C297 1.368 . S
C316 C310 1.368 . S
C316 C315 1.523 . S
C317 C301 1.429 . S
C317 C313 1.429 . S
C317 C318 1.523 . S
C318 C302 1.368 . S
C318 C314 1.368 . S
C318 C317 1.523 . S
H319 C294 0.950 . S
H320 C296 0.950 . S
H321 C297 0.949 . S
H322 C299 0.950 . S
H323 C301 0.950 . S
C324 C325 1.349 . S
C324 C326 1.327 . S
C324 H349 0.950 . S
C325 C324 1.349 . S
C325 C341 1.349 . S
C326 C324 1.327 . S
C326 C345 1.429 . S
C326 H350 0.950 . S
C327 C344 1.574 . S
C327 C346 1.368 . S
C327 H351 0.949 . S
H328 C332 0.949 . S
C329 C330 1.349 . S
C329 C331 1.327 . S
C329 H352 0.950 . S
C330 C329 1.349 . S
C330 C342 1.349 . S
C331 C329 1.327 . S
C331 C347 1.429 . S
C331 H353 0.950 . S
C332 H328 0.949 . S
C332 C340 1.574 . S
C332 C348 1.368 . S
H333 C341 0.950 . S
H334 C339 0.950 . S
H335 C340 0.949 . S
H336 C342 0.950 . S
H337 C343 0.950 . S
H338 C344 0.949 . S
C339 H334 0.950 . S
C339 C341 1.327 . S
C339 C345 1.429 . S
C340 C332 1.574 . S
C340 H335 0.949 . S
C340 C346 1.368 . S
C341 C325 1.349 . S
C341 H333 0.950 . S
C341 C339 1.327 . S
C342 C330 1.349 . S
C342 H336 0.950 . S
C342 C343 1.327 . S
C343 H337 0.950 . S
C343 C342 1.327 . S
C343 C347 1.429 . S
C344 C327 1.574 . S
C344 H338 0.949 . S
C344 C348 1.368 . S
C345 C326 1.429 . S
C345 C339 1.429 . S
C345 C346 1.523 . S
C346 C327 1.368 . S
C346 C340 1.368 . S
C346 C345 1.523 . S
C347 C331 1.429 . S
C347 C343 1.429 . S
C347 C348 1.523 . S
C348 C332 1.368 . S
C348 C344 1.368 . S
C348 C347 1.523 . S
H349 C324 0.950 . S
H350 C326 0.950 . S
H351 C327 0.949 . S
H352 C329 0.950 . S
H353 C331 0.950 . S
C354 C355 1.349 . S
C354 C356 1.327 . S
C354 H379 0.950 . S
C355 C354 1.349 . S
C355 C371 1.349 . S
C356 C354 1.327 . S
C356 C375 1.429 . S
C356 H380 0.950 . S
C357 C374 1.574 . S
C357 C376 1.368 . S
C357 H381 0.949 . S
H358 C362 0.949 . S
C359 C360 1.349 . S
C359 C361 1.327 . S
C359 H382 0.950 . S
C360 C359 1.349 . S
C360 C372 1.349 . S
C361 C359 1.327 . S
C361 C377 1.429 . S
C361 H383 0.950 . S
C362 H358 0.949 . S
C362 C370 1.574 . S
C362 C378 1.368 . S
H363 C371 0.950 . S
H364 C369 0.950 . S
H365 C370 0.949 . S
H366 C372 0.950 . S
H367 C373 0.950 . S
H368 C374 0.949 . S
C369 H364 0.950 . S
C369 C371 1.327 . S
C369 C375 1.429 . S
C370 C362 1.574 . S
C370 H365 0.949 . S
C370 C376 1.368 . S
C371 C355 1.349 . S
C371 H363 0.950 . S
C371 C369 1.327 . S
C372 C360 1.349 . S
C372 H366 0.950 . S
C372 C373 1.327 . S
C373 H367 0.950 . S
C373 C372 1.327 . S
C373 C377 1.429 . S
C374 C357 1.574 . S
C374 H368 0.949 . S
C374 C378 1.368 . S
C375 C356 1.429 . S
C375 C369 1.429 . S
C375 C376 1.523 . S
C376 C357 1.368 . S
C376 C370 1.368 . S
C376 C375 1.523 . S
C377 C361 1.429 . S
C377 C373 1.429 . S
C377 C378 1.523 . S
C378 C362 1.368 . S
C378 C374 1.368 . S
C378 C377 1.523 . S
H379 C354 0.950 . S
H380 C356 0.950 . S
H381 C357 0.949 . S
H382 C359 0.950 . S
H383 C361 0.950 . S
C384 C385 1.349 . S
C384 C386 1.327 . S
C384 H409 0.950 . S
C385 C384 1.349 . S
C385 C401 1.349 . S
C386 C384 1.327 . S
C386 C405 1.429 . S
C386 H410 0.950 . S
C387 C404 1.574 . S
C387 C406 1.368 . S
C387 H411 0.949 . S
H388 C392 0.949 . S
C389 C390 1.349 . S
C389 C391 1.327 . S
C389 H412 0.950 . S
C390 C389 1.349 . S
C390 C402 1.349 . S
C391 C389 1.327 . S
C391 C407 1.429 . S
C391 H413 0.950 . S
C392 H388 0.949 . S
C392 C400 1.574 . S
C392 C408 1.368 . S
H393 C401 0.950 . S
H394 C399 0.950 . S
H395 C400 0.949 . S
H396 C402 0.950 . S
H397 C403 0.950 . S
H398 C404 0.949 . S
C399 H394 0.950 . S
C399 C401 1.327 . S
C399 C405 1.429 . S
C400 C392 1.574 . S
C400 H395 0.949 . S
C400 C406 1.368 . S
C401 C385 1.349 . S
C401 H393 0.950 . S
C401 C399 1.327 . S
C402 C390 1.349 . S
C402 H396 0.950 . S
C402 C403 1.327 . S
C403 H397 0.950 . S
C403 C402 1.327 . S
C403 C407 1.429 . S
C404 C387 1.574 . S
C404 H398 0.949 . S
C404 C408 1.368 . S
C405 C386 1.429 . S
C405 C399 1.429 . S
C405 C406 1.523 . S
C406 C387 1.368 . S
C406 C400 1.368 . S
C406 C405 1.523 . S
C407 C391 1.429 . S
C407 C403 1.429 . S
C407 C408 1.523 . S
C408 C392 1.368 . S
C408 C404 1.368 . S
C408 C407 1.523 . S
H409 C384 0.950 . S
H410 C386 0.950 . S
H411 C387 0.949 . S
H412 C389 0.950 . S
H413 C391 0.950 . S
C414 C415 1.349 . S
C414 C416 1.327 . S
C414 H439 0.950 . S
C415 C414 1.349 . S
C415 C431 1.349 . S
C416 C414 1.327 . S
C416 C435 1.429 . S
C416 H440 0.950 . S
C417 C434 1.574 . S
C417 C436 1.368 . S
C417 H441 0.949 . S
H418 C422 0.949 . S
C419 C420 1.349 . S
C419 C421 1.327 . S
C419 H442 0.950 . S
C420 C419 1.349 . S
C420 C432 1.349 . S
C421 C419 1.327 . S
C421 C437 1.429 . S
C421 H443 0.950 . S
C422 H418 0.949 . S
C422 C430 1.574 . S
C422 C438 1.368 . S
H423 C431 0.950 . S
H424 C429 0.950 . S
H425 C430 0.949 . S
H426 C432 0.950 . S
H427 C433 0.950 . S
H428 C434 0.949 . S
C429 H424 0.950 . S
C429 C431 1.327 . S
C429 C435 1.429 . S
C430 C422 1.574 . S
C430 H425 0.949 . S
C430 C436 1.368 . S
C431 C415 1.349 . S
C431 H423 0.950 . S
C431 C429 1.327 . S
C432 C420 1.349 . S
C432 H426 0.950 . S
C432 C433 1.327 . S
C433 H427 0.950 . S
C433 C432 1.327 . S
C433 C437 1.429 . S
C434 C417 1.574 . S
C434 H428 0.949 . S
C434 C438 1.368 . S
C435 C416 1.429 . S
C435 C429 1.429 . S
C435 C436 1.523 . S
C436 C417 1.368 . S
C436 C430 1.368 . S
C436 C435 1.523 . S
C437 C421 1.429 . S
C437 C433 1.429 . S
C437 C438 1.523 . S
C438 C422 1.368 . S
C438 C434 1.368 . S
C438 C437 1.523 . S
H439 C414 0.950 . S
H440 C416 0.950 . S
H441 C417 0.949 . S
H442 C419 0.950 . S
H443 C421 0.950 . S
C444 C445 1.349 . S
C444 C446 1.327 . S
C444 H469 0.950 . S
C445 C444 1.349 . S
C445 C461 1.349 . S
C446 C444 1.327 . S
C446 C465 1.429 . S
C446 H470 0.950 . S
C447 C464 1.574 . S
C447 C466 1.368 . S
C447 H471 0.949 . S
H448 C452 0.949 . S
C449 C450 1.349 . S
C449 C451 1.327 . S
C449 H472 0.950 . S
C450 C449 1.349 . S
C450 C462 1.349 . S
C451 C449 1.327 . S
C451 C467 1.429 . S
C451 H473 0.950 . S
C452 H448 0.949 . S
C452 C460 1.574 . S
C452 C468 1.368 . S
H453 C461 0.950 . S
H454 C459 0.950 . S
H455 C460 0.949 . S
H456 C462 0.950 . S
H457 C463 0.950 . S
H458 C464 0.949 . S
C459 H454 0.950 . S
C459 C461 1.327 . S
C459 C465 1.429 . S
C460 C452 1.574 . S
C460 H455 0.949 . S
C460 C466 1.368 . S
C461 C445 1.349 . S
C461 H453 0.950 . S
C461 C459 1.327 . S
C462 C450 1.349 . S
C462 H456 0.950 . S
C462 C463 1.327 . S
C463 H457 0.950 . S
C463 C462 1.327 . S
C463 C467 1.429 . S
C464 C447 1.574 . S
C464 H458 0.949 . S
C464 C468 1.368 . S
C465 C446 1.429 . S
C465 C459 1.429 . S
C465 C466 1.523 . S
C466 C447 1.368 . S
C466 C460 1.368 . S
C466 C465 1.523 . S
C467 C451 1.429 . S
C467 C463 1.429 . S
C467 C468 1.523 . S
C468 C452 1.368 . S
C468 C464 1.368 . S
C468 C467 1.523 . S
H469 C444 0.950 . S
H470 C446 0.950 . S
H471 C447 0.949 . S
H472 C449 0.950 . S
H473 C451 0.950 . S
C474 C475 1.349 . S
C474 C476 1.327 . S
C474 H499 0.950 . S
C475 C474 1.349 . S
C475 C491 1.349 . S
C476 C474 1.327 . S
C476 C495 1.429 . S
C476 H500 0.950 . S
C477 C494 1.574 . S
C477 C496 1.368 . S
C477 H501 0.949 . S
H478 C482 0.949 . S
C479 C480 1.349 . S
C479 C481 1.327 1_545 S
C479 H502 0.950 . S
C480 C479 1.349 . S
C480 C492 1.349 1_545 S
C481 C479 1.327 1_565 S
C481 C497 1.429 . S
C481 H503 0.950 . S
C482 H478 0.949 . S
C482 C490 1.574 . S
C482 C498 1.368 . S
H483 C491 0.950 . S
H484 C489 0.950 . S
H485 C490 0.949 . S
H486 C492 0.950 . S
H487 C493 0.950 . S
H488 C494 0.949 . S
C489 H484 0.950 . S
C489 C491 1.327 . S
C489 C495 1.429 . S
C490 C482 1.574 . S
C490 H485 0.949 . S
C490 C496 1.368 . S
C491 C475 1.349 . S
C491 H483 0.950 . S
C491 C489 1.327 . S
C492 C480 1.349 1_565 S
C492 H486 0.950 . S
C492 C493 1.327 . S
C493 H487 0.950 . S
C493 C492 1.327 . S
C493 C497 1.429 . S
C494 C477 1.574 . S
C494 H488 0.949 . S
C494 C498 1.368 . S
C495 C476 1.429 . S
C495 C489 1.429 . S
C495 C496 1.523 . S
C496 C477 1.368 . S
C496 C490 1.368 . S
C496 C495 1.523 . S
C497 C481 1.429 . S
C497 C493 1.429 . S
C497 C498 1.523 . S
C498 C482 1.368 . S
C498 C494 1.368 . S
C498 C497 1.523 . S
H499 C474 0.950 . S
H500 C476 0.950 . S
H501 C477 0.949 . S
H502 C479 0.950 . S
H503 C481 0.950 . S
C504 C505 1.349 . S
C504 C506 1.327 . S
C504 H529 0.950 . S
C505 C504 1.349 . S
C505 C521 1.349 . S
C506 C504 1.327 . S
C506 C525 1.429 . S
C506 H530 0.950 . S
C507 C524 1.574 . S
C507 C526 1.368 . S
C507 H531 0.949 . S
H508 C512 0.949 . S
C509 C510 1.349 . S
C509 C511 1.327 . S
C509 H532 0.950 . S
C510 C509 1.349 . S
C510 C522 1.349 . S
C511 C509 1.327 . S
C511 C527 1.429 . S
C511 H533 0.950 . S
C512 H508 0.949 . S
C512 C520 1.574 . S
C512 C528 1.368 . S
H513 C521 0.950 . S
H514 C519 0.950 . S
H515 C520 0.949 . S
H516 C522 0.950 . S
H517 C523 0.950 . S
H518 C524 0.949 . S
C519 H514 0.950 . S
C519 C521 1.327 . S
C519 C525 1.429 . S
C520 C512 1.574 . S
C520 H515 0.949 . S
C520 C526 1.368 . S
C521 C505 1.349 . S
C521 H513 0.950 . S
C521 C519 1.327 . S
C522 C510 1.349 . S
C522 H516 0.950 . S
C522 C523 1.327 . S
C523 H517 0.950 . S
C523 C522 1.327 . S
C523 C527 1.429 . S
C524 C507 1.574 . S
C524 H518 0.949 . S
C524 C528 1.368 . S
C525 C506 1.429 . S
C525 C519 1.429 . S
C525 C526 1.523 . S
C526 C507 1.368 . S
C526 C520 1.368 . S
C526 C525 1.523 . S
C527 C511 1.429 . S
C527 C523 1.429 . S
C527 C528 1.523 . S
C528 C512 1.368 . S
C528 C524 1.368 . S
C528 C527 1.523 . S
H529 C504 0.950 . S
H530 C506 0.950 . S
H531 C507 0.949 . S
H532 C509 0.950 . S
H533 C511 0.950 . S
C534 C535 1.349 . S
C534 C536 1.327 . S
C534 H559 0.950 . S
C535 C534 1.349 . S
C535 C551 1.349 . S
C536 C534 1.327 . S
C536 C555 1.429 . S
C536 H560 0.950 . S
C537 C554 1.574 . S
C537 C556 1.368 . S
C537 H561 0.949 . S
H538 C542 0.949 . S
C539 C540 1.349 . S
C539 C541 1.327 . S
C539 H562 0.950 . S
C540 C539 1.349 . S
C540 C552 1.349 . S
C541 C539 1.327 . S
C541 C557 1.429 . S
C541 H563 0.950 . S
C542 H538 0.949 . S
C542 C550 1.574 . S
C542 C558 1.368 . S
H543 C551 0.950 . S
H544 C549 0.950 . S
H545 C550 0.949 . S
H546 C552 0.950 . S
H547 C553 0.950 . S
H548 C554 0.949 . S
C549 H544 0.950 . S
C549 C551 1.327 . S
C549 C555 1.429 . S
C550 C542 1.574 . S
C550 H545 0.949 . S
C550 C556 1.368 . S
C551 C535 1.349 . S
C551 H543 0.950 . S
C551 C549 1.327 . S
C552 C540 1.349 . S
C552 H546 0.950 . S
C552 C553 1.327 . S
C553 H547 0.950 . S
C553 C552 1.327 . S
C553 C557 1.429 . S
C554 C537 1.574 . S
C554 H548 0.949 . S
C554 C558 1.368 . S
C555 C536 1.429 . S
C555 C549 1.429 . S
C555 C556 1.523 . S
C556 C537 1.368 . S
C556 C550 1.368 . S
C556 C555 1.523 . S
C557 C541 1.429 . S
C557 C553 1.429 . S
C557 C558 1.523 . S
C558 C542 1.368 . S
C558 C554 1.368 . S
C558 C557 1.523 . S
H559 C534 0.950 . S
H560 C536 0.950 . S
H561 C537 0.949 . S
H562 C539 0.950 . S
H563 C541 0.950 . S
C564 C565 1.349 . S
C564 C566 1.327 . S
C564 H589 0.950 . S
C565 C564 1.349 . S
C565 C581 1.349 . S
C566 C564 1.327 . S
C566 C585 1.429 . S
C566 H590 0.950 . S
C567 C584 1.574 . S
C567 C586 1.368 . S
C567 H591 0.949 . S
H568 C572 0.949 . S
C569 C570 1.349 . S
C569 C571 1.327 . S
C569 H592 0.950 . S
C570 C569 1.349 . S
C570 C582 1.349 . S
C571 C569 1.327 . S
C571 C587 1.429 . S
C571 H593 0.950 . S
C572 H568 0.949 . S
C572 C580 1.574 . S
C572 C588 1.368 . S
H573 C581 0.950 . S
H574 C579 0.950 . S
H575 C580 0.949 . S
H576 C582 0.950 . S
H577 C583 0.950 . S
H578 C584 0.949 . S
C579 H574 0.950 . S
C579 C581 1.327 . S
C579 C585 1.429 . S
C580 C572 1.574 . S
C580 H575 0.949 . S
C580 C586 1.368 . S
C581 C565 1.349 . S
C581 H573 0.950 . S
C581 C579 1.327 . S
C582 C570 1.349 . S
C582 H576 0.950 . S
C582 C583 1.327 . S
C583 H577 0.950 . S
C583 C582 1.327 . S
C583 C587 1.429 . S
C584 C567 1.574 . S
C584 H578 0.949 . S
C584 C588 1.368 . S
C585 C566 1.429 . S
C585 C579 1.429 . S
C585 C586 1.523 . S
C586 C567 1.368 . S
C586 C580 1.368 . S
C586 C585 1.523 . S
C587 C571 1.429 . S
C587 C583 1.429 . S
C587 C588 1.523 . S
C588 C572 1.368 . S
C588 C584 1.368 . S
C588 C587 1.523 . S
H589 C564 0.950 . S
H590 C566 0.950 . S
H591 C567 0.949 . S
H592 C569 0.950 . S
H593 C571 0.950 . S
C594 C595 1.349 1_655 S
C594 C596 1.327 . S
C594 H619 0.950 . S
C595 C594 1.349 1_455 S
C595 C611 1.349 . S
C596 C594 1.327 . S
C596 C615 1.429 1_655 S
C596 H620 0.950 . S
C597 C614 1.532 1_554 S
C597 C616 1.368 . S
C597 H621 0.949 . S
H598 C602 0.949 1_655 S
C599 C600 1.349 . S
C599 C601 1.327 . S
C599 H622 0.950 . S
C600 C599 1.349 . S
C600 C612 1.349 . S
C601 C599 1.327 . S
C601 C617 1.429 . S
C601 H623 0.950 . S
C602 H598 0.949 1_455 S
C602 C610 1.578 1_556 S
C602 C618 1.368 . S
H603 C611 0.950 . S
H604 C609 0.950 . S
H605 C610 0.935 1_655 S
H606 C612 0.950 1_655 S
H607 C613 0.950 1_655 S
H608 C614 0.973 . S
C609 H604 0.950 . S
C609 C611 1.327 . S
C609 C615 1.429 . S
C610 C602 1.578 1_554 S
C610 H605 0.935 1_455 S
C610 C616 1.380 . S
C611 C595 1.349 . S
C611 H603 0.950 . S
C611 C609 1.327 . S
C612 C600 1.349 . S
C612 H606 0.950 1_455 S
C612 C613 1.327 . S
C613 H607 0.950 1_455 S
C613 C612 1.327 . S
C613 C617 1.429 . S
C614 C597 1.532 1_556 S
C614 H608 0.973 . S
C614 C618 1.385 . S
C615 C596 1.429 1_455 S
C615 C609 1.429 . S
C615 C616 1.523 . S
C616 C597 1.368 . S
C616 C610 1.380 . S
C616 C615 1.523 . S
C617 C601 1.429 . S
C617 C613 1.429 . S
C617 C618 1.523 . S
C618 C602 1.368 . S
C618 C614 1.385 . S
C618 C617 1.523 . S
H619 C594 0.950 . S
H620 C596 0.950 . S
H621 C597 0.949 . S
H622 C599 0.950 . S
H623 C601 0.950 . S
C624 C625 1.349 . S
C624 C626 1.327 . S
C624 H649 0.950 . S
C625 C624 1.349 . S
C625 C641 1.349 . S
C626 C624 1.327 . S
C626 C645 1.429 . S
C626 H650 0.950 . S
C627 C644 1.574 . S
C627 C646 1.368 . S
C627 H651 0.949 . S
H628 C632 0.949 . S
C629 C630 1.349 . S
C629 C631 1.327 . S
C629 H652 0.950 . S
C630 C629 1.349 . S
C630 C642 1.349 . S
C631 C629 1.327 . S
C631 C647 1.429 . S
C631 H653 0.950 . S
C632 H628 0.949 . S
C632 C640 1.574 . S
C632 C648 1.368 . S
H633 C641 0.950 . S
H634 C639 0.950 . S
H635 C640 0.949 . S
H636 C642 0.950 . S
H637 C643 0.950 . S
H638 C644 0.949 . S
C639 H634 0.950 . S
C639 C641 1.327 . S
C639 C645 1.429 . S
C640 C632 1.574 . S
C640 H635 0.949 . S
C640 C646 1.368 . S
C641 C625 1.349 . S
C641 H633 0.950 . S
C641 C639 1.327 . S
C642 C630 1.349 . S
C642 H636 0.950 . S
C642 C643 1.327 . S
C643 H637 0.950 . S
C643 C642 1.327 . S
C643 C647 1.429 . S
C644 C627 1.574 . S
C644 H638 0.949 . S
C644 C648 1.368 . S
C645 C626 1.429 . S
C645 C639 1.429 . S
C645 C646 1.523 . S
C646 C627 1.368 . S
C646 C640 1.368 . S
C646 C645 1.523 . S
C647 C631 1.429 . S
C647 C643 1.429 . S
C647 C648 1.523 . S
C648 C632 1.368 . S
C648 C644 1.368 . S
C648 C647 1.523 . S
H649 C624 0.950 . S
H650 C626 0.950 . S
H651 C627 0.949 . S
H652 C629 0.950 . S
H653 C631 0.950 . S
C654 C655 1.349 . S
C654 C656 1.327 . S
C654 H679 0.950 . S
C655 C654 1.349 . S
C655 C671 1.349 . S
C656 C654 1.327 . S
C656 C675 1.429 . S
C656 H680 0.950 . S
C657 C674 1.574 . S
C657 C676 1.368 . S
C657 H681 0.949 . S
H658 C662 0.949 . S
C659 C660 1.349 . S
C659 C661 1.327 . S
C659 H682 0.950 . S
C660 C659 1.349 . S
C660 C672 1.349 . S
C661 C659 1.327 . S
C661 C677 1.429 . S
C661 H683 0.950 . S
C662 H658 0.949 . S
C662 C670 1.574 . S
C662 C678 1.368 . S
H663 C671 0.950 . S
H664 C669 0.950 . S
H665 C670 0.949 . S
H666 C672 0.950 . S
H667 C673 0.950 . S
H668 C674 0.949 . S
C669 H664 0.950 . S
C669 C671 1.327 . S
C669 C675 1.429 . S
C670 C662 1.574 . S
C670 H665 0.949 . S
C670 C676 1.368 . S
C671 C655 1.349 . S
C671 H663 0.950 . S
C671 C669 1.327 . S
C672 C660 1.349 . S
C672 H666 0.950 . S
C672 C673 1.327 . S
C673 H667 0.950 . S
C673 C672 1.327 . S
C673 C677 1.429 . S
C674 C657 1.574 . S
C674 H668 0.949 . S
C674 C678 1.368 . S
C675 C656 1.429 . S
C675 C669 1.429 . S
C675 C676 1.523 . S
C676 C657 1.368 . S
C676 C670 1.368 . S
C676 C675 1.523 . S
C677 C661 1.429 . S
C677 C673 1.429 . S
C677 C678 1.523 . S
C678 C662 1.368 . S
C678 C674 1.368 . S
C678 C677 1.523 . S
H679 C654 0.950 . S
H680 C656 0.950 . S
H681 C657 0.949 . S
H682 C659 0.950 . S
H683 C661 0.950 . S
C684 C685 1.349 . S
C684 C686 1.327 . S
C684 H709 0.950 . S
C685 C684 1.349 . S
C685 C701 1.349 . S
C686 C684 1.327 . S
C686 C705 1.429 . S
C686 H710 0.950 . S
C687 C704 1.574 . S
C687 C706 1.368 . S
C687 H711 0.949 . S
H688 C692 0.949 . S
C689 C690 1.349 . S
C689 C691 1.327 . S
C689 H712 0.950 . S
C690 C689 1.349 . S
C690 C702 1.349 . S
C691 C689 1.327 . S
C691 C707 1.429 . S
C691 H713 0.950 . S
C692 H688 0.949 . S
C692 C700 1.574 . S
C692 C708 1.368 . S
H693 C701 0.950 . S
H694 C699 0.950 . S
H695 C700 0.949 . S
H696 C702 0.950 . S
H697 C703 0.950 . S
H698 C704 0.949 . S
C699 H694 0.950 . S
C699 C701 1.327 . S
C699 C705 1.429 . S
C700 C692 1.574 . S
C700 H695 0.949 . S
C700 C706 1.368 . S
C701 C685 1.349 . S
C701 H693 0.950 . S
C701 C699 1.327 . S
C702 C690 1.349 . S
C702 H696 0.950 . S
C702 C703 1.327 . S
C703 H697 0.950 . S
C703 C702 1.327 . S
C703 C707 1.429 . S
C704 C687 1.574 . S
C704 H698 0.949 . S
C704 C708 1.368 . S
C705 C686 1.429 . S
C705 C699 1.429 . S
C705 C706 1.523 . S
C706 C687 1.368 . S
C706 C700 1.368 . S
C706 C705 1.523 . S
C707 C691 1.429 . S
C707 C703 1.429 . S
C707 C708 1.523 . S
C708 C692 1.368 . S
C708 C704 1.368 . S
C708 C707 1.523 . S
H709 C684 0.950 . S
H710 C686 0.950 . S
H711 C687 0.949 . S
H712 C689 0.950 . S
H713 C691 0.950 . S
C714 C715 1.349 . S
C714 C716 1.327 . S
C714 H739 0.950 . S
C715 C714 1.349 . S
C715 C731 1.349 . S
C716 C714 1.327 . S
C716 C735 1.429 . S
C716 H740 0.950 . S
C717 C734 1.574 1_556 S
C717 C736 1.368 . S
C717 H741 0.949 . S
H718 C722 0.949 . S
C719 C720 1.349 . S
C719 C721 1.327 . S
C719 H742 0.950 . S
C720 C719 1.349 . S
C720 C732 1.349 . S
C721 C719 1.327 . S
C721 C737 1.429 . S
C721 H743 0.950 . S
C722 H718 0.949 . S
C722 C730 1.574 1_554 S
C722 C738 1.368 . S
H723 C731 0.950 . S
H724 C729 0.950 . S
H725 C730 0.949 . S
H726 C732 0.950 . S
H727 C733 0.950 . S
H728 C734 0.949 . S
C729 H724 0.950 . S
C729 C731 1.327 . S
C729 C735 1.429 . S
C730 C722 1.574 1_556 S
C730 H725 0.949 . S
C730 C736 1.368 . S
C731 C715 1.349 . S
C731 H723 0.950 . S
C731 C729 1.327 . S
C732 C720 1.349 . S
C732 H726 0.950 . S
C732 C733 1.327 . S
C733 H727 0.950 . S
C733 C732 1.327 . S
C733 C737 1.429 . S
C734 C717 1.574 1_554 S
C734 H728 0.949 . S
C734 C738 1.368 . S
C735 C716 1.429 . S
C735 C729 1.429 . S
C735 C736 1.523 . S
C736 C717 1.368 . S
C736 C730 1.368 . S
C736 C735 1.523 . S
C737 C721 1.429 . S
C737 C733 1.429 . S
C737 C738 1.523 . S
C738 C722 1.368 . S
C738 C734 1.368 . S
C738 C737 1.523 . S
H739 C714 0.950 . S
H740 C716 0.950 . S
H741 C717 0.949 . S
H742 C719 0.950 . S
H743 C721 0.950 . S
C744 C745 1.349 . S
C744 C746 1.327 . S
C744 H769 0.950 . S
C745 C744 1.349 . S
C745 C761 1.349 . S
C746 C744 1.327 . S
C746 C765 1.429 . S
C746 H770 0.950 . S
C747 C764 1.574 . S
C747 C766 1.368 . S
C747 H771 0.949 . S
H748 C752 0.949 . S
C749 C750 1.349 . S
C749 C751 1.327 . S
C749 H772 0.950 . S
C750 C749 1.349 . S
C750 C762 1.349 . S
C751 C749 1.327 . S
C751 C767 1.429 . S
C751 H773 0.950 . S
C752 H748 0.949 . S
C752 C760 1.574 . S
C752 C768 1.368 . S
H753 C761 0.950 . S
H754 C759 0.950 . S
H755 C760 0.949 . S
H756 C762 0.950 . S
H757 C763 0.950 . S
H758 C764 0.949 . S
C759 H754 0.950 . S
C759 C761 1.327 . S
C759 C765 1.429 . S
C760 C752 1.574 . S
C760 H755 0.949 . S
C760 C766 1.368 . S
C761 C745 1.349 . S
C761 H753 0.950 . S
C761 C759 1.327 . S
C762 C750 1.349 . S
C762 H756 0.950 . S
C762 C763 1.327 . S
C763 H757 0.950 . S
C763 C762 1.327 . S
C763 C767 1.429 . S
C764 C747 1.574 . S
C764 H758 0.949 . S
C764 C768 1.368 . S
C765 C746 1.429 . S
C765 C759 1.429 . S
C765 C766 1.523 . S
C766 C747 1.368 . S
C766 C760 1.368 . S
C766 C765 1.523 . S
C767 C751 1.429 . S
C767 C763 1.429 . S
C767 C768 1.523 . S
C768 C752 1.368 . S
C768 C764 1.368 . S
C768 C767 1.523 . S
H769 C744 0.950 . S
H770 C746 0.950 . S
H771 C747 0.949 . S
H772 C749 0.950 . S
H773 C751 0.950 . S
C235 C19 1.998 . S
C240 C226 1.932 . S
C265 C46 1.297 . S
C270 C188 1.235 . S
C295 C95 0.380 . S
C300 C207 0.510 . S
C325 C10 1.855 . S
C330 C221 1.830 . S
C360 C183 1.084 . S
C355 C55 1.098 . S
C390 C202 0.296 . S
C385 C86 0.293 . S
C415 C59 3.241 . S
C420 C150 3.155 . S
C445 C90 1.876 . S
C450 C164 1.868 . S
C475 C15 1.081 . S
C480 C126 1.070 . S
C510 C145 2.875 . S
C505 C50 2.902 . S
C540 C169 1.931 . S
C535 C99 1.987 . S
C565 C6 1.315 . S
C570 C131 1.247 . S
C600 C160 1.549 . S
C595 C9 1.482 . S
C625 C58 1.574 . S
C630 C122 1.573 . S
C655 C98 1.669 . S
C660 C141 1.756 . S
C690 C198 1.389 . S
C685 C49 1.334 . S
C720 C217 1.541 . S
C715 C89 1.512 . S
C745 C18 1.571 . S
C750 C179 1.569 . S
