# Generated by pormake.
# Topology anh, (6,3)-cn, num edge types: 1
# Building blocks:
#     Node 0, Type 0, BuildingBlock: INOVEN_clean_sbu_0, # of connection points: 6
#     Node 1, Type 0, BuildingBlock: INOVEN_clean_sbu_0, # of connection points: 6
#     Node 2, Type 0, BuildingBlock: INOVEN_clean_sbu_0, # of connection points: 6
#     Node 3, Type 1, BuildingBlock: MIDCAF_clean_linker_0, # of connection points: 3
#     Node 4, Type 1, BuildingBlock: MIDCAF_clean_linker_0, # of connection points: 3
#     Node 5, Type 1, BuildingBlock: MIDCAF_clean_linker_0, # of connection points: 3
#     Node 6, Type 1, BuildingBlock: MIDCAF_clean_linker_0, # of connection points: 3
#     Node 7, Type 1, BuildingBlock: MIDCAF_clean_linker_0, # of connection points: 3
#     Node 8, Type 1, BuildingBlock: MIDCAF_clean_linker_0, # of connection points: 3
#     Edge 9, Type (0, 1), None
#     Edge 10, Type (0, 1), None
#     Edge 11, Type (0, 1), None
#     Edge 12, Type (0, 1), None
#     Edge 13, Type (0, 1), None
#     Edge 14, Type (0, 1), None
#     Edge 15, Type (0, 1), None
#     Edge 16, Type (0, 1), None
#     Edge 17, Type (0, 1), None
#     Edge 18, Type (0, 1), None
#     Edge 19, Type (0, 1), None
#     Edge 20, Type (0, 1), None
#     Edge 21, Type (0, 1), None
#     Edge 22, Type (0, 1), None
#     Edge 23, Type (0, 1), None
#     Edge 24, Type (0, 1), None
#     Edge 25, Type (0, 1), None
#     Edge 26, Type (0, 1), None
# Relax obj value: 0.283
# Max RMSD: 0.266
# Mean RMSD: 0.185
data_MOF--net-anh--node1-INOVEN_clean_sbu_0--node2-MIDCAF_clean_linker_0--edge1-none
_symmetry_space_group_name_H-M    P1
_symmetry_Int_Tables_number       1
_symmetry_cell_setting            triclinic
loop_
_symmetry_equiv_pos_as_xyz
'x, y, z'
_cell_length_a     21.106276
_cell_length_b     26.794927
_cell_length_c     36.928883
_cell_angle_alpha  92.247585
_cell_angle_beta   89.548996
_cell_angle_gamma 133.93032
loop_
_atom_site_label
_atom_site_type_symbol
_atom_site_fract_x
_atom_site_fract_y
_atom_site_fract_z
_atom_type_partial_charge
Gd0 Gd 0.24721 0.58567 0.14978 0.0
Gd1 Gd 0.13847 0.61403 0.16283 0.0
C2 C 0.34793 0.74843 0.15876 0.0
C3 C 0.33429 0.55735 0.12688 0.0
C4 C 0.30301 0.48832 0.12481 0.0
C5 C 0.21619 0.42982 0.11282 0.0
C6 C 0.35741 0.47956 0.13661 0.0
C7 C 0.2414 0.35554 0.12115 0.0
C8 C 0.32697 0.41373 0.13475 0.0
C9 C 0.18566 0.36407 0.11106 0.0
C10 C 0.20026 0.57303 0.21953 0.0
C11 C 1.04041 0.45435 0.15812 0.0
C12 C 1.03965 0.6313 0.18502 0.0
C13 C 0.94278 0.57754 0.17989 0.0
C14 C 0.90486 0.5778 0.14894 0.0
C15 C 0.89137 0.51719 0.20009 0.0
C16 C 0.77575 0.45494 0.15386 0.0
C17 C 0.80822 0.45618 0.18709 0.0
C18 C 0.82238 0.5168 0.13585 0.0
C19 C 0.13296 0.57571 0.09252 0.0
O20 O 0.35689 0.70413 0.15423 0.0
O21 O 0.26916 0.7258 0.16229 0.0
O22 O 0.34674 0.58369 0.15966 0.0
O23 O 0.29357 0.56515 0.10492 0.0
O24 O 0.19979 0.52997 0.20208 0.0
O25 O 0.22596 0.62089 0.19949 0.0
O26 O 1.04183 0.49981 0.17451 0.0
O27 O 0.11028 0.47691 0.14039 0.0
O28 O 1.0843 0.65821 0.15519 0.0
O29 O 1.072 0.61593 0.20696 0.0
O30 O 1.06506 0.55462 0.10989 0.0
O31 O 0.20058 0.61714 0.11283 0.0
H32 H 0.17224 0.43487 0.10391 0.0
H33 H 0.42395 0.52378 0.14647 0.0
H34 H 0.3724 0.4092 0.14199 0.0
H35 H 0.11974 0.32036 0.10039 0.0
H36 H 0.94208 0.62343 0.13302 0.0
H37 H 0.91805 0.51522 0.22432 0.0
H38 H 0.77224 0.40909 0.20163 0.0
H39 H 0.79689 0.51704 0.11056 0.0
Gd40 Gd 0.75835 0.0862 0.47358 0.0
Gd41 Gd 0.63835 0.10386 0.46505 0.0
C42 C 0.54822 0.9489 0.46167 0.0
C43 C 0.83762 0.04829 0.49105 0.0
C44 C 0.80985 0.98517 0.50469 0.0
C45 C 0.85798 0.96837 0.49588 0.0
C46 C 0.73384 0.9401 0.5252 0.0
C47 C 0.75536 0.86226 0.5285 0.0
C48 C 0.70698 0.87918 0.53715 0.0
C49 C 0.83096 0.90733 0.50766 0.0
C50 C 0.74254 0.1076 0.40477 0.0
C51 C 0.85179 0.24374 0.47193 0.0
C52 C 0.56143 0.14409 0.44832 0.0
C53 C 0.5687 0.19946 0.4642 0.0
C54 C 0.54878 0.19878 0.50068 0.0
C55 C 0.60208 0.25627 0.44378 0.0
C56 C 0.60222 0.31311 0.49689 0.0
C57 C 0.61868 0.31269 0.45997 0.0
C58 C 0.56504 0.25477 0.51674 0.0
C59 C 0.651 0.08153 0.53445 0.0
O60 O 0.62198 0.97544 0.4785 0.0
O61 O 0.54474 0.9911 0.44692 0.0
O62 O 0.81083 0.0423 0.45801 0.0
O63 O 0.83052 0.08336 0.51326 0.0
O64 O 0.81658 0.13624 0.4203 0.0
O65 O 0.67983 0.06808 0.42594 0.0
O66 O 0.77129 0.21627 0.46483 0.0
O67 O 0.86472 0.20348 0.47945 0.0
O68 O 0.52562 0.09132 0.46837 0.0
O69 O 0.631 0.16498 0.43187 0.0
O70 O 0.58017 0.05927 0.51897 0.0
O71 O 0.71504 0.12 0.51351 0.0
H72 H 0.91647 1.00247 0.47986 0.0
H73 H 0.69522 0.95191 0.5319 0.0
H74 H 0.64804 0.84504 0.5529 0.0
H75 H 0.87006 0.89598 0.50099 0.0
H76 H 0.52276 0.15585 0.51726 0.0
H77 H 0.61793 0.25798 0.4156 0.0
H78 H 0.6474 0.35695 0.44401 0.0
H79 H 0.54976 0.25283 0.54503 0.0
Gd80 Gd 0.68816 0.60518 0.85705 0.0
Gd81 Gd 0.56584 0.45192 0.8492 0.0
C82 C 0.4764 0.52228 0.8574 0.0
C83 C 0.79397 0.73631 0.84545 0.0
C84 C 0.78063 0.78058 0.83242 0.0
C85 C 0.7068 0.76894 0.8422 0.0
C86 C 0.84065 0.83361 0.80872 0.0
C87 C 0.75311 0.86231 0.80448 0.0
C88 C 0.82715 0.87388 0.79492 0.0
C89 C 0.69341 0.80938 0.82854 0.0
C90 C 0.63464 0.53639 0.919 0.0
C91 C 0.77971 0.53608 0.85501 0.0
C92 C 0.46247 0.31912 0.8522 0.0
C93 C 0.47806 0.27348 0.84467 0.0
C94 C 0.41504 0.21058 0.82458 0.0
C95 C 0.5588 0.29506 0.85401 0.0
C96 C 0.5159 0.19458 0.82043 0.0
C97 C 0.57745 0.25604 0.84208 0.0
C98 C 0.43351 0.17153 0.81272 0.0
C99 C 0.6326 0.5168 0.78683 0.0
O100 O 0.55915 0.5824 0.85256 0.0
O101 O 0.46446 0.4656 0.85999 0.0
O102 O 0.76482 0.71104 0.87758 0.0
O103 O 0.77778 0.69089 0.8216 0.0
O104 O 0.63765 0.586 0.91508 0.0
O105 O 0.65917 0.52754 0.89093 0.0
O106 O 0.69545 0.47488 0.85465 0.0
O107 O 0.79297 0.5937 0.85481 0.0
O108 O 0.4653 0.3486 0.82397 0.0
O109 O 0.50222 0.36157 0.88095 0.0
O110 O 0.62227 0.46519 0.79527 0.0
O111 O 0.60422 0.53083 0.81134 0.0
H112 H 0.65873 0.72801 0.86013 0.0
H113 H 0.89795 0.84364 0.80061 0.0
H114 H 0.87524 0.91447 0.77686 0.0
H115 H 0.63499 0.79798 0.8362 0.0
H116 H 0.35236 0.19271 0.817 0.0
H117 H 0.60882 0.34335 0.86948 0.0
H118 H 0.64174 0.27585 0.84837 0.0
H119 H 0.38379 0.12393 0.79666 0.0
C120 C 0.41972 0.87349 0.16026 0.0
C121 C 0.42797 0.82559 0.16171 0.0
C122 C 0.51277 0.85244 0.16831 0.0
C123 C 0.58554 0.92412 0.17545 0.0
H124 H 0.89096 0.21846 0.14494 0.0
H125 H 1.01164 0.34136 0.13084 0.0
H126 H 0.89077 0.39258 0.1957 0.0
H127 H 0.7724 0.2712 0.20981 0.0
H128 H 0.85409 0.20533 0.29344 0.0
H129 H 0.86728 0.20568 0.35916 0.0
H130 H 0.59476 1.0122 0.36194 0.0
H131 H 0.58186 1.01064 0.29597 0.0
H132 H 0.48269 0.97977 0.16776 0.0
H133 H 0.35591 0.85533 0.15524 0.0
H134 H 0.52228 0.81771 0.16985 0.0
H135 H 0.64833 0.94218 0.183 0.0
N136 N 0.70019 0.10271 0.17551 0.0
N137 N 0.76431 0.16561 0.23157 0.0
N138 N 0.65151 0.04453 0.23032 0.0
C139 C 0.7603 0.16523 0.19486 0.0
C140 C 0.7106 0.1059 0.24946 0.0
C141 C 0.64544 0.04185 0.1936 0.0
C142 C 0.8209 0.2345 0.17803 0.0
C143 C 0.88888 0.25576 0.1551 0.0
C144 C 0.95872 0.32655 0.14739 0.0
C145 C 0.96216 0.37782 0.16235 0.0
C146 C 0.89145 0.35544 0.18369 0.0
C147 C 0.82271 0.28534 0.19159 0.0
C148 C 0.7171 0.1077 0.28948 0.0
C149 C 0.79683 0.16302 0.30805 0.0
C150 C 0.8045 0.1632 0.34563 0.0
C151 C 0.73212 0.10893 0.36548 0.0
C152 C 0.65153 0.05473 0.34721 0.0
C153 C 0.64436 0.0537 0.30948 0.0
C154 C 0.5765 0.97151 0.17525 0.0
C155 C 0.49283 0.94527 0.16689 0.0
C156 C 0.66668 0.39656 0.55031 0.0
C157 C 0.62692 0.37484 0.51556 0.0
C158 C 0.60888 0.41098 0.49981 0.0
C159 C 0.62632 0.46556 0.51933 0.0
H160 H 0.71556 0.66905 0.51505 0.0
H161 H 0.74671 0.76757 0.49114 0.0
H162 H 0.70531 0.81481 0.59668 0.0
H163 H 0.67325 0.7162 0.62064 0.0
H164 H 0.63384 0.62335 0.6899 0.0
H165 H 0.61441 0.59746 0.75446 0.0
H166 H 0.7034 0.49428 0.73636 0.0
H167 H 0.72249 0.51951 0.67289 0.0
H168 H 0.71249 0.46452 0.5968 0.0
H169 H 0.68382 0.37119 0.56279 0.0
H170 H 0.57837 0.39544 0.47301 0.0
H171 H 0.60887 0.49092 0.50716 0.0
N172 N 0.67542 0.58399 0.56333 0.0
N173 N 0.68251 0.62569 0.62198 0.0
N174 N 0.67266 0.53347 0.61435 0.0
C175 C 0.68183 0.62946 0.58534 0.0
C176 C 0.67829 0.57787 0.63659 0.0
C177 C 0.67078 0.53575 0.57785 0.0
C178 C 0.69263 0.685 0.56985 0.0
C179 C 0.71206 0.69988 0.53309 0.0
C180 C 0.73047 0.75654 0.51942 0.0
C181 C 0.72909 0.79906 0.54214 0.0
C182 C 0.70635 0.78266 0.5785 0.0
C183 C 0.68852 0.72635 0.59224 0.0
C184 C 0.67783 0.5721 0.67621 0.0
C185 C 0.65047 0.59613 0.69999 0.0
C186 C 0.63933 0.58139 0.73682 0.0
C187 C 0.65578 0.54275 0.75005 0.0
C188 C 0.6887 0.5231 0.72672 0.0
C189 C 0.69945 0.53745 0.69026 0.0
C190 C 0.66172 0.4845 0.55489 0.0
C191 C 0.68353 0.45041 0.56975 0.0
C192 C 0.95036 0.59894 0.86151 0.0
C193 C 0.85827 0.53773 0.85694 0.0
C194 C 0.84252 0.47614 0.85538 0.0
C195 C 0.91103 0.47562 0.85879 0.0
H196 H 0.36172 0.63006 0.85288 0.0
H197 H 0.47548 0.62725 0.84567 0.0
H198 H 0.29216 0.41601 0.87688 0.0
H199 H 0.17896 0.41951 0.88459 0.0
H200 H 0.26838 0.59813 0.98509 0.0
H201 H 0.26925 0.61502 0.051 0.0
H202 H 0.99673 0.51057 0.04396 0.0
H203 H 0.99653 0.49581 0.9784 0.0
H204 H 1.08547 0.64744 0.87085 0.0
H205 H 0.97034 0.64866 0.86357 0.0
H206 H 0.77513 0.42648 0.85238 0.0
H207 H 0.89032 0.4257 0.85941 0.0
N208 N 0.12923 0.53036 0.86183 0.0
N209 N 0.18579 0.53556 0.91874 0.0
N210 N 1.07791 0.53995 0.91634 0.0
C211 C 0.1872 0.53029 0.88189 0.0
C212 C 0.13241 0.54021 0.93596 0.0
C213 C 1.07308 0.53542 0.87964 0.0
C214 C 0.25425 0.52378 0.86744 0.0
C215 C 0.34282 0.58147 0.85699 0.0
C216 C 0.41072 0.58003 0.85334 0.0
C217 C 0.39803 0.52104 0.86014 0.0
C218 C 0.30951 0.46328 0.87054 0.0
C219 C 0.24199 0.46508 0.87456 0.0
C220 C 0.13252 0.54585 0.97634 0.0
C221 C 0.20853 0.57829 -0.00232 0.0
C222 C 0.20904 0.58802 0.03545 0.0
C223 C 0.133 0.56405 0.05277 0.0
C224 C 1.05648 0.52981 0.03154 0.0
C225 C 1.05647 0.52144 -0.00613 0.0
C226 C 1.00323 0.53667 0.86335 0.0
C227 C 1.0188 0.59824 0.86512 0.0
C228 C 0.39217 0.84522 0.44002 0.0
C229 C 0.46918 0.87158 0.45829 0.0
C230 C 0.46938 0.82314 0.472 0.0
C231 C 0.3963 0.75076 0.46596 0.0
H232 H 0.97053 0.46438 0.44676 0.0
H233 H 0.84896 0.34351 0.46205 0.0
H234 H 1.03035 0.31971 0.47204 0.0
H235 H 0.15194 0.44121 0.45648 0.0
H236 H 0.12369 0.47138 0.33066 0.0
H237 H 0.12961 0.46793 0.26449 0.0
H238 H 0.24822 0.67904 0.26373 0.0
H239 H 0.24383 0.68319 0.32977 0.0
H240 H 0.26426 0.75597 0.41796 0.0
H241 H 0.38837 0.88008 0.42919 0.0
H242 H 0.52712 0.84109 0.48632 0.0
H243 H 0.40071 0.71521 0.47488 0.0
N244 N 0.19979 0.59384 0.44988 0.0
N245 N 0.13417 0.52487 0.39534 0.0
N246 N 0.24721 0.64554 0.39334 0.0
C247 C 0.13869 0.52947 0.43222 0.0
C248 C 0.18814 0.58257 0.37575 0.0
C249 C 0.25477 0.65241 0.43002 0.0
C250 C 1.07166 0.46342 0.45144 0.0
C251 C 0.98499 0.43414 0.45359 0.0
C252 C 0.91491 0.36424 0.462 0.0
C253 C 0.92887 0.32081 0.46828 0.0
C254 C 1.01643 0.35108 0.46769 0.0
C255 C 1.08661 0.42116 0.45909 0.0
C256 C 0.18412 0.57776 0.33554 0.0
C257 C 0.15028 0.51683 0.31638 0.0
C258 C 0.15393 0.51492 0.27853 0.0
C259 C 0.1901 0.57345 0.25911 0.0
C260 C 0.22033 0.63328 0.27805 0.0
C261 C 0.21807 0.63564 0.31589 0.0
C262 C 0.32123 0.72513 0.44615 0.0
C263 C 0.32006 0.77359 0.43392 0.0
C264 C 0.51508 0.13352 0.76679 0.0
C265 C 0.5399 0.15809 0.80315 0.0
C266 C 0.59054 0.15013 0.82167 0.0
C267 C 0.61645 0.11925 0.80398 0.0
H268 H 0.65921 0.97771 0.81201 0.0
H269 H 0.68878 0.91301 0.83816 0.0
H270 H 0.7811 0.90657 0.73503 0.0
H271 H 0.75279 0.97178 0.70903 0.0
H272 H 0.78412 0.0893 0.63874 0.0
H273 H 0.78226 0.10513 0.57346 0.0
H274 H 0.53021 0.03986 0.58431 0.0
H275 H 0.53361 0.02672 0.64869 0.0
H276 H 0.52174 0.08656 0.72095 0.0
H277 H 0.47746 0.13949 0.75132 0.0
H278 H 0.61051 0.1681 0.84977 0.0
H279 H 0.65666 0.11505 0.8187 0.0
N280 N 0.65212 0.04112 0.76209 0.0
N281 N 0.68613 0.02386 0.70467 0.0
N282 N 0.63099 0.07522 0.7097 0.0
C283 C 0.68139 1.01714 0.74141 0.0
C284 C 0.66078 0.05285 0.68874 0.0
C285 C 0.62695 0.07048 0.74619 0.0
C286 C 0.7034 0.98039 0.75824 0.0
C287 C 0.68639 0.963 0.79489 0.0
C288 C 0.70278 0.92526 0.80989 0.0
C289 C 0.73732 0.90409 0.78883 0.0
C290 C 0.75555 0.92244 0.75236 0.0
C291 C 0.73872 0.95974 0.73732 0.0
C292 C 0.65896 0.05674 0.6488 0.0
C293 C 0.72831 0.07799 0.6269 0.0
C294 C 0.72753 0.08749 0.58965 0.0
C295 C 0.65628 0.07402 0.57369 0.0
C296 C 0.58633 0.05101 0.59562 0.0
C297 C 0.58815 0.04332 0.63262 0.0
C298 C 0.59344 0.0967 0.76723 0.0
C299 C 0.54142 0.10354 0.74918 0.0
C300 C 0.70179 0.37117 0.10101 0.0
C301 C 0.69631 0.38942 0.1362 0.0
C302 C 0.61372 0.35142 0.15148 0.0
C303 C 0.53747 0.30291 0.12983 0.0
H304 H 0.30777 0.2285 0.13196 0.0
H305 H 0.2666 0.28536 0.16043 0.0
H306 H 0.16661 0.27981 0.05724 0.0
H307 H 0.2075 0.223 0.02884 0.0
H308 H 0.40915 0.38567 -0.00141 0.0
H309 H 0.49034 0.48453 0.95898 0.0
H310 H 0.67859 0.4694 0.93982 0.0
H311 H 0.59873 0.37169 0.97871 0.0
H312 H 0.63269 0.31514 0.05118 0.0
H313 H 0.76529 0.39902 0.08911 0.0
H314 H 0.60846 0.36429 0.17881 0.0
H315 H 0.47519 0.28041 0.14101 0.0
N316 N 0.39466 0.24065 0.07827 0.0
N317 N 0.37297 0.2813 0.02949 0.0
N318 N 0.50598 0.31166 0.03672 0.0
C319 C 0.34143 0.24251 0.0593 0.0
C320 C 0.45498 0.3157 0.01793 0.0
C321 C 0.47679 0.27449 0.06689 0.0
C322 C 0.26723 0.22675 0.07763 0.0
C323 C 0.27208 0.23541 0.11566 0.0
C324 C 0.24901 0.26853 0.13208 0.0
C325 C 0.21904 0.291 0.11054 0.0
C326 C 0.19236 0.26513 0.0744 0.0
C327 C 0.21574 0.23228 0.05802 0.0
C328 C 0.49692 0.37019 0.99131 0.0
C329 C 0.46759 0.4033 0.98564 0.0
C330 C 0.51491 0.46079 0.96378 0.0
C331 C 0.59145 0.48522 0.94716 0.0
C332 C 0.62039 0.45213 0.9529 0.0
C333 C 0.57399 0.39555 0.97475 0.0
C334 C 0.54395 0.29302 0.09273 0.0
C335 C 0.6259 0.3227 0.07947 0.0
loop_
_geom_bond_atom_site_label_1
_geom_bond_atom_site_label_2
_geom_bond_distance
_geom_bond_site_symmetry_2
_ccdc_geom_bond_type
Gd0 C3 2.818 . S
Gd0 O20 2.377 . S
Gd0 O22 2.448 . S
Gd0 O23 2.506 . S
Gd0 O24 2.435 . S
Gd0 O25 2.717 . S
Gd0 O27 2.395 1_455 S
Gd0 O31 2.327 . S
Gd1 C12 2.818 . S
Gd1 O21 2.395 1_655 S
Gd1 O25 2.327 1_655 S
Gd1 O26 2.377 . S
Gd1 O28 2.448 . S
Gd1 O29 2.506 . S
Gd1 O30 2.435 1_655 S
Gd1 O31 2.717 1_655 S
C2 O20 1.240 . S
C2 O21 1.240 . S
C3 Gd0 2.818 . S
C3 C4 1.510 . S
C3 O22 1.249 . S
C3 O23 1.252 . S
C4 C3 1.510 . S
C4 C5 1.404 . S
C4 C6 1.352 . S
C5 C4 1.404 . S
C5 C9 1.389 . S
C5 H32 0.930 . S
C6 C4 1.352 . S
C6 C8 1.374 . S
C6 H33 0.931 . S
C7 C8 1.359 . S
C7 C9 1.364 . S
C8 C6 1.374 . S
C8 C7 1.359 . S
C8 H34 0.931 . S
C9 C5 1.389 . S
C9 C7 1.364 . S
C9 H35 0.931 . S
C10 O24 1.256 . S
C10 O25 1.257 . S
C11 O26 1.240 . S
C11 O27 1.240 . S
C12 Gd1 2.818 . S
C12 C13 1.510 . S
C12 O28 1.249 . S
C12 O29 1.252 . S
C13 C12 1.510 . S
C13 C14 1.404 . S
C13 C15 1.352 . S
C14 C13 1.404 . S
C14 C18 1.389 . S
C14 H36 0.930 . S
C15 C13 1.352 . S
C15 C17 1.374 . S
C15 H37 0.931 . S
C16 C17 1.359 . S
C16 C18 1.364 . S
C17 C15 1.374 . S
C17 C16 1.359 . S
C17 H38 0.931 . S
C18 C14 1.389 . S
C18 C16 1.364 . S
C18 H39 0.931 . S
C19 O30 1.256 . S
C19 O31 1.257 . S
O20 Gd0 2.377 . S
O20 C2 1.240 . S
O21 Gd1 2.395 1_455 S
O21 C2 1.240 . S
O22 Gd0 2.448 . S
O22 C3 1.249 . S
O23 Gd0 2.506 . S
O23 C3 1.252 . S
O24 Gd0 2.435 . S
O24 C10 1.256 . S
O25 Gd0 2.717 . S
O25 Gd1 2.327 1_455 S
O25 C10 1.257 . S
O26 Gd1 2.377 . S
O26 C11 1.240 . S
O27 Gd0 2.395 1_655 S
O27 C11 1.240 . S
O28 Gd1 2.448 . S
O28 C12 1.249 . S
O29 Gd1 2.506 . S
O29 C12 1.252 . S
O30 Gd1 2.435 1_455 S
O30 C19 1.256 . S
O31 Gd0 2.327 . S
O31 Gd1 2.717 1_455 S
O31 C19 1.257 . S
H32 C5 0.930 . S
H33 C6 0.931 . S
H34 C8 0.931 . S
H35 C9 0.931 . S
H36 C14 0.930 . S
H37 C15 0.931 . S
H38 C17 0.931 . S
H39 C18 0.931 . S
Gd40 C43 2.818 . S
Gd40 O60 2.377 . S
Gd40 O62 2.448 . S
Gd40 O63 2.506 . S
Gd40 O64 2.435 . S
Gd40 O65 2.717 1_565 S
Gd40 O67 2.395 1_565 S
Gd40 O71 2.327 1_565 S
Gd41 C52 2.818 . S
Gd41 O61 2.395 1_545 S
Gd41 O65 2.327 . S
Gd41 O66 2.377 . S
Gd41 O68 2.448 . S
Gd41 O69 2.506 . S
Gd41 O70 2.435 . S
Gd41 O71 2.717 . S
C42 O60 1.240 . S
C42 O61 1.240 . S
C43 Gd40 2.818 . S
C43 C44 1.510 . S
C43 O62 1.249 . S
C43 O63 1.252 . S
C44 C43 1.510 . S
C44 C45 1.404 . S
C44 C46 1.352 . S
C45 C44 1.404 . S
C45 C49 1.389 . S
C45 H72 0.930 . S
C46 C44 1.352 . S
C46 C48 1.374 . S
C46 H73 0.931 . S
C47 C48 1.359 . S
C47 C49 1.364 . S
C48 C46 1.374 . S
C48 C47 1.359 . S
C48 H74 0.931 . S
C49 C45 1.389 . S
C49 C47 1.364 . S
C49 H75 0.931 . S
C50 O64 1.256 1_545 S
C50 O65 1.257 . S
C51 O66 1.240 . S
C51 O67 1.240 . S
C52 Gd41 2.818 . S
C52 C53 1.510 . S
C52 O68 1.249 . S
C52 O69 1.252 . S
C53 C52 1.510 . S
C53 C54 1.404 . S
C53 C55 1.352 . S
C54 C53 1.404 . S
C54 C58 1.389 . S
C54 H76 0.930 . S
C55 C53 1.352 . S
C55 C57 1.374 . S
C55 H77 0.931 . S
C56 C57 1.359 . S
C56 C58 1.364 . S
C57 C55 1.374 . S
C57 C56 1.359 . S
C57 H78 0.931 . S
C58 C54 1.389 . S
C58 C56 1.364 . S
C58 H79 0.931 . S
C59 O70 1.256 . S
C59 O71 1.257 . S
O60 Gd40 2.377 . S
O60 C42 1.240 . S
O61 Gd41 2.395 1_565 S
O61 C42 1.240 . S
O62 Gd40 2.448 . S
O62 C43 1.249 . S
O63 Gd40 2.506 . S
O63 C43 1.252 . S
O64 Gd40 2.435 . S
O64 C50 1.256 1_565 S
O65 Gd40 2.717 1_545 S
O65 Gd41 2.327 . S
O65 C50 1.257 . S
O66 Gd41 2.377 . S
O66 C51 1.240 . S
O67 Gd40 2.395 1_545 S
O67 C51 1.240 . S
O68 Gd41 2.448 . S
O68 C52 1.249 . S
O69 Gd41 2.506 . S
O69 C52 1.252 . S
O70 Gd41 2.435 . S
O70 C59 1.256 . S
O71 Gd40 2.327 1_545 S
O71 Gd41 2.717 . S
O71 C59 1.257 . S
H72 C45 0.930 . S
H73 C46 0.931 . S
H74 C48 0.931 . S
H75 C49 0.931 . S
H76 C54 0.930 . S
H77 C55 0.931 . S
H78 C57 0.931 . S
H79 C58 0.931 . S
Gd80 C83 2.818 . S
Gd80 O100 2.377 . S
Gd80 O102 2.448 . S
Gd80 O103 2.506 . S
Gd80 O104 2.435 . S
Gd80 O105 2.717 . S
Gd80 O107 2.395 . S
Gd80 O111 2.327 . S
Gd81 C92 2.818 . S
Gd81 O101 2.395 . S
Gd81 O105 2.327 . S
Gd81 O106 2.377 . S
Gd81 O108 2.448 . S
Gd81 O109 2.506 . S
Gd81 O110 2.435 . S
Gd81 O111 2.717 . S
C82 O100 1.240 . S
C82 O101 1.240 . S
C83 Gd80 2.818 . S
C83 C84 1.510 . S
C83 O102 1.249 . S
C83 O103 1.252 . S
C84 C83 1.510 . S
C84 C85 1.404 . S
C84 C86 1.352 . S
C85 C84 1.404 . S
C85 C89 1.389 . S
C85 H112 0.930 . S
C86 C84 1.352 . S
C86 C88 1.374 . S
C86 H113 0.931 . S
C87 C88 1.359 . S
C87 C89 1.364 . S
C88 C86 1.374 . S
C88 C87 1.359 . S
C88 H114 0.931 . S
C89 C85 1.389 . S
C89 C87 1.364 . S
C89 H115 0.931 . S
C90 O104 1.256 . S
C90 O105 1.257 . S
C91 O106 1.240 . S
C91 O107 1.240 . S
C92 Gd81 2.818 . S
C92 C93 1.510 . S
C92 O108 1.249 . S
C92 O109 1.252 . S
C93 C92 1.510 . S
C93 C94 1.404 . S
C93 C95 1.352 . S
C94 C93 1.404 . S
C94 C98 1.389 . S
C94 H116 0.930 . S
C95 C93 1.352 . S
C95 C97 1.374 . S
C95 H117 0.931 . S
C96 C97 1.359 . S
C96 C98 1.364 . S
C97 C95 1.374 . S
C97 C96 1.359 . S
C97 H118 0.931 . S
C98 C94 1.389 . S
C98 C96 1.364 . S
C98 H119 0.931 . S
C99 O110 1.256 . S
C99 O111 1.257 . S
O100 Gd80 2.377 . S
O100 C82 1.240 . S
O101 Gd81 2.395 . S
O101 C82 1.240 . S
O102 Gd80 2.448 . S
O102 C83 1.249 . S
O103 Gd80 2.506 . S
O103 C83 1.252 . S
O104 Gd80 2.435 . S
O104 C90 1.256 . S
O105 Gd80 2.717 . S
O105 Gd81 2.327 . S
O105 C90 1.257 . S
O106 Gd81 2.377 . S
O106 C91 1.240 . S
O107 Gd80 2.395 . S
O107 C91 1.240 . S
O108 Gd81 2.448 . S
O108 C92 1.249 . S
O109 Gd81 2.506 . S
O109 C92 1.252 . S
O110 Gd81 2.435 . S
O110 C99 1.256 . S
O111 Gd80 2.327 . S
O111 Gd81 2.717 . S
O111 C99 1.257 . S
H112 C85 0.930 . S
H113 C86 0.931 . S
H114 C88 0.931 . S
H115 C89 0.931 . S
H116 C94 0.930 . S
H117 C95 0.931 . S
H118 C97 0.931 . S
H119 C98 0.931 . S
C120 C121 1.384 . S
C120 H133 0.947 . S
C120 C155 1.382 . S
C121 C120 1.384 . S
C121 C122 1.378 . S
C122 C121 1.378 . S
C122 C123 1.378 . S
C122 H134 0.952 . S
C123 C122 1.378 . S
C123 H135 0.950 . S
C123 C154 1.383 . S
H124 C143 0.947 . S
H125 C144 0.946 . S
H126 C146 0.953 . S
H127 C147 0.945 . S
H128 C149 0.952 . S
H129 C150 0.949 . S
H130 C152 0.950 . S
H131 C153 0.948 . S
H132 C155 0.951 . S
H133 C120 0.947 . S
H134 C122 0.952 . S
H135 C123 0.950 . S
N136 C139 1.382 . S
N136 C141 1.363 1_545 S
N137 C139 1.371 . S
N137 C140 1.372 . S
N138 C140 1.361 1_565 S
N138 C141 1.377 . S
C139 N136 1.382 . S
C139 N137 1.371 . S
C139 C142 1.480 . S
C140 N137 1.372 . S
C140 N138 1.361 1_545 S
C140 C148 1.457 . S
C141 N136 1.363 1_565 S
C141 N138 1.377 . S
C141 C154 1.479 . S
C142 C139 1.480 . S
C142 C143 1.383 . S
C142 C147 1.385 . S
C143 H124 0.947 . S
C143 C142 1.383 . S
C143 C144 1.388 . S
C144 H125 0.946 . S
C144 C143 1.388 . S
C144 C145 1.384 . S
C145 C144 1.384 . S
C145 C146 1.377 . S
C146 H126 0.953 . S
C146 C145 1.377 . S
C146 C147 1.369 . S
C147 H127 0.945 . S
C147 C142 1.385 . S
C147 C146 1.369 . S
C148 C140 1.457 . S
C148 C149 1.372 . S
C148 C153 1.364 1_545 S
C149 H128 0.952 . S
C149 C148 1.372 . S
C149 C150 1.389 . S
C150 H129 0.949 . S
C150 C149 1.389 . S
C150 C151 1.387 . S
C151 C150 1.387 . S
C151 C152 1.372 1_545 S
C152 H130 0.950 . S
C152 C151 1.372 1_565 S
C152 C153 1.379 . S
C153 H131 0.948 . S
C153 C148 1.364 1_565 S
C153 C152 1.379 . S
C154 C123 1.383 . S
C154 C141 1.479 . S
C154 C155 1.398 . S
C155 C120 1.382 . S
C155 H132 0.951 . S
C155 C154 1.398 . S
C156 C157 1.384 . S
C156 H169 0.947 . S
C156 C191 1.382 . S
C157 C156 1.384 . S
C157 C158 1.378 . S
C158 C157 1.378 . S
C158 C159 1.378 . S
C158 H170 0.952 . S
C159 C158 1.378 . S
C159 H171 0.950 . S
C159 C190 1.383 . S
H160 C179 0.947 . S
H161 C180 0.946 . S
H162 C182 0.953 . S
H163 C183 0.945 . S
H164 C185 0.952 . S
H165 C186 0.949 . S
H166 C188 0.950 . S
H167 C189 0.948 . S
H168 C191 0.951 . S
H169 C156 0.947 . S
H170 C158 0.952 . S
H171 C159 0.950 . S
N172 C175 1.382 . S
N172 C177 1.363 . S
N173 C175 1.371 . S
N173 C176 1.372 . S
N174 C176 1.361 . S
N174 C177 1.377 . S
C175 N172 1.382 . S
C175 N173 1.371 . S
C175 C178 1.480 . S
C176 N173 1.372 . S
C176 N174 1.361 . S
C176 C184 1.457 . S
C177 N172 1.363 . S
C177 N174 1.377 . S
C177 C190 1.479 . S
C178 C175 1.480 . S
C178 C179 1.383 . S
C178 C183 1.385 . S
C179 H160 0.947 . S
C179 C178 1.383 . S
C179 C180 1.388 . S
C180 H161 0.946 . S
C180 C179 1.388 . S
C180 C181 1.384 . S
C181 C180 1.384 . S
C181 C182 1.377 . S
C182 H162 0.953 . S
C182 C181 1.377 . S
C182 C183 1.369 . S
C183 H163 0.945 . S
C183 C178 1.385 . S
C183 C182 1.369 . S
C184 C176 1.457 . S
C184 C185 1.372 . S
C184 C189 1.364 . S
C185 H164 0.952 . S
C185 C184 1.372 . S
C185 C186 1.389 . S
C186 H165 0.949 . S
C186 C185 1.389 . S
C186 C187 1.387 . S
C187 C186 1.387 . S
C187 C188 1.372 . S
C188 H166 0.950 . S
C188 C187 1.372 . S
C188 C189 1.379 . S
C189 H167 0.948 . S
C189 C184 1.364 . S
C189 C188 1.379 . S
C190 C159 1.383 . S
C190 C177 1.479 . S
C190 C191 1.398 . S
C191 C156 1.382 . S
C191 H168 0.951 . S
C191 C190 1.398 . S
C192 C193 1.384 . S
C192 H205 0.947 . S
C192 C227 1.382 . S
C193 C192 1.384 . S
C193 C194 1.378 . S
C194 C193 1.378 . S
C194 C195 1.378 . S
C194 H206 0.952 . S
C195 C194 1.378 . S
C195 H207 0.950 1_655 S
C195 C226 1.383 . S
H196 C215 0.947 . S
H197 C216 0.946 . S
H198 C218 0.953 . S
H199 C219 0.945 . S
H200 C221 0.952 1_556 S
H201 C222 0.949 . S
H202 C224 0.950 1_655 S
H203 C225 0.948 1_656 S
H204 C227 0.951 . S
H205 C192 0.947 . S
H206 C194 0.952 . S
H207 C195 0.950 1_455 S
N208 C211 1.382 . S
N208 C213 1.363 . S
N209 C211 1.371 . S
N209 C212 1.372 . S
N210 C212 1.361 . S
N210 C213 1.377 . S
C211 N208 1.382 . S
C211 N209 1.371 . S
C211 C214 1.480 . S
C212 N209 1.372 . S
C212 N210 1.361 . S
C212 C220 1.457 . S
C213 N208 1.363 . S
C213 N210 1.377 . S
C213 C226 1.479 1_455 S
C214 C211 1.480 . S
C214 C215 1.383 . S
C214 C219 1.385 . S
C215 H196 0.947 . S
C215 C214 1.383 . S
C215 C216 1.388 . S
C216 H197 0.946 . S
C216 C215 1.388 . S
C216 C217 1.384 . S
C217 C216 1.384 . S
C217 C218 1.377 . S
C218 H198 0.953 . S
C218 C217 1.377 . S
C218 C219 1.369 . S
C219 H199 0.945 . S
C219 C214 1.385 . S
C219 C218 1.369 . S
C220 C212 1.457 . S
C220 C221 1.372 1_556 S
C220 C225 1.364 1_556 S
C221 H200 0.952 1_554 S
C221 C220 1.372 1_554 S
C221 C222 1.389 . S
C222 H201 0.949 . S
C222 C221 1.389 . S
C222 C223 1.387 . S
C223 C222 1.387 . S
C223 C224 1.372 . S
C224 H202 0.950 1_455 S
C224 C223 1.372 . S
C224 C225 1.379 . S
C225 H203 0.948 1_454 S
C225 C220 1.364 1_554 S
C225 C224 1.379 . S
C226 C195 1.383 . S
C226 C213 1.479 1_655 S
C226 C227 1.398 . S
C227 C192 1.382 . S
C227 H204 0.951 . S
C227 C226 1.398 . S
C228 C229 1.384 . S
C228 H241 0.947 . S
C228 C263 1.382 . S
C229 C228 1.384 . S
C229 C230 1.378 . S
C230 C229 1.378 . S
C230 C231 1.378 . S
C230 H242 0.952 . S
C231 C230 1.378 . S
C231 H243 0.950 . S
C231 C262 1.383 . S
H232 C251 0.947 . S
H233 C252 0.946 . S
H234 C254 0.953 . S
H235 C255 0.945 . S
H236 C257 0.952 . S
H237 C258 0.949 . S
H238 C260 0.950 . S
H239 C261 0.948 . S
H240 C263 0.951 . S
H241 C228 0.947 . S
H242 C230 0.952 . S
H243 C231 0.950 . S
N244 C247 1.382 1_455 S
N244 C249 1.363 . S
N245 C247 1.371 . S
N245 C248 1.372 1_655 S
N246 C248 1.361 . S
N246 C249 1.377 . S
C247 N244 1.382 1_655 S
C247 N245 1.371 . S
C247 C250 1.480 . S
C248 N245 1.372 1_455 S
C248 N246 1.361 . S
C248 C256 1.457 . S
C249 N244 1.363 . S
C249 N246 1.377 . S
C249 C262 1.479 . S
C250 C247 1.480 . S
C250 C251 1.383 . S
C250 C255 1.385 . S
C251 H232 0.947 . S
C251 C250 1.383 . S
C251 C252 1.388 . S
C252 H233 0.946 . S
C252 C251 1.388 . S
C252 C253 1.384 . S
C253 C252 1.384 . S
C253 C254 1.377 . S
C254 H234 0.953 . S
C254 C253 1.377 . S
C254 C255 1.369 . S
C255 H235 0.945 . S
C255 C250 1.385 . S
C255 C254 1.369 . S
C256 C248 1.457 . S
C256 C257 1.372 1_455 S
C256 C261 1.364 . S
C257 H236 0.952 . S
C257 C256 1.372 1_655 S
C257 C258 1.389 . S
C258 H237 0.949 . S
C258 C257 1.389 . S
C258 C259 1.387 1_655 S
C259 C258 1.387 1_455 S
C259 C260 1.372 . S
C260 H238 0.950 . S
C260 C259 1.372 . S
C260 C261 1.379 . S
C261 H239 0.948 . S
C261 C256 1.364 . S
C261 C260 1.379 . S
C262 C231 1.383 . S
C262 C249 1.479 . S
C262 C263 1.398 . S
C263 C228 1.382 . S
C263 H240 0.951 . S
C263 C262 1.398 . S
C264 C265 1.384 . S
C264 H277 0.947 . S
C264 C299 1.382 . S
C265 C264 1.384 . S
C265 C266 1.378 . S
C266 C265 1.378 . S
C266 C267 1.378 . S
C266 H278 0.952 . S
C267 C266 1.378 . S
C267 H279 0.950 . S
C267 C298 1.383 . S
H268 C287 0.947 . S
H269 C288 0.946 . S
H270 C290 0.953 . S
H271 C291 0.945 . S
H272 C293 0.952 . S
H273 C294 0.949 . S
H274 C296 0.950 . S
H275 C297 0.948 . S
H276 C299 0.951 . S
H277 C264 0.947 . S
H278 C266 0.952 . S
H279 C267 0.950 . S
N280 C283 1.382 1_545 S
N280 C285 1.363 . S
N281 C283 1.371 . S
N281 C284 1.372 1_565 S
N282 C284 1.361 . S
N282 C285 1.377 . S
C283 N280 1.382 1_565 S
C283 N281 1.371 . S
C283 C286 1.480 . S
C284 N281 1.372 1_545 S
C284 N282 1.361 . S
C284 C292 1.457 . S
C285 N280 1.363 . S
C285 N282 1.377 . S
C285 C298 1.479 . S
C286 C283 1.480 . S
C286 C287 1.383 . S
C286 C291 1.385 . S
C287 H268 0.947 . S
C287 C286 1.383 . S
C287 C288 1.388 . S
C288 H269 0.946 . S
C288 C287 1.388 . S
C288 C289 1.384 . S
C289 C288 1.384 . S
C289 C290 1.377 . S
C290 H270 0.953 . S
C290 C289 1.377 . S
C290 C291 1.369 . S
C291 H271 0.945 . S
C291 C286 1.385 . S
C291 C290 1.369 . S
C292 C284 1.457 . S
C292 C293 1.372 1_545 S
C292 C297 1.364 . S
C293 H272 0.952 . S
C293 C292 1.372 1_565 S
C293 C294 1.389 . S
C294 H273 0.949 . S
C294 C293 1.389 . S
C294 C295 1.387 . S
C295 C294 1.387 . S
C295 C296 1.372 1_565 S
C296 H274 0.950 . S
C296 C295 1.372 1_545 S
C296 C297 1.379 . S
C297 H275 0.948 . S
C297 C292 1.364 . S
C297 C296 1.379 . S
C298 C267 1.383 . S
C298 C285 1.479 . S
C298 C299 1.398 . S
C299 C264 1.382 . S
C299 H276 0.951 . S
C299 C298 1.398 . S
C300 C301 1.384 . S
C300 H313 0.947 . S
C300 C335 1.382 . S
C301 C300 1.384 . S
C301 C302 1.378 . S
C302 C301 1.378 . S
C302 C303 1.378 . S
C302 H314 0.952 . S
C303 C302 1.378 . S
C303 H315 0.950 . S
C303 C334 1.383 . S
H304 C323 0.947 . S
H305 C324 0.946 . S
H306 C326 0.953 . S
H307 C327 0.945 . S
H308 C329 0.952 . S
H309 C330 0.949 . S
H310 C332 0.950 . S
H311 C333 0.948 . S
H312 C335 0.951 . S
H313 C300 0.947 . S
H314 C302 0.952 . S
H315 C303 0.950 . S
N316 C319 1.382 . S
N316 C321 1.363 . S
N317 C319 1.371 . S
N317 C320 1.372 . S
N318 C320 1.361 . S
N318 C321 1.377 . S
C319 N316 1.382 . S
C319 N317 1.371 . S
C319 C322 1.480 . S
C320 N317 1.372 . S
C320 N318 1.361 . S
C320 C328 1.457 1_554 S
C321 N316 1.363 . S
C321 N318 1.377 . S
C321 C334 1.479 . S
C322 C319 1.480 . S
C322 C323 1.383 . S
C322 C327 1.385 . S
C323 H304 0.947 . S
C323 C322 1.383 . S
C323 C324 1.388 . S
C324 H305 0.946 . S
C324 C323 1.388 . S
C324 C325 1.384 . S
C325 C324 1.384 . S
C325 C326 1.377 . S
C326 H306 0.953 . S
C326 C325 1.377 . S
C326 C327 1.369 . S
C327 H307 0.945 . S
C327 C322 1.385 . S
C327 C326 1.369 . S
C328 C320 1.457 1_556 S
C328 C329 1.372 . S
C328 C333 1.364 . S
C329 H308 0.952 . S
C329 C328 1.372 . S
C329 C330 1.389 . S
C330 H309 0.949 . S
C330 C329 1.389 . S
C330 C331 1.387 . S
C331 C330 1.387 . S
C331 C332 1.372 . S
C332 H310 0.950 . S
C332 C331 1.372 . S
C332 C333 1.379 . S
C333 H311 0.948 . S
C333 C328 1.364 . S
C333 C332 1.379 . S
C334 C303 1.383 . S
C334 C321 1.479 . S
C334 C335 1.398 . S
C335 C300 1.382 . S
C335 H312 0.951 . S
C335 C334 1.398 . S
C7 C325 3.604 . S
C51 C253 2.724 . S
C87 C289 2.513 . S
C16 C301 1.865 . S
C229 C42 3.257 . S
C265 C96 1.625 . S
C47 C181 1.783 . S
C91 C193 5.039 . S
C2 C121 3.410 . S
C157 C56 1.888 . S
C217 C82 4.837 . S
C11 C145 2.781 . S
C223 C19 2.028 . S
C50 C151 1.166 . S
C99 C187 1.484 . S
C295 C59 1.467 1_565 S
C331 C90 1.935 . S
C10 C259 1.144 . S
