# Generated by pormake.
# Topology eea, (3,6)-cn, num edge types: 1
# Building blocks:
#     Node 0, Type 0, BuildingBlock: VETTIZ_charged_linker_0, # of connection points: 3
#     Node 1, Type 0, BuildingBlock: VETTIZ_charged_linker_0, # of connection points: 3
#     Node 2, Type 0, BuildingBlock: VETTIZ_charged_linker_0, # of connection points: 3
#     Node 3, Type 0, BuildingBlock: VETTIZ_charged_linker_0, # of connection points: 3
#     Node 4, Type 0, BuildingBlock: VETTIZ_charged_linker_0, # of connection points: 3
#     Node 5, Type 0, BuildingBlock: VETTIZ_charged_linker_0, # of connection points: 3
#     Node 6, Type 0, BuildingBlock: VETTIZ_charged_linker_0, # of connection points: 3
#     Node 7, Type 0, BuildingBlock: VETTIZ_charged_linker_0, # of connection points: 3
#     Node 8, Type 0, BuildingBlock: VETTIZ_charged_linker_0, # of connection points: 3
#     Node 9, Type 0, BuildingBlock: VETTIZ_charged_linker_0, # of connection points: 3
#     Node 10, Type 0, BuildingBlock: VETTIZ_charged_linker_0, # of connection points: 3
#     Node 11, Type 0, BuildingBlock: VETTIZ_charged_linker_0, # of connection points: 3
#     Node 12, Type 0, BuildingBlock: VETTIZ_charged_linker_0, # of connection points: 3
#     Node 13, Type 0, BuildingBlock: VETTIZ_charged_linker_0, # of connection points: 3
#     Node 14, Type 0, BuildingBlock: VETTIZ_charged_linker_0, # of connection points: 3
#     Node 15, Type 0, BuildingBlock: VETTIZ_charged_linker_0, # of connection points: 3
#     Node 16, Type 0, BuildingBlock: VETTIZ_charged_linker_0, # of connection points: 3
#     Node 17, Type 0, BuildingBlock: VETTIZ_charged_linker_0, # of connection points: 3
#     Node 18, Type 1, BuildingBlock: CUWYAW_clean_sbu_0, # of connection points: 6
#     Node 19, Type 1, BuildingBlock: CUWYAW_clean_sbu_0, # of connection points: 6
#     Node 20, Type 1, BuildingBlock: CUWYAW_clean_sbu_0, # of connection points: 6
#     Node 21, Type 1, BuildingBlock: CUWYAW_clean_sbu_0, # of connection points: 6
#     Node 22, Type 1, BuildingBlock: CUWYAW_clean_sbu_0, # of connection points: 6
#     Node 23, Type 1, BuildingBlock: CUWYAW_clean_sbu_0, # of connection points: 6
#     Node 24, Type 1, BuildingBlock: CUWYAW_clean_sbu_0, # of connection points: 6
#     Node 25, Type 1, BuildingBlock: CUWYAW_clean_sbu_0, # of connection points: 6
#     Node 26, Type 1, BuildingBlock: CUWYAW_clean_sbu_0, # of connection points: 6
#     Edge 27, Type (0, 1), BuildingBlock: XIVTED_clean_linker_0, # of connection points: 2
#     Edge 28, Type (0, 1), BuildingBlock: XIVTED_clean_linker_0, # of connection points: 2
#     Edge 29, Type (0, 1), BuildingBlock: XIVTED_clean_linker_0, # of connection points: 2
#     Edge 30, Type (0, 1), BuildingBlock: XIVTED_clean_linker_0, # of connection points: 2
#     Edge 31, Type (0, 1), BuildingBlock: XIVTED_clean_linker_0, # of connection points: 2
#     Edge 32, Type (0, 1), BuildingBlock: XIVTED_clean_linker_0, # of connection points: 2
#     Edge 33, Type (0, 1), BuildingBlock: XIVTED_clean_linker_0, # of connection points: 2
#     Edge 34, Type (0, 1), BuildingBlock: XIVTED_clean_linker_0, # of connection points: 2
#     Edge 35, Type (0, 1), BuildingBlock: XIVTED_clean_linker_0, # of connection points: 2
#     Edge 36, Type (0, 1), BuildingBlock: XIVTED_clean_linker_0, # of connection points: 2
#     Edge 37, Type (0, 1), BuildingBlock: XIVTED_clean_linker_0, # of connection points: 2
#     Edge 38, Type (0, 1), BuildingBlock: XIVTED_clean_linker_0, # of connection points: 2
#     Edge 39, Type (0, 1), BuildingBlock: XIVTED_clean_linker_0, # of connection points: 2
#     Edge 40, Type (0, 1), BuildingBlock: XIVTED_clean_linker_0, # of connection points: 2
#     Edge 41, Type (0, 1), BuildingBlock: XIVTED_clean_linker_0, # of connection points: 2
#     Edge 42, Type (0, 1), BuildingBlock: XIVTED_clean_linker_0, # of connection points: 2
#     Edge 43, Type (0, 1), BuildingBlock: XIVTED_clean_linker_0, # of connection points: 2
#     Edge 44, Type (0, 1), BuildingBlock: XIVTED_clean_linker_0, # of connection points: 2
#     Edge 45, Type (0, 1), BuildingBlock: XIVTED_clean_linker_0, # of connection points: 2
#     Edge 46, Type (0, 1), BuildingBlock: XIVTED_clean_linker_0, # of connection points: 2
#     Edge 47, Type (0, 1), BuildingBlock: XIVTED_clean_linker_0, # of connection points: 2
#     Edge 48, Type (0, 1), BuildingBlock: XIVTED_clean_linker_0, # of connection points: 2
#     Edge 49, Type (0, 1), BuildingBlock: XIVTED_clean_linker_0, # of connection points: 2
#     Edge 50, Type (0, 1), BuildingBlock: XIVTED_clean_linker_0, # of connection points: 2
#     Edge 51, Type (0, 1), BuildingBlock: XIVTED_clean_linker_0, # of connection points: 2
#     Edge 52, Type (0, 1), BuildingBlock: XIVTED_clean_linker_0, # of connection points: 2
#     Edge 53, Type (0, 1), BuildingBlock: XIVTED_clean_linker_0, # of connection points: 2
#     Edge 54, Type (0, 1), BuildingBlock: XIVTED_clean_linker_0, # of connection points: 2
#     Edge 55, Type (0, 1), BuildingBlock: XIVTED_clean_linker_0, # of connection points: 2
#     Edge 56, Type (0, 1), BuildingBlock: XIVTED_clean_linker_0, # of connection points: 2
#     Edge 57, Type (0, 1), BuildingBlock: XIVTED_clean_linker_0, # of connection points: 2
#     Edge 58, Type (0, 1), BuildingBlock: XIVTED_clean_linker_0, # of connection points: 2
#     Edge 59, Type (0, 1), BuildingBlock: XIVTED_clean_linker_0, # of connection points: 2
#     Edge 60, Type (0, 1), BuildingBlock: XIVTED_clean_linker_0, # of connection points: 2
#     Edge 61, Type (0, 1), BuildingBlock: XIVTED_clean_linker_0, # of connection points: 2
#     Edge 62, Type (0, 1), BuildingBlock: XIVTED_clean_linker_0, # of connection points: 2
#     Edge 63, Type (0, 1), BuildingBlock: XIVTED_clean_linker_0, # of connection points: 2
#     Edge 64, Type (0, 1), BuildingBlock: XIVTED_clean_linker_0, # of connection points: 2
#     Edge 65, Type (0, 1), BuildingBlock: XIVTED_clean_linker_0, # of connection points: 2
#     Edge 66, Type (0, 1), BuildingBlock: XIVTED_clean_linker_0, # of connection points: 2
#     Edge 67, Type (0, 1), BuildingBlock: XIVTED_clean_linker_0, # of connection points: 2
#     Edge 68, Type (0, 1), BuildingBlock: XIVTED_clean_linker_0, # of connection points: 2
#     Edge 69, Type (0, 1), BuildingBlock: XIVTED_clean_linker_0, # of connection points: 2
#     Edge 70, Type (0, 1), BuildingBlock: XIVTED_clean_linker_0, # of connection points: 2
#     Edge 71, Type (0, 1), BuildingBlock: XIVTED_clean_linker_0, # of connection points: 2
#     Edge 72, Type (0, 1), BuildingBlock: XIVTED_clean_linker_0, # of connection points: 2
#     Edge 73, Type (0, 1), BuildingBlock: XIVTED_clean_linker_0, # of connection points: 2
#     Edge 74, Type (0, 1), BuildingBlock: XIVTED_clean_linker_0, # of connection points: 2
#     Edge 75, Type (0, 1), BuildingBlock: XIVTED_clean_linker_0, # of connection points: 2
#     Edge 76, Type (0, 1), BuildingBlock: XIVTED_clean_linker_0, # of connection points: 2
#     Edge 77, Type (0, 1), BuildingBlock: XIVTED_clean_linker_0, # of connection points: 2
#     Edge 78, Type (0, 1), BuildingBlock: XIVTED_clean_linker_0, # of connection points: 2
#     Edge 79, Type (0, 1), BuildingBlock: XIVTED_clean_linker_0, # of connection points: 2
#     Edge 80, Type (0, 1), BuildingBlock: XIVTED_clean_linker_0, # of connection points: 2
# Relax obj value: 0.035
# Max RMSD: 0.135
# Mean RMSD: 0.075
data_MOF--net-eea--node1-CUWYAW_clean_sbu_0--node2-VETTIZ_charged_linker_0--edge1-XIVTED_clean_linker_0
_symmetry_space_group_name_H-M    P1
_symmetry_Int_Tables_number       1
_symmetry_cell_setting            triclinic
loop_
_symmetry_equiv_pos_as_xyz
'x, y, z'
_cell_length_a     62.212616
_cell_length_b     61.904929
_cell_length_c     90.881655
_cell_angle_alpha  93.486853
_cell_angle_beta   93.389128
_cell_angle_gamma 119.86143
loop_
_atom_site_label
_atom_site_type_symbol
_atom_site_fract_x
_atom_site_fract_y
_atom_site_fract_z
_atom_type_partial_charge
C0 C 0.23244 0.18188 0.38655 0.0
C1 C 0.23712 0.20482 0.39367 0.0
C2 C 0.25205 0.21408 0.40737 0.0
C3 C 0.25629 0.17716 0.4069 0.0
C4 C 0.24221 0.1685 0.39329 0.0
C5 C 0.23868 0.14372 0.38719 0.0
H6 H 0.26014 0.04808 0.39459 0.0
C7 C 0.26308 0.1584 0.41095 0.0
C8 C 0.25303 0.13892 0.39936 0.0
H9 H 0.21361 0.05519 0.36001 0.0
H10 H 0.22493 0.09577 0.3714 0.0
H11 H 0.30607 0.10738 0.39965 0.0
H12 H 0.23835 0.06318 0.41934 0.0
H13 H 0.25904 0.08565 0.43357 0.0
H14 H 0.26646 0.06331 0.42514 0.0
H15 H 0.30081 0.08241 0.41068 0.0
H16 H 0.3126 0.11388 0.41909 0.0
C17 C 0.25091 0.14738 0.37249 0.0
C18 C 0.21039 0.12415 0.38565 0.0
C19 C 0.306 0.16736 0.46206 0.0
C20 C 0.31249 0.15168 0.46935 0.0
C21 C 0.31039 0.13049 0.46114 0.0
C22 C 0.30092 0.12442 0.44617 0.0
C23 C 0.29317 0.13947 0.43932 0.0
C24 C 0.29628 0.16085 0.44714 0.0
C25 C 0.28666 0.17438 0.43808 0.0
C26 C 0.27632 0.157 0.42377 0.0
C27 C 0.28021 0.1366 0.42458 0.0
C28 C 0.30899 0.20029 0.43579 0.0
C29 C 0.2659 0.1756 0.44608 0.0
C30 C 0.2522 0.05816 0.38942 0.0
C31 C 0.23605 0.04806 0.37617 0.0
C32 C 0.2266 0.06241 0.36993 0.0
C33 C 0.23293 0.08601 0.3767 0.0
C34 C 0.2485 0.09541 0.39007 0.0
C35 C 0.25775 0.0815 0.39626 0.0
C36 C 0.2722 0.09348 0.41118 0.0
C37 C 0.2705 0.11714 0.41273 0.0
C38 C 0.25682 0.11824 0.40026 0.0
C39 C 0.29937 0.09954 0.41024 0.0
C40 C 0.25856 0.07557 0.42298 0.0
H41 H 0.27265 0.20822 0.42453 0.0
H42 H 0.22143 0.17448 0.37588 0.0
H43 H 0.20052 0.1292 0.39379 0.0
H44 H 0.20654 0.10533 0.3881 0.0
H45 H 0.20148 0.12275 0.37441 0.0
H46 H 0.26889 0.16542 0.37348 0.0
H47 H 0.23865 0.14775 0.36323 0.0
H48 H 0.25565 0.13286 0.36938 0.0
H49 H 0.30781 0.18403 0.46794 0.0
H50 H 0.31503 0.11793 0.46643 0.0
H51 H 0.2993 0.10779 0.44063 0.0
H52 H 0.32643 0.1995 0.43541 0.0
H53 H 0.31229 0.21464 0.44496 0.0
H54 H 0.30657 0.20682 0.4251 0.0
H55 H 0.25378 0.15753 0.45057 0.0
H56 H 0.25321 0.1787 0.4387 0.0
H57 H 0.274 0.19057 0.4555 0.0
H58 H 0.25587 0.23169 0.41308 0.0
C59 C 0.26167 0.20037 0.41402 0.0
C60 C 0.95092 0.18266 0.39442 0.0
C61 C 0.96897 0.20614 0.40162 0.0
C62 C 0.96527 0.21367 0.41577 0.0
C63 C 0.92565 0.17494 0.41496 0.0
C64 C 0.92954 0.16755 0.4012 0.0
C65 C 0.90858 0.1423 0.39478 0.0
H66 H 0.79357 0.04429 0.39864 0.0
C67 C 0.90112 0.15506 0.41861 0.0
C68 C 0.89102 0.13601 0.40675 0.0
H69 H 0.845 0.05362 0.36609 0.0
H70 H 0.87495 0.09358 0.3787 0.0
H71 H 0.83403 0.05975 0.4253 0.0
H72 H 0.80592 0.10198 0.40381 0.0
H73 H 0.80843 0.10952 0.42306 0.0
H74 H 0.78801 0.07763 0.41513 0.0
H75 H 0.80475 0.05693 0.42887 0.0
H76 H 0.83361 0.0802 0.43931 0.0
C77 C 0.91886 0.12408 0.39321 0.0
C78 C 0.8972 0.14556 0.38004 0.0
C79 C 0.86935 0.16228 0.46804 0.0
C80 C 0.84698 0.14688 0.47409 0.0
C81 C 0.828 0.12543 0.46535 0.0
C82 C 0.8314 0.11906 0.45098 0.0
C83 C 0.85405 0.13422 0.44522 0.0
C84 C 0.87242 0.15568 0.45358 0.0
C85 C 0.89491 0.16989 0.44534 0.0
C86 C 0.8874 0.15277 0.43097 0.0
C87 C 0.86345 0.13189 0.43102 0.0
C88 C 0.91779 0.17169 0.4543 0.0
C89 C 0.89749 0.19555 0.44277 0.0
C90 C 0.81127 0.05471 0.39418 0.0
C91 C 0.81641 0.04551 0.38106 0.0
C92 C 0.83988 0.06021 0.37582 0.0
C93 C 0.85756 0.08345 0.38331 0.0
C94 C 0.85213 0.09216 0.39639 0.0
C95 C 0.82946 0.0777 0.40174 0.0
C96 C 0.82785 0.08899 0.41649 0.0
C97 C 0.85315 0.11281 0.41893 0.0
C98 C 0.86707 0.11471 0.407 0.0
C99 C 0.82472 0.0706 0.42816 0.0
C100 C 0.80635 0.09475 0.41468 0.0
H101 H 0.94186 0.20499 0.43319 0.0
H102 H 0.95341 0.17602 0.38371 0.0
H103 H 0.89537 0.16256 0.38126 0.0
H104 H 0.87823 0.12991 0.37641 0.0
H105 H 0.9092 0.14773 0.37101 0.0
H106 H 0.93568 0.13024 0.40113 0.0
H107 H 0.92418 0.12284 0.38187 0.0
H108 H 0.90545 0.10504 0.39591 0.0
H109 H 0.88413 0.17909 0.4744 0.0
H110 H 0.81069 0.11314 0.46977 0.0
H111 H 0.81634 0.10236 0.44499 0.0
H112 H 0.91281 0.15353 0.45865 0.0
H113 H 0.9247 0.18626 0.4639 0.0
H114 H 0.93331 0.17576 0.44756 0.0
H115 H 0.8789 0.19406 0.44125 0.0
H116 H 0.90608 0.20274 0.43254 0.0
H117 H 0.90843 0.20973 0.45235 0.0
H118 H 0.97884 0.23171 0.42154 0.0
C119 C 0.9437 0.1982 0.42247 0.0
C120 C 0.95263 0.7673 0.39782 0.0
C121 C 0.97141 0.7633 0.40406 0.0
C122 C 0.96931 0.75466 0.41822 0.0
C123 C 0.93039 0.75452 0.41965 0.0
C124 C 0.93249 0.76289 0.40576 0.0
C125 C 0.9115 0.76701 0.40076 0.0
H126 H 0.80572 0.76644 0.41458 0.0
C127 C 0.90745 0.75242 0.42499 0.0
C128 C 0.8964 0.75979 0.41393 0.0
H129 H 0.84507 0.78712 0.3755 0.0
H130 H 0.87564 0.77785 0.38602 0.0
H131 H 0.81013 0.71818 0.41802 0.0
H132 H 0.85423 0.79414 0.43797 0.0
H133 H 0.85182 0.77495 0.45196 0.0
H134 H 0.82396 0.77286 0.4432 0.0
H135 H 0.79994 0.7307 0.43258 0.0
H136 H 0.81862 0.71647 0.43648 0.0
C137 C 0.89701 0.74888 0.38662 0.0
C138 C 0.92264 0.79516 0.39867 0.0
C139 C 0.88225 0.72374 0.47583 0.0
C140 C 0.86226 0.72091 0.48365 0.0
C141 C 0.84441 0.72584 0.47686 0.0
C142 C 0.84649 0.73374 0.46267 0.0
C143 C 0.86669 0.73685 0.45508 0.0
C144 C 0.88413 0.73181 0.4616 0.0
C145 C 0.90445 0.73651 0.4518 0.0
C146 C 0.89617 0.74506 0.43835 0.0
C147 C 0.87404 0.74521 0.44041 0.0
C148 C 0.90374 0.71145 0.44798 0.0
C149 C 0.92951 0.75759 0.45991 0.0
C150 C 0.82106 0.76919 0.40835 0.0
C151 C 0.82297 0.77755 0.39419 0.0
C152 C 0.843 0.78045 0.38636 0.0
C153 C 0.86083 0.77517 0.39253 0.0
C154 C 0.85868 0.76687 0.40671 0.0
C155 C 0.839 0.76394 0.41435 0.0
C156 C 0.8396 0.75474 0.42921 0.0
C157 C 0.86299 0.75278 0.42927 0.0
C158 C 0.87408 0.75995 0.41609 0.0
C159 C 0.81583 0.72876 0.42924 0.0
C160 C 0.84237 0.775 0.4413 0.0
H161 H 0.94833 0.74363 0.43673 0.0
H162 H 0.95385 0.77436 0.3871 0.0
H163 H 0.93901 0.80706 0.40692 0.0
H164 H 0.90955 0.80198 0.4005 0.0
H165 H 0.92897 0.79909 0.38746 0.0
H166 H 0.89659 0.73076 0.38717 0.0
H167 H 0.90588 0.75695 0.37654 0.0
H168 H 0.87722 0.74372 0.38519 0.0
H169 H 0.89635 0.72023 0.48077 0.0
H170 H 0.8286 0.72337 0.48252 0.0
H171 H 0.83227 0.73718 0.4582 0.0
H172 H 0.88416 0.69569 0.44585 0.0
H173 H 0.91305 0.70723 0.45726 0.0
H174 H 0.91237 0.71109 0.43777 0.0
H175 H 0.92687 0.77188 0.46628 0.0
H176 H 0.94336 0.76813 0.45226 0.0
H177 H 0.93765 0.74999 0.46786 0.0
H178 H 0.98343 0.75125 0.42323 0.0
C179 C 0.94888 0.75018 0.42602 0.0
C180 C 0.16387 0.22207 0.6025 0.0
C181 C 0.18556 0.22521 0.59665 0.0
C182 C 0.19126 0.23513 0.58292 0.0
C183 C 0.15397 0.23842 0.58114 0.0
C184 C 0.14843 0.22872 0.59459 0.0
C185 C 0.12454 0.22621 0.59919 0.0
H186 H 0.02329 0.23816 0.58467 0.0
C187 C 0.1339 0.24306 0.57573 0.0
C188 C 0.11658 0.23589 0.58623 0.0
H189 H 0.04348 0.21153 0.62306 0.0
H190 H 0.08088 0.21826 0.61297 0.0
H191 H 0.07921 0.28474 0.58251 0.0
H192 H 0.03956 0.20968 0.56027 0.0
H193 H 0.05528 0.23048 0.54721 0.0
H194 H 0.0314 0.23288 0.55623 0.0
H195 H 0.05331 0.27453 0.56869 0.0
H196 H 0.08457 0.2863 0.56373 0.0
C197 C 0.13077 0.24339 0.61382 0.0
C198 C 0.10607 0.19806 0.60024 0.0
C199 C 0.13807 0.27931 0.52677 0.0
C200 C 0.12226 0.28531 0.51856 0.0
C201 C 0.0999 0.28095 0.52413 0.0
C202 C 0.09359 0.27102 0.53776 0.0
C203 C 0.10973 0.26526 0.54586 0.0
C204 C 0.1315 0.26937 0.54027 0.0
C205 C 0.14626 0.26176 0.55014 0.0
C206 C 0.12996 0.25264 0.56269 0.0
C207 C 0.10858 0.25474 0.56019 0.0
C208 C 0.17181 0.28539 0.55536 0.0
C209 C 0.14786 0.24031 0.54148 0.0
C210 C 0.03575 0.23367 0.59081 0.0
C211 C 0.03047 0.22441 0.60472 0.0
C212 C 0.04728 0.21903 0.61245 0.0
C213 C 0.06897 0.22282 0.60652 0.0
C214 C 0.07408 0.23213 0.59267 0.0
C215 C 0.05771 0.23751 0.58506 0.0
C216 C 0.06665 0.2477 0.57059 0.0
C217 C 0.09094 0.24735 0.57081 0.0
C218 C 0.09506 0.23811 0.58376 0.0
C219 C 0.07107 0.27469 0.57126 0.0
C220 C 0.04724 0.22945 0.55783 0.0
H221 H 0.18105 0.24925 0.56479 0.0
H222 H 0.15875 0.2142 0.61292 0.0
H223 H 0.1084 0.18611 0.59157 0.0
H224 H 0.08636 0.19298 0.59826 0.0
H225 H 0.10918 0.19244 0.61119 0.0
H226 H 0.14952 0.26042 0.61423 0.0
H227 H 0.1308 0.23352 0.62362 0.0
H228 H 0.11792 0.2507 0.61502 0.0
H229 H 0.15513 0.28192 0.52267 0.0
H230 H 0.08744 0.2855 0.51804 0.0
H231 H 0.0764 0.26822 0.54145 0.0
H232 H 0.16971 0.3021 0.55751 0.0
H233 H 0.18501 0.28946 0.54682 0.0
H234 H 0.18047 0.28395 0.56594 0.0
H235 H 0.13086 0.22855 0.53363 0.0
H236 H 0.1488 0.22706 0.54873 0.0
H237 H 0.16414 0.24784 0.53491 0.0
H238 H 0.208 0.23801 0.57824 0.0
C239 C 0.17563 0.24176 0.57515 0.0
C240 C 0.76006 0.81059 0.61488 0.0
C241 C 0.7533 0.78652 0.60843 0.0
C242 C 0.73822 0.77748 0.59473 0.0
C243 C 0.73718 0.81612 0.59435 0.0
C244 C 0.75142 0.82466 0.60789 0.0
C245 C 0.75566 0.84971 0.61398 0.0
H246 H 0.73524 0.94606 0.60748 0.0
C247 C 0.73114 0.83538 0.59025 0.0
C248 C 0.74141 0.85477 0.60191 0.0
H249 H 0.78206 0.93831 0.64154 0.0
H250 H 0.77044 0.89779 0.62989 0.0
H251 H 0.75615 0.93305 0.58292 0.0
H252 H 0.68902 0.8865 0.6021 0.0
H253 H 0.68254 0.88084 0.58262 0.0
H254 H 0.6944 0.91203 0.59154 0.0
H255 H 0.7271 0.92968 0.57578 0.0
H256 H 0.73787 0.9093 0.56864 0.0
C257 C 0.78405 0.86876 0.61526 0.0
C258 C 0.74381 0.84651 0.62881 0.0
C259 C 0.69468 0.83186 0.53805 0.0
C260 C 0.68945 0.84872 0.53114 0.0
C261 C 0.68928 0.86815 0.53998 0.0
C262 C 0.69617 0.87202 0.55524 0.0
C263 C 0.70343 0.85641 0.56177 0.0
C264 C 0.70167 0.83609 0.55338 0.0
C265 C 0.70962 0.82125 0.56252 0.0
C266 C 0.71852 0.83741 0.57733 0.0
C267 C 0.71483 0.85797 0.57676 0.0
C268 C 0.73112 0.82008 0.55549 0.0
C269 C 0.68649 0.79523 0.56359 0.0
C270 C 0.74314 0.93582 0.61249 0.0
C271 C 0.75948 0.94572 0.62567 0.0
C272 C 0.76893 0.93122 0.63169 0.0
C273 C 0.7624 0.90765 0.62477 0.0
C274 C 0.74658 0.89842 0.61148 0.0
C275 C 0.73741 0.91254 0.60549 0.0
C276 C 0.7229 0.90088 0.59055 0.0
C277 C 0.72444 0.87713 0.58878 0.0
C278 C 0.73799 0.87568 0.60117 0.0
C279 C 0.73647 0.91906 0.57883 0.0
C280 C 0.69576 0.89481 0.59163 0.0
H281 H 0.71888 0.78439 0.57724 0.0
H282 H 0.77199 0.81861 0.6252 0.0
H283 H 0.72591 0.82844 0.6281 0.0
H284 H 0.73897 0.86099 0.6318 0.0
H285 H 0.75635 0.84654 0.63805 0.0
H286 H 0.79334 0.86352 0.6068 0.0
H287 H 0.79322 0.86968 0.62633 0.0
H288 H 0.78827 0.8878 0.6131 0.0
H289 H 0.69469 0.81661 0.53156 0.0
H290 H 0.68456 0.88091 0.53499 0.0
H291 H 0.69636 0.88754 0.56128 0.0
H292 H 0.74549 0.83904 0.55303 0.0
H293 H 0.72413 0.80758 0.54493 0.0
H294 H 0.74081 0.81335 0.56278 0.0
H295 H 0.66892 0.79584 0.56219 0.0
H296 H 0.68653 0.78854 0.5746 0.0
H297 H 0.6851 0.78105 0.5549 0.0
H298 H 0.73227 0.75891 0.58953 0.0
C299 C 0.73022 0.79219 0.58764 0.0
C300 C 0.05025 0.81067 0.61086 0.0
C301 C 0.02898 0.79085 0.60254 0.0
C302 C 0.02996 0.78615 0.58725 0.0
C303 C 0.07215 0.82149 0.58884 0.0
C304 C 0.07126 0.82585 0.60381 0.0
C305 C 0.09418 0.84908 0.61092 0.0
H306 H 0.20139 0.95488 0.60327 0.0
C307 C 0.09624 0.84165 0.58486 0.0
C308 C 0.10908 0.85796 0.59776 0.0
H309 H 0.16462 0.93144 0.64303 0.0
H310 H 0.13379 0.89201 0.62971 0.0
H311 H 0.19613 0.90113 0.59296 0.0
H312 H 0.15364 0.9362 0.58147 0.0
H313 H 0.15603 0.92165 0.56494 0.0
H314 H 0.18394 0.94599 0.57562 0.0
H315 H 0.20611 0.9247 0.58034 0.0
H316 H 0.18581 0.8919 0.57405 0.0
C317 C 0.1073 0.84136 0.62277 0.0
C318 C 0.08616 0.86769 0.61704 0.0
C319 C 0.11867 0.84308 0.53175 0.0
C320 C 0.13924 0.8603 0.52488 0.0
C321 C 0.1587 0.88154 0.53349 0.0
C322 C 0.15769 0.88576 0.54865 0.0
C323 C 0.13689 0.86868 0.55534 0.0
C324 C 0.11783 0.84771 0.54695 0.0
C325 C 0.09697 0.83202 0.556 0.0
C326 C 0.10701 0.84676 0.57122 0.0
C327 C 0.13033 0.86825 0.57069 0.0
C328 C 0.09436 0.80582 0.55582 0.0
C329 C 0.07313 0.83173 0.54965 0.0
C330 C 0.18696 0.9411 0.60918 0.0
C331 C 0.18527 0.94646 0.62419 0.0
C332 C 0.16605 0.928 0.6314 0.0
C333 C 0.14817 0.90508 0.62365 0.0
C334 C 0.14937 0.90055 0.60847 0.0
C335 C 0.16888 0.91813 0.60158 0.0
C336 C 0.16721 0.91001 0.58542 0.0
C337 C 0.14302 0.88502 0.58365 0.0
C338 C 0.13261 0.87968 0.59716 0.0
C339 C 0.19 0.90689 0.58292 0.0
C340 C 0.16526 0.92944 0.57628 0.0
H341 H 0.05093 0.79688 0.56873 0.0
H342 H 0.05056 0.8147 0.62266 0.0
H343 H 0.06981 0.86563 0.61006 0.0
H344 H 0.10061 0.8875 0.6169 0.0
H345 H 0.08085 0.86441 0.62849 0.0
H346 H 0.10581 0.82319 0.61898 0.0
H347 H 0.09872 0.83913 0.63336 0.0
H348 H 0.12751 0.85476 0.62493 0.0
H349 H 0.10334 0.82671 0.52537 0.0
H350 H 0.17489 0.89487 0.52848 0.0
H351 H 0.17309 0.90231 0.55454 0.0
H352 H 0.11303 0.80751 0.55746 0.0
H353 H 0.08494 0.79446 0.54505 0.0
H354 H 0.08406 0.79527 0.56483 0.0
H355 H 0.07782 0.84941 0.54474 0.0
H356 H 0.06089 0.83063 0.55825 0.0
H357 H 0.06233 0.816 0.54082 0.0
H358 H 0.01389 0.77126 0.58045 0.0
C359 C 0.05145 0.80124 0.5804 0.0
C360 C 0.91456 0.52149 0.71543 0.0
C361 C 0.91747 0.54315 0.72334 0.0
C362 C 0.93055 0.55094 0.73761 0.0
C363 C 0.93503 0.51413 0.73645 0.0
C364 C 0.9234 0.50733 0.72216 0.0
C365 C 0.92031 0.48299 0.71555 0.0
H366 H 0.92392 0.37771 0.72526 0.0
C367 C 0.93989 0.49413 0.74062 0.0
C368 C 0.93153 0.47597 0.72835 0.0
H369 H 0.89833 0.39696 0.68556 0.0
H370 H 0.91134 0.43797 0.69765 0.0
H371 H 0.97528 0.43193 0.733 0.0
H372 H 0.90184 0.39941 0.74728 0.0
H373 H 0.92278 0.4161 0.76302 0.0
H374 H 0.92386 0.39034 0.75346 0.0
H375 H 0.96451 0.40851 0.74573 0.0
H376 H 0.97915 0.44145 0.75204 0.0
C377 C 0.93571 0.48824 0.70206 0.0
C378 C 0.89202 0.46424 0.71183 0.0
C379 C 0.96989 0.49466 0.79396 0.0
C380 C 0.97279 0.47689 0.8014 0.0
C381 C 0.97021 0.45555 0.79319 0.0
C382 C 0.96384 0.45141 0.77785 0.0
C383 C 0.95962 0.4686 0.77065 0.0
C384 C 0.96316 0.49007 0.77862 0.0
C385 C 0.95713 0.50582 0.76913 0.0
C386 C 0.94913 0.4901 0.75422 0.0
C387 C 0.95049 0.46826 0.75524 0.0
C388 C 0.98123 0.53135 0.76878 0.0
C389 C 0.93541 0.50769 0.77541 0.0
C390 C 0.92153 0.39091 0.71907 0.0
C391 C 0.90988 0.384 0.70448 0.0
C392 C 0.90686 0.40168 0.6969 0.0
C393 C 0.91449 0.42551 0.70393 0.0
C394 C 0.92503 0.4317 0.71876 0.0
C395 C 0.9289 0.41473 0.72596 0.0
C396 C 0.94009 0.42443 0.74173 0.0
C397 C 0.94212 0.44996 0.74283 0.0
C398 C 0.93303 0.45398 0.7294 0.0
C399 C 0.96605 0.4266 0.74336 0.0
C400 C 0.92142 0.40671 0.75201 0.0
H401 H 0.94869 0.54309 0.75523 0.0
H402 H 0.90503 0.51532 0.70432 0.0
H403 H 0.88125 0.46656 0.72052 0.0
H404 H 0.88715 0.44447 0.71148 0.0
H405 H 0.88497 0.46725 0.70109 0.0
H406 H 0.95259 0.50724 0.70374 0.0
H407 H 0.92459 0.48724 0.69176 0.0
H408 H 0.943 0.47533 0.70032 0.0
H409 H 0.97159 0.51114 0.80003 0.0
H410 H 0.97271 0.44181 0.79871 0.0
H411 H 0.96173 0.43459 0.77228 0.0
H412 H 0.99789 0.52905 0.76908 0.0
H413 H 0.98401 0.54464 0.77846 0.0
H414 H 0.98145 0.54003 0.75848 0.0
H415 H 0.92168 0.48956 0.77925 0.0
H416 H 0.92451 0.51167 0.76714 0.0
H417 H 0.94235 0.52224 0.78503 0.0
H418 H 0.93307 0.56762 0.7439 0.0
C419 C 0.93941 0.53656 0.7442 0.0
C420 C 0.61405 0.51434 0.7249 0.0
C421 C 0.63501 0.53489 0.73295 0.0
C422 C 0.63365 0.54081 0.74801 0.0
C423 C 0.59148 0.5054 0.74671 0.0
C424 C 0.59286 0.49982 0.73197 0.0
C425 C 0.57007 0.47636 0.72505 0.0
H426 H 0.45627 0.37818 0.73099 0.0
C427 C 0.56688 0.48602 0.75064 0.0
C428 C 0.55439 0.46899 0.73795 0.0
H429 H 0.50136 0.39276 0.69421 0.0
H430 H 0.53255 0.43166 0.70722 0.0
H431 H 0.49908 0.38999 0.75422 0.0
H432 H 0.47004 0.43648 0.74045 0.0
H433 H 0.47535 0.44106 0.75992 0.0
H434 H 0.45355 0.41027 0.75086 0.0
H435 H 0.47145 0.38751 0.76087 0.0
H436 H 0.50205 0.40901 0.77017 0.0
C437 C 0.57788 0.4569 0.72032 0.0
C438 C 0.55793 0.48333 0.7122 0.0
C439 C 0.54237 0.48771 0.80311 0.0
C440 C 0.52114 0.47127 0.80981 0.0
C441 C 0.50106 0.45084 0.80102 0.0
C442 C 0.5022 0.44645 0.78589 0.0
C443 C 0.52379 0.46247 0.77942 0.0
C444 C 0.54335 0.48286 0.78793 0.0
C445 C 0.56496 0.49746 0.77909 0.0
C446 C 0.55514 0.48231 0.76397 0.0
C447 C 0.531 0.46184 0.76429 0.0
C448 C 0.58789 0.49678 0.7861 0.0
C449 C 0.56887 0.52411 0.7787 0.0
C450 C 0.47286 0.38954 0.72568 0.0
C451 C 0.47589 0.38198 0.71136 0.0
C452 C 0.49786 0.39797 0.705 0.0
C453 C 0.51635 0.42057 0.71271 0.0
C454 C 0.51339 0.42727 0.72716 0.0
C455 C 0.49193 0.41188 0.73342 0.0
C456 C 0.49286 0.42117 0.74928 0.0
C457 C 0.51847 0.44464 0.75145 0.0
C458 C 0.5302 0.44819 0.7384 0.0
C459 C 0.49111 0.40095 0.75924 0.0
C460 C 0.4718 0.42747 0.75033 0.0
H461 H 0.61216 0.53159 0.76638 0.0
H462 H 0.61403 0.50935 0.71327 0.0
H463 H 0.55824 0.50111 0.71548 0.0
H464 H 0.53811 0.46927 0.70909 0.0
H465 H 0.56813 0.48601 0.70222 0.0
H466 H 0.59546 0.46084 0.72675 0.0
H467 H 0.58095 0.45692 0.7084 0.0
H468 H 0.5641 0.43766 0.72251 0.0
H469 H 0.55813 0.50349 0.80962 0.0
H470 H 0.48439 0.43817 0.8059 0.0
H471 H 0.48633 0.4305 0.77987 0.0
H472 H 0.58219 0.47831 0.79022 0.0
H473 H 0.59763 0.51141 0.79563 0.0
H474 H 0.60136 0.49904 0.7781 0.0
H475 H 0.55064 0.52337 0.77703 0.0
H476 H 0.57917 0.5337 0.76944 0.0
H477 H 0.57884 0.53589 0.78927 0.0
H478 H 0.6495 0.55635 0.75459 0.0
C479 C 0.61198 0.52627 0.75489 0.0
C480 C 0.61464 0.09541 0.72921 0.0
C481 C 0.63403 0.09249 0.73562 0.0
C482 C 0.63276 0.08519 0.7501 0.0
C483 C 0.59386 0.08501 0.75168 0.0
C484 C 0.59496 0.09174 0.7374 0.0
C485 C 0.57373 0.0955 0.73238 0.0
H486 H 0.47607 0.10787 0.74924 0.0
C487 C 0.57168 0.08418 0.75739 0.0
C488 C 0.55992 0.09042 0.74611 0.0
H489 H 0.50546 0.11257 0.70676 0.0
H490 H 0.53526 0.10232 0.71709 0.0
H491 H 0.47384 0.05716 0.75425 0.0
H492 H 0.5276 0.13341 0.77011 0.0
H493 H 0.52303 0.11545 0.78512 0.0
H494 H 0.49707 0.11667 0.77621 0.0
H495 H 0.46946 0.07306 0.76992 0.0
H496 H 0.48581 0.05596 0.77194 0.0
C497 C 0.55797 0.07575 0.71906 0.0
C498 C 0.58477 0.12305 0.72894 0.0
C499 C 0.55076 0.06256 0.80992 0.0
C500 C 0.53206 0.06189 0.81823 0.0
C501 C 0.51488 0.06796 0.81172 0.0
C502 C 0.51621 0.07461 0.79725 0.0
C503 C 0.53496 0.07531 0.78909 0.0
C504 C 0.55192 0.06944 0.79541 0.0
C505 C 0.57092 0.07191 0.78505 0.0
C506 C 0.56197 0.0794 0.77137 0.0
C507 C 0.54096 0.08142 0.7739 0.0
C508 C 0.56883 0.04604 0.78202 0.0
C509 C 0.5969 0.09296 0.79211 0.0
C510 C 0.4887 0.10651 0.74205 0.0
C511 C 0.48855 0.11167 0.72717 0.0
C512 C 0.50553 0.10959 0.71837 0.0
C513 C 0.52276 0.10336 0.72435 0.0
C514 C 0.523 0.09888 0.73929 0.0
C515 C 0.50577 0.09987 0.74777 0.0
C516 C 0.50767 0.09284 0.76313 0.0
C517 C 0.52939 0.08817 0.76259 0.0
C518 C 0.53852 0.09214 0.74868 0.0
C519 C 0.48295 0.06862 0.76506 0.0
C520 C 0.51401 0.11561 0.77433 0.0
H521 H 0.61288 0.0759 0.76911 0.0
H522 H 0.61517 0.10135 0.7182 0.0
H523 H 0.60028 0.13591 0.73748 0.0
H524 H 0.57126 0.12964 0.72907 0.0
H525 H 0.59231 0.12574 0.718 0.0
H526 H 0.55933 0.05854 0.71955 0.0
H527 H 0.56432 0.0832 0.70836 0.0
H528 H 0.53782 0.06906 0.71897 0.0
H529 H 0.56437 0.05822 0.81467 0.0
H530 H 0.5001 0.06723 0.8178 0.0
H531 H 0.50253 0.07897 0.793 0.0
H532 H 0.54894 0.03092 0.78026 0.0
H533 H 0.57788 0.04203 0.79154 0.0
H534 H 0.57703 0.04433 0.77189 0.0
H535 H 0.59547 0.10791 0.79864 0.0
H536 H 0.60971 0.10273 0.7838 0.0
H537 H 0.60569 0.08553 0.79973 0.0
H538 H 0.64733 0.08254 0.75524 0.0
C539 C 0.61274 0.08133 0.75813 0.0
C540 C 0.83426 0.5611 0.93719 0.0
C541 C 0.85426 0.56114 0.93065 0.0
C542 C 0.85763 0.56714 0.91589 0.0
C543 C 0.82188 0.57303 0.91466 0.0
C544 C 0.8182 0.56667 0.92897 0.0
C545 C 0.79507 0.56558 0.93393 0.0
H546 H 0.69233 0.57475 0.91853 0.0
C547 C 0.80172 0.57745 0.90916 0.0
C548 C 0.78573 0.57273 0.9203 0.0
H549 H 0.71489 0.5529 0.95826 0.0
H550 H 0.75221 0.55941 0.94813 0.0
H551 H 0.74756 0.62113 0.91507 0.0
H552 H 0.70812 0.54463 0.89508 0.0
H553 H 0.72229 0.56446 0.88126 0.0
H554 H 0.69893 0.567 0.89078 0.0
H555 H 0.72211 0.61008 0.90083 0.0
H556 H 0.75363 0.62127 0.89644 0.0
C557 C 0.80294 0.58545 0.9474 0.0
C558 C 0.77684 0.53829 0.93706 0.0
C559 C 0.80366 0.60929 0.85891 0.0
C560 C 0.78816 0.61584 0.85083 0.0
C561 C 0.76638 0.6126 0.85673 0.0
C562 C 0.76046 0.60344 0.87057 0.0
C563 C 0.77643 0.59738 0.87861 0.0
C564 C 0.79752 0.60022 0.87267 0.0
C565 C 0.81229 0.59266 0.88258 0.0
C566 C 0.79697 0.58545 0.89567 0.0
C567 C 0.77593 0.58814 0.8933 0.0
C568 C 0.83851 0.61588 0.88685 0.0
C569 C 0.81235 0.56992 0.87444 0.0
C570 C 0.70527 0.57123 0.92498 0.0
C571 C 0.70062 0.56331 0.93924 0.0
C572 C 0.71813 0.55931 0.94735 0.0
C573 C 0.73975 0.56291 0.94139 0.0
C574 C 0.74404 0.57055 0.92711 0.0
C575 C 0.7271 0.57481 0.91918 0.0
C576 C 0.73518 0.58334 0.90426 0.0
C577 C 0.75931 0.58269 0.90442 0.0
C578 C 0.76432 0.57518 0.91786 0.0
C579 C 0.73975 0.61029 0.90398 0.0
C580 C 0.71511 0.56404 0.89212 0.0
H581 H 0.84536 0.57761 0.8968 0.0
H582 H 0.83097 0.55681 0.94849 0.0
H583 H 0.77959 0.52457 0.93014 0.0
H584 H 0.75708 0.53256 0.93419 0.0
H585 H 0.7796 0.53557 0.94885 0.0
H586 H 0.82047 0.60287 0.94582 0.0
H587 H 0.80631 0.57845 0.95776 0.0
H588 H 0.78917 0.59146 0.94901 0.0
H589 H 0.82023 0.61102 0.85456 0.0
H590 H 0.75416 0.61758 0.85075 0.0
H591 H 0.74374 0.60154 0.87452 0.0
H592 H 0.83711 0.63288 0.88957 0.0
H593 H 0.85028 0.61948 0.87755 0.0
H594 H 0.84845 0.61424 0.89678 0.0
H595 H 0.79573 0.55906 0.86619 0.0
H596 H 0.81126 0.55617 0.88203 0.0
H597 H 0.82913 0.57601 0.8684 0.0
H598 H 0.8723 0.56672 0.91028 0.0
C599 C 0.84171 0.57322 0.90794 0.0
C600 C 0.43051 0.14793 0.94844 0.0
C601 C 0.42864 0.12677 0.94053 0.0
C602 C 0.41675 0.11937 0.92595 0.0
C603 C 0.41061 0.15518 0.92707 0.0
C604 C 0.42138 0.16173 0.94157 0.0
C605 C 0.42271 0.18512 0.94839 0.0
H606 H 0.41209 0.28684 0.9398 0.0
C607 C 0.40433 0.17432 0.92305 0.0
C608 C 0.41112 0.19172 0.93557 0.0
H609 H 0.43983 0.26867 0.97911 0.0
H610 H 0.42887 0.22848 0.96668 0.0
H611 H 0.43614 0.26684 0.91707 0.0
H612 H 0.36305 0.23277 0.93189 0.0
H613 H 0.35875 0.22087 0.91325 0.0
H614 H 0.37172 0.25412 0.91796 0.0
H615 H 0.41391 0.27645 0.91248 0.0
H616 H 0.41444 0.25174 0.90137 0.0
C617 C 0.4506 0.205 0.95257 0.0
C618 C 0.40663 0.17833 0.9616 0.0
C619 C 0.37503 0.17475 0.86963 0.0
C620 C 0.36978 0.1915 0.86261 0.0
C621 C 0.36933 0.21084 0.87135 0.0
C622 C 0.37534 0.21436 0.8867 0.0
C623 C 0.38211 0.19852 0.89344 0.0
C624 C 0.38114 0.17862 0.88504 0.0
C625 C 0.38846 0.16348 0.8943 0.0
C626 C 0.39469 0.1781 0.90949 0.0
C627 C 0.39121 0.19877 0.90883 0.0
C628 C 0.41162 0.16427 0.88833 0.0
C629 C 0.3656 0.1368 0.8939 0.0
C630 C 0.41539 0.27402 0.94582 0.0
C631 C 0.4271 0.28105 0.9604 0.0
C632 C 0.43125 0.26387 0.96778 0.0
C633 C 0.42484 0.24052 0.96054 0.0
C634 C 0.41437 0.23431 0.9457 0.0
C635 C 0.40927 0.25069 0.93871 0.0
C636 C 0.39837 0.24107 0.92288 0.0
C637 C 0.39817 0.21639 0.92147 0.0
C638 C 0.40778 0.21269 0.93482 0.0
C639 C 0.41642 0.25993 0.91282 0.0
C640 C 0.37165 0.23711 0.92128 0.0
H641 H 0.39924 0.12722 0.90796 0.0
H642 H 0.43909 0.15378 0.95978 0.0
H643 H 0.39032 0.159 0.95947 0.0
H644 H 0.39846 0.19042 0.9635 0.0
H645 H 0.41758 0.17924 0.97196 0.0
H646 H 0.4623 0.20356 0.94419 0.0
H647 H 0.45754 0.20241 0.96348 0.0
H648 H 0.45442 0.22444 0.95279 0.0
H649 H 0.37542 0.15963 0.86322 0.0
H650 H 0.36468 0.22357 0.86627 0.0
H651 H 0.37511 0.22972 0.89266 0.0
H652 H 0.42505 0.18348 0.8857 0.0
H653 H 0.40626 0.15136 0.87802 0.0
H654 H 0.42219 0.15956 0.89639 0.0
H655 H 0.3479 0.13723 0.89296 0.0
H656 H 0.36529 0.12807 0.9042 0.0
H657 H 0.36484 0.12439 0.88428 0.0
H658 H 0.41506 0.10307 0.91966 0.0
C659 C 0.40771 0.13348 0.91917 0.0
C660 C 0.71173 0.14724 0.94117 0.0
C661 C 0.6933 0.12414 0.93371 0.0
C662 C 0.69649 0.11727 0.91926 0.0
C663 C 0.73598 0.15611 0.92008 0.0
C664 C 0.73278 0.16275 0.93423 0.0
C665 C 0.75389 0.18785 0.94076 0.0
H666 H 0.86694 0.28795 0.93526 0.0
C667 C 0.76002 0.17648 0.91618 0.0
C668 C 0.77063 0.195 0.92833 0.0
H669 H 0.81852 0.27616 0.97002 0.0
H670 H 0.78837 0.23612 0.95746 0.0
H671 H 0.85505 0.23002 0.92808 0.0
H672 H 0.82649 0.27476 0.91085 0.0
H673 H 0.82204 0.25336 0.89582 0.0
H674 H 0.85324 0.27528 0.90416 0.0
H675 H 0.87208 0.25618 0.91772 0.0
H676 H 0.85198 0.22508 0.90857 0.0
C677 C 0.76629 0.18399 0.95486 0.0
C678 C 0.7435 0.20577 0.94348 0.0
C679 C 0.78771 0.17374 0.86473 0.0
C680 C 0.8086 0.19095 0.85808 0.0
C681 C 0.82776 0.21223 0.8668 0.0
C682 C 0.82585 0.21688 0.88177 0.0
C683 C 0.80441 0.20023 0.88812 0.0
C684 C 0.78593 0.17885 0.87974 0.0
C685 C 0.76444 0.16353 0.88849 0.0
C686 C 0.77272 0.1798 0.90325 0.0
C687 C 0.79619 0.2012 0.90291 0.0
C688 C 0.76299 0.13807 0.88998 0.0
C689 C 0.74057 0.16139 0.88066 0.0
C690 C 0.84986 0.27701 0.94024 0.0
C691 C 0.84559 0.2856 0.95387 0.0
C692 C 0.82295 0.27012 0.9598 0.0
C693 C 0.80515 0.24684 0.95236 0.0
C694 C 0.80961 0.23892 0.93866 0.0
C695 C 0.83154 0.25407 0.93275 0.0
C696 C 0.8321 0.24379 0.91744 0.0
C697 C 0.80708 0.21966 0.9153 0.0
C698 C 0.7942 0.21673 0.92784 0.0
C699 C 0.85401 0.23857 0.91783 0.0
C700 C 0.83371 0.26269 0.90644 0.0
H701 H 0.71912 0.12681 0.90144 0.0
H702 H 0.70969 0.15337 0.95215 0.0
H703 H 0.72649 0.20008 0.93584 0.0
H704 H 0.7567 0.22517 0.94125 0.0
H705 H 0.73844 0.20596 0.95499 0.0
H706 H 0.76827 0.16718 0.9529 0.0
H707 H 0.75487 0.18116 0.96428 0.0
H708 H 0.78532 0.19968 0.9583 0.0
H709 H 0.7727 0.15723 0.85827 0.0
H710 H 0.84422 0.22547 0.86197 0.0
H711 H 0.841 0.23351 0.88774 0.0
H712 H 0.78194 0.14034 0.89101 0.0
H713 H 0.7522 0.12451 0.88013 0.0
H714 H 0.75481 0.12972 0.90008 0.0
H715 H 0.74464 0.17958 0.87669 0.0
H716 H 0.72577 0.15683 0.88805 0.0
H717 H 0.73301 0.14706 0.87091 0.0
H718 H 0.68268 0.0995 0.9133 0.0
C719 C 0.71774 0.13309 0.91243 0.0
C720 C 0.56893 0.85181 0.05347 0.0
C721 C 0.57257 0.87426 0.0607 0.0
C722 C 0.58634 0.88314 0.07477 0.0
C723 C 0.59119 0.84658 0.0745 0.0
C724 C 0.57836 0.83838 0.06052 0.0
C725 C 0.57546 0.81387 0.05443 0.0
H726 H 0.58665 0.71295 0.06533 0.0
C727 C 0.59752 0.82765 0.07889 0.0
C728 C 0.58854 0.80857 0.0671 0.0
H729 H 0.5537 0.72675 0.02639 0.0
H730 H 0.56582 0.76794 0.03764 0.0
H731 H 0.63609 0.76749 0.07005 0.0
H732 H 0.56627 0.73652 0.08901 0.0
H733 H 0.59027 0.75341 0.10343 0.0
H734 H 0.58884 0.72707 0.09293 0.0
H735 H 0.6293 0.7473 0.08455 0.0
H736 H 0.64303 0.78079 0.08855 0.0
C737 C 0.58928 0.81815 0.04029 0.0
C738 C 0.5472 0.79438 0.05192 0.0
C739 C 0.63672 0.83556 0.13105 0.0
C740 C 0.64339 0.82015 0.13848 0.0
C741 C 0.64124 0.79878 0.13051 0.0
C742 C 0.63174 0.79234 0.11556 0.0
C743 C 0.62415 0.80732 0.10847 0.0
C744 C 0.62725 0.82885 0.11609 0.0
C745 C 0.61854 0.8427 0.10663 0.0
C746 C 0.60919 0.82559 0.09221 0.0
C747 C 0.61228 0.80477 0.09342 0.0
C748 C 0.64129 0.86861 0.10486 0.0
C749 C 0.59719 0.84387 0.11391 0.0
C750 C 0.58235 0.72499 0.05915 0.0
C751 C 0.56891 0.71644 0.04502 0.0
C752 C 0.56358 0.73268 0.03741 0.0
C753 C 0.57072 0.75665 0.04395 0.0
C754 C 0.58319 0.76451 0.05832 0.0
C755 C 0.58925 0.74899 0.06557 0.0
C756 C 0.60256 0.76056 0.08078 0.0
C757 C 0.60311 0.78542 0.08153 0.0
C758 C 0.59155 0.78748 0.0684 0.0
C759 C 0.62909 0.76414 0.08115 0.0
C760 C 0.58638 0.74357 0.09223 0.0
H761 H 0.60571 0.87694 0.0925 0.0
H762 H 0.55886 0.84474 0.04253 0.0
H763 H 0.53715 0.79742 0.06081 0.0
H764 H 0.543 0.77491 0.05233 0.0
H765 H 0.53879 0.79583 0.04116 0.0
H766 H 0.60581 0.83735 0.04114 0.0
H767 H 0.57693 0.81593 0.03028 0.0
H768 H 0.5969 0.80553 0.03853 0.0
H769 H 0.63852 0.85231 0.13681 0.0
H770 H 0.64607 0.78648 0.13598 0.0
H771 H 0.63013 0.7756 0.1102 0.0
H772 H 0.65865 0.8676 0.10483 0.0
H773 H 0.64423 0.88273 0.11409 0.0
H774 H 0.63966 0.8756 0.09419 0.0
H775 H 0.58467 0.82579 0.11827 0.0
H776 H 0.58497 0.84694 0.10609 0.0
H777 H 0.60469 0.85882 0.12333 0.0
H778 H 0.58936 0.90039 0.08057 0.0
C779 C 0.59569 0.86942 0.08171 0.0
C780 C 0.28255 0.85453 0.05992 0.0
C781 C 0.30116 0.87741 0.06749 0.0
C782 C 0.29807 0.88413 0.08201 0.0
C783 C 0.25839 0.84542 0.08106 0.0
C784 C 0.26151 0.83899 0.06685 0.0
C785 C 0.2404 0.81396 0.06025 0.0
H786 H 0.13227 0.70863 0.06752 0.0
C787 C 0.23451 0.8248 0.08501 0.0
C788 C 0.22394 0.80638 0.0728 0.0
H789 H 0.17528 0.72708 0.02984 0.0
H790 H 0.20492 0.76745 0.04258 0.0
H791 H 0.17815 0.73019 0.09203 0.0
H792 H 0.13657 0.76242 0.07376 0.0
H793 H 0.14376 0.77316 0.09269 0.0
H794 H 0.12473 0.73998 0.08703 0.0
H795 H 0.14707 0.72095 0.09621 0.0
H796 H 0.17396 0.74678 0.10687 0.0
C797 C 0.251 0.79633 0.05715 0.0
C798 C 0.2276 0.81803 0.04638 0.0
C799 C 0.20564 0.8285 0.13601 0.0
C800 C 0.18428 0.81187 0.14256 0.0
C801 C 0.16617 0.78943 0.1342 0.0
C802 C 0.16921 0.78355 0.11966 0.0
C803 C 0.19065 0.80018 0.11331 0.0
C804 C 0.20838 0.82232 0.12138 0.0
C805 C 0.22982 0.83773 0.11262 0.0
C806 C 0.22203 0.82106 0.09805 0.0
C807 C 0.19911 0.79905 0.0986 0.0
C808 C 0.25387 0.84073 0.12075 0.0
C809 C 0.23058 0.86277 0.11068 0.0
C810 C 0.1479 0.72149 0.06195 0.0
C811 C 0.1515 0.71454 0.04768 0.0
C812 C 0.17228 0.73179 0.04091 0.0
C813 C 0.18944 0.7553 0.04832 0.0
C814 C 0.18592 0.76174 0.06271 0.0
C815 C 0.1653 0.74506 0.06922 0.0
C816 C 0.16471 0.75508 0.0846 0.0
C817 C 0.18854 0.78041 0.08628 0.0
C818 C 0.20086 0.78414 0.07344 0.0
C819 C 0.16585 0.73737 0.09559 0.0
C820 C 0.14119 0.7577 0.08468 0.0
H821 H 0.27547 0.87443 0.09985 0.0
H822 H 0.28448 0.8485 0.04889 0.0
H823 H 0.22784 0.83611 0.04801 0.0
H824 H 0.20768 0.80369 0.04403 0.0
H825 H 0.23729 0.81847 0.03642 0.0
H826 H 0.26659 0.80056 0.06564 0.0
H827 H 0.2583 0.79847 0.04614 0.0
H828 H 0.23726 0.77641 0.05777 0.0
H829 H 0.21981 0.84599 0.14208 0.0
H830 H 0.14977 0.77606 0.13901 0.0
H831 H 0.15479 0.7661 0.11399 0.0
H832 H 0.25008 0.82308 0.12539 0.0
H833 H 0.26144 0.85584 0.13009 0.0
H834 H 0.26856 0.84461 0.11336 0.0
H835 H 0.21139 0.85977 0.1089 0.0
H836 H 0.23963 0.87143 0.10086 0.0
H837 H 0.24023 0.87638 0.12068 0.0
H838 H 0.31203 0.90174 0.08806 0.0
C839 C 0.27677 0.86829 0.08881 0.0
C840 C 0.28561 0.43464 0.06447 0.0
C841 C 0.3044 0.4307 0.07077 0.0
C842 C 0.30202 0.42169 0.08484 0.0
C843 C 0.26297 0.42132 0.08612 0.0
C844 C 0.26525 0.4299 0.07228 0.0
C845 C 0.24416 0.43386 0.06721 0.0
H846 H 0.13797 0.43261 0.08091 0.0
C847 C 0.23991 0.41902 0.09137 0.0
C848 C 0.22887 0.42637 0.0803 0.0
H849 H 0.17736 0.45361 0.04186 0.0
H850 H 0.20796 0.4443 0.05233 0.0
H851 H 0.14269 0.38432 0.08433 0.0
H852 H 0.18599 0.4604 0.10414 0.0
H853 H 0.18442 0.44156 0.11816 0.0
H854 H 0.15608 0.43877 0.10965 0.0
H855 H 0.13219 0.39684 0.09871 0.0
H856 H 0.15097 0.38282 0.10288 0.0
C857 C 0.22994 0.41583 0.05299 0.0
C858 C 0.25514 0.46201 0.06521 0.0
C859 C 0.21503 0.39113 0.14241 0.0
C860 C 0.19515 0.38857 0.15024 0.0
C861 C 0.17713 0.39315 0.14335 0.0
C862 C 0.17898 0.40054 0.12904 0.0
C863 C 0.19914 0.40354 0.12146 0.0
C864 C 0.21671 0.39875 0.12807 0.0
C865 C 0.23701 0.40337 0.11826 0.0
C866 C 0.22861 0.41165 0.10473 0.0
C867 C 0.20642 0.41169 0.10674 0.0
C868 C 0.23639 0.37831 0.11459 0.0
C869 C 0.26205 0.4246 0.1263 0.0
C870 C 0.1533 0.43541 0.07467 0.0
C871 C 0.15524 0.4439 0.06054 0.0
C872 C 0.17527 0.44684 0.05269 0.0
C873 C 0.19312 0.44155 0.05884 0.0
C874 C 0.19099 0.4332 0.073 0.0
C875 C 0.17126 0.43017 0.08063 0.0
C876 C 0.1719 0.42102 0.09549 0.0
C877 C 0.19533 0.41916 0.09557 0.0
C878 C 0.20645 0.42637 0.0824 0.0
C879 C 0.14819 0.39498 0.09552 0.0
C880 C 0.17456 0.44126 0.10757 0.0
H881 H 0.28068 0.41014 0.10316 0.0
H882 H 0.28699 0.44192 0.05381 0.0
H883 H 0.27119 0.47392 0.07366 0.0
H884 H 0.2418 0.46858 0.06681 0.0
H885 H 0.26188 0.46617 0.05411 0.0
H886 H 0.22969 0.39779 0.05349 0.0
H887 H 0.23889 0.4241 0.04297 0.0
H888 H 0.2101 0.4105 0.0515 0.0
H889 H 0.22923 0.38785 0.14745 0.0
H890 H 0.16141 0.39087 0.14904 0.0
H891 H 0.16466 0.40378 0.1245 0.0
H892 H 0.21684 0.36245 0.11269 0.0
H893 H 0.24601 0.37441 0.12385 0.0
H894 H 0.24474 0.37774 0.1043 0.0
H895 H 0.25938 0.43903 0.13248 0.0
H896 H 0.27593 0.43492 0.11862 0.0
H897 H 0.27016 0.4172 0.1344 0.0
H898 H 0.31608 0.41823 0.08989 0.0
C899 C 0.2814 0.41692 0.09251 0.0
C900 C 0.50224 0.89447 0.27115 0.0
C901 C 0.52377 0.89737 0.26522 0.0
C902 C 0.52908 0.90658 0.25128 0.0
C903 C 0.49157 0.90947 0.24939 0.0
C904 C 0.48647 0.90055 0.26307 0.0
C905 C 0.46257 0.89797 0.26768 0.0
H906 H 0.35983 0.90711 0.25264 0.0
C907 C 0.47113 0.91349 0.24383 0.0
C908 C 0.45408 0.90673 0.25447 0.0
H909 H 0.38166 0.88313 0.29168 0.0
H910 H 0.4191 0.89012 0.28155 0.0
H911 H 0.41508 0.95406 0.24974 0.0
H912 H 0.37652 0.87816 0.22874 0.0
H913 H 0.39141 0.89846 0.21529 0.0
H914 H 0.36743 0.90057 0.22437 0.0
H915 H 0.38909 0.94287 0.23585 0.0
H916 H 0.42042 0.95486 0.23095 0.0
C917 C 0.46891 0.91586 0.28201 0.0
C918 C 0.44448 0.86992 0.26928 0.0
C919 C 0.47329 0.94646 0.1939 0.0
C920 C 0.45711 0.95188 0.18557 0.0
C921 C 0.43491 0.94772 0.19129 0.0
C922 C 0.42909 0.93854 0.20514 0.0
C923 C 0.44559 0.93337 0.21336 0.0
C924 C 0.46722 0.93731 0.20765 0.0
C925 C 0.48249 0.93055 0.21773 0.0
C926 C 0.46663 0.92213 0.23053 0.0
C927 C 0.44501 0.92379 0.22795 0.0
C928 C 0.508 0.95453 0.22244 0.0
C929 C 0.48413 0.90879 0.20952 0.0
C930 C 0.37266 0.90326 0.25892 0.0
C931 C 0.36782 0.89468 0.27302 0.0
C932 C 0.38511 0.89012 0.28092 0.0
C933 C 0.40682 0.89405 0.27496 0.0
C934 C 0.41147 0.90265 0.26092 0.0
C935 C 0.39464 0.90723 0.25314 0.0
C936 C 0.40312 0.91672 0.23845 0.0
C937 C 0.42764 0.91682 0.23872 0.0
C938 C 0.4323 0.90847 0.25191 0.0
C939 C 0.40703 0.94347 0.2386 0.0
C940 C 0.38363 0.89769 0.22597 0.0
H941 H 0.51822 0.91958 0.23282 0.0
H942 H 0.49741 0.88711 0.28173 0.0
H943 H 0.44698 0.85765 0.26092 0.0
H944 H 0.42467 0.86446 0.26721 0.0
H945 H 0.44781 0.86506 0.28042 0.0
H946 H 0.48747 0.93302 0.28208 0.0
H947 H 0.46942 0.90666 0.29204 0.0
H948 H 0.45582 0.92291 0.28306 0.0
H949 H 0.49025 0.94895 0.18973 0.0
H950 H 0.4222 0.95187 0.18514 0.0
H951 H 0.412 0.93586 0.20893 0.0
H952 H 0.50573 0.97121 0.22417 0.0
H953 H 0.52097 0.9581 0.21381 0.0
H954 H 0.517 0.95389 0.23312 0.0
H955 H 0.46684 0.89632 0.20203 0.0
H956 H 0.4858 0.8963 0.21711 0.0
H957 H 0.5 0.916 0.20263 0.0
H958 H 0.54569 0.90924 0.24653 0.0
C959 C 0.51314 0.91267 0.24336 0.0
C960 C 0.09128 0.4762 0.28242 0.0
C961 C 0.08964 0.45511 0.27456 0.0
C962 C 0.07824 0.44789 0.25986 0.0
C963 C 0.07235 0.48384 0.26076 0.0
C964 C 0.08254 0.49018 0.27537 0.0
C965 C 0.08388 0.51365 0.28207 0.0
H966 H 0.07584 0.61659 0.2726 0.0
C967 C 0.06659 0.50324 0.25652 0.0
C968 C 0.07304 0.52056 0.26903 0.0
H969 H 0.10068 0.59729 0.31255 0.0
H970 H 0.08954 0.55698 0.3002 0.0
H971 H 0.10046 0.59628 0.25071 0.0
H972 H 0.02629 0.56263 0.26394 0.0
H973 H 0.023 0.55137 0.24526 0.0
H974 H 0.03627 0.58457 0.25033 0.0
H975 H 0.07871 0.60617 0.24537 0.0
H976 H 0.07965 0.58134 0.23465 0.0
C977 C 0.11172 0.53329 0.28665 0.0
C978 C 0.06718 0.50689 0.29499 0.0
C979 C 0.04038 0.50458 0.20264 0.0
C980 C 0.03606 0.5217 0.19537 0.0
C981 C 0.03568 0.54128 0.2039 0.0
C982 C 0.04083 0.54461 0.21931 0.0
C983 C 0.04668 0.52834 0.22633 0.0
C984 C 0.04567 0.50827 0.2181 0.0
C985 C 0.05214 0.4928 0.2276 0.0
C986 C 0.05783 0.50734 0.24277 0.0
C987 C 0.05487 0.52829 0.24188 0.0
C988 C 0.07545 0.49323 0.22213 0.0
C989 C 0.02893 0.46629 0.22691 0.0
C990 C 0.07844 0.6035 0.27877 0.0
C991 C 0.08942 0.61025 0.29351 0.0
C992 C 0.09268 0.59272 0.30109 0.0
C993 C 0.08617 0.5693 0.2939 0.0
C994 C 0.07653 0.56339 0.27891 0.0
C995 C 0.07222 0.58009 0.27171 0.0
C996 C 0.0621 0.57074 0.25575 0.0
C997 C 0.06145 0.54583 0.25452 0.0
C998 C 0.07016 0.54178 0.26807 0.0
C999 C 0.08098 0.58954 0.246 0.0
C1000 C 0.03561 0.56726 0.25357 0.0
H1001 H 0.06149 0.45602 0.24163 0.0
H1002 H 0.09949 0.48192 0.29383 0.0
H1003 H 0.05086 0.48759 0.29272 0.0
H1004 H 0.05899 0.51903 0.29658 0.0
H1005 H 0.07767 0.50776 0.30554 0.0
H1006 H 0.12369 0.53195 0.27843 0.0
H1007 H 0.11817 0.53031 0.2976 0.0
H1008 H 0.11575 0.55279 0.28702 0.0
H1009 H 0.04073 0.4893 0.19639 0.0
H1010 H 0.03178 0.55434 0.19859 0.0
H1011 H 0.04072 0.56015 0.22511 0.0
H1012 H 0.08921 0.51234 0.21952 0.0
H1013 H 0.07037 0.48019 0.21191 0.0
H1014 H 0.08559 0.48849 0.23047 0.0
H1015 H 0.01143 0.46706 0.22562 0.0
H1016 H 0.02793 0.4574 0.23723 0.0
H1017 H 0.02839 0.45385 0.21739 0.0
H1018 H 0.07673 0.43165 0.25359 0.0
C1019 C 0.06955 0.46214 0.25292 0.0
C1020 C 0.37988 0.47978 0.27639 0.0
C1021 C 0.36135 0.45685 0.26882 0.0
C1022 C 0.36442 0.45021 0.25429 0.0
C1023 C 0.40402 0.48896 0.25525 0.0
C1024 C 0.40092 0.49538 0.26948 0.0
C1025 C 0.42211 0.52036 0.2761 0.0
H1026 H 0.5351 0.62063 0.2707 0.0
C1027 C 0.42808 0.50937 0.25139 0.0
C1028 C 0.43878 0.52769 0.26365 0.0
H1029 H 0.48698 0.60836 0.30568 0.0
H1030 H 0.45679 0.56837 0.29304 0.0
H1031 H 0.52323 0.56273 0.26321 0.0
H1032 H 0.4946 0.60774 0.24649 0.0
H1033 H 0.49004 0.58653 0.23133 0.0
H1034 H 0.52129 0.60834 0.23965 0.0
H1035 H 0.54017 0.58901 0.25292 0.0
H1036 H 0.52 0.55798 0.24369 0.0
C1037 C 0.43453 0.51621 0.29009 0.0
C1038 C 0.41182 0.53832 0.27906 0.0
C1039 C 0.45558 0.50734 0.19982 0.0
C1040 C 0.47646 0.52465 0.19321 0.0
C1041 C 0.49566 0.54582 0.20199 0.0
C1042 C 0.49381 0.55024 0.21699 0.0
C1043 C 0.47238 0.5335 0.22332 0.0
C1044 C 0.45385 0.51224 0.21487 0.0
C1045 C 0.43236 0.49682 0.22359 0.0
C1046 C 0.44072 0.51287 0.23843 0.0
C1047 C 0.46421 0.53425 0.23815 0.0
C1048 C 0.43082 0.47127 0.22488 0.0
C1049 C 0.40852 0.49488 0.21587 0.0
C1050 C 0.51808 0.60959 0.27571 0.0
C1051 C 0.51387 0.61804 0.28941 0.0
C1052 C 0.49133 0.60243 0.29539 0.0
C1053 C 0.47351 0.57919 0.28791 0.0
C1054 C 0.47787 0.57145 0.27412 0.0
C1055 C 0.49975 0.5867 0.26818 0.0
C1056 C 0.50022 0.57664 0.2528 0.0
C1057 C 0.47518 0.55253 0.25062 0.0
C1058 C 0.46238 0.54942 0.26321 0.0
C1059 C 0.52211 0.5714 0.25303 0.0
C1060 C 0.50177 0.59572 0.24195 0.0
H1061 H 0.38697 0.46002 0.23643 0.0
H1062 H 0.37792 0.48572 0.28744 0.0
H1063 H 0.39481 0.53282 0.27146 0.0
H1064 H 0.42506 0.55777 0.27694 0.0
H1065 H 0.4068 0.5383 0.29059 0.0
H1066 H 0.43644 0.49938 0.28795 0.0
H1067 H 0.42316 0.51324 0.29954 0.0
H1068 H 0.45359 0.53182 0.29354 0.0
H1069 H 0.44055 0.49092 0.1933 0.0
H1070 H 0.5121 0.55915 0.19718 0.0
H1071 H 0.50898 0.5668 0.22302 0.0
H1072 H 0.44974 0.47349 0.2259 0.0
H1073 H 0.42007 0.45791 0.21495 0.0
H1074 H 0.42253 0.46271 0.23491 0.0
H1075 H 0.41267 0.51314 0.21197 0.0
H1076 H 0.39378 0.49036 0.2233 0.0
H1077 H 0.40084 0.48062 0.20607 0.0
H1078 H 0.35051 0.43257 0.24824 0.0
C1079 C 0.38567 0.46611 0.24748 0.0
C1080 C 0.53252 0.02839 0.04277 0.0
Eu1081 Eu 0.51284 0.01363 0.01537 0.0
C1082 C 0.52423 0.02112 0.05741 0.0
C1083 C 0.53438 0.03916 0.06973 0.0
C1084 C 0.52652 0.03266 0.0837 0.0
C1085 C 0.50833 0.00795 0.08561 0.0
C1086 C 0.49806 0.98995 0.07317 0.0
C1087 C 0.50594 0.99648 0.05919 0.0
C1088 C 0.49655 0.03703 0.99763 0.0
C1089 C 0.45324 0.97195 0.01424 0.0
C1090 C 0.46441 0.96897 0.95844 0.0
Eu1091 Eu 0.48312 0.98319 0.98601 0.0
C1092 C 0.473 0.9792 0.94438 0.0
C1093 C 0.46539 0.96312 0.93123 0.0
C1094 C 0.47407 0.97263 0.91788 0.0
C1095 C 0.49055 0.99841 0.91748 0.0
C1096 C 0.49819 0.01443 0.93075 0.0
C1097 C 0.4895 0.00491 0.94406 0.0
C1098 C 0.49954 0.95992 0.00378 0.0
C1099 C 0.54243 0.02535 0.98715 0.0
O1100 O 0.53508 0.01214 0.03426 0.0
O1101 O 0.52179 0.03872 0.03555 0.0
O1102 O 0.51782 0.04856 0.00577 0.0
O1103 O 0.48447 0.01431 0.99986 0.0
O1104 O 0.47527 0.98469 0.02215 0.0
O1105 O 0.45086 0.97071 0.99963 0.0
O1106 O 0.45874 0.98223 0.96749 0.0
O1107 O 0.47737 0.96048 0.96525 0.0
O1108 O 0.47822 0.94831 0.99568 0.0
O1109 O 0.51155 0.98259 0.00145 0.0
O1110 O 0.52028 0.01322 0.97937 0.0
O1111 O 0.54497 0.02568 0.0017 0.0
H1112 H 0.54836 0.05831 0.06853 0.0
H1113 H 0.53455 0.04707 0.09299 0.0
H1114 H 0.48424 0.97071 0.07426 0.0
H1115 H 0.49784 0.98226 0.0498 0.0
H1116 H 0.45275 0.94321 0.93129 0.0
H1117 H 0.46757 0.95983 0.90785 0.0
H1118 H 0.51113 0.03431 0.93088 0.0
H1119 H 0.49577 0.01765 0.95413 0.0
C1120 C 0.99459 0.52634 0.03994 0.0
Eu1121 Eu 0.99411 0.50711 0.01355 0.0
C1122 C 0.00096 0.52476 0.05546 0.0
C1123 C 0.0038 0.50482 0.0597 0.0
C1124 C 0.00947 0.5036 0.07465 0.0
C1125 C 0.01258 0.52242 0.08549 0.0
C1126 C 0.00985 0.54239 0.08109 0.0
C1127 C 0.00409 0.54352 0.0662 0.0
C1128 C 0.96323 0.45966 0.00119 0.0
C1129 C 0.03245 0.48538 0.01284 0.0
C1130 C 0.00915 0.47732 0.95734 0.0
Eu1131 Eu 0.00797 0.49432 0.98397 0.0
C1132 C 0.00591 0.48207 0.94192 0.0
C1133 C 0.02455 0.48624 0.93264 0.0
C1134 C 0.02142 0.48947 0.91775 0.0
C1135 C 0.99945 0.48834 0.91186 0.0
C1136 C 0.98103 0.48476 0.92125 0.0
C1137 C 0.98428 0.48178 0.93618 0.0
C1138 C 0.03875 0.54153 0.99677 0.0
C1139 C 0.96857 0.51473 0.98437 0.0
O1140 O 0.01321 0.5366 0.03185 0.0
O1141 O 0.97511 0.5065 0.03298 0.0
O1142 O 0.95587 0.47244 0.00908 0.0
O1143 O 0.98656 0.47158 0.00119 0.0
O1144 O 0.02508 0.49901 0.02049 0.0
O1145 O 0.02457 0.47753 0.9987 0.0
O1146 O 0.9893 0.46745 0.96451 0.0
O1147 O 0.029 0.49478 0.96552 0.0
O1148 O 0.04637 0.52851 0.98937 0.0
O1149 O 0.01537 0.52976 0.99628 0.0
O1150 O 0.9777 0.50288 0.97668 0.0
O1151 O 0.97457 0.52125 0.99877 0.0
H1152 H 0.00157 0.49024 0.05147 0.0
H1153 H 0.01167 0.48812 0.07771 0.0
H1154 H 0.01177 0.55697 0.0892 0.0
H1155 H 0.00191 0.559 0.06308 0.0
H1156 H 0.04136 0.48653 0.93685 0.0
H1157 H 0.03579 0.49194 0.91073 0.0
H1158 H 0.96402 0.48403 0.91699 0.0
H1159 H 0.9697 0.47886 0.94314 0.0
C1160 C 0.46491 0.47762 0.95955 0.0
Eu1161 Eu 0.48464 0.49353 0.98688 0.0
C1162 C 0.474 0.47904 0.9448 0.0
C1163 C 0.46341 0.48571 0.93316 0.0
C1164 C 0.47155 0.48696 0.91905 0.0
C1165 C 0.49036 0.48138 0.91631 0.0
C1166 C 0.50116 0.47497 0.92804 0.0
C1167 C 0.49314 0.47391 0.94217 0.0
C1168 C 0.50054 0.53956 0.0006 0.0
C1169 C 0.5451 0.51588 0.98846 0.0
C1170 C 0.5352 0.52117 0.04402 0.0
Eu1171 Eu 0.51538 0.50554 0.0167 0.0
C1172 C 0.52597 0.51897 0.05874 0.0
C1173 C 0.53681 0.51224 0.07022 0.0
C1174 C 0.52839 0.51012 0.08428 0.0
C1175 C 0.50905 0.51483 0.08712 0.0
C1176 C 0.49802 0.52129 0.07554 0.0
C1177 C 0.50634 0.52327 0.06147 0.0
C1178 C 0.49912 0.45935 0.00297 0.0
C1179 C 0.45505 0.48351 0.01529 0.0
O1180 O 0.46899 0.46399 0.96853 0.0
O1181 O 0.46858 0.49863 0.96628 0.0
O1182 O 0.47889 0.52611 0.99303 0.0
O1183 O 0.51313 0.52877 0.99998 0.0
O1184 O 0.52305 0.50251 0.98062 0.0
O1185 O 0.5472 0.52255 0.00278 0.0
O1186 O 0.53057 0.5347 0.03524 0.0
O1187 O 0.53213 0.50055 0.03706 0.0
O1188 O 0.52084 0.47273 0.01046 0.0
O1189 O 0.48676 0.47035 0.00368 0.0
O1190 O 0.47718 0.49665 0.02304 0.0
O1191 O 0.4527 0.47698 0.00092 0.0
H1192 H 0.44866 0.48978 0.93495 0.0
H1193 H 0.4627 0.4917 0.91021 0.0
H1194 H 0.51588 0.47085 0.9263 0.0
H1195 H 0.50185 0.46898 0.951 0.0
H1196 H 0.55192 0.50879 0.06833 0.0
H1197 H 0.53744 0.50538 0.09301 0.0
H1198 H 0.4829 0.52475 0.07736 0.0
H1199 H 0.49748 0.52826 0.05277 0.0
C1200 C 0.19894 0.36019 0.3759 0.0
Eu1201 Eu 0.17905 0.34546 0.34855 0.0
C1202 C 0.19039 0.35301 0.39051 0.0
C1203 C 0.20019 0.37114 0.40278 0.0
C1204 C 0.19182 0.36476 0.41667 0.0
C1205 C 0.17345 0.3401 0.41852 0.0
C1206 C 0.16361 0.322 0.40613 0.0
C1207 C 0.17201 0.32839 0.39225 0.0
C1208 C 0.1625 0.3689 0.33103 0.0
C1209 C 0.11951 0.30374 0.34772 0.0
C1210 C 0.12977 0.30081 0.29183 0.0
Eu1211 Eu 0.14893 0.31509 0.31931 0.0
C1212 C 0.13817 0.31085 0.2777 0.0
C1213 C 0.13021 0.29465 0.26459 0.0
C1214 C 0.13866 0.30397 0.25116 0.0
C1215 C 0.15524 0.3297 0.25066 0.0
C1216 C 0.16327 0.34584 0.26389 0.0
C1217 C 0.15482 0.3365 0.27728 0.0
C1218 C 0.16542 0.29168 0.33689 0.0
C1219 C 0.20826 0.35702 0.32019 0.0
O1220 O 0.20116 0.34369 0.36741 0.0
O1221 O 0.18861 0.37086 0.36866 0.0
O1222 O 0.18392 0.38039 0.33901 0.0
O1223 O 0.15044 0.34619 0.33327 0.0
O1224 O 0.14163 0.31658 0.35552 0.0
O1225 O 0.11689 0.30252 0.33311 0.0
O1226 O 0.12443 0.3143 0.30092 0.0
O1227 O 0.14266 0.29219 0.29855 0.0
O1228 O 0.144 0.28016 0.3289 0.0
O1229 O 0.17749 0.31434 0.33456 0.0
O1230 O 0.18602 0.345 0.31251 0.0
O1231 O 0.21097 0.35732 0.33473 0.0
H1232 H 0.21423 0.39028 0.4016 0.0
H1233 H 0.19954 0.37924 0.42592 0.0
H1234 H 0.14968 0.30278 0.4072 0.0
H1235 H 0.16417 0.3141 0.3829 0.0
H1236 H 0.11745 0.27478 0.26473 0.0
H1237 H 0.13189 0.29109 0.24115 0.0
H1238 H 0.1763 0.36568 0.26392 0.0
H1239 H 0.16136 0.34933 0.28731 0.0
C1240 C 0.66177 0.86097 0.3751 0.0
Eu1241 Eu 0.66011 0.83992 0.34903 0.0
C1242 C 0.66466 0.85783 0.39079 0.0
C1243 C 0.66667 0.83755 0.39527 0.0
C1244 C 0.66977 0.83526 0.41038 0.0
C1245 C 0.67107 0.85332 0.42114 0.0
C1246 C 0.66879 0.87341 0.41649 0.0
C1247 C 0.66563 0.87563 0.40146 0.0
C1248 C 0.62939 0.7914 0.33835 0.0
C1249 C 0.69891 0.81891 0.34825 0.0
C1250 C 0.67101 0.80455 0.29299 0.0
Eu1251 Eu 0.67191 0.82464 0.3192 0.0
C1252 C 0.67008 0.80988 0.27756 0.0
C1253 C 0.66688 0.82982 0.27382 0.0
C1254 C 0.66633 0.83476 0.25902 0.0
C1255 C 0.66906 0.81985 0.2478 0.0
C1256 C 0.67223 0.79988 0.2517 0.0
C1257 C 0.67275 0.79498 0.26646 0.0
C1258 C 0.70236 0.87328 0.33001 0.0
C1259 C 0.63278 0.84511 0.31971 0.0
O1260 O 0.68137 0.8675 0.36792 0.0
O1261 O 0.64106 0.84391 0.36743 0.0
O1262 O 0.62236 0.80428 0.34641 0.0
O1263 O 0.65247 0.80378 0.33753 0.0
O1264 O 0.69207 0.83319 0.35568 0.0
O1265 O 0.68972 0.80948 0.33441 0.0
O1266 O 0.65098 0.79861 0.29964 0.0
O1267 O 0.69158 0.82002 0.30137 0.0
O1268 O 0.70966 0.86051 0.32209 0.0
O1269 O 0.67928 0.86066 0.33064 0.0
O1270 O 0.63996 0.83102 0.31244 0.0
O1271 O 0.64139 0.85431 0.33368 0.0
H1272 H 0.666 0.82367 0.38711 0.0
H1273 H 0.67165 0.81968 0.41363 0.0
H1274 H 0.66931 0.8874 0.42451 0.0
H1275 H 0.66401 0.89133 0.39815 0.0
H1276 H 0.66488 0.84156 0.28233 0.0
H1277 H 0.66406 0.85038 0.2564 0.0
H1278 H 0.67393 0.78777 0.24332 0.0
H1279 H 0.67519 0.77949 0.26921 0.0
C1280 C 0.13014 0.80734 0.29327 0.0
Eu1281 Eu 0.15095 0.8239 0.32035 0.0
C1282 C 0.13764 0.81158 0.27812 0.0
C1283 C 0.12442 0.81798 0.26796 0.0
C1284 C 0.13068 0.82145 0.25344 0.0
C1285 C 0.15023 0.81838 0.2487 0.0
C1286 C 0.16375 0.81237 0.259 0.0
C1287 C 0.15756 0.80906 0.27357 0.0
C1288 C 0.16888 0.87081 0.33347 0.0
C1289 C 0.21128 0.84518 0.32142 0.0
C1290 C 0.20211 0.84992 0.37725 0.0
Eu1291 Eu 0.18196 0.83535 0.34993 0.0
C1292 C 0.19283 0.84961 0.39182 0.0
C1293 C 0.20223 0.84244 0.40379 0.0
C1294 C 0.19346 0.84177 0.41766 0.0
C1295 C 0.17517 0.84836 0.41981 0.0
C1296 C 0.16564 0.85536 0.40775 0.0
C1297 C 0.17435 0.85593 0.39387 0.0
C1298 C 0.16433 0.7889 0.33619 0.0
C1299 C 0.12239 0.81536 0.34907 0.0
O1300 O 0.13895 0.79605 0.30129 0.0
O1301 O 0.1299 0.82583 0.3009 0.0
O1302 O 0.14738 0.85808 0.32568 0.0
O1303 O 0.1805 0.859 0.33317 0.0
O1304 O 0.18913 0.83305 0.31359 0.0
O1305 O 0.21373 0.85104 0.33587 0.0
O1306 O 0.20029 0.86478 0.36826 0.0
O1307 O 0.19604 0.82809 0.37051 0.0
O1308 O 0.18636 0.80202 0.34335 0.0
O1309 O 0.15243 0.80037 0.3371 0.0
O1310 O 0.14474 0.82915 0.35643 0.0
O1311 O 0.11962 0.80752 0.33487 0.0
H1312 H 0.10909 0.82017 0.27125 0.0
H1313 H 0.12015 0.82651 0.24592 0.0
H1314 H 0.17871 0.80957 0.25573 0.0
H1315 H 0.16817 0.80421 0.28117 0.0
H1316 H 0.21644 0.83743 0.40242 0.0
H1317 H 0.20136 0.83658 0.42678 0.0
H1318 H 0.15133 0.86024 0.40901 0.0
H1319 H 0.16661 0.86131 0.38477 0.0
C1320 C 0.86346 0.6941 0.70844 0.0
Eu1321 Eu 0.84488 0.67783 0.68096 0.0
C1322 C 0.85467 0.68671 0.72297 0.0
C1323 C 0.86496 0.70441 0.73544 0.0
C1324 C 0.85665 0.69769 0.7493 0.0
C1325 C 0.83784 0.67309 0.75092 0.0
C1326 C 0.82741 0.65545 0.73831 0.0
C1327 C 0.83577 0.6622 0.72446 0.0
C1328 C 0.82715 0.6986 0.66205 0.0
C1329 C 0.78622 0.63352 0.67985 0.0
C1330 C 0.79989 0.62757 0.62452 0.0
Eu1331 Eu 0.81721 0.64479 0.65208 0.0
C1332 C 0.80745 0.63795 0.61037 0.0
C1333 C 0.80053 0.62191 0.59726 0.0
C1334 C 0.80826 0.63169 0.58382 0.0
C1335 C 0.82309 0.65771 0.58331 0.0
C1336 C 0.83007 0.67368 0.59655 0.0
C1337 C 0.82232 0.6639 0.60994 0.0
C1338 C 0.83523 0.62466 0.67125 0.0
C1339 C 0.87527 0.69007 0.65313 0.0
O1340 O 0.86741 0.6784 0.70039 0.0
O1341 O 0.852 0.70321 0.70071 0.0
O1342 O 0.84779 0.71134 0.67072 0.0
O1343 O 0.81596 0.67587 0.66446 0.0
O1344 O 0.80772 0.64868 0.68783 0.0
O1345 O 0.78421 0.63027 0.66523 0.0
O1346 O 0.79109 0.63849 0.63304 0.0
O1347 O 0.81554 0.62286 0.63188 0.0
O1348 O 0.8142 0.61169 0.66299 0.0
O1349 O 0.84628 0.64709 0.66838 0.0
O1350 O 0.85348 0.67588 0.6452 0.0
O1351 O 0.87762 0.69189 0.66773 0.0
H1352 H 0.87943 0.72346 0.73445 0.0
H1353 H 0.86483 0.71182 0.75873 0.0
H1354 H 0.81313 0.6363 0.73918 0.0
H1355 H 0.82757 0.64823 0.71496 0.0
H1356 H 0.78914 0.60182 0.59741 0.0
H1357 H 0.80232 0.61889 0.57381 0.0
H1358 H 0.84175 0.69376 0.59659 0.0
H1359 H 0.828 0.67661 0.61998 0.0
C1360 C 0.32346 0.19109 0.70677 0.0
Eu1361 Eu 0.32444 0.17177 0.68073 0.0
C1362 C 0.32793 0.18874 0.72243 0.0
C1363 C 0.33308 0.17028 0.72678 0.0
C1364 C 0.33799 0.16894 0.74182 0.0
C1365 C 0.33799 0.18617 0.75266 0.0
C1366 C 0.33252 0.2044 0.74816 0.0
C1367 C 0.32755 0.20566 0.73318 0.0
C1368 C 0.29589 0.12359 0.66911 0.0
C1369 C 0.36606 0.15426 0.68083 0.0
C1370 C 0.34109 0.1407 0.62523 0.0
Eu1371 Eu 0.33919 0.15904 0.65134 0.0
C1372 C 0.33984 0.14531 0.60955 0.0
C1373 C 0.36066 0.15165 0.60177 0.0
C1374 C 0.3599 0.15538 0.5868 0.0
C1375 C 0.33815 0.15259 0.57922 0.0
C1376 C 0.31735 0.14649 0.58709 0.0
C1377 C 0.3182 0.14292 0.60211 0.0
C1378 C 0.36693 0.2077 0.66272 0.0
C1379 C 0.29743 0.17632 0.65107 0.0
O1380 O 0.34307 0.20048 0.69941 0.0
O1381 O 0.30392 0.17204 0.69926 0.0
O1382 O 0.28745 0.13571 0.67664 0.0
O1383 O 0.31915 0.13661 0.66906 0.0
O1384 O 0.35675 0.16619 0.68829 0.0
O1385 O 0.35898 0.14607 0.66667 0.0
O1386 O 0.3206 0.13207 0.63181 0.0
O1387 O 0.36081 0.15758 0.63375 0.0
O1388 O 0.37576 0.19615 0.65503 0.0
O1389 O 0.34386 0.19389 0.66286 0.0
O1390 O 0.30639 0.16382 0.64383 0.0
O1391 O 0.30476 0.18486 0.66522 0.0
H1392 H 0.33352 0.15712 0.71854 0.0
H1393 H 0.34232 0.15482 0.74496 0.0
H1394 H 0.33199 0.21768 0.75625 0.0
H1395 H 0.32356 0.21998 0.72997 0.0
H1396 H 0.37757 0.1536 0.60726 0.0
H1397 H 0.37639 0.16047 0.58118 0.0
H1398 H 0.30019 0.14386 0.58156 0.0
H1399 H 0.30182 0.13802 0.60782 0.0
C1400 C 0.79258 0.13851 0.62439 0.0
Eu1401 Eu 0.81366 0.15662 0.65134 0.0
C1402 C 0.79961 0.14331 0.60929 0.0
C1403 C 0.82347 0.16227 0.60681 0.0
C1404 C 0.83007 0.16616 0.59234 0.0
C1405 C 0.81288 0.15118 0.58013 0.0
C1406 C 0.78895 0.13228 0.58275 0.0
C1407 C 0.78241 0.12841 0.5972 0.0
C1408 C 0.83202 0.20421 0.66343 0.0
C1409 C 0.87401 0.17786 0.65264 0.0
C1410 C 0.8654 0.18771 0.70827 0.0
Eu1411 Eu 0.84496 0.17008 0.68122 0.0
C1412 C 0.85658 0.18608 0.7231 0.0
C1413 C 0.86761 0.17962 0.73462 0.0
C1414 C 0.85956 0.17798 0.74876 0.0
C1415 C 0.84038 0.18292 0.75166 0.0
C1416 C 0.82918 0.18916 0.74006 0.0
C1417 C 0.83715 0.19067 0.7259 0.0
C1418 C 0.82687 0.12265 0.6689 0.0
C1419 C 0.785 0.14868 0.68013 0.0
O1420 O 0.80395 0.12937 0.6322 0.0
O1421 O 0.79077 0.15603 0.63204 0.0
O1422 O 0.81046 0.19129 0.65572 0.0
O1423 O 0.84339 0.19217 0.66352 0.0
O1424 O 0.85184 0.16516 0.64486 0.0
O1425 O 0.87649 0.18487 0.66695 0.0
O1426 O 0.85985 0.20024 0.69916 0.0
O1427 O 0.86293 0.16708 0.70173 0.0
O1428 O 0.84851 0.13566 0.67654 0.0
O1429 O 0.81535 0.13454 0.66895 0.0
O1430 O 0.80729 0.16291 0.68752 0.0
O1431 O 0.78243 0.14041 0.66601 0.0
H1432 H 0.83698 0.17398 0.61606 0.0
H1433 H 0.84856 0.181 0.59072 0.0
H1434 H 0.77539 0.12012 0.57365 0.0
H1435 H 0.76396 0.1136 0.59894 0.0
H1436 H 0.8826 0.17598 0.73269 0.0
H1437 H 0.86874 0.17341 0.75751 0.0
H1438 H 0.81417 0.19279 0.74191 0.0
H1439 H 0.82815 0.1955 0.71719 0.0
H1440 H 0.34988 0.90403 0.07986 0.0
H1441 H 0.4044 0.94596 0.00235 0.0
H1442 H 0.30411 0.88791 0.03857 0.0
H1443 H 0.45049 0.96812 0.04409 0.0
H1444 H 0.36748 0.92462 0.01554 0.0
H1445 H 0.38699 0.92824 0.06716 0.0
C1446 C 0.3476 0.9058 0.06817 0.0
C1447 C 0.32382 0.89374 0.06026 0.0
C1448 C 0.38567 0.93419 0.02182 0.0
C1449 C 0.36624 0.92112 0.0456 0.0
C1450 C 0.4068 0.94634 0.01428 0.0
C1451 C 0.43065 0.95883 0.02209 0.0
C1452 C 0.38834 0.93439 0.0373 0.0
C1453 C 0.43252 0.95872 0.03758 0.0
C1454 C 0.36881 0.91949 0.0609 0.0
C1455 C 0.32206 0.89647 0.04507 0.0
N1456 N 0.41166 0.94665 0.04466 0.0
N1457 N 0.34296 0.90974 0.03824 0.0
H1458 H 0.13401 0.46832 0.07424 0.0
H1459 H 0.05093 0.45753 0.00048 0.0
H1460 H 0.13358 0.43236 0.03193 0.0
H1461 H 0.05291 0.49689 0.04192 0.0
H1462 H 0.07998 0.44684 0.0123 0.0
H1463 H 0.10312 0.4776 0.06308 0.0
C1464 C 0.12732 0.46226 0.06262 0.0
C1465 C 0.13644 0.4496 0.05399 0.0
C1466 C 0.07407 0.45779 0.01884 0.0
C1467 C 0.10126 0.4603 0.04114 0.0
C1468 C 0.05741 0.4639 0.0121 0.0
C1469 C 0.04948 0.47822 0.0202 0.0
C1470 C 0.08298 0.46602 0.03384 0.0
C1471 C 0.05856 0.48587 0.03523 0.0
C1472 C 0.10979 0.46767 0.05625 0.0
C1473 C 0.12735 0.44247 0.03895 0.0
N1474 N 0.07488 0.47971 0.04157 0.0
N1475 N 0.11028 0.44792 0.03302 0.0
H1476 H 0.59302 0.68941 0.04501 0.0
H1477 H 0.47606 0.56572 0.00227 0.0
H1478 H 0.52307 0.68398 0.03035 0.0
H1479 H 0.54706 0.57175 0.01449 0.0
H1480 H 0.49275 0.60878 0.01322 0.0
H1481 H 0.57634 0.646 0.0346 0.0
C1482 C 0.57415 0.67908 0.03963 0.0
C1483 C 0.55945 0.69037 0.03849 0.0
C1484 C 0.5047 0.60071 0.01353 0.0
C1485 C 0.54028 0.64078 0.02653 0.0
C1486 C 0.49517 0.57614 0.0073 0.0
C1487 C 0.51024 0.56526 0.0075 0.0
C1488 C 0.5295 0.61449 0.02002 0.0
C1489 C 0.53483 0.5795 0.01416 0.0
C1490 C 0.56467 0.65434 0.03364 0.0
C1491 C 0.53521 0.67617 0.03127 0.0
N1492 N 0.54373 0.60342 0.02015 0.0
N1493 N 0.52639 0.65214 0.02559 0.0
H1494 H 0.85502 0.30154 0.98392 0.0
H1495 H 0.97453 0.43203 0.98194 0.0
H1496 H 0.87872 0.32806 0.94152 0.0
H1497 H 0.9152 0.42767 0.00623 0.0
H1498 H 0.94627 0.38911 0.97044 0.0
H1499 H 0.88373 0.34372 0.99586 0.0
C1500 C 0.86605 0.316 0.97704 0.0
C1501 C 0.86406 0.31087 0.96155 0.0
C1502 C 0.9396 0.39767 0.97832 0.0
C1503 C 0.89782 0.35884 0.97541 0.0
C1504 C 0.95557 0.42208 0.98481 0.0
C1505 C 0.94695 0.43351 0.99477 0.0
C1506 C 0.91523 0.38441 0.98229 0.0
C1507 C 0.92243 0.41957 0.99845 0.0
C1508 C 0.88257 0.34001 0.98394 0.0
C1509 C 0.87973 0.33058 0.95346 0.0
N1510 N 0.9074 0.39558 0.99228 0.0
N1511 N 0.89606 0.35361 0.9605 0.0
H1512 H 0.65277 0.53963 0.92556 0.0
H1513 H 0.59346 0.54435 0.00071 0.0
H1514 H 0.69576 0.57628 0.96765 0.0
H1515 H 0.54915 0.50651 0.95908 0.0
H1516 H 0.63108 0.55771 0.98833 0.0
H1517 H 0.61463 0.52935 0.9371 0.0
C1518 C 0.65421 0.54576 0.93718 0.0
C1519 C 0.67748 0.55866 0.94569 0.0
C1520 C 0.61315 0.54652 0.98187 0.0
C1521 C 0.63395 0.54673 0.95898 0.0
C1522 C 0.59159 0.53883 0.98895 0.0
C1523 C 0.56804 0.52417 0.98095 0.0
C1524 C 0.61126 0.53951 0.96665 0.0
C1525 C 0.56689 0.51772 0.96572 0.0
C1526 C 0.63243 0.53973 0.94378 0.0
C1527 C 0.67821 0.56593 0.96073 0.0
N1528 N 0.58821 0.52538 0.95907 0.0
N1529 N 0.6568 0.55978 0.96689 0.0
H1530 H 0.47446 0.1465 0.95587 0.0
H1531 H 0.45059 0.0163 0.98213 0.0
H1532 H 0.4081 0.07598 0.94097 0.0
H1533 H 0.52071 0.08549 0.99127 0.0
H1534 H 0.4347 0.03736 0.96669 0.0
H1535 H 0.49176 0.12418 0.96866 0.0
C1536 C 0.46354 0.12627 0.9553 0.0
C1537 C 0.43972 0.11305 0.94748 0.0
C1538 C 0.45362 0.04789 0.97198 0.0
C1539 C 0.45943 0.08733 0.96208 0.0
C1540 C 0.4627 0.03588 0.98077 0.0
C1541 C 0.48698 0.04922 0.98795 0.0
C1542 C 0.46889 0.07349 0.97051 0.0
C1543 C 0.50183 0.07458 0.98596 0.0
C1544 C 0.47347 0.11352 0.96254 0.0
C1545 C 0.42655 0.08684 0.94687 0.0
N1546 N 0.4925 0.08594 0.97749 0.0
N1547 N 0.4365 0.07482 0.95419 0.0
H1548 H 0.64456 0.09664 0.92148 0.0
H1549 H 0.59136 0.05136 0.99887 0.0
H1550 H 0.69087 0.11398 0.96268 0.0
H1551 H 0.54475 0.03058 0.95743 0.0
H1552 H 0.62803 0.07398 0.98566 0.0
H1553 H 0.60779 0.07146 0.93423 0.0
C1554 C 0.64704 0.09497 0.93317 0.0
C1555 C 0.67086 0.10759 0.94103 0.0
C1556 C 0.60978 0.06444 0.97944 0.0
C1557 C 0.62881 0.07906 0.95574 0.0
C1558 C 0.5888 0.05153 0.987 0.0
C1559 C 0.56488 0.03907 0.97928 0.0
C1560 C 0.60689 0.06498 0.96404 0.0
C1561 C 0.56279 0.03993 0.96387 0.0
C1562 C 0.62602 0.08071 0.94046 0.0
C1563 C 0.67286 0.10496 0.95622 0.0
N1564 N 0.58351 0.0527 0.95677 0.0
N1565 N 0.65215 0.09108 0.96307 0.0
H1566 H 0.84327 0.52844 0.95214 0.0
H1567 H 0.96792 0.52471 0.95557 0.0
H1568 H 0.90419 0.57841 0.92834 0.0
H1569 H 0.9316 0.52071 0.99516 0.0
H1570 H 0.9403 0.5367 0.94263 0.0
H1571 H 0.87144 0.5181 0.96565 0.0
C1572 C 0.86251 0.53748 0.94978 0.0
C1573 C 0.8712 0.5545 0.93901 0.0
C1574 C 0.93848 0.53322 0.95416 0.0
C1575 C 0.90318 0.54173 0.95411 0.0
C1576 C 0.95408 0.52628 0.96151 0.0
C1577 C 0.95203 0.52182 0.97645 0.0
C1578 C 0.92031 0.535 0.9617 0.0
C1579 C 0.93386 0.52417 0.98366 0.0
C1580 C 0.8785 0.53135 0.95746 0.0
C1581 C 0.89631 0.56483 0.93625 0.0
N1582 N 0.91846 0.53036 0.97616 0.0
N1583 N 0.91134 0.5581 0.94365 0.0
H1584 H 0.40396 0.30898 0.96007 0.0
H1585 H 0.52233 0.43188 0.00228 0.0
H1586 H 0.47197 0.31193 0.97656 0.0
H1587 H 0.45227 0.42748 0.98947 0.0
H1588 H 0.50436 0.38806 0.9924 0.0
H1589 H 0.42136 0.35252 0.97041 0.0
C1590 C 0.42252 0.31877 0.9659 0.0
C1591 C 0.43652 0.3068 0.96748 0.0
C1592 C 0.4929 0.39666 0.99174 0.0
C1593 C 0.45655 0.35658 0.97931 0.0
C1594 C 0.50318 0.42167 0.99735 0.0
C1595 C 0.48874 0.43323 0.99666 0.0
C1596 C 0.46803 0.38317 0.98537 0.0
C1597 C 0.46403 0.41922 0.99016 0.0
C1598 C 0.43241 0.34359 0.97184 0.0
C1599 C 0.46037 0.3203 0.97526 0.0
N1600 N 0.45443 0.3949 0.98476 0.0
N1601 N 0.46967 0.34448 0.98083 0.0
H1602 H 0.10039 0.68756 0.04629 0.0
H1603 H 0.08936 0.56818 0.99916 0.0
H1604 H 0.16328 0.68356 0.03182 0.0
H1605 H 0.02553 0.57277 0.01103 0.0
H1606 H 0.11667 0.61038 0.01146 0.0
H1607 H 0.07254 0.64535 0.03394 0.0
C1608 C 0.10834 0.67779 0.04055 0.0
C1609 C 0.13421 0.68915 0.04005 0.0
C1610 C 0.0967 0.60221 0.01139 0.0
C1611 C 0.10247 0.64094 0.02585 0.0
C1612 C 0.08112 0.57812 0.00436 0.0
C1613 C 0.05521 0.56703 0.00412 0.0
C1614 C 0.0863 0.61532 0.01825 0.0
C1615 C 0.04546 0.58068 0.01103 0.0
C1616 C 0.09243 0.65376 0.03344 0.0
C1617 C 0.14345 0.67572 0.03231 0.0
N1618 N 0.06103 0.60414 0.01784 0.0
N1619 N 0.12762 0.65235 0.02555 0.0
H1620 H 0.35333 0.45398 0.0824 0.0
H1621 H 0.40595 0.45667 0.00369 0.0
H1622 H 0.3063 0.42154 0.04108 0.0
H1623 H 0.45263 0.49097 0.04502 0.0
H1624 H 0.36916 0.44254 0.01721 0.0
H1625 H 0.38987 0.46601 0.06896 0.0
C1626 C 0.35065 0.44914 0.07052 0.0
C1627 C 0.32668 0.43678 0.06286 0.0
C1628 C 0.38747 0.45317 0.02331 0.0
C1629 C 0.36852 0.45085 0.04734 0.0
C1630 C 0.4085 0.46128 0.01559 0.0
C1631 C 0.43248 0.47511 0.0232 0.0
C1632 C 0.3904 0.45889 0.03876 0.0
C1633 C 0.43458 0.48045 0.03865 0.0
C1634 C 0.37155 0.4562 0.06283 0.0
C1635 C 0.32443 0.43135 0.04742 0.0
N1636 N 0.41385 0.47234 0.04589 0.0
N1637 N 0.34506 0.43846 0.04017 0.0
H1638 H 0.59411 0.92483 0.05886 0.0
H1639 H 0.47539 0.9117 0.01055 0.0
H1640 H 0.52583 0.85474 0.0465 0.0
H1641 H 0.54616 0.98044 0.01837 0.0
H1642 H 0.49254 0.8913 0.02559 0.0
H1643 H 0.57576 0.94649 0.04609 0.0
C1644 C 0.5752 0.91405 0.05356 0.0
C1645 C 0.56154 0.88794 0.05362 0.0
C1646 C 0.50431 0.91088 0.02408 0.0
C1647 C 0.5405 0.91248 0.03896 0.0
C1648 C 0.49452 0.9225 0.0155 0.0
C1649 C 0.50942 0.94773 0.01324 0.0
C1650 C 0.52919 0.92463 0.03043 0.0
C1651 C 0.53404 0.96095 0.01992 0.0
C1652 C 0.56479 0.92637 0.04621 0.0
C1653 C 0.53718 0.87484 0.0465 0.0
N1654 N 0.54321 0.94922 0.0282 0.0
N1655 N 0.52747 0.88724 0.03944 0.0
H1656 H 0.0176 0.23494 0.41395 0.0
H1657 H 0.07065 0.27628 0.33599 0.0
H1658 H 0.97141 0.21474 0.37242 0.0
H1659 H 0.11722 0.30054 0.37763 0.0
H1660 H 0.03408 0.25399 0.34931 0.0
H1661 H 0.05433 0.25992 0.40108 0.0
C1662 C 0.01515 0.23593 0.40216 0.0
C1663 C 0.99139 0.22255 0.39424 0.0
C1664 C 0.0523 0.26423 0.35555 0.0
C1665 C 0.03334 0.25084 0.37941 0.0
C1666 C 0.07323 0.27695 0.34793 0.0
C1667 C 0.09711 0.29028 0.35567 0.0
C1668 C 0.0552 0.26473 0.37104 0.0
C1669 C 0.09922 0.29048 0.37117 0.0
C1670 C 0.03613 0.25006 0.3948 0.0
C1671 C 0.98938 0.22434 0.37894 0.0
N1672 N 0.07855 0.27786 0.37834 0.0
N1673 N 0.01005 0.23811 0.37204 0.0
H1674 H 0.80121 0.76537 0.36561 0.0
H1675 H 0.7203 0.83195 0.37713 0.0
H1676 H 0.80178 0.80224 0.40762 0.0
H1677 H 0.71779 0.79127 0.33612 0.0
H1678 H 0.75011 0.82152 0.38866 0.0
H1679 H 0.77072 0.77515 0.35469 0.0
C1680 C 0.795 0.77564 0.37252 0.0
C1681 C 0.80413 0.78309 0.38753 0.0
C1682 C 0.74296 0.81485 0.37715 0.0
C1683 C 0.76898 0.79419 0.37513 0.0
C1684 C 0.72596 0.82081 0.37056 0.0
C1685 C 0.71653 0.8125 0.35563 0.0
C1686 C 0.75062 0.80056 0.36872 0.0
C1687 C 0.72451 0.7981 0.34766 0.0
C1688 C 0.77746 0.7811 0.36631 0.0
C1689 C 0.79506 0.79596 0.39603 0.0
N1690 N 0.7411 0.79265 0.35429 0.0
N1691 N 0.77804 0.80118 0.3897 0.0
H1692 H 0.22251 0.02939 0.34658 0.0
H1693 H 0.21258 0.89947 0.35118 0.0
H1694 H 0.2311 0.00732 0.38984 0.0
H1695 H 0.15094 0.90237 0.32902 0.0
H1696 H 0.23002 0.94308 0.36174 0.0
H1697 H 0.20616 0.98624 0.336 0.0
C1698 C 0.22099 0.01569 0.35392 0.0
C1699 C 0.22806 0.02231 0.36927 0.0
C1700 C 0.21267 0.93402 0.35457 0.0
C1701 C 0.21051 0.97321 0.35692 0.0
C1702 C 0.20264 0.9092 0.34864 0.0
C1703 C 0.18 0.89718 0.33953 0.0
C1704 C 0.20044 0.94707 0.35085 0.0
C1705 C 0.16829 0.91091 0.33615 0.0
C1706 C 0.21184 0.99113 0.34779 0.0
C1707 C 0.22642 0.00356 0.37797 0.0
N1708 N 0.17878 0.93528 0.34172 0.0
N1709 N 0.21796 0.9799 0.37166 0.0
H1710 H 0.5463 0.66064 0.27694 0.0
H1711 H 0.5822 0.75887 0.34458 0.0
H1712 H 0.52365 0.63399 0.31946 0.0
H1713 H 0.63972 0.7643 0.31813 0.0
H1714 H 0.55485 0.71555 0.33334 0.0
H1715 H 0.57582 0.70178 0.28961 0.0
C1716 C 0.54758 0.6631 0.2889 0.0
C1717 C 0.53228 0.64335 0.29705 0.0
C1718 C 0.5735 0.72633 0.33007 0.0
C1719 C 0.56538 0.69108 0.31145 0.0
C1720 C 0.58902 0.75096 0.33639 0.0
C1721 C 0.61308 0.76518 0.3321 0.0
C1722 C 0.58194 0.71628 0.31913 0.0
C1723 C 0.62114 0.75406 0.32154 0.0
C1724 C 0.56436 0.68676 0.29608 0.0
C1725 C 0.53449 0.64849 0.31256 0.0
N1726 N 0.60543 0.73033 0.3152 0.0
N1727 N 0.55049 0.67194 0.31924 0.0
H1728 H 0.36366 0.90762 0.30153 0.0
H1729 H 0.21457 0.83743 0.29172 0.0
H1730 H 0.31979 0.87139 0.25963 0.0
H1731 H 0.25986 0.87179 0.33348 0.0
H1732 H 0.25256 0.85134 0.27938 0.0
H1733 H 0.32556 0.89671 0.31297 0.0
C1734 C 0.34596 0.89737 0.29473 0.0
C1735 C 0.34488 0.89016 0.27964 0.0
C1736 C 0.25414 0.85585 0.29124 0.0
C1737 C 0.30103 0.8776 0.29267 0.0
C1738 C 0.23246 0.84788 0.29831 0.0
C1739 C 0.23398 0.85335 0.31369 0.0
C1740 C 0.27751 0.86941 0.29961 0.0
C1741 C 0.25771 0.86703 0.32162 0.0
C1742 C 0.32419 0.89119 0.30126 0.0
C1743 C 0.32146 0.87737 0.27129 0.0
N1744 N 0.27847 0.87454 0.3145 0.0
N1745 N 0.30042 0.87132 0.27795 0.0
H1746 H 0.06951 0.40427 0.27451 0.0
H1747 H 0.1865 0.41742 0.32479 0.0
H1748 H 0.135 0.47489 0.29051 0.0
H1749 H 0.1162 0.34833 0.31597 0.0
H1750 H 0.16943 0.43798 0.30984 0.0
H1751 H 0.08791 0.3825 0.28716 0.0
C1752 C 0.08781 0.41515 0.2806 0.0
C1753 C 0.10066 0.4414 0.28159 0.0
C1754 C 0.15775 0.41829 0.31112 0.0
C1755 C 0.12177 0.41675 0.29605 0.0
C1756 C 0.16749 0.40658 0.31964 0.0
C1757 C 0.1527 0.3812 0.3216 0.0
C1758 C 0.13304 0.40449 0.30449 0.0
C1759 C 0.12824 0.36793 0.31465 0.0
C1760 C 0.09824 0.40276 0.28787 0.0
C1761 C 0.12428 0.45463 0.28967 0.0
N1762 N 0.11913 0.37975 0.30641 0.0
N1763 N 0.13404 0.44218 0.2966 0.0
H1764 H 0.35912 0.44584 0.29761 0.0
H1765 H 0.21026 0.36242 0.29047 0.0
H1766 H 0.3125 0.42999 0.25672 0.0
H1767 H 0.25728 0.38267 0.33171 0.0
H1768 H 0.24739 0.38523 0.27763 0.0
H1769 H 0.32198 0.42081 0.30993 0.0
C1770 C 0.34104 0.43711 0.29122 0.0
C1771 C 0.33893 0.44021 0.27612 0.0
C1772 C 0.24958 0.38465 0.28948 0.0
C1773 C 0.29622 0.41129 0.29018 0.0
C1774 C 0.22837 0.37163 0.29685 0.0
C1775 C 0.2306 0.37066 0.31223 0.0
C1776 C 0.27324 0.39677 0.29754 0.0
C1777 C 0.2546 0.38294 0.31986 0.0
C1778 C 0.31983 0.42272 0.29826 0.0
C1779 C 0.31504 0.42799 0.26834 0.0
N1780 N 0.27495 0.39548 0.31244 0.0
N1781 N 0.2946 0.41417 0.27548 0.0
H1782 H 0.53918 0.90661 0.29497 0.0
H1783 H 0.61529 0.8339 0.29028 0.0
H1784 H 0.54593 0.87197 0.25418 0.0
H1785 H 0.61285 0.87279 0.33068 0.0
H1786 H 0.58904 0.84682 0.27701 0.0
H1787 H 0.56537 0.89363 0.30837 0.0
C1788 C 0.54613 0.89622 0.28883 0.0
C1789 C 0.54033 0.89035 0.27343 0.0
C1790 C 0.59422 0.85252 0.28878 0.0
C1791 C 0.57043 0.87553 0.28868 0.0
C1792 C 0.60918 0.84509 0.29639 0.0
C1793 C 0.61631 0.85226 0.31164 0.0
C1794 C 0.58624 0.8672 0.29646 0.0
C1795 C 0.60785 0.86684 0.31893 0.0
C1796 C 0.56117 0.88891 0.29648 0.0
C1797 C 0.55015 0.87716 0.26603 0.0
N1798 N 0.59326 0.87381 0.31127 0.0
N1799 N 0.56465 0.87013 0.27373 0.0
H1800 H 0.06745 0.63925 0.2925 0.0
H1801 H 0.18642 0.76042 0.33562 0.0
H1802 H 0.13385 0.64024 0.31028 0.0
H1803 H 0.11741 0.75795 0.32241 0.0
H1804 H 0.16767 0.71656 0.32568 0.0
H1805 H 0.08548 0.68291 0.30285 0.0
C1806 C 0.08578 0.64863 0.29862 0.0
C1807 C 0.09914 0.63607 0.30056 0.0
C1808 C 0.15659 0.72558 0.32495 0.0
C1809 C 0.11989 0.68596 0.31238 0.0
C1810 C 0.16732 0.75061 0.33059 0.0
C1811 C 0.15341 0.76272 0.32983 0.0
C1812 C 0.13179 0.71259 0.31846 0.0
C1813 C 0.12876 0.74923 0.3232 0.0
C1814 C 0.09603 0.67351 0.30455 0.0
C1815 C 0.12273 0.64905 0.30869 0.0
N1816 N 0.11871 0.72485 0.31775 0.0
N1817 N 0.13238 0.6733 0.31423 0.0
H1818 H 0.78086 0.00352 0.39275 0.0
H1819 H 0.75075 0.9054 0.32569 0.0
H1820 H 0.80943 0.02961 0.35115 0.0
H1821 H 0.69038 0.90053 0.34908 0.0
H1822 H 0.77765 0.94837 0.33755 0.0
H1823 H 0.75173 0.96255 0.37959 0.0
C1824 C 0.78099 0.00095 0.38088 0.0
C1825 C 0.79793 0.02044 0.37315 0.0
C1826 C 0.75849 0.93778 0.34003 0.0
C1827 C 0.76523 0.97299 0.35824 0.0
C1828 C 0.74321 0.91334 0.33335 0.0
C1829 C 0.71846 0.89935 0.33661 0.0
C1830 C 0.74908 0.94789 0.35031 0.0
C1831 C 0.7095 0.91055 0.34651 0.0
C1832 C 0.76442 0.97741 0.37343 0.0
C1833 C 0.79737 0.01526 0.35777 0.0
N1834 N 0.72494 0.93408 0.35323 0.0
N1835 N 0.78155 0.99195 0.35087 0.0
H1836 H 0.97223 0.7526 0.37445 0.0
H1837 H 0.12111 0.82506 0.3787 0.0
H1838 H 0.02064 0.78714 0.41514 0.0
H1839 H 0.07298 0.78758 0.33819 0.0
H1840 H 0.08451 0.81127 0.39217 0.0
H1841 H 0.0088 0.76484 0.36099 0.0
C1842 C 0.99057 0.76274 0.38056 0.0
C1843 C 0.99337 0.76895 0.39595 0.0
C1844 C 0.08192 0.80605 0.38034 0.0
C1845 C 0.03536 0.78299 0.38059 0.0
C1846 C 0.10285 0.814 0.3726 0.0
C1847 C 0.10017 0.80755 0.35724 0.0
C1848 C 0.05803 0.79153 0.3727 0.0
C1849 C 0.07597 0.79304 0.35 0.0
C1850 C 0.01144 0.76966 0.37287 0.0
C1851 C 0.01757 0.78176 0.40331 0.0
N1852 N 0.05584 0.78555 0.35779 0.0
N1853 N 0.03762 0.78848 0.39556 0.0
H1854 H 0.25964 0.25526 0.39118 0.0
H1855 H 0.14077 0.2437 0.34399 0.0
H1856 H 0.18981 0.18608 0.3805 0.0
H1857 H 0.21216 0.31181 0.35127 0.0
H1858 H 0.15758 0.22312 0.35912 0.0
H1859 H 0.24165 0.27732 0.37853 0.0
C1860 C 0.24046 0.24477 0.38629 0.0
C1861 C 0.22625 0.21878 0.38678 0.0
C1862 C 0.16957 0.2426 0.35747 0.0
C1863 C 0.20563 0.24378 0.37223 0.0
C1864 C 0.15997 0.25432 0.34883 0.0
C1865 C 0.17514 0.27942 0.34639 0.0
C1866 C 0.19453 0.2561 0.36368 0.0
C1867 C 0.19984 0.29242 0.35295 0.0
C1868 C 0.23025 0.25732 0.37901 0.0
C1869 C 0.20157 0.20606 0.38016 0.0
N1870 N 0.20882 0.28058 0.36127 0.0
N1871 N 0.19208 0.21867 0.37313 0.0
H1872 H 0.65399 0.51763 0.71164 0.0
H1873 H 0.77919 0.64531 0.70794 0.0
H1874 H 0.66926 0.58562 0.73748 0.0
H1875 H 0.74274 0.59024 0.66993 0.0
H1876 H 0.74263 0.62166 0.72122 0.0
H1877 H 0.69022 0.54202 0.69855 0.0
C1878 C 0.66476 0.5377 0.71453 0.0
C1879 C 0.65811 0.54955 0.72558 0.0
C1880 C 0.74265 0.61487 0.70996 0.0
C1881 C 0.7003 0.57744 0.71085 0.0
C1882 C 0.76349 0.62825 0.70238 0.0
C1883 C 0.76396 0.61972 0.68778 0.0
C1884 C 0.72237 0.59254 0.703 0.0
C1885 C 0.74309 0.59755 0.68113 0.0
C1886 C 0.68555 0.55155 0.70706 0.0
C1887 C 0.67361 0.57555 0.72915 0.0
N1888 N 0.72321 0.58458 0.68884 0.0
N1889 N 0.69402 0.58862 0.72182 0.0
H1890 H 0.49592 0.14386 0.70591 0.0
H1891 H 0.37089 0.14724 0.71009 0.0
H1892 H 0.44079 0.09714 0.73401 0.0
H1893 H 0.40285 0.14991 0.6689 0.0
H1894 H 0.40117 0.13752 0.72209 0.0
H1895 H 0.46632 0.15483 0.69506 0.0
C1896 C 0.47762 0.13572 0.70978 0.0
C1897 C 0.4709 0.11922 0.72084 0.0
C1898 C 0.40146 0.1403 0.71044 0.0
C1899 C 0.43733 0.13269 0.70879 0.0
C1900 C 0.38436 0.14594 0.70363 0.0
C1901 C 0.38437 0.14922 0.68849 0.0
C1902 C 0.41899 0.13867 0.7021 0.0
C1903 C 0.40212 0.14728 0.68057 0.0
C1904 C 0.46084 0.14222 0.70364 0.0
C1905 C 0.44708 0.11014 0.72568 0.0
N1906 N 0.41886 0.14232 0.68749 0.0
N1907 N 0.43118 0.11707 0.71966 0.0
H1908 H 0.93113 0.3544 0.7053 0.0
H1909 H 0.81094 0.23366 0.66272 0.0
H1910 H 0.8649 0.35428 0.6881 0.0
H1911 H 0.87885 0.23489 0.67725 0.0
H1912 H 0.83036 0.27789 0.67211 0.0
H1913 H 0.91237 0.3106 0.69516 0.0
C1914 C 0.91266 0.34516 0.69937 0.0
C1915 C 0.89957 0.35801 0.69754 0.0
C1916 C 0.84103 0.2685 0.67325 0.0
C1917 C 0.87797 0.30793 0.68591 0.0
C1918 C 0.82993 0.24327 0.66791 0.0
C1919 C 0.84333 0.23069 0.66926 0.0
C1920 C 0.86568 0.28118 0.68 0.0
C1921 C 0.86787 0.24394 0.67606 0.0
C1922 C 0.90199 0.3202 0.69354 0.0
C1923 C 0.87581 0.34521 0.68961 0.0
N1924 N 0.87827 0.26849 0.6812 0.0
N1925 N 0.86574 0.32086 0.68415 0.0
H1926 H 0.17352 0.97427 0.64299 0.0
H1927 H 0.31068 0.09475 0.65361 0.0
H1928 H 0.23569 0.97659 0.62287 0.0
H1929 H 0.24635 0.09265 0.67046 0.0
H1930 H 0.28439 0.05086 0.6433 0.0
H1931 H 0.20094 0.01681 0.65453 0.0
C1932 C 0.19304 0.9836 0.64115 0.0
C1933 C 0.20232 0.97178 0.63197 0.0
C1934 C 0.27606 0.06001 0.64927 0.0
C1935 C 0.23382 0.02086 0.64496 0.0
C1936 C 0.29103 0.08501 0.65514 0.0
C1937 C 0.2806 0.09724 0.66286 0.0
C1938 C 0.25054 0.04724 0.65121 0.0
C1939 C 0.2551 0.08387 0.66456 0.0
C1940 C 0.20866 0.00802 0.64765 0.0
C1941 C 0.22769 0.98507 0.62975 0.0
N1942 N 0.24095 0.0596 0.65879 0.0
N1943 N 0.24257 0.00893 0.63618 0.0
H1944 H 0.02627 0.23667 0.63335 0.0
H1945 H 0.87734 0.16896 0.62307 0.0
H1946 H 0.98264 0.20239 0.59116 0.0
H1947 H 0.92256 0.20441 0.66474 0.0
H1948 H 0.91535 0.18207 0.61086 0.0
H1949 H 0.98821 0.2264 0.64467 0.0
C1950 C 0.00863 0.22698 0.62646 0.0
C1951 C 0.00759 0.22014 0.61132 0.0
C1952 C 0.91691 0.187 0.62267 0.0
C1953 C 0.9638 0.20832 0.62422 0.0
C1954 C 0.89522 0.17948 0.62966 0.0
C1955 C 0.89671 0.1855 0.64499 0.0
C1956 C 0.94027 0.20061 0.63106 0.0
C1957 C 0.92042 0.19925 0.65293 0.0
C1958 C 0.98688 0.22117 0.63292 0.0
C1959 C 0.98427 0.20806 0.60287 0.0
N1960 N 0.9412 0.20627 0.64588 0.0
N1961 N 0.96325 0.20235 0.60946 0.0
H1962 H 0.76172 0.78581 0.63845 0.0
H1963 H 0.7873 0.67582 0.64075 0.0
H1964 H 0.76459 0.75177 0.59614 0.0
H1965 H 0.84086 0.74787 0.66368 0.0
H1966 H 0.7685 0.69599 0.62663 0.0
H1967 H 0.78022 0.76421 0.65074 0.0
C1968 C 0.7663 0.77398 0.63166 0.0
C1969 C 0.76208 0.77125 0.6161 0.0
C1970 C 0.78447 0.70725 0.6347 0.0
C1971 C 0.78206 0.74549 0.63036 0.0
C1972 C 0.79521 0.69583 0.64271 0.0
C1973 C 0.81581 0.71025 0.65324 0.0
C1974 C 0.79389 0.73301 0.63773 0.0
C1975 C 0.82508 0.73611 0.65559 0.0
C1976 C 0.77665 0.76151 0.63877 0.0
C1977 C 0.76735 0.7545 0.60812 0.0
N1978 N 0.8138 0.74665 0.64804 0.0
N1979 N 0.77704 0.74215 0.61536 0.0
H1980 H 0.01097 0.80695 0.62504 0.0
H1981 H 0.8818 0.68141 0.6243 0.0
H1982 H 0.99342 0.74068 0.59641 0.0
H1983 H 0.91929 0.73168 0.66414 0.0
H1984 H 0.91908 0.70565 0.61162 0.0
H1985 H 0.97383 0.78217 0.63731 0.0
C1986 C 0.99954 0.78717 0.62138 0.0
C1987 C 0.00576 0.77591 0.60975 0.0
C1988 C 0.91908 0.71127 0.62315 0.0
C1989 C 0.96252 0.74766 0.62352 0.0
C1990 C 0.89784 0.69756 0.63037 0.0
C1991 C 0.89752 0.70453 0.64532 0.0
C1992 C 0.93986 0.73237 0.63084 0.0
C1993 C 0.91881 0.72557 0.65265 0.0
C1994 C 0.9782 0.7731 0.62836 0.0
C1995 C 0.98942 0.75032 0.60521 0.0
N1996 N 0.93906 0.73888 0.6453 0.0
N1997 N 0.9685 0.73707 0.61208 0.0
H1998 H 0.20009 0.23335 0.62645 0.0
H1999 H 0.28096 0.16562 0.62142 0.0
H2000 H 0.20854 0.20073 0.58543 0.0
H2001 H 0.27487 0.20128 0.66205 0.0
H2002 H 0.25361 0.17729 0.6081 0.0
H2003 H 0.22665 0.22076 0.63974 0.0
C2004 C 0.20745 0.22343 0.62024 0.0
C2005 C 0.20205 0.21806 0.6048 0.0
C2006 C 0.25825 0.18253 0.61993 0.0
C2007 C 0.23267 0.20373 0.61994 0.0
C2008 C 0.27383 0.17583 0.62756 0.0
C2009 C 0.28028 0.18252 0.64289 0.0
C2010 C 0.24899 0.19597 0.62768 0.0
C2011 C 0.27047 0.19577 0.65024 0.0
C2012 C 0.22273 0.21635 0.62783 0.0
C2013 C 0.21244 0.20551 0.59731 0.0
N2014 N 0.25535 0.20206 0.64256 0.0
N2015 N 0.22721 0.19873 0.60495 0.0
H2016 H 0.77325 0.96404 0.65529 0.0
H2017 H 0.78426 0.09472 0.65026 0.0
H2018 H 0.76473 0.9867 0.61221 0.0
H2019 H 0.8439 0.09059 0.67418 0.0
H2020 H 0.76681 0.05112 0.6397 0.0
H2021 H 0.78969 0.00711 0.66607 0.0
C2022 C 0.7748 0.97786 0.64803 0.0
C2023 C 0.76769 0.97143 0.63269 0.0
C2024 C 0.78371 0.05989 0.64727 0.0
C2025 C 0.78539 0.02043 0.64524 0.0
C2026 C 0.79372 0.08468 0.65323 0.0
C2027 C 0.8158 0.09632 0.66284 0.0
C2028 C 0.79539 0.04652 0.65142 0.0
C2029 C 0.82699 0.08231 0.66666 0.0
C2030 C 0.78402 0.00238 0.65428 0.0
C2031 C 0.76942 0.99032 0.62408 0.0
N2032 N 0.81652 0.05796 0.66102 0.0
N2033 N 0.77795 0.01392 0.6305 0.0
H2034 H 0.46419 0.36802 0.68112 0.0
H2035 H 0.35144 0.23301 0.68077 0.0
H2036 H 0.44452 0.33828 0.7233 0.0
H2037 H 0.41468 0.24249 0.65872 0.0
H2038 H 0.37666 0.2762 0.69258 0.0
H2039 H 0.43707 0.32589 0.66866 0.0
C2040 C 0.45432 0.35287 0.68784 0.0
C2041 C 0.45721 0.35701 0.70343 0.0
C2042 C 0.38484 0.2687 0.6851 0.0
C2043 C 0.42514 0.30908 0.68901 0.0
C2044 C 0.37062 0.24414 0.67845 0.0
C2045 C 0.38127 0.23405 0.66909 0.0
C2046 C 0.40944 0.28344 0.68183 0.0
C2047 C 0.40593 0.24951 0.66604 0.0
C2048 C 0.43869 0.3289 0.68064 0.0
C2049 C 0.44288 0.33645 0.71132 0.0
N2050 N 0.41922 0.2736 0.67234 0.0
N2051 N 0.42739 0.31339 0.70401 0.0
H2052 H 0.63477 0.08043 0.70614 0.0
H2053 H 0.78354 0.15925 0.70961 0.0
H2054 H 0.68339 0.11843 0.7464 0.0
H2055 H 0.73565 0.11885 0.66943 0.0
H2056 H 0.74698 0.1443 0.72318 0.0
H2057 H 0.67134 0.09371 0.69252 0.0
C2058 C 0.65315 0.09151 0.71213 0.0
C2059 C 0.656 0.0984 0.72744 0.0
C2060 C 0.74442 0.13869 0.7114 0.0
C2061 C 0.69797 0.11367 0.7119 0.0
C2062 C 0.76533 0.14731 0.70359 0.0
C2063 C 0.76273 0.14036 0.68831 0.0
C2064 C 0.7206 0.12299 0.7039 0.0
C2065 C 0.73859 0.12473 0.68119 0.0
C2066 C 0.67401 0.09903 0.70434 0.0
C2067 C 0.68027 0.11246 0.73464 0.0
N2068 N 0.71847 0.11658 0.68904 0.0
N2069 N 0.70029 0.11974 0.7268 0.0
H2070 H 0.93694 0.59389 0.72285 0.0
H2071 H 0.81365 0.57661 0.67799 0.0
H2072 H 0.87045 0.5226 0.70962 0.0
H2073 H 0.8824 0.64746 0.68558 0.0
H2074 H 0.83322 0.55746 0.69202 0.0
H2075 H 0.91637 0.61487 0.7116 0.0
C2076 C 0.91801 0.5827 0.71764 0.0
C2077 C 0.90547 0.55648 0.71699 0.0
C2078 C 0.84405 0.57723 0.69069 0.0
C2079 C 0.8819 0.58021 0.7042 0.0
C2080 C 0.83286 0.58815 0.68269 0.0
C2081 C 0.84651 0.61356 0.68057 0.0
C2082 C 0.86911 0.59183 0.6966 0.0
C2083 C 0.87127 0.62776 0.68698 0.0
C2084 C 0.90632 0.59464 0.71119 0.0
C2085 C 0.88098 0.54283 0.71011 0.0
N2086 N 0.88187 0.61666 0.69466 0.0
N2087 N 0.87004 0.55484 0.70397 0.0
H2088 H 0.42624 0.93892 0.1597 0.0
H2089 H 0.53756 0.02323 0.11215 0.0
H2090 H 0.50264 0.98712 0.17813 0.0
H2091 H 0.4612 0.97659 0.0932 0.0
H2092 H 0.52456 0.01122 0.13655 0.0
H2093 H 0.43805 0.95364 0.13544 0.0
C2094 C 0.44544 0.95277 0.15868 0.0
C2095 C 0.46351 0.96165 0.17095 0.0
C2096 C 0.5106 0.00364 0.12707 0.0
C2097 C 0.4772 0.97838 0.14321 0.0
C2098 C 0.51801 0.01062 0.11312 0.0
C2099 C 0.50047 0.00094 0.10056 0.0
C2100 C 0.48544 0.98678 0.12856 0.0
C2101 C 0.47544 0.98428 0.10252 0.0
C2102 C 0.4522 0.96105 0.14481 0.0
C2103 C 0.48816 0.97941 0.16894 0.0
N2104 N 0.46868 0.97771 0.11625 0.0
N2105 N 0.49427 0.98709 0.15535 0.0
H2106 H 0.00878 0.48013 0.17515 0.0
H2107 H 0.04631 0.56071 0.10567 0.0
H2108 H 0.05796 0.56017 0.17829 0.0
H2109 H 0.99207 0.48175 0.10151 0.0
H2110 H 0.05329 0.55968 0.13221 0.0
H2111 H 0.00475 0.47915 0.14805 0.0
C2112 C 0.01879 0.49745 0.17013 0.0
C2113 C 0.03348 0.52031 0.17897 0.0
C2114 C 0.0399 0.54252 0.12552 0.0
C2115 C 0.02903 0.51934 0.1481 0.0
C2116 C 0.03586 0.54312 0.11036 0.0
C2117 C 0.01838 0.52135 0.1014 0.0
C2118 C 0.02633 0.51997 0.13184 0.0
C2119 C 0.00577 0.49896 0.10802 0.0
C2120 C 0.01643 0.49689 0.15469 0.0
C2121 C 0.04601 0.54221 0.17192 0.0
N2122 N 0.00986 0.49887 0.12289 0.0
N2123 N 0.04346 0.54117 0.15694 0.0
H2124 H 0.4873 0.55955 0.17382 0.0
H2125 H 0.5006 0.47971 0.10653 0.0
H2126 H 0.46936 0.48305 0.17604 0.0
H2127 H 0.4998 0.54835 0.10224 0.0
H2128 H 0.48998 0.48046 0.13205 0.0
H2129 H 0.49272 0.55577 0.1476 0.0
C2130 C 0.48447 0.54192 0.16873 0.0
C2131 C 0.47809 0.52164 0.17709 0.0
C2132 C 0.49193 0.49522 0.12547 0.0
C2133 C 0.48431 0.51715 0.14707 0.0
C2134 C 0.49812 0.49489 0.11095 0.0
C2135 C 0.50116 0.51405 0.10227 0.0
C2136 C 0.48906 0.51502 0.13139 0.0
C2137 C 0.49745 0.5331 0.10848 0.0
C2138 C 0.48745 0.53972 0.15376 0.0
C2139 C 0.47428 0.4991 0.16994 0.0
N2140 N 0.4918 0.5332 0.12268 0.0
N2141 N 0.47771 0.49752 0.15534 0.0
H2142 H 0.94717 0.44162 0.81974 0.0
H2143 H 0.03145 0.52113 0.89387 0.0
H2144 H 0.0066 0.51807 0.82016 0.0
H2145 H 0.95774 0.45698 0.89329 0.0
H2146 H 0.02475 0.51959 0.86685 0.0
H2147 H 0.95302 0.44578 0.84677 0.0
C2148 C 0.96157 0.45925 0.82556 0.0
C2149 C 0.97657 0.47948 0.81776 0.0
C2150 C 0.00999 0.50603 0.87268 0.0
C2151 C 0.98329 0.48444 0.84866 0.0
C2152 C 0.01383 0.50684 0.88805 0.0
C2153 C 0.99511 0.48915 0.89578 0.0
C2154 C 0.98745 0.48714 0.86502 0.0
C2155 C 0.97256 0.47111 0.88776 0.0
C2156 C 0.96476 0.46169 0.84097 0.0
C2157 C 0.99467 0.50206 0.82582 0.0
N2158 N 0.96945 0.47042 0.87281 0.0
N2159 N 0.99768 0.5039 0.84088 0.0
H2160 H 0.5317 0.51409 0.82702 0.0
H2161 H 0.49794 0.44634 0.90152 0.0
H2162 H 0.50772 0.43603 0.82927 0.0
H2163 H 0.49992 0.51615 0.8965 0.0
H2164 H 0.50831 0.44527 0.87607 0.0
H2165 H 0.52674 0.51805 0.85353 0.0
C2166 C 0.52562 0.49788 0.83314 0.0
C2167 C 0.51989 0.47465 0.82596 0.0
C2168 C 0.50657 0.46088 0.88055 0.0
C2169 C 0.5143 0.47902 0.85614 0.0
C2170 C 0.50082 0.46159 0.89511 0.0
C2171 C 0.49797 0.48132 0.90112 0.0
C2172 C 0.50971 0.48014 0.87193 0.0
C2173 C 0.50165 0.50044 0.89223 0.0
C2174 C 0.52267 0.5001 0.8482 0.0
C2175 C 0.512 0.45419 0.83435 0.0
N2176 N 0.50733 0.49938 0.87807 0.0
N2177 N 0.50944 0.45685 0.84897 0.0
H2178 H 0.52439 0.08471 0.84235 0.0
H2179 H 0.50491 0.97846 0.89484 0.0
H2180 H 0.53476 0.02271 0.82902 0.0
H2181 H 0.49616 0.04172 0.90765 0.0
H2182 H 0.51791 0.99514 0.87117 0.0
H2183 H 0.5166 0.07039 0.86692 0.0
C2184 C 0.52511 0.06809 0.84464 0.0
C2185 C 0.52997 0.05473 0.83359 0.0
C2186 C 0.51327 0.00543 0.8792 0.0
C2187 C 0.52103 0.03814 0.86175 0.0
C2188 C 0.50569 0.99583 0.89268 0.0
C2189 C 0.49933 0.00865 0.90325 0.0
C2190 C 0.51443 0.02796 0.87623 0.0
C2191 C 0.50111 0.0313 0.89993 0.0
C2192 C 0.52072 0.05995 0.85868 0.0
C2193 C 0.53114 0.03359 0.83724 0.0
N2194 N 0.50836 0.04014 0.88671 0.0
N2195 N 0.52646 0.0258 0.85098 0.0
H2196 H 0.16801 0.32128 0.51195 0.0
H2197 H 0.12582 0.30911 0.42544 0.0
H2198 H 0.09229 0.27305 0.49239 0.0
H2199 H 0.2016 0.35536 0.44544 0.0
H2200 H 0.11258 0.2972 0.44993 0.0
H2201 H 0.17997 0.33583 0.4878 0.0
C2202 C 0.15388 0.31376 0.50255 0.0
C2203 C 0.12915 0.29574 0.50417 0.0
C2204 C 0.13209 0.31003 0.44896 0.0
C2205 C 0.14272 0.31242 0.47642 0.0
C2206 C 0.13969 0.31672 0.43497 0.0
C2207 C 0.1649 0.33322 0.43336 0.0
C2208 C 0.1498 0.31985 0.46144 0.0
C2209 C 0.18195 0.34283 0.44614 0.0
C2210 C 0.1607 0.32214 0.48877 0.0
C2211 C 0.11154 0.28704 0.49167 0.0
N2212 N 0.1741 0.33594 0.45961 0.0
N2213 N 0.1187 0.29533 0.47829 0.0
H2214 H 0.66268 0.80757 0.51042 0.0
H2215 H 0.70228 0.89116 0.44226 0.0
H2216 H 0.71034 0.88792 0.51455 0.0
H2217 H 0.64937 0.81181 0.43652 0.0
H2218 H 0.70716 0.88918 0.46881 0.0
H2219 H 0.65912 0.80755 0.48333 0.0
C2220 C 0.67237 0.82516 0.50563 0.0
C2221 C 0.68655 0.84781 0.51475 0.0
C2222 C 0.69447 0.87214 0.46179 0.0
C2223 C 0.68268 0.84793 0.48392 0.0
C2224 C 0.69161 0.8733 0.44662 0.0
C2225 C 0.67516 0.85168 0.43718 0.0
C2226 C 0.68078 0.84918 0.46768 0.0
C2227 C 0.66229 0.82891 0.44341 0.0
C2228 C 0.67029 0.82515 0.49021 0.0
C2229 C 0.69874 0.87007 0.50799 0.0
N2230 N 0.66525 0.82827 0.45831 0.0
N2231 N 0.69651 0.86954 0.49303 0.0
H2232 H 0.13042 0.81752 0.50843 0.0
H2233 H 0.16768 0.88411 0.43374 0.0
H2234 H 0.15148 0.8946 0.50484 0.0
H2235 H 0.16342 0.81352 0.43977 0.0
H2236 H 0.15559 0.88549 0.4587 0.0
H2237 H 0.13629 0.81303 0.48217 0.0
C2238 C 0.136 0.83339 0.50206 0.0
C2239 C 0.14069 0.85652 0.5088 0.0
C2240 C 0.1572 0.86964 0.45455 0.0
C2241 C 0.14747 0.85158 0.4789 0.0
C2242 C 0.16395 0.86876 0.44027 0.0
C2243 C 0.16667 0.84872 0.43469 0.0
C2244 C 0.153 0.85028 0.46334 0.0
C2245 C 0.16187 0.82949 0.44372 0.0
C2246 C 0.1395 0.83088 0.48713 0.0
C2247 C 0.14803 0.87655 0.5001 0.0
N2248 N 0.1553 0.83075 0.45761 0.0
N2249 N 0.15124 0.87363 0.48563 0.0
H2250 H 0.68092 0.817 0.15377 0.0
H2251 H 0.63784 0.83243 0.23292 0.0
H2252 H 0.6228 0.83445 0.16005 0.0
H2253 H 0.69805 0.81808 0.22672 0.0
H2254 H 0.63455 0.83703 0.20651 0.0
H2255 H 0.68983 0.82083 0.18065 0.0
C2256 C 0.67014 0.82179 0.16081 0.0
C2257 C 0.65096 0.82521 0.15466 0.0
C2258 C 0.64861 0.83306 0.21094 0.0
C2259 C 0.66102 0.82961 0.18544 0.0
C2260 C 0.65058 0.83056 0.22605 0.0
C2261 C 0.66809 0.82461 0.23203 0.0
C2262 C 0.6642 0.82953 0.20173 0.0
C2263 C 0.68393 0.82215 0.22254 0.0
C2264 C 0.67528 0.82406 0.17616 0.0
C2265 C 0.63785 0.83179 0.16431 0.0
N2266 N 0.68149 0.82445 0.20786 0.0
N2267 N 0.64296 0.83353 0.17922 0.0
H2268 H 0.21916 0.8315 0.16692 0.0
H2269 H 0.11717 0.80267 0.22372 0.0
H2270 H 0.14143 0.80434 0.15373 0.0
H2271 H 0.19596 0.83853 0.23767 0.0
H2272 H 0.12626 0.80469 0.19801 0.0
H2273 H 0.21178 0.83609 0.19281 0.0
C2274 C 0.20062 0.82682 0.16944 0.0
C2275 C 0.18082 0.81724 0.15814 0.0
C2276 C 0.14162 0.81227 0.20667 0.0
C2277 C 0.17217 0.82211 0.18774 0.0
C2278 C 0.13644 0.81127 0.22141 0.0
C2279 C 0.15581 0.82045 0.23296 0.0
C2280 C 0.16636 0.82235 0.20335 0.0
C2281 C 0.18037 0.83087 0.22917 0.0
C2282 C 0.19639 0.8293 0.18423 0.0
C2283 C 0.15714 0.81128 0.16209 0.0
N2284 N 0.18493 0.83143 0.21469 0.0
N2285 N 0.15346 0.81364 0.17653 0.0
H2286 H 0.20069 0.35123 0.16154 0.0
H2287 H 0.16048 0.37282 0.24082 0.0
H2288 H 0.18454 0.40967 0.17386 0.0
H2289 H 0.16913 0.30955 0.22786 0.0
H2290 H 0.17329 0.38868 0.21707 0.0
H2291 H 0.19339 0.33786 0.18654 0.0
C2292 C 0.19588 0.36139 0.16955 0.0
C2293 C 0.19295 0.38141 0.16559 0.0
C2294 C 0.17248 0.37136 0.21941 0.0
C2295 C 0.18446 0.3662 0.19408 0.0
C2296 C 0.1653 0.36236 0.23303 0.0
C2297 C 0.16367 0.33978 0.23635 0.0
C2298 C 0.17812 0.35772 0.20897 0.0
C2299 C 0.16979 0.32686 0.22569 0.0
C2300 C 0.19157 0.35367 0.18377 0.0
C2301 C 0.18657 0.39386 0.17637 0.0
N2302 N 0.17671 0.33599 0.21246 0.0
N2303 N 0.18246 0.386 0.19007 0.0
H2304 H 0.8342 0.65046 0.84385 0.0
H2305 H 0.79025 0.64262 0.75811 0.0
H2306 H 0.75774 0.60477 0.82495 0.0
H2307 H 0.86658 0.68667 0.77755 0.0
H2308 H 0.77747 0.62979 0.78254 0.0
H2309 H 0.84585 0.66539 0.81976 0.0
C2310 C 0.81984 0.64353 0.83461 0.0
C2311 C 0.79498 0.62614 0.8364 0.0
C2312 C 0.797 0.64234 0.78146 0.0
C2313 C 0.80819 0.64334 0.80871 0.0
C2314 C 0.80433 0.64957 0.7675 0.0
C2315 C 0.82956 0.66573 0.76574 0.0
C2316 C 0.81501 0.65127 0.79377 0.0
C2317 C 0.84691 0.67444 0.77837 0.0
C2318 C 0.82649 0.65216 0.82085 0.0
C2319 C 0.7771 0.61825 0.82409 0.0
N2320 N 0.83932 0.66704 0.79181 0.0
N2321 N 0.78408 0.62679 0.81074 0.0
H2322 H 0.38949 0.23001 0.84539 0.0
H2323 H 0.32187 0.14533 0.76854 0.0
H2324 H 0.34257 0.14966 0.84252 0.0
H2325 H 0.36805 0.22586 0.77306 0.0
H2326 H 0.33076 0.14566 0.79525 0.0
H2327 H 0.38305 0.22806 0.8186 0.0
C2328 C 0.37766 0.21192 0.83911 0.0
C2329 C 0.36625 0.19 0.84623 0.0
C2330 C 0.33898 0.16322 0.79036 0.0
C2331 C 0.35901 0.18755 0.81538 0.0
C2332 C 0.33403 0.16304 0.77513 0.0
C2333 C 0.34405 0.18563 0.76861 0.0
C2334 C 0.35414 0.18616 0.79908 0.0
C2335 C 0.35954 0.20804 0.77766 0.0
C2336 C 0.37412 0.2108 0.82377 0.0
C2337 C 0.3517 0.16701 0.83746 0.0
N2338 N 0.36403 0.20773 0.79241 0.0
N2339 N 0.34835 0.16639 0.82247 0.0
H2340 H 0.80077 0.14887 0.8411 0.0
H2341 H 0.83145 0.21685 0.76659 0.0
H2342 H 0.82005 0.22569 0.83848 0.0
H2343 H 0.83221 0.1483 0.77139 0.0
H2344 H 0.8209 0.21721 0.79201 0.0
H2345 H 0.80608 0.14529 0.81461 0.0
C2346 C 0.80592 0.16488 0.83491 0.0
C2347 C 0.81023 0.18768 0.84197 0.0
C2348 C 0.82328 0.20203 0.7875 0.0
C2349 C 0.8162 0.18374 0.81184 0.0
C2350 C 0.82914 0.20172 0.77295 0.0
C2351 C 0.83279 0.18256 0.76687 0.0
C2352 C 0.8209 0.18296 0.79607 0.0
C2353 C 0.82985 0.1636 0.77571 0.0
C2354 C 0.80906 0.16288 0.81986 0.0
C2355 C 0.81693 0.20789 0.8335 0.0
N2356 N 0.82409 0.16427 0.78988 0.0
N2357 N 0.81971 0.20545 0.81891 0.0
H2358 H 0.29301 0.168 0.4907 0.0
H2359 H 0.35818 0.1372 0.55771 0.0
H2360 H 0.34744 0.145 0.48522 0.0
H2361 H 0.31528 0.1739 0.56387 0.0
H2362 H 0.35497 0.14053 0.53119 0.0
H2363 H 0.30166 0.1713 0.51749 0.0
C2364 C 0.3071 0.16404 0.4951 0.0
C2365 C 0.31944 0.1561 0.48563 0.0
C2366 C 0.3464 0.14801 0.53835 0.0
C2367 C 0.32897 0.15927 0.5164 0.0
C2368 C 0.34832 0.14623 0.55353 0.0
C2369 C 0.33695 0.15526 0.56309 0.0
C2370 C 0.33282 0.15869 0.53259 0.0
C2371 C 0.324 0.1663 0.55693 0.0
C2372 C 0.31188 0.16575 0.51044 0.0
C2373 C 0.33713 0.15076 0.49206 0.0
N2374 N 0.32218 0.16759 0.54207 0.0
N2375 N 0.34122 0.15225 0.50703 0.0
H2376 H 0.80569 0.14459 0.48472 0.0
H2377 H 0.85726 0.16125 0.56978 0.0
H2378 H 0.88024 0.1612 0.49888 0.0
H2379 H 0.78442 0.14917 0.55527 0.0
H2380 H 0.86723 0.16428 0.5441 0.0
H2381 H 0.79866 0.14901 0.5106 0.0
C2382 C 0.82063 0.14929 0.49329 0.0
C2383 C 0.84351 0.1523 0.48964 0.0
C2384 C 0.84912 0.16113 0.54655 0.0
C2385 C 0.8356 0.15737 0.51936 0.0
C2386 C 0.84345 0.15952 0.56123 0.0
C2387 C 0.81987 0.15473 0.56471 0.0
C2388 C 0.83108 0.15788 0.53522 0.0
C2389 C 0.80265 0.15238 0.5531 0.0
C2390 C 0.81665 0.15189 0.50808 0.0
C2391 C 0.86236 0.15881 0.50119 0.0
N2392 N 0.80855 0.15383 0.5389 0.0
N2393 N 0.8579 0.16088 0.51554 0.0
H2394 H 0.8684 0.68352 0.49436 0.0
H2395 H 0.82473 0.69942 0.57353 0.0
H2396 H 0.85029 0.74025 0.50751 0.0
H2397 H 0.8391 0.63996 0.56045 0.0
H2398 H 0.83693 0.71619 0.54992 0.0
H2399 H 0.86089 0.66898 0.51906 0.0
C2400 C 0.8631 0.69307 0.50249 0.0
C2401 C 0.85973 0.71296 0.49883 0.0
C2402 C 0.83749 0.69951 0.5522 0.0
C2403 C 0.85093 0.69635 0.52701 0.0
C2404 C 0.83065 0.68999 0.56574 0.0
C2405 C 0.83086 0.66822 0.569 0.0
C2406 C 0.84462 0.68721 0.54176 0.0
C2407 C 0.83833 0.65659 0.55834 0.0
C2408 C 0.85866 0.68467 0.51654 0.0
C2409 C 0.85267 0.72455 0.50976 0.0
N2410 N 0.84488 0.66621 0.54519 0.0
N2411 N 0.84843 0.71602 0.5233 0.0
loop_
_geom_bond_atom_site_label_1
_geom_bond_atom_site_label_2
_geom_bond_distance
_geom_bond_site_symmetry_2
_ccdc_geom_bond_type
C0 C1 1.391 . S
C0 C4 1.391 . S
C0 H42 0.948 . S
C1 C0 1.391 . S
C1 C2 1.391 . S
C2 C1 1.391 . S
C2 H58 0.947 . S
C2 C59 1.392 . S
C3 C4 1.391 . S
C3 C7 1.397 . S
C3 C59 1.419 . S
C4 C0 1.391 . S
C4 C3 1.391 . S
C4 C5 1.399 . S
C5 C4 1.399 . S
C5 C8 1.396 . S
C5 C17 1.453 . S
C5 C18 1.684 . S
H6 C30 0.948 . S
C7 C3 1.397 . S
C7 C8 1.394 . S
C7 C26 1.723 . S
C8 C5 1.396 . S
C8 C7 1.394 . S
C8 C38 1.723 . S
H9 C32 0.947 . S
H10 C33 0.948 . S
H11 C39 0.982 . S
H12 C40 0.979 . S
H13 C40 0.980 . S
H14 C40 0.983 . S
H15 C39 0.979 . S
H16 C39 0.977 . S
C17 C5 1.453 . S
C17 H46 0.982 . S
C17 H47 0.979 . S
C17 H48 0.977 . S
C18 C5 1.684 . S
C18 H43 0.979 . S
C18 H44 0.980 . S
C18 H45 0.983 . S
C19 C20 1.391 . S
C19 C24 1.391 . S
C19 H49 0.948 . S
C20 C19 1.391 . S
C20 C21 1.391 . S
C21 C20 1.391 . S
C21 C22 1.392 . S
C21 H50 0.947 . S
C22 C21 1.392 . S
C22 C23 1.419 . S
C22 H51 0.948 . S
C23 C22 1.419 . S
C23 C24 1.391 . S
C23 C27 1.397 . S
C24 C19 1.391 . S
C24 C23 1.391 . S
C24 C25 1.399 . S
C25 C24 1.399 . S
C25 C26 1.396 . S
C25 C28 1.453 . S
C25 C29 1.684 . S
C26 C7 1.723 . S
C26 C25 1.396 . S
C26 C27 1.394 . S
C27 C23 1.397 . S
C27 C26 1.394 . S
C27 C37 1.723 . S
C28 C25 1.453 . S
C28 H52 0.982 . S
C28 H53 0.979 . S
C28 H54 0.977 . S
C29 C25 1.684 . S
C29 H55 0.979 . S
C29 H56 0.980 . S
C29 H57 0.983 . S
C30 H6 0.948 . S
C30 C31 1.391 . S
C30 C35 1.391 . S
C31 C30 1.391 . S
C31 C32 1.391 . S
C32 H9 0.947 . S
C32 C31 1.391 . S
C32 C33 1.392 . S
C33 H10 0.948 . S
C33 C32 1.392 . S
C33 C34 1.419 . S
C34 C33 1.419 . S
C34 C35 1.391 . S
C34 C38 1.397 . S
C35 C30 1.391 . S
C35 C34 1.391 . S
C35 C36 1.399 . S
C36 C35 1.399 . S
C36 C37 1.396 . S
C36 C39 1.453 . S
C36 C40 1.684 . S
C37 C27 1.723 . S
C37 C36 1.396 . S
C37 C38 1.394 . S
C38 C8 1.723 . S
C38 C34 1.397 . S
C38 C37 1.394 . S
C39 H11 0.982 . S
C39 H15 0.979 . S
C39 H16 0.977 . S
C39 C36 1.453 . S
C40 H12 0.979 . S
C40 H13 0.980 . S
C40 H14 0.983 . S
C40 C36 1.684 . S
H41 C59 0.948 . S
H42 C0 0.948 . S
H43 C18 0.979 . S
H44 C18 0.980 . S
H45 C18 0.983 . S
H46 C17 0.982 . S
H47 C17 0.979 . S
H48 C17 0.977 . S
H49 C19 0.948 . S
H50 C21 0.947 . S
H51 C22 0.948 . S
H52 C28 0.982 . S
H53 C28 0.979 . S
H54 C28 0.977 . S
H55 C29 0.979 . S
H56 C29 0.980 . S
H57 C29 0.983 . S
H58 C2 0.947 . S
C59 C2 1.392 . S
C59 C3 1.419 . S
C59 H41 0.948 . S
C60 C61 1.391 . S
C60 C64 1.391 . S
C60 H102 0.948 . S
C61 C60 1.391 . S
C61 C62 1.391 . S
C62 C61 1.391 . S
C62 H118 0.947 . S
C62 C119 1.392 . S
C63 C64 1.391 . S
C63 C67 1.397 . S
C63 C119 1.419 . S
C64 C60 1.391 . S
C64 C63 1.391 . S
C64 C65 1.399 . S
C65 C64 1.399 . S
C65 C68 1.396 . S
C65 C77 1.453 . S
C65 C78 1.684 . S
H66 C90 0.948 . S
C67 C63 1.397 . S
C67 C68 1.394 . S
C67 C86 1.723 . S
C68 C65 1.396 . S
C68 C67 1.394 . S
C68 C98 1.723 . S
H69 C92 0.947 . S
H70 C93 0.948 . S
H71 C99 0.982 . S
H72 C100 0.979 . S
H73 C100 0.980 . S
H74 C100 0.983 . S
H75 C99 0.979 . S
H76 C99 0.977 . S
C77 C65 1.453 . S
C77 H106 0.982 . S
C77 H107 0.979 . S
C77 H108 0.977 . S
C78 C65 1.684 . S
C78 H103 0.979 . S
C78 H104 0.980 . S
C78 H105 0.983 . S
C79 C80 1.391 . S
C79 C84 1.391 . S
C79 H109 0.948 . S
C80 C79 1.391 . S
C80 C81 1.391 . S
C81 C80 1.391 . S
C81 C82 1.392 . S
C81 H110 0.947 . S
C82 C81 1.392 . S
C82 C83 1.419 . S
C82 H111 0.948 . S
C83 C82 1.419 . S
C83 C84 1.391 . S
C83 C87 1.397 . S
C84 C79 1.391 . S
C84 C83 1.391 . S
C84 C85 1.399 . S
C85 C84 1.399 . S
C85 C86 1.396 . S
C85 C88 1.453 . S
C85 C89 1.684 . S
C86 C67 1.723 . S
C86 C85 1.396 . S
C86 C87 1.394 . S
C87 C83 1.397 . S
C87 C86 1.394 . S
C87 C97 1.723 . S
C88 C85 1.453 . S
C88 H112 0.982 . S
C88 H113 0.979 . S
C88 H114 0.977 . S
C89 C85 1.684 . S
C89 H115 0.979 . S
C89 H116 0.980 . S
C89 H117 0.983 . S
C90 H66 0.948 . S
C90 C91 1.391 . S
C90 C95 1.391 . S
C91 C90 1.391 . S
C91 C92 1.391 . S
C92 H69 0.947 . S
C92 C91 1.391 . S
C92 C93 1.392 . S
C93 H70 0.948 . S
C93 C92 1.392 . S
C93 C94 1.419 . S
C94 C93 1.419 . S
C94 C95 1.391 . S
C94 C98 1.397 . S
C95 C90 1.391 . S
C95 C94 1.391 . S
C95 C96 1.399 . S
C96 C95 1.399 . S
C96 C97 1.396 . S
C96 C99 1.453 . S
C96 C100 1.684 . S
C97 C87 1.723 . S
C97 C96 1.396 . S
C97 C98 1.394 . S
C98 C68 1.723 . S
C98 C94 1.397 . S
C98 C97 1.394 . S
C99 H71 0.982 . S
C99 H75 0.979 . S
C99 H76 0.977 . S
C99 C96 1.453 . S
C100 H72 0.979 . S
C100 H73 0.980 . S
C100 H74 0.983 . S
C100 C96 1.684 . S
H101 C119 0.948 . S
H102 C60 0.948 . S
H103 C78 0.979 . S
H104 C78 0.980 . S
H105 C78 0.983 . S
H106 C77 0.982 . S
H107 C77 0.979 . S
H108 C77 0.977 . S
H109 C79 0.948 . S
H110 C81 0.947 . S
H111 C82 0.948 . S
H112 C88 0.982 . S
H113 C88 0.979 . S
H114 C88 0.977 . S
H115 C89 0.979 . S
H116 C89 0.980 . S
H117 C89 0.983 . S
H118 C62 0.947 . S
C119 C62 1.392 . S
C119 C63 1.419 . S
C119 H101 0.948 . S
C120 C121 1.391 . S
C120 C124 1.391 . S
C120 H162 0.948 . S
C121 C120 1.391 . S
C121 C122 1.391 . S
C122 C121 1.391 . S
C122 H178 0.947 . S
C122 C179 1.392 . S
C123 C124 1.391 . S
C123 C127 1.397 . S
C123 C179 1.419 . S
C124 C120 1.391 . S
C124 C123 1.391 . S
C124 C125 1.399 . S
C125 C124 1.399 . S
C125 C128 1.396 . S
C125 C137 1.453 . S
C125 C138 1.684 . S
H126 C150 0.948 . S
C127 C123 1.397 . S
C127 C128 1.394 . S
C127 C146 1.723 . S
C128 C125 1.396 . S
C128 C127 1.394 . S
C128 C158 1.723 . S
H129 C152 0.947 . S
H130 C153 0.948 . S
H131 C159 0.982 . S
H132 C160 0.979 . S
H133 C160 0.980 . S
H134 C160 0.983 . S
H135 C159 0.979 . S
H136 C159 0.977 . S
C137 C125 1.453 . S
C137 H166 0.982 . S
C137 H167 0.979 . S
C137 H168 0.977 . S
C138 C125 1.684 . S
C138 H163 0.979 . S
C138 H164 0.980 . S
C138 H165 0.983 . S
C139 C140 1.391 . S
C139 C144 1.391 . S
C139 H169 0.948 . S
C140 C139 1.391 . S
C140 C141 1.391 . S
C141 C140 1.391 . S
C141 C142 1.392 . S
C141 H170 0.947 . S
C142 C141 1.392 . S
C142 C143 1.419 . S
C142 H171 0.948 . S
C143 C142 1.419 . S
C143 C144 1.391 . S
C143 C147 1.397 . S
C144 C139 1.391 . S
C144 C143 1.391 . S
C144 C145 1.399 . S
C145 C144 1.399 . S
C145 C146 1.396 . S
C145 C148 1.453 . S
C145 C149 1.684 . S
C146 C127 1.723 . S
C146 C145 1.396 . S
C146 C147 1.394 . S
C147 C143 1.397 . S
C147 C146 1.394 . S
C147 C157 1.723 . S
C148 C145 1.453 . S
C148 H172 0.982 . S
C148 H173 0.979 . S
C148 H174 0.977 . S
C149 C145 1.684 . S
C149 H175 0.979 . S
C149 H176 0.980 . S
C149 H177 0.983 . S
C150 H126 0.948 . S
C150 C151 1.391 . S
C150 C155 1.391 . S
C151 C150 1.391 . S
C151 C152 1.391 . S
C152 H129 0.947 . S
C152 C151 1.391 . S
C152 C153 1.392 . S
C153 H130 0.948 . S
C153 C152 1.392 . S
C153 C154 1.419 . S
C154 C153 1.419 . S
C154 C155 1.391 . S
C154 C158 1.397 . S
C155 C150 1.391 . S
C155 C154 1.391 . S
C155 C156 1.399 . S
C156 C155 1.399 . S
C156 C157 1.396 . S
C156 C159 1.453 . S
C156 C160 1.684 . S
C157 C147 1.723 . S
C157 C156 1.396 . S
C157 C158 1.394 . S
C158 C128 1.723 . S
C158 C154 1.397 . S
C158 C157 1.394 . S
C159 H131 0.982 . S
C159 H135 0.979 . S
C159 H136 0.977 . S
C159 C156 1.453 . S
C160 H132 0.979 . S
C160 H133 0.980 . S
C160 H134 0.983 . S
C160 C156 1.684 . S
H161 C179 0.948 . S
H162 C120 0.948 . S
H163 C138 0.979 . S
H164 C138 0.980 . S
H165 C138 0.983 . S
H166 C137 0.982 . S
H167 C137 0.979 . S
H168 C137 0.977 . S
H169 C139 0.948 . S
H170 C141 0.947 . S
H171 C142 0.948 . S
H172 C148 0.982 . S
H173 C148 0.979 . S
H174 C148 0.977 . S
H175 C149 0.979 . S
H176 C149 0.980 . S
H177 C149 0.983 . S
H178 C122 0.947 . S
C179 C122 1.392 . S
C179 C123 1.419 . S
C179 H161 0.948 . S
C180 C181 1.391 . S
C180 C184 1.391 . S
C180 H222 0.948 . S
C181 C180 1.391 . S
C181 C182 1.391 . S
C182 C181 1.391 . S
C182 H238 0.947 . S
C182 C239 1.392 . S
C183 C184 1.391 . S
C183 C187 1.397 . S
C183 C239 1.419 . S
C184 C180 1.391 . S
C184 C183 1.391 . S
C184 C185 1.399 . S
C185 C184 1.399 . S
C185 C188 1.396 . S
C185 C197 1.453 . S
C185 C198 1.684 . S
H186 C210 0.948 . S
C187 C183 1.397 . S
C187 C188 1.394 . S
C187 C206 1.723 . S
C188 C185 1.396 . S
C188 C187 1.394 . S
C188 C218 1.723 . S
H189 C212 0.947 . S
H190 C213 0.948 . S
H191 C219 0.982 . S
H192 C220 0.979 . S
H193 C220 0.980 . S
H194 C220 0.983 . S
H195 C219 0.979 . S
H196 C219 0.977 . S
C197 C185 1.453 . S
C197 H226 0.982 . S
C197 H227 0.979 . S
C197 H228 0.977 . S
C198 C185 1.684 . S
C198 H223 0.979 . S
C198 H224 0.980 . S
C198 H225 0.983 . S
C199 C200 1.391 . S
C199 C204 1.391 . S
C199 H229 0.948 . S
C200 C199 1.391 . S
C200 C201 1.391 . S
C201 C200 1.391 . S
C201 C202 1.392 . S
C201 H230 0.947 . S
C202 C201 1.392 . S
C202 C203 1.419 . S
C202 H231 0.948 . S
C203 C202 1.419 . S
C203 C204 1.391 . S
C203 C207 1.397 . S
C204 C199 1.391 . S
C204 C203 1.391 . S
C204 C205 1.399 . S
C205 C204 1.399 . S
C205 C206 1.396 . S
C205 C208 1.453 . S
C205 C209 1.684 . S
C206 C187 1.723 . S
C206 C205 1.396 . S
C206 C207 1.394 . S
C207 C203 1.397 . S
C207 C206 1.394 . S
C207 C217 1.723 . S
C208 C205 1.453 . S
C208 H232 0.982 . S
C208 H233 0.979 . S
C208 H234 0.977 . S
C209 C205 1.684 . S
C209 H235 0.979 . S
C209 H236 0.980 . S
C209 H237 0.983 . S
C210 H186 0.948 . S
C210 C211 1.391 . S
C210 C215 1.391 . S
C211 C210 1.391 . S
C211 C212 1.391 . S
C212 H189 0.947 . S
C212 C211 1.391 . S
C212 C213 1.392 . S
C213 H190 0.948 . S
C213 C212 1.392 . S
C213 C214 1.419 . S
C214 C213 1.419 . S
C214 C215 1.391 . S
C214 C218 1.397 . S
C215 C210 1.391 . S
C215 C214 1.391 . S
C215 C216 1.399 . S
C216 C215 1.399 . S
C216 C217 1.396 . S
C216 C219 1.453 . S
C216 C220 1.684 . S
C217 C207 1.723 . S
C217 C216 1.396 . S
C217 C218 1.394 . S
C218 C188 1.723 . S
C218 C214 1.397 . S
C218 C217 1.394 . S
C219 H191 0.982 . S
C219 H195 0.979 . S
C219 H196 0.977 . S
C219 C216 1.453 . S
C220 H192 0.979 . S
C220 H193 0.980 . S
C220 H194 0.983 . S
C220 C216 1.684 . S
H221 C239 0.948 . S
H222 C180 0.948 . S
H223 C198 0.979 . S
H224 C198 0.980 . S
H225 C198 0.983 . S
H226 C197 0.982 . S
H227 C197 0.979 . S
H228 C197 0.977 . S
H229 C199 0.948 . S
H230 C201 0.947 . S
H231 C202 0.948 . S
H232 C208 0.982 . S
H233 C208 0.979 . S
H234 C208 0.977 . S
H235 C209 0.979 . S
H236 C209 0.980 . S
H237 C209 0.983 . S
H238 C182 0.947 . S
C239 C182 1.392 . S
C239 C183 1.419 . S
C239 H221 0.948 . S
C240 C241 1.391 . S
C240 C244 1.391 . S
C240 H282 0.948 . S
C241 C240 1.391 . S
C241 C242 1.391 . S
C242 C241 1.391 . S
C242 H298 0.947 . S
C242 C299 1.392 . S
C243 C244 1.391 . S
C243 C247 1.397 . S
C243 C299 1.419 . S
C244 C240 1.391 . S
C244 C243 1.391 . S
C244 C245 1.399 . S
C245 C244 1.399 . S
C245 C248 1.396 . S
C245 C257 1.453 . S
C245 C258 1.684 . S
H246 C270 0.948 . S
C247 C243 1.397 . S
C247 C248 1.394 . S
C247 C266 1.723 . S
C248 C245 1.396 . S
C248 C247 1.394 . S
C248 C278 1.723 . S
H249 C272 0.947 . S
H250 C273 0.948 . S
H251 C279 0.982 . S
H252 C280 0.979 . S
H253 C280 0.980 . S
H254 C280 0.983 . S
H255 C279 0.979 . S
H256 C279 0.977 . S
C257 C245 1.453 . S
C257 H286 0.982 . S
C257 H287 0.979 . S
C257 H288 0.977 . S
C258 C245 1.684 . S
C258 H283 0.979 . S
C258 H284 0.980 . S
C258 H285 0.983 . S
C259 C260 1.391 . S
C259 C264 1.391 . S
C259 H289 0.948 . S
C260 C259 1.391 . S
C260 C261 1.391 . S
C261 C260 1.391 . S
C261 C262 1.392 . S
C261 H290 0.947 . S
C262 C261 1.392 . S
C262 C263 1.419 . S
C262 H291 0.948 . S
C263 C262 1.419 . S
C263 C264 1.391 . S
C263 C267 1.397 . S
C264 C259 1.391 . S
C264 C263 1.391 . S
C264 C265 1.399 . S
C265 C264 1.399 . S
C265 C266 1.396 . S
C265 C268 1.453 . S
C265 C269 1.684 . S
C266 C247 1.723 . S
C266 C265 1.396 . S
C266 C267 1.394 . S
C267 C263 1.397 . S
C267 C266 1.394 . S
C267 C277 1.723 . S
C268 C265 1.453 . S
C268 H292 0.982 . S
C268 H293 0.979 . S
C268 H294 0.977 . S
C269 C265 1.684 . S
C269 H295 0.979 . S
C269 H296 0.980 . S
C269 H297 0.983 . S
C270 H246 0.948 . S
C270 C271 1.391 . S
C270 C275 1.391 . S
C271 C270 1.391 . S
C271 C272 1.391 . S
C272 H249 0.947 . S
C272 C271 1.391 . S
C272 C273 1.392 . S
C273 H250 0.948 . S
C273 C272 1.392 . S
C273 C274 1.419 . S
C274 C273 1.419 . S
C274 C275 1.391 . S
C274 C278 1.397 . S
C275 C270 1.391 . S
C275 C274 1.391 . S
C275 C276 1.399 . S
C276 C275 1.399 . S
C276 C277 1.396 . S
C276 C279 1.453 . S
C276 C280 1.684 . S
C277 C267 1.723 . S
C277 C276 1.396 . S
C277 C278 1.394 . S
C278 C248 1.723 . S
C278 C274 1.397 . S
C278 C277 1.394 . S
C279 H251 0.982 . S
C279 H255 0.979 . S
C279 H256 0.977 . S
C279 C276 1.453 . S
C280 H252 0.979 . S
C280 H253 0.980 . S
C280 H254 0.983 . S
C280 C276 1.684 . S
H281 C299 0.948 . S
H282 C240 0.948 . S
H283 C258 0.979 . S
H284 C258 0.980 . S
H285 C258 0.983 . S
H286 C257 0.982 . S
H287 C257 0.979 . S
H288 C257 0.977 . S
H289 C259 0.948 . S
H290 C261 0.947 . S
H291 C262 0.948 . S
H292 C268 0.982 . S
H293 C268 0.979 . S
H294 C268 0.977 . S
H295 C269 0.979 . S
H296 C269 0.980 . S
H297 C269 0.983 . S
H298 C242 0.947 . S
C299 C242 1.392 . S
C299 C243 1.419 . S
C299 H281 0.948 . S
C300 C301 1.391 . S
C300 C304 1.391 . S
C300 H342 0.948 . S
C301 C300 1.391 . S
C301 C302 1.391 . S
C302 C301 1.391 . S
C302 H358 0.947 . S
C302 C359 1.392 . S
C303 C304 1.391 . S
C303 C307 1.397 . S
C303 C359 1.419 . S
C304 C300 1.391 . S
C304 C303 1.391 . S
C304 C305 1.399 . S
C305 C304 1.399 . S
C305 C308 1.396 . S
C305 C317 1.453 . S
C305 C318 1.684 . S
H306 C330 0.948 . S
C307 C303 1.397 . S
C307 C308 1.394 . S
C307 C326 1.723 . S
C308 C305 1.396 . S
C308 C307 1.394 . S
C308 C338 1.723 . S
H309 C332 0.947 . S
H310 C333 0.948 . S
H311 C339 0.982 . S
H312 C340 0.979 . S
H313 C340 0.980 . S
H314 C340 0.983 . S
H315 C339 0.979 . S
H316 C339 0.977 . S
C317 C305 1.453 . S
C317 H346 0.982 . S
C317 H347 0.979 . S
C317 H348 0.977 . S
C318 C305 1.684 . S
C318 H343 0.979 . S
C318 H344 0.980 . S
C318 H345 0.983 . S
C319 C320 1.391 . S
C319 C324 1.391 . S
C319 H349 0.948 . S
C320 C319 1.391 . S
C320 C321 1.391 . S
C321 C320 1.391 . S
C321 C322 1.392 . S
C321 H350 0.947 . S
C322 C321 1.392 . S
C322 C323 1.419 . S
C322 H351 0.948 . S
C323 C322 1.419 . S
C323 C324 1.391 . S
C323 C327 1.397 . S
C324 C319 1.391 . S
C324 C323 1.391 . S
C324 C325 1.399 . S
C325 C324 1.399 . S
C325 C326 1.396 . S
C325 C328 1.453 . S
C325 C329 1.684 . S
C326 C307 1.723 . S
C326 C325 1.396 . S
C326 C327 1.394 . S
C327 C323 1.397 . S
C327 C326 1.394 . S
C327 C337 1.723 . S
C328 C325 1.453 . S
C328 H352 0.982 . S
C328 H353 0.979 . S
C328 H354 0.977 . S
C329 C325 1.684 . S
C329 H355 0.979 . S
C329 H356 0.980 . S
C329 H357 0.983 . S
C330 H306 0.948 . S
C330 C331 1.391 . S
C330 C335 1.391 . S
C331 C330 1.391 . S
C331 C332 1.391 . S
C332 H309 0.947 . S
C332 C331 1.391 . S
C332 C333 1.392 . S
C333 H310 0.948 . S
C333 C332 1.392 . S
C333 C334 1.419 . S
C334 C333 1.419 . S
C334 C335 1.391 . S
C334 C338 1.397 . S
C335 C330 1.391 . S
C335 C334 1.391 . S
C335 C336 1.399 . S
C336 C335 1.399 . S
C336 C337 1.396 . S
C336 C339 1.453 . S
C336 C340 1.684 . S
C337 C327 1.723 . S
C337 C336 1.396 . S
C337 C338 1.394 . S
C338 C308 1.723 . S
C338 C334 1.397 . S
C338 C337 1.394 . S
C339 H311 0.982 . S
C339 H315 0.979 . S
C339 H316 0.977 . S
C339 C336 1.453 . S
C340 H312 0.979 . S
C340 H313 0.980 . S
C340 H314 0.983 . S
C340 C336 1.684 . S
H341 C359 0.948 . S
H342 C300 0.948 . S
H343 C318 0.979 . S
H344 C318 0.980 . S
H345 C318 0.983 . S
H346 C317 0.982 . S
H347 C317 0.979 . S
H348 C317 0.977 . S
H349 C319 0.948 . S
H350 C321 0.947 . S
H351 C322 0.948 . S
H352 C328 0.982 . S
H353 C328 0.979 . S
H354 C328 0.977 . S
H355 C329 0.979 . S
H356 C329 0.980 . S
H357 C329 0.983 . S
H358 C302 0.947 . S
C359 C302 1.392 . S
C359 C303 1.419 . S
C359 H341 0.948 . S
C360 C361 1.391 . S
C360 C364 1.391 . S
C360 H402 0.948 . S
C361 C360 1.391 . S
C361 C362 1.391 . S
C362 C361 1.391 . S
C362 H418 0.947 . S
C362 C419 1.392 . S
C363 C364 1.391 . S
C363 C367 1.397 . S
C363 C419 1.419 . S
C364 C360 1.391 . S
C364 C363 1.391 . S
C364 C365 1.399 . S
C365 C364 1.399 . S
C365 C368 1.396 . S
C365 C377 1.453 . S
C365 C378 1.684 . S
H366 C390 0.948 . S
C367 C363 1.397 . S
C367 C368 1.394 . S
C367 C386 1.723 . S
C368 C365 1.396 . S
C368 C367 1.394 . S
C368 C398 1.723 . S
H369 C392 0.947 . S
H370 C393 0.948 . S
H371 C399 0.982 . S
H372 C400 0.979 . S
H373 C400 0.980 . S
H374 C400 0.983 . S
H375 C399 0.979 . S
H376 C399 0.977 . S
C377 C365 1.453 . S
C377 H406 0.982 . S
C377 H407 0.979 . S
C377 H408 0.977 . S
C378 C365 1.684 . S
C378 H403 0.979 . S
C378 H404 0.980 . S
C378 H405 0.983 . S
C379 C380 1.391 . S
C379 C384 1.391 . S
C379 H409 0.948 . S
C380 C379 1.391 . S
C380 C381 1.391 . S
C381 C380 1.391 . S
C381 C382 1.392 . S
C381 H410 0.947 . S
C382 C381 1.392 . S
C382 C383 1.419 . S
C382 H411 0.948 . S
C383 C382 1.419 . S
C383 C384 1.391 . S
C383 C387 1.397 . S
C384 C379 1.391 . S
C384 C383 1.391 . S
C384 C385 1.399 . S
C385 C384 1.399 . S
C385 C386 1.396 . S
C385 C388 1.453 . S
C385 C389 1.684 . S
C386 C367 1.723 . S
C386 C385 1.396 . S
C386 C387 1.394 . S
C387 C383 1.397 . S
C387 C386 1.394 . S
C387 C397 1.723 . S
C388 C385 1.453 . S
C388 H412 0.982 1_655 S
C388 H413 0.979 . S
C388 H414 0.977 . S
C389 C385 1.684 . S
C389 H415 0.979 . S
C389 H416 0.980 . S
C389 H417 0.983 . S
C390 H366 0.948 . S
C390 C391 1.391 . S
C390 C395 1.391 . S
C391 C390 1.391 . S
C391 C392 1.391 . S
C392 H369 0.947 . S
C392 C391 1.391 . S
C392 C393 1.392 . S
C393 H370 0.948 . S
C393 C392 1.392 . S
C393 C394 1.419 . S
C394 C393 1.419 . S
C394 C395 1.391 . S
C394 C398 1.397 . S
C395 C390 1.391 . S
C395 C394 1.391 . S
C395 C396 1.399 . S
C396 C395 1.399 . S
C396 C397 1.396 . S
C396 C399 1.453 . S
C396 C400 1.684 . S
C397 C387 1.723 . S
C397 C396 1.396 . S
C397 C398 1.394 . S
C398 C368 1.723 . S
C398 C394 1.397 . S
C398 C397 1.394 . S
C399 H371 0.982 . S
C399 H375 0.979 . S
C399 H376 0.977 . S
C399 C396 1.453 . S
C400 H372 0.979 . S
C400 H373 0.980 . S
C400 H374 0.983 . S
C400 C396 1.684 . S
H401 C419 0.948 . S
H402 C360 0.948 . S
H403 C378 0.979 . S
H404 C378 0.980 . S
H405 C378 0.983 . S
H406 C377 0.982 . S
H407 C377 0.979 . S
H408 C377 0.977 . S
H409 C379 0.948 . S
H410 C381 0.947 . S
H411 C382 0.948 . S
H412 C388 0.982 1_455 S
H413 C388 0.979 . S
H414 C388 0.977 . S
H415 C389 0.979 . S
H416 C389 0.980 . S
H417 C389 0.983 . S
H418 C362 0.947 . S
C419 C362 1.392 . S
C419 C363 1.419 . S
C419 H401 0.948 . S
C420 C421 1.391 . S
C420 C424 1.391 . S
C420 H462 0.948 . S
C421 C420 1.391 . S
C421 C422 1.391 . S
C422 C421 1.391 . S
C422 H478 0.947 . S
C422 C479 1.392 . S
C423 C424 1.391 . S
C423 C427 1.397 . S
C423 C479 1.419 . S
C424 C420 1.391 . S
C424 C423 1.391 . S
C424 C425 1.399 . S
C425 C424 1.399 . S
C425 C428 1.396 . S
C425 C437 1.453 . S
C425 C438 1.684 . S
H426 C450 0.948 . S
C427 C423 1.397 . S
C427 C428 1.394 . S
C427 C446 1.723 . S
C428 C425 1.396 . S
C428 C427 1.394 . S
C428 C458 1.723 . S
H429 C452 0.947 . S
H430 C453 0.948 . S
H431 C459 0.982 . S
H432 C460 0.979 . S
H433 C460 0.980 . S
H434 C460 0.983 . S
H435 C459 0.979 . S
H436 C459 0.977 . S
C437 C425 1.453 . S
C437 H466 0.982 . S
C437 H467 0.979 . S
C437 H468 0.977 . S
C438 C425 1.684 . S
C438 H463 0.979 . S
C438 H464 0.980 . S
C438 H465 0.983 . S
C439 C440 1.391 . S
C439 C444 1.391 . S
C439 H469 0.948 . S
C440 C439 1.391 . S
C440 C441 1.391 . S
C441 C440 1.391 . S
C441 C442 1.392 . S
C441 H470 0.947 . S
C442 C441 1.392 . S
C442 C443 1.419 . S
C442 H471 0.948 . S
C443 C442 1.419 . S
C443 C444 1.391 . S
C443 C447 1.397 . S
C444 C439 1.391 . S
C444 C443 1.391 . S
C444 C445 1.399 . S
C445 C444 1.399 . S
C445 C446 1.396 . S
C445 C448 1.453 . S
C445 C449 1.684 . S
C446 C427 1.723 . S
C446 C445 1.396 . S
C446 C447 1.394 . S
C447 C443 1.397 . S
C447 C446 1.394 . S
C447 C457 1.723 . S
C448 C445 1.453 . S
C448 H472 0.982 . S
C448 H473 0.979 . S
C448 H474 0.977 . S
C449 C445 1.684 . S
C449 H475 0.979 . S
C449 H476 0.980 . S
C449 H477 0.983 . S
C450 H426 0.948 . S
C450 C451 1.391 . S
C450 C455 1.391 . S
C451 C450 1.391 . S
C451 C452 1.391 . S
C452 H429 0.947 . S
C452 C451 1.391 . S
C452 C453 1.392 . S
C453 H430 0.948 . S
C453 C452 1.392 . S
C453 C454 1.419 . S
C454 C453 1.419 . S
C454 C455 1.391 . S
C454 C458 1.397 . S
C455 C450 1.391 . S
C455 C454 1.391 . S
C455 C456 1.399 . S
C456 C455 1.399 . S
C456 C457 1.396 . S
C456 C459 1.453 . S
C456 C460 1.684 . S
C457 C447 1.723 . S
C457 C456 1.396 . S
C457 C458 1.394 . S
C458 C428 1.723 . S
C458 C454 1.397 . S
C458 C457 1.394 . S
C459 H431 0.982 . S
C459 H435 0.979 . S
C459 H436 0.977 . S
C459 C456 1.453 . S
C460 H432 0.979 . S
C460 H433 0.980 . S
C460 H434 0.983 . S
C460 C456 1.684 . S
H461 C479 0.948 . S
H462 C420 0.948 . S
H463 C438 0.979 . S
H464 C438 0.980 . S
H465 C438 0.983 . S
H466 C437 0.982 . S
H467 C437 0.979 . S
H468 C437 0.977 . S
H469 C439 0.948 . S
H470 C441 0.947 . S
H471 C442 0.948 . S
H472 C448 0.982 . S
H473 C448 0.979 . S
H474 C448 0.977 . S
H475 C449 0.979 . S
H476 C449 0.980 . S
H477 C449 0.983 . S
H478 C422 0.947 . S
C479 C422 1.392 . S
C479 C423 1.419 . S
C479 H461 0.948 . S
C480 C481 1.391 . S
C480 C484 1.391 . S
C480 H522 0.948 . S
C481 C480 1.391 . S
C481 C482 1.391 . S
C482 C481 1.391 . S
C482 H538 0.947 . S
C482 C539 1.392 . S
C483 C484 1.391 . S
C483 C487 1.397 . S
C483 C539 1.419 . S
C484 C480 1.391 . S
C484 C483 1.391 . S
C484 C485 1.399 . S
C485 C484 1.399 . S
C485 C488 1.396 . S
C485 C497 1.453 . S
C485 C498 1.684 . S
H486 C510 0.948 . S
C487 C483 1.397 . S
C487 C488 1.394 . S
C487 C506 1.723 . S
C488 C485 1.396 . S
C488 C487 1.394 . S
C488 C518 1.723 . S
H489 C512 0.947 . S
H490 C513 0.948 . S
H491 C519 0.982 . S
H492 C520 0.979 . S
H493 C520 0.980 . S
H494 C520 0.983 . S
H495 C519 0.979 . S
H496 C519 0.977 . S
C497 C485 1.453 . S
C497 H526 0.982 . S
C497 H527 0.979 . S
C497 H528 0.977 . S
C498 C485 1.684 . S
C498 H523 0.979 . S
C498 H524 0.980 . S
C498 H525 0.983 . S
C499 C500 1.391 . S
C499 C504 1.391 . S
C499 H529 0.948 . S
C500 C499 1.391 . S
C500 C501 1.391 . S
C501 C500 1.391 . S
C501 C502 1.392 . S
C501 H530 0.947 . S
C502 C501 1.392 . S
C502 C503 1.419 . S
C502 H531 0.948 . S
C503 C502 1.419 . S
C503 C504 1.391 . S
C503 C507 1.397 . S
C504 C499 1.391 . S
C504 C503 1.391 . S
C504 C505 1.399 . S
C505 C504 1.399 . S
C505 C506 1.396 . S
C505 C508 1.453 . S
C505 C509 1.684 . S
C506 C487 1.723 . S
C506 C505 1.396 . S
C506 C507 1.394 . S
C507 C503 1.397 . S
C507 C506 1.394 . S
C507 C517 1.723 . S
C508 C505 1.453 . S
C508 H532 0.982 . S
C508 H533 0.979 . S
C508 H534 0.977 . S
C509 C505 1.684 . S
C509 H535 0.979 . S
C509 H536 0.980 . S
C509 H537 0.983 . S
C510 H486 0.948 . S
C510 C511 1.391 . S
C510 C515 1.391 . S
C511 C510 1.391 . S
C511 C512 1.391 . S
C512 H489 0.947 . S
C512 C511 1.391 . S
C512 C513 1.392 . S
C513 H490 0.948 . S
C513 C512 1.392 . S
C513 C514 1.419 . S
C514 C513 1.419 . S
C514 C515 1.391 . S
C514 C518 1.397 . S
C515 C510 1.391 . S
C515 C514 1.391 . S
C515 C516 1.399 . S
C516 C515 1.399 . S
C516 C517 1.396 . S
C516 C519 1.453 . S
C516 C520 1.684 . S
C517 C507 1.723 . S
C517 C516 1.396 . S
C517 C518 1.394 . S
C518 C488 1.723 . S
C518 C514 1.397 . S
C518 C517 1.394 . S
C519 H491 0.982 . S
C519 H495 0.979 . S
C519 H496 0.977 . S
C519 C516 1.453 . S
C520 H492 0.979 . S
C520 H493 0.980 . S
C520 H494 0.983 . S
C520 C516 1.684 . S
H521 C539 0.948 . S
H522 C480 0.948 . S
H523 C498 0.979 . S
H524 C498 0.980 . S
H525 C498 0.983 . S
H526 C497 0.982 . S
H527 C497 0.979 . S
H528 C497 0.977 . S
H529 C499 0.948 . S
H530 C501 0.947 . S
H531 C502 0.948 . S
H532 C508 0.982 . S
H533 C508 0.979 . S
H534 C508 0.977 . S
H535 C509 0.979 . S
H536 C509 0.980 . S
H537 C509 0.983 . S
H538 C482 0.947 . S
C539 C482 1.392 . S
C539 C483 1.419 . S
C539 H521 0.948 . S
C540 C541 1.391 . S
C540 C544 1.391 . S
C540 H582 0.948 . S
C541 C540 1.391 . S
C541 C542 1.391 . S
C542 C541 1.391 . S
C542 H598 0.947 . S
C542 C599 1.392 . S
C543 C544 1.391 . S
C543 C547 1.397 . S
C543 C599 1.419 . S
C544 C540 1.391 . S
C544 C543 1.391 . S
C544 C545 1.399 . S
C545 C544 1.399 . S
C545 C548 1.396 . S
C545 C557 1.453 . S
C545 C558 1.684 . S
H546 C570 0.948 . S
C547 C543 1.397 . S
C547 C548 1.394 . S
C547 C566 1.723 . S
C548 C545 1.396 . S
C548 C547 1.394 . S
C548 C578 1.723 . S
H549 C572 0.947 . S
H550 C573 0.948 . S
H551 C579 0.982 . S
H552 C580 0.979 . S
H553 C580 0.980 . S
H554 C580 0.983 . S
H555 C579 0.979 . S
H556 C579 0.977 . S
C557 C545 1.453 . S
C557 H586 0.982 . S
C557 H587 0.979 . S
C557 H588 0.977 . S
C558 C545 1.684 . S
C558 H583 0.979 . S
C558 H584 0.980 . S
C558 H585 0.983 . S
C559 C560 1.391 . S
C559 C564 1.391 . S
C559 H589 0.948 . S
C560 C559 1.391 . S
C560 C561 1.391 . S
C561 C560 1.391 . S
C561 C562 1.392 . S
C561 H590 0.947 . S
C562 C561 1.392 . S
C562 C563 1.419 . S
C562 H591 0.948 . S
C563 C562 1.419 . S
C563 C564 1.391 . S
C563 C567 1.397 . S
C564 C559 1.391 . S
C564 C563 1.391 . S
C564 C565 1.399 . S
C565 C564 1.399 . S
C565 C566 1.396 . S
C565 C568 1.453 . S
C565 C569 1.684 . S
C566 C547 1.723 . S
C566 C565 1.396 . S
C566 C567 1.394 . S
C567 C563 1.397 . S
C567 C566 1.394 . S
C567 C577 1.723 . S
C568 C565 1.453 . S
C568 H592 0.982 . S
C568 H593 0.979 . S
C568 H594 0.977 . S
C569 C565 1.684 . S
C569 H595 0.979 . S
C569 H596 0.980 . S
C569 H597 0.983 . S
C570 H546 0.948 . S
C570 C571 1.391 . S
C570 C575 1.391 . S
C571 C570 1.391 . S
C571 C572 1.391 . S
C572 H549 0.947 . S
C572 C571 1.391 . S
C572 C573 1.392 . S
C573 H550 0.948 . S
C573 C572 1.392 . S
C573 C574 1.419 . S
C574 C573 1.419 . S
C574 C575 1.391 . S
C574 C578 1.397 . S
C575 C570 1.391 . S
C575 C574 1.391 . S
C575 C576 1.399 . S
C576 C575 1.399 . S
C576 C577 1.396 . S
C576 C579 1.453 . S
C576 C580 1.684 . S
C577 C567 1.723 . S
C577 C576 1.396 . S
C577 C578 1.394 . S
C578 C548 1.723 . S
C578 C574 1.397 . S
C578 C577 1.394 . S
C579 H551 0.982 . S
C579 H555 0.979 . S
C579 H556 0.977 . S
C579 C576 1.453 . S
C580 H552 0.979 . S
C580 H553 0.980 . S
C580 H554 0.983 . S
C580 C576 1.684 . S
H581 C599 0.948 . S
H582 C540 0.948 . S
H583 C558 0.979 . S
H584 C558 0.980 . S
H585 C558 0.983 . S
H586 C557 0.982 . S
H587 C557 0.979 . S
H588 C557 0.977 . S
H589 C559 0.948 . S
H590 C561 0.947 . S
H591 C562 0.948 . S
H592 C568 0.982 . S
H593 C568 0.979 . S
H594 C568 0.977 . S
H595 C569 0.979 . S
H596 C569 0.980 . S
H597 C569 0.983 . S
H598 C542 0.947 . S
C599 C542 1.392 . S
C599 C543 1.419 . S
C599 H581 0.948 . S
C600 C601 1.391 . S
C600 C604 1.391 . S
C600 H642 0.948 . S
C601 C600 1.391 . S
C601 C602 1.391 . S
C602 C601 1.391 . S
C602 H658 0.947 . S
C602 C659 1.392 . S
C603 C604 1.391 . S
C603 C607 1.397 . S
C603 C659 1.419 . S
C604 C600 1.391 . S
C604 C603 1.391 . S
C604 C605 1.399 . S
C605 C604 1.399 . S
C605 C608 1.396 . S
C605 C617 1.453 . S
C605 C618 1.684 . S
H606 C630 0.948 . S
C607 C603 1.397 . S
C607 C608 1.394 . S
C607 C626 1.723 . S
C608 C605 1.396 . S
C608 C607 1.394 . S
C608 C638 1.723 . S
H609 C632 0.947 . S
H610 C633 0.948 . S
H611 C639 0.982 . S
H612 C640 0.979 . S
H613 C640 0.980 . S
H614 C640 0.983 . S
H615 C639 0.979 . S
H616 C639 0.977 . S
C617 C605 1.453 . S
C617 H646 0.982 . S
C617 H647 0.979 . S
C617 H648 0.977 . S
C618 C605 1.684 . S
C618 H643 0.979 . S
C618 H644 0.980 . S
C618 H645 0.983 . S
C619 C620 1.391 . S
C619 C624 1.391 . S
C619 H649 0.948 . S
C620 C619 1.391 . S
C620 C621 1.391 . S
C621 C620 1.391 . S
C621 C622 1.392 . S
C621 H650 0.947 . S
C622 C621 1.392 . S
C622 C623 1.419 . S
C622 H651 0.948 . S
C623 C622 1.419 . S
C623 C624 1.391 . S
C623 C627 1.397 . S
C624 C619 1.391 . S
C624 C623 1.391 . S
C624 C625 1.399 . S
C625 C624 1.399 . S
C625 C626 1.396 . S
C625 C628 1.453 . S
C625 C629 1.684 . S
C626 C607 1.723 . S
C626 C625 1.396 . S
C626 C627 1.394 . S
C627 C623 1.397 . S
C627 C626 1.394 . S
C627 C637 1.723 . S
C628 C625 1.453 . S
C628 H652 0.982 . S
C628 H653 0.979 . S
C628 H654 0.977 . S
C629 C625 1.684 . S
C629 H655 0.979 . S
C629 H656 0.980 . S
C629 H657 0.983 . S
C630 H606 0.948 . S
C630 C631 1.391 . S
C630 C635 1.391 . S
C631 C630 1.391 . S
C631 C632 1.391 . S
C632 H609 0.947 . S
C632 C631 1.391 . S
C632 C633 1.392 . S
C633 H610 0.948 . S
C633 C632 1.392 . S
C633 C634 1.419 . S
C634 C633 1.419 . S
C634 C635 1.391 . S
C634 C638 1.397 . S
C635 C630 1.391 . S
C635 C634 1.391 . S
C635 C636 1.399 . S
C636 C635 1.399 . S
C636 C637 1.396 . S
C636 C639 1.453 . S
C636 C640 1.684 . S
C637 C627 1.723 . S
C637 C636 1.396 . S
C637 C638 1.394 . S
C638 C608 1.723 . S
C638 C634 1.397 . S
C638 C637 1.394 . S
C639 H611 0.982 . S
C639 H615 0.979 . S
C639 H616 0.977 . S
C639 C636 1.453 . S
C640 H612 0.979 . S
C640 H613 0.980 . S
C640 H614 0.983 . S
C640 C636 1.684 . S
H641 C659 0.948 . S
H642 C600 0.948 . S
H643 C618 0.979 . S
H644 C618 0.980 . S
H645 C618 0.983 . S
H646 C617 0.982 . S
H647 C617 0.979 . S
H648 C617 0.977 . S
H649 C619 0.948 . S
H650 C621 0.947 . S
H651 C622 0.948 . S
H652 C628 0.982 . S
H653 C628 0.979 . S
H654 C628 0.977 . S
H655 C629 0.979 . S
H656 C629 0.980 . S
H657 C629 0.983 . S
H658 C602 0.947 . S
C659 C602 1.392 . S
C659 C603 1.419 . S
C659 H641 0.948 . S
C660 C661 1.391 . S
C660 C664 1.391 . S
C660 H702 0.948 . S
C661 C660 1.391 . S
C661 C662 1.391 . S
C662 C661 1.391 . S
C662 H718 0.947 . S
C662 C719 1.392 . S
C663 C664 1.391 . S
C663 C667 1.397 . S
C663 C719 1.419 . S
C664 C660 1.391 . S
C664 C663 1.391 . S
C664 C665 1.399 . S
C665 C664 1.399 . S
C665 C668 1.396 . S
C665 C677 1.453 . S
C665 C678 1.684 . S
H666 C690 0.948 . S
C667 C663 1.397 . S
C667 C668 1.394 . S
C667 C686 1.723 . S
C668 C665 1.396 . S
C668 C667 1.394 . S
C668 C698 1.723 . S
H669 C692 0.947 . S
H670 C693 0.948 . S
H671 C699 0.982 . S
H672 C700 0.979 . S
H673 C700 0.980 . S
H674 C700 0.983 . S
H675 C699 0.979 . S
H676 C699 0.977 . S
C677 C665 1.453 . S
C677 H706 0.982 . S
C677 H707 0.979 . S
C677 H708 0.977 . S
C678 C665 1.684 . S
C678 H703 0.979 . S
C678 H704 0.980 . S
C678 H705 0.983 . S
C679 C680 1.391 . S
C679 C684 1.391 . S
C679 H709 0.948 . S
C680 C679 1.391 . S
C680 C681 1.391 . S
C681 C680 1.391 . S
C681 C682 1.392 . S
C681 H710 0.947 . S
C682 C681 1.392 . S
C682 C683 1.419 . S
C682 H711 0.948 . S
C683 C682 1.419 . S
C683 C684 1.391 . S
C683 C687 1.397 . S
C684 C679 1.391 . S
C684 C683 1.391 . S
C684 C685 1.399 . S
C685 C684 1.399 . S
C685 C686 1.396 . S
C685 C688 1.453 . S
C685 C689 1.684 . S
C686 C667 1.723 . S
C686 C685 1.396 . S
C686 C687 1.394 . S
C687 C683 1.397 . S
C687 C686 1.394 . S
C687 C697 1.723 . S
C688 C685 1.453 . S
C688 H712 0.982 . S
C688 H713 0.979 . S
C688 H714 0.977 . S
C689 C685 1.684 . S
C689 H715 0.979 . S
C689 H716 0.980 . S
C689 H717 0.983 . S
C690 H666 0.948 . S
C690 C691 1.391 . S
C690 C695 1.391 . S
C691 C690 1.391 . S
C691 C692 1.391 . S
C692 H669 0.947 . S
C692 C691 1.391 . S
C692 C693 1.392 . S
C693 H670 0.948 . S
C693 C692 1.392 . S
C693 C694 1.419 . S
C694 C693 1.419 . S
C694 C695 1.391 . S
C694 C698 1.397 . S
C695 C690 1.391 . S
C695 C694 1.391 . S
C695 C696 1.399 . S
C696 C695 1.399 . S
C696 C697 1.396 . S
C696 C699 1.453 . S
C696 C700 1.684 . S
C697 C687 1.723 . S
C697 C696 1.396 . S
C697 C698 1.394 . S
C698 C668 1.723 . S
C698 C694 1.397 . S
C698 C697 1.394 . S
C699 H671 0.982 . S
C699 H675 0.979 . S
C699 H676 0.977 . S
C699 C696 1.453 . S
C700 H672 0.979 . S
C700 H673 0.980 . S
C700 H674 0.983 . S
C700 C696 1.684 . S
H701 C719 0.948 . S
H702 C660 0.948 . S
H703 C678 0.979 . S
H704 C678 0.980 . S
H705 C678 0.983 . S
H706 C677 0.982 . S
H707 C677 0.979 . S
H708 C677 0.977 . S
H709 C679 0.948 . S
H710 C681 0.947 . S
H711 C682 0.948 . S
H712 C688 0.982 . S
H713 C688 0.979 . S
H714 C688 0.977 . S
H715 C689 0.979 . S
H716 C689 0.980 . S
H717 C689 0.983 . S
H718 C662 0.947 . S
C719 C662 1.392 . S
C719 C663 1.419 . S
C719 H701 0.948 . S
C720 C721 1.391 . S
C720 C724 1.391 . S
C720 H762 0.948 . S
C721 C720 1.391 . S
C721 C722 1.391 . S
C722 C721 1.391 . S
C722 H778 0.947 . S
C722 C779 1.392 . S
C723 C724 1.391 . S
C723 C727 1.397 . S
C723 C779 1.419 . S
C724 C720 1.391 . S
C724 C723 1.391 . S
C724 C725 1.399 . S
C725 C724 1.399 . S
C725 C728 1.396 . S
C725 C737 1.453 . S
C725 C738 1.684 . S
H726 C750 0.948 . S
C727 C723 1.397 . S
C727 C728 1.394 . S
C727 C746 1.723 . S
C728 C725 1.396 . S
C728 C727 1.394 . S
C728 C758 1.723 . S
H729 C752 0.947 . S
H730 C753 0.948 . S
H731 C759 0.982 . S
H732 C760 0.979 . S
H733 C760 0.980 . S
H734 C760 0.983 . S
H735 C759 0.979 . S
H736 C759 0.977 . S
C737 C725 1.453 . S
C737 H766 0.982 . S
C737 H767 0.979 . S
C737 H768 0.977 . S
C738 C725 1.684 . S
C738 H763 0.979 . S
C738 H764 0.980 . S
C738 H765 0.983 . S
C739 C740 1.391 . S
C739 C744 1.391 . S
C739 H769 0.948 . S
C740 C739 1.391 . S
C740 C741 1.391 . S
C741 C740 1.391 . S
C741 C742 1.392 . S
C741 H770 0.947 . S
C742 C741 1.392 . S
C742 C743 1.419 . S
C742 H771 0.948 . S
C743 C742 1.419 . S
C743 C744 1.391 . S
C743 C747 1.397 . S
C744 C739 1.391 . S
C744 C743 1.391 . S
C744 C745 1.399 . S
C745 C744 1.399 . S
C745 C746 1.396 . S
C745 C748 1.453 . S
C745 C749 1.684 . S
C746 C727 1.723 . S
C746 C745 1.396 . S
C746 C747 1.394 . S
C747 C743 1.397 . S
C747 C746 1.394 . S
C747 C757 1.723 . S
C748 C745 1.453 . S
C748 H772 0.982 . S
C748 H773 0.979 . S
C748 H774 0.977 . S
C749 C745 1.684 . S
C749 H775 0.979 . S
C749 H776 0.980 . S
C749 H777 0.983 . S
C750 H726 0.948 . S
C750 C751 1.391 . S
C750 C755 1.391 . S
C751 C750 1.391 . S
C751 C752 1.391 . S
C752 H729 0.947 . S
C752 C751 1.391 . S
C752 C753 1.392 . S
C753 H730 0.948 . S
C753 C752 1.392 . S
C753 C754 1.419 . S
C754 C753 1.419 . S
C754 C755 1.391 . S
C754 C758 1.397 . S
C755 C750 1.391 . S
C755 C754 1.391 . S
C755 C756 1.399 . S
C756 C755 1.399 . S
C756 C757 1.396 . S
C756 C759 1.453 . S
C756 C760 1.684 . S
C757 C747 1.723 . S
C757 C756 1.396 . S
C757 C758 1.394 . S
C758 C728 1.723 . S
C758 C754 1.397 . S
C758 C757 1.394 . S
C759 H731 0.982 . S
C759 H735 0.979 . S
C759 H736 0.977 . S
C759 C756 1.453 . S
C760 H732 0.979 . S
C760 H733 0.980 . S
C760 H734 0.983 . S
C760 C756 1.684 . S
H761 C779 0.948 . S
H762 C720 0.948 . S
H763 C738 0.979 . S
H764 C738 0.980 . S
H765 C738 0.983 . S
H766 C737 0.982 . S
H767 C737 0.979 . S
H768 C737 0.977 . S
H769 C739 0.948 . S
H770 C741 0.947 . S
H771 C742 0.948 . S
H772 C748 0.982 . S
H773 C748 0.979 . S
H774 C748 0.977 . S
H775 C749 0.979 . S
H776 C749 0.980 . S
H777 C749 0.983 . S
H778 C722 0.947 . S
C779 C722 1.392 . S
C779 C723 1.419 . S
C779 H761 0.948 . S
C780 C781 1.391 . S
C780 C784 1.391 . S
C780 H822 0.948 . S
C781 C780 1.391 . S
C781 C782 1.391 . S
C782 C781 1.391 . S
C782 H838 0.947 . S
C782 C839 1.392 . S
C783 C784 1.391 . S
C783 C787 1.397 . S
C783 C839 1.419 . S
C784 C780 1.391 . S
C784 C783 1.391 . S
C784 C785 1.399 . S
C785 C784 1.399 . S
C785 C788 1.396 . S
C785 C797 1.453 . S
C785 C798 1.684 . S
H786 C810 0.948 . S
C787 C783 1.397 . S
C787 C788 1.394 . S
C787 C806 1.723 . S
C788 C785 1.396 . S
C788 C787 1.394 . S
C788 C818 1.723 . S
H789 C812 0.947 . S
H790 C813 0.948 . S
H791 C819 0.982 . S
H792 C820 0.979 . S
H793 C820 0.980 . S
H794 C820 0.983 . S
H795 C819 0.979 . S
H796 C819 0.977 . S
C797 C785 1.453 . S
C797 H826 0.982 . S
C797 H827 0.979 . S
C797 H828 0.977 . S
C798 C785 1.684 . S
C798 H823 0.979 . S
C798 H824 0.980 . S
C798 H825 0.983 . S
C799 C800 1.391 . S
C799 C804 1.391 . S
C799 H829 0.948 . S
C800 C799 1.391 . S
C800 C801 1.391 . S
C801 C800 1.391 . S
C801 C802 1.392 . S
C801 H830 0.947 . S
C802 C801 1.392 . S
C802 C803 1.419 . S
C802 H831 0.948 . S
C803 C802 1.419 . S
C803 C804 1.391 . S
C803 C807 1.397 . S
C804 C799 1.391 . S
C804 C803 1.391 . S
C804 C805 1.399 . S
C805 C804 1.399 . S
C805 C806 1.396 . S
C805 C808 1.453 . S
C805 C809 1.684 . S
C806 C787 1.723 . S
C806 C805 1.396 . S
C806 C807 1.394 . S
C807 C803 1.397 . S
C807 C806 1.394 . S
C807 C817 1.723 . S
C808 C805 1.453 . S
C808 H832 0.982 . S
C808 H833 0.979 . S
C808 H834 0.977 . S
C809 C805 1.684 . S
C809 H835 0.979 . S
C809 H836 0.980 . S
C809 H837 0.983 . S
C810 H786 0.948 . S
C810 C811 1.391 . S
C810 C815 1.391 . S
C811 C810 1.391 . S
C811 C812 1.391 . S
C812 H789 0.947 . S
C812 C811 1.391 . S
C812 C813 1.392 . S
C813 H790 0.948 . S
C813 C812 1.392 . S
C813 C814 1.419 . S
C814 C813 1.419 . S
C814 C815 1.391 . S
C814 C818 1.397 . S
C815 C810 1.391 . S
C815 C814 1.391 . S
C815 C816 1.399 . S
C816 C815 1.399 . S
C816 C817 1.396 . S
C816 C819 1.453 . S
C816 C820 1.684 . S
C817 C807 1.723 . S
C817 C816 1.396 . S
C817 C818 1.394 . S
C818 C788 1.723 . S
C818 C814 1.397 . S
C818 C817 1.394 . S
C819 H791 0.982 . S
C819 H795 0.979 . S
C819 H796 0.977 . S
C819 C816 1.453 . S
C820 H792 0.979 . S
C820 H793 0.980 . S
C820 H794 0.983 . S
C820 C816 1.684 . S
H821 C839 0.948 . S
H822 C780 0.948 . S
H823 C798 0.979 . S
H824 C798 0.980 . S
H825 C798 0.983 . S
H826 C797 0.982 . S
H827 C797 0.979 . S
H828 C797 0.977 . S
H829 C799 0.948 . S
H830 C801 0.947 . S
H831 C802 0.948 . S
H832 C808 0.982 . S
H833 C808 0.979 . S
H834 C808 0.977 . S
H835 C809 0.979 . S
H836 C809 0.980 . S
H837 C809 0.983 . S
H838 C782 0.947 . S
C839 C782 1.392 . S
C839 C783 1.419 . S
C839 H821 0.948 . S
C840 C841 1.391 . S
C840 C844 1.391 . S
C840 H882 0.948 . S
C841 C840 1.391 . S
C841 C842 1.391 . S
C842 C841 1.391 . S
C842 H898 0.947 . S
C842 C899 1.392 . S
C843 C844 1.391 . S
C843 C847 1.397 . S
C843 C899 1.419 . S
C844 C840 1.391 . S
C844 C843 1.391 . S
C844 C845 1.399 . S
C845 C844 1.399 . S
C845 C848 1.396 . S
C845 C857 1.453 . S
C845 C858 1.684 . S
H846 C870 0.948 . S
C847 C843 1.397 . S
C847 C848 1.394 . S
C847 C866 1.723 . S
C848 C845 1.396 . S
C848 C847 1.394 . S
C848 C878 1.723 . S
H849 C872 0.947 . S
H850 C873 0.948 . S
H851 C879 0.982 . S
H852 C880 0.979 . S
H853 C880 0.980 . S
H854 C880 0.983 . S
H855 C879 0.979 . S
H856 C879 0.977 . S
C857 C845 1.453 . S
C857 H886 0.982 . S
C857 H887 0.979 . S
C857 H888 0.977 . S
C858 C845 1.684 . S
C858 H883 0.979 . S
C858 H884 0.980 . S
C858 H885 0.983 . S
C859 C860 1.391 . S
C859 C864 1.391 . S
C859 H889 0.948 . S
C860 C859 1.391 . S
C860 C861 1.391 . S
C861 C860 1.391 . S
C861 C862 1.392 . S
C861 H890 0.947 . S
C862 C861 1.392 . S
C862 C863 1.419 . S
C862 H891 0.948 . S
C863 C862 1.419 . S
C863 C864 1.391 . S
C863 C867 1.397 . S
C864 C859 1.391 . S
C864 C863 1.391 . S
C864 C865 1.399 . S
C865 C864 1.399 . S
C865 C866 1.396 . S
C865 C868 1.453 . S
C865 C869 1.684 . S
C866 C847 1.723 . S
C866 C865 1.396 . S
C866 C867 1.394 . S
C867 C863 1.397 . S
C867 C866 1.394 . S
C867 C877 1.723 . S
C868 C865 1.453 . S
C868 H892 0.982 . S
C868 H893 0.979 . S
C868 H894 0.977 . S
C869 C865 1.684 . S
C869 H895 0.979 . S
C869 H896 0.980 . S
C869 H897 0.983 . S
C870 H846 0.948 . S
C870 C871 1.391 . S
C870 C875 1.391 . S
C871 C870 1.391 . S
C871 C872 1.391 . S
C872 H849 0.947 . S
C872 C871 1.391 . S
C872 C873 1.392 . S
C873 H850 0.948 . S
C873 C872 1.392 . S
C873 C874 1.419 . S
C874 C873 1.419 . S
C874 C875 1.391 . S
C874 C878 1.397 . S
C875 C870 1.391 . S
C875 C874 1.391 . S
C875 C876 1.399 . S
C876 C875 1.399 . S
C876 C877 1.396 . S
C876 C879 1.453 . S
C876 C880 1.684 . S
C877 C867 1.723 . S
C877 C876 1.396 . S
C877 C878 1.394 . S
C878 C848 1.723 . S
C878 C874 1.397 . S
C878 C877 1.394 . S
C879 H851 0.982 . S
C879 H855 0.979 . S
C879 H856 0.977 . S
C879 C876 1.453 . S
C880 H852 0.979 . S
C880 H853 0.980 . S
C880 H854 0.983 . S
C880 C876 1.684 . S
H881 C899 0.948 . S
H882 C840 0.948 . S
H883 C858 0.979 . S
H884 C858 0.980 . S
H885 C858 0.983 . S
H886 C857 0.982 . S
H887 C857 0.979 . S
H888 C857 0.977 . S
H889 C859 0.948 . S
H890 C861 0.947 . S
H891 C862 0.948 . S
H892 C868 0.982 . S
H893 C868 0.979 . S
H894 C868 0.977 . S
H895 C869 0.979 . S
H896 C869 0.980 . S
H897 C869 0.983 . S
H898 C842 0.947 . S
C899 C842 1.392 . S
C899 C843 1.419 . S
C899 H881 0.948 . S
C900 C901 1.391 . S
C900 C904 1.391 . S
C900 H942 0.948 . S
C901 C900 1.391 . S
C901 C902 1.391 . S
C902 C901 1.391 . S
C902 H958 0.947 . S
C902 C959 1.392 . S
C903 C904 1.391 . S
C903 C907 1.397 . S
C903 C959 1.419 . S
C904 C900 1.391 . S
C904 C903 1.391 . S
C904 C905 1.399 . S
C905 C904 1.399 . S
C905 C908 1.396 . S
C905 C917 1.453 . S
C905 C918 1.684 . S
H906 C930 0.948 . S
C907 C903 1.397 . S
C907 C908 1.394 . S
C907 C926 1.723 . S
C908 C905 1.396 . S
C908 C907 1.394 . S
C908 C938 1.723 . S
H909 C932 0.947 . S
H910 C933 0.948 . S
H911 C939 0.982 . S
H912 C940 0.979 . S
H913 C940 0.980 . S
H914 C940 0.983 . S
H915 C939 0.979 . S
H916 C939 0.977 . S
C917 C905 1.453 . S
C917 H946 0.982 . S
C917 H947 0.979 . S
C917 H948 0.977 . S
C918 C905 1.684 . S
C918 H943 0.979 . S
C918 H944 0.980 . S
C918 H945 0.983 . S
C919 C920 1.391 . S
C919 C924 1.391 . S
C919 H949 0.948 . S
C920 C919 1.391 . S
C920 C921 1.391 . S
C921 C920 1.391 . S
C921 C922 1.392 . S
C921 H950 0.947 . S
C922 C921 1.392 . S
C922 C923 1.419 . S
C922 H951 0.948 . S
C923 C922 1.419 . S
C923 C924 1.391 . S
C923 C927 1.397 . S
C924 C919 1.391 . S
C924 C923 1.391 . S
C924 C925 1.399 . S
C925 C924 1.399 . S
C925 C926 1.396 . S
C925 C928 1.453 . S
C925 C929 1.684 . S
C926 C907 1.723 . S
C926 C925 1.396 . S
C926 C927 1.394 . S
C927 C923 1.397 . S
C927 C926 1.394 . S
C927 C937 1.723 . S
C928 C925 1.453 . S
C928 H952 0.982 . S
C928 H953 0.979 . S
C928 H954 0.977 . S
C929 C925 1.684 . S
C929 H955 0.979 . S
C929 H956 0.980 . S
C929 H957 0.983 . S
C930 H906 0.948 . S
C930 C931 1.391 . S
C930 C935 1.391 . S
C931 C930 1.391 . S
C931 C932 1.391 . S
C932 H909 0.947 . S
C932 C931 1.391 . S
C932 C933 1.392 . S
C933 H910 0.948 . S
C933 C932 1.392 . S
C933 C934 1.419 . S
C934 C933 1.419 . S
C934 C935 1.391 . S
C934 C938 1.397 . S
C935 C930 1.391 . S
C935 C934 1.391 . S
C935 C936 1.399 . S
C936 C935 1.399 . S
C936 C937 1.396 . S
C936 C939 1.453 . S
C936 C940 1.684 . S
C937 C927 1.723 . S
C937 C936 1.396 . S
C937 C938 1.394 . S
C938 C908 1.723 . S
C938 C934 1.397 . S
C938 C937 1.394 . S
C939 H911 0.982 . S
C939 H915 0.979 . S
C939 H916 0.977 . S
C939 C936 1.453 . S
C940 H912 0.979 . S
C940 H913 0.980 . S
C940 H914 0.983 . S
C940 C936 1.684 . S
H941 C959 0.948 . S
H942 C900 0.948 . S
H943 C918 0.979 . S
H944 C918 0.980 . S
H945 C918 0.983 . S
H946 C917 0.982 . S
H947 C917 0.979 . S
H948 C917 0.977 . S
H949 C919 0.948 . S
H950 C921 0.947 . S
H951 C922 0.948 . S
H952 C928 0.982 . S
H953 C928 0.979 . S
H954 C928 0.977 . S
H955 C929 0.979 . S
H956 C929 0.980 . S
H957 C929 0.983 . S
H958 C902 0.947 . S
C959 C902 1.392 . S
C959 C903 1.419 . S
C959 H941 0.948 . S
C960 C961 1.391 . S
C960 C964 1.391 . S
C960 H1002 0.948 . S
C961 C960 1.391 . S
C961 C962 1.391 . S
C962 C961 1.391 . S
C962 H1018 0.947 . S
C962 C1019 1.392 . S
C963 C964 1.391 . S
C963 C967 1.397 . S
C963 C1019 1.419 . S
C964 C960 1.391 . S
C964 C963 1.391 . S
C964 C965 1.399 . S
C965 C964 1.399 . S
C965 C968 1.396 . S
C965 C977 1.453 . S
C965 C978 1.684 . S
H966 C990 0.948 . S
C967 C963 1.397 . S
C967 C968 1.394 . S
C967 C986 1.723 . S
C968 C965 1.396 . S
C968 C967 1.394 . S
C968 C998 1.723 . S
H969 C992 0.947 . S
H970 C993 0.948 . S
H971 C999 0.982 . S
H972 C1000 0.979 1_655 S
H973 C1000 0.980 . S
H974 C1000 0.983 . S
H975 C999 0.979 . S
H976 C999 0.977 . S
C977 C965 1.453 . S
C977 H1006 0.982 . S
C977 H1007 0.979 . S
C977 H1008 0.977 . S
C978 C965 1.684 . S
C978 H1003 0.979 . S
C978 H1004 0.980 . S
C978 H1005 0.983 . S
C979 C980 1.391 . S
C979 C984 1.391 . S
C979 H1009 0.948 . S
C980 C979 1.391 . S
C980 C981 1.391 . S
C981 C980 1.391 . S
C981 C982 1.392 . S
C981 H1010 0.947 . S
C982 C981 1.392 . S
C982 C983 1.419 . S
C982 H1011 0.948 . S
C983 C982 1.419 . S
C983 C984 1.391 . S
C983 C987 1.397 . S
C984 C979 1.391 . S
C984 C983 1.391 . S
C984 C985 1.399 . S
C985 C984 1.399 . S
C985 C986 1.396 . S
C985 C988 1.453 . S
C985 C989 1.684 . S
C986 C967 1.723 . S
C986 C985 1.396 . S
C986 C987 1.394 . S
C987 C983 1.397 . S
C987 C986 1.394 . S
C987 C997 1.723 . S
C988 C985 1.453 . S
C988 H1012 0.982 . S
C988 H1013 0.979 . S
C988 H1014 0.977 . S
C989 C985 1.684 . S
C989 H1015 0.979 1_455 S
C989 H1016 0.980 . S
C989 H1017 0.983 . S
C990 H966 0.948 . S
C990 C991 1.391 . S
C990 C995 1.391 . S
C991 C990 1.391 . S
C991 C992 1.391 . S
C992 H969 0.947 . S
C992 C991 1.391 . S
C992 C993 1.392 . S
C993 H970 0.948 . S
C993 C992 1.392 . S
C993 C994 1.419 . S
C994 C993 1.419 . S
C994 C995 1.391 . S
C994 C998 1.397 . S
C995 C990 1.391 . S
C995 C994 1.391 . S
C995 C996 1.399 . S
C996 C995 1.399 . S
C996 C997 1.396 . S
C996 C999 1.453 . S
C996 C1000 1.684 . S
C997 C987 1.723 . S
C997 C996 1.396 . S
C997 C998 1.394 . S
C998 C968 1.723 . S
C998 C994 1.397 . S
C998 C997 1.394 . S
C999 H971 0.982 . S
C999 H975 0.979 . S
C999 H976 0.977 . S
C999 C996 1.453 . S
C1000 H972 0.979 1_455 S
C1000 H973 0.980 . S
C1000 H974 0.983 . S
C1000 C996 1.684 . S
H1001 C1019 0.948 . S
H1002 C960 0.948 . S
H1003 C978 0.979 . S
H1004 C978 0.980 . S
H1005 C978 0.983 . S
H1006 C977 0.982 . S
H1007 C977 0.979 . S
H1008 C977 0.977 . S
H1009 C979 0.948 . S
H1010 C981 0.947 . S
H1011 C982 0.948 . S
H1012 C988 0.982 . S
H1013 C988 0.979 . S
H1014 C988 0.977 . S
H1015 C989 0.979 1_655 S
H1016 C989 0.980 . S
H1017 C989 0.983 . S
H1018 C962 0.947 . S
C1019 C962 1.392 . S
C1019 C963 1.419 . S
C1019 H1001 0.948 . S
C1020 C1021 1.391 . S
C1020 C1024 1.391 . S
C1020 H1062 0.948 . S
C1021 C1020 1.391 . S
C1021 C1022 1.391 . S
C1022 C1021 1.391 . S
C1022 H1078 0.947 . S
C1022 C1079 1.392 . S
C1023 C1024 1.391 . S
C1023 C1027 1.397 . S
C1023 C1079 1.419 . S
C1024 C1020 1.391 . S
C1024 C1023 1.391 . S
C1024 C1025 1.399 . S
C1025 C1024 1.399 . S
C1025 C1028 1.396 . S
C1025 C1037 1.453 . S
C1025 C1038 1.684 . S
H1026 C1050 0.948 . S
C1027 C1023 1.397 . S
C1027 C1028 1.394 . S
C1027 C1046 1.723 . S
C1028 C1025 1.396 . S
C1028 C1027 1.394 . S
C1028 C1058 1.723 . S
H1029 C1052 0.947 . S
H1030 C1053 0.948 . S
H1031 C1059 0.982 . S
H1032 C1060 0.979 . S
H1033 C1060 0.980 . S
H1034 C1060 0.983 . S
H1035 C1059 0.979 . S
H1036 C1059 0.977 . S
C1037 C1025 1.453 . S
C1037 H1066 0.982 . S
C1037 H1067 0.979 . S
C1037 H1068 0.977 . S
C1038 C1025 1.684 . S
C1038 H1063 0.979 . S
C1038 H1064 0.980 . S
C1038 H1065 0.983 . S
C1039 C1040 1.391 . S
C1039 C1044 1.391 . S
C1039 H1069 0.948 . S
C1040 C1039 1.391 . S
C1040 C1041 1.391 . S
C1041 C1040 1.391 . S
C1041 C1042 1.392 . S
C1041 H1070 0.947 . S
C1042 C1041 1.392 . S
C1042 C1043 1.419 . S
C1042 H1071 0.948 . S
C1043 C1042 1.419 . S
C1043 C1044 1.391 . S
C1043 C1047 1.397 . S
C1044 C1039 1.391 . S
C1044 C1043 1.391 . S
C1044 C1045 1.399 . S
C1045 C1044 1.399 . S
C1045 C1046 1.396 . S
C1045 C1048 1.453 . S
C1045 C1049 1.684 . S
C1046 C1027 1.723 . S
C1046 C1045 1.396 . S
C1046 C1047 1.394 . S
C1047 C1043 1.397 . S
C1047 C1046 1.394 . S
C1047 C1057 1.723 . S
C1048 C1045 1.453 . S
C1048 H1072 0.982 . S
C1048 H1073 0.979 . S
C1048 H1074 0.977 . S
C1049 C1045 1.684 . S
C1049 H1075 0.979 . S
C1049 H1076 0.980 . S
C1049 H1077 0.983 . S
C1050 H1026 0.948 . S
C1050 C1051 1.391 . S
C1050 C1055 1.391 . S
C1051 C1050 1.391 . S
C1051 C1052 1.391 . S
C1052 H1029 0.947 . S
C1052 C1051 1.391 . S
C1052 C1053 1.392 . S
C1053 H1030 0.948 . S
C1053 C1052 1.392 . S
C1053 C1054 1.419 . S
C1054 C1053 1.419 . S
C1054 C1055 1.391 . S
C1054 C1058 1.397 . S
C1055 C1050 1.391 . S
C1055 C1054 1.391 . S
C1055 C1056 1.399 . S
C1056 C1055 1.399 . S
C1056 C1057 1.396 . S
C1056 C1059 1.453 . S
C1056 C1060 1.684 . S
C1057 C1047 1.723 . S
C1057 C1056 1.396 . S
C1057 C1058 1.394 . S
C1058 C1028 1.723 . S
C1058 C1054 1.397 . S
C1058 C1057 1.394 . S
C1059 H1031 0.982 . S
C1059 H1035 0.979 . S
C1059 H1036 0.977 . S
C1059 C1056 1.453 . S
C1060 H1032 0.979 . S
C1060 H1033 0.980 . S
C1060 H1034 0.983 . S
C1060 C1056 1.684 . S
H1061 C1079 0.948 . S
H1062 C1020 0.948 . S
H1063 C1038 0.979 . S
H1064 C1038 0.980 . S
H1065 C1038 0.983 . S
H1066 C1037 0.982 . S
H1067 C1037 0.979 . S
H1068 C1037 0.977 . S
H1069 C1039 0.948 . S
H1070 C1041 0.947 . S
H1071 C1042 0.948 . S
H1072 C1048 0.982 . S
H1073 C1048 0.979 . S
H1074 C1048 0.977 . S
H1075 C1049 0.979 . S
H1076 C1049 0.980 . S
H1077 C1049 0.983 . S
H1078 C1022 0.947 . S
C1079 C1022 1.392 . S
C1079 C1023 1.419 . S
C1079 H1061 0.948 . S
C1080 Eu1081 2.835 . S
C1080 C1082 1.500 . S
C1080 O1100 1.257 1_545 S
C1080 O1101 1.260 . S
Eu1081 C1080 2.835 . S
Eu1081 O1100 2.473 1_545 S
Eu1081 O1101 2.480 . S
Eu1081 O1102 2.430 . S
Eu1081 O1103 2.670 1_554 S
Eu1081 O1104 2.394 1_545 S
Eu1081 O1109 2.355 1_545 S
Eu1081 O1111 2.374 . S
C1082 C1080 1.500 . S
C1082 C1083 1.377 . S
C1082 C1087 1.377 1_545 S
C1083 C1082 1.377 . S
C1083 C1084 1.395 . S
C1083 H1112 0.931 . S
C1084 C1083 1.395 . S
C1084 C1085 1.383 1_545 S
C1084 H1113 0.931 . S
C1085 C1084 1.383 1_565 S
C1085 C1086 1.394 . S
C1086 C1085 1.394 . S
C1086 C1087 1.378 . S
C1086 H1114 0.931 . S
C1087 C1082 1.377 1_565 S
C1087 C1086 1.378 . S
C1087 H1115 0.931 . S
C1088 O1102 1.259 1_556 S
C1088 O1103 1.270 . S
C1089 O1104 1.251 . S
C1089 O1105 1.251 1_554 S
C1090 Eu1091 2.835 . S
C1090 C1092 1.500 . S
C1090 O1106 1.257 1_565 S
C1090 O1107 1.260 . S
Eu1091 C1090 2.835 . S
Eu1091 O1103 2.355 1_565 S
Eu1091 O1105 2.374 . S
Eu1091 O1106 2.473 1_565 S
Eu1091 O1107 2.480 . S
Eu1091 O1108 2.430 . S
Eu1091 O1109 2.670 1_556 S
Eu1091 O1110 2.394 1_565 S
C1092 C1090 1.500 . S
C1092 C1093 1.377 . S
C1092 C1097 1.377 1_565 S
C1093 C1092 1.377 . S
C1093 C1094 1.395 . S
C1093 H1116 0.931 . S
C1094 C1093 1.395 . S
C1094 C1095 1.383 1_565 S
C1094 H1117 0.931 . S
C1095 C1094 1.383 1_545 S
C1095 C1096 1.394 . S
C1096 C1095 1.394 . S
C1096 C1097 1.378 . S
C1096 H1118 0.931 . S
C1097 C1092 1.377 1_545 S
C1097 C1096 1.378 . S
C1097 H1119 0.931 . S
C1098 O1108 1.259 1_554 S
C1098 O1109 1.270 . S
C1099 O1110 1.251 . S
C1099 O1111 1.251 1_556 S
O1100 C1080 1.257 1_565 S
O1100 Eu1081 2.473 1_565 S
O1101 C1080 1.260 . S
O1101 Eu1081 2.480 . S
O1102 Eu1081 2.430 . S
O1102 C1088 1.259 1_554 S
O1103 Eu1081 2.670 1_556 S
O1103 C1088 1.270 . S
O1103 Eu1091 2.355 1_545 S
O1104 Eu1081 2.394 1_565 S
O1104 C1089 1.251 . S
O1105 C1089 1.251 1_556 S
O1105 Eu1091 2.374 . S
O1106 C1090 1.257 1_545 S
O1106 Eu1091 2.473 1_545 S
O1107 C1090 1.260 . S
O1107 Eu1091 2.480 . S
O1108 Eu1091 2.430 . S
O1108 C1098 1.259 1_556 S
O1109 Eu1081 2.355 1_565 S
O1109 Eu1091 2.670 1_554 S
O1109 C1098 1.270 . S
O1110 Eu1091 2.394 1_545 S
O1110 C1099 1.251 . S
O1111 Eu1081 2.374 . S
O1111 C1099 1.251 1_554 S
H1112 C1083 0.931 . S
H1113 C1084 0.931 . S
H1114 C1086 0.931 . S
H1115 C1087 0.931 . S
H1116 C1093 0.931 . S
H1117 C1094 0.931 . S
H1118 C1096 0.931 . S
H1119 C1097 0.931 . S
C1120 Eu1121 2.835 . S
C1120 C1122 1.500 1_655 S
C1120 O1140 1.257 1_655 S
C1120 O1141 1.260 . S
Eu1121 C1120 2.835 . S
Eu1121 O1140 2.473 1_655 S
Eu1121 O1141 2.480 . S
Eu1121 O1142 2.430 . S
Eu1121 O1143 2.670 1_554 S
Eu1121 O1144 2.394 1_655 S
Eu1121 O1149 2.355 1_655 S
Eu1121 O1151 2.395 . S
C1122 C1120 1.500 1_455 S
C1122 C1123 1.377 1_455 S
C1122 C1127 1.377 . S
C1123 C1122 1.377 1_655 S
C1123 C1124 1.395 . S
C1123 H1152 0.931 . S
C1124 C1123 1.395 . S
C1124 C1125 1.383 1_655 S
C1124 H1153 0.931 . S
C1125 C1124 1.383 1_455 S
C1125 C1126 1.394 . S
C1126 C1125 1.394 . S
C1126 C1127 1.378 . S
C1126 H1154 0.931 . S
C1127 C1122 1.377 . S
C1127 C1126 1.378 . S
C1127 H1155 0.931 . S
C1128 O1142 1.259 1_556 S
C1128 O1143 1.270 . S
C1129 O1144 1.251 . S
C1129 O1145 1.284 . S
C1130 Eu1131 2.835 . S
C1130 C1132 1.500 1_455 S
C1130 O1146 1.257 1_455 S
C1130 O1147 1.260 . S
Eu1131 C1130 2.835 . S
Eu1131 O1143 2.355 1_455 S
Eu1131 O1145 2.350 1_556 S
Eu1131 O1146 2.473 1_455 S
Eu1131 O1147 2.480 . S
Eu1131 O1148 2.430 . S
Eu1131 O1149 2.670 1_556 S
Eu1131 O1150 2.394 1_455 S
C1132 C1130 1.500 1_655 S
C1132 C1133 1.377 1_655 S
C1132 C1137 1.377 . S
C1133 C1132 1.377 1_455 S
C1133 C1134 1.395 . S
C1133 H1156 0.931 . S
C1134 C1133 1.395 . S
C1134 C1135 1.383 1_455 S
C1134 H1157 0.931 . S
C1135 C1134 1.383 1_655 S
C1135 C1136 1.394 . S
C1136 C1135 1.394 . S
C1136 C1137 1.378 . S
C1136 H1158 0.931 . S
C1137 C1132 1.377 . S
C1137 C1136 1.378 . S
C1137 H1159 0.931 . S
C1138 O1148 1.259 1_554 S
C1138 O1149 1.270 . S
C1139 O1150 1.251 . S
C1139 O1151 1.222 1_556 S
O1140 C1120 1.257 1_455 S
O1140 Eu1121 2.473 1_455 S
O1141 C1120 1.260 . S
O1141 Eu1121 2.480 . S
O1142 Eu1121 2.430 . S
O1142 C1128 1.259 1_554 S
O1143 Eu1121 2.670 1_556 S
O1143 C1128 1.270 . S
O1143 Eu1131 2.355 1_655 S
O1144 Eu1121 2.394 1_455 S
O1144 C1129 1.251 . S
O1145 C1129 1.284 . S
O1145 Eu1131 2.350 1_554 S
O1146 C1130 1.257 1_655 S
O1146 Eu1131 2.473 1_655 S
O1147 C1130 1.260 . S
O1147 Eu1131 2.480 . S
O1148 Eu1131 2.430 . S
O1148 C1138 1.259 1_556 S
O1149 Eu1121 2.355 1_455 S
O1149 Eu1131 2.670 1_554 S
O1149 C1138 1.270 . S
O1150 Eu1131 2.394 1_655 S
O1150 C1139 1.251 . S
O1151 Eu1121 2.395 . S
O1151 C1139 1.222 1_554 S
H1152 C1123 0.931 . S
H1153 C1124 0.931 . S
H1154 C1126 0.931 . S
H1155 C1127 0.931 . S
H1156 C1133 0.931 . S
H1157 C1134 0.931 . S
H1158 C1136 0.931 . S
H1159 C1137 0.931 . S
C1160 Eu1161 2.835 . S
C1160 C1162 1.500 . S
C1160 O1180 1.257 . S
C1160 O1181 1.260 . S
Eu1161 C1160 2.835 . S
Eu1161 O1180 2.473 . S
Eu1161 O1181 2.480 . S
Eu1161 O1182 2.430 . S
Eu1161 O1183 2.670 1_556 S
Eu1161 O1184 2.394 . S
Eu1161 O1189 2.355 . S
Eu1161 O1191 2.374 . S
C1162 C1160 1.500 . S
C1162 C1163 1.377 . S
C1162 C1167 1.377 . S
C1163 C1162 1.377 . S
C1163 C1164 1.395 . S
C1163 H1192 0.931 . S
C1164 C1163 1.395 . S
C1164 C1165 1.383 . S
C1164 H1193 0.931 . S
C1165 C1164 1.383 . S
C1165 C1166 1.394 . S
C1166 C1165 1.394 . S
C1166 C1167 1.378 . S
C1166 H1194 0.931 . S
C1167 C1162 1.377 . S
C1167 C1166 1.378 . S
C1167 H1195 0.931 . S
C1168 O1182 1.259 1_554 S
C1168 O1183 1.270 . S
C1169 O1184 1.251 . S
C1169 O1185 1.251 1_556 S
C1170 Eu1171 2.835 . S
C1170 C1172 1.500 . S
C1170 O1186 1.257 . S
C1170 O1187 1.260 . S
Eu1171 C1170 2.835 . S
Eu1171 O1183 2.355 . S
Eu1171 O1185 2.374 . S
Eu1171 O1186 2.473 . S
Eu1171 O1187 2.480 . S
Eu1171 O1188 2.430 . S
Eu1171 O1189 2.670 1_554 S
Eu1171 O1190 2.394 . S
C1172 C1170 1.500 . S
C1172 C1173 1.377 . S
C1172 C1177 1.377 . S
C1173 C1172 1.377 . S
C1173 C1174 1.395 . S
C1173 H1196 0.931 . S
C1174 C1173 1.395 . S
C1174 C1175 1.383 . S
C1174 H1197 0.931 . S
C1175 C1174 1.383 . S
C1175 C1176 1.394 . S
C1176 C1175 1.394 . S
C1176 C1177 1.378 . S
C1176 H1198 0.931 . S
C1177 C1172 1.377 . S
C1177 C1176 1.378 . S
C1177 H1199 0.931 . S
C1178 O1188 1.259 1_556 S
C1178 O1189 1.270 . S
C1179 O1190 1.251 . S
C1179 O1191 1.251 1_554 S
O1180 C1160 1.257 . S
O1180 Eu1161 2.473 . S
O1181 C1160 1.260 . S
O1181 Eu1161 2.480 . S
O1182 Eu1161 2.430 . S
O1182 C1168 1.259 1_556 S
O1183 Eu1161 2.670 1_554 S
O1183 C1168 1.270 . S
O1183 Eu1171 2.355 . S
O1184 Eu1161 2.394 . S
O1184 C1169 1.251 . S
O1185 C1169 1.251 1_554 S
O1185 Eu1171 2.374 . S
O1186 C1170 1.257 . S
O1186 Eu1171 2.473 . S
O1187 C1170 1.260 . S
O1187 Eu1171 2.480 . S
O1188 Eu1171 2.430 . S
O1188 C1178 1.259 1_554 S
O1189 Eu1161 2.355 . S
O1189 Eu1171 2.670 1_556 S
O1189 C1178 1.270 . S
O1190 Eu1171 2.394 . S
O1190 C1179 1.251 . S
O1191 Eu1161 2.374 . S
O1191 C1179 1.251 1_556 S
H1192 C1163 0.931 . S
H1193 C1164 0.931 . S
H1194 C1166 0.931 . S
H1195 C1167 0.931 . S
H1196 C1173 0.931 . S
H1197 C1174 0.931 . S
H1198 C1176 0.931 . S
H1199 C1177 0.931 . S
C1200 Eu1201 2.835 . S
C1200 C1202 1.500 . S
C1200 O1220 1.257 . S
C1200 O1221 1.260 . S
Eu1201 C1200 2.835 . S
Eu1201 O1220 2.473 . S
Eu1201 O1221 2.480 . S
Eu1201 O1222 2.430 . S
Eu1201 O1223 2.670 . S
Eu1201 O1224 2.394 . S
Eu1201 O1229 2.355 . S
Eu1201 O1231 2.374 . S
C1202 C1200 1.500 . S
C1202 C1203 1.377 . S
C1202 C1207 1.377 . S
C1203 C1202 1.377 . S
C1203 C1204 1.395 . S
C1203 H1232 0.931 . S
C1204 C1203 1.395 . S
C1204 C1205 1.383 . S
C1204 H1233 0.931 . S
C1205 C1204 1.383 . S
C1205 C1206 1.394 . S
C1206 C1205 1.394 . S
C1206 C1207 1.378 . S
C1206 H1234 0.931 . S
C1207 C1202 1.377 . S
C1207 C1206 1.378 . S
C1207 H1235 0.931 . S
C1208 O1222 1.259 . S
C1208 O1223 1.270 . S
C1209 O1224 1.251 . S
C1209 O1225 1.251 . S
C1210 Eu1211 2.835 . S
C1210 C1212 1.500 . S
C1210 O1226 1.257 . S
C1210 O1227 1.260 . S
Eu1211 C1210 2.835 . S
Eu1211 O1223 2.355 . S
Eu1211 O1225 2.374 . S
Eu1211 O1226 2.473 . S
Eu1211 O1227 2.480 . S
Eu1211 O1228 2.430 . S
Eu1211 O1229 2.670 . S
Eu1211 O1230 2.394 . S
C1212 C1210 1.500 . S
C1212 C1213 1.377 . S
C1212 C1217 1.377 . S
C1213 C1212 1.377 . S
C1213 C1214 1.395 . S
C1213 H1236 0.931 . S
C1214 C1213 1.395 . S
C1214 C1215 1.383 . S
C1214 H1237 0.931 . S
C1215 C1214 1.383 . S
C1215 C1216 1.394 . S
C1216 C1215 1.394 . S
C1216 C1217 1.378 . S
C1216 H1238 0.931 . S
C1217 C1212 1.377 . S
C1217 C1216 1.378 . S
C1217 H1239 0.931 . S
C1218 O1228 1.259 . S
C1218 O1229 1.270 . S
C1219 O1230 1.251 . S
C1219 O1231 1.251 . S
O1220 C1200 1.257 . S
O1220 Eu1201 2.473 . S
O1221 C1200 1.260 . S
O1221 Eu1201 2.480 . S
O1222 Eu1201 2.430 . S
O1222 C1208 1.259 . S
O1223 Eu1201 2.670 . S
O1223 C1208 1.270 . S
O1223 Eu1211 2.355 . S
O1224 Eu1201 2.394 . S
O1224 C1209 1.251 . S
O1225 C1209 1.251 . S
O1225 Eu1211 2.374 . S
O1226 C1210 1.257 . S
O1226 Eu1211 2.473 . S
O1227 C1210 1.260 . S
O1227 Eu1211 2.480 . S
O1228 Eu1211 2.430 . S
O1228 C1218 1.259 . S
O1229 Eu1201 2.355 . S
O1229 Eu1211 2.670 . S
O1229 C1218 1.270 . S
O1230 Eu1211 2.394 . S
O1230 C1219 1.251 . S
O1231 Eu1201 2.374 . S
O1231 C1219 1.251 . S
H1232 C1203 0.931 . S
H1233 C1204 0.931 . S
H1234 C1206 0.931 . S
H1235 C1207 0.931 . S
H1236 C1213 0.931 . S
H1237 C1214 0.931 . S
H1238 C1216 0.931 . S
H1239 C1217 0.931 . S
C1240 Eu1241 2.835 . S
C1240 C1242 1.500 . S
C1240 O1260 1.257 . S
C1240 O1261 1.260 . S
Eu1241 C1240 2.835 . S
Eu1241 O1260 2.473 . S
Eu1241 O1261 2.480 . S
Eu1241 O1262 2.430 . S
Eu1241 O1263 2.670 . S
Eu1241 O1264 2.394 . S
Eu1241 O1269 2.355 . S
Eu1241 O1271 2.374 . S
C1242 C1240 1.500 . S
C1242 C1243 1.377 . S
C1242 C1247 1.377 . S
C1243 C1242 1.377 . S
C1243 C1244 1.395 . S
C1243 H1272 0.931 . S
C1244 C1243 1.395 . S
C1244 C1245 1.383 . S
C1244 H1273 0.931 . S
C1245 C1244 1.383 . S
C1245 C1246 1.394 . S
C1246 C1245 1.394 . S
C1246 C1247 1.378 . S
C1246 H1274 0.931 . S
C1247 C1242 1.377 . S
C1247 C1246 1.378 . S
C1247 H1275 0.931 . S
C1248 O1262 1.259 . S
C1248 O1263 1.270 . S
C1249 O1264 1.251 . S
C1249 O1265 1.251 . S
C1250 Eu1251 2.835 . S
C1250 C1252 1.500 . S
C1250 O1266 1.257 . S
C1250 O1267 1.260 . S
Eu1251 C1250 2.835 . S
Eu1251 O1263 2.355 . S
Eu1251 O1265 2.374 . S
Eu1251 O1266 2.473 . S
Eu1251 O1267 2.480 . S
Eu1251 O1268 2.430 . S
Eu1251 O1269 2.670 . S
Eu1251 O1270 2.394 . S
C1252 C1250 1.500 . S
C1252 C1253 1.377 . S
C1252 C1257 1.377 . S
C1253 C1252 1.377 . S
C1253 C1254 1.395 . S
C1253 H1276 0.931 . S
C1254 C1253 1.395 . S
C1254 C1255 1.383 . S
C1254 H1277 0.931 . S
C1255 C1254 1.383 . S
C1255 C1256 1.394 . S
C1256 C1255 1.394 . S
C1256 C1257 1.378 . S
C1256 H1278 0.931 . S
C1257 C1252 1.377 . S
C1257 C1256 1.378 . S
C1257 H1279 0.931 . S
C1258 O1268 1.259 . S
C1258 O1269 1.270 . S
C1259 O1270 1.251 . S
C1259 O1271 1.251 . S
O1260 C1240 1.257 . S
O1260 Eu1241 2.473 . S
O1261 C1240 1.260 . S
O1261 Eu1241 2.480 . S
O1262 Eu1241 2.430 . S
O1262 C1248 1.259 . S
O1263 Eu1241 2.670 . S
O1263 C1248 1.270 . S
O1263 Eu1251 2.355 . S
O1264 Eu1241 2.394 . S
O1264 C1249 1.251 . S
O1265 C1249 1.251 . S
O1265 Eu1251 2.374 . S
O1266 C1250 1.257 . S
O1266 Eu1251 2.473 . S
O1267 C1250 1.260 . S
O1267 Eu1251 2.480 . S
O1268 Eu1251 2.430 . S
O1268 C1258 1.259 . S
O1269 Eu1241 2.355 . S
O1269 Eu1251 2.670 . S
O1269 C1258 1.270 . S
O1270 Eu1251 2.394 . S
O1270 C1259 1.251 . S
O1271 Eu1241 2.374 . S
O1271 C1259 1.251 . S
H1272 C1243 0.931 . S
H1273 C1244 0.931 . S
H1274 C1246 0.931 . S
H1275 C1247 0.931 . S
H1276 C1253 0.931 . S
H1277 C1254 0.931 . S
H1278 C1256 0.931 . S
H1279 C1257 0.931 . S
C1280 Eu1281 2.835 . S
C1280 C1282 1.500 . S
C1280 O1300 1.257 . S
C1280 O1301 1.260 . S
Eu1281 C1280 2.835 . S
Eu1281 O1300 2.473 . S
Eu1281 O1301 2.480 . S
Eu1281 O1302 2.430 . S
Eu1281 O1303 2.670 . S
Eu1281 O1304 2.394 . S
Eu1281 O1309 2.355 . S
Eu1281 O1311 2.374 . S
C1282 C1280 1.500 . S
C1282 C1283 1.377 . S
C1282 C1287 1.377 . S
C1283 C1282 1.377 . S
C1283 C1284 1.395 . S
C1283 H1312 0.931 . S
C1284 C1283 1.395 . S
C1284 C1285 1.383 . S
C1284 H1313 0.931 . S
C1285 C1284 1.383 . S
C1285 C1286 1.394 . S
C1286 C1285 1.394 . S
C1286 C1287 1.378 . S
C1286 H1314 0.931 . S
C1287 C1282 1.377 . S
C1287 C1286 1.378 . S
C1287 H1315 0.931 . S
C1288 O1302 1.259 . S
C1288 O1303 1.270 . S
C1289 O1304 1.251 . S
C1289 O1305 1.251 . S
C1290 Eu1291 2.835 . S
C1290 C1292 1.500 . S
C1290 O1306 1.257 . S
C1290 O1307 1.260 . S
Eu1291 C1290 2.835 . S
Eu1291 O1303 2.355 . S
Eu1291 O1305 2.374 . S
Eu1291 O1306 2.473 . S
Eu1291 O1307 2.480 . S
Eu1291 O1308 2.430 . S
Eu1291 O1309 2.670 . S
Eu1291 O1310 2.394 . S
C1292 C1290 1.500 . S
C1292 C1293 1.377 . S
C1292 C1297 1.377 . S
C1293 C1292 1.377 . S
C1293 C1294 1.395 . S
C1293 H1316 0.931 . S
C1294 C1293 1.395 . S
C1294 C1295 1.383 . S
C1294 H1317 0.931 . S
C1295 C1294 1.383 . S
C1295 C1296 1.394 . S
C1296 C1295 1.394 . S
C1296 C1297 1.378 . S
C1296 H1318 0.931 . S
C1297 C1292 1.377 . S
C1297 C1296 1.378 . S
C1297 H1319 0.931 . S
C1298 O1308 1.259 . S
C1298 O1309 1.270 . S
C1299 O1310 1.251 . S
C1299 O1311 1.251 . S
O1300 C1280 1.257 . S
O1300 Eu1281 2.473 . S
O1301 C1280 1.260 . S
O1301 Eu1281 2.480 . S
O1302 Eu1281 2.430 . S
O1302 C1288 1.259 . S
O1303 Eu1281 2.670 . S
O1303 C1288 1.270 . S
O1303 Eu1291 2.355 . S
O1304 Eu1281 2.394 . S
O1304 C1289 1.251 . S
O1305 C1289 1.251 . S
O1305 Eu1291 2.374 . S
O1306 C1290 1.257 . S
O1306 Eu1291 2.473 . S
O1307 C1290 1.260 . S
O1307 Eu1291 2.480 . S
O1308 Eu1291 2.430 . S
O1308 C1298 1.259 . S
O1309 Eu1281 2.355 . S
O1309 Eu1291 2.670 . S
O1309 C1298 1.270 . S
O1310 Eu1291 2.394 . S
O1310 C1299 1.251 . S
O1311 Eu1281 2.374 . S
O1311 C1299 1.251 . S
H1312 C1283 0.931 . S
H1313 C1284 0.931 . S
H1314 C1286 0.931 . S
H1315 C1287 0.931 . S
H1316 C1293 0.931 . S
H1317 C1294 0.931 . S
H1318 C1296 0.931 . S
H1319 C1297 0.931 . S
C1320 Eu1321 2.835 . S
C1320 C1322 1.500 . S
C1320 O1340 1.257 . S
C1320 O1341 1.260 . S
Eu1321 C1320 2.835 . S
Eu1321 O1340 2.473 . S
Eu1321 O1341 2.480 . S
Eu1321 O1342 2.430 . S
Eu1321 O1343 2.670 . S
Eu1321 O1344 2.394 . S
Eu1321 O1349 2.355 . S
Eu1321 O1351 2.374 . S
C1322 C1320 1.500 . S
C1322 C1323 1.377 . S
C1322 C1327 1.377 . S
C1323 C1322 1.377 . S
C1323 C1324 1.395 . S
C1323 H1352 0.931 . S
C1324 C1323 1.395 . S
C1324 C1325 1.383 . S
C1324 H1353 0.931 . S
C1325 C1324 1.383 . S
C1325 C1326 1.394 . S
C1326 C1325 1.394 . S
C1326 C1327 1.378 . S
C1326 H1354 0.931 . S
C1327 C1322 1.377 . S
C1327 C1326 1.378 . S
C1327 H1355 0.931 . S
C1328 O1342 1.259 . S
C1328 O1343 1.270 . S
C1329 O1344 1.251 . S
C1329 O1345 1.251 . S
C1330 Eu1331 2.835 . S
C1330 C1332 1.500 . S
C1330 O1346 1.257 . S
C1330 O1347 1.260 . S
Eu1331 C1330 2.835 . S
Eu1331 O1343 2.355 . S
Eu1331 O1345 2.374 . S
Eu1331 O1346 2.473 . S
Eu1331 O1347 2.480 . S
Eu1331 O1348 2.430 . S
Eu1331 O1349 2.670 . S
Eu1331 O1350 2.394 . S
C1332 C1330 1.500 . S
C1332 C1333 1.377 . S
C1332 C1337 1.377 . S
C1333 C1332 1.377 . S
C1333 C1334 1.395 . S
C1333 H1356 0.931 . S
C1334 C1333 1.395 . S
C1334 C1335 1.383 . S
C1334 H1357 0.931 . S
C1335 C1334 1.383 . S
C1335 C1336 1.394 . S
C1336 C1335 1.394 . S
C1336 C1337 1.378 . S
C1336 H1358 0.931 . S
C1337 C1332 1.377 . S
C1337 C1336 1.378 . S
C1337 H1359 0.931 . S
C1338 O1348 1.259 . S
C1338 O1349 1.270 . S
C1339 O1350 1.251 . S
C1339 O1351 1.251 . S
O1340 C1320 1.257 . S
O1340 Eu1321 2.473 . S
O1341 C1320 1.260 . S
O1341 Eu1321 2.480 . S
O1342 Eu1321 2.430 . S
O1342 C1328 1.259 . S
O1343 Eu1321 2.670 . S
O1343 C1328 1.270 . S
O1343 Eu1331 2.355 . S
O1344 Eu1321 2.394 . S
O1344 C1329 1.251 . S
O1345 C1329 1.251 . S
O1345 Eu1331 2.374 . S
O1346 C1330 1.257 . S
O1346 Eu1331 2.473 . S
O1347 C1330 1.260 . S
O1347 Eu1331 2.480 . S
O1348 Eu1331 2.430 . S
O1348 C1338 1.259 . S
O1349 Eu1321 2.355 . S
O1349 Eu1331 2.670 . S
O1349 C1338 1.270 . S
O1350 Eu1331 2.394 . S
O1350 C1339 1.251 . S
O1351 Eu1321 2.374 . S
O1351 C1339 1.251 . S
H1352 C1323 0.931 . S
H1353 C1324 0.931 . S
H1354 C1326 0.931 . S
H1355 C1327 0.931 . S
H1356 C1333 0.931 . S
H1357 C1334 0.931 . S
H1358 C1336 0.931 . S
H1359 C1337 0.931 . S
C1360 Eu1361 2.835 . S
C1360 C1362 1.500 . S
C1360 O1380 1.257 . S
C1360 O1381 1.260 . S
Eu1361 C1360 2.835 . S
Eu1361 O1380 2.473 . S
Eu1361 O1381 2.480 . S
Eu1361 O1382 2.430 . S
Eu1361 O1383 2.670 . S
Eu1361 O1384 2.394 . S
Eu1361 O1389 2.355 . S
Eu1361 O1391 2.374 . S
C1362 C1360 1.500 . S
C1362 C1363 1.377 . S
C1362 C1367 1.377 . S
C1363 C1362 1.377 . S
C1363 C1364 1.395 . S
C1363 H1392 0.931 . S
C1364 C1363 1.395 . S
C1364 C1365 1.383 . S
C1364 H1393 0.931 . S
C1365 C1364 1.383 . S
C1365 C1366 1.394 . S
C1366 C1365 1.394 . S
C1366 C1367 1.378 . S
C1366 H1394 0.931 . S
C1367 C1362 1.377 . S
C1367 C1366 1.378 . S
C1367 H1395 0.931 . S
C1368 O1382 1.259 . S
C1368 O1383 1.270 . S
C1369 O1384 1.251 . S
C1369 O1385 1.251 . S
C1370 Eu1371 2.835 . S
C1370 C1372 1.500 . S
C1370 O1386 1.257 . S
C1370 O1387 1.260 . S
Eu1371 C1370 2.835 . S
Eu1371 O1383 2.355 . S
Eu1371 O1385 2.374 . S
Eu1371 O1386 2.473 . S
Eu1371 O1387 2.480 . S
Eu1371 O1388 2.430 . S
Eu1371 O1389 2.670 . S
Eu1371 O1390 2.394 . S
C1372 C1370 1.500 . S
C1372 C1373 1.377 . S
C1372 C1377 1.377 . S
C1373 C1372 1.377 . S
C1373 C1374 1.395 . S
C1373 H1396 0.931 . S
C1374 C1373 1.395 . S
C1374 C1375 1.383 . S
C1374 H1397 0.931 . S
C1375 C1374 1.383 . S
C1375 C1376 1.394 . S
C1376 C1375 1.394 . S
C1376 C1377 1.378 . S
C1376 H1398 0.931 . S
C1377 C1372 1.377 . S
C1377 C1376 1.378 . S
C1377 H1399 0.931 . S
C1378 O1388 1.259 . S
C1378 O1389 1.270 . S
C1379 O1390 1.251 . S
C1379 O1391 1.251 . S
O1380 C1360 1.257 . S
O1380 Eu1361 2.473 . S
O1381 C1360 1.260 . S
O1381 Eu1361 2.480 . S
O1382 Eu1361 2.430 . S
O1382 C1368 1.259 . S
O1383 Eu1361 2.670 . S
O1383 C1368 1.270 . S
O1383 Eu1371 2.355 . S
O1384 Eu1361 2.394 . S
O1384 C1369 1.251 . S
O1385 C1369 1.251 . S
O1385 Eu1371 2.374 . S
O1386 C1370 1.257 . S
O1386 Eu1371 2.473 . S
O1387 C1370 1.260 . S
O1387 Eu1371 2.480 . S
O1388 Eu1371 2.430 . S
O1388 C1378 1.259 . S
O1389 Eu1361 2.355 . S
O1389 Eu1371 2.670 . S
O1389 C1378 1.270 . S
O1390 Eu1371 2.394 . S
O1390 C1379 1.251 . S
O1391 Eu1361 2.374 . S
O1391 C1379 1.251 . S
H1392 C1363 0.931 . S
H1393 C1364 0.931 . S
H1394 C1366 0.931 . S
H1395 C1367 0.931 . S
H1396 C1373 0.931 . S
H1397 C1374 0.931 . S
H1398 C1376 0.931 . S
H1399 C1377 0.931 . S
C1400 Eu1401 2.835 . S
C1400 C1402 1.500 . S
C1400 O1420 1.257 . S
C1400 O1421 1.260 . S
Eu1401 C1400 2.835 . S
Eu1401 O1420 2.473 . S
Eu1401 O1421 2.480 . S
Eu1401 O1422 2.430 . S
Eu1401 O1423 2.670 . S
Eu1401 O1424 2.394 . S
Eu1401 O1429 2.355 . S
Eu1401 O1431 2.374 . S
C1402 C1400 1.500 . S
C1402 C1403 1.377 . S
C1402 C1407 1.377 . S
C1403 C1402 1.377 . S
C1403 C1404 1.395 . S
C1403 H1432 0.931 . S
C1404 C1403 1.395 . S
C1404 C1405 1.383 . S
C1404 H1433 0.931 . S
C1405 C1404 1.383 . S
C1405 C1406 1.394 . S
C1406 C1405 1.394 . S
C1406 C1407 1.378 . S
C1406 H1434 0.931 . S
C1407 C1402 1.377 . S
C1407 C1406 1.378 . S
C1407 H1435 0.931 . S
C1408 O1422 1.259 . S
C1408 O1423 1.270 . S
C1409 O1424 1.251 . S
C1409 O1425 1.251 . S
C1410 Eu1411 2.835 . S
C1410 C1412 1.500 . S
C1410 O1426 1.257 . S
C1410 O1427 1.260 . S
Eu1411 C1410 2.835 . S
Eu1411 O1423 2.355 . S
Eu1411 O1425 2.374 . S
Eu1411 O1426 2.473 . S
Eu1411 O1427 2.480 . S
Eu1411 O1428 2.430 . S
Eu1411 O1429 2.670 . S
Eu1411 O1430 2.394 . S
C1412 C1410 1.500 . S
C1412 C1413 1.377 . S
C1412 C1417 1.377 . S
C1413 C1412 1.377 . S
C1413 C1414 1.395 . S
C1413 H1436 0.931 . S
C1414 C1413 1.395 . S
C1414 C1415 1.383 . S
C1414 H1437 0.931 . S
C1415 C1414 1.383 . S
C1415 C1416 1.394 . S
C1416 C1415 1.394 . S
C1416 C1417 1.378 . S
C1416 H1438 0.931 . S
C1417 C1412 1.377 . S
C1417 C1416 1.378 . S
C1417 H1439 0.931 . S
C1418 O1428 1.259 . S
C1418 O1429 1.270 . S
C1419 O1430 1.251 . S
C1419 O1431 1.251 . S
O1420 C1400 1.257 . S
O1420 Eu1401 2.473 . S
O1421 C1400 1.260 . S
O1421 Eu1401 2.480 . S
O1422 Eu1401 2.430 . S
O1422 C1408 1.259 . S
O1423 Eu1401 2.670 . S
O1423 C1408 1.270 . S
O1423 Eu1411 2.355 . S
O1424 Eu1401 2.394 . S
O1424 C1409 1.251 . S
O1425 C1409 1.251 . S
O1425 Eu1411 2.374 . S
O1426 C1410 1.257 . S
O1426 Eu1411 2.473 . S
O1427 C1410 1.260 . S
O1427 Eu1411 2.480 . S
O1428 Eu1411 2.430 . S
O1428 C1418 1.259 . S
O1429 Eu1401 2.355 . S
O1429 Eu1411 2.670 . S
O1429 C1418 1.270 . S
O1430 Eu1411 2.394 . S
O1430 C1419 1.251 . S
O1431 Eu1401 2.374 . S
O1431 C1419 1.251 . S
H1432 C1403 0.931 . S
H1433 C1404 0.931 . S
H1434 C1406 0.931 . S
H1435 C1407 0.931 . S
H1436 C1413 0.931 . S
H1437 C1414 0.931 . S
H1438 C1416 0.931 . S
H1439 C1417 0.931 . S
H1440 C1446 0.930 . S
H1441 C1450 0.930 1_556 S
H1442 C1455 0.929 . S
H1443 C1453 0.929 . S
H1444 C1448 0.929 . S
H1445 C1454 0.929 . S
C1446 H1440 0.930 . S
C1446 C1447 1.367 . S
C1446 C1454 1.378 . S
C1447 C1446 1.367 . S
C1447 C1455 1.433 . S
C1448 H1444 0.929 . S
C1448 C1450 1.378 . S
C1448 C1452 1.350 . S
C1449 C1452 1.463 . S
C1449 C1454 1.350 . S
C1449 N1457 1.427 . S
C1450 H1441 0.930 1_554 S
C1450 C1448 1.378 . S
C1450 C1451 1.367 . S
C1451 C1450 1.367 . S
C1451 C1453 1.433 . S
C1452 C1448 1.350 . S
C1452 C1449 1.463 . S
C1452 N1456 1.427 . S
C1453 H1443 0.929 . S
C1453 C1451 1.433 . S
C1453 N1456 1.384 . S
C1454 H1445 0.929 . S
C1454 C1446 1.378 . S
C1454 C1449 1.350 . S
C1455 H1442 0.929 . S
C1455 C1447 1.433 . S
C1455 N1457 1.384 . S
N1456 C1452 1.427 . S
N1456 C1453 1.384 . S
N1457 C1449 1.427 . S
N1457 C1455 1.384 . S
H1458 C1464 0.930 . S
H1459 C1468 0.930 . S
H1460 C1473 0.929 . S
H1461 C1471 0.929 . S
H1462 C1466 0.929 . S
H1463 C1472 0.929 . S
C1464 H1458 0.930 . S
C1464 C1465 1.367 . S
C1464 C1472 1.378 . S
C1465 C1464 1.367 . S
C1465 C1473 1.433 . S
C1466 H1462 0.929 . S
C1466 C1468 1.378 . S
C1466 C1470 1.350 . S
C1467 C1470 1.463 . S
C1467 C1472 1.350 . S
C1467 N1475 1.427 . S
C1468 H1459 0.930 . S
C1468 C1466 1.378 . S
C1468 C1469 1.367 . S
C1469 C1468 1.367 . S
C1469 C1471 1.433 . S
C1470 C1466 1.350 . S
C1470 C1467 1.463 . S
C1470 N1474 1.427 . S
C1471 H1461 0.929 . S
C1471 C1469 1.433 . S
C1471 N1474 1.384 . S
C1472 H1463 0.929 . S
C1472 C1464 1.378 . S
C1472 C1467 1.350 . S
C1473 H1460 0.929 . S
C1473 C1465 1.433 . S
C1473 N1475 1.384 . S
N1474 C1470 1.427 . S
N1474 C1471 1.384 . S
N1475 C1467 1.427 . S
N1475 C1473 1.384 . S
H1476 C1482 0.930 . S
H1477 C1486 0.930 . S
H1478 C1491 0.929 . S
H1479 C1489 0.929 1_556 S
H1480 C1484 0.929 . S
H1481 C1490 0.929 . S
C1482 H1476 0.930 . S
C1482 C1483 1.367 . S
C1482 C1490 1.378 . S
C1483 C1482 1.367 . S
C1483 C1491 1.433 . S
C1484 H1480 0.929 . S
C1484 C1486 1.378 . S
C1484 C1488 1.350 . S
C1485 C1488 1.463 . S
C1485 C1490 1.350 . S
C1485 N1493 1.427 . S
C1486 H1477 0.930 . S
C1486 C1484 1.378 . S
C1486 C1487 1.367 . S
C1487 C1486 1.367 . S
C1487 C1489 1.433 . S
C1488 C1484 1.350 . S
C1488 C1485 1.463 . S
C1488 N1492 1.427 . S
C1489 H1479 0.929 1_554 S
C1489 C1487 1.433 . S
C1489 N1492 1.384 . S
C1490 H1481 0.929 . S
C1490 C1482 1.378 . S
C1490 C1485 1.350 . S
C1491 H1478 0.929 . S
C1491 C1483 1.433 . S
C1491 N1493 1.384 . S
N1492 C1488 1.427 . S
N1492 C1489 1.384 . S
N1493 C1485 1.427 . S
N1493 C1491 1.384 . S
H1494 C1500 0.930 . S
H1495 C1504 0.930 . S
H1496 C1509 0.929 . S
H1497 C1507 0.929 1_554 S
H1498 C1502 0.929 . S
H1499 C1508 0.929 . S
C1500 H1494 0.930 . S
C1500 C1501 1.367 . S
C1500 C1508 1.378 . S
C1501 C1500 1.367 . S
C1501 C1509 1.433 . S
C1502 H1498 0.929 . S
C1502 C1504 1.378 . S
C1502 C1506 1.350 . S
C1503 C1506 1.463 . S
C1503 C1508 1.350 . S
C1503 N1511 1.427 . S
C1504 H1495 0.930 . S
C1504 C1502 1.378 . S
C1504 C1505 1.367 . S
C1505 C1504 1.367 . S
C1505 C1507 1.433 . S
C1506 C1502 1.350 . S
C1506 C1503 1.463 . S
C1506 N1510 1.427 . S
C1507 H1497 0.929 1_556 S
C1507 C1505 1.433 . S
C1507 N1510 1.384 . S
C1508 H1499 0.929 . S
C1508 C1500 1.378 . S
C1508 C1503 1.350 . S
C1509 H1496 0.929 . S
C1509 C1501 1.433 . S
C1509 N1511 1.384 . S
N1510 C1506 1.427 . S
N1510 C1507 1.384 . S
N1511 C1503 1.427 . S
N1511 C1509 1.384 . S
H1512 C1518 0.930 . S
H1513 C1522 0.930 1_554 S
H1514 C1527 0.929 . S
H1515 C1525 0.929 . S
H1516 C1520 0.929 . S
H1517 C1526 0.929 . S
C1518 H1512 0.930 . S
C1518 C1519 1.367 . S
C1518 C1526 1.378 . S
C1519 C1518 1.367 . S
C1519 C1527 1.433 . S
C1520 H1516 0.929 . S
C1520 C1522 1.378 . S
C1520 C1524 1.350 . S
C1521 C1524 1.463 . S
C1521 C1526 1.350 . S
C1521 N1529 1.427 . S
C1522 H1513 0.930 1_556 S
C1522 C1520 1.378 . S
C1522 C1523 1.367 . S
C1523 C1522 1.367 . S
C1523 C1525 1.433 . S
C1524 C1520 1.350 . S
C1524 C1521 1.463 . S
C1524 N1528 1.427 . S
C1525 H1515 0.929 . S
C1525 C1523 1.433 . S
C1525 N1528 1.384 . S
C1526 H1517 0.929 . S
C1526 C1518 1.378 . S
C1526 C1521 1.350 . S
C1527 H1514 0.929 . S
C1527 C1519 1.433 . S
C1527 N1529 1.384 . S
N1528 C1524 1.427 . S
N1528 C1525 1.384 . S
N1529 C1521 1.427 . S
N1529 C1527 1.384 . S
H1530 C1536 0.930 . S
H1531 C1540 0.930 . S
H1532 C1545 0.929 . S
H1533 C1543 0.984 . S
H1534 C1538 0.929 . S
H1535 C1544 0.929 . S
C1536 H1530 0.930 . S
C1536 C1537 1.367 . S
C1536 C1544 1.378 . S
C1537 C1536 1.367 . S
C1537 C1545 1.433 . S
C1538 H1534 0.929 . S
C1538 C1540 1.378 . S
C1538 C1542 1.350 . S
C1539 C1542 1.463 . S
C1539 C1544 1.350 . S
C1539 N1547 1.427 . S
C1540 H1531 0.930 . S
C1540 C1538 1.378 . S
C1540 C1541 1.367 . S
C1541 C1540 1.367 . S
C1541 C1543 1.395 1_556 S
C1542 C1538 1.350 . S
C1542 C1539 1.463 . S
C1542 N1546 1.427 . S
C1543 H1533 0.984 . S
C1543 C1541 1.395 1_554 S
C1543 N1546 1.368 1_554 S
C1544 H1535 0.929 . S
C1544 C1536 1.378 . S
C1544 C1539 1.350 . S
C1545 H1532 0.929 . S
C1545 C1537 1.433 . S
C1545 N1547 1.384 . S
N1546 C1542 1.427 . S
N1546 C1543 1.368 1_556 S
N1547 C1539 1.427 . S
N1547 C1545 1.384 . S
H1548 C1554 0.930 . S
H1549 C1558 0.930 1_554 S
H1550 C1563 0.929 . S
H1551 C1561 0.929 . S
H1552 C1556 0.929 . S
H1553 C1562 0.929 . S
C1554 H1548 0.930 . S
C1554 C1555 1.367 . S
C1554 C1562 1.378 . S
C1555 C1554 1.367 . S
C1555 C1563 1.433 . S
C1556 H1552 0.929 . S
C1556 C1558 1.378 . S
C1556 C1560 1.350 . S
C1557 C1560 1.463 . S
C1557 C1562 1.350 . S
C1557 N1565 1.427 . S
C1558 H1549 0.930 1_556 S
C1558 C1556 1.378 . S
C1558 C1559 1.367 . S
C1559 C1558 1.367 . S
C1559 C1561 1.433 . S
C1560 C1556 1.350 . S
C1560 C1557 1.463 . S
C1560 N1564 1.427 . S
C1561 H1551 0.929 . S
C1561 C1559 1.433 . S
C1561 N1564 1.384 . S
C1562 H1553 0.929 . S
C1562 C1554 1.378 . S
C1562 C1557 1.350 . S
C1563 H1550 0.929 . S
C1563 C1555 1.433 . S
C1563 N1565 1.384 . S
N1564 C1560 1.427 . S
N1564 C1561 1.384 . S
N1565 C1557 1.427 . S
N1565 C1563 1.384 . S
H1566 C1572 0.930 . S
H1567 C1576 0.930 . S
H1568 C1581 0.929 . S
H1569 C1579 0.929 . S
H1570 C1574 0.929 . S
H1571 C1580 0.929 . S
C1572 H1566 0.930 . S
C1572 C1573 1.367 . S
C1572 C1580 1.378 . S
C1573 C1572 1.367 . S
C1573 C1581 1.433 . S
C1574 H1570 0.929 . S
C1574 C1576 1.378 . S
C1574 C1578 1.350 . S
C1575 C1578 1.463 . S
C1575 C1580 1.350 . S
C1575 N1583 1.427 . S
C1576 H1567 0.930 . S
C1576 C1574 1.378 . S
C1576 C1577 1.367 . S
C1577 C1576 1.367 . S
C1577 C1579 1.433 . S
C1578 C1574 1.350 . S
C1578 C1575 1.463 . S
C1578 N1582 1.427 . S
C1579 H1569 0.929 . S
C1579 C1577 1.433 . S
C1579 N1582 1.384 . S
C1580 H1571 0.929 . S
C1580 C1572 1.378 . S
C1580 C1575 1.350 . S
C1581 H1568 0.929 . S
C1581 C1573 1.433 . S
C1581 N1583 1.384 . S
N1582 C1578 1.427 . S
N1582 C1579 1.384 . S
N1583 C1575 1.427 . S
N1583 C1581 1.384 . S
H1584 C1590 0.930 . S
H1585 C1594 0.930 1_554 S
H1586 C1599 0.929 . S
H1587 C1597 0.929 . S
H1588 C1592 0.929 1_554 S
H1589 C1598 0.929 . S
C1590 H1584 0.930 . S
C1590 C1591 1.367 . S
C1590 C1598 1.378 . S
C1591 C1590 1.367 . S
C1591 C1599 1.433 . S
C1592 H1588 0.929 1_556 S
C1592 C1594 1.378 . S
C1592 C1596 1.350 . S
C1593 C1596 1.463 . S
C1593 C1598 1.350 . S
C1593 N1601 1.427 . S
C1594 H1585 0.930 1_556 S
C1594 C1592 1.378 . S
C1594 C1595 1.367 . S
C1595 C1594 1.367 . S
C1595 C1597 1.433 . S
C1596 C1592 1.350 . S
C1596 C1593 1.463 . S
C1596 N1600 1.427 . S
C1597 H1587 0.929 . S
C1597 C1595 1.433 . S
C1597 N1600 1.384 . S
C1598 H1589 0.929 . S
C1598 C1590 1.378 . S
C1598 C1593 1.350 . S
C1599 H1586 0.929 . S
C1599 C1591 1.433 . S
C1599 N1601 1.384 . S
N1600 C1596 1.427 . S
N1600 C1597 1.384 . S
N1601 C1593 1.427 . S
N1601 C1599 1.384 . S
H1602 C1608 0.930 . S
H1603 C1612 0.930 1_556 S
H1604 C1617 0.929 . S
H1605 C1615 0.929 . S
H1606 C1610 0.929 . S
H1607 C1616 0.929 . S
C1608 H1602 0.930 . S
C1608 C1609 1.367 . S
C1608 C1616 1.378 . S
C1609 C1608 1.367 . S
C1609 C1617 1.433 . S
C1610 H1606 0.929 . S
C1610 C1612 1.378 . S
C1610 C1614 1.350 . S
C1611 C1614 1.463 . S
C1611 C1616 1.350 . S
C1611 N1619 1.427 . S
C1612 H1603 0.930 1_554 S
C1612 C1610 1.378 . S
C1612 C1613 1.367 . S
C1613 C1612 1.367 . S
C1613 C1615 1.433 . S
C1614 C1610 1.350 . S
C1614 C1611 1.463 . S
C1614 N1618 1.427 . S
C1615 H1605 0.929 . S
C1615 C1613 1.433 . S
C1615 N1618 1.384 . S
C1616 H1607 0.929 . S
C1616 C1608 1.378 . S
C1616 C1611 1.350 . S
C1617 H1604 0.929 . S
C1617 C1609 1.433 . S
C1617 N1619 1.384 . S
N1618 C1614 1.427 . S
N1618 C1615 1.384 . S
N1619 C1611 1.427 . S
N1619 C1617 1.384 . S
H1620 C1626 0.930 . S
H1621 C1630 0.958 . S
H1622 C1635 0.929 . S
H1623 C1633 0.929 . S
H1624 C1628 0.929 . S
H1625 C1634 0.929 . S
C1626 H1620 0.930 . S
C1626 C1627 1.367 . S
C1626 C1634 1.378 . S
C1627 C1626 1.367 . S
C1627 C1635 1.433 . S
C1628 H1624 0.929 . S
C1628 C1630 1.378 . S
C1628 C1632 1.350 . S
C1629 C1632 1.463 . S
C1629 C1634 1.350 . S
C1629 N1637 1.427 . S
C1630 H1621 0.958 . S
C1630 C1628 1.378 . S
C1630 C1631 1.367 . S
C1631 C1630 1.367 . S
C1631 C1633 1.433 . S
C1632 C1628 1.350 . S
C1632 C1629 1.463 . S
C1632 N1636 1.427 . S
C1633 H1623 0.929 . S
C1633 C1631 1.433 . S
C1633 N1636 1.384 . S
C1634 H1625 0.929 . S
C1634 C1626 1.378 . S
C1634 C1629 1.350 . S
C1635 H1622 0.929 . S
C1635 C1627 1.433 . S
C1635 N1637 1.384 . S
N1636 C1632 1.427 . S
N1636 C1633 1.384 . S
N1637 C1629 1.427 . S
N1637 C1635 1.384 . S
H1638 C1644 0.930 . S
H1639 C1648 0.930 1_556 S
H1640 C1653 0.929 . S
H1641 C1651 0.929 . S
H1642 C1646 0.929 . S
H1643 C1652 0.929 . S
C1644 H1638 0.930 . S
C1644 C1645 1.367 . S
C1644 C1652 1.378 . S
C1645 C1644 1.367 . S
C1645 C1653 1.433 . S
C1646 H1642 0.929 . S
C1646 C1648 1.378 . S
C1646 C1650 1.350 . S
C1647 C1650 1.463 . S
C1647 C1652 1.350 . S
C1647 N1655 1.427 . S
C1648 H1639 0.930 1_554 S
C1648 C1646 1.378 . S
C1648 C1649 1.367 . S
C1649 C1648 1.367 . S
C1649 C1651 1.433 . S
C1650 C1646 1.350 . S
C1650 C1647 1.463 . S
C1650 N1654 1.427 . S
C1651 H1641 0.929 . S
C1651 C1649 1.433 . S
C1651 N1654 1.384 . S
C1652 H1643 0.929 . S
C1652 C1644 1.378 . S
C1652 C1647 1.350 . S
C1653 H1640 0.929 . S
C1653 C1645 1.433 . S
C1653 N1655 1.384 . S
N1654 C1650 1.427 . S
N1654 C1651 1.384 . S
N1655 C1647 1.427 . S
N1655 C1653 1.384 . S
H1656 C1662 0.930 . S
H1657 C1666 0.930 . S
H1658 C1671 0.929 . S
H1659 C1669 0.929 . S
H1660 C1664 0.929 . S
H1661 C1670 0.929 . S
C1662 H1656 0.930 . S
C1662 C1663 1.367 . S
C1662 C1670 1.378 1_655 S
C1663 C1662 1.367 . S
C1663 C1671 1.433 . S
C1664 H1660 0.929 . S
C1664 C1666 1.378 . S
C1664 C1668 1.350 . S
C1665 C1668 1.463 . S
C1665 C1670 1.350 . S
C1665 N1673 1.427 . S
C1666 H1657 0.930 . S
C1666 C1664 1.378 . S
C1666 C1667 1.367 . S
C1667 C1666 1.367 . S
C1667 C1669 1.433 . S
C1668 C1664 1.350 . S
C1668 C1665 1.463 . S
C1668 N1672 1.427 . S
C1669 H1659 0.929 . S
C1669 C1667 1.433 . S
C1669 N1672 1.384 . S
C1670 H1661 0.929 . S
C1670 C1662 1.378 1_455 S
C1670 C1665 1.350 . S
C1671 H1658 0.929 . S
C1671 C1663 1.433 . S
C1671 N1673 1.384 1_655 S
N1672 C1668 1.427 . S
N1672 C1669 1.384 . S
N1673 C1665 1.427 . S
N1673 C1671 1.384 1_455 S
H1674 C1680 0.930 . S
H1675 C1684 0.930 . S
H1676 C1689 0.929 . S
H1677 C1687 0.929 . S
H1678 C1682 0.929 . S
H1679 C1688 0.929 . S
C1680 H1674 0.930 . S
C1680 C1681 1.367 . S
C1680 C1688 1.378 . S
C1681 C1680 1.367 . S
C1681 C1689 1.433 . S
C1682 H1678 0.929 . S
C1682 C1684 1.378 . S
C1682 C1686 1.350 . S
C1683 C1686 1.463 . S
C1683 C1688 1.350 . S
C1683 N1691 1.427 . S
C1684 H1675 0.930 . S
C1684 C1682 1.378 . S
C1684 C1685 1.367 . S
C1685 C1684 1.367 . S
C1685 C1687 1.433 . S
C1686 C1682 1.350 . S
C1686 C1683 1.463 . S
C1686 N1690 1.427 . S
C1687 H1677 0.929 . S
C1687 C1685 1.433 . S
C1687 N1690 1.384 . S
C1688 H1679 0.929 . S
C1688 C1680 1.378 . S
C1688 C1683 1.350 . S
C1689 H1676 0.929 . S
C1689 C1681 1.433 . S
C1689 N1691 1.384 . S
N1690 C1686 1.427 . S
N1690 C1687 1.384 . S
N1691 C1683 1.427 . S
N1691 C1689 1.384 . S
H1692 C1698 0.930 . S
H1693 C1702 0.930 . S
H1694 C1707 0.929 . S
H1695 C1705 0.929 . S
H1696 C1700 0.929 . S
H1697 C1706 0.929 1_565 S
C1698 H1692 0.930 . S
C1698 C1699 1.367 . S
C1698 C1706 1.378 . S
C1699 C1698 1.367 . S
C1699 C1707 1.433 . S
C1700 H1696 0.929 . S
C1700 C1702 1.378 . S
C1700 C1704 1.350 . S
C1701 C1704 1.463 . S
C1701 C1706 1.350 1_565 S
C1701 N1709 1.406 1_565 S
C1702 H1693 0.930 . S
C1702 C1700 1.378 . S
C1702 C1703 1.367 . S
C1703 C1702 1.367 . S
C1703 C1705 1.433 . S
C1704 C1700 1.350 . S
C1704 C1701 1.463 . S
C1704 N1708 1.427 . S
C1705 H1695 0.929 . S
C1705 C1703 1.433 . S
C1705 N1708 1.384 . S
C1706 H1697 0.929 1_545 S
C1706 C1698 1.378 . S
C1706 C1701 1.350 1_545 S
C1707 H1694 0.929 . S
C1707 C1699 1.433 . S
C1707 N1709 1.419 . S
N1708 C1704 1.427 . S
N1708 C1705 1.384 . S
N1709 C1701 1.406 1_545 S
N1709 C1707 1.419 . S
H1710 C1716 0.930 . S
H1711 C1720 0.930 . S
H1712 C1725 0.929 . S
H1713 C1723 0.929 . S
H1714 C1718 0.929 . S
H1715 C1724 0.929 . S
C1716 H1710 0.930 . S
C1716 C1717 1.367 . S
C1716 C1724 1.378 . S
C1717 C1716 1.367 . S
C1717 C1725 1.433 . S
C1718 H1714 0.929 . S
C1718 C1720 1.378 . S
C1718 C1722 1.350 . S
C1719 C1722 1.463 . S
C1719 C1724 1.350 . S
C1719 N1727 1.427 . S
C1720 H1711 0.930 . S
C1720 C1718 1.378 . S
C1720 C1721 1.367 . S
C1721 C1720 1.367 . S
C1721 C1723 1.433 . S
C1722 C1718 1.350 . S
C1722 C1719 1.463 . S
C1722 N1726 1.427 . S
C1723 H1713 0.929 . S
C1723 C1721 1.433 . S
C1723 N1726 1.384 . S
C1724 H1715 0.929 . S
C1724 C1716 1.378 . S
C1724 C1719 1.350 . S
C1725 H1712 0.929 . S
C1725 C1717 1.433 . S
C1725 N1727 1.384 . S
N1726 C1722 1.427 . S
N1726 C1723 1.384 . S
N1727 C1719 1.427 . S
N1727 C1725 1.384 . S
H1728 C1734 0.930 . S
H1729 C1738 0.930 . S
H1730 C1743 0.929 . S
H1731 C1741 0.929 . S
H1732 C1736 0.929 . S
H1733 C1742 0.929 . S
C1734 H1728 0.930 . S
C1734 C1735 1.367 . S
C1734 C1742 1.378 . S
C1735 C1734 1.367 . S
C1735 C1743 1.433 . S
C1736 H1732 0.929 . S
C1736 C1738 1.378 . S
C1736 C1740 1.350 . S
C1737 C1740 1.463 . S
C1737 C1742 1.350 . S
C1737 N1745 1.427 . S
C1738 H1729 0.930 . S
C1738 C1736 1.378 . S
C1738 C1739 1.367 . S
C1739 C1738 1.367 . S
C1739 C1741 1.433 . S
C1740 C1736 1.350 . S
C1740 C1737 1.463 . S
C1740 N1744 1.427 . S
C1741 H1731 0.929 . S
C1741 C1739 1.433 . S
C1741 N1744 1.384 . S
C1742 H1733 0.929 . S
C1742 C1734 1.378 . S
C1742 C1737 1.350 . S
C1743 H1730 0.929 . S
C1743 C1735 1.433 . S
C1743 N1745 1.384 . S
N1744 C1740 1.427 . S
N1744 C1741 1.384 . S
N1745 C1737 1.427 . S
N1745 C1743 1.384 . S
H1746 C1752 0.930 . S
H1747 C1756 0.930 . S
H1748 C1761 0.929 . S
H1749 C1759 0.929 . S
H1750 C1754 0.929 . S
H1751 C1760 0.929 . S
C1752 H1746 0.930 . S
C1752 C1753 1.367 . S
C1752 C1760 1.378 . S
C1753 C1752 1.367 . S
C1753 C1761 1.433 . S
C1754 H1750 0.929 . S
C1754 C1756 1.378 . S
C1754 C1758 1.350 . S
C1755 C1758 1.463 . S
C1755 C1760 1.350 . S
C1755 N1763 1.427 . S
C1756 H1747 0.930 . S
C1756 C1754 1.378 . S
C1756 C1757 1.367 . S
C1757 C1756 1.367 . S
C1757 C1759 1.433 . S
C1758 C1754 1.350 . S
C1758 C1755 1.463 . S
C1758 N1762 1.427 . S
C1759 H1749 0.929 . S
C1759 C1757 1.433 . S
C1759 N1762 1.384 . S
C1760 H1751 0.929 . S
C1760 C1752 1.378 . S
C1760 C1755 1.350 . S
C1761 H1748 0.929 . S
C1761 C1753 1.433 . S
C1761 N1763 1.384 . S
N1762 C1758 1.427 . S
N1762 C1759 1.384 . S
N1763 C1755 1.427 . S
N1763 C1761 1.384 . S
H1764 C1770 0.930 . S
H1765 C1774 0.930 . S
H1766 C1779 0.929 . S
H1767 C1777 0.929 . S
H1768 C1772 0.929 . S
H1769 C1778 0.929 . S
C1770 H1764 0.930 . S
C1770 C1771 1.367 . S
C1770 C1778 1.378 . S
C1771 C1770 1.367 . S
C1771 C1779 1.433 . S
C1772 H1768 0.929 . S
C1772 C1774 1.378 . S
C1772 C1776 1.350 . S
C1773 C1776 1.463 . S
C1773 C1778 1.350 . S
C1773 N1781 1.427 . S
C1774 H1765 0.930 . S
C1774 C1772 1.378 . S
C1774 C1775 1.367 . S
C1775 C1774 1.367 . S
C1775 C1777 1.433 . S
C1776 C1772 1.350 . S
C1776 C1773 1.463 . S
C1776 N1780 1.427 . S
C1777 H1767 0.929 . S
C1777 C1775 1.433 . S
C1777 N1780 1.384 . S
C1778 H1769 0.929 . S
C1778 C1770 1.378 . S
C1778 C1773 1.350 . S
C1779 H1766 0.929 . S
C1779 C1771 1.433 . S
C1779 N1781 1.384 . S
N1780 C1776 1.427 . S
N1780 C1777 1.384 . S
N1781 C1773 1.427 . S
N1781 C1779 1.384 . S
H1782 C1788 0.930 . S
H1783 C1792 0.930 . S
H1784 C1797 0.929 . S
H1785 C1795 0.929 . S
H1786 C1790 0.929 . S
H1787 C1796 0.929 . S
C1788 H1782 0.930 . S
C1788 C1789 1.367 . S
C1788 C1796 1.378 . S
C1789 C1788 1.367 . S
C1789 C1797 1.433 . S
C1790 H1786 0.929 . S
C1790 C1792 1.378 . S
C1790 C1794 1.350 . S
C1791 C1794 1.463 . S
C1791 C1796 1.350 . S
C1791 N1799 1.427 . S
C1792 H1783 0.930 . S
C1792 C1790 1.378 . S
C1792 C1793 1.367 . S
C1793 C1792 1.367 . S
C1793 C1795 1.433 . S
C1794 C1790 1.350 . S
C1794 C1791 1.463 . S
C1794 N1798 1.427 . S
C1795 H1785 0.929 . S
C1795 C1793 1.433 . S
C1795 N1798 1.384 . S
C1796 H1787 0.929 . S
C1796 C1788 1.378 . S
C1796 C1791 1.350 . S
C1797 H1784 0.929 . S
C1797 C1789 1.433 . S
C1797 N1799 1.384 . S
N1798 C1794 1.427 . S
N1798 C1795 1.384 . S
N1799 C1791 1.427 . S
N1799 C1797 1.384 . S
H1800 C1806 0.930 . S
H1801 C1810 0.930 . S
H1802 C1815 0.929 . S
H1803 C1813 0.929 . S
H1804 C1808 0.929 . S
H1805 C1814 0.929 . S
C1806 H1800 0.930 . S
C1806 C1807 1.367 . S
C1806 C1814 1.378 . S
C1807 C1806 1.367 . S
C1807 C1815 1.433 . S
C1808 H1804 0.929 . S
C1808 C1810 1.378 . S
C1808 C1812 1.350 . S
C1809 C1812 1.463 . S
C1809 C1814 1.350 . S
C1809 N1817 1.427 . S
C1810 H1801 0.930 . S
C1810 C1808 1.378 . S
C1810 C1811 1.367 . S
C1811 C1810 1.367 . S
C1811 C1813 1.433 . S
C1812 C1808 1.350 . S
C1812 C1809 1.463 . S
C1812 N1816 1.427 . S
C1813 H1803 0.929 . S
C1813 C1811 1.433 . S
C1813 N1816 1.384 . S
C1814 H1805 0.929 . S
C1814 C1806 1.378 . S
C1814 C1809 1.350 . S
C1815 H1802 0.929 . S
C1815 C1807 1.433 . S
C1815 N1817 1.384 . S
N1816 C1812 1.427 . S
N1816 C1813 1.384 . S
N1817 C1809 1.427 . S
N1817 C1815 1.384 . S
H1818 C1824 0.930 . S
H1819 C1828 0.930 . S
H1820 C1833 0.929 . S
H1821 C1831 0.929 . S
H1822 C1826 0.929 . S
H1823 C1832 0.929 . S
C1824 H1818 0.930 . S
C1824 C1825 1.367 . S
C1824 C1832 1.378 1_545 S
C1825 C1824 1.367 . S
C1825 C1833 1.433 . S
C1826 H1822 0.929 . S
C1826 C1828 1.378 . S
C1826 C1830 1.350 . S
C1827 C1830 1.463 . S
C1827 C1832 1.350 . S
C1827 N1835 1.426 1_565 S
C1828 H1819 0.930 . S
C1828 C1826 1.378 . S
C1828 C1829 1.367 . S
C1829 C1828 1.367 . S
C1829 C1831 1.433 . S
C1830 C1826 1.350 . S
C1830 C1827 1.463 . S
C1830 N1834 1.427 . S
C1831 H1821 0.929 . S
C1831 C1829 1.433 . S
C1831 N1834 1.384 . S
C1832 H1823 0.929 . S
C1832 C1824 1.378 1_565 S
C1832 C1827 1.350 . S
C1833 H1820 0.929 . S
C1833 C1825 1.433 . S
C1833 N1835 1.386 . S
N1834 C1830 1.427 . S
N1834 C1831 1.384 . S
N1835 C1827 1.426 1_545 S
N1835 C1833 1.386 . S
H1836 C1842 0.930 1_655 S
H1837 C1846 0.930 . S
H1838 C1851 0.929 . S
H1839 C1849 0.929 . S
H1840 C1844 0.929 . S
H1841 C1850 0.929 . S
C1842 H1836 0.930 1_455 S
C1842 C1843 1.367 1_455 S
C1842 C1850 1.378 . S
C1843 C1842 1.367 1_655 S
C1843 C1851 1.433 . S
C1844 H1840 0.929 . S
C1844 C1846 1.378 . S
C1844 C1848 1.350 . S
C1845 C1848 1.463 . S
C1845 C1850 1.350 . S
C1845 N1853 1.427 . S
C1846 H1837 0.930 . S
C1846 C1844 1.378 . S
C1846 C1847 1.367 . S
C1847 C1846 1.367 . S
C1847 C1849 1.433 . S
C1848 C1844 1.350 . S
C1848 C1845 1.463 . S
C1848 N1852 1.427 . S
C1849 H1839 0.929 . S
C1849 C1847 1.433 . S
C1849 N1852 1.384 . S
C1850 H1841 0.929 . S
C1850 C1842 1.378 . S
C1850 C1845 1.350 . S
C1851 H1838 0.929 . S
C1851 C1843 1.433 . S
C1851 N1853 1.384 1_655 S
N1852 C1848 1.427 . S
N1852 C1849 1.384 . S
N1853 C1845 1.427 . S
N1853 C1851 1.384 1_455 S
H1854 C1860 0.930 . S
H1855 C1864 0.930 . S
H1856 C1869 0.929 . S
H1857 C1867 0.929 . S
H1858 C1862 0.929 . S
H1859 C1868 0.929 . S
C1860 H1854 0.930 . S
C1860 C1861 1.367 . S
C1860 C1868 1.378 . S
C1861 C1860 1.367 . S
C1861 C1869 1.433 . S
C1862 H1858 0.929 . S
C1862 C1864 1.378 . S
C1862 C1866 1.350 . S
C1863 C1866 1.463 . S
C1863 C1868 1.350 . S
C1863 N1871 1.427 . S
C1864 H1855 0.930 . S
C1864 C1862 1.378 . S
C1864 C1865 1.367 . S
C1865 C1864 1.367 . S
C1865 C1867 1.433 . S
C1866 C1862 1.350 . S
C1866 C1863 1.463 . S
C1866 N1870 1.427 . S
C1867 H1857 0.929 . S
C1867 C1865 1.433 . S
C1867 N1870 1.384 . S
C1868 H1859 0.929 . S
C1868 C1860 1.378 . S
C1868 C1863 1.350 . S
C1869 H1856 0.929 . S
C1869 C1861 1.433 . S
C1869 N1871 1.384 . S
N1870 C1866 1.427 . S
N1870 C1867 1.384 . S
N1871 C1863 1.427 . S
N1871 C1869 1.384 . S
H1872 C1878 0.930 . S
H1873 C1882 0.930 . S
H1874 C1887 0.929 . S
H1875 C1885 0.929 . S
H1876 C1880 0.929 . S
H1877 C1886 0.929 . S
C1878 H1872 0.930 . S
C1878 C1879 1.367 . S
C1878 C1886 1.378 . S
C1879 C1878 1.367 . S
C1879 C1887 1.433 . S
C1880 H1876 0.929 . S
C1880 C1882 1.378 . S
C1880 C1884 1.350 . S
C1881 C1884 1.463 . S
C1881 C1886 1.350 . S
C1881 N1889 1.427 . S
C1882 H1873 0.930 . S
C1882 C1880 1.378 . S
C1882 C1883 1.367 . S
C1883 C1882 1.367 . S
C1883 C1885 1.433 . S
C1884 C1880 1.350 . S
C1884 C1881 1.463 . S
C1884 N1888 1.427 . S
C1885 H1875 0.929 . S
C1885 C1883 1.433 . S
C1885 N1888 1.384 . S
C1886 H1877 0.929 . S
C1886 C1878 1.378 . S
C1886 C1881 1.350 . S
C1887 H1874 0.929 . S
C1887 C1879 1.433 . S
C1887 N1889 1.384 . S
N1888 C1884 1.427 . S
N1888 C1885 1.384 . S
N1889 C1881 1.427 . S
N1889 C1887 1.384 . S
H1890 C1896 0.930 . S
H1891 C1900 0.930 . S
H1892 C1905 0.929 . S
H1893 C1903 0.929 . S
H1894 C1898 0.929 . S
H1895 C1904 0.929 . S
C1896 H1890 0.930 . S
C1896 C1897 1.367 . S
C1896 C1904 1.378 . S
C1897 C1896 1.367 . S
C1897 C1905 1.433 . S
C1898 H1894 0.929 . S
C1898 C1900 1.378 . S
C1898 C1902 1.350 . S
C1899 C1902 1.463 . S
C1899 C1904 1.350 . S
C1899 N1907 1.427 . S
C1900 H1891 0.930 . S
C1900 C1898 1.378 . S
C1900 C1901 1.367 . S
C1901 C1900 1.367 . S
C1901 C1903 1.433 . S
C1902 C1898 1.350 . S
C1902 C1899 1.463 . S
C1902 N1906 1.427 . S
C1903 H1893 0.929 . S
C1903 C1901 1.433 . S
C1903 N1906 1.384 . S
C1904 H1895 0.929 . S
C1904 C1896 1.378 . S
C1904 C1899 1.350 . S
C1905 H1892 0.929 . S
C1905 C1897 1.433 . S
C1905 N1907 1.384 . S
N1906 C1902 1.427 . S
N1906 C1903 1.384 . S
N1907 C1899 1.427 . S
N1907 C1905 1.384 . S
H1908 C1914 0.930 . S
H1909 C1918 0.930 . S
H1910 C1923 0.929 . S
H1911 C1921 0.929 . S
H1912 C1916 0.929 . S
H1913 C1922 0.929 . S
C1914 H1908 0.930 . S
C1914 C1915 1.367 . S
C1914 C1922 1.378 . S
C1915 C1914 1.367 . S
C1915 C1923 1.433 . S
C1916 H1912 0.929 . S
C1916 C1918 1.378 . S
C1916 C1920 1.350 . S
C1917 C1920 1.463 . S
C1917 C1922 1.350 . S
C1917 N1925 1.427 . S
C1918 H1909 0.930 . S
C1918 C1916 1.378 . S
C1918 C1919 1.367 . S
C1919 C1918 1.367 . S
C1919 C1921 1.433 . S
C1920 C1916 1.350 . S
C1920 C1917 1.463 . S
C1920 N1924 1.427 . S
C1921 H1911 0.929 . S
C1921 C1919 1.433 . S
C1921 N1924 1.384 . S
C1922 H1913 0.929 . S
C1922 C1914 1.378 . S
C1922 C1917 1.350 . S
C1923 H1910 0.929 . S
C1923 C1915 1.433 . S
C1923 N1925 1.384 . S
N1924 C1920 1.427 . S
N1924 C1921 1.384 . S
N1925 C1917 1.427 . S
N1925 C1923 1.384 . S
H1926 C1932 0.930 . S
H1927 C1936 0.930 . S
H1928 C1941 0.929 . S
H1929 C1939 0.929 . S
H1930 C1934 0.929 . S
H1931 C1940 0.929 . S
C1932 H1926 0.930 . S
C1932 C1933 1.367 . S
C1932 C1940 1.378 1_565 S
C1933 C1932 1.367 . S
C1933 C1941 1.433 . S
C1934 H1930 0.929 . S
C1934 C1936 1.378 . S
C1934 C1938 1.350 . S
C1935 C1938 1.463 . S
C1935 C1940 1.350 . S
C1935 N1943 1.459 . S
C1936 H1927 0.930 . S
C1936 C1934 1.378 . S
C1936 C1937 1.367 . S
C1937 C1936 1.367 . S
C1937 C1939 1.433 . S
C1938 C1934 1.350 . S
C1938 C1935 1.463 . S
C1938 N1942 1.427 . S
C1939 H1929 0.929 . S
C1939 C1937 1.433 . S
C1939 N1942 1.384 . S
C1940 H1931 0.929 . S
C1940 C1932 1.378 1_545 S
C1940 C1935 1.350 . S
C1941 H1928 0.929 . S
C1941 C1933 1.433 . S
C1941 N1943 1.351 1_565 S
N1942 C1938 1.427 . S
N1942 C1939 1.384 . S
N1943 C1935 1.459 . S
N1943 C1941 1.351 1_545 S
H1944 C1950 0.930 . S
H1945 C1954 0.930 . S
H1946 C1959 0.929 . S
H1947 C1957 0.929 . S
H1948 C1952 0.929 . S
H1949 C1958 0.929 . S
C1950 H1944 0.930 . S
C1950 C1951 1.367 . S
C1950 C1958 1.378 1_455 S
C1951 C1950 1.367 . S
C1951 C1959 1.433 1_455 S
C1952 H1948 0.929 . S
C1952 C1954 1.378 . S
C1952 C1956 1.350 . S
C1953 C1956 1.463 . S
C1953 C1958 1.350 . S
C1953 N1961 1.427 . S
C1954 H1945 0.930 . S
C1954 C1952 1.378 . S
C1954 C1955 1.367 . S
C1955 C1954 1.367 . S
C1955 C1957 1.433 . S
C1956 C1952 1.350 . S
C1956 C1953 1.463 . S
C1956 N1960 1.427 . S
C1957 H1947 0.929 . S
C1957 C1955 1.433 . S
C1957 N1960 1.384 . S
C1958 H1949 0.929 . S
C1958 C1950 1.378 1_655 S
C1958 C1953 1.350 . S
C1959 H1946 0.929 . S
C1959 C1951 1.433 1_655 S
C1959 N1961 1.384 . S
N1960 C1956 1.427 . S
N1960 C1957 1.384 . S
N1961 C1953 1.427 . S
N1961 C1959 1.384 . S
H1962 C1968 0.930 . S
H1963 C1972 0.930 . S
H1964 C1977 0.929 . S
H1965 C1975 0.929 . S
H1966 C1970 0.929 . S
H1967 C1976 0.929 . S
C1968 H1962 0.930 . S
C1968 C1969 1.367 . S
C1968 C1976 1.378 . S
C1969 C1968 1.367 . S
C1969 C1977 1.433 . S
C1970 H1966 0.929 . S
C1970 C1972 1.378 . S
C1970 C1974 1.350 . S
C1971 C1974 1.463 . S
C1971 C1976 1.350 . S
C1971 N1979 1.427 . S
C1972 H1963 0.930 . S
C1972 C1970 1.378 . S
C1972 C1973 1.367 . S
C1973 C1972 1.367 . S
C1973 C1975 1.433 . S
C1974 C1970 1.350 . S
C1974 C1971 1.463 . S
C1974 N1978 1.427 . S
C1975 H1965 0.929 . S
C1975 C1973 1.433 . S
C1975 N1978 1.384 . S
C1976 H1967 0.929 . S
C1976 C1968 1.378 . S
C1976 C1971 1.350 . S
C1977 H1964 0.929 . S
C1977 C1969 1.433 . S
C1977 N1979 1.384 . S
N1978 C1974 1.427 . S
N1978 C1975 1.384 . S
N1979 C1971 1.427 . S
N1979 C1977 1.384 . S
H1980 C1986 0.930 . S
H1981 C1990 0.930 . S
H1982 C1995 0.929 . S
H1983 C1993 0.929 . S
H1984 C1988 0.929 . S
H1985 C1994 0.929 . S
C1986 H1980 0.930 . S
C1986 C1987 1.367 . S
C1986 C1994 1.378 1_455 S
C1987 C1986 1.367 . S
C1987 C1995 1.433 . S
C1988 H1984 0.929 . S
C1988 C1990 1.378 . S
C1988 C1992 1.350 . S
C1989 C1992 1.463 . S
C1989 C1994 1.350 . S
C1989 N1997 1.427 . S
C1990 H1981 0.930 . S
C1990 C1988 1.378 . S
C1990 C1991 1.367 . S
C1991 C1990 1.367 . S
C1991 C1993 1.433 . S
C1992 C1988 1.350 . S
C1992 C1989 1.463 . S
C1992 N1996 1.427 . S
C1993 H1983 0.929 . S
C1993 C1991 1.433 . S
C1993 N1996 1.384 . S
C1994 H1985 0.929 . S
C1994 C1986 1.378 1_655 S
C1994 C1989 1.350 . S
C1995 H1982 0.929 . S
C1995 C1987 1.433 . S
C1995 N1997 1.384 1_455 S
N1996 C1992 1.427 . S
N1996 C1993 1.384 . S
N1997 C1989 1.427 . S
N1997 C1995 1.384 1_655 S
H1998 C2004 0.930 . S
H1999 C2008 0.930 . S
H2000 C2013 0.929 . S
H2001 C2011 0.929 . S
H2002 C2006 0.929 . S
H2003 C2012 0.929 . S
C2004 H1998 0.930 . S
C2004 C2005 1.367 . S
C2004 C2012 1.378 . S
C2005 C2004 1.367 . S
C2005 C2013 1.433 . S
C2006 H2002 0.929 . S
C2006 C2008 1.378 . S
C2006 C2010 1.350 . S
C2007 C2010 1.463 . S
C2007 C2012 1.350 . S
C2007 N2015 1.427 . S
C2008 H1999 0.930 . S
C2008 C2006 1.378 . S
C2008 C2009 1.367 . S
C2009 C2008 1.367 . S
C2009 C2011 1.433 . S
C2010 C2006 1.350 . S
C2010 C2007 1.463 . S
C2010 N2014 1.427 . S
C2011 H2001 0.929 . S
C2011 C2009 1.433 . S
C2011 N2014 1.384 . S
C2012 H2003 0.929 . S
C2012 C2004 1.378 . S
C2012 C2007 1.350 . S
C2013 H2000 0.929 . S
C2013 C2005 1.433 . S
C2013 N2015 1.384 . S
N2014 C2010 1.427 . S
N2014 C2011 1.384 . S
N2015 C2007 1.427 . S
N2015 C2013 1.384 . S
H2016 C2022 0.930 . S
H2017 C2026 0.930 . S
H2018 C2031 0.929 . S
H2019 C2029 0.929 . S
H2020 C2024 0.929 . S
H2021 C2030 0.929 1_545 S
C2022 H2016 0.930 . S
C2022 C2023 1.367 . S
C2022 C2030 1.378 . S
C2023 C2022 1.367 . S
C2023 C2031 1.433 . S
C2024 H2020 0.929 . S
C2024 C2026 1.378 . S
C2024 C2028 1.350 . S
C2025 C2028 1.463 . S
C2025 C2030 1.350 1_545 S
C2025 N2033 1.424 1_545 S
C2026 H2017 0.930 . S
C2026 C2024 1.378 . S
C2026 C2027 1.367 . S
C2027 C2026 1.367 . S
C2027 C2029 1.433 . S
C2028 C2024 1.350 . S
C2028 C2025 1.463 . S
C2028 N2032 1.427 . S
C2029 H2019 0.929 . S
C2029 C2027 1.433 . S
C2029 N2032 1.384 . S
C2030 H2021 0.929 1_565 S
C2030 C2022 1.378 . S
C2030 C2025 1.350 1_565 S
C2031 H2018 0.929 . S
C2031 C2023 1.433 . S
C2031 N2033 1.392 . S
N2032 C2028 1.427 . S
N2032 C2029 1.384 . S
N2033 C2025 1.424 1_565 S
N2033 C2031 1.392 . S
H2034 C2040 0.930 . S
H2035 C2044 0.930 . S
H2036 C2049 0.929 . S
H2037 C2047 0.929 . S
H2038 C2042 0.929 . S
H2039 C2048 0.929 . S
C2040 H2034 0.930 . S
C2040 C2041 1.367 . S
C2040 C2048 1.378 . S
C2041 C2040 1.367 . S
C2041 C2049 1.433 . S
C2042 H2038 0.929 . S
C2042 C2044 1.378 . S
C2042 C2046 1.350 . S
C2043 C2046 1.463 . S
C2043 C2048 1.350 . S
C2043 N2051 1.427 . S
C2044 H2035 0.930 . S
C2044 C2042 1.378 . S
C2044 C2045 1.367 . S
C2045 C2044 1.367 . S
C2045 C2047 1.433 . S
C2046 C2042 1.350 . S
C2046 C2043 1.463 . S
C2046 N2050 1.427 . S
C2047 H2037 0.929 . S
C2047 C2045 1.433 . S
C2047 N2050 1.384 . S
C2048 H2039 0.929 . S
C2048 C2040 1.378 . S
C2048 C2043 1.350 . S
C2049 H2036 0.929 . S
C2049 C2041 1.433 . S
C2049 N2051 1.384 . S
N2050 C2046 1.427 . S
N2050 C2047 1.384 . S
N2051 C2043 1.427 . S
N2051 C2049 1.384 . S
H2052 C2058 0.930 . S
H2053 C2062 0.930 . S
H2054 C2067 0.929 . S
H2055 C2065 0.929 . S
H2056 C2060 0.929 . S
H2057 C2066 0.929 . S
C2058 H2052 0.930 . S
C2058 C2059 1.367 . S
C2058 C2066 1.378 . S
C2059 C2058 1.367 . S
C2059 C2067 1.433 . S
C2060 H2056 0.929 . S
C2060 C2062 1.378 . S
C2060 C2064 1.350 . S
C2061 C2064 1.463 . S
C2061 C2066 1.350 . S
C2061 N2069 1.427 . S
C2062 H2053 0.930 . S
C2062 C2060 1.378 . S
C2062 C2063 1.367 . S
C2063 C2062 1.367 . S
C2063 C2065 1.433 . S
C2064 C2060 1.350 . S
C2064 C2061 1.463 . S
C2064 N2068 1.427 . S
C2065 H2055 0.929 . S
C2065 C2063 1.433 . S
C2065 N2068 1.384 . S
C2066 H2057 0.929 . S
C2066 C2058 1.378 . S
C2066 C2061 1.350 . S
C2067 H2054 0.929 . S
C2067 C2059 1.433 . S
C2067 N2069 1.384 . S
N2068 C2064 1.427 . S
N2068 C2065 1.384 . S
N2069 C2061 1.427 . S
N2069 C2067 1.384 . S
H2070 C2076 0.930 . S
H2071 C2080 0.930 . S
H2072 C2085 0.929 . S
H2073 C2083 0.929 . S
H2074 C2078 0.929 . S
H2075 C2084 0.929 . S
C2076 H2070 0.930 . S
C2076 C2077 1.367 . S
C2076 C2084 1.378 . S
C2077 C2076 1.367 . S
C2077 C2085 1.433 . S
C2078 H2074 0.929 . S
C2078 C2080 1.378 . S
C2078 C2082 1.350 . S
C2079 C2082 1.463 . S
C2079 C2084 1.350 . S
C2079 N2087 1.427 . S
C2080 H2071 0.930 . S
C2080 C2078 1.378 . S
C2080 C2081 1.367 . S
C2081 C2080 1.367 . S
C2081 C2083 1.433 . S
C2082 C2078 1.350 . S
C2082 C2079 1.463 . S
C2082 N2086 1.427 . S
C2083 H2073 0.929 . S
C2083 C2081 1.433 . S
C2083 N2086 1.384 . S
C2084 H2075 0.929 . S
C2084 C2076 1.378 . S
C2084 C2079 1.350 . S
C2085 H2072 0.929 . S
C2085 C2077 1.433 . S
C2085 N2087 1.384 . S
N2086 C2082 1.427 . S
N2086 C2083 1.384 . S
N2087 C2079 1.427 . S
N2087 C2085 1.384 . S
H2088 C2094 0.930 . S
H2089 C2098 0.930 . S
H2090 C2103 0.929 1_545 S
H2091 C2101 0.929 . S
H2092 C2096 0.929 . S
H2093 C2102 0.929 . S
C2094 H2088 0.930 . S
C2094 C2095 1.367 . S
C2094 C2102 1.378 . S
C2095 C2094 1.367 . S
C2095 C2103 1.433 . S
C2096 H2092 0.929 . S
C2096 C2098 1.378 . S
C2096 C2100 1.350 1_545 S
C2097 C2100 1.463 . S
C2097 C2102 1.350 . S
C2097 N2105 1.427 . S
C2098 H2089 0.930 . S
C2098 C2096 1.378 . S
C2098 C2099 1.367 1_545 S
C2099 C2098 1.367 1_565 S
C2099 C2101 1.433 . S
C2100 C2096 1.350 1_565 S
C2100 C2097 1.463 . S
C2100 N2104 1.427 . S
C2101 H2091 0.929 . S
C2101 C2099 1.433 . S
C2101 N2104 1.384 . S
C2102 H2093 0.929 . S
C2102 C2094 1.378 . S
C2102 C2097 1.350 . S
C2103 H2090 0.929 1_565 S
C2103 C2095 1.433 . S
C2103 N2105 1.384 . S
N2104 C2100 1.427 . S
N2104 C2101 1.384 . S
N2105 C2097 1.427 . S
N2105 C2103 1.384 . S
H2106 C2112 0.930 . S
H2107 C2116 0.930 . S
H2108 C2121 0.929 . S
H2109 C2119 0.929 . S
H2110 C2114 0.929 . S
H2111 C2120 0.929 . S
C2112 H2106 0.930 . S
C2112 C2113 1.367 1_655 S
C2112 C2120 1.378 . S
C2113 C2112 1.367 1_455 S
C2113 C2121 1.433 . S
C2114 H2110 0.929 . S
C2114 C2116 1.378 . S
C2114 C2118 1.350 . S
C2115 C2118 1.463 . S
C2115 C2120 1.350 1_455 S
C2115 N2123 1.427 . S
C2116 H2107 0.930 . S
C2116 C2114 1.378 . S
C2116 C2117 1.367 . S
C2117 C2116 1.367 . S
C2117 C2119 1.433 1_455 S
C2118 C2114 1.350 . S
C2118 C2115 1.463 . S
C2118 N2122 1.427 1_455 S
C2119 H2109 0.929 . S
C2119 C2117 1.433 1_655 S
C2119 N2122 1.384 . S
C2120 H2111 0.929 . S
C2120 C2112 1.378 . S
C2120 C2115 1.350 1_655 S
C2121 H2108 0.929 . S
C2121 C2113 1.433 . S
C2121 N2123 1.384 . S
N2122 C2118 1.427 1_655 S
N2122 C2119 1.384 . S
N2123 C2115 1.427 . S
N2123 C2121 1.384 . S
H2124 C2130 0.930 . S
H2125 C2134 0.930 . S
H2126 C2139 0.929 . S
H2127 C2137 0.929 . S
H2128 C2132 0.929 . S
H2129 C2138 0.929 . S
C2130 H2124 0.930 . S
C2130 C2131 1.367 . S
C2130 C2138 1.378 . S
C2131 C2130 1.367 . S
C2131 C2139 1.433 . S
C2132 H2128 0.929 . S
C2132 C2134 1.378 . S
C2132 C2136 1.350 . S
C2133 C2136 1.463 . S
C2133 C2138 1.350 . S
C2133 N2141 1.427 . S
C2134 H2125 0.930 . S
C2134 C2132 1.378 . S
C2134 C2135 1.367 . S
C2135 C2134 1.367 . S
C2135 C2137 1.433 . S
C2136 C2132 1.350 . S
C2136 C2133 1.463 . S
C2136 N2140 1.427 . S
C2137 H2127 0.929 . S
C2137 C2135 1.433 . S
C2137 N2140 1.384 . S
C2138 H2129 0.929 . S
C2138 C2130 1.378 . S
C2138 C2133 1.350 . S
C2139 H2126 0.929 . S
C2139 C2131 1.433 . S
C2139 N2141 1.384 . S
N2140 C2136 1.427 . S
N2140 C2137 1.384 . S
N2141 C2133 1.427 . S
N2141 C2139 1.384 . S
H2142 C2148 0.930 . S
H2143 C2152 0.930 . S
H2144 C2157 0.929 . S
H2145 C2155 0.929 . S
H2146 C2150 0.929 . S
H2147 C2156 0.929 . S
C2148 H2142 0.930 . S
C2148 C2149 1.367 . S
C2148 C2156 1.378 . S
C2149 C2148 1.367 . S
C2149 C2157 1.433 1_655 S
C2150 H2146 0.929 . S
C2150 C2152 1.378 . S
C2150 C2154 1.350 1_455 S
C2151 C2154 1.463 . S
C2151 C2156 1.350 . S
C2151 N2159 1.427 1_655 S
C2152 H2143 0.930 . S
C2152 C2150 1.378 . S
C2152 C2153 1.367 1_455 S
C2153 C2152 1.367 1_655 S
C2153 C2155 1.433 . S
C2154 C2150 1.350 1_655 S
C2154 C2151 1.463 . S
C2154 N2158 1.427 . S
C2155 H2145 0.929 . S
C2155 C2153 1.433 . S
C2155 N2158 1.384 . S
C2156 H2147 0.929 . S
C2156 C2148 1.378 . S
C2156 C2151 1.350 . S
C2157 H2144 0.929 . S
C2157 C2149 1.433 1_455 S
C2157 N2159 1.384 . S
N2158 C2154 1.427 . S
N2158 C2155 1.384 . S
N2159 C2151 1.427 1_455 S
N2159 C2157 1.384 . S
H2160 C2166 0.930 . S
H2161 C2170 0.930 . S
H2162 C2175 0.929 . S
H2163 C2173 0.929 . S
H2164 C2168 0.929 . S
H2165 C2174 0.929 . S
C2166 H2160 0.930 . S
C2166 C2167 1.367 . S
C2166 C2174 1.378 . S
C2167 C2166 1.367 . S
C2167 C2175 1.433 . S
C2168 H2164 0.929 . S
C2168 C2170 1.378 . S
C2168 C2172 1.350 . S
C2169 C2172 1.463 . S
C2169 C2174 1.350 . S
C2169 N2177 1.427 . S
C2170 H2161 0.930 . S
C2170 C2168 1.378 . S
C2170 C2171 1.367 . S
C2171 C2170 1.367 . S
C2171 C2173 1.433 . S
C2172 C2168 1.350 . S
C2172 C2169 1.463 . S
C2172 N2176 1.427 . S
C2173 H2163 0.929 . S
C2173 C2171 1.433 . S
C2173 N2176 1.384 . S
C2174 H2165 0.929 . S
C2174 C2166 1.378 . S
C2174 C2169 1.350 . S
C2175 H2162 0.929 . S
C2175 C2167 1.433 . S
C2175 N2177 1.384 . S
N2176 C2172 1.427 . S
N2176 C2173 1.384 . S
N2177 C2169 1.427 . S
N2177 C2175 1.384 . S
H2178 C2184 0.930 . S
H2179 C2188 0.930 . S
H2180 C2193 0.929 . S
H2181 C2191 0.929 . S
H2182 C2186 0.929 . S
H2183 C2192 0.929 . S
C2184 H2178 0.930 . S
C2184 C2185 1.367 . S
C2184 C2192 1.378 . S
C2185 C2184 1.367 . S
C2185 C2193 1.433 . S
C2186 H2182 0.929 . S
C2186 C2188 1.378 . S
C2186 C2190 1.350 1_565 S
C2187 C2190 1.463 . S
C2187 C2192 1.350 . S
C2187 N2195 1.427 . S
C2188 H2179 0.930 . S
C2188 C2186 1.378 . S
C2188 C2189 1.367 1_565 S
C2189 C2188 1.367 1_545 S
C2189 C2191 1.433 . S
C2190 C2186 1.350 1_545 S
C2190 C2187 1.463 . S
C2190 N2194 1.427 . S
C2191 H2181 0.929 . S
C2191 C2189 1.433 . S
C2191 N2194 1.384 . S
C2192 H2183 0.929 . S
C2192 C2184 1.378 . S
C2192 C2187 1.350 . S
C2193 H2180 0.929 . S
C2193 C2185 1.433 . S
C2193 N2195 1.384 . S
N2194 C2190 1.427 . S
N2194 C2191 1.384 . S
N2195 C2187 1.427 . S
N2195 C2193 1.384 . S
H2196 C2202 0.930 . S
H2197 C2206 0.930 . S
H2198 C2211 0.929 . S
H2199 C2209 0.929 . S
H2200 C2204 0.929 . S
H2201 C2210 0.929 . S
C2202 H2196 0.930 . S
C2202 C2203 1.367 . S
C2202 C2210 1.378 . S
C2203 C2202 1.367 . S
C2203 C2211 1.433 . S
C2204 H2200 0.929 . S
C2204 C2206 1.378 . S
C2204 C2208 1.350 . S
C2205 C2208 1.463 . S
C2205 C2210 1.350 . S
C2205 N2213 1.427 . S
C2206 H2197 0.930 . S
C2206 C2204 1.378 . S
C2206 C2207 1.367 . S
C2207 C2206 1.367 . S
C2207 C2209 1.433 . S
C2208 C2204 1.350 . S
C2208 C2205 1.463 . S
C2208 N2212 1.427 . S
C2209 H2199 0.929 . S
C2209 C2207 1.433 . S
C2209 N2212 1.384 . S
C2210 H2201 0.929 . S
C2210 C2202 1.378 . S
C2210 C2205 1.350 . S
C2211 H2198 0.929 . S
C2211 C2203 1.433 . S
C2211 N2213 1.384 . S
N2212 C2208 1.427 . S
N2212 C2209 1.384 . S
N2213 C2205 1.427 . S
N2213 C2211 1.384 . S
H2214 C2220 0.930 . S
H2215 C2224 0.930 . S
H2216 C2229 0.929 . S
H2217 C2227 0.929 . S
H2218 C2222 0.929 . S
H2219 C2228 0.929 . S
C2220 H2214 0.930 . S
C2220 C2221 1.367 . S
C2220 C2228 1.378 . S
C2221 C2220 1.367 . S
C2221 C2229 1.433 . S
C2222 H2218 0.929 . S
C2222 C2224 1.378 . S
C2222 C2226 1.350 . S
C2223 C2226 1.463 . S
C2223 C2228 1.350 . S
C2223 N2231 1.427 . S
C2224 H2215 0.930 . S
C2224 C2222 1.378 . S
C2224 C2225 1.367 . S
C2225 C2224 1.367 . S
C2225 C2227 1.433 . S
C2226 C2222 1.350 . S
C2226 C2223 1.463 . S
C2226 N2230 1.427 . S
C2227 H2217 0.929 . S
C2227 C2225 1.433 . S
C2227 N2230 1.384 . S
C2228 H2219 0.929 . S
C2228 C2220 1.378 . S
C2228 C2223 1.350 . S
C2229 H2216 0.929 . S
C2229 C2221 1.433 . S
C2229 N2231 1.384 . S
N2230 C2226 1.427 . S
N2230 C2227 1.384 . S
N2231 C2223 1.427 . S
N2231 C2229 1.384 . S
H2232 C2238 0.930 . S
H2233 C2242 0.930 . S
H2234 C2247 0.929 . S
H2235 C2245 0.929 . S
H2236 C2240 0.929 . S
H2237 C2246 0.929 . S
C2238 H2232 0.930 . S
C2238 C2239 1.367 . S
C2238 C2246 1.378 . S
C2239 C2238 1.367 . S
C2239 C2247 1.433 . S
C2240 H2236 0.929 . S
C2240 C2242 1.378 . S
C2240 C2244 1.350 . S
C2241 C2244 1.463 . S
C2241 C2246 1.350 . S
C2241 N2249 1.427 . S
C2242 H2233 0.930 . S
C2242 C2240 1.378 . S
C2242 C2243 1.367 . S
C2243 C2242 1.367 . S
C2243 C2245 1.433 . S
C2244 C2240 1.350 . S
C2244 C2241 1.463 . S
C2244 N2248 1.427 . S
C2245 H2235 0.929 . S
C2245 C2243 1.433 . S
C2245 N2248 1.384 . S
C2246 H2237 0.929 . S
C2246 C2238 1.378 . S
C2246 C2241 1.350 . S
C2247 H2234 0.929 . S
C2247 C2239 1.433 . S
C2247 N2249 1.384 . S
N2248 C2244 1.427 . S
N2248 C2245 1.384 . S
N2249 C2241 1.427 . S
N2249 C2247 1.384 . S
H2250 C2256 0.930 . S
H2251 C2260 0.930 . S
H2252 C2265 0.929 . S
H2253 C2263 0.929 . S
H2254 C2258 0.929 . S
H2255 C2264 0.929 . S
C2256 H2250 0.930 . S
C2256 C2257 1.367 . S
C2256 C2264 1.378 . S
C2257 C2256 1.367 . S
C2257 C2265 1.433 . S
C2258 H2254 0.929 . S
C2258 C2260 1.378 . S
C2258 C2262 1.350 . S
C2259 C2262 1.463 . S
C2259 C2264 1.350 . S
C2259 N2267 1.427 . S
C2260 H2251 0.930 . S
C2260 C2258 1.378 . S
C2260 C2261 1.367 . S
C2261 C2260 1.367 . S
C2261 C2263 1.433 . S
C2262 C2258 1.350 . S
C2262 C2259 1.463 . S
C2262 N2266 1.427 . S
C2263 H2253 0.929 . S
C2263 C2261 1.433 . S
C2263 N2266 1.384 . S
C2264 H2255 0.929 . S
C2264 C2256 1.378 . S
C2264 C2259 1.350 . S
C2265 H2252 0.929 . S
C2265 C2257 1.433 . S
C2265 N2267 1.384 . S
N2266 C2262 1.427 . S
N2266 C2263 1.384 . S
N2267 C2259 1.427 . S
N2267 C2265 1.384 . S
H2268 C2274 0.930 . S
H2269 C2278 0.930 . S
H2270 C2283 0.929 . S
H2271 C2281 0.929 . S
H2272 C2276 0.929 . S
H2273 C2282 0.929 . S
C2274 H2268 0.930 . S
C2274 C2275 1.367 . S
C2274 C2282 1.378 . S
C2275 C2274 1.367 . S
C2275 C2283 1.433 . S
C2276 H2272 0.929 . S
C2276 C2278 1.378 . S
C2276 C2280 1.350 . S
C2277 C2280 1.463 . S
C2277 C2282 1.350 . S
C2277 N2285 1.427 . S
C2278 H2269 0.930 . S
C2278 C2276 1.378 . S
C2278 C2279 1.367 . S
C2279 C2278 1.367 . S
C2279 C2281 1.433 . S
C2280 C2276 1.350 . S
C2280 C2277 1.463 . S
C2280 N2284 1.427 . S
C2281 H2271 0.929 . S
C2281 C2279 1.433 . S
C2281 N2284 1.384 . S
C2282 H2273 0.929 . S
C2282 C2274 1.378 . S
C2282 C2277 1.350 . S
C2283 H2270 0.929 . S
C2283 C2275 1.433 . S
C2283 N2285 1.384 . S
N2284 C2280 1.427 . S
N2284 C2281 1.384 . S
N2285 C2277 1.427 . S
N2285 C2283 1.384 . S
H2286 C2292 0.930 . S
H2287 C2296 0.930 . S
H2288 C2301 0.929 . S
H2289 C2299 0.929 . S
H2290 C2294 0.929 . S
H2291 C2300 0.929 . S
C2292 H2286 0.930 . S
C2292 C2293 1.367 . S
C2292 C2300 1.378 . S
C2293 C2292 1.367 . S
C2293 C2301 1.433 . S
C2294 H2290 0.929 . S
C2294 C2296 1.378 . S
C2294 C2298 1.350 . S
C2295 C2298 1.463 . S
C2295 C2300 1.350 . S
C2295 N2303 1.427 . S
C2296 H2287 0.930 . S
C2296 C2294 1.378 . S
C2296 C2297 1.367 . S
C2297 C2296 1.367 . S
C2297 C2299 1.433 . S
C2298 C2294 1.350 . S
C2298 C2295 1.463 . S
C2298 N2302 1.427 . S
C2299 H2289 0.929 . S
C2299 C2297 1.433 . S
C2299 N2302 1.384 . S
C2300 H2291 0.929 . S
C2300 C2292 1.378 . S
C2300 C2295 1.350 . S
C2301 H2288 0.929 . S
C2301 C2293 1.433 . S
C2301 N2303 1.384 . S
N2302 C2298 1.427 . S
N2302 C2299 1.384 . S
N2303 C2295 1.427 . S
N2303 C2301 1.384 . S
H2304 C2310 0.930 . S
H2305 C2314 0.930 . S
H2306 C2319 0.929 . S
H2307 C2317 0.929 . S
H2308 C2312 0.929 . S
H2309 C2318 0.929 . S
C2310 H2304 0.930 . S
C2310 C2311 1.367 . S
C2310 C2318 1.378 . S
C2311 C2310 1.367 . S
C2311 C2319 1.433 . S
C2312 H2308 0.929 . S
C2312 C2314 1.378 . S
C2312 C2316 1.350 . S
C2313 C2316 1.463 . S
C2313 C2318 1.350 . S
C2313 N2321 1.427 . S
C2314 H2305 0.930 . S
C2314 C2312 1.378 . S
C2314 C2315 1.367 . S
C2315 C2314 1.367 . S
C2315 C2317 1.433 . S
C2316 C2312 1.350 . S
C2316 C2313 1.463 . S
C2316 N2320 1.427 . S
C2317 H2307 0.929 . S
C2317 C2315 1.433 . S
C2317 N2320 1.384 . S
C2318 H2309 0.929 . S
C2318 C2310 1.378 . S
C2318 C2313 1.350 . S
C2319 H2306 0.929 . S
C2319 C2311 1.433 . S
C2319 N2321 1.384 . S
N2320 C2316 1.427 . S
N2320 C2317 1.384 . S
N2321 C2313 1.427 . S
N2321 C2319 1.384 . S
H2322 C2328 0.930 . S
H2323 C2332 0.930 . S
H2324 C2337 0.929 . S
H2325 C2335 0.929 . S
H2326 C2330 0.929 . S
H2327 C2336 0.929 . S
C2328 H2322 0.930 . S
C2328 C2329 1.367 . S
C2328 C2336 1.378 . S
C2329 C2328 1.367 . S
C2329 C2337 1.433 . S
C2330 H2326 0.929 . S
C2330 C2332 1.378 . S
C2330 C2334 1.350 . S
C2331 C2334 1.463 . S
C2331 C2336 1.350 . S
C2331 N2339 1.427 . S
C2332 H2323 0.930 . S
C2332 C2330 1.378 . S
C2332 C2333 1.367 . S
C2333 C2332 1.367 . S
C2333 C2335 1.433 . S
C2334 C2330 1.350 . S
C2334 C2331 1.463 . S
C2334 N2338 1.427 . S
C2335 H2325 0.929 . S
C2335 C2333 1.433 . S
C2335 N2338 1.384 . S
C2336 H2327 0.929 . S
C2336 C2328 1.378 . S
C2336 C2331 1.350 . S
C2337 H2324 0.929 . S
C2337 C2329 1.433 . S
C2337 N2339 1.384 . S
N2338 C2334 1.427 . S
N2338 C2335 1.384 . S
N2339 C2331 1.427 . S
N2339 C2337 1.384 . S
H2340 C2346 0.930 . S
H2341 C2350 0.930 . S
H2342 C2355 0.929 . S
H2343 C2353 0.929 . S
H2344 C2348 0.929 . S
H2345 C2354 0.929 . S
C2346 H2340 0.930 . S
C2346 C2347 1.367 . S
C2346 C2354 1.378 . S
C2347 C2346 1.367 . S
C2347 C2355 1.433 . S
C2348 H2344 0.929 . S
C2348 C2350 1.378 . S
C2348 C2352 1.350 . S
C2349 C2352 1.463 . S
C2349 C2354 1.350 . S
C2349 N2357 1.427 . S
C2350 H2341 0.930 . S
C2350 C2348 1.378 . S
C2350 C2351 1.367 . S
C2351 C2350 1.367 . S
C2351 C2353 1.433 . S
C2352 C2348 1.350 . S
C2352 C2349 1.463 . S
C2352 N2356 1.427 . S
C2353 H2343 0.929 . S
C2353 C2351 1.433 . S
C2353 N2356 1.384 . S
C2354 H2345 0.929 . S
C2354 C2346 1.378 . S
C2354 C2349 1.350 . S
C2355 H2342 0.929 . S
C2355 C2347 1.433 . S
C2355 N2357 1.384 . S
N2356 C2352 1.427 . S
N2356 C2353 1.384 . S
N2357 C2349 1.427 . S
N2357 C2355 1.384 . S
H2358 C2364 0.930 . S
H2359 C2368 0.930 . S
H2360 C2373 0.929 . S
H2361 C2371 0.929 . S
H2362 C2366 0.929 . S
H2363 C2372 0.929 . S
C2364 H2358 0.930 . S
C2364 C2365 1.367 . S
C2364 C2372 1.378 . S
C2365 C2364 1.367 . S
C2365 C2373 1.433 . S
C2366 H2362 0.929 . S
C2366 C2368 1.378 . S
C2366 C2370 1.350 . S
C2367 C2370 1.463 . S
C2367 C2372 1.350 . S
C2367 N2375 1.427 . S
C2368 H2359 0.930 . S
C2368 C2366 1.378 . S
C2368 C2369 1.367 . S
C2369 C2368 1.367 . S
C2369 C2371 1.433 . S
C2370 C2366 1.350 . S
C2370 C2367 1.463 . S
C2370 N2374 1.427 . S
C2371 H2361 0.929 . S
C2371 C2369 1.433 . S
C2371 N2374 1.384 . S
C2372 H2363 0.929 . S
C2372 C2364 1.378 . S
C2372 C2367 1.350 . S
C2373 H2360 0.929 . S
C2373 C2365 1.433 . S
C2373 N2375 1.384 . S
N2374 C2370 1.427 . S
N2374 C2371 1.384 . S
N2375 C2367 1.427 . S
N2375 C2373 1.384 . S
H2376 C2382 0.930 . S
H2377 C2386 0.930 . S
H2378 C2391 0.929 . S
H2379 C2389 0.929 . S
H2380 C2384 0.929 . S
H2381 C2390 0.929 . S
C2382 H2376 0.930 . S
C2382 C2383 1.367 . S
C2382 C2390 1.378 . S
C2383 C2382 1.367 . S
C2383 C2391 1.433 . S
C2384 H2380 0.929 . S
C2384 C2386 1.378 . S
C2384 C2388 1.350 . S
C2385 C2388 1.463 . S
C2385 C2390 1.350 . S
C2385 N2393 1.427 . S
C2386 H2377 0.930 . S
C2386 C2384 1.378 . S
C2386 C2387 1.367 . S
C2387 C2386 1.367 . S
C2387 C2389 1.433 . S
C2388 C2384 1.350 . S
C2388 C2385 1.463 . S
C2388 N2392 1.427 . S
C2389 H2379 0.929 . S
C2389 C2387 1.433 . S
C2389 N2392 1.384 . S
C2390 H2381 0.929 . S
C2390 C2382 1.378 . S
C2390 C2385 1.350 . S
C2391 H2378 0.929 . S
C2391 C2383 1.433 . S
C2391 N2393 1.384 . S
N2392 C2388 1.427 . S
N2392 C2389 1.384 . S
N2393 C2385 1.427 . S
N2393 C2391 1.384 . S
H2394 C2400 0.930 . S
H2395 C2404 0.930 . S
H2396 C2409 0.929 . S
H2397 C2407 0.929 . S
H2398 C2402 0.929 . S
H2399 C2408 0.929 . S
C2400 H2394 0.930 . S
C2400 C2401 1.367 . S
C2400 C2408 1.378 . S
C2401 C2400 1.367 . S
C2401 C2409 1.433 . S
C2402 H2398 0.929 . S
C2402 C2404 1.378 . S
C2402 C2406 1.350 . S
C2403 C2406 1.463 . S
C2403 C2408 1.350 . S
C2403 N2411 1.427 . S
C2404 H2395 0.930 . S
C2404 C2402 1.378 . S
C2404 C2405 1.367 . S
C2405 C2404 1.367 . S
C2405 C2407 1.433 . S
C2406 C2402 1.350 . S
C2406 C2403 1.463 . S
C2406 N2410 1.427 . S
C2407 H2397 0.929 . S
C2407 C2405 1.433 . S
C2407 N2410 1.384 . S
C2408 H2399 0.929 . S
C2408 C2400 1.378 . S
C2408 C2403 1.350 . S
C2409 H2396 0.929 . S
C2409 C2401 1.433 . S
C2409 N2411 1.384 . S
N2410 C2406 1.427 . S
N2410 C2407 1.384 . S
N2411 C2403 1.427 . S
N2411 C2409 1.384 . S
C1447 C781 1.674 . S
C1451 C1089 1.646 . S
C1465 C871 1.736 . S
C1469 C1129 1.746 . S
C1483 C751 1.706 . S
C1487 C1168 1.749 . S
C1501 C691 1.543 . S
C1505 C1128 1.571 . S
C1523 C1169 1.447 . S
C1519 C571 1.412 . S
C1537 C601 1.438 . S
C1541 C1088 1.454 . S
C1559 C1099 1.641 . S
C1555 C661 1.601 . S
C1577 C1139 1.752 . S
C1573 C541 1.721 . S
C1591 C631 1.779 . S
C1595 C1178 1.740 . S
C1609 C811 1.601 . S
C1613 C1138 1.562 . S
C1627 C841 1.429 . S
C1631 C1179 1.446 . S
C1649 C1098 1.448 . S
C1645 C721 1.363 . S
C1667 C1209 1.645 . S
C1663 C61 1.673 . S
C1681 C151 1.737 . S
C1685 C1249 1.757 . S
C1699 C31 1.705 . S
C1703 C1288 1.750 . S
C1717 C1051 1.533 . S
C1721 C1248 1.563 . S
C1735 C931 1.413 . S
C1739 C1289 1.454 . S
C1753 C961 1.429 . S
C1757 C1208 1.447 . S
C1771 C1021 1.618 . S
C1775 C1219 1.652 . S
C1789 C901 1.724 . S
C1793 C1259 1.759 . S
C1811 C1298 1.740 . S
C1807 C991 1.779 . S
C1825 C91 1.600 . S
C1829 C1258 1.561 . S
C1847 C1299 1.456 . S
C1843 C121 1.439 . S
C1861 C1 1.363 . S
C1865 C1218 1.449 . S
C1883 C1329 1.644 . S
C1879 C421 1.680 . S
C1897 C511 1.733 . S
C1901 C1369 1.751 . S
C1919 C1408 1.748 . S
C1915 C391 1.707 . S
C1937 C1368 1.565 . S
C1933 C331 1.531 . S
C1955 C1409 1.453 . S
C1951 C211 1.410 . S
C1969 C241 1.439 . S
C1973 C1328 1.457 . S
C1987 C301 1.611 . S
C1991 C1339 1.644 . S
C2005 C181 1.725 . S
C2009 C1379 1.759 . S
C2027 C1418 1.751 . S
C2023 C271 1.779 . S
C2041 C451 1.598 . S
C2045 C1378 1.573 . S
C2059 C481 1.443 . S
C2063 C1419 1.456 . S
C2077 C361 1.356 . S
C2081 C1338 1.447 . S
C2095 C920 1.306 . S
C2099 C1085 1.334 . S
C2117 C1125 1.862 . S
C2113 C980 1.847 . S
C2131 C1040 1.511 . S
C2135 C1175 1.584 . S
C2149 C380 1.782 . S
C2153 C1135 1.860 . S
C2167 C440 1.557 . S
C2171 C1165 1.584 . S
C2189 C1095 1.334 . S
C2185 C500 1.304 . S
C2203 C200 1.317 . S
C2207 C1205 1.331 . S
C2221 C260 1.847 . S
C2225 C1245 1.862 . S
C2239 C320 1.526 . S
C2243 C1295 1.584 . S
C2257 C740 1.784 . S
C2261 C1255 1.861 . S
C2279 C1285 1.583 . S
C2275 C800 1.552 . S
C2293 C860 1.319 . S
C2297 C1215 1.328 . S
C2311 C560 1.316 . S
C2315 C1325 1.330 . S
C2329 C620 1.841 . S
C2333 C1365 1.859 . S
C2351 C1415 1.583 . S
C2347 C680 1.524 . S
C2365 C20 1.782 . S
C2369 C1375 1.858 . S
C2383 C80 1.548 . S
C2387 C1405 1.584 . S
C2401 C140 1.318 . S
C2405 C1335 1.328 . S
