# Generated by pormake.
# Topology pyr, (3,6)-cn, num edge types: 1
# Building blocks:
#     Node 0, Type 0, BuildingBlock: PAMTOO_clean_linker_0, # of connection points: 3
#     Node 1, Type 0, BuildingBlock: PAMTOO_clean_linker_0, # of connection points: 3
#     Node 2, Type 0, BuildingBlock: PAMTOO_clean_linker_0, # of connection points: 3
#     Node 3, Type 0, BuildingBlock: PAMTOO_clean_linker_0, # of connection points: 3
#     Node 4, Type 0, BuildingBlock: PAMTOO_clean_linker_0, # of connection points: 3
#     Node 5, Type 0, BuildingBlock: PAMTOO_clean_linker_0, # of connection points: 3
#     Node 6, Type 0, BuildingBlock: PAMTOO_clean_linker_0, # of connection points: 3
#     Node 7, Type 0, BuildingBlock: PAMTOO_clean_linker_0, # of connection points: 3
#     Node 8, Type 1, BuildingBlock: BETDAH_clean_sbu_0, # of connection points: 6
#     Node 9, Type 1, BuildingBlock: BETDAH_clean_sbu_0, # of connection points: 6
#     Node 10, Type 1, BuildingBlock: BETDAH_clean_sbu_0, # of connection points: 6
#     Node 11, Type 1, BuildingBlock: BETDAH_clean_sbu_0, # of connection points: 6
#     Edge 12, Type (0, 1), BuildingBlock: XUDNAN_clean_linker_2, # of connection points: 2
#     Edge 13, Type (0, 1), BuildingBlock: XUDNAN_clean_linker_2, # of connection points: 2
#     Edge 14, Type (0, 1), BuildingBlock: XUDNAN_clean_linker_2, # of connection points: 2
#     Edge 15, Type (0, 1), BuildingBlock: XUDNAN_clean_linker_2, # of connection points: 2
#     Edge 16, Type (0, 1), BuildingBlock: XUDNAN_clean_linker_2, # of connection points: 2
#     Edge 17, Type (0, 1), BuildingBlock: XUDNAN_clean_linker_2, # of connection points: 2
#     Edge 18, Type (0, 1), BuildingBlock: XUDNAN_clean_linker_2, # of connection points: 2
#     Edge 19, Type (0, 1), BuildingBlock: XUDNAN_clean_linker_2, # of connection points: 2
#     Edge 20, Type (0, 1), BuildingBlock: XUDNAN_clean_linker_2, # of connection points: 2
#     Edge 21, Type (0, 1), BuildingBlock: XUDNAN_clean_linker_2, # of connection points: 2
#     Edge 22, Type (0, 1), BuildingBlock: XUDNAN_clean_linker_2, # of connection points: 2
#     Edge 23, Type (0, 1), BuildingBlock: XUDNAN_clean_linker_2, # of connection points: 2
#     Edge 24, Type (0, 1), BuildingBlock: XUDNAN_clean_linker_2, # of connection points: 2
#     Edge 25, Type (0, 1), BuildingBlock: XUDNAN_clean_linker_2, # of connection points: 2
#     Edge 26, Type (0, 1), BuildingBlock: XUDNAN_clean_linker_2, # of connection points: 2
#     Edge 27, Type (0, 1), BuildingBlock: XUDNAN_clean_linker_2, # of connection points: 2
#     Edge 28, Type (0, 1), BuildingBlock: XUDNAN_clean_linker_2, # of connection points: 2
#     Edge 29, Type (0, 1), BuildingBlock: XUDNAN_clean_linker_2, # of connection points: 2
#     Edge 30, Type (0, 1), BuildingBlock: XUDNAN_clean_linker_2, # of connection points: 2
#     Edge 31, Type (0, 1), BuildingBlock: XUDNAN_clean_linker_2, # of connection points: 2
#     Edge 32, Type (0, 1), BuildingBlock: XUDNAN_clean_linker_2, # of connection points: 2
#     Edge 33, Type (0, 1), BuildingBlock: XUDNAN_clean_linker_2, # of connection points: 2
#     Edge 34, Type (0, 1), BuildingBlock: XUDNAN_clean_linker_2, # of connection points: 2
#     Edge 35, Type (0, 1), BuildingBlock: XUDNAN_clean_linker_2, # of connection points: 2
# Relax obj value: 0.176
# Max RMSD: 0.225
# Mean RMSD: 0.150
data_MOF--net-pyr--node1-BETDAH_clean_sbu_0--node2-PAMTOO_clean_linker_0--edge1-XUDNAN_clean_linker_2
_symmetry_space_group_name_H-M    P1
_symmetry_Int_Tables_number       1
_symmetry_cell_setting            triclinic
loop_
_symmetry_equiv_pos_as_xyz
'x, y, z'
_cell_length_a     36.954179
_cell_length_b     40.319626
_cell_length_c     36.086657
_cell_angle_alpha  91.574163
_cell_angle_beta   89.341542
_cell_angle_gamma 106.35626
loop_
_atom_site_label
_atom_site_type_symbol
_atom_site_fract_x
_atom_site_fract_y
_atom_site_fract_z
_atom_type_partial_charge
H0 H 0.32525 0.32364 0.29886 0.0
H1 H 0.43087 0.30594 0.32877 0.0
H2 H 0.40364 0.31193 0.21462 0.0
H3 H 0.42917 0.2491 0.28528 0.0
C4 C 0.45434 0.26461 0.26991 0.0
O5 O 0.45075 0.29672 0.26093 0.0
H6 H 0.47849 0.26866 0.28924 0.0
C7 C 0.35277 0.32086 0.29178 0.0
C8 C 0.36309 0.32185 0.25416 0.0
C9 C 0.37635 0.31447 0.31944 0.0
C10 C 0.41127 0.30984 0.30843 0.0
C11 C 0.41995 0.30687 0.27075 0.0
C12 C 0.396 0.31307 0.2436 0.0
H13 H 0.31364 0.93383 0.67391 0.0
H14 H 0.2297 0.85771 0.61143 0.0
H15 H 0.32167 0.82966 0.66073 0.0
H16 H 0.28423 0.81688 0.56921 0.0
C17 C 0.27055 0.79531 0.58789 0.0
O18 O 0.25994 0.80759 0.62113 0.0
H19 H 0.24488 0.77941 0.57343 0.0
C20 C 0.30299 0.90783 0.66229 0.0
C21 C 0.32219 0.88312 0.66902 0.0
C22 C 0.26946 0.89892 0.64178 0.0
C23 C 0.25578 0.8652 0.62699 0.0
C24 C 0.27465 0.8404 0.63373 0.0
C25 C 0.3076 0.8492 0.65506 0.0
H26 H 0.75662 0.34381 0.93592 0.0
H27 H 0.66925 0.33367 0.85498 0.0
H28 H 0.76408 0.42515 0.85919 0.0
H29 H 0.68959 0.43785 0.84301 0.0
C30 C 0.67799 0.4155 0.82366 0.0
O31 O 0.70144 0.39385 0.82358 0.0
H32 H 0.64959 0.40098 0.83381 0.0
C33 C 0.74441 0.35449 0.91357 0.0
C34 C 0.76433 0.3869 0.89996 0.0
C35 C 0.71042 0.33458 0.89761 0.0
C36 C 0.69481 0.34889 0.86846 0.0
C37 C 0.71379 0.38201 0.85485 0.0
C38 C 0.74851 0.40078 0.87087 0.0
H39 H 0.88351 0.75244 0.43628 0.0
H40 H 0.88906 0.66524 0.36658 0.0
H41 H 0.9777 0.76005 0.36182 0.0
H42 H 0.95919 0.72086 0.28694 0.0
C43 C 0.94893 0.69427 0.29771 0.0
O44 O 0.95402 0.69562 0.336 0.0
H45 H 0.91832 0.68407 0.29148 0.0
C46 C 0.89825 0.74077 0.41592 0.0
C47 C 0.93281 0.76086 0.40102 0.0
C48 C 0.88155 0.70636 0.40333 0.0
C49 C 0.90064 0.69185 0.37594 0.0
C50 C 0.93505 0.71108 0.36068 0.0
C51 C 0.95088 0.74552 0.37326 0.0
H52 H 0.69569 0.85134 0.87063 0.0
H53 H 0.705 0.79937 0.97117 0.0
H54 H 0.75179 0.77099 0.87043 0.0
H55 H 0.70868 0.7145 0.92068 0.0
C56 C 0.72863 0.72531 0.94379 0.0
O57 O 0.74373 0.76055 0.94096 0.0
H58 H 0.71258 0.71976 0.97022 0.0
C59 C 0.7033 0.83084 0.88465 0.0
C60 C 0.72325 0.81078 0.8652 0.0
C61 C 0.69701 0.82733 0.92298 0.0
C62 C 0.70847 0.8017 0.9414 0.0
C63 C 0.72747 0.78103 0.92213 0.0
C64 C 0.73469 0.78551 0.88422 0.0
H65 H 0.83462 0.21098 0.42734 0.0
H66 H 0.84866 0.32027 0.44433 0.0
H67 H 0.91321 0.26965 0.50819 0.0
H68 H 0.91349 0.35809 0.54163 0.0
C69 C 0.88874 0.34109 0.52674 0.0
O70 O 0.90112 0.32841 0.49462 0.0
H71 H 0.87534 0.31971 0.54574 0.0
C72 C 0.84726 0.23523 0.44197 0.0
C73 C 0.87417 0.23633 0.46953 0.0
C74 C 0.83758 0.26529 0.43238 0.0
C75 C 0.85536 0.29666 0.45108 0.0
C76 C 0.88238 0.29793 0.4784 0.0
C77 C 0.89155 0.26792 0.48766 0.0
H78 H 0.38295 0.76638 0.16543 0.0
H79 H 0.38848 0.69199 0.24713 0.0
H80 H 0.46354 0.79477 0.25463 0.0
H81 H 0.4988 0.74724 0.29304 0.0
C82 C 0.47459 0.72372 0.28938 0.0
O83 O 0.44175 0.73383 0.28668 0.0
H84 H 0.47971 0.71053 0.26313 0.0
C85 C 0.39522 0.75985 0.19036 0.0
C86 C 0.42506 0.78504 0.20801 0.0
C87 C 0.38182 0.72602 0.20378 0.0
C88 C 0.39878 0.71753 0.23572 0.0
C89 C 0.42816 0.74207 0.25414 0.0
C90 C 0.44131 0.77573 0.24006 0.0
H91 H 0.13361 0.34743 0.78391 0.0
H92 H 0.22182 0.44339 0.77382 0.0
H93 H 0.21661 0.35954 0.69672 0.0
H94 H 0.29191 0.39815 0.72225 0.0
C95 C 0.28924 0.42491 0.72119 0.0
O96 O 0.25205 0.4238 0.71414 0.0
H97 H 0.29748 0.43798 0.7486 0.0
C98 C 0.15866 0.363 0.77033 0.0
C99 C 0.17309 0.34862 0.73907 0.0
C100 C 0.17567 0.39734 0.78365 0.0
C101 C 0.20762 0.41729 0.76441 0.0
C102 C 0.22213 0.4037 0.7331 0.0
C103 C 0.20473 0.36967 0.72056 0.0
Ho104 Ho 0.06523 0.07516 0.5353 0.0
Ho105 Ho 0.03313 1.03572 0.60391 0.0
C106 C 0.0767 0.11567 0.61629 0.0
C107 C 0.0847 0.12099 0.48491 0.0
C108 C 0.11581 0.15295 0.48438 0.0
C109 C 0.12327 0.17279 0.45252 0.0
C110 C 0.15629 0.2001 0.45008 0.0
C111 C 0.18234 0.20772 0.47945 0.0
C112 C 0.17349 0.18909 0.51224 0.0
C113 C 0.14051 0.16187 0.51464 0.0
C114 C 0.11191 1.0446 0.56827 0.0
C115 C 0.0237 0.99458 0.52305 0.0
C116 C 1.0144 0.99349 0.65797 0.0
C117 C 0.98164 0.96514 0.6683 0.0
C118 C 0.95523 0.94716 0.64182 0.0
C119 C 0.92148 0.92372 0.65325 0.0
C120 C 0.91374 0.91862 0.69119 0.0
C121 C 0.941 0.93564 0.71734 0.0
C122 C 0.97468 0.95866 0.70596 0.0
C123 C 0.98617 0.06509 0.56877 0.0
O124 O 0.07406 0.11811 0.57992 0.0
O125 O 0.06826 0.08493 0.63158 0.0
O126 O 0.09533 0.09268 0.4847 0.0
O127 O 0.05792 0.1205 0.50911 0.0
O128 O 0.11104 1.04844 0.53284 0.0
O129 O 0.09062 0.05972 0.58464 0.0
O130 O 0.02486 0.99235 0.5597 0.0
O131 O 0.0326 1.02518 0.50718 0.0
O132 O 1.00835 1.02387 0.65798 0.0
O133 O 0.03445 0.98811 0.62949 0.0
O134 O 0.98664 0.06246 0.60439 0.0
O135 O 1.00819 1.05005 0.55412 0.0
H136 H 0.10453 0.16613 0.4289 0.0
H137 H 0.1626 0.2137 0.42427 0.0
H138 H 0.19294 0.19452 0.53532 0.0
H139 H 0.13526 0.1467 0.53945 0.0
H140 H 0.96009 0.95215 0.61257 0.0
H141 H 0.90078 0.91087 0.63267 0.0
H142 H 0.93578 0.93177 0.74674 0.0
H143 H 0.99471 0.97244 0.72671 0.0
Ho144 Ho 0.60261 0.0758 0.08284 0.0
Ho145 Ho 0.53552 1.04949 1.03572 0.0
C146 C 0.52945 0.10286 0.09889 0.0
C147 C 0.66011 0.11299 0.11985 0.0
C148 C 0.66919 0.1393 0.14998 0.0
C149 C 0.70366 0.16505 0.14866 0.0
C150 C 0.71509 0.1884 0.17839 0.0
C151 C 0.69226 0.18636 0.21017 0.0
C152 C 0.65694 0.16134 0.21085 0.0
C153 C 0.64538 0.13805 0.18088 0.0
C154 C 0.5551 1.01484 0.10537 0.0
C155 C 0.60921 1.02107 1.02217 0.0
C156 C 0.47894 1.01218 0.9976 0.0
C157 C 0.47403 0.99362 0.9617 0.0
C158 C 0.43777 0.97515 0.95022 0.0
C159 C 0.43212 0.95953 0.91496 0.0
C160 C 0.46272 0.96218 0.89053 0.0
C161 C 0.49929 0.97988 0.90266 0.0
C162 C 0.50491 0.99547 0.93804 0.0
C163 C 0.58292 0.11012 1.01234 0.0
O164 O 0.56647 0.10986 0.10066 0.0
O165 O 0.5093 0.07591 0.07945 0.0
O166 O 0.64098 0.08175 0.12879 0.0
O167 O 0.64919 0.1224 0.08852 0.0
O168 O 0.59155 1.02246 0.10643 0.0
O169 O 0.54544 1.04051 0.09393 0.0
O170 O 0.57246 1.01533 1.01759 0.0
O171 O 0.62894 1.04775 0.04198 0.0
O172 O 0.49105 1.0458 0.99618 0.0
O173 O 0.49575 0.99978 1.02323 0.0
O174 O 0.54652 0.1023 1.01128 0.0
O175 O 0.59265 0.08454 1.02405 0.0
H176 H 0.72238 0.16641 0.12506 0.0
H177 H 0.74265 0.20703 0.17716 0.0
H178 H 0.63862 0.15937 0.23483 0.0
H179 H 0.61841 0.11856 0.18228 0.0
H180 H 0.41367 0.97358 0.96818 0.0
H181 H 0.40354 0.94662 0.9063 0.0
H182 H 0.52343 0.98213 0.88459 0.0
H183 H 0.53317 1.00961 0.94663 0.0
Ho184 Ho 0.57264 0.53091 0.5212 0.0
Ho185 Ho 0.57744 0.58936 0.57411 0.0
C186 C 0.6092 0.52924 0.60314 0.0
C187 C 0.58677 0.4836 0.47843 0.0
C188 C 0.61624 0.46549 0.47793 0.0
C189 C 0.62495 0.45017 0.5099 0.0
C190 C 0.65615 0.43709 0.51018 0.0
C191 C 0.67925 0.43931 0.47861 0.0
C192 C 0.66964 0.45344 0.44627 0.0
C193 C 0.63833 0.46633 0.44593 0.0
C194 C 0.50667 0.5267 0.55705 0.0
C195 C 0.53996 0.59014 0.492 0.0
C196 C 0.56308 0.63644 0.61723 0.0
C197 C 0.5343 0.65529 0.61784 0.0
C198 C 0.52316 0.6679 0.58522 0.0
C199 C 0.49294 0.68237 0.58589 0.0
C200 C 0.47316 0.68407 0.61907 0.0
C201 C 0.48507 0.67231 0.6518 0.0
C202 C 0.51545 0.65814 0.65118 0.0
C203 C 0.64237 0.59463 0.53508 0.0
O204 O 0.60805 0.51924 0.56775 0.0
O205 O 0.59574 0.55505 0.61381 0.0
O206 O 0.56217 0.47685 0.50552 0.0
O207 O 0.59879 0.51659 0.47181 0.0
O208 O 0.50954 0.51783 0.52261 0.0
O209 O 0.53917 0.53616 0.5715 0.0
O210 O 0.54292 0.6021 0.52685 0.0
O211 O 0.55261 0.56375 0.48184 0.0
O212 O 0.58812 0.64329 0.59058 0.0
O213 O 0.55023 0.60337 0.62301 0.0
O214 O 0.64133 0.60407 0.56967 0.0
O215 O 0.60906 0.58425 0.52304 0.0
H216 H 0.60846 0.44929 0.53504 0.0
H217 H 0.66311 0.42662 0.5356 0.0
H218 H 0.68674 0.4551 0.42144 0.0
H219 H 0.63209 0.47804 0.421 0.0
H220 H 0.53704 0.66572 0.55904 0.0
H221 H 0.48412 0.69097 0.56021 0.0
H222 H 0.47053 0.67364 0.6778 0.0
H223 H 0.52356 0.64846 0.67659 0.0
Ho224 Ho 0.08202 0.51041 0.0722 0.0
Ho225 Ho 0.07146 0.57417 1.03869 0.0
C226 C 0.15131 0.57776 0.0799 0.0
C227 C 0.08939 0.45008 0.08743 0.0
C228 C 0.11669 0.43523 0.10499 0.0
C229 C 0.15076 0.45641 0.11936 0.0
C230 C 0.17846 0.4417 0.13157 0.0
C231 C 0.17258 0.40563 0.12929 0.0
C232 C 0.13795 0.3846 0.11572 0.0
C233 C 0.11029 0.3993 0.10367 0.0
C234 C 0.06101 0.55375 0.12171 0.0
C235 C 1.00516 0.50546 1.02567 0.0
C236 C 0.0582 0.63238 1.02564 0.0
C237 C 0.02512 0.64039 1.00992 0.0
C238 C 1.01687 0.67122 1.02026 0.0
C239 C 0.98395 0.67783 1.00765 0.0
C240 C 0.95866 0.65365 0.98448 0.0
C241 C 0.96719 0.62281 0.97407 0.0
C242 C 1.00003 0.61619 0.98677 0.0
C243 C 0.09368 0.53136 0.98908 0.0
O244 O 0.14119 0.54361 0.07881 0.0
O245 O 0.12801 0.59527 0.06866 0.0
O246 O 0.07112 0.46664 0.10875 0.0
O247 O 0.10118 0.46621 0.0569 0.0
O248 O 0.08504 0.53658 0.12807 0.0
O249 O 0.04777 0.54612 0.0892 0.0
O250 O 1.01303 0.53948 1.02742 0.0
O251 O 0.0288 0.48943 1.03879 0.0
O252 O 0.07745 0.61778 1.00308 0.0
O253 O 0.05244 0.61776 0.05785 0.0
O254 O 0.07184 0.55024 0.98099 0.0
O255 O 0.10513 0.53838 1.02214 0.0
H256 H 0.15632 0.48428 0.1201 0.0
H257 H 0.20494 0.45861 0.14163 0.0
H258 H 0.13231 0.35674 0.11416 0.0
H259 H 0.08424 0.38262 0.09237 0.0
H260 H 0.03566 0.69 1.03846 0.0
H261 H 0.97838 0.70196 1.01592 0.0
H262 H 0.94807 0.60341 0.95676 0.0
H263 H 1.00551 0.59191 0.97897 0.0
H264 H 0.32331 0.34003 0.35676 0.0
H265 H 0.39517 0.27239 0.37078 0.0
H266 H 0.36125 0.25095 0.42742 0.0
H267 H 0.29447 0.34786 0.45848 0.0
H268 H 0.24659 0.34351 0.4447 0.0
H269 H 0.28527 0.36495 0.41505 0.0
H270 H 0.25564 0.323 0.36082 0.0
H271 H 0.21723 0.30147 0.39015 0.0
H272 H 0.24525 0.27703 0.36699 0.0
H273 H 0.31151 0.22524 0.47165 0.0
H274 H 0.24867 0.19465 0.49519 0.0
H275 H 0.20247 0.27154 0.44782 0.0
C276 C 0.33256 0.32114 0.37187 0.0
C277 C 0.36214 0.30803 0.35842 0.0
C278 C 0.37346 0.28389 0.38018 0.0
C279 C 0.35408 0.27125 0.41272 0.0
C280 C 0.32301 0.28248 0.42319 0.0
C281 C 0.31225 0.30694 0.40335 0.0
C282 C 0.27313 0.3086 0.4147 0.0
C283 C 0.27499 0.34329 0.43442 0.0
C284 C 0.24627 0.30211 0.38118 0.0
C285 C 0.26237 0.27919 0.44156 0.0
C286 C 0.2923 0.26574 0.44755 0.0
C287 C 0.28817 0.23609 0.468 0.0
C288 C 0.25229 0.21888 0.48134 0.0
C289 C 0.22079 0.2309 0.47345 0.0
C290 C 0.22623 0.26211 0.45452 0.0
H291 H 0.33115 0.854 0.73401 0.0
H292 H 0.38669 0.93528 0.65956 0.0
H293 H 0.43715 0.95812 0.7057 0.0
H294 H 0.34147 0.90474 0.81065 0.0
H295 H 0.34929 0.87425 0.84306 0.0
H296 H 0.32334 0.8589 0.80129 0.0
H297 H 0.36979 0.82346 0.7833 0.0
H298 H 0.39583 0.83849 0.82537 0.0
H299 H 0.41966 0.84477 0.78116 0.0
H300 H 0.47443 0.97795 0.76304 0.0
H301 H 0.49418 0.99465 0.82751 0.0
H302 H 0.414 0.90107 0.86576 0.0
C303 C 0.35491 0.87564 0.72693 0.0
C304 C 0.35566 0.89261 0.69319 0.0
C305 C 0.38612 0.92178 0.6852 0.0
C306 C 0.4149 0.93478 0.71115 0.0
C307 C 0.41269 0.91828 0.7449 0.0
C308 C 0.38355 0.88919 0.75279 0.0
C309 C 0.38446 0.87949 0.79295 0.0
C310 C 0.34746 0.87937 0.81315 0.0
C311 C 0.39295 0.84447 0.79585 0.0
C312 C 0.41723 0.90878 0.80692 0.0
C313 C 0.43382 0.93031 0.77857 0.0
C314 C 0.4623 0.96085 0.78532 0.0
C315 C 0.47343 0.97009 0.82207 0.0
C316 C 0.45573 0.94909 0.85166 0.0
C317 C 0.42809 0.91757 0.8437 0.0
H318 H 0.64775 0.46829 0.80702 0.0
H319 H 0.69613 0.39319 0.75317 0.0
H320 H 0.68572 0.4152 0.692 0.0
H321 H 0.57497 0.46223 0.73981 0.0
H322 H 0.57766 0.50756 0.74266 0.0
H323 H 0.59022 0.48678 0.78212 0.0
H324 H 0.6557 0.53205 0.78433 0.0
H325 H 0.64332 0.55297 0.74487 0.0
H326 H 0.68526 0.53851 0.74355 0.0
H327 H 0.66887 0.44544 0.63574 0.0
H328 H 0.64615 0.47954 0.59031 0.0
H329 H 0.6076 0.53485 0.68027 0.0
C330 C 0.65655 0.45674 0.78233 0.0
C331 C 0.67356 0.42939 0.78527 0.0
C332 C 0.68377 0.4145 0.75209 0.0
C333 C 0.67784 0.42685 0.71706 0.0
C334 C 0.66128 0.45399 0.71527 0.0
C335 C 0.65069 0.46869 0.74712 0.0
C336 C 0.63249 0.49693 0.73763 0.0
C337 C 0.5914 0.48782 0.75137 0.0
C338 C 0.65557 0.53221 0.75354 0.0
C339 C 0.63442 0.4959 0.69546 0.0
C340 C 0.6512 0.47098 0.68312 0.0
C341 C 0.65572 0.46497 0.64528 0.0
C342 C 0.6426 0.48456 0.61954 0.0
C343 C 0.6249 0.5101 0.6313 0.0
C344 C 0.62113 0.51581 0.67003 0.0
H345 H 0.94017 0.66991 0.22501 0.0
H346 H 1.00664 0.66816 0.32286 0.0
H347 H 0.04123 0.63305 0.28808 0.0
H348 H 0.93258 0.58256 0.1914 0.0
H349 H 0.93726 0.59357 0.14315 0.0
H350 H 0.91731 0.61844 0.17554 0.0
H351 H 0.96711 0.67435 0.15588 0.0
H352 H 0.98729 0.64961 0.12352 0.0
H353 H 1.0165 0.67685 0.15846 0.0
H354 H 0.0691 0.59838 0.24299 0.0
H355 H 0.08836 0.5661 0.19136 0.0
H356 H 1.0047 0.58892 0.12057 0.0
C357 C 0.96183 0.66186 0.23917 0.0
C358 C 0.96998 0.6714 0.27712 0.0
C359 C 0.99915 0.66091 0.29426 0.0
C360 C 1.01914 0.64098 0.27457 0.0
C361 C 1.01017 0.63186 0.23743 0.0
C362 C 0.98225 0.64198 0.21977 0.0
C363 C 0.97862 0.62886 0.17942 0.0
C364 C 0.93909 0.6044 0.17195 0.0
C365 C 0.98793 0.65923 0.15275 0.0
C366 C 1.00858 0.60942 0.17727 0.0
C367 C 0.02645 0.61179 0.21114 0.0
C368 C 0.05521 0.59637 0.21644 0.0
C369 C 0.06596 0.57797 0.18671 0.0
C370 C 0.04815 0.57465 0.15161 0.0
C371 C 1.01898 0.59083 0.1469 0.0
H372 H 0.51928 0.24989 0.24682 0.0
H373 H 0.40167 0.23193 0.21827 0.0
H374 H 0.4082 0.18997 0.16881 0.0
H375 H 0.55442 0.24116 0.1513 0.0
H376 H 0.5881 0.21992 0.16711 0.0
H377 H 0.57477 0.25119 0.19684 0.0
H378 H 0.55585 0.20555 0.24804 0.0
H379 H 0.56854 0.1741 0.21821 0.0
H380 H 0.52174 0.16466 0.23775 0.0
H381 H 0.42632 0.14514 0.12741 0.0
H382 H 0.4558 0.1049 0.09392 0.0
H383 H 0.56151 0.15333 0.15011 0.0
C384 C 0.49521 0.23777 0.22947 0.0
C385 C 0.45998 0.24402 0.23606 0.0
C386 C 0.4289 0.22746 0.21327 0.0
C387 C 0.43236 0.20358 0.18532 0.0
C388 C 0.46719 0.19694 0.18042 0.0
C389 C 0.49823 0.21398 0.20152 0.0
C390 C 0.532 0.20109 0.19211 0.0
C391 C 0.56422 0.23007 0.17586 0.0
C392 C 0.54528 0.18541 0.22604 0.0
C393 C 0.51494 0.17358 0.16304 0.0
C394 C 0.47759 0.17154 0.15653 0.0
C395 C 0.45569 0.14685 0.13193 0.0
C396 C 0.47259 0.12397 0.11322 0.0
C397 C 0.51097 0.12603 0.11924 0.0
C398 C 0.53219 0.15121 0.14454 0.0
H399 H 0.23948 0.91571 0.57833 0.0
H400 H 0.24967 0.9385 0.69655 0.0
H401 H 0.21072 0.9789 0.69079 0.0
H402 H 0.24481 1.00271 0.55101 0.0
H403 H 0.2112 0.9885 0.51401 0.0
H404 H 0.24011 0.96166 0.52757 0.0
H405 H 0.18007 0.91094 0.53836 0.0
H406 H 0.15099 0.93766 0.52494 0.0
H407 H 0.14384 0.91731 0.56932 0.0
H408 H 0.1679 1.01442 0.67252 0.0
H409 H 0.12794 1.04569 0.6421 0.0
H410 H 0.14818 1.0014 0.53566 0.0
C411 C 0.2335 0.92928 0.60294 0.0
C412 C 0.2475 0.92412 0.63786 0.0
C413 C 0.23944 0.94244 0.66948 0.0
C414 C 0.21722 0.96525 0.66651 0.0
C415 C 0.20363 0.96962 0.63169 0.0
C416 C 0.21175 0.95241 0.6004 0.0
C417 C 0.19401 0.96194 0.5662 0.0
C418 C 0.22435 0.97977 0.53804 0.0
C419 C 0.16554 0.93006 0.54869 0.0
C420 C 0.1744 0.98698 0.58318 0.0
C421 C 0.18004 0.9909 0.62102 0.0
C422 C 0.16359 1.01184 0.64285 0.0
C423 C 0.14094 1.02941 0.62542 0.0
C424 C 0.13545 1.02611 0.58662 0.0
C425 C 0.15238 1.00466 0.56534 0.0
H426 H 0.7985 0.45354 0.9292 0.0
H427 H 0.81967 0.35533 0.90095 0.0
H428 H 0.88264 0.37589 0.92883 0.0
H429 H 0.89729 0.50745 0.91273 0.0
H430 H 0.89664 0.5368 0.95116 0.0
H431 H 0.8536 0.51567 0.92689 0.0
H432 H 0.8224 0.49164 0.98883 0.0
H433 H 0.86545 0.51243 1.01318 0.0
H434 H 0.84444 0.46651 1.01683 0.0
H435 H 0.94025 0.40362 0.9636 0.0
H436 H 0.99357 0.43968 0.99929 0.0
H437 H 0.93984 0.52274 1.00496 0.0
C438 C 0.81679 0.43675 0.92832 0.0
C439 C 0.80393 0.40261 0.91306 0.0
C440 C 0.82863 0.38134 0.91276 0.0
C441 C 0.86454 0.39281 0.92851 0.0
C442 C 0.87596 0.42594 0.94434 0.0
C443 C 0.8533 0.44797 0.94403 0.0
C444 C 0.87302 0.48214 0.9639 0.0
C445 C 0.88058 0.51231 0.93706 0.0
C446 C 0.84994 0.48854 0.99769 0.0
C447 C 0.90977 0.47537 0.97581 0.0
C448 C 0.91046 0.44264 0.96415 0.0
C449 C 0.94024 0.42944 0.97261 0.0
C450 C 0.97042 0.4502 0.99324 0.0
C451 C 0.97117 0.48417 1.00526 0.0
C452 C 0.94028 0.49695 0.99621 0.0
H453 H 0.85267 0.70324 0.47539 0.0
H454 H 0.82363 0.66314 0.36344 0.0
H455 H 0.76128 0.62906 0.3855 0.0
H456 H 0.80463 0.62436 0.52254 0.0
H457 H 0.78857 0.64643 0.56067 0.0
H458 H 0.83151 0.66745 0.53651 0.0
H459 H 0.80546 0.71916 0.52322 0.0
H460 H 0.76251 0.69837 0.54745 0.0
H461 H 0.76064 0.71145 0.50031 0.0
H462 H 0.70093 0.60045 0.4189 0.0
H463 H 0.64705 0.57948 0.46143 0.0
H464 H 0.71395 0.63666 0.5526 0.0
C465 C 0.83318 0.68739 0.45546 0.0
C466 C 0.84358 0.68584 0.41753 0.0
C467 C 0.817 0.66446 0.39265 0.0
C468 C 0.78127 0.64506 0.40491 0.0
C469 C 0.77208 0.64703 0.44232 0.0
C470 C 0.79722 0.66761 0.46731 0.0
C471 C 0.7799 0.66514 0.50602 0.0
C472 C 0.8025 0.64994 0.53303 0.0
C473 C 0.77695 0.70064 0.52007 0.0
C474 C 0.74106 0.64022 0.49876 0.0
C475 C 0.73725 0.63014 0.46177 0.0
C476 C 0.70374 0.608 0.44797 0.0
C477 C 0.67323 0.59609 0.47243 0.0
C478 C 0.67618 0.60601 0.51048 0.0
C479 C 0.71082 0.62823 0.52377 0.0
H480 H 0.33061 0.37452 0.26107 0.0
H481 H 0.33972 0.29149 0.18576 0.0
H482 H 0.29407 0.30575 0.14356 0.0
H483 H 0.23272 0.35997 0.25248 0.0
H484 H 0.23439 0.40508 0.25547 0.0
H485 H 0.2702 0.3903 0.2776 0.0
H486 H 0.32207 0.43458 0.24129 0.0
H487 H 0.28641 0.44962 0.21911 0.0
H488 H 0.31989 0.43471 0.19141 0.0
H489 H 0.24365 0.32679 0.11218 0.0
H490 H 0.19472 0.35381 0.0931 0.0
H491 H 0.21823 0.42188 0.19046 0.0
C492 C 0.32322 0.35942 0.23557 0.0
C493 C 0.33861 0.33181 0.22671 0.0
C494 C 0.32854 0.31295 0.19291 0.0
C495 C 0.30251 0.32077 0.16891 0.0
C496 C 0.28714 0.34763 0.17909 0.0
C497 C 0.29738 0.36679 0.21154 0.0
C498 C 0.27582 0.39337 0.21711 0.0
C499 C 0.25187 0.38677 0.25277 0.0
C500 C 0.30266 0.43026 0.21722 0.0
C501 C 0.25134 0.38599 0.18292 0.0
C502 C 0.25831 0.3596 0.16124 0.0
C503 C 0.23816 0.34758 0.12886 0.0
C504 C 0.21023 0.36292 0.11841 0.0
C505 C 0.20263 0.38996 0.14031 0.0
C506 C 0.22371 0.40163 0.17286 0.0
H507 H 0.63729 0.29859 0.92039 0.0
H508 H 0.74937 0.28691 0.90249 0.0
H509 H 0.72932 0.22912 0.92947 0.0
H510 H 0.62017 0.25687 1.00739 0.0
H511 H 0.57112 0.23507 0.99909 0.0
H512 H 0.5932 0.2751 0.9766 0.0
H513 H 0.57338 0.24562 0.91248 0.0
H514 H 0.55089 0.20557 0.93483 0.0
H515 H 0.58624 0.2069 0.89963 0.0
H516 H 0.69893 0.17391 0.96278 0.0
H517 H 0.65811 0.12312 0.99465 0.0
H518 H 0.56467 0.1681 0.98965 0.0
C519 C 0.65732 0.28355 0.92151 0.0
C520 C 0.69512 0.29766 0.90941 0.0
C521 C 0.72044 0.27705 0.91183 0.0
C522 C 0.70932 0.24406 0.92716 0.0
C523 C 0.67243 0.23134 0.9399 0.0
C524 C 0.64656 0.25016 0.93681 0.0
C525 C 0.60873 0.23024 0.95317 0.0
C526 C 0.59767 0.25054 0.98601 0.0
C527 C 0.57799 0.22157 0.92324 0.0
C528 C 0.61758 0.19768 0.96611 0.0
C529 C 0.6546 0.19898 0.95834 0.0
C530 C 0.66975 0.17247 0.96864 0.0
C531 C 0.6464 0.14372 0.98688 0.0
C532 C 0.60812 0.14136 0.99449 0.0
C533 C 0.59374 0.16893 0.98399 0.0
H534 H 0.93714 0.79052 0.47236 0.0
H535 H 0.96534 0.81636 0.35765 0.0
H536 H 0.99103 0.87775 0.37643 0.0
H537 H 0.90917 0.86715 0.49804 0.0
H538 H 0.92953 0.87168 0.5437 0.0
H539 H 0.91331 0.82953 0.52158 0.0
H540 H 0.97926 0.82035 0.52994 0.0
H541 H 0.99562 0.86245 0.55214 0.0
H542 H 1.02028 0.85175 0.51223 0.0
H543 H 1.01215 0.93706 0.40713 0.0
H544 H 0.03007 0.98925 0.44762 0.0
H545 H 0.99038 0.92632 0.54357 0.0
C546 C 0.94862 0.80908 0.45114 0.0
C547 C 0.94916 0.79818 0.41331 0.0
C548 C 0.9649 0.82359 0.38673 0.0
C549 C 0.9794 0.85871 0.39715 0.0
C550 C 0.97839 0.8685 0.43447 0.0
C551 C 0.96366 0.84443 0.46116 0.0
C552 C 0.96663 0.86199 0.49947 0.0
C553 C 0.92732 0.8573 0.51671 0.0
C554 C 0.99196 0.84832 0.52495 0.0
C555 C 0.98506 0.89966 0.49008 0.0
C556 C 0.99137 0.90274 0.45234 0.0
C557 C 1.00744 0.93485 0.43673 0.0
C558 C 1.01748 0.96451 0.46009 0.0
C559 C 1.01183 0.96229 0.49901 0.0
C560 C 0.99533 0.92915 0.51405 0.0
H561 H 0.34547 0.8068 0.56863 0.0
H562 H 0.25301 0.73473 0.62471 0.0
H563 H 0.29512 0.69892 0.63991 0.0
H564 H 0.38646 0.74274 0.52812 0.0
H565 H 0.43437 0.76918 0.53398 0.0
H566 H 0.39705 0.7892 0.52796 0.0
H567 H 0.41623 0.8245 0.58928 0.0
H568 H 0.45352 0.8045 0.59558 0.0
H569 H 0.41854 0.80216 0.63139 0.0
H570 H 0.34714 0.67175 0.64965 0.0
H571 H 0.40523 0.65301 0.65086 0.0
H572 H 0.46372 0.74211 0.58713 0.0
C573 C 0.33416 0.78334 0.58389 0.0
C574 C 0.2961 0.7732 0.59543 0.0
C575 C 0.28214 0.74259 0.61557 0.0
C576 C 0.30581 0.72226 0.62436 0.0
C577 C 0.34326 0.73294 0.61263 0.0
C578 C 0.35734 0.76261 0.59264 0.0
C579 C 0.39857 0.76801 0.58301 0.0
C580 C 0.40444 0.76722 0.54076 0.0
C581 C 0.42316 0.80179 0.60089 0.0
C582 C 0.4054 0.73666 0.60062 0.0
C583 C 0.37319 0.71695 0.6178 0.0
C584 C 0.37255 0.68694 0.63629 0.0
C585 C 0.40569 0.67663 0.63701 0.0
C586 C 0.43889 0.69617 0.61917 0.0
C587 C 0.43864 0.72658 0.60078 0.0
H588 H 0.755 0.87594 0.84146 0.0
H589 H 0.72986 0.76835 0.80574 0.0
H590 H 0.76873 0.78577 0.74944 0.0
H591 H 0.76177 0.91417 0.74568 0.0
H592 H 0.80005 0.95045 0.76084 0.0
H593 H 0.76329 0.9301 0.79297 0.0
H594 H 0.81381 0.92086 0.83764 0.0
H595 H 0.85056 0.94054 0.80562 0.0
H596 H 0.84609 0.89746 0.82118 0.0
H597 H 0.81944 0.81429 0.70333 0.0
H598 H 0.87695 0.85098 0.67297 0.0
H599 H 0.86787 0.93905 0.73997 0.0
C600 C 0.75595 0.8561 0.82094 0.0
C601 C 0.73894 0.82083 0.82775 0.0
C602 C 0.74251 0.79558 0.80095 0.0
C603 C 0.76436 0.80526 0.76881 0.0
C604 C 0.78211 0.84028 0.76378 0.0
C605 C 0.77766 0.86532 0.789 0.0
C606 C 0.80356 0.90055 0.7804 0.0
C607 C 0.7808 0.92527 0.7693 0.0
C608 C 0.83006 0.91569 0.81314 0.0
C609 C 0.82486 0.89122 0.74768 0.0
C610 C 0.81162 0.85655 0.73776 0.0
C611 C 0.82946 0.84161 0.71033 0.0
C612 C 0.86204 0.86252 0.69327 0.0
C613 C 0.87658 0.89764 0.70434 0.0
C614 C 0.8571 0.91222 0.73104 0.0
H615 H 0.77421 0.21288 0.41318 0.0
H616 H 0.84185 0.31423 0.37962 0.0
H617 H 0.80336 0.30876 0.32339 0.0
H618 H 0.77233 0.17413 0.32742 0.0
H619 H 0.72502 0.14589 0.33084 0.0
H620 H 0.75203 0.16077 0.37215 0.0
H621 H 0.699 0.18549 0.39815 0.0
H622 H 0.67176 0.17066 0.35673 0.0
H623 H 0.6829 0.21553 0.37121 0.0
H624 H 0.7647 0.28883 0.26642 0.0
H625 H 0.73005 0.25548 0.21305 0.0
H626 H 0.68989 0.16601 0.28204 0.0
C627 C 0.78065 0.23422 0.39436 0.0
C628 C 0.81113 0.26406 0.40113 0.0
C629 C 0.81827 0.29138 0.3757 0.0
C630 C 0.79658 0.28847 0.34349 0.0
C631 C 0.76771 0.25816 0.33705 0.0
C632 C 0.7596 0.23155 0.36189 0.0
C633 C 0.73033 0.20003 0.34646 0.0
C634 C 0.74588 0.16837 0.34407 0.0
C635 C 0.69383 0.1925 0.36952 0.0
C636 C 0.72456 0.21248 0.30836 0.0
C637 C 0.74574 0.24635 0.30378 0.0
C638 C 0.74751 0.26251 0.26989 0.0
C639 C 0.72791 0.24333 0.23969 0.0
C640 C 0.70713 0.20822 0.24345 0.0
C641 C 0.70471 0.19303 0.27854 0.0
H642 H 0.5107 0.73724 0.35806 0.0
H643 H 0.43683 0.65471 0.29224 0.0
H644 H 0.44189 0.61252 0.33915 0.0
H645 H 0.5728 0.69138 0.38657 0.0
H646 H 0.57965 0.70952 0.43303 0.0
H647 H 0.56741 0.73381 0.39646 0.0
H648 H 0.50952 0.73977 0.43425 0.0
H649 H 0.52169 0.7156 0.47109 0.0
H650 H 0.47548 0.70149 0.45056 0.0
H651 H 0.46158 0.57834 0.38891 0.0
H652 H 0.48984 0.55515 0.44037 0.0
H653 H 0.54844 0.65943 0.47734 0.0
C654 C 0.49485 0.7104 0.35404 0.0
C655 C 0.47318 0.69927 0.32137 0.0
C656 C 0.45332 0.66384 0.317 0.0
C657 C 0.45618 0.6397 0.34351 0.0
C658 C 0.47862 0.65129 0.37478 0.0
C659 C 0.49713 0.68591 0.38055 0.0
C660 C 0.52049 0.69126 0.41596 0.0
C661 C 0.56258 0.70745 0.40748 0.0
C662 C 0.50592 0.71334 0.44467 0.0
C663 C 0.51308 0.65419 0.42866 0.0
C664 C 0.48885 0.6316 0.40437 0.0
C665 C 0.47995 0.59589 0.40844 0.0
C666 C 0.49624 0.58291 0.43777 0.0
C667 C 0.52088 0.60536 0.46332 0.0
C668 C 0.52898 0.64159 0.45887 0.0
H669 H 0.17593 0.46581 0.80093 0.0
H670 H 0.1417 0.36254 0.84559 0.0
H671 H 0.11681 0.38532 0.90116 0.0
H672 H 0.20718 0.51022 0.88871 0.0
H673 H 0.1909 0.54714 0.87868 0.0
H674 H 0.20501 0.52276 0.84141 0.0
H675 H 0.14 0.51328 0.81033 0.0
H676 H 0.12569 0.53761 0.84751 0.0
H677 H 0.09764 0.4942 0.83635 0.0
H678 H 0.0934 0.41897 0.95199 0.0
H679 H 0.07657 0.46129 0.99457 0.0
H680 H 0.13037 0.54396 0.92123 0.0
C681 C 0.16353 0.44784 0.82239 0.0
C682 C 0.16066 0.41192 0.81792 0.0
C683 C 0.14364 0.38982 0.84713 0.0
C684 C 0.1296 0.40264 0.87926 0.0
C685 C 0.13285 0.43791 0.88256 0.0
C686 C 0.1496 0.4603 0.85501 0.0
C687 C 0.15003 0.49725 0.86591 0.0
C688 C 0.1907 0.52073 0.86885 0.0
C689 C 0.12697 0.51141 0.83838 0.0
C690 C 0.13095 0.49214 0.90386 0.0
C691 C 0.12112 0.4576 0.91277 0.0
C692 C 0.10201 0.44617 0.94568 0.0
C693 C 0.09324 0.47055 0.97028 0.0
C694 C 0.10415 0.50622 0.96265 0.0
C695 C 0.12262 0.51698 0.92847 0.0
H696 H 0.63654 0.85367 0.91168 0.0
H697 H 0.73423 0.86441 0.98151 0.0
H698 H 0.72251 0.91542 1.01286 0.0
H699 H 0.64764 0.94326 0.89994 0.0
H700 H 0.59815 0.9405 0.90295 0.0
H701 H 0.61284 0.90377 0.88627 0.0
H702 H 0.57202 0.86575 0.93658 0.0
H703 H 0.55682 0.90228 0.95304 0.0
H704 H 0.57833 0.87962 0.98459 0.0
H705 H 0.70442 0.96739 1.03278 0.0
H706 H 0.67515 1.01368 0.04772 0.0
H707 H 0.58585 0.96884 0.96856 0.0
C708 C 0.655 0.86653 0.93398 0.0
C709 C 0.68609 0.85492 0.94448 0.0
C710 C 0.70987 0.87246 0.97355 0.0
C711 C 0.70367 0.90166 0.99127 0.0
C712 C 0.67329 0.91282 0.97992 0.0
C713 C 0.64879 0.89553 0.95255 0.0
C714 C 0.61798 0.91304 0.94636 0.0
C715 C 0.61925 0.9259 0.90651 0.0
C716 C 0.57897 0.88872 0.95571 0.0
C717 C 0.62945 0.94307 0.97418 0.0
C718 C 0.66175 0.94251 0.99275 0.0
C719 C 0.67888 0.96796 1.01878 0.0
C720 C 0.66211 0.99435 1.02682 0.0
C721 C 0.62815 0.99497 1.00934 0.0
C722 C 0.61174 0.96902 0.98244 0.0
H723 H 0.88718 0.21357 0.53776 0.0
H724 H 0.88899 0.18923 0.41993 0.0
H725 H 0.91311 0.13969 0.43328 0.0
H726 H 0.97272 0.19647 0.55898 0.0
H727 H 0.95745 0.17799 0.60338 0.0
H728 H 0.93681 0.20947 0.58496 0.0
H729 H 0.87018 0.16646 0.59106 0.0
H730 H 0.89065 0.13482 0.60959 0.0
H731 H 0.86061 0.12404 0.56946 0.0
H732 H 0.94271 0.09675 0.45857 0.0
H733 H 0.97397 0.06159 0.49461 0.0
H734 H 0.95247 0.11306 0.59619 0.0
C735 C 0.89234 0.19761 0.5148 0.0
C736 C 0.88598 0.20511 0.47781 0.0
C737 C 0.893 0.1836 0.44852 0.0
C738 C 0.90688 0.15551 0.4558 0.0
C739 C 0.91336 0.14917 0.49252 0.0
C740 C 0.90611 0.16943 0.52159 0.0
C741 C 0.91724 0.15801 0.55837 0.0
C742 C 0.94787 0.18722 0.57753 0.0
C743 C 0.8826 0.14506 0.5836 0.0
C744 C 0.93264 0.12864 0.54533 0.0
C745 C 0.93 0.12393 0.50725 0.0
C746 C 0.94441 0.0998 0.48845 0.0
C747 C 0.96215 0.08004 0.50911 0.0
C748 C 0.96517 0.08449 0.54809 0.0
C749 C 0.94988 0.1088 0.56645 0.0
H750 H 0.31561 0.73357 0.17344 0.0
H751 H 0.37696 0.65779 0.18957 0.0
H752 H 0.32602 0.61323 0.15833 0.0
H753 H 0.22292 0.67608 0.18935 0.0
H754 H 0.20016 0.69431 0.15454 0.0
H755 H 0.24178 0.72081 0.17744 0.0
H756 H 0.27444 0.73593 0.11382 0.0
H757 H 0.23292 0.70942 0.09072 0.0
H758 H 0.278 0.70158 0.08219 0.0
H759 H 0.26863 0.57646 0.12603 0.0
H760 H 0.20768 0.54914 0.09634 0.0
H761 H 0.18139 0.64764 0.10008 0.0
C762 C 0.3185 0.70768 0.17011 0.0
C763 C 0.35057 0.69935 0.18423 0.0
C764 C 0.35273 0.66492 0.1796 0.0
C765 C 0.32395 0.63939 0.1616 0.0
C766 C 0.29283 0.6484 0.14822 0.0
C767 C 0.28976 0.68166 0.15228 0.0
C768 C 0.25268 0.68401 0.13599 0.0
C769 C 0.22792 0.69442 0.16613 0.0
C770 C 0.25996 0.70924 0.10376 0.0
C771 C 0.23544 0.64689 0.12221 0.0
C772 C 0.25931 0.62696 0.12954 0.0
C773 C 0.24976 0.59186 0.12011 0.0
C774 C 0.21486 0.57654 0.10315 0.0
C775 C 0.18935 0.59605 0.09556 0.0
C776 C 0.20016 0.63193 0.10508 0.0
H777 H 0.36537 0.45727 0.72746 0.0
H778 H 0.27481 0.43302 0.64703 0.0
H779 H 0.32009 0.46027 0.59829 0.0
H780 H 0.41921 0.54075 0.68938 0.0
H781 H 0.4643 0.53368 0.69837 0.0
H782 H 0.42444 0.51476 0.72773 0.0
H783 H 0.43352 0.45411 0.7148 0.0
H784 H 0.47337 0.47286 0.68546 0.0
H785 H 0.43443 0.43858 0.66757 0.0
H786 H 0.37541 0.48763 0.55755 0.0
H787 H 0.43701 0.51096 0.52697 0.0
H788 H 0.4933 0.51747 0.63285 0.0
C789 C 0.355 0.45839 0.69971 0.0
C790 C 0.31618 0.44397 0.69144 0.0
C791 C 0.30402 0.44473 0.65445 0.0
C792 C 0.32964 0.4601 0.6265 0.0
C793 C 0.36757 0.47432 0.63569 0.0
C794 C 0.38031 0.47354 0.67138 0.0
C795 C 0.42295 0.48897 0.67333 0.0
C796 C 0.43333 0.52147 0.69871 0.0
C797 C 0.44219 0.46202 0.68604 0.0
C798 C 0.43227 0.49813 0.63305 0.0
C799 C 0.39976 0.48965 0.61197 0.0
C800 C 0.40096 0.49451 0.57386 0.0
C801 C 0.43617 0.5078 0.55672 0.0
C802 C 0.47005 0.51616 0.57742 0.0
C803 C 0.46793 0.51171 0.6163 0.0
H804 H 0.77515 0.72132 1.00109 0.0
H805 H 0.75506 0.69454 0.88458 0.0
H806 H 0.81059 0.67152 0.88256 0.0
H807 H 0.87487 0.75037 0.99473 0.0
H808 H 0.88315 0.73363 1.03867 0.0
H809 H 0.84048 0.74574 1.0315 0.0
H810 H 0.80056 0.68443 0.04943 0.0
H811 H 0.84313 0.67219 0.0569 0.0
H812 H 0.80794 0.64715 1.02522 0.0
H813 H 0.86946 0.65308 0.89312 0.0
H814 H 0.92782 0.64158 0.9149 0.0
H815 H 0.90973 0.68106 1.02458 0.0
C816 C 0.78216 0.71 0.97539 0.0
C817 C 0.76044 0.70879 0.9432 0.0
C818 C 0.77095 0.69488 0.90969 0.0
C819 C 0.80244 0.68189 0.9083 0.0
C820 C 0.82327 0.68335 0.9406 0.0
C821 C 0.81356 0.69707 0.97352 0.0
C822 C 0.84147 0.69689 1.00389 0.0
C823 C 0.86115 0.73386 1.01801 0.0
C824 C 0.82211 0.67378 1.03574 0.0
C825 C 0.86863 0.68126 0.98285 0.0
C826 C 0.85752 0.67341 0.94646 0.0
C827 C 0.87832 0.65897 0.92161 0.0
C828 C 0.91135 0.6524 0.93428 0.0
C829 C 0.92342 0.66043 0.97143 0.0
C830 C 0.90156 0.67499 0.99592 0.0
H831 H 0.49842 0.82709 0.198 0.0
H832 H 0.38134 0.82487 0.18384 0.0
H833 H 0.40151 0.88273 0.15666 0.0
H834 H 0.53377 0.9189 0.22188 0.0
H835 H 0.57739 0.92452 0.19667 0.0
H836 H 0.55384 0.88319 0.21588 0.0
H837 H 0.553 0.85398 0.15097 0.0
H838 H 0.57642 0.89523 0.13157 0.0
H839 H 0.53216 0.86957 0.1126 0.0
H840 H 0.43447 0.94138 0.1301 0.0
H841 H 0.47766 0.99544 0.10645 0.0
H842 H 0.57355 0.96006 0.13666 0.0
C843 C 0.47702 0.83893 0.18955 0.0
C844 C 0.43813 0.82107 0.19312 0.0
C845 C 0.41122 0.83757 0.18114 0.0
C846 C 0.42243 0.87062 0.16574 0.0
C847 C 0.46084 0.88727 0.16219 0.0
C848 C 0.48778 0.87199 0.17374 0.0
C849 C 0.52724 0.89526 0.16601 0.0
C850 C 0.54936 0.90611 0.20227 0.0
C851 C 0.54845 0.87744 0.13866 0.0
C852 C 0.51829 0.92596 0.14849 0.0
C853 C 0.47978 0.92085 0.1466 0.0
C854 C 0.46467 0.94559 0.1315 0.0
C855 C 0.48943 0.97629 0.1181 0.0
C856 C 0.52902 0.98218 0.11966 0.0
C857 C 0.54344 0.95646 0.13506 0.0
H858 H 0.16202 0.31976 0.66716 0.0
H859 H 0.14621 0.29217 0.78289 0.0
H860 H 0.12023 0.23091 0.764 0.0
H861 H 0.07689 0.25723 0.63313 0.0
H862 H 0.09827 0.24762 0.59053 0.0
H863 H 0.11543 0.2896 0.61282 0.0
H864 H 0.18272 0.28215 0.6141 0.0
H865 H 0.16568 0.24011 0.59189 0.0
H866 H 0.19027 0.24474 0.63542 0.0
H867 H 0.09741 0.17188 0.73294 0.0
H868 H 0.07709 0.12005 0.69215 0.0
H869 H 0.10639 0.18439 0.59568 0.0
C870 C 0.15321 0.30087 0.68861 0.0
C871 C 0.15617 0.31132 0.72677 0.0
C872 C 0.14382 0.2854 0.7536 0.0
C873 C 0.12922 0.2503 0.7431 0.0
C874 C 0.12682 0.241 0.70548 0.0
C875 C 0.13828 0.26552 0.67856 0.0
C876 C 0.13228 0.24838 0.64 0.0
C877 C 0.10403 0.26149 0.61781 0.0
C878 C 0.16998 0.25419 0.61912 0.0
C879 C 0.11586 0.21045 0.64949 0.0
C880 C 0.11314 0.20688 0.68748 0.0
C881 C 0.09934 0.17447 0.70316 0.0
C882 C 0.08788 0.14503 0.67962 0.0
C883 C 0.08993 0.14773 0.64048 0.0
C884 C 0.10422 0.18116 0.62538 0.0
H885 H 0.81186 0.32391 0.53711 0.0
H886 H 0.90614 0.40355 0.49349 0.0
H887 H 0.86244 0.43647 0.47417 0.0
H888 H 0.74536 0.3271 0.4661 0.0
H889 H 0.70578 0.32026 0.49749 0.0
H890 H 0.74437 0.30285 0.50751 0.0
H891 H 0.75338 0.33482 0.57153 0.0
H892 H 0.71468 0.35214 0.56186 0.0
H893 H 0.76016 0.3809 0.57388 0.0
H894 H 0.80877 0.46038 0.45985 0.0
H895 H 0.74885 0.47546 0.45396 0.0
H896 H 0.68946 0.38038 0.50763 0.0
C897 C 0.82319 0.34845 0.5238 0.0
C898 C 0.86222 0.36167 0.51714 0.0
C899 C 0.87625 0.39347 0.49913 0.0
C900 C 0.8517 0.41214 0.48796 0.0
C901 C 0.81329 0.39848 0.495 0.0
C902 C 0.7991 0.36747 0.51265 0.0
C903 C 0.75674 0.3588 0.51734 0.0
C904 C 0.7369 0.32527 0.49582 0.0
C905 C 0.7456 0.35655 0.5586 0.0
C906 C 0.74939 0.39001 0.49997 0.0
C907 C 0.78234 0.41238 0.48691 0.0
C908 C 0.78275 0.44304 0.46986 0.0
C909 C 0.74859 0.45127 0.46644 0.0
C910 C 0.71459 0.42902 0.48023 0.0
C911 C 0.71508 0.39792 0.49701 0.0
loop_
_geom_bond_atom_site_label_1
_geom_bond_atom_site_label_2
_geom_bond_distance
_geom_bond_site_symmetry_2
_ccdc_geom_bond_type
H0 C7 0.929 . S
H1 C10 0.930 . S
H2 C12 0.929 . S
H3 C4 0.969 . S
C4 H3 0.969 . S
C4 O5 1.550 . S
C4 H6 0.973 . S
O5 C4 1.550 . S
O5 C11 1.412 . S
H6 C4 0.973 . S
C7 H0 0.929 . S
C7 C8 1.400 . S
C7 C9 1.364 . S
C8 C7 1.400 . S
C8 C12 1.377 . S
C9 C7 1.364 . S
C9 C10 1.374 . S
C10 H1 0.930 . S
C10 C9 1.374 . S
C10 C11 1.383 . S
C11 O5 1.412 . S
C11 C10 1.383 . S
C11 C12 1.394 . S
C12 H2 0.929 . S
C12 C8 1.377 . S
C12 C11 1.394 . S
H13 C20 0.929 . S
H14 C23 0.930 . S
H15 C25 0.929 . S
H16 C17 0.969 . S
C17 H16 0.969 . S
C17 O18 1.550 . S
C17 H19 0.973 . S
O18 C17 1.550 . S
O18 C24 1.412 . S
H19 C17 0.973 . S
C20 H13 0.929 . S
C20 C21 1.400 . S
C20 C22 1.364 . S
C21 C20 1.400 . S
C21 C25 1.377 . S
C22 C20 1.364 . S
C22 C23 1.374 . S
C23 H14 0.930 . S
C23 C22 1.374 . S
C23 C24 1.383 . S
C24 O18 1.412 . S
C24 C23 1.383 . S
C24 C25 1.394 . S
C25 H15 0.929 . S
C25 C21 1.377 . S
C25 C24 1.394 . S
H26 C33 0.929 . S
H27 C36 0.930 . S
H28 C38 0.929 . S
H29 C30 0.969 . S
C30 H29 0.969 . S
C30 O31 1.550 . S
C30 H32 0.973 . S
O31 C30 1.550 . S
O31 C37 1.412 . S
H32 C30 0.973 . S
C33 H26 0.929 . S
C33 C34 1.400 . S
C33 C35 1.364 . S
C34 C33 1.400 . S
C34 C38 1.377 . S
C35 C33 1.364 . S
C35 C36 1.374 . S
C36 H27 0.930 . S
C36 C35 1.374 . S
C36 C37 1.383 . S
C37 O31 1.412 . S
C37 C36 1.383 . S
C37 C38 1.394 . S
C38 H28 0.929 . S
C38 C34 1.377 . S
C38 C37 1.394 . S
H39 C46 0.929 . S
H40 C49 0.930 . S
H41 C51 0.929 . S
H42 C43 0.969 . S
C43 H42 0.969 . S
C43 O44 1.550 . S
C43 H45 0.973 . S
O44 C43 1.550 . S
O44 C50 1.412 . S
H45 C43 0.973 . S
C46 H39 0.929 . S
C46 C47 1.400 . S
C46 C48 1.364 . S
C47 C46 1.400 . S
C47 C51 1.377 . S
C48 C46 1.364 . S
C48 C49 1.374 . S
C49 H40 0.930 . S
C49 C48 1.374 . S
C49 C50 1.383 . S
C50 O44 1.412 . S
C50 C49 1.383 . S
C50 C51 1.394 . S
C51 H41 0.929 . S
C51 C47 1.377 . S
C51 C50 1.394 . S
H52 C59 0.929 . S
H53 C62 0.930 . S
H54 C64 0.929 . S
H55 C56 0.969 . S
C56 H55 0.969 . S
C56 O57 1.550 . S
C56 H58 0.973 . S
O57 C56 1.550 . S
O57 C63 1.412 . S
H58 C56 0.973 . S
C59 H52 0.929 . S
C59 C60 1.400 . S
C59 C61 1.364 . S
C60 C59 1.400 . S
C60 C64 1.377 . S
C61 C59 1.364 . S
C61 C62 1.374 . S
C62 H53 0.930 . S
C62 C61 1.374 . S
C62 C63 1.383 . S
C63 O57 1.412 . S
C63 C62 1.383 . S
C63 C64 1.394 . S
C64 H54 0.929 . S
C64 C60 1.377 . S
C64 C63 1.394 . S
H65 C72 0.929 . S
H66 C75 0.930 . S
H67 C77 0.929 . S
H68 C69 0.969 . S
C69 H68 0.969 . S
C69 O70 1.550 . S
C69 H71 0.973 . S
O70 C69 1.550 . S
O70 C76 1.412 . S
H71 C69 0.973 . S
C72 H65 0.929 . S
C72 C73 1.400 . S
C72 C74 1.364 . S
C73 C72 1.400 . S
C73 C77 1.377 . S
C74 C72 1.364 . S
C74 C75 1.374 . S
C75 H66 0.930 . S
C75 C74 1.374 . S
C75 C76 1.383 . S
C76 O70 1.412 . S
C76 C75 1.383 . S
C76 C77 1.394 . S
C77 H67 0.929 . S
C77 C73 1.377 . S
C77 C76 1.394 . S
H78 C85 0.929 . S
H79 C88 0.930 . S
H80 C90 0.929 . S
H81 C82 0.969 . S
C82 H81 0.969 . S
C82 O83 1.550 . S
C82 H84 0.973 . S
O83 C82 1.550 . S
O83 C89 1.412 . S
H84 C82 0.973 . S
C85 H78 0.929 . S
C85 C86 1.400 . S
C85 C87 1.364 . S
C86 C85 1.400 . S
C86 C90 1.377 . S
C87 C85 1.364 . S
C87 C88 1.374 . S
C88 H79 0.930 . S
C88 C87 1.374 . S
C88 C89 1.383 . S
C89 O83 1.412 . S
C89 C88 1.383 . S
C89 C90 1.394 . S
C90 H80 0.929 . S
C90 C86 1.377 . S
C90 C89 1.394 . S
H91 C98 0.929 . S
H92 C101 0.930 . S
H93 C103 0.929 . S
H94 C95 0.969 . S
C95 H94 0.969 . S
C95 O96 1.550 . S
C95 H97 0.973 . S
O96 C95 1.550 . S
O96 C102 1.412 . S
H97 C95 0.973 . S
C98 H91 0.929 . S
C98 C99 1.400 . S
C98 C100 1.364 . S
C99 C98 1.400 . S
C99 C103 1.377 . S
C100 C98 1.364 . S
C100 C101 1.374 . S
C101 H92 0.930 . S
C101 C100 1.374 . S
C101 C102 1.383 . S
C102 O96 1.412 . S
C102 C101 1.383 . S
C102 C103 1.394 . S
C103 H93 0.929 . S
C103 C99 1.377 . S
C103 C102 1.394 . S
Ho104 C107 2.811 . S
Ho104 O124 2.322 . S
Ho104 O126 2.378 . S
Ho104 O127 2.524 . S
Ho104 O128 2.381 . S
Ho104 O129 2.658 1_545 S
Ho104 O131 2.346 1_545 S
Ho104 O135 2.305 . S
Ho105 C116 2.811 1_545 S
Ho105 O125 2.346 1_655 S
Ho105 O129 2.294 1_645 S
Ho105 O130 2.322 1_545 S
Ho105 O132 2.378 1_545 S
Ho105 O133 2.524 1_545 S
Ho105 O134 2.381 . S
Ho105 O135 2.669 1_655 S
C106 O124 1.259 . S
C106 O125 1.268 . S
C107 Ho104 2.811 . S
C107 C108 1.488 . S
C107 O126 1.215 . S
C107 O127 1.289 . S
C108 C107 1.488 . S
C108 C109 1.348 . S
C108 C113 1.413 . S
C109 C108 1.348 . S
C109 C110 1.442 . S
C109 H136 0.930 . S
C110 C109 1.442 . S
C110 C111 1.381 . S
C110 H137 0.931 . S
C111 C110 1.381 . S
C111 C112 1.321 . S
C112 C111 1.321 . S
C112 C113 1.403 . S
C112 H138 0.934 . S
C113 C108 1.413 . S
C113 C112 1.403 . S
C113 H139 0.930 . S
C114 O128 1.275 1_565 S
C114 O129 1.266 . S
C115 O130 1.259 . S
C115 O131 1.268 1_655 S
C116 Ho105 2.811 1_565 S
C116 C117 1.488 . S
C116 O132 1.215 . S
C116 O133 1.289 . S
C117 C116 1.488 . S
C117 C118 1.348 . S
C117 C122 1.413 . S
C118 C117 1.348 . S
C118 C119 1.442 . S
C118 H140 0.930 . S
C119 C118 1.442 . S
C119 C120 1.381 . S
C119 H141 0.931 . S
C120 C119 1.381 . S
C120 C121 1.321 . S
C121 C120 1.321 . S
C121 C122 1.403 . S
C121 H142 0.934 . S
C122 C117 1.413 . S
C122 C121 1.403 . S
C122 H143 0.930 . S
C123 O134 1.275 . S
C123 O135 1.256 1_655 S
O124 Ho104 2.322 . S
O124 C106 1.259 . S
O125 Ho105 2.346 1_455 S
O125 C106 1.268 . S
O126 Ho104 2.378 . S
O126 C107 1.215 . S
O127 Ho104 2.524 . S
O127 C107 1.289 . S
O128 Ho104 2.381 . S
O128 C114 1.275 1_545 S
O129 Ho104 2.658 1_565 S
O129 Ho105 2.294 1_465 S
O129 C114 1.266 . S
O130 Ho105 2.322 1_565 S
O130 C115 1.259 . S
O131 Ho104 2.346 1_565 S
O131 C115 1.268 1_455 S
O132 Ho105 2.378 1_565 S
O132 C116 1.215 . S
O133 Ho105 2.524 1_565 S
O133 C116 1.289 . S
O134 Ho105 2.381 . S
O134 C123 1.275 . S
O135 Ho104 2.305 . S
O135 Ho105 2.669 1_455 S
O135 C123 1.256 1_455 S
H136 C109 0.930 . S
H137 C110 0.931 . S
H138 C112 0.934 . S
H139 C113 0.930 . S
H140 C118 0.930 . S
H141 C119 0.931 . S
H142 C121 0.934 . S
H143 C122 0.930 . S
Ho144 C147 2.811 . S
Ho144 O164 2.322 . S
Ho144 O166 2.378 . S
Ho144 O167 2.524 . S
Ho144 O168 2.381 1_545 S
Ho144 O169 2.669 1_545 S
Ho144 O171 2.346 1_544 S
Ho144 O175 2.310 . S
Ho145 C156 2.811 1_545 S
Ho145 O165 2.346 1_556 S
Ho145 O169 2.305 1_546 S
Ho145 O170 2.322 1_545 S
Ho145 O172 2.378 1_545 S
Ho145 O173 2.524 1_545 S
Ho145 O174 2.381 . S
Ho145 O175 2.667 1_556 S
C146 O164 1.259 . S
C146 O165 1.268 . S
C147 Ho144 2.811 . S
C147 C148 1.488 . S
C147 O166 1.215 . S
C147 O167 1.289 . S
C148 C147 1.488 . S
C148 C149 1.348 . S
C148 C153 1.413 . S
C149 C148 1.348 . S
C149 C150 1.442 . S
C149 H176 0.930 . S
C150 C149 1.442 . S
C150 C151 1.381 . S
C150 H177 0.931 . S
C151 C150 1.381 . S
C151 C152 1.321 . S
C152 C151 1.321 . S
C152 C153 1.403 . S
C152 H178 0.934 . S
C153 C148 1.413 . S
C153 C152 1.403 . S
C153 H179 0.930 . S
C154 O168 1.275 . S
C154 O169 1.256 . S
C155 O170 1.259 . S
C155 O171 1.268 . S
C156 Ho145 2.811 1_565 S
C156 C157 1.488 . S
C156 O172 1.215 . S
C156 O173 1.289 . S
C157 C156 1.488 . S
C157 C158 1.348 . S
C157 C162 1.413 . S
C158 C157 1.348 . S
C158 C159 1.442 . S
C158 H180 0.930 . S
C159 C158 1.442 . S
C159 C160 1.381 . S
C159 H181 0.931 . S
C160 C159 1.381 . S
C160 C161 1.321 . S
C161 C160 1.321 . S
C161 C162 1.403 . S
C161 H182 0.934 . S
C162 C157 1.413 . S
C162 C161 1.403 . S
C162 H183 0.930 . S
C163 O174 1.275 . S
C163 O175 1.250 1_556 S
O164 Ho144 2.322 . S
O164 C146 1.259 . S
O165 Ho145 2.346 1_554 S
O165 C146 1.268 . S
O166 Ho144 2.378 . S
O166 C147 1.215 . S
O167 Ho144 2.524 . S
O167 C147 1.289 . S
O168 Ho144 2.381 1_565 S
O168 C154 1.275 . S
O169 Ho144 2.669 1_565 S
O169 Ho145 2.305 1_564 S
O169 C154 1.256 . S
O170 Ho145 2.322 1_565 S
O170 C155 1.259 . S
O171 Ho144 2.346 1_566 S
O171 C155 1.268 . S
O172 Ho145 2.378 1_565 S
O172 C156 1.215 . S
O173 Ho145 2.524 1_565 S
O173 C156 1.289 . S
O174 Ho145 2.381 . S
O174 C163 1.275 . S
O175 Ho144 2.310 . S
O175 Ho145 2.667 1_554 S
O175 C163 1.250 1_554 S
H176 C149 0.930 . S
H177 C150 0.931 . S
H178 C152 0.934 . S
H179 C153 0.930 . S
H180 C158 0.930 . S
H181 C159 0.931 . S
H182 C161 0.934 . S
H183 C162 0.930 . S
Ho184 C187 2.811 . S
Ho184 O204 2.322 . S
Ho184 O206 2.378 . S
Ho184 O207 2.524 . S
Ho184 O208 2.381 . S
Ho184 O209 2.669 . S
Ho184 O211 2.346 . S
Ho184 O215 2.305 . S
Ho185 C196 2.811 . S
Ho185 O205 2.346 . S
Ho185 O209 2.305 . S
Ho185 O210 2.322 . S
Ho185 O212 2.378 . S
Ho185 O213 2.524 . S
Ho185 O214 2.381 . S
Ho185 O215 2.669 . S
C186 O204 1.259 . S
C186 O205 1.268 . S
C187 Ho184 2.811 . S
C187 C188 1.488 . S
C187 O206 1.215 . S
C187 O207 1.289 . S
C188 C187 1.488 . S
C188 C189 1.348 . S
C188 C193 1.413 . S
C189 C188 1.348 . S
C189 C190 1.442 . S
C189 H216 0.930 . S
C190 C189 1.442 . S
C190 C191 1.381 . S
C190 H217 0.931 . S
C191 C190 1.381 . S
C191 C192 1.321 . S
C192 C191 1.321 . S
C192 C193 1.403 . S
C192 H218 0.934 . S
C193 C188 1.413 . S
C193 C192 1.403 . S
C193 H219 0.930 . S
C194 O208 1.275 . S
C194 O209 1.256 . S
C195 O210 1.259 . S
C195 O211 1.268 . S
C196 Ho185 2.811 . S
C196 C197 1.488 . S
C196 O212 1.215 . S
C196 O213 1.289 . S
C197 C196 1.488 . S
C197 C198 1.348 . S
C197 C202 1.413 . S
C198 C197 1.348 . S
C198 C199 1.442 . S
C198 H220 0.930 . S
C199 C198 1.442 . S
C199 C200 1.381 . S
C199 H221 0.931 . S
C200 C199 1.381 . S
C200 C201 1.321 . S
C201 C200 1.321 . S
C201 C202 1.403 . S
C201 H222 0.934 . S
C202 C197 1.413 . S
C202 C201 1.403 . S
C202 H223 0.930 . S
C203 O214 1.275 . S
C203 O215 1.256 . S
O204 Ho184 2.322 . S
O204 C186 1.259 . S
O205 Ho185 2.346 . S
O205 C186 1.268 . S
O206 Ho184 2.378 . S
O206 C187 1.215 . S
O207 Ho184 2.524 . S
O207 C187 1.289 . S
O208 Ho184 2.381 . S
O208 C194 1.275 . S
O209 Ho184 2.669 . S
O209 Ho185 2.305 . S
O209 C194 1.256 . S
O210 Ho185 2.322 . S
O210 C195 1.259 . S
O211 Ho184 2.346 . S
O211 C195 1.268 . S
O212 Ho185 2.378 . S
O212 C196 1.215 . S
O213 Ho185 2.524 . S
O213 C196 1.289 . S
O214 Ho185 2.381 . S
O214 C203 1.275 . S
O215 Ho184 2.305 . S
O215 Ho185 2.669 . S
O215 C203 1.256 . S
H216 C189 0.930 . S
H217 C190 0.931 . S
H218 C192 0.934 . S
H219 C193 0.930 . S
H220 C198 0.930 . S
H221 C199 0.931 . S
H222 C201 0.934 . S
H223 C202 0.930 . S
Ho224 C227 2.811 . S
Ho224 O244 2.322 . S
Ho224 O246 2.378 . S
Ho224 O247 2.524 . S
Ho224 O248 2.381 . S
Ho224 O249 2.669 . S
Ho224 O251 2.346 1_455 S
Ho224 O255 2.305 . S
Ho225 C236 2.811 1_454 S
Ho225 O245 2.346 . S
Ho225 O249 2.305 . S
Ho225 O250 2.322 1_454 S
Ho225 O252 2.378 1_554 S
Ho225 O253 2.524 1_455 S
Ho225 O254 2.381 1_554 S
Ho225 O255 2.669 . S
C226 O244 1.259 . S
C226 O245 1.268 . S
C227 Ho224 2.811 . S
C227 C228 1.488 . S
C227 O246 1.215 . S
C227 O247 1.289 . S
C228 C227 1.488 . S
C228 C229 1.348 . S
C228 C233 1.413 . S
C229 C228 1.348 . S
C229 C230 1.442 . S
C229 H256 0.930 . S
C230 C229 1.442 . S
C230 C231 1.381 . S
C230 H257 0.931 . S
C231 C230 1.381 . S
C231 C232 1.321 . S
C232 C231 1.321 . S
C232 C233 1.403 . S
C232 H258 0.934 . S
C233 C228 1.413 . S
C233 C232 1.403 . S
C233 H259 0.930 . S
C234 O248 1.275 . S
C234 O249 1.256 . S
C235 O250 1.259 1_554 S
C235 O251 1.268 . S
C236 Ho225 2.811 1_656 S
C236 C237 1.488 . S
C236 O252 1.215 1_655 S
C236 O253 1.289 1_556 S
C237 C236 1.488 . S
C237 C238 1.348 . S
C237 C242 1.413 . S
C238 C237 1.348 . S
C238 C239 1.442 . S
C238 H260 0.930 1_556 S
C239 C238 1.442 . S
C239 C240 1.381 . S
C239 H261 0.931 . S
C240 C239 1.381 . S
C240 C241 1.321 . S
C241 C240 1.321 . S
C241 C242 1.403 . S
C241 H262 0.934 . S
C242 C237 1.413 . S
C242 C241 1.403 . S
C242 H263 0.930 . S
C243 O254 1.275 . S
C243 O255 1.256 1_556 S
O244 Ho224 2.322 . S
O244 C226 1.259 . S
O245 Ho225 2.346 . S
O245 C226 1.268 . S
O246 Ho224 2.378 . S
O246 C227 1.215 . S
O247 Ho224 2.524 . S
O247 C227 1.289 . S
O248 Ho224 2.381 . S
O248 C234 1.275 . S
O249 Ho224 2.669 . S
O249 Ho225 2.305 . S
O249 C234 1.256 . S
O250 Ho225 2.322 1_656 S
O250 C235 1.259 1_556 S
O251 Ho224 2.346 1_655 S
O251 C235 1.268 . S
O252 Ho225 2.378 1_556 S
O252 C236 1.215 1_455 S
O253 Ho225 2.524 1_655 S
O253 C236 1.289 1_554 S
O254 Ho225 2.381 1_556 S
O254 C243 1.275 . S
O255 Ho224 2.305 . S
O255 Ho225 2.669 . S
O255 C243 1.256 1_554 S
H256 C229 0.930 . S
H257 C230 0.931 . S
H258 C232 0.934 . S
H259 C233 0.930 . S
H260 C238 0.930 1_554 S
H261 C239 0.931 . S
H262 C241 0.934 . S
H263 C242 0.930 . S
H264 C276 0.930 . S
H265 C278 0.930 . S
H266 C279 0.930 . S
H267 C283 0.959 . S
H268 C283 0.959 . S
H269 C283 0.961 . S
H270 C284 0.960 . S
H271 C284 0.961 . S
H272 C284 0.959 . S
H273 C287 0.929 . S
H274 C288 0.931 . S
H275 C290 0.930 . S
C276 H264 0.930 . S
C276 C277 1.399 . S
C276 C281 1.399 . S
C277 C276 1.399 . S
C277 C278 1.376 . S
C278 H265 0.930 . S
C278 C277 1.376 . S
C278 C279 1.388 . S
C279 H266 0.930 . S
C279 C278 1.388 . S
C279 C280 1.390 . S
C280 C279 1.390 . S
C280 C281 1.394 . S
C280 C286 1.465 . S
C281 C276 1.399 . S
C281 C280 1.394 . S
C281 C282 1.516 . S
C282 C281 1.516 . S
C282 C283 1.502 . S
C282 C284 1.561 . S
C282 C285 1.526 . S
C283 H267 0.959 . S
C283 H268 0.959 . S
C283 H269 0.961 . S
C283 C282 1.502 . S
C284 H270 0.960 . S
C284 H271 0.961 . S
C284 H272 0.959 . S
C284 C282 1.561 . S
C285 C282 1.526 . S
C285 C286 1.396 . S
C285 C290 1.390 . S
C286 C280 1.465 . S
C286 C285 1.396 . S
C286 C287 1.399 . S
C287 H273 0.929 . S
C287 C286 1.399 . S
C287 C288 1.385 . S
C288 H274 0.931 . S
C288 C287 1.385 . S
C288 C289 1.389 . S
C289 C288 1.389 . S
C289 C290 1.387 . S
C290 H275 0.930 . S
C290 C285 1.390 . S
C290 C289 1.387 . S
H291 C303 0.930 . S
H292 C305 0.930 . S
H293 C306 0.930 . S
H294 C310 0.959 . S
H295 C310 0.959 . S
H296 C310 0.961 . S
H297 C311 0.960 . S
H298 C311 0.961 . S
H299 C311 0.959 . S
H300 C314 0.929 . S
H301 C315 0.931 . S
H302 C317 0.930 . S
C303 H291 0.930 . S
C303 C304 1.399 . S
C303 C308 1.399 . S
C304 C303 1.399 . S
C304 C305 1.376 . S
C305 H292 0.930 . S
C305 C304 1.376 . S
C305 C306 1.388 . S
C306 H293 0.930 . S
C306 C305 1.388 . S
C306 C307 1.390 . S
C307 C306 1.390 . S
C307 C308 1.394 . S
C307 C313 1.465 . S
C308 C303 1.399 . S
C308 C307 1.394 . S
C308 C309 1.516 . S
C309 C308 1.516 . S
C309 C310 1.502 . S
C309 C311 1.561 . S
C309 C312 1.526 . S
C310 H294 0.959 . S
C310 H295 0.959 . S
C310 H296 0.961 . S
C310 C309 1.502 . S
C311 H297 0.960 . S
C311 H298 0.961 . S
C311 H299 0.959 . S
C311 C309 1.561 . S
C312 C309 1.526 . S
C312 C313 1.396 . S
C312 C317 1.390 . S
C313 C307 1.465 . S
C313 C312 1.396 . S
C313 C314 1.399 . S
C314 H300 0.929 . S
C314 C313 1.399 . S
C314 C315 1.385 . S
C315 H301 0.931 . S
C315 C314 1.385 . S
C315 C316 1.389 . S
C316 C315 1.389 . S
C316 C317 1.387 . S
C317 H302 0.930 . S
C317 C312 1.390 . S
C317 C316 1.387 . S
H318 C330 0.930 . S
H319 C332 0.930 . S
H320 C333 0.930 . S
H321 C337 0.959 . S
H322 C337 0.959 . S
H323 C337 0.961 . S
H324 C338 0.960 . S
H325 C338 0.961 . S
H326 C338 0.959 . S
H327 C341 0.929 . S
H328 C342 0.931 . S
H329 C344 0.930 . S
C330 H318 0.930 . S
C330 C331 1.399 . S
C330 C335 1.399 . S
C331 C330 1.399 . S
C331 C332 1.376 . S
C332 H319 0.930 . S
C332 C331 1.376 . S
C332 C333 1.388 . S
C333 H320 0.930 . S
C333 C332 1.388 . S
C333 C334 1.390 . S
C334 C333 1.390 . S
C334 C335 1.394 . S
C334 C340 1.465 . S
C335 C330 1.399 . S
C335 C334 1.394 . S
C335 C336 1.516 . S
C336 C335 1.516 . S
C336 C337 1.502 . S
C336 C338 1.561 . S
C336 C339 1.526 . S
C337 H321 0.959 . S
C337 H322 0.959 . S
C337 H323 0.961 . S
C337 C336 1.502 . S
C338 H324 0.960 . S
C338 H325 0.961 . S
C338 H326 0.959 . S
C338 C336 1.561 . S
C339 C336 1.526 . S
C339 C340 1.396 . S
C339 C344 1.390 . S
C340 C334 1.465 . S
C340 C339 1.396 . S
C340 C341 1.399 . S
C341 H327 0.929 . S
C341 C340 1.399 . S
C341 C342 1.385 . S
C342 H328 0.931 . S
C342 C341 1.385 . S
C342 C343 1.389 . S
C343 C342 1.389 . S
C343 C344 1.387 . S
C344 H329 0.930 . S
C344 C339 1.390 . S
C344 C343 1.387 . S
H345 C357 0.930 . S
H346 C359 0.930 . S
H347 C360 0.930 . S
H348 C364 0.959 . S
H349 C364 0.959 . S
H350 C364 0.961 . S
H351 C365 0.960 . S
H352 C365 0.961 . S
H353 C365 0.959 1_455 S
H354 C368 0.929 . S
H355 C369 0.931 . S
H356 C371 0.930 . S
C357 H345 0.930 . S
C357 C358 1.399 . S
C357 C362 1.399 . S
C358 C357 1.399 . S
C358 C359 1.376 . S
C359 H346 0.930 . S
C359 C358 1.376 . S
C359 C360 1.388 . S
C360 H347 0.930 . S
C360 C359 1.388 . S
C360 C361 1.390 . S
C361 C360 1.390 . S
C361 C362 1.394 . S
C361 C367 1.465 . S
C362 C357 1.399 . S
C362 C361 1.394 . S
C362 C363 1.516 . S
C363 C362 1.516 . S
C363 C364 1.502 . S
C363 C365 1.561 . S
C363 C366 1.526 . S
C364 H348 0.959 . S
C364 H349 0.959 . S
C364 H350 0.961 . S
C364 C363 1.502 . S
C365 H351 0.960 . S
C365 H352 0.961 . S
C365 H353 0.959 1_655 S
C365 C363 1.561 . S
C366 C363 1.526 . S
C366 C367 1.396 . S
C366 C371 1.390 . S
C367 C361 1.465 . S
C367 C366 1.396 . S
C367 C368 1.399 . S
C368 H354 0.929 . S
C368 C367 1.399 . S
C368 C369 1.385 . S
C369 H355 0.931 . S
C369 C368 1.385 . S
C369 C370 1.389 . S
C370 C369 1.389 . S
C370 C371 1.387 . S
C371 H356 0.930 . S
C371 C366 1.390 . S
C371 C370 1.387 . S
H372 C384 0.930 . S
H373 C386 0.930 . S
H374 C387 0.930 . S
H375 C391 0.959 . S
H376 C391 0.959 . S
H377 C391 0.961 . S
H378 C392 0.960 . S
H379 C392 0.961 . S
H380 C392 0.959 . S
H381 C395 0.929 . S
H382 C396 0.931 . S
H383 C398 0.930 . S
C384 H372 0.930 . S
C384 C385 1.399 . S
C384 C389 1.399 . S
C385 C384 1.399 . S
C385 C386 1.376 . S
C386 H373 0.930 . S
C386 C385 1.376 . S
C386 C387 1.388 . S
C387 H374 0.930 . S
C387 C386 1.388 . S
C387 C388 1.390 . S
C388 C387 1.390 . S
C388 C389 1.394 . S
C388 C394 1.465 . S
C389 C384 1.399 . S
C389 C388 1.394 . S
C389 C390 1.516 . S
C390 C389 1.516 . S
C390 C391 1.502 . S
C390 C392 1.561 . S
C390 C393 1.526 . S
C391 H375 0.959 . S
C391 H376 0.959 . S
C391 H377 0.961 . S
C391 C390 1.502 . S
C392 H378 0.960 . S
C392 H379 0.961 . S
C392 H380 0.959 . S
C392 C390 1.561 . S
C393 C390 1.526 . S
C393 C394 1.396 . S
C393 C398 1.390 . S
C394 C388 1.465 . S
C394 C393 1.396 . S
C394 C395 1.399 . S
C395 H381 0.929 . S
C395 C394 1.399 . S
C395 C396 1.385 . S
C396 H382 0.931 . S
C396 C395 1.385 . S
C396 C397 1.389 . S
C397 C396 1.389 . S
C397 C398 1.387 . S
C398 H383 0.930 . S
C398 C393 1.390 . S
C398 C397 1.387 . S
H399 C411 0.930 . S
H400 C413 0.930 . S
H401 C414 0.930 . S
H402 C418 0.959 . S
H403 C418 0.959 . S
H404 C418 0.961 . S
H405 C419 0.960 . S
H406 C419 0.961 . S
H407 C419 0.959 . S
H408 C422 0.929 . S
H409 C423 0.931 . S
H410 C425 0.930 . S
C411 H399 0.930 . S
C411 C412 1.399 . S
C411 C416 1.399 . S
C412 C411 1.399 . S
C412 C413 1.376 . S
C413 H400 0.930 . S
C413 C412 1.376 . S
C413 C414 1.388 . S
C414 H401 0.930 . S
C414 C413 1.388 . S
C414 C415 1.390 . S
C415 C414 1.390 . S
C415 C416 1.394 . S
C415 C421 1.465 . S
C416 C411 1.399 . S
C416 C415 1.394 . S
C416 C417 1.516 . S
C417 C416 1.516 . S
C417 C418 1.502 . S
C417 C419 1.561 . S
C417 C420 1.526 . S
C418 H402 0.959 . S
C418 H403 0.959 . S
C418 H404 0.961 . S
C418 C417 1.502 . S
C419 H405 0.960 . S
C419 H406 0.961 . S
C419 H407 0.959 . S
C419 C417 1.561 . S
C420 C417 1.526 . S
C420 C421 1.396 . S
C420 C425 1.390 . S
C421 C415 1.465 . S
C421 C420 1.396 . S
C421 C422 1.399 . S
C422 H408 0.929 . S
C422 C421 1.399 . S
C422 C423 1.385 . S
C423 H409 0.931 . S
C423 C422 1.385 . S
C423 C424 1.389 . S
C424 C423 1.389 . S
C424 C425 1.387 . S
C425 H410 0.930 . S
C425 C420 1.390 . S
C425 C424 1.387 . S
H426 C438 0.930 . S
H427 C440 0.930 . S
H428 C441 0.930 . S
H429 C445 0.959 . S
H430 C445 0.959 . S
H431 C445 0.961 . S
H432 C446 0.960 . S
H433 C446 0.961 . S
H434 C446 0.959 . S
H435 C449 0.929 1_554 S
H436 C450 0.931 . S
H437 C452 0.930 . S
C438 H426 0.930 . S
C438 C439 1.399 . S
C438 C443 1.399 . S
C439 C438 1.399 . S
C439 C440 1.376 . S
C440 H427 0.930 . S
C440 C439 1.376 . S
C440 C441 1.388 . S
C441 H428 0.930 . S
C441 C440 1.388 . S
C441 C442 1.390 . S
C442 C441 1.390 . S
C442 C443 1.394 . S
C442 C448 1.465 . S
C443 C438 1.399 . S
C443 C442 1.394 . S
C443 C444 1.516 . S
C444 C443 1.516 . S
C444 C445 1.502 . S
C444 C446 1.561 . S
C444 C447 1.526 . S
C445 H429 0.959 . S
C445 H430 0.959 . S
C445 H431 0.961 . S
C445 C444 1.502 . S
C446 H432 0.960 . S
C446 H433 0.961 . S
C446 H434 0.959 . S
C446 C444 1.561 . S
C447 C444 1.526 . S
C447 C448 1.396 . S
C447 C452 1.390 . S
C448 C442 1.465 . S
C448 C447 1.396 . S
C448 C449 1.399 . S
C449 H435 0.929 1_556 S
C449 C448 1.399 . S
C449 C450 1.385 1_556 S
C450 H436 0.931 . S
C450 C449 1.385 1_554 S
C450 C451 1.389 1_554 S
C451 C450 1.389 1_556 S
C451 C452 1.387 . S
C452 H437 0.930 . S
C452 C447 1.390 . S
C452 C451 1.387 . S
H453 C465 0.930 . S
H454 C467 0.930 . S
H455 C468 0.930 . S
H456 C472 0.959 . S
H457 C472 0.959 . S
H458 C472 0.961 . S
H459 C473 0.960 . S
H460 C473 0.961 . S
H461 C473 0.959 . S
H462 C476 0.929 . S
H463 C477 0.931 . S
H464 C479 0.930 . S
C465 H453 0.930 . S
C465 C466 1.399 . S
C465 C470 1.399 . S
C466 C465 1.399 . S
C466 C467 1.376 . S
C467 H454 0.930 . S
C467 C466 1.376 . S
C467 C468 1.388 . S
C468 H455 0.930 . S
C468 C467 1.388 . S
C468 C469 1.390 . S
C469 C468 1.390 . S
C469 C470 1.394 . S
C469 C475 1.465 . S
C470 C465 1.399 . S
C470 C469 1.394 . S
C470 C471 1.516 . S
C471 C470 1.516 . S
C471 C472 1.502 . S
C471 C473 1.561 . S
C471 C474 1.526 . S
C472 H456 0.959 . S
C472 H457 0.959 . S
C472 H458 0.961 . S
C472 C471 1.502 . S
C473 H459 0.960 . S
C473 H460 0.961 . S
C473 H461 0.959 . S
C473 C471 1.561 . S
C474 C471 1.526 . S
C474 C475 1.396 . S
C474 C479 1.390 . S
C475 C469 1.465 . S
C475 C474 1.396 . S
C475 C476 1.399 . S
C476 H462 0.929 . S
C476 C475 1.399 . S
C476 C477 1.385 . S
C477 H463 0.931 . S
C477 C476 1.385 . S
C477 C478 1.389 . S
C478 C477 1.389 . S
C478 C479 1.387 . S
C479 H464 0.930 . S
C479 C474 1.390 . S
C479 C478 1.387 . S
H480 C492 0.930 . S
H481 C494 0.930 . S
H482 C495 0.930 . S
H483 C499 0.959 . S
H484 C499 0.959 . S
H485 C499 0.961 . S
H486 C500 0.960 . S
H487 C500 0.961 . S
H488 C500 0.959 . S
H489 C503 0.929 . S
H490 C504 0.931 . S
H491 C506 0.930 . S
C492 H480 0.930 . S
C492 C493 1.399 . S
C492 C497 1.399 . S
C493 C492 1.399 . S
C493 C494 1.376 . S
C494 H481 0.930 . S
C494 C493 1.376 . S
C494 C495 1.388 . S
C495 H482 0.930 . S
C495 C494 1.388 . S
C495 C496 1.390 . S
C496 C495 1.390 . S
C496 C497 1.394 . S
C496 C502 1.465 . S
C497 C492 1.399 . S
C497 C496 1.394 . S
C497 C498 1.516 . S
C498 C497 1.516 . S
C498 C499 1.502 . S
C498 C500 1.561 . S
C498 C501 1.526 . S
C499 H483 0.959 . S
C499 H484 0.959 . S
C499 H485 0.961 . S
C499 C498 1.502 . S
C500 H486 0.960 . S
C500 H487 0.961 . S
C500 H488 0.959 . S
C500 C498 1.561 . S
C501 C498 1.526 . S
C501 C502 1.396 . S
C501 C506 1.390 . S
C502 C496 1.465 . S
C502 C501 1.396 . S
C502 C503 1.399 . S
C503 H489 0.929 . S
C503 C502 1.399 . S
C503 C504 1.385 . S
C504 H490 0.931 . S
C504 C503 1.385 . S
C504 C505 1.389 . S
C505 C504 1.389 . S
C505 C506 1.387 . S
C506 H491 0.930 . S
C506 C501 1.390 . S
C506 C505 1.387 . S
H507 C519 0.930 . S
H508 C521 0.930 . S
H509 C522 0.930 . S
H510 C526 0.959 . S
H511 C526 0.959 1_554 S
H512 C526 0.961 . S
H513 C527 0.960 . S
H514 C527 0.961 . S
H515 C527 0.959 . S
H516 C530 0.929 . S
H517 C531 0.931 . S
H518 C533 0.930 . S
C519 H507 0.930 . S
C519 C520 1.399 . S
C519 C524 1.399 . S
C520 C519 1.399 . S
C520 C521 1.376 . S
C521 H508 0.930 . S
C521 C520 1.376 . S
C521 C522 1.388 . S
C522 H509 0.930 . S
C522 C521 1.388 . S
C522 C523 1.390 . S
C523 C522 1.390 . S
C523 C524 1.394 . S
C523 C529 1.465 . S
C524 C519 1.399 . S
C524 C523 1.394 . S
C524 C525 1.516 . S
C525 C524 1.516 . S
C525 C526 1.502 . S
C525 C527 1.561 . S
C525 C528 1.526 . S
C526 H510 0.959 . S
C526 H511 0.959 1_556 S
C526 H512 0.961 . S
C526 C525 1.502 . S
C527 H513 0.960 . S
C527 H514 0.961 . S
C527 H515 0.959 . S
C527 C525 1.561 . S
C528 C525 1.526 . S
C528 C529 1.396 . S
C528 C533 1.390 . S
C529 C523 1.465 . S
C529 C528 1.396 . S
C529 C530 1.399 . S
C530 H516 0.929 . S
C530 C529 1.399 . S
C530 C531 1.385 . S
C531 H517 0.931 . S
C531 C530 1.385 . S
C531 C532 1.389 . S
C532 C531 1.389 . S
C532 C533 1.387 . S
C533 H518 0.930 . S
C533 C528 1.390 . S
C533 C532 1.387 . S
H534 C546 0.930 . S
H535 C548 0.930 . S
H536 C549 0.930 . S
H537 C553 0.959 . S
H538 C553 0.959 . S
H539 C553 0.961 . S
H540 C554 0.960 . S
H541 C554 0.961 . S
H542 C554 0.959 . S
H543 C557 0.929 . S
H544 C558 0.931 . S
H545 C560 0.930 . S
C546 H534 0.930 . S
C546 C547 1.399 . S
C546 C551 1.399 . S
C547 C546 1.399 . S
C547 C548 1.376 . S
C548 H535 0.930 . S
C548 C547 1.376 . S
C548 C549 1.388 . S
C549 H536 0.930 . S
C549 C548 1.388 . S
C549 C550 1.390 . S
C550 C549 1.390 . S
C550 C551 1.394 . S
C550 C556 1.465 . S
C551 C546 1.399 . S
C551 C550 1.394 . S
C551 C552 1.516 . S
C552 C551 1.516 . S
C552 C553 1.502 . S
C552 C554 1.561 . S
C552 C555 1.526 . S
C553 H537 0.959 . S
C553 H538 0.959 . S
C553 H539 0.961 . S
C553 C552 1.502 . S
C554 H540 0.960 . S
C554 H541 0.961 . S
C554 H542 0.959 . S
C554 C552 1.561 . S
C555 C552 1.526 . S
C555 C556 1.396 . S
C555 C560 1.390 . S
C556 C550 1.465 . S
C556 C555 1.396 . S
C556 C557 1.399 . S
C557 H543 0.929 . S
C557 C556 1.399 . S
C557 C558 1.385 . S
C558 H544 0.931 . S
C558 C557 1.385 . S
C558 C559 1.389 . S
C559 C558 1.389 . S
C559 C560 1.387 . S
C560 H545 0.930 . S
C560 C555 1.390 . S
C560 C559 1.387 . S
H561 C573 0.930 . S
H562 C575 0.930 . S
H563 C576 0.930 . S
H564 C580 0.959 . S
H565 C580 0.959 . S
H566 C580 0.961 . S
H567 C581 0.960 . S
H568 C581 0.961 . S
H569 C581 0.959 . S
H570 C584 0.929 . S
H571 C585 0.931 . S
H572 C587 0.930 . S
C573 H561 0.930 . S
C573 C574 1.399 . S
C573 C578 1.399 . S
C574 C573 1.399 . S
C574 C575 1.376 . S
C575 H562 0.930 . S
C575 C574 1.376 . S
C575 C576 1.388 . S
C576 H563 0.930 . S
C576 C575 1.388 . S
C576 C577 1.390 . S
C577 C576 1.390 . S
C577 C578 1.394 . S
C577 C583 1.465 . S
C578 C573 1.399 . S
C578 C577 1.394 . S
C578 C579 1.516 . S
C579 C578 1.516 . S
C579 C580 1.502 . S
C579 C581 1.561 . S
C579 C582 1.526 . S
C580 H564 0.959 . S
C580 H565 0.959 . S
C580 H566 0.961 . S
C580 C579 1.502 . S
C581 H567 0.960 . S
C581 H568 0.961 . S
C581 H569 0.959 . S
C581 C579 1.561 . S
C582 C579 1.526 . S
C582 C583 1.396 . S
C582 C587 1.390 . S
C583 C577 1.465 . S
C583 C582 1.396 . S
C583 C584 1.399 . S
C584 H570 0.929 . S
C584 C583 1.399 . S
C584 C585 1.385 . S
C585 H571 0.931 . S
C585 C584 1.385 . S
C585 C586 1.389 . S
C586 C585 1.389 . S
C586 C587 1.387 . S
C587 H572 0.930 . S
C587 C582 1.390 . S
C587 C586 1.387 . S
H588 C600 0.930 . S
H589 C602 0.930 . S
H590 C603 0.930 . S
H591 C607 0.959 . S
H592 C607 0.959 . S
H593 C607 0.961 . S
H594 C608 0.960 . S
H595 C608 0.961 . S
H596 C608 0.959 . S
H597 C611 0.929 . S
H598 C612 0.931 . S
H599 C614 0.930 . S
C600 H588 0.930 . S
C600 C601 1.399 . S
C600 C605 1.399 . S
C601 C600 1.399 . S
C601 C602 1.376 . S
C602 H589 0.930 . S
C602 C601 1.376 . S
C602 C603 1.388 . S
C603 H590 0.930 . S
C603 C602 1.388 . S
C603 C604 1.390 . S
C604 C603 1.390 . S
C604 C605 1.394 . S
C604 C610 1.465 . S
C605 C600 1.399 . S
C605 C604 1.394 . S
C605 C606 1.516 . S
C606 C605 1.516 . S
C606 C607 1.502 . S
C606 C608 1.561 . S
C606 C609 1.526 . S
C607 H591 0.959 . S
C607 H592 0.959 . S
C607 H593 0.961 . S
C607 C606 1.502 . S
C608 H594 0.960 . S
C608 H595 0.961 . S
C608 H596 0.959 . S
C608 C606 1.561 . S
C609 C606 1.526 . S
C609 C610 1.396 . S
C609 C614 1.390 . S
C610 C604 1.465 . S
C610 C609 1.396 . S
C610 C611 1.399 . S
C611 H597 0.929 . S
C611 C610 1.399 . S
C611 C612 1.385 . S
C612 H598 0.931 . S
C612 C611 1.385 . S
C612 C613 1.389 . S
C613 C612 1.389 . S
C613 C614 1.387 . S
C614 H599 0.930 . S
C614 C609 1.390 . S
C614 C613 1.387 . S
H615 C627 0.930 . S
H616 C629 0.930 . S
H617 C630 0.930 . S
H618 C634 0.959 . S
H619 C634 0.959 . S
H620 C634 0.961 . S
H621 C635 0.960 . S
H622 C635 0.961 . S
H623 C635 0.959 . S
H624 C638 0.929 . S
H625 C639 0.931 . S
H626 C641 0.930 . S
C627 H615 0.930 . S
C627 C628 1.399 . S
C627 C632 1.399 . S
C628 C627 1.399 . S
C628 C629 1.376 . S
C629 H616 0.930 . S
C629 C628 1.376 . S
C629 C630 1.388 . S
C630 H617 0.930 . S
C630 C629 1.388 . S
C630 C631 1.390 . S
C631 C630 1.390 . S
C631 C632 1.394 . S
C631 C637 1.465 . S
C632 C627 1.399 . S
C632 C631 1.394 . S
C632 C633 1.516 . S
C633 C632 1.516 . S
C633 C634 1.502 . S
C633 C635 1.561 . S
C633 C636 1.526 . S
C634 H618 0.959 . S
C634 H619 0.959 . S
C634 H620 0.961 . S
C634 C633 1.502 . S
C635 H621 0.960 . S
C635 H622 0.961 . S
C635 H623 0.959 . S
C635 C633 1.561 . S
C636 C633 1.526 . S
C636 C637 1.396 . S
C636 C641 1.390 . S
C637 C631 1.465 . S
C637 C636 1.396 . S
C637 C638 1.399 . S
C638 H624 0.929 . S
C638 C637 1.399 . S
C638 C639 1.385 . S
C639 H625 0.931 . S
C639 C638 1.385 . S
C639 C640 1.389 . S
C640 C639 1.389 . S
C640 C641 1.387 . S
C641 H626 0.930 . S
C641 C636 1.390 . S
C641 C640 1.387 . S
H642 C654 0.930 . S
H643 C656 0.930 . S
H644 C657 0.930 . S
H645 C661 0.959 . S
H646 C661 0.959 . S
H647 C661 0.961 . S
H648 C662 0.960 . S
H649 C662 0.961 . S
H650 C662 0.959 . S
H651 C665 0.929 . S
H652 C666 0.931 . S
H653 C668 0.930 . S
C654 H642 0.930 . S
C654 C655 1.399 . S
C654 C659 1.399 . S
C655 C654 1.399 . S
C655 C656 1.376 . S
C656 H643 0.930 . S
C656 C655 1.376 . S
C656 C657 1.388 . S
C657 H644 0.930 . S
C657 C656 1.388 . S
C657 C658 1.390 . S
C658 C657 1.390 . S
C658 C659 1.394 . S
C658 C664 1.465 . S
C659 C654 1.399 . S
C659 C658 1.394 . S
C659 C660 1.516 . S
C660 C659 1.516 . S
C660 C661 1.502 . S
C660 C662 1.561 . S
C660 C663 1.526 . S
C661 H645 0.959 . S
C661 H646 0.959 . S
C661 H647 0.961 . S
C661 C660 1.502 . S
C662 H648 0.960 . S
C662 H649 0.961 . S
C662 H650 0.959 . S
C662 C660 1.561 . S
C663 C660 1.526 . S
C663 C664 1.396 . S
C663 C668 1.390 . S
C664 C658 1.465 . S
C664 C663 1.396 . S
C664 C665 1.399 . S
C665 H651 0.929 . S
C665 C664 1.399 . S
C665 C666 1.385 . S
C666 H652 0.931 . S
C666 C665 1.385 . S
C666 C667 1.389 . S
C667 C666 1.389 . S
C667 C668 1.387 . S
C668 H653 0.930 . S
C668 C663 1.390 . S
C668 C667 1.387 . S
H669 C681 0.930 . S
H670 C683 0.930 . S
H671 C684 0.930 . S
H672 C688 0.959 . S
H673 C688 0.959 . S
H674 C688 0.961 . S
H675 C689 0.960 . S
H676 C689 0.961 . S
H677 C689 0.959 . S
H678 C692 0.929 . S
H679 C693 0.931 . S
H680 C695 0.930 . S
C681 H669 0.930 . S
C681 C682 1.399 . S
C681 C686 1.399 . S
C682 C681 1.399 . S
C682 C683 1.376 . S
C683 H670 0.930 . S
C683 C682 1.376 . S
C683 C684 1.388 . S
C684 H671 0.930 . S
C684 C683 1.388 . S
C684 C685 1.390 . S
C685 C684 1.390 . S
C685 C686 1.394 . S
C685 C691 1.465 . S
C686 C681 1.399 . S
C686 C685 1.394 . S
C686 C687 1.516 . S
C687 C686 1.516 . S
C687 C688 1.502 . S
C687 C689 1.561 . S
C687 C690 1.526 . S
C688 H672 0.959 . S
C688 H673 0.959 . S
C688 H674 0.961 . S
C688 C687 1.502 . S
C689 H675 0.960 . S
C689 H676 0.961 . S
C689 H677 0.959 . S
C689 C687 1.561 . S
C690 C687 1.526 . S
C690 C691 1.396 . S
C690 C695 1.390 . S
C691 C685 1.465 . S
C691 C690 1.396 . S
C691 C692 1.399 . S
C692 H678 0.929 . S
C692 C691 1.399 . S
C692 C693 1.385 . S
C693 H679 0.931 . S
C693 C692 1.385 . S
C693 C694 1.389 . S
C694 C693 1.389 . S
C694 C695 1.387 . S
C695 H680 0.930 . S
C695 C690 1.390 . S
C695 C694 1.387 . S
H696 C708 0.930 . S
H697 C710 0.930 . S
H698 C711 0.930 . S
H699 C715 0.959 . S
H700 C715 0.959 . S
H701 C715 0.961 . S
H702 C716 0.960 . S
H703 C716 0.961 . S
H704 C716 0.959 . S
H705 C719 0.929 . S
H706 C720 0.931 . S
H707 C722 0.930 . S
C708 H696 0.930 . S
C708 C709 1.399 . S
C708 C713 1.399 . S
C709 C708 1.399 . S
C709 C710 1.376 . S
C710 H697 0.930 . S
C710 C709 1.376 . S
C710 C711 1.388 . S
C711 H698 0.930 . S
C711 C710 1.388 . S
C711 C712 1.390 . S
C712 C711 1.390 . S
C712 C713 1.394 . S
C712 C718 1.465 . S
C713 C708 1.399 . S
C713 C712 1.394 . S
C713 C714 1.516 . S
C714 C713 1.516 . S
C714 C715 1.502 . S
C714 C716 1.561 . S
C714 C717 1.526 . S
C715 H699 0.959 . S
C715 H700 0.959 . S
C715 H701 0.961 . S
C715 C714 1.502 . S
C716 H702 0.960 . S
C716 H703 0.961 . S
C716 H704 0.959 . S
C716 C714 1.561 . S
C717 C714 1.526 . S
C717 C718 1.396 . S
C717 C722 1.390 . S
C718 C712 1.465 . S
C718 C717 1.396 . S
C718 C719 1.399 . S
C719 H705 0.929 . S
C719 C718 1.399 . S
C719 C720 1.385 . S
C720 H706 0.931 . S
C720 C719 1.385 . S
C720 C721 1.389 . S
C721 C720 1.389 . S
C721 C722 1.387 . S
C722 H707 0.930 . S
C722 C717 1.390 . S
C722 C721 1.387 . S
H723 C735 0.930 . S
H724 C737 0.930 . S
H725 C738 0.930 . S
H726 C742 0.959 . S
H727 C742 0.959 . S
H728 C742 0.961 . S
H729 C743 0.960 . S
H730 C743 0.961 . S
H731 C743 0.959 . S
H732 C746 0.929 . S
H733 C747 0.927 1_455 S
H734 C749 0.930 . S
C735 H723 0.930 . S
C735 C736 1.399 . S
C735 C740 1.399 . S
C736 C735 1.399 . S
C736 C737 1.376 . S
C737 H724 0.930 . S
C737 C736 1.376 . S
C737 C738 1.388 . S
C738 H725 0.930 . S
C738 C737 1.388 . S
C738 C739 1.390 . S
C739 C738 1.390 . S
C739 C740 1.394 . S
C739 C745 1.465 . S
C740 C735 1.399 . S
C740 C739 1.394 . S
C740 C741 1.516 . S
C741 C740 1.516 . S
C741 C742 1.502 . S
C741 C743 1.561 . S
C741 C744 1.526 . S
C742 H726 0.959 . S
C742 H727 0.959 . S
C742 H728 0.961 . S
C742 C741 1.502 . S
C743 H729 0.960 . S
C743 H730 0.961 . S
C743 H731 0.959 . S
C743 C741 1.561 . S
C744 C741 1.526 . S
C744 C745 1.396 . S
C744 C749 1.390 . S
C745 C739 1.465 . S
C745 C744 1.396 . S
C745 C746 1.399 . S
C746 H732 0.929 . S
C746 C745 1.399 . S
C746 C747 1.385 . S
C747 H733 0.927 1_655 S
C747 C746 1.385 . S
C747 C748 1.389 . S
C748 C747 1.389 . S
C748 C749 1.387 . S
C749 H734 0.930 . S
C749 C744 1.390 . S
C749 C748 1.387 . S
H750 C762 0.930 . S
H751 C764 0.930 . S
H752 C765 0.930 . S
H753 C769 0.959 . S
H754 C769 0.959 . S
H755 C769 0.961 . S
H756 C770 0.960 . S
H757 C770 0.961 . S
H758 C770 0.959 . S
H759 C773 0.929 . S
H760 C774 0.931 . S
H761 C776 0.930 . S
C762 H750 0.930 . S
C762 C763 1.399 . S
C762 C767 1.399 . S
C763 C762 1.399 . S
C763 C764 1.376 . S
C764 H751 0.930 . S
C764 C763 1.376 . S
C764 C765 1.388 . S
C765 H752 0.930 . S
C765 C764 1.388 . S
C765 C766 1.390 . S
C766 C765 1.390 . S
C766 C767 1.394 . S
C766 C772 1.465 . S
C767 C762 1.399 . S
C767 C766 1.394 . S
C767 C768 1.516 . S
C768 C767 1.516 . S
C768 C769 1.502 . S
C768 C770 1.561 . S
C768 C771 1.526 . S
C769 H753 0.959 . S
C769 H754 0.959 . S
C769 H755 0.961 . S
C769 C768 1.502 . S
C770 H756 0.960 . S
C770 H757 0.961 . S
C770 H758 0.959 . S
C770 C768 1.561 . S
C771 C768 1.526 . S
C771 C772 1.396 . S
C771 C776 1.390 . S
C772 C766 1.465 . S
C772 C771 1.396 . S
C772 C773 1.399 . S
C773 H759 0.929 . S
C773 C772 1.399 . S
C773 C774 1.385 . S
C774 H760 0.931 . S
C774 C773 1.385 . S
C774 C775 1.389 . S
C775 C774 1.389 . S
C775 C776 1.387 . S
C776 H761 0.930 . S
C776 C771 1.390 . S
C776 C775 1.387 . S
H777 C789 0.930 . S
H778 C791 0.930 . S
H779 C792 0.930 . S
H780 C796 0.959 . S
H781 C796 0.959 . S
H782 C796 0.961 . S
H783 C797 0.960 . S
H784 C797 0.961 . S
H785 C797 0.959 . S
H786 C800 0.929 . S
H787 C801 0.931 . S
H788 C803 0.930 . S
C789 H777 0.930 . S
C789 C790 1.399 . S
C789 C794 1.399 . S
C790 C789 1.399 . S
C790 C791 1.376 . S
C791 H778 0.930 . S
C791 C790 1.376 . S
C791 C792 1.388 . S
C792 H779 0.930 . S
C792 C791 1.388 . S
C792 C793 1.390 . S
C793 C792 1.390 . S
C793 C794 1.394 . S
C793 C799 1.465 . S
C794 C789 1.399 . S
C794 C793 1.394 . S
C794 C795 1.516 . S
C795 C794 1.516 . S
C795 C796 1.502 . S
C795 C797 1.561 . S
C795 C798 1.526 . S
C796 H780 0.959 . S
C796 H781 0.959 . S
C796 H782 0.961 . S
C796 C795 1.502 . S
C797 H783 0.960 . S
C797 H784 0.961 . S
C797 H785 0.959 . S
C797 C795 1.561 . S
C798 C795 1.526 . S
C798 C799 1.396 . S
C798 C803 1.390 . S
C799 C793 1.465 . S
C799 C798 1.396 . S
C799 C800 1.399 . S
C800 H786 0.929 . S
C800 C799 1.399 . S
C800 C801 1.385 . S
C801 H787 0.931 . S
C801 C800 1.385 . S
C801 C802 1.389 . S
C802 C801 1.389 . S
C802 C803 1.387 . S
C803 H788 0.930 . S
C803 C798 1.390 . S
C803 C802 1.387 . S
H804 C816 0.930 . S
H805 C818 0.930 . S
H806 C819 0.930 . S
H807 C823 0.959 . S
H808 C823 0.959 . S
H809 C823 0.961 . S
H810 C824 0.960 . S
H811 C824 0.961 . S
H812 C824 0.959 . S
H813 C827 0.929 . S
H814 C828 0.931 . S
H815 C830 0.930 . S
C816 H804 0.930 . S
C816 C817 1.399 . S
C816 C821 1.399 . S
C817 C816 1.399 . S
C817 C818 1.376 . S
C818 H805 0.930 . S
C818 C817 1.376 . S
C818 C819 1.388 . S
C819 H806 0.930 . S
C819 C818 1.388 . S
C819 C820 1.390 . S
C820 C819 1.390 . S
C820 C821 1.394 . S
C820 C826 1.465 . S
C821 C816 1.399 . S
C821 C820 1.394 . S
C821 C822 1.516 . S
C822 C821 1.516 . S
C822 C823 1.502 . S
C822 C824 1.561 . S
C822 C825 1.526 . S
C823 H807 0.959 . S
C823 H808 0.959 . S
C823 H809 0.961 . S
C823 C822 1.502 . S
C824 H810 0.960 . S
C824 H811 0.961 . S
C824 H812 0.959 . S
C824 C822 1.561 . S
C825 C822 1.526 . S
C825 C826 1.396 . S
C825 C830 1.390 . S
C826 C820 1.465 . S
C826 C825 1.396 . S
C826 C827 1.399 . S
C827 H813 0.929 . S
C827 C826 1.399 . S
C827 C828 1.385 . S
C828 H814 0.931 . S
C828 C827 1.385 . S
C828 C829 1.389 . S
C829 C828 1.389 . S
C829 C830 1.387 . S
C830 H815 0.930 . S
C830 C825 1.390 . S
C830 C829 1.387 . S
H831 C843 0.930 . S
H832 C845 0.930 . S
H833 C846 0.930 . S
H834 C850 0.959 . S
H835 C850 0.959 . S
H836 C850 0.961 . S
H837 C851 0.960 . S
H838 C851 0.961 . S
H839 C851 0.959 . S
H840 C854 0.929 . S
H841 C855 0.931 . S
H842 C857 0.930 . S
C843 H831 0.930 . S
C843 C844 1.399 . S
C843 C848 1.399 . S
C844 C843 1.399 . S
C844 C845 1.376 . S
C845 H832 0.930 . S
C845 C844 1.376 . S
C845 C846 1.388 . S
C846 H833 0.930 . S
C846 C845 1.388 . S
C846 C847 1.390 . S
C847 C846 1.390 . S
C847 C848 1.394 . S
C847 C853 1.465 . S
C848 C843 1.399 . S
C848 C847 1.394 . S
C848 C849 1.516 . S
C849 C848 1.516 . S
C849 C850 1.502 . S
C849 C851 1.561 . S
C849 C852 1.526 . S
C850 H834 0.959 . S
C850 H835 0.959 . S
C850 H836 0.961 . S
C850 C849 1.502 . S
C851 H837 0.960 . S
C851 H838 0.961 . S
C851 H839 0.959 . S
C851 C849 1.561 . S
C852 C849 1.526 . S
C852 C853 1.396 . S
C852 C857 1.390 . S
C853 C847 1.465 . S
C853 C852 1.396 . S
C853 C854 1.399 . S
C854 H840 0.929 . S
C854 C853 1.399 . S
C854 C855 1.385 . S
C855 H841 0.931 . S
C855 C854 1.385 . S
C855 C856 1.389 . S
C856 C855 1.389 . S
C856 C857 1.387 . S
C857 H842 0.930 . S
C857 C852 1.390 . S
C857 C856 1.387 . S
H858 C870 0.930 . S
H859 C872 0.930 . S
H860 C873 0.930 . S
H861 C877 0.959 . S
H862 C877 0.959 . S
H863 C877 0.961 . S
H864 C878 0.960 . S
H865 C878 0.961 . S
H866 C878 0.959 . S
H867 C881 0.929 . S
H868 C882 0.931 . S
H869 C884 0.930 . S
C870 H858 0.930 . S
C870 C871 1.399 . S
C870 C875 1.399 . S
C871 C870 1.399 . S
C871 C872 1.376 . S
C872 H859 0.930 . S
C872 C871 1.376 . S
C872 C873 1.388 . S
C873 H860 0.930 . S
C873 C872 1.388 . S
C873 C874 1.390 . S
C874 C873 1.390 . S
C874 C875 1.394 . S
C874 C880 1.465 . S
C875 C870 1.399 . S
C875 C874 1.394 . S
C875 C876 1.516 . S
C876 C875 1.516 . S
C876 C877 1.502 . S
C876 C878 1.561 . S
C876 C879 1.526 . S
C877 H861 0.959 . S
C877 H862 0.959 . S
C877 H863 0.961 . S
C877 C876 1.502 . S
C878 H864 0.960 . S
C878 H865 0.961 . S
C878 H866 0.959 . S
C878 C876 1.561 . S
C879 C876 1.526 . S
C879 C880 1.396 . S
C879 C884 1.390 . S
C880 C874 1.465 . S
C880 C879 1.396 . S
C880 C881 1.399 . S
C881 H867 0.929 . S
C881 C880 1.399 . S
C881 C882 1.385 . S
C882 H868 0.931 . S
C882 C881 1.385 . S
C882 C883 1.389 . S
C883 C882 1.389 . S
C883 C884 1.387 . S
C884 H869 0.930 . S
C884 C879 1.390 . S
C884 C883 1.387 . S
H885 C897 0.930 . S
H886 C899 0.930 . S
H887 C900 0.930 . S
H888 C904 0.959 . S
H889 C904 0.959 . S
H890 C904 0.961 . S
H891 C905 0.960 . S
H892 C905 0.961 . S
H893 C905 0.959 . S
H894 C908 0.929 . S
H895 C909 0.931 . S
H896 C911 0.930 . S
C897 H885 0.930 . S
C897 C898 1.399 . S
C897 C902 1.399 . S
C898 C897 1.399 . S
C898 C899 1.376 . S
C899 H886 0.930 . S
C899 C898 1.376 . S
C899 C900 1.388 . S
C900 H887 0.930 . S
C900 C899 1.388 . S
C900 C901 1.390 . S
C901 C900 1.390 . S
C901 C902 1.394 . S
C901 C907 1.465 . S
C902 C897 1.399 . S
C902 C901 1.394 . S
C902 C903 1.516 . S
C903 C902 1.516 . S
C903 C904 1.502 . S
C903 C905 1.561 . S
C903 C906 1.526 . S
C904 H888 0.959 . S
C904 H889 0.959 . S
C904 H890 0.961 . S
C904 C903 1.502 . S
C905 H891 0.960 . S
C905 H892 0.961 . S
C905 H893 0.959 . S
C905 C903 1.561 . S
C906 C903 1.526 . S
C906 C907 1.396 . S
C906 C911 1.390 . S
C907 C901 1.465 . S
C907 C906 1.396 . S
C907 C908 1.399 . S
C908 H894 0.929 . S
C908 C907 1.399 . S
C908 C909 1.385 . S
C909 H895 0.931 . S
C909 C908 1.385 . S
C909 C910 1.389 . S
C910 C909 1.389 . S
C910 C911 1.387 . S
C911 H896 0.930 . S
C911 C906 1.390 . S
C911 C910 1.387 . S
C277 C9 1.404 . S
C289 C111 1.430 . S
C304 C21 1.131 . S
C316 C160 1.068 . S
C343 C186 2.205 . S
C331 C30 2.223 . S
C358 C43 2.185 . S
C370 C234 2.234 1_655 S
C397 C146 2.102 . S
C385 C4 1.815 . S
C424 C114 1.569 . S
C412 C22 1.564 . S
C451 C235 1.581 1_556 S
C439 C34 1.613 . S
C478 C203 1.539 . S
C466 C48 1.546 . S
C493 C8 1.551 . S
C505 C231 1.601 . S
C532 C163 2.265 . S
C520 C35 2.345 . S
C547 C47 2.559 . S
C559 C115 2.544 . S
C574 C17 0.848 . S
C586 C200 0.890 . S
C613 C120 1.049 . S
C601 C60 0.976 . S
C628 C74 1.103 . S
C640 C151 1.134 . S
C655 C82 1.904 . S
C667 C195 1.988 . S
C682 C100 2.737 . S
C694 C243 2.700 . S
C709 C61 2.440 . S
C721 C155 2.520 . S
C748 C123 0.823 . S
C736 C73 0.740 . S
C775 C226 2.145 . S
C763 C87 2.181 . S
C802 C194 1.286 . S
C790 C95 1.277 . S
C817 C56 1.509 . S
C829 C240 1.501 . S
C856 C154 2.465 . S
C844 C86 2.526 . S
C883 C106 2.343 . S
C871 C99 2.349 . S
C898 C69 0.728 . S
C910 C191 0.714 . S
