# Generated by pormake.
# Topology pyr, (3,6)-cn, num edge types: 1
# Building blocks:
#     Node 0, Type 0, BuildingBlock: KAKCAD_clean_linker_0, # of connection points: 3
#     Node 1, Type 0, BuildingBlock: KAKCAD_clean_linker_0, # of connection points: 3
#     Node 2, Type 0, BuildingBlock: KAKCAD_clean_linker_0, # of connection points: 3
#     Node 3, Type 0, BuildingBlock: KAKCAD_clean_linker_0, # of connection points: 3
#     Node 4, Type 0, BuildingBlock: KAKCAD_clean_linker_0, # of connection points: 3
#     Node 5, Type 0, BuildingBlock: KAKCAD_clean_linker_0, # of connection points: 3
#     Node 6, Type 0, BuildingBlock: KAKCAD_clean_linker_0, # of connection points: 3
#     Node 7, Type 0, BuildingBlock: KAKCAD_clean_linker_0, # of connection points: 3
#     Node 8, Type 1, BuildingBlock: MIDCAF_clean_sbu_0, # of connection points: 6
#     Node 9, Type 1, BuildingBlock: MIDCAF_clean_sbu_0, # of connection points: 6
#     Node 10, Type 1, BuildingBlock: MIDCAF_clean_sbu_0, # of connection points: 6
#     Node 11, Type 1, BuildingBlock: MIDCAF_clean_sbu_0, # of connection points: 6
#     Edge 12, Type (0, 1), BuildingBlock: AJUNOK_clean_linker_0, # of connection points: 2
#     Edge 13, Type (0, 1), BuildingBlock: AJUNOK_clean_linker_0, # of connection points: 2
#     Edge 14, Type (0, 1), BuildingBlock: AJUNOK_clean_linker_0, # of connection points: 2
#     Edge 15, Type (0, 1), BuildingBlock: AJUNOK_clean_linker_0, # of connection points: 2
#     Edge 16, Type (0, 1), BuildingBlock: AJUNOK_clean_linker_0, # of connection points: 2
#     Edge 17, Type (0, 1), BuildingBlock: AJUNOK_clean_linker_0, # of connection points: 2
#     Edge 18, Type (0, 1), BuildingBlock: AJUNOK_clean_linker_0, # of connection points: 2
#     Edge 19, Type (0, 1), BuildingBlock: AJUNOK_clean_linker_0, # of connection points: 2
#     Edge 20, Type (0, 1), BuildingBlock: AJUNOK_clean_linker_0, # of connection points: 2
#     Edge 21, Type (0, 1), BuildingBlock: AJUNOK_clean_linker_0, # of connection points: 2
#     Edge 22, Type (0, 1), BuildingBlock: AJUNOK_clean_linker_0, # of connection points: 2
#     Edge 23, Type (0, 1), BuildingBlock: AJUNOK_clean_linker_0, # of connection points: 2
#     Edge 24, Type (0, 1), BuildingBlock: AJUNOK_clean_linker_0, # of connection points: 2
#     Edge 25, Type (0, 1), BuildingBlock: AJUNOK_clean_linker_0, # of connection points: 2
#     Edge 26, Type (0, 1), BuildingBlock: AJUNOK_clean_linker_0, # of connection points: 2
#     Edge 27, Type (0, 1), BuildingBlock: AJUNOK_clean_linker_0, # of connection points: 2
#     Edge 28, Type (0, 1), BuildingBlock: AJUNOK_clean_linker_0, # of connection points: 2
#     Edge 29, Type (0, 1), BuildingBlock: AJUNOK_clean_linker_0, # of connection points: 2
#     Edge 30, Type (0, 1), BuildingBlock: AJUNOK_clean_linker_0, # of connection points: 2
#     Edge 31, Type (0, 1), BuildingBlock: AJUNOK_clean_linker_0, # of connection points: 2
#     Edge 32, Type (0, 1), BuildingBlock: AJUNOK_clean_linker_0, # of connection points: 2
#     Edge 33, Type (0, 1), BuildingBlock: AJUNOK_clean_linker_0, # of connection points: 2
#     Edge 34, Type (0, 1), BuildingBlock: AJUNOK_clean_linker_0, # of connection points: 2
#     Edge 35, Type (0, 1), BuildingBlock: AJUNOK_clean_linker_0, # of connection points: 2
# Relax obj value: 0.019
# Max RMSD: 0.063
# Mean RMSD: 0.024
data_MOF--net-pry--node1-MIDCAF_clean_sbu_0--node2-KAKCAD_clean_linker_0--edge1-AJUNOK_clean_linker_0
_symmetry_space_group_name_H-M    P1
_symmetry_Int_Tables_number       1
_symmetry_cell_setting            triclinic
loop_
_symmetry_equiv_pos_as_xyz
'x, y, z'
_cell_length_a     34.431214
_cell_length_b     34.429131
_cell_length_c     34.371969
_cell_angle_alpha  90.221472
_cell_angle_beta   89.822446
_cell_angle_gamma 90.257054
loop_
_atom_site_label
_atom_site_type_symbol
_atom_site_fract_x
_atom_site_fract_y
_atom_site_fract_z
_atom_type_partial_charge
C0 C 0.14947 0.17673 0.34288 0.0
C1 C 0.1721 0.16316 0.37393 0.0
C2 C 0.16611 0.19924 0.31344 0.0
C3 C 0.20588 0.20854 0.31412 0.0
C4 C 0.22841 0.19594 0.34562 0.0
C5 C 0.2116 0.17384 0.37545 0.0
C6 C 0.22374 0.23005 0.28114 0.0
C7 C 0.20522 0.26293 0.26597 0.0
C8 C 0.21929 0.28133 0.23226 0.0
C9 C 0.25302 0.2668 0.21433 0.0
C10 C 0.27202 0.23374 0.22891 0.0
C11 C 0.25737 0.21589 0.26272 0.0
C12 C 0.30506 0.21616 0.2069 0.0
C13 C 0.30413 0.21479 0.16601 0.0
C14 C 0.3371 0.19975 0.22616 0.0
C15 C 0.36753 0.18272 0.20492 0.0
C16 C 0.36664 0.18216 0.16406 0.0
C17 C 0.19706 0.31366 0.21412 0.0
C18 C 0.15622 0.31235 0.21335 0.0
C19 C 0.21615 0.34511 0.19605 0.0
C20 C 0.19488 0.37412 0.17721 0.0
C21 C 0.15413 0.37237 0.17627 0.0
C22 C 0.13508 0.34139 0.19484 0.0
C23 C 0.33449 0.19811 0.14494 0.0
H24 H 0.11909 0.16877 0.34055 0.0
H25 H 0.14808 0.20822 0.28934 0.0
H26 H 0.25903 0.20313 0.34712 0.0
H27 H 0.22964 0.16476 0.39947 0.0
H28 H 0.17946 0.27395 0.28037 0.0
H29 H 0.27075 0.1896 0.27344 0.0
H30 H 0.26379 0.28049 0.18809 0.0
H31 H 0.27949 0.22593 0.15011 0.0
H32 H 0.33882 0.20033 0.2576 0.0
H33 H 0.39188 0.17036 0.22034 0.0
H34 H 0.14045 0.28826 0.22609 0.0
H35 H 0.24752 0.34736 0.19646 0.0
H36 H 0.33245 0.19703 0.1135 0.0
H37 H 0.1037 0.33903 0.19413 0.0
H38 H 0.21026 0.39793 0.16346 0.0
C39 C 0.32125 0.87133 0.87452 0.0
C40 C 0.36073 0.88212 0.87373 0.0
C41 C 0.30507 0.84967 0.84396 0.0
C42 C 0.32818 0.8378 0.81235 0.0
C43 C 0.36791 0.84737 0.81232 0.0
C44 C 0.38395 0.86931 0.84257 0.0
C45 C 0.311 0.81664 0.7787 0.0
C46 C 0.27685 0.83012 0.76098 0.0
C47 C 0.26261 0.81255 0.72676 0.0
C48 C 0.28253 0.78035 0.71114 0.0
C49 C 0.31695 0.76688 0.72814 0.0
C50 C 0.33063 0.78491 0.76219 0.0
C51 C 0.34071 0.7367 0.70822 0.0
C52 C 0.32346 0.70344 0.69156 0.0
C53 C 0.38098 0.74221 0.70404 0.0
C54 C 0.40336 0.71561 0.68315 0.0
C55 C 0.38614 0.68272 0.66603 0.0
C56 C 0.22929 0.82992 0.70529 0.0
C57 C 0.19731 0.8462 0.72509 0.0
C58 C 0.23005 0.8316 0.66439 0.0
C59 C 0.19983 0.84884 0.64389 0.0
C60 C 0.16816 0.86536 0.6636 0.0
C61 C 0.16709 0.86387 0.70444 0.0
C62 C 0.34603 0.67658 0.67078 0.0
H63 H 0.30276 0.87998 0.89854 0.0
H64 H 0.27447 0.84227 0.845 0.0
H65 H 0.38641 0.83904 0.78817 0.0
H66 H 0.41433 0.87745 0.84083 0.0
H67 H 0.26276 0.85578 0.77257 0.0
H68 H 0.35705 0.77453 0.77563 0.0
H69 H 0.27214 0.7667 0.68468 0.0
H70 H 0.29252 0.69834 0.6944 0.0
H71 H 0.39511 0.76777 0.71595 0.0
H72 H 0.43425 0.72096 0.68005 0.0
H73 H 0.19555 0.84519 0.75653 0.0
H74 H 0.25454 0.82046 0.64804 0.0
H75 H 0.33201 0.65158 0.6576 0.0
H76 H 0.14285 0.87619 0.72032 0.0
H77 H 0.20172 0.85014 0.61245 0.0
C78 C 0.83333 0.38698 0.86115 0.0
C79 C 0.86614 0.36598 0.87297 0.0
C80 C 0.80356 0.36886 0.8404 0.0
C81 C 0.80539 0.32906 0.83146 0.0
C82 C 0.83788 0.30776 0.84353 0.0
C83 C 0.86808 0.3261 0.86394 0.0
C84 C 0.7728 0.31028 0.81023 0.0
C85 C 0.75721 0.32854 0.77743 0.0
C86 C 0.72332 0.31443 0.75959 0.0
C87 C 0.70575 0.28056 0.7742 0.0
C88 C 0.72083 0.26171 0.80722 0.0
C89 C 0.75478 0.27658 0.82471 0.0
C90 C 0.69894 0.22908 0.82568 0.0
C91 C 0.65818 0.23041 0.82797 0.0
C92 C 0.71826 0.19734 0.84254 0.0
C93 C 0.69724 0.16785 0.86141 0.0
C94 C 0.65653 0.16953 0.86369 0.0
C95 C 0.70466 0.33731 0.72813 0.0
C96 C 0.70269 0.37796 0.73148 0.0
C97 C 0.68832 0.31928 0.69512 0.0
C98 C 0.67124 0.34165 0.66575 0.0
C99 C 0.67042 0.38235 0.66887 0.0
C100 C 0.68579 0.40012 0.7023 0.0
C101 C 0.63731 0.20101 0.84657 0.0
H102 H 0.82997 0.41728 0.86898 0.0
H103 H 0.77847 0.38583 0.83224 0.0
H104 H 0.83999 0.27704 0.83699 0.0
H105 H 0.89284 0.30905 0.87288 0.0
H106 H 0.7712 0.35447 0.76622 0.0
H107 H 0.76581 0.26346 0.85105 0.0
H108 H 0.67938 0.26979 0.76076 0.0
H109 H 0.64226 0.25477 0.81632 0.0
H110 H 0.7496 0.19523 0.84108 0.0
H111 H 0.71277 0.14373 0.87406 0.0
H112 H 0.71383 0.39275 0.75701 0.0
H113 H 0.6893 0.28802 0.69173 0.0
H114 H 0.60599 0.20342 0.8484 0.0
H115 H 0.68444 0.43135 0.70608 0.0
H116 H 0.65927 0.32726 0.64037 0.0
C117 C 0.82162 0.67976 0.15551 0.0
C118 C 0.86107 0.66945 0.15799 0.0
C119 C 0.80413 0.70199 0.18489 0.0
C120 C 0.82594 0.7151 0.21687 0.0
C121 C 0.86577 0.70651 0.21828 0.0
C122 C 0.88308 0.68387 0.18929 0.0
C123 C 0.80715 0.73545 0.25011 0.0
C124 C 0.77381 0.71965 0.26778 0.0
C125 C 0.75939 0.73519 0.30283 0.0
C126 C 0.77796 0.76775 0.31943 0.0
C127 C 0.81112 0.78418 0.30197 0.0
C128 C 0.82515 0.76803 0.26704 0.0
C129 C 0.83334 0.81561 0.32202 0.0
C130 C 0.81436 0.84646 0.34113 0.0
C131 C 0.8741 0.81407 0.32324 0.0
C132 C 0.89537 0.84249 0.34294 0.0
C133 C 0.87654 0.87321 0.36215 0.0
C134 C 0.72828 0.71438 0.32459 0.0
C135 C 0.69462 0.70056 0.3058 0.0
C136 C 0.73343 0.70618 0.36425 0.0
C137 C 0.70614 0.68395 0.38444 0.0
C138 C 0.67294 0.66958 0.36559 0.0
C139 C 0.66693 0.6786 0.32629 0.0
C140 C 0.83578 0.87503 0.36099 0.0
H141 H 0.80408 0.67002 0.13124 0.0
H142 H 0.77347 0.70859 0.18286 0.0
H143 H 0.88326 0.71583 0.24278 0.0
H144 H 0.9134 0.67624 0.19234 0.0
H145 H 0.76081 0.69349 0.2558 0.0
H146 H 0.85078 0.78029 0.25331 0.0
H147 H 0.76757 0.77919 0.34696 0.0
H148 H 0.78301 0.84863 0.34053 0.0
H149 H 0.8897 0.7903 0.30973 0.0
H150 H 0.92671 0.83996 0.34384 0.0
H151 H 0.6899 0.70652 0.27527 0.0
H152 H 0.75926 0.71586 0.37943 0.0
H153 H 0.82053 0.89861 0.3752 0.0
H154 H 0.64144 0.66779 0.31126 0.0
H155 H 0.71122 0.67746 0.41483 0.0
C156 C 0.97256 0.89815 0.77114 0.0
C157 C 0.97407 0.93748 0.76032 0.0
C158 C 0.95103 0.88642 0.80371 0.0
C159 C 0.93144 0.91386 0.82707 0.0
C160 C 0.93524 0.9534 0.8176 0.0
C161 C 0.9557 0.96495 0.7845 0.0
C162 C 0.90604 0.90148 0.86022 0.0
C163 C 0.91438 0.86782 0.88174 0.0
C164 C 0.88987 0.85566 0.91212 0.0
C165 C 0.8569 0.8775 0.9215 0.0
C166 C 0.84801 0.91111 0.90043 0.0
C167 C 0.8725 0.92287 0.86995 0.0
C168 C 0.8125 0.9334 0.90965 0.0
C169 C 0.77623 0.91467 0.91023 0.0
C170 C 0.81471 0.97317 0.91882 0.0
C171 C 0.78131 0.99348 0.92997 0.0
C172 C 0.74513 0.97453 0.93106 0.0
C173 C 0.89841 0.81947 0.93336 0.0
C174 C 0.90091 0.78419 0.91298 0.0
C175 C 0.90538 0.82009 0.97361 0.0
C176 C 0.91641 0.78611 0.99286 0.0
C177 C 0.91949 0.75094 0.97227 0.0
C178 C 0.91105 0.75016 0.93233 0.0
C179 C 0.74281 0.93512 0.92055 0.0
H180 H 0.9874 0.87624 0.75411 0.0
H181 H 0.94892 0.85566 0.80972 0.0
H182 H 0.92185 0.97568 0.83536 0.0
H183 H 0.95595 0.99552 0.77724 0.0
H184 H 0.94025 0.85112 0.87541 0.0
H185 H 0.86442 0.94806 0.85308 0.0
H186 H 0.83793 0.86809 0.94492 0.0
H187 H 0.77384 0.88408 0.90306 0.0
H188 H 0.84246 0.98813 0.91863 0.0
H189 H 0.78377 0.02373 0.93844 0.0
H190 H 0.89553 0.78311 0.88195 0.0
H191 H 0.90369 0.8471 0.98979 0.0
H192 H 0.71532 0.91973 0.92191 0.0
H193 H 0.91398 0.72351 0.91573 0.0
H194 H 0.9233 0.78738 0.02357 0.0
C195 C 0.57676 0.08011 0.28437 0.0
C196 C 0.55868 0.10811 0.26093 0.0
C197 C 0.59788 0.09102 0.31723 0.0
C198 C 0.60254 0.1304 0.3272 0.0
C199 C 0.58335 0.15841 0.30452 0.0
C200 C 0.56125 0.14735 0.27215 0.0
C201 C 0.62821 0.14204 0.3603 0.0
C202 C 0.66158 0.12024 0.36923 0.0
C203 C 0.68621 0.1313 0.39982 0.0
C204 C 0.67757 0.16468 0.42173 0.0
C205 C 0.64481 0.18699 0.41307 0.0
C206 C 0.62015 0.1754 0.38264 0.0
C207 C 0.63659 0.22306 0.43505 0.0
C208 C 0.63263 0.22263 0.47576 0.0
C209 C 0.63133 0.25803 0.41498 0.0
C210 C 0.62116 0.29179 0.43506 0.0
C211 C 0.61547 0.29108 0.4755 0.0
C212 C 0.72151 0.10847 0.40847 0.0
C213 C 0.71927 0.06808 0.41404 0.0
C214 C 0.75757 0.12727 0.41228 0.0
C215 C 0.79055 0.10632 0.4226 0.0
C216 C 0.78804 0.06627 0.42984 0.0
C217 C 0.75226 0.04717 0.42499 0.0
C218 C 0.62171 0.25637 0.49585 0.0
H219 H 0.57571 0.04958 0.27672 0.0
H220 H 0.61103 0.06837 0.33445 0.0
H221 H 0.5862 0.18909 0.31093 0.0
H222 H 0.54677 0.16967 0.2556 0.0
H223 H 0.66934 0.09525 0.35167 0.0
H224 H 0.59434 0.1923 0.37691 0.0
H225 H 0.69657 0.17357 0.44527 0.0
H226 H 0.63655 0.19591 0.49179 0.0
H227 H 0.63452 0.25909 0.38363 0.0
H228 H 0.61605 0.31813 0.41873 0.0
H229 H 0.69176 0.05296 0.41127 0.0
H230 H 0.76012 0.1583 0.40773 0.0
H231 H 0.61724 0.25519 0.52703 0.0
H232 H 0.74967 0.01631 0.43055 0.0
H233 H 0.81776 0.12175 0.42656 0.0
C234 C 0.26204 0.56409 0.14163 0.0
C235 C 0.25291 0.56058 0.10194 0.0
C236 C 0.29436 0.58585 0.15358 0.0
C237 C 0.31847 0.60437 0.12606 0.0
C238 C 0.31006 0.59954 0.08635 0.0
C239 C 0.2775 0.57847 0.07451 0.0
C240 C 0.35128 0.62991 0.13848 0.0
C241 C 0.37355 0.62082 0.17141 0.0
C242 C 0.4042 0.6451 0.18332 0.0
C243 C 0.41276 0.67874 0.16207 0.0
C244 C 0.39062 0.68854 0.12932 0.0
C245 C 0.36008 0.66404 0.1177 0.0
C246 C 0.39894 0.72481 0.10771 0.0
C247 C 0.40337 0.76006 0.12788 0.0
C248 C 0.40322 0.72435 0.067 0.0
C249 C 0.41345 0.75829 0.04706 0.0
C250 C 0.41889 0.79328 0.06749 0.0
C251 C 0.42671 0.63545 0.21852 0.0
C252 C 0.40734 0.62931 0.25394 0.0
C253 C 0.46724 0.63104 0.21673 0.0
C254 C 0.48784 0.61899 0.24959 0.0
C255 C 0.46822 0.61212 0.28478 0.0
C256 C 0.42797 0.61807 0.28686 0.0
C257 C 0.41301 0.79401 0.10793 0.0
H258 H 0.24362 0.55083 0.16351 0.0
H259 H 0.29959 0.58921 0.18445 0.0
H260 H 0.32824 0.6127 0.06423 0.0
H261 H 0.27082 0.57765 0.04377 0.0
H262 H 0.36762 0.59445 0.18753 0.0
H263 H 0.34243 0.67238 0.0931 0.0
H264 H 0.43643 0.69749 0.17128 0.0
H265 H 0.39976 0.76128 0.15919 0.0
H266 H 0.39996 0.69748 0.0508 0.0
H267 H 0.41795 0.75708 0.01588 0.0
H268 H 0.37614 0.63278 0.256 0.0
H269 H 0.4827 0.63557 0.18962 0.0
H270 H 0.41746 0.82058 0.12435 0.0
H271 H 0.41223 0.61249 0.31363 0.0
H272 H 0.51886 0.61431 0.2474 0.0
C273 C 0.14066 0.27032 0.55577 0.0
C274 C 0.10144 0.25889 0.55488 0.0
C275 C 0.1521 0.30361 0.57629 0.0
C276 C 0.12444 0.32702 0.59544 0.0
C277 C 0.08496 0.31706 0.59192 0.0
C278 C 0.0737 0.28328 0.57243 0.0
C279 C 0.13668 0.36027 0.6207 0.0
C280 C 0.17038 0.38187 0.61211 0.0
C281 C 0.18363 0.41124 0.63738 0.0
C282 C 0.16223 0.41984 0.6711 0.0
C283 C 0.12816 0.39907 0.67984 0.0
C284 C 0.11566 0.36939 0.65474 0.0
C285 C 0.10621 0.40756 0.71591 0.0
C286 C 0.12505 0.40705 0.75204 0.0
C287 C 0.06658 0.41702 0.71436 0.0
C288 C 0.04656 0.4275 0.74829 0.0
C289 C 0.06566 0.42764 0.78431 0.0
C290 C 0.22084 0.43152 0.62923 0.0
C291 C 0.25367 0.40988 0.61856 0.0
C292 C 0.22388 0.47223 0.63158 0.0
C293 C 0.25896 0.49093 0.62242 0.0
C294 C 0.29165 0.46913 0.61155 0.0
C295 C 0.28864 0.42846 0.60982 0.0
C296 C 0.10487 0.41673 0.78599 0.0
H297 H 0.16274 0.25307 0.54147 0.0
H298 H 0.18283 0.31002 0.57825 0.0
H299 H 0.06258 0.33484 0.60504 0.0
H300 H 0.04317 0.27556 0.57253 0.0
H301 H 0.18647 0.37603 0.58562 0.0
H302 H 0.0903 0.35249 0.66283 0.0
H303 H 0.17236 0.44228 0.69087 0.0
H304 H 0.15553 0.3996 0.75392 0.0
H305 H 0.05153 0.41763 0.68674 0.0
H306 H 0.01647 0.43632 0.74634 0.0
H307 H 0.25228 0.37848 0.61685 0.0
H308 H 0.19891 0.48958 0.63955 0.0
H309 H 0.12037 0.41737 0.81337 0.0
H310 H 0.31314 0.41098 0.60066 0.0
H311 H 0.26053 0.52235 0.62355 0.0
Zn312 Zn 0.97601 0.06314 0.56499 0.0
Zn313 Zn 0.06392 0.97122 0.47657 0.0
Zn314 Zn 0.01978 0.01789 0.52086 0.0
C315 C 0.09233 0.0473 0.4673 0.0
C316 C 0.98732 0.9639 0.45006 0.0
O317 O 0.02127 0.99649 0.5817 0.0
O318 O 0.98878 0.04025 0.61598 0.0
C319 C 0.03074 0.11095 0.52989 0.0
O320 O 0.06421 0.05447 0.49113 0.0
O321 O 0.09891 0.01282 0.45655 0.0
O322 O 0.02123 0.9521 0.44258 0.0
O323 O 0.98152 0.98842 0.4779 0.0
O324 O 1.0004 0.11306 0.55043 0.0
O325 O 0.04276 0.07788 0.51704 0.0
O326 O 0.95939 0.01606 0.49845 0.0
O327 O 0.92538 0.04998 0.54136 0.0
C328 C 0.92675 0.02975 0.51071 0.0
O329 O 0.04856 0.97527 0.55959 0.0
O330 O 0.08249 0.93775 0.51977 0.0
C331 C 0.00808 0.00923 0.61449 0.0
C332 C 0.07197 0.94666 0.55389 0.0
Zn333 Zn 0.46923 0.07247 0.97749 0.0
Zn334 Zn 0.55454 0.98131 0.06684 0.0
Zn335 Zn 0.51215 0.02621 0.02219 0.0
C336 C 0.60487 0.01133 0.01167 0.0
C337 C 0.49874 0.93366 0.03326 0.0
O338 O 0.48479 0.07094 0.06011 0.0
O339 O 0.45151 0.10788 0.01973 0.0
C340 C 0.54597 0.07805 0.95065 0.0
O341 O 0.57268 0.0259 0.9995 0.0
O342 O 0.60564 0.99209 0.04283 0.0
O343 O 0.52901 0.93161 0.05371 0.0
O344 O 0.48747 0.96658 0.01967 0.0
O345 O 0.51221 0.08995 0.943 0.0
O346 O 0.55137 0.0541 0.97887 0.0
O347 O 0.46724 0.98985 0.99292 0.0
O348 O 0.4333 0.03146 0.95808 0.0
C349 C 0.43933 0.99706 0.96909 0.0
O350 O 0.51022 0.04889 0.08273 0.0
O351 O 0.5421 0.00554 0.11753 0.0
C352 C 0.46237 0.10016 0.05389 0.0
C353 C 0.52291 0.03659 0.1157 0.0
Zn354 Zn 0.57108 0.57052 0.55541 0.0
Zn355 Zn 0.47667 0.47703 0.47486 0.0
Zn356 Zn 0.52269 0.52348 0.51669 0.0
C357 C 0.53349 0.43019 0.50768 0.0
C358 C 0.50633 0.531 0.42335 0.0
O359 O 0.48684 0.55576 0.55961 0.0
O360 O 0.52849 0.59981 0.58161 0.0
C361 C 0.5927 0.49396 0.57181 0.0
O362 O 0.5452 0.46342 0.52063 0.0
O363 O 0.50308 0.4277 0.4874 0.0
O364 O 0.48568 0.50064 0.42322 0.0
O365 O 0.52176 0.54343 0.45524 0.0
O366 O 0.59938 0.5284 0.5828 0.0
O367 O 0.56622 0.48694 0.54629 0.0
O368 O 0.55127 0.56354 0.47463 0.0
O369 O 0.59644 0.59378 0.50923 0.0
C370 C 0.5804 0.58707 0.47694 0.0
O371 O 0.46393 0.52587 0.54284 0.0
O372 O 0.42825 0.48933 0.50338 0.0
C373 C 0.4944 0.58615 0.58029 0.0
C374 C 0.43107 0.51057 0.53323 0.0
Zn375 Zn 0.05921 0.56411 0.97556 0.0
Zn376 Zn 0.96921 0.47368 0.06308 0.0
Zn377 Zn 0.0144 0.51869 0.01807 0.0
C378 C 0.04517 0.4653 0.08996 0.0
C379 C 0.96098 0.44776 0.9857 0.0
O380 O 0.99101 0.57893 0.01937 0.0
O381 O 0.03339 0.61408 0.98594 0.0
C382 C 0.10696 0.53161 0.03097 0.0
O383 O 0.05152 0.48952 0.06208 0.0
O384 O 0.01103 0.45394 0.09738 0.0
O385 O 0.94979 0.44021 0.0199 0.0
O386 O 0.98553 0.4755 0.97959 0.0
O387 O 0.10887 0.55324 1.00151 0.0
O388 O 0.07428 0.51665 0.04176 0.0
O389 O 0.01444 0.49552 0.95777 0.0
O390 O 0.04977 0.53836 0.92516 0.0
C391 C 0.03003 0.50742 0.92576 0.0
O392 O 0.97019 0.55626 0.04649 0.0
O393 O 0.93526 0.51606 0.08262 0.0
C394 C 0.00231 0.61183 0.00533 0.0
C395 C 0.94212 0.55005 0.07068 0.0
C396 C 0.11711 0.14271 0.41785 0.0
C397 C 0.15467 0.13596 0.40289 0.0
C398 C 0.09779 0.11477 0.44054 0.0
C399 C 0.11538 0.07914 0.44946 0.0
H400 H 0.10195 0.16925 0.41082 0.0
H401 H 0.06804 0.12027 0.44913 0.0
S402 S 0.21426 0.04803 0.41988 0.0
N403 N 0.20918 0.0913 0.40009 0.0
N404 N 0.17346 0.03963 0.44379 0.0
C405 C 0.15361 0.07283 0.43638 0.0
C406 C 0.17316 0.10106 0.41301 0.0
C407 C 0.41456 0.90165 0.9192 0.0
C408 C 0.37752 0.90888 0.90351 0.0
C409 C 0.43356 0.92935 0.94254 0.0
C410 C 0.41619 0.96526 0.95119 0.0
H411 H 0.42961 0.87496 0.9122 0.0
H412 H 0.46297 0.92347 0.95179 0.0
S413 S 0.31841 0.99738 0.91995 0.0
N414 N 0.32351 0.95401 0.90002 0.0
N415 N 0.35869 0.0054 0.94468 0.0
C416 C 0.37835 0.97197 0.93747 0.0
C417 C 0.3591 0.94392 0.91356 0.0
C418 C 0.61463 0.40058 0.62563 0.0
C419 C 0.65307 0.40694 0.63811 0.0
C420 C 0.59568 0.42777 0.60194 0.0
C421 C 0.61462 0.46208 0.59012 0.0
H422 H 0.59842 0.37565 0.63604 0.0
H423 H 0.56539 0.42304 0.59488 0.0
S424 S 0.71738 0.48853 0.60892 0.0
N425 N 0.71094 0.44717 0.63227 0.0
N426 N 0.67528 0.49833 0.58838 0.0
C427 C 0.65384 0.46722 0.60006 0.0
C428 C 0.6731 0.43959 0.62385 0.0
C429 C 0.91688 0.64751 0.11598 0.0
C430 C 0.87891 0.64128 0.13021 0.0
C431 C 0.9366 0.61862 0.09492 0.0
C432 C 0.91901 0.58253 0.08701 0.0
H433 H 0.93201 0.67441 0.12239 0.0
H434 H 0.96652 0.62388 0.08666 0.0
S435 S 0.81916 0.55248 0.11497 0.0
N436 N 0.82401 0.59663 0.13324 0.0
N437 N 0.86054 0.54312 0.09254 0.0
C438 C 0.88041 0.57669 0.09925 0.0
C439 C 0.86044 0.6059 0.12095 0.0
C440 C 0.40857 0.12489 0.14703 0.0
C441 C 0.39809 0.16386 0.14072 0.0
C442 C 0.43225 0.10489 0.12026 0.0
C443 C 0.44607 0.12329 0.0864 0.0
H444 H 0.39636 0.10906 0.17138 0.0
H445 H 0.43737 0.07422 0.12469 0.0
S446 S 0.43342 0.22697 0.06081 0.0
N447 N 0.40829 0.22153 0.10144 0.0
N448 N 0.45226 0.18398 0.05108 0.0
C449 C 0.4385 0.16304 0.08165 0.0
C450 C 0.41466 0.18334 0.10884 0.0
C451 C 0.12074 0.86565 0.60874 0.0
C452 C 0.13734 0.88494 0.64081 0.0
C453 C 0.09728 0.88541 0.5822 0.0
C454 C 0.08939 0.92523 0.58672 0.0
H455 H 0.12733 0.83538 0.60319 0.0
H456 H 0.08659 0.86976 0.55698 0.0
S457 S 0.12477 0.98881 0.66654 0.0
N458 N 0.14287 0.94567 0.67664 0.0
N459 N 0.09924 0.98304 0.62631 0.0
C460 C 0.10411 0.94444 0.61975 0.0
C461 C 0.12796 0.92421 0.64694 0.0
C462 C 0.90865 0.36699 0.93199 0.0
C463 C 0.89626 0.38512 0.89761 0.0
C464 C 0.93158 0.3869 0.95923 0.0
C465 C 0.94313 0.42568 0.9532 0.0
H466 H 0.89879 0.33793 0.93903 0.0
H467 H 0.93902 0.37225 0.98601 0.0
S468 S 0.9214 0.48522 0.8663 0.0
N469 N 0.90064 0.44285 0.85719 0.0
N470 N 0.94166 0.48098 0.90954 0.0
C471 C 0.93263 0.44354 0.91811 0.0
C472 C 0.90969 0.42309 0.89007 0.0
C473 C 0.60801 0.65666 0.39656 0.0
C474 C 0.64581 0.64412 0.38733 0.0
C475 C 0.58504 0.63629 0.42371 0.0
C476 C 0.5992 0.60269 0.44182 0.0
H477 H 0.59718 0.68359 0.38466 0.0
H478 H 0.55721 0.64814 0.4323 0.0
S479 S 0.69405 0.55553 0.42388 0.0
N480 N 0.69467 0.59423 0.39561 0.0
N481 N 0.65155 0.55603 0.44629 0.0
C482 C 0.63575 0.58859 0.43079 0.0
C483 C 0.65907 0.60927 0.40353 0.0
C484 C 0.09857 0.41878 0.17337 0.0
C485 C 0.13088 0.40172 0.15505 0.0
C486 C 0.07229 0.44149 0.15243 0.0
C487 C 0.0774 0.44822 0.11242 0.0
H488 H 0.09276 0.41332 0.20387 0.0
H489 H 0.04691 0.45266 0.16739 0.0
S490 S 0.15726 0.41019 0.05076 0.0
N491 N 0.16696 0.3937 0.09471 0.0
N492 N 0.1173 0.43623 0.05526 0.0
C493 C 0.11045 0.43277 0.09403 0.0
C494 C 0.13728 0.40957 0.1154 0.0
C495 C 0.59999 0.12393 0.86683 0.0
C496 C 0.63333 0.13958 0.88461 0.0
C497 C 0.5732 0.1017 0.88799 0.0
C498 C 0.57875 0.09403 0.92772 0.0
H499 H 0.59366 0.13039 0.83668 0.0
H500 H 0.54703 0.09182 0.87349 0.0
S501 S 0.66251 0.1261 0.98745 0.0
N502 N 0.67168 0.14383 0.94377 0.0
N503 N 0.62096 0.10225 0.98367 0.0
C504 C 0.61309 0.10743 0.94536 0.0
C505 C 0.64051 0.13012 0.92373 0.0
C506 C 0.93341 0.91836 0.36597 0.0
C507 C 0.90016 0.90238 0.38376 0.0
C508 C 0.96025 0.94033 0.38732 0.0
C509 C 0.95478 0.94751 0.42724 0.0
H510 H 0.93953 0.91251 0.33557 0.0
H511 H 0.98628 0.95058 0.37276 0.0
S512 S 0.87171 0.91385 0.48735 0.0
N513 N 0.86233 0.89683 0.44336 0.0
N514 N 0.91308 0.93804 0.48357 0.0
C515 C 0.92069 0.93355 0.44502 0.0
C516 C 0.89325 0.91106 0.42323 0.0
C517 C 0.43435 0.67172 0.61285 0.0
C518 C 0.41028 0.65613 0.64205 0.0
C519 C 0.46039 0.64828 0.59219 0.0
C520 C 0.46324 0.60831 0.5997 0.0
H521 H 0.43357 0.70249 0.60643 0.0
H522 H 0.47902 0.66172 0.57057 0.0
S523 S 0.40775 0.55346 0.67398 0.0
N524 N 0.3911 0.59826 0.67764 0.0
N525 N 0.44064 0.55424 0.63886 0.0
C526 C 0.43889 0.59209 0.6282 0.0
C527 C 0.41221 0.61601 0.64933 0.0
C528 C 0.01124 0.9866 0.72114 0.0
C529 C 0.99203 0.95039 0.72286 0.0
C530 C 0.01959 0.00433 0.68548 0.0
C531 C 0.01048 0.98589 0.65018 0.0
H532 H 0.01771 0.00257 0.74756 0.0
H533 H 0.03136 0.03357 0.68552 0.0
S534 S 0.96589 0.88868 0.63774 0.0
N535 N 0.96756 0.89524 0.68532 0.0
N536 N 0.98579 0.92787 0.61849 0.0
C537 C 0.99531 0.94807 0.65118 0.0
C538 C 0.98557 0.93038 0.6875 0.0
C539 C 0.51951 0.06025 0.22211 0.0
C540 C 0.53991 0.09581 0.22373 0.0
C541 C 0.51049 0.04263 0.18648 0.0
C542 C 0.52028 0.0605 0.15116 0.0
H543 H 0.51274 0.04459 0.24857 0.0
H544 H 0.49795 0.0137 0.18656 0.0
S545 S 0.56767 0.15632 0.13858 0.0
N546 N 0.56584 0.15008 0.18616 0.0
N547 N 0.54665 0.11759 0.11939 0.0
C548 C 0.53654 0.09789 0.15211 0.0
C549 C 0.54682 0.11549 0.18839 0.0
C550 C 0.48713 0.61349 0.35492 0.0
C551 C 0.4882 0.59479 0.31848 0.0
C552 C 0.4973 0.59365 0.38897 0.0
C553 C 0.50799 0.55432 0.38755 0.0
H554 H 0.47617 0.64285 0.35733 0.0
H555 H 0.49353 0.60815 0.41675 0.0
S556 S 0.51959 0.49379 0.29897 0.0
N557 N 0.50467 0.53621 0.2826 0.0
N558 N 0.52283 0.49863 0.34669 0.0
C559 C 0.51185 0.53626 0.35107 0.0
C560 C 0.50219 0.55661 0.31643 0.0
C561 C 0.03622 0.48361 0.81904 0.0
C562 C 0.04692 0.44431 0.81932 0.0
C563 C 0.02762 0.5032 0.85373 0.0
C564 C 0.02874 0.48399 0.88976 0.0
H565 H 0.03737 0.50005 0.79224 0.0
H566 H 0.02214 0.53414 0.85257 0.0
S567 S 0.04911 0.37961 0.90516 0.0
N568 N 0.05395 0.38571 0.85772 0.0
N569 N 0.03706 0.42249 0.92311 0.0
C570 C 0.03591 0.44387 0.89001 0.0
C571 C 0.0453 0.42403 0.85468 0.0
C572 C 0.71126 0.0055 0.987 0.0
C573 C 0.71057 0.9938 0.94782 0.0
C574 C 0.67683 0.01446 0.00681 0.0
C575 C 0.64066 0.01264 0.98794 0.0
H576 H 0.73817 0.00481 0.00324 0.0
H577 H 0.67828 0.02064 0.03771 0.0
S578 S 0.62424 0.98955 0.88386 0.0
N579 N 0.67165 0.98524 0.88961 0.0
N580 N 0.60677 0.00249 0.92678 0.0
C581 C 0.64002 0.00448 0.94787 0.0
C582 C 0.67507 0.99485 0.92782 0.0
C583 C 0.85833 0.04804 0.42798 0.0
C584 C 0.82195 0.04619 0.44671 0.0
C585 C 0.89251 0.03812 0.44771 0.0
C586 C 0.89127 0.02703 0.487 0.0
H587 H 0.86057 0.05949 0.39874 0.0
H588 H 0.92018 0.04253 0.43325 0.0
S589 S 0.80305 0.01216 0.54717 0.0
N590 N 0.78644 0.02768 0.50499 0.0
N591 N 0.85073 0.01006 0.54233 0.0
C592 C 0.8549 0.02194 0.50488 0.0
C593 C 0.82015 0.03128 0.48463 0.0
C594 C 0.18073 0.55207 0.10825 0.0
C595 C 0.21569 0.54254 0.08901 0.0
C596 C 0.14457 0.54416 0.09113 0.0
C597 C 0.14238 0.52704 0.0541 0.0
H598 H 0.1812 0.5686 0.13511 0.0
H599 H 0.11849 0.55477 0.10526 0.0
S600 S 0.2242 0.4884 0.99582 0.0
N601 N 0.24497 0.50768 0.03465 0.0
N602 N 0.17711 0.49559 1.00134 0.0
C603 C 0.17664 0.51407 0.03634 0.0
C604 C 0.21331 0.52105 0.05416 0.0
C605 C 0.32752 0.51426 0.56729 0.0
C606 C 0.32816 0.48817 0.5987 0.0
C607 C 0.36195 0.52493 0.54805 0.0
C608 C 0.398 0.51052 0.56023 0.0
H609 H 0.30007 0.52395 0.55554 0.0
H610 H 0.36012 0.54236 0.52195 0.0
S611 S 0.41568 0.44501 0.64344 0.0
N612 N 0.36815 0.45131 0.64336 0.0
N613 N 0.4327 0.47108 0.60687 0.0
C614 C 0.39926 0.4868 0.59325 0.0
C615 C 0.36434 0.47578 0.61268 0.0
C616 C 0.97514 0.71755 0.0033 0.0
C617 C 0.93644 0.7161 0.99055 0.0
C618 C 0.99552 0.6834 0.01129 0.0
C619 C 0.97769 0.64675 0.00745 0.0
H620 H 0.99065 0.74499 0.00419 0.0
H621 H 0.02612 0.68557 0.01832 0.0
S622 S 0.87512 0.62794 0.98067 0.0
N623 N 0.87973 0.67568 0.97858 0.0
N624 N 0.91796 0.61133 0.99408 0.0
C625 C 0.93803 0.64515 0.99808 0.0
C626 C 0.91742 0.67994 0.98943 0.0
C627 C 0.41661 0.86435 0.05249 0.0
C628 C 0.43504 0.82815 0.04813 0.0
C629 C 0.43601 0.89902 0.04303 0.0
C630 C 0.47465 0.89842 0.02981 0.0
H631 H 0.38797 0.86595 0.06552 0.0
H632 H 0.42198 0.92643 0.04942 0.0
S633 S 0.53379 0.81123 0.00857 0.0
N634 N 0.4923 0.79376 0.0254 0.0
N635 N 0.52899 0.85894 0.00855 0.0
C636 C 0.49212 0.86239 0.02232 0.0
C637 C 0.47222 0.82718 0.03128 0.0
C638 C 0.05299 0.21709 0.5198 0.0
C639 C 0.08902 0.22043 0.53892 0.0
C640 C 0.03549 0.18083 0.5137 0.0
C641 C 0.05396 0.14653 0.52517 0.0
H642 H 0.03696 0.24283 0.51177 0.0
H643 H 0.00632 0.17974 0.50196 0.0
S644 S 0.15084 0.13809 0.57046 0.0
N645 N 0.14415 0.1853 0.56572 0.0
N646 N 0.11183 0.11718 0.55186 0.0
C647 C 0.09163 0.1489 0.54027 0.0
C648 C 0.10914 0.18589 0.54761 0.0
C649 C 0.61682 0.36201 0.49149 0.0
C650 C 0.5985 0.32554 0.49483 0.0
C651 C 0.59675 0.39637 0.50025 0.0
C652 C 0.55752 0.39516 0.51163 0.0
H653 H 0.64596 0.36406 0.47968 0.0
H654 H 0.61088 0.42399 0.49469 0.0
S655 S 0.49831 0.30698 0.52993 0.0
N656 N 0.54065 0.29019 0.51487 0.0
N657 N 0.50265 0.35478 0.53033 0.0
C658 C 0.54004 0.35885 0.51818 0.0
C659 C 0.56064 0.32396 0.51 0.0
loop_
_geom_bond_atom_site_label_1
_geom_bond_atom_site_label_2
_geom_bond_distance
_geom_bond_site_symmetry_2
_ccdc_geom_bond_type
C0 C1 1.386 . S
C0 C2 1.397 . S
C0 H24 0.931 . S
C1 C0 1.386 . S
C1 C5 1.397 . S
C2 C0 1.397 . S
C2 C3 1.384 . S
C2 H25 0.930 . S
C3 C2 1.384 . S
C3 C4 1.377 . S
C3 C6 1.481 . S
C4 C3 1.377 . S
C4 C5 1.389 . S
C4 H26 0.929 . S
C5 C1 1.397 . S
C5 C4 1.389 . S
C5 H27 0.931 . S
C6 C3 1.481 . S
C6 C7 1.387 . S
C6 C11 1.390 . S
C7 C6 1.387 . S
C7 C8 1.401 . S
C7 H28 0.930 . S
C8 C7 1.401 . S
C8 C9 1.376 . S
C8 C17 1.511 . S
C9 C8 1.376 . S
C9 C10 1.392 . S
C9 H30 0.931 . S
C10 C9 1.392 . S
C10 C11 1.361 . S
C10 C12 1.500 . S
C11 C6 1.390 . S
C11 C10 1.361 . S
C11 H29 0.931 . S
C12 C10 1.500 . S
C12 C13 1.371 . S
C12 C14 1.365 . S
C13 C12 1.371 . S
C13 C23 1.386 . S
C13 H31 0.931 . S
C14 C12 1.365 . S
C14 C15 1.409 . S
C14 H32 0.929 . S
C15 C14 1.409 . S
C15 C16 1.380 . S
C15 H33 0.930 . S
C16 C15 1.380 . S
C16 C23 1.357 . S
C17 C8 1.511 . S
C17 C18 1.341 . S
C17 C19 1.371 . S
C18 C17 1.341 . S
C18 C22 1.394 . S
C18 H34 0.930 . S
C19 C17 1.371 . S
C19 C20 1.392 . S
C19 H35 0.931 . S
C20 C19 1.392 . S
C20 C21 1.331 . S
C20 H38 0.932 . S
C21 C20 1.331 . S
C21 C22 1.336 . S
C22 C18 1.394 . S
C22 C21 1.336 . S
C22 H37 0.929 . S
C23 C13 1.386 . S
C23 C16 1.357 . S
C23 H36 0.928 . S
H24 C0 0.931 . S
H25 C2 0.930 . S
H26 C4 0.929 . S
H27 C5 0.931 . S
H28 C7 0.930 . S
H29 C11 0.931 . S
H30 C9 0.931 . S
H31 C13 0.931 . S
H32 C14 0.929 . S
H33 C15 0.930 . S
H34 C18 0.930 . S
H35 C19 0.931 . S
H36 C23 0.928 . S
H37 C22 0.929 . S
H38 C20 0.932 . S
C39 C40 1.386 . S
C39 C41 1.397 . S
C39 H63 0.931 . S
C40 C39 1.386 . S
C40 C44 1.397 . S
C41 C39 1.397 . S
C41 C42 1.384 . S
C41 H64 0.930 . S
C42 C41 1.384 . S
C42 C43 1.377 . S
C42 C45 1.481 . S
C43 C42 1.377 . S
C43 C44 1.389 . S
C43 H65 0.929 . S
C44 C40 1.397 . S
C44 C43 1.389 . S
C44 H66 0.931 . S
C45 C42 1.481 . S
C45 C46 1.387 . S
C45 C50 1.390 . S
C46 C45 1.387 . S
C46 C47 1.401 . S
C46 H67 0.930 . S
C47 C46 1.401 . S
C47 C48 1.376 . S
C47 C56 1.511 . S
C48 C47 1.376 . S
C48 C49 1.392 . S
C48 H69 0.931 . S
C49 C48 1.392 . S
C49 C50 1.361 . S
C49 C51 1.500 . S
C50 C45 1.390 . S
C50 C49 1.361 . S
C50 H68 0.931 . S
C51 C49 1.500 . S
C51 C52 1.371 . S
C51 C53 1.365 . S
C52 C51 1.371 . S
C52 C62 1.386 . S
C52 H70 0.931 . S
C53 C51 1.365 . S
C53 C54 1.409 . S
C53 H71 0.929 . S
C54 C53 1.409 . S
C54 C55 1.380 . S
C54 H72 0.930 . S
C55 C54 1.380 . S
C55 C62 1.357 . S
C56 C47 1.511 . S
C56 C57 1.341 . S
C56 C58 1.371 . S
C57 C56 1.341 . S
C57 C61 1.394 . S
C57 H73 0.930 . S
C58 C56 1.371 . S
C58 C59 1.392 . S
C58 H74 0.931 . S
C59 C58 1.392 . S
C59 C60 1.331 . S
C59 H77 0.932 . S
C60 C59 1.331 . S
C60 C61 1.336 . S
C61 C57 1.394 . S
C61 C60 1.336 . S
C61 H76 0.929 . S
C62 C52 1.386 . S
C62 C55 1.357 . S
C62 H75 0.928 . S
H63 C39 0.931 . S
H64 C41 0.930 . S
H65 C43 0.929 . S
H66 C44 0.931 . S
H67 C46 0.930 . S
H68 C50 0.931 . S
H69 C48 0.931 . S
H70 C52 0.931 . S
H71 C53 0.929 . S
H72 C54 0.930 . S
H73 C57 0.930 . S
H74 C58 0.931 . S
H75 C62 0.928 . S
H76 C61 0.929 . S
H77 C59 0.932 . S
C78 C79 1.386 . S
C78 C80 1.397 . S
C78 H102 0.931 . S
C79 C78 1.386 . S
C79 C83 1.397 . S
C80 C78 1.397 . S
C80 C81 1.384 . S
C80 H103 0.930 . S
C81 C80 1.384 . S
C81 C82 1.377 . S
C81 C84 1.481 . S
C82 C81 1.377 . S
C82 C83 1.389 . S
C82 H104 0.929 . S
C83 C79 1.397 . S
C83 C82 1.389 . S
C83 H105 0.931 . S
C84 C81 1.481 . S
C84 C85 1.387 . S
C84 C89 1.390 . S
C85 C84 1.387 . S
C85 C86 1.401 . S
C85 H106 0.930 . S
C86 C85 1.401 . S
C86 C87 1.376 . S
C86 C95 1.511 . S
C87 C86 1.376 . S
C87 C88 1.392 . S
C87 H108 0.931 . S
C88 C87 1.392 . S
C88 C89 1.361 . S
C88 C90 1.500 . S
C89 C84 1.390 . S
C89 C88 1.361 . S
C89 H107 0.931 . S
C90 C88 1.500 . S
C90 C91 1.371 . S
C90 C92 1.365 . S
C91 C90 1.371 . S
C91 C101 1.386 . S
C91 H109 0.931 . S
C92 C90 1.365 . S
C92 C93 1.409 . S
C92 H110 0.929 . S
C93 C92 1.409 . S
C93 C94 1.380 . S
C93 H111 0.930 . S
C94 C93 1.380 . S
C94 C101 1.357 . S
C95 C86 1.511 . S
C95 C96 1.341 . S
C95 C97 1.371 . S
C96 C95 1.341 . S
C96 C100 1.394 . S
C96 H112 0.930 . S
C97 C95 1.371 . S
C97 C98 1.392 . S
C97 H113 0.931 . S
C98 C97 1.392 . S
C98 C99 1.331 . S
C98 H116 0.932 . S
C99 C98 1.331 . S
C99 C100 1.336 . S
C100 C96 1.394 . S
C100 C99 1.336 . S
C100 H115 0.929 . S
C101 C91 1.386 . S
C101 C94 1.357 . S
C101 H114 0.928 . S
H102 C78 0.931 . S
H103 C80 0.930 . S
H104 C82 0.929 . S
H105 C83 0.931 . S
H106 C85 0.930 . S
H107 C89 0.931 . S
H108 C87 0.931 . S
H109 C91 0.931 . S
H110 C92 0.929 . S
H111 C93 0.930 . S
H112 C96 0.930 . S
H113 C97 0.931 . S
H114 C101 0.928 . S
H115 C100 0.929 . S
H116 C98 0.932 . S
C117 C118 1.386 . S
C117 C119 1.397 . S
C117 H141 0.931 . S
C118 C117 1.386 . S
C118 C122 1.397 . S
C119 C117 1.397 . S
C119 C120 1.384 . S
C119 H142 0.930 . S
C120 C119 1.384 . S
C120 C121 1.377 . S
C120 C123 1.481 . S
C121 C120 1.377 . S
C121 C122 1.389 . S
C121 H143 0.929 . S
C122 C118 1.397 . S
C122 C121 1.389 . S
C122 H144 0.931 . S
C123 C120 1.481 . S
C123 C124 1.387 . S
C123 C128 1.390 . S
C124 C123 1.387 . S
C124 C125 1.401 . S
C124 H145 0.930 . S
C125 C124 1.401 . S
C125 C126 1.376 . S
C125 C134 1.511 . S
C126 C125 1.376 . S
C126 C127 1.392 . S
C126 H147 0.931 . S
C127 C126 1.392 . S
C127 C128 1.361 . S
C127 C129 1.500 . S
C128 C123 1.390 . S
C128 C127 1.361 . S
C128 H146 0.931 . S
C129 C127 1.500 . S
C129 C130 1.371 . S
C129 C131 1.365 . S
C130 C129 1.371 . S
C130 C140 1.386 . S
C130 H148 0.931 . S
C131 C129 1.365 . S
C131 C132 1.409 . S
C131 H149 0.929 . S
C132 C131 1.409 . S
C132 C133 1.380 . S
C132 H150 0.930 . S
C133 C132 1.380 . S
C133 C140 1.357 . S
C134 C125 1.511 . S
C134 C135 1.341 . S
C134 C136 1.371 . S
C135 C134 1.341 . S
C135 C139 1.394 . S
C135 H151 0.930 . S
C136 C134 1.371 . S
C136 C137 1.392 . S
C136 H152 0.931 . S
C137 C136 1.392 . S
C137 C138 1.331 . S
C137 H155 0.932 . S
C138 C137 1.331 . S
C138 C139 1.336 . S
C139 C135 1.394 . S
C139 C138 1.336 . S
C139 H154 0.929 . S
C140 C130 1.386 . S
C140 C133 1.357 . S
C140 H153 0.928 . S
H141 C117 0.931 . S
H142 C119 0.930 . S
H143 C121 0.929 . S
H144 C122 0.931 . S
H145 C124 0.930 . S
H146 C128 0.931 . S
H147 C126 0.931 . S
H148 C130 0.931 . S
H149 C131 0.929 . S
H150 C132 0.930 . S
H151 C135 0.930 . S
H152 C136 0.931 . S
H153 C140 0.928 . S
H154 C139 0.929 . S
H155 C137 0.932 . S
C156 C157 1.386 1_565 S
C156 C158 1.397 . S
C156 H180 0.931 . S
C157 C156 1.386 1_545 S
C157 C161 1.397 . S
C158 C156 1.397 . S
C158 C159 1.384 . S
C158 H181 0.930 . S
C159 C158 1.384 . S
C159 C160 1.377 1_565 S
C159 C162 1.481 . S
C160 C159 1.377 1_545 S
C160 C161 1.389 . S
C160 H182 0.929 . S
C161 C157 1.397 . S
C161 C160 1.389 . S
C161 H183 0.931 . S
C162 C159 1.481 . S
C162 C163 1.387 . S
C162 C167 1.390 . S
C163 C162 1.387 . S
C163 C164 1.401 . S
C163 H184 0.930 . S
C164 C163 1.401 . S
C164 C165 1.376 . S
C164 C173 1.511 . S
C165 C164 1.376 . S
C165 C166 1.392 . S
C165 H186 0.931 . S
C166 C165 1.392 . S
C166 C167 1.361 . S
C166 C168 1.500 . S
C167 C162 1.390 . S
C167 C166 1.361 . S
C167 H185 0.931 . S
C168 C166 1.500 . S
C168 C169 1.371 . S
C168 C170 1.365 1_565 S
C169 C168 1.371 . S
C169 C179 1.386 1_556 S
C169 H187 0.931 . S
C170 C168 1.365 1_545 S
C170 C171 1.409 . S
C170 H188 0.929 . S
C171 C170 1.409 . S
C171 C172 1.380 1_546 S
C171 H189 0.930 . S
C172 C171 1.380 1_564 S
C172 C179 1.357 . S
C173 C164 1.511 . S
C173 C174 1.341 . S
C173 C175 1.369 . S
C174 C173 1.341 . S
C174 C178 1.394 1_655 S
C174 H190 0.930 . S
C175 C173 1.369 . S
C175 C176 1.393 1_556 S
C175 H191 0.933 1_556 S
C176 C175 1.393 1_554 S
C176 C177 1.331 1_554 S
C176 H194 0.932 . S
C177 C176 1.331 1_556 S
C177 C178 1.336 1_655 S
C178 C174 1.394 1_455 S
C178 C177 1.336 1_455 S
C178 H193 0.929 . S
C179 C169 1.386 1_554 S
C179 C172 1.357 . S
C179 H192 0.928 . S
H180 C156 0.931 . S
H181 C158 0.930 . S
H182 C160 0.929 . S
H183 C161 0.931 . S
H184 C163 0.930 . S
H185 C167 0.931 . S
H186 C165 0.931 . S
H187 C169 0.931 . S
H188 C170 0.929 . S
H189 C171 0.930 . S
H190 C174 0.930 . S
H191 C175 0.933 1_554 S
H192 C179 0.928 . S
H193 C178 0.929 . S
H194 C176 0.932 . S
C195 C196 1.386 . S
C195 C197 1.397 . S
C195 H219 0.931 1_545 S
C196 C195 1.386 . S
C196 C200 1.397 . S
C197 C195 1.397 . S
C197 C198 1.384 . S
C197 H220 0.930 . S
C198 C197 1.384 . S
C198 C199 1.377 . S
C198 C201 1.481 . S
C199 C198 1.377 . S
C199 C200 1.389 . S
C199 H221 0.929 . S
C200 C196 1.397 . S
C200 C199 1.389 . S
C200 H222 0.931 . S
C201 C198 1.481 . S
C201 C202 1.387 . S
C201 C206 1.390 . S
C202 C201 1.387 . S
C202 C203 1.401 . S
C202 H223 0.930 . S
C203 C202 1.401 . S
C203 C204 1.376 . S
C203 C212 1.511 . S
C204 C203 1.376 . S
C204 C205 1.392 . S
C204 H225 0.931 . S
C205 C204 1.392 . S
C205 C206 1.361 . S
C205 C207 1.500 . S
C206 C201 1.390 . S
C206 C205 1.361 . S
C206 H224 0.931 . S
C207 C205 1.500 . S
C207 C208 1.371 . S
C207 C209 1.365 . S
C208 C207 1.371 . S
C208 C218 1.386 . S
C208 H226 0.931 . S
C209 C207 1.365 . S
C209 C210 1.409 . S
C209 H227 0.929 . S
C210 C209 1.409 . S
C210 C211 1.380 . S
C210 H228 0.930 . S
C211 C210 1.380 . S
C211 C218 1.357 . S
C212 C203 1.511 . S
C212 C213 1.341 . S
C212 C214 1.371 . S
C213 C212 1.341 . S
C213 C217 1.394 . S
C213 H229 0.930 . S
C214 C212 1.371 . S
C214 C215 1.392 . S
C214 H230 0.931 . S
C215 C214 1.392 . S
C215 C216 1.331 . S
C215 H233 0.932 . S
C216 C215 1.331 . S
C216 C217 1.336 . S
C217 C213 1.394 . S
C217 C216 1.336 . S
C217 H232 0.948 . S
C218 C208 1.386 . S
C218 C211 1.357 . S
C218 H231 0.928 . S
H219 C195 0.931 1_565 S
H220 C197 0.930 . S
H221 C199 0.929 . S
H222 C200 0.931 . S
H223 C202 0.930 . S
H224 C206 0.931 . S
H225 C204 0.931 . S
H226 C208 0.931 . S
H227 C209 0.929 . S
H228 C210 0.930 . S
H229 C213 0.930 . S
H230 C214 0.931 . S
H231 C218 0.928 . S
H232 C217 0.948 . S
H233 C215 0.932 . S
C234 C235 1.386 . S
C234 C236 1.397 . S
C234 H258 0.931 . S
C235 C234 1.386 . S
C235 C239 1.397 . S
C236 C234 1.397 . S
C236 C237 1.384 . S
C236 H259 0.930 . S
C237 C236 1.384 . S
C237 C238 1.377 . S
C237 C240 1.481 . S
C238 C237 1.377 . S
C238 C239 1.389 . S
C238 H260 0.929 . S
C239 C235 1.397 . S
C239 C238 1.389 . S
C239 H261 0.931 1_554 S
C240 C237 1.481 . S
C240 C241 1.387 . S
C240 C245 1.390 . S
C241 C240 1.387 . S
C241 C242 1.401 . S
C241 H262 0.930 . S
C242 C241 1.401 . S
C242 C243 1.376 . S
C242 C251 1.511 . S
C243 C242 1.376 . S
C243 C244 1.392 . S
C243 H264 0.931 . S
C244 C243 1.392 . S
C244 C245 1.361 . S
C244 C246 1.500 . S
C245 C240 1.390 . S
C245 C244 1.361 . S
C245 H263 0.931 . S
C246 C244 1.500 . S
C246 C247 1.371 . S
C246 C248 1.365 . S
C247 C246 1.371 . S
C247 C257 1.386 . S
C247 H265 0.931 . S
C248 C246 1.365 . S
C248 C249 1.409 . S
C248 H266 0.929 . S
C249 C248 1.409 . S
C249 C250 1.380 . S
C249 H267 0.930 1_554 S
C250 C249 1.380 . S
C250 C257 1.357 . S
C251 C242 1.511 . S
C251 C252 1.341 . S
C251 C253 1.371 . S
C252 C251 1.341 . S
C252 C256 1.394 . S
C252 H268 0.930 . S
C253 C251 1.371 . S
C253 C254 1.392 . S
C253 H269 0.931 . S
C254 C253 1.392 . S
C254 C255 1.331 . S
C254 H272 0.932 . S
C255 C254 1.331 . S
C255 C256 1.336 . S
C256 C252 1.394 . S
C256 C255 1.336 . S
C256 H271 0.929 . S
C257 C247 1.386 . S
C257 C250 1.357 . S
C257 H270 0.928 . S
H258 C234 0.931 . S
H259 C236 0.930 . S
H260 C238 0.929 . S
H261 C239 0.931 1_556 S
H262 C241 0.930 . S
H263 C245 0.931 . S
H264 C243 0.931 . S
H265 C247 0.931 . S
H266 C248 0.929 . S
H267 C249 0.930 1_556 S
H268 C252 0.930 . S
H269 C253 0.931 . S
H270 C257 0.928 . S
H271 C256 0.929 . S
H272 C254 0.932 . S
C273 C274 1.386 . S
C273 C275 1.397 . S
C273 H297 0.931 . S
C274 C273 1.386 . S
C274 C278 1.397 . S
C275 C273 1.397 . S
C275 C276 1.384 . S
C275 H298 0.930 . S
C276 C275 1.384 . S
C276 C277 1.377 . S
C276 C279 1.481 . S
C277 C276 1.377 . S
C277 C278 1.389 . S
C277 H299 0.929 . S
C278 C274 1.397 . S
C278 C277 1.389 . S
C278 H300 0.931 1_455 S
C279 C276 1.481 . S
C279 C280 1.387 . S
C279 C284 1.390 . S
C280 C279 1.387 . S
C280 C281 1.401 . S
C280 H301 0.930 . S
C281 C280 1.401 . S
C281 C282 1.376 . S
C281 C290 1.511 . S
C282 C281 1.376 . S
C282 C283 1.392 . S
C282 H303 0.931 . S
C283 C282 1.392 . S
C283 C284 1.361 . S
C283 C285 1.500 . S
C284 C279 1.390 . S
C284 C283 1.361 . S
C284 H302 0.931 . S
C285 C283 1.500 . S
C285 C286 1.371 . S
C285 C287 1.365 . S
C286 C285 1.371 . S
C286 C296 1.386 . S
C286 H304 0.931 . S
C287 C285 1.365 . S
C287 C288 1.409 . S
C287 H305 0.929 . S
C288 C287 1.409 . S
C288 C289 1.380 . S
C288 H306 0.930 1_455 S
C289 C288 1.380 . S
C289 C296 1.357 . S
C290 C281 1.511 . S
C290 C291 1.341 . S
C290 C292 1.371 . S
C291 C290 1.341 . S
C291 C295 1.394 . S
C291 H307 0.930 . S
C292 C290 1.371 . S
C292 C293 1.392 . S
C292 H308 0.931 . S
C293 C292 1.392 . S
C293 C294 1.331 . S
C293 H311 0.932 . S
C294 C293 1.331 . S
C294 C295 1.336 . S
C295 C291 1.394 . S
C295 C294 1.336 . S
C295 H310 0.929 . S
C296 C286 1.386 . S
C296 C289 1.357 . S
C296 H309 0.928 . S
H297 C273 0.931 . S
H298 C275 0.930 . S
H299 C277 0.929 . S
H300 C278 0.931 1_655 S
H301 C280 0.930 . S
H302 C284 0.931 . S
H303 C282 0.931 . S
H304 C286 0.931 . S
H305 C287 0.929 . S
H306 C288 0.930 1_655 S
H307 C291 0.930 . S
H308 C292 0.931 . S
H309 C296 0.928 . S
H310 C295 0.929 . S
H311 C293 0.932 . S
Zn312 O318 1.920 . S
Zn312 O324 1.898 . S
Zn312 O327 1.905 . S
Zn313 O321 1.905 1_565 S
Zn313 O322 1.898 . S
Zn313 O330 1.920 . S
Zn314 O317 2.080 1_455 S
Zn314 O320 2.114 . S
Zn314 O323 2.120 1_445 S
Zn314 O325 2.120 . S
Zn314 O326 2.114 1_455 S
Zn314 O329 2.080 . S
C315 O320 1.166 . S
C315 O321 1.182 . S
C316 O322 1.167 1_655 S
C316 O323 1.299 . S
O317 Zn314 2.080 1_655 S
O317 C331 1.305 . S
O318 Zn312 1.920 . S
O318 C331 1.234 . S
C319 O324 1.167 1_455 S
C319 O325 1.299 . S
O320 Zn314 2.114 . S
O320 C315 1.166 . S
O321 Zn313 1.905 1_545 S
O321 C315 1.182 . S
O322 Zn313 1.898 . S
O322 C316 1.167 1_455 S
O323 Zn314 2.120 1_665 S
O323 C316 1.299 . S
O324 Zn312 1.898 . S
O324 C319 1.167 1_655 S
O325 Zn314 2.120 . S
O325 C319 1.299 . S
O326 Zn314 2.114 1_655 S
O326 C328 1.166 . S
O327 Zn312 1.905 . S
O327 C328 1.182 . S
C328 O326 1.166 . S
C328 O327 1.182 . S
O329 Zn314 2.080 . S
O329 C332 1.305 1_545 S
O330 Zn313 1.920 . S
O330 C332 1.234 . S
C331 O317 1.305 . S
C331 O318 1.234 . S
C332 O329 1.305 1_565 S
C332 O330 1.234 . S
Zn333 O339 1.920 1_556 S
Zn333 O345 1.898 . S
Zn333 O348 1.905 . S
Zn334 O342 1.905 . S
Zn334 O343 1.898 . S
Zn334 O351 1.920 . S
Zn335 O338 2.080 . S
Zn335 O341 2.114 1_545 S
Zn335 O344 2.120 1_545 S
Zn335 O346 2.120 . S
Zn335 O347 2.114 1_544 S
Zn335 O350 2.080 . S
C336 O341 1.166 . S
C336 O342 1.182 . S
C337 O343 1.167 . S
C337 O344 1.299 . S
O338 Zn335 2.080 . S
O338 C352 1.305 . S
O339 Zn333 1.920 1_554 S
O339 C352 1.234 . S
C340 O345 1.167 . S
C340 O346 1.299 1_556 S
O341 Zn335 2.114 1_565 S
O341 C336 1.166 . S
O342 Zn334 1.905 . S
O342 C336 1.182 . S
O343 Zn334 1.898 . S
O343 C337 1.167 . S
O344 Zn335 2.120 1_565 S
O344 C337 1.299 . S
O345 Zn333 1.898 . S
O345 C340 1.167 . S
O346 Zn335 2.120 . S
O346 C340 1.299 1_554 S
O347 Zn335 2.114 1_566 S
O347 C349 1.166 . S
O348 Zn333 1.905 . S
O348 C349 1.182 1_545 S
C349 O347 1.166 . S
C349 O348 1.182 1_565 S
O350 Zn335 2.080 . S
O350 C353 1.305 . S
O351 Zn334 1.920 . S
O351 C353 1.234 1_565 S
C352 O338 1.305 . S
C352 O339 1.234 . S
C353 O350 1.305 . S
C353 O351 1.234 1_545 S
Zn354 O360 1.920 . S
Zn354 O366 1.898 . S
Zn354 O369 1.905 . S
Zn355 O363 1.905 . S
Zn355 O364 1.898 . S
Zn355 O372 1.920 . S
Zn356 O359 2.080 . S
Zn356 O362 2.114 . S
Zn356 O365 2.120 . S
Zn356 O367 2.120 . S
Zn356 O368 2.114 . S
Zn356 O371 2.080 . S
C357 O362 1.166 . S
C357 O363 1.182 . S
C358 O364 1.167 . S
C358 O365 1.299 . S
O359 Zn356 2.080 . S
O359 C373 1.305 . S
O360 Zn354 1.920 . S
O360 C373 1.234 . S
C361 O366 1.167 . S
C361 O367 1.299 . S
O362 Zn356 2.114 . S
O362 C357 1.166 . S
O363 Zn355 1.905 . S
O363 C357 1.182 . S
O364 Zn355 1.898 . S
O364 C358 1.167 . S
O365 Zn356 2.120 . S
O365 C358 1.299 . S
O366 Zn354 1.898 . S
O366 C361 1.167 . S
O367 Zn356 2.120 . S
O367 C361 1.299 . S
O368 Zn356 2.114 . S
O368 C370 1.166 . S
O369 Zn354 1.905 . S
O369 C370 1.182 . S
C370 O368 1.166 . S
C370 O369 1.182 . S
O371 Zn356 2.080 . S
O371 C374 1.305 . S
O372 Zn355 1.920 . S
O372 C374 1.234 . S
C373 O359 1.305 . S
C373 O360 1.234 . S
C374 O371 1.305 . S
C374 O372 1.234 . S
Zn375 O381 1.920 . S
Zn375 O387 1.898 . S
Zn375 O390 1.905 . S
Zn376 O384 1.905 1_655 S
Zn376 O385 1.898 . S
Zn376 O393 1.920 . S
Zn377 O380 2.080 1_554 S
Zn377 O383 2.114 . S
Zn377 O386 2.120 1_454 S
Zn377 O388 2.120 . S
Zn377 O389 2.114 1_554 S
Zn377 O392 2.080 . S
C378 O383 1.166 . S
C378 O384 1.182 . S
C379 O385 1.167 1_556 S
C379 O386 1.299 . S
O380 Zn377 2.080 1_556 S
O380 C394 1.305 . S
O381 Zn375 1.920 . S
O381 C394 1.234 . S
C382 O387 1.167 1_554 S
C382 O388 1.299 . S
O383 Zn377 2.114 . S
O383 C378 1.166 . S
O384 Zn376 1.905 1_455 S
O384 C378 1.182 . S
O385 Zn376 1.898 . S
O385 C379 1.167 1_554 S
O386 Zn377 2.120 1_656 S
O386 C379 1.299 . S
O387 Zn375 1.898 . S
O387 C382 1.167 1_556 S
O388 Zn377 2.120 . S
O388 C382 1.299 . S
O389 Zn377 2.114 1_556 S
O389 C391 1.166 . S
O390 Zn375 1.905 . S
O390 C391 1.182 . S
C391 O389 1.166 . S
C391 O390 1.182 . S
O392 Zn377 2.080 . S
O392 C395 1.305 1_455 S
O393 Zn376 1.920 . S
O393 C395 1.234 . S
C394 O380 1.305 . S
C394 O381 1.234 . S
C395 O392 1.305 1_655 S
C395 O393 1.234 . S
C396 C397 1.369 . S
C396 C398 1.419 . S
C396 H400 0.930 . S
C397 C396 1.369 . S
C397 C406 1.429 . S
C398 C396 1.419 . S
C398 C399 1.363 . S
C398 H401 0.929 . S
C399 C398 1.363 . S
C399 C405 1.428 . S
H400 C396 0.930 . S
H401 C398 0.929 . S
S402 N403 1.613 . S
S402 N404 1.610 . S
N403 S402 1.613 . S
N403 C406 1.350 . S
N404 S402 1.610 . S
N404 C405 1.351 . S
C405 C399 1.428 . S
C405 N404 1.351 . S
C405 C406 1.434 . S
C406 C397 1.429 . S
C406 N403 1.350 . S
C406 C405 1.434 . S
C407 C408 1.369 . S
C407 C409 1.419 . S
C407 H411 0.930 . S
C408 C407 1.369 . S
C408 C417 1.429 . S
C409 C407 1.419 . S
C409 C410 1.363 . S
C409 H412 0.929 . S
C410 C409 1.363 . S
C410 C416 1.428 . S
H411 C407 0.930 . S
H412 C409 0.929 . S
S413 N414 1.613 1_545 S
S413 N415 1.610 . S
N414 S413 1.613 1_565 S
N414 C417 1.350 . S
N415 S413 1.610 . S
N415 C416 1.351 1_545 S
C416 C410 1.428 . S
C416 N415 1.351 1_565 S
C416 C417 1.434 . S
C417 C408 1.429 . S
C417 N414 1.350 . S
C417 C416 1.434 . S
C418 C419 1.369 . S
C418 C420 1.419 . S
C418 H422 0.930 . S
C419 C418 1.369 . S
C419 C428 1.429 . S
C420 C418 1.419 . S
C420 C421 1.363 . S
C420 H423 0.929 . S
C421 C420 1.363 . S
C421 C427 1.428 . S
H422 C418 0.930 . S
H423 C420 0.929 . S
S424 N425 1.613 . S
S424 N426 1.610 . S
N425 S424 1.613 . S
N425 C428 1.350 . S
N426 S424 1.610 . S
N426 C427 1.351 . S
C427 C421 1.428 . S
C427 N426 1.351 . S
C427 C428 1.434 . S
C428 C419 1.429 . S
C428 N425 1.350 . S
C428 C427 1.434 . S
C429 C430 1.369 . S
C429 C431 1.419 . S
C429 H433 0.930 . S
C430 C429 1.369 . S
C430 C439 1.429 . S
C431 C429 1.419 . S
C431 C432 1.363 . S
C431 H434 0.929 . S
C432 C431 1.363 . S
C432 C438 1.428 . S
H433 C429 0.930 . S
H434 C431 0.929 . S
S435 N436 1.613 . S
S435 N437 1.610 . S
N436 S435 1.613 . S
N436 C439 1.350 . S
N437 S435 1.610 . S
N437 C438 1.351 . S
C438 C432 1.428 . S
C438 N437 1.351 . S
C438 C439 1.434 . S
C439 C430 1.429 . S
C439 N436 1.350 . S
C439 C438 1.434 . S
C440 C441 1.369 . S
C440 C442 1.419 . S
C440 H444 0.930 . S
C441 C440 1.369 . S
C441 C450 1.429 . S
C442 C440 1.419 . S
C442 C443 1.363 . S
C442 H445 0.929 . S
C443 C442 1.363 . S
C443 C449 1.428 . S
H444 C440 0.930 . S
H445 C442 0.929 . S
S446 N447 1.613 . S
S446 N448 1.610 . S
N447 S446 1.613 . S
N447 C450 1.350 . S
N448 S446 1.610 . S
N448 C449 1.351 . S
C449 C443 1.428 . S
C449 N448 1.351 . S
C449 C450 1.434 . S
C450 C441 1.429 . S
C450 N447 1.350 . S
C450 C449 1.434 . S
C451 C452 1.369 . S
C451 C453 1.419 . S
C451 H455 0.930 . S
C452 C451 1.369 . S
C452 C461 1.429 . S
C453 C451 1.419 . S
C453 C454 1.363 . S
C453 H456 0.929 . S
C454 C453 1.363 . S
C454 C460 1.428 . S
H455 C451 0.930 . S
H456 C453 0.929 . S
S457 N458 1.613 . S
S457 N459 1.610 . S
N458 S457 1.613 . S
N458 C461 1.350 1_545 S
N459 S457 1.610 . S
N459 C460 1.351 1_545 S
C460 C454 1.428 . S
C460 N459 1.351 1_565 S
C460 C461 1.434 . S
C461 C452 1.429 . S
C461 N458 1.350 1_565 S
C461 C460 1.434 . S
C462 C463 1.369 . S
C462 C464 1.419 . S
C462 H466 0.930 . S
C463 C462 1.369 . S
C463 C472 1.429 . S
C464 C462 1.419 . S
C464 C465 1.363 . S
C464 H467 0.929 1_556 S
C465 C464 1.363 . S
C465 C471 1.428 . S
H466 C462 0.930 . S
H467 C464 0.929 1_554 S
S468 N469 1.613 . S
S468 N470 1.610 . S
N469 S468 1.613 . S
N469 C472 1.350 . S
N470 S468 1.610 . S
N470 C471 1.351 . S
C471 C465 1.428 . S
C471 N470 1.351 . S
C471 C472 1.434 . S
C472 C463 1.429 . S
C472 N469 1.350 . S
C472 C471 1.434 . S
C473 C474 1.369 . S
C473 C475 1.419 . S
C473 H477 0.930 . S
C474 C473 1.369 . S
C474 C483 1.429 . S
C475 C473 1.419 . S
C475 C476 1.363 . S
C475 H478 0.929 . S
C476 C475 1.363 . S
C476 C482 1.428 . S
H477 C473 0.930 . S
H478 C475 0.929 . S
S479 N480 1.613 . S
S479 N481 1.610 . S
N480 S479 1.613 . S
N480 C483 1.350 . S
N481 S479 1.610 . S
N481 C482 1.351 . S
C482 C476 1.428 . S
C482 N481 1.351 . S
C482 C483 1.434 . S
C483 C474 1.429 . S
C483 N480 1.350 . S
C483 C482 1.434 . S
C484 C485 1.369 . S
C484 C486 1.419 . S
C484 H488 0.930 . S
C485 C484 1.369 . S
C485 C494 1.429 . S
C486 C484 1.419 . S
C486 C487 1.363 . S
C486 H489 0.929 . S
C487 C486 1.363 . S
C487 C493 1.428 . S
H488 C484 0.930 . S
H489 C486 0.929 . S
S490 N491 1.613 1_556 S
S490 N492 1.603 1_556 S
N491 S490 1.613 1_554 S
N491 C494 1.350 . S
N492 S490 1.603 1_554 S
N492 C493 1.381 . S
C493 C487 1.428 . S
C493 N492 1.381 . S
C493 C494 1.434 . S
C494 C485 1.429 . S
C494 N491 1.350 . S
C494 C493 1.434 . S
C495 C496 1.369 . S
C495 C497 1.419 . S
C495 H499 0.930 . S
C496 C495 1.369 . S
C496 C505 1.429 . S
C497 C495 1.419 . S
C497 C498 1.363 . S
C497 H500 0.929 . S
C498 C497 1.363 . S
C498 C504 1.428 . S
H499 C495 0.930 . S
H500 C497 0.929 . S
S501 N502 1.613 1_554 S
S501 N503 1.610 . S
N502 S501 1.613 1_556 S
N502 C505 1.350 . S
N503 S501 1.610 . S
N503 C504 1.351 1_554 S
C504 C498 1.428 . S
C504 N503 1.351 1_556 S
C504 C505 1.434 . S
C505 C496 1.429 . S
C505 N502 1.350 . S
C505 C504 1.434 . S
C506 C507 1.369 . S
C506 C508 1.419 . S
C506 H510 0.930 . S
C507 C506 1.369 . S
C507 C516 1.429 . S
C508 C506 1.419 . S
C508 C509 1.363 . S
C508 H511 0.929 . S
C509 C508 1.363 . S
C509 C515 1.428 . S
H510 C506 0.930 . S
H511 C508 0.929 . S
S512 N513 1.613 . S
S512 N514 1.610 . S
N513 S512 1.613 . S
N513 C516 1.350 . S
N514 S512 1.610 . S
N514 C515 1.351 . S
C515 C509 1.428 . S
C515 N514 1.351 . S
C515 C516 1.434 . S
C516 C507 1.429 . S
C516 N513 1.350 . S
C516 C515 1.434 . S
C517 C518 1.369 . S
C517 C519 1.419 . S
C517 H521 0.930 . S
C518 C517 1.369 . S
C518 C527 1.429 . S
C519 C517 1.419 . S
C519 C520 1.363 . S
C519 H522 0.929 . S
C520 C519 1.363 . S
C520 C526 1.428 . S
H521 C517 0.930 . S
H522 C519 0.929 . S
S523 N524 1.613 . S
S523 N525 1.610 . S
N524 S523 1.613 . S
N524 C527 1.350 . S
N525 S523 1.610 . S
N525 C526 1.351 . S
C526 C520 1.428 . S
C526 N525 1.351 . S
C526 C527 1.434 . S
C527 C518 1.429 . S
C527 N524 1.350 . S
C527 C526 1.434 . S
C528 C529 1.369 1_455 S
C528 C530 1.419 . S
C528 H532 0.930 . S
C529 C528 1.369 1_655 S
C529 C538 1.429 1_545 S
C530 C528 1.419 . S
C530 C531 1.363 1_455 S
C530 H533 0.929 . S
C531 C530 1.363 1_655 S
C531 C537 1.428 1_545 S
H532 C528 0.930 . S
H533 C530 0.929 . S
S534 N535 1.613 . S
S534 N536 1.610 . S
N535 S534 1.613 . S
N535 C538 1.350 . S
N536 S534 1.610 . S
N536 C537 1.351 . S
C537 C531 1.428 1_565 S
C537 N536 1.351 . S
C537 C538 1.434 . S
C538 C529 1.429 1_565 S
C538 N535 1.350 . S
C538 C537 1.434 . S
C539 C540 1.369 1_565 S
C539 C541 1.419 . S
C539 H543 0.930 . S
C540 C539 1.369 1_545 S
C540 C549 1.429 . S
C541 C539 1.419 . S
C541 C542 1.363 1_565 S
C541 H544 0.929 . S
C542 C541 1.363 1_545 S
C542 C548 1.428 . S
H543 C539 0.930 . S
H544 C541 0.929 . S
S545 N546 1.613 . S
S545 N547 1.610 . S
N546 S545 1.613 . S
N546 C549 1.350 . S
N547 S545 1.610 . S
N547 C548 1.351 . S
C548 C542 1.428 . S
C548 N547 1.351 . S
C548 C549 1.434 . S
C549 C540 1.429 . S
C549 N546 1.350 . S
C549 C548 1.434 . S
C550 C551 1.369 . S
C550 C552 1.419 . S
C550 H554 0.930 . S
C551 C550 1.369 . S
C551 C560 1.429 . S
C552 C550 1.419 . S
C552 C553 1.363 . S
C552 H555 0.929 . S
C553 C552 1.363 . S
C553 C559 1.428 . S
H554 C550 0.930 . S
H555 C552 0.929 . S
S556 N557 1.613 . S
S556 N558 1.610 . S
N557 S556 1.613 . S
N557 C560 1.350 . S
N558 S556 1.610 . S
N558 C559 1.351 . S
C559 C553 1.428 . S
C559 N558 1.351 . S
C559 C560 1.434 . S
C560 C551 1.429 . S
C560 N557 1.350 . S
C560 C559 1.434 . S
C561 C562 1.369 . S
C561 C563 1.419 . S
C561 H565 0.930 . S
C562 C561 1.369 . S
C562 C571 1.429 . S
C563 C561 1.419 . S
C563 C564 1.363 . S
C563 H566 0.929 . S
C564 C563 1.363 . S
C564 C570 1.428 . S
H565 C561 0.930 . S
H566 C563 0.929 . S
S567 N568 1.613 . S
S567 N569 1.610 . S
N568 S567 1.613 . S
N568 C571 1.350 . S
N569 S567 1.610 . S
N569 C570 1.351 . S
C570 C564 1.428 . S
C570 N569 1.351 . S
C570 C571 1.434 . S
C571 C562 1.429 . S
C571 N568 1.350 . S
C571 C570 1.434 . S
C572 C573 1.369 . S
C572 C574 1.419 . S
C572 H576 0.930 . S
C573 C572 1.369 . S
C573 C582 1.429 1_544 S
C574 C572 1.419 . S
C574 C575 1.363 1_545 S
C574 H577 0.929 . S
C575 C574 1.363 1_565 S
C575 C581 1.428 1_554 S
H576 C572 0.930 . S
H577 C574 0.929 . S
S578 N579 1.613 . S
S578 N580 1.610 . S
N579 S578 1.613 . S
N579 C582 1.350 . S
N580 S578 1.610 . S
N580 C581 1.351 . S
C581 C575 1.428 1_556 S
C581 N580 1.351 . S
C581 C582 1.434 . S
C582 C573 1.429 1_566 S
C582 N579 1.350 . S
C582 C581 1.434 . S
C583 C584 1.369 . S
C583 C585 1.419 . S
C583 H587 0.930 . S
C584 C583 1.369 . S
C584 C593 1.429 . S
C585 C583 1.419 . S
C585 C586 1.363 . S
C585 H588 0.929 . S
C586 C585 1.363 . S
C586 C592 1.428 . S
H587 C583 0.930 . S
H588 C585 0.929 . S
S589 N590 1.613 . S
S589 N591 1.610 . S
N590 S589 1.613 . S
N590 C593 1.350 . S
N591 S589 1.610 . S
N591 C592 1.351 . S
C592 C586 1.428 . S
C592 N591 1.351 . S
C592 C593 1.434 . S
C593 C584 1.429 . S
C593 N590 1.350 . S
C593 C592 1.434 . S
C594 C595 1.369 . S
C594 C596 1.419 . S
C594 H598 0.930 . S
C595 C594 1.369 . S
C595 C604 1.429 . S
C596 C594 1.419 . S
C596 C597 1.363 . S
C596 H599 0.929 . S
C597 C596 1.363 . S
C597 C603 1.428 . S
H598 C594 0.930 . S
H599 C596 0.929 . S
S600 N601 1.613 . S
S600 N602 1.610 . S
N601 S600 1.613 . S
N601 C604 1.350 1_556 S
N602 S600 1.610 . S
N602 C603 1.351 1_556 S
C603 C597 1.428 . S
C603 N602 1.351 1_554 S
C603 C604 1.434 . S
C604 C595 1.429 . S
C604 N601 1.350 1_554 S
C604 C603 1.434 . S
C605 C606 1.369 . S
C605 C607 1.419 . S
C605 H609 0.930 . S
C606 C605 1.369 . S
C606 C615 1.429 . S
C607 C605 1.419 . S
C607 C608 1.363 . S
C607 H610 0.929 . S
C608 C607 1.363 . S
C608 C614 1.428 . S
H609 C605 0.930 . S
H610 C607 0.929 . S
S611 N612 1.613 . S
S611 N613 1.610 . S
N612 S611 1.613 . S
N612 C615 1.350 . S
N613 S611 1.610 . S
N613 C614 1.351 . S
C614 C608 1.428 . S
C614 N613 1.351 . S
C614 C615 1.434 . S
C615 C606 1.429 . S
C615 N612 1.350 . S
C615 C614 1.434 . S
C616 C617 1.369 . S
C616 C618 1.419 . S
C616 H620 0.930 1_556 S
C617 C616 1.369 . S
C617 C626 1.429 1_455 S
C618 C616 1.419 . S
C618 C619 1.363 . S
C618 H621 0.929 . S
C619 C618 1.363 . S
C619 C625 1.428 1_455 S
H620 C616 0.930 1_554 S
H621 C618 0.929 . S
S622 N623 1.613 . S
S622 N624 1.610 . S
N623 S622 1.613 . S
N623 C626 1.350 . S
N624 S622 1.610 . S
N624 C625 1.351 . S
C625 C619 1.428 1_655 S
C625 N624 1.351 . S
C625 C626 1.434 . S
C626 C617 1.429 1_655 S
C626 N623 1.350 . S
C626 C625 1.434 . S
C627 C628 1.369 . S
C627 C629 1.419 . S
C627 H631 0.930 . S
C628 C627 1.369 . S
C628 C637 1.429 . S
C629 C627 1.419 . S
C629 C630 1.363 . S
C629 H632 0.929 . S
C630 C629 1.363 . S
C630 C636 1.428 . S
H631 C627 0.930 . S
H632 C629 0.929 . S
S633 N634 1.613 . S
S633 N635 1.610 . S
N634 S633 1.613 . S
N634 C637 1.350 1_556 S
N635 S633 1.610 . S
N635 C636 1.351 1_556 S
C636 C630 1.428 . S
C636 N635 1.351 1_554 S
C636 C637 1.434 . S
C637 C628 1.429 . S
C637 N634 1.350 1_554 S
C637 C636 1.434 . S
C638 C639 1.369 . S
C638 C640 1.419 . S
C638 H642 0.930 . S
C639 C638 1.369 . S
C639 C648 1.429 . S
C640 C638 1.419 . S
C640 C641 1.363 . S
C640 H643 0.929 . S
C641 C640 1.363 . S
C641 C647 1.428 . S
H642 C638 0.930 . S
H643 C640 0.929 . S
S644 N645 1.609 1_655 S
S644 N646 1.610 1_655 S
N645 S644 1.609 1_455 S
N645 C648 1.357 . S
N646 S644 1.610 1_455 S
N646 C647 1.351 . S
C647 C641 1.428 . S
C647 N646 1.351 . S
C647 C648 1.434 . S
C648 C639 1.429 . S
C648 N645 1.357 . S
C648 C647 1.434 . S
C649 C650 1.369 . S
C649 C651 1.419 . S
C649 H653 0.930 . S
C650 C649 1.369 . S
C650 C659 1.429 . S
C651 C649 1.419 . S
C651 C652 1.363 . S
C651 H654 0.929 . S
C652 C651 1.363 . S
C652 C658 1.428 . S
H653 C649 0.930 . S
H654 C651 0.929 . S
S655 N656 1.613 . S
S655 N657 1.610 . S
N656 S655 1.613 . S
N656 C659 1.350 . S
N657 S655 1.610 . S
N657 C658 1.351 . S
C658 C652 1.428 . S
C658 N657 1.351 . S
C658 C659 1.434 . S
C659 C650 1.429 . S
C659 N656 1.350 . S
C659 C658 1.434 . S
C397 C1 1.545 . S
C399 C315 1.438 . S
C408 C40 1.513 . S
C410 C349 1.414 . S
C421 C361 1.403 . S
C419 C99 1.503 . S
C430 C118 1.504 . S
C432 C395 1.406 . S
C443 C352 1.431 . S
C441 C16 1.534 . S
C454 C332 1.413 . S
C452 C60 1.512 . S
C465 C379 1.412 . S
C463 C79 1.508 . S
C476 C370 1.398 . S
C474 C138 1.495 . S
C485 C21 1.530 . S
C487 C378 1.431 . S
C498 C340 1.417 . S
C496 C94 1.515 . S
C507 C133 1.500 . S
C509 C316 1.389 . S
C518 C55 1.517 . S
C520 C373 1.415 . S
C531 C331 1.685 . S
C529 C157 1.741 . S
C540 C196 1.739 . S
C542 C353 1.677 . S
C551 C255 1.749 . S
C553 C358 1.688 . S
C562 C289 1.760 . S
C564 C391 1.712 . S
C573 C172 1.763 1_545 S
C575 C336 1.712 . S
C586 C328 1.697 . S
C584 C216 1.774 . S
C597 C382 1.706 . S
C595 C235 1.775 . S
C608 C374 1.668 . S
C606 C294 1.712 . S
C617 C177 1.720 1_455 S
C619 C394 1.676 . S
C630 C337 1.711 . S
C628 C250 1.781 . S
C641 C319 1.659 . S
C639 C274 1.723 . S
C650 C211 1.741 . S
C652 C357 1.687 . S
