# Generated by pormake.
# Topology pts, (4,4)-cn, num edge types: 1
# Building blocks:
#     Node 0, Type 0, BuildingBlock: AZAVOO_clean_linker_0, # of connection points: 4
#     Node 1, Type 0, BuildingBlock: AZAVOO_clean_linker_0, # of connection points: 4
#     Node 2, Type 1, BuildingBlock: UXUYUI_clean_sbu_0, # of connection points: 4
#     Node 3, Type 1, BuildingBlock: UXUYUI_clean_sbu_0, # of connection points: 4
#     Edge 4, Type (0, 1), BuildingBlock: CIFDUS_clean_linker_0, # of connection points: 2
#     Edge 5, Type (0, 1), BuildingBlock: CIFDUS_clean_linker_0, # of connection points: 2
#     Edge 6, Type (0, 1), BuildingBlock: CIFDUS_clean_linker_0, # of connection points: 2
#     Edge 7, Type (0, 1), BuildingBlock: CIFDUS_clean_linker_0, # of connection points: 2
#     Edge 8, Type (0, 1), BuildingBlock: CIFDUS_clean_linker_0, # of connection points: 2
#     Edge 9, Type (0, 1), BuildingBlock: CIFDUS_clean_linker_0, # of connection points: 2
#     Edge 10, Type (0, 1), BuildingBlock: CIFDUS_clean_linker_0, # of connection points: 2
#     Edge 11, Type (0, 1), BuildingBlock: CIFDUS_clean_linker_0, # of connection points: 2
# Relax obj value: 0.124
# Max RMSD: 0.231
# Mean RMSD: 0.163
data_MOF--net-pts--node1-UXUYUI_clean_sbu_0--node2-AZAVOO_clean_linker_0--edge1-CIFDUS_clean_linker_0
_symmetry_space_group_name_H-M    P1
_symmetry_Int_Tables_number       1
_symmetry_cell_setting            triclinic
loop_
_symmetry_equiv_pos_as_xyz
'x, y, z'
_cell_length_a     29.538295
_cell_length_b     29.541307
_cell_length_c     50.921321
_cell_angle_alpha  91.559344
_cell_angle_beta   91.602672
_cell_angle_gamma 90.047852
loop_
_atom_site_label
_atom_site_type_symbol
_atom_site_fract_x
_atom_site_fract_y
_atom_site_fract_z
_atom_type_partial_charge
H0 H 0.47731 0.10205 0.83201 0.0
H1 H 0.83289 0.00385 0.05885 0.0
H2 H 0.46246 0.12198 0.97007 0.0
H3 H 0.39122 0.12176 0.9443 0.0
H4 H 0.3674 0.98327 0.96505 0.0
H5 H 0.43972 0.98308 0.99017 0.0
H6 H 0.54877 0.12186 0.94002 0.0
H7 H 0.52429 0.1262 0.89385 0.0
H8 H 0.47601 0.98807 0.89538 0.0
H9 H 0.50131 0.98397 0.94141 0.0
H10 H 0.63537 0.12429 0.97055 0.0
H11 H 0.69453 0.13013 0.93814 0.0
H12 H 0.67504 0.98876 0.91629 0.0
H13 H 0.61485 0.98392 0.94819 0.0
H14 H 0.6441 0.11818 0.02974 0.0
H15 H 0.72095 0.11683 0.04896 0.0
H16 H 0.7325 0.97553 0.02564 0.0
H17 H 0.65536 0.97731 0.00673 0.0
H18 H 0.56877 0.11123 0.06369 0.0
H19 H 0.61631 0.10901 0.10389 0.0
H20 H 0.63559 0.96528 0.09104 0.0
H21 H 0.58834 0.9679 0.05095 0.0
H22 H 0.45348 0.10953 0.03121 0.0
H23 H 0.39088 0.10294 0.06123 0.0
H24 H 0.4351 0.96764 0.07977 0.0
H25 H 0.49585 0.97371 0.04849 0.0
O26 O 0.48773 0.09926 0.85008 0.0
O27 O 0.46283 0.0284 0.85206 0.0
O28 O 0.79501 0.07818 0.06252 0.0
O29 O 0.80292 0.00563 0.05076 0.0
C30 C 0.50429 0.0494 0.99116 0.0
C31 C 0.53896 0.05095 0.97252 0.0
C32 C 0.58476 0.05068 0.98098 0.0
C33 C 0.59605 0.04762 0.00789 0.0
C34 C 0.56155 0.04394 0.02644 0.0
C35 C 0.51552 0.04519 0.01818 0.0
C36 C 0.45642 0.0524 0.98173 0.0
C37 C 0.44135 0.09194 0.9696 0.0
C38 C 0.40089 0.09176 0.95486 0.0
C39 C 0.37437 0.05237 0.95259 0.0
C40 C 0.38741 0.01402 0.96664 0.0
C41 C 0.42846 0.01394 0.98103 0.0
C42 C 0.52698 0.05256 0.944 0.0
C43 C 0.53352 0.09238 0.93022 0.0
C44 C 0.51923 0.09485 0.9039 0.0
C45 C 0.49804 0.05753 0.89094 0.0
C46 C 0.49215 0.01745 0.90476 0.0
C47 C 0.50663 0.01498 0.93104 0.0
C48 C 0.62102 0.05372 0.96163 0.0
C49 C 0.644 0.09468 0.95871 0.0
C50 C 0.67789 0.09783 0.94029 0.0
C51 C 0.68961 0.05989 0.9246 0.0
C52 C 0.66642 0.01881 0.92772 0.0
C53 C 0.6323 0.01582 0.94604 0.0
C54 C 0.6443 0.04784 0.01691 0.0
C55 C 0.6635 0.08711 0.02859 0.0
C56 C 0.70732 0.0862 0.03962 0.0
C57 C 0.73279 0.04598 0.03896 0.0
C58 C 0.71378 0.007 0.02655 0.0
C59 C 0.66987 0.00796 0.01561 0.0
C60 C 0.57514 0.03973 0.05449 0.0
C61 C 0.58152 0.07896 0.07026 0.0
C62 C 0.6091 0.07772 0.09299 0.0
C63 C 0.63011 0.03708 0.10033 0.0
C64 C 0.61965 0.99699 0.08595 0.0
C65 C 0.59248 0.99836 0.06312 0.0
C66 C 0.47925 0.04213 0.03766 0.0
C67 C 0.44953 0.07847 0.04175 0.0
C68 C 0.41401 0.07474 0.05912 0.0
C69 C 0.40783 0.03473 0.07301 0.0
C70 C 0.43831 0.99869 0.06915 0.0
C71 C 0.47346 0.00228 0.05153 0.0
C72 C 0.4818 0.06065 0.8632 0.0
C73 C 0.77877 0.04444 0.05144 0.0
H74 H 0.98899 0.42774 0.33718 0.0
H75 H 0.09624 0.83377 0.53932 0.0
H76 H 0.97511 0.4456 0.47801 0.0
H77 H 0.97418 0.37343 0.45315 0.0
H78 H 0.11973 0.36524 0.46251 0.0
H79 H 0.1203 0.43747 0.4872 0.0
H80 H 0.97389 0.52246 0.43892 0.0
H81 H 0.96708 0.48738 0.39487 0.0
H82 H 0.11046 0.45769 0.39762 0.0
H83 H 0.11677 0.4932 0.44157 0.0
H84 H 0.97567 0.62257 0.46111 0.0
H85 H 0.97121 0.67619 0.42521 0.0
H86 H 0.11199 0.65102 0.40912 0.0
H87 H 0.11614 0.59769 0.4452 0.0
H88 H 0.98026 0.64099 0.52079 0.0
H89 H 0.98254 0.72087 0.53484 0.0
H90 H 0.12368 0.72718 0.51476 0.0
H91 H 0.12102 0.64705 0.50113 0.0
H92 H 0.98218 0.57159 0.55741 0.0
H93 H 0.98425 0.6207 0.59691 0.0
H94 H 0.12902 0.63557 0.59033 0.0
H95 H 0.12665 0.58564 0.55123 0.0
H96 H 0.97776 0.48734 0.54591 0.0
H97 H 0.97304 0.42871 0.57866 0.0
H98 H 0.11489 0.39825 0.56881 0.0
H99 H 0.11959 0.45878 0.53711 0.0
O100 O 0.99275 0.44301 0.35416 0.0
O101 O 0.06679 0.42947 0.35629 0.0
O102 O 0.02188 0.79699 0.54405 0.0
O103 O 0.09419 0.80236 0.53349 0.0
C104 C 0.04954 0.49541 0.49157 0.0
C105 C 0.04865 0.52691 0.47113 0.0
C106 C 0.04856 0.57368 0.47716 0.0
C107 C 0.04995 0.58904 0.50361 0.0
C108 C 0.05126 0.55753 0.52408 0.0
C109 C 0.05061 0.51063 0.51808 0.0
C110 C 0.04774 0.44652 0.48445 0.0
C111 C 0.00653 0.42724 0.47559 0.0
C112 C 0.00613 0.3864 0.46117 0.0
C113 C 0.04696 0.36416 0.45562 0.0
C114 C 0.08776 0.38152 0.46663 0.0
C115 C 0.08815 0.42259 0.48088 0.0
C116 C 0.0458 0.51037 0.44334 0.0
C117 C 0.00387 0.50899 0.42977 0.0
C118 C 6e-05 0.48867 0.4047 0.0
C119 C 0.03818 0.46945 0.39278 0.0
C120 C 0.08041 0.47204 0.40624 0.0
C121 C 0.08417 0.49243 0.43129 0.0
C122 C 0.04624 0.6065 0.45571 0.0
C123 C 0.0055 0.6288 0.44983 0.0
C124 C 0.00296 0.65907 0.42925 0.0
C125 C 0.04124 0.66769 0.41434 0.0
C126 C 0.08208 0.64532 0.42041 0.0
C127 C 0.08449 0.61483 0.44089 0.0
C128 C 0.0505 0.63835 0.51005 0.0
C129 C 0.01155 0.65979 0.51934 0.0
C130 C 0.01298 0.70537 0.52737 0.0
C131 C 0.05337 0.73039 0.52601 0.0
C132 C 0.09208 0.70891 0.51612 0.0
C133 C 0.09063 0.66324 0.50821 0.0
C134 C 0.0543 0.57486 0.55162 0.0
C135 C 0.01457 0.58375 0.56523 0.0
C136 C 0.01575 0.61235 0.58753 0.0
C137 C 0.0567 0.63254 0.59646 0.0
C138 C 0.09701 0.62033 0.58406 0.0
C139 C 0.09578 0.5917 0.56177 0.0
C140 C 0.04904 0.47738 0.53928 0.0
C141 C 0.00797 0.46856 0.55125 0.0
C142 C 0.00526 0.43463 0.56971 0.0
C143 C 0.0435 0.40836 0.57627 0.0
C144 C 0.0849 0.41807 0.56453 0.0
C145 C 0.08763 0.45241 0.54626 0.0
C146 C 0.03365 0.44618 0.36664 0.0
C147 C 0.05533 0.77856 0.53506 0.0
Li148 Li 0.04626 0.07671 0.26724 0.0
Li149 Li 0.04429 0.99698 0.26189 0.0
Li150 Li 0.08308 0.04207 0.22984 0.0
Li151 Li 0.99698 0.04242 0.23336 0.0
C152 C 0.13919 0.04837 0.27803 0.0
N153 N 0.22177 0.07535 0.30008 0.0
C154 C 0.1553 0.02946 0.30136 0.0
C155 C 0.16526 0.08082 0.26584 0.0
C156 C 0.19706 0.04363 0.31223 0.0
C157 C 0.20688 0.09404 0.27731 0.0
C158 C 0.98456 0.03317 0.29793 0.0
C159 C 0.93226 0.02993 0.33339 0.0
N160 N 0.96774 0.02658 0.35083 0.0
C161 C 0.02049 0.02982 0.31624 0.0
C162 C 0.94007 0.03334 0.30658 0.0
C163 C 0.0113 0.02648 0.34287 0.0
C164 C 0.00546 0.14442 0.29756 0.0
N165 N 0.04672 0.12603 0.29274 0.0
C166 C 0.08159 0.17489 0.32563 0.0
C167 C 0.08454 0.14079 0.30625 0.0
C168 C 0.03936 0.19412 0.33113 0.0
C169 C 0.00099 0.17878 0.31664 0.0
H170 H 0.97579 0.13185 0.28677 0.0
H171 H 0.117 0.12606 0.30237 0.0
C172 C 0.08957 0.92309 0.28416 0.0
N173 N 0.04799 0.94157 0.28002 0.0
C174 C 0.09475 0.88562 0.30007 0.0
C175 C 0.01393 0.886 0.30637 0.0
C176 C 0.01028 0.92318 0.29013 0.0
C177 C 0.05675 0.86724 0.312 0.0
H178 H 0.11888 0.93822 0.27561 0.0
H179 H 0.97755 0.93837 0.28631 0.0
C180 C 0.03337 0.13968 0.23244 0.0
N181 N 0.02015 0.23172 0.23958 0.0
C182 C 0.98951 0.1574 0.23245 0.0
C183 C 0.07052 0.1688 0.2358 0.0
C184 C 0.98353 0.20403 0.23614 0.0
C185 C 0.06312 0.21522 0.23947 0.0
C186 C 0.03028 0.94661 0.2202 0.0
C187 C 0.06633 0.91675 0.21647 0.0
C188 C 0.98643 0.92962 0.22248 0.0
C189 C 0.0579 0.87018 0.21521 0.0
C190 C 0.97941 0.88284 0.2211 0.0
N191 N 0.01499 0.85434 0.21755 0.0
C192 C 0.16427 0.0126 0.20695 0.0
C193 C 0.13373 0.08039 0.18996 0.0
C194 C 0.20113 0.01513 0.19045 0.0
N195 N 0.13159 0.04494 0.20634 0.0
C196 C 0.17024 0.08454 0.17336 0.0
C197 C 0.20453 0.05162 0.1735 0.0
H198 H 0.16199 0.98525 0.22054 0.0
H199 H 0.10729 0.10569 0.19 0.0
C200 C 0.90168 0.04013 0.22497 0.0
N201 N 0.9421 0.04659 0.21353 0.0
C202 C 0.86129 0.04407 0.21027 0.0
C203 C 0.90509 0.06096 0.17232 0.0
C204 C 0.94457 0.05671 0.18776 0.0
C205 C 0.86266 0.05477 0.18356 0.0
H206 H 0.90084 0.03208 0.24552 0.0
H207 H 0.97732 0.06156 0.17924 0.0
O208 O 0.09864 0.03427 0.26699 0.0
O209 O 0.99262 0.03674 0.27169 0.0
O210 O 0.03983 0.094 0.22948 0.0
O211 O 0.03796 0.9922 0.22238 0.0
H212 H 0.13573 0.00412 0.31102 0.0
H213 H 0.15337 0.09605 0.24792 0.0
H214 H 0.20986 0.02935 0.33031 0.0
H215 H 0.22729 0.11925 0.26813 0.0
H216 H 0.89798 0.02998 0.34033 0.0
H217 H 0.05509 0.02986 0.31004 0.0
H218 H 0.91181 0.03613 0.29275 0.0
H219 H 0.03882 0.02383 0.35721 0.0
H220 H 0.11209 0.18616 0.33617 0.0
H221 H 0.96771 0.1924 0.32045 0.0
H222 H 0.12828 0.87173 0.30334 0.0
H223 H 0.98371 0.87336 0.31526 0.0
H224 H 0.96036 0.13536 0.22998 0.0
H225 H 0.10467 0.15573 0.23575 0.0
H226 H 0.94978 0.21817 0.23636 0.0
H227 H 0.09155 0.23812 0.24226 0.0
H228 H 0.10048 0.92936 0.21482 0.0
H229 H 0.95823 0.95231 0.22561 0.0
H230 H 0.0855 0.84663 0.21245 0.0
H231 H 0.94569 0.86918 0.22297 0.0
H232 H 0.22717 0.98938 0.19134 0.0
H233 H 0.17151 0.11298 0.16042 0.0
H234 H 0.82936 0.03945 0.2198 0.0
H235 H 0.90782 0.06854 0.15174 0.0
Li236 Li 0.99968 0.04344 0.76154 0.0
Li237 Li 0.07975 0.03878 0.76757 0.0
Li238 Li 0.04651 0.08107 0.73143 0.0
Li239 Li 0.04175 0.99807 0.7308 0.0
C240 C 0.03993 0.10865 0.79526 0.0
N241 N 0.03584 0.13742 0.84723 0.0
C242 C 0.03227 0.07745 0.81482 0.0
C243 C 0.04552 0.15446 0.80214 0.0
C244 C 0.03032 0.09266 0.84098 0.0
C245 C 0.04333 0.16834 0.82852 0.0
C246 C 0.0558 0.94837 0.77498 0.0
C247 C 0.11965 0.89772 0.77247 0.0
N248 N 0.09733 0.8675 0.78711 0.0
C249 C 0.03349 0.9168 0.78997 0.0
C250 C 0.09924 0.93878 0.76613 0.0
C251 C 0.05507 0.87612 0.79591 0.0
C252 C 0.92247 0.00634 0.78337 0.0
N253 N 0.94403 0.04606 0.77925 0.0
C254 C 0.88912 0.08726 0.80372 0.0
C255 C 0.9277 0.08624 0.78853 0.0
C256 C 0.86698 0.04659 0.80905 0.0
C257 C 0.88349 0.00583 0.79823 0.0
H258 H 0.93624 0.97498 0.77561 0.0
H259 H 0.94521 0.11739 0.78465 0.0
C260 C 0.16243 0.06941 0.7897 0.0
N261 N 0.12841 0.03931 0.79295 0.0
C262 C 0.19807 0.07321 0.80824 0.0
C263 C 0.16317 0.01459 0.833 0.0
C264 C 0.12787 0.01251 0.81423 0.0
C265 C 0.19892 0.04542 0.83028 0.0
H266 H 0.16143 0.09101 0.77288 0.0
H267 H 0.09985 0.98975 0.81687 0.0
C268 C 0.9514 0.06022 0.718 0.0
N269 N 0.86583 0.09616 0.71042 0.0
C270 C 0.9158 0.03268 0.70845 0.0
C271 C 0.94346 0.10603 0.72373 0.0
C272 C 0.87279 0.05149 0.70474 0.0
C273 C 0.89998 0.12356 0.71975 0.0
C274 C 0.11865 0.04021 0.70707 0.0
C275 C 0.0947 0.03236 0.68332 0.0
C276 C 0.16428 0.05265 0.70686 0.0
C277 C 0.11693 0.03693 0.65969 0.0
C278 C 0.18531 0.05685 0.68281 0.0
N279 N 0.1614 0.04898 0.65992 0.0
C280 C 0.07447 0.16992 0.71988 0.0
C281 C 0.03631 0.12992 0.68487 0.0
C282 C 0.07878 0.20797 0.7044 0.0
N283 N 0.05338 0.13207 0.70992 0.0
C284 C 0.04018 0.16695 0.66864 0.0
C285 C 0.06136 0.20688 0.67838 0.0
H286 H 0.08758 0.17064 0.73994 0.0
H287 H 0.01953 0.09941 0.67749 0.0
C288 C -5e-05 0.9227 0.70635 0.0
N289 N 0.04075 0.94345 0.7101 0.0
C290 C 0.99632 0.88245 0.69147 0.0
C291 C 0.07717 0.88468 0.6854 0.0
C292 C 0.07918 0.92507 0.70031 0.0
C293 C 0.03523 0.86309 0.68062 0.0
H294 H 0.97027 0.93734 0.71512 0.0
H295 H 0.11141 0.9417 0.70407 0.0
O296 O 0.0421 0.09476 0.76946 0.0
O297 O 0.03471 0.9881 0.76886 0.0
O298 O 0.99351 0.04222 0.72245 0.0
O299 O 0.09748 0.03663 0.73046 0.0
H300 H 0.0277 0.04188 0.80994 0.0
H301 H 0.05145 0.17904 0.78722 0.0
H302 H 0.02438 0.06889 0.8563 0.0
H303 H 0.04759 0.20371 0.83412 0.0
H304 H 0.15325 0.88988 0.76576 0.0
H305 H 0.99984 0.92369 0.79695 0.0
H306 H 0.11717 0.96276 0.75458 0.0
H307 H 0.03819 0.85139 0.80751 0.0
H308 H 0.87704 0.1194 0.81148 0.0
H309 H 0.86747 0.97377 0.80205 0.0
H310 H 0.22419 0.09823 0.80551 0.0
H311 H 0.1624 0.99205 0.84939 0.0
H312 H 0.92121 0.99717 0.70396 0.0
H313 H 0.97036 0.1277 0.73163 0.0
H314 H 0.84491 0.03056 0.69737 0.0
H315 H 0.89333 0.1589 0.72422 0.0
H316 H 0.05926 0.02307 0.68313 0.0
H317 H 0.18321 0.05902 0.7251 0.0
H318 H 0.0988 0.031 0.64116 0.0
H319 H 0.22063 0.06643 0.68234 0.0
H320 H 0.09485 0.23811 0.71288 0.0
H321 H 0.02694 0.16413 0.64863 0.0
H322 H 0.96348 0.86643 0.68866 0.0
H323 H 0.10795 0.87095 0.67732 0.0
H324 H 0.37322 0.09955 0.10603 0.0
H325 H 0.35539 0.95987 0.08056 0.0
H326 H 0.29233 0.9524 0.11001 0.0
H327 H 0.24083 0.98593 0.14226 0.0
H328 H 0.25618 0.12645 0.16603 0.0
H329 H 0.32087 0.13348 0.13748 0.0
C330 C 0.35529 0.06758 0.10665 0.0
C331 C 0.36935 0.03033 0.09108 0.0
C332 C 0.31836 0.06372 0.12322 0.0
C333 C 0.34602 0.98895 0.09261 0.0
C334 C 0.30964 0.9847 0.10931 0.0
C335 C 0.25857 0.01798 0.14128 0.0
C336 C 0.24383 0.0556 0.15621 0.0
C337 C 0.29546 0.02186 0.12466 0.0
C338 C 0.26668 0.09712 0.15452 0.0
C339 C 0.30376 0.1011 0.1383 0.0
H340 H 0.10514 0.3809 0.61369 0.0
H341 H 0.97323 0.3486 0.57943 0.0
H342 H 0.96658 0.2851 0.60857 0.0
H343 H 0.99828 0.23799 0.64325 0.0
H344 H 0.13222 0.26662 0.67562 0.0
H345 H 0.13782 0.33226 0.64777 0.0
C346 C 0.07508 0.35978 0.61241 0.0
C347 C 0.03967 0.3699 0.59441 0.0
C348 C 0.07175 0.32261 0.62892 0.0
C349 C 0.0007 0.34237 0.59339 0.0
C350 C 0.99697 0.30572 0.60991 0.0
C351 C 0.02898 0.25818 0.64404 0.0
C352 C 0.06479 0.24712 0.66153 0.0
C353 C 0.03233 0.29542 0.62766 0.0
C354 C 0.10384 0.27451 0.66263 0.0
C355 C 0.10723 0.31194 0.64656 0.0
H356 H 0.70098 0.09489 0.10389 0.0
H357 H 0.64426 0.97871 0.14059 0.0
H358 H 0.71086 0.97468 0.17021 0.0
H359 H 0.78685 0.00195 0.18397 0.0
H360 H 0.84315 0.11816 0.14685 0.0
H361 H 0.77508 0.1242 0.11894 0.0
C362 C 0.70274 0.06932 0.11878 0.0
C363 C 0.66759 0.03745 0.12029 0.0
C364 C 0.74129 0.06683 0.13538 0.0
C365 C 0.6709 0.00367 0.13914 0.0
C366 C 0.70896 0.00133 0.15601 0.0
C367 C 0.78397 0.02901 0.17005 0.0
C368 C 0.82023 0.0594 0.16745 0.0
C369 C 0.74462 0.0324 0.15407 0.0
C370 C 0.81613 0.09384 0.149 0.0
C371 C 0.77708 0.09754 0.13314 0.0
H372 H 0.99815 0.70276 0.59859 0.0
H373 H 0.11625 0.64805 0.63804 0.0
H374 H 0.11982 0.71449 0.66785 0.0
H375 H 0.09038 0.78917 0.68182 0.0
H376 H 0.97239 0.84324 0.64188 0.0
H377 H 0.96726 0.77549 0.61344 0.0
C378 C 0.0241 0.70485 0.61408 0.0
C379 C 0.05666 0.67034 0.61625 0.0
C380 C 0.02605 0.7431 0.63098 0.0
C381 C 0.09084 0.67423 0.63595 0.0
C382 C 0.09288 0.71217 0.65298 0.0
C383 C 0.06364 0.7861 0.66683 0.0
C384 C 0.03183 0.82119 0.66395 0.0
C385 C 0.06095 0.74706 0.65048 0.0
C386 C 0.997 0.81652 0.64468 0.0
C387 C 0.99416 0.7779 0.62833 0.0
H388 H 0.3781 0.06547 0.90072 0.0
H389 H 0.28587 0.03276 0.96149 0.0
H390 H 0.22288 0.02887 0.929 0.0
H391 H 0.19454 0.0357 0.88348 0.0
H392 H 0.28875 0.06226 0.82228 0.0
H393 H 0.35039 0.06871 0.85493 0.0
C394 C 0.34406 0.05778 0.90678 0.0
C395 C 0.33616 0.04994 0.93334 0.0
C396 C 0.30851 0.05477 0.888 0.0
C397 C 0.29237 0.03907 0.94108 0.0
C398 C 0.25653 0.0369 0.92254 0.0
C399 C 0.22859 0.04224 0.87713 0.0
C400 C 0.23665 0.04871 0.85032 0.0
C401 C 0.26425 0.04466 0.89593 0.0
C402 C 0.28109 0.05806 0.84274 0.0
C403 C 0.31656 0.06138 0.86139 0.0
H404 H 0.00462 0.36098 0.40789 0.0
H405 H 0.09235 0.28374 0.45883 0.0
H406 H 0.09772 0.22415 0.42467 0.0
H407 H 0.0782 0.19476 0.38013 0.0
H408 H 0.99107 0.27273 0.32919 0.0
H409 H 0.98423 0.33121 0.36374 0.0
C410 C 0.02424 0.33069 0.41168 0.0
C411 C 0.04767 0.32642 0.43591 0.0
C412 C 0.02741 0.29692 0.39194 0.0
C413 C 0.07399 0.28765 0.44031 0.0
C414 C 0.07706 0.25366 0.42081 0.0
C415 C 0.05794 0.2247 0.37656 0.0
C416 C 0.03525 0.22949 0.35214 0.0
C417 C 0.05419 0.25813 0.39649 0.0
C418 C 0.00854 0.2681 0.34791 0.0
C419 C 0.00473 0.30158 0.36761 0.0
H420 H 0.6917 0.02153 0.87529 0.0
H421 H 0.7701 0.10534 0.93053 0.0
H422 H 0.83044 0.11057 0.89907 0.0
H423 H 0.86225 0.08927 0.85654 0.0
H424 H 0.78595 0.00261 0.80203 0.0
H425 H 0.72378 0.99981 0.83276 0.0
C426 C 0.72215 0.04059 0.88057 0.0
C427 C 0.7262 0.06306 0.90527 0.0
C428 C 0.75716 0.04281 0.86256 0.0
C429 C 0.76565 0.08827 0.91154 0.0
C430 C 0.80037 0.09105 0.89362 0.0
C431 C 0.83175 0.07023 0.85129 0.0
C432 C 0.82848 0.04637 0.82706 0.0
C433 C 0.79655 0.06835 0.86914 0.0
C434 C 0.78922 0.02109 0.82066 0.0
C435 C 0.75371 0.01956 0.83818 0.0
H436 H 0.10128 0.73415 0.40429 0.0
H437 H 0.97519 0.67443 0.37606 0.0
H438 H 0.96976 0.7296 0.34117 0.0
H439 H 0.00033 0.79548 0.31917 0.0
H440 H 0.12488 0.85705 0.34885 0.0
H441 H 0.1321 0.7996 0.38209 0.0
C442 C 0.07288 0.73294 0.39031 0.0
C443 C 0.03868 0.70033 0.39274 0.0
C444 C 0.06984 0.76489 0.37044 0.0
C445 C 0.00171 0.69955 0.37474 0.0
C446 C 0.9987 0.73093 0.35474 0.0
C447 C 0.02894 0.79654 0.33298 0.0
C448 C 0.06202 0.83062 0.33136 0.0
C449 C 0.0324 0.76398 0.35252 0.0
C450 C 0.09926 0.83086 0.34923 0.0
C451 C 0.10325 0.79823 0.36846 0.0
loop_
_geom_bond_atom_site_label_1
_geom_bond_atom_site_label_2
_geom_bond_distance
_geom_bond_site_symmetry_2
_ccdc_geom_bond_type
H0 O26 0.856 . S
H1 O29 0.853 1_545 S
H2 C37 0.930 . S
H3 C38 0.930 . S
H4 C40 0.930 1_565 S
H5 C41 0.930 1_565 S
H6 C43 0.931 . S
H7 C44 0.930 . S
H8 C46 0.930 . S
H9 C47 0.929 . S
H10 C49 0.930 . S
H11 C50 0.931 . S
H12 C52 0.930 . S
H13 C53 0.929 . S
H14 C55 0.931 . S
H15 C56 0.930 . S
H16 C58 0.930 . S
H17 C59 0.911 1_566 S
H18 C61 0.930 . S
H19 C62 0.929 . S
H20 C64 0.931 . S
H21 C65 0.930 1_565 S
H22 C67 0.929 . S
H23 C68 0.931 . S
H24 C70 0.918 1_565 S
H25 C71 0.929 1_565 S
O26 H0 0.856 . S
O26 C72 1.300 . S
O27 C72 1.209 1_565 S
O28 C73 1.199 . S
O29 H1 0.853 1_565 S
O29 C73 1.291 1_565 S
C30 C31 1.404 . S
C30 C35 1.397 1_556 S
C30 C36 1.492 . S
C31 C30 1.404 . S
C31 C32 1.396 . S
C31 C42 1.492 . S
C32 C31 1.396 . S
C32 C33 1.397 . S
C32 C48 1.509 . S
C33 C32 1.397 . S
C33 C34 1.412 1_556 S
C33 C54 1.485 1_556 S
C34 C33 1.412 1_554 S
C34 C35 1.388 . S
C34 C60 1.490 . S
C35 C30 1.397 1_554 S
C35 C34 1.388 . S
C35 C66 1.519 . S
C36 C30 1.492 . S
C36 C37 1.363 . S
C36 C41 1.390 . S
C37 H2 0.930 . S
C37 C36 1.363 . S
C37 C38 1.372 . S
C38 H3 0.930 . S
C38 C37 1.372 . S
C38 C39 1.383 . S
C39 C38 1.383 . S
C39 C40 1.395 . S
C40 H4 0.930 1_545 S
C40 C39 1.395 . S
C40 C41 1.362 . S
C41 H5 0.930 1_545 S
C41 C36 1.390 . S
C41 C40 1.362 . S
C42 C31 1.492 . S
C42 C43 1.377 . S
C42 C47 1.397 1_545 S
C43 H6 0.931 . S
C43 C42 1.377 . S
C43 C44 1.376 . S
C44 H7 0.930 . S
C44 C43 1.376 . S
C44 C45 1.376 . S
C45 C44 1.376 . S
C45 C46 1.378 1_545 S
C45 C72 1.486 . S
C46 H8 0.930 . S
C46 C45 1.378 1_565 S
C46 C47 1.376 . S
C47 H9 0.929 . S
C47 C42 1.397 1_565 S
C47 C46 1.376 . S
C48 C32 1.509 . S
C48 C49 1.391 . S
C48 C53 1.386 1_545 S
C49 H10 0.930 . S
C49 C48 1.391 . S
C49 C50 1.375 . S
C50 H11 0.931 . S
C50 C49 1.375 . S
C50 C51 1.375 . S
C51 C50 1.375 . S
C51 C52 1.361 1_545 S
C52 H12 0.930 . S
C52 C51 1.361 1_565 S
C52 C53 1.399 . S
C53 H13 0.929 . S
C53 C48 1.386 1_565 S
C53 C52 1.399 . S
C54 C33 1.485 1_554 S
C54 C55 1.394 . S
C54 C59 1.373 . S
C55 H14 0.931 . S
C55 C54 1.394 . S
C55 C56 1.372 . S
C56 H15 0.930 . S
C56 C55 1.372 . S
C56 C57 1.397 . S
C57 C56 1.397 . S
C57 C58 1.390 1_545 S
C57 C73 1.476 . S
C58 H16 0.930 . S
C58 C57 1.390 1_565 S
C58 C59 1.373 1_565 S
C59 H17 0.911 1_544 S
C59 C54 1.373 . S
C59 C58 1.373 1_545 S
C60 C34 1.490 . S
C60 C61 1.380 . S
C60 C65 1.386 . S
C61 H18 0.930 . S
C61 C60 1.380 . S
C61 C62 1.381 . S
C62 H19 0.929 . S
C62 C61 1.381 . S
C62 C63 1.371 . S
C63 C62 1.371 . S
C63 C64 1.380 . S
C64 H20 0.931 . S
C64 C63 1.380 . S
C64 C65 1.387 . S
C65 H21 0.930 1_545 S
C65 C60 1.386 . S
C65 C64 1.387 . S
C66 C35 1.519 . S
C66 C67 1.377 . S
C66 C71 1.361 . S
C67 H22 0.929 . S
C67 C66 1.377 . S
C67 C68 1.386 . S
C68 H23 0.931 . S
C68 C67 1.386 . S
C68 C69 1.363 . S
C69 C68 1.363 . S
C69 C70 1.396 . S
C70 H24 0.918 1_545 S
C70 C69 1.396 . S
C70 C71 1.397 . S
C71 H25 0.929 1_545 S
C71 C66 1.361 . S
C71 C70 1.397 . S
C72 O26 1.300 . S
C72 O27 1.209 1_545 S
C72 C45 1.486 . S
C73 O28 1.199 . S
C73 O29 1.291 1_545 S
C73 C57 1.476 . S
H74 O100 0.856 . S
H75 O103 0.854 . S
H76 C111 0.930 1_655 S
H77 C112 0.930 . S
H78 C114 0.930 . S
H79 C115 0.930 . S
H80 C117 0.931 1_655 S
H81 C118 0.930 1_655 S
H82 C120 0.930 . S
H83 C121 0.929 . S
H84 C123 0.930 1_655 S
H85 C124 0.925 1_655 S
H86 C126 0.930 . S
H87 C127 0.929 . S
H88 C129 0.931 1_655 S
H89 C130 0.930 1_655 S
H90 C132 0.930 . S
H91 C133 0.932 . S
H92 C135 0.930 1_655 S
H93 C136 0.929 1_655 S
H94 C138 0.931 . S
H95 C139 0.930 . S
H96 C141 0.929 1_655 S
H97 C142 0.931 1_655 S
H98 C144 0.930 . S
H99 C145 0.929 . S
O100 H74 0.856 . S
O100 C146 1.300 . S
O101 C146 1.209 . S
O102 C147 1.199 . S
O103 H75 0.854 . S
O103 C147 1.297 . S
C104 C105 1.404 . S
C104 C109 1.397 . S
C104 C110 1.492 . S
C105 C104 1.404 . S
C105 C106 1.396 . S
C105 C116 1.492 . S
C106 C105 1.396 . S
C106 C107 1.397 . S
C106 C122 1.509 . S
C107 C106 1.397 . S
C107 C108 1.412 . S
C107 C128 1.485 . S
C108 C107 1.412 . S
C108 C109 1.388 . S
C108 C134 1.490 . S
C109 C104 1.397 . S
C109 C108 1.388 . S
C109 C140 1.519 . S
C110 C104 1.492 . S
C110 C111 1.363 . S
C110 C115 1.390 . S
C111 H76 0.930 1_455 S
C111 C110 1.363 . S
C111 C112 1.372 1_455 S
C112 H77 0.930 . S
C112 C111 1.372 1_655 S
C112 C113 1.383 1_655 S
C113 C112 1.383 1_455 S
C113 C114 1.395 . S
C114 H78 0.930 . S
C114 C113 1.395 . S
C114 C115 1.362 . S
C115 H79 0.930 . S
C115 C110 1.390 . S
C115 C114 1.362 . S
C116 C105 1.492 . S
C116 C117 1.377 . S
C116 C121 1.397 . S
C117 H80 0.931 1_455 S
C117 C116 1.377 . S
C117 C118 1.376 . S
C118 H81 0.930 1_455 S
C118 C117 1.376 . S
C118 C119 1.376 . S
C119 C118 1.376 . S
C119 C120 1.378 . S
C119 C146 1.486 . S
C120 H82 0.930 . S
C120 C119 1.378 . S
C120 C121 1.376 . S
C121 H83 0.929 . S
C121 C116 1.397 . S
C121 C120 1.376 . S
C122 C106 1.509 . S
C122 C123 1.391 . S
C122 C127 1.386 . S
C123 H84 0.930 1_455 S
C123 C122 1.391 . S
C123 C124 1.375 . S
C124 H85 0.925 1_455 S
C124 C123 1.375 . S
C124 C125 1.375 . S
C125 C124 1.375 . S
C125 C126 1.361 . S
C126 H86 0.930 . S
C126 C125 1.361 . S
C126 C127 1.399 . S
C127 H87 0.929 . S
C127 C122 1.386 . S
C127 C126 1.399 . S
C128 C107 1.485 . S
C128 C129 1.394 . S
C128 C133 1.360 . S
C129 H88 0.931 1_455 S
C129 C128 1.394 . S
C129 C130 1.372 . S
C130 H89 0.930 1_455 S
C130 C129 1.372 . S
C130 C131 1.397 . S
C131 C130 1.397 . S
C131 C132 1.390 . S
C131 C147 1.476 . S
C132 H90 0.930 . S
C132 C131 1.390 . S
C132 C133 1.366 . S
C133 H91 0.932 . S
C133 C128 1.360 . S
C133 C132 1.366 . S
C134 C108 1.490 . S
C134 C135 1.380 . S
C134 C139 1.386 . S
C135 H92 0.930 1_455 S
C135 C134 1.380 . S
C135 C136 1.381 . S
C136 H93 0.929 1_455 S
C136 C135 1.381 . S
C136 C137 1.371 . S
C137 C136 1.371 . S
C137 C138 1.380 . S
C138 H94 0.931 . S
C138 C137 1.380 . S
C138 C139 1.387 . S
C139 H95 0.930 . S
C139 C134 1.386 . S
C139 C138 1.387 . S
C140 C109 1.519 . S
C140 C141 1.377 . S
C140 C145 1.361 . S
C141 H96 0.929 1_455 S
C141 C140 1.377 . S
C141 C142 1.386 . S
C142 H97 0.931 1_455 S
C142 C141 1.386 . S
C142 C143 1.363 . S
C143 C142 1.363 . S
C143 C144 1.385 . S
C144 H98 0.930 . S
C144 C143 1.385 . S
C144 C145 1.396 . S
C145 H99 0.929 . S
C145 C140 1.361 . S
C145 C144 1.396 . S
C146 O100 1.300 . S
C146 O101 1.209 . S
C146 C119 1.486 . S
C147 O102 1.199 . S
C147 O103 1.297 . S
C147 C131 1.476 . S
Li148 N165 1.990 . S
Li148 O208 1.956 . S
Li148 O209 1.970 1_455 S
Li148 O210 1.961 . S
Li149 N173 1.992 1_545 S
Li149 O208 1.969 . S
Li149 O209 1.955 1_455 S
Li149 O211 1.961 1_545 S
Li150 N195 1.990 . S
Li150 O208 1.961 . S
Li150 O210 1.956 . S
Li150 O211 1.970 1_545 S
Li151 N201 1.990 . S
Li151 O209 1.961 . S
Li151 O210 1.970 1_655 S
Li151 O211 1.956 1_645 S
C152 C154 1.348 . S
C152 C155 1.356 . S
C152 O208 1.325 . S
N153 C156 1.314 . S
N153 C157 1.279 . S
C154 C152 1.348 . S
C154 C156 1.353 . S
C154 H212 0.929 . S
C155 C152 1.356 . S
C155 C157 1.358 . S
C155 H213 0.930 . S
C156 N153 1.314 . S
C156 C154 1.353 . S
C156 H214 0.930 . S
C157 N153 1.279 . S
C157 C155 1.358 . S
C157 H215 0.930 . S
C158 C161 1.348 . S
C158 C162 1.356 . S
C158 O209 1.325 . S
C159 N160 1.279 . S
C159 C162 1.358 . S
C159 H216 0.930 1_545 S
N160 C159 1.279 . S
N160 C163 1.314 . S
C161 C158 1.348 . S
C161 C163 1.353 . S
C161 H217 0.929 . S
C162 C158 1.356 . S
C162 C159 1.358 . S
C162 H218 0.930 1_545 S
C163 N160 1.314 . S
C163 C161 1.353 . S
C163 H219 0.930 . S
C164 N165 1.314 . S
C164 C169 1.353 . S
C164 H170 0.930 1_455 S
N165 Li148 1.990 . S
N165 C164 1.314 . S
N165 C167 1.279 . S
C166 C167 1.358 . S
C166 C168 1.356 . S
C166 H220 0.930 . S
C167 N165 1.279 . S
C167 C166 1.358 . S
C167 H171 0.930 . S
C168 C166 1.356 . S
C168 C169 1.348 . S
C169 C164 1.353 . S
C169 C168 1.348 . S
C169 H221 0.929 1_455 S
H170 C164 0.930 1_655 S
H171 C167 0.930 . S
C172 N173 1.314 . S
C172 C174 1.353 . S
C172 H178 0.930 . S
N173 Li149 1.992 1_565 S
N173 C172 1.314 . S
N173 C176 1.279 1_455 S
C174 C172 1.353 . S
C174 C177 1.348 . S
C174 H222 0.929 . S
C175 C176 1.358 . S
C175 C177 1.356 1_655 S
C175 H223 0.930 . S
C176 N173 1.279 1_655 S
C176 C175 1.358 . S
C176 H179 0.930 . S
C177 C174 1.348 . S
C177 C175 1.356 1_455 S
H178 C172 0.930 . S
H179 C176 0.930 . S
C180 C182 1.348 1_455 S
C180 C183 1.356 . S
C180 O210 1.325 . S
N181 C184 1.326 . S
N181 C185 1.279 . S
C182 C180 1.348 1_655 S
C182 C184 1.352 1_655 S
C182 H224 0.929 . S
C183 C180 1.356 . S
C183 C185 1.358 . S
C183 H225 0.930 . S
C184 N181 1.326 . S
C184 C182 1.352 1_455 S
C184 H226 0.918 1_455 S
C185 N181 1.279 . S
C185 C183 1.358 . S
C185 H227 0.930 . S
C186 C187 1.348 . S
C186 C188 1.356 1_455 S
C186 O211 1.325 . S
C187 C186 1.348 . S
C187 C189 1.353 . S
C187 H228 0.929 . S
C188 C186 1.356 1_655 S
C188 C190 1.358 . S
C188 H229 0.930 . S
C189 C187 1.353 . S
C189 N191 1.314 . S
C189 H230 0.930 . S
C190 C188 1.358 . S
C190 N191 1.279 1_655 S
C190 H231 0.930 . S
N191 C189 1.314 . S
N191 C190 1.279 1_455 S
C192 C194 1.353 . S
C192 N195 1.314 . S
C192 H198 0.930 . S
C193 N195 1.279 . S
C193 C196 1.358 . S
C193 H199 0.930 . S
C194 C192 1.353 . S
C194 C197 1.348 . S
C194 H232 0.929 . S
N195 Li150 1.990 . S
N195 C192 1.314 . S
N195 C193 1.279 . S
C196 C193 1.358 . S
C196 C197 1.356 . S
C196 H233 0.930 . S
C197 C194 1.348 . S
C197 C196 1.356 . S
H198 C192 0.930 . S
H199 C193 0.930 . S
C200 N201 1.314 . S
C200 C202 1.353 . S
C200 H206 0.930 . S
N201 Li151 1.990 . S
N201 C200 1.314 . S
N201 C204 1.279 . S
C202 C200 1.353 . S
C202 C205 1.348 . S
C202 H234 0.929 . S
C203 C204 1.358 . S
C203 C205 1.356 . S
C203 H235 0.930 1_545 S
C204 N201 1.279 . S
C204 C203 1.358 . S
C204 H207 0.930 1_545 S
C205 C202 1.348 . S
C205 C203 1.356 . S
H206 C200 0.930 . S
H207 C204 0.930 1_565 S
O208 Li148 1.956 . S
O208 Li149 1.969 . S
O208 Li150 1.961 . S
O208 C152 1.325 . S
O209 Li148 1.970 1_655 S
O209 Li149 1.955 1_655 S
O209 Li151 1.961 . S
O209 C158 1.325 . S
O210 Li148 1.961 . S
O210 Li150 1.956 . S
O210 Li151 1.970 1_455 S
O210 C180 1.325 . S
O211 Li149 1.961 1_565 S
O211 Li150 1.970 1_565 S
O211 Li151 1.956 1_465 S
O211 C186 1.325 . S
H212 C154 0.929 . S
H213 C155 0.930 . S
H214 C156 0.930 . S
H215 C157 0.930 . S
H216 C159 0.930 1_565 S
H217 C161 0.929 . S
H218 C162 0.930 1_565 S
H219 C163 0.930 . S
H220 C166 0.930 . S
H221 C169 0.929 1_655 S
H222 C174 0.929 . S
H223 C175 0.930 . S
H224 C182 0.929 . S
H225 C183 0.930 . S
H226 C184 0.918 1_655 S
H227 C185 0.930 . S
H228 C187 0.929 . S
H229 C188 0.930 . S
H230 C189 0.930 . S
H231 C190 0.930 . S
H232 C194 0.929 . S
H233 C196 0.930 . S
H234 C202 0.929 . S
H235 C203 0.930 1_565 S
Li236 N253 1.990 1_455 S
Li236 O296 1.956 . S
Li236 O297 1.970 1_545 S
Li236 O298 1.961 1_455 S
Li237 N261 1.990 . S
Li237 O296 1.970 . S
Li237 O297 1.956 1_545 S
Li237 O299 1.961 . S
Li238 N283 1.990 . S
Li238 O296 1.961 . S
Li238 O298 1.956 1_455 S
Li238 O299 1.970 . S
Li239 N289 1.990 . S
Li239 O297 1.961 . S
Li239 O298 1.970 1_465 S
Li239 O299 1.956 1_565 S
C240 C242 1.348 . S
C240 C243 1.356 . S
C240 O296 1.325 . S
N241 C244 1.314 . S
N241 C245 1.279 . S
C242 C240 1.348 . S
C242 C244 1.353 . S
C242 H300 0.929 . S
C243 C240 1.356 . S
C243 C245 1.358 . S
C243 H301 0.930 1_455 S
C244 N241 1.314 . S
C244 C242 1.353 . S
C244 H302 0.930 . S
C245 N241 1.279 . S
C245 C243 1.358 . S
C245 H303 0.930 1_455 S
C246 C249 1.348 . S
C246 C250 1.356 . S
C246 O297 1.325 . S
C247 N248 1.279 . S
C247 C250 1.358 . S
C247 H304 0.930 . S
N248 C247 1.279 . S
N248 C251 1.314 . S
C249 C246 1.348 . S
C249 C251 1.353 . S
C249 H305 0.929 . S
C250 C246 1.356 . S
C250 C247 1.358 . S
C250 H306 0.930 . S
C251 N248 1.314 . S
C251 C249 1.353 . S
C251 H307 0.930 . S
C252 N253 1.314 . S
C252 C257 1.353 . S
C252 H258 0.930 1_545 S
N253 Li236 1.990 1_655 S
N253 C252 1.314 . S
N253 C255 1.279 . S
C254 C255 1.358 . S
C254 C256 1.356 . S
C254 H308 0.930 . S
C255 N253 1.279 . S
C255 C254 1.358 . S
C255 H259 0.930 . S
C256 C254 1.356 . S
C256 C257 1.348 . S
C257 C252 1.353 . S
C257 C256 1.348 . S
C257 H309 0.929 1_545 S
H258 C252 0.930 1_565 S
H259 C255 0.930 . S
C260 N261 1.314 . S
C260 C262 1.353 . S
C260 H266 0.930 . S
N261 Li237 1.990 . S
N261 C260 1.314 . S
N261 C264 1.279 1_545 S
C262 C260 1.353 . S
C262 C265 1.348 . S
C262 H310 0.929 . S
C263 C264 1.358 . S
C263 C265 1.356 1_565 S
C263 H311 0.930 . S
C264 N261 1.279 1_565 S
C264 C263 1.358 . S
C264 H267 0.930 . S
C265 C262 1.348 . S
C265 C263 1.356 1_545 S
H266 C260 0.930 . S
H267 C264 0.930 . S
C268 C270 1.348 1_545 S
C268 C271 1.356 . S
C268 O298 1.325 . S
N269 C272 1.313 1_545 S
N269 C273 1.279 . S
C270 C268 1.348 1_565 S
C270 C272 1.353 . S
C270 H312 0.929 . S
C271 C268 1.356 . S
C271 C273 1.358 . S
C271 H313 0.930 . S
C272 N269 1.313 1_565 S
C272 C270 1.353 . S
C272 H314 0.931 . S
C273 N269 1.279 . S
C273 C271 1.358 . S
C273 H315 0.930 . S
C274 C275 1.348 . S
C274 C276 1.356 1_545 S
C274 O299 1.325 . S
C275 C274 1.348 . S
C275 C277 1.353 . S
C275 H316 0.929 . S
C276 C274 1.356 1_565 S
C276 C278 1.358 . S
C276 H317 0.930 . S
C277 C275 1.353 . S
C277 N279 1.314 . S
C277 H318 0.930 . S
C278 C276 1.358 . S
C278 N279 1.279 1_565 S
C278 H319 0.930 . S
N279 C277 1.314 . S
N279 C278 1.279 1_545 S
C280 C282 1.353 . S
C280 N283 1.314 . S
C280 H286 0.930 . S
C281 N283 1.279 . S
C281 C284 1.358 . S
C281 H287 0.930 1_455 S
C282 C280 1.353 . S
C282 C285 1.348 . S
C282 H320 0.929 . S
N283 Li238 1.990 . S
N283 C280 1.314 . S
N283 C281 1.279 . S
C284 C281 1.358 . S
C284 C285 1.356 . S
C284 H321 0.930 1_455 S
C285 C282 1.348 . S
C285 C284 1.356 . S
H286 C280 0.930 . S
H287 C281 0.930 1_655 S
C288 N289 1.314 . S
C288 C290 1.353 . S
C288 H294 0.930 . S
N289 Li239 1.990 . S
N289 C288 1.314 . S
N289 C292 1.279 . S
C290 C288 1.353 . S
C290 C293 1.348 . S
C290 H322 0.929 . S
C291 C292 1.358 . S
C291 C293 1.356 . S
C291 H323 0.930 . S
C292 N289 1.279 . S
C292 C291 1.358 . S
C292 H295 0.930 . S
C293 C290 1.348 . S
C293 C291 1.356 . S
H294 C288 0.930 . S
H295 C292 0.930 . S
O296 Li236 1.956 . S
O296 Li237 1.970 . S
O296 Li238 1.961 . S
O296 C240 1.325 . S
O297 Li236 1.970 1_565 S
O297 Li237 1.956 1_565 S
O297 Li239 1.961 . S
O297 C246 1.325 . S
O298 Li236 1.961 1_655 S
O298 Li238 1.956 1_655 S
O298 Li239 1.970 1_645 S
O298 C268 1.325 . S
O299 Li237 1.961 . S
O299 Li238 1.970 . S
O299 Li239 1.956 1_545 S
O299 C274 1.325 . S
H300 C242 0.929 . S
H301 C243 0.930 1_655 S
H302 C244 0.930 . S
H303 C245 0.930 1_655 S
H304 C247 0.930 . S
H305 C249 0.929 . S
H306 C250 0.930 . S
H307 C251 0.930 . S
H308 C254 0.930 . S
H309 C257 0.929 1_565 S
H310 C262 0.929 . S
H311 C263 0.930 . S
H312 C270 0.929 . S
H313 C271 0.930 . S
H314 C272 0.931 . S
H315 C273 0.930 . S
H316 C275 0.929 . S
H317 C276 0.930 . S
H318 C277 0.930 . S
H319 C278 0.930 . S
H320 C282 0.929 . S
H321 C284 0.930 1_655 S
H322 C290 0.929 . S
H323 C291 0.930 . S
H324 C330 0.930 . S
H325 C333 0.930 . S
H326 C334 0.930 . S
H327 C335 0.930 1_565 S
H328 C338 0.930 . S
H329 C339 0.930 . S
C330 H324 0.930 . S
C330 C331 1.355 . S
C330 C332 1.415 . S
C331 C330 1.355 . S
C331 C333 1.419 1_545 S
C332 C330 1.415 . S
C332 C337 1.425 . S
C332 C339 1.409 . S
C333 H325 0.930 . S
C333 C331 1.419 1_565 S
C333 C334 1.362 . S
C334 H326 0.930 . S
C334 C333 1.362 . S
C334 C337 1.409 1_565 S
C335 H327 0.930 1_545 S
C335 C336 1.355 . S
C335 C337 1.415 . S
C336 C335 1.355 . S
C336 C338 1.419 . S
C337 C332 1.425 . S
C337 C334 1.409 1_545 S
C337 C335 1.415 . S
C338 H328 0.930 . S
C338 C336 1.419 . S
C338 C339 1.362 . S
C339 H329 0.930 . S
C339 C332 1.409 . S
C339 C338 1.362 . S
H340 C346 0.930 . S
H341 C349 0.930 1_655 S
H342 C350 0.930 1_655 S
H343 C351 0.930 1_655 S
H344 C354 0.930 . S
H345 C355 0.930 . S
C346 H340 0.930 . S
C346 C347 1.355 . S
C346 C348 1.415 . S
C347 C346 1.355 . S
C347 C349 1.419 . S
C348 C346 1.415 . S
C348 C353 1.425 . S
C348 C355 1.409 . S
C349 H341 0.930 1_455 S
C349 C347 1.419 . S
C349 C350 1.362 . S
C350 H342 0.930 1_455 S
C350 C349 1.362 . S
C350 C353 1.409 . S
C351 H343 0.930 1_455 S
C351 C352 1.355 . S
C351 C353 1.415 . S
C352 C351 1.355 . S
C352 C354 1.419 . S
C353 C348 1.425 . S
C353 C350 1.409 . S
C353 C351 1.415 . S
C354 H344 0.930 . S
C354 C352 1.419 . S
C354 C355 1.362 . S
C355 H345 0.930 . S
C355 C348 1.409 . S
C355 C354 1.362 . S
H356 C362 0.930 . S
H357 C365 0.930 . S
H358 C366 0.930 . S
H359 C367 0.930 . S
H360 C370 0.930 . S
H361 C371 0.930 . S
C362 H356 0.930 . S
C362 C363 1.355 . S
C362 C364 1.415 . S
C363 C362 1.355 . S
C363 C365 1.419 . S
C364 C362 1.415 . S
C364 C369 1.425 . S
C364 C371 1.409 . S
C365 H357 0.930 . S
C365 C363 1.419 . S
C365 C366 1.362 . S
C366 H358 0.930 . S
C366 C365 1.362 . S
C366 C369 1.409 . S
C367 H359 0.930 . S
C367 C368 1.355 . S
C367 C369 1.415 . S
C368 C367 1.355 . S
C368 C370 1.419 . S
C369 C364 1.425 . S
C369 C366 1.409 . S
C369 C367 1.415 . S
C370 H360 0.930 . S
C370 C368 1.419 . S
C370 C371 1.362 . S
C371 H361 0.930 . S
C371 C364 1.409 . S
C371 C370 1.362 . S
H372 C378 0.930 1_655 S
H373 C381 0.930 . S
H374 C382 0.930 . S
H375 C383 0.930 . S
H376 C386 0.930 1_655 S
H377 C387 0.930 . S
C378 H372 0.930 1_455 S
C378 C379 1.355 . S
C378 C380 1.415 . S
C379 C378 1.355 . S
C379 C381 1.419 . S
C380 C378 1.415 . S
C380 C385 1.425 . S
C380 C387 1.409 1_455 S
C381 H373 0.930 . S
C381 C379 1.419 . S
C381 C382 1.362 . S
C382 H374 0.930 . S
C382 C381 1.362 . S
C382 C385 1.409 . S
C383 H375 0.930 . S
C383 C384 1.355 . S
C383 C385 1.415 . S
C384 C383 1.355 . S
C384 C386 1.419 . S
C385 C380 1.425 . S
C385 C382 1.409 . S
C385 C383 1.415 . S
C386 H376 0.930 1_455 S
C386 C384 1.419 . S
C386 C387 1.362 1_455 S
C387 H377 0.930 . S
C387 C380 1.409 1_655 S
C387 C386 1.362 1_655 S
H388 C394 0.930 . S
H389 C397 0.930 . S
H390 C398 0.930 1_565 S
H391 C399 0.930 1_565 S
H392 C402 0.930 . S
H393 C403 0.930 . S
C394 H388 0.930 . S
C394 C395 1.355 . S
C394 C396 1.415 . S
C395 C394 1.355 . S
C395 C397 1.419 . S
C396 C394 1.415 . S
C396 C401 1.425 . S
C396 C403 1.409 . S
C397 H389 0.930 . S
C397 C395 1.419 . S
C397 C398 1.362 . S
C398 H390 0.930 1_545 S
C398 C397 1.362 . S
C398 C401 1.409 . S
C399 H391 0.930 1_545 S
C399 C400 1.355 . S
C399 C401 1.415 . S
C400 C399 1.355 . S
C400 C402 1.419 . S
C401 C396 1.425 . S
C401 C398 1.409 . S
C401 C399 1.415 . S
C402 H392 0.930 . S
C402 C400 1.419 . S
C402 C403 1.362 . S
C403 H393 0.930 . S
C403 C396 1.409 . S
C403 C402 1.362 . S
H404 C410 0.930 . S
H405 C413 0.930 . S
H406 C414 0.930 . S
H407 C415 0.930 . S
H408 C418 0.930 . S
H409 C419 0.930 . S
C410 H404 0.930 . S
C410 C411 1.355 . S
C410 C412 1.415 . S
C411 C410 1.355 . S
C411 C413 1.419 . S
C412 C410 1.415 . S
C412 C417 1.425 . S
C412 C419 1.409 . S
C413 H405 0.930 . S
C413 C411 1.419 . S
C413 C414 1.362 . S
C414 H406 0.930 . S
C414 C413 1.362 . S
C414 C417 1.409 . S
C415 H407 0.930 . S
C415 C416 1.355 . S
C415 C417 1.415 . S
C416 C415 1.355 . S
C416 C418 1.419 . S
C417 C412 1.425 . S
C417 C414 1.409 . S
C417 C415 1.415 . S
C418 H408 0.930 . S
C418 C416 1.419 . S
C418 C419 1.362 . S
C419 H409 0.930 . S
C419 C412 1.409 . S
C419 C418 1.362 . S
H420 C426 0.930 . S
H421 C429 0.930 . S
H422 C430 0.930 . S
H423 C431 0.930 . S
H424 C434 0.930 . S
H425 C435 0.930 . S
C426 H420 0.930 . S
C426 C427 1.355 . S
C426 C428 1.415 . S
C427 C426 1.355 . S
C427 C429 1.419 . S
C428 C426 1.415 . S
C428 C433 1.425 . S
C428 C435 1.409 . S
C429 H421 0.930 . S
C429 C427 1.419 . S
C429 C430 1.362 . S
C430 H422 0.930 . S
C430 C429 1.362 . S
C430 C433 1.409 . S
C431 H423 0.930 . S
C431 C432 1.355 . S
C431 C433 1.415 . S
C432 C431 1.355 . S
C432 C434 1.419 . S
C433 C428 1.425 . S
C433 C430 1.409 . S
C433 C431 1.415 . S
C434 H424 0.930 . S
C434 C432 1.419 . S
C434 C435 1.362 . S
C435 H425 0.930 . S
C435 C428 1.409 . S
C435 C434 1.362 . S
H436 C442 0.930 . S
H437 C445 0.930 1_655 S
H438 C446 0.930 . S
H439 C447 0.930 1_655 S
H440 C450 0.930 . S
H441 C451 0.930 . S
C442 H436 0.930 . S
C442 C443 1.355 . S
C442 C444 1.415 . S
C443 C442 1.355 . S
C443 C445 1.419 . S
C444 C442 1.415 . S
C444 C449 1.425 . S
C444 C451 1.409 . S
C445 H437 0.930 1_455 S
C445 C443 1.419 . S
C445 C446 1.362 1_455 S
C446 H438 0.930 . S
C446 C445 1.362 1_655 S
C446 C449 1.409 1_655 S
C447 H439 0.930 1_455 S
C447 C448 1.355 . S
C447 C449 1.415 . S
C448 C447 1.355 . S
C448 C450 1.419 . S
C449 C444 1.425 . S
C449 C446 1.409 1_455 S
C449 C447 1.415 . S
C450 H440 0.930 . S
C450 C448 1.419 . S
C450 C451 1.362 . S
C451 H441 0.930 . S
C451 C444 1.409 . S
C451 C450 1.362 . S
C336 C197 2.184 . S
C331 C69 2.190 . S
C352 C285 2.201 . S
C347 C143 2.186 . S
C368 C205 1.551 . S
C363 C63 1.459 . S
C384 C293 1.530 . S
C379 C137 1.422 . S
C400 C265 1.503 . S
C395 C39 1.430 . S
C416 C168 1.480 . S
C411 C113 1.423 . S
C432 C256 0.763 . S
C427 C51 0.740 . S
C443 C125 0.752 . S
C448 C177 0.775 . S
