# Generated by pormake.
# Topology ptr, (4,4)-cn, num edge types: 1
# Building blocks:
#     Node 0, Type 0, BuildingBlock: AZAVOO_clean_sbu_0, # of connection points: 4
#     Node 1, Type 0, BuildingBlock: AZAVOO_clean_sbu_0, # of connection points: 4
#     Node 2, Type 0, BuildingBlock: AZAVOO_clean_sbu_0, # of connection points: 4
#     Node 3, Type 0, BuildingBlock: AZAVOO_clean_sbu_0, # of connection points: 4
#     Node 4, Type 0, BuildingBlock: AZAVOO_clean_sbu_0, # of connection points: 4
#     Node 5, Type 0, BuildingBlock: AZAVOO_clean_sbu_0, # of connection points: 4
#     Node 6, Type 0, BuildingBlock: AZAVOO_clean_sbu_0, # of connection points: 4
#     Node 7, Type 0, BuildingBlock: AZAVOO_clean_sbu_0, # of connection points: 4
#     Node 8, Type 0, BuildingBlock: AZAVOO_clean_sbu_0, # of connection points: 4
#     Node 9, Type 0, BuildingBlock: AZAVOO_clean_sbu_0, # of connection points: 4
#     Node 10, Type 0, BuildingBlock: AZAVOO_clean_sbu_0, # of connection points: 4
#     Node 11, Type 0, BuildingBlock: AZAVOO_clean_sbu_0, # of connection points: 4
#     Node 12, Type 0, BuildingBlock: AZAVOO_clean_sbu_0, # of connection points: 4
#     Node 13, Type 0, BuildingBlock: AZAVOO_clean_sbu_0, # of connection points: 4
#     Node 14, Type 0, BuildingBlock: AZAVOO_clean_sbu_0, # of connection points: 4
#     Node 15, Type 0, BuildingBlock: AZAVOO_clean_sbu_0, # of connection points: 4
#     Node 16, Type 0, BuildingBlock: AZAVOO_clean_sbu_0, # of connection points: 4
#     Node 17, Type 0, BuildingBlock: AZAVOO_clean_sbu_0, # of connection points: 4
#     Node 18, Type 1, BuildingBlock: MIFKUJ_clean_linker_1, # of connection points: 4
#     Node 19, Type 1, BuildingBlock: MIFKUJ_clean_linker_1, # of connection points: 4
#     Node 20, Type 1, BuildingBlock: MIFKUJ_clean_linker_1, # of connection points: 4
#     Node 21, Type 1, BuildingBlock: MIFKUJ_clean_linker_1, # of connection points: 4
#     Node 22, Type 1, BuildingBlock: MIFKUJ_clean_linker_1, # of connection points: 4
#     Node 23, Type 1, BuildingBlock: MIFKUJ_clean_linker_1, # of connection points: 4
#     Node 24, Type 1, BuildingBlock: MIFKUJ_clean_linker_1, # of connection points: 4
#     Node 25, Type 1, BuildingBlock: MIFKUJ_clean_linker_1, # of connection points: 4
#     Node 26, Type 1, BuildingBlock: MIFKUJ_clean_linker_1, # of connection points: 4
#     Node 27, Type 1, BuildingBlock: MIFKUJ_clean_linker_1, # of connection points: 4
#     Node 28, Type 1, BuildingBlock: MIFKUJ_clean_linker_1, # of connection points: 4
#     Node 29, Type 1, BuildingBlock: MIFKUJ_clean_linker_1, # of connection points: 4
#     Node 30, Type 1, BuildingBlock: MIFKUJ_clean_linker_1, # of connection points: 4
#     Node 31, Type 1, BuildingBlock: MIFKUJ_clean_linker_1, # of connection points: 4
#     Node 32, Type 1, BuildingBlock: MIFKUJ_clean_linker_1, # of connection points: 4
#     Node 33, Type 1, BuildingBlock: MIFKUJ_clean_linker_1, # of connection points: 4
#     Node 34, Type 1, BuildingBlock: MIFKUJ_clean_linker_1, # of connection points: 4
#     Node 35, Type 1, BuildingBlock: MIFKUJ_clean_linker_1, # of connection points: 4
#     Edge 36, Type (0, 1), BuildingBlock: TEMPAE_clean_linker_10, # of connection points: 2
#     Edge 37, Type (0, 1), BuildingBlock: TEMPAE_clean_linker_10, # of connection points: 2
#     Edge 38, Type (0, 1), BuildingBlock: TEMPAE_clean_linker_10, # of connection points: 2
#     Edge 39, Type (0, 1), BuildingBlock: TEMPAE_clean_linker_10, # of connection points: 2
#     Edge 40, Type (0, 1), BuildingBlock: TEMPAE_clean_linker_10, # of connection points: 2
#     Edge 41, Type (0, 1), BuildingBlock: TEMPAE_clean_linker_10, # of connection points: 2
#     Edge 42, Type (0, 1), BuildingBlock: TEMPAE_clean_linker_10, # of connection points: 2
#     Edge 43, Type (0, 1), BuildingBlock: TEMPAE_clean_linker_10, # of connection points: 2
#     Edge 44, Type (0, 1), BuildingBlock: TEMPAE_clean_linker_10, # of connection points: 2
#     Edge 45, Type (0, 1), BuildingBlock: TEMPAE_clean_linker_10, # of connection points: 2
#     Edge 46, Type (0, 1), BuildingBlock: TEMPAE_clean_linker_10, # of connection points: 2
#     Edge 47, Type (0, 1), BuildingBlock: TEMPAE_clean_linker_10, # of connection points: 2
#     Edge 48, Type (0, 1), BuildingBlock: TEMPAE_clean_linker_10, # of connection points: 2
#     Edge 49, Type (0, 1), BuildingBlock: TEMPAE_clean_linker_10, # of connection points: 2
#     Edge 50, Type (0, 1), BuildingBlock: TEMPAE_clean_linker_10, # of connection points: 2
#     Edge 51, Type (0, 1), BuildingBlock: TEMPAE_clean_linker_10, # of connection points: 2
#     Edge 52, Type (0, 1), BuildingBlock: TEMPAE_clean_linker_10, # of connection points: 2
#     Edge 53, Type (0, 1), BuildingBlock: TEMPAE_clean_linker_10, # of connection points: 2
#     Edge 54, Type (0, 1), BuildingBlock: TEMPAE_clean_linker_10, # of connection points: 2
#     Edge 55, Type (0, 1), BuildingBlock: TEMPAE_clean_linker_10, # of connection points: 2
#     Edge 56, Type (0, 1), BuildingBlock: TEMPAE_clean_linker_10, # of connection points: 2
#     Edge 57, Type (0, 1), BuildingBlock: TEMPAE_clean_linker_10, # of connection points: 2
#     Edge 58, Type (0, 1), BuildingBlock: TEMPAE_clean_linker_10, # of connection points: 2
#     Edge 59, Type (0, 1), BuildingBlock: TEMPAE_clean_linker_10, # of connection points: 2
#     Edge 60, Type (0, 1), BuildingBlock: TEMPAE_clean_linker_10, # of connection points: 2
#     Edge 61, Type (0, 1), BuildingBlock: TEMPAE_clean_linker_10, # of connection points: 2
#     Edge 62, Type (0, 1), BuildingBlock: TEMPAE_clean_linker_10, # of connection points: 2
#     Edge 63, Type (0, 1), BuildingBlock: TEMPAE_clean_linker_10, # of connection points: 2
#     Edge 64, Type (0, 1), BuildingBlock: TEMPAE_clean_linker_10, # of connection points: 2
#     Edge 65, Type (0, 1), BuildingBlock: TEMPAE_clean_linker_10, # of connection points: 2
#     Edge 66, Type (0, 1), BuildingBlock: TEMPAE_clean_linker_10, # of connection points: 2
#     Edge 67, Type (0, 1), BuildingBlock: TEMPAE_clean_linker_10, # of connection points: 2
#     Edge 68, Type (0, 1), BuildingBlock: TEMPAE_clean_linker_10, # of connection points: 2
#     Edge 69, Type (0, 1), BuildingBlock: TEMPAE_clean_linker_10, # of connection points: 2
#     Edge 70, Type (0, 1), BuildingBlock: TEMPAE_clean_linker_10, # of connection points: 2
#     Edge 71, Type (0, 1), BuildingBlock: TEMPAE_clean_linker_10, # of connection points: 2
#     Edge 72, Type (0, 1), BuildingBlock: TEMPAE_clean_linker_10, # of connection points: 2
#     Edge 73, Type (0, 1), BuildingBlock: TEMPAE_clean_linker_10, # of connection points: 2
#     Edge 74, Type (0, 1), BuildingBlock: TEMPAE_clean_linker_10, # of connection points: 2
#     Edge 75, Type (0, 1), BuildingBlock: TEMPAE_clean_linker_10, # of connection points: 2
#     Edge 76, Type (0, 1), BuildingBlock: TEMPAE_clean_linker_10, # of connection points: 2
#     Edge 77, Type (0, 1), BuildingBlock: TEMPAE_clean_linker_10, # of connection points: 2
#     Edge 78, Type (0, 1), BuildingBlock: TEMPAE_clean_linker_10, # of connection points: 2
#     Edge 79, Type (0, 1), BuildingBlock: TEMPAE_clean_linker_10, # of connection points: 2
#     Edge 80, Type (0, 1), BuildingBlock: TEMPAE_clean_linker_10, # of connection points: 2
#     Edge 81, Type (0, 1), BuildingBlock: TEMPAE_clean_linker_10, # of connection points: 2
#     Edge 82, Type (0, 1), BuildingBlock: TEMPAE_clean_linker_10, # of connection points: 2
#     Edge 83, Type (0, 1), BuildingBlock: TEMPAE_clean_linker_10, # of connection points: 2
#     Edge 84, Type (0, 1), BuildingBlock: TEMPAE_clean_linker_10, # of connection points: 2
#     Edge 85, Type (0, 1), BuildingBlock: TEMPAE_clean_linker_10, # of connection points: 2
#     Edge 86, Type (0, 1), BuildingBlock: TEMPAE_clean_linker_10, # of connection points: 2
#     Edge 87, Type (0, 1), BuildingBlock: TEMPAE_clean_linker_10, # of connection points: 2
#     Edge 88, Type (0, 1), BuildingBlock: TEMPAE_clean_linker_10, # of connection points: 2
#     Edge 89, Type (0, 1), BuildingBlock: TEMPAE_clean_linker_10, # of connection points: 2
#     Edge 90, Type (0, 1), BuildingBlock: TEMPAE_clean_linker_10, # of connection points: 2
#     Edge 91, Type (0, 1), BuildingBlock: TEMPAE_clean_linker_10, # of connection points: 2
#     Edge 92, Type (0, 1), BuildingBlock: TEMPAE_clean_linker_10, # of connection points: 2
#     Edge 93, Type (0, 1), BuildingBlock: TEMPAE_clean_linker_10, # of connection points: 2
#     Edge 94, Type (0, 1), BuildingBlock: TEMPAE_clean_linker_10, # of connection points: 2
#     Edge 95, Type (0, 1), BuildingBlock: TEMPAE_clean_linker_10, # of connection points: 2
#     Edge 96, Type (0, 1), BuildingBlock: TEMPAE_clean_linker_10, # of connection points: 2
#     Edge 97, Type (0, 1), BuildingBlock: TEMPAE_clean_linker_10, # of connection points: 2
#     Edge 98, Type (0, 1), BuildingBlock: TEMPAE_clean_linker_10, # of connection points: 2
#     Edge 99, Type (0, 1), BuildingBlock: TEMPAE_clean_linker_10, # of connection points: 2
#     Edge 100, Type (0, 1), BuildingBlock: TEMPAE_clean_linker_10, # of connection points: 2
#     Edge 101, Type (0, 1), BuildingBlock: TEMPAE_clean_linker_10, # of connection points: 2
#     Edge 102, Type (0, 1), BuildingBlock: TEMPAE_clean_linker_10, # of connection points: 2
#     Edge 103, Type (0, 1), BuildingBlock: TEMPAE_clean_linker_10, # of connection points: 2
#     Edge 104, Type (0, 1), BuildingBlock: TEMPAE_clean_linker_10, # of connection points: 2
#     Edge 105, Type (0, 1), BuildingBlock: TEMPAE_clean_linker_10, # of connection points: 2
#     Edge 106, Type (0, 1), BuildingBlock: TEMPAE_clean_linker_10, # of connection points: 2
#     Edge 107, Type (0, 1), BuildingBlock: TEMPAE_clean_linker_10, # of connection points: 2
# Relax obj value: 0.079
# Max RMSD: 0.278
# Mean RMSD: 0.120
data_MOF--net-ptr--node1-AZAVOO_clean_sbu_0--node2-MIFKUJ_clean_linker_1--edge1-TEMPAE_clean_linker_10
_symmetry_space_group_name_H-M    P1
_symmetry_Int_Tables_number       1
_symmetry_cell_setting            triclinic
loop_
_symmetry_equiv_pos_as_xyz
'x, y, z'
_cell_length_a     91.572279
_cell_length_b     90.029317
_cell_length_c     59.883394
_cell_angle_alpha  91.177923
_cell_angle_beta   90.958823
_cell_angle_gamma 120.03714
loop_
_atom_site_label
_atom_site_type_symbol
_atom_site_fract_x
_atom_site_fract_y
_atom_site_fract_z
_atom_type_partial_charge
Mg0 Mg 0.01231 0.33597 0.9934 0.0
O1 O 0.00106 0.34506 0.02117 0.0
O2 O 0.97984 0.34707 0.00521 0.0
Mg3 Mg 0.97827 0.34074 0.96778 0.0
C4 C 0.98908 0.34845 0.02225 0.0
C5 C 0.03959 0.32912 0.01343 0.0
O6 O 0.04513 0.33437 0.99338 0.0
O7 O 0.98948 0.30863 0.99175 0.0
O8 O 0.97029 0.3127 0.9738 0.0
O9 O 0.03049 0.36351 0.98645 0.0
O10 O 0.00515 0.34837 0.9703 0.0
C11 C 0.97489 0.30278 0.98244 0.0
C12 C 0.01873 0.36299 0.97358 0.0
O13 O 0.02592 0.32834 0.01918 0.0
Mg14 Mg 0.66597 0.65272 0.04442 0.0
O15 O 0.64383 0.64401 0.01893 0.0
O16 O 0.62108 0.6385 0.03822 0.0
Mg17 Mg 0.62836 0.64328 0.07547 0.0
C18 C 0.62814 0.6392 0.01975 0.0
C19 C 0.68642 0.65236 0.00385 0.0
O20 O 0.67673 0.63582 0.00665 0.0
O21 O 0.66794 0.67877 0.04989 0.0
O22 O 0.6456 0.67221 0.07063 0.0
O23 O 0.65983 0.6256 0.048 0.0
O24 O 0.649 0.63814 0.06859 0.0
C25 C 0.65898 0.68322 0.06121 0.0
C26 C 0.64939 0.62443 0.06308 0.0
O27 O 0.68479 0.66289 0.01653 0.0
Mg28 Mg 0.34298 0.98773 0.98018 0.0
O29 O 0.36432 0.00137 0.00679 0.0
O30 O 0.38782 0.01914 0.98932 0.0
Mg31 Mg 0.38164 0.01681 0.95187 0.0
C32 C 0.38004 0.0125 0.00715 0.0
C33 C 0.32428 0.97111 0.02411 0.0
O34 O 0.33671 0.96787 0.02625 0.0
O35 O 0.3413 0.01181 0.97578 0.0
O36 O 0.36438 0.02822 0.95668 0.0
O37 O 0.34935 0.96694 0.97565 0.0
O38 O 0.36037 0.99061 0.95637 0.0
C39 C 0.35069 0.02551 0.96551 0.0
C40 C 0.35987 0.97643 0.96086 0.0
O41 O 0.32357 0.97902 0.00719 0.0
Mg42 Mg 0.98914 0.66548 0.03236 0.0
O43 O 0.00127 0.65591 0.00655 0.0
O44 O 0.02071 0.6524 0.02504 0.0
Mg45 Mg 0.02088 0.65926 0.06207 0.0
C46 C 0.01264 0.65161 0.00705 0.0
C47 C 0.96615 0.67716 0.01103 0.0
O48 O 0.96278 0.67627 0.03237 0.0
O49 O 0.01241 0.69248 0.03502 0.0
O50 O 0.03034 0.68752 0.05478 0.0
O51 O 0.97049 0.63793 0.03839 0.0
O52 O 0.99459 0.65316 0.05748 0.0
C53 C 0.02664 0.69781 0.04521 0.0
C54 C 0.98127 0.63855 0.0532 0.0
O55 O 0.97711 0.67337 0.00467 0.0
Mg56 Mg 0.33583 0.3506 0.97491 0.0
O57 O 0.35915 0.35978 0.99843 0.0
O58 O 0.38112 0.3658 0.97717 0.0
Mg59 Mg 0.37213 0.36068 0.94056 0.0
C60 C 0.37483 0.36494 0.99629 0.0
C61 C 0.31837 0.35096 0.01882 0.0
O62 O 0.3286 0.36748 0.01658 0.0
O63 O 0.33408 0.32469 0.96842 0.0
O64 O 0.35567 0.33176 0.94596 0.0
O65 O 0.34146 0.37762 0.97186 0.0
O66 O 0.35134 0.3652 0.94936 0.0
C67 C 0.34282 0.32055 0.9561 0.0
C68 C 0.35103 0.37885 0.9555 0.0
O69 O 0.31857 0.34043 0.00452 0.0
Mg70 Mg 0.65879 0.01942 0.03803 0.0
O71 O 0.63741 0.00477 0.01192 0.0
O72 O 0.61387 0.98826 0.03022 0.0
Mg73 Mg 0.61982 0.99328 0.06794 0.0
C74 C 0.62167 0.99373 0.01203 0.0
C75 C 0.69053 0.02366 0.01304 0.0
O76 O 0.69192 0.01616 0.03089 0.0
O77 O 0.65923 0.99494 0.04572 0.0
O78 O 0.63692 0.98145 0.06743 0.0
O79 O 0.65325 0.04111 0.03944 0.0
O80 O 0.64138 0.01835 0.06047 0.0
C81 C 0.65011 0.98281 0.0586 0.0
C82 C 0.64225 0.03231 0.05413 0.0
O83 O 0.6783 0.0265 0.01117 0.0
Mg84 Mg 0.68033 0.6721 0.31486 0.0
O85 O 0.66826 0.68032 0.34259 0.0
O86 O 0.64788 0.6833 0.32575 0.0
Mg87 Mg 0.64793 0.67889 0.28805 0.0
C88 C 0.65628 0.68373 0.34325 0.0
C89 C 0.70682 0.67261 0.34959 0.0
O90 O 0.71445 0.68898 0.34506 0.0
O91 O 0.65705 0.64515 0.31096 0.0
O92 O 0.63889 0.65038 0.29233 0.0
O93 O 0.69936 0.69976 0.30988 0.0
O94 O 0.67459 0.68591 0.29211 0.0
C95 C 0.64285 0.63992 0.30082 0.0
C96 C 0.68839 0.70015 0.29637 0.0
O97 O 0.69243 0.66253 0.34044 0.0
Mg98 Mg 0.3238 0.98595 0.37816 0.0
O99 O 0.30143 0.97807 0.35358 0.0
O100 O 0.27903 0.97316 0.37323 0.0
Mg101 Mg 0.28718 0.97826 0.41029 0.0
C102 C 0.28586 0.97367 0.35462 0.0
C103 C 0.35591 0.00817 0.35073 0.0
O104 O 0.35984 0.01809 0.36882 0.0
O105 O 0.32711 0.01259 0.38359 0.0
O106 O 0.30516 0.00701 0.4047 0.0
O107 O 0.31592 0.95839 0.38177 0.0
O108 O 0.30751 0.97269 0.40344 0.0
C109 C 0.31863 0.01759 0.39501 0.0
C110 C 0.30665 0.95838 0.39787 0.0
O111 O 0.34172 0.99438 0.34929 0.0
Mg112 Mg 0.00254 0.31268 0.31079 0.0
O113 O 0.02561 0.3278 0.3341 0.0
O114 O 0.04841 0.34156 0.31345 0.0
Mg115 Mg 0.0396 0.33554 0.27651 0.0
C116 C 0.04148 0.3376 0.3324 0.0
C117 C 0.98674 0.30144 0.35759 0.0
O118 O 0.99842 0.29708 0.35926 0.0
O119 O 0.00259 0.33722 0.30246 0.0
O120 O 0.02421 0.34924 0.27932 0.0
O121 O 0.00746 0.29055 0.30969 0.0
O122 O 0.01734 0.3116 0.28591 0.0
C123 C 0.01177 0.34894 0.28911 0.0
C124 C 0.01671 0.29788 0.29275 0.0
O125 O 0.98549 0.3083 0.33988 0.0
Mg126 Mg 0.65188 0.98927 0.36837 0.0
O127 O 0.66599 0.98123 0.34364 0.0
O128 O 0.68443 0.97767 0.36456 0.0
Mg129 Mg 0.68207 0.98272 0.4016 0.0
C130 C 0.6776 0.97732 0.34561 0.0
C131 C 0.62651 0.99622 0.34494 0.0
O132 O 0.61996 0.98984 0.36421 0.0
O133 O 0.67488 0.01632 0.37319 0.0
O134 O 0.69099 0.01116 0.39661 0.0
O135 O 0.63257 0.96152 0.37249 0.0
O136 O 0.65605 0.97572 0.39307 0.0
C137 C 0.6879 0.02151 0.38607 0.0
C138 C 0.64275 0.96136 0.3876 0.0
O139 O 0.64078 0.99792 0.34044 0.0
Mg140 Mg 0.01301 0.6915 0.30861 0.0
O141 O 0.03471 0.69882 0.33423 0.0
O142 O 0.05778 0.70576 0.31482 0.0
Mg143 Mg 0.05127 0.70394 0.27731 0.0
C144 C 0.05042 0.70372 0.33339 0.0
C145 C 0.98457 0.68635 0.33923 0.0
O146 O 0.98747 0.69988 0.32798 0.0
O147 O 0.01179 0.66603 0.30008 0.0
O148 O 0.0338 0.67472 0.27779 0.0
O149 O 0.01879 0.71882 0.30801 0.0
O150 O 0.03022 0.70784 0.28582 0.0
C151 C 0.02067 0.66285 0.2867 0.0
C152 C 0.02937 0.72103 0.29262 0.0
O153 O 0.99341 0.67934 0.33542 0.0
Mg154 Mg 0.33348 0.35996 0.37402 0.0
O155 O 0.30976 0.34259 0.35256 0.0
O156 O 0.28831 0.3278 0.37501 0.0
Mg157 Mg 0.29894 0.33474 0.41104 0.0
C158 C 0.29424 0.33182 0.35552 0.0
C159 C 0.36454 0.37718 0.34566 0.0
O160 O 0.37003 0.3852 0.36521 0.0
O161 O 0.33689 0.33735 0.38192 0.0
O162 O 0.31574 0.32286 0.40501 0.0
O163 O 0.32568 0.37986 0.37557 0.0
O164 O 0.31919 0.35977 0.40044 0.0
C165 C 0.3286 0.32475 0.39455 0.0
C166 C 0.31781 0.37241 0.39339 0.0
O167 O 0.3492 0.36545 0.34333 0.0
Mg168 Mg 0.34832 0.01062 0.65271 0.0
O169 O 0.33396 0.01892 0.6767 0.0
O170 O 0.31599 0.0226 0.65492 0.0
Mg171 Mg 0.31884 0.01746 0.6181 0.0
C172 C 0.32246 0.02293 0.67414 0.0
C173 C 0.37212 0.01238 0.69211 0.0
O174 O 0.37889 0.02875 0.68791 0.0
O175 O 0.32515 0.98364 0.64751 0.0
O176 O 0.30957 0.98901 0.6234 0.0
O177 O 0.36789 0.03835 0.64846 0.0
O178 O 0.34465 0.02422 0.62749 0.0
C179 C 0.31234 0.97857 0.63426 0.0
C180 C 0.35796 0.03855 0.63301 0.0
O181 O 0.35875 0.00161 0.68128 0.0
Mg182 Mg 0.98943 0.3112 0.71181 0.0
O183 O 0.96703 0.30304 0.68721 0.0
O184 O 0.94426 0.29586 0.70739 0.0
Mg185 Mg 0.95179 0.29834 0.74464 0.0
C186 C 0.95129 0.29782 0.68857 0.0
C187 C 0.02355 0.3306 0.68912 0.0
O188 O 0.02811 0.33181 0.71031 0.0
O189 O 0.99026 0.33651 0.72027 0.0
O190 O 0.96873 0.32759 0.74347 0.0
O191 O 0.98435 0.28412 0.71262 0.0
O192 O 0.97301 0.29495 0.73528 0.0
C193 C 0.9815 0.33955 0.73406 0.0
C194 C 0.97396 0.28185 0.72833 0.0
O195 O 0.00791 0.32308 0.68385 0.0
Mg196 Mg 0.67163 0.64278 0.64662 0.0
O197 O 0.69347 0.65736 0.6724 0.0
O198 O 0.71657 0.67439 0.65365 0.0
Mg199 Mg 0.70957 0.67102 0.6164 0.0
C200 C 0.70918 0.66844 0.67193 0.0
C201 C 0.65348 0.6267 0.691 0.0
O202 O 0.66561 0.62297 0.69262 0.0
O203 O 0.66974 0.66663 0.64134 0.0
O204 O 0.69246 0.68259 0.62136 0.0
O205 O 0.67805 0.62194 0.64274 0.0
O206 O 0.68848 0.64502 0.62236 0.0
C207 C 0.67894 0.68009 0.63053 0.0
C208 C 0.68815 0.63101 0.62732 0.0
O209 O 0.65279 0.63477 0.67424 0.0
Mg210 Mg 0.3212 0.33017 0.69753 0.0
O211 O 0.33373 0.32193 0.67042 0.0
O212 O 0.35373 0.31877 0.68812 0.0
Mg213 Mg 0.35316 0.3233 0.72564 0.0
C214 C 0.34568 0.31843 0.67032 0.0
C215 C 0.29774 0.34223 0.6784 0.0
O216 O 0.29471 0.34099 0.69985 0.0
O217 O 0.34442 0.35724 0.70174 0.0
O218 O 0.36229 0.35173 0.72068 0.0
O219 O 0.30212 0.30257 0.70225 0.0
O220 O 0.32663 0.31644 0.72073 0.0
C221 C 0.35856 0.36229 0.71201 0.0
C222 C 0.3129 0.3022 0.71614 0.0
O223 O 0.30883 0.33889 0.67127 0.0
Mg224 Mg 0.68 0.01341 0.64644 0.0
O225 O 0.70181 0.02163 0.67236 0.0
O226 O 0.72459 0.02657 0.65353 0.0
Mg227 Mg 0.71766 0.02193 0.61616 0.0
C228 C 0.71742 0.02605 0.67184 0.0
C229 C 0.64626 0.99126 0.67054 0.0
O230 O 0.64274 0.98252 0.65145 0.0
O231 O 0.67735 0.98701 0.64133 0.0
O232 O 0.69967 0.99309 0.62076 0.0
O233 O 0.68676 0.04063 0.64252 0.0
O234 O 0.69727 0.02754 0.62237 0.0
C235 C 0.6861 0.98228 0.63002 0.0
C236 C 0.69707 0.04142 0.62745 0.0
O237 O 0.66087 0.00425 0.67392 0.0
Mg238 Mg 0.99231 0.68081 0.70477 0.0
O239 O 0.971 0.66824 0.67795 0.0
O240 O 0.94679 0.65313 0.69551 0.0
Mg241 Mg 0.95259 0.65597 0.73312 0.0
C242 C 0.95499 0.6585 0.67762 0.0
C243 C 0.02698 0.69659 0.68406 0.0
O244 O 0.03077 0.70244 0.70487 0.0
O245 O 0.99089 0.6554 0.71088 0.0
O246 O 0.96732 0.64155 0.73007 0.0
O247 O 0.98902 0.70373 0.70748 0.0
O248 O 0.97565 0.68077 0.72787 0.0
C249 C 0.98047 0.64246 0.72169 0.0
C250 C 0.97799 0.69557 0.72246 0.0
O251 O 0.0116 0.68686 0.67821 0.0
H252 H 0.13423 0.31104 0.18158 0.0
H253 H 0.11119 0.30839 0.20442 0.0
H254 H 0.09714 0.25602 0.21797 0.0
H255 H 0.12025 0.25874 0.19496 0.0
H256 H 0.15484 0.28471 0.20528 0.0
H257 H 0.15276 0.31942 0.12864 0.0
H258 H 0.13303 0.32442 0.10679 0.0
H259 H 0.09236 0.27423 0.12293 0.0
H260 H 0.11239 0.26903 0.14419 0.0
H261 H 0.17866 0.27836 0.11986 0.0
H262 H 0.20437 0.28678 0.0993 0.0
H263 H 0.23222 0.32996 0.14543 0.0
H264 H 0.20636 0.32171 0.16571 0.0
H265 H 0.16345 0.29745 0.12491 0.0
H266 H 0.19278 0.2772 0.17773 0.0
H267 H 0.21585 0.28294 0.20442 0.0
H268 H 0.20543 0.31792 0.24204 0.0
H269 H 0.1832 0.3128 0.21506 0.0
C270 C 0.12879 0.28502 0.18645 0.0
C271 C 0.12602 0.29891 0.18917 0.0
C272 C 0.11299 0.29743 0.20239 0.0
C273 C 0.10252 0.28205 0.21309 0.0
C274 C 0.10501 0.26799 0.20984 0.0
C275 C 0.11817 0.26953 0.19675 0.0
C276 C 0.14378 0.28728 0.17471 0.0
C277 C 0.15667 0.28722 0.18759 0.0
C278 C 0.14634 0.2914 0.15193 0.0
C279 C 0.13409 0.29387 0.13817 0.0
C280 C 0.13963 0.3094 0.12733 0.0
C281 C 0.12827 0.31233 0.11505 0.0
C282 C 0.11106 0.2998 0.11329 0.0
C283 C 0.10554 0.28412 0.12387 0.0
C284 C 0.11695 0.28118 0.13617 0.0
C285 C 0.1906 0.29928 0.14446 0.0
C286 C 0.19032 0.28957 0.12565 0.0
C287 C 0.20499 0.29439 0.11392 0.0
C288 C 0.22025 0.30902 0.1208 0.0
C289 C 0.22065 0.31852 0.13994 0.0
C290 C 0.2059 0.31379 0.15156 0.0
C291 C 0.1746 0.2948 0.15548 0.0
C292 C 0.16151 0.29449 0.14246 0.0
C293 C 0.17232 0.29165 0.17857 0.0
C294 C 0.18631 0.29464 0.19432 0.0
C295 C 0.19564 0.28624 0.19162 0.0
C296 C 0.20872 0.28943 0.20697 0.0
C297 C 0.21261 0.30102 0.22528 0.0
C298 C 0.20309 0.30922 0.22791 0.0
C299 C 0.19019 0.30613 0.21261 0.0
H300 H 0.72336 0.89652 0.213 0.0
H301 H 0.71976 0.917 0.23653 0.0
H302 H 0.66874 0.89566 0.21021 0.0
H303 H 0.67243 0.87522 0.18666 0.0
H304 H 0.70306 0.85972 0.21348 0.0
H305 H 0.71442 0.90643 0.16464 0.0
H306 H 0.70713 0.92507 0.14446 0.0
H307 H 0.67041 0.8813 0.10407 0.0
H308 H 0.67608 0.86258 0.12637 0.0
H309 H 0.6773 0.8252 0.12897 0.0
H310 H 0.67421 0.80036 0.1078 0.0
H311 H 0.7205 0.80779 0.13862 0.0
H312 H 0.72359 0.83286 0.15985 0.0
H313 H 0.69964 0.8577 0.13069 0.0
H314 H 0.6793 0.81161 0.18025 0.0
H315 H 0.67948 0.78828 0.20013 0.0
H316 H 0.72488 0.82495 0.23667 0.0
H317 H 0.72505 0.84835 0.21609 0.0
C318 C 0.6982 0.88443 0.19802 0.0
C319 C 0.71144 0.89632 0.21224 0.0
C320 C 0.70941 0.90808 0.22553 0.0
C321 C 0.69399 0.90796 0.22513 0.0
C322 C 0.68073 0.896 0.2109 0.0
C323 C 0.68284 0.88438 0.19741 0.0
C324 C 0.70033 0.8718 0.18427 0.0
C325 C 0.70253 0.85941 0.19535 0.0
C326 C 0.69903 0.87108 0.1606 0.0
C327 C 0.69553 0.88295 0.14756 0.0
C328 C 0.70446 0.90077 0.15189 0.0
C329 C 0.70052 0.91153 0.13985 0.0
C330 C 0.68804 0.9048 0.12254 0.0
C331 C 0.67971 0.88703 0.11764 0.0
C332 C 0.68318 0.87626 0.13021 0.0
C333 C 0.70062 0.83085 0.14612 0.0
C334 C 0.68695 0.82168 0.13094 0.0
C335 C 0.68522 0.80749 0.11878 0.0
C336 C 0.69713 0.80213 0.12149 0.0
C337 C 0.71105 0.81154 0.13633 0.0
C338 C 0.71283 0.82585 0.14845 0.0
C339 C 0.70156 0.84525 0.15985 0.0
C340 C 0.70022 0.8581 0.14882 0.0
C341 C 0.70261 0.84581 0.1835 0.0
C342 C 0.70241 0.83172 0.19625 0.0
C343 C 0.68947 0.81466 0.19226 0.0
C344 C 0.68954 0.80133 0.20366 0.0
C345 C 0.70229 0.80483 0.21974 0.0
C346 C 0.71493 0.82194 0.22432 0.0
C347 C 0.71502 0.83528 0.2126 0.0
H348 H 0.12101 0.86612 0.19393 0.0
H349 H 0.09836 0.84444 0.21616 0.0
H350 H 0.10616 0.80514 0.18585 0.0
H351 H 0.12914 0.82676 0.16451 0.0
H352 H 0.15277 0.87551 0.19661 0.0
H353 H 0.11044 0.84998 0.13705 0.0
H354 H 0.08875 0.82538 0.11477 0.0
H355 H 0.12663 0.81398 0.09181 0.0
H356 H 0.1481 0.83815 0.11441 0.0
H357 H 0.19117 0.87167 0.12682 0.0
H358 H 0.21829 0.88794 0.10916 0.0
H359 H 0.21945 0.93525 0.1273 0.0
H360 H 0.1923 0.91879 0.1454 0.0
H361 H 0.16172 0.87012 0.11614 0.0
H362 H 0.19998 0.88644 0.17947 0.0
H363 H 0.22159 0.90426 0.20785 0.0
H364 H 0.19285 0.92865 0.22564 0.0
H365 H 0.17144 0.91105 0.19681 0.0
C366 C 0.12659 0.84806 0.1772 0.0
C367 C 0.11772 0.85281 0.19192 0.0
C368 C 0.10482 0.84046 0.20457 0.0
C369 C 0.10047 0.82316 0.20249 0.0
C370 C 0.10907 0.81837 0.18741 0.0
C371 C 0.12215 0.83072 0.17512 0.0
C372 C 0.14152 0.86132 0.16566 0.0
C373 C 0.15451 0.87461 0.17885 0.0
C374 C 0.14401 0.8598 0.14259 0.0
C375 C 0.13093 0.84587 0.12765 0.0
C376 C 0.11408 0.8422 0.1272 0.0
C377 C 0.10171 0.82818 0.11443 0.0
C378 C 0.10601 0.81779 0.10153 0.0
C379 C 0.12297 0.82189 0.10132 0.0
C380 C 0.13526 0.83573 0.11428 0.0
C381 C 0.1897 0.89402 0.1373 0.0
C382 C 0.19727 0.88555 0.127 0.0
C383 C 0.21275 0.89486 0.11687 0.0
C384 C 0.22094 0.91287 0.11664 0.0
C385 C 0.21351 0.92139 0.12736 0.0
C386 C 0.19799 0.91203 0.13762 0.0
C387 C 0.173 0.88379 0.14729 0.0
C388 C 0.15968 0.87124 0.13374 0.0
C389 C 0.17034 0.88564 0.1701 0.0
C390 C 0.18419 0.89756 0.18583 0.0
C391 C 0.19851 0.8959 0.18912 0.0
C392 C 0.21076 0.90596 0.20552 0.0
C393 C 0.2089 0.91782 0.21905 0.0
C394 C 0.19475 0.91977 0.21534 0.0
C395 C 0.18247 0.90966 0.19895 0.0
H396 H 0.2755 0.15471 0.79952 0.0
H397 H 0.27561 0.17785 0.77833 0.0
H398 H 0.32235 0.21464 0.81214 0.0
H399 H 0.32257 0.19156 0.83258 0.0
H400 H 0.29676 0.14247 0.80175 0.0
H401 H 0.27885 0.17167 0.8554 0.0
H402 H 0.28235 0.19687 0.87674 0.0
H403 H 0.32937 0.20466 0.90549 0.0
H404 H 0.32585 0.17966 0.88423 0.0
H405 H 0.32803 0.14077 0.8841 0.0
H406 H 0.33292 0.12157 0.90711 0.0
H407 H 0.28751 0.07812 0.87883 0.0
H408 H 0.28259 0.0975 0.85577 0.0
H409 H 0.30335 0.14728 0.88439 0.0
H410 H 0.32723 0.12666 0.82957 0.0
H411 H 0.33037 0.10557 0.8068 0.0
H412 H 0.27942 0.08474 0.78047 0.0
H413 H 0.27633 0.1059 0.80334 0.0
C414 C 0.29881 0.17144 0.81803 0.0
C415 C 0.28581 0.16775 0.80226 0.0
C416 C 0.28587 0.18094 0.7902 0.0
C417 C 0.29887 0.19801 0.79387 0.0
C418 C 0.31202 0.20162 0.80932 0.0
C419 C 0.31211 0.18844 0.82105 0.0
C420 C 0.29863 0.15757 0.83125 0.0
C421 C 0.29785 0.14335 0.81986 0.0
C422 C 0.30058 0.15894 0.85486 0.0
C423 C 0.30213 0.17382 0.86813 0.0
C424 C 0.28989 0.17883 0.86631 0.0
C425 C 0.29191 0.1932 0.8785 0.0
C426 C 0.3061 0.2027 0.89288 0.0
C427 C 0.31815 0.19745 0.89489 0.0
C428 C 0.31618 0.18318 0.88267 0.0
C429 C 0.30499 0.12056 0.86815 0.0
C430 C 0.31907 0.12711 0.8829 0.0
C431 C 0.3218 0.11615 0.89614 0.0
C432 C 0.31051 0.09837 0.89491 0.0
C433 C 0.29645 0.09177 0.88003 0.0
C434 C 0.29367 0.1028 0.86681 0.0
C435 C 0.30203 0.13257 0.85489 0.0
C436 C 0.30197 0.14628 0.86629 0.0
C437 C 0.29993 0.13104 0.83135 0.0
C438 C 0.30151 0.11777 0.81823 0.0
C439 C 0.31668 0.11744 0.81906 0.0
C440 C 0.31849 0.10545 0.80598 0.0
C441 C 0.30513 0.0935 0.79189 0.0
C442 C 0.28985 0.09368 0.79136 0.0
C443 C 0.28812 0.10581 0.80428 0.0
H444 H 0.83391 0.09006 0.82494 0.0
H445 H 0.81144 0.07195 0.79751 0.0
H446 H 0.7818 0.09403 0.82071 0.0
H447 H 0.80438 0.11226 0.84781 0.0
H448 H 0.85121 0.12574 0.82559 0.0
H449 H 0.8169 0.08105 0.87866 0.0
H450 H 0.79173 0.06284 0.89991 0.0
H451 H 0.78925 0.10775 0.92085 0.0
H452 H 0.81449 0.12578 0.90014 0.0
H453 H 0.85715 0.16169 0.90934 0.0
H454 H 0.87834 0.1859 0.93214 0.0
H455 H 0.91739 0.17802 0.9049 0.0
H456 H 0.89599 0.1533 0.88245 0.0
H457 H 0.84561 0.12996 0.90731 0.0
H458 H 0.87448 0.1744 0.85744 0.0
H459 H 0.89658 0.19656 0.83552 0.0
H460 H 0.90539 0.1584 0.80374 0.0
H461 H 0.88357 0.1362 0.82634 0.0
C462 C 0.82077 0.10239 0.83855 0.0
C463 C 0.82246 0.09081 0.8243 0.0
C464 C 0.80959 0.08042 0.80873 0.0
C465 C 0.79486 0.08159 0.80694 0.0
C466 C 0.79304 0.09293 0.8216 0.0
C467 C 0.80587 0.10323 0.83723 0.0
C468 C 0.8351 0.11467 0.8534 0.0
C469 C 0.85021 0.12644 0.84357 0.0
C470 C 0.83343 0.1161 0.87662 0.0
C471 C 0.81759 0.10475 0.88799 0.0
C472 C 0.81082 0.08689 0.88772 0.0
C473 C 0.79643 0.07652 0.8998 0.0
C474 C 0.78862 0.08388 0.91229 0.0
C475 C 0.79519 0.10172 0.91186 0.0
C476 C 0.80956 0.11204 0.89995 0.0
C477 C 0.87491 0.15566 0.89398 0.0
C478 C 0.87022 0.16491 0.9085 0.0
C479 C 0.88235 0.17877 0.92158 0.0
C480 C 0.89951 0.18381 0.92034 0.0
C481 C 0.90425 0.17444 0.90608 0.0
C482 C 0.89204 0.16038 0.8932 0.0
C483 C 0.86179 0.14134 0.87955 0.0
C484 C 0.8469 0.12912 0.88942 0.0
C485 C 0.86339 0.14006 0.85617 0.0
C486 C 0.87758 0.15366 0.84391 0.0
C487 C 0.88147 0.17082 0.84626 0.0
C488 C 0.89405 0.18348 0.83366 0.0
C489 C 0.90273 0.17917 0.81806 0.0
C490 C 0.89886 0.16202 0.81566 0.0
C491 C 0.88643 0.14938 0.82855 0.0
H492 H 0.81903 0.68748 0.81105 0.0
H493 H 0.79481 0.68055 0.78687 0.0
H494 H 0.78563 0.71609 0.82533 0.0
H495 H 0.81071 0.72368 0.84903 0.0
H496 H 0.84723 0.71641 0.81667 0.0
H497 H 0.80087 0.67994 0.86294 0.0
H498 H 0.77547 0.67171 0.88416 0.0
H499 H 0.80303 0.71742 0.92634 0.0
H500 H 0.82834 0.72585 0.90472 0.0
H501 H 0.87893 0.73157 0.90688 0.0
H502 H 0.89904 0.7268 0.92865 0.0
H503 H 0.89247 0.68735 0.88053 0.0
H504 H 0.87207 0.69179 0.85931 0.0
H505 H 0.84588 0.70885 0.89849 0.0
H506 H 0.89429 0.74167 0.85162 0.0
H507 H 0.91799 0.74655 0.82823 0.0
H508 H 0.88413 0.7021 0.78679 0.0
H509 H 0.86073 0.6975 0.80983 0.0
C510 C 0.81673 0.70611 0.83188 0.0
C511 C 0.81187 0.69386 0.8143 0.0
C512 C 0.79782 0.68971 0.80064 0.0
C513 C 0.78808 0.69758 0.80428 0.0
C514 C 0.79288 0.70983 0.82201 0.0
C515 C 0.80713 0.7141 0.83566 0.0
C516 C 0.83204 0.71038 0.84572 0.0
C517 C 0.84693 0.71477 0.8346 0.0
C518 C 0.83184 0.70877 0.86919 0.0
C519 C 0.81642 0.70368 0.88199 0.0
C520 C 0.80138 0.68834 0.87651 0.0
C521 C 0.7869 0.68363 0.88864 0.0
C522 C 0.7873 0.69399 0.90677 0.0
C523 C 0.80242 0.7092 0.91247 0.0
C524 C 0.81685 0.71401 0.90015 0.0
C525 C 0.87413 0.71221 0.8813 0.0
C526 C 0.88195 0.72202 0.90094 0.0
C527 C 0.89352 0.71934 0.91328 0.0
C528 C 0.89734 0.70667 0.90633 0.0
C529 C 0.8897 0.69709 0.88645 0.0
C530 C 0.87818 0.69978 0.87414 0.0
C531 C 0.86077 0.71389 0.86915 0.0
C532 C 0.84633 0.71088 0.88066 0.0
C533 C 0.86118 0.71628 0.84586 0.0
C534 C 0.87576 0.71926 0.8324 0.0
C535 C 0.89205 0.73302 0.83748 0.0
C536 C 0.90554 0.7358 0.8241 0.0
C537 C 0.90287 0.72488 0.80544 0.0
C538 C 0.88654 0.71106 0.80062 0.0
C539 C 0.87316 0.70833 0.81389 0.0
H540 H 0.81112 0.64214 0.53302 0.0
H541 H 0.7878 0.63704 0.55663 0.0
H542 H 0.7548 0.59075 0.51763 0.0
H543 H 0.77829 0.59632 0.49348 0.0
H544 H 0.82496 0.62262 0.52734 0.0
H545 H 0.80072 0.64732 0.48507 0.0
H546 H 0.78029 0.65214 0.46475 0.0
H547 H 0.77218 0.61231 0.41628 0.0
H548 H 0.79276 0.60749 0.43687 0.0
H549 H 0.8433 0.60925 0.44229 0.0
H550 H 0.86853 0.61623 0.42125 0.0
H551 H 0.89547 0.66537 0.45679 0.0
H552 H 0.87034 0.65811 0.47801 0.0
H553 H 0.82585 0.62883 0.44522 0.0
H554 H 0.85944 0.61245 0.4954 0.0
H555 H 0.8836 0.61824 0.51993 0.0
H556 H 0.87762 0.65661 0.55668 0.0
H557 H 0.85425 0.65135 0.53173 0.0
C558 C 0.79641 0.6196 0.51156 0.0
C559 C 0.79886 0.63088 0.52956 0.0
C560 C 0.78553 0.62784 0.54317 0.0
C561 C 0.76949 0.61329 0.5393 0.0
C562 C 0.76699 0.60208 0.52104 0.0
C563 C 0.78037 0.60524 0.50724 0.0
C564 C 0.81098 0.62258 0.4981 0.0
C565 C 0.82516 0.62398 0.50936 0.0
C566 C 0.81127 0.62471 0.47475 0.0
C567 C 0.79807 0.6268 0.46278 0.0
C568 C 0.79429 0.63933 0.47036 0.0
C569 C 0.78259 0.6421 0.45868 0.0
C570 C 0.77449 0.63253 0.43895 0.0
C571 C 0.77827 0.61996 0.43135 0.0
C572 C 0.78998 0.61715 0.44313 0.0
C573 C 0.85503 0.6331 0.46179 0.0
C574 C 0.85468 0.62149 0.44553 0.0
C575 C 0.86909 0.62553 0.43351 0.0
C576 C 0.88405 0.64133 0.43741 0.0
C577 C 0.88428 0.65295 0.45368 0.0
C578 C 0.86991 0.64888 0.46573 0.0
C579 C 0.83981 0.62878 0.47455 0.0
C580 C 0.82546 0.62706 0.46311 0.0
C581 C 0.8398 0.62768 0.49807 0.0
C582 C 0.85505 0.63148 0.51171 0.0
C583 C 0.86359 0.62232 0.5085 0.0
C584 C 0.8773 0.62555 0.52264 0.0
C585 C 0.88263 0.63794 0.54026 0.0
C586 C 0.87416 0.64723 0.54307 0.0
C587 C 0.86061 0.64409 0.52894 0.0
H588 H 0.39034 0.22934 0.55379 0.0
H589 H 0.38677 0.25003 0.57694 0.0
H590 H 0.34389 0.24081 0.53549 0.0
H591 H 0.34676 0.2194 0.51317 0.0
H592 H 0.37191 0.19696 0.54759 0.0
H593 H 0.39167 0.2438 0.49577 0.0
H594 H 0.38929 0.26531 0.474 0.0
H595 H 0.34364 0.22501 0.44144 0.0
H596 H 0.34617 0.20371 0.46298 0.0
H597 H 0.34458 0.16234 0.46431 0.0
H598 H 0.33979 0.13684 0.44308 0.0
H599 H 0.38553 0.14183 0.47244 0.0
H600 H 0.39032 0.16755 0.49375 0.0
H601 H 0.3691 0.19467 0.46475 0.0
H602 H 0.34703 0.14858 0.51621 0.0
H603 H 0.3473 0.12541 0.53646 0.0
H604 H 0.39412 0.16216 0.5702 0.0
H605 H 0.39409 0.18532 0.54936 0.0
C606 C 0.36904 0.22297 0.53139 0.0
C607 C 0.38016 0.23173 0.54964 0.0
C608 C 0.37816 0.24358 0.56281 0.0
C609 C 0.36517 0.24707 0.55778 0.0
C610 C 0.35417 0.2385 0.53944 0.0
C611 C 0.3559 0.22636 0.5266 0.0
C612 C 0.37065 0.2097 0.5181 0.0
C613 C 0.37164 0.19669 0.52946 0.0
C614 C 0.37001 0.20903 0.49442 0.0
C615 C 0.36904 0.22219 0.48107 0.0
C616 C 0.38119 0.23965 0.4839 0.0
C617 C 0.37982 0.2519 0.47146 0.0
C618 C 0.36632 0.24683 0.45593 0.0
C619 C 0.35436 0.2293 0.45293 0.0
C620 C 0.35574 0.21711 0.46532 0.0
C621 C 0.36774 0.16679 0.48075 0.0
C622 C 0.35372 0.15809 0.46599 0.0
C623 C 0.35103 0.14355 0.45378 0.0
C624 C 0.36232 0.13735 0.45602 0.0
C625 C 0.37655 0.14624 0.47051 0.0
C626 C 0.37929 0.1609 0.48268 0.0
C627 C 0.36985 0.18181 0.49421 0.0
C628 C 0.3697 0.19517 0.48288 0.0
C629 C 0.37104 0.18264 0.51786 0.0
C630 C 0.37074 0.16865 0.53089 0.0
C631 C 0.35747 0.15165 0.52774 0.0
C632 C 0.35762 0.13843 0.53934 0.0
C633 C 0.37082 0.14201 0.55471 0.0
C634 C 0.3838 0.15908 0.55843 0.0
C635 C 0.38378 0.17229 0.54657 0.0
H636 H 0.78711 0.18738 0.53191 0.0
H637 H 0.76635 0.16378 0.55391 0.0
H638 H 0.77741 0.12848 0.51855 0.0
H639 H 0.79859 0.1521 0.49726 0.0
H640 H 0.81959 0.19955 0.53185 0.0
H641 H 0.77462 0.17095 0.47695 0.0
H642 H 0.75385 0.14533 0.45612 0.0
H643 H 0.79401 0.14426 0.42032 0.0
H644 H 0.81466 0.16843 0.44321 0.0
H645 H 0.85582 0.20186 0.45656 0.0
H646 H 0.88227 0.22012 0.43841 0.0
H647 H 0.88142 0.26516 0.46295 0.0
H648 H 0.85486 0.24666 0.48149 0.0
H649 H 0.82529 0.19855 0.44978 0.0
H650 H 0.86664 0.21541 0.51011 0.0
H651 H 0.88859 0.23344 0.53805 0.0
H652 H 0.85722 0.25326 0.56205 0.0
H653 H 0.83545 0.23545 0.53372 0.0
C654 C 0.79421 0.17148 0.51266 0.0
C655 C 0.78499 0.17454 0.52881 0.0
C656 C 0.77317 0.16111 0.54135 0.0
C657 C 0.77027 0.14438 0.53774 0.0
C658 C 0.77927 0.14125 0.52136 0.0
C659 C 0.79131 0.15472 0.50914 0.0
C660 C 0.80778 0.18596 0.50075 0.0
C661 C 0.82059 0.19951 0.51381 0.0
C662 C 0.80926 0.18564 0.4772 0.0
C663 C 0.79634 0.17146 0.46228 0.0
C664 C 0.77898 0.16505 0.46485 0.0
C665 C 0.76703 0.15049 0.45251 0.0
C666 C 0.77211 0.14235 0.43658 0.0
C667 C 0.78948 0.14965 0.43289 0.0
C668 C 0.80141 0.1638 0.44578 0.0
C669 C 0.85334 0.2229 0.47024 0.0
C670 C 0.86127 0.21566 0.45795 0.0
C671 C 0.87637 0.22612 0.44756 0.0
C672 C 0.88383 0.24408 0.44906 0.0
C673 C 0.876 0.25137 0.46162 0.0
C674 C 0.86083 0.24084 0.47213 0.0
C675 C 0.83728 0.2114 0.48104 0.0
C676 C 0.82394 0.19864 0.46773 0.0
C677 C 0.83549 0.21202 0.50436 0.0
C678 C 0.84948 0.22423 0.51967 0.0
C679 C 0.86465 0.22393 0.52104 0.0
C680 C 0.87711 0.23411 0.53716 0.0
C681 C 0.87461 0.24473 0.55231 0.0
C682 C 0.85961 0.24537 0.55047 0.0
C683 C 0.84712 0.23514 0.53438 0.0
H684 H 0.95182 0.49486 0.13876 0.0
H685 H 0.9513 0.51754 0.11728 0.0
H686 H 0.00315 0.55253 0.13777 0.0
H687 H 0.00352 0.52988 0.15952 0.0
H688 H 0.97645 0.48222 0.13594 0.0
H689 H 0.96082 0.51619 0.18435 0.0
H690 H 0.96687 0.54286 0.20337 0.0
H691 H 0.00637 0.54186 0.2429 0.0
H692 H 0.00173 0.51659 0.22176 0.0
H693 H -0.00054 0.47807 0.22568 0.0
H694 H 0.00204 0.45783 0.24902 0.0
H695 H 0.96293 0.41577 0.20869 0.0
H696 H 0.95891 0.43617 0.18726 0.0
H697 H 0.97844 0.48644 0.21867 0.0
H698 H 0.00129 0.46022 0.17155 0.0
H699 H 0.00291 0.43736 0.15076 0.0
H700 H 0.95932 0.42745 0.11041 0.0
H701 H 0.95708 0.44962 0.13194 0.0
C702 C 0.97767 0.51079 0.15079 0.0
C703 C 0.96309 0.50739 0.13847 0.0
C704 C 0.96278 0.52033 0.12634 0.0
C705 C 0.97718 0.53673 0.12595 0.0
C706 C 0.99193 0.53994 0.13773 0.0
C707 C 0.99215 0.52708 0.15016 0.0
C708 C 0.9775 0.49737 0.16478 0.0
C709 C 0.97679 0.483 0.15406 0.0
C710 C 0.9786 0.49891 0.1884 0.0
C711 C 0.98113 0.51454 0.201 0.0
C712 C 0.97111 0.52197 0.19664 0.0
C713 C 0.97435 0.53711 0.20802 0.0
C714 C 0.98727 0.54481 0.2247 0.0
C715 C 0.99669 0.53679 0.22975 0.0
C716 C 0.99384 0.52205 0.21785 0.0
C717 C 0.97919 0.45873 0.20433 0.0
C718 C 0.99114 0.46447 0.22213 0.0
C719 C 0.99282 0.45281 0.23531 0.0
C720 C 0.98299 0.43505 0.23058 0.0
C721 C 0.97067 0.42929 0.21311 0.0
C722 C 0.96857 0.441 0.20045 0.0
C723 C 0.97812 0.47147 0.18997 0.0
C724 C 0.97828 0.48561 0.20056 0.0
C725 C 0.97764 0.47026 0.16626 0.0
C726 C 0.97884 0.45648 0.15365 0.0
C727 C 0.99185 0.45291 0.15855 0.0
C728 C 0.99283 0.43991 0.14665 0.0
C729 C 0.98119 0.43066 0.12912 0.0
C730 C 0.96842 0.43443 0.12389 0.0
C731 C 0.96718 0.44713 0.13613 0.0
H732 H 0.49716 0.42947 0.14261 0.0
H733 H 0.47427 0.41198 0.11535 0.0
H734 H 0.44633 0.43576 0.13931 0.0
H735 H 0.46935 0.45339 0.16617 0.0
H736 H 0.51596 0.46558 0.14501 0.0
H737 H 0.4785 0.41944 0.19442 0.0
H738 H 0.45189 0.40156 0.21322 0.0
H739 H 0.45314 0.4474 0.23898 0.0
H740 H 0.47931 0.46504 0.21989 0.0
H741 H 0.52179 0.49926 0.2302 0.0
H742 H 0.54338 0.52331 0.25284 0.0
H743 H 0.58156 0.51379 0.22611 0.0
H744 H 0.55977 0.48935 0.2037 0.0
H745 H 0.50911 0.46705 0.22685 0.0
H746 H 0.53965 0.51287 0.18005 0.0
H747 H 0.56335 0.53576 0.16106 0.0
H748 H 0.57181 0.49821 0.12679 0.0
H749 H 0.54842 0.47521 0.14665 0.0
C750 C 0.48488 0.44259 0.15656 0.0
C751 C 0.48603 0.43079 0.14208 0.0
C752 C 0.47291 0.42075 0.12663 0.0
C753 C 0.45849 0.42249 0.1252 0.0
C754 C 0.45732 0.43421 0.1399 0.0
C755 C 0.4704 0.44418 0.15538 0.0
C756 C 0.49918 0.45396 0.17206 0.0
C757 C 0.51466 0.46563 0.16299 0.0
C758 C 0.49717 0.45461 0.19533 0.0
C759 C 0.48085 0.44355 0.20583 0.0
C760 C 0.47288 0.42557 0.20391 0.0
C761 C 0.45776 0.4154 0.2147 0.0
C762 C 0.4504 0.42309 0.22745 0.0
C763 C 0.45832 0.44109 0.22896 0.0
C764 C 0.47339 0.45119 0.21829 0.0
C765 C 0.53912 0.49253 0.21503 0.0
C766 C 0.53474 0.50206 0.22952 0.0
C767 C 0.54711 0.51583 0.2425 0.0
C768 C 0.56417 0.52045 0.24123 0.0
C769 C 0.56852 0.5106 0.22727 0.0
C770 C 0.55608 0.49666 0.21445 0.0
C771 C 0.52595 0.47891 0.19986 0.0
C772 C 0.51068 0.46676 0.20895 0.0
C773 C 0.52786 0.47847 0.17645 0.0
C774 C 0.54251 0.49234 0.16522 0.0
C775 C 0.54684 0.50954 0.16892 0.0
C776 C 0.56034 0.52261 0.15801 0.0
C777 C 0.56944 0.5187 0.14269 0.0
C778 C 0.56498 0.5015 0.13863 0.0
C779 C 0.55165 0.48841 0.14992 0.0
H780 H 0.54255 0.06892 0.16574 0.0
H781 H 0.56585 0.07281 0.14232 0.0
H782 H 0.55643 0.02237 0.15901 0.0
H783 H 0.53297 0.01836 0.18189 0.0
H784 H 0.50981 0.04511 0.16014 0.0
H785 H 0.55328 0.05835 0.21872 0.0
H786 H 0.57398 0.05304 0.23801 0.0
H787 H 0.53438 0.00167 0.2517 0.0
H788 H 0.51395 0.00687 0.2319 0.0
H789 H 0.4707 0.00587 0.23426 0.0
H790 H 0.44635 0.00142 0.25549 0.0
H791 H 0.45555 0.05162 0.23759 0.0
H792 H 0.47962 0.05576 0.21595 0.0
H793 H 0.50333 0.02915 0.23962 0.0
H794 H 0.46209 0.01051 0.18257 0.0
H795 H 0.43967 0.00691 0.15646 0.0
H796 H 0.47102 0.05898 0.13566 0.0
H797 H 0.49335 0.06264 0.16217 0.0
C798 C 0.53621 0.04347 0.17587 0.0
C799 C 0.54558 0.05875 0.16444 0.0
C800 C 0.55885 0.06095 0.15107 0.0
C801 C 0.56299 0.04795 0.14904 0.0
C802 C 0.55369 0.03273 0.16064 0.0
C803 C 0.54032 0.03045 0.17376 0.0
C804 C 0.52148 0.04076 0.18885 0.0
C805 C 0.50859 0.04208 0.1777 0.0
C806 C 0.51944 0.03568 0.21135 0.0
C807 C 0.53207 0.03296 0.22372 0.0
C808 C 0.5491 0.04592 0.22578 0.0
C809 C 0.56089 0.0429 0.23692 0.0
C810 C 0.55585 0.02688 0.24625 0.0
C811 C 0.53875 0.01404 0.24437 0.0
C812 C 0.52701 0.01706 0.23327 0.0
C813 C 0.47693 0.03111 0.22351 0.0
C814 C 0.46744 0.01588 0.23491 0.0
C815 C 0.45356 0.0134 0.24709 0.0
C816 C 0.44903 0.02619 0.24831 0.0
C817 C 0.45853 0.0414 0.23673 0.0
C818 C 0.47233 0.04382 0.22443 0.0
C819 C 0.49187 0.03392 0.211 0.0
C820 C 0.50474 0.03258 0.2222 0.0
C821 C 0.49361 0.03824 0.18827 0.0
C822 C 0.47937 0.03689 0.17444 0.0
C823 C 0.464 0.0213 0.17281 0.0
C824 C 0.45125 0.0192 0.15774 0.0
C825 C 0.45363 0.03263 0.14395 0.0
C826 C 0.46877 0.04846 0.14622 0.0
C827 C 0.48156 0.05053 0.16125 0.0
H828 H 0.48365 0.98327 0.8684 0.0
H829 H 0.46086 0.97984 0.89204 0.0
H830 H 0.42548 0.93533 0.85173 0.0
H831 H 0.44842 0.93939 0.82751 0.0
H832 H 0.49462 0.9604 0.86013 0.0
H833 H 0.47266 0.99065 0.82199 0.0
H834 H 0.45174 0.99596 0.80375 0.0
H835 H 0.4425 0.9573 0.75282 0.0
H836 H 0.4634 0.95191 0.77132 0.0
H837 H 0.51932 0.94481 0.80022 0.0
H838 H 0.5426 0.94778 0.77775 0.0
H839 H 0.55476 -0.00064 0.76211 0.0
H840 H 0.53097 0.99592 0.78381 0.0
H841 H 0.49661 0.97223 0.77936 0.0
H842 H 0.50906 0.94085 0.85649 0.0
H843 H 0.53152 0.94441 0.88259 0.0
H844 H 0.56381 0.9955 0.85916 0.0
H845 H 0.54121 0.99199 0.83341 0.0
C846 C 0.46767 0.96162 0.84623 0.0
C847 C 0.47097 0.97276 0.8647 0.0
C848 C 0.45794 0.97066 0.87832 0.0
C849 C 0.44133 0.95716 0.87399 0.0
C850 C 0.43808 0.94594 0.85545 0.0
C851 C 0.45115 0.9482 0.84163 0.0
C852 C 0.48171 0.9639 0.83219 0.0
C853 C 0.49497 0.96274 0.84239 0.0
C854 C 0.48235 0.96765 0.80929 0.0
C855 C 0.46944 0.97068 0.79825 0.0
C856 C 0.46594 0.98309 0.80712 0.0
C857 C 0.45397 0.98613 0.79666 0.0
C858 C 0.44538 0.97699 0.7769 0.0
C859 C 0.44898 0.96464 0.76794 0.0
C860 C 0.4609 0.96153 0.77851 0.0
C861 C 0.52345 0.97014 0.79361 0.0
C862 C 0.52701 0.95673 0.79187 0.0
C863 C 0.54041 0.95851 0.77915 0.0
C864 C 0.55063 0.97383 0.76811 0.0
C865 C 0.54701 0.98727 0.77001 0.0
C866 C 0.53345 0.98537 0.78249 0.0
C867 C 0.50935 0.96828 0.80725 0.0
C868 C 0.49607 0.96949 0.79697 0.0
C869 C 0.50893 0.9652 0.83033 0.0
C870 C 0.52346 0.96612 0.84294 0.0
C871 C 0.52111 0.95267 0.85664 0.0
C872 C 0.53398 0.95469 0.87147 0.0
C873 C 0.54939 0.97028 0.87302 0.0
C874 C 0.55202 0.9834 0.85847 0.0
C875 C 0.53917 0.98134 0.84358 0.0
H876 H 0.04338 0.55052 0.89123 0.0
H877 H 0.04269 0.57313 0.91398 0.0
H878 H 0.99754 0.56383 0.87812 0.0
H879 H 0.99755 0.54053 0.85626 0.0
H880 H 0.02338 0.51797 0.88824 0.0
H881 H 0.04006 0.56285 0.83266 0.0
H882 H 0.03615 0.58281 0.80942 0.0
H883 H 0.98876 0.54072 0.78344 0.0
H884 H 0.99275 0.52096 0.80648 0.0
H885 H 0.99518 0.48262 0.80273 0.0
H886 H 0.99138 0.45805 0.78064 0.0
H887 H 0.0332 0.45933 0.81724 0.0
H888 H 0.03824 0.48534 0.83729 0.0
H889 H 0.01692 0.51304 0.80566 0.0
H890 H 0.99691 0.46854 0.8596 0.0
H891 H 0.99815 0.44599 0.88022 0.0
H892 H 0.04627 0.48366 0.91009 0.0
H893 H 0.04518 0.50616 0.88904 0.0
C894 C 0.0207 0.54395 0.87166 0.0
C895 C 0.03329 0.55328 0.88823 0.0
C896 C 0.03296 0.56623 0.90116 0.0
C897 C 0.02018 0.57025 0.89752 0.0
C898 C 0.00764 0.56107 0.88093 0.0
C899 C 0.00775 0.54785 0.86835 0.0
C900 C 0.0208 0.52973 0.85856 0.0
C901 C 0.02218 0.51702 0.87014 0.0
C902 C 0.01878 0.52811 0.83498 0.0
C903 C 0.01666 0.54046 0.82134 0.0
C904 C 0.02883 0.55799 0.82199 0.0
C905 C 0.02658 0.56935 0.80872 0.0
C906 C 0.01221 0.56329 0.7945 0.0
C907 C 0.00012 0.54572 0.79388 0.0
C908 C 0.00234 0.53444 0.80713 0.0
C909 C 0.01684 0.48578 0.82206 0.0
C910 C 0.00376 0.47783 0.80576 0.0
C911 C 0.00141 0.46349 0.79332 0.0
C912 C 0.01174 0.4563 0.79728 0.0
C913 C 0.02503 0.46446 0.8134 0.0
C914 C 0.02775 0.47922 0.82531 0.0
C915 C 0.01889 0.50097 0.8353 0.0
C916 C 0.01815 0.51397 0.82377 0.0
C917 C 0.02094 0.50253 0.85893 0.0
C918 C 0.02111 0.48899 0.87245 0.0
C919 C 0.00778 0.47194 0.87049 0.0
C920 C 0.00849 0.45907 0.88225 0.0
C921 C 0.02238 0.46308 0.89657 0.0
C922 C 0.03541 0.48024 0.89919 0.0
C923 C 0.03479 0.49308 0.8872 0.0
H924 H 0.44299 0.51505 0.84106 0.0
H925 H 0.41913 0.49423 0.86244 0.0
H926 H 0.453 0.48299 0.90006 0.0
H927 H 0.47661 0.5041 0.87935 0.0
H928 H 0.48979 0.53832 0.87452 0.0
H929 H 0.45915 0.52056 0.78489 0.0
H930 H 0.43708 0.49588 0.76312 0.0
H931 H 0.44116 0.46158 0.80891 0.0
H932 H 0.46318 0.48617 0.83039 0.0
H933 H 0.52175 0.5306 0.79879 0.0
H934 H 0.54791 0.546 0.7787 0.0
H935 H 0.5513 0.59421 0.79787 0.0
H936 H 0.52513 0.57865 0.81829 0.0
H937 H 0.49188 0.5286 0.7931 0.0
H938 H 0.53495 0.54706 0.85084 0.0
H939 H 0.55887 0.56583 0.87591 0.0
H940 H 0.53276 0.59232 0.89689 0.0
H941 H 0.50901 0.57372 0.87144 0.0
C942 C 0.46153 0.51111 0.85869 0.0
C943 C 0.44521 0.50819 0.85412 0.0
C944 C 0.4316 0.49624 0.86627 0.0
C945 C 0.43412 0.48697 0.88309 0.0
C946 C 0.45059 0.49016 0.88768 0.0
C947 C 0.46413 0.50217 0.87574 0.0
C948 C 0.47601 0.52295 0.84535 0.0
C949 C 0.49016 0.53642 0.85662 0.0
C950 C 0.47654 0.52015 0.82211 0.0
C951 C 0.4626 0.50524 0.80954 0.0
C952 C 0.45519 0.50771 0.79029 0.0
C953 C 0.44263 0.49361 0.77783 0.0
C954 C 0.43727 0.47678 0.78438 0.0
C955 C 0.44473 0.47438 0.80367 0.0
C956 C 0.45732 0.48844 0.81601 0.0
C957 C 0.52149 0.55348 0.80998 0.0
C958 C 0.52808 0.54449 0.79856 0.0
C959 C 0.54301 0.5533 0.78707 0.0
C960 C 0.55163 0.57132 0.78662 0.0
C961 C 0.54504 0.58034 0.79813 0.0
C962 C 0.53007 0.57148 0.8097 0.0
C963 C 0.50574 0.54387 0.82234 0.0
C964 C 0.49132 0.53089 0.81084 0.0
C965 C 0.50514 0.54672 0.84553 0.0
C966 C 0.52026 0.5591 0.85912 0.0
C967 C 0.53453 0.55715 0.86048 0.0
C968 C 0.54812 0.56778 0.87496 0.0
C969 C 0.54769 0.58053 0.88842 0.0
C970 C 0.53357 0.58276 0.88656 0.0
C971 C 0.51995 0.57207 0.87213 0.0
H972 H 0.61011 0.81551 0.47111 0.0
H973 H 0.60913 0.83826 0.45045 0.0
H974 H 0.65651 0.8758 0.48217 0.0
H975 H 0.65773 0.85305 0.50223 0.0
H976 H 0.63248 0.80431 0.47158 0.0
H977 H 0.61532 0.83391 0.5267 0.0
H978 H 0.62005 0.85932 0.54874 0.0
H979 H 0.66652 0.86486 0.57618 0.0
H980 H 0.66185 0.83973 0.55413 0.0
H981 H 0.6611 0.7991 0.55481 0.0
H982 H 0.66414 0.7785 0.57725 0.0
H983 H 0.61822 0.73722 0.5466 0.0
H984 H 0.61521 0.75805 0.52405 0.0
H985 H 0.6379 0.8075 0.55426 0.0
H986 H 0.65885 0.78221 0.50405 0.0
H987 H 0.66115 0.76082 0.48086 0.0
H988 H 0.61713 0.75145 0.44197 0.0
H989 H 0.61412 0.77207 0.46601 0.0
C990 C 0.63382 0.83261 0.48855 0.0
C991 C 0.62033 0.82863 0.4735 0.0
C992 C 0.61977 0.8416 0.46173 0.0
C993 C 0.63264 0.85877 0.46495 0.0
C994 C 0.64628 0.86269 0.47971 0.0
C995 C 0.64696 0.84971 0.49119 0.0
C996 C 0.63414 0.81886 0.50144 0.0
C997 C 0.63334 0.80477 0.48969 0.0
C998 C 0.63606 0.81996 0.52503 0.0
C999 C 0.63829 0.83498 0.53864 0.0
C1000 C 0.62653 0.84063 0.53744 0.0
C1001 C 0.62922 0.85512 0.55005 0.0
C1002 C 0.64361 0.86402 0.56428 0.0
C1003 C 0.65517 0.85811 0.56569 0.0
C1004 C 0.65255 0.84378 0.55302 0.0
C1005 C 0.63797 0.7801 0.5377 0.0
C1006 C 0.6516 0.78563 0.55302 0.0
C1007 C 0.65328 0.77386 0.56593 0.0
C1008 C 0.64134 0.75628 0.56382 0.0
C1009 C 0.62765 0.7507 0.54848 0.0
C1010 C 0.62593 0.76255 0.53558 0.0
C1011 C 0.63634 0.79294 0.52446 0.0
C1012 C 0.63678 0.80681 0.53615 0.0
C1013 C 0.63487 0.79196 0.50081 0.0
C1014 C 0.63606 0.77857 0.48719 0.0
C1015 C 0.64933 0.7752 0.49103 0.0
C1016 C 0.65075 0.76308 0.47768 0.0
C1017 C 0.63927 0.7545 0.45978 0.0
C1018 C 0.6261 0.75791 0.45575 0.0
C1019 C 0.62443 0.76973 0.46943 0.0
H1020 H 0.16562 0.76216 0.48785 0.0
H1021 H 0.14334 0.74461 0.45994 0.0
H1022 H 0.11216 0.76363 0.48706 0.0
H1023 H 0.13456 0.78135 0.51463 0.0
H1024 H 0.1811 0.79784 0.49001 0.0
H1025 H 0.14807 0.75082 0.54034 0.0
H1026 H 0.12227 0.73146 0.5598 0.0
H1027 H 0.12172 0.77542 0.58924 0.0
H1028 H 0.14689 0.7945 0.56927 0.0
H1029 H 0.18643 0.82989 0.57784 0.0
H1030 H 0.20679 0.85476 0.60006 0.0
H1031 H 0.24728 0.85534 0.56309 0.0
H1032 H 0.22694 0.82916 0.54294 0.0
H1033 H 0.17737 0.79977 0.57238 0.0
H1034 H 0.19655 0.84356 0.51837 0.0
H1035 H 0.21627 0.86746 0.49593 0.0
H1036 H 0.23771 0.83711 0.47222 0.0
H1037 H 0.21773 0.81306 0.49447 0.0
C1038 C 0.1517 0.77294 0.50345 0.0
C1039 C 0.15386 0.76231 0.48801 0.0
C1040 C 0.1411 0.75224 0.47215 0.0
C1041 C 0.12601 0.75278 0.47126 0.0
C1042 C 0.12369 0.76304 0.48721 0.0
C1043 C 0.13641 0.77304 0.50312 0.0
C1044 C 0.16603 0.78532 0.51822 0.0
C1045 C 0.18047 0.79801 0.50809 0.0
C1046 C 0.16485 0.78611 0.54168 0.0
C1047 C 0.14937 0.7741 0.55332 0.0
C1048 C 0.14225 0.75622 0.55082 0.0
C1049 C 0.1276 0.7452 0.56204 0.0
C1050 C 0.11989 0.75192 0.5759 0.0
C1051 C 0.12713 0.76982 0.57835 0.0
C1052 C 0.14166 0.78076 0.56716 0.0
C1053 C 0.20499 0.82768 0.55825 0.0
C1054 C 0.19972 0.8351 0.57482 0.0
C1055 C 0.21145 0.84962 0.58734 0.0
C1056 C 0.22882 0.85748 0.58324 0.0
C1057 C 0.23411 0.84973 0.56705 0.0
C1058 C 0.22238 0.83486 0.55504 0.0
C1059 C 0.19223 0.81275 0.54414 0.0
C1060 C 0.17821 0.79945 0.55435 0.0
C1061 C 0.19319 0.812 0.52059 0.0
C1062 C 0.20584 0.82667 0.50816 0.0
C1063 C 0.20559 0.84211 0.50846 0.0
C1064 C 0.21674 0.85567 0.49559 0.0
C1065 C 0.22841 0.85402 0.48239 0.0
C1066 C 0.22885 0.83865 0.48237 0.0
C1067 C 0.21748 0.82497 0.49499 0.0
H1068 H 0.14013 0.34169 0.48132 0.0
H1069 H 0.11823 0.33797 0.45468 0.0
H1070 H 0.11526 0.3794 0.48802 0.0
H1071 H 0.13803 0.38361 0.51424 0.0
H1072 H 0.17031 0.36935 0.4851 0.0
H1073 H 0.12317 0.33869 0.53409 0.0
H1074 H 0.09909 0.33393 0.55631 0.0
H1075 H 0.13061 0.38203 0.59252 0.0
H1076 H 0.1545 0.38691 0.56985 0.0
H1077 H 0.20214 0.38769 0.57481 0.0
H1078 H 0.22296 0.38434 0.59705 0.0
H1079 H 0.21447 0.34156 0.5538 0.0
H1080 H 0.19339 0.34466 0.53211 0.0
H1081 H 0.16894 0.36615 0.56758 0.0
H1082 H 0.21753 0.39222 0.52245 0.0
H1083 H 0.24102 0.3951 0.5006 0.0
H1084 H 0.20567 0.35483 0.45471 0.0
H1085 H 0.18252 0.35098 0.47766 0.0
C1086 C 0.14076 0.36293 0.49978 0.0
C1087 C 0.13471 0.34992 0.48303 0.0
C1088 C 0.12201 0.34769 0.4679 0.0
C1089 C 0.11486 0.35833 0.4692 0.0
C1090 C 0.12058 0.37108 0.48641 0.0
C1091 C 0.13347 0.37339 0.50156 0.0
C1092 C 0.15554 0.36604 0.51399 0.0
C1093 C 0.16996 0.36844 0.50314 0.0
C1094 C 0.1554 0.36581 0.53758 0.0
C1095 C 0.14057 0.36324 0.55019 0.0
C1096 C 0.1248 0.34834 0.54656 0.0
C1097 C 0.11111 0.34557 0.55939 0.0
C1098 C 0.11296 0.35761 0.57616 0.0
C1099 C 0.12872 0.37263 0.57953 0.0
C1100 C 0.14241 0.37537 0.56672 0.0
C1101 C 0.19631 0.36655 0.55165 0.0
C1102 C 0.20479 0.3776 0.57013 0.0
C1103 C 0.21678 0.37575 0.58271 0.0
C1104 C 0.22042 0.3627 0.57717 0.0
C1105 C 0.21188 0.35165 0.55865 0.0
C1106 C 0.19993 0.35352 0.54609 0.0
C1107 C 0.1833 0.36821 0.53848 0.0
C1108 C 0.16937 0.36709 0.54955 0.0
C1109 C 0.18377 0.36936 0.51493 0.0
C1110 C 0.19823 0.37123 0.50192 0.0
C1111 C 0.21489 0.38377 0.50794 0.0
C1112 C 0.2283 0.38561 0.49517 0.0
C1113 C 0.22529 0.3752 0.47583 0.0
C1114 C 0.20856 0.36285 0.4697 0.0
C1115 C 0.19524 0.36078 0.48271 0.0
C1116 C 0.0018 0.36856 0.05537 0.0
C1117 C 0.98737 0.35683 0.04278 0.0
C1118 C 0.00101 0.3796 0.07164 0.0
C1119 C 0.98534 0.37855 0.07577 0.0
C1120 C 0.97052 0.36574 0.0644 0.0
C1121 C 0.97175 0.3552 0.04781 0.0
C1122 C 0.01717 0.39326 0.08306 0.0
C1123 C 0.95349 0.36384 0.06876 0.0
C1124 C 0.98183 0.4032 0.12598 0.0
C1125 C 0.98263 0.41745 0.11578 0.0
C1126 C 0.98263 0.39035 0.11322 0.0
C1127 C 0.98471 0.39207 0.08985 0.0
C1128 C 0.98591 0.40669 0.07962 0.0
C1129 C 0.98463 0.41908 0.09268 0.0
C1130 C 0.9809 0.37478 0.12464 0.0
C1131 C 0.98851 0.40924 0.05484 0.0
H1132 H 0.01395 0.37001 0.05137 0.0
H1133 H 0.96055 0.34608 0.03818 0.0
H1134 H 0.02036 0.406 0.07671 0.0
H1135 H 0.01562 0.39372 0.10134 0.0
H1136 H 0.02792 0.39113 0.08 0.0
H1137 H 0.943 0.35177 0.06109 0.0
H1138 H 0.95156 0.36402 0.08699 0.0
H1139 H 0.95286 0.37482 0.06171 0.0
H1140 H 0.98019 0.40195 0.14387 0.0
H1141 H 0.98538 0.43019 0.08488 0.0
H1142 H 0.99205 0.37336 0.12148 0.0
H1143 H 0.96966 0.36304 0.11761 0.0
H1144 H 0.9796 0.3755 0.14298 0.0
H1145 H -0.00014 0.40864 0.05005 0.0
H1146 H 0.99007 0.42173 0.04972 0.0
H1147 H 0.97755 0.39879 0.04533 0.0
C1148 C 0.64312 0.59561 0.07549 0.0
C1149 C 0.63807 0.60786 0.07315 0.0
C1150 C 0.63289 0.58018 0.08619 0.0
C1151 C 0.61714 0.57686 0.09427 0.0
C1152 C 0.61176 0.58896 0.09127 0.0
C1153 C 0.62236 0.60437 0.08089 0.0
C1154 C 0.63912 0.56767 0.08937 0.0
C1155 C 0.59487 0.58572 0.09924 0.0
C1156 C 0.58247 0.53191 0.10685 0.0
C1157 C 0.583 0.53262 0.13025 0.0
C1158 C 0.59396 0.54603 0.09479 0.0
C1159 C 0.60638 0.56102 0.10651 0.0
C1160 C 0.60752 0.5614 0.13015 0.0
C1161 C 0.59569 0.54722 0.14175 0.0
C1162 C 0.59221 0.54524 0.06962 0.0
C1163 C 0.62077 0.57705 0.14321 0.0
H1164 H 0.6553 0.59831 0.06953 0.0
H1165 H 0.61823 0.61359 0.07867 0.0
H1166 H 0.6406 0.56619 0.10748 0.0
H1167 H 0.62974 0.55482 0.08224 0.0
H1168 H 0.65141 0.5719 0.08143 0.0
H1169 H 0.59224 0.59606 0.09462 0.0
H1170 H 0.58461 0.57333 0.09203 0.0
H1171 H 0.59451 0.58476 0.11769 0.0
H1172 H 0.57253 0.52064 0.098 0.0
H1173 H 0.59614 0.54765 0.15988 0.0
H1174 H 0.60455 0.5493 0.06201 0.0
H1175 H 0.58802 0.55428 0.06421 0.0
H1176 H 0.58292 0.53216 0.06299 0.0
H1177 H 0.63344 0.5813 0.13654 0.0
H1178 H 0.62104 0.57461 0.16129 0.0
H1179 H 0.61818 0.58777 0.14141 0.0
C1180 C 0.38171 0.01087 0.04888 0.0
C1181 C 0.38984 0.01706 0.02867 0.0
C1182 C 0.39102 0.01396 0.06903 0.0
C1183 C 0.40888 0.02331 0.06892 0.0
C1184 C 0.41713 0.03005 0.04872 0.0
C1185 C 0.40752 0.02692 0.0289 0.0
C1186 C 0.38178 0.00675 0.09029 0.0
C1187 C 0.43616 0.03998 0.04786 0.0
C1188 C 0.43619 0.04196 0.12193 0.0
C1189 C 0.44101 0.0297 0.12598 0.0
C1190 C 0.42517 0.03975 0.10391 0.0
C1191 C 0.41905 0.02505 0.08948 0.0
C1192 C 0.42357 0.01246 0.09383 0.0
C1193 C 0.43443 0.01491 0.11206 0.0
C1194 C 0.42045 0.05334 0.09997 0.0
C1195 C 0.41746 0.99669 0.07871 0.0
H1196 H 0.36805 0.00333 0.04893 0.0
H1197 H 0.41396 0.03178 0.01342 0.0
H1198 H 0.38427 0.99659 0.09615 0.0
H1199 H 0.38644 0.01693 0.10367 0.0
H1200 H 0.36792 0.00115 0.08796 0.0
H1201 H 0.44061 0.0451 0.03107 0.0
H1202 H 0.44148 0.05087 0.06027 0.0
H1203 H 0.44128 0.03153 0.05229 0.0
H1204 H 0.44114 0.05334 0.13278 0.0
H1205 H 0.4383 0.0055 0.11493 0.0
H1206 H 0.40653 0.04738 0.09819 0.0
H1207 H 0.42584 0.05978 0.08414 0.0
H1208 H 0.4251 0.06324 0.11375 0.0
H1209 H 0.40349 0.98974 0.07695 0.0
H1210 H 0.42146 0.98772 0.08503 0.0
H1211 H 0.42249 0.00057 0.06178 0.0
C1212 C 0.36881 0.95489 0.9518 0.0
C1213 C 0.37114 0.97143 0.94974 0.0
C1214 C 0.37903 0.94989 0.94036 0.0
C1215 C 0.39202 0.96185 0.92696 0.0
C1216 C 0.39457 0.97862 0.92514 0.0
C1217 C 0.38396 0.98309 0.93628 0.0
C1218 C 0.37574 0.93179 0.94225 0.0
C1219 C 0.40848 0.99186 0.9113 0.0
C1220 C 0.43046 0.95919 0.9114 0.0
C1221 C 0.4275 0.9554 0.88834 0.0
C1222 C 0.41851 0.96028 0.92459 0.0
C1223 C 0.40307 0.9571 0.91459 0.0
C1224 C 0.3994 0.95183 0.89177 0.0
C1225 C 0.41173 0.95121 0.87884 0.0
C1226 C 0.42298 0.96611 0.94882 0.0
C1227 C 0.38292 0.94801 0.88061 0.0
H1228 H 0.3588 0.94574 0.96199 0.0
H1229 H 0.38576 0.99579 0.93428 0.0
H1230 H 0.37246 0.92526 0.92549 0.0
H1231 H 0.3873 0.93195 0.94847 0.0
H1232 H 0.36531 0.92412 0.95363 0.0
H1233 H 0.40922 0.00456 0.91245 0.0
H1234 H 0.42085 0.99354 0.91688 0.0
H1235 H 0.40637 0.98745 0.8935 0.0
H1236 H 0.44241 0.96195 0.91902 0.0
H1237 H 0.4093 0.94833 0.86106 0.0
H1238 H 0.41242 0.95782 0.95963 0.0
H1239 H 0.42524 0.97938 0.95094 0.0
H1240 H 0.4345 0.96601 0.95471 0.0
H1241 H 0.37216 0.93994 0.89129 0.0
H1242 H 0.38085 0.94134 0.86405 0.0
H1243 H 0.38294 0.9602 0.87813 0.0
C1244 C 0.03607 0.39171 0.957 0.0
C1245 C 0.0204 0.37873 0.96401 0.0
C1246 C 0.03754 0.40622 0.94656 0.0
C1247 C 0.02305 0.40787 0.94351 0.0
C1248 C 0.00735 0.39509 0.95139 0.0
C1249 C 0.00621 0.38065 0.96144 0.0
C1250 C 0.05447 0.41953 0.93823 0.0
C1251 C 0.99166 0.39653 0.94889 0.0
C1252 C 0.02728 0.45112 0.93149 0.0
C1253 C 0.02332 0.44931 0.90852 0.0
C1254 C 0.02757 0.43787 0.94308 0.0
C1255 C 0.02403 0.42256 0.93132 0.0
C1256 C 0.02047 0.42087 0.908 0.0
C1257 C 0.02006 0.43423 0.89691 0.0
C1258 C 0.0312 0.44004 0.96799 0.0
C1259 C 0.0168 0.40482 0.89483 0.0
H1260 H 0.04707 0.39025 0.95905 0.0
H1261 H 0.99421 0.37095 0.96749 0.0
H1262 H 0.05372 0.42007 0.91977 0.0
H1263 H 0.05797 0.43243 0.94524 0.0
H1264 H 0.06464 0.41671 0.94271 0.0
H1265 H 0.98063 0.38592 0.95693 0.0
H1266 H 0.99396 0.40892 0.95638 0.0
H1267 H 0.98843 0.39635 0.9309 0.0
H1268 H 0.0297 0.46274 0.9405 0.0
H1269 H 0.01723 0.43292 0.87908 0.0
H1270 H 0.04174 0.43778 0.97224 0.0
H1271 H 0.01996 0.43038 0.97675 0.0
H1272 H 0.0345 0.45304 0.97445 0.0
H1273 H 0.02716 0.40199 0.8976 0.0
H1274 H 0.01527 0.40596 0.87661 0.0
H1275 H 0.00506 0.39371 0.90068 0.0
C1276 C 0.59992 0.62603 0.99986 0.0
C1277 C 0.61747 0.63307 0.99889 0.0
C1278 C 0.58939 0.61868 0.98077 0.0
C1279 C 0.59654 0.61844 0.96009 0.0
C1280 C 0.61427 0.62611 0.95875 0.0
C1281 C 0.62453 0.63329 0.97817 0.0
C1282 C 0.57053 0.6106 0.98294 0.0
C1283 C 0.62237 0.62625 0.93694 0.0
C1284 C 0.5674 0.58243 0.91925 0.0
C1285 C 0.56133 0.59068 0.90545 0.0
C1286 C 0.57926 0.59145 0.93664 0.0
C1287 C 0.58528 0.60921 0.9403 0.0
C1288 C 0.57964 0.61775 0.92596 0.0
C1289 C 0.56766 0.60836 0.90876 0.0
C1290 C 0.58484 0.58183 0.95165 0.0
C1291 C 0.58589 0.63669 0.92917 0.0
H1292 H 0.59428 0.6258 0.01571 0.0
H1293 H 0.63806 0.63875 0.97718 0.0
H1294 H 0.56539 0.61602 0.97068 0.0
H1295 H 0.56434 0.59659 0.97915 0.0
H1296 H 0.56702 0.61259 0.99996 0.0
H1297 H 0.63637 0.63396 0.93828 0.0
H1298 H 0.61866 0.61292 0.93161 0.0
H1299 H 0.61786 0.63152 0.92364 0.0
H1300 H 0.5624 0.56873 0.91698 0.0
H1301 H 0.56314 0.61484 0.89799 0.0
H1302 H 0.58059 0.58193 0.96887 0.0
H1303 H 0.59882 0.58823 0.95253 0.0
H1304 H 0.5797 0.56827 0.94583 0.0
H1305 H 0.58152 0.6391 0.94529 0.0
H1306 H 0.58134 0.64169 0.91554 0.0
H1307 H 0.59989 0.64405 0.92995 0.0
C1308 C 0.03033 0.64361 0.98398 0.0
C1309 C 0.01496 0.64315 0.98704 0.0
C1310 C 0.03185 0.63324 0.9674 0.0
C1311 C 0.01753 0.62178 0.95399 0.0
C1312 C 0.00219 0.62184 0.95632 0.0
C1313 C 0.00115 0.6327 0.97264 0.0
C1314 C 0.04856 0.63393 0.96503 0.0
C1315 C 0.98653 0.6096 0.94268 0.0
C1316 C 0.0224 0.59894 0.90277 0.0
C1317 C 0.0195 0.58348 0.91173 0.0
C1318 C 0.02199 0.61166 0.91634 0.0
C1319 C 0.01814 0.60858 0.9392 0.0
C1320 C 0.01494 0.5928 0.94815 0.0
C1321 C 0.01588 0.58054 0.93435 0.0
C1322 C 0.02587 0.62845 0.90632 0.0
C1323 C 0.01044 0.58883 0.97229 0.0
H1324 H 0.04106 0.65173 0.99501 0.0
H1325 H 0.98919 0.63214 0.97509 0.0
H1326 H 0.04762 0.62199 0.97133 0.0
H1327 H 0.05188 0.63474 0.94719 0.0
H1328 H 0.05895 0.64505 0.97452 0.0
H1329 H 0.97608 0.61232 0.945 0.0
H1330 H 0.98931 0.61024 0.92466 0.0
H1331 H 0.98219 0.59626 0.9477 0.0
H1332 H 0.02526 0.60116 0.88524 0.0
H1333 H 0.01355 0.56849 0.94114 0.0
H1334 H 0.03681 0.63924 0.91545 0.0
H1335 H 0.01499 0.63054 0.90811 0.0
H1336 H 0.02879 0.6289 0.88833 0.0
H1337 H 0.02101 0.59821 0.98342 0.0
H1338 H 0.00765 0.5757 0.97638 0.0
H1339 H -0.00075 0.59004 0.97605 0.0
C1340 C 0.3593 0.40946 0.94915 0.0
C1341 C 0.36183 0.39551 0.94508 0.0
C1342 C 0.36951 0.42532 0.93935 0.0
C1343 C 0.38278 0.42736 0.92564 0.0
C1344 C 0.38536 0.41333 0.92146 0.0
C1345 C 0.37469 0.39753 0.93094 0.0
C1346 C 0.36611 0.43988 0.94365 0.0
C1347 C 0.39958 0.41505 0.90724 0.0
C1348 C 0.40448 0.46206 0.88356 0.0
C1349 C 0.41971 0.4733 0.89507 0.0
C1350 C 0.39172 0.44766 0.8939 0.0
C1351 C 0.39444 0.44422 0.91607 0.0
C1352 C 0.40934 0.45601 0.92819 0.0
C1353 C 0.42168 0.47052 0.91763 0.0
C1354 C 0.3758 0.43558 0.88062 0.0
C1355 C 0.41281 0.45272 0.95178 0.0
H1356 H 0.34924 0.40794 0.95984 0.0
H1357 H 0.37666 0.38687 0.92743 0.0
H1358 H 0.37713 0.45072 0.95256 0.0
H1359 H 0.3643 0.44473 0.92755 0.0
H1360 H 0.35476 0.43596 0.95377 0.0
H1361 H 0.40004 0.40296 0.90597 0.0
H1362 H 0.39814 0.41874 0.89014 0.0
H1363 H 0.41185 0.42537 0.9144 0.0
H1364 H 0.40281 0.464 0.86611 0.0
H1365 H 0.4332 0.47939 0.92686 0.0
H1366 H 0.36453 0.43169 0.89085 0.0
H1367 H 0.37606 0.42376 0.87577 0.0
H1368 H 0.37441 0.44144 0.86517 0.0
H1369 H 0.40194 0.44974 0.96241 0.0
H1370 H 0.42429 0.46385 0.95953 0.0
H1371 H 0.41458 0.44139 0.95168 0.0
C1372 C 0.62012 0.99305 0.97009 0.0
C1373 C 0.61189 0.9881 0.99047 0.0
C1374 C 0.61092 0.98929 0.94973 0.0
C1375 C 0.59307 0.9805 0.94976 0.0
C1376 C 0.58468 0.97488 0.97015 0.0
C1377 C 0.59418 0.97867 0.99022 0.0
C1378 C 0.62031 0.99533 0.9283 0.0
C1379 C 0.56566 0.96553 0.9709 0.0
C1380 C 0.5688 0.98867 0.90437 0.0
C1381 C 0.5619 0.97343 0.89127 0.0
C1382 C 0.57931 0.99128 0.92309 0.0
C1383 C 0.58313 0.97839 0.92882 0.0
C1384 C 0.57668 0.96323 0.91524 0.0
C1385 C 0.56604 0.96087 0.89668 0.0
C1386 C 0.58582 0.00759 0.93722 0.0
C1387 C 0.58066 0.94931 0.92066 0.0
H1388 H 0.63379 0.00022 0.97004 0.0
H1389 H 0.58767 0.97475 0.00583 0.0
H1390 H 0.61526 0.98467 0.91556 0.0
H1391 H 0.61844 0.00564 0.92147 0.0
H1392 H 0.63407 0.00039 0.93082 0.0
H1393 H 0.56106 0.96104 0.98787 0.0
H1394 H 0.56096 0.97418 0.96563 0.0
H1395 H 0.56007 0.95427 0.95906 0.0
H1396 H 0.56543 0.9983 0.90049 0.0
H1397 H 0.56083 0.94913 0.8865 0.0
H1398 H 0.59976 0.01416 0.93916 0.0
H1399 H 0.58063 0.00443 0.95419 0.0
H1400 H 0.58229 0.01665 0.92994 0.0
H1401 H 0.5945 0.9548 0.92275 0.0
H1402 H 0.57577 0.93894 0.90748 0.0
H1403 H 0.57498 0.94356 0.93672 0.0
C1404 C 0.6369 0.05453 0.07124 0.0
C1405 C 0.63073 0.03766 0.06321 0.0
C1406 C 0.62664 0.05885 0.08378 0.0
C1407 C 0.60986 0.046 0.08798 0.0
C1408 C 0.60327 0.02929 0.07835 0.0
C1409 C 0.61384 0.02532 0.06616 0.0
C1410 C 0.63407 0.0768 0.09374 0.0
C1411 C 0.58536 0.01528 0.08205 0.0
C1412 C 0.58835 0.04536 0.14154 0.0
C1413 C 0.57649 0.04978 0.13413 0.0
C1414 C 0.60001 0.04511 0.12692 0.0
C1415 C 0.59967 0.04925 0.10429 0.0
C1416 C 0.58828 0.05457 0.09699 0.0
C1417 C 0.57682 0.05482 0.11206 0.0
C1418 C 0.61209 0.03955 0.13542 0.0
C1419 C 0.5875 0.05901 0.07299 0.0
H1420 H 0.65001 0.06405 0.06891 0.0
H1421 H 0.60899 0.0124 0.05939 0.0
H1422 H 0.62524 0.08173 0.0913 0.0
H1423 H 0.63616 0.07659 0.11201 0.0
H1424 H 0.64633 0.08583 0.08635 0.0
H1425 H 0.58172 0.00354 0.07159 0.0
H1426 H 0.58398 0.01179 0.09986 0.0
H1427 H 0.5764 0.01986 0.07823 0.0
H1428 H 0.58824 0.0417 0.15871 0.0
H1429 H 0.56758 0.05816 0.10628 0.0
H1430 H 0.62516 0.04882 0.13069 0.0
H1431 H 0.6087 0.02689 0.12763 0.0
H1432 H 0.61187 0.03841 0.15387 0.0
H1433 H 0.60036 0.06776 0.06703 0.0
H1434 H 0.57968 0.06515 0.07073 0.0
H1435 H 0.58198 0.04713 0.06226 0.0
C1436 C 0.98808 0.62433 0.08356 0.0
C1437 C 0.97931 0.62291 0.0635 0.0
C1438 C 0.98698 0.60981 0.09335 0.0
C1439 C 0.97713 0.59349 0.08256 0.0
C1440 C 0.9682 0.59196 0.06229 0.0
C1441 C 0.96926 0.6067 0.0531 0.0
C1442 C 0.99644 0.61195 0.11519 0.0
C1443 C 0.95782 0.57482 0.05012 0.0
C1444 C 0.98906 0.56027 0.0986 0.0
C1445 C 0.97665 0.55064 0.11388 0.0
C1446 C 0.989 0.57387 0.08763 0.0
C1447 C 0.97642 0.57814 0.09247 0.0
C1448 C 0.96376 0.56832 0.10774 0.0
C1449 C 0.96394 0.55458 0.11812 0.0
C1450 C 0.00254 0.58384 0.07116 0.0
C1451 C 0.95034 0.57268 0.11366 0.0
H1452 H 0.99579 0.63684 0.09172 0.0
H1453 H 0.96257 0.60559 0.03748 0.0
H1454 H 0.9876 0.60358 0.12785 0.0
H1455 H 0.00597 0.60792 0.11286 0.0
H1456 H 0.00299 0.62542 0.12185 0.0
H1457 H 0.95154 0.57578 0.03463 0.0
H1458 H 0.96602 0.56947 0.04562 0.0
H1459 H 0.94802 0.56556 0.06116 0.0
H1460 H 0.9988 0.5571 0.0952 0.0
H1461 H 0.95443 0.54721 0.13011 0.0
H1462 H 0.01066 0.59726 0.07756 0.0
H1463 H 0.99673 0.58437 0.055 0.0
H1464 H 0.01065 0.57812 0.06808 0.0
H1465 H 0.95634 0.5857 0.12172 0.0
H1466 H 0.94103 0.56339 0.12521 0.0
H1467 H 0.94351 0.57292 0.09833 0.0
C1468 C 0.40384 0.37861 0.01402 0.0
C1469 C 0.38634 0.37117 0.01637 0.0
C1470 C 0.41509 0.38591 0.03247 0.0
C1471 C 0.40873 0.38569 0.05391 0.0
C1472 C 0.39108 0.37768 0.0566 0.0
C1473 C 0.38009 0.37057 0.03779 0.0
C1474 C 0.43383 0.39437 0.02887 0.0
C1475 C 0.38382 0.37706 0.07924 0.0
C1476 C 0.43914 0.39522 0.10335 0.0
C1477 C 0.44508 0.41272 0.10776 0.0
C1478 C 0.42694 0.3861 0.08629 0.0
C1479 C 0.42067 0.39473 0.0732 0.0
C1480 C 0.42645 0.41233 0.0778 0.0
C1481 C 0.43854 0.42109 0.09504 0.0
C1482 C 0.42098 0.3673 0.08201 0.0
C1483 C 0.4202 0.42206 0.0641 0.0
H1484 H 0.40886 0.37916 0.9976 0.0
H1485 H 0.36661 0.3648 0.03986 0.0
H1486 H 0.43992 0.40831 0.03312 0.0
H1487 H 0.43961 0.38895 0.04008 0.0
H1488 H 0.4367 0.39275 0.01134 0.0
H1489 H 0.36982 0.36928 0.0788 0.0
H1490 H 0.38889 0.37162 0.09154 0.0
H1491 H 0.38764 0.39028 0.08531 0.0
H1492 H 0.44403 0.38865 0.1133 0.0
H1493 H 0.44324 0.43466 0.09817 0.0
H1494 H 0.42462 0.36534 0.06511 0.0
H1495 H 0.40701 0.35967 0.08242 0.0
H1496 H 0.42637 0.36225 0.09447 0.0
H1497 H 0.42376 0.4222 0.04645 0.0
H1498 H 0.42547 0.43553 0.07036 0.0
H1499 H 0.40623 0.41556 0.06425 0.0
C1500 C 0.63701 0.6876 0.36864 0.0
C1501 C 0.65322 0.69051 0.36428 0.0
C1502 C 0.63436 0.69639 0.38631 0.0
C1503 C 0.64833 0.7088 0.39948 0.0
C1504 C 0.66461 0.71117 0.39582 0.0
C1505 C 0.66682 0.70182 0.37842 0.0
C1506 C 0.61673 0.69307 0.39007 0.0
C1507 C 0.6799 0.72451 0.40915 0.0
C1508 C 0.64432 0.74633 0.42193 0.0
C1509 C 0.64155 0.7427 0.44458 0.0
C1510 C 0.64687 0.73556 0.40723 0.0
C1511 C 0.64618 0.72053 0.41528 0.0
C1512 C 0.6432 0.71672 0.43817 0.0
C1513 C 0.64116 0.72801 0.45265 0.0
C1514 C 0.65037 0.74032 0.38308 0.0
C1515 C 0.64194 0.70061 0.44726 0.0
H1516 H 0.62646 0.67879 0.35779 0.0
H1517 H 0.6794 0.70424 0.37494 0.0
H1518 H 0.61392 0.69152 0.4081 0.0
H1519 H 0.6157 0.70423 0.38461 0.0
H1520 H 0.60702 0.68142 0.38063 0.0
H1521 H 0.69132 0.72358 0.40583 0.0
H1522 H 0.68248 0.73751 0.40477 0.0
H1523 H 0.67756 0.7232 0.4273 0.0
H1524 H 0.64476 0.7578 0.41581 0.0
H1525 H 0.63896 0.72523 0.4702 0.0
H1526 H 0.64017 0.73031 0.37209 0.0
H1527 H 0.66235 0.74098 0.37837 0.0
H1528 H 0.65131 0.75286 0.37976 0.0
H1529 H 0.63158 0.68917 0.43829 0.0
H1530 H 0.63951 0.69949 0.46544 0.0
H1531 H 0.65377 0.70042 0.44437 0.0
C1532 C 0.29037 0.92635 0.39945 0.0
C1533 C 0.29506 0.94248 0.40917 0.0
C1534 C 0.27941 0.91123 0.41027 0.0
C1535 C 0.27332 0.91236 0.43146 0.0
C1536 C 0.27815 0.92863 0.4414 0.0
C1537 C 0.28884 0.94349 0.43003 0.0
C1538 C 0.27425 0.89408 0.39902 0.0
C1539 C 0.27212 0.93034 0.46412 0.0
C1540 C 0.23337 0.87549 0.45359 0.0
C1541 C 0.2399 0.86829 0.46842 0.0
C1542 C 0.24411 0.88947 0.4408 0.0
C1543 C 0.26179 0.89657 0.44329 0.0
C1544 C 0.26843 0.88916 0.45804 0.0
C1545 C 0.25736 0.87496 0.47031 0.0
C1546 C 0.23656 0.89683 0.42496 0.0
C1547 C 0.28722 0.89659 0.46141 0.0
H1548 H 0.2951 0.92555 0.38327 0.0
H1549 H 0.29256 0.95595 0.43768 0.0
H1550 H 0.27814 0.88664 0.40967 0.0
H1551 H 0.2603 0.88648 0.39685 0.0
H1552 H 0.27991 0.89542 0.38239 0.0
H1553 H 0.27739 0.94396 0.46974 0.0
H1554 H 0.25815 0.92399 0.46373 0.0
H1555 H 0.27578 0.92381 0.47668 0.0
H1556 H 0.21982 0.87015 0.45202 0.0
H1557 H 0.26235 0.8694 0.4819 0.0
H1558 H 0.24157 0.89764 0.40801 0.0
H1559 H 0.24019 0.91007 0.43066 0.0
H1560 H 0.22256 0.88904 0.42379 0.0
H1561 H 0.29311 0.89727 0.44516 0.0
H1562 H 0.29031 0.88892 0.47285 0.0
H1563 H 0.293 0.9099 0.46849 0.0
C1564 C 0.04519 0.34375 0.37372 0.0
C1565 C 0.05219 0.34352 0.35313 0.0
C1566 C 0.05477 0.34773 0.39378 0.0
C1567 C 0.07163 0.35116 0.39326 0.0
C1568 C 0.07891 0.35146 0.37247 0.0
C1569 C 0.06916 0.34781 0.35264 0.0
C1570 C 0.04668 0.3477 0.41555 0.0
C1571 C 0.09676 0.35479 0.37122 0.0
C1572 C 0.10287 0.37106 0.44256 0.0
C1573 C 0.10221 0.35652 0.45175 0.0
C1574 C 0.09241 0.3695 0.42413 0.0
C1575 C 0.08125 0.35304 0.41444 0.0
C1576 C 0.08001 0.33829 0.42423 0.0
C1577 C 0.09033 0.3402 0.44289 0.0
C1578 C 0.09379 0.3855 0.41449 0.0
C1579 C 0.06834 0.3205 0.41437 0.0
H1580 H 0.03211 0.34058 0.37421 0.0
H1581 H 0.07462 0.34757 0.33681 0.0
H1582 H 0.04492 0.33666 0.42544 0.0
H1583 H 0.055 0.35956 0.42567 0.0
H1584 H 0.0342 0.34673 0.41291 0.0
H1585 H 0.10081 0.35536 0.35372 0.0
H1586 H 0.10565 0.36705 0.38016 0.0
H1587 H 0.09775 0.34443 0.3796 0.0
H1588 H 0.11204 0.38374 0.44914 0.0
H1589 H 0.0894 0.32886 0.4502 0.0
H1590 H 0.08107 0.38392 0.41175 0.0
H1591 H 0.09977 0.38774 0.39801 0.0
H1592 H 0.10145 0.39704 0.42552 0.0
H1593 H 0.05521 0.31805 0.41317 0.0
H1594 H 0.06847 0.31032 0.42441 0.0
H1595 H 0.07214 0.31947 0.39717 0.0
C1596 C 0.03227 0.28151 0.29354 0.0
C1597 C 0.02725 0.29176 0.2822 0.0
C1598 C 0.0437 0.27727 0.28397 0.0
C1599 C 0.05002 0.28334 0.26259 0.0
C1600 C 0.04428 0.29296 0.25071 0.0
C1601 C 0.03304 0.29709 0.2607 0.0
C1602 C 0.04958 0.267 0.29709 0.0
C1603 C 0.05056 0.29954 0.22778 0.0
C1604 C 0.09326 0.2941 0.24395 0.0
C1605 C 0.08931 0.28095 0.22796 0.0
C1606 C 0.08066 0.2943 0.25665 0.0
C1607 C 0.06368 0.28108 0.25312 0.0
C1608 C 0.05976 0.26721 0.23797 0.0
C1609 C 0.07267 0.26728 0.22557 0.0
C1610 C 0.08539 0.30924 0.2728 0.0
C1611 C 0.04181 0.25292 0.23374 0.0
H1612 H 0.02779 0.27737 0.31017 0.0
H1613 H 0.02897 0.3048 0.25173 0.0
H1614 H 0.04892 0.25643 0.28647 0.0
H1615 H 0.06296 0.27541 0.30258 0.0
H1616 H 0.04197 0.26148 0.31211 0.0
H1617 H 0.04393 0.30578 0.22018 0.0
H1618 H 0.06426 0.30905 0.22896 0.0
H1619 H 0.04884 0.28887 0.21642 0.0
H1620 H 0.1062 0.30449 0.24612 0.0
H1621 H 0.06963 0.25709 0.21323 0.0
H1622 H 0.07947 0.30461 0.28911 0.0
H1623 H 0.08063 0.31748 0.26609 0.0
H1624 H 0.09927 0.31726 0.27564 0.0
H1625 H 0.03529 0.24835 0.24972 0.0
H1626 H 0.04118 0.24186 0.22427 0.0
H1627 H 0.03479 0.2578 0.22394 0.0
C1628 C 0.6778 0.71861 0.28049 0.0
C1629 C 0.6914 0.71642 0.28674 0.0
C1630 C 0.68043 0.73369 0.27053 0.0
C1631 C 0.69708 0.74682 0.26639 0.0
C1632 C 0.71091 0.74481 0.27297 0.0
C1633 C 0.7079 0.72968 0.28328 0.0
C1634 C 0.66535 0.73546 0.26419 0.0
C1635 C 0.72882 0.75843 0.26857 0.0
C1636 C 0.70039 0.77617 0.21975 0.0
C1637 C 0.70222 0.79056 0.23174 0.0
C1638 C 0.69935 0.76211 0.23084 0.0
C1639 C 0.69986 0.76234 0.2545 0.0
C1640 C 0.70203 0.777 0.26669 0.0
C1641 C 0.70333 0.79102 0.25514 0.0
C1642 C 0.6973 0.74684 0.21722 0.0
C1643 C 0.70238 0.77763 0.29192 0.0
H1644 H 0.66507 0.70863 0.28354 0.0
H1645 H 0.71845 0.72803 0.28806 0.0
H1646 H 0.66676 0.74746 0.27184 0.0
H1647 H 0.66459 0.73637 0.2458 0.0
H1648 H 0.6533 0.72446 0.26957 0.0
H1649 H 0.73819 0.75515 0.27532 0.0
H1650 H 0.73047 0.76013 0.25031 0.0
H1651 H 0.73157 0.77094 0.27617 0.0
H1652 H 0.69972 0.7759 0.20164 0.0
H1653 H 0.70462 0.80211 0.26441 0.0
H1654 H 0.68478 0.73549 0.22013 0.0
H1655 H 0.70701 0.7436 0.22253 0.0
H1656 H 0.69835 0.74919 0.19902 0.0
H1657 H 0.69002 0.76759 0.29796 0.0
H1658 H 0.70503 0.7903 0.29889 0.0
H1659 H 0.71211 0.77486 0.29859 0.0
C1660 C 0.28226 0.96853 0.31299 0.0
C1661 C 0.27514 0.96787 0.3338 0.0
C1662 C 0.27208 0.96167 0.29347 0.0
C1663 C 0.25433 0.9539 0.29477 0.0
C1664 C 0.24711 0.95371 0.31555 0.0
C1665 C 0.25758 0.96073 0.33478 0.0
C1666 C 0.28027 0.96224 0.27159 0.0
C1667 C 0.22823 0.94552 0.31764 0.0
C1668 C 0.22689 0.94487 0.24213 0.0
C1669 C 0.22114 0.92739 0.23781 0.0
C1670 C 0.23793 0.95377 0.2604 0.0
C1671 C 0.24324 0.94496 0.27475 0.0
C1672 C 0.23759 0.92736 0.27033 0.0
C1673 C 0.22665 0.91881 0.25192 0.0
C1674 C 0.24378 0.97256 0.26447 0.0
C1675 C 0.24286 0.91745 0.28531 0.0
H1676 H 0.29581 0.97409 0.31197 0.0
H1677 H 0.25191 0.96016 0.35071 0.0
H1678 H 0.27657 0.949 0.26578 0.0
H1679 H 0.27583 0.96778 0.25857 0.0
H1680 H 0.29426 0.96991 0.27305 0.0
H1681 H 0.22467 0.94734 0.3347 0.0
H1682 H 0.22308 0.95097 0.30548 0.0
H1683 H 0.22213 0.93154 0.31366 0.0
H1684 H 0.22278 0.95159 0.23117 0.0
H1685 H 0.22205 0.90525 0.2489 0.0
H1686 H 0.25777 0.98016 0.26505 0.0
H1687 H 0.23946 0.97449 0.28091 0.0
H1688 H 0.23894 0.97768 0.25134 0.0
H1689 H 0.25682 0.92373 0.28638 0.0
H1690 H 0.23764 0.90393 0.27929 0.0
H1691 H 0.23849 0.91746 0.30249 0.0
C1692 C 0.6753 0.96985 0.30443 0.0
C1693 C 0.68198 0.9702 0.32584 0.0
C1694 C 0.67774 0.96121 0.28629 0.0
C1695 C 0.68688 0.95254 0.28972 0.0
C1696 C 0.69417 0.95339 0.31107 0.0
C1697 C 0.69174 0.96229 0.32878 0.0
C1698 C 0.67004 0.96086 0.26367 0.0
C1699 C 0.70389 0.94422 0.31552 0.0
C1700 C 0.6773 0.91336 0.25352 0.0
C1701 C 0.69155 0.91976 0.24028 0.0
C1702 C 0.6754 0.92402 0.26921 0.0
C1703 C 0.68795 0.94159 0.27152 0.0
C1704 C 0.70206 0.94828 0.25759 0.0
C1705 C 0.70376 0.93725 0.24226 0.0
C1706 C 0.66028 0.91631 0.28395 0.0
C1707 C 0.71556 0.96698 0.25927 0.0
H1708 H 0.6678 0.97596 0.30192 0.0
H1709 H 0.69697 0.96242 0.3452 0.0
H1710 H 0.67959 0.96447 0.2506 0.0
H1711 H 0.65969 0.94764 0.25938 0.0
H1712 H 0.66485 0.96967 0.26318 0.0
H1713 H 0.70943 0.9468 0.33278 0.0
H1714 H 0.69539 0.93017 0.31299 0.0
H1715 H 0.71423 0.94818 0.30356 0.0
H1716 H 0.66792 0.89982 0.25219 0.0
H1717 H 0.71471 0.94227 0.23186 0.0
H1718 H 0.65352 0.92363 0.28289 0.0
H1719 H 0.66453 0.91715 0.30163 0.0
H1720 H 0.65127 0.90264 0.27933 0.0
H1721 H 0.70978 0.97524 0.25832 0.0
H1722 H 0.72486 0.97049 0.24586 0.0
H1723 H 0.72239 0.96984 0.27568 0.0
C1724 C 0.03357 0.74918 0.28042 0.0
C1725 C 0.03985 0.73793 0.28286 0.0
C1726 C 0.04254 0.76437 0.26868 0.0
C1727 C 0.05824 0.76845 0.2596 0.0
C1728 C 0.06502 0.75756 0.26312 0.0
C1729 C 0.05567 0.74237 0.27458 0.0
C1730 C 0.03486 0.7756 0.26509 0.0
C1731 C 0.08191 0.76166 0.25413 0.0
C1732 C 0.07514 0.79449 0.20791 0.0
C1733 C 0.08792 0.81018 0.2171 0.0
C1734 C 0.06463 0.78112 0.22168 0.0
C1735 C 0.06721 0.78345 0.24518 0.0
C1736 C 0.07958 0.79956 0.25456 0.0
C1737 C 0.08975 0.81281 0.24036 0.0
C1738 C 0.05138 0.76421 0.21105 0.0
C1739 C 0.08281 0.80247 0.2795 0.0
H1740 H 0.02129 0.74572 0.2868 0.0
H1741 H 0.06074 0.73393 0.27691 0.0
H1742 H 0.04411 0.78916 0.26978 0.0
H1743 H 0.03147 0.77513 0.24711 0.0
H1744 H 0.02332 0.77146 0.27489 0.0
H1745 H 0.08595 0.75255 0.25977 0.0
H1746 H 0.08121 0.76115 0.2356 0.0
H1747 H 0.09174 0.77486 0.25953 0.0
H1748 H 0.07367 0.79255 0.18989 0.0
H1749 H 0.09975 0.82492 0.24745 0.0
H1750 H 0.03906 0.75972 0.21899 0.0
H1751 H 0.05506 0.75435 0.21367 0.0
H1752 H 0.04973 0.76511 0.19279 0.0
H1753 H 0.0708 0.79788 0.28828 0.0
H1754 H 0.09139 0.81623 0.28421 0.0
H1755 H 0.08865 0.79501 0.28554 0.0
C1756 C 0.2652 0.31783 0.33793 0.0
C1757 C 0.2826 0.32462 0.33569 0.0
C1758 C 0.25424 0.3127 0.31909 0.0
C1759 C 0.2608 0.31411 0.29749 0.0
C1760 C 0.27822 0.3201 0.29517 0.0
C1761 C 0.28894 0.32543 0.31429 0.0
C1762 C 0.23578 0.30657 0.32226 0.0
C1763 C 0.28563 0.32149 0.27246 0.0
C1764 C 0.22833 0.29113 0.2501 0.0
C1765 C 0.22625 0.3045 0.24201 0.0
C1766 C 0.24002 0.29415 0.26761 0.0
C1767 C 0.24969 0.31087 0.27739 0.0
C1768 C 0.2481 0.32452 0.26871 0.0
C1769 C 0.23655 0.32119 0.25102 0.0
C1770 C 0.2416 0.27934 0.27615 0.0
C1771 C 0.25814 0.34255 0.27867 0.0
H1772 H 0.26019 0.3172 0.35439 0.0
H1773 H 0.30235 0.3305 0.31242 0.0
H1774 H 0.23256 0.31585 0.315 0.0
H1775 H 0.22782 0.29403 0.31333 0.0
H1776 H 0.23249 0.30518 0.34016 0.0
H1777 H 0.29896 0.32447 0.27365 0.0
H1778 H 0.27812 0.30934 0.26251 0.0
H1779 H 0.28517 0.33179 0.26319 0.0
H1780 H 0.22039 0.27818 0.24332 0.0
H1781 H 0.23534 0.33168 0.24451 0.0
H1782 H 0.23658 0.27634 0.29321 0.0
H1783 H 0.25506 0.28284 0.27734 0.0
H1784 H 0.23458 0.26759 0.26526 0.0
H1785 H 0.25483 0.34268 0.29638 0.0
H1786 H 0.25577 0.3518 0.26956 0.0
H1787 H 0.27184 0.34703 0.27846 0.0
C1788 C 0.30497 0.37558 0.42777 0.0
C1789 C 0.30641 0.377 0.40459 0.0
C1790 C 0.29278 0.3777 0.43881 0.0
C1791 C 0.28143 0.38081 0.42622 0.0
C1792 C 0.28328 0.38298 0.40286 0.0
C1793 C 0.29596 0.38124 0.3923 0.0
C1794 C 0.29148 0.37569 0.46381 0.0
C1795 C 0.27119 0.38597 0.38885 0.0
C1796 C 0.23878 0.3623 0.45234 0.0
C1797 C 0.23948 0.37693 0.46222 0.0
C1798 C 0.25202 0.36356 0.43965 0.0
C1799 C 0.2666 0.3798 0.43727 0.0
C1800 C 0.26742 0.39467 0.44698 0.0
C1801 C 0.25377 0.39308 0.45917 0.0
C1802 C 0.2506 0.34741 0.42936 0.0
C1803 C 0.2829 0.41215 0.44506 0.0
H1804 H 0.3132 0.37243 0.43725 0.0
H1805 H 0.29704 0.38221 0.37432 0.0
H1806 H 0.2905 0.38634 0.47189 0.0
H1807 H 0.27988 0.36353 0.46757 0.0
H1808 H 0.3025 0.37542 0.4714 0.0
H1809 H 0.27553 0.38942 0.37152 0.0
H1810 H 0.25863 0.37411 0.38806 0.0
H1811 H 0.26953 0.39632 0.39652 0.0
H1812 H 0.228 0.34972 0.45492 0.0
H1813 H 0.25434 0.4045 0.46636 0.0
H1814 H 0.2599 0.34468 0.43765 0.0
H1815 H 0.25356 0.34912 0.41138 0.0
H1816 H 0.23781 0.33607 0.43095 0.0
H1817 H 0.29382 0.41238 0.45375 0.0
H1818 H 0.28116 0.42256 0.45245 0.0
H1819 H 0.28615 0.41486 0.42728 0.0
C1820 C 0.65358 0.94267 0.40136 0.0
C1821 C 0.6399 0.94517 0.39709 0.0
C1822 C 0.65132 0.92778 0.41141 0.0
C1823 C 0.63497 0.91515 0.41759 0.0
C1824 C 0.621 0.91741 0.41281 0.0
C1825 C 0.62363 0.93236 0.40237 0.0
C1826 C 0.66649 0.92571 0.41574 0.0
C1827 C 0.60342 0.90429 0.41935 0.0
C1828 C 0.6291 0.87127 0.42972 0.0
C1829 C 0.63198 0.87264 0.45292 0.0
C1830 C 0.62957 0.88484 0.41799 0.0
C1831 C 0.63275 0.9 0.42985 0.0
C1832 C 0.63504 0.90116 0.4534 0.0
C1833 C 0.63475 0.88751 0.46463 0.0
C1834 C 0.62731 0.88322 0.39286 0.0
C1835 C 0.63825 0.91701 0.46668 0.0
H1836 H 0.66608 0.95228 0.39662 0.0
H1837 H 0.61304 0.93429 0.39899 0.0
H1838 H 0.66859 0.92544 0.43399 0.0
H1839 H 0.66424 0.91332 0.40828 0.0
H1840 H 0.67818 0.93626 0.40879 0.0
H1841 H 0.59382 0.90759 0.41359 0.0
H1842 H 0.59997 0.89143 0.41227 0.0
H1843 H 0.60298 0.90336 0.4378 0.0
H1844 H 0.62706 0.85981 0.42065 0.0
H1845 H 0.63676 0.88847 0.48263 0.0
H1846 H 0.63922 0.89271 0.38518 0.0
H1847 H 0.6174 0.88614 0.38744 0.0
H1848 H 0.62382 0.87019 0.38631 0.0
H1849 H 0.65056 0.92806 0.4622 0.0
H1850 H 0.63846 0.91534 0.48499 0.0
H1851 H 0.62838 0.92031 0.46253 0.0
C1852 C 0.0784 0.71675 0.35396 0.0
C1853 C 0.06072 0.70835 0.35454 0.0
C1854 C 0.08843 0.72268 0.37367 0.0
C1855 C 0.08063 0.72003 0.39457 0.0
C1856 C 0.0628 0.71097 0.39538 0.0
C1857 C 0.05305 0.7053 0.37536 0.0
C1858 C 0.10741 0.73237 0.37207 0.0
C1859 C 0.05402 0.70772 0.41735 0.0
C1860 C 0.10866 0.72691 0.44592 0.0
C1861 C 0.11337 0.74376 0.45273 0.0
C1862 C 0.09757 0.71877 0.42744 0.0
C1863 C 0.0912 0.72779 0.41535 0.0
C1864 C 0.09566 0.74468 0.42243 0.0
C1865 C 0.10663 0.75242 0.44105 0.0
C1866 C 0.09295 0.70068 0.42056 0.0
C1867 C 0.08929 0.75481 0.4099 0.0
H1868 H 0.08449 0.71919 0.33802 0.0
H1869 H 0.03941 0.69874 0.37604 0.0
H1870 H 0.11253 0.74581 0.37833 0.0
H1871 H 0.11306 0.72651 0.38272 0.0
H1872 H 0.11151 0.73259 0.35466 0.0
H1873 H 0.04014 0.69922 0.41528 0.0
H1874 H 0.05899 0.70177 0.42903 0.0
H1875 H 0.0566 0.72009 0.42524 0.0
H1876 H 0.11372 0.72011 0.45501 0.0
H1877 H 0.11041 0.76554 0.44602 0.0
H1878 H 0.09799 0.7006 0.40387 0.0
H1879 H 0.07903 0.69236 0.41913 0.0
H1880 H 0.09801 0.69502 0.4326 0.0
H1881 H 0.094 0.75684 0.39264 0.0
H1882 H 0.0934 0.76753 0.41809 0.0
H1883 H 0.07531 0.74754 0.40856 0.0
C1884 C 0.32418 0.03069 0.71517 0.0
C1885 C 0.31776 0.03013 0.69351 0.0
C1886 C 0.32144 0.03942 0.73292 0.0
C1887 C 0.31228 0.04799 0.72885 0.0
C1888 C 0.30522 0.0469 0.70725 0.0
C1889 C 0.30794 0.03791 0.68995 0.0
C1890 C 0.32889 0.04003 0.75582 0.0
C1891 C 0.2955 0.05597 0.70211 0.0
C1892 C 0.29512 0.06401 0.77519 0.0
C1893 C 0.30742 0.08148 0.77696 0.0
C1894 C 0.29686 0.05276 0.76029 0.0
C1895 C 0.31108 0.0592 0.74655 0.0
C1896 C 0.32366 0.07677 0.74859 0.0
C1897 C 0.32173 0.08765 0.76386 0.0
C1898 C 0.28332 0.03407 0.75888 0.0
C1899 C 0.33888 0.08423 0.73403 0.0
H1900 H 0.33171 0.02468 0.71817 0.0
H1901 H 0.30289 0.03761 0.67334 0.0
H1902 H 0.33925 0.05327 0.75997 0.0
H1903 H 0.31922 0.03661 0.76867 0.0
H1904 H 0.33403 0.03119 0.75684 0.0
H1905 H 0.29007 0.05312 0.68478 0.0
H1906 H 0.28509 0.05219 0.71389 0.0
H1907 H 0.30398 0.07005 0.70431 0.0
H1908 H 0.28412 0.05917 0.78547 0.0
H1909 H 0.33117 0.10117 0.76501 0.0
H1910 H 0.28905 0.0258 0.76045 0.0
H1911 H 0.27667 0.03098 0.74232 0.0
H1912 H 0.27387 0.03078 0.77206 0.0
H1913 H 0.34565 0.07696 0.73569 0.0
H1914 H 0.34786 0.09798 0.73832 0.0
H1915 H 0.33476 0.08308 0.71624 0.0
C1916 C 0.94738 0.26015 0.74539 0.0
C1917 C 0.96351 0.26491 0.738 0.0
C1918 C 0.93796 0.24496 0.75683 0.0
C1919 C 0.94495 0.23436 0.76119 0.0
C1920 C 0.96097 0.23873 0.75294 0.0
C1921 C 0.97003 0.25394 0.74123 0.0
C1922 C 0.92075 0.24057 0.76492 0.0
C1923 C 0.96886 0.2278 0.75738 0.0
C1924 C 0.92742 0.20838 0.81285 0.0
C1925 C 0.91507 0.1925 0.80355 0.0
C1926 C 0.93793 0.22184 0.79918 0.0
C1927 C 0.93584 0.2194 0.77565 0.0
C1928 C 0.92388 0.20314 0.76618 0.0
C1929 C 0.91367 0.18982 0.78028 0.0
C1930 C 0.95071 0.23892 0.80992 0.0
C1931 C 0.92117 0.20009 0.74119 0.0
H1932 H 0.94212 0.26835 0.74235 0.0
H1933 H 0.98253 0.25763 0.7355 0.0
H1934 H 0.91122 0.22729 0.7594 0.0
H1935 H 0.921 0.24114 0.78345 0.0
H1936 H 0.91664 0.24949 0.75871 0.0
H1937 H 0.98067 0.23211 0.74815 0.0
H1938 H 0.97183 0.22837 0.77552 0.0
H1939 H 0.95989 0.21417 0.75261 0.0
H1940 H 0.92862 0.21037 0.83086 0.0
H1941 H 0.90402 0.17757 0.77308 0.0
H1942 H 0.94687 0.24858 0.80658 0.0
H1943 H 0.96326 0.24357 0.80263 0.0
H1944 H 0.95193 0.23819 0.8283 0.0
H1945 H 0.91535 0.20741 0.73455 0.0
H1946 H 0.9128 0.1863 0.73649 0.0
H1947 H 0.9334 0.20478 0.73294 0.0
C1948 C 0.73695 0.68097 0.69255 0.0
C1949 C 0.71941 0.67397 0.69307 0.0
C1950 C 0.74682 0.68526 0.71232 0.0
C1951 C 0.73903 0.68284 0.7332 0.0
C1952 C 0.72142 0.67636 0.73389 0.0
C1953 C 0.71176 0.6718 0.7138 0.0
C1954 C 0.76552 0.69185 0.71084 0.0
C1955 C 0.71275 0.67399 0.75582 0.0
C1956 C 0.76331 0.67653 0.78025 0.0
C1957 C 0.77351 0.69339 0.78882 0.0
C1958 C 0.75142 0.67276 0.76286 0.0
C1959 C 0.74934 0.68609 0.75414 0.0
C1960 C 0.75857 0.70286 0.76392 0.0
C1961 C 0.77067 0.70635 0.78103 0.0
C1962 C 0.74193 0.65472 0.75283 0.0
C1963 C 0.7564 0.71733 0.75544 0.0
H1964 H 0.74295 0.6826 0.67663 0.0
H1965 H 0.69823 0.66652 0.71432 0.0
H1966 H 0.77281 0.70447 0.71981 0.0
H1967 H 0.76874 0.68286 0.71903 0.0
H1968 H 0.76966 0.69329 0.69329 0.0
H1969 H 0.69928 0.67032 0.75345 0.0
H1970 H 0.71337 0.66383 0.76524 0.0
H1971 H 0.7193 0.686 0.76628 0.0
H1972 H 0.76507 0.66633 0.78661 0.0
H1973 H 0.77847 0.71942 0.78748 0.0
H1974 H 0.74612 0.65468 0.73556 0.0
H1975 H 0.7282 0.65007 0.75176 0.0
H1976 H 0.744 0.64557 0.76264 0.0
H1977 H 0.76227 0.72116 0.73894 0.0
H1978 H 0.76237 0.72878 0.76701 0.0
H1979 H 0.74282 0.71313 0.75309 0.0
C1980 C 0.7115 0.63702 0.60168 0.0
C1981 C 0.69915 0.62574 0.61598 0.0
C1982 C 0.7219 0.63234 0.59039 0.0
C1983 C 0.7196 0.61573 0.59291 0.0
C1984 C 0.70703 0.60411 0.60709 0.0
C1985 C 0.69703 0.60933 0.61867 0.0
C1986 C 0.73537 0.64525 0.57571 0.0
C1987 C 0.70399 0.58616 0.60973 0.0
C1988 C 0.73932 0.60518 0.54482 0.0
C1989 C 0.75544 0.61041 0.55396 0.0
C1990 C 0.72681 0.60522 0.558 0.0
C1991 C 0.73065 0.61091 0.58067 0.0
C1992 C 0.74642 0.61486 0.59039 0.0
C1993 C 0.75856 0.61438 0.57696 0.0
C1994 C 0.70998 0.60052 0.54716 0.0
C1995 C 0.75108 0.62111 0.61446 0.0
H1996 H 0.71311 0.64958 0.59915 0.0
H1997 H 0.68736 0.60046 0.6295 0.0
H1998 H 0.74793 0.64732 0.58106 0.0
H1999 H 0.73294 0.64029 0.55814 0.0
H2000 H 0.73589 0.65786 0.57625 0.0
H2001 H 0.69384 0.57874 0.62158 0.0
H2002 H 0.70044 0.57919 0.59326 0.0
H2003 H 0.71574 0.58662 0.61576 0.0
H2004 H 0.73676 0.60206 0.52709 0.0
H2005 H 0.77082 0.61791 0.58429 0.0
H2006 H 0.70956 0.6124 0.54393 0.0
H2007 H 0.69952 0.59265 0.55836 0.0
H2008 H 0.70779 0.59332 0.531 0.0
H2009 H 0.75325 0.63437 0.61619 0.0
H2010 H 0.76273 0.62124 0.6203 0.0
H2011 H 0.74068 0.61296 0.62556 0.0
C2012 C 0.34757 0.05737 0.61831 0.0
C2013 C 0.3611 0.05474 0.6232 0.0
C2014 C 0.35014 0.07231 0.60806 0.0
C2015 C 0.36665 0.08485 0.60232 0.0
C2016 C 0.38044 0.08245 0.60767 0.0
C2017 C 0.37751 0.06746 0.6183 0.0
C2018 C 0.33513 0.07454 0.6031 0.0
C2019 C 0.3982 0.09548 0.60162 0.0
C2020 C 0.36817 0.11302 0.55514 0.0
C2021 C 0.37093 0.12789 0.56685 0.0
C2022 C 0.36743 0.09918 0.56644 0.0
C2023 C 0.36924 0.10015 0.59005 0.0
C2024 C 0.37238 0.11528 0.60192 0.0
C2025 C 0.3733 0.12904 0.59014 0.0
C2026 C 0.36428 0.08335 0.55316 0.0
C2027 C 0.37414 0.1167 0.6271 0.0
H2028 H 0.33496 0.04785 0.62275 0.0
H2029 H 0.38798 0.06543 0.62215 0.0
H2030 H 0.33733 0.0869 0.61056 0.0
H2031 H 0.33343 0.07496 0.58479 0.0
H2032 H 0.32326 0.06398 0.60965 0.0
H2033 H 0.4076 0.092 0.60766 0.0
H2034 H 0.39894 0.09655 0.5832 0.0
H2035 H 0.40167 0.10833 0.60879 0.0
H2036 H 0.36655 0.11222 0.53709 0.0
H2037 H 0.37533 0.1405 0.5992 0.0
H2038 H 0.35183 0.07235 0.55729 0.0
H2039 H 0.37399 0.0799 0.55765 0.0
H2040 H 0.36441 0.08515 0.53485 0.0
H2041 H 0.36205 0.10719 0.63438 0.0
H2042 H 0.37756 0.12971 0.6337 0.0
H2043 H 0.3839 0.11369 0.6329 0.0
C2044 C 0.92294 0.28423 0.66881 0.0
C2045 C 0.9406 0.29265 0.66773 0.0
C2046 C 0.9126 0.2777 0.64941 0.0
C2047 C 0.92005 0.27971 0.62834 0.0
C2048 C 0.93785 0.28882 0.627 0.0
C2049 C 0.94791 0.29513 0.6467 0.0
C2050 C 0.89366 0.26802 0.65156 0.0
C2051 C 0.94627 0.29138 0.60483 0.0
C2052 C 0.89385 0.24591 0.58334 0.0
C2053 C 0.88707 0.25419 0.57089 0.0
C2054 C 0.90482 0.2542 0.60181 0.0
C2055 C 0.9092 0.27124 0.60798 0.0
C2056 C 0.90271 0.27982 0.59519 0.0
C2057 C 0.89166 0.27117 0.57685 0.0
C2058 C 0.91136 0.24454 0.61509 0.0
C2059 C 0.90722 0.29804 0.60112 0.0
H2060 H 0.91713 0.28224 0.68491 0.0
H2061 H 0.96153 0.3017 0.64561 0.0
H2062 H 0.88778 0.27341 0.64045 0.0
H2063 H 0.88852 0.25439 0.6462 0.0
H2064 H 0.88985 0.26847 0.66896 0.0
H2065 H 0.96016 0.3 0.60642 0.0
H2066 H 0.94366 0.27879 0.59765 0.0
H2067 H 0.94104 0.29686 0.5928 0.0
H2068 H 0.89016 0.23272 0.57905 0.0
H2069 H 0.88658 0.27768 0.56715 0.0
H2070 H 0.90689 0.24314 0.63245 0.0
H2071 H 0.92536 0.25185 0.61607 0.0
H2072 H 0.90717 0.23156 0.60769 0.0
H2073 H 0.90251 0.2986 0.61788 0.0
H2074 H 0.9018 0.30319 0.58884 0.0
H2075 H 0.92114 0.3065 0.60197 0.0
C2076 C 0.33571 0.30003 0.63539 0.0
C2077 C 0.3491 0.31165 0.64959 0.0
C2078 C 0.33828 0.29059 0.61847 0.0
C2079 C 0.3547 0.29319 0.61536 0.0
C2080 C 0.36845 0.30592 0.62852 0.0
C2081 C 0.36544 0.3148 0.64571 0.0
C2082 C 0.32322 0.27692 0.60513 0.0
C2083 C 0.38623 0.30948 0.62532 0.0
C2084 C 0.3596 0.25573 0.59501 0.0
C2085 C 0.36258 0.259 0.57231 0.0
C2086 C 0.3567 0.2666 0.60904 0.0
C2087 C 0.35723 0.28135 0.60025 0.0
C2088 C 0.36041 0.2848 0.57732 0.0
C2089 C 0.36282 0.27342 0.56352 0.0
C2090 C 0.35299 0.26222 0.63327 0.0
C2091 C 0.36151 0.30062 0.56747 0.0
H2092 H 0.32302 0.29742 0.63852 0.0
H2093 H 0.37583 0.32384 0.65662 0.0
H2094 H 0.32576 0.27794 0.58703 0.0
H2095 H 0.32074 0.26406 0.61007 0.0
H2096 H 0.31166 0.27772 0.60787 0.0
H2097 H 0.39572 0.32136 0.63456 0.0
H2098 H 0.38742 0.29856 0.63139 0.0
H2099 H 0.3892 0.31075 0.60733 0.0
H2100 H 0.35926 0.24446 0.60169 0.0
H2101 H 0.36518 0.27593 0.54593 0.0
H2102 H 0.34086 0.26143 0.63749 0.0
H2103 H 0.363 0.27251 0.64419 0.0
H2104 H 0.35222 0.24985 0.63719 0.0
H2105 H 0.34954 0.30065 0.56985 0.0
H2106 H 0.36411 0.30146 0.54934 0.0
H2107 H 0.37168 0.31228 0.57629 0.0
C2108 C 0.70283 0.06966 0.61348 0.0
C2109 C 0.70808 0.05761 0.61636 0.0
C2110 C 0.71247 0.08448 0.60132 0.0
C2111 C 0.72785 0.08742 0.59232 0.0
C2112 C 0.7335 0.0756 0.59593 0.0
C2113 C 0.72345 0.06075 0.60774 0.0
C2114 C 0.70593 0.09667 0.5975 0.0
C2115 C 0.75003 0.0785 0.58703 0.0
C2116 C 0.74593 0.11482 0.54181 0.0
C2117 C 0.75851 0.1303 0.55176 0.0
C2118 C 0.73542 0.10094 0.55491 0.0
C2119 C 0.73783 0.10253 0.57845 0.0
C2120 C 0.75034 0.11826 0.58858 0.0
C2121 C 0.76046 0.13204 0.57508 0.0
C2122 C 0.722 0.08446 0.54354 0.0
C2123 C 0.75347 0.12032 0.61359 0.0
H2124 H 0.6909 0.06721 0.62005 0.0
H2125 H 0.72769 0.05164 0.61028 0.0
H2126 H 0.71549 0.10986 0.60333 0.0
H2127 H 0.70362 0.09713 0.57935 0.0
H2128 H 0.69401 0.09283 0.60626 0.0
H2129 H 0.75306 0.06859 0.59243 0.0
H2130 H 0.74951 0.0783 0.5685 0.0
H2131 H 0.76047 0.09131 0.59276 0.0
H2132 H 0.7444 0.11357 0.52375 0.0
H2133 H 0.77033 0.14399 0.58271 0.0
H2134 H 0.70955 0.08039 0.55086 0.0
H2135 H 0.72495 0.07408 0.5463 0.0
H2136 H 0.72097 0.08574 0.52525 0.0
H2137 H 0.74161 0.11688 0.6222 0.0
H2138 H 0.76316 0.13363 0.61889 0.0
H2139 H 0.75777 0.11144 0.61926 0.0
C2140 C 0.95358 0.65539 0.63574 0.0
C2141 C 0.94548 0.65401 0.65593 0.0
C2142 C 0.94475 0.65194 0.61511 0.0
C2143 C 0.92754 0.6474 0.61467 0.0
C2144 C 0.91926 0.64575 0.63501 0.0
C2145 C 0.92828 0.64891 0.65536 0.0
C2146 C 0.95388 0.65344 0.59378 0.0
C2147 C 0.90098 0.6412 0.63529 0.0
C2148 C 0.90737 0.65714 0.56566 0.0
C2149 C 0.8962 0.64063 0.55668 0.0
C2150 C 0.91825 0.65962 0.58389 0.0
C2151 C 0.91827 0.64528 0.59311 0.0
C2152 C 0.90803 0.62875 0.58303 0.0
C2153 C 0.89701 0.62659 0.56504 0.0
C2154 C 0.9289 0.67746 0.59418 0.0
C2155 C 0.90797 0.6132 0.59207 0.0
H2156 H 0.96684 0.65919 0.63606 0.0
H2157 H 0.92194 0.6479 0.67086 0.0
H2158 H 0.94668 0.6416 0.58314 0.0
H2159 H 0.95484 0.66426 0.58413 0.0
H2160 H 0.96681 0.65565 0.59702 0.0
H2161 H 0.89633 0.64014 0.65253 0.0
H2162 H 0.89941 0.65115 0.62672 0.0
H2163 H 0.89293 0.62882 0.62606 0.0
H2164 H 0.90716 0.66812 0.55893 0.0
H2165 H 0.88842 0.61377 0.55832 0.0
H2166 H 0.94223 0.68068 0.59624 0.0
H2167 H 0.92433 0.67799 0.61106 0.0
H2168 H 0.92844 0.6874 0.58398 0.0
H2169 H 0.92106 0.61592 0.59531 0.0
H2170 H 0.90139 0.60185 0.58042 0.0
H2171 H 0.90147 0.60992 0.60821 0.0
C2172 C 0.97309 0.72015 0.73054 0.0
C2173 C 0.9683 0.70283 0.7329 0.0
C2174 C 0.9644 0.72726 0.74142 0.0
C2175 C 0.95047 0.71669 0.75457 0.0
C2176 C 0.94547 0.69916 0.7567 0.0
C2177 C 0.95456 0.69254 0.74608 0.0
C2178 C 0.97027 0.74608 0.73919 0.0
C2179 C 0.93049 0.68734 0.77029 0.0
C2180 C 0.93225 0.73008 0.8016 0.0
C2181 C 0.91702 0.72702 0.79154 0.0
C2182 C 0.94427 0.72853 0.78911 0.0
C2183 C 0.9408 0.72356 0.76617 0.0
C2184 C 0.9262 0.72207 0.75553 0.0
C2185 C 0.91454 0.72396 0.76834 0.0
C2186 C 0.95991 0.73062 0.80094 0.0
C2187 C 0.92199 0.71676 0.73113 0.0
H2188 H 0.98383 0.72824 0.72057 0.0
H2189 H 0.95084 0.67925 0.74822 0.0
H2190 H 0.95976 0.74776 0.73281 0.0
H2191 H 0.97426 0.75272 0.75585 0.0
H2192 H 0.981 0.75244 0.72779 0.0
H2193 H 0.92794 0.67391 0.76962 0.0
H2194 H 0.93274 0.69196 0.78802 0.0
H2195 H 0.91902 0.68737 0.76408 0.0
H2196 H 0.9343 0.73251 0.81951 0.0
H2197 H 0.90299 0.72207 0.76037 0.0
H2198 H 0.9711 0.73751 0.79046 0.0
H2199 H 0.95825 0.71776 0.80407 0.0
H2200 H 0.96241 0.73771 0.81725 0.0
H2201 H 0.93327 0.72387 0.72087 0.0
H2202 H 0.91179 0.71892 0.72462 0.0
H2203 H 0.91772 0.70289 0.72899 0.0
C2204 C 0.32333 0.28346 0.73139 0.0
C2205 C 0.30981 0.28592 0.72577 0.0
C2206 C 0.32064 0.26839 0.74143 0.0
C2207 C 0.30401 0.25556 0.74626 0.0
C2208 C 0.29025 0.25783 0.74024 0.0
C2209 C 0.2933 0.27294 0.72984 0.0
C2210 C 0.33564 0.26631 0.74715 0.0
C2211 C 0.27236 0.24453 0.74537 0.0
C2212 C 0.29719 0.21127 0.7583 0.0
C2213 C 0.29888 0.21215 0.78166 0.0
C2214 C 0.29847 0.22518 0.7465 0.0
C2215 C 0.30122 0.24016 0.75843 0.0
C2216 C 0.3023 0.24082 0.78209 0.0
C2217 C 0.30125 0.22685 0.7934 0.0
C2218 C 0.29751 0.2241 0.72128 0.0
C2219 C 0.30496 0.25644 0.79544 0.0
H2220 H 0.33604 0.29321 0.72777 0.0
H2221 H 0.28281 0.27482 0.72551 0.0
H2222 H 0.33685 0.2657 0.76553 0.0
H2223 H 0.33378 0.25409 0.73966 0.0
H2224 H 0.34764 0.27705 0.74116 0.0
H2225 H 0.26301 0.24793 0.73884 0.0
H2226 H 0.26925 0.23183 0.73805 0.0
H2227 H 0.27109 0.24319 0.76372 0.0
H2228 H 0.29547 0.19993 0.74922 0.0
H2229 H 0.30237 0.22744 0.8115 0.0
H2230 H 0.30979 0.2338 0.71466 0.0
H2231 H 0.28784 0.22706 0.71491 0.0
H2232 H 0.29441 0.21122 0.71457 0.0
H2233 H 0.31751 0.26756 0.79194 0.0
H2234 H 0.3043 0.25441 0.81372 0.0
H2235 H 0.29533 0.25986 0.79041 0.0
C2236 C 0.72048 0.03057 0.71365 0.0
C2237 C 0.72788 0.03187 0.6929 0.0
C2238 C 0.73047 0.03728 0.73338 0.0
C2239 C 0.74827 0.04562 0.73232 0.0
C2240 C 0.75578 0.04655 0.71154 0.0
C2241 C 0.74552 0.0396 0.69215 0.0
C2242 C 0.72199 0.03586 0.75527 0.0
C2243 C 0.77472 0.05543 0.70965 0.0
C2244 C 0.77568 0.08029 0.77578 0.0
C2245 C 0.78199 0.0719 0.78888 0.0
C2246 C 0.76439 0.07175 0.75766 0.0
C2247 C 0.75916 0.05433 0.75259 0.0
C2248 C 0.76511 0.04563 0.76613 0.0
C2249 C 0.77655 0.05455 0.78404 0.0
C2250 C 0.7585 0.08156 0.74351 0.0
C2251 C 0.75968 0.02701 0.76141 0.0
H2252 H 0.70688 0.02455 0.71447 0.0
H2253 H 0.75141 0.04071 0.67625 0.0
H2254 H 0.72664 0.03029 0.76798 0.0
H2255 H 0.72521 0.04884 0.76165 0.0
H2256 H 0.70803 0.0278 0.75358 0.0
H2257 H 0.77855 0.05439 0.69244 0.0
H2258 H 0.78038 0.06924 0.71445 0.0
H2259 H 0.7801 0.04987 0.72131 0.0
H2260 H 0.78002 0.09376 0.77924 0.0
H2261 H 0.78128 0.04798 0.79425 0.0
H2262 H 0.74451 0.07476 0.74242 0.0
H2263 H 0.76299 0.08229 0.72625 0.0
H2264 H 0.76318 0.09483 0.75023 0.0
H2265 H 0.74571 0.01915 0.7604 0.0
H2266 H 0.7645 0.02178 0.77441 0.0
H2267 H 0.76438 0.0256 0.745 0.0
C2268 C 0.06468 0.32603 0.0226 0.0
C2269 C 0.04917 0.32416 0.02889 0.0
C2270 C 0.07402 0.32152 0.03692 0.0
C2271 C 0.06771 0.3149 0.05807 0.0
C2272 C 0.05201 0.31286 0.0645 0.0
C2273 C 0.04293 0.31755 0.04985 0.0
C2274 C 0.09075 0.32397 0.02945 0.0
C2275 C 0.04483 0.30579 0.08688 0.0
C2276 C 0.08667 0.29048 0.08587 0.0
C2277 C 0.09906 0.30319 0.1003 0.0
C2278 C 0.07602 0.29394 0.07251 0.0
C2279 C 0.07781 0.31051 0.07356 0.0
C2280 C 0.08996 0.32323 0.08855 0.0
C2281 C 0.10039 0.3194 0.10175 0.0
C2282 C 0.06319 0.28002 0.05677 0.0
C2283 C 0.09226 0.34104 0.09023 0.0
H2284 H 0.06962 0.33113 0.00646 0.0
H2285 H 0.03094 0.31601 0.05484 0.0
H2286 H 0.10101 0.33301 0.04123 0.0
H2287 H 0.0906 0.31158 0.02966 0.0
H2288 H 0.09379 0.32907 0.01238 0.0
H2289 H 0.03231 0.30466 0.08919 0.0
H2290 H 0.04352 0.29293 0.0886 0.0
H2291 H 0.0536 0.31424 0.10051 0.0
H2292 H 0.08563 0.27796 0.0845 0.0
H2293 H 0.1097 0.3292 0.11317 0.0
H2294 H 0.06647 0.28379 0.03924 0.0
H2295 H 0.05049 0.27835 0.05931 0.0
H2296 H 0.06255 0.2675 0.05908 0.0
H2297 H 0.09646 0.34739 0.07403 0.0
H2298 H 0.1017 0.34921 0.10348 0.0
H2299 H 0.08008 0.34032 0.09381 0.0
C2300 C 0.65469 0.7068 0.07632 0.0
C2301 C 0.66506 0.70172 0.06557 0.0
C2302 C 0.66089 0.72391 0.08339 0.0
C2303 C 0.6779 0.73629 0.07966 0.0
C2304 C 0.68824 0.73145 0.0679 0.0
C2305 C 0.68168 0.71422 0.06093 0.0
C2306 C 0.64939 0.72859 0.09566 0.0
C2307 C 0.70643 0.74432 0.06355 0.0
C2308 C 0.68846 0.78258 0.08744 0.0
C2309 C 0.69435 0.78618 0.10979 0.0
C2310 C 0.68376 0.76664 0.07702 0.0
C2311 C 0.68499 0.75402 0.08926 0.0
C2312 C 0.69169 0.75787 0.11148 0.0
C2313 C 0.69629 0.77391 0.12147 0.0
C2314 C 0.67677 0.76305 0.05328 0.0
C2315 C 0.69323 0.74475 0.12509 0.0
H2316 H 0.64179 0.69729 0.07982 0.0
H2317 H 0.68981 0.71044 0.05265 0.0
H2318 H 0.65421 0.73273 0.11313 0.0
H2319 H 0.64925 0.73953 0.08768 0.0
H2320 H 0.63623 0.71769 0.09603 0.0
H2321 H 0.7123 0.7389 0.05239 0.0
H2322 H 0.7074 0.75589 0.05588 0.0
H2323 H 0.71378 0.74856 0.07962 0.0
H2324 H 0.68717 0.79212 0.07822 0.0
H2325 H 0.70067 0.77654 0.13881 0.0
H2326 H 0.66315 0.75326 0.05308 0.0
H2327 H 0.68317 0.75774 0.043 0.0
H2328 H 0.67822 0.77475 0.04536 0.0
H2329 H 0.68046 0.73387 0.12825 0.0
H2330 H 0.69993 0.75022 0.14143 0.0
H2331 H 0.70007 0.73949 0.11571 0.0
C2332 C 0.29795 0.96909 0.03866 0.0
C2333 C 0.31058 0.96464 0.04034 0.0
C2334 C 0.2841 0.96195 0.05264 0.0
C2335 C 0.2828 0.95001 0.06859 0.0
C2336 C 0.29583 0.946 0.07102 0.0
C2337 C 0.30962 0.95341 0.05688 0.0
C2338 C 0.2705 0.96664 0.04967 0.0
C2339 C 0.29485 0.93329 0.08784 0.0
C2340 C 0.25036 0.93787 0.11371 0.0
C2341 C 0.23688 0.92256 0.10454 0.0
C2342 C 0.26547 0.94697 0.10228 0.0
C2343 C 0.26708 0.94056 0.08124 0.0
C2344 C 0.25352 0.92513 0.07192 0.0
C2345 C 0.23858 0.91637 0.08363 0.0
C2346 C 0.27967 0.96342 0.11266 0.0
C2347 C 0.25473 0.91789 0.04949 0.0
H2348 H 0.29869 0.9779 0.02607 0.0
H2349 H 0.31936 0.94997 0.05835 0.0
H2350 H 0.25872 0.95529 0.04305 0.0
H2351 H 0.26764 0.9705 0.06599 0.0
H2352 H 0.27415 0.97728 0.03797 0.0
H2353 H 0.30669 0.93273 0.08902 0.0
H2354 H 0.2922 0.93666 0.10462 0.0
H2355 H 0.28429 0.9203 0.08299 0.0
H2356 H 0.24916 0.94263 0.12995 0.0
H2357 H 0.22811 0.90472 0.07625 0.0
H2358 H 0.28291 0.97419 0.10138 0.0
H2359 H 0.29114 0.96231 0.11489 0.0
H2360 H 0.27641 0.96666 0.12915 0.0
H2361 H 0.25689 0.92721 0.03633 0.0
H2362 H 0.24315 0.90556 0.04481 0.0
H2363 H 0.26565 0.91574 0.04971 0.0
C2364 C 0.32783 0.03312 0.96516 0.0
C2365 C 0.3446 0.03766 0.9611 0.0
C2366 C 0.32107 0.04306 0.95723 0.0
C2367 C 0.33135 0.05785 0.94502 0.0
C2368 C 0.34857 0.06314 0.94226 0.0
C2369 C 0.35499 0.053 0.95036 0.0
C2370 C 0.30269 0.03714 0.96072 0.0
C2371 C 0.35999 0.07896 0.92953 0.0
C2372 C 0.31277 0.07202 0.89887 0.0
C2373 C 0.31387 0.08684 0.90863 0.0
C2374 C 0.31772 0.06202 0.91094 0.0
C2375 C 0.32388 0.06696 0.93329 0.0
C2376 C 0.32424 0.08142 0.94358 0.0
C2377 C 0.31925 0.09123 0.93109 0.0
C2378 C 0.31715 0.04666 0.89939 0.0
C2379 C 0.33056 0.08696 0.96744 0.0
H2380 H 0.3197 0.02133 0.97353 0.0
H2381 H 0.36802 0.05675 0.94738 0.0
H2382 H 0.3011 0.04803 0.96642 0.0
H2383 H 0.2955 0.03206 0.94462 0.0
H2384 H 0.29709 0.02688 0.97312 0.0
H2385 H 0.37337 0.08211 0.9305 0.0
H2386 H 0.35578 0.07689 0.91169 0.0
H2387 H 0.35927 0.09018 0.93609 0.0
H2388 H 0.30873 0.06867 0.88148 0.0
H2389 H 0.31986 0.10254 0.93878 0.0
H2390 H 0.31034 0.03514 0.90961 0.0
H2391 H 0.33019 0.04906 0.89753 0.0
H2392 H 0.31087 0.04382 0.88256 0.0
H2393 H 0.3244 0.07589 0.97855 0.0
H2394 H 0.32823 0.09726 0.97373 0.0
H2395 H 0.34433 0.0918 0.96859 0.0
C2396 C 0.94751 0.27769 0.96879 0.0
C2397 C 0.96355 0.28395 0.97895 0.0
C2398 C 0.93762 0.26045 0.9617 0.0
C2399 C 0.94378 0.24902 0.96504 0.0
C2400 C 0.95947 0.25494 0.97655 0.0
C2401 C 0.96921 0.27237 0.98332 0.0
C2402 C 0.92095 0.25469 0.94955 0.0
C2403 C 0.9663 0.24306 0.98078 0.0
C2404 C 0.91005 0.2023 0.9554 0.0
C2405 C 0.91235 0.19947 0.93293 0.0
C2406 C 0.92091 0.21802 0.96663 0.0
C2407 C 0.93421 0.23129 0.95499 0.0
C2408 C 0.93709 0.22818 0.93264 0.0
C2409 C 0.92618 0.21226 0.92192 0.0
C2410 C 0.91759 0.2207 0.99055 0.0
C2411 C 0.95105 0.24203 0.91956 0.0
H2412 H 0.94289 0.28644 0.9655 0.0
H2413 H 0.98155 0.27702 0.9912 0.0
H2414 H 0.92155 0.2508 0.93204 0.0
H2415 H 0.91069 0.24334 0.95754 0.0
H2416 H 0.91757 0.26495 0.9493 0.0
H2417 H 0.9775 0.24899 0.99242 0.0
H2418 H 0.95646 0.23091 0.98782 0.0
H2419 H 0.97002 0.23971 0.96475 0.0
H2420 H 0.89948 0.19233 0.96403 0.0
H2421 H 0.92793 0.21017 0.90451 0.0
H2422 H 0.91243 0.22953 0.99122 0.0
H2423 H 0.9295 0.22677 0.00079 0.0
H2424 H 0.90841 0.20847 0.99817 0.0
H2425 H 0.94825 0.2525 0.91669 0.0
H2426 H 0.95255 0.23711 0.90309 0.0
H2427 H 0.96322 0.24769 0.92916 0.0
C2428 C 0.70909 0.67606 0.98248 0.0
C2429 C 0.70002 0.65862 0.9875 0.0
C2430 C 0.72278 0.68231 0.9682 0.0
C2431 C 0.72763 0.67088 0.95899 0.0
C2432 C 0.71828 0.6532 0.96356 0.0
C2433 C 0.70451 0.64727 0.97765 0.0
C2434 C 0.73231 0.70121 0.96341 0.0
C2435 C 0.72317 0.64064 0.9542 0.0
C2436 C 0.75639 0.68329 0.90949 0.0
C2437 C 0.77209 0.68868 0.9201 0.0
C2438 C 0.74182 0.67781 0.92197 0.0
C2439 C 0.74302 0.6775 0.94553 0.0
C2440 C 0.75888 0.68304 0.95631 0.0
C2441 C 0.77325 0.68867 0.94345 0.0
C2442 C 0.72516 0.67222 0.90994 0.0
C2443 C 0.76062 0.6827 0.98139 0.0
H2444 H 0.7056 0.68488 0.98992 0.0
H2445 H 0.69759 0.63377 0.98146 0.0
H2446 H 0.74535 0.70714 0.97059 0.0
H2447 H 0.7333 0.70302 0.94511 0.0
H2448 H 0.72618 0.70814 0.97051 0.0
H2449 H 0.71419 0.62721 0.95866 0.0
H2450 H 0.72372 0.64126 0.93574 0.0
H2451 H 0.73595 0.64413 0.9607 0.0
H2452 H 0.75553 0.68346 0.89143 0.0
H2453 H 0.78537 0.69267 0.95163 0.0
H2454 H 0.71944 0.67967 0.91659 0.0
H2455 H 0.71624 0.65849 0.91293 0.0
H2456 H 0.72652 0.67394 0.89163 0.0
H2457 H 0.75585 0.69052 0.98963 0.0
H2458 H 0.7739 0.68766 0.98718 0.0
H2459 H 0.75285 0.66935 0.98699 0.0
C2460 C 0.96094 0.68393 0.97217 0.0
C2461 C 0.95707 0.68222 0.99488 0.0
C2462 C 0.95212 0.68846 0.95684 0.0
C2463 C 0.93909 0.69126 0.9644 0.0
C2464 C 0.93525 0.6897 0.98732 0.0
C2465 C 0.94429 0.68524 0.00226 0.0
C2466 C 0.95663 0.69008 0.93254 0.0
C2467 C 0.9214 0.6925 0.99606 0.0
C2468 C 0.92355 0.71614 0.93027 0.0
C2469 C 0.90858 0.70284 0.9203 0.0
C2470 C 0.93387 0.71257 0.94418 0.0
C2471 C 0.92905 0.6953 0.94833 0.0
C2472 C 0.91409 0.68183 0.93803 0.0
C2473 C 0.90407 0.68576 0.92415 0.0
C2474 C 0.94977 0.72729 0.95474 0.0
C2475 C 0.90843 0.66325 0.94215 0.0
H2476 H 0.97082 0.68167 0.96632 0.0
H2477 H 0.94119 0.68397 0.01976 0.0
H2478 H 0.94561 0.68051 0.92219 0.0
H2479 H 0.95983 0.70297 0.9268 0.0
H2480 H 0.96747 0.68808 0.92946 0.0
H2481 H 0.92018 0.6911 0.01443 0.0
H2482 H 0.92389 0.70552 0.99199 0.0
H2483 H 0.90914 0.68312 0.98782 0.0
H2484 H 0.92721 0.72936 0.92717 0.0
H2485 H 0.89241 0.67542 0.91678 0.0
H2486 H 0.96078 0.72579 0.95088 0.0
H2487 H 0.94877 0.7272 0.97318 0.0
H2488 H 0.95222 0.73994 0.94891 0.0
H2489 H 0.91862 0.66048 0.93813 0.0
H2490 H 0.89691 0.65429 0.93206 0.0
H2491 H 0.90573 0.66066 0.96009 0.0
C2492 C 0.32065 0.28934 0.95637 0.0
C2493 C 0.33708 0.30216 0.95144 0.0
C2494 C 0.31435 0.27221 0.94902 0.0
C2495 C 0.32474 0.26783 0.93658 0.0
C2496 C 0.34158 0.28053 0.93258 0.0
C2497 C 0.34753 0.29751 0.94003 0.0
C2498 C 0.29634 0.25899 0.9537 0.0
C2499 C 0.35314 0.27634 0.91959 0.0
C2500 C 0.31511 0.22194 0.92727 0.0
C2501 C 0.30889 0.21849 0.90506 0.0
C2502 C 0.31962 0.23768 0.93816 0.0
C2503 C 0.31786 0.25025 0.92654 0.0
C2504 C 0.31085 0.24653 0.90448 0.0
C2505 C 0.30645 0.23069 0.894 0.0
C2506 C 0.32695 0.24112 0.96172 0.0
C2507 C 0.30876 0.2596 0.89154 0.0
H2508 H 0.31247 0.29279 0.96515 0.0
H2509 H 0.36029 0.30727 0.93631 0.0
H2510 H 0.28874 0.25483 0.93781 0.0
H2511 H 0.29575 0.24744 0.96086 0.0
H2512 H 0.29046 0.26406 0.9654 0.0
H2513 H 0.36619 0.28744 0.91909 0.0
H2514 H 0.35366 0.26544 0.92709 0.0
H2515 H 0.34812 0.27233 0.90217 0.0
H2516 H 0.31676 0.21244 0.93601 0.0
H2517 H 0.30179 0.22817 0.87678 0.0
H2518 H 0.32048 0.24604 0.97252 0.0
H2519 H 0.34048 0.25116 0.96171 0.0
H2520 H 0.32591 0.22944 0.96917 0.0
H2521 H 0.30184 0.2645 0.90146 0.0
H2522 H 0.30187 0.25423 0.87528 0.0
H2523 H 0.32136 0.27073 0.88826 0.0
C2524 C 0.70382 0.04047 0.97917 0.0
C2525 C 0.70375 0.02992 0.99613 0.0
C2526 C 0.7171 0.04781 0.96429 0.0
C2527 C 0.73056 0.0444 0.96632 0.0
C2528 C 0.73016 0.0331 0.98269 0.0
C2529 C 0.71678 0.02604 0.99748 0.0
C2530 C 0.71712 0.05987 0.94711 0.0
C2531 C 0.74421 0.02902 0.98518 0.0
C2532 C 0.76087 0.05719 0.91842 0.0
C2533 C 0.774 0.07323 0.92632 0.0
C2534 C 0.74675 0.04743 0.93142 0.0
C2535 C 0.74575 0.05394 0.95272 0.0
C2536 C 0.75911 0.06995 0.96093 0.0
C2537 C 0.77309 0.07933 0.9477 0.0
C2538 C 0.73278 0.03034 0.92223 0.0
C2539 C 0.75853 0.07733 0.98357 0.0
H2540 H 0.69376 0.04347 0.97794 0.0
H2541 H 0.71674 0.01777 0.01041 0.0
H2542 H 0.72764 0.07307 0.95107 0.0
H2543 H 0.71923 0.05609 0.93026 0.0
H2544 H 0.70511 0.06012 0.94656 0.0
H2545 H 0.74116 0.01865 0.99712 0.0
H2546 H 0.74686 0.02508 0.96876 0.0
H2547 H 0.75594 0.04068 0.99126 0.0
H2548 H 0.76145 0.05245 0.90187 0.0
H2549 H 0.78336 0.09152 0.95413 0.0
H2550 H 0.72101 0.03088 0.91988 0.0
H2551 H 0.73013 0.02015 0.93428 0.0
H2552 H 0.73593 0.02664 0.90597 0.0
H2553 H 0.74743 0.07918 0.9841 0.0
H2554 H 0.77007 0.08986 0.98759 0.0
H2555 H 0.75706 0.06827 0.99677 0.0
C2556 C 0.6634 0.96485 0.05076 0.0
C2557 C 0.65598 0.97108 0.06574 0.0
C2558 C 0.66912 0.95381 0.05795 0.0
C2559 C 0.66796 0.94957 0.08076 0.0
C2560 C 0.66086 0.95624 0.09598 0.0
C2561 C 0.65468 0.96665 0.08819 0.0
C2562 C 0.67606 0.94644 0.04112 0.0
C2563 C 0.65988 0.95248 0.12057 0.0
C2564 C 0.66665 0.90969 0.10205 0.0
C2565 C 0.68332 0.9161 0.11011 0.0
C2566 C 0.66182 0.92021 0.09105 0.0
C2567 C 0.67369 0.9378 0.0889 0.0
C2568 C 0.69057 0.94439 0.09663 0.0
C2569 C 0.69526 0.93339 0.10674 0.0
C2570 C 0.64378 0.91259 0.08251 0.0
C2571 C 0.70349 0.96321 0.09519 0.0
H2572 H 0.66439 0.96833 0.0334 0.0
H2573 H 0.6492 0.97173 0.09984 0.0
H2574 H 0.68915 0.94996 0.04608 0.0
H2575 H 0.6684 0.93221 0.04073 0.0
H2576 H 0.67607 0.95099 0.02401 0.0
H2577 H 0.65502 0.9596 0.13039 0.0
H2578 H 0.65147 0.93855 0.12291 0.0
H2579 H 0.67256 0.95596 0.12748 0.0
H2580 H 0.65712 0.89653 0.10485 0.0
H2581 H 0.70826 0.93849 0.11227 0.0
H2582 H 0.6434 0.91671 0.06526 0.0
H2583 H 0.63705 0.91727 0.09321 0.0
H2584 H 0.63684 0.89834 0.08249 0.0
H2585 H 0.70411 0.96743 0.0778 0.0
H2586 H 0.7163 0.96613 0.10086 0.0
H2587 H 0.69968 0.97091 0.10574 0.0
C2588 C 0.05422 0.72228 0.05953 0.0
C2589 C 0.03864 0.71655 0.04826 0.0
C2590 C 0.06476 0.73963 0.06571 0.0
C2591 C 0.05974 0.75169 0.06033 0.0
C2592 C 0.04452 0.74622 0.04785 0.0
C2593 C 0.03411 0.72869 0.04201 0.0
C2594 C 0.08091 0.7449 0.07896 0.0
C2595 C 0.03889 0.75876 0.0415 0.0
C2596 C 0.0784 0.79027 0.10064 0.0
C2597 C 0.09283 0.80198 0.08954 0.0
C2598 C 0.06699 0.77416 0.09077 0.0
C2599 C 0.07002 0.76972 0.06919 0.0
C2600 C 0.08402 0.78192 0.05735 0.0
C2601 C 0.09533 0.79786 0.06774 0.0
C2602 C 0.05229 0.7615 0.10404 0.0
C2603 C 0.08755 0.7778 0.0342 0.0
H2604 H 0.05798 0.7131 0.0643 0.0
H2605 H 0.02214 0.72444 0.03325 0.0
H2606 H 0.09179 0.75548 0.07072 0.0
H2607 H 0.08019 0.74976 0.09585 0.0
H2608 H 0.08338 0.7341 0.08088 0.0
H2609 H 0.02788 0.75291 0.02957 0.0
H2610 H 0.03535 0.7633 0.05672 0.0
H2611 H 0.04936 0.77019 0.0339 0.0
H2612 H 0.07649 0.79333 0.11756 0.0
H2613 H 0.10638 0.80698 0.059 0.0
H2614 H 0.05419 0.75067 0.10853 0.0
H2615 H 0.04038 0.75606 0.09387 0.0
H2616 H 0.05082 0.76744 0.11967 0.0
H2617 H 0.09183 0.76828 0.03518 0.0
H2618 H 0.09745 0.78938 0.02609 0.0
H2619 H 0.07589 0.77198 0.02345 0.0
C2620 C 0.30245 0.35641 0.04827 0.0
C2621 C 0.3057 0.34481 0.03647 0.0
C2622 C 0.28934 0.35064 0.06345 0.0
C2623 C 0.2794 0.33285 0.06714 0.0
C2624 C 0.28315 0.32115 0.0561 0.0
C2625 C 0.29618 0.32726 0.04076 0.0
C2626 C 0.28563 0.3635 0.07472 0.0
C2627 C 0.273 0.30212 0.05988 0.0
C2628 C 0.2511 0.31929 0.11731 0.0
C2629 C 0.23544 0.31483 0.10724 0.0
C2630 C 0.26552 0.32493 0.10444 0.0
C2631 C 0.26425 0.32639 0.08108 0.0
C2632 C 0.24846 0.32197 0.0709 0.0
C2633 C 0.23424 0.31615 0.08409 0.0
C2634 C 0.2821 0.3293 0.11581 0.0
C2635 C 0.24662 0.32359 0.04609 0.0
H2636 H 0.30975 0.36999 0.04506 0.0
H2637 H 0.29873 0.31823 0.03185 0.0
H2638 H 0.27308 0.36116 0.06882 0.0
H2639 H 0.28513 0.36196 0.09307 0.0
H2640 H 0.29522 0.37695 0.07122 0.0
H2641 H 0.27855 0.29496 0.05177 0.0
H2642 H 0.27212 0.29969 0.07804 0.0
H2643 H 0.25995 0.29693 0.05305 0.0
H2644 H 0.252 0.31816 0.1352 0.0
H2645 H 0.22218 0.31293 0.07633 0.0
H2646 H 0.29154 0.34298 0.11339 0.0
H2647 H 0.28711 0.3215 0.10815 0.0
H2648 H 0.28087 0.32702 0.13402 0.0
H2649 H 0.255 0.33708 0.04138 0.0
H2650 H 0.23345 0.31967 0.04081 0.0
H2651 H 0.25056 0.31553 0.03663 0.0
C2652 C 0.7081 0.64818 0.36724 0.0
C2653 C 0.71544 0.66586 0.36393 0.0
C2654 C 0.71664 0.64162 0.37973 0.0
C2655 C 0.73289 0.65301 0.38917 0.0
C2656 C 0.74021 0.67089 0.38624 0.0
C2657 C 0.73142 0.67708 0.37368 0.0
C2658 C 0.7084 0.62249 0.38251 0.0
C2659 C 0.75749 0.68348 0.3961 0.0
C2660 C 0.7513 0.63974 0.43701 0.0
C2661 C 0.76276 0.63631 0.42598 0.0
C2662 C 0.74116 0.64472 0.42518 0.0
C2663 C 0.74247 0.64631 0.40173 0.0
C2664 C 0.75361 0.64234 0.3904 0.0
C2665 C 0.76362 0.6374 0.40265 0.0
C2666 C 0.72937 0.64873 0.43787 0.0
C2667 C 0.75539 0.64388 0.36541 0.0
H2668 H 0.69577 0.63939 0.35979 0.0
H2669 H 0.7372 0.69076 0.37128 0.0
H2670 H 0.71617 0.61762 0.37473 0.0
H2671 H 0.70765 0.61959 0.40051 0.0
H2672 H 0.69548 0.61541 0.37479 0.0
H2673 H 0.76124 0.69701 0.39276 0.0
H2674 H 0.75773 0.68206 0.41444 0.0
H2675 H 0.76704 0.68073 0.38904 0.0
H2676 H 0.75037 0.63867 0.45499 0.0
H2677 H 0.77255 0.63497 0.39401 0.0
H2678 H 0.71636 0.64119 0.43059 0.0
H2679 H 0.73337 0.66251 0.43639 0.0
H2680 H 0.72912 0.64592 0.45589 0.0
H2681 H 0.74285 0.63634 0.3568 0.0
H2682 H 0.76383 0.63934 0.35895 0.0
H2683 H 0.76058 0.65748 0.36096 0.0
C2684 C 0.34215 0.0482 0.39428 0.0
C2685 C 0.32542 0.03623 0.39927 0.0
C2686 C 0.34944 0.06552 0.40127 0.0
C2687 C 0.33975 0.07099 0.41342 0.0
C2688 C 0.32262 0.05917 0.41746 0.0
C2689 C 0.31568 0.04196 0.41035 0.0
C2690 C 0.36772 0.07778 0.39656 0.0
C2691 C 0.3118 0.06454 0.43015 0.0
C2692 C 0.36 0.10844 0.45544 0.0
C2693 C 0.35861 0.12116 0.44409 0.0
C2694 C 0.35461 0.09228 0.44525 0.0
C2695 C 0.34764 0.08875 0.42317 0.0
C2696 C 0.34695 0.1018 0.41125 0.0
C2697 C 0.35244 0.11785 0.42185 0.0
C2698 C 0.35559 0.0787 0.45852 0.0
C2699 C 0.3397 0.09857 0.38765 0.0
H2700 H 0.3498 0.04392 0.38572 0.0
H2701 H 0.30271 0.03287 0.41412 0.0
H2702 H 0.36916 0.08961 0.38914 0.0
H2703 H 0.37529 0.08167 0.41246 0.0
H2704 H 0.37302 0.07196 0.38506 0.0
H2705 H 0.29844 0.05406 0.43067 0.0
H2706 H 0.31685 0.06847 0.44756 0.0
H2707 H 0.31214 0.07579 0.42239 0.0
H2708 H 0.36461 0.11086 0.47268 0.0
H2709 H 0.35157 0.12774 0.41289 0.0
H2710 H 0.36189 0.07299 0.44881 0.0
H2711 H 0.34265 0.0682 0.46185 0.0
H2712 H 0.36256 0.08389 0.47477 0.0
H2713 H 0.34554 0.09282 0.37706 0.0
H2714 H 0.34163 0.11051 0.37993 0.0
H2715 H 0.32596 0.08926 0.38769 0.0
C2716 C 0.96241 0.30263 0.3739 0.0
C2717 C 0.97387 0.2966 0.37479 0.0
C2718 C 0.94869 0.29631 0.3881 0.0
C2719 C 0.94631 0.28356 0.40336 0.0
C2720 C 0.95843 0.27824 0.40533 0.0
C2721 C 0.97214 0.2849 0.39107 0.0
C2722 C 0.93617 0.3025 0.38575 0.0
C2723 C 0.95631 0.26463 0.42139 0.0
C2724 C 0.91299 0.26972 0.44753 0.0
C2725 C 0.89959 0.25495 0.43714 0.0
C2726 C 0.92826 0.27943 0.43664 0.0
C2727 C 0.93011 0.27413 0.41496 0.0
C2728 C 0.91648 0.25946 0.40424 0.0
C2729 C 0.90138 0.25012 0.41541 0.0
C2730 C 0.94249 0.2951 0.44845 0.0
C2731 C 0.91792 0.25342 0.38107 0.0
H2732 H 0.96381 0.31187 0.36157 0.0
H2733 H 0.98101 0.28027 0.39195 0.0
H2734 H 0.92434 0.29222 0.37754 0.0
H2735 H 0.93291 0.30542 0.4024 0.0
H2736 H 0.94107 0.31413 0.37557 0.0
H2737 H 0.96776 0.26339 0.42278 0.0
H2738 H 0.95337 0.26756 0.43825 0.0
H2739 H 0.94553 0.25205 0.41555 0.0
H2740 H 0.91168 0.27345 0.46438 0.0
H2741 H 0.89094 0.23893 0.40712 0.0
H2742 H 0.94701 0.3064 0.43774 0.0
H2743 H 0.9533 0.29303 0.45163 0.0
H2744 H 0.93866 0.29812 0.46466 0.0
H2745 H 0.92108 0.26374 0.36906 0.0
H2746 H 0.90609 0.2418 0.37507 0.0
H2747 H 0.9283 0.25043 0.38099 0.0
C2748 C 0.00799 0.36634 0.2606 0.0
C2749 C 0.00699 0.36169 0.28293 0.0
C2750 C 0.00301 0.37797 0.25385 0.0
C2751 C 0.99746 0.38559 0.27 0.0
C2752 C 0.99657 0.38107 0.29267 0.0
C2753 C 0.00107 0.36887 0.29882 0.0
C2754 C 0.0037 0.38208 0.22941 0.0
C2755 C 0.99125 0.38939 0.31041 0.0
C2756 C 0.0027 0.42756 0.25052 0.0
C2757 C 0.98623 0.42274 0.24301 0.0
C2758 C 0.00625 0.41587 0.26087 0.0
C2759 C 0.9932 0.39871 0.26298 0.0
C2760 C 0.97649 0.39378 0.25603 0.0
C2761 C 0.97316 0.40593 0.24649 0.0
C2762 C 0.02418 0.42173 0.26857 0.0
C2763 C 0.96231 0.37546 0.25754 0.0
H2764 H 0.01233 0.36055 0.24826 0.0
H2765 H 0.00034 0.36525 0.3161 0.0
H2766 H 0.99126 0.37994 0.22334 0.0
H2767 H 0.01307 0.3958 0.22716 0.0
H2768 H 0.00722 0.37414 0.21883 0.0
H2769 H 0.991 0.38428 0.32722 0.0
H2770 H 0.00011 0.40346 0.31115 0.0
H2771 H 0.97854 0.38737 0.30617 0.0
H2772 H 0.01305 0.44032 0.24763 0.0
H2773 H 0.96033 0.40209 0.24135 0.0
H2774 H 0.02976 0.41621 0.25712 0.0
H2775 H 0.02444 0.41712 0.28553 0.0
H2776 H 0.03224 0.43594 0.26887 0.0
H2777 H 0.96461 0.36706 0.24607 0.0
H2778 H 0.94983 0.37399 0.253 0.0
H2779 H 0.96183 0.37083 0.27467 0.0
C2780 C 0.61543 0.61556 0.28578 0.0
C2781 C 0.63111 0.62122 0.29673 0.0
C2782 C 0.60504 0.59833 0.27894 0.0
C2783 C 0.61032 0.58631 0.28325 0.0
C2784 C 0.62571 0.5917 0.29527 0.0
C2785 C 0.63596 0.60911 0.30184 0.0
C2786 C 0.58869 0.59313 0.26624 0.0
C2787 C 0.63166 0.57921 0.30042 0.0
C2788 C 0.57517 0.53997 0.2754 0.0
C2789 C 0.57735 0.53626 0.25324 0.0
C2790 C 0.58643 0.55586 0.28594 0.0
C2791 C 0.60008 0.56841 0.27394 0.0
C2792 C 0.6028 0.56441 0.25194 0.0
C2793 C 0.59143 0.54836 0.24189 0.0
C2794 C 0.58321 0.55954 0.30949 0.0
C2795 C 0.61713 0.57745 0.2385 0.0
H2796 H 0.61145 0.62472 0.28188 0.0
H2797 H 0.64801 0.6133 0.31032 0.0
H2798 H 0.58925 0.58866 0.24903 0.0
H2799 H 0.57799 0.5823 0.27441 0.0
H2800 H 0.58604 0.60387 0.26512 0.0
H2801 H 0.64296 0.58498 0.31186 0.0
H2802 H 0.62146 0.56762 0.3081 0.0
H2803 H 0.63486 0.57493 0.28467 0.0
H2804 H 0.56441 0.53056 0.28433 0.0
H2805 H 0.59309 0.54563 0.2247 0.0
H2806 H 0.57883 0.56901 0.30928 0.0
H2807 H 0.59502 0.56525 0.31991 0.0
H2808 H 0.57348 0.54778 0.31749 0.0
H2809 H 0.61494 0.58822 0.23477 0.0
H2810 H 0.6184 0.57185 0.22245 0.0
H2811 H 0.62923 0.5829 0.24823 0.0
C2812 C 0.36557 -0.00026 0.31639 0.0
C2813 C 0.36853 0.01199 0.33337 0.0
C2814 C 0.37811 0.0024 0.30126 0.0
C2815 C 0.39393 0.01773 0.30304 0.0
C2816 C 0.39672 0.03049 0.31946 0.0
C2817 C 0.384 0.02744 0.3345 0.0
C2818 C 0.37469 0.98846 0.28402 0.0
C2819 C 0.41337 0.0471 0.32168 0.0
C2820 C 0.43232 0.01637 0.28303 0.0
C2821 C 0.43473 0.02387 0.26211 0.0
C2822 C 0.41903 0.01422 0.2964 0.0
C2823 C 0.40795 0.01987 0.28881 0.0
C2824 C 0.41031 0.02749 0.26777 0.0
C2825 C 0.42363 0.02934 0.25462 0.0
C2826 C 0.41688 0.00596 0.31873 0.0
C2827 C 0.39877 0.03371 0.25918 0.0
H2828 H 0.35363 0.98778 0.31536 0.0
H2829 H 0.38633 0.03703 0.34746 0.0
H2830 H 0.37769 0.99384 0.26712 0.0
H2831 H 0.38297 0.98302 0.28765 0.0
H2832 H 0.36135 0.97787 0.28376 0.0
H2833 H 0.41303 0.05628 0.33405 0.0
H2834 H 0.42346 0.04441 0.32703 0.0
H2835 H 0.41689 0.0533 0.3053 0.0
H2836 H 0.441 0.01239 0.28913 0.0
H2837 H 0.42528 0.03495 0.23836 0.0
H2838 H 0.40411 0.99448 0.31943 0.0
H2839 H 0.41799 0.01505 0.33235 0.0
H2840 H 0.4264 0.00199 0.32199 0.0
H2841 H 0.38559 0.02287 0.25782 0.0
H2842 H 0.40243 0.03954 0.24257 0.0
H2843 H 0.39895 0.04338 0.27115 0.0
C2844 C 0.60133 0.99871 0.33443 0.0
C2845 C 0.61731 0.00135 0.3291 0.0
C2846 C 0.5923 0.00345 0.31991 0.0
C2847 C 0.5994 0.01107 0.29949 0.0
C2848 C 0.61553 0.01382 0.29396 0.0
C2849 C 0.6243 0.00891 0.30883 0.0
C2850 C 0.57511 0.00022 0.32642 0.0
C2851 C 0.62351 0.02194 0.27235 0.0
C2852 C 0.56749 0.00766 0.25541 0.0
C2853 C 0.56821 0.02353 0.2583 0.0
C2854 C 0.57806 0.0037 0.26805 0.0
C2855 C 0.5897 0.01592 0.28397 0.0
C2856 C 0.591 0.03223 0.28632 0.0
C2857 C 0.58023 0.03584 0.27347 0.0
C2858 C 0.57632 0.98619 0.26496 0.0
C2859 C 0.60325 0.04561 0.30311 0.0
H2860 H 0.59579 0.99288 0.35003 0.0
H2861 H 0.63664 0.01101 0.30459 0.0
H2862 H 0.57498 0.01248 0.327 0.0
H2863 H 0.56544 0.99164 0.31369 0.0
H2864 H 0.57142 0.99426 0.34296 0.0
H2865 H 0.63619 0.02333 0.27059 0.0
H2866 H 0.6153 0.01404 0.25796 0.0
H2867 H 0.62473 0.03481 0.27143 0.0
H2868 H 0.55845 0.9982 0.24341 0.0
H2869 H 0.5808 0.04808 0.27593 0.0
H2870 H 0.5714 0.97886 0.28037 0.0
H2871 H 0.58882 0.98744 0.26213 0.0
H2872 H 0.56764 0.97867 0.2507 0.0
H2873 H 0.59939 0.04113 0.32028 0.0
H2874 H 0.60382 0.05815 0.30146 0.0
H2875 H 0.61609 0.04752 0.3011 0.0
C2876 C 0.01553 0.64121 0.25679 0.0
C2877 C 0.01484 0.64496 0.27943 0.0
C2878 C 0.00996 0.62438 0.24906 0.0
C2879 C 0.0041 0.61104 0.2645 0.0
C2880 C 0.00343 0.61475 0.28747 0.0
C2881 C 0.00853 0.63168 0.29462 0.0
C2882 C 0.01039 0.62091 0.22436 0.0
C2883 C 0.99781 0.60095 0.3045 0.0
C2884 C 0.97861 0.56552 0.24007 0.0
C2885 C 0.99127 0.56134 0.23636 0.0
C2886 C 0.98251 0.58151 0.24967 0.0
C2887 C -0.00063 0.5934 0.25649 0.0
C2888 C 0.01206 0.58899 0.2538 0.0
C2889 C 0.00795 0.57323 0.24338 0.0
C2890 C 0.9687 0.58593 0.25172 0.0
C2891 C 0.03015 0.60117 0.26128 0.0
H2892 H 0.02019 0.65147 0.245 0.0
H2893 H 0.00805 0.63464 0.31215 0.0
H2894 H 0.01951 0.61644 0.22137 0.0
H2895 H 0.99781 0.61055 0.21813 0.0
H2896 H 0.01409 0.63248 0.21441 0.0
H2897 H 0.99772 0.60587 0.32163 0.0
H2898 H 0.98497 0.59024 0.29998 0.0
H2899 H 0.00639 0.59559 0.30459 0.0
H2900 H 0.96563 0.5564 0.23528 0.0
H2901 H 0.018 0.57051 0.24027 0.0
H2902 H 0.97149 0.59696 0.24111 0.0
H2903 H 0.96816 0.58991 0.26919 0.0
H2904 H 0.9561 0.57501 0.24653 0.0
H2905 H 0.03576 0.61237 0.25033 0.0
H2906 H 0.03801 0.59497 0.26068 0.0
H2907 H 0.03072 0.60612 0.27859 0.0
C2908 C 0.37063 0.37242 0.30636 0.0
C2909 C 0.376 0.38189 0.3267 0.0
C2910 C 0.38141 0.37698 0.28822 0.0
C2911 C 0.39786 0.39141 0.29051 0.0
C2912 C 0.40337 0.40092 0.31105 0.0
C2913 C 0.39239 0.39601 0.32891 0.0
C2914 C 0.37519 0.36649 0.26661 0.0
C2915 C 0.42081 0.41646 0.31409 0.0
C2916 C 0.43409 0.39945 0.25364 0.0
C2917 C 0.43516 0.41266 0.24051 0.0
C2918 C 0.42125 0.39153 0.26906 0.0
C2919 C 0.40931 0.39703 0.27139 0.0
C2920 C 0.40965 0.40949 0.25706 0.0
C2921 C 0.42255 0.41712 0.24173 0.0
C2922 C 0.42117 0.37814 0.2839 0.0
C2923 C 0.39709 0.41564 0.25896 0.0
H2924 H 0.35799 0.36143 0.30457 0.0
H2925 H 0.39662 0.40339 0.34456 0.0
H2926 H 0.37513 0.37462 0.25299 0.0
H2927 H 0.38386 0.36178 0.26179 0.0
H2928 H 0.36226 0.35529 0.2678 0.0
H2929 H 0.4232 0.42233 0.33123 0.0
H2930 H 0.43051 0.41284 0.31069 0.0
H2931 H 0.42244 0.4263 0.30197 0.0
H2932 H 0.44385 0.39601 0.25284 0.0
H2933 H 0.42318 0.4271 0.23127 0.0
H2934 H 0.40823 0.36698 0.28489 0.0
H2935 H 0.42541 0.38369 0.30109 0.0
H2936 H 0.42967 0.37353 0.27787 0.0
H2937 H 0.38404 0.40459 0.25925 0.0
H2938 H 0.39789 0.42392 0.24498 0.0
H2939 H 0.39953 0.42313 0.27491 0.0
C2940 C 0.35139 0.31709 0.39401 0.0
C2941 C 0.3348 0.31271 0.39889 0.0
C2942 C 0.35807 0.30682 0.40087 0.0
C2943 C 0.34785 0.2918 0.41271 0.0
C2944 C 0.33083 0.28684 0.4166 0.0
C2945 C 0.32453 0.29737 0.40969 0.0
C2946 C 0.37627 0.31248 0.39642 0.0
C2947 C 0.31945 0.27077 0.42892 0.0
C2948 C 0.35844 0.25667 0.42129 0.0
C2949 C 0.36399 0.25972 0.44378 0.0
C2950 C 0.35394 0.26754 0.41049 0.0
C2951 C 0.35509 0.2818 0.42249 0.0
C2952 C 0.36163 0.28552 0.44477 0.0
C2953 C 0.36597 0.2744 0.45517 0.0
C2954 C 0.34709 0.26322 0.38669 0.0
C2955 C 0.36314 0.30069 0.45806 0.0
H2956 H 0.35942 0.32892 0.38567 0.0
H2957 H 0.31163 0.29379 0.4133 0.0
H2958 H 0.38372 0.31651 0.41242 0.0
H2959 H 0.37737 0.30168 0.38908 0.0
H2960 H 0.38196 0.32339 0.38496 0.0
H2961 H 0.30623 0.26811 0.42921 0.0
H2962 H 0.31947 0.25952 0.42103 0.0
H2963 H 0.32425 0.27211 0.44641 0.0
H2964 H 0.35718 0.24549 0.41229 0.0
H2965 H 0.37011 0.27675 0.4726 0.0
H2966 H 0.35331 0.27475 0.37638 0.0
H2967 H 0.3334 0.25881 0.38636 0.0
H2968 H 0.34886 0.25294 0.3789 0.0
H2969 H 0.36981 0.31255 0.44843 0.0
H2970 H 0.37 0.30277 0.47434 0.0
H2971 H 0.35035 0.29856 0.46135 0.0
C2972 C 0.70508 0.05188 0.3738 0.0
C2973 C 0.69907 0.04004 0.39088 0.0
C2974 C 0.71667 0.06935 0.37869 0.0
C2975 C 0.72182 0.07505 0.40121 0.0
C2976 C 0.71509 0.06317 0.41852 0.0
C2977 C 0.70405 0.0458 0.41309 0.0
C2978 C 0.72394 0.08153 0.35976 0.0
C2979 C 0.71983 0.06874 0.44279 0.0
C2980 C 0.76392 0.11333 0.41938 0.0
C2981 C 0.75951 0.12581 0.42493 0.0
C2982 C 0.752 0.09723 0.41006 0.0
C2983 C 0.73503 0.09311 0.40693 0.0
C2984 C 0.7305 0.1057 0.41182 0.0
C2985 C 0.74283 0.12197 0.4204 0.0
C2986 C 0.75746 0.0843 0.40463 0.0
C2987 C 0.71245 0.1017 0.40915 0.0
H2988 H 0.70124 0.04737 0.35661 0.0
H2989 H 0.6992 0.03664 0.42632 0.0
H2990 H 0.72258 0.09297 0.36273 0.0
H2991 H 0.73765 0.08613 0.3589 0.0
H2992 H 0.71779 0.07537 0.34337 0.0
H2993 H 0.71229 0.05821 0.45427 0.0
H2994 H 0.73338 0.07309 0.44594 0.0
H2995 H 0.71797 0.07974 0.44693 0.0
H2996 H 0.77656 0.11579 0.42309 0.0
H2997 H 0.73924 0.13153 0.424 0.0
H2998 H 0.75236 0.0781 0.38792 0.0
H2999 H 0.75239 0.07406 0.41705 0.0
H3000 H 0.77142 0.09026 0.40484 0.0
H3001 H 0.70718 0.0959 0.39234 0.0
H3002 H 0.71125 0.1133 0.41164 0.0
H3003 H 0.70464 0.09216 0.42158 0.0
C3004 C 0.9654 0.66306 0.36448 0.0
C3005 C 0.97075 0.67913 0.35528 0.0
C3006 C 0.95166 0.65582 0.37874 0.0
C3007 C 0.9432 0.66493 0.38398 0.0
C3008 C 0.94883 0.68133 0.37517 0.0
C3009 C 0.96249 0.68819 0.36089 0.0
C3010 C 0.94595 0.63828 0.38779 0.0
C3011 C 0.94023 0.69152 0.3805 0.0
C3012 C 0.89755 0.64231 0.40099 0.0
C3013 C 0.89922 0.646 0.42407 0.0
C3014 C 0.91179 0.64775 0.38788 0.0
C3015 C 0.9281 0.65723 0.39808 0.0
C3016 C 0.92989 0.66051 0.42147 0.0
C3017 C 0.91542 0.6548 0.43419 0.0
C3018 C 0.90937 0.64396 0.36299 0.0
C3019 C 0.94708 0.67058 0.43293 0.0
H3020 H 0.97172 0.65598 0.3602 0.0
H3021 H 0.96661 0.70066 0.35397 0.0
H3022 H 0.94559 0.63878 0.40629 0.0
H3023 H 0.93293 0.62914 0.38145 0.0
H3024 H 0.95432 0.6332 0.38293 0.0
H3025 H 0.94655 0.70434 0.37294 0.0
H3026 H 0.92691 0.68436 0.37423 0.0
H3027 H 0.94006 0.69332 0.39886 0.0
H3028 H 0.8851 0.63568 0.39298 0.0
H3029 H 0.9168 0.65743 0.45209 0.0
H3030 H 0.9169 0.63808 0.35742 0.0
H3031 H 0.91396 0.65611 0.35405 0.0
H3032 H 0.89593 0.63518 0.35796 0.0
H3033 H 0.95504 0.66497 0.42841 0.0
H3034 H 0.94631 0.67091 0.45141 0.0
H3035 H 0.95353 0.68397 0.42719 0.0
C3036 C 0.37487 0.98894 0.7103 0.0
C3037 C 0.38113 0.0065 0.70719 0.0
C3038 C 0.38421 0.98326 0.72271 0.0
C3039 C 0.40021 0.99541 0.73218 0.0
C3040 C 0.40631 0.01316 0.72976 0.0
C3041 C 0.39669 0.01848 0.71736 0.0
C3042 C 0.37721 0.96423 0.72508 0.0
C3043 C 0.42329 0.02654 0.73961 0.0
C3044 C 0.42149 0.98318 0.77759 0.0
C3045 C 0.43312 0.98076 0.76536 0.0
C3046 C 0.41041 0.98755 0.76698 0.0
C3047 C 0.41103 0.98964 0.74358 0.0
C3048 C 0.42253 0.98691 0.7311 0.0
C3049 C 0.4334 0.98248 0.74212 0.0
C3050 C 0.39824 0.9902 0.78086 0.0
C3051 C 0.42367 0.98911 0.70614 0.0
H3052 H 0.36284 0.97959 0.70258 0.0
H3053 H 0.40164 0.03207 0.71515 0.0
H3054 H 0.38525 0.96021 0.71616 0.0
H3055 H 0.37741 0.96124 0.74292 0.0
H3056 H 0.36408 0.95651 0.71819 0.0
H3057 H 0.42583 0.03982 0.73722 0.0
H3058 H 0.42402 0.02467 0.75776 0.0
H3059 H 0.43341 0.02513 0.73167 0.0
H3060 H 0.42106 0.98166 0.79552 0.0
H3061 H 0.44248 0.98083 0.73259 0.0
H3062 H 0.38515 0.98196 0.77412 0.0
H3063 H 0.40119 0.00372 0.77995 0.0
H3064 H 0.39875 0.98725 0.79868 0.0
H3065 H 0.41112 0.9808 0.69787 0.0
H3066 H 0.43285 0.98591 0.69875 0.0
H3067 H 0.42757 0.00258 0.70234 0.0
C3068 C 0.98719 0.36123 0.76411 0.0
C3069 C 0.98714 0.3574 0.74131 0.0
C3070 C 0.99241 0.37798 0.77183 0.0
C3071 C 0.99712 0.39113 0.75628 0.0
C3072 C 0.99712 0.38735 0.73317 0.0
C3073 C 0.99241 0.37051 0.72597 0.0
C3074 C 0.99272 0.38155 0.79666 0.0
C3075 C 0.00153 0.40092 0.71606 0.0
C3076 C 0.99163 0.42757 0.77887 0.0
C3077 C 0.00827 0.4401 0.78516 0.0
C3078 C 0.98801 0.41206 0.76816 0.0
C3079 C 0.00122 0.40857 0.76439 0.0
C3080 C 0.01805 0.42114 0.77038 0.0
C3081 C 0.0214 0.43685 0.78033 0.0
C3082 C 0.96992 0.39913 0.76161 0.0
C3083 C 0.03243 0.41771 0.76715 0.0
H3084 H 0.98334 0.3511 0.77599 0.0
H3085 H 0.99231 0.36748 0.70833 0.0
H3086 H 0.00525 0.39241 0.80217 0.0
H3087 H 0.98319 0.38533 0.80047 0.0
H3088 H 0.99002 0.37021 0.8066 0.0
H3089 H 0.00147 0.39605 0.69884 0.0
H3090 H 0.99232 0.4055 0.71653 0.0
H3091 H 0.01417 0.41216 0.72004 0.0
H3092 H 0.98124 0.42958 0.78285 0.0
H3093 H 0.03434 0.44648 0.78455 0.0
H3094 H 0.96518 0.38801 0.77266 0.0
H3095 H 0.96905 0.3942 0.74421 0.0
H3096 H 0.9615 0.40467 0.76291 0.0
H3097 H 0.0307 0.40703 0.77779 0.0
H3098 H 0.0449 0.42915 0.77153 0.0
H3099 H 0.03251 0.41364 0.74957 0.0
C3100 C 0.62783 0.62563 0.70648 0.0
C3101 C 0.64003 0.62057 0.70756 0.0
C3102 C 0.61415 0.61881 0.72076 0.0
C3103 C 0.6126 0.60658 0.7364 0.0
C3104 C 0.62522 0.60193 0.7382 0.0
C3105 C 0.63883 0.60903 0.72378 0.0
C3106 C 0.60101 0.62419 0.71848 0.0
C3107 C 0.62396 0.5889 0.75469 0.0
C3108 C 0.58128 0.59558 0.78274 0.0
C3109 C 0.56729 0.58055 0.77384 0.0
C3110 C 0.59619 0.60422 0.7708 0.0
C3111 C 0.59708 0.59762 0.74952 0.0
C3112 C 0.58299 0.58248 0.74046 0.0
C3113 C 0.56826 0.57418 0.75269 0.0
C3114 C 0.61097 0.62036 0.78092 0.0
C3115 C 0.58343 0.57507 0.71779 0.0
H3116 H 0.62875 0.63467 0.69414 0.0
H3117 H 0.64825 0.6051 0.72476 0.0
H3118 H 0.58891 0.61312 0.71212 0.0
H3119 H 0.59866 0.62824 0.73501 0.0
H3120 H 0.60481 0.6349 0.70686 0.0
H3121 H 0.63548 0.58774 0.75529 0.0
H3122 H 0.62183 0.59242 0.77169 0.0
H3123 H 0.61298 0.57614 0.74997 0.0
H3124 H 0.58066 0.60046 0.79918 0.0
H3125 H 0.55739 0.56273 0.74556 0.0
H3126 H 0.61443 0.63123 0.76972 0.0
H3127 H 0.62213 0.61867 0.78265 0.0
H3128 H 0.60822 0.62383 0.79761 0.0
H3129 H 0.58575 0.58453 0.70477 0.0
H3130 H 0.57149 0.56303 0.71333 0.0
H3131 H 0.59398 0.57233 0.71746 0.0
C3132 C 0.68341 0.7077 0.61565 0.0
C3133 C 0.67294 0.69231 0.62623 0.0
C3134 C 0.67715 0.71811 0.60805 0.0
C3135 C 0.66 0.71301 0.61113 0.0
C3136 C 0.64962 0.69808 0.62302 0.0
C3137 C 0.65623 0.68789 0.63048 0.0
C3138 C 0.68867 0.73407 0.59565 0.0
C3139 C 0.63131 0.69235 0.62677 0.0
C3140 C 0.64904 0.74751 0.59949 0.0
C3141 C 0.64378 0.74387 0.57692 0.0
C3142 C 0.65354 0.73704 0.6113 0.0
C3143 C 0.65276 0.72263 0.60022 0.0
C3144 C 0.64657 0.71836 0.5778 0.0
C3145 C 0.64214 0.72905 0.56641 0.0
C3146 C 0.65993 0.74191 0.63525 0.0
C3147 C 0.64552 0.70305 0.56544 0.0
H3148 H 0.69638 0.71134 0.61252 0.0
H3149 H 0.64805 0.67605 0.63871 0.0
H3150 H 0.68429 0.73243 0.57791 0.0
H3151 H 0.68829 0.74532 0.60285 0.0
H3152 H 0.70197 0.73693 0.59616 0.0
H3153 H 0.62559 0.68177 0.63872 0.0
H3154 H 0.62996 0.70323 0.63318 0.0
H3155 H 0.62408 0.68778 0.61063 0.0
H3156 H 0.65004 0.75883 0.60777 0.0
H3157 H 0.6382 0.72625 0.54893 0.0
H3158 H 0.67367 0.74655 0.63618 0.0
H3159 H 0.65367 0.73056 0.64589 0.0
H3160 H 0.65781 0.75217 0.64223 0.0
H3161 H 0.65844 0.70524 0.56304 0.0
H3162 H 0.63906 0.70064 0.54879 0.0
H3163 H 0.63867 0.69136 0.57534 0.0
C3164 C 0.29578 0.95438 0.6072 0.0
C3165 C 0.30103 0.96004 0.62939 0.0
C3166 C 0.28471 0.93702 0.60171 0.0
C3167 C 0.27825 0.92504 0.61893 0.0
C3168 C 0.2836 0.93065 0.64144 0.0
C3169 C 0.2952 0.94812 0.64638 0.0
C3170 C 0.27976 0.93156 0.57745 0.0
C3171 C 0.2766 0.91836 0.66029 0.0
C3172 C 0.23644 0.88623 0.60088 0.0
C3173 C 0.24121 0.8741 0.59492 0.0
C3174 C 0.24815 0.90239 0.6103 0.0
C3175 C 0.26527 0.9069 0.61314 0.0
C3176 C 0.27015 0.89463 0.60786 0.0
C3177 C 0.25803 0.87832 0.59918 0.0
C3178 C 0.24233 0.91496 0.61616 0.0
C3179 C 0.28834 0.89904 0.61021 0.0
H3180 H 0.30048 0.96358 0.59402 0.0
H3181 H 0.29923 0.95254 0.66355 0.0
H3182 H 0.28186 0.92077 0.57295 0.0
H3183 H 0.26612 0.92692 0.57464 0.0
H3184 H 0.28698 0.94221 0.566 0.0
H3185 H 0.28271 0.92452 0.67669 0.0
H3186 H 0.26284 0.91341 0.66122 0.0
H3187 H 0.27829 0.90714 0.65716 0.0
H3188 H 0.22366 0.88346 0.59743 0.0
H3189 H 0.26189 0.86901 0.5953 0.0
H3190 H 0.24709 0.92527 0.60383 0.0
H3191 H 0.24748 0.92112 0.63287 0.0
H3192 H 0.22835 0.9087 0.61616 0.0
H3193 H 0.29593 0.9088 0.59789 0.0
H3194 H 0.28985 0.88766 0.60735 0.0
H3195 H 0.29362 0.90473 0.62706 0.0
C3196 C 0.0535 0.34364 0.67766 0.0
C3197 C 0.03636 0.33649 0.67164 0.0
C3198 C 0.06569 0.34792 0.66136 0.0
C3199 C 0.06063 0.34503 0.63848 0.0
C3200 C 0.04344 0.33841 0.63225 0.0
C3201 C 0.0315 0.33419 0.64891 0.0
C3202 C 0.08391 0.355 0.66868 0.0
C3203 C 0.0376 0.33525 0.608 0.0
C3204 C 0.09534 0.36723 0.59679 0.0
C3205 C 0.09878 0.35415 0.59089 0.0
C3206 C 0.08264 0.36435 0.61182 0.0
C3207 C 0.07323 0.34802 0.62123 0.0
C3208 C 0.07639 0.33466 0.61495 0.0
C3209 C 0.08912 0.33789 0.59986 0.0
C3210 C 0.07953 0.37886 0.61798 0.0
C3211 C 0.06668 0.31709 0.6247 0.0
H3212 H 0.0574 0.34554 0.69516 0.0
H3213 H 0.01829 0.32874 0.6441 0.0
H3214 H 0.08809 0.34583 0.66358 0.0
H3215 H 0.09209 0.36723 0.66037 0.0
H3216 H 0.0859 0.35734 0.68706 0.0
H3217 H 0.02403 0.33126 0.60589 0.0
H3218 H 0.04515 0.34701 0.59846 0.0
H3219 H 0.03958 0.32503 0.60054 0.0
H3220 H 0.10264 0.37977 0.58969 0.0
H3221 H 0.09186 0.3278 0.59561 0.0
H3222 H 0.08254 0.38233 0.63603 0.0
H3223 H 0.06602 0.37475 0.61512 0.0
H3224 H 0.08728 0.39048 0.60825 0.0
H3225 H 0.06914 0.31809 0.64303 0.0
H3226 H 0.07016 0.3079 0.61734 0.0
H3227 H 0.05292 0.31178 0.62188 0.0
C3228 C 0.27525 0.34976 0.67123 0.0
C3229 C 0.28769 0.34657 0.66287 0.0
C3230 C 0.26498 0.35303 0.65688 0.0
C3231 C 0.26717 0.35316 0.63353 0.0
C3232 C 0.27993 0.3503 0.62497 0.0
C3233 C 0.29003 0.34703 0.63974 0.0
C3234 C 0.25154 0.35601 0.66671 0.0
C3235 C 0.28268 0.35039 0.60018 0.0
C3236 C 0.22907 0.34377 0.5967 0.0
C3237 C 0.23273 0.3603 0.59098 0.0
C3238 C 0.24031 0.34126 0.61015 0.0
C3239 C 0.25564 0.35563 0.61812 0.0
C3240 C 0.25954 0.37234 0.61216 0.0
C3241 C 0.24803 0.37448 0.59871 0.0
C3242 C 0.23561 0.32324 0.61623 0.0
C3243 C 0.27578 0.38798 0.62024 0.0
H3244 H 0.27335 0.34949 0.68906 0.0
H3245 H 0.29961 0.34461 0.63311 0.0
H3246 H 0.25318 0.36846 0.66133 0.0
H3247 H 0.23889 0.34582 0.66046 0.0
H3248 H 0.25182 0.35605 0.68527 0.0
H3249 H 0.29362 0.34875 0.59626 0.0
H3250 H 0.27123 0.33986 0.59156 0.0
H3251 H 0.28481 0.36262 0.59323 0.0
H3252 H 0.21719 0.33276 0.59106 0.0
H3253 H 0.25106 0.38727 0.59413 0.0
H3254 H 0.23438 0.32195 0.63458 0.0
H3255 H 0.24571 0.32053 0.61141 0.0
H3256 H 0.22354 0.3134 0.60797 0.0
H3257 H 0.27615 0.38908 0.63875 0.0
H3258 H 0.27725 0.40002 0.6134 0.0
H3259 H 0.28674 0.38668 0.61536 0.0
C3260 C 0.66276 0.95152 0.62995 0.0
C3261 C 0.67947 0.96371 0.62522 0.0
C3262 C 0.65562 0.93434 0.62232 0.0
C3263 C 0.66543 0.92927 0.60973 0.0
C3264 C 0.68254 0.9413 0.60593 0.0
C3265 C 0.68935 0.95834 0.61373 0.0
C3266 C 0.63736 0.92184 0.62685 0.0
C3267 C 0.69348 0.93636 0.59274 0.0
C3268 C 0.6533 0.88274 0.59914 0.0
C3269 C 0.64712 0.87988 0.57693 0.0
C3270 C 0.65857 0.8985 0.61046 0.0
C3271 C 0.65769 0.91172 0.59927 0.0
C3272 C 0.65072 0.90863 0.57721 0.0
C3273 C 0.6455 0.89273 0.56631 0.0
C3274 C 0.66578 0.90124 0.63403 0.0
C3275 C 0.64957 0.92242 0.56469 0.0
H3276 H 0.65501 0.95551 0.63882 0.0
H3277 H 0.7023 0.9676 0.61013 0.0
H3278 H 0.6298 0.91826 0.61096 0.0
H3279 H 0.63603 0.90987 0.63367 0.0
H3280 H 0.63199 0.9273 0.63878 0.0
H3281 H 0.7068 0.94696 0.59241 0.0
H3282 H 0.69326 0.925 0.59995 0.0
H3283 H 0.68844 0.93277 0.57528 0.0
H3284 H 0.65434 0.87273 0.60753 0.0
H3285 H 0.64087 0.89065 0.5491 0.0
H3286 H 0.65985 0.90666 0.64502 0.0
H3287 H 0.67951 0.91065 0.63416 0.0
H3288 H 0.66395 0.88915 0.64117 0.0
H3289 H 0.64314 0.92777 0.57483 0.0
H3290 H 0.64263 0.91755 0.54836 0.0
H3291 H 0.66246 0.93312 0.56161 0.0
C3292 C 0.05667 0.71549 0.67282 0.0
C3293 C 0.04032 0.70206 0.66744 0.0
C3294 C 0.06917 0.72175 0.65679 0.0
C3295 C 0.06527 0.71423 0.63494 0.0
C3296 C 0.049 0.70017 0.62965 0.0
C3297 C 0.03666 0.69432 0.64595 0.0
C3298 C 0.08636 0.73686 0.66302 0.0
C3299 C 0.0445 0.69168 0.60662 0.0
C3300 C 0.09174 0.74452 0.59053 0.0
C3301 C 0.10465 0.74055 0.58848 0.0
C3302 C 0.07843 0.73552 0.60491 0.0
C3303 C 0.07789 0.72206 0.61731 0.0
C3304 C 0.09026 0.71722 0.61423 0.0
C3305 C 0.10358 0.7266 0.59989 0.0
C3306 C 0.06548 0.74107 0.60773 0.0
C3307 C 0.08991 0.70274 0.62692 0.0
H3308 H 0.0596 0.72151 0.6894 0.0
H3309 H 0.02408 0.6838 0.64176 0.0
H3310 H 0.09635 0.73375 0.65916 0.0
H3311 H 0.08867 0.74801 0.65297 0.0
H3312 H 0.08759 0.7407 0.68101 0.0
H3313 H 0.03189 0.67984 0.60587 0.0
H3314 H 0.04444 0.70073 0.59437 0.0
H3315 H 0.05408 0.68833 0.60135 0.0
H3316 H 0.09232 0.75504 0.58134 0.0
H3317 H 0.11354 0.7235 0.59844 0.0
H3318 H 0.06656 0.74637 0.62497 0.0
H3319 H 0.05254 0.72991 0.60536 0.0
H3320 H 0.06708 0.75102 0.59578 0.0
H3321 H 0.09313 0.7067 0.64482 0.0
H3322 H 0.09902 0.6991 0.62044 0.0
H3323 H 0.07707 0.69127 0.62599 0.0
C3324 C 0.00083 0.63155 0.72275 0.0
C3325 C 0.98475 0.62908 0.7271 0.0
C3326 C 0.00605 0.6205 0.73126 0.0
C3327 C 0.99491 0.60664 0.74431 0.0
C3328 C 0.97831 0.60342 0.74751 0.0
C3329 C 0.97343 0.61467 0.73886 0.0
C3330 C 0.02381 0.62424 0.72736 0.0
C3331 C 0.966 0.58864 0.76115 0.0
C3332 C 0.00308 0.57058 0.75872 0.0
C3333 C 0.00939 0.57521 0.78082 0.0
C3334 C 0.99883 0.58098 0.74628 0.0
C3335 C 0.00095 0.59634 0.75623 0.0
C3336 C 0.00791 0.60141 0.77823 0.0
C3337 C 0.01204 0.59076 0.79027 0.0
C3338 C 0.99153 0.57523 0.72283 0.0
C3339 C 0.01037 0.61774 0.78938 0.0
H3340 H 0.00966 0.6426 0.71361 0.0
H3341 H 0.96092 0.61253 0.74211 0.0
H3342 H 0.03134 0.62882 0.74328 0.0
H3343 H 0.02377 0.6124 0.72174 0.0
H3344 H 0.03019 0.63419 0.71474 0.0
H3345 H 0.95315 0.58704 0.76046 0.0
H3346 H 0.96514 0.57648 0.75515 0.0
H3347 H 0.97054 0.59086 0.77886 0.0
H3348 H 0.00126 0.55868 0.75124 0.0
H3349 H 0.01675 0.59431 0.80741 0.0
H3350 H 0.99849 0.58569 0.71107 0.0
H3351 H 0.9782 0.5722 0.72223 0.0
H3352 H 0.99196 0.56368 0.71692 0.0
H3353 H 0.01788 0.62883 0.77872 0.0
H3354 H 0.01687 0.62035 0.80603 0.0
H3355 H 0.99793 0.61682 0.79153 0.0
C3356 C 0.38712 0.3864 0.72353 0.0
C3357 C 0.37045 0.38088 0.7164 0.0
C3358 C 0.39778 0.40319 0.73192 0.0
C3359 C 0.39164 0.41481 0.73328 0.0
C3360 C 0.37523 0.40971 0.72469 0.0
C3361 C 0.36481 0.39278 0.71628 0.0
C3362 C 0.41525 0.40811 0.74065 0.0
C3363 C 0.36829 0.42178 0.72565 0.0
C3364 C 0.41177 0.44734 0.7815 0.0
C3365 C 0.42437 0.46166 0.77088 0.0
C3366 C 0.40051 0.43231 0.76926 0.0
C3367 C 0.40186 0.43153 0.74578 0.0
C3368 C 0.41402 0.44621 0.73482 0.0
C3369 C 0.42515 0.4611 0.7475 0.0
C3370 C 0.38766 0.417 0.78163 0.0
C3371 C 0.41583 0.44591 0.70983 0.0
H3372 H 0.39167 0.37736 0.72342 0.0
H3373 H 0.35195 0.38864 0.71082 0.0
H3374 H 0.4248 0.42044 0.73368 0.0
H3375 H 0.41592 0.40998 0.7591 0.0
H3376 H 0.41867 0.39817 0.73649 0.0
H3377 H 0.3564 0.4168 0.71549 0.0
H3378 H 0.36569 0.42356 0.74323 0.0
H3379 H 0.37766 0.43459 0.71967 0.0
H3380 H 0.41089 0.4478 0.7995 0.0
H3381 H 0.43492 0.47208 0.73918 0.0
H3382 H 0.39063 0.40649 0.78029 0.0
H3383 H 0.37487 0.41209 0.77402 0.0
H3384 H 0.38739 0.4201 0.79962 0.0
H3385 H 0.42105 0.43751 0.70536 0.0
H3386 H 0.42435 0.45892 0.70355 0.0
H3387 H 0.40333 0.44049 0.70111 0.0
C3388 C 0.63571 0.99862 0.7049 0.0
C3389 C 0.63286 0.98727 0.68677 0.0
C3390 C 0.62263 0.99598 0.71906 0.0
C3391 C 0.60635 0.98155 0.71514 0.0
C3392 C 0.60356 0.96965 0.69745 0.0
C3393 C 0.61683 0.97269 0.68341 0.0
C3394 C 0.62608 0.00901 0.73768 0.0
C3395 C 0.58641 0.95399 0.69293 0.0
C3396 C 0.57489 0.96878 0.76157 0.0
C3397 C 0.56493 0.97576 0.75455 0.0
C3398 C 0.58829 0.97038 0.74881 0.0
C3399 C 0.59203 0.97943 0.72873 0.0
C3400 C 0.58215 0.98662 0.72161 0.0
C3401 C 0.56865 0.98456 0.73448 0.0
C3402 C 0.59848 0.96243 0.75682 0.0
C3403 C 0.58585 0.9965 0.70038 0.0
H3404 H 0.64806 0.00992 0.70764 0.0
H3405 H 0.61455 0.9638 0.66953 0.0
H3406 H 0.61862 0.01541 0.73448 0.0
H3407 H 0.62207 0.00256 0.75384 0.0
H3408 H 0.63964 0.01899 0.7393 0.0
H3409 H 0.58663 0.94535 0.6796 0.0
H3410 H 0.58171 0.94666 0.70838 0.0
H3411 H 0.57725 0.95802 0.68774 0.0
H3412 H 0.57233 0.96219 0.7772 0.0
H3413 H 0.56088 0.98973 0.72866 0.0
H3414 H 0.61185 0.97254 0.75982 0.0
H3415 H 0.59826 0.95339 0.74377 0.0
H3416 H 0.59364 0.95539 0.77247 0.0
H3417 H 0.599 0.00743 0.70116 0.0
H3418 H 0.57717 0.00158 0.69742 0.0
H3419 H 0.58472 0.98811 0.68586 0.0
loop_
_geom_bond_atom_site_label_1
_geom_bond_atom_site_label_2
_geom_bond_distance
_geom_bond_site_symmetry_2
_ccdc_geom_bond_type
Mg0 O1 2.028 1_556 S
Mg0 O7 1.986 1_455 S
Mg0 O9 2.114 . S
Mg0 O10 2.251 1_455 S
Mg0 O13 2.010 1_556 S
O1 Mg0 2.028 1_554 S
O1 C4 1.250 1_455 S
O2 Mg3 2.028 1_554 S
O2 C4 1.248 . S
Mg3 O2 2.028 1_556 S
Mg3 O8 2.032 . S
Mg3 O10 2.079 . S
C4 O1 1.250 1_655 S
C4 O2 1.248 . S
C5 O6 1.264 . S
C5 O13 1.249 . S
O6 C5 1.264 . S
O7 Mg0 1.986 1_655 S
O7 C11 1.246 . S
O8 Mg3 2.032 . S
O8 C11 1.259 . S
O9 Mg0 2.114 . S
O9 C12 1.252 . S
O10 Mg0 2.251 1_655 S
O10 Mg3 2.079 . S
O10 C12 1.273 1_655 S
C11 O7 1.246 . S
C11 O8 1.259 . S
C12 O9 1.252 . S
C12 O10 1.273 1_455 S
O13 Mg0 2.010 1_554 S
O13 C5 1.249 . S
Mg14 O15 2.028 1_554 S
Mg14 O21 1.986 . S
Mg14 O23 2.114 . S
Mg14 O24 2.251 . S
Mg14 O27 2.010 . S
O15 Mg14 2.028 1_556 S
O15 C18 1.250 . S
O16 Mg17 2.039 . S
O16 C18 1.241 1_554 S
Mg17 O16 2.039 . S
Mg17 O22 2.032 . S
Mg17 O24 2.079 . S
C18 O15 1.250 . S
C18 O16 1.241 1_556 S
C19 O20 1.267 . S
C19 O27 1.253 . S
O20 C19 1.267 . S
O21 Mg14 1.986 . S
O21 C25 1.246 . S
O22 Mg17 2.032 . S
O22 C25 1.259 . S
O23 Mg14 2.114 . S
O23 C26 1.252 . S
O24 Mg14 2.251 . S
O24 Mg17 2.079 . S
O24 C26 1.273 . S
C25 O21 1.246 . S
C25 O22 1.259 . S
C26 O23 1.252 . S
C26 O24 1.273 . S
O27 Mg14 2.010 . S
O27 C19 1.253 . S
Mg28 O29 2.033 1_566 S
Mg28 O35 1.987 1_565 S
Mg28 O37 2.114 . S
Mg28 O38 2.251 1_565 S
Mg28 O41 2.010 1_556 S
O29 Mg28 2.033 1_544 S
O29 C32 1.258 . S
O30 Mg31 2.028 1_554 S
O30 C32 1.248 . S
Mg31 O30 2.028 1_556 S
Mg31 O36 2.032 . S
Mg31 O38 2.079 . S
C32 O29 1.258 . S
C32 O30 1.248 . S
C33 O34 1.264 . S
C33 O41 1.249 . S
O34 C33 1.264 . S
O35 Mg28 1.987 1_545 S
O35 C39 1.253 . S
O36 Mg31 2.032 . S
O36 C39 1.259 . S
O37 Mg28 2.114 . S
O37 C40 1.252 . S
O38 Mg28 2.251 1_545 S
O38 Mg31 2.079 . S
O38 C40 1.273 1_545 S
C39 O35 1.253 . S
C39 O36 1.259 . S
C40 O37 1.252 . S
C40 O38 1.273 1_565 S
O41 Mg28 2.010 1_554 S
O41 C33 1.249 . S
Mg42 O43 2.028 1_654 S
Mg42 O49 1.986 1_655 S
Mg42 O51 2.114 . S
Mg42 O52 2.251 1_655 S
Mg42 O55 2.010 . S
O43 Mg42 2.028 1_456 S
O43 C46 1.251 . S
O44 Mg45 2.028 1_556 S
O44 C46 1.248 . S
Mg45 O44 2.028 1_554 S
Mg45 O50 2.032 . S
Mg45 O52 2.079 . S
C46 O43 1.251 . S
C46 O44 1.248 . S
C47 O48 1.264 . S
C47 O55 1.249 . S
O48 C47 1.264 . S
O49 Mg42 1.986 1_455 S
O49 C53 1.246 . S
O50 Mg45 2.032 . S
O50 C53 1.259 . S
O51 Mg42 2.114 . S
O51 C54 1.252 . S
O52 Mg42 2.251 1_455 S
O52 Mg45 2.079 . S
O52 C54 1.273 1_455 S
C53 O49 1.246 . S
C53 O50 1.259 . S
C54 O51 1.252 . S
C54 O52 1.273 1_655 S
O55 Mg42 2.010 . S
O55 C47 1.249 . S
Mg56 O57 2.010 1_556 S
Mg56 O63 1.986 . S
Mg56 O65 2.121 . S
Mg56 O66 2.264 . S
Mg56 O69 2.002 1_556 S
O57 Mg56 2.010 1_554 S
O57 C60 1.250 . S
O58 Mg59 2.028 1_554 S
O58 C60 1.248 . S
Mg59 O58 2.028 1_556 S
Mg59 O64 2.032 . S
Mg59 O66 2.079 . S
C60 O57 1.250 . S
C60 O58 1.248 . S
C61 O62 1.264 . S
C61 O69 1.249 . S
O62 C61 1.264 . S
O63 Mg56 1.986 . S
O63 C67 1.246 . S
O64 Mg59 2.032 . S
O64 C67 1.259 . S
O65 Mg56 2.121 . S
O65 C68 1.252 . S
O66 Mg56 2.264 . S
O66 Mg59 2.079 . S
O66 C68 1.273 . S
C67 O63 1.246 . S
C67 O64 1.259 . S
C68 O65 1.252 . S
C68 O66 1.273 . S
O69 Mg56 2.002 1_554 S
O69 C61 1.249 . S
Mg70 O71 2.028 1_554 S
Mg70 O77 1.986 1_545 S
Mg70 O79 2.114 . S
Mg70 O80 2.251 1_545 S
Mg70 O83 2.010 . S
O71 Mg70 2.028 1_556 S
O71 C74 1.250 1_545 S
O72 Mg73 2.028 1_556 S
O72 C74 1.248 . S
Mg73 O72 2.028 1_554 S
Mg73 O78 2.032 . S
Mg73 O80 2.079 . S
C74 O71 1.250 1_565 S
C74 O72 1.248 . S
C75 O76 1.264 . S
C75 O83 1.249 . S
O76 C75 1.264 . S
O77 Mg70 1.986 1_565 S
O77 C81 1.246 . S
O78 Mg73 2.032 . S
O78 C81 1.259 . S
O79 Mg70 2.114 . S
O79 C82 1.252 . S
O80 Mg70 2.251 1_565 S
O80 Mg73 2.079 . S
O80 C82 1.273 1_565 S
C81 O77 1.246 . S
C81 O78 1.259 . S
C82 O79 1.252 . S
C82 O80 1.273 1_545 S
O83 Mg70 2.010 . S
O83 C75 1.249 . S
Mg84 O85 2.028 . S
Mg84 O91 1.986 . S
Mg84 O93 2.114 . S
Mg84 O94 2.251 . S
Mg84 O97 2.010 . S
O85 Mg84 2.028 . S
O85 C88 1.250 . S
O86 Mg87 2.028 . S
O86 C88 1.248 . S
Mg87 O86 2.028 . S
Mg87 O92 2.032 . S
Mg87 O94 2.079 . S
C88 O85 1.250 . S
C88 O86 1.248 . S
C89 O90 1.264 . S
C89 O97 1.249 . S
O90 C89 1.264 . S
O91 Mg84 1.986 . S
O91 C95 1.246 . S
O92 Mg87 2.032 . S
O92 C95 1.259 . S
O93 Mg84 2.114 . S
O93 C96 1.252 . S
O94 Mg84 2.251 . S
O94 Mg87 2.079 . S
O94 C96 1.273 . S
C95 O91 1.246 . S
C95 O92 1.259 . S
C96 O93 1.252 . S
C96 O94 1.273 . S
O97 Mg84 2.010 . S
O97 C89 1.249 . S
Mg98 O99 2.028 . S
Mg98 O105 1.986 1_565 S
Mg98 O107 2.114 . S
Mg98 O108 2.251 . S
Mg98 O111 2.010 . S
O99 Mg98 2.028 . S
O99 C102 1.250 . S
O100 Mg101 2.028 . S
O100 C102 1.248 . S
Mg101 O100 2.028 . S
Mg101 O106 2.032 1_565 S
Mg101 O108 2.079 . S
C102 O99 1.250 . S
C102 O100 1.248 . S
C103 O104 1.264 . S
C103 O111 1.249 . S
O104 C103 1.264 . S
O105 Mg98 1.986 1_545 S
O105 C109 1.246 . S
O106 Mg101 2.032 1_545 S
O106 C109 1.259 . S
O107 Mg98 2.114 . S
O107 C110 1.252 . S
O108 Mg98 2.251 . S
O108 Mg101 2.079 . S
O108 C110 1.273 . S
C109 O105 1.246 . S
C109 O106 1.259 . S
C110 O107 1.252 . S
C110 O108 1.273 . S
O111 Mg98 2.010 . S
O111 C103 1.249 . S
Mg112 O113 2.028 . S
Mg112 O119 1.986 . S
Mg112 O121 2.114 . S
Mg112 O122 2.251 . S
Mg112 O125 2.010 1_455 S
O113 Mg112 2.028 . S
O113 C116 1.250 . S
O114 Mg115 2.028 . S
O114 C116 1.248 . S
Mg115 O114 2.028 . S
Mg115 O120 2.032 . S
Mg115 O122 2.079 . S
C116 O113 1.250 . S
C116 O114 1.248 . S
C117 O118 1.264 . S
C117 O125 1.249 . S
O118 C117 1.264 . S
O119 Mg112 1.986 . S
O119 C123 1.246 . S
O120 Mg115 2.032 . S
O120 C123 1.259 . S
O121 Mg112 2.114 . S
O121 C124 1.252 . S
O122 Mg112 2.251 . S
O122 Mg115 2.079 . S
O122 C124 1.273 . S
C123 O119 1.246 . S
C123 O120 1.259 . S
C124 O121 1.252 . S
C124 O122 1.273 . S
O125 Mg112 2.010 1_655 S
O125 C117 1.249 . S
Mg126 O127 2.028 . S
Mg126 O133 1.986 1_565 S
Mg126 O135 2.114 . S
Mg126 O136 2.251 . S
Mg126 O139 2.010 . S
O127 Mg126 2.028 . S
O127 C130 1.250 . S
O128 Mg129 2.028 . S
O128 C130 1.248 . S
Mg129 O128 2.028 . S
Mg129 O134 2.032 1_565 S
Mg129 O136 2.079 . S
C130 O127 1.250 . S
C130 O128 1.248 . S
C131 O132 1.264 . S
C131 O139 1.249 . S
O132 C131 1.264 . S
O133 Mg126 1.986 1_545 S
O133 C137 1.246 . S
O134 Mg129 2.032 1_545 S
O134 C137 1.259 . S
O135 Mg126 2.114 . S
O135 C138 1.252 . S
O136 Mg126 2.251 . S
O136 Mg129 2.079 . S
O136 C138 1.273 . S
C137 O133 1.246 . S
C137 O134 1.259 . S
C138 O135 1.252 . S
C138 O136 1.273 . S
O139 Mg126 2.010 . S
O139 C131 1.249 . S
Mg140 O141 2.028 . S
Mg140 O147 1.986 . S
Mg140 O149 2.114 . S
Mg140 O150 2.251 . S
Mg140 O153 2.010 1_455 S
O141 Mg140 2.028 . S
O141 C144 1.250 . S
O142 Mg143 2.028 . S
O142 C144 1.248 . S
Mg143 O142 2.028 . S
Mg143 O148 2.032 . S
Mg143 O150 2.079 . S
C144 O141 1.250 . S
C144 O142 1.248 . S
C145 O146 1.264 . S
C145 O153 1.249 . S
O146 C145 1.264 . S
O147 Mg140 1.986 . S
O147 C151 1.246 . S
O148 Mg143 2.032 . S
O148 C151 1.259 . S
O149 Mg140 2.114 . S
O149 C152 1.252 . S
O150 Mg140 2.251 . S
O150 Mg143 2.079 . S
O150 C152 1.273 . S
C151 O147 1.246 . S
C151 O148 1.259 . S
C152 O149 1.252 . S
C152 O150 1.273 . S
O153 Mg140 2.010 1_655 S
O153 C145 1.249 . S
Mg154 O155 2.028 . S
Mg154 O161 1.986 . S
Mg154 O163 2.114 . S
Mg154 O164 2.251 . S
Mg154 O167 2.010 . S
O155 Mg154 2.028 . S
O155 C158 1.250 . S
O156 Mg157 2.028 . S
O156 C158 1.248 . S
Mg157 O156 2.028 . S
Mg157 O162 2.032 . S
Mg157 O164 2.079 . S
C158 O155 1.250 . S
C158 O156 1.248 . S
C159 O160 1.264 . S
C159 O167 1.249 . S
O160 C159 1.264 . S
O161 Mg154 1.986 . S
O161 C165 1.246 . S
O162 Mg157 2.032 . S
O162 C165 1.259 . S
O163 Mg154 2.114 . S
O163 C166 1.252 . S
O164 Mg154 2.251 . S
O164 Mg157 2.079 . S
O164 C166 1.273 . S
C165 O161 1.246 . S
C165 O162 1.259 . S
C166 O163 1.252 . S
C166 O164 1.273 . S
O167 Mg154 2.010 . S
O167 C159 1.249 . S
Mg168 O169 2.028 . S
Mg168 O175 1.986 1_545 S
Mg168 O177 2.114 . S
Mg168 O178 2.251 . S
Mg168 O181 2.010 . S
O169 Mg168 2.028 . S
O169 C172 1.250 . S
O170 Mg171 2.028 . S
O170 C172 1.248 . S
Mg171 O170 2.028 . S
Mg171 O176 2.032 1_545 S
Mg171 O178 2.079 . S
C172 O169 1.250 . S
C172 O170 1.248 . S
C173 O174 1.264 . S
C173 O181 1.249 . S
O174 C173 1.264 . S
O175 Mg168 1.986 1_565 S
O175 C179 1.246 . S
O176 Mg171 2.032 1_565 S
O176 C179 1.259 . S
O177 Mg168 2.114 . S
O177 C180 1.252 . S
O178 Mg168 2.251 . S
O178 Mg171 2.079 . S
O178 C180 1.273 . S
C179 O175 1.246 . S
C179 O176 1.259 . S
C180 O177 1.252 . S
C180 O178 1.273 . S
O181 Mg168 2.010 . S
O181 C173 1.249 . S
Mg182 O183 2.028 . S
Mg182 O189 1.986 . S
Mg182 O191 2.114 . S
Mg182 O192 2.251 . S
Mg182 O195 2.010 1_655 S
O183 Mg182 2.028 . S
O183 C186 1.250 . S
O184 Mg185 2.028 . S
O184 C186 1.248 . S
Mg185 O184 2.028 . S
Mg185 O190 2.032 . S
Mg185 O192 2.079 . S
C186 O183 1.250 . S
C186 O184 1.248 . S
C187 O188 1.264 . S
C187 O195 1.249 . S
O188 C187 1.264 . S
O189 Mg182 1.986 . S
O189 C193 1.246 . S
O190 Mg185 2.032 . S
O190 C193 1.259 . S
O191 Mg182 2.114 . S
O191 C194 1.252 . S
O192 Mg182 2.251 . S
O192 Mg185 2.079 . S
O192 C194 1.273 . S
C193 O189 1.246 . S
C193 O190 1.259 . S
C194 O191 1.252 . S
C194 O192 1.273 . S
O195 Mg182 2.010 1_455 S
O195 C187 1.249 . S
Mg196 O197 2.028 . S
Mg196 O203 1.986 . S
Mg196 O205 2.114 . S
Mg196 O206 2.251 . S
Mg196 O209 2.010 . S
O197 Mg196 2.028 . S
O197 C200 1.250 . S
O198 Mg199 2.028 . S
O198 C200 1.248 . S
Mg199 O198 2.028 . S
Mg199 O204 2.032 . S
Mg199 O206 2.079 . S
C200 O197 1.250 . S
C200 O198 1.248 . S
C201 O202 1.264 . S
C201 O209 1.249 . S
O202 C201 1.264 . S
O203 Mg196 1.986 . S
O203 C207 1.246 . S
O204 Mg199 2.032 . S
O204 C207 1.259 . S
O205 Mg196 2.114 . S
O205 C208 1.252 . S
O206 Mg196 2.251 . S
O206 Mg199 2.079 . S
O206 C208 1.273 . S
C207 O203 1.246 . S
C207 O204 1.259 . S
C208 O205 1.252 . S
C208 O206 1.273 . S
O209 Mg196 2.010 . S
O209 C201 1.249 . S
Mg210 O211 2.028 . S
Mg210 O217 1.986 . S
Mg210 O219 2.114 . S
Mg210 O220 2.251 . S
Mg210 O223 2.010 . S
O211 Mg210 2.028 . S
O211 C214 1.250 . S
O212 Mg213 2.028 . S
O212 C214 1.248 . S
Mg213 O212 2.028 . S
Mg213 O218 2.032 . S
Mg213 O220 2.079 . S
C214 O211 1.250 . S
C214 O212 1.248 . S
C215 O216 1.264 . S
C215 O223 1.249 . S
O216 C215 1.264 . S
O217 Mg210 1.986 . S
O217 C221 1.246 . S
O218 Mg213 2.032 . S
O218 C221 1.259 . S
O219 Mg210 2.114 . S
O219 C222 1.252 . S
O220 Mg210 2.251 . S
O220 Mg213 2.079 . S
O220 C222 1.273 . S
C221 O217 1.246 . S
C221 O218 1.259 . S
C222 O219 1.252 . S
C222 O220 1.273 . S
O223 Mg210 2.010 . S
O223 C215 1.249 . S
Mg224 O225 2.028 . S
Mg224 O231 1.986 1_545 S
Mg224 O233 2.114 . S
Mg224 O234 2.251 . S
Mg224 O237 2.010 . S
O225 Mg224 2.028 . S
O225 C228 1.250 . S
O226 Mg227 2.028 . S
O226 C228 1.248 . S
Mg227 O226 2.028 . S
Mg227 O232 2.032 1_545 S
Mg227 O234 2.079 . S
C228 O225 1.250 . S
C228 O226 1.248 . S
C229 O230 1.264 . S
C229 O237 1.249 . S
O230 C229 1.264 . S
O231 Mg224 1.986 1_565 S
O231 C235 1.246 . S
O232 Mg227 2.032 1_565 S
O232 C235 1.259 . S
O233 Mg224 2.114 . S
O233 C236 1.252 . S
O234 Mg224 2.251 . S
O234 Mg227 2.079 . S
O234 C236 1.273 . S
C235 O231 1.246 . S
C235 O232 1.259 . S
C236 O233 1.252 . S
C236 O234 1.273 . S
O237 Mg224 2.010 . S
O237 C229 1.249 . S
Mg238 O239 2.028 . S
Mg238 O245 1.986 . S
Mg238 O247 2.114 . S
Mg238 O248 2.251 . S
Mg238 O251 2.010 1_655 S
O239 Mg238 2.028 . S
O239 C242 1.250 . S
O240 Mg241 2.028 . S
O240 C242 1.248 . S
Mg241 O240 2.028 . S
Mg241 O246 2.032 . S
Mg241 O248 2.079 . S
C242 O239 1.250 . S
C242 O240 1.248 . S
C243 O244 1.264 . S
C243 O251 1.249 . S
O244 C243 1.264 . S
O245 Mg238 1.986 . S
O245 C249 1.246 . S
O246 Mg241 2.032 . S
O246 C249 1.259 . S
O247 Mg238 2.114 . S
O247 C250 1.252 . S
O248 Mg238 2.251 . S
O248 Mg241 2.079 . S
O248 C250 1.273 . S
C249 O245 1.246 . S
C249 O246 1.259 . S
C250 O247 1.252 . S
C250 O248 1.273 . S
O251 Mg238 2.010 1_455 S
O251 C243 1.249 . S
H252 C271 0.949 . S
H253 C272 0.950 . S
H254 C274 0.950 . S
H255 C275 0.950 . S
H256 C277 0.950 . S
H257 C280 0.950 . S
H258 C281 0.950 . S
H259 C283 0.951 . S
H260 C284 0.949 . S
H261 C286 0.949 . S
H262 C287 0.950 . S
H263 C289 0.950 . S
H264 C290 0.950 . S
H265 C292 0.950 . S
H266 C295 0.950 . S
H267 C296 0.950 . S
H268 C298 0.951 . S
H269 C299 0.949 . S
C270 C271 1.376 . S
C270 C275 1.386 . S
C270 C276 1.483 . S
C271 H252 0.949 . S
C271 C270 1.376 . S
C271 C272 1.397 . S
C272 H253 0.950 . S
C272 C271 1.397 . S
C272 C273 1.391 . S
C273 C272 1.391 . S
C273 C274 1.405 . S
C274 H254 0.950 . S
C274 C273 1.405 . S
C274 C275 1.367 . S
C275 H255 0.950 . S
C275 C270 1.386 . S
C275 C274 1.367 . S
C276 C270 1.483 . S
C276 C277 1.382 . S
C276 C278 1.403 . S
C277 H256 0.950 . S
C277 C276 1.382 . S
C277 C293 1.411 . S
C278 C276 1.403 . S
C278 C279 1.489 . S
C278 C292 1.411 . S
C279 C278 1.489 . S
C279 C280 1.383 . S
C279 C284 1.382 . S
C280 H257 0.950 . S
C280 C279 1.383 . S
C280 C281 1.395 . S
C281 H258 0.950 . S
C281 C280 1.395 . S
C281 C282 1.288 . S
C282 C281 1.288 . S
C282 C283 1.392 . S
C283 H259 0.951 . S
C283 C282 1.392 . S
C283 C284 1.392 . S
C284 H260 0.949 . S
C284 C279 1.382 . S
C284 C283 1.392 . S
C285 C286 1.376 . S
C285 C290 1.386 . S
C285 C291 1.483 . S
C286 H261 0.949 . S
C286 C285 1.376 . S
C286 C287 1.397 . S
C287 H262 0.950 . S
C287 C286 1.397 . S
C287 C288 1.391 . S
C288 C287 1.391 . S
C288 C289 1.405 . S
C289 H263 0.950 . S
C289 C288 1.405 . S
C289 C290 1.367 . S
C290 H264 0.950 . S
C290 C285 1.386 . S
C290 C289 1.367 . S
C291 C285 1.483 . S
C291 C292 1.382 . S
C291 C293 1.403 . S
C292 H265 0.950 . S
C292 C278 1.411 . S
C292 C291 1.382 . S
C293 C277 1.411 . S
C293 C291 1.403 . S
C293 C294 1.489 . S
C294 C293 1.489 . S
C294 C295 1.383 . S
C294 C299 1.382 . S
C295 H266 0.950 . S
C295 C294 1.383 . S
C295 C296 1.395 . S
C296 H267 0.950 . S
C296 C295 1.395 . S
C296 C297 1.288 . S
C297 C296 1.288 . S
C297 C298 1.392 . S
C298 H268 0.951 . S
C298 C297 1.392 . S
C298 C299 1.392 . S
C299 H269 0.949 . S
C299 C294 1.382 . S
C299 C298 1.392 . S
H300 C319 0.949 . S
H301 C320 0.950 . S
H302 C322 0.950 . S
H303 C323 0.950 . S
H304 C325 0.950 . S
H305 C328 0.950 . S
H306 C329 0.950 . S
H307 C331 0.951 . S
H308 C332 0.949 . S
H309 C334 0.949 . S
H310 C335 0.950 . S
H311 C337 0.950 . S
H312 C338 0.950 . S
H313 C340 0.950 . S
H314 C343 0.950 . S
H315 C344 0.950 . S
H316 C346 0.951 . S
H317 C347 0.949 . S
C318 C319 1.376 . S
C318 C323 1.386 . S
C318 C324 1.483 . S
C319 H300 0.949 . S
C319 C318 1.376 . S
C319 C320 1.397 . S
C320 H301 0.950 . S
C320 C319 1.397 . S
C320 C321 1.391 . S
C321 C320 1.391 . S
C321 C322 1.405 . S
C322 H302 0.950 . S
C322 C321 1.405 . S
C322 C323 1.367 . S
C323 H303 0.950 . S
C323 C318 1.386 . S
C323 C322 1.367 . S
C324 C318 1.483 . S
C324 C325 1.382 . S
C324 C326 1.403 . S
C325 H304 0.950 . S
C325 C324 1.382 . S
C325 C341 1.411 . S
C326 C324 1.403 . S
C326 C327 1.489 . S
C326 C340 1.411 . S
C327 C326 1.489 . S
C327 C328 1.383 . S
C327 C332 1.382 . S
C328 H305 0.950 . S
C328 C327 1.383 . S
C328 C329 1.395 . S
C329 H306 0.950 . S
C329 C328 1.395 . S
C329 C330 1.288 . S
C330 C329 1.288 . S
C330 C331 1.392 . S
C331 H307 0.951 . S
C331 C330 1.392 . S
C331 C332 1.392 . S
C332 H308 0.949 . S
C332 C327 1.382 . S
C332 C331 1.392 . S
C333 C334 1.376 . S
C333 C338 1.386 . S
C333 C339 1.483 . S
C334 H309 0.949 . S
C334 C333 1.376 . S
C334 C335 1.397 . S
C335 H310 0.950 . S
C335 C334 1.397 . S
C335 C336 1.391 . S
C336 C335 1.391 . S
C336 C337 1.405 . S
C337 H311 0.950 . S
C337 C336 1.405 . S
C337 C338 1.367 . S
C338 H312 0.950 . S
C338 C333 1.386 . S
C338 C337 1.367 . S
C339 C333 1.483 . S
C339 C340 1.382 . S
C339 C341 1.403 . S
C340 H313 0.950 . S
C340 C326 1.411 . S
C340 C339 1.382 . S
C341 C325 1.411 . S
C341 C339 1.403 . S
C341 C342 1.489 . S
C342 C341 1.489 . S
C342 C343 1.383 . S
C342 C347 1.382 . S
C343 H314 0.950 . S
C343 C342 1.383 . S
C343 C344 1.395 . S
C344 H315 0.950 . S
C344 C343 1.395 . S
C344 C345 1.288 . S
C345 C344 1.288 . S
C345 C346 1.392 . S
C346 H316 0.951 . S
C346 C345 1.392 . S
C346 C347 1.392 . S
C347 H317 0.949 . S
C347 C342 1.382 . S
C347 C346 1.392 . S
H348 C367 0.949 . S
H349 C368 0.950 . S
H350 C370 0.950 . S
H351 C371 0.950 . S
H352 C373 0.950 . S
H353 C376 0.950 . S
H354 C377 0.950 . S
H355 C379 0.951 . S
H356 C380 0.949 . S
H357 C382 0.949 . S
H358 C383 0.950 . S
H359 C385 0.950 . S
H360 C386 0.950 . S
H361 C388 0.950 . S
H362 C391 0.950 . S
H363 C392 0.950 . S
H364 C394 0.951 . S
H365 C395 0.949 . S
C366 C367 1.376 . S
C366 C371 1.386 . S
C366 C372 1.483 . S
C367 H348 0.949 . S
C367 C366 1.376 . S
C367 C368 1.397 . S
C368 H349 0.950 . S
C368 C367 1.397 . S
C368 C369 1.391 . S
C369 C368 1.391 . S
C369 C370 1.405 . S
C370 H350 0.950 . S
C370 C369 1.405 . S
C370 C371 1.367 . S
C371 H351 0.950 . S
C371 C366 1.386 . S
C371 C370 1.367 . S
C372 C366 1.483 . S
C372 C373 1.382 . S
C372 C374 1.403 . S
C373 H352 0.950 . S
C373 C372 1.382 . S
C373 C389 1.411 . S
C374 C372 1.403 . S
C374 C375 1.489 . S
C374 C388 1.411 . S
C375 C374 1.489 . S
C375 C376 1.383 . S
C375 C380 1.382 . S
C376 H353 0.950 . S
C376 C375 1.383 . S
C376 C377 1.395 . S
C377 H354 0.950 . S
C377 C376 1.395 . S
C377 C378 1.288 . S
C378 C377 1.288 . S
C378 C379 1.392 . S
C379 H355 0.951 . S
C379 C378 1.392 . S
C379 C380 1.392 . S
C380 H356 0.949 . S
C380 C375 1.382 . S
C380 C379 1.392 . S
C381 C382 1.376 . S
C381 C386 1.386 . S
C381 C387 1.483 . S
C382 H357 0.949 . S
C382 C381 1.376 . S
C382 C383 1.397 . S
C383 H358 0.950 . S
C383 C382 1.397 . S
C383 C384 1.391 . S
C384 C383 1.391 . S
C384 C385 1.405 . S
C385 H359 0.950 . S
C385 C384 1.405 . S
C385 C386 1.367 . S
C386 H360 0.950 . S
C386 C381 1.386 . S
C386 C385 1.367 . S
C387 C381 1.483 . S
C387 C388 1.382 . S
C387 C389 1.403 . S
C388 H361 0.950 . S
C388 C374 1.411 . S
C388 C387 1.382 . S
C389 C373 1.411 . S
C389 C387 1.403 . S
C389 C390 1.489 . S
C390 C389 1.489 . S
C390 C391 1.383 . S
C390 C395 1.382 . S
C391 H362 0.950 . S
C391 C390 1.383 . S
C391 C392 1.395 . S
C392 H363 0.950 . S
C392 C391 1.395 . S
C392 C393 1.288 . S
C393 C392 1.288 . S
C393 C394 1.392 . S
C394 H364 0.951 . S
C394 C393 1.392 . S
C394 C395 1.392 . S
C395 H365 0.949 . S
C395 C390 1.382 . S
C395 C394 1.392 . S
H396 C415 0.949 . S
H397 C416 0.950 . S
H398 C418 0.950 . S
H399 C419 0.950 . S
H400 C421 0.950 . S
H401 C424 0.950 . S
H402 C425 0.950 . S
H403 C427 0.951 . S
H404 C428 0.949 . S
H405 C430 0.949 . S
H406 C431 0.950 . S
H407 C433 0.950 . S
H408 C434 0.950 . S
H409 C436 0.950 . S
H410 C439 0.950 . S
H411 C440 0.950 . S
H412 C442 0.951 . S
H413 C443 0.949 . S
C414 C415 1.376 . S
C414 C419 1.386 . S
C414 C420 1.483 . S
C415 H396 0.949 . S
C415 C414 1.376 . S
C415 C416 1.397 . S
C416 H397 0.950 . S
C416 C415 1.397 . S
C416 C417 1.391 . S
C417 C416 1.391 . S
C417 C418 1.405 . S
C418 H398 0.950 . S
C418 C417 1.405 . S
C418 C419 1.367 . S
C419 H399 0.950 . S
C419 C414 1.386 . S
C419 C418 1.367 . S
C420 C414 1.483 . S
C420 C421 1.382 . S
C420 C422 1.403 . S
C421 H400 0.950 . S
C421 C420 1.382 . S
C421 C437 1.411 . S
C422 C420 1.403 . S
C422 C423 1.489 . S
C422 C436 1.411 . S
C423 C422 1.489 . S
C423 C424 1.383 . S
C423 C428 1.382 . S
C424 H401 0.950 . S
C424 C423 1.383 . S
C424 C425 1.395 . S
C425 H402 0.950 . S
C425 C424 1.395 . S
C425 C426 1.288 . S
C426 C425 1.288 . S
C426 C427 1.392 . S
C427 H403 0.951 . S
C427 C426 1.392 . S
C427 C428 1.392 . S
C428 H404 0.949 . S
C428 C423 1.382 . S
C428 C427 1.392 . S
C429 C430 1.376 . S
C429 C434 1.386 . S
C429 C435 1.483 . S
C430 H405 0.949 . S
C430 C429 1.376 . S
C430 C431 1.397 . S
C431 H406 0.950 . S
C431 C430 1.397 . S
C431 C432 1.391 . S
C432 C431 1.391 . S
C432 C433 1.405 . S
C433 H407 0.950 . S
C433 C432 1.405 . S
C433 C434 1.367 . S
C434 H408 0.950 . S
C434 C429 1.386 . S
C434 C433 1.367 . S
C435 C429 1.483 . S
C435 C436 1.382 . S
C435 C437 1.403 . S
C436 H409 0.950 . S
C436 C422 1.411 . S
C436 C435 1.382 . S
C437 C421 1.411 . S
C437 C435 1.403 . S
C437 C438 1.489 . S
C438 C437 1.489 . S
C438 C439 1.383 . S
C438 C443 1.382 . S
C439 H410 0.950 . S
C439 C438 1.383 . S
C439 C440 1.395 . S
C440 H411 0.950 . S
C440 C439 1.395 . S
C440 C441 1.288 . S
C441 C440 1.288 . S
C441 C442 1.392 . S
C442 H412 0.951 . S
C442 C441 1.392 . S
C442 C443 1.392 . S
C443 H413 0.949 . S
C443 C438 1.382 . S
C443 C442 1.392 . S
H444 C463 0.949 . S
H445 C464 0.950 . S
H446 C466 0.950 . S
H447 C467 0.950 . S
H448 C469 0.950 . S
H449 C472 0.950 . S
H450 C473 0.950 . S
H451 C475 0.951 . S
H452 C476 0.949 . S
H453 C478 0.949 . S
H454 C479 0.950 . S
H455 C481 0.950 . S
H456 C482 0.950 . S
H457 C484 0.950 . S
H458 C487 0.950 . S
H459 C488 0.950 . S
H460 C490 0.951 . S
H461 C491 0.949 . S
C462 C463 1.376 . S
C462 C467 1.386 . S
C462 C468 1.483 . S
C463 H444 0.949 . S
C463 C462 1.376 . S
C463 C464 1.397 . S
C464 H445 0.950 . S
C464 C463 1.397 . S
C464 C465 1.391 . S
C465 C464 1.391 . S
C465 C466 1.405 . S
C466 H446 0.950 . S
C466 C465 1.405 . S
C466 C467 1.367 . S
C467 H447 0.950 . S
C467 C462 1.386 . S
C467 C466 1.367 . S
C468 C462 1.483 . S
C468 C469 1.382 . S
C468 C470 1.403 . S
C469 H448 0.950 . S
C469 C468 1.382 . S
C469 C485 1.411 . S
C470 C468 1.403 . S
C470 C471 1.489 . S
C470 C484 1.411 . S
C471 C470 1.489 . S
C471 C472 1.383 . S
C471 C476 1.382 . S
C472 H449 0.950 . S
C472 C471 1.383 . S
C472 C473 1.395 . S
C473 H450 0.950 . S
C473 C472 1.395 . S
C473 C474 1.288 . S
C474 C473 1.288 . S
C474 C475 1.392 . S
C475 H451 0.951 . S
C475 C474 1.392 . S
C475 C476 1.392 . S
C476 H452 0.949 . S
C476 C471 1.382 . S
C476 C475 1.392 . S
C477 C478 1.376 . S
C477 C482 1.386 . S
C477 C483 1.483 . S
C478 H453 0.949 . S
C478 C477 1.376 . S
C478 C479 1.397 . S
C479 H454 0.950 . S
C479 C478 1.397 . S
C479 C480 1.391 . S
C480 C479 1.391 . S
C480 C481 1.405 . S
C481 H455 0.950 . S
C481 C480 1.405 . S
C481 C482 1.367 . S
C482 H456 0.950 . S
C482 C477 1.386 . S
C482 C481 1.367 . S
C483 C477 1.483 . S
C483 C484 1.382 . S
C483 C485 1.403 . S
C484 H457 0.950 . S
C484 C470 1.411 . S
C484 C483 1.382 . S
C485 C469 1.411 . S
C485 C483 1.403 . S
C485 C486 1.489 . S
C486 C485 1.489 . S
C486 C487 1.383 . S
C486 C491 1.382 . S
C487 H458 0.950 . S
C487 C486 1.383 . S
C487 C488 1.395 . S
C488 H459 0.950 . S
C488 C487 1.395 . S
C488 C489 1.288 . S
C489 C488 1.288 . S
C489 C490 1.392 . S
C490 H460 0.951 . S
C490 C489 1.392 . S
C490 C491 1.392 . S
C491 H461 0.949 . S
C491 C486 1.382 . S
C491 C490 1.392 . S
H492 C511 0.949 . S
H493 C512 0.950 . S
H494 C514 0.950 . S
H495 C515 0.950 . S
H496 C517 0.950 . S
H497 C520 0.950 . S
H498 C521 0.950 . S
H499 C523 0.951 . S
H500 C524 0.949 . S
H501 C526 0.949 . S
H502 C527 0.950 . S
H503 C529 0.950 . S
H504 C530 0.950 . S
H505 C532 0.950 . S
H506 C535 0.950 . S
H507 C536 0.950 . S
H508 C538 0.951 . S
H509 C539 0.949 . S
C510 C511 1.376 . S
C510 C515 1.386 . S
C510 C516 1.483 . S
C511 H492 0.949 . S
C511 C510 1.376 . S
C511 C512 1.397 . S
C512 H493 0.950 . S
C512 C511 1.397 . S
C512 C513 1.391 . S
C513 C512 1.391 . S
C513 C514 1.405 . S
C514 H494 0.950 . S
C514 C513 1.405 . S
C514 C515 1.367 . S
C515 H495 0.950 . S
C515 C510 1.386 . S
C515 C514 1.367 . S
C516 C510 1.483 . S
C516 C517 1.382 . S
C516 C518 1.403 . S
C517 H496 0.950 . S
C517 C516 1.382 . S
C517 C533 1.411 . S
C518 C516 1.403 . S
C518 C519 1.489 . S
C518 C532 1.411 . S
C519 C518 1.489 . S
C519 C520 1.383 . S
C519 C524 1.382 . S
C520 H497 0.950 . S
C520 C519 1.383 . S
C520 C521 1.395 . S
C521 H498 0.950 . S
C521 C520 1.395 . S
C521 C522 1.288 . S
C522 C521 1.288 . S
C522 C523 1.392 . S
C523 H499 0.951 . S
C523 C522 1.392 . S
C523 C524 1.392 . S
C524 H500 0.949 . S
C524 C519 1.382 . S
C524 C523 1.392 . S
C525 C526 1.376 . S
C525 C530 1.386 . S
C525 C531 1.483 . S
C526 H501 0.949 . S
C526 C525 1.376 . S
C526 C527 1.397 . S
C527 H502 0.950 . S
C527 C526 1.397 . S
C527 C528 1.391 . S
C528 C527 1.391 . S
C528 C529 1.405 . S
C529 H503 0.950 . S
C529 C528 1.405 . S
C529 C530 1.367 . S
C530 H504 0.950 . S
C530 C525 1.386 . S
C530 C529 1.367 . S
C531 C525 1.483 . S
C531 C532 1.382 . S
C531 C533 1.403 . S
C532 H505 0.950 . S
C532 C518 1.411 . S
C532 C531 1.382 . S
C533 C517 1.411 . S
C533 C531 1.403 . S
C533 C534 1.489 . S
C534 C533 1.489 . S
C534 C535 1.383 . S
C534 C539 1.382 . S
C535 H506 0.950 . S
C535 C534 1.383 . S
C535 C536 1.395 . S
C536 H507 0.950 . S
C536 C535 1.395 . S
C536 C537 1.288 . S
C537 C536 1.288 . S
C537 C538 1.392 . S
C538 H508 0.951 . S
C538 C537 1.392 . S
C538 C539 1.392 . S
C539 H509 0.949 . S
C539 C534 1.382 . S
C539 C538 1.392 . S
H540 C559 0.949 . S
H541 C560 0.950 . S
H542 C562 0.950 . S
H543 C563 0.950 . S
H544 C565 0.950 . S
H545 C568 0.950 . S
H546 C569 0.950 . S
H547 C571 0.951 . S
H548 C572 0.949 . S
H549 C574 0.949 . S
H550 C575 0.950 . S
H551 C577 0.950 . S
H552 C578 0.950 . S
H553 C580 0.950 . S
H554 C583 0.950 . S
H555 C584 0.950 . S
H556 C586 0.951 . S
H557 C587 0.949 . S
C558 C559 1.376 . S
C558 C563 1.386 . S
C558 C564 1.483 . S
C559 H540 0.949 . S
C559 C558 1.376 . S
C559 C560 1.397 . S
C560 H541 0.950 . S
C560 C559 1.397 . S
C560 C561 1.391 . S
C561 C560 1.391 . S
C561 C562 1.405 . S
C562 H542 0.950 . S
C562 C561 1.405 . S
C562 C563 1.367 . S
C563 H543 0.950 . S
C563 C558 1.386 . S
C563 C562 1.367 . S
C564 C558 1.483 . S
C564 C565 1.382 . S
C564 C566 1.403 . S
C565 H544 0.950 . S
C565 C564 1.382 . S
C565 C581 1.411 . S
C566 C564 1.403 . S
C566 C567 1.489 . S
C566 C580 1.411 . S
C567 C566 1.489 . S
C567 C568 1.383 . S
C567 C572 1.382 . S
C568 H545 0.950 . S
C568 C567 1.383 . S
C568 C569 1.395 . S
C569 H546 0.950 . S
C569 C568 1.395 . S
C569 C570 1.288 . S
C570 C569 1.288 . S
C570 C571 1.392 . S
C571 H547 0.951 . S
C571 C570 1.392 . S
C571 C572 1.392 . S
C572 H548 0.949 . S
C572 C567 1.382 . S
C572 C571 1.392 . S
C573 C574 1.376 . S
C573 C578 1.386 . S
C573 C579 1.483 . S
C574 H549 0.949 . S
C574 C573 1.376 . S
C574 C575 1.397 . S
C575 H550 0.950 . S
C575 C574 1.397 . S
C575 C576 1.391 . S
C576 C575 1.391 . S
C576 C577 1.405 . S
C577 H551 0.950 . S
C577 C576 1.405 . S
C577 C578 1.367 . S
C578 H552 0.950 . S
C578 C573 1.386 . S
C578 C577 1.367 . S
C579 C573 1.483 . S
C579 C580 1.382 . S
C579 C581 1.403 . S
C580 H553 0.950 . S
C580 C566 1.411 . S
C580 C579 1.382 . S
C581 C565 1.411 . S
C581 C579 1.403 . S
C581 C582 1.489 . S
C582 C581 1.489 . S
C582 C583 1.383 . S
C582 C587 1.382 . S
C583 H554 0.950 . S
C583 C582 1.383 . S
C583 C584 1.395 . S
C584 H555 0.950 . S
C584 C583 1.395 . S
C584 C585 1.288 . S
C585 C584 1.288 . S
C585 C586 1.392 . S
C586 H556 0.951 . S
C586 C585 1.392 . S
C586 C587 1.392 . S
C587 H557 0.949 . S
C587 C582 1.382 . S
C587 C586 1.392 . S
H588 C607 0.949 . S
H589 C608 0.950 . S
H590 C610 0.950 . S
H591 C611 0.950 . S
H592 C613 0.950 . S
H593 C616 0.950 . S
H594 C617 0.950 . S
H595 C619 0.951 . S
H596 C620 0.949 . S
H597 C622 0.949 . S
H598 C623 0.950 . S
H599 C625 0.950 . S
H600 C626 0.950 . S
H601 C628 0.950 . S
H602 C631 0.950 . S
H603 C632 0.950 . S
H604 C634 0.951 . S
H605 C635 0.949 . S
C606 C607 1.376 . S
C606 C611 1.386 . S
C606 C612 1.483 . S
C607 H588 0.949 . S
C607 C606 1.376 . S
C607 C608 1.397 . S
C608 H589 0.950 . S
C608 C607 1.397 . S
C608 C609 1.391 . S
C609 C608 1.391 . S
C609 C610 1.405 . S
C610 H590 0.950 . S
C610 C609 1.405 . S
C610 C611 1.367 . S
C611 H591 0.950 . S
C611 C606 1.386 . S
C611 C610 1.367 . S
C612 C606 1.483 . S
C612 C613 1.382 . S
C612 C614 1.403 . S
C613 H592 0.950 . S
C613 C612 1.382 . S
C613 C629 1.411 . S
C614 C612 1.403 . S
C614 C615 1.489 . S
C614 C628 1.411 . S
C615 C614 1.489 . S
C615 C616 1.383 . S
C615 C620 1.382 . S
C616 H593 0.950 . S
C616 C615 1.383 . S
C616 C617 1.395 . S
C617 H594 0.950 . S
C617 C616 1.395 . S
C617 C618 1.288 . S
C618 C617 1.288 . S
C618 C619 1.392 . S
C619 H595 0.951 . S
C619 C618 1.392 . S
C619 C620 1.392 . S
C620 H596 0.949 . S
C620 C615 1.382 . S
C620 C619 1.392 . S
C621 C622 1.376 . S
C621 C626 1.386 . S
C621 C627 1.483 . S
C622 H597 0.949 . S
C622 C621 1.376 . S
C622 C623 1.397 . S
C623 H598 0.950 . S
C623 C622 1.397 . S
C623 C624 1.391 . S
C624 C623 1.391 . S
C624 C625 1.405 . S
C625 H599 0.950 . S
C625 C624 1.405 . S
C625 C626 1.367 . S
C626 H600 0.950 . S
C626 C621 1.386 . S
C626 C625 1.367 . S
C627 C621 1.483 . S
C627 C628 1.382 . S
C627 C629 1.403 . S
C628 H601 0.950 . S
C628 C614 1.411 . S
C628 C627 1.382 . S
C629 C613 1.411 . S
C629 C627 1.403 . S
C629 C630 1.489 . S
C630 C629 1.489 . S
C630 C631 1.383 . S
C630 C635 1.382 . S
C631 H602 0.950 . S
C631 C630 1.383 . S
C631 C632 1.395 . S
C632 H603 0.950 . S
C632 C631 1.395 . S
C632 C633 1.288 . S
C633 C632 1.288 . S
C633 C634 1.392 . S
C634 H604 0.951 . S
C634 C633 1.392 . S
C634 C635 1.392 . S
C635 H605 0.949 . S
C635 C630 1.382 . S
C635 C634 1.392 . S
H636 C655 0.949 . S
H637 C656 0.950 . S
H638 C658 0.950 . S
H639 C659 0.950 . S
H640 C661 0.950 . S
H641 C664 0.950 . S
H642 C665 0.950 . S
H643 C667 0.951 . S
H644 C668 0.949 . S
H645 C670 0.949 . S
H646 C671 0.950 . S
H647 C673 0.950 . S
H648 C674 0.950 . S
H649 C676 0.950 . S
H650 C679 0.950 . S
H651 C680 0.950 . S
H652 C682 0.951 . S
H653 C683 0.949 . S
C654 C655 1.376 . S
C654 C659 1.386 . S
C654 C660 1.483 . S
C655 H636 0.949 . S
C655 C654 1.376 . S
C655 C656 1.397 . S
C656 H637 0.950 . S
C656 C655 1.397 . S
C656 C657 1.391 . S
C657 C656 1.391 . S
C657 C658 1.405 . S
C658 H638 0.950 . S
C658 C657 1.405 . S
C658 C659 1.367 . S
C659 H639 0.950 . S
C659 C654 1.386 . S
C659 C658 1.367 . S
C660 C654 1.483 . S
C660 C661 1.382 . S
C660 C662 1.403 . S
C661 H640 0.950 . S
C661 C660 1.382 . S
C661 C677 1.411 . S
C662 C660 1.403 . S
C662 C663 1.489 . S
C662 C676 1.411 . S
C663 C662 1.489 . S
C663 C664 1.383 . S
C663 C668 1.382 . S
C664 H641 0.950 . S
C664 C663 1.383 . S
C664 C665 1.395 . S
C665 H642 0.950 . S
C665 C664 1.395 . S
C665 C666 1.288 . S
C666 C665 1.288 . S
C666 C667 1.392 . S
C667 H643 0.951 . S
C667 C666 1.392 . S
C667 C668 1.392 . S
C668 H644 0.949 . S
C668 C663 1.382 . S
C668 C667 1.392 . S
C669 C670 1.376 . S
C669 C674 1.386 . S
C669 C675 1.483 . S
C670 H645 0.949 . S
C670 C669 1.376 . S
C670 C671 1.397 . S
C671 H646 0.950 . S
C671 C670 1.397 . S
C671 C672 1.391 . S
C672 C671 1.391 . S
C672 C673 1.405 . S
C673 H647 0.950 . S
C673 C672 1.405 . S
C673 C674 1.367 . S
C674 H648 0.950 . S
C674 C669 1.386 . S
C674 C673 1.367 . S
C675 C669 1.483 . S
C675 C676 1.382 . S
C675 C677 1.403 . S
C676 H649 0.950 . S
C676 C662 1.411 . S
C676 C675 1.382 . S
C677 C661 1.411 . S
C677 C675 1.403 . S
C677 C678 1.489 . S
C678 C677 1.489 . S
C678 C679 1.383 . S
C678 C683 1.382 . S
C679 H650 0.950 . S
C679 C678 1.383 . S
C679 C680 1.395 . S
C680 H651 0.950 . S
C680 C679 1.395 . S
C680 C681 1.288 . S
C681 C680 1.288 . S
C681 C682 1.392 . S
C682 H652 0.951 . S
C682 C681 1.392 . S
C682 C683 1.392 . S
C683 H653 0.949 . S
C683 C678 1.382 . S
C683 C682 1.392 . S
H684 C703 0.949 . S
H685 C704 0.950 . S
H686 C706 0.950 . S
H687 C707 0.950 . S
H688 C709 0.950 . S
H689 C712 0.950 . S
H690 C713 0.950 . S
H691 C715 0.951 . S
H692 C716 0.949 . S
H693 C718 0.949 . S
H694 C719 0.950 . S
H695 C721 0.950 . S
H696 C722 0.950 . S
H697 C724 0.950 . S
H698 C727 0.950 . S
H699 C728 0.950 . S
H700 C730 0.951 . S
H701 C731 0.949 . S
C702 C703 1.376 . S
C702 C707 1.386 1_655 S
C702 C708 1.483 . S
C703 H684 0.949 . S
C703 C702 1.376 . S
C703 C704 1.397 . S
C704 H685 0.950 . S
C704 C703 1.397 . S
C704 C705 1.391 . S
C705 C704 1.391 . S
C705 C706 1.405 1_655 S
C706 H686 0.950 . S
C706 C705 1.405 1_455 S
C706 C707 1.367 . S
C707 H687 0.950 . S
C707 C702 1.386 1_455 S
C707 C706 1.367 . S
C708 C702 1.483 . S
C708 C709 1.382 . S
C708 C710 1.403 1_655 S
C709 H688 0.950 . S
C709 C708 1.382 . S
C709 C725 1.411 . S
C710 C708 1.403 1_455 S
C710 C711 1.489 . S
C710 C724 1.411 . S
C711 C710 1.489 . S
C711 C712 1.383 1_455 S
C711 C716 1.382 . S
C712 H689 0.950 . S
C712 C711 1.383 1_655 S
C712 C713 1.395 . S
C713 H690 0.950 . S
C713 C712 1.395 . S
C713 C714 1.288 1_655 S
C714 C713 1.288 1_455 S
C714 C715 1.392 . S
C715 H691 0.951 . S
C715 C714 1.392 . S
C715 C716 1.392 . S
C716 H692 0.949 . S
C716 C711 1.382 . S
C716 C715 1.392 . S
C717 C718 1.376 . S
C717 C722 1.386 1_455 S
C717 C723 1.483 . S
C718 H693 0.949 . S
C718 C717 1.376 . S
C718 C719 1.397 . S
C719 H694 0.950 . S
C719 C718 1.397 . S
C719 C720 1.391 . S
C720 C719 1.391 . S
C720 C721 1.405 1_455 S
C721 H695 0.950 . S
C721 C720 1.405 1_655 S
C721 C722 1.367 . S
C722 H696 0.950 . S
C722 C717 1.386 1_655 S
C722 C721 1.367 . S
C723 C717 1.483 . S
C723 C724 1.382 . S
C723 C725 1.403 1_455 S
C724 H697 0.950 . S
C724 C710 1.411 . S
C724 C723 1.382 . S
C725 C709 1.411 . S
C725 C723 1.403 1_655 S
C725 C726 1.489 . S
C726 C725 1.489 . S
C726 C727 1.383 1_655 S
C726 C731 1.382 . S
C727 H698 0.950 . S
C727 C726 1.383 1_455 S
C727 C728 1.395 . S
C728 H699 0.950 . S
C728 C727 1.395 . S
C728 C729 1.288 1_455 S
C729 C728 1.288 1_655 S
C729 C730 1.392 . S
C730 H700 0.951 . S
C730 C729 1.392 . S
C730 C731 1.392 . S
C731 H701 0.949 . S
C731 C726 1.382 . S
C731 C730 1.392 . S
H732 C751 0.949 . S
H733 C752 0.950 . S
H734 C754 0.950 . S
H735 C755 0.950 . S
H736 C757 0.950 . S
H737 C760 0.950 . S
H738 C761 0.950 . S
H739 C763 0.951 . S
H740 C764 0.949 . S
H741 C766 0.949 . S
H742 C767 0.950 . S
H743 C769 0.950 . S
H744 C770 0.950 . S
H745 C772 0.950 . S
H746 C775 0.950 . S
H747 C776 0.950 . S
H748 C778 0.951 . S
H749 C779 0.949 . S
C750 C751 1.376 . S
C750 C755 1.386 . S
C750 C756 1.483 . S
C751 H732 0.949 . S
C751 C750 1.376 . S
C751 C752 1.397 . S
C752 H733 0.950 . S
C752 C751 1.397 . S
C752 C753 1.391 . S
C753 C752 1.391 . S
C753 C754 1.405 . S
C754 H734 0.950 . S
C754 C753 1.405 . S
C754 C755 1.367 . S
C755 H735 0.950 . S
C755 C750 1.386 . S
C755 C754 1.367 . S
C756 C750 1.483 . S
C756 C757 1.382 . S
C756 C758 1.403 . S
C757 H736 0.950 . S
C757 C756 1.382 . S
C757 C773 1.411 . S
C758 C756 1.403 . S
C758 C759 1.489 . S
C758 C772 1.411 . S
C759 C758 1.489 . S
C759 C760 1.383 . S
C759 C764 1.382 . S
C760 H737 0.950 . S
C760 C759 1.383 . S
C760 C761 1.395 . S
C761 H738 0.950 . S
C761 C760 1.395 . S
C761 C762 1.288 . S
C762 C761 1.288 . S
C762 C763 1.392 . S
C763 H739 0.951 . S
C763 C762 1.392 . S
C763 C764 1.392 . S
C764 H740 0.949 . S
C764 C759 1.382 . S
C764 C763 1.392 . S
C765 C766 1.376 . S
C765 C770 1.386 . S
C765 C771 1.483 . S
C766 H741 0.949 . S
C766 C765 1.376 . S
C766 C767 1.397 . S
C767 H742 0.950 . S
C767 C766 1.397 . S
C767 C768 1.391 . S
C768 C767 1.391 . S
C768 C769 1.405 . S
C769 H743 0.950 . S
C769 C768 1.405 . S
C769 C770 1.367 . S
C770 H744 0.950 . S
C770 C765 1.386 . S
C770 C769 1.367 . S
C771 C765 1.483 . S
C771 C772 1.382 . S
C771 C773 1.403 . S
C772 H745 0.950 . S
C772 C758 1.411 . S
C772 C771 1.382 . S
C773 C757 1.411 . S
C773 C771 1.403 . S
C773 C774 1.489 . S
C774 C773 1.489 . S
C774 C775 1.383 . S
C774 C779 1.382 . S
C775 H746 0.950 . S
C775 C774 1.383 . S
C775 C776 1.395 . S
C776 H747 0.950 . S
C776 C775 1.395 . S
C776 C777 1.288 . S
C777 C776 1.288 . S
C777 C778 1.392 . S
C778 H748 0.951 . S
C778 C777 1.392 . S
C778 C779 1.392 . S
C779 H749 0.949 . S
C779 C774 1.382 . S
C779 C778 1.392 . S
H780 C799 0.949 . S
H781 C800 0.950 . S
H782 C802 0.950 . S
H783 C803 0.950 . S
H784 C805 0.950 . S
H785 C808 0.950 . S
H786 C809 0.950 . S
H787 C811 0.951 . S
H788 C812 0.949 . S
H789 C814 0.949 . S
H790 C815 0.950 . S
H791 C817 0.950 . S
H792 C818 0.950 . S
H793 C820 0.950 . S
H794 C823 0.950 . S
H795 C824 0.950 . S
H796 C826 0.951 . S
H797 C827 0.949 . S
C798 C799 1.376 . S
C798 C803 1.386 1_545 S
C798 C804 1.483 . S
C799 H780 0.949 . S
C799 C798 1.376 . S
C799 C800 1.397 . S
C800 H781 0.950 . S
C800 C799 1.397 . S
C800 C801 1.391 . S
C801 C800 1.391 . S
C801 C802 1.405 1_545 S
C802 H782 0.950 . S
C802 C801 1.405 1_565 S
C802 C803 1.367 . S
C803 H783 0.950 . S
C803 C798 1.386 1_565 S
C803 C802 1.367 . S
C804 C798 1.483 . S
C804 C805 1.382 . S
C804 C806 1.403 1_545 S
C805 H784 0.950 . S
C805 C804 1.382 . S
C805 C821 1.411 . S
C806 C804 1.403 1_565 S
C806 C807 1.489 . S
C806 C820 1.411 . S
C807 C806 1.489 . S
C807 C808 1.383 1_565 S
C807 C812 1.382 . S
C808 H785 0.950 . S
C808 C807 1.383 1_545 S
C808 C809 1.395 . S
C809 H786 0.950 . S
C809 C808 1.395 . S
C809 C810 1.288 1_545 S
C810 C809 1.288 1_565 S
C810 C811 1.392 . S
C811 H787 0.951 . S
C811 C810 1.392 . S
C811 C812 1.392 . S
C812 H788 0.949 . S
C812 C807 1.382 . S
C812 C811 1.392 . S
C813 C814 1.376 . S
C813 C818 1.386 1_565 S
C813 C819 1.483 . S
C814 H789 0.949 . S
C814 C813 1.376 . S
C814 C815 1.397 . S
C815 H790 0.950 . S
C815 C814 1.397 . S
C815 C816 1.391 . S
C816 C815 1.391 . S
C816 C817 1.405 1_565 S
C817 H791 0.950 . S
C817 C816 1.405 1_545 S
C817 C818 1.367 . S
C818 H792 0.950 . S
C818 C813 1.386 1_545 S
C818 C817 1.367 . S
C819 C813 1.483 . S
C819 C820 1.382 . S
C819 C821 1.403 1_565 S
C820 H793 0.950 . S
C820 C806 1.411 . S
C820 C819 1.382 . S
C821 C805 1.411 . S
C821 C819 1.403 1_545 S
C821 C822 1.489 . S
C822 C821 1.489 . S
C822 C823 1.383 1_545 S
C822 C827 1.382 . S
C823 H794 0.950 . S
C823 C822 1.383 1_565 S
C823 C824 1.395 . S
C824 H795 0.950 . S
C824 C823 1.395 . S
C824 C825 1.288 1_565 S
C825 C824 1.288 1_545 S
C825 C826 1.392 . S
C826 H796 0.951 . S
C826 C825 1.392 . S
C826 C827 1.392 . S
C827 H797 0.949 . S
C827 C822 1.382 . S
C827 C826 1.392 . S
H828 C847 0.949 . S
H829 C848 0.950 . S
H830 C850 0.950 . S
H831 C851 0.950 . S
H832 C853 0.950 . S
H833 C856 0.950 . S
H834 C857 0.950 . S
H835 C859 0.951 . S
H836 C860 0.949 . S
H837 C862 0.949 . S
H838 C863 0.950 . S
H839 C865 0.950 . S
H840 C866 0.950 . S
H841 C868 0.950 . S
H842 C871 0.950 . S
H843 C872 0.950 . S
H844 C874 0.951 . S
H845 C875 0.949 . S
C846 C847 1.376 . S
C846 C851 1.386 1_545 S
C846 C852 1.506 . S
C847 H828 0.949 . S
C847 C846 1.376 . S
C847 C848 1.397 . S
C848 H829 0.950 . S
C848 C847 1.397 . S
C848 C849 1.391 1_545 S
C849 C848 1.391 1_565 S
C849 C850 1.405 . S
C850 H830 0.950 . S
C850 C849 1.405 . S
C850 C851 1.367 . S
C851 H831 0.950 . S
C851 C846 1.386 1_565 S
C851 C850 1.367 . S
C852 C846 1.506 . S
C852 C853 1.360 . S
C852 C854 1.400 1_545 S
C853 H832 0.950 . S
C853 C852 1.360 . S
C853 C869 1.446 . S
C854 C852 1.400 1_565 S
C854 C855 1.485 . S
C854 C868 1.437 . S
C855 C854 1.485 . S
C855 C856 1.342 1_565 S
C855 C860 1.404 . S
C856 H833 0.950 . S
C856 C855 1.342 1_545 S
C856 C857 1.395 . S
C857 H834 0.950 . S
C857 C856 1.395 . S
C857 C858 1.288 . S
C858 C857 1.288 . S
C858 C859 1.392 1_545 S
C859 H835 0.951 . S
C859 C858 1.392 1_565 S
C859 C860 1.392 . S
C860 H836 0.949 . S
C860 C855 1.404 . S
C860 C859 1.392 . S
C861 C862 1.376 1_545 S
C861 C866 1.386 . S
C861 C867 1.498 1_545 S
C862 H837 0.949 . S
C862 C861 1.376 1_565 S
C862 C863 1.397 . S
C863 H838 0.950 . S
C863 C862 1.397 . S
C863 C864 1.391 1_565 S
C864 C863 1.391 1_545 S
C864 C865 1.405 . S
C865 H839 0.950 . S
C865 C864 1.405 . S
C865 C866 1.367 . S
C866 H840 0.950 . S
C866 C861 1.386 . S
C866 C865 1.367 . S
C867 C861 1.498 1_565 S
C867 C868 1.366 . S
C867 C869 1.400 1_565 S
C868 H841 0.950 . S
C868 C854 1.437 . S
C868 C867 1.366 . S
C869 C853 1.446 . S
C869 C867 1.400 1_545 S
C869 C870 1.485 . S
C870 C869 1.485 . S
C870 C871 1.325 1_545 S
C870 C875 1.413 . S
C871 H842 0.950 . S
C871 C870 1.325 1_565 S
C871 C872 1.395 . S
C872 H843 0.950 . S
C872 C871 1.395 . S
C872 C873 1.324 . S
C873 C872 1.324 . S
C873 C874 1.321 1_565 S
C874 H844 0.951 . S
C874 C873 1.321 1_545 S
C874 C875 1.392 . S
C875 H845 0.949 . S
C875 C870 1.413 . S
C875 C874 1.392 . S
H876 C895 0.949 . S
H877 C896 0.950 . S
H878 C898 0.950 . S
H879 C899 0.950 . S
H880 C901 0.950 . S
H881 C904 0.950 . S
H882 C905 0.950 . S
H883 C907 0.951 . S
H884 C908 0.949 . S
H885 C910 0.949 . S
H886 C911 0.950 . S
H887 C913 0.950 . S
H888 C914 0.950 . S
H889 C916 0.950 . S
H890 C919 0.950 . S
H891 C920 0.950 . S
H892 C922 0.951 . S
H893 C923 0.949 . S
C894 C895 1.376 . S
C894 C899 1.386 1_455 S
C894 C900 1.483 . S
C895 H876 0.949 . S
C895 C894 1.376 . S
C895 C896 1.397 . S
C896 H877 0.950 . S
C896 C895 1.397 . S
C896 C897 1.391 . S
C897 C896 1.391 . S
C897 C898 1.405 1_455 S
C898 H878 0.950 . S
C898 C897 1.405 1_655 S
C898 C899 1.367 . S
C899 H879 0.950 . S
C899 C894 1.386 1_655 S
C899 C898 1.367 . S
C900 C894 1.483 . S
C900 C901 1.382 . S
C900 C902 1.403 1_455 S
C901 H880 0.950 . S
C901 C900 1.382 . S
C901 C917 1.411 . S
C902 C900 1.403 1_655 S
C902 C903 1.489 . S
C902 C916 1.411 . S
C903 C902 1.489 . S
C903 C904 1.383 1_655 S
C903 C908 1.382 . S
C904 H881 0.950 . S
C904 C903 1.383 1_455 S
C904 C905 1.395 . S
C905 H882 0.950 . S
C905 C904 1.395 . S
C905 C906 1.288 1_455 S
C906 C905 1.288 1_655 S
C906 C907 1.392 . S
C907 H883 0.951 . S
C907 C906 1.392 . S
C907 C908 1.392 . S
C908 H884 0.949 . S
C908 C903 1.382 . S
C908 C907 1.392 . S
C909 C910 1.376 . S
C909 C914 1.386 1_655 S
C909 C915 1.483 . S
C910 H885 0.949 . S
C910 C909 1.376 . S
C910 C911 1.397 . S
C911 H886 0.950 . S
C911 C910 1.397 . S
C911 C912 1.391 . S
C912 C911 1.391 . S
C912 C913 1.405 1_655 S
C913 H887 0.950 . S
C913 C912 1.405 1_455 S
C913 C914 1.367 . S
C914 H888 0.950 . S
C914 C909 1.386 1_455 S
C914 C913 1.367 . S
C915 C909 1.483 . S
C915 C916 1.382 . S
C915 C917 1.403 1_655 S
C916 H889 0.950 . S
C916 C902 1.411 . S
C916 C915 1.382 . S
C917 C901 1.411 . S
C917 C915 1.403 1_455 S
C917 C918 1.489 . S
C918 C917 1.489 . S
C918 C919 1.383 1_455 S
C918 C923 1.382 . S
C919 H890 0.950 . S
C919 C918 1.383 1_655 S
C919 C920 1.395 . S
C920 H891 0.950 . S
C920 C919 1.395 . S
C920 C921 1.288 1_655 S
C921 C920 1.288 1_455 S
C921 C922 1.392 . S
C922 H892 0.951 . S
C922 C921 1.392 . S
C922 C923 1.392 . S
C923 H893 0.949 . S
C923 C918 1.382 . S
C923 C922 1.392 . S
H924 C943 0.949 . S
H925 C944 0.950 . S
H926 C946 0.950 . S
H927 C947 0.950 . S
H928 C949 0.950 . S
H929 C952 0.950 . S
H930 C953 0.950 . S
H931 C955 0.951 . S
H932 C956 0.949 . S
H933 C958 0.949 . S
H934 C959 0.950 . S
H935 C961 0.950 . S
H936 C962 0.950 . S
H937 C964 0.950 . S
H938 C967 0.950 . S
H939 C968 0.950 . S
H940 C970 0.951 . S
H941 C971 0.949 . S
C942 C943 1.376 . S
C942 C947 1.386 . S
C942 C948 1.483 . S
C943 H924 0.949 . S
C943 C942 1.376 . S
C943 C944 1.397 . S
C944 H925 0.950 . S
C944 C943 1.397 . S
C944 C945 1.391 . S
C945 C944 1.391 . S
C945 C946 1.405 . S
C946 H926 0.950 . S
C946 C945 1.405 . S
C946 C947 1.367 . S
C947 H927 0.950 . S
C947 C942 1.386 . S
C947 C946 1.367 . S
C948 C942 1.483 . S
C948 C949 1.382 . S
C948 C950 1.403 . S
C949 H928 0.950 . S
C949 C948 1.382 . S
C949 C965 1.411 . S
C950 C948 1.403 . S
C950 C951 1.489 . S
C950 C964 1.411 . S
C951 C950 1.489 . S
C951 C952 1.383 . S
C951 C956 1.382 . S
C952 H929 0.950 . S
C952 C951 1.383 . S
C952 C953 1.395 . S
C953 H930 0.950 . S
C953 C952 1.395 . S
C953 C954 1.288 . S
C954 C953 1.288 . S
C954 C955 1.392 . S
C955 H931 0.951 . S
C955 C954 1.392 . S
C955 C956 1.392 . S
C956 H932 0.949 . S
C956 C951 1.382 . S
C956 C955 1.392 . S
C957 C958 1.376 . S
C957 C962 1.386 . S
C957 C963 1.483 . S
C958 H933 0.949 . S
C958 C957 1.376 . S
C958 C959 1.397 . S
C959 H934 0.950 . S
C959 C958 1.397 . S
C959 C960 1.391 . S
C960 C959 1.391 . S
C960 C961 1.405 . S
C961 H935 0.950 . S
C961 C960 1.405 . S
C961 C962 1.367 . S
C962 H936 0.950 . S
C962 C957 1.386 . S
C962 C961 1.367 . S
C963 C957 1.483 . S
C963 C964 1.382 . S
C963 C965 1.403 . S
C964 H937 0.950 . S
C964 C950 1.411 . S
C964 C963 1.382 . S
C965 C949 1.411 . S
C965 C963 1.403 . S
C965 C966 1.489 . S
C966 C965 1.489 . S
C966 C967 1.383 . S
C966 C971 1.382 . S
C967 H938 0.950 . S
C967 C966 1.383 . S
C967 C968 1.395 . S
C968 H939 0.950 . S
C968 C967 1.395 . S
C968 C969 1.288 . S
C969 C968 1.288 . S
C969 C970 1.392 . S
C970 H940 0.951 . S
C970 C969 1.392 . S
C970 C971 1.392 . S
C971 H941 0.949 . S
C971 C966 1.382 . S
C971 C970 1.392 . S
H972 C991 0.949 . S
H973 C992 0.950 . S
H974 C994 0.950 . S
H975 C995 0.950 . S
H976 C997 0.950 . S
H977 C1000 0.950 . S
H978 C1001 0.950 . S
H979 C1003 0.951 . S
H980 C1004 0.949 . S
H981 C1006 0.949 . S
H982 C1007 0.950 . S
H983 C1009 0.950 . S
H984 C1010 0.950 . S
H985 C1012 0.950 . S
H986 C1015 0.950 . S
H987 C1016 0.950 . S
H988 C1018 0.951 . S
H989 C1019 0.949 . S
C990 C991 1.376 . S
C990 C995 1.386 . S
C990 C996 1.483 . S
C991 H972 0.949 . S
C991 C990 1.376 . S
C991 C992 1.397 . S
C992 H973 0.950 . S
C992 C991 1.397 . S
C992 C993 1.391 . S
C993 C992 1.391 . S
C993 C994 1.405 . S
C994 H974 0.950 . S
C994 C993 1.405 . S
C994 C995 1.367 . S
C995 H975 0.950 . S
C995 C990 1.386 . S
C995 C994 1.367 . S
C996 C990 1.483 . S
C996 C997 1.382 . S
C996 C998 1.403 . S
C997 H976 0.950 . S
C997 C996 1.382 . S
C997 C1013 1.411 . S
C998 C996 1.403 . S
C998 C999 1.489 . S
C998 C1012 1.411 . S
C999 C998 1.489 . S
C999 C1000 1.383 . S
C999 C1004 1.382 . S
C1000 H977 0.950 . S
C1000 C999 1.383 . S
C1000 C1001 1.395 . S
C1001 H978 0.950 . S
C1001 C1000 1.395 . S
C1001 C1002 1.288 . S
C1002 C1001 1.288 . S
C1002 C1003 1.392 . S
C1003 H979 0.951 . S
C1003 C1002 1.392 . S
C1003 C1004 1.392 . S
C1004 H980 0.949 . S
C1004 C999 1.382 . S
C1004 C1003 1.392 . S
C1005 C1006 1.376 . S
C1005 C1010 1.386 . S
C1005 C1011 1.483 . S
C1006 H981 0.949 . S
C1006 C1005 1.376 . S
C1006 C1007 1.397 . S
C1007 H982 0.950 . S
C1007 C1006 1.397 . S
C1007 C1008 1.391 . S
C1008 C1007 1.391 . S
C1008 C1009 1.405 . S
C1009 H983 0.950 . S
C1009 C1008 1.405 . S
C1009 C1010 1.367 . S
C1010 H984 0.950 . S
C1010 C1005 1.386 . S
C1010 C1009 1.367 . S
C1011 C1005 1.483 . S
C1011 C1012 1.382 . S
C1011 C1013 1.403 . S
C1012 H985 0.950 . S
C1012 C998 1.411 . S
C1012 C1011 1.382 . S
C1013 C997 1.411 . S
C1013 C1011 1.403 . S
C1013 C1014 1.489 . S
C1014 C1013 1.489 . S
C1014 C1015 1.383 . S
C1014 C1019 1.382 . S
C1015 H986 0.950 . S
C1015 C1014 1.383 . S
C1015 C1016 1.395 . S
C1016 H987 0.950 . S
C1016 C1015 1.395 . S
C1016 C1017 1.288 . S
C1017 C1016 1.288 . S
C1017 C1018 1.392 . S
C1018 H988 0.951 . S
C1018 C1017 1.392 . S
C1018 C1019 1.392 . S
C1019 H989 0.949 . S
C1019 C1014 1.382 . S
C1019 C1018 1.392 . S
H1020 C1039 0.949 . S
H1021 C1040 0.950 . S
H1022 C1042 0.950 . S
H1023 C1043 0.950 . S
H1024 C1045 0.950 . S
H1025 C1048 0.950 . S
H1026 C1049 0.950 . S
H1027 C1051 0.951 . S
H1028 C1052 0.949 . S
H1029 C1054 0.949 . S
H1030 C1055 0.950 . S
H1031 C1057 0.950 . S
H1032 C1058 0.950 . S
H1033 C1060 0.950 . S
H1034 C1063 0.950 . S
H1035 C1064 0.950 . S
H1036 C1066 0.951 . S
H1037 C1067 0.949 . S
C1038 C1039 1.376 . S
C1038 C1043 1.386 . S
C1038 C1044 1.483 . S
C1039 H1020 0.949 . S
C1039 C1038 1.376 . S
C1039 C1040 1.397 . S
C1040 H1021 0.950 . S
C1040 C1039 1.397 . S
C1040 C1041 1.391 . S
C1041 C1040 1.391 . S
C1041 C1042 1.405 . S
C1042 H1022 0.950 . S
C1042 C1041 1.405 . S
C1042 C1043 1.367 . S
C1043 H1023 0.950 . S
C1043 C1038 1.386 . S
C1043 C1042 1.367 . S
C1044 C1038 1.483 . S
C1044 C1045 1.382 . S
C1044 C1046 1.403 . S
C1045 H1024 0.950 . S
C1045 C1044 1.382 . S
C1045 C1061 1.411 . S
C1046 C1044 1.403 . S
C1046 C1047 1.489 . S
C1046 C1060 1.411 . S
C1047 C1046 1.489 . S
C1047 C1048 1.383 . S
C1047 C1052 1.382 . S
C1048 H1025 0.950 . S
C1048 C1047 1.383 . S
C1048 C1049 1.395 . S
C1049 H1026 0.950 . S
C1049 C1048 1.395 . S
C1049 C1050 1.288 . S
C1050 C1049 1.288 . S
C1050 C1051 1.392 . S
C1051 H1027 0.951 . S
C1051 C1050 1.392 . S
C1051 C1052 1.392 . S
C1052 H1028 0.949 . S
C1052 C1047 1.382 . S
C1052 C1051 1.392 . S
C1053 C1054 1.376 . S
C1053 C1058 1.386 . S
C1053 C1059 1.483 . S
C1054 H1029 0.949 . S
C1054 C1053 1.376 . S
C1054 C1055 1.397 . S
C1055 H1030 0.950 . S
C1055 C1054 1.397 . S
C1055 C1056 1.391 . S
C1056 C1055 1.391 . S
C1056 C1057 1.405 . S
C1057 H1031 0.950 . S
C1057 C1056 1.405 . S
C1057 C1058 1.367 . S
C1058 H1032 0.950 . S
C1058 C1053 1.386 . S
C1058 C1057 1.367 . S
C1059 C1053 1.483 . S
C1059 C1060 1.382 . S
C1059 C1061 1.403 . S
C1060 H1033 0.950 . S
C1060 C1046 1.411 . S
C1060 C1059 1.382 . S
C1061 C1045 1.411 . S
C1061 C1059 1.403 . S
C1061 C1062 1.489 . S
C1062 C1061 1.489 . S
C1062 C1063 1.383 . S
C1062 C1067 1.382 . S
C1063 H1034 0.950 . S
C1063 C1062 1.383 . S
C1063 C1064 1.395 . S
C1064 H1035 0.950 . S
C1064 C1063 1.395 . S
C1064 C1065 1.288 . S
C1065 C1064 1.288 . S
C1065 C1066 1.392 . S
C1066 H1036 0.951 . S
C1066 C1065 1.392 . S
C1066 C1067 1.392 . S
C1067 H1037 0.949 . S
C1067 C1062 1.382 . S
C1067 C1066 1.392 . S
H1068 C1087 0.949 . S
H1069 C1088 0.950 . S
H1070 C1090 0.950 . S
H1071 C1091 0.950 . S
H1072 C1093 0.950 . S
H1073 C1096 0.950 . S
H1074 C1097 0.950 . S
H1075 C1099 0.951 . S
H1076 C1100 0.949 . S
H1077 C1102 0.949 . S
H1078 C1103 0.950 . S
H1079 C1105 0.950 . S
H1080 C1106 0.950 . S
H1081 C1108 0.950 . S
H1082 C1111 0.950 . S
H1083 C1112 0.950 . S
H1084 C1114 0.951 . S
H1085 C1115 0.949 . S
C1086 C1087 1.376 . S
C1086 C1091 1.386 . S
C1086 C1092 1.483 . S
C1087 H1068 0.949 . S
C1087 C1086 1.376 . S
C1087 C1088 1.397 . S
C1088 H1069 0.950 . S
C1088 C1087 1.397 . S
C1088 C1089 1.391 . S
C1089 C1088 1.391 . S
C1089 C1090 1.405 . S
C1090 H1070 0.950 . S
C1090 C1089 1.405 . S
C1090 C1091 1.367 . S
C1091 H1071 0.950 . S
C1091 C1086 1.386 . S
C1091 C1090 1.367 . S
C1092 C1086 1.483 . S
C1092 C1093 1.382 . S
C1092 C1094 1.403 . S
C1093 H1072 0.950 . S
C1093 C1092 1.382 . S
C1093 C1109 1.411 . S
C1094 C1092 1.403 . S
C1094 C1095 1.489 . S
C1094 C1108 1.411 . S
C1095 C1094 1.489 . S
C1095 C1096 1.383 . S
C1095 C1100 1.382 . S
C1096 H1073 0.950 . S
C1096 C1095 1.383 . S
C1096 C1097 1.395 . S
C1097 H1074 0.950 . S
C1097 C1096 1.395 . S
C1097 C1098 1.288 . S
C1098 C1097 1.288 . S
C1098 C1099 1.392 . S
C1099 H1075 0.951 . S
C1099 C1098 1.392 . S
C1099 C1100 1.392 . S
C1100 H1076 0.949 . S
C1100 C1095 1.382 . S
C1100 C1099 1.392 . S
C1101 C1102 1.376 . S
C1101 C1106 1.386 . S
C1101 C1107 1.483 . S
C1102 H1077 0.949 . S
C1102 C1101 1.376 . S
C1102 C1103 1.397 . S
C1103 H1078 0.950 . S
C1103 C1102 1.397 . S
C1103 C1104 1.391 . S
C1104 C1103 1.391 . S
C1104 C1105 1.405 . S
C1105 H1079 0.950 . S
C1105 C1104 1.405 . S
C1105 C1106 1.367 . S
C1106 H1080 0.950 . S
C1106 C1101 1.386 . S
C1106 C1105 1.367 . S
C1107 C1101 1.483 . S
C1107 C1108 1.382 . S
C1107 C1109 1.403 . S
C1108 H1081 0.950 . S
C1108 C1094 1.411 . S
C1108 C1107 1.382 . S
C1109 C1093 1.411 . S
C1109 C1107 1.403 . S
C1109 C1110 1.489 . S
C1110 C1109 1.489 . S
C1110 C1111 1.383 . S
C1110 C1115 1.382 . S
C1111 H1082 0.950 . S
C1111 C1110 1.383 . S
C1111 C1112 1.395 . S
C1112 H1083 0.950 . S
C1112 C1111 1.395 . S
C1112 C1113 1.288 . S
C1113 C1112 1.288 . S
C1113 C1114 1.392 . S
C1114 H1084 0.951 . S
C1114 C1113 1.392 . S
C1114 C1115 1.392 . S
C1115 H1085 0.949 . S
C1115 C1110 1.382 . S
C1115 C1114 1.392 . S
C1116 C1117 1.391 1_455 S
C1116 C1118 1.394 . S
C1116 H1132 0.931 . S
C1117 C1116 1.391 1_655 S
C1117 C1121 1.376 . S
C1118 C1116 1.394 . S
C1118 C1119 1.369 1_455 S
C1118 C1122 1.531 . S
C1119 C1118 1.369 1_655 S
C1119 C1120 1.410 . S
C1119 C1127 1.503 . S
C1120 C1119 1.410 . S
C1120 C1121 1.392 . S
C1120 C1123 1.511 . S
C1121 C1117 1.376 . S
C1121 C1120 1.392 . S
C1121 H1133 0.929 . S
C1122 C1118 1.531 . S
C1122 H1134 0.960 . S
C1122 H1135 0.962 . S
C1122 H1136 0.960 . S
C1123 C1120 1.511 . S
C1123 H1137 0.961 . S
C1123 H1138 0.961 . S
C1123 H1139 0.961 . S
C1124 C1125 1.370 1_455 S
C1124 C1126 1.363 . S
C1124 H1140 0.931 . S
C1125 C1124 1.370 1_655 S
C1125 C1129 1.408 . S
C1126 C1124 1.363 . S
C1126 C1127 1.370 1_455 S
C1126 C1130 1.524 . S
C1127 C1119 1.503 . S
C1127 C1126 1.370 1_655 S
C1127 C1128 1.403 . S
C1128 C1127 1.403 . S
C1128 C1129 1.404 . S
C1128 C1131 1.539 . S
C1129 C1125 1.408 . S
C1129 C1128 1.404 . S
C1129 H1141 0.930 . S
C1130 C1126 1.524 . S
C1130 H1142 0.956 . S
C1130 H1143 0.951 1_455 S
C1130 H1144 0.961 . S
C1131 C1128 1.539 . S
C1131 H1145 0.958 . S
C1131 H1146 0.961 . S
C1131 H1147 0.960 . S
H1132 C1116 0.931 . S
H1133 C1121 0.929 . S
H1134 C1122 0.960 . S
H1135 C1122 0.962 . S
H1136 C1122 0.960 . S
H1137 C1123 0.961 . S
H1138 C1123 0.961 . S
H1139 C1123 0.961 . S
H1140 C1124 0.931 . S
H1141 C1129 0.930 . S
H1142 C1130 0.956 . S
H1143 C1130 0.951 1_655 S
H1144 C1130 0.961 . S
H1145 C1131 0.958 . S
H1146 C1131 0.961 . S
H1147 C1131 0.960 . S
C1148 C1149 1.391 . S
C1148 C1150 1.394 . S
C1148 H1164 0.931 . S
C1149 C1148 1.391 . S
C1149 C1153 1.376 . S
C1150 C1148 1.394 . S
C1150 C1151 1.369 . S
C1150 C1154 1.531 . S
C1151 C1150 1.369 . S
C1151 C1152 1.410 . S
C1151 C1159 1.503 . S
C1152 C1151 1.410 . S
C1152 C1153 1.392 . S
C1152 C1155 1.511 . S
C1153 C1149 1.376 . S
C1153 C1152 1.392 . S
C1153 H1165 0.929 . S
C1154 C1150 1.531 . S
C1154 H1166 0.960 . S
C1154 H1167 0.962 . S
C1154 H1168 0.960 . S
C1155 C1152 1.511 . S
C1155 H1169 0.961 . S
C1155 H1170 0.961 . S
C1155 H1171 0.961 . S
C1156 C1157 1.370 . S
C1156 C1158 1.363 . S
C1156 H1172 0.931 . S
C1157 C1156 1.370 . S
C1157 C1161 1.408 . S
C1158 C1156 1.363 . S
C1158 C1159 1.370 . S
C1158 C1162 1.524 . S
C1159 C1151 1.503 . S
C1159 C1158 1.370 . S
C1159 C1160 1.403 . S
C1160 C1159 1.403 . S
C1160 C1161 1.404 . S
C1160 C1163 1.539 . S
C1161 C1157 1.408 . S
C1161 C1160 1.404 . S
C1161 H1173 0.930 . S
C1162 C1158 1.524 . S
C1162 H1174 0.956 . S
C1162 H1175 0.961 . S
C1162 H1176 0.961 . S
C1163 C1160 1.539 . S
C1163 H1177 0.958 . S
C1163 H1178 0.961 . S
C1163 H1179 0.960 . S
H1164 C1148 0.931 . S
H1165 C1153 0.929 . S
H1166 C1154 0.960 . S
H1167 C1154 0.962 . S
H1168 C1154 0.960 . S
H1169 C1155 0.961 . S
H1170 C1155 0.961 . S
H1171 C1155 0.961 . S
H1172 C1156 0.931 . S
H1173 C1161 0.930 . S
H1174 C1162 0.956 . S
H1175 C1162 0.961 . S
H1176 C1162 0.961 . S
H1177 C1163 0.958 . S
H1178 C1163 0.961 . S
H1179 C1163 0.960 . S
C1180 C1181 1.391 . S
C1180 C1182 1.365 1_545 S
C1180 H1196 0.931 1_545 S
C1181 C1180 1.391 . S
C1181 C1185 1.376 . S
C1182 C1180 1.365 1_565 S
C1182 C1183 1.385 1_565 S
C1182 C1186 1.546 . S
C1183 C1182 1.385 1_545 S
C1183 C1184 1.410 . S
C1183 C1191 1.503 . S
C1184 C1183 1.410 . S
C1184 C1185 1.392 . S
C1184 C1187 1.511 . S
C1185 C1181 1.376 . S
C1185 C1184 1.392 . S
C1185 H1197 0.929 . S
C1186 C1182 1.546 . S
C1186 H1198 0.960 . S
C1186 H1199 0.962 1_565 S
C1186 H1200 0.960 . S
C1187 C1184 1.511 . S
C1187 H1201 0.961 . S
C1187 H1202 0.961 . S
C1187 H1203 0.961 . S
C1188 C1189 1.370 . S
C1188 C1190 1.363 . S
C1188 H1204 0.931 . S
C1189 C1188 1.370 . S
C1189 C1193 1.408 1_545 S
C1190 C1188 1.363 . S
C1190 C1191 1.370 . S
C1190 C1194 1.524 . S
C1191 C1183 1.503 . S
C1191 C1190 1.370 . S
C1191 C1192 1.403 1_545 S
C1192 C1191 1.403 1_565 S
C1192 C1193 1.404 . S
C1192 C1195 1.539 . S
C1193 C1189 1.408 1_565 S
C1193 C1192 1.404 . S
C1193 H1205 0.930 . S
C1194 C1190 1.524 . S
C1194 H1206 0.956 . S
C1194 H1207 0.961 . S
C1194 H1208 0.961 . S
C1195 C1192 1.539 . S
C1195 H1209 0.958 . S
C1195 H1210 0.961 . S
C1195 H1211 0.960 . S
H1196 C1180 0.931 1_565 S
H1197 C1185 0.929 . S
H1198 C1186 0.960 . S
H1199 C1186 0.962 1_545 S
H1200 C1186 0.960 . S
H1201 C1187 0.961 . S
H1202 C1187 0.961 . S
H1203 C1187 0.961 . S
H1204 C1188 0.931 . S
H1205 C1193 0.930 . S
H1206 C1194 0.956 . S
H1207 C1194 0.961 . S
H1208 C1194 0.961 . S
H1209 C1195 0.958 . S
H1210 C1195 0.961 . S
H1211 C1195 0.960 . S
C1212 C1213 1.391 . S
C1212 C1214 1.394 . S
C1212 H1228 0.931 . S
C1213 C1212 1.391 . S
C1213 C1217 1.376 1_565 S
C1214 C1212 1.394 . S
C1214 C1215 1.369 . S
C1214 C1218 1.531 . S
C1215 C1214 1.369 . S
C1215 C1216 1.410 1_565 S
C1215 C1223 1.503 . S
C1216 C1215 1.410 1_545 S
C1216 C1217 1.392 . S
C1216 C1219 1.511 . S
C1217 C1213 1.376 1_545 S
C1217 C1216 1.392 . S
C1217 H1229 0.929 . S
C1218 C1214 1.531 . S
C1218 H1230 0.960 . S
C1218 H1231 0.962 . S
C1218 H1232 0.960 . S
C1219 C1216 1.511 . S
C1219 H1233 0.961 . S
C1219 H1234 0.961 . S
C1219 H1235 0.961 . S
C1220 C1221 1.370 . S
C1220 C1222 1.363 . S
C1220 H1236 0.931 . S
C1221 C1220 1.370 . S
C1221 C1225 1.408 1_565 S
C1222 C1220 1.363 . S
C1222 C1223 1.370 . S
C1222 C1226 1.524 . S
C1223 C1215 1.503 . S
C1223 C1222 1.370 . S
C1223 C1224 1.403 1_565 S
C1224 C1223 1.403 1_545 S
C1224 C1225 1.404 . S
C1224 C1227 1.539 . S
C1225 C1221 1.408 1_545 S
C1225 C1224 1.404 . S
C1225 H1237 0.930 . S
C1226 C1222 1.524 . S
C1226 H1238 0.956 . S
C1226 H1239 0.961 . S
C1226 H1240 0.961 . S
C1227 C1224 1.539 . S
C1227 H1241 0.958 . S
C1227 H1242 0.961 . S
C1227 H1243 0.960 . S
H1228 C1212 0.931 . S
H1229 C1217 0.929 . S
H1230 C1218 0.960 . S
H1231 C1218 0.962 . S
H1232 C1218 0.960 . S
H1233 C1219 0.961 . S
H1234 C1219 0.961 . S
H1235 C1219 0.961 . S
H1236 C1220 0.931 . S
H1237 C1225 0.930 . S
H1238 C1226 0.956 . S
H1239 C1226 0.961 . S
H1240 C1226 0.961 . S
H1241 C1227 0.958 . S
H1242 C1227 0.961 . S
H1243 C1227 0.960 . S
C1244 C1245 1.391 . S
C1244 C1246 1.394 . S
C1244 H1260 0.931 . S
C1245 C1244 1.391 . S
C1245 C1249 1.376 1_455 S
C1246 C1244 1.394 . S
C1246 C1247 1.369 . S
C1246 C1250 1.531 . S
C1247 C1246 1.369 . S
C1247 C1248 1.410 1_455 S
C1247 C1255 1.503 . S
C1248 C1247 1.410 1_655 S
C1248 C1249 1.392 . S
C1248 C1251 1.511 . S
C1249 C1245 1.376 1_655 S
C1249 C1248 1.392 . S
C1249 H1261 0.929 . S
C1250 C1246 1.531 . S
C1250 H1262 0.960 . S
C1250 H1263 0.962 . S
C1250 H1264 0.960 . S
C1251 C1248 1.511 . S
C1251 H1265 0.961 . S
C1251 H1266 0.961 . S
C1251 H1267 0.961 . S
C1252 C1253 1.370 . S
C1252 C1254 1.363 . S
C1252 H1268 0.931 . S
C1253 C1252 1.370 . S
C1253 C1257 1.408 . S
C1254 C1252 1.363 . S
C1254 C1255 1.370 . S
C1254 C1258 1.524 . S
C1255 C1247 1.503 . S
C1255 C1254 1.370 . S
C1255 C1256 1.403 . S
C1256 C1255 1.403 . S
C1256 C1257 1.404 . S
C1256 C1259 1.539 . S
C1257 C1253 1.408 . S
C1257 C1256 1.404 . S
C1257 H1269 0.930 . S
C1258 C1254 1.524 . S
C1258 H1270 0.956 . S
C1258 H1271 0.961 . S
C1258 H1272 0.961 . S
C1259 C1256 1.539 . S
C1259 H1273 0.958 . S
C1259 H1274 0.961 1_455 S
C1259 H1275 0.960 . S
H1260 C1244 0.931 . S
H1261 C1249 0.929 . S
H1262 C1250 0.960 . S
H1263 C1250 0.962 . S
H1264 C1250 0.960 . S
H1265 C1251 0.961 . S
H1266 C1251 0.961 . S
H1267 C1251 0.961 . S
H1268 C1252 0.931 . S
H1269 C1257 0.930 . S
H1270 C1258 0.956 . S
H1271 C1258 0.961 . S
H1272 C1258 0.961 . S
H1273 C1259 0.958 . S
H1274 C1259 0.961 1_655 S
H1275 C1259 0.960 . S
C1276 C1277 1.391 . S
C1276 C1278 1.394 . S
C1276 H1292 0.931 . S
C1277 C1276 1.391 . S
C1277 C1281 1.376 . S
C1278 C1276 1.394 . S
C1278 C1279 1.369 . S
C1278 C1282 1.531 . S
C1279 C1278 1.369 . S
C1279 C1280 1.410 . S
C1279 C1287 1.503 . S
C1280 C1279 1.410 . S
C1280 C1281 1.392 . S
C1280 C1283 1.511 . S
C1281 C1277 1.376 . S
C1281 C1280 1.392 . S
C1281 H1293 0.929 . S
C1282 C1278 1.531 . S
C1282 H1294 0.960 . S
C1282 H1295 0.962 . S
C1282 H1296 0.960 . S
C1283 C1280 1.511 . S
C1283 H1297 0.961 . S
C1283 H1298 0.961 . S
C1283 H1299 0.961 . S
C1284 C1285 1.370 . S
C1284 C1286 1.363 . S
C1284 H1300 0.931 . S
C1285 C1284 1.370 . S
C1285 C1289 1.408 . S
C1286 C1284 1.363 . S
C1286 C1287 1.370 . S
C1286 C1290 1.524 . S
C1287 C1279 1.503 . S
C1287 C1286 1.370 . S
C1287 C1288 1.403 . S
C1288 C1287 1.403 . S
C1288 C1289 1.404 . S
C1288 C1291 1.539 . S
C1289 C1285 1.408 . S
C1289 C1288 1.404 . S
C1289 H1301 0.930 . S
C1290 C1286 1.524 . S
C1290 H1302 0.956 . S
C1290 H1303 0.961 . S
C1290 H1304 0.961 . S
C1291 C1288 1.539 . S
C1291 H1305 0.958 . S
C1291 H1306 0.961 . S
C1291 H1307 0.960 . S
H1292 C1276 0.931 . S
H1293 C1281 0.929 . S
H1294 C1282 0.960 . S
H1295 C1282 0.962 . S
H1296 C1282 0.960 . S
H1297 C1283 0.961 . S
H1298 C1283 0.961 . S
H1299 C1283 0.961 . S
H1300 C1284 0.931 . S
H1301 C1289 0.930 . S
H1302 C1290 0.956 . S
H1303 C1290 0.961 . S
H1304 C1290 0.961 . S
H1305 C1291 0.958 . S
H1306 C1291 0.961 . S
H1307 C1291 0.960 . S
C1308 C1309 1.391 . S
C1308 C1310 1.394 . S
C1308 H1324 0.931 . S
C1309 C1308 1.391 . S
C1309 C1313 1.376 1_455 S
C1310 C1308 1.394 . S
C1310 C1311 1.369 . S
C1310 C1314 1.531 . S
C1311 C1310 1.369 . S
C1311 C1312 1.410 1_455 S
C1311 C1319 1.503 . S
C1312 C1311 1.410 1_655 S
C1312 C1313 1.392 . S
C1312 C1315 1.511 . S
C1313 C1309 1.376 1_655 S
C1313 C1312 1.392 . S
C1313 H1325 0.929 . S
C1314 C1310 1.531 . S
C1314 H1326 0.960 . S
C1314 H1327 0.962 . S
C1314 H1328 0.960 . S
C1315 C1312 1.511 . S
C1315 H1329 0.961 . S
C1315 H1330 0.961 . S
C1315 H1331 0.961 . S
C1316 C1317 1.348 1_655 S
C1316 C1318 1.393 1_655 S
C1316 H1332 0.944 . S
C1317 C1316 1.348 1_455 S
C1317 C1321 1.408 . S
C1318 C1316 1.393 1_455 S
C1318 C1319 1.393 . S
C1318 C1322 1.486 1_455 S
C1319 C1311 1.503 . S
C1319 C1318 1.393 . S
C1319 C1320 1.403 . S
C1320 C1319 1.403 . S
C1320 C1321 1.404 . S
C1320 C1323 1.539 . S
C1321 C1317 1.408 . S
C1321 C1320 1.404 . S
C1321 H1333 0.930 . S
C1322 C1318 1.486 1_655 S
C1322 H1334 0.956 1_655 S
C1322 H1335 0.961 . S
C1322 H1336 0.961 . S
C1323 C1320 1.539 . S
C1323 H1337 0.958 . S
C1323 H1338 0.961 . S
C1323 H1339 0.960 . S
H1324 C1308 0.931 . S
H1325 C1313 0.929 . S
H1326 C1314 0.960 . S
H1327 C1314 0.962 . S
H1328 C1314 0.960 . S
H1329 C1315 0.961 . S
H1330 C1315 0.961 . S
H1331 C1315 0.961 . S
H1332 C1316 0.944 . S
H1333 C1321 0.930 . S
H1334 C1322 0.956 1_455 S
H1335 C1322 0.961 . S
H1336 C1322 0.961 . S
H1337 C1323 0.958 . S
H1338 C1323 0.961 . S
H1339 C1323 0.960 . S
C1340 C1341 1.391 . S
C1340 C1342 1.394 . S
C1340 H1356 0.931 . S
C1341 C1340 1.391 . S
C1341 C1345 1.376 . S
C1342 C1340 1.394 . S
C1342 C1343 1.369 . S
C1342 C1346 1.531 . S
C1343 C1342 1.369 . S
C1343 C1344 1.410 . S
C1343 C1351 1.503 . S
C1344 C1343 1.410 . S
C1344 C1345 1.392 . S
C1344 C1347 1.511 . S
C1345 C1341 1.376 . S
C1345 C1344 1.392 . S
C1345 H1357 0.929 . S
C1346 C1342 1.531 . S
C1346 H1358 0.960 . S
C1346 H1359 0.962 . S
C1346 H1360 0.960 . S
C1347 C1344 1.511 . S
C1347 H1361 0.961 . S
C1347 H1362 0.961 . S
C1347 H1363 0.961 . S
C1348 C1349 1.370 . S
C1348 C1350 1.363 . S
C1348 H1364 0.931 . S
C1349 C1348 1.370 . S
C1349 C1353 1.408 . S
C1350 C1348 1.363 . S
C1350 C1351 1.370 . S
C1350 C1354 1.524 . S
C1351 C1343 1.503 . S
C1351 C1350 1.370 . S
C1351 C1352 1.403 . S
C1352 C1351 1.403 . S
C1352 C1353 1.404 . S
C1352 C1355 1.539 . S
C1353 C1349 1.408 . S
C1353 C1352 1.404 . S
C1353 H1365 0.930 . S
C1354 C1350 1.524 . S
C1354 H1366 0.956 . S
C1354 H1367 0.961 . S
C1354 H1368 0.961 . S
C1355 C1352 1.539 . S
C1355 H1369 0.958 . S
C1355 H1370 0.961 . S
C1355 H1371 0.960 . S
H1356 C1340 0.931 . S
H1357 C1345 0.929 . S
H1358 C1346 0.960 . S
H1359 C1346 0.962 . S
H1360 C1346 0.960 . S
H1361 C1347 0.961 . S
H1362 C1347 0.961 . S
H1363 C1347 0.961 . S
H1364 C1348 0.931 . S
H1365 C1353 0.930 . S
H1366 C1354 0.956 . S
H1367 C1354 0.961 . S
H1368 C1354 0.961 . S
H1369 C1355 0.958 . S
H1370 C1355 0.961 . S
H1371 C1355 0.960 . S
C1372 C1373 1.391 1_545 S
C1372 C1374 1.394 . S
C1372 H1388 0.931 . S
C1373 C1372 1.391 1_565 S
C1373 C1377 1.376 . S
C1374 C1372 1.394 . S
C1374 C1375 1.369 1_545 S
C1374 C1378 1.531 . S
C1375 C1374 1.369 1_565 S
C1375 C1376 1.410 . S
C1375 C1383 1.503 . S
C1376 C1375 1.410 . S
C1376 C1377 1.392 . S
C1376 C1379 1.511 . S
C1377 C1373 1.376 . S
C1377 C1376 1.392 . S
C1377 H1389 0.929 . S
C1378 C1374 1.531 . S
C1378 H1390 0.960 . S
C1378 H1391 0.962 . S
C1378 H1392 0.960 . S
C1379 C1376 1.511 . S
C1379 H1393 0.961 . S
C1379 H1394 0.961 . S
C1379 H1395 0.961 . S
C1380 C1381 1.370 1_545 S
C1380 C1382 1.363 . S
C1380 H1396 0.931 . S
C1381 C1380 1.370 1_565 S
C1381 C1385 1.408 . S
C1382 C1380 1.363 . S
C1382 C1383 1.370 1_545 S
C1382 C1386 1.524 . S
C1383 C1375 1.503 . S
C1383 C1382 1.370 1_565 S
C1383 C1384 1.403 . S
C1384 C1383 1.403 . S
C1384 C1385 1.404 . S
C1384 C1387 1.539 . S
C1385 C1381 1.408 . S
C1385 C1384 1.404 . S
C1385 H1397 0.930 . S
C1386 C1382 1.524 . S
C1386 H1398 0.956 . S
C1386 H1399 0.961 . S
C1386 H1400 0.961 . S
C1387 C1384 1.539 . S
C1387 H1401 0.958 . S
C1387 H1402 0.961 . S
C1387 H1403 0.960 . S
H1388 C1372 0.931 . S
H1389 C1377 0.929 . S
H1390 C1378 0.960 . S
H1391 C1378 0.962 . S
H1392 C1378 0.960 . S
H1393 C1379 0.961 . S
H1394 C1379 0.961 . S
H1395 C1379 0.961 . S
H1396 C1380 0.931 . S
H1397 C1385 0.930 . S
H1398 C1386 0.956 . S
H1399 C1386 0.961 . S
H1400 C1386 0.961 . S
H1401 C1387 0.958 . S
H1402 C1387 0.961 . S
H1403 C1387 0.960 . S
C1404 C1405 1.391 . S
C1404 C1406 1.394 . S
C1404 H1420 0.931 . S
C1405 C1404 1.391 . S
C1405 C1409 1.376 1_545 S
C1406 C1404 1.394 . S
C1406 C1407 1.369 . S
C1406 C1410 1.531 . S
C1407 C1406 1.369 . S
C1407 C1408 1.410 1_545 S
C1407 C1415 1.503 . S
C1408 C1407 1.410 1_565 S
C1408 C1409 1.392 . S
C1408 C1411 1.511 . S
C1409 C1405 1.376 1_565 S
C1409 C1408 1.392 . S
C1409 H1421 0.929 . S
C1410 C1406 1.531 . S
C1410 H1422 0.960 . S
C1410 H1423 0.962 . S
C1410 H1424 0.960 . S
C1411 C1408 1.511 . S
C1411 H1425 0.961 . S
C1411 H1426 0.961 . S
C1411 H1427 0.961 . S
C1412 C1413 1.370 . S
C1412 C1414 1.363 . S
C1412 H1428 0.931 . S
C1413 C1412 1.370 . S
C1413 C1417 1.408 . S
C1414 C1412 1.363 . S
C1414 C1415 1.370 . S
C1414 C1418 1.524 . S
C1415 C1407 1.503 . S
C1415 C1414 1.370 . S
C1415 C1416 1.403 . S
C1416 C1415 1.403 . S
C1416 C1417 1.404 . S
C1416 C1419 1.539 . S
C1417 C1413 1.408 . S
C1417 C1416 1.404 . S
C1417 H1429 0.930 . S
C1418 C1414 1.524 . S
C1418 H1430 0.956 . S
C1418 H1431 0.912 1_545 S
C1418 H1432 0.961 . S
C1419 C1416 1.539 . S
C1419 H1433 0.958 . S
C1419 H1434 0.965 . S
C1419 H1435 0.960 . S
H1420 C1404 0.931 . S
H1421 C1409 0.929 . S
H1422 C1410 0.960 . S
H1423 C1410 0.962 . S
H1424 C1410 0.960 . S
H1425 C1411 0.961 . S
H1426 C1411 0.961 . S
H1427 C1411 0.961 . S
H1428 C1412 0.931 . S
H1429 C1417 0.930 . S
H1430 C1418 0.956 . S
H1431 C1418 0.912 1_565 S
H1432 C1418 0.961 . S
H1433 C1419 0.958 . S
H1434 C1419 0.965 . S
H1435 C1419 0.960 . S
C1436 C1437 1.391 1_455 S
C1436 C1438 1.394 . S
C1436 H1452 0.931 . S
C1437 C1436 1.391 1_655 S
C1437 C1441 1.376 . S
C1438 C1436 1.394 . S
C1438 C1439 1.369 1_455 S
C1438 C1442 1.531 . S
C1439 C1438 1.369 1_655 S
C1439 C1440 1.410 . S
C1439 C1447 1.503 . S
C1440 C1439 1.410 . S
C1440 C1441 1.392 . S
C1440 C1443 1.511 . S
C1441 C1437 1.376 . S
C1441 C1440 1.392 . S
C1441 H1453 0.929 . S
C1442 C1438 1.531 . S
C1442 H1454 0.960 . S
C1442 H1455 0.962 . S
C1442 H1456 0.960 . S
C1443 C1440 1.511 . S
C1443 H1457 0.961 . S
C1443 H1458 0.961 . S
C1443 H1459 0.961 . S
C1444 C1445 1.370 1_455 S
C1444 C1446 1.399 . S
C1444 H1460 0.931 . S
C1445 C1444 1.370 1_655 S
C1445 C1449 1.408 . S
C1446 C1444 1.399 . S
C1446 C1447 1.312 1_455 S
C1446 C1450 1.551 . S
C1447 C1439 1.503 . S
C1447 C1446 1.312 1_655 S
C1447 C1448 1.403 . S
C1448 C1447 1.403 . S
C1448 C1449 1.404 . S
C1448 C1451 1.539 . S
C1449 C1445 1.408 . S
C1449 C1448 1.404 . S
C1449 H1461 0.930 . S
C1450 C1446 1.551 . S
C1450 H1462 0.956 . S
C1450 H1463 0.911 1_455 S
C1450 H1464 0.961 . S
C1451 C1448 1.539 . S
C1451 H1465 0.958 . S
C1451 H1466 0.961 . S
C1451 H1467 0.960 . S
H1452 C1436 0.931 . S
H1453 C1441 0.929 . S
H1454 C1442 0.960 . S
H1455 C1442 0.962 . S
H1456 C1442 0.960 . S
H1457 C1443 0.961 . S
H1458 C1443 0.961 . S
H1459 C1443 0.961 . S
H1460 C1444 0.931 . S
H1461 C1449 0.930 . S
H1462 C1450 0.956 . S
H1463 C1450 0.911 1_655 S
H1464 C1450 0.961 . S
H1465 C1451 0.958 . S
H1466 C1451 0.961 . S
H1467 C1451 0.960 . S
C1468 C1469 1.391 . S
C1468 C1470 1.394 . S
C1468 H1484 0.931 . S
C1469 C1468 1.391 . S
C1469 C1473 1.376 . S
C1470 C1468 1.394 . S
C1470 C1471 1.369 . S
C1470 C1474 1.531 . S
C1471 C1470 1.369 . S
C1471 C1472 1.410 . S
C1471 C1479 1.503 . S
C1472 C1471 1.410 . S
C1472 C1473 1.392 . S
C1472 C1475 1.511 . S
C1473 C1469 1.376 . S
C1473 C1472 1.392 . S
C1473 H1485 0.929 . S
C1474 C1470 1.531 . S
C1474 H1486 0.960 . S
C1474 H1487 0.962 . S
C1474 H1488 0.960 . S
C1475 C1472 1.511 . S
C1475 H1489 0.961 . S
C1475 H1490 0.961 . S
C1475 H1491 0.961 . S
C1476 C1477 1.370 . S
C1476 C1478 1.363 . S
C1476 H1492 0.931 . S
C1477 C1476 1.370 . S
C1477 C1481 1.408 . S
C1478 C1476 1.363 . S
C1478 C1479 1.370 . S
C1478 C1482 1.524 . S
C1479 C1471 1.503 . S
C1479 C1478 1.370 . S
C1479 C1480 1.403 . S
C1480 C1479 1.403 . S
C1480 C1481 1.404 . S
C1480 C1483 1.539 . S
C1481 C1477 1.408 . S
C1481 C1480 1.404 . S
C1481 H1493 0.930 . S
C1482 C1478 1.524 . S
C1482 H1494 0.956 . S
C1482 H1495 0.961 . S
C1482 H1496 0.961 . S
C1483 C1480 1.539 . S
C1483 H1497 0.958 . S
C1483 H1498 0.961 . S
C1483 H1499 0.960 . S
H1484 C1468 0.931 . S
H1485 C1473 0.929 . S
H1486 C1474 0.960 . S
H1487 C1474 0.962 . S
H1488 C1474 0.960 . S
H1489 C1475 0.961 . S
H1490 C1475 0.961 . S
H1491 C1475 0.961 . S
H1492 C1476 0.931 . S
H1493 C1481 0.930 . S
H1494 C1482 0.956 . S
H1495 C1482 0.961 . S
H1496 C1482 0.961 . S
H1497 C1483 0.958 . S
H1498 C1483 0.961 . S
H1499 C1483 0.960 . S
C1500 C1501 1.391 . S
C1500 C1502 1.394 . S
C1500 H1516 0.931 . S
C1501 C1500 1.391 . S
C1501 C1505 1.376 . S
C1502 C1500 1.394 . S
C1502 C1503 1.369 . S
C1502 C1506 1.531 . S
C1503 C1502 1.369 . S
C1503 C1504 1.410 . S
C1503 C1511 1.503 . S
C1504 C1503 1.410 . S
C1504 C1505 1.392 . S
C1504 C1507 1.511 . S
C1505 C1501 1.376 . S
C1505 C1504 1.392 . S
C1505 H1517 0.929 . S
C1506 C1502 1.531 . S
C1506 H1518 0.960 . S
C1506 H1519 0.962 . S
C1506 H1520 0.960 . S
C1507 C1504 1.511 . S
C1507 H1521 0.961 . S
C1507 H1522 0.961 . S
C1507 H1523 0.961 . S
C1508 C1509 1.370 . S
C1508 C1510 1.363 . S
C1508 H1524 0.931 . S
C1509 C1508 1.370 . S
C1509 C1513 1.408 . S
C1510 C1508 1.363 . S
C1510 C1511 1.370 . S
C1510 C1514 1.524 . S
C1511 C1503 1.503 . S
C1511 C1510 1.370 . S
C1511 C1512 1.403 . S
C1512 C1511 1.403 . S
C1512 C1513 1.404 . S
C1512 C1515 1.539 . S
C1513 C1509 1.408 . S
C1513 C1512 1.404 . S
C1513 H1525 0.930 . S
C1514 C1510 1.524 . S
C1514 H1526 0.956 . S
C1514 H1527 0.961 . S
C1514 H1528 0.961 . S
C1515 C1512 1.539 . S
C1515 H1529 0.958 . S
C1515 H1530 0.961 . S
C1515 H1531 0.960 . S
H1516 C1500 0.931 . S
H1517 C1505 0.929 . S
H1518 C1506 0.960 . S
H1519 C1506 0.962 . S
H1520 C1506 0.960 . S
H1521 C1507 0.961 . S
H1522 C1507 0.961 . S
H1523 C1507 0.961 . S
H1524 C1508 0.931 . S
H1525 C1513 0.930 . S
H1526 C1514 0.956 . S
H1527 C1514 0.961 . S
H1528 C1514 0.961 . S
H1529 C1515 0.958 . S
H1530 C1515 0.961 . S
H1531 C1515 0.960 . S
C1532 C1533 1.391 . S
C1532 C1534 1.394 . S
C1532 H1548 0.931 . S
C1533 C1532 1.391 . S
C1533 C1537 1.376 . S
C1534 C1532 1.394 . S
C1534 C1535 1.369 . S
C1534 C1538 1.531 . S
C1535 C1534 1.369 . S
C1535 C1536 1.410 . S
C1535 C1543 1.503 . S
C1536 C1535 1.410 . S
C1536 C1537 1.392 . S
C1536 C1539 1.511 . S
C1537 C1533 1.376 . S
C1537 C1536 1.392 . S
C1537 H1549 0.929 . S
C1538 C1534 1.531 . S
C1538 H1550 0.960 . S
C1538 H1551 0.962 . S
C1538 H1552 0.960 . S
C1539 C1536 1.511 . S
C1539 H1553 0.961 . S
C1539 H1554 0.961 . S
C1539 H1555 0.961 . S
C1540 C1541 1.370 . S
C1540 C1542 1.363 . S
C1540 H1556 0.931 . S
C1541 C1540 1.370 . S
C1541 C1545 1.408 . S
C1542 C1540 1.363 . S
C1542 C1543 1.370 . S
C1542 C1546 1.524 . S
C1543 C1535 1.503 . S
C1543 C1542 1.370 . S
C1543 C1544 1.403 . S
C1544 C1543 1.403 . S
C1544 C1545 1.404 . S
C1544 C1547 1.539 . S
C1545 C1541 1.408 . S
C1545 C1544 1.404 . S
C1545 H1557 0.930 . S
C1546 C1542 1.524 . S
C1546 H1558 0.956 . S
C1546 H1559 0.961 . S
C1546 H1560 0.961 . S
C1547 C1544 1.539 . S
C1547 H1561 0.958 . S
C1547 H1562 0.961 . S
C1547 H1563 0.960 . S
H1548 C1532 0.931 . S
H1549 C1537 0.929 . S
H1550 C1538 0.960 . S
H1551 C1538 0.962 . S
H1552 C1538 0.960 . S
H1553 C1539 0.961 . S
H1554 C1539 0.961 . S
H1555 C1539 0.961 . S
H1556 C1540 0.931 . S
H1557 C1545 0.930 . S
H1558 C1546 0.956 . S
H1559 C1546 0.961 . S
H1560 C1546 0.961 . S
H1561 C1547 0.958 . S
H1562 C1547 0.961 . S
H1563 C1547 0.960 . S
C1564 C1565 1.391 . S
C1564 C1566 1.394 . S
C1564 H1580 0.931 . S
C1565 C1564 1.391 . S
C1565 C1569 1.376 . S
C1566 C1564 1.394 . S
C1566 C1567 1.369 . S
C1566 C1570 1.531 . S
C1567 C1566 1.369 . S
C1567 C1568 1.410 . S
C1567 C1575 1.503 . S
C1568 C1567 1.410 . S
C1568 C1569 1.392 . S
C1568 C1571 1.511 . S
C1569 C1565 1.376 . S
C1569 C1568 1.392 . S
C1569 H1581 0.929 . S
C1570 C1566 1.531 . S
C1570 H1582 0.960 . S
C1570 H1583 0.962 . S
C1570 H1584 0.960 . S
C1571 C1568 1.511 . S
C1571 H1585 0.961 . S
C1571 H1586 0.961 . S
C1571 H1587 0.961 . S
C1572 C1573 1.370 . S
C1572 C1574 1.363 . S
C1572 H1588 0.931 . S
C1573 C1572 1.370 . S
C1573 C1577 1.408 . S
C1574 C1572 1.363 . S
C1574 C1575 1.370 . S
C1574 C1578 1.524 . S
C1575 C1567 1.503 . S
C1575 C1574 1.370 . S
C1575 C1576 1.403 . S
C1576 C1575 1.403 . S
C1576 C1577 1.404 . S
C1576 C1579 1.539 . S
C1577 C1573 1.408 . S
C1577 C1576 1.404 . S
C1577 H1589 0.930 . S
C1578 C1574 1.524 . S
C1578 H1590 0.956 . S
C1578 H1591 0.961 . S
C1578 H1592 0.961 . S
C1579 C1576 1.539 . S
C1579 H1593 0.958 . S
C1579 H1594 0.961 . S
C1579 H1595 0.960 . S
H1580 C1564 0.931 . S
H1581 C1569 0.929 . S
H1582 C1570 0.960 . S
H1583 C1570 0.962 . S
H1584 C1570 0.960 . S
H1585 C1571 0.961 . S
H1586 C1571 0.961 . S
H1587 C1571 0.961 . S
H1588 C1572 0.931 . S
H1589 C1577 0.930 . S
H1590 C1578 0.956 . S
H1591 C1578 0.961 . S
H1592 C1578 0.961 . S
H1593 C1579 0.958 . S
H1594 C1579 0.961 . S
H1595 C1579 0.960 . S
C1596 C1597 1.391 . S
C1596 C1598 1.394 . S
C1596 H1612 0.931 . S
C1597 C1596 1.391 . S
C1597 C1601 1.376 . S
C1598 C1596 1.394 . S
C1598 C1599 1.369 . S
C1598 C1602 1.531 . S
C1599 C1598 1.369 . S
C1599 C1600 1.410 . S
C1599 C1607 1.503 . S
C1600 C1599 1.410 . S
C1600 C1601 1.392 . S
C1600 C1603 1.511 . S
C1601 C1597 1.376 . S
C1601 C1600 1.392 . S
C1601 H1613 0.929 . S
C1602 C1598 1.531 . S
C1602 H1614 0.960 . S
C1602 H1615 0.962 . S
C1602 H1616 0.960 . S
C1603 C1600 1.511 . S
C1603 H1617 0.961 . S
C1603 H1618 0.961 . S
C1603 H1619 0.961 . S
C1604 C1605 1.370 . S
C1604 C1606 1.363 . S
C1604 H1620 0.931 . S
C1605 C1604 1.370 . S
C1605 C1609 1.408 . S
C1606 C1604 1.363 . S
C1606 C1607 1.370 . S
C1606 C1610 1.524 . S
C1607 C1599 1.503 . S
C1607 C1606 1.370 . S
C1607 C1608 1.403 . S
C1608 C1607 1.403 . S
C1608 C1609 1.404 . S
C1608 C1611 1.539 . S
C1609 C1605 1.408 . S
C1609 C1608 1.404 . S
C1609 H1621 0.930 . S
C1610 C1606 1.524 . S
C1610 H1622 0.956 . S
C1610 H1623 0.961 . S
C1610 H1624 0.961 . S
C1611 C1608 1.539 . S
C1611 H1625 0.958 . S
C1611 H1626 0.961 . S
C1611 H1627 0.960 . S
H1612 C1596 0.931 . S
H1613 C1601 0.929 . S
H1614 C1602 0.960 . S
H1615 C1602 0.962 . S
H1616 C1602 0.960 . S
H1617 C1603 0.961 . S
H1618 C1603 0.961 . S
H1619 C1603 0.961 . S
H1620 C1604 0.931 . S
H1621 C1609 0.930 . S
H1622 C1610 0.956 . S
H1623 C1610 0.961 . S
H1624 C1610 0.961 . S
H1625 C1611 0.958 . S
H1626 C1611 0.961 . S
H1627 C1611 0.960 . S
C1628 C1629 1.391 . S
C1628 C1630 1.394 . S
C1628 H1644 0.931 . S
C1629 C1628 1.391 . S
C1629 C1633 1.376 . S
C1630 C1628 1.394 . S
C1630 C1631 1.369 . S
C1630 C1634 1.531 . S
C1631 C1630 1.369 . S
C1631 C1632 1.410 . S
C1631 C1639 1.503 . S
C1632 C1631 1.410 . S
C1632 C1633 1.392 . S
C1632 C1635 1.511 . S
C1633 C1629 1.376 . S
C1633 C1632 1.392 . S
C1633 H1645 0.929 . S
C1634 C1630 1.531 . S
C1634 H1646 0.960 . S
C1634 H1647 0.962 . S
C1634 H1648 0.960 . S
C1635 C1632 1.511 . S
C1635 H1649 0.961 . S
C1635 H1650 0.961 . S
C1635 H1651 0.961 . S
C1636 C1637 1.370 . S
C1636 C1638 1.363 . S
C1636 H1652 0.931 . S
C1637 C1636 1.370 . S
C1637 C1641 1.408 . S
C1638 C1636 1.363 . S
C1638 C1639 1.370 . S
C1638 C1642 1.524 . S
C1639 C1631 1.503 . S
C1639 C1638 1.370 . S
C1639 C1640 1.403 . S
C1640 C1639 1.403 . S
C1640 C1641 1.404 . S
C1640 C1643 1.539 . S
C1641 C1637 1.408 . S
C1641 C1640 1.404 . S
C1641 H1653 0.930 . S
C1642 C1638 1.524 . S
C1642 H1654 0.956 . S
C1642 H1655 0.961 . S
C1642 H1656 0.961 . S
C1643 C1640 1.539 . S
C1643 H1657 0.958 . S
C1643 H1658 0.961 . S
C1643 H1659 0.960 . S
H1644 C1628 0.931 . S
H1645 C1633 0.929 . S
H1646 C1634 0.960 . S
H1647 C1634 0.962 . S
H1648 C1634 0.960 . S
H1649 C1635 0.961 . S
H1650 C1635 0.961 . S
H1651 C1635 0.961 . S
H1652 C1636 0.931 . S
H1653 C1641 0.930 . S
H1654 C1642 0.956 . S
H1655 C1642 0.961 . S
H1656 C1642 0.961 . S
H1657 C1643 0.958 . S
H1658 C1643 0.961 . S
H1659 C1643 0.960 . S
C1660 C1661 1.391 . S
C1660 C1662 1.394 . S
C1660 H1676 0.931 . S
C1661 C1660 1.391 . S
C1661 C1665 1.376 . S
C1662 C1660 1.394 . S
C1662 C1663 1.369 . S
C1662 C1666 1.531 . S
C1663 C1662 1.369 . S
C1663 C1664 1.410 . S
C1663 C1671 1.503 . S
C1664 C1663 1.410 . S
C1664 C1665 1.392 . S
C1664 C1667 1.511 . S
C1665 C1661 1.376 . S
C1665 C1664 1.392 . S
C1665 H1677 0.929 . S
C1666 C1662 1.531 . S
C1666 H1678 0.960 . S
C1666 H1679 0.962 . S
C1666 H1680 0.960 . S
C1667 C1664 1.511 . S
C1667 H1681 0.961 . S
C1667 H1682 0.961 . S
C1667 H1683 0.961 . S
C1668 C1669 1.370 . S
C1668 C1670 1.363 . S
C1668 H1684 0.931 . S
C1669 C1668 1.370 . S
C1669 C1673 1.408 . S
C1670 C1668 1.363 . S
C1670 C1671 1.370 . S
C1670 C1674 1.524 . S
C1671 C1663 1.503 . S
C1671 C1670 1.370 . S
C1671 C1672 1.403 . S
C1672 C1671 1.403 . S
C1672 C1673 1.404 . S
C1672 C1675 1.539 . S
C1673 C1669 1.408 . S
C1673 C1672 1.404 . S
C1673 H1685 0.930 . S
C1674 C1670 1.524 . S
C1674 H1686 0.956 . S
C1674 H1687 0.961 . S
C1674 H1688 0.961 . S
C1675 C1672 1.539 . S
C1675 H1689 0.958 . S
C1675 H1690 0.961 . S
C1675 H1691 0.960 . S
H1676 C1660 0.931 . S
H1677 C1665 0.929 . S
H1678 C1666 0.960 . S
H1679 C1666 0.962 . S
H1680 C1666 0.960 . S
H1681 C1667 0.961 . S
H1682 C1667 0.961 . S
H1683 C1667 0.961 . S
H1684 C1668 0.931 . S
H1685 C1673 0.930 . S
H1686 C1674 0.956 . S
H1687 C1674 0.961 . S
H1688 C1674 0.961 . S
H1689 C1675 0.958 . S
H1690 C1675 0.961 . S
H1691 C1675 0.960 . S
C1692 C1693 1.391 . S
C1692 C1694 1.394 . S
C1692 H1708 0.931 . S
C1693 C1692 1.391 . S
C1693 C1697 1.376 . S
C1694 C1692 1.394 . S
C1694 C1695 1.369 . S
C1694 C1698 1.531 . S
C1695 C1694 1.369 . S
C1695 C1696 1.410 . S
C1695 C1703 1.503 . S
C1696 C1695 1.410 . S
C1696 C1697 1.392 . S
C1696 C1699 1.511 . S
C1697 C1693 1.376 . S
C1697 C1696 1.392 . S
C1697 H1709 0.929 . S
C1698 C1694 1.531 . S
C1698 H1710 0.960 . S
C1698 H1711 0.962 . S
C1698 H1712 0.960 . S
C1699 C1696 1.511 . S
C1699 H1713 0.961 . S
C1699 H1714 0.961 . S
C1699 H1715 0.961 . S
C1700 C1701 1.370 . S
C1700 C1702 1.363 . S
C1700 H1716 0.931 . S
C1701 C1700 1.370 . S
C1701 C1705 1.408 . S
C1702 C1700 1.363 . S
C1702 C1703 1.370 . S
C1702 C1706 1.524 . S
C1703 C1695 1.503 . S
C1703 C1702 1.370 . S
C1703 C1704 1.403 . S
C1704 C1703 1.403 . S
C1704 C1705 1.404 . S
C1704 C1707 1.539 . S
C1705 C1701 1.408 . S
C1705 C1704 1.404 . S
C1705 H1717 0.930 . S
C1706 C1702 1.524 . S
C1706 H1718 0.956 . S
C1706 H1719 0.961 . S
C1706 H1720 0.961 . S
C1707 C1704 1.539 . S
C1707 H1721 0.958 . S
C1707 H1722 0.961 . S
C1707 H1723 0.960 . S
H1708 C1692 0.931 . S
H1709 C1697 0.929 . S
H1710 C1698 0.960 . S
H1711 C1698 0.962 . S
H1712 C1698 0.960 . S
H1713 C1699 0.961 . S
H1714 C1699 0.961 . S
H1715 C1699 0.961 . S
H1716 C1700 0.931 . S
H1717 C1705 0.930 . S
H1718 C1706 0.956 . S
H1719 C1706 0.961 . S
H1720 C1706 0.961 . S
H1721 C1707 0.958 . S
H1722 C1707 0.961 . S
H1723 C1707 0.960 . S
C1724 C1725 1.391 . S
C1724 C1726 1.394 . S
C1724 H1740 0.931 . S
C1725 C1724 1.391 . S
C1725 C1729 1.376 . S
C1726 C1724 1.394 . S
C1726 C1727 1.369 . S
C1726 C1730 1.531 . S
C1727 C1726 1.369 . S
C1727 C1728 1.410 . S
C1727 C1735 1.503 . S
C1728 C1727 1.410 . S
C1728 C1729 1.392 . S
C1728 C1731 1.511 . S
C1729 C1725 1.376 . S
C1729 C1728 1.392 . S
C1729 H1741 0.929 . S
C1730 C1726 1.531 . S
C1730 H1742 0.960 . S
C1730 H1743 0.962 . S
C1730 H1744 0.960 . S
C1731 C1728 1.511 . S
C1731 H1745 0.961 . S
C1731 H1746 0.961 . S
C1731 H1747 0.961 . S
C1732 C1733 1.370 . S
C1732 C1734 1.363 . S
C1732 H1748 0.931 . S
C1733 C1732 1.370 . S
C1733 C1737 1.408 . S
C1734 C1732 1.363 . S
C1734 C1735 1.370 . S
C1734 C1738 1.524 . S
C1735 C1727 1.503 . S
C1735 C1734 1.370 . S
C1735 C1736 1.403 . S
C1736 C1735 1.403 . S
C1736 C1737 1.404 . S
C1736 C1739 1.539 . S
C1737 C1733 1.408 . S
C1737 C1736 1.404 . S
C1737 H1749 0.930 . S
C1738 C1734 1.524 . S
C1738 H1750 0.956 . S
C1738 H1751 0.961 . S
C1738 H1752 0.961 . S
C1739 C1736 1.539 . S
C1739 H1753 0.958 . S
C1739 H1754 0.961 . S
C1739 H1755 0.960 . S
H1740 C1724 0.931 . S
H1741 C1729 0.929 . S
H1742 C1730 0.960 . S
H1743 C1730 0.962 . S
H1744 C1730 0.960 . S
H1745 C1731 0.961 . S
H1746 C1731 0.961 . S
H1747 C1731 0.961 . S
H1748 C1732 0.931 . S
H1749 C1737 0.930 . S
H1750 C1738 0.956 . S
H1751 C1738 0.961 . S
H1752 C1738 0.961 . S
H1753 C1739 0.958 . S
H1754 C1739 0.961 . S
H1755 C1739 0.960 . S
C1756 C1757 1.391 . S
C1756 C1758 1.394 . S
C1756 H1772 0.931 . S
C1757 C1756 1.391 . S
C1757 C1761 1.376 . S
C1758 C1756 1.394 . S
C1758 C1759 1.369 . S
C1758 C1762 1.531 . S
C1759 C1758 1.369 . S
C1759 C1760 1.410 . S
C1759 C1767 1.503 . S
C1760 C1759 1.410 . S
C1760 C1761 1.392 . S
C1760 C1763 1.511 . S
C1761 C1757 1.376 . S
C1761 C1760 1.392 . S
C1761 H1773 0.929 . S
C1762 C1758 1.531 . S
C1762 H1774 0.960 . S
C1762 H1775 0.962 . S
C1762 H1776 0.960 . S
C1763 C1760 1.511 . S
C1763 H1777 0.961 . S
C1763 H1778 0.961 . S
C1763 H1779 0.961 . S
C1764 C1765 1.370 . S
C1764 C1766 1.363 . S
C1764 H1780 0.931 . S
C1765 C1764 1.370 . S
C1765 C1769 1.408 . S
C1766 C1764 1.363 . S
C1766 C1767 1.370 . S
C1766 C1770 1.524 . S
C1767 C1759 1.503 . S
C1767 C1766 1.370 . S
C1767 C1768 1.403 . S
C1768 C1767 1.403 . S
C1768 C1769 1.404 . S
C1768 C1771 1.539 . S
C1769 C1765 1.408 . S
C1769 C1768 1.404 . S
C1769 H1781 0.930 . S
C1770 C1766 1.524 . S
C1770 H1782 0.956 . S
C1770 H1783 0.961 . S
C1770 H1784 0.961 . S
C1771 C1768 1.539 . S
C1771 H1785 0.958 . S
C1771 H1786 0.961 . S
C1771 H1787 0.960 . S
H1772 C1756 0.931 . S
H1773 C1761 0.929 . S
H1774 C1762 0.960 . S
H1775 C1762 0.962 . S
H1776 C1762 0.960 . S
H1777 C1763 0.961 . S
H1778 C1763 0.961 . S
H1779 C1763 0.961 . S
H1780 C1764 0.931 . S
H1781 C1769 0.930 . S
H1782 C1770 0.956 . S
H1783 C1770 0.961 . S
H1784 C1770 0.961 . S
H1785 C1771 0.958 . S
H1786 C1771 0.961 . S
H1787 C1771 0.960 . S
C1788 C1789 1.391 . S
C1788 C1790 1.394 . S
C1788 H1804 0.931 . S
C1789 C1788 1.391 . S
C1789 C1793 1.376 . S
C1790 C1788 1.394 . S
C1790 C1791 1.369 . S
C1790 C1794 1.531 . S
C1791 C1790 1.369 . S
C1791 C1792 1.410 . S
C1791 C1799 1.503 . S
C1792 C1791 1.410 . S
C1792 C1793 1.392 . S
C1792 C1795 1.511 . S
C1793 C1789 1.376 . S
C1793 C1792 1.392 . S
C1793 H1805 0.929 . S
C1794 C1790 1.531 . S
C1794 H1806 0.960 . S
C1794 H1807 0.962 . S
C1794 H1808 0.960 . S
C1795 C1792 1.511 . S
C1795 H1809 0.961 . S
C1795 H1810 0.961 . S
C1795 H1811 0.961 . S
C1796 C1797 1.370 . S
C1796 C1798 1.363 . S
C1796 H1812 0.931 . S
C1797 C1796 1.370 . S
C1797 C1801 1.408 . S
C1798 C1796 1.363 . S
C1798 C1799 1.370 . S
C1798 C1802 1.524 . S
C1799 C1791 1.503 . S
C1799 C1798 1.370 . S
C1799 C1800 1.403 . S
C1800 C1799 1.403 . S
C1800 C1801 1.404 . S
C1800 C1803 1.539 . S
C1801 C1797 1.408 . S
C1801 C1800 1.404 . S
C1801 H1813 0.930 . S
C1802 C1798 1.524 . S
C1802 H1814 0.956 . S
C1802 H1815 0.961 . S
C1802 H1816 0.961 . S
C1803 C1800 1.539 . S
C1803 H1817 0.958 . S
C1803 H1818 0.961 . S
C1803 H1819 0.960 . S
H1804 C1788 0.931 . S
H1805 C1793 0.929 . S
H1806 C1794 0.960 . S
H1807 C1794 0.962 . S
H1808 C1794 0.960 . S
H1809 C1795 0.961 . S
H1810 C1795 0.961 . S
H1811 C1795 0.961 . S
H1812 C1796 0.931 . S
H1813 C1801 0.930 . S
H1814 C1802 0.956 . S
H1815 C1802 0.961 . S
H1816 C1802 0.961 . S
H1817 C1803 0.958 . S
H1818 C1803 0.961 . S
H1819 C1803 0.960 . S
C1820 C1821 1.391 . S
C1820 C1822 1.394 . S
C1820 H1836 0.931 . S
C1821 C1820 1.391 . S
C1821 C1825 1.376 . S
C1822 C1820 1.394 . S
C1822 C1823 1.369 . S
C1822 C1826 1.531 . S
C1823 C1822 1.369 . S
C1823 C1824 1.410 . S
C1823 C1831 1.503 . S
C1824 C1823 1.410 . S
C1824 C1825 1.392 . S
C1824 C1827 1.511 . S
C1825 C1821 1.376 . S
C1825 C1824 1.392 . S
C1825 H1837 0.929 . S
C1826 C1822 1.531 . S
C1826 H1838 0.960 . S
C1826 H1839 0.962 . S
C1826 H1840 0.960 . S
C1827 C1824 1.511 . S
C1827 H1841 0.961 . S
C1827 H1842 0.961 . S
C1827 H1843 0.961 . S
C1828 C1829 1.370 . S
C1828 C1830 1.363 . S
C1828 H1844 0.931 . S
C1829 C1828 1.370 . S
C1829 C1833 1.408 . S
C1830 C1828 1.363 . S
C1830 C1831 1.370 . S
C1830 C1834 1.524 . S
C1831 C1823 1.503 . S
C1831 C1830 1.370 . S
C1831 C1832 1.403 . S
C1832 C1831 1.403 . S
C1832 C1833 1.404 . S
C1832 C1835 1.539 . S
C1833 C1829 1.408 . S
C1833 C1832 1.404 . S
C1833 H1845 0.930 . S
C1834 C1830 1.524 . S
C1834 H1846 0.956 . S
C1834 H1847 0.961 . S
C1834 H1848 0.961 . S
C1835 C1832 1.539 . S
C1835 H1849 0.958 . S
C1835 H1850 0.961 . S
C1835 H1851 0.960 . S
H1836 C1820 0.931 . S
H1837 C1825 0.929 . S
H1838 C1826 0.960 . S
H1839 C1826 0.962 . S
H1840 C1826 0.960 . S
H1841 C1827 0.961 . S
H1842 C1827 0.961 . S
H1843 C1827 0.961 . S
H1844 C1828 0.931 . S
H1845 C1833 0.930 . S
H1846 C1834 0.956 . S
H1847 C1834 0.961 . S
H1848 C1834 0.961 . S
H1849 C1835 0.958 . S
H1850 C1835 0.961 . S
H1851 C1835 0.960 . S
C1852 C1853 1.391 . S
C1852 C1854 1.394 . S
C1852 H1868 0.931 . S
C1853 C1852 1.391 . S
C1853 C1857 1.376 . S
C1854 C1852 1.394 . S
C1854 C1855 1.369 . S
C1854 C1858 1.531 . S
C1855 C1854 1.369 . S
C1855 C1856 1.410 . S
C1855 C1863 1.503 . S
C1856 C1855 1.410 . S
C1856 C1857 1.392 . S
C1856 C1859 1.511 . S
C1857 C1853 1.376 . S
C1857 C1856 1.392 . S
C1857 H1869 0.929 . S
C1858 C1854 1.531 . S
C1858 H1870 0.960 . S
C1858 H1871 0.962 . S
C1858 H1872 0.960 . S
C1859 C1856 1.511 . S
C1859 H1873 0.961 . S
C1859 H1874 0.961 . S
C1859 H1875 0.961 . S
C1860 C1861 1.370 . S
C1860 C1862 1.363 . S
C1860 H1876 0.931 . S
C1861 C1860 1.370 . S
C1861 C1865 1.408 . S
C1862 C1860 1.363 . S
C1862 C1863 1.370 . S
C1862 C1866 1.524 . S
C1863 C1855 1.503 . S
C1863 C1862 1.370 . S
C1863 C1864 1.403 . S
C1864 C1863 1.403 . S
C1864 C1865 1.404 . S
C1864 C1867 1.539 . S
C1865 C1861 1.408 . S
C1865 C1864 1.404 . S
C1865 H1877 0.930 . S
C1866 C1862 1.524 . S
C1866 H1878 0.956 . S
C1866 H1879 0.961 . S
C1866 H1880 0.961 . S
C1867 C1864 1.539 . S
C1867 H1881 0.958 . S
C1867 H1882 0.961 . S
C1867 H1883 0.960 . S
H1868 C1852 0.931 . S
H1869 C1857 0.929 . S
H1870 C1858 0.960 . S
H1871 C1858 0.962 . S
H1872 C1858 0.960 . S
H1873 C1859 0.961 . S
H1874 C1859 0.961 . S
H1875 C1859 0.961 . S
H1876 C1860 0.931 . S
H1877 C1865 0.930 . S
H1878 C1866 0.956 . S
H1879 C1866 0.961 . S
H1880 C1866 0.961 . S
H1881 C1867 0.958 . S
H1882 C1867 0.961 . S
H1883 C1867 0.960 . S
C1884 C1885 1.391 . S
C1884 C1886 1.394 . S
C1884 H1900 0.931 . S
C1885 C1884 1.391 . S
C1885 C1889 1.376 . S
C1886 C1884 1.394 . S
C1886 C1887 1.369 . S
C1886 C1890 1.531 . S
C1887 C1886 1.369 . S
C1887 C1888 1.410 . S
C1887 C1895 1.503 . S
C1888 C1887 1.410 . S
C1888 C1889 1.392 . S
C1888 C1891 1.511 . S
C1889 C1885 1.376 . S
C1889 C1888 1.392 . S
C1889 H1901 0.929 . S
C1890 C1886 1.531 . S
C1890 H1902 0.960 . S
C1890 H1903 0.962 . S
C1890 H1904 0.960 . S
C1891 C1888 1.511 . S
C1891 H1905 0.961 . S
C1891 H1906 0.961 . S
C1891 H1907 0.961 . S
C1892 C1893 1.370 . S
C1892 C1894 1.363 . S
C1892 H1908 0.931 . S
C1893 C1892 1.370 . S
C1893 C1897 1.408 . S
C1894 C1892 1.363 . S
C1894 C1895 1.370 . S
C1894 C1898 1.524 . S
C1895 C1887 1.503 . S
C1895 C1894 1.370 . S
C1895 C1896 1.403 . S
C1896 C1895 1.403 . S
C1896 C1897 1.404 . S
C1896 C1899 1.539 . S
C1897 C1893 1.408 . S
C1897 C1896 1.404 . S
C1897 H1909 0.930 . S
C1898 C1894 1.524 . S
C1898 H1910 0.956 . S
C1898 H1911 0.961 . S
C1898 H1912 0.961 . S
C1899 C1896 1.539 . S
C1899 H1913 0.958 . S
C1899 H1914 0.961 . S
C1899 H1915 0.960 . S
H1900 C1884 0.931 . S
H1901 C1889 0.929 . S
H1902 C1890 0.960 . S
H1903 C1890 0.962 . S
H1904 C1890 0.960 . S
H1905 C1891 0.961 . S
H1906 C1891 0.961 . S
H1907 C1891 0.961 . S
H1908 C1892 0.931 . S
H1909 C1897 0.930 . S
H1910 C1898 0.956 . S
H1911 C1898 0.961 . S
H1912 C1898 0.961 . S
H1913 C1899 0.958 . S
H1914 C1899 0.961 . S
H1915 C1899 0.960 . S
C1916 C1917 1.391 . S
C1916 C1918 1.394 . S
C1916 H1932 0.931 . S
C1917 C1916 1.391 . S
C1917 C1921 1.376 . S
C1918 C1916 1.394 . S
C1918 C1919 1.369 . S
C1918 C1922 1.531 . S
C1919 C1918 1.369 . S
C1919 C1920 1.410 . S
C1919 C1927 1.503 . S
C1920 C1919 1.410 . S
C1920 C1921 1.392 . S
C1920 C1923 1.511 . S
C1921 C1917 1.376 . S
C1921 C1920 1.392 . S
C1921 H1933 0.929 . S
C1922 C1918 1.531 . S
C1922 H1934 0.960 . S
C1922 H1935 0.962 . S
C1922 H1936 0.960 . S
C1923 C1920 1.511 . S
C1923 H1937 0.961 . S
C1923 H1938 0.961 . S
C1923 H1939 0.961 . S
C1924 C1925 1.370 . S
C1924 C1926 1.363 . S
C1924 H1940 0.931 . S
C1925 C1924 1.370 . S
C1925 C1929 1.408 . S
C1926 C1924 1.363 . S
C1926 C1927 1.370 . S
C1926 C1930 1.524 . S
C1927 C1919 1.503 . S
C1927 C1926 1.370 . S
C1927 C1928 1.403 . S
C1928 C1927 1.403 . S
C1928 C1929 1.404 . S
C1928 C1931 1.539 . S
C1929 C1925 1.408 . S
C1929 C1928 1.404 . S
C1929 H1941 0.930 . S
C1930 C1926 1.524 . S
C1930 H1942 0.956 . S
C1930 H1943 0.961 . S
C1930 H1944 0.961 . S
C1931 C1928 1.539 . S
C1931 H1945 0.958 . S
C1931 H1946 0.961 . S
C1931 H1947 0.960 . S
H1932 C1916 0.931 . S
H1933 C1921 0.929 . S
H1934 C1922 0.960 . S
H1935 C1922 0.962 . S
H1936 C1922 0.960 . S
H1937 C1923 0.961 . S
H1938 C1923 0.961 . S
H1939 C1923 0.961 . S
H1940 C1924 0.931 . S
H1941 C1929 0.930 . S
H1942 C1930 0.956 . S
H1943 C1930 0.961 . S
H1944 C1930 0.961 . S
H1945 C1931 0.958 . S
H1946 C1931 0.961 . S
H1947 C1931 0.960 . S
C1948 C1949 1.391 . S
C1948 C1950 1.394 . S
C1948 H1964 0.931 . S
C1949 C1948 1.391 . S
C1949 C1953 1.376 . S
C1950 C1948 1.394 . S
C1950 C1951 1.369 . S
C1950 C1954 1.531 . S
C1951 C1950 1.369 . S
C1951 C1952 1.410 . S
C1951 C1959 1.503 . S
C1952 C1951 1.410 . S
C1952 C1953 1.392 . S
C1952 C1955 1.511 . S
C1953 C1949 1.376 . S
C1953 C1952 1.392 . S
C1953 H1965 0.929 . S
C1954 C1950 1.531 . S
C1954 H1966 0.960 . S
C1954 H1967 0.962 . S
C1954 H1968 0.960 . S
C1955 C1952 1.511 . S
C1955 H1969 0.961 . S
C1955 H1970 0.961 . S
C1955 H1971 0.961 . S
C1956 C1957 1.370 . S
C1956 C1958 1.363 . S
C1956 H1972 0.931 . S
C1957 C1956 1.370 . S
C1957 C1961 1.408 . S
C1958 C1956 1.363 . S
C1958 C1959 1.370 . S
C1958 C1962 1.524 . S
C1959 C1951 1.503 . S
C1959 C1958 1.370 . S
C1959 C1960 1.403 . S
C1960 C1959 1.403 . S
C1960 C1961 1.404 . S
C1960 C1963 1.539 . S
C1961 C1957 1.408 . S
C1961 C1960 1.404 . S
C1961 H1973 0.930 . S
C1962 C1958 1.524 . S
C1962 H1974 0.956 . S
C1962 H1975 0.961 . S
C1962 H1976 0.961 . S
C1963 C1960 1.539 . S
C1963 H1977 0.958 . S
C1963 H1978 0.961 . S
C1963 H1979 0.960 . S
H1964 C1948 0.931 . S
H1965 C1953 0.929 . S
H1966 C1954 0.960 . S
H1967 C1954 0.962 . S
H1968 C1954 0.960 . S
H1969 C1955 0.961 . S
H1970 C1955 0.961 . S
H1971 C1955 0.961 . S
H1972 C1956 0.931 . S
H1973 C1961 0.930 . S
H1974 C1962 0.956 . S
H1975 C1962 0.961 . S
H1976 C1962 0.961 . S
H1977 C1963 0.958 . S
H1978 C1963 0.961 . S
H1979 C1963 0.960 . S
C1980 C1981 1.391 . S
C1980 C1982 1.394 . S
C1980 H1996 0.931 . S
C1981 C1980 1.391 . S
C1981 C1985 1.376 . S
C1982 C1980 1.394 . S
C1982 C1983 1.369 . S
C1982 C1986 1.531 . S
C1983 C1982 1.369 . S
C1983 C1984 1.410 . S
C1983 C1991 1.503 . S
C1984 C1983 1.410 . S
C1984 C1985 1.392 . S
C1984 C1987 1.511 . S
C1985 C1981 1.376 . S
C1985 C1984 1.392 . S
C1985 H1997 0.929 . S
C1986 C1982 1.531 . S
C1986 H1998 0.960 . S
C1986 H1999 0.962 . S
C1986 H2000 0.960 . S
C1987 C1984 1.511 . S
C1987 H2001 0.961 . S
C1987 H2002 0.961 . S
C1987 H2003 0.961 . S
C1988 C1989 1.370 . S
C1988 C1990 1.363 . S
C1988 H2004 0.931 . S
C1989 C1988 1.370 . S
C1989 C1993 1.408 . S
C1990 C1988 1.363 . S
C1990 C1991 1.370 . S
C1990 C1994 1.524 . S
C1991 C1983 1.503 . S
C1991 C1990 1.370 . S
C1991 C1992 1.403 . S
C1992 C1991 1.403 . S
C1992 C1993 1.404 . S
C1992 C1995 1.539 . S
C1993 C1989 1.408 . S
C1993 C1992 1.404 . S
C1993 H2005 0.930 . S
C1994 C1990 1.524 . S
C1994 H2006 0.956 . S
C1994 H2007 0.961 . S
C1994 H2008 0.961 . S
C1995 C1992 1.539 . S
C1995 H2009 0.958 . S
C1995 H2010 0.961 . S
C1995 H2011 0.960 . S
H1996 C1980 0.931 . S
H1997 C1985 0.929 . S
H1998 C1986 0.960 . S
H1999 C1986 0.962 . S
H2000 C1986 0.960 . S
H2001 C1987 0.961 . S
H2002 C1987 0.961 . S
H2003 C1987 0.961 . S
H2004 C1988 0.931 . S
H2005 C1993 0.930 . S
H2006 C1994 0.956 . S
H2007 C1994 0.961 . S
H2008 C1994 0.961 . S
H2009 C1995 0.958 . S
H2010 C1995 0.961 . S
H2011 C1995 0.960 . S
C2012 C2013 1.391 . S
C2012 C2014 1.394 . S
C2012 H2028 0.931 . S
C2013 C2012 1.391 . S
C2013 C2017 1.376 . S
C2014 C2012 1.394 . S
C2014 C2015 1.369 . S
C2014 C2018 1.531 . S
C2015 C2014 1.369 . S
C2015 C2016 1.410 . S
C2015 C2023 1.503 . S
C2016 C2015 1.410 . S
C2016 C2017 1.392 . S
C2016 C2019 1.511 . S
C2017 C2013 1.376 . S
C2017 C2016 1.392 . S
C2017 H2029 0.929 . S
C2018 C2014 1.531 . S
C2018 H2030 0.960 . S
C2018 H2031 0.962 . S
C2018 H2032 0.960 . S
C2019 C2016 1.511 . S
C2019 H2033 0.961 . S
C2019 H2034 0.961 . S
C2019 H2035 0.961 . S
C2020 C2021 1.370 . S
C2020 C2022 1.363 . S
C2020 H2036 0.931 . S
C2021 C2020 1.370 . S
C2021 C2025 1.408 . S
C2022 C2020 1.363 . S
C2022 C2023 1.370 . S
C2022 C2026 1.524 . S
C2023 C2015 1.503 . S
C2023 C2022 1.370 . S
C2023 C2024 1.403 . S
C2024 C2023 1.403 . S
C2024 C2025 1.404 . S
C2024 C2027 1.539 . S
C2025 C2021 1.408 . S
C2025 C2024 1.404 . S
C2025 H2037 0.930 . S
C2026 C2022 1.524 . S
C2026 H2038 0.956 . S
C2026 H2039 0.961 . S
C2026 H2040 0.961 . S
C2027 C2024 1.539 . S
C2027 H2041 0.958 . S
C2027 H2042 0.961 . S
C2027 H2043 0.960 . S
H2028 C2012 0.931 . S
H2029 C2017 0.929 . S
H2030 C2018 0.960 . S
H2031 C2018 0.962 . S
H2032 C2018 0.960 . S
H2033 C2019 0.961 . S
H2034 C2019 0.961 . S
H2035 C2019 0.961 . S
H2036 C2020 0.931 . S
H2037 C2025 0.930 . S
H2038 C2026 0.956 . S
H2039 C2026 0.961 . S
H2040 C2026 0.961 . S
H2041 C2027 0.958 . S
H2042 C2027 0.961 . S
H2043 C2027 0.960 . S
C2044 C2045 1.391 . S
C2044 C2046 1.394 . S
C2044 H2060 0.931 . S
C2045 C2044 1.391 . S
C2045 C2049 1.376 . S
C2046 C2044 1.394 . S
C2046 C2047 1.369 . S
C2046 C2050 1.531 . S
C2047 C2046 1.369 . S
C2047 C2048 1.410 . S
C2047 C2055 1.503 . S
C2048 C2047 1.410 . S
C2048 C2049 1.392 . S
C2048 C2051 1.511 . S
C2049 C2045 1.376 . S
C2049 C2048 1.392 . S
C2049 H2061 0.929 . S
C2050 C2046 1.531 . S
C2050 H2062 0.960 . S
C2050 H2063 0.962 . S
C2050 H2064 0.960 . S
C2051 C2048 1.511 . S
C2051 H2065 0.961 . S
C2051 H2066 0.961 . S
C2051 H2067 0.961 . S
C2052 C2053 1.370 . S
C2052 C2054 1.363 . S
C2052 H2068 0.931 . S
C2053 C2052 1.370 . S
C2053 C2057 1.408 . S
C2054 C2052 1.363 . S
C2054 C2055 1.370 . S
C2054 C2058 1.524 . S
C2055 C2047 1.503 . S
C2055 C2054 1.370 . S
C2055 C2056 1.403 . S
C2056 C2055 1.403 . S
C2056 C2057 1.404 . S
C2056 C2059 1.539 . S
C2057 C2053 1.408 . S
C2057 C2056 1.404 . S
C2057 H2069 0.930 . S
C2058 C2054 1.524 . S
C2058 H2070 0.956 . S
C2058 H2071 0.961 . S
C2058 H2072 0.961 . S
C2059 C2056 1.539 . S
C2059 H2073 0.958 . S
C2059 H2074 0.961 . S
C2059 H2075 0.960 . S
H2060 C2044 0.931 . S
H2061 C2049 0.929 . S
H2062 C2050 0.960 . S
H2063 C2050 0.962 . S
H2064 C2050 0.960 . S
H2065 C2051 0.961 . S
H2066 C2051 0.961 . S
H2067 C2051 0.961 . S
H2068 C2052 0.931 . S
H2069 C2057 0.930 . S
H2070 C2058 0.956 . S
H2071 C2058 0.961 . S
H2072 C2058 0.961 . S
H2073 C2059 0.958 . S
H2074 C2059 0.961 . S
H2075 C2059 0.960 . S
C2076 C2077 1.391 . S
C2076 C2078 1.394 . S
C2076 H2092 0.931 . S
C2077 C2076 1.391 . S
C2077 C2081 1.376 . S
C2078 C2076 1.394 . S
C2078 C2079 1.369 . S
C2078 C2082 1.531 . S
C2079 C2078 1.369 . S
C2079 C2080 1.410 . S
C2079 C2087 1.503 . S
C2080 C2079 1.410 . S
C2080 C2081 1.392 . S
C2080 C2083 1.511 . S
C2081 C2077 1.376 . S
C2081 C2080 1.392 . S
C2081 H2093 0.929 . S
C2082 C2078 1.531 . S
C2082 H2094 0.960 . S
C2082 H2095 0.962 . S
C2082 H2096 0.960 . S
C2083 C2080 1.511 . S
C2083 H2097 0.961 . S
C2083 H2098 0.961 . S
C2083 H2099 0.961 . S
C2084 C2085 1.370 . S
C2084 C2086 1.363 . S
C2084 H2100 0.931 . S
C2085 C2084 1.370 . S
C2085 C2089 1.408 . S
C2086 C2084 1.363 . S
C2086 C2087 1.370 . S
C2086 C2090 1.524 . S
C2087 C2079 1.503 . S
C2087 C2086 1.370 . S
C2087 C2088 1.403 . S
C2088 C2087 1.403 . S
C2088 C2089 1.404 . S
C2088 C2091 1.539 . S
C2089 C2085 1.408 . S
C2089 C2088 1.404 . S
C2089 H2101 0.930 . S
C2090 C2086 1.524 . S
C2090 H2102 0.956 . S
C2090 H2103 0.961 . S
C2090 H2104 0.961 . S
C2091 C2088 1.539 . S
C2091 H2105 0.958 . S
C2091 H2106 0.961 . S
C2091 H2107 0.960 . S
H2092 C2076 0.931 . S
H2093 C2081 0.929 . S
H2094 C2082 0.960 . S
H2095 C2082 0.962 . S
H2096 C2082 0.960 . S
H2097 C2083 0.961 . S
H2098 C2083 0.961 . S
H2099 C2083 0.961 . S
H2100 C2084 0.931 . S
H2101 C2089 0.930 . S
H2102 C2090 0.956 . S
H2103 C2090 0.961 . S
H2104 C2090 0.961 . S
H2105 C2091 0.958 . S
H2106 C2091 0.961 . S
H2107 C2091 0.960 . S
C2108 C2109 1.391 . S
C2108 C2110 1.394 . S
C2108 H2124 0.931 . S
C2109 C2108 1.391 . S
C2109 C2113 1.376 . S
C2110 C2108 1.394 . S
C2110 C2111 1.369 . S
C2110 C2114 1.531 . S
C2111 C2110 1.369 . S
C2111 C2112 1.410 . S
C2111 C2119 1.503 . S
C2112 C2111 1.410 . S
C2112 C2113 1.392 . S
C2112 C2115 1.511 . S
C2113 C2109 1.376 . S
C2113 C2112 1.392 . S
C2113 H2125 0.929 . S
C2114 C2110 1.531 . S
C2114 H2126 0.960 . S
C2114 H2127 0.962 . S
C2114 H2128 0.960 . S
C2115 C2112 1.511 . S
C2115 H2129 0.961 . S
C2115 H2130 0.961 . S
C2115 H2131 0.961 . S
C2116 C2117 1.370 . S
C2116 C2118 1.363 . S
C2116 H2132 0.931 . S
C2117 C2116 1.370 . S
C2117 C2121 1.408 . S
C2118 C2116 1.363 . S
C2118 C2119 1.370 . S
C2118 C2122 1.524 . S
C2119 C2111 1.503 . S
C2119 C2118 1.370 . S
C2119 C2120 1.403 . S
C2120 C2119 1.403 . S
C2120 C2121 1.404 . S
C2120 C2123 1.539 . S
C2121 C2117 1.408 . S
C2121 C2120 1.404 . S
C2121 H2133 0.930 . S
C2122 C2118 1.524 . S
C2122 H2134 0.956 . S
C2122 H2135 0.961 . S
C2122 H2136 0.961 . S
C2123 C2120 1.539 . S
C2123 H2137 0.958 . S
C2123 H2138 0.961 . S
C2123 H2139 0.960 . S
H2124 C2108 0.931 . S
H2125 C2113 0.929 . S
H2126 C2114 0.960 . S
H2127 C2114 0.962 . S
H2128 C2114 0.960 . S
H2129 C2115 0.961 . S
H2130 C2115 0.961 . S
H2131 C2115 0.961 . S
H2132 C2116 0.931 . S
H2133 C2121 0.930 . S
H2134 C2122 0.956 . S
H2135 C2122 0.961 . S
H2136 C2122 0.961 . S
H2137 C2123 0.958 . S
H2138 C2123 0.961 . S
H2139 C2123 0.960 . S
C2140 C2141 1.391 . S
C2140 C2142 1.394 . S
C2140 H2156 0.931 . S
C2141 C2140 1.391 . S
C2141 C2145 1.376 . S
C2142 C2140 1.394 . S
C2142 C2143 1.369 . S
C2142 C2146 1.531 . S
C2143 C2142 1.369 . S
C2143 C2144 1.410 . S
C2143 C2151 1.503 . S
C2144 C2143 1.410 . S
C2144 C2145 1.392 . S
C2144 C2147 1.511 . S
C2145 C2141 1.376 . S
C2145 C2144 1.392 . S
C2145 H2157 0.929 . S
C2146 C2142 1.531 . S
C2146 H2158 0.960 . S
C2146 H2159 0.962 . S
C2146 H2160 0.960 . S
C2147 C2144 1.511 . S
C2147 H2161 0.961 . S
C2147 H2162 0.961 . S
C2147 H2163 0.961 . S
C2148 C2149 1.370 . S
C2148 C2150 1.363 . S
C2148 H2164 0.931 . S
C2149 C2148 1.370 . S
C2149 C2153 1.408 . S
C2150 C2148 1.363 . S
C2150 C2151 1.370 . S
C2150 C2154 1.524 . S
C2151 C2143 1.503 . S
C2151 C2150 1.370 . S
C2151 C2152 1.403 . S
C2152 C2151 1.403 . S
C2152 C2153 1.404 . S
C2152 C2155 1.539 . S
C2153 C2149 1.408 . S
C2153 C2152 1.404 . S
C2153 H2165 0.930 . S
C2154 C2150 1.524 . S
C2154 H2166 0.956 . S
C2154 H2167 0.961 . S
C2154 H2168 0.961 . S
C2155 C2152 1.539 . S
C2155 H2169 0.958 . S
C2155 H2170 0.961 . S
C2155 H2171 0.960 . S
H2156 C2140 0.931 . S
H2157 C2145 0.929 . S
H2158 C2146 0.960 . S
H2159 C2146 0.962 . S
H2160 C2146 0.960 . S
H2161 C2147 0.961 . S
H2162 C2147 0.961 . S
H2163 C2147 0.961 . S
H2164 C2148 0.931 . S
H2165 C2153 0.930 . S
H2166 C2154 0.956 . S
H2167 C2154 0.961 . S
H2168 C2154 0.961 . S
H2169 C2155 0.958 . S
H2170 C2155 0.961 . S
H2171 C2155 0.960 . S
C2172 C2173 1.391 . S
C2172 C2174 1.394 . S
C2172 H2188 0.931 . S
C2173 C2172 1.391 . S
C2173 C2177 1.376 . S
C2174 C2172 1.394 . S
C2174 C2175 1.369 . S
C2174 C2178 1.531 . S
C2175 C2174 1.369 . S
C2175 C2176 1.410 . S
C2175 C2183 1.503 . S
C2176 C2175 1.410 . S
C2176 C2177 1.392 . S
C2176 C2179 1.511 . S
C2177 C2173 1.376 . S
C2177 C2176 1.392 . S
C2177 H2189 0.929 . S
C2178 C2174 1.531 . S
C2178 H2190 0.960 . S
C2178 H2191 0.962 . S
C2178 H2192 0.960 . S
C2179 C2176 1.511 . S
C2179 H2193 0.961 . S
C2179 H2194 0.961 . S
C2179 H2195 0.961 . S
C2180 C2181 1.370 . S
C2180 C2182 1.363 . S
C2180 H2196 0.931 . S
C2181 C2180 1.370 . S
C2181 C2185 1.408 . S
C2182 C2180 1.363 . S
C2182 C2183 1.370 . S
C2182 C2186 1.524 . S
C2183 C2175 1.503 . S
C2183 C2182 1.370 . S
C2183 C2184 1.403 . S
C2184 C2183 1.403 . S
C2184 C2185 1.404 . S
C2184 C2187 1.539 . S
C2185 C2181 1.408 . S
C2185 C2184 1.404 . S
C2185 H2197 0.930 . S
C2186 C2182 1.524 . S
C2186 H2198 0.956 . S
C2186 H2199 0.961 . S
C2186 H2200 0.961 . S
C2187 C2184 1.539 . S
C2187 H2201 0.958 . S
C2187 H2202 0.961 . S
C2187 H2203 0.960 . S
H2188 C2172 0.931 . S
H2189 C2177 0.929 . S
H2190 C2178 0.960 . S
H2191 C2178 0.962 . S
H2192 C2178 0.960 . S
H2193 C2179 0.961 . S
H2194 C2179 0.961 . S
H2195 C2179 0.961 . S
H2196 C2180 0.931 . S
H2197 C2185 0.930 . S
H2198 C2186 0.956 . S
H2199 C2186 0.961 . S
H2200 C2186 0.961 . S
H2201 C2187 0.958 . S
H2202 C2187 0.961 . S
H2203 C2187 0.960 . S
C2204 C2205 1.391 . S
C2204 C2206 1.394 . S
C2204 H2220 0.931 . S
C2205 C2204 1.391 . S
C2205 C2209 1.376 . S
C2206 C2204 1.394 . S
C2206 C2207 1.369 . S
C2206 C2210 1.531 . S
C2207 C2206 1.369 . S
C2207 C2208 1.410 . S
C2207 C2215 1.503 . S
C2208 C2207 1.410 . S
C2208 C2209 1.392 . S
C2208 C2211 1.511 . S
C2209 C2205 1.376 . S
C2209 C2208 1.392 . S
C2209 H2221 0.929 . S
C2210 C2206 1.531 . S
C2210 H2222 0.960 . S
C2210 H2223 0.962 . S
C2210 H2224 0.960 . S
C2211 C2208 1.511 . S
C2211 H2225 0.961 . S
C2211 H2226 0.961 . S
C2211 H2227 0.961 . S
C2212 C2213 1.370 . S
C2212 C2214 1.363 . S
C2212 H2228 0.931 . S
C2213 C2212 1.370 . S
C2213 C2217 1.408 . S
C2214 C2212 1.363 . S
C2214 C2215 1.370 . S
C2214 C2218 1.524 . S
C2215 C2207 1.503 . S
C2215 C2214 1.370 . S
C2215 C2216 1.403 . S
C2216 C2215 1.403 . S
C2216 C2217 1.404 . S
C2216 C2219 1.539 . S
C2217 C2213 1.408 . S
C2217 C2216 1.404 . S
C2217 H2229 0.930 . S
C2218 C2214 1.524 . S
C2218 H2230 0.956 . S
C2218 H2231 0.961 . S
C2218 H2232 0.961 . S
C2219 C2216 1.539 . S
C2219 H2233 0.958 . S
C2219 H2234 0.961 . S
C2219 H2235 0.960 . S
H2220 C2204 0.931 . S
H2221 C2209 0.929 . S
H2222 C2210 0.960 . S
H2223 C2210 0.962 . S
H2224 C2210 0.960 . S
H2225 C2211 0.961 . S
H2226 C2211 0.961 . S
H2227 C2211 0.961 . S
H2228 C2212 0.931 . S
H2229 C2217 0.930 . S
H2230 C2218 0.956 . S
H2231 C2218 0.961 . S
H2232 C2218 0.961 . S
H2233 C2219 0.958 . S
H2234 C2219 0.961 . S
H2235 C2219 0.960 . S
C2236 C2237 1.391 . S
C2236 C2238 1.394 . S
C2236 H2252 0.931 . S
C2237 C2236 1.391 . S
C2237 C2241 1.376 . S
C2238 C2236 1.394 . S
C2238 C2239 1.369 . S
C2238 C2242 1.531 . S
C2239 C2238 1.369 . S
C2239 C2240 1.410 . S
C2239 C2247 1.503 . S
C2240 C2239 1.410 . S
C2240 C2241 1.392 . S
C2240 C2243 1.511 . S
C2241 C2237 1.376 . S
C2241 C2240 1.392 . S
C2241 H2253 0.929 . S
C2242 C2238 1.531 . S
C2242 H2254 0.960 . S
C2242 H2255 0.962 . S
C2242 H2256 0.960 . S
C2243 C2240 1.511 . S
C2243 H2257 0.961 . S
C2243 H2258 0.961 . S
C2243 H2259 0.961 . S
C2244 C2245 1.370 . S
C2244 C2246 1.363 . S
C2244 H2260 0.931 . S
C2245 C2244 1.370 . S
C2245 C2249 1.408 . S
C2246 C2244 1.363 . S
C2246 C2247 1.370 . S
C2246 C2250 1.524 . S
C2247 C2239 1.503 . S
C2247 C2246 1.370 . S
C2247 C2248 1.403 . S
C2248 C2247 1.403 . S
C2248 C2249 1.404 . S
C2248 C2251 1.539 . S
C2249 C2245 1.408 . S
C2249 C2248 1.404 . S
C2249 H2261 0.930 . S
C2250 C2246 1.524 . S
C2250 H2262 0.956 . S
C2250 H2263 0.961 . S
C2250 H2264 0.961 . S
C2251 C2248 1.539 . S
C2251 H2265 0.958 . S
C2251 H2266 0.961 . S
C2251 H2267 0.960 . S
H2252 C2236 0.931 . S
H2253 C2241 0.929 . S
H2254 C2242 0.960 . S
H2255 C2242 0.962 . S
H2256 C2242 0.960 . S
H2257 C2243 0.961 . S
H2258 C2243 0.961 . S
H2259 C2243 0.961 . S
H2260 C2244 0.931 . S
H2261 C2249 0.930 . S
H2262 C2250 0.956 . S
H2263 C2250 0.961 . S
H2264 C2250 0.961 . S
H2265 C2251 0.958 . S
H2266 C2251 0.961 . S
H2267 C2251 0.960 . S
C2268 C2269 1.391 . S
C2268 C2270 1.394 . S
C2268 H2284 0.931 . S
C2269 C2268 1.391 . S
C2269 C2273 1.376 . S
C2270 C2268 1.394 . S
C2270 C2271 1.369 . S
C2270 C2274 1.531 . S
C2271 C2270 1.369 . S
C2271 C2272 1.410 . S
C2271 C2279 1.503 . S
C2272 C2271 1.410 . S
C2272 C2273 1.392 . S
C2272 C2275 1.511 . S
C2273 C2269 1.376 . S
C2273 C2272 1.392 . S
C2273 H2285 0.929 . S
C2274 C2270 1.531 . S
C2274 H2286 0.960 . S
C2274 H2287 0.962 . S
C2274 H2288 0.960 . S
C2275 C2272 1.511 . S
C2275 H2289 0.961 . S
C2275 H2290 0.961 . S
C2275 H2291 0.961 . S
C2276 C2277 1.370 . S
C2276 C2278 1.363 . S
C2276 H2292 0.931 . S
C2277 C2276 1.370 . S
C2277 C2281 1.408 . S
C2278 C2276 1.363 . S
C2278 C2279 1.370 . S
C2278 C2282 1.524 . S
C2279 C2271 1.503 . S
C2279 C2278 1.370 . S
C2279 C2280 1.403 . S
C2280 C2279 1.403 . S
C2280 C2281 1.404 . S
C2280 C2283 1.539 . S
C2281 C2277 1.408 . S
C2281 C2280 1.404 . S
C2281 H2293 0.930 . S
C2282 C2278 1.524 . S
C2282 H2294 0.956 . S
C2282 H2295 0.961 . S
C2282 H2296 0.961 . S
C2283 C2280 1.539 . S
C2283 H2297 0.958 . S
C2283 H2298 0.961 . S
C2283 H2299 0.960 . S
H2284 C2268 0.931 . S
H2285 C2273 0.929 . S
H2286 C2274 0.960 . S
H2287 C2274 0.962 . S
H2288 C2274 0.960 . S
H2289 C2275 0.961 . S
H2290 C2275 0.961 . S
H2291 C2275 0.961 . S
H2292 C2276 0.931 . S
H2293 C2281 0.930 . S
H2294 C2282 0.956 . S
H2295 C2282 0.961 . S
H2296 C2282 0.961 . S
H2297 C2283 0.958 . S
H2298 C2283 0.961 . S
H2299 C2283 0.960 . S
C2300 C2301 1.391 . S
C2300 C2302 1.394 . S
C2300 H2316 0.931 . S
C2301 C2300 1.391 . S
C2301 C2305 1.376 . S
C2302 C2300 1.394 . S
C2302 C2303 1.369 . S
C2302 C2306 1.531 . S
C2303 C2302 1.369 . S
C2303 C2304 1.410 . S
C2303 C2311 1.503 . S
C2304 C2303 1.410 . S
C2304 C2305 1.392 . S
C2304 C2307 1.511 . S
C2305 C2301 1.376 . S
C2305 C2304 1.392 . S
C2305 H2317 0.929 . S
C2306 C2302 1.531 . S
C2306 H2318 0.960 . S
C2306 H2319 0.962 . S
C2306 H2320 0.960 . S
C2307 C2304 1.511 . S
C2307 H2321 0.961 . S
C2307 H2322 0.961 . S
C2307 H2323 0.961 . S
C2308 C2309 1.370 . S
C2308 C2310 1.363 . S
C2308 H2324 0.931 . S
C2309 C2308 1.370 . S
C2309 C2313 1.408 . S
C2310 C2308 1.363 . S
C2310 C2311 1.370 . S
C2310 C2314 1.524 . S
C2311 C2303 1.503 . S
C2311 C2310 1.370 . S
C2311 C2312 1.403 . S
C2312 C2311 1.403 . S
C2312 C2313 1.404 . S
C2312 C2315 1.539 . S
C2313 C2309 1.408 . S
C2313 C2312 1.404 . S
C2313 H2325 0.930 . S
C2314 C2310 1.524 . S
C2314 H2326 0.956 . S
C2314 H2327 0.961 . S
C2314 H2328 0.961 . S
C2315 C2312 1.539 . S
C2315 H2329 0.958 . S
C2315 H2330 0.961 . S
C2315 H2331 0.960 . S
H2316 C2300 0.931 . S
H2317 C2305 0.929 . S
H2318 C2306 0.960 . S
H2319 C2306 0.962 . S
H2320 C2306 0.960 . S
H2321 C2307 0.961 . S
H2322 C2307 0.961 . S
H2323 C2307 0.961 . S
H2324 C2308 0.931 . S
H2325 C2313 0.930 . S
H2326 C2314 0.956 . S
H2327 C2314 0.961 . S
H2328 C2314 0.961 . S
H2329 C2315 0.958 . S
H2330 C2315 0.961 . S
H2331 C2315 0.960 . S
C2332 C2333 1.391 . S
C2332 C2334 1.394 . S
C2332 H2348 0.931 . S
C2333 C2332 1.391 . S
C2333 C2337 1.376 . S
C2334 C2332 1.394 . S
C2334 C2335 1.369 . S
C2334 C2338 1.531 . S
C2335 C2334 1.369 . S
C2335 C2336 1.410 . S
C2335 C2343 1.503 . S
C2336 C2335 1.410 . S
C2336 C2337 1.392 . S
C2336 C2339 1.511 . S
C2337 C2333 1.376 . S
C2337 C2336 1.392 . S
C2337 H2349 0.929 . S
C2338 C2334 1.531 . S
C2338 H2350 0.960 . S
C2338 H2351 0.962 . S
C2338 H2352 0.960 . S
C2339 C2336 1.511 . S
C2339 H2353 0.961 . S
C2339 H2354 0.961 . S
C2339 H2355 0.961 . S
C2340 C2341 1.370 . S
C2340 C2342 1.363 . S
C2340 H2356 0.931 . S
C2341 C2340 1.370 . S
C2341 C2345 1.408 . S
C2342 C2340 1.363 . S
C2342 C2343 1.370 . S
C2342 C2346 1.524 . S
C2343 C2335 1.503 . S
C2343 C2342 1.370 . S
C2343 C2344 1.403 . S
C2344 C2343 1.403 . S
C2344 C2345 1.404 . S
C2344 C2347 1.539 . S
C2345 C2341 1.408 . S
C2345 C2344 1.404 . S
C2345 H2357 0.930 . S
C2346 C2342 1.524 . S
C2346 H2358 0.956 . S
C2346 H2359 0.961 . S
C2346 H2360 0.961 . S
C2347 C2344 1.539 . S
C2347 H2361 0.958 . S
C2347 H2362 0.961 . S
C2347 H2363 0.960 . S
H2348 C2332 0.931 . S
H2349 C2337 0.929 . S
H2350 C2338 0.960 . S
H2351 C2338 0.962 . S
H2352 C2338 0.960 . S
H2353 C2339 0.961 . S
H2354 C2339 0.961 . S
H2355 C2339 0.961 . S
H2356 C2340 0.931 . S
H2357 C2345 0.930 . S
H2358 C2346 0.956 . S
H2359 C2346 0.961 . S
H2360 C2346 0.961 . S
H2361 C2347 0.958 . S
H2362 C2347 0.961 . S
H2363 C2347 0.960 . S
C2364 C2365 1.391 . S
C2364 C2366 1.394 . S
C2364 H2380 0.931 1_556 S
C2365 C2364 1.391 . S
C2365 C2369 1.376 . S
C2366 C2364 1.394 . S
C2366 C2367 1.369 . S
C2366 C2370 1.531 . S
C2367 C2366 1.369 . S
C2367 C2368 1.410 . S
C2367 C2375 1.503 . S
C2368 C2367 1.410 . S
C2368 C2369 1.392 . S
C2368 C2371 1.511 . S
C2369 C2365 1.376 . S
C2369 C2368 1.392 . S
C2369 H2381 0.929 . S
C2370 C2366 1.531 . S
C2370 H2382 0.960 . S
C2370 H2383 0.962 . S
C2370 H2384 0.960 1_556 S
C2371 C2368 1.511 . S
C2371 H2385 0.961 . S
C2371 H2386 0.961 . S
C2371 H2387 0.961 . S
C2372 C2373 1.370 . S
C2372 C2374 1.363 . S
C2372 H2388 0.931 . S
C2373 C2372 1.370 . S
C2373 C2377 1.408 . S
C2374 C2372 1.363 . S
C2374 C2375 1.370 . S
C2374 C2378 1.524 . S
C2375 C2367 1.503 . S
C2375 C2374 1.370 . S
C2375 C2376 1.403 . S
C2376 C2375 1.403 . S
C2376 C2377 1.404 . S
C2376 C2379 1.539 . S
C2377 C2373 1.408 . S
C2377 C2376 1.404 . S
C2377 H2389 0.930 . S
C2378 C2374 1.524 . S
C2378 H2390 0.956 . S
C2378 H2391 0.961 . S
C2378 H2392 0.961 . S
C2379 C2376 1.539 . S
C2379 H2393 0.957 1_556 S
C2379 H2394 0.961 . S
C2379 H2395 0.960 . S
H2380 C2364 0.931 1_554 S
H2381 C2369 0.929 . S
H2382 C2370 0.960 . S
H2383 C2370 0.962 . S
H2384 C2370 0.960 1_554 S
H2385 C2371 0.961 . S
H2386 C2371 0.961 . S
H2387 C2371 0.961 . S
H2388 C2372 0.931 . S
H2389 C2377 0.930 . S
H2390 C2378 0.956 . S
H2391 C2378 0.961 . S
H2392 C2378 0.961 . S
H2393 C2379 0.957 1_554 S
H2394 C2379 0.961 . S
H2395 C2379 0.960 . S
C2396 C2397 1.391 . S
C2396 C2398 1.394 . S
C2396 H2412 0.931 . S
C2397 C2396 1.391 . S
C2397 C2401 1.376 . S
C2398 C2396 1.394 . S
C2398 C2399 1.369 . S
C2398 C2402 1.531 . S
C2399 C2398 1.369 . S
C2399 C2400 1.410 . S
C2399 C2407 1.503 . S
C2400 C2399 1.410 . S
C2400 C2401 1.392 . S
C2400 C2403 1.511 . S
C2401 C2397 1.376 . S
C2401 C2400 1.392 . S
C2401 H2413 0.929 1_556 S
C2402 C2398 1.531 . S
C2402 H2414 0.960 . S
C2402 H2415 0.962 . S
C2402 H2416 0.960 . S
C2403 C2400 1.511 . S
C2403 H2417 0.961 1_556 S
C2403 H2418 0.961 . S
C2403 H2419 0.961 . S
C2404 C2405 1.370 . S
C2404 C2406 1.363 . S
C2404 H2420 0.931 . S
C2405 C2404 1.370 . S
C2405 C2409 1.408 . S
C2406 C2404 1.363 . S
C2406 C2407 1.370 . S
C2406 C2410 1.524 . S
C2407 C2399 1.503 . S
C2407 C2406 1.370 . S
C2407 C2408 1.403 . S
C2408 C2407 1.403 . S
C2408 C2409 1.404 . S
C2408 C2411 1.539 . S
C2409 C2405 1.408 . S
C2409 C2408 1.404 . S
C2409 H2421 0.930 . S
C2410 C2406 1.524 . S
C2410 H2422 0.956 . S
C2410 H2423 0.961 . S
C2410 H2424 0.961 . S
C2411 C2408 1.539 . S
C2411 H2425 0.958 . S
C2411 H2426 0.961 . S
C2411 H2427 0.960 . S
H2412 C2396 0.931 . S
H2413 C2401 0.929 1_554 S
H2414 C2402 0.960 . S
H2415 C2402 0.962 . S
H2416 C2402 0.960 . S
H2417 C2403 0.961 1_554 S
H2418 C2403 0.961 . S
H2419 C2403 0.961 . S
H2420 C2404 0.931 . S
H2421 C2409 0.930 . S
H2422 C2410 0.956 . S
H2423 C2410 0.961 . S
H2424 C2410 0.961 . S
H2425 C2411 0.958 . S
H2426 C2411 0.961 . S
H2427 C2411 0.960 . S
C2428 C2429 1.391 . S
C2428 C2430 1.394 . S
C2428 H2444 0.931 . S
C2429 C2428 1.391 . S
C2429 C2433 1.376 . S
C2430 C2428 1.394 . S
C2430 C2431 1.369 . S
C2430 C2434 1.531 . S
C2431 C2430 1.369 . S
C2431 C2432 1.410 . S
C2431 C2439 1.503 . S
C2432 C2431 1.410 . S
C2432 C2433 1.392 . S
C2432 C2435 1.511 . S
C2433 C2429 1.376 . S
C2433 C2432 1.392 . S
C2433 H2445 0.929 . S
C2434 C2430 1.531 . S
C2434 H2446 0.960 . S
C2434 H2447 0.962 . S
C2434 H2448 0.960 . S
C2435 C2432 1.511 . S
C2435 H2449 0.961 . S
C2435 H2450 0.961 . S
C2435 H2451 0.961 . S
C2436 C2437 1.370 . S
C2436 C2438 1.363 . S
C2436 H2452 0.931 . S
C2437 C2436 1.370 . S
C2437 C2441 1.408 . S
C2438 C2436 1.363 . S
C2438 C2439 1.370 . S
C2438 C2442 1.524 . S
C2439 C2431 1.503 . S
C2439 C2438 1.370 . S
C2439 C2440 1.403 . S
C2440 C2439 1.403 . S
C2440 C2441 1.404 . S
C2440 C2443 1.539 . S
C2441 C2437 1.408 . S
C2441 C2440 1.404 . S
C2441 H2453 0.930 . S
C2442 C2438 1.524 . S
C2442 H2454 0.956 . S
C2442 H2455 0.961 . S
C2442 H2456 0.961 . S
C2443 C2440 1.539 . S
C2443 H2457 0.958 . S
C2443 H2458 0.969 . S
C2443 H2459 0.961 . S
H2444 C2428 0.931 . S
H2445 C2433 0.929 . S
H2446 C2434 0.960 . S
H2447 C2434 0.962 . S
H2448 C2434 0.960 . S
H2449 C2435 0.961 . S
H2450 C2435 0.961 . S
H2451 C2435 0.961 . S
H2452 C2436 0.931 . S
H2453 C2441 0.930 . S
H2454 C2442 0.956 . S
H2455 C2442 0.961 . S
H2456 C2442 0.961 . S
H2457 C2443 0.958 . S
H2458 C2443 0.969 . S
H2459 C2443 0.961 . S
C2460 C2461 1.391 . S
C2460 C2462 1.394 . S
C2460 H2476 0.931 . S
C2461 C2460 1.391 . S
C2461 C2465 1.376 . S
C2462 C2460 1.394 . S
C2462 C2463 1.369 . S
C2462 C2466 1.531 . S
C2463 C2462 1.369 . S
C2463 C2464 1.410 . S
C2463 C2471 1.503 . S
C2464 C2463 1.410 . S
C2464 C2465 1.392 . S
C2464 C2467 1.511 1_556 S
C2465 C2461 1.376 . S
C2465 C2464 1.392 . S
C2465 H2477 0.929 1_556 S
C2466 C2462 1.531 . S
C2466 H2478 0.960 . S
C2466 H2479 0.962 . S
C2466 H2480 0.960 . S
C2467 C2464 1.511 1_554 S
C2467 H2481 0.961 . S
C2467 H2482 0.961 1_554 S
C2467 H2483 0.961 . S
C2468 C2469 1.370 . S
C2468 C2470 1.363 . S
C2468 H2484 0.931 . S
C2469 C2468 1.370 . S
C2469 C2473 1.408 . S
C2470 C2468 1.363 . S
C2470 C2471 1.370 . S
C2470 C2474 1.524 . S
C2471 C2463 1.503 . S
C2471 C2470 1.370 . S
C2471 C2472 1.403 . S
C2472 C2471 1.403 . S
C2472 C2473 1.404 . S
C2472 C2475 1.539 . S
C2473 C2469 1.408 . S
C2473 C2472 1.404 . S
C2473 H2485 0.930 . S
C2474 C2470 1.524 . S
C2474 H2486 0.956 . S
C2474 H2487 0.961 . S
C2474 H2488 0.961 . S
C2475 C2472 1.539 . S
C2475 H2489 0.958 . S
C2475 H2490 0.961 . S
C2475 H2491 0.960 . S
H2476 C2460 0.931 . S
H2477 C2465 0.929 1_554 S
H2478 C2466 0.960 . S
H2479 C2466 0.962 . S
H2480 C2466 0.960 . S
H2481 C2467 0.961 . S
H2482 C2467 0.961 1_556 S
H2483 C2467 0.961 . S
H2484 C2468 0.931 . S
H2485 C2473 0.930 . S
H2486 C2474 0.956 . S
H2487 C2474 0.961 . S
H2488 C2474 0.961 . S
H2489 C2475 0.958 . S
H2490 C2475 0.961 . S
H2491 C2475 0.960 . S
C2492 C2493 1.391 . S
C2492 C2494 1.394 . S
C2492 H2508 0.931 . S
C2493 C2492 1.391 . S
C2493 C2497 1.376 . S
C2494 C2492 1.394 . S
C2494 C2495 1.369 . S
C2494 C2498 1.531 . S
C2495 C2494 1.369 . S
C2495 C2496 1.410 . S
C2495 C2503 1.503 . S
C2496 C2495 1.410 . S
C2496 C2497 1.392 . S
C2496 C2499 1.511 . S
C2497 C2493 1.376 . S
C2497 C2496 1.392 . S
C2497 H2509 0.929 . S
C2498 C2494 1.531 . S
C2498 H2510 0.960 . S
C2498 H2511 0.962 . S
C2498 H2512 0.960 . S
C2499 C2496 1.511 . S
C2499 H2513 0.961 . S
C2499 H2514 0.961 . S
C2499 H2515 0.961 . S
C2500 C2501 1.370 . S
C2500 C2502 1.363 . S
C2500 H2516 0.931 . S
C2501 C2500 1.370 . S
C2501 C2505 1.408 . S
C2502 C2500 1.363 . S
C2502 C2503 1.370 . S
C2502 C2506 1.524 . S
C2503 C2495 1.503 . S
C2503 C2502 1.370 . S
C2503 C2504 1.403 . S
C2504 C2503 1.403 . S
C2504 C2505 1.404 . S
C2504 C2507 1.539 . S
C2505 C2501 1.408 . S
C2505 C2504 1.404 . S
C2505 H2517 0.930 . S
C2506 C2502 1.524 . S
C2506 H2518 0.956 . S
C2506 H2519 0.961 . S
C2506 H2520 0.961 . S
C2507 C2504 1.539 . S
C2507 H2521 0.958 . S
C2507 H2522 0.961 . S
C2507 H2523 0.960 . S
H2508 C2492 0.931 . S
H2509 C2497 0.929 . S
H2510 C2498 0.960 . S
H2511 C2498 0.962 . S
H2512 C2498 0.960 . S
H2513 C2499 0.961 . S
H2514 C2499 0.961 . S
H2515 C2499 0.961 . S
H2516 C2500 0.931 . S
H2517 C2505 0.930 . S
H2518 C2506 0.956 . S
H2519 C2506 0.961 . S
H2520 C2506 0.961 . S
H2521 C2507 0.958 . S
H2522 C2507 0.961 . S
H2523 C2507 0.960 . S
C2524 C2525 1.391 . S
C2524 C2526 1.394 . S
C2524 H2540 0.931 . S
C2525 C2524 1.391 . S
C2525 C2529 1.376 1_556 S
C2526 C2524 1.394 . S
C2526 C2527 1.369 . S
C2526 C2530 1.531 . S
C2527 C2526 1.369 . S
C2527 C2528 1.410 . S
C2527 C2535 1.503 . S
C2528 C2527 1.410 . S
C2528 C2529 1.392 1_556 S
C2528 C2531 1.511 1_556 S
C2529 C2525 1.376 1_554 S
C2529 C2528 1.392 1_554 S
C2529 H2541 0.929 . S
C2530 C2526 1.531 . S
C2530 H2542 0.960 . S
C2530 H2543 0.962 . S
C2530 H2544 0.960 . S
C2531 C2528 1.511 1_554 S
C2531 H2545 0.961 . S
C2531 H2546 0.961 1_554 S
C2531 H2547 0.961 . S
C2532 C2533 1.370 . S
C2532 C2534 1.363 . S
C2532 H2548 0.931 . S
C2533 C2532 1.370 . S
C2533 C2537 1.408 . S
C2534 C2532 1.363 . S
C2534 C2535 1.370 . S
C2534 C2538 1.524 . S
C2535 C2527 1.503 . S
C2535 C2534 1.370 . S
C2535 C2536 1.403 . S
C2536 C2535 1.403 . S
C2536 C2537 1.404 . S
C2536 C2539 1.539 . S
C2537 C2533 1.408 . S
C2537 C2536 1.404 . S
C2537 H2549 0.930 . S
C2538 C2534 1.524 . S
C2538 H2550 0.956 . S
C2538 H2551 0.961 . S
C2538 H2552 0.961 . S
C2539 C2536 1.539 . S
C2539 H2553 0.958 . S
C2539 H2554 0.961 . S
C2539 H2555 0.960 . S
H2540 C2524 0.931 . S
H2541 C2529 0.929 . S
H2542 C2530 0.960 . S
H2543 C2530 0.962 . S
H2544 C2530 0.960 . S
H2545 C2531 0.961 . S
H2546 C2531 0.961 1_556 S
H2547 C2531 0.961 . S
H2548 C2532 0.931 . S
H2549 C2537 0.930 . S
H2550 C2538 0.956 . S
H2551 C2538 0.961 . S
H2552 C2538 0.961 . S
H2553 C2539 0.958 . S
H2554 C2539 0.961 . S
H2555 C2539 0.960 . S
C2556 C2557 1.391 . S
C2556 C2558 1.394 . S
C2556 H2572 0.931 . S
C2557 C2556 1.391 . S
C2557 C2561 1.376 . S
C2558 C2556 1.394 . S
C2558 C2559 1.369 . S
C2558 C2562 1.531 . S
C2559 C2558 1.369 . S
C2559 C2560 1.410 . S
C2559 C2567 1.503 . S
C2560 C2559 1.410 . S
C2560 C2561 1.392 . S
C2560 C2563 1.511 . S
C2561 C2557 1.376 . S
C2561 C2560 1.392 . S
C2561 H2573 0.929 . S
C2562 C2558 1.531 . S
C2562 H2574 0.960 . S
C2562 H2575 0.962 . S
C2562 H2576 0.960 . S
C2563 C2560 1.511 . S
C2563 H2577 0.961 . S
C2563 H2578 0.961 . S
C2563 H2579 0.961 . S
C2564 C2565 1.370 . S
C2564 C2566 1.363 . S
C2564 H2580 0.931 . S
C2565 C2564 1.370 . S
C2565 C2569 1.408 . S
C2566 C2564 1.363 . S
C2566 C2567 1.370 . S
C2566 C2570 1.524 . S
C2567 C2559 1.503 . S
C2567 C2566 1.370 . S
C2567 C2568 1.403 . S
C2568 C2567 1.403 . S
C2568 C2569 1.404 . S
C2568 C2571 1.539 . S
C2569 C2565 1.408 . S
C2569 C2568 1.404 . S
C2569 H2581 0.930 . S
C2570 C2566 1.524 . S
C2570 H2582 0.956 . S
C2570 H2583 0.961 . S
C2570 H2584 0.961 . S
C2571 C2568 1.539 . S
C2571 H2585 0.958 . S
C2571 H2586 0.961 . S
C2571 H2587 0.960 . S
H2572 C2556 0.931 . S
H2573 C2561 0.929 . S
H2574 C2562 0.960 . S
H2575 C2562 0.962 . S
H2576 C2562 0.960 . S
H2577 C2563 0.961 . S
H2578 C2563 0.961 . S
H2579 C2563 0.961 . S
H2580 C2564 0.931 . S
H2581 C2569 0.930 . S
H2582 C2570 0.956 . S
H2583 C2570 0.961 . S
H2584 C2570 0.961 . S
H2585 C2571 0.958 . S
H2586 C2571 0.961 . S
H2587 C2571 0.960 . S
C2588 C2589 1.391 . S
C2588 C2590 1.394 . S
C2588 H2604 0.931 . S
C2589 C2588 1.391 . S
C2589 C2593 1.376 . S
C2590 C2588 1.394 . S
C2590 C2591 1.369 . S
C2590 C2594 1.531 . S
C2591 C2590 1.369 . S
C2591 C2592 1.410 . S
C2591 C2599 1.503 . S
C2592 C2591 1.410 . S
C2592 C2593 1.392 . S
C2592 C2595 1.511 . S
C2593 C2589 1.376 . S
C2593 C2592 1.392 . S
C2593 H2605 0.929 . S
C2594 C2590 1.531 . S
C2594 H2606 0.960 . S
C2594 H2607 0.962 . S
C2594 H2608 0.960 . S
C2595 C2592 1.511 . S
C2595 H2609 0.961 . S
C2595 H2610 0.961 . S
C2595 H2611 0.961 . S
C2596 C2597 1.370 . S
C2596 C2598 1.363 . S
C2596 H2612 0.931 . S
C2597 C2596 1.370 . S
C2597 C2601 1.408 . S
C2598 C2596 1.363 . S
C2598 C2599 1.370 . S
C2598 C2602 1.524 . S
C2599 C2591 1.503 . S
C2599 C2598 1.370 . S
C2599 C2600 1.403 . S
C2600 C2599 1.403 . S
C2600 C2601 1.404 . S
C2600 C2603 1.539 . S
C2601 C2597 1.408 . S
C2601 C2600 1.404 . S
C2601 H2613 0.930 . S
C2602 C2598 1.524 . S
C2602 H2614 0.956 . S
C2602 H2615 0.961 . S
C2602 H2616 0.961 . S
C2603 C2600 1.539 . S
C2603 H2617 0.958 . S
C2603 H2618 0.961 . S
C2603 H2619 0.960 . S
H2604 C2588 0.931 . S
H2605 C2593 0.929 . S
H2606 C2594 0.960 . S
H2607 C2594 0.962 . S
H2608 C2594 0.960 . S
H2609 C2595 0.961 . S
H2610 C2595 0.961 . S
H2611 C2595 0.961 . S
H2612 C2596 0.931 . S
H2613 C2601 0.930 . S
H2614 C2602 0.956 . S
H2615 C2602 0.961 . S
H2616 C2602 0.961 . S
H2617 C2603 0.958 . S
H2618 C2603 0.961 . S
H2619 C2603 0.960 . S
C2620 C2621 1.391 . S
C2620 C2622 1.394 . S
C2620 H2636 0.931 . S
C2621 C2620 1.391 . S
C2621 C2625 1.376 . S
C2622 C2620 1.394 . S
C2622 C2623 1.369 . S
C2622 C2626 1.531 . S
C2623 C2622 1.369 . S
C2623 C2624 1.410 . S
C2623 C2631 1.503 . S
C2624 C2623 1.410 . S
C2624 C2625 1.392 . S
C2624 C2627 1.511 . S
C2625 C2621 1.376 . S
C2625 C2624 1.392 . S
C2625 H2637 0.929 . S
C2626 C2622 1.531 . S
C2626 H2638 0.960 . S
C2626 H2639 0.962 . S
C2626 H2640 0.960 . S
C2627 C2624 1.511 . S
C2627 H2641 0.961 . S
C2627 H2642 0.961 . S
C2627 H2643 0.961 . S
C2628 C2629 1.370 . S
C2628 C2630 1.363 . S
C2628 H2644 0.931 . S
C2629 C2628 1.370 . S
C2629 C2633 1.408 . S
C2630 C2628 1.363 . S
C2630 C2631 1.370 . S
C2630 C2634 1.524 . S
C2631 C2623 1.503 . S
C2631 C2630 1.370 . S
C2631 C2632 1.403 . S
C2632 C2631 1.403 . S
C2632 C2633 1.404 . S
C2632 C2635 1.539 . S
C2633 C2629 1.408 . S
C2633 C2632 1.404 . S
C2633 H2645 0.930 . S
C2634 C2630 1.524 . S
C2634 H2646 0.956 . S
C2634 H2647 0.961 . S
C2634 H2648 0.961 . S
C2635 C2632 1.539 . S
C2635 H2649 0.958 . S
C2635 H2650 0.961 . S
C2635 H2651 0.960 . S
H2636 C2620 0.931 . S
H2637 C2625 0.929 . S
H2638 C2626 0.960 . S
H2639 C2626 0.962 . S
H2640 C2626 0.960 . S
H2641 C2627 0.961 . S
H2642 C2627 0.961 . S
H2643 C2627 0.961 . S
H2644 C2628 0.931 . S
H2645 C2633 0.930 . S
H2646 C2634 0.956 . S
H2647 C2634 0.961 . S
H2648 C2634 0.961 . S
H2649 C2635 0.958 . S
H2650 C2635 0.961 . S
H2651 C2635 0.960 . S
C2652 C2653 1.391 . S
C2652 C2654 1.394 . S
C2652 H2668 0.931 . S
C2653 C2652 1.391 . S
C2653 C2657 1.376 . S
C2654 C2652 1.394 . S
C2654 C2655 1.369 . S
C2654 C2658 1.531 . S
C2655 C2654 1.369 . S
C2655 C2656 1.410 . S
C2655 C2663 1.503 . S
C2656 C2655 1.410 . S
C2656 C2657 1.392 . S
C2656 C2659 1.511 . S
C2657 C2653 1.376 . S
C2657 C2656 1.392 . S
C2657 H2669 0.929 . S
C2658 C2654 1.531 . S
C2658 H2670 0.960 . S
C2658 H2671 0.962 . S
C2658 H2672 0.960 . S
C2659 C2656 1.511 . S
C2659 H2673 0.961 . S
C2659 H2674 0.961 . S
C2659 H2675 0.961 . S
C2660 C2661 1.370 . S
C2660 C2662 1.363 . S
C2660 H2676 0.931 . S
C2661 C2660 1.370 . S
C2661 C2665 1.408 . S
C2662 C2660 1.363 . S
C2662 C2663 1.370 . S
C2662 C2666 1.524 . S
C2663 C2655 1.503 . S
C2663 C2662 1.370 . S
C2663 C2664 1.403 . S
C2664 C2663 1.403 . S
C2664 C2665 1.404 . S
C2664 C2667 1.539 . S
C2665 C2661 1.408 . S
C2665 C2664 1.404 . S
C2665 H2677 0.930 . S
C2666 C2662 1.524 . S
C2666 H2678 0.956 . S
C2666 H2679 0.961 . S
C2666 H2680 0.961 . S
C2667 C2664 1.539 . S
C2667 H2681 0.958 . S
C2667 H2682 0.961 . S
C2667 H2683 0.960 . S
H2668 C2652 0.931 . S
H2669 C2657 0.929 . S
H2670 C2658 0.960 . S
H2671 C2658 0.962 . S
H2672 C2658 0.960 . S
H2673 C2659 0.961 . S
H2674 C2659 0.961 . S
H2675 C2659 0.961 . S
H2676 C2660 0.931 . S
H2677 C2665 0.930 . S
H2678 C2666 0.956 . S
H2679 C2666 0.961 . S
H2680 C2666 0.961 . S
H2681 C2667 0.958 . S
H2682 C2667 0.961 . S
H2683 C2667 0.960 . S
C2684 C2685 1.391 . S
C2684 C2686 1.394 . S
C2684 H2700 0.931 . S
C2685 C2684 1.391 . S
C2685 C2689 1.376 . S
C2686 C2684 1.394 . S
C2686 C2687 1.369 . S
C2686 C2690 1.531 . S
C2687 C2686 1.369 . S
C2687 C2688 1.410 . S
C2687 C2695 1.503 . S
C2688 C2687 1.410 . S
C2688 C2689 1.392 . S
C2688 C2691 1.511 . S
C2689 C2685 1.376 . S
C2689 C2688 1.392 . S
C2689 H2701 0.929 . S
C2690 C2686 1.531 . S
C2690 H2702 0.960 . S
C2690 H2703 0.962 . S
C2690 H2704 0.960 . S
C2691 C2688 1.511 . S
C2691 H2705 0.961 . S
C2691 H2706 0.961 . S
C2691 H2707 0.961 . S
C2692 C2693 1.370 . S
C2692 C2694 1.363 . S
C2692 H2708 0.931 . S
C2693 C2692 1.370 . S
C2693 C2697 1.408 . S
C2694 C2692 1.363 . S
C2694 C2695 1.370 . S
C2694 C2698 1.524 . S
C2695 C2687 1.503 . S
C2695 C2694 1.370 . S
C2695 C2696 1.403 . S
C2696 C2695 1.403 . S
C2696 C2697 1.404 . S
C2696 C2699 1.539 . S
C2697 C2693 1.408 . S
C2697 C2696 1.404 . S
C2697 H2709 0.930 . S
C2698 C2694 1.524 . S
C2698 H2710 0.956 . S
C2698 H2711 0.961 . S
C2698 H2712 0.961 . S
C2699 C2696 1.539 . S
C2699 H2713 0.958 . S
C2699 H2714 0.961 . S
C2699 H2715 0.960 . S
H2700 C2684 0.931 . S
H2701 C2689 0.929 . S
H2702 C2690 0.960 . S
H2703 C2690 0.962 . S
H2704 C2690 0.960 . S
H2705 C2691 0.961 . S
H2706 C2691 0.961 . S
H2707 C2691 0.961 . S
H2708 C2692 0.931 . S
H2709 C2697 0.930 . S
H2710 C2698 0.956 . S
H2711 C2698 0.961 . S
H2712 C2698 0.961 . S
H2713 C2699 0.958 . S
H2714 C2699 0.961 . S
H2715 C2699 0.960 . S
C2716 C2717 1.391 . S
C2716 C2718 1.394 . S
C2716 H2732 0.931 . S
C2717 C2716 1.391 . S
C2717 C2721 1.376 . S
C2718 C2716 1.394 . S
C2718 C2719 1.369 . S
C2718 C2722 1.531 . S
C2719 C2718 1.369 . S
C2719 C2720 1.410 . S
C2719 C2727 1.503 . S
C2720 C2719 1.410 . S
C2720 C2721 1.392 . S
C2720 C2723 1.511 . S
C2721 C2717 1.376 . S
C2721 C2720 1.392 . S
C2721 H2733 0.929 . S
C2722 C2718 1.531 . S
C2722 H2734 0.960 . S
C2722 H2735 0.962 . S
C2722 H2736 0.960 . S
C2723 C2720 1.511 . S
C2723 H2737 0.961 . S
C2723 H2738 0.961 . S
C2723 H2739 0.961 . S
C2724 C2725 1.370 . S
C2724 C2726 1.363 . S
C2724 H2740 0.931 . S
C2725 C2724 1.370 . S
C2725 C2729 1.408 . S
C2726 C2724 1.363 . S
C2726 C2727 1.370 . S
C2726 C2730 1.524 . S
C2727 C2719 1.503 . S
C2727 C2726 1.370 . S
C2727 C2728 1.403 . S
C2728 C2727 1.403 . S
C2728 C2729 1.404 . S
C2728 C2731 1.539 . S
C2729 C2725 1.408 . S
C2729 C2728 1.404 . S
C2729 H2741 0.930 . S
C2730 C2726 1.524 . S
C2730 H2742 0.956 . S
C2730 H2743 0.961 . S
C2730 H2744 0.961 . S
C2731 C2728 1.539 . S
C2731 H2745 0.958 . S
C2731 H2746 0.961 . S
C2731 H2747 0.960 . S
H2732 C2716 0.931 . S
H2733 C2721 0.929 . S
H2734 C2722 0.960 . S
H2735 C2722 0.962 . S
H2736 C2722 0.960 . S
H2737 C2723 0.961 . S
H2738 C2723 0.961 . S
H2739 C2723 0.961 . S
H2740 C2724 0.931 . S
H2741 C2729 0.930 . S
H2742 C2730 0.956 . S
H2743 C2730 0.961 . S
H2744 C2730 0.961 . S
H2745 C2731 0.958 . S
H2746 C2731 0.961 . S
H2747 C2731 0.960 . S
C2748 C2749 1.391 . S
C2748 C2750 1.394 . S
C2748 H2764 0.931 . S
C2749 C2748 1.391 . S
C2749 C2753 1.376 . S
C2750 C2748 1.394 . S
C2750 C2751 1.369 . S
C2750 C2754 1.531 . S
C2751 C2750 1.369 . S
C2751 C2752 1.410 . S
C2751 C2759 1.503 . S
C2752 C2751 1.410 . S
C2752 C2753 1.392 . S
C2752 C2755 1.460 1_455 S
C2753 C2749 1.376 . S
C2753 C2752 1.392 . S
C2753 H2765 0.929 . S
C2754 C2750 1.531 . S
C2754 H2766 0.960 . S
C2754 H2767 0.962 . S
C2754 H2768 0.960 . S
C2755 C2752 1.460 1_655 S
C2755 H2769 0.938 1_655 S
C2755 H2770 0.974 1_655 S
C2755 H2771 1.029 . S
C2756 C2757 1.370 . S
C2756 C2758 1.363 . S
C2756 H2772 0.931 . S
C2757 C2756 1.370 . S
C2757 C2761 1.408 1_455 S
C2758 C2756 1.363 . S
C2758 C2759 1.370 . S
C2758 C2762 1.524 . S
C2759 C2751 1.503 . S
C2759 C2758 1.370 . S
C2759 C2760 1.403 1_455 S
C2760 C2759 1.403 1_655 S
C2760 C2761 1.404 . S
C2760 C2763 1.539 . S
C2761 C2757 1.408 1_655 S
C2761 C2760 1.404 . S
C2761 H2773 0.930 . S
C2762 C2758 1.524 . S
C2762 H2774 0.956 . S
C2762 H2775 0.961 . S
C2762 H2776 0.961 . S
C2763 C2760 1.539 . S
C2763 H2777 0.958 . S
C2763 H2778 0.961 . S
C2763 H2779 0.960 . S
H2764 C2748 0.931 . S
H2765 C2753 0.929 . S
H2766 C2754 0.960 . S
H2767 C2754 0.962 . S
H2768 C2754 0.960 . S
H2769 C2755 0.938 1_455 S
H2770 C2755 0.974 1_455 S
H2771 C2755 1.029 . S
H2772 C2756 0.931 . S
H2773 C2761 0.930 . S
H2774 C2762 0.956 . S
H2775 C2762 0.961 . S
H2776 C2762 0.961 . S
H2777 C2763 0.958 . S
H2778 C2763 0.961 . S
H2779 C2763 0.960 . S
C2780 C2781 1.391 . S
C2780 C2782 1.394 . S
C2780 H2796 0.931 . S
C2781 C2780 1.391 . S
C2781 C2785 1.376 . S
C2782 C2780 1.394 . S
C2782 C2783 1.369 . S
C2782 C2786 1.531 . S
C2783 C2782 1.369 . S
C2783 C2784 1.410 . S
C2783 C2791 1.503 . S
C2784 C2783 1.410 . S
C2784 C2785 1.392 . S
C2784 C2787 1.511 . S
C2785 C2781 1.376 . S
C2785 C2784 1.392 . S
C2785 H2797 0.929 . S
C2786 C2782 1.531 . S
C2786 H2798 0.960 . S
C2786 H2799 0.962 . S
C2786 H2800 0.960 . S
C2787 C2784 1.511 . S
C2787 H2801 0.961 . S
C2787 H2802 0.961 . S
C2787 H2803 0.961 . S
C2788 C2789 1.370 . S
C2788 C2790 1.363 . S
C2788 H2804 0.931 . S
C2789 C2788 1.370 . S
C2789 C2793 1.408 . S
C2790 C2788 1.363 . S
C2790 C2791 1.370 . S
C2790 C2794 1.524 . S
C2791 C2783 1.503 . S
C2791 C2790 1.370 . S
C2791 C2792 1.403 . S
C2792 C2791 1.403 . S
C2792 C2793 1.404 . S
C2792 C2795 1.539 . S
C2793 C2789 1.408 . S
C2793 C2792 1.404 . S
C2793 H2805 0.930 . S
C2794 C2790 1.524 . S
C2794 H2806 0.956 . S
C2794 H2807 0.961 . S
C2794 H2808 0.961 . S
C2795 C2792 1.539 . S
C2795 H2809 0.958 . S
C2795 H2810 0.961 . S
C2795 H2811 0.960 . S
H2796 C2780 0.931 . S
H2797 C2785 0.929 . S
H2798 C2786 0.960 . S
H2799 C2786 0.962 . S
H2800 C2786 0.960 . S
H2801 C2787 0.961 . S
H2802 C2787 0.961 . S
H2803 C2787 0.961 . S
H2804 C2788 0.931 . S
H2805 C2793 0.930 . S
H2806 C2794 0.956 . S
H2807 C2794 0.961 . S
H2808 C2794 0.961 . S
H2809 C2795 0.958 . S
H2810 C2795 0.961 . S
H2811 C2795 0.960 . S
C2812 C2813 1.391 . S
C2812 C2814 1.394 . S
C2812 H2828 0.931 . S
C2813 C2812 1.391 . S
C2813 C2817 1.376 . S
C2814 C2812 1.394 . S
C2814 C2815 1.369 . S
C2814 C2818 1.531 . S
C2815 C2814 1.369 . S
C2815 C2816 1.389 1_565 S
C2815 C2823 1.503 . S
C2816 C2815 1.389 1_545 S
C2816 C2817 1.410 1_545 S
C2816 C2819 1.518 . S
C2817 C2813 1.376 . S
C2817 C2816 1.410 1_565 S
C2817 H2829 0.929 1_565 S
C2818 C2814 1.531 . S
C2818 H2830 0.960 . S
C2818 H2831 0.962 . S
C2818 H2832 0.960 . S
C2819 C2816 1.518 . S
C2819 H2833 0.961 . S
C2819 H2834 0.961 . S
C2819 H2835 0.961 . S
C2820 C2821 1.370 . S
C2820 C2822 1.363 . S
C2820 H2836 0.931 . S
C2821 C2820 1.370 . S
C2821 C2825 1.408 1_565 S
C2822 C2820 1.363 . S
C2822 C2823 1.370 . S
C2822 C2826 1.524 . S
C2823 C2815 1.503 . S
C2823 C2822 1.370 . S
C2823 C2824 1.403 1_565 S
C2824 C2823 1.403 1_545 S
C2824 C2825 1.404 . S
C2824 C2827 1.539 . S
C2825 C2821 1.408 1_545 S
C2825 C2824 1.404 . S
C2825 H2837 0.930 . S
C2826 C2822 1.524 . S
C2826 H2838 0.956 . S
C2826 H2839 0.961 . S
C2826 H2840 0.961 . S
C2827 C2824 1.539 . S
C2827 H2841 0.958 . S
C2827 H2842 0.961 . S
C2827 H2843 0.960 . S
H2828 C2812 0.931 . S
H2829 C2817 0.929 1_545 S
H2830 C2818 0.960 . S
H2831 C2818 0.962 . S
H2832 C2818 0.960 . S
H2833 C2819 0.961 . S
H2834 C2819 0.961 . S
H2835 C2819 0.961 . S
H2836 C2820 0.931 . S
H2837 C2825 0.930 . S
H2838 C2826 0.956 . S
H2839 C2826 0.961 . S
H2840 C2826 0.961 . S
H2841 C2827 0.958 . S
H2842 C2827 0.961 . S
H2843 C2827 0.960 . S
C2844 C2845 1.391 . S
C2844 C2846 1.394 . S
C2844 H2860 0.931 . S
C2845 C2844 1.391 . S
C2845 C2849 1.376 . S
C2846 C2844 1.394 . S
C2846 C2847 1.369 . S
C2846 C2850 1.531 . S
C2847 C2846 1.369 . S
C2847 C2848 1.410 . S
C2847 C2855 1.503 . S
C2848 C2847 1.410 . S
C2848 C2849 1.392 . S
C2848 C2851 1.521 . S
C2849 C2845 1.376 . S
C2849 C2848 1.392 . S
C2849 H2861 0.929 . S
C2850 C2846 1.531 . S
C2850 H2862 0.960 . S
C2850 H2863 0.962 . S
C2850 H2864 0.960 . S
C2851 C2848 1.521 . S
C2851 H2865 0.989 . S
C2851 H2866 0.957 . S
C2851 H2867 0.929 1_565 S
C2852 C2853 1.370 . S
C2852 C2854 1.363 . S
C2852 H2868 0.931 . S
C2853 C2852 1.370 . S
C2853 C2857 1.408 1_565 S
C2854 C2852 1.363 . S
C2854 C2855 1.370 . S
C2854 C2858 1.524 . S
C2855 C2847 1.503 . S
C2855 C2854 1.370 . S
C2855 C2856 1.403 1_565 S
C2856 C2855 1.403 1_545 S
C2856 C2857 1.404 . S
C2856 C2859 1.539 . S
C2857 C2853 1.408 1_545 S
C2857 C2856 1.404 . S
C2857 H2869 0.930 . S
C2858 C2854 1.524 . S
C2858 H2870 0.956 . S
C2858 H2871 0.961 . S
C2858 H2872 0.961 . S
C2859 C2856 1.539 . S
C2859 H2873 0.958 . S
C2859 H2874 0.961 . S
C2859 H2875 0.960 . S
H2860 C2844 0.931 . S
H2861 C2849 0.929 . S
H2862 C2850 0.960 . S
H2863 C2850 0.962 . S
H2864 C2850 0.960 . S
H2865 C2851 0.989 . S
H2866 C2851 0.957 . S
H2867 C2851 0.929 1_545 S
H2868 C2852 0.931 . S
H2869 C2857 0.930 . S
H2870 C2858 0.956 . S
H2871 C2858 0.961 . S
H2872 C2858 0.961 . S
H2873 C2859 0.958 . S
H2874 C2859 0.961 . S
H2875 C2859 0.960 . S
C2876 C2877 1.391 . S
C2876 C2878 1.394 . S
C2876 H2892 0.931 . S
C2877 C2876 1.391 . S
C2877 C2881 1.376 . S
C2878 C2876 1.394 . S
C2878 C2879 1.369 . S
C2878 C2882 1.531 . S
C2879 C2878 1.369 . S
C2879 C2880 1.410 . S
C2879 C2887 1.503 . S
C2880 C2879 1.410 . S
C2880 C2881 1.392 . S
C2880 C2883 1.511 . S
C2881 C2877 1.376 . S
C2881 C2880 1.392 . S
C2881 H2893 0.929 . S
C2882 C2878 1.531 . S
C2882 H2894 0.960 . S
C2882 H2895 0.998 . S
C2882 H2896 0.960 . S
C2883 C2880 1.511 . S
C2883 H2897 0.961 . S
C2883 H2898 0.961 . S
C2883 H2899 0.961 . S
C2884 C2885 1.370 1_655 S
C2884 C2886 1.363 . S
C2884 H2900 0.931 . S
C2885 C2884 1.370 1_455 S
C2885 C2889 1.408 . S
C2886 C2884 1.363 . S
C2886 C2887 1.370 1_655 S
C2886 C2890 1.524 . S
C2887 C2879 1.503 . S
C2887 C2886 1.370 1_455 S
C2887 C2888 1.403 . S
C2888 C2887 1.403 . S
C2888 C2889 1.404 . S
C2888 C2891 1.539 . S
C2889 C2885 1.408 . S
C2889 C2888 1.404 . S
C2889 H2901 0.930 . S
C2890 C2886 1.524 . S
C2890 H2902 0.956 . S
C2890 H2903 0.961 . S
C2890 H2904 0.961 . S
C2891 C2888 1.539 . S
C2891 H2905 0.958 . S
C2891 H2906 0.961 . S
C2891 H2907 0.960 . S
H2892 C2876 0.931 . S
H2893 C2881 0.929 . S
H2894 C2882 0.960 . S
H2895 C2882 0.998 . S
H2896 C2882 0.960 . S
H2897 C2883 0.961 . S
H2898 C2883 0.961 . S
H2899 C2883 0.961 . S
H2900 C2884 0.931 . S
H2901 C2889 0.930 . S
H2902 C2890 0.956 . S
H2903 C2890 0.961 . S
H2904 C2890 0.961 . S
H2905 C2891 0.958 . S
H2906 C2891 0.961 . S
H2907 C2891 0.960 . S
C2908 C2909 1.391 . S
C2908 C2910 1.394 . S
C2908 H2924 0.931 . S
C2909 C2908 1.391 . S
C2909 C2913 1.376 . S
C2910 C2908 1.394 . S
C2910 C2911 1.369 . S
C2910 C2914 1.531 . S
C2911 C2910 1.369 . S
C2911 C2912 1.410 . S
C2911 C2919 1.503 . S
C2912 C2911 1.410 . S
C2912 C2913 1.392 . S
C2912 C2915 1.511 . S
C2913 C2909 1.376 . S
C2913 C2912 1.392 . S
C2913 H2925 0.929 . S
C2914 C2910 1.531 . S
C2914 H2926 0.960 . S
C2914 H2927 0.962 . S
C2914 H2928 0.960 . S
C2915 C2912 1.511 . S
C2915 H2929 0.961 . S
C2915 H2930 0.961 . S
C2915 H2931 0.961 . S
C2916 C2917 1.370 . S
C2916 C2918 1.363 . S
C2916 H2932 0.931 . S
C2917 C2916 1.370 . S
C2917 C2921 1.408 . S
C2918 C2916 1.363 . S
C2918 C2919 1.370 . S
C2918 C2922 1.524 . S
C2919 C2911 1.503 . S
C2919 C2918 1.370 . S
C2919 C2920 1.403 . S
C2920 C2919 1.403 . S
C2920 C2921 1.404 . S
C2920 C2923 1.539 . S
C2921 C2917 1.408 . S
C2921 C2920 1.404 . S
C2921 H2933 0.930 . S
C2922 C2918 1.524 . S
C2922 H2934 0.956 . S
C2922 H2935 0.961 . S
C2922 H2936 0.961 . S
C2923 C2920 1.539 . S
C2923 H2937 0.958 . S
C2923 H2938 0.961 . S
C2923 H2939 0.960 . S
H2924 C2908 0.931 . S
H2925 C2913 0.929 . S
H2926 C2914 0.960 . S
H2927 C2914 0.962 . S
H2928 C2914 0.960 . S
H2929 C2915 0.961 . S
H2930 C2915 0.961 . S
H2931 C2915 0.961 . S
H2932 C2916 0.931 . S
H2933 C2921 0.930 . S
H2934 C2922 0.956 . S
H2935 C2922 0.961 . S
H2936 C2922 0.961 . S
H2937 C2923 0.958 . S
H2938 C2923 0.961 . S
H2939 C2923 0.960 . S
C2940 C2941 1.391 . S
C2940 C2942 1.394 . S
C2940 H2956 0.931 . S
C2941 C2940 1.391 . S
C2941 C2945 1.376 . S
C2942 C2940 1.394 . S
C2942 C2943 1.369 . S
C2942 C2946 1.531 . S
C2943 C2942 1.369 . S
C2943 C2944 1.410 . S
C2943 C2951 1.503 . S
C2944 C2943 1.410 . S
C2944 C2945 1.392 . S
C2944 C2947 1.511 . S
C2945 C2941 1.376 . S
C2945 C2944 1.392 . S
C2945 H2957 0.929 . S
C2946 C2942 1.531 . S
C2946 H2958 0.960 . S
C2946 H2959 0.962 . S
C2946 H2960 0.960 . S
C2947 C2944 1.511 . S
C2947 H2961 0.961 . S
C2947 H2962 0.961 . S
C2947 H2963 0.961 . S
C2948 C2949 1.370 . S
C2948 C2950 1.363 . S
C2948 H2964 0.931 . S
C2949 C2948 1.370 . S
C2949 C2953 1.408 . S
C2950 C2948 1.363 . S
C2950 C2951 1.370 . S
C2950 C2954 1.524 . S
C2951 C2943 1.503 . S
C2951 C2950 1.370 . S
C2951 C2952 1.403 . S
C2952 C2951 1.403 . S
C2952 C2953 1.404 . S
C2952 C2955 1.539 . S
C2953 C2949 1.408 . S
C2953 C2952 1.404 . S
C2953 H2965 0.930 . S
C2954 C2950 1.524 . S
C2954 H2966 0.956 . S
C2954 H2967 0.961 . S
C2954 H2968 0.961 . S
C2955 C2952 1.539 . S
C2955 H2969 0.958 . S
C2955 H2970 0.961 . S
C2955 H2971 0.960 . S
H2956 C2940 0.931 . S
H2957 C2945 0.929 . S
H2958 C2946 0.960 . S
H2959 C2946 0.962 . S
H2960 C2946 0.960 . S
H2961 C2947 0.961 . S
H2962 C2947 0.961 . S
H2963 C2947 0.961 . S
H2964 C2948 0.931 . S
H2965 C2953 0.930 . S
H2966 C2954 0.956 . S
H2967 C2954 0.961 . S
H2968 C2954 0.961 . S
H2969 C2955 0.958 . S
H2970 C2955 0.961 . S
H2971 C2955 0.960 . S
C2972 C2973 1.391 . S
C2972 C2974 1.394 . S
C2972 H2988 0.931 . S
C2973 C2972 1.391 . S
C2973 C2977 1.376 . S
C2974 C2972 1.394 . S
C2974 C2975 1.369 . S
C2974 C2978 1.531 . S
C2975 C2974 1.369 . S
C2975 C2976 1.410 . S
C2975 C2983 1.503 . S
C2976 C2975 1.410 . S
C2976 C2977 1.392 . S
C2976 C2979 1.511 . S
C2977 C2973 1.376 . S
C2977 C2976 1.392 . S
C2977 H2989 0.929 . S
C2978 C2974 1.531 . S
C2978 H2990 0.960 . S
C2978 H2991 0.962 . S
C2978 H2992 0.960 . S
C2979 C2976 1.511 . S
C2979 H2993 0.961 . S
C2979 H2994 0.961 . S
C2979 H2995 0.961 . S
C2980 C2981 1.370 . S
C2980 C2982 1.363 . S
C2980 H2996 0.931 . S
C2981 C2980 1.370 . S
C2981 C2985 1.408 . S
C2982 C2980 1.363 . S
C2982 C2983 1.370 . S
C2982 C2986 1.524 . S
C2983 C2975 1.503 . S
C2983 C2982 1.370 . S
C2983 C2984 1.403 . S
C2984 C2983 1.403 . S
C2984 C2985 1.404 . S
C2984 C2987 1.539 . S
C2985 C2981 1.408 . S
C2985 C2984 1.404 . S
C2985 H2997 0.930 . S
C2986 C2982 1.524 . S
C2986 H2998 0.956 . S
C2986 H2999 0.961 . S
C2986 H3000 0.961 . S
C2987 C2984 1.539 . S
C2987 H3001 0.958 . S
C2987 H3002 0.961 . S
C2987 H3003 0.960 . S
H2988 C2972 0.931 . S
H2989 C2977 0.929 . S
H2990 C2978 0.960 . S
H2991 C2978 0.962 . S
H2992 C2978 0.960 . S
H2993 C2979 0.961 . S
H2994 C2979 0.961 . S
H2995 C2979 0.961 . S
H2996 C2980 0.931 . S
H2997 C2985 0.930 . S
H2998 C2986 0.956 . S
H2999 C2986 0.961 . S
H3000 C2986 0.961 . S
H3001 C2987 0.958 . S
H3002 C2987 0.961 . S
H3003 C2987 0.960 . S
C3004 C3005 1.391 . S
C3004 C3006 1.394 . S
C3004 H3020 0.931 . S
C3005 C3004 1.391 . S
C3005 C3009 1.376 . S
C3006 C3004 1.394 . S
C3006 C3007 1.369 . S
C3006 C3010 1.531 . S
C3007 C3006 1.369 . S
C3007 C3008 1.410 . S
C3007 C3015 1.503 . S
C3008 C3007 1.410 . S
C3008 C3009 1.392 . S
C3008 C3011 1.511 . S
C3009 C3005 1.376 . S
C3009 C3008 1.392 . S
C3009 H3021 0.929 . S
C3010 C3006 1.531 . S
C3010 H3022 0.960 . S
C3010 H3023 0.962 . S
C3010 H3024 0.960 . S
C3011 C3008 1.511 . S
C3011 H3025 0.961 . S
C3011 H3026 0.961 . S
C3011 H3027 0.961 . S
C3012 C3013 1.370 . S
C3012 C3014 1.363 . S
C3012 H3028 0.931 . S
C3013 C3012 1.370 . S
C3013 C3017 1.408 . S
C3014 C3012 1.363 . S
C3014 C3015 1.370 . S
C3014 C3018 1.524 . S
C3015 C3007 1.503 . S
C3015 C3014 1.370 . S
C3015 C3016 1.403 . S
C3016 C3015 1.403 . S
C3016 C3017 1.404 . S
C3016 C3019 1.539 . S
C3017 C3013 1.408 . S
C3017 C3016 1.404 . S
C3017 H3029 0.930 . S
C3018 C3014 1.524 . S
C3018 H3030 0.956 . S
C3018 H3031 0.961 . S
C3018 H3032 0.961 . S
C3019 C3016 1.539 . S
C3019 H3033 0.958 . S
C3019 H3034 0.961 . S
C3019 H3035 0.960 . S
H3020 C3004 0.931 . S
H3021 C3009 0.929 . S
H3022 C3010 0.960 . S
H3023 C3010 0.962 . S
H3024 C3010 0.960 . S
H3025 C3011 0.961 . S
H3026 C3011 0.961 . S
H3027 C3011 0.961 . S
H3028 C3012 0.931 . S
H3029 C3017 0.930 . S
H3030 C3018 0.956 . S
H3031 C3018 0.961 . S
H3032 C3018 0.961 . S
H3033 C3019 0.958 . S
H3034 C3019 0.961 . S
H3035 C3019 0.960 . S
C3036 C3037 1.457 . S
C3036 C3038 1.349 1_545 S
C3036 H3052 0.914 1_545 S
C3037 C3036 1.457 . S
C3037 C3041 1.376 . S
C3038 C3036 1.349 1_565 S
C3038 C3039 1.369 1_565 S
C3038 C3042 1.531 . S
C3039 C3038 1.369 1_545 S
C3039 C3040 1.410 . S
C3039 C3047 1.503 . S
C3040 C3039 1.410 . S
C3040 C3041 1.392 . S
C3040 C3043 1.511 . S
C3041 C3037 1.376 . S
C3041 C3040 1.392 . S
C3041 H3053 0.929 . S
C3042 C3038 1.531 . S
C3042 H3054 0.960 . S
C3042 H3055 0.962 . S
C3042 H3056 0.960 . S
C3043 C3040 1.511 . S
C3043 H3057 0.961 . S
C3043 H3058 0.961 . S
C3043 H3059 0.961 . S
C3044 C3045 1.370 . S
C3044 C3046 1.363 . S
C3044 H3060 0.931 . S
C3045 C3044 1.370 . S
C3045 C3049 1.408 1_545 S
C3046 C3044 1.363 . S
C3046 C3047 1.370 . S
C3046 C3050 1.524 . S
C3047 C3039 1.503 . S
C3047 C3046 1.370 . S
C3047 C3048 1.405 . S
C3048 C3047 1.405 . S
C3048 C3049 1.402 1_545 S
C3048 C3051 1.539 1_545 S
C3049 C3045 1.408 1_565 S
C3049 C3048 1.402 1_565 S
C3049 H3061 0.930 . S
C3050 C3046 1.524 . S
C3050 H3062 0.956 . S
C3050 H3063 0.961 . S
C3050 H3064 0.961 . S
C3051 C3048 1.539 1_565 S
C3051 H3065 0.958 . S
C3051 H3066 0.961 . S
C3051 H3067 0.960 1_565 S
H3052 C3036 0.914 1_565 S
H3053 C3041 0.929 . S
H3054 C3042 0.960 . S
H3055 C3042 0.962 . S
H3056 C3042 0.960 . S
H3057 C3043 0.961 . S
H3058 C3043 0.961 . S
H3059 C3043 0.961 . S
H3060 C3044 0.931 . S
H3061 C3049 0.930 . S
H3062 C3050 0.956 . S
H3063 C3050 0.961 . S
H3064 C3050 0.961 . S
H3065 C3051 0.958 . S
H3066 C3051 0.961 . S
H3067 C3051 0.960 1_545 S
C3068 C3069 1.391 . S
C3068 C3070 1.394 . S
C3068 H3084 0.931 . S
C3069 C3068 1.391 . S
C3069 C3073 1.376 . S
C3070 C3068 1.394 . S
C3070 C3071 1.369 . S
C3070 C3074 1.534 . S
C3071 C3070 1.369 . S
C3071 C3072 1.410 . S
C3071 C3079 1.503 . S
C3072 C3071 1.410 . S
C3072 C3073 1.392 . S
C3072 C3075 1.511 . S
C3073 C3069 1.376 . S
C3073 C3072 1.392 . S
C3073 H3085 0.929 . S
C3074 C3070 1.534 . S
C3074 H3086 0.958 1_655 S
C3074 H3087 0.976 . S
C3074 H3088 0.945 1_655 S
C3075 C3072 1.511 . S
C3075 H3089 0.961 . S
C3075 H3090 0.961 . S
C3075 H3091 0.926 1_655 S
C3076 C3077 1.370 . S
C3076 C3078 1.363 . S
C3076 H3092 0.931 . S
C3077 C3076 1.370 . S
C3077 C3081 1.408 1_655 S
C3078 C3076 1.363 . S
C3078 C3079 1.370 . S
C3078 C3082 1.524 . S
C3079 C3071 1.503 . S
C3079 C3078 1.370 . S
C3079 C3080 1.403 1_655 S
C3080 C3079 1.403 1_455 S
C3080 C3081 1.404 . S
C3080 C3083 1.539 . S
C3081 C3077 1.408 1_455 S
C3081 C3080 1.404 . S
C3081 H3093 0.930 . S
C3082 C3078 1.524 . S
C3082 H3094 0.956 . S
C3082 H3095 0.961 . S
C3082 H3096 0.961 . S
C3083 C3080 1.539 . S
C3083 H3097 0.958 . S
C3083 H3098 0.961 . S
C3083 H3099 0.960 . S
H3084 C3068 0.931 . S
H3085 C3073 0.929 . S
H3086 C3074 0.958 1_455 S
H3087 C3074 0.976 . S
H3088 C3074 0.945 1_455 S
H3089 C3075 0.961 . S
H3090 C3075 0.961 . S
H3091 C3075 0.926 1_455 S
H3092 C3076 0.931 . S
H3093 C3081 0.930 . S
H3094 C3082 0.956 . S
H3095 C3082 0.961 . S
H3096 C3082 0.961 . S
H3097 C3083 0.958 . S
H3098 C3083 0.961 . S
H3099 C3083 0.960 . S
C3100 C3101 1.391 . S
C3100 C3102 1.394 . S
C3100 H3116 0.931 . S
C3101 C3100 1.391 . S
C3101 C3105 1.376 . S
C3102 C3100 1.394 . S
C3102 C3103 1.369 . S
C3102 C3106 1.531 . S
C3103 C3102 1.369 . S
C3103 C3104 1.410 . S
C3103 C3111 1.503 . S
C3104 C3103 1.410 . S
C3104 C3105 1.392 . S
C3104 C3107 1.511 . S
C3105 C3101 1.376 . S
C3105 C3104 1.392 . S
C3105 H3117 0.929 . S
C3106 C3102 1.531 . S
C3106 H3118 0.960 . S
C3106 H3119 0.962 . S
C3106 H3120 0.960 . S
C3107 C3104 1.511 . S
C3107 H3121 0.961 . S
C3107 H3122 0.961 . S
C3107 H3123 0.961 . S
C3108 C3109 1.370 . S
C3108 C3110 1.363 . S
C3108 H3124 0.931 . S
C3109 C3108 1.370 . S
C3109 C3113 1.408 . S
C3110 C3108 1.363 . S
C3110 C3111 1.370 . S
C3110 C3114 1.524 . S
C3111 C3103 1.503 . S
C3111 C3110 1.370 . S
C3111 C3112 1.403 . S
C3112 C3111 1.403 . S
C3112 C3113 1.404 . S
C3112 C3115 1.539 . S
C3113 C3109 1.408 . S
C3113 C3112 1.404 . S
C3113 H3125 0.930 . S
C3114 C3110 1.524 . S
C3114 H3126 0.956 . S
C3114 H3127 0.961 . S
C3114 H3128 0.961 . S
C3115 C3112 1.539 . S
C3115 H3129 0.958 . S
C3115 H3130 0.961 . S
C3115 H3131 0.960 . S
H3116 C3100 0.931 . S
H3117 C3105 0.929 . S
H3118 C3106 0.960 . S
H3119 C3106 0.962 . S
H3120 C3106 0.960 . S
H3121 C3107 0.961 . S
H3122 C3107 0.961 . S
H3123 C3107 0.961 . S
H3124 C3108 0.931 . S
H3125 C3113 0.930 . S
H3126 C3114 0.956 . S
H3127 C3114 0.961 . S
H3128 C3114 0.961 . S
H3129 C3115 0.958 . S
H3130 C3115 0.961 . S
H3131 C3115 0.960 . S
C3132 C3133 1.391 . S
C3132 C3134 1.394 . S
C3132 H3148 0.931 . S
C3133 C3132 1.391 . S
C3133 C3137 1.376 . S
C3134 C3132 1.394 . S
C3134 C3135 1.369 . S
C3134 C3138 1.531 . S
C3135 C3134 1.369 . S
C3135 C3136 1.410 . S
C3135 C3143 1.503 . S
C3136 C3135 1.410 . S
C3136 C3137 1.392 . S
C3136 C3139 1.511 . S
C3137 C3133 1.376 . S
C3137 C3136 1.392 . S
C3137 H3149 0.929 . S
C3138 C3134 1.531 . S
C3138 H3150 0.960 . S
C3138 H3151 0.962 . S
C3138 H3152 0.960 . S
C3139 C3136 1.511 . S
C3139 H3153 0.961 . S
C3139 H3154 0.961 . S
C3139 H3155 0.961 . S
C3140 C3141 1.370 . S
C3140 C3142 1.363 . S
C3140 H3156 0.931 . S
C3141 C3140 1.370 . S
C3141 C3145 1.408 . S
C3142 C3140 1.363 . S
C3142 C3143 1.370 . S
C3142 C3146 1.524 . S
C3143 C3135 1.503 . S
C3143 C3142 1.370 . S
C3143 C3144 1.403 . S
C3144 C3143 1.403 . S
C3144 C3145 1.404 . S
C3144 C3147 1.539 . S
C3145 C3141 1.408 . S
C3145 C3144 1.404 . S
C3145 H3157 0.930 . S
C3146 C3142 1.524 . S
C3146 H3158 0.956 . S
C3146 H3159 0.961 . S
C3146 H3160 0.961 . S
C3147 C3144 1.539 . S
C3147 H3161 0.958 . S
C3147 H3162 0.961 . S
C3147 H3163 0.960 . S
H3148 C3132 0.931 . S
H3149 C3137 0.929 . S
H3150 C3138 0.960 . S
H3151 C3138 0.962 . S
H3152 C3138 0.960 . S
H3153 C3139 0.961 . S
H3154 C3139 0.961 . S
H3155 C3139 0.961 . S
H3156 C3140 0.931 . S
H3157 C3145 0.930 . S
H3158 C3146 0.956 . S
H3159 C3146 0.961 . S
H3160 C3146 0.961 . S
H3161 C3147 0.958 . S
H3162 C3147 0.961 . S
H3163 C3147 0.960 . S
C3164 C3165 1.391 . S
C3164 C3166 1.394 . S
C3164 H3180 0.931 . S
C3165 C3164 1.391 . S
C3165 C3169 1.376 . S
C3166 C3164 1.394 . S
C3166 C3167 1.369 . S
C3166 C3170 1.531 . S
C3167 C3166 1.369 . S
C3167 C3168 1.410 . S
C3167 C3175 1.503 . S
C3168 C3167 1.410 . S
C3168 C3169 1.392 . S
C3168 C3171 1.511 . S
C3169 C3165 1.376 . S
C3169 C3168 1.392 . S
C3169 H3181 0.929 . S
C3170 C3166 1.531 . S
C3170 H3182 0.960 . S
C3170 H3183 0.962 . S
C3170 H3184 0.960 . S
C3171 C3168 1.511 . S
C3171 H3185 0.961 . S
C3171 H3186 0.961 . S
C3171 H3187 0.961 . S
C3172 C3173 1.370 . S
C3172 C3174 1.363 . S
C3172 H3188 0.931 . S
C3173 C3172 1.370 . S
C3173 C3177 1.408 . S
C3174 C3172 1.363 . S
C3174 C3175 1.370 . S
C3174 C3178 1.524 . S
C3175 C3167 1.503 . S
C3175 C3174 1.370 . S
C3175 C3176 1.403 . S
C3176 C3175 1.403 . S
C3176 C3177 1.404 . S
C3176 C3179 1.539 . S
C3177 C3173 1.408 . S
C3177 C3176 1.404 . S
C3177 H3189 0.930 . S
C3178 C3174 1.524 . S
C3178 H3190 0.956 . S
C3178 H3191 0.961 . S
C3178 H3192 0.961 . S
C3179 C3176 1.539 . S
C3179 H3193 0.958 . S
C3179 H3194 0.961 . S
C3179 H3195 0.960 . S
H3180 C3164 0.931 . S
H3181 C3169 0.929 . S
H3182 C3170 0.960 . S
H3183 C3170 0.962 . S
H3184 C3170 0.960 . S
H3185 C3171 0.961 . S
H3186 C3171 0.961 . S
H3187 C3171 0.961 . S
H3188 C3172 0.931 . S
H3189 C3177 0.930 . S
H3190 C3178 0.956 . S
H3191 C3178 0.961 . S
H3192 C3178 0.961 . S
H3193 C3179 0.958 . S
H3194 C3179 0.961 . S
H3195 C3179 0.960 . S
C3196 C3197 1.391 . S
C3196 C3198 1.394 . S
C3196 H3212 0.931 . S
C3197 C3196 1.391 . S
C3197 C3201 1.376 . S
C3198 C3196 1.394 . S
C3198 C3199 1.369 . S
C3198 C3202 1.531 . S
C3199 C3198 1.369 . S
C3199 C3200 1.410 . S
C3199 C3207 1.503 . S
C3200 C3199 1.410 . S
C3200 C3201 1.392 . S
C3200 C3203 1.511 . S
C3201 C3197 1.376 . S
C3201 C3200 1.392 . S
C3201 H3213 0.929 . S
C3202 C3198 1.531 . S
C3202 H3214 0.960 . S
C3202 H3215 0.962 . S
C3202 H3216 0.960 . S
C3203 C3200 1.511 . S
C3203 H3217 0.961 . S
C3203 H3218 0.961 . S
C3203 H3219 0.961 . S
C3204 C3205 1.370 . S
C3204 C3206 1.363 . S
C3204 H3220 0.931 . S
C3205 C3204 1.370 . S
C3205 C3209 1.408 . S
C3206 C3204 1.363 . S
C3206 C3207 1.370 . S
C3206 C3210 1.524 . S
C3207 C3199 1.503 . S
C3207 C3206 1.370 . S
C3207 C3208 1.403 . S
C3208 C3207 1.403 . S
C3208 C3209 1.404 . S
C3208 C3211 1.539 . S
C3209 C3205 1.408 . S
C3209 C3208 1.404 . S
C3209 H3221 0.930 . S
C3210 C3206 1.524 . S
C3210 H3222 0.956 . S
C3210 H3223 0.961 . S
C3210 H3224 0.961 . S
C3211 C3208 1.539 . S
C3211 H3225 0.958 . S
C3211 H3226 0.961 . S
C3211 H3227 0.960 . S
H3212 C3196 0.931 . S
H3213 C3201 0.929 . S
H3214 C3202 0.960 . S
H3215 C3202 0.962 . S
H3216 C3202 0.960 . S
H3217 C3203 0.961 . S
H3218 C3203 0.961 . S
H3219 C3203 0.961 . S
H3220 C3204 0.931 . S
H3221 C3209 0.930 . S
H3222 C3210 0.956 . S
H3223 C3210 0.961 . S
H3224 C3210 0.961 . S
H3225 C3211 0.958 . S
H3226 C3211 0.961 . S
H3227 C3211 0.960 . S
C3228 C3229 1.391 . S
C3228 C3230 1.394 . S
C3228 H3244 0.931 . S
C3229 C3228 1.391 . S
C3229 C3233 1.376 . S
C3230 C3228 1.394 . S
C3230 C3231 1.369 . S
C3230 C3234 1.531 . S
C3231 C3230 1.369 . S
C3231 C3232 1.410 . S
C3231 C3239 1.503 . S
C3232 C3231 1.410 . S
C3232 C3233 1.392 . S
C3232 C3235 1.511 . S
C3233 C3229 1.376 . S
C3233 C3232 1.392 . S
C3233 H3245 0.929 . S
C3234 C3230 1.531 . S
C3234 H3246 0.960 . S
C3234 H3247 0.962 . S
C3234 H3248 0.960 . S
C3235 C3232 1.511 . S
C3235 H3249 0.961 . S
C3235 H3250 0.961 . S
C3235 H3251 0.961 . S
C3236 C3237 1.370 . S
C3236 C3238 1.363 . S
C3236 H3252 0.931 . S
C3237 C3236 1.370 . S
C3237 C3241 1.408 . S
C3238 C3236 1.363 . S
C3238 C3239 1.370 . S
C3238 C3242 1.524 . S
C3239 C3231 1.503 . S
C3239 C3238 1.370 . S
C3239 C3240 1.403 . S
C3240 C3239 1.403 . S
C3240 C3241 1.404 . S
C3240 C3243 1.539 . S
C3241 C3237 1.408 . S
C3241 C3240 1.404 . S
C3241 H3253 0.930 . S
C3242 C3238 1.524 . S
C3242 H3254 0.956 . S
C3242 H3255 0.961 . S
C3242 H3256 0.961 . S
C3243 C3240 1.539 . S
C3243 H3257 0.958 . S
C3243 H3258 0.961 . S
C3243 H3259 0.960 . S
H3244 C3228 0.931 . S
H3245 C3233 0.929 . S
H3246 C3234 0.960 . S
H3247 C3234 0.962 . S
H3248 C3234 0.960 . S
H3249 C3235 0.961 . S
H3250 C3235 0.961 . S
H3251 C3235 0.961 . S
H3252 C3236 0.931 . S
H3253 C3241 0.930 . S
H3254 C3242 0.956 . S
H3255 C3242 0.961 . S
H3256 C3242 0.961 . S
H3257 C3243 0.958 . S
H3258 C3243 0.961 . S
H3259 C3243 0.960 . S
C3260 C3261 1.391 . S
C3260 C3262 1.394 . S
C3260 H3276 0.931 . S
C3261 C3260 1.391 . S
C3261 C3265 1.376 . S
C3262 C3260 1.394 . S
C3262 C3263 1.369 . S
C3262 C3266 1.531 . S
C3263 C3262 1.369 . S
C3263 C3264 1.410 . S
C3263 C3271 1.503 . S
C3264 C3263 1.410 . S
C3264 C3265 1.392 . S
C3264 C3267 1.511 . S
C3265 C3261 1.376 . S
C3265 C3264 1.392 . S
C3265 H3277 0.929 . S
C3266 C3262 1.531 . S
C3266 H3278 0.960 . S
C3266 H3279 0.962 . S
C3266 H3280 0.960 . S
C3267 C3264 1.511 . S
C3267 H3281 0.961 . S
C3267 H3282 0.961 . S
C3267 H3283 0.961 . S
C3268 C3269 1.370 . S
C3268 C3270 1.363 . S
C3268 H3284 0.931 . S
C3269 C3268 1.370 . S
C3269 C3273 1.408 . S
C3270 C3268 1.363 . S
C3270 C3271 1.370 . S
C3270 C3274 1.524 . S
C3271 C3263 1.503 . S
C3271 C3270 1.370 . S
C3271 C3272 1.403 . S
C3272 C3271 1.403 . S
C3272 C3273 1.404 . S
C3272 C3275 1.539 . S
C3273 C3269 1.408 . S
C3273 C3272 1.404 . S
C3273 H3285 0.930 . S
C3274 C3270 1.524 . S
C3274 H3286 0.956 . S
C3274 H3287 0.961 . S
C3274 H3288 0.961 . S
C3275 C3272 1.539 . S
C3275 H3289 0.958 . S
C3275 H3290 0.961 . S
C3275 H3291 0.960 . S
H3276 C3260 0.931 . S
H3277 C3265 0.929 . S
H3278 C3266 0.960 . S
H3279 C3266 0.962 . S
H3280 C3266 0.960 . S
H3281 C3267 0.961 . S
H3282 C3267 0.961 . S
H3283 C3267 0.961 . S
H3284 C3268 0.931 . S
H3285 C3273 0.930 . S
H3286 C3274 0.956 . S
H3287 C3274 0.961 . S
H3288 C3274 0.961 . S
H3289 C3275 0.958 . S
H3290 C3275 0.961 . S
H3291 C3275 0.960 . S
C3292 C3293 1.391 . S
C3292 C3294 1.394 . S
C3292 H3308 0.931 . S
C3293 C3292 1.391 . S
C3293 C3297 1.376 . S
C3294 C3292 1.394 . S
C3294 C3295 1.369 . S
C3294 C3298 1.531 . S
C3295 C3294 1.369 . S
C3295 C3296 1.410 . S
C3295 C3303 1.503 . S
C3296 C3295 1.410 . S
C3296 C3297 1.392 . S
C3296 C3299 1.511 . S
C3297 C3293 1.376 . S
C3297 C3296 1.392 . S
C3297 H3309 0.929 . S
C3298 C3294 1.531 . S
C3298 H3310 0.960 . S
C3298 H3311 0.962 . S
C3298 H3312 0.960 . S
C3299 C3296 1.511 . S
C3299 H3313 0.961 . S
C3299 H3314 0.961 . S
C3299 H3315 0.961 . S
C3300 C3301 1.370 . S
C3300 C3302 1.363 . S
C3300 H3316 0.931 . S
C3301 C3300 1.370 . S
C3301 C3305 1.408 . S
C3302 C3300 1.363 . S
C3302 C3303 1.370 . S
C3302 C3306 1.524 . S
C3303 C3295 1.503 . S
C3303 C3302 1.370 . S
C3303 C3304 1.403 . S
C3304 C3303 1.403 . S
C3304 C3305 1.404 . S
C3304 C3307 1.539 . S
C3305 C3301 1.408 . S
C3305 C3304 1.404 . S
C3305 H3317 0.930 . S
C3306 C3302 1.524 . S
C3306 H3318 0.956 . S
C3306 H3319 0.961 . S
C3306 H3320 0.961 . S
C3307 C3304 1.539 . S
C3307 H3321 0.958 . S
C3307 H3322 0.961 . S
C3307 H3323 0.960 . S
H3308 C3292 0.931 . S
H3309 C3297 0.929 . S
H3310 C3298 0.960 . S
H3311 C3298 0.962 . S
H3312 C3298 0.960 . S
H3313 C3299 0.961 . S
H3314 C3299 0.961 . S
H3315 C3299 0.961 . S
H3316 C3300 0.931 . S
H3317 C3305 0.930 . S
H3318 C3306 0.956 . S
H3319 C3306 0.961 . S
H3320 C3306 0.961 . S
H3321 C3307 0.958 . S
H3322 C3307 0.961 . S
H3323 C3307 0.960 . S
C3324 C3325 1.391 1_455 S
C3324 C3326 1.394 . S
C3324 H3340 0.931 . S
C3325 C3324 1.391 1_655 S
C3325 C3329 1.376 . S
C3326 C3324 1.394 . S
C3326 C3327 1.369 1_455 S
C3326 C3330 1.531 . S
C3327 C3326 1.369 1_655 S
C3327 C3328 1.410 . S
C3327 C3335 1.503 . S
C3328 C3327 1.410 . S
C3328 C3329 1.392 . S
C3328 C3331 1.511 . S
C3329 C3325 1.376 . S
C3329 C3328 1.392 . S
C3329 H3341 0.929 . S
C3330 C3326 1.531 . S
C3330 H3342 0.960 . S
C3330 H3343 0.962 . S
C3330 H3344 0.960 . S
C3331 C3328 1.511 . S
C3331 H3345 0.961 . S
C3331 H3346 0.961 . S
C3331 H3347 0.961 . S
C3332 C3333 1.370 . S
C3332 C3334 1.363 . S
C3332 H3348 0.929 1_655 S
C3333 C3332 1.370 . S
C3333 C3337 1.408 . S
C3334 C3332 1.363 . S
C3334 C3335 1.370 . S
C3334 C3338 1.524 . S
C3335 C3327 1.503 . S
C3335 C3334 1.370 . S
C3335 C3336 1.403 . S
C3336 C3335 1.403 . S
C3336 C3337 1.404 . S
C3336 C3339 1.539 . S
C3337 C3333 1.408 . S
C3337 C3336 1.404 . S
C3337 H3349 0.930 . S
C3338 C3334 1.524 . S
C3338 H3350 0.956 1_655 S
C3338 H3351 0.961 . S
C3338 H3352 0.961 . S
C3339 C3336 1.539 . S
C3339 H3353 0.958 . S
C3339 H3354 0.961 . S
C3339 H3355 0.960 . S
H3340 C3324 0.931 . S
H3341 C3329 0.929 . S
H3342 C3330 0.960 . S
H3343 C3330 0.962 . S
H3344 C3330 0.960 . S
H3345 C3331 0.961 . S
H3346 C3331 0.961 . S
H3347 C3331 0.961 . S
H3348 C3332 0.929 1_455 S
H3349 C3337 0.930 . S
H3350 C3338 0.956 1_455 S
H3351 C3338 0.961 . S
H3352 C3338 0.961 . S
H3353 C3339 0.958 . S
H3354 C3339 0.961 . S
H3355 C3339 0.960 . S
C3356 C3357 1.391 . S
C3356 C3358 1.394 . S
C3356 H3372 0.931 . S
C3357 C3356 1.391 . S
C3357 C3361 1.376 . S
C3358 C3356 1.394 . S
C3358 C3359 1.369 . S
C3358 C3362 1.531 . S
C3359 C3358 1.369 . S
C3359 C3360 1.410 . S
C3359 C3367 1.503 . S
C3360 C3359 1.410 . S
C3360 C3361 1.392 . S
C3360 C3363 1.511 . S
C3361 C3357 1.376 . S
C3361 C3360 1.392 . S
C3361 H3373 0.929 . S
C3362 C3358 1.531 . S
C3362 H3374 0.960 . S
C3362 H3375 0.962 . S
C3362 H3376 0.960 . S
C3363 C3360 1.511 . S
C3363 H3377 0.961 . S
C3363 H3378 0.961 . S
C3363 H3379 0.961 . S
C3364 C3365 1.370 . S
C3364 C3366 1.363 . S
C3364 H3380 0.931 . S
C3365 C3364 1.370 . S
C3365 C3369 1.408 . S
C3366 C3364 1.363 . S
C3366 C3367 1.370 . S
C3366 C3370 1.524 . S
C3367 C3359 1.503 . S
C3367 C3366 1.370 . S
C3367 C3368 1.403 . S
C3368 C3367 1.403 . S
C3368 C3369 1.404 . S
C3368 C3371 1.539 . S
C3369 C3365 1.408 . S
C3369 C3368 1.404 . S
C3369 H3381 0.930 . S
C3370 C3366 1.524 . S
C3370 H3382 0.956 . S
C3370 H3383 0.961 . S
C3370 H3384 0.961 . S
C3371 C3368 1.539 . S
C3371 H3385 0.958 . S
C3371 H3386 0.961 . S
C3371 H3387 0.960 . S
H3372 C3356 0.931 . S
H3373 C3361 0.929 . S
H3374 C3362 0.960 . S
H3375 C3362 0.962 . S
H3376 C3362 0.960 . S
H3377 C3363 0.961 . S
H3378 C3363 0.961 . S
H3379 C3363 0.961 . S
H3380 C3364 0.931 . S
H3381 C3369 0.930 . S
H3382 C3370 0.956 . S
H3383 C3370 0.961 . S
H3384 C3370 0.961 . S
H3385 C3371 0.958 . S
H3386 C3371 0.961 . S
H3387 C3371 0.960 . S
C3388 C3389 1.391 . S
C3388 C3390 1.394 . S
C3388 H3404 0.931 . S
C3389 C3388 1.391 . S
C3389 C3393 1.376 . S
C3390 C3388 1.394 . S
C3390 C3391 1.369 . S
C3390 C3394 1.531 . S
C3391 C3390 1.369 . S
C3391 C3392 1.410 . S
C3391 C3399 1.503 . S
C3392 C3391 1.410 . S
C3392 C3393 1.392 . S
C3392 C3395 1.511 . S
C3393 C3389 1.376 . S
C3393 C3392 1.392 . S
C3393 H3405 0.929 . S
C3394 C3390 1.531 . S
C3394 H3406 0.960 . S
C3394 H3407 0.962 1_545 S
C3394 H3408 0.960 . S
C3395 C3392 1.511 . S
C3395 H3409 0.961 . S
C3395 H3410 0.961 . S
C3395 H3411 0.961 . S
C3396 C3397 1.370 1_565 S
C3396 C3398 1.363 . S
C3396 H3412 0.931 . S
C3397 C3396 1.370 1_545 S
C3397 C3401 1.408 . S
C3398 C3396 1.363 . S
C3398 C3399 1.370 1_565 S
C3398 C3402 1.524 . S
C3399 C3391 1.503 . S
C3399 C3398 1.370 1_545 S
C3399 C3400 1.403 . S
C3400 C3399 1.403 . S
C3400 C3401 1.404 . S
C3400 C3403 1.539 . S
C3401 C3397 1.408 . S
C3401 C3400 1.404 . S
C3401 H3413 0.930 . S
C3402 C3398 1.524 . S
C3402 H3414 0.956 . S
C3402 H3415 0.961 . S
C3402 H3416 0.961 . S
C3403 C3400 1.539 . S
C3403 H3417 0.958 . S
C3403 H3418 0.961 . S
C3403 H3419 0.960 . S
H3404 C3388 0.931 . S
H3405 C3393 0.929 . S
H3406 C3394 0.960 . S
H3407 C3394 0.962 1_565 S
H3408 C3394 0.960 . S
H3409 C3395 0.961 . S
H3410 C3395 0.961 . S
H3411 C3395 0.961 . S
H3412 C3396 0.931 . S
H3413 C3401 0.930 . S
H3414 C3402 0.956 . S
H3415 C3402 0.961 . S
H3416 C3402 0.961 . S
H3417 C3403 0.958 . S
H3418 C3403 0.961 . S
H3419 C3403 0.960 . S
C1117 C4 1.431 . S
C1125 C729 1.496 . S
C1149 C26 1.547 . S
C1157 C777 1.554 . S
C1189 C825 1.452 . S
C1181 C32 1.402 . S
C1213 C40 1.420 . S
C1221 C849 1.449 . S
C1245 C12 1.481 . S
C1253 C921 1.494 . S
C1277 C18 1.487 . S
C1285 C969 1.530 . S
C1309 C46 1.420 . S
C1317 C897 1.492 . S
C1349 C945 1.547 . S
C1341 C68 1.533 . S
C1381 C873 1.508 . S
C1373 C74 1.438 . S
C1405 C82 1.403 . S
C1413 C801 1.440 . S
C1445 C705 1.508 . S
C1437 C54 1.505 . S
C1469 C60 1.455 . S
C1477 C753 1.525 . S
C1501 C88 1.617 . S
C1509 C1017 1.642 . S
C1533 C110 1.610 . S
C1541 C1065 1.611 . S
C1573 C1089 1.585 . S
C1565 C116 1.567 . S
C1597 C124 1.497 . S
C1605 C273 1.490 . S
C1629 C96 1.545 . S
C1637 C345 1.550 . S
C1661 C102 1.491 . S
C1669 C393 1.558 . S
C1693 C130 1.544 . S
C1701 C321 1.575 . S
C1725 C152 1.605 . S
C1733 C369 1.609 . S
C1765 C297 1.559 . S
C1757 C158 1.563 . S
C1797 C1113 1.534 . S
C1789 C166 1.554 . S
C1829 C993 1.543 . S
C1821 C138 1.544 . S
C1861 C1041 1.595 . S
C1853 C144 1.563 . S
C1885 C172 1.515 . S
C1893 C441 1.574 . S
C1917 C194 1.601 . S
C1925 C489 1.603 . S
C1949 C200 1.552 . S
C1957 C513 1.600 . S
C1981 C208 1.530 . S
C1989 C561 1.535 . S
C2021 C633 1.545 . S
C2013 C180 1.542 . S
C2053 C681 1.590 . S
C2045 C186 1.568 . S
C2085 C609 1.653 . S
C2077 C214 1.619 . S
C2117 C657 1.610 . S
C2109 C236 1.607 . S
C2141 C242 1.518 . S
C2149 C585 1.561 . S
C2181 C537 1.460 . S
C2173 C250 1.475 . S
C2205 C222 1.551 . S
C2213 C417 1.558 . S
C2245 C465 1.576 . S
C2237 C228 1.532 . S
C2277 C282 1.499 . S
C2269 C5 1.336 . S
C2301 C25 1.404 . S
C2309 C336 1.372 . S
C2341 C384 1.490 . S
C2333 C33 1.273 . S
C2373 C432 1.380 . S
C2365 C39 1.397 . S
C2405 C480 1.439 . S
C2397 C11 1.451 . S
C2437 C522 1.417 . S
C2429 C19 1.111 1_556 S
C2461 C47 1.292 1_556 S
C2469 C528 1.517 . S
C2493 C67 1.403 . S
C2501 C426 1.371 . S
C2525 C75 1.295 1_556 S
C2533 C474 1.463 . S
C2557 C81 1.397 . S
C2565 C330 1.386 . S
C2597 C378 1.416 . S
C2589 C53 1.452 . S
C2621 C61 1.114 . S
C2629 C288 1.407 . S
C2661 C570 1.465 . S
C2653 C89 1.152 . S
C2685 C109 1.506 . S
C2693 C624 1.478 . S
C2717 C117 1.211 . S
C2725 C672 1.493 . S
C2757 C720 1.246 . S
C2749 C123 1.240 . S
C2781 C95 1.394 . S
C2789 C768 1.381 . S
C2813 C103 1.107 . S
C2821 C816 1.262 . S
C2845 C131 1.058 . S
C2853 C810 1.264 . S
C2877 C151 1.239 . S
C2885 C714 1.254 . S
C2917 C762 1.381 . S
C2909 C159 1.235 . S
C2941 C165 1.372 . S
C2949 C618 1.351 . S
C2973 C137 1.488 . S
C2981 C666 1.456 . S
C3013 C576 1.471 . S
C3005 C145 1.307 . S
C3045 C858 1.287 . S
C3037 C173 1.030 . S
C3069 C193 1.257 . S
C3077 C912 1.254 . S
C3101 C201 1.136 . S
C3109 C960 1.408 . S
C3141 C1008 1.362 . S
C3133 C207 1.373 . S
C3173 C1056 1.480 . S
C3165 C179 1.505 . S
C3197 C187 1.293 . S
C3205 C1098 1.487 . S
C3229 C215 1.222 . S
C3237 C1104 1.473 . S
C3261 C235 1.479 . S
C3269 C1002 1.447 . S
C3301 C1050 1.474 . S
C3293 C243 1.216 . S
C3333 C906 1.213 . S
C3325 C249 1.182 . S
C3365 C954 1.386 . S
C3357 C221 1.415 . S
C3389 C229 1.134 . S
C3397 C864 1.271 . S
