# Generated by pormake.
# Topology dag, (6,3)-cn, num edge types: 1
# Building blocks:
#     Node 0, Type 0, BuildingBlock: MIDCAF_clean_sbu_0, # of connection points: 6
#     Node 1, Type 0, BuildingBlock: MIDCAF_clean_sbu_0, # of connection points: 6
#     Node 2, Type 0, BuildingBlock: MIDCAF_clean_sbu_0, # of connection points: 6
#     Node 3, Type 0, BuildingBlock: MIDCAF_clean_sbu_0, # of connection points: 6
#     Node 4, Type 1, BuildingBlock: VETTIZ_charged_linker_0, # of connection points: 3
#     Node 5, Type 1, BuildingBlock: VETTIZ_charged_linker_0, # of connection points: 3
#     Node 6, Type 1, BuildingBlock: VETTIZ_charged_linker_0, # of connection points: 3
#     Node 7, Type 1, BuildingBlock: VETTIZ_charged_linker_0, # of connection points: 3
#     Node 8, Type 1, BuildingBlock: VETTIZ_charged_linker_0, # of connection points: 3
#     Node 9, Type 1, BuildingBlock: VETTIZ_charged_linker_0, # of connection points: 3
#     Node 10, Type 1, BuildingBlock: VETTIZ_charged_linker_0, # of connection points: 3
#     Node 11, Type 1, BuildingBlock: VETTIZ_charged_linker_0, # of connection points: 3
#     Edge 12, Type (0, 1), BuildingBlock: CIFDUS_clean_linker_0, # of connection points: 2
#     Edge 13, Type (0, 1), BuildingBlock: CIFDUS_clean_linker_0, # of connection points: 2
#     Edge 14, Type (0, 1), BuildingBlock: CIFDUS_clean_linker_0, # of connection points: 2
#     Edge 15, Type (0, 1), BuildingBlock: CIFDUS_clean_linker_0, # of connection points: 2
#     Edge 16, Type (0, 1), BuildingBlock: CIFDUS_clean_linker_0, # of connection points: 2
#     Edge 17, Type (0, 1), BuildingBlock: CIFDUS_clean_linker_0, # of connection points: 2
#     Edge 18, Type (0, 1), BuildingBlock: CIFDUS_clean_linker_0, # of connection points: 2
#     Edge 19, Type (0, 1), BuildingBlock: CIFDUS_clean_linker_0, # of connection points: 2
#     Edge 20, Type (0, 1), BuildingBlock: CIFDUS_clean_linker_0, # of connection points: 2
#     Edge 21, Type (0, 1), BuildingBlock: CIFDUS_clean_linker_0, # of connection points: 2
#     Edge 22, Type (0, 1), BuildingBlock: CIFDUS_clean_linker_0, # of connection points: 2
#     Edge 23, Type (0, 1), BuildingBlock: CIFDUS_clean_linker_0, # of connection points: 2
#     Edge 24, Type (0, 1), BuildingBlock: CIFDUS_clean_linker_0, # of connection points: 2
#     Edge 25, Type (0, 1), BuildingBlock: CIFDUS_clean_linker_0, # of connection points: 2
#     Edge 26, Type (0, 1), BuildingBlock: CIFDUS_clean_linker_0, # of connection points: 2
#     Edge 27, Type (0, 1), BuildingBlock: CIFDUS_clean_linker_0, # of connection points: 2
#     Edge 28, Type (0, 1), BuildingBlock: CIFDUS_clean_linker_0, # of connection points: 2
#     Edge 29, Type (0, 1), BuildingBlock: CIFDUS_clean_linker_0, # of connection points: 2
#     Edge 30, Type (0, 1), BuildingBlock: CIFDUS_clean_linker_0, # of connection points: 2
#     Edge 31, Type (0, 1), BuildingBlock: CIFDUS_clean_linker_0, # of connection points: 2
#     Edge 32, Type (0, 1), BuildingBlock: CIFDUS_clean_linker_0, # of connection points: 2
#     Edge 33, Type (0, 1), BuildingBlock: CIFDUS_clean_linker_0, # of connection points: 2
#     Edge 34, Type (0, 1), BuildingBlock: CIFDUS_clean_linker_0, # of connection points: 2
#     Edge 35, Type (0, 1), BuildingBlock: CIFDUS_clean_linker_0, # of connection points: 2
# Relax obj value: 0.316
# Max RMSD: 0.190
# Mean RMSD: 0.179
data_MOF--net-dag--node1-MIDCAF_clean_sbu_0--node2-VETTIZ_charged_linker_0--edge1-CIFDUS_clean_linker_0
_symmetry_space_group_name_H-M    P1
_symmetry_Int_Tables_number       1
_symmetry_cell_setting            triclinic
loop_
_symmetry_equiv_pos_as_xyz
'x, y, z'
_cell_length_a     44.315499
_cell_length_b     44.362736
_cell_length_c     34.131628
_cell_angle_alpha  90.01592
_cell_angle_beta   89.895091
_cell_angle_gamma 89.903866
loop_
_atom_site_label
_atom_site_type_symbol
_atom_site_fract_x
_atom_site_fract_y
_atom_site_fract_z
_atom_type_partial_charge
Zn0 Zn 0.1654 0.81692 0.08326 0.0
Zn1 Zn 0.16604 0.83008 0.93849 0.0
Zn2 Zn 0.16908 0.82515 0.00917 0.0
C3 C 0.16689 0.88822 0.96484 0.0
C4 C 0.11714 0.79575 0.95668 0.0
O5 O 0.20207 0.78987 0.02451 0.0
O6 O 0.18429 0.77629 0.08241 0.0
C7 C 0.19514 0.87245 0.06885 0.0
O8 O 0.17571 0.87381 0.99557 0.0
O9 O 0.15733 0.8737 0.93558 0.0
O10 O 0.1335 0.80048 0.92703 0.0
O11 O 0.12497 0.80693 0.99003 0.0
O12 O 0.19133 0.85289 0.09536 0.0
O13 O 0.18519 0.86753 0.034 0.0
O14 O 0.12124 0.8182 0.02753 0.0
O15 O 0.12128 0.82025 0.09233 0.0
C16 C 0.1069 0.81947 0.0605 0.0
O17 O 0.20522 0.79591 0.98404 0.0
O18 O 0.20777 0.8177 0.92618 0.0
C19 C 0.20202 0.77182 0.054 0.0
C20 C 0.21864 0.79956 0.95088 0.0
Zn21 Zn 0.67443 0.66425 0.37265 0.0
Zn22 Zn 0.62719 0.64443 0.5365 0.0
Zn23 Zn 0.65535 0.65501 0.48292 0.0
C24 C 0.6474 0.59109 0.52047 0.0
C25 C 0.61286 0.70038 0.51042 0.0
O26 O 0.68072 0.69673 0.4854 0.0
O27 O 0.67913 0.6764 0.4284 0.0
C28 C 0.70138 0.61949 0.44303 0.0
O29 O 0.66647 0.60978 0.50595 0.0
O30 O 0.62158 0.60035 0.53066 0.0
O31 O 0.59852 0.67601 0.5153 0.0
O32 O 0.64165 0.69904 0.50671 0.0
O33 O 0.6911 0.63654 0.41633 0.0
O34 O 0.68994 0.62178 0.47732 0.0
O35 O 0.62197 0.65486 0.43612 0.0
O36 O 0.62872 0.65926 0.37097 0.0
C37 C 0.61161 0.65595 0.40094 0.0
O38 O 0.67157 0.68873 0.52535 0.0
O39 O 0.66118 0.65813 0.57415 0.0
C40 C 0.68792 0.69805 0.44932 0.0
C41 C 0.67583 0.68054 0.56126 0.0
Zn42 Zn 0.82614 0.16718 0.91723 0.0
Zn43 Zn 0.83398 0.1544 0.12839 0.0
Zn44 Zn 0.8296 0.16621 0.99127 0.0
C45 C 0.8768 0.16802 0.05212 0.0
C46 C 0.81403 0.11891 0.04887 0.0
O47 O 0.79607 0.20074 0.98226 0.0
O48 O 0.78816 0.19224 0.91924 0.0
C49 C 0.88227 0.19339 0.94291 0.0
O50 O 0.87415 0.17251 0.01523 0.0
O51 O 0.85241 0.16303 0.0713 0.0
O52 O 0.82549 0.13985 0.0699 0.0
O53 O 0.81477 0.12276 0.01174 0.0
O54 O 0.86567 0.19004 0.91305 0.0
O55 O 0.8738 0.1828 0.97615 0.0
O56 O 0.82016 0.11981 0.97197 0.0
O57 O 0.82464 0.12215 0.90768 0.0
C58 C 0.82116 0.1066 0.93841 0.0
O59 O 0.80016 0.19679 0.02308 0.0
O60 O 0.81949 0.17397 0.07391 0.0
C61 C 0.78152 0.20598 0.9506 0.0
C62 C 0.80157 0.19406 0.06033 0.0
Zn63 Zn 0.32335 0.34127 0.56926 0.0
Zn64 Zn 0.33606 0.33241 0.41768 0.0
Zn65 Zn 0.33055 0.33628 0.49339 0.0
C66 C 0.39402 0.33448 0.44608 0.0
C67 C 0.30176 0.38443 0.4353 0.0
O68 O 0.29913 0.3015 0.51465 0.0
O69 O 0.28475 0.31855 0.57262 0.0
C70 C 0.37994 0.313 0.55138 0.0
O71 O 0.37899 0.33159 0.47822 0.0
O72 O 0.38052 0.33721 0.41377 0.0
O73 O 0.30861 0.36729 0.40705 0.0
O74 O 0.31086 0.37804 0.47015 0.0
O75 O 0.36153 0.31738 0.57921 0.0
O76 O 0.37372 0.32254 0.51673 0.0
O77 O 0.32015 0.38393 0.50866 0.0
O78 O 0.32294 0.38601 0.57335 0.0
C79 C 0.32035 0.39927 0.54081 0.0
O80 O 0.3023 0.29859 0.47352 0.0
O81 O 0.31883 0.29133 0.41304 0.0
C82 C 0.28224 0.29961 0.54522 0.0
C83 C 0.30294 0.28302 0.44177 0.0
C84 C 0.23445 0.05863 0.12105 0.0
C85 C 0.22595 0.04485 0.08554 0.0
C86 C 0.20449 0.05932 0.06157 0.0
C87 C 0.19472 0.09566 0.11279 0.0
C88 C 0.21853 0.0841 0.13413 0.0
C89 C 0.22228 0.10014 0.17281 0.0
H90 H 0.16073 0.19066 0.31113 0.0
C91 C 0.17845 0.11748 0.13762 0.0
C92 C 0.1947 0.12068 0.17264 0.0
H93 H 0.25245 0.15681 0.30582 0.0
H94 H 0.24109 0.13104 0.24561 0.0
H95 H 0.16264 0.21505 0.23027 0.0
H96 H 0.12548 0.13076 0.26975 0.0
H97 H 0.09923 0.1483 0.23841 0.0
H98 H 0.1104 0.167 0.28285 0.0
H99 H 0.12582 0.21302 0.25201 0.0
H100 H 0.13155 0.20781 0.20002 0.0
C101 C 0.25219 0.11824 0.17165 0.0
C102 C 0.22082 0.07665 0.20629 0.0
C103 C 0.07243 0.14907 0.09886 0.0
C104 C 0.0498 0.16606 0.1177 0.0
C105 C 0.05639 0.17945 0.15421 0.0
C106 C 0.08458 0.17523 0.17202 0.0
C107 C 0.10661 0.15757 0.15314 0.0
C108 C 0.10051 0.14532 0.11685 0.0
C109 C 0.12648 0.12718 0.10098 0.0
C110 C 0.14932 0.1306 0.13384 0.0
C111 C 0.13733 0.14798 0.16451 0.0
C112 C 0.13749 0.14196 0.06231 0.0
C113 C 0.11551 0.09419 0.09644 0.0
C114 C 0.1785 0.17764 0.29738 0.0
C115 C 0.20757 0.17604 0.31383 0.0
C116 C 0.22964 0.15823 0.29469 0.0
C117 C 0.22326 0.14367 0.25917 0.0
C118 C 0.19468 0.1472 0.24214 0.0
C119 C 0.17292 0.16405 0.26117 0.0
C120 C 0.14515 0.16854 0.23663 0.0
C121 C 0.15406 0.15197 0.19951 0.0
C122 C 0.18274 0.13878 0.20331 0.0
C123 C 0.14074 0.20282 0.22942 0.0
C124 C 0.11847 0.15306 0.25789 0.0
H125 H 0.1717 0.09378 0.05637 0.0
H126 H 0.25147 0.04841 0.13951 0.0
H127 H 0.20091 0.06171 0.20252 0.0
H128 H 0.21863 0.08705 0.2355 0.0
H129 H 0.24138 0.06229 0.2065 0.0
H130 H 0.26021 0.12201 0.14113 0.0
H131 H 0.2705 0.10628 0.18753 0.0
H132 H 0.24954 0.14115 0.18416 0.0
H133 H 0.06822 0.13805 0.07111 0.0
H134 H 0.03974 0.1932 0.16912 0.0
H135 H 0.08801 0.18569 0.2 0.0
H136 H 0.13143 0.16629 0.061 0.0
H137 H 0.12733 0.13089 0.0363 0.0
H138 H 0.16239 0.14152 0.05947 0.0
H139 H 0.10248 0.08707 0.12275 0.0
H140 H 0.13391 0.07767 0.0936 0.0
H141 H 0.10054 0.09185 0.07054 0.0
H142 H 0.19761 0.0494 0.034 0.0
C143 C 0.18898 0.08478 0.07495 0.0
C144 C 0.32574 0.58515 0.63254 0.0
C145 C 0.32924 0.57381 0.59402 0.0
C146 C 0.34345 0.59254 0.56597 0.0
C147 C 0.35358 0.63034 0.61553 0.0
C148 C 0.33745 0.61353 0.6423 0.0
C149 C 0.33397 0.62971 0.68096 0.0
H150 H 0.3691 0.74982 0.79464 0.0
C151 C 0.36478 0.65763 0.63562 0.0
C152 C 0.35293 0.65773 0.67378 0.0
H153 H 0.30013 0.68255 0.81495 0.0
H154 H 0.316 0.6559 0.75688 0.0
H155 H 0.42156 0.70312 0.75659 0.0
H156 H 0.35198 0.76055 0.70954 0.0
H157 H 0.38386 0.76432 0.67934 0.0
H158 H 0.38614 0.77538 0.73005 0.0
H159 H 0.4241 0.74349 0.75738 0.0
H160 H 0.43653 0.72185 0.71558 0.0
C161 C 0.34749 0.60982 0.71375 0.0
C162 C 0.30007 0.6374 0.68695 0.0
C163 C 0.44517 0.72127 0.56973 0.0
C164 C 0.46346 0.74523 0.58262 0.0
C165 C 0.45757 0.75806 0.61969 0.0
C166 C 0.43474 0.74642 0.64397 0.0
C167 C 0.41761 0.7216 0.63117 0.0
C168 C 0.42271 0.70978 0.59431 0.0
C169 C 0.40324 0.68281 0.58584 0.0
C170 C 0.3859 0.68 0.62405 0.0
C171 C 0.39437 0.70274 0.65048 0.0
C172 C 0.42424 0.6554 0.57859 0.0
C173 C 0.38224 0.69048 0.55089 0.0
C174 C 0.35731 0.72934 0.78682 0.0
C175 C 0.33295 0.71874 0.80954 0.0
C176 C 0.31905 0.69139 0.79848 0.0
C177 C 0.32784 0.67619 0.76419 0.0
C178 C 0.35039 0.68865 0.7402 0.0
C179 C 0.36501 0.71458 0.75196 0.0
C180 C 0.38668 0.72601 0.72142 0.0
C181 C 0.38161 0.70345 0.68868 0.0
C182 C 0.36085 0.68121 0.70017 0.0
C183 C 0.41898 0.72379 0.73843 0.0
C184 C 0.37699 0.75833 0.70943 0.0
H185 H 0.36689 0.63314 0.55406 0.0
H186 H 0.31479 0.57215 0.65522 0.0
H187 H 0.28729 0.63668 0.65894 0.0
H188 H 0.29668 0.66064 0.69804 0.0
H189 H 0.28908 0.62128 0.70735 0.0
H190 H 0.37023 0.60147 0.7051 0.0
H191 H 0.33295 0.58993 0.71955 0.0
H192 H 0.35046 0.62218 0.74155 0.0
H193 H 0.44936 0.71029 0.5419 0.0
H194 H 0.47112 0.77662 0.63033 0.0
H195 H 0.43176 0.7568 0.67211 0.0
H196 H 0.44232 0.6545 0.60114 0.0
H197 H 0.43526 0.65693 0.54939 0.0
H198 H 0.41252 0.63358 0.58036 0.0
H199 H 0.37889 0.71523 0.54779 0.0
H200 H 0.35921 0.6813 0.55483 0.0
H201 H 0.39172 0.68205 0.52278 0.0
H202 H 0.34535 0.58575 0.53564 0.0
C203 C 0.3558 0.62044 0.57659 0.0
C204 C 0.75894 0.83238 0.28093 0.0
C205 C 0.77098 0.80923 0.30409 0.0
C206 C 0.80107 0.8 0.2981 0.0
C207 C 0.80481 0.83346 0.24215 0.0
C208 C 0.77605 0.84397 0.25007 0.0
C209 C 0.76537 0.86659 0.22046 0.0
H210 H 0.79308 0.94592 0.05632 0.0
C211 C 0.81448 0.84663 0.20443 0.0
C212 C 0.79126 0.86569 0.1914 0.0
H213 H 0.72385 0.9608 0.14316 0.0
H214 H 0.73778 0.91452 0.17594 0.0
H215 H 0.84366 0.93315 0.1167 0.0
H216 H 0.78852 0.87165 0.05079 0.0
H217 H 0.82312 0.85314 0.05847 0.0
H218 H 0.82215 0.88764 0.03029 0.0
H219 H 0.84446 0.92965 0.06423 0.0
H220 H 0.8668 0.90558 0.09446 0.0
C221 C 0.7626 0.89767 0.24119 0.0
C222 C 0.7356 0.85507 0.202 0.0
C223 C 0.91725 0.82144 0.14603 0.0
C224 C 0.93046 0.82675 0.10891 0.0
C225 C 0.91241 0.84037 0.07966 0.0
C226 C 0.88307 0.85037 0.08793 0.0
C227 C 0.87118 0.84648 0.12569 0.0
C228 C 0.88755 0.83083 0.15338 0.0
C229 C 0.86935 0.82492 0.18996 0.0
C230 C 0.84032 0.84172 0.18055 0.0
C231 C 0.8419 0.85491 0.14321 0.0
C232 C 0.88585 0.8391 0.22532 0.0
C233 C 0.86433 0.79042 0.19365 0.0
C234 C 0.78026 0.93836 0.08153 0.0
C235 C 0.75726 0.9565 0.09719 0.0
C236 C 0.74146 0.94682 0.13061 0.0
C237 C 0.75005 0.92035 0.14995 0.0
C238 C 0.77521 0.90403 0.13629 0.0
C239 C 0.78944 0.91266 0.10202 0.0
C240 C 0.81766 0.89463 0.09418 0.0
C241 C 0.81881 0.87487 0.1305 0.0
C242 C 0.79371 0.88028 0.15464 0.0
C243 C 0.84469 0.91673 0.09209 0.0
C244 C 0.81288 0.87587 0.05639 0.0
H245 H 0.84061 0.80362 0.26305 0.0
H246 H 0.73593 0.83998 0.28533 0.0
H247 H 0.73719 0.83055 0.19549 0.0
H248 H 0.73028 0.86604 0.17381 0.0
H249 H 0.71623 0.85854 0.22223 0.0
H250 H 0.77576 0.8985 0.26891 0.0
H251 H 0.73877 0.90292 0.24876 0.0
H252 H 0.7719 0.91626 0.2232 0.0
H253 H 0.92972 0.81074 0.16941 0.0
H254 H 0.92082 0.84347 0.05017 0.0
H255 H 0.87078 0.86105 0.06471 0.0
H256 H 0.89322 0.86244 0.21826 0.0
H257 H 0.90623 0.82579 0.23313 0.0
H258 H 0.87134 0.8409 0.25155 0.0
H259 H 0.86674 0.77882 0.1649 0.0
H260 H 0.84122 0.78478 0.20352 0.0
H261 H 0.88089 0.78004 0.214 0.0
H262 H 0.81068 0.78211 0.31573 0.0
C263 C 0.81813 0.81208 0.26717 0.0
C264 C 0.65024 0.27963 0.81107 0.0
C265 C 0.66698 0.29805 0.8367 0.0
C266 C 0.67511 0.32724 0.82391 0.0
C267 C 0.65351 0.3174 0.76002 0.0
C268 C 0.64348 0.28985 0.7734 0.0
C269 C 0.62499 0.27333 0.74344 0.0
H270 H 0.54582 0.2847 0.57792 0.0
C271 C 0.64434 0.3203 0.71864 0.0
C272 C 0.62734 0.29474 0.70887 0.0
H273 H 0.53552 0.22099 0.67263 0.0
H274 H 0.58386 0.23618 0.69892 0.0
H275 H 0.56009 0.33746 0.62603 0.0
H276 H 0.62264 0.27745 0.56913 0.0
H277 H 0.64004 0.31303 0.56977 0.0
H278 H 0.6051 0.30797 0.5433 0.0
H279 H 0.56467 0.33493 0.57378 0.0
H280 H 0.58786 0.35924 0.60253 0.0
C281 C 0.59219 0.27045 0.75942 0.0
C282 C 0.64038 0.24277 0.73434 0.0
C283 C 0.67048 0.41482 0.64242 0.0
C284 C 0.66233 0.42497 0.60482 0.0
C285 C 0.64942 0.40433 0.57828 0.0
C286 C 0.64225 0.37496 0.59022 0.0
C287 C 0.64745 0.36639 0.62926 0.0
C288 C 0.66266 0.38565 0.65409 0.0
C289 C 0.66622 0.37273 0.69456 0.0
C290 C 0.65009 0.34279 0.69006 0.0
C291 C 0.63866 0.33946 0.65198 0.0
C292 C 0.64994 0.39386 0.72412 0.0
C293 C 0.70034 0.36847 0.70242 0.0
C294 C 0.55451 0.27317 0.60348 0.0
C295 C 0.53655 0.25227 0.62387 0.0
C296 C 0.54865 0.23771 0.657 0.0
C297 C 0.57633 0.24699 0.67263 0.0
C298 C 0.59146 0.27148 0.65548 0.0
C299 C 0.58156 0.28298 0.62015 0.0
C300 C 0.59932 0.31028 0.60758 0.0
C301 C 0.61959 0.31474 0.64292 0.0
C302 C 0.61471 0.29205 0.67089 0.0
C303 C 0.57703 0.33697 0.60193 0.0
C304 C 0.61764 0.30202 0.57038 0.0
H305 H 0.67644 0.35886 0.77741 0.0
H306 H 0.64345 0.25707 0.81917 0.0
H307 H 0.66516 0.24575 0.73073 0.0
H308 H 0.63228 0.23266 0.70669 0.0
H309 H 0.63663 0.2264 0.75848 0.0
H310 H 0.58831 0.28433 0.78613 0.0
H311 H 0.58677 0.24681 0.76748 0.0
H312 H 0.57519 0.27863 0.73814 0.0
H313 H 0.68103 0.4299 0.66325 0.0
H314 H 0.64298 0.41142 0.5491 0.0
H315 H 0.63124 0.36065 0.56935 0.0
H316 H 0.631 0.40624 0.70999 0.0
H317 H 0.66568 0.41091 0.7363 0.0
H318 H 0.63919 0.38147 0.74852 0.0
H319 H 0.7118 0.35879 0.67624 0.0
H320 H 0.70503 0.35258 0.72653 0.0
H321 H 0.71125 0.39039 0.70916 0.0
H322 H 0.68701 0.34257 0.84308 0.0
C323 C 0.66886 0.3368 0.78563 0.0
C324 C 0.74264 0.43843 0.38238 0.0
C325 C 0.73494 0.45112 0.41889 0.0
C326 C 0.71371 0.43611 0.44275 0.0
C327 C 0.70392 0.4004 0.39087 0.0
C328 C 0.72678 0.41319 0.36892 0.0
C329 C 0.73016 0.39832 0.32951 0.0
H330 H 0.68306 0.29159 0.20196 0.0
C331 C 0.68886 0.37746 0.36662 0.0
C332 C 0.70444 0.37572 0.33083 0.0
H333 H 0.76126 0.34904 0.19223 0.0
H334 H 0.747 0.37491 0.25198 0.0
H335 H 0.68771 0.27767 0.29208 0.0
H336 H 0.63777 0.34376 0.2273 0.0
H337 H 0.61607 0.33715 0.26946 0.0
H338 H 0.62308 0.3067 0.23545 0.0
H339 H 0.65648 0.26925 0.26046 0.0
H340 H 0.65071 0.27879 0.31115 0.0
C341 C 0.76147 0.38273 0.32802 0.0
C342 C 0.72519 0.42242 0.2973 0.0
C343 C 0.5882 0.33384 0.41057 0.0
C344 C 0.56668 0.3158 0.39128 0.0
C345 C 0.5743 0.30323 0.35452 0.0
C346 C 0.60216 0.30918 0.33687 0.0
C347 C 0.62271 0.32832 0.35567 0.0
C348 C 0.61578 0.34008 0.39206 0.0
C349 C 0.63976 0.36138 0.40648 0.0
C350 C 0.6619 0.36071 0.37236 0.0
C351 C 0.65173 0.34127 0.34283 0.0
C352 C 0.65369 0.34821 0.44445 0.0
C353 C 0.62502 0.39285 0.41166 0.0
C354 C 0.69678 0.31006 0.21255 0.0
C355 C 0.72333 0.31829 0.19286 0.0
C356 C 0.74062 0.34252 0.20703 0.0
C357 C 0.73254 0.35716 0.24194 0.0
C358 C 0.70683 0.34748 0.2626 0.0
C359 C 0.68898 0.32488 0.24722 0.0
C360 C 0.66233 0.31773 0.27281 0.0
C361 C 0.66821 0.33838 0.30736 0.0
C362 C 0.69424 0.35576 0.30122 0.0
C363 C 0.6641 0.28407 0.28473 0.0
C364 C 0.63322 0.32654 0.25026 0.0
H365 H 0.68157 0.40108 0.44791 0.0
H366 H 0.75931 0.44901 0.36367 0.0
H367 H 0.70622 0.43768 0.30535 0.0
H368 H 0.71889 0.41265 0.26873 0.0
H369 H 0.74567 0.43651 0.29327 0.0
H370 H 0.7688 0.37537 0.35768 0.0
H371 H 0.77901 0.39823 0.31644 0.0
H372 H 0.76139 0.36185 0.31036 0.0
H373 H 0.58343 0.34362 0.43898 0.0
H374 H 0.55823 0.28975 0.33835 0.0
H375 H 0.60626 0.29925 0.30873 0.0
H376 H 0.65171 0.32322 0.44531 0.0
H377 H 0.64226 0.35723 0.47098 0.0
H378 H 0.67822 0.35261 0.4466 0.0
H379 H 0.61017 0.39815 0.38632 0.0
H380 H 0.64143 0.41142 0.41295 0.0
H381 H 0.61095 0.39363 0.43862 0.0
H382 H 0.70722 0.44521 0.47096 0.0
C383 C 0.69833 0.41074 0.42902 0.0
C384 C 0.16906 0.21783 0.70714 0.0
C385 C 0.18688 0.2007 0.68119 0.0
C386 C 0.19714 0.17206 0.69362 0.0
C387 C 0.17206 0.17861 0.75641 0.0
C388 C 0.16164 0.2063 0.7439 0.0
C389 C 0.14116 0.2212 0.77313 0.0
H390 H 0.0508 0.20409 0.92802 0.0
C391 C 0.15973 0.17331 0.79615 0.0
C392 C 0.1414 0.19808 0.80581 0.0
H393 H 0.05047 0.27465 0.84083 0.0
H394 H 0.09868 0.25738 0.81648 0.0
H395 H 0.06416 0.15489 0.87605 0.0
H396 H 0.12866 0.20518 0.94363 0.0
H397 H 0.14037 0.1673 0.94432 0.0
H398 H 0.10428 0.17751 0.96523 0.0
H399 H 0.06818 0.15026 0.92805 0.0
H400 H 0.09057 0.12891 0.89391 0.0
C401 C 0.10948 0.22495 0.75406 0.0
C402 C 0.15592 0.25115 0.78633 0.0
C403 C 0.1815 0.07504 0.86722 0.0
C404 C 0.16897 0.06162 0.90104 0.0
C405 C 0.15036 0.07948 0.92545 0.0
C406 C 0.14305 0.10921 0.91523 0.0
C407 C 0.15364 0.12114 0.87964 0.0
C408 C 0.17305 0.10435 0.85667 0.0
C409 C 0.1805 0.11985 0.8186 0.0
C410 C 0.16274 0.14896 0.8229 0.0
C411 C 0.14695 0.1495 0.85863 0.0
C412 C 0.16859 0.10009 0.78443 0.0
C413 C 0.21487 0.12565 0.8173 0.0
C414 C 0.06178 0.21664 0.90482 0.0
C415 C 0.0467 0.2404 0.88581 0.0
C416 C 0.06152 0.25599 0.85547 0.0
C417 C 0.08924 0.24563 0.84103 0.0
C418 C 0.10184 0.21914 0.85665 0.0
C419 C 0.0891 0.20605 0.88944 0.0
C420 C 0.10457 0.17702 0.90054 0.0
C421 C 0.12736 0.17394 0.8675 0.0
C422 C 0.12539 0.19853 0.84179 0.0
C423 C 0.08083 0.15131 0.89996 0.0
C424 C 0.12018 0.18169 0.94064 0.0
H425 H 0.19875 0.13933 0.73904 0.0
H426 H 0.16121 0.24018 0.69955 0.0
H427 H 0.18063 0.24814 0.79066 0.0
H428 H 0.14714 0.25928 0.81476 0.0
H429 H 0.15268 0.26906 0.76398 0.0
H430 H 0.10673 0.21055 0.72761 0.0
H431 H 0.1054 0.2486 0.74477 0.0
H432 H 0.09096 0.21781 0.77376 0.0
H433 H 0.19656 0.06263 0.84811 0.0
H434 H 0.14003 0.07015 0.95149 0.0
H435 H 0.12813 0.12123 0.93448 0.0
H436 H 0.14885 0.08634 0.7937 0.0
H437 H 0.18625 0.08431 0.7737 0.0
H438 H 0.1601 0.11359 0.75955 0.0
H439 H 0.22286 0.13468 0.84587 0.0
H440 H 0.22132 0.14258 0.79513 0.0
H441 H 0.22743 0.10445 0.8113 0.0
H442 H 0.21064 0.15804 0.67443 0.0
C443 C 0.19007 0.16109 0.73117 0.0
C444 C 0.26867 0.64892 0.21671 0.0
C445 C 0.28654 0.66175 0.18676 0.0
C446 C 0.31746 0.66677 0.19444 0.0
C447 C 0.31111 0.64962 0.26138 0.0
C448 C 0.28145 0.64266 0.25328 0.0
C449 C 0.2659 0.62766 0.28735 0.0
H450 H 0.28257 0.5592 0.4614 0.0
C451 C 0.31689 0.64193 0.30277 0.0
C452 C 0.29064 0.62874 0.3181 0.0
H453 H 0.21024 0.55002 0.37779 0.0
H454 H 0.22893 0.5932 0.34187 0.0
H455 H 0.3313 0.56129 0.40566 0.0
H456 H 0.28611 0.63734 0.45761 0.0
H457 H 0.32398 0.648 0.45136 0.0
H458 H 0.31481 0.61671 0.48312 0.0
H459 H 0.33576 0.5719 0.45613 0.0
H460 H 0.35902 0.58771 0.4184 0.0
C461 C 0.25769 0.59489 0.27518 0.0
C462 C 0.23841 0.64704 0.29964 0.0
C463 C 0.41929 0.66368 0.36259 0.0
C464 C 0.43172 0.65786 0.39974 0.0
C465 C 0.41274 0.64706 0.42982 0.0
C466 C 0.38237 0.64055 0.42234 0.0
C467 C 0.37095 0.6444 0.38427 0.0
C468 C 0.38907 0.65667 0.35548 0.0
C469 C 0.3731 0.65928 0.31679 0.0
C470 C 0.34242 0.64635 0.32712 0.0
C471 C 0.34148 0.63728 0.36649 0.0
C472 C 0.3901 0.63954 0.28631 0.0
C473 C 0.37119 0.69311 0.306 0.0
C474 C 0.26994 0.56741 0.43643 0.0
C475 C 0.24536 0.55095 0.42186 0.0
C476 C 0.22953 0.56215 0.38915 0.0
C477 C 0.24082 0.5867 0.36787 0.0
C478 C 0.26834 0.59968 0.37919 0.0
C479 C 0.28156 0.59123 0.4142 0.0
C480 C 0.31188 0.60579 0.42007 0.0
C481 C 0.31568 0.62224 0.38138 0.0
C482 C 0.29012 0.6186 0.35759 0.0
C483 C 0.33589 0.58059 0.4256 0.0
C484 C 0.30935 0.628 0.45497 0.0
H485 H 0.35314 0.6661 0.23566 0.0
H486 H 0.24488 0.64459 0.21259 0.0
H487 H 0.24469 0.67128 0.30099 0.0
H488 H 0.22985 0.64112 0.32907 0.0
H489 H 0.21968 0.64466 0.27828 0.0
H490 H 0.26954 0.58771 0.24795 0.0
H491 H 0.23312 0.59249 0.26964 0.0
H492 H 0.2646 0.57812 0.29748 0.0
H493 H 0.43304 0.67264 0.33906 0.0
H494 H 0.42166 0.64232 0.4587 0.0
H495 H 0.3693 0.63153 0.44607 0.0
H496 H 0.40212 0.62047 0.30063 0.0
H497 H 0.40717 0.65292 0.27002 0.0
H498 H 0.37473 0.62861 0.26516 0.0
H499 H 0.36491 0.7068 0.3321 0.0
H500 H 0.35377 0.69805 0.28386 0.0
H501 H 0.39327 0.70147 0.29507 0.0
H502 H 0.33232 0.67548 0.17197 0.0
C503 C 0.32968 0.66113 0.23158 0.0
C504 C 0.8122 0.9128 0.86179 0.0
C505 C 0.82848 0.93075 0.88843 0.0
C506 C 0.85215 0.91734 0.90994 0.0
C507 C 0.84439 0.86989 0.87636 0.0
C508 C 0.82061 0.88263 0.85612 0.0
C509 C 0.80676 0.86092 0.82744 0.0
H510 H 0.80816 0.72364 0.74057 0.0
C511 C 0.84874 0.83884 0.86175 0.0
C512 C 0.8267 0.83337 0.83319 0.0
H513 H 0.74473 0.79655 0.72333 0.0
H514 H 0.77159 0.82707 0.77019 0.0
H515 H 0.86556 0.76395 0.73912 0.0
H516 H 0.81395 0.72981 0.83619 0.0
H517 H 0.85267 0.72385 0.84558 0.0
H518 H 0.83562 0.70663 0.80336 0.0
H519 H 0.8714 0.7266 0.75768 0.0
H520 H 0.8914 0.75865 0.77736 0.0
C521 C 0.81017 0.87437 0.78576 0.0
C522 C 0.7737 0.855 0.84018 0.0
C523 C 0.94031 0.77937 0.90525 0.0
C524 C 0.95422 0.75335 0.89029 0.0
C525 C 0.93856 0.73538 0.86308 0.0
C526 C 0.90991 0.74407 0.84965 0.0
C527 C 0.89723 0.77137 0.86286 0.0
C528 C 0.91227 0.78827 0.89065 0.0
C529 C 0.89739 0.81822 0.89807 0.0
C530 C 0.87095 0.81664 0.87002 0.0
C531 C 0.87076 0.78905 0.84983 0.0
C532 C 0.92003 0.84354 0.88687 0.0
C533 C 0.88681 0.81893 0.94132 0.0
C534 C 0.80002 0.74612 0.74717 0.0
C535 C 0.77428 0.75773 0.72848 0.0
C536 C 0.76465 0.78726 0.73721 0.0
C537 C 0.78017 0.80485 0.7646 0.0
C538 C 0.80575 0.7929 0.78328 0.0
C539 C 0.81539 0.76405 0.77431 0.0
C540 C 0.84345 0.75539 0.79637 0.0
C541 C 0.84822 0.7833 0.82133 0.0
C542 C 0.82624 0.80527 0.81325 0.0
C543 C 0.86936 0.75066 0.76632 0.0
C544 C 0.83632 0.72733 0.82166 0.0
H545 H 0.87844 0.87841 0.9212 0.0
H546 H 0.79354 0.92207 0.84525 0.0
H547 H 0.77119 0.85653 0.87256 0.0
H548 H 0.76596 0.83203 0.83278 0.0
H549 H 0.75807 0.87173 0.82696 0.0
H550 H 0.83252 0.88547 0.78232 0.0
H551 H 0.79251 0.8916 0.78001 0.0
H552 H 0.80939 0.85721 0.76239 0.0
H553 H 0.95229 0.79412 0.92518 0.0
H554 H 0.94909 0.71537 0.85099 0.0
H555 H 0.89935 0.7299 0.82823 0.0
H556 H 0.93599 0.83591 0.86368 0.0
H557 H 0.93367 0.85061 0.91253 0.0
H558 H 0.90897 0.86356 0.87408 0.0
H559 H 0.87744 0.79669 0.95019 0.0
H560 H 0.8684 0.83527 0.94655 0.0
H561 H 0.90588 0.82415 0.96127 0.0
H562 H 0.86546 0.93049 0.93027 0.0
C563 C 0.85998 0.88706 0.9043 0.0
H564 H 0.22211 0.91348 0.02039 0.0
H565 H 0.1996 0.89689 0.14155 0.0
H566 H 0.21434 0.94802 0.15862 0.0
H567 H 0.22429 -0.00062 0.13753 0.0
H568 H 0.24222 0.01821 0.01574 0.0
H569 H 0.23885 0.96437 1.00051 0.0
C570 C 0.22056 0.9211 0.05051 0.0
C571 C 0.20871 0.90179 0.07936 0.0
C572 C 0.22813 0.95099 0.05998 0.0
C573 C 0.20805 0.91147 0.11857 0.0
C574 C 0.21641 0.94077 0.1284 0.0
C575 C 0.22862 0.99168 0.10787 0.0
C576 C 0.23334 0.01278 0.07779 0.0
C577 C 0.22521 0.96104 0.09911 0.0
C578 C 0.23841 0.00238 0.03939 0.0
C579 C 0.23629 0.97163 0.03066 0.0
H580 H 0.56883 0.72662 0.46854 0.0
H581 H 0.61883 0.73372 0.57604 0.0
H582 H 0.57514 0.7564 0.60849 0.0
H583 H 0.51971 0.75834 0.6104 0.0
H584 H 0.46933 0.74993 0.50282 0.0
H585 H 0.51616 0.74396 0.46611 0.0
C586 C 0.57062 0.73482 0.4984 0.0
C587 C 0.59662 0.72817 0.52018 0.0
C588 C 0.54494 0.74646 0.51721 0.0
C589 C 0.59896 0.73879 0.55877 0.0
C590 C 0.57373 0.75116 0.57753 0.0
C591 C 0.5189 0.75659 0.57874 0.0
C592 C 0.49094 0.75322 0.55964 0.0
C593 C 0.54599 0.75275 0.5578 0.0
C594 C 0.49052 0.75135 0.51847 0.0
C595 C 0.51732 0.748 0.49739 0.0
H596 H 0.77771 0.07896 0.01223 0.0
H597 H 0.8166 0.09977 0.12483 0.0
H598 H 0.79586 0.05316 0.15183 0.0
H599 H 0.77326 0.00353 0.14077 0.0
H600 H 0.74142 0.9794 0.02583 0.0
H601 H 0.75288 0.0303 0.00194 0.0
C602 C 0.78187 0.07318 0.0426 0.0
C603 C 0.79951 0.09221 0.0662 0.0
C604 C 0.77105 0.04581 0.05733 0.0
C605 C 0.80356 0.08517 0.10592 0.0
C606 C 0.79173 0.05855 0.12133 0.0
C607 C 0.7679 0.00988 0.11087 0.0
C608 C 0.7561 0.98826 0.0851 0.0
C609 C 0.77627 0.03832 0.09698 0.0
C610 C 0.75004 -0.00392 0.04611 0.0
C611 C 0.75687 0.02496 0.03248 0.0
H612 H 0.40407 0.29721 0.62174 0.0
H613 H 0.41729 0.28703 0.49745 0.0
H614 H 0.46605 0.26306 0.50848 0.0
H615 H 0.50704 0.24954 0.55388 0.0
H616 H 0.49223 0.25756 0.67844 0.0
H617 H 0.44115 0.27563 0.66703 0.0
C618 C 0.41754 0.28964 0.59704 0.0
C619 C 0.4081 0.2959 0.5586 0.0
C620 C 0.44492 0.27462 0.60379 0.0
C621 C 0.42524 0.28476 0.5271 0.0
C622 C 0.45277 0.2703 0.53348 0.0
C623 C 0.4923 0.25449 0.57848 0.0
C624 C 0.50358 0.25259 0.61685 0.0
C625 C 0.46322 0.26587 0.57174 0.0
C626 C 0.48413 0.25862 0.64855 0.0
C627 C 0.45502 0.2695 0.64207 0.0
H628 H 0.72864 0.57878 0.49147 0.0
H629 H 0.71569 0.60098 0.36946 0.0
H630 H 0.73221 0.55088 0.35042 0.0
H631 H 0.73837 0.49842 0.36917 0.0
H632 H 0.75013 0.47475 0.49083 0.0
H633 H 0.74671 0.52792 0.50912 0.0
C634 C 0.73033 0.5729 0.46069 0.0
C635 C 0.71996 0.59317 0.43206 0.0
C636 C 0.73926 0.54366 0.44985 0.0
C637 C 0.72291 0.58558 0.39223 0.0
C638 C 0.73226 0.55682 0.38123 0.0
C639 C 0.74153 0.50482 0.39956 0.0
C640 C 0.74369 0.48253 0.4287 0.0
C641 C 0.73873 0.53522 0.40991 0.0
C642 C 0.74769 0.49145 0.46791 0.0
C643 C 0.74568 0.52185 0.4784 0.0
H644 H 0.91074 0.2097 0.87579 0.0
H645 H 0.91791 0.216 0.00143 0.0
H646 H 0.96942 0.23498 0.99534 0.0
H647 H 0.01434 0.24378 0.95381 0.0
H648 H 0.005 0.2409 0.82805 0.0
H649 H 0.95182 0.2284 0.83464 0.0
C650 C 0.92341 0.21549 0.90188 0.0
C651 C 0.91143 0.20929 0.93913 0.0
C652 C 0.95243 0.22763 0.89806 0.0
C653 C 0.92761 0.21828 0.97251 0.0
C654 C 0.95681 0.22976 0.96902 0.0
C655 C 0.00038 0.24127 0.92795 0.0
C656 C 0.01363 0.24291 0.89058 0.0
C657 C 0.96984 0.2335 0.93189 0.0
C658 C 0.99531 0.23996 0.85719 0.0
C659 C 0.96496 0.23234 0.86089 0.0
H660 H 0.27572 0.42341 0.4879 0.0
H661 H 0.28675 0.40734 0.36399 0.0
H662 H 0.26275 0.45533 0.34955 0.0
H663 H 0.24674 0.50481 0.37161 0.0
H664 H 0.2427 0.52496 0.49508 0.0
H665 H 0.25607 0.47261 0.51042 0.0
C666 C 0.2735 0.43067 0.45785 0.0
C667 C 0.28439 0.41233 0.42726 0.0
C668 C 0.26083 0.45903 0.4497 0.0
C669 C 0.27929 0.42122 0.38827 0.0
C670 C 0.26552 0.4487 0.3799 0.0
C671 C 0.24761 0.49751 0.40193 0.0
C672 C 0.24347 0.51861 0.43218 0.0
C673 C 0.25721 0.46819 0.41035 0.0
C674 C 0.24551 0.50899 0.47133 0.0
C675 C 0.25355 0.4792 0.48004 0.0
H676 H 0.09174 0.77674 0.88867 0.0
H677 H 0.07851 0.77499 0.01368 0.0
H678 H 0.02659 0.75812 0.0048 0.0
H679 H 0.98317 0.75052 0.96038 0.0
H680 H -0.00181 0.74845 0.83557 0.0
H681 H 0.05179 0.75838 0.84545 0.0
C682 C 0.0777 0.77232 0.91408 0.0
C683 C 0.08817 0.77949 0.95184 0.0
C684 C 0.04836 0.76134 0.90866 0.0
C685 C 0.07011 0.77222 0.98432 0.0
C686 C 0.04063 0.76186 0.97921 0.0
C687 C -0.00155 0.75131 0.93552 0.0
C688 C 0.98684 0.74915 0.89733 0.0
C689 C 0.02915 0.75752 0.94139 0.0
C690 C 0.0067 0.74993 0.86524 0.0
C691 C 0.03726 0.75601 0.87085 0.0
H692 H 0.80918 0.07171 0.87453 0.0
H693 H 0.83383 0.06636 0.99654 0.0
H694 H 0.83411 0.01162 0.99314 0.0
H695 H 0.83061 0.96525 0.95467 0.0
H696 H 0.81246 0.97059 0.83058 0.0
H697 H 0.80612 0.02502 0.83574 0.0
C698 C 0.81443 0.05854 0.90041 0.0
C699 C 0.82045 0.07322 0.93609 0.0
C700 C 0.81593 0.02693 0.89781 0.0
C701 C 0.82775 0.05577 0.96915 0.0
C702 C 0.82838 0.02437 0.96709 0.0
C703 C 0.82544 0.97826 0.92864 0.0
C704 C 0.82216 0.96364 0.89229 0.0
C705 C 0.82291 0.00973 0.93146 0.0
C706 C 0.81472 0.98099 0.85912 0.0
C707 C 0.81139 0.01225 0.86192 0.0
H708 H 0.42891 0.2894 0.41967 0.0
H709 H 0.43254 0.37775 0.47157 0.0
H710 H 0.4875 0.37905 0.46213 0.0
H711 H 0.53305 0.35699 0.4324 0.0
H712 H 0.52977 0.26629 0.38628 0.0
H713 H 0.47599 0.26384 0.40055 0.0
C714 C 0.44195 0.30866 0.42944 0.0
C715 C 0.4271 0.33352 0.44599 0.0
C716 C 0.47338 0.30888 0.42472 0.0
C717 C 0.44383 0.35839 0.45886 0.0
C718 C 0.47511 0.35912 0.45335 0.0
C719 C 0.52093 0.3363 0.42643 0.0
C720 C 0.53551 0.31219 0.40715 0.0
C721 C 0.49002 0.33474 0.43545 0.0
C722 C 0.51906 0.28567 0.39973 0.0
C723 C 0.48828 0.28413 0.40809 0.0
H724 H 0.17548 0.91961 0.89885 0.0
H725 H 0.16165 0.93125 0.02292 0.0
H726 H 0.16443 0.98624 0.01494 0.0
H727 H 0.16908 0.03078 0.97165 0.0
H728 H 0.17537 0.01689 0.84629 0.0
H729 H 0.17805 0.96311 0.85614 0.0
C730 C 0.17309 0.93414 0.92426 0.0
C731 C 0.16904 0.9214 0.96156 0.0
C732 C 0.17363 0.96541 0.9192 0.0
C733 C 0.16573 0.94053 0.99407 0.0
C734 C 0.16698 0.97194 0.9894 0.0
C735 C 0.17082 0.01612 0.94636 0.0
C736 C 0.17246 0.02851 0.90823 0.0
C737 C 0.17076 0.98465 0.95194 0.0
C738 C 0.17513 0.00868 0.87613 0.0
C739 C 0.17619 0.97763 0.8816 0.0
H740 H 0.5675 0.67125 0.45229 0.0
H741 H 0.58205 0.63702 0.3355 0.0
H742 H 0.52759 0.6349 0.32492 0.0
H743 H 0.47622 0.64209 0.34919 0.0
H744 H 0.46144 0.67907 0.46475 0.0
H745 H 0.51593 0.68044 0.47577 0.0
C746 C 0.55876 0.6632 0.42466 0.0
C747 C 0.57873 0.65417 0.39486 0.0
C748 C 0.52751 0.66258 0.41858 0.0
C749 C 0.5671 0.64416 0.35889 0.0
C750 C 0.536 0.64293 0.35283 0.0
C751 C 0.48483 0.65103 0.37654 0.0
C752 C 0.46473 0.66057 0.40602 0.0
C753 C 0.51605 0.65216 0.38245 0.0
C754 C 0.47638 0.67132 0.44168 0.0
C755 C 0.50751 0.67223 0.44795 0.0
H756 H 0.28934 0.43692 0.58876 0.0
H757 H 0.35135 0.43595 0.4914 0.0
H758 H 0.35836 0.49051 0.49755 0.0
H759 H 0.35173 0.53652 0.53599 0.0
H760 H 0.2843 0.53895 0.62794 0.0
H761 H 0.27511 0.48552 0.61882 0.0
C762 C 0.30404 0.44882 0.56858 0.0
C763 C 0.32025 0.43254 0.54015 0.0
C764 C 0.30751 0.48021 0.57183 0.0
C765 C 0.33878 0.4481 0.51363 0.0
C766 C 0.34289 0.47923 0.51729 0.0
C767 C 0.3343 0.52601 0.5535 0.0
C768 C 0.31969 0.54225 0.58378 0.0
C769 C 0.32803 0.49535 0.54707 0.0
C770 C 0.29728 0.52726 0.60577 0.0
C771 C 0.2916 0.49657 0.60027 0.0
H772 H 0.06854 0.78875 0.10757 0.0
H773 H 0.07123 0.8549 0.01525 0.0
H774 H 0.01668 0.86276 0.02145 0.0
H775 H 0.96959 0.85374 0.05689 0.0
H776 H 0.96552 0.7821 0.14282 0.0
H777 H 0.01945 0.77405 0.13586 0.0
C778 C 0.05702 0.8047 0.08868 0.0
C779 C 0.07371 0.82161 0.06145 0.0
C780 C 0.02561 0.80844 0.09164 0.0
C781 C 0.0587 0.84178 0.03652 0.0
C782 C 0.0276 0.84631 0.04016 0.0
C783 C 0.97996 0.83571 0.07348 0.0
C784 C 0.96296 0.81916 0.10115 0.0
C785 C 0.01091 0.83011 0.06811 0.0
C786 C 0.97772 0.79625 0.12246 0.0
C787 C 0.0087 0.79127 0.11818 0.0
H788 H 0.64167 0.56471 0.59008 0.0
H789 H 0.6711 0.54802 0.47181 0.0
H790 H 0.68067 0.49486 0.48799 0.0
H791 H 0.67786 0.45268 0.53565 0.0
H792 H 0.64655 0.47082 0.65331 0.0
H793 H 0.64131 0.52394 0.63786 0.0
C794 C 0.65053 0.54941 0.56803 0.0
C795 C 0.65597 0.55998 0.53001 0.0
C796 C 0.65585 0.51922 0.57759 0.0
C797 C 0.66739 0.54026 0.5015 0.0
C798 C 0.67263 0.50991 0.51072 0.0
C799 C 0.67013 0.46834 0.55791 0.0
C800 C 0.66283 0.4577 0.59566 0.0
C801 C 0.66661 0.49906 0.54865 0.0
C802 C 0.65298 0.47834 0.62428 0.0
C803 C 0.64962 0.50875 0.6154 0.0
H804 H 0.93113 0.16562 0.01637 0.0
H805 H 0.88971 0.16877 0.13069 0.0
H806 H 0.93967 0.16855 0.16129 0.0
H807 H 0.99504 0.16713 0.15506 0.0
H808 H 0.03557 0.17109 0.03986 0.0
H809 H 0.9858 0.17002 0.01 0.0
C810 C 0.93294 0.16735 0.04794 0.0
C811 C 0.90674 0.1681 0.07113 0.0
C812 C 0.96156 0.16852 0.06512 0.0
C813 C 0.90954 0.16847 0.11212 0.0
C814 C 0.93809 0.16847 0.1296 0.0
C815 C 0.99309 0.16839 0.12346 0.0
C816 C 0.01925 0.16868 0.09986 0.0
C817 C 0.96428 0.16861 0.10634 0.0
C818 C 0.01601 0.16996 0.05887 0.0
C819 C 0.98751 0.16953 0.04168 0.0
H820 H 0.19369 0.71261 0.06713 0.0
H821 H 0.26226 0.7806 0.055 0.0
H822 H 0.29785 0.74916 0.09152 0.0
H823 H 0.30405 0.70897 0.13978 0.0
H824 H 0.23684 0.63862 0.14821 0.0
H825 H 0.20592 0.66467 0.10015 0.0
C826 C 0.21689 0.7198 0.07097 0.0
C827 C 0.22544 0.74883 0.0591 0.0
C828 C 0.23697 0.70182 0.09244 0.0
C829 C 0.25539 0.75819 0.06392 0.0
C830 C 0.27555 0.74041 0.0853 0.0
C831 C 0.2833 0.6984 0.1303 0.0
C832 C 0.27227 0.6725 0.14957 0.0
C833 C 0.26586 0.71308 0.10179 0.0
C834 C 0.24527 0.65945 0.13591 0.0
C835 C 0.22763 0.67414 0.10795 0.0
H836 H 0.69783 0.66396 0.63199 0.0
H837 H 0.69697 0.73751 0.54925 0.0
H838 H 0.7278 0.76779 0.59351 0.0
H839 H 0.75423 0.77367 0.65635 0.0
H840 H 0.75595 0.69971 0.73832 0.0
H841 H 0.72577 0.66913 0.69356 0.0
C842 C 0.70436 0.68664 0.6237 0.0
C843 C 0.69496 0.69857 0.58762 0.0
C844 C 0.72229 0.70379 0.64908 0.0
C845 C 0.70391 0.72782 0.57694 0.0
C846 C 0.72149 0.74517 0.60223 0.0
C847 C 0.74789 0.75087 0.66436 0.0
C848 C 0.75709 0.73896 0.70056 0.0
C849 C 0.73066 0.73344 0.63846 0.0
C850 C 0.74922 0.70926 0.71045 0.0
C851 C 0.73187 0.69184 0.685 0.0
H852 H 0.7832 0.25175 0.04885 0.0
H853 H 0.77973 0.17807 0.13121 0.0
H854 H 0.75279 0.20975 0.17816 0.0
H855 H 0.73333 0.259 0.19746 0.0
H856 H 0.74047 0.33445 0.11859 0.0
H857 H 0.76296 0.30161 0.06835 0.0
C858 C 0.7762 0.24268 0.07695 0.0
C859 C 0.78336 0.21278 0.08681 0.0
C860 C 0.76163 0.26136 0.10434 0.0
C861 C 0.77457 0.20116 0.12329 0.0
C862 C 0.75918 0.21921 0.15007 0.0
C863 C 0.73944 0.2681 0.16902 0.0
C864 C 0.7351 0.29884 0.16132 0.0
C865 C 0.75306 0.24942 0.14114 0.0
C866 C 0.74363 0.31072 0.12486 0.0
C867 C 0.75644 0.292 0.09629 0.0
H868 H 0.22185 0.29462 0.55415 0.0
H869 H 0.3049 0.24421 0.55672 0.0
H870 H 0.28079 0.20475 0.5957 0.0
H871 H 0.23994 0.19181 0.64112 0.0
H872 H 0.15501 0.23953 0.63369 0.0
H873 H 0.17605 0.27281 0.58415 0.0
C874 C 0.23415 0.27429 0.56179 0.0
C875 C 0.26499 0.27221 0.55323 0.0
C876 C 0.22015 0.2518 0.58423 0.0
C877 C 0.28099 0.24599 0.56306 0.0
C878 C 0.26733 0.22366 0.58574 0.0
C879 C 0.22548 0.20863 0.62781 0.0
C880 C 0.19642 0.21415 0.64304 0.0
C881 C 0.23742 0.22729 0.59844 0.0
C882 C 0.17811 0.23586 0.62445 0.0
C883 C 0.18998 0.2548 0.59572 0.0
H884 H 0.677 0.72086 0.37846 0.0
H885 H 0.7331 0.73266 0.48022 0.0
H886 H 0.76389 0.76979 0.44462 0.0
H887 H 0.77723 0.79517 0.3818 0.0
H888 H 0.71925 0.78304 0.28162 0.0
H889 H 0.68677 0.74958 0.31925 0.0
C890 C 0.69582 0.73181 0.39294 0.0
C891 C 0.70323 0.72392 0.43146 0.0
C892 C 0.71316 0.7528 0.37243 0.0
C893 C 0.72714 0.73856 0.45041 0.0
C894 C 0.74481 0.75953 0.42999 0.0
C895 C 0.75729 0.78536 0.36859 0.0
C896 C 0.75057 0.7914 0.32913 0.0
C897 C 0.73847 0.76623 0.39059 0.0
C898 C 0.72465 0.77882 0.3121 0.0
C899 C 0.70616 0.75963 0.33349 0.0
H900 H 0.72059 0.20405 0.95082 0.0
H901 H 0.79666 0.26392 0.94205 0.0
H902 H 0.76494 0.30243 0.9117 0.0
H903 H 0.71996 0.31242 0.87333 0.0
H904 H 0.64211 0.25443 0.88497 0.0
H905 H 0.67028 0.22178 0.92907 0.0
C906 C 0.72971 0.2261 0.94385 0.0
C907 C 0.76069 0.23136 0.94802 0.0
C908 C 0.7114 0.24793 0.92597 0.0
C909 C 0.77269 0.25971 0.93898 0.0
C910 C 0.75465 0.28154 0.92129 0.0
C911 C 0.70837 0.29351 0.88656 0.0
C912 C 0.67939 0.28508 0.8737 0.0
C913 C 0.72449 0.27504 0.9124 0.0
C914 C 0.66506 0.26056 0.89224 0.0
C915 C 0.68105 0.24192 0.91782 0.0
H916 H 0.24634 0.28596 0.41683 0.0
H917 H 0.316 0.22355 0.45036 0.0
H918 H 0.28852 0.18211 0.41894 0.0
H919 H 0.24965 0.16632 0.3718 0.0
H920 H 0.18506 0.23228 0.33053 0.0
H921 H 0.20455 0.26894 0.37611 0.0
C922 C 0.25475 0.263 0.4185 0.0
C923 C 0.28273 0.25745 0.43594 0.0
C924 C 0.23981 0.23992 0.3984 0.0
C925 C 0.29414 0.22798 0.4374 0.0
C926 C 0.27862 0.20446 0.41904 0.0
C927 C 0.2397 0.18863 0.37281 0.0
C928 C 0.21605 0.19626 0.34703 0.0
C929 C 0.25225 0.21055 0.39765 0.0
C930 C 0.20294 0.22516 0.34999 0.0
C931 C 0.21435 0.24653 0.37587 0.0
H932 H 0.26318 0.81804 0.90399 0.0
H933 H 0.23309 0.7409 0.96988 0.0
H934 H 0.26967 0.70888 0.93501 0.0
H935 H 0.30451 0.70205 0.8785 0.0
H936 H 0.32947 0.78018 0.80987 0.0
H937 H 0.30128 0.81241 0.85358 0.0
C938 C 0.26505 0.79429 0.91131 0.0
C939 C 0.24526 0.7817 0.93893 0.0
C940 C 0.28513 0.77609 0.89028 0.0
C941 C 0.24817 0.75108 0.94869 0.0
C942 C 0.26882 0.73276 0.92839 0.0
C943 C 0.30396 0.72613 0.87322 0.0
C944 C 0.31927 0.73835 0.84051 0.0
C945 C 0.28649 0.74482 0.89786 0.0
C946 C 0.31864 0.76981 0.83489 0.0
C947 C 0.30212 0.78844 0.85973 0.0
loop_
_geom_bond_atom_site_label_1
_geom_bond_atom_site_label_2
_geom_bond_distance
_geom_bond_site_symmetry_2
_ccdc_geom_bond_type
Zn0 O6 1.920 . S
Zn0 O12 1.898 . S
Zn0 O15 1.905 . S
Zn1 O9 1.905 . S
Zn1 O10 1.898 . S
Zn1 O18 1.920 . S
Zn2 O5 2.080 . S
Zn2 O8 2.114 1_554 S
Zn2 O11 2.120 1_554 S
Zn2 O13 2.120 . S
Zn2 O14 2.114 . S
Zn2 O17 2.080 1_554 S
C3 O8 1.166 . S
C3 O9 1.182 . S
C4 O10 1.167 . S
C4 O11 1.299 . S
O5 Zn2 2.080 . S
O5 C19 1.305 . S
O6 Zn0 1.920 . S
O6 C19 1.234 . S
C7 O12 1.167 . S
C7 O13 1.299 . S
O8 Zn2 2.114 1_556 S
O8 C3 1.166 . S
O9 Zn1 1.905 . S
O9 C3 1.182 . S
O10 Zn1 1.898 . S
O10 C4 1.167 . S
O11 Zn2 2.120 1_556 S
O11 C4 1.299 . S
O12 Zn0 1.898 . S
O12 C7 1.167 . S
O13 Zn2 2.120 . S
O13 C7 1.299 . S
O14 Zn2 2.114 . S
O14 C16 1.166 . S
O15 Zn0 1.905 . S
O15 C16 1.182 . S
C16 O14 1.166 . S
C16 O15 1.182 . S
O17 Zn2 2.080 1_556 S
O17 C20 1.305 . S
O18 Zn1 1.920 . S
O18 C20 1.234 . S
C19 O5 1.305 . S
C19 O6 1.234 . S
C20 O17 1.305 . S
C20 O18 1.234 . S
Zn21 O27 1.920 . S
Zn21 O33 1.898 . S
Zn21 O36 1.905 . S
Zn22 O30 1.905 . S
Zn22 O31 1.898 . S
Zn22 O39 1.920 . S
Zn23 O26 2.080 . S
Zn23 O29 2.114 . S
Zn23 O32 2.120 . S
Zn23 O34 2.120 . S
Zn23 O35 2.114 . S
Zn23 O38 2.080 . S
C24 O29 1.166 . S
C24 O30 1.182 . S
C25 O31 1.167 . S
C25 O32 1.299 . S
O26 Zn23 2.080 . S
O26 C40 1.305 . S
O27 Zn21 1.920 . S
O27 C40 1.234 . S
C28 O33 1.167 . S
C28 O34 1.299 . S
O29 Zn23 2.114 . S
O29 C24 1.166 . S
O30 Zn22 1.905 . S
O30 C24 1.182 . S
O31 Zn22 1.898 . S
O31 C25 1.167 . S
O32 Zn23 2.120 . S
O32 C25 1.299 . S
O33 Zn21 1.898 . S
O33 C28 1.167 . S
O34 Zn23 2.120 . S
O34 C28 1.299 . S
O35 Zn23 2.114 . S
O35 C37 1.166 . S
O36 Zn21 1.905 . S
O36 C37 1.182 . S
C37 O35 1.166 . S
C37 O36 1.182 . S
O38 Zn23 2.080 . S
O38 C41 1.305 . S
O39 Zn22 1.920 . S
O39 C41 1.234 . S
C40 O26 1.305 . S
C40 O27 1.234 . S
C41 O38 1.305 . S
C41 O39 1.234 . S
Zn42 O48 1.920 . S
Zn42 O54 1.898 . S
Zn42 O57 1.905 . S
Zn43 O51 1.905 . S
Zn43 O52 1.898 . S
Zn43 O60 1.920 . S
Zn44 O47 2.080 1_554 S
Zn44 O50 2.114 . S
Zn44 O53 2.120 . S
Zn44 O55 2.120 1_554 S
Zn44 O56 2.114 1_554 S
Zn44 O59 2.080 . S
C45 O50 1.166 . S
C45 O51 1.182 . S
C46 O52 1.167 . S
C46 O53 1.299 . S
O47 Zn44 2.080 1_556 S
O47 C61 1.305 . S
O48 Zn42 1.920 . S
O48 C61 1.234 . S
C49 O54 1.167 . S
C49 O55 1.299 . S
O50 Zn44 2.114 . S
O50 C45 1.166 . S
O51 Zn43 1.905 . S
O51 C45 1.182 . S
O52 Zn43 1.898 . S
O52 C46 1.167 . S
O53 Zn44 2.120 . S
O53 C46 1.299 . S
O54 Zn42 1.898 . S
O54 C49 1.167 . S
O55 Zn44 2.120 1_556 S
O55 C49 1.299 . S
O56 Zn44 2.114 1_556 S
O56 C58 1.166 . S
O57 Zn42 1.905 . S
O57 C58 1.182 . S
C58 O56 1.166 . S
C58 O57 1.182 . S
O59 Zn44 2.080 . S
O59 C62 1.305 . S
O60 Zn43 1.920 . S
O60 C62 1.234 . S
C61 O47 1.305 . S
C61 O48 1.234 . S
C62 O59 1.305 . S
C62 O60 1.234 . S
Zn63 O69 1.920 . S
Zn63 O75 1.898 . S
Zn63 O78 1.905 . S
Zn64 O72 1.905 . S
Zn64 O73 1.898 . S
Zn64 O81 1.920 . S
Zn65 O68 2.080 . S
Zn65 O71 2.114 . S
Zn65 O74 2.120 . S
Zn65 O76 2.120 . S
Zn65 O77 2.114 . S
Zn65 O80 2.080 . S
C66 O71 1.166 . S
C66 O72 1.182 . S
C67 O73 1.167 . S
C67 O74 1.299 . S
O68 Zn65 2.080 . S
O68 C82 1.305 . S
O69 Zn63 1.920 . S
O69 C82 1.234 . S
C70 O75 1.167 . S
C70 O76 1.299 . S
O71 Zn65 2.114 . S
O71 C66 1.166 . S
O72 Zn64 1.905 . S
O72 C66 1.182 . S
O73 Zn64 1.898 . S
O73 C67 1.167 . S
O74 Zn65 2.120 . S
O74 C67 1.299 . S
O75 Zn63 1.898 . S
O75 C70 1.167 . S
O76 Zn65 2.120 . S
O76 C70 1.299 . S
O77 Zn65 2.114 . S
O77 C79 1.166 . S
O78 Zn63 1.905 . S
O78 C79 1.182 . S
C79 O77 1.166 . S
C79 O78 1.182 . S
O80 Zn65 2.080 . S
O80 C83 1.305 . S
O81 Zn64 1.920 . S
O81 C83 1.234 . S
C82 O68 1.305 . S
C82 O69 1.234 . S
C83 O80 1.305 . S
C83 O81 1.234 . S
C84 C85 1.391 . S
C84 C88 1.391 . S
C84 H126 0.948 . S
C85 C84 1.391 . S
C85 C86 1.391 . S
C86 C85 1.391 . S
C86 H142 0.947 . S
C86 C143 1.392 . S
C87 C88 1.391 . S
C87 C91 1.397 . S
C87 C143 1.419 . S
C88 C84 1.391 . S
C88 C87 1.391 . S
C88 C89 1.399 . S
C89 C88 1.399 . S
C89 C92 1.396 . S
C89 C101 1.453 . S
C89 C102 1.684 . S
H90 C114 0.948 . S
C91 C87 1.397 . S
C91 C92 1.394 . S
C91 C110 1.723 . S
C92 C89 1.396 . S
C92 C91 1.394 . S
C92 C122 1.723 . S
H93 C116 0.947 . S
H94 C117 0.948 . S
H95 C123 0.982 . S
H96 C124 0.979 . S
H97 C124 0.980 . S
H98 C124 0.983 . S
H99 C123 0.979 . S
H100 C123 0.977 . S
C101 C89 1.453 . S
C101 H130 0.982 . S
C101 H131 0.979 . S
C101 H132 0.977 . S
C102 C89 1.684 . S
C102 H127 0.979 . S
C102 H128 0.980 . S
C102 H129 0.983 . S
C103 C104 1.391 . S
C103 C108 1.391 . S
C103 H133 0.948 . S
C104 C103 1.391 . S
C104 C105 1.391 . S
C105 C104 1.391 . S
C105 C106 1.392 . S
C105 H134 0.947 . S
C106 C105 1.392 . S
C106 C107 1.419 . S
C106 H135 0.948 . S
C107 C106 1.419 . S
C107 C108 1.391 . S
C107 C111 1.397 . S
C108 C103 1.391 . S
C108 C107 1.391 . S
C108 C109 1.399 . S
C109 C108 1.399 . S
C109 C110 1.396 . S
C109 C112 1.453 . S
C109 C113 1.684 . S
C110 C91 1.723 . S
C110 C109 1.396 . S
C110 C111 1.394 . S
C111 C107 1.397 . S
C111 C110 1.394 . S
C111 C121 1.723 . S
C112 C109 1.453 . S
C112 H136 0.982 . S
C112 H137 0.979 . S
C112 H138 0.977 . S
C113 C109 1.684 . S
C113 H139 0.979 . S
C113 H140 0.980 . S
C113 H141 0.983 . S
C114 H90 0.948 . S
C114 C115 1.391 . S
C114 C119 1.391 . S
C115 C114 1.391 . S
C115 C116 1.391 . S
C116 H93 0.947 . S
C116 C115 1.391 . S
C116 C117 1.392 . S
C117 H94 0.948 . S
C117 C116 1.392 . S
C117 C118 1.419 . S
C118 C117 1.419 . S
C118 C119 1.391 . S
C118 C122 1.397 . S
C119 C114 1.391 . S
C119 C118 1.391 . S
C119 C120 1.399 . S
C120 C119 1.399 . S
C120 C121 1.396 . S
C120 C123 1.453 . S
C120 C124 1.684 . S
C121 C111 1.723 . S
C121 C120 1.396 . S
C121 C122 1.394 . S
C122 C92 1.723 . S
C122 C118 1.397 . S
C122 C121 1.394 . S
C123 H95 0.982 . S
C123 H99 0.979 . S
C123 H100 0.977 . S
C123 C120 1.453 . S
C124 H96 0.979 . S
C124 H97 0.980 . S
C124 H98 0.983 . S
C124 C120 1.684 . S
H125 C143 0.948 . S
H126 C84 0.948 . S
H127 C102 0.979 . S
H128 C102 0.980 . S
H129 C102 0.983 . S
H130 C101 0.982 . S
H131 C101 0.979 . S
H132 C101 0.977 . S
H133 C103 0.948 . S
H134 C105 0.947 . S
H135 C106 0.948 . S
H136 C112 0.982 . S
H137 C112 0.979 . S
H138 C112 0.977 . S
H139 C113 0.979 . S
H140 C113 0.980 . S
H141 C113 0.983 . S
H142 C86 0.947 . S
C143 C86 1.392 . S
C143 C87 1.419 . S
C143 H125 0.948 . S
C144 C145 1.391 . S
C144 C148 1.391 . S
C144 H186 0.948 . S
C145 C144 1.391 . S
C145 C146 1.391 . S
C146 C145 1.391 . S
C146 H202 0.947 . S
C146 C203 1.392 . S
C147 C148 1.391 . S
C147 C151 1.397 . S
C147 C203 1.419 . S
C148 C144 1.391 . S
C148 C147 1.391 . S
C148 C149 1.399 . S
C149 C148 1.399 . S
C149 C152 1.396 . S
C149 C161 1.453 . S
C149 C162 1.684 . S
H150 C174 0.948 . S
C151 C147 1.397 . S
C151 C152 1.394 . S
C151 C170 1.723 . S
C152 C149 1.396 . S
C152 C151 1.394 . S
C152 C182 1.723 . S
H153 C176 0.947 . S
H154 C177 0.948 . S
H155 C183 0.982 . S
H156 C184 0.979 . S
H157 C184 0.980 . S
H158 C184 0.983 . S
H159 C183 0.979 . S
H160 C183 0.977 . S
C161 C149 1.453 . S
C161 H190 0.982 . S
C161 H191 0.979 . S
C161 H192 0.977 . S
C162 C149 1.684 . S
C162 H187 0.979 . S
C162 H188 0.980 . S
C162 H189 0.983 . S
C163 C164 1.391 . S
C163 C168 1.391 . S
C163 H193 0.948 . S
C164 C163 1.391 . S
C164 C165 1.391 . S
C165 C164 1.391 . S
C165 C166 1.392 . S
C165 H194 0.947 . S
C166 C165 1.392 . S
C166 C167 1.419 . S
C166 H195 0.948 . S
C167 C166 1.419 . S
C167 C168 1.391 . S
C167 C171 1.397 . S
C168 C163 1.391 . S
C168 C167 1.391 . S
C168 C169 1.399 . S
C169 C168 1.399 . S
C169 C170 1.396 . S
C169 C172 1.453 . S
C169 C173 1.684 . S
C170 C151 1.723 . S
C170 C169 1.396 . S
C170 C171 1.394 . S
C171 C167 1.397 . S
C171 C170 1.394 . S
C171 C181 1.723 . S
C172 C169 1.453 . S
C172 H196 0.982 . S
C172 H197 0.979 . S
C172 H198 0.977 . S
C173 C169 1.684 . S
C173 H199 0.979 . S
C173 H200 0.980 . S
C173 H201 0.983 . S
C174 H150 0.948 . S
C174 C175 1.391 . S
C174 C179 1.391 . S
C175 C174 1.391 . S
C175 C176 1.391 . S
C176 H153 0.947 . S
C176 C175 1.391 . S
C176 C177 1.392 . S
C177 H154 0.948 . S
C177 C176 1.392 . S
C177 C178 1.419 . S
C178 C177 1.419 . S
C178 C179 1.391 . S
C178 C182 1.397 . S
C179 C174 1.391 . S
C179 C178 1.391 . S
C179 C180 1.399 . S
C180 C179 1.399 . S
C180 C181 1.396 . S
C180 C183 1.453 . S
C180 C184 1.684 . S
C181 C171 1.723 . S
C181 C180 1.396 . S
C181 C182 1.394 . S
C182 C152 1.723 . S
C182 C178 1.397 . S
C182 C181 1.394 . S
C183 H155 0.982 . S
C183 H159 0.979 . S
C183 H160 0.977 . S
C183 C180 1.453 . S
C184 H156 0.979 . S
C184 H157 0.980 . S
C184 H158 0.983 . S
C184 C180 1.684 . S
H185 C203 0.948 . S
H186 C144 0.948 . S
H187 C162 0.979 . S
H188 C162 0.980 . S
H189 C162 0.983 . S
H190 C161 0.982 . S
H191 C161 0.979 . S
H192 C161 0.977 . S
H193 C163 0.948 . S
H194 C165 0.947 . S
H195 C166 0.948 . S
H196 C172 0.982 . S
H197 C172 0.979 . S
H198 C172 0.977 . S
H199 C173 0.979 . S
H200 C173 0.980 . S
H201 C173 0.983 . S
H202 C146 0.947 . S
C203 C146 1.392 . S
C203 C147 1.419 . S
C203 H185 0.948 . S
C204 C205 1.391 . S
C204 C208 1.391 . S
C204 H246 0.948 . S
C205 C204 1.391 . S
C205 C206 1.391 . S
C206 C205 1.391 . S
C206 H262 0.947 . S
C206 C263 1.392 . S
C207 C208 1.391 . S
C207 C211 1.397 . S
C207 C263 1.419 . S
C208 C204 1.391 . S
C208 C207 1.391 . S
C208 C209 1.399 . S
C209 C208 1.399 . S
C209 C212 1.396 . S
C209 C221 1.453 . S
C209 C222 1.684 . S
H210 C234 0.948 . S
C211 C207 1.397 . S
C211 C212 1.394 . S
C211 C230 1.723 . S
C212 C209 1.396 . S
C212 C211 1.394 . S
C212 C242 1.723 . S
H213 C236 0.947 . S
H214 C237 0.948 . S
H215 C243 0.982 . S
H216 C244 0.979 . S
H217 C244 0.980 . S
H218 C244 0.983 . S
H219 C243 0.979 . S
H220 C243 0.977 . S
C221 C209 1.453 . S
C221 H250 0.982 . S
C221 H251 0.979 . S
C221 H252 0.977 . S
C222 C209 1.684 . S
C222 H247 0.979 . S
C222 H248 0.980 . S
C222 H249 0.983 . S
C223 C224 1.391 . S
C223 C228 1.391 . S
C223 H253 0.948 . S
C224 C223 1.391 . S
C224 C225 1.391 . S
C225 C224 1.391 . S
C225 C226 1.392 . S
C225 H254 0.947 . S
C226 C225 1.392 . S
C226 C227 1.419 . S
C226 H255 0.948 . S
C227 C226 1.419 . S
C227 C228 1.391 . S
C227 C231 1.397 . S
C228 C223 1.391 . S
C228 C227 1.391 . S
C228 C229 1.399 . S
C229 C228 1.399 . S
C229 C230 1.396 . S
C229 C232 1.453 . S
C229 C233 1.684 . S
C230 C211 1.723 . S
C230 C229 1.396 . S
C230 C231 1.394 . S
C231 C227 1.397 . S
C231 C230 1.394 . S
C231 C241 1.723 . S
C232 C229 1.453 . S
C232 H256 0.982 . S
C232 H257 0.979 . S
C232 H258 0.977 . S
C233 C229 1.684 . S
C233 H259 0.979 . S
C233 H260 0.980 . S
C233 H261 0.983 . S
C234 H210 0.948 . S
C234 C235 1.391 . S
C234 C239 1.391 . S
C235 C234 1.391 . S
C235 C236 1.391 . S
C236 H213 0.947 . S
C236 C235 1.391 . S
C236 C237 1.392 . S
C237 H214 0.948 . S
C237 C236 1.392 . S
C237 C238 1.419 . S
C238 C237 1.419 . S
C238 C239 1.391 . S
C238 C242 1.397 . S
C239 C234 1.391 . S
C239 C238 1.391 . S
C239 C240 1.399 . S
C240 C239 1.399 . S
C240 C241 1.396 . S
C240 C243 1.453 . S
C240 C244 1.684 . S
C241 C231 1.723 . S
C241 C240 1.396 . S
C241 C242 1.394 . S
C242 C212 1.723 . S
C242 C238 1.397 . S
C242 C241 1.394 . S
C243 H215 0.982 . S
C243 H219 0.979 . S
C243 H220 0.977 . S
C243 C240 1.453 . S
C244 H216 0.979 . S
C244 H217 0.980 . S
C244 H218 0.983 . S
C244 C240 1.684 . S
H245 C263 0.948 . S
H246 C204 0.948 . S
H247 C222 0.979 . S
H248 C222 0.980 . S
H249 C222 0.983 . S
H250 C221 0.982 . S
H251 C221 0.979 . S
H252 C221 0.977 . S
H253 C223 0.948 . S
H254 C225 0.947 . S
H255 C226 0.948 . S
H256 C232 0.982 . S
H257 C232 0.979 . S
H258 C232 0.977 . S
H259 C233 0.979 . S
H260 C233 0.980 . S
H261 C233 0.983 . S
H262 C206 0.947 . S
C263 C206 1.392 . S
C263 C207 1.419 . S
C263 H245 0.948 . S
C264 C265 1.391 . S
C264 C268 1.391 . S
C264 H306 0.948 . S
C265 C264 1.391 . S
C265 C266 1.391 . S
C266 C265 1.391 . S
C266 H322 0.947 . S
C266 C323 1.392 . S
C267 C268 1.391 . S
C267 C271 1.397 . S
C267 C323 1.419 . S
C268 C264 1.391 . S
C268 C267 1.391 . S
C268 C269 1.399 . S
C269 C268 1.399 . S
C269 C272 1.396 . S
C269 C281 1.453 . S
C269 C282 1.684 . S
H270 C294 0.948 . S
C271 C267 1.397 . S
C271 C272 1.394 . S
C271 C290 1.723 . S
C272 C269 1.396 . S
C272 C271 1.394 . S
C272 C302 1.723 . S
H273 C296 0.947 . S
H274 C297 0.948 . S
H275 C303 0.982 . S
H276 C304 0.979 . S
H277 C304 0.980 . S
H278 C304 0.983 . S
H279 C303 0.979 . S
H280 C303 0.977 . S
C281 C269 1.453 . S
C281 H310 0.982 . S
C281 H311 0.979 . S
C281 H312 0.977 . S
C282 C269 1.684 . S
C282 H307 0.979 . S
C282 H308 0.980 . S
C282 H309 0.983 . S
C283 C284 1.391 . S
C283 C288 1.391 . S
C283 H313 0.948 . S
C284 C283 1.391 . S
C284 C285 1.391 . S
C285 C284 1.391 . S
C285 C286 1.392 . S
C285 H314 0.947 . S
C286 C285 1.392 . S
C286 C287 1.419 . S
C286 H315 0.948 . S
C287 C286 1.419 . S
C287 C288 1.391 . S
C287 C291 1.397 . S
C288 C283 1.391 . S
C288 C287 1.391 . S
C288 C289 1.399 . S
C289 C288 1.399 . S
C289 C290 1.396 . S
C289 C292 1.453 . S
C289 C293 1.684 . S
C290 C271 1.723 . S
C290 C289 1.396 . S
C290 C291 1.394 . S
C291 C287 1.397 . S
C291 C290 1.394 . S
C291 C301 1.723 . S
C292 C289 1.453 . S
C292 H316 0.982 . S
C292 H317 0.979 . S
C292 H318 0.977 . S
C293 C289 1.684 . S
C293 H319 0.979 . S
C293 H320 0.980 . S
C293 H321 0.983 . S
C294 H270 0.948 . S
C294 C295 1.391 . S
C294 C299 1.391 . S
C295 C294 1.391 . S
C295 C296 1.391 . S
C296 H273 0.947 . S
C296 C295 1.391 . S
C296 C297 1.392 . S
C297 H274 0.948 . S
C297 C296 1.392 . S
C297 C298 1.419 . S
C298 C297 1.419 . S
C298 C299 1.391 . S
C298 C302 1.397 . S
C299 C294 1.391 . S
C299 C298 1.391 . S
C299 C300 1.399 . S
C300 C299 1.399 . S
C300 C301 1.396 . S
C300 C303 1.453 . S
C300 C304 1.684 . S
C301 C291 1.723 . S
C301 C300 1.396 . S
C301 C302 1.394 . S
C302 C272 1.723 . S
C302 C298 1.397 . S
C302 C301 1.394 . S
C303 H275 0.982 . S
C303 H279 0.979 . S
C303 H280 0.977 . S
C303 C300 1.453 . S
C304 H276 0.979 . S
C304 H277 0.980 . S
C304 H278 0.983 . S
C304 C300 1.684 . S
H305 C323 0.948 . S
H306 C264 0.948 . S
H307 C282 0.979 . S
H308 C282 0.980 . S
H309 C282 0.983 . S
H310 C281 0.982 . S
H311 C281 0.979 . S
H312 C281 0.977 . S
H313 C283 0.948 . S
H314 C285 0.947 . S
H315 C286 0.948 . S
H316 C292 0.982 . S
H317 C292 0.979 . S
H318 C292 0.977 . S
H319 C293 0.979 . S
H320 C293 0.980 . S
H321 C293 0.983 . S
H322 C266 0.947 . S
C323 C266 1.392 . S
C323 C267 1.419 . S
C323 H305 0.948 . S
C324 C325 1.391 . S
C324 C328 1.391 . S
C324 H366 0.948 . S
C325 C324 1.391 . S
C325 C326 1.391 . S
C326 C325 1.391 . S
C326 H382 0.947 . S
C326 C383 1.392 . S
C327 C328 1.391 . S
C327 C331 1.397 . S
C327 C383 1.419 . S
C328 C324 1.391 . S
C328 C327 1.391 . S
C328 C329 1.399 . S
C329 C328 1.399 . S
C329 C332 1.396 . S
C329 C341 1.453 . S
C329 C342 1.684 . S
H330 C354 0.948 . S
C331 C327 1.397 . S
C331 C332 1.394 . S
C331 C350 1.723 . S
C332 C329 1.396 . S
C332 C331 1.394 . S
C332 C362 1.723 . S
H333 C356 0.947 . S
H334 C357 0.948 . S
H335 C363 0.982 . S
H336 C364 0.979 . S
H337 C364 0.980 . S
H338 C364 0.983 . S
H339 C363 0.979 . S
H340 C363 0.977 . S
C341 C329 1.453 . S
C341 H370 0.982 . S
C341 H371 0.979 . S
C341 H372 0.977 . S
C342 C329 1.684 . S
C342 H367 0.979 . S
C342 H368 0.980 . S
C342 H369 0.983 . S
C343 C344 1.391 . S
C343 C348 1.391 . S
C343 H373 0.948 . S
C344 C343 1.391 . S
C344 C345 1.391 . S
C345 C344 1.391 . S
C345 C346 1.392 . S
C345 H374 0.947 . S
C346 C345 1.392 . S
C346 C347 1.419 . S
C346 H375 0.948 . S
C347 C346 1.419 . S
C347 C348 1.391 . S
C347 C351 1.397 . S
C348 C343 1.391 . S
C348 C347 1.391 . S
C348 C349 1.399 . S
C349 C348 1.399 . S
C349 C350 1.396 . S
C349 C352 1.453 . S
C349 C353 1.684 . S
C350 C331 1.723 . S
C350 C349 1.396 . S
C350 C351 1.394 . S
C351 C347 1.397 . S
C351 C350 1.394 . S
C351 C361 1.723 . S
C352 C349 1.453 . S
C352 H376 0.982 . S
C352 H377 0.979 . S
C352 H378 0.977 . S
C353 C349 1.684 . S
C353 H379 0.979 . S
C353 H380 0.980 . S
C353 H381 0.983 . S
C354 H330 0.948 . S
C354 C355 1.391 . S
C354 C359 1.391 . S
C355 C354 1.391 . S
C355 C356 1.391 . S
C356 H333 0.947 . S
C356 C355 1.391 . S
C356 C357 1.392 . S
C357 H334 0.948 . S
C357 C356 1.392 . S
C357 C358 1.419 . S
C358 C357 1.419 . S
C358 C359 1.391 . S
C358 C362 1.397 . S
C359 C354 1.391 . S
C359 C358 1.391 . S
C359 C360 1.399 . S
C360 C359 1.399 . S
C360 C361 1.396 . S
C360 C363 1.453 . S
C360 C364 1.684 . S
C361 C351 1.723 . S
C361 C360 1.396 . S
C361 C362 1.394 . S
C362 C332 1.723 . S
C362 C358 1.397 . S
C362 C361 1.394 . S
C363 H335 0.982 . S
C363 H339 0.979 . S
C363 H340 0.977 . S
C363 C360 1.453 . S
C364 H336 0.979 . S
C364 H337 0.980 . S
C364 H338 0.983 . S
C364 C360 1.684 . S
H365 C383 0.948 . S
H366 C324 0.948 . S
H367 C342 0.979 . S
H368 C342 0.980 . S
H369 C342 0.983 . S
H370 C341 0.982 . S
H371 C341 0.979 . S
H372 C341 0.977 . S
H373 C343 0.948 . S
H374 C345 0.947 . S
H375 C346 0.948 . S
H376 C352 0.982 . S
H377 C352 0.979 . S
H378 C352 0.977 . S
H379 C353 0.979 . S
H380 C353 0.980 . S
H381 C353 0.983 . S
H382 C326 0.947 . S
C383 C326 1.392 . S
C383 C327 1.419 . S
C383 H365 0.948 . S
C384 C385 1.391 . S
C384 C388 1.391 . S
C384 H426 0.948 . S
C385 C384 1.391 . S
C385 C386 1.391 . S
C386 C385 1.391 . S
C386 H442 0.947 . S
C386 C443 1.392 . S
C387 C388 1.391 . S
C387 C391 1.397 . S
C387 C443 1.419 . S
C388 C384 1.391 . S
C388 C387 1.391 . S
C388 C389 1.399 . S
C389 C388 1.399 . S
C389 C392 1.396 . S
C389 C401 1.453 . S
C389 C402 1.684 . S
H390 C414 0.948 . S
C391 C387 1.397 . S
C391 C392 1.394 . S
C391 C410 1.723 . S
C392 C389 1.396 . S
C392 C391 1.394 . S
C392 C422 1.723 . S
H393 C416 0.947 . S
H394 C417 0.948 . S
H395 C423 0.982 . S
H396 C424 0.979 . S
H397 C424 0.980 . S
H398 C424 0.983 . S
H399 C423 0.979 . S
H400 C423 0.977 . S
C401 C389 1.453 . S
C401 H430 0.982 . S
C401 H431 0.979 . S
C401 H432 0.977 . S
C402 C389 1.684 . S
C402 H427 0.979 . S
C402 H428 0.980 . S
C402 H429 0.983 . S
C403 C404 1.391 . S
C403 C408 1.391 . S
C403 H433 0.948 . S
C404 C403 1.391 . S
C404 C405 1.391 . S
C405 C404 1.391 . S
C405 C406 1.392 . S
C405 H434 0.947 . S
C406 C405 1.392 . S
C406 C407 1.419 . S
C406 H435 0.948 . S
C407 C406 1.419 . S
C407 C408 1.391 . S
C407 C411 1.397 . S
C408 C403 1.391 . S
C408 C407 1.391 . S
C408 C409 1.399 . S
C409 C408 1.399 . S
C409 C410 1.396 . S
C409 C412 1.453 . S
C409 C413 1.684 . S
C410 C391 1.723 . S
C410 C409 1.396 . S
C410 C411 1.394 . S
C411 C407 1.397 . S
C411 C410 1.394 . S
C411 C421 1.723 . S
C412 C409 1.453 . S
C412 H436 0.982 . S
C412 H437 0.979 . S
C412 H438 0.977 . S
C413 C409 1.684 . S
C413 H439 0.979 . S
C413 H440 0.980 . S
C413 H441 0.983 . S
C414 H390 0.948 . S
C414 C415 1.391 . S
C414 C419 1.391 . S
C415 C414 1.391 . S
C415 C416 1.391 . S
C416 H393 0.947 . S
C416 C415 1.391 . S
C416 C417 1.392 . S
C417 H394 0.948 . S
C417 C416 1.392 . S
C417 C418 1.419 . S
C418 C417 1.419 . S
C418 C419 1.391 . S
C418 C422 1.397 . S
C419 C414 1.391 . S
C419 C418 1.391 . S
C419 C420 1.399 . S
C420 C419 1.399 . S
C420 C421 1.396 . S
C420 C423 1.453 . S
C420 C424 1.684 . S
C421 C411 1.723 . S
C421 C420 1.396 . S
C421 C422 1.394 . S
C422 C392 1.723 . S
C422 C418 1.397 . S
C422 C421 1.394 . S
C423 H395 0.982 . S
C423 H399 0.979 . S
C423 H400 0.977 . S
C423 C420 1.453 . S
C424 H396 0.979 . S
C424 H397 0.980 . S
C424 H398 0.983 . S
C424 C420 1.684 . S
H425 C443 0.948 . S
H426 C384 0.948 . S
H427 C402 0.979 . S
H428 C402 0.980 . S
H429 C402 0.983 . S
H430 C401 0.982 . S
H431 C401 0.979 . S
H432 C401 0.977 . S
H433 C403 0.948 . S
H434 C405 0.947 . S
H435 C406 0.948 . S
H436 C412 0.982 . S
H437 C412 0.979 . S
H438 C412 0.977 . S
H439 C413 0.979 . S
H440 C413 0.980 . S
H441 C413 0.983 . S
H442 C386 0.947 . S
C443 C386 1.392 . S
C443 C387 1.419 . S
C443 H425 0.948 . S
C444 C445 1.391 . S
C444 C448 1.391 . S
C444 H486 0.948 . S
C445 C444 1.391 . S
C445 C446 1.391 . S
C446 C445 1.391 . S
C446 H502 0.947 . S
C446 C503 1.392 . S
C447 C448 1.391 . S
C447 C451 1.397 . S
C447 C503 1.419 . S
C448 C444 1.391 . S
C448 C447 1.391 . S
C448 C449 1.399 . S
C449 C448 1.399 . S
C449 C452 1.396 . S
C449 C461 1.453 . S
C449 C462 1.684 . S
H450 C474 0.948 . S
C451 C447 1.397 . S
C451 C452 1.394 . S
C451 C470 1.723 . S
C452 C449 1.396 . S
C452 C451 1.394 . S
C452 C482 1.723 . S
H453 C476 0.947 . S
H454 C477 0.948 . S
H455 C483 0.982 . S
H456 C484 0.979 . S
H457 C484 0.980 . S
H458 C484 0.983 . S
H459 C483 0.979 . S
H460 C483 0.977 . S
C461 C449 1.453 . S
C461 H490 0.982 . S
C461 H491 0.979 . S
C461 H492 0.977 . S
C462 C449 1.684 . S
C462 H487 0.979 . S
C462 H488 0.980 . S
C462 H489 0.983 . S
C463 C464 1.391 . S
C463 C468 1.391 . S
C463 H493 0.948 . S
C464 C463 1.391 . S
C464 C465 1.391 . S
C465 C464 1.391 . S
C465 C466 1.392 . S
C465 H494 0.947 . S
C466 C465 1.392 . S
C466 C467 1.419 . S
C466 H495 0.948 . S
C467 C466 1.419 . S
C467 C468 1.391 . S
C467 C471 1.397 . S
C468 C463 1.391 . S
C468 C467 1.391 . S
C468 C469 1.399 . S
C469 C468 1.399 . S
C469 C470 1.396 . S
C469 C472 1.453 . S
C469 C473 1.684 . S
C470 C451 1.723 . S
C470 C469 1.396 . S
C470 C471 1.394 . S
C471 C467 1.397 . S
C471 C470 1.394 . S
C471 C481 1.723 . S
C472 C469 1.453 . S
C472 H496 0.982 . S
C472 H497 0.979 . S
C472 H498 0.977 . S
C473 C469 1.684 . S
C473 H499 0.979 . S
C473 H500 0.980 . S
C473 H501 0.983 . S
C474 H450 0.948 . S
C474 C475 1.391 . S
C474 C479 1.391 . S
C475 C474 1.391 . S
C475 C476 1.391 . S
C476 H453 0.947 . S
C476 C475 1.391 . S
C476 C477 1.392 . S
C477 H454 0.948 . S
C477 C476 1.392 . S
C477 C478 1.419 . S
C478 C477 1.419 . S
C478 C479 1.391 . S
C478 C482 1.397 . S
C479 C474 1.391 . S
C479 C478 1.391 . S
C479 C480 1.399 . S
C480 C479 1.399 . S
C480 C481 1.396 . S
C480 C483 1.453 . S
C480 C484 1.684 . S
C481 C471 1.723 . S
C481 C480 1.396 . S
C481 C482 1.394 . S
C482 C452 1.723 . S
C482 C478 1.397 . S
C482 C481 1.394 . S
C483 H455 0.982 . S
C483 H459 0.979 . S
C483 H460 0.977 . S
C483 C480 1.453 . S
C484 H456 0.979 . S
C484 H457 0.980 . S
C484 H458 0.983 . S
C484 C480 1.684 . S
H485 C503 0.948 . S
H486 C444 0.948 . S
H487 C462 0.979 . S
H488 C462 0.980 . S
H489 C462 0.983 . S
H490 C461 0.982 . S
H491 C461 0.979 . S
H492 C461 0.977 . S
H493 C463 0.948 . S
H494 C465 0.947 . S
H495 C466 0.948 . S
H496 C472 0.982 . S
H497 C472 0.979 . S
H498 C472 0.977 . S
H499 C473 0.979 . S
H500 C473 0.980 . S
H501 C473 0.983 . S
H502 C446 0.947 . S
C503 C446 1.392 . S
C503 C447 1.419 . S
C503 H485 0.948 . S
C504 C505 1.391 . S
C504 C508 1.391 . S
C504 H546 0.948 . S
C505 C504 1.391 . S
C505 C506 1.391 . S
C506 C505 1.391 . S
C506 H562 0.947 . S
C506 C563 1.392 . S
C507 C508 1.391 . S
C507 C511 1.397 . S
C507 C563 1.419 . S
C508 C504 1.391 . S
C508 C507 1.391 . S
C508 C509 1.399 . S
C509 C508 1.399 . S
C509 C512 1.396 . S
C509 C521 1.453 . S
C509 C522 1.684 . S
H510 C534 0.948 . S
C511 C507 1.397 . S
C511 C512 1.394 . S
C511 C530 1.723 . S
C512 C509 1.396 . S
C512 C511 1.394 . S
C512 C542 1.723 . S
H513 C536 0.947 . S
H514 C537 0.948 . S
H515 C543 0.982 . S
H516 C544 0.979 . S
H517 C544 0.980 . S
H518 C544 0.983 . S
H519 C543 0.979 . S
H520 C543 0.977 . S
C521 C509 1.453 . S
C521 H550 0.982 . S
C521 H551 0.979 . S
C521 H552 0.977 . S
C522 C509 1.684 . S
C522 H547 0.979 . S
C522 H548 0.980 . S
C522 H549 0.983 . S
C523 C524 1.391 . S
C523 C528 1.391 . S
C523 H553 0.948 . S
C524 C523 1.391 . S
C524 C525 1.391 . S
C525 C524 1.391 . S
C525 C526 1.392 . S
C525 H554 0.947 . S
C526 C525 1.392 . S
C526 C527 1.419 . S
C526 H555 0.948 . S
C527 C526 1.419 . S
C527 C528 1.391 . S
C527 C531 1.397 . S
C528 C523 1.391 . S
C528 C527 1.391 . S
C528 C529 1.399 . S
C529 C528 1.399 . S
C529 C530 1.396 . S
C529 C532 1.453 . S
C529 C533 1.684 . S
C530 C511 1.723 . S
C530 C529 1.396 . S
C530 C531 1.394 . S
C531 C527 1.397 . S
C531 C530 1.394 . S
C531 C541 1.723 . S
C532 C529 1.453 . S
C532 H556 0.982 . S
C532 H557 0.979 . S
C532 H558 0.977 . S
C533 C529 1.684 . S
C533 H559 0.979 . S
C533 H560 0.980 . S
C533 H561 0.983 . S
C534 H510 0.948 . S
C534 C535 1.391 . S
C534 C539 1.391 . S
C535 C534 1.391 . S
C535 C536 1.391 . S
C536 H513 0.947 . S
C536 C535 1.391 . S
C536 C537 1.392 . S
C537 H514 0.948 . S
C537 C536 1.392 . S
C537 C538 1.419 . S
C538 C537 1.419 . S
C538 C539 1.391 . S
C538 C542 1.397 . S
C539 C534 1.391 . S
C539 C538 1.391 . S
C539 C540 1.399 . S
C540 C539 1.399 . S
C540 C541 1.396 . S
C540 C543 1.453 . S
C540 C544 1.684 . S
C541 C531 1.723 . S
C541 C540 1.396 . S
C541 C542 1.394 . S
C542 C512 1.723 . S
C542 C538 1.397 . S
C542 C541 1.394 . S
C543 H515 0.982 . S
C543 H519 0.979 . S
C543 H520 0.977 . S
C543 C540 1.453 . S
C544 H516 0.979 . S
C544 H517 0.980 . S
C544 H518 0.983 . S
C544 C540 1.684 . S
H545 C563 0.948 . S
H546 C504 0.948 . S
H547 C522 0.979 . S
H548 C522 0.980 . S
H549 C522 0.983 . S
H550 C521 0.982 . S
H551 C521 0.979 . S
H552 C521 0.977 . S
H553 C523 0.948 . S
H554 C525 0.947 . S
H555 C526 0.948 . S
H556 C532 0.982 . S
H557 C532 0.979 . S
H558 C532 0.977 . S
H559 C533 0.979 . S
H560 C533 0.980 . S
H561 C533 0.983 . S
H562 C506 0.947 . S
C563 C506 1.392 . S
C563 C507 1.419 . S
C563 H545 0.948 . S
H564 C570 0.930 . S
H565 C573 0.930 . S
H566 C574 0.930 . S
H567 C575 0.930 . S
H568 C578 0.930 . S
H569 C579 0.930 . S
C570 H564 0.930 . S
C570 C571 1.355 . S
C570 C572 1.415 . S
C571 C570 1.355 . S
C571 C573 1.419 . S
C572 C570 1.415 . S
C572 C577 1.425 . S
C572 C579 1.409 . S
C573 H565 0.930 . S
C573 C571 1.419 . S
C573 C574 1.362 . S
C574 H566 0.930 . S
C574 C573 1.362 . S
C574 C577 1.409 . S
C575 H567 0.930 . S
C575 C576 1.355 . S
C575 C577 1.415 . S
C576 C575 1.355 . S
C576 C578 1.419 1_565 S
C577 C572 1.425 . S
C577 C574 1.409 . S
C577 C575 1.415 . S
C578 H568 0.930 . S
C578 C576 1.419 1_545 S
C578 C579 1.362 1_545 S
C579 H569 0.930 . S
C579 C572 1.409 . S
C579 C578 1.362 1_565 S
H580 C586 0.930 . S
H581 C589 0.930 . S
H582 C590 0.930 . S
H583 C591 0.930 . S
H584 C594 0.930 . S
H585 C595 0.930 . S
C586 H580 0.930 . S
C586 C587 1.355 . S
C586 C588 1.415 . S
C587 C586 1.355 . S
C587 C589 1.419 . S
C588 C586 1.415 . S
C588 C593 1.425 . S
C588 C595 1.409 . S
C589 H581 0.930 . S
C589 C587 1.419 . S
C589 C590 1.362 . S
C590 H582 0.930 . S
C590 C589 1.362 . S
C590 C593 1.409 . S
C591 H583 0.930 . S
C591 C592 1.355 . S
C591 C593 1.415 . S
C592 C591 1.355 . S
C592 C594 1.419 . S
C593 C588 1.425 . S
C593 C590 1.409 . S
C593 C591 1.415 . S
C594 H584 0.930 . S
C594 C592 1.419 . S
C594 C595 1.362 . S
C595 H585 0.930 . S
C595 C588 1.409 . S
C595 C594 1.362 . S
H596 C602 0.930 . S
H597 C605 0.930 . S
H598 C606 0.930 . S
H599 C607 0.930 . S
H600 C610 0.906 1_565 S
H601 C611 0.930 . S
C602 H596 0.930 . S
C602 C603 1.355 . S
C602 C604 1.415 . S
C603 C602 1.355 . S
C603 C605 1.419 . S
C604 C602 1.415 . S
C604 C609 1.425 . S
C604 C611 1.409 . S
C605 H597 0.930 . S
C605 C603 1.419 . S
C605 C606 1.362 . S
C606 H598 0.930 . S
C606 C605 1.362 . S
C606 C609 1.409 . S
C607 H599 0.930 . S
C607 C608 1.355 . S
C607 C609 1.415 . S
C608 C607 1.355 . S
C608 C610 1.423 . S
C609 C604 1.425 . S
C609 C606 1.409 . S
C609 C607 1.415 . S
C610 H600 0.906 1_545 S
C610 C608 1.423 . S
C610 C611 1.383 . S
C611 H601 0.930 . S
C611 C604 1.409 . S
C611 C610 1.383 . S
H612 C618 0.930 . S
H613 C621 0.930 . S
H614 C622 0.930 . S
H615 C623 0.930 . S
H616 C626 0.930 . S
H617 C627 0.930 . S
C618 H612 0.930 . S
C618 C619 1.355 . S
C618 C620 1.415 . S
C619 C618 1.355 . S
C619 C621 1.419 . S
C620 C618 1.415 . S
C620 C625 1.425 . S
C620 C627 1.409 . S
C621 H613 0.930 . S
C621 C619 1.419 . S
C621 C622 1.362 . S
C622 H614 0.930 . S
C622 C621 1.362 . S
C622 C625 1.409 . S
C623 H615 0.930 . S
C623 C624 1.355 . S
C623 C625 1.415 . S
C624 C623 1.355 . S
C624 C626 1.419 . S
C625 C620 1.425 . S
C625 C622 1.409 . S
C625 C623 1.415 . S
C626 H616 0.930 . S
C626 C624 1.419 . S
C626 C627 1.362 . S
C627 H617 0.930 . S
C627 C620 1.409 . S
C627 C626 1.362 . S
H628 C634 0.930 . S
H629 C637 0.930 . S
H630 C638 0.930 . S
H631 C639 0.930 . S
H632 C642 0.930 . S
H633 C643 0.930 . S
C634 H628 0.930 . S
C634 C635 1.355 . S
C634 C636 1.415 . S
C635 C634 1.355 . S
C635 C637 1.419 . S
C636 C634 1.415 . S
C636 C641 1.425 . S
C636 C643 1.409 . S
C637 H629 0.930 . S
C637 C635 1.419 . S
C637 C638 1.362 . S
C638 H630 0.930 . S
C638 C637 1.362 . S
C638 C641 1.409 . S
C639 H631 0.930 . S
C639 C640 1.355 . S
C639 C641 1.415 . S
C640 C639 1.355 . S
C640 C642 1.419 . S
C641 C636 1.425 . S
C641 C638 1.409 . S
C641 C639 1.415 . S
C642 H632 0.930 . S
C642 C640 1.419 . S
C642 C643 1.362 . S
C643 H633 0.930 . S
C643 C636 1.409 . S
C643 C642 1.362 . S
H644 C650 0.930 . S
H645 C653 0.930 . S
H646 C654 0.930 . S
H647 C655 0.930 . S
H648 C658 0.930 . S
H649 C659 0.930 . S
C650 H644 0.930 . S
C650 C651 1.355 . S
C650 C652 1.415 . S
C651 C650 1.355 . S
C651 C653 1.419 . S
C652 C650 1.415 . S
C652 C657 1.425 . S
C652 C659 1.409 . S
C653 H645 0.930 . S
C653 C651 1.419 . S
C653 C654 1.362 . S
C654 H646 0.930 . S
C654 C653 1.362 . S
C654 C657 1.409 . S
C655 H647 0.930 . S
C655 C656 1.355 . S
C655 C657 1.415 . S
C656 C655 1.355 . S
C656 C658 1.419 . S
C657 C652 1.425 . S
C657 C654 1.409 . S
C657 C655 1.415 . S
C658 H648 0.930 . S
C658 C656 1.419 . S
C658 C659 1.362 . S
C659 H649 0.930 . S
C659 C652 1.409 . S
C659 C658 1.362 . S
H660 C666 0.930 . S
H661 C669 0.930 . S
H662 C670 0.930 . S
H663 C671 0.930 . S
H664 C674 0.930 . S
H665 C675 0.930 . S
C666 H660 0.930 . S
C666 C667 1.355 . S
C666 C668 1.415 . S
C667 C666 1.355 . S
C667 C669 1.419 . S
C668 C666 1.415 . S
C668 C673 1.425 . S
C668 C675 1.409 . S
C669 H661 0.930 . S
C669 C667 1.419 . S
C669 C670 1.362 . S
C670 H662 0.930 . S
C670 C669 1.362 . S
C670 C673 1.409 . S
C671 H663 0.930 . S
C671 C672 1.355 . S
C671 C673 1.415 . S
C672 C671 1.355 . S
C672 C674 1.419 . S
C673 C668 1.425 . S
C673 C670 1.409 . S
C673 C671 1.415 . S
C674 H664 0.930 . S
C674 C672 1.419 . S
C674 C675 1.362 . S
C675 H665 0.930 . S
C675 C668 1.409 . S
C675 C674 1.362 . S
H676 C682 0.930 . S
H677 C685 0.930 . S
H678 C686 0.930 . S
H679 C687 0.930 . S
H680 C690 0.930 . S
H681 C691 0.930 . S
C682 H676 0.930 . S
C682 C683 1.355 . S
C682 C684 1.415 . S
C683 C682 1.355 . S
C683 C685 1.419 . S
C684 C682 1.415 . S
C684 C689 1.425 . S
C684 C691 1.409 . S
C685 H677 0.930 . S
C685 C683 1.419 . S
C685 C686 1.362 . S
C686 H678 0.930 . S
C686 C685 1.362 . S
C686 C689 1.409 . S
C687 H679 0.930 . S
C687 C688 1.355 . S
C687 C689 1.415 . S
C688 C687 1.355 . S
C688 C690 1.419 . S
C689 C684 1.425 . S
C689 C686 1.409 . S
C689 C687 1.415 . S
C690 H680 0.930 . S
C690 C688 1.419 . S
C690 C691 1.362 . S
C691 H681 0.930 . S
C691 C684 1.409 . S
C691 C690 1.362 . S
H692 C698 0.930 . S
H693 C701 0.930 . S
H694 C702 0.930 . S
H695 C703 0.930 . S
H696 C706 0.930 . S
H697 C707 0.930 . S
C698 H692 0.930 . S
C698 C699 1.355 . S
C698 C700 1.415 . S
C699 C698 1.355 . S
C699 C701 1.419 . S
C700 C698 1.415 . S
C700 C705 1.425 . S
C700 C707 1.409 1_545 S
C701 H693 0.930 . S
C701 C699 1.419 . S
C701 C702 1.362 . S
C702 H694 0.930 . S
C702 C701 1.362 . S
C702 C705 1.409 . S
C703 H695 0.930 . S
C703 C704 1.355 . S
C703 C705 1.415 1_565 S
C704 C703 1.355 . S
C704 C706 1.419 . S
C705 C700 1.425 . S
C705 C702 1.409 . S
C705 C703 1.415 1_545 S
C706 H696 0.930 . S
C706 C704 1.419 . S
C706 C707 1.362 . S
C707 H697 0.930 . S
C707 C700 1.409 1_565 S
C707 C706 1.362 . S
H708 C714 0.930 . S
H709 C717 0.930 . S
H710 C718 0.930 . S
H711 C719 0.930 . S
H712 C722 0.930 . S
H713 C723 0.930 . S
C714 H708 0.930 . S
C714 C715 1.355 . S
C714 C716 1.415 . S
C715 C714 1.355 . S
C715 C717 1.419 . S
C716 C714 1.415 . S
C716 C721 1.425 . S
C716 C723 1.409 . S
C717 H709 0.930 . S
C717 C715 1.419 . S
C717 C718 1.362 . S
C718 H710 0.930 . S
C718 C717 1.362 . S
C718 C721 1.409 . S
C719 H711 0.930 . S
C719 C720 1.355 . S
C719 C721 1.415 . S
C720 C719 1.355 . S
C720 C722 1.419 . S
C721 C716 1.425 . S
C721 C718 1.409 . S
C721 C719 1.415 . S
C722 H712 0.930 . S
C722 C720 1.419 . S
C722 C723 1.362 . S
C723 H713 0.930 . S
C723 C716 1.409 . S
C723 C722 1.362 . S
H724 C730 0.930 . S
H725 C733 0.930 . S
H726 C734 0.930 . S
H727 C735 0.930 . S
H728 C738 0.930 . S
H729 C739 0.930 . S
C730 H724 0.930 . S
C730 C731 1.355 . S
C730 C732 1.415 . S
C731 C730 1.355 . S
C731 C733 1.419 . S
C732 C730 1.415 . S
C732 C737 1.425 . S
C732 C739 1.409 . S
C733 H725 0.930 . S
C733 C731 1.419 . S
C733 C734 1.362 . S
C734 H726 0.930 . S
C734 C733 1.362 . S
C734 C737 1.409 . S
C735 H727 0.930 . S
C735 C736 1.355 . S
C735 C737 1.415 1_545 S
C736 C735 1.355 . S
C736 C738 1.419 . S
C737 C732 1.425 . S
C737 C734 1.409 . S
C737 C735 1.415 1_565 S
C738 H728 0.930 . S
C738 C736 1.419 . S
C738 C739 1.362 1_545 S
C739 H729 0.930 . S
C739 C732 1.409 . S
C739 C738 1.362 1_565 S
H740 C746 0.930 . S
H741 C749 0.930 . S
H742 C750 0.930 . S
H743 C751 0.930 . S
H744 C754 0.930 . S
H745 C755 0.930 . S
C746 H740 0.930 . S
C746 C747 1.355 . S
C746 C748 1.415 . S
C747 C746 1.355 . S
C747 C749 1.419 . S
C748 C746 1.415 . S
C748 C753 1.425 . S
C748 C755 1.409 . S
C749 H741 0.930 . S
C749 C747 1.419 . S
C749 C750 1.362 . S
C750 H742 0.930 . S
C750 C749 1.362 . S
C750 C753 1.409 . S
C751 H743 0.930 . S
C751 C752 1.355 . S
C751 C753 1.415 . S
C752 C751 1.355 . S
C752 C754 1.419 . S
C753 C748 1.425 . S
C753 C750 1.409 . S
C753 C751 1.415 . S
C754 H744 0.930 . S
C754 C752 1.419 . S
C754 C755 1.362 . S
C755 H745 0.930 . S
C755 C748 1.409 . S
C755 C754 1.362 . S
H756 C762 0.930 . S
H757 C765 0.930 . S
H758 C766 0.930 . S
H759 C767 0.930 . S
H760 C770 0.930 . S
H761 C771 0.930 . S
C762 H756 0.930 . S
C762 C763 1.355 . S
C762 C764 1.415 . S
C763 C762 1.355 . S
C763 C765 1.419 . S
C764 C762 1.415 . S
C764 C769 1.425 . S
C764 C771 1.409 . S
C765 H757 0.930 . S
C765 C763 1.419 . S
C765 C766 1.362 . S
C766 H758 0.930 . S
C766 C765 1.362 . S
C766 C769 1.409 . S
C767 H759 0.930 . S
C767 C768 1.355 . S
C767 C769 1.415 . S
C768 C767 1.355 . S
C768 C770 1.419 . S
C769 C764 1.425 . S
C769 C766 1.409 . S
C769 C767 1.415 . S
C770 H760 0.930 . S
C770 C768 1.419 . S
C770 C771 1.362 . S
C771 H761 0.930 . S
C771 C764 1.409 . S
C771 C770 1.362 . S
H772 C778 0.930 . S
H773 C781 0.930 . S
H774 C782 0.930 . S
H775 C783 0.930 . S
H776 C786 0.930 . S
H777 C787 0.930 . S
C778 H772 0.930 . S
C778 C779 1.355 . S
C778 C780 1.415 . S
C779 C778 1.355 . S
C779 C781 1.419 . S
C780 C778 1.415 . S
C780 C785 1.425 . S
C780 C787 1.409 1_455 S
C781 H773 0.930 . S
C781 C779 1.419 . S
C781 C782 1.362 . S
C782 H774 0.930 . S
C782 C781 1.362 . S
C782 C785 1.409 . S
C783 H775 0.930 . S
C783 C784 1.355 . S
C783 C785 1.415 1_655 S
C784 C783 1.355 . S
C784 C786 1.419 . S
C785 C780 1.425 . S
C785 C782 1.409 . S
C785 C783 1.415 1_455 S
C786 H776 0.930 . S
C786 C784 1.419 . S
C786 C787 1.362 . S
C787 H777 0.930 . S
C787 C780 1.409 1_655 S
C787 C786 1.362 . S
H788 C794 0.930 . S
H789 C797 0.930 . S
H790 C798 0.930 . S
H791 C799 0.930 . S
H792 C802 0.930 . S
H793 C803 0.930 . S
C794 H788 0.930 . S
C794 C795 1.355 . S
C794 C796 1.415 . S
C795 C794 1.355 . S
C795 C797 1.419 . S
C796 C794 1.415 . S
C796 C801 1.425 . S
C796 C803 1.409 . S
C797 H789 0.930 . S
C797 C795 1.419 . S
C797 C798 1.362 . S
C798 H790 0.930 . S
C798 C797 1.362 . S
C798 C801 1.409 . S
C799 H791 0.930 . S
C799 C800 1.355 . S
C799 C801 1.415 . S
C800 C799 1.355 . S
C800 C802 1.419 . S
C801 C796 1.425 . S
C801 C798 1.409 . S
C801 C799 1.415 . S
C802 H792 0.930 . S
C802 C800 1.419 . S
C802 C803 1.362 . S
C803 H793 0.930 . S
C803 C796 1.409 . S
C803 C802 1.362 . S
H804 C810 0.930 . S
H805 C813 0.930 . S
H806 C814 0.930 . S
H807 C815 0.930 . S
H808 C818 0.930 . S
H809 C819 0.930 . S
C810 H804 0.930 . S
C810 C811 1.355 . S
C810 C812 1.415 . S
C811 C810 1.355 . S
C811 C813 1.419 . S
C812 C810 1.415 . S
C812 C817 1.425 . S
C812 C819 1.409 1_655 S
C813 H805 0.930 . S
C813 C811 1.419 . S
C813 C814 1.362 . S
C814 H806 0.930 . S
C814 C813 1.362 . S
C814 C817 1.409 . S
C815 H807 0.930 . S
C815 C816 1.355 . S
C815 C817 1.415 1_455 S
C816 C815 1.355 . S
C816 C818 1.419 . S
C817 C812 1.425 . S
C817 C814 1.409 . S
C817 C815 1.415 1_655 S
C818 H808 0.930 . S
C818 C816 1.419 . S
C818 C819 1.362 . S
C819 H809 0.930 . S
C819 C812 1.409 1_455 S
C819 C818 1.362 . S
H820 C826 0.930 . S
H821 C829 0.930 . S
H822 C830 0.930 . S
H823 C831 0.930 . S
H824 C834 0.930 . S
H825 C835 0.930 . S
C826 H820 0.930 . S
C826 C827 1.355 . S
C826 C828 1.415 . S
C827 C826 1.355 . S
C827 C829 1.419 . S
C828 C826 1.415 . S
C828 C833 1.425 . S
C828 C835 1.409 . S
C829 H821 0.930 . S
C829 C827 1.419 . S
C829 C830 1.362 . S
C830 H822 0.930 . S
C830 C829 1.362 . S
C830 C833 1.409 . S
C831 H823 0.930 . S
C831 C832 1.355 . S
C831 C833 1.415 . S
C832 C831 1.355 . S
C832 C834 1.419 . S
C833 C828 1.425 . S
C833 C830 1.409 . S
C833 C831 1.415 . S
C834 H824 0.930 . S
C834 C832 1.419 . S
C834 C835 1.362 . S
C835 H825 0.930 . S
C835 C828 1.409 . S
C835 C834 1.362 . S
H836 C842 0.930 . S
H837 C845 0.930 . S
H838 C846 0.930 . S
H839 C847 0.930 . S
H840 C850 0.930 . S
H841 C851 0.930 . S
C842 H836 0.930 . S
C842 C843 1.355 . S
C842 C844 1.415 . S
C843 C842 1.355 . S
C843 C845 1.419 . S
C844 C842 1.415 . S
C844 C849 1.425 . S
C844 C851 1.409 . S
C845 H837 0.930 . S
C845 C843 1.419 . S
C845 C846 1.362 . S
C846 H838 0.930 . S
C846 C845 1.362 . S
C846 C849 1.409 . S
C847 H839 0.930 . S
C847 C848 1.355 . S
C847 C849 1.415 . S
C848 C847 1.355 . S
C848 C850 1.419 . S
C849 C844 1.425 . S
C849 C846 1.409 . S
C849 C847 1.415 . S
C850 H840 0.930 . S
C850 C848 1.419 . S
C850 C851 1.362 . S
C851 H841 0.930 . S
C851 C844 1.409 . S
C851 C850 1.362 . S
H852 C858 0.930 . S
H853 C861 0.930 . S
H854 C862 0.930 . S
H855 C863 0.930 . S
H856 C866 0.930 . S
H857 C867 0.930 . S
C858 H852 0.930 . S
C858 C859 1.355 . S
C858 C860 1.415 . S
C859 C858 1.355 . S
C859 C861 1.419 . S
C860 C858 1.415 . S
C860 C865 1.425 . S
C860 C867 1.409 . S
C861 H853 0.930 . S
C861 C859 1.419 . S
C861 C862 1.362 . S
C862 H854 0.930 . S
C862 C861 1.362 . S
C862 C865 1.409 . S
C863 H855 0.930 . S
C863 C864 1.355 . S
C863 C865 1.415 . S
C864 C863 1.355 . S
C864 C866 1.419 . S
C865 C860 1.425 . S
C865 C862 1.409 . S
C865 C863 1.415 . S
C866 H856 0.930 . S
C866 C864 1.419 . S
C866 C867 1.362 . S
C867 H857 0.930 . S
C867 C860 1.409 . S
C867 C866 1.362 . S
H868 C874 0.930 . S
H869 C877 0.930 . S
H870 C878 0.930 . S
H871 C879 0.930 . S
H872 C882 0.930 . S
H873 C883 0.930 . S
C874 H868 0.930 . S
C874 C875 1.355 . S
C874 C876 1.415 . S
C875 C874 1.355 . S
C875 C877 1.419 . S
C876 C874 1.415 . S
C876 C881 1.425 . S
C876 C883 1.409 . S
C877 H869 0.930 . S
C877 C875 1.419 . S
C877 C878 1.362 . S
C878 H870 0.930 . S
C878 C877 1.362 . S
C878 C881 1.409 . S
C879 H871 0.930 . S
C879 C880 1.355 . S
C879 C881 1.415 . S
C880 C879 1.355 . S
C880 C882 1.419 . S
C881 C876 1.425 . S
C881 C878 1.409 . S
C881 C879 1.415 . S
C882 H872 0.930 . S
C882 C880 1.419 . S
C882 C883 1.362 . S
C883 H873 0.930 . S
C883 C876 1.409 . S
C883 C882 1.362 . S
H884 C890 0.930 . S
H885 C893 0.930 . S
H886 C894 0.930 . S
H887 C895 0.930 . S
H888 C898 0.930 . S
H889 C899 0.930 . S
C890 H884 0.930 . S
C890 C891 1.355 . S
C890 C892 1.415 . S
C891 C890 1.355 . S
C891 C893 1.419 . S
C892 C890 1.415 . S
C892 C897 1.425 . S
C892 C899 1.409 . S
C893 H885 0.930 . S
C893 C891 1.419 . S
C893 C894 1.362 . S
C894 H886 0.930 . S
C894 C893 1.362 . S
C894 C897 1.409 . S
C895 H887 0.930 . S
C895 C896 1.355 . S
C895 C897 1.415 . S
C896 C895 1.355 . S
C896 C898 1.419 . S
C897 C892 1.425 . S
C897 C894 1.409 . S
C897 C895 1.415 . S
C898 H888 0.930 . S
C898 C896 1.419 . S
C898 C899 1.362 . S
C899 H889 0.930 . S
C899 C892 1.409 . S
C899 C898 1.362 . S
H900 C906 0.930 . S
H901 C909 0.930 . S
H902 C910 0.930 . S
H903 C911 0.930 . S
H904 C914 0.930 . S
H905 C915 0.930 . S
C906 H900 0.930 . S
C906 C907 1.355 . S
C906 C908 1.415 . S
C907 C906 1.355 . S
C907 C909 1.419 . S
C908 C906 1.415 . S
C908 C913 1.425 . S
C908 C915 1.409 . S
C909 H901 0.930 . S
C909 C907 1.419 . S
C909 C910 1.362 . S
C910 H902 0.930 . S
C910 C909 1.362 . S
C910 C913 1.409 . S
C911 H903 0.930 . S
C911 C912 1.355 . S
C911 C913 1.415 . S
C912 C911 1.355 . S
C912 C914 1.419 . S
C913 C908 1.425 . S
C913 C910 1.409 . S
C913 C911 1.415 . S
C914 H904 0.930 . S
C914 C912 1.419 . S
C914 C915 1.362 . S
C915 H905 0.930 . S
C915 C908 1.409 . S
C915 C914 1.362 . S
H916 C922 0.930 . S
H917 C925 0.930 . S
H918 C926 0.930 . S
H919 C927 0.930 . S
H920 C930 0.930 . S
H921 C931 0.930 . S
C922 H916 0.930 . S
C922 C923 1.355 . S
C922 C924 1.415 . S
C923 C922 1.355 . S
C923 C925 1.419 . S
C924 C922 1.415 . S
C924 C929 1.425 . S
C924 C931 1.409 . S
C925 H917 0.930 . S
C925 C923 1.419 . S
C925 C926 1.362 . S
C926 H918 0.930 . S
C926 C925 1.362 . S
C926 C929 1.409 . S
C927 H919 0.930 . S
C927 C928 1.355 . S
C927 C929 1.415 . S
C928 C927 1.355 . S
C928 C930 1.419 . S
C929 C924 1.425 . S
C929 C926 1.409 . S
C929 C927 1.415 . S
C930 H920 0.930 . S
C930 C928 1.419 . S
C930 C931 1.362 . S
C931 H921 0.930 . S
C931 C924 1.409 . S
C931 C930 1.362 . S
H932 C938 0.930 . S
H933 C941 0.930 . S
H934 C942 0.930 . S
H935 C943 0.930 . S
H936 C946 0.930 . S
H937 C947 0.930 . S
C938 H932 0.930 . S
C938 C939 1.355 . S
C938 C940 1.415 . S
C939 C938 1.355 . S
C939 C941 1.419 . S
C940 C938 1.415 . S
C940 C945 1.425 . S
C940 C947 1.409 . S
C941 H933 0.930 . S
C941 C939 1.419 . S
C941 C942 1.362 . S
C942 H934 0.930 . S
C942 C941 1.362 . S
C942 C945 1.409 . S
C943 H935 0.930 . S
C943 C944 1.355 . S
C943 C945 1.415 . S
C944 C943 1.355 . S
C944 C946 1.419 . S
C945 C940 1.425 . S
C945 C942 1.409 . S
C945 C943 1.415 . S
C946 H936 0.930 . S
C946 C944 1.419 . S
C946 C947 1.362 . S
C947 H937 0.930 . S
C947 C940 1.409 . S
C947 C946 1.362 . S
C571 C7 0.859 . S
C576 C85 0.790 1_565 S
C587 C25 0.852 . S
C592 C164 0.898 . S
C603 C46 0.824 . S
C608 C235 0.915 1_545 S
C624 C295 0.989 . S
C619 C70 0.953 . S
C640 C325 0.893 . S
C635 C28 0.823 . S
C651 C49 0.987 . S
C656 C415 0.965 1_655 S
C667 C67 0.910 . S
C672 C475 0.900 . S
C683 C4 0.986 . S
C688 C524 0.969 1_455 S
C699 C58 1.675 . S
C704 C505 1.633 . S
C720 C344 1.794 . S
C715 C66 1.689 . S
C736 C404 1.659 . S
C731 C3 1.714 . S
C747 C37 1.658 . S
C752 C464 1.657 . S
C768 C145 1.716 . S
C763 C79 1.717 . S
C779 C16 1.685 . S
C784 C224 1.697 . S
C800 C284 1.689 . S
C795 C24 1.732 . S
C816 C104 1.791 . S
C811 C45 1.658 . S
C832 C445 1.163 . S
C827 C19 0.942 . S
C848 C535 1.178 . S
C843 C41 1.076 . S
C859 C62 0.943 . S
C864 C355 1.130 . S
C880 C385 1.175 . S
C875 C82 0.950 . S
C896 C205 1.137 . S
C891 C40 1.115 . S
C907 C61 0.964 . S
C912 C265 1.186 . S
C928 C115 1.193 . S
C923 C83 1.107 . S
C944 C175 1.186 . S
C939 C20 1.050 . S
