# Generated by pormake.
# Topology rtl, (3,6)-cn, num edge types: 1
# Building blocks:
#     Node 0, Type 0, BuildingBlock: MIDCAF_clean_linker_0, # of connection points: 3
#     Node 1, Type 0, BuildingBlock: MIDCAF_clean_linker_0, # of connection points: 3
#     Node 2, Type 0, BuildingBlock: MIDCAF_clean_linker_0, # of connection points: 3
#     Node 3, Type 0, BuildingBlock: MIDCAF_clean_linker_0, # of connection points: 3
#     Node 4, Type 1, BuildingBlock: FUNLAD_clean_sbu_0, # of connection points: 6
#     Node 5, Type 1, BuildingBlock: FUNLAD_clean_sbu_0, # of connection points: 6
#     Edge 6, Type (0, 1), BuildingBlock: MIFKUJ_clean_linker_0, # of connection points: 2
#     Edge 7, Type (0, 1), BuildingBlock: MIFKUJ_clean_linker_0, # of connection points: 2
#     Edge 8, Type (0, 1), BuildingBlock: MIFKUJ_clean_linker_0, # of connection points: 2
#     Edge 9, Type (0, 1), BuildingBlock: MIFKUJ_clean_linker_0, # of connection points: 2
#     Edge 10, Type (0, 1), BuildingBlock: MIFKUJ_clean_linker_0, # of connection points: 2
#     Edge 11, Type (0, 1), BuildingBlock: MIFKUJ_clean_linker_0, # of connection points: 2
#     Edge 12, Type (0, 1), BuildingBlock: MIFKUJ_clean_linker_0, # of connection points: 2
#     Edge 13, Type (0, 1), BuildingBlock: MIFKUJ_clean_linker_0, # of connection points: 2
#     Edge 14, Type (0, 1), BuildingBlock: MIFKUJ_clean_linker_0, # of connection points: 2
#     Edge 15, Type (0, 1), BuildingBlock: MIFKUJ_clean_linker_0, # of connection points: 2
#     Edge 16, Type (0, 1), BuildingBlock: MIFKUJ_clean_linker_0, # of connection points: 2
#     Edge 17, Type (0, 1), BuildingBlock: MIFKUJ_clean_linker_0, # of connection points: 2
# Relax obj value: 0.029
# Max RMSD: 0.085
# Mean RMSD: 0.074
data_MOF--net-rtl--node1-FUNLAD_clean_sbu_0--node2-MIDCAF_clean_linker_0--edge1-MIFKUJ_clean_linker_0
_symmetry_space_group_name_H-M    P1
_symmetry_Int_Tables_number       1
_symmetry_cell_setting            triclinic
loop_
_symmetry_equiv_pos_as_xyz
'x, y, z'
_cell_length_a     59.330015
_cell_length_b     48.771698
_cell_length_c     35.213286
_cell_angle_alpha  89.746288
_cell_angle_beta   90.956683
_cell_angle_gamma 90.686603
loop_
_atom_site_label
_atom_site_type_symbol
_atom_site_fract_x
_atom_site_fract_y
_atom_site_fract_z
_atom_type_partial_charge
C0 C 0.0801 0.79281 0.11577 0.0
C1 C 0.09234 0.78986 0.15 0.0
C2 C 0.11237 0.77475 0.15014 0.0
C3 C 0.12029 0.76344 0.11654 0.0
H4 H 0.17143 0.71745 0.07373 0.0
H5 H 0.20566 0.69038 0.0736 0.0
H6 H 0.20113 0.68463 0.95137 0.0
H7 H 0.16676 0.71142 0.9513 0.0
H8 H 0.13987 0.76694 0.91221 0.0
H9 H 0.12557 0.789 0.85483 0.0
H10 H 0.05991 0.79535 0.90548 0.0
H11 H 0.0747 0.77469 0.96364 0.0
H12 H 0.07841 0.78488 0.05618 0.0
H13 H 0.06473 0.80457 0.11466 0.0
H14 H 0.12204 0.7719 0.17619 0.0
H15 H 0.136 0.75237 0.11756 0.0
N16 N 0.13642 0.7415 0.04564 0.0
N17 N 0.13645 0.74258 0.97903 0.0
N18 N 0.10855 0.76573 0.01213 0.0
C19 C 0.14576 0.7338 0.01239 0.0
C20 C 0.1178 0.75845 0.97871 0.0
C21 C 0.11777 0.75742 0.04574 0.0
C22 C 0.1663 0.71674 0.01251 0.0
C23 C 0.17762 0.71035 0.04678 0.0
C24 C 0.19733 0.69494 0.04674 0.0
C25 C 0.20611 0.68542 0.01248 0.0
C26 C 0.19465 0.69143 0.97827 0.0
C27 C 0.17501 0.70697 0.97826 0.0
C28 C 0.10846 0.76927 0.94253 0.0
C29 C 0.12233 0.77286 0.91094 0.0
C30 C 0.11405 0.78541 0.87788 0.0
C31 C 0.09155 0.79421 0.87536 0.0
C32 C 0.07746 0.78954 0.90658 0.0
C33 C 0.08588 0.77749 0.93988 0.0
C34 C 0.10843 0.76719 0.08201 0.0
C35 C 0.08806 0.78166 0.08216 0.0
C36 C 0.57793 0.70306 0.41031 0.0
C37 C 0.58348 0.71382 0.37461 0.0
C38 C 0.59541 0.73881 0.37254 0.0
C39 C 0.60252 0.75221 0.40577 0.0
H40 H 0.6573 0.79784 0.44487 0.0
H41 H 0.69216 0.82458 0.44249 0.0
H42 H 0.69344 0.83011 0.56488 0.0
H43 H 0.65842 0.80372 0.56746 0.0
H44 H 0.63272 0.74673 0.60872 0.0
H45 H 0.62015 0.72473 0.66687 0.0
H46 H 0.5521 0.72063 0.62081 0.0
H47 H 0.56517 0.74092 0.56178 0.0
H48 H 0.58053 0.70741 0.47052 0.0
H49 H 0.56857 0.68392 0.41256 0.0
H50 H 0.59991 0.74744 0.34526 0.0
H51 H 0.61226 0.77104 0.40335 0.0
N52 N 0.62475 0.77102 0.47554 0.0
N53 N 0.62632 0.77254 0.54212 0.0
N54 N 0.5985 0.74599 0.5111 0.0
C55 C 0.6346 0.78067 0.50805 0.0
C56 C 0.60814 0.75543 0.54379 0.0
C57 C 0.60671 0.75364 0.47685 0.0
C58 C 0.65505 0.79842 0.50639 0.0
C59 C 0.66487 0.80489 0.47132 0.0
C60 C 0.68493 0.82011 0.46992 0.0
C61 C 0.69561 0.82932 0.5035 0.0
C62 C 0.68551 0.82353 0.53848 0.0
C63 C 0.66548 0.80823 0.53993 0.0
C64 C 0.59995 0.74529 0.58067 0.0
C65 C 0.61504 0.74133 0.61127 0.0
C66 C 0.60774 0.72883 0.64475 0.0
C67 C 0.58506 0.72057 0.6487 0.0
C68 C 0.5698 0.72591 0.61859 0.0
C69 C 0.57722 0.73778 0.58481 0.0
C70 C 0.59749 0.74105 0.4416 0.0
C71 C 0.58469 0.71664 0.44346 0.0
C72 C 0.93984 0.20994 0.89635 0.0
C73 C 0.92751 0.21354 0.86234 0.0
C74 C 0.90804 0.22966 0.86256 0.0
C75 C 0.90076 0.24142 0.89631 0.0
H76 H 0.85497 0.29494 0.93991 0.0
H77 H 0.82142 0.32312 0.94036 0.0
H78 H 0.82365 0.32384 0.06299 0.0
H79 H 0.85744 0.29596 0.06276 0.0
H80 H 0.90058 0.26561 0.10667 0.0
H81 H 0.91325 0.24345 0.1658 0.0
H82 H 0.93932 0.1761 0.10151 0.0
H83 H 0.92712 0.19813 0.04261 0.0
H84 H 0.9422 0.21777 0.9559 0.0
H85 H 0.95479 0.1974 0.89717 0.0
H86 H 0.89831 0.23298 0.83667 0.0
H87 H 0.88547 0.25333 0.89563 0.0
N88 N 0.88693 0.26561 0.96759 0.0
N89 N 0.88726 0.26435 0.03426 0.0
N90 N 0.91259 0.23768 0.00039 0.0
C91 C 0.87847 0.27427 0.00108 0.0
C92 C 0.90432 0.24601 0.03408 0.0
C93 C 0.90411 0.24746 0.96704 0.0
C94 C 0.85891 0.29296 0.00132 0.0
C95 C 0.84847 0.30122 0.96703 0.0
C96 C 0.82913 0.31728 0.96724 0.0
C97 C 0.81979 0.32555 0.0017 0.0
C98 C 0.83055 0.31798 0.03596 0.0
C99 C 0.84987 0.30184 0.03578 0.0
C100 C 0.91281 0.23363 0.06993 0.0
C101 C 0.90914 0.24617 0.10517 0.0
C102 C 0.91644 0.23359 0.13894 0.0
C103 C 0.92711 0.20806 0.13803 0.0
C104 C 0.93097 0.1957 0.10289 0.0
C105 C 0.92408 0.20844 0.06919 0.0
C106 C 0.9127 0.23705 0.93061 0.0
C107 C 0.9325 0.22148 0.93009 0.0
C108 C 0.44621 0.29042 0.61022 0.0
C109 C 0.43532 0.28474 0.64454 0.0
C110 C 0.41715 0.26598 0.64448 0.0
C111 C 0.40959 0.25383 0.61063 0.0
H112 H 0.35915 0.20507 0.56681 0.0
H113 H 0.32425 0.17838 0.56601 0.0
H114 H 0.32623 0.17422 0.4436 0.0
H115 H 0.36088 0.2014 0.44416 0.0
H116 H 0.39026 0.24709 0.40172 0.0
H117 H 0.40296 0.26906 0.34339 0.0
H118 H 0.46177 0.3009 0.40296 0.0
H119 H 0.44926 0.2789 0.46129 0.0
H120 H 0.44715 0.28376 0.55038 0.0
H121 H 0.46011 0.305 0.60922 0.0
H122 H 0.40859 0.26091 0.67057 0.0
H123 H 0.39526 0.2399 0.61156 0.0
N124 N 0.39262 0.23214 0.53917 0.0
N125 N 0.39197 0.23271 0.47257 0.0
N126 N 0.41931 0.25831 0.50614 0.0
C127 C 0.38321 0.22353 0.50577 0.0
C128 C 0.41007 0.25002 0.47251 0.0
C129 C 0.41073 0.24947 0.53961 0.0
C130 C 0.36281 0.20562 0.50553 0.0
C131 C 0.35227 0.19835 0.53968 0.0
C132 C 0.33229 0.18288 0.53927 0.0
C133 C 0.3224 0.17427 0.50473 0.0
C134 C 0.33323 0.18091 0.47066 0.0
C135 C 0.35319 0.19641 0.47103 0.0
C136 C 0.41866 0.26136 0.43633 0.0
C137 C 0.40603 0.25851 0.40237 0.0
C138 C 0.41322 0.27122 0.36897 0.0
C139 C 0.43329 0.28679 0.3687 0.0
C140 C 0.44631 0.28886 0.40226 0.0
C141 C 0.43904 0.27637 0.43574 0.0
C142 C 0.41999 0.26026 0.57604 0.0
C143 C 0.43865 0.27834 0.57639 0.0
C144 C 0.02168 0.96392 0.45184 0.0
N145 N 0.05847 0.0262 0.50717 0.0
C146 C 0.07645 0.00915 0.50889 0.0
C147 C 0.09839 0.01986 0.50922 0.0
C148 C 0.10182 0.04835 0.50737 0.0
C149 C 0.08297 0.06546 0.5056 0.0
C150 C 0.06134 0.05391 0.50571 0.0
Zn151 Zn 0.02655 0.01002 0.50645 0.0
C152 C 0.99684 0.03769 0.44954 0.0
N153 N 0.9599 0.97629 0.50488 0.0
C154 C 0.957 0.94858 0.50562 0.0
C155 C 0.94194 0.99338 0.50359 0.0
C156 C 0.91999 0.98271 0.50302 0.0
C157 C 0.91649 0.95419 0.50365 0.0
C158 C 0.93535 0.93705 0.50497 0.0
Zn159 Zn 0.9918 0.99243 0.50567 0.0
O160 O 0.03567 0.98196 0.46384 0.0
C161 C 0.02137 0.9648 0.56256 0.0
O162 O 0.00185 0.9633 0.46497 0.0
H163 H 0.94463 0.01534 0.5029 0.0
H164 H 0.0738 0.98719 0.50983 0.0
H165 H 0.97151 0.93538 0.50678 0.0
O166 O 0.03596 0.98103 0.54855 0.0
O167 O 0.00108 0.96548 0.55055 0.0
H168 H 0.04682 0.06709 0.50458 0.0
O169 O 0.98229 0.02178 0.54606 0.0
O170 O 0.01695 0.03789 0.54932 0.0
O171 O 0.98291 0.01966 0.46114 0.0
O172 O 0.01658 0.0387 0.46405 0.0
C173 C 0.99664 0.03853 0.56023 0.0
H174 H 0.11251 0.00598 0.51025 0.0
H175 H 0.08493 0.08756 0.50455 0.0
H176 H 0.90593 0.99665 0.50156 0.0
H177 H 0.93342 0.91495 0.50599 0.0
C178 C 0.49871 0.46437 0.95129 0.0
N179 N 0.56045 0.47737 0.00884 0.0
C180 C 0.56294 0.44971 0.00732 0.0
C181 C 0.58442 0.43833 0.00726 0.0
C182 C 0.60355 0.45557 0.00884 0.0
C183 C 0.60047 0.48404 0.01068 0.0
C184 C 0.57867 0.49456 0.0106 0.0
Zn185 Zn 0.5287 0.49321 0.00797 0.0
C186 C 0.52397 0.53852 0.95198 0.0
N187 N 0.46224 0.52569 0.00515 0.0
C188 C 0.4437 0.50905 0.00644 0.0
C189 C 0.46031 0.55345 0.00391 0.0
C190 C 0.43912 0.56551 0.00429 0.0
C191 C 0.41967 0.54891 0.00602 0.0
C192 C 0.42213 0.52028 0.00686 0.0
Zn193 Zn 0.49386 0.5095 0.00601 0.0
O194 O 0.51897 0.46592 0.96354 0.0
C195 C 0.49855 0.46416 0.06208 0.0
O196 O 0.48405 0.4802 0.96486 0.0
H197 H 0.47525 0.56632 0.00279 0.0
H198 H 0.54824 0.43641 0.00607 0.0
H199 H 0.44563 0.48703 0.00748 0.0
O200 O 0.51836 0.46396 0.0489 0.0
O201 O 0.48459 0.48179 0.0497 0.0
H202 H 0.57631 0.51649 0.0117 0.0
O203 O 0.50425 0.53879 0.04739 0.0
O204 O 0.5378 0.5205 0.05217 0.0
O205 O 0.50357 0.53667 0.96212 0.0
O206 O 0.53863 0.523 0.96725 0.0
C207 C 0.5238 0.53835 0.06264 0.0
H208 H 0.58601 0.41625 0.00633 0.0
H209 H 0.61474 0.49809 0.0115 0.0
H210 H 0.43801 0.58765 0.00298 0.0
H211 H 0.40759 0.50672 0.00856 0.0
H212 H 0.28673 0.18176 0.45578 0.0
H213 H 0.25002 0.15865 0.45628 0.0
H214 H 0.27108 0.1108 0.55359 0.0
H215 H 0.30822 0.13321 0.55252 0.0
H216 H 0.24779 0.07976 0.50174 0.0
H217 H 0.23795 0.16573 0.56501 0.0
H218 H 0.24024 0.21599 0.57183 0.0
H219 H 0.19747 0.22587 0.47327 0.0
H220 H 0.19517 0.17565 0.46554 0.0
H221 H 0.13774 0.03482 0.55302 0.0
H222 H 0.17574 0.0549 0.55279 0.0
H223 H 0.15609 0.10838 0.46034 0.0
H224 H 0.11799 0.08872 0.46098 0.0
H225 H 0.1791 0.13618 0.51155 0.0
H226 H 0.18923 0.0505 0.44734 0.0
H227 H 0.18704 0.00028 0.43979 0.0
H228 H 0.2292 0.98977 0.53896 0.0
H229 H 0.23139 0.03994 0.54741 0.0
C230 C 0.28371 0.16602 0.47695 0.0
C231 C 0.3004 0.15938 0.50419 0.0
C232 C 0.26263 0.15303 0.47742 0.0
C233 C 0.25772 0.1333 0.50532 0.0
C234 C 0.2745 0.12608 0.53195 0.0
C235 C 0.29563 0.13906 0.53148 0.0
C236 C 0.23492 0.12063 0.50704 0.0
C237 C 0.23276 0.09203 0.50439 0.0
C238 C 0.21533 0.13673 0.50975 0.0
C239 C 0.21655 0.16694 0.51451 0.0
C240 C 0.22916 0.17863 0.54463 0.0
C241 C 0.23044 0.2071 0.54869 0.0
C242 C 0.21905 0.22411 0.52295 0.0
C243 C 0.2063 0.21267 0.49317 0.0
C244 C 0.20499 0.1842 0.48896 0.0
C245 C 0.14161 0.05072 0.53249 0.0
C246 C 0.12494 0.0602 0.50699 0.0
C247 C 0.16332 0.06215 0.53232 0.0
C248 C 0.16886 0.08293 0.50622 0.0
C249 C 0.1522 0.09241 0.48077 0.0
C250 C 0.13044 0.0812 0.48119 0.0
C251 C 0.19186 0.09525 0.50584 0.0
C252 C 0.19409 0.12384 0.50888 0.0
C253 C 0.21148 0.07912 0.50337 0.0
C254 C 0.21029 0.04896 0.49821 0.0
C255 C 0.1979 0.03747 0.46769 0.0
C256 C 0.19668 0.00902 0.46323 0.0
C257 C 0.20793 0.99185 0.48893 0.0
C258 C 0.22047 0.0031 0.5191 0.0
C259 C 0.22173 0.03154 0.52372 0.0
H260 H 0.20696 0.96983 0.48543 0.0
H261 H 0.22007 0.24616 0.52614 0.0
H262 H 0.24493 0.69641 0.0526 0.0
H263 H 0.28045 0.67157 0.05103 0.0
H264 H 0.2513 0.6148 0.96993 0.0
H265 H 0.21551 0.63929 0.97189 0.0
H266 H 0.27616 0.58878 0.02609 0.0
H267 H 0.28563 0.66382 0.93938 0.0
H268 H 0.28518 0.71221 0.91888 0.0
H269 H 0.33451 0.73258 0.00512 0.0
H270 H 0.33502 0.68435 0.02652 0.0
H271 H 0.38092 0.53248 0.96865 0.0
H272 H 0.34392 0.5541 0.96989 0.0
H273 H 0.37026 0.61544 0.04714 0.0
H274 H 0.40719 0.5939 0.04625 0.0
H275 H 0.34624 0.63839 0.99049 0.0
H276 H 0.33625 0.56362 0.07816 0.0
H277 H 0.33662 0.5153 0.09902 0.0
H278 H 0.28836 0.4944 0.01132 0.0
H279 H 0.28793 0.54256 0.98959 0.0
C280 C 0.246 0.67846 0.03475 0.0
C281 C 0.22744 0.66984 0.01229 0.0
C282 C 0.26634 0.66442 0.03366 0.0
C283 C 0.26856 0.64153 0.01005 0.0
C284 C 0.24994 0.63248 0.98823 0.0
C285 C 0.22959 0.6466 0.98917 0.0
C286 C 0.29043 0.62734 0.00783 0.0
C287 C 0.29144 0.59949 0.01779 0.0
C288 C 0.31041 0.64149 0.99766 0.0
C289 C 0.3102 0.67051 0.98479 0.0
C290 C 0.29625 0.67865 0.95418 0.0
C291 C 0.296 0.70605 0.94236 0.0
C292 C 0.30976 0.72547 0.96074 0.0
C293 C 0.32384 0.71752 0.99094 0.0
C294 C 0.32413 0.69015 0.00291 0.0
C295 C 0.37876 0.55038 0.98624 0.0
C296 C 0.39701 0.5615 0.00729 0.0
C297 C 0.35762 0.56274 0.98688 0.0
C298 C 0.35431 0.58629 0.00879 0.0
C299 C 0.37247 0.59735 0.02991 0.0
C300 C 0.39358 0.58506 0.02926 0.0
C301 C 0.33207 0.59986 0.00917 0.0
C302 C 0.33097 0.62762 0.99874 0.0
C303 C 0.31205 0.5856 0.01894 0.0
C304 C 0.31225 0.55664 0.03199 0.0
C305 C 0.32586 0.54868 0.06311 0.0
C306 C 0.32606 0.52133 0.07513 0.0
C307 C 0.31257 0.50178 0.05644 0.0
C308 C 0.29882 0.50956 0.02574 0.0
C309 C 0.29858 0.53688 0.01357 0.0
H310 H 0.31274 0.48061 0.06579 0.0
H311 H 0.30956 0.74667 0.95154 0.0
H312 H 0.73181 0.81693 0.46018 0.0
H313 H 0.76872 0.83969 0.45981 0.0
H314 H 0.74656 0.89687 0.5441 0.0
H315 H 0.70933 0.87455 0.544 0.0
H316 H 0.77073 0.92216 0.48745 0.0
H317 H 0.77883 0.84479 0.57092 0.0
H318 H 0.77611 0.79607 0.58945 0.0
H319 H 0.8206 0.77467 0.49961 0.0
H320 H 0.82333 0.82325 0.48019 0.0
H321 H 0.87986 0.97138 0.54288 0.0
H322 H 0.84182 0.9515 0.54202 0.0
H323 H 0.86274 0.89038 0.46216 0.0
H324 H 0.9008 0.91015 0.46288 0.0
H325 H 0.83882 0.86761 0.51778 0.0
H326 H 0.83059 0.94479 0.43382 0.0
H327 H 0.83325 0.99344 0.4149 0.0
H328 H 0.78909 0.0152 0.50503 0.0
H329 H 0.78643 0.96669 0.52484 0.0
C330 C 0.73468 0.83459 0.47826 0.0
C331 C 0.71768 0.84392 0.50218 0.0
C332 C 0.75583 0.84741 0.47825 0.0
C333 C 0.76043 0.86974 0.50226 0.0
C334 C 0.74335 0.87959 0.52547 0.0
C335 C 0.72218 0.86671 0.52558 0.0
C336 C 0.78324 0.88244 0.50359 0.0
C337 C 0.78561 0.91036 0.49457 0.0
C338 C 0.80264 0.86685 0.51216 0.0
C339 C 0.80111 0.83763 0.52387 0.0
C340 C 0.78789 0.82967 0.55492 0.0
C341 C 0.78637 0.80208 0.56562 0.0
C342 C 0.79813 0.78228 0.54566 0.0
C343 C 0.81148 0.79003 0.51502 0.0
C344 C 0.81303 0.81759 0.50417 0.0
C345 C 0.87629 0.95388 0.52484 0.0
C346 C 0.89333 0.94235 0.50291 0.0
C347 C 0.85455 0.94253 0.52439 0.0
C348 C 0.84939 0.91961 0.50173 0.0
C349 C 0.86638 0.90803 0.4799 0.0
C350 C 0.88812 0.9193 0.48043 0.0
C351 C 0.8264 0.90733 0.50133 0.0
C352 C 0.82397 0.87946 0.51063 0.0
C353 C 0.80697 0.92297 0.49297 0.0
C354 C 0.8085 0.95214 0.48105 0.0
C355 C 0.8216 0.95998 0.4498 0.0
C356 C 0.82308 0.98752 0.43888 0.0
C357 C 0.8114 0.00741 0.45881 0.0
C358 C 0.79816 0.99978 0.48965 0.0
C359 C 0.79664 0.97226 0.50072 0.0
H360 H 0.81256 0.02873 0.45031 0.0
H361 H 0.79693 0.76093 0.55399 0.0
H362 H 0.80932 0.36965 0.04578 0.0
H363 H 0.77357 0.39417 0.0472 0.0
H364 H 0.74629 0.34099 0.95984 0.0
H365 H 0.78193 0.3165 0.9582 0.0
H366 H 0.73534 0.3929 0.94576 0.0
H367 H 0.73306 0.33198 0.05369 0.0
H368 H 0.74703 0.31175 0.1138 0.0
H369 H 0.74496 0.39063 0.16726 0.0
H370 H 0.73126 0.4114 0.10728 0.0
H371 H 0.61844 0.41351 0.96508 0.0
H372 H 0.65615 0.39399 0.9644 0.0
H373 H 0.67859 0.45197 0.04953 0.0
H374 H 0.64067 0.47114 0.05118 0.0
H375 H 0.69308 0.40066 0.06558 0.0
H376 H 0.69318 0.46097 0.95797 0.0
H377 H 0.67874 0.48064 0.89783 0.0
H378 H 0.68452 0.4024 0.84364 0.0
H379 H 0.6987 0.38216 0.90362 0.0
C380 C 0.79566 0.36314 0.02698 0.0
C381 C 0.79843 0.34112 0.00191 0.0
C382 C 0.77526 0.37717 0.02781 0.0
C383 C 0.75717 0.36922 0.0039 0.0
C384 C 0.76003 0.34752 0.97846 0.0
C385 C 0.78043 0.3336 0.97749 0.0
C386 C 0.73515 0.38325 0.00551 0.0
C387 C 0.72599 0.39435 0.97189 0.0
C388 C 0.72322 0.38576 0.03979 0.0
C389 C 0.73138 0.37329 0.0759 0.0
C390 C 0.73576 0.34505 0.07819 0.0
C391 C 0.7436 0.33348 0.11224 0.0
C392 C 0.74695 0.34991 0.1443 0.0
C393 C 0.7424 0.37793 0.14239 0.0
C394 C 0.73458 0.38961 0.10838 0.0
C395 C 0.63134 0.42199 0.98389 0.0
C396 C 0.62655 0.4439 0.00818 0.0
C397 C 0.65295 0.41098 0.98319 0.0
C398 C 0.67024 0.42175 0.00658 0.0
C399 C 0.6655 0.44345 0.03112 0.0
C400 C 0.64388 0.45451 0.03181 0.0
C401 C 0.69318 0.41002 0.00576 0.0
C402 C 0.7025 0.39936 0.03952 0.0
C403 C 0.70524 0.40785 0.97158 0.0
C404 C 0.69682 0.42 0.9354 0.0
C405 C 0.69121 0.44791 0.93331 0.0
C406 C 0.6831 0.45917 0.89923 0.0
C407 C 0.68067 0.44277 0.86696 0.0
C408 C 0.6864 0.41508 0.86867 0.0
C409 C 0.69449 0.40371 0.90269 0.0
H410 H 0.67438 0.45153 0.8406 0.0
H411 H 0.75301 0.34092 0.17064 0.0
H412 H 0.04957 0.79234 0.17764 0.0
H413 H 0.03681 0.81878 0.23196 0.0
H414 H 0.10521 0.84564 0.25497 0.0
H415 H 0.11808 0.81912 0.2009 0.0
H416 H 0.08415 0.83421 0.31974 0.0
H417 H 0.06811 0.88653 0.20679 0.0
H418 H 0.05196 0.89475 0.14283 0.0
H419 H 0.98538 0.88 0.18494 0.0
H420 H 0.00118 0.8713 0.24908 0.0
H421 H 0.06388 0.95538 0.42465 0.0
H422 H 0.07491 0.92252 0.37634 0.0
H423 H 0.00594 0.89435 0.36512 0.0
H424 H 0.99472 0.92717 0.41346 0.0
H425 H 0.02587 0.90467 0.29595 0.0
H426 H 0.04271 0.85527 0.41073 0.0
H427 H 0.05972 0.84866 0.47442 0.0
H428 H 0.12582 0.85974 0.42854 0.0
H429 H 0.10919 0.86684 0.36462 0.0
C430 C 0.06188 0.80381 0.19439 0.0
C431 C 0.0848 0.8038 0.18486 0.0
C432 C 0.05458 0.81889 0.2254 0.0
C433 C 0.07002 0.83453 0.24716 0.0
C434 C 0.09301 0.83372 0.23858 0.0
C435 C 0.10035 0.81851 0.20772 0.0
C436 C 0.06213 0.85263 0.27785 0.0
C437 C 0.07156 0.84977 0.31447 0.0
C438 C 0.04541 0.87264 0.27113 0.0
C439 C 0.03585 0.87796 0.23263 0.0
C440 C 0.05004 0.88482 0.20234 0.0
C441 C 0.04095 0.88961 0.16607 0.0
C442 C 0.01766 0.88782 0.1598 0.0
C443 C 0.00341 0.88133 0.18983 0.0
C444 C 0.01243 0.87648 0.22615 0.0
C445 C 0.05105 0.94217 0.41197 0.0
C446 C 0.02842 0.94388 0.42288 0.0
C447 C 0.05741 0.92332 0.38451 0.0
C448 C 0.04126 0.90587 0.36742 0.0
C449 C 0.01865 0.90761 0.37807 0.0
C450 C 0.01229 0.92633 0.40574 0.0
C451 C 0.04794 0.88629 0.33773 0.0
C452 C 0.03832 0.88894 0.30128 0.0
C453 C 0.06461 0.86628 0.34456 0.0
C454 C 0.07468 0.86183 0.38293 0.0
C455 C 0.06087 0.85651 0.41426 0.0
C456 C 0.07044 0.85264 0.4504 0.0
C457 C 0.09383 0.85384 0.45554 0.0
C458 C 0.1077 0.85885 0.42452 0.0
C459 C 0.09821 0.86277 0.38832 0.0
H460 H 0.10121 0.85084 0.48355 0.0
H461 H 0.01065 0.89154 0.13171 0.0
H462 H 0.60037 0.72608 0.72277 0.0
H463 H 0.59035 0.69768 0.77749 0.0
H464 H 0.54225 0.65271 0.70831 0.0
H465 H 0.55308 0.67949 0.65287 0.0
H466 H 0.52836 0.6738 0.78804 0.0
H467 H 0.58428 0.6214 0.7181 0.0
H468 H 0.62149 0.61673 0.68874 0.0
H469 H 0.65413 0.63495 0.7956 0.0
H470 H 0.61707 0.64015 0.82543 0.0
H471 H 0.4987 0.5563 0.89198 0.0
H472 H 0.50943 0.58968 0.84351 0.0
H473 H 0.57421 0.60102 0.89948 0.0
H474 H 0.56401 0.56605 0.94645 0.0
H475 H 0.58118 0.60117 0.83009 0.0
H476 H 0.5283 0.64932 0.90366 0.0
H477 H 0.49267 0.65742 0.93665 0.0
H478 H 0.45616 0.65289 0.83051 0.0
H479 H 0.49153 0.64436 0.79692 0.0
C480 C 0.5878 0.71002 0.71893 0.0
C481 C 0.57766 0.70513 0.68307 0.0
C482 C 0.58196 0.69402 0.75039 0.0
C483 C 0.56558 0.67323 0.74675 0.0
C484 C 0.55482 0.66887 0.71159 0.0
C485 C 0.56096 0.68441 0.67996 0.0
C486 C 0.56039 0.65499 0.77906 0.0
C487 C 0.53975 0.65776 0.79726 0.0
C488 C 0.57572 0.63488 0.79172 0.0
C489 C 0.59794 0.63149 0.77385 0.0
C490 C 0.5994 0.62468 0.73522 0.0
C491 C 0.62045 0.62188 0.71852 0.0
C492 C 0.64016 0.62563 0.74026 0.0
C493 C 0.63885 0.6321 0.77877 0.0
C494 C 0.61783 0.63497 0.79559 0.0
C495 C 0.51523 0.56594 0.89384 0.0
C496 C 0.53052 0.55873 0.9229 0.0
C497 C 0.5213 0.58523 0.86634 0.0
C498 C 0.54244 0.59854 0.86826 0.0
C499 C 0.55778 0.59118 0.89733 0.0
C500 C 0.55195 0.57124 0.92419 0.0
C501 C 0.54876 0.61946 0.83931 0.0
C502 C 0.5697 0.61729 0.82155 0.0
C503 C 0.53389 0.64064 0.82778 0.0
C504 C 0.51257 0.64599 0.84781 0.0
C505 C 0.51266 0.64988 0.88738 0.0
C506 C 0.49251 0.65457 0.90618 0.0
C507 C 0.47216 0.65561 0.8857 0.0
C508 C 0.47193 0.65205 0.84634 0.0
C509 C 0.49203 0.64733 0.8274 0.0
H510 H 0.45657 0.65923 0.90031 0.0
H511 H 0.65645 0.62345 0.72728 0.0
H512 H 0.91592 0.15611 0.15886 0.0
H513 H 0.92785 0.13141 0.21634 0.0
H514 H 0.96547 0.2027 0.25417 0.0
H515 H 0.95319 0.22776 0.19676 0.0
H516 H 0.98952 0.14976 0.25474 0.0
H517 H 0.92194 0.19121 0.29937 0.0
H518 H 0.88174 0.2034 0.29611 0.0
H519 H 0.86308 0.11806 0.29599 0.0
H520 H 0.9032 0.10535 0.29866 0.0
H521 H 0.01694 0.0867 0.43181 0.0
H522 H 0.00517 0.11949 0.38286 0.0
H523 H 0.95013 0.06546 0.35001 0.0
H524 H 0.96122 0.03325 0.39999 0.0
H525 H 0.93563 0.11469 0.35017 0.0
H526 H 0.00104 0.07207 0.29868 0.0
H527 H 0.04067 0.05742 0.29795 0.0
H528 H 0.06292 0.14132 0.30633 0.0
H529 H 0.02339 0.15645 0.30759 0.0
C530 C 0.92665 0.16652 0.17955 0.0
C531 C 0.93369 0.19376 0.17353 0.0
C532 C 0.93338 0.15247 0.21232 0.0
C533 C 0.94747 0.16531 0.23939 0.0
C534 C 0.95455 0.19253 0.23352 0.0
C535 C 0.94748 0.2068 0.20096 0.0
C536 C 0.95515 0.14979 0.27325 0.0
C537 C 0.97789 0.14249 0.27612 0.0
C538 C 0.93975 0.13976 0.30029 0.0
C539 C 0.9156 0.14734 0.2989 0.0
C540 C 0.90928 0.17504 0.29831 0.0
C541 C 0.8865 0.18204 0.29664 0.0
C542 C 0.86987 0.16152 0.29576 0.0
C543 C 0.87598 0.13394 0.29665 0.0
C544 C 0.89874 0.12683 0.29828 0.0
C545 C 0.00234 0.08183 0.41409 0.0
C546 C 0.99004 0.05736 0.4196 0.0
C547 C 0.99568 0.10054 0.38602 0.0
C548 C 0.97695 0.0948 0.36229 0.0
C549 C 0.96462 0.0704 0.36795 0.0
C550 C 0.97102 0.05195 0.39644 0.0
C551 C 0.97007 0.1141 0.33155 0.0
C552 C 0.94742 0.12213 0.32917 0.0
C553 C 0.9855 0.1244 0.30453 0.0
C554 C 0.00927 0.11536 0.30367 0.0
C555 C 0.01439 0.08738 0.30065 0.0
C556 C 0.03683 0.07899 0.3001 0.0
C557 C 0.0543 0.09842 0.30221 0.0
C558 C 0.04936 0.12629 0.30477 0.0
C559 C 0.02695 0.13478 0.30538 0.0
H560 H 0.07166 0.09188 0.30178 0.0
H561 H 0.85225 0.16698 0.29447 0.0
H562 H 0.40781 0.3072 0.69719 0.0
H563 H 0.41877 0.33503 0.75212 0.0
H564 H 0.48888 0.32477 0.7257 0.0
H565 H 0.47806 0.29624 0.67115 0.0
H566 H 0.48115 0.32117 0.80276 0.0
H567 H 0.46296 0.38195 0.69879 0.0
H568 H 0.43893 0.40033 0.64708 0.0
H569 H 0.38793 0.41997 0.72734 0.0
H570 H 0.41154 0.40134 0.77948 0.0
H571 H 0.52656 0.43304 0.90868 0.0
H572 H 0.51578 0.40048 0.8589 0.0
H573 H 0.44557 0.41719 0.87759 0.0
H574 H 0.45625 0.45039 0.92661 0.0
H575 H 0.45324 0.41666 0.80488 0.0
H576 H 0.47126 0.35694 0.9093 0.0
H577 H 0.49486 0.33832 0.96139 0.0
H578 H 0.54546 0.31631 0.88164 0.0
H579 H 0.52229 0.33515 0.82911 0.0
C580 C 0.42558 0.31039 0.70346 0.0
C581 C 0.44207 0.29962 0.6797 0.0
C582 C 0.4318 0.3265 0.73468 0.0
C583 C 0.45462 0.33227 0.74262 0.0
C584 C 0.47118 0.32065 0.71992 0.0
C585 C 0.46496 0.30455 0.68863 0.0
C586 C 0.46115 0.35143 0.77353 0.0
C587 C 0.47527 0.34215 0.8031 0.0
C588 C 0.45307 0.3786 0.77426 0.0
C589 C 0.43892 0.39 0.74298 0.0
C590 C 0.44655 0.39 0.70537 0.0
C591 C 0.43302 0.40049 0.67599 0.0
C592 C 0.41189 0.41125 0.68391 0.0
C593 C 0.40428 0.4116 0.72124 0.0
C594 C 0.41774 0.4011 0.75072 0.0
C595 C 0.50882 0.42973 0.90226 0.0
C596 C 0.49225 0.44429 0.92159 0.0
C597 C 0.50267 0.41098 0.87393 0.0
C598 C 0.47984 0.40608 0.86484 0.0
C599 C 0.46329 0.42061 0.88413 0.0
C600 C 0.46942 0.43956 0.91218 0.0
C601 C 0.47319 0.38643 0.83446 0.0
C602 C 0.45908 0.39566 0.8048 0.0
C603 C 0.48121 0.3592 0.8338 0.0
C604 C 0.49512 0.34769 0.86531 0.0
C605 C 0.48749 0.34831 0.9029 0.0
C606 C 0.50078 0.33768 0.9325 0.0
C607 C 0.52167 0.3262 0.92484 0.0
C608 C 0.52929 0.32524 0.88754 0.0
C609 C 0.51607 0.33586 0.85783 0.0
H610 H 0.53194 0.31799 0.9478 0.0
H611 H 0.40144 0.41936 0.66112 0.0
H612 H 0.56126 0.7318 0.31074 0.0
H613 H 0.5512 0.70491 0.25382 0.0
H614 H 0.58341 0.63413 0.30333 0.0
H615 H 0.59312 0.66068 0.3603 0.0
H616 H 0.59442 0.64671 0.22402 0.0
H617 H 0.53067 0.63487 0.30826 0.0
H618 H 0.49982 0.65203 0.34739 0.0
H619 H 0.47078 0.69221 0.2498 0.0
H620 H 0.50168 0.67559 0.2102 0.0
H621 H 0.55687 0.53366 0.1168 0.0
H622 H 0.56703 0.56647 0.16651 0.0
H623 H 0.51604 0.62167 0.12403 0.0
H624 H 0.50502 0.58818 0.07545 0.0
H625 H 0.51457 0.62175 0.19592 0.0
H626 H 0.57483 0.63213 0.10956 0.0
H627 H 0.60556 0.61764 0.06814 0.0
H628 H 0.64141 0.58477 0.16465 0.0
H629 H 0.61074 0.59871 0.2066 0.0
C630 C 0.56621 0.71053 0.30927 0.0
C631 C 0.5778 0.69818 0.33983 0.0
C632 C 0.56047 0.69524 0.27692 0.0
C633 C 0.56658 0.66759 0.27457 0.0
C634 C 0.5786 0.65546 0.3047 0.0
C635 C 0.58399 0.67055 0.33722 0.0
C636 C 0.56002 0.65091 0.24117 0.0
C637 C 0.577 0.64105 0.21786 0.0
C638 C 0.53723 0.64444 0.23262 0.0
C639 C 0.51862 0.65428 0.25639 0.0
C640 C 0.51782 0.64758 0.29523 0.0
C641 C 0.50031 0.65716 0.31747 0.0
C642 C 0.48338 0.67328 0.30112 0.0
C643 C 0.48392 0.67977 0.26245 0.0
C644 C 0.50142 0.67027 0.24009 0.0
C645 C 0.54787 0.55283 0.11803 0.0
C646 C 0.53021 0.55843 0.09223 0.0
C647 C 0.5538 0.57169 0.14629 0.0
C648 C 0.54265 0.59688 0.14861 0.0
C649 C 0.52495 0.60244 0.12282 0.0
C650 C 0.51868 0.58332 0.09504 0.0
C651 C 0.54903 0.61698 0.17865 0.0
C652 C 0.53201 0.62756 0.20148 0.0
C653 C 0.5718 0.62456 0.18627 0.0
C654 C 0.59039 0.61629 0.16119 0.0
C655 C 0.5892 0.62165 0.12192 0.0
C656 C 0.60662 0.61356 0.09836 0.0
C657 C 0.62541 0.60024 0.11375 0.0
C658 C 0.62684 0.59507 0.15277 0.0
C659 C 0.60945 0.60309 0.17646 0.0
H660 H 0.63887 0.59398 0.09545 0.0
H661 H 0.46983 0.68067 0.31838 0.0
H662 H 0.96992 0.2092 0.83374 0.0
H663 H 0.98148 0.18185 0.77942 0.0
H664 H 0.9122 0.15801 0.75796 0.0
H665 H 0.90058 0.18498 0.81254 0.0
H666 H 0.94063 0.11414 0.76032 0.0
H667 H 0.93762 0.20242 0.69959 0.0
H668 H 0.94653 0.25163 0.69196 0.0
H669 H 0.01697 0.23348 0.68495 0.0
H670 H 0.00851 0.18417 0.69309 0.0
H671 H 0.95412 0.04761 0.58537 0.0
H672 H 0.94264 0.07966 0.63419 0.0
H673 H 0.01176 0.10627 0.65008 0.0
H674 H 0.02338 0.07457 0.60058 0.0
H675 H 0.98379 0.14922 0.65043 0.0
H676 H 0.98763 0.06179 0.71224 0.0
H677 H 0.97962 0.01244 0.72077 0.0
H678 H 0.90885 0.02878 0.72758 0.0
H679 H 0.91641 0.07822 0.71852 0.0
C680 C 0.95716 0.19825 0.81728 0.0
C681 C 0.93435 0.1992 0.82739 0.0
C682 C 0.96376 0.1828 0.78614 0.0
C683 C 0.94768 0.16801 0.7646 0.0
C684 C 0.92486 0.16933 0.7742 0.0
C685 C 0.91823 0.1849 0.80518 0.0
C686 C 0.95477 0.14998 0.73335 0.0
C687 C 0.94976 0.12187 0.73598 0.0
C688 C 0.96732 0.15998 0.70229 0.0
C689 C 0.97244 0.18962 0.69734 0.0
C690 C 0.95503 0.20894 0.69676 0.0
C691 C 0.95999 0.23685 0.69227 0.0
C692 C 0.98231 0.24568 0.68807 0.0
C693 C 0.9997 0.22661 0.68826 0.0
C694 C 0.99482 0.19868 0.69277 0.0
C695 C 0.96691 0.06029 0.59917 0.0
C696 C 0.9897 0.05839 0.58929 0.0
C697 C 0.96032 0.07856 0.62716 0.0
C698 C 0.97639 0.09506 0.64617 0.0
C699 C 0.99909 0.09367 0.63582 0.0
C700 C 0.00571 0.07548 0.60763 0.0
C701 C 0.96948 0.1134 0.67727 0.0
C702 C 0.97461 0.14151 0.67472 0.0
C703 C 0.95718 0.10339 0.70863 0.0
C704 C 0.95258 0.07368 0.71433 0.0
C705 C 0.97035 0.05484 0.71527 0.0
C706 C 0.96589 0.02686 0.72024 0.0
C707 C 0.94373 0.01748 0.72462 0.0
C708 C 0.926 0.03608 0.72413 0.0
C709 C 0.93036 0.06409 0.71911 0.0
H710 H 0.94032 0.9958 0.72847 0.0
H711 H 0.98611 0.26729 0.68459 0.0
H712 H 0.40682 0.31814 0.32223 0.0
H713 H 0.41837 0.34559 0.26758 0.0
H714 H 0.48664 0.31737 0.28238 0.0
H715 H 0.47519 0.29019 0.3376 0.0
H716 H 0.48669 0.37052 0.27192 0.0
H717 H 0.45155 0.29441 0.20838 0.0
H718 H 0.4214 0.26063 0.19393 0.0
H719 H 0.37687 0.32561 0.16097 0.0
H720 H 0.40666 0.35982 0.17572 0.0
H721 H 0.52491 0.42571 0.09714 0.0
H722 H 0.51404 0.3933 0.14688 0.0
H723 H 0.44644 0.42487 0.14382 0.0
H724 H 0.45709 0.45728 0.09383 0.0
H725 H 0.44709 0.36846 0.14671 0.0
H726 H 0.48228 0.44435 0.21297 0.0
H727 H 0.51284 0.47773 0.2268 0.0
H728 H 0.55789 0.41195 0.25386 0.0
H729 H 0.52767 0.37815 0.23965 0.0
C730 C 0.42422 0.31746 0.31347 0.0
C731 C 0.44009 0.30196 0.33408 0.0
C732 C 0.4308 0.33314 0.2822 0.0
C733 C 0.45333 0.33329 0.27054 0.0
C734 C 0.46917 0.31757 0.29085 0.0
C735 C 0.46263 0.30208 0.32237 0.0
C736 C 0.46052 0.35084 0.23827 0.0
C737 C 0.47827 0.36969 0.24435 0.0
C738 C 0.44923 0.35023 0.20251 0.0
C739 C 0.43129 0.3297 0.19348 0.0
C740 C 0.43528 0.30152 0.19832 0.0
C741 C 0.41826 0.28229 0.19003 0.0
C742 C 0.39722 0.29097 0.17662 0.0
C743 C 0.39317 0.31891 0.17139 0.0
C744 C 0.41013 0.33823 0.17967 0.0
C745 C 0.50771 0.42575 0.10697 0.0
C746 C 0.49189 0.44419 0.09168 0.0
C747 C 0.50155 0.40725 0.13545 0.0
C748 C 0.4795 0.40689 0.14925 0.0
C749 C 0.46355 0.42486 0.13355 0.0
C750 C 0.4697 0.44343 0.10512 0.0
C751 C 0.47315 0.38806 0.18052 0.0
C752 C 0.45556 0.36906 0.17425 0.0
C753 C 0.48464 0.38841 0.21604 0.0
C754 C 0.50278 0.40872 0.22488 0.0
C755 C 0.49875 0.437 0.22159 0.0
C756 C 0.516 0.456 0.22954 0.0
C757 C 0.53731 0.44697 0.2411 0.0
C758 C 0.54139 0.41892 0.24484 0.0
C759 C 0.5242 0.39983 0.23687 0.0
H760 H 0.55065 0.46171 0.24724 0.0
H761 H 0.38406 0.27605 0.17022 0.0
H762 H 0.06126 0.83638 0.87204 0.0
H763 H 0.04839 0.86185 0.81617 0.0
H764 H 0.09078 0.81334 0.74528 0.0
H765 H 0.10284 0.78646 0.8006 0.0
H766 H 0.09436 0.87545 0.74017 0.0
H767 H 0.0411 0.79935 0.7348 0.0
H768 H 0.01239 0.76836 0.76198 0.0
H769 H 0.9701 0.83707 0.78433 0.0
H770 H 0.99871 0.86853 0.75778 0.0
H771 H 0.05917 0.9341 0.56617 0.0
H772 H 0.07032 0.90188 0.61626 0.0
H773 H 0.01032 0.92143 0.67807 0.0
H774 H 0.99831 0.95181 0.62625 0.0
H775 H 0.01636 0.87172 0.68728 0.0
H776 H 0.06717 0.94846 0.6991 0.0
H777 H 0.09513 0.98279 0.67774 0.0
H778 H 0.1411 0.91857 0.65117 0.0
H779 H 0.1133 0.88383 0.67194 0.0
C780 C 0.0675 0.83055 0.84456 0.0
C781 C 0.08312 0.8092 0.84105 0.0
C782 C 0.06024 0.84535 0.8127 0.0
C783 C 0.06868 0.83941 0.77679 0.0
C784 C 0.08419 0.81822 0.77292 0.0
C785 C 0.09116 0.80303 0.80467 0.0
C786 C 0.06174 0.856 0.74349 0.0
C787 C 0.07743 0.87443 0.72808 0.0
C788 C 0.03943 0.85524 0.72896 0.0
C789 C 0.02214 0.83631 0.74463 0.0
C790 C 0.02577 0.80788 0.74582 0.0
C791 C 0.00949 0.79022 0.76104 0.0
C792 C 0.98946 0.80074 0.77496 0.0
C793 C 0.98563 0.82895 0.77358 0.0
C794 C 0.00186 0.84669 0.7584 0.0
C795 C 0.04839 0.93133 0.59046 0.0
C796 C 0.02799 0.94542 0.59267 0.0
C797 C 0.05483 0.91311 0.61925 0.0
C798 C 0.04152 0.90967 0.65166 0.0
C799 C 0.02096 0.92365 0.65352 0.0
C800 C 0.01412 0.94109 0.62403 0.0
C801 C 0.04896 0.89163 0.68362 0.0
C802 C 0.03337 0.87287 0.699 0.0
C803 C 0.07124 0.89269 0.69892 0.0
C804 C 0.08807 0.91354 0.68673 0.0
C805 C 0.08319 0.94166 0.6885 0.0
C806 C 0.09901 0.96119 0.67652 0.0
C807 C 0.11985 0.95286 0.66301 0.0
C808 C 0.12494 0.92499 0.66159 0.0
C809 C 0.10917 0.90537 0.67349 0.0
H810 H 0.13207 0.96801 0.65371 0.0
H811 H 0.97688 0.78704 0.78674 0.0
loop_
_geom_bond_atom_site_label_1
_geom_bond_atom_site_label_2
_geom_bond_distance
_geom_bond_site_symmetry_2
_ccdc_geom_bond_type
C0 C1 1.384 . S
C0 H13 0.947 . S
C0 C35 1.382 . S
C1 C0 1.384 . S
C1 C2 1.378 . S
C2 C1 1.378 . S
C2 C3 1.378 . S
C2 H14 0.952 . S
C3 C2 1.378 . S
C3 H15 0.950 . S
C3 C34 1.383 . S
H4 C23 0.947 . S
H5 C24 0.946 . S
H6 C26 0.953 . S
H7 C27 0.945 . S
H8 C29 0.952 . S
H9 C30 0.949 . S
H10 C32 0.950 . S
H11 C33 0.948 . S
H12 C35 0.951 . S
H13 C0 0.947 . S
H14 C2 0.952 . S
H15 C3 0.950 . S
N16 C19 1.382 . S
N16 C21 1.363 . S
N17 C19 1.371 1_556 S
N17 C20 1.372 . S
N18 C20 1.361 1_554 S
N18 C21 1.377 . S
C19 N16 1.382 . S
C19 N17 1.371 1_554 S
C19 C22 1.480 . S
C20 N17 1.372 . S
C20 N18 1.361 1_556 S
C20 C28 1.457 . S
C21 N16 1.363 . S
C21 N18 1.377 . S
C21 C34 1.479 . S
C22 C19 1.480 . S
C22 C23 1.383 . S
C22 C27 1.385 1_554 S
C23 H4 0.947 . S
C23 C22 1.383 . S
C23 C24 1.388 . S
C24 H5 0.946 . S
C24 C23 1.388 . S
C24 C25 1.384 . S
C25 C24 1.384 . S
C25 C26 1.377 1_554 S
C26 H6 0.953 . S
C26 C25 1.377 1_556 S
C26 C27 1.369 . S
C27 H7 0.945 . S
C27 C22 1.385 1_556 S
C27 C26 1.369 . S
C28 C20 1.457 . S
C28 C29 1.372 . S
C28 C33 1.364 . S
C29 H8 0.952 . S
C29 C28 1.372 . S
C29 C30 1.389 . S
C30 H9 0.949 . S
C30 C29 1.389 . S
C30 C31 1.387 . S
C31 C30 1.387 . S
C31 C32 1.372 . S
C32 H10 0.950 . S
C32 C31 1.372 . S
C32 C33 1.379 . S
C33 H11 0.948 . S
C33 C28 1.364 . S
C33 C32 1.379 . S
C34 C3 1.383 . S
C34 C21 1.479 . S
C34 C35 1.398 . S
C35 C0 1.382 . S
C35 H12 0.951 . S
C35 C34 1.398 . S
C36 C37 1.384 . S
C36 H49 0.947 . S
C36 C71 1.382 . S
C37 C36 1.384 . S
C37 C38 1.378 . S
C38 C37 1.378 . S
C38 C39 1.378 . S
C38 H50 0.952 . S
C39 C38 1.378 . S
C39 H51 0.950 . S
C39 C70 1.383 . S
H40 C59 0.947 . S
H41 C60 0.946 . S
H42 C62 0.953 . S
H43 C63 0.945 . S
H44 C65 0.952 . S
H45 C66 0.949 . S
H46 C68 0.950 . S
H47 C69 0.948 . S
H48 C71 0.951 . S
H49 C36 0.947 . S
H50 C38 0.952 . S
H51 C39 0.950 . S
N52 C55 1.382 . S
N52 C57 1.363 . S
N53 C55 1.371 . S
N53 C56 1.372 . S
N54 C56 1.361 . S
N54 C57 1.377 . S
C55 N52 1.382 . S
C55 N53 1.371 . S
C55 C58 1.480 . S
C56 N53 1.372 . S
C56 N54 1.361 . S
C56 C64 1.457 . S
C57 N52 1.363 . S
C57 N54 1.377 . S
C57 C70 1.479 . S
C58 C55 1.480 . S
C58 C59 1.383 . S
C58 C63 1.385 . S
C59 H40 0.947 . S
C59 C58 1.383 . S
C59 C60 1.388 . S
C60 H41 0.946 . S
C60 C59 1.388 . S
C60 C61 1.384 . S
C61 C60 1.384 . S
C61 C62 1.377 . S
C62 H42 0.953 . S
C62 C61 1.377 . S
C62 C63 1.369 . S
C63 H43 0.945 . S
C63 C58 1.385 . S
C63 C62 1.369 . S
C64 C56 1.457 . S
C64 C65 1.372 . S
C64 C69 1.364 . S
C65 H44 0.952 . S
C65 C64 1.372 . S
C65 C66 1.389 . S
C66 H45 0.949 . S
C66 C65 1.389 . S
C66 C67 1.387 . S
C67 C66 1.387 . S
C67 C68 1.372 . S
C68 H46 0.950 . S
C68 C67 1.372 . S
C68 C69 1.379 . S
C69 H47 0.948 . S
C69 C64 1.364 . S
C69 C68 1.379 . S
C70 C39 1.383 . S
C70 C57 1.479 . S
C70 C71 1.398 . S
C71 C36 1.382 . S
C71 H48 0.951 . S
C71 C70 1.398 . S
C72 C73 1.384 . S
C72 H85 0.947 . S
C72 C107 1.382 . S
C73 C72 1.384 . S
C73 C74 1.378 . S
C74 C73 1.378 . S
C74 C75 1.378 . S
C74 H86 0.952 . S
C75 C74 1.378 . S
C75 H87 0.950 . S
C75 C106 1.383 . S
H76 C95 0.947 . S
H77 C96 0.946 . S
H78 C98 0.953 . S
H79 C99 0.945 . S
H80 C101 0.952 . S
H81 C102 0.949 . S
H82 C104 0.950 . S
H83 C105 0.948 . S
H84 C107 0.951 . S
H85 C72 0.947 . S
H86 C74 0.952 . S
H87 C75 0.950 . S
N88 C91 1.382 1_556 S
N88 C93 1.363 . S
N89 C91 1.371 . S
N89 C92 1.372 . S
N90 C92 1.361 . S
N90 C93 1.377 1_554 S
C91 N88 1.382 1_554 S
C91 N89 1.371 . S
C91 C94 1.480 . S
C92 N89 1.372 . S
C92 N90 1.361 . S
C92 C100 1.457 . S
C93 N88 1.363 . S
C93 N90 1.377 1_556 S
C93 C106 1.479 . S
C94 C91 1.480 . S
C94 C95 1.383 1_554 S
C94 C99 1.385 . S
C95 H76 0.947 . S
C95 C94 1.383 1_556 S
C95 C96 1.388 . S
C96 H77 0.946 . S
C96 C95 1.388 . S
C96 C97 1.384 1_556 S
C97 C96 1.384 1_554 S
C97 C98 1.377 . S
C98 H78 0.953 . S
C98 C97 1.377 . S
C98 C99 1.369 . S
C99 H79 0.945 . S
C99 C94 1.385 . S
C99 C98 1.369 . S
C100 C92 1.457 . S
C100 C101 1.372 . S
C100 C105 1.364 . S
C101 H80 0.952 . S
C101 C100 1.372 . S
C101 C102 1.389 . S
C102 H81 0.949 . S
C102 C101 1.389 . S
C102 C103 1.387 . S
C103 C102 1.387 . S
C103 C104 1.372 . S
C104 H82 0.950 . S
C104 C103 1.372 . S
C104 C105 1.379 . S
C105 H83 0.948 . S
C105 C100 1.364 . S
C105 C104 1.379 . S
C106 C75 1.383 . S
C106 C93 1.479 . S
C106 C107 1.398 . S
C107 C72 1.382 . S
C107 H84 0.951 . S
C107 C106 1.398 . S
C108 C109 1.384 . S
C108 H121 0.947 . S
C108 C143 1.382 . S
C109 C108 1.384 . S
C109 C110 1.378 . S
C110 C109 1.378 . S
C110 C111 1.378 . S
C110 H122 0.952 . S
C111 C110 1.378 . S
C111 H123 0.950 . S
C111 C142 1.383 . S
H112 C131 0.947 . S
H113 C132 0.946 . S
H114 C134 0.953 . S
H115 C135 0.945 . S
H116 C137 0.952 . S
H117 C138 0.949 . S
H118 C140 0.950 . S
H119 C141 0.948 . S
H120 C143 0.951 . S
H121 C108 0.947 . S
H122 C110 0.952 . S
H123 C111 0.950 . S
N124 C127 1.382 . S
N124 C129 1.363 . S
N125 C127 1.371 . S
N125 C128 1.372 . S
N126 C128 1.361 . S
N126 C129 1.377 . S
C127 N124 1.382 . S
C127 N125 1.371 . S
C127 C130 1.480 . S
C128 N125 1.372 . S
C128 N126 1.361 . S
C128 C136 1.457 . S
C129 N124 1.363 . S
C129 N126 1.377 . S
C129 C142 1.479 . S
C130 C127 1.480 . S
C130 C131 1.383 . S
C130 C135 1.385 . S
C131 H112 0.947 . S
C131 C130 1.383 . S
C131 C132 1.388 . S
C132 H113 0.946 . S
C132 C131 1.388 . S
C132 C133 1.384 . S
C133 C132 1.384 . S
C133 C134 1.377 . S
C134 H114 0.953 . S
C134 C133 1.377 . S
C134 C135 1.369 . S
C135 H115 0.945 . S
C135 C130 1.385 . S
C135 C134 1.369 . S
C136 C128 1.457 . S
C136 C137 1.372 . S
C136 C141 1.364 . S
C137 H116 0.952 . S
C137 C136 1.372 . S
C137 C138 1.389 . S
C138 H117 0.949 . S
C138 C137 1.389 . S
C138 C139 1.387 . S
C139 C138 1.387 . S
C139 C140 1.372 . S
C140 H118 0.950 . S
C140 C139 1.372 . S
C140 C141 1.379 . S
C141 H119 0.948 . S
C141 C136 1.364 . S
C141 C140 1.379 . S
C142 C111 1.383 . S
C142 C129 1.479 . S
C142 C143 1.398 . S
C143 C108 1.382 . S
C143 H120 0.951 . S
C143 C142 1.398 . S
C144 O160 1.251 . S
C144 O162 1.254 . S
N145 C146 1.333 . S
N145 C150 1.307 . S
N145 Zn151 2.020 . S
C146 N145 1.333 . S
C146 C147 1.379 . S
C146 H164 0.952 . S
C147 C146 1.379 . S
C147 C148 1.390 . S
C147 H174 0.949 . S
C148 C147 1.390 . S
C148 C149 1.357 . S
C149 C148 1.357 . S
C149 C150 1.370 . S
C149 H175 0.950 . S
C150 N145 1.307 . S
C150 C149 1.370 . S
C150 H168 0.948 . S
Zn151 N145 2.020 . S
Zn151 O160 2.039 1_545 S
Zn151 O166 2.034 1_545 S
Zn151 O170 2.025 . S
Zn151 O172 2.024 . S
C152 O171 1.246 . S
C152 O172 1.249 1_655 S
N153 C154 1.307 . S
N153 C155 1.333 . S
N153 Zn159 2.020 . S
C154 N153 1.307 . S
C154 C158 1.370 . S
C154 H165 0.948 . S
C155 N153 1.333 . S
C155 C156 1.379 . S
C155 H163 0.929 1_565 S
C156 C155 1.379 . S
C156 C157 1.390 . S
C156 H176 0.949 . S
C157 C156 1.390 . S
C157 C158 1.357 . S
C158 C154 1.370 . S
C158 C157 1.357 . S
C158 H177 0.950 . S
Zn159 N153 2.020 . S
Zn159 O162 2.025 1_655 S
Zn159 O167 2.024 1_655 S
Zn159 O169 2.039 1_565 S
Zn159 O171 2.034 1_565 S
O160 C144 1.251 . S
O160 Zn151 2.039 1_565 S
C161 O166 1.246 . S
C161 O167 1.249 . S
O162 C144 1.254 . S
O162 Zn159 2.025 1_455 S
H163 C155 0.929 1_545 S
H164 C146 0.952 . S
H165 C154 0.948 . S
O166 Zn151 2.034 1_565 S
O166 C161 1.246 . S
O167 Zn159 2.024 1_455 S
O167 C161 1.249 . S
H168 C150 0.948 . S
O169 Zn159 2.039 1_545 S
O169 C173 1.251 . S
O170 Zn151 2.025 . S
O170 C173 1.254 1_455 S
O171 C152 1.246 . S
O171 Zn159 2.034 1_545 S
O172 Zn151 2.024 . S
O172 C152 1.249 1_455 S
C173 O169 1.251 . S
C173 O170 1.254 1_655 S
H174 C147 0.949 . S
H175 C149 0.950 . S
H176 C156 0.949 . S
H177 C158 0.950 . S
C178 O194 1.251 . S
C178 O196 1.254 . S
N179 C180 1.333 1_554 S
N179 C184 1.307 . S
N179 Zn185 2.020 . S
C180 N179 1.333 1_556 S
C180 C181 1.379 . S
C180 H198 0.952 . S
C181 C180 1.379 . S
C181 C182 1.390 1_556 S
C181 H208 0.949 . S
C182 C181 1.390 1_554 S
C182 C183 1.357 . S
C183 C182 1.357 . S
C183 C184 1.370 . S
C183 H209 0.950 . S
C184 N179 1.307 . S
C184 C183 1.370 . S
C184 H202 0.948 . S
Zn185 N179 2.020 . S
Zn185 O194 2.039 1_554 S
Zn185 O200 2.034 . S
Zn185 O204 2.025 . S
Zn185 O206 2.024 1_554 S
C186 O205 1.246 . S
C186 O206 1.249 . S
N187 C188 1.307 1_554 S
N187 C189 1.333 . S
N187 Zn193 2.020 . S
C188 N187 1.307 1_556 S
C188 C192 1.370 . S
C188 H199 0.948 . S
C189 N187 1.333 . S
C189 C190 1.379 . S
C189 H197 0.952 . S
C190 C189 1.379 . S
C190 C191 1.390 . S
C190 H210 0.949 . S
C191 C190 1.390 . S
C191 C192 1.357 1_554 S
C192 C188 1.370 . S
C192 C191 1.357 1_556 S
C192 H211 0.950 . S
Zn193 N187 2.020 . S
Zn193 O196 2.025 1_554 S
Zn193 O201 2.024 . S
Zn193 O203 2.039 . S
Zn193 O205 2.034 1_554 S
O194 C178 1.251 . S
O194 Zn185 2.039 1_556 S
C195 O200 1.246 . S
C195 O201 1.249 . S
O196 C178 1.254 . S
O196 Zn193 2.025 1_556 S
H197 C189 0.952 . S
H198 C180 0.952 . S
H199 C188 0.948 . S
O200 Zn185 2.034 . S
O200 C195 1.246 . S
O201 Zn193 2.024 . S
O201 C195 1.249 . S
H202 C184 0.948 . S
O203 Zn193 2.039 . S
O203 C207 1.251 . S
O204 Zn185 2.025 . S
O204 C207 1.254 . S
O205 C186 1.246 . S
O205 Zn193 2.034 1_556 S
O206 Zn185 2.024 1_556 S
O206 C186 1.249 . S
C207 O203 1.251 . S
C207 O204 1.254 . S
H208 C181 0.949 . S
H209 C183 0.950 . S
H210 C190 0.949 . S
H211 C192 0.950 . S
H212 C230 0.951 . S
H213 C232 0.951 . S
H214 C234 0.950 . S
H215 C235 0.950 . S
H216 C237 0.950 . S
H217 C240 0.950 . S
H218 C241 0.950 . S
H219 C243 0.950 . S
H220 C244 0.950 . S
H221 C245 0.951 . S
H222 C247 0.951 . S
H223 C249 0.950 . S
H224 C250 0.950 . S
H225 C252 0.950 . S
H226 C255 0.950 . S
H227 C256 0.929 1_565 S
H228 C258 0.950 . S
H229 C259 0.950 . S
C230 H212 0.951 . S
C230 C231 1.366 . S
C230 C232 1.388 . S
C231 C230 1.366 . S
C231 C235 1.385 . S
C232 H213 0.951 . S
C232 C230 1.388 . S
C232 C233 1.366 . S
C233 C232 1.366 . S
C233 C234 1.414 . S
C233 C236 1.499 . S
C234 H214 0.950 . S
C234 C233 1.414 . S
C234 C235 1.374 . S
C235 H215 0.950 . S
C235 C231 1.385 . S
C235 C234 1.374 . S
C236 C233 1.499 . S
C236 C237 1.373 . S
C236 C238 1.389 . S
C237 H216 0.950 . S
C237 C236 1.373 . S
C237 C253 1.377 . S
C238 C236 1.389 . S
C238 C239 1.524 . S
C238 C252 1.377 . S
C239 C238 1.524 . S
C239 C240 1.397 . S
C239 C244 1.363 . S
C240 H217 0.950 . S
C240 C239 1.397 . S
C240 C241 1.334 . S
C241 H218 0.950 . S
C241 C240 1.334 . S
C241 C242 1.287 . S
C242 C241 1.287 . S
C242 C243 1.524 . S
C242 H261 0.913 . S
C243 H219 0.950 . S
C243 C242 1.524 . S
C243 C244 1.415 . S
C244 H220 0.950 . S
C244 C239 1.363 . S
C244 C243 1.415 . S
C245 H221 0.951 . S
C245 C246 1.366 . S
C245 C247 1.388 . S
C246 C245 1.366 . S
C246 C250 1.385 . S
C247 H222 0.951 . S
C247 C245 1.388 . S
C247 C248 1.366 . S
C248 C247 1.366 . S
C248 C249 1.414 . S
C248 C251 1.499 . S
C249 H223 0.950 . S
C249 C248 1.414 . S
C249 C250 1.374 . S
C250 H224 0.950 . S
C250 C246 1.385 . S
C250 C249 1.374 . S
C251 C248 1.499 . S
C251 C252 1.373 . S
C251 C253 1.389 . S
C252 H225 0.950 . S
C252 C238 1.377 . S
C252 C251 1.373 . S
C253 C237 1.377 . S
C253 C251 1.389 . S
C253 C254 1.524 . S
C254 C253 1.524 . S
C254 C255 1.397 . S
C254 C259 1.363 . S
C255 H226 0.950 . S
C255 C254 1.397 . S
C255 C256 1.334 . S
C256 H227 0.929 1_545 S
C256 C255 1.334 . S
C256 C257 1.287 . S
C257 C256 1.287 . S
C257 C258 1.524 . S
C257 H260 0.999 1_545 S
C258 H228 0.950 . S
C258 C257 1.524 . S
C258 C259 1.415 . S
C259 H229 0.950 . S
C259 C254 1.363 . S
C259 C258 1.415 . S
H260 C257 0.999 1_565 S
H261 C242 0.913 . S
H262 C280 0.951 . S
H263 C282 0.951 . S
H264 C284 0.950 1_556 S
H265 C285 0.943 1_556 S
H266 C287 0.950 . S
H267 C290 0.950 . S
H268 C291 0.950 . S
H269 C293 0.950 . S
H270 C294 0.950 . S
H271 C295 0.950 1_556 S
H272 C297 0.951 1_556 S
H273 C299 0.950 . S
H274 C300 0.950 . S
H275 C302 0.950 . S
H276 C305 0.950 . S
H277 C306 0.950 . S
H278 C308 0.950 . S
H279 C309 0.950 . S
C280 H262 0.951 . S
C280 C281 1.366 . S
C280 C282 1.388 . S
C281 C280 1.366 . S
C281 C285 1.393 . S
C282 H263 0.951 . S
C282 C280 1.388 . S
C282 C283 1.366 . S
C283 C282 1.366 . S
C283 C284 1.414 . S
C283 C286 1.499 . S
C284 H264 0.950 1_554 S
C284 C283 1.414 . S
C284 C285 1.373 . S
C285 H265 0.943 1_554 S
C285 C281 1.393 . S
C285 C284 1.373 . S
C286 C283 1.499 . S
C286 C287 1.373 . S
C286 C288 1.389 1_554 S
C287 H266 0.950 . S
C287 C286 1.373 . S
C287 C303 1.377 . S
C288 C286 1.389 1_556 S
C288 C289 1.524 . S
C288 C302 1.377 . S
C289 C288 1.524 . S
C289 C290 1.397 . S
C289 C294 1.363 . S
C290 H267 0.950 . S
C290 C289 1.397 . S
C290 C291 1.334 . S
C291 H268 0.950 . S
C291 C290 1.334 . S
C291 C292 1.287 . S
C292 C291 1.287 . S
C292 C293 1.524 . S
C292 H311 0.913 . S
C293 H269 0.950 . S
C293 C292 1.524 . S
C293 C294 1.415 . S
C294 H270 0.950 . S
C294 C289 1.363 . S
C294 C293 1.415 . S
C295 H271 0.950 1_554 S
C295 C296 1.366 . S
C295 C297 1.388 . S
C296 C295 1.366 . S
C296 C300 1.385 . S
C297 H272 0.951 1_554 S
C297 C295 1.388 . S
C297 C298 1.366 . S
C298 C297 1.366 . S
C298 C299 1.414 . S
C298 C301 1.499 . S
C299 H273 0.950 . S
C299 C298 1.414 . S
C299 C300 1.374 . S
C300 H274 0.950 . S
C300 C296 1.385 . S
C300 C299 1.374 . S
C301 C298 1.499 . S
C301 C302 1.373 1_554 S
C301 C303 1.389 . S
C302 H275 0.950 . S
C302 C288 1.377 . S
C302 C301 1.373 1_556 S
C303 C287 1.377 . S
C303 C301 1.389 . S
C303 C304 1.524 . S
C304 C303 1.524 . S
C304 C305 1.397 . S
C304 C309 1.363 . S
C305 H276 0.950 . S
C305 C304 1.397 . S
C305 C306 1.334 . S
C306 H277 0.950 . S
C306 C305 1.334 . S
C306 C307 1.287 . S
C307 C306 1.287 . S
C307 C308 1.524 . S
C307 H310 0.999 . S
C308 H278 0.950 . S
C308 C307 1.524 . S
C308 C309 1.415 . S
C309 H279 0.950 . S
C309 C304 1.363 . S
C309 C308 1.415 . S
H310 C307 0.999 . S
H311 C292 0.913 . S
H312 C330 0.951 . S
H313 C332 0.951 . S
H314 C334 0.950 . S
H315 C335 0.950 . S
H316 C337 0.950 . S
H317 C340 0.950 . S
H318 C341 0.950 . S
H319 C343 0.950 . S
H320 C344 0.950 . S
H321 C345 0.951 . S
H322 C347 0.951 . S
H323 C349 0.950 . S
H324 C350 0.950 . S
H325 C352 0.950 . S
H326 C355 0.950 . S
H327 C356 0.950 . S
H328 C358 0.950 1_545 S
H329 C359 0.950 . S
C330 H312 0.951 . S
C330 C331 1.366 . S
C330 C332 1.388 . S
C331 C330 1.366 . S
C331 C335 1.385 . S
C332 H313 0.951 . S
C332 C330 1.388 . S
C332 C333 1.366 . S
C333 C332 1.366 . S
C333 C334 1.414 . S
C333 C336 1.499 . S
C334 H314 0.950 . S
C334 C333 1.414 . S
C334 C335 1.374 . S
C335 H315 0.950 . S
C335 C331 1.385 . S
C335 C334 1.374 . S
C336 C333 1.499 . S
C336 C337 1.373 . S
C336 C338 1.389 . S
C337 H316 0.950 . S
C337 C336 1.373 . S
C337 C353 1.377 . S
C338 C336 1.389 . S
C338 C339 1.524 . S
C338 C352 1.377 . S
C339 C338 1.524 . S
C339 C340 1.397 . S
C339 C344 1.363 . S
C340 H317 0.950 . S
C340 C339 1.397 . S
C340 C341 1.334 . S
C341 H318 0.950 . S
C341 C340 1.334 . S
C341 C342 1.287 . S
C342 C341 1.287 . S
C342 C343 1.524 . S
C342 H361 0.913 . S
C343 H319 0.950 . S
C343 C342 1.524 . S
C343 C344 1.415 . S
C344 H320 0.950 . S
C344 C339 1.363 . S
C344 C343 1.415 . S
C345 H321 0.951 . S
C345 C346 1.366 . S
C345 C347 1.388 . S
C346 C345 1.366 . S
C346 C350 1.385 . S
C347 H322 0.951 . S
C347 C345 1.388 . S
C347 C348 1.366 . S
C348 C347 1.366 . S
C348 C349 1.414 . S
C348 C351 1.499 . S
C349 H323 0.950 . S
C349 C348 1.414 . S
C349 C350 1.374 . S
C350 H324 0.950 . S
C350 C346 1.385 . S
C350 C349 1.374 . S
C351 C348 1.499 . S
C351 C352 1.373 . S
C351 C353 1.389 . S
C352 H325 0.950 . S
C352 C338 1.377 . S
C352 C351 1.373 . S
C353 C337 1.377 . S
C353 C351 1.389 . S
C353 C354 1.524 . S
C354 C353 1.524 . S
C354 C355 1.397 . S
C354 C359 1.363 . S
C355 H326 0.950 . S
C355 C354 1.397 . S
C355 C356 1.334 . S
C356 H327 0.950 . S
C356 C355 1.334 . S
C356 C357 1.287 . S
C357 C356 1.287 . S
C357 C358 1.524 . S
C357 H360 0.999 1_565 S
C358 H328 0.950 1_565 S
C358 C357 1.524 . S
C358 C359 1.415 . S
C359 H329 0.950 . S
C359 C354 1.363 . S
C359 C358 1.415 . S
H360 C357 0.999 1_545 S
H361 C342 0.913 . S
H362 C380 0.951 . S
H363 C382 0.951 . S
H364 C384 0.950 . S
H365 C385 0.950 . S
H366 C387 0.950 . S
H367 C390 0.950 . S
H368 C391 0.950 . S
H369 C393 0.950 . S
H370 C394 0.950 . S
H371 C395 0.951 . S
H372 C397 0.951 . S
H373 C399 0.950 . S
H374 C400 0.950 . S
H375 C402 0.950 . S
H376 C405 0.950 . S
H377 C406 0.950 . S
H378 C408 0.950 . S
H379 C409 0.950 . S
C380 H362 0.951 . S
C380 C381 1.366 . S
C380 C382 1.388 . S
C381 C380 1.366 . S
C381 C385 1.385 1_554 S
C382 H363 0.951 . S
C382 C380 1.388 . S
C382 C383 1.366 . S
C383 C382 1.366 . S
C383 C384 1.414 1_554 S
C383 C386 1.499 . S
C384 H364 0.950 . S
C384 C383 1.414 1_556 S
C384 C385 1.374 . S
C385 H365 0.950 . S
C385 C381 1.385 1_556 S
C385 C384 1.374 . S
C386 C383 1.499 . S
C386 C387 1.373 1_554 S
C386 C388 1.389 . S
C387 H366 0.950 . S
C387 C386 1.373 1_556 S
C387 C403 1.377 . S
C388 C386 1.389 . S
C388 C389 1.524 . S
C388 C402 1.377 . S
C389 C388 1.524 . S
C389 C390 1.397 . S
C389 C394 1.363 . S
C390 H367 0.950 . S
C390 C389 1.397 . S
C390 C391 1.334 . S
C391 H368 0.950 . S
C391 C390 1.334 . S
C391 C392 1.287 . S
C392 C391 1.287 . S
C392 C393 1.524 . S
C392 H411 0.913 . S
C393 H369 0.950 . S
C393 C392 1.524 . S
C393 C394 1.415 . S
C394 H370 0.950 . S
C394 C389 1.363 . S
C394 C393 1.415 . S
C395 H371 0.951 . S
C395 C396 1.366 1_556 S
C395 C397 1.388 . S
C396 C395 1.366 1_554 S
C396 C400 1.385 . S
C397 H372 0.951 . S
C397 C395 1.388 . S
C397 C398 1.366 1_556 S
C398 C397 1.366 1_554 S
C398 C399 1.414 . S
C398 C401 1.499 . S
C399 H373 0.950 . S
C399 C398 1.414 . S
C399 C400 1.374 . S
C400 H374 0.950 . S
C400 C396 1.385 . S
C400 C399 1.374 . S
C401 C398 1.499 . S
C401 C402 1.373 . S
C401 C403 1.389 1_554 S
C402 H375 0.950 . S
C402 C388 1.377 . S
C402 C401 1.373 . S
C403 C387 1.377 . S
C403 C401 1.389 1_556 S
C403 C404 1.524 . S
C404 C403 1.524 . S
C404 C405 1.397 . S
C404 C409 1.363 . S
C405 H376 0.950 . S
C405 C404 1.397 . S
C405 C406 1.334 . S
C406 H377 0.950 . S
C406 C405 1.334 . S
C406 C407 1.287 . S
C407 C406 1.287 . S
C407 C408 1.524 . S
C407 H410 0.999 . S
C408 H378 0.950 . S
C408 C407 1.524 . S
C408 C409 1.415 . S
C409 H379 0.950 . S
C409 C404 1.363 . S
C409 C408 1.415 . S
H410 C407 0.999 . S
H411 C392 0.913 . S
H412 C430 0.951 . S
H413 C432 0.951 . S
H414 C434 0.950 . S
H415 C435 0.950 . S
H416 C437 0.950 . S
H417 C440 0.950 . S
H418 C441 0.950 . S
H419 C443 0.950 . S
H420 C444 0.950 . S
H421 C445 0.951 . S
H422 C447 0.951 . S
H423 C449 0.950 . S
H424 C450 0.950 . S
H425 C452 0.950 . S
H426 C455 0.950 . S
H427 C456 0.950 . S
H428 C458 0.950 . S
H429 C459 0.950 . S
C430 H412 0.951 . S
C430 C431 1.366 . S
C430 C432 1.388 . S
C431 C430 1.366 . S
C431 C435 1.385 . S
C432 H413 0.951 . S
C432 C430 1.388 . S
C432 C433 1.366 . S
C433 C432 1.366 . S
C433 C434 1.414 . S
C433 C436 1.499 . S
C434 H414 0.950 . S
C434 C433 1.414 . S
C434 C435 1.374 . S
C435 H415 0.950 . S
C435 C431 1.385 . S
C435 C434 1.374 . S
C436 C433 1.499 . S
C436 C437 1.373 . S
C436 C438 1.389 . S
C437 H416 0.950 . S
C437 C436 1.373 . S
C437 C453 1.377 . S
C438 C436 1.389 . S
C438 C439 1.524 . S
C438 C452 1.377 . S
C439 C438 1.524 . S
C439 C440 1.397 . S
C439 C444 1.363 . S
C440 H417 0.950 . S
C440 C439 1.397 . S
C440 C441 1.334 . S
C441 H418 0.950 . S
C441 C440 1.334 . S
C441 C442 1.287 . S
C442 C441 1.287 . S
C442 C443 1.524 . S
C442 H461 0.913 . S
C443 H419 0.950 . S
C443 C442 1.524 . S
C443 C444 1.415 . S
C444 H420 0.950 . S
C444 C439 1.363 . S
C444 C443 1.415 . S
C445 H421 0.951 . S
C445 C446 1.366 . S
C445 C447 1.388 . S
C446 C445 1.366 . S
C446 C450 1.385 . S
C447 H422 0.951 . S
C447 C445 1.388 . S
C447 C448 1.366 . S
C448 C447 1.366 . S
C448 C449 1.414 . S
C448 C451 1.499 . S
C449 H423 0.950 . S
C449 C448 1.414 . S
C449 C450 1.374 . S
C450 H424 0.950 . S
C450 C446 1.385 . S
C450 C449 1.374 . S
C451 C448 1.499 . S
C451 C452 1.373 . S
C451 C453 1.389 . S
C452 H425 0.950 . S
C452 C438 1.377 . S
C452 C451 1.373 . S
C453 C437 1.377 . S
C453 C451 1.389 . S
C453 C454 1.524 . S
C454 C453 1.524 . S
C454 C455 1.397 . S
C454 C459 1.363 . S
C455 H426 0.950 . S
C455 C454 1.397 . S
C455 C456 1.334 . S
C456 H427 0.950 . S
C456 C455 1.334 . S
C456 C457 1.287 . S
C457 C456 1.287 . S
C457 C458 1.524 . S
C457 H460 0.999 . S
C458 H428 0.950 . S
C458 C457 1.524 . S
C458 C459 1.415 . S
C459 H429 0.950 . S
C459 C454 1.363 . S
C459 C458 1.415 . S
H460 C457 0.999 . S
H461 C442 0.913 . S
H462 C480 0.951 . S
H463 C482 0.951 . S
H464 C484 0.950 . S
H465 C485 0.950 . S
H466 C487 0.950 . S
H467 C490 0.950 . S
H468 C491 0.950 . S
H469 C493 0.950 . S
H470 C494 0.950 . S
H471 C495 0.951 . S
H472 C497 0.951 . S
H473 C499 0.950 . S
H474 C500 0.950 . S
H475 C502 0.950 . S
H476 C505 0.950 . S
H477 C506 0.950 . S
H478 C508 0.950 . S
H479 C509 0.950 . S
C480 H462 0.951 . S
C480 C481 1.366 . S
C480 C482 1.388 . S
C481 C480 1.366 . S
C481 C485 1.385 . S
C482 H463 0.951 . S
C482 C480 1.388 . S
C482 C483 1.366 . S
C483 C482 1.366 . S
C483 C484 1.414 . S
C483 C486 1.499 . S
C484 H464 0.950 . S
C484 C483 1.414 . S
C484 C485 1.374 . S
C485 H465 0.950 . S
C485 C481 1.385 . S
C485 C484 1.374 . S
C486 C483 1.499 . S
C486 C487 1.373 . S
C486 C488 1.389 . S
C487 H466 0.950 . S
C487 C486 1.373 . S
C487 C503 1.377 . S
C488 C486 1.389 . S
C488 C489 1.524 . S
C488 C502 1.377 . S
C489 C488 1.524 . S
C489 C490 1.397 . S
C489 C494 1.363 . S
C490 H467 0.950 . S
C490 C489 1.397 . S
C490 C491 1.334 . S
C491 H468 0.950 . S
C491 C490 1.334 . S
C491 C492 1.287 . S
C492 C491 1.287 . S
C492 C493 1.524 . S
C492 H511 0.913 . S
C493 H469 0.950 . S
C493 C492 1.524 . S
C493 C494 1.415 . S
C494 H470 0.950 . S
C494 C489 1.363 . S
C494 C493 1.415 . S
C495 H471 0.951 . S
C495 C496 1.366 . S
C495 C497 1.388 . S
C496 C495 1.366 . S
C496 C500 1.385 . S
C497 H472 0.951 . S
C497 C495 1.388 . S
C497 C498 1.366 . S
C498 C497 1.366 . S
C498 C499 1.414 . S
C498 C501 1.499 . S
C499 H473 0.950 . S
C499 C498 1.414 . S
C499 C500 1.374 . S
C500 H474 0.950 . S
C500 C496 1.385 . S
C500 C499 1.374 . S
C501 C498 1.499 . S
C501 C502 1.373 . S
C501 C503 1.389 . S
C502 H475 0.950 . S
C502 C488 1.377 . S
C502 C501 1.373 . S
C503 C487 1.377 . S
C503 C501 1.389 . S
C503 C504 1.524 . S
C504 C503 1.524 . S
C504 C505 1.397 . S
C504 C509 1.363 . S
C505 H476 0.950 . S
C505 C504 1.397 . S
C505 C506 1.334 . S
C506 H477 0.950 . S
C506 C505 1.334 . S
C506 C507 1.287 . S
C507 C506 1.287 . S
C507 C508 1.524 . S
C507 H510 0.999 . S
C508 H478 0.950 . S
C508 C507 1.524 . S
C508 C509 1.415 . S
C509 H479 0.950 . S
C509 C504 1.363 . S
C509 C508 1.415 . S
H510 C507 0.999 . S
H511 C492 0.913 . S
H512 C530 0.951 . S
H513 C532 0.951 . S
H514 C534 0.950 . S
H515 C535 0.950 . S
H516 C537 0.950 . S
H517 C540 0.950 . S
H518 C541 0.950 . S
H519 C543 0.950 . S
H520 C544 0.950 . S
H521 C545 0.951 1_455 S
H522 C547 0.956 . S
H523 C549 0.950 . S
H524 C550 0.950 . S
H525 C552 0.950 . S
H526 C555 0.950 . S
H527 C556 0.950 . S
H528 C558 0.950 . S
H529 C559 0.950 . S
C530 H512 0.951 . S
C530 C531 1.366 . S
C530 C532 1.388 . S
C531 C530 1.366 . S
C531 C535 1.385 . S
C532 H513 0.951 . S
C532 C530 1.388 . S
C532 C533 1.366 . S
C533 C532 1.366 . S
C533 C534 1.414 . S
C533 C536 1.499 . S
C534 H514 0.950 . S
C534 C533 1.414 . S
C534 C535 1.374 . S
C535 H515 0.950 . S
C535 C531 1.385 . S
C535 C534 1.374 . S
C536 C533 1.499 . S
C536 C537 1.373 . S
C536 C538 1.389 . S
C537 H516 0.950 . S
C537 C536 1.373 . S
C537 C553 1.377 . S
C538 C536 1.389 . S
C538 C539 1.524 . S
C538 C552 1.377 . S
C539 C538 1.524 . S
C539 C540 1.397 . S
C539 C544 1.363 . S
C540 H517 0.950 . S
C540 C539 1.397 . S
C540 C541 1.334 . S
C541 H518 0.950 . S
C541 C540 1.334 . S
C541 C542 1.287 . S
C542 C541 1.287 . S
C542 C543 1.524 . S
C542 H561 0.913 . S
C543 H519 0.950 . S
C543 C542 1.524 . S
C543 C544 1.415 . S
C544 H520 0.950 . S
C544 C539 1.363 . S
C544 C543 1.415 . S
C545 H521 0.951 1_655 S
C545 C546 1.366 . S
C545 C547 1.388 . S
C546 C545 1.366 . S
C546 C550 1.385 . S
C547 H522 0.956 . S
C547 C545 1.388 . S
C547 C548 1.366 . S
C548 C547 1.366 . S
C548 C549 1.414 . S
C548 C551 1.499 . S
C549 H523 0.950 . S
C549 C548 1.414 . S
C549 C550 1.374 . S
C550 H524 0.950 . S
C550 C546 1.385 . S
C550 C549 1.374 . S
C551 C548 1.499 . S
C551 C552 1.373 . S
C551 C553 1.389 . S
C552 H525 0.950 . S
C552 C538 1.377 . S
C552 C551 1.373 . S
C553 C537 1.377 . S
C553 C551 1.389 . S
C553 C554 1.524 1_655 S
C554 C553 1.524 1_455 S
C554 C555 1.397 . S
C554 C559 1.363 . S
C555 H526 0.950 . S
C555 C554 1.397 . S
C555 C556 1.334 . S
C556 H527 0.950 . S
C556 C555 1.334 . S
C556 C557 1.287 . S
C557 C556 1.287 . S
C557 C558 1.524 . S
C557 H560 0.999 . S
C558 H528 0.950 . S
C558 C557 1.524 . S
C558 C559 1.415 . S
C559 H529 0.950 . S
C559 C554 1.363 . S
C559 C558 1.415 . S
H560 C557 0.999 . S
H561 C542 0.913 . S
H562 C580 0.951 . S
H563 C582 0.951 . S
H564 C584 0.950 . S
H565 C585 0.950 . S
H566 C587 0.950 . S
H567 C590 0.950 . S
H568 C591 0.950 . S
H569 C593 0.950 . S
H570 C594 0.950 . S
H571 C595 0.951 . S
H572 C597 0.951 . S
H573 C599 0.950 . S
H574 C600 0.950 . S
H575 C602 0.950 . S
H576 C605 0.950 . S
H577 C606 0.950 . S
H578 C608 0.950 . S
H579 C609 0.950 . S
C580 H562 0.951 . S
C580 C581 1.366 . S
C580 C582 1.388 . S
C581 C580 1.366 . S
C581 C585 1.385 . S
C582 H563 0.951 . S
C582 C580 1.388 . S
C582 C583 1.366 . S
C583 C582 1.366 . S
C583 C584 1.414 . S
C583 C586 1.499 . S
C584 H564 0.950 . S
C584 C583 1.414 . S
C584 C585 1.374 . S
C585 H565 0.950 . S
C585 C581 1.385 . S
C585 C584 1.374 . S
C586 C583 1.499 . S
C586 C587 1.373 . S
C586 C588 1.389 . S
C587 H566 0.950 . S
C587 C586 1.373 . S
C587 C603 1.377 . S
C588 C586 1.389 . S
C588 C589 1.524 . S
C588 C602 1.377 . S
C589 C588 1.524 . S
C589 C590 1.397 . S
C589 C594 1.363 . S
C590 H567 0.950 . S
C590 C589 1.397 . S
C590 C591 1.334 . S
C591 H568 0.950 . S
C591 C590 1.334 . S
C591 C592 1.287 . S
C592 C591 1.287 . S
C592 C593 1.524 . S
C592 H611 0.913 . S
C593 H569 0.950 . S
C593 C592 1.524 . S
C593 C594 1.415 . S
C594 H570 0.950 . S
C594 C589 1.363 . S
C594 C593 1.415 . S
C595 H571 0.951 . S
C595 C596 1.366 . S
C595 C597 1.388 . S
C596 C595 1.366 . S
C596 C600 1.385 . S
C597 H572 0.951 . S
C597 C595 1.388 . S
C597 C598 1.366 . S
C598 C597 1.366 . S
C598 C599 1.414 . S
C598 C601 1.499 . S
C599 H573 0.950 . S
C599 C598 1.414 . S
C599 C600 1.374 . S
C600 H574 0.950 . S
C600 C596 1.385 . S
C600 C599 1.374 . S
C601 C598 1.499 . S
C601 C602 1.373 . S
C601 C603 1.389 . S
C602 H575 0.950 . S
C602 C588 1.377 . S
C602 C601 1.373 . S
C603 C587 1.377 . S
C603 C601 1.389 . S
C603 C604 1.524 . S
C604 C603 1.524 . S
C604 C605 1.397 . S
C604 C609 1.363 . S
C605 H576 0.950 . S
C605 C604 1.397 . S
C605 C606 1.334 . S
C606 H577 0.950 . S
C606 C605 1.334 . S
C606 C607 1.287 . S
C607 C606 1.287 . S
C607 C608 1.524 . S
C607 H610 0.999 . S
C608 H578 0.950 . S
C608 C607 1.524 . S
C608 C609 1.415 . S
C609 H579 0.950 . S
C609 C604 1.363 . S
C609 C608 1.415 . S
H610 C607 0.999 . S
H611 C592 0.913 . S
H612 C630 0.951 . S
H613 C632 0.951 . S
H614 C634 0.950 . S
H615 C635 0.950 . S
H616 C637 0.950 . S
H617 C640 0.950 . S
H618 C641 0.950 . S
H619 C643 0.950 . S
H620 C644 0.950 . S
H621 C645 0.951 . S
H622 C647 0.951 . S
H623 C649 0.950 . S
H624 C650 0.950 . S
H625 C652 0.950 . S
H626 C655 0.950 . S
H627 C656 0.950 . S
H628 C658 0.950 . S
H629 C659 0.950 . S
C630 H612 0.951 . S
C630 C631 1.366 . S
C630 C632 1.388 . S
C631 C630 1.366 . S
C631 C635 1.385 . S
C632 H613 0.951 . S
C632 C630 1.388 . S
C632 C633 1.366 . S
C633 C632 1.366 . S
C633 C634 1.414 . S
C633 C636 1.499 . S
C634 H614 0.950 . S
C634 C633 1.414 . S
C634 C635 1.374 . S
C635 H615 0.950 . S
C635 C631 1.385 . S
C635 C634 1.374 . S
C636 C633 1.499 . S
C636 C637 1.373 . S
C636 C638 1.389 . S
C637 H616 0.950 . S
C637 C636 1.373 . S
C637 C653 1.377 . S
C638 C636 1.389 . S
C638 C639 1.524 . S
C638 C652 1.377 . S
C639 C638 1.524 . S
C639 C640 1.397 . S
C639 C644 1.363 . S
C640 H617 0.950 . S
C640 C639 1.397 . S
C640 C641 1.334 . S
C641 H618 0.950 . S
C641 C640 1.334 . S
C641 C642 1.287 . S
C642 C641 1.287 . S
C642 C643 1.524 . S
C642 H661 0.913 . S
C643 H619 0.950 . S
C643 C642 1.524 . S
C643 C644 1.415 . S
C644 H620 0.950 . S
C644 C639 1.363 . S
C644 C643 1.415 . S
C645 H621 0.951 . S
C645 C646 1.366 . S
C645 C647 1.388 . S
C646 C645 1.366 . S
C646 C650 1.385 . S
C647 H622 0.951 . S
C647 C645 1.388 . S
C647 C648 1.366 . S
C648 C647 1.366 . S
C648 C649 1.414 . S
C648 C651 1.499 . S
C649 H623 0.950 . S
C649 C648 1.414 . S
C649 C650 1.374 . S
C650 H624 0.950 . S
C650 C646 1.385 . S
C650 C649 1.374 . S
C651 C648 1.499 . S
C651 C652 1.373 . S
C651 C653 1.389 . S
C652 H625 0.950 . S
C652 C638 1.377 . S
C652 C651 1.373 . S
C653 C637 1.377 . S
C653 C651 1.389 . S
C653 C654 1.524 . S
C654 C653 1.524 . S
C654 C655 1.397 . S
C654 C659 1.363 . S
C655 H626 0.950 . S
C655 C654 1.397 . S
C655 C656 1.334 . S
C656 H627 0.950 . S
C656 C655 1.334 . S
C656 C657 1.287 . S
C657 C656 1.287 . S
C657 C658 1.524 . S
C657 H660 0.999 . S
C658 H628 0.950 . S
C658 C657 1.524 . S
C658 C659 1.415 . S
C659 H629 0.950 . S
C659 C654 1.363 . S
C659 C658 1.415 . S
H660 C657 0.999 . S
H661 C642 0.913 . S
H662 C680 0.951 . S
H663 C682 0.951 . S
H664 C684 0.950 . S
H665 C685 0.950 . S
H666 C687 0.950 . S
H667 C690 0.950 . S
H668 C691 0.950 . S
H669 C693 0.950 1_455 S
H670 C694 0.950 1_455 S
H671 C695 0.951 . S
H672 C697 0.951 . S
H673 C699 0.950 1_455 S
H674 C700 0.950 . S
H675 C702 0.950 . S
H676 C705 0.950 . S
H677 C706 0.950 . S
H678 C708 0.950 . S
H679 C709 0.950 . S
C680 H662 0.951 . S
C680 C681 1.366 . S
C680 C682 1.388 . S
C681 C680 1.366 . S
C681 C685 1.385 . S
C682 H663 0.951 . S
C682 C680 1.388 . S
C682 C683 1.366 . S
C683 C682 1.366 . S
C683 C684 1.414 . S
C683 C686 1.499 . S
C684 H664 0.950 . S
C684 C683 1.414 . S
C684 C685 1.374 . S
C685 H665 0.950 . S
C685 C681 1.385 . S
C685 C684 1.374 . S
C686 C683 1.499 . S
C686 C687 1.373 . S
C686 C688 1.389 . S
C687 H666 0.950 . S
C687 C686 1.373 . S
C687 C703 1.377 . S
C688 C686 1.389 . S
C688 C689 1.524 . S
C688 C702 1.377 . S
C689 C688 1.524 . S
C689 C690 1.397 . S
C689 C694 1.363 . S
C690 H667 0.950 . S
C690 C689 1.397 . S
C690 C691 1.334 . S
C691 H668 0.950 . S
C691 C690 1.334 . S
C691 C692 1.287 . S
C692 C691 1.287 . S
C692 C693 1.524 . S
C692 H711 0.913 . S
C693 H669 0.950 1_655 S
C693 C692 1.524 . S
C693 C694 1.415 . S
C694 H670 0.950 1_655 S
C694 C689 1.363 . S
C694 C693 1.415 . S
C695 H671 0.951 . S
C695 C696 1.366 . S
C695 C697 1.388 . S
C696 C695 1.366 . S
C696 C700 1.385 1_655 S
C697 H672 0.951 . S
C697 C695 1.388 . S
C697 C698 1.366 . S
C698 C697 1.366 . S
C698 C699 1.414 . S
C698 C701 1.499 . S
C699 H673 0.950 1_655 S
C699 C698 1.414 . S
C699 C700 1.374 1_655 S
C700 H674 0.950 . S
C700 C696 1.385 1_455 S
C700 C699 1.374 1_455 S
C701 C698 1.499 . S
C701 C702 1.373 . S
C701 C703 1.389 . S
C702 H675 0.950 . S
C702 C688 1.377 . S
C702 C701 1.373 . S
C703 C687 1.377 . S
C703 C701 1.389 . S
C703 C704 1.524 . S
C704 C703 1.524 . S
C704 C705 1.397 . S
C704 C709 1.363 . S
C705 H676 0.950 . S
C705 C704 1.397 . S
C705 C706 1.334 . S
C706 H677 0.950 . S
C706 C705 1.334 . S
C706 C707 1.287 . S
C707 C706 1.287 . S
C707 C708 1.524 . S
C707 H710 0.999 1_545 S
C708 H678 0.950 . S
C708 C707 1.524 . S
C708 C709 1.415 . S
C709 H679 0.950 . S
C709 C704 1.363 . S
C709 C708 1.415 . S
H710 C707 0.999 1_565 S
H711 C692 0.913 . S
H712 C730 0.951 . S
H713 C732 0.951 . S
H714 C734 0.950 . S
H715 C735 0.950 . S
H716 C737 0.950 . S
H717 C740 0.950 . S
H718 C741 0.950 . S
H719 C743 0.950 . S
H720 C744 0.950 . S
H721 C745 0.951 . S
H722 C747 0.951 . S
H723 C749 0.950 . S
H724 C750 0.950 . S
H725 C752 0.950 . S
H726 C755 0.950 . S
H727 C756 0.950 . S
H728 C758 0.950 . S
H729 C759 0.950 . S
C730 H712 0.951 . S
C730 C731 1.366 . S
C730 C732 1.388 . S
C731 C730 1.366 . S
C731 C735 1.385 . S
C732 H713 0.951 . S
C732 C730 1.388 . S
C732 C733 1.366 . S
C733 C732 1.366 . S
C733 C734 1.414 . S
C733 C736 1.499 . S
C734 H714 0.950 . S
C734 C733 1.414 . S
C734 C735 1.374 . S
C735 H715 0.950 . S
C735 C731 1.385 . S
C735 C734 1.374 . S
C736 C733 1.499 . S
C736 C737 1.373 . S
C736 C738 1.389 . S
C737 H716 0.950 . S
C737 C736 1.373 . S
C737 C753 1.377 . S
C738 C736 1.389 . S
C738 C739 1.524 . S
C738 C752 1.377 . S
C739 C738 1.524 . S
C739 C740 1.397 . S
C739 C744 1.363 . S
C740 H717 0.950 . S
C740 C739 1.397 . S
C740 C741 1.334 . S
C741 H718 0.950 . S
C741 C740 1.334 . S
C741 C742 1.287 . S
C742 C741 1.287 . S
C742 C743 1.524 . S
C742 H761 0.913 . S
C743 H719 0.950 . S
C743 C742 1.524 . S
C743 C744 1.415 . S
C744 H720 0.950 . S
C744 C739 1.363 . S
C744 C743 1.415 . S
C745 H721 0.951 . S
C745 C746 1.366 . S
C745 C747 1.388 . S
C746 C745 1.366 . S
C746 C750 1.385 . S
C747 H722 0.951 . S
C747 C745 1.388 . S
C747 C748 1.366 . S
C748 C747 1.366 . S
C748 C749 1.414 . S
C748 C751 1.499 . S
C749 H723 0.950 . S
C749 C748 1.414 . S
C749 C750 1.374 . S
C750 H724 0.950 . S
C750 C746 1.385 . S
C750 C749 1.374 . S
C751 C748 1.499 . S
C751 C752 1.373 . S
C751 C753 1.389 . S
C752 H725 0.950 . S
C752 C738 1.377 . S
C752 C751 1.373 . S
C753 C737 1.377 . S
C753 C751 1.389 . S
C753 C754 1.524 . S
C754 C753 1.524 . S
C754 C755 1.397 . S
C754 C759 1.363 . S
C755 H726 0.950 . S
C755 C754 1.397 . S
C755 C756 1.334 . S
C756 H727 0.950 . S
C756 C755 1.334 . S
C756 C757 1.287 . S
C757 C756 1.287 . S
C757 C758 1.524 . S
C757 H760 0.999 . S
C758 H728 0.950 . S
C758 C757 1.524 . S
C758 C759 1.415 . S
C759 H729 0.950 . S
C759 C754 1.363 . S
C759 C758 1.415 . S
H760 C757 0.999 . S
H761 C742 0.913 . S
H762 C780 0.951 . S
H763 C782 0.951 . S
H764 C784 0.950 . S
H765 C785 0.950 . S
H766 C787 0.950 . S
H767 C790 0.950 . S
H768 C791 0.950 . S
H769 C793 0.950 . S
H770 C794 0.950 . S
H771 C795 0.951 . S
H772 C797 0.951 . S
H773 C799 0.950 . S
H774 C800 0.950 . S
H775 C802 0.950 . S
H776 C805 0.950 . S
H777 C806 0.950 . S
H778 C808 0.950 . S
H779 C809 0.950 . S
C780 H762 0.951 . S
C780 C781 1.366 . S
C780 C782 1.388 . S
C781 C780 1.366 . S
C781 C785 1.385 . S
C782 H763 0.951 . S
C782 C780 1.388 . S
C782 C783 1.366 . S
C783 C782 1.366 . S
C783 C784 1.414 . S
C783 C786 1.499 . S
C784 H764 0.950 . S
C784 C783 1.414 . S
C784 C785 1.374 . S
C785 H765 0.950 . S
C785 C781 1.385 . S
C785 C784 1.374 . S
C786 C783 1.499 . S
C786 C787 1.373 . S
C786 C788 1.389 . S
C787 H766 0.950 . S
C787 C786 1.373 . S
C787 C803 1.377 . S
C788 C786 1.389 . S
C788 C789 1.524 . S
C788 C802 1.377 . S
C789 C788 1.524 . S
C789 C790 1.397 . S
C789 C794 1.363 . S
C790 H767 0.950 . S
C790 C789 1.397 . S
C790 C791 1.334 1_455 S
C791 H768 0.950 . S
C791 C790 1.334 1_655 S
C791 C792 1.287 . S
C792 C791 1.287 . S
C792 C793 1.524 . S
C792 H811 0.913 . S
C793 H769 0.950 . S
C793 C792 1.524 . S
C793 C794 1.415 1_655 S
C794 H770 0.950 . S
C794 C789 1.363 . S
C794 C793 1.415 1_455 S
C795 H771 0.951 . S
C795 C796 1.366 . S
C795 C797 1.388 . S
C796 C795 1.366 . S
C796 C800 1.385 . S
C797 H772 0.951 . S
C797 C795 1.388 . S
C797 C798 1.366 . S
C798 C797 1.366 . S
C798 C799 1.414 . S
C798 C801 1.499 . S
C799 H773 0.950 . S
C799 C798 1.414 . S
C799 C800 1.374 . S
C800 H774 0.950 . S
C800 C796 1.385 . S
C800 C799 1.374 . S
C801 C798 1.499 . S
C801 C802 1.373 . S
C801 C803 1.389 . S
C802 H775 0.950 . S
C802 C788 1.377 . S
C802 C801 1.373 . S
C803 C787 1.377 . S
C803 C801 1.389 . S
C803 C804 1.524 . S
C804 C803 1.524 . S
C804 C805 1.397 . S
C804 C809 1.363 . S
C805 H776 0.950 . S
C805 C804 1.397 . S
C805 C806 1.334 . S
C806 H777 0.950 . S
C806 C805 1.334 . S
C806 C807 1.287 . S
C807 C806 1.287 . S
C807 C808 1.524 . S
C807 H810 0.999 . S
C808 H778 0.950 . S
C808 C807 1.524 . S
C808 C809 1.415 . S
C809 H779 0.950 . S
C809 C804 1.363 . S
C809 C808 1.415 . S
H810 C807 0.999 . S
H811 C792 0.913 . S
C246 C148 1.641 . S
C231 C133 1.635 . S
C281 C25 1.530 . S
C296 C191 1.561 . S
C331 C61 1.595 . S
C346 C157 1.641 . S
C381 C97 1.562 . S
C396 C182 1.561 . S
C446 C144 1.614 . S
C431 C1 1.578 . S
C496 C186 1.708 . S
C481 C67 1.646 . S
C531 C103 1.597 . S
C546 C152 1.605 . S
C581 C109 1.686 . S
C596 C178 1.702 . S
C646 C207 1.702 . S
C631 C37 1.651 . S
C696 C173 1.614 . S
C681 C73 1.605 . S
C746 C195 1.707 . S
C731 C139 1.690 . S
C781 C31 1.561 . S
C796 C161 1.605 . S
