# Generated by pormake.
# Topology zzz, (3,6)-cn, num edge types: 1
# Building blocks:
#     Node 0, Type 0, BuildingBlock: MIDCAF_clean_linker_0, # of connection points: 3
#     Node 1, Type 0, BuildingBlock: MIDCAF_clean_linker_0, # of connection points: 3
#     Node 2, Type 0, BuildingBlock: MIDCAF_clean_linker_0, # of connection points: 3
#     Node 3, Type 0, BuildingBlock: MIDCAF_clean_linker_0, # of connection points: 3
#     Node 4, Type 0, BuildingBlock: MIDCAF_clean_linker_0, # of connection points: 3
#     Node 5, Type 0, BuildingBlock: MIDCAF_clean_linker_0, # of connection points: 3
#     Node 6, Type 0, BuildingBlock: MIDCAF_clean_linker_0, # of connection points: 3
#     Node 7, Type 0, BuildingBlock: MIDCAF_clean_linker_0, # of connection points: 3
#     Node 8, Type 1, BuildingBlock: FUNLAD_clean_sbu_0, # of connection points: 6
#     Node 9, Type 1, BuildingBlock: FUNLAD_clean_sbu_0, # of connection points: 6
#     Node 10, Type 1, BuildingBlock: FUNLAD_clean_sbu_0, # of connection points: 6
#     Node 11, Type 1, BuildingBlock: FUNLAD_clean_sbu_0, # of connection points: 6
#     Edge 12, Type (0, 1), BuildingBlock: OJICUG_clean_linker_0, # of connection points: 2
#     Edge 13, Type (0, 1), BuildingBlock: OJICUG_clean_linker_0, # of connection points: 2
#     Edge 14, Type (0, 1), BuildingBlock: OJICUG_clean_linker_0, # of connection points: 2
#     Edge 15, Type (0, 1), BuildingBlock: OJICUG_clean_linker_0, # of connection points: 2
#     Edge 16, Type (0, 1), BuildingBlock: OJICUG_clean_linker_0, # of connection points: 2
#     Edge 17, Type (0, 1), BuildingBlock: OJICUG_clean_linker_0, # of connection points: 2
#     Edge 18, Type (0, 1), BuildingBlock: OJICUG_clean_linker_0, # of connection points: 2
#     Edge 19, Type (0, 1), BuildingBlock: OJICUG_clean_linker_0, # of connection points: 2
#     Edge 20, Type (0, 1), BuildingBlock: OJICUG_clean_linker_0, # of connection points: 2
#     Edge 21, Type (0, 1), BuildingBlock: OJICUG_clean_linker_0, # of connection points: 2
#     Edge 22, Type (0, 1), BuildingBlock: OJICUG_clean_linker_0, # of connection points: 2
#     Edge 23, Type (0, 1), BuildingBlock: OJICUG_clean_linker_0, # of connection points: 2
#     Edge 24, Type (0, 1), BuildingBlock: OJICUG_clean_linker_0, # of connection points: 2
#     Edge 25, Type (0, 1), BuildingBlock: OJICUG_clean_linker_0, # of connection points: 2
#     Edge 26, Type (0, 1), BuildingBlock: OJICUG_clean_linker_0, # of connection points: 2
#     Edge 27, Type (0, 1), BuildingBlock: OJICUG_clean_linker_0, # of connection points: 2
#     Edge 28, Type (0, 1), BuildingBlock: OJICUG_clean_linker_0, # of connection points: 2
#     Edge 29, Type (0, 1), BuildingBlock: OJICUG_clean_linker_0, # of connection points: 2
#     Edge 30, Type (0, 1), BuildingBlock: OJICUG_clean_linker_0, # of connection points: 2
#     Edge 31, Type (0, 1), BuildingBlock: OJICUG_clean_linker_0, # of connection points: 2
#     Edge 32, Type (0, 1), BuildingBlock: OJICUG_clean_linker_0, # of connection points: 2
#     Edge 33, Type (0, 1), BuildingBlock: OJICUG_clean_linker_0, # of connection points: 2
#     Edge 34, Type (0, 1), BuildingBlock: OJICUG_clean_linker_0, # of connection points: 2
#     Edge 35, Type (0, 1), BuildingBlock: OJICUG_clean_linker_0, # of connection points: 2
# Relax obj value: 0.269
# Max RMSD: 0.238
# Mean RMSD: 0.194
data_MOF--net-zzz--node1-FUNLAD_clean_sbu_0--node2-MIDCAF_clean_linker_0--edge1-OJICUG_clean_linker_0
_symmetry_space_group_name_H-M    P1
_symmetry_Int_Tables_number       1
_symmetry_cell_setting            triclinic
loop_
_symmetry_equiv_pos_as_xyz
'x, y, z'
_cell_length_a     45.013529
_cell_length_b     50.289914
_cell_length_c     17.747946
_cell_angle_alpha  85.763152
_cell_angle_beta   85.789315
_cell_angle_gamma 92.487431
loop_
_atom_site_label
_atom_site_type_symbol
_atom_site_fract_x
_atom_site_fract_y
_atom_site_fract_z
_atom_type_partial_charge
C0 C 0.85246 0.47343 0.46857 0.0
C1 C 0.86441 0.45439 0.51851 0.0
C2 C 0.85538 0.42734 0.51629 0.0
C3 C 0.83823 0.41918 0.45899 0.0
H4 H 0.73961 0.44031 0.27393 0.0
H5 H 0.69743 0.45114 0.19941 0.0
H6 H 0.75492 0.45091 0.99335 0.0
H7 H 0.79621 0.43917 0.06691 0.0
H8 H 0.84887 0.39955 0.06997 0.0
H9 H 0.89498 0.40086 0.98928 0.0
H10 H 0.94578 0.40584 0.1852 0.0
H11 H 0.89972 0.40459 0.26648 0.0
H12 H 0.82858 0.48001 0.36898 0.0
H13 H 0.859 0.4944 0.46866 0.0
H14 H 0.8636 0.41223 0.55509 0.0
H15 H 0.83431 0.398 0.45371 0.0
N16 N 0.79894 0.43626 0.29277 0.0
N17 N 0.81926 0.41802 0.18322 0.0
N18 N 0.84546 0.41667 0.2918 0.0
C19 C 0.79666 0.43027 0.21956 0.0
C20 C 0.84372 0.41112 0.21879 0.0
C21 C 0.82329 0.42899 0.32924 0.0
C22 C 0.77116 0.43853 0.17645 0.0
C23 C 0.74312 0.44265 0.21273 0.0
C24 C 0.719 0.44895 0.16993 0.0
C25 C 0.72259 0.45156 0.09007 0.0
C26 C 0.75097 0.4483 0.05443 0.0
C27 C 0.7748 0.4417 0.09687 0.0
C28 C 0.87055 0.40297 0.17441 0.0
C29 C 0.86981 0.39999 0.0964 0.0
C30 C 0.8963 0.4005 0.05005 0.0
C31 C 0.92393 0.40405 0.08093 0.0
C32 C 0.92472 0.4035 0.15994 0.0
C33 C 0.89825 0.40283 0.2064 0.0
C34 C 0.82918 0.43793 0.40397 0.0
C35 C 0.83486 0.46522 0.4117 0.0
C36 C 0.89481 0.8263 0.38088 0.0
C37 C 0.9151 0.82105 0.43576 0.0
C38 C 0.93011 0.79709 0.43616 0.0
C39 C 0.92856 0.78092 0.37568 0.0
H40 H 0.93985 0.70496 0.21484 0.0
H41 H 0.94458 0.66286 0.15515 0.0
H42 H 0.92822 0.7032 0.93935 0.0
H43 H 0.92544 0.7452 0.99839 0.0
H44 H 0.99625 0.79551 0.0105 0.0
H45 H 0.02705 0.83183 0.94179 0.0
H46 H 0.98526 0.8881 0.08359 0.0
H47 H 0.95548 0.85191 0.15357 0.0
H48 H 0.88106 0.81686 0.27272 0.0
H49 H 0.88306 0.84466 0.37923 0.0
H50 H 0.94579 0.79261 0.47828 0.0
H51 H 0.94345 0.76463 0.37187 0.0
N52 N 0.92199 0.75839 0.21237 0.0
N53 N 0.95125 0.77467 0.10154 0.0
N54 N 0.94024 0.80309 0.1967 0.0
C55 C 0.93507 0.75437 0.14262 0.0
C56 C 0.95416 0.79904 0.12875 0.0
C57 C 0.9241 0.78312 0.23841 0.0
C58 C 0.9327 0.72823 0.11084 0.0
C59 C 0.93686 0.70457 0.15491 0.0
C60 C 0.93947 0.68047 0.1206 0.0
C61 C 0.93739 0.67965 0.04192 0.0
C62 C 0.93098 0.70316 -0.00055 0.0
C63 C 0.9291 0.72721 0.0333 0.0
C64 C 0.97314 0.82083 0.0869 0.0
C65 C 0.99378 0.81563 0.02715 0.0
C66 C 0.01151 0.83645 0.98796 0.0
C67 C 0.00871 0.86294 0.00711 0.0
C68 C 0.98857 0.86794 0.06817 0.0
C69 C 0.97112 0.84716 0.10775 0.0
C70 C 0.91225 0.7888 0.31425 0.0
C71 C 0.89354 0.81029 0.32006 0.0
C72 C 0.69293 0.02644 0.41541 0.0
C73 C 0.684 0.00127 0.45241 0.0
C74 C 0.69973 0.97901 0.43052 0.0
C75 C 0.72128 0.98148 0.36846 0.0
H76 H 0.78753 0.97213 0.03495 0.0
H77 H 0.83494 0.96951 0.96175 0.0
H78 H 0.87372 0.03029 0.09002 0.0
H79 H 0.82628 0.03139 0.16654 0.0
H80 H 0.72134 0.05043 0.00092 0.0
H81 H 0.67766 0.06121 0.93181 0.0
H82 H 0.62632 0.99718 0.06551 0.0
H83 H 0.66909 0.988 0.13655 0.0
H84 H 0.71876 0.04817 0.32314 0.0
H85 H 0.6815 0.04419 0.42858 0.0
H86 H 0.69431 0.95935 0.45839 0.0
H87 H 0.7306 0.96362 0.34801 0.0
N88 N 0.76647 0.00435 0.21842 0.0
N89 N 0.75101 0.01082 0.09411 0.0
N90 N 0.71645 0.01213 0.19827 0.0
C91 C 0.773 0.00595 0.14139 0.0
C92 C 0.72276 0.01393 0.12264 0.0
C93 C 0.73781 0.00752 0.24653 0.0
C94 C 0.80328 0.00185 0.10666 0.0
C95 C 0.80643 0.98451 0.04845 0.0
C96 C 0.83362 0.98336 0.0056 0.0
C97 C 0.85839 0.00014 0.01804 0.0
C98 C 0.85545 0.01685 0.07856 0.0
C99 C 0.82824 0.01753 0.12274 0.0
C100 C 0.69835 0.01844 0.07363 0.0
C101 C 0.70062 0.03871 0.01462 0.0
C102 C 0.67558 0.04488 0.97545 0.0
C103 C 0.64811 0.03048 0.99394 0.0
C104 C 0.64656 0.00951 0.05139 0.0
C105 C 0.67123 0.00385 0.09137 0.0
C106 C 0.72798 0.00632 0.32796 0.0
C107 C 0.71468 0.02889 0.35462 0.0
C108 C 0.52589 0.60329 0.09715 0.0
C109 C 0.5036 0.60711 0.04618 0.0
C110 C 0.49104 0.63226 0.03892 0.0
C111 C 0.50132 0.65322 0.07923 0.0
H112 H 0.55528 0.73042 0.02549 0.0
H113 H 0.55377 0.77417 0.95936 0.0
H114 H 0.54232 0.80946 0.17378 0.0
H115 H 0.54494 0.76524 0.24059 0.0
H116 H 0.52163 0.68379 0.40921 0.0
H117 H 0.5286 0.65361 0.51897 0.0
H118 H 0.61783 0.64015 0.42658 0.0
H119 H 0.60994 0.66976 0.31503 0.0
H120 H 0.55305 0.62047 0.17658 0.0
H121 H 0.53685 0.58461 0.10319 0.0
H122 H 0.47346 0.63593 0.00157 0.0
H123 H 0.49161 0.67248 0.07164 0.0
N124 N 0.53676 0.69673 0.13895 0.0
N125 N 0.55735 0.71195 0.24714 0.0
N126 N 0.54524 0.66627 0.23987 0.0
C127 C 0.54791 0.71711 0.17638 0.0
C128 C 0.55609 0.68633 0.27846 0.0
C129 C 0.53531 0.67133 0.17047 0.0
C130 C 0.5498 0.74435 0.13829 0.0
C131 C 0.55259 0.7475 0.05875 0.0
C132 C 0.55155 0.77262 0.02073 0.0
C133 C 0.54723 0.79531 0.0611 0.0
C134 C 0.54571 0.79239 0.14091 0.0
C135 C 0.54715 0.7671 0.17922 0.0
C136 C 0.56535 0.67921 0.35446 0.0
C137 C 0.54326 0.67548 0.41454 0.0
C138 C 0.54733 0.658 0.47743 0.0
C139 C 0.57362 0.64388 0.48119 0.0
C140 C 0.59706 0.65019 0.42484 0.0
C141 C 0.59282 0.66752 0.36158 0.0
C142 C 0.52377 0.64925 0.12915 0.0
C143 C 0.53554 0.62399 0.13881 0.0
C144 C 0.17362 0.57409 0.96222 0.0
C145 C 0.17576 0.54736 0.94463 0.0
C146 C 0.19676 0.5318 0.98062 0.0
C147 C 0.21278 0.54189 0.03815 0.0
H148 H 0.30018 0.56263 0.18233 0.0
H149 H 0.34325 0.55049 0.25227 0.0
H150 H 0.28791 0.54749 0.46262 0.0
H151 H 0.24577 0.56038 0.39387 0.0
H152 H 0.19301 0.5995 0.40232 0.0
H153 H 0.14747 0.59556 0.48596 0.0
H154 H 0.09491 0.59475 0.29236 0.0
H155 H 0.14025 0.59899 0.20811 0.0
H156 H 0.18569 0.60413 0.03465 0.0
H157 H 0.15769 0.58684 0.93702 0.0
H158 H 0.19963 0.51135 0.96738 0.0
H159 H 0.22674 0.52874 0.06943 0.0
N160 N 0.24029 0.56735 0.16892 0.0
N161 N 0.22165 0.58377 0.28299 0.0
N162 N 0.19394 0.58714 0.17733 0.0
C163 C 0.24367 0.57206 0.24273 0.0
C164 C 0.19673 0.59142 0.25078 0.0
C165 C 0.21539 0.57532 0.13585 0.0
C166 C 0.26966 0.56287 0.28248 0.0
C167 C 0.29733 0.55927 0.24347 0.0
C168 C 0.32196 0.55224 0.28361 0.0
C169 C 0.31924 0.54842 0.36339 0.0
C170 C 0.2912 0.55106 0.4016 0.0
C171 C 0.26688 0.55834 0.36187 0.0
C172 C 0.17034 0.59853 0.29862 0.0
C173 C 0.17178 0.59954 0.37723 0.0
C174 C 0.14566 0.59748 0.42528 0.0
C175 C 0.11781 0.59429 0.39537 0.0
C176 C 0.11621 0.59687 0.31659 0.0
C177 C 0.14228 0.59922 0.26849 0.0
C178 C 0.20809 0.5677 0.06031 0.0
C179 C 0.18969 0.58411 0.01885 0.0
C180 C 0.14621 0.1725 0.06521 0.0
C181 C 0.12555 0.17781 0.01126 0.0
C182 C 0.11057 0.20177 0.01172 0.0
C183 C 0.11253 0.21788 0.07223 0.0
H184 H 0.10393 0.2937 0.23971 0.0
H185 H 0.10003 0.33499 0.30387 0.0
H186 H 0.11768 0.29201 0.51489 0.0
H187 H 0.11972 0.25083 0.45144 0.0
H188 H 0.04515 0.20347 0.4358 0.0
H189 H 0.01365 0.1675 0.50393 0.0
H190 H 0.05449 0.11081 0.36187 0.0
H191 H 0.0849 0.14669 0.29231 0.0
H192 H 0.16066 0.18183 0.1728 0.0
H193 H 0.15795 0.15414 0.0662 0.0
H194 H 0.09462 0.2063 0.97032 0.0
H195 H 0.09765 0.23415 0.07682 0.0
N196 N 0.12095 0.23975 0.23693 0.0
N197 N 0.09138 0.2234 0.34721 0.0
N198 N 0.10086 0.19558 0.24973 0.0
C199 C 0.10825 0.24351 0.30727 0.0
C200 C 0.08737 0.19944 0.3183 0.0
C201 C 0.11768 0.21538 0.20911 0.0
C202 C 0.11173 0.26919 0.34105 0.0
C203 C 0.10747 0.29336 0.29949 0.0
C204 C 0.10532 0.31697 0.33636 0.0
C205 C 0.10791 0.31678 0.41508 0.0
C206 C 0.11456 0.29281 0.45486 0.0
C207 C 0.11602 0.26924 0.41847 0.0
C208 C 0.06782 0.17789 0.35932 0.0
C209 C 0.04724 0.18333 0.41894 0.0
C210 C 0.02911 0.16272 0.45781 0.0
C211 C 0.03149 0.1362 0.43854 0.0
C212 C 0.05151 0.13099 0.37742 0.0
C213 C 0.06932 0.15159 0.33808 0.0
C214 C 0.12924 0.20995 0.13283 0.0
C215 C 0.1479 0.18846 0.12606 0.0
C216 C 0.33987 0.96879 0.01544 0.0
C217 C 0.35038 0.99505 0.99081 0.0
C218 C 0.3368 0.01622 0.02614 0.0
C219 C 0.31583 0.01112 0.08901 0.0
H220 H 0.21113 0.99003 0.25293 0.0
H221 H 0.16391 0.99669 0.32626 0.0
H222 H 0.20887 0.98972 0.53302 0.0
H223 H 0.25539 0.98371 0.46099 0.0
H224 H 0.31489 0.95651 0.47121 0.0
H225 H 0.35914 0.95057 0.54129 0.0
H226 H 0.4115 0.9402 0.33293 0.0
H227 H 0.36757 0.94577 0.26262 0.0
H228 H 0.31347 0.94328 0.09867 0.0
H229 H 0.34963 0.9517 0.99164 0.0
H230 H 0.34351 0.03677 0.00811 0.0
H231 H 0.3082 0.02769 0.11971 0.0
N232 N 0.27164 0.98541 0.23249 0.0
N233 N 0.28704 0.96842 0.35014 0.0
N234 N 0.31859 0.96708 0.24072 0.0
C235 C 0.26585 0.97989 0.30925 0.0
C236 C 0.31339 0.96189 0.31625 0.0
C237 C 0.29828 0.97872 0.19837 0.0
C238 C 0.23719 0.9862 0.35067 0.0
C239 C 0.21092 0.99028 0.3139 0.0
C240 C 0.18381 0.99387 0.3561 0.0
C241 C 0.18245 0.99377 0.43586 0.0
C242 C 0.20893 0.99033 0.47189 0.0
C243 C 0.23574 0.98662 0.43016 0.0
C244 C 0.33781 0.95233 0.36106 0.0
C245 C 0.33561 0.95219 0.4405 0.0
C246 C 0.36088 0.94864 0.48076 0.0
C247 C 0.38868 0.94529 0.4421 0.0
C248 C 0.39032 0.94304 0.36373 0.0
C249 C 0.36511 0.94634 0.32362 0.0
C250 C 0.30768 0.98478 0.11713 0.0
C251 C 0.31877 0.96381 0.07717 0.0
C252 C 0.51084 0.39439 0.35459 0.0
C253 C 0.53529 0.39014 0.39834 0.0
C254 C 0.54789 0.36499 0.40039 0.0
C255 C 0.53592 0.3445 0.36086 0.0
H256 H 0.45194 0.23854 0.24613 0.0
H257 H 0.45395 0.19417 0.31207 0.0
H258 H 0.53822 0.21783 0.39529 0.0
H259 H 0.53574 0.26201 0.33176 0.0
H260 H 0.48137 0.2975 0.03451 0.0
H261 H 0.47746 0.32533 0.91695 0.0
H262 H 0.4279 0.38157 0.04216 0.0
H263 H 0.43153 0.35368 0.1584 0.0
H264 H 0.48021 0.37813 0.282 0.0
H265 H 0.49984 0.41312 0.3532 0.0
H266 H 0.56689 0.36104 0.4328 0.0
H267 H 0.54595 0.3253 0.36378 0.0
N268 N 0.50229 0.30153 0.29587 0.0
N269 N 0.47457 0.28861 0.19587 0.0
N270 N 0.48244 0.33395 0.21595 0.0
C271 C 0.49021 0.28194 0.25705 0.0
C272 C 0.47061 0.31482 0.17558 0.0
C273 C 0.49842 0.32756 0.27567 0.0
C274 C 0.49347 0.25383 0.28463 0.0
C275 C 0.47109 0.23402 0.27748 0.0
C276 C 0.47225 0.20863 0.31533 0.0
C277 C 0.49593 0.20263 0.36039 0.0
C278 C 0.51919 0.22201 0.36311 0.0
C279 C 0.51789 0.2473 0.32615 0.0
C280 C 0.45718 0.32374 0.1054 0.0
C281 C 0.46819 0.315 0.03597 0.0
C282 C 0.4662 0.33112 0.96884 0.0
C283 C 0.45314 0.35607 0.97059 0.0
C284 C 0.43819 0.36258 0.03853 0.0
C285 C 0.44031 0.34659 0.1054 0.0
C286 C 0.51141 0.34891 0.31763 0.0
C287 C 0.49926 0.37415 0.31427 0.0
C288 C 0.03591 0.95769 0.81639 0.0
N289 N 0.98843 0.95913 0.62473 0.0
C290 C 1.00493 0.93749 0.61466 0.0
C291 C 0.99265 0.9149 0.58599 0.0
C292 C 0.96317 0.91453 0.56494 0.0
C293 C 0.94677 0.93747 0.57382 0.0
C294 C 0.95985 0.95963 0.60455 0.0
Zn295 Zn 0.00776 0.98787 0.68343 0.0
C296 C 0.96716 0.00132 0.81594 0.0
N297 N 0.05129 0.04022 0.82161 0.0
C298 C 0.07995 0.0397 0.84111 0.0
C299 C 0.03477 0.06179 0.83259 0.0
C300 C 0.04714 0.08431 0.86149 0.0
C301 C 0.07674 0.08468 0.88174 0.0
C302 C 0.09313 0.06178 0.87199 0.0
Zn303 Zn 0.032 0.01155 0.76262 0.0
O304 O 0.02092 0.95695 0.75872 0.0
C305 C 0.07261 0.99816 0.63 0.0
O306 O 0.04545 0.98009 0.83612 0.0
H307 H 0.01211 0.062 0.81623 0.0
H308 H 0.02751 0.93728 0.63158 0.0
H309 H 0.09279 0.02244 0.8312 0.0
O310 O 0.04855 0.9865 0.61352 0.0
O311 O 0.07242 0.01031 0.6905 0.0
H312 H 0.94702 0.97696 0.61376 0.0
O313 O 0.01814 0.04253 0.68845 0.0
O314 O 0.99499 0.01923 0.60887 0.0
O315 O 0.99144 0.01219 0.83383 0.0
O316 O 0.96711 0.9899 0.7542 0.0
C317 C 1.00376 0.0417 0.62971 0.0
H318 H 1.0061 0.89765 0.58234 0.0
H319 H 0.92411 0.93833 0.5575 0.0
H320 H 0.03367 0.10153 0.86588 0.0
H321 H 0.11587 0.06091 0.88772 0.0
C322 C 0.4849 0.97411 0.61629 0.0
N323 N 0.50796 0.05514 0.63007 0.0
C324 C 0.51391 0.05632 0.55357 0.0
C325 C 0.51044 0.07988 0.5091 0.0
C326 C 0.50061 0.10253 0.54346 0.0
C327 C 0.49426 0.10063 0.62257 0.0
C328 C 0.49817 0.07666 0.66497 0.0
Zn329 Zn 0.51386 0.01994 0.69135 0.0
C330 C 0.46252 0.00368 0.80419 0.0
N331 N 0.52492 0.94395 0.80685 0.0
C332 C 0.5328 0.92218 0.77033 0.0
C333 C 0.52109 0.94286 0.88385 0.0
C334 C 0.52518 0.91918 0.92726 0.0
C335 C 0.53302 0.89634 0.89107 0.0
C336 C 0.53687 0.89803 0.81153 0.0
Zn337 Zn 0.51897 0.97922 0.74614 0.0
O338 O 0.49003 -0.00075 0.61293 0.0
C339 C 0.57048 0.99551 0.634 0.0
O340 O 0.49514 0.95936 0.66839 0.0
H341 H 0.51471 0.96037 0.91178 0.0
H342 H 0.52158 0.03896 0.52685 0.0
H343 H 0.53591 0.92354 0.70914 0.0
O344 O 0.55522 0.01613 0.6272 0.0
O345 O 0.56043 0.97576 0.67904 0.0
H346 H 0.49344 0.07525 0.72581 0.0
O347 O 0.54263 -0.00021 0.8241 0.0
O348 O 0.53817 0.03986 0.76878 0.0
O349 O 0.47762 0.98295 0.81044 0.0
O350 O 0.4725 0.02343 0.75904 0.0
C351 C 0.54812 0.02484 0.82075 0.0
H352 H 0.51605 0.08046 0.4486 0.0
H353 H 0.48623 0.11744 0.65148 0.0
H354 H 0.52168 0.91863 0.98841 0.0
H355 H 0.54319 0.88091 0.78149 0.0
C356 C 0.54416 0.46931 0.60707 0.0
N357 N 0.46529 0.51023 0.6311 0.0
C358 C 0.47084 0.51654 0.55526 0.0
C359 C 0.44753 0.52226 0.50983 0.0
C360 C 0.41821 0.52183 0.54277 0.0
C361 C 0.41307 0.51526 0.62117 0.0
C362 C 0.43703 0.50937 0.66444 0.0
Zn363 Zn 0.50082 0.5024 0.69414 0.0
C364 C 0.49376 0.45135 0.78814 0.0
N365 N 0.57823 0.48595 0.81302 0.0
C366 C 0.60663 0.48692 0.7805 0.0
C367 C 0.57238 0.47977 0.88883 0.0
C368 C 0.59551 0.47454 0.93517 0.0
C369 C 0.62499 0.47528 0.90322 0.0
C370 C 0.63045 0.48148 0.82473 0.0
Zn371 Zn 0.54283 0.4938 0.74962 0.0
O372 O 0.51928 0.48029 0.60728 0.0
C373 C 0.55009 0.54458 0.65548 0.0
O374 O 0.5604 0.47152 0.66205 0.0
H375 H 0.54965 0.47881 0.91362 0.0
H376 H 0.49347 0.51736 0.52982 0.0
H377 H 0.61081 0.49193 0.72022 0.0
O378 O 0.52343 0.53767 0.64407 0.0
O379 O 0.56504 0.5296 0.6977 0.0
H380 H 0.43308 0.50423 0.7247 0.0
O381 O 0.52424 0.51585 0.83691 0.0
O382 O 0.48342 0.52485 0.78115 0.0
O383 O 0.52045 0.45855 0.79866 0.0
O384 O 0.4785 0.4665 0.74708 0.0
C385 C 0.49947 0.52701 0.83645 0.0
H386 H 0.4525 0.52754 0.44981 0.0
H387 H 0.39072 0.5145 0.64865 0.0
H388 H 0.59031 0.4695 0.99523 0.0
H389 H 0.65293 0.4824 0.79802 0.0
C390 C 0.04065 0.53235 0.61479 0.0
N391 N 0.05166 0.45015 0.6517 0.0
C392 C 0.04866 0.44959 0.57606 0.0
C393 C 0.06048 0.42909 0.53616 0.0
C394 C 0.0752 0.40883 0.57468 0.0
C395 C 0.07843 0.41013 0.65244 0.0
C396 C 0.06655 0.43115 0.68999 0.0
Zn397 Zn 0.03245 0.47962 0.70845 0.0
C398 C 0.07463 0.50803 0.79801 0.0
N399 N 0.99183 0.54306 0.81756 0.0
C400 C 0.97633 0.5615 0.7789 0.0
C401 C 0.99562 0.54449 0.89258 0.0
C402 C 0.98411 0.56541 0.93128 0.0
C403 C 0.96893 0.58519 0.89208 0.0
C404 C 0.96477 0.58292 0.81515 0.0
Zn405 Zn 0.01101 0.51346 0.76127 0.0
O406 O 0.04696 0.50792 0.61725 0.0
C407 C 0.96904 0.48502 0.66998 0.0
O408 O 0.02477 0.54088 0.66898 0.0
H409 H 0.00816 0.52969 0.92213 0.0
H410 H 0.03659 0.4648 0.54679 0.0
H411 H 0.97341 0.55988 0.71944 0.0
O412 O 0.99226 0.47195 0.65832 0.0
O413 O 0.96996 0.50435 0.71231 0.0
H414 H 0.06881 0.43207 0.74999 0.0
O415 O 0.99794 0.48567 0.85413 0.0
O416 O 0.01722 0.45185 0.79984 0.0
O417 O 0.05219 0.52227 0.80732 0.0
O418 O 0.07278 0.48762 0.76019 0.0
C419 C 1.00288 0.46096 0.85577 0.0
H420 H 0.0572 0.42859 0.47641 0.0
H421 H 0.08983 0.39493 0.68397 0.0
H422 H 0.98803 0.56665 0.99044 0.0
H423 H 0.953 0.59774 0.78321 0.0
C424 C 0.15299 0.01079 0.54768 0.0
C425 C 0.1537 0.99633 0.48252 0.0
H426 H 0.12725 0.02265 0.64491 0.0
C427 C 0.12713 0.98312 0.46526 0.0
H428 H 0.17282 0.02158 0.56235 0.0
C429 C 0.10085 0.98381 0.51276 0.0
C430 C 0.10039 0.99777 0.57879 0.0
H431 H 0.12681 0.97156 0.41619 0.0
H432 H 0.08095 0.97309 0.49813 0.0
C433 C 0.12677 0.01146 0.59512 0.0
C434 C 0.50565 0.1765 0.48122 0.0
C435 C 0.496 0.1769 0.40753 0.0
H436 H 0.51511 0.15297 0.58096 0.0
C437 C 0.48673 0.15267 0.37982 0.0
H438 H 0.51239 0.19482 0.50507 0.0
C439 C 0.48774 0.12858 0.42422 0.0
C440 C 0.49804 0.12817 0.49733 0.0
H441 H 0.47922 0.15226 0.32331 0.0
H442 H 0.48045 0.11026 0.40119 0.0
C443 C 0.50677 0.15248 0.52536 0.0
C444 C 0.34836 0.55295 0.47775 0.0
C445 C 0.34532 0.54211 0.4076 0.0
H446 H 0.37355 0.55502 0.57504 0.0
C447 C 0.36696 0.52489 0.38152 0.0
H448 H 0.33263 0.56683 0.49893 0.0
C449 C 0.39072 0.51838 0.42509 0.0
C450 C 0.39324 0.5288 0.49588 0.0
H451 H 0.36521 0.51595 0.32827 0.0
H452 H 0.40681 0.50477 0.40407 0.0
C453 C 0.37187 0.54624 0.52149 0.0
C454 C 0.08583 0.33752 0.52928 0.0
C455 C 0.10125 0.34068 0.45698 0.0
H456 H 0.06572 0.35649 0.62274 0.0
C457 C 0.10889 0.36668 0.42455 0.0
H458 H 0.07879 0.31791 0.55541 0.0
C459 C 0.10085 0.38891 0.46307 0.0
C460 C 0.08533 0.38557 0.53505 0.0
H461 H 0.12103 0.36989 0.36943 0.0
H462 H 0.10678 0.40873 0.43664 0.0
C463 C 0.07817 0.35966 0.56797 0.0
C464 C 0.88534 0.99586 0.88917 0.0
C465 C 0.88651 0.00072 0.96629 0.0
H466 H 0.90948 0.99199 0.78208 0.0
C467 C 0.91474 0.00626 0.99269 0.0
H468 H 0.86421 0.99226 0.86539 0.0
C469 C 0.94079 0.00682 0.94378 0.0
C470 C 0.93946 0.00148 0.86731 0.0
H471 H 0.9169 0.00976 0.05151 0.0
H472 H 0.96207 0.01099 0.96634 0.0
C473 C 0.91139 0.99595 0.84076 0.0
C474 C 0.52695 0.82266 0.95441 0.0
C475 C 0.54322 0.82151 0.01926 0.0
H476 H 0.51098 0.84706 0.86362 0.0
C477 C 0.55564 0.84539 0.04269 0.0
H478 H 0.51639 0.8048 0.93575 0.0
C479 C 0.55222 0.86977 0.00145 0.0
C480 C 0.53646 0.8707 0.9358 0.0
H481 H 0.56848 0.84521 0.09196 0.0
H482 H 0.56239 0.88781 0.02008 0.0
C483 C 0.52377 0.8469 0.91303 0.0
C484 C 0.69474 0.44571 0.97405 0.0
C485 C 0.69704 0.45732 0.04338 0.0
H486 H 0.67038 0.44235 0.87569 0.0
C487 C 0.67509 0.47472 0.06655 0.0
H488 H 0.71074 0.4317 0.95504 0.0
C489 C 0.65165 0.4805 0.02124 0.0
C490 C 0.64978 0.4692 0.95148 0.0
H491 H 0.67629 0.48431 0.11896 0.0
H492 H 0.63525 0.49419 0.04017 0.0
C493 C 0.67155 0.45173 0.92848 0.0
C494 C 0.93626 0.62948 0.03801 0.0
C495 C 0.94407 0.65511 0.00295 0.0
H496 H 0.93796 0.58715 0.03023 0.0
C497 C 0.95948 0.65727 0.93063 0.0
H498 H 0.92412 0.62701 0.09323 0.0
C499 C 0.96682 0.63455 0.89429 0.0
C500 C 0.95939 0.60904 0.9297 0.0
H501 H 0.96669 0.67656 0.90253 0.0
H502 H 0.97916 0.63695 0.83927 0.0
C503 C 0.94404 0.60666 0.0019 0.0
C504 C 0.01497 0.11428 0.56652 0.0
C505 C 0.01629 0.11362 0.48738 0.0
H506 H 0.009 0.09195 0.67383 0.0
C507 C 0.007 0.08987 0.45653 0.0
H508 H 0.02199 0.13207 0.59258 0.0
C509 C 0.99985 0.06656 0.50359 0.0
C510 C 1.00182 0.06675 0.58207 0.0
H511 H 0.00702 0.08889 0.39578 0.0
H512 H 0.99517 0.04807 0.47805 0.0
C513 C 0.0077 0.09113 0.6133 0.0
C514 C 0.43778 0.96869 0.45174 0.0
C515 C 0.41628 0.94878 0.48098 0.0
H516 H 0.47658 0.99236 0.4723 0.0
C517 C 0.4198 0.93489 0.55104 0.0
H518 H 0.43536 0.97989 0.39819 0.0
C519 C 0.44378 0.9417 0.59281 0.0
C520 C 0.46401 0.96293 0.56579 0.0
H521 H 0.40343 0.9195 0.57458 0.0
H522 H 0.4453 0.9316 0.64837 0.0
C523 C 0.46128 0.97589 0.49413 0.0
C524 C 0.55387 0.40464 0.51992 0.0
C525 C 0.54556 0.4113 0.44617 0.0
H526 H 0.56091 0.41847 0.62893 0.0
C527 C 0.54332 0.43843 0.42231 0.0
H528 H 0.55569 0.38403 0.54063 0.0
C529 C 0.54549 0.45796 0.47368 0.0
C530 C 0.55111 0.45087 0.54889 0.0
H531 H 0.53803 0.44445 0.36519 0.0
H532 H 0.54102 0.47839 0.45585 0.0
C533 C 0.55691 0.42436 0.5707 0.0
C534 C 0.08417 0.59191 0.515 0.0
C535 C 0.0923 0.58205 0.44483 0.0
H536 H 0.06034 0.58388 0.62399 0.0
C537 C 0.07964 0.55742 0.42744 0.0
H538 H 0.09383 0.61077 0.52967 0.0
C539 C 0.06121 0.54186 0.48156 0.0
C540 C 0.05459 0.55094 0.55335 0.0
H541 H 0.08589 0.54918 0.37414 0.0
H542 H 0.05333 0.52217 0.4686 0.0
C543 C 0.06506 0.57657 0.56866 0.0
C544 C 0.03279 0.90942 0.98938 0.0
C545 C 0.02366 0.88566 0.95837 0.0
H546 H 0.04444 0.95128 0.96808 0.0
C547 C 0.02495 0.88507 0.87922 0.0
H548 H 0.03276 0.91036 0.05015 0.0
C549 C 0.03209 0.90827 0.83259 0.0
C550 C 0.03791 0.93264 0.86396 0.0
H551 H 0.01804 0.86726 0.85308 0.0
H552 H 0.03079 0.9075 0.77204 0.0
C553 C 0.03985 0.93279 0.94245 0.0
C554 C 0.62429 0.04313 0.87329 0.0
C555 C 0.62138 0.03597 0.95174 0.0
H556 H 0.60232 0.04613 0.77012 0.0
C557 C 0.59252 0.03107 0.98799 0.0
H558 H 0.64602 0.04693 0.84314 0.0
C559 C 0.56767 0.02986 0.94562 0.0
C560 C 0.5711 0.03481 0.86686 0.0
H561 H 0.58922 0.02651 0.04869 0.0
H562 H 0.54609 0.02348 0.97379 0.0
C563 C 0.59924 0.04278 0.8313 0.0
C564 C 0.49807 0.55856 0.02113 0.0
C565 C 0.49563 0.58562 0.99663 0.0
H566 H 0.5015 0.51853 0.98851 0.0
C567 C 0.48879 0.59203 0.92139 0.0
H568 H 0.5022 0.55262 0.07914 0.0
C569 C 0.48688 0.57218 0.8707 0.0
C570 C 0.49248 0.54575 0.89379 0.0
H571 H 0.48702 0.61253 0.89971 0.0
H572 H 0.48369 0.5779 0.81186 0.0
C573 C 0.49717 0.5389 0.96974 0.0
C574 C 0.96474 0.43851 0.04603 0.0
C575 C 0.95023 0.41441 0.0307 0.0
H576 H 0.99293 0.47222 0.00184 0.0
C577 C 0.95736 0.40358 0.96123 0.0
H578 H 0.95945 0.44753 0.09863 0.0
C579 C 0.97694 0.41768 0.90591 0.0
C580 C 0.98903 0.443 0.91898 0.0
H581 H 0.94645 0.38504 0.94811 0.0
H582 H 0.98065 0.4098 0.85101 0.0
C583 C 0.98374 0.45278 0.99043 0.0
C584 C 0.08326 0.14768 0.98537 0.0
C585 C 0.11355 0.15549 0.97099 0.0
H586 H 0.04845 0.11883 0.97274 0.0
C587 C 0.13213 0.13981 0.92745 0.0
H588 H 0.06866 0.15886 0.02115 0.0
C589 C 0.12033 0.11686 0.89778 0.0
C590 C 0.08991 0.1089 0.91283 0.0
H591 H 0.15569 0.14523 0.91682 0.0
H592 H 0.13502 0.10548 0.86298 0.0
C593 C 0.07168 0.1246 0.95752 0.0
C594 C 0.39813 0.02136 0.93923 0.0
C595 C 0.37736 -0.0003 0.93498 0.0
H596 H 0.44114 0.03988 0.90031 0.0
C597 C 0.38429 0.98098 0.8817 0.0
H598 H 0.39418 0.03612 0.97973 0.0
C599 C 0.41177 0.98265 0.83884 0.0
C600 C 0.4327 0.00365 0.84547 0.0
H601 H 0.36881 0.96452 0.87395 0.0
H602 H 0.41678 0.96733 0.80058 0.0
C603 C 0.4253 0.02348 0.89422 0.0
C604 C 0.44103 0.39707 0.88936 0.0
C605 C 0.46125 0.37762 0.90959 0.0
H606 H 0.43537 0.43582 0.83377 0.0
C607 C 0.49126 0.38155 0.88151 0.0
H608 H 0.41776 0.39459 0.91006 0.0
C609 C 0.50126 0.40509 0.83934 0.0
C610 C 0.48153 0.42524 0.82327 0.0
H611 H 0.5076 0.36731 0.89672 0.0
H612 H 0.52482 0.40792 0.82168 0.0
C613 C 0.45107 0.42063 0.84587 0.0
C614 C 0.14079 0.55127 0.84006 0.0
C615 C 0.15342 0.53536 0.89693 0.0
H616 H 0.10541 0.55516 0.76598 0.0
C617 C 0.14159 0.50898 0.91442 0.0
H618 H 0.14971 0.57131 0.82289 0.0
C619 C 0.11679 0.49946 0.87928 0.0
C620 C 0.10297 0.51631 0.82754 0.0
H621 H 0.1503 0.49612 0.95829 0.0
H622 H 0.1074 0.47949 0.89571 0.0
C623 C 0.1155 0.54203 0.80695 0.0
C624 C 0.95718 0.85129 0.46228 0.0
C625 C 0.92687 0.84346 0.47605 0.0
H626 H 0.99184 0.88024 0.47518 0.0
C627 C 0.90809 0.85922 0.51879 0.0
H628 H 0.97193 0.84005 0.42707 0.0
C629 C 0.91972 0.88226 0.54832 0.0
C630 C 0.95015 0.89024 0.53389 0.0
H631 H 0.88451 0.85378 0.52889 0.0
H632 H 0.90488 0.89371 0.58251 0.0
C633 C 0.96858 0.87446 0.48995 0.0
C634 C 0.63773 0.97479 0.5133 0.0
C635 C 0.65653 -0.00175 0.50696 0.0
H636 H 0.59604 0.95534 0.55922 0.0
C637 C 0.64723 0.01978 0.54806 0.0
H638 H 0.6435 0.9578 0.48224 0.0
C639 C 0.61941 0.01865 0.58923 0.0
C640 C 0.60045 0.99562 0.59323 0.0
H641 H 0.66116 0.03788 0.54766 0.0
H642 H 0.6127 0.03591 0.61819 0.0
C643 C 0.61023 0.97338 0.55684 0.0
C644 C 0.55843 0.61846 0.60687 0.0
C645 C 0.57409 0.61967 0.53495 0.0
H646 H 0.53852 0.59325 0.70172 0.0
C647 C 0.58603 0.5961 0.50981 0.0
H648 H 0.54933 0.63619 0.6287 0.0
C649 C 0.58037 0.57168 0.5526 0.0
C650 C 0.56263 0.5704 0.621 0.0
H651 H 0.59778 0.596 0.45439 0.0
H652 H 0.58799 0.55358 0.52965 0.0
C653 C 0.55245 0.59397 0.64904 0.0
C654 C 0.89089 0.48551 0.60062 0.0
C655 C 0.88991 0.46187 0.56288 0.0
H656 H 0.91661 0.5114 0.66499 0.0
C657 C 0.91486 0.44598 0.56228 0.0
H658 H 0.87207 0.49821 0.60191 0.0
C659 C 0.94019 0.45354 0.59758 0.0
C660 C 0.94141 0.47722 0.63476 0.0
H661 H 0.91528 0.428 0.53226 0.0
H662 H 0.959 0.44082 0.5949 0.0
C663 C 0.91636 0.49304 0.63671 0.0
loop_
_geom_bond_atom_site_label_1
_geom_bond_atom_site_label_2
_geom_bond_distance
_geom_bond_site_symmetry_2
_ccdc_geom_bond_type
C0 C1 1.384 . S
C0 H13 0.947 . S
C0 C35 1.382 . S
C1 C0 1.384 . S
C1 C2 1.378 . S
C2 C1 1.378 . S
C2 C3 1.378 . S
C2 H14 0.952 . S
C3 C2 1.378 . S
C3 H15 0.950 . S
C3 C34 1.383 . S
H4 C23 0.947 . S
H5 C24 0.946 . S
H6 C26 0.953 1_556 S
H7 C27 0.945 . S
H8 C29 0.952 . S
H9 C30 0.949 . S
H10 C32 0.950 . S
H11 C33 0.948 . S
H12 C35 0.951 . S
H13 C0 0.947 . S
H14 C2 0.952 . S
H15 C3 0.950 . S
N16 C19 1.382 . S
N16 C21 1.363 . S
N17 C19 1.371 . S
N17 C20 1.372 . S
N18 C20 1.361 . S
N18 C21 1.377 . S
C19 N16 1.382 . S
C19 N17 1.371 . S
C19 C22 1.480 . S
C20 N17 1.372 . S
C20 N18 1.361 . S
C20 C28 1.457 . S
C21 N16 1.363 . S
C21 N18 1.377 . S
C21 C34 1.479 . S
C22 C19 1.480 . S
C22 C23 1.383 . S
C22 C27 1.385 . S
C23 H4 0.947 . S
C23 C22 1.383 . S
C23 C24 1.388 . S
C24 H5 0.946 . S
C24 C23 1.388 . S
C24 C25 1.384 . S
C25 C24 1.384 . S
C25 C26 1.377 . S
C26 H6 0.953 1_554 S
C26 C25 1.377 . S
C26 C27 1.369 . S
C27 H7 0.945 . S
C27 C22 1.385 . S
C27 C26 1.369 . S
C28 C20 1.457 . S
C28 C29 1.372 1_554 S
C28 C33 1.364 . S
C29 H8 0.952 . S
C29 C28 1.372 1_556 S
C29 C30 1.389 . S
C30 H9 0.949 . S
C30 C29 1.389 . S
C30 C31 1.387 . S
C31 C30 1.387 . S
C31 C32 1.372 1_556 S
C32 H10 0.950 . S
C32 C31 1.372 1_554 S
C32 C33 1.379 . S
C33 H11 0.948 . S
C33 C28 1.364 . S
C33 C32 1.379 . S
C34 C3 1.383 . S
C34 C21 1.479 . S
C34 C35 1.398 . S
C35 C0 1.382 . S
C35 H12 0.951 . S
C35 C34 1.398 . S
C36 C37 1.384 . S
C36 H49 0.947 . S
C36 C71 1.382 . S
C37 C36 1.384 . S
C37 C38 1.378 . S
C38 C37 1.378 . S
C38 C39 1.378 . S
C38 H50 0.952 . S
C39 C38 1.378 . S
C39 H51 0.950 . S
C39 C70 1.383 . S
H40 C59 0.947 . S
H41 C60 0.946 . S
H42 C62 0.953 . S
H43 C63 0.945 . S
H44 C65 0.952 . S
H45 C66 0.949 . S
H46 C68 0.950 . S
H47 C69 0.948 . S
H48 C71 0.951 . S
H49 C36 0.947 . S
H50 C38 0.952 . S
H51 C39 0.950 . S
N52 C55 1.382 1_554 S
N52 C57 1.363 . S
N53 C55 1.371 . S
N53 C56 1.372 . S
N54 C56 1.361 1_554 S
N54 C57 1.377 . S
C55 N52 1.382 1_556 S
C55 N53 1.371 . S
C55 C58 1.480 . S
C56 N53 1.372 . S
C56 N54 1.361 1_556 S
C56 C64 1.457 . S
C57 N52 1.363 . S
C57 N54 1.377 . S
C57 C70 1.479 . S
C58 C55 1.480 . S
C58 C59 1.383 1_556 S
C58 C63 1.385 . S
C59 H40 0.947 . S
C59 C58 1.383 1_554 S
C59 C60 1.388 . S
C60 H41 0.946 . S
C60 C59 1.388 . S
C60 C61 1.384 1_554 S
C61 C60 1.384 1_556 S
C61 C62 1.377 . S
C62 H42 0.953 . S
C62 C61 1.377 . S
C62 C63 1.369 . S
C63 H43 0.945 . S
C63 C58 1.385 . S
C63 C62 1.369 . S
C64 C56 1.457 . S
C64 C65 1.372 . S
C64 C69 1.364 . S
C65 H44 0.952 . S
C65 C64 1.372 . S
C65 C66 1.389 . S
C66 H45 0.949 . S
C66 C65 1.389 . S
C66 C67 1.387 . S
C67 C66 1.387 . S
C67 C68 1.372 . S
C68 H46 0.950 . S
C68 C67 1.372 . S
C68 C69 1.379 . S
C69 H47 0.948 . S
C69 C64 1.364 . S
C69 C68 1.379 . S
C70 C39 1.383 . S
C70 C57 1.479 . S
C70 C71 1.398 . S
C71 C36 1.382 . S
C71 H48 0.951 . S
C71 C70 1.398 . S
C72 C73 1.383 1_565 S
C72 H85 0.947 . S
C72 C107 1.382 1_565 S
C73 C72 1.383 1_545 S
C73 C74 1.378 . S
C74 C73 1.378 . S
C74 C75 1.378 . S
C74 H86 0.952 . S
C75 C74 1.378 . S
C75 H87 0.950 . S
C75 C106 1.383 . S
H76 C95 0.947 . S
H77 C96 0.951 . S
H78 C98 0.953 . S
H79 C99 0.945 . S
H80 C101 0.947 1_565 S
H81 C102 0.960 . S
H82 C104 0.950 . S
H83 C105 0.948 . S
H84 C107 0.951 1_565 S
H85 C72 0.947 . S
H86 C74 0.952 . S
H87 C75 0.950 . S
N88 C91 1.382 . S
N88 C93 1.363 . S
N89 C91 1.371 . S
N89 C92 1.372 . S
N90 C92 1.361 . S
N90 C93 1.377 . S
C91 N88 1.382 . S
C91 N89 1.371 . S
C91 C94 1.480 . S
C92 N89 1.372 . S
C92 N90 1.361 . S
C92 C100 1.457 1_554 S
C93 N88 1.363 . S
C93 N90 1.377 . S
C93 C106 1.479 . S
C94 C91 1.480 . S
C94 C95 1.383 . S
C94 C99 1.385 1_554 S
C95 H76 0.947 . S
C95 C94 1.383 . S
C95 C96 1.384 1_545 S
C96 H77 0.951 . S
C96 C95 1.384 1_565 S
C96 C97 1.384 1_565 S
C97 C96 1.384 1_545 S
C97 C98 1.377 1_554 S
C98 H78 0.953 . S
C98 C97 1.377 1_556 S
C98 C99 1.369 . S
C99 H79 0.945 . S
C99 C94 1.385 1_556 S
C99 C98 1.369 . S
C100 C92 1.457 1_556 S
C100 C101 1.378 . S
C100 C105 1.364 1_556 S
C101 H80 0.947 1_545 S
C101 C100 1.378 . S
C101 C102 1.385 1_545 S
C102 H81 0.960 . S
C102 C101 1.385 1_565 S
C102 C103 1.380 1_565 S
C103 C102 1.380 1_545 S
C103 C104 1.372 . S
C104 H82 0.950 . S
C104 C103 1.372 . S
C104 C105 1.379 1_556 S
C105 H83 0.948 . S
C105 C100 1.364 1_554 S
C105 C104 1.379 1_554 S
C106 C75 1.383 . S
C106 C93 1.479 . S
C106 C107 1.398 . S
C107 C72 1.382 1_545 S
C107 H84 0.951 1_545 S
C107 C106 1.398 . S
C108 C109 1.384 . S
C108 H121 0.947 . S
C108 C143 1.382 1_556 S
C109 C108 1.384 . S
C109 C110 1.378 . S
C110 C109 1.378 . S
C110 C111 1.378 . S
C110 H122 0.952 . S
C111 C110 1.378 . S
C111 H123 0.950 . S
C111 C142 1.383 . S
H112 C131 0.947 1_556 S
H113 C132 0.946 . S
H114 C134 0.953 . S
H115 C135 0.945 . S
H116 C137 0.952 . S
H117 C138 0.949 . S
H118 C140 0.950 . S
H119 C141 0.948 . S
H120 C143 0.951 . S
H121 C108 0.947 . S
H122 C110 0.952 . S
H123 C111 0.950 . S
N124 C127 1.382 . S
N124 C129 1.363 . S
N125 C127 1.371 . S
N125 C128 1.372 . S
N126 C128 1.361 . S
N126 C129 1.377 . S
C127 N124 1.382 . S
C127 N125 1.371 . S
C127 C130 1.480 . S
C128 N125 1.372 . S
C128 N126 1.361 . S
C128 C136 1.457 . S
C129 N124 1.363 . S
C129 N126 1.377 . S
C129 C142 1.479 1_554 S
C130 C127 1.480 . S
C130 C131 1.383 . S
C130 C135 1.385 . S
C131 H112 0.947 1_554 S
C131 C130 1.383 . S
C131 C132 1.388 1_554 S
C132 H113 0.946 . S
C132 C131 1.388 1_556 S
C132 C133 1.384 1_556 S
C133 C132 1.384 1_554 S
C133 C134 1.377 . S
C134 H114 0.953 . S
C134 C133 1.377 . S
C134 C135 1.369 . S
C135 H115 0.945 . S
C135 C130 1.385 . S
C135 C134 1.369 . S
C136 C128 1.457 . S
C136 C137 1.372 . S
C136 C141 1.364 . S
C137 H116 0.952 . S
C137 C136 1.372 . S
C137 C138 1.389 . S
C138 H117 0.949 . S
C138 C137 1.389 . S
C138 C139 1.387 . S
C139 C138 1.387 . S
C139 C140 1.372 . S
C140 H118 0.950 . S
C140 C139 1.372 . S
C140 C141 1.379 . S
C141 H119 0.948 . S
C141 C136 1.364 . S
C141 C140 1.379 . S
C142 C111 1.383 . S
C142 C129 1.479 1_556 S
C142 C143 1.398 1_556 S
C143 C108 1.382 1_554 S
C143 H120 0.951 . S
C143 C142 1.398 1_554 S
C144 C145 1.384 1_554 S
C144 H157 0.947 . S
C144 C179 1.382 . S
C145 C144 1.384 1_556 S
C145 C146 1.378 . S
C146 C145 1.378 . S
C146 C147 1.378 1_556 S
C146 H158 0.952 . S
C147 C146 1.378 1_554 S
C147 H159 0.950 . S
C147 C178 1.383 . S
H148 C167 0.947 . S
H149 C168 0.946 . S
H150 C170 0.953 . S
H151 C171 0.945 . S
H152 C173 0.952 . S
H153 C174 0.949 . S
H154 C176 0.950 . S
H155 C177 0.948 . S
H156 C179 0.951 . S
H157 C144 0.947 . S
H158 C146 0.952 . S
H159 C147 0.950 . S
N160 C163 1.382 . S
N160 C165 1.363 . S
N161 C163 1.371 . S
N161 C164 1.372 . S
N162 C164 1.361 . S
N162 C165 1.377 . S
C163 N160 1.382 . S
C163 N161 1.371 . S
C163 C166 1.480 . S
C164 N161 1.372 . S
C164 N162 1.361 . S
C164 C172 1.457 . S
C165 N160 1.363 . S
C165 N162 1.377 . S
C165 C178 1.479 . S
C166 C163 1.480 . S
C166 C167 1.383 . S
C166 C171 1.385 . S
C167 H148 0.947 . S
C167 C166 1.383 . S
C167 C168 1.388 . S
C168 H149 0.946 . S
C168 C167 1.388 . S
C168 C169 1.384 . S
C169 C168 1.384 . S
C169 C170 1.377 . S
C170 H150 0.953 . S
C170 C169 1.377 . S
C170 C171 1.369 . S
C171 H151 0.945 . S
C171 C166 1.385 . S
C171 C170 1.369 . S
C172 C164 1.457 . S
C172 C173 1.372 . S
C172 C177 1.364 . S
C173 H152 0.952 . S
C173 C172 1.372 . S
C173 C174 1.389 . S
C174 H153 0.949 . S
C174 C173 1.389 . S
C174 C175 1.387 . S
C175 C174 1.387 . S
C175 C176 1.372 . S
C176 H154 0.950 . S
C176 C175 1.372 . S
C176 C177 1.379 . S
C177 H155 0.948 . S
C177 C172 1.364 . S
C177 C176 1.379 . S
C178 C147 1.383 . S
C178 C165 1.479 . S
C178 C179 1.398 . S
C179 C144 1.382 . S
C179 H156 0.951 . S
C179 C178 1.398 . S
C180 C181 1.384 . S
C180 H193 0.947 . S
C180 C215 1.382 . S
C181 C180 1.384 . S
C181 C182 1.378 . S
C182 C181 1.378 . S
C182 C183 1.378 . S
C182 H194 0.952 . S
C183 C182 1.378 . S
C183 H195 0.950 . S
C183 C214 1.383 . S
H184 C203 0.947 . S
H185 C204 0.946 . S
H186 C206 0.953 . S
H187 C207 0.945 . S
H188 C209 0.952 . S
H189 C210 0.949 . S
H190 C212 0.950 . S
H191 C213 0.948 . S
H192 C215 0.951 . S
H193 C180 0.947 . S
H194 C182 0.952 . S
H195 C183 0.950 . S
N196 C199 1.382 . S
N196 C201 1.363 . S
N197 C199 1.371 . S
N197 C200 1.372 . S
N198 C200 1.361 . S
N198 C201 1.377 . S
C199 N196 1.382 . S
C199 N197 1.371 . S
C199 C202 1.480 . S
C200 N197 1.372 . S
C200 N198 1.361 . S
C200 C208 1.457 . S
C201 N196 1.363 . S
C201 N198 1.377 . S
C201 C214 1.479 . S
C202 C199 1.480 . S
C202 C203 1.383 . S
C202 C207 1.385 . S
C203 H184 0.947 . S
C203 C202 1.383 . S
C203 C204 1.388 . S
C204 H185 0.946 . S
C204 C203 1.388 . S
C204 C205 1.384 . S
C205 C204 1.384 . S
C205 C206 1.377 . S
C206 H186 0.953 . S
C206 C205 1.377 . S
C206 C207 1.369 . S
C207 H187 0.945 . S
C207 C202 1.385 . S
C207 C206 1.369 . S
C208 C200 1.457 . S
C208 C209 1.372 . S
C208 C213 1.364 . S
C209 H188 0.952 . S
C209 C208 1.372 . S
C209 C210 1.389 . S
C210 H189 0.949 . S
C210 C209 1.389 . S
C210 C211 1.387 . S
C211 C210 1.387 . S
C211 C212 1.372 . S
C212 H190 0.950 . S
C212 C211 1.372 . S
C212 C213 1.379 . S
C213 H191 0.948 . S
C213 C208 1.364 . S
C213 C212 1.379 . S
C214 C183 1.383 . S
C214 C201 1.479 . S
C214 C215 1.398 . S
C215 C180 1.382 . S
C215 H192 0.951 . S
C215 C214 1.398 . S
C216 C217 1.384 1_565 S
C216 H229 0.947 . S
C216 C251 1.381 1_565 S
C217 C216 1.384 1_545 S
C217 C218 1.378 . S
C218 C217 1.378 . S
C218 C219 1.378 . S
C218 H230 0.952 . S
C219 C218 1.378 . S
C219 H231 0.950 . S
C219 C250 1.383 . S
H220 C239 0.947 . S
H221 C240 0.950 . S
H222 C242 0.953 . S
H223 C243 0.945 . S
H224 C245 0.949 1_565 S
H225 C246 0.952 . S
H226 C248 0.950 . S
H227 C249 0.948 . S
H228 C251 0.950 1_565 S
H229 C216 0.947 . S
H230 C218 0.952 . S
H231 C219 0.950 . S
N232 C235 1.382 . S
N232 C237 1.363 . S
N233 C235 1.371 . S
N233 C236 1.372 . S
N234 C236 1.361 . S
N234 C237 1.377 . S
C235 N232 1.382 . S
C235 N233 1.371 . S
C235 C238 1.480 . S
C236 N233 1.372 . S
C236 N234 1.361 . S
C236 C244 1.457 . S
C237 N232 1.363 . S
C237 N234 1.377 . S
C237 C250 1.479 . S
C238 C235 1.480 . S
C238 C239 1.383 . S
C238 C243 1.385 . S
C239 H220 0.947 . S
C239 C238 1.383 . S
C239 C240 1.388 1_545 S
C240 H221 0.950 . S
C240 C239 1.388 1_565 S
C240 C241 1.381 1_565 S
C241 C240 1.381 1_545 S
C241 C242 1.377 . S
C242 H222 0.953 . S
C242 C241 1.377 . S
C242 C243 1.369 . S
C243 H223 0.945 . S
C243 C238 1.385 . S
C243 C242 1.369 . S
C244 C236 1.457 . S
C244 C245 1.376 . S
C244 C249 1.364 . S
C245 H224 0.949 1_545 S
C245 C244 1.376 . S
C245 C246 1.388 1_545 S
C246 H225 0.952 . S
C246 C245 1.388 1_565 S
C246 C247 1.386 1_565 S
C247 C246 1.386 1_545 S
C247 C248 1.372 . S
C248 H226 0.950 . S
C248 C247 1.372 . S
C248 C249 1.379 . S
C249 H227 0.948 . S
C249 C244 1.364 . S
C249 C248 1.379 . S
C250 C219 1.383 . S
C250 C237 1.479 . S
C250 C251 1.400 . S
C251 C216 1.381 1_545 S
C251 H228 0.950 1_545 S
C251 C250 1.400 . S
C252 C253 1.384 . S
C252 H265 0.947 . S
C252 C287 1.382 . S
C253 C252 1.384 . S
C253 C254 1.378 . S
C254 C253 1.378 . S
C254 C255 1.378 . S
C254 H266 0.952 . S
C255 C254 1.378 . S
C255 H267 0.950 . S
C255 C286 1.383 . S
H256 C275 0.947 . S
H257 C276 0.946 . S
H258 C278 0.953 . S
H259 C279 0.945 . S
H260 C281 0.952 . S
H261 C282 0.949 . S
H262 C284 0.950 . S
H263 C285 0.948 . S
H264 C287 0.951 . S
H265 C252 0.947 . S
H266 C254 0.952 . S
H267 C255 0.950 . S
N268 C271 1.382 . S
N268 C273 1.363 . S
N269 C271 1.371 . S
N269 C272 1.372 . S
N270 C272 1.361 . S
N270 C273 1.377 . S
C271 N268 1.382 . S
C271 N269 1.371 . S
C271 C274 1.480 . S
C272 N269 1.372 . S
C272 N270 1.361 . S
C272 C280 1.457 . S
C273 N268 1.363 . S
C273 N270 1.377 . S
C273 C286 1.479 . S
C274 C271 1.480 . S
C274 C275 1.383 . S
C274 C279 1.385 . S
C275 H256 0.947 . S
C275 C274 1.383 . S
C275 C276 1.388 . S
C276 H257 0.946 . S
C276 C275 1.388 . S
C276 C277 1.384 . S
C277 C276 1.384 . S
C277 C278 1.377 . S
C278 H258 0.953 . S
C278 C277 1.377 . S
C278 C279 1.369 . S
C279 H259 0.945 . S
C279 C274 1.385 . S
C279 C278 1.369 . S
C280 C272 1.457 . S
C280 C281 1.372 . S
C280 C285 1.364 . S
C281 H260 0.952 . S
C281 C280 1.372 . S
C281 C282 1.389 . S
C282 H261 0.949 . S
C282 C281 1.389 . S
C282 C283 1.387 . S
C283 C282 1.387 . S
C283 C284 1.372 . S
C284 H262 0.950 . S
C284 C283 1.372 . S
C284 C285 1.379 . S
C285 H263 0.948 . S
C285 C280 1.364 . S
C285 C284 1.379 . S
C286 C255 1.383 . S
C286 C273 1.479 . S
C286 C287 1.398 . S
C287 C252 1.382 . S
C287 H264 0.951 . S
C287 C286 1.398 . S
C288 O304 1.251 1_455 S
C288 O306 1.254 . S
N289 C290 1.333 . S
N289 C294 1.307 . S
N289 Zn295 2.020 1_655 S
C290 N289 1.333 . S
C290 C291 1.379 . S
C290 H308 0.952 . S
C291 C290 1.379 . S
C291 C292 1.390 . S
C291 H318 0.949 . S
C292 C291 1.390 . S
C292 C293 1.357 . S
C293 C292 1.357 . S
C293 C294 1.370 . S
C293 H319 0.950 . S
C294 N289 1.307 . S
C294 C293 1.370 . S
C294 H312 0.948 1_565 S
Zn295 N289 2.020 1_455 S
Zn295 O304 2.039 1_455 S
Zn295 O310 2.034 . S
Zn295 O314 2.025 1_565 S
Zn295 O316 2.021 1_465 S
C296 O315 1.246 . S
C296 O316 1.253 . S
N297 C298 1.307 . S
N297 C299 1.333 . S
N297 Zn303 2.020 . S
C298 N297 1.307 . S
C298 C302 1.370 1_556 S
C298 H309 0.948 1_545 S
C299 N297 1.333 . S
C299 C300 1.379 . S
C299 H307 0.952 . S
C300 C299 1.379 . S
C300 C301 1.390 1_556 S
C300 H320 0.949 . S
C301 C300 1.390 1_554 S
C301 C302 1.357 . S
C302 C298 1.370 1_554 S
C302 C301 1.357 . S
C302 H321 0.950 . S
Zn303 N297 2.020 . S
Zn303 O306 2.025 1_545 S
Zn303 O311 2.025 1_545 S
Zn303 O313 2.039 . S
Zn303 O315 2.034 1_455 S
O304 C288 1.251 1_655 S
O304 Zn295 2.039 1_655 S
C305 O310 1.246 . S
C305 O311 1.249 . S
O306 C288 1.254 . S
O306 Zn303 2.025 1_565 S
H307 C299 0.952 . S
H308 C290 0.952 . S
H309 C298 0.948 1_565 S
O310 Zn295 2.034 . S
O310 C305 1.246 . S
O311 Zn303 2.025 1_565 S
O311 C305 1.249 . S
H312 C294 0.948 1_545 S
O313 Zn303 2.039 . S
O313 C317 1.251 . S
O314 Zn295 2.025 1_545 S
O314 C317 1.254 . S
O315 C296 1.246 . S
O315 Zn303 2.034 1_655 S
O316 Zn295 2.021 1_645 S
O316 C296 1.253 . S
C317 O313 1.251 . S
C317 O314 1.254 . S
H318 C291 0.949 . S
H319 C293 0.950 . S
H320 C300 0.949 . S
H321 C302 0.950 . S
C322 O338 1.251 1_565 S
C322 O340 1.254 . S
N323 C324 1.333 . S
N323 C328 1.307 . S
N323 Zn329 2.020 . S
C324 N323 1.333 . S
C324 C325 1.379 . S
C324 H342 0.952 . S
C325 C324 1.379 . S
C325 C326 1.390 . S
C325 H352 0.949 . S
C326 C325 1.390 . S
C326 C327 1.357 . S
C327 C326 1.357 . S
C327 C328 1.370 . S
C327 H353 0.950 . S
C328 N323 1.307 . S
C328 C327 1.370 . S
C328 H346 0.948 . S
Zn329 N323 2.020 . S
Zn329 O338 2.039 . S
Zn329 O344 2.034 . S
Zn329 O348 2.025 . S
Zn329 O350 2.024 . S
C330 O349 1.246 1_545 S
C330 O350 1.249 . S
N331 C332 1.307 . S
N331 C333 1.333 . S
N331 Zn337 2.020 . S
C332 N331 1.307 . S
C332 C336 1.370 . S
C332 H343 0.948 . S
C333 N331 1.333 . S
C333 C334 1.379 . S
C333 H341 0.952 . S
C334 C333 1.379 . S
C334 C335 1.390 . S
C334 H354 0.949 . S
C335 C334 1.390 . S
C335 C336 1.357 . S
C336 C332 1.370 . S
C336 C335 1.357 . S
C336 H355 0.950 . S
Zn337 N331 2.020 . S
Zn337 O340 2.025 . S
Zn337 O345 2.024 . S
Zn337 O347 2.039 . S
Zn337 O349 2.034 . S
O338 C322 1.251 1_545 S
O338 Zn329 2.039 . S
C339 O344 1.246 1_565 S
C339 O345 1.249 . S
O340 C322 1.254 . S
O340 Zn337 2.025 . S
H341 C333 0.952 . S
H342 C324 0.952 . S
H343 C332 0.948 . S
O344 Zn329 2.034 . S
O344 C339 1.246 1_545 S
O345 Zn337 2.024 . S
O345 C339 1.249 . S
H346 C328 0.948 . S
O347 Zn337 2.039 . S
O347 C351 1.251 1_565 S
O348 Zn329 2.025 . S
O348 C351 1.254 . S
O349 C330 1.246 1_565 S
O349 Zn337 2.034 . S
O350 Zn329 2.024 . S
O350 C330 1.249 . S
C351 O347 1.251 1_545 S
C351 O348 1.254 . S
H352 C325 0.949 . S
H353 C327 0.950 . S
H354 C334 0.949 . S
H355 C336 0.950 . S
C356 O372 1.251 . S
C356 O374 1.254 . S
N357 C358 1.333 . S
N357 C362 1.307 . S
N357 Zn363 2.020 . S
C358 N357 1.333 . S
C358 C359 1.379 . S
C358 H376 0.952 . S
C359 C358 1.379 . S
C359 C360 1.390 . S
C359 H386 0.949 . S
C360 C359 1.390 . S
C360 C361 1.357 . S
C361 C360 1.357 . S
C361 C362 1.370 . S
C361 H387 0.950 . S
C362 N357 1.307 . S
C362 C361 1.370 . S
C362 H380 0.948 . S
Zn363 N357 2.020 . S
Zn363 O372 2.039 . S
Zn363 O378 2.034 . S
Zn363 O382 2.025 . S
Zn363 O384 2.024 . S
C364 O383 1.246 . S
C364 O384 1.249 . S
N365 C366 1.307 . S
N365 C367 1.333 . S
N365 Zn371 2.020 . S
C366 N365 1.307 . S
C366 C370 1.370 . S
C366 H377 0.948 . S
C367 N365 1.333 . S
C367 C368 1.379 . S
C367 H375 0.952 . S
C368 C367 1.379 . S
C368 C369 1.390 . S
C368 H388 0.949 . S
C369 C368 1.390 . S
C369 C370 1.357 . S
C370 C366 1.370 . S
C370 C369 1.357 . S
C370 H389 0.950 . S
Zn371 N365 2.020 . S
Zn371 O374 2.025 . S
Zn371 O379 2.024 . S
Zn371 O381 2.039 . S
Zn371 O383 2.034 . S
O372 C356 1.251 . S
O372 Zn363 2.039 . S
C373 O378 1.246 . S
C373 O379 1.249 . S
O374 C356 1.254 . S
O374 Zn371 2.025 . S
H375 C367 0.952 . S
H376 C358 0.952 . S
H377 C366 0.948 . S
O378 Zn363 2.034 . S
O378 C373 1.246 . S
O379 Zn371 2.024 . S
O379 C373 1.249 . S
H380 C362 0.948 . S
O381 Zn371 2.039 . S
O381 C385 1.251 . S
O382 Zn363 2.025 . S
O382 C385 1.254 . S
O383 C364 1.246 . S
O383 Zn371 2.034 . S
O384 Zn363 2.024 . S
O384 C364 1.249 . S
C385 O381 1.251 . S
C385 O382 1.254 . S
H386 C359 0.949 . S
H387 C361 0.950 . S
H388 C368 0.949 . S
H389 C370 0.950 . S
C390 O406 1.251 . S
C390 O408 1.254 . S
N391 C392 1.333 . S
N391 C396 1.307 . S
N391 Zn397 2.020 . S
C392 N391 1.333 . S
C392 C393 1.379 . S
C392 H410 0.952 . S
C393 C392 1.379 . S
C393 C394 1.390 . S
C393 H420 0.949 . S
C394 C393 1.390 . S
C394 C395 1.357 . S
C395 C394 1.357 . S
C395 C396 1.370 . S
C395 H421 0.950 . S
C396 N391 1.307 . S
C396 C395 1.370 . S
C396 H414 0.948 . S
Zn397 N391 2.020 . S
Zn397 O406 2.039 . S
Zn397 O412 2.034 1_455 S
Zn397 O416 2.025 1_455 S
Zn397 O418 2.024 . S
C398 O417 1.246 . S
C398 O418 1.249 . S
N399 C400 1.307 . S
N399 C401 1.333 . S
N399 Zn405 2.020 1_655 S
C400 N399 1.307 . S
C400 C404 1.370 . S
C400 H411 0.948 1_655 S
C401 N399 1.333 . S
C401 C402 1.379 . S
C401 H409 0.952 . S
C402 C401 1.379 . S
C402 C403 1.390 . S
C402 H422 0.949 . S
C403 C402 1.390 . S
C403 C404 1.357 . S
C404 C400 1.370 . S
C404 C403 1.357 . S
C404 H423 0.950 . S
Zn405 N399 2.020 1_455 S
Zn405 O408 2.025 . S
Zn405 O413 2.024 1_455 S
Zn405 O415 2.039 1_455 S
Zn405 O417 2.034 . S
O406 C390 1.251 . S
O406 Zn397 2.039 . S
C407 O412 1.246 . S
C407 O413 1.249 . S
O408 C390 1.254 . S
O408 Zn405 2.025 . S
H409 C401 0.952 . S
H410 C392 0.952 . S
H411 C400 0.948 1_455 S
O412 Zn397 2.034 1_655 S
O412 C407 1.246 . S
O413 Zn405 2.024 1_655 S
O413 C407 1.249 . S
H414 C396 0.948 . S
O415 Zn405 2.039 1_655 S
O415 C419 1.251 . S
O416 Zn397 2.025 1_655 S
O416 C419 1.254 . S
O417 C398 1.246 . S
O417 Zn405 2.034 . S
O418 Zn397 2.024 . S
O418 C398 1.249 . S
C419 O415 1.251 . S
C419 O416 1.254 . S
H420 C393 0.949 . S
H421 C395 0.950 . S
H422 C402 0.949 . S
H423 C404 0.950 . S
C424 C425 1.387 1_545 S
C424 H428 0.950 . S
C424 C433 1.390 . S
C425 C424 1.387 1_565 S
C425 C427 1.387 . S
H426 C433 0.950 . S
C427 C425 1.387 . S
C427 C429 1.390 . S
C427 H431 0.950 . S
H428 C424 0.950 . S
C429 C427 1.390 . S
C429 C430 1.387 . S
C429 H432 0.950 . S
C430 C429 1.387 . S
C430 C433 1.387 1_565 S
H431 C427 0.950 . S
H432 C429 0.950 . S
C433 C424 1.390 . S
C433 H426 0.950 . S
C433 C430 1.387 1_545 S
C434 C435 1.387 . S
C434 H438 0.950 . S
C434 C443 1.390 . S
C435 C434 1.387 . S
C435 C437 1.387 . S
H436 C443 0.950 . S
C437 C435 1.387 . S
C437 C439 1.390 . S
C437 H441 0.950 . S
H438 C434 0.950 . S
C439 C437 1.390 . S
C439 C440 1.387 . S
C439 H442 0.950 . S
C440 C439 1.387 . S
C440 C443 1.387 . S
H441 C437 0.950 . S
H442 C439 0.950 . S
C443 C434 1.390 . S
C443 H436 0.950 . S
C443 C440 1.387 . S
C444 C445 1.387 . S
C444 H448 0.950 . S
C444 C453 1.390 . S
C445 C444 1.387 . S
C445 C447 1.387 . S
H446 C453 0.950 . S
C447 C445 1.387 . S
C447 C449 1.390 . S
C447 H451 0.950 . S
H448 C444 0.950 . S
C449 C447 1.390 . S
C449 C450 1.387 . S
C449 H452 0.950 . S
C450 C449 1.387 . S
C450 C453 1.387 . S
H451 C447 0.950 . S
H452 C449 0.950 . S
C453 C444 1.390 . S
C453 H446 0.950 . S
C453 C450 1.387 . S
C454 C455 1.387 . S
C454 H458 0.950 . S
C454 C463 1.390 . S
C455 C454 1.387 . S
C455 C457 1.387 . S
H456 C463 0.950 . S
C457 C455 1.387 . S
C457 C459 1.390 . S
C457 H461 0.950 . S
H458 C454 0.950 . S
C459 C457 1.390 . S
C459 C460 1.387 . S
C459 H462 0.950 . S
C460 C459 1.387 . S
C460 C463 1.387 . S
H461 C457 0.950 . S
H462 C459 0.950 . S
C463 C454 1.390 . S
C463 H456 0.950 . S
C463 C460 1.387 . S
C464 C465 1.387 1_565 S
C464 H468 0.950 . S
C464 C473 1.390 . S
C465 C464 1.387 1_545 S
C465 C467 1.387 . S
H466 C473 0.950 . S
C467 C465 1.387 . S
C467 C469 1.390 . S
C467 H471 0.950 . S
H468 C464 0.950 . S
C469 C467 1.390 . S
C469 C470 1.387 . S
C469 H472 0.950 . S
C470 C469 1.387 . S
C470 C473 1.387 1_545 S
H471 C467 0.950 . S
H472 C469 0.950 . S
C473 C464 1.390 . S
C473 H466 0.950 . S
C473 C470 1.387 1_565 S
C474 C475 1.387 . S
C474 H478 0.950 . S
C474 C483 1.390 . S
C475 C474 1.387 . S
C475 C477 1.387 . S
H476 C483 0.950 . S
C477 C475 1.387 . S
C477 C479 1.390 . S
C477 H481 0.950 1_556 S
H478 C474 0.950 . S
C479 C477 1.390 . S
C479 C480 1.387 . S
C479 H482 0.950 . S
C480 C479 1.387 . S
C480 C483 1.387 . S
H481 C477 0.950 1_554 S
H482 C479 0.950 . S
C483 C474 1.390 . S
C483 H476 0.950 . S
C483 C480 1.387 . S
C484 C485 1.387 1_556 S
C484 H488 0.950 . S
C484 C493 1.390 . S
C485 C484 1.387 1_554 S
C485 C487 1.387 . S
H486 C493 0.950 . S
C487 C485 1.387 . S
C487 C489 1.390 1_554 S
C487 H491 0.950 . S
H488 C484 0.950 . S
C489 C487 1.390 1_556 S
C489 C490 1.387 . S
C489 H492 0.950 . S
C490 C489 1.387 . S
C490 C493 1.387 . S
H491 C487 0.950 . S
H492 C489 0.950 . S
C493 C484 1.390 . S
C493 H486 0.950 . S
C493 C490 1.387 . S
C494 C495 1.387 . S
C494 H498 0.950 . S
C494 C503 1.390 . S
C495 C494 1.387 . S
C495 C497 1.387 . S
H496 C503 0.950 . S
C497 C495 1.387 . S
C497 C499 1.390 . S
C497 H501 0.950 . S
H498 C494 0.950 . S
C499 C497 1.390 . S
C499 C500 1.387 . S
C499 H502 0.950 . S
C500 C499 1.387 . S
C500 C503 1.387 . S
H501 C497 0.950 . S
H502 C499 0.950 . S
C503 C494 1.390 . S
C503 H496 0.950 . S
C503 C500 1.387 . S
C504 C505 1.387 . S
C504 H508 0.950 . S
C504 C513 1.390 . S
C505 C504 1.387 . S
C505 C507 1.387 . S
H506 C513 0.950 . S
C507 C505 1.387 . S
C507 C509 1.390 . S
C507 H511 0.950 . S
H508 C504 0.950 . S
C509 C507 1.390 . S
C509 C510 1.387 . S
C509 H512 0.950 . S
C510 C509 1.387 . S
C510 C513 1.387 . S
H511 C507 0.950 . S
H512 C509 0.950 . S
C513 C504 1.390 . S
C513 H506 0.950 . S
C513 C510 1.387 . S
C514 C515 1.383 1_545 S
C514 H518 0.950 . S
C514 C523 1.390 . S
C515 C514 1.383 1_565 S
C515 C517 1.394 . S
H516 C523 0.950 . S
C517 C515 1.394 . S
C517 C519 1.390 . S
C517 H521 0.950 . S
H518 C514 0.950 . S
C519 C517 1.390 . S
C519 C520 1.387 . S
C519 H522 0.950 . S
C520 C519 1.387 . S
C520 C523 1.387 1_565 S
H521 C517 0.950 . S
H522 C519 0.950 . S
C523 C514 1.390 . S
C523 H516 0.950 . S
C523 C520 1.387 1_545 S
C524 C525 1.387 . S
C524 H528 0.950 . S
C524 C533 1.390 . S
C525 C524 1.387 . S
C525 C527 1.387 . S
H526 C533 0.950 . S
C527 C525 1.387 . S
C527 C529 1.390 . S
C527 H531 0.950 . S
H528 C524 0.950 . S
C529 C527 1.390 . S
C529 C530 1.387 . S
C529 H532 0.950 . S
C530 C529 1.387 . S
C530 C533 1.387 . S
H531 C527 0.950 . S
H532 C529 0.950 . S
C533 C524 1.390 . S
C533 H526 0.950 . S
C533 C530 1.387 . S
C534 C535 1.387 . S
C534 H538 0.950 . S
C534 C543 1.390 . S
C535 C534 1.387 . S
C535 C537 1.387 . S
H536 C543 0.950 . S
C537 C535 1.387 . S
C537 C539 1.390 . S
C537 H541 0.950 . S
H538 C534 0.950 . S
C539 C537 1.390 . S
C539 C540 1.387 . S
C539 H542 0.950 . S
C540 C539 1.387 . S
C540 C543 1.387 . S
H541 C537 0.950 . S
H542 C539 0.950 . S
C543 C534 1.390 . S
C543 H536 0.950 . S
C543 C540 1.387 . S
C544 C545 1.387 . S
C544 H548 0.950 . S
C544 C553 1.390 . S
C545 C544 1.387 . S
C545 C547 1.387 . S
H546 C553 0.950 . S
C547 C545 1.387 . S
C547 C549 1.390 . S
C547 H551 0.950 . S
H548 C544 0.950 . S
C549 C547 1.390 . S
C549 C550 1.387 . S
C549 H552 0.950 . S
C550 C549 1.387 . S
C550 C553 1.387 . S
H551 C547 0.950 . S
H552 C549 0.950 . S
C553 C544 1.390 . S
C553 H546 0.950 . S
C553 C550 1.387 . S
C554 C555 1.377 1_565 S
C554 H558 0.950 . S
C554 C563 1.390 . S
C555 C554 1.377 1_545 S
C555 C557 1.404 . S
H556 C563 0.950 . S
C557 C555 1.404 . S
C557 C559 1.390 . S
C557 H561 0.950 . S
H558 C554 0.950 . S
C559 C557 1.390 . S
C559 C560 1.387 . S
C559 H562 0.950 . S
C560 C559 1.387 . S
C560 C563 1.387 1_545 S
H561 C557 0.950 . S
H562 C559 0.950 . S
C563 C554 1.390 . S
C563 H556 0.950 . S
C563 C560 1.387 1_565 S
C564 C565 1.387 . S
C564 H568 0.950 . S
C564 C573 1.390 . S
C565 C564 1.387 . S
C565 C567 1.387 . S
H566 C573 0.950 . S
C567 C565 1.387 . S
C567 C569 1.390 . S
C567 H571 0.950 . S
H568 C564 0.950 . S
C569 C567 1.390 . S
C569 C570 1.387 . S
C569 H572 0.950 . S
C570 C569 1.387 . S
C570 C573 1.387 . S
H571 C567 0.950 . S
H572 C569 0.950 . S
C573 C564 1.390 . S
C573 H566 0.950 . S
C573 C570 1.387 . S
C574 C575 1.387 . S
C574 H578 0.950 1_556 S
C574 C583 1.390 . S
C575 C574 1.387 . S
C575 C577 1.387 . S
H576 C583 0.950 . S
C577 C575 1.387 . S
C577 C579 1.390 . S
C577 H581 0.950 . S
H578 C574 0.950 1_554 S
C579 C577 1.390 . S
C579 C580 1.387 . S
C579 H582 0.950 . S
C580 C579 1.387 . S
C580 C583 1.387 . S
H581 C577 0.950 . S
H582 C579 0.950 . S
C583 C574 1.390 . S
C583 H576 0.950 . S
C583 C580 1.387 . S
C584 C585 1.387 . S
C584 H588 0.950 . S
C584 C593 1.390 . S
C585 C584 1.387 . S
C585 C587 1.387 . S
H586 C593 0.950 . S
C587 C585 1.387 . S
C587 C589 1.390 . S
C587 H591 0.950 1_554 S
H588 C584 0.950 . S
C589 C587 1.390 . S
C589 C590 1.387 . S
C589 H592 0.950 1_554 S
C590 C589 1.387 . S
C590 C593 1.387 . S
H591 C587 0.950 1_556 S
H592 C589 0.950 1_556 S
C593 C584 1.390 . S
C593 H586 0.950 . S
C593 C590 1.387 . S
C594 C595 1.387 . S
C594 H598 0.950 . S
C594 C603 1.390 . S
C595 C594 1.387 . S
C595 C597 1.387 1_545 S
H596 C603 0.950 . S
C597 C595 1.387 1_565 S
C597 C599 1.390 . S
C597 H601 0.950 . S
H598 C594 0.950 . S
C599 C597 1.390 . S
C599 C600 1.387 1_565 S
C599 H602 0.950 . S
C600 C599 1.387 1_545 S
C600 C603 1.387 . S
H601 C597 0.950 . S
H602 C599 0.950 . S
C603 C594 1.390 . S
C603 H596 0.950 . S
C603 C600 1.387 . S
C604 C605 1.387 . S
C604 H608 0.950 1_556 S
C604 C613 1.390 . S
C605 C604 1.387 . S
C605 C607 1.387 . S
H606 C613 0.950 . S
C607 C605 1.387 . S
C607 C609 1.390 . S
C607 H611 0.950 . S
H608 C604 0.950 1_554 S
C609 C607 1.390 . S
C609 C610 1.387 . S
C609 H612 0.950 . S
C610 C609 1.387 . S
C610 C613 1.387 . S
H611 C607 0.950 . S
H612 C609 0.950 . S
C613 C604 1.390 . S
C613 H606 0.950 . S
C613 C610 1.387 . S
C614 C615 1.387 . S
C614 H618 0.950 . S
C614 C623 1.390 . S
C615 C614 1.387 . S
C615 C617 1.387 . S
H616 C623 0.950 . S
C617 C615 1.387 . S
C617 C619 1.390 . S
C617 H621 0.950 1_556 S
H618 C614 0.950 . S
C619 C617 1.390 . S
C619 C620 1.387 . S
C619 H622 0.950 . S
C620 C619 1.387 . S
C620 C623 1.387 . S
H621 C617 0.950 1_554 S
H622 C619 0.950 . S
C623 C614 1.390 . S
C623 H616 0.950 . S
C623 C620 1.387 . S
C624 C625 1.387 . S
C624 H628 0.950 . S
C624 C633 1.390 . S
C625 C624 1.387 . S
C625 C627 1.387 . S
H626 C633 0.950 . S
C627 C625 1.387 . S
C627 C629 1.390 . S
C627 H631 0.950 . S
H628 C624 0.950 . S
C629 C627 1.390 . S
C629 C630 1.387 . S
C629 H632 0.950 . S
C630 C629 1.387 . S
C630 C633 1.387 . S
H631 C627 0.950 . S
H632 C629 0.950 . S
C633 C624 1.390 . S
C633 H626 0.950 . S
C633 C630 1.387 . S
C634 C635 1.418 . S
C634 H638 0.950 . S
C634 C643 1.390 . S
C635 C634 1.418 . S
C635 C637 1.355 1_565 S
H636 C643 0.950 . S
C637 C635 1.355 1_545 S
C637 C639 1.390 . S
C637 H641 0.950 . S
H638 C634 0.950 . S
C639 C637 1.390 . S
C639 C640 1.387 1_545 S
C639 H642 0.950 . S
C640 C639 1.387 1_565 S
C640 C643 1.387 . S
H641 C637 0.950 . S
H642 C639 0.950 . S
C643 C634 1.390 . S
C643 H636 0.950 . S
C643 C640 1.387 . S
C644 C645 1.387 . S
C644 H648 0.950 . S
C644 C653 1.390 . S
C645 C644 1.387 . S
C645 C647 1.387 . S
H646 C653 0.950 . S
C647 C645 1.387 . S
C647 C649 1.390 . S
C647 H651 0.950 . S
H648 C644 0.950 . S
C649 C647 1.390 . S
C649 C650 1.387 . S
C649 H652 0.950 . S
C650 C649 1.387 . S
C650 C653 1.387 . S
H651 C647 0.950 . S
H652 C649 0.950 . S
C653 C644 1.390 . S
C653 H646 0.950 . S
C653 C650 1.387 . S
C654 C655 1.387 . S
C654 H658 0.950 . S
C654 C663 1.390 . S
C655 C654 1.387 . S
C655 C657 1.387 . S
H656 C663 0.950 . S
C657 C655 1.387 . S
C657 C659 1.390 . S
C657 H661 0.950 . S
H658 C654 0.950 . S
C659 C657 1.390 . S
C659 C660 1.387 . S
C659 H662 0.950 . S
C660 C659 1.387 . S
C660 C663 1.387 . S
H661 C657 0.950 . S
H662 C659 0.950 . S
C663 C654 1.390 . S
C663 H656 0.950 . S
C663 C660 1.387 . S
C425 C241 1.921 1_565 S
C430 C305 1.969 . S
C440 C326 1.824 . S
C435 C277 1.750 . S
C450 C360 1.770 . S
C445 C169 1.673 . S
C460 C394 1.771 . S
C455 C205 1.731 . S
C470 C296 1.971 . S
C465 C97 1.909 1_556 S
C475 C133 1.816 1_556 S
C480 C335 1.827 . S
C485 C25 1.704 . S
C490 C369 1.766 . S
C495 C61 1.663 . S
C500 C403 1.771 . S
C510 C317 1.305 . S
C505 C211 1.168 . S
C520 C322 0.850 . S
C515 C247 0.839 1_565 S
C530 C356 1.020 . S
C525 C253 0.974 . S
C535 C175 0.648 . S
C540 C390 0.568 . S
C545 C67 1.040 . S
C550 C288 1.308 1_655 S
C560 C351 0.851 . S
C555 C103 0.840 . S
C570 C385 1.020 . S
C565 C109 1.013 . S
C575 C31 0.593 . S
C580 C419 0.563 . S
C585 C181 1.798 . S
C590 C301 1.897 . S
C595 C217 2.102 1_556 S
C600 C330 2.235 . S
C610 C364 1.984 . S
C605 C283 1.783 1_556 S
C620 C398 2.073 . S
C615 C145 1.887 . S
C625 C37 1.755 . S
C630 C292 1.906 . S
C640 C339 2.233 . S
C635 C73 2.104 1_565 S
C650 C373 1.984 . S
C645 C139 1.826 . S
C655 C1 1.933 . S
C660 C407 2.073 . S
