# Generated by pormake.
# Topology ctn, (3,4)-cn, num edge types: 1
# Building blocks:
#     Node 0, Type 0, BuildingBlock: CUQRIR_clean_linker_1, # of connection points: 3
#     Node 1, Type 0, BuildingBlock: CUQRIR_clean_linker_1, # of connection points: 3
#     Node 2, Type 0, BuildingBlock: CUQRIR_clean_linker_1, # of connection points: 3
#     Node 3, Type 0, BuildingBlock: CUQRIR_clean_linker_1, # of connection points: 3
#     Node 4, Type 0, BuildingBlock: CUQRIR_clean_linker_1, # of connection points: 3
#     Node 5, Type 0, BuildingBlock: CUQRIR_clean_linker_1, # of connection points: 3
#     Node 6, Type 0, BuildingBlock: CUQRIR_clean_linker_1, # of connection points: 3
#     Node 7, Type 0, BuildingBlock: CUQRIR_clean_linker_1, # of connection points: 3
#     Node 8, Type 0, BuildingBlock: CUQRIR_clean_linker_1, # of connection points: 3
#     Node 9, Type 0, BuildingBlock: CUQRIR_clean_linker_1, # of connection points: 3
#     Node 10, Type 0, BuildingBlock: CUQRIR_clean_linker_1, # of connection points: 3
#     Node 11, Type 0, BuildingBlock: CUQRIR_clean_linker_1, # of connection points: 3
#     Node 12, Type 0, BuildingBlock: CUQRIR_clean_linker_1, # of connection points: 3
#     Node 13, Type 0, BuildingBlock: CUQRIR_clean_linker_1, # of connection points: 3
#     Node 14, Type 0, BuildingBlock: CUQRIR_clean_linker_1, # of connection points: 3
#     Node 15, Type 0, BuildingBlock: CUQRIR_clean_linker_1, # of connection points: 3
#     Node 16, Type 1, BuildingBlock: NAHDIM_clean_sbu_0, # of connection points: 4
#     Node 17, Type 1, BuildingBlock: NAHDIM_clean_sbu_0, # of connection points: 4
#     Node 18, Type 1, BuildingBlock: NAHDIM_clean_sbu_0, # of connection points: 4
#     Node 19, Type 1, BuildingBlock: NAHDIM_clean_sbu_0, # of connection points: 4
#     Node 20, Type 1, BuildingBlock: NAHDIM_clean_sbu_0, # of connection points: 4
#     Node 21, Type 1, BuildingBlock: NAHDIM_clean_sbu_0, # of connection points: 4
#     Node 22, Type 1, BuildingBlock: NAHDIM_clean_sbu_0, # of connection points: 4
#     Node 23, Type 1, BuildingBlock: NAHDIM_clean_sbu_0, # of connection points: 4
#     Node 24, Type 1, BuildingBlock: NAHDIM_clean_sbu_0, # of connection points: 4
#     Node 25, Type 1, BuildingBlock: NAHDIM_clean_sbu_0, # of connection points: 4
#     Node 26, Type 1, BuildingBlock: NAHDIM_clean_sbu_0, # of connection points: 4
#     Node 27, Type 1, BuildingBlock: NAHDIM_clean_sbu_0, # of connection points: 4
#     Edge 28, Type (0, 1), BuildingBlock: AJUNOK_clean_linker_0, # of connection points: 2
#     Edge 29, Type (0, 1), BuildingBlock: AJUNOK_clean_linker_0, # of connection points: 2
#     Edge 30, Type (0, 1), BuildingBlock: AJUNOK_clean_linker_0, # of connection points: 2
#     Edge 31, Type (0, 1), BuildingBlock: AJUNOK_clean_linker_0, # of connection points: 2
#     Edge 32, Type (0, 1), BuildingBlock: AJUNOK_clean_linker_0, # of connection points: 2
#     Edge 33, Type (0, 1), BuildingBlock: AJUNOK_clean_linker_0, # of connection points: 2
#     Edge 34, Type (0, 1), BuildingBlock: AJUNOK_clean_linker_0, # of connection points: 2
#     Edge 35, Type (0, 1), BuildingBlock: AJUNOK_clean_linker_0, # of connection points: 2
#     Edge 36, Type (0, 1), BuildingBlock: AJUNOK_clean_linker_0, # of connection points: 2
#     Edge 37, Type (0, 1), BuildingBlock: AJUNOK_clean_linker_0, # of connection points: 2
#     Edge 38, Type (0, 1), BuildingBlock: AJUNOK_clean_linker_0, # of connection points: 2
#     Edge 39, Type (0, 1), BuildingBlock: AJUNOK_clean_linker_0, # of connection points: 2
#     Edge 40, Type (0, 1), BuildingBlock: AJUNOK_clean_linker_0, # of connection points: 2
#     Edge 41, Type (0, 1), BuildingBlock: AJUNOK_clean_linker_0, # of connection points: 2
#     Edge 42, Type (0, 1), BuildingBlock: AJUNOK_clean_linker_0, # of connection points: 2
#     Edge 43, Type (0, 1), BuildingBlock: AJUNOK_clean_linker_0, # of connection points: 2
#     Edge 44, Type (0, 1), BuildingBlock: AJUNOK_clean_linker_0, # of connection points: 2
#     Edge 45, Type (0, 1), BuildingBlock: AJUNOK_clean_linker_0, # of connection points: 2
#     Edge 46, Type (0, 1), BuildingBlock: AJUNOK_clean_linker_0, # of connection points: 2
#     Edge 47, Type (0, 1), BuildingBlock: AJUNOK_clean_linker_0, # of connection points: 2
#     Edge 48, Type (0, 1), BuildingBlock: AJUNOK_clean_linker_0, # of connection points: 2
#     Edge 49, Type (0, 1), BuildingBlock: AJUNOK_clean_linker_0, # of connection points: 2
#     Edge 50, Type (0, 1), BuildingBlock: AJUNOK_clean_linker_0, # of connection points: 2
#     Edge 51, Type (0, 1), BuildingBlock: AJUNOK_clean_linker_0, # of connection points: 2
#     Edge 52, Type (0, 1), BuildingBlock: AJUNOK_clean_linker_0, # of connection points: 2
#     Edge 53, Type (0, 1), BuildingBlock: AJUNOK_clean_linker_0, # of connection points: 2
#     Edge 54, Type (0, 1), BuildingBlock: AJUNOK_clean_linker_0, # of connection points: 2
#     Edge 55, Type (0, 1), BuildingBlock: AJUNOK_clean_linker_0, # of connection points: 2
#     Edge 56, Type (0, 1), BuildingBlock: AJUNOK_clean_linker_0, # of connection points: 2
#     Edge 57, Type (0, 1), BuildingBlock: AJUNOK_clean_linker_0, # of connection points: 2
#     Edge 58, Type (0, 1), BuildingBlock: AJUNOK_clean_linker_0, # of connection points: 2
#     Edge 59, Type (0, 1), BuildingBlock: AJUNOK_clean_linker_0, # of connection points: 2
#     Edge 60, Type (0, 1), BuildingBlock: AJUNOK_clean_linker_0, # of connection points: 2
#     Edge 61, Type (0, 1), BuildingBlock: AJUNOK_clean_linker_0, # of connection points: 2
#     Edge 62, Type (0, 1), BuildingBlock: AJUNOK_clean_linker_0, # of connection points: 2
#     Edge 63, Type (0, 1), BuildingBlock: AJUNOK_clean_linker_0, # of connection points: 2
#     Edge 64, Type (0, 1), BuildingBlock: AJUNOK_clean_linker_0, # of connection points: 2
#     Edge 65, Type (0, 1), BuildingBlock: AJUNOK_clean_linker_0, # of connection points: 2
#     Edge 66, Type (0, 1), BuildingBlock: AJUNOK_clean_linker_0, # of connection points: 2
#     Edge 67, Type (0, 1), BuildingBlock: AJUNOK_clean_linker_0, # of connection points: 2
#     Edge 68, Type (0, 1), BuildingBlock: AJUNOK_clean_linker_0, # of connection points: 2
#     Edge 69, Type (0, 1), BuildingBlock: AJUNOK_clean_linker_0, # of connection points: 2
#     Edge 70, Type (0, 1), BuildingBlock: AJUNOK_clean_linker_0, # of connection points: 2
#     Edge 71, Type (0, 1), BuildingBlock: AJUNOK_clean_linker_0, # of connection points: 2
#     Edge 72, Type (0, 1), BuildingBlock: AJUNOK_clean_linker_0, # of connection points: 2
#     Edge 73, Type (0, 1), BuildingBlock: AJUNOK_clean_linker_0, # of connection points: 2
#     Edge 74, Type (0, 1), BuildingBlock: AJUNOK_clean_linker_0, # of connection points: 2
#     Edge 75, Type (0, 1), BuildingBlock: AJUNOK_clean_linker_0, # of connection points: 2
# Relax obj value: 0.082
# Max RMSD: 0.206
# Mean RMSD: 0.127
data_MOF--net-ctn--node1-NAHDIM_clean_sbu_0--node2-CUQRIR_clean_linker_1--edge1-AJUNOK_clean_linker_0
_symmetry_space_group_name_H-M    P1
_symmetry_Int_Tables_number       1
_symmetry_cell_setting            triclinic
loop_
_symmetry_equiv_pos_as_xyz
'x, y, z'
_cell_length_a     36.54477
_cell_length_b     33.799968
_cell_length_c     34.478487
_cell_angle_alpha  98.343819
_cell_angle_beta   88.843903
_cell_angle_gamma 95.288978
loop_
_atom_site_label
_atom_site_type_symbol
_atom_site_fract_x
_atom_site_fract_y
_atom_site_fract_z
_atom_type_partial_charge
C0 C 0.04654 1.0144 0.09844 0.0
N1 N 0.06125 0.02357 0.06414 0.0
N2 N 0.01562 0.0329 0.10715 0.0
C3 C 0.06217 0.98726 0.12354 0.0
C4 C 0.01167 0.05339 0.07692 0.0
N5 N 0.03932 0.04765 0.05056 0.0
C6 C 0.98274 0.08196 0.07491 0.0
H7 H 0.07602 0.96319 0.1052 0.0
H8 H 0.04027 0.97357 0.14148 0.0
H9 H 0.08278 1.00514 0.1437 0.0
H10 H 0.99374 0.11246 0.08832 0.0
H11 H 0.95757 0.07316 0.09124 0.0
H12 H 0.97558 0.08321 0.04401 0.0
C13 C 0.29088 0.72295 0.22299 0.0
N14 N 0.30392 0.70919 0.25439 0.0
N15 N 0.30739 0.75966 0.21938 0.0
C16 C 0.26111 0.70096 0.19641 0.0
C17 C 0.33091 0.76795 0.24999 0.0
N18 N 0.32862 0.73724 0.27158 0.0
C19 C 0.35752 0.80479 0.25739 0.0
H20 H 0.27376 0.67962 0.17367 0.0
H21 H 0.24668 0.72206 0.18166 0.0
H22 H 0.24077 0.68346 0.21302 0.0
H23 H 0.34611 0.82658 0.28065 0.0
H24 H 0.36215 0.81923 0.23058 0.0
H25 H 0.38414 0.79707 0.26783 0.0
C26 C 0.9713 0.51552 0.09584 0.0
N27 N 0.99231 0.48417 0.09359 0.0
N28 N 0.9455 0.50872 0.06749 0.0
C29 C 0.97401 0.55123 0.12756 0.0
C30 C 0.95126 0.47215 0.04804 0.0
N31 N 0.97941 0.45692 0.06409 0.0
C32 C 0.92993 0.45202 0.01256 0.0
H33 H 0.98058 0.54205 0.15607 0.0
H34 H 0.94813 0.5662 0.13053 0.0
H35 H 0.99657 0.57317 0.12005 0.0
H36 H 0.91924 0.47467 0.99652 0.0
H37 H 0.90615 0.43286 0.02211 0.0
H38 H 0.94729 0.43277 0.99251 0.0
C39 C 0.68561 0.7614 0.23118 0.0
N40 N 0.71695 0.78169 0.22034 0.0
N41 N 0.67196 0.78076 0.26473 0.0
C42 C 0.66978 0.72141 0.2105 0.0
C43 C 0.69616 0.81334 0.27405 0.0
N44 N 0.72377 0.81369 0.24733 0.0
C45 C 0.69116 0.84631 0.30759 0.0
H46 H 0.65302 0.72632 0.18545 0.0
H47 H 0.65202 0.70494 0.23045 0.0
H48 H 0.6921 0.70283 0.19872 0.0
H49 H 0.70435 0.8391 0.33409 0.0
H50 H 0.66156 0.84887 0.31421 0.0
H51 H 0.70402 0.87563 0.30097 0.0
C52 C 0.02265 0.99515 0.50307 0.0
N53 N 0.05479 1.00119 0.52283 0.0
N54 N 0.02395 0.01661 0.4729 0.0
C55 C 0.99098 0.96576 0.51132 0.0
C56 C 0.05811 0.03577 0.4746 0.0
N57 N 0.07719 0.02613 0.50473 0.0
C58 C 0.07304 0.06287 0.44593 0.0
H59 H 0.99711 0.93508 0.49826 0.0
H60 H 0.96516 0.9727 0.49843 0.0
H61 H 0.9872 0.96608 0.54337 0.0
H62 H 0.05057 0.07637 0.43286 0.0
H63 H 0.08758 0.04495 0.42191 0.0
H64 H 0.0928 0.08716 0.46043 0.0
C65 C 0.18123 0.74436 0.82021 0.0
N66 N 0.21159 0.73259 0.83544 0.0
N67 N 0.17538 0.72509 0.78345 0.0
C68 C 0.15902 0.77708 0.83993 0.0
C69 C 0.20336 0.70151 0.77649 0.0
N70 N 0.22559 0.70623 0.80806 0.0
C71 C 0.20848 0.67335 0.73925 0.0
H72 H 0.14053 0.76478 0.86205 0.0
H73 H 0.14204 0.78884 0.81864 0.0
H74 H 0.17736 0.80221 0.85536 0.0
H75 H 0.22957 0.68762 0.72082 0.0
H76 H 0.18251 0.66658 0.72247 0.0
H77 H 0.21838 0.64498 0.74582 0.0
C78 C 0.96888 0.52819 0.46327 0.0
N79 N 0.99265 0.56152 0.46406 0.0
N80 N 0.94225 0.53436 0.49064 0.0
C81 C 0.9701 0.49047 0.43431 0.0
C82 C 0.95042 0.57248 0.50809 0.0
N83 N 0.98067 0.58933 0.49142 0.0
C84 C 0.93063 0.59194 0.54357 0.0
H85 H 0.94198 0.47577 0.42818 0.0
H86 H 0.98613 0.46921 0.447 0.0
H87 H 0.98342 0.49692 0.40643 0.0
H88 H 0.91684 0.56905 0.5603 0.0
H89 H 0.90935 0.60969 0.53392 0.0
H90 H 0.94993 0.61254 0.56316 0.0
C91 C 0.78868 0.81578 0.83214 0.0
N92 N 0.8158 0.79134 0.82203 0.0
N93 N 0.7856 0.8405 0.80516 0.0
C94 C 0.7641 0.81448 0.86757 0.0
C95 C 0.8117 0.83043 0.77816 0.0
N96 N 0.82993 0.80029 0.78808 0.0
C97 C 0.82037 0.85097 0.7427 0.0
H98 H 0.7572 0.78303 0.87284 0.0
H99 H 0.73834 0.82856 0.8641 0.0
H100 H 0.77883 0.8311 0.89365 0.0
H101 H 0.80755 0.87968 0.74466 0.0
H102 H 0.80996 0.83075 0.71621 0.0
H103 H 0.85053 0.85688 0.73914 0.0
C104 C 0.28784 0.3142 0.33252 0.0
N105 N 0.3166 0.29184 0.32347 0.0
N106 N 0.28563 0.3406 0.30693 0.0
C107 C 0.26094 0.30922 0.36547 0.0
C108 C 0.31408 0.33371 0.28192 0.0
N109 N 0.33282 0.30388 0.2917 0.0
C110 C 0.3244 0.35691 0.24858 0.0
H111 H 0.25631 0.27724 0.36979 0.0
H112 H 0.23423 0.32036 0.3597 0.0
H113 H 0.27241 0.32672 0.39295 0.0
H114 H 0.35453 0.36464 0.2478 0.0
H115 H 0.31044 0.38494 0.25095 0.0
H116 H 0.31658 0.33777 0.22053 0.0
C117 C 0.492 0.02843 0.5791 0.0
N118 N 0.51021 0.99537 0.57947 0.0
N119 N 0.46431 0.02084 0.55282 0.0
C120 C 0.50005 0.06747 0.60578 0.0
C121 C 0.46632 0.98197 0.53722 0.0
N122 N 0.49384 0.96623 0.55389 0.0
C123 C 0.44351 0.96053 0.50332 0.0
H124 H 0.47517 0.08407 0.61071 0.0
H125 H 0.52156 0.08631 0.59195 0.0
H126 H 0.51053 0.06225 0.63442 0.0
H127 H 0.45982 0.93951 0.48391 0.0
H128 H 0.43303 0.98219 0.48592 0.0
H129 H 0.41967 0.94283 0.5147 0.0
C130 C 0.17192 0.26815 0.72187 0.0
N131 N 0.20371 0.28596 0.7091 0.0
N132 N 0.16381 0.28523 0.75861 0.0
C133 C 0.14986 0.23281 0.69926 0.0
C134 C 0.19179 0.31387 0.76786 0.0
N135 N 0.21637 0.314 0.73796 0.0
C136 C 0.19326 0.34394 0.80473 0.0
H137 H 0.13219 0.24372 0.67802 0.0
H138 H 0.13207 0.21616 0.71905 0.0
H139 H 0.16834 0.21218 0.68246 0.0
H140 H 0.20852 0.33215 0.82742 0.0
H141 H 0.16522 0.34893 0.81619 0.0
H142 H 0.20757 0.37312 0.79952 0.0
C143 C 0.77785 0.24055 0.73848 0.0
N144 N 0.7902 0.22422 0.76868 0.0
N145 N 0.80163 0.27116 0.73007 0.0
C146 C 0.74339 0.2254 0.71579 0.0
C147 C 0.82919 0.27274 0.75606 0.0
N148 N 0.82218 0.24419 0.77974 0.0
C149 C 0.86349 0.30093 0.75735 0.0
H150 H 0.7502 0.2023 0.69108 0.0
H151 H 0.73187 0.25012 0.70346 0.0
H152 H 0.72241 0.2115 0.73461 0.0
H153 H 0.87094 0.31256 0.78823 0.0
H154 H 0.86001 0.32634 0.74108 0.0
H155 H 0.88639 0.28422 0.74387 0.0
C156 C 0.54006 0.50393 0.59273 0.0
N157 N 0.55692 0.51821 0.56166 0.0
N158 N 0.51101 0.52469 0.60485 0.0
C159 C 0.55158 0.46893 0.61051 0.0
C160 C 0.51047 0.55189 0.57978 0.0
N161 N 0.53853 0.54813 0.55358 0.0
C162 C 0.48268 0.5824 0.58161 0.0
H163 H 0.56072 0.44564 0.58719 0.0
H164 H 0.52879 0.45554 0.62755 0.0
H165 H 0.57521 0.47922 0.63027 0.0
H166 H 0.47823 0.5958 0.61249 0.0
H167 H 0.45609 0.56704 0.57027 0.0
H168 H 0.4909 0.60663 0.56392 0.0
C169 C 0.51842 0.50208 1.0071 0.0
N170 N 0.55165 0.50482 0.02443 0.0
N171 N 0.51955 0.5246 0.9777 0.0
C172 C 0.48525 0.47585 0.01772 0.0
C173 C 0.55474 0.54097 0.97744 0.0
N174 N 0.57457 0.52857 1.0055 0.0
C175 C 0.569 0.5714 0.95167 0.0
H176 H 0.466 0.46788 0.99275 0.0
H177 H 0.47069 0.49242 0.04263 0.0
H178 H 0.49341 0.44789 0.02706 0.0
H179 H 0.5462 0.58525 0.93954 0.0
H180 H 0.58488 0.55633 0.92697 0.0
H181 H 0.58768 0.59533 0.9684 0.0
C182 C 0.67601 0.2444 0.32463 0.0
N183 N 0.70424 0.23049 0.34173 0.0
N184 N 0.66987 0.22376 0.28851 0.0
C185 C 0.65591 0.27982 0.34199 0.0
C186 C 0.6955 0.19709 0.28383 0.0
N187 N 0.71686 0.20154 0.31612 0.0
C188 C 0.6983 0.16572 0.24848 0.0
H189 H 0.63289 0.26925 0.36047 0.0
H190 H 0.64431 0.29436 0.31873 0.0
H191 H 0.67437 0.30235 0.36069 0.0
H192 H 0.71686 0.1783 0.22658 0.0
H193 H 0.67097 0.15715 0.23473 0.0
H194 H 0.70961 0.13862 0.25637 0.0
C195 C 0.47465 0.02354 0.97472 0.0
N196 N 0.49859 0.05655 0.97479 0.0
N197 N 0.44556 0.03207 0.9982 0.0
C198 C 0.47896 0.98342 0.95062 0.0
C199 C 0.45254 0.07133 0.01266 0.0
N200 N 0.48452 0.08653 0.99777 0.0
C201 C 0.43002 0.09347 0.04435 0.0
H202 H 0.45199 0.96569 0.9453 0.0
H203 H 0.49667 0.96643 0.96671 0.0
H204 H 0.49243 0.98726 0.9221 0.0
H205 H 0.4145 0.07237 0.06184 0.0
H206 H 0.40998 0.10983 0.03065 0.0
H207 H 0.44774 0.11563 0.06426 0.0
C208 C 0.18539 0.93589 0.02154 0.0
O209 O 0.19131 0.9173 0.98612 0.0
O210 O 0.23653 0.84872 0.99707 0.0
Zn211 Zn 0.24677 0.89361 0.04238 0.0
O212 O 0.29085 0.92929 0.02915 0.0
C213 C 0.27316 0.83813 0.08861 0.0
O214 O 0.28191 0.82111 0.05339 0.0
O215 O 0.2045 0.92909 0.04998 0.0
C216 C 0.32328 0.92669 0.04046 0.0
O217 O 0.32923 0.89915 0.06221 0.0
C218 C 0.26145 0.83788 0.97249 0.0
O219 O 0.29473 0.85613 0.97661 0.0
O220 O 0.25677 0.87011 0.09193 0.0
C221 C 0.18903 0.46665 0.30962 0.0
O222 O 0.18895 0.49445 0.34051 0.0
O223 O 0.11326 0.52848 0.32799 0.0
Zn224 Zn 0.14536 0.52109 0.27972 0.0
O225 O 0.18347 0.56884 0.28297 0.0
C226 C 0.09394 0.48372 0.21951 0.0
O227 O 0.09356 0.4541 0.24036 0.0
O228 O 0.17127 0.47109 0.27948 0.0
C229 C 0.21703 0.56546 0.27366 0.0
O230 O 0.22731 0.52998 0.25942 0.0
C231 C 0.09894 0.56109 0.33954 0.0
O232 O 0.10396 0.59069 0.3186 0.0
O233 O 0.11437 0.51586 0.23052 0.0
C234 C 0.82401 0.59894 0.04094 0.0
O235 O 0.79133 0.59089 0.05587 0.0
O236 O 0.79934 0.68782 0.96119 0.0
Zn237 Zn 0.78576 0.65739 1.00762 0.0
O238 O 0.73832 0.61895 0.99954 0.0
C239 C 0.7937 0.70828 0.08558 0.0
O240 O 0.82436 0.69164 0.08892 0.0
O241 O 0.82851 0.62662 0.01945 0.0
C242 C 0.71771 0.61436 0.02929 0.0
O243 O 0.72776 0.63409 0.0636 0.0
C244 C 0.80567 0.6735 0.92565 0.0
O245 O 0.8026 0.6344 0.91521 0.0
O246 O 0.77536 0.69903 0.05408 0.0
C247 C 0.81826 0.08442 0.33052 0.0
O248 O 0.81767 0.06563 0.36135 0.0
O249 O 0.89934 0.02909 0.34492 0.0
Zn250 Zn 0.86737 0.02464 0.29746 0.0
O251 O 0.83559 0.97225 0.29146 0.0
C252 C 0.93062 0.04415 0.25006 0.0
O253 O 0.94203 0.06681 0.28253 0.0
O254 O 0.83703 0.07176 0.30061 0.0
C255 C 0.82397 0.95573 0.25792 0.0
O256 O 0.83118 0.97439 0.22739 0.0
C257 C 0.92089 1.00185 0.34602 0.0
O258 O 0.92038 0.97211 0.31685 0.0
O259 O 0.89953 0.02401 0.24984 0.0
C260 C 0.36014 0.12859 0.51645 0.0
O261 O 0.37192 0.16518 0.51058 0.0
O262 O 0.30172 0.18698 0.46156 0.0
Zn263 Zn 0.28722 0.15445 0.50625 0.0
O264 O 0.23843 0.11952 0.49783 0.0
C265 C 0.2576 0.21787 0.55878 0.0
O266 O 0.23817 0.21951 0.52748 0.0
O267 O 0.32589 0.11796 0.51488 0.0
C268 C 0.22184 0.10828 0.52786 0.0
O269 O 0.23672 0.11942 0.56254 0.0
C270 C 0.30941 0.17341 0.42616 0.0
O271 O 0.30771 0.1344 0.41531 0.0
O272 O 0.28179 0.19289 0.55646 0.0
C273 C 0.33862 0.59853 0.80315 0.0
O274 O 0.37038 0.60608 0.78593 0.0
O275 O 0.40025 0.5183 0.83869 0.0
Zn276 Zn 0.36316 0.51894 0.79636 0.0
O277 O 0.3338 0.46507 0.78589 0.0
C278 C 0.42185 0.51131 0.74222 0.0
O279 O 0.43276 0.4906 0.76852 0.0
O280 O 0.32963 0.56325 0.81086 0.0
C281 C 0.32011 0.45243 0.75224 0.0
O282 O 0.32412 0.47562 0.72471 0.0
C283 C 0.40043 0.53642 0.87363 0.0
O284 O 0.37302 0.55759 0.8861 0.0
O285 O 0.3915 0.52694 0.74711 0.0
C286 C 0.68604 0.43799 0.52368 0.0
O287 O 0.69379 0.4207 0.48822 0.0
O288 O 0.73449 0.34923 0.50199 0.0
Zn289 Zn 0.74675 0.39566 0.54504 0.0
O290 O 0.79007 0.43062 0.52873 0.0
C291 C 0.7747 0.34191 0.59244 0.0
O292 O 0.78239 0.32359 0.55742 0.0
O293 O 0.70414 0.4307 0.55267 0.0
C294 C 0.82332 0.4265 0.53601 0.0
O295 O 0.83084 0.39742 0.55516 0.0
C296 C 0.75782 0.33604 0.47658 0.0
O297 O 0.79148 0.35349 0.47752 0.0
O298 O 0.75857 0.37406 0.59515 0.0
C299 C 0.69756 0.97348 0.80651 0.0
O300 O 0.71125 1.00868 0.82403 0.0
O301 O 0.60989 0.03789 0.82811 0.0
Zn302 Zn 0.64248 0.0205 0.78155 0.0
O303 O 0.68191 0.06531 0.77481 0.0
C304 C 0.62018 1.00917 0.69858 0.0
O305 O 0.65445 0.02203 0.69198 0.0
O306 O 0.66761 0.97104 0.78782 0.0
C307 C 0.69338 0.09156 0.80328 0.0
O308 O 0.6781 0.09102 0.83801 0.0
C309 C 0.61516 0.03267 0.86329 0.0
O310 O 0.64341 1.0139 0.87118 0.0
O311 O 0.60965 1.00687 0.73365 0.0
C312 C 0.02331 0.15332 0.93974 0.0
O313 O 0.02234 0.14447 0.90138 0.0
O314 O 0.9552 0.21858 0.89347 0.0
Zn315 Zn 1.0015 0.23245 0.92717 0.0
O316 O 0.99523 0.28187 0.96719 0.0
C317 C 0.03883 0.25699 0.85895 0.0
O318 O 1.00549 0.26386 0.84988 0.0
O319 O 0.01444 0.18744 0.95596 0.0
C320 C 0.02082 0.30858 0.97963 0.0
O321 O 0.05434 0.30508 0.9659 0.0
C322 C 0.92612 0.23636 0.90147 0.0
O323 O 0.92478 0.26133 0.9343 0.0
O324 O 0.04382 0.24414 0.89113 0.0
C325 C 0.5262 0.65646 0.44424 0.0
O326 O 0.52514 0.64654 0.40599 0.0
O327 O 0.45695 0.71941 0.39644 0.0
Zn328 Zn 0.50373 0.73434 0.42924 0.0
O329 O 0.49873 0.78515 0.4678 0.0
C330 C 0.54262 0.74396 0.35606 0.0
O331 O 0.50973 0.73634 0.34062 0.0
O332 O 0.51673 0.6906 0.45962 0.0
C333 C 0.52579 0.81041 0.47908 0.0
O334 O 0.55882 0.80364 0.4655 0.0
C335 C 0.43192 0.7434 0.39719 0.0
O336 O 0.4348 0.77663 0.42237 0.0
O337 O 0.5462 0.74465 0.39276 0.0
C338 C 0.04517 0.88802 0.63036 0.0
O339 O 0.04765 0.89708 0.66862 0.0
O340 O 0.975 0.80717 0.68064 0.0
Zn341 Zn 0.01869 0.80329 0.64183 0.0
O342 O 1.0077 0.75745 0.598 0.0
C343 C 0.05882 0.75983 0.68813 0.0
O344 O 0.02716 0.7379 0.68688 0.0
O345 O 0.03278 0.85279 0.61538 0.0
C346 C 0.03281 0.73802 0.58022 0.0
O347 O 0.06718 0.74741 0.5909 0.0
C348 C 0.95097 0.77738 0.68166 0.0
O349 O 0.95328 0.74491 0.65603 0.0
O350 O 0.06212 0.79075 0.6709 0.0
C351 C 0.543 0.39014 0.13067 0.0
O352 O 0.54073 0.39938 0.16893 0.0
O353 O 0.4769 0.30999 0.18084 0.0
Zn354 Zn 0.52005 0.30475 0.14154 0.0
O355 O 0.50902 0.25809 0.09841 0.0
C356 C 0.55816 0.26126 0.18885 0.0
O357 O 0.52599 0.24033 0.18694 0.0
O358 O 0.53461 0.35407 0.11492 0.0
C359 C 0.5346 0.23835 0.08203 0.0
O360 O 0.56868 0.24837 0.09348 0.0
C361 C 0.4523 0.28105 0.18333 0.0
O362 O 0.45253 0.24833 0.15762 0.0
O363 O 0.56293 0.29195 0.17135 0.0
C364 C 0.20896 0.75279 0.90665 0.0
C365 C 0.22889 0.75142 0.87133 0.0
C366 C 0.22047 0.7798 0.9398 0.0
C367 C 0.25254 0.80613 0.9388 0.0
H368 H 0.18315 0.73448 0.90781 0.0
H369 H 0.20341 0.78098 0.96593 0.0
S370 S 0.31576 0.81163 0.85366 0.0
N371 N 0.28281 0.77674 0.8375 0.0
N372 N 0.30549 0.82677 0.89998 0.0
C373 C 0.27402 0.803 0.90427 0.0
C374 C 0.26196 0.77574 0.87046 0.0
C375 C 0.02282 0.59351 0.41062 0.0
C376 C 0.02334 0.56665 0.43798 0.0
C377 C 0.04843 0.59273 0.37964 0.0
C378 C 0.07509 0.56474 0.37495 0.0
H379 H 1.00127 0.61363 0.41203 0.0
H380 H 0.04616 0.61286 0.35824 0.0
S381 S 0.09076 0.49238 0.44296 0.0
N382 N 0.05482 0.51494 0.46158 0.0
N383 N 0.10272 0.5127 0.40328 0.0
C384 C 0.07712 0.5395 0.40378 0.0
C385 C 0.05131 0.5407 0.43537 0.0
C386 C 0.83505 0.7691 0.8825 0.0
C387 C 0.82409 0.75943 0.84314 0.0
C388 C 0.83041 0.74068 0.90857 0.0
C389 C 0.81501 0.7012 0.89619 0.0
H390 H 0.84452 0.79982 0.89385 0.0
H391 H 0.83758 0.75022 0.93904 0.0
S392 S 0.78462 0.66006 0.79508 0.0
N393 N 0.79895 0.70741 0.79257 0.0
N394 N 0.79151 0.65327 0.84078 0.0
C395 C 0.80653 0.69037 0.85613 0.0
C396 C 0.81082 0.71963 0.82979 0.0
C397 C 0.97537 0.04288 0.43828 0.0
C398 C 0.99837 1.01256 0.44127 0.0
C399 C 0.95012 0.039 0.40755 0.0
C400 C 0.94719 1.00463 0.37877 0.0
H401 H 0.977 0.06964 0.45988 0.0
H402 H 0.93299 0.06326 0.40628 0.0
S403 S 1.00209 0.91682 0.37478 0.0
N404 N 0.01722 0.94748 0.41401 0.0
N405 N 0.96991 0.93953 0.35608 0.0
C406 C 0.97027 0.97403 0.38187 0.0
C407 C 0.99584 0.97816 0.41319 0.0
C408 C 0.20217 0.27744 0.63714 0.0
C409 C 0.22106 0.27537 0.67169 0.0
C410 C 0.2153 0.26058 0.60055 0.0
C411 C 0.24766 0.24057 0.59723 0.0
H412 H 0.17632 0.2909 0.63872 0.0
H413 H 0.19899 0.26177 0.57494 0.0
S414 S 0.30856 0.23032 0.67956 0.0
N415 N 0.27454 0.25456 0.70075 0.0
N416 N 0.2997 0.22265 0.63211 0.0
C417 C 0.26777 0.24023 0.63168 0.0
C418 C 0.25435 0.25771 0.66888 0.0
C419 C 0.45045 0.51549 0.63673 0.0
C420 C 0.48888 0.52216 0.63944 0.0
C421 C 0.42864 0.51294 0.67035 0.0
C422 C 0.4448 0.51615 0.70746 0.0
H423 H 0.43734 0.51176 0.6084 0.0
H424 H 0.3991 0.50738 0.66719 0.0
S425 S 0.54393 0.53734 0.73027 0.0
N426 N 0.54187 0.5354 0.68222 0.0
N427 N 0.50115 0.52844 0.74527 0.0
C428 C 0.48314 0.52334 0.71054 0.0
C429 C 0.50515 0.52689 0.67651 0.0
C430 C 0.78259 0.32725 0.69941 0.0
C431 C 0.80004 0.2917 0.69663 0.0
C432 C 0.77521 0.3439 0.66566 0.0
C433 C 0.7848 0.32523 0.628 0.0
H434 H 0.77351 0.34136 0.72774 0.0
H435 H 0.76106 0.37099 0.66909 0.0
S436 S 0.83224 0.23162 0.60641 0.0
N437 N 0.82754 0.23876 0.65457 0.0
N438 N 0.81413 0.26943 0.59085 0.0
C439 C 0.80326 0.29001 0.62534 0.0
C440 C 0.81073 0.27337 0.65974 0.0
C441 C 0.57368 1.01417 0.60197 0.0
C442 C 0.53971 0.99192 0.60542 0.0
C443 C 0.60025 0.01806 0.63145 0.0
C444 C 0.59337 1.00054 0.66587 0.0
H445 H 0.579 0.02998 0.57699 0.0
H446 H 0.62562 0.03653 0.62803 0.0
S447 S 0.50905 0.93695 0.68718 0.0
N448 N 0.50111 0.9503 0.64411 0.0
N449 N 0.55056 0.9577 0.70007 0.0
C450 C 0.55987 0.97682 0.66876 0.0
C451 C 0.53315 0.97247 0.63837 0.0
C452 C 0.87688 0.21722 0.80305 0.0
C453 C 0.84493 0.23707 0.81115 0.0
C454 C 0.90216 0.2153 0.83282 0.0
C455 C 0.89653 0.23365 0.87169 0.0
H456 H 0.88284 0.2043 0.77324 0.0
H457 H 0.92699 0.20075 0.8249 0.0
S458 S 0.81568 0.28812 0.90736 0.0
N459 N 0.80818 0.27435 0.86005 0.0
N460 N 0.85496 0.27076 0.91637 0.0
C461 C 0.86374 0.25242 0.8801 0.0
C462 C 0.83816 0.25418 0.84973 0.0
C463 C 0.53851 0.92052 0.52374 0.0
C464 C 0.50492 0.92631 0.54317 0.0
C465 C 0.54586 0.88239 0.50467 0.0
C466 C 0.51964 0.84893 0.50412 0.0
H467 H 0.55817 0.94606 0.5213 0.0
H468 H 0.57145 0.87966 0.48853 0.0
S469 S 0.42975 0.84815 0.55629 0.0
N470 N 0.44726 0.89537 0.56503 0.0
N471 N 0.46043 0.82379 0.5289 0.0
C472 C 0.48695 0.85413 0.52584 0.0
C473 C 0.47979 0.89281 0.54548 0.0
C474 C 0.13647 0.26471 0.81908 0.0
C475 C 0.13212 0.27652 0.78225 0.0
C476 C 0.10611 0.25825 0.84354 0.0
C477 C 0.0703 0.26366 0.83207 0.0
H478 H 0.16363 0.26069 0.829 0.0
H479 H 0.11089 0.24926 0.87178 0.0
S480 S 0.04517 0.29529 0.73797 0.0
N481 N 0.09022 0.29404 0.7353 0.0
N482 N 0.0327 0.28171 0.78079 0.0
C483 C 0.06578 0.27542 0.79497 0.0
C484 C 0.09681 0.28187 0.77016 0.0
C485 C 0.53169 0.55889 0.4854 0.0
C486 C 0.54622 0.57227 0.52288 0.0
C487 C 0.52735 0.58604 0.45892 0.0
C488 C 0.53664 0.62752 0.46962 0.0
H489 H 0.52114 0.52778 0.47775 0.0
H490 H 0.51431 0.57483 0.43105 0.0
S491 S 0.58045 0.67628 0.5627 0.0
N492 N 0.57379 0.62827 0.56773 0.0
N493 N 0.56508 0.67973 0.51868 0.0
C494 C 0.55373 0.64065 0.50601 0.0
C495 C 0.55879 0.61286 0.53242 0.0
C496 C 0.89645 0.80606 0.77566 0.0
C497 C 0.86162 0.78556 0.76725 0.0
C498 C 0.92547 0.8029 0.74818 0.0
C499 C 0.92077 0.77872 0.71142 0.0
H500 H 0.90036 0.82695 0.8025 0.0
H501 H 0.95146 0.82029 0.7554 0.0
S502 S 0.83475 0.7185 0.67578 0.0
N503 N 0.82406 0.74054 0.71993 0.0
N504 N 0.87857 0.73278 0.66897 0.0
C505 C 0.88649 0.75656 0.70358 0.0
C506 C 0.85695 0.76043 0.7313 0.0
C507 C 0.05342 0.98803 0.59109 0.0
C508 C 0.06415 0.9773 0.55187 0.0
C509 C 0.0496 0.95952 0.6172 0.0
C510 C 0.05517 0.91899 0.6045 0.0
H511 H 0.04519 0.01785 0.60073 0.0
H512 H 0.03968 0.96871 0.64665 0.0
S513 S 0.08649 0.87674 0.50528 0.0
N514 N 0.08303 0.92462 0.50246 0.0
N515 N 0.07509 0.87059 0.55078 0.0
C516 C 0.06791 0.90853 0.56589 0.0
C517 C 0.07261 0.9378 0.53979 0.0
C518 C 0.1107 0.71703 0.764 0.0
C519 C 0.14721 0.73097 0.75719 0.0
C520 C 0.08232 0.72573 0.74081 0.0
C521 C 0.08961 0.74934 0.71059 0.0
H522 H 0.10416 0.69988 0.78784 0.0
H523 H 0.0544 0.71482 0.74735 0.0
S524 S 0.18153 0.79187 0.68108 0.0
N525 N 0.1898 0.76819 0.71822 0.0
N526 N 0.13659 0.78532 0.67454 0.0
C527 C 0.12634 0.76293 0.70329 0.0
C528 C 0.15516 0.75352 0.72665 0.0
C529 C 0.03202 0.63302 0.52366 0.0
C530 C 0.99825 0.62871 0.50418 0.0
C531 C 0.04434 0.66955 0.54642 0.0
C532 C 0.02286 0.7025 0.55074 0.0
H533 H 0.04756 0.60723 0.52355 0.0
H534 H 0.06955 0.67106 0.56277 0.0
S535 S 0.93535 0.70761 0.49983 0.0
N536 N 0.9462 0.66128 0.48593 0.0
N537 N 0.96858 0.72972 0.52933 0.0
C538 C 0.99046 0.69924 0.52879 0.0
C539 C 0.97839 0.66237 0.50524 0.0
C540 C 0.75487 0.86949 0.21721 0.0
C541 C 0.75318 0.84487 0.24672 0.0
C542 C 0.77881 0.90474 0.2204 0.0
C543 C 0.80152 0.91655 0.25341 0.0
H544 H 0.73629 0.86242 0.1926 0.0
H545 H 0.77835 0.92365 0.19763 0.0
S546 S 0.8104 0.85851 0.33576 0.0
N547 N 0.77845 0.83177 0.30748 0.0
N548 N 0.82329 0.89807 0.31408 0.0
C549 C 0.80138 0.8907 0.28197 0.0
C550 C 0.77726 0.8548 0.27844 0.0
C551 C 0.74132 0.15286 0.35302 0.0
C552 C 0.74544 0.17701 0.32312 0.0
C553 C 0.76588 0.12392 0.3562 0.0
C554 C 0.79522 0.11817 0.3294 0.0
H555 H 0.71801 0.15516 0.37285 0.0
H556 H 0.76088 0.10489 0.37881 0.0
S557 S 0.8204 0.17873 0.24954 0.0
N558 N 0.78281 0.19698 0.26927 0.0
N559 N 0.82896 0.14252 0.27456 0.0
C560 C 0.80067 0.14401 0.30078 0.0
C561 C 0.77578 0.1735 0.29783 0.0
C562 C 0.42046 0.97233 0.02605 0.0
C563 C 0.41491 1.0053 1.0072 0.0
C564 C 0.3906 0.94703 0.03668 0.0
C565 C 0.35424 0.95383 0.02856 0.0
H566 H 0.44805 0.96658 0.03308 0.0
H567 H 0.39615 0.92203 0.05141 0.0
S568 S 0.32617 0.0362 0.9782 0.0
N569 N 0.37146 0.04332 0.97979 0.0
N570 N 0.31487 0.99611 0.99964 0.0
C571 C 0.34861 0.98668 1.00912 0.0
C572 C 0.37909 1.01237 0.9985 0.0
C573 C 0.25917 0.40098 0.33999 0.0
C574 C 0.26021 0.37068 0.30769 0.0
C575 C 0.23551 0.43142 0.34065 0.0
C576 C 0.21205 0.43259 0.30894 0.0
H577 H 0.27728 0.40142 0.36456 0.0
H578 H 0.23614 0.45454 0.36597 0.0
S579 S 0.20319 0.35774 0.21857 0.0
N580 N 0.23501 0.34188 0.24438 0.0
N581 N 0.19051 0.39908 0.24495 0.0
C582 C 0.21238 0.40163 0.27679 0.0
C583 C 0.23649 0.37067 0.27632 0.0
C584 C 0.14243 0.03503 0.4854 0.0
C585 C 0.11486 0.04024 0.51431 0.0
C586 C 0.17713 0.05674 0.49008 0.0
C587 C 0.18578 0.08385 0.52429 0.0
H588 H 0.1364 0.01543 0.45812 0.0
H589 H 0.1971 0.05268 0.46653 0.0
S590 S 0.12341 0.10707 0.60929 0.0
N591 N 0.09857 0.07389 0.57829 0.0
N592 N 0.16415 0.1134 0.58829 0.0
C593 C 0.15899 0.08772 0.55428 0.0
C594 C 0.12347 0.06614 0.54906 0.0
C595 C 0.7503 0.19226 0.81544 0.0
C596 C 0.77347 0.18874 0.78247 0.0
C597 C 0.7256 0.15993 0.82301 0.0
C598 C 0.72274 0.12338 0.79724 0.0
H599 H 0.74961 0.22091 0.83396 0.0
H600 H 0.70722 0.16443 0.84798 0.0
S601 S 0.78039 0.09861 0.70874 0.0
N602 N 0.79453 0.14564 0.72578 0.0
N603 N 0.74781 0.08479 0.73923 0.0
C604 C 0.7473 0.11902 0.76526 0.0
C605 C 0.77275 0.15174 0.75809 0.0
C606 C 0.44992 0.08373 0.5305 0.0
C607 C 0.43809 0.04752 0.54418 0.0
C608 C 0.42454 0.10974 0.52152 0.0
C609 C 0.38641 0.10034 0.52584 0.0
H610 H 0.47898 0.09171 0.52646 0.0
H611 H 0.43493 0.13729 0.51091 0.0
S612 S 0.34211 1.00956 0.56305 0.0
N613 N 0.38653 1.00414 0.56344 0.0
N614 N 0.33849 0.0523 0.54616 0.0
C615 C 0.37443 0.06413 0.53991 0.0
C616 C 0.40035 0.0379 0.54918 0.0
C617 C 0.5936 0.47846 0.51267 0.0
C618 C 0.59195 0.50732 0.54614 0.0
C619 C 0.62503 0.45751 0.50439 0.0
C620 C 0.65537 0.46417 0.52993 0.0
H621 H 0.56955 0.47017 0.49443 0.0
H622 H 0.6246 0.43426 0.47919 0.0
S623 S 0.66555 0.54036 0.61892 0.0
N624 N 0.62412 0.54451 0.60254 0.0
N625 N 0.68289 0.50485 0.58784 0.0
C626 C 0.65471 0.49484 0.56212 0.0
C627 C 0.62309 0.51654 0.56995 0.0
C628 C 0.75554 0.2707 0.37733 0.0
C629 C 0.72118 0.24865 0.37794 0.0
C630 C 0.76814 0.29752 0.41023 0.0
C631 C 0.74653 0.30326 0.44459 0.0
H632 H 0.7715 0.26917 0.35043 0.0
H633 H 0.79402 0.31543 0.40787 0.0
S634 S 0.657 0.24703 0.46207 0.0
N635 N 0.66788 0.23003 0.41635 0.0
N636 N 0.69107 0.28047 0.47842 0.0
C637 C 0.71332 0.27889 0.44627 0.0
C638 C 0.70078 0.25149 0.41286 0.0
C639 C 0.55992 0.03519 0.9578 0.0
C640 C 0.53159 0.05884 0.95162 0.0
C641 C 0.58796 0.02859 0.92993 0.0
C642 C 0.58824 0.04493 0.89457 0.0
H643 H 0.55917 0.02002 0.98343 0.0
H644 H 0.60841 1.00881 0.9353 0.0
S645 S 0.5216 0.1125 0.86692 0.0
N646 N 0.50662 0.10118 0.90983 0.0
N647 N 0.55915 0.08908 0.85697 0.0
C648 C 0.56105 0.07067 0.8893 0.0
C649 C 0.53276 0.07759 0.91799 0.0
C650 C 0.33515 0.27069 0.38465 0.0
C651 C 0.32609 0.2606 0.34478 0.0
C652 C 0.33122 0.24194 0.4104 0.0
C653 C 0.31841 0.20174 0.3972 0.0
H654 H 0.34246 0.30181 0.39653 0.0
H655 H 0.33678 0.25172 0.44121 0.0
S656 S 0.29405 0.15948 0.2945 0.0
N657 N 0.30583 0.20757 0.2928 0.0
N658 N 0.2996 0.15287 0.3405 0.0
C659 C 0.31196 0.19068 0.3567 0.0
C660 C 0.31558 0.22024 0.33065 0.0
C661 C 0.45779 0.54395 0.96578 0.0
C662 C 0.49046 0.52826 0.95138 0.0
C663 C 0.42888 0.54683 0.94042 0.0
C664 C 0.43161 0.53374 0.89984 0.0
H665 H 0.45471 0.55403 0.99685 0.0
H666 H 0.40412 0.55901 0.95283 0.0
S667 S 0.51226 0.49023 0.84824 0.0
N668 N 0.52426 0.49934 0.89481 0.0
N669 N 0.4705 0.50485 0.84674 0.0
C670 C 0.4645 0.51807 0.88528 0.0
C671 C 0.49379 0.51532 0.91115 0.0
C672 C 0.72367 0.76446 0.14903 0.0
C673 C 0.73922 0.76992 0.18648 0.0
C674 C 0.7424 0.74642 0.11629 0.0
C675 C 0.7774 0.73289 0.1198 0.0
H676 H 0.6962 0.77288 0.14541 0.0
H677 H 0.72855 0.74164 0.08829 0.0
S678 S 0.83094 0.74369 0.21185 0.0
N679 N 0.792 0.76303 0.22545 0.0
N680 N 0.82786 0.72936 0.16404 0.0
C681 C 0.79403 0.74031 0.15705 0.0
C682 C 0.77478 0.75879 0.19037 0.0
C683 C 0.95927 0.01716 0.14384 0.0
C684 C 0.99513 0.03554 0.14311 0.0
C685 C 0.93869 0.02008 0.17864 0.0
C686 C 0.95336 0.04166 0.21388 0.0
H687 H 0.94718 1.00053 0.11724 0.0
H688 H 0.91102 1.00544 0.17777 0.0
S689 S 0.04682 0.09508 0.22619 0.0
N690 N 0.04485 0.07578 0.17937 0.0
N691 N 1.00659 0.0815 0.24529 0.0
C692 C 0.98951 0.06009 0.21324 0.0
C693 C 1.01034 0.05692 0.17771 0.0
C694 C 0.31008 0.76577 0.14937 0.0
C695 C 0.30239 0.78232 0.188 0.0
C696 C 0.30094 0.78444 0.11769 0.0
C697 C 0.28353 0.8204 0.12341 0.0
H698 H 0.32248 0.73758 0.14372 0.0
H699 H 0.30706 0.77002 0.08844 0.0
S700 S 0.25866 0.87618 0.21982 0.0
N701 N 0.27738 0.83663 0.23092 0.0
N702 N 0.26015 0.87243 0.17149 0.0
C703 C 0.27653 0.83777 0.16226 0.0
C704 C 0.28602 0.81859 0.19453 0.0
C705 C 0.05031 0.50901 0.12778 0.0
C706 C 0.02041 0.4797 0.12101 0.0
C707 C 0.07447 0.50949 0.15903 0.0
C708 C 0.06972 0.4805 0.18468 0.0
H709 H 0.05422 0.53254 0.10947 0.0
H710 H 0.09657 0.5333 0.16354 0.0
S711 S 0.9957 0.39666 0.17848 0.0
N712 N 0.98738 0.42087 0.14178 0.0
N713 N 0.03306 0.42063 0.1999 0.0
C714 C 0.04056 0.45005 0.17715 0.0
C715 C 0.01586 0.4499 0.14546 0.0
C716 C 0.34998 0.76306 0.33859 0.0
C717 C 0.35077 0.73425 0.305 0.0
C718 C 0.37519 0.76445 0.36904 0.0
C719 C 0.40242 0.73716 0.36699 0.0
H720 H 0.33038 0.78545 0.34067 0.0
H721 H 0.37401 0.78802 0.3938 0.0
S722 S 0.41479 0.65489 0.28509 0.0
N723 N 0.37983 0.67722 0.27147 0.0
N724 N 0.42716 0.67913 0.32861 0.0
C725 C 0.4024 0.70709 0.334 0.0
C726 C 0.37661 0.70582 0.30303 0.0
C727 C 0.02716 0.41631 0.03201 0.0
C728 C 0.99282 0.4185 0.05071 0.0
C729 C 0.03682 0.38007 1.01052 0.0
C730 C 0.01224 0.34498 1.00682 0.0
H731 H 0.04564 0.44327 0.03212 0.0
H732 H 0.06295 0.38015 0.99512 0.0
S733 S 0.92101 0.33467 0.0556 0.0
N734 N 0.93603 0.38231 0.06814 0.0
N735 N 0.95362 0.31429 0.02778 0.0
C736 C 0.97877 0.34651 0.02773 0.0
C737 C 0.96922 0.38325 0.04969 0.0
C738 C 0.64219 0.76425 0.3256 0.0
C739 C 0.63949 0.76957 0.28621 0.0
C740 C 0.61073 0.75562 0.34778 0.0
C741 C 0.57537 0.75199 0.3313 0.0
H742 H 0.66888 0.76706 0.3393 0.0
H743 H 0.61424 0.75198 0.37814 0.0
S744 S 0.55422 0.76408 0.22891 0.0
N745 N 0.59946 0.77139 0.2315 0.0
N746 N 0.53995 0.75455 0.27265 0.0
C747 C 0.57251 0.75693 0.29159 0.0
C748 C 0.60467 0.76586 0.26916 0.0
C749 C 0.05768 0.11129 0.027 0.0
C750 C 0.04632 0.07016 0.0185 0.0
C751 C 0.0515 0.13779 1.00057 0.0
C752 C 0.03422 0.12394 0.96439 0.0
H753 H 0.06848 0.12342 0.05573 0.0
H754 H 0.05893 0.16958 1.00925 0.0
S755 S 1.0021 0.0182 0.92724 0.0
N756 N 0.01878 0.01642 0.97108 0.0
N757 N 1.00853 0.0657 0.92028 0.0
C758 C 0.02536 0.08235 0.95432 0.0
C759 C 0.03111 0.05556 0.98166 0.0
C760 C 0.36138 0.26289 0.23688 0.0
C761 C 0.36527 0.29032 0.27156 0.0
C762 C 0.39015 0.25909 0.20928 0.0
C763 C 0.4236 0.28354 0.21476 0.0
H764 H 0.33504 0.24622 0.22989 0.0
H765 H 0.38535 0.23833 0.18247 0.0
S766 S 0.44796 0.35838 0.30231 0.0
N767 N 0.40548 0.34051 0.31117 0.0
N768 N 0.45955 0.33423 0.2593 0.0
C769 C 0.4283 0.30988 0.25026 0.0
C770 C 0.39919 0.31301 0.27863 0.0
C771 C 0.54674 0.49026 0.09212 0.0
C772 C 0.56054 0.48115 0.05382 0.0
C773 C 0.54336 0.4614 0.11781 0.0
C774 C 0.55255 0.42193 0.10558 0.0
H775 H 0.53609 0.51905 0.1012 0.0
H776 H 0.53109 0.46929 0.14642 0.0
S777 S 0.59266 0.38422 1.00897 0.0
N778 N 0.58596 0.43134 1.0059 0.0
N779 N 0.57903 0.37651 0.05347 0.0
C780 C 0.56829 0.41321 0.06801 0.0
C781 C 0.57244 0.44296 0.04234 0.0
C782 C 0.60567 0.21895 0.26807 0.0
C783 C 0.64282 0.2301 0.26122 0.0
C784 C 0.57847 0.22836 0.2438 0.0
C785 C 0.58768 0.25 0.21248 0.0
H786 H 0.59774 0.20345 0.29273 0.0
H787 H 0.55001 0.21964 0.25036 0.0
S788 S 0.68186 0.28492 0.18248 0.0
N789 N 0.68801 0.26252 0.22107 0.0
N790 N 0.637 0.28109 0.17541 0.0
C791 C 0.62502 0.26081 0.20519 0.0
C792 C 0.65263 0.25061 0.22961 0.0
C793 C 0.53456 0.13106 0.03153 0.0
C794 C 0.50212 0.12612 1.00961 0.0
C795 C 0.54631 0.16841 0.0531 0.0
C796 C 0.52553 0.20163 0.05381 0.0
H797 H 0.54934 0.10528 0.03426 0.0
H798 H 0.57037 0.1705 0.07138 0.0
S799 S 0.44211 0.20517 0.99545 0.0
N800 N 0.45256 0.15827 0.98506 0.0
N801 N 0.47371 0.22824 0.02652 0.0
C802 C 0.49465 0.19762 0.02949 0.0
C803 C 0.48323 0.1599 1.00704 0.0
C804 C 0.24658 0.37173 0.71028 0.0
C805 C 0.24724 0.34321 0.73595 0.0
C806 C 0.2715 0.40621 0.71456 0.0
C807 C 0.29756 0.41337 0.74497 0.0
H808 H 0.22523 0.36851 0.68843 0.0
H809 H 0.26898 0.42836 0.69523 0.0
S810 S 0.31354 0.34392 0.81574 0.0
N811 N 0.27835 0.32138 0.78935 0.0
N812 N 0.32507 0.38627 0.79807 0.0
C813 C 0.29994 0.38347 0.76904 0.0
C814 C 0.27483 0.34831 0.76431 0.0
C815 C 0.28687 0.68685 0.78682 0.0
C816 C 0.2566 0.68399 0.81226 0.0
C817 C 0.31431 0.66031 0.78555 0.0
C818 C 0.31193 0.6294 0.8091 0.0
H819 H 0.28855 0.70892 0.76685 0.0
H820 H 0.33655 0.66286 0.76456 0.0
S821 S 0.23902 0.61167 0.88275 0.0
N822 N 0.2267 0.65021 0.8632 0.0
N823 N 0.27785 0.59961 0.86071 0.0
C824 C 0.28243 0.62746 0.83589 0.0
C825 C 0.25486 0.65498 0.83752 0.0
C826 C 0.9192 0.47154 0.51432 0.0
C827 C 0.91232 0.50671 0.49974 0.0
C828 C 0.89018 0.44562 0.5258 0.0
C829 C 0.85335 0.454 0.52278 0.0
H830 H 0.94722 0.46462 0.51757 0.0
H831 H 0.89675 0.41898 0.53731 0.0
S832 S 0.82174 0.54221 0.48438 0.0
N833 N 0.867 0.54837 0.4814 0.0
N834 N 0.81202 0.50001 0.50286 0.0
C835 C 0.84634 0.48896 0.50736 0.0
C836 C 0.87597 0.51526 0.49588 0.0
C837 C 0.76711 0.90624 0.83492 0.0
C838 C 0.76191 0.87223 0.80639 0.0
C839 C 0.74568 0.93857 0.83511 0.0
C840 C 0.71802 0.9377 0.80701 0.0
H841 H 0.78845 0.90805 0.85661 0.0
H842 H 0.75105 0.96455 0.85728 0.0
S843 S 0.69323 0.85391 0.72705 0.0
N844 N 0.72718 0.83848 0.75021 0.0
N845 N 0.68629 0.89889 0.75037 0.0
C846 C 0.71206 0.9031 0.7789 0.0
C847 C 0.73422 0.87045 0.7786 0.0
C848 C 0.63963 0.53911 0.98602 0.0
C849 C 0.61218 0.5427 0.01523 0.0
C850 C 0.67402 0.5615 0.99105 0.0
C851 C 0.68236 0.58819 0.02567 0.0
H852 H 0.63365 0.52035 0.95827 0.0
H853 H 0.69378 0.55865 0.96719 0.0
S854 S 0.62003 0.60659 0.11184 0.0
N855 N 0.59576 0.57366 0.08013 0.0
N856 N 0.66038 0.61493 0.09065 0.0
C857 C 0.65562 0.5903 0.05595 0.0
C858 C 0.62059 0.5677 0.05051 0.0
C859 C 0.29723 0.63588 0.24699 0.0
C860 C 0.28973 0.67285 0.26837 0.0
C861 C 0.27484 0.60068 0.25077 0.0
C862 C 0.24356 0.60157 0.27532 0.0
H863 H 0.31896 0.63483 0.22514 0.0
H864 H 0.2807 0.5732 0.23231 0.0
S865 S 0.21463 0.69084 0.34035 0.0
N866 N 0.25137 0.70811 0.31717 0.0
N867 N 0.20859 0.64222 0.32427 0.0
C868 C 0.23725 0.63808 0.29873 0.0
C869 C 0.26055 0.67368 0.29527 0.0
C870 C 0.9212 0.56822 0.04733 0.0
C871 C 0.91533 0.53186 0.06254 0.0
C872 C 0.89151 0.58983 0.0404 0.0
C873 C 0.85506 0.57589 0.0489 0.0
H874 H 0.94883 0.57954 0.04021 0.0
H875 H 0.89721 0.61763 0.02834 0.0
S876 S 0.82628 0.48214 0.09032 0.0
N877 N 0.87144 0.48295 0.0866 0.0
N878 N 0.81542 0.52313 0.07405 0.0
C879 C 0.84922 0.53962 0.06477 0.0
C880 C 0.87943 0.51769 0.07146 0.0
C881 C 0.09344 0.97873 0.01518 0.0
C882 C 0.09484 1.00994 0.04692 0.0
C883 C 0.12365 0.95611 1.00578 0.0
C884 C 0.15583 0.96341 0.02852 0.0
H885 H 0.068 0.96992 0.99943 0.0
H886 H 0.12089 0.93118 0.98213 0.0
S887 S 0.17441 0.04548 0.11144 0.0
N888 N 0.13201 0.05004 0.09811 0.0
N889 N 0.18848 1.00705 0.0815 0.0
C890 C 0.15823 0.99625 0.05877 0.0
C891 C 0.12782 0.01968 0.06764 0.0
loop_
_geom_bond_atom_site_label_1
_geom_bond_atom_site_label_2
_geom_bond_distance
_geom_bond_site_symmetry_2
_ccdc_geom_bond_type
C0 N1 1.317 1_565 S
C0 N2 1.348 1_465 S
C0 C3 1.485 . S
N1 C0 1.317 1_545 S
N1 N5 1.370 . S
N2 C0 1.348 1_645 S
N2 C4 1.346 . S
C3 C0 1.485 . S
C3 H7 0.960 . S
C3 H8 0.961 . S
C3 H9 0.960 . S
C4 N2 1.346 . S
C4 N5 1.307 1_655 S
C4 C6 1.486 . S
N5 N1 1.370 . S
N5 C4 1.307 1_455 S
C6 C4 1.486 . S
C6 H10 0.960 . S
C6 H11 0.960 . S
C6 H12 0.959 . S
H7 C3 0.960 . S
H8 C3 0.961 . S
H9 C3 0.960 . S
H10 C6 0.960 . S
H11 C6 0.960 . S
H12 C6 0.959 . S
C13 N14 1.317 . S
C13 N15 1.348 . S
C13 C16 1.485 . S
N14 C13 1.317 . S
N14 N18 1.370 . S
N15 C13 1.348 . S
N15 C17 1.346 . S
C16 C13 1.485 . S
C16 H20 0.960 . S
C16 H21 0.961 . S
C16 H22 0.960 . S
C17 N15 1.346 . S
C17 N18 1.307 . S
C17 C19 1.486 . S
N18 N14 1.370 . S
N18 C17 1.307 . S
C19 C17 1.486 . S
C19 H23 0.960 . S
C19 H24 0.960 . S
C19 H25 0.959 . S
H20 C16 0.960 . S
H21 C16 0.961 . S
H22 C16 0.960 . S
H23 C19 0.960 . S
H24 C19 0.960 . S
H25 C19 0.959 . S
C26 N27 1.317 . S
C26 N28 1.348 . S
C26 C29 1.485 . S
N27 C26 1.317 . S
N27 N31 1.370 . S
N28 C26 1.348 . S
N28 C30 1.346 . S
C29 C26 1.485 . S
C29 H33 0.960 . S
C29 H34 0.961 . S
C29 H35 0.960 . S
C30 N28 1.346 . S
C30 N31 1.307 . S
C30 C32 1.486 1_554 S
N31 N27 1.370 . S
N31 C30 1.307 . S
C32 C30 1.486 1_556 S
C32 H36 0.960 . S
C32 H37 0.963 . S
C32 H38 0.959 . S
H33 C29 0.960 . S
H34 C29 0.961 . S
H35 C29 0.960 . S
H36 C32 0.960 . S
H37 C32 0.963 . S
H38 C32 0.959 . S
C39 N40 1.317 . S
C39 N41 1.348 . S
C39 C42 1.485 . S
N40 C39 1.317 . S
N40 N44 1.370 . S
N41 C39 1.348 . S
N41 C43 1.346 . S
C42 C39 1.485 . S
C42 H46 0.960 . S
C42 H47 0.961 . S
C42 H48 0.960 . S
C43 N41 1.346 . S
C43 N44 1.307 . S
C43 C45 1.486 . S
N44 N40 1.370 . S
N44 C43 1.307 . S
C45 C43 1.486 . S
C45 H49 0.960 . S
C45 H50 0.960 . S
C45 H51 0.959 . S
H46 C42 0.960 . S
H47 C42 0.961 . S
H48 C42 0.960 . S
H49 C45 0.960 . S
H50 C45 0.960 . S
H51 C45 0.959 . S
C52 N53 1.317 . S
C52 N54 1.348 . S
C52 C55 1.485 1_455 S
N53 C52 1.317 . S
N53 N57 1.370 . S
N54 C52 1.348 . S
N54 C56 1.346 1_565 S
C55 C52 1.485 1_655 S
C55 H59 0.960 . S
C55 H60 0.961 . S
C55 H61 0.960 . S
C56 N54 1.346 1_545 S
C56 N57 1.307 1_545 S
C56 C58 1.486 . S
N57 N53 1.370 . S
N57 C56 1.307 1_565 S
C58 C56 1.486 . S
C58 H62 0.960 . S
C58 H63 0.960 . S
C58 H64 0.959 . S
H59 C55 0.960 . S
H60 C55 0.961 . S
H61 C55 0.960 . S
H62 C58 0.960 . S
H63 C58 0.960 . S
H64 C58 0.959 . S
C65 N66 1.317 . S
C65 N67 1.348 . S
C65 C68 1.485 . S
N66 C65 1.317 . S
N66 N70 1.370 . S
N67 C65 1.348 . S
N67 C69 1.346 . S
C68 C65 1.485 . S
C68 H72 0.960 . S
C68 H73 0.961 . S
C68 H74 0.960 . S
C69 N67 1.346 . S
C69 N70 1.307 . S
C69 C71 1.486 . S
N70 N66 1.370 . S
N70 C69 1.307 . S
C71 C69 1.486 . S
C71 H75 0.960 . S
C71 H76 0.960 . S
C71 H77 0.959 . S
H72 C68 0.960 . S
H73 C68 0.961 . S
H74 C68 0.960 . S
H75 C71 0.960 . S
H76 C71 0.960 . S
H77 C71 0.959 . S
C78 N79 1.317 . S
C78 N80 1.348 . S
C78 C81 1.485 . S
N79 C78 1.317 . S
N79 N83 1.370 . S
N80 C78 1.348 . S
N80 C82 1.346 . S
C81 C78 1.485 . S
C81 H85 0.960 . S
C81 H86 0.961 . S
C81 H87 0.960 . S
C82 N80 1.346 . S
C82 N83 1.307 . S
C82 C84 1.486 . S
N83 N79 1.370 . S
N83 C82 1.307 . S
C84 C82 1.486 . S
C84 H88 0.960 . S
C84 H89 0.960 . S
C84 H90 0.959 . S
H85 C81 0.960 . S
H86 C81 0.961 . S
H87 C81 0.960 . S
H88 C84 0.960 . S
H89 C84 0.960 . S
H90 C84 0.959 . S
C91 N92 1.317 . S
C91 N93 1.348 . S
C91 C94 1.485 . S
N92 C91 1.317 . S
N92 N96 1.370 . S
N93 C91 1.348 . S
N93 C95 1.346 . S
C94 C91 1.485 . S
C94 H98 0.960 . S
C94 H99 0.961 . S
C94 H100 0.960 . S
C95 N93 1.346 . S
C95 N96 1.307 . S
C95 C97 1.486 . S
N96 N92 1.370 . S
N96 C95 1.307 . S
C97 C95 1.486 . S
C97 H101 0.960 . S
C97 H102 0.960 . S
C97 H103 0.959 . S
H98 C94 0.960 . S
H99 C94 0.961 . S
H100 C94 0.960 . S
H101 C97 0.960 . S
H102 C97 0.960 . S
H103 C97 0.959 . S
C104 N105 1.317 . S
C104 N106 1.348 . S
C104 C107 1.485 . S
N105 C104 1.317 . S
N105 N109 1.370 . S
N106 C104 1.348 . S
N106 C108 1.346 . S
C107 C104 1.485 . S
C107 H111 0.960 . S
C107 H112 0.961 . S
C107 H113 0.960 . S
C108 N106 1.346 . S
C108 N109 1.307 . S
C108 C110 1.486 . S
N109 N105 1.370 . S
N109 C108 1.307 . S
C110 C108 1.486 . S
C110 H114 0.960 . S
C110 H115 0.960 . S
C110 H116 0.959 . S
H111 C107 0.960 . S
H112 C107 0.961 . S
H113 C107 0.960 . S
H114 C110 0.960 . S
H115 C110 0.960 . S
H116 C110 0.959 . S
C117 N118 1.317 . S
C117 N119 1.348 . S
C117 C120 1.485 1_565 S
N118 C117 1.317 . S
N118 N122 1.370 . S
N119 C117 1.348 . S
N119 C121 1.346 . S
C120 C117 1.485 1_545 S
C120 H124 0.960 . S
C120 H125 0.961 . S
C120 H126 0.960 . S
C121 N119 1.346 . S
C121 N122 1.307 . S
C121 C123 1.486 . S
N122 N118 1.370 . S
N122 C121 1.307 . S
C123 C121 1.486 . S
C123 H127 0.960 . S
C123 H128 0.960 . S
C123 H129 0.959 . S
H124 C120 0.960 . S
H125 C120 0.961 . S
H126 C120 0.960 . S
H127 C123 0.960 . S
H128 C123 0.960 . S
H129 C123 0.959 . S
C130 N131 1.317 . S
C130 N132 1.348 . S
C130 C133 1.485 . S
N131 C130 1.317 . S
N131 N135 1.370 . S
N132 C130 1.348 . S
N132 C134 1.346 . S
C133 C130 1.485 . S
C133 H137 0.960 . S
C133 H138 0.961 . S
C133 H139 0.960 . S
C134 N132 1.346 . S
C134 N135 1.307 . S
C134 C136 1.486 . S
N135 N131 1.370 . S
N135 C134 1.307 . S
C136 C134 1.486 . S
C136 H140 0.960 . S
C136 H141 0.960 . S
C136 H142 0.959 . S
H137 C133 0.960 . S
H138 C133 0.961 . S
H139 C133 0.960 . S
H140 C136 0.960 . S
H141 C136 0.960 . S
H142 C136 0.959 . S
C143 N144 1.317 . S
C143 N145 1.348 . S
C143 C146 1.485 . S
N144 C143 1.317 . S
N144 N148 1.370 . S
N145 C143 1.348 . S
N145 C147 1.346 . S
C146 C143 1.485 . S
C146 H150 0.960 . S
C146 H151 0.961 . S
C146 H152 0.960 . S
C147 N145 1.346 . S
C147 N148 1.307 . S
C147 C149 1.486 . S
N148 N144 1.370 . S
N148 C147 1.307 . S
C149 C147 1.486 . S
C149 H153 0.960 . S
C149 H154 0.960 . S
C149 H155 0.959 . S
H150 C146 0.960 . S
H151 C146 0.961 . S
H152 C146 0.960 . S
H153 C149 0.960 . S
H154 C149 0.960 . S
H155 C149 0.959 . S
C156 N157 1.317 . S
C156 N158 1.348 . S
C156 C159 1.485 . S
N157 C156 1.317 . S
N157 N161 1.370 . S
N158 C156 1.348 . S
N158 C160 1.346 . S
C159 C156 1.485 . S
C159 H163 0.960 . S
C159 H164 0.961 . S
C159 H165 0.960 . S
C160 N158 1.346 . S
C160 N161 1.307 . S
C160 C162 1.486 . S
N161 N157 1.370 . S
N161 C160 1.307 . S
C162 C160 1.486 . S
C162 H166 0.960 . S
C162 H167 0.960 . S
C162 H168 0.959 . S
H163 C159 0.960 . S
H164 C159 0.961 . S
H165 C159 0.960 . S
H166 C162 0.960 . S
H167 C162 0.960 . S
H168 C162 0.959 . S
C169 N170 1.317 . S
C169 N171 1.348 . S
C169 C172 1.485 . S
N170 C169 1.317 . S
N170 N174 1.370 . S
N171 C169 1.348 . S
N171 C173 1.346 . S
C172 C169 1.485 . S
C172 H176 0.960 . S
C172 H177 0.961 . S
C172 H178 0.960 . S
C173 N171 1.346 . S
C173 N174 1.307 . S
C173 C175 1.486 . S
N174 N170 1.370 . S
N174 C173 1.307 . S
C175 C173 1.486 . S
C175 H179 0.960 . S
C175 H180 0.960 . S
C175 H181 0.959 . S
H176 C172 0.960 . S
H177 C172 0.961 . S
H178 C172 0.960 . S
H179 C175 0.960 . S
H180 C175 0.960 . S
H181 C175 0.959 . S
C182 N183 1.317 . S
C182 N184 1.348 . S
C182 C185 1.485 . S
N183 C182 1.317 . S
N183 N187 1.370 . S
N184 C182 1.348 . S
N184 C186 1.346 . S
C185 C182 1.485 . S
C185 H189 0.960 . S
C185 H190 0.961 . S
C185 H191 0.960 . S
C186 N184 1.346 . S
C186 N187 1.307 . S
C186 C188 1.486 . S
N187 N183 1.370 . S
N187 C186 1.307 . S
C188 C186 1.486 . S
C188 H192 0.960 . S
C188 H193 0.960 . S
C188 H194 0.959 . S
H189 C185 0.960 . S
H190 C185 0.961 . S
H191 C185 0.960 . S
H192 C188 0.960 . S
H193 C188 0.960 . S
H194 C188 0.959 . S
C195 N196 1.317 . S
C195 N197 1.348 . S
C195 C198 1.485 1_545 S
N196 C195 1.317 . S
N196 N200 1.370 . S
N197 C195 1.348 . S
N197 C199 1.346 1_556 S
C198 C195 1.485 1_565 S
C198 H202 0.960 . S
C198 H203 0.961 . S
C198 H204 0.960 . S
C199 N197 1.346 1_554 S
C199 N200 1.307 1_554 S
C199 C201 1.486 . S
N200 N196 1.370 . S
N200 C199 1.307 1_556 S
C201 C199 1.486 . S
C201 H205 0.960 . S
C201 H206 0.960 . S
C201 H207 0.959 . S
H202 C198 0.960 . S
H203 C198 0.961 . S
H204 C198 0.960 . S
H205 C201 0.960 . S
H206 C201 0.960 . S
H207 C201 0.959 . S
C208 O209 1.160 1_554 S
C208 O215 1.185 . S
O209 C208 1.160 1_556 S
O210 Zn211 1.899 1_556 S
O210 C218 1.284 . S
Zn211 O210 1.899 1_554 S
Zn211 O212 2.032 . S
Zn211 O215 2.086 . S
Zn211 O220 1.977 . S
O212 Zn211 2.032 . S
O212 C216 1.278 . S
C213 O214 1.203 . S
C213 O220 1.267 . S
O214 C213 1.203 . S
O215 C208 1.185 . S
O215 Zn211 2.086 . S
C216 O212 1.278 . S
C216 O217 1.211 . S
O217 C216 1.211 . S
C218 O210 1.284 . S
C218 O219 1.273 . S
O219 C218 1.273 . S
O220 Zn211 1.977 . S
O220 C213 1.267 . S
C221 O222 1.160 . S
C221 O228 1.185 . S
O222 C221 1.160 . S
O223 Zn224 1.899 . S
O223 C231 1.284 . S
Zn224 O223 1.899 . S
Zn224 O225 2.032 . S
Zn224 O228 2.086 . S
Zn224 O233 1.977 . S
O225 Zn224 2.032 . S
O225 C229 1.278 . S
C226 O227 1.203 . S
C226 O233 1.267 . S
O227 C226 1.203 . S
O228 C221 1.185 . S
O228 Zn224 2.086 . S
C229 O225 1.278 . S
C229 O230 1.211 . S
O230 C229 1.211 . S
C231 O223 1.284 . S
C231 O232 1.273 . S
O232 C231 1.273 . S
O233 Zn224 1.977 . S
O233 C226 1.267 . S
C234 O235 1.160 1_554 S
C234 O241 1.185 . S
O235 C234 1.160 1_556 S
O236 Zn237 1.899 1_556 S
O236 C244 1.284 . S
Zn237 O236 1.899 1_554 S
Zn237 O238 2.032 1_554 S
Zn237 O241 2.086 . S
Zn237 O246 1.977 . S
O238 Zn237 2.032 1_556 S
O238 C242 1.278 . S
C239 O240 1.203 . S
C239 O246 1.267 . S
O240 C239 1.203 . S
O241 C234 1.185 . S
O241 Zn237 2.086 . S
C242 O238 1.278 . S
C242 O243 1.211 1_556 S
O243 C242 1.211 1_554 S
C244 O236 1.284 . S
C244 O245 1.273 . S
O245 C244 1.273 . S
O246 Zn237 1.977 . S
O246 C239 1.267 . S
C247 O248 1.160 . S
C247 O254 1.185 . S
O248 C247 1.160 . S
O249 Zn250 1.899 . S
O249 C257 1.284 . S
Zn250 O249 1.899 . S
Zn250 O251 2.032 1_545 S
Zn250 O254 2.086 . S
Zn250 O259 1.977 . S
O251 Zn250 2.032 1_565 S
O251 C255 1.278 . S
C252 O253 1.203 1_545 S
C252 O259 1.267 . S
O253 C252 1.203 1_565 S
O254 C247 1.185 . S
O254 Zn250 2.086 . S
C255 O251 1.278 . S
C255 O256 1.211 . S
O256 C255 1.211 . S
C257 O249 1.284 . S
C257 O258 1.273 1_545 S
O258 C257 1.273 1_565 S
O259 Zn250 1.977 . S
O259 C252 1.267 . S
C260 O261 1.160 . S
C260 O267 1.185 . S
O261 C260 1.160 . S
O262 Zn263 1.899 . S
O262 C270 1.284 . S
Zn263 O262 1.899 . S
Zn263 O264 2.032 . S
Zn263 O267 2.086 . S
Zn263 O272 1.977 . S
O264 Zn263 2.032 . S
O264 C268 1.278 . S
C265 O266 1.203 . S
C265 O272 1.267 . S
O266 C265 1.203 . S
O267 C260 1.185 . S
O267 Zn263 2.086 . S
C268 O264 1.278 . S
C268 O269 1.211 . S
O269 C268 1.211 . S
C270 O262 1.284 . S
C270 O271 1.273 . S
O271 C270 1.273 . S
O272 Zn263 1.977 . S
O272 C265 1.267 . S
C273 O274 1.160 . S
C273 O280 1.185 . S
O274 C273 1.160 . S
O275 Zn276 1.899 . S
O275 C283 1.284 . S
Zn276 O275 1.899 . S
Zn276 O277 2.032 . S
Zn276 O280 2.086 . S
Zn276 O285 1.977 . S
O277 Zn276 2.032 . S
O277 C281 1.278 . S
C278 O279 1.203 . S
C278 O285 1.267 . S
O279 C278 1.203 . S
O280 C273 1.185 . S
O280 Zn276 2.086 . S
C281 O277 1.278 . S
C281 O282 1.211 . S
O282 C281 1.211 . S
C283 O275 1.284 . S
C283 O284 1.273 . S
O284 C283 1.273 . S
O285 Zn276 1.977 . S
O285 C278 1.267 . S
C286 O287 1.160 . S
C286 O293 1.185 . S
O287 C286 1.160 . S
O288 Zn289 1.899 . S
O288 C296 1.284 . S
Zn289 O288 1.899 . S
Zn289 O290 2.032 . S
Zn289 O293 2.086 . S
Zn289 O298 1.977 . S
O290 Zn289 2.032 . S
O290 C294 1.278 . S
C291 O292 1.203 . S
C291 O298 1.267 . S
O292 C291 1.203 . S
O293 C286 1.185 . S
O293 Zn289 2.086 . S
C294 O290 1.278 . S
C294 O295 1.211 . S
O295 C294 1.211 . S
C296 O288 1.284 . S
C296 O297 1.273 . S
O297 C296 1.273 . S
O298 Zn289 1.977 . S
O298 C291 1.267 . S
C299 O300 1.160 . S
C299 O306 1.185 . S
O300 C299 1.160 . S
O301 Zn302 1.899 . S
O301 C309 1.284 1_565 S
Zn302 O301 1.899 . S
Zn302 O303 2.032 1_565 S
Zn302 O306 2.086 . S
Zn302 O311 1.977 . S
O303 Zn302 2.032 1_545 S
O303 C307 1.278 . S
C304 O305 1.203 1_565 S
C304 O311 1.267 . S
O305 C304 1.203 1_545 S
O306 C299 1.185 . S
O306 Zn302 2.086 . S
C307 O303 1.278 . S
C307 O308 1.211 . S
O308 C307 1.211 . S
C309 O301 1.284 1_545 S
C309 O310 1.273 . S
O310 C309 1.273 . S
O311 Zn302 1.977 . S
O311 C304 1.267 . S
C312 O313 1.160 . S
C312 O319 1.185 1_655 S
O313 C312 1.160 . S
O314 Zn315 1.899 1_655 S
O314 C322 1.284 . S
Zn315 O314 1.899 1_455 S
Zn315 O316 2.032 1_455 S
Zn315 O319 2.086 . S
Zn315 O324 1.977 . S
O316 Zn315 2.032 1_655 S
O316 C320 1.277 1_655 S
C317 O318 1.203 . S
C317 O324 1.267 . S
O318 C317 1.203 . S
O319 C312 1.185 1_455 S
O319 Zn315 2.086 . S
C320 O316 1.277 1_455 S
C320 O321 1.213 . S
O321 C320 1.213 . S
C322 O314 1.284 . S
C322 O323 1.273 . S
O323 C322 1.273 . S
O324 Zn315 1.977 . S
O324 C317 1.267 . S
C325 O326 1.160 . S
C325 O332 1.185 . S
O326 C325 1.160 . S
O327 Zn328 1.899 . S
O327 C335 1.284 . S
Zn328 O327 1.899 . S
Zn328 O329 2.032 . S
Zn328 O332 2.086 . S
Zn328 O337 1.977 . S
O329 Zn328 2.032 . S
O329 C333 1.278 . S
C330 O331 1.203 . S
C330 O337 1.267 . S
O331 C330 1.203 . S
O332 C325 1.185 . S
O332 Zn328 2.086 . S
C333 O329 1.278 . S
C333 O334 1.211 . S
O334 C333 1.211 . S
C335 O327 1.284 . S
C335 O336 1.273 . S
O336 C335 1.273 . S
O337 Zn328 1.977 . S
O337 C330 1.267 . S
C338 O339 1.160 1_455 S
C338 O345 1.185 . S
O339 C338 1.160 1_655 S
O340 Zn341 1.899 1_655 S
O340 C348 1.284 . S
Zn341 O340 1.899 1_455 S
Zn341 O342 2.032 . S
Zn341 O345 2.086 . S
Zn341 O350 1.977 . S
O342 Zn341 2.032 . S
O342 C346 1.278 . S
C343 O344 1.203 . S
C343 O350 1.267 . S
O344 C343 1.203 . S
O345 C338 1.185 . S
O345 Zn341 2.086 . S
C346 O342 1.278 . S
C346 O347 1.211 . S
O347 C346 1.211 . S
C348 O340 1.284 . S
C348 O349 1.273 . S
O349 C348 1.273 . S
O350 Zn341 1.977 . S
O350 C343 1.267 . S
C351 O352 1.160 . S
C351 O358 1.185 . S
O352 C351 1.160 . S
O353 Zn354 1.899 . S
O353 C361 1.284 . S
Zn354 O353 1.899 . S
Zn354 O355 2.032 . S
Zn354 O358 2.086 . S
Zn354 O363 1.977 . S
O355 Zn354 2.032 . S
O355 C359 1.278 . S
C356 O357 1.203 . S
C356 O363 1.267 . S
O357 C356 1.203 . S
O358 C351 1.185 . S
O358 Zn354 2.086 . S
C359 O355 1.278 . S
C359 O360 1.211 . S
O360 C359 1.211 . S
C361 O353 1.284 . S
C361 O362 1.273 . S
O362 C361 1.273 . S
O363 Zn354 1.977 . S
O363 C356 1.267 . S
C364 C365 1.369 . S
C364 C366 1.419 . S
C364 H368 0.930 . S
C365 C364 1.369 . S
C365 C374 1.429 . S
C366 C364 1.419 . S
C366 C367 1.363 . S
C366 H369 0.929 . S
C367 C366 1.363 . S
C367 C373 1.428 . S
H368 C364 0.930 . S
H369 C366 0.929 . S
S370 N371 1.613 . S
S370 N372 1.610 . S
N371 S370 1.613 . S
N371 C374 1.350 . S
N372 S370 1.610 . S
N372 C373 1.351 . S
C373 C367 1.428 . S
C373 N372 1.351 . S
C373 C374 1.434 . S
C374 C365 1.429 . S
C374 N371 1.350 . S
C374 C373 1.434 . S
C375 C376 1.369 . S
C375 C377 1.419 . S
C375 H379 0.942 . S
C376 C375 1.369 . S
C376 C385 1.429 . S
C377 C375 1.419 . S
C377 C378 1.363 . S
C377 H380 0.929 . S
C378 C377 1.363 . S
C378 C384 1.428 . S
H379 C375 0.942 . S
H380 C377 0.929 . S
S381 N382 1.613 . S
S381 N383 1.610 . S
N382 S381 1.613 . S
N382 C385 1.350 . S
N383 S381 1.610 . S
N383 C384 1.351 . S
C384 C378 1.428 . S
C384 N383 1.351 . S
C384 C385 1.434 . S
C385 C376 1.429 . S
C385 N382 1.350 . S
C385 C384 1.434 . S
C386 C387 1.369 . S
C386 C388 1.419 . S
C386 H390 0.930 . S
C387 C386 1.369 . S
C387 C396 1.429 . S
C388 C386 1.419 . S
C388 C389 1.363 . S
C388 H391 0.929 . S
C389 C388 1.363 . S
C389 C395 1.428 . S
H390 C386 0.930 . S
H391 C388 0.929 . S
S392 N393 1.613 . S
S392 N394 1.610 . S
N393 S392 1.613 . S
N393 C396 1.350 . S
N394 S392 1.610 . S
N394 C395 1.351 . S
C395 C389 1.428 . S
C395 N394 1.351 . S
C395 C396 1.434 . S
C396 C387 1.429 . S
C396 N393 1.350 . S
C396 C395 1.434 . S
C397 C398 1.369 1_545 S
C397 C399 1.419 . S
C397 H401 0.930 . S
C398 C397 1.369 1_565 S
C398 C407 1.429 . S
C399 C397 1.419 . S
C399 C400 1.363 . S
C399 H402 0.929 . S
C400 C399 1.363 . S
C400 C406 1.428 1_545 S
H401 C397 0.930 . S
H402 C399 0.929 . S
S403 N404 1.609 1_655 S
S403 N405 1.610 . S
N404 S403 1.609 1_455 S
N404 C407 1.344 1_455 S
N405 S403 1.610 . S
N405 C406 1.351 . S
C406 C400 1.428 1_565 S
C406 N405 1.351 . S
C406 C407 1.434 . S
C407 C398 1.429 . S
C407 N404 1.344 1_655 S
C407 C406 1.434 . S
C408 C409 1.369 . S
C408 C410 1.419 . S
C408 H412 0.930 . S
C409 C408 1.369 . S
C409 C418 1.429 . S
C410 C408 1.419 . S
C410 C411 1.363 . S
C410 H413 0.929 . S
C411 C410 1.363 . S
C411 C417 1.428 . S
H412 C408 0.930 . S
H413 C410 0.929 . S
S414 N415 1.613 . S
S414 N416 1.610 . S
N415 S414 1.613 . S
N415 C418 1.350 . S
N416 S414 1.610 . S
N416 C417 1.351 . S
C417 C411 1.428 . S
C417 N416 1.351 . S
C417 C418 1.434 . S
C418 C409 1.429 . S
C418 N415 1.350 . S
C418 C417 1.434 . S
C419 C420 1.369 . S
C419 C421 1.419 . S
C419 H423 0.930 . S
C420 C419 1.369 . S
C420 C429 1.429 . S
C421 C419 1.419 . S
C421 C422 1.363 . S
C421 H424 0.929 . S
C422 C421 1.363 . S
C422 C428 1.428 . S
H423 C419 0.930 . S
H424 C421 0.929 . S
S425 N426 1.613 . S
S425 N427 1.610 . S
N426 S425 1.613 . S
N426 C429 1.350 . S
N427 S425 1.610 . S
N427 C428 1.351 . S
C428 C422 1.428 . S
C428 N427 1.351 . S
C428 C429 1.434 . S
C429 C420 1.429 . S
C429 N426 1.350 . S
C429 C428 1.434 . S
C430 C431 1.369 . S
C430 C432 1.419 . S
C430 H434 0.930 . S
C431 C430 1.369 . S
C431 C440 1.429 . S
C432 C430 1.419 . S
C432 C433 1.363 . S
C432 H435 0.929 . S
C433 C432 1.363 . S
C433 C439 1.428 . S
H434 C430 0.930 . S
H435 C432 0.929 . S
S436 N437 1.613 . S
S436 N438 1.610 . S
N437 S436 1.613 . S
N437 C440 1.350 . S
N438 S436 1.610 . S
N438 C439 1.351 . S
C439 C433 1.428 . S
C439 N438 1.351 . S
C439 C440 1.434 . S
C440 C431 1.429 . S
C440 N437 1.350 . S
C440 C439 1.434 . S
C441 C442 1.369 1_545 S
C441 C443 1.419 . S
C441 H445 0.930 . S
C442 C441 1.369 1_565 S
C442 C451 1.429 . S
C443 C441 1.419 . S
C443 C444 1.363 1_545 S
C443 H446 0.929 . S
C444 C443 1.363 1_565 S
C444 C450 1.428 . S
H445 C441 0.930 . S
H446 C443 0.929 . S
S447 N448 1.613 . S
S447 N449 1.610 . S
N448 S447 1.613 . S
N448 C451 1.350 . S
N449 S447 1.610 . S
N449 C450 1.351 . S
C450 C444 1.428 . S
C450 N449 1.351 . S
C450 C451 1.434 . S
C451 C442 1.429 . S
C451 N448 1.350 . S
C451 C450 1.434 . S
C452 C453 1.369 . S
C452 C454 1.419 . S
C452 H456 0.930 . S
C453 C452 1.369 . S
C453 C462 1.429 . S
C454 C452 1.419 . S
C454 C455 1.363 . S
C454 H457 0.929 . S
C455 C454 1.363 . S
C455 C461 1.428 . S
H456 C452 0.930 . S
H457 C454 0.929 . S
S458 N459 1.613 . S
S458 N460 1.610 . S
N459 S458 1.613 . S
N459 C462 1.350 . S
N460 S458 1.610 . S
N460 C461 1.351 . S
C461 C455 1.428 . S
C461 N460 1.351 . S
C461 C462 1.434 . S
C462 C453 1.429 . S
C462 N459 1.350 . S
C462 C461 1.434 . S
C463 C464 1.369 . S
C463 C465 1.419 . S
C463 H467 0.930 . S
C464 C463 1.369 . S
C464 C473 1.429 . S
C465 C463 1.419 . S
C465 C466 1.363 . S
C465 H468 0.929 . S
C466 C465 1.363 . S
C466 C472 1.428 . S
H467 C463 0.930 . S
H468 C465 0.929 . S
S469 N470 1.613 . S
S469 N471 1.610 . S
N470 S469 1.613 . S
N470 C473 1.350 . S
N471 S469 1.610 . S
N471 C472 1.351 . S
C472 C466 1.428 . S
C472 N471 1.351 . S
C472 C473 1.434 . S
C473 C464 1.429 . S
C473 N470 1.350 . S
C473 C472 1.434 . S
C474 C475 1.369 . S
C474 C476 1.419 . S
C474 H478 0.930 . S
C475 C474 1.369 . S
C475 C484 1.429 . S
C476 C474 1.419 . S
C476 C477 1.363 . S
C476 H479 0.929 . S
C477 C476 1.363 . S
C477 C483 1.428 . S
H478 C474 0.930 . S
H479 C476 0.929 . S
S480 N481 1.613 . S
S480 N482 1.610 . S
N481 S480 1.613 . S
N481 C484 1.350 . S
N482 S480 1.610 . S
N482 C483 1.351 . S
C483 C477 1.428 . S
C483 N482 1.351 . S
C483 C484 1.434 . S
C484 C475 1.429 . S
C484 N481 1.350 . S
C484 C483 1.434 . S
C485 C486 1.369 . S
C485 C487 1.419 . S
C485 H489 0.930 . S
C486 C485 1.369 . S
C486 C495 1.429 . S
C487 C485 1.419 . S
C487 C488 1.363 . S
C487 H490 0.929 . S
C488 C487 1.363 . S
C488 C494 1.428 . S
H489 C485 0.930 . S
H490 C487 0.929 . S
S491 N492 1.613 . S
S491 N493 1.610 . S
N492 S491 1.613 . S
N492 C495 1.350 . S
N493 S491 1.610 . S
N493 C494 1.351 . S
C494 C488 1.428 . S
C494 N493 1.351 . S
C494 C495 1.434 . S
C495 C486 1.429 . S
C495 N492 1.350 . S
C495 C494 1.434 . S
C496 C497 1.369 . S
C496 C498 1.419 . S
C496 H500 0.930 . S
C497 C496 1.369 . S
C497 C506 1.429 . S
C498 C496 1.419 . S
C498 C499 1.363 . S
C498 H501 0.929 . S
C499 C498 1.363 . S
C499 C505 1.428 . S
H500 C496 0.930 . S
H501 C498 0.929 . S
S502 N503 1.613 . S
S502 N504 1.610 . S
N503 S502 1.613 . S
N503 C506 1.350 . S
N504 S502 1.610 . S
N504 C505 1.351 . S
C505 C499 1.428 . S
C505 N504 1.351 . S
C505 C506 1.434 . S
C506 C497 1.429 . S
C506 N503 1.350 . S
C506 C505 1.434 . S
C507 C508 1.369 . S
C507 C509 1.419 . S
C507 H511 0.930 1_455 S
C508 C507 1.369 . S
C508 C517 1.429 . S
C509 C507 1.419 . S
C509 C510 1.363 . S
C509 H512 0.929 1_455 S
C510 C509 1.363 . S
C510 C516 1.428 . S
H511 C507 0.930 1_655 S
H512 C509 0.929 1_655 S
S513 N514 1.613 . S
S513 N515 1.610 . S
N514 S513 1.613 . S
N514 C517 1.350 . S
N515 S513 1.610 . S
N515 C516 1.351 . S
C516 C510 1.428 . S
C516 N515 1.351 . S
C516 C517 1.434 . S
C517 C508 1.429 . S
C517 N514 1.350 . S
C517 C516 1.434 . S
C518 C519 1.369 . S
C518 C520 1.419 . S
C518 H522 0.930 . S
C519 C518 1.369 . S
C519 C528 1.429 . S
C520 C518 1.419 . S
C520 C521 1.363 . S
C520 H523 0.929 . S
C521 C520 1.363 . S
C521 C527 1.428 . S
H522 C518 0.930 . S
H523 C520 0.929 . S
S524 N525 1.613 . S
S524 N526 1.610 . S
N525 S524 1.613 . S
N525 C528 1.350 . S
N526 S524 1.610 . S
N526 C527 1.351 . S
C527 C521 1.428 . S
C527 N526 1.351 . S
C527 C528 1.434 . S
C528 C519 1.429 . S
C528 N525 1.350 . S
C528 C527 1.434 . S
C529 C530 1.369 1_455 S
C529 C531 1.419 . S
C529 H533 0.930 . S
C530 C529 1.369 1_655 S
C530 C539 1.429 . S
C531 C529 1.419 . S
C531 C532 1.363 1_455 S
C531 H534 0.929 . S
C532 C531 1.363 1_655 S
C532 C538 1.428 . S
H533 C529 0.930 . S
H534 C531 0.929 . S
S535 N536 1.613 . S
S535 N537 1.610 . S
N536 S535 1.613 . S
N536 C539 1.350 . S
N537 S535 1.610 . S
N537 C538 1.351 . S
C538 C532 1.428 . S
C538 N537 1.351 . S
C538 C539 1.434 . S
C539 C530 1.429 . S
C539 N536 1.350 . S
C539 C538 1.434 . S
C540 C541 1.369 . S
C540 C542 1.419 . S
C540 H544 0.930 . S
C541 C540 1.369 . S
C541 C550 1.429 . S
C542 C540 1.419 . S
C542 C543 1.363 . S
C542 H545 0.929 . S
C543 C542 1.363 . S
C543 C549 1.428 . S
H544 C540 0.930 . S
H545 C542 0.929 . S
S546 N547 1.613 . S
S546 N548 1.610 . S
N547 S546 1.613 . S
N547 C550 1.350 . S
N548 S546 1.610 . S
N548 C549 1.351 . S
C549 C543 1.428 . S
C549 N548 1.351 . S
C549 C550 1.434 . S
C550 C541 1.429 . S
C550 N547 1.350 . S
C550 C549 1.434 . S
C551 C552 1.369 . S
C551 C553 1.419 . S
C551 H555 0.930 . S
C552 C551 1.369 . S
C552 C561 1.429 . S
C553 C551 1.419 . S
C553 C554 1.363 . S
C553 H556 0.929 . S
C554 C553 1.363 . S
C554 C560 1.428 . S
H555 C551 0.930 . S
H556 C553 0.929 . S
S557 N558 1.613 . S
S557 N559 1.610 . S
N558 S557 1.613 . S
N558 C561 1.350 . S
N559 S557 1.610 . S
N559 C560 1.351 . S
C560 C554 1.428 . S
C560 N559 1.351 . S
C560 C561 1.434 . S
C561 C552 1.429 . S
C561 N558 1.350 . S
C561 C560 1.434 . S
C562 C563 1.369 . S
C562 C564 1.419 . S
C562 H566 0.930 . S
C563 C562 1.369 . S
C563 C572 1.429 1_566 S
C564 C562 1.419 . S
C564 C565 1.363 1_556 S
C564 H567 0.929 . S
C565 C564 1.363 1_554 S
C565 C571 1.428 . S
H566 C562 0.930 . S
H567 C564 0.929 . S
S568 N569 1.613 . S
S568 N570 1.610 . S
N569 S568 1.613 . S
N569 C572 1.350 . S
N570 S568 1.610 . S
N570 C571 1.351 1_545 S
C571 C565 1.428 . S
C571 N570 1.351 1_565 S
C571 C572 1.434 1_565 S
C572 C563 1.429 1_544 S
C572 N569 1.350 . S
C572 C571 1.434 1_545 S
C573 C574 1.369 . S
C573 C575 1.419 . S
C573 H577 0.930 . S
C574 C573 1.369 . S
C574 C583 1.429 . S
C575 C573 1.419 . S
C575 C576 1.363 . S
C575 H578 0.929 . S
C576 C575 1.363 . S
C576 C582 1.428 . S
H577 C573 0.930 . S
H578 C575 0.929 . S
S579 N580 1.613 . S
S579 N581 1.610 . S
N580 S579 1.613 . S
N580 C583 1.350 . S
N581 S579 1.610 . S
N581 C582 1.351 . S
C582 C576 1.428 . S
C582 N581 1.351 . S
C582 C583 1.434 . S
C583 C574 1.429 . S
C583 N580 1.350 . S
C583 C582 1.434 . S
C584 C585 1.369 . S
C584 C586 1.419 . S
C584 H588 0.930 . S
C585 C584 1.369 . S
C585 C594 1.429 . S
C586 C584 1.419 . S
C586 C587 1.363 . S
C586 H589 0.929 . S
C587 C586 1.363 . S
C587 C593 1.428 . S
H588 C584 0.930 . S
H589 C586 0.929 . S
S590 N591 1.613 . S
S590 N592 1.599 1_565 S
N591 S590 1.613 . S
N591 C594 1.350 1_565 S
N592 S590 1.599 1_545 S
N592 C593 1.351 . S
C593 C587 1.428 . S
C593 N592 1.351 . S
C593 C594 1.434 . S
C594 C585 1.429 . S
C594 N591 1.350 1_545 S
C594 C593 1.434 . S
C595 C596 1.369 . S
C595 C597 1.419 . S
C595 H599 0.930 . S
C596 C595 1.369 . S
C596 C605 1.429 . S
C597 C595 1.419 . S
C597 C598 1.363 . S
C597 H600 0.929 . S
C598 C597 1.363 . S
C598 C604 1.428 . S
H599 C595 0.930 . S
H600 C597 0.929 . S
S601 N602 1.613 . S
S601 N603 1.610 . S
N602 S601 1.613 . S
N602 C605 1.350 . S
N603 S601 1.610 . S
N603 C604 1.351 . S
C604 C598 1.428 . S
C604 N603 1.351 . S
C604 C605 1.434 . S
C605 C596 1.429 . S
C605 N602 1.350 . S
C605 C604 1.434 . S
C606 C607 1.369 . S
C606 C608 1.419 . S
C606 H610 0.930 . S
C607 C606 1.369 . S
C607 C616 1.429 . S
C608 C606 1.419 . S
C608 C609 1.363 . S
C608 H611 0.929 . S
C609 C608 1.363 . S
C609 C615 1.428 . S
H610 C606 0.930 . S
H611 C608 0.929 . S
S612 N613 1.613 . S
S612 N614 1.610 . S
N613 S612 1.613 . S
N613 C616 1.350 . S
N614 S612 1.610 . S
N614 C615 1.351 . S
C615 C609 1.428 . S
C615 N614 1.351 . S
C615 C616 1.434 . S
C616 C607 1.429 . S
C616 N613 1.350 . S
C616 C615 1.434 . S
C617 C618 1.369 . S
C617 C619 1.419 . S
C617 H621 0.930 . S
C618 C617 1.369 . S
C618 C627 1.429 . S
C619 C617 1.419 . S
C619 C620 1.363 . S
C619 H622 0.929 . S
C620 C619 1.363 . S
C620 C626 1.428 . S
H621 C617 0.930 . S
H622 C619 0.929 . S
S623 N624 1.613 . S
S623 N625 1.610 . S
N624 S623 1.613 . S
N624 C627 1.350 . S
N625 S623 1.610 . S
N625 C626 1.351 . S
C626 C620 1.428 . S
C626 N625 1.351 . S
C626 C627 1.434 . S
C627 C618 1.429 . S
C627 N624 1.350 . S
C627 C626 1.434 . S
C628 C629 1.369 . S
C628 C630 1.419 . S
C628 H632 0.930 . S
C629 C628 1.369 . S
C629 C638 1.429 . S
C630 C628 1.419 . S
C630 C631 1.363 . S
C630 H633 0.929 . S
C631 C630 1.363 . S
C631 C637 1.428 . S
H632 C628 0.930 . S
H633 C630 0.929 . S
S634 N635 1.613 . S
S634 N636 1.610 . S
N635 S634 1.613 . S
N635 C638 1.350 . S
N636 S634 1.610 . S
N636 C637 1.351 . S
C637 C631 1.428 . S
C637 N636 1.351 . S
C637 C638 1.434 . S
C638 C629 1.429 . S
C638 N635 1.350 . S
C638 C637 1.434 . S
C639 C640 1.369 . S
C639 C641 1.419 . S
C639 H643 0.930 . S
C640 C639 1.369 . S
C640 C649 1.429 . S
C641 C639 1.419 . S
C641 C642 1.363 . S
C641 H644 0.929 . S
C642 C641 1.363 . S
C642 C648 1.428 . S
H643 C639 0.930 . S
H644 C641 0.929 . S
S645 N646 1.613 . S
S645 N647 1.610 . S
N646 S645 1.613 . S
N646 C649 1.350 . S
N647 S645 1.610 . S
N647 C648 1.351 . S
C648 C642 1.428 . S
C648 N647 1.351 . S
C648 C649 1.434 . S
C649 C640 1.429 . S
C649 N646 1.350 . S
C649 C648 1.434 . S
C650 C651 1.369 . S
C650 C652 1.419 . S
C650 H654 0.930 . S
C651 C650 1.369 . S
C651 C660 1.429 . S
C652 C650 1.419 . S
C652 C653 1.363 . S
C652 H655 0.929 . S
C653 C652 1.363 . S
C653 C659 1.428 . S
H654 C650 0.930 . S
H655 C652 0.929 . S
S656 N657 1.613 . S
S656 N658 1.610 . S
N657 S656 1.613 . S
N657 C660 1.350 . S
N658 S656 1.610 . S
N658 C659 1.351 . S
C659 C653 1.428 . S
C659 N658 1.351 . S
C659 C660 1.434 . S
C660 C651 1.429 . S
C660 N657 1.350 . S
C660 C659 1.434 . S
C661 C662 1.369 . S
C661 C663 1.419 . S
C661 H665 0.930 . S
C662 C661 1.369 . S
C662 C671 1.429 . S
C663 C661 1.419 . S
C663 C664 1.363 . S
C663 H666 0.929 . S
C664 C663 1.363 . S
C664 C670 1.428 . S
H665 C661 0.930 . S
H666 C663 0.929 . S
S667 N668 1.613 . S
S667 N669 1.610 . S
N668 S667 1.613 . S
N668 C671 1.350 . S
N669 S667 1.610 . S
N669 C670 1.351 . S
C670 C664 1.428 . S
C670 N669 1.351 . S
C670 C671 1.434 . S
C671 C662 1.429 . S
C671 N668 1.350 . S
C671 C670 1.434 . S
C672 C673 1.369 . S
C672 C674 1.419 . S
C672 H676 0.930 . S
C673 C672 1.369 . S
C673 C682 1.429 . S
C674 C672 1.419 . S
C674 C675 1.363 . S
C674 H677 0.929 . S
C675 C674 1.363 . S
C675 C681 1.428 . S
H676 C672 0.930 . S
H677 C674 0.929 . S
S678 N679 1.613 . S
S678 N680 1.610 . S
N679 S678 1.613 . S
N679 C682 1.350 . S
N680 S678 1.610 . S
N680 C681 1.351 . S
C681 C675 1.428 . S
C681 N680 1.351 . S
C681 C682 1.434 . S
C682 C673 1.429 . S
C682 N679 1.350 . S
C682 C681 1.434 . S
C683 C684 1.369 . S
C683 C685 1.419 . S
C683 H687 0.930 . S
C684 C683 1.369 . S
C684 C693 1.429 . S
C685 C683 1.419 . S
C685 C686 1.363 . S
C685 H688 0.929 . S
C686 C685 1.363 . S
C686 C692 1.428 . S
H687 C683 0.930 . S
H688 C685 0.929 . S
S689 N690 1.620 . S
S689 N691 1.614 1_455 S
N690 S689 1.620 . S
N690 C693 1.350 1_455 S
N691 S689 1.614 1_655 S
N691 C692 1.351 . S
C692 C686 1.428 . S
C692 N691 1.351 . S
C692 C693 1.434 . S
C693 C684 1.429 . S
C693 N690 1.350 1_655 S
C693 C692 1.434 . S
C694 C695 1.369 . S
C694 C696 1.419 . S
C694 H698 0.930 . S
C695 C694 1.369 . S
C695 C704 1.429 . S
C696 C694 1.419 . S
C696 C697 1.363 . S
C696 H699 0.929 . S
C697 C696 1.363 . S
C697 C703 1.428 . S
H698 C694 0.930 . S
H699 C696 0.929 . S
S700 N701 1.613 . S
S700 N702 1.610 . S
N701 S700 1.613 . S
N701 C704 1.350 . S
N702 S700 1.610 . S
N702 C703 1.351 . S
C703 C697 1.428 . S
C703 N702 1.351 . S
C703 C704 1.434 . S
C704 C695 1.429 . S
C704 N701 1.350 . S
C704 C703 1.434 . S
C705 C706 1.369 . S
C705 C707 1.419 . S
C705 H709 0.930 . S
C706 C705 1.369 . S
C706 C715 1.429 . S
C707 C705 1.419 . S
C707 C708 1.363 . S
C707 H710 0.929 . S
C708 C707 1.363 . S
C708 C714 1.428 . S
H709 C705 0.930 . S
H710 C707 0.929 . S
S711 N712 1.613 . S
S711 N713 1.610 1_655 S
N712 S711 1.613 . S
N712 C715 1.350 1_655 S
N713 S711 1.610 1_455 S
N713 C714 1.351 . S
C714 C708 1.428 . S
C714 N713 1.351 . S
C714 C715 1.434 . S
C715 C706 1.429 . S
C715 N712 1.350 1_455 S
C715 C714 1.434 . S
C716 C717 1.369 . S
C716 C718 1.419 . S
C716 H720 0.930 . S
C717 C716 1.369 . S
C717 C726 1.429 . S
C718 C716 1.419 . S
C718 C719 1.363 . S
C718 H721 0.929 . S
C719 C718 1.363 . S
C719 C725 1.428 . S
H720 C716 0.930 . S
H721 C718 0.929 . S
S722 N723 1.613 . S
S722 N724 1.610 . S
N723 S722 1.613 . S
N723 C726 1.350 . S
N724 S722 1.610 . S
N724 C725 1.351 . S
C725 C719 1.428 . S
C725 N724 1.351 . S
C725 C726 1.434 . S
C726 C717 1.429 . S
C726 N723 1.350 . S
C726 C725 1.434 . S
C727 C728 1.360 1_456 S
C727 C729 1.422 . S
C727 H731 0.936 . S
C728 C727 1.360 1_654 S
C728 C737 1.429 . S
C729 C727 1.422 . S
C729 C730 1.363 1_455 S
C729 H732 0.929 . S
C730 C729 1.363 1_655 S
C730 C736 1.428 1_556 S
H731 C727 0.936 . S
H732 C729 0.929 . S
S733 N734 1.613 . S
S733 N735 1.610 . S
N734 S733 1.613 . S
N734 C737 1.350 . S
N735 S733 1.610 . S
N735 C736 1.351 . S
C736 C730 1.428 1_554 S
C736 N735 1.351 . S
C736 C737 1.434 . S
C737 C728 1.429 . S
C737 N734 1.350 . S
C737 C736 1.434 . S
C738 C739 1.369 . S
C738 C740 1.419 . S
C738 H742 0.930 . S
C739 C738 1.369 . S
C739 C748 1.429 . S
C740 C738 1.419 . S
C740 C741 1.363 . S
C740 H743 0.929 . S
C741 C740 1.363 . S
C741 C747 1.428 . S
H742 C738 0.930 . S
H743 C740 0.929 . S
S744 N745 1.613 . S
S744 N746 1.610 . S
N745 S744 1.613 . S
N745 C748 1.350 . S
N746 S744 1.610 . S
N746 C747 1.351 . S
C747 C741 1.428 . S
C747 N746 1.351 . S
C747 C748 1.434 . S
C748 C739 1.429 . S
C748 N745 1.350 . S
C748 C747 1.434 . S
C749 C750 1.369 . S
C749 C751 1.419 . S
C749 H753 0.930 . S
C750 C749 1.369 . S
C750 C759 1.429 1_454 S
C751 C749 1.419 . S
C751 C752 1.363 1_554 S
C751 H754 0.929 . S
C752 C751 1.363 1_556 S
C752 C758 1.428 1_455 S
H753 C749 0.930 . S
H754 C751 0.929 . S
S755 N756 1.613 . S
S755 N757 1.610 . S
N756 S755 1.613 . S
N756 C759 1.350 . S
N757 S755 1.610 . S
N757 C758 1.351 . S
C758 C752 1.428 1_655 S
C758 N757 1.351 . S
C758 C759 1.434 . S
C759 C750 1.429 1_656 S
C759 N756 1.350 . S
C759 C758 1.434 . S
C760 C761 1.369 . S
C760 C762 1.419 . S
C760 H764 0.930 . S
C761 C760 1.369 . S
C761 C770 1.429 . S
C762 C760 1.419 . S
C762 C763 1.363 . S
C762 H765 0.929 . S
C763 C762 1.363 . S
C763 C769 1.428 . S
H764 C760 0.930 . S
H765 C762 0.929 . S
S766 N767 1.613 . S
S766 N768 1.610 . S
N767 S766 1.613 . S
N767 C770 1.350 . S
N768 S766 1.610 . S
N768 C769 1.351 . S
C769 C763 1.428 . S
C769 N768 1.351 . S
C769 C770 1.434 . S
C770 C761 1.429 . S
C770 N767 1.350 . S
C770 C769 1.434 . S
C771 C772 1.369 . S
C771 C773 1.419 . S
C771 H775 0.930 . S
C772 C771 1.369 . S
C772 C781 1.429 . S
C773 C771 1.419 . S
C773 C774 1.363 . S
C773 H776 0.929 . S
C774 C773 1.363 . S
C774 C780 1.428 . S
H775 C771 0.930 . S
H776 C773 0.929 . S
S777 N778 1.613 1_554 S
S777 N779 1.610 . S
N778 S777 1.613 1_556 S
N778 C781 1.350 1_556 S
N779 S777 1.610 . S
N779 C780 1.351 . S
C780 C774 1.428 . S
C780 N779 1.351 . S
C780 C781 1.434 . S
C781 C772 1.429 . S
C781 N778 1.350 1_554 S
C781 C780 1.434 . S
C782 C783 1.369 . S
C782 C784 1.419 . S
C782 H786 0.930 . S
C783 C782 1.369 . S
C783 C792 1.429 . S
C784 C782 1.419 . S
C784 C785 1.363 . S
C784 H787 0.929 . S
C785 C784 1.363 . S
C785 C791 1.428 . S
H786 C782 0.930 . S
H787 C784 0.929 . S
S788 N789 1.613 . S
S788 N790 1.610 . S
N789 S788 1.613 . S
N789 C792 1.350 . S
N790 S788 1.610 . S
N790 C791 1.351 . S
C791 C785 1.428 . S
C791 N790 1.351 . S
C791 C792 1.434 . S
C792 C783 1.429 . S
C792 N789 1.350 . S
C792 C791 1.434 . S
C793 C794 1.369 . S
C793 C795 1.419 . S
C793 H797 0.930 . S
C794 C793 1.369 . S
C794 C803 1.429 1_554 S
C795 C793 1.419 . S
C795 C796 1.363 . S
C795 H798 0.929 . S
C796 C795 1.363 . S
C796 C802 1.428 . S
H797 C793 0.930 . S
H798 C795 0.929 . S
S799 N800 1.613 . S
S799 N801 1.610 1_556 S
N800 S799 1.613 . S
N800 C803 1.350 . S
N801 S799 1.610 1_554 S
N801 C802 1.351 . S
C802 C796 1.428 . S
C802 N801 1.351 . S
C802 C803 1.434 1_554 S
C803 C794 1.429 1_556 S
C803 N800 1.350 . S
C803 C802 1.434 1_556 S
C804 C805 1.369 . S
C804 C806 1.419 . S
C804 H808 0.930 . S
C805 C804 1.369 . S
C805 C814 1.429 . S
C806 C804 1.419 . S
C806 C807 1.363 . S
C806 H809 0.929 . S
C807 C806 1.363 . S
C807 C813 1.428 . S
H808 C804 0.930 . S
H809 C806 0.929 . S
S810 N811 1.613 . S
S810 N812 1.610 . S
N811 S810 1.613 . S
N811 C814 1.350 . S
N812 S810 1.610 . S
N812 C813 1.351 . S
C813 C807 1.428 . S
C813 N812 1.351 . S
C813 C814 1.434 . S
C814 C805 1.429 . S
C814 N811 1.350 . S
C814 C813 1.434 . S
C815 C816 1.369 . S
C815 C817 1.419 . S
C815 H819 0.930 . S
C816 C815 1.369 . S
C816 C825 1.429 . S
C817 C815 1.419 . S
C817 C818 1.363 . S
C817 H820 0.929 . S
C818 C817 1.363 . S
C818 C824 1.428 . S
H819 C815 0.930 . S
H820 C817 0.929 . S
S821 N822 1.613 . S
S821 N823 1.610 . S
N822 S821 1.613 . S
N822 C825 1.350 . S
N823 S821 1.610 . S
N823 C824 1.351 . S
C824 C818 1.428 . S
C824 N823 1.351 . S
C824 C825 1.434 . S
C825 C816 1.429 . S
C825 N822 1.350 . S
C825 C824 1.434 . S
C826 C827 1.369 . S
C826 C828 1.419 . S
C826 H830 0.930 . S
C827 C826 1.369 . S
C827 C836 1.429 . S
C828 C826 1.419 . S
C828 C829 1.363 . S
C828 H831 0.929 . S
C829 C828 1.363 . S
C829 C835 1.428 . S
H830 C826 0.930 . S
H831 C828 0.929 . S
S832 N833 1.613 . S
S832 N834 1.610 . S
N833 S832 1.613 . S
N833 C836 1.350 . S
N834 S832 1.610 . S
N834 C835 1.351 . S
C835 C829 1.428 . S
C835 N834 1.351 . S
C835 C836 1.434 . S
C836 C827 1.429 . S
C836 N833 1.350 . S
C836 C835 1.434 . S
C837 C838 1.369 . S
C837 C839 1.419 . S
C837 H841 0.930 . S
C838 C837 1.369 . S
C838 C847 1.429 . S
C839 C837 1.419 . S
C839 C840 1.363 . S
C839 H842 0.929 . S
C840 C839 1.363 . S
C840 C846 1.428 . S
H841 C837 0.930 . S
H842 C839 0.929 . S
S843 N844 1.613 . S
S843 N845 1.610 . S
N844 S843 1.613 . S
N844 C847 1.350 . S
N845 S843 1.610 . S
N845 C846 1.351 . S
C846 C840 1.428 . S
C846 N845 1.351 . S
C846 C847 1.434 . S
C847 C838 1.429 . S
C847 N844 1.350 . S
C847 C846 1.434 . S
C848 C849 1.369 . S
C848 C850 1.419 . S
C848 H852 0.931 . S
C849 C848 1.369 . S
C849 C858 1.429 . S
C850 C848 1.419 . S
C850 C851 1.363 . S
C850 H853 0.921 1_556 S
C851 C850 1.363 . S
C851 C857 1.428 . S
H852 C848 0.931 . S
H853 C850 0.921 1_554 S
S854 N855 1.613 . S
S854 N856 1.610 . S
N855 S854 1.613 . S
N855 C858 1.350 . S
N856 S854 1.610 . S
N856 C857 1.351 . S
C857 C851 1.428 . S
C857 N856 1.351 . S
C857 C858 1.434 . S
C858 C849 1.429 . S
C858 N855 1.350 . S
C858 C857 1.434 . S
C859 C860 1.369 . S
C859 C861 1.419 . S
C859 H863 0.930 . S
C860 C859 1.369 . S
C860 C869 1.429 . S
C861 C859 1.419 . S
C861 C862 1.363 . S
C861 H864 0.929 . S
C862 C861 1.363 . S
C862 C868 1.428 . S
H863 C859 0.930 . S
H864 C861 0.929 . S
S865 N866 1.613 . S
S865 N867 1.610 . S
N866 S865 1.613 . S
N866 C869 1.350 . S
N867 S865 1.610 . S
N867 C868 1.351 . S
C868 C862 1.428 . S
C868 N867 1.351 . S
C868 C869 1.434 . S
C869 C860 1.429 . S
C869 N866 1.350 . S
C869 C868 1.434 . S
C870 C871 1.369 . S
C870 C872 1.419 . S
C870 H874 0.930 . S
C871 C870 1.369 . S
C871 C880 1.429 . S
C872 C870 1.419 . S
C872 C873 1.363 . S
C872 H875 0.929 . S
C873 C872 1.363 . S
C873 C879 1.428 . S
H874 C870 0.930 . S
H875 C872 0.929 . S
S876 N877 1.613 1_556 S
S876 N878 1.610 . S
N877 S876 1.613 1_554 S
N877 C880 1.350 . S
N878 S876 1.610 . S
N878 C879 1.351 1_556 S
C879 C873 1.428 . S
C879 N878 1.351 1_554 S
C879 C880 1.434 . S
C880 C871 1.429 . S
C880 N877 1.350 . S
C880 C879 1.434 . S
C881 C882 1.369 . S
C881 C883 1.419 . S
C881 H885 0.930 1_554 S
C882 C881 1.369 . S
C882 C891 1.429 1_565 S
C883 C881 1.419 . S
C883 C884 1.363 . S
C883 H886 0.929 1_554 S
C884 C883 1.363 . S
C884 C890 1.428 . S
H885 C881 0.930 1_556 S
H886 C883 0.929 1_556 S
S887 N888 1.613 . S
S887 N889 1.610 1_545 S
N888 S887 1.613 . S
N888 C891 1.349 . S
N889 S887 1.610 1_565 S
N889 C890 1.351 . S
C890 C884 1.428 . S
C890 N889 1.351 . S
C890 C891 1.435 1_565 S
C891 C882 1.429 1_545 S
C891 N888 1.349 . S
C891 C890 1.435 1_545 S
C367 C218 1.278 . S
C365 N66 1.256 . S
C378 C231 1.614 . S
C376 N79 1.600 1_455 S
C387 N92 1.689 . S
C389 C244 1.702 . S
C400 C257 1.406 . S
C398 N54 1.429 1_655 S
C411 C265 1.494 . S
C409 N131 1.496 . S
C422 C278 1.214 . S
C420 N158 1.232 . S
C431 N145 1.554 . S
C433 C291 1.534 . S
C444 C304 1.668 . S
C442 N118 1.666 . S
C453 N148 1.785 . S
C455 C322 1.741 . S
C466 C333 1.566 . S
C464 N122 1.592 . S
C475 N132 1.290 . S
C477 C317 1.256 . S
C488 C325 1.485 . S
C486 N161 1.451 . S
C497 N96 1.777 . S
C499 C348 1.803 . S
C508 N53 1.642 . S
C510 C338 1.631 . S
C519 N67 1.218 . S
C521 C343 1.187 . S
C530 N83 1.426 . S
C532 C346 1.431 1_655 S
C541 N44 1.399 . S
C543 C255 1.384 . S
C552 N187 1.452 . S
C554 C247 1.459 . S
C565 C216 1.309 . S
C563 N197 1.333 1_565 S
C576 C221 1.374 . S
C574 N106 1.387 . S
C585 N57 1.752 1_545 S
C587 C268 1.698 . S
C598 C307 1.480 . S
C596 N144 1.483 . S
C609 C260 1.431 . S
C607 N119 1.439 1_545 S
C620 C286 1.639 . S
C618 N157 1.661 . S
C631 C296 1.280 . S
C629 N183 1.255 . S
C640 N196 1.601 . S
C642 C309 1.613 . S
C651 N105 1.691 . S
C653 C270 1.703 . S
C664 C283 1.409 . S
C662 N171 1.428 . S
C673 N40 1.498 . S
C675 C239 1.492 . S
C686 C252 1.214 . S
C684 N2 1.232 . S
C697 C213 1.537 . S
C695 N15 1.555 . S
C708 C226 1.666 . S
C706 N27 1.661 1_455 S
C717 N18 1.786 . S
C719 C335 1.746 . S
C728 N31 1.592 . S
C730 C320 1.565 1_655 S
C739 N41 1.290 . S
C741 C330 1.258 . S
C750 N5 1.455 . S
C752 C312 1.481 1_455 S
C763 C361 1.805 . S
C761 N109 1.778 . S
C774 C351 1.631 . S
C772 N170 1.641 1_554 S
C785 C356 1.187 . S
C783 N184 1.219 . S
C794 N200 1.430 1_554 S
C796 C359 1.429 . S
C805 N135 1.395 . S
C807 C281 1.388 . S
C818 C273 1.459 . S
C816 N70 1.453 . S
C829 C294 1.310 . S
C827 N80 1.335 . S
C840 C299 1.374 . S
C838 N93 1.387 . S
C849 N174 1.746 . S
C851 C242 1.700 . S
C862 C229 1.484 . S
C860 N14 1.484 . S
C871 N28 1.438 . S
C873 C234 1.430 . S
C884 C208 1.641 . S
C882 N1 1.658 1_565 S
