# Generated by pormake.
# Topology ctn, (3,4)-cn, num edge types: 1
# Building blocks:
#     Node 0, Type 0, BuildingBlock: VETTIZ_charged_linker_0, # of connection points: 3
#     Node 1, Type 0, BuildingBlock: VETTIZ_charged_linker_0, # of connection points: 3
#     Node 2, Type 0, BuildingBlock: VETTIZ_charged_linker_0, # of connection points: 3
#     Node 3, Type 0, BuildingBlock: VETTIZ_charged_linker_0, # of connection points: 3
#     Node 4, Type 0, BuildingBlock: VETTIZ_charged_linker_0, # of connection points: 3
#     Node 5, Type 0, BuildingBlock: VETTIZ_charged_linker_0, # of connection points: 3
#     Node 6, Type 0, BuildingBlock: VETTIZ_charged_linker_0, # of connection points: 3
#     Node 7, Type 0, BuildingBlock: VETTIZ_charged_linker_0, # of connection points: 3
#     Node 8, Type 0, BuildingBlock: VETTIZ_charged_linker_0, # of connection points: 3
#     Node 9, Type 0, BuildingBlock: VETTIZ_charged_linker_0, # of connection points: 3
#     Node 10, Type 0, BuildingBlock: VETTIZ_charged_linker_0, # of connection points: 3
#     Node 11, Type 0, BuildingBlock: VETTIZ_charged_linker_0, # of connection points: 3
#     Node 12, Type 0, BuildingBlock: VETTIZ_charged_linker_0, # of connection points: 3
#     Node 13, Type 0, BuildingBlock: VETTIZ_charged_linker_0, # of connection points: 3
#     Node 14, Type 0, BuildingBlock: VETTIZ_charged_linker_0, # of connection points: 3
#     Node 15, Type 0, BuildingBlock: VETTIZ_charged_linker_0, # of connection points: 3
#     Node 16, Type 1, BuildingBlock: QUQFOY_clean_sbu_1, # of connection points: 4
#     Node 17, Type 1, BuildingBlock: QUQFOY_clean_sbu_1, # of connection points: 4
#     Node 18, Type 1, BuildingBlock: QUQFOY_clean_sbu_1, # of connection points: 4
#     Node 19, Type 1, BuildingBlock: QUQFOY_clean_sbu_1, # of connection points: 4
#     Node 20, Type 1, BuildingBlock: QUQFOY_clean_sbu_1, # of connection points: 4
#     Node 21, Type 1, BuildingBlock: QUQFOY_clean_sbu_1, # of connection points: 4
#     Node 22, Type 1, BuildingBlock: QUQFOY_clean_sbu_1, # of connection points: 4
#     Node 23, Type 1, BuildingBlock: QUQFOY_clean_sbu_1, # of connection points: 4
#     Node 24, Type 1, BuildingBlock: QUQFOY_clean_sbu_1, # of connection points: 4
#     Node 25, Type 1, BuildingBlock: QUQFOY_clean_sbu_1, # of connection points: 4
#     Node 26, Type 1, BuildingBlock: QUQFOY_clean_sbu_1, # of connection points: 4
#     Node 27, Type 1, BuildingBlock: QUQFOY_clean_sbu_1, # of connection points: 4
#     Edge 28, Type (0, 1), BuildingBlock: UVAHIK_clean_linker_0, # of connection points: 2
#     Edge 29, Type (0, 1), BuildingBlock: UVAHIK_clean_linker_0, # of connection points: 2
#     Edge 30, Type (0, 1), BuildingBlock: UVAHIK_clean_linker_0, # of connection points: 2
#     Edge 31, Type (0, 1), BuildingBlock: UVAHIK_clean_linker_0, # of connection points: 2
#     Edge 32, Type (0, 1), BuildingBlock: UVAHIK_clean_linker_0, # of connection points: 2
#     Edge 33, Type (0, 1), BuildingBlock: UVAHIK_clean_linker_0, # of connection points: 2
#     Edge 34, Type (0, 1), BuildingBlock: UVAHIK_clean_linker_0, # of connection points: 2
#     Edge 35, Type (0, 1), BuildingBlock: UVAHIK_clean_linker_0, # of connection points: 2
#     Edge 36, Type (0, 1), BuildingBlock: UVAHIK_clean_linker_0, # of connection points: 2
#     Edge 37, Type (0, 1), BuildingBlock: UVAHIK_clean_linker_0, # of connection points: 2
#     Edge 38, Type (0, 1), BuildingBlock: UVAHIK_clean_linker_0, # of connection points: 2
#     Edge 39, Type (0, 1), BuildingBlock: UVAHIK_clean_linker_0, # of connection points: 2
#     Edge 40, Type (0, 1), BuildingBlock: UVAHIK_clean_linker_0, # of connection points: 2
#     Edge 41, Type (0, 1), BuildingBlock: UVAHIK_clean_linker_0, # of connection points: 2
#     Edge 42, Type (0, 1), BuildingBlock: UVAHIK_clean_linker_0, # of connection points: 2
#     Edge 43, Type (0, 1), BuildingBlock: UVAHIK_clean_linker_0, # of connection points: 2
#     Edge 44, Type (0, 1), BuildingBlock: UVAHIK_clean_linker_0, # of connection points: 2
#     Edge 45, Type (0, 1), BuildingBlock: UVAHIK_clean_linker_0, # of connection points: 2
#     Edge 46, Type (0, 1), BuildingBlock: UVAHIK_clean_linker_0, # of connection points: 2
#     Edge 47, Type (0, 1), BuildingBlock: UVAHIK_clean_linker_0, # of connection points: 2
#     Edge 48, Type (0, 1), BuildingBlock: UVAHIK_clean_linker_0, # of connection points: 2
#     Edge 49, Type (0, 1), BuildingBlock: UVAHIK_clean_linker_0, # of connection points: 2
#     Edge 50, Type (0, 1), BuildingBlock: UVAHIK_clean_linker_0, # of connection points: 2
#     Edge 51, Type (0, 1), BuildingBlock: UVAHIK_clean_linker_0, # of connection points: 2
#     Edge 52, Type (0, 1), BuildingBlock: UVAHIK_clean_linker_0, # of connection points: 2
#     Edge 53, Type (0, 1), BuildingBlock: UVAHIK_clean_linker_0, # of connection points: 2
#     Edge 54, Type (0, 1), BuildingBlock: UVAHIK_clean_linker_0, # of connection points: 2
#     Edge 55, Type (0, 1), BuildingBlock: UVAHIK_clean_linker_0, # of connection points: 2
#     Edge 56, Type (0, 1), BuildingBlock: UVAHIK_clean_linker_0, # of connection points: 2
#     Edge 57, Type (0, 1), BuildingBlock: UVAHIK_clean_linker_0, # of connection points: 2
#     Edge 58, Type (0, 1), BuildingBlock: UVAHIK_clean_linker_0, # of connection points: 2
#     Edge 59, Type (0, 1), BuildingBlock: UVAHIK_clean_linker_0, # of connection points: 2
#     Edge 60, Type (0, 1), BuildingBlock: UVAHIK_clean_linker_0, # of connection points: 2
#     Edge 61, Type (0, 1), BuildingBlock: UVAHIK_clean_linker_0, # of connection points: 2
#     Edge 62, Type (0, 1), BuildingBlock: UVAHIK_clean_linker_0, # of connection points: 2
#     Edge 63, Type (0, 1), BuildingBlock: UVAHIK_clean_linker_0, # of connection points: 2
#     Edge 64, Type (0, 1), BuildingBlock: UVAHIK_clean_linker_0, # of connection points: 2
#     Edge 65, Type (0, 1), BuildingBlock: UVAHIK_clean_linker_0, # of connection points: 2
#     Edge 66, Type (0, 1), BuildingBlock: UVAHIK_clean_linker_0, # of connection points: 2
#     Edge 67, Type (0, 1), BuildingBlock: UVAHIK_clean_linker_0, # of connection points: 2
#     Edge 68, Type (0, 1), BuildingBlock: UVAHIK_clean_linker_0, # of connection points: 2
#     Edge 69, Type (0, 1), BuildingBlock: UVAHIK_clean_linker_0, # of connection points: 2
#     Edge 70, Type (0, 1), BuildingBlock: UVAHIK_clean_linker_0, # of connection points: 2
#     Edge 71, Type (0, 1), BuildingBlock: UVAHIK_clean_linker_0, # of connection points: 2
#     Edge 72, Type (0, 1), BuildingBlock: UVAHIK_clean_linker_0, # of connection points: 2
#     Edge 73, Type (0, 1), BuildingBlock: UVAHIK_clean_linker_0, # of connection points: 2
#     Edge 74, Type (0, 1), BuildingBlock: UVAHIK_clean_linker_0, # of connection points: 2
#     Edge 75, Type (0, 1), BuildingBlock: UVAHIK_clean_linker_0, # of connection points: 2
# Relax obj value: 0.036
# Max RMSD: 0.141
# Mean RMSD: 0.065
data_MOF--net-ctn--node1-QUQFOY_clean_sbu_1--node2-VETTIZ_charged_linker_0--edge1-UVAHIK_clean_linker_0
_symmetry_space_group_name_H-M    P1
_symmetry_Int_Tables_number       1
_symmetry_cell_setting            triclinic
loop_
_symmetry_equiv_pos_as_xyz
'x, y, z'
_cell_length_a     82.94487
_cell_length_b     82.835826
_cell_length_c     83.07654
_cell_angle_alpha  92.678492
_cell_angle_beta   90.058193
_cell_angle_gamma 94.31032
loop_
_atom_site_label
_atom_site_type_symbol
_atom_site_fract_x
_atom_site_fract_y
_atom_site_fract_z
_atom_type_partial_charge
C0 C 0.0764 0.15055 0.05021 0.0
C1 C 0.06437 0.16165 0.05008 0.0
C2 C 0.05562 0.16472 0.06429 0.0
C3 C 0.06945 0.14449 0.07781 0.0
C4 C 0.0787 0.1421 0.0642 0.0
C5 C 0.09025 0.12914 0.06624 0.0
H6 H 0.11413 0.06792 0.10963 0.0
C7 C 0.07373 0.13286 0.08974 0.0
C8 C 0.08608 0.12394 0.08316 0.0
H9 H 0.13196 0.08314 0.06341 0.0
H10 H 0.11528 0.10576 0.06496 0.0
H11 H 0.1145 0.10391 0.12672 0.0
H12 H 0.07745 0.07267 0.10244 0.0
H13 H 0.06865 0.08139 0.11961 0.0
H14 H 0.08515 0.06876 0.12196 0.0
H15 H 0.1048 0.08661 0.13594 0.0
H16 H 0.0965 0.10617 0.13744 0.0
C17 C 0.10773 0.13703 0.06528 0.0
C18 C 0.08607 0.11535 0.05332 0.0
C19 C 0.03907 0.12588 0.13964 0.0
C20 C 0.03879 0.11476 0.15194 0.0
C21 C 0.05139 0.1043 0.15276 0.0
C22 C 0.06356 0.10433 0.14107 0.0
C23 C 0.06308 0.11481 0.12829 0.0
C24 C 0.05124 0.12566 0.12798 0.0
C25 C 0.05254 0.1358 0.11343 0.0
C26 C 0.06691 0.12898 0.10488 0.0
C27 C 0.07291 0.11659 0.11356 0.0
C28 C 0.05623 0.15376 0.11925 0.0
C29 C 0.03667 0.1324 0.10355 0.0
C30 C 0.11444 0.07613 0.09984 0.0
C31 C 0.12431 0.07363 0.08634 0.0
C32 C 0.12457 0.08481 0.07401 0.0
C33 C 0.11475 0.09788 0.07485 0.0
C34 C 0.10444 0.09978 0.0881 0.0
C35 C 0.10467 0.0892 0.10047 0.0
C36 C 0.09289 0.09304 0.11358 0.0
C37 C 0.08547 0.1076 0.107 0.0
C38 C 0.09215 0.11139 0.09197 0.0
C39 C 0.10255 0.09757 0.12933 0.0
C40 C 0.08038 0.07824 0.11464 0.0
H41 H 0.05087 0.15897 0.08844 0.0
H42 H 0.08334 0.14797 0.03949 0.0
H43 H 0.07274 0.11306 0.05193 0.0
H44 H 0.09038 0.10363 0.05644 0.0
H45 H 0.09109 0.11858 0.0414 0.0
H46 H 0.10847 0.14978 0.07025 0.0
H47 H 0.11199 0.13721 0.05261 0.0
H48 H 0.11638 0.13094 0.07259 0.0
H49 H 0.02973 0.13427 0.13881 0.0
H50 H 0.05146 0.09553 0.16202 0.0
H51 H 0.07256 0.09578 0.14215 0.0
H52 H 0.06303 0.15477 0.13085 0.0
H53 H 0.04492 0.15996 0.12117 0.0
H54 H 0.0641 0.16065 0.11082 0.0
H55 H 0.03252 0.1193 0.10343 0.0
H56 H 0.03798 0.13516 0.09075 0.0
H57 H 0.02684 0.13933 0.10883 0.0
H58 H 0.04656 0.17349 0.06459 0.0
C59 C 0.05815 0.15628 0.07814 0.0
C60 C 0.25419 0.68724 0.24354 0.0
C61 C 0.23872 0.68467 0.23654 0.0
C62 C 0.23295 0.69684 0.2272 0.0
C63 C 0.25793 0.71358 0.23189 0.0
C64 C 0.2635 0.70169 0.2411 0.0
C65 C 0.28013 0.70621 0.24781 0.0
H66 H 0.34641 0.75874 0.25269 0.0
C67 C 0.27073 0.72699 0.23161 0.0
C68 C 0.28375 0.72272 0.24092 0.0
H69 H 0.33713 0.71396 0.27716 0.0
H70 H 0.31106 0.70975 0.2645 0.0
H71 H 0.3122 0.77129 0.26061 0.0
H72 H 0.33002 0.74653 0.21835 0.0
H73 H 0.31857 0.76205 0.21188 0.0
H74 H 0.33635 0.7672 0.22411 0.0
H75 H 0.32527 0.78148 0.24651 0.0
H76 H 0.30358 0.77973 0.24396 0.0
C77 C 0.27902 0.70729 0.26647 0.0
C78 C 0.29158 0.69365 0.24096 0.0
C79 C 0.26266 0.77652 0.1994 0.0
C80 C 0.27265 0.79057 0.19645 0.0
C81 C 0.28815 0.79257 0.20361 0.0
C82 C 0.29365 0.7808 0.2134 0.0
C83 C 0.28359 0.76679 0.2161 0.0
C84 C 0.26836 0.76484 0.2092 0.0
C85 C 0.25944 0.74907 0.21328 0.0
C86 C 0.2718 0.74195 0.22383 0.0
C87 C 0.28592 0.75238 0.22541 0.0
C88 C 0.24405 0.75296 0.22281 0.0
C89 C 0.25612 0.73879 0.1974 0.0
C90 C 0.33877 0.74806 0.25543 0.0
C91 C 0.34408 0.73661 0.26589 0.0
C92 C 0.33366 0.72282 0.2689 0.0
C93 C 0.31836 0.72046 0.26166 0.0
C94 C 0.31325 0.73206 0.25137 0.0
C95 C 0.32333 0.74563 0.2485 0.0
C96 C 0.31552 0.75705 0.23785 0.0
C97 C 0.29913 0.748 0.23474 0.0
C98 C 0.29796 0.73331 0.24256 0.0
C99 C 0.31411 0.77332 0.24758 0.0
C100 C 0.32561 0.75845 0.22223 0.0
H101 H 0.23738 0.72006 0.21766 0.0
H102 H 0.25912 0.6781 0.25061 0.0
H103 H 0.28879 0.69045 0.22805 0.0
H104 H 0.30442 0.69822 0.2412 0.0
H105 H 0.29024 0.68231 0.24761 0.0
H106 H 0.26687 0.7106 0.27054 0.0
H107 H 0.28121 0.69553 0.27166 0.0
H108 H 0.28751 0.7169 0.27203 0.0
H109 H 0.25065 0.77463 0.19421 0.0
H110 H 0.29623 0.8031 0.20134 0.0
H111 H 0.3056 0.783 0.21835 0.0
H112 H 0.2465 0.76385 0.23104 0.0
H113 H 0.23409 0.75544 0.21454 0.0
H114 H 0.23975 0.7432 0.23072 0.0
H115 H 0.26636 0.74058 0.18887 0.0
H116 H 0.25498 0.72563 0.19917 0.0
H117 H 0.24505 0.74224 0.19131 0.0
H118 H 0.22099 0.69527 0.22184 0.0
C119 C 0.24246 0.71126 0.22486 0.0
C120 C 0.93207 0.40762 0.04355 0.0
C121 C 0.92523 0.40838 0.02815 0.0
C122 C 0.91374 0.41976 0.02573 0.0
C123 C 0.91749 0.4304 0.05333 0.0
C124 C 0.92819 0.41875 0.05582 0.0
C125 C 0.9358 0.4205 0.07226 0.0
H126 H 0.95326 0.46718 0.13918 0.0
C127 C 0.91734 0.44103 0.06815 0.0
C128 C 0.92802 0.43523 0.07927 0.0
H129 H 0.9727 0.42196 0.12396 0.0
H130 H 0.95321 0.41826 0.10235 0.0
H131 H 0.91527 0.45428 0.13292 0.0
H132 H 0.95081 0.48107 0.105 0.0
H133 H 0.93259 0.49056 0.10399 0.0
H134 H 0.94218 0.48911 0.12321 0.0
H135 H 0.92003 0.47559 0.13672 0.0
H136 H 0.90475 0.46797 0.12219 0.0
C137 C 0.93069 0.40509 0.08146 0.0
C138 C 0.95433 0.42377 0.07006 0.0
C139 C 0.88556 0.49127 0.06959 0.0
C140 C 0.88427 0.50406 0.08116 0.0
C141 C 0.89214 0.50348 0.09614 0.0
C142 C 0.90145 0.49058 0.09941 0.0
C143 C 0.90309 0.47818 0.08753 0.0
C144 C 0.89499 0.4785 0.07301 0.0
C145 C 0.89828 0.46435 0.06178 0.0
C146 C 0.90955 0.45541 0.07202 0.0
C147 C 0.91247 0.4637 0.08701 0.0
C148 C 0.88211 0.45423 0.05828 0.0
C149 C 0.90681 0.47105 0.04661 0.0
C150 C 0.9532 0.45642 0.13124 0.0
C151 C 0.96472 0.445 0.13309 0.0
C152 C 0.96398 0.43095 0.12281 0.0
C153 C 0.95277 0.42891 0.11014 0.0
C154 C 0.94229 0.44113 0.10759 0.0
C155 C 0.94214 0.45426 0.11844 0.0
C156 C 0.93002 0.46592 0.1139 0.0
C157 C 0.92351 0.45799 0.09811 0.0
C158 C 0.93092 0.44361 0.0944 0.0
C159 C 0.91684 0.46612 0.1271 0.0
C160 C 0.93924 0.48261 0.11146 0.0
H161 H 0.90125 0.43935 0.0356 0.0
H162 H 0.9407 0.39882 0.04592 0.0
H163 H 0.95705 0.43135 0.05953 0.0
H164 H 0.96037 0.4307 0.08029 0.0
H165 H 0.96024 0.41227 0.06793 0.0
H166 H 0.91832 0.40009 0.07784 0.0
H167 H 0.93906 0.39544 0.07894 0.0
H168 H 0.92997 0.40754 0.09463 0.0
H169 H 0.87979 0.49143 0.0579 0.0
H170 H 0.89114 0.51306 0.10533 0.0
H171 H 0.90726 0.49092 0.11097 0.0
H172 H 0.87458 0.45356 0.06934 0.0
H173 H 0.87501 0.45973 0.04891 0.0
H174 H 0.88377 0.44151 0.0545 0.0
H175 H 0.9149 0.48206 0.04981 0.0
H176 H 0.9148 0.46251 0.04074 0.0
H177 H 0.89786 0.47444 0.03765 0.0
H178 H 0.90828 0.42061 0.01398 0.0
C179 C 0.90979 0.43073 0.03826 0.0
C180 C 0.67963 0.80785 0.26998 0.0
C181 C 0.67068 0.7928 0.27063 0.0
C182 C 0.67324 0.78056 0.25873 0.0
C183 C 0.69271 0.79869 0.24543 0.0
C184 C 0.69047 0.81054 0.25731 0.0
C185 C 0.70036 0.82611 0.25448 0.0
H186 H 0.75114 0.86987 0.20672 0.0
C187 C 0.70407 0.8057 0.23348 0.0
C188 C 0.70854 0.82179 0.23869 0.0
H189 H 0.73339 0.88368 0.25401 0.0
H190 H 0.71811 0.85794 0.25511 0.0
H191 H 0.71838 0.85172 0.19283 0.0
H192 H 0.75947 0.83452 0.21657 0.0
H193 H 0.75403 0.82062 0.20054 0.0
H194 H 0.76028 0.8413 0.19636 0.0
H195 H 0.73729 0.84967 0.18274 0.0
H196 H 0.72199 0.833 0.18326 0.0
C197 C 0.68865 0.83962 0.25261 0.0
C198 C 0.71269 0.82939 0.26852 0.0
C199 C 0.71917 0.7718 0.1839 0.0
C200 C 0.72823 0.77553 0.17011 0.0
C201 C 0.73534 0.79138 0.16869 0.0
C202 C 0.73359 0.80334 0.18091 0.0
C203 C 0.72451 0.79947 0.19466 0.0
C204 C 0.71733 0.78397 0.19591 0.0
C205 C 0.7073 0.78237 0.21092 0.0
C206 C 0.71007 0.79933 0.21869 0.0
C207 C 0.72025 0.80923 0.20915 0.0
C208 C 0.68941 0.77832 0.2058 0.0
C209 C 0.7144 0.76953 0.22127 0.0
C210 C 0.74405 0.86738 0.21738 0.0
C211 C 0.74349 0.87901 0.23024 0.0
C212 C 0.73386 0.87518 0.24374 0.0
C213 C 0.72511 0.8601 0.24447 0.0
C214 C 0.72604 0.84856 0.23164 0.0
C215 C 0.73544 0.85227 0.21841 0.0
C216 C 0.7356 0.83825 0.20625 0.0
C217 C 0.72478 0.8255 0.2144 0.0
C218 C 0.71909 0.83167 0.22918 0.0
C219 C 0.72805 0.84333 0.19036 0.0
C220 C 0.75323 0.83338 0.20467 0.0
H221 H 0.68554 0.77365 0.23744 0.0
H222 H 0.67783 0.81758 0.27882 0.0
H223 H 0.71596 0.81789 0.27364 0.0
H224 H 0.72433 0.8353 0.26462 0.0
H225 H 0.70768 0.83689 0.27847 0.0
H226 H 0.6779 0.83499 0.24528 0.0
H227 H 0.68427 0.84404 0.26453 0.0
H228 H 0.69405 0.85007 0.24622 0.0
H229 H 0.71332 0.75978 0.18512 0.0
H230 H 0.74238 0.79447 0.15814 0.0
H231 H 0.73933 0.81516 0.17913 0.0
H232 H 0.68678 0.78356 0.19407 0.0
H233 H 0.6865 0.76501 0.20441 0.0
H234 H 0.68078 0.78359 0.2143 0.0
H235 H 0.72785 0.77097 0.22124 0.0
H236 H 0.71093 0.77065 0.23407 0.0
H237 H 0.71066 0.75707 0.21648 0.0
H238 H 0.66664 0.76879 0.25907 0.0
C239 C 0.68423 0.7834 0.24618 0.0
C240 C 0.06517 0.91943 0.47142 0.0
C241 C 0.05049 0.90997 0.4728 0.0
C242 C 0.03809 0.91152 0.46146 0.0
C243 C 0.05433 0.93301 0.44898 0.0
C244 C 0.0668 0.93084 0.45952 0.0
C245 C 0.08111 0.94277 0.45735 0.0
H246 H 0.11179 0.01247 0.42685 0.0
C247 C 0.05922 0.94711 0.43936 0.0
C248 C 0.07496 0.9528 0.44415 0.0
H249 H 0.13484 0.98183 0.45924 0.0
H250 H 0.11216 0.96187 0.45657 0.0
H251 H 0.0775 0.00866 0.44157 0.0
H252 H 0.09833 0.98264 0.40174 0.0
H253 H 0.07838 0.98563 0.39619 0.0
H254 H 0.09253 0.00297 0.40041 0.0
H255 H 0.08088 0.0173 0.42234 0.0
H256 H 0.06241 0.00545 0.42672 0.0
C257 C 0.08401 0.95285 0.47343 0.0
C258 C 0.09563 0.93325 0.45166 0.0
C259 C 0.01866 0.96942 0.40185 0.0
C260 C 0.01909 0.98362 0.39319 0.0
C261 C 0.03335 0.99397 0.39323 0.0
C262 C 0.04698 0.99035 0.40192 0.0
C263 C 0.04628 0.97634 0.41087 0.0
C264 C 0.03232 0.9661 0.4107 0.0
C265 C 0.03356 0.95224 0.42161 0.0
C266 C 0.05068 0.95569 0.42809 0.0
C267 C 0.05802 0.96982 0.42175 0.0
C268 C 0.02067 0.95371 0.43502 0.0
C269 C 0.03172 0.93621 0.41121 0.0
C270 C 0.11194 0.00142 0.43332 0.0
C271 C 0.125 0.99878 0.44341 0.0
C272 C 0.12493 0.98411 0.45136 0.0
C273 C 0.11169 0.9726 0.4499 0.0
C274 C 0.09834 0.97581 0.44046 0.0
C275 C 0.09883 0.98978 0.43197 0.0
C276 C 0.0837 0.99097 0.42225 0.0
C277 C 0.07392 0.97557 0.42659 0.0
C278 C 0.08246 0.96689 0.43744 0.0
C279 C 0.07566 0.00642 0.42836 0.0
C280 C 0.08836 0.99066 0.40418 0.0
H281 H 0.02997 0.92375 0.44147 0.0
H282 H 0.0749 0.91864 0.47999 0.0
H283 H 0.09152 0.92181 0.44481 0.0
H284 H 0.10355 0.94003 0.44318 0.0
H285 H 0.10296 0.92996 0.46204 0.0
H286 H 0.07232 0.95605 0.47881 0.0
H287 H 0.09031 0.94593 0.48234 0.0
H288 H 0.09102 0.96454 0.47203 0.0
H289 H 0.00776 0.96138 0.40215 0.0
H290 H 0.03393 0.0049 0.38652 0.0
H291 H 0.05744 0.99875 0.40152 0.0
H292 H 0.01877 0.96663 0.43816 0.0
H293 H 0.00884 0.94763 0.43108 0.0
H294 H 0.02426 0.94879 0.44649 0.0
H295 H 0.03808 0.93757 0.39951 0.0
H296 H 0.03722 0.92613 0.41687 0.0
H297 H 0.0188 0.93257 0.40854 0.0
H298 H 0.02677 0.90414 0.46206 0.0
C299 C 0.03996 0.92292 0.44952 0.0
C300 C 0.25436 0.71681 0.80565 0.0
C301 C 0.25708 0.70845 0.79089 0.0
C302 C 0.24802 0.71189 0.77725 0.0
C303 C 0.23329 0.731 0.79337 0.0
C304 C 0.24246 0.7279 0.80662 0.0
C305 C 0.23774 0.73728 0.82158 0.0
H306 H 0.19081 0.79156 0.85766 0.0
C307 C 0.2215 0.74269 0.79867 0.0
C308 C 0.22409 0.74641 0.81519 0.0
H309 H 0.22844 0.76614 0.87908 0.0
H310 H 0.23296 0.75205 0.85358 0.0
H311 H 0.17444 0.76139 0.83918 0.0
H312 H 0.209 0.79844 0.82324 0.0
H313 H 0.19361 0.79507 0.80854 0.0
H314 H 0.18853 0.80182 0.82868 0.0
H315 H 0.16827 0.78038 0.83282 0.0
H316 H 0.17009 0.76333 0.81874 0.0
C317 C 0.23172 0.72502 0.83422 0.0
C318 C 0.25244 0.74887 0.82709 0.0
C319 C 0.1794 0.75943 0.75938 0.0
C320 C 0.16603 0.76876 0.76145 0.0
C321 C 0.16355 0.77673 0.77648 0.0
C322 C 0.17409 0.77524 0.7894 0.0
C323 C 0.18714 0.76548 0.78736 0.0
C324 C 0.18968 0.7578 0.77253 0.0
C325 C 0.20363 0.74719 0.77291 0.0
C326 C 0.20896 0.74972 0.79041 0.0
C327 C 0.19932 0.76053 0.79875 0.0
C328 C 0.19707 0.72946 0.7688 0.0
C329 C 0.21677 0.75389 0.76124 0.0
C330 C 0.20007 0.78301 0.85677 0.0
C331 C 0.20936 0.77998 0.8703 0.0
C332 C 0.22109 0.76857 0.86881 0.0
C333 C 0.22375 0.76049 0.85397 0.0
C334 C 0.21448 0.76373 0.84048 0.0
C335 C 0.20274 0.77469 0.84206 0.0
C336 C 0.19358 0.77605 0.82661 0.0
C337 C 0.2021 0.76448 0.81539 0.0
C338 C 0.21436 0.75738 0.82356 0.0
C339 C 0.17564 0.77011 0.82939 0.0
C340 C 0.19616 0.79377 0.82144 0.0
H341 H 0.22955 0.72505 0.76765 0.0
H342 H 0.26126 0.71468 0.81631 0.0
H343 H 0.25895 0.75393 0.81653 0.0
H344 H 0.24902 0.75955 0.83437 0.0
H345 H 0.26119 0.74241 0.83406 0.0
H346 H 0.22579 0.71379 0.82828 0.0
H347 H 0.24191 0.72142 0.84161 0.0
H348 H 0.22237 0.72967 0.84228 0.0
H349 H 0.18139 0.75297 0.748 0.0
H350 H 0.1533 0.78399 0.77825 0.0
H351 H 0.1715 0.78154 0.80056 0.0
H352 H 0.18476 0.72701 0.77387 0.0
H353 H 0.19623 0.72698 0.75556 0.0
H354 H 0.20438 0.72044 0.77408 0.0
H355 H 0.21763 0.76738 0.76177 0.0
H356 H 0.229 0.75058 0.76434 0.0
H357 H 0.21391 0.74967 0.7486 0.0
H358 H 0.24976 0.70555 0.76576 0.0
C359 C 0.23618 0.72313 0.7784 0.0
C360 C 0.88553 0.54845 0.46822 0.0
C361 C 0.88136 0.53374 0.45959 0.0
C362 C 0.88952 0.53008 0.44518 0.0
C363 C 0.90637 0.55519 0.44866 0.0
C364 C 0.89793 0.55902 0.46248 0.0
C365 C 0.90375 0.57526 0.47006 0.0
H366 H 0.95993 0.63873 0.47379 0.0
C367 C 0.91892 0.56846 0.44633 0.0
C368 C 0.9173 0.58038 0.45867 0.0
H369 H 0.91849 0.63018 0.50456 0.0
H370 H 0.90955 0.6064 0.48804 0.0
H371 H 0.9408 0.63156 0.44109 0.0
H372 H 0.96874 0.60122 0.46908 0.0
H373 H 0.97446 0.59897 0.44874 0.0
H374 H 0.9772 0.61857 0.45897 0.0
H375 H 0.96242 0.63241 0.43977 0.0
H376 H 0.94968 0.61833 0.42719 0.0
C377 C 0.88972 0.58659 0.46969 0.0
C378 C 0.91014 0.57251 0.48717 0.0
C379 C 0.96138 0.562 0.403 0.0
C380 C 0.97483 0.572 0.39834 0.0
C381 C 0.97773 0.58755 0.40584 0.0
C382 C 0.96769 0.59284 0.41824 0.0
C383 C 0.95461 0.58248 0.42318 0.0
C384 C 0.95139 0.56752 0.41531 0.0
C385 C 0.93659 0.55843 0.42174 0.0
C386 C 0.93169 0.57025 0.43505 0.0
C387 C 0.94243 0.5842 0.43597 0.0
C388 C 0.92374 0.55602 0.40809 0.0
C389 C 0.94179 0.54248 0.42847 0.0
C390 C 0.94894 0.63168 0.47693 0.0
C391 C 0.93998 0.63614 0.49054 0.0
C392 C 0.92556 0.62694 0.4941 0.0
C393 C 0.92046 0.61309 0.48456 0.0
C394 C 0.92987 0.60843 0.47132 0.0
C395 C 0.94362 0.6179 0.46746 0.0
C396 C 0.95176 0.61141 0.45261 0.0
C397 C 0.94084 0.59625 0.44845 0.0
C398 C 0.92819 0.59446 0.45959 0.0
C399 C 0.9513 0.62405 0.43945 0.0
C400 C 0.969 0.60737 0.45745 0.0
H401 H 0.90795 0.53716 0.42875 0.0
H402 H 0.87921 0.55168 0.47918 0.0
H403 H 0.91751 0.56182 0.48697 0.0
H404 H 0.91818 0.58272 0.49218 0.0
H405 H 0.89999 0.57022 0.49567 0.0
H406 H 0.88127 0.5831 0.45949 0.0
H407 H 0.88257 0.58615 0.48098 0.0
H408 H 0.89399 0.59932 0.46768 0.0
H409 H 0.95874 0.5501 0.3972 0.0
H410 H 0.98805 0.59543 0.40242 0.0
H411 H 0.97066 0.60468 0.42369 0.0
H412 H 0.92534 0.56571 0.39926 0.0
H413 H 0.92455 0.54421 0.40134 0.0
H414 H 0.91127 0.55684 0.41262 0.0
H415 H 0.95323 0.54476 0.4355 0.0
H416 H 0.93296 0.53692 0.43685 0.0
H417 H 0.94392 0.53344 0.41854 0.0
H418 H 0.88646 0.51879 0.43836 0.0
C419 C 0.90202 0.54072 0.43968 0.0
C420 C 0.79041 0.7722 0.83942 0.0
C421 C 0.77878 0.77354 0.85164 0.0
C422 C 0.76683 0.78464 0.85002 0.0
C423 C 0.77803 0.79247 0.82435 0.0
C424 C 0.78987 0.7818 0.82604 0.0
C425 C 0.80167 0.7822 0.81232 0.0
H426 H 0.82677 0.81331 0.74207 0.0
C427 C 0.78087 0.80053 0.80901 0.0
C428 C 0.79475 0.79464 0.80196 0.0
H429 H 0.84975 0.7792 0.77081 0.0
H430 H 0.82797 0.77949 0.78977 0.0
H431 H 0.81753 0.83659 0.77227 0.0
H432 H 0.79009 0.79765 0.74599 0.0
H433 H 0.77708 0.8131 0.75014 0.0
H434 H 0.79462 0.81708 0.73768 0.0
H435 H 0.8107 0.83827 0.75195 0.0
H436 H 0.79803 0.84274 0.76892 0.0
C437 C 0.81862 0.7881 0.81919 0.0
C438 C 0.80074 0.76516 0.8037 0.0
C439 C 0.74312 0.84202 0.79177 0.0
C440 C 0.74275 0.85174 0.77837 0.0
C441 C 0.75417 0.8498 0.76599 0.0
C442 C 0.76607 0.83874 0.76722 0.0
C443 C 0.7666 0.82952 0.78097 0.0
C444 C 0.75507 0.83107 0.79283 0.0
C445 C 0.75739 0.82028 0.80655 0.0
C446 C 0.77234 0.81212 0.8011 0.0
C447 C 0.77774 0.81762 0.78615 0.0
C448 C 0.76055 0.83112 0.82213 0.0
C449 C 0.74236 0.80804 0.80725 0.0
C450 C 0.82716 0.80597 0.75249 0.0
C451 C 0.84004 0.79616 0.75483 0.0
C452 C 0.83989 0.78665 0.76849 0.0
C453 C 0.82728 0.78695 0.77963 0.0
C454 C 0.81466 0.79697 0.77725 0.0
C455 C 0.81468 0.80624 0.76385 0.0
C456 C 0.8004 0.81642 0.76357 0.0
C457 C 0.79195 0.81185 0.77911 0.0
C458 C 0.80037 0.80042 0.78701 0.0
C459 C 0.80686 0.83448 0.7641 0.0
C460 C 0.78998 0.81095 0.74854 0.0
H461 H 0.75695 0.8022 0.83596 0.0
H462 H 0.7997 0.76374 0.84011 0.0
H463 H 0.78799 0.75994 0.80282 0.0
H464 H 0.8051 0.76531 0.79115 0.0
H465 H 0.8077 0.75668 0.81041 0.0
H466 H 0.8177 0.79591 0.83037 0.0
H467 H 0.82562 0.77773 0.82222 0.0
H468 H 0.82579 0.79582 0.81089 0.0
H469 H 0.73437 0.84303 0.80138 0.0
H470 H 0.75421 0.85721 0.75559 0.0
H471 H 0.77457 0.83801 0.75754 0.0
H472 H 0.76714 0.84288 0.81943 0.0
H473 H 0.74903 0.83386 0.82811 0.0
H474 H 0.76838 0.82573 0.83086 0.0
H475 H 0.73809 0.80403 0.7949 0.0
H476 H 0.74484 0.79678 0.81308 0.0
H477 H 0.73221 0.81358 0.8136 0.0
H478 H 0.75789 0.78622 0.85934 0.0
C479 C 0.76635 0.79402 0.83645 0.0
C480 C 0.29006 0.27297 0.34086 0.0
C481 C 0.27733 0.27196 0.35201 0.0
C482 C 0.26368 0.28073 0.34943 0.0
C483 C 0.27565 0.29116 0.32501 0.0
C484 C 0.28891 0.28245 0.3275 0.0
C485 C 0.30127 0.28436 0.3144 0.0
H486 H 0.32525 0.31664 0.24444 0.0
C487 C 0.27834 0.29977 0.30993 0.0
C488 C 0.29327 0.29571 0.30362 0.0
H489 H 0.35021 0.28463 0.27394 0.0
H490 H 0.32836 0.28397 0.2928 0.0
H491 H 0.31431 0.33935 0.2745 0.0
H492 H 0.28937 0.29901 0.24799 0.0
H493 H 0.27567 0.31402 0.25128 0.0
H494 H 0.29361 0.31842 0.23953 0.0
H495 H 0.30679 0.34101 0.25443 0.0
H496 H 0.29424 0.34407 0.27186 0.0
C497 C 0.31714 0.29238 0.32208 0.0
C498 C 0.30287 0.26747 0.30592 0.0
C499 C 0.23832 0.339 0.2924 0.0
C500 C 0.23805 0.34939 0.2795 0.0
C501 C 0.25007 0.34863 0.26755 0.0
C502 C 0.2625 0.33816 0.26877 0.0
C503 C 0.26297 0.32836 0.2821 0.0
C504 C 0.25084 0.32868 0.29349 0.0
C505 C 0.25327 0.31745 0.30684 0.0
C506 C 0.2691 0.31069 0.30185 0.0
C507 C 0.27475 0.31713 0.28736 0.0
C508 C 0.25491 0.32771 0.32292 0.0
C509 C 0.23906 0.30417 0.30634 0.0
C510 C 0.32602 0.30956 0.25501 0.0
C511 C 0.33944 0.3005 0.25754 0.0
C512 C 0.33989 0.29142 0.27145 0.0
C513 C 0.32721 0.29113 0.2825 0.0
C514 C 0.31386 0.30011 0.27976 0.0
C515 C 0.31342 0.30919 0.26627 0.0
C516 C 0.29837 0.31826 0.26566 0.0
C517 C 0.28979 0.31288 0.28089 0.0
C518 C 0.29897 0.30226 0.28905 0.0
C519 C 0.30356 0.33665 0.26654 0.0
C520 C 0.28871 0.31228 0.25029 0.0
H521 H 0.25208 0.29668 0.33472 0.0
H522 H 0.30084 0.26661 0.34252 0.0
H523 H 0.29108 0.2601 0.30567 0.0
H524 H 0.30635 0.26814 0.29313 0.0
H525 H 0.31171 0.26057 0.31229 0.0
H526 H 0.31453 0.30097 0.33228 0.0
H527 H 0.32468 0.28314 0.32685 0.0
H528 H 0.32442 0.29982 0.31366 0.0
H529 H 0.22912 0.3391 0.30164 0.0
H530 H 0.25021 0.35656 0.25754 0.0
H531 H 0.27144 0.33834 0.25945 0.0
H532 H 0.26229 0.33928 0.32124 0.0
H533 H 0.24288 0.33076 0.32749 0.0
H534 H 0.2612 0.32171 0.33242 0.0
H535 H 0.23471 0.30133 0.29378 0.0
H536 H 0.24257 0.29248 0.31061 0.0
H537 H 0.22866 0.30811 0.31353 0.0
H538 H 0.25357 0.28002 0.35767 0.0
C539 C 0.26278 0.29031 0.33601 0.0
C540 C 0.43186 0.90264 0.54697 0.0
C541 C 0.42342 0.90127 0.53227 0.0
C542 C 0.41031 0.91081 0.53007 0.0
C543 C 0.41527 0.92398 0.55652 0.0
C544 C 0.42752 0.91391 0.55891 0.0
C545 C 0.43553 0.91704 0.57508 0.0
H546 H 0.44759 0.96502 0.64229 0.0
C547 C 0.41467 0.93515 0.5709 0.0
C548 C 0.42631 0.9309 0.58192 0.0
H549 H 0.4724 0.92278 0.62721 0.0
H550 H 0.45397 0.91749 0.60488 0.0
H551 H 0.41088 0.94931 0.63419 0.0
H552 H 0.44594 0.97862 0.60805 0.0
H553 H 0.42709 0.98627 0.605 0.0
H554 H 0.43521 0.98643 0.62511 0.0
H555 H 0.41503 0.97058 0.63892 0.0
H556 H 0.40015 0.96319 0.6239 0.0
C557 C 0.43253 0.90161 0.58486 0.0
C558 C 0.45361 0.9223 0.57223 0.0
C559 C 0.38113 0.98397 0.56977 0.0
C560 C 0.37958 0.99731 0.58064 0.0
C561 C 0.38685 0.99733 0.59599 0.0
C562 C 0.39612 0.98469 0.60015 0.0
C563 C 0.39833 0.97194 0.58881 0.0
C564 C 0.39053 0.97148 0.57408 0.0
C565 C 0.39417 0.95688 0.56361 0.0
C566 C 0.40585 0.94895 0.57431 0.0
C567 C 0.40834 0.95793 0.58899 0.0
C568 C 0.37826 0.94611 0.56068 0.0
C569 C 0.40237 0.96295 0.54804 0.0
C570 C 0.44902 0.95458 0.63421 0.0
C571 C 0.46162 0.94443 0.63645 0.0
C572 C 0.46278 0.93077 0.62586 0.0
C573 C 0.45216 0.92781 0.61276 0.0
C574 C 0.44035 0.93871 0.61007 0.0
C575 C 0.43864 0.95157 0.62095 0.0
C576 C 0.42566 0.9621 0.61597 0.0
C577 C 0.41999 0.95351 0.6002 0.0
C578 C 0.42875 0.93993 0.59676 0.0
C579 C 0.41222 0.96144 0.6289 0.0
C580 C 0.43373 0.97931 0.61347 0.0
H581 H 0.39634 0.92941 0.53969 0.0
H582 H 0.44179 0.8952 0.54904 0.0
H583 H 0.45499 0.93026 0.56181 0.0
H584 H 0.45937 0.92953 0.58243 0.0
H585 H 0.46065 0.91161 0.56956 0.0
H586 H 0.42087 0.89481 0.58137 0.0
H587 H 0.44227 0.89325 0.5828 0.0
H588 H 0.43141 0.90441 0.59794 0.0
H589 H 0.37541 0.98341 0.55801 0.0
H590 H 0.38591 0.00746 0.60458 0.0
H591 H 0.40163 0.9856 0.61188 0.0
H592 H 0.36988 0.94726 0.57106 0.0
H593 H 0.37185 0.94958 0.54977 0.0
H594 H 0.38025 0.93306 0.55955 0.0
H595 H 0.41163 0.97309 0.55096 0.0
H596 H 0.40886 0.95364 0.54138 0.0
H597 H 0.39336 0.96746 0.53978 0.0
H598 H 0.40362 0.90983 0.51882 0.0
C599 C 0.40619 0.9222 0.54214 0.0
C600 C 0.17634 0.31253 0.7668 0.0
C601 C 0.16779 0.29731 0.76772 0.0
C602 C 0.1715 0.28464 0.75673 0.0
C603 C 0.19165 0.3026 0.74402 0.0
C604 C 0.18809 0.3149 0.75494 0.0
C605 C 0.19806 0.33045 0.75242 0.0
H606 H 0.25912 0.37092 0.71417 0.0
C607 C 0.20442 0.30923 0.7332 0.0
C608 C 0.20819 0.32553 0.7381 0.0
H609 H 0.22889 0.38868 0.75256 0.0
H610 H 0.21328 0.36308 0.75207 0.0
H611 H 0.22979 0.35489 0.69333 0.0
H612 H 0.26185 0.33469 0.72633 0.0
H613 H 0.25998 0.32185 0.70879 0.0
H614 H 0.26802 0.3425 0.7073 0.0
H615 H 0.2493 0.34905 0.68713 0.0
H616 H 0.23163 0.33488 0.68609 0.0
C617 C 0.18649 0.34354 0.74823 0.0
C618 C 0.2085 0.33462 0.76776 0.0
C619 C 0.2254 0.27393 0.68723 0.0
C620 C 0.23646 0.27723 0.67479 0.0
C621 C 0.24479 0.29267 0.6745 0.0
C622 C 0.24204 0.30474 0.68632 0.0
C623 C 0.23072 0.30141 0.69851 0.0
C624 C 0.2226 0.28622 0.69884 0.0
C625 C 0.21051 0.28517 0.71233 0.0
C626 C 0.21263 0.30224 0.7199 0.0
C627 C 0.2246 0.31163 0.71183 0.0
C628 C 0.19345 0.28136 0.70485 0.0
C629 C 0.21567 0.27239 0.72394 0.0
C630 C 0.24903 0.36939 0.72236 0.0
C631 C 0.24554 0.38183 0.73368 0.0
C632 C 0.23223 0.37921 0.74405 0.0
C633 C 0.22307 0.36431 0.7437 0.0
C634 C 0.2271 0.35183 0.73277 0.0
C635 C 0.23963 0.35458 0.72207 0.0
C636 C 0.24161 0.34009 0.71081 0.0
C637 C 0.22861 0.32803 0.71699 0.0
C638 C 0.22029 0.33496 0.72993 0.0
C639 C 0.23803 0.34488 0.6934 0.0
C640 C 0.25878 0.33444 0.71328 0.0
H641 H 0.18557 0.27714 0.73678 0.0
H642 H 0.17402 0.32246 0.77523 0.0
H643 H 0.21295 0.32346 0.77261 0.0
H644 H 0.21952 0.34249 0.76553 0.0
H645 H 0.20138 0.3405 0.77739 0.0
H646 H 0.17541 0.33802 0.74197 0.0
H647 H 0.18259 0.35026 0.75926 0.0
H648 H 0.19189 0.35228 0.73973 0.0
H649 H 0.21868 0.26223 0.68759 0.0
H650 H 0.25343 0.29541 0.66506 0.0
H651 H 0.24874 0.31624 0.68543 0.0
H652 H 0.19226 0.2878 0.6935 0.0
H653 H 0.19106 0.26818 0.70192 0.0
H654 H 0.1837 0.28553 0.71267 0.0
H655 H 0.22906 0.27298 0.72518 0.0
H656 H 0.21117 0.27438 0.73632 0.0
H657 H 0.21154 0.25993 0.71942 0.0
H658 H 0.16502 0.27281 0.75711 0.0
C659 C 0.18337 0.2872 0.74488 0.0
C660 C 0.75559 0.18608 0.73837 0.0
C661 C 0.73974 0.18366 0.73227 0.0
C662 C 0.73326 0.19618 0.72397 0.0
C663 C 0.75818 0.21314 0.72822 0.0
C664 C 0.76448 0.20082 0.73629 0.0
C665 C 0.78132 0.20533 0.74244 0.0
H666 H 0.84478 0.26095 0.75229 0.0
C667 C 0.77059 0.22694 0.72836 0.0
C668 C 0.78413 0.22242 0.73672 0.0
H669 H 0.83979 0.21202 0.76863 0.0
H670 H 0.81346 0.20781 0.75631 0.0
H671 H 0.80794 0.26984 0.76039 0.0
H672 H 0.83061 0.2519 0.71725 0.0
H673 H 0.81655 0.26522 0.71118 0.0
H674 H 0.83326 0.27281 0.72403 0.0
H675 H 0.82264 0.28181 0.74931 0.0
H676 H 0.80146 0.2807 0.74416 0.0
C677 C 0.78102 0.20501 0.76109 0.0
C678 C 0.79282 0.19364 0.73409 0.0
C679 C 0.75999 0.27799 0.69971 0.0
C680 C 0.76952 0.29243 0.69714 0.0
C681 C 0.78494 0.29479 0.70445 0.0
C682 C 0.79088 0.28289 0.71381 0.0
C683 C 0.78139 0.26838 0.71588 0.0
C684 C 0.76617 0.26616 0.70898 0.0
C685 C 0.75791 0.24984 0.71221 0.0
C686 C 0.7708 0.24253 0.72192 0.0
C687 C 0.78451 0.25347 0.72408 0.0
C688 C 0.74257 0.25254 0.72233 0.0
C689 C 0.75458 0.24045 0.69583 0.0
C690 C 0.83794 0.24937 0.75325 0.0
C691 C 0.84434 0.2368 0.76146 0.0
C692 C 0.83519 0.22182 0.76223 0.0
C693 C 0.81984 0.21945 0.75516 0.0
C694 C 0.8135 0.23216 0.74718 0.0
C695 C 0.82257 0.24676 0.74617 0.0
C696 C 0.81399 0.2587 0.73679 0.0
C697 C 0.79815 0.24894 0.73268 0.0
C698 C 0.79796 0.23346 0.73886 0.0
C699 C 0.8114 0.27365 0.74812 0.0
C700 C 0.82408 0.26253 0.72155 0.0
H701 H 0.73677 0.21999 0.71557 0.0
H702 H 0.76105 0.17665 0.7446 0.0
H703 H 0.7886 0.18991 0.72166 0.0
H704 H 0.80518 0.19929 0.7325 0.0
H705 H 0.79346 0.18245 0.74086 0.0
H706 H 0.76948 0.20922 0.76596 0.0
H707 H 0.78211 0.19254 0.76515 0.0
H708 H 0.79053 0.21326 0.76699 0.0
H709 H 0.74801 0.27582 0.69447 0.0
H710 H 0.79266 0.30565 0.70253 0.0
H711 H 0.80277 0.28536 0.71886 0.0
H712 H 0.74465 0.26325 0.73087 0.0
H713 H 0.73218 0.25471 0.71448 0.0
H714 H 0.73911 0.24234 0.73002 0.0
H715 H 0.76478 0.24285 0.68737 0.0
H716 H 0.75351 0.22718 0.69683 0.0
H717 H 0.74344 0.24418 0.69007 0.0
H718 H 0.72102 0.19471 0.71929 0.0
C719 C 0.74239 0.2109 0.72192 0.0
C720 C 0.58492 0.65059 0.54851 0.0
C721 C 0.57253 0.66113 0.54699 0.0
C722 C 0.56163 0.663 0.55986 0.0
C723 C 0.57475 0.64317 0.57476 0.0
C724 C 0.5858 0.64179 0.56244 0.0
C725 C 0.59775 0.62952 0.56564 0.0
H726 H 0.61981 0.56868 0.61032 0.0
C727 C 0.57839 0.63164 0.58707 0.0
C728 C 0.59201 0.62374 0.58189 0.0
H729 H 0.64087 0.58521 0.56584 0.0
H730 H 0.62373 0.60745 0.56645 0.0
H731 H 0.61808 0.60366 0.62787 0.0
H732 H 0.58346 0.57264 0.60017 0.0
H733 H 0.57362 0.57997 0.61742 0.0
H734 H 0.59063 0.56807 0.61972 0.0
H735 H 0.60674 0.587 0.63661 0.0
H736 H 0.59915 0.60689 0.63637 0.0
C737 C 0.61487 0.63839 0.56674 0.0
C738 C 0.59572 0.61589 0.55219 0.0
C739 C 0.53919 0.62126 0.63317 0.0
C740 C 0.53885 0.61022 0.64556 0.0
C741 C 0.55243 0.60133 0.64793 0.0
C742 C 0.56567 0.60258 0.63754 0.0
C743 C 0.56532 0.61271 0.6245 0.0
C744 C 0.55254 0.6223 0.62281 0.0
C745 C 0.55455 0.63262 0.60839 0.0
C746 C 0.57033 0.62718 0.60146 0.0
C747 C 0.57641 0.61533 0.61083 0.0
C748 C 0.55616 0.65065 0.61444 0.0
C749 C 0.54006 0.62805 0.59685 0.0
C750 C 0.62075 0.57711 0.60073 0.0
C751 C 0.63161 0.57504 0.58794 0.0
C752 C 0.63269 0.58653 0.57589 0.0
C753 C 0.62259 0.59936 0.57616 0.0
C754 C 0.61113 0.60068 0.58851 0.0
C755 C 0.61065 0.58991 0.60074 0.0
C756 C 0.5976 0.59303 0.61278 0.0
C757 C 0.59011 0.60726 0.60558 0.0
C758 C 0.59798 0.61158 0.59129 0.0
C759 C 0.60569 0.59779 0.62933 0.0
C760 C 0.58568 0.57767 0.61269 0.0
H761 H 0.55389 0.65589 0.58294 0.0
H762 H 0.59363 0.64903 0.53897 0.0
H763 H 0.58277 0.61336 0.54877 0.0
H764 H 0.59958 0.60417 0.55591 0.0
H765 H 0.60245 0.61938 0.54118 0.0
H766 H 0.61441 0.65083 0.57229 0.0
H767 H 0.62034 0.63951 0.5546 0.0
H768 H 0.62315 0.63239 0.57456 0.0
H769 H 0.52898 0.62832 0.63109 0.0
H770 H 0.55264 0.59306 0.65765 0.0
H771 H 0.57543 0.5952 0.63978 0.0
H772 H 0.56181 0.65212 0.62663 0.0
H773 H 0.54416 0.65574 0.61525 0.0
H774 H 0.5642 0.65826 0.60678 0.0
H775 H 0.53724 0.61469 0.59605 0.0
H776 H 0.5424 0.63147 0.58436 0.0
H777 H 0.52905 0.63372 0.6012 0.0
H778 H 0.55188 0.6709 0.55898 0.0
C779 C 0.56272 0.65415 0.57373 0.0
C780 C 0.56604 0.41996 0.97266 0.0
C781 C 0.55089 0.41164 0.97498 0.0
C782 C 0.53838 0.41327 0.96377 0.0
C783 C 0.55583 0.43215 0.94905 0.0
C784 C 0.56823 0.43009 0.95972 0.0
C785 C 0.58332 0.44048 0.95619 0.0
H786 H 0.61884 0.50327 0.91754 0.0
C787 C 0.56178 0.44438 0.93763 0.0
C788 C 0.57793 0.44919 0.94168 0.0
H789 H 0.63892 0.47613 0.95492 0.0
H790 H 0.61541 0.45713 0.95373 0.0
H791 H 0.5827 0.5025 0.931 0.0
H792 H 0.60561 0.4723 0.89579 0.0
H793 H 0.58534 0.47214 0.88961 0.0
H794 H 0.59786 0.491 0.89056 0.0
H795 H 0.59014 0.50922 0.91196 0.0
H796 H 0.57013 0.49967 0.91384 0.0
C797 C 0.58701 0.45227 0.97102 0.0
C798 C 0.59694 0.42922 0.95187 0.0
C799 C 0.52331 0.46492 0.89682 0.0
C800 C 0.52539 0.47655 0.88503 0.0
C801 C 0.54085 0.48435 0.88278 0.0
C802 C 0.55396 0.48096 0.89235 0.0
C803 C 0.55161 0.46966 0.90438 0.0
C804 C 0.53658 0.46159 0.90623 0.0
C805 C 0.53657 0.44956 0.91927 0.0
C806 C 0.55403 0.4519 0.92501 0.0
C807 C 0.56267 0.46389 0.91641 0.0
C808 C 0.5246 0.45475 0.93249 0.0
C809 C 0.53246 0.43238 0.91151 0.0
C810 C 0.61815 0.49317 0.92539 0.0
C811 C 0.63059 0.4913 0.9365 0.0
C812 C 0.62949 0.47781 0.94626 0.0
C813 C 0.61575 0.46689 0.94566 0.0
C814 C 0.60293 0.46953 0.93527 0.0
C815 C 0.6045 0.48214 0.92494 0.0
C816 C 0.58982 0.48279 0.91441 0.0
C817 C 0.57892 0.46891 0.92064 0.0
C818 C 0.58659 0.46136 0.933 0.0
C819 C 0.58277 0.49941 0.91782 0.0
C820 C 0.59482 0.47951 0.89664 0.0
H821 H 0.53075 0.4243 0.94282 0.0
H822 H 0.57586 0.41915 0.98112 0.0
H823 H 0.59195 0.41755 0.94603 0.0
H824 H 0.60554 0.43441 0.94297 0.0
H825 H 0.6037 0.42635 0.96279 0.0
H826 H 0.57565 0.45668 0.97611 0.0
H827 H 0.59312 0.44617 0.98069 0.0
H828 H 0.59446 0.46333 0.96816 0.0
H829 H 0.51161 0.45855 0.89864 0.0
H830 H 0.54273 0.49341 0.87384 0.0
H831 H 0.56535 0.48747 0.8902 0.0
H832 H 0.52553 0.46816 0.93456 0.0
H833 H 0.51192 0.45094 0.92893 0.0
H834 H 0.52702 0.44997 0.94434 0.0
H835 H 0.53737 0.43136 0.89907 0.0
H836 H 0.538 0.42283 0.918 0.0
H837 H 0.51918 0.42948 0.91073 0.0
H838 H 0.52666 0.40679 0.96512 0.0
C839 C 0.54079 0.42342 0.95081 0.0
C840 C 0.75822 0.2172 0.30256 0.0
C841 C 0.76093 0.20908 0.28768 0.0
C842 C 0.75119 0.212 0.27435 0.0
C843 C 0.73574 0.22999 0.29109 0.0
C844 C 0.74559 0.22745 0.304 0.0
C845 C 0.74073 0.23635 0.3192 0.0
H846 H 0.68838 0.28282 0.35843 0.0
C847 C 0.72319 0.24061 0.29691 0.0
C848 C 0.72605 0.24432 0.31339 0.0
H849 H 0.73214 0.26479 0.37678 0.0
H850 H 0.737 0.25185 0.35096 0.0
H851 H 0.67597 0.25105 0.33782 0.0
H852 H 0.7045 0.29402 0.32488 0.0
H853 H 0.69031 0.28906 0.30938 0.0
H854 H 0.68335 0.29392 0.32945 0.0
H855 H 0.66719 0.26991 0.33521 0.0
H856 H 0.66964 0.25559 0.31849 0.0
C857 C 0.73618 0.22366 0.33189 0.0
C858 C 0.75475 0.24899 0.32433 0.0
C859 C 0.67931 0.25563 0.25872 0.0
C860 C 0.66531 0.26411 0.26099 0.0
C861 C 0.66207 0.27064 0.27657 0.0
C862 C 0.67251 0.26884 0.28952 0.0
C863 C 0.68634 0.26027 0.28703 0.0
C864 C 0.6895 0.25375 0.27186 0.0
C865 C 0.70432 0.2443 0.27169 0.0
C866 C 0.70969 0.24654 0.28919 0.0
C867 C 0.69913 0.25597 0.29809 0.0
C868 C 0.69906 0.22635 0.26693 0.0
C869 C 0.71686 0.25241 0.26023 0.0
C870 C 0.69906 0.27616 0.35689 0.0
C871 C 0.70979 0.27476 0.36983 0.0
C872 C 0.72345 0.26581 0.36722 0.0
C873 C 0.72637 0.25842 0.35211 0.0
C874 C 0.71557 0.25997 0.33935 0.0
C875 C 0.70225 0.26881 0.34181 0.0
C876 C 0.69239 0.26956 0.32668 0.0
C877 C 0.70204 0.25974 0.31475 0.0
C878 C 0.71551 0.25406 0.32229 0.0
C879 C 0.67534 0.26123 0.32961 0.0
C880 C 0.69247 0.28754 0.32231 0.0
H881 H 0.73152 0.22399 0.26544 0.0
H882 H 0.76565 0.21549 0.31298 0.0
H883 H 0.76168 0.25331 0.3137 0.0
H884 H 0.75045 0.26011 0.33022 0.0
H885 H 0.76339 0.24375 0.33249 0.0
H886 H 0.72949 0.21273 0.32615 0.0
H887 H 0.74716 0.21966 0.33773 0.0
H888 H 0.72803 0.22806 0.34132 0.0
H889 H 0.68232 0.2505 0.24698 0.0
H890 H 0.65124 0.27687 0.2789 0.0
H891 H 0.66927 0.27403 0.30102 0.0
H892 H 0.68666 0.22293 0.27134 0.0
H893 H 0.69897 0.22417 0.25363 0.0
H894 H 0.70673 0.21775 0.27241 0.0
H895 H 0.71705 0.26584 0.26168 0.0
H896 H 0.72935 0.24948 0.26273 0.0
H897 H 0.71387 0.24891 0.24744 0.0
H898 H 0.75293 0.20584 0.26277 0.0
C899 C 0.73865 0.22243 0.27597 0.0
C900 C 0.38413 0.05377 0.96529 0.0
C901 C 0.38171 0.03801 0.95825 0.0
C902 C 0.39222 0.033 0.94601 0.0
C903 C 0.40763 0.05905 0.94841 0.0
C904 C 0.39717 0.064 0.96028 0.0
C905 C 0.4021 0.08072 0.96726 0.0
H906 H 0.45847 0.14395 0.9738 0.0
C907 C 0.42032 0.07229 0.94651 0.0
C908 C 0.41714 0.08505 0.9575 0.0
H909 H 0.41429 0.13669 0.00087 0.0
H910 H 0.40646 0.11259 0.98432 0.0
H911 H 0.44225 0.13564 0.93957 0.0
H912 H 0.46748 0.10684 0.97157 0.0
H913 H 0.47509 0.10387 0.95194 0.0
H914 H 0.47672 0.12383 0.96145 0.0
H915 H 0.46389 0.13612 0.93974 0.0
H916 H 0.45175 0.12154 0.92712 0.0
C917 C 0.38842 0.09186 0.96388 0.0
C918 C 0.406 0.07931 0.98538 0.0
C919 C 0.46624 0.06467 0.90711 0.0
C920 C 0.47964 0.07488 0.90268 0.0
C921 C 0.48176 0.09071 0.90968 0.0
C922 C 0.4709 0.0962 0.92122 0.0
C923 C 0.45774 0.08575 0.92579 0.0
C924 C 0.45539 0.0704 0.91852 0.0
C925 C 0.44036 0.06126 0.92441 0.0
C926 C 0.43416 0.07362 0.9365 0.0
C927 C 0.44455 0.08781 0.93743 0.0
C928 C 0.42864 0.05766 0.90993 0.0
C929 C 0.44547 0.046 0.93262 0.0
C930 C 0.44711 0.13713 0.97611 0.0
C931 C 0.43708 0.142 0.98876 0.0
C932 C 0.4222 0.13312 0.99119 0.0
C933 C 0.41776 0.11907 0.98166 0.0
C934 C 0.42832 0.11386 0.96959 0.0
C935 C 0.44249 0.12313 0.96667 0.0
C936 C 0.452 0.11602 0.95305 0.0
C937 C 0.44157 0.10056 0.94878 0.0
C938 C 0.42781 0.09929 0.9586 0.0
C939 C 0.45266 0.12791 0.93914 0.0
C940 C 0.46877 0.11248 0.9597 0.0
H941 H 0.41274 0.0389 0.93169 0.0
H942 H 0.37636 0.05786 0.97489 0.0
H943 H 0.41203 0.06801 0.98737 0.0
H944 H 0.41453 0.08915 0.9903 0.0
H945 H 0.3948 0.07896 0.99271 0.0
H946 H 0.38256 0.08845 0.95202 0.0
H947 H 0.37889 0.09093 0.97325 0.0
H948 H 0.39287 0.1047 0.96302 0.0
H949 H 0.4642 0.05253 0.90171 0.0
H950 H 0.49205 0.09875 0.90645 0.0
H951 H 0.47328 0.10829 0.92627 0.0
H952 H 0.42958 0.06774 0.90151 0.0
H953 H 0.43144 0.04642 0.903 0.0
H954 H 0.41581 0.05662 0.91354 0.0
H955 H 0.45716 0.04863 0.93916 0.0
H956 H 0.43687 0.04171 0.9419 0.0
H957 H 0.44704 0.03592 0.92359 0.0
H958 H 0.39049 0.02095 0.94035 0.0
C959 C 0.40511 0.04346 0.94099 0.0
O960 O 0.23708 0.88144 0.02096 0.0
Cd961 Cd 0.24631 0.89805 0.03841 0.0
Cd962 Cd 0.2234 0.91593 0.02705 0.0
O963 O 0.21602 0.89452 0.01444 0.0
O964 O 0.25896 0.88567 0.05319 0.0
O965 O 0.23708 0.89771 0.06079 0.0
C966 C 0.24872 0.88895 0.06432 0.0
C967 C 0.20449 0.93197 0.0392 0.0
C968 C 0.22413 0.88212 0.01293 0.0
C969 C 0.25821 0.92797 0.02244 0.0
O970 O 0.24348 0.92936 0.01895 0.0
O971 O 0.26209 0.91654 0.03099 0.0
O972 O 0.20575 0.93035 0.02377 0.0
O973 O 0.21352 0.92375 0.0479 0.0
O974 O 0.14262 0.52881 0.27285 0.0
Cd975 Cd 0.12745 0.50898 0.2786 0.0
Cd976 Cd 0.11022 0.51788 0.25438 0.0
O977 O 0.1306 0.53261 0.24984 0.0
O978 O 0.14049 0.49447 0.29077 0.0
O979 O 0.12998 0.48772 0.26664 0.0
C980 C 0.13855 0.48405 0.27876 0.0
C981 C 0.09686 0.50278 0.23341 0.0
C982 C 0.14206 0.5362 0.25981 0.0
C983 C 0.09567 0.52098 0.28715 0.0
O984 O 0.09534 0.52523 0.27268 0.0
O985 O 0.10708 0.51299 0.29199 0.0
O986 O 0.09671 0.51832 0.23473 0.0
O987 O 0.10518 0.49571 0.24379 0.0
O988 O 0.75898 0.66709 0.9923 0.0
Cd989 Cd 0.75196 0.65152 0.00996 0.0
Cd990 Cd 0.77762 0.63688 0.9991 0.0
O991 O 0.7822 0.65728 0.98591 0.0
O992 O 0.73699 0.6641 0.02332 0.0
O993 O 0.75991 0.65613 0.03274 0.0
C994 C 0.74715 0.66396 0.03505 0.0
C995 C 0.79715 0.62693 0.01523 0.0
C996 C 0.77199 0.66778 0.98424 0.0
C997 C 0.74506 0.61894 0.9939 0.0
O998 O 0.76004 0.61964 0.99057 0.0
O999 O 0.73926 0.6302 0.00248 0.0
O1000 O 0.79785 0.62553 -0.00028 0.0
O1001 O 0.78567 0.63476 0.02163 0.0
O1002 O 0.89654 0.027 0.27557 0.0
Cd1003 Cd 0.8855 0.03557 0.25589 0.0
Cd1004 Cd 0.86588 0.04703 0.27807 0.0
O1005 O 0.8833 0.04065 0.29398 0.0
O1006 O 0.90201 0.03469 0.23864 0.0
O1007 O 0.89316 0.05763 0.24858 0.0
C1008 C 0.90281 0.05031 0.23901 0.0
C1009 C 0.85713 0.07312 0.27977 0.0
C1010 C 0.89438 0.03139 0.2902 0.0
C1011 C 0.85182 0.02079 0.25479 0.0
O1012 O 0.84988 0.02898 0.26789 0.0
O1013 O 0.86509 0.02245 0.24721 0.0
O1014 O 0.85254 0.06252 0.29003 0.0
O1015 O 0.86704 0.06897 0.2686 0.0
O1016 O 0.26511 0.17083 0.49523 0.0
Cd1017 Cd 0.25619 0.15551 0.51246 0.0
Cd1018 Cd 0.27974 0.13773 0.50094 0.0
O1019 O 0.28564 0.15723 0.48698 0.0
O1020 O 0.24283 0.16952 0.52615 0.0
O1021 O 0.26439 0.15861 0.53531 0.0
C1022 C 0.25269 0.16786 0.53785 0.0
C1023 C 0.29907 0.126 0.5159 0.0
C1024 C 0.27737 0.16948 0.48626 0.0
C1025 C 0.24564 0.12329 0.49677 0.0
O1026 O 0.26047 0.12208 0.49354 0.0
O1027 O 0.2412 0.1356 0.50483 0.0
O1028 O 0.29858 0.1243 0.50039 0.0
O1029 O 0.28894 0.13509 0.52296 0.0
O1030 O 0.40108 0.53378 0.77394 0.0
Cd1031 Cd 0.38644 0.54155 0.75618 0.0
Cd1032 Cd 0.36973 0.55047 0.78191 0.0
O1033 O 0.38923 0.54447 0.79517 0.0
O1034 O 0.40016 0.53957 0.73675 0.0
O1035 O 0.39291 0.56312 0.74674 0.0
C1036 C 0.40107 0.55513 0.73626 0.0
C1037 C 0.35967 0.57588 0.78458 0.0
C1038 C 0.40058 0.53675 0.78906 0.0
C1039 C 0.35387 0.5244 0.75991 0.0
O1040 O 0.35371 0.53172 0.77368 0.0
O1041 O 0.36546 0.52747 0.75026 0.0
O1042 O 0.35709 0.56533 0.79541 0.0
O1043 O 0.36856 0.57216 0.77238 0.0
O1044 O 0.73148 0.3776 0.51959 0.0
Cd1045 Cd 0.74152 0.39474 0.53642 0.0
Cd1046 Cd 0.72093 0.4131 0.52247 0.0
O1047 O 0.71217 0.39187 0.51076 0.0
O1048 O 0.7537 0.38226 0.55155 0.0
O1049 O 0.73253 0.3955 0.55895 0.0
C1050 C 0.74383 0.38641 0.56269 0.0
C1051 C 0.70416 0.43072 0.53556 0.0
C1052 C 0.71918 0.37874 0.51067 0.0
C1053 C 0.75591 0.42279 0.51852 0.0
O1054 O 0.74169 0.42428 0.51346 0.0
O1055 O 0.75844 0.41235 0.52878 0.0
O1056 O 0.70446 0.42899 0.52006 0.0
O1057 O 0.71287 0.42171 0.54377 0.0
O1058 O 0.64449 0.02899 0.77282 0.0
Cd1059 Cd 0.62953 0.00941 0.77964 0.0
Cd1060 Cd 0.61103 0.01859 0.75654 0.0
O1061 O 0.6314 0.03251 0.75034 0.0
O1062 O 0.64334 0.99518 0.7912 0.0
O1063 O 0.63136 0.98793 0.76784 0.0
C1064 C 0.64074 0.98454 0.77946 0.0
C1065 C 0.59503 0.00464 0.73664 0.0
C1066 C 0.64341 0.03609 0.75966 0.0
C1067 C 0.59895 0.02237 0.79035 0.0
O1068 O 0.59795 0.02668 0.77594 0.0
O1069 O 0.61024 0.01384 0.79442 0.0
O1070 O 0.59594 0.02021 0.7383 0.0
O1071 O 0.60388 0.99684 0.74593 0.0
O1072 O 0.98511 0.28111 0.91399 0.0
Cd1073 Cd 0.99309 0.26162 0.9008 0.0
Cd1074 Cd 0.00651 0.28477 0.88296 0.0
O1075 O 0.9984 0.30033 0.90079 0.0
O1076 O 0.99036 0.24337 0.91547 0.0
O1077 O 0.01426 0.25319 0.90706 0.0
C1078 C 0.00589 0.24321 0.91585 0.0
C1079 C 0.03316 0.28724 0.87418 0.0
C1080 C 0.98907 0.29603 0.9122 0.0
C1081 C 0.98067 0.26216 0.86718 0.0
O1082 O 0.98989 0.27502 0.86614 0.0
O1083 O 0.98057 0.25425 0.87993 0.0
O1084 O 0.02299 0.29755 0.87055 0.0
O1085 O 0.02831 0.2757 0.88337 0.0
O1086 O 0.48538 0.77596 0.41575 0.0
Cd1087 Cd 0.49522 0.75814 0.40157 0.0
Cd1088 Cd 0.50869 0.78326 0.38718 0.0
O1089 O 0.50155 0.79618 0.40743 0.0
O1090 O 0.49477 0.73853 0.41457 0.0
O1091 O 0.51739 0.7521 0.40723 0.0
C1092 C 0.51036 0.74044 0.41503 0.0
C1093 C 0.53494 0.78657 0.37728 0.0
C1094 C 0.49059 0.79079 0.41689 0.0
C1095 C 0.48311 0.76231 0.36886 0.0
O1096 O 0.4911 0.77601 0.37024 0.0
O1097 O 0.48421 0.75206 0.37965 0.0
O1098 O 0.52483 0.79748 0.37567 0.0
O1099 O 0.5303 0.77396 0.38513 0.0
O1100 O 0.98885 0.77841 0.65439 0.0
Cd1101 Cd 0.00803 0.77305 0.6397 0.0
Cd1102 Cd 0.99565 0.79549 0.62219 0.0
O1103 O 0.98224 0.80015 0.64242 0.0
O1104 O 0.02171 0.7608 0.65366 0.0
O1105 O 0.03021 0.78422 0.64369 0.0
C1106 C 0.03298 0.77227 0.65249 0.0
C1107 C 0.008 0.81671 0.60822 0.0
C1108 C 0.98036 0.79053 0.65383 0.0
C1109 C 0.99368 0.76146 0.60812 0.0
O1110 O 0.98829 0.77539 0.60776 0.0
O1111 O 0.0031 0.75822 0.61939 0.0
O1112 O 0.99252 0.81383 0.60832 0.0
O1113 O 0.01661 0.80784 0.61669 0.0
O1114 O 0.48683 0.2805 0.15625 0.0
Cd1115 Cd 0.50564 0.27446 0.14137 0.0
Cd1116 Cd 0.49432 0.29792 0.12425 0.0
O1117 O 0.48115 0.30273 0.1446 0.0
O1118 O 0.51909 0.26167 0.15506 0.0
O1119 O 0.52811 0.28498 0.14516 0.0
C1120 C 0.53063 0.27286 0.15384 0.0
C1121 C 0.50705 0.31915 0.11054 0.0
C1122 C 0.47889 0.29302 0.15589 0.0
C1123 C 0.49083 0.26402 0.10967 0.0
O1124 O 0.48623 0.27829 0.10951 0.0
O1125 O 0.49998 0.2601 0.12089 0.0
O1126 O 0.49154 0.31663 0.11075 0.0
O1127 O 0.51549 0.30989 0.11872 0.0
C1128 C 0.20737 0.80596 0.88644 0.0
C1129 C 0.2072 0.789 0.88585 0.0
C1130 C 0.20643 0.81462 0.9012 0.0
C1131 C 0.2132 0.81036 0.94491 0.0
H1132 H 0.19474 0.852 0.94782 0.0
C1133 C 0.23033 0.85778 0.9958 0.0
C1134 C 0.21926 0.86901 0.00079 0.0
C1135 C 0.22656 0.84653 0.98308 0.0
C1136 C 0.1997 0.84027 0.94738 0.0
H1137 H 0.20521 0.76769 0.90004 0.0
H1138 H 0.20296 0.78271 0.92583 0.0
H1139 H 0.19151 0.83519 0.92315 0.0
H1140 H 0.19518 0.87665 0.99692 0.0
H1141 H 0.18834 0.85659 0.97507 0.0
H1142 H 0.22096 0.81522 0.96929 0.0
C1143 C 0.20435 0.78943 0.91499 0.0
C1144 C 0.19809 0.83072 0.93308 0.0
C1145 C 0.20556 0.7808 0.90023 0.0
C1146 C 0.20403 0.86824 0.99326 0.0
C1147 C 0.20016 0.85681 0.98065 0.0
C1148 C 0.21459 0.8198 0.95929 0.0
C1149 C 0.20504 0.80649 0.91571 0.0
C1150 C 0.20518 0.81582 0.93149 0.0
C1151 C 0.21152 0.84604 0.97515 0.0
C1152 C 0.20824 0.83508 0.96059 0.0
H1153 H 0.20879 0.81258 0.87552 0.0
H1154 H 0.20734 0.82773 0.90122 0.0
H1155 H 0.21895 0.79905 0.94418 0.0
H1156 H 0.24221 0.85809 0.00128 0.0
H1157 H 0.23576 0.83867 0.97907 0.0
C1158 C 0.99246 0.55083 0.38774 0.0
C1159 C 0.98622 0.56599 0.3862 0.0
C1160 C 0.00385 0.54542 0.37679 0.0
C1161 C 0.01892 0.54956 0.33596 0.0
H1162 H 0.05902 0.53579 0.35284 0.0
C1163 C 0.07294 0.53794 0.2947 0.0
C1164 C 0.0828 0.52554 0.29837 0.0
C1165 C 0.06088 0.54245 0.30532 0.0
C1166 C 0.04779 0.5393 0.34789 0.0
H1167 H 0.98662 0.58721 0.37189 0.0
H1168 H 0.00638 0.57757 0.35247 0.0
H1169 H 0.03812 0.54413 0.37138 0.0
H1170 H 0.08756 0.5079 0.31592 0.0
H1171 H 0.06612 0.51534 0.33422 0.0
H1172 H 0.02828 0.5444 0.31249 0.0
C1173 C 0.00252 0.56997 0.36223 0.0
C1174 C 0.03588 0.54415 0.35853 0.0
C1175 C 0.99131 0.57551 0.37334 0.0
C1176 C 0.08023 0.5176 0.31282 0.0
C1177 C 0.06799 0.52194 0.32335 0.0
C1178 C 0.03073 0.54447 0.3253 0.0
C1179 C 0.009 0.55496 0.36397 0.0
C1180 C 0.0214 0.54943 0.35266 0.0
C1181 C 0.0582 0.53449 0.31977 0.0
C1182 C 0.04539 0.5394 0.33112 0.0
H1183 H 0.9888 0.54333 0.39764 0.0
H1184 H 0.00862 0.53377 0.37832 0.0
H1185 H 0.00776 0.55342 0.33116 0.0
H1186 H 0.07471 0.54438 0.2837 0.0
H1187 H 0.05383 0.55237 0.30229 0.0
C1188 C 0.76447 0.75717 0.87277 0.0
C1189 C 0.77901 0.76331 0.86588 0.0
C1190 C 0.76464 0.74731 0.88592 0.0
C1191 C 0.79127 0.73438 0.91829 0.0
H1192 H 0.75749 0.6996 0.92076 0.0
C1193 C 0.78925 0.68246 0.96385 0.0
C1194 C 0.77444 0.68011 0.97197 0.0
C1195 C 0.79087 0.6932 0.95132 0.0
C1196 C 0.76697 0.70931 0.92023 0.0
H1197 H 0.80517 0.76405 0.86777 0.0
H1198 H 0.80544 0.74619 0.89015 0.0
H1199 H 0.7583 0.71682 0.8978 0.0
H1200 H 0.74989 0.68751 0.97356 0.0
H1201 H 0.75271 0.70591 0.9516 0.0
H1202 H 0.8001 0.72637 0.94066 0.0
C1203 C 0.79388 0.74929 0.8856 0.0
C1204 C 0.76739 0.71926 0.90714 0.0
C1205 C 0.79372 0.75935 0.87256 0.0
C1206 C 0.76147 0.689 0.96758 0.0
C1207 C 0.76302 0.69949 0.95495 0.0
C1208 C 0.79098 0.72422 0.93129 0.0
C1209 C 0.77933 0.74308 0.89241 0.0
C1210 C 0.77939 0.7321 0.90609 0.0
C1211 C 0.77764 0.70151 0.94657 0.0
C1212 C 0.77868 0.71176 0.93246 0.0
H1213 H 0.7529 0.75976 0.86787 0.0
H1214 H 0.75318 0.74303 0.89102 0.0
H1215 H 0.8006 0.74424 0.91801 0.0
H1216 H 0.79948 0.67582 0.96699 0.0
H1217 H 0.80227 0.69458 0.94499 0.0
C1218 C 0.99884 0.00332 0.38713 0.0
C1219 C 0.00464 0.98795 0.38444 0.0
C1220 C 0.98547 0.00769 0.37857 0.0
C1221 C 0.95142 0.99066 0.3519 0.0
H1222 H 0.95197 0.03505 0.33884 0.0
C1223 C 0.91343 0.01186 0.29966 0.0
C1224 C 0.90505 0.02581 0.30271 0.0
C1225 C 0.92412 0.00689 0.31109 0.0
C1226 C 0.95157 0.02267 0.34258 0.0
H1227 H 0.00109 0.96504 0.37085 0.0
H1228 H 0.97815 0.97282 0.35533 0.0
H1229 H 0.9737 0.02701 0.35573 0.0
H1230 H 0.90115 0.0454 0.32018 0.0
H1231 H 0.9203 0.03689 0.34005 0.0
H1232 H 0.92964 0.98628 0.33793 0.0
C1233 C 0.98354 0.9814 0.36438 0.0
C1234 C 0.96399 0.01803 0.35232 0.0
C1235 C 0.99675 0.97693 0.37317 0.0
C1236 C 0.90742 0.03458 0.31753 0.0
C1237 C 0.91839 0.02977 0.32884 0.0
C1238 C 0.93916 0.99526 0.34192 0.0
C1239 C 0.97777 0.99689 0.3669 0.0
C1240 C 0.96415 0.00194 0.35705 0.0
C1241 C 0.92687 0.01592 0.32567 0.0
C1242 C 0.93918 0.01128 0.33711 0.0
H1243 H 0.00462 0.01194 0.39594 0.0
H1244 H 0.98119 0.01956 0.38115 0.0
H1245 H 0.95092 0.97825 0.35554 0.0
H1246 H 0.91179 0.00482 0.28839 0.0
H1247 H 0.93062 0.99624 0.30831 0.0
C1248 C 0.24225 0.24911 0.6651 0.0
C1249 C 0.23884 0.26494 0.66168 0.0
C1250 C 0.24478 0.23769 0.65257 0.0
C1251 C 0.25361 0.23492 0.60849 0.0
H1252 H 0.23831 0.18979 0.61179 0.0
C1253 C 0.24178 0.19069 0.55392 0.0
C1254 C 0.25112 0.1772 0.55329 0.0
C1255 C 0.24113 0.20044 0.56801 0.0
C1256 C 0.24276 0.20234 0.61083 0.0
H1257 H 0.23479 0.28114 0.64262 0.0
H1258 H 0.23853 0.26121 0.62081 0.0
H1259 H 0.23536 0.20893 0.63477 0.0
H1260 H 0.26664 0.16301 0.56708 0.0
H1261 H 0.26503 0.17995 0.59206 0.0
H1262 H 0.26019 0.2284 0.58425 0.0
C1263 C 0.23994 0.25765 0.63307 0.0
C1264 C 0.24116 0.21331 0.62397 0.0
C1265 C 0.23769 0.26908 0.64557 0.0
C1266 C 0.25938 0.17335 0.56723 0.0
C1267 C 0.25844 0.18297 0.58148 0.0
C1268 C 0.25492 0.22404 0.59532 0.0
C1269 C 0.24371 0.24183 0.63637 0.0
C1270 C 0.24634 0.22982 0.62288 0.0
C1271 C 0.24953 0.19674 0.58184 0.0
C1272 C 0.24935 0.20773 0.59632 0.0
H1273 H 0.24326 0.24567 0.67746 0.0
H1274 H 0.24783 0.22572 0.6556 0.0
H1275 H 0.25819 0.2474 0.60729 0.0
H1276 H 0.23532 0.19402 0.54338 0.0
H1277 H 0.23413 0.21098 0.56808 0.0
C1278 C 0.51498 0.61937 0.66142 0.0
C1279 C 0.52399 0.60683 0.65513 0.0
C1280 C 0.50101 0.61579 0.67048 0.0
C1281 C 0.48149 0.58274 0.69385 0.0
H1282 H 0.4419 0.60395 0.68795 0.0
C1283 C 0.42129 0.55397 0.7142 0.0
C1284 C 0.41243 0.56335 0.72502 0.0
C1285 C 0.43399 0.56115 0.70546 0.0
C1286 C 0.45295 0.59807 0.68979 0.0
H1287 H 0.525 0.58075 0.65267 0.0
H1288 H 0.50081 0.57453 0.66822 0.0
H1289 H 0.46646 0.61314 0.67344 0.0
H1290 H 0.40921 0.58781 0.73431 0.0
H1291 H 0.43151 0.60045 0.71871 0.0
H1292 H 0.46797 0.56737 0.70973 0.0
C1293 C 0.5047 0.58714 0.66667 0.0
C1294 C 0.46699 0.60334 0.68156 0.0
C1295 C 0.51859 0.5907 0.65774 0.0
C1296 C 0.41585 0.58027 0.72609 0.0
C1297 C 0.42858 0.5875 0.71719 0.0
C1298 C 0.46751 0.57742 0.70189 0.0
C1299 C 0.49583 0.59961 0.67334 0.0
C1300 C 0.48131 0.59544 0.68322 0.0
C1301 C 0.43808 0.57788 0.70724 0.0
C1302 C 0.45303 0.58478 0.69967 0.0
H1303 H 0.51886 0.63192 0.65957 0.0
H1304 H 0.49447 0.62566 0.67549 0.0
H1305 H 0.49242 0.57669 0.69577 0.0
H1306 H 0.41889 0.54094 0.71295 0.0
H1307 H 0.44099 0.55352 0.69766 0.0
C1308 C 0.76741 0.32125 0.68943 0.0
C1309 C 0.76387 0.30454 0.68616 0.0
C1310 C 0.7633 0.33249 0.67836 0.0
C1311 C 0.73804 0.33765 0.64242 0.0
H1312 H 0.77296 0.36867 0.63083 0.0
C1313 C 0.7595 0.37344 0.58352 0.0
C1314 C 0.74534 0.38045 0.57908 0.0
C1315 C 0.76075 0.36677 0.59853 0.0
C1316 C 0.76306 0.36016 0.63401 0.0
H1317 H 0.7529 0.28664 0.66874 0.0
H1318 H 0.74558 0.30622 0.64962 0.0
H1319 H 0.77627 0.35177 0.65371 0.0
H1320 H 0.7215 0.38631 0.58705 0.0
H1321 H 0.72362 0.37437 0.61336 0.0
H1322 H 0.72509 0.34562 0.62229 0.0
C1323 C 0.75139 0.31064 0.66082 0.0
C1324 C 0.76489 0.35058 0.64719 0.0
C1325 C 0.75559 0.2994 0.67181 0.0
C1326 C 0.73256 0.38099 0.59015 0.0
C1327 C 0.73374 0.37411 0.60515 0.0
C1328 C 0.73616 0.34733 0.62929 0.0
C1329 C 0.75545 0.32728 0.66384 0.0
C1330 C 0.75256 0.33892 0.65128 0.0
C1331 C 0.74781 0.36682 0.60942 0.0
C1332 C 0.74883 0.35837 0.6247 0.0
H1333 H 0.77351 0.32565 0.70049 0.0
H1334 H 0.76642 0.34526 0.68109 0.0
H1335 H 0.72827 0.32888 0.64539 0.0
H1336 H 0.76958 0.37288 0.57528 0.0
H1337 H 0.77166 0.36107 0.60139 0.0
C1338 C 0.48029 0.96522 0.65111 0.0
C1339 C 0.47439 0.94893 0.64874 0.0
C1340 C 0.493 0.96957 0.66178 0.0
C1341 C 0.52802 0.95382 0.68086 0.0
H1342 H 0.5274 0.99369 0.70718 0.0
C1343 C 0.57921 0.97938 0.7258 0.0
C1344 C 0.58308 0.99618 0.72537 0.0
C1345 C 0.56616 0.97201 0.71675 0.0
C1346 C 0.52778 0.98256 0.69984 0.0
H1347 H 0.4771 0.92445 0.65598 0.0
H1348 H 0.49952 0.93212 0.67467 0.0
H1349 H 0.50343 0.98365 0.69182 0.0
H1350 H 0.57702 0.01821 0.71435 0.0
H1351 H 0.55451 0.00539 0.69861 0.0
H1352 H 0.55255 0.95294 0.68886 0.0
C1353 C 0.49428 0.94146 0.66813 0.0
C1354 C 0.51406 0.97681 0.69106 0.0
C1355 C 0.48145 0.93709 0.65744 0.0
C1356 C 0.57426 0.00528 0.7151 0.0
C1357 C 0.56128 0.99796 0.70615 0.0
C1358 C 0.54181 0.95958 0.68973 0.0
C1359 C 0.5002 0.95776 0.67035 0.0
C1360 C 0.51414 0.96261 0.68115 0.0
C1361 C 0.5568 0.98136 0.70723 0.0
C1362 C 0.54192 0.97424 0.69896 0.0
H1363 H 0.47544 0.97462 0.64432 0.0
H1364 H 0.49751 0.98219 0.66296 0.0
H1365 H 0.52846 0.94288 0.67326 0.0
H1366 H 0.5858 0.97207 0.7336 0.0
H1367 H 0.56297 0.95918 0.71776 0.0
C1368 C 0.87135 0.22731 0.7685 0.0
C1369 C 0.86026 0.23932 0.76966 0.0
C1370 C 0.88589 0.22922 0.77712 0.0
C1371 C 0.91328 0.25986 0.79968 0.0
H1372 H 0.92695 0.22243 0.82091 0.0
C1373 C 0.97053 0.26462 0.83909 0.0
C1374 C 0.96919 0.25714 0.85392 0.0
C1375 C 0.9587 0.26125 0.82718 0.0
C1376 C 0.92328 0.23301 0.81511 0.0
H1377 H 0.85574 0.2628 0.7806 0.0
H1378 H 0.88097 0.26607 0.79583 0.0
H1379 H 0.90331 0.2195 0.80333 0.0
H1380 H 0.95471 0.23979 0.86765 0.0
H1381 H 0.9339 0.23419 0.84705 0.0
H1382 H 0.93273 0.27355 0.81207 0.0
C1383 C 0.87863 0.2553 0.78802 0.0
C1384 C 0.90983 0.23129 0.80486 0.0
C1385 C 0.86415 0.25344 0.77932 0.0
C1386 C 0.95612 0.24573 0.85634 0.0
C1387 C 0.94421 0.24246 0.84448 0.0
C1388 C 0.92666 0.2616 0.81 0.0
C1389 C 0.88961 0.24314 0.78716 0.0
C1390 C 0.90455 0.24474 0.79718 0.0
C1391 C 0.9452 0.25043 0.82988 0.0
C1392 C 0.93171 0.24824 0.81799 0.0
H1393 H 0.86875 0.2164 0.76096 0.0
H1394 H 0.89419 0.21975 0.77595 0.0
H1395 H 0.90969 0.27042 0.79379 0.0
H1396 H 0.98055 0.27334 0.83678 0.0
H1397 H 0.96002 0.26734 0.81595 0.0
C1398 C 0.41836 0.8783 0.51173 0.0
C1399 C 0.42894 0.89047 0.51911 0.0
C1400 C 0.42408 0.86754 0.49995 0.0
C1401 C 0.45589 0.86306 0.47011 0.0
H1402 H 0.44988 0.817 0.47679 0.0
C1403 C 0.49114 0.81718 0.43295 0.0
C1404 C 0.48334 0.80194 0.42875 0.0
C1405 C 0.48396 0.82791 0.44372 0.0
C1406 C 0.45145 0.82979 0.47454 0.0
H1407 H 0.4535 0.9014 0.51971 0.0
H1408 H 0.4634 0.88287 0.49886 0.0
H1409 H 0.43749 0.83613 0.49529 0.0
H1410 H 0.46183 0.78601 0.43246 0.0
H1411 H 0.44904 0.80488 0.45076 0.0
H1412 H 0.46956 0.85688 0.44924 0.0
C1413 C 0.45078 0.88152 0.50227 0.0
C1414 C 0.44437 0.84072 0.48518 0.0
C1415 C 0.44516 0.89204 0.51422 0.0
C1416 C 0.46823 0.79762 0.43558 0.0
C1417 C 0.46092 0.80844 0.44614 0.0
C1418 C 0.46277 0.85214 0.45932 0.0
C1419 C 0.44035 0.86907 0.49516 0.0
C1420 C 0.44671 0.85745 0.48316 0.0
C1421 C 0.46866 0.82375 0.45034 0.0
C1422 C 0.46083 0.83535 0.46151 0.0
H1423 H 0.40582 0.87687 0.51538 0.0
H1424 H 0.41581 0.85805 0.49457 0.0
H1425 H 0.45775 0.87593 0.46825 0.0
H1426 H 0.50285 0.82081 0.42797 0.0
H1427 H 0.49047 0.83943 0.44692 0.0
C1428 C 0.15338 0.28075 0.78877 0.0
C1429 C 0.15495 0.29492 0.78002 0.0
C1430 C 0.14174 0.27905 0.8009 0.0
C1431 C 0.11677 0.30348 0.82794 0.0
H1432 H 0.0889 0.26397 0.83052 0.0
C1433 C 0.05491 0.30177 0.85852 0.0
C1434 C 0.04951 0.28816 0.86705 0.0
C1435 C 0.06953 0.30208 0.85023 0.0
C1436 C 0.09679 0.27498 0.83017 0.0
H1437 H 0.14505 0.31804 0.77665 0.0
H1438 H 0.1249 0.3151 0.79773 0.0
H1439 H 0.11101 0.26514 0.81109 0.0
H1440 H 0.05546 0.26441 0.87404 0.0
H1441 H 0.08114 0.26497 0.85946 0.0
H1442 H 0.10236 0.31347 0.84671 0.0
C1443 C 0.13288 0.30547 0.79551 0.0
C1444 C 0.10942 0.27565 0.81902 0.0
C1445 C 0.14442 0.30714 0.78341 0.0
C1446 C 0.05932 0.27507 0.86758 0.0
C1447 C 0.07395 0.27534 0.85915 0.0
C1448 C 0.10418 0.30281 0.83907 0.0
C1449 C 0.1315 0.2915 0.80452 0.0
C1450 C 0.11927 0.29006 0.8175 0.0
C1451 C 0.07909 0.28877 0.85021 0.0
C1452 C 0.09379 0.28869 0.84003 0.0
H1453 H 0.16139 0.27117 0.78653 0.0
H1454 H 0.14098 0.26816 0.80767 0.0
H1455 H 0.12439 0.31464 0.82731 0.0
H1456 H 0.04765 0.31205 0.85789 0.0
H1457 H 0.07302 0.31253 0.8433 0.0
C1458 C 0.56573 0.68542 0.53203 0.0
C1459 C 0.57032 0.66942 0.53175 0.0
C1460 C 0.56222 0.69267 0.51771 0.0
C1461 C 0.54829 0.68176 0.47639 0.0
H1462 H 0.55765 0.72764 0.47039 0.0
C1463 C 0.51178 0.7176 0.43349 0.0
C1464 C 0.51972 0.73028 0.42521 0.0
C1465 C 0.52015 0.70918 0.44457 0.0
C1466 C 0.55514 0.71476 0.47174 0.0
H1467 H 0.57527 0.64866 0.51613 0.0
H1468 H 0.56945 0.66143 0.49115 0.0
H1469 H 0.56904 0.71534 0.49352 0.0
H1470 H 0.54285 0.74362 0.42157 0.0
H1471 H 0.55751 0.72881 0.44093 0.0
H1472 H 0.53429 0.6812 0.45469 0.0
C1473 C 0.56838 0.6683 0.50246 0.0
C1474 C 0.56151 0.70775 0.4851 0.0
C1475 C 0.57189 0.66105 0.51678 0.0
C1476 C 0.53638 0.73393 0.42779 0.0
C1477 C 0.54475 0.72552 0.43894 0.0
C1478 C 0.54191 0.68877 0.46304 0.0
C1479 C 0.56322 0.68409 0.50277 0.0
C1480 C 0.5579 0.69123 0.48775 0.0
C1481 C 0.53666 0.71325 0.44768 0.0
C1482 C 0.54499 0.70541 0.46074 0.0
H1483 H 0.5646 0.69227 0.54335 0.0
H1484 H 0.55815 0.7048 0.51841 0.0
H1485 H 0.54515 0.66903 0.47812 0.0
H1486 H 0.49896 0.71448 0.43178 0.0
H1487 H 0.51349 0.69993 0.45121 0.0
C1488 C 0.86126 0.78164 0.73971 0.0
C1489 C 0.85383 0.79605 0.74341 0.0
C1490 C 0.87487 0.78168 0.72986 0.0
C1491 C 0.90798 0.80922 0.71433 0.0
H1492 H 0.91469 0.77202 0.6857 0.0
C1493 C 0.95889 0.80674 0.66635 0.0
C1494 C 0.96726 0.79258 0.66565 0.0
C1495 C 0.94542 0.80792 0.67632 0.0
C1496 C 0.91301 0.78244 0.69374 0.0
H1497 H 0.85478 0.82179 0.73932 0.0
H1498 H 0.87811 0.82172 0.72155 0.0
H1499 H 0.88979 0.77266 0.70113 0.0
H1500 H 0.96836 0.76876 0.67527 0.0
H1501 H 0.94475 0.77079 0.6925 0.0
H1502 H 0.93116 0.81909 0.70651 0.0
C1503 C 0.87364 0.81044 0.72661 0.0
C1504 C 0.89877 0.7828 0.70262 0.0
C1505 C 0.86009 0.81044 0.73662 0.0
C1506 C 0.96219 0.77984 0.67551 0.0
C1507 C 0.94861 0.78094 0.6853 0.0
C1508 C 0.92216 0.80893 0.70526 0.0
C1509 C 0.88131 0.79609 0.72325 0.0
C1510 C 0.89613 0.79612 0.71318 0.0
C1511 C 0.93995 0.79488 0.6856 0.0
C1512 C 0.92487 0.79545 0.69503 0.0
H1513 H 0.85662 0.77029 0.74451 0.0
H1514 H 0.88053 0.77042 0.72772 0.0
H1515 H 0.90649 0.81957 0.7225 0.0
H1516 H 0.96252 0.81679 0.65894 0.0
H1517 H 0.93891 0.81878 0.67632 0.0
C1518 C 0.03293 0.89996 0.49526 0.0
C1519 C 0.04764 0.89976 0.48689 0.0
C1520 C 0.03069 0.89174 0.50945 0.0
C1521 C 0.04558 0.85925 0.53283 0.0
H1522 H 0.02346 0.88085 0.56786 0.0
C1523 C 0.03173 0.82871 0.59298 0.0
C1524 C 0.01546 0.82896 0.59761 0.0
C1525 C 0.03794 0.83874 0.58099 0.0
C1526 C 0.02965 0.87467 0.55819 0.0
H1527 H 0.07132 0.89031 0.48659 0.0
H1528 H 0.06742 0.87599 0.51154 0.0
H1529 H 0.0296 0.89501 0.54328 0.0
H1530 H 0.99321 0.84054 0.59404 0.0
H1531 H 0.004 0.858 0.57333 0.0
H1532 H 0.04529 0.83876 0.54766 0.0
C1533 C 0.05763 0.88252 0.50706 0.0
C1534 C 0.03311 0.88274 0.54409 0.0
C1535 C 0.0599 0.89078 0.49284 0.0
C1536 C 0.00579 0.84003 0.5907 0.0
C1537 C 0.01201 0.85012 0.57888 0.0
C1538 C 0.04211 0.85116 0.54697 0.0
C1539 C 0.04309 0.88314 0.51565 0.0
C1540 C 0.04076 0.87499 0.53111 0.0
C1541 C 0.02803 0.84932 0.57361 0.0
C1542 C 0.03378 0.85866 0.55964 0.0
H1543 H 0.02331 0.90692 0.49114 0.0
H1544 H 0.01923 0.89222 0.51564 0.0
H1545 H 0.05142 0.85294 0.52301 0.0
H1546 H 0.03946 0.82027 0.59808 0.0
H1547 H 0.05038 0.83798 0.57726 0.0
C1548 C 0.13778 0.76412 0.75121 0.0
C1549 C 0.154 0.76927 0.74841 0.0
C1550 C 0.12629 0.76425 0.73896 0.0
C1551 C 0.1147 0.78452 0.70443 0.0
H1552 H 0.08986 0.74435 0.69193 0.0
C1553 C 0.06192 0.78224 0.65818 0.0
C1554 C 0.04833 0.77177 0.66146 0.0
C1555 C 0.07626 0.7817 0.66702 0.0
C1556 C 0.09652 0.75573 0.69538 0.0
H1557 H 0.171 0.77875 0.73081 0.0
H1558 H 0.15059 0.77951 0.70935 0.0
H1559 H 0.11212 0.74412 0.71105 0.0
H1560 H 0.03903 0.75269 0.67671 0.0
H1561 H 0.06355 0.75216 0.69241 0.0
H1562 H 0.09857 0.79635 0.68958 0.0
C1563 C 0.14693 0.77519 0.72099 0.0
C1564 C 0.10936 0.75553 0.70622 0.0
C1565 C 0.15854 0.77471 0.73319 0.0
C1566 C 0.04933 0.76081 0.67375 0.0
C1567 C 0.06351 0.76042 0.68269 0.0
C1568 C 0.10163 0.78479 0.69379 0.0
C1569 C 0.13075 0.76982 0.72378 0.0
C1570 C 0.11837 0.76994 0.71102 0.0
C1571 C 0.07721 0.7708 0.67944 0.0
C1572 C 0.09215 0.77043 0.68939 0.0
H1573 H 0.13405 0.75979 0.76284 0.0
H1574 H 0.11386 0.76012 0.74136 0.0
H1575 H 0.12148 0.79579 0.70807 0.0
H1576 H 0.06151 0.79079 0.64873 0.0
H1577 H 0.08659 0.78976 0.66404 0.0
C1578 C 0.9358 0.66179 0.50667 0.0
C1579 C 0.94604 0.64985 0.50146 0.0
C1580 C 0.94147 0.67438 0.51748 0.0
C1581 C 0.97049 0.68373 0.54983 0.0
H1582 H 0.96521 0.72878 0.54185 0.0
C1583 C 0.99769 0.73534 0.59278 0.0
C1584 C 0.98877 0.74896 0.59545 0.0
C1585 C 0.99297 0.72354 0.58079 0.0
C1586 C 0.96657 0.71625 0.54441 0.0
H1587 H 0.97012 0.64161 0.50342 0.0
H1588 H 0.97995 0.66349 0.52257 0.0
H1589 H 0.95568 0.70766 0.52189 0.0
H1590 H 0.96782 0.76083 0.58778 0.0
H1591 H 0.95923 0.73999 0.56735 0.0
H1592 H 0.98081 0.69208 0.57255 0.0
C1593 C 0.96762 0.66317 0.51817 0.0
C1594 C 0.96119 0.7042 0.53292 0.0
C1595 C 0.96204 0.65075 0.50717 0.0
C1596 C 0.97502 0.75052 0.58592 0.0
C1597 C 0.97016 0.7386 0.57412 0.0
C1598 C 0.97564 0.69575 0.56144 0.0
C1599 C 0.95737 0.67504 0.52346 0.0
C1600 C 0.96313 0.68785 0.53553 0.0
C1601 C 0.97908 0.72496 0.57136 0.0
C1602 C 0.97377 0.71218 0.55889 0.0
H1603 H 0.92344 0.66137 0.50237 0.0
H1604 H 0.93333 0.68337 0.52146 0.0
H1605 H 0.97194 0.67117 0.55219 0.0
H1606 H 0.00842 0.73388 0.59984 0.0
H1607 H 0.00033 0.71337 0.57883 0.0
C1608 C 0.76895 0.89547 0.22301 0.0
C1609 C 0.75348 0.89472 0.22998 0.0
C1610 C 0.77873 0.90996 0.22353 0.0
C1611 C 0.77844 0.95454 0.23253 0.0
H1612 H 0.82414 0.95093 0.24007 0.0
C1613 C 0.82388 0.00707 0.25643 0.0
C1614 C 0.83915 0.00831 0.24905 0.0
C1615 C 0.81259 0.99418 0.25216 0.0
C1616 C 0.81144 0.95212 0.23777 0.0
H1617 H 0.73599 0.90897 0.24243 0.0
H1618 H 0.75335 0.93397 0.2441 0.0
H1619 H 0.80613 0.92651 0.23654 0.0
H1620 H 0.85424 0.99735 0.23089 0.0
H1621 H 0.83461 0.97479 0.22363 0.0
H1622 H 0.78387 0.98031 0.23451 0.0
C1623 C 0.75782 0.92342 0.23792 0.0
C1624 C 0.80109 0.93812 0.23567 0.0
C1625 C 0.74794 0.90897 0.23719 0.0
C1626 C 0.84263 0.99674 0.23686 0.0
C1627 C 0.83143 0.98378 0.23274 0.0
C1628 C 0.7888 0.96859 0.23486 0.0
C1629 C 0.77343 0.92406 0.23127 0.0
C1630 C 0.78444 0.93911 0.23302 0.0
C1631 C 0.81644 0.9822 0.24057 0.0
C1632 C 0.8054 0.96748 0.2375 0.0
H1633 H 0.77378 0.88476 0.21751 0.0
H1634 H 0.79054 0.91002 0.21799 0.0
H1635 H 0.76574 0.9558 0.23028 0.0
H1636 H 0.8208 0.01581 0.26582 0.0
H1637 H 0.80114 0.99319 0.25843 0.0
C1638 C 0.77514 0.18638 0.29883 0.0
C1639 C 0.77333 0.19702 0.28636 0.0
C1640 C 0.78652 0.17482 0.29767 0.0
C1641 C 0.80963 0.15153 0.26826 0.0
H1642 H 0.83311 0.14124 0.30639 0.0
C1643 C 0.85314 0.09988 0.26789 0.0
C1644 C 0.85067 0.0893 0.28056 0.0
C1645 C 0.84591 0.11464 0.26823 0.0
C1646 C 0.82663 0.14396 0.29564 0.0
H1647 H 0.78221 0.20391 0.26293 0.0
H1648 H 0.80212 0.18357 0.26086 0.0
H1649 H 0.81631 0.16419 0.30751 0.0
H1650 H 0.83911 0.08614 0.30373 0.0
H1651 H 0.8266 0.11177 0.30433 0.0
H1652 H 0.81972 0.13106 0.2565 0.0
C1653 C 0.79461 0.18417 0.2715 0.0
C1654 C 0.81698 0.15708 0.29629 0.0
C1655 C 0.7832 0.19579 0.27267 0.0
C1656 C 0.84125 0.09399 0.29377 0.0
C1657 C 0.83415 0.10875 0.29417 0.0
C1658 C 0.81932 0.1384 0.2676 0.0
C1659 C 0.79639 0.17355 0.284 0.0
C1660 C 0.80806 0.16078 0.28272 0.0
C1661 C 0.83623 0.11916 0.28133 0.0
C1662 C 0.82761 0.13425 0.28141 0.0
H1663 H 0.7675 0.18673 0.30938 0.0
H1664 H 0.7873 0.1666 0.30735 0.0
H1665 H 0.80282 0.15397 0.25763 0.0
H1666 H 0.86034 0.0966 0.25754 0.0
H1667 H 0.84783 0.12247 0.25822 0.0
C1668 C 0.353 0.03153 0.96651 0.0
C1669 C 0.36868 0.02662 0.96415 0.0
C1670 C 0.34086 0.02088 0.97254 0.0
C1671 C 0.33068 0.9772 0.97922 0.0
H1672 H 0.29951 0.99401 0.00917 0.0
C1673 C 0.28721 0.93612 0.01653 0.0
C1674 C 0.27088 0.93956 0.01627 0.0
C1675 C 0.2991 0.94682 0.01017 0.0
C1676 C 0.30808 0.98919 0.00074 0.0
H1677 H 0.38409 0.00686 0.96644 0.0
H1678 H 0.36308 0.98838 0.97733 0.0
H1679 H 0.32037 0.0125 0.99793 0.0
H1680 H 0.25425 0.9571 0.00942 0.0
H1681 H 0.2751 0.97589 0.99853 0.0
H1682 H 0.31854 0.95383 0.9824 0.0
C1683 C 0.35995 0.00027 0.97412 0.0
C1684 C 0.31999 -0.00023 0.99422 0.0
C1685 C 0.37202 0.01086 0.96791 0.0
C1686 C 0.26672 0.95407 0.00976 0.0
C1687 C 0.27864 0.96487 0.0036 0.0
C1688 C 0.31889 0.96661 0.98589 0.0
C1689 C 0.34421 0.00514 0.97653 0.0
C1690 C 0.33143 0.99391 0.98336 0.0
C1691 C 0.29492 0.96128 0.00363 0.0
C1692 C 0.30748 0.97251 0.99669 0.0
H1693 H 0.35009 0.04359 0.96356 0.0
H1694 H 0.32882 0.02496 0.97395 0.0
H1695 H 0.33908 0.97229 0.97067 0.0
H1696 H 0.2908 0.92503 0.02143 0.0
H1697 H 0.31159 0.94385 0.01045 0.0
C1698 C 0.2185 0.36518 0.26459 0.0
C1699 C 0.22597 0.36171 0.27911 0.0
C1700 C 0.20785 0.3775 0.26425 0.0
C1701 C 0.19905 0.41518 0.28633 0.0
H1702 H 0.15829 0.41069 0.26306 0.0
C1703 C 0.15415 0.46421 0.29278 0.0
C1704 C 0.14651 0.46867 0.27875 0.0
C1705 C 0.16278 0.45039 0.29262 0.0
C1706 C 0.16971 0.41218 0.26947 0.0
H1707 H 0.22802 0.36837 0.30464 0.0
H1708 H 0.20936 0.38964 0.30406 0.0
H1709 H 0.17545 0.3879 0.26297 0.0
H1710 H 0.14152 0.46185 0.25361 0.0
H1711 H 0.1569 0.4378 0.25324 0.0
H1712 H 0.19358 0.43942 0.29268 0.0
C1713 C 0.21179 0.38293 0.29293 0.0
C1714 C 0.17952 0.39913 0.26943 0.0
C1715 C 0.22234 0.37061 0.29329 0.0
C1716 C 0.14728 0.45872 0.26463 0.0
C1717 C 0.15603 0.4449 0.26444 0.0
C1718 C 0.18933 0.42819 0.28631 0.0
C1719 C 0.20459 0.38665 0.27839 0.0
C1720 C 0.19422 0.40047 0.27799 0.0
C1721 C 0.16412 0.44075 0.27837 0.0
C1722 C 0.17447 0.42683 0.27802 0.0
H1723 H 0.22095 0.35844 0.25349 0.0
H1724 H 0.20252 0.38015 0.25285 0.0
H1725 H 0.21048 0.4167 0.29275 0.0
H1726 H 0.15365 0.47152 0.30391 0.0
H1727 H 0.16854 0.44734 0.30367 0.0
C1728 C 0.13421 0.0277 0.45015 0.0
C1729 C 0.13807 0.01171 0.44659 0.0
C1730 C 0.14631 0.03975 0.45443 0.0
C1731 C 0.1879 0.04496 0.47076 0.0
H1732 H 0.18525 0.0893 0.45852 0.0
C1733 C 0.23848 0.09558 0.48434 0.0
C1734 C 0.23352 0.11038 0.49083 0.0
C1735 C 0.22712 0.08346 0.47844 0.0
C1736 C 0.18606 0.07698 0.4621 0.0
H1737 H 0.15764 0.99587 0.44415 0.0
H1738 H 0.1789 0.01702 0.45129 0.0
H1739 H 0.16523 0.06825 0.44821 0.0
H1740 H 0.21271 0.12406 0.49619 0.0
H1741 H 0.19285 0.10287 0.48575 0.0
H1742 H 0.20885 0.05373 0.48452 0.0
C1743 C 0.16647 0.02018 0.45115 0.0
C1744 C 0.1746 0.06492 0.45623 0.0
C1745 C 0.15433 0.00808 0.44699 0.0
C1746 C 0.21693 0.11279 0.4913 0.0
C1747 C 0.20557 0.10072 0.48523 0.0
C1748 C 0.19944 0.05699 0.47651 0.0
C1749 C 0.16258 0.03612 0.45513 0.0
C1750 C 0.17529 0.04879 0.46061 0.0
C1751 C 0.21057 0.08595 0.47875 0.0
C1752 C 0.19854 0.07313 0.47235 0.0
H1753 H 0.12175 0.03079 0.45019 0.0
H1754 H 0.14282 0.0518 0.45769 0.0
H1755 H 0.18864 0.03273 0.47462 0.0
H1756 H 0.25117 0.09333 0.48382 0.0
H1757 H 0.2313 0.07223 0.4734 0.0
C1758 C 0.72013 0.16067 0.72244 0.0
C1759 C 0.73004 0.16817 0.73478 0.0
C1760 C 0.71137 0.14588 0.72477 0.0
C1761 C 0.69571 0.1196 0.75694 0.0
H1762 H 0.69219 0.08628 0.72246 0.0
C1763 C 0.66711 0.05554 0.76717 0.0
C1764 C 0.65541 0.04944 0.75576 0.0
C1765 C 0.67724 0.0693 0.76417 0.0
C1766 C 0.69302 0.09551 0.73217 0.0
H1767 H 0.73822 0.16618 0.75938 0.0
H1768 H 0.72337 0.14025 0.76327 0.0
H1769 H 0.70747 0.11208 0.71815 0.0
H1770 H 0.64573 0.05257 0.73191 0.0
H1771 H 0.66344 0.07655 0.7267 0.0
H1772 H 0.68131 0.10303 0.77097 0.0
C1773 C 0.7222 0.14584 0.75184 0.0
C1774 C 0.7017 0.11031 0.72968 0.0
C1775 C 0.73088 0.16063 0.74954 0.0
C1776 C 0.65456 0.05698 0.74098 0.0
C1777 C 0.66477 0.07068 0.73796 0.0
C1778 C 0.68712 0.1048 0.75945 0.0
C1779 C 0.71235 0.13827 0.73949 0.0
C1780 C 0.70311 0.12254 0.74204 0.0
C1781 C 0.67597 0.07718 0.74966 0.0
C1782 C 0.68566 0.09261 0.74708 0.0
H1783 H 0.71932 0.1661 0.71088 0.0
H1784 H 0.70374 0.14047 0.71507 0.0
H1785 H 0.6963 0.12884 0.76663 0.0
H1786 H 0.66812 0.05 0.77866 0.0
H1787 H 0.68593 0.07392 0.77331 0.0
C1788 C 0.36153 0.02 0.58638 0.0
C1789 C 0.37142 0.01165 0.57563 0.0
C1790 C 0.3546 0.03399 0.58181 0.0
C1791 C 0.35944 0.06625 0.55247 0.0
H1792 H 0.31439 0.07221 0.5616 0.0
C1793 C 0.3219 0.10814 0.51714 0.0
C1794 C 0.31001 0.1166 0.52518 0.0
C1795 C 0.33077 0.09739 0.52528 0.0
C1796 C 0.32707 0.0709 0.55922 0.0
H1797 H 0.38186 0.01152 0.55169 0.0
H1798 H 0.36952 0.03563 0.54362 0.0
H1799 H 0.32679 0.04894 0.57188 0.0
H1800 H 0.2986 0.12101 0.54828 0.0
H1801 H 0.31418 0.10217 0.56258 0.0
H1802 H 0.35962 0.08798 0.53948 0.0
C1803 C 0.36725 0.0315 0.55565 0.0
C1804 C 0.33416 0.05754 0.56508 0.0
C1805 C 0.37412 0.01752 0.56019 0.0
C1806 C 0.30769 0.11466 0.54176 0.0
C1807 C 0.31651 0.10379 0.54991 0.0
C1808 C 0.35235 0.07959 0.54661 0.0
C1809 C 0.35751 0.03997 0.56643 0.0
C1810 C 0.35033 0.05488 0.56147 0.0
C1811 C 0.32791 0.0948 0.54167 0.0
C1812 C 0.336 0.08188 0.54963 0.0
H1813 H 0.35913 0.01571 0.59832 0.0
H1814 H 0.3472 0.04027 0.59041 0.0
H1815 H 0.37203 0.06474 0.54978 0.0
H1816 H 0.324 0.10938 0.50437 0.0
H1817 H 0.33934 0.09055 0.51853 0.0
C1818 C 0.63306 0.54504 0.58959 0.0
C1819 C 0.64072 0.56028 0.58639 0.0
C1820 C 0.64091 0.53089 0.58651 0.0
C1821 C 0.67203 0.5155 0.56003 0.0
H1822 H 0.66704 0.4777 0.58596 0.0
C1823 C 0.68571 0.45302 0.53402 0.0
C1824 C 0.69523 0.44371 0.54341 0.0
C1825 C 0.6791 0.46676 0.54074 0.0
C1826 C 0.66863 0.48819 0.57866 0.0
H1827 H 0.663 0.57264 0.57828 0.0
H1828 H 0.67673 0.5479 0.57285 0.0
H1829 H 0.65667 0.50321 0.59588 0.0
H1830 H 0.70462 0.44107 0.56745 0.0
H1831 H 0.69299 0.46521 0.57923 0.0
H1832 H 0.68393 0.50059 0.54281 0.0
C1833 C 0.66453 0.54691 0.57753 0.0
C1834 C 0.66261 0.50276 0.58428 0.0
C1835 C 0.65668 0.56108 0.58063 0.0
C1836 C 0.69732 0.44799 0.5599 0.0
C1837 C 0.69066 0.4618 0.56665 0.0
C1838 C 0.67796 0.50097 0.5544 0.0
C1839 C 0.65661 0.53164 0.58011 0.0
C1840 C 0.66411 0.51652 0.57494 0.0
C1841 C 0.68185 0.47156 0.55701 0.0
C1842 C 0.67613 0.4871 0.56353 0.0
H1843 H 0.62069 0.54395 0.5938 0.0
H1844 H 0.63439 0.51933 0.58842 0.0
H1845 H 0.67323 0.5258 0.55244 0.0
H1846 H 0.68374 0.44998 0.52131 0.0
H1847 H 0.67205 0.47382 0.53308 0.0
C1848 C 0.71121 0.27574 0.40012 0.0
C1849 C 0.70715 0.28299 0.38582 0.0
C1850 C 0.70998 0.28402 0.41506 0.0
C1851 C 0.69129 0.31772 0.4364 0.0
H1852 H 0.73031 0.32123 0.46245 0.0
C1853 C 0.70412 0.36813 0.48581 0.0
C1854 C 0.714 0.36532 0.49898 0.0
C1855 C 0.70107 0.35621 0.47352 0.0
C1856 C 0.71915 0.32011 0.45559 0.0
H1857 H 0.69817 0.30455 0.37618 0.0
H1858 H 0.69568 0.31878 0.4023 0.0
H1859 H 0.72882 0.30369 0.43813 0.0
H1860 H 0.7275 0.34737 0.51015 0.0
H1861 H 0.7217 0.32634 0.48901 0.0
H1862 H 0.68158 0.33414 0.45381 0.0
C1863 C 0.69979 0.30667 0.40188 0.0
C1864 C 0.71835 0.31009 0.44158 0.0
C1865 C 0.7012 0.29847 0.38692 0.0
C1866 C 0.71999 0.34998 0.50006 0.0
C1867 C 0.71675 0.33796 0.48787 0.0
C1868 C 0.692 0.3276 0.45054 0.0
C1869 C 0.70445 0.29964 0.41606 0.0
C1870 C 0.70454 0.30904 0.43169 0.0
C1871 C 0.70765 0.34108 0.4742 0.0
C1872 C 0.70607 0.32919 0.46016 0.0
H1873 H 0.71548 0.2637 0.39979 0.0
H1874 H 0.71347 0.27826 0.42584 0.0
H1875 H 0.68043 0.31697 0.42906 0.0
H1876 H 0.69935 0.37984 0.48457 0.0
H1877 H 0.69418 0.35918 0.46313 0.0
C1878 C 0.4967 0.07839 0.87812 0.0
C1879 C 0.49156 0.06898 0.89103 0.0
C1880 C 0.50826 0.07301 0.86735 0.0
C1881 C 0.52849 0.0362 0.85366 0.0
H1882 H 0.55984 0.06794 0.83648 0.0
C1883 C 0.58493 0.01968 0.81693 0.0
C1884 C 0.58695 0.02746 0.80232 0.0
C1885 C 0.57337 0.02446 0.82807 0.0
C1886 C 0.55111 0.05897 0.84115 0.0
H1887 H 0.49449 0.04668 0.90294 0.0
H1888 H 0.51507 0.03745 0.88446 0.0
H1889 H 0.53951 0.07679 0.85539 0.0
H1890 H 0.57859 0.04645 0.78798 0.0
H1891 H 0.55866 0.05495 0.80755 0.0
H1892 H 0.54049 0.01837 0.83961 0.0
C1893 C 0.50988 0.04878 0.88232 0.0
C1894 C 0.53939 0.06402 0.85191 0.0
C1895 C 0.49814 0.05407 0.89296 0.0
C1896 C 0.5773 0.04019 0.79912 0.0
C1897 C 0.56595 0.04512 0.81034 0.0
C1898 C 0.54038 0.03113 0.84307 0.0
C1899 C 0.51514 0.0582 0.8694 0.0
C1900 C 0.52782 0.05273 0.8582 0.0
C1901 C 0.56385 0.03727 0.82488 0.0
C1902 C 0.55169 0.0425 0.83662 0.0
H1903 H 0.49165 0.08985 0.87628 0.0
H1904 H 0.51172 0.08043 0.85734 0.0
H1905 H 0.51965 0.02718 0.85805 0.0
H1906 H 0.59216 0.0098 0.81971 0.0
H1907 H 0.57201 0.01828 0.83925 0.0
C1908 C 0.27254 0.26689 0.38131 0.0
C1909 C 0.27835 0.26175 0.36618 0.0
C1910 C 0.27387 0.2574 0.39466 0.0
C1911 C 0.28035 0.21543 0.40556 0.0
H1912 H 0.28939 0.23584 0.44791 0.0
C1913 C 0.29086 0.17799 0.46071 0.0
C1914 C 0.28105 0.18159 0.47399 0.0
C1915 C 0.29244 0.18848 0.44801 0.0
C1916 C 0.28686 0.23 0.43614 0.0
H1917 H 0.28986 0.24239 0.3532 0.0
H1918 H 0.29276 0.22624 0.37651 0.0
H1919 H 0.28801 0.25261 0.42461 0.0
H1920 H 0.26602 0.19946 0.48483 0.0
H1921 H 0.26896 0.21781 0.46275 0.0
H1922 H 0.27929 0.19283 0.41712 0.0
C1923 C 0.28693 0.23747 0.37806 0.0
C1924 C 0.28596 0.23959 0.42281 0.0
C1925 C 0.28546 0.24687 0.36471 0.0
C1926 C 0.2736 0.1963 0.47473 0.0
C1927 C 0.27534 0.20686 0.46212 0.0
C1928 C 0.28142 0.20586 0.41885 0.0
C1929 C 0.28114 0.24259 0.39321 0.0
C1930 C 0.28255 0.23243 0.40737 0.0
C1931 C 0.28443 0.20285 0.44846 0.0
C1932 C 0.28454 0.21305 0.43429 0.0
H1933 H 0.26715 0.27836 0.38292 0.0
H1934 H 0.26906 0.26162 0.40608 0.0
H1935 H 0.27741 0.20949 0.39393 0.0
H1936 H 0.29676 0.16675 0.45979 0.0
H1937 H 0.29966 0.18519 0.43768 0.0
C1938 C 0.49685 0.48427 0.88294 0.0
C1939 C 0.51147 0.48096 0.8754 0.0
C1940 C 0.48411 0.48955 0.87403 0.0
C1941 C 0.46793 0.49044 0.83288 0.0
H1942 H 0.44761 0.52858 0.84908 0.0
C1943 C 0.4269 0.52444 0.79264 0.0
C1944 C 0.41307 0.53073 0.79951 0.0
C1945 C 0.43843 0.51812 0.80231 0.0
C1946 C 0.45297 0.51777 0.84448 0.0
H1947 H 0.52407 0.48005 0.85257 0.0
H1948 H 0.5018 0.4892 0.83697 0.0
H1949 H 0.46822 0.5173 0.86526 0.0
H1950 H 0.40057 0.5354 0.82197 0.0
H1951 H 0.42057 0.52405 0.83886 0.0
H1952 H 0.45267 0.49076 0.81218 0.0
C1953 C 0.50019 0.48774 0.84977 0.0
C1954 C 0.46479 0.51133 0.85375 0.0
C1955 C 0.51297 0.48262 0.85871 0.0
C1956 C 0.41113 0.53072 0.81632 0.0
C1957 C 0.42263 0.52426 0.826 0.0
C1958 C 0.45603 0.49678 0.82367 0.0
C1959 C 0.4857 0.49145 0.85737 0.0
C1960 C 0.47251 0.49771 0.84796 0.0
C1961 C 0.43637 0.51778 0.81909 0.0
C1962 C 0.44853 0.51065 0.82926 0.0
H1963 H 0.49541 0.4832 0.89582 0.0
H1964 H 0.47303 0.4922 0.88016 0.0
H1965 H 0.47353 0.47979 0.82822 0.0
H1966 H 0.42884 0.52439 0.77975 0.0
H1967 H 0.44902 0.51358 0.7966 0.0
C1968 C 0.7357 0.74805 0.16027 0.0
C1969 C 0.73003 0.7631 0.15701 0.0
C1970 C 0.73796 0.73658 0.14772 0.0
C1971 C 0.74174 0.73311 0.10294 0.0
H1972 H 0.73395 0.68705 0.10911 0.0
C1973 C 0.73364 0.68558 0.05055 0.0
C1974 C 0.74468 0.67351 0.05021 0.0
C1975 C 0.73218 0.69572 0.06426 0.0
C1976 C 0.73627 0.69988 0.10731 0.0
H1977 H 0.72167 0.77783 0.13832 0.0
H1978 H 0.72485 0.75767 0.11652 0.0
H1979 H 0.7304 0.70647 0.1317 0.0
H1980 H 0.76242 0.66217 0.0642 0.0
H1981 H 0.75946 0.67975 0.08852 0.0
H1982 H 0.74688 0.72644 0.07836 0.0
C1983 C 0.72824 0.75483 0.1286 0.0
C1984 C 0.73432 0.71103 0.12023 0.0
C1985 C 0.72628 0.76637 0.14109 0.0
C1986 C 0.75383 0.67139 0.06411 0.0
C1987 C 0.75213 0.68138 0.078 0.0
C1988 C 0.74337 0.722 0.09001 0.0
C1989 C 0.73431 0.73985 0.13169 0.0
C1990 C 0.73689 0.72782 0.11818 0.0
C1991 C 0.74151 0.69381 0.07803 0.0
C1992 C 0.74054 0.70533 0.09205 0.0
H1993 H 0.73876 0.74531 0.17248 0.0
H1994 H 0.74285 0.7253 0.15059 0.0
H1995 H 0.7443 0.74586 0.10093 0.0
H1996 H 0.72644 0.68756 0.04003 0.0
H1997 H 0.72385 0.70517 0.06407 0.0
C1998 C 0.02678 0.10961 0.17918 0.0
C1999 C 0.0247 0.11296 0.16291 0.0
C2000 C 0.01339 0.1058 0.18887 0.0
C2001 C 0.98472 0.08498 0.20082 0.0
H2002 H 0.94356 0.10406 0.1979 0.0
C2003 C 0.92595 0.0509 0.21985 0.0
C2004 C 0.9153 0.05939 0.22961 0.0
C2005 C 0.93893 0.05913 0.21235 0.0
C2006 C 0.95502 0.09871 0.19894 0.0
H2007 H 0.00685 0.1155 0.14425 0.0
H2008 H 0.98358 0.10891 0.16113 0.0
H2009 H 0.96738 0.11662 0.18465 0.0
H2010 H 0.90953 0.08326 0.23863 0.0
H2011 H 0.9323 0.09771 0.22537 0.0
H2012 H 0.97242 0.06701 0.21492 0.0
C2013 C 0.99553 0.10941 0.16647 0.0
C2014 C 0.96861 0.10583 0.19129 0.0
C2015 C 0.00891 0.1132 0.15679 0.0
C2016 C 0.91754 0.07639 0.23118 0.0
C2017 C 0.93055 0.08466 0.22359 0.0
C2018 C 0.97116 0.07786 0.20837 0.0
C2019 C 0.99764 0.10525 0.1825 0.0
C2020 C 0.98356 0.09889 0.19196 0.0
C2021 C 0.94157 0.07605 0.21439 0.0
C2022 C 0.9561 0.08446 0.20727 0.0
H2023 H 0.03878 0.10959 0.18433 0.0
H2024 H 0.01539 0.10291 0.20126 0.0
H2025 H 0.99599 0.07922 0.20143 0.0
H2026 H 0.92453 0.03782 0.21829 0.0
H2027 H 0.94703 0.05221 0.20506 0.0
C2028 C 0.27112 0.81945 0.18887 0.0
C2029 C 0.2673 0.8028 0.18547 0.0
C2030 C 0.26725 0.83085 0.17789 0.0
C2031 C 0.24233 0.83675 0.14186 0.0
H2032 H 0.27742 0.86811 0.1315 0.0
C2033 C 0.23722 0.88213 0.09135 0.0
C2034 C 0.25015 0.88228 0.08042 0.0
C2035 C 0.23829 0.87454 0.10599 0.0
C2036 C 0.26748 0.85948 0.13432 0.0
H2037 H 0.25603 0.78517 0.168 0.0
H2038 H 0.24921 0.80505 0.14892 0.0
H2039 H 0.28048 0.85045 0.1538 0.0
H2040 H 0.27454 0.87515 0.07651 0.0
H2041 H 0.27641 0.86207 0.10196 0.0
H2042 H 0.22958 0.8454 0.12194 0.0
C2043 C 0.25505 0.8093 0.16016 0.0
C2044 C 0.26917 0.84947 0.14718 0.0
C2045 C 0.25898 0.79789 0.1711 0.0
C2046 C 0.26434 0.87521 0.08464 0.0
C2047 C 0.26547 0.8678 0.09929 0.0
C2048 C 0.2406 0.84685 0.12904 0.0
C2049 C 0.2594 0.82588 0.1633 0.0
C2050 C 0.25676 0.83774 0.15087 0.0
C2051 C 0.25239 0.86718 0.11003 0.0
C2052 C 0.25332 0.85805 0.1249 0.0
H2053 H 0.27725 0.82367 0.19997 0.0
H2054 H 0.27055 0.84356 0.18074 0.0
H2055 H 0.23249 0.82794 0.14453 0.0
H2056 H 0.22613 0.88747 0.08841 0.0
H2057 H 0.22806 0.87431 0.11409 0.0
C2058 C 0.98679 0.46414 0.14475 0.0
C2059 C 0.97862 0.44864 0.14425 0.0
C2060 C 0.00092 0.46735 0.15378 0.0
C2061 C 0.02399 0.45448 0.18767 0.0
H2062 H 0.05926 0.47936 0.16745 0.0
C2063 C 0.08268 0.4768 0.22232 0.0
C2064 C 0.08678 0.49346 0.22104 0.0
C2065 C 0.07127 0.46864 0.21181 0.0
C2066 C 0.04954 0.47239 0.17326 0.0
H2067 H 0.97857 0.42449 0.15325 0.0
H2068 H 0.00338 0.43021 0.16927 0.0
H2069 H 0.03508 0.47036 0.15183 0.0
H2070 H 0.08285 0.51444 0.20728 0.0
H2071 H 0.06312 0.50031 0.18903 0.0
H2072 H 0.03825 0.45705 0.20929 0.0
C2073 C 0.9988 0.4398 0.16256 0.0
C2074 C 0.0357 0.46727 0.16433 0.0
C2075 C 0.98466 0.43653 0.15337 0.0
C2076 C 0.07991 0.50161 0.2086 0.0
C2077 C 0.06867 0.49347 0.19806 0.0
C2078 C 0.03786 0.45967 0.19665 0.0
C2079 C 0.00721 0.45517 0.16258 0.0
C2080 C 0.02259 0.45869 0.17158 0.0
C2081 C 0.06395 0.47698 0.19974 0.0
C2082 C 0.05057 0.4691 0.18965 0.0
H2083 H 0.9826 0.47367 0.13768 0.0
H2084 H 0.00701 0.47939 0.1538 0.0
H2085 H 0.01405 0.4479 0.19355 0.0
H2086 H 0.08776 0.47022 0.23183 0.0
H2087 H 0.06795 0.4559 0.2133 0.0
C2088 C 0.36628 0.75498 0.27911 0.0
C2089 C 0.36009 0.73927 0.27413 0.0
C2090 C 0.38088 0.75742 0.28755 0.0
C2091 C 0.41742 0.73682 0.29935 0.0
H2092 H 0.41998 0.77074 0.33324 0.0
C2093 C 0.46393 0.74331 0.35236 0.0
C2094 C 0.47143 0.75895 0.35544 0.0
C2095 C 0.45165 0.74064 0.34077 0.0
C2096 C 0.41948 0.76132 0.32372 0.0
H2097 H 0.36491 0.71384 0.27367 0.0
H2098 H 0.38978 0.718 0.28921 0.0
H2099 H 0.39587 0.76663 0.31648 0.0
H2100 H 0.47233 0.78391 0.34835 0.0
H2101 H 0.4507 0.77924 0.32841 0.0
H2102 H 0.44089 0.73114 0.30733 0.0
C2103 C 0.38356 0.72851 0.28628 0.0
C2104 C 0.4057 0.759 0.31402 0.0
C2105 C 0.36909 0.72609 0.27757 0.0
C2106 C 0.4668 0.77172 0.3463 0.0
C2107 C 0.45439 0.76909 0.33493 0.0
C2108 C 0.43112 0.73897 0.3093 0.0
C2109 C 0.38957 0.7442 0.29154 0.0
C2110 C 0.40448 0.74676 0.30165 0.0
C2111 C 0.44652 0.7536 0.33227 0.0
C2112 C 0.43226 0.75129 0.32151 0.0
H2113 H 0.35967 0.76544 0.27688 0.0
H2114 H 0.38527 0.76972 0.29107 0.0
H2115 H 0.41706 0.72743 0.28982 0.0
H2116 H 0.46727 0.73322 0.35916 0.0
H2117 H 0.4457 0.72859 0.33894 0.0
C2118 C 0.9201 0.39046 0.00302 0.0
C2119 C 0.93093 0.39799 0.01458 0.0
C2120 C 0.92569 0.3804 0.99055 0.0
C2121 C 0.96327 0.37013 0.96925 0.0
H2122 H 0.93885 0.32931 0.95848 0.0
C2123 C 0.98425 0.32493 0.9199 0.0
C2124 C 0.98232 0.3084 0.92316 0.0
C2125 C 0.97731 0.33648 0.92996 0.0
C2126 C 0.94587 0.34063 0.96141 0.0
H2127 H 0.95618 0.40136 0.02172 0.0
H2128 H 0.96578 0.38353 0.00044 0.0
H2129 H 0.92799 0.3485 0.97795 0.0
H2130 H 0.97177 0.29107 0.9397 0.0
H2131 H 0.96006 0.31121 0.95742 0.0
H2132 H 0.98147 0.36199 0.95328 0.0
C2133 C 0.95302 0.38546 0.00083 0.0
C2134 C 0.93952 0.35173 0.97241 0.0
C2135 C 0.94746 0.39551 0.01321 0.0
C2136 C 0.97343 0.3037 0.93678 0.0
C2137 C 0.96658 0.31524 0.94688 0.0
C2138 C 0.96965 0.359 0.95833 0.0
C2139 C 0.94222 0.37772 0.98938 0.0
C2140 C 0.94826 0.36652 0.97664 0.0
C2141 C 0.96836 0.33177 0.94356 0.0
C2142 C 0.96113 0.34401 0.95444 0.0
H2143 H 0.90729 0.39211 0.00377 0.0
H2144 H 0.91708 0.37473 0.98183 0.0
H2145 H 0.97021 0.38152 0.97205 0.0
H2146 H 0.99094 0.32894 0.90944 0.0
H2147 H 0.97877 0.34908 0.92694 0.0
C2148 C 0.66076 0.79608 0.2991 0.0
C2149 C 0.65802 0.79027 0.28307 0.0
C2150 C 0.64833 0.79491 0.31044 0.0
C2151 C 0.60415 0.79273 0.31254 0.0
H2152 H 0.61011 0.78074 0.35662 0.0
C2153 C 0.55516 0.80137 0.35998 0.0
C2154 C 0.55087 0.78796 0.36925 0.0
C2155 C 0.5692 0.80186 0.35073 0.0
C2156 C 0.60828 0.78407 0.34433 0.0
H2157 H 0.64019 0.77841 0.26648 0.0
H2158 H 0.61858 0.77624 0.28629 0.0
H2159 H 0.63272 0.78014 0.33768 0.0
H2160 H 0.55838 0.76492 0.37672 0.0
H2161 H 0.58299 0.7658 0.3605 0.0
H2162 H 0.57977 0.79655 0.31904 0.0
C2163 C 0.63031 0.78178 0.29006 0.0
C2164 C 0.62123 0.78383 0.33354 0.0
C2165 C 0.64274 0.78287 0.27876 0.0
C2166 C 0.56135 0.77541 0.36969 0.0
C2167 C 0.57546 0.77593 0.36044 0.0
C2168 C 0.5913 0.79308 0.32332 0.0
C2169 C 0.63288 0.78803 0.30595 0.0
C2170 C 0.61926 0.7881 0.31751 0.0
C2171 C 0.57931 0.78898 0.35056 0.0
C2172 C 0.5932 0.78877 0.33933 0.0
H2173 H 0.67246 0.80171 0.30282 0.0
H2174 H 0.65065 0.7999 0.32258 0.0
H2175 H 0.60231 0.79628 0.30033 0.0
H2176 H 0.54742 0.8113 0.35946 0.0
H2177 H 0.57201 0.81221 0.34346 0.0
C2178 C 0.07196 0.17627 0.02491 0.0
C2179 C 0.06006 0.1693 0.03503 0.0
C2180 C 0.06752 0.18399 0.01108 0.0
C2181 C 0.03259 0.20295 0.99428 0.0
H2182 H 0.05457 0.19861 0.95329 0.0
C2183 C 0.00405 0.22247 0.93671 0.0
C2184 C 0.01369 0.2328 0.92708 0.0
C2185 C 0.01098 0.21422 0.94888 0.0
C2186 C 0.04843 0.20001 0.96472 0.0
H2187 H 0.03428 0.16407 0.03812 0.0
H2188 H 0.02656 0.17724 0.01409 0.0
H2189 H 0.06445 0.1853 0.97676 0.0
H2190 H 0.03831 0.24186 0.92209 0.0
H2191 H 0.05048 0.22728 0.94347 0.0
H2192 H 0.01644 0.21738 0.98231 0.0
C2193 C 0.0393 0.17728 0.01701 0.0
C2194 C 0.05409 0.19244 0.97815 0.0
C2195 C 0.04371 0.1697 0.03078 0.0
C2196 C 0.03056 0.23401 0.92933 0.0
C2197 C 0.03754 0.22566 0.94154 0.0
C2198 C 0.02691 0.21036 0.98091 0.0
C2199 C 0.0511 0.18477 0.00713 0.0
C2200 C 0.04603 0.19361 0.99301 0.0
C2201 C 0.02773 0.21606 0.95172 0.0
C2202 C 0.03457 0.20876 0.96593 0.0
H2203 H 0.08466 0.17611 0.0279 0.0
H2204 H 0.0769 0.18968 0.00374 0.0
H2205 H 0.02637 0.20449 0.00564 0.0
H2206 H 0.99104 0.22113 0.93521 0.0
H2207 H 0.00317 0.20666 0.95635 0.0
C2208 C 0.35893 0.31477 0.23876 0.0
C2209 C 0.35303 0.30047 0.24592 0.0
C2210 C 0.37234 0.31477 0.22855 0.0
C2211 C 0.39732 0.28702 0.2046 0.0
H2212 H 0.42996 0.3231 0.20812 0.0
C2213 C 0.46058 0.2829 0.1777 0.0
C2214 C 0.46591 0.29547 0.16775 0.0
C2215 C 0.44703 0.28435 0.18746 0.0
C2216 C 0.42088 0.31301 0.20696 0.0
H2217 H 0.35622 0.27482 0.24745 0.0
H2218 H 0.37982 0.27494 0.23025 0.0
H2219 H 0.40527 0.32395 0.22408 0.0
H2220 H 0.4617 0.31976 0.16087 0.0
H2221 H 0.43812 0.32236 0.17816 0.0
H2222 H 0.41313 0.27593 0.1878 0.0
C2223 C 0.37403 0.28614 0.23228 0.0
C2224 C 0.4067 0.31351 0.21601 0.0
C2225 C 0.36061 0.28612 0.24236 0.0
C2226 C 0.45786 0.30984 0.16835 0.0
C2227 C 0.4444 0.31136 0.17827 0.0
C2228 C 0.41154 0.28645 0.19572 0.0
C2229 C 0.38014 0.30048 0.22532 0.0
C2230 C 0.39481 0.30045 0.21504 0.0
C2231 C 0.43864 0.29847 0.18761 0.0
C2232 C 0.42351 0.29936 0.19691 0.0
H2233 H 0.35344 0.32606 0.24134 0.0
H2234 H 0.37659 0.32599 0.22322 0.0
H2235 H 0.38828 0.27691 0.20325 0.0
H2236 H 0.4665 0.27167 0.17755 0.0
H2237 H 0.44295 0.27433 0.19472 0.0
C2238 C 0.55978 0.39259 0.99536 0.0
C2239 C 0.54792 0.40215 0.98955 0.0
C2240 C 0.55737 0.38458 0.0097 0.0
C2241 C 0.53323 0.3856 0.04708 0.0
H2242 H 0.544 0.34108 0.05001 0.0
C2243 C 0.50525 0.34292 0.09352 0.0
C2244 C 0.51469 0.33146 0.1001 0.0
C2245 C 0.51159 0.35307 0.0818 0.0
C2246 C 0.54122 0.35362 0.0495 0.0
H2247 H 0.52421 0.4107 0.99422 0.0
H2248 H 0.51984 0.3964 0.01896 0.0
H2249 H 0.5503 0.35532 0.02548 0.0
H2250 H 0.53843 0.32214 0.10012 0.0
H2251 H 0.54955 0.33995 0.07948 0.0
H2252 H 0.52375 0.38374 0.07093 0.0
C2253 C 0.53111 0.39529 0.01257 0.0
C2254 C 0.54479 0.36176 0.03542 0.0
C2255 C 0.53351 0.40329 0.99825 0.0
C2256 C 0.53088 0.33088 0.09527 0.0
C2257 C 0.5372 0.34097 0.08339 0.0
C2258 C 0.52965 0.37746 0.06112 0.0
C2259 C 0.54308 0.38598 0.01855 0.0
C2260 C 0.54051 0.37773 0.03393 0.0
C2261 C 0.52749 0.35193 0.0763 0.0
C2262 C 0.5333 0.36127 0.06236 0.0
H2263 H 0.57096 0.39136 0.98885 0.0
H2264 H 0.56684 0.37753 0.014 0.0
H2265 H 0.53012 0.39802 0.04645 0.0
H2266 H 0.49275 0.34369 0.09702 0.0
H2267 H 0.50375 0.36127 0.07648 0.0
C2268 C 0.64517 0.27961 0.2465 0.0
C2269 C 0.65381 0.2657 0.24743 0.0
C2270 C 0.6335 0.2806 0.23451 0.0
C2271 C 0.60748 0.25413 0.20616 0.0
H2272 H 0.5968 0.29536 0.19045 0.0
C2273 C 0.54692 0.26079 0.17479 0.0
C2274 C 0.54602 0.27191 0.16264 0.0
C2275 C 0.56115 0.26005 0.1836 0.0
C2276 C 0.59974 0.28369 0.19448 0.0
H2277 H 0.65718 0.24211 0.23594 0.0
H2278 H 0.63762 0.24423 0.21457 0.0
H2279 H 0.62031 0.29426 0.20775 0.0
H2280 H 0.55944 0.29084 0.14999 0.0
H2281 H 0.58457 0.2892 0.16503 0.0
H2282 H 0.58733 0.24346 0.19245 0.0
C2283 C 0.63945 0.2542 0.22345 0.0
C2284 C 0.61312 0.28309 0.20465 0.0
C2285 C 0.65092 0.25309 0.2356 0.0
C2286 C 0.55976 0.28218 0.15934 0.0
C2287 C 0.57412 0.28129 0.16803 0.0
C2288 C 0.59429 0.2547 0.1958 0.0
C2289 C 0.63032 0.26782 0.22292 0.0
C2290 C 0.61699 0.26834 0.21091 0.0
C2291 C 0.57498 0.27024 0.18035 0.0
C2292 C 0.58999 0.26953 0.19011 0.0
H2293 H 0.64726 0.28974 0.25514 0.0
H2294 H 0.62665 0.29123 0.23468 0.0
H2295 H 0.60988 0.24255 0.21081 0.0
H2296 H 0.53651 0.25281 0.17776 0.0
H2297 H 0.56113 0.25167 0.19322 0.0
C2298 C 0.43243 0.1678 0.0045 0.0
C2299 C 0.44265 0.15562 4e-05 0.0
C2300 C 0.43767 0.18031 0.01561 0.0
C2301 C 0.47489 0.19971 0.03585 0.0
H2302 H 0.44422 0.21548 0.06693 0.0
C2303 C 0.49344 0.23779 0.09397 0.0
C2304 C 0.48537 0.25197 0.09677 0.0
C2305 C 0.48828 0.22651 0.08165 0.0
C2306 C 0.45287 0.21124 0.05824 0.0
H2307 H 0.4662 0.14672 0.00381 0.0
H2308 H 0.47518 0.16814 0.02351 0.0
H2309 H 0.43507 0.19496 0.04625 0.0
H2310 H 0.46547 0.26537 0.08898 0.0
H2311 H 0.4563 0.24545 0.06769 0.0
H2312 H 0.49277 0.21566 0.04832 0.0
C2313 C 0.46334 0.16847 0.01811 0.0
C2314 C 0.44764 0.19956 0.04632 0.0
C2315 C 0.45818 0.15613 0.00686 0.0
C2316 C 0.47197 0.25458 0.08709 0.0
C2317 C 0.46667 0.24317 0.07497 0.0
C2318 C 0.48015 0.2112 0.04792 0.0
C2319 C 0.45316 0.18072 0.02266 0.0
C2320 C 0.45859 0.19359 0.035 0.0
C2321 C 0.47481 0.22908 0.0721 0.0
C2322 C 0.4692 0.21704 0.05923 0.0
H2323 H 0.42043 0.16771 0.99931 0.0
H2324 H 0.4296 0.18967 0.0186 0.0
H2325 H 0.48362 0.19568 0.02715 0.0
H2326 H 0.50382 0.23547 0.10119 0.0
H2327 H 0.49468 0.21566 0.07972 0.0
C2328 C 0.26304 0.40438 0.72161 0.0
C2329 C 0.25603 0.39721 0.73522 0.0
C2330 C 0.27328 0.41859 0.72332 0.0
C2331 C 0.29841 0.44282 0.75409 0.0
H2332 H 0.29804 0.47676 0.72349 0.0
C2333 C 0.33033 0.50569 0.76746 0.0
C2334 C 0.34115 0.5114 0.75564 0.0
C2335 C 0.31943 0.49231 0.76404 0.0
C2336 C 0.2983 0.46731 0.73206 0.0
H2337 H 0.25444 0.39944 0.76131 0.0
H2338 H 0.2715 0.42442 0.76418 0.0
H2339 H 0.28001 0.45212 0.71932 0.0
H2340 H 0.34845 0.50802 0.7307 0.0
H2341 H 0.32914 0.48468 0.72469 0.0
H2342 H 0.3164 0.45815 0.767 0.0
C2343 C 0.26943 0.41893 0.7522 0.0
C2344 C 0.28805 0.45318 0.72965 0.0
C2345 C 0.25937 0.4047 0.75052 0.0
C2346 C 0.34031 0.50387 0.74009 0.0
C2347 C 0.32924 0.49057 0.73662 0.0
C2348 C 0.30846 0.45698 0.75658 0.0
C2349 C 0.27668 0.42598 0.73867 0.0
C2350 C 0.28789 0.44082 0.74074 0.0
C2351 C 0.31898 0.48445 0.74869 0.0
C2352 C 0.30842 0.4694 0.74567 0.0
H2353 H 0.2606 0.39906 0.70963 0.0
H2354 H 0.27875 0.4236 0.71264 0.0
H2355 H 0.29897 0.43341 0.76264 0.0
H2356 H 0.33059 0.51121 0.77954 0.0
H2357 H 0.31149 0.48794 0.7735 0.0
C2358 C 0.279 0.69398 0.77658 0.0
C2359 C 0.2688 0.69571 0.78997 0.0
C2360 C 0.28976 0.68173 0.77574 0.0
C2361 C 0.29609 0.64211 0.79237 0.0
H2362 H 0.34 0.64974 0.77694 0.0
C2363 C 0.34229 0.59499 0.79924 0.0
C2364 C 0.3517 0.59129 0.7857 0.0
C2365 C 0.33323 0.60852 0.79969 0.0
C2366 C 0.32772 0.64741 0.78115 0.0
H2367 H 0.26187 0.68584 0.81291 0.0
H2368 H 0.28081 0.66483 0.81162 0.0
H2369 H 0.3219 0.67179 0.77761 0.0
H2370 H 0.35951 0.59928 0.76227 0.0
H2371 H 0.34354 0.62297 0.76304 0.0
H2372 H 0.30181 0.61781 0.79594 0.0
C2373 C 0.2804 0.6728 0.80168 0.0
C2374 C 0.31736 0.66001 0.78151 0.0
C2375 C 0.26968 0.68499 0.80251 0.0
C2376 C 0.35237 0.60182 0.77288 0.0
C2377 C 0.34327 0.6154 0.77333 0.0
C2378 C 0.30642 0.62957 0.79204 0.0
C2379 C 0.29049 0.67092 0.78824 0.0
C2380 C 0.30146 0.65752 0.78727 0.0
C2381 C 0.3333 0.61867 0.7866 0.0
C2382 C 0.3224 0.63209 0.78658 0.0
H2383 H 0.27872 0.70213 0.76678 0.0
H2384 H 0.29729 0.68054 0.76517 0.0
H2385 H 0.28381 0.63966 0.79652 0.0
H2386 H 0.3416 0.58722 0.80939 0.0
H2387 H 0.32594 0.6109 0.81023 0.0
C2388 C 0.86935 0.51747 0.48177 0.0
C2389 C 0.86875 0.5221 0.46576 0.0
C2390 C 0.85765 0.50621 0.48756 0.0
C2391 C 0.8256 0.47475 0.47361 0.0
H2392 H 0.81099 0.47949 0.5178 0.0
C2393 C 0.76782 0.44125 0.49801 0.0
C2394 C 0.76949 0.43334 0.51246 0.0
C2395 C 0.78049 0.45144 0.49232 0.0
C2396 C 0.81508 0.47797 0.50548 0.0
H2397 H 0.85538 0.51893 0.4433 0.0
H2398 H 0.83455 0.49973 0.45351 0.0
H2399 H 0.8317 0.49894 0.5078 0.0
H2400 H 0.78572 0.42994 0.5323 0.0
H2401 H 0.80781 0.44813 0.52247 0.0
H2402 H 0.80843 0.4541 0.47123 0.0
C2403 C 0.84432 0.50434 0.46151 0.0
C2404 C 0.82699 0.48905 0.49974 0.0
C2405 C 0.85617 0.51541 0.45566 0.0
C2406 C 0.7841 0.43583 0.52111 0.0
C2407 C 0.7967 0.44628 0.51554 0.0
C2408 C 0.81351 0.46384 0.47929 0.0
C2409 C 0.84494 0.49952 0.47752 0.0
C2410 C 0.83239 0.48761 0.48371 0.0
C2411 C 0.79499 0.45414 0.50109 0.0
C2412 C 0.80815 0.46537 0.49526 0.0
H2413 H 0.87906 0.52234 0.48972 0.0
H2414 H 0.85874 0.50259 0.49984 0.0
H2415 H 0.82967 0.47301 0.46132 0.0
H2416 H 0.75672 0.43953 0.49105 0.0
H2417 H 0.77886 0.45747 0.4812 0.0
C2418 C 0.72829 0.87417 0.79165 0.0
C2419 C 0.73107 0.86442 0.77778 0.0
C2420 C 0.71775 0.88647 0.79117 0.0
C2421 C 0.6838 0.90086 0.76878 0.0
H2422 H 0.69812 0.9422 0.78989 0.0
C2423 C 0.64914 0.95921 0.76504 0.0
C2424 C 0.649 0.96932 0.7791 0.0
C2425 C 0.65835 0.9457 0.7644 0.0
C2426 C 0.69382 0.93068 0.78411 0.0
H2427 H 0.72471 0.85975 0.75258 0.0
H2428 H 0.70627 0.88146 0.75172 0.0
H2429 H 0.71578 0.92008 0.78949 0.0
H2430 H 0.65769 0.97274 0.80375 0.0
H2431 H 0.6734 0.94912 0.80274 0.0
H2432 H 0.66173 0.91154 0.76351 0.0
C2433 C 0.71225 0.87946 0.76298 0.0
C2434 C 0.70398 0.91801 0.78385 0.0
C2435 C 0.7229 0.86715 0.76343 0.0
C2436 C 0.65769 0.9653 0.79268 0.0
C2437 C 0.66679 0.95181 0.79206 0.0
C2438 C 0.67356 0.91357 0.76908 0.0
C2439 C 0.7097 0.88935 0.77682 0.0
C2440 C 0.69903 0.90291 0.77636 0.0
C2441 C 0.66754 0.94205 0.77782 0.0
C2442 C 0.67841 0.92857 0.77693 0.0
H2443 H 0.73453 0.8725 0.80285 0.0
H2444 H 0.7159 0.89376 0.80209 0.0
H2445 H 0.67963 0.88931 0.76299 0.0
H2446 H 0.64257 0.96201 0.75438 0.0
H2447 H 0.65873 0.93846 0.75323 0.0
C2448 C 0.65991 0.50029 0.94095 0.0
C2449 C 0.64384 0.50416 0.93909 0.0
C2450 C 0.67206 0.51244 0.94495 0.0
C2451 C 0.6806 0.55739 0.94788 0.0
H2452 H 0.71229 0.54763 0.97967 0.0
C2453 C 0.71747 0.60651 0.9866 0.0
C2454 C 0.73425 0.60525 0.98726 0.0
C2455 C 0.70731 0.5939 0.9796 0.0
C2456 C 0.7036 0.55046 0.97068 0.0
H2457 H 0.62787 0.52371 0.93988 0.0
H2458 H 0.64886 0.54479 0.9472 0.0
H2459 H 0.69309 0.52609 0.96884 0.0
H2460 H 0.75352 0.58965 0.98145 0.0
H2461 H 0.73562 0.56743 0.96954 0.0
H2462 H 0.69076 0.58194 0.95032 0.0
C2463 C 0.65228 0.53251 0.94513 0.0
C2464 C 0.69265 0.53812 0.96438 0.0
C2465 C 0.64021 0.52041 0.94096 0.0
C2466 C 0.74063 0.59099 0.98107 0.0
C2467 C 0.73042 0.57827 0.9743 0.0
C2468 C 0.69139 0.56975 0.95435 0.0
C2469 C 0.66834 0.52867 0.94737 0.0
C2470 C 0.68087 0.54148 0.95304 0.0
C2471 C 0.7137 0.57969 0.97337 0.0
C2472 C 0.70286 0.56642 0.96593 0.0
H2473 H 0.66304 0.48784 0.93945 0.0
H2474 H 0.68434 0.50907 0.94629 0.0
H2475 H 0.67195 0.56037 0.93892 0.0
H2476 H 0.71219 0.61735 0.99122 0.0
H2477 H 0.69442 0.5952 0.97916 0.0
C2478 C 0.21973 0.66144 0.22613 0.0
C2479 C 0.22879 0.66929 0.23892 0.0
C2480 C 0.21091 0.64665 0.22826 0.0
C2481 C 0.19348 0.6206 0.2599 0.0
H2482 H 0.19257 0.58697 0.22574 0.0
C2483 C 0.16485 0.55616 0.26888 0.0
C2484 C 0.15405 0.54984 0.25671 0.0
C2485 C 0.17497 0.5701 0.2665 0.0
C2486 C 0.19267 0.59628 0.23535 0.0
H2487 H 0.23534 0.66792 0.26409 0.0
H2488 H 0.22037 0.64196 0.26766 0.0
H2489 H 0.20786 0.61287 0.22207 0.0
H2490 H 0.14593 0.5528 0.23225 0.0
H2491 H 0.16363 0.57706 0.22811 0.0
H2492 H 0.17834 0.60397 0.27318 0.0
C2493 C 0.21991 0.6473 0.25603 0.0
C2494 C 0.20135 0.61114 0.23323 0.0
C2495 C 0.22866 0.6621 0.25392 0.0
C2496 C 0.15407 0.55737 0.24189 0.0
C2497 C 0.16426 0.57124 0.23948 0.0
C2498 C 0.18489 0.60571 0.26204 0.0
C2499 C 0.21097 0.63935 0.24321 0.0
C2500 C 0.20181 0.62351 0.24546 0.0
C2501 C 0.17459 0.57792 0.25186 0.0
C2502 C 0.18433 0.59343 0.24977 0.0
H2503 H 0.21968 0.66657 0.21438 0.0
H2504 H 0.20398 0.64097 0.2182 0.0
H2505 H 0.19335 0.62993 0.26946 0.0
H2506 H 0.16517 0.55063 0.28043 0.0
H2507 H 0.18297 0.57487 0.27618 0.0
C2508 C 0.8603 0.5162 0.0694 0.0
C2509 C 0.8753 0.51828 0.07739 0.0
C2510 C 0.85224 0.52964 0.06523 0.0
C2511 C 0.83418 0.56034 0.06504 0.0
H2512 H 0.85937 0.59446 0.04381 0.0
C2513 C 0.80474 0.61559 0.04141 0.0
C2514 C 0.80829 0.61844 0.0252 0.0
C2515 C 0.81388 0.60535 0.05001 0.0
C2516 C 0.8522 0.58507 0.04979 0.0
H2517 H 0.89359 0.53608 0.08733 0.0
H2518 H 0.87947 0.55955 0.0801 0.0
H2519 H 0.87291 0.5721 0.0546 0.0
H2520 H 0.82478 0.6136 0.00561 0.0
H2521 H 0.84075 0.59589 0.02063 0.0
H2522 H 0.8134 0.57304 0.05976 0.0
C2523 C 0.87397 0.54752 0.07705 0.0
C2524 C 0.85995 0.57233 0.05607 0.0
C2525 C 0.88197 0.53408 0.08131 0.0
C2526 C 0.82171 0.61161 0.01807 0.0
C2527 C 0.83092 0.60152 0.02671 0.0
C2528 C 0.82644 0.57315 0.05886 0.0
C2529 C 0.85907 0.54545 0.06886 0.0
C2530 C 0.85099 0.55967 0.06349 0.0
C2531 C 0.82685 0.59793 0.04262 0.0
C2532 C 0.83533 0.58549 0.0509 0.0
H2533 H 0.85481 0.50417 0.06633 0.0
H2534 H 0.84086 0.52765 0.05878 0.0
H2535 H 0.82698 0.55085 0.07084 0.0
H2536 H 0.79446 0.62067 0.04722 0.0
H2537 H 0.81057 0.60292 0.06232 0.0
C2538 C 0.1264 0.04377 0.0887 0.0
C2539 C 0.13354 0.05896 0.08461 0.0
C2540 C 0.13448 0.02972 0.08581 0.0
C2541 C 0.16529 0.01393 0.05904 0.0
H2542 H 0.16319 0.97788 0.08734 0.0
C2543 C 0.18364 0.95185 0.03655 0.0
C2544 C 0.19411 0.94411 0.04644 0.0
C2545 C 0.17571 0.9651 0.04254 0.0
C2546 C 0.16395 0.98789 0.07937 0.0
H2547 H 0.15513 0.07139 0.07504 0.0
H2548 H 0.16924 0.04686 0.06998 0.0
H2549 H 0.15155 0.00317 0.09599 0.0
H2550 H 0.20377 0.94361 0.07066 0.0
H2551 H 0.18989 0.96693 0.08117 0.0
H2552 H 0.17773 0.99882 0.04247 0.0
C2553 C 0.15726 0.04579 0.07518 0.0
C2554 C 0.15719 0.00231 0.08426 0.0
C2555 C 0.14918 0.05984 0.07807 0.0
C2556 C 0.19576 0.94933 0.06275 0.0
C2557 C 0.18782 0.96267 0.06877 0.0
C2558 C 0.17196 0.99955 0.05415 0.0
C2559 C 0.14988 0.03053 0.07874 0.0
C2560 C 0.15773 0.01546 0.0741 0.0
C2561 C 0.1781 0.97098 0.05856 0.0
C2562 C 0.17123 0.9863 0.06417 0.0
H2563 H 0.11427 0.04263 0.09356 0.0
H2564 H 0.12837 0.01814 0.08851 0.0
H2565 H 0.16575 0.02373 0.05083 0.0
H2566 H 0.18196 0.94802 0.02397 0.0
H2567 H 0.168 0.971 0.03449 0.0
loop_
_geom_bond_atom_site_label_1
_geom_bond_atom_site_label_2
_geom_bond_distance
_geom_bond_site_symmetry_2
_ccdc_geom_bond_type
C0 C1 1.391 . S
C0 C4 1.391 . S
C0 H42 0.948 . S
C1 C0 1.391 . S
C1 C2 1.391 . S
C2 C1 1.391 . S
C2 H58 0.947 . S
C2 C59 1.392 . S
C3 C4 1.391 . S
C3 C7 1.397 . S
C3 C59 1.419 . S
C4 C0 1.391 . S
C4 C3 1.391 . S
C4 C5 1.399 . S
C5 C4 1.399 . S
C5 C8 1.396 . S
C5 C17 1.453 . S
C5 C18 1.684 . S
H6 C30 0.948 . S
C7 C3 1.397 . S
C7 C8 1.394 . S
C7 C26 1.723 . S
C8 C5 1.396 . S
C8 C7 1.394 . S
C8 C38 1.723 . S
H9 C32 0.947 . S
H10 C33 0.948 . S
H11 C39 0.982 . S
H12 C40 0.979 . S
H13 C40 0.980 . S
H14 C40 0.983 . S
H15 C39 0.979 . S
H16 C39 0.977 . S
C17 C5 1.453 . S
C17 H46 0.982 . S
C17 H47 0.979 . S
C17 H48 0.977 . S
C18 C5 1.684 . S
C18 H43 0.979 . S
C18 H44 0.980 . S
C18 H45 0.983 . S
C19 C20 1.391 . S
C19 C24 1.391 . S
C19 H49 0.948 . S
C20 C19 1.391 . S
C20 C21 1.391 . S
C21 C20 1.391 . S
C21 C22 1.392 . S
C21 H50 0.947 . S
C22 C21 1.392 . S
C22 C23 1.419 . S
C22 H51 0.948 . S
C23 C22 1.419 . S
C23 C24 1.391 . S
C23 C27 1.397 . S
C24 C19 1.391 . S
C24 C23 1.391 . S
C24 C25 1.399 . S
C25 C24 1.399 . S
C25 C26 1.396 . S
C25 C28 1.453 . S
C25 C29 1.684 . S
C26 C7 1.723 . S
C26 C25 1.396 . S
C26 C27 1.394 . S
C27 C23 1.397 . S
C27 C26 1.394 . S
C27 C37 1.723 . S
C28 C25 1.453 . S
C28 H52 0.982 . S
C28 H53 0.979 . S
C28 H54 0.977 . S
C29 C25 1.684 . S
C29 H55 0.979 . S
C29 H56 0.980 . S
C29 H57 0.983 . S
C30 H6 0.948 . S
C30 C31 1.391 . S
C30 C35 1.391 . S
C31 C30 1.391 . S
C31 C32 1.391 . S
C32 H9 0.947 . S
C32 C31 1.391 . S
C32 C33 1.392 . S
C33 H10 0.948 . S
C33 C32 1.392 . S
C33 C34 1.419 . S
C34 C33 1.419 . S
C34 C35 1.391 . S
C34 C38 1.397 . S
C35 C30 1.391 . S
C35 C34 1.391 . S
C35 C36 1.399 . S
C36 C35 1.399 . S
C36 C37 1.396 . S
C36 C39 1.453 . S
C36 C40 1.684 . S
C37 C27 1.723 . S
C37 C36 1.396 . S
C37 C38 1.394 . S
C38 C8 1.723 . S
C38 C34 1.397 . S
C38 C37 1.394 . S
C39 H11 0.982 . S
C39 H15 0.979 . S
C39 H16 0.977 . S
C39 C36 1.453 . S
C40 H12 0.979 . S
C40 H13 0.980 . S
C40 H14 0.983 . S
C40 C36 1.684 . S
H41 C59 0.948 . S
H42 C0 0.948 . S
H43 C18 0.979 . S
H44 C18 0.980 . S
H45 C18 0.983 . S
H46 C17 0.982 . S
H47 C17 0.979 . S
H48 C17 0.977 . S
H49 C19 0.948 . S
H50 C21 0.947 . S
H51 C22 0.948 . S
H52 C28 0.982 . S
H53 C28 0.979 . S
H54 C28 0.977 . S
H55 C29 0.979 . S
H56 C29 0.980 . S
H57 C29 0.983 . S
H58 C2 0.947 . S
C59 C2 1.392 . S
C59 C3 1.419 . S
C59 H41 0.948 . S
C60 C61 1.391 . S
C60 C64 1.391 . S
C60 H102 0.948 . S
C61 C60 1.391 . S
C61 C62 1.391 . S
C62 C61 1.391 . S
C62 H118 0.947 . S
C62 C119 1.392 . S
C63 C64 1.391 . S
C63 C67 1.397 . S
C63 C119 1.419 . S
C64 C60 1.391 . S
C64 C63 1.391 . S
C64 C65 1.399 . S
C65 C64 1.399 . S
C65 C68 1.396 . S
C65 C77 1.453 . S
C65 C78 1.684 . S
H66 C90 0.948 . S
C67 C63 1.397 . S
C67 C68 1.394 . S
C67 C86 1.723 . S
C68 C65 1.396 . S
C68 C67 1.394 . S
C68 C98 1.723 . S
H69 C92 0.947 . S
H70 C93 0.948 . S
H71 C99 0.982 . S
H72 C100 0.979 . S
H73 C100 0.980 . S
H74 C100 0.983 . S
H75 C99 0.979 . S
H76 C99 0.977 . S
C77 C65 1.453 . S
C77 H106 0.982 . S
C77 H107 0.979 . S
C77 H108 0.977 . S
C78 C65 1.684 . S
C78 H103 0.979 . S
C78 H104 0.980 . S
C78 H105 0.983 . S
C79 C80 1.391 . S
C79 C84 1.391 . S
C79 H109 0.948 . S
C80 C79 1.391 . S
C80 C81 1.391 . S
C81 C80 1.391 . S
C81 C82 1.392 . S
C81 H110 0.947 . S
C82 C81 1.392 . S
C82 C83 1.419 . S
C82 H111 0.948 . S
C83 C82 1.419 . S
C83 C84 1.391 . S
C83 C87 1.397 . S
C84 C79 1.391 . S
C84 C83 1.391 . S
C84 C85 1.399 . S
C85 C84 1.399 . S
C85 C86 1.396 . S
C85 C88 1.453 . S
C85 C89 1.684 . S
C86 C67 1.723 . S
C86 C85 1.396 . S
C86 C87 1.394 . S
C87 C83 1.397 . S
C87 C86 1.394 . S
C87 C97 1.723 . S
C88 C85 1.453 . S
C88 H112 0.982 . S
C88 H113 0.979 . S
C88 H114 0.977 . S
C89 C85 1.684 . S
C89 H115 0.979 . S
C89 H116 0.980 . S
C89 H117 0.983 . S
C90 H66 0.948 . S
C90 C91 1.391 . S
C90 C95 1.391 . S
C91 C90 1.391 . S
C91 C92 1.391 . S
C92 H69 0.947 . S
C92 C91 1.391 . S
C92 C93 1.392 . S
C93 H70 0.948 . S
C93 C92 1.392 . S
C93 C94 1.419 . S
C94 C93 1.419 . S
C94 C95 1.391 . S
C94 C98 1.397 . S
C95 C90 1.391 . S
C95 C94 1.391 . S
C95 C96 1.399 . S
C96 C95 1.399 . S
C96 C97 1.396 . S
C96 C99 1.453 . S
C96 C100 1.684 . S
C97 C87 1.723 . S
C97 C96 1.396 . S
C97 C98 1.394 . S
C98 C68 1.723 . S
C98 C94 1.397 . S
C98 C97 1.394 . S
C99 H71 0.982 . S
C99 H75 0.979 . S
C99 H76 0.977 . S
C99 C96 1.453 . S
C100 H72 0.979 . S
C100 H73 0.980 . S
C100 H74 0.983 . S
C100 C96 1.684 . S
H101 C119 0.948 . S
H102 C60 0.948 . S
H103 C78 0.979 . S
H104 C78 0.980 . S
H105 C78 0.983 . S
H106 C77 0.982 . S
H107 C77 0.979 . S
H108 C77 0.977 . S
H109 C79 0.948 . S
H110 C81 0.947 . S
H111 C82 0.948 . S
H112 C88 0.982 . S
H113 C88 0.979 . S
H114 C88 0.977 . S
H115 C89 0.979 . S
H116 C89 0.980 . S
H117 C89 0.983 . S
H118 C62 0.947 . S
C119 C62 1.392 . S
C119 C63 1.419 . S
C119 H101 0.948 . S
C120 C121 1.391 . S
C120 C124 1.391 . S
C120 H162 0.948 . S
C121 C120 1.391 . S
C121 C122 1.391 . S
C122 C121 1.391 . S
C122 H178 0.947 . S
C122 C179 1.392 . S
C123 C124 1.391 . S
C123 C127 1.397 . S
C123 C179 1.419 . S
C124 C120 1.391 . S
C124 C123 1.391 . S
C124 C125 1.399 . S
C125 C124 1.399 . S
C125 C128 1.396 . S
C125 C137 1.453 . S
C125 C138 1.684 . S
H126 C150 0.948 . S
C127 C123 1.397 . S
C127 C128 1.394 . S
C127 C146 1.723 . S
C128 C125 1.396 . S
C128 C127 1.394 . S
C128 C158 1.723 . S
H129 C152 0.947 . S
H130 C153 0.948 . S
H131 C159 0.982 . S
H132 C160 0.979 . S
H133 C160 0.980 . S
H134 C160 0.983 . S
H135 C159 0.979 . S
H136 C159 0.977 . S
C137 C125 1.453 . S
C137 H166 0.982 . S
C137 H167 0.979 . S
C137 H168 0.977 . S
C138 C125 1.684 . S
C138 H163 0.979 . S
C138 H164 0.980 . S
C138 H165 0.983 . S
C139 C140 1.391 . S
C139 C144 1.391 . S
C139 H169 0.948 . S
C140 C139 1.391 . S
C140 C141 1.391 . S
C141 C140 1.391 . S
C141 C142 1.392 . S
C141 H170 0.947 . S
C142 C141 1.392 . S
C142 C143 1.419 . S
C142 H171 0.948 . S
C143 C142 1.419 . S
C143 C144 1.391 . S
C143 C147 1.397 . S
C144 C139 1.391 . S
C144 C143 1.391 . S
C144 C145 1.399 . S
C145 C144 1.399 . S
C145 C146 1.396 . S
C145 C148 1.453 . S
C145 C149 1.684 . S
C146 C127 1.723 . S
C146 C145 1.396 . S
C146 C147 1.394 . S
C147 C143 1.397 . S
C147 C146 1.394 . S
C147 C157 1.723 . S
C148 C145 1.453 . S
C148 H172 0.982 . S
C148 H173 0.979 . S
C148 H174 0.977 . S
C149 C145 1.684 . S
C149 H175 0.979 . S
C149 H176 0.980 . S
C149 H177 0.983 . S
C150 H126 0.948 . S
C150 C151 1.391 . S
C150 C155 1.391 . S
C151 C150 1.391 . S
C151 C152 1.391 . S
C152 H129 0.947 . S
C152 C151 1.391 . S
C152 C153 1.392 . S
C153 H130 0.948 . S
C153 C152 1.392 . S
C153 C154 1.419 . S
C154 C153 1.419 . S
C154 C155 1.391 . S
C154 C158 1.397 . S
C155 C150 1.391 . S
C155 C154 1.391 . S
C155 C156 1.399 . S
C156 C155 1.399 . S
C156 C157 1.396 . S
C156 C159 1.453 . S
C156 C160 1.684 . S
C157 C147 1.723 . S
C157 C156 1.396 . S
C157 C158 1.394 . S
C158 C128 1.723 . S
C158 C154 1.397 . S
C158 C157 1.394 . S
C159 H131 0.982 . S
C159 H135 0.979 . S
C159 H136 0.977 . S
C159 C156 1.453 . S
C160 H132 0.979 . S
C160 H133 0.980 . S
C160 H134 0.983 . S
C160 C156 1.684 . S
H161 C179 0.948 . S
H162 C120 0.948 . S
H163 C138 0.979 . S
H164 C138 0.980 . S
H165 C138 0.983 . S
H166 C137 0.982 . S
H167 C137 0.979 . S
H168 C137 0.977 . S
H169 C139 0.948 . S
H170 C141 0.947 . S
H171 C142 0.948 . S
H172 C148 0.982 . S
H173 C148 0.979 . S
H174 C148 0.977 . S
H175 C149 0.979 . S
H176 C149 0.980 . S
H177 C149 0.983 . S
H178 C122 0.947 . S
C179 C122 1.392 . S
C179 C123 1.419 . S
C179 H161 0.948 . S
C180 C181 1.391 . S
C180 C184 1.391 . S
C180 H222 0.948 . S
C181 C180 1.391 . S
C181 C182 1.391 . S
C182 C181 1.391 . S
C182 H238 0.947 . S
C182 C239 1.392 . S
C183 C184 1.391 . S
C183 C187 1.397 . S
C183 C239 1.419 . S
C184 C180 1.391 . S
C184 C183 1.391 . S
C184 C185 1.399 . S
C185 C184 1.399 . S
C185 C188 1.396 . S
C185 C197 1.453 . S
C185 C198 1.684 . S
H186 C210 0.948 . S
C187 C183 1.397 . S
C187 C188 1.394 . S
C187 C206 1.723 . S
C188 C185 1.396 . S
C188 C187 1.394 . S
C188 C218 1.723 . S
H189 C212 0.947 . S
H190 C213 0.948 . S
H191 C219 0.982 . S
H192 C220 0.979 . S
H193 C220 0.980 . S
H194 C220 0.983 . S
H195 C219 0.979 . S
H196 C219 0.977 . S
C197 C185 1.453 . S
C197 H226 0.982 . S
C197 H227 0.979 . S
C197 H228 0.977 . S
C198 C185 1.684 . S
C198 H223 0.979 . S
C198 H224 0.980 . S
C198 H225 0.983 . S
C199 C200 1.391 . S
C199 C204 1.391 . S
C199 H229 0.948 . S
C200 C199 1.391 . S
C200 C201 1.391 . S
C201 C200 1.391 . S
C201 C202 1.392 . S
C201 H230 0.947 . S
C202 C201 1.392 . S
C202 C203 1.419 . S
C202 H231 0.948 . S
C203 C202 1.419 . S
C203 C204 1.391 . S
C203 C207 1.397 . S
C204 C199 1.391 . S
C204 C203 1.391 . S
C204 C205 1.399 . S
C205 C204 1.399 . S
C205 C206 1.396 . S
C205 C208 1.453 . S
C205 C209 1.684 . S
C206 C187 1.723 . S
C206 C205 1.396 . S
C206 C207 1.394 . S
C207 C203 1.397 . S
C207 C206 1.394 . S
C207 C217 1.723 . S
C208 C205 1.453 . S
C208 H232 0.982 . S
C208 H233 0.979 . S
C208 H234 0.977 . S
C209 C205 1.684 . S
C209 H235 0.979 . S
C209 H236 0.980 . S
C209 H237 0.983 . S
C210 H186 0.948 . S
C210 C211 1.391 . S
C210 C215 1.391 . S
C211 C210 1.391 . S
C211 C212 1.391 . S
C212 H189 0.947 . S
C212 C211 1.391 . S
C212 C213 1.392 . S
C213 H190 0.948 . S
C213 C212 1.392 . S
C213 C214 1.419 . S
C214 C213 1.419 . S
C214 C215 1.391 . S
C214 C218 1.397 . S
C215 C210 1.391 . S
C215 C214 1.391 . S
C215 C216 1.399 . S
C216 C215 1.399 . S
C216 C217 1.396 . S
C216 C219 1.453 . S
C216 C220 1.684 . S
C217 C207 1.723 . S
C217 C216 1.396 . S
C217 C218 1.394 . S
C218 C188 1.723 . S
C218 C214 1.397 . S
C218 C217 1.394 . S
C219 H191 0.982 . S
C219 H195 0.979 . S
C219 H196 0.977 . S
C219 C216 1.453 . S
C220 H192 0.979 . S
C220 H193 0.980 . S
C220 H194 0.983 . S
C220 C216 1.684 . S
H221 C239 0.948 . S
H222 C180 0.948 . S
H223 C198 0.979 . S
H224 C198 0.980 . S
H225 C198 0.983 . S
H226 C197 0.982 . S
H227 C197 0.979 . S
H228 C197 0.977 . S
H229 C199 0.948 . S
H230 C201 0.947 . S
H231 C202 0.948 . S
H232 C208 0.982 . S
H233 C208 0.979 . S
H234 C208 0.977 . S
H235 C209 0.979 . S
H236 C209 0.980 . S
H237 C209 0.983 . S
H238 C182 0.947 . S
C239 C182 1.392 . S
C239 C183 1.419 . S
C239 H221 0.948 . S
C240 C241 1.391 . S
C240 C244 1.391 . S
C240 H282 0.948 . S
C241 C240 1.391 . S
C241 C242 1.391 . S
C242 C241 1.391 . S
C242 H298 0.947 . S
C242 C299 1.392 . S
C243 C244 1.391 . S
C243 C247 1.397 . S
C243 C299 1.419 . S
C244 C240 1.391 . S
C244 C243 1.391 . S
C244 C245 1.399 . S
C245 C244 1.399 . S
C245 C248 1.396 . S
C245 C257 1.453 . S
C245 C258 1.684 . S
H246 C270 0.948 1_545 S
C247 C243 1.397 . S
C247 C248 1.394 . S
C247 C266 1.723 . S
C248 C245 1.396 . S
C248 C247 1.394 . S
C248 C278 1.723 . S
H249 C272 0.947 . S
H250 C273 0.948 . S
H251 C279 0.982 . S
H252 C280 0.979 . S
H253 C280 0.980 . S
H254 C280 0.983 . S
H255 C279 0.979 1_545 S
H256 C279 0.977 . S
C257 C245 1.453 . S
C257 H286 0.982 . S
C257 H287 0.979 . S
C257 H288 0.977 . S
C258 C245 1.684 . S
C258 H283 0.979 . S
C258 H284 0.980 . S
C258 H285 0.983 . S
C259 C260 1.391 . S
C259 C264 1.391 . S
C259 H289 0.948 . S
C260 C259 1.391 . S
C260 C261 1.391 . S
C261 C260 1.391 . S
C261 C262 1.392 . S
C261 H290 0.947 . S
C262 C261 1.392 . S
C262 C263 1.419 . S
C262 H291 0.948 . S
C263 C262 1.419 . S
C263 C264 1.391 . S
C263 C267 1.397 . S
C264 C259 1.391 . S
C264 C263 1.391 . S
C264 C265 1.399 . S
C265 C264 1.399 . S
C265 C266 1.396 . S
C265 C268 1.453 . S
C265 C269 1.684 . S
C266 C247 1.723 . S
C266 C265 1.396 . S
C266 C267 1.394 . S
C267 C263 1.397 . S
C267 C266 1.394 . S
C267 C277 1.723 . S
C268 C265 1.453 . S
C268 H292 0.982 . S
C268 H293 0.979 . S
C268 H294 0.977 . S
C269 C265 1.684 . S
C269 H295 0.979 . S
C269 H296 0.980 . S
C269 H297 0.983 . S
C270 H246 0.948 1_565 S
C270 C271 1.391 . S
C270 C275 1.391 . S
C271 C270 1.391 . S
C271 C272 1.391 . S
C272 H249 0.947 . S
C272 C271 1.391 . S
C272 C273 1.392 . S
C273 H250 0.948 . S
C273 C272 1.392 . S
C273 C274 1.419 . S
C274 C273 1.419 . S
C274 C275 1.391 . S
C274 C278 1.397 . S
C275 C270 1.391 . S
C275 C274 1.391 . S
C275 C276 1.399 . S
C276 C275 1.399 . S
C276 C277 1.396 . S
C276 C279 1.453 . S
C276 C280 1.684 . S
C277 C267 1.723 . S
C277 C276 1.396 . S
C277 C278 1.394 . S
C278 C248 1.723 . S
C278 C274 1.397 . S
C278 C277 1.394 . S
C279 H251 0.982 . S
C279 H255 0.979 1_565 S
C279 H256 0.977 . S
C279 C276 1.453 . S
C280 H252 0.979 . S
C280 H253 0.980 . S
C280 H254 0.983 . S
C280 C276 1.684 . S
H281 C299 0.948 . S
H282 C240 0.948 . S
H283 C258 0.979 . S
H284 C258 0.980 . S
H285 C258 0.983 . S
H286 C257 0.982 . S
H287 C257 0.979 . S
H288 C257 0.977 . S
H289 C259 0.948 . S
H290 C261 0.947 . S
H291 C262 0.948 . S
H292 C268 0.982 . S
H293 C268 0.979 . S
H294 C268 0.977 . S
H295 C269 0.979 . S
H296 C269 0.980 . S
H297 C269 0.983 . S
H298 C242 0.947 . S
C299 C242 1.392 . S
C299 C243 1.419 . S
C299 H281 0.948 . S
C300 C301 1.391 . S
C300 C304 1.391 . S
C300 H342 0.948 . S
C301 C300 1.391 . S
C301 C302 1.391 . S
C302 C301 1.391 . S
C302 H358 0.947 . S
C302 C359 1.392 . S
C303 C304 1.391 . S
C303 C307 1.397 . S
C303 C359 1.419 . S
C304 C300 1.391 . S
C304 C303 1.391 . S
C304 C305 1.399 . S
C305 C304 1.399 . S
C305 C308 1.396 . S
C305 C317 1.453 . S
C305 C318 1.684 . S
H306 C330 0.948 . S
C307 C303 1.397 . S
C307 C308 1.394 . S
C307 C326 1.723 . S
C308 C305 1.396 . S
C308 C307 1.394 . S
C308 C338 1.723 . S
H309 C332 0.947 . S
H310 C333 0.948 . S
H311 C339 0.982 . S
H312 C340 0.979 . S
H313 C340 0.980 . S
H314 C340 0.983 . S
H315 C339 0.979 . S
H316 C339 0.977 . S
C317 C305 1.453 . S
C317 H346 0.982 . S
C317 H347 0.979 . S
C317 H348 0.977 . S
C318 C305 1.684 . S
C318 H343 0.979 . S
C318 H344 0.980 . S
C318 H345 0.983 . S
C319 C320 1.391 . S
C319 C324 1.391 . S
C319 H349 0.948 . S
C320 C319 1.391 . S
C320 C321 1.391 . S
C321 C320 1.391 . S
C321 C322 1.392 . S
C321 H350 0.947 . S
C322 C321 1.392 . S
C322 C323 1.419 . S
C322 H351 0.948 . S
C323 C322 1.419 . S
C323 C324 1.391 . S
C323 C327 1.397 . S
C324 C319 1.391 . S
C324 C323 1.391 . S
C324 C325 1.399 . S
C325 C324 1.399 . S
C325 C326 1.396 . S
C325 C328 1.453 . S
C325 C329 1.684 . S
C326 C307 1.723 . S
C326 C325 1.396 . S
C326 C327 1.394 . S
C327 C323 1.397 . S
C327 C326 1.394 . S
C327 C337 1.723 . S
C328 C325 1.453 . S
C328 H352 0.982 . S
C328 H353 0.979 . S
C328 H354 0.977 . S
C329 C325 1.684 . S
C329 H355 0.979 . S
C329 H356 0.980 . S
C329 H357 0.983 . S
C330 H306 0.948 . S
C330 C331 1.391 . S
C330 C335 1.391 . S
C331 C330 1.391 . S
C331 C332 1.391 . S
C332 H309 0.947 . S
C332 C331 1.391 . S
C332 C333 1.392 . S
C333 H310 0.948 . S
C333 C332 1.392 . S
C333 C334 1.419 . S
C334 C333 1.419 . S
C334 C335 1.391 . S
C334 C338 1.397 . S
C335 C330 1.391 . S
C335 C334 1.391 . S
C335 C336 1.399 . S
C336 C335 1.399 . S
C336 C337 1.396 . S
C336 C339 1.453 . S
C336 C340 1.684 . S
C337 C327 1.723 . S
C337 C336 1.396 . S
C337 C338 1.394 . S
C338 C308 1.723 . S
C338 C334 1.397 . S
C338 C337 1.394 . S
C339 H311 0.982 . S
C339 H315 0.979 . S
C339 H316 0.977 . S
C339 C336 1.453 . S
C340 H312 0.979 . S
C340 H313 0.980 . S
C340 H314 0.983 . S
C340 C336 1.684 . S
H341 C359 0.948 . S
H342 C300 0.948 . S
H343 C318 0.979 . S
H344 C318 0.980 . S
H345 C318 0.983 . S
H346 C317 0.982 . S
H347 C317 0.979 . S
H348 C317 0.977 . S
H349 C319 0.948 . S
H350 C321 0.947 . S
H351 C322 0.948 . S
H352 C328 0.982 . S
H353 C328 0.979 . S
H354 C328 0.977 . S
H355 C329 0.979 . S
H356 C329 0.980 . S
H357 C329 0.983 . S
H358 C302 0.947 . S
C359 C302 1.392 . S
C359 C303 1.419 . S
C359 H341 0.948 . S
C360 C361 1.391 . S
C360 C364 1.391 . S
C360 H402 0.948 . S
C361 C360 1.391 . S
C361 C362 1.391 . S
C362 C361 1.391 . S
C362 H418 0.947 . S
C362 C419 1.392 . S
C363 C364 1.391 . S
C363 C367 1.397 . S
C363 C419 1.419 . S
C364 C360 1.391 . S
C364 C363 1.391 . S
C364 C365 1.399 . S
C365 C364 1.399 . S
C365 C368 1.396 . S
C365 C377 1.453 . S
C365 C378 1.684 . S
H366 C390 0.948 . S
C367 C363 1.397 . S
C367 C368 1.394 . S
C367 C386 1.723 . S
C368 C365 1.396 . S
C368 C367 1.394 . S
C368 C398 1.723 . S
H369 C392 0.947 . S
H370 C393 0.948 . S
H371 C399 0.982 . S
H372 C400 0.979 . S
H373 C400 0.980 . S
H374 C400 0.983 . S
H375 C399 0.979 . S
H376 C399 0.977 . S
C377 C365 1.453 . S
C377 H406 0.982 . S
C377 H407 0.979 . S
C377 H408 0.977 . S
C378 C365 1.684 . S
C378 H403 0.979 . S
C378 H404 0.980 . S
C378 H405 0.983 . S
C379 C380 1.391 . S
C379 C384 1.391 . S
C379 H409 0.948 . S
C380 C379 1.391 . S
C380 C381 1.391 . S
C381 C380 1.391 . S
C381 C382 1.392 . S
C381 H410 0.947 . S
C382 C381 1.392 . S
C382 C383 1.419 . S
C382 H411 0.948 . S
C383 C382 1.419 . S
C383 C384 1.391 . S
C383 C387 1.397 . S
C384 C379 1.391 . S
C384 C383 1.391 . S
C384 C385 1.399 . S
C385 C384 1.399 . S
C385 C386 1.396 . S
C385 C388 1.453 . S
C385 C389 1.684 . S
C386 C367 1.723 . S
C386 C385 1.396 . S
C386 C387 1.394 . S
C387 C383 1.397 . S
C387 C386 1.394 . S
C387 C397 1.723 . S
C388 C385 1.453 . S
C388 H412 0.982 . S
C388 H413 0.979 . S
C388 H414 0.977 . S
C389 C385 1.684 . S
C389 H415 0.979 . S
C389 H416 0.980 . S
C389 H417 0.983 . S
C390 H366 0.948 . S
C390 C391 1.391 . S
C390 C395 1.391 . S
C391 C390 1.391 . S
C391 C392 1.391 . S
C392 H369 0.947 . S
C392 C391 1.391 . S
C392 C393 1.392 . S
C393 H370 0.948 . S
C393 C392 1.392 . S
C393 C394 1.419 . S
C394 C393 1.419 . S
C394 C395 1.391 . S
C394 C398 1.397 . S
C395 C390 1.391 . S
C395 C394 1.391 . S
C395 C396 1.399 . S
C396 C395 1.399 . S
C396 C397 1.396 . S
C396 C399 1.453 . S
C396 C400 1.684 . S
C397 C387 1.723 . S
C397 C396 1.396 . S
C397 C398 1.394 . S
C398 C368 1.723 . S
C398 C394 1.397 . S
C398 C397 1.394 . S
C399 H371 0.982 . S
C399 H375 0.979 . S
C399 H376 0.977 . S
C399 C396 1.453 . S
C400 H372 0.979 . S
C400 H373 0.980 . S
C400 H374 0.983 . S
C400 C396 1.684 . S
H401 C419 0.948 . S
H402 C360 0.948 . S
H403 C378 0.979 . S
H404 C378 0.980 . S
H405 C378 0.983 . S
H406 C377 0.982 . S
H407 C377 0.979 . S
H408 C377 0.977 . S
H409 C379 0.948 . S
H410 C381 0.947 . S
H411 C382 0.948 . S
H412 C388 0.982 . S
H413 C388 0.979 . S
H414 C388 0.977 . S
H415 C389 0.979 . S
H416 C389 0.980 . S
H417 C389 0.983 . S
H418 C362 0.947 . S
C419 C362 1.392 . S
C419 C363 1.419 . S
C419 H401 0.948 . S
C420 C421 1.391 . S
C420 C424 1.391 . S
C420 H462 0.948 . S
C421 C420 1.391 . S
C421 C422 1.391 . S
C422 C421 1.391 . S
C422 H478 0.947 . S
C422 C479 1.392 . S
C423 C424 1.391 . S
C423 C427 1.397 . S
C423 C479 1.419 . S
C424 C420 1.391 . S
C424 C423 1.391 . S
C424 C425 1.399 . S
C425 C424 1.399 . S
C425 C428 1.396 . S
C425 C437 1.453 . S
C425 C438 1.684 . S
H426 C450 0.948 . S
C427 C423 1.397 . S
C427 C428 1.394 . S
C427 C446 1.723 . S
C428 C425 1.396 . S
C428 C427 1.394 . S
C428 C458 1.723 . S
H429 C452 0.947 . S
H430 C453 0.948 . S
H431 C459 0.982 . S
H432 C460 0.979 . S
H433 C460 0.980 . S
H434 C460 0.983 . S
H435 C459 0.979 . S
H436 C459 0.977 . S
C437 C425 1.453 . S
C437 H466 0.982 . S
C437 H467 0.979 . S
C437 H468 0.977 . S
C438 C425 1.684 . S
C438 H463 0.979 . S
C438 H464 0.980 . S
C438 H465 0.983 . S
C439 C440 1.391 . S
C439 C444 1.391 . S
C439 H469 0.948 . S
C440 C439 1.391 . S
C440 C441 1.391 . S
C441 C440 1.391 . S
C441 C442 1.392 . S
C441 H470 0.947 . S
C442 C441 1.392 . S
C442 C443 1.419 . S
C442 H471 0.948 . S
C443 C442 1.419 . S
C443 C444 1.391 . S
C443 C447 1.397 . S
C444 C439 1.391 . S
C444 C443 1.391 . S
C444 C445 1.399 . S
C445 C444 1.399 . S
C445 C446 1.396 . S
C445 C448 1.453 . S
C445 C449 1.684 . S
C446 C427 1.723 . S
C446 C445 1.396 . S
C446 C447 1.394 . S
C447 C443 1.397 . S
C447 C446 1.394 . S
C447 C457 1.723 . S
C448 C445 1.453 . S
C448 H472 0.982 . S
C448 H473 0.979 . S
C448 H474 0.977 . S
C449 C445 1.684 . S
C449 H475 0.979 . S
C449 H476 0.980 . S
C449 H477 0.983 . S
C450 H426 0.948 . S
C450 C451 1.391 . S
C450 C455 1.391 . S
C451 C450 1.391 . S
C451 C452 1.391 . S
C452 H429 0.947 . S
C452 C451 1.391 . S
C452 C453 1.392 . S
C453 H430 0.948 . S
C453 C452 1.392 . S
C453 C454 1.419 . S
C454 C453 1.419 . S
C454 C455 1.391 . S
C454 C458 1.397 . S
C455 C450 1.391 . S
C455 C454 1.391 . S
C455 C456 1.399 . S
C456 C455 1.399 . S
C456 C457 1.396 . S
C456 C459 1.453 . S
C456 C460 1.684 . S
C457 C447 1.723 . S
C457 C456 1.396 . S
C457 C458 1.394 . S
C458 C428 1.723 . S
C458 C454 1.397 . S
C458 C457 1.394 . S
C459 H431 0.982 . S
C459 H435 0.979 . S
C459 H436 0.977 . S
C459 C456 1.453 . S
C460 H432 0.979 . S
C460 H433 0.980 . S
C460 H434 0.983 . S
C460 C456 1.684 . S
H461 C479 0.948 . S
H462 C420 0.948 . S
H463 C438 0.979 . S
H464 C438 0.980 . S
H465 C438 0.983 . S
H466 C437 0.982 . S
H467 C437 0.979 . S
H468 C437 0.977 . S
H469 C439 0.948 . S
H470 C441 0.947 . S
H471 C442 0.948 . S
H472 C448 0.982 . S
H473 C448 0.979 . S
H474 C448 0.977 . S
H475 C449 0.979 . S
H476 C449 0.980 . S
H477 C449 0.983 . S
H478 C422 0.947 . S
C479 C422 1.392 . S
C479 C423 1.419 . S
C479 H461 0.948 . S
C480 C481 1.391 . S
C480 C484 1.391 . S
C480 H522 0.948 . S
C481 C480 1.391 . S
C481 C482 1.391 . S
C482 C481 1.391 . S
C482 H538 0.947 . S
C482 C539 1.392 . S
C483 C484 1.391 . S
C483 C487 1.397 . S
C483 C539 1.419 . S
C484 C480 1.391 . S
C484 C483 1.391 . S
C484 C485 1.399 . S
C485 C484 1.399 . S
C485 C488 1.396 . S
C485 C497 1.453 . S
C485 C498 1.684 . S
H486 C510 0.948 . S
C487 C483 1.397 . S
C487 C488 1.394 . S
C487 C506 1.723 . S
C488 C485 1.396 . S
C488 C487 1.394 . S
C488 C518 1.723 . S
H489 C512 0.947 . S
H490 C513 0.948 . S
H491 C519 0.982 . S
H492 C520 0.979 . S
H493 C520 0.980 . S
H494 C520 0.983 . S
H495 C519 0.979 . S
H496 C519 0.977 . S
C497 C485 1.453 . S
C497 H526 0.982 . S
C497 H527 0.979 . S
C497 H528 0.977 . S
C498 C485 1.684 . S
C498 H523 0.979 . S
C498 H524 0.980 . S
C498 H525 0.983 . S
C499 C500 1.391 . S
C499 C504 1.391 . S
C499 H529 0.948 . S
C500 C499 1.391 . S
C500 C501 1.391 . S
C501 C500 1.391 . S
C501 C502 1.392 . S
C501 H530 0.947 . S
C502 C501 1.392 . S
C502 C503 1.419 . S
C502 H531 0.948 . S
C503 C502 1.419 . S
C503 C504 1.391 . S
C503 C507 1.397 . S
C504 C499 1.391 . S
C504 C503 1.391 . S
C504 C505 1.399 . S
C505 C504 1.399 . S
C505 C506 1.396 . S
C505 C508 1.453 . S
C505 C509 1.684 . S
C506 C487 1.723 . S
C506 C505 1.396 . S
C506 C507 1.394 . S
C507 C503 1.397 . S
C507 C506 1.394 . S
C507 C517 1.723 . S
C508 C505 1.453 . S
C508 H532 0.982 . S
C508 H533 0.979 . S
C508 H534 0.977 . S
C509 C505 1.684 . S
C509 H535 0.979 . S
C509 H536 0.980 . S
C509 H537 0.983 . S
C510 H486 0.948 . S
C510 C511 1.391 . S
C510 C515 1.391 . S
C511 C510 1.391 . S
C511 C512 1.391 . S
C512 H489 0.947 . S
C512 C511 1.391 . S
C512 C513 1.392 . S
C513 H490 0.948 . S
C513 C512 1.392 . S
C513 C514 1.419 . S
C514 C513 1.419 . S
C514 C515 1.391 . S
C514 C518 1.397 . S
C515 C510 1.391 . S
C515 C514 1.391 . S
C515 C516 1.399 . S
C516 C515 1.399 . S
C516 C517 1.396 . S
C516 C519 1.453 . S
C516 C520 1.684 . S
C517 C507 1.723 . S
C517 C516 1.396 . S
C517 C518 1.394 . S
C518 C488 1.723 . S
C518 C514 1.397 . S
C518 C517 1.394 . S
C519 H491 0.982 . S
C519 H495 0.979 . S
C519 H496 0.977 . S
C519 C516 1.453 . S
C520 H492 0.979 . S
C520 H493 0.980 . S
C520 H494 0.983 . S
C520 C516 1.684 . S
H521 C539 0.948 . S
H522 C480 0.948 . S
H523 C498 0.979 . S
H524 C498 0.980 . S
H525 C498 0.983 . S
H526 C497 0.982 . S
H527 C497 0.979 . S
H528 C497 0.977 . S
H529 C499 0.948 . S
H530 C501 0.947 . S
H531 C502 0.948 . S
H532 C508 0.982 . S
H533 C508 0.979 . S
H534 C508 0.977 . S
H535 C509 0.979 . S
H536 C509 0.980 . S
H537 C509 0.983 . S
H538 C482 0.947 . S
C539 C482 1.392 . S
C539 C483 1.419 . S
C539 H521 0.948 . S
C540 C541 1.391 . S
C540 C544 1.391 . S
C540 H582 0.948 . S
C541 C540 1.391 . S
C541 C542 1.391 . S
C542 C541 1.391 . S
C542 H598 0.947 . S
C542 C599 1.392 . S
C543 C544 1.391 . S
C543 C547 1.397 . S
C543 C599 1.419 . S
C544 C540 1.391 . S
C544 C543 1.391 . S
C544 C545 1.399 . S
C545 C544 1.399 . S
C545 C548 1.396 . S
C545 C557 1.453 . S
C545 C558 1.684 . S
H546 C570 0.948 . S
C547 C543 1.397 . S
C547 C548 1.394 . S
C547 C566 1.723 . S
C548 C545 1.396 . S
C548 C547 1.394 . S
C548 C578 1.723 . S
H549 C572 0.947 . S
H550 C573 0.948 . S
H551 C579 0.982 . S
H552 C580 0.979 . S
H553 C580 0.980 . S
H554 C580 0.983 . S
H555 C579 0.979 . S
H556 C579 0.977 . S
C557 C545 1.453 . S
C557 H586 0.982 . S
C557 H587 0.979 . S
C557 H588 0.977 . S
C558 C545 1.684 . S
C558 H583 0.979 . S
C558 H584 0.980 . S
C558 H585 0.983 . S
C559 C560 1.391 . S
C559 C564 1.391 . S
C559 H589 0.948 . S
C560 C559 1.391 . S
C560 C561 1.391 . S
C561 C560 1.391 . S
C561 C562 1.392 . S
C561 H590 0.947 . S
C562 C561 1.392 . S
C562 C563 1.419 . S
C562 H591 0.948 . S
C563 C562 1.419 . S
C563 C564 1.391 . S
C563 C567 1.397 . S
C564 C559 1.391 . S
C564 C563 1.391 . S
C564 C565 1.399 . S
C565 C564 1.399 . S
C565 C566 1.396 . S
C565 C568 1.453 . S
C565 C569 1.684 . S
C566 C547 1.723 . S
C566 C565 1.396 . S
C566 C567 1.394 . S
C567 C563 1.397 . S
C567 C566 1.394 . S
C567 C577 1.723 . S
C568 C565 1.453 . S
C568 H592 0.982 . S
C568 H593 0.979 . S
C568 H594 0.977 . S
C569 C565 1.684 . S
C569 H595 0.979 . S
C569 H596 0.980 . S
C569 H597 0.983 . S
C570 H546 0.948 . S
C570 C571 1.391 . S
C570 C575 1.391 . S
C571 C570 1.391 . S
C571 C572 1.391 . S
C572 H549 0.947 . S
C572 C571 1.391 . S
C572 C573 1.392 . S
C573 H550 0.948 . S
C573 C572 1.392 . S
C573 C574 1.419 . S
C574 C573 1.419 . S
C574 C575 1.391 . S
C574 C578 1.397 . S
C575 C570 1.391 . S
C575 C574 1.391 . S
C575 C576 1.399 . S
C576 C575 1.399 . S
C576 C577 1.396 . S
C576 C579 1.453 . S
C576 C580 1.684 . S
C577 C567 1.723 . S
C577 C576 1.396 . S
C577 C578 1.394 . S
C578 C548 1.723 . S
C578 C574 1.397 . S
C578 C577 1.394 . S
C579 H551 0.982 . S
C579 H555 0.979 . S
C579 H556 0.977 . S
C579 C576 1.453 . S
C580 H552 0.979 . S
C580 H553 0.980 . S
C580 H554 0.983 . S
C580 C576 1.684 . S
H581 C599 0.948 . S
H582 C540 0.948 . S
H583 C558 0.979 . S
H584 C558 0.980 . S
H585 C558 0.983 . S
H586 C557 0.982 . S
H587 C557 0.979 . S
H588 C557 0.977 . S
H589 C559 0.948 . S
H590 C561 0.947 . S
H591 C562 0.948 . S
H592 C568 0.982 . S
H593 C568 0.979 . S
H594 C568 0.977 . S
H595 C569 0.979 . S
H596 C569 0.980 . S
H597 C569 0.983 . S
H598 C542 0.947 . S
C599 C542 1.392 . S
C599 C543 1.419 . S
C599 H581 0.948 . S
C600 C601 1.391 . S
C600 C604 1.391 . S
C600 H642 0.948 . S
C601 C600 1.391 . S
C601 C602 1.391 . S
C602 C601 1.391 . S
C602 H658 0.947 . S
C602 C659 1.392 . S
C603 C604 1.391 . S
C603 C607 1.397 . S
C603 C659 1.419 . S
C604 C600 1.391 . S
C604 C603 1.391 . S
C604 C605 1.399 . S
C605 C604 1.399 . S
C605 C608 1.396 . S
C605 C617 1.453 . S
C605 C618 1.684 . S
H606 C630 0.948 . S
C607 C603 1.397 . S
C607 C608 1.394 . S
C607 C626 1.723 . S
C608 C605 1.396 . S
C608 C607 1.394 . S
C608 C638 1.723 . S
H609 C632 0.947 . S
H610 C633 0.948 . S
H611 C639 0.982 . S
H612 C640 0.979 . S
H613 C640 0.980 . S
H614 C640 0.983 . S
H615 C639 0.979 . S
H616 C639 0.977 . S
C617 C605 1.453 . S
C617 H646 0.982 . S
C617 H647 0.979 . S
C617 H648 0.977 . S
C618 C605 1.684 . S
C618 H643 0.979 . S
C618 H644 0.980 . S
C618 H645 0.983 . S
C619 C620 1.391 . S
C619 C624 1.391 . S
C619 H649 0.948 . S
C620 C619 1.391 . S
C620 C621 1.391 . S
C621 C620 1.391 . S
C621 C622 1.392 . S
C621 H650 0.947 . S
C622 C621 1.392 . S
C622 C623 1.419 . S
C622 H651 0.948 . S
C623 C622 1.419 . S
C623 C624 1.391 . S
C623 C627 1.397 . S
C624 C619 1.391 . S
C624 C623 1.391 . S
C624 C625 1.399 . S
C625 C624 1.399 . S
C625 C626 1.396 . S
C625 C628 1.453 . S
C625 C629 1.684 . S
C626 C607 1.723 . S
C626 C625 1.396 . S
C626 C627 1.394 . S
C627 C623 1.397 . S
C627 C626 1.394 . S
C627 C637 1.723 . S
C628 C625 1.453 . S
C628 H652 0.982 . S
C628 H653 0.979 . S
C628 H654 0.977 . S
C629 C625 1.684 . S
C629 H655 0.979 . S
C629 H656 0.980 . S
C629 H657 0.983 . S
C630 H606 0.948 . S
C630 C631 1.391 . S
C630 C635 1.391 . S
C631 C630 1.391 . S
C631 C632 1.391 . S
C632 H609 0.947 . S
C632 C631 1.391 . S
C632 C633 1.392 . S
C633 H610 0.948 . S
C633 C632 1.392 . S
C633 C634 1.419 . S
C634 C633 1.419 . S
C634 C635 1.391 . S
C634 C638 1.397 . S
C635 C630 1.391 . S
C635 C634 1.391 . S
C635 C636 1.399 . S
C636 C635 1.399 . S
C636 C637 1.396 . S
C636 C639 1.453 . S
C636 C640 1.684 . S
C637 C627 1.723 . S
C637 C636 1.396 . S
C637 C638 1.394 . S
C638 C608 1.723 . S
C638 C634 1.397 . S
C638 C637 1.394 . S
C639 H611 0.982 . S
C639 H615 0.979 . S
C639 H616 0.977 . S
C639 C636 1.453 . S
C640 H612 0.979 . S
C640 H613 0.980 . S
C640 H614 0.983 . S
C640 C636 1.684 . S
H641 C659 0.948 . S
H642 C600 0.948 . S
H643 C618 0.979 . S
H644 C618 0.980 . S
H645 C618 0.983 . S
H646 C617 0.982 . S
H647 C617 0.979 . S
H648 C617 0.977 . S
H649 C619 0.948 . S
H650 C621 0.947 . S
H651 C622 0.948 . S
H652 C628 0.982 . S
H653 C628 0.979 . S
H654 C628 0.977 . S
H655 C629 0.979 . S
H656 C629 0.980 . S
H657 C629 0.983 . S
H658 C602 0.947 . S
C659 C602 1.392 . S
C659 C603 1.419 . S
C659 H641 0.948 . S
C660 C661 1.391 . S
C660 C664 1.391 . S
C660 H702 0.948 . S
C661 C660 1.391 . S
C661 C662 1.391 . S
C662 C661 1.391 . S
C662 H718 0.947 . S
C662 C719 1.392 . S
C663 C664 1.391 . S
C663 C667 1.397 . S
C663 C719 1.419 . S
C664 C660 1.391 . S
C664 C663 1.391 . S
C664 C665 1.399 . S
C665 C664 1.399 . S
C665 C668 1.396 . S
C665 C677 1.453 . S
C665 C678 1.684 . S
H666 C690 0.948 . S
C667 C663 1.397 . S
C667 C668 1.394 . S
C667 C686 1.723 . S
C668 C665 1.396 . S
C668 C667 1.394 . S
C668 C698 1.723 . S
H669 C692 0.947 . S
H670 C693 0.948 . S
H671 C699 0.982 . S
H672 C700 0.979 . S
H673 C700 0.980 . S
H674 C700 0.983 . S
H675 C699 0.979 . S
H676 C699 0.977 . S
C677 C665 1.453 . S
C677 H706 0.982 . S
C677 H707 0.979 . S
C677 H708 0.977 . S
C678 C665 1.684 . S
C678 H703 0.979 . S
C678 H704 0.980 . S
C678 H705 0.983 . S
C679 C680 1.391 . S
C679 C684 1.391 . S
C679 H709 0.948 . S
C680 C679 1.391 . S
C680 C681 1.391 . S
C681 C680 1.391 . S
C681 C682 1.392 . S
C681 H710 0.947 . S
C682 C681 1.392 . S
C682 C683 1.419 . S
C682 H711 0.948 . S
C683 C682 1.419 . S
C683 C684 1.391 . S
C683 C687 1.397 . S
C684 C679 1.391 . S
C684 C683 1.391 . S
C684 C685 1.399 . S
C685 C684 1.399 . S
C685 C686 1.396 . S
C685 C688 1.453 . S
C685 C689 1.684 . S
C686 C667 1.723 . S
C686 C685 1.396 . S
C686 C687 1.394 . S
C687 C683 1.397 . S
C687 C686 1.394 . S
C687 C697 1.723 . S
C688 C685 1.453 . S
C688 H712 0.982 . S
C688 H713 0.979 . S
C688 H714 0.977 . S
C689 C685 1.684 . S
C689 H715 0.979 . S
C689 H716 0.980 . S
C689 H717 0.983 . S
C690 H666 0.948 . S
C690 C691 1.391 . S
C690 C695 1.391 . S
C691 C690 1.391 . S
C691 C692 1.391 . S
C692 H669 0.947 . S
C692 C691 1.391 . S
C692 C693 1.392 . S
C693 H670 0.948 . S
C693 C692 1.392 . S
C693 C694 1.419 . S
C694 C693 1.419 . S
C694 C695 1.391 . S
C694 C698 1.397 . S
C695 C690 1.391 . S
C695 C694 1.391 . S
C695 C696 1.399 . S
C696 C695 1.399 . S
C696 C697 1.396 . S
C696 C699 1.453 . S
C696 C700 1.684 . S
C697 C687 1.723 . S
C697 C696 1.396 . S
C697 C698 1.394 . S
C698 C668 1.723 . S
C698 C694 1.397 . S
C698 C697 1.394 . S
C699 H671 0.982 . S
C699 H675 0.979 . S
C699 H676 0.977 . S
C699 C696 1.453 . S
C700 H672 0.979 . S
C700 H673 0.980 . S
C700 H674 0.983 . S
C700 C696 1.684 . S
H701 C719 0.948 . S
H702 C660 0.948 . S
H703 C678 0.979 . S
H704 C678 0.980 . S
H705 C678 0.983 . S
H706 C677 0.982 . S
H707 C677 0.979 . S
H708 C677 0.977 . S
H709 C679 0.948 . S
H710 C681 0.947 . S
H711 C682 0.948 . S
H712 C688 0.982 . S
H713 C688 0.979 . S
H714 C688 0.977 . S
H715 C689 0.979 . S
H716 C689 0.980 . S
H717 C689 0.983 . S
H718 C662 0.947 . S
C719 C662 1.392 . S
C719 C663 1.419 . S
C719 H701 0.948 . S
C720 C721 1.391 . S
C720 C724 1.391 . S
C720 H762 0.948 . S
C721 C720 1.391 . S
C721 C722 1.391 . S
C722 C721 1.391 . S
C722 H778 0.947 . S
C722 C779 1.392 . S
C723 C724 1.391 . S
C723 C727 1.397 . S
C723 C779 1.419 . S
C724 C720 1.391 . S
C724 C723 1.391 . S
C724 C725 1.399 . S
C725 C724 1.399 . S
C725 C728 1.396 . S
C725 C737 1.453 . S
C725 C738 1.684 . S
H726 C750 0.948 . S
C727 C723 1.397 . S
C727 C728 1.394 . S
C727 C746 1.723 . S
C728 C725 1.396 . S
C728 C727 1.394 . S
C728 C758 1.723 . S
H729 C752 0.947 . S
H730 C753 0.948 . S
H731 C759 0.982 . S
H732 C760 0.979 . S
H733 C760 0.980 . S
H734 C760 0.983 . S
H735 C759 0.979 . S
H736 C759 0.977 . S
C737 C725 1.453 . S
C737 H766 0.982 . S
C737 H767 0.979 . S
C737 H768 0.977 . S
C738 C725 1.684 . S
C738 H763 0.979 . S
C738 H764 0.980 . S
C738 H765 0.983 . S
C739 C740 1.391 . S
C739 C744 1.391 . S
C739 H769 0.948 . S
C740 C739 1.391 . S
C740 C741 1.391 . S
C741 C740 1.391 . S
C741 C742 1.392 . S
C741 H770 0.947 . S
C742 C741 1.392 . S
C742 C743 1.419 . S
C742 H771 0.948 . S
C743 C742 1.419 . S
C743 C744 1.391 . S
C743 C747 1.397 . S
C744 C739 1.391 . S
C744 C743 1.391 . S
C744 C745 1.399 . S
C745 C744 1.399 . S
C745 C746 1.396 . S
C745 C748 1.453 . S
C745 C749 1.684 . S
C746 C727 1.723 . S
C746 C745 1.396 . S
C746 C747 1.394 . S
C747 C743 1.397 . S
C747 C746 1.394 . S
C747 C757 1.723 . S
C748 C745 1.453 . S
C748 H772 0.982 . S
C748 H773 0.979 . S
C748 H774 0.977 . S
C749 C745 1.684 . S
C749 H775 0.979 . S
C749 H776 0.980 . S
C749 H777 0.983 . S
C750 H726 0.948 . S
C750 C751 1.391 . S
C750 C755 1.391 . S
C751 C750 1.391 . S
C751 C752 1.391 . S
C752 H729 0.947 . S
C752 C751 1.391 . S
C752 C753 1.392 . S
C753 H730 0.948 . S
C753 C752 1.392 . S
C753 C754 1.419 . S
C754 C753 1.419 . S
C754 C755 1.391 . S
C754 C758 1.397 . S
C755 C750 1.391 . S
C755 C754 1.391 . S
C755 C756 1.399 . S
C756 C755 1.399 . S
C756 C757 1.396 . S
C756 C759 1.453 . S
C756 C760 1.684 . S
C757 C747 1.723 . S
C757 C756 1.396 . S
C757 C758 1.394 . S
C758 C728 1.723 . S
C758 C754 1.397 . S
C758 C757 1.394 . S
C759 H731 0.982 . S
C759 H735 0.979 . S
C759 H736 0.977 . S
C759 C756 1.453 . S
C760 H732 0.979 . S
C760 H733 0.980 . S
C760 H734 0.983 . S
C760 C756 1.684 . S
H761 C779 0.948 . S
H762 C720 0.948 . S
H763 C738 0.979 . S
H764 C738 0.980 . S
H765 C738 0.983 . S
H766 C737 0.982 . S
H767 C737 0.979 . S
H768 C737 0.977 . S
H769 C739 0.948 . S
H770 C741 0.947 . S
H771 C742 0.948 . S
H772 C748 0.982 . S
H773 C748 0.979 . S
H774 C748 0.977 . S
H775 C749 0.979 . S
H776 C749 0.980 . S
H777 C749 0.983 . S
H778 C722 0.947 . S
C779 C722 1.392 . S
C779 C723 1.419 . S
C779 H761 0.948 . S
C780 C781 1.391 . S
C780 C784 1.391 . S
C780 H822 0.948 . S
C781 C780 1.391 . S
C781 C782 1.391 . S
C782 C781 1.391 . S
C782 H838 0.947 . S
C782 C839 1.392 . S
C783 C784 1.391 . S
C783 C787 1.397 . S
C783 C839 1.419 . S
C784 C780 1.391 . S
C784 C783 1.391 . S
C784 C785 1.399 . S
C785 C784 1.399 . S
C785 C788 1.396 . S
C785 C797 1.453 . S
C785 C798 1.684 . S
H786 C810 0.948 . S
C787 C783 1.397 . S
C787 C788 1.394 . S
C787 C806 1.723 . S
C788 C785 1.396 . S
C788 C787 1.394 . S
C788 C818 1.723 . S
H789 C812 0.947 . S
H790 C813 0.948 . S
H791 C819 0.982 . S
H792 C820 0.979 . S
H793 C820 0.980 . S
H794 C820 0.983 . S
H795 C819 0.979 . S
H796 C819 0.977 . S
C797 C785 1.453 . S
C797 H826 0.982 . S
C797 H827 0.979 . S
C797 H828 0.977 . S
C798 C785 1.684 . S
C798 H823 0.979 . S
C798 H824 0.980 . S
C798 H825 0.983 . S
C799 C800 1.391 . S
C799 C804 1.391 . S
C799 H829 0.948 . S
C800 C799 1.391 . S
C800 C801 1.391 . S
C801 C800 1.391 . S
C801 C802 1.392 . S
C801 H830 0.947 . S
C802 C801 1.392 . S
C802 C803 1.419 . S
C802 H831 0.948 . S
C803 C802 1.419 . S
C803 C804 1.391 . S
C803 C807 1.397 . S
C804 C799 1.391 . S
C804 C803 1.391 . S
C804 C805 1.399 . S
C805 C804 1.399 . S
C805 C806 1.396 . S
C805 C808 1.453 . S
C805 C809 1.684 . S
C806 C787 1.723 . S
C806 C805 1.396 . S
C806 C807 1.394 . S
C807 C803 1.397 . S
C807 C806 1.394 . S
C807 C817 1.723 . S
C808 C805 1.453 . S
C808 H832 0.982 . S
C808 H833 0.979 . S
C808 H834 0.977 . S
C809 C805 1.684 . S
C809 H835 0.979 . S
C809 H836 0.980 . S
C809 H837 0.983 . S
C810 H786 0.948 . S
C810 C811 1.391 . S
C810 C815 1.391 . S
C811 C810 1.391 . S
C811 C812 1.391 . S
C812 H789 0.947 . S
C812 C811 1.391 . S
C812 C813 1.392 . S
C813 H790 0.948 . S
C813 C812 1.392 . S
C813 C814 1.419 . S
C814 C813 1.419 . S
C814 C815 1.391 . S
C814 C818 1.397 . S
C815 C810 1.391 . S
C815 C814 1.391 . S
C815 C816 1.399 . S
C816 C815 1.399 . S
C816 C817 1.396 . S
C816 C819 1.453 . S
C816 C820 1.684 . S
C817 C807 1.723 . S
C817 C816 1.396 . S
C817 C818 1.394 . S
C818 C788 1.723 . S
C818 C814 1.397 . S
C818 C817 1.394 . S
C819 H791 0.982 . S
C819 H795 0.979 . S
C819 H796 0.977 . S
C819 C816 1.453 . S
C820 H792 0.979 . S
C820 H793 0.980 . S
C820 H794 0.983 . S
C820 C816 1.684 . S
H821 C839 0.948 . S
H822 C780 0.948 . S
H823 C798 0.979 . S
H824 C798 0.980 . S
H825 C798 0.983 . S
H826 C797 0.982 . S
H827 C797 0.979 . S
H828 C797 0.977 . S
H829 C799 0.948 . S
H830 C801 0.947 . S
H831 C802 0.948 . S
H832 C808 0.982 . S
H833 C808 0.979 . S
H834 C808 0.977 . S
H835 C809 0.979 . S
H836 C809 0.980 . S
H837 C809 0.983 . S
H838 C782 0.947 . S
C839 C782 1.392 . S
C839 C783 1.419 . S
C839 H821 0.948 . S
C840 C841 1.391 . S
C840 C844 1.391 . S
C840 H882 0.948 . S
C841 C840 1.391 . S
C841 C842 1.391 . S
C842 C841 1.391 . S
C842 H898 0.947 . S
C842 C899 1.392 . S
C843 C844 1.391 . S
C843 C847 1.397 . S
C843 C899 1.419 . S
C844 C840 1.391 . S
C844 C843 1.391 . S
C844 C845 1.399 . S
C845 C844 1.399 . S
C845 C848 1.396 . S
C845 C857 1.453 . S
C845 C858 1.684 . S
H846 C870 0.948 . S
C847 C843 1.397 . S
C847 C848 1.394 . S
C847 C866 1.723 . S
C848 C845 1.396 . S
C848 C847 1.394 . S
C848 C878 1.723 . S
H849 C872 0.947 . S
H850 C873 0.948 . S
H851 C879 0.982 . S
H852 C880 0.979 . S
H853 C880 0.980 . S
H854 C880 0.983 . S
H855 C879 0.979 . S
H856 C879 0.977 . S
C857 C845 1.453 . S
C857 H886 0.982 . S
C857 H887 0.979 . S
C857 H888 0.977 . S
C858 C845 1.684 . S
C858 H883 0.979 . S
C858 H884 0.980 . S
C858 H885 0.983 . S
C859 C860 1.391 . S
C859 C864 1.391 . S
C859 H889 0.948 . S
C860 C859 1.391 . S
C860 C861 1.391 . S
C861 C860 1.391 . S
C861 C862 1.392 . S
C861 H890 0.947 . S
C862 C861 1.392 . S
C862 C863 1.419 . S
C862 H891 0.948 . S
C863 C862 1.419 . S
C863 C864 1.391 . S
C863 C867 1.397 . S
C864 C859 1.391 . S
C864 C863 1.391 . S
C864 C865 1.399 . S
C865 C864 1.399 . S
C865 C866 1.396 . S
C865 C868 1.453 . S
C865 C869 1.684 . S
C866 C847 1.723 . S
C866 C865 1.396 . S
C866 C867 1.394 . S
C867 C863 1.397 . S
C867 C866 1.394 . S
C867 C877 1.723 . S
C868 C865 1.453 . S
C868 H892 0.982 . S
C868 H893 0.979 . S
C868 H894 0.977 . S
C869 C865 1.684 . S
C869 H895 0.979 . S
C869 H896 0.980 . S
C869 H897 0.983 . S
C870 H846 0.948 . S
C870 C871 1.391 . S
C870 C875 1.391 . S
C871 C870 1.391 . S
C871 C872 1.391 . S
C872 H849 0.947 . S
C872 C871 1.391 . S
C872 C873 1.392 . S
C873 H850 0.948 . S
C873 C872 1.392 . S
C873 C874 1.419 . S
C874 C873 1.419 . S
C874 C875 1.391 . S
C874 C878 1.397 . S
C875 C870 1.391 . S
C875 C874 1.391 . S
C875 C876 1.399 . S
C876 C875 1.399 . S
C876 C877 1.396 . S
C876 C879 1.453 . S
C876 C880 1.684 . S
C877 C867 1.723 . S
C877 C876 1.396 . S
C877 C878 1.394 . S
C878 C848 1.723 . S
C878 C874 1.397 . S
C878 C877 1.394 . S
C879 H851 0.982 . S
C879 H855 0.979 . S
C879 H856 0.977 . S
C879 C876 1.453 . S
C880 H852 0.979 . S
C880 H853 0.980 . S
C880 H854 0.983 . S
C880 C876 1.684 . S
H881 C899 0.948 . S
H882 C840 0.948 . S
H883 C858 0.979 . S
H884 C858 0.980 . S
H885 C858 0.983 . S
H886 C857 0.982 . S
H887 C857 0.979 . S
H888 C857 0.977 . S
H889 C859 0.948 . S
H890 C861 0.947 . S
H891 C862 0.948 . S
H892 C868 0.982 . S
H893 C868 0.979 . S
H894 C868 0.977 . S
H895 C869 0.979 . S
H896 C869 0.980 . S
H897 C869 0.983 . S
H898 C842 0.947 . S
C899 C842 1.392 . S
C899 C843 1.419 . S
C899 H881 0.948 . S
C900 C901 1.391 . S
C900 C904 1.391 . S
C900 H942 0.948 . S
C901 C900 1.391 . S
C901 C902 1.391 . S
C902 C901 1.391 . S
C902 H958 0.947 . S
C902 C959 1.392 . S
C903 C904 1.391 . S
C903 C907 1.397 . S
C903 C959 1.419 . S
C904 C900 1.391 . S
C904 C903 1.391 . S
C904 C905 1.399 . S
C905 C904 1.399 . S
C905 C908 1.396 . S
C905 C917 1.453 . S
C905 C918 1.684 . S
H906 C930 0.948 . S
C907 C903 1.397 . S
C907 C908 1.394 . S
C907 C926 1.723 . S
C908 C905 1.396 . S
C908 C907 1.394 . S
C908 C938 1.723 . S
H909 C932 0.947 . S
H910 C933 0.948 . S
H911 C939 0.982 . S
H912 C940 0.979 . S
H913 C940 0.980 . S
H914 C940 0.983 . S
H915 C939 0.979 . S
H916 C939 0.977 . S
C917 C905 1.453 . S
C917 H946 0.982 . S
C917 H947 0.979 . S
C917 H948 0.977 . S
C918 C905 1.684 . S
C918 H943 0.979 . S
C918 H944 0.980 . S
C918 H945 0.983 . S
C919 C920 1.391 . S
C919 C924 1.391 . S
C919 H949 0.948 . S
C920 C919 1.391 . S
C920 C921 1.391 . S
C921 C920 1.391 . S
C921 C922 1.392 . S
C921 H950 0.947 . S
C922 C921 1.392 . S
C922 C923 1.419 . S
C922 H951 0.948 . S
C923 C922 1.419 . S
C923 C924 1.391 . S
C923 C927 1.397 . S
C924 C919 1.391 . S
C924 C923 1.391 . S
C924 C925 1.399 . S
C925 C924 1.399 . S
C925 C926 1.396 . S
C925 C928 1.453 . S
C925 C929 1.684 . S
C926 C907 1.723 . S
C926 C925 1.396 . S
C926 C927 1.394 . S
C927 C923 1.397 . S
C927 C926 1.394 . S
C927 C937 1.723 . S
C928 C925 1.453 . S
C928 H952 0.982 . S
C928 H953 0.979 . S
C928 H954 0.977 . S
C929 C925 1.684 . S
C929 H955 0.979 . S
C929 H956 0.980 . S
C929 H957 0.983 . S
C930 H906 0.948 . S
C930 C931 1.391 . S
C930 C935 1.391 . S
C931 C930 1.391 . S
C931 C932 1.391 . S
C932 H909 0.947 . S
C932 C931 1.391 . S
C932 C933 1.392 . S
C933 H910 0.948 . S
C933 C932 1.392 . S
C933 C934 1.419 . S
C934 C933 1.419 . S
C934 C935 1.391 . S
C934 C938 1.397 . S
C935 C930 1.391 . S
C935 C934 1.391 . S
C935 C936 1.399 . S
C936 C935 1.399 . S
C936 C937 1.396 . S
C936 C939 1.453 . S
C936 C940 1.684 . S
C937 C927 1.723 . S
C937 C936 1.396 . S
C937 C938 1.394 . S
C938 C908 1.723 . S
C938 C934 1.397 . S
C938 C937 1.394 . S
C939 H911 0.982 . S
C939 H915 0.979 . S
C939 H916 0.977 . S
C939 C936 1.453 . S
C940 H912 0.979 . S
C940 H913 0.980 . S
C940 H914 0.983 . S
C940 C936 1.684 . S
H941 C959 0.948 . S
H942 C900 0.948 . S
H943 C918 0.979 . S
H944 C918 0.980 . S
H945 C918 0.983 . S
H946 C917 0.982 . S
H947 C917 0.979 . S
H948 C917 0.977 . S
H949 C919 0.948 . S
H950 C921 0.947 . S
H951 C922 0.948 . S
H952 C928 0.982 . S
H953 C928 0.979 . S
H954 C928 0.977 . S
H955 C929 0.979 . S
H956 C929 0.980 . S
H957 C929 0.983 . S
H958 C902 0.947 . S
C959 C902 1.392 . S
C959 C903 1.419 . S
C959 H941 0.948 . S
O960 Cd961 2.223 . S
O960 C968 1.315 . S
Cd961 O960 2.223 . S
Cd961 O964 2.297 . S
Cd961 O965 2.439 . S
Cd961 O971 2.240 . S
Cd962 O963 2.240 . S
Cd962 O970 2.223 . S
Cd962 O972 2.297 . S
Cd962 O973 2.439 . S
O963 Cd962 2.240 . S
O963 C968 1.279 . S
O964 Cd961 2.297 . S
O964 C966 1.247 . S
O965 Cd961 2.439 . S
O965 C966 1.208 . S
C966 O964 1.247 . S
C966 O965 1.208 . S
C967 O972 1.247 . S
C967 O973 1.208 . S
C968 O960 1.315 . S
C968 O963 1.279 . S
C969 O970 1.315 . S
C969 O971 1.279 . S
O970 Cd962 2.223 . S
O970 C969 1.315 . S
O971 Cd961 2.240 . S
O971 C969 1.279 . S
O972 Cd962 2.297 . S
O972 C967 1.247 . S
O973 Cd962 2.439 . S
O973 C967 1.208 . S
O974 Cd975 2.223 . S
O974 C982 1.315 . S
Cd975 O974 2.223 . S
Cd975 O978 2.297 . S
Cd975 O979 2.439 . S
Cd975 O985 2.240 . S
Cd976 O977 2.240 . S
Cd976 O984 2.223 . S
Cd976 O986 2.297 . S
Cd976 O987 2.439 . S
O977 Cd976 2.240 . S
O977 C982 1.279 . S
O978 Cd975 2.297 . S
O978 C980 1.247 . S
O979 Cd975 2.439 . S
O979 C980 1.208 . S
C980 O978 1.247 . S
C980 O979 1.208 . S
C981 O986 1.247 . S
C981 O987 1.208 . S
C982 O974 1.315 . S
C982 O977 1.279 . S
C983 O984 1.315 . S
C983 O985 1.279 . S
O984 Cd976 2.223 . S
O984 C983 1.315 . S
O985 Cd975 2.240 . S
O985 C983 1.279 . S
O986 Cd976 2.297 . S
O986 C981 1.247 . S
O987 Cd976 2.439 . S
O987 C981 1.208 . S
O988 Cd989 2.223 1_556 S
O988 C996 1.315 . S
Cd989 O988 2.223 1_554 S
Cd989 O992 2.297 . S
Cd989 O993 2.439 . S
Cd989 O999 2.240 . S
Cd990 O991 2.240 . S
Cd990 O998 2.223 . S
Cd990 O1000 2.297 1_556 S
Cd990 O1001 2.439 1_556 S
O991 Cd990 2.240 . S
O991 C996 1.279 . S
O992 Cd989 2.297 . S
O992 C994 1.247 . S
O993 Cd989 2.439 . S
O993 C994 1.208 . S
C994 O992 1.247 . S
C994 O993 1.208 . S
C995 O1000 1.247 . S
C995 O1001 1.208 . S
C996 O988 1.315 . S
C996 O991 1.279 . S
C997 O998 1.315 . S
C997 O999 1.279 1_556 S
O998 Cd990 2.223 . S
O998 C997 1.315 . S
O999 Cd989 2.240 . S
O999 C997 1.279 1_554 S
O1000 Cd990 2.297 1_554 S
O1000 C995 1.247 . S
O1001 Cd990 2.439 1_554 S
O1001 C995 1.208 . S
O1002 Cd1003 2.223 . S
O1002 C1010 1.315 . S
Cd1003 O1002 2.223 . S
Cd1003 O1006 2.297 . S
Cd1003 O1007 2.439 . S
Cd1003 O1013 2.240 . S
Cd1004 O1005 2.240 . S
Cd1004 O1012 2.223 . S
Cd1004 O1014 2.297 . S
Cd1004 O1015 2.439 . S
O1005 Cd1004 2.240 . S
O1005 C1010 1.279 . S
O1006 Cd1003 2.297 . S
O1006 C1008 1.247 . S
O1007 Cd1003 2.439 . S
O1007 C1008 1.208 . S
C1008 O1006 1.247 . S
C1008 O1007 1.208 . S
C1009 O1014 1.247 . S
C1009 O1015 1.208 . S
C1010 O1002 1.315 . S
C1010 O1005 1.279 . S
C1011 O1012 1.315 . S
C1011 O1013 1.279 . S
O1012 Cd1004 2.223 . S
O1012 C1011 1.315 . S
O1013 Cd1003 2.240 . S
O1013 C1011 1.279 . S
O1014 Cd1004 2.297 . S
O1014 C1009 1.247 . S
O1015 Cd1004 2.439 . S
O1015 C1009 1.208 . S
O1016 Cd1017 2.223 . S
O1016 C1024 1.315 . S
Cd1017 O1016 2.223 . S
Cd1017 O1020 2.297 . S
Cd1017 O1021 2.439 . S
Cd1017 O1027 2.240 . S
Cd1018 O1019 2.240 . S
Cd1018 O1026 2.223 . S
Cd1018 O1028 2.297 . S
Cd1018 O1029 2.439 . S
O1019 Cd1018 2.240 . S
O1019 C1024 1.279 . S
O1020 Cd1017 2.297 . S
O1020 C1022 1.247 . S
O1021 Cd1017 2.439 . S
O1021 C1022 1.208 . S
C1022 O1020 1.247 . S
C1022 O1021 1.208 . S
C1023 O1028 1.247 . S
C1023 O1029 1.208 . S
C1024 O1016 1.315 . S
C1024 O1019 1.279 . S
C1025 O1026 1.315 . S
C1025 O1027 1.279 . S
O1026 Cd1018 2.223 . S
O1026 C1025 1.315 . S
O1027 Cd1017 2.240 . S
O1027 C1025 1.279 . S
O1028 Cd1018 2.297 . S
O1028 C1023 1.247 . S
O1029 Cd1018 2.439 . S
O1029 C1023 1.208 . S
O1030 Cd1031 2.223 . S
O1030 C1038 1.315 . S
Cd1031 O1030 2.223 . S
Cd1031 O1034 2.297 . S
Cd1031 O1035 2.439 . S
Cd1031 O1041 2.240 . S
Cd1032 O1033 2.240 . S
Cd1032 O1040 2.223 . S
Cd1032 O1042 2.297 . S
Cd1032 O1043 2.439 . S
O1033 Cd1032 2.240 . S
O1033 C1038 1.279 . S
O1034 Cd1031 2.297 . S
O1034 C1036 1.247 . S
O1035 Cd1031 2.439 . S
O1035 C1036 1.208 . S
C1036 O1034 1.247 . S
C1036 O1035 1.208 . S
C1037 O1042 1.247 . S
C1037 O1043 1.208 . S
C1038 O1030 1.315 . S
C1038 O1033 1.279 . S
C1039 O1040 1.315 . S
C1039 O1041 1.279 . S
O1040 Cd1032 2.223 . S
O1040 C1039 1.315 . S
O1041 Cd1031 2.240 . S
O1041 C1039 1.279 . S
O1042 Cd1032 2.297 . S
O1042 C1037 1.247 . S
O1043 Cd1032 2.439 . S
O1043 C1037 1.208 . S
O1044 Cd1045 2.223 . S
O1044 C1052 1.315 . S
Cd1045 O1044 2.223 . S
Cd1045 O1048 2.297 . S
Cd1045 O1049 2.439 . S
Cd1045 O1055 2.240 . S
Cd1046 O1047 2.240 . S
Cd1046 O1054 2.223 . S
Cd1046 O1056 2.297 . S
Cd1046 O1057 2.439 . S
O1047 Cd1046 2.240 . S
O1047 C1052 1.279 . S
O1048 Cd1045 2.297 . S
O1048 C1050 1.247 . S
O1049 Cd1045 2.439 . S
O1049 C1050 1.208 . S
C1050 O1048 1.247 . S
C1050 O1049 1.208 . S
C1051 O1056 1.247 . S
C1051 O1057 1.208 . S
C1052 O1044 1.315 . S
C1052 O1047 1.279 . S
C1053 O1054 1.315 . S
C1053 O1055 1.279 . S
O1054 Cd1046 2.223 . S
O1054 C1053 1.315 . S
O1055 Cd1045 2.240 . S
O1055 C1053 1.279 . S
O1056 Cd1046 2.297 . S
O1056 C1051 1.247 . S
O1057 Cd1046 2.439 . S
O1057 C1051 1.208 . S
O1058 Cd1059 2.223 1_545 S
O1058 C1066 1.315 . S
Cd1059 O1058 2.223 1_565 S
Cd1059 O1062 2.297 . S
Cd1059 O1063 2.439 . S
Cd1059 O1069 2.240 1_565 S
Cd1060 O1061 2.240 . S
Cd1060 O1068 2.223 . S
Cd1060 O1070 2.297 . S
Cd1060 O1071 2.439 1_545 S
O1061 Cd1060 2.240 . S
O1061 C1066 1.279 . S
O1062 Cd1059 2.297 . S
O1062 C1064 1.247 . S
O1063 Cd1059 2.439 . S
O1063 C1064 1.208 . S
C1064 O1062 1.247 . S
C1064 O1063 1.208 . S
C1065 O1070 1.247 1_565 S
C1065 O1071 1.208 . S
C1066 O1058 1.315 . S
C1066 O1061 1.279 . S
C1067 O1068 1.315 . S
C1067 O1069 1.279 . S
O1068 Cd1060 2.223 . S
O1068 C1067 1.315 . S
O1069 Cd1059 2.240 1_545 S
O1069 C1067 1.279 . S
O1070 Cd1060 2.297 . S
O1070 C1065 1.247 1_545 S
O1071 Cd1060 2.439 1_565 S
O1071 C1065 1.208 . S
O1072 Cd1073 2.223 . S
O1072 C1080 1.315 . S
Cd1073 O1072 2.223 . S
Cd1073 O1076 2.297 1_655 S
Cd1073 O1077 2.439 1_655 S
Cd1073 O1083 2.240 . S
Cd1074 O1075 2.240 . S
Cd1074 O1082 2.223 1_455 S
Cd1074 O1084 2.297 . S
Cd1074 O1085 2.439 . S
O1075 Cd1074 2.240 . S
O1075 C1080 1.279 1_455 S
O1076 Cd1073 2.297 1_455 S
O1076 C1078 1.247 . S
O1077 Cd1073 2.439 1_455 S
O1077 C1078 1.208 . S
C1078 O1076 1.247 . S
C1078 O1077 1.208 . S
C1079 O1084 1.247 . S
C1079 O1085 1.208 . S
C1080 O1072 1.315 . S
C1080 O1075 1.279 1_655 S
C1081 O1082 1.315 . S
C1081 O1083 1.279 . S
O1082 Cd1074 2.223 1_655 S
O1082 C1081 1.315 . S
O1083 Cd1073 2.240 . S
O1083 C1081 1.279 . S
O1084 Cd1074 2.297 . S
O1084 C1079 1.247 . S
O1085 Cd1074 2.439 . S
O1085 C1079 1.208 . S
O1086 Cd1087 2.223 . S
O1086 C1094 1.315 . S
Cd1087 O1086 2.223 . S
Cd1087 O1090 2.297 . S
Cd1087 O1091 2.439 . S
Cd1087 O1097 2.240 . S
Cd1088 O1089 2.240 . S
Cd1088 O1096 2.223 . S
Cd1088 O1098 2.297 . S
Cd1088 O1099 2.439 . S
O1089 Cd1088 2.240 . S
O1089 C1094 1.279 . S
O1090 Cd1087 2.297 . S
O1090 C1092 1.247 . S
O1091 Cd1087 2.439 . S
O1091 C1092 1.208 . S
C1092 O1090 1.247 . S
C1092 O1091 1.208 . S
C1093 O1098 1.247 . S
C1093 O1099 1.208 . S
C1094 O1086 1.315 . S
C1094 O1089 1.279 . S
C1095 O1096 1.315 . S
C1095 O1097 1.279 . S
O1096 Cd1088 2.223 . S
O1096 C1095 1.315 . S
O1097 Cd1087 2.240 . S
O1097 C1095 1.279 . S
O1098 Cd1088 2.297 . S
O1098 C1093 1.247 . S
O1099 Cd1088 2.439 . S
O1099 C1093 1.208 . S
O1100 Cd1101 2.223 1_655 S
O1100 C1108 1.315 . S
Cd1101 O1100 2.223 1_455 S
Cd1101 O1104 2.297 . S
Cd1101 O1105 2.439 . S
Cd1101 O1111 2.240 . S
Cd1102 O1103 2.240 . S
Cd1102 O1110 2.223 . S
Cd1102 O1112 2.297 1_655 S
Cd1102 O1113 2.439 1_655 S
O1103 Cd1102 2.240 . S
O1103 C1108 1.279 . S
O1104 Cd1101 2.297 . S
O1104 C1106 1.247 . S
O1105 Cd1101 2.439 . S
O1105 C1106 1.208 . S
C1106 O1104 1.247 . S
C1106 O1105 1.208 . S
C1107 O1112 1.247 . S
C1107 O1113 1.208 . S
C1108 O1100 1.315 . S
C1108 O1103 1.279 . S
C1109 O1110 1.315 . S
C1109 O1111 1.279 1_655 S
O1110 Cd1102 2.223 . S
O1110 C1109 1.315 . S
O1111 Cd1101 2.240 . S
O1111 C1109 1.279 1_455 S
O1112 Cd1102 2.297 1_455 S
O1112 C1107 1.247 . S
O1113 Cd1102 2.439 1_455 S
O1113 C1107 1.208 . S
O1114 Cd1115 2.223 . S
O1114 C1122 1.315 . S
Cd1115 O1114 2.223 . S
Cd1115 O1118 2.297 . S
Cd1115 O1119 2.439 . S
Cd1115 O1125 2.240 . S
Cd1116 O1117 2.240 . S
Cd1116 O1124 2.223 . S
Cd1116 O1126 2.297 . S
Cd1116 O1127 2.439 . S
O1117 Cd1116 2.240 . S
O1117 C1122 1.279 . S
O1118 Cd1115 2.297 . S
O1118 C1120 1.247 . S
O1119 Cd1115 2.439 . S
O1119 C1120 1.208 . S
C1120 O1118 1.247 . S
C1120 O1119 1.208 . S
C1121 O1126 1.247 . S
C1121 O1127 1.208 . S
C1122 O1114 1.315 . S
C1122 O1117 1.279 . S
C1123 O1124 1.315 . S
C1123 O1125 1.279 . S
O1124 Cd1116 2.223 . S
O1124 C1123 1.315 . S
O1125 Cd1115 2.240 . S
O1125 C1123 1.279 . S
O1126 Cd1116 2.297 . S
O1126 C1121 1.247 . S
O1127 Cd1116 2.439 . S
O1127 C1121 1.208 . S
C1128 C1129 1.349 . S
C1128 C1130 1.327 . S
C1128 H1153 0.950 . S
C1129 C1128 1.349 . S
C1129 C1145 1.349 . S
C1130 C1128 1.327 . S
C1130 C1149 1.429 . S
C1130 H1154 0.950 . S
C1131 C1148 1.574 . S
C1131 C1150 1.368 . S
C1131 H1155 0.949 . S
H1132 C1136 0.949 . S
C1133 C1134 1.349 . S
C1133 C1135 1.327 1_554 S
C1133 H1156 0.950 . S
C1134 C1133 1.349 . S
C1134 C1146 1.349 1_554 S
C1135 C1133 1.327 1_556 S
C1135 C1151 1.429 . S
C1135 H1157 0.950 . S
C1136 H1132 0.949 . S
C1136 C1144 1.574 . S
C1136 C1152 1.368 . S
H1137 C1145 0.950 . S
H1138 C1143 0.950 . S
H1139 C1144 0.949 . S
H1140 C1146 0.950 . S
H1141 C1147 0.950 . S
H1142 C1148 0.949 . S
C1143 H1138 0.950 . S
C1143 C1145 1.327 . S
C1143 C1149 1.429 . S
C1144 C1136 1.574 . S
C1144 H1139 0.949 . S
C1144 C1150 1.368 . S
C1145 C1129 1.349 . S
C1145 H1137 0.950 . S
C1145 C1143 1.327 . S
C1146 C1134 1.349 1_556 S
C1146 H1140 0.950 . S
C1146 C1147 1.327 . S
C1147 H1141 0.950 . S
C1147 C1146 1.327 . S
C1147 C1151 1.429 . S
C1148 C1131 1.574 . S
C1148 H1142 0.949 . S
C1148 C1152 1.368 . S
C1149 C1130 1.429 . S
C1149 C1143 1.429 . S
C1149 C1150 1.523 . S
C1150 C1131 1.368 . S
C1150 C1144 1.368 . S
C1150 C1149 1.523 . S
C1151 C1135 1.429 . S
C1151 C1147 1.429 . S
C1151 C1152 1.523 . S
C1152 C1136 1.368 . S
C1152 C1148 1.368 . S
C1152 C1151 1.523 . S
H1153 C1128 0.950 . S
H1154 C1130 0.950 . S
H1155 C1131 0.949 . S
H1156 C1133 0.950 . S
H1157 C1135 0.950 . S
C1158 C1159 1.349 . S
C1158 C1160 1.327 . S
C1158 H1183 0.950 . S
C1159 C1158 1.349 . S
C1159 C1175 1.349 . S
C1160 C1158 1.327 . S
C1160 C1179 1.429 . S
C1160 H1184 0.950 . S
C1161 C1178 1.574 . S
C1161 C1180 1.368 . S
C1161 H1185 0.949 . S
H1162 C1166 0.949 . S
C1163 C1164 1.349 . S
C1163 C1165 1.327 . S
C1163 H1186 0.950 . S
C1164 C1163 1.349 . S
C1164 C1176 1.349 . S
C1165 C1163 1.327 . S
C1165 C1181 1.429 . S
C1165 H1187 0.950 . S
C1166 H1162 0.949 . S
C1166 C1174 1.574 . S
C1166 C1182 1.368 . S
H1167 C1175 0.950 . S
H1168 C1173 0.950 . S
H1169 C1174 0.949 . S
H1170 C1176 0.950 . S
H1171 C1177 0.950 . S
H1172 C1178 0.949 . S
C1173 H1168 0.950 . S
C1173 C1175 1.327 . S
C1173 C1179 1.429 . S
C1174 C1166 1.574 . S
C1174 H1169 0.949 . S
C1174 C1180 1.368 . S
C1175 C1159 1.349 . S
C1175 H1167 0.950 . S
C1175 C1173 1.327 . S
C1176 C1164 1.349 . S
C1176 H1170 0.950 . S
C1176 C1177 1.327 . S
C1177 H1171 0.950 . S
C1177 C1176 1.327 . S
C1177 C1181 1.429 . S
C1178 C1161 1.574 . S
C1178 H1172 0.949 . S
C1178 C1182 1.368 . S
C1179 C1160 1.429 . S
C1179 C1173 1.429 . S
C1179 C1180 1.523 1_655 S
C1180 C1161 1.368 . S
C1180 C1174 1.368 . S
C1180 C1179 1.523 1_455 S
C1181 C1165 1.429 . S
C1181 C1177 1.429 . S
C1181 C1182 1.523 . S
C1182 C1166 1.368 . S
C1182 C1178 1.368 . S
C1182 C1181 1.523 . S
H1183 C1158 0.950 . S
H1184 C1160 0.950 . S
H1185 C1161 0.949 . S
H1186 C1163 0.950 . S
H1187 C1165 0.950 . S
C1188 C1189 1.349 . S
C1188 C1190 1.327 . S
C1188 H1213 0.950 . S
C1189 C1188 1.349 . S
C1189 C1205 1.349 . S
C1190 C1188 1.327 . S
C1190 C1209 1.429 . S
C1190 H1214 0.950 . S
C1191 C1208 1.574 . S
C1191 C1210 1.368 . S
C1191 H1215 0.949 . S
H1192 C1196 0.949 . S
C1193 C1194 1.349 . S
C1193 C1195 1.327 . S
C1193 H1216 0.950 . S
C1194 C1193 1.349 . S
C1194 C1206 1.349 . S
C1195 C1193 1.327 . S
C1195 C1211 1.429 . S
C1195 H1217 0.950 . S
C1196 H1192 0.949 . S
C1196 C1204 1.574 . S
C1196 C1212 1.368 . S
H1197 C1205 0.950 . S
H1198 C1203 0.950 . S
H1199 C1204 0.949 . S
H1200 C1206 0.950 . S
H1201 C1207 0.950 . S
H1202 C1208 0.949 . S
C1203 H1198 0.950 . S
C1203 C1205 1.327 . S
C1203 C1209 1.429 . S
C1204 C1196 1.574 . S
C1204 H1199 0.949 . S
C1204 C1210 1.368 . S
C1205 C1189 1.349 . S
C1205 H1197 0.950 . S
C1205 C1203 1.327 . S
C1206 C1194 1.349 . S
C1206 H1200 0.950 . S
C1206 C1207 1.327 . S
C1207 H1201 0.950 . S
C1207 C1206 1.327 . S
C1207 C1211 1.429 . S
C1208 C1191 1.574 . S
C1208 H1202 0.949 . S
C1208 C1212 1.368 . S
C1209 C1190 1.429 . S
C1209 C1203 1.429 . S
C1209 C1210 1.523 . S
C1210 C1191 1.368 . S
C1210 C1204 1.368 . S
C1210 C1209 1.523 . S
C1211 C1195 1.429 . S
C1211 C1207 1.429 . S
C1211 C1212 1.523 . S
C1212 C1196 1.368 . S
C1212 C1208 1.368 . S
C1212 C1211 1.523 . S
H1213 C1188 0.950 . S
H1214 C1190 0.950 . S
H1215 C1191 0.949 . S
H1216 C1193 0.950 . S
H1217 C1195 0.950 . S
C1218 C1219 1.349 . S
C1218 C1220 1.327 . S
C1218 H1243 0.950 . S
C1219 C1218 1.349 . S
C1219 C1235 1.349 . S
C1220 C1218 1.327 . S
C1220 C1239 1.429 1_455 S
C1220 H1244 0.950 1_565 S
C1221 C1238 1.574 . S
C1221 C1240 1.368 . S
C1221 H1245 0.949 . S
H1222 C1226 0.949 . S
C1223 C1224 1.349 . S
C1223 C1225 1.327 . S
C1223 H1246 0.950 . S
C1224 C1223 1.349 . S
C1224 C1236 1.349 . S
C1225 C1223 1.327 . S
C1225 C1241 1.429 . S
C1225 H1247 0.950 1_545 S
C1226 H1222 0.949 . S
C1226 C1234 1.574 . S
C1226 C1242 1.368 . S
H1227 C1235 0.950 . S
H1228 C1233 0.928 1_655 S
H1229 C1234 0.949 . S
H1230 C1236 0.950 . S
H1231 C1237 0.950 . S
H1232 C1238 0.949 . S
C1233 H1228 0.928 1_455 S
C1233 C1235 1.362 . S
C1233 C1239 1.417 1_455 S
C1234 C1226 1.574 . S
C1234 H1229 0.949 . S
C1234 C1240 1.368 1_545 S
C1235 C1219 1.349 . S
C1235 H1227 0.950 . S
C1235 C1233 1.362 . S
C1236 C1224 1.349 . S
C1236 H1230 0.950 . S
C1236 C1237 1.327 . S
C1237 H1231 0.950 . S
C1237 C1236 1.327 . S
C1237 C1241 1.429 . S
C1238 C1221 1.574 . S
C1238 H1232 0.949 . S
C1238 C1242 1.368 1_565 S
C1239 C1220 1.429 1_655 S
C1239 C1233 1.417 1_655 S
C1239 C1240 1.523 . S
C1240 C1221 1.368 . S
C1240 C1234 1.368 1_565 S
C1240 C1239 1.523 . S
C1241 C1225 1.429 . S
C1241 C1237 1.429 . S
C1241 C1242 1.523 . S
C1242 C1226 1.368 . S
C1242 C1238 1.368 1_545 S
C1242 C1241 1.523 . S
H1243 C1218 0.950 . S
H1244 C1220 0.950 1_545 S
H1245 C1221 0.949 . S
H1246 C1223 0.950 . S
H1247 C1225 0.950 1_565 S
C1248 C1249 1.349 . S
C1248 C1250 1.327 . S
C1248 H1273 0.950 . S
C1249 C1248 1.349 . S
C1249 C1265 1.349 . S
C1250 C1248 1.327 . S
C1250 C1269 1.429 . S
C1250 H1274 0.950 . S
C1251 C1268 1.574 . S
C1251 C1270 1.368 . S
C1251 H1275 0.949 . S
H1252 C1256 0.949 . S
C1253 C1254 1.349 . S
C1253 C1255 1.327 . S
C1253 H1276 0.950 . S
C1254 C1253 1.349 . S
C1254 C1266 1.349 . S
C1255 C1253 1.327 . S
C1255 C1271 1.429 . S
C1255 H1277 0.950 . S
C1256 H1252 0.949 . S
C1256 C1264 1.574 . S
C1256 C1272 1.368 . S
H1257 C1265 0.950 . S
H1258 C1263 0.950 . S
H1259 C1264 0.949 . S
H1260 C1266 0.950 . S
H1261 C1267 0.950 . S
H1262 C1268 0.949 . S
C1263 H1258 0.950 . S
C1263 C1265 1.327 . S
C1263 C1269 1.429 . S
C1264 C1256 1.574 . S
C1264 H1259 0.949 . S
C1264 C1270 1.368 . S
C1265 C1249 1.349 . S
C1265 H1257 0.950 . S
C1265 C1263 1.327 . S
C1266 C1254 1.349 . S
C1266 H1260 0.950 . S
C1266 C1267 1.327 . S
C1267 H1261 0.950 . S
C1267 C1266 1.327 . S
C1267 C1271 1.429 . S
C1268 C1251 1.574 . S
C1268 H1262 0.949 . S
C1268 C1272 1.368 . S
C1269 C1250 1.429 . S
C1269 C1263 1.429 . S
C1269 C1270 1.523 . S
C1270 C1251 1.368 . S
C1270 C1264 1.368 . S
C1270 C1269 1.523 . S
C1271 C1255 1.429 . S
C1271 C1267 1.429 . S
C1271 C1272 1.523 . S
C1272 C1256 1.368 . S
C1272 C1268 1.368 . S
C1272 C1271 1.523 . S
H1273 C1248 0.950 . S
H1274 C1250 0.950 . S
H1275 C1251 0.949 . S
H1276 C1253 0.950 . S
H1277 C1255 0.950 . S
C1278 C1279 1.349 . S
C1278 C1280 1.327 . S
C1278 H1303 0.950 . S
C1279 C1278 1.349 . S
C1279 C1295 1.349 . S
C1280 C1278 1.327 . S
C1280 C1299 1.429 . S
C1280 H1304 0.950 . S
C1281 C1298 1.574 . S
C1281 C1300 1.368 . S
C1281 H1305 0.949 . S
H1282 C1286 0.949 . S
C1283 C1284 1.349 . S
C1283 C1285 1.327 . S
C1283 H1306 0.950 . S
C1284 C1283 1.349 . S
C1284 C1296 1.349 . S
C1285 C1283 1.327 . S
C1285 C1301 1.429 . S
C1285 H1307 0.950 . S
C1286 H1282 0.949 . S
C1286 C1294 1.574 . S
C1286 C1302 1.368 . S
H1287 C1295 0.950 . S
H1288 C1293 0.950 . S
H1289 C1294 0.949 . S
H1290 C1296 0.950 . S
H1291 C1297 0.950 . S
H1292 C1298 0.949 . S
C1293 H1288 0.950 . S
C1293 C1295 1.327 . S
C1293 C1299 1.429 . S
C1294 C1286 1.574 . S
C1294 H1289 0.949 . S
C1294 C1300 1.368 . S
C1295 C1279 1.349 . S
C1295 H1287 0.950 . S
C1295 C1293 1.327 . S
C1296 C1284 1.349 . S
C1296 H1290 0.950 . S
C1296 C1297 1.327 . S
C1297 H1291 0.950 . S
C1297 C1296 1.327 . S
C1297 C1301 1.429 . S
C1298 C1281 1.574 . S
C1298 H1292 0.949 . S
C1298 C1302 1.368 . S
C1299 C1280 1.429 . S
C1299 C1293 1.429 . S
C1299 C1300 1.523 . S
C1300 C1281 1.368 . S
C1300 C1294 1.368 . S
C1300 C1299 1.523 . S
C1301 C1285 1.429 . S
C1301 C1297 1.429 . S
C1301 C1302 1.523 . S
C1302 C1286 1.368 . S
C1302 C1298 1.368 . S
C1302 C1301 1.523 . S
H1303 C1278 0.950 . S
H1304 C1280 0.950 . S
H1305 C1281 0.949 . S
H1306 C1283 0.950 . S
H1307 C1285 0.950 . S
C1308 C1309 1.349 . S
C1308 C1310 1.327 . S
C1308 H1333 0.950 . S
C1309 C1308 1.349 . S
C1309 C1325 1.349 . S
C1310 C1308 1.327 . S
C1310 C1329 1.429 . S
C1310 H1334 0.950 . S
C1311 C1328 1.574 . S
C1311 C1330 1.368 . S
C1311 H1335 0.949 . S
H1312 C1316 0.949 . S
C1313 C1314 1.349 . S
C1313 C1315 1.327 . S
C1313 H1336 0.950 . S
C1314 C1313 1.349 . S
C1314 C1326 1.349 . S
C1315 C1313 1.327 . S
C1315 C1331 1.429 . S
C1315 H1337 0.950 . S
C1316 H1312 0.949 . S
C1316 C1324 1.574 . S
C1316 C1332 1.368 . S
H1317 C1325 0.950 . S
H1318 C1323 0.950 . S
H1319 C1324 0.949 . S
H1320 C1326 0.950 . S
H1321 C1327 0.950 . S
H1322 C1328 0.949 . S
C1323 H1318 0.950 . S
C1323 C1325 1.327 . S
C1323 C1329 1.429 . S
C1324 C1316 1.574 . S
C1324 H1319 0.949 . S
C1324 C1330 1.368 . S
C1325 C1309 1.349 . S
C1325 H1317 0.950 . S
C1325 C1323 1.327 . S
C1326 C1314 1.349 . S
C1326 H1320 0.950 . S
C1326 C1327 1.327 . S
C1327 H1321 0.950 . S
C1327 C1326 1.327 . S
C1327 C1331 1.429 . S
C1328 C1311 1.574 . S
C1328 H1322 0.949 . S
C1328 C1332 1.368 . S
C1329 C1310 1.429 . S
C1329 C1323 1.429 . S
C1329 C1330 1.523 . S
C1330 C1311 1.368 . S
C1330 C1324 1.368 . S
C1330 C1329 1.523 . S
C1331 C1315 1.429 . S
C1331 C1327 1.429 . S
C1331 C1332 1.523 . S
C1332 C1316 1.368 . S
C1332 C1328 1.368 . S
C1332 C1331 1.523 . S
H1333 C1308 0.950 . S
H1334 C1310 0.950 . S
H1335 C1311 0.949 . S
H1336 C1313 0.950 . S
H1337 C1315 0.950 . S
C1338 C1339 1.349 . S
C1338 C1340 1.327 . S
C1338 H1363 0.950 . S
C1339 C1338 1.349 . S
C1339 C1355 1.349 . S
C1340 C1338 1.327 . S
C1340 C1359 1.429 . S
C1340 H1364 0.950 . S
C1341 C1358 1.574 . S
C1341 C1360 1.368 . S
C1341 H1365 0.949 . S
H1342 C1346 0.949 . S
C1343 C1344 1.349 . S
C1343 C1345 1.327 . S
C1343 H1366 0.950 . S
C1344 C1343 1.349 . S
C1344 C1356 1.349 . S
C1345 C1343 1.327 . S
C1345 C1361 1.429 . S
C1345 H1367 0.950 . S
C1346 H1342 0.949 . S
C1346 C1354 1.574 . S
C1346 C1362 1.368 . S
H1347 C1355 0.950 . S
H1348 C1353 0.950 . S
H1349 C1354 0.949 . S
H1350 C1356 0.950 1_545 S
H1351 C1357 0.950 . S
H1352 C1358 0.949 . S
C1353 H1348 0.950 . S
C1353 C1355 1.327 . S
C1353 C1359 1.429 . S
C1354 C1346 1.574 . S
C1354 H1349 0.949 . S
C1354 C1360 1.368 . S
C1355 C1339 1.349 . S
C1355 H1347 0.950 . S
C1355 C1353 1.327 . S
C1356 C1344 1.349 . S
C1356 H1350 0.950 1_565 S
C1356 C1357 1.327 . S
C1357 H1351 0.950 . S
C1357 C1356 1.327 . S
C1357 C1361 1.429 . S
C1358 C1341 1.574 . S
C1358 H1352 0.949 . S
C1358 C1362 1.368 . S
C1359 C1340 1.429 . S
C1359 C1353 1.429 . S
C1359 C1360 1.523 . S
C1360 C1341 1.368 . S
C1360 C1354 1.368 . S
C1360 C1359 1.523 . S
C1361 C1345 1.429 . S
C1361 C1357 1.429 . S
C1361 C1362 1.523 . S
C1362 C1346 1.368 . S
C1362 C1358 1.368 . S
C1362 C1361 1.523 . S
H1363 C1338 0.950 . S
H1364 C1340 0.950 . S
H1365 C1341 0.949 . S
H1366 C1343 0.950 . S
H1367 C1345 0.950 . S
C1368 C1369 1.349 . S
C1368 C1370 1.327 . S
C1368 H1393 0.950 . S
C1369 C1368 1.349 . S
C1369 C1385 1.349 . S
C1370 C1368 1.327 . S
C1370 C1389 1.429 . S
C1370 H1394 0.950 . S
C1371 C1388 1.574 . S
C1371 C1390 1.368 . S
C1371 H1395 0.949 . S
H1372 C1376 0.949 . S
C1373 C1374 1.349 . S
C1373 C1375 1.327 . S
C1373 H1396 0.950 . S
C1374 C1373 1.349 . S
C1374 C1386 1.349 . S
C1375 C1373 1.327 . S
C1375 C1391 1.429 . S
C1375 H1397 0.950 . S
C1376 H1372 0.949 . S
C1376 C1384 1.574 . S
C1376 C1392 1.368 . S
H1377 C1385 0.950 . S
H1378 C1383 0.950 . S
H1379 C1384 0.949 . S
H1380 C1386 0.950 . S
H1381 C1387 0.950 . S
H1382 C1388 0.949 . S
C1383 H1378 0.950 . S
C1383 C1385 1.327 . S
C1383 C1389 1.429 . S
C1384 C1376 1.574 . S
C1384 H1379 0.949 . S
C1384 C1390 1.368 . S
C1385 C1369 1.349 . S
C1385 H1377 0.950 . S
C1385 C1383 1.327 . S
C1386 C1374 1.349 . S
C1386 H1380 0.950 . S
C1386 C1387 1.327 . S
C1387 H1381 0.950 . S
C1387 C1386 1.327 . S
C1387 C1391 1.429 . S
C1388 C1371 1.574 . S
C1388 H1382 0.949 . S
C1388 C1392 1.368 . S
C1389 C1370 1.429 . S
C1389 C1383 1.429 . S
C1389 C1390 1.523 . S
C1390 C1371 1.368 . S
C1390 C1384 1.368 . S
C1390 C1389 1.523 . S
C1391 C1375 1.429 . S
C1391 C1387 1.429 . S
C1391 C1392 1.523 . S
C1392 C1376 1.368 . S
C1392 C1388 1.368 . S
C1392 C1391 1.523 . S
H1393 C1368 0.950 . S
H1394 C1370 0.950 . S
H1395 C1371 0.949 . S
H1396 C1373 0.950 . S
H1397 C1375 0.950 . S
C1398 C1399 1.349 . S
C1398 C1400 1.327 . S
C1398 H1423 0.950 . S
C1399 C1398 1.349 . S
C1399 C1415 1.349 . S
C1400 C1398 1.327 . S
C1400 C1419 1.429 . S
C1400 H1424 0.950 . S
C1401 C1418 1.574 . S
C1401 C1420 1.368 . S
C1401 H1425 0.949 . S
H1402 C1406 0.949 . S
C1403 C1404 1.349 . S
C1403 C1405 1.327 . S
C1403 H1426 0.950 . S
C1404 C1403 1.349 . S
C1404 C1416 1.349 . S
C1405 C1403 1.327 . S
C1405 C1421 1.429 . S
C1405 H1427 0.950 . S
C1406 H1402 0.949 . S
C1406 C1414 1.574 . S
C1406 C1422 1.368 . S
H1407 C1415 0.950 . S
H1408 C1413 0.950 . S
H1409 C1414 0.949 . S
H1410 C1416 0.950 . S
H1411 C1417 0.950 . S
H1412 C1418 0.949 . S
C1413 H1408 0.950 . S
C1413 C1415 1.327 . S
C1413 C1419 1.429 . S
C1414 C1406 1.574 . S
C1414 H1409 0.949 . S
C1414 C1420 1.368 . S
C1415 C1399 1.349 . S
C1415 H1407 0.950 . S
C1415 C1413 1.327 . S
C1416 C1404 1.349 . S
C1416 H1410 0.950 . S
C1416 C1417 1.327 . S
C1417 H1411 0.950 . S
C1417 C1416 1.327 . S
C1417 C1421 1.429 . S
C1418 C1401 1.574 . S
C1418 H1412 0.949 . S
C1418 C1422 1.368 . S
C1419 C1400 1.429 . S
C1419 C1413 1.429 . S
C1419 C1420 1.523 . S
C1420 C1401 1.368 . S
C1420 C1414 1.368 . S
C1420 C1419 1.523 . S
C1421 C1405 1.429 . S
C1421 C1417 1.429 . S
C1421 C1422 1.523 . S
C1422 C1406 1.368 . S
C1422 C1418 1.368 . S
C1422 C1421 1.523 . S
H1423 C1398 0.950 . S
H1424 C1400 0.950 . S
H1425 C1401 0.949 . S
H1426 C1403 0.950 . S
H1427 C1405 0.950 . S
C1428 C1429 1.349 . S
C1428 C1430 1.327 . S
C1428 H1453 0.950 . S
C1429 C1428 1.349 . S
C1429 C1445 1.349 . S
C1430 C1428 1.327 . S
C1430 C1449 1.429 . S
C1430 H1454 0.950 . S
C1431 C1448 1.574 . S
C1431 C1450 1.368 . S
C1431 H1455 0.949 . S
H1432 C1436 0.949 . S
C1433 C1434 1.349 . S
C1433 C1435 1.327 . S
C1433 H1456 0.950 . S
C1434 C1433 1.349 . S
C1434 C1446 1.349 . S
C1435 C1433 1.327 . S
C1435 C1451 1.429 . S
C1435 H1457 0.950 . S
C1436 H1432 0.949 . S
C1436 C1444 1.574 . S
C1436 C1452 1.368 . S
H1437 C1445 0.950 . S
H1438 C1443 0.950 . S
H1439 C1444 0.949 . S
H1440 C1446 0.950 . S
H1441 C1447 0.950 . S
H1442 C1448 0.949 . S
C1443 H1438 0.950 . S
C1443 C1445 1.327 . S
C1443 C1449 1.429 . S
C1444 C1436 1.574 . S
C1444 H1439 0.949 . S
C1444 C1450 1.368 . S
C1445 C1429 1.349 . S
C1445 H1437 0.950 . S
C1445 C1443 1.327 . S
C1446 C1434 1.349 . S
C1446 H1440 0.950 . S
C1446 C1447 1.327 . S
C1447 H1441 0.950 . S
C1447 C1446 1.327 . S
C1447 C1451 1.429 . S
C1448 C1431 1.574 . S
C1448 H1442 0.949 . S
C1448 C1452 1.368 . S
C1449 C1430 1.429 . S
C1449 C1443 1.429 . S
C1449 C1450 1.523 . S
C1450 C1431 1.368 . S
C1450 C1444 1.368 . S
C1450 C1449 1.523 . S
C1451 C1435 1.429 . S
C1451 C1447 1.429 . S
C1451 C1452 1.523 . S
C1452 C1436 1.368 . S
C1452 C1448 1.368 . S
C1452 C1451 1.523 . S
H1453 C1428 0.950 . S
H1454 C1430 0.950 . S
H1455 C1431 0.949 . S
H1456 C1433 0.950 . S
H1457 C1435 0.950 . S
C1458 C1459 1.349 . S
C1458 C1460 1.327 . S
C1458 H1483 0.950 . S
C1459 C1458 1.349 . S
C1459 C1475 1.349 . S
C1460 C1458 1.327 . S
C1460 C1479 1.429 . S
C1460 H1484 0.950 . S
C1461 C1478 1.574 . S
C1461 C1480 1.368 . S
C1461 H1485 0.949 . S
H1462 C1466 0.949 . S
C1463 C1464 1.349 . S
C1463 C1465 1.327 . S
C1463 H1486 0.950 . S
C1464 C1463 1.349 . S
C1464 C1476 1.349 . S
C1465 C1463 1.327 . S
C1465 C1481 1.429 . S
C1465 H1487 0.950 . S
C1466 H1462 0.949 . S
C1466 C1474 1.574 . S
C1466 C1482 1.368 . S
H1467 C1475 0.950 . S
H1468 C1473 0.950 . S
H1469 C1474 0.949 . S
H1470 C1476 0.950 . S
H1471 C1477 0.950 . S
H1472 C1478 0.949 . S
C1473 H1468 0.950 . S
C1473 C1475 1.327 . S
C1473 C1479 1.429 . S
C1474 C1466 1.574 . S
C1474 H1469 0.949 . S
C1474 C1480 1.368 . S
C1475 C1459 1.349 . S
C1475 H1467 0.950 . S
C1475 C1473 1.327 . S
C1476 C1464 1.349 . S
C1476 H1470 0.950 . S
C1476 C1477 1.327 . S
C1477 H1471 0.950 . S
C1477 C1476 1.327 . S
C1477 C1481 1.429 . S
C1478 C1461 1.574 . S
C1478 H1472 0.949 . S
C1478 C1482 1.368 . S
C1479 C1460 1.429 . S
C1479 C1473 1.429 . S
C1479 C1480 1.523 . S
C1480 C1461 1.368 . S
C1480 C1474 1.368 . S
C1480 C1479 1.523 . S
C1481 C1465 1.429 . S
C1481 C1477 1.429 . S
C1481 C1482 1.523 . S
C1482 C1466 1.368 . S
C1482 C1478 1.368 . S
C1482 C1481 1.523 . S
H1483 C1458 0.950 . S
H1484 C1460 0.950 . S
H1485 C1461 0.949 . S
H1486 C1463 0.950 . S
H1487 C1465 0.950 . S
C1488 C1489 1.349 . S
C1488 C1490 1.327 . S
C1488 H1513 0.950 . S
C1489 C1488 1.349 . S
C1489 C1505 1.349 . S
C1490 C1488 1.327 . S
C1490 C1509 1.429 . S
C1490 H1514 0.950 . S
C1491 C1508 1.574 . S
C1491 C1510 1.368 . S
C1491 H1515 0.949 . S
H1492 C1496 0.949 . S
C1493 C1494 1.349 . S
C1493 C1495 1.327 . S
C1493 H1516 0.950 . S
C1494 C1493 1.349 . S
C1494 C1506 1.349 . S
C1495 C1493 1.327 . S
C1495 C1511 1.429 . S
C1495 H1517 0.950 . S
C1496 H1492 0.949 . S
C1496 C1504 1.574 . S
C1496 C1512 1.368 . S
H1497 C1505 0.950 . S
H1498 C1503 0.950 . S
H1499 C1504 0.949 . S
H1500 C1506 0.950 . S
H1501 C1507 0.950 . S
H1502 C1508 0.949 . S
C1503 H1498 0.950 . S
C1503 C1505 1.327 . S
C1503 C1509 1.429 . S
C1504 C1496 1.574 . S
C1504 H1499 0.949 . S
C1504 C1510 1.368 . S
C1505 C1489 1.349 . S
C1505 H1497 0.950 . S
C1505 C1503 1.327 . S
C1506 C1494 1.349 . S
C1506 H1500 0.950 . S
C1506 C1507 1.327 . S
C1507 H1501 0.950 . S
C1507 C1506 1.327 . S
C1507 C1511 1.429 . S
C1508 C1491 1.574 . S
C1508 H1502 0.949 . S
C1508 C1512 1.368 . S
C1509 C1490 1.429 . S
C1509 C1503 1.429 . S
C1509 C1510 1.523 . S
C1510 C1491 1.368 . S
C1510 C1504 1.368 . S
C1510 C1509 1.523 . S
C1511 C1495 1.429 . S
C1511 C1507 1.429 . S
C1511 C1512 1.523 . S
C1512 C1496 1.368 . S
C1512 C1508 1.368 . S
C1512 C1511 1.523 . S
H1513 C1488 0.950 . S
H1514 C1490 0.950 . S
H1515 C1491 0.949 . S
H1516 C1493 0.950 . S
H1517 C1495 0.950 . S
C1518 C1519 1.349 . S
C1518 C1520 1.327 . S
C1518 H1543 0.950 . S
C1519 C1518 1.349 . S
C1519 C1535 1.349 . S
C1520 C1518 1.327 . S
C1520 C1539 1.429 . S
C1520 H1544 0.950 . S
C1521 C1538 1.574 . S
C1521 C1540 1.368 . S
C1521 H1545 0.949 . S
H1522 C1526 0.949 . S
C1523 C1524 1.349 . S
C1523 C1525 1.327 . S
C1523 H1546 0.950 . S
C1524 C1523 1.349 . S
C1524 C1536 1.349 . S
C1525 C1523 1.327 . S
C1525 C1541 1.429 . S
C1525 H1547 0.950 . S
C1526 H1522 0.949 . S
C1526 C1534 1.574 . S
C1526 C1542 1.368 . S
H1527 C1535 0.950 . S
H1528 C1533 0.950 . S
H1529 C1534 0.949 . S
H1530 C1536 0.950 . S
H1531 C1537 0.950 . S
H1532 C1538 0.949 . S
C1533 H1528 0.950 . S
C1533 C1535 1.327 . S
C1533 C1539 1.429 . S
C1534 C1526 1.574 . S
C1534 H1529 0.949 . S
C1534 C1540 1.368 . S
C1535 C1519 1.349 . S
C1535 H1527 0.950 . S
C1535 C1533 1.327 . S
C1536 C1524 1.349 . S
C1536 H1530 0.950 . S
C1536 C1537 1.327 . S
C1537 H1531 0.950 . S
C1537 C1536 1.327 . S
C1537 C1541 1.429 . S
C1538 C1521 1.574 . S
C1538 H1532 0.949 . S
C1538 C1542 1.368 . S
C1539 C1520 1.429 . S
C1539 C1533 1.429 . S
C1539 C1540 1.523 . S
C1540 C1521 1.368 . S
C1540 C1534 1.368 . S
C1540 C1539 1.523 . S
C1541 C1525 1.429 . S
C1541 C1537 1.429 . S
C1541 C1542 1.523 . S
C1542 C1526 1.368 . S
C1542 C1538 1.368 . S
C1542 C1541 1.523 . S
H1543 C1518 0.950 . S
H1544 C1520 0.950 . S
H1545 C1521 0.949 . S
H1546 C1523 0.950 . S
H1547 C1525 0.950 . S
C1548 C1549 1.349 . S
C1548 C1550 1.327 . S
C1548 H1573 0.950 . S
C1549 C1548 1.349 . S
C1549 C1565 1.349 . S
C1550 C1548 1.327 . S
C1550 C1569 1.429 . S
C1550 H1574 0.950 . S
C1551 C1568 1.574 . S
C1551 C1570 1.368 . S
C1551 H1575 0.949 . S
H1552 C1556 0.949 . S
C1553 C1554 1.349 . S
C1553 C1555 1.327 . S
C1553 H1576 0.950 . S
C1554 C1553 1.349 . S
C1554 C1566 1.349 . S
C1555 C1553 1.327 . S
C1555 C1571 1.429 . S
C1555 H1577 0.950 . S
C1556 H1552 0.949 . S
C1556 C1564 1.574 . S
C1556 C1572 1.368 . S
H1557 C1565 0.950 . S
H1558 C1563 0.950 . S
H1559 C1564 0.949 . S
H1560 C1566 0.950 . S
H1561 C1567 0.950 . S
H1562 C1568 0.949 . S
C1563 H1558 0.950 . S
C1563 C1565 1.327 . S
C1563 C1569 1.429 . S
C1564 C1556 1.574 . S
C1564 H1559 0.949 . S
C1564 C1570 1.368 . S
C1565 C1549 1.349 . S
C1565 H1557 0.950 . S
C1565 C1563 1.327 . S
C1566 C1554 1.349 . S
C1566 H1560 0.950 . S
C1566 C1567 1.327 . S
C1567 H1561 0.950 . S
C1567 C1566 1.327 . S
C1567 C1571 1.429 . S
C1568 C1551 1.574 . S
C1568 H1562 0.949 . S
C1568 C1572 1.368 . S
C1569 C1550 1.429 . S
C1569 C1563 1.429 . S
C1569 C1570 1.523 . S
C1570 C1551 1.368 . S
C1570 C1564 1.368 . S
C1570 C1569 1.523 . S
C1571 C1555 1.429 . S
C1571 C1567 1.429 . S
C1571 C1572 1.523 . S
C1572 C1556 1.368 . S
C1572 C1568 1.368 . S
C1572 C1571 1.523 . S
H1573 C1548 0.950 . S
H1574 C1550 0.950 . S
H1575 C1551 0.949 . S
H1576 C1553 0.950 . S
H1577 C1555 0.950 . S
C1578 C1579 1.349 . S
C1578 C1580 1.327 . S
C1578 H1603 0.950 . S
C1579 C1578 1.349 . S
C1579 C1595 1.349 . S
C1580 C1578 1.327 . S
C1580 C1599 1.429 . S
C1580 H1604 0.950 . S
C1581 C1598 1.574 . S
C1581 C1600 1.368 . S
C1581 H1605 0.949 . S
H1582 C1586 0.949 . S
C1583 C1584 1.349 . S
C1583 C1585 1.327 . S
C1583 H1606 0.957 . S
C1584 C1583 1.349 . S
C1584 C1596 1.349 . S
C1585 C1583 1.327 . S
C1585 C1601 1.429 . S
C1585 H1607 0.950 . S
C1586 H1582 0.949 . S
C1586 C1594 1.574 . S
C1586 C1602 1.368 . S
H1587 C1595 0.950 . S
H1588 C1593 0.950 . S
H1589 C1594 0.949 . S
H1590 C1596 0.950 . S
H1591 C1597 0.950 . S
H1592 C1598 0.949 . S
C1593 H1588 0.950 . S
C1593 C1595 1.327 . S
C1593 C1599 1.429 . S
C1594 C1586 1.574 . S
C1594 H1589 0.949 . S
C1594 C1600 1.368 . S
C1595 C1579 1.349 . S
C1595 H1587 0.950 . S
C1595 C1593 1.327 . S
C1596 C1584 1.349 . S
C1596 H1590 0.950 . S
C1596 C1597 1.327 . S
C1597 H1591 0.950 . S
C1597 C1596 1.327 . S
C1597 C1601 1.429 . S
C1598 C1581 1.574 . S
C1598 H1592 0.949 . S
C1598 C1602 1.368 . S
C1599 C1580 1.429 . S
C1599 C1593 1.429 . S
C1599 C1600 1.523 . S
C1600 C1581 1.368 . S
C1600 C1594 1.368 . S
C1600 C1599 1.523 . S
C1601 C1585 1.429 . S
C1601 C1597 1.429 . S
C1601 C1602 1.523 . S
C1602 C1586 1.368 . S
C1602 C1598 1.368 . S
C1602 C1601 1.523 . S
H1603 C1578 0.950 . S
H1604 C1580 0.950 . S
H1605 C1581 0.949 . S
H1606 C1583 0.957 . S
H1607 C1585 0.950 . S
C1608 C1609 1.349 . S
C1608 C1610 1.327 . S
C1608 H1633 0.950 . S
C1609 C1608 1.349 . S
C1609 C1625 1.349 . S
C1610 C1608 1.327 . S
C1610 C1629 1.429 . S
C1610 H1634 0.950 . S
C1611 C1628 1.574 . S
C1611 C1630 1.368 . S
C1611 H1635 0.949 . S
H1612 C1616 0.949 . S
C1613 C1614 1.349 . S
C1613 C1615 1.327 . S
C1613 H1636 0.950 . S
C1614 C1613 1.349 . S
C1614 C1626 1.349 1_545 S
C1615 C1613 1.327 . S
C1615 C1631 1.429 1_545 S
C1615 H1637 0.950 . S
C1616 H1612 0.949 . S
C1616 C1624 1.574 . S
C1616 C1632 1.368 . S
H1617 C1625 0.950 . S
H1618 C1623 0.950 . S
H1619 C1624 0.949 . S
H1620 C1626 0.950 . S
H1621 C1627 0.950 . S
H1622 C1628 0.949 . S
C1623 H1618 0.950 . S
C1623 C1625 1.327 . S
C1623 C1629 1.429 . S
C1624 C1616 1.574 . S
C1624 H1619 0.949 . S
C1624 C1630 1.368 . S
C1625 C1609 1.349 . S
C1625 H1617 0.950 . S
C1625 C1623 1.327 . S
C1626 C1614 1.349 1_565 S
C1626 H1620 0.950 . S
C1626 C1627 1.327 . S
C1627 H1621 0.950 . S
C1627 C1626 1.327 . S
C1627 C1631 1.429 . S
C1628 C1611 1.574 . S
C1628 H1622 0.949 . S
C1628 C1632 1.368 . S
C1629 C1610 1.429 . S
C1629 C1623 1.429 . S
C1629 C1630 1.523 . S
C1630 C1611 1.368 . S
C1630 C1624 1.368 . S
C1630 C1629 1.523 . S
C1631 C1615 1.429 1_565 S
C1631 C1627 1.429 . S
C1631 C1632 1.523 . S
C1632 C1616 1.368 . S
C1632 C1628 1.368 . S
C1632 C1631 1.523 . S
H1633 C1608 0.950 . S
H1634 C1610 0.950 . S
H1635 C1611 0.949 . S
H1636 C1613 0.950 . S
H1637 C1615 0.950 . S
C1638 C1639 1.349 . S
C1638 C1640 1.327 . S
C1638 H1663 0.950 . S
C1639 C1638 1.349 . S
C1639 C1655 1.349 . S
C1640 C1638 1.327 . S
C1640 C1659 1.429 . S
C1640 H1664 0.950 . S
C1641 C1658 1.574 . S
C1641 C1660 1.368 . S
C1641 H1665 0.949 . S
H1642 C1646 0.949 . S
C1643 C1644 1.349 . S
C1643 C1645 1.327 . S
C1643 H1666 0.950 . S
C1644 C1643 1.349 . S
C1644 C1656 1.349 . S
C1645 C1643 1.327 . S
C1645 C1661 1.429 . S
C1645 H1667 0.950 . S
C1646 H1642 0.949 . S
C1646 C1654 1.574 . S
C1646 C1662 1.368 . S
H1647 C1655 0.950 . S
H1648 C1653 0.950 . S
H1649 C1654 0.949 . S
H1650 C1656 0.950 . S
H1651 C1657 0.950 . S
H1652 C1658 0.949 . S
C1653 H1648 0.950 . S
C1653 C1655 1.327 . S
C1653 C1659 1.429 . S
C1654 C1646 1.574 . S
C1654 H1649 0.949 . S
C1654 C1660 1.368 . S
C1655 C1639 1.349 . S
C1655 H1647 0.950 . S
C1655 C1653 1.327 . S
C1656 C1644 1.349 . S
C1656 H1650 0.950 . S
C1656 C1657 1.327 . S
C1657 H1651 0.950 . S
C1657 C1656 1.327 . S
C1657 C1661 1.429 . S
C1658 C1641 1.574 . S
C1658 H1652 0.949 . S
C1658 C1662 1.368 . S
C1659 C1640 1.429 . S
C1659 C1653 1.429 . S
C1659 C1660 1.523 . S
C1660 C1641 1.368 . S
C1660 C1654 1.368 . S
C1660 C1659 1.523 . S
C1661 C1645 1.429 . S
C1661 C1657 1.429 . S
C1661 C1662 1.523 . S
C1662 C1646 1.368 . S
C1662 C1658 1.368 . S
C1662 C1661 1.523 . S
H1663 C1638 0.950 . S
H1664 C1640 0.950 . S
H1665 C1641 0.949 . S
H1666 C1643 0.950 . S
H1667 C1645 0.950 . S
C1668 C1669 1.349 . S
C1668 C1670 1.327 . S
C1668 H1693 0.950 . S
C1669 C1668 1.349 . S
C1669 C1685 1.349 . S
C1670 C1668 1.327 . S
C1670 C1689 1.429 . S
C1670 H1694 0.950 . S
C1671 C1688 1.574 . S
C1671 C1690 1.368 1_565 S
C1671 H1695 0.949 . S
H1672 C1676 0.950 1_544 S
C1673 C1674 1.349 . S
C1673 C1675 1.327 . S
C1673 H1696 0.950 . S
C1674 C1673 1.349 . S
C1674 C1686 1.349 . S
C1675 C1673 1.327 . S
C1675 C1691 1.429 . S
C1675 H1697 0.950 1_554 S
C1676 H1672 0.950 1_566 S
C1676 C1684 1.577 1_565 S
C1676 C1692 1.364 . S
H1677 C1685 0.950 . S
H1678 C1683 0.950 . S
H1679 C1684 0.949 . S
H1680 C1686 0.950 . S
H1681 C1687 0.950 . S
H1682 C1688 0.949 . S
C1683 H1678 0.950 . S
C1683 C1685 1.327 . S
C1683 C1689 1.429 . S
C1684 C1676 1.577 1_545 S
C1684 H1679 0.949 . S
C1684 C1690 1.368 . S
C1685 C1669 1.349 . S
C1685 H1677 0.950 . S
C1685 C1683 1.327 . S
C1686 C1674 1.349 . S
C1686 H1680 0.950 . S
C1686 C1687 1.327 . S
C1687 H1681 0.950 . S
C1687 C1686 1.327 . S
C1687 C1691 1.429 . S
C1688 C1671 1.574 . S
C1688 H1682 0.949 . S
C1688 C1692 1.368 . S
C1689 C1670 1.429 . S
C1689 C1683 1.429 . S
C1689 C1690 1.523 . S
C1690 C1671 1.368 1_545 S
C1690 C1684 1.368 . S
C1690 C1689 1.523 . S
C1691 C1675 1.429 . S
C1691 C1687 1.429 . S
C1691 C1692 1.523 1_554 S
C1692 C1676 1.364 . S
C1692 C1688 1.368 . S
C1692 C1691 1.523 1_556 S
H1693 C1668 0.950 . S
H1694 C1670 0.950 . S
H1695 C1671 0.949 . S
H1696 C1673 0.950 . S
H1697 C1675 0.950 1_556 S
C1698 C1699 1.349 . S
C1698 C1700 1.327 . S
C1698 H1723 0.950 . S
C1699 C1698 1.349 . S
C1699 C1715 1.349 . S
C1700 C1698 1.327 . S
C1700 C1719 1.429 . S
C1700 H1724 0.950 . S
C1701 C1718 1.574 . S
C1701 C1720 1.368 . S
C1701 H1725 0.949 . S
H1702 C1706 0.949 . S
C1703 C1704 1.349 . S
C1703 C1705 1.327 . S
C1703 H1726 0.950 . S
C1704 C1703 1.349 . S
C1704 C1716 1.349 . S
C1705 C1703 1.327 . S
C1705 C1721 1.429 . S
C1705 H1727 0.950 . S
C1706 H1702 0.949 . S
C1706 C1714 1.574 . S
C1706 C1722 1.368 . S
H1707 C1715 0.950 . S
H1708 C1713 0.950 . S
H1709 C1714 0.949 . S
H1710 C1716 0.950 . S
H1711 C1717 0.950 . S
H1712 C1718 0.949 . S
C1713 H1708 0.950 . S
C1713 C1715 1.327 . S
C1713 C1719 1.429 . S
C1714 C1706 1.574 . S
C1714 H1709 0.949 . S
C1714 C1720 1.368 . S
C1715 C1699 1.349 . S
C1715 H1707 0.950 . S
C1715 C1713 1.327 . S
C1716 C1704 1.349 . S
C1716 H1710 0.950 . S
C1716 C1717 1.327 . S
C1717 H1711 0.950 . S
C1717 C1716 1.327 . S
C1717 C1721 1.429 . S
C1718 C1701 1.574 . S
C1718 H1712 0.949 . S
C1718 C1722 1.368 . S
C1719 C1700 1.429 . S
C1719 C1713 1.429 . S
C1719 C1720 1.523 . S
C1720 C1701 1.368 . S
C1720 C1714 1.368 . S
C1720 C1719 1.523 . S
C1721 C1705 1.429 . S
C1721 C1717 1.429 . S
C1721 C1722 1.523 . S
C1722 C1706 1.368 . S
C1722 C1718 1.368 . S
C1722 C1721 1.523 . S
H1723 C1698 0.950 . S
H1724 C1700 0.950 . S
H1725 C1701 0.949 . S
H1726 C1703 0.950 . S
H1727 C1705 0.950 . S
C1728 C1729 1.349 . S
C1728 C1730 1.327 . S
C1728 H1753 0.950 . S
C1729 C1728 1.349 . S
C1729 C1745 1.349 . S
C1730 C1728 1.327 . S
C1730 C1749 1.429 . S
C1730 H1754 0.950 . S
C1731 C1748 1.574 . S
C1731 C1750 1.368 . S
C1731 H1755 0.949 . S
H1732 C1736 0.949 . S
C1733 C1734 1.349 . S
C1733 C1735 1.327 . S
C1733 H1756 0.950 . S
C1734 C1733 1.349 . S
C1734 C1746 1.349 . S
C1735 C1733 1.327 . S
C1735 C1751 1.429 . S
C1735 H1757 0.950 . S
C1736 H1732 0.949 . S
C1736 C1744 1.574 . S
C1736 C1752 1.368 . S
H1737 C1745 0.950 1_565 S
H1738 C1743 0.950 . S
H1739 C1744 0.949 . S
H1740 C1746 0.950 . S
H1741 C1747 0.950 . S
H1742 C1748 0.949 . S
C1743 H1738 0.950 . S
C1743 C1745 1.327 . S
C1743 C1749 1.429 . S
C1744 C1736 1.574 . S
C1744 H1739 0.949 . S
C1744 C1750 1.368 . S
C1745 C1729 1.349 . S
C1745 H1737 0.950 1_545 S
C1745 C1743 1.327 . S
C1746 C1734 1.349 . S
C1746 H1740 0.950 . S
C1746 C1747 1.327 . S
C1747 H1741 0.950 . S
C1747 C1746 1.327 . S
C1747 C1751 1.429 . S
C1748 C1731 1.574 . S
C1748 H1742 0.949 . S
C1748 C1752 1.368 . S
C1749 C1730 1.429 . S
C1749 C1743 1.429 . S
C1749 C1750 1.523 . S
C1750 C1731 1.368 . S
C1750 C1744 1.368 . S
C1750 C1749 1.523 . S
C1751 C1735 1.429 . S
C1751 C1747 1.429 . S
C1751 C1752 1.523 . S
C1752 C1736 1.368 . S
C1752 C1748 1.368 . S
C1752 C1751 1.523 . S
H1753 C1728 0.950 . S
H1754 C1730 0.950 . S
H1755 C1731 0.949 . S
H1756 C1733 0.950 . S
H1757 C1735 0.950 . S
C1758 C1759 1.349 . S
C1758 C1760 1.327 . S
C1758 H1783 0.950 . S
C1759 C1758 1.349 . S
C1759 C1775 1.349 . S
C1760 C1758 1.327 . S
C1760 C1779 1.429 . S
C1760 H1784 0.950 . S
C1761 C1778 1.574 . S
C1761 C1780 1.368 . S
C1761 H1785 0.949 . S
H1762 C1766 0.949 . S
C1763 C1764 1.349 . S
C1763 C1765 1.327 . S
C1763 H1786 0.950 . S
C1764 C1763 1.349 . S
C1764 C1776 1.349 . S
C1765 C1763 1.327 . S
C1765 C1781 1.429 . S
C1765 H1787 0.950 . S
C1766 H1762 0.949 . S
C1766 C1774 1.574 . S
C1766 C1782 1.368 . S
H1767 C1775 0.950 . S
H1768 C1773 0.950 . S
H1769 C1774 0.949 . S
H1770 C1776 0.950 . S
H1771 C1777 0.950 . S
H1772 C1778 0.949 . S
C1773 H1768 0.950 . S
C1773 C1775 1.327 . S
C1773 C1779 1.429 . S
C1774 C1766 1.574 . S
C1774 H1769 0.949 . S
C1774 C1780 1.368 . S
C1775 C1759 1.349 . S
C1775 H1767 0.950 . S
C1775 C1773 1.327 . S
C1776 C1764 1.349 . S
C1776 H1770 0.950 . S
C1776 C1777 1.327 . S
C1777 H1771 0.950 . S
C1777 C1776 1.327 . S
C1777 C1781 1.429 . S
C1778 C1761 1.574 . S
C1778 H1772 0.949 . S
C1778 C1782 1.368 . S
C1779 C1760 1.429 . S
C1779 C1773 1.429 . S
C1779 C1780 1.523 . S
C1780 C1761 1.368 . S
C1780 C1774 1.368 . S
C1780 C1779 1.523 . S
C1781 C1765 1.429 . S
C1781 C1777 1.429 . S
C1781 C1782 1.523 . S
C1782 C1766 1.368 . S
C1782 C1778 1.368 . S
C1782 C1781 1.523 . S
H1783 C1758 0.950 . S
H1784 C1760 0.950 . S
H1785 C1761 0.949 . S
H1786 C1763 0.950 . S
H1787 C1765 0.950 . S
C1788 C1789 1.349 . S
C1788 C1790 1.291 1_565 S
C1788 H1813 0.950 . S
C1789 C1788 1.349 . S
C1789 C1805 1.349 . S
C1790 C1788 1.291 1_545 S
C1790 C1809 1.452 . S
C1790 H1814 0.963 . S
C1791 C1808 1.574 . S
C1791 C1810 1.368 . S
C1791 H1815 0.949 . S
H1792 C1796 0.949 . S
C1793 C1794 1.349 . S
C1793 C1795 1.327 . S
C1793 H1816 0.950 . S
C1794 C1793 1.349 . S
C1794 C1806 1.349 . S
C1795 C1793 1.327 . S
C1795 C1811 1.429 . S
C1795 H1817 0.950 . S
C1796 H1792 0.949 . S
C1796 C1804 1.574 . S
C1796 C1812 1.368 . S
H1797 C1805 0.950 . S
H1798 C1803 0.950 . S
H1799 C1804 0.949 . S
H1800 C1806 0.950 . S
H1801 C1807 0.950 . S
H1802 C1808 0.949 . S
C1803 H1798 0.950 . S
C1803 C1805 1.327 1_545 S
C1803 C1809 1.429 . S
C1804 C1796 1.574 . S
C1804 H1799 0.949 . S
C1804 C1810 1.368 . S
C1805 C1789 1.349 . S
C1805 H1797 0.950 . S
C1805 C1803 1.327 1_565 S
C1806 C1794 1.349 . S
C1806 H1800 0.950 . S
C1806 C1807 1.327 . S
C1807 H1801 0.950 . S
C1807 C1806 1.327 . S
C1807 C1811 1.429 . S
C1808 C1791 1.574 . S
C1808 H1802 0.949 . S
C1808 C1812 1.368 . S
C1809 C1790 1.452 . S
C1809 C1803 1.429 . S
C1809 C1810 1.523 . S
C1810 C1791 1.368 . S
C1810 C1804 1.368 . S
C1810 C1809 1.523 . S
C1811 C1795 1.429 . S
C1811 C1807 1.429 . S
C1811 C1812 1.523 . S
C1812 C1796 1.368 . S
C1812 C1808 1.368 . S
C1812 C1811 1.523 . S
H1813 C1788 0.950 . S
H1814 C1790 0.963 . S
H1815 C1791 0.949 . S
H1816 C1793 0.950 . S
H1817 C1795 0.950 . S
C1818 C1819 1.349 . S
C1818 C1820 1.327 . S
C1818 H1843 0.950 . S
C1819 C1818 1.349 . S
C1819 C1835 1.349 . S
C1820 C1818 1.327 . S
C1820 C1839 1.429 . S
C1820 H1844 0.950 . S
C1821 C1838 1.574 . S
C1821 C1840 1.368 . S
C1821 H1845 0.949 . S
H1822 C1826 0.949 . S
C1823 C1824 1.349 . S
C1823 C1825 1.327 . S
C1823 H1846 0.950 . S
C1824 C1823 1.349 . S
C1824 C1836 1.349 . S
C1825 C1823 1.327 . S
C1825 C1841 1.429 . S
C1825 H1847 0.950 . S
C1826 H1822 0.949 . S
C1826 C1834 1.574 . S
C1826 C1842 1.368 . S
H1827 C1835 0.950 . S
H1828 C1833 0.950 . S
H1829 C1834 0.949 . S
H1830 C1836 0.950 . S
H1831 C1837 0.950 . S
H1832 C1838 0.949 . S
C1833 H1828 0.950 . S
C1833 C1835 1.327 . S
C1833 C1839 1.429 . S
C1834 C1826 1.574 . S
C1834 H1829 0.949 . S
C1834 C1840 1.368 . S
C1835 C1819 1.349 . S
C1835 H1827 0.950 . S
C1835 C1833 1.327 . S
C1836 C1824 1.349 . S
C1836 H1830 0.950 . S
C1836 C1837 1.327 . S
C1837 H1831 0.950 . S
C1837 C1836 1.327 . S
C1837 C1841 1.429 . S
C1838 C1821 1.574 . S
C1838 H1832 0.949 . S
C1838 C1842 1.368 . S
C1839 C1820 1.429 . S
C1839 C1833 1.429 . S
C1839 C1840 1.523 . S
C1840 C1821 1.368 . S
C1840 C1834 1.368 . S
C1840 C1839 1.523 . S
C1841 C1825 1.429 . S
C1841 C1837 1.429 . S
C1841 C1842 1.523 . S
C1842 C1826 1.368 . S
C1842 C1838 1.368 . S
C1842 C1841 1.523 . S
H1843 C1818 0.950 . S
H1844 C1820 0.950 . S
H1845 C1821 0.949 . S
H1846 C1823 0.950 . S
H1847 C1825 0.950 . S
C1848 C1849 1.349 . S
C1848 C1850 1.327 . S
C1848 H1873 0.950 . S
C1849 C1848 1.349 . S
C1849 C1865 1.349 . S
C1850 C1848 1.327 . S
C1850 C1869 1.429 . S
C1850 H1874 0.950 . S
C1851 C1868 1.574 . S
C1851 C1870 1.368 . S
C1851 H1875 0.949 . S
H1852 C1856 0.949 . S
C1853 C1854 1.349 . S
C1853 C1855 1.327 . S
C1853 H1876 0.950 . S
C1854 C1853 1.349 . S
C1854 C1866 1.349 . S
C1855 C1853 1.327 . S
C1855 C1871 1.429 . S
C1855 H1877 0.950 . S
C1856 H1852 0.949 . S
C1856 C1864 1.574 . S
C1856 C1872 1.368 . S
H1857 C1865 0.950 . S
H1858 C1863 0.950 . S
H1859 C1864 0.949 . S
H1860 C1866 0.950 . S
H1861 C1867 0.950 . S
H1862 C1868 0.949 . S
C1863 H1858 0.950 . S
C1863 C1865 1.327 . S
C1863 C1869 1.429 . S
C1864 C1856 1.574 . S
C1864 H1859 0.949 . S
C1864 C1870 1.368 . S
C1865 C1849 1.349 . S
C1865 H1857 0.950 . S
C1865 C1863 1.327 . S
C1866 C1854 1.349 . S
C1866 H1860 0.950 . S
C1866 C1867 1.327 . S
C1867 H1861 0.950 . S
C1867 C1866 1.327 . S
C1867 C1871 1.429 . S
C1868 C1851 1.574 . S
C1868 H1862 0.949 . S
C1868 C1872 1.368 . S
C1869 C1850 1.429 . S
C1869 C1863 1.429 . S
C1869 C1870 1.523 . S
C1870 C1851 1.368 . S
C1870 C1864 1.368 . S
C1870 C1869 1.523 . S
C1871 C1855 1.429 . S
C1871 C1867 1.429 . S
C1871 C1872 1.523 . S
C1872 C1856 1.368 . S
C1872 C1868 1.368 . S
C1872 C1871 1.523 . S
H1873 C1848 0.950 . S
H1874 C1850 0.950 . S
H1875 C1851 0.949 . S
H1876 C1853 0.950 . S
H1877 C1855 0.950 . S
C1878 C1879 1.349 . S
C1878 C1880 1.327 . S
C1878 H1903 0.950 . S
C1879 C1878 1.349 . S
C1879 C1895 1.349 . S
C1880 C1878 1.327 . S
C1880 C1899 1.429 . S
C1880 H1904 0.950 . S
C1881 C1898 1.574 . S
C1881 C1900 1.368 . S
C1881 H1905 0.949 . S
H1882 C1886 0.949 . S
C1883 C1884 1.349 . S
C1883 C1885 1.327 . S
C1883 H1906 0.950 . S
C1884 C1883 1.349 . S
C1884 C1896 1.349 . S
C1885 C1883 1.327 . S
C1885 C1901 1.429 . S
C1885 H1907 0.950 . S
C1886 H1882 0.949 . S
C1886 C1894 1.574 . S
C1886 C1902 1.368 . S
H1887 C1895 0.950 . S
H1888 C1893 0.950 . S
H1889 C1894 0.949 . S
H1890 C1896 0.950 . S
H1891 C1897 0.950 . S
H1892 C1898 0.949 . S
C1893 H1888 0.950 . S
C1893 C1895 1.327 . S
C1893 C1899 1.429 . S
C1894 C1886 1.574 . S
C1894 H1889 0.949 . S
C1894 C1900 1.368 . S
C1895 C1879 1.349 . S
C1895 H1887 0.950 . S
C1895 C1893 1.327 . S
C1896 C1884 1.349 . S
C1896 H1890 0.950 . S
C1896 C1897 1.327 . S
C1897 H1891 0.950 . S
C1897 C1896 1.327 . S
C1897 C1901 1.429 . S
C1898 C1881 1.574 . S
C1898 H1892 0.949 . S
C1898 C1902 1.368 . S
C1899 C1880 1.429 . S
C1899 C1893 1.429 . S
C1899 C1900 1.523 . S
C1900 C1881 1.368 . S
C1900 C1894 1.368 . S
C1900 C1899 1.523 . S
C1901 C1885 1.429 . S
C1901 C1897 1.429 . S
C1901 C1902 1.523 . S
C1902 C1886 1.368 . S
C1902 C1898 1.368 . S
C1902 C1901 1.523 . S
H1903 C1878 0.950 . S
H1904 C1880 0.950 . S
H1905 C1881 0.949 . S
H1906 C1883 0.950 . S
H1907 C1885 0.950 . S
C1908 C1909 1.349 . S
C1908 C1910 1.327 . S
C1908 H1933 0.950 . S
C1909 C1908 1.349 . S
C1909 C1925 1.349 . S
C1910 C1908 1.327 . S
C1910 C1929 1.429 . S
C1910 H1934 0.950 . S
C1911 C1928 1.574 . S
C1911 C1930 1.368 . S
C1911 H1935 0.949 . S
H1912 C1916 0.949 . S
C1913 C1914 1.349 . S
C1913 C1915 1.327 . S
C1913 H1936 0.950 . S
C1914 C1913 1.349 . S
C1914 C1926 1.349 . S
C1915 C1913 1.327 . S
C1915 C1931 1.429 . S
C1915 H1937 0.950 . S
C1916 H1912 0.949 . S
C1916 C1924 1.574 . S
C1916 C1932 1.368 . S
H1917 C1925 0.950 . S
H1918 C1923 0.950 . S
H1919 C1924 0.949 . S
H1920 C1926 0.950 . S
H1921 C1927 0.950 . S
H1922 C1928 0.949 . S
C1923 H1918 0.950 . S
C1923 C1925 1.327 . S
C1923 C1929 1.429 . S
C1924 C1916 1.574 . S
C1924 H1919 0.949 . S
C1924 C1930 1.368 . S
C1925 C1909 1.349 . S
C1925 H1917 0.950 . S
C1925 C1923 1.327 . S
C1926 C1914 1.349 . S
C1926 H1920 0.950 . S
C1926 C1927 1.327 . S
C1927 H1921 0.950 . S
C1927 C1926 1.327 . S
C1927 C1931 1.429 . S
C1928 C1911 1.574 . S
C1928 H1922 0.949 . S
C1928 C1932 1.368 . S
C1929 C1910 1.429 . S
C1929 C1923 1.429 . S
C1929 C1930 1.523 . S
C1930 C1911 1.368 . S
C1930 C1924 1.368 . S
C1930 C1929 1.523 . S
C1931 C1915 1.429 . S
C1931 C1927 1.429 . S
C1931 C1932 1.523 . S
C1932 C1916 1.368 . S
C1932 C1928 1.368 . S
C1932 C1931 1.523 . S
H1933 C1908 0.950 . S
H1934 C1910 0.950 . S
H1935 C1911 0.949 . S
H1936 C1913 0.950 . S
H1937 C1915 0.950 . S
C1938 C1939 1.349 . S
C1938 C1940 1.327 . S
C1938 H1963 0.950 . S
C1939 C1938 1.349 . S
C1939 C1955 1.349 . S
C1940 C1938 1.327 . S
C1940 C1959 1.429 . S
C1940 H1964 0.950 . S
C1941 C1958 1.574 . S
C1941 C1960 1.368 . S
C1941 H1965 0.949 . S
H1942 C1946 0.949 . S
C1943 C1944 1.349 . S
C1943 C1945 1.327 . S
C1943 H1966 0.950 . S
C1944 C1943 1.349 . S
C1944 C1956 1.349 . S
C1945 C1943 1.327 . S
C1945 C1961 1.429 . S
C1945 H1967 0.950 . S
C1946 H1942 0.949 . S
C1946 C1954 1.574 . S
C1946 C1962 1.368 . S
H1947 C1955 0.950 . S
H1948 C1953 0.950 . S
H1949 C1954 0.949 . S
H1950 C1956 0.950 . S
H1951 C1957 0.950 . S
H1952 C1958 0.949 . S
C1953 H1948 0.950 . S
C1953 C1955 1.327 . S
C1953 C1959 1.429 . S
C1954 C1946 1.574 . S
C1954 H1949 0.949 . S
C1954 C1960 1.368 . S
C1955 C1939 1.349 . S
C1955 H1947 0.950 . S
C1955 C1953 1.327 . S
C1956 C1944 1.349 . S
C1956 H1950 0.950 . S
C1956 C1957 1.327 . S
C1957 H1951 0.950 . S
C1957 C1956 1.327 . S
C1957 C1961 1.429 . S
C1958 C1941 1.574 . S
C1958 H1952 0.949 . S
C1958 C1962 1.368 . S
C1959 C1940 1.429 . S
C1959 C1953 1.429 . S
C1959 C1960 1.523 . S
C1960 C1941 1.368 . S
C1960 C1954 1.368 . S
C1960 C1959 1.523 . S
C1961 C1945 1.429 . S
C1961 C1957 1.429 . S
C1961 C1962 1.523 . S
C1962 C1946 1.368 . S
C1962 C1958 1.368 . S
C1962 C1961 1.523 . S
H1963 C1938 0.950 . S
H1964 C1940 0.950 . S
H1965 C1941 0.949 . S
H1966 C1943 0.950 . S
H1967 C1945 0.950 . S
C1968 C1969 1.349 . S
C1968 C1970 1.327 . S
C1968 H1993 0.950 . S
C1969 C1968 1.349 . S
C1969 C1985 1.349 . S
C1970 C1968 1.327 . S
C1970 C1989 1.429 . S
C1970 H1994 0.950 . S
C1971 C1988 1.574 . S
C1971 C1990 1.368 . S
C1971 H1995 0.949 . S
H1972 C1976 0.949 . S
C1973 C1974 1.349 . S
C1973 C1975 1.327 . S
C1973 H1996 0.950 . S
C1974 C1973 1.349 . S
C1974 C1986 1.349 . S
C1975 C1973 1.327 . S
C1975 C1991 1.429 . S
C1975 H1997 0.950 . S
C1976 H1972 0.949 . S
C1976 C1984 1.574 . S
C1976 C1992 1.368 . S
H1977 C1985 0.950 . S
H1978 C1983 0.950 . S
H1979 C1984 0.949 . S
H1980 C1986 0.950 . S
H1981 C1987 0.950 . S
H1982 C1988 0.949 . S
C1983 H1978 0.950 . S
C1983 C1985 1.327 . S
C1983 C1989 1.429 . S
C1984 C1976 1.574 . S
C1984 H1979 0.949 . S
C1984 C1990 1.368 . S
C1985 C1969 1.349 . S
C1985 H1977 0.950 . S
C1985 C1983 1.327 . S
C1986 C1974 1.349 . S
C1986 H1980 0.950 . S
C1986 C1987 1.327 . S
C1987 H1981 0.950 . S
C1987 C1986 1.327 . S
C1987 C1991 1.429 . S
C1988 C1971 1.574 . S
C1988 H1982 0.949 . S
C1988 C1992 1.368 . S
C1989 C1970 1.429 . S
C1989 C1983 1.429 . S
C1989 C1990 1.523 . S
C1990 C1971 1.368 . S
C1990 C1984 1.368 . S
C1990 C1989 1.523 . S
C1991 C1975 1.429 . S
C1991 C1987 1.429 . S
C1991 C1992 1.523 . S
C1992 C1976 1.368 . S
C1992 C1988 1.368 . S
C1992 C1991 1.523 . S
H1993 C1968 0.950 . S
H1994 C1970 0.950 . S
H1995 C1971 0.949 . S
H1996 C1973 0.950 . S
H1997 C1975 0.950 . S
C1998 C1999 1.349 . S
C1998 C2000 1.327 . S
C1998 H2023 0.950 . S
C1999 C1998 1.349 . S
C1999 C2015 1.349 . S
C2000 C1998 1.327 . S
C2000 C2019 1.429 . S
C2000 H2024 0.950 . S
C2001 C2018 1.574 . S
C2001 C2020 1.368 1_655 S
C2001 H2025 0.949 . S
H2002 C2006 0.949 . S
C2003 C2004 1.349 . S
C2003 C2005 1.327 . S
C2003 H2026 0.950 . S
C2004 C2003 1.349 . S
C2004 C2016 1.349 . S
C2005 C2003 1.327 . S
C2005 C2021 1.429 . S
C2005 H2027 0.950 . S
C2006 H2002 0.949 . S
C2006 C2014 1.574 1_655 S
C2006 C2022 1.368 . S
H2007 C2015 0.950 . S
H2008 C2013 0.950 . S
H2009 C2014 0.949 . S
H2010 C2016 0.950 . S
H2011 C2017 0.950 . S
H2012 C2018 0.949 . S
C2013 H2008 0.950 . S
C2013 C2015 1.327 . S
C2013 C2019 1.429 . S
C2014 C2006 1.574 1_455 S
C2014 H2009 0.949 . S
C2014 C2020 1.368 . S
C2015 C1999 1.349 . S
C2015 H2007 0.950 . S
C2015 C2013 1.327 . S
C2016 C2004 1.349 . S
C2016 H2010 0.950 . S
C2016 C2017 1.327 . S
C2017 H2011 0.950 . S
C2017 C2016 1.327 . S
C2017 C2021 1.429 . S
C2018 C2001 1.574 . S
C2018 H2012 0.949 . S
C2018 C2022 1.368 . S
C2019 C2000 1.429 . S
C2019 C2013 1.429 . S
C2019 C2020 1.523 . S
C2020 C2001 1.368 1_455 S
C2020 C2014 1.368 . S
C2020 C2019 1.523 . S
C2021 C2005 1.429 . S
C2021 C2017 1.429 . S
C2021 C2022 1.523 . S
C2022 C2006 1.368 . S
C2022 C2018 1.368 . S
C2022 C2021 1.523 . S
H2023 C1998 0.950 . S
H2024 C2000 0.950 . S
H2025 C2001 0.949 . S
H2026 C2003 0.950 . S
H2027 C2005 0.950 . S
C2028 C2029 1.349 . S
C2028 C2030 1.327 . S
C2028 H2053 0.950 . S
C2029 C2028 1.349 . S
C2029 C2045 1.349 . S
C2030 C2028 1.327 . S
C2030 C2049 1.429 . S
C2030 H2054 0.950 . S
C2031 C2048 1.574 . S
C2031 C2050 1.368 . S
C2031 H2055 0.949 . S
H2032 C2036 0.949 . S
C2033 C2034 1.349 . S
C2033 C2035 1.327 . S
C2033 H2056 0.950 . S
C2034 C2033 1.349 . S
C2034 C2046 1.349 . S
C2035 C2033 1.327 . S
C2035 C2051 1.429 . S
C2035 H2057 0.950 . S
C2036 H2032 0.949 . S
C2036 C2044 1.574 . S
C2036 C2052 1.368 . S
H2037 C2045 0.950 . S
H2038 C2043 0.950 . S
H2039 C2044 0.949 . S
H2040 C2046 0.950 . S
H2041 C2047 0.950 . S
H2042 C2048 0.949 . S
C2043 H2038 0.950 . S
C2043 C2045 1.327 . S
C2043 C2049 1.429 . S
C2044 C2036 1.574 . S
C2044 H2039 0.949 . S
C2044 C2050 1.368 . S
C2045 C2029 1.349 . S
C2045 H2037 0.950 . S
C2045 C2043 1.327 . S
C2046 C2034 1.349 . S
C2046 H2040 0.950 . S
C2046 C2047 1.327 . S
C2047 H2041 0.950 . S
C2047 C2046 1.327 . S
C2047 C2051 1.429 . S
C2048 C2031 1.574 . S
C2048 H2042 0.949 . S
C2048 C2052 1.368 . S
C2049 C2030 1.429 . S
C2049 C2043 1.429 . S
C2049 C2050 1.523 . S
C2050 C2031 1.368 . S
C2050 C2044 1.368 . S
C2050 C2049 1.523 . S
C2051 C2035 1.429 . S
C2051 C2047 1.429 . S
C2051 C2052 1.523 . S
C2052 C2036 1.368 . S
C2052 C2048 1.368 . S
C2052 C2051 1.523 . S
H2053 C2028 0.950 . S
H2054 C2030 0.950 . S
H2055 C2031 0.949 . S
H2056 C2033 0.950 . S
H2057 C2035 0.950 . S
C2058 C2059 1.349 . S
C2058 C2060 1.327 . S
C2058 H2083 0.950 . S
C2059 C2058 1.349 . S
C2059 C2075 1.349 . S
C2060 C2058 1.327 . S
C2060 C2079 1.429 . S
C2060 H2084 0.950 . S
C2061 C2078 1.574 1_655 S
C2061 C2080 1.368 . S
C2061 H2085 0.949 . S
H2062 C2066 0.949 . S
C2063 C2064 1.349 . S
C2063 C2065 1.327 . S
C2063 H2086 0.950 . S
C2064 C2063 1.349 . S
C2064 C2076 1.349 . S
C2065 C2063 1.327 . S
C2065 C2081 1.429 . S
C2065 H2087 0.950 . S
C2066 H2062 0.949 . S
C2066 C2074 1.574 . S
C2066 C2082 1.368 . S
H2067 C2075 0.950 . S
H2068 C2073 0.950 . S
H2069 C2074 0.949 . S
H2070 C2076 0.950 . S
H2071 C2077 0.950 . S
H2072 C2078 0.949 . S
C2073 H2068 0.950 . S
C2073 C2075 1.327 . S
C2073 C2079 1.429 . S
C2074 C2066 1.574 . S
C2074 H2069 0.949 . S
C2074 C2080 1.368 1_455 S
C2075 C2059 1.349 . S
C2075 H2067 0.950 . S
C2075 C2073 1.327 . S
C2076 C2064 1.349 . S
C2076 H2070 0.950 . S
C2076 C2077 1.327 . S
C2077 H2071 0.950 . S
C2077 C2076 1.327 . S
C2077 C2081 1.429 . S
C2078 C2061 1.574 1_455 S
C2078 H2072 0.949 . S
C2078 C2082 1.368 . S
C2079 C2060 1.429 . S
C2079 C2073 1.429 . S
C2079 C2080 1.523 . S
C2080 C2061 1.368 . S
C2080 C2074 1.368 1_655 S
C2080 C2079 1.523 . S
C2081 C2065 1.429 . S
C2081 C2077 1.429 . S
C2081 C2082 1.523 . S
C2082 C2066 1.368 . S
C2082 C2078 1.368 . S
C2082 C2081 1.523 . S
H2083 C2058 0.950 . S
H2084 C2060 0.950 . S
H2085 C2061 0.949 . S
H2086 C2063 0.950 . S
H2087 C2065 0.950 . S
C2088 C2089 1.349 . S
C2088 C2090 1.327 . S
C2088 H2113 0.950 . S
C2089 C2088 1.349 . S
C2089 C2105 1.349 . S
C2090 C2088 1.327 . S
C2090 C2109 1.429 . S
C2090 H2114 0.950 . S
C2091 C2108 1.574 . S
C2091 C2110 1.368 . S
C2091 H2115 0.949 . S
H2092 C2096 0.949 . S
C2093 C2094 1.349 . S
C2093 C2095 1.327 . S
C2093 H2116 0.950 . S
C2094 C2093 1.349 . S
C2094 C2106 1.349 . S
C2095 C2093 1.327 . S
C2095 C2111 1.429 . S
C2095 H2117 0.950 . S
C2096 H2092 0.949 . S
C2096 C2104 1.574 . S
C2096 C2112 1.368 . S
H2097 C2105 0.950 . S
H2098 C2103 0.950 . S
H2099 C2104 0.949 . S
H2100 C2106 0.950 . S
H2101 C2107 0.950 . S
H2102 C2108 0.949 . S
C2103 H2098 0.950 . S
C2103 C2105 1.327 . S
C2103 C2109 1.429 . S
C2104 C2096 1.574 . S
C2104 H2099 0.949 . S
C2104 C2110 1.368 . S
C2105 C2089 1.349 . S
C2105 H2097 0.950 . S
C2105 C2103 1.327 . S
C2106 C2094 1.349 . S
C2106 H2100 0.950 . S
C2106 C2107 1.327 . S
C2107 H2101 0.950 . S
C2107 C2106 1.327 . S
C2107 C2111 1.429 . S
C2108 C2091 1.574 . S
C2108 H2102 0.949 . S
C2108 C2112 1.368 . S
C2109 C2090 1.429 . S
C2109 C2103 1.429 . S
C2109 C2110 1.523 . S
C2110 C2091 1.368 . S
C2110 C2104 1.368 . S
C2110 C2109 1.523 . S
C2111 C2095 1.429 . S
C2111 C2107 1.429 . S
C2111 C2112 1.523 . S
C2112 C2096 1.368 . S
C2112 C2108 1.368 . S
C2112 C2111 1.523 . S
H2113 C2088 0.950 . S
H2114 C2090 0.950 . S
H2115 C2091 0.949 . S
H2116 C2093 0.950 . S
H2117 C2095 0.950 . S
C2118 C2119 1.349 . S
C2118 C2120 1.327 . S
C2118 H2143 0.950 . S
C2119 C2118 1.349 . S
C2119 C2135 1.349 . S
C2120 C2118 1.327 . S
C2120 C2139 1.429 . S
C2120 H2144 0.950 . S
C2121 C2138 1.574 . S
C2121 C2140 1.368 . S
C2121 H2145 0.949 . S
H2122 C2126 0.949 . S
C2123 C2124 1.349 . S
C2123 C2125 1.327 . S
C2123 H2146 0.950 1_655 S
C2124 C2123 1.349 . S
C2124 C2136 1.349 . S
C2125 C2123 1.327 . S
C2125 C2141 1.429 . S
C2125 H2147 0.950 . S
C2126 H2122 0.949 . S
C2126 C2134 1.574 . S
C2126 C2142 1.368 . S
H2127 C2135 0.950 . S
H2128 C2133 0.950 . S
H2129 C2134 0.949 . S
H2130 C2136 0.950 . S
H2131 C2137 0.950 . S
H2132 C2138 0.949 . S
C2133 H2128 0.950 . S
C2133 C2135 1.327 . S
C2133 C2139 1.429 . S
C2134 C2126 1.574 . S
C2134 H2129 0.949 . S
C2134 C2140 1.368 . S
C2135 C2119 1.349 . S
C2135 H2127 0.950 . S
C2135 C2133 1.327 . S
C2136 C2124 1.349 . S
C2136 H2130 0.950 . S
C2136 C2137 1.327 . S
C2137 H2131 0.950 . S
C2137 C2136 1.327 . S
C2137 C2141 1.429 . S
C2138 C2121 1.574 . S
C2138 H2132 0.949 . S
C2138 C2142 1.368 . S
C2139 C2120 1.429 . S
C2139 C2133 1.429 . S
C2139 C2140 1.523 1_554 S
C2140 C2121 1.368 . S
C2140 C2134 1.368 . S
C2140 C2139 1.523 1_556 S
C2141 C2125 1.429 . S
C2141 C2137 1.429 . S
C2141 C2142 1.523 . S
C2142 C2126 1.368 . S
C2142 C2138 1.368 . S
C2142 C2141 1.523 . S
H2143 C2118 0.950 . S
H2144 C2120 0.950 . S
H2145 C2121 0.949 . S
H2146 C2123 0.950 1_455 S
H2147 C2125 0.950 . S
C2148 C2149 1.349 . S
C2148 C2150 1.327 . S
C2148 H2173 0.950 . S
C2149 C2148 1.349 . S
C2149 C2165 1.349 . S
C2150 C2148 1.327 . S
C2150 C2169 1.429 . S
C2150 H2174 0.950 . S
C2151 C2168 1.574 . S
C2151 C2170 1.368 . S
C2151 H2175 0.949 . S
H2152 C2156 0.949 . S
C2153 C2154 1.349 . S
C2153 C2155 1.327 . S
C2153 H2176 0.950 . S
C2154 C2153 1.349 . S
C2154 C2166 1.349 . S
C2155 C2153 1.327 . S
C2155 C2171 1.429 . S
C2155 H2177 0.950 . S
C2156 H2152 0.949 . S
C2156 C2164 1.574 . S
C2156 C2172 1.368 . S
H2157 C2165 0.950 . S
H2158 C2163 0.950 . S
H2159 C2164 0.949 . S
H2160 C2166 0.950 . S
H2161 C2167 0.950 . S
H2162 C2168 0.949 . S
C2163 H2158 0.950 . S
C2163 C2165 1.327 . S
C2163 C2169 1.429 . S
C2164 C2156 1.574 . S
C2164 H2159 0.949 . S
C2164 C2170 1.368 . S
C2165 C2149 1.349 . S
C2165 H2157 0.950 . S
C2165 C2163 1.327 . S
C2166 C2154 1.349 . S
C2166 H2160 0.950 . S
C2166 C2167 1.327 . S
C2167 H2161 0.950 . S
C2167 C2166 1.327 . S
C2167 C2171 1.429 . S
C2168 C2151 1.574 . S
C2168 H2162 0.949 . S
C2168 C2172 1.368 . S
C2169 C2150 1.429 . S
C2169 C2163 1.429 . S
C2169 C2170 1.523 . S
C2170 C2151 1.368 . S
C2170 C2164 1.368 . S
C2170 C2169 1.523 . S
C2171 C2155 1.429 . S
C2171 C2167 1.429 . S
C2171 C2172 1.523 . S
C2172 C2156 1.368 . S
C2172 C2168 1.368 . S
C2172 C2171 1.523 . S
H2173 C2148 0.950 . S
H2174 C2150 0.950 . S
H2175 C2151 0.949 . S
H2176 C2153 0.950 . S
H2177 C2155 0.950 . S
C2178 C2179 1.349 . S
C2178 C2180 1.327 . S
C2178 H2203 0.950 . S
C2179 C2178 1.349 . S
C2179 C2195 1.349 . S
C2180 C2178 1.327 . S
C2180 C2199 1.429 . S
C2180 H2204 0.950 . S
C2181 C2198 1.574 1_554 S
C2181 C2200 1.368 . S
C2181 H2205 0.949 . S
H2182 C2186 0.949 . S
C2183 C2184 1.349 . S
C2183 C2185 1.327 . S
C2183 H2206 0.950 . S
C2184 C2183 1.349 . S
C2184 C2196 1.349 . S
C2185 C2183 1.327 . S
C2185 C2201 1.429 . S
C2185 H2207 0.950 . S
C2186 H2182 0.949 . S
C2186 C2194 1.574 1_556 S
C2186 C2202 1.368 . S
H2187 C2195 0.950 . S
H2188 C2193 0.950 . S
H2189 C2194 0.949 . S
H2190 C2196 0.950 . S
H2191 C2197 0.950 . S
H2192 C2198 0.949 . S
C2193 H2188 0.950 . S
C2193 C2195 1.327 . S
C2193 C2199 1.429 . S
C2194 C2186 1.574 1_554 S
C2194 H2189 0.949 . S
C2194 C2200 1.368 . S
C2195 C2179 1.349 . S
C2195 H2187 0.950 . S
C2195 C2193 1.327 . S
C2196 C2184 1.349 . S
C2196 H2190 0.950 . S
C2196 C2197 1.327 . S
C2197 H2191 0.950 . S
C2197 C2196 1.327 . S
C2197 C2201 1.429 . S
C2198 C2181 1.574 1_556 S
C2198 H2192 0.949 . S
C2198 C2202 1.368 . S
C2199 C2180 1.429 . S
C2199 C2193 1.429 . S
C2199 C2200 1.523 . S
C2200 C2181 1.368 . S
C2200 C2194 1.368 . S
C2200 C2199 1.523 . S
C2201 C2185 1.429 . S
C2201 C2197 1.429 . S
C2201 C2202 1.523 . S
C2202 C2186 1.368 . S
C2202 C2198 1.368 . S
C2202 C2201 1.523 . S
H2203 C2178 0.950 . S
H2204 C2180 0.950 . S
H2205 C2181 0.949 . S
H2206 C2183 0.950 . S
H2207 C2185 0.950 . S
C2208 C2209 1.349 . S
C2208 C2210 1.327 . S
C2208 H2233 0.950 . S
C2209 C2208 1.349 . S
C2209 C2225 1.349 . S
C2210 C2208 1.327 . S
C2210 C2229 1.429 . S
C2210 H2234 0.950 . S
C2211 C2228 1.574 . S
C2211 C2230 1.368 . S
C2211 H2235 0.949 . S
H2212 C2216 0.949 . S
C2213 C2214 1.349 . S
C2213 C2215 1.327 . S
C2213 H2236 0.950 . S
C2214 C2213 1.349 . S
C2214 C2226 1.349 . S
C2215 C2213 1.327 . S
C2215 C2231 1.429 . S
C2215 H2237 0.950 . S
C2216 H2212 0.949 . S
C2216 C2224 1.574 . S
C2216 C2232 1.368 . S
H2217 C2225 0.950 . S
H2218 C2223 0.950 . S
H2219 C2224 0.949 . S
H2220 C2226 0.950 . S
H2221 C2227 0.950 . S
H2222 C2228 0.949 . S
C2223 H2218 0.950 . S
C2223 C2225 1.327 . S
C2223 C2229 1.429 . S
C2224 C2216 1.574 . S
C2224 H2219 0.949 . S
C2224 C2230 1.368 . S
C2225 C2209 1.349 . S
C2225 H2217 0.950 . S
C2225 C2223 1.327 . S
C2226 C2214 1.349 . S
C2226 H2220 0.950 . S
C2226 C2227 1.327 . S
C2227 H2221 0.950 . S
C2227 C2226 1.327 . S
C2227 C2231 1.429 . S
C2228 C2211 1.574 . S
C2228 H2222 0.949 . S
C2228 C2232 1.368 . S
C2229 C2210 1.429 . S
C2229 C2223 1.429 . S
C2229 C2230 1.523 . S
C2230 C2211 1.368 . S
C2230 C2224 1.368 . S
C2230 C2229 1.523 . S
C2231 C2215 1.429 . S
C2231 C2227 1.429 . S
C2231 C2232 1.523 . S
C2232 C2216 1.368 . S
C2232 C2228 1.368 . S
C2232 C2231 1.523 . S
H2233 C2208 0.950 . S
H2234 C2210 0.950 . S
H2235 C2211 0.949 . S
H2236 C2213 0.950 . S
H2237 C2215 0.950 . S
C2238 C2239 1.349 . S
C2238 C2240 1.327 . S
C2238 H2263 0.950 . S
C2239 C2238 1.349 . S
C2239 C2255 1.349 . S
C2240 C2238 1.327 . S
C2240 C2259 1.429 . S
C2240 H2264 0.950 . S
C2241 C2258 1.574 . S
C2241 C2260 1.368 . S
C2241 H2265 0.949 . S
H2242 C2246 0.949 . S
C2243 C2244 1.349 . S
C2243 C2245 1.327 . S
C2243 H2266 0.950 . S
C2244 C2243 1.349 . S
C2244 C2256 1.349 . S
C2245 C2243 1.327 . S
C2245 C2261 1.429 . S
C2245 H2267 0.950 . S
C2246 H2242 0.949 . S
C2246 C2254 1.574 . S
C2246 C2262 1.368 . S
H2247 C2255 0.950 . S
H2248 C2253 0.911 1_554 S
H2249 C2254 0.949 1_556 S
H2250 C2256 0.950 . S
H2251 C2257 0.950 . S
H2252 C2258 0.949 . S
C2253 H2248 0.911 1_556 S
C2253 C2255 1.327 . S
C2253 C2259 1.429 . S
C2254 C2246 1.574 . S
C2254 H2249 0.949 1_554 S
C2254 C2260 1.368 . S
C2255 C2239 1.349 . S
C2255 H2247 0.950 . S
C2255 C2253 1.327 . S
C2256 C2244 1.349 . S
C2256 H2250 0.950 . S
C2256 C2257 1.327 . S
C2257 H2251 0.950 . S
C2257 C2256 1.327 . S
C2257 C2261 1.429 . S
C2258 C2241 1.574 . S
C2258 H2252 0.949 . S
C2258 C2262 1.368 . S
C2259 C2240 1.429 . S
C2259 C2253 1.429 . S
C2259 C2260 1.523 1_556 S
C2260 C2241 1.368 . S
C2260 C2254 1.368 . S
C2260 C2259 1.523 1_554 S
C2261 C2245 1.429 . S
C2261 C2257 1.429 . S
C2261 C2262 1.523 . S
C2262 C2246 1.368 . S
C2262 C2258 1.368 . S
C2262 C2261 1.523 . S
H2263 C2238 0.950 . S
H2264 C2240 0.950 . S
H2265 C2241 0.949 . S
H2266 C2243 0.950 . S
H2267 C2245 0.950 . S
C2268 C2269 1.349 . S
C2268 C2270 1.327 . S
C2268 H2293 0.950 . S
C2269 C2268 1.349 . S
C2269 C2285 1.349 . S
C2270 C2268 1.327 . S
C2270 C2289 1.429 . S
C2270 H2294 0.950 . S
C2271 C2288 1.574 . S
C2271 C2290 1.368 . S
C2271 H2295 0.949 . S
H2272 C2276 0.949 . S
C2273 C2274 1.349 . S
C2273 C2275 1.327 . S
C2273 H2296 0.950 . S
C2274 C2273 1.349 . S
C2274 C2286 1.349 . S
C2275 C2273 1.327 . S
C2275 C2291 1.429 . S
C2275 H2297 0.950 . S
C2276 H2272 0.949 . S
C2276 C2284 1.574 . S
C2276 C2292 1.368 . S
H2277 C2285 0.950 . S
H2278 C2283 0.950 . S
H2279 C2284 0.949 . S
H2280 C2286 0.950 . S
H2281 C2287 0.950 . S
H2282 C2288 0.949 . S
C2283 H2278 0.950 . S
C2283 C2285 1.327 . S
C2283 C2289 1.429 . S
C2284 C2276 1.574 . S
C2284 H2279 0.949 . S
C2284 C2290 1.368 . S
C2285 C2269 1.349 . S
C2285 H2277 0.950 . S
C2285 C2283 1.327 . S
C2286 C2274 1.349 . S
C2286 H2280 0.950 . S
C2286 C2287 1.327 . S
C2287 H2281 0.950 . S
C2287 C2286 1.327 . S
C2287 C2291 1.429 . S
C2288 C2271 1.574 . S
C2288 H2282 0.949 . S
C2288 C2292 1.368 . S
C2289 C2270 1.429 . S
C2289 C2283 1.429 . S
C2289 C2290 1.523 . S
C2290 C2271 1.368 . S
C2290 C2284 1.368 . S
C2290 C2289 1.523 . S
C2291 C2275 1.429 . S
C2291 C2287 1.429 . S
C2291 C2292 1.523 . S
C2292 C2276 1.368 . S
C2292 C2288 1.368 . S
C2292 C2291 1.523 . S
H2293 C2268 0.950 . S
H2294 C2270 0.950 . S
H2295 C2271 0.949 . S
H2296 C2273 0.950 . S
H2297 C2275 0.950 . S
C2298 C2299 1.349 1_554 S
C2298 C2300 1.327 . S
C2298 H2323 0.950 . S
C2299 C2298 1.349 1_556 S
C2299 C2315 1.349 . S
C2300 C2298 1.327 . S
C2300 C2319 1.429 . S
C2300 H2324 0.950 . S
C2301 C2318 1.574 . S
C2301 C2320 1.368 . S
C2301 H2325 0.949 . S
H2302 C2306 0.949 . S
C2303 C2304 1.349 . S
C2303 C2305 1.327 . S
C2303 H2326 0.950 . S
C2304 C2303 1.349 . S
C2304 C2316 1.349 . S
C2305 C2303 1.327 . S
C2305 C2321 1.429 . S
C2305 H2327 0.950 . S
C2306 H2302 0.949 . S
C2306 C2314 1.574 . S
C2306 C2322 1.368 . S
H2307 C2315 0.950 . S
H2308 C2313 0.950 . S
H2309 C2314 0.949 . S
H2310 C2316 0.950 . S
H2311 C2317 0.950 . S
H2312 C2318 0.949 . S
C2313 H2308 0.950 . S
C2313 C2315 1.327 . S
C2313 C2319 1.429 1_556 S
C2314 C2306 1.574 . S
C2314 H2309 0.949 . S
C2314 C2320 1.368 . S
C2315 C2299 1.349 . S
C2315 H2307 0.950 . S
C2315 C2313 1.327 . S
C2316 C2304 1.349 . S
C2316 H2310 0.950 . S
C2316 C2317 1.327 . S
C2317 H2311 0.950 . S
C2317 C2316 1.327 . S
C2317 C2321 1.429 . S
C2318 C2301 1.574 . S
C2318 H2312 0.949 . S
C2318 C2322 1.368 . S
C2319 C2300 1.429 . S
C2319 C2313 1.429 1_554 S
C2319 C2320 1.523 . S
C2320 C2301 1.368 . S
C2320 C2314 1.368 . S
C2320 C2319 1.523 . S
C2321 C2305 1.429 . S
C2321 C2317 1.429 . S
C2321 C2322 1.523 . S
C2322 C2306 1.368 . S
C2322 C2318 1.368 . S
C2322 C2321 1.523 . S
H2323 C2298 0.950 . S
H2324 C2300 0.950 . S
H2325 C2301 0.949 . S
H2326 C2303 0.950 . S
H2327 C2305 0.950 . S
C2328 C2329 1.349 . S
C2328 C2330 1.327 . S
C2328 H2353 0.950 . S
C2329 C2328 1.349 . S
C2329 C2345 1.349 . S
C2330 C2328 1.327 . S
C2330 C2349 1.429 . S
C2330 H2354 0.950 . S
C2331 C2348 1.574 . S
C2331 C2350 1.368 . S
C2331 H2355 0.949 . S
H2332 C2336 0.949 . S
C2333 C2334 1.349 . S
C2333 C2335 1.327 . S
C2333 H2356 0.950 . S
C2334 C2333 1.349 . S
C2334 C2346 1.349 . S
C2335 C2333 1.327 . S
C2335 C2351 1.429 . S
C2335 H2357 0.950 . S
C2336 H2332 0.949 . S
C2336 C2344 1.574 . S
C2336 C2352 1.368 . S
H2337 C2345 0.950 . S
H2338 C2343 0.950 . S
H2339 C2344 0.949 . S
H2340 C2346 0.950 . S
H2341 C2347 0.950 . S
H2342 C2348 0.949 . S
C2343 H2338 0.950 . S
C2343 C2345 1.327 . S
C2343 C2349 1.429 . S
C2344 C2336 1.574 . S
C2344 H2339 0.949 . S
C2344 C2350 1.368 . S
C2345 C2329 1.349 . S
C2345 H2337 0.950 . S
C2345 C2343 1.327 . S
C2346 C2334 1.349 . S
C2346 H2340 0.950 . S
C2346 C2347 1.327 . S
C2347 H2341 0.950 . S
C2347 C2346 1.327 . S
C2347 C2351 1.429 . S
C2348 C2331 1.574 . S
C2348 H2342 0.949 . S
C2348 C2352 1.368 . S
C2349 C2330 1.429 . S
C2349 C2343 1.429 . S
C2349 C2350 1.523 . S
C2350 C2331 1.368 . S
C2350 C2344 1.368 . S
C2350 C2349 1.523 . S
C2351 C2335 1.429 . S
C2351 C2347 1.429 . S
C2351 C2352 1.523 . S
C2352 C2336 1.368 . S
C2352 C2348 1.368 . S
C2352 C2351 1.523 . S
H2353 C2328 0.950 . S
H2354 C2330 0.950 . S
H2355 C2331 0.949 . S
H2356 C2333 0.950 . S
H2357 C2335 0.950 . S
C2358 C2359 1.349 . S
C2358 C2360 1.327 . S
C2358 H2383 0.950 . S
C2359 C2358 1.349 . S
C2359 C2375 1.349 . S
C2360 C2358 1.327 . S
C2360 C2379 1.429 . S
C2360 H2384 0.950 . S
C2361 C2378 1.574 . S
C2361 C2380 1.368 . S
C2361 H2385 0.949 . S
H2362 C2366 0.949 . S
C2363 C2364 1.349 . S
C2363 C2365 1.327 . S
C2363 H2386 0.950 . S
C2364 C2363 1.349 . S
C2364 C2376 1.349 . S
C2365 C2363 1.327 . S
C2365 C2381 1.429 . S
C2365 H2387 0.950 . S
C2366 H2362 0.949 . S
C2366 C2374 1.574 . S
C2366 C2382 1.368 . S
H2367 C2375 0.950 . S
H2368 C2373 0.950 . S
H2369 C2374 0.949 . S
H2370 C2376 0.950 . S
H2371 C2377 0.950 . S
H2372 C2378 0.949 . S
C2373 H2368 0.950 . S
C2373 C2375 1.327 . S
C2373 C2379 1.429 . S
C2374 C2366 1.574 . S
C2374 H2369 0.949 . S
C2374 C2380 1.368 . S
C2375 C2359 1.349 . S
C2375 H2367 0.950 . S
C2375 C2373 1.327 . S
C2376 C2364 1.349 . S
C2376 H2370 0.950 . S
C2376 C2377 1.327 . S
C2377 H2371 0.950 . S
C2377 C2376 1.327 . S
C2377 C2381 1.429 . S
C2378 C2361 1.574 . S
C2378 H2372 0.949 . S
C2378 C2382 1.368 . S
C2379 C2360 1.429 . S
C2379 C2373 1.429 . S
C2379 C2380 1.523 . S
C2380 C2361 1.368 . S
C2380 C2374 1.368 . S
C2380 C2379 1.523 . S
C2381 C2365 1.429 . S
C2381 C2377 1.429 . S
C2381 C2382 1.523 . S
C2382 C2366 1.368 . S
C2382 C2378 1.368 . S
C2382 C2381 1.523 . S
H2383 C2358 0.950 . S
H2384 C2360 0.950 . S
H2385 C2361 0.949 . S
H2386 C2363 0.950 . S
H2387 C2365 0.950 . S
C2388 C2389 1.349 . S
C2388 C2390 1.327 . S
C2388 H2413 0.950 . S
C2389 C2388 1.349 . S
C2389 C2405 1.349 . S
C2390 C2388 1.327 . S
C2390 C2409 1.429 . S
C2390 H2414 0.950 . S
C2391 C2408 1.574 . S
C2391 C2410 1.368 . S
C2391 H2415 0.949 . S
H2392 C2396 0.949 . S
C2393 C2394 1.349 . S
C2393 C2395 1.327 . S
C2393 H2416 0.950 . S
C2394 C2393 1.349 . S
C2394 C2406 1.349 . S
C2395 C2393 1.327 . S
C2395 C2411 1.429 . S
C2395 H2417 0.950 . S
C2396 H2392 0.949 . S
C2396 C2404 1.574 . S
C2396 C2412 1.368 . S
H2397 C2405 0.950 . S
H2398 C2403 0.950 . S
H2399 C2404 0.949 . S
H2400 C2406 0.950 . S
H2401 C2407 0.950 . S
H2402 C2408 0.949 . S
C2403 H2398 0.950 . S
C2403 C2405 1.327 . S
C2403 C2409 1.429 . S
C2404 C2396 1.574 . S
C2404 H2399 0.949 . S
C2404 C2410 1.368 . S
C2405 C2389 1.349 . S
C2405 H2397 0.950 . S
C2405 C2403 1.327 . S
C2406 C2394 1.349 . S
C2406 H2400 0.950 . S
C2406 C2407 1.327 . S
C2407 H2401 0.950 . S
C2407 C2406 1.327 . S
C2407 C2411 1.429 . S
C2408 C2391 1.574 . S
C2408 H2402 0.949 . S
C2408 C2412 1.368 . S
C2409 C2390 1.429 . S
C2409 C2403 1.429 . S
C2409 C2410 1.523 . S
C2410 C2391 1.368 . S
C2410 C2404 1.368 . S
C2410 C2409 1.523 . S
C2411 C2395 1.429 . S
C2411 C2407 1.429 . S
C2411 C2412 1.523 . S
C2412 C2396 1.368 . S
C2412 C2408 1.368 . S
C2412 C2411 1.523 . S
H2413 C2388 0.950 . S
H2414 C2390 0.950 . S
H2415 C2391 0.949 . S
H2416 C2393 0.950 . S
H2417 C2395 0.950 . S
C2418 C2419 1.349 . S
C2418 C2420 1.327 . S
C2418 H2443 0.950 . S
C2419 C2418 1.349 . S
C2419 C2435 1.349 . S
C2420 C2418 1.327 . S
C2420 C2439 1.429 . S
C2420 H2444 0.950 . S
C2421 C2438 1.574 . S
C2421 C2440 1.368 . S
C2421 H2445 0.949 . S
H2422 C2426 0.949 . S
C2423 C2424 1.349 . S
C2423 C2425 1.327 . S
C2423 H2446 0.950 . S
C2424 C2423 1.349 . S
C2424 C2436 1.349 . S
C2425 C2423 1.327 . S
C2425 C2441 1.429 . S
C2425 H2447 0.950 . S
C2426 H2422 0.949 . S
C2426 C2434 1.574 . S
C2426 C2442 1.368 . S
H2427 C2435 0.950 . S
H2428 C2433 0.950 . S
H2429 C2434 0.949 . S
H2430 C2436 0.950 . S
H2431 C2437 0.950 . S
H2432 C2438 0.949 . S
C2433 H2428 0.950 . S
C2433 C2435 1.327 . S
C2433 C2439 1.429 . S
C2434 C2426 1.574 . S
C2434 H2429 0.949 . S
C2434 C2440 1.368 . S
C2435 C2419 1.349 . S
C2435 H2427 0.950 . S
C2435 C2433 1.327 . S
C2436 C2424 1.349 . S
C2436 H2430 0.950 . S
C2436 C2437 1.327 . S
C2437 H2431 0.950 . S
C2437 C2436 1.327 . S
C2437 C2441 1.429 . S
C2438 C2421 1.574 . S
C2438 H2432 0.949 . S
C2438 C2442 1.368 . S
C2439 C2420 1.429 . S
C2439 C2433 1.429 . S
C2439 C2440 1.523 . S
C2440 C2421 1.368 . S
C2440 C2434 1.368 . S
C2440 C2439 1.523 . S
C2441 C2425 1.429 . S
C2441 C2437 1.429 . S
C2441 C2442 1.523 . S
C2442 C2426 1.368 . S
C2442 C2438 1.368 . S
C2442 C2441 1.523 . S
H2443 C2418 0.950 . S
H2444 C2420 0.950 . S
H2445 C2421 0.949 . S
H2446 C2423 0.950 . S
H2447 C2425 0.950 . S
C2448 C2449 1.349 . S
C2448 C2450 1.327 . S
C2448 H2473 0.950 . S
C2449 C2448 1.349 . S
C2449 C2465 1.349 . S
C2450 C2448 1.327 . S
C2450 C2469 1.429 . S
C2450 H2474 0.950 . S
C2451 C2468 1.574 . S
C2451 C2470 1.368 . S
C2451 H2475 0.949 . S
H2452 C2456 0.949 . S
C2453 C2454 1.349 . S
C2453 C2455 1.327 . S
C2453 H2476 0.950 . S
C2454 C2453 1.349 . S
C2454 C2466 1.349 . S
C2455 C2453 1.327 . S
C2455 C2471 1.429 . S
C2455 H2477 0.950 . S
C2456 H2452 0.949 . S
C2456 C2464 1.574 . S
C2456 C2472 1.368 . S
H2457 C2465 0.950 . S
H2458 C2463 0.950 . S
H2459 C2464 0.949 . S
H2460 C2466 0.950 . S
H2461 C2467 0.950 . S
H2462 C2468 0.949 . S
C2463 H2458 0.950 . S
C2463 C2465 1.327 . S
C2463 C2469 1.429 . S
C2464 C2456 1.574 . S
C2464 H2459 0.949 . S
C2464 C2470 1.368 . S
C2465 C2449 1.349 . S
C2465 H2457 0.950 . S
C2465 C2463 1.327 . S
C2466 C2454 1.349 . S
C2466 H2460 0.950 . S
C2466 C2467 1.327 . S
C2467 H2461 0.950 . S
C2467 C2466 1.327 . S
C2467 C2471 1.429 . S
C2468 C2451 1.574 . S
C2468 H2462 0.949 . S
C2468 C2472 1.368 . S
C2469 C2450 1.429 . S
C2469 C2463 1.429 . S
C2469 C2470 1.523 . S
C2470 C2451 1.368 . S
C2470 C2464 1.368 . S
C2470 C2469 1.523 . S
C2471 C2455 1.429 . S
C2471 C2467 1.429 . S
C2471 C2472 1.523 . S
C2472 C2456 1.368 . S
C2472 C2468 1.368 . S
C2472 C2471 1.523 . S
H2473 C2448 0.950 . S
H2474 C2450 0.950 . S
H2475 C2451 0.949 . S
H2476 C2453 0.950 . S
H2477 C2455 0.950 . S
C2478 C2479 1.349 . S
C2478 C2480 1.327 . S
C2478 H2503 0.950 . S
C2479 C2478 1.349 . S
C2479 C2495 1.349 . S
C2480 C2478 1.327 . S
C2480 C2499 1.429 . S
C2480 H2504 0.950 . S
C2481 C2498 1.574 . S
C2481 C2500 1.368 . S
C2481 H2505 0.949 . S
H2482 C2486 0.949 . S
C2483 C2484 1.349 . S
C2483 C2485 1.327 . S
C2483 H2506 0.950 . S
C2484 C2483 1.349 . S
C2484 C2496 1.349 . S
C2485 C2483 1.327 . S
C2485 C2501 1.429 . S
C2485 H2507 0.950 . S
C2486 H2482 0.949 . S
C2486 C2494 1.574 . S
C2486 C2502 1.368 . S
H2487 C2495 0.950 . S
H2488 C2493 0.950 . S
H2489 C2494 0.949 . S
H2490 C2496 0.950 . S
H2491 C2497 0.950 . S
H2492 C2498 0.949 . S
C2493 H2488 0.950 . S
C2493 C2495 1.327 . S
C2493 C2499 1.429 . S
C2494 C2486 1.574 . S
C2494 H2489 0.949 . S
C2494 C2500 1.368 . S
C2495 C2479 1.349 . S
C2495 H2487 0.950 . S
C2495 C2493 1.327 . S
C2496 C2484 1.349 . S
C2496 H2490 0.950 . S
C2496 C2497 1.327 . S
C2497 H2491 0.950 . S
C2497 C2496 1.327 . S
C2497 C2501 1.429 . S
C2498 C2481 1.574 . S
C2498 H2492 0.949 . S
C2498 C2502 1.368 . S
C2499 C2480 1.429 . S
C2499 C2493 1.429 . S
C2499 C2500 1.523 . S
C2500 C2481 1.368 . S
C2500 C2494 1.368 . S
C2500 C2499 1.523 . S
C2501 C2485 1.429 . S
C2501 C2497 1.429 . S
C2501 C2502 1.523 . S
C2502 C2486 1.368 . S
C2502 C2498 1.368 . S
C2502 C2501 1.523 . S
H2503 C2478 0.950 . S
H2504 C2480 0.950 . S
H2505 C2481 0.949 . S
H2506 C2483 0.950 . S
H2507 C2485 0.950 . S
C2508 C2509 1.349 . S
C2508 C2510 1.327 . S
C2508 H2533 0.950 . S
C2509 C2508 1.349 . S
C2509 C2525 1.349 . S
C2510 C2508 1.327 . S
C2510 C2529 1.429 . S
C2510 H2534 0.950 . S
C2511 C2528 1.574 . S
C2511 C2530 1.368 . S
C2511 H2535 0.949 . S
H2512 C2516 0.949 . S
C2513 C2514 1.349 . S
C2513 C2515 1.327 . S
C2513 H2536 0.950 . S
C2514 C2513 1.349 . S
C2514 C2526 1.349 . S
C2515 C2513 1.327 . S
C2515 C2531 1.429 . S
C2515 H2537 0.950 . S
C2516 H2512 0.949 . S
C2516 C2524 1.574 . S
C2516 C2532 1.368 . S
H2517 C2525 0.950 . S
H2518 C2523 0.950 . S
H2519 C2524 0.949 . S
H2520 C2526 0.950 . S
H2521 C2527 0.950 . S
H2522 C2528 0.949 . S
C2523 H2518 0.950 . S
C2523 C2525 1.327 . S
C2523 C2529 1.429 . S
C2524 C2516 1.574 . S
C2524 H2519 0.949 . S
C2524 C2530 1.368 . S
C2525 C2509 1.349 . S
C2525 H2517 0.950 . S
C2525 C2523 1.327 . S
C2526 C2514 1.349 . S
C2526 H2520 0.950 . S
C2526 C2527 1.327 . S
C2527 H2521 0.950 . S
C2527 C2526 1.327 . S
C2527 C2531 1.429 . S
C2528 C2511 1.574 . S
C2528 H2522 0.949 . S
C2528 C2532 1.368 . S
C2529 C2510 1.429 . S
C2529 C2523 1.429 . S
C2529 C2530 1.523 . S
C2530 C2511 1.368 . S
C2530 C2524 1.368 . S
C2530 C2529 1.523 . S
C2531 C2515 1.429 . S
C2531 C2527 1.429 . S
C2531 C2532 1.523 . S
C2532 C2516 1.368 . S
C2532 C2528 1.368 . S
C2532 C2531 1.523 . S
H2533 C2508 0.950 . S
H2534 C2510 0.950 . S
H2535 C2511 0.949 . S
H2536 C2513 0.950 . S
H2537 C2515 0.950 . S
C2538 C2539 1.349 . S
C2538 C2540 1.327 . S
C2538 H2563 0.950 . S
C2539 C2538 1.349 . S
C2539 C2555 1.349 . S
C2540 C2538 1.327 . S
C2540 C2559 1.429 . S
C2540 H2564 0.950 . S
C2541 C2558 1.574 . S
C2541 C2560 1.368 . S
C2541 H2565 0.949 . S
H2542 C2546 0.949 1_565 S
C2543 C2544 1.349 . S
C2543 C2545 1.327 . S
C2543 H2566 0.950 . S
C2544 C2543 1.349 . S
C2544 C2556 1.349 . S
C2545 C2543 1.327 . S
C2545 C2561 1.429 . S
C2545 H2567 0.950 1_565 S
C2546 H2542 0.949 1_545 S
C2546 C2554 1.574 . S
C2546 C2562 1.368 . S
H2547 C2555 0.950 . S
H2548 C2553 0.950 . S
H2549 C2554 0.949 . S
H2550 C2556 0.950 . S
H2551 C2557 0.950 . S
H2552 C2558 0.949 . S
C2553 H2548 0.950 . S
C2553 C2555 1.327 . S
C2553 C2559 1.429 . S
C2554 C2546 1.574 . S
C2554 H2549 0.949 . S
C2554 C2560 1.368 . S
C2555 C2539 1.349 . S
C2555 H2547 0.950 . S
C2555 C2553 1.327 . S
C2556 C2544 1.349 . S
C2556 H2550 0.950 . S
C2556 C2557 1.327 . S
C2557 H2551 0.950 . S
C2557 C2556 1.327 . S
C2557 C2561 1.429 . S
C2558 C2541 1.574 . S
C2558 H2552 0.949 . S
C2558 C2562 1.368 . S
C2559 C2540 1.429 . S
C2559 C2553 1.429 . S
C2559 C2560 1.523 . S
C2560 C2541 1.368 . S
C2560 C2554 1.368 . S
C2560 C2559 1.523 . S
C2561 C2545 1.429 . S
C2561 C2557 1.429 . S
C2561 C2562 1.523 1_565 S
C2562 C2546 1.368 . S
C2562 C2558 1.368 . S
C2562 C2561 1.523 1_545 S
H2563 C2538 0.950 . S
H2564 C2540 0.950 . S
H2565 C2541 0.949 . S
H2566 C2543 0.950 . S
H2567 C2545 0.950 1_545 S
C1134 C968 1.650 . S
C1129 C331 1.622 . S
C1164 C983 1.744 . S
C1159 C380 1.716 . S
C1189 C421 1.728 . S
C1194 C996 1.738 . S
C1224 C1010 1.553 . S
C1219 C260 1.586 . S
C1254 C1022 1.690 . S
C1249 C620 1.714 . S
C1284 C1036 1.298 . S
C1279 C740 1.250 . S
C1309 C680 1.794 . S
C1314 C1050 1.789 . S
C1344 C1065 1.477 . S
C1339 C571 1.423 . S
C1369 C691 1.691 . S
C1374 C1081 1.708 . S
C1404 C1094 1.516 . S
C1399 C541 1.485 . S
C1429 C601 1.590 . S
C1434 C1079 1.581 . S
C1464 C1092 1.506 . S
C1459 C721 1.436 . S
C1489 C451 1.883 . S
C1494 C1108 1.894 . S
C1519 C241 1.606 . S
C1524 C1107 1.573 . S
C1549 C320 1.767 . S
C1554 C1106 1.742 . S
C1579 C391 1.580 . S
C1584 C1109 1.623 . S
C1609 C211 1.689 . S
C1614 C1011 1.724 . S
C1639 C841 1.493 . S
C1644 C1009 1.491 . S
C1674 C969 1.547 . S
C1669 C901 1.524 . S
C1704 C980 1.793 . S
C1699 C500 1.801 . S
C1729 C271 1.622 1_545 S
C1734 C1025 1.611 . S
C1764 C1066 1.956 . S
C1759 C661 1.933 . S
C1794 C1023 1.505 . S
C1789 C560 1.441 . S
C1824 C1051 1.493 . S
C1819 C751 1.450 . S
C1854 C1052 1.650 . S
C1849 C871 1.622 . S
C1879 C920 1.716 . S
C1884 C1067 1.744 . S
C1909 C481 1.728 . S
C1914 C1024 1.738 . S
C1944 C1038 1.553 . S
C1939 C800 1.586 . S
C1969 C200 1.714 . S
C1974 C994 1.690 . S
C2004 C1008 1.298 . S
C1999 C20 1.250 . S
C2034 C966 1.789 . S
C2029 C80 1.794 . S
C2064 C981 1.477 . S
C2059 C151 1.423 . S
C2089 C91 1.691 . S
C2094 C1095 1.708 . S
C2119 C121 1.485 . S
C2124 C1080 1.516 . S
C2149 C181 1.590 . S
C2154 C1093 1.581 . S
C2179 C1 1.436 . S
C2184 C1078 1.506 . S
C2214 C1122 1.894 . S
C2209 C511 1.883 . S
C2244 C1121 1.573 . S
C2239 C781 1.606 . S
C2274 C1120 1.742 . S
C2269 C860 1.767 . S
C2299 C931 1.580 . S
C2304 C1123 1.623 . S
C2329 C631 1.689 . S
C2334 C1039 1.724 . S
C2364 C1037 1.491 . S
C2359 C301 1.493 . S
C2394 C1053 1.547 . S
C2389 C361 1.524 . S
C2424 C1064 1.793 . S
C2419 C440 1.801 . S
C2449 C811 1.622 . S
C2454 C997 1.611 . S
C2484 C982 1.956 . S
C2479 C61 1.933 . S
C2509 C140 1.441 . S
C2514 C995 1.505 . S
C2544 C967 1.493 . S
C2539 C31 1.450 . S
