# Generated by pormake.
# Topology csq, (4,8)-cn, num edge types: 1
# Building blocks:
#     Node 0, Type 0, BuildingBlock: NAWXER_clean_linker_0, # of connection points: 4
#     Node 1, Type 0, BuildingBlock: NAWXER_clean_linker_0, # of connection points: 4
#     Node 2, Type 0, BuildingBlock: NAWXER_clean_linker_0, # of connection points: 4
#     Node 3, Type 0, BuildingBlock: NAWXER_clean_linker_0, # of connection points: 4
#     Node 4, Type 0, BuildingBlock: NAWXER_clean_linker_0, # of connection points: 4
#     Node 5, Type 0, BuildingBlock: NAWXER_clean_linker_0, # of connection points: 4
#     Node 6, Type 1, BuildingBlock: TAGTUT_clean_sbu_1, # of connection points: 8
#     Node 7, Type 1, BuildingBlock: TAGTUT_clean_sbu_1, # of connection points: 8
#     Node 8, Type 1, BuildingBlock: TAGTUT_clean_sbu_1, # of connection points: 8
#     Edge 9, Type (0, 1), BuildingBlock: MIFKUJ_clean_linker_0, # of connection points: 2
#     Edge 10, Type (0, 1), BuildingBlock: MIFKUJ_clean_linker_0, # of connection points: 2
#     Edge 11, Type (0, 1), BuildingBlock: MIFKUJ_clean_linker_0, # of connection points: 2
#     Edge 12, Type (0, 1), BuildingBlock: MIFKUJ_clean_linker_0, # of connection points: 2
#     Edge 13, Type (0, 1), BuildingBlock: MIFKUJ_clean_linker_0, # of connection points: 2
#     Edge 14, Type (0, 1), BuildingBlock: MIFKUJ_clean_linker_0, # of connection points: 2
#     Edge 15, Type (0, 1), BuildingBlock: MIFKUJ_clean_linker_0, # of connection points: 2
#     Edge 16, Type (0, 1), BuildingBlock: MIFKUJ_clean_linker_0, # of connection points: 2
#     Edge 17, Type (0, 1), BuildingBlock: MIFKUJ_clean_linker_0, # of connection points: 2
#     Edge 18, Type (0, 1), BuildingBlock: MIFKUJ_clean_linker_0, # of connection points: 2
#     Edge 19, Type (0, 1), BuildingBlock: MIFKUJ_clean_linker_0, # of connection points: 2
#     Edge 20, Type (0, 1), BuildingBlock: MIFKUJ_clean_linker_0, # of connection points: 2
#     Edge 21, Type (0, 1), BuildingBlock: MIFKUJ_clean_linker_0, # of connection points: 2
#     Edge 22, Type (0, 1), BuildingBlock: MIFKUJ_clean_linker_0, # of connection points: 2
#     Edge 23, Type (0, 1), BuildingBlock: MIFKUJ_clean_linker_0, # of connection points: 2
#     Edge 24, Type (0, 1), BuildingBlock: MIFKUJ_clean_linker_0, # of connection points: 2
#     Edge 25, Type (0, 1), BuildingBlock: MIFKUJ_clean_linker_0, # of connection points: 2
#     Edge 26, Type (0, 1), BuildingBlock: MIFKUJ_clean_linker_0, # of connection points: 2
#     Edge 27, Type (0, 1), BuildingBlock: MIFKUJ_clean_linker_0, # of connection points: 2
#     Edge 28, Type (0, 1), BuildingBlock: MIFKUJ_clean_linker_0, # of connection points: 2
#     Edge 29, Type (0, 1), BuildingBlock: MIFKUJ_clean_linker_0, # of connection points: 2
#     Edge 30, Type (0, 1), BuildingBlock: MIFKUJ_clean_linker_0, # of connection points: 2
#     Edge 31, Type (0, 1), BuildingBlock: MIFKUJ_clean_linker_0, # of connection points: 2
#     Edge 32, Type (0, 1), BuildingBlock: MIFKUJ_clean_linker_0, # of connection points: 2
# Relax obj value: 0.031
# Max RMSD: 0.128
# Mean RMSD: 0.042
data_MOF--net-csq--node1-TAGTUT_clean_sbu_1--node2-NAWXER_clean_linker_0--edge1-MIFKUJ_clean_linker_0
_symmetry_space_group_name_H-M    P1
_symmetry_Int_Tables_number       1
_symmetry_cell_setting            triclinic
loop_
_symmetry_equiv_pos_as_xyz
'x, y, z'
_cell_length_a     75.882029
_cell_length_b     74.851256
_cell_length_c     27.618246
_cell_angle_alpha  92.432072
_cell_angle_beta   91.878099
_cell_angle_gamma 119.86951
loop_
_atom_site_label
_atom_site_type_symbol
_atom_site_fract_x
_atom_site_fract_y
_atom_site_fract_z
_atom_type_partial_charge
C0 C 0.31959 0.50096 0.07203 0.0
C1 C 0.31382 0.48541 0.03451 0.0
C2 C 0.30517 0.50075 0.10282 0.0
C3 C 0.28465 0.4851 0.09639 0.0
C4 C 0.29339 0.46947 0.02902 0.0
C5 C 0.27893 0.46946 0.05926 0.0
C6 C 0.26875 0.48618 0.12426 0.0
C7 C 0.30104 0.47075 0.24226 0.0
C8 C 0.30915 0.48512 0.28277 0.0
C9 C 0.28945 0.47297 0.20514 0.0
C10 C 0.28586 0.48965 0.20784 0.0
C11 C 0.30628 0.50228 0.28416 0.0
C12 C 0.29465 0.50444 0.24722 0.0
C13 C 0.27023 0.48989 0.17514 0.0
C14 C 0.18918 0.47777 0.22607 0.0
C15 C 0.1957 0.49367 0.26321 0.0
C16 C 0.20305 0.47715 0.19464 0.0
C17 C 0.22372 0.49242 0.19964 0.0
C18 C 0.21637 0.50911 0.26732 0.0
C19 C 0.2302 0.50837 0.23624 0.0
C20 C 0.23914 0.49077 0.17106 0.0
C21 C 0.20245 0.50253 0.05754 0.0
C22 C 0.19557 0.48906 0.01534 0.0
C23 C 0.21546 0.50145 0.09286 0.0
C24 C 0.22145 0.48653 0.08734 0.0
C25 C 0.20129 0.47389 0.01051 0.0
C26 C 0.21401 0.47262 0.04612 0.0
C27 C 0.23754 0.48695 0.12005 0.0
H28 H 0.33523 0.5134 0.07723 0.0
H29 H 0.30993 0.51326 0.13044 0.0
H30 H 0.28844 0.4574 1.00017 0.0
H31 H 0.26317 0.45736 0.05318 0.0
H32 H 0.30283 0.45726 0.24033 0.0
H33 H 0.28234 0.46103 0.17589 0.0
H34 H 0.31268 0.51385 0.31432 0.0
H35 H 0.29195 0.51735 0.25019 0.0
H36 H 0.17347 0.46544 0.2221 0.0
H37 H 0.19773 0.46436 0.16757 0.0
H38 H 0.22195 0.52184 0.29464 0.0
H39 H 0.24609 0.52027 0.24105 0.0
H40 H 0.19816 0.51424 0.06289 0.0
H41 H 0.22147 0.51289 0.12327 0.0
H42 H 0.19667 0.46348 0.97826 0.0
H43 H 0.2186 0.46113 0.04059 0.0
N44 N 0.25241 0.48481 0.09891 0.0
N45 N 0.25545 0.49209 0.19628 0.0
C46 C 0.71156 0.19279 0.19827 0.0
C47 C 0.71792 0.1876 0.24132 0.0
C48 C 0.72577 0.20502 0.16569 0.0
C49 C 0.74658 0.21198 0.175 0.0
C50 C 0.73878 0.19464 0.25041 0.0
C51 C 0.7529 0.20667 0.21768 0.0
C52 C 0.76223 0.22651 0.14377 0.0
C53 C 0.72164 0.17004 0.04256 0.0
C54 C 0.71191 0.17463 0.0049 0.0
C55 C 0.73759 0.186 0.07185 0.0
C56 C 0.74399 0.20668 0.06363 0.0
C57 C 0.71852 0.19535 0.99669 0.0
C58 C 0.73448 0.2112 0.02559 0.0
C59 C 0.76117 0.22394 0.09246 0.0
C60 C 0.84575 0.29176 0.05215 0.0
C61 C 0.84159 0.29979 0.01116 0.0
C62 C 0.82989 0.27665 0.07654 0.0
C63 C 0.80951 0.26975 0.0614 0.0
C64 C 0.82124 0.29202 0.99416 0.0
C65 C 0.8053 0.27712 0.0192 0.0
C66 C 0.79274 0.25533 0.09044 0.0
C67 C 0.82635 0.31522 0.17656 0.0
C68 C 0.84046 0.31505 0.2103 0.0
C69 C 0.81052 0.29667 0.1551 0.0
C70 C 0.80853 0.27779 0.16757 0.0
C71 C 0.83807 0.29612 0.22387 0.0
C72 C 0.82202 0.27756 0.20301 0.0
C73 C 0.79316 0.25845 0.14121 0.0
H74 H 0.69562 0.18753 0.18985 0.0
H75 H 0.72049 0.20945 0.13397 0.0
H76 H 0.74434 0.19137 0.28354 0.0
H77 H 0.7689 0.21214 0.22615 0.0
H78 H 0.71681 0.15417 0.04954 0.0
H79 H 0.74503 0.18222 0.10049 0.0
H80 H 0.71153 0.19932 0.9674 0.0
H81 H 0.73936 0.22707 0.01835 0.0
H82 H 0.86132 0.29715 0.06529 0.0
H83 H 0.83358 0.27058 0.10776 0.0
H84 H 0.81768 0.29793 0.96242 0.0
H85 H 0.78972 0.27184 0.0065 0.0
H86 H 0.82794 0.32967 0.1658 0.0
H87 H 0.80009 0.29705 0.12797 0.0
H88 H 0.84871 0.29573 0.25036 0.0
H89 H 0.82062 0.26308 0.21302 0.0
N90 N 0.7782 0.24383 0.16611 0.0
N91 N 0.77654 0.23839 0.06779 0.0
C92 C 0.54904 0.71626 0.02044 0.0
C93 C 0.53598 0.70349 0.98111 0.0
C94 C 0.5478 0.73324 0.03856 0.0
C95 C 0.53315 0.7375 0.01854 0.0
C96 C 0.52185 0.7083 0.95989 0.0
C97 C 0.52048 0.72519 0.97843 0.0
C98 C 0.53079 0.7545 0.04026 0.0
C99 C 0.51003 0.70419 0.13955 0.0
C100 C 0.52516 0.70864 0.1764 0.0
C101 C 0.51056 0.71994 0.11322 0.0
C102 C 0.5262 0.74044 0.12322 0.0
C103 C 0.5402 0.72939 0.18796 0.0
C104 C 0.54062 0.74517 0.16179 0.0
C105 C 0.5286 0.7565 0.09047 0.0
C106 C 0.51651 0.83048 0.1032 0.0
C107 C 0.53119 0.84288 0.14047 0.0
C108 C 0.51528 0.81221 0.08486 0.0
C109 C 0.52898 0.80623 0.10278 0.0
C110 C 0.54414 0.83623 0.16005 0.0
C111 C 0.54302 0.81805 0.14137 0.0
C112 C 0.52941 0.78824 0.08009 0.0
C113 C 0.54875 0.83745 0.97617 0.0
C114 C 0.53313 0.8323 0.94021 0.0
C115 C 0.54862 0.82223 0.00396 0.0
C116 C 0.53286 0.80163 0.99629 0.0
C117 C 0.51791 0.81149 0.93113 0.0
C118 C 0.51787 0.79626 0.95874 0.0
C119 C 0.53111 0.78599 0.02965 0.0
H120 H 0.56005 0.713 0.03775 0.0
H121 H 0.55813 0.74289 0.06874 0.0
H122 H 0.51191 0.69907 0.92878 0.0
H123 H 0.50926 0.7284 0.96211 0.0
H124 H 0.49793 0.68848 0.13049 0.0
H125 H 0.49912 0.71603 0.08394 0.0
H126 H 0.55218 0.73339 0.21584 0.0
H127 H 0.55283 0.76091 0.16992 0.0
H128 H 0.50629 0.83513 0.08737 0.0
H129 H 0.50396 0.803 0.05586 0.0
H130 H 0.55523 0.84513 0.1897 0.0
H131 H 0.55354 0.81356 0.1561 0.0
H132 H 0.56064 0.85335 0.98407 0.0
H133 H 0.56045 0.82663 0.03252 0.0
H134 H 0.50587 0.80705 0.9031 0.0
H135 H 0.50565 0.78042 0.95217 0.0
N136 N 0.53167 0.76915 0.01142 0.0
N137 N 0.52829 0.77345 0.10882 0.0
C138 C 0.83461 0.52977 0.00372 0.0
C139 C 0.82807 0.51542 0.9631 0.0
C140 C 0.82051 0.53122 0.03274 0.0
C141 C 0.79947 0.51794 0.02283 0.0
C142 C 0.807 0.50227 0.95319 0.0
C143 C 0.79296 0.50346 0.98272 0.0
C144 C 0.78396 0.52011 0.05031 0.0
C145 C 0.81722 0.50869 0.17428 0.0
C146 C 0.82684 0.52506 0.21033 0.0
C147 C 0.8048 0.5093 0.13666 0.0
C148 C 0.80178 0.52628 0.13439 0.0
C149 C 0.82443 0.54241 0.20662 0.0
C150 C 0.81186 0.54291 0.16931 0.0
C151 C 0.78584 0.52541 0.10074 0.0
C152 C 0.70443 0.50786 0.15528 0.0
C153 C 0.70957 0.52504 0.1878 0.0
C154 C 0.71843 0.50816 0.12303 0.0
C155 C 0.73796 0.52553 0.12284 0.0
C156 C 0.72895 0.54269 0.18599 0.0
C157 C 0.74304 0.54281 0.15441 0.0
C158 C 0.75398 0.52472 0.09524 0.0
C159 C 0.71339 0.52851 0.97692 0.0
C160 C 0.70568 0.51244 0.94003 0.0
C161 C 0.7278 0.53031 0.01264 0.0
C162 C 0.73461 0.51596 0.01233 0.0
C163 C 0.71218 0.49786 0.94058 0.0
C164 C 0.72654 0.49966 0.97621 0.0
C165 C 0.7519 0.51914 0.04505 0.0
H166 H 0.85066 0.54005 0.01308 0.0
H167 H 0.82617 0.54317 0.062 0.0
H168 H 0.80118 0.49135 0.92179 0.0
H169 H 0.77687 0.49317 0.97353 0.0
H170 H 0.81849 0.49496 0.17631 0.0
H171 H 0.79675 0.49606 0.11082 0.0
H172 H 0.83193 0.55547 0.23312 0.0
H173 H 0.80959 0.55609 0.16837 0.0
H174 H 0.68988 0.49382 0.15587 0.0
H175 H 0.71433 0.49443 0.09988 0.0
H176 H 0.7334 0.55643 0.20936 0.0
H177 H 0.75808 0.55633 0.15513 0.0
H178 H 0.70889 0.54015 0.97713 0.0
H179 H 0.73423 0.54341 0.03907 0.0
H180 H 0.70629 0.48513 0.91318 0.0
H181 H 0.73164 0.48846 0.97504 0.0
N182 N 0.76699 0.51717 0.02479 0.0
N183 N 0.77088 0.52763 0.12092 0.0
C184 C 0.28592 0.84454 0.01 0.0
C185 C 0.29634 0.83734 0.98121 0.0
C186 C 0.27175 0.83157 0.04175 0.0
C187 C 0.26761 0.81116 0.04453 0.0
C188 C 0.29236 0.81702 0.98466 0.0
C189 C 0.27795 0.80398 0.0156 0.0
C190 C 0.25159 0.79668 0.07475 0.0
C191 C 0.30258 0.83872 0.18579 0.0
C192 C 0.29689 0.84673 0.22537 0.0
C193 C 0.28786 0.82454 0.15117 0.0
C194 C 0.26724 0.81853 0.15492 0.0
C195 C 0.27642 0.84126 0.22833 0.0
C196 C 0.26176 0.82736 0.19331 0.0
C197 C 0.251 0.80059 0.12512 0.0
C198 C 0.18647 0.71728 0.18102 0.0
C199 C 0.17572 0.72276 0.21329 0.0
C200 C 0.20137 0.73208 0.15397 0.0
C201 C 0.20542 0.75257 0.15738 0.0
C202 C 0.18046 0.74351 0.21822 0.0
C203 C 0.19521 0.75828 0.19053 0.0
C204 C 0.22055 0.76809 0.12704 0.0
C205 C 0.16865 0.72145 0.03174 0.0
C206 C 0.17335 0.70756 0.00773 0.0
C207 C 0.18417 0.74038 0.05239 0.0
C208 C 0.20463 0.74571 0.0495 0.0
C209 C 0.19388 0.71328 0.00329 0.0
C210 C 0.20942 0.73231 0.02371 0.0
C211 C 0.22087 0.76442 0.07668 0.0
H212 H 0.28877 0.86017 0.00795 0.0
H213 H 0.2637 0.83731 0.06325 0.0
H214 H 0.30006 0.81106 0.96252 0.0
H215 H 0.27485 0.78823 0.01695 0.0
H216 H 0.31827 0.84248 0.18318 0.0
H217 H 0.29253 0.8174 0.12343 0.0
H218 H 0.27171 0.84732 0.25842 0.0
H219 H 0.24594 0.82282 0.19736 0.0
H220 H 0.18316 0.70147 0.17587 0.0
H221 H 0.20959 0.72743 0.13001 0.0
H222 H 0.17281 0.74838 0.24349 0.0
H223 H 0.19839 0.7741 0.19441 0.0
H224 H 0.15298 0.71743 0.03577 0.0
H225 H 0.18019 0.75062 0.07184 0.0
H226 H 0.1979 0.70299 0.98423 0.0
H227 H 0.22514 0.73621 0.02105 0.0
N228 N 0.23647 0.7787 0.05246 0.0
N229 N 0.23547 0.78608 0.14914 0.0
C230 C 0.48487 0.18025 0.12887 0.0
C231 C 0.47487 0.1692 0.08464 0.0
C232 C 0.48346 0.19739 0.14515 0.0
C233 C 0.4714 0.2034 0.1185 0.0
C234 C 0.46399 0.17623 0.0565 0.0
C235 C 0.46222 0.19309 0.07337 0.0
C236 C 0.46761 0.21982 0.13812 0.0
C237 C 0.44419 0.16753 0.23247 0.0
C238 C 0.4577 0.17323 0.27368 0.0
C239 C 0.44396 0.18266 0.20498 0.0
C240 C 0.45726 0.20366 0.2184 0.0
C241 C 0.46989 0.19424 0.28885 0.0
C242 C 0.46955 0.20935 0.26158 0.0
C243 C 0.46043 0.21966 0.18484 0.0
C244 C 0.44387 0.29097 0.17788 0.0
C245 C 0.45145 0.30033 0.22467 0.0
C246 C 0.44589 0.27421 0.16156 0.0
C247 C 0.45627 0.26709 0.19106 0.0
C248 C 0.46062 0.29237 0.25533 0.0
C249 C 0.46305 0.2759 0.2386 0.0
C250 C 0.46066 0.25098 0.17212 0.0
C251 C 0.49453 0.30666 0.09082 0.0
C252 C 0.4845 0.30464 0.04547 0.0
C253 C 0.48996 0.28928 0.11611 0.0
C254 C 0.47528 0.26953 0.09659 0.0
C255 C 0.47046 0.28469 0.02507 0.0
C256 C 0.46603 0.26727 0.05029 0.0
C257 C 0.46857 0.25157 0.1262 0.0
H258 H 0.4934 0.1754 0.15165 0.0
H259 H 0.49134 0.20558 0.17931 0.0
H260 H 0.45669 0.16864 0.02144 0.0
H261 H 0.45319 0.19772 0.05173 0.0
H262 H 0.43464 0.15143 0.22004 0.0
H263 H 0.43426 0.17802 0.17185 0.0
H264 H 0.48018 0.199 0.32098 0.0
H265 H 0.47984 0.22548 0.27255 0.0
H266 H 0.43649 0.2967 0.15394 0.0
H267 H 0.43971 0.26711 0.12547 0.0
H268 H 0.46659 0.29941 0.2916 0.0
H269 H 0.47088 0.27053 0.26221 0.0
H270 H 0.50577 0.32171 0.10708 0.0
H271 H 0.49747 0.29127 0.15159 0.0
H272 H 0.46232 0.28255 0.99043 0.0
H273 H 0.45466 0.25213 0.03473 0.0
N274 N 0.47139 0.23579 0.11039 0.0
N275 N 0.45727 0.23525 0.20022 0.0
C276 C 0.99785 0.45308 0.74366 0.0
C277 C 0.05604 0.49133 0.67863 0.0
C278 C 0.03424 0.54915 0.68392 0.0
Mg279 Mg 0.01183 0.46418 0.63914 0.0
O280 O 0.00633 0.48542 0.65717 0.0
Mg281 Mg 0.02107 0.5034 0.71733 0.0
Mg282 Mg 0.01298 0.50751 0.61203 0.0
O283 O 0.01942 0.52955 0.56621 0.0
Mg284 Mg 0.01228 0.54976 0.58259 0.0
Mg285 Mg 0.00529 0.51122 0.50579 0.0
C286 C 0.99035 0.46566 0.53978 0.0
C287 C 0.04385 0.50553 0.5344 0.0
O288 O 0.00603 0.47246 0.75659 0.0
O289 O 0.99808 0.44652 0.70014 0.0
O290 O 0.0496 0.50095 0.70538 0.0
O291 O 0.04425 0.47668 0.64768 0.0
O292 O 0.99653 0.45585 0.56617 0.0
O293 O 0.993 0.48344 0.55325 0.0
C294 C 0.98239 0.50924 0.69069 0.0
O295 O 0.98617 0.50977 0.6455 0.0
O296 O 0.99319 0.50671 0.72332 0.0
O297 O 0.02035 0.54172 0.46646 0.0
O298 O 0.02552 0.56756 0.52074 0.0
O299 O 0.97683 0.51352 0.51322 0.0
C300 C 0.02692 0.56092 0.47822 0.0
O301 O 0.97946 0.53606 0.57207 0.0
O302 O 0.02743 0.55809 0.65617 0.0
C303 C 0.96899 0.52215 0.5383 0.0
O304 O 0.03276 0.53173 0.671 0.0
O305 O 0.03995 0.50512 0.57944 0.0
O306 O 0.03313 0.50803 0.50162 0.0
C307 C 0.47895 0.02088 0.77267 0.0
C308 C 0.44958 0.96616 0.67805 0.0
C309 C 0.52587 0.98216 0.64732 0.0
Mg310 Mg 0.46946 0.01205 0.66105 0.0
O311 O 0.49555 0.01519 0.6658 0.0
Mg312 Mg 0.49998 0.99714 0.71056 0.0
Mg313 Mg 0.50684 0.00981 0.60648 0.0
O314 O 0.51843 0.00457 0.54776 0.0
Mg315 Mg 0.54486 0.00862 0.55569 0.0
Mg316 Mg 0.5143 0.02286 0.50322 0.0
C317 C 0.48698 0.03648 0.56559 0.0
C318 C 0.47024 0.98383 0.5241 0.0
O319 O 0.48958 0.01183 0.77098 0.0
O320 O 0.47025 0.02316 0.73467 0.0
O321 O 0.46673 0.97041 0.69846 0.0
O322 O 0.44741 0.9797 0.65628 0.0
O323 O 0.47334 0.02966 0.59707 0.0
O324 O 0.5024 0.03369 0.56771 0.0
C325 C 0.54393 0.03543 0.68777 0.0
O326 O 0.53807 0.03366 0.64288 0.0
O327 O 0.5324 0.02377 0.71924 0.0
O328 O 0.5258 0.00874 0.44369 0.0
O329 O 0.54577 0.9987 0.48239 0.0
O330 O 0.54725 0.05006 0.51716 0.0
C331 C 0.53725 0.00057 0.44358 0.0
O332 O 0.56631 0.04122 0.56204 0.0
O333 O 0.54013 0.98942 0.61743 0.0
C334 C 0.56418 0.0546 0.53934 0.0
O335 O 0.51108 0.9859 0.64515 0.0
O336 O 0.47567 0.98575 0.56944 0.0
O337 O 0.48221 0.99582 0.49359 0.0
C338 C 0.53271 0.55594 0.45768 0.0
C339 C 0.56222 0.52255 0.50564 0.0
C340 C 0.486 0.46255 0.54049 0.0
Mg341 Mg 0.54686 0.54865 0.55835 0.0
O342 O 0.51976 0.52671 0.55156 0.0
Mg343 Mg 0.51174 0.50702 0.49298 0.0
Mg344 Mg 0.51044 0.50668 0.60274 0.0
O345 O 0.50134 0.48704 0.65509 0.0
Mg346 Mg 0.4746 0.46482 0.65156 0.0
Mg347 Mg 0.50996 0.50727 0.7133 0.0
C348 C 0.53384 0.55086 0.66628 0.0
C349 C 0.5507 0.51323 0.66386 0.0
O350 O 0.52129 0.53628 0.44864 0.0
O351 O 0.54342 0.56387 0.49782 0.0
O352 O 0.54397 0.51157 0.48727 0.0
O353 O 0.56696 0.53719 0.53798 0.0
O354 O 0.54664 0.55948 0.63357 0.0
O355 O 0.51836 0.53265 0.65938 0.0
C356 C 0.47035 0.49991 0.54063 0.0
O357 O 0.47828 0.50141 0.58347 0.0
O358 O 0.48031 0.50213 0.50263 0.0
O359 O 0.50168 0.47898 0.759 0.0
O360 O 0.47999 0.4505 0.71169 0.0
O361 O 0.47786 0.5025 0.72216 0.0
C362 C 0.49099 0.45923 0.75113 0.0
O363 O 0.45435 0.47581 0.67487 0.0
O364 O 0.47423 0.45456 0.5755 0.0
C365 C 0.45935 0.49085 0.70626 0.0
O366 O 0.50206 0.48056 0.54561 0.0
O367 O 0.54249 0.51138 0.62122 0.0
O368 O 0.54129 0.51209 0.70224 0.0
H369 H 0.15565 0.48272 0.24425 0.0
H370 H 0.13231 0.4846 0.30004 0.0
H371 H 0.1794 0.50853 0.41586 0.0
H372 H 0.20257 0.50558 0.36092 0.0
H373 H 0.14391 0.48296 0.45115 0.0
H374 H 0.16801 0.54094 0.35491 0.0
H375 H 0.17621 0.55964 0.28007 0.0
H376 H 0.11306 0.5265 0.23043 0.0
H377 H 0.10451 0.50738 0.30466 0.0
H378 H 0.08073 0.51592 0.58242 0.0
H379 H 0.10948 0.51453 0.54671 0.0
H380 H 0.07261 0.48622 0.41344 0.0
H381 H 0.04446 0.48785 0.44807 0.0
H382 H 0.10806 0.51944 0.39672 0.0
H383 H 0.08536 0.45938 0.49354 0.0
H384 H 0.07825 0.44274 0.5713 0.0
H385 H 0.14035 0.48299 0.62395 0.0
H386 H 0.14778 0.50003 0.54662 0.0
C387 C 0.16102 0.48806 0.28173 0.0
C388 C 0.18115 0.4942 0.29771 0.0
C389 C 0.14768 0.48935 0.31359 0.0
C390 C 0.15419 0.49713 0.36204 0.0
C391 C 0.17404 0.50263 0.37862 0.0
C392 C 0.18736 0.50118 0.34686 0.0
C393 C 0.14043 0.50016 0.39451 0.0
C394 C 0.13627 0.49117 0.43952 0.0
C395 C 0.13059 0.51107 0.37988 0.0
C396 C 0.13564 0.52262 0.33523 0.0
C397 C 0.15588 0.53754 0.32789 0.0
C398 C 0.16059 0.54823 0.28559 0.0
C399 C 0.14517 0.54424 0.25048 0.0
C400 C 0.12499 0.52957 0.25764 0.0
C401 C 0.1202 0.51882 0.29985 0.0
C402 C 0.07879 0.50915 0.5458 0.0
C403 C 0.0605 0.50235 0.51772 0.0
C404 C 0.09518 0.50837 0.52542 0.0
C405 C 0.09328 0.50049 0.47708 0.0
C406 C 0.07459 0.49265 0.45044 0.0
C407 C 0.05847 0.4936 0.47038 0.0
C408 C 0.11071 0.50132 0.45201 0.0
C409 C 0.11579 0.51132 0.4085 0.0
C410 C 0.12148 0.49158 0.46843 0.0
C411 C 0.11708 0.48108 0.51447 0.0
C412 C 0.09747 0.46475 0.52179 0.0
C413 C 0.09339 0.45524 0.56576 0.0
C414 C 0.10884 0.46181 0.60251 0.0
C415 C 0.12841 0.47791 0.5954 0.0
C416 C 0.13257 0.48748 0.55151 0.0
H417 H 0.10567 0.45438 0.63644 0.0
H418 H 0.14884 0.55253 0.21776 0.0
H419 H 0.6844 0.18973 0.26802 0.0
H420 H 0.6604 0.1701 0.32793 0.0
H421 H 0.69436 0.1393 0.35866 0.0
H422 H 0.71769 0.15792 0.29673 0.0
H423 H 0.65615 0.11256 0.353 0.0
H424 H 0.6965 0.17883 0.43708 0.0
H425 H 0.71297 0.21672 0.44948 0.0
H426 H 0.65448 0.21267 0.44037 0.0
H427 H 0.63765 0.17476 0.42725 0.0
H428 H 0.60411 0.06524 0.55583 0.0
H429 H 0.63298 0.09183 0.51617 0.0
H430 H 0.59495 0.11458 0.45856 0.0
H431 H 0.5659 0.08798 0.49787 0.0
H432 H 0.63659 0.14612 0.48266 0.0
H433 H 0.59714 0.07931 0.39344 0.0
H434 H 0.58166 0.0415 0.38118 0.0
H435 H 0.6406 0.04716 0.40232 0.0
H436 H 0.65637 0.08498 0.41559 0.0
C437 C 0.68663 0.17858 0.28698 0.0
C438 C 0.70306 0.17547 0.27745 0.0
C439 C 0.67306 0.16759 0.32189 0.0
C440 C 0.67577 0.15349 0.3486 0.0
C441 C 0.69201 0.1502 0.33883 0.0
C442 C 0.70546 0.16101 0.30362 0.0
C443 C 0.66127 0.14159 0.38546 0.0
C444 C 0.65221 0.12 0.38184 0.0
C445 C 0.65577 0.15118 0.42271 0.0
C446 C 0.66583 0.17396 0.43074 0.0
C447 C 0.68715 0.18603 0.43736 0.0
C448 C 0.69655 0.20751 0.44458 0.0
C449 C 0.68478 0.2171 0.4456 0.0
C450 C 0.66358 0.20522 0.43952 0.0
C451 C 0.6541 0.18373 0.43224 0.0
C452 C 0.60199 0.07631 0.53618 0.0
C453 C 0.58256 0.0742 0.52923 0.0
C454 C 0.61852 0.09146 0.51334 0.0
C455 C 0.61594 0.10483 0.4836 0.0
C456 C 0.59719 0.10429 0.4811 0.0
C457 C 0.5806 0.08904 0.50359 0.0
C458 C 0.63172 0.11728 0.45006 0.0
C459 C 0.64084 0.13885 0.45411 0.0
C460 C 0.63747 0.10773 0.41342 0.0
C461 C 0.62791 0.08495 0.40607 0.0
C462 C 0.60676 0.07247 0.39603 0.0
C463 C 0.59794 0.05104 0.38879 0.0
C464 C 0.61015 0.04194 0.39102 0.0
C465 C 0.63117 0.05424 0.40066 0.0
C466 C 0.64005 0.07566 0.40806 0.0
H467 H 0.60336 0.02538 0.38504 0.0
H468 H 0.69209 0.23373 0.45119 0.0
H469 H 0.51674 0.67086 0.13631 0.0
H470 H 0.51813 0.64314 0.17676 0.0
H471 H 0.5371 0.68037 0.31216 0.0
H472 H 0.53513 0.70796 0.27248 0.0
H473 H 0.56101 0.66224 0.28898 0.0
H474 H 0.48965 0.6425 0.29469 0.0
H475 H 0.456 0.63366 0.25785 0.0
H476 H 0.4537 0.58319 0.17232 0.0
H477 H 0.48749 0.59192 0.2082 0.0
H478 H 0.54743 0.59722 0.47327 0.0
H479 H 0.54664 0.62091 0.41728 0.0
H480 H 0.5179 0.57147 0.30495 0.0
H481 H 0.51797 0.54719 0.36193 0.0
H482 H 0.50001 0.59364 0.30468 0.0
H483 H 0.56883 0.61006 0.30256 0.0
H484 H 0.60278 0.61828 0.33585 0.0
H485 H 0.61098 0.67408 0.4081 0.0
H486 H 0.57695 0.66606 0.37583 0.0
C487 C 0.52087 0.67306 0.17489 0.0
C488 C 0.52571 0.69164 0.2012 0.0
C489 C 0.52179 0.65723 0.19782 0.0
C490 C 0.52766 0.65971 0.24741 0.0
C491 C 0.53262 0.67822 0.27375 0.0
C492 C 0.53155 0.694 0.25097 0.0
C493 C 0.5288 0.6431 0.27204 0.0
C494 C 0.54768 0.64728 0.29282 0.0
C495 C 0.51154 0.62331 0.27499 0.0
C496 C 0.49118 0.618 0.25371 0.0
C497 C 0.48204 0.62963 0.26772 0.0
C498 C 0.46293 0.62461 0.24708 0.0
C499 C 0.45274 0.60791 0.21266 0.0
C500 C 0.46162 0.59614 0.19892 0.0
C501 C 0.48074 0.60111 0.21942 0.0
C502 C 0.54108 0.59129 0.43657 0.0
C503 C 0.53289 0.57028 0.42203 0.0
C504 C 0.54074 0.60496 0.40441 0.0
C505 C 0.53263 0.59812 0.3565 0.0
C506 C 0.52437 0.57713 0.34167 0.0
C507 C 0.52446 0.56329 0.37421 0.0
C508 C 0.53218 0.61295 0.32308 0.0
C509 C 0.51346 0.60846 0.30041 0.0
C510 C 0.54968 0.63238 0.31768 0.0
C511 C 0.57026 0.63738 0.33696 0.0
C512 C 0.57781 0.62402 0.32579 0.0
C513 C 0.59708 0.62866 0.34446 0.0
C514 C 0.60901 0.64668 0.37412 0.0
C515 C 0.60172 0.66013 0.3851 0.0
C516 C 0.58245 0.65556 0.36657 0.0
H517 H 0.62393 0.65024 0.38856 0.0
H518 H 0.43795 0.60405 0.19672 0.0
H519 H 0.82782 0.53799 0.30531 0.0
H520 H 0.8467 0.53527 0.3753 0.0
H521 H 0.87024 0.50529 0.28261 0.0
H522 H 0.852 0.50853 0.21206 0.0
H523 H 0.85504 0.48553 0.3698 0.0
H524 H 0.89946 0.55429 0.31563 0.0
H525 H 0.90768 0.58937 0.29613 0.0
H526 H 0.89584 0.6016 0.4412 0.0
H527 H 0.88728 0.56646 0.46134 0.0
H528 H 0.94477 0.49545 0.46367 0.0
H529 H 0.91499 0.49343 0.42461 0.0
H530 H 0.9151 0.53531 0.53708 0.0
H531 H 0.94634 0.53859 0.57552 0.0
H532 H 0.91216 0.54826 0.45602 0.0
H533 H 0.8747 0.48186 0.51546 0.0
H534 H 0.8675 0.44717 0.53556 0.0
H535 H 0.86556 0.42997 0.38434 0.0
H536 H 0.8729 0.46458 0.3633 0.0
C537 C 0.83724 0.53108 0.29958 0.0
C538 C 0.83848 0.52359 0.25288 0.0
C539 C 0.84786 0.52938 0.33975 0.0
C540 C 0.8598 0.52006 0.33403 0.0
C541 C 0.86094 0.51238 0.28772 0.0
C542 C 0.85048 0.51423 0.24747 0.0
C543 C 0.87164 0.51874 0.37592 0.0
C544 C 0.86755 0.49918 0.38882 0.0
C545 C 0.88733 0.53659 0.40194 0.0
C546 C 0.89246 0.55767 0.38977 0.0
C547 C 0.89842 0.56439 0.34321 0.0
C548 C 0.90318 0.5843 0.33208 0.0
C549 C 0.90221 0.59768 0.36735 0.0
C550 C 0.89654 0.5912 0.41388 0.0
C551 C 0.89173 0.5713 0.42517 0.0
C552 C 0.93837 0.504 0.48104 0.0
C553 C 0.94822 0.51749 0.52247 0.0
C554 C 0.92101 0.50258 0.45874 0.0
C555 C 0.91249 0.51398 0.47813 0.0
C556 C 0.92141 0.52635 0.52152 0.0
C557 C 0.93919 0.52815 0.54354 0.0
C558 C 0.89615 0.51493 0.44915 0.0
C559 C 0.8993 0.53446 0.43845 0.0
C560 C 0.87945 0.497 0.4255 0.0
C561 C 0.87439 0.47588 0.43782 0.0
C562 C 0.87276 0.4707 0.48648 0.0
C563 C 0.86866 0.45103 0.49804 0.0
C564 C 0.86608 0.43638 0.46126 0.0
C565 C 0.86751 0.44132 0.4128 0.0
C566 C 0.87157 0.46094 0.40102 0.0
H567 H 0.86296 0.42119 0.47031 0.0
H568 H 0.90592 0.61309 0.35867 0.0
H569 H 0.33401 0.88076 0.21805 0.0
H570 H 0.36047 0.8997 0.28298 0.0
H571 H 0.32083 0.85971 0.38725 0.0
H572 H 0.294 0.84111 0.32232 0.0
H573 H 0.3427 0.89805 0.42768 0.0
H574 H 0.35759 0.8514 0.34429 0.0
H575 H 0.36197 0.83274 0.27428 0.0
H576 H 0.41128 0.88959 0.2306 0.0
H577 H 0.40699 0.90867 0.29988 0.0
H578 H 0.4415 0.95079 0.57108 0.0
H579 H 0.40898 0.92216 0.53505 0.0
H580 H 0.42103 0.95083 0.39857 0.0
H581 H 0.45298 0.97913 0.43359 0.0
H582 H 0.41087 0.90877 0.39206 0.0
H583 H 0.38776 0.95426 0.47103 0.0
H584 H 0.38444 0.97086 0.54664 0.0
H585 H 0.35162 0.91171 0.60648 0.0
H586 H 0.35485 0.8948 0.53123 0.0
C587 C 0.33091 0.87617 0.2549 0.0
C588 C 0.3121 0.85944 0.26524 0.0
C589 C 0.34601 0.88691 0.29194 0.0
C590 C 0.34279 0.88076 0.33978 0.0
C591 C 0.32367 0.86463 0.3506 0.0
C592 C 0.3084 0.85405 0.31355 0.0
C593 C 0.35984 0.8908 0.37745 0.0
C594 C 0.35751 0.90006 0.4203 0.0
C595 C 0.37905 0.89289 0.36881 0.0
C596 C 0.38191 0.88148 0.32727 0.0
C597 C 0.36931 0.85995 0.31963 0.0
C598 C 0.37177 0.84929 0.28006 0.0
C599 C 0.38689 0.85997 0.248 0.0
C600 C 0.39959 0.88133 0.25549 0.0
C601 C 0.39717 0.89208 0.29496 0.0
C602 C 0.43707 0.95103 0.53356 0.0
C603 C 0.44993 0.96715 0.50511 0.0
C604 C 0.41857 0.93467 0.51307 0.0
C605 C 0.41281 0.93436 0.46405 0.0
C606 C 0.42536 0.95069 0.43629 0.0
C607 C 0.44364 0.96691 0.45652 0.0
C608 C 0.39397 0.91714 0.43994 0.0
C609 C 0.39592 0.90629 0.39984 0.0
C610 C 0.37446 0.91322 0.45181 0.0
C611 C 0.3716 0.92331 0.49571 0.0
C612 C 0.3798 0.94482 0.50031 0.0
C613 C 0.37795 0.95428 0.54309 0.0
C614 C 0.36784 0.94235 0.58136 0.0
C615 C 0.35943 0.92093 0.57679 0.0
C616 C 0.36122 0.91139 0.53406 0.0
H617 H 0.36652 0.94971 0.61455 0.0
H618 H 0.38877 0.85169 0.21737 0.0
H619 H 0.46654 0.3364 0.1803 0.0
H620 H 0.46976 0.36898 0.21328 0.0
H621 H 0.43813 0.33869 0.33827 0.0
H622 H 0.43528 0.30627 0.30599 0.0
H623 H 0.42812 0.36951 0.29714 0.0
H624 H 0.48536 0.35949 0.35068 0.0
H625 H 0.51384 0.35374 0.33253 0.0
H626 H 0.54064 0.40811 0.25215 0.0
H627 H 0.51211 0.41397 0.26927 0.0
H628 H 0.45324 0.42439 0.51812 0.0
H629 H 0.44551 0.40261 0.44436 0.0
H630 H 0.49769 0.45103 0.38046 0.0
H631 H 0.50622 0.47281 0.45591 0.0
H632 H 0.49823 0.41759 0.36688 0.0
H633 H 0.44706 0.43388 0.33576 0.0
H634 H 0.419 0.44052 0.35179 0.0
H635 H 0.38075 0.37716 0.38253 0.0
H636 H 0.40868 0.37019 0.36769 0.0
C637 C 0.4599 0.33666 0.21428 0.0
C638 C 0.45077 0.31899 0.24093 0.0
C639 C 0.46171 0.3552 0.23294 0.0
C640 C 0.45413 0.35613 0.27804 0.0
C641 C 0.44391 0.33817 0.30319 0.0
C642 C 0.44243 0.31976 0.28501 0.0
C643 C 0.45916 0.37616 0.30259 0.0
C644 C 0.44341 0.38018 0.31233 0.0
C645 C 0.47929 0.39041 0.32033 0.0
C646 C 0.49652 0.38701 0.3107 0.0
C647 C 0.49725 0.37011 0.32881 0.0
C648 C 0.51341 0.36685 0.31877 0.0
C649 C 0.52901 0.38052 0.29107 0.0
C650 C 0.52852 0.39751 0.2735 0.0
C651 C 0.51237 0.40081 0.28335 0.0
C652 C 0.46302 0.43064 0.48834 0.0
C653 C 0.48042 0.45041 0.49317 0.0
C654 C 0.45838 0.41817 0.44568 0.0
C655 C 0.47074 0.42527 0.40624 0.0
C656 C 0.48782 0.44527 0.41025 0.0
C657 C 0.49265 0.45773 0.4534 0.0
C658 C 0.46698 0.41071 0.36376 0.0
C659 C 0.48299 0.40756 0.35053 0.0
C660 C 0.44711 0.39754 0.34211 0.0
C661 C 0.43006 0.40152 0.35063 0.0
C662 C 0.43271 0.42137 0.34619 0.0
C663 C 0.41681 0.42519 0.35508 0.0
C664 C 0.3981 0.40927 0.36815 0.0
C665 C 0.39525 0.38948 0.37232 0.0
C666 C 0.41111 0.38557 0.36359 0.0
H667 H 0.38582 0.41227 0.37503 0.0
H668 H 0.54151 0.37797 0.28334 0.0
H669 H 0.50004 0.83672 0.92181 0.0
H670 H 0.49844 0.86372 0.87845 0.0
H671 H 0.56258 0.89195 0.85558 0.0
H672 H 0.5643 0.86507 0.89961 0.0
H673 H 0.55291 0.92077 0.88005 0.0
H674 H 0.52615 0.86186 0.76509 0.0
H675 H 0.50353 0.82554 0.73539 0.0
H676 H 0.45128 0.8328 0.75094 0.0
H677 H 0.47359 0.86912 0.78137 0.0
H678 H 0.55834 0.97816 0.67706 0.0
H679 H 0.55885 0.95442 0.73423 0.0
H680 H 0.49587 0.93284 0.76033 0.0
H681 H 0.49517 0.95654 0.70292 0.0
H682 H 0.50362 0.90121 0.73797 0.0
H683 H 0.53116 0.9613 0.84751 0.0
H684 H 0.55431 0.99788 0.87401 0.0
H685 H 0.60571 0.98875 0.86571 0.0
H686 H 0.58287 0.95212 0.83857 0.0
C687 C 0.51376 0.84859 0.9072 0.0
C688 C 0.53225 0.84867 0.9136 0.0
C689 C 0.51285 0.86404 0.88256 0.0
C690 C 0.53033 0.87971 0.86318 0.0
C691 C 0.5489 0.88002 0.87025 0.0
C692 C 0.54986 0.86465 0.89529 0.0
C693 C 0.52916 0.89551 0.83473 0.0
C694 C 0.54227 0.9165 0.8487 0.0
C695 C 0.51496 0.88994 0.79447 0.0
C696 C 0.50152 0.86814 0.77599 0.0
C697 C 0.50983 0.85567 0.76252 0.0
C698 C 0.49707 0.83509 0.7455 0.0
C699 C 0.47598 0.82685 0.74141 0.0
C700 C 0.46762 0.83919 0.75421 0.0
C701 C 0.48031 0.85978 0.77131 0.0
C702 C 0.54463 0.96852 0.69527 0.0
C703 C 0.52668 0.96918 0.68529 0.0
C704 C 0.54499 0.95504 0.72815 0.0
C705 C 0.52742 0.94195 0.75163 0.0
C706 C 0.50959 0.94286 0.74259 0.0
C707 C 0.50925 0.95647 0.70996 0.0
C708 C 0.52741 0.92642 0.78314 0.0
C709 C 0.51411 0.90547 0.76963 0.0
C710 C 0.54151 0.93204 0.82354 0.0
C711 C 0.5553 0.95399 0.84061 0.0
C712 C 0.54741 0.96711 0.85101 0.0
C713 C 0.56048 0.98786 0.86619 0.0
C714 C 0.58147 0.99566 0.87137 0.0
C715 C 0.58944 0.98269 0.86162 0.0
C716 C 0.57643 0.96192 0.84642 0.0
H717 H 0.59156 0.01174 0.88304 0.0
H718 H 0.46613 0.81091 0.72823 0.0
H719 H 0.70563 0.50345 0.84275 0.0
H720 H 0.68168 0.50109 0.77774 0.0
H721 H 0.64979 0.5168 0.8825 0.0
H722 H 0.67324 0.51857 0.9477 0.0
H723 H 0.6238 0.48461 0.8218 0.0
H724 H 0.68367 0.55207 0.80839 0.0
H725 H 0.71978 0.57593 0.79506 0.0
H726 H 0.7125 0.54561 0.65424 0.0
H727 H 0.67641 0.52136 0.66709 0.0
H728 H 0.57841 0.53551 0.73699 0.0
H729 H 0.6082 0.53316 0.76181 0.0
H730 H 0.59929 0.49457 0.6324 0.0
H731 H 0.56903 0.49687 0.60695 0.0
H732 H 0.64557 0.53086 0.68574 0.0
H733 H 0.58352 0.46532 0.69794 0.0
H734 H 0.54712 0.44405 0.71303 0.0
H735 H 0.5587 0.47248 0.8576 0.0
H736 H 0.59513 0.49419 0.84306 0.0
C737 C 0.69338 0.50619 0.85197 0.0
C738 C 0.69129 0.51115 0.90044 0.0
C739 C 0.67984 0.50502 0.81471 0.0
C740 C 0.66402 0.50886 0.82525 0.0
C741 C 0.66189 0.51375 0.87357 0.0
C742 C 0.67539 0.51493 0.91077 0.0
C743 C 0.64945 0.50772 0.78649 0.0
C744 C 0.62861 0.49457 0.79178 0.0
C745 C 0.6557 0.52026 0.7464 0.0
C746 C 0.67743 0.53471 0.73901 0.0
C747 C 0.68983 0.55034 0.77482 0.0
C748 C 0.71029 0.56397 0.76731 0.0
C749 C 0.71846 0.56223 0.72392 0.0
C750 C 0.70617 0.54689 0.6879 0.0
C751 C 0.68572 0.5332 0.69528 0.0
C752 C 0.58308 0.52697 0.71307 0.0
C753 C 0.57125 0.51601 0.67062 0.0
C754 C 0.60014 0.52574 0.72718 0.0
C755 C 0.60566 0.51346 0.69926 0.0
C756 C 0.59513 0.50408 0.65435 0.0
C757 C 0.57793 0.50541 0.63991 0.0
C758 C 0.62014 0.50818 0.72212 0.0
C759 C 0.64088 0.52023 0.71443 0.0
C760 C 0.61388 0.49462 0.76009 0.0
C761 C 0.59203 0.48146 0.76926 0.0
C762 C 0.57827 0.46716 0.73279 0.0
C763 C 0.55765 0.45501 0.74127 0.0
C764 C 0.55061 0.45693 0.78623 0.0
C765 C 0.56419 0.47101 0.8228 0.0
C766 C 0.58483 0.48322 0.81447 0.0
H767 H 0.53467 0.44747 0.79275 0.0
H768 H 0.73429 0.57281 0.71815 0.0
H769 H 0.13896 0.69918 0.95433 0.0
H770 H 0.11222 0.66577 0.91873 0.0
H771 H 0.14348 0.63632 0.98019 0.0
H772 H 0.17053 0.66993 0.01554 0.0
H773 H 0.1331 0.6244 0.88774 0.0
H774 H 0.09647 0.62697 0.02328 0.0
H775 H 0.08241 0.64192 0.08129 0.0
H776 H 0.04963 0.65077 0.96414 0.0
H777 H 0.06331 0.63583 0.9054 0.0
H778 H 0.05338 0.53728 0.75098 0.0
H779 H 0.07322 0.55692 0.82533 0.0
H780 H 0.05825 0.60433 0.79825 0.0
H781 H 0.03793 0.58462 0.72531 0.0
H782 H 0.0592 0.59958 0.89243 0.0
H783 H 0.10109 0.60409 0.75741 0.0
H784 H 0.11396 0.58886 0.69709 0.0
H785 H 0.13777 0.56836 0.81167 0.0
H786 H 0.12479 0.58326 0.87269 0.0
C787 C 0.13999 0.68555 0.96086 0.0
C788 C 0.15683 0.68714 0.98755 0.0
C789 C 0.12463 0.66643 0.94079 0.0
C790 C 0.12564 0.64846 0.94759 0.0
C791 C 0.14234 0.64996 0.97476 0.0
C792 C 0.15781 0.66915 0.99461 0.0
C793 C 0.11021 0.6286 0.92224 0.0
C794 C 0.1169 0.61862 0.88975 0.0
C795 C 0.08909 0.62114 0.92457 0.0
C796 C 0.08098 0.63032 0.9599 0.0
C797 C 0.08636 0.63221 0.00984 0.0
C798 C 0.07844 0.64066 0.04286 0.0
C799 C 0.06526 0.64737 0.02639 0.0
C800 C 0.05985 0.64557 0.97686 0.0
C801 C 0.0676 0.63702 0.94371 0.0
C802 C 0.05394 0.55166 0.76141 0.0
C803 C 0.04426 0.5595 0.73178 0.0
C804 C 0.06534 0.56288 0.80388 0.0
C805 C 0.06747 0.58223 0.81689 0.0
C806 C 0.05684 0.58944 0.78891 0.0
C807 C 0.04534 0.5782 0.74688 0.0
C808 C 0.08219 0.59617 0.85644 0.0
C809 C 0.07537 0.60497 0.89167 0.0
C810 C 0.10321 0.60269 0.8563 0.0
C811 C 0.11155 0.59434 0.81957 0.0
C812 C 0.10892 0.59618 0.76973 0.0
C813 C 0.11625 0.58763 0.73542 0.0
C814 C 0.12653 0.57749 0.75054 0.0
C815 C 0.12966 0.57607 0.80002 0.0
C816 C 0.1223 0.58454 0.83447 0.0
H817 H 0.13215 0.57085 0.72392 0.0
H818 H 0.05919 0.65393 0.05204 0.0
H819 H 0.50648 0.16125 0.09723 0.0
H820 H 0.50802 0.1312 0.06547 0.0
H821 H 0.44712 0.10507 0.99982 0.0
H822 H 0.44478 0.13412 0.03477 0.0
H823 H 0.45213 0.07522 0.02833 0.0
H824 H 0.49165 0.13568 0.93789 0.0
H825 H 0.5188 0.17142 0.92796 0.0
H826 H 0.56384 0.15682 0.97966 0.0
H827 H 0.53689 0.12103 0.99042 0.0
H828 H 0.44963 0.02963 0.79859 0.0
H829 H 0.45017 0.04969 0.8712 0.0
H830 H 0.50636 0.05416 0.92471 0.0
H831 H 0.5058 0.03379 0.85202 0.0
H832 H 0.50801 0.09221 0.91838 0.0
H833 H 0.46664 0.02821 0.98595 0.0
H834 H 0.43828 0.99236 0.98514 0.0
H835 H 0.39523 0.01332 0.96789 0.0
H836 H 0.42332 0.04929 0.96763 0.0
C837 C 0.4932 0.14892 0.07708 0.0
C838 C 0.47564 0.15043 0.06779 0.0
C839 C 0.49419 0.13179 0.05852 0.0
C840 C 0.47787 0.11609 0.02923 0.0
C841 C 0.45998 0.11704 0.022 0.0
C842 C 0.45882 0.13392 0.04132 0.0
C843 C 0.47985 0.0996 0.00245 0.0
C844 C 0.46437 0.07892 0.00435 0.0
C845 C 0.49609 0.10431 0.97201 0.0
C846 C 0.51227 0.1258 0.96561 0.0
C847 C 0.50734 0.14015 0.94748 0.0
C848 C 0.52268 0.1604 0.94165 0.0
C849 C 0.54302 0.16641 0.95336 0.0
C850 C 0.54807 0.15216 0.97076 0.0
C851 C 0.53277 0.1319 0.97674 0.0
C852 C 0.46192 0.03456 0.82619 0.0
C853 C 0.47778 0.03032 0.81953 0.0
C854 C 0.46214 0.0459 0.86779 0.0
C855 C 0.47828 0.05332 0.90329 0.0
C856 C 0.49375 0.04845 0.89772 0.0
C857 C 0.49337 0.03681 0.85634 0.0
C858 C 0.47995 0.06805 0.94303 0.0
C859 C 0.49612 0.08841 0.94349 0.0
C860 C 0.46417 0.06306 0.97484 0.0
C861 C 0.44714 0.0415 0.97663 0.0
C862 C 0.45113 0.02519 0.98178 0.0
C863 C 0.4351 0.00484 0.98149 0.0
C864 C 0.41497 0.00057 0.97641 0.0
C865 C 0.41083 0.01666 0.97184 0.0
C866 C 0.42682 0.03705 0.972 0.0
H867 H 0.40257 0.98479 0.97607 0.0
H868 H 0.55489 0.18209 0.94881 0.0
H869 H 0.3407 0.51845 0.98635 0.0
H870 H 0.3643 0.51944 0.92651 0.0
H871 H 0.34436 0.45531 0.94426 0.0
H872 H 0.32057 0.45417 0.00382 0.0
H873 H 0.38743 0.48098 0.9448 0.0
H874 H 0.32709 0.46563 0.84843 0.0
H875 H 0.2991 0.47112 0.82015 0.0
H876 H 0.34237 0.53037 0.7727 0.0
H877 H 0.37065 0.52536 0.8014 0.0
H878 H 0.41768 0.46778 0.68889 0.0
H879 H 0.39185 0.4674 0.74067 0.0
H880 H 0.43885 0.51814 0.83173 0.0
H881 H 0.46465 0.51878 0.78051 0.0
H882 H 0.38066 0.49673 0.77462 0.0
H883 H 0.42896 0.50587 0.94852 0.0
H884 H 0.45634 0.49918 0.97553 0.0
H885 H 0.43537 0.44937 0.86578 0.0
H886 H 0.40773 0.45561 0.83848 0.0
C887 C 0.34147 0.50461 0.97778 0.0
C888 C 0.32879 0.48623 0.99983 0.0
C889 C 0.35486 0.50516 0.94338 0.0
C890 C 0.35602 0.48742 0.93073 0.0
C891 C 0.3437 0.46917 0.95343 0.0
C892 C 0.33007 0.46852 0.98728 0.0
C893 C 0.37 0.48789 0.8936 0.0
C894 C 0.38595 0.48444 0.90764 0.0
C895 C 0.36796 0.49217 0.84492 0.0
C896 C 0.35099 0.49521 0.82752 0.0
C897 C 0.33065 0.47991 0.83237 0.0
C898 C 0.31473 0.48292 0.81619 0.0
C899 C 0.31896 0.50111 0.79476 0.0
C900 C 0.33912 0.5163 0.78937 0.0
C901 C 0.3551 0.51338 0.80556 0.0
C902 C 0.42249 0.47915 0.71931 0.0
C903 C 0.44332 0.49311 0.73077 0.0
C904 C 0.40769 0.4789 0.74888 0.0
C905 C 0.41346 0.49248 0.79057 0.0
C906 C 0.43407 0.50732 0.80016 0.0
C907 C 0.44882 0.50769 0.77057 0.0
C908 C 0.39829 0.49022 0.82612 0.0
C909 C 0.38215 0.49332 0.81182 0.0
C910 C 0.40005 0.48548 0.87454 0.0
C911 C 0.41637 0.48131 0.89129 0.0
C912 C 0.43013 0.49342 0.93034 0.0
C913 C 0.44571 0.48972 0.94565 0.0
C914 C 0.44762 0.47389 0.92231 0.0
C915 C 0.43391 0.46167 0.88371 0.0
C916 C 0.4183 0.4653 0.86827 0.0
H917 H 0.45971 0.47107 0.93418 0.0
H918 H 0.30661 0.50341 0.78223 0.0
H919 H 0.87259 0.33598 0.05283 0.0
H920 H 0.90128 0.36318 0.01306 0.0
H921 H 0.87767 0.32804 0.87536 0.0
H922 H 0.84875 0.30093 0.91487 0.0
H923 H 0.9207 0.34326 0.90136 0.0
H924 H 0.87154 0.36627 0.89126 0.0
H925 H 0.84784 0.37656 0.92409 0.0
H926 H 0.89692 0.42595 0.01257 0.0
H927 H 0.92088 0.41571 0.98092 0.0
H928 H 0.97347 0.41152 0.72476 0.0
H929 H 0.94982 0.38671 0.77752 0.0
H930 H 0.97075 0.43414 0.89441 0.0
H931 H 0.99415 0.45951 0.8408 0.0
H932 H 0.93129 0.41379 0.88793 0.0
H933 H 0.98123 0.3932 0.89525 0.0
H934 H 0.00551 0.38333 0.86431 0.0
H935 H 0.95651 0.33012 0.78528 0.0
H936 H 0.93194 0.33981 0.81518 0.0
C937 C 0.87354 0.33412 0.01405 0.0
C938 C 0.85853 0.31641 0.98679 0.0
C939 C 0.88985 0.34965 0.99144 0.0
C940 C 0.89153 0.34756 0.94137 0.0
C941 C 0.87659 0.32988 0.91408 0.0
C942 C 0.86007 0.3145 0.93654 0.0
C943 C 0.90907 0.36368 0.91749 0.0
C944 C 0.92299 0.35865 0.89796 0.0
C945 C 0.91236 0.38393 0.91495 0.0
C946 C 0.89795 0.39002 0.93426 0.0
C947 C 0.87724 0.37916 0.91818 0.0
C948 C 0.86377 0.38502 0.93648 0.0
C949 C 0.87085 0.40182 0.97059 0.0
C950 C 0.89144 0.41288 0.98631 0.0
C951 C 0.90498 0.40705 0.9682 0.0
C952 C 0.97338 0.41673 0.7619 0.0
C953 C 0.98575 0.43759 0.77843 0.0
C954 C 0.95984 0.4024 0.79223 0.0
C955 C 0.95863 0.40843 0.84025 0.0
C956 C 0.97142 0.42911 0.8575 0.0
C957 C 0.98486 0.44357 0.82688 0.0
C958 C 0.94293 0.39337 0.8708 0.0
C959 C 0.92929 0.39854 0.89176 0.0
C960 C 0.94003 0.37329 0.87519 0.0
C961 C 0.95475 0.36733 0.85725 0.0
C962 C 0.97564 0.37947 0.87102 0.0
C963 C 0.98945 0.37389 0.8537 0.0
C964 C 0.98256 0.35613 0.82279 0.0
C965 C 0.96183 0.34388 0.80922 0.0
C966 C 0.94794 0.34939 0.82641 0.0
H967 H 0.99328 0.35184 0.80941 0.0
H968 H 0.86038 0.40631 0.98474 0.0
H969 H 0.82504 0.48143 0.91192 0.0
H970 H 0.84852 0.48029 0.85578 0.0
H971 H 0.88935 0.54564 0.88617 0.0
H972 H 0.86508 0.54731 0.93895 0.0
H973 H 0.89012 0.53837 0.797 0.0
H974 H 0.8962 0.50602 0.93622 0.0
H975 H 0.88556 0.48156 0.00073 0.0
H976 H 0.86364 0.43074 0.89344 0.0
H977 H 0.87384 0.4549 0.82816 0.0
H978 H 0.9819 0.52811 0.77561 0.0
H979 H 0.9532 0.52912 0.81001 0.0
H980 H 0.91573 0.49703 0.6798 0.0
H981 H 0.94488 0.49651 0.6441 0.0
H982 H 0.91112 0.48564 0.81 0.0
H983 H 0.90679 0.52456 0.67011 0.0
H984 H 0.92397 0.55334 0.61692 0.0
H985 H 0.95036 0.59624 0.74178 0.0
H986 H 0.93345 0.56769 0.79573 0.0
C987 C 0.83882 0.49569 0.90621 0.0
C988 C 0.843 0.51449 0.9304 0.0
C989 C 0.85245 0.49493 0.87446 0.0
C990 C 0.87097 0.5128 0.86709 0.0
C991 C 0.87522 0.53158 0.89111 0.0
C992 C 0.86139 0.53245 0.92208 0.0
C993 C 0.88594 0.51194 0.83467 0.0
C994 C 0.89455 0.52672 0.79992 0.0
C995 C 0.89202 0.49689 0.83818 0.0
C996 C 0.88552 0.48226 0.87727 0.0
C997 C 0.8889 0.48962 0.92634 0.0
C998 C 0.88299 0.47581 0.96304 0.0
C999 C 0.87386 0.45461 0.95118 0.0
C1000 C 0.87065 0.44716 0.90256 0.0
C1001 C 0.87648 0.46091 0.86569 0.0
C1002 C 0.96765 0.52155 0.75385 0.0
C1003 C 0.96554 0.51205 0.70734 0.0
C1004 C 0.9513 0.5222 0.77356 0.0
C1005 C 0.93241 0.51321 0.74746 0.0
C1006 C 0.93031 0.50428 0.70025 0.0
C1007 C 0.9469 0.50396 0.67996 0.0
C1008 C 0.91477 0.51171 0.77232 0.0
C1009 C 0.906 0.49675 0.80629 0.0
C1010 C 0.90907 0.52693 0.76927 0.0
C1011 C 0.91907 0.544 0.73684 0.0
C1012 C 0.91642 0.5401 0.68617 0.0
C1013 C 0.92606 0.55636 0.6559 0.0
C1014 C 0.93832 0.57657 0.67592 0.0
C1015 C 0.94089 0.58058 0.7263 0.0
C1016 C 0.93127 0.56438 0.75673 0.0
H1017 H 0.94577 0.58912 0.6524 0.0
H1018 H 0.86932 0.44397 0.97968 0.0
H1019 H 0.29037 0.85885 0.91135 0.0
H1020 H 0.3142 0.87922 0.85094 0.0
H1021 H 0.35914 0.86626 0.91334 0.0
H1022 H 0.33531 0.84565 0.97315 0.0
H1023 H 0.37352 0.90927 0.89431 0.0
H1024 H 0.33477 0.83988 0.81677 0.0
H1025 H 0.30305 0.80851 0.78648 0.0
H1026 H 0.28866 0.84425 0.69224 0.0
H1027 H 0.32017 0.87591 0.72256 0.0
H1028 H 0.44778 0.93576 0.73252 0.0
H1029 H 0.41849 0.9116 0.77483 0.0
H1030 H 0.38016 0.92876 0.69443 0.0
H1031 H 0.4095 0.95327 0.65184 0.0
H1032 H 0.36034 0.88547 0.71945 0.0
H1033 H 0.39756 0.95401 0.79123 0.0
H1034 H 0.42795 0.98682 0.82065 0.0
H1035 H 0.44334 0.95522 0.92532 0.0
H1036 H 0.41324 0.92209 0.89581 0.0
C1037 C 0.30541 0.86053 0.9123 0.0
C1038 C 0.31106 0.85072 0.94676 0.0
C1039 C 0.31891 0.87203 0.87773 0.0
C1040 C 0.33834 0.87411 0.87764 0.0
C1041 C 0.34419 0.86478 0.91285 0.0
C1042 C 0.33059 0.853 0.94682 0.0
C1043 C 0.35265 0.88586 0.8407 0.0
C1044 C 0.37073 0.90398 0.85618 0.0
C1045 C 0.34858 0.87933 0.79071 0.0
C1046 C 0.32969 0.8603 0.77238 0.0
C1047 C 0.32474 0.84109 0.78995 0.0
C1048 C 0.30682 0.82324 0.7727 0.0
C1049 C 0.29381 0.8244 0.73757 0.0
C1050 C 0.29873 0.84339 0.71952 0.0
C1051 C 0.31662 0.86128 0.73671 0.0
C1052 C 0.43304 0.934 0.7225 0.0
C1053 C 0.43114 0.94695 0.68982 0.0
C1054 C 0.41631 0.92018 0.74691 0.0
C1055 C 0.39737 0.91889 0.73869 0.0
C1056 C 0.39476 0.92977 0.70164 0.0
C1057 C 0.41158 0.94376 0.67733 0.0
C1058 C 0.38143 0.90852 0.77338 0.0
C1059 C 0.36306 0.89079 0.75755 0.0
C1060 C 0.38502 0.91563 0.82302 0.0
C1061 C 0.40326 0.93549 0.84084 0.0
C1062 C 0.40756 0.95399 0.82011 0.0
C1063 C 0.42471 0.97266 0.83688 0.0
C1064 C 0.43761 0.9731 0.87472 0.0
C1065 C 0.43336 0.95485 0.89592 0.0
C1066 C 0.41625 0.93611 0.87917 0.0
H1067 H 0.45086 0.98758 0.88772 0.0
H1068 H 0.27995 0.81057 0.72424 0.0
H1069 H 0.48687 0.31006 0.94787 0.0
H1070 H 0.49137 0.34003 0.90658 0.0
H1071 H 0.49599 0.37185 0.04455 0.0
H1072 H 0.49015 0.34136 0.08603 0.0
H1073 H 0.47337 0.37821 0.98413 0.0
H1074 H 0.53852 0.38488 0.97782 0.0
H1075 H 0.56413 0.3744 0.96416 0.0
H1076 H 0.54541 0.36145 0.81232 0.0
H1077 H 0.51946 0.37156 0.82516 0.0
H1078 H 0.5039 0.46928 0.84756 0.0
H1079 H 0.50671 0.44693 0.90627 0.0
H1080 H 0.48465 0.39731 0.79468 0.0
H1081 H 0.48151 0.41922 0.73627 0.0
H1082 H 0.52133 0.40582 0.85303 0.0
H1083 H 0.4526 0.39545 0.86761 0.0
H1084 H 0.42945 0.40894 0.88381 0.0
H1085 H 0.45887 0.43267 0.02596 0.0
H1086 H 0.48241 0.41959 0.01027 0.0
C1087 C 0.48868 0.32334 0.9695 0.0
C1088 C 0.48821 0.32328 0.02032 0.0
C1089 C 0.49155 0.34062 0.94586 0.0
C1090 C 0.49444 0.35839 0.9725 0.0
C1091 C 0.49397 0.35839 0.02324 0.0
C1092 C 0.49085 0.34101 0.04692 0.0
C1093 C 0.49718 0.37658 0.94692 0.0
C1094 C 0.48417 0.3845 0.95619 0.0
C1095 C 0.51133 0.38496 0.91058 0.0
C1096 C 0.52694 0.37886 0.90255 0.0
C1097 C 0.53976 0.37966 0.94157 0.0
C1098 C 0.55436 0.3738 0.93396 0.0
C1099 C 0.55637 0.36723 0.88742 0.0
C1100 C 0.54382 0.36654 0.84836 0.0
C1101 C 0.52918 0.37236 0.85577 0.0
C1102 C 0.4996 0.45359 0.83566 0.0
C1103 C 0.49234 0.44595 0.7874 0.0
C1104 C 0.50125 0.4409 0.86914 0.0
C1105 C 0.49592 0.42056 0.85455 0.0
C1106 C 0.48889 0.41302 0.80642 0.0
C1107 C 0.48695 0.42552 0.77325 0.0
C1108 C 0.49708 0.40668 0.88923 0.0
C1109 C 0.51085 0.39968 0.88169 0.0
C1110 C 0.48395 0.39947 0.92769 0.0
C1111 C 0.46939 0.40674 0.93759 0.0
C1112 C 0.4542 0.40365 0.90221 0.0
C1113 C 0.44101 0.41121 0.9113 0.0
C1114 C 0.44272 0.42171 0.95583 0.0
C1115 C 0.45758 0.42457 0.99145 0.0
C1116 C 0.47084 0.41707 0.9825 0.0
H1117 H 0.43252 0.42759 0.96277 0.0
H1118 H 0.56769 0.3627 0.8816 0.0
H1119 H 0.1647 0.45867 0.95495 0.0
H1120 H 0.14649 0.46299 0.88599 0.0
H1121 H 0.18 0.52897 0.91668 0.0
H1122 H 0.19913 0.52502 0.98416 0.0
H1123 H 0.13547 0.50927 0.90336 0.0
H1124 H 0.19327 0.51304 0.82666 0.0
H1125 H 0.2169 0.50072 0.80554 0.0
H1126 H 0.16735 0.44533 0.73494 0.0
H1127 H 0.14334 0.45716 0.75634 0.0
H1128 H 0.08908 0.52789 0.71131 0.0
H1129 H 0.11953 0.53191 0.75482 0.0
H1130 H 0.09976 0.46783 0.71806 0.0
H1131 H 0.06979 0.46397 0.67247 0.0
H1132 H 0.14046 0.48966 0.73242 0.0
H1133 H 0.08251 0.48134 0.8141 0.0
H1134 H 0.05623 0.48993 0.83577 0.0
H1135 H 0.10235 0.54857 0.90151 0.0
H1136 H 0.12905 0.54065 0.87863 0.0
C1137 C 0.16846 0.47415 0.94677 0.0
C1138 C 0.18348 0.49149 0.97525 0.0
C1139 C 0.15797 0.47655 0.90743 0.0
C1140 C 0.1621 0.49629 0.89616 0.0
C1141 C 0.17669 0.51361 0.9249 0.0
C1142 C 0.18743 0.51127 0.96379 0.0
C1143 C 0.15065 0.49876 0.85522 0.0
C1144 C 0.13686 0.50544 0.86586 0.0
C1145 C 0.15204 0.49301 0.80664 0.0
C1146 C 0.16647 0.48591 0.79356 0.0
C1147 C 0.18737 0.49814 0.80705 0.0
C1148 C 0.20085 0.49126 0.79494 0.0
C1149 C 0.19362 0.47223 0.76903 0.0
C1150 C 0.17292 0.46006 0.75506 0.0
C1151 C 0.15937 0.46686 0.76715 0.0
C1152 C 0.0917 0.51491 0.71076 0.0
C1153 C 0.07689 0.49548 0.68969 0.0
C1154 C 0.10906 0.51722 0.73568 0.0
C1155 C 0.11148 0.49998 0.74104 0.0
C1156 C 0.09807 0.48128 0.71469 0.0
C1157 C 0.08091 0.47907 0.68874 0.0
C1158 C 0.12535 0.50033 0.7805 0.0
C1159 C 0.1394 0.49395 0.76978 0.0
C1160 C 0.12382 0.50581 0.82937 0.0
C1161 C 0.10782 0.51054 0.8439 0.0
C1162 C 0.08709 0.49618 0.83268 0.0
C1163 C 0.07212 0.50095 0.84508 0.0
C1164 C 0.07765 0.51988 0.86962 0.0
C1165 C 0.09815 0.53402 0.88203 0.0
C1166 C 0.11321 0.52942 0.86925 0.0
H1167 H 0.06604 0.52354 0.87927 0.0
H1168 H 0.20408 0.46693 0.75967 0.0
H1169 H 0.70999 0.14027 0.96028 0.0
H1170 H 0.68293 0.11464 0.90267 0.0
H1171 H 0.64907 0.1465 0.92069 0.0
H1172 H 0.67575 0.1718 0.97862 0.0
H1173 H 0.62482 0.10502 0.92083 0.0
H1174 H 0.67789 0.15395 0.82455 0.0
H1175 H 0.71287 0.17287 0.79752 0.0
H1176 H 0.70948 0.11553 0.75284 0.0
H1177 H 0.67456 0.09625 0.78025 0.0
H1178 H 0.55545 0.07395 0.72337 0.0
H1179 H 0.58681 0.09695 0.77299 0.0
H1180 H 0.60899 0.05472 0.74448 0.0
H1181 H 0.57753 0.03169 0.69464 0.0
H1182 H 0.64006 0.09774 0.75001 0.0
H1183 H 0.58628 0.04883 0.84072 0.0
H1184 H 0.55137 0.02973 0.86804 0.0
H1185 H 0.55627 0.08647 0.92432 0.0
H1186 H 0.59108 0.10602 0.89638 0.0
C1187 C 0.6966 0.14156 0.95241 0.0
C1188 C 0.69498 0.15806 0.97354 0.0
C1189 C 0.68128 0.12706 0.91928 0.0
C1190 C 0.66416 0.12887 0.90703 0.0
C1191 C 0.66221 0.14489 0.92953 0.0
C1192 C 0.67749 0.15938 0.96237 0.0
C1193 C 0.64831 0.11446 0.87004 0.0
C1194 C 0.62814 0.10352 0.88344 0.0
C1195 C 0.65278 0.11208 0.8216 0.0
C1196 C 0.67372 0.12366 0.80498 0.0
C1197 C 0.68467 0.14537 0.80934 0.0
C1198 C 0.70447 0.15616 0.79388 0.0
C1199 C 0.71341 0.1454 0.77362 0.0
C1200 C 0.70255 0.12384 0.76864 0.0
C1201 C 0.68275 0.11297 0.78411 0.0
C1202 C 0.56741 0.07006 0.72627 0.0
C1203 C 0.56443 0.05136 0.70509 0.0
C1204 C 0.58517 0.08305 0.75477 0.0
C1205 C 0.60001 0.07733 0.76277 0.0
C1206 C 0.5977 0.05936 0.73857 0.0
C1207 C 0.57985 0.04631 0.7101 0.0
C1208 C 0.61659 0.08888 0.80066 0.0
C1209 C 0.63682 0.09912 0.78752 0.0
C1210 C 0.61223 0.0906 0.84949 0.0
C1211 C 0.59125 0.07891 0.8661 0.0
C1212 C 0.57985 0.05728 0.85847 0.0
C1213 C 0.5601 0.04636 0.87415 0.0
C1214 C 0.55165 0.05688 0.89799 0.0
C1215 C 0.56287 0.07835 0.90591 0.0
C1216 C 0.58261 0.08936 0.89015 0.0
H1217 H 0.53645 0.04837 0.91054 0.0
H1218 H 0.72874 0.15378 0.76166 0.0
H1219 H 0.57034 0.70084 0.96971 0.0
H1220 H 0.57261 0.67187 0.93316 0.0
H1221 H 0.5072 0.63669 0.91018 0.0
H1222 H 0.50469 0.66522 0.94905 0.0
H1223 H 0.5227 0.612 0.93399 0.0
H1224 H 0.53601 0.66464 0.82151 0.0
H1225 H 0.55381 0.70004 0.79421 0.0
H1226 H 0.61062 0.70048 0.8043 0.0
H1227 H 0.59317 0.66515 0.8323 0.0
H1228 H 0.50401 0.54783 0.72247 0.0
H1229 H 0.50738 0.57106 0.79087 0.0
H1230 H 0.5728 0.60324 0.7842 0.0
H1231 H 0.5693 0.5807 0.71325 0.0
H1232 H 0.56111 0.62929 0.78488 0.0
H1233 H 0.54564 0.57319 0.88492 0.0
H1234 H 0.52624 0.537 0.90649 0.0
H1235 H 0.47239 0.54182 0.91612 0.0
H1236 H 0.49142 0.57802 0.89425 0.0
C1237 C 0.55639 0.68678 0.95799 0.0
C1238 C 0.53733 0.68544 0.96172 0.0
C1239 C 0.55773 0.67027 0.93687 0.0
C1240 C 0.54009 0.65228 0.91837 0.0
C1241 C 0.521 0.65048 0.92415 0.0
C1242 C 0.51962 0.66691 0.94567 0.0
C1243 C 0.54161 0.63625 0.88862 0.0
C1244 C 0.53109 0.61569 0.90137 0.0
C1245 C 0.55286 0.6412 0.84661 0.0
C1246 C 0.56334 0.66238 0.82954 0.0
C1247 C 0.55232 0.67235 0.81824 0.0
C1248 C 0.56234 0.69238 0.8026 0.0
C1249 C 0.58334 0.70252 0.79767 0.0
C1250 C 0.59436 0.69262 0.80824 0.0
C1251 C 0.58442 0.6726 0.82398 0.0
C1252 C 0.51914 0.55958 0.73625 0.0
C1253 C 0.5364 0.56264 0.71246 0.0
C1254 C 0.52108 0.57277 0.77575 0.0
C1255 C 0.54038 0.58879 0.79331 0.0
C1256 C 0.55775 0.59101 0.7713 0.0
C1257 C 0.55576 0.57817 0.73084 0.0
C1258 C 0.54217 0.6048 0.82988 0.0
C1259 C 0.55319 0.62548 0.81821 0.0
C1260 C 0.53129 0.59985 0.87264 0.0
C1261 C 0.51998 0.57834 0.88781 0.0
C1262 C 0.52966 0.56655 0.89163 0.0
C1263 C 0.51873 0.54603 0.90389 0.0
C1264 C 0.4981 0.53713 0.91263 0.0
C1265 C 0.48838 0.54877 0.90943 0.0
C1266 C 0.49926 0.56931 0.89727 0.0
H1267 H 0.48965 0.52121 0.92189 0.0
H1268 H 0.59107 0.71803 0.78555 0.0
H1269 H 0.49314 0.17441 0.29967 0.0
H1270 H 0.49754 0.14852 0.34114 0.0
H1271 H 0.43237 0.11051 0.34494 0.0
H1272 H 0.42786 0.13647 0.3035 0.0
H1273 H 0.4536 0.11652 0.43419 0.0
H1274 H 0.45595 0.09644 0.26859 0.0
H1275 H 0.46808 0.10233 0.18588 0.0
H1276 H 0.52858 0.12071 0.242 0.0
H1277 H 0.51689 0.11528 0.32522 0.0
H1278 H 0.45115 0.03083 0.52667 0.0
H1279 H 0.4461 0.05147 0.46782 0.0
H1280 H 0.511 0.08727 0.45471 0.0
H1281 H 0.51613 0.06609 0.5129 0.0
H1282 H 0.4898 0.08189 0.3677 0.0
H1283 H 0.48866 0.10451 0.53218 0.0
H1284 H 0.47764 0.10035 0.61598 0.0
H1285 H 0.41612 0.07904 0.56265 0.0
H1286 H 0.42673 0.08279 0.47843 0.0
C1287 C 0.47976 0.16057 0.30959 0.0
C1288 C 0.46016 0.15748 0.29882 0.0
C1289 C 0.48229 0.14573 0.33277 0.0
C1290 C 0.46527 0.12757 0.34567 0.0
C1291 C 0.44567 0.12442 0.33501 0.0
C1292 C 0.44312 0.13919 0.31135 0.0
C1293 C 0.46804 0.11235 0.37238 0.0
C1294 C 0.46118 0.10866 0.41934 0.0
C1295 C 0.47855 0.10268 0.3534 0.0
C1296 C 0.48557 0.10563 0.30326 0.0
C1297 C 0.47187 0.10189 0.26338 0.0
C1298 C 0.47866 0.10513 0.21637 0.0
C1299 C 0.49909 0.11194 0.2087 0.0
C1300 C 0.51276 0.11546 0.24801 0.0
C1301 C 0.50605 0.11228 0.29511 0.0
C1302 C 0.46435 0.04292 0.51082 0.0
C1303 C 0.48408 0.04717 0.52507 0.0
C1304 C 0.46143 0.05469 0.47716 0.0
C1305 C 0.4782 0.07124 0.4579 0.0
C1306 C 0.49786 0.07465 0.46946 0.0
C1307 C 0.50078 0.0626 0.50274 0.0
C1308 C 0.47517 0.08594 0.42939 0.0
C1309 C 0.48208 0.08964 0.38234 0.0
C1310 C 0.46486 0.09584 0.44835 0.0
C1311 C 0.45846 0.09375 0.49899 0.0
C1312 C 0.47276 0.09881 0.53831 0.0
C1313 C 0.46659 0.09654 0.58588 0.0
C1314 C 0.44618 0.08939 0.59463 0.0
C1315 C 0.43191 0.08455 0.55581 0.0
C1316 C 0.438 0.08676 0.50816 0.0
H1317 H 0.44143 0.08764 0.63148 0.0
H1318 H 0.50432 0.11446 0.17229 0.0
H1319 H 0.33672 0.47177 0.27952 0.0
H1320 H 0.35537 0.46768 0.34769 0.0
H1321 H 0.32499 0.48734 0.44806 0.0
H1322 H 0.30603 0.49123 0.37986 0.0
H1323 H 0.36541 0.50812 0.46739 0.0
H1324 H 0.31485 0.43779 0.44591 0.0
H1325 H 0.29142 0.40428 0.40211 0.0
H1326 H 0.34225 0.40029 0.35088 0.0
H1327 H 0.366 0.43392 0.39359 0.0
H1328 H 0.44496 0.50267 0.60646 0.0
H1329 H 0.40925 0.49366 0.58967 0.0
H1330 H 0.4117 0.47424 0.44181 0.0
H1331 H 0.44665 0.48296 0.45795 0.0
H1332 H 0.37555 0.4479 0.47983 0.0
H1333 H 0.422 0.52381 0.4717 0.0
H1334 H 0.44648 0.55799 0.51145 0.0
H1335 H 0.40338 0.55067 0.6169 0.0
H1336 H 0.37873 0.51636 0.57787 0.0
C1337 C 0.33372 0.47486 0.31608 0.0
C1338 C 0.31999 0.48193 0.32423 0.0
C1339 C 0.34433 0.47245 0.35507 0.0
C1340 C 0.34132 0.47691 0.40301 0.0
C1341 C 0.32744 0.48372 0.41138 0.0
C1342 C 0.31678 0.4861 0.37234 0.0
C1343 C 0.35423 0.47627 0.44348 0.0
C1344 C 0.36718 0.49472 0.47129 0.0
C1345 C 0.35644 0.45876 0.44893 0.0
C1346 C 0.34223 0.43844 0.42306 0.0
C1347 C 0.32105 0.42984 0.42508 0.0
C1348 C 0.3077 0.4108 0.40043 0.0
C1349 C 0.31534 0.40016 0.37373 0.0
C1350 C 0.33635 0.40853 0.37163 0.0
C1351 C 0.34976 0.42757 0.39615 0.0
C1352 C 0.43772 0.49632 0.57059 0.0
C1353 C 0.44871 0.49393 0.53326 0.0
C1354 C 0.41738 0.49113 0.56113 0.0
C1355 C 0.40788 0.48329 0.51448 0.0
C1356 C 0.41866 0.48013 0.47813 0.0
C1357 C 0.4388 0.48542 0.48731 0.0
C1358 C 0.38752 0.48011 0.50032 0.0
C1359 C 0.37306 0.46092 0.47765 0.0
C1360 C 0.38397 0.49692 0.49922 0.0
C1361 C 0.39867 0.51753 0.52228 0.0
C1362 C 0.41781 0.52949 0.50348 0.0
C1363 C 0.4317 0.54887 0.52585 0.0
C1364 C 0.42651 0.55647 0.56676 0.0
C1365 C 0.4074 0.54474 0.58528 0.0
C1366 C 0.39347 0.52534 0.56306 0.0
H1367 H 0.43728 0.57147 0.58405 0.0
H1368 H 0.30497 0.38542 0.35469 0.0
H1369 H 0.88044 0.32679 0.20841 0.0
H1370 H 0.90927 0.35764 0.24956 0.0
H1371 H 0.86829 0.37761 0.30076 0.0
H1372 H 0.83949 0.34707 0.258 0.0
H1373 H 0.90437 0.41037 0.28184 0.0
H1374 H 0.88109 0.34934 0.37014 0.0
H1375 H 0.87174 0.31322 0.38125 0.0
H1376 H 0.93249 0.32729 0.353 0.0
H1377 H 0.94212 0.36345 0.34097 0.0
H1378 H 0.95688 0.46573 0.50376 0.0
H1379 H 0.93431 0.4445 0.43453 0.0
H1380 H 0.97608 0.4229 0.40093 0.0
H1381 H 0.99786 0.44294 0.47291 0.0
H1382 H 0.94113 0.39225 0.40437 0.0
H1383 H 0.9648 0.45633 0.32647 0.0
H1384 H 0.97233 0.49233 0.32316 0.0
H1385 H 0.90933 0.47289 0.3391 0.0
H1386 H 0.90145 0.43683 0.34326 0.0
C1387 C 0.8777 0.33796 0.22795 0.0
C1388 C 0.85787 0.33455 0.231 0.0
C1389 C 0.89411 0.35554 0.25122 0.0
C1390 C 0.89082 0.36965 0.27894 0.0
C1391 C 0.87112 0.36688 0.27958 0.0
C1392 C 0.85472 0.34943 0.25552 0.0
C1393 C 0.90742 0.38584 0.3116 0.0
C1394 C 0.91248 0.40651 0.30869 0.0
C1395 C 0.91796 0.38072 0.34646 0.0
C1396 C 0.91225 0.35903 0.35413 0.0
C1397 C 0.89241 0.34469 0.36597 0.0
C1398 C 0.88707 0.32422 0.37246 0.0
C1399 C 0.90149 0.31795 0.3677 0.0
C1400 C 0.92132 0.33216 0.35658 0.0
C1401 C 0.92673 0.35264 0.34993 0.0
C1402 C 0.96138 0.45671 0.48097 0.0
C1403 C 0.97891 0.45571 0.49355 0.0
C1404 C 0.94858 0.44474 0.44106 0.0
C1405 C 0.95358 0.43225 0.41194 0.0
C1406 C 0.97186 0.43236 0.42291 0.0
C1407 C 0.98429 0.44377 0.46388 0.0
C1408 C 0.93861 0.4171 0.37432 0.0
C1409 C 0.93357 0.39641 0.37673 0.0
C1410 C 0.92797 0.42228 0.33968 0.0
C1411 C 0.93256 0.44387 0.33532 0.0
C1412 C 0.95256 0.45973 0.32935 0.0
C1413 C 0.95689 0.48016 0.3274 0.0
C1414 C 0.94132 0.48489 0.33105 0.0
C1415 C 0.92137 0.4692 0.33634 0.0
C1416 C 0.91695 0.44876 0.33838 0.0
H1417 H 0.94471 0.50072 0.32971 0.0
H1418 H 0.89733 0.30209 0.37274 0.0
H1419 H 0.56615 0.87936 0.16513 0.0
H1420 H 0.56929 0.91098 0.20304 0.0
H1421 H 0.50394 0.88331 0.19398 0.0
H1422 H 0.50057 0.85134 0.15728 0.0
H1423 H 0.52718 0.92741 0.17296 0.0
H1424 H 0.52254 0.87982 0.29309 0.0
H1425 H 0.53296 0.85706 0.33138 0.0
H1426 H 0.59362 0.90828 0.36021 0.0
H1427 H 0.58362 0.93127 0.32134 0.0
H1428 H 0.50892 0.98038 0.3683 0.0
H1429 H 0.51071 0.95868 0.30216 0.0
H1430 H 0.5731 0.97912 0.34924 0.0
H1431 H 0.57082 -0.0003 0.41708 0.0
H1432 H 0.55332 0.94028 0.34531 0.0
H1433 H 0.5579 0.98933 0.2347 0.0
H1434 H 0.54852 0.01262 0.19526 0.0
H1435 H 0.49023 0.96095 0.14698 0.0
H1436 H 0.49914 0.93736 0.18674 0.0
C1437 C 0.55243 0.87997 0.17116 0.0
C1438 C 0.53309 0.8627 0.159 0.0
C1439 C 0.55427 0.89813 0.19224 0.0
C1440 C 0.53684 0.89936 0.20133 0.0
C1441 C 0.51756 0.88263 0.18683 0.0
C1442 C 0.51567 0.86438 0.16599 0.0
C1443 C 0.53867 0.91709 0.23118 0.0
C1444 C 0.53278 0.93029 0.21075 0.0
C1445 C 0.54645 0.92096 0.27998 0.0
C1446 C 0.5524 0.90719 0.30383 0.0
C1447 C 0.53814 0.88618 0.30723 0.0
C1448 C 0.54396 0.87325 0.32909 0.0
C1449 C 0.56395 0.88121 0.34808 0.0
C1450 C 0.57815 0.90213 0.34539 0.0
C1451 C 0.57241 0.91511 0.32347 0.0
C1452 C 0.52316 0.98064 0.3636 0.0
C1453 C 0.5397 0.99152 0.3978 0.0
C1454 C 0.52423 0.96831 0.32563 0.0
C1455 C 0.54206 0.96722 0.32064 0.0
C1456 C 0.55913 0.97956 0.35254 0.0
C1457 C 0.55787 0.99137 0.39115 0.0
C1458 C 0.54199 0.95109 0.28737 0.0
C1459 C 0.54805 0.93789 0.30733 0.0
C1460 C 0.53456 0.94746 0.23811 0.0
C1461 C 0.52914 0.96159 0.21407 0.0
C1462 C 0.54302 0.98294 0.21601 0.0
C1463 C 0.5378 0.99619 0.19353 0.0
C1464 C 0.51878 0.98827 0.16872 0.0
C1465 C 0.50496 0.96706 0.16624 0.0
C1466 C 0.51009 0.95374 0.1887 0.0
H1467 H 0.51477 0.99856 0.15133 0.0
H1468 H 0.56843 0.87117 0.365 0.0
H1469 H 0.66759 0.50472 0.17856 0.0
H1470 H 0.64419 0.50305 0.23861 0.0
H1471 H 0.69489 0.54317 0.33909 0.0
H1472 H 0.71844 0.54346 0.28082 0.0
H1473 H 0.66719 0.51642 0.38851 0.0
H1474 H 0.66652 0.56053 0.27043 0.0
H1475 H 0.66379 0.57157 0.18901 0.0
H1476 H 0.60221 0.52143 0.16745 0.0
H1477 H 0.60466 0.50992 0.24853 0.0
H1478 H 0.60369 0.54507 0.52686 0.0
H1479 H 0.63017 0.54461 0.47914 0.0
H1480 H 0.58403 0.49415 0.38578 0.0
H1481 H 0.55758 0.49435 0.43301 0.0
H1482 H 0.61098 0.52843 0.33637 0.0
H1483 H 0.61356 0.48589 0.46092 0.0
H1484 H 0.61739 0.47934 0.54631 0.0
H1485 H 0.67762 0.5322 0.55969 0.0
H1486 H 0.67402 0.53929 0.47452 0.0
C1487 C 0.67388 0.51294 0.21362 0.0
C1488 C 0.69508 0.52437 0.22427 0.0
C1489 C 0.6604 0.51222 0.24787 0.0
C1490 C 0.66769 0.52338 0.29323 0.0
C1491 C 0.6888 0.53453 0.30434 0.0
C1492 C 0.70231 0.53494 0.27046 0.0
C1493 C 0.65328 0.52357 0.32858 0.0
C1494 C 0.65507 0.5193 0.37712 0.0
C1495 C 0.63741 0.52738 0.3142 0.0
C1496 C 0.63585 0.53425 0.26539 0.0
C1497 C 0.65245 0.55177 0.24819 0.0
C1498 C 0.65094 0.55812 0.20212 0.0
C1499 C 0.63286 0.54717 0.17303 0.0
C1500 C 0.61622 0.52988 0.19 0.0
C1501 C 0.61765 0.52344 0.23603 0.0
C1502 C 0.59919 0.53358 0.49684 0.0
C1503 C 0.57845 0.51991 0.48354 0.0
C1504 C 0.61435 0.53336 0.46956 0.0
C1505 C 0.60904 0.51946 0.42864 0.0
C1506 C 0.58845 0.5051 0.41698 0.0
C1507 C 0.57334 0.50521 0.44426 0.0
C1508 C 0.62463 0.52079 0.39553 0.0
C1509 C 0.62312 0.52552 0.34752 0.0
C1510 C 0.64098 0.51794 0.41083 0.0
C1511 C 0.64345 0.51323 0.46144 0.0
C1512 C 0.62759 0.49619 0.48212 0.0
C1513 C 0.62972 0.49237 0.53048 0.0
C1514 C 0.64771 0.50538 0.55843 0.0
C1515 C 0.66368 0.52216 0.53798 0.0
C1516 C 0.66161 0.52607 0.48965 0.0
H1517 H 0.64929 0.50243 0.5959 0.0
H1518 H 0.63172 0.55212 0.13737 0.0
H1519 H 0.17507 0.68959 0.25369 0.0
H1520 H 0.14715 0.66196 0.29358 0.0
H1521 H 0.11187 0.69228 0.27732 0.0
H1522 H 0.1393 0.71957 0.23528 0.0
H1523 H 0.11398 0.67752 0.37387 0.0
H1524 H 0.10196 0.65572 0.20279 0.0
H1525 H 0.1129 0.64839 0.12503 0.0
H1526 H 0.1193 0.60008 0.18648 0.0
H1527 H 0.10956 0.60787 0.26549 0.0
H1528 H 0.02607 0.59608 0.46089 0.0
H1529 H 0.04809 0.62321 0.40899 0.0
H1530 H 0.07698 0.58798 0.36868 0.0
H1531 H 0.05389 0.56024 0.41735 0.0
H1532 H 0.07663 0.6063 0.29629 0.0
H1533 H 0.09668 0.62953 0.4639 0.0
H1534 H 0.09244 0.63777 0.54864 0.0
H1535 H 0.0765 0.68208 0.50117 0.0
H1536 H 0.08041 0.67391 0.41606 0.0
C1537 C 0.16132 0.69034 0.25806 0.0
C1538 C 0.15939 0.70675 0.24081 0.0
C1539 C 0.14545 0.6746 0.28116 0.0
C1540 C 0.12748 0.67508 0.28789 0.0
C1541 C 0.12569 0.69172 0.27235 0.0
C1542 C 0.14144 0.70734 0.24862 0.0
C1543 C 0.11041 0.658 0.31059 0.0
C1544 C 0.10552 0.66198 0.35672 0.0
C1545 C 0.10004 0.63768 0.28857 0.0
C1546 C 0.10519 0.63253 0.24038 0.0
C1547 C 0.1059 0.64367 0.19997 0.0
C1548 C 0.11187 0.63942 0.1556 0.0
C1549 C 0.11664 0.62369 0.15071 0.0
C1550 C 0.11557 0.61225 0.19028 0.0
C1551 C 0.10992 0.61664 0.23496 0.0
C1552 C 0.03689 0.59405 0.44013 0.0
C1553 C 0.0384 0.57619 0.44312 0.0
C1554 C 0.0496 0.60961 0.41085 0.0
C1555 C 0.06468 0.608 0.38595 0.0
C1556 C 0.06555 0.5897 0.38749 0.0
C1557 C 0.05237 0.57385 0.41538 0.0
C1558 C 0.08021 0.62563 0.36036 0.0
C1559 C 0.08486 0.62182 0.31352 0.0
C1560 C 0.09099 0.646 0.3825 0.0
C1561 C 0.0886 0.65093 0.4336 0.0
C1562 C 0.09213 0.64092 0.47153 0.0
C1563 C 0.08981 0.64559 0.51961 0.0
C1564 C 0.08414 0.66039 0.53026 0.0
C1565 C 0.08084 0.67059 0.49286 0.0
C1566 C 0.08312 0.66595 0.44469 0.0
H1567 H 0.08236 0.66399 0.56752 0.0
H1568 H 0.1212 0.6204 0.11626 0.0
loop_
_geom_bond_atom_site_label_1
_geom_bond_atom_site_label_2
_geom_bond_distance
_geom_bond_site_symmetry_2
_ccdc_geom_bond_type
C0 C1 1.384 . S
C0 C2 1.384 . S
C0 H28 0.931 . S
C1 C0 1.384 . S
C1 C4 1.382 . S
C2 C0 1.384 . S
C2 C3 1.381 . S
C2 H29 0.930 . S
C3 C2 1.381 . S
C3 C5 1.381 . S
C3 C6 1.487 . S
C4 C1 1.382 . S
C4 C5 1.387 . S
C4 H30 0.930 . S
C5 C3 1.381 . S
C5 C4 1.387 . S
C5 H31 0.931 . S
C6 C3 1.487 . S
C6 C13 1.399 . S
C6 N44 1.343 . S
C7 C8 1.384 . S
C7 C9 1.384 . S
C7 H32 0.931 . S
C8 C7 1.384 . S
C8 C11 1.382 . S
C9 C7 1.384 . S
C9 C10 1.381 . S
C9 H33 0.930 . S
C10 C9 1.381 . S
C10 C12 1.381 . S
C10 C13 1.487 . S
C11 C8 1.382 . S
C11 C12 1.387 . S
C11 H34 0.930 . S
C12 C10 1.381 . S
C12 C11 1.387 . S
C12 H35 0.931 . S
C13 C6 1.399 . S
C13 C10 1.487 . S
C13 N45 1.343 . S
C14 C15 1.384 . S
C14 C16 1.384 . S
C14 H36 0.931 . S
C15 C14 1.384 . S
C15 C18 1.382 . S
C16 C14 1.384 . S
C16 C17 1.381 . S
C16 H37 0.930 . S
C17 C16 1.381 . S
C17 C19 1.381 . S
C17 C20 1.487 . S
C18 C15 1.382 . S
C18 C19 1.387 . S
C18 H38 0.930 . S
C19 C17 1.381 . S
C19 C18 1.387 . S
C19 H39 0.931 . S
C20 C17 1.487 . S
C20 C27 1.399 . S
C20 N45 1.343 . S
C21 C22 1.384 . S
C21 C23 1.384 . S
C21 H40 0.931 . S
C22 C21 1.384 . S
C22 C25 1.382 . S
C23 C21 1.384 . S
C23 C24 1.381 . S
C23 H41 0.930 . S
C24 C23 1.381 . S
C24 C26 1.381 . S
C24 C27 1.487 . S
C25 C22 1.382 . S
C25 C26 1.387 . S
C25 H42 0.939 . S
C26 C24 1.381 . S
C26 C25 1.387 . S
C26 H43 0.931 . S
C27 C20 1.399 . S
C27 C24 1.487 . S
C27 N44 1.343 . S
H28 C0 0.931 . S
H29 C2 0.930 . S
H30 C4 0.930 . S
H31 C5 0.931 . S
H32 C7 0.931 . S
H33 C9 0.930 . S
H34 C11 0.930 . S
H35 C12 0.931 . S
H36 C14 0.931 . S
H37 C16 0.930 . S
H38 C18 0.930 . S
H39 C19 0.931 . S
H40 C21 0.931 . S
H41 C23 0.930 . S
H42 C25 0.939 . S
H43 C26 0.931 . S
N44 C6 1.343 . S
N44 C27 1.343 . S
N45 C13 1.343 . S
N45 C20 1.343 . S
C46 C47 1.384 . S
C46 C48 1.384 . S
C46 H74 0.931 . S
C47 C46 1.384 . S
C47 C50 1.382 . S
C48 C46 1.384 . S
C48 C49 1.381 . S
C48 H75 0.930 . S
C49 C48 1.381 . S
C49 C51 1.381 . S
C49 C52 1.487 . S
C50 C47 1.382 . S
C50 C51 1.387 . S
C50 H76 0.930 . S
C51 C49 1.381 . S
C51 C50 1.387 . S
C51 H77 0.931 . S
C52 C49 1.487 . S
C52 C59 1.399 . S
C52 N90 1.343 . S
C53 C54 1.384 . S
C53 C55 1.384 . S
C53 H78 0.931 . S
C54 C53 1.384 . S
C54 C57 1.382 . S
C55 C53 1.384 . S
C55 C56 1.381 . S
C55 H79 0.930 . S
C56 C55 1.381 . S
C56 C58 1.381 . S
C56 C59 1.487 . S
C57 C54 1.382 . S
C57 C58 1.387 . S
C57 H80 0.930 1_554 S
C58 C56 1.381 . S
C58 C57 1.387 . S
C58 H81 0.931 . S
C59 C52 1.399 . S
C59 C56 1.487 . S
C59 N91 1.343 . S
C60 C61 1.384 . S
C60 C62 1.384 . S
C60 H82 0.931 . S
C61 C60 1.384 . S
C61 C64 1.382 . S
C62 C60 1.384 . S
C62 C63 1.381 . S
C62 H83 0.930 . S
C63 C62 1.381 . S
C63 C65 1.381 . S
C63 C66 1.487 . S
C64 C61 1.382 . S
C64 C65 1.387 . S
C64 H84 0.930 1_554 S
C65 C63 1.381 . S
C65 C64 1.387 . S
C65 H85 0.931 . S
C66 C63 1.487 . S
C66 C73 1.399 . S
C66 N91 1.343 . S
C67 C68 1.384 . S
C67 C69 1.384 . S
C67 H86 0.931 . S
C68 C67 1.384 . S
C68 C71 1.382 . S
C69 C67 1.384 . S
C69 C70 1.381 . S
C69 H87 0.930 . S
C70 C69 1.381 . S
C70 C72 1.381 . S
C70 C73 1.487 . S
C71 C68 1.382 . S
C71 C72 1.387 . S
C71 H88 0.930 . S
C72 C70 1.381 . S
C72 C71 1.387 . S
C72 H89 0.931 . S
C73 C66 1.399 . S
C73 C70 1.487 . S
C73 N90 1.343 . S
H74 C46 0.931 . S
H75 C48 0.930 . S
H76 C50 0.930 . S
H77 C51 0.931 . S
H78 C53 0.931 . S
H79 C55 0.930 . S
H80 C57 0.930 1_556 S
H81 C58 0.931 . S
H82 C60 0.931 . S
H83 C62 0.930 . S
H84 C64 0.930 1_556 S
H85 C65 0.931 . S
H86 C67 0.931 . S
H87 C69 0.930 . S
H88 C71 0.930 . S
H89 C72 0.931 . S
N90 C52 1.343 . S
N90 C73 1.343 . S
N91 C59 1.343 . S
N91 C66 1.343 . S
C92 C93 1.384 . S
C92 C94 1.384 . S
C92 H120 0.931 . S
C93 C92 1.384 . S
C93 C96 1.382 . S
C94 C92 1.384 . S
C94 C95 1.381 . S
C94 H121 0.930 1_556 S
C95 C94 1.381 . S
C95 C97 1.381 . S
C95 C98 1.487 . S
C96 C93 1.382 . S
C96 C97 1.387 . S
C96 H122 0.930 . S
C97 C95 1.381 . S
C97 C96 1.387 . S
C97 H123 0.931 . S
C98 C95 1.487 . S
C98 C105 1.399 1_556 S
C98 N136 1.343 . S
C99 C100 1.384 . S
C99 C101 1.384 . S
C99 H124 0.931 . S
C100 C99 1.384 . S
C100 C103 1.382 . S
C101 C99 1.384 . S
C101 C102 1.381 . S
C101 H125 0.930 . S
C102 C101 1.381 . S
C102 C104 1.381 . S
C102 C105 1.487 . S
C103 C100 1.382 . S
C103 C104 1.387 . S
C103 H126 0.930 . S
C104 C102 1.381 . S
C104 C103 1.387 . S
C104 H127 0.931 . S
C105 C98 1.399 1_554 S
C105 C102 1.487 . S
C105 N137 1.343 . S
C106 C107 1.384 . S
C106 C108 1.384 . S
C106 H128 0.931 . S
C107 C106 1.384 . S
C107 C110 1.382 . S
C108 C106 1.384 . S
C108 C109 1.381 . S
C108 H129 0.930 . S
C109 C108 1.381 . S
C109 C111 1.381 . S
C109 C112 1.487 . S
C110 C107 1.382 . S
C110 C111 1.387 . S
C110 H130 0.930 . S
C111 C109 1.381 . S
C111 C110 1.387 . S
C111 H131 0.931 . S
C112 C109 1.487 . S
C112 C119 1.399 1_554 S
C112 N137 1.343 . S
C113 C114 1.384 . S
C113 C115 1.384 . S
C113 H132 0.931 . S
C114 C113 1.384 . S
C114 C117 1.382 . S
C115 C113 1.384 . S
C115 C116 1.381 . S
C115 H133 0.930 1_556 S
C116 C115 1.381 . S
C116 C118 1.381 . S
C116 C119 1.487 . S
C117 C114 1.382 . S
C117 C118 1.387 . S
C117 H134 0.930 . S
C118 C116 1.381 . S
C118 C117 1.387 . S
C118 H135 0.931 . S
C119 C112 1.399 1_556 S
C119 C116 1.487 . S
C119 N136 1.343 . S
H120 C92 0.931 . S
H121 C94 0.930 1_554 S
H122 C96 0.930 . S
H123 C97 0.931 . S
H124 C99 0.931 . S
H125 C101 0.930 . S
H126 C103 0.930 . S
H127 C104 0.931 . S
H128 C106 0.931 . S
H129 C108 0.930 . S
H130 C110 0.930 . S
H131 C111 0.931 . S
H132 C113 0.931 . S
H133 C115 0.930 1_554 S
H134 C117 0.930 . S
H135 C118 0.931 . S
N136 C98 1.343 . S
N136 C119 1.343 . S
N137 C105 1.343 . S
N137 C112 1.343 . S
C138 C139 1.384 . S
C138 C140 1.384 1_556 S
C138 H166 0.931 . S
C139 C138 1.384 . S
C139 C142 1.382 . S
C140 C138 1.384 1_554 S
C140 C141 1.381 . S
C140 H167 0.930 . S
C141 C140 1.381 . S
C141 C143 1.381 1_554 S
C141 C144 1.487 . S
C142 C139 1.382 . S
C142 C143 1.387 . S
C142 H168 0.930 . S
C143 C141 1.381 1_556 S
C143 C142 1.387 . S
C143 H169 0.931 . S
C144 C141 1.487 . S
C144 C151 1.399 . S
C144 N182 1.343 . S
C145 C146 1.384 . S
C145 C147 1.384 . S
C145 H170 0.931 . S
C146 C145 1.384 . S
C146 C149 1.382 . S
C147 C145 1.384 . S
C147 C148 1.381 . S
C147 H171 0.930 . S
C148 C147 1.381 . S
C148 C150 1.381 . S
C148 C151 1.487 . S
C149 C146 1.382 . S
C149 C150 1.387 . S
C149 H172 0.930 . S
C150 C148 1.381 . S
C150 C149 1.387 . S
C150 H173 0.931 . S
C151 C144 1.399 . S
C151 C148 1.487 . S
C151 N183 1.343 . S
C152 C153 1.384 . S
C152 C154 1.384 . S
C152 H174 0.931 . S
C153 C152 1.384 . S
C153 C156 1.382 . S
C154 C152 1.384 . S
C154 C155 1.381 . S
C154 H175 0.930 . S
C155 C154 1.381 . S
C155 C157 1.381 . S
C155 C158 1.487 . S
C156 C153 1.382 . S
C156 C157 1.387 . S
C156 H176 0.930 . S
C157 C155 1.381 . S
C157 C156 1.387 . S
C157 H177 0.931 . S
C158 C155 1.487 . S
C158 C165 1.399 . S
C158 N183 1.343 . S
C159 C160 1.384 . S
C159 C161 1.384 1_556 S
C159 H178 0.931 . S
C160 C159 1.384 . S
C160 C163 1.382 . S
C161 C159 1.384 1_554 S
C161 C162 1.381 . S
C161 H179 0.930 . S
C162 C161 1.381 . S
C162 C164 1.381 1_554 S
C162 C165 1.487 . S
C163 C160 1.382 . S
C163 C164 1.387 . S
C163 H180 0.930 . S
C164 C162 1.381 1_556 S
C164 C163 1.387 . S
C164 H181 0.931 . S
C165 C158 1.399 . S
C165 C162 1.487 . S
C165 N182 1.343 . S
H166 C138 0.931 . S
H167 C140 0.930 . S
H168 C142 0.930 . S
H169 C143 0.931 . S
H170 C145 0.931 . S
H171 C147 0.930 . S
H172 C149 0.930 . S
H173 C150 0.931 . S
H174 C152 0.931 . S
H175 C154 0.930 . S
H176 C156 0.930 . S
H177 C157 0.931 . S
H178 C159 0.931 . S
H179 C161 0.930 . S
H180 C163 0.930 . S
H181 C164 0.931 . S
N182 C144 1.343 . S
N182 C165 1.343 . S
N183 C151 1.343 . S
N183 C158 1.343 . S
C184 C185 1.384 1_554 S
C184 C186 1.384 . S
C184 H212 0.931 . S
C185 C184 1.384 1_556 S
C185 C188 1.382 . S
C186 C184 1.384 . S
C186 C187 1.381 . S
C186 H213 0.930 . S
C187 C186 1.381 . S
C187 C189 1.381 1_554 S
C187 C190 1.487 . S
C188 C185 1.382 . S
C188 C189 1.387 . S
C188 H214 0.930 . S
C189 C187 1.381 1_556 S
C189 C188 1.387 . S
C189 H215 0.931 . S
C190 C187 1.487 . S
C190 C197 1.399 . S
C190 N228 1.343 . S
C191 C192 1.384 . S
C191 C193 1.384 . S
C191 H216 0.931 . S
C192 C191 1.384 . S
C192 C195 1.382 . S
C193 C191 1.384 . S
C193 C194 1.381 . S
C193 H217 0.930 . S
C194 C193 1.381 . S
C194 C196 1.381 . S
C194 C197 1.487 . S
C195 C192 1.382 . S
C195 C196 1.387 . S
C195 H218 0.930 . S
C196 C194 1.381 . S
C196 C195 1.387 . S
C196 H219 0.931 . S
C197 C190 1.399 . S
C197 C194 1.487 . S
C197 N229 1.343 . S
C198 C199 1.384 . S
C198 C200 1.384 . S
C198 H220 0.931 . S
C199 C198 1.384 . S
C199 C202 1.382 . S
C200 C198 1.384 . S
C200 C201 1.381 . S
C200 H221 0.930 . S
C201 C200 1.381 . S
C201 C203 1.381 . S
C201 C204 1.487 . S
C202 C199 1.382 . S
C202 C203 1.387 . S
C202 H222 0.930 . S
C203 C201 1.381 . S
C203 C202 1.387 . S
C203 H223 0.931 . S
C204 C201 1.487 . S
C204 C211 1.399 . S
C204 N229 1.343 . S
C205 C206 1.384 1_554 S
C205 C207 1.384 . S
C205 H224 0.931 . S
C206 C205 1.384 1_556 S
C206 C209 1.382 . S
C207 C205 1.384 . S
C207 C208 1.381 . S
C207 H225 0.930 . S
C208 C207 1.381 . S
C208 C210 1.381 1_554 S
C208 C211 1.487 . S
C209 C206 1.382 . S
C209 C210 1.387 . S
C209 H226 0.930 . S
C210 C208 1.381 1_556 S
C210 C209 1.387 . S
C210 H227 0.931 . S
C211 C204 1.399 . S
C211 C208 1.487 . S
C211 N228 1.343 . S
H212 C184 0.931 . S
H213 C186 0.930 . S
H214 C188 0.930 . S
H215 C189 0.931 . S
H216 C191 0.931 . S
H217 C193 0.930 . S
H218 C195 0.930 . S
H219 C196 0.931 . S
H220 C198 0.931 . S
H221 C200 0.930 . S
H222 C202 0.930 . S
H223 C203 0.931 . S
H224 C205 0.931 . S
H225 C207 0.930 . S
H226 C209 0.930 . S
H227 C210 0.931 . S
N228 C190 1.343 . S
N228 C211 1.343 . S
N229 C197 1.343 . S
N229 C204 1.343 . S
C230 C231 1.384 . S
C230 C232 1.384 . S
C230 H258 0.931 . S
C231 C230 1.384 . S
C231 C234 1.382 . S
C232 C230 1.384 . S
C232 C233 1.381 . S
C232 H259 0.930 . S
C233 C232 1.381 . S
C233 C235 1.381 . S
C233 C236 1.487 . S
C234 C231 1.382 . S
C234 C235 1.387 . S
C234 H260 0.930 . S
C235 C233 1.381 . S
C235 C234 1.387 . S
C235 H261 0.931 . S
C236 C233 1.487 . S
C236 C243 1.399 . S
C236 N274 1.343 . S
C237 C238 1.384 . S
C237 C239 1.384 . S
C237 H262 0.931 . S
C238 C237 1.384 . S
C238 C241 1.382 . S
C239 C237 1.384 . S
C239 C240 1.381 . S
C239 H263 0.930 . S
C240 C239 1.381 . S
C240 C242 1.381 . S
C240 C243 1.487 . S
C241 C238 1.382 . S
C241 C242 1.387 . S
C241 H264 0.930 . S
C242 C240 1.381 . S
C242 C241 1.387 . S
C242 H265 0.931 . S
C243 C236 1.399 . S
C243 C240 1.487 . S
C243 N275 1.343 . S
C244 C245 1.384 . S
C244 C246 1.384 . S
C244 H266 0.931 . S
C245 C244 1.384 . S
C245 C248 1.382 . S
C246 C244 1.384 . S
C246 C247 1.381 . S
C246 H267 0.930 . S
C247 C246 1.381 . S
C247 C249 1.381 . S
C247 C250 1.487 . S
C248 C245 1.382 . S
C248 C249 1.387 . S
C248 H268 0.930 . S
C249 C247 1.381 . S
C249 C248 1.387 . S
C249 H269 0.931 . S
C250 C247 1.487 . S
C250 C257 1.399 . S
C250 N275 1.343 . S
C251 C252 1.384 . S
C251 C253 1.384 . S
C251 H270 0.931 . S
C252 C251 1.384 . S
C252 C255 1.382 . S
C253 C251 1.384 . S
C253 C254 1.381 . S
C253 H271 0.930 . S
C254 C253 1.381 . S
C254 C256 1.381 . S
C254 C257 1.487 . S
C255 C252 1.382 . S
C255 C256 1.387 . S
C255 H272 0.930 . S
C256 C254 1.381 . S
C256 C255 1.387 . S
C256 H273 0.931 . S
C257 C250 1.399 . S
C257 C254 1.487 . S
C257 N274 1.343 . S
H258 C230 0.931 . S
H259 C232 0.930 . S
H260 C234 0.930 . S
H261 C235 0.931 . S
H262 C237 0.931 . S
H263 C239 0.930 . S
H264 C241 0.930 . S
H265 C242 0.931 . S
H266 C244 0.931 . S
H267 C246 0.930 . S
H268 C248 0.930 . S
H269 C249 0.931 . S
H270 C251 0.931 . S
H271 C253 0.930 . S
H272 C255 0.930 . S
H273 C256 0.931 . S
N274 C236 1.343 . S
N274 C257 1.343 . S
N275 C243 1.343 . S
N275 C250 1.343 . S
C276 O288 1.241 . S
C276 O289 1.280 . S
C277 O290 1.277 . S
C277 O291 1.245 . S
C278 O302 1.247 . S
C278 O304 1.289 . S
Mg279 O280 1.951 1_655 S
Mg279 O289 1.984 . S
Mg279 O291 1.988 1_655 S
Mg279 O292 2.061 . S
O280 Mg279 1.951 1_455 S
O280 Mg281 1.984 . S
O280 Mg282 1.913 . S
Mg281 O280 1.984 . S
Mg281 O288 2.042 1_455 S
Mg281 O290 2.041 . S
Mg281 O296 2.038 1_455 S
Mg281 O304 2.238 . S
Mg282 O280 1.913 . S
Mg282 O283 1.917 . S
Mg282 O293 2.106 1_455 S
Mg282 O295 2.079 1_455 S
Mg282 O304 2.106 . S
Mg282 O305 2.079 . S
O283 Mg282 1.917 . S
O283 Mg284 1.926 . S
O283 Mg285 1.986 . S
Mg284 O283 1.926 . S
Mg284 O298 1.984 . S
Mg284 O301 1.988 1_455 S
Mg284 O302 2.061 . S
Mg285 O283 1.986 . S
Mg285 O293 2.238 1_455 S
Mg285 O297 2.042 . S
Mg285 O299 2.041 1_455 S
Mg285 O306 2.038 . S
C286 O292 1.247 . S
C286 O293 1.289 . S
C287 O305 1.245 . S
C287 O306 1.274 . S
O288 C276 1.241 . S
O288 Mg281 2.042 1_655 S
O289 C276 1.280 . S
O289 Mg279 1.984 . S
O290 C277 1.277 . S
O290 Mg281 2.041 . S
O291 C277 1.245 . S
O291 Mg279 1.988 1_455 S
O292 Mg279 2.061 . S
O292 C286 1.247 . S
O293 Mg282 2.106 1_655 S
O293 Mg285 2.238 1_655 S
O293 C286 1.289 . S
C294 O295 1.245 . S
C294 O296 1.274 . S
O295 Mg282 2.079 1_655 S
O295 C294 1.245 . S
O296 Mg281 2.038 1_655 S
O296 C294 1.274 . S
O297 Mg285 2.042 . S
O297 C300 1.241 . S
O298 Mg284 1.984 . S
O298 C300 1.280 . S
O299 Mg285 2.041 1_655 S
O299 C303 1.277 . S
C300 O297 1.241 . S
C300 O298 1.280 . S
O301 Mg284 1.988 1_655 S
O301 C303 1.245 . S
O302 C278 1.247 . S
O302 Mg284 2.061 . S
C303 O299 1.277 . S
C303 O301 1.245 . S
O304 C278 1.289 . S
O304 Mg281 2.238 . S
O304 Mg282 2.106 . S
O305 Mg282 2.079 . S
O305 C287 1.245 . S
O306 Mg285 2.038 . S
O306 C287 1.274 . S
C307 O319 1.241 . S
C307 O320 1.280 . S
C308 O321 1.277 . S
C308 O322 1.245 . S
C309 O333 1.247 . S
C309 O335 1.289 . S
Mg310 O311 1.926 . S
Mg310 O320 1.984 . S
Mg310 O322 1.988 1_545 S
Mg310 O323 2.061 . S
O311 Mg310 1.926 . S
O311 Mg312 1.986 . S
O311 Mg313 1.917 . S
Mg312 O311 1.986 . S
Mg312 O319 2.042 . S
Mg312 O321 2.041 1_545 S
Mg312 O327 2.038 . S
Mg312 O335 2.238 1_545 S
Mg313 O311 1.917 . S
Mg313 O314 1.918 . S
Mg313 O324 2.106 . S
Mg313 O326 2.079 . S
Mg313 O335 2.106 1_545 S
Mg313 O336 2.079 1_545 S
O314 Mg313 1.918 . S
O314 Mg315 1.925 1_545 S
O314 Mg316 1.987 . S
Mg315 O314 1.925 1_565 S
Mg315 O329 1.984 . S
Mg315 O332 1.988 1_565 S
Mg315 O333 2.061 . S
Mg316 O314 1.987 . S
Mg316 O324 2.238 . S
Mg316 O328 2.042 1_545 S
Mg316 O330 2.041 . S
Mg316 O337 2.038 1_545 S
C317 O323 1.247 . S
C317 O324 1.289 . S
C318 O336 1.245 . S
C318 O337 1.274 . S
O319 C307 1.241 . S
O319 Mg312 2.042 . S
O320 C307 1.280 . S
O320 Mg310 1.984 . S
O321 C308 1.277 . S
O321 Mg312 2.041 1_565 S
O322 C308 1.245 . S
O322 Mg310 1.988 1_565 S
O323 Mg310 2.061 . S
O323 C317 1.247 . S
O324 Mg313 2.106 . S
O324 Mg316 2.238 . S
O324 C317 1.289 . S
C325 O326 1.245 . S
C325 O327 1.274 . S
O326 Mg313 2.079 . S
O326 C325 1.245 . S
O327 Mg312 2.038 . S
O327 C325 1.274 . S
O328 Mg316 2.042 1_565 S
O328 C331 1.241 . S
O329 Mg315 1.984 . S
O329 C331 1.280 . S
O330 Mg316 2.041 . S
O330 C334 1.277 . S
C331 O328 1.241 . S
C331 O329 1.280 . S
O332 Mg315 1.988 1_545 S
O332 C334 1.245 . S
O333 C309 1.247 . S
O333 Mg315 2.061 . S
C334 O330 1.277 . S
C334 O332 1.245 . S
O335 C309 1.289 . S
O335 Mg312 2.238 1_565 S
O335 Mg313 2.106 1_565 S
O336 Mg313 2.079 1_565 S
O336 C318 1.245 . S
O337 Mg316 2.038 1_565 S
O337 C318 1.274 . S
C338 O350 1.241 . S
C338 O351 1.280 . S
C339 O352 1.277 . S
C339 O353 1.245 . S
C340 O364 1.247 . S
C340 O366 1.289 . S
Mg341 O342 1.926 . S
Mg341 O351 1.984 . S
Mg341 O353 1.988 . S
Mg341 O354 2.061 . S
O342 Mg341 1.926 . S
O342 Mg343 1.986 . S
O342 Mg344 1.917 . S
Mg343 O342 1.986 . S
Mg343 O350 2.042 . S
Mg343 O352 2.041 . S
Mg343 O358 2.038 . S
Mg343 O366 2.238 . S
Mg344 O342 1.917 . S
Mg344 O345 1.917 . S
Mg344 O355 2.106 . S
Mg344 O357 2.079 . S
Mg344 O366 2.106 . S
Mg344 O367 2.079 . S
O345 Mg344 1.917 . S
O345 Mg346 1.926 . S
O345 Mg347 1.986 . S
Mg346 O345 1.926 . S
Mg346 O360 1.984 . S
Mg346 O363 1.988 . S
Mg346 O364 2.061 . S
Mg347 O345 1.986 . S
Mg347 O355 2.238 . S
Mg347 O359 2.042 . S
Mg347 O361 2.041 . S
Mg347 O368 2.038 . S
C348 O354 1.247 . S
C348 O355 1.289 . S
C349 O367 1.245 . S
C349 O368 1.274 . S
O350 C338 1.241 . S
O350 Mg343 2.042 . S
O351 C338 1.280 . S
O351 Mg341 1.984 . S
O352 C339 1.277 . S
O352 Mg343 2.041 . S
O353 C339 1.245 . S
O353 Mg341 1.988 . S
O354 Mg341 2.061 . S
O354 C348 1.247 . S
O355 Mg344 2.106 . S
O355 Mg347 2.238 . S
O355 C348 1.289 . S
C356 O357 1.245 . S
C356 O358 1.274 . S
O357 Mg344 2.079 . S
O357 C356 1.245 . S
O358 Mg343 2.038 . S
O358 C356 1.274 . S
O359 Mg347 2.042 . S
O359 C362 1.241 . S
O360 Mg346 1.984 . S
O360 C362 1.280 . S
O361 Mg347 2.041 . S
O361 C365 1.277 . S
C362 O359 1.241 . S
C362 O360 1.280 . S
O363 Mg346 1.988 . S
O363 C365 1.245 . S
O364 C340 1.247 . S
O364 Mg346 2.061 . S
C365 O361 1.277 . S
C365 O363 1.245 . S
O366 C340 1.289 . S
O366 Mg343 2.238 . S
O366 Mg344 2.106 . S
O367 Mg344 2.079 . S
O367 C349 1.245 . S
O368 Mg347 2.038 . S
O368 C349 1.274 . S
H369 C387 0.951 . S
H370 C389 0.951 . S
H371 C391 0.950 . S
H372 C392 0.950 . S
H373 C394 0.950 . S
H374 C397 0.950 . S
H375 C398 0.950 . S
H376 C400 0.950 . S
H377 C401 0.950 . S
H378 C402 0.951 . S
H379 C404 0.951 . S
H380 C406 0.950 . S
H381 C407 0.950 . S
H382 C409 0.950 . S
H383 C412 0.950 . S
H384 C413 0.950 . S
H385 C415 0.950 . S
H386 C416 0.950 . S
C387 H369 0.951 . S
C387 C388 1.366 . S
C387 C389 1.388 . S
C388 C387 1.366 . S
C388 C392 1.385 . S
C389 H370 0.951 . S
C389 C387 1.388 . S
C389 C390 1.366 . S
C390 C389 1.366 . S
C390 C391 1.414 . S
C390 C393 1.499 . S
C391 H371 0.950 . S
C391 C390 1.414 . S
C391 C392 1.374 . S
C392 H372 0.950 . S
C392 C388 1.385 . S
C392 C391 1.374 . S
C393 C390 1.499 . S
C393 C394 1.373 . S
C393 C395 1.389 . S
C394 H373 0.950 . S
C394 C393 1.373 . S
C394 C410 1.377 . S
C395 C393 1.389 . S
C395 C396 1.524 . S
C395 C409 1.377 . S
C396 C395 1.524 . S
C396 C397 1.397 . S
C396 C401 1.363 . S
C397 H374 0.950 . S
C397 C396 1.397 . S
C397 C398 1.334 . S
C398 H375 0.950 . S
C398 C397 1.334 . S
C398 C399 1.287 . S
C399 C398 1.287 . S
C399 C400 1.524 . S
C399 H418 0.913 . S
C400 H376 0.950 . S
C400 C399 1.524 . S
C400 C401 1.415 . S
C401 H377 0.950 . S
C401 C396 1.363 . S
C401 C400 1.415 . S
C402 H378 0.951 . S
C402 C403 1.366 . S
C402 C404 1.388 . S
C403 C402 1.366 . S
C403 C407 1.385 . S
C404 H379 0.951 . S
C404 C402 1.388 . S
C404 C405 1.366 . S
C405 C404 1.366 . S
C405 C406 1.414 . S
C405 C408 1.499 . S
C406 H380 0.950 . S
C406 C405 1.414 . S
C406 C407 1.374 . S
C407 H381 0.950 . S
C407 C403 1.385 . S
C407 C406 1.374 . S
C408 C405 1.499 . S
C408 C409 1.373 . S
C408 C410 1.389 . S
C409 H382 0.950 . S
C409 C395 1.377 . S
C409 C408 1.373 . S
C410 C394 1.377 . S
C410 C408 1.389 . S
C410 C411 1.524 . S
C411 C410 1.524 . S
C411 C412 1.397 . S
C411 C416 1.363 . S
C412 H383 0.950 . S
C412 C411 1.397 . S
C412 C413 1.334 . S
C413 H384 0.950 . S
C413 C412 1.334 . S
C413 C414 1.287 . S
C414 C413 1.287 . S
C414 C415 1.524 . S
C414 H417 0.999 . S
C415 H385 0.950 . S
C415 C414 1.524 . S
C415 C416 1.415 . S
C416 H386 0.950 . S
C416 C411 1.363 . S
C416 C415 1.415 . S
H417 C414 0.999 . S
H418 C399 0.913 . S
H419 C437 0.951 . S
H420 C439 0.951 . S
H421 C441 0.950 . S
H422 C442 0.950 . S
H423 C444 0.950 . S
H424 C447 0.950 . S
H425 C448 0.950 . S
H426 C450 0.950 . S
H427 C451 0.950 . S
H428 C452 0.951 . S
H429 C454 0.951 . S
H430 C456 0.950 . S
H431 C457 0.950 . S
H432 C459 0.950 . S
H433 C462 0.950 . S
H434 C463 0.950 . S
H435 C465 0.950 . S
H436 C466 0.950 . S
C437 H419 0.951 . S
C437 C438 1.366 . S
C437 C439 1.388 . S
C438 C437 1.366 . S
C438 C442 1.385 . S
C439 H420 0.951 . S
C439 C437 1.388 . S
C439 C440 1.366 . S
C440 C439 1.366 . S
C440 C441 1.414 . S
C440 C443 1.499 . S
C441 H421 0.950 . S
C441 C440 1.414 . S
C441 C442 1.374 . S
C442 H422 0.950 . S
C442 C438 1.385 . S
C442 C441 1.374 . S
C443 C440 1.499 . S
C443 C444 1.373 . S
C443 C445 1.389 . S
C444 H423 0.950 . S
C444 C443 1.373 . S
C444 C460 1.377 . S
C445 C443 1.389 . S
C445 C446 1.524 . S
C445 C459 1.377 . S
C446 C445 1.524 . S
C446 C447 1.397 . S
C446 C451 1.363 . S
C447 H424 0.950 . S
C447 C446 1.397 . S
C447 C448 1.334 . S
C448 H425 0.950 . S
C448 C447 1.334 . S
C448 C449 1.287 . S
C449 C448 1.287 . S
C449 C450 1.524 . S
C449 H468 0.913 . S
C450 H426 0.950 . S
C450 C449 1.524 . S
C450 C451 1.415 . S
C451 H427 0.950 . S
C451 C446 1.363 . S
C451 C450 1.415 . S
C452 H428 0.951 . S
C452 C453 1.366 . S
C452 C454 1.388 . S
C453 C452 1.366 . S
C453 C457 1.385 . S
C454 H429 0.951 . S
C454 C452 1.388 . S
C454 C455 1.366 . S
C455 C454 1.366 . S
C455 C456 1.414 . S
C455 C458 1.499 . S
C456 H430 0.950 . S
C456 C455 1.414 . S
C456 C457 1.374 . S
C457 H431 0.950 . S
C457 C453 1.385 . S
C457 C456 1.374 . S
C458 C455 1.499 . S
C458 C459 1.373 . S
C458 C460 1.389 . S
C459 H432 0.950 . S
C459 C445 1.377 . S
C459 C458 1.373 . S
C460 C444 1.377 . S
C460 C458 1.389 . S
C460 C461 1.524 . S
C461 C460 1.524 . S
C461 C462 1.397 . S
C461 C466 1.363 . S
C462 H433 0.950 . S
C462 C461 1.397 . S
C462 C463 1.334 . S
C463 H434 0.950 . S
C463 C462 1.334 . S
C463 C464 1.287 . S
C464 C463 1.287 . S
C464 C465 1.524 . S
C464 H467 0.999 . S
C465 H435 0.950 . S
C465 C464 1.524 . S
C465 C466 1.415 . S
C466 H436 0.950 . S
C466 C461 1.363 . S
C466 C465 1.415 . S
H467 C464 0.999 . S
H468 C449 0.913 . S
H469 C487 0.951 . S
H470 C489 0.951 . S
H471 C491 0.950 . S
H472 C492 0.950 . S
H473 C494 0.950 . S
H474 C497 0.950 . S
H475 C498 0.950 . S
H476 C500 0.950 . S
H477 C501 0.950 . S
H478 C502 0.951 . S
H479 C504 0.951 . S
H480 C506 0.950 . S
H481 C507 0.950 . S
H482 C509 0.950 . S
H483 C512 0.950 . S
H484 C513 0.950 . S
H485 C515 0.950 . S
H486 C516 0.950 . S
C487 H469 0.951 . S
C487 C488 1.366 . S
C487 C489 1.388 . S
C488 C487 1.366 . S
C488 C492 1.385 . S
C489 H470 0.951 . S
C489 C487 1.388 . S
C489 C490 1.366 . S
C490 C489 1.366 . S
C490 C491 1.414 . S
C490 C493 1.499 . S
C491 H471 0.950 . S
C491 C490 1.414 . S
C491 C492 1.374 . S
C492 H472 0.950 . S
C492 C488 1.385 . S
C492 C491 1.374 . S
C493 C490 1.499 . S
C493 C494 1.373 . S
C493 C495 1.389 . S
C494 H473 0.950 . S
C494 C493 1.373 . S
C494 C510 1.377 . S
C495 C493 1.389 . S
C495 C496 1.524 . S
C495 C509 1.377 . S
C496 C495 1.524 . S
C496 C497 1.397 . S
C496 C501 1.363 . S
C497 H474 0.950 . S
C497 C496 1.397 . S
C497 C498 1.334 . S
C498 H475 0.950 . S
C498 C497 1.334 . S
C498 C499 1.287 . S
C499 C498 1.287 . S
C499 C500 1.524 . S
C499 H518 0.913 . S
C500 H476 0.950 . S
C500 C499 1.524 . S
C500 C501 1.415 . S
C501 H477 0.950 . S
C501 C496 1.363 . S
C501 C500 1.415 . S
C502 H478 0.951 . S
C502 C503 1.366 . S
C502 C504 1.388 . S
C503 C502 1.366 . S
C503 C507 1.385 . S
C504 H479 0.951 . S
C504 C502 1.388 . S
C504 C505 1.366 . S
C505 C504 1.366 . S
C505 C506 1.414 . S
C505 C508 1.499 . S
C506 H480 0.950 . S
C506 C505 1.414 . S
C506 C507 1.374 . S
C507 H481 0.950 . S
C507 C503 1.385 . S
C507 C506 1.374 . S
C508 C505 1.499 . S
C508 C509 1.373 . S
C508 C510 1.389 . S
C509 H482 0.950 . S
C509 C495 1.377 . S
C509 C508 1.373 . S
C510 C494 1.377 . S
C510 C508 1.389 . S
C510 C511 1.524 . S
C511 C510 1.524 . S
C511 C512 1.397 . S
C511 C516 1.363 . S
C512 H483 0.950 . S
C512 C511 1.397 . S
C512 C513 1.334 . S
C513 H484 0.950 . S
C513 C512 1.334 . S
C513 C514 1.287 . S
C514 C513 1.287 . S
C514 C515 1.524 . S
C514 H517 0.999 . S
C515 H485 0.950 . S
C515 C514 1.524 . S
C515 C516 1.415 . S
C516 H486 0.950 . S
C516 C511 1.363 . S
C516 C515 1.415 . S
H517 C514 0.999 . S
H518 C499 0.913 . S
H519 C537 0.951 . S
H520 C539 0.951 . S
H521 C541 0.950 . S
H522 C542 0.950 . S
H523 C544 0.950 . S
H524 C547 0.950 . S
H525 C548 0.950 . S
H526 C550 0.950 . S
H527 C551 0.950 . S
H528 C552 0.951 . S
H529 C554 0.951 . S
H530 C556 0.950 . S
H531 C557 0.950 . S
H532 C559 0.950 . S
H533 C562 0.950 . S
H534 C563 0.950 . S
H535 C565 0.950 . S
H536 C566 0.950 . S
C537 H519 0.951 . S
C537 C538 1.366 . S
C537 C539 1.388 . S
C538 C537 1.366 . S
C538 C542 1.385 . S
C539 H520 0.951 . S
C539 C537 1.388 . S
C539 C540 1.366 . S
C540 C539 1.366 . S
C540 C541 1.414 . S
C540 C543 1.499 . S
C541 H521 0.950 . S
C541 C540 1.414 . S
C541 C542 1.374 . S
C542 H522 0.950 . S
C542 C538 1.385 . S
C542 C541 1.374 . S
C543 C540 1.499 . S
C543 C544 1.373 . S
C543 C545 1.389 . S
C544 H523 0.950 . S
C544 C543 1.373 . S
C544 C560 1.377 . S
C545 C543 1.389 . S
C545 C546 1.524 . S
C545 C559 1.377 . S
C546 C545 1.524 . S
C546 C547 1.397 . S
C546 C551 1.363 . S
C547 H524 0.950 . S
C547 C546 1.397 . S
C547 C548 1.334 . S
C548 H525 0.950 . S
C548 C547 1.334 . S
C548 C549 1.287 . S
C549 C548 1.287 . S
C549 C550 1.524 . S
C549 H568 0.913 . S
C550 H526 0.950 . S
C550 C549 1.524 . S
C550 C551 1.415 . S
C551 H527 0.950 . S
C551 C546 1.363 . S
C551 C550 1.415 . S
C552 H528 0.951 . S
C552 C553 1.366 . S
C552 C554 1.388 . S
C553 C552 1.366 . S
C553 C557 1.385 . S
C554 H529 0.951 . S
C554 C552 1.388 . S
C554 C555 1.366 . S
C555 C554 1.366 . S
C555 C556 1.414 . S
C555 C558 1.499 . S
C556 H530 0.950 . S
C556 C555 1.414 . S
C556 C557 1.374 . S
C557 H531 0.950 . S
C557 C553 1.385 . S
C557 C556 1.374 . S
C558 C555 1.499 . S
C558 C559 1.373 . S
C558 C560 1.389 . S
C559 H532 0.950 . S
C559 C545 1.377 . S
C559 C558 1.373 . S
C560 C544 1.377 . S
C560 C558 1.389 . S
C560 C561 1.524 . S
C561 C560 1.524 . S
C561 C562 1.397 . S
C561 C566 1.363 . S
C562 H533 0.950 . S
C562 C561 1.397 . S
C562 C563 1.334 . S
C563 H534 0.950 . S
C563 C562 1.334 . S
C563 C564 1.287 . S
C564 C563 1.287 . S
C564 C565 1.524 . S
C564 H567 0.999 . S
C565 H535 0.950 . S
C565 C564 1.524 . S
C565 C566 1.415 . S
C566 H536 0.950 . S
C566 C561 1.363 . S
C566 C565 1.415 . S
H567 C564 0.999 . S
H568 C549 0.913 . S
H569 C587 0.951 . S
H570 C589 0.951 . S
H571 C591 0.950 . S
H572 C592 0.950 . S
H573 C594 0.950 . S
H574 C597 0.950 . S
H575 C598 0.950 . S
H576 C600 0.950 . S
H577 C601 0.950 . S
H578 C602 0.951 . S
H579 C604 0.951 . S
H580 C606 0.950 . S
H581 C607 0.950 . S
H582 C609 0.950 . S
H583 C612 0.950 . S
H584 C613 0.950 . S
H585 C615 0.950 . S
H586 C616 0.950 . S
C587 H569 0.951 . S
C587 C588 1.366 . S
C587 C589 1.388 . S
C588 C587 1.366 . S
C588 C592 1.385 . S
C589 H570 0.951 . S
C589 C587 1.388 . S
C589 C590 1.366 . S
C590 C589 1.366 . S
C590 C591 1.414 . S
C590 C593 1.499 . S
C591 H571 0.950 . S
C591 C590 1.414 . S
C591 C592 1.374 . S
C592 H572 0.950 . S
C592 C588 1.385 . S
C592 C591 1.374 . S
C593 C590 1.499 . S
C593 C594 1.373 . S
C593 C595 1.389 . S
C594 H573 0.950 . S
C594 C593 1.373 . S
C594 C610 1.377 . S
C595 C593 1.389 . S
C595 C596 1.524 . S
C595 C609 1.377 . S
C596 C595 1.524 . S
C596 C597 1.397 . S
C596 C601 1.363 . S
C597 H574 0.950 . S
C597 C596 1.397 . S
C597 C598 1.334 . S
C598 H575 0.950 . S
C598 C597 1.334 . S
C598 C599 1.287 . S
C599 C598 1.287 . S
C599 C600 1.524 . S
C599 H618 0.913 . S
C600 H576 0.950 . S
C600 C599 1.524 . S
C600 C601 1.415 . S
C601 H577 0.950 . S
C601 C596 1.363 . S
C601 C600 1.415 . S
C602 H578 0.951 . S
C602 C603 1.366 . S
C602 C604 1.388 . S
C603 C602 1.366 . S
C603 C607 1.385 . S
C604 H579 0.951 . S
C604 C602 1.388 . S
C604 C605 1.366 . S
C605 C604 1.366 . S
C605 C606 1.414 . S
C605 C608 1.499 . S
C606 H580 0.950 . S
C606 C605 1.414 . S
C606 C607 1.374 . S
C607 H581 0.950 . S
C607 C603 1.385 . S
C607 C606 1.374 . S
C608 C605 1.499 . S
C608 C609 1.373 . S
C608 C610 1.389 . S
C609 H582 0.950 . S
C609 C595 1.377 . S
C609 C608 1.373 . S
C610 C594 1.377 . S
C610 C608 1.389 . S
C610 C611 1.524 . S
C611 C610 1.524 . S
C611 C612 1.397 . S
C611 C616 1.363 . S
C612 H583 0.950 . S
C612 C611 1.397 . S
C612 C613 1.334 . S
C613 H584 0.950 . S
C613 C612 1.334 . S
C613 C614 1.287 . S
C614 C613 1.287 . S
C614 C615 1.524 . S
C614 H617 0.999 . S
C615 H585 0.950 . S
C615 C614 1.524 . S
C615 C616 1.415 . S
C616 H586 0.950 . S
C616 C611 1.363 . S
C616 C615 1.415 . S
H617 C614 0.999 . S
H618 C599 0.913 . S
H619 C637 0.951 . S
H620 C639 0.951 . S
H621 C641 0.950 . S
H622 C642 0.950 . S
H623 C644 0.950 . S
H624 C647 0.950 . S
H625 C648 0.950 . S
H626 C650 0.950 . S
H627 C651 0.950 . S
H628 C652 0.951 . S
H629 C654 0.951 . S
H630 C656 0.950 . S
H631 C657 0.950 . S
H632 C659 0.950 . S
H633 C662 0.950 . S
H634 C663 0.950 . S
H635 C665 0.950 . S
H636 C666 0.950 . S
C637 H619 0.951 . S
C637 C638 1.366 . S
C637 C639 1.388 . S
C638 C637 1.366 . S
C638 C642 1.385 . S
C639 H620 0.951 . S
C639 C637 1.388 . S
C639 C640 1.366 . S
C640 C639 1.366 . S
C640 C641 1.414 . S
C640 C643 1.499 . S
C641 H621 0.950 . S
C641 C640 1.414 . S
C641 C642 1.374 . S
C642 H622 0.950 . S
C642 C638 1.385 . S
C642 C641 1.374 . S
C643 C640 1.499 . S
C643 C644 1.373 . S
C643 C645 1.389 . S
C644 H623 0.950 . S
C644 C643 1.373 . S
C644 C660 1.377 . S
C645 C643 1.389 . S
C645 C646 1.524 . S
C645 C659 1.377 . S
C646 C645 1.524 . S
C646 C647 1.397 . S
C646 C651 1.363 . S
C647 H624 0.950 . S
C647 C646 1.397 . S
C647 C648 1.334 . S
C648 H625 0.950 . S
C648 C647 1.334 . S
C648 C649 1.287 . S
C649 C648 1.287 . S
C649 C650 1.524 . S
C649 H668 0.913 . S
C650 H626 0.950 . S
C650 C649 1.524 . S
C650 C651 1.415 . S
C651 H627 0.950 . S
C651 C646 1.363 . S
C651 C650 1.415 . S
C652 H628 0.951 . S
C652 C653 1.366 . S
C652 C654 1.388 . S
C653 C652 1.366 . S
C653 C657 1.385 . S
C654 H629 0.951 . S
C654 C652 1.388 . S
C654 C655 1.366 . S
C655 C654 1.366 . S
C655 C656 1.414 . S
C655 C658 1.499 . S
C656 H630 0.950 . S
C656 C655 1.414 . S
C656 C657 1.374 . S
C657 H631 0.950 . S
C657 C653 1.385 . S
C657 C656 1.374 . S
C658 C655 1.499 . S
C658 C659 1.373 . S
C658 C660 1.389 . S
C659 H632 0.950 . S
C659 C645 1.377 . S
C659 C658 1.373 . S
C660 C644 1.377 . S
C660 C658 1.389 . S
C660 C661 1.524 . S
C661 C660 1.524 . S
C661 C662 1.397 . S
C661 C666 1.363 . S
C662 H633 0.950 . S
C662 C661 1.397 . S
C662 C663 1.334 . S
C663 H634 0.950 . S
C663 C662 1.334 . S
C663 C664 1.287 . S
C664 C663 1.287 . S
C664 C665 1.524 . S
C664 H667 0.999 . S
C665 H635 0.950 . S
C665 C664 1.524 . S
C665 C666 1.415 . S
C666 H636 0.950 . S
C666 C661 1.363 . S
C666 C665 1.415 . S
H667 C664 0.999 . S
H668 C649 0.913 . S
H669 C687 0.951 . S
H670 C689 0.951 . S
H671 C691 0.950 . S
H672 C692 0.950 . S
H673 C694 0.950 . S
H674 C697 0.950 . S
H675 C698 0.950 . S
H676 C700 0.950 . S
H677 C701 0.950 . S
H678 C702 0.951 . S
H679 C704 0.951 . S
H680 C706 0.950 . S
H681 C707 0.950 . S
H682 C709 0.950 . S
H683 C712 0.950 . S
H684 C713 0.950 . S
H685 C715 0.950 . S
H686 C716 0.950 . S
C687 H669 0.951 . S
C687 C688 1.366 . S
C687 C689 1.388 . S
C688 C687 1.366 . S
C688 C692 1.385 . S
C689 H670 0.951 . S
C689 C687 1.388 . S
C689 C690 1.366 . S
C690 C689 1.366 . S
C690 C691 1.414 . S
C690 C693 1.499 . S
C691 H671 0.950 . S
C691 C690 1.414 . S
C691 C692 1.374 . S
C692 H672 0.950 . S
C692 C688 1.385 . S
C692 C691 1.374 . S
C693 C690 1.499 . S
C693 C694 1.373 . S
C693 C695 1.389 . S
C694 H673 0.950 . S
C694 C693 1.373 . S
C694 C710 1.377 . S
C695 C693 1.389 . S
C695 C696 1.524 . S
C695 C709 1.377 . S
C696 C695 1.524 . S
C696 C697 1.397 . S
C696 C701 1.363 . S
C697 H674 0.950 . S
C697 C696 1.397 . S
C697 C698 1.334 . S
C698 H675 0.950 . S
C698 C697 1.334 . S
C698 C699 1.287 . S
C699 C698 1.287 . S
C699 C700 1.524 . S
C699 H718 0.913 . S
C700 H676 0.950 . S
C700 C699 1.524 . S
C700 C701 1.415 . S
C701 H677 0.950 . S
C701 C696 1.363 . S
C701 C700 1.415 . S
C702 H678 0.951 . S
C702 C703 1.366 . S
C702 C704 1.388 . S
C703 C702 1.366 . S
C703 C707 1.385 . S
C704 H679 0.951 . S
C704 C702 1.388 . S
C704 C705 1.366 . S
C705 C704 1.366 . S
C705 C706 1.414 . S
C705 C708 1.499 . S
C706 H680 0.950 . S
C706 C705 1.414 . S
C706 C707 1.374 . S
C707 H681 0.950 . S
C707 C703 1.385 . S
C707 C706 1.374 . S
C708 C705 1.499 . S
C708 C709 1.373 . S
C708 C710 1.389 . S
C709 H682 0.950 . S
C709 C695 1.377 . S
C709 C708 1.373 . S
C710 C694 1.377 . S
C710 C708 1.389 . S
C710 C711 1.524 . S
C711 C710 1.524 . S
C711 C712 1.397 . S
C711 C716 1.363 . S
C712 H683 0.950 . S
C712 C711 1.397 . S
C712 C713 1.334 . S
C713 H684 0.950 . S
C713 C712 1.334 . S
C713 C714 1.287 . S
C714 C713 1.287 . S
C714 C715 1.524 . S
C714 H717 0.999 1_565 S
C715 H685 0.950 . S
C715 C714 1.524 . S
C715 C716 1.415 . S
C716 H686 0.950 . S
C716 C711 1.363 . S
C716 C715 1.415 . S
H717 C714 0.999 1_545 S
H718 C699 0.913 . S
H719 C737 0.951 . S
H720 C739 0.951 . S
H721 C741 0.950 . S
H722 C742 0.950 . S
H723 C744 0.950 . S
H724 C747 0.950 . S
H725 C748 0.950 . S
H726 C750 0.950 . S
H727 C751 0.950 . S
H728 C752 0.951 . S
H729 C754 0.951 . S
H730 C756 0.950 . S
H731 C757 0.950 . S
H732 C759 0.950 . S
H733 C762 0.950 . S
H734 C763 0.950 . S
H735 C765 0.950 . S
H736 C766 0.950 . S
C737 H719 0.951 . S
C737 C738 1.366 . S
C737 C739 1.388 . S
C738 C737 1.366 . S
C738 C742 1.385 . S
C739 H720 0.951 . S
C739 C737 1.388 . S
C739 C740 1.366 . S
C740 C739 1.366 . S
C740 C741 1.414 . S
C740 C743 1.499 . S
C741 H721 0.950 . S
C741 C740 1.414 . S
C741 C742 1.374 . S
C742 H722 0.950 . S
C742 C738 1.385 . S
C742 C741 1.374 . S
C743 C740 1.499 . S
C743 C744 1.373 . S
C743 C745 1.389 . S
C744 H723 0.950 . S
C744 C743 1.373 . S
C744 C760 1.377 . S
C745 C743 1.389 . S
C745 C746 1.524 . S
C745 C759 1.377 . S
C746 C745 1.524 . S
C746 C747 1.397 . S
C746 C751 1.363 . S
C747 H724 0.950 . S
C747 C746 1.397 . S
C747 C748 1.334 . S
C748 H725 0.950 . S
C748 C747 1.334 . S
C748 C749 1.287 . S
C749 C748 1.287 . S
C749 C750 1.524 . S
C749 H768 0.913 . S
C750 H726 0.950 . S
C750 C749 1.524 . S
C750 C751 1.415 . S
C751 H727 0.950 . S
C751 C746 1.363 . S
C751 C750 1.415 . S
C752 H728 0.951 . S
C752 C753 1.366 . S
C752 C754 1.388 . S
C753 C752 1.366 . S
C753 C757 1.385 . S
C754 H729 0.951 . S
C754 C752 1.388 . S
C754 C755 1.366 . S
C755 C754 1.366 . S
C755 C756 1.414 . S
C755 C758 1.499 . S
C756 H730 0.950 . S
C756 C755 1.414 . S
C756 C757 1.374 . S
C757 H731 0.950 . S
C757 C753 1.385 . S
C757 C756 1.374 . S
C758 C755 1.499 . S
C758 C759 1.373 . S
C758 C760 1.389 . S
C759 H732 0.950 . S
C759 C745 1.377 . S
C759 C758 1.373 . S
C760 C744 1.377 . S
C760 C758 1.389 . S
C760 C761 1.524 . S
C761 C760 1.524 . S
C761 C762 1.397 . S
C761 C766 1.363 . S
C762 H733 0.950 . S
C762 C761 1.397 . S
C762 C763 1.334 . S
C763 H734 0.950 . S
C763 C762 1.334 . S
C763 C764 1.287 . S
C764 C763 1.287 . S
C764 C765 1.524 . S
C764 H767 0.999 . S
C765 H735 0.950 . S
C765 C764 1.524 . S
C765 C766 1.415 . S
C766 H736 0.950 . S
C766 C761 1.363 . S
C766 C765 1.415 . S
H767 C764 0.999 . S
H768 C749 0.913 . S
H769 C787 0.951 . S
H770 C789 0.951 . S
H771 C791 0.950 . S
H772 C792 0.950 . S
H773 C794 0.950 . S
H774 C797 0.950 . S
H775 C798 0.950 . S
H776 C800 0.950 . S
H777 C801 0.950 . S
H778 C802 0.951 . S
H779 C804 0.951 . S
H780 C806 0.950 . S
H781 C807 0.950 . S
H782 C809 0.950 . S
H783 C812 0.950 . S
H784 C813 0.950 . S
H785 C815 0.950 . S
H786 C816 0.950 . S
C787 H769 0.951 . S
C787 C788 1.366 . S
C787 C789 1.388 . S
C788 C787 1.366 . S
C788 C792 1.385 . S
C789 H770 0.951 . S
C789 C787 1.388 . S
C789 C790 1.366 . S
C790 C789 1.366 . S
C790 C791 1.414 . S
C790 C793 1.499 . S
C791 H771 0.950 . S
C791 C790 1.414 . S
C791 C792 1.374 . S
C792 H772 0.950 . S
C792 C788 1.385 . S
C792 C791 1.374 . S
C793 C790 1.499 . S
C793 C794 1.373 . S
C793 C795 1.389 . S
C794 H773 0.950 . S
C794 C793 1.373 . S
C794 C810 1.377 . S
C795 C793 1.389 . S
C795 C796 1.524 . S
C795 C809 1.377 . S
C796 C795 1.524 . S
C796 C797 1.397 . S
C796 C801 1.363 . S
C797 H774 0.950 . S
C797 C796 1.397 . S
C797 C798 1.334 . S
C798 H775 0.950 . S
C798 C797 1.334 . S
C798 C799 1.287 . S
C799 C798 1.287 . S
C799 C800 1.524 . S
C799 H818 0.913 . S
C800 H776 0.950 . S
C800 C799 1.524 . S
C800 C801 1.415 . S
C801 H777 0.950 . S
C801 C796 1.363 . S
C801 C800 1.415 . S
C802 H778 0.951 . S
C802 C803 1.366 . S
C802 C804 1.388 . S
C803 C802 1.366 . S
C803 C807 1.385 . S
C804 H779 0.951 . S
C804 C802 1.388 . S
C804 C805 1.366 . S
C805 C804 1.366 . S
C805 C806 1.414 . S
C805 C808 1.499 . S
C806 H780 0.950 . S
C806 C805 1.414 . S
C806 C807 1.374 . S
C807 H781 0.950 . S
C807 C803 1.385 . S
C807 C806 1.374 . S
C808 C805 1.499 . S
C808 C809 1.373 . S
C808 C810 1.389 . S
C809 H782 0.950 . S
C809 C795 1.377 . S
C809 C808 1.373 . S
C810 C794 1.377 . S
C810 C808 1.389 . S
C810 C811 1.524 . S
C811 C810 1.524 . S
C811 C812 1.397 . S
C811 C816 1.363 . S
C812 H783 0.950 . S
C812 C811 1.397 . S
C812 C813 1.334 . S
C813 H784 0.950 . S
C813 C812 1.334 . S
C813 C814 1.287 . S
C814 C813 1.287 . S
C814 C815 1.524 . S
C814 H817 0.999 . S
C815 H785 0.950 . S
C815 C814 1.524 . S
C815 C816 1.415 . S
C816 H786 0.950 . S
C816 C811 1.363 . S
C816 C815 1.415 . S
H817 C814 0.999 . S
H818 C799 0.913 . S
H819 C837 0.951 . S
H820 C839 0.951 . S
H821 C841 0.950 . S
H822 C842 0.950 . S
H823 C844 0.950 . S
H824 C847 0.950 . S
H825 C848 0.950 . S
H826 C850 0.950 . S
H827 C851 0.950 . S
H828 C852 0.951 . S
H829 C854 0.951 . S
H830 C856 0.950 . S
H831 C857 0.950 . S
H832 C859 0.950 . S
H833 C862 0.950 . S
H834 C863 0.950 . S
H835 C865 0.950 . S
H836 C866 0.950 . S
C837 H819 0.951 . S
C837 C838 1.366 . S
C837 C839 1.388 . S
C838 C837 1.366 . S
C838 C842 1.385 . S
C839 H820 0.951 . S
C839 C837 1.388 . S
C839 C840 1.366 1_554 S
C840 C839 1.366 1_556 S
C840 C841 1.414 . S
C840 C843 1.499 . S
C841 H821 0.950 . S
C841 C840 1.414 . S
C841 C842 1.374 1_556 S
C842 H822 0.950 . S
C842 C838 1.385 . S
C842 C841 1.374 1_554 S
C843 C840 1.499 . S
C843 C844 1.373 . S
C843 C845 1.389 . S
C844 H823 0.950 . S
C844 C843 1.373 . S
C844 C860 1.377 . S
C845 C843 1.389 . S
C845 C846 1.524 . S
C845 C859 1.377 . S
C846 C845 1.524 . S
C846 C847 1.397 . S
C846 C851 1.363 . S
C847 H824 0.950 . S
C847 C846 1.397 . S
C847 C848 1.334 . S
C848 H825 0.950 . S
C848 C847 1.334 . S
C848 C849 1.287 . S
C849 C848 1.287 . S
C849 C850 1.524 . S
C849 H868 0.913 . S
C850 H826 0.950 . S
C850 C849 1.524 . S
C850 C851 1.415 . S
C851 H827 0.950 . S
C851 C846 1.363 . S
C851 C850 1.415 . S
C852 H828 0.951 . S
C852 C853 1.366 . S
C852 C854 1.388 . S
C853 C852 1.366 . S
C853 C857 1.385 . S
C854 H829 0.951 . S
C854 C852 1.388 . S
C854 C855 1.366 . S
C855 C854 1.366 . S
C855 C856 1.414 . S
C855 C858 1.499 . S
C856 H830 0.950 . S
C856 C855 1.414 . S
C856 C857 1.374 . S
C857 H831 0.950 . S
C857 C853 1.385 . S
C857 C856 1.374 . S
C858 C855 1.499 . S
C858 C859 1.373 . S
C858 C860 1.389 . S
C859 H832 0.950 . S
C859 C845 1.377 . S
C859 C858 1.373 . S
C860 C844 1.377 . S
C860 C858 1.389 . S
C860 C861 1.524 . S
C861 C860 1.524 . S
C861 C862 1.397 . S
C861 C866 1.363 . S
C862 H833 0.950 . S
C862 C861 1.397 . S
C862 C863 1.334 . S
C863 H834 0.950 . S
C863 C862 1.334 . S
C863 C864 1.287 . S
C864 C863 1.287 . S
C864 C865 1.524 . S
C864 H867 0.999 . S
C865 H835 0.950 . S
C865 C864 1.524 . S
C865 C866 1.415 . S
C866 H836 0.950 . S
C866 C861 1.363 . S
C866 C865 1.415 . S
H867 C864 0.999 . S
H868 C849 0.913 . S
H869 C887 0.951 . S
H870 C889 0.951 . S
H871 C891 0.950 . S
H872 C892 0.950 1_554 S
H873 C894 0.950 . S
H874 C897 0.950 . S
H875 C898 0.950 . S
H876 C900 0.950 . S
H877 C901 0.950 . S
H878 C902 0.951 . S
H879 C904 0.951 . S
H880 C906 0.950 . S
H881 C907 0.950 . S
H882 C909 0.950 . S
H883 C912 0.950 . S
H884 C913 0.950 . S
H885 C915 0.950 . S
H886 C916 0.950 . S
C887 H869 0.951 . S
C887 C888 1.366 . S
C887 C889 1.388 . S
C888 C887 1.366 . S
C888 C892 1.385 . S
C889 H870 0.951 . S
C889 C887 1.388 . S
C889 C890 1.366 . S
C890 C889 1.366 . S
C890 C891 1.414 . S
C890 C893 1.499 . S
C891 H871 0.950 . S
C891 C890 1.414 . S
C891 C892 1.374 . S
C892 H872 0.950 1_556 S
C892 C888 1.385 . S
C892 C891 1.374 . S
C893 C890 1.499 . S
C893 C894 1.373 . S
C893 C895 1.389 . S
C894 H873 0.950 . S
C894 C893 1.373 . S
C894 C910 1.377 . S
C895 C893 1.389 . S
C895 C896 1.524 . S
C895 C909 1.377 . S
C896 C895 1.524 . S
C896 C897 1.397 . S
C896 C901 1.363 . S
C897 H874 0.950 . S
C897 C896 1.397 . S
C897 C898 1.334 . S
C898 H875 0.950 . S
C898 C897 1.334 . S
C898 C899 1.287 . S
C899 C898 1.287 . S
C899 C900 1.524 . S
C899 H918 0.913 . S
C900 H876 0.950 . S
C900 C899 1.524 . S
C900 C901 1.415 . S
C901 H877 0.950 . S
C901 C896 1.363 . S
C901 C900 1.415 . S
C902 H878 0.951 . S
C902 C903 1.366 . S
C902 C904 1.388 . S
C903 C902 1.366 . S
C903 C907 1.385 . S
C904 H879 0.951 . S
C904 C902 1.388 . S
C904 C905 1.366 . S
C905 C904 1.366 . S
C905 C906 1.414 . S
C905 C908 1.499 . S
C906 H880 0.950 . S
C906 C905 1.414 . S
C906 C907 1.374 . S
C907 H881 0.950 . S
C907 C903 1.385 . S
C907 C906 1.374 . S
C908 C905 1.499 . S
C908 C909 1.373 . S
C908 C910 1.389 . S
C909 H882 0.950 . S
C909 C895 1.377 . S
C909 C908 1.373 . S
C910 C894 1.377 . S
C910 C908 1.389 . S
C910 C911 1.524 . S
C911 C910 1.524 . S
C911 C912 1.397 . S
C911 C916 1.363 . S
C912 H883 0.950 . S
C912 C911 1.397 . S
C912 C913 1.334 . S
C913 H884 0.950 . S
C913 C912 1.334 . S
C913 C914 1.287 . S
C914 C913 1.287 . S
C914 C915 1.524 . S
C914 H917 0.999 . S
C915 H885 0.950 . S
C915 C914 1.524 . S
C915 C916 1.415 . S
C916 H886 0.950 . S
C916 C911 1.363 . S
C916 C915 1.415 . S
H917 C914 0.999 . S
H918 C899 0.913 . S
H919 C937 0.951 1_554 S
H920 C939 0.951 . S
H921 C941 0.950 . S
H922 C942 0.950 . S
H923 C944 0.950 . S
H924 C947 0.950 . S
H925 C948 0.950 . S
H926 C950 0.950 . S
H927 C951 0.950 1_556 S
H928 C952 0.951 . S
H929 C954 0.951 . S
H930 C956 0.950 . S
H931 C957 0.950 . S
H932 C959 0.950 . S
H933 C962 0.950 . S
H934 C963 0.950 . S
H935 C965 0.950 . S
H936 C966 0.950 . S
C937 H919 0.951 1_556 S
C937 C938 1.366 . S
C937 C939 1.388 . S
C938 C937 1.366 . S
C938 C942 1.385 . S
C939 H920 0.951 . S
C939 C937 1.388 . S
C939 C940 1.366 . S
C940 C939 1.366 . S
C940 C941 1.414 . S
C940 C943 1.499 . S
C941 H921 0.950 . S
C941 C940 1.414 . S
C941 C942 1.374 . S
C942 H922 0.950 . S
C942 C938 1.385 . S
C942 C941 1.374 . S
C943 C940 1.499 . S
C943 C944 1.373 . S
C943 C945 1.389 . S
C944 H923 0.950 . S
C944 C943 1.373 . S
C944 C960 1.377 . S
C945 C943 1.389 . S
C945 C946 1.524 . S
C945 C959 1.377 . S
C946 C945 1.524 . S
C946 C947 1.397 . S
C946 C951 1.363 1_556 S
C947 H924 0.950 . S
C947 C946 1.397 . S
C947 C948 1.334 1_556 S
C948 H925 0.950 . S
C948 C947 1.334 1_554 S
C948 C949 1.287 . S
C949 C948 1.287 . S
C949 C950 1.524 . S
C949 H968 0.913 . S
C950 H926 0.950 . S
C950 C949 1.524 . S
C950 C951 1.415 . S
C951 H927 0.950 1_554 S
C951 C946 1.363 1_554 S
C951 C950 1.415 . S
C952 H928 0.951 . S
C952 C953 1.366 . S
C952 C954 1.388 . S
C953 C952 1.366 . S
C953 C957 1.385 . S
C954 H929 0.951 . S
C954 C952 1.388 . S
C954 C955 1.366 . S
C955 C954 1.366 . S
C955 C956 1.414 . S
C955 C958 1.499 . S
C956 H930 0.950 . S
C956 C955 1.414 . S
C956 C957 1.374 . S
C957 H931 0.950 . S
C957 C953 1.385 . S
C957 C956 1.374 . S
C958 C955 1.499 . S
C958 C959 1.373 . S
C958 C960 1.389 . S
C959 H932 0.950 . S
C959 C945 1.377 . S
C959 C958 1.373 . S
C960 C944 1.377 . S
C960 C958 1.389 . S
C960 C961 1.524 . S
C961 C960 1.524 . S
C961 C962 1.397 . S
C961 C966 1.363 . S
C962 H933 0.950 . S
C962 C961 1.397 . S
C962 C963 1.334 . S
C963 H934 0.950 . S
C963 C962 1.334 . S
C963 C964 1.287 . S
C964 C963 1.287 . S
C964 C965 1.524 . S
C964 H967 0.999 . S
C965 H935 0.950 . S
C965 C964 1.524 . S
C965 C966 1.415 . S
C966 H936 0.950 . S
C966 C961 1.363 . S
C966 C965 1.415 . S
H967 C964 0.999 . S
H968 C949 0.913 . S
H969 C987 0.951 . S
H970 C989 0.951 . S
H971 C991 0.950 . S
H972 C992 0.950 . S
H973 C994 0.950 . S
H974 C997 0.950 . S
H975 C998 0.950 . S
H976 C1000 0.950 . S
H977 C1001 0.950 . S
H978 C1002 0.951 . S
H979 C1004 0.951 . S
H980 C1006 0.950 . S
H981 C1007 0.950 . S
H982 C1009 0.950 . S
H983 C1012 0.950 . S
H984 C1013 0.950 . S
H985 C1015 0.950 . S
H986 C1016 0.950 . S
C987 H969 0.951 . S
C987 C988 1.366 . S
C987 C989 1.388 . S
C988 C987 1.366 . S
C988 C992 1.385 . S
C989 H970 0.951 . S
C989 C987 1.388 . S
C989 C990 1.366 . S
C990 C989 1.366 . S
C990 C991 1.414 . S
C990 C993 1.499 . S
C991 H971 0.950 . S
C991 C990 1.414 . S
C991 C992 1.374 . S
C992 H972 0.950 . S
C992 C988 1.385 . S
C992 C991 1.374 . S
C993 C990 1.499 . S
C993 C994 1.373 . S
C993 C995 1.389 . S
C994 H973 0.950 . S
C994 C993 1.373 . S
C994 C1010 1.377 . S
C995 C993 1.389 . S
C995 C996 1.524 . S
C995 C1009 1.377 . S
C996 C995 1.524 . S
C996 C997 1.397 . S
C996 C1001 1.363 . S
C997 H974 0.950 . S
C997 C996 1.397 . S
C997 C998 1.334 . S
C998 H975 0.950 . S
C998 C997 1.334 . S
C998 C999 1.287 . S
C999 C998 1.287 . S
C999 C1000 1.524 . S
C999 H1018 0.913 . S
C1000 H976 0.950 . S
C1000 C999 1.524 . S
C1000 C1001 1.415 . S
C1001 H977 0.950 . S
C1001 C996 1.363 . S
C1001 C1000 1.415 . S
C1002 H978 0.951 . S
C1002 C1003 1.366 . S
C1002 C1004 1.388 . S
C1003 C1002 1.366 . S
C1003 C1007 1.385 . S
C1004 H979 0.951 . S
C1004 C1002 1.388 . S
C1004 C1005 1.366 . S
C1005 C1004 1.366 . S
C1005 C1006 1.414 . S
C1005 C1008 1.499 . S
C1006 H980 0.950 . S
C1006 C1005 1.414 . S
C1006 C1007 1.374 . S
C1007 H981 0.950 . S
C1007 C1003 1.385 . S
C1007 C1006 1.374 . S
C1008 C1005 1.499 . S
C1008 C1009 1.373 . S
C1008 C1010 1.389 . S
C1009 H982 0.950 . S
C1009 C995 1.377 . S
C1009 C1008 1.373 . S
C1010 C994 1.377 . S
C1010 C1008 1.389 . S
C1010 C1011 1.524 . S
C1011 C1010 1.524 . S
C1011 C1012 1.397 . S
C1011 C1016 1.363 . S
C1012 H983 0.950 . S
C1012 C1011 1.397 . S
C1012 C1013 1.334 . S
C1013 H984 0.950 . S
C1013 C1012 1.334 . S
C1013 C1014 1.287 . S
C1014 C1013 1.287 . S
C1014 C1015 1.524 . S
C1014 H1017 0.999 . S
C1015 H985 0.950 . S
C1015 C1014 1.524 . S
C1015 C1016 1.415 . S
C1016 H986 0.950 . S
C1016 C1011 1.363 . S
C1016 C1015 1.415 . S
H1017 C1014 0.999 . S
H1018 C999 0.913 . S
H1019 C1037 0.951 . S
H1020 C1039 0.951 . S
H1021 C1041 0.950 . S
H1022 C1042 0.950 . S
H1023 C1044 0.950 . S
H1024 C1047 0.950 . S
H1025 C1048 0.950 . S
H1026 C1050 0.950 . S
H1027 C1051 0.950 . S
H1028 C1052 0.951 . S
H1029 C1054 0.951 . S
H1030 C1056 0.950 . S
H1031 C1057 0.950 . S
H1032 C1059 0.950 . S
H1033 C1062 0.950 . S
H1034 C1063 0.950 . S
H1035 C1065 0.950 . S
H1036 C1066 0.950 . S
C1037 H1019 0.951 . S
C1037 C1038 1.366 . S
C1037 C1039 1.388 . S
C1038 C1037 1.366 . S
C1038 C1042 1.385 . S
C1039 H1020 0.951 . S
C1039 C1037 1.388 . S
C1039 C1040 1.366 . S
C1040 C1039 1.366 . S
C1040 C1041 1.414 . S
C1040 C1043 1.499 . S
C1041 H1021 0.950 . S
C1041 C1040 1.414 . S
C1041 C1042 1.374 . S
C1042 H1022 0.950 . S
C1042 C1038 1.385 . S
C1042 C1041 1.374 . S
C1043 C1040 1.499 . S
C1043 C1044 1.373 . S
C1043 C1045 1.389 . S
C1044 H1023 0.950 . S
C1044 C1043 1.373 . S
C1044 C1060 1.377 . S
C1045 C1043 1.389 . S
C1045 C1046 1.524 . S
C1045 C1059 1.377 . S
C1046 C1045 1.524 . S
C1046 C1047 1.397 . S
C1046 C1051 1.363 . S
C1047 H1024 0.950 . S
C1047 C1046 1.397 . S
C1047 C1048 1.334 . S
C1048 H1025 0.950 . S
C1048 C1047 1.334 . S
C1048 C1049 1.287 . S
C1049 C1048 1.287 . S
C1049 C1050 1.524 . S
C1049 H1068 0.913 . S
C1050 H1026 0.950 . S
C1050 C1049 1.524 . S
C1050 C1051 1.415 . S
C1051 H1027 0.950 . S
C1051 C1046 1.363 . S
C1051 C1050 1.415 . S
C1052 H1028 0.951 . S
C1052 C1053 1.366 . S
C1052 C1054 1.388 . S
C1053 C1052 1.366 . S
C1053 C1057 1.385 . S
C1054 H1029 0.951 . S
C1054 C1052 1.388 . S
C1054 C1055 1.366 . S
C1055 C1054 1.366 . S
C1055 C1056 1.414 . S
C1055 C1058 1.499 . S
C1056 H1030 0.950 . S
C1056 C1055 1.414 . S
C1056 C1057 1.374 . S
C1057 H1031 0.950 . S
C1057 C1053 1.385 . S
C1057 C1056 1.374 . S
C1058 C1055 1.499 . S
C1058 C1059 1.373 . S
C1058 C1060 1.389 . S
C1059 H1032 0.950 . S
C1059 C1045 1.377 . S
C1059 C1058 1.373 . S
C1060 C1044 1.377 . S
C1060 C1058 1.389 . S
C1060 C1061 1.524 . S
C1061 C1060 1.524 . S
C1061 C1062 1.397 . S
C1061 C1066 1.363 . S
C1062 H1033 0.950 . S
C1062 C1061 1.397 . S
C1062 C1063 1.334 . S
C1063 H1034 0.950 . S
C1063 C1062 1.334 . S
C1063 C1064 1.287 . S
C1064 C1063 1.287 . S
C1064 C1065 1.524 . S
C1064 H1067 0.999 . S
C1065 H1035 0.950 . S
C1065 C1064 1.524 . S
C1065 C1066 1.415 . S
C1066 H1036 0.950 . S
C1066 C1061 1.363 . S
C1066 C1065 1.415 . S
H1067 C1064 0.999 . S
H1068 C1049 0.913 . S
H1069 C1087 0.951 . S
H1070 C1089 0.951 . S
H1071 C1091 0.950 . S
H1072 C1092 0.950 . S
H1073 C1094 0.950 . S
H1074 C1097 0.950 . S
H1075 C1098 0.950 . S
H1076 C1100 0.950 . S
H1077 C1101 0.950 . S
H1078 C1102 0.951 . S
H1079 C1104 0.951 . S
H1080 C1106 0.950 . S
H1081 C1107 0.950 . S
H1082 C1109 0.950 . S
H1083 C1112 0.950 . S
H1084 C1113 0.950 . S
H1085 C1115 0.950 1_554 S
H1086 C1116 0.950 . S
C1087 H1069 0.951 . S
C1087 C1088 1.366 1_556 S
C1087 C1089 1.388 . S
C1088 C1087 1.366 1_554 S
C1088 C1092 1.385 . S
C1089 H1070 0.951 . S
C1089 C1087 1.388 . S
C1089 C1090 1.366 . S
C1090 C1089 1.366 . S
C1090 C1091 1.414 1_556 S
C1090 C1093 1.499 . S
C1091 H1071 0.950 . S
C1091 C1090 1.414 1_554 S
C1091 C1092 1.374 . S
C1092 H1072 0.950 . S
C1092 C1088 1.385 . S
C1092 C1091 1.374 . S
C1093 C1090 1.499 . S
C1093 C1094 1.373 . S
C1093 C1095 1.389 . S
C1094 H1073 0.950 . S
C1094 C1093 1.373 . S
C1094 C1110 1.377 . S
C1095 C1093 1.389 . S
C1095 C1096 1.524 . S
C1095 C1109 1.377 . S
C1096 C1095 1.524 . S
C1096 C1097 1.397 . S
C1096 C1101 1.363 . S
C1097 H1074 0.950 . S
C1097 C1096 1.397 . S
C1097 C1098 1.334 . S
C1098 H1075 0.950 . S
C1098 C1097 1.334 . S
C1098 C1099 1.287 . S
C1099 C1098 1.287 . S
C1099 C1100 1.524 . S
C1099 H1118 0.913 . S
C1100 H1076 0.950 . S
C1100 C1099 1.524 . S
C1100 C1101 1.415 . S
C1101 H1077 0.950 . S
C1101 C1096 1.363 . S
C1101 C1100 1.415 . S
C1102 H1078 0.951 . S
C1102 C1103 1.366 . S
C1102 C1104 1.388 . S
C1103 C1102 1.366 . S
C1103 C1107 1.385 . S
C1104 H1079 0.951 . S
C1104 C1102 1.388 . S
C1104 C1105 1.366 . S
C1105 C1104 1.366 . S
C1105 C1106 1.414 . S
C1105 C1108 1.499 . S
C1106 H1080 0.950 . S
C1106 C1105 1.414 . S
C1106 C1107 1.374 . S
C1107 H1081 0.950 . S
C1107 C1103 1.385 . S
C1107 C1106 1.374 . S
C1108 C1105 1.499 . S
C1108 C1109 1.373 . S
C1108 C1110 1.389 . S
C1109 H1082 0.950 . S
C1109 C1095 1.377 . S
C1109 C1108 1.373 . S
C1110 C1094 1.377 . S
C1110 C1108 1.389 . S
C1110 C1111 1.524 . S
C1111 C1110 1.524 . S
C1111 C1112 1.397 . S
C1111 C1116 1.363 . S
C1112 H1083 0.950 . S
C1112 C1111 1.397 . S
C1112 C1113 1.334 . S
C1113 H1084 0.950 . S
C1113 C1112 1.334 . S
C1113 C1114 1.287 . S
C1114 C1113 1.287 . S
C1114 C1115 1.524 . S
C1114 H1117 0.999 . S
C1115 H1085 0.950 1_556 S
C1115 C1114 1.524 . S
C1115 C1116 1.415 . S
C1116 H1086 0.950 . S
C1116 C1111 1.363 . S
C1116 C1115 1.415 . S
H1117 C1114 0.999 . S
H1118 C1099 0.913 . S
H1119 C1137 0.951 . S
H1120 C1139 0.951 . S
H1121 C1141 0.950 . S
H1122 C1142 0.950 . S
H1123 C1144 0.950 . S
H1124 C1147 0.950 . S
H1125 C1148 0.950 . S
H1126 C1150 0.950 . S
H1127 C1151 0.950 . S
H1128 C1152 0.951 . S
H1129 C1154 0.951 . S
H1130 C1156 0.950 . S
H1131 C1157 0.950 . S
H1132 C1159 0.950 . S
H1133 C1162 0.950 . S
H1134 C1163 0.950 . S
H1135 C1165 0.950 . S
H1136 C1166 0.950 . S
C1137 H1119 0.951 . S
C1137 C1138 1.366 . S
C1137 C1139 1.388 . S
C1138 C1137 1.366 . S
C1138 C1142 1.385 . S
C1139 H1120 0.951 . S
C1139 C1137 1.388 . S
C1139 C1140 1.366 . S
C1140 C1139 1.366 . S
C1140 C1141 1.414 . S
C1140 C1143 1.499 . S
C1141 H1121 0.950 . S
C1141 C1140 1.414 . S
C1141 C1142 1.374 . S
C1142 H1122 0.950 . S
C1142 C1138 1.385 . S
C1142 C1141 1.374 . S
C1143 C1140 1.499 . S
C1143 C1144 1.373 . S
C1143 C1145 1.389 . S
C1144 H1123 0.950 . S
C1144 C1143 1.373 . S
C1144 C1160 1.377 . S
C1145 C1143 1.389 . S
C1145 C1146 1.524 . S
C1145 C1159 1.377 . S
C1146 C1145 1.524 . S
C1146 C1147 1.397 . S
C1146 C1151 1.363 . S
C1147 H1124 0.950 . S
C1147 C1146 1.397 . S
C1147 C1148 1.334 . S
C1148 H1125 0.950 . S
C1148 C1147 1.334 . S
C1148 C1149 1.287 . S
C1149 C1148 1.287 . S
C1149 C1150 1.524 . S
C1149 H1168 0.913 . S
C1150 H1126 0.950 . S
C1150 C1149 1.524 . S
C1150 C1151 1.415 . S
C1151 H1127 0.950 . S
C1151 C1146 1.363 . S
C1151 C1150 1.415 . S
C1152 H1128 0.951 . S
C1152 C1153 1.366 . S
C1152 C1154 1.388 . S
C1153 C1152 1.366 . S
C1153 C1157 1.385 . S
C1154 H1129 0.951 . S
C1154 C1152 1.388 . S
C1154 C1155 1.366 . S
C1155 C1154 1.366 . S
C1155 C1156 1.414 . S
C1155 C1158 1.499 . S
C1156 H1130 0.950 . S
C1156 C1155 1.414 . S
C1156 C1157 1.374 . S
C1157 H1131 0.950 . S
C1157 C1153 1.385 . S
C1157 C1156 1.374 . S
C1158 C1155 1.499 . S
C1158 C1159 1.373 . S
C1158 C1160 1.389 . S
C1159 H1132 0.950 . S
C1159 C1145 1.377 . S
C1159 C1158 1.373 . S
C1160 C1144 1.377 . S
C1160 C1158 1.389 . S
C1160 C1161 1.524 . S
C1161 C1160 1.524 . S
C1161 C1162 1.397 . S
C1161 C1166 1.363 . S
C1162 H1133 0.950 . S
C1162 C1161 1.397 . S
C1162 C1163 1.334 . S
C1163 H1134 0.950 . S
C1163 C1162 1.334 . S
C1163 C1164 1.287 . S
C1164 C1163 1.287 . S
C1164 C1165 1.524 . S
C1164 H1167 0.999 . S
C1165 H1135 0.950 . S
C1165 C1164 1.524 . S
C1165 C1166 1.415 . S
C1166 H1136 0.950 . S
C1166 C1161 1.363 . S
C1166 C1165 1.415 . S
H1167 C1164 0.999 . S
H1168 C1149 0.913 . S
H1169 C1187 0.951 . S
H1170 C1189 0.951 . S
H1171 C1191 0.950 . S
H1172 C1192 0.950 1_554 S
H1173 C1194 0.950 . S
H1174 C1197 0.950 . S
H1175 C1198 0.950 . S
H1176 C1200 0.950 . S
H1177 C1201 0.950 . S
H1178 C1202 0.951 . S
H1179 C1204 0.951 . S
H1180 C1206 0.950 . S
H1181 C1207 0.950 . S
H1182 C1209 0.950 . S
H1183 C1212 0.950 . S
H1184 C1213 0.950 . S
H1185 C1215 0.950 . S
H1186 C1216 0.950 . S
C1187 H1169 0.951 . S
C1187 C1188 1.366 . S
C1187 C1189 1.388 . S
C1188 C1187 1.366 . S
C1188 C1192 1.385 . S
C1189 H1170 0.951 . S
C1189 C1187 1.388 . S
C1189 C1190 1.366 . S
C1190 C1189 1.366 . S
C1190 C1191 1.414 . S
C1190 C1193 1.499 . S
C1191 H1171 0.950 . S
C1191 C1190 1.414 . S
C1191 C1192 1.374 . S
C1192 H1172 0.950 1_556 S
C1192 C1188 1.385 . S
C1192 C1191 1.374 . S
C1193 C1190 1.499 . S
C1193 C1194 1.373 . S
C1193 C1195 1.389 . S
C1194 H1173 0.950 . S
C1194 C1193 1.373 . S
C1194 C1210 1.377 . S
C1195 C1193 1.389 . S
C1195 C1196 1.524 . S
C1195 C1209 1.377 . S
C1196 C1195 1.524 . S
C1196 C1197 1.397 . S
C1196 C1201 1.363 . S
C1197 H1174 0.950 . S
C1197 C1196 1.397 . S
C1197 C1198 1.334 . S
C1198 H1175 0.950 . S
C1198 C1197 1.334 . S
C1198 C1199 1.287 . S
C1199 C1198 1.287 . S
C1199 C1200 1.524 . S
C1199 H1218 0.913 . S
C1200 H1176 0.950 . S
C1200 C1199 1.524 . S
C1200 C1201 1.415 . S
C1201 H1177 0.950 . S
C1201 C1196 1.363 . S
C1201 C1200 1.415 . S
C1202 H1178 0.951 . S
C1202 C1203 1.366 . S
C1202 C1204 1.388 . S
C1203 C1202 1.366 . S
C1203 C1207 1.385 . S
C1204 H1179 0.951 . S
C1204 C1202 1.388 . S
C1204 C1205 1.366 . S
C1205 C1204 1.366 . S
C1205 C1206 1.414 . S
C1205 C1208 1.499 . S
C1206 H1180 0.950 . S
C1206 C1205 1.414 . S
C1206 C1207 1.374 . S
C1207 H1181 0.950 . S
C1207 C1203 1.385 . S
C1207 C1206 1.374 . S
C1208 C1205 1.499 . S
C1208 C1209 1.373 . S
C1208 C1210 1.389 . S
C1209 H1182 0.950 . S
C1209 C1195 1.377 . S
C1209 C1208 1.373 . S
C1210 C1194 1.377 . S
C1210 C1208 1.389 . S
C1210 C1211 1.524 . S
C1211 C1210 1.524 . S
C1211 C1212 1.397 . S
C1211 C1216 1.363 . S
C1212 H1183 0.950 . S
C1212 C1211 1.397 . S
C1212 C1213 1.334 . S
C1213 H1184 0.950 . S
C1213 C1212 1.334 . S
C1213 C1214 1.287 . S
C1214 C1213 1.287 . S
C1214 C1215 1.524 . S
C1214 H1217 0.999 . S
C1215 H1185 0.950 . S
C1215 C1214 1.524 . S
C1215 C1216 1.415 . S
C1216 H1186 0.950 . S
C1216 C1211 1.363 . S
C1216 C1215 1.415 . S
H1217 C1214 0.999 . S
H1218 C1199 0.913 . S
H1219 C1237 0.951 . S
H1220 C1239 0.951 . S
H1221 C1241 0.950 . S
H1222 C1242 0.950 . S
H1223 C1244 0.950 . S
H1224 C1247 0.950 . S
H1225 C1248 0.950 . S
H1226 C1250 0.950 . S
H1227 C1251 0.950 . S
H1228 C1252 0.951 . S
H1229 C1254 0.951 . S
H1230 C1256 0.950 . S
H1231 C1257 0.950 . S
H1232 C1259 0.950 . S
H1233 C1262 0.950 . S
H1234 C1263 0.950 . S
H1235 C1265 0.950 . S
H1236 C1266 0.950 . S
C1237 H1219 0.951 . S
C1237 C1238 1.366 . S
C1237 C1239 1.388 . S
C1238 C1237 1.366 . S
C1238 C1242 1.385 . S
C1239 H1220 0.951 . S
C1239 C1237 1.388 . S
C1239 C1240 1.366 . S
C1240 C1239 1.366 . S
C1240 C1241 1.414 . S
C1240 C1243 1.499 . S
C1241 H1221 0.950 . S
C1241 C1240 1.414 . S
C1241 C1242 1.374 . S
C1242 H1222 0.950 . S
C1242 C1238 1.385 . S
C1242 C1241 1.374 . S
C1243 C1240 1.499 . S
C1243 C1244 1.373 . S
C1243 C1245 1.389 . S
C1244 H1223 0.950 . S
C1244 C1243 1.373 . S
C1244 C1260 1.377 . S
C1245 C1243 1.389 . S
C1245 C1246 1.524 . S
C1245 C1259 1.377 . S
C1246 C1245 1.524 . S
C1246 C1247 1.397 . S
C1246 C1251 1.363 . S
C1247 H1224 0.950 . S
C1247 C1246 1.397 . S
C1247 C1248 1.334 . S
C1248 H1225 0.950 . S
C1248 C1247 1.334 . S
C1248 C1249 1.287 . S
C1249 C1248 1.287 . S
C1249 C1250 1.524 . S
C1249 H1268 0.913 . S
C1250 H1226 0.950 . S
C1250 C1249 1.524 . S
C1250 C1251 1.415 . S
C1251 H1227 0.950 . S
C1251 C1246 1.363 . S
C1251 C1250 1.415 . S
C1252 H1228 0.951 . S
C1252 C1253 1.366 . S
C1252 C1254 1.388 . S
C1253 C1252 1.366 . S
C1253 C1257 1.385 . S
C1254 H1229 0.951 . S
C1254 C1252 1.388 . S
C1254 C1255 1.366 . S
C1255 C1254 1.366 . S
C1255 C1256 1.414 . S
C1255 C1258 1.499 . S
C1256 H1230 0.950 . S
C1256 C1255 1.414 . S
C1256 C1257 1.374 . S
C1257 H1231 0.950 . S
C1257 C1253 1.385 . S
C1257 C1256 1.374 . S
C1258 C1255 1.499 . S
C1258 C1259 1.373 . S
C1258 C1260 1.389 . S
C1259 H1232 0.950 . S
C1259 C1245 1.377 . S
C1259 C1258 1.373 . S
C1260 C1244 1.377 . S
C1260 C1258 1.389 . S
C1260 C1261 1.524 . S
C1261 C1260 1.524 . S
C1261 C1262 1.397 . S
C1261 C1266 1.363 . S
C1262 H1233 0.950 . S
C1262 C1261 1.397 . S
C1262 C1263 1.334 . S
C1263 H1234 0.950 . S
C1263 C1262 1.334 . S
C1263 C1264 1.287 . S
C1264 C1263 1.287 . S
C1264 C1265 1.524 . S
C1264 H1267 0.999 . S
C1265 H1235 0.950 . S
C1265 C1264 1.524 . S
C1265 C1266 1.415 . S
C1266 H1236 0.950 . S
C1266 C1261 1.363 . S
C1266 C1265 1.415 . S
H1267 C1264 0.999 . S
H1268 C1249 0.913 . S
H1269 C1287 0.951 . S
H1270 C1289 0.951 . S
H1271 C1291 0.950 . S
H1272 C1292 0.950 . S
H1273 C1294 0.950 . S
H1274 C1297 0.950 . S
H1275 C1298 0.950 . S
H1276 C1300 0.950 . S
H1277 C1301 0.950 . S
H1278 C1302 0.951 . S
H1279 C1304 0.951 . S
H1280 C1306 0.950 . S
H1281 C1307 0.950 . S
H1282 C1309 0.950 . S
H1283 C1312 0.950 . S
H1284 C1313 0.950 . S
H1285 C1315 0.950 . S
H1286 C1316 0.950 . S
C1287 H1269 0.951 . S
C1287 C1288 1.366 . S
C1287 C1289 1.388 . S
C1288 C1287 1.366 . S
C1288 C1292 1.385 . S
C1289 H1270 0.951 . S
C1289 C1287 1.388 . S
C1289 C1290 1.366 . S
C1290 C1289 1.366 . S
C1290 C1291 1.414 . S
C1290 C1293 1.499 . S
C1291 H1271 0.950 . S
C1291 C1290 1.414 . S
C1291 C1292 1.374 . S
C1292 H1272 0.950 . S
C1292 C1288 1.385 . S
C1292 C1291 1.374 . S
C1293 C1290 1.499 . S
C1293 C1294 1.373 . S
C1293 C1295 1.389 . S
C1294 H1273 0.950 . S
C1294 C1293 1.373 . S
C1294 C1310 1.377 . S
C1295 C1293 1.389 . S
C1295 C1296 1.524 . S
C1295 C1309 1.377 . S
C1296 C1295 1.524 . S
C1296 C1297 1.397 . S
C1296 C1301 1.363 . S
C1297 H1274 0.950 . S
C1297 C1296 1.397 . S
C1297 C1298 1.334 . S
C1298 H1275 0.950 . S
C1298 C1297 1.334 . S
C1298 C1299 1.287 . S
C1299 C1298 1.287 . S
C1299 C1300 1.524 . S
C1299 H1318 0.913 . S
C1300 H1276 0.950 . S
C1300 C1299 1.524 . S
C1300 C1301 1.415 . S
C1301 H1277 0.950 . S
C1301 C1296 1.363 . S
C1301 C1300 1.415 . S
C1302 H1278 0.951 . S
C1302 C1303 1.366 . S
C1302 C1304 1.388 . S
C1303 C1302 1.366 . S
C1303 C1307 1.385 . S
C1304 H1279 0.951 . S
C1304 C1302 1.388 . S
C1304 C1305 1.366 . S
C1305 C1304 1.366 . S
C1305 C1306 1.414 . S
C1305 C1308 1.499 . S
C1306 H1280 0.950 . S
C1306 C1305 1.414 . S
C1306 C1307 1.374 . S
C1307 H1281 0.950 . S
C1307 C1303 1.385 . S
C1307 C1306 1.374 . S
C1308 C1305 1.499 . S
C1308 C1309 1.373 . S
C1308 C1310 1.389 . S
C1309 H1282 0.950 . S
C1309 C1295 1.377 . S
C1309 C1308 1.373 . S
C1310 C1294 1.377 . S
C1310 C1308 1.389 . S
C1310 C1311 1.524 . S
C1311 C1310 1.524 . S
C1311 C1312 1.397 . S
C1311 C1316 1.363 . S
C1312 H1283 0.950 . S
C1312 C1311 1.397 . S
C1312 C1313 1.334 . S
C1313 H1284 0.950 . S
C1313 C1312 1.334 . S
C1313 C1314 1.287 . S
C1314 C1313 1.287 . S
C1314 C1315 1.524 . S
C1314 H1317 0.999 . S
C1315 H1285 0.950 . S
C1315 C1314 1.524 . S
C1315 C1316 1.415 . S
C1316 H1286 0.950 . S
C1316 C1311 1.363 . S
C1316 C1315 1.415 . S
H1317 C1314 0.999 . S
H1318 C1299 0.913 . S
H1319 C1337 0.951 . S
H1320 C1339 0.951 . S
H1321 C1341 0.950 . S
H1322 C1342 0.950 . S
H1323 C1344 0.950 . S
H1324 C1347 0.950 . S
H1325 C1348 0.950 . S
H1326 C1350 0.950 . S
H1327 C1351 0.950 . S
H1328 C1352 0.951 . S
H1329 C1354 0.951 . S
H1330 C1356 0.950 . S
H1331 C1357 0.950 . S
H1332 C1359 0.950 . S
H1333 C1362 0.950 . S
H1334 C1363 0.950 . S
H1335 C1365 0.950 . S
H1336 C1366 0.950 . S
C1337 H1319 0.951 . S
C1337 C1338 1.366 . S
C1337 C1339 1.388 . S
C1338 C1337 1.366 . S
C1338 C1342 1.385 . S
C1339 H1320 0.951 . S
C1339 C1337 1.388 . S
C1339 C1340 1.366 . S
C1340 C1339 1.366 . S
C1340 C1341 1.414 . S
C1340 C1343 1.499 . S
C1341 H1321 0.950 . S
C1341 C1340 1.414 . S
C1341 C1342 1.374 . S
C1342 H1322 0.950 . S
C1342 C1338 1.385 . S
C1342 C1341 1.374 . S
C1343 C1340 1.499 . S
C1343 C1344 1.373 . S
C1343 C1345 1.389 . S
C1344 H1323 0.950 . S
C1344 C1343 1.373 . S
C1344 C1360 1.377 . S
C1345 C1343 1.389 . S
C1345 C1346 1.524 . S
C1345 C1359 1.377 . S
C1346 C1345 1.524 . S
C1346 C1347 1.397 . S
C1346 C1351 1.363 . S
C1347 H1324 0.950 . S
C1347 C1346 1.397 . S
C1347 C1348 1.334 . S
C1348 H1325 0.950 . S
C1348 C1347 1.334 . S
C1348 C1349 1.287 . S
C1349 C1348 1.287 . S
C1349 C1350 1.524 . S
C1349 H1368 0.913 . S
C1350 H1326 0.950 . S
C1350 C1349 1.524 . S
C1350 C1351 1.415 . S
C1351 H1327 0.950 . S
C1351 C1346 1.363 . S
C1351 C1350 1.415 . S
C1352 H1328 0.951 . S
C1352 C1353 1.366 . S
C1352 C1354 1.388 . S
C1353 C1352 1.366 . S
C1353 C1357 1.385 . S
C1354 H1329 0.951 . S
C1354 C1352 1.388 . S
C1354 C1355 1.366 . S
C1355 C1354 1.366 . S
C1355 C1356 1.414 . S
C1355 C1358 1.499 . S
C1356 H1330 0.950 . S
C1356 C1355 1.414 . S
C1356 C1357 1.374 . S
C1357 H1331 0.950 . S
C1357 C1353 1.385 . S
C1357 C1356 1.374 . S
C1358 C1355 1.499 . S
C1358 C1359 1.373 . S
C1358 C1360 1.389 . S
C1359 H1332 0.950 . S
C1359 C1345 1.377 . S
C1359 C1358 1.373 . S
C1360 C1344 1.377 . S
C1360 C1358 1.389 . S
C1360 C1361 1.524 . S
C1361 C1360 1.524 . S
C1361 C1362 1.397 . S
C1361 C1366 1.363 . S
C1362 H1333 0.950 . S
C1362 C1361 1.397 . S
C1362 C1363 1.334 . S
C1363 H1334 0.950 . S
C1363 C1362 1.334 . S
C1363 C1364 1.287 . S
C1364 C1363 1.287 . S
C1364 C1365 1.524 . S
C1364 H1367 0.999 . S
C1365 H1335 0.950 . S
C1365 C1364 1.524 . S
C1365 C1366 1.415 . S
C1366 H1336 0.950 . S
C1366 C1361 1.363 . S
C1366 C1365 1.415 . S
H1367 C1364 0.999 . S
H1368 C1349 0.913 . S
H1369 C1387 0.951 . S
H1370 C1389 0.951 . S
H1371 C1391 0.950 . S
H1372 C1392 0.950 . S
H1373 C1394 0.950 . S
H1374 C1397 0.950 . S
H1375 C1398 0.950 . S
H1376 C1400 0.950 . S
H1377 C1401 0.950 . S
H1378 C1402 0.951 . S
H1379 C1404 0.951 . S
H1380 C1406 0.950 . S
H1381 C1407 0.950 . S
H1382 C1409 0.950 . S
H1383 C1412 0.950 . S
H1384 C1413 0.950 . S
H1385 C1415 0.950 . S
H1386 C1416 0.950 . S
C1387 H1369 0.951 . S
C1387 C1388 1.366 . S
C1387 C1389 1.388 . S
C1388 C1387 1.366 . S
C1388 C1392 1.385 . S
C1389 H1370 0.951 . S
C1389 C1387 1.388 . S
C1389 C1390 1.366 . S
C1390 C1389 1.366 . S
C1390 C1391 1.414 . S
C1390 C1393 1.499 . S
C1391 H1371 0.950 . S
C1391 C1390 1.414 . S
C1391 C1392 1.374 . S
C1392 H1372 0.950 . S
C1392 C1388 1.385 . S
C1392 C1391 1.374 . S
C1393 C1390 1.499 . S
C1393 C1394 1.373 . S
C1393 C1395 1.389 . S
C1394 H1373 0.950 . S
C1394 C1393 1.373 . S
C1394 C1410 1.377 . S
C1395 C1393 1.389 . S
C1395 C1396 1.524 . S
C1395 C1409 1.377 . S
C1396 C1395 1.524 . S
C1396 C1397 1.397 . S
C1396 C1401 1.363 . S
C1397 H1374 0.950 . S
C1397 C1396 1.397 . S
C1397 C1398 1.334 . S
C1398 H1375 0.950 . S
C1398 C1397 1.334 . S
C1398 C1399 1.287 . S
C1399 C1398 1.287 . S
C1399 C1400 1.524 . S
C1399 H1418 0.913 . S
C1400 H1376 0.950 . S
C1400 C1399 1.524 . S
C1400 C1401 1.415 . S
C1401 H1377 0.950 . S
C1401 C1396 1.363 . S
C1401 C1400 1.415 . S
C1402 H1378 0.951 . S
C1402 C1403 1.366 . S
C1402 C1404 1.388 . S
C1403 C1402 1.366 . S
C1403 C1407 1.385 . S
C1404 H1379 0.951 . S
C1404 C1402 1.388 . S
C1404 C1405 1.366 . S
C1405 C1404 1.366 . S
C1405 C1406 1.414 . S
C1405 C1408 1.499 . S
C1406 H1380 0.950 . S
C1406 C1405 1.414 . S
C1406 C1407 1.374 . S
C1407 H1381 0.950 . S
C1407 C1403 1.385 . S
C1407 C1406 1.374 . S
C1408 C1405 1.499 . S
C1408 C1409 1.373 . S
C1408 C1410 1.389 . S
C1409 H1382 0.950 . S
C1409 C1395 1.377 . S
C1409 C1408 1.373 . S
C1410 C1394 1.377 . S
C1410 C1408 1.389 . S
C1410 C1411 1.524 . S
C1411 C1410 1.524 . S
C1411 C1412 1.397 . S
C1411 C1416 1.363 . S
C1412 H1383 0.950 . S
C1412 C1411 1.397 . S
C1412 C1413 1.334 . S
C1413 H1384 0.950 . S
C1413 C1412 1.334 . S
C1413 C1414 1.287 . S
C1414 C1413 1.287 . S
C1414 C1415 1.524 . S
C1414 H1417 0.999 . S
C1415 H1385 0.950 . S
C1415 C1414 1.524 . S
C1415 C1416 1.415 . S
C1416 H1386 0.950 . S
C1416 C1411 1.363 . S
C1416 C1415 1.415 . S
H1417 C1414 0.999 . S
H1418 C1399 0.913 . S
H1419 C1437 0.951 . S
H1420 C1439 0.951 . S
H1421 C1441 0.950 . S
H1422 C1442 0.950 . S
H1423 C1444 0.950 . S
H1424 C1447 0.950 . S
H1425 C1448 0.950 . S
H1426 C1450 0.950 . S
H1427 C1451 0.950 . S
H1428 C1452 0.951 . S
H1429 C1454 0.951 . S
H1430 C1456 0.950 . S
H1431 C1457 0.950 . S
H1432 C1459 0.950 . S
H1433 C1462 0.950 . S
H1434 C1463 0.950 . S
H1435 C1465 0.950 . S
H1436 C1466 0.950 . S
C1437 H1419 0.951 . S
C1437 C1438 1.366 . S
C1437 C1439 1.388 . S
C1438 C1437 1.366 . S
C1438 C1442 1.385 . S
C1439 H1420 0.951 . S
C1439 C1437 1.388 . S
C1439 C1440 1.366 . S
C1440 C1439 1.366 . S
C1440 C1441 1.414 . S
C1440 C1443 1.499 . S
C1441 H1421 0.950 . S
C1441 C1440 1.414 . S
C1441 C1442 1.374 . S
C1442 H1422 0.950 . S
C1442 C1438 1.385 . S
C1442 C1441 1.374 . S
C1443 C1440 1.499 . S
C1443 C1444 1.373 . S
C1443 C1445 1.389 . S
C1444 H1423 0.950 . S
C1444 C1443 1.373 . S
C1444 C1460 1.377 . S
C1445 C1443 1.389 . S
C1445 C1446 1.524 . S
C1445 C1459 1.377 . S
C1446 C1445 1.524 . S
C1446 C1447 1.397 . S
C1446 C1451 1.363 . S
C1447 H1424 0.950 . S
C1447 C1446 1.397 . S
C1447 C1448 1.334 . S
C1448 H1425 0.950 . S
C1448 C1447 1.334 . S
C1448 C1449 1.287 . S
C1449 C1448 1.287 . S
C1449 C1450 1.524 . S
C1449 H1468 0.913 . S
C1450 H1426 0.950 . S
C1450 C1449 1.524 . S
C1450 C1451 1.415 . S
C1451 H1427 0.950 . S
C1451 C1446 1.363 . S
C1451 C1450 1.415 . S
C1452 H1428 0.951 . S
C1452 C1453 1.366 . S
C1452 C1454 1.388 . S
C1453 C1452 1.366 . S
C1453 C1457 1.385 . S
C1454 H1429 0.951 . S
C1454 C1452 1.388 . S
C1454 C1455 1.366 . S
C1455 C1454 1.366 . S
C1455 C1456 1.414 . S
C1455 C1458 1.499 . S
C1456 H1430 0.950 . S
C1456 C1455 1.414 . S
C1456 C1457 1.374 . S
C1457 H1431 0.950 . S
C1457 C1453 1.385 . S
C1457 C1456 1.374 . S
C1458 C1455 1.499 . S
C1458 C1459 1.373 . S
C1458 C1460 1.389 . S
C1459 H1432 0.950 . S
C1459 C1445 1.377 . S
C1459 C1458 1.373 . S
C1460 C1444 1.377 . S
C1460 C1458 1.389 . S
C1460 C1461 1.524 . S
C1461 C1460 1.524 . S
C1461 C1462 1.397 . S
C1461 C1466 1.363 . S
C1462 H1433 0.950 . S
C1462 C1461 1.397 . S
C1462 C1463 1.334 . S
C1463 H1434 0.950 . S
C1463 C1462 1.334 . S
C1463 C1464 1.287 . S
C1464 C1463 1.287 . S
C1464 C1465 1.524 . S
C1464 H1467 0.999 . S
C1465 H1435 0.950 . S
C1465 C1464 1.524 . S
C1465 C1466 1.415 . S
C1466 H1436 0.950 . S
C1466 C1461 1.363 . S
C1466 C1465 1.415 . S
H1467 C1464 0.999 . S
H1468 C1449 0.913 . S
H1469 C1487 0.951 . S
H1470 C1489 0.951 . S
H1471 C1491 0.950 . S
H1472 C1492 0.950 . S
H1473 C1494 0.950 . S
H1474 C1497 0.950 . S
H1475 C1498 0.950 . S
H1476 C1500 0.950 . S
H1477 C1501 0.950 . S
H1478 C1502 0.951 . S
H1479 C1504 0.951 . S
H1480 C1506 0.950 . S
H1481 C1507 0.950 . S
H1482 C1509 0.950 . S
H1483 C1512 0.950 . S
H1484 C1513 0.950 . S
H1485 C1515 0.950 . S
H1486 C1516 0.950 . S
C1487 H1469 0.951 . S
C1487 C1488 1.366 . S
C1487 C1489 1.388 . S
C1488 C1487 1.366 . S
C1488 C1492 1.385 . S
C1489 H1470 0.951 . S
C1489 C1487 1.388 . S
C1489 C1490 1.366 . S
C1490 C1489 1.366 . S
C1490 C1491 1.414 . S
C1490 C1493 1.499 . S
C1491 H1471 0.950 . S
C1491 C1490 1.414 . S
C1491 C1492 1.374 . S
C1492 H1472 0.950 . S
C1492 C1488 1.385 . S
C1492 C1491 1.374 . S
C1493 C1490 1.499 . S
C1493 C1494 1.373 . S
C1493 C1495 1.389 . S
C1494 H1473 0.950 . S
C1494 C1493 1.373 . S
C1494 C1510 1.377 . S
C1495 C1493 1.389 . S
C1495 C1496 1.524 . S
C1495 C1509 1.377 . S
C1496 C1495 1.524 . S
C1496 C1497 1.397 . S
C1496 C1501 1.363 . S
C1497 H1474 0.950 . S
C1497 C1496 1.397 . S
C1497 C1498 1.334 . S
C1498 H1475 0.950 . S
C1498 C1497 1.334 . S
C1498 C1499 1.287 . S
C1499 C1498 1.287 . S
C1499 C1500 1.524 . S
C1499 H1518 0.913 . S
C1500 H1476 0.950 . S
C1500 C1499 1.524 . S
C1500 C1501 1.415 . S
C1501 H1477 0.950 . S
C1501 C1496 1.363 . S
C1501 C1500 1.415 . S
C1502 H1478 0.951 . S
C1502 C1503 1.366 . S
C1502 C1504 1.388 . S
C1503 C1502 1.366 . S
C1503 C1507 1.385 . S
C1504 H1479 0.951 . S
C1504 C1502 1.388 . S
C1504 C1505 1.366 . S
C1505 C1504 1.366 . S
C1505 C1506 1.414 . S
C1505 C1508 1.499 . S
C1506 H1480 0.950 . S
C1506 C1505 1.414 . S
C1506 C1507 1.374 . S
C1507 H1481 0.950 . S
C1507 C1503 1.385 . S
C1507 C1506 1.374 . S
C1508 C1505 1.499 . S
C1508 C1509 1.373 . S
C1508 C1510 1.389 . S
C1509 H1482 0.950 . S
C1509 C1495 1.377 . S
C1509 C1508 1.373 . S
C1510 C1494 1.377 . S
C1510 C1508 1.389 . S
C1510 C1511 1.524 . S
C1511 C1510 1.524 . S
C1511 C1512 1.397 . S
C1511 C1516 1.363 . S
C1512 H1483 0.950 . S
C1512 C1511 1.397 . S
C1512 C1513 1.334 . S
C1513 H1484 0.950 . S
C1513 C1512 1.334 . S
C1513 C1514 1.287 . S
C1514 C1513 1.287 . S
C1514 C1515 1.524 . S
C1514 H1517 0.999 . S
C1515 H1485 0.950 . S
C1515 C1514 1.524 . S
C1515 C1516 1.415 . S
C1516 H1486 0.950 . S
C1516 C1511 1.363 . S
C1516 C1515 1.415 . S
H1517 C1514 0.999 . S
H1518 C1499 0.913 . S
H1519 C1537 0.951 . S
H1520 C1539 0.951 . S
H1521 C1541 0.950 . S
H1522 C1542 0.950 . S
H1523 C1544 0.950 . S
H1524 C1547 0.950 . S
H1525 C1548 0.950 . S
H1526 C1550 0.950 . S
H1527 C1551 0.950 . S
H1528 C1552 0.951 . S
H1529 C1554 0.951 . S
H1530 C1556 0.950 . S
H1531 C1557 0.950 . S
H1532 C1559 0.950 . S
H1533 C1562 0.950 . S
H1534 C1563 0.950 . S
H1535 C1565 0.950 . S
H1536 C1566 0.950 . S
C1537 H1519 0.951 . S
C1537 C1538 1.366 . S
C1537 C1539 1.388 . S
C1538 C1537 1.366 . S
C1538 C1542 1.385 . S
C1539 H1520 0.951 . S
C1539 C1537 1.388 . S
C1539 C1540 1.366 . S
C1540 C1539 1.366 . S
C1540 C1541 1.414 . S
C1540 C1543 1.499 . S
C1541 H1521 0.950 . S
C1541 C1540 1.414 . S
C1541 C1542 1.374 . S
C1542 H1522 0.950 . S
C1542 C1538 1.385 . S
C1542 C1541 1.374 . S
C1543 C1540 1.499 . S
C1543 C1544 1.373 . S
C1543 C1545 1.389 . S
C1544 H1523 0.950 . S
C1544 C1543 1.373 . S
C1544 C1560 1.377 . S
C1545 C1543 1.389 . S
C1545 C1546 1.524 . S
C1545 C1559 1.377 . S
C1546 C1545 1.524 . S
C1546 C1547 1.397 . S
C1546 C1551 1.363 . S
C1547 H1524 0.950 . S
C1547 C1546 1.397 . S
C1547 C1548 1.334 . S
C1548 H1525 0.950 . S
C1548 C1547 1.334 . S
C1548 C1549 1.287 . S
C1549 C1548 1.287 . S
C1549 C1550 1.524 . S
C1549 H1568 0.913 . S
C1550 H1526 0.950 . S
C1550 C1549 1.524 . S
C1550 C1551 1.415 . S
C1551 H1527 0.950 . S
C1551 C1546 1.363 . S
C1551 C1550 1.415 . S
C1552 H1528 0.951 . S
C1552 C1553 1.366 . S
C1552 C1554 1.388 . S
C1553 C1552 1.366 . S
C1553 C1557 1.385 . S
C1554 H1529 0.951 . S
C1554 C1552 1.388 . S
C1554 C1555 1.366 . S
C1555 C1554 1.366 . S
C1555 C1556 1.414 . S
C1555 C1558 1.499 . S
C1556 H1530 0.950 . S
C1556 C1555 1.414 . S
C1556 C1557 1.374 . S
C1557 H1531 0.950 . S
C1557 C1553 1.385 . S
C1557 C1556 1.374 . S
C1558 C1555 1.499 . S
C1558 C1559 1.373 . S
C1558 C1560 1.389 . S
C1559 H1532 0.950 . S
C1559 C1545 1.377 . S
C1559 C1558 1.373 . S
C1560 C1544 1.377 . S
C1560 C1558 1.389 . S
C1560 C1561 1.524 . S
C1561 C1560 1.524 . S
C1561 C1562 1.397 . S
C1561 C1566 1.363 . S
C1562 H1533 0.950 . S
C1562 C1561 1.397 . S
C1562 C1563 1.334 . S
C1563 H1534 0.950 . S
C1563 C1562 1.334 . S
C1563 C1564 1.287 . S
C1564 C1563 1.287 . S
C1564 C1565 1.524 . S
C1564 H1567 0.999 . S
C1565 H1535 0.950 . S
C1565 C1564 1.524 . S
C1565 C1566 1.415 . S
C1566 H1536 0.950 . S
C1566 C1561 1.363 . S
C1566 C1565 1.415 . S
H1567 C1564 0.999 . S
H1568 C1549 0.913 . S
C388 C15 1.856 . S
C403 C287 1.799 . S
C438 C47 1.691 . S
C453 C334 1.656 . S
C503 C338 1.898 . S
C488 C100 1.963 . S
C553 C303 1.571 . S
C538 C146 1.613 . S
C588 C192 1.789 . S
C603 C318 1.712 . S
C653 C340 0.876 . S
C638 C245 0.890 . S
C703 C309 1.323 . S
C688 C114 1.367 . S
C738 C160 1.374 . S
C753 C349 1.339 . S
C803 C278 1.222 . S
C788 C206 1.266 . S
C838 C231 1.529 . S
C853 C307 1.480 . S
C888 C1 2.050 1_556 S
C903 C365 1.995 . S
C953 C276 1.560 . S
C938 C61 1.600 1_556 S
C1003 C294 1.799 . S
C988 C139 1.856 . S
C1053 C308 1.656 . S
C1038 C185 1.684 . S
C1103 C362 1.898 . S
C1088 C252 1.963 . S
C1153 C277 1.571 . S
C1138 C22 1.613 1_556 S
C1203 C325 1.713 . S
C1188 C54 1.778 1_556 S
C1238 C93 0.889 . S
C1253 C348 0.875 . S
C1303 C317 1.323 . S
C1288 C238 1.367 . S
C1353 C356 1.338 . S
C1338 C8 1.374 . S
C1403 C286 1.222 . S
C1388 C68 1.275 . S
C1453 C331 1.481 . S
C1438 C107 1.529 . S
C1488 C153 2.049 . S
C1503 C339 1.994 . S
C1538 C199 1.608 . S
C1553 C300 1.560 . S
