# Generated by pormake.
# Topology rtl, (3,6)-cn, num edge types: 1
# Building blocks:
#     Node 0, Type 0, BuildingBlock: CUQRIR_clean_linker_1, # of connection points: 3
#     Node 1, Type 0, BuildingBlock: CUQRIR_clean_linker_1, # of connection points: 3
#     Node 2, Type 0, BuildingBlock: CUQRIR_clean_linker_1, # of connection points: 3
#     Node 3, Type 0, BuildingBlock: CUQRIR_clean_linker_1, # of connection points: 3
#     Node 4, Type 1, BuildingBlock: KUMBOL_clean_sbu_1, # of connection points: 6
#     Node 5, Type 1, BuildingBlock: KUMBOL_clean_sbu_1, # of connection points: 6
#     Edge 6, Type (0, 1), BuildingBlock: XUDNAN_clean_linker_2, # of connection points: 2
#     Edge 7, Type (0, 1), BuildingBlock: XUDNAN_clean_linker_2, # of connection points: 2
#     Edge 8, Type (0, 1), BuildingBlock: XUDNAN_clean_linker_2, # of connection points: 2
#     Edge 9, Type (0, 1), BuildingBlock: XUDNAN_clean_linker_2, # of connection points: 2
#     Edge 10, Type (0, 1), BuildingBlock: XUDNAN_clean_linker_2, # of connection points: 2
#     Edge 11, Type (0, 1), BuildingBlock: XUDNAN_clean_linker_2, # of connection points: 2
#     Edge 12, Type (0, 1), BuildingBlock: XUDNAN_clean_linker_2, # of connection points: 2
#     Edge 13, Type (0, 1), BuildingBlock: XUDNAN_clean_linker_2, # of connection points: 2
#     Edge 14, Type (0, 1), BuildingBlock: XUDNAN_clean_linker_2, # of connection points: 2
#     Edge 15, Type (0, 1), BuildingBlock: XUDNAN_clean_linker_2, # of connection points: 2
#     Edge 16, Type (0, 1), BuildingBlock: XUDNAN_clean_linker_2, # of connection points: 2
#     Edge 17, Type (0, 1), BuildingBlock: XUDNAN_clean_linker_2, # of connection points: 2
# Relax obj value: 0.065
# Max RMSD: 0.227
# Mean RMSD: 0.176
data_MOF--net-rtl--node1-KUMBOL_clean_sbu_1--node2-CUQRIR_clean_linker_1--edge1-XUDNAN_clean_linker_2
_symmetry_space_group_name_H-M    P1
_symmetry_Int_Tables_number       1
_symmetry_cell_setting            triclinic
loop_
_symmetry_equiv_pos_as_xyz
'x, y, z'
_cell_length_a     32.974375
_cell_length_b     33.231301
_cell_length_c     24.814547
_cell_angle_alpha  76.411796
_cell_angle_beta   98.857131
_cell_angle_gamma 91.538784
loop_
_atom_site_label
_atom_site_type_symbol
_atom_site_fract_x
_atom_site_fract_y
_atom_site_fract_z
_atom_type_partial_charge
C0 C 0.21793 0.78298 0.99445 0.0
N1 N 0.19638 0.81079 1.01099 0.0
N2 N 0.2367 0.75463 0.0394 0.0
C3 C 0.22334 0.78567 0.93452 0.0
C4 C 0.22594 0.76657 0.08398 0.0
N5 N 0.20159 0.80081 0.06666 0.0
C6 C 0.23831 0.74432 0.14429 0.0
H7 H 0.19848 0.76816 0.91494 0.0
H8 H 0.25334 0.77231 0.93228 0.0
H9 H 0.2214 0.81829 0.91 0.0
H10 H 0.2676 0.75737 0.16097 0.0
H11 H 0.24296 0.71077 0.14811 0.0
H12 H 0.21488 0.74853 0.17019 0.0
C13 C 0.7276 0.73618 0.695 0.0
N14 N 0.69579 0.71049 0.68569 0.0
N15 N 0.74769 0.74671 0.64993 0.0
C16 C 0.74045 0.74909 0.74921 0.0
C17 C 0.72673 0.72668 0.61277 0.0
N18 N 0.69565 0.70414 0.63461 0.0
C19 C 0.73388 0.73303 0.55277 0.0
H20 H 0.725 0.77884 0.74683 0.0
H21 H 0.77412 0.75374 0.75654 0.0
H22 H 0.73144 0.72564 0.78509 0.0
H23 H 0.75501 0.70856 0.54961 0.0
H24 H 0.748 0.76357 0.53825 0.0
H25 H 0.70466 0.73125 0.52455 0.0
C26 C 0.79861 0.22439 0.14039 0.0
N27 N 0.82056 0.19327 0.13176 0.0
N28 N 0.77337 0.24248 0.09285 0.0
C29 C 0.80398 0.23911 0.19398 0.0
C30 C 0.78096 0.22105 0.05506 0.0
N31 N 0.80972 0.19124 0.07873 0.0
C32 C 0.76119 0.22985 0.99465 0.0
H33 H 0.7789 0.22638 0.21794 0.0
H34 H 0.80203 0.27339 0.18475 0.0
H35 H 0.83369 0.22864 0.22065 0.0
H36 H 0.78213 0.2492 0.96843 0.0
H37 H 0.73151 0.24653 0.9884 0.0
H38 H 0.75594 0.20069 0.98033 0.0
C39 C 0.30191 0.29056 0.43285 0.0
N40 N 0.32939 0.32175 0.43445 0.0
N41 N 0.27996 0.28516 0.47606 0.0
C42 C 0.29824 0.26369 0.39131 0.0
C43 C 0.29481 0.31465 0.50332 0.0
N44 N 0.32471 0.33684 0.47826 0.0
C45 C 0.2823 0.31981 0.5572 0.0
H46 H 0.26655 0.25229 0.38334 0.0
H47 H 0.31888 0.2364 0.40867 0.0
H48 H 0.30712 0.28087 0.35088 0.0
H49 H 0.25258 0.30465 0.5643 0.0
H50 H 0.27943 0.35311 0.55642 0.0
H51 H 0.3064 0.30607 0.59273 0.0
C52 C 0.95726 0.13427 0.51571 0.0
C53 C 0.88681 0.12647 0.47407 0.0
C54 C 0.92251 0.11026 0.51096 0.0
C55 C 0.88754 0.16624 0.43892 0.0
C56 C 0.95737 0.17509 0.48263 0.0
C57 C 0.92289 0.19038 0.44285 0.0
N58 N 0.9895 0.11897 0.55594 0.0
C59 C 0.02015 0.14491 0.56996 0.0
C60 C 0.99124 0.20003 0.49251 0.0
C61 C 0.02231 0.18518 0.53729 0.0
Gd62 Gd 0.0568 0.98124 0.53673 0.0
Gd63 Gd 0.98439 0.04879 0.60353 0.0
N64 N 0.92296 0.07165 0.54465 0.0
C65 C 0.85113 0.10264 0.47492 0.0
C66 C 0.88811 0.04861 0.54677 0.0
C67 C 0.85174 0.0636 0.51158 0.0
H68 H 0.88861 0.01859 0.57548 0.0
H69 H 0.8242 0.04516 0.51293 0.0
H70 H 0.1281 0.0479 0.48477 0.0
H71 H 0.04305 0.13499 0.60655 0.0
H72 H 0.20069 0.06423 0.51224 0.0
H73 H 0.82277 0.11439 0.4482 0.0
H74 H 0.86061 0.17903 0.40962 0.0
H75 H 0.04532 0.88198 0.59741 0.0
H76 H 0.99263 0.23148 0.46786 0.0
H77 H 0.04754 0.20499 0.54735 0.0
H78 H 0.24779 0.95208 0.66879 0.0
H79 H 0.92262 0.22148 0.41663 0.0
H80 H 0.15692 0.83731 0.70581 0.0
H81 H 0.08559 0.825 0.66517 0.0
N82 N 0.09325 0.92565 0.6003 0.0
C83 C 0.13285 0.93243 0.62001 0.0
C84 C 0.07652 0.8873 0.61468 0.0
C85 C 0.13931 0.86234 0.67633 0.0
C86 C 0.09915 0.85518 0.65321 0.0
C87 C 0.15682 0.90123 0.65943 0.0
H88 H 0.21667 0.88589 0.70948 0.0
N89 N 0.12724 0.99649 0.5545 0.0
C90 C 0.15031 0.96943 0.59684 0.0
C91 C 0.21011 0.01205 0.58345 0.0
C92 C 0.19231 0.97654 0.61284 0.0
C93 C 0.14552 0.02866 0.52194 0.0
C94 C 0.18681 0.03771 0.5369 0.0
O95 O 0.96418 0.03394 0.51827 0.0
O96 O 0.02548 0.04012 0.48675 0.0
O97 O 0.08995 0.96294 0.4768 0.0
O98 O 0.0244 0.95528 0.46969 0.0
O99 O 0.96156 0.98299 0.60914 0.0
O100 O 0.99655 0.95028 0.55525 0.0
O101 O 0.04855 0.95977 0.62853 0.0
O102 O 0.04444 0.02155 0.65298 0.0
O103 O 0.95937 0.02273 0.68044 0.0
O104 O 0.96263 0.08881 0.65101 0.0
O105 O 0.06535 0.05086 0.52502 0.0
O106 O 0.05257 0.06435 0.60729 0.0
C107 C 0.9856 0.0447 0.47687 0.0
C108 C 0.96686 0.95224 0.58513 0.0
C109 C 0.06201 0.90968 0.4346 0.0
C110 C 0.08507 0.87179 0.37098 0.0
C111 C 0.0533 0.83533 0.45093 0.0
C112 C 0.04853 0.87251 0.46636 0.0
C113 C 0.07146 0.83485 0.40376 0.0
C114 C 0.0801 0.90918 0.38697 0.0
C115 C 0.05754 0.94938 0.44998 0.0
C116 C 0.21561 0.94694 0.65537 0.0
C117 C 0.19791 0.90923 0.6785 0.0
H118 H 0.24224 0.01876 0.59452 0.0
C119 C 0.05413 0.9821 0.66621 0.0
C120 C 0.07415 0.07034 0.56563 0.0
C121 C 0.97099 0.06257 0.7485 0.0
C122 C 0.96028 0.07696 0.83761 0.0
C123 C 0.02922 0.06528 0.82033 0.0
C124 C 0.01341 0.05984 0.76705 0.0
C125 C 1.00294 0.07396 0.85535 0.0
C126 C 0.94447 0.0709 0.78395 0.0
C127 C 0.95447 0.05853 0.69143 0.0
H128 H 0.04303 0.8067 0.47579 0.0
H129 H 0.0343 0.87222 0.50291 0.0
H130 H 0.07542 0.8054 0.39356 0.0
H131 H 0.08986 0.93812 0.36209 0.0
H132 H 0.06201 0.06302 0.83441 0.0
H133 H 0.03426 0.05395 0.74007 0.0
H134 H 0.01597 0.078 0.89654 0.0
H135 H 0.91173 0.07364 0.76923 0.0
C136 C 0.62078 0.59353 0.05341 0.0
C137 C 0.59771 0.66512 0.0196 0.0
C138 C 0.59125 0.62387 0.04758 0.0
C139 C 0.63392 0.67526 0.99636 0.0
C140 C 0.65802 0.60411 0.03234 0.0
C141 C 0.66395 0.64481 1.00258 0.0
N142 N 0.61407 0.55429 0.0822 0.0
C143 C 0.646 0.52657 0.09925 0.0
C144 C 0.68886 0.57389 0.04373 0.0
C145 C 0.68323 0.5353 0.07869 0.0
Gd146 Gd 0.48757 0.47515 1.00862 0.0
Gd147 Gd 0.54884 0.54265 0.11127 0.0
N148 N 0.55582 0.61287 0.06865 0.0
C149 C 0.56732 0.69484 1.0153 0.0
C150 C 0.5264 0.64178 0.06552 0.0
C151 C 0.53163 0.68315 0.03871 0.0
H152 H 0.49884 0.63275 0.08344 0.0
H153 H 0.50807 0.70593 0.03587 0.0
H154 H 0.55585 0.409 0.98918 0.0
H155 H 0.6434 0.49779 0.12948 0.0
H156 H 0.56838 0.33358 1.01234 0.0
H157 H 0.57112 0.72684 0.99408 0.0
H158 H 0.63918 0.70665 0.974 0.0
H159 H 0.39917 0.48883 0.055 0.0
H160 H 0.71786 0.58074 0.02827 0.0
H161 H 0.70782 0.51253 0.09072 0.0
H162 H 0.45605 0.27624 0.10701 0.0
H163 H 0.69212 0.65329 0.98545 0.0
H164 H 0.35618 0.36989 0.13178 0.0
H165 H 0.34832 0.44611 0.10514 0.0
N166 N 0.43614 0.4377 0.0543 0.0
C167 C 0.44028 0.39571 0.0668 0.0
C168 C 0.4031 0.45579 0.06642 0.0
C169 C 0.37856 0.38853 0.1095 0.0
C170 C 0.37408 0.43156 0.09467 0.0
C171 C 0.41183 0.37004 0.09535 0.0
H172 H 0.39631 0.30672 0.13173 0.0
N173 N 0.50192 0.40413 0.02736 0.0
C174 C 0.47432 0.37851 0.05335 0.0
C175 C 0.51479 0.31903 0.05298 0.0
C176 C 0.48031 0.33522 0.06747 0.0
C177 C 0.53512 0.38852 1.0121 0.0
C178 C 0.54209 0.3458 0.02472 0.0
O179 O 0.53037 0.57196 1.01766 0.0
O180 O 0.53587 0.51923 0.9739 0.0
O181 O 0.48001 0.44803 0.9359 0.0
O182 O 0.43902 0.4969 0.93869 0.0
O183 O 0.48013 0.55253 0.09769 0.0
O184 O 0.45512 0.53306 1.01417 0.0
O185 O 0.49809 0.44771 0.10307 0.0
O186 O 0.49812 0.50213 0.14576 0.0
O187 O 0.54841 0.58005 0.17264 0.0
O188 O 0.58847 0.52709 0.19205 0.0
O189 O 0.55596 0.47748 0.01814 0.0
O190 O 0.573 0.47863 0.11098 0.0
C191 C 0.53947 0.55851 0.97507 0.0
C192 C 0.45201 0.55339 0.05324 0.0
C193 C 0.45364 0.49266 0.84931 0.0
C194 C 0.44661 0.48743 0.75158 0.0
C195 C 0.46582 0.55266 0.77631 0.0
C196 C 0.46443 0.53445 0.83281 0.0
C197 C 0.45657 0.52947 0.73579 0.0
C198 C 0.44536 0.46912 0.80857 0.0
C199 C 0.45045 0.47322 0.90847 0.0
C200 C 0.45188 0.30957 0.09566 0.0
C201 C 0.4178 0.32692 0.10964 0.0
H202 H 0.52044 0.28594 0.06299 0.0
C203 C 0.49061 0.46335 0.14461 0.0
C204 C 0.57925 0.46536 0.06675 0.0
C205 C 0.56186 0.54372 0.26747 0.0
C206 C 0.56092 0.55596 0.36086 0.0
C207 C 0.5248 0.49737 0.33375 0.0
C208 C 0.53756 0.50858 0.28125 0.0
C209 C 0.53597 0.5211 0.37314 0.0
C210 C 0.57399 0.56712 0.3078 0.0
C211 C 0.57405 0.55622 0.21103 0.0
H212 H 0.47401 0.58492 0.76387 0.0
H213 H 0.47153 0.55304 0.86348 0.0
H214 H 0.45781 0.54414 0.69221 0.0
H215 H 0.43734 0.43676 0.82106 0.0
H216 H 0.50633 0.47005 0.34398 0.0
H217 H 0.52858 0.48966 0.25153 0.0
H218 H 0.52573 0.51182 0.41367 0.0
H219 H 0.59299 0.59417 0.29771 0.0
H220 H 0.20748 0.26045 0.42408 0.0
H221 H 0.29607 0.23072 0.5761 0.0
H222 H 0.25192 0.17389 0.61697 0.0
H223 H 0.11613 0.23781 0.48611 0.0
H224 H 0.08986 0.21375 0.4328 0.0
H225 H 0.12769 0.25288 0.41547 0.0
H226 H 0.16814 0.2021 0.37798 0.0
H227 H 0.13002 0.16312 0.39449 0.0
H228 H 0.18333 0.15207 0.42266 0.0
H229 H 0.19582 0.12324 0.64368 0.0
H230 H 0.13635 0.07593 0.64926 0.0
H231 H 0.08787 0.1326 0.47633 0.0
C232 C 0.2178 0.24145 0.46553 0.0
C233 C 0.2551 0.2501 0.4972 0.0
C234 C 0.26736 0.22489 0.5516 0.0
C235 C 0.24252 0.19256 0.57505 0.0
C236 C 0.20571 0.18511 0.54314 0.0
C237 C 0.19373 0.20825 0.48911 0.0
C238 C 0.15341 0.19258 0.46317 0.0
C239 C 0.1198 0.22627 0.44852 0.0
C240 C 0.15908 0.17651 0.41151 0.0
C241 C 0.14451 0.15743 0.51118 0.0
C242 C 0.17473 0.1541 0.55728 0.0
C243 C 0.17224 0.12525 0.6076 0.0
C244 C 0.13831 0.09873 0.61059 0.0
C245 C 0.10792 0.10059 0.5632 0.0
C246 C 0.11107 0.13036 0.51295 0.0
H247 H 0.31203 0.7318 0.10019 0.0
H248 H 0.21722 0.69823 0.97748 0.0
H249 H 0.26167 0.6421 0.96875 0.0
H250 H 0.3981 0.71268 0.04127 0.0
H251 H 0.42975 0.69 0.10683 0.0
H252 H 0.3904 0.72716 0.10461 0.0
H253 H 0.35799 0.67458 0.18054 0.0
H254 H 0.39758 0.63742 0.1835 0.0
H255 H 0.34433 0.62389 0.16962 0.0
H256 H 0.31868 0.59471 0.96655 0.0
H257 H 0.38143 0.55309 0.97874 0.0
H258 H 0.43636 0.61079 0.11229 0.0
C259 C 0.30041 0.71203 0.07244 0.0
C260 C 0.26142 0.71957 0.03889 0.0
C261 C 0.24734 0.6934 1.00256 0.0
C262 C 0.27225 0.66137 0.99761 0.0
C263 C 0.31084 0.65524 0.03037 0.0
C264 C 0.32458 0.67922 0.06798 0.0
C265 C 0.36725 0.66566 0.09857 0.0
C266 C 0.39819 0.70099 0.08712 0.0
C267 C 0.36674 0.64941 0.16181 0.0
C268 C 0.3756 0.63101 0.07131 0.0
C269 C 0.34279 0.62586 0.03172 0.0
C270 C 0.34429 0.59787 0.99821 0.0
C271 C 0.38023 0.57441 1.00543 0.0
C272 C 0.41408 0.57838 0.04665 0.0
C273 C 0.41128 0.60686 0.08037 0.0
H274 H 0.76415 0.82468 0.6665 0.0
H275 H 0.81568 0.722 0.61876 0.0
H276 H 0.87708 0.76335 0.59774 0.0
H277 H 0.79979 0.90585 0.56385 0.0
H278 H 0.81243 0.94097 0.6092 0.0
H279 H 0.77269 0.90326 0.62238 0.0
H280 H 0.81017 0.87468 0.72341 0.0
H281 H 0.84981 0.91263 0.71072 0.0
H282 H 0.8631 0.8584 0.73407 0.0
H283 H 0.9299 0.81701 0.57454 0.0
H284 H 0.97494 0.87732 0.55942 0.0
H285 H 0.89344 0.94519 0.62907 0.0
C286 C 0.78876 0.81083 0.65256 0.0
C287 C 0.78503 0.77021 0.64361 0.0
C288 C 0.8177 0.75321 0.62495 0.0
C289 C 0.85271 0.77643 0.61309 0.0
C290 C 0.85511 0.81662 0.62096 0.0
C291 C 0.82443 0.83359 0.64112 0.0
C292 C 0.83519 0.87762 0.64579 0.0
C293 C 0.80311 0.90876 0.60805 0.0
C294 C 0.83985 0.88102 0.70715 0.0
C295 C 0.87628 0.8828 0.62428 0.0
C296 C 0.8869 0.84722 0.60991 0.0
C297 C 0.92228 0.84482 0.58654 0.0
C298 C 0.94778 0.87948 0.5781 0.0
C299 C 0.93841 0.91622 0.59365 0.0
C300 C 0.90195 0.91765 0.61713 0.0
H301 H 0.71554 0.25845 0.15242 0.0
H302 H 0.77842 0.31156 1.01161 0.0
H303 H 0.73788 0.37615 0.99333 0.0
H304 H 0.61809 0.30072 0.09407 0.0
H305 H 0.60465 0.31299 0.15616 0.0
H306 H 0.63963 0.27087 0.16234 0.0
H307 H 0.69579 0.30216 0.22367 0.0
H308 H 0.66117 0.3439 0.22102 0.0
H309 H 0.71099 0.3551 0.19998 0.0
H310 H 0.68835 0.43265 0.98683 0.0
H311 H 0.63296 0.47905 0.99309 0.0
H312 H 0.6046 0.39245 0.14236 0.0
C313 C 0.72087 0.28392 0.11813 0.0
C314 C 0.74958 0.28 0.08276 0.0
C315 C 0.75584 0.31375 0.03817 0.0
C316 C 0.7333 0.35061 0.02793 0.0
C317 C 0.70511 0.35347 0.06335 0.0
C318 C 0.699 0.32125 0.10786 0.0
C319 C 0.66637 0.33245 0.13902 0.0
C320 C 0.63001 0.30252 0.13781 0.0
C321 C 0.68468 0.33347 0.19952 0.0
C322 C 0.6544 0.37561 0.10415 0.0
C323 C 0.67736 0.38704 0.06085 0.0
C324 C 0.67061 0.42436 0.02099 0.0
C325 C 0.63917 0.45047 0.02488 0.0
C326 C 0.61528 0.43951 0.06876 0.0
C327 C 0.62335 0.40192 0.10944 0.0
H328 H 0.13259 0.78331 0.11321 0.0
H329 H 0.23654 0.8652 0.1033 0.0
H330 H 0.21487 0.89689 0.1756 0.0
H331 H 0.05903 0.85647 0.14118 0.0
H332 H 0.03667 0.8161 0.1896 0.0
H333 H 0.05748 0.80418 0.13206 0.0
H334 H 0.1044 0.74795 0.2022 0.0
H335 H 0.08416 0.75998 0.25998 0.0
H336 H 0.13869 0.76201 0.25865 0.0
H337 H 0.18558 0.9144 0.25531 0.0
H338 H 0.15088 0.91741 0.33552 0.0
H339 H 0.0652 0.82387 0.29371 0.0
C340 C 0.14978 0.80885 0.12526 0.0
C341 C 0.18546 0.82292 0.10209 0.0
C342 C 0.2085 0.85513 0.11986 0.0
C343 C 0.1965 0.87301 0.16095 0.0
C344 C 0.16145 0.85803 0.18393 0.0
C345 C 0.13826 0.82681 0.1665 0.0
C346 C 0.10381 0.81417 0.20086 0.0
C347 C 0.06176 0.82329 0.1637 0.0
C348 C 0.10804 0.76831 0.23228 0.0
C349 C 0.11174 0.84249 0.24109 0.0
C350 C 0.14491 0.86777 0.23034 0.0
C351 C 0.15916 0.89521 0.26355 0.0
C352 C 0.13907 0.89683 0.30896 0.0
C353 C 0.10504 0.87109 0.32107 0.0
C354 C 0.09121 0.84383 0.28608 0.0
H355 H 0.6824 0.62979 0.73495 0.0
H356 H 0.6444 0.75563 0.72247 0.0
H357 H 0.59754 0.73027 0.79206 0.0
H358 H 0.58273 0.58073 0.75427 0.0
H359 H 0.60507 0.53555 0.8045 0.0
H360 H 0.63345 0.56338 0.75105 0.0
H361 H 0.69378 0.57206 0.82799 0.0
H362 H 0.6654 0.54431 0.8814 0.0
H363 H 0.68407 0.59547 0.88346 0.0
H364 H 0.55637 0.69134 0.86522 0.0
H365 H 0.52512 0.64189 0.93806 0.0
H366 H 0.59137 0.54097 0.90646 0.0
C367 C 0.66362 0.65171 0.74643 0.0
C368 C 0.66655 0.69465 0.72323 0.0
C369 C 0.64226 0.72269 0.7398 0.0
C370 C 0.61563 0.70852 0.77918 0.0
C371 C 0.61372 0.66608 0.80197 0.0
C372 C 0.63708 0.63801 0.78633 0.0
C373 C 0.63055 0.59421 0.81931 0.0
C374 C 0.61184 0.56685 0.77993 0.0
C375 C 0.67085 0.57542 0.85515 0.0
C376 C 0.60009 0.60208 0.85592 0.0
C377 C 0.59064 0.64374 0.84502 0.0
C378 C 0.56363 0.65866 0.87406 0.0
C379 C 0.5462 0.63039 0.91564 0.0
C380 C 0.55617 0.5877 0.92858 0.0
C381 C 0.58305 0.57343 0.89755 0.0
H382 H 0.81163 0.12443 0.21139 0.0
H383 H 0.90043 0.21196 0.14307 0.0
H384 H 0.95368 0.18072 0.22292 0.0
H385 H 0.83909 0.12513 0.34908 0.0
H386 H 0.83303 0.07038 0.37796 0.0
H387 H 0.80416 0.09506 0.31147 0.0
H388 H 0.83303 0.04231 0.26523 0.0
H389 H 0.86173 0.01723 0.33207 0.0
H390 H 0.88777 0.03535 0.27224 0.0
H391 H 0.99421 0.14558 0.31389 0.0
H392 H 0.02238 0.10532 0.40816 0.0
H393 H 0.90696 0.04039 0.42065 0.0
C394 C 0.84279 0.13569 0.21264 0.0
C395 C 0.85269 0.16977 0.17113 0.0
C396 C 0.89307 0.18512 0.17415 0.0
C397 C 0.9232 0.16776 0.2194 0.0
C398 C 0.91226 0.13492 0.26086 0.0
C399 C 0.87329 0.1184 0.25743 0.0
C400 C 0.86911 0.08448 0.30915 0.0
C401 C 0.83431 0.09442 0.33874 0.0
C402 C 0.86253 0.04235 0.29374 0.0
C403 C 0.911 0.0863 0.34377 0.0
C404 C 0.93556 0.11507 0.31439 0.0
C405 C 0.9755 0.12262 0.33704 0.0
C406 C 0.99118 0.09958 0.39066 0.0
C407 C 0.96688 0.06964 0.42155 0.0
C408 C 0.92609 0.06321 0.39798 0.0
H409 H 0.31472 0.4132 0.49539 0.0
H410 H 0.40061 0.31132 0.5279 0.0
H411 H 0.44529 0.34219 0.59716 0.0
H412 H 0.39384 0.49542 0.5162 0.0
H413 H 0.36006 0.52064 0.5489 0.0
H414 H 0.33907 0.49411 0.49542 0.0
H415 H 0.29419 0.4502 0.56396 0.0
H416 H 0.31555 0.4758 0.61805 0.0
H417 H 0.31844 0.42018 0.63092 0.0
H418 H 0.47318 0.37707 0.67467 0.0
H419 H 0.48762 0.41872 0.74613 0.0
H420 H 0.38533 0.50013 0.66109 0.0
C421 C 0.34386 0.39859 0.5155 0.0
C422 C 0.35483 0.36035 0.5061 0.0
C423 C 0.39243 0.3411 0.53401 0.0
C424 C 0.41768 0.35826 0.57363 0.0
C425 C 0.40508 0.39505 0.58415 0.0
C426 C 0.36953 0.41558 0.55489 0.0
C427 C 0.36145 0.45305 0.57691 0.0
C428 C 0.36376 0.49319 0.53166 0.0
C429 C 0.31996 0.44957 0.59875 0.0
C430 C 0.39705 0.4495 0.62447 0.0
C431 C 0.42188 0.41582 0.62794 0.0
C432 C 0.45458 0.4041 0.67149 0.0
C433 C 0.46239 0.42767 0.71208 0.0
C434 C 0.43786 0.46272 0.70858 0.0
C435 C 0.40496 0.47385 0.66401 0.0
H436 H 0.71593 0.64628 0.58295 0.0
H437 H 0.61214 0.70624 0.61999 0.0
H438 H 0.56512 0.67147 0.55734 0.0
H439 H 0.68107 0.66353 0.43917 0.0
H440 H 0.70101 0.61572 0.4309 0.0
H441 H 0.72543 0.639 0.48598 0.0
H442 H 0.71649 0.57143 0.56022 0.0
H443 H 0.69259 0.54761 0.50531 0.0
H444 H 0.6662 0.54913 0.56326 0.0
H445 H 0.53021 0.63347 0.48448 0.0
H446 H 0.51058 0.59632 0.40869 0.0
H447 H 0.63854 0.56829 0.41178 0.0
C448 C 0.68321 0.65149 0.57851 0.0
C449 C 0.66758 0.67872 0.60651 0.0
C450 C 0.62464 0.68486 0.59982 0.0
C451 C 0.59783 0.66554 0.56387 0.0
C452 C 0.61456 0.64051 0.53462 0.0
C453 C 0.65635 0.63345 0.54174 0.0
C454 C 0.6672 0.60852 0.50195 0.0
C455 C 0.69534 0.63317 0.46215 0.0
C456 C 0.68677 0.56668 0.53464 0.0
C457 C 0.62505 0.6029 0.47065 0.0
C458 C 0.59496 0.621 0.49064 0.0
C459 C 0.55357 0.61931 0.46857 0.0
C460 C 0.5427 0.59834 0.42546 0.0
C461 C 0.57312 0.58006 0.40405 0.0
C462 C 0.61479 0.58261 0.42683 0.0
H463 H 0.88297 0.20257 0.04202 0.0
H464 H 0.77704 0.12316 0.04909 0.0
H465 H 0.80489 0.08308 0.98987 0.0
H466 H 0.8919 0.20861 0.90079 0.0
H467 H 0.94722 0.20798 0.91094 0.0
H468 H 0.9205 0.22805 0.95719 0.0
H469 H 0.95977 0.1765 0.04317 0.0
H470 H 0.98699 0.15656 0.99722 0.0
H471 H 0.95868 0.12192 0.0451 0.0
H472 H 0.84213 0.05557 0.92384 0.0
H473 H 0.88775 0.03963 0.861 0.0
H474 H 0.97016 0.13673 0.89836 0.0
C475 C 0.8664 0.17604 0.0321 0.0
C476 C 0.82831 0.16523 0.05034 0.0
C477 C 0.80654 0.13121 0.0357 0.0
C478 C 0.82208 0.10855 1.00208 0.0
C479 C 0.85952 0.12036 0.98377 0.0
C480 C 0.88161 0.15306 0.99875 0.0
C481 C 0.92032 0.16034 0.97202 0.0
C482 C 0.91993 0.20382 0.93292 0.0
C483 C 0.95872 0.1534 1.01707 0.0
C484 C 0.91637 0.12698 0.93912 0.0
C485 C 0.88106 0.10429 0.94632 0.0
C486 C 0.87006 0.07288 0.91833 0.0
C487 C 0.89598 0.06423 0.88243 0.0
C488 C 0.93259 0.08675 0.87498 0.0
C489 C 0.94273 0.11852 0.90386 0.0
H490 H 0.34123 0.40065 0.37793 0.0
H491 H 0.38547 0.27475 0.40722 0.0
H492 H 0.43255 0.29759 0.33746 0.0
H493 H 0.34394 0.4288 0.22919 0.0
H494 H 0.3609 0.48091 0.22845 0.0
H495 H 0.33094 0.45448 0.28076 0.0
H496 H 0.38729 0.46872 0.35751 0.0
H497 H 0.4196 0.49325 0.30707 0.0
H498 H 0.43861 0.44958 0.36294 0.0
H499 H 0.47073 0.33325 0.25911 0.0
H500 H 0.5023 0.38007 0.18428 0.0
H501 H 0.43721 0.48433 0.20921 0.0
C502 C 0.3612 0.37812 0.36986 0.0
C503 C 0.35924 0.33578 0.39708 0.0
C504 C 0.38584 0.30709 0.38579 0.0
C505 C 0.41277 0.31986 0.34643 0.0
C506 C 0.41321 0.36163 0.31914 0.0
C507 C 0.38844 0.39046 0.33071 0.0
C508 C 0.39501 0.43348 0.29539 0.0
C509 C 0.35533 0.4504 0.25614 0.0
C510 C 0.41111 0.46304 0.33291 0.0
C511 C 0.42738 0.42434 0.26228 0.0
C512 C 0.43699 0.38257 0.27614 0.0
C513 C 0.46395 0.3661 0.24862 0.0
C514 C 0.48166 0.39292 0.20602 0.0
C515 C 0.47271 0.43591 0.19142 0.0
C516 C 0.44534 0.45174 0.2203 0.0
H517 H 0.1313 0.80221 0.93538 0.0
H518 H 0.20749 0.89301 1.00051 0.0
H519 H 0.17411 0.94871 0.9226 0.0
H520 H 0.14032 0.84036 0.79934 0.0
H521 H 0.0886 0.83004 0.76966 0.0
H522 H 0.11128 0.79925 0.83651 0.0
H523 H 0.05084 0.81745 0.88194 0.0
H524 H 0.02754 0.84789 0.8147 0.0
H525 H 0.03749 0.87097 0.87424 0.0
H526 H 0.13846 0.99268 0.83136 0.0
H527 H 0.10304 0.022 0.73546 0.0
H528 H 0.05336 0.90121 0.72612 0.0
C529 C 0.13956 0.83413 0.93416 0.0
C530 C 0.1711 0.84375 0.9743 0.0
C531 C 0.18245 0.88543 0.97104 0.0
C532 C 0.16388 0.91708 0.92666 0.0
C533 C 0.13404 0.90631 0.88616 0.0
C534 C 0.12156 0.86584 0.88997 0.0
C535 C 0.09225 0.86162 0.83824 0.0
C536 C 0.10917 0.83104 0.80916 0.0
C537 C 0.04949 0.84873 0.85319 0.0
C538 C 0.09169 0.90567 0.8033 0.0
C539 C 0.11516 0.93116 0.83232 0.0
C540 C 0.11968 0.97308 0.80857 0.0
C541 C 0.09944 0.98944 0.75406 0.0
C542 C 0.07543 0.96387 0.72344 0.0
C543 C 0.07171 0.9214 0.74844 0.0
loop_
_geom_bond_atom_site_label_1
_geom_bond_atom_site_label_2
_geom_bond_distance
_geom_bond_site_symmetry_2
_ccdc_geom_bond_type
C0 N1 1.317 . S
C0 N2 1.348 1_556 S
C0 C3 1.485 . S
N1 C0 1.317 . S
N1 N5 1.370 1_556 S
N2 C0 1.348 1_554 S
N2 C4 1.346 . S
C3 C0 1.485 . S
C3 H7 0.960 . S
C3 H8 0.961 . S
C3 H9 0.960 . S
C4 N2 1.346 . S
C4 N5 1.307 . S
C4 C6 1.486 . S
N5 N1 1.370 1_554 S
N5 C4 1.307 . S
C6 C4 1.486 . S
C6 H10 0.960 . S
C6 H11 0.960 . S
C6 H12 0.959 . S
H7 C3 0.960 . S
H8 C3 0.961 . S
H9 C3 0.960 . S
H10 C6 0.960 . S
H11 C6 0.960 . S
H12 C6 0.959 . S
C13 N14 1.317 . S
C13 N15 1.348 . S
C13 C16 1.485 . S
N14 C13 1.317 . S
N14 N18 1.370 . S
N15 C13 1.348 . S
N15 C17 1.346 . S
C16 C13 1.485 . S
C16 H20 0.960 . S
C16 H21 0.961 . S
C16 H22 0.960 . S
C17 N15 1.346 . S
C17 N18 1.307 . S
C17 C19 1.486 . S
N18 N14 1.370 . S
N18 C17 1.307 . S
C19 C17 1.486 . S
C19 H23 0.960 . S
C19 H24 0.960 . S
C19 H25 0.959 . S
H20 C16 0.960 . S
H21 C16 0.961 . S
H22 C16 0.960 . S
H23 C19 0.960 . S
H24 C19 0.960 . S
H25 C19 0.959 . S
C26 N27 1.317 . S
C26 N28 1.348 . S
C26 C29 1.485 . S
N27 C26 1.317 . S
N27 N31 1.370 . S
N28 C26 1.348 . S
N28 C30 1.346 . S
C29 C26 1.485 . S
C29 H33 0.960 . S
C29 H34 0.961 . S
C29 H35 0.960 . S
C30 N28 1.346 . S
C30 N31 1.307 . S
C30 C32 1.486 1_554 S
N31 N27 1.370 . S
N31 C30 1.307 . S
C32 C30 1.486 1_556 S
C32 H36 0.960 . S
C32 H37 0.960 . S
C32 H38 0.959 . S
H33 C29 0.960 . S
H34 C29 0.961 . S
H35 C29 0.960 . S
H36 C32 0.960 . S
H37 C32 0.960 . S
H38 C32 0.959 . S
C39 N40 1.317 . S
C39 N41 1.348 . S
C39 C42 1.485 . S
N40 C39 1.317 . S
N40 N44 1.370 . S
N41 C39 1.348 . S
N41 C43 1.346 . S
C42 C39 1.485 . S
C42 H46 0.960 . S
C42 H47 0.961 . S
C42 H48 0.960 . S
C43 N41 1.346 . S
C43 N44 1.307 . S
C43 C45 1.486 . S
N44 N40 1.370 . S
N44 C43 1.307 . S
C45 C43 1.486 . S
C45 H49 0.960 . S
C45 H50 0.960 . S
C45 H51 0.959 . S
H46 C42 0.960 . S
H47 C42 0.961 . S
H48 C42 0.960 . S
H49 C45 0.960 . S
H50 C45 0.960 . S
H51 C45 0.959 . S
C52 C54 1.422 . S
C52 C56 1.415 . S
C52 N58 1.369 . S
C53 C54 1.421 . S
C53 C55 1.417 . S
C53 C65 1.422 . S
C54 C52 1.422 . S
C54 C53 1.421 . S
C54 N64 1.359 . S
C55 C53 1.417 . S
C55 C57 1.329 . S
C55 H74 0.930 . S
C56 C52 1.415 . S
C56 C57 1.437 . S
C56 C60 1.413 . S
C57 C55 1.329 . S
C57 C56 1.437 . S
C57 H79 0.929 . S
N58 C52 1.369 . S
N58 C59 1.338 1_655 S
N58 Gd63 2.622 . S
C59 N58 1.338 1_455 S
C59 C61 1.378 . S
C59 H71 0.929 . S
C60 C56 1.413 . S
C60 C61 1.348 1_655 S
C60 H76 0.931 . S
C61 C59 1.378 . S
C61 C60 1.348 1_455 S
C61 H77 0.930 . S
Gd62 N82 2.622 . S
Gd62 N89 2.570 . S
Gd62 O96 2.353 1_465 S
Gd62 O97 2.468 . S
Gd62 O98 2.427 . S
Gd62 O100 2.388 1_455 S
Gd62 O101 2.386 . S
Gd62 O105 2.307 1_565 S
Gd62 C115 2.805 . S
Gd63 N58 2.622 . S
Gd63 N64 2.570 . S
Gd63 O95 2.386 . S
Gd63 O99 2.307 1_545 S
Gd63 O102 2.353 1_655 S
Gd63 O103 2.468 . S
Gd63 O104 2.427 . S
Gd63 O106 2.388 1_655 S
Gd63 C127 2.805 . S
N64 C54 1.359 . S
N64 Gd63 2.570 . S
N64 C66 1.343 . S
C65 C53 1.422 . S
C65 C67 1.321 . S
C65 H73 0.931 . S
C66 N64 1.343 . S
C66 C67 1.390 . S
C66 H68 0.931 . S
C67 C65 1.321 . S
C67 C66 1.390 . S
C67 H69 0.930 . S
H68 C66 0.931 . S
H69 C67 0.930 . S
H70 C93 0.931 . S
H71 C59 0.929 . S
H72 C94 0.930 . S
H73 C65 0.931 . S
H74 C55 0.930 . S
H75 C84 0.929 1_655 S
H76 C60 0.931 . S
H77 C61 0.930 . S
H78 C116 0.930 . S
H79 C57 0.929 . S
H80 C85 0.931 . S
H81 C86 0.930 1_655 S
N82 Gd62 2.622 . S
N82 C83 1.369 . S
N82 C84 1.338 . S
C83 N82 1.369 . S
C83 C87 1.415 . S
C83 C90 1.422 . S
C84 H75 0.929 1_455 S
C84 N82 1.338 . S
C84 C86 1.378 . S
C85 H80 0.931 . S
C85 C86 1.348 . S
C85 C87 1.413 . S
C86 H81 0.930 1_455 S
C86 C84 1.378 . S
C86 C85 1.348 . S
C87 C83 1.415 . S
C87 C85 1.413 . S
C87 C117 1.437 . S
H88 C117 0.929 . S
N89 Gd62 2.570 . S
N89 C90 1.359 . S
N89 C93 1.343 . S
C90 C83 1.422 . S
C90 N89 1.359 . S
C90 C92 1.421 . S
C91 C92 1.422 . S
C91 C94 1.321 . S
C91 H118 0.931 . S
C92 C90 1.421 . S
C92 C91 1.422 . S
C92 C116 1.417 . S
C93 H70 0.931 . S
C93 N89 1.343 . S
C93 C94 1.390 . S
C94 H72 0.930 . S
C94 C91 1.321 . S
C94 C93 1.390 . S
O95 Gd63 2.386 . S
O95 C107 1.265 . S
O96 Gd62 2.353 1_645 S
O96 C107 1.242 . S
O97 Gd62 2.468 . S
O97 C115 1.263 . S
O98 Gd62 2.427 . S
O98 C115 1.252 . S
O99 Gd63 2.307 1_565 S
O99 C108 1.261 . S
O100 Gd62 2.388 1_655 S
O100 C108 1.252 . S
O101 Gd62 2.386 . S
O101 C119 1.265 . S
O102 Gd63 2.353 1_455 S
O102 C119 1.242 1_545 S
O103 Gd63 2.468 . S
O103 C127 1.263 . S
O104 Gd63 2.427 . S
O104 C127 1.252 . S
O105 Gd62 2.307 1_545 S
O105 C120 1.261 . S
O106 Gd63 2.388 1_455 S
O106 C120 1.252 . S
C107 O95 1.265 . S
C107 O96 1.242 . S
C108 O99 1.261 . S
C108 O100 1.252 . S
C109 C112 1.394 . S
C109 C114 1.370 . S
C109 C115 1.500 . S
C110 C113 1.383 . S
C110 C114 1.395 . S
C111 C112 1.396 . S
C111 C113 1.365 . S
C111 H128 0.929 . S
C112 C109 1.394 . S
C112 C111 1.396 . S
C112 H129 0.930 . S
C113 C110 1.383 . S
C113 C111 1.365 . S
C113 H130 0.931 . S
C114 C109 1.370 . S
C114 C110 1.395 . S
C114 H131 0.930 . S
C115 Gd62 2.805 . S
C115 O97 1.263 . S
C115 O98 1.252 . S
C115 C109 1.500 . S
C116 H78 0.930 . S
C116 C92 1.417 . S
C116 C117 1.329 . S
C117 C87 1.437 . S
C117 H88 0.929 . S
C117 C116 1.329 . S
H118 C91 0.931 . S
C119 O101 1.265 . S
C119 O102 1.242 1_565 S
C120 O105 1.261 . S
C120 O106 1.252 . S
C121 C124 1.394 . S
C121 C126 1.370 . S
C121 C127 1.500 . S
C122 C125 1.383 . S
C122 C126 1.395 . S
C123 C124 1.396 . S
C123 C125 1.365 . S
C123 H132 0.929 . S
C124 C121 1.394 . S
C124 C123 1.396 . S
C124 H133 0.930 . S
C125 C122 1.383 . S
C125 C123 1.365 . S
C125 H134 0.931 . S
C126 C121 1.370 . S
C126 C122 1.395 . S
C126 H135 0.930 . S
C127 Gd63 2.805 . S
C127 O103 1.263 . S
C127 O104 1.252 . S
C127 C121 1.500 . S
H128 C111 0.929 . S
H129 C112 0.930 . S
H130 C113 0.931 . S
H131 C114 0.930 . S
H132 C123 0.929 . S
H133 C124 0.930 . S
H134 C125 0.931 . S
H135 C126 0.930 . S
C136 C138 1.422 . S
C136 C140 1.415 . S
C136 N142 1.369 . S
C137 C138 1.421 . S
C137 C139 1.417 . S
C137 C149 1.422 . S
C138 C136 1.422 . S
C138 C137 1.421 . S
C138 N148 1.359 . S
C139 C137 1.417 . S
C139 C141 1.329 . S
C139 H158 0.930 . S
C140 C136 1.415 . S
C140 C141 1.437 . S
C140 C144 1.413 . S
C141 C139 1.329 . S
C141 C140 1.437 . S
C141 H163 0.929 . S
N142 C136 1.369 . S
N142 C143 1.338 . S
N142 Gd147 2.622 . S
C143 N142 1.338 . S
C143 C145 1.378 . S
C143 H155 0.929 . S
C144 C140 1.413 . S
C144 C145 1.348 . S
C144 H160 0.931 . S
C145 C143 1.378 . S
C145 C144 1.348 . S
C145 H161 0.930 . S
Gd146 N166 2.622 1_556 S
Gd146 N173 2.570 1_556 S
Gd146 O180 2.353 . S
Gd146 O181 2.468 . S
Gd146 O182 2.427 . S
Gd146 O184 2.388 1_556 S
Gd146 O185 2.386 1_556 S
Gd146 O189 2.307 1_556 S
Gd146 C199 2.805 . S
Gd147 N142 2.622 . S
Gd147 N148 2.570 . S
Gd147 O179 2.386 . S
Gd147 O183 2.307 . S
Gd147 O186 2.353 . S
Gd147 O187 2.468 . S
Gd147 O188 2.427 . S
Gd147 O190 2.388 . S
Gd147 C211 2.805 . S
N148 C138 1.359 . S
N148 Gd147 2.570 . S
N148 C150 1.343 . S
C149 C137 1.422 . S
C149 C151 1.321 . S
C149 H157 0.931 . S
C150 N148 1.343 . S
C150 C151 1.390 . S
C150 H152 0.931 . S
C151 C149 1.321 . S
C151 C150 1.390 . S
C151 H153 0.930 . S
H152 C150 0.931 . S
H153 C151 0.930 . S
H154 C177 0.931 . S
H155 C143 0.929 . S
H156 C178 0.930 . S
H157 C149 0.931 . S
H158 C139 0.930 . S
H159 C168 0.929 . S
H160 C144 0.931 . S
H161 C145 0.930 . S
H162 C200 0.930 . S
H163 C141 0.929 . S
H164 C169 0.931 . S
H165 C170 0.930 . S
N166 Gd146 2.622 1_554 S
N166 C167 1.369 . S
N166 C168 1.338 1_554 S
C167 N166 1.369 . S
C167 C171 1.415 . S
C167 C174 1.422 . S
C168 H159 0.929 . S
C168 N166 1.338 1_556 S
C168 C170 1.378 . S
C169 H164 0.931 . S
C169 C170 1.348 1_554 S
C169 C171 1.413 . S
C170 H165 0.930 . S
C170 C168 1.378 . S
C170 C169 1.348 1_556 S
C171 C167 1.415 . S
C171 C169 1.413 . S
C171 C201 1.437 . S
H172 C201 0.929 . S
N173 Gd146 2.570 1_554 S
N173 C174 1.359 . S
N173 C177 1.343 . S
C174 C167 1.422 . S
C174 N173 1.359 . S
C174 C176 1.421 . S
C175 C176 1.422 . S
C175 C178 1.321 . S
C175 H202 0.931 . S
C176 C174 1.421 . S
C176 C175 1.422 . S
C176 C200 1.417 . S
C177 H154 0.931 . S
C177 N173 1.343 . S
C177 C178 1.390 . S
C178 H156 0.930 . S
C178 C175 1.321 . S
C178 C177 1.390 . S
O179 Gd147 2.386 . S
O179 C191 1.265 1_554 S
O180 Gd146 2.353 . S
O180 C191 1.242 . S
O181 Gd146 2.468 . S
O181 C199 1.263 . S
O182 Gd146 2.427 . S
O182 C199 1.252 . S
O183 Gd147 2.307 . S
O183 C192 1.261 . S
O184 Gd146 2.388 1_554 S
O184 C192 1.252 . S
O185 Gd146 2.386 1_554 S
O185 C203 1.265 . S
O186 Gd147 2.353 . S
O186 C203 1.242 . S
O187 Gd147 2.468 . S
O187 C211 1.263 . S
O188 Gd147 2.427 . S
O188 C211 1.252 . S
O189 Gd146 2.307 1_554 S
O189 C204 1.261 . S
O190 Gd147 2.388 . S
O190 C204 1.252 . S
C191 O179 1.265 1_556 S
C191 O180 1.242 . S
C192 O183 1.261 . S
C192 O184 1.252 . S
C193 C196 1.394 . S
C193 C198 1.370 . S
C193 C199 1.500 . S
C194 C197 1.383 . S
C194 C198 1.395 . S
C195 C196 1.396 . S
C195 C197 1.365 . S
C195 H212 0.929 . S
C196 C193 1.394 . S
C196 C195 1.396 . S
C196 H213 0.930 . S
C197 C194 1.383 . S
C197 C195 1.365 . S
C197 H214 0.931 . S
C198 C193 1.370 . S
C198 C194 1.395 . S
C198 H215 0.930 . S
C199 Gd146 2.805 . S
C199 O181 1.263 . S
C199 O182 1.252 . S
C199 C193 1.500 . S
C200 H162 0.930 . S
C200 C176 1.417 . S
C200 C201 1.329 . S
C201 C171 1.437 . S
C201 H172 0.929 . S
C201 C200 1.329 . S
H202 C175 0.931 . S
C203 O185 1.265 . S
C203 O186 1.242 . S
C204 O189 1.261 . S
C204 O190 1.252 . S
C205 C208 1.394 . S
C205 C210 1.370 . S
C205 C211 1.500 . S
C206 C209 1.383 . S
C206 C210 1.395 . S
C207 C208 1.396 . S
C207 C209 1.365 . S
C207 H216 0.929 . S
C208 C205 1.394 . S
C208 C207 1.396 . S
C208 H217 0.930 . S
C209 C206 1.383 . S
C209 C207 1.365 . S
C209 H218 0.931 . S
C210 C205 1.370 . S
C210 C206 1.395 . S
C210 H219 0.930 . S
C211 Gd147 2.805 . S
C211 O187 1.263 . S
C211 O188 1.252 . S
C211 C205 1.500 . S
H212 C195 0.929 . S
H213 C196 0.930 . S
H214 C197 0.931 . S
H215 C198 0.930 . S
H216 C207 0.929 . S
H217 C208 0.930 . S
H218 C209 0.931 . S
H219 C210 0.930 . S
H220 C232 0.930 . S
H221 C234 0.930 . S
H222 C235 0.930 . S
H223 C239 0.959 . S
H224 C239 0.959 . S
H225 C239 0.961 . S
H226 C240 0.960 . S
H227 C240 0.961 . S
H228 C240 0.959 . S
H229 C243 0.929 . S
H230 C244 0.931 . S
H231 C246 0.930 . S
C232 H220 0.930 . S
C232 C233 1.399 . S
C232 C237 1.399 . S
C233 C232 1.399 . S
C233 C234 1.376 . S
C234 H221 0.930 . S
C234 C233 1.376 . S
C234 C235 1.388 . S
C235 H222 0.930 . S
C235 C234 1.388 . S
C235 C236 1.390 . S
C236 C235 1.390 . S
C236 C237 1.394 . S
C236 C242 1.465 . S
C237 C232 1.399 . S
C237 C236 1.394 . S
C237 C238 1.516 . S
C238 C237 1.516 . S
C238 C239 1.502 . S
C238 C240 1.561 . S
C238 C241 1.526 . S
C239 H223 0.959 . S
C239 H224 0.959 . S
C239 H225 0.961 . S
C239 C238 1.502 . S
C240 H226 0.960 . S
C240 H227 0.961 . S
C240 H228 0.959 . S
C240 C238 1.561 . S
C241 C238 1.526 . S
C241 C242 1.396 . S
C241 C246 1.390 . S
C242 C236 1.465 . S
C242 C241 1.396 . S
C242 C243 1.399 . S
C243 H229 0.929 . S
C243 C242 1.399 . S
C243 C244 1.385 . S
C244 H230 0.931 . S
C244 C243 1.385 . S
C244 C245 1.389 . S
C245 C244 1.389 . S
C245 C246 1.387 . S
C246 H231 0.930 . S
C246 C241 1.390 . S
C246 C245 1.387 . S
H247 C259 0.930 . S
H248 C261 0.930 . S
H249 C262 0.930 . S
H250 C266 0.959 . S
H251 C266 0.959 . S
H252 C266 0.961 . S
H253 C267 0.960 . S
H254 C267 0.961 . S
H255 C267 0.959 . S
H256 C270 0.929 . S
H257 C271 0.931 . S
H258 C273 0.930 . S
C259 H247 0.930 . S
C259 C260 1.399 . S
C259 C264 1.399 . S
C260 C259 1.399 . S
C260 C261 1.376 1_554 S
C261 H248 0.930 . S
C261 C260 1.376 1_556 S
C261 C262 1.388 . S
C262 H249 0.930 . S
C262 C261 1.388 . S
C262 C263 1.390 1_556 S
C263 C262 1.390 1_554 S
C263 C264 1.394 . S
C263 C269 1.465 . S
C264 C259 1.399 . S
C264 C263 1.394 . S
C264 C265 1.516 . S
C265 C264 1.516 . S
C265 C266 1.502 . S
C265 C267 1.561 . S
C265 C268 1.526 . S
C266 H250 0.959 . S
C266 H251 0.959 . S
C266 H252 0.961 . S
C266 C265 1.502 . S
C267 H253 0.960 . S
C267 H254 0.961 . S
C267 H255 0.959 . S
C267 C265 1.561 . S
C268 C265 1.526 . S
C268 C269 1.396 . S
C268 C273 1.390 . S
C269 C263 1.465 . S
C269 C268 1.396 . S
C269 C270 1.399 1_554 S
C270 H256 0.929 . S
C270 C269 1.399 1_556 S
C270 C271 1.385 . S
C271 H257 0.931 . S
C271 C270 1.385 . S
C271 C272 1.389 1_556 S
C272 C271 1.389 1_554 S
C272 C273 1.387 . S
C273 H258 0.930 . S
C273 C268 1.390 . S
C273 C272 1.387 . S
H274 C286 0.930 . S
H275 C288 0.930 . S
H276 C289 0.930 . S
H277 C293 0.959 . S
H278 C293 0.959 . S
H279 C293 0.961 . S
H280 C294 0.960 . S
H281 C294 0.961 . S
H282 C294 0.959 . S
H283 C297 0.929 . S
H284 C298 0.931 . S
H285 C300 0.930 . S
C286 H274 0.930 . S
C286 C287 1.399 . S
C286 C291 1.399 . S
C287 C286 1.399 . S
C287 C288 1.376 . S
C288 H275 0.930 . S
C288 C287 1.376 . S
C288 C289 1.388 . S
C289 H276 0.930 . S
C289 C288 1.388 . S
C289 C290 1.390 . S
C290 C289 1.390 . S
C290 C291 1.394 . S
C290 C296 1.465 . S
C291 C286 1.399 . S
C291 C290 1.394 . S
C291 C292 1.516 . S
C292 C291 1.516 . S
C292 C293 1.502 . S
C292 C294 1.561 . S
C292 C295 1.526 . S
C293 H277 0.959 . S
C293 H278 0.959 . S
C293 H279 0.961 . S
C293 C292 1.502 . S
C294 H280 0.960 . S
C294 H281 0.961 . S
C294 H282 0.959 . S
C294 C292 1.561 . S
C295 C292 1.526 . S
C295 C296 1.396 . S
C295 C300 1.390 . S
C296 C290 1.465 . S
C296 C295 1.396 . S
C296 C297 1.399 . S
C297 H283 0.929 . S
C297 C296 1.399 . S
C297 C298 1.385 . S
C298 H284 0.931 . S
C298 C297 1.385 . S
C298 C299 1.389 . S
C299 C298 1.389 . S
C299 C300 1.387 . S
C300 H285 0.930 . S
C300 C295 1.390 . S
C300 C299 1.387 . S
H301 C313 0.930 . S
H302 C315 0.931 1_556 S
H303 C316 0.930 . S
H304 C320 0.959 . S
H305 C320 0.959 . S
H306 C320 0.961 . S
H307 C321 0.960 . S
H308 C321 0.961 . S
H309 C321 0.959 . S
H310 C324 0.929 . S
H311 C325 0.931 . S
H312 C327 0.930 . S
C313 H301 0.930 . S
C313 C314 1.399 . S
C313 C318 1.399 . S
C314 C313 1.399 . S
C314 C315 1.376 . S
C315 H302 0.931 1_554 S
C315 C314 1.376 . S
C315 C316 1.388 1_554 S
C316 H303 0.930 . S
C316 C315 1.388 1_556 S
C316 C317 1.390 1_556 S
C317 C316 1.390 1_554 S
C317 C318 1.394 . S
C317 C323 1.465 . S
C318 C313 1.399 . S
C318 C317 1.394 . S
C318 C319 1.516 . S
C319 C318 1.516 . S
C319 C320 1.502 . S
C319 C321 1.561 . S
C319 C322 1.526 . S
C320 H304 0.959 . S
C320 H305 0.959 . S
C320 H306 0.961 . S
C320 C319 1.502 . S
C321 H307 0.960 . S
C321 H308 0.961 . S
C321 H309 0.959 . S
C321 C319 1.561 . S
C322 C319 1.526 . S
C322 C323 1.396 . S
C322 C327 1.390 . S
C323 C317 1.465 . S
C323 C322 1.396 . S
C323 C324 1.399 1_554 S
C324 H310 0.929 . S
C324 C323 1.399 1_556 S
C324 C325 1.385 . S
C325 H311 0.931 . S
C325 C324 1.385 . S
C325 C326 1.389 1_556 S
C326 C325 1.389 1_554 S
C326 C327 1.387 . S
C327 H312 0.930 . S
C327 C322 1.390 . S
C327 C326 1.387 . S
H328 C340 0.930 . S
H329 C342 0.930 . S
H330 C343 0.930 . S
H331 C347 0.959 . S
H332 C347 0.959 . S
H333 C347 0.961 . S
H334 C348 0.960 . S
H335 C348 0.961 . S
H336 C348 0.959 . S
H337 C351 0.929 . S
H338 C352 0.931 . S
H339 C354 0.930 . S
C340 H328 0.930 . S
C340 C341 1.399 . S
C340 C345 1.399 . S
C341 C340 1.399 . S
C341 C342 1.376 . S
C342 H329 0.930 . S
C342 C341 1.376 . S
C342 C343 1.388 . S
C343 H330 0.930 . S
C343 C342 1.388 . S
C343 C344 1.390 . S
C344 C343 1.390 . S
C344 C345 1.394 . S
C344 C350 1.465 . S
C345 C340 1.399 . S
C345 C344 1.394 . S
C345 C346 1.516 . S
C346 C345 1.516 . S
C346 C347 1.502 . S
C346 C348 1.561 . S
C346 C349 1.526 . S
C347 H331 0.959 . S
C347 H332 0.959 . S
C347 H333 0.961 . S
C347 C346 1.502 . S
C348 H334 0.960 . S
C348 H335 0.961 . S
C348 H336 0.959 . S
C348 C346 1.561 . S
C349 C346 1.526 . S
C349 C350 1.396 . S
C349 C354 1.390 . S
C350 C344 1.465 . S
C350 C349 1.396 . S
C350 C351 1.399 . S
C351 H337 0.929 . S
C351 C350 1.399 . S
C351 C352 1.385 . S
C352 H338 0.931 . S
C352 C351 1.385 . S
C352 C353 1.389 . S
C353 C352 1.389 . S
C353 C354 1.387 . S
C354 H339 0.930 . S
C354 C349 1.390 . S
C354 C353 1.387 . S
H355 C367 0.930 . S
H356 C369 0.930 . S
H357 C370 0.930 . S
H358 C374 0.959 . S
H359 C374 0.959 . S
H360 C374 0.961 . S
H361 C375 0.960 . S
H362 C375 0.961 . S
H363 C375 0.959 . S
H364 C378 0.929 . S
H365 C379 0.931 . S
H366 C381 0.930 . S
C367 H355 0.930 . S
C367 C368 1.399 . S
C367 C372 1.399 . S
C368 C367 1.399 . S
C368 C369 1.376 . S
C369 H356 0.930 . S
C369 C368 1.376 . S
C369 C370 1.388 . S
C370 H357 0.930 . S
C370 C369 1.388 . S
C370 C371 1.390 . S
C371 C370 1.390 . S
C371 C372 1.394 . S
C371 C377 1.465 . S
C372 C367 1.399 . S
C372 C371 1.394 . S
C372 C373 1.516 . S
C373 C372 1.516 . S
C373 C374 1.502 . S
C373 C375 1.561 . S
C373 C376 1.526 . S
C374 H358 0.959 . S
C374 H359 0.959 . S
C374 H360 0.961 . S
C374 C373 1.502 . S
C375 H361 0.960 . S
C375 H362 0.961 . S
C375 H363 0.959 . S
C375 C373 1.561 . S
C376 C373 1.526 . S
C376 C377 1.396 . S
C376 C381 1.390 . S
C377 C371 1.465 . S
C377 C376 1.396 . S
C377 C378 1.399 . S
C378 H364 0.929 . S
C378 C377 1.399 . S
C378 C379 1.385 . S
C379 H365 0.931 . S
C379 C378 1.385 . S
C379 C380 1.389 . S
C380 C379 1.389 . S
C380 C381 1.387 . S
C381 H366 0.930 . S
C381 C376 1.390 . S
C381 C380 1.387 . S
H382 C394 0.930 . S
H383 C396 0.930 . S
H384 C397 0.930 . S
H385 C401 0.959 . S
H386 C401 0.959 1_565 S
H387 C401 0.961 . S
H388 C402 0.960 . S
H389 C402 0.961 . S
H390 C402 0.959 . S
H391 C405 0.929 . S
H392 C406 0.931 . S
H393 C408 0.930 . S
C394 H382 0.930 . S
C394 C395 1.399 . S
C394 C399 1.399 . S
C395 C394 1.399 . S
C395 C396 1.376 . S
C396 H383 0.930 . S
C396 C395 1.376 . S
C396 C397 1.388 . S
C397 H384 0.930 . S
C397 C396 1.388 . S
C397 C398 1.390 . S
C398 C397 1.390 . S
C398 C399 1.394 . S
C398 C404 1.465 . S
C399 C394 1.399 . S
C399 C398 1.394 . S
C399 C400 1.516 . S
C400 C399 1.516 . S
C400 C401 1.502 . S
C400 C402 1.561 . S
C400 C403 1.526 . S
C401 H385 0.959 . S
C401 H386 0.959 1_545 S
C401 H387 0.961 . S
C401 C400 1.502 . S
C402 H388 0.960 . S
C402 H389 0.961 . S
C402 H390 0.959 . S
C402 C400 1.561 . S
C403 C400 1.526 . S
C403 C404 1.396 . S
C403 C408 1.390 . S
C404 C398 1.465 . S
C404 C403 1.396 . S
C404 C405 1.399 . S
C405 H391 0.929 . S
C405 C404 1.399 . S
C405 C406 1.385 . S
C406 H392 0.931 . S
C406 C405 1.385 . S
C406 C407 1.389 . S
C407 C406 1.389 . S
C407 C408 1.387 . S
C408 H393 0.930 . S
C408 C403 1.390 . S
C408 C407 1.387 . S
H409 C421 0.930 . S
H410 C423 0.930 . S
H411 C424 0.930 . S
H412 C428 0.959 . S
H413 C428 0.959 . S
H414 C428 0.961 . S
H415 C429 0.960 . S
H416 C429 0.961 . S
H417 C429 0.959 . S
H418 C432 0.929 . S
H419 C433 0.931 . S
H420 C435 0.930 . S
C421 H409 0.930 . S
C421 C422 1.399 . S
C421 C426 1.399 . S
C422 C421 1.399 . S
C422 C423 1.376 . S
C423 H410 0.930 . S
C423 C422 1.376 . S
C423 C424 1.388 . S
C424 H411 0.930 . S
C424 C423 1.388 . S
C424 C425 1.390 . S
C425 C424 1.390 . S
C425 C426 1.394 . S
C425 C431 1.465 . S
C426 C421 1.399 . S
C426 C425 1.394 . S
C426 C427 1.516 . S
C427 C426 1.516 . S
C427 C428 1.502 . S
C427 C429 1.561 . S
C427 C430 1.526 . S
C428 H412 0.959 . S
C428 H413 0.959 . S
C428 H414 0.961 . S
C428 C427 1.502 . S
C429 H415 0.960 . S
C429 H416 0.961 . S
C429 H417 0.959 . S
C429 C427 1.561 . S
C430 C427 1.526 . S
C430 C431 1.396 . S
C430 C435 1.390 . S
C431 C425 1.465 . S
C431 C430 1.396 . S
C431 C432 1.399 . S
C432 H418 0.929 . S
C432 C431 1.399 . S
C432 C433 1.385 . S
C433 H419 0.931 . S
C433 C432 1.385 . S
C433 C434 1.389 . S
C434 C433 1.389 . S
C434 C435 1.387 . S
C435 H420 0.930 . S
C435 C430 1.390 . S
C435 C434 1.387 . S
H436 C448 0.930 . S
H437 C450 0.930 . S
H438 C451 0.930 . S
H439 C455 0.959 . S
H440 C455 0.959 . S
H441 C455 0.961 . S
H442 C456 0.960 . S
H443 C456 0.961 . S
H444 C456 0.959 . S
H445 C459 0.929 . S
H446 C460 0.931 . S
H447 C462 0.930 . S
C448 H436 0.930 . S
C448 C449 1.399 . S
C448 C453 1.399 . S
C449 C448 1.399 . S
C449 C450 1.376 . S
C450 H437 0.930 . S
C450 C449 1.376 . S
C450 C451 1.388 . S
C451 H438 0.930 . S
C451 C450 1.388 . S
C451 C452 1.390 . S
C452 C451 1.390 . S
C452 C453 1.394 . S
C452 C458 1.465 . S
C453 C448 1.399 . S
C453 C452 1.394 . S
C453 C454 1.516 . S
C454 C453 1.516 . S
C454 C455 1.502 . S
C454 C456 1.561 . S
C454 C457 1.526 . S
C455 H439 0.959 . S
C455 H440 0.959 . S
C455 H441 0.961 . S
C455 C454 1.502 . S
C456 H442 0.960 . S
C456 H443 0.961 . S
C456 H444 0.959 . S
C456 C454 1.561 . S
C457 C454 1.526 . S
C457 C458 1.396 . S
C457 C462 1.390 . S
C458 C452 1.465 . S
C458 C457 1.396 . S
C458 C459 1.399 . S
C459 H445 0.929 . S
C459 C458 1.399 . S
C459 C460 1.385 . S
C460 H446 0.931 . S
C460 C459 1.385 . S
C460 C461 1.389 . S
C461 C460 1.389 . S
C461 C462 1.387 . S
C462 H447 0.930 . S
C462 C457 1.390 . S
C462 C461 1.387 . S
H463 C475 0.925 1_554 S
H464 C477 0.930 1_554 S
H465 C478 0.930 . S
H466 C482 0.959 . S
H467 C482 0.959 . S
H468 C482 0.961 . S
H469 C483 0.960 1_554 S
H470 C483 0.961 . S
H471 C483 0.959 . S
H472 C486 0.929 . S
H473 C487 0.931 . S
H474 C489 0.930 . S
C475 H463 0.925 1_556 S
C475 C476 1.399 1_556 S
C475 C480 1.399 . S
C476 C475 1.399 1_554 S
C476 C477 1.376 1_554 S
C477 H464 0.930 1_556 S
C477 C476 1.376 1_556 S
C477 C478 1.388 . S
C478 H465 0.930 . S
C478 C477 1.388 . S
C478 C479 1.390 . S
C479 C478 1.390 . S
C479 C480 1.394 . S
C479 C485 1.465 . S
C480 C475 1.399 . S
C480 C479 1.394 . S
C480 C481 1.516 . S
C481 C480 1.516 . S
C481 C482 1.502 . S
C481 C483 1.561 . S
C481 C484 1.526 . S
C482 H466 0.959 . S
C482 H467 0.959 . S
C482 H468 0.961 . S
C482 C481 1.502 . S
C483 H469 0.960 1_556 S
C483 H470 0.961 . S
C483 H471 0.959 . S
C483 C481 1.561 . S
C484 C481 1.526 . S
C484 C485 1.396 . S
C484 C489 1.390 . S
C485 C479 1.465 . S
C485 C484 1.396 . S
C485 C486 1.399 . S
C486 H472 0.929 . S
C486 C485 1.399 . S
C486 C487 1.385 . S
C487 H473 0.931 . S
C487 C486 1.385 . S
C487 C488 1.389 . S
C488 C487 1.389 . S
C488 C489 1.387 . S
C489 H474 0.930 . S
C489 C484 1.390 . S
C489 C488 1.387 . S
H490 C502 0.930 . S
H491 C504 0.930 . S
H492 C505 0.930 . S
H493 C509 0.959 . S
H494 C509 0.959 . S
H495 C509 0.961 . S
H496 C510 0.960 . S
H497 C510 0.961 . S
H498 C510 0.959 . S
H499 C513 0.929 . S
H500 C514 0.931 . S
H501 C516 0.930 . S
C502 H490 0.930 . S
C502 C503 1.399 . S
C502 C507 1.399 . S
C503 C502 1.399 . S
C503 C504 1.376 . S
C504 H491 0.930 . S
C504 C503 1.376 . S
C504 C505 1.388 . S
C505 H492 0.930 . S
C505 C504 1.388 . S
C505 C506 1.390 . S
C506 C505 1.390 . S
C506 C507 1.394 . S
C506 C512 1.465 . S
C507 C502 1.399 . S
C507 C506 1.394 . S
C507 C508 1.516 . S
C508 C507 1.516 . S
C508 C509 1.502 . S
C508 C510 1.561 . S
C508 C511 1.526 . S
C509 H493 0.959 . S
C509 H494 0.959 . S
C509 H495 0.961 . S
C509 C508 1.502 . S
C510 H496 0.960 . S
C510 H497 0.961 . S
C510 H498 0.959 . S
C510 C508 1.561 . S
C511 C508 1.526 . S
C511 C512 1.396 . S
C511 C516 1.390 . S
C512 C506 1.465 . S
C512 C511 1.396 . S
C512 C513 1.399 . S
C513 H499 0.929 . S
C513 C512 1.399 . S
C513 C514 1.385 . S
C514 H500 0.931 . S
C514 C513 1.385 . S
C514 C515 1.389 . S
C515 C514 1.389 . S
C515 C516 1.387 . S
C516 H501 0.930 . S
C516 C511 1.390 . S
C516 C515 1.387 . S
H517 C529 0.930 . S
H518 C531 0.930 . S
H519 C532 0.930 . S
H520 C536 0.959 . S
H521 C536 0.959 . S
H522 C536 0.961 . S
H523 C537 0.960 . S
H524 C537 0.961 . S
H525 C537 0.959 . S
H526 C540 0.929 1_545 S
H527 C541 0.931 1_545 S
H528 C543 0.930 . S
C529 H517 0.930 . S
C529 C530 1.399 . S
C529 C534 1.399 . S
C530 C529 1.399 . S
C530 C531 1.376 . S
C531 H518 0.930 . S
C531 C530 1.376 . S
C531 C532 1.388 . S
C532 H519 0.930 . S
C532 C531 1.388 . S
C532 C533 1.390 . S
C533 C532 1.390 . S
C533 C534 1.394 . S
C533 C539 1.465 . S
C534 C529 1.399 . S
C534 C533 1.394 . S
C534 C535 1.516 . S
C535 C534 1.516 . S
C535 C536 1.502 . S
C535 C537 1.561 . S
C535 C538 1.526 . S
C536 H520 0.959 . S
C536 H521 0.959 . S
C536 H522 0.961 . S
C536 C535 1.502 . S
C537 H523 0.960 . S
C537 H524 0.961 . S
C537 H525 0.959 . S
C537 C535 1.561 . S
C538 C535 1.526 . S
C538 C539 1.396 . S
C538 C543 1.390 . S
C539 C533 1.465 . S
C539 C538 1.396 . S
C539 C540 1.399 . S
C540 H526 0.929 1_565 S
C540 C539 1.399 . S
C540 C541 1.385 . S
C541 H527 0.931 1_565 S
C541 C540 1.385 . S
C541 C542 1.389 . S
C542 C541 1.389 . S
C542 C543 1.387 . S
C543 H528 0.930 . S
C543 C538 1.390 . S
C543 C542 1.387 . S
C245 C120 1.664 . S
C233 N41 1.694 . S
C260 N2 1.620 . S
C272 C192 1.598 . S
C287 N15 1.666 . S
C299 C108 1.633 . S
C314 N28 1.624 . S
C326 C204 1.636 . S
C353 C110 1.418 . S
C341 N5 1.577 . S
C380 C191 1.662 . S
C368 N14 1.644 . S
C395 N27 1.541 . S
C407 C107 1.599 . S
C422 N44 1.568 . S
C434 C194 1.472 . S
C461 C206 1.464 . S
C449 N18 1.589 . S
C488 C122 1.458 . S
C476 N31 1.597 . S
C515 C203 1.666 . S
C503 N40 1.660 . S
C530 N1 1.607 . S
C542 C119 1.611 . S
