# Generated by pormake.
# Topology apo, (3,6)-cn, num edge types: 1
# Building blocks:
#     Node 0, Type 0, BuildingBlock: BETDIP_clean_linker_0, # of connection points: 3
#     Node 1, Type 0, BuildingBlock: BETDIP_clean_linker_0, # of connection points: 3
#     Node 2, Type 0, BuildingBlock: BETDIP_clean_linker_0, # of connection points: 3
#     Node 3, Type 0, BuildingBlock: BETDIP_clean_linker_0, # of connection points: 3
#     Node 4, Type 0, BuildingBlock: BETDIP_clean_linker_0, # of connection points: 3
#     Node 5, Type 0, BuildingBlock: BETDIP_clean_linker_0, # of connection points: 3
#     Node 6, Type 0, BuildingBlock: BETDIP_clean_linker_0, # of connection points: 3
#     Node 7, Type 0, BuildingBlock: BETDIP_clean_linker_0, # of connection points: 3
#     Node 8, Type 1, BuildingBlock: KUMJIN_clean_sbu_1, # of connection points: 6
#     Node 9, Type 1, BuildingBlock: KUMJIN_clean_sbu_1, # of connection points: 6
#     Node 10, Type 1, BuildingBlock: KUMJIN_clean_sbu_1, # of connection points: 6
#     Node 11, Type 1, BuildingBlock: KUMJIN_clean_sbu_1, # of connection points: 6
#     Edge 12, Type (0, 1), None
#     Edge 13, Type (0, 1), None
#     Edge 14, Type (0, 1), None
#     Edge 15, Type (0, 1), None
#     Edge 16, Type (0, 1), None
#     Edge 17, Type (0, 1), None
#     Edge 18, Type (0, 1), None
#     Edge 19, Type (0, 1), None
#     Edge 20, Type (0, 1), None
#     Edge 21, Type (0, 1), None
#     Edge 22, Type (0, 1), None
#     Edge 23, Type (0, 1), None
#     Edge 24, Type (0, 1), None
#     Edge 25, Type (0, 1), None
#     Edge 26, Type (0, 1), None
#     Edge 27, Type (0, 1), None
#     Edge 28, Type (0, 1), None
#     Edge 29, Type (0, 1), None
#     Edge 30, Type (0, 1), None
#     Edge 31, Type (0, 1), None
#     Edge 32, Type (0, 1), None
#     Edge 33, Type (0, 1), None
#     Edge 34, Type (0, 1), None
#     Edge 35, Type (0, 1), None
# Relax obj value: 0.038
# Max RMSD: 0.266
# Mean RMSD: 0.199
data_MOF--net-apo--node1-KUMJIN_clean_sbu_1--node2-BETDIP_clean_linker_0--edge1-none
_symmetry_space_group_name_H-M    P1
_symmetry_Int_Tables_number       1
_symmetry_cell_setting            triclinic
loop_
_symmetry_equiv_pos_as_xyz
'x, y, z'
_cell_length_a     12.711292
_cell_length_b     18.017459
_cell_length_c     27.081083
_cell_angle_alpha  90.015863
_cell_angle_beta   90.000104
_cell_angle_gamma 89.848671
loop_
_atom_site_label
_atom_site_type_symbol
_atom_site_fract_x
_atom_site_fract_y
_atom_site_fract_z
_atom_type_partial_charge
H0 H 0.20461 0.32009 0.45981 0.0
H1 H 0.32888 0.34915 0.31306 0.0
H2 H 0.36267 0.52247 0.4197 0.0
H3 H 0.29705 0.23318 0.30623 0.0
C4 C 0.23123 0.21779 0.32954 0.0
C5 C 0.24792 0.3525 0.43296 0.0
C6 C 0.28705 0.42293 0.44621 0.0
C7 C 0.26189 0.32437 0.3849 0.0
C8 C 0.31502 0.36894 0.34993 0.0
C9 C 0.34881 0.4409 0.36175 0.0
C10 C 0.336 0.46717 0.41017 0.0
N11 N 0.21098 0.25616 0.37134 0.0
H12 H 0.3203 0.18278 0.95983 0.0
H13 H 0.19613 0.15374 0.81306 0.0
H14 H 0.16207 0.98047 0.91965 0.0
H15 H 0.22774 0.26976 0.80633 0.0
C16 C 0.29361 0.28513 0.82962 0.0
C17 C 0.27698 0.15038 0.93296 0.0
C18 C 0.23778 0.07997 0.94619 0.0
C19 C 0.26304 0.17852 0.88491 0.0
C20 C 0.2099 0.13396 0.84992 0.0
C21 C 0.17602 0.06202 0.86172 0.0
C22 C 0.18878 0.03576 0.91014 0.0
N23 N 0.31394 0.24674 0.87138 0.0
H24 H 0.6797 0.1914 0.59256 0.0
H25 H 0.78065 0.15297 0.74242 0.0
H26 H 0.8668 0.99996 0.62774 0.0
H27 H 0.63422 0.21208 0.75639 0.0
C28 C 0.61945 0.25301 0.72787 0.0
C29 C 0.72331 0.15894 0.61941 0.0
C30 C 0.77725 0.09504 0.60436 0.0
C31 C 0.71971 0.17927 0.66907 0.0
C32 C 0.77697 0.13655 0.70407 0.0
C33 C 0.83227 0.07247 0.68935 0.0
C34 C 0.83016 0.0513 0.63937 0.0
N35 N 0.65734 0.24233 0.68225 0.0
H36 H 0.84477 0.31153 0.09247 0.0
H37 H 0.74394 0.34967 0.24241 0.0
H38 H 0.6579 0.50298 0.12797 0.0
H39 H 0.89062 0.2908 0.25625 0.0
C40 C 0.9053 0.24982 0.22774 0.0
C41 C 0.8012 0.34393 0.11938 0.0
C42 C 0.7473 0.4079 0.10444 0.0
C43 C 0.80485 0.32351 0.16902 0.0
C44 C 0.74763 0.36618 0.20408 0.0
C45 C 0.6924 0.43031 0.18945 0.0
C46 C 0.69451 0.45158 0.13952 0.0
N47 N 0.86726 0.26044 0.18214 0.0
H48 H 0.82943 0.67219 0.59307 0.0
H49 H 0.7234 0.6449 0.74374 0.0
H50 H 0.65447 0.47847 0.63635 0.0
H51 H 0.75595 0.75955 0.75039 0.0
C52 C 0.81772 0.77692 0.72537 0.0
C53 C 0.7878 0.64104 0.62115 0.0
C54 C 0.74285 0.5722 0.60934 0.0
C55 C 0.78127 0.66924 0.66932 0.0
C56 C 0.7283 0.62684 0.7058 0.0
C57 C 0.68175 0.55867 0.6938 0.0
C58 C 0.68996 0.53134 0.64569 0.0
N59 N 0.83168 0.73831 0.6801 0.0
H60 H 0.69545 0.83048 0.09304 0.0
H61 H 0.80137 0.85794 0.24373 0.0
H62 H 0.87025 0.0243 0.13634 0.0
H63 H 0.76911 0.74321 0.25034 0.0
C64 C 0.70729 0.72584 0.22534 0.0
C65 C 0.73705 0.86167 0.12113 0.0
C66 C 0.78196 0.93052 0.10932 0.0
C67 C 0.74358 0.83352 0.1693 0.0
C68 C 0.79648 0.87597 0.20579 0.0
C69 C 0.843 0.94415 0.19379 0.0
C70 C 0.8348 0.97142 0.14568 0.0
N71 N 0.69324 0.76443 0.18008 0.0
H72 H 0.26308 0.77236 0.45706 0.0
H73 H 0.29923 0.87977 0.31541 0.0
H74 H 0.08452 0.96653 0.42169 0.0
H75 H 0.34488 0.77331 0.29205 0.0
C76 C 0.38097 0.74081 0.32106 0.0
C77 C 0.2447 0.81709 0.43169 0.0
C78 C 0.17018 0.87101 0.44487 0.0
C79 C 0.29177 0.81858 0.38484 0.0
C80 C 0.2641 0.87615 0.35138 0.0
C81 C 0.18646 0.92826 0.36351 0.0
C82 C 0.14351 0.92662 0.4112 0.0
N83 N 0.35981 0.75876 0.37115 0.0
H84 H 0.26165 0.7307 0.95711 0.0
H85 H 0.22552 0.62326 0.81544 0.0
H86 H 0.44021 0.53653 0.92172 0.0
H87 H 0.18045 0.72987 0.79207 0.0
C88 C 0.14414 0.76232 0.82106 0.0
C89 C 0.28002 0.68597 0.93175 0.0
C90 C 0.35451 0.63203 0.94492 0.0
C91 C 0.233 0.68448 0.88488 0.0
C92 C 0.26063 0.62687 0.85142 0.0
C93 C 0.33824 0.57474 0.86355 0.0
C94 C 0.3812 0.57641 0.91124 0.0
N95 N 0.16507 0.74434 0.87116 0.0
Eu96 Eu 0.12881 0.05258 0.21329 0.0
C97 C 0.68095 0.03921 0.31665 0.0
N98 N 0.74856 0.09677 0.30991 0.0
C99 C 0.60519 0.17677 0.28763 0.0
C100 C 0.57164 0.0494 0.31022 0.0
C101 C 0.7125 0.16446 0.29522 0.0
C102 C 0.53423 0.11924 0.29578 0.0
C103 C 0.65028 0.91233 0.34325 0.0
C104 C 0.72039 0.97108 0.3331 0.0
C105 C 0.5422 0.92196 0.33529 0.0
C106 C 0.50276 0.99052 0.31967 0.0
Eu107 Eu 0.92473 0.07454 0.33306 0.0
N108 N 0.82462 0.96502 0.34455 0.0
C109 C 0.68941 0.84757 0.36502 0.0
C110 C 0.86107 0.90382 0.36905 0.0
C111 C 0.79469 0.8442 0.37907 0.0
H112 H 0.76565 0.21002 0.29172 0.0
H113 H 0.82426 0.79657 0.39909 0.0
H114 H 0.27019 0.89683 0.23092 0.0
H115 H 0.24821 0.31632 0.13345 0.0
H116 H 0.94018 0.90123 0.38293 0.0
H117 H 0.63779 0.80159 0.37369 0.0
H118 H 0.12348 0.22425 0.1676 0.0
H119 H 0.57711 0.23109 0.27663 0.0
H120 H 0.48815 0.87744 0.34315 0.0
H121 H 0.41862 0.99772 0.31537 0.0
H122 H 0.45488 0.85446 0.22306 0.0
H123 H 0.45079 0.12931 0.29091 0.0
H124 H 0.43895 0.28897 0.13247 0.0
N125 N 0.30415 0.00832 0.21197 0.0
C126 C 0.37802 0.05739 0.19637 0.0
C127 C 0.43432 0.91169 0.21558 0.0
C128 C 0.48406 0.03552 0.19074 0.0
C129 C 0.33024 0.93591 0.22056 0.0
C130 C 0.51167 0.96192 0.20095 0.0
N131 N 0.24298 0.14653 0.1859 0.0
C132 C 0.20677 0.21215 0.16742 0.0
C133 C 0.42065 0.17948 0.16432 0.0
C134 C 0.34665 0.12851 0.18311 0.0
C135 C 0.38472 0.24843 0.1474 0.0
C136 C 0.27708 0.26411 0.14793 0.0
H137 H 0.59219 0.94337 0.19736 0.0
H138 H 0.64098 0.07193 0.1712 0.0
H139 H 0.58536 0.19787 0.14754 0.0
O140 O 0.0921 0.07471 0.13528 0.0
O141 O 0.18362 0.14205 0.26529 0.0
O142 O 0.0816 0.14069 0.33808 0.0
O143 O 0.14467 0.96565 0.15725 0.0
O144 O 0.98734 0.13402 0.21029 0.0
O145 O 0.9638 0.17691 0.29038 0.0
O146 O 0.95357 0.05959 0.41197 0.0
O147 O 0.86186 0.03598 0.25835 0.0
O148 O 1.0057 0.96923 0.23497 0.0
O149 O 0.84009 0.14068 0.3884 0.0
O150 O 0.03287 0.97702 0.32698 0.0
O151 O 0.18682 0.99743 0.28552 0.0
C152 C 0.16447 0.16227 0.31132 0.0
C153 C 0.20594 0.01121 0.07926 0.0
C154 C 0.26028 0.04822 0.99565 0.0
C155 C 0.35993 0.01734 1.00425 0.0
C156 C 0.30567 0.97849 0.08583 0.0
C157 C 0.38215 0.98246 0.04898 0.0
C158 C 0.18319 0.04539 0.03336 0.0
C159 C 0.95627 0.18515 0.24249 0.0
C160 C 0.12705 0.01046 0.12021 0.0
C161 C 0.55878 0.08727 0.1744 0.0
C162 C 0.52718 0.15909 0.1612 0.0
C163 C 0.90571 0.98471 0.23063 0.0
C164 C 0.8103 0.08108 0.46553 0.0
C165 C 0.7655 0.07019 0.55289 0.0
C166 C 0.67738 0.02753 0.54044 0.0
C167 C 0.71911 0.041 0.454 0.0
C168 C 0.83295 0.09617 0.51543 0.0
C169 C 0.65431 0.01315 0.49111 0.0
C170 C 0.13545 0.9762 0.32564 0.0
C171 C 0.88204 0.10669 0.42604 0.0
H172 H 0.41997 0.01894 0.97584 0.0
H173 H 0.32523 0.94951 0.11944 0.0
H174 H 0.45883 0.95774 0.055 0.0
H175 H 0.1062 0.06956 0.02698 0.0
H176 H 0.62434 0.00779 0.56885 0.0
H177 H 0.69661 0.03219 0.41645 0.0
H178 H 0.90103 0.12932 0.52501 0.0
H179 H 0.58466 0.98185 0.48151 0.0
Eu180 Eu 0.39591 0.45026 0.71335 0.0
C181 C 0.84377 0.46388 0.8166 0.0
N182 N 0.77621 0.40625 0.80996 0.0
C183 C 0.91963 0.32622 0.78778 0.0
C184 C 0.95309 0.45369 0.81019 0.0
C185 C 0.8123 0.33852 0.79535 0.0
C186 C 0.99055 0.38381 0.79586 0.0
C187 C 0.87432 0.59094 0.84289 0.0
C188 C 0.80426 0.5321 0.83287 0.0
C189 C 0.98242 0.5813 0.83498 0.0
C190 C 0.02192 0.51264 0.81954 0.0
Eu191 Eu 0.60004 0.42851 0.83308 0.0
N192 N 0.70003 0.53817 0.84433 0.0
C193 C 0.83514 0.6558 0.86452 0.0
C194 C 0.66356 0.59946 0.86875 0.0
C195 C 0.72988 0.65918 0.87861 0.0
H196 H 0.75917 0.29293 0.7919 0.0
H197 H 0.7003 0.70688 0.89857 0.0
H198 H 0.25469 0.6061 0.73095 0.0
H199 H 0.27628 0.18641 0.63366 0.0
H200 H 0.5845 0.60206 0.88269 0.0
H201 H 0.88673 0.70186 0.87309 0.0
H202 H 0.40109 0.27849 0.66776 0.0
H203 H 0.94774 0.27186 0.77685 0.0
H204 H 0.03644 0.62588 0.84273 0.0
H205 H 0.10606 0.50545 0.81526 0.0
H206 H 0.07005 0.64856 0.723 0.0
H207 H 0.074 0.37374 0.791 0.0
H208 H 0.08557 0.21386 0.63265 0.0
N209 N 0.22063 0.49461 0.712 0.0
C210 C 0.14671 0.44555 0.69641 0.0
C211 C 0.09057 0.59131 0.71554 0.0
C212 C 0.04071 0.46746 0.69075 0.0
C213 C 0.1946 0.56704 0.72057 0.0
C214 C 0.01318 0.5411 0.70092 0.0
N215 N 0.28167 0.35631 0.68599 0.0
C216 C 0.31781 0.29063 0.66757 0.0
C217 C 0.10397 0.32341 0.66443 0.0
C218 C 0.17802 0.37439 0.68318 0.0
C219 C 0.13984 0.2544 0.64755 0.0
C220 C 0.24746 0.23866 0.6481 0.0
H221 H 0.93268 0.55968 0.69731 0.0
H222 H 0.88376 0.43109 0.67122 0.0
H223 H 0.93925 0.30507 0.64764 0.0
O224 O 0.43252 0.42798 0.63534 0.0
O225 O 0.34106 0.36091 0.7654 0.0
O226 O 0.44331 0.3622 0.83811 0.0
O227 O 0.38023 0.53714 0.65731 0.0
O228 O 0.53733 0.36875 0.71039 0.0
O229 O 0.56103 0.32602 0.79049 0.0
O230 O 0.57099 0.44348 0.91197 0.0
O231 O 0.66283 0.46685 0.75833 0.0
O232 O 0.51904 0.53365 0.73498 0.0
O233 O 0.6851 0.36276 0.88848 0.0
O234 O 0.49181 0.52597 0.82699 0.0
O235 O 0.33784 0.50547 0.78557 0.0
C236 C 0.36035 0.34065 0.81139 0.0
C237 C 0.31887 0.49158 0.57931 0.0
C238 C 0.26454 0.45468 0.49568 0.0
C239 C 0.16495 0.48565 0.50426 0.0
C240 C 0.21919 0.52441 0.58588 0.0
C241 C 0.14275 0.52054 0.54901 0.0
C242 C 0.3416 0.4574 0.5334 0.0
C243 C 0.56846 0.31769 0.74261 0.0
C244 C 0.39774 0.49226 0.62027 0.0
C245 C 0.96594 0.41572 0.67444 0.0
C246 C 0.99746 0.34385 0.66128 0.0
C247 C 0.61902 0.51814 0.73063 0.0
C248 C 0.71416 0.42248 0.96565 0.0
C249 C 0.75889 0.43296 0.05303 0.0
C250 C 0.84602 0.47673 0.04076 0.0
C251 C 0.80438 0.46372 0.95428 0.0
C252 C 0.69199 0.40658 1.01547 0.0
C253 C 0.86866 0.49187 0.9915 0.0
C254 C 0.38923 0.52676 0.82567 0.0
C255 C 0.64278 0.39661 0.92609 0.0
H256 H 0.10493 0.48413 0.47584 0.0
H257 H 0.19967 0.55341 0.61949 0.0
H258 H 0.06611 0.54533 0.55502 0.0
H259 H 0.41854 0.43316 0.52703 0.0
H260 H 0.89859 0.49685 0.06927 0.0
H261 H 0.82648 0.47327 0.91678 0.0
H262 H 0.62463 0.37264 0.02492 0.0
H263 H 0.93754 0.52409 0.98203 0.0
Eu264 Eu 0.10638 0.93282 0.71741 0.0
C265 C 0.69105 0.04718 0.84144 0.0
N266 N 0.79729 0.05612 0.84031 0.0
C267 C 0.77764 0.18483 0.86048 0.0
C268 C 0.62392 0.10839 0.84958 0.0
C269 C 0.84125 0.12361 0.85013 0.0
C270 C 0.66852 0.17782 0.85879 0.0
C271 C 0.53996 0.96489 0.84362 0.0
C272 C 0.64961 0.9759 0.83933 0.0
C273 C 0.47296 0.02627 0.8489 0.0
C274 C 0.51495 0.09776 0.85184 0.0
Eu275 Eu 0.89807 0.94661 0.83551 0.0
N276 N 0.71648 0.91721 0.83612 0.0
C277 C 0.50083 0.89239 0.8434 0.0
C278 C 0.67877 0.84631 0.83786 0.0
C279 C 0.57071 0.83279 0.84064 0.0
H280 H 0.92525 0.13 0.85324 0.0
H281 H 0.54156 0.7764 0.84146 0.0
H282 H 0.19225 0.75638 0.69982 0.0
H283 H 0.3305 0.18795 0.73945 0.0
H284 H 0.73211 0.79985 0.838 0.0
H285 H 0.41711 0.88185 0.84615 0.0
H286 H 0.16951 0.11231 0.72743 0.0
H287 H 0.8131 0.23697 0.87094 0.0
H288 H 0.38879 0.01879 0.85154 0.0
H289 H 0.46305 0.14452 0.85705 0.0
H290 H 0.36254 0.68957 0.69452 0.0
H291 H 0.61933 0.22548 0.86677 0.0
H292 H 0.50494 0.12814 0.73584 0.0
N293 N 0.26263 0.86048 0.71639 0.0
C294 C 0.35393 0.89937 0.7204 0.0
C295 C 0.36061 0.74809 0.7031 0.0
C296 C 0.45247 0.86328 0.71667 0.0
C297 C 0.26467 0.78605 0.70651 0.0
C298 C 0.45477 0.78658 0.70896 0.0
N299 N 0.25357 0.01044 0.72653 0.0
C300 C 0.24594 0.08586 0.72819 0.0
C301 C 0.44269 0.018 0.72719 0.0
C302 C 0.34922 0.97621 0.72521 0.0
C303 C 0.43509 0.09485 0.73254 0.0
C304 C 0.33653 0.1288 0.73388 0.0
H305 H 0.52885 0.757 0.70572 0.0
H306 H 0.62171 0.87818 0.71606 0.0
H307 H 0.61305 0.01364 0.72546 0.0
O308 O 0.05601 0.98183 0.64715 0.0
O309 O 0.17099 0.97788 0.79132 0.0
O310 O 0.02042 0.03068 0.81787 0.0
O311 O 0.18098 0.90142 0.64795 0.0
O312 O 0.99539 0.03096 0.72503 0.0
O313 O 0.83992 0.99539 0.76229 0.0
O314 O 0.85162 0.89101 0.9041 0.0
O315 O 0.8706 0.84723 0.78817 0.0
O316 O 0.95676 0.85823 0.71177 0.0
O317 O 0.9465 0.99008 0.90733 0.0
O318 O 0.04018 0.86523 0.83897 0.0
O319 O 0.07851 0.82853 0.75878 0.0
C320 C 0.11943 0.01698 0.82457 0.0
C321 C 0.08014 0.90535 0.57622 0.0
C322 C 0.11012 0.86576 0.49136 0.0
C323 C 0.0153 0.82603 0.49253 0.0
C324 C 0.98581 0.86505 0.57712 0.0
C325 C 0.95352 0.82576 0.53527 0.0
C326 C 0.14194 0.90567 0.5332 0.0
C327 C 0.89191 0.02741 0.72577 0.0
C328 C 0.12063 0.94219 0.62066 0.0
C329 C 0.54553 0.90499 0.7188 0.0
C330 C 0.54062 0.98216 0.72393 0.0
C331 C 0.88075 0.83153 0.74096 0.0
C332 C 0.82807 0.96907 0.97357 0.0
C333 C 0.77134 0.96181 0.05941 0.0
C334 C 0.70562 0.02343 0.05211 0.0
C335 C 0.76316 0.03156 0.96743 0.0
C336 C 0.83152 0.93397 1.01989 0.0
C337 C 0.70131 0.05791 1.00618 0.0
C338 C 0.08671 0.82045 0.80661 0.0
C339 C 0.89379 0.94101 0.93256 0.0
H340 H 0.98868 0.79601 0.4602 0.0
H341 H 0.93791 0.86337 0.61016 0.0
H342 H 0.88054 0.79495 0.53597 0.0
H343 H 0.21491 0.93672 0.53231 0.0
H344 H 0.65866 0.04533 0.0821 0.0
H345 H 0.76101 0.06098 0.93316 0.0
H346 H 0.88288 0.88659 0.02559 0.0
H347 H 0.65129 0.10596 1.00079 0.0
Eu348 Eu 0.41844 0.57011 0.21748 0.0
C349 C 0.83423 0.45632 0.34148 0.0
N350 N 0.72805 0.44713 0.34024 0.0
C351 C 0.74821 0.31841 0.3602 0.0
C352 C 0.90162 0.39524 0.34956 0.0
C353 C 0.68436 0.3795 0.34988 0.0
C354 C 0.85731 0.32567 0.3586 0.0
C355 C 0.98492 0.53895 0.34387 0.0
C356 C 0.87534 0.52769 0.33951 0.0
C357 C 0.0522 0.47771 0.34908 0.0
C358 C 0.01053 0.40612 0.3519 0.0
Eu359 Eu 0.62674 0.55639 0.33558 0.0
N360 N 0.8082 0.58623 0.33636 0.0
C361 C 0.02371 0.61155 0.34377 0.0
C362 C 0.84556 0.65722 0.33823 0.0
C363 C 0.95355 0.67099 0.34107 0.0
H364 H 0.60037 0.37291 0.35288 0.0
H365 H 0.98245 0.72745 0.34197 0.0
H366 H 0.33211 0.74651 0.20015 0.0
H367 H 0.19494 0.31473 0.23942 0.0
H368 H 0.79198 0.70356 0.3384 0.0
H369 H 0.10737 0.62228 0.34656 0.0
H370 H 0.35571 0.39055 0.22737 0.0
H371 H 0.71295 0.26618 0.37057 0.0
H372 H 0.13634 0.48538 0.35177 0.0
H373 H 0.06263 0.35946 0.35704 0.0
H374 H 0.16166 0.81316 0.19511 0.0
H375 H 0.90669 0.27809 0.36655 0.0
H376 H 0.02037 0.37435 0.23599 0.0
N377 N 0.26202 0.64229 0.21663 0.0
C378 C 0.17082 0.60329 0.22064 0.0
C379 C 0.16375 0.75461 0.20358 0.0
C380 C 0.07218 0.63929 0.21704 0.0
C381 C 0.25979 0.71674 0.20686 0.0
C382 C 0.06969 0.716 0.20944 0.0
N383 N 0.27143 0.49233 0.22659 0.0
C384 C 0.27924 0.41692 0.22819 0.0
C385 C 0.08234 0.48456 0.22738 0.0
C386 C 0.1757 0.52646 0.22536 0.0
C387 C 0.09013 0.40771 0.23266 0.0
C388 C 0.18876 0.37387 0.2339 0.0
H389 H 0.99554 0.74551 0.20631 0.0
H390 H 0.90297 0.6242 0.21653 0.0
H391 H 0.91196 0.48874 0.22576 0.0
O392 O 0.46852 0.5211 0.14715 0.0
O393 O 0.35388 0.5251 0.2914 0.0
O394 O 0.50444 0.47227 0.31794 0.0
O395 O 0.34381 0.60171 0.14807 0.0
O396 O 0.52931 0.47192 0.22509 0.0
O397 O 0.68481 0.50739 0.26241 0.0
O398 O 0.67279 0.6119 0.40428 0.0
O399 O 0.65438 0.65566 0.28817 0.0
O400 O 0.56817 0.64457 0.2118 0.0
O401 O 0.57829 0.51263 0.4073 0.0
O402 O 0.48467 0.6378 0.33901 0.0
O403 O 0.4465 0.67444 0.25881 0.0
C404 C 0.40542 0.48596 0.32462 0.0
C405 C 0.44448 0.59766 0.07628 0.0
C406 C 0.41456 0.63726 0.99142 0.0
C407 C 0.50955 0.67678 0.99257 0.0
C408 C 0.53898 0.63777 0.07715 0.0
C409 C 0.57138 0.67696 0.0353 0.0
C410 C 0.38262 0.59745 0.03327 0.0
C411 C 0.6328 0.47535 0.2259 0.0
C412 C 0.40397 0.56087 0.12072 0.0
C413 C 0.97922 0.59747 0.21917 0.0
C414 C 0.98431 0.5203 0.22422 0.0
C415 C 0.64423 0.67128 0.24096 0.0
C416 C 0.69655 0.53364 0.47361 0.0
C417 C 0.75341 0.54089 0.55943 0.0
C418 C 0.8191 0.47927 0.55209 0.0
C419 C 0.76143 0.47113 0.46742 0.0
C420 C 0.69318 0.56874 0.51994 0.0
C421 C 0.82333 0.44478 0.50614 0.0
C422 C 0.43829 0.6826 0.30663 0.0
C423 C 0.63078 0.56171 0.43264 0.0
H424 H 0.53629 0.7067 0.96024 0.0
H425 H 0.58694 0.63937 0.11018 0.0
H426 H 0.6445 0.70761 0.03598 0.0
H427 H 0.30954 0.56653 0.0324 0.0
H428 H 0.86609 0.45736 0.58206 0.0
H429 H 0.76352 0.44172 0.43314 0.0
H430 H 0.64185 0.61613 0.52567 0.0
H431 H 0.87332 0.39672 0.50072 0.0
loop_
_geom_bond_atom_site_label_1
_geom_bond_atom_site_label_2
_geom_bond_distance
_geom_bond_site_symmetry_2
_ccdc_geom_bond_type
H0 C5 0.930 . S
H1 C8 0.930 . S
H2 C10 0.930 . S
H3 C4 1.016 . S
C4 H3 1.016 . S
C4 N11 1.286 . S
C5 H0 0.930 . S
C5 C6 1.397 . S
C5 C7 1.361 . S
C6 C5 1.397 . S
C6 C10 1.390 . S
C7 C5 1.361 . S
C7 C8 1.393 . S
C7 N11 1.413 . S
C8 H1 0.930 . S
C8 C7 1.393 . S
C8 C9 1.399 . S
C9 C8 1.399 . S
C9 C10 1.381 . S
C10 H2 0.930 . S
C10 C6 1.390 . S
C10 C9 1.381 . S
N11 C4 1.286 . S
N11 C7 1.413 . S
H12 C17 0.930 . S
H13 C20 0.930 . S
H14 C22 0.930 . S
H15 C16 1.016 . S
C16 H15 1.016 . S
C16 N23 1.286 . S
C17 H12 0.930 . S
C17 C18 1.397 . S
C17 C19 1.361 . S
C18 C17 1.397 . S
C18 C22 1.390 . S
C19 C17 1.361 . S
C19 C20 1.393 . S
C19 N23 1.413 . S
C20 H13 0.930 . S
C20 C19 1.393 . S
C20 C21 1.399 . S
C21 C20 1.399 . S
C21 C22 1.381 . S
C22 H14 0.930 . S
C22 C18 1.390 . S
C22 C21 1.381 . S
N23 C16 1.286 . S
N23 C19 1.413 . S
H24 C29 0.930 . S
H25 C32 0.930 . S
H26 C34 0.930 . S
H27 C28 1.016 . S
C28 H27 1.016 . S
C28 N35 1.286 . S
C29 H24 0.930 . S
C29 C30 1.397 . S
C29 C31 1.361 . S
C30 C29 1.397 . S
C30 C34 1.390 . S
C31 C29 1.361 . S
C31 C32 1.393 . S
C31 N35 1.413 . S
C32 H25 0.930 . S
C32 C31 1.393 . S
C32 C33 1.399 . S
C33 C32 1.399 . S
C33 C34 1.381 . S
C34 H26 0.930 . S
C34 C30 1.390 . S
C34 C33 1.381 . S
N35 C28 1.286 . S
N35 C31 1.413 . S
H36 C41 0.930 . S
H37 C44 0.930 . S
H38 C46 0.930 . S
H39 C40 1.016 . S
C40 H39 1.016 . S
C40 N47 1.286 . S
C41 H36 0.930 . S
C41 C42 1.397 . S
C41 C43 1.361 . S
C42 C41 1.397 . S
C42 C46 1.390 . S
C43 C41 1.361 . S
C43 C44 1.393 . S
C43 N47 1.413 . S
C44 H37 0.930 . S
C44 C43 1.393 . S
C44 C45 1.399 . S
C45 C44 1.399 . S
C45 C46 1.381 . S
C46 H38 0.930 . S
C46 C42 1.390 . S
C46 C45 1.381 . S
N47 C40 1.286 . S
N47 C43 1.413 . S
H48 C53 0.930 . S
H49 C56 0.930 . S
H50 C58 0.930 . S
H51 C52 1.016 . S
C52 H51 1.016 . S
C52 N59 1.286 . S
C53 H48 0.930 . S
C53 C54 1.397 . S
C53 C55 1.361 . S
C54 C53 1.397 . S
C54 C58 1.390 . S
C55 C53 1.361 . S
C55 C56 1.393 . S
C55 N59 1.413 . S
C56 H49 0.930 . S
C56 C55 1.393 . S
C56 C57 1.399 . S
C57 C56 1.399 . S
C57 C58 1.381 . S
C58 H50 0.930 . S
C58 C54 1.390 . S
C58 C57 1.381 . S
N59 C52 1.286 . S
N59 C55 1.413 . S
H60 C65 0.930 . S
H61 C68 0.930 . S
H62 C70 0.930 . S
H63 C64 1.016 . S
C64 H63 1.016 . S
C64 N71 1.286 . S
C65 H60 0.930 . S
C65 C66 1.397 . S
C65 C67 1.361 . S
C66 C65 1.397 . S
C66 C70 1.390 . S
C67 C65 1.361 . S
C67 C68 1.393 . S
C67 N71 1.413 . S
C68 H61 0.930 . S
C68 C67 1.393 . S
C68 C69 1.399 . S
C69 C68 1.399 . S
C69 C70 1.381 . S
C70 H62 0.930 . S
C70 C66 1.390 . S
C70 C69 1.381 . S
N71 C64 1.286 . S
N71 C67 1.413 . S
H72 C77 0.930 . S
H73 C80 0.930 . S
H74 C82 0.930 . S
H75 C76 1.016 . S
C76 H75 1.016 . S
C76 N83 1.286 . S
C77 H72 0.930 . S
C77 C78 1.397 . S
C77 C79 1.361 . S
C78 C77 1.397 . S
C78 C82 1.390 . S
C79 C77 1.361 . S
C79 C80 1.393 . S
C79 N83 1.413 . S
C80 H73 0.930 . S
C80 C79 1.393 . S
C80 C81 1.399 . S
C81 C80 1.399 . S
C81 C82 1.381 . S
C82 H74 0.930 . S
C82 C78 1.390 . S
C82 C81 1.381 . S
N83 C76 1.286 . S
N83 C79 1.413 . S
H84 C89 0.930 . S
H85 C92 0.930 . S
H86 C94 0.930 . S
H87 C88 1.016 . S
C88 H87 1.016 . S
C88 N95 1.286 . S
C89 H84 0.930 . S
C89 C90 1.397 . S
C89 C91 1.361 . S
C90 C89 1.397 . S
C90 C94 1.390 . S
C91 C89 1.361 . S
C91 C92 1.393 . S
C91 N95 1.413 . S
C92 H85 0.930 . S
C92 C91 1.393 . S
C92 C93 1.399 . S
C93 C92 1.399 . S
C93 C94 1.381 . S
C94 H86 0.930 . S
C94 C90 1.390 . S
C94 C93 1.381 . S
N95 C88 1.286 . S
N95 C91 1.413 . S
Eu96 N125 2.600 . S
Eu96 N131 2.562 . S
Eu96 O140 2.462 . S
Eu96 O141 2.373 . S
Eu96 O143 2.432 . S
Eu96 O144 2.291 1_455 S
Eu96 O148 2.335 1_445 S
Eu96 O151 2.372 1_545 S
Eu96 C160 2.787 . S
C97 N98 1.365 . S
C97 C100 1.405 . S
C97 C104 1.448 1_545 S
N98 C97 1.365 . S
N98 C101 1.319 . S
N98 Eu107 2.600 . S
C99 C101 1.397 . S
C99 C102 1.367 . S
C99 H119 0.931 . S
C100 C97 1.405 . S
C100 C102 1.403 . S
C100 C106 1.439 1_545 S
C101 N98 1.319 . S
C101 C99 1.397 . S
C101 H112 0.930 . S
C102 C99 1.367 . S
C102 C100 1.403 . S
C102 H123 0.929 . S
C103 C104 1.430 . S
C103 C105 1.387 . S
C103 C109 1.404 . S
C104 C97 1.448 1_565 S
C104 C103 1.430 . S
C104 N108 1.351 . S
C105 C103 1.387 . S
C105 C106 1.374 . S
C105 H120 0.931 . S
C106 C100 1.439 1_565 S
C106 C105 1.374 . S
C106 H121 0.931 . S
Eu107 N98 2.600 . S
Eu107 N108 2.562 1_545 S
Eu107 O142 2.335 1_655 S
Eu107 O145 2.372 . S
Eu107 O146 2.462 . S
Eu107 O147 2.373 . S
Eu107 O149 2.432 . S
Eu107 O150 2.291 1_645 S
Eu107 C171 2.787 . S
N108 C104 1.351 . S
N108 Eu107 2.562 1_565 S
N108 C110 1.325 . S
C109 C103 1.404 . S
C109 C111 1.366 . S
C109 H117 0.930 . S
C110 N108 1.325 . S
C110 C111 1.416 . S
C110 H116 0.929 . S
C111 C109 1.366 . S
C111 C110 1.416 . S
C111 H113 0.930 . S
H112 C101 0.930 . S
H113 C111 0.930 . S
H114 C129 0.930 1_565 S
H115 C136 0.930 . S
H116 C110 0.929 . S
H117 C109 0.930 . S
H118 C132 0.929 . S
H119 C99 0.931 . S
H120 C105 0.931 . S
H121 C106 0.931 . S
H122 C127 0.931 1_565 S
H123 C102 0.929 . S
H124 C135 0.930 . S
N125 Eu96 2.600 . S
N125 C126 1.365 . S
N125 C129 1.319 . S
C126 N125 1.365 . S
C126 C128 1.405 . S
C126 C134 1.448 . S
C127 H122 0.931 1_545 S
C127 C129 1.397 . S
C127 C130 1.367 . S
C128 C126 1.405 . S
C128 C130 1.403 . S
C128 C161 1.439 . S
C129 H114 0.930 1_545 S
C129 N125 1.319 . S
C129 C127 1.397 . S
C130 C127 1.367 . S
C130 C128 1.403 . S
C130 H137 0.929 . S
N131 Eu96 2.562 . S
N131 C132 1.325 . S
N131 C134 1.351 . S
C132 H118 0.929 . S
C132 N131 1.325 . S
C132 C136 1.416 . S
C133 C134 1.430 . S
C133 C135 1.404 . S
C133 C162 1.387 . S
C134 C126 1.448 . S
C134 N131 1.351 . S
C134 C133 1.430 . S
C135 H124 0.930 . S
C135 C133 1.404 . S
C135 C136 1.366 . S
C136 H115 0.930 . S
C136 C132 1.416 . S
C136 C135 1.366 . S
H137 C130 0.929 . S
H138 C161 0.931 . S
H139 C162 0.931 . S
O140 Eu96 2.462 . S
O140 C160 1.252 . S
O141 Eu96 2.373 . S
O141 C152 1.249 . S
O142 Eu107 2.335 1_455 S
O142 C152 1.264 . S
O143 Eu96 2.432 . S
O143 C160 1.268 . S
O144 Eu96 2.291 1_655 S
O144 C159 1.255 . S
O145 Eu107 2.372 . S
O145 C159 1.257 . S
O146 Eu107 2.462 . S
O146 C171 1.252 . S
O147 Eu107 2.373 . S
O147 C163 1.249 1_545 S
O148 Eu96 2.335 1_665 S
O148 C163 1.264 . S
O149 Eu107 2.432 . S
O149 C171 1.268 . S
O150 Eu107 2.291 1_465 S
O150 C170 1.255 . S
O151 Eu96 2.372 1_565 S
O151 C170 1.257 . S
C152 O141 1.249 . S
C152 O142 1.264 . S
C153 C156 1.382 1_545 S
C153 C158 1.390 . S
C153 C160 1.506 . S
C154 C155 1.398 1_545 S
C154 C158 1.392 1_556 S
C155 C154 1.398 1_565 S
C155 C157 1.380 . S
C155 H172 0.931 . S
C156 C153 1.382 1_565 S
C156 C157 1.379 1_554 S
C156 H173 0.931 . S
C157 C155 1.380 . S
C157 C156 1.379 1_556 S
C157 H174 0.932 . S
C158 C153 1.390 . S
C158 C154 1.392 1_554 S
C158 H175 0.930 . S
C159 O144 1.255 . S
C159 O145 1.257 . S
C160 Eu96 2.787 . S
C160 O140 1.252 . S
C160 O143 1.268 . S
C160 C153 1.506 . S
C161 C128 1.439 . S
C161 H138 0.931 . S
C161 C162 1.374 . S
C162 C133 1.387 . S
C162 H139 0.931 . S
C162 C161 1.374 . S
C163 O147 1.249 1_565 S
C163 O148 1.264 . S
C164 C167 1.382 . S
C164 C168 1.390 . S
C164 C171 1.506 . S
C165 C166 1.398 . S
C165 C168 1.392 . S
C166 C165 1.398 . S
C166 C169 1.372 . S
C166 H176 0.931 . S
C167 C164 1.382 . S
C167 C169 1.390 . S
C167 H177 0.931 . S
C168 C164 1.390 . S
C168 C165 1.392 . S
C168 H178 0.930 . S
C169 C166 1.372 . S
C169 C167 1.390 . S
C169 H179 0.929 . S
C170 O150 1.255 . S
C170 O151 1.257 . S
C171 Eu107 2.787 . S
C171 O146 1.252 . S
C171 O149 1.268 . S
C171 C164 1.506 . S
H172 C155 0.931 . S
H173 C156 0.931 . S
H174 C157 0.932 . S
H175 C158 0.930 . S
H176 C166 0.931 . S
H177 C167 0.931 . S
H178 C168 0.930 . S
H179 C169 0.929 . S
Eu180 N209 2.600 . S
Eu180 N215 2.562 . S
Eu180 O224 2.462 . S
Eu180 O225 2.373 . S
Eu180 O227 2.432 . S
Eu180 O228 2.291 . S
Eu180 O232 2.335 . S
Eu180 O235 2.372 . S
Eu180 C244 2.787 . S
C181 N182 1.365 . S
C181 C184 1.405 . S
C181 C188 1.448 . S
N182 C181 1.365 . S
N182 C185 1.319 . S
N182 Eu191 2.600 . S
C183 C185 1.397 . S
C183 C186 1.367 1_655 S
C183 H203 0.931 1_655 S
C184 C181 1.405 . S
C184 C186 1.403 1_655 S
C184 C190 1.439 1_655 S
C185 N182 1.319 . S
C185 C183 1.397 . S
C185 H196 0.930 . S
C186 C183 1.367 1_455 S
C186 C184 1.403 1_455 S
C186 H207 0.929 . S
C187 C188 1.430 . S
C187 C189 1.387 . S
C187 C193 1.404 . S
C188 C181 1.448 . S
C188 C187 1.430 . S
C188 N192 1.351 . S
C189 C187 1.387 . S
C189 C190 1.374 1_655 S
C189 H204 0.931 1_655 S
C190 C184 1.439 1_455 S
C190 C189 1.374 1_455 S
C190 H205 0.931 . S
Eu191 N182 2.600 . S
Eu191 N192 2.562 . S
Eu191 O226 2.335 . S
Eu191 O229 2.372 . S
Eu191 O230 2.462 . S
Eu191 O231 2.373 . S
Eu191 O233 2.432 . S
Eu191 O234 2.291 . S
Eu191 C255 2.787 . S
N192 C188 1.351 . S
N192 Eu191 2.562 . S
N192 C194 1.325 . S
C193 C187 1.404 . S
C193 C195 1.366 . S
C193 H201 0.930 . S
C194 N192 1.325 . S
C194 C195 1.416 . S
C194 H200 0.929 . S
C195 C193 1.366 . S
C195 C194 1.416 . S
C195 H197 0.930 . S
H196 C185 0.930 . S
H197 C195 0.930 . S
H198 C213 0.930 . S
H199 C220 0.930 . S
H200 C194 0.929 . S
H201 C193 0.930 . S
H202 C216 0.929 . S
H203 C183 0.931 1_455 S
H204 C189 0.931 1_455 S
H205 C190 0.931 . S
H206 C211 0.931 . S
H207 C186 0.929 . S
H208 C219 0.930 . S
N209 Eu180 2.600 . S
N209 C210 1.365 . S
N209 C213 1.319 . S
C210 N209 1.365 . S
C210 C212 1.405 . S
C210 C218 1.448 . S
C211 H206 0.931 . S
C211 C213 1.397 . S
C211 C214 1.367 1_455 S
C212 C210 1.405 . S
C212 C214 1.403 1_455 S
C212 C245 1.439 1_455 S
C213 H198 0.930 . S
C213 N209 1.319 . S
C213 C211 1.397 . S
C214 C211 1.367 1_655 S
C214 C212 1.403 1_655 S
C214 H221 0.929 . S
N215 Eu180 2.562 . S
N215 C216 1.325 . S
N215 C218 1.351 . S
C216 H202 0.929 . S
C216 N215 1.325 . S
C216 C220 1.416 . S
C217 C218 1.430 . S
C217 C219 1.404 . S
C217 C246 1.387 . S
C218 C210 1.448 . S
C218 N215 1.351 . S
C218 C217 1.430 . S
C219 H208 0.930 . S
C219 C217 1.404 . S
C219 C220 1.366 . S
C220 H199 0.930 . S
C220 C216 1.416 . S
C220 C219 1.366 . S
H221 C214 0.929 . S
H222 C245 0.931 . S
H223 C246 0.931 1_655 S
O224 Eu180 2.462 . S
O224 C244 1.252 . S
O225 Eu180 2.373 . S
O225 C236 1.249 . S
O226 Eu191 2.335 . S
O226 C236 1.264 . S
O227 Eu180 2.432 . S
O227 C244 1.268 . S
O228 Eu180 2.291 . S
O228 C243 1.255 . S
O229 Eu191 2.372 . S
O229 C243 1.257 . S
O230 Eu191 2.462 . S
O230 C255 1.252 . S
O231 Eu191 2.373 . S
O231 C247 1.249 . S
O232 Eu180 2.335 . S
O232 C247 1.264 . S
O233 Eu191 2.432 . S
O233 C255 1.268 . S
O234 Eu191 2.291 . S
O234 C254 1.255 . S
O235 Eu180 2.372 . S
O235 C254 1.257 . S
C236 O225 1.249 . S
C236 O226 1.264 . S
C237 C240 1.382 . S
C237 C242 1.390 . S
C237 C244 1.506 . S
C238 C239 1.398 . S
C238 C242 1.392 . S
C239 C238 1.398 . S
C239 C241 1.372 . S
C239 H256 0.931 . S
C240 C237 1.382 . S
C240 C241 1.390 . S
C240 H257 0.931 . S
C241 C239 1.372 . S
C241 C240 1.390 . S
C241 H258 0.929 . S
C242 C237 1.390 . S
C242 C238 1.392 . S
C242 H259 0.930 . S
C243 O228 1.255 . S
C243 O229 1.257 . S
C244 Eu180 2.787 . S
C244 O224 1.252 . S
C244 O227 1.268 . S
C244 C237 1.506 . S
C245 C212 1.439 1_655 S
C245 H222 0.931 . S
C245 C246 1.374 1_655 S
C246 C217 1.387 . S
C246 H223 0.931 1_455 S
C246 C245 1.374 1_455 S
C247 O231 1.249 . S
C247 O232 1.264 . S
C248 C251 1.382 . S
C248 C252 1.390 . S
C248 C255 1.506 . S
C249 C250 1.398 . S
C249 C252 1.392 1_554 S
C250 C249 1.398 . S
C250 C253 1.372 . S
C250 H260 0.931 . S
C251 C248 1.382 . S
C251 C253 1.390 1_556 S
C251 H261 0.931 . S
C252 C248 1.390 . S
C252 C249 1.392 1_556 S
C252 H262 0.930 . S
C253 C250 1.372 . S
C253 C251 1.390 1_554 S
C253 H263 0.929 . S
C254 O234 1.255 . S
C254 O235 1.257 . S
C255 Eu191 2.787 . S
C255 O230 1.252 . S
C255 O233 1.268 . S
C255 C248 1.506 . S
H256 C239 0.931 . S
H257 C240 0.931 . S
H258 C241 0.929 . S
H259 C242 0.930 . S
H260 C250 0.931 . S
H261 C251 0.931 . S
H262 C252 0.930 . S
H263 C253 0.929 . S
Eu264 N293 2.600 . S
Eu264 N299 2.562 1_565 S
Eu264 O308 2.462 . S
Eu264 O309 2.373 . S
Eu264 O311 2.432 . S
Eu264 O312 2.291 1_465 S
Eu264 O316 2.335 1_455 S
Eu264 O319 2.372 . S
Eu264 C328 2.787 . S
C265 N266 1.365 . S
C265 C268 1.405 . S
C265 C272 1.448 . S
N266 C265 1.365 . S
N266 C269 1.319 . S
N266 Eu275 2.600 . S
C267 C269 1.397 . S
C267 C270 1.367 . S
C267 H287 0.931 1_565 S
C268 C265 1.405 . S
C268 C270 1.403 . S
C268 C274 1.439 . S
C269 N266 1.319 . S
C269 C267 1.397 . S
C269 H280 0.930 1_565 S
C270 C267 1.367 . S
C270 C268 1.403 . S
C270 H291 0.929 . S
C271 C272 1.430 . S
C271 C273 1.387 . S
C271 C277 1.404 . S
C272 C265 1.448 . S
C272 C271 1.430 . S
C272 N276 1.351 . S
C273 C271 1.387 . S
C273 C274 1.374 . S
C273 H288 0.931 . S
C274 C268 1.439 . S
C274 C273 1.374 . S
C274 H289 0.931 . S
Eu275 N266 2.600 . S
Eu275 N276 2.562 . S
Eu275 O310 2.335 1_665 S
Eu275 O313 2.372 1_565 S
Eu275 O314 2.462 . S
Eu275 O315 2.373 . S
Eu275 O317 2.432 . S
Eu275 O318 2.291 1_655 S
Eu275 C339 2.787 . S
N276 C272 1.351 . S
N276 Eu275 2.562 . S
N276 C278 1.325 . S
C277 C271 1.404 . S
C277 C279 1.366 . S
C277 H285 0.930 . S
C278 N276 1.325 . S
C278 C279 1.416 . S
C278 H284 0.929 . S
C279 C277 1.366 . S
C279 C278 1.416 . S
C279 H281 0.930 . S
H280 C269 0.930 1_545 S
H281 C279 0.930 . S
H282 C297 0.930 . S
H283 C304 0.930 . S
H284 C278 0.929 . S
H285 C277 0.930 . S
H286 C300 0.929 . S
H287 C267 0.931 1_545 S
H288 C273 0.931 . S
H289 C274 0.931 . S
H290 C295 0.931 . S
H291 C270 0.929 . S
H292 C303 0.930 . S
N293 Eu264 2.600 . S
N293 C294 1.365 . S
N293 C297 1.319 . S
C294 N293 1.365 . S
C294 C296 1.405 . S
C294 C302 1.448 1_565 S
C295 H290 0.931 . S
C295 C297 1.397 . S
C295 C298 1.367 . S
C296 C294 1.405 . S
C296 C298 1.403 . S
C296 C329 1.439 1_565 S
C297 H282 0.930 . S
C297 N293 1.319 . S
C297 C295 1.397 . S
C298 C295 1.367 . S
C298 C296 1.403 . S
C298 H305 0.929 . S
N299 Eu264 2.562 1_545 S
N299 C300 1.325 . S
N299 C302 1.351 . S
C300 H286 0.929 . S
C300 N299 1.325 . S
C300 C304 1.416 . S
C301 C302 1.430 . S
C301 C303 1.404 . S
C301 C330 1.387 . S
C302 C294 1.448 1_545 S
C302 N299 1.351 . S
C302 C301 1.430 . S
C303 H292 0.930 . S
C303 C301 1.404 . S
C303 C304 1.366 . S
C304 H283 0.930 . S
C304 C300 1.416 . S
C304 C303 1.366 . S
H305 C298 0.929 . S
H306 C329 0.931 . S
H307 C330 0.931 . S
O308 Eu264 2.462 . S
O308 C328 1.252 . S
O309 Eu264 2.373 . S
O309 C320 1.249 1_565 S
O310 Eu275 2.335 1_445 S
O310 C320 1.264 . S
O311 Eu264 2.432 . S
O311 C328 1.268 . S
O312 Eu264 2.291 1_645 S
O312 C327 1.255 . S
O313 Eu275 2.372 1_545 S
O313 C327 1.257 . S
O314 Eu275 2.462 . S
O314 C339 1.252 . S
O315 Eu275 2.373 . S
O315 C331 1.249 . S
O316 Eu264 2.335 1_655 S
O316 C331 1.264 . S
O317 Eu275 2.432 . S
O317 C339 1.268 . S
O318 Eu275 2.291 1_455 S
O318 C338 1.255 . S
O319 Eu264 2.372 . S
O319 C338 1.257 . S
C320 O309 1.249 1_545 S
C320 O310 1.264 . S
C321 C324 1.382 . S
C321 C326 1.390 . S
C321 C328 1.506 . S
C322 C323 1.398 . S
C322 C326 1.392 . S
C323 C322 1.398 . S
C323 C325 1.372 . S
C323 H340 0.931 . S
C324 C321 1.382 . S
C324 C325 1.390 . S
C324 H341 0.931 . S
C325 C323 1.372 . S
C325 C324 1.390 . S
C325 H342 0.929 . S
C326 C321 1.390 . S
C326 C322 1.392 . S
C326 H343 0.930 . S
C327 O312 1.255 . S
C327 O313 1.257 . S
C328 Eu264 2.787 . S
C328 O308 1.252 . S
C328 O311 1.268 . S
C328 C321 1.506 . S
C329 C296 1.439 1_545 S
C329 H306 0.931 . S
C329 C330 1.374 . S
C330 C301 1.387 . S
C330 H307 0.931 . S
C330 C329 1.374 . S
C331 O315 1.249 . S
C331 O316 1.264 . S
C332 C335 1.382 1_565 S
C332 C336 1.390 . S
C332 C339 1.506 . S
C333 C334 1.398 1_565 S
C333 C336 1.392 1_554 S
C334 C333 1.398 1_545 S
C334 C337 1.380 . S
C334 H344 0.931 . S
C335 C332 1.382 1_545 S
C335 C337 1.379 1_556 S
C335 H345 0.931 . S
C336 C332 1.390 . S
C336 C333 1.392 1_556 S
C336 H346 0.930 . S
C337 C334 1.380 . S
C337 C335 1.379 1_554 S
C337 H347 0.932 . S
C338 O318 1.255 . S
C338 O319 1.257 . S
C339 Eu275 2.787 . S
C339 O314 1.252 . S
C339 O317 1.268 . S
C339 C332 1.506 . S
H340 C323 0.931 . S
H341 C324 0.931 . S
H342 C325 0.929 . S
H343 C326 0.930 . S
H344 C334 0.931 . S
H345 C335 0.931 . S
H346 C336 0.930 . S
H347 C337 0.932 . S
Eu348 N377 2.600 . S
Eu348 N383 2.562 . S
Eu348 O392 2.462 . S
Eu348 O393 2.373 . S
Eu348 O395 2.432 . S
Eu348 O396 2.291 . S
Eu348 O400 2.335 . S
Eu348 O403 2.372 . S
Eu348 C412 2.787 . S
C349 N350 1.365 . S
C349 C352 1.405 . S
C349 C356 1.448 . S
N350 C349 1.365 . S
N350 C353 1.319 . S
N350 Eu359 2.600 . S
C351 C353 1.397 . S
C351 C354 1.367 1_655 S
C351 H371 0.931 1_655 S
C352 C349 1.405 . S
C352 C354 1.403 1_655 S
C352 C358 1.439 1_655 S
C353 N350 1.319 . S
C353 C351 1.397 . S
C353 H364 0.930 . S
C354 C351 1.367 1_455 S
C354 C352 1.403 1_455 S
C354 H375 0.929 . S
C355 C356 1.430 . S
C355 C357 1.387 . S
C355 C361 1.404 . S
C356 C349 1.448 . S
C356 C355 1.430 . S
C356 N360 1.351 . S
C357 C355 1.387 . S
C357 C358 1.374 1_655 S
C357 H372 0.931 1_655 S
C358 C352 1.439 1_455 S
C358 C357 1.374 1_455 S
C358 H373 0.931 . S
Eu359 N350 2.600 . S
Eu359 N360 2.562 . S
Eu359 O394 2.335 . S
Eu359 O397 2.372 . S
Eu359 O398 2.462 . S
Eu359 O399 2.373 . S
Eu359 O401 2.432 . S
Eu359 O402 2.291 . S
Eu359 C423 2.787 . S
N360 C356 1.351 . S
N360 Eu359 2.562 . S
N360 C362 1.325 . S
C361 C355 1.404 . S
C361 C363 1.366 . S
C361 H369 0.930 . S
C362 N360 1.325 . S
C362 C363 1.416 . S
C362 H368 0.929 . S
C363 C361 1.366 . S
C363 C362 1.416 . S
C363 H365 0.930 . S
H364 C353 0.930 . S
H365 C363 0.930 . S
H366 C381 0.930 . S
H367 C388 0.930 . S
H368 C362 0.929 . S
H369 C361 0.930 . S
H370 C384 0.929 . S
H371 C351 0.931 1_455 S
H372 C357 0.931 1_455 S
H373 C358 0.931 . S
H374 C379 0.931 1_655 S
H375 C354 0.929 . S
H376 C387 0.930 . S
N377 Eu348 2.600 . S
N377 C378 1.365 . S
N377 C381 1.319 . S
C378 N377 1.365 . S
C378 C380 1.405 . S
C378 C386 1.448 . S
C379 H374 0.931 1_455 S
C379 C381 1.397 . S
C379 C382 1.367 1_455 S
C380 C378 1.405 . S
C380 C382 1.403 1_455 S
C380 C413 1.439 1_455 S
C381 H366 0.930 . S
C381 N377 1.319 . S
C381 C379 1.397 . S
C382 C379 1.367 1_655 S
C382 C380 1.403 1_655 S
C382 H389 0.929 . S
N383 Eu348 2.562 . S
N383 C384 1.325 . S
N383 C386 1.351 . S
C384 H370 0.929 . S
C384 N383 1.325 . S
C384 C388 1.416 . S
C385 C386 1.430 . S
C385 C387 1.404 . S
C385 C414 1.387 . S
C386 C378 1.448 . S
C386 N383 1.351 . S
C386 C385 1.430 . S
C387 H376 0.930 . S
C387 C385 1.404 . S
C387 C388 1.366 . S
C388 H367 0.930 . S
C388 C384 1.416 . S
C388 C387 1.366 . S
H389 C382 0.929 . S
H390 C413 0.931 . S
H391 C414 0.931 1_655 S
O392 Eu348 2.462 . S
O392 C412 1.252 . S
O393 Eu348 2.373 . S
O393 C404 1.249 . S
O394 Eu359 2.335 . S
O394 C404 1.264 . S
O395 Eu348 2.432 . S
O395 C412 1.268 . S
O396 Eu348 2.291 . S
O396 C411 1.255 . S
O397 Eu359 2.372 . S
O397 C411 1.257 . S
O398 Eu359 2.462 . S
O398 C423 1.252 . S
O399 Eu359 2.373 . S
O399 C415 1.249 . S
O400 Eu348 2.335 . S
O400 C415 1.264 . S
O401 Eu359 2.432 . S
O401 C423 1.268 . S
O402 Eu359 2.291 . S
O402 C422 1.255 . S
O403 Eu348 2.372 . S
O403 C422 1.257 . S
C404 O393 1.249 . S
C404 O394 1.264 . S
C405 C408 1.382 . S
C405 C410 1.390 . S
C405 C412 1.506 . S
C406 C407 1.398 . S
C406 C410 1.392 1_556 S
C407 C406 1.398 . S
C407 C409 1.372 . S
C407 H424 0.931 . S
C408 C405 1.382 . S
C408 C409 1.390 1_554 S
C408 H425 0.931 . S
C409 C407 1.372 . S
C409 C408 1.390 1_556 S
C409 H426 0.929 . S
C410 C405 1.390 . S
C410 C406 1.392 1_554 S
C410 H427 0.930 . S
C411 O396 1.255 . S
C411 O397 1.257 . S
C412 Eu348 2.787 . S
C412 O392 1.252 . S
C412 O395 1.268 . S
C412 C405 1.506 . S
C413 C380 1.439 1_655 S
C413 H390 0.931 . S
C413 C414 1.374 1_655 S
C414 C385 1.387 . S
C414 H391 0.931 1_455 S
C414 C413 1.374 1_455 S
C415 O399 1.249 . S
C415 O400 1.264 . S
C416 C419 1.382 . S
C416 C420 1.390 . S
C416 C423 1.506 . S
C417 C418 1.398 . S
C417 C420 1.392 . S
C418 C417 1.398 . S
C418 C421 1.372 . S
C418 H428 0.931 . S
C419 C416 1.382 . S
C419 C421 1.390 . S
C419 H429 0.931 . S
C420 C416 1.390 . S
C420 C417 1.392 . S
C420 H430 0.930 . S
C421 C418 1.372 . S
C421 C419 1.390 . S
C421 H431 0.929 . S
C422 O402 1.255 . S
C422 O403 1.257 . S
C423 Eu359 2.787 . S
C423 O398 1.252 . S
C423 O401 1.268 . S
C423 C416 1.506 . S
H424 C407 0.931 . S
H425 C408 0.931 . S
H426 C409 0.929 . S
H427 C410 0.930 . S
H428 C418 0.931 . S
H429 C419 0.931 . S
H430 C420 0.930 . S
H431 C421 0.929 . S
C81 C170 1.962 . S
C254 C93 1.962 . S
C247 C57 1.881 . S
C69 C163 1.881 . S
C327 C33 1.943 . S
C411 C45 1.944 . S
C9 C404 1.863 . S
C21 C320 1.864 . S
C154 C18 1.639 . S
C238 C6 1.639 . S
C249 C42 1.323 . S
C165 C30 1.323 . S
C333 C66 1.609 . S
C54 C417 1.609 . S
C406 C90 1.322 . S
C78 C322 1.322 . S
C152 C4 1.545 . S
C236 C16 1.545 . S
C28 C243 1.431 . S
C159 C40 1.431 . S
C331 C52 1.517 . S
C64 C415 1.518 . S
C76 C422 1.412 . S
C88 C338 1.412 . S
