# Generated by pormake.
# Topology bwt, (3,3)-cn, num edge types: 1
# Building blocks:
#     Node 0, Type 0, BuildingBlock: OLANEW_clean_sbu_2, # of connection points: 3
#     Node 1, Type 0, BuildingBlock: OLANEW_clean_sbu_2, # of connection points: 3
#     Node 2, Type 0, BuildingBlock: OLANEW_clean_sbu_2, # of connection points: 3
#     Node 3, Type 0, BuildingBlock: OLANEW_clean_sbu_2, # of connection points: 3
#     Node 4, Type 0, BuildingBlock: OLANEW_clean_sbu_2, # of connection points: 3
#     Node 5, Type 0, BuildingBlock: OLANEW_clean_sbu_2, # of connection points: 3
#     Node 6, Type 0, BuildingBlock: OLANEW_clean_sbu_2, # of connection points: 3
#     Node 7, Type 0, BuildingBlock: OLANEW_clean_sbu_2, # of connection points: 3
#     Node 8, Type 0, BuildingBlock: OLANEW_clean_sbu_2, # of connection points: 3
#     Node 9, Type 0, BuildingBlock: OLANEW_clean_sbu_2, # of connection points: 3
#     Node 10, Type 0, BuildingBlock: OLANEW_clean_sbu_2, # of connection points: 3
#     Node 11, Type 0, BuildingBlock: OLANEW_clean_sbu_2, # of connection points: 3
#     Node 12, Type 0, BuildingBlock: OLANEW_clean_sbu_2, # of connection points: 3
#     Node 13, Type 0, BuildingBlock: OLANEW_clean_sbu_2, # of connection points: 3
#     Node 14, Type 0, BuildingBlock: OLANEW_clean_sbu_2, # of connection points: 3
#     Node 15, Type 0, BuildingBlock: OLANEW_clean_sbu_2, # of connection points: 3
#     Node 16, Type 0, BuildingBlock: OLANEW_clean_sbu_2, # of connection points: 3
#     Node 17, Type 0, BuildingBlock: OLANEW_clean_sbu_2, # of connection points: 3
#     Node 18, Type 0, BuildingBlock: OLANEW_clean_sbu_2, # of connection points: 3
#     Node 19, Type 0, BuildingBlock: OLANEW_clean_sbu_2, # of connection points: 3
#     Node 20, Type 0, BuildingBlock: OLANEW_clean_sbu_2, # of connection points: 3
#     Node 21, Type 0, BuildingBlock: OLANEW_clean_sbu_2, # of connection points: 3
#     Node 22, Type 0, BuildingBlock: OLANEW_clean_sbu_2, # of connection points: 3
#     Node 23, Type 0, BuildingBlock: OLANEW_clean_sbu_2, # of connection points: 3
#     Node 24, Type 1, BuildingBlock: PAMTOO_clean_linker_0, # of connection points: 3
#     Node 25, Type 1, BuildingBlock: PAMTOO_clean_linker_0, # of connection points: 3
#     Node 26, Type 1, BuildingBlock: PAMTOO_clean_linker_0, # of connection points: 3
#     Node 27, Type 1, BuildingBlock: PAMTOO_clean_linker_0, # of connection points: 3
#     Node 28, Type 1, BuildingBlock: PAMTOO_clean_linker_0, # of connection points: 3
#     Node 29, Type 1, BuildingBlock: PAMTOO_clean_linker_0, # of connection points: 3
#     Node 30, Type 1, BuildingBlock: PAMTOO_clean_linker_0, # of connection points: 3
#     Node 31, Type 1, BuildingBlock: PAMTOO_clean_linker_0, # of connection points: 3
#     Node 32, Type 1, BuildingBlock: PAMTOO_clean_linker_0, # of connection points: 3
#     Node 33, Type 1, BuildingBlock: PAMTOO_clean_linker_0, # of connection points: 3
#     Node 34, Type 1, BuildingBlock: PAMTOO_clean_linker_0, # of connection points: 3
#     Node 35, Type 1, BuildingBlock: PAMTOO_clean_linker_0, # of connection points: 3
#     Node 36, Type 1, BuildingBlock: PAMTOO_clean_linker_0, # of connection points: 3
#     Node 37, Type 1, BuildingBlock: PAMTOO_clean_linker_0, # of connection points: 3
#     Node 38, Type 1, BuildingBlock: PAMTOO_clean_linker_0, # of connection points: 3
#     Node 39, Type 1, BuildingBlock: PAMTOO_clean_linker_0, # of connection points: 3
#     Node 40, Type 1, BuildingBlock: PAMTOO_clean_linker_0, # of connection points: 3
#     Node 41, Type 1, BuildingBlock: PAMTOO_clean_linker_0, # of connection points: 3
#     Node 42, Type 1, BuildingBlock: PAMTOO_clean_linker_0, # of connection points: 3
#     Node 43, Type 1, BuildingBlock: PAMTOO_clean_linker_0, # of connection points: 3
#     Node 44, Type 1, BuildingBlock: PAMTOO_clean_linker_0, # of connection points: 3
#     Node 45, Type 1, BuildingBlock: PAMTOO_clean_linker_0, # of connection points: 3
#     Node 46, Type 1, BuildingBlock: PAMTOO_clean_linker_0, # of connection points: 3
#     Node 47, Type 1, BuildingBlock: PAMTOO_clean_linker_0, # of connection points: 3
#     Edge 48, Type (0, 1), BuildingBlock: OJICUG_clean_linker_0, # of connection points: 2
#     Edge 49, Type (0, 1), BuildingBlock: OJICUG_clean_linker_0, # of connection points: 2
#     Edge 50, Type (0, 1), BuildingBlock: OJICUG_clean_linker_0, # of connection points: 2
#     Edge 51, Type (0, 1), BuildingBlock: OJICUG_clean_linker_0, # of connection points: 2
#     Edge 52, Type (0, 1), BuildingBlock: OJICUG_clean_linker_0, # of connection points: 2
#     Edge 53, Type (0, 1), BuildingBlock: OJICUG_clean_linker_0, # of connection points: 2
#     Edge 54, Type (0, 1), BuildingBlock: OJICUG_clean_linker_0, # of connection points: 2
#     Edge 55, Type (0, 1), BuildingBlock: OJICUG_clean_linker_0, # of connection points: 2
#     Edge 56, Type (0, 1), BuildingBlock: OJICUG_clean_linker_0, # of connection points: 2
#     Edge 57, Type (0, 1), BuildingBlock: OJICUG_clean_linker_0, # of connection points: 2
#     Edge 58, Type (0, 1), BuildingBlock: OJICUG_clean_linker_0, # of connection points: 2
#     Edge 59, Type (0, 1), BuildingBlock: OJICUG_clean_linker_0, # of connection points: 2
#     Edge 60, Type (0, 1), BuildingBlock: OJICUG_clean_linker_0, # of connection points: 2
#     Edge 61, Type (0, 1), BuildingBlock: OJICUG_clean_linker_0, # of connection points: 2
#     Edge 62, Type (0, 1), BuildingBlock: OJICUG_clean_linker_0, # of connection points: 2
#     Edge 63, Type (0, 1), BuildingBlock: OJICUG_clean_linker_0, # of connection points: 2
#     Edge 64, Type (0, 1), BuildingBlock: OJICUG_clean_linker_0, # of connection points: 2
#     Edge 65, Type (0, 1), BuildingBlock: OJICUG_clean_linker_0, # of connection points: 2
#     Edge 66, Type (0, 1), BuildingBlock: OJICUG_clean_linker_0, # of connection points: 2
#     Edge 67, Type (0, 1), BuildingBlock: OJICUG_clean_linker_0, # of connection points: 2
#     Edge 68, Type (0, 1), BuildingBlock: OJICUG_clean_linker_0, # of connection points: 2
#     Edge 69, Type (0, 1), BuildingBlock: OJICUG_clean_linker_0, # of connection points: 2
#     Edge 70, Type (0, 1), BuildingBlock: OJICUG_clean_linker_0, # of connection points: 2
#     Edge 71, Type (0, 1), BuildingBlock: OJICUG_clean_linker_0, # of connection points: 2
#     Edge 72, Type (0, 1), BuildingBlock: OJICUG_clean_linker_0, # of connection points: 2
#     Edge 73, Type (0, 1), BuildingBlock: OJICUG_clean_linker_0, # of connection points: 2
#     Edge 74, Type (0, 1), BuildingBlock: OJICUG_clean_linker_0, # of connection points: 2
#     Edge 75, Type (0, 1), BuildingBlock: OJICUG_clean_linker_0, # of connection points: 2
#     Edge 76, Type (0, 1), BuildingBlock: OJICUG_clean_linker_0, # of connection points: 2
#     Edge 77, Type (0, 1), BuildingBlock: OJICUG_clean_linker_0, # of connection points: 2
#     Edge 78, Type (0, 1), BuildingBlock: OJICUG_clean_linker_0, # of connection points: 2
#     Edge 79, Type (0, 1), BuildingBlock: OJICUG_clean_linker_0, # of connection points: 2
#     Edge 80, Type (0, 1), BuildingBlock: OJICUG_clean_linker_0, # of connection points: 2
#     Edge 81, Type (0, 1), BuildingBlock: OJICUG_clean_linker_0, # of connection points: 2
#     Edge 82, Type (0, 1), BuildingBlock: OJICUG_clean_linker_0, # of connection points: 2
#     Edge 83, Type (0, 1), BuildingBlock: OJICUG_clean_linker_0, # of connection points: 2
#     Edge 84, Type (0, 1), BuildingBlock: OJICUG_clean_linker_0, # of connection points: 2
#     Edge 85, Type (0, 1), BuildingBlock: OJICUG_clean_linker_0, # of connection points: 2
#     Edge 86, Type (0, 1), BuildingBlock: OJICUG_clean_linker_0, # of connection points: 2
#     Edge 87, Type (0, 1), BuildingBlock: OJICUG_clean_linker_0, # of connection points: 2
#     Edge 88, Type (0, 1), BuildingBlock: OJICUG_clean_linker_0, # of connection points: 2
#     Edge 89, Type (0, 1), BuildingBlock: OJICUG_clean_linker_0, # of connection points: 2
#     Edge 90, Type (0, 1), BuildingBlock: OJICUG_clean_linker_0, # of connection points: 2
#     Edge 91, Type (0, 1), BuildingBlock: OJICUG_clean_linker_0, # of connection points: 2
#     Edge 92, Type (0, 1), BuildingBlock: OJICUG_clean_linker_0, # of connection points: 2
#     Edge 93, Type (0, 1), BuildingBlock: OJICUG_clean_linker_0, # of connection points: 2
#     Edge 94, Type (0, 1), BuildingBlock: OJICUG_clean_linker_0, # of connection points: 2
#     Edge 95, Type (0, 1), BuildingBlock: OJICUG_clean_linker_0, # of connection points: 2
#     Edge 96, Type (0, 1), BuildingBlock: OJICUG_clean_linker_0, # of connection points: 2
#     Edge 97, Type (0, 1), BuildingBlock: OJICUG_clean_linker_0, # of connection points: 2
#     Edge 98, Type (0, 1), BuildingBlock: OJICUG_clean_linker_0, # of connection points: 2
#     Edge 99, Type (0, 1), BuildingBlock: OJICUG_clean_linker_0, # of connection points: 2
#     Edge 100, Type (0, 1), BuildingBlock: OJICUG_clean_linker_0, # of connection points: 2
#     Edge 101, Type (0, 1), BuildingBlock: OJICUG_clean_linker_0, # of connection points: 2
#     Edge 102, Type (0, 1), BuildingBlock: OJICUG_clean_linker_0, # of connection points: 2
#     Edge 103, Type (0, 1), BuildingBlock: OJICUG_clean_linker_0, # of connection points: 2
#     Edge 104, Type (0, 1), BuildingBlock: OJICUG_clean_linker_0, # of connection points: 2
#     Edge 105, Type (0, 1), BuildingBlock: OJICUG_clean_linker_0, # of connection points: 2
#     Edge 106, Type (0, 1), BuildingBlock: OJICUG_clean_linker_0, # of connection points: 2
#     Edge 107, Type (0, 1), BuildingBlock: OJICUG_clean_linker_0, # of connection points: 2
#     Edge 108, Type (0, 1), BuildingBlock: OJICUG_clean_linker_0, # of connection points: 2
#     Edge 109, Type (0, 1), BuildingBlock: OJICUG_clean_linker_0, # of connection points: 2
#     Edge 110, Type (0, 1), BuildingBlock: OJICUG_clean_linker_0, # of connection points: 2
#     Edge 111, Type (0, 1), BuildingBlock: OJICUG_clean_linker_0, # of connection points: 2
#     Edge 112, Type (0, 1), BuildingBlock: OJICUG_clean_linker_0, # of connection points: 2
#     Edge 113, Type (0, 1), BuildingBlock: OJICUG_clean_linker_0, # of connection points: 2
#     Edge 114, Type (0, 1), BuildingBlock: OJICUG_clean_linker_0, # of connection points: 2
#     Edge 115, Type (0, 1), BuildingBlock: OJICUG_clean_linker_0, # of connection points: 2
#     Edge 116, Type (0, 1), BuildingBlock: OJICUG_clean_linker_0, # of connection points: 2
#     Edge 117, Type (0, 1), BuildingBlock: OJICUG_clean_linker_0, # of connection points: 2
#     Edge 118, Type (0, 1), BuildingBlock: OJICUG_clean_linker_0, # of connection points: 2
#     Edge 119, Type (0, 1), BuildingBlock: OJICUG_clean_linker_0, # of connection points: 2
# Relax obj value: 0.053
# Max RMSD: 0.117
# Mean RMSD: 0.060
data_MOF--net-bwt--node1-OLANEW_clean_sbu_2--node2-PAMTOO_clean_linker_0--edge1-OJICUG_clean_linker_0
_symmetry_space_group_name_H-M    P1
_symmetry_Int_Tables_number       1
_symmetry_cell_setting            triclinic
loop_
_symmetry_equiv_pos_as_xyz
'x, y, z'
_cell_length_a     44.439107
_cell_length_b     44.439707
_cell_length_c     44.443249
_cell_angle_alpha  94.096568
_cell_angle_beta   94.095979
_cell_angle_gamma 94.108807
loop_
_atom_site_label
_atom_site_type_symbol
_atom_site_fract_x
_atom_site_fract_y
_atom_site_fract_z
_atom_type_partial_charge
O0 O 0.30198 0.52989 0.38194 0.0
Cd1 Cd 0.31006 0.54251 0.33037 0.0
O2 O 0.30506 0.57782 0.39857 0.0
Cd3 Cd 0.33218 0.58921 0.36131 0.0
O4 O 0.37789 0.58694 0.34645 0.0
C5 C 0.39677 0.57933 0.36686 0.0
O6 O 0.38726 0.57435 0.39352 0.0
C7 C 0.29842 0.55018 0.40273 0.0
C8 C 0.2553 0.56094 0.30626 0.0
O9 O 0.25994 0.53291 0.30734 0.0
O10 O 0.27697 0.5807 0.31563 0.0
O11 O 0.19894 0.43397 0.7919 0.0
Cd12 Cd 0.17842 0.4142 0.74125 0.0
O13 O 0.16455 0.41061 0.81705 0.0
Cd14 Cd 0.13272 0.3972 0.77782 0.0
O15 O 0.08647 0.39073 0.75679 0.0
C16 C 0.07576 0.36642 0.74182 0.0
O17 O 0.09348 0.34436 0.73728 0.0
C18 C 0.18922 0.42692 0.81687 0.0
C19 C 0.22682 0.41874 0.70474 0.0
O20 O 0.20771 0.43901 0.70566 0.0
O21 O 0.22226 0.39567 0.71999 0.0
O22 O 0.73542 0.99803 0.56635 0.0
Cd23 Cd 0.75648 0.00903 0.61886 0.0
O24 O 0.77502 0.97355 0.55522 0.0
Cd25 Cd 0.80029 0.98138 0.59945 0.0
O26 O 0.83829 0.9827 0.63372 0.0
C27 C 0.86242 0.99856 0.62968 0.0
O28 O 0.86298 0.01462 0.606 0.0
C29 C 0.74945 0.98284 0.54722 0.0
C30 C 0.71733 0.03401 0.65861 0.0
O31 O 0.73424 0.05084 0.64342 0.0
O32 O 0.71847 0.00527 0.65456 0.0
O33 O 0.72407 0.9729 0.25 0.0
Cd34 Cd 0.72442 0.95697 0.30155 0.0
O35 O 0.67912 0.99107 0.24477 0.0
Cd36 Cd 0.65901 0.97643 0.28534 0.0
O37 O 0.61508 0.96987 0.30443 0.0
C38 C 0.60326 0.99279 0.31599 0.0
O39 O 0.61903 0.01914 0.3186 0.0
C40 C 0.70455 0.98625 0.23464 0.0
C41 C 0.78242 0.93933 0.31682 0.0
O42 O 0.76073 0.91971 0.30705 0.0
O43 O 0.77648 0.9671 0.32031 0.0
O44 O 0.41185 0.29128 0.63475 0.0
Cd45 Cd 0.35668 0.28353 0.63157 0.0
O46 O 0.4152 0.33556 0.6608 0.0
Cd47 Cd 0.36661 0.34025 0.65423 0.0
O48 O 0.32618 0.35979 0.63551 0.0
C49 C 0.32981 0.37568 0.61317 0.0
O50 O 0.35669 0.37836 0.60262 0.0
C51 C 0.4279 0.31354 0.64864 0.0
C52 C 0.33843 0.22179 0.62868 0.0
O53 O 0.34456 0.23498 0.60489 0.0
O54 O 0.34069 0.23782 0.654 0.0
O55 O 0.23285 0.74663 0.97064 0.0
Cd56 Cd 0.28763 0.7503 0.96595 0.0
O57 O 0.23663 0.7585 0.01968 0.0
Cd58 Cd 0.28189 0.74242 0.02106 0.0
O59 O 0.29595 0.69624 0.01666 0.0
C60 C 0.28436 0.67975 0.99358 0.0
O61 O 0.26732 0.69206 0.97321 0.0
C62 C 0.22043 0.75363 0.99482 0.0
C63 C 0.30653 0.80985 0.95687 0.0
O64 O 0.29577 0.79119 0.93475 0.0
O65 O 0.30904 0.80021 0.98336 0.0
O66 O 0.80355 0.24471 0.37966 0.0
Cd67 Cd 0.75252 0.22112 0.36772 0.0
O68 O 0.81291 0.22576 0.42351 0.0
Cd69 Cd 0.77338 0.19338 0.4163 0.0
O70 O 0.75201 0.1478 0.40568 0.0
C71 C 0.73056 0.14162 0.38522 0.0
O72 O 0.71949 0.16367 0.37082 0.0
C73 C 0.82065 0.24338 0.40365 0.0
C74 C 0.71443 0.26666 0.38015 0.0
O75 O 0.72058 0.24758 0.39958 0.0
O76 O 0.72519 0.26333 0.35423 0.0
O77 O 0.60749 0.72883 0.96372 0.0
Cd78 Cd 0.66071 0.74541 0.97801 0.0
O79 O 0.60764 0.75245 0.92187 0.0
Cd80 Cd 0.65228 0.77525 0.93411 0.0
O81 O 0.67407 0.81499 0.96059 0.0
C82 C 0.66946 0.84054 0.95078 0.0
O83 O 0.65455 0.84133 0.92425 0.0
C84 C 0.5938 0.73566 0.9393 0.0
C85 C 0.69398 0.70137 0.00325 0.0
O86 O 0.67965 0.71945 0.01973 0.0
O87 O 0.69231 0.70387 0.97463 0.0
O88 O 0.56146 0.35412 0.31675 0.0
Cd89 Cd 0.56423 0.30047 0.3249 0.0
O90 O 0.60488 0.36588 0.34328 0.0
Cd91 Cd 0.60213 0.32599 0.36904 0.0
O92 O 0.60079 0.31951 0.4172 0.0
C93 C 0.59264 0.34217 0.43287 0.0
O94 O 0.58429 0.36563 0.41886 0.0
C95 C 0.58352 0.3733 0.32541 0.0
C96 C 0.55588 0.26843 0.26821 0.0
O97 O 0.53389 0.27077 0.28517 0.0
O98 O 0.58204 0.28037 0.27845 0.0
O99 O 0.96642 0.2121 0.70483 0.0
Cd100 Cd 0.94858 0.26273 0.70302 0.0
O101 O 0.99353 0.21073 0.66509 0.0
Cd102 Cd 0.98454 0.25413 0.64742 0.0
O103 O 0.99088 0.28075 0.6084 0.0
C104 C 0.98276 0.26755 0.58244 0.0
O105 O 0.96943 0.24005 0.58083 0.0
C106 C 0.98361 0.19837 0.68774 0.0
C107 C 0.93195 0.28036 0.76078 0.0
O108 O 0.91332 0.26472 0.74139 0.0
O109 O 0.95824 0.28844 0.75265 0.0
O110 O 0.36972 0.78211 0.22563 0.0
Cd111 Cd 0.36285 0.73129 0.20039 0.0
O112 O 0.40959 0.79798 0.20278 0.0
Cd113 Cd 0.40449 0.7609 0.16736 0.0
O114 O 0.40327 0.74357 0.11998 0.0
C115 C 0.38028 0.74761 0.10244 0.0
O116 O 0.35731 0.76016 0.11387 0.0
C117 C 0.39116 0.80206 0.22301 0.0
C118 C 0.3937 0.69565 0.23934 0.0
O119 O 0.40568 0.70484 0.21591 0.0
O120 O 0.3666 0.70206 0.24356 0.0
O121 O 0.94704 0.58655 0.69673 0.0
Cd122 Cd 0.95448 0.64159 0.70738 0.0
O123 O 0.98032 0.57439 0.73203 0.0
Cd124 Cd 0.9926 0.62054 0.75153 0.0
O125 O 0.00502 0.64964 0.79294 0.0
C126 C 0.98451 0.65473 0.81075 0.0
O127 O 0.95648 0.6445 0.80228 0.0
C128 C 0.96057 0.5665 0.71026 0.0
C129 C 0.9924 0.6706 0.66913 0.0
O130 O 0.00212 0.66537 0.69596 0.0
O131 O 0.96492 0.66185 0.6602 0.0
O132 O 0.67536 0.40064 0.61147 0.0
Cd133 Cd 0.67773 0.38955 0.66446 0.0
O134 O 0.6409 0.43382 0.61093 0.0
Cd135 Cd 0.62674 0.42598 0.65568 0.0
O136 O 0.58186 0.4224 0.67233 0.0
C137 C 0.56085 0.41331 0.6521 0.0
O138 O 0.56815 0.40545 0.62465 0.0
C139 C 0.66028 0.41931 0.59754 0.0
C140 C 0.73942 0.39038 0.68109 0.0
O141 O 0.72465 0.36629 0.66875 0.0
O142 O 0.72471 0.4136 0.68699 0.0
O143 O 0.78822 0.63372 0.23948 0.0
Cd144 Cd 0.77574 0.65327 0.28934 0.0
O145 O 0.83686 0.64782 0.24255 0.0
Cd146 Cd 0.88269 0.65004 0.2272 0.0
O147 O 0.93204 0.653 0.22587 0.0
C148 C 0.94789 0.65798 0.25095 0.0
O149 O 0.934 0.66119 0.27599 0.0
C150 C 0.81344 0.63479 0.22766 0.0
C151 C 0.72027 0.62343 0.29879 0.0
O152 O 0.72138 0.64871 0.28657 0.0
O153 O 0.74532 0.61305 0.30761 0.0
O154 O 0.21831 0.02686 0.44309 0.0
Cd155 Cd 0.2109 0.01005 0.38947 0.0
O156 O 0.21334 0.9803 0.4569 0.0
Cd157 Cd 0.18672 0.96477 0.41468 0.0
O158 O 0.14263 0.9565 0.38898 0.0
C159 C 0.12153 0.97137 0.39895 0.0
O160 O 0.12784 0.99063 0.42278 0.0
C161 C 0.22068 0.0083 0.46346 0.0
C162 C 0.26579 0.99062 0.37129 0.0
O163 O 0.25972 0.01826 0.36987 0.0
O164 O 0.24568 0.97214 0.38066 0.0
O165 O 0.26639 0.00627 0.78117 0.0
Cd166 Cd 0.24486 0.00689 0.72908 0.0
O167 O 0.31289 0.01492 0.7685 0.0
Cd168 Cd 0.36179 0.02388 0.77838 0.0
O169 O 0.4092 0.04155 0.78303 0.0
C170 C 0.42855 0.02935 0.76738 0.0
O171 O 0.41984 0.00528 0.74908 0.0
C172 C 0.29465 0.0096 0.78858 0.0
C173 C 0.18424 0.01957 0.7269 0.0
O174 O 0.19207 0.993 0.73153 0.0
O175 O 0.20503 0.04021 0.72321 0.0
O176 O 0.64954 0.71631 0.29997 0.0
Cd177 Cd 0.69447 0.74655 0.28772 0.0
O178 O 0.67439 0.69377 0.33538 0.0
Cd179 Cd 0.67402 0.65879 0.36739 0.0
O180 O 0.67483 0.61375 0.38361 0.0
C181 C 0.65133 0.59539 0.38118 0.0
O182 O 0.62554 0.60444 0.37019 0.0
C183 C 0.64975 0.69788 0.32052 0.0
C184 C 0.6955 0.80498 0.31557 0.0
O185 O 0.68055 0.79774 0.29004 0.0
O186 O 0.71026 0.78469 0.32782 0.0
O187 O 0.75126 0.22897 0.96774 0.0
Cd188 Cd 0.70267 0.20722 0.98185 0.0
O189 O 0.7387 0.2755 0.97626 0.0
Cd190 Cd 0.74908 0.32452 0.98287 0.0
O191 O 0.75635 0.37128 0.00235 0.0
C192 C 0.74522 0.39296 0.98932 0.0
O193 O 0.72971 0.38722 0.96299 0.0
C194 C 0.75782 0.25729 0.96793 0.0
C195 C 0.70938 0.15447 0.01128 0.0
O196 O 0.7085 0.15424 0.98239 0.0
O197 O 0.70694 0.17968 0.02647 0.0
O198 O 0.25137 0.72021 0.6445 0.0
Cd199 Cd 0.29361 0.7011 0.67384 0.0
O200 O 0.2613 0.76916 0.65535 0.0
Cd201 Cd 0.25454 0.81723 0.65126 0.0
O202 O 0.26178 0.8663 0.64813 0.0
C203 C 0.26603 0.88396 0.67211 0.0
O204 O 0.26485 0.87242 0.69845 0.0
C205 C 0.24458 0.74722 0.64169 0.0
C206 C 0.29654 0.64098 0.65202 0.0
O207 O 0.27967 0.64779 0.67331 0.0
O208 O 0.31283 0.66244 0.64193 0.0
O209 O 0.3626 0.29899 0.10079 0.0
Cd210 Cd 0.3154 0.32216 0.10829 0.0
O211 O 0.33935 0.25452 0.08637 0.0
Cd212 Cd 0.33811 0.20714 0.06906 0.0
O213 O 0.33125 0.16136 0.04718 0.0
C214 C 0.33471 0.1384 0.06218 0.0
O215 O 0.34296 0.14247 0.09125 0.0
C216 C 0.36377 0.27131 0.09202 0.0
C217 C 0.30506 0.36352 0.06537 0.0
O218 O 0.32248 0.37092 0.08939 0.0
O219 O 0.2923 0.33658 0.06174 0.0
O220 O 0.36398 0.63604 0.68541 0.0
Cd221 Cd 0.35195 0.68787 0.69727 0.0
O222 O 0.38878 0.64388 0.64542 0.0
Cd223 Cd 0.41523 0.63337 0.60684 0.0
O224 O 0.43938 0.63501 0.5658 0.0
C225 C 0.42592 0.62733 0.5399 0.0
O226 O 0.39732 0.61706 0.53807 0.0
C227 C 0.37883 0.62585 0.66404 0.0
C228 C 0.36928 0.70037 0.75844 0.0
O229 O 0.34299 0.6877 0.74973 0.0
O230 O 0.38678 0.70821 0.73818 0.0
O231 O 0.95586 0.74926 0.22413 0.0
Cd232 Cd 0.96403 0.70365 0.19285 0.0
O233 O 0.98654 0.73717 0.26131 0.0
Cd234 Cd 0.01379 0.73983 0.3048 0.0
O235 O 0.03736 0.73854 0.34963 0.0
C236 C 0.02217 0.73689 0.37273 0.0
O237 O 0.99252 0.73635 0.36911 0.0
C238 C 0.96843 0.75546 0.25066 0.0
C239 C 0.99195 0.71623 0.14041 0.0
O240 O 0.96324 0.71664 0.14149 0.0
O241 O 0.00758 0.70999 0.16422 0.0
O242 O 0.70981 0.25604 0.81968 0.0
Cd243 Cd 0.72431 0.30988 0.81778 0.0
O244 O 0.67714 0.26479 0.85341 0.0
Cd245 Cd 0.64261 0.25153 0.88373 0.0
O246 O 0.61637 0.24768 0.92333 0.0
C247 C 0.63034 0.24334 0.94844 0.0
O248 O 0.6596 0.24043 0.9493 0.0
C249 C 0.68904 0.2463 0.83552 0.0
C250 C 0.69202 0.32738 0.76661 0.0
O251 O 0.71791 0.31666 0.76482 0.0
O252 O 0.68198 0.33109 0.79284 0.0
O253 O 0.03033 0.43173 0.2134 0.0
Cd254 Cd 0.02277 0.37684 0.20516 0.0
O255 O 0.01708 0.44716 0.16866 0.0
Cd256 Cd 0.00423 0.40193 0.14705 0.0
O257 O 0.99138 0.36781 0.1096 0.0
C258 C 0.00876 0.36597 0.08814 0.0
O259 O 0.03408 0.38344 0.09025 0.0
C260 C 0.0269 0.45305 0.19616 0.0
C261 C 0.01238 0.35474 0.26097 0.0
O262 O 0.03917 0.3634 0.25476 0.0
O263 O 0.9906 0.3557 0.24064 0.0
H264 H 0.29323 0.558 0.54111 0.0
H265 H 0.23746 0.47806 0.5081 0.0
H266 H 0.25536 0.49879 0.60375 0.0
H267 H 0.23326 0.42847 0.52905 0.0
C268 C 0.2302 0.43149 0.55368 0.0
O269 O 0.22613 0.46142 0.56195 0.0
H270 H 0.20897 0.41774 0.55698 0.0
C271 C 0.28029 0.53746 0.54561 0.0
C272 C 0.27598 0.53118 0.57565 0.0
C273 C 0.26702 0.51831 0.52105 0.0
C274 C 0.24898 0.49242 0.52675 0.0
C275 C 0.2454 0.48509 0.55656 0.0
C276 C 0.2592 0.50421 0.58089 0.0
H277 H 0.26108 0.41949 0.94267 0.0
H278 H 0.2615 0.51314 0.92365 0.0
H279 H 0.30295 0.48953 0.00765 0.0
H280 H 0.27742 0.54301 0.01738 0.0
C281 C 0.27298 0.54949 0.99384 0.0
O282 O 0.29078 0.53382 0.97499 0.0
H283 H 0.24854 0.5435 0.98704 0.0
C284 C 0.26712 0.44315 0.94955 0.0
C285 C 0.2829 0.45144 0.97786 0.0
C286 C 0.25921 0.46513 0.92979 0.0
C287 C 0.26784 0.49577 0.93827 0.0
C288 C 0.28386 0.50426 0.9662 0.0
C289 C 0.29149 0.48223 0.98575 0.0
H290 H 0.70829 0.9115 0.4201 0.0
H291 H 0.69573 0.0063 0.41551 0.0
H292 H 0.67877 0.94617 0.33563 0.0
H293 H 0.6898 0.01596 0.31718 0.0
C294 C 0.69928 0.01674 0.34103 0.0
O295 O 0.67869 0.00182 0.35773 0.0
H296 H 0.72083 0.00537 0.3406 0.0
C297 C 0.70244 0.93021 0.40706 0.0
C298 C 0.69371 0.92489 0.37592 0.0
C299 C 0.70328 0.95945 0.4217 0.0
C300 C 0.69478 0.9835 0.40489 0.0
C301 C 0.68586 0.97845 0.37401 0.0
C302 C 0.68512 0.94932 0.35969 0.0
H303 H 0.72237 0.05896 0.11398 0.0
H304 H 0.71595 0.96183 0.09957 0.0
H305 H 0.71164 0.01508 0.02344 0.0
H306 H 0.66628 0.96535 0.023 0.0
C307 C 0.68021 0.94817 0.033 0.0
O308 O 0.70927 0.96061 0.0408 0.0
H309 H 0.66958 0.94113 0.05359 0.0
C310 C 0.72012 0.03875 0.0986 0.0
C311 C 0.71792 0.0411 0.06702 0.0
C312 C 0.71955 0.01024 0.11058 0.0
C313 C 0.71722 0.98399 0.0908 0.0
C314 C 0.7144 0.98601 0.05955 0.0
C315 C 0.71487 0.01431 0.04775 0.0
H316 H 0.57127 0.32827 0.68723 0.0
H317 H 0.55106 0.3248 0.59079 0.0
H318 H 0.64307 0.33713 0.62717 0.0
H319 H 0.63963 0.36022 0.56685 0.0
C320 C 0.61477 0.35514 0.56344 0.0
O321 O 0.60716 0.32947 0.5778 0.0
H322 H 0.6037 0.37489 0.57336 0.0
C323 C 0.57881 0.32991 0.66472 0.0
C324 C 0.61002 0.33374 0.6607 0.0
C325 C 0.55724 0.32646 0.63972 0.0
C326 C 0.56718 0.32714 0.61045 0.0
C327 C 0.59799 0.33057 0.60615 0.0
C328 C 0.6193 0.3341 0.6311 0.0
H329 H 0.09177 0.74513 0.04637 0.0
H330 H 0.07948 0.73578 0.94881 0.0
H331 H 0.00375 0.72 0.00089 0.0
H332 H 0.99911 0.67756 0.95052 0.0
C333 C 0.01732 0.6877 0.93761 0.0
O334 O 0.02245 0.7181 0.94673 0.0
H335 H 0.03796 0.67555 0.94274 0.0
C336 C 0.07728 0.74077 0.02568 0.0
C337 C 0.04607 0.73347 0.02738 0.0
C338 C 0.08995 0.74155 0.99749 0.0
C339 C 0.07069 0.73529 0.97089 0.0
C340 C 0.03987 0.72743 0.97233 0.0
C341 C 0.02755 0.72697 0.00036 0.0
H342 H 0.93489 0.30777 0.36149 0.0
H343 H 0.94967 0.31118 0.45832 0.0
H344 H 0.02167 0.34086 0.40585 0.0
H345 H 0.04706 0.3277 0.47895 0.0
C346 C 0.02452 0.31532 0.47327 0.0
O347 O 0.00533 0.33473 0.46039 0.0
H348 H 0.02823 0.2959 0.457 0.0
C349 C 0.94984 0.31293 0.38179 0.0
C350 C 0.97973 0.32493 0.37959 0.0
C351 C 0.9388 0.30742 0.40989 0.0
C352 C 0.95785 0.31468 0.43635 0.0
C353 C 0.98749 0.32698 0.43469 0.0
C354 C 0.99846 0.33188 0.4065 0.0
H355 H 0.46378 0.70647 0.86898 0.0
H356 H 0.456 0.71328 0.96522 0.0
H357 H 0.37611 0.70562 0.90452 0.0
H358 H 0.3641 0.73894 0.96018 0.0
C359 C 0.38637 0.73616 0.97234 0.0
O360 O 0.39695 0.70945 0.96112 0.0
H361 H 0.40206 0.75595 0.96842 0.0
C362 C 0.44997 0.70763 0.88809 0.0
C363 C 0.41832 0.70642 0.8829 0.0
C364 C 0.46406 0.71042 0.9176 0.0
C365 C 0.44584 0.71057 0.94221 0.0
C366 C 0.41424 0.70837 0.93732 0.0
C367 C 0.40055 0.70625 0.9078 0.0
H368 H 0.62753 0.50799 0.29337 0.0
H369 H 0.53412 0.50026 0.31389 0.0
H370 H 0.57955 0.58769 0.31022 0.0
H371 H 0.53538 0.58982 0.35325 0.0
C372 C 0.5234 0.56722 0.34721 0.0
O373 O 0.52833 0.55801 0.31777 0.0
H374 H 0.53276 0.55113 0.36292 0.0
C375 C 0.60711 0.5184 0.29886 0.0
C376 C 0.60728 0.55018 0.30172 0.0
C377 C 0.58108 0.4999 0.3036 0.0
C378 C 0.55436 0.51368 0.30934 0.0
C379 C 0.55385 0.54516 0.31091 0.0
C380 C 0.58016 0.56335 0.30727 0.0
H381 H 0.06532 0.09188 0.71492 0.0
H382 H 0.9718 0.0584 0.71182 0.0
H383 H 0.04098 0.99784 0.72649 0.0
H384 H 0.9721 0.95884 0.70885 0.0
C385 C 0.97438 0.98119 0.69918 0.0
O386 O 0.98306 0.00304 0.72245 0.0
H387 H 0.99215 0.97942 0.68279 0.0
C388 C 0.04846 0.07317 0.71571 0.0
C389 C 0.05755 0.04409 0.72074 0.0
C390 C 0.01766 0.07862 0.71231 0.0
C391 C 0.99566 0.05475 0.71457 0.0
C392 C 0.00431 0.02589 0.72003 0.0
C393 C 0.03502 0.02062 0.72314 0.0
H394 H 0.35558 0.9114 0.30686 0.0
H395 H 0.45269 0.91752 0.3062 0.0
H396 H 0.40941 0.98415 0.35876 0.0
H397 H 0.46722 0.01214 0.337 0.0
C398 C 0.47377 0.99033 0.32651 0.0
O399 O 0.46138 0.96707 0.34184 0.0
H400 H 0.46479 0.98835 0.30234 0.0
C401 C 0.37753 0.92251 0.31469 0.0
C402 C 0.37913 0.9488 0.33444 0.0
C403 C 0.40382 0.91086 0.30432 0.0
C404 C 0.43207 0.9262 0.31362 0.0
C405 C 0.43399 0.95265 0.33301 0.0
C406 C 0.4076 0.96389 0.34345 0.0
H407 H 0.86987 0.4542 0.69154 0.0
H408 H 0.95789 0.4199 0.68892 0.0
H409 H 0.87913 0.35807 0.68608 0.0
H410 H 0.94007 0.32278 0.70368 0.0
C411 C 0.94663 0.34723 0.70931 0.0
O412 O 0.93769 0.36286 0.68486 0.0
H413 H 0.93467 0.35395 0.72968 0.0
C414 C 0.88386 0.43523 0.69045 0.0
C415 C 0.87024 0.4055 0.68898 0.0
C416 C 0.91544 0.44081 0.69063 0.0
C417 C 0.93354 0.41617 0.68912 0.0
C418 C 0.92026 0.3865 0.68715 0.0
C419 C 0.88881 0.38122 0.68705 0.0
H420 H 0.67462 0.36667 0.46932 0.0
H421 H 0.6485 0.45672 0.45829 0.0
H422 H 0.6533 0.39561 0.38026 0.0
H423 H 0.66791 0.45993 0.36326 0.0
C424 C 0.66697 0.46772 0.38743 0.0
O425 O 0.64408 0.45073 0.39939 0.0
H426 H 0.68941 0.46424 0.39907 0.0
C427 C 0.66741 0.38361 0.45467 0.0
C428 C 0.66493 0.37712 0.42307 0.0
C429 C 0.66112 0.41199 0.46777 0.0
C430 C 0.65255 0.43435 0.44883 0.0
C431 C 0.65006 0.42833 0.41742 0.0
C432 C 0.65558 0.39971 0.40463 0.0
H433 H 0.78081 0.64142 0.09748 0.0
H434 H 0.80065 0.54829 0.10066 0.0
H435 H 0.75078 0.57643 0.02283 0.0
H436 H 0.72695 0.52204 0.04654 0.0
C437 C 0.74827 0.51172 0.05332 0.0
O438 O 0.77293 0.53061 0.04776 0.0
H439 H 0.74846 0.50868 0.07798 0.0
C440 C 0.78012 0.61872 0.08664 0.0
C441 C 0.76447 0.61203 0.05803 0.0
C442 C 0.79316 0.59593 0.10229 0.0
C443 C 0.79141 0.56632 0.0886 0.0
C444 C 0.77648 0.55954 0.05983 0.0
C445 C 0.76331 0.58236 0.04451 0.0
H446 H 0.28161 0.09744 0.56995 0.0
H447 H 0.25798 0.01236 0.60628 0.0
H448 H 0.30509 0.08467 0.66364 0.0
H449 H 0.318 0.01968 0.68886 0.0
C450 C 0.30599 0.01079 0.66687 0.0
O451 O 0.28233 0.02845 0.66047 0.0
H452 H 0.32298 0.01209 0.64962 0.0
C453 C 0.28155 0.08327 0.58877 0.0
C454 C 0.2947 0.09511 0.6173 0.0
C455 C 0.26831 0.05341 0.58423 0.0
C456 C 0.26842 0.03526 0.60887 0.0
C457 C 0.28182 0.04653 0.63725 0.0
C458 C 0.2947 0.07639 0.64154 0.0
H459 H 0.3261 0.93387 0.8927 0.0
H460 H 0.3295 0.02468 0.9339 0.0
H461 H 0.33205 0.95043 0.98998 0.0
H462 H 0.30342 0.00085 0.02028 0.0
C463 C 0.30913 0.0174 0.00356 0.0
O464 O 0.33427 0.00901 0.9895 0.0
H465 H 0.28914 0.01728 0.98689 0.0
C466 C 0.32787 0.94923 0.91292 0.0
C467 C 0.329 0.93773 0.94168 0.0
C468 C 0.32755 0.98045 0.90985 0.0
C469 C 0.32984 0.00053 0.93586 0.0
C470 C 0.33217 0.98953 0.96457 0.0
C471 C 0.33161 0.95835 0.96749 0.0
H472 H 0.51279 0.66835 0.30446 0.0
H473 H 0.53924 0.64278 0.39364 0.0
H474 H 0.44549 0.64466 0.36542 0.0
H475 H 0.46811 0.678 0.42379 0.0
C476 C 0.48271 0.66071 0.43252 0.0
O477 O 0.48437 0.63754 0.41048 0.0
H478 H 0.50577 0.67189 0.43863 0.0
C479 C 0.50694 0.65987 0.32568 0.0
C480 C 0.47622 0.65567 0.33132 0.0
C481 C 0.53015 0.65522 0.34771 0.0
C482 C 0.52209 0.64667 0.37611 0.0
C483 C 0.49167 0.64351 0.38242 0.0
C484 C 0.46886 0.64769 0.3601 0.0
H485 H 0.85861 0.28902 0.88102 0.0
H486 H 0.89598 0.3056 0.97311 0.0
H487 H 0.95445 0.31248 0.90118 0.0
H488 H 0.98681 0.29281 0.96042 0.0
C489 C 0.96793 0.29899 0.97419 0.0
O490 O 0.95115 0.31924 0.95948 0.0
H491 H 0.95383 0.2778 0.9772 0.0
C492 C 0.87805 0.29497 0.897 0.0
C493 C 0.90707 0.30063 0.88663 0.0
C494 C 0.87401 0.29615 0.92813 0.0
C495 C 0.89885 0.30429 0.94905 0.0
C496 C 0.92758 0.31056 0.93912 0.0
C497 C 0.93176 0.30844 0.90817 0.0
H498 H 0.11158 0.73244 0.62503 0.0
H499 H 0.13402 0.75782 0.53755 0.0
H500 H 0.04241 0.72836 0.55107 0.0
H501 H 0.07039 0.70002 0.49839 0.0
C502 C 0.08162 0.721 0.49064 0.0
O503 O 0.07938 0.74515 0.51148 0.0
H504 H 0.1059 0.71721 0.48862 0.0
C505 C 0.10417 0.73655 0.60204 0.0
C506 C 0.07382 0.72921 0.59098 0.0
C507 C 0.12586 0.74724 0.58311 0.0
C508 C 0.1173 0.75044 0.55261 0.0
C509 C 0.08724 0.74339 0.54123 0.0
C510 C 0.06555 0.73335 0.5604 0.0
H511 H 0.4783 0.23762 0.15014 0.0
H512 H 0.49797 0.23308 0.05689 0.0
H513 H 0.56941 0.22679 0.12577 0.0
H514 H 0.58845 0.26352 0.07899 0.0
C515 C 0.57109 0.25525 0.06039 0.0
O516 O 0.55611 0.22882 0.06778 0.0
H517 H 0.555 0.27319 0.05789 0.0
C518 C 0.49435 0.23389 0.13325 0.0
C519 C 0.52508 0.23169 0.14223 0.0
C520 C 0.48436 0.23413 0.10263 0.0
C521 C 0.50524 0.23191 0.08055 0.0
C522 C 0.53581 0.22913 0.08902 0.0
C523 C 0.54561 0.22858 0.11968 0.0
H524 H 0.3304 0.49919 0.66329 0.0
H525 H 0.42322 0.48713 0.64803 0.0
H526 H 0.3629 0.40995 0.65958 0.0
H527 H 0.42499 0.39621 0.68025 0.0
C528 C 0.43438 0.41901 0.67533 0.0
O529 O 0.41811 0.42815 0.65036 0.0
H530 H 0.43233 0.4348 0.69562 0.0
C531 C 0.34807 0.48406 0.65943 0.0
C532 C 0.34221 0.45271 0.6608 0.0
C533 C 0.37706 0.49654 0.65479 0.0
C534 C 0.40061 0.47762 0.65111 0.0
C535 C 0.39521 0.44637 0.65273 0.0
C536 C 0.36623 0.43403 0.65762 0.0
H537 H 0.89432 0.8618 0.30099 0.0
H538 H 0.98814 0.87868 0.33241 0.0
H539 H 0.92532 0.94315 0.35705 0.0
H540 H 0.98684 0.97435 0.34606 0.0
C541 C 0.99812 0.95281 0.34456 0.0
O542 O 0.98225 0.93158 0.35976 0.0
H543 H 0.99821 0.94533 0.32008 0.0
C544 C 0.91211 0.876 0.31414 0.0
C545 C 0.90551 0.90343 0.32931 0.0
C546 C 0.9417 0.86674 0.31555 0.0
C547 C 0.9651 0.88529 0.33167 0.0
C548 C 0.95916 0.91308 0.34588 0.0
C549 C 0.92947 0.9219 0.34518 0.0
H550 H 0.68001 0.12286 0.76356 0.0
H551 H 0.59881 0.12376 0.81134 0.0
H552 H 0.60593 0.05581 0.7396 0.0
H553 H 0.55164 0.08994 0.73718 0.0
C554 C 0.54727 0.09086 0.76159 0.0
O555 O 0.57035 0.07865 0.77796 0.0
H556 H 0.54639 0.1151 0.76953 0.0
C557 C 0.65779 0.11307 0.76759 0.0
C558 C 0.64558 0.08714 0.74954 0.0
C559 C 0.6413 0.12682 0.79006 0.0
C560 C 0.6122 0.11389 0.79432 0.0
C561 C 0.5995 0.08867 0.77588 0.0
C562 C 0.61629 0.07507 0.75394 0.0
H563 H 0.12252 0.54202 0.25257 0.0
H564 H 0.05664 0.60116 0.22182 0.0
H565 H 0.14337 0.63864 0.26161 0.0
H566 H 0.08571 0.69392 0.25176 0.0
C567 C 0.07942 0.6702 0.25655 0.0
O568 O 0.09156 0.65107 0.23554 0.0
H569 H 0.0895 0.66722 0.27974 0.0
C570 C 0.1159 0.56481 0.25044 0.0
C571 C 0.13664 0.58969 0.25968 0.0
C572 C 0.08695 0.56866 0.2373 0.0
C573 C 0.07876 0.59789 0.23242 0.0
C574 C 0.0992 0.623 0.24119 0.0
C575 C 0.12802 0.61893 0.25477 0.0
C576 C 0.22201 0.59558 0.27947 0.0
C577 C 0.22525 0.56988 0.29571 0.0
H578 H 0.19161 0.62162 0.25447 0.0
C579 C 0.19933 0.55227 0.3019 0.0
H580 H 0.24175 0.60958 0.27455 0.0
C581 C 0.17069 0.55974 0.29155 0.0
C582 C 0.1672 0.5844 0.27371 0.0
H583 H 0.20119 0.53274 0.31499 0.0
H584 H 0.15126 0.54583 0.29735 0.0
C585 C 0.19325 0.60258 0.26823 0.0
C586 C 0.2575 0.44561 0.66832 0.0
C587 C 0.25494 0.42353 0.68925 0.0
H588 H 0.28677 0.47108 0.64176 0.0
C589 C 0.28054 0.40841 0.69779 0.0
H590 H 0.23805 0.4573 0.66092 0.0
C591 C 0.30867 0.41689 0.68749 0.0
C592 C 0.31171 0.44035 0.66803 0.0
H593 H 0.27926 0.39128 0.7139 0.0
H594 H 0.32824 0.40614 0.69619 0.0
C595 C 0.28551 0.4537 0.65758 0.0
C596 C 0.69696 0.07899 0.68514 0.0
C597 C 0.69786 0.04743 0.6809 0.0
H598 H 0.67944 0.1162 0.70966 0.0
C599 C 0.68075 0.02896 0.69882 0.0
H600 H 0.70974 0.09388 0.67162 0.0
C601 C 0.66353 0.04179 0.72085 0.0
C602 C 0.66308 0.07339 0.72547 0.0
H603 H 0.68098 0.00456 0.69617 0.0
H604 H 0.6511 0.02698 0.73472 0.0
C605 C 0.67975 0.0918 0.70712 0.0
C606 C 0.81932 0.89988 0.32427 0.0
C607 C 0.81373 0.9304 0.32225 0.0
H608 H 0.85238 0.86756 0.32913 0.0
C609 C 0.83845 0.95218 0.32385 0.0
H610 H 0.80075 0.88258 0.32336 0.0
C611 C 0.86813 0.94353 0.32644 0.0
C612 C 0.87386 0.9129 0.32793 0.0
H613 H 0.8349 0.97588 0.32213 0.0
H614 H 0.88653 0.96085 0.32637 0.0
C615 C 0.84899 0.89127 0.32732 0.0
C616 C 0.33336 0.17059 0.60079 0.0
C617 C 0.3288 0.18908 0.62677 0.0
H618 H 0.32748 0.1264 0.57798 0.0
C619 C 0.31452 0.1761 0.65049 0.0
H620 H 0.34469 0.1798 0.58231 0.0
C621 C 0.30405 0.14547 0.64778 0.0
C622 C 0.30792 0.12709 0.62143 0.0
H623 H 0.3107 0.18979 0.67081 0.0
H624 H 0.29209 0.13646 0.66596 0.0
C625 C 0.32331 0.13996 0.59827 0.0
C626 C 0.33349 0.8605 0.9733 0.0
C627 C 0.31419 0.84198 0.95212 0.0
H628 H 0.35443 0.90486 0.98604 0.0
C629 C 0.30099 0.85473 0.92689 0.0
H630 H 0.34415 0.85118 0.99287 0.0
C631 C 0.30609 0.88559 0.92339 0.0
C632 C 0.32515 0.90443 0.94468 0.0
H633 H 0.28575 0.84107 0.91035 0.0
H634 H 0.29419 0.89471 0.90442 0.0
C635 C 0.33918 0.89133 0.96945 0.0
C636 C 0.68275 0.29455 0.41517 0.0
C637 C 0.69781 0.29327 0.3885 0.0
H638 H 0.65988 0.32128 0.44643 0.0
C639 C 0.69937 0.31879 0.37159 0.0
H640 H 0.68089 0.27516 0.42856 0.0
C641 C 0.68774 0.34566 0.38215 0.0
C642 C 0.67392 0.34753 0.40972 0.0
H643 H 0.71098 0.31853 0.35097 0.0
H644 H 0.69107 0.3653 0.36937 0.0
C645 C 0.67086 0.32124 0.42554 0.0
C646 C 0.71295 0.67565 0.04831 0.0
C647 C 0.71213 0.67851 0.01701 0.0
H648 H 0.72965 0.65228 0.08562 0.0
C649 C 0.72893 0.6595 0.99916 0.0
H650 H 0.70018 0.68983 0.0627 0.0
C651 C 0.74616 0.63808 0.01241 0.0
C652 C 0.74699 0.63528 0.04376 0.0
H653 H 0.72883 0.6612 0.97497 0.0
H654 H 0.75902 0.62387 0.99815 0.0
C655 C 0.7301 0.65427 0.06151 0.0
C656 C 0.57042 0.26259 0.21491 0.0
C657 C 0.5506 0.25471 0.2368 0.0
H658 H 0.57776 0.26208 0.16792 0.0
C659 C 0.5243 0.23591 0.2278 0.0
H660 H 0.59086 0.27712 0.22117 0.0
C661 C 0.51712 0.22653 0.19728 0.0
C662 C 0.53572 0.23636 0.17496 0.0
H663 H 0.5088 0.22912 0.24426 0.0
H664 H 0.49638 0.21247 0.19109 0.0
C665 C 0.56296 0.25373 0.1843 0.0
C666 C 0.90069 0.26992 0.80401 0.0
C667 C 0.92398 0.28736 0.79214 0.0
H668 H 0.87776 0.25961 0.84303 0.0
C669 C 0.94059 0.31033 0.811 0.0
H670 H 0.88764 0.25188 0.79008 0.0
C671 C 0.93443 0.31535 0.84131 0.0
C672 C 0.9119 0.2971 0.85366 0.0
H673 H 0.95849 0.32433 0.80237 0.0
H674 H 0.94754 0.33343 0.85508 0.0
C675 C 0.8949 0.27452 0.83444 0.0
C676 C 0.43691 0.66553 0.25436 0.0
C677 C 0.41179 0.68085 0.26233 0.0
H678 H 0.47597 0.64398 0.26976 0.0
C679 C 0.40596 0.6847 0.29296 0.0
H680 H 0.44168 0.66191 0.23087 0.0
C681 C 0.42618 0.67544 0.3154 0.0
C682 C 0.45235 0.66158 0.30761 0.0
H683 H 0.38678 0.69657 0.29973 0.0
H684 H 0.42204 0.68068 0.33883 0.0
C685 C 0.45669 0.65556 0.27672 0.0
C686 C 0.00857 0.67991 0.61763 0.0
C687 C 0.01232 0.68636 0.64909 0.0
H688 H 0.02547 0.68722 0.57479 0.0
C689 C 0.03536 0.70791 0.6613 0.0
H690 H 0.99101 0.66326 0.60765 0.0
C691 C 0.05443 0.72267 0.64242 0.0
C692 C 0.0516 0.71551 0.61086 0.0
H693 H 0.03842 0.71364 0.68549 0.0
H694 H 0.07145 0.73967 0.65272 0.0
C695 C 0.02822 0.69398 0.59876 0.0
C696 C 0.78947 0.37157 0.66995 0.0
C697 C 0.77279 0.39224 0.68588 0.0
H698 H 0.83301 0.35998 0.65761 0.0
C699 C 0.78837 0.41615 0.70433 0.0
H700 H 0.77808 0.35302 0.65535 0.0
C701 C 0.81997 0.41983 0.70615 0.0
C702 C 0.83672 0.40002 0.68907 0.0
H703 H 0.77613 0.43231 0.71706 0.0
H704 H 0.8312 0.43845 0.72073 0.0
C705 C 0.82104 0.37553 0.67134 0.0
C706 C 0.69064 0.57738 0.31302 0.0
C707 C 0.69111 0.60571 0.30092 0.0
H708 H 0.66422 0.53794 0.32296 0.0
C709 C 0.66375 0.61596 0.28926 0.0
H710 H 0.71127 0.56884 0.32234 0.0
C711 C 0.63659 0.59795 0.28925 0.0
C712 C 0.63614 0.56936 0.30101 0.0
H713 H 0.66337 0.63764 0.27963 0.0
H714 H 0.61605 0.60625 0.27948 0.0
C715 C 0.66358 0.55943 0.313 0.0
C716 C 0.3008 0.94962 0.36306 0.0
C717 C 0.29517 0.98029 0.36259 0.0
H718 H 0.33183 0.91581 0.35506 0.0
C719 C 0.31791 0.00087 0.35389 0.0
H720 H 0.2839 0.93319 0.36985 0.0
C721 C 0.34551 0.99087 0.34545 0.0
C722 C 0.35083 0.96007 0.34534 0.0
H723 H 0.31434 0.02469 0.35341 0.0
H724 H 0.36238 0.0071 0.33827 0.0
C725 C 0.32826 0.93964 0.35452 0.0
C726 C 0.13159 0.00974 0.7421 0.0
C727 C 0.15212 0.02616 0.72574 0.0
H728 H 0.08626 0.00341 0.7547 0.0
C729 C 0.14166 0.04874 0.70809 0.0
H730 H 0.13917 0.99238 0.75615 0.0
C731 C 0.11107 0.0544 0.70631 0.0
C732 C 0.09031 0.03818 0.72286 0.0
H733 H 0.157 0.06154 0.69502 0.0
H734 H 0.10373 0.07115 0.69145 0.0
C735 C 0.10115 0.01595 0.74103 0.0
C736 C 0.67302 0.8549 0.32193 0.0
C737 C 0.69533 0.83572 0.33067 0.0
H738 H 0.65432 0.89748 0.3299 0.0
C739 C 0.7172 0.84604 0.3542 0.0
H740 H 0.65572 0.84749 0.304 0.0
C741 C 0.71682 0.87498 0.36867 0.0
C742 C 0.69423 0.89411 0.36031 0.0
H743 H 0.73485 0.83187 0.36125 0.0
H744 H 0.7345 0.88243 0.3862 0.0
C745 C 0.67233 0.88365 0.33672 0.0
C746 C 0.72703 0.1025 0.01226 0.0
C747 C 0.71296 0.12632 0.02648 0.0
H748 H 0.74111 0.05778 0.01447 0.0
C749 C 0.70186 0.12269 0.0549 0.0
H750 H 0.7362 0.10485 0.99053 0.0
C751 C 0.70378 0.09527 0.06832 0.0
C752 C 0.71747 0.0711 0.05389 0.0
H753 H 0.69079 0.1407 0.0663 0.0
H754 H 0.69372 0.09282 0.08957 0.0
C755 C 0.72963 0.07541 0.02596 0.0
C756 C 0.27115 0.58865 0.64192 0.0
C757 C 0.29511 0.60986 0.63742 0.0
H758 H 0.24604 0.54713 0.62574 0.0
C759 C 0.31574 0.60219 0.61621 0.0
H760 H 0.25488 0.59385 0.65818 0.0
C761 C 0.31145 0.57479 0.5985 0.0
C762 C 0.28558 0.55504 0.60051 0.0
H763 H 0.33451 0.61794 0.61225 0.0
H764 H 0.32747 0.57004 0.58186 0.0
C765 C 0.26626 0.56162 0.62346 0.0
C766 C 0.27378 0.38184 0.02244 0.0
C767 C 0.2998 0.3855 0.04257 0.0
H768 H 0.24746 0.40015 0.98711 0.0
C769 C 0.32065 0.41047 0.04089 0.0
H770 H 0.25722 0.36289 0.02339 0.0
C771 C 0.31558 0.43143 0.01946 0.0
C772 C 0.2892 0.42824 0.99964 0.0
H773 H 0.34108 0.41366 0.05595 0.0
H774 H 0.33246 0.45006 0.01842 0.0
C775 C 0.26837 0.40313 0.00144 0.0
C776 C 0.36517 0.68765 0.81208 0.0
C777 C 0.37998 0.70406 0.79082 0.0
H778 H 0.36598 0.67489 0.85768 0.0
C779 C 0.40638 0.72247 0.8004 0.0
H780 H 0.34483 0.67315 0.8053 0.0
C781 C 0.41824 0.7238 0.83042 0.0
C782 C 0.40426 0.70638 0.8515 0.0
H783 H 0.41813 0.73561 0.78461 0.0
H784 H 0.43856 0.73838 0.83703 0.0
C785 C 0.37727 0.68869 0.84211 0.0
C786 C 0.99047 0.73497 0.08857 0.0
C787 C 0.00646 0.72214 0.11223 0.0
H788 H 0.99072 0.74959 0.04379 0.0
C789 C 0.03608 0.71429 0.10838 0.0
H790 H 0.9677 0.74153 0.09095 0.0
C791 C 0.04912 0.71837 0.08109 0.0
C792 C 0.03298 0.7308 0.05715 0.0
H793 H 0.04892 0.70421 0.12617 0.0
H794 H 0.07152 0.71093 0.07852 0.0
C795 C 0.00365 0.73944 0.06145 0.0
C796 C 0.67999 0.32006 0.71066 0.0
C797 C 0.67313 0.33267 0.739 0.0
H798 H 0.66528 0.30968 0.6641 0.0
C799 C 0.64666 0.34796 0.74096 0.0
H800 H 0.70018 0.30806 0.7084 0.0
C801 C 0.62683 0.3495 0.71531 0.0
C802 C 0.63276 0.33532 0.68723 0.0
H803 H 0.64091 0.35818 0.76245 0.0
H804 H 0.60654 0.36132 0.71765 0.0
C805 C 0.65996 0.32115 0.68515 0.0
C806 C 0.02 0.36212 0.31722 0.0
C807 C 0.00644 0.34533 0.29122 0.0
H808 H 0.02141 0.36985 0.36529 0.0
C809 C 0.98592 0.32058 0.29434 0.0
H810 H 0.03581 0.38147 0.31526 0.0
C811 C 0.97861 0.31297 0.32302 0.0
C812 C 0.99062 0.33082 0.34928 0.0
H813 H 0.97552 0.30706 0.27454 0.0
H814 H 0.96319 0.29323 0.32442 0.0
C815 C 0.01184 0.35524 0.34593 0.0
C816 C 0.2802 0.56389 0.45356 0.0
C817 C 0.2878 0.54161 0.432 0.0
H818 H 0.26662 0.57389 0.49811 0.0
C819 C 0.2862 0.51121 0.43911 0.0
H820 H 0.28079 0.58744 0.44867 0.0
C821 C 0.27843 0.50346 0.46768 0.0
C822 C 0.27197 0.52592 0.48965 0.0
H823 H 0.29186 0.49348 0.42296 0.0
H824 H 0.27861 0.48004 0.47292 0.0
C825 C 0.2722 0.55611 0.48197 0.0
C826 C 0.23212 0.45839 0.84644 0.0
C827 C 0.20687 0.43729 0.84577 0.0
H828 H 0.26846 0.48381 0.87357 0.0
C829 C 0.19876 0.42589 0.87301 0.0
H830 H 0.23895 0.46767 0.82587 0.0
C831 C 0.21573 0.43503 0.90019 0.0
C832 C 0.24106 0.45596 0.90084 0.0
H833 H 0.17944 0.40965 0.87334 0.0
H834 H 0.20888 0.42585 0.92081 0.0
C835 C 0.24895 0.46776 0.87374 0.0
C836 C 0.71075 0.98961 0.50446 0.0
C837 C 0.7367 0.97629 0.51546 0.0
H838 H 0.67973 0.99469 0.46621 0.0
C839 C 0.75109 0.95703 0.49551 0.0
H840 H 0.69913 0.00457 0.51922 0.0
C841 C 0.74001 0.95141 0.46529 0.0
C842 C 0.71431 0.96496 0.45416 0.0
H843 H 0.77113 0.94637 0.50314 0.0
H844 H 0.75201 0.93688 0.45047 0.0
C845 C 0.69974 0.9841 0.47408 0.0
C846 C 0.69297 0.0155 0.18958 0.0
C847 C 0.71077 0.99505 0.20403 0.0
H848 H 0.68226 0.03675 0.14875 0.0
C849 C 0.73348 0.98186 0.18831 0.0
H850 H 0.67543 0.0262 0.20114 0.0
C851 C 0.7372 0.98776 0.15825 0.0
C852 C 0.71866 0.00736 0.14352 0.0
H853 H 0.74761 0.96605 0.1988 0.0
H854 H 0.7541 0.97644 0.14627 0.0
C855 C 0.69703 0.02176 0.15968 0.0
C856 C 0.47479 0.29699 0.62675 0.0
C857 C 0.46125 0.31486 0.64855 0.0
H858 H 0.51562 0.28657 0.60698 0.0
C859 C 0.47976 0.33511 0.66889 0.0
H860 H 0.4612 0.28108 0.61082 0.0
C861 C 0.51109 0.33808 0.66683 0.0
C862 C 0.52442 0.32141 0.64393 0.0
H863 H 0.46998 0.34905 0.68608 0.0
H864 H 0.52471 0.35428 0.68244 0.0
C865 C 0.50598 0.30035 0.62436 0.0
C866 C 0.16917 0.73495 0.97174 0.0
C867 C 0.18711 0.75295 0.9944 0.0
H868 H 0.12509 0.71614 0.95561 0.0
C869 C 0.17294 0.76845 0.01743 0.0
H870 H 0.17946 0.72238 0.9539 0.0
C871 C 0.14139 0.76566 0.01794 0.0
C872 C 0.12338 0.74671 0.99583 0.0
H873 H 0.18625 0.78261 0.03511 0.0
H874 H 0.13122 0.77823 0.03581 0.0
C875 C 0.13781 0.73156 0.97264 0.0
C876 C 0.85548 0.28582 0.38963 0.0
C877 C 0.84995 0.26168 0.40772 0.0
H878 H 0.88743 0.31996 0.377 0.0
C879 C 0.87309 0.25446 0.42861 0.0
H880 H 0.83795 0.29228 0.37367 0.0
C881 C 0.90171 0.27006 0.43019 0.0
C882 C 0.9076 0.29334 0.41109 0.0
H883 H 0.86948 0.23599 0.4429 0.0
H884 H 0.91953 0.26303 0.44545 0.0
C885 C 0.88389 0.30161 0.39145 0.0
C886 C 0.54516 0.73876 0.90827 0.0
C887 C 0.56113 0.72671 0.93244 0.0
H888 H 0.50231 0.74393 0.88528 0.0
C889 C 0.5451 0.70814 0.95117 0.0
H890 H 0.55668 0.75338 0.89353 0.0
C891 C 0.51367 0.70233 0.94615 0.0
C892 C 0.49763 0.71508 0.92239 0.0
H893 H 0.55674 0.6985 0.97 0.0
H894 H 0.50196 0.68797 0.96095 0.0
C895 C 0.51386 0.7332 0.90343 0.0
C896 C 0.60939 0.42491 0.32407 0.0
C897 C 0.58374 0.40477 0.31646 0.0
H898 H 0.62872 0.47028 0.32588 0.0
C899 C 0.55795 0.41554 0.30193 0.0
H900 H 0.62978 0.41733 0.33494 0.0
C901 C 0.55738 0.44617 0.29655 0.0
C902 C 0.5826 0.46666 0.30557 0.0
H903 H 0.53788 0.40054 0.29553 0.0
H904 H 0.53698 0.45384 0.28579 0.0
C905 C 0.60885 0.45538 0.31863 0.0
C906 C 0.97801 0.15153 0.716 0.0
C907 C 0.99217 0.1677 0.69412 0.0
H908 H 0.97493 0.11065 0.73886 0.0
C909 C 0.01459 0.1542 0.67822 0.0
H910 H 0.96061 0.16123 0.72861 0.0
C911 C 0.02281 0.12535 0.68419 0.0
C912 C 0.00865 0.1092 0.70601 0.0
H913 H 0.02595 0.16597 0.66121 0.0
H914 H 0.04007 0.11552 0.67146 0.0
C915 C 0.98606 0.12251 0.72176 0.0
C916 C 0.41625 0.85365 0.23949 0.0
C917 C 0.39487 0.82978 0.24392 0.0
H918 H 0.43561 0.89812 0.25482 0.0
C919 C 0.37712 0.83249 0.26875 0.0
H920 H 0.4303 0.85227 0.22057 0.0
C921 C 0.38044 0.85855 0.28853 0.0
C922 C 0.40143 0.88267 0.28387 0.0
H923 H 0.36068 0.81443 0.27305 0.0
H924 H 0.3666 0.85971 0.30762 0.0
C925 C 0.41945 0.87984 0.25923 0.0
C926 C 0.96553 0.5116 0.71812 0.0
C927 C 0.95146 0.53393 0.70251 0.0
H928 H 0.96515 0.46471 0.72663 0.0
C929 C 0.92705 0.52494 0.68112 0.0
H930 H 0.98444 0.51768 0.7347 0.0
C931 C 0.91605 0.49457 0.67652 0.0
C932 C 0.92923 0.47246 0.69312 0.0
H933 H 0.91578 0.54146 0.66857 0.0
H934 H 0.89682 0.48846 0.66032 0.0
C935 C 0.95457 0.48119 0.71342 0.0
C936 C 0.64139 0.43557 0.54721 0.0
C937 C 0.66323 0.42179 0.56486 0.0
H938 H 0.62331 0.44287 0.50263 0.0
C939 C 0.68627 0.40777 0.55051 0.0
H940 H 0.62328 0.44649 0.55758 0.0
C941 C 0.68644 0.40596 0.51907 0.0
C942 C 0.66341 0.41786 0.50122 0.0
H943 H 0.70365 0.39728 0.56349 0.0
H944 H 0.70425 0.39452 0.50872 0.0
C945 C 0.64146 0.43358 0.51568 0.0
C946 C 0.79628 0.59481 0.18701 0.0
C947 C 0.81431 0.62152 0.19644 0.0
H948 H 0.77611 0.56542 0.14967 0.0
C949 C 0.82898 0.63753 0.17487 0.0
H950 H 0.78469 0.58215 0.20327 0.0
C951 C 0.82366 0.6282 0.14404 0.0
C952 C 0.80414 0.60243 0.13452 0.0
H953 H 0.84268 0.65839 0.18158 0.0
H954 H 0.83363 0.64188 0.12756 0.0
C955 C 0.79149 0.58517 0.15637 0.0
C956 C 0.24577 6e-05 0.51414 0.0
C957 C 0.23193 0.01936 0.49463 0.0
H958 H 0.26895 0.99579 0.55728 0.0
C959 C 0.22913 0.04951 0.50503 0.0
H960 H 0.24834 0.97672 0.50664 0.0
C961 C 0.24011 0.06025 0.53432 0.0
C962 C 0.25486 0.0413 0.5537 0.0
H963 H 0.21816 0.06478 0.4906 0.0
H964 H 0.23693 0.08347 0.54172 0.0
C965 C 0.25738 0.01098 0.54326 0.0
C966 C 0.28918 0.01584 0.84407 0.0
C967 C 0.30578 0.0059 0.82005 0.0
H968 H 0.28364 0.01609 0.8916 0.0
C969 C 0.33118 0.98961 0.82613 0.0
H970 H 0.26939 0.02828 0.83989 0.0
C971 C 0.33906 0.98227 0.85559 0.0
C972 C 0.32194 0.99151 0.87949 0.0
H973 H 0.34393 0.98109 0.80791 0.0
H974 H 0.35801 0.96866 0.85961 0.0
C975 C 0.2974 0.009 0.8736 0.0
C976 C 0.60044 0.66869 0.30507 0.0
C977 C 0.62112 0.68258 0.32801 0.0
H978 H 0.5563 0.64699 0.29356 0.0
C979 C 0.61307 0.68441 0.35797 0.0
H980 H 0.6064 0.66677 0.28183 0.0
C981 C 0.58395 0.67439 0.36464 0.0
C982 C 0.56249 0.66167 0.34152 0.0
H983 H 0.62869 0.6953 0.37598 0.0
H984 H 0.57793 0.67822 0.38769 0.0
C985 C 0.57166 0.65771 0.31184 0.0
C986 C 0.8134 0.25347 0.96712 0.0
C987 C 0.78766 0.2685 0.95901 0.0
H988 H 0.86109 0.251 0.96405 0.0
C989 C 0.79047 0.29307 0.94091 0.0
H990 H 0.81176 0.23438 0.98094 0.0
C991 C 0.81855 0.30212 0.93068 0.0
C992 C 0.84427 0.28714 0.93899 0.0
H993 H 0.77081 0.30464 0.93389 0.0
H994 H 0.82022 0.32081 0.91636 0.0
C995 C 0.84154 0.26296 0.95753 0.0
C996 C 0.19599 0.77181 0.63478 0.0
C997 C 0.21656 0.75212 0.62351 0.0
H998 H 0.15053 0.7854 0.63075 0.0
C999 C 0.20818 0.7336 0.59685 0.0
H1000 H 0.20179 0.78595 0.65555 0.0
C1001 C 0.17923 0.73372 0.58242 0.0
C1002 C 0.15795 0.75181 0.59486 0.0
H1003 H 0.22366 0.71812 0.58784 0.0
H1004 H 0.17287 0.71828 0.56264 0.0
C1005 C 0.16671 0.77137 0.62075 0.0
C1006 C 0.41742 0.27672 0.07922 0.0
C1007 C 0.3935 0.25902 0.08975 0.0
H1008 H 0.46511 0.282 0.07424 0.0
C1009 C 0.39917 0.23124 0.10136 0.0
H1010 H 0.41356 0.29829 0.07029 0.0
C1011 C 0.42868 0.22221 0.10408 0.0
C1012 C 0.45276 0.24053 0.09463 0.0
H1013 H 0.3812 0.21748 0.11014 0.0
H1014 H 0.43292 0.20155 0.11468 0.0
C1015 C 0.44679 0.26737 0.08131 0.0
C1016 C 0.38538 0.57717 0.6332 0.0
C1017 C 0.38328 0.59314 0.66137 0.0
H1018 H 0.38514 0.53344 0.60901 0.0
C1019 C 0.38228 0.57702 0.68741 0.0
H1020 H 0.38517 0.58872 0.61261 0.0
C1021 C 0.38196 0.5456 0.68524 0.0
C1022 C 0.38275 0.52965 0.65703 0.0
H1023 H 0.38072 0.58864 0.70945 0.0
H1024 H 0.37992 0.53361 0.70548 0.0
C1025 C 0.38511 0.54554 0.63105 0.0
C1026 C 0.94867 0.80676 0.25233 0.0
C1027 C 0.96195 0.78388 0.26783 0.0
H1028 H 0.9317 0.85077 0.25541 0.0
C1029 C 0.96782 0.78837 0.29941 0.0
H1030 H 0.94361 0.80408 0.22805 0.0
C1031 C 0.96155 0.81545 0.31491 0.0
C1032 C 0.94842 0.83814 0.29927 0.0
H1033 H 0.97642 0.77087 0.31241 0.0
H1034 H 0.96639 0.81844 0.33923 0.0
C1035 C 0.9418 0.8335 0.26792 0.0
C1036 C 0.64564 0.20736 0.82632 0.0
C1037 C 0.67699 0.21445 0.83028 0.0
H1038 H 0.60976 0.17472 0.80964 0.0
C1039 C 0.6965 0.19167 0.82433 0.0
H1040 H 0.63012 0.22472 0.83014 0.0
C1041 C 0.68487 0.16259 0.81332 0.0
C1042 C 0.65348 0.15595 0.80698 0.0
H1043 H 0.7208 0.19663 0.82728 0.0
H1044 H 0.70065 0.14567 0.80878 0.0
C1045 C 0.63399 0.17853 0.81453 0.0
C1046 C 0.03893 0.50793 0.18804 0.0
C1047 C 0.03717 0.48447 0.20768 0.0
H1048 H 0.05603 0.55341 0.1822 0.0
C1049 C 0.04805 0.49066 0.23814 0.0
H1050 H 0.03059 0.50395 0.16448 0.0
C1051 C 0.06244 0.51884 0.24816 0.0
C1052 C 0.06623 0.54151 0.22801 0.0
H1053 H 0.04671 0.4733 0.25401 0.0
H1054 H 0.07187 0.52251 0.27141 0.0
C1055 C 0.05333 0.53628 0.19816 0.0
C1056 C 0.43945 0.57992 0.3325 0.0
C1057 C 0.42879 0.57578 0.36109 0.0
H1058 H 0.47771 0.58093 0.30566 0.0
C1059 C 0.44918 0.56835 0.38457 0.0
H1060 H 0.4244 0.58602 0.31403 0.0
C1061 C 0.47947 0.56509 0.37965 0.0
C1062 C 0.49013 0.56899 0.35113 0.0
H1063 H 0.44186 0.5653 0.40695 0.0
H1064 H 0.49473 0.55982 0.39833 0.0
C1065 C 0.46993 0.57684 0.32764 0.0
C1066 C 0.03099 0.33572 0.71469 0.0
C1067 C 0.04309 0.36222 0.73183 0.0
H1068 H 0.99102 0.31036 0.69393 0.0
C1069 C 0.02344 0.3842 0.74047 0.0
H1070 H 0.0455 0.31843 0.70754 0.0
C1071 C 0.99232 0.3794 0.7329 0.0
C1072 C 0.98024 0.3526 0.7165 0.0
H1073 H 0.03198 0.4049 0.75362 0.0
H1074 H 0.97759 0.39641 0.74026 0.0
C1075 C 0.99985 0.33105 0.70694 0.0
C1076 C 0.89044 0.9779 0.67374 0.0
C1077 C 0.89038 0.99653 0.64945 0.0
H1078 H 0.91707 0.95867 0.70862 0.0
C1079 C 0.91776 0.01183 0.6431 0.0
H1080 H 0.86973 0.96597 0.6794 0.0
C1081 C 0.94478 0.0075 0.65976 0.0
C1082 C 0.94495 0.98776 0.68302 0.0
H1083 H 0.9185 0.02653 0.62471 0.0
H1084 H 0.9657 0.01891 0.65396 0.0
C1085 C 0.91748 0.97366 0.69045 0.0
C1086 C 0.55777 0.01646 0.33447 0.0
C1087 C 0.57086 0.99084 0.32229 0.0
H1088 H 0.51699 0.03628 0.34551 0.0
C1089 C 0.55211 0.96427 0.31381 0.0
H1090 H 0.57151 0.03728 0.34125 0.0
C1091 C 0.52084 0.9638 0.31619 0.0
C1092 C 0.50772 0.98973 0.32742 0.0
H1093 H 0.56141 0.94416 0.30426 0.0
H1094 H 0.50675 0.94344 0.30843 0.0
C1095 C 0.52654 0.01591 0.33695 0.0
C1096 C 0.27549 0.38811 0.60985 0.0
C1097 C 0.3047 0.39175 0.59975 0.0
H1098 H 0.22913 0.39845 0.60359 0.0
C1099 C 0.30976 0.41078 0.57635 0.0
H1100 H 0.27095 0.374 0.62814 0.0
C1101 C 0.28587 0.4247 0.56239 0.0
C1102 C 0.25647 0.41991 0.57156 0.0
H1103 H 0.33208 0.41445 0.56833 0.0
H1104 H 0.29014 0.43841 0.54372 0.0
C1105 C 0.2516 0.4022 0.59594 0.0
C1106 C 0.27124 0.62855 0.96691 0.0
C1107 C 0.28565 0.6465 0.99191 0.0
H1108 H 0.25613 0.58376 0.94807 0.0
C1109 C 0.29858 0.63218 0.01636 0.0
H1110 H 0.26127 0.63883 0.94758 0.0
C1111 C 0.29553 0.60065 0.01655 0.0
C1112 C 0.27947 0.58297 0.99235 0.0
H1113 H 0.30998 0.64534 0.03588 0.0
H1114 H 0.30475 0.59016 0.03608 0.0
C1115 C 0.26823 0.59707 0.96712 0.0
C1116 C 0.69816 0.10239 0.35175 0.0
C1117 C 0.72052 0.10967 0.37569 0.0
H1118 H 0.67383 0.0672 0.32216 0.0
C1119 C 0.7345 0.08609 0.38931 0.0
H1120 H 0.68683 0.11998 0.3409 0.0
C1121 C 0.72716 0.056 0.37843 0.0
C1122 C 0.70577 0.04894 0.35374 0.0
H1123 H 0.75168 0.09087 0.40792 0.0
H1124 H 0.7387 0.03826 0.38882 0.0
C1125 C 0.69076 0.07225 0.34097 0.0
C1126 C 0.66961 0.89672 0.96029 0.0
C1127 C 0.67627 0.86864 0.97076 0.0
H1128 H 0.66584 0.94391 0.97179 0.0
C1129 C 0.68682 0.86741 0.00122 0.0
H1130 H 0.66166 0.8985 0.93692 0.0
C1131 C 0.68903 0.89341 0.02114 0.0
C1132 C 0.6807 0.92102 0.01096 0.0
H1133 H 0.69229 0.84617 0.00998 0.0
H1134 H 0.69627 0.8918 0.04473 0.0
C1135 C 0.67191 0.92271 0.98021 0.0
C1136 C 0.60867 0.32091 0.48189 0.0
C1137 C 0.59555 0.34378 0.46637 0.0
H1138 H 0.62555 0.30689 0.52472 0.0
C1139 C 0.58692 0.36936 0.48314 0.0
H1140 H 0.61543 0.30084 0.46969 0.0
C1141 C 0.59202 0.37239 0.51461 0.0
C1142 C 0.60614 0.35008 0.52999 0.0
H1143 H 0.57679 0.38744 0.47194 0.0
H1144 H 0.58563 0.3926 0.52687 0.0
C1145 C 0.61433 0.32425 0.51337 0.0
C1146 C 0.00893 0.30892 0.55594 0.0
C1147 C 0.9911 0.28131 0.55447 0.0
H1148 H 0.03339 0.34125 0.53135 0.0
C1149 C 0.98283 0.26592 0.52596 0.0
H1150 H 0.01555 0.32143 0.57748 0.0
C1151 C 0.99315 0.27725 0.49969 0.0
C1152 C 0.01209 0.30405 0.5014 0.0
H1153 H 0.96891 0.24474 0.52395 0.0
H1154 H 0.98688 0.26473 0.47806 0.0
C1155 C 0.01924 0.32022 0.52961 0.0
C1156 C 0.3557 0.74713 0.04987 0.0
C1157 C 0.38077 0.74157 0.06927 0.0
H1158 H 0.33788 0.74963 0.00409 0.0
C1159 C 0.407 0.73227 0.05654 0.0
H1160 H 0.33516 0.75435 0.05889 0.0
C1161 C 0.40847 0.72963 0.02515 0.0
C1162 C 0.38364 0.73587 0.00588 0.0
H1163 H 0.42676 0.72792 0.07082 0.0
H1164 H 0.42926 0.72341 0.01591 0.0
C1165 C 0.35718 0.7444 0.0185 0.0
C1166 C 0.02309 0.67475 0.85276 0.0
C1167 C 0.99262 0.66763 0.8422 0.0
H1168 H 0.05465 0.68689 0.89132 0.0
C1169 C 0.97013 0.67036 0.86274 0.0
H1170 H 0.04096 0.67312 0.83751 0.0
C1171 C 0.97804 0.67818 0.89345 0.0
C1172 C 0.00857 0.68327 0.9042 0.0
H1173 H 0.94643 0.66534 0.85534 0.0
H1174 H 0.96037 0.67907 0.909 0.0
C1175 C 0.03097 0.68258 0.8835 0.0
C1176 C 0.52048 0.42518 0.68679 0.0
C1177 C 0.52866 0.41384 0.65844 0.0
H1178 H 0.48431 0.4358 0.71419 0.0
C1179 C 0.50571 0.40369 0.63579 0.0
H1180 H 0.53759 0.43299 0.70477 0.0
C1181 C 0.47527 0.40523 0.64126 0.0
C1182 C 0.46716 0.41749 0.66927 0.0
H1183 H 0.51123 0.39443 0.61383 0.0
H1184 H 0.45804 0.39694 0.62354 0.0
C1185 C 0.49002 0.42691 0.69216 0.0
C1186 C 0.99855 0.66646 0.28006 0.0
C1187 C 0.98141 0.66031 0.25217 0.0
H1188 H 0.04274 0.67422 0.30314 0.0
C1189 C 0.99665 0.65679 0.22562 0.0
H1190 H 0.98759 0.66954 0.30094 0.0
C1191 C 0.02829 0.65977 0.22693 0.0
C1192 C 0.04534 0.66546 0.25489 0.0
H1193 H 0.98417 0.652 0.20377 0.0
H1194 H 0.03943 0.65761 0.20608 0.0
C1195 C 0.03014 0.66908 0.28138 0.0
C1196 C 0.06741 0.98397 0.39565 0.0
C1197 C 0.09019 0.96668 0.38469 0.0
H1198 H 0.02057 0.99301 0.39157 0.0
C1199 C 0.08252 0.94468 0.3605 0.0
H1200 H 0.07246 0.00099 0.41435 0.0
C1201 C 0.05274 0.94015 0.34755 0.0
C1202 C 0.03019 0.95777 0.3583 0.0
H1203 H 0.09946 0.93082 0.35167 0.0
H1204 H 0.04729 0.92295 0.32906 0.0
C1205 C 0.03771 0.97947 0.38265 0.0
C1206 C 0.48054 0.03159 0.7487 0.0
C1207 C 0.45981 0.04354 0.76793 0.0
H1208 H 0.52453 0.03725 0.73185 0.0
C1209 C 0.46879 0.07001 0.78663 0.0
H1210 H 0.47445 0.01114 0.73416 0.0
C1211 C 0.49743 0.08484 0.78525 0.0
C1212 C 0.51752 0.07361 0.76501 0.0
H1213 H 0.45348 0.07968 0.80188 0.0
H1214 H 0.50358 0.10553 0.79941 0.0
C1215 C 0.50917 0.04648 0.74732 0.0
C1216 C 0.62917 0.54171 0.38069 0.0
C1217 C 0.65411 0.56319 0.38663 0.0
H1218 H 0.6136 0.49466 0.37645 0.0
C1219 C 0.68257 0.55321 0.39519 0.0
H1220 H 0.60697 0.54862 0.37386 0.0
C1221 C 0.68629 0.52242 0.39655 0.0
C1222 C 0.66163 0.50089 0.38975 0.0
H1223 H 0.70229 0.56908 0.39979 0.0
H1224 H 0.70873 0.51538 0.40211 0.0
C1225 C 0.63294 0.51081 0.38211 0.0
C1226 C 0.76325 0.42965 0.03354 0.0
C1227 C 0.74788 0.42385 0.00468 0.0
H1228 H 0.77549 0.46204 0.07137 0.0
C1229 C 0.73406 0.44759 0.99121 0.0
H1230 H 0.77434 0.41196 0.04448 0.0
C1231 C 0.73476 0.47619 0.00669 0.0
C1232 C 0.74905 0.48151 0.03598 0.0
H1233 H 0.72224 0.44398 0.96894 0.0
H1234 H 0.72356 0.49401 0.99607 0.0
C1235 C 0.76392 0.45825 0.04898 0.0
C1236 C 0.27779 0.92899 0.64256 0.0
C1237 C 0.27432 0.91673 0.67056 0.0
H1238 H 0.29055 0.96832 0.61959 0.0
C1239 C 0.28005 0.93591 0.69725 0.0
H1240 H 0.27346 0.91491 0.62156 0.0
C1241 C 0.28983 0.96638 0.69602 0.0
C1242 C 0.2942 0.9783 0.66813 0.0
H1243 H 0.27747 0.92731 0.71919 0.0
H1244 H 0.29454 0.9805 0.71691 0.0
C1245 C 0.28758 0.95951 0.64138 0.0
C1246 C 0.33193 0.08196 0.06376 0.0
C1247 C 0.3287 0.10749 0.04718 0.0
H1248 H 0.3283 0.03348 0.0629 0.0
C1249 C 0.31933 0.10319 0.01616 0.0
H1250 H 0.33926 0.08446 0.08764 0.0
C1251 C 0.313 0.07405 0.00214 0.0
C1252 C 0.31567 0.04866 0.01888 0.0
H1253 H 0.31678 0.12234 0.00267 0.0
H1254 H 0.30588 0.07128 0.97821 0.0
C1255 C 0.3256 0.05281 0.04969 0.0
C1256 C 0.42585 0.6271 0.48337 0.0
C1257 C 0.44144 0.63275 0.51214 0.0
H1258 H 0.42692 0.63143 0.43561 0.0
C1259 C 0.47152 0.64538 0.51427 0.0
H1260 H 0.4027 0.6173 0.48091 0.0
C1261 C 0.48526 0.65337 0.48838 0.0
C1262 C 0.46927 0.6488 0.45983 0.0
H1263 H 0.48423 0.64992 0.53603 0.0
H1264 H 0.50814 0.66391 0.49079 0.0
C1265 C 0.43965 0.63511 0.45745 0.0
C1266 C 0.02051 0.73065 0.42828 0.0
C1267 C 0.03751 0.73444 0.4031 0.0
H1268 H 0.02129 0.72353 0.47561 0.0
C1269 C 0.06925 0.73515 0.40716 0.0
H1270 H 0.99604 0.7301 0.426 0.0
C1271 C 0.08359 0.73149 0.43558 0.0
C1272 C 0.06649 0.72691 0.46046 0.0
H1273 H 0.08304 0.73817 0.3883 0.0
H1274 H 0.10803 0.73171 0.43799 0.0
C1275 C 0.03487 0.72692 0.45667 0.0
C1276 C 0.58371 0.24944 0.97636 0.0
C1277 C 0.61449 0.24387 0.97669 0.0
H1278 H 0.54591 0.2572 0.00265 0.0
C1279 C 0.63039 0.24011 0.00453 0.0
H1280 H 0.57074 0.25222 0.9553 0.0
C1281 C 0.61614 0.243 0.03153 0.0
C1282 C 0.5858 0.24991 0.03123 0.0
H1283 H 0.65404 0.23553 0.0056 0.0
H1284 H 0.62901 0.24058 0.05274 0.0
C1285 C 0.56948 0.25233 0.00339 0.0
C1286 C 0.01808 0.34604 0.03574 0.0
C1287 C 0.99944 0.3466 0.06004 0.0
H1288 H 0.02268 0.33049 0.9896 0.0
C1289 C 0.97116 0.32987 0.05651 0.0
H1290 H 0.03995 0.35874 0.03765 0.0
C1291 C 0.96141 0.31365 0.029 0.0
C1292 C 0.97986 0.31359 0.00465 0.0
H1293 H 0.9562 0.32991 0.07471 0.0
H1294 H 0.93915 0.30168 0.02647 0.0
C1295 C 0.0083 0.32983 0.00826 0.0
loop_
_geom_bond_atom_site_label_1
_geom_bond_atom_site_label_2
_geom_bond_distance
_geom_bond_site_symmetry_2
_ccdc_geom_bond_type
O0 Cd1 2.300 . S
O0 C7 1.275 . S
Cd1 O0 2.300 . S
Cd1 O9 2.381 . S
Cd1 O10 2.378 . S
O2 Cd3 2.385 . S
O2 C7 1.255 . S
Cd3 O2 2.385 . S
Cd3 O4 2.317 . S
O4 Cd3 2.317 . S
O4 C5 1.232 . S
C5 O4 1.232 . S
C5 O6 1.218 . S
O6 C5 1.218 . S
C7 O0 1.275 . S
C7 O2 1.255 . S
C8 O9 1.258 . S
C8 O10 1.256 . S
O9 Cd1 2.381 . S
O9 C8 1.258 . S
O10 Cd1 2.378 . S
O10 C8 1.256 . S
O11 Cd12 2.300 . S
O11 C18 1.275 . S
Cd12 O11 2.300 . S
Cd12 O20 2.381 . S
Cd12 O21 2.378 . S
O13 Cd14 2.385 . S
O13 C18 1.255 . S
Cd14 O13 2.385 . S
Cd14 O15 2.317 . S
O15 Cd14 2.317 . S
O15 C16 1.232 . S
C16 O15 1.232 . S
C16 O17 1.218 . S
O17 C16 1.218 . S
C18 O11 1.275 . S
C18 O13 1.255 . S
C19 O20 1.258 . S
C19 O21 1.256 . S
O20 Cd12 2.381 . S
O20 C19 1.258 . S
O21 Cd12 2.378 . S
O21 C19 1.256 . S
O22 Cd23 2.301 . S
O22 C29 1.276 . S
Cd23 O22 2.301 . S
Cd23 O31 2.381 1_565 S
Cd23 O32 2.378 . S
O24 Cd25 2.385 . S
O24 C29 1.255 . S
Cd25 O24 2.385 . S
Cd25 O26 2.317 . S
O26 Cd25 2.317 . S
O26 C27 1.232 . S
C27 O26 1.232 . S
C27 O28 1.218 . S
O28 C27 1.218 . S
C29 O22 1.276 . S
C29 O24 1.255 . S
C30 O31 1.258 . S
C30 O32 1.256 1_545 S
O31 Cd23 2.381 1_545 S
O31 C30 1.258 . S
O32 Cd23 2.378 . S
O32 C30 1.256 1_565 S
O33 Cd34 2.300 1_565 S
O33 C40 1.275 1_565 S
Cd34 O33 2.300 1_545 S
Cd34 O42 2.381 1_545 S
Cd34 O43 2.378 . S
O35 Cd36 2.385 . S
O35 C40 1.255 . S
Cd36 O35 2.385 . S
Cd36 O37 2.317 . S
O37 Cd36 2.317 . S
O37 C38 1.232 . S
C38 O37 1.232 . S
C38 O39 1.218 . S
O39 C38 1.218 . S
C40 O33 1.275 1_545 S
C40 O35 1.255 . S
C41 O42 1.258 1_545 S
C41 O43 1.256 . S
O42 Cd34 2.381 1_565 S
O42 C41 1.258 1_565 S
O43 Cd34 2.378 . S
O43 C41 1.256 . S
O44 Cd45 2.300 . S
O44 C51 1.275 . S
Cd45 O44 2.300 . S
Cd45 O53 2.381 . S
Cd45 O54 2.378 . S
O46 Cd47 2.385 . S
O46 C51 1.255 . S
Cd47 O46 2.385 . S
Cd47 O48 2.317 . S
O48 Cd47 2.317 . S
O48 C49 1.232 . S
C49 O48 1.232 . S
C49 O50 1.218 . S
O50 C49 1.218 . S
C51 O44 1.275 . S
C51 O46 1.255 . S
C52 O53 1.258 . S
C52 O54 1.256 . S
O53 Cd45 2.381 . S
O53 C52 1.258 . S
O54 Cd45 2.378 . S
O54 C52 1.256 . S
O55 Cd56 2.300 1_556 S
O55 C62 1.275 1_556 S
Cd56 O55 2.300 1_554 S
Cd56 O64 2.381 1_554 S
Cd56 O65 2.378 . S
O57 Cd58 2.385 . S
O57 C62 1.255 . S
Cd58 O57 2.385 . S
Cd58 O59 2.317 . S
O59 Cd58 2.317 . S
O59 C60 1.232 . S
C60 O59 1.232 . S
C60 O61 1.218 . S
O61 C60 1.218 . S
C62 O55 1.275 1_554 S
C62 O57 1.255 . S
C63 O64 1.258 1_554 S
C63 O65 1.256 . S
O64 Cd56 2.381 1_556 S
O64 C63 1.258 1_556 S
O65 Cd56 2.378 . S
O65 C63 1.256 . S
O66 Cd67 2.300 . S
O66 C73 1.275 . S
Cd67 O66 2.300 . S
Cd67 O75 2.381 . S
Cd67 O76 2.378 . S
O68 Cd69 2.385 . S
O68 C73 1.255 . S
Cd69 O68 2.385 . S
Cd69 O70 2.317 . S
O70 Cd69 2.317 . S
O70 C71 1.232 . S
C71 O70 1.232 . S
C71 O72 1.218 . S
O72 C71 1.218 . S
C73 O66 1.275 . S
C73 O68 1.255 . S
C74 O75 1.258 . S
C74 O76 1.256 . S
O75 Cd67 2.381 . S
O75 C74 1.258 . S
O76 Cd67 2.378 . S
O76 C74 1.256 . S
O77 Cd78 2.301 . S
O77 C84 1.276 . S
Cd78 O77 2.301 . S
Cd78 O86 2.381 1_556 S
Cd78 O87 2.378 . S
O79 Cd80 2.385 . S
O79 C84 1.255 . S
Cd80 O79 2.385 . S
Cd80 O81 2.317 . S
O81 Cd80 2.317 . S
O81 C82 1.232 . S
C82 O81 1.232 . S
C82 O83 1.218 . S
O83 C82 1.218 . S
C84 O77 1.276 . S
C84 O79 1.255 . S
C85 O86 1.258 . S
C85 O87 1.256 1_554 S
O86 Cd78 2.381 1_554 S
O86 C85 1.258 . S
O87 Cd78 2.378 . S
O87 C85 1.256 1_556 S
O88 Cd89 2.300 . S
O88 C95 1.275 . S
Cd89 O88 2.300 . S
Cd89 O97 2.381 . S
Cd89 O98 2.378 . S
O90 Cd91 2.385 . S
O90 C95 1.255 . S
Cd91 O90 2.385 . S
Cd91 O92 2.317 . S
O92 Cd91 2.317 . S
O92 C93 1.232 . S
C93 O92 1.232 . S
C93 O94 1.218 . S
O94 C93 1.218 . S
C95 O88 1.275 . S
C95 O90 1.255 . S
C96 O97 1.258 . S
C96 O98 1.256 . S
O97 Cd89 2.381 . S
O97 C96 1.258 . S
O98 Cd89 2.378 . S
O98 C96 1.256 . S
O99 Cd100 2.300 1_655 S
O99 C106 1.275 1_655 S
Cd100 O99 2.300 1_455 S
Cd100 O108 2.381 1_455 S
Cd100 O109 2.378 . S
O101 Cd102 2.385 . S
O101 C106 1.255 . S
Cd102 O101 2.385 . S
Cd102 O103 2.317 . S
O103 Cd102 2.317 . S
O103 C104 1.232 . S
C104 O103 1.232 . S
C104 O105 1.218 . S
O105 C104 1.218 . S
C106 O99 1.275 1_455 S
C106 O101 1.255 . S
C107 O108 1.258 1_455 S
C107 O109 1.256 . S
O108 Cd100 2.381 1_655 S
O108 C107 1.258 1_655 S
O109 Cd100 2.378 . S
O109 C107 1.256 . S
O110 Cd111 2.300 . S
O110 C117 1.275 . S
Cd111 O110 2.300 . S
Cd111 O119 2.381 . S
Cd111 O120 2.378 . S
O112 Cd113 2.385 . S
O112 C117 1.255 . S
Cd113 O112 2.385 . S
Cd113 O114 2.317 . S
O114 Cd113 2.317 . S
O114 C115 1.232 . S
C115 O114 1.232 . S
C115 O116 1.218 . S
O116 C115 1.218 . S
C117 O110 1.275 . S
C117 O112 1.255 . S
C118 O119 1.258 . S
C118 O120 1.256 . S
O119 Cd111 2.381 . S
O119 C118 1.258 . S
O120 Cd111 2.378 . S
O120 C118 1.256 . S
O121 Cd122 2.301 . S
O121 C128 1.276 . S
Cd122 O121 2.301 . S
Cd122 O130 2.381 1_655 S
Cd122 O131 2.378 . S
O123 Cd124 2.385 . S
O123 C128 1.255 . S
Cd124 O123 2.385 . S
Cd124 O125 2.317 . S
O125 Cd124 2.317 . S
O125 C126 1.232 . S
C126 O125 1.232 . S
C126 O127 1.218 . S
O127 C126 1.218 . S
C128 O121 1.276 . S
C128 O123 1.255 . S
C129 O130 1.258 . S
C129 O131 1.256 1_455 S
O130 Cd122 2.381 1_455 S
O130 C129 1.258 . S
O131 Cd122 2.378 . S
O131 C129 1.256 1_655 S
O132 Cd133 2.300 . S
O132 C139 1.275 . S
Cd133 O132 2.300 . S
Cd133 O141 2.381 . S
Cd133 O142 2.378 . S
O134 Cd135 2.385 . S
O134 C139 1.255 . S
Cd135 O134 2.385 . S
Cd135 O136 2.317 . S
O136 Cd135 2.317 . S
O136 C137 1.232 . S
C137 O136 1.232 . S
C137 O138 1.218 . S
O138 C137 1.218 . S
C139 O132 1.275 . S
C139 O134 1.255 . S
C140 O141 1.258 . S
C140 O142 1.256 . S
O141 Cd133 2.381 . S
O141 C140 1.258 . S
O142 Cd133 2.378 . S
O142 C140 1.256 . S
O143 Cd144 2.300 . S
O143 C150 1.275 . S
Cd144 O143 2.300 . S
Cd144 O152 2.381 . S
Cd144 O153 2.378 . S
O145 Cd146 2.385 . S
O145 C150 1.255 . S
Cd146 O145 2.385 . S
Cd146 O147 2.317 . S
O147 Cd146 2.317 . S
O147 C148 1.232 . S
C148 O147 1.232 . S
C148 O149 1.218 . S
O149 C148 1.218 . S
C150 O143 1.275 . S
C150 O145 1.255 . S
C151 O152 1.258 . S
C151 O153 1.256 . S
O152 Cd144 2.381 . S
O152 C151 1.258 . S
O153 Cd144 2.378 . S
O153 C151 1.256 . S
O154 Cd155 2.300 1_545 S
O154 C161 1.275 . S
Cd155 O154 2.300 1_565 S
Cd155 O163 2.381 1_565 S
Cd155 O164 2.378 . S
O156 Cd157 2.385 . S
O156 C161 1.255 1_565 S
Cd157 O156 2.385 . S
Cd157 O158 2.317 . S
O158 Cd157 2.317 . S
O158 C159 1.232 . S
C159 O158 1.232 . S
C159 O160 1.218 . S
O160 C159 1.218 . S
C161 O154 1.275 . S
C161 O156 1.255 1_545 S
C162 O163 1.258 1_565 S
C162 O164 1.256 . S
O163 Cd155 2.381 1_545 S
O163 C162 1.258 1_545 S
O164 Cd155 2.378 . S
O164 C162 1.256 . S
O165 Cd166 2.300 1_565 S
O165 C172 1.275 1_565 S
Cd166 O165 2.300 1_545 S
Cd166 O174 2.381 1_545 S
Cd166 O175 2.378 . S
O167 Cd168 2.385 . S
O167 C172 1.255 . S
Cd168 O167 2.385 . S
Cd168 O169 2.317 . S
O169 Cd168 2.317 . S
O169 C170 1.232 . S
C170 O169 1.232 . S
C170 O171 1.218 . S
O171 C170 1.218 . S
C172 O165 1.275 1_545 S
C172 O167 1.255 . S
C173 O174 1.258 1_545 S
C173 O175 1.256 . S
O174 Cd166 2.381 1_565 S
O174 C173 1.258 1_565 S
O175 Cd166 2.378 . S
O175 C173 1.256 . S
O176 Cd177 2.300 . S
O176 C183 1.275 . S
Cd177 O176 2.300 . S
Cd177 O185 2.381 . S
Cd177 O186 2.378 . S
O178 Cd179 2.385 . S
O178 C183 1.255 . S
Cd179 O178 2.385 . S
Cd179 O180 2.317 . S
O180 Cd179 2.317 . S
O180 C181 1.232 . S
C181 O180 1.232 . S
C181 O182 1.218 . S
O182 C181 1.218 . S
C183 O176 1.275 . S
C183 O178 1.255 . S
C184 O185 1.258 . S
C184 O186 1.256 . S
O185 Cd177 2.381 . S
O185 C184 1.258 . S
O186 Cd177 2.378 . S
O186 C184 1.256 . S
O187 Cd188 2.300 1_556 S
O187 C194 1.275 1_556 S
Cd188 O187 2.300 1_554 S
Cd188 O196 2.381 1_554 S
Cd188 O197 2.378 . S
O189 Cd190 2.385 . S
O189 C194 1.255 . S
Cd190 O189 2.385 . S
Cd190 O191 2.317 . S
O191 Cd190 2.317 . S
O191 C192 1.232 . S
C192 O191 1.232 . S
C192 O193 1.218 . S
O193 C192 1.218 . S
C194 O187 1.275 1_554 S
C194 O189 1.255 . S
C195 O196 1.258 1_554 S
C195 O197 1.256 . S
O196 Cd188 2.381 1_556 S
O196 C195 1.258 1_556 S
O197 Cd188 2.378 . S
O197 C195 1.256 . S
O198 Cd199 2.300 . S
O198 C205 1.275 . S
Cd199 O198 2.300 . S
Cd199 O207 2.381 . S
Cd199 O208 2.378 . S
O200 Cd201 2.385 . S
O200 C205 1.255 . S
Cd201 O200 2.385 . S
Cd201 O202 2.317 . S
O202 Cd201 2.317 . S
O202 C203 1.232 . S
C203 O202 1.232 . S
C203 O204 1.218 . S
O204 C203 1.218 . S
C205 O198 1.275 . S
C205 O200 1.255 . S
C206 O207 1.258 . S
C206 O208 1.256 . S
O207 Cd199 2.381 . S
O207 C206 1.258 . S
O208 Cd199 2.378 . S
O208 C206 1.256 . S
O209 Cd210 2.300 1_554 S
O209 C216 1.275 . S
Cd210 O209 2.300 1_556 S
Cd210 O218 2.381 1_556 S
Cd210 O219 2.378 . S
O211 Cd212 2.385 . S
O211 C216 1.255 1_556 S
Cd212 O211 2.385 . S
Cd212 O213 2.317 . S
O213 Cd212 2.317 . S
O213 C214 1.232 . S
C214 O213 1.232 . S
C214 O215 1.218 . S
O215 C214 1.218 . S
C216 O209 1.275 . S
C216 O211 1.255 1_554 S
C217 O218 1.258 1_556 S
C217 O219 1.256 . S
O218 Cd210 2.381 1_554 S
O218 C217 1.258 1_554 S
O219 Cd210 2.378 . S
O219 C217 1.256 . S
O220 Cd221 2.300 . S
O220 C227 1.275 . S
Cd221 O220 2.300 . S
Cd221 O229 2.381 . S
Cd221 O230 2.378 . S
O222 Cd223 2.385 . S
O222 C227 1.255 . S
Cd223 O222 2.385 . S
Cd223 O224 2.317 . S
O224 Cd223 2.317 . S
O224 C225 1.232 . S
C225 O224 1.232 . S
C225 O226 1.218 . S
O226 C225 1.218 . S
C227 O220 1.275 . S
C227 O222 1.255 . S
C228 O229 1.258 . S
C228 O230 1.256 . S
O229 Cd221 2.381 . S
O229 C228 1.258 . S
O230 Cd221 2.378 . S
O230 C228 1.256 . S
O231 Cd232 2.300 1_655 S
O231 C238 1.275 1_655 S
Cd232 O231 2.300 1_455 S
Cd232 O240 2.381 1_455 S
Cd232 O241 2.378 . S
O233 Cd234 2.385 . S
O233 C238 1.255 . S
Cd234 O233 2.385 . S
Cd234 O235 2.317 . S
O235 Cd234 2.317 . S
O235 C236 1.232 . S
C236 O235 1.232 . S
C236 O237 1.218 . S
O237 C236 1.218 . S
C238 O231 1.275 1_455 S
C238 O233 1.255 . S
C239 O240 1.258 1_455 S
C239 O241 1.256 . S
O240 Cd232 2.381 1_655 S
O240 C239 1.258 1_655 S
O241 Cd232 2.378 . S
O241 C239 1.256 . S
O242 Cd243 2.300 . S
O242 C249 1.275 . S
Cd243 O242 2.300 . S
Cd243 O251 2.381 . S
Cd243 O252 2.378 . S
O244 Cd245 2.385 . S
O244 C249 1.255 . S
Cd245 O244 2.385 . S
Cd245 O246 2.317 . S
O246 Cd245 2.317 . S
O246 C247 1.232 . S
C247 O246 1.232 . S
C247 O248 1.218 . S
O248 C247 1.218 . S
C249 O242 1.275 . S
C249 O244 1.255 . S
C250 O251 1.258 . S
C250 O252 1.256 . S
O251 Cd243 2.381 . S
O251 C250 1.258 . S
O252 Cd243 2.378 . S
O252 C250 1.256 . S
O253 Cd254 2.300 1_455 S
O253 C260 1.275 . S
Cd254 O253 2.300 1_655 S
Cd254 O262 2.381 1_655 S
Cd254 O263 2.378 . S
O255 Cd256 2.385 . S
O255 C260 1.255 1_655 S
Cd256 O255 2.385 . S
Cd256 O257 2.317 . S
O257 Cd256 2.317 . S
O257 C258 1.232 . S
C258 O257 1.232 . S
C258 O259 1.218 . S
O259 C258 1.218 . S
C260 O253 1.275 . S
C260 O255 1.255 1_455 S
C261 O262 1.258 1_655 S
C261 O263 1.256 . S
O262 Cd254 2.381 1_455 S
O262 C261 1.258 1_455 S
O263 Cd254 2.378 . S
O263 C261 1.256 . S
H264 C271 0.929 . S
H265 C274 0.930 . S
H266 C276 0.929 . S
H267 C268 0.969 . S
C268 H267 0.969 . S
C268 O269 1.550 . S
C268 H270 0.973 . S
O269 C268 1.550 . S
O269 C275 1.412 . S
H270 C268 0.973 . S
C271 H264 0.929 . S
C271 C272 1.400 . S
C271 C273 1.364 . S
C272 C271 1.400 . S
C272 C276 1.377 . S
C273 C271 1.364 . S
C273 C274 1.374 . S
C274 H265 0.930 . S
C274 C273 1.374 . S
C274 C275 1.383 . S
C275 O269 1.412 . S
C275 C274 1.383 . S
C275 C276 1.394 . S
C276 H266 0.929 . S
C276 C272 1.377 . S
C276 C275 1.394 . S
H277 C284 0.929 . S
H278 C287 0.930 . S
H279 C289 0.929 . S
H280 C281 0.969 . S
C281 H280 0.969 . S
C281 O282 1.550 . S
C281 H283 0.973 . S
O282 C281 1.550 . S
O282 C288 1.412 . S
H283 C281 0.973 . S
C284 H277 0.929 . S
C284 C285 1.400 . S
C284 C286 1.364 . S
C285 C284 1.400 . S
C285 C289 1.377 . S
C286 C284 1.364 . S
C286 C287 1.374 . S
C287 H278 0.930 . S
C287 C286 1.374 . S
C287 C288 1.383 . S
C288 O282 1.412 . S
C288 C287 1.383 . S
C288 C289 1.394 . S
C289 H279 0.929 . S
C289 C285 1.377 . S
C289 C288 1.394 . S
H290 C297 0.929 . S
H291 C300 0.930 . S
H292 C302 0.929 . S
H293 C294 0.969 . S
C294 H293 0.969 . S
C294 O295 1.550 . S
C294 H296 0.973 . S
O295 C294 1.550 . S
O295 C301 1.412 . S
H296 C294 0.973 . S
C297 H290 0.929 . S
C297 C298 1.400 . S
C297 C299 1.364 . S
C298 C297 1.400 . S
C298 C302 1.377 . S
C299 C297 1.364 . S
C299 C300 1.374 1_565 S
C300 H291 0.930 . S
C300 C299 1.374 1_545 S
C300 C301 1.383 . S
C301 O295 1.412 . S
C301 C300 1.383 . S
C301 C302 1.394 1_545 S
C302 H292 0.929 . S
C302 C298 1.377 . S
C302 C301 1.394 1_565 S
H303 C310 0.929 . S
H304 C313 0.930 . S
H305 C315 0.898 1_556 S
H306 C307 0.969 . S
C307 H306 0.969 . S
C307 O308 1.550 . S
C307 H309 0.973 . S
O308 C307 1.550 . S
O308 C314 1.412 . S
H309 C307 0.973 . S
C310 H303 0.929 . S
C310 C311 1.400 . S
C310 C312 1.364 1_545 S
C311 C310 1.400 . S
C311 C315 1.377 1_545 S
C312 C310 1.364 1_565 S
C312 C313 1.374 . S
C313 H304 0.930 . S
C313 C312 1.374 . S
C313 C314 1.383 . S
C314 O308 1.412 . S
C314 C313 1.383 . S
C314 C315 1.394 . S
C315 H305 0.898 1_554 S
C315 C311 1.377 1_565 S
C315 C314 1.394 . S
H316 C323 0.929 . S
H317 C326 0.930 . S
H318 C328 0.929 . S
H319 C320 0.969 . S
C320 H319 0.969 . S
C320 O321 1.550 . S
C320 H322 0.973 . S
O321 C320 1.550 . S
O321 C327 1.412 . S
H322 C320 0.973 . S
C323 H316 0.929 . S
C323 C324 1.400 . S
C323 C325 1.364 . S
C324 C323 1.400 . S
C324 C328 1.377 . S
C325 C323 1.364 . S
C325 C326 1.374 . S
C326 H317 0.930 . S
C326 C325 1.374 . S
C326 C327 1.383 . S
C327 O321 1.412 . S
C327 C326 1.383 . S
C327 C328 1.394 . S
C328 H318 0.929 . S
C328 C324 1.377 . S
C328 C327 1.394 . S
H329 C336 0.929 . S
H330 C339 0.930 . S
H331 C341 0.898 1_655 S
H332 C333 0.969 . S
C333 H332 0.969 . S
C333 O334 1.550 . S
C333 H335 0.973 . S
O334 C333 1.550 . S
O334 C340 1.412 . S
H335 C333 0.973 . S
C336 H329 0.929 . S
C336 C337 1.400 . S
C336 C338 1.364 1_554 S
C337 C336 1.400 . S
C337 C341 1.377 1_554 S
C338 C336 1.364 1_556 S
C338 C339 1.374 . S
C339 H330 0.930 . S
C339 C338 1.374 . S
C339 C340 1.383 . S
C340 O334 1.412 . S
C340 C339 1.383 . S
C340 C341 1.394 . S
C341 H331 0.898 1_455 S
C341 C337 1.377 1_556 S
C341 C340 1.394 . S
H342 C349 0.929 . S
H343 C352 0.930 . S
H344 C354 0.929 . S
H345 C346 0.969 . S
C346 H345 0.969 . S
C346 O347 1.550 . S
C346 H348 0.973 . S
O347 C346 1.550 . S
O347 C353 1.412 . S
H348 C346 0.973 . S
C349 H342 0.929 . S
C349 C350 1.400 . S
C349 C351 1.364 . S
C350 C349 1.400 . S
C350 C354 1.377 . S
C351 C349 1.364 . S
C351 C352 1.374 . S
C352 H343 0.930 . S
C352 C351 1.374 . S
C352 C353 1.383 . S
C353 O347 1.412 . S
C353 C352 1.383 . S
C353 C354 1.394 . S
C354 H344 0.929 . S
C354 C350 1.377 . S
C354 C353 1.394 . S
H355 C362 0.929 . S
H356 C365 0.930 . S
H357 C367 0.929 . S
H358 C359 0.969 . S
C359 H358 0.969 . S
C359 O360 1.550 . S
C359 H361 0.973 . S
O360 C359 1.550 . S
O360 C366 1.412 . S
H361 C359 0.973 . S
C362 H355 0.929 . S
C362 C363 1.400 . S
C362 C364 1.364 . S
C363 C362 1.400 . S
C363 C367 1.377 . S
C364 C362 1.364 . S
C364 C365 1.374 1_556 S
C365 H356 0.930 . S
C365 C364 1.374 1_554 S
C365 C366 1.383 . S
C366 O360 1.412 . S
C366 C365 1.383 . S
C366 C367 1.394 1_554 S
C367 H357 0.929 . S
C367 C363 1.377 . S
C367 C366 1.394 1_556 S
H368 C375 0.929 . S
H369 C378 0.930 . S
H370 C380 0.929 . S
H371 C372 0.969 . S
C372 H371 0.969 . S
C372 O373 1.550 . S
C372 H374 0.973 . S
O373 C372 1.550 . S
O373 C379 1.412 . S
H374 C372 0.973 . S
C375 H368 0.929 . S
C375 C376 1.400 . S
C375 C377 1.364 . S
C376 C375 1.400 . S
C376 C380 1.377 . S
C377 C375 1.364 . S
C377 C378 1.374 . S
C378 H369 0.930 . S
C378 C377 1.374 . S
C378 C379 1.383 . S
C379 O373 1.412 . S
C379 C378 1.383 . S
C379 C380 1.394 . S
C380 H370 0.929 . S
C380 C376 1.377 . S
C380 C379 1.394 . S
H381 C388 0.929 . S
H382 C391 0.930 . S
H383 C393 0.898 1_565 S
H384 C385 0.969 . S
C385 H384 0.969 . S
C385 O386 1.550 . S
C385 H387 0.973 . S
O386 C385 1.550 . S
O386 C392 1.412 . S
H387 C385 0.973 . S
C388 H381 0.929 . S
C388 C389 1.400 . S
C388 C390 1.364 1_455 S
C389 C388 1.400 . S
C389 C393 1.377 1_455 S
C390 C388 1.364 1_655 S
C390 C391 1.374 . S
C391 H382 0.930 . S
C391 C390 1.374 . S
C391 C392 1.383 . S
C392 O386 1.412 . S
C392 C391 1.383 . S
C392 C393 1.394 . S
C393 H383 0.898 1_545 S
C393 C389 1.377 1_655 S
C393 C392 1.394 . S
H394 C401 0.929 . S
H395 C404 0.930 . S
H396 C406 0.929 . S
H397 C398 0.969 . S
C398 H397 0.969 . S
C398 O399 1.550 . S
C398 H400 0.973 . S
O399 C398 1.550 . S
O399 C405 1.412 . S
H400 C398 0.973 . S
C401 H394 0.929 . S
C401 C402 1.400 . S
C401 C403 1.364 . S
C402 C401 1.400 . S
C402 C406 1.377 . S
C403 C401 1.364 . S
C403 C404 1.374 . S
C404 H395 0.930 . S
C404 C403 1.374 . S
C404 C405 1.383 . S
C405 O399 1.412 . S
C405 C404 1.383 . S
C405 C406 1.394 . S
C406 H396 0.929 . S
C406 C402 1.377 . S
C406 C405 1.394 . S
H407 C414 0.929 . S
H408 C417 0.930 . S
H409 C419 0.929 . S
H410 C411 0.969 . S
C411 H410 0.969 . S
C411 O412 1.550 . S
C411 H413 0.973 . S
O412 C411 1.550 . S
O412 C418 1.412 . S
H413 C411 0.973 . S
C414 H407 0.929 . S
C414 C415 1.400 . S
C414 C416 1.364 . S
C415 C414 1.400 . S
C415 C419 1.377 . S
C416 C414 1.364 . S
C416 C417 1.374 1_655 S
C417 H408 0.930 . S
C417 C416 1.374 1_455 S
C417 C418 1.383 . S
C418 O412 1.412 . S
C418 C417 1.383 . S
C418 C419 1.394 1_455 S
C419 H409 0.929 . S
C419 C415 1.377 . S
C419 C418 1.394 1_655 S
H420 C427 0.929 . S
H421 C430 0.930 . S
H422 C432 0.929 . S
H423 C424 0.969 . S
C424 H423 0.969 . S
C424 O425 1.550 . S
C424 H426 0.973 . S
O425 C424 1.550 . S
O425 C431 1.412 . S
H426 C424 0.973 . S
C427 H420 0.929 . S
C427 C428 1.400 . S
C427 C429 1.364 . S
C428 C427 1.400 . S
C428 C432 1.377 . S
C429 C427 1.364 . S
C429 C430 1.374 . S
C430 H421 0.930 . S
C430 C429 1.374 . S
C430 C431 1.383 . S
C431 O425 1.412 . S
C431 C430 1.383 . S
C431 C432 1.394 . S
C432 H422 0.929 . S
C432 C428 1.377 . S
C432 C431 1.394 . S
H433 C440 0.929 . S
H434 C443 0.930 . S
H435 C445 0.929 . S
H436 C437 0.969 . S
C437 H436 0.969 . S
C437 O438 1.550 . S
C437 H439 0.973 . S
O438 C437 1.550 . S
O438 C444 1.412 . S
H439 C437 0.973 . S
C440 H433 0.929 . S
C440 C441 1.400 . S
C440 C442 1.364 . S
C441 C440 1.400 . S
C441 C445 1.377 . S
C442 C440 1.364 . S
C442 C443 1.374 . S
C443 H434 0.930 . S
C443 C442 1.374 . S
C443 C444 1.383 . S
C444 O438 1.412 . S
C444 C443 1.383 . S
C444 C445 1.394 . S
C445 H435 0.929 . S
C445 C441 1.377 . S
C445 C444 1.394 . S
H446 C453 0.929 . S
H447 C456 0.930 . S
H448 C458 0.929 . S
H449 C450 0.969 . S
C450 H449 0.969 . S
C450 O451 1.550 . S
C450 H452 0.973 . S
O451 C450 1.550 . S
O451 C457 1.412 . S
H452 C450 0.973 . S
C453 H446 0.929 . S
C453 C454 1.400 . S
C453 C455 1.364 . S
C454 C453 1.400 . S
C454 C458 1.377 . S
C455 C453 1.364 . S
C455 C456 1.374 1_545 S
C456 H447 0.930 . S
C456 C455 1.374 1_565 S
C456 C457 1.383 . S
C457 O451 1.412 . S
C457 C456 1.383 . S
C457 C458 1.394 1_565 S
C458 H448 0.929 . S
C458 C454 1.377 . S
C458 C457 1.394 1_545 S
H459 C466 0.929 . S
H460 C469 0.930 . S
H461 C471 0.906 1_554 S
H462 C463 0.969 . S
C463 H462 0.969 . S
C463 O464 1.550 . S
C463 H465 0.973 . S
O464 C463 1.550 . S
O464 C470 1.412 . S
H465 C463 0.973 . S
C466 H459 0.929 . S
C466 C467 1.400 . S
C466 C468 1.364 1_565 S
C467 C466 1.400 . S
C467 C471 1.377 1_565 S
C468 C466 1.364 1_545 S
C468 C469 1.374 . S
C469 H460 0.930 . S
C469 C468 1.374 . S
C469 C470 1.383 . S
C470 O464 1.412 . S
C470 C469 1.383 . S
C470 C471 1.394 . S
C471 H461 0.906 1_556 S
C471 C467 1.377 1_545 S
C471 C470 1.394 . S
H472 C479 0.929 . S
H473 C482 0.930 . S
H474 C484 0.929 . S
H475 C476 0.969 . S
C476 H475 0.969 . S
C476 O477 1.550 . S
C476 H478 0.973 . S
O477 C476 1.550 . S
O477 C483 1.412 . S
H478 C476 0.973 . S
C479 H472 0.929 . S
C479 C480 1.400 . S
C479 C481 1.364 . S
C480 C479 1.400 . S
C480 C484 1.377 . S
C481 C479 1.364 . S
C481 C482 1.374 . S
C482 H473 0.930 . S
C482 C481 1.374 . S
C482 C483 1.383 . S
C483 O477 1.412 . S
C483 C482 1.383 . S
C483 C484 1.394 . S
C484 H474 0.929 . S
C484 C480 1.377 . S
C484 C483 1.394 . S
H485 C492 0.929 . S
H486 C495 0.930 . S
H487 C497 0.906 1_455 S
H488 C489 0.969 . S
C489 H488 0.969 . S
C489 O490 1.550 . S
C489 H491 0.973 . S
O490 C489 1.550 . S
O490 C496 1.412 . S
H491 C489 0.973 . S
C492 H485 0.929 . S
C492 C493 1.400 . S
C492 C494 1.364 1_556 S
C493 C492 1.400 . S
C493 C497 1.377 1_556 S
C494 C492 1.364 1_554 S
C494 C495 1.374 . S
C495 H486 0.930 . S
C495 C494 1.374 . S
C495 C496 1.383 . S
C496 O490 1.412 . S
C496 C495 1.383 . S
C496 C497 1.394 . S
C497 H487 0.906 1_655 S
C497 C493 1.377 1_554 S
C497 C496 1.394 . S
H498 C505 0.929 . S
H499 C508 0.930 . S
H500 C510 0.929 . S
H501 C502 0.969 . S
C502 H501 0.969 . S
C502 O503 1.550 . S
C502 H504 0.973 . S
O503 C502 1.550 . S
O503 C509 1.412 . S
H504 C502 0.973 . S
C505 H498 0.929 . S
C505 C506 1.400 . S
C505 C507 1.364 . S
C506 C505 1.400 . S
C506 C510 1.377 . S
C507 C505 1.364 . S
C507 C508 1.374 . S
C508 H499 0.930 . S
C508 C507 1.374 . S
C508 C509 1.383 . S
C509 O503 1.412 . S
C509 C508 1.383 . S
C509 C510 1.394 . S
C510 H500 0.929 . S
C510 C506 1.377 . S
C510 C509 1.394 . S
H511 C518 0.929 . S
H512 C521 0.930 . S
H513 C523 0.929 . S
H514 C515 0.969 . S
C515 H514 0.969 . S
C515 O516 1.550 . S
C515 H517 0.973 . S
O516 C515 1.550 . S
O516 C522 1.412 . S
H517 C515 0.973 . S
C518 H511 0.929 . S
C518 C519 1.400 . S
C518 C520 1.364 . S
C519 C518 1.400 . S
C519 C523 1.377 . S
C520 C518 1.364 . S
C520 C521 1.374 1_554 S
C521 H512 0.930 . S
C521 C520 1.374 1_556 S
C521 C522 1.383 . S
C522 O516 1.412 . S
C522 C521 1.383 . S
C522 C523 1.394 1_556 S
C523 H513 0.929 . S
C523 C519 1.377 . S
C523 C522 1.394 1_554 S
H524 C531 0.929 . S
H525 C534 0.930 . S
H526 C536 0.929 . S
H527 C528 0.969 . S
C528 H527 0.969 . S
C528 O529 1.550 . S
C528 H530 0.973 . S
O529 C528 1.550 . S
O529 C535 1.412 . S
H530 C528 0.973 . S
C531 H524 0.929 . S
C531 C532 1.400 . S
C531 C533 1.364 . S
C532 C531 1.400 . S
C532 C536 1.377 . S
C533 C531 1.364 . S
C533 C534 1.374 . S
C534 H525 0.930 . S
C534 C533 1.374 . S
C534 C535 1.383 . S
C535 O529 1.412 . S
C535 C534 1.383 . S
C535 C536 1.394 . S
C536 H526 0.929 . S
C536 C532 1.377 . S
C536 C535 1.394 . S
H537 C544 0.929 . S
H538 C547 0.930 . S
H539 C549 0.906 1_545 S
H540 C541 0.969 . S
C541 H540 0.969 . S
C541 O542 1.550 . S
C541 H543 0.973 . S
O542 C541 1.550 . S
O542 C548 1.412 . S
H543 C541 0.973 . S
C544 H537 0.929 . S
C544 C545 1.400 . S
C544 C546 1.364 1_655 S
C545 C544 1.400 . S
C545 C549 1.377 1_655 S
C546 C544 1.364 1_455 S
C546 C547 1.374 . S
C547 H538 0.930 . S
C547 C546 1.374 . S
C547 C548 1.383 . S
C548 O542 1.412 . S
C548 C547 1.383 . S
C548 C549 1.394 . S
C549 H539 0.906 1_565 S
C549 C545 1.377 1_455 S
C549 C548 1.394 . S
H550 C557 0.929 . S
H551 C560 0.930 . S
H552 C562 0.929 . S
H553 C554 0.969 . S
C554 H553 0.969 . S
C554 O555 1.550 . S
C554 H556 0.973 . S
O555 C554 1.550 . S
O555 C561 1.412 . S
H556 C554 0.973 . S
C557 H550 0.929 . S
C557 C558 1.400 . S
C557 C559 1.364 . S
C558 C557 1.400 . S
C558 C562 1.377 . S
C559 C557 1.364 . S
C559 C560 1.374 . S
C560 H551 0.930 . S
C560 C559 1.374 . S
C560 C561 1.383 . S
C561 O555 1.412 . S
C561 C560 1.383 . S
C561 C562 1.394 . S
C562 H552 0.929 . S
C562 C558 1.377 . S
C562 C561 1.394 . S
H563 C570 0.929 . S
H564 C573 0.930 . S
H565 C575 0.929 . S
H566 C567 0.969 . S
C567 H566 0.969 . S
C567 O568 1.550 . S
C567 H569 0.973 . S
O568 C567 1.550 . S
O568 C574 1.412 . S
H569 C567 0.973 . S
C570 H563 0.929 . S
C570 C571 1.400 . S
C570 C572 1.364 . S
C571 C570 1.400 . S
C571 C575 1.377 . S
C572 C570 1.364 . S
C572 C573 1.374 1_455 S
C573 H564 0.930 . S
C573 C572 1.374 1_655 S
C573 C574 1.383 . S
C574 O568 1.412 . S
C574 C573 1.383 . S
C574 C575 1.394 1_655 S
C575 H565 0.929 . S
C575 C571 1.377 . S
C575 C574 1.394 1_455 S
C576 C577 1.387 . S
C576 H580 0.950 . S
C576 C585 1.390 . S
C577 C576 1.387 . S
C577 C579 1.387 . S
H578 C585 0.950 . S
C579 C577 1.387 . S
C579 C581 1.390 . S
C579 H583 0.950 . S
H580 C576 0.950 . S
C581 C579 1.390 . S
C581 C582 1.387 . S
C581 H584 0.950 . S
C582 C581 1.387 . S
C582 C585 1.387 . S
H583 C579 0.950 . S
H584 C581 0.950 . S
C585 C576 1.390 . S
C585 H578 0.950 . S
C585 C582 1.387 . S
C586 C587 1.387 . S
C586 H590 0.950 . S
C586 C595 1.390 . S
C587 C586 1.387 . S
C587 C589 1.387 . S
H588 C595 0.950 . S
C589 C587 1.387 . S
C589 C591 1.390 . S
C589 H593 0.950 . S
H590 C586 0.950 . S
C591 C589 1.390 . S
C591 C592 1.387 . S
C591 H594 0.950 . S
C592 C591 1.387 . S
C592 C595 1.387 . S
H593 C589 0.950 . S
H594 C591 0.950 . S
C595 C586 1.390 . S
C595 H588 0.950 . S
C595 C592 1.387 . S
C596 C597 1.387 . S
C596 H600 0.950 . S
C596 C605 1.390 . S
C597 C596 1.387 . S
C597 C599 1.387 1_545 S
H598 C605 0.950 . S
C599 C597 1.387 1_565 S
C599 C601 1.390 1_565 S
C599 H603 0.950 . S
H600 C596 0.950 . S
C601 C599 1.390 1_545 S
C601 C602 1.387 . S
C601 H604 0.950 1_545 S
C602 C601 1.387 . S
C602 C605 1.387 . S
H603 C599 0.950 . S
H604 C601 0.950 1_565 S
C605 C596 1.390 . S
C605 H598 0.950 . S
C605 C602 1.387 . S
C606 C607 1.387 . S
C606 H610 0.950 . S
C606 C615 1.390 . S
C607 C606 1.387 . S
C607 C609 1.387 . S
H608 C615 0.950 . S
C609 C607 1.387 . S
C609 C611 1.390 . S
C609 H613 0.950 1_565 S
H610 C606 0.950 . S
C611 C609 1.390 . S
C611 C612 1.387 . S
C611 H614 0.950 . S
C612 C611 1.387 . S
C612 C615 1.387 . S
H613 C609 0.950 1_545 S
H614 C611 0.950 . S
C615 C606 1.390 . S
C615 H608 0.950 . S
C615 C612 1.387 . S
C616 C617 1.387 . S
C616 H620 0.950 . S
C616 C625 1.390 . S
C617 C616 1.387 . S
C617 C619 1.387 . S
H618 C625 0.950 . S
C619 C617 1.387 . S
C619 C621 1.390 . S
C619 H623 0.950 . S
H620 C616 0.950 . S
C621 C619 1.390 . S
C621 C622 1.387 . S
C621 H624 0.950 . S
C622 C621 1.387 . S
C622 C625 1.387 . S
H623 C619 0.950 . S
H624 C621 0.950 . S
C625 C616 1.390 . S
C625 H618 0.950 . S
C625 C622 1.387 . S
C626 C627 1.387 1_554 S
C626 H630 0.950 . S
C626 C635 1.390 . S
C627 C626 1.387 1_556 S
C627 C629 1.387 . S
H628 C635 0.950 . S
C629 C627 1.387 . S
C629 C631 1.390 . S
C629 H633 0.950 . S
H630 C626 0.950 . S
C631 C629 1.390 . S
C631 C632 1.387 . S
C631 H634 0.950 . S
C632 C631 1.387 . S
C632 C635 1.387 1_556 S
H633 C629 0.950 . S
H634 C631 0.950 . S
C635 C626 1.390 . S
C635 H628 0.950 . S
C635 C632 1.387 1_554 S
C636 C637 1.387 . S
C636 H640 0.950 . S
C636 C645 1.390 . S
C637 C636 1.387 . S
C637 C639 1.387 . S
H638 C645 0.950 . S
C639 C637 1.387 . S
C639 C641 1.390 . S
C639 H643 0.950 . S
H640 C636 0.950 . S
C641 C639 1.390 . S
C641 C642 1.387 . S
C641 H644 0.950 . S
C642 C641 1.387 . S
C642 C645 1.387 . S
H643 C639 0.950 . S
H644 C641 0.950 . S
C645 C636 1.390 . S
C645 H638 0.950 . S
C645 C642 1.387 . S
C646 C647 1.387 . S
C646 H650 0.950 . S
C646 C655 1.390 . S
C647 C646 1.387 . S
C647 C649 1.387 1_554 S
H648 C655 0.950 . S
C649 C647 1.387 1_556 S
C649 C651 1.390 . S
C649 H653 0.950 . S
H650 C646 0.950 . S
C651 C649 1.390 . S
C651 C652 1.387 1_556 S
C651 H654 0.950 . S
C652 C651 1.387 1_554 S
C652 C655 1.387 . S
H653 C649 0.950 . S
H654 C651 0.950 . S
C655 C646 1.390 . S
C655 H648 0.950 . S
C655 C652 1.387 . S
C656 C657 1.387 . S
C656 H660 0.950 . S
C656 C665 1.390 . S
C657 C656 1.387 . S
C657 C659 1.387 . S
H658 C665 0.950 . S
C659 C657 1.387 . S
C659 C661 1.390 . S
C659 H663 0.950 . S
H660 C656 0.950 . S
C661 C659 1.390 . S
C661 C662 1.387 . S
C661 H664 0.950 . S
C662 C661 1.387 . S
C662 C665 1.387 . S
H663 C659 0.950 . S
H664 C661 0.950 . S
C665 C656 1.390 . S
C665 H658 0.950 . S
C665 C662 1.387 . S
C666 C667 1.387 . S
C666 H670 0.950 . S
C666 C675 1.390 . S
C667 C666 1.387 . S
C667 C669 1.387 . S
H668 C675 0.950 . S
C669 C667 1.387 . S
C669 C671 1.390 . S
C669 H673 0.947 1_655 S
H670 C666 0.950 . S
C671 C669 1.390 . S
C671 C672 1.387 . S
C671 H674 0.950 . S
C672 C671 1.387 . S
C672 C675 1.387 . S
H673 C669 0.947 1_455 S
H674 C671 0.950 . S
C675 C666 1.390 . S
C675 H668 0.950 . S
C675 C672 1.387 . S
C676 C677 1.387 . S
C676 H680 0.950 . S
C676 C685 1.390 . S
C677 C676 1.387 . S
C677 C679 1.387 . S
H678 C685 0.950 . S
C679 C677 1.387 . S
C679 C681 1.390 . S
C679 H683 0.950 . S
H680 C676 0.950 . S
C681 C679 1.390 . S
C681 C682 1.387 . S
C681 H684 0.950 . S
C682 C681 1.387 . S
C682 C685 1.387 . S
H683 C679 0.950 . S
H684 C681 0.950 . S
C685 C676 1.390 . S
C685 H678 0.950 . S
C685 C682 1.387 . S
C686 C687 1.387 . S
C686 H690 0.950 . S
C686 C695 1.390 . S
C687 C686 1.387 . S
C687 C689 1.387 . S
H688 C695 0.950 . S
C689 C687 1.387 . S
C689 C691 1.390 . S
C689 H693 0.950 . S
H690 C686 0.950 . S
C691 C689 1.390 . S
C691 C692 1.387 . S
C691 H694 0.950 . S
C692 C691 1.387 . S
C692 C695 1.387 . S
H693 C689 0.950 . S
H694 C691 0.950 . S
C695 C686 1.390 . S
C695 H688 0.950 . S
C695 C692 1.387 . S
C696 C697 1.387 . S
C696 H700 0.950 . S
C696 C705 1.390 . S
C697 C696 1.387 . S
C697 C699 1.387 . S
H698 C705 0.950 . S
C699 C697 1.387 . S
C699 C701 1.390 . S
C699 H703 0.950 . S
H700 C696 0.950 . S
C701 C699 1.390 . S
C701 C702 1.387 . S
C701 H704 0.950 . S
C702 C701 1.387 . S
C702 C705 1.387 . S
H703 C699 0.950 . S
H704 C701 0.950 . S
C705 C696 1.390 . S
C705 H698 0.950 . S
C705 C702 1.387 . S
C706 C707 1.387 . S
C706 H710 0.950 . S
C706 C715 1.390 . S
C707 C706 1.387 . S
C707 C709 1.387 . S
H708 C715 0.950 . S
C709 C707 1.387 . S
C709 C711 1.390 . S
C709 H713 0.950 . S
H710 C706 0.950 . S
C711 C709 1.390 . S
C711 C712 1.387 . S
C711 H714 0.950 . S
C712 C711 1.387 . S
C712 C715 1.387 . S
H713 C709 0.950 . S
H714 C711 0.950 . S
C715 C706 1.390 . S
C715 H708 0.950 . S
C715 C712 1.387 . S
C716 C717 1.387 . S
C716 H720 0.950 . S
C716 C725 1.390 . S
C717 C716 1.387 . S
C717 C719 1.387 1_565 S
H718 C725 0.950 . S
C719 C717 1.387 1_545 S
C719 C721 1.390 1_545 S
C719 H723 0.950 . S
H720 C716 0.950 . S
C721 C719 1.390 1_565 S
C721 C722 1.389 . S
C721 H724 0.949 1_565 S
C722 C721 1.389 . S
C722 C725 1.387 . S
H723 C719 0.950 . S
H724 C721 0.949 1_545 S
C725 C716 1.390 . S
C725 H718 0.950 . S
C725 C722 1.387 . S
C726 C727 1.387 1_565 S
C726 H730 0.950 . S
C726 C735 1.390 . S
C727 C726 1.387 1_545 S
C727 C729 1.387 . S
H728 C735 0.950 . S
C729 C727 1.387 . S
C729 C731 1.390 . S
C729 H733 0.950 . S
H730 C726 0.950 . S
C731 C729 1.390 . S
C731 C732 1.387 . S
C731 H734 0.950 . S
C732 C731 1.387 . S
C732 C735 1.387 1_545 S
H733 C729 0.950 . S
H734 C731 0.950 . S
C735 C726 1.390 . S
C735 H728 0.950 . S
C735 C732 1.387 1_565 S
C736 C737 1.387 . S
C736 H740 0.950 . S
C736 C745 1.390 . S
C737 C736 1.387 . S
C737 C739 1.387 . S
H738 C745 0.950 . S
C739 C737 1.387 . S
C739 C741 1.390 . S
C739 H743 0.950 . S
H740 C736 0.950 . S
C741 C739 1.390 . S
C741 C742 1.387 . S
C741 H744 0.950 . S
C742 C741 1.387 . S
C742 C745 1.387 . S
H743 C739 0.950 . S
H744 C741 0.950 . S
C745 C736 1.390 . S
C745 H738 0.950 . S
C745 C742 1.387 . S
C746 C747 1.387 . S
C746 H750 0.950 . S
C746 C755 1.390 . S
C747 C746 1.387 . S
C747 C749 1.387 . S
H748 C755 0.950 . S
C749 C747 1.387 . S
C749 C751 1.390 . S
C749 H753 0.950 . S
H750 C746 0.950 . S
C751 C749 1.390 . S
C751 C752 1.387 . S
C751 H754 0.950 . S
C752 C751 1.387 . S
C752 C755 1.387 . S
H753 C749 0.950 . S
H754 C751 0.950 . S
C755 C746 1.390 . S
C755 H748 0.950 . S
C755 C752 1.387 . S
C756 C757 1.387 . S
C756 H760 0.950 . S
C756 C765 1.390 . S
C757 C756 1.387 . S
C757 C759 1.387 . S
H758 C765 0.950 . S
C759 C757 1.387 . S
C759 C761 1.390 . S
C759 H763 0.950 . S
H760 C756 0.950 . S
C761 C759 1.390 . S
C761 C762 1.387 . S
C761 H764 0.950 . S
C762 C761 1.387 . S
C762 C765 1.387 . S
H763 C759 0.950 . S
H764 C761 0.950 . S
C765 C756 1.390 . S
C765 H758 0.950 . S
C765 C762 1.387 . S
C766 C767 1.387 . S
C766 H770 0.950 . S
C766 C775 1.390 . S
C767 C766 1.387 . S
C767 C769 1.387 1_556 S
H768 C775 0.950 . S
C769 C767 1.387 1_554 S
C769 C771 1.390 . S
C769 H773 0.950 . S
H770 C766 0.950 . S
C771 C769 1.390 . S
C771 C772 1.387 1_554 S
C771 H774 0.950 . S
C772 C771 1.387 1_556 S
C772 C775 1.387 . S
H773 C769 0.950 . S
H774 C771 0.950 . S
C775 C766 1.390 . S
C775 H768 0.950 . S
C775 C772 1.387 . S
C776 C777 1.387 . S
C776 H780 0.950 . S
C776 C785 1.390 . S
C777 C776 1.387 . S
C777 C779 1.387 . S
H778 C785 0.950 . S
C779 C777 1.387 . S
C779 C781 1.390 . S
C779 H783 0.950 . S
H780 C776 0.950 . S
C781 C779 1.390 . S
C781 C782 1.387 . S
C781 H784 0.950 . S
C782 C781 1.387 . S
C782 C785 1.387 . S
H783 C779 0.950 . S
H784 C781 0.950 . S
C785 C776 1.390 . S
C785 H778 0.950 . S
C785 C782 1.387 . S
C786 C787 1.387 . S
C786 H790 0.950 . S
C786 C795 1.390 . S
C787 C786 1.387 . S
C787 C789 1.387 . S
H788 C795 0.950 . S
C789 C787 1.387 . S
C789 C791 1.390 . S
C789 H793 0.950 . S
H790 C786 0.950 . S
C791 C789 1.390 . S
C791 C792 1.387 . S
C791 H794 0.950 . S
C792 C791 1.387 . S
C792 C795 1.387 . S
H793 C789 0.950 . S
H794 C791 0.950 . S
C795 C786 1.390 . S
C795 H788 0.950 . S
C795 C792 1.387 . S
C796 C797 1.387 . S
C796 H800 0.950 . S
C796 C805 1.390 . S
C797 C796 1.387 . S
C797 C799 1.387 . S
H798 C805 0.950 . S
C799 C797 1.387 . S
C799 C801 1.390 . S
C799 H803 0.950 . S
H800 C796 0.950 . S
C801 C799 1.390 . S
C801 C802 1.387 . S
C801 H804 0.950 . S
C802 C801 1.387 . S
C802 C805 1.387 . S
H803 C799 0.950 . S
H804 C801 0.950 . S
C805 C796 1.390 . S
C805 H798 0.950 . S
C805 C802 1.387 . S
C806 C807 1.385 1_455 S
C806 H810 0.955 . S
C806 C815 1.387 1_455 S
C807 C806 1.385 1_655 S
C807 C809 1.387 . S
H808 C815 0.950 . S
C809 C807 1.387 . S
C809 C811 1.390 . S
C809 H813 0.950 . S
H810 C806 0.955 . S
C811 C809 1.390 . S
C811 C812 1.387 . S
C811 H814 0.950 . S
C812 C811 1.387 . S
C812 C815 1.387 . S
H813 C809 0.950 . S
H814 C811 0.950 . S
C815 C806 1.387 1_655 S
C815 H808 0.950 . S
C815 C812 1.387 . S
C816 C817 1.387 . S
C816 H820 0.950 . S
C816 C825 1.390 . S
C817 C816 1.387 . S
C817 C819 1.387 . S
H818 C825 0.950 . S
C819 C817 1.387 . S
C819 C821 1.390 . S
C819 H823 0.950 . S
H820 C816 0.950 . S
C821 C819 1.390 . S
C821 C822 1.387 . S
C821 H824 0.950 . S
C822 C821 1.387 . S
C822 C825 1.387 . S
H823 C819 0.950 . S
H824 C821 0.950 . S
C825 C816 1.390 . S
C825 H818 0.950 . S
C825 C822 1.387 . S
C826 C827 1.387 . S
C826 H830 0.950 . S
C826 C835 1.390 . S
C827 C826 1.387 . S
C827 C829 1.387 . S
H828 C835 0.950 . S
C829 C827 1.387 . S
C829 C831 1.390 . S
C829 H833 0.950 . S
H830 C826 0.950 . S
C831 C829 1.390 . S
C831 C832 1.387 . S
C831 H834 0.950 . S
C832 C831 1.387 . S
C832 C835 1.387 . S
H833 C829 0.950 . S
H834 C831 0.950 . S
C835 C826 1.390 . S
C835 H828 0.950 . S
C835 C832 1.387 . S
C836 C837 1.388 1_545 S
C836 H840 0.950 . S
C836 C845 1.390 . S
C837 C836 1.388 1_565 S
C837 C839 1.387 . S
H838 C845 0.950 . S
C839 C837 1.387 . S
C839 C841 1.390 . S
C839 H843 0.950 . S
H840 C836 0.950 . S
C841 C839 1.390 . S
C841 C842 1.387 . S
C841 H844 0.950 . S
C842 C841 1.387 . S
C842 C845 1.387 1_565 S
H843 C839 0.950 . S
H844 C841 0.950 . S
C845 C836 1.390 . S
C845 H838 0.950 . S
C845 C842 1.387 1_545 S
C846 C847 1.409 . S
C846 H850 0.950 . S
C846 C855 1.390 . S
C847 C846 1.409 . S
C847 C849 1.361 1_545 S
H848 C855 0.950 . S
C849 C847 1.361 1_565 S
C849 C851 1.390 . S
C849 H853 0.950 . S
H850 C846 0.950 . S
C851 C849 1.390 . S
C851 C852 1.387 . S
C851 H854 0.950 . S
C852 C851 1.387 . S
C852 C855 1.387 1_565 S
H853 C849 0.950 . S
H854 C851 0.950 . S
C855 C846 1.390 . S
C855 H848 0.950 . S
C855 C852 1.387 1_545 S
C856 C857 1.387 . S
C856 H860 0.950 . S
C856 C865 1.390 . S
C857 C856 1.387 . S
C857 C859 1.387 . S
H858 C865 0.950 . S
C859 C857 1.387 . S
C859 C861 1.390 . S
C859 H863 0.950 . S
H860 C856 0.950 . S
C861 C859 1.390 . S
C861 C862 1.387 . S
C861 H864 0.950 . S
C862 C861 1.387 . S
C862 C865 1.387 . S
H863 C859 0.950 . S
H864 C861 0.950 . S
C865 C856 1.390 . S
C865 H858 0.950 . S
C865 C862 1.387 . S
C866 C867 1.369 1_556 S
C866 H870 0.950 . S
C866 C875 1.390 . S
C867 C866 1.369 1_554 S
C867 C869 1.402 . S
H868 C875 0.950 . S
C869 C867 1.402 . S
C869 C871 1.390 . S
C869 H873 0.950 . S
H870 C866 0.950 . S
C871 C869 1.390 . S
C871 C872 1.387 1_554 S
C871 H874 0.950 . S
C872 C871 1.387 1_556 S
C872 C875 1.387 . S
H873 C869 0.950 . S
H874 C871 0.950 . S
C875 C866 1.390 . S
C875 H868 0.950 . S
C875 C872 1.387 . S
C876 C877 1.387 . S
C876 H880 0.950 . S
C876 C885 1.390 . S
C877 C876 1.387 . S
C877 C879 1.387 . S
H878 C885 0.950 . S
C879 C877 1.387 . S
C879 C881 1.390 . S
C879 H883 0.950 . S
H880 C876 0.950 . S
C881 C879 1.390 . S
C881 C882 1.387 . S
C881 H884 0.950 . S
C882 C881 1.387 . S
C882 C885 1.387 . S
H883 C879 0.950 . S
H884 C881 0.950 . S
C885 C876 1.390 . S
C885 H878 0.950 . S
C885 C882 1.387 . S
C886 C887 1.387 . S
C886 H890 0.950 . S
C886 C895 1.390 . S
C887 C886 1.387 . S
C887 C889 1.387 1_556 S
H888 C895 0.950 . S
C889 C887 1.387 1_554 S
C889 C891 1.390 . S
C889 H893 0.950 . S
H890 C886 0.950 . S
C891 C889 1.390 . S
C891 C892 1.387 1_554 S
C891 H894 0.950 . S
C892 C891 1.387 1_556 S
C892 C895 1.387 . S
H893 C889 0.950 . S
H894 C891 0.950 . S
C895 C886 1.390 . S
C895 H888 0.950 . S
C895 C892 1.387 . S
C896 C897 1.387 . S
C896 H900 0.950 . S
C896 C905 1.390 . S
C897 C896 1.387 . S
C897 C899 1.387 . S
H898 C905 0.950 . S
C899 C897 1.387 . S
C899 C901 1.390 . S
C899 H903 0.950 . S
H900 C896 0.950 . S
C901 C899 1.390 . S
C901 C902 1.387 . S
C901 H904 0.950 . S
C902 C901 1.387 . S
C902 C905 1.387 . S
H903 C899 0.950 . S
H904 C901 0.950 . S
C905 C896 1.390 . S
C905 H898 0.950 . S
C905 C902 1.387 . S
C906 C907 1.359 1_655 S
C906 H910 0.950 . S
C906 C915 1.390 . S
C907 C906 1.359 1_455 S
C907 C909 1.411 . S
H908 C915 0.950 . S
C909 C907 1.411 . S
C909 C911 1.390 . S
C909 H913 0.950 . S
H910 C906 0.950 . S
C911 C909 1.390 . S
C911 C912 1.387 1_455 S
C911 H914 0.950 . S
C912 C911 1.387 1_655 S
C912 C915 1.387 . S
H913 C909 0.950 . S
H914 C911 0.950 . S
C915 C906 1.390 . S
C915 H908 0.950 . S
C915 C912 1.387 . S
C916 C917 1.387 . S
C916 H920 0.950 . S
C916 C925 1.390 . S
C917 C916 1.387 . S
C917 C919 1.387 . S
H918 C925 0.950 . S
C919 C917 1.387 . S
C919 C921 1.390 . S
C919 H923 0.950 . S
H920 C916 0.950 . S
C921 C919 1.390 . S
C921 C922 1.387 . S
C921 H924 0.950 . S
C922 C921 1.387 . S
C922 C925 1.387 . S
H923 C919 0.950 . S
H924 C921 0.950 . S
C925 C916 1.390 . S
C925 H918 0.950 . S
C925 C922 1.387 . S
C926 C927 1.383 1_455 S
C926 H930 0.951 . S
C926 C935 1.394 . S
C927 C926 1.383 1_655 S
C927 C929 1.387 . S
H928 C935 0.950 . S
C929 C927 1.387 . S
C929 C931 1.390 . S
C929 H933 0.950 . S
H930 C926 0.951 . S
C931 C929 1.390 . S
C931 C932 1.387 . S
C931 H934 0.950 . S
C932 C931 1.387 . S
C932 C935 1.387 1_655 S
H933 C929 0.950 . S
H934 C931 0.950 . S
C935 C926 1.394 . S
C935 H928 0.950 . S
C935 C932 1.387 1_455 S
C936 C937 1.387 . S
C936 H940 0.950 . S
C936 C945 1.390 . S
C937 C936 1.387 . S
C937 C939 1.387 . S
H938 C945 0.950 . S
C939 C937 1.387 . S
C939 C941 1.390 . S
C939 H943 0.950 . S
H940 C936 0.950 . S
C941 C939 1.390 . S
C941 C942 1.387 . S
C941 H944 0.950 . S
C942 C941 1.387 . S
C942 C945 1.387 . S
H943 C939 0.950 . S
H944 C941 0.950 . S
C945 C936 1.390 . S
C945 H938 0.950 . S
C945 C942 1.387 . S
C946 C947 1.387 . S
C946 H950 0.950 . S
C946 C955 1.390 . S
C947 C946 1.387 . S
C947 C949 1.387 . S
H948 C955 0.950 . S
C949 C947 1.387 . S
C949 C951 1.390 . S
C949 H953 0.950 . S
H950 C946 0.950 . S
C951 C949 1.390 . S
C951 C952 1.387 . S
C951 H954 0.950 . S
C952 C951 1.387 . S
C952 C955 1.387 . S
H953 C949 0.950 . S
H954 C951 0.950 . S
C955 C946 1.390 . S
C955 H948 0.950 . S
C955 C952 1.387 . S
C956 C957 1.384 1_565 S
C956 H960 0.952 . S
C956 C965 1.392 . S
C957 C956 1.384 1_545 S
C957 C959 1.387 . S
H958 C965 0.950 . S
C959 C957 1.387 . S
C959 C961 1.390 . S
C959 H963 0.950 . S
H960 C956 0.952 . S
C961 C959 1.390 . S
C961 C962 1.387 . S
C961 H964 0.950 . S
C962 C961 1.387 . S
C962 C965 1.387 1_545 S
H963 C959 0.950 . S
H964 C961 0.950 . S
C965 C956 1.392 . S
C965 H958 0.950 . S
C965 C962 1.387 1_565 S
C966 C967 1.404 . S
C966 H970 0.950 . S
C966 C975 1.390 . S
C967 C966 1.404 . S
C967 C969 1.366 1_565 S
H968 C975 0.950 . S
C969 C967 1.366 1_545 S
C969 C971 1.390 . S
C969 H973 0.950 . S
H970 C966 0.950 . S
C971 C969 1.390 . S
C971 C972 1.387 . S
C971 H974 0.950 . S
C972 C971 1.387 . S
C972 C975 1.387 1_545 S
H973 C969 0.950 . S
H974 C971 0.950 . S
C975 C966 1.390 . S
C975 H968 0.950 . S
C975 C972 1.387 1_565 S
C976 C977 1.387 . S
C976 H980 0.950 . S
C976 C985 1.390 . S
C977 C976 1.387 . S
C977 C979 1.387 . S
H978 C985 0.950 . S
C979 C977 1.387 . S
C979 C981 1.390 . S
C979 H983 0.950 . S
H980 C976 0.950 . S
C981 C979 1.390 . S
C981 C982 1.387 . S
C981 H984 0.950 . S
C982 C981 1.387 . S
C982 C985 1.387 . S
H983 C979 0.950 . S
H984 C981 0.950 . S
C985 C976 1.390 . S
C985 H978 0.950 . S
C985 C982 1.387 . S
C986 C987 1.363 1_554 S
C986 H990 0.950 . S
C986 C995 1.390 . S
C987 C986 1.363 1_556 S
C987 C989 1.407 . S
H988 C995 0.950 . S
C989 C987 1.407 . S
C989 C991 1.390 . S
C989 H993 0.950 . S
H990 C986 0.950 . S
C991 C989 1.390 . S
C991 C992 1.387 1_556 S
C991 H994 0.950 . S
C992 C991 1.387 1_554 S
C992 C995 1.387 . S
H993 C989 0.950 . S
H994 C991 0.950 . S
C995 C986 1.390 . S
C995 H988 0.950 . S
C995 C992 1.387 . S
C996 C997 1.387 . S
C996 H1000 0.950 . S
C996 C1005 1.390 . S
C997 C996 1.387 . S
C997 C999 1.387 . S
H998 C1005 0.950 . S
C999 C997 1.387 . S
C999 C1001 1.390 . S
C999 H1003 0.950 . S
H1000 C996 0.950 . S
C1001 C999 1.390 . S
C1001 C1002 1.387 . S
C1001 H1004 0.950 . S
C1002 C1001 1.387 . S
C1002 C1005 1.387 . S
H1003 C999 0.950 . S
H1004 C1001 0.950 . S
C1005 C996 1.390 . S
C1005 H998 0.950 . S
C1005 C1002 1.387 . S
C1006 C1007 1.387 1_556 S
C1006 H1010 0.950 . S
C1006 C1015 1.390 . S
C1007 C1006 1.387 1_554 S
C1007 C1009 1.387 . S
H1008 C1015 0.950 . S
C1009 C1007 1.387 . S
C1009 C1011 1.390 . S
C1009 H1013 0.950 . S
H1010 C1006 0.950 . S
C1011 C1009 1.390 . S
C1011 C1012 1.387 . S
C1011 H1014 0.950 . S
C1012 C1011 1.387 . S
C1012 C1015 1.387 1_554 S
H1013 C1009 0.950 . S
H1014 C1011 0.950 . S
C1015 C1006 1.390 . S
C1015 H1008 0.950 . S
C1015 C1012 1.387 1_556 S
C1016 C1017 1.387 . S
C1016 H1020 0.950 . S
C1016 C1025 1.390 . S
C1017 C1016 1.387 . S
C1017 C1019 1.387 . S
H1018 C1025 0.950 . S
C1019 C1017 1.387 . S
C1019 C1021 1.390 . S
C1019 H1023 0.950 . S
H1020 C1016 0.950 . S
C1021 C1019 1.390 . S
C1021 C1022 1.387 . S
C1021 H1024 0.950 . S
C1022 C1021 1.387 . S
C1022 C1025 1.387 . S
H1023 C1019 0.950 . S
H1024 C1021 0.950 . S
C1025 C1016 1.390 . S
C1025 H1018 0.950 . S
C1025 C1022 1.387 . S
C1026 C1027 1.392 . S
C1026 H1030 0.950 . S
C1026 C1035 1.390 1_655 S
C1027 C1026 1.392 . S
C1027 C1029 1.379 1_655 S
H1028 C1035 0.950 1_655 S
C1029 C1027 1.379 1_455 S
C1029 C1031 1.390 . S
C1029 H1033 0.950 . S
H1030 C1026 0.950 . S
C1031 C1029 1.390 . S
C1031 C1032 1.387 . S
C1031 H1034 0.950 . S
C1032 C1031 1.387 . S
C1032 C1035 1.387 . S
H1033 C1029 0.950 . S
H1034 C1031 0.950 . S
C1035 C1026 1.390 1_455 S
C1035 H1028 0.950 1_455 S
C1035 C1032 1.387 . S
C1036 C1037 1.387 . S
C1036 H1040 0.950 . S
C1036 C1045 1.390 . S
C1037 C1036 1.387 . S
C1037 C1039 1.387 . S
H1038 C1045 0.950 . S
C1039 C1037 1.387 . S
C1039 C1041 1.390 . S
C1039 H1043 0.950 . S
H1040 C1036 0.950 . S
C1041 C1039 1.390 . S
C1041 C1042 1.387 . S
C1041 H1044 0.950 . S
C1042 C1041 1.387 . S
C1042 C1045 1.387 . S
H1043 C1039 0.950 . S
H1044 C1041 0.950 . S
C1045 C1036 1.390 . S
C1045 H1038 0.950 . S
C1045 C1042 1.387 . S
C1046 C1047 1.387 . S
C1046 H1050 0.950 . S
C1046 C1055 1.390 . S
C1047 C1046 1.387 . S
C1047 C1049 1.387 . S
H1048 C1055 0.950 . S
C1049 C1047 1.387 . S
C1049 C1051 1.390 1_455 S
C1049 H1053 0.954 . S
H1050 C1046 0.950 . S
C1051 C1049 1.390 1_655 S
C1051 C1052 1.387 1_655 S
C1051 H1054 0.950 . S
C1052 C1051 1.387 1_455 S
C1052 C1055 1.387 . S
H1053 C1049 0.954 . S
H1054 C1051 0.950 . S
C1055 C1046 1.390 . S
C1055 H1048 0.950 . S
C1055 C1052 1.387 . S
C1056 C1057 1.387 . S
C1056 H1060 0.950 . S
C1056 C1065 1.390 . S
C1057 C1056 1.387 . S
C1057 C1059 1.387 . S
H1058 C1065 0.950 . S
C1059 C1057 1.387 . S
C1059 C1061 1.390 . S
C1059 H1063 0.950 . S
H1060 C1056 0.950 . S
C1061 C1059 1.390 . S
C1061 C1062 1.387 . S
C1061 H1064 0.950 . S
C1062 C1061 1.387 . S
C1062 C1065 1.387 . S
H1063 C1059 0.950 . S
H1064 C1061 0.950 . S
C1065 C1056 1.390 . S
C1065 H1058 0.950 . S
C1065 C1062 1.387 . S
C1066 C1067 1.387 . S
C1066 H1070 0.950 . S
C1066 C1075 1.390 . S
C1067 C1066 1.387 . S
C1067 C1069 1.387 . S
H1068 C1075 0.950 . S
C1069 C1067 1.387 . S
C1069 C1071 1.390 . S
C1069 H1073 0.950 . S
H1070 C1066 0.950 . S
C1071 C1069 1.390 . S
C1071 C1072 1.387 . S
C1071 H1074 0.950 . S
C1072 C1071 1.387 . S
C1072 C1075 1.387 . S
H1073 C1069 0.950 . S
H1074 C1071 0.950 . S
C1075 C1066 1.390 . S
C1075 H1068 0.950 . S
C1075 C1072 1.387 . S
C1076 C1077 1.387 1_565 S
C1076 H1080 0.950 . S
C1076 C1085 1.390 . S
C1077 C1076 1.387 1_545 S
C1077 C1079 1.387 . S
H1078 C1085 0.950 . S
C1079 C1077 1.387 . S
C1079 C1081 1.390 . S
C1079 H1083 0.950 . S
H1080 C1076 0.950 . S
C1081 C1079 1.390 . S
C1081 C1082 1.387 . S
C1081 H1084 0.950 . S
C1082 C1081 1.387 . S
C1082 C1085 1.387 1_545 S
H1083 C1079 0.950 . S
H1084 C1081 0.950 . S
C1085 C1076 1.390 . S
C1085 H1078 0.950 . S
C1085 C1082 1.387 1_565 S
C1086 C1087 1.387 1_545 S
C1086 H1090 0.950 . S
C1086 C1095 1.390 1_545 S
C1087 C1086 1.387 1_565 S
C1087 C1089 1.387 . S
H1088 C1095 0.950 1_545 S
C1089 C1087 1.387 . S
C1089 C1091 1.390 . S
C1089 H1093 0.950 . S
H1090 C1086 0.950 . S
C1091 C1089 1.390 . S
C1091 C1092 1.387 . S
C1091 H1094 0.950 . S
C1092 C1091 1.387 . S
C1092 C1095 1.387 . S
H1093 C1089 0.950 . S
H1094 C1091 0.950 . S
C1095 C1086 1.390 1_565 S
C1095 H1088 0.950 1_565 S
C1095 C1092 1.387 . S
C1096 C1097 1.387 . S
C1096 H1100 0.950 . S
C1096 C1105 1.390 . S
C1097 C1096 1.387 . S
C1097 C1099 1.387 . S
H1098 C1105 0.950 . S
C1099 C1097 1.387 . S
C1099 C1101 1.390 . S
C1099 H1103 0.950 . S
H1100 C1096 0.950 . S
C1101 C1099 1.390 . S
C1101 C1102 1.387 . S
C1101 H1104 0.950 . S
C1102 C1101 1.387 . S
C1102 C1105 1.387 . S
H1103 C1099 0.950 . S
H1104 C1101 0.950 . S
C1105 C1096 1.390 . S
C1105 H1098 0.950 . S
C1105 C1102 1.387 . S
C1106 C1107 1.387 . S
C1106 H1110 0.950 . S
C1106 C1115 1.390 . S
C1107 C1106 1.387 . S
C1107 C1109 1.387 1_556 S
H1108 C1115 0.950 . S
C1109 C1107 1.387 1_554 S
C1109 C1111 1.390 . S
C1109 H1113 0.950 . S
H1110 C1106 0.950 . S
C1111 C1109 1.390 . S
C1111 C1112 1.387 1_554 S
C1111 H1114 0.950 . S
C1112 C1111 1.387 1_556 S
C1112 C1115 1.387 . S
H1113 C1109 0.950 . S
H1114 C1111 0.950 . S
C1115 C1106 1.390 . S
C1115 H1108 0.950 . S
C1115 C1112 1.387 . S
C1116 C1117 1.387 . S
C1116 H1120 0.950 . S
C1116 C1125 1.390 . S
C1117 C1116 1.387 . S
C1117 C1119 1.387 . S
H1118 C1125 0.950 . S
C1119 C1117 1.387 . S
C1119 C1121 1.390 . S
C1119 H1123 0.950 . S
H1120 C1116 0.950 . S
C1121 C1119 1.390 . S
C1121 C1122 1.387 . S
C1121 H1124 0.950 . S
C1122 C1121 1.387 . S
C1122 C1125 1.387 . S
H1123 C1119 0.950 . S
H1124 C1121 0.950 . S
C1125 C1116 1.390 . S
C1125 H1118 0.950 . S
C1125 C1122 1.387 . S
C1126 C1127 1.387 . S
C1126 H1130 0.950 . S
C1126 C1135 1.390 . S
C1127 C1126 1.387 . S
C1127 C1129 1.379 1_554 S
H1128 C1135 0.950 . S
C1129 C1127 1.379 1_556 S
C1129 C1131 1.389 1_556 S
C1129 H1133 0.960 . S
H1130 C1126 0.950 . S
C1131 C1129 1.389 1_554 S
C1131 C1132 1.387 . S
C1131 H1134 0.939 1_554 S
C1132 C1131 1.387 . S
C1132 C1135 1.387 . S
H1133 C1129 0.960 . S
H1134 C1131 0.939 1_556 S
C1135 C1126 1.390 . S
C1135 H1128 0.950 . S
C1135 C1132 1.387 . S
C1136 C1137 1.387 . S
C1136 H1140 0.950 . S
C1136 C1145 1.390 . S
C1137 C1136 1.387 . S
C1137 C1139 1.387 . S
H1138 C1145 0.950 . S
C1139 C1137 1.387 . S
C1139 C1141 1.390 . S
C1139 H1143 0.950 . S
H1140 C1136 0.950 . S
C1141 C1139 1.390 . S
C1141 C1142 1.387 . S
C1141 H1144 0.950 . S
C1142 C1141 1.387 . S
C1142 C1145 1.387 . S
H1143 C1139 0.950 . S
H1144 C1141 0.950 . S
C1145 C1136 1.390 . S
C1145 H1138 0.950 . S
C1145 C1142 1.387 . S
C1146 C1147 1.387 . S
C1146 H1150 0.950 1_655 S
C1146 C1155 1.390 . S
C1147 C1146 1.387 . S
C1147 C1149 1.387 . S
H1148 C1155 0.950 . S
C1149 C1147 1.387 . S
C1149 C1151 1.390 . S
C1149 H1153 0.950 . S
H1150 C1146 0.950 1_455 S
C1151 C1149 1.390 . S
C1151 C1152 1.387 . S
C1151 H1154 0.950 . S
C1152 C1151 1.387 . S
C1152 C1155 1.387 . S
H1153 C1149 0.950 . S
H1154 C1151 0.950 . S
C1155 C1146 1.390 . S
C1155 H1148 0.950 . S
C1155 C1152 1.387 . S
C1156 C1157 1.387 . S
C1156 H1160 0.950 . S
C1156 C1165 1.390 . S
C1157 C1156 1.387 . S
C1157 C1159 1.387 . S
H1158 C1165 0.950 . S
C1159 C1157 1.387 . S
C1159 C1161 1.390 . S
C1159 H1163 0.950 . S
H1160 C1156 0.950 . S
C1161 C1159 1.390 . S
C1161 C1162 1.387 . S
C1161 H1164 0.950 . S
C1162 C1161 1.387 . S
C1162 C1165 1.387 . S
H1163 C1159 0.950 . S
H1164 C1161 0.950 . S
C1165 C1156 1.390 . S
C1165 H1158 0.950 . S
C1165 C1162 1.387 . S
C1166 C1167 1.387 . S
C1166 H1170 0.950 1_455 S
C1166 C1175 1.390 . S
C1167 C1166 1.387 . S
C1167 C1169 1.387 . S
H1168 C1175 0.950 . S
C1169 C1167 1.387 . S
C1169 C1171 1.390 . S
C1169 H1173 0.950 . S
H1170 C1166 0.950 1_655 S
C1171 C1169 1.390 . S
C1171 C1172 1.387 . S
C1171 H1174 0.950 . S
C1172 C1171 1.387 . S
C1172 C1175 1.387 . S
H1173 C1169 0.950 . S
H1174 C1171 0.950 . S
C1175 C1166 1.390 . S
C1175 H1168 0.950 . S
C1175 C1172 1.387 . S
C1176 C1177 1.387 . S
C1176 H1180 0.950 . S
C1176 C1185 1.390 . S
C1177 C1176 1.387 . S
C1177 C1179 1.387 . S
H1178 C1185 0.950 . S
C1179 C1177 1.387 . S
C1179 C1181 1.390 . S
C1179 H1183 0.950 . S
H1180 C1176 0.950 . S
C1181 C1179 1.390 . S
C1181 C1182 1.387 . S
C1181 H1184 0.950 . S
C1182 C1181 1.387 . S
C1182 C1185 1.387 . S
H1183 C1179 0.950 . S
H1184 C1181 0.950 . S
C1185 C1176 1.390 . S
C1185 H1178 0.950 . S
C1185 C1182 1.387 . S
C1186 C1187 1.387 . S
C1186 H1190 0.950 . S
C1186 C1195 1.390 . S
C1187 C1186 1.387 . S
C1187 C1189 1.387 . S
H1188 C1195 0.950 . S
C1189 C1187 1.387 . S
C1189 C1191 1.390 . S
C1189 H1193 0.950 . S
H1190 C1186 0.950 . S
C1191 C1189 1.390 . S
C1191 C1192 1.387 . S
C1191 H1194 0.950 . S
C1192 C1191 1.387 . S
C1192 C1195 1.387 . S
H1193 C1189 0.950 . S
H1194 C1191 0.950 . S
C1195 C1186 1.390 . S
C1195 H1188 0.950 . S
C1195 C1192 1.387 . S
C1196 C1197 1.387 . S
C1196 H1200 0.950 . S
C1196 C1205 1.390 . S
C1197 C1196 1.387 . S
C1197 C1199 1.387 1_565 S
H1198 C1205 0.950 . S
C1199 C1197 1.387 1_545 S
C1199 C1201 1.390 . S
C1199 H1203 0.950 . S
H1200 C1196 0.950 . S
C1201 C1199 1.390 . S
C1201 C1202 1.387 1_545 S
C1201 H1204 0.950 . S
C1202 C1201 1.387 1_565 S
C1202 C1205 1.387 . S
H1203 C1199 0.950 . S
H1204 C1201 0.950 . S
C1205 C1196 1.390 . S
C1205 H1198 0.950 . S
C1205 C1202 1.387 . S
C1206 C1207 1.387 . S
C1206 H1210 0.956 . S
C1206 C1215 1.390 . S
C1207 C1206 1.387 . S
C1207 C1209 1.387 . S
H1208 C1215 0.950 . S
C1209 C1207 1.387 . S
C1209 C1211 1.390 . S
C1209 H1213 0.950 . S
H1210 C1206 0.956 . S
C1211 C1209 1.390 . S
C1211 C1212 1.387 . S
C1211 H1214 0.950 . S
C1212 C1211 1.387 . S
C1212 C1215 1.387 . S
H1213 C1209 0.950 . S
H1214 C1211 0.950 . S
C1215 C1206 1.390 . S
C1215 H1208 0.950 . S
C1215 C1212 1.387 . S
C1216 C1217 1.387 . S
C1216 H1220 0.950 . S
C1216 C1225 1.390 . S
C1217 C1216 1.387 . S
C1217 C1219 1.387 . S
H1218 C1225 0.950 . S
C1219 C1217 1.387 . S
C1219 C1221 1.390 . S
C1219 H1223 0.950 . S
H1220 C1216 0.950 . S
C1221 C1219 1.390 . S
C1221 C1222 1.387 . S
C1221 H1224 0.950 . S
C1222 C1221 1.387 . S
C1222 C1225 1.387 . S
H1223 C1219 0.950 . S
H1224 C1221 0.950 . S
C1225 C1216 1.390 . S
C1225 H1218 0.950 . S
C1225 C1222 1.387 . S
C1226 C1227 1.387 . S
C1226 H1230 0.950 . S
C1226 C1235 1.390 . S
C1227 C1226 1.387 . S
C1227 C1229 1.387 1_554 S
H1228 C1235 0.950 . S
C1229 C1227 1.387 1_556 S
C1229 C1231 1.390 . S
C1229 H1233 0.950 . S
H1230 C1226 0.950 . S
C1231 C1229 1.390 . S
C1231 C1232 1.389 1_556 S
C1231 H1234 0.948 . S
C1232 C1231 1.389 1_554 S
C1232 C1235 1.387 . S
H1233 C1229 0.950 . S
H1234 C1231 0.948 . S
C1235 C1226 1.390 . S
C1235 H1228 0.950 . S
C1235 C1232 1.387 . S
C1236 C1237 1.387 . S
C1236 H1240 0.950 . S
C1236 C1245 1.390 . S
C1237 C1236 1.387 . S
C1237 C1239 1.387 . S
H1238 C1245 0.950 . S
C1239 C1237 1.387 . S
C1239 C1241 1.390 . S
C1239 H1243 0.950 . S
H1240 C1236 0.950 . S
C1241 C1239 1.390 . S
C1241 C1242 1.387 . S
C1241 H1244 0.950 . S
C1242 C1241 1.387 . S
C1242 C1245 1.387 . S
H1243 C1239 0.950 . S
H1244 C1241 0.950 . S
C1245 C1236 1.390 . S
C1245 H1238 0.950 . S
C1245 C1242 1.387 . S
C1246 C1247 1.387 1_554 S
C1246 H1250 0.950 . S
C1246 C1255 1.390 . S
C1247 C1246 1.387 1_556 S
C1247 C1249 1.387 . S
H1248 C1255 0.950 . S
C1249 C1247 1.387 . S
C1249 C1251 1.390 . S
C1249 H1253 0.950 . S
H1250 C1246 0.950 . S
C1251 C1249 1.390 . S
C1251 C1252 1.387 . S
C1251 H1254 0.950 . S
C1252 C1251 1.387 . S
C1252 C1255 1.387 1_556 S
H1253 C1249 0.950 . S
H1254 C1251 0.950 . S
C1255 C1246 1.390 . S
C1255 H1248 0.950 . S
C1255 C1252 1.387 1_554 S
C1256 C1257 1.387 . S
C1256 H1260 0.950 . S
C1256 C1265 1.390 . S
C1257 C1256 1.387 . S
C1257 C1259 1.387 . S
H1258 C1265 0.950 . S
C1259 C1257 1.387 . S
C1259 C1261 1.390 . S
C1259 H1263 0.950 . S
H1260 C1256 0.950 . S
C1261 C1259 1.390 . S
C1261 C1262 1.387 . S
C1261 H1264 0.950 . S
C1262 C1261 1.387 . S
C1262 C1265 1.387 . S
H1263 C1259 0.950 . S
H1264 C1261 0.950 . S
C1265 C1256 1.390 . S
C1265 H1258 0.950 . S
C1265 C1262 1.387 . S
C1266 C1267 1.387 1_655 S
C1266 H1270 0.950 . S
C1266 C1275 1.385 1_655 S
C1267 C1266 1.387 1_455 S
C1267 C1269 1.387 . S
H1268 C1275 0.934 1_655 S
C1269 C1267 1.387 . S
C1269 C1271 1.390 . S
C1269 H1273 0.950 . S
H1270 C1266 0.950 . S
C1271 C1269 1.390 . S
C1271 C1272 1.387 . S
C1271 H1274 0.950 . S
C1272 C1271 1.387 . S
C1272 C1275 1.409 . S
H1273 C1269 0.950 . S
H1274 C1271 0.950 . S
C1275 C1266 1.385 1_455 S
C1275 H1268 0.934 1_455 S
C1275 C1272 1.409 . S
C1276 C1277 1.387 . S
C1276 H1280 0.950 . S
C1276 C1285 1.390 . S
C1277 C1276 1.387 . S
C1277 C1279 1.387 . S
H1278 C1285 0.950 . S
C1279 C1277 1.387 . S
C1279 C1281 1.390 . S
C1279 H1283 0.950 . S
H1280 C1276 0.950 . S
C1281 C1279 1.390 . S
C1281 C1282 1.387 . S
C1281 H1284 0.950 . S
C1282 C1281 1.387 . S
C1282 C1285 1.387 . S
H1283 C1279 0.950 . S
H1284 C1281 0.950 . S
C1285 C1276 1.390 . S
C1285 H1278 0.950 . S
C1285 C1282 1.387 . S
C1286 C1287 1.387 1_455 S
C1286 H1290 0.950 . S
C1286 C1295 1.390 1_455 S
C1287 C1286 1.387 1_655 S
C1287 C1289 1.387 . S
H1288 C1295 0.950 1_455 S
C1289 C1287 1.387 . S
C1289 C1291 1.390 . S
C1289 H1293 0.950 . S
H1290 C1286 0.950 . S
C1291 C1289 1.390 . S
C1291 C1292 1.387 . S
C1291 H1294 0.950 . S
C1292 C1291 1.387 . S
C1292 C1295 1.387 . S
H1293 C1289 0.950 . S
H1294 C1291 0.950 . S
C1295 C1286 1.390 1_655 S
C1295 H1288 0.950 1_655 S
C1295 C1292 1.387 . S
C582 C571 1.570 . S
C577 C8 1.569 . S
C592 C532 1.569 . S
C587 C19 1.534 . S
C602 C558 1.355 . S
C597 C30 1.367 . S
C612 C545 1.615 . S
C607 C41 1.582 1_565 S
C622 C454 1.570 . S
C617 C52 1.571 . S
C627 C63 1.582 1_556 S
C632 C467 1.614 . S
C642 C428 1.569 . S
C637 C74 1.533 . S
C647 C85 1.369 . S
C652 C441 1.352 . S
C662 C519 1.570 . S
C657 C96 1.569 . S
C667 C107 1.584 1_655 S
C672 C493 1.615 . S
C677 C118 1.535 . S
C682 C480 1.569 . S
C692 C506 1.355 . S
C687 C129 1.367 . S
C702 C415 1.570 . S
C697 C140 1.533 . S
C707 C151 1.463 . S
C712 C376 1.569 . S
C722 C402 1.352 . S
C717 C162 1.340 . S
C727 C173 1.533 . S
C732 C389 1.611 . S
C742 C298 1.570 . S
C737 C184 1.533 . S
C752 C311 1.612 . S
C747 C195 1.532 . S
C757 C206 1.465 . S
C762 C272 1.567 . S
C767 C217 1.339 . S
C772 C285 1.352 . S
C777 C228 1.533 . S
C782 C363 1.570 . S
C787 C239 1.533 . S
C792 C337 1.610 . S
C802 C324 1.567 . S
C797 C250 1.466 . S
C807 C261 1.342 . S
C812 C350 1.351 . S
C822 C273 1.448 . S
C817 C7 1.488 . S
C832 C286 1.434 . S
C827 C18 1.502 . S
C837 C29 1.385 . S
C842 C299 1.381 . S
C847 C40 1.309 . S
C852 C312 1.299 . S
C862 C325 1.450 . S
C857 C51 1.487 . S
C867 C62 1.307 . S
C872 C338 1.299 . S
C882 C351 1.434 . S
C877 C73 1.502 . S
C892 C364 1.380 . S
C887 C84 1.385 . S
C902 C377 1.447 . S
C897 C95 1.487 . S
C907 C106 1.307 . S
C912 C390 1.300 . S
C917 C117 1.501 . S
C922 C403 1.430 . S
C927 C128 1.386 . S
C932 C416 1.380 . S
C937 C139 1.405 . S
C942 C429 1.448 . S
C947 C150 1.344 . S
C952 C442 1.429 . S
C957 C161 1.322 . S
C962 C455 1.378 . S
C967 C172 1.225 1_565 S
C972 C468 1.299 . S
C977 C183 1.404 . S
C982 C481 1.449 . S
C992 C494 1.298 . S
C987 C194 1.226 1_556 S
C1002 C507 1.433 . S
C997 C205 1.349 . S
C1012 C520 1.378 . S
C1007 C216 1.324 . S
C1022 C533 1.448 . S
C1017 C227 1.405 . S
C1027 C238 1.225 1_655 S
C1032 C546 1.298 . S
C1037 C249 1.346 . S
C1042 C559 1.429 . S
C1047 C260 1.325 . S
C1052 C572 1.380 . S
C1057 C5 1.354 . S
C1062 C372 1.475 . S
C1072 C411 1.515 . S
C1067 C16 1.432 . S
C1077 C27 1.300 1_545 S
C1082 C385 1.367 . S
C1092 C398 1.605 . S
C1087 C38 1.424 1_565 S
C1097 C49 1.355 . S
C1102 C268 1.475 . S
C1107 C60 1.426 1_556 S
C1112 C281 1.605 . S
C1117 C71 1.433 . S
C1122 C294 1.515 . S
C1127 C82 1.294 1_554 S
C1132 C307 1.363 . S
C1142 C320 1.474 . S
C1137 C93 1.355 . S
C1152 C346 1.607 . S
C1147 C104 1.427 1_655 S
C1157 C115 1.432 . S
C1162 C359 1.515 . S
C1167 C126 1.300 1_455 S
C1172 C333 1.368 . S
C1182 C528 1.435 . S
C1177 C137 1.240 . S
C1192 C567 1.472 . S
C1187 C148 1.208 . S
C1197 C159 1.219 . S
C1202 C541 1.340 . S
C1212 C554 1.538 . S
C1207 C170 1.209 . S
C1217 C181 1.235 . S
C1222 C424 1.437 . S
C1227 C192 1.210 . S
C1232 C437 1.537 . S
C1237 C203 1.215 . S
C1242 C450 1.468 . S
C1252 C463 1.340 . S
C1247 C214 1.219 . S
C1262 C476 1.439 . S
C1257 C225 1.234 . S
C1272 C502 1.535 . S
C1267 C236 1.212 . S
C1277 C247 1.215 . S
C1282 C515 1.468 . S
C1292 C489 1.341 . S
C1287 C258 1.219 . S
