# Generated by pormake.
# Topology apo, (3,6)-cn, num edge types: 1
# Building blocks:
#     Node 0, Type 0, BuildingBlock: BETDAH_clean_linker_0, # of connection points: 3
#     Node 1, Type 0, BuildingBlock: BETDAH_clean_linker_0, # of connection points: 3
#     Node 2, Type 0, BuildingBlock: BETDAH_clean_linker_0, # of connection points: 3
#     Node 3, Type 0, BuildingBlock: BETDAH_clean_linker_0, # of connection points: 3
#     Node 4, Type 0, BuildingBlock: BETDAH_clean_linker_0, # of connection points: 3
#     Node 5, Type 0, BuildingBlock: BETDAH_clean_linker_0, # of connection points: 3
#     Node 6, Type 0, BuildingBlock: BETDAH_clean_linker_0, # of connection points: 3
#     Node 7, Type 0, BuildingBlock: BETDAH_clean_linker_0, # of connection points: 3
#     Node 8, Type 1, BuildingBlock: KUMBUR_clean_sbu_1, # of connection points: 6
#     Node 9, Type 1, BuildingBlock: KUMBUR_clean_sbu_1, # of connection points: 6
#     Node 10, Type 1, BuildingBlock: KUMBUR_clean_sbu_1, # of connection points: 6
#     Node 11, Type 1, BuildingBlock: KUMBUR_clean_sbu_1, # of connection points: 6
#     Edge 12, Type (0, 1), BuildingBlock: MIFKUJ_clean_linker_0, # of connection points: 2
#     Edge 13, Type (0, 1), BuildingBlock: MIFKUJ_clean_linker_0, # of connection points: 2
#     Edge 14, Type (0, 1), BuildingBlock: MIFKUJ_clean_linker_0, # of connection points: 2
#     Edge 15, Type (0, 1), BuildingBlock: MIFKUJ_clean_linker_0, # of connection points: 2
#     Edge 16, Type (0, 1), BuildingBlock: MIFKUJ_clean_linker_0, # of connection points: 2
#     Edge 17, Type (0, 1), BuildingBlock: MIFKUJ_clean_linker_0, # of connection points: 2
#     Edge 18, Type (0, 1), BuildingBlock: MIFKUJ_clean_linker_0, # of connection points: 2
#     Edge 19, Type (0, 1), BuildingBlock: MIFKUJ_clean_linker_0, # of connection points: 2
#     Edge 20, Type (0, 1), BuildingBlock: MIFKUJ_clean_linker_0, # of connection points: 2
#     Edge 21, Type (0, 1), BuildingBlock: MIFKUJ_clean_linker_0, # of connection points: 2
#     Edge 22, Type (0, 1), BuildingBlock: MIFKUJ_clean_linker_0, # of connection points: 2
#     Edge 23, Type (0, 1), BuildingBlock: MIFKUJ_clean_linker_0, # of connection points: 2
#     Edge 24, Type (0, 1), BuildingBlock: MIFKUJ_clean_linker_0, # of connection points: 2
#     Edge 25, Type (0, 1), BuildingBlock: MIFKUJ_clean_linker_0, # of connection points: 2
#     Edge 26, Type (0, 1), BuildingBlock: MIFKUJ_clean_linker_0, # of connection points: 2
#     Edge 27, Type (0, 1), BuildingBlock: MIFKUJ_clean_linker_0, # of connection points: 2
#     Edge 28, Type (0, 1), BuildingBlock: MIFKUJ_clean_linker_0, # of connection points: 2
#     Edge 29, Type (0, 1), BuildingBlock: MIFKUJ_clean_linker_0, # of connection points: 2
#     Edge 30, Type (0, 1), BuildingBlock: MIFKUJ_clean_linker_0, # of connection points: 2
#     Edge 31, Type (0, 1), BuildingBlock: MIFKUJ_clean_linker_0, # of connection points: 2
#     Edge 32, Type (0, 1), BuildingBlock: MIFKUJ_clean_linker_0, # of connection points: 2
#     Edge 33, Type (0, 1), BuildingBlock: MIFKUJ_clean_linker_0, # of connection points: 2
#     Edge 34, Type (0, 1), BuildingBlock: MIFKUJ_clean_linker_0, # of connection points: 2
#     Edge 35, Type (0, 1), BuildingBlock: MIFKUJ_clean_linker_0, # of connection points: 2
# Relax obj value: 0.037
# Max RMSD: 0.207
# Mean RMSD: 0.149
data_MOF--net-apo--node1-KUMBUR_clean_sbu_1--node2-BETDAH_clean_linker_0--edge1-MIFKUJ_clean_linker_0
_symmetry_space_group_name_H-M    P1
_symmetry_Int_Tables_number       1
_symmetry_cell_setting            triclinic
loop_
_symmetry_equiv_pos_as_xyz
'x, y, z'
_cell_length_a     35.29749
_cell_length_b     55.110555
_cell_length_c     64.754006
_cell_angle_alpha  89.671551
_cell_angle_beta   90.043955
_cell_angle_gamma 90.294843
loop_
_atom_site_label
_atom_site_type_symbol
_atom_site_fract_x
_atom_site_fract_y
_atom_site_fract_z
_atom_type_partial_charge
H0 H 0.34978 0.41793 0.42697 0.0
H1 H 0.29725 0.37268 0.38083 0.0
H2 H 0.31135 0.34616 0.44289 0.0
C3 C 0.33618 0.40103 0.42263 0.0
C4 C 0.33158 0.38267 0.43753 0.0
C5 C 0.32395 0.39771 0.40212 0.0
C6 C 0.30655 0.37554 0.39658 0.0
C7 C 0.30173 0.35702 0.41147 0.0
C8 C 0.31446 0.36074 0.4317 0.0
N9 N 0.28568 0.33398 0.40689 0.0
C10 C 0.26401 0.3279 0.38971 0.0
H11 H 0.16752 0.09258 0.92385 0.0
H12 H 0.22013 0.14106 0.87991 0.0
H13 H 0.20928 0.16221 0.94343 0.0
C14 C 0.18141 0.10973 0.92042 0.0
C15 C 0.18701 0.12667 0.93625 0.0
C16 C 0.19308 0.11478 0.90009 0.0
C17 C 0.21123 0.13704 0.89557 0.0
C18 C 0.21762 0.15399 0.91143 0.0
C19 C 0.20514 0.14873 0.9315 0.0
N20 N 0.23555 0.17682 0.90806 0.0
C21 C 0.25506 0.18424 0.89044 0.0
H22 H 0.85197 0.10478 0.59096 0.0
H23 H 0.79695 0.14734 0.63774 0.0
H24 H 0.80507 0.17439 0.57544 0.0
C25 C 0.83688 0.12103 0.59541 0.0
C26 C 0.82949 0.13905 0.58059 0.0
C27 C 0.82545 0.12396 0.61605 0.0
C28 C 0.8056 0.14498 0.62183 0.0
C29 C 0.79862 0.16332 0.60708 0.0
C30 C 0.81087 0.16025 0.58671 0.0
N31 N 0.78064 0.18556 0.61196 0.0
C32 C 0.75959 0.19058 0.62956 0.0
H33 H 0.67618 0.41057 0.09032 0.0
H34 H 0.71202 0.36533 0.14131 0.0
H35 H 0.7112 0.33715 0.07983 0.0
C36 C 0.68599 0.39331 0.09627 0.0
C37 C 0.69253 0.3743 0.08236 0.0
C38 C 0.69212 0.39034 0.1177 0.0
C39 C 0.70743 0.36822 0.12496 0.0
C40 C 0.71497 0.34927 0.11109 0.0
C41 C 0.70677 0.35232 0.0901 0.0
N42 N 0.72894 0.32631 0.11753 0.0
C43 C 0.74691 0.32099 0.13613 0.0
H44 H 0.65431 0.60038 0.59169 0.0
H45 H 0.7275 0.63904 0.63352 0.0
H46 H 0.72256 0.65998 0.56955 0.0
C47 C 0.67425 0.61501 0.59454 0.0
C48 C 0.68641 0.62979 0.57805 0.0
C49 C 0.68906 0.61813 0.61453 0.0
C50 C 0.71586 0.63666 0.61818 0.0
C51 C 0.72769 0.65188 0.60184 0.0
C52 C 0.71316 0.64815 0.58197 0.0
N53 N 0.75491 0.67071 0.60434 0.0
C54 C 0.7664 0.68096 0.62292 0.0
H55 H 0.86022 0.91677 0.09227 0.0
H56 H 0.7856 0.86155 0.0685 0.0
H57 H 0.78161 0.88018 0.13279 0.0
C58 C 0.83818 0.90326 0.09461 0.0
C59 C 0.82242 0.90018 0.11441 0.0
C60 C 0.82523 0.88945 0.07782 0.0
C61 C 0.7966 0.87209 0.08127 0.0
C62 C 0.78123 0.86827 0.10097 0.0
C63 C 0.79394 0.88254 0.11759 0.0
N64 N 0.75214 0.8505 0.10301 0.0
C65 C 0.73934 0.84001 0.12135 0.0
H66 H 0.16755 0.91016 0.42342 0.0
H67 H 0.21738 0.86454 0.37698 0.0
H68 H 0.20047 0.83724 0.43855 0.0
C69 C 0.18025 0.89311 0.41898 0.0
C70 C 0.18286 0.87431 0.43363 0.0
C71 C 0.19264 0.8899 0.39849 0.0
C72 C 0.20776 0.86729 0.39266 0.0
C73 C 0.21028 0.84826 0.40722 0.0
C74 C 0.19774 0.85193 0.42746 0.0
N75 N 0.22463 0.82495 0.40234 0.0
C76 C 0.24491 0.81874 0.38475 0.0
H77 H 0.34084 0.60094 0.92626 0.0
H78 H 0.26177 0.65647 0.94326 0.0
H79 H 0.25876 0.6269 0.88212 0.0
C80 C 0.31793 0.61311 0.92223 0.0
C81 C 0.30172 0.61194 0.90238 0.0
C82 C 0.30406 0.62922 0.93712 0.0
C83 C 0.27341 0.64419 0.93192 0.0
C84 C 0.25764 0.64384 0.91209 0.0
C85 C 0.2721 0.62792 0.89717 0.0
N86 N 0.22443 0.65757 0.90849 0.0
C87 C 0.21888 0.6729 0.89166 0.0
Tb88 Tb 0.0532 0.12053 0.23452 0.0
C89 C 0.9064 0.08596 0.27094 0.0
N90 N 0.91996 0.10898 0.26885 0.0
C91 C 0.86151 0.12145 0.25327 0.0
C92 C 0.87008 0.07961 0.26363 0.0
C93 C 0.89779 0.12688 0.26069 0.0
C94 C 0.84762 0.09772 0.25469 0.0
C95 C 0.91754 0.04425 0.28113 0.0
C96 C 0.92992 0.06856 0.27957 0.0
C97 C 0.88149 0.03774 0.27372 0.0
C98 C 0.85776 0.0554 0.26506 0.0
Tb99 Tb 0.97887 0.11588 0.28207 0.0
N100 N 0.96487 0.07546 0.28637 0.0
C101 C 0.94165 0.02723 0.29023 0.0
C102 C 0.98717 0.05922 0.29668 0.0
C103 C 0.97641 0.03481 0.29823 0.0
H104 H 0.90778 0.14538 0.26013 0.0
H105 H 0.99458 0.02189 0.30593 0.0
H106 H 0.11422 0.07454 0.24074 0.0
H107 H 0.07719 0.21471 0.21578 0.0
H108 H 0.01269 0.06494 0.30437 0.0
H109 H 0.93331 0.00834 0.29163 0.0
H110 H 0.03902 0.1772 0.21994 0.0
H111 H 0.84426 0.13556 0.24649 0.0
H112 H 0.87161 0.01913 0.27471 0.0
H113 H 0.83005 0.05011 0.2594 0.0
H114 H 0.18224 0.06995 0.24789 0.0
H115 H 0.81959 0.09356 0.24883 0.0
H116 H 0.146 0.21408 0.2233 0.0
N117 N 0.11621 0.11326 0.24016 0.0
C118 C 0.13912 0.13313 0.23936 0.0
C119 C 0.17039 0.08787 0.24584 0.0
C120 C 0.17853 0.13126 0.24251 0.0
C121 C 0.13158 0.09063 0.24222 0.0
C122 C 0.19392 0.10831 0.2463 0.0
N123 N 0.08529 0.15625 0.231 0.0
C124 C 0.06883 0.17698 0.22366 0.0
C125 C 0.14621 0.1761 0.23184 0.0
C126 C 0.12327 0.15526 0.23412 0.0
C127 C 0.12922 0.19777 0.22546 0.0
C128 C 0.09041 0.19817 0.22117 0.0
H129 H 0.22405 0.10609 0.24884 0.0
H130 H 0.23168 0.15111 0.24364 0.0
H131 H 0.20334 0.1904 0.23428 0.0
O132 O 0.02566 0.12158 0.20564 0.0
O133 O 0.05693 0.14918 0.25803 0.0
O134 O 0.03304 0.13377 0.28896 0.0
O135 O 0.08437 0.11212 0.20788 0.0
O136 O 0.99892 0.1399 0.23241 0.0
O137 O 0.97907 0.15058 0.26539 0.0
O138 O 0.96764 0.10848 0.31337 0.0
O139 O 0.96728 0.10329 0.2503 0.0
O140 O 0.02242 0.08663 0.23943 0.0
O141 O 0.94779 0.14137 0.29933 0.0
O142 O 0.03589 0.10126 0.28776 0.0
O143 O 0.05705 0.0891 0.2556 0.0
C144 C 0.05416 0.14916 0.27833 0.0
C145 C 0.05048 0.09559 0.18012 0.0
C146 C 0.05696 0.08234 0.14436 0.0
C147 C 0.04374 0.05919 0.15024 0.0
C148 C 0.03802 0.07232 0.18575 0.0
C149 C 0.03455 0.05423 0.17085 0.0
C150 C 0.05997 0.10052 0.15947 0.0
C151 C 0.98112 0.15446 0.24528 0.0
C152 C 0.05562 0.11468 0.19561 0.0
C153 C 0.20139 0.15216 0.24111 0.0
C154 C 0.18528 0.17452 0.23572 0.0
C155 C 0.98549 0.08568 0.24112 0.0
C156 C 0.91235 0.12503 0.32757 0.0
C157 C 0.88009 0.12105 0.36088 0.0
C158 C 0.84575 0.11713 0.35036 0.0
C159 C 0.8777 0.12127 0.31744 0.0
C160 C 0.91335 0.12505 0.3493 0.0
C161 C 0.84463 0.11733 0.3288 0.0
C162 C 0.0588 0.08859 0.27593 0.0
C163 C 0.94808 0.12806 0.31601 0.0
H164 H 0.04147 0.04474 0.13904 0.0
H165 H 0.03158 0.0681 0.20166 0.0
H166 H 0.02514 0.03623 0.17532 0.0
H167 H 0.06989 0.11852 0.15521 0.0
H168 H 0.81961 0.11428 0.35881 0.0
H169 H 0.87603 0.12132 0.30083 0.0
H170 H 0.94015 0.12776 0.35717 0.0
H171 H 0.81801 0.11444 0.32086 0.0
Tb172 Tb 0.46437 0.39265 0.73877 0.0
C173 C 0.61527 0.43055 0.76686 0.0
N174 N 0.60469 0.40681 0.76671 0.0
C175 C 0.66303 0.3962 0.75016 0.0
C176 C 0.65002 0.43813 0.75819 0.0
C177 C 0.62812 0.38957 0.75876 0.0
C178 C 0.674 0.42059 0.74981 0.0
C179 C 0.59988 0.47222 0.77489 0.0
C180 C 0.59028 0.44734 0.77496 0.0
C181 C 0.63418 0.47995 0.76596 0.0
C182 C 0.65925 0.46294 0.7577 0.0
Tb183 Tb 0.5475 0.39801 0.78141 0.0
N184 N 0.55702 0.43924 0.78324 0.0
C185 C 0.57512 0.48854 0.78422 0.0
C186 C 0.53532 0.4548 0.79449 0.0
C187 C 0.54311 0.47971 0.79444 0.0
H188 H 0.61994 0.37071 0.75913 0.0
H189 H 0.52498 0.49203 0.80272 0.0
H190 H 0.41078 0.4419 0.74069 0.0
H191 H 0.42967 0.297 0.73966 0.0
H192 H 0.51287 0.44819 0.80426 0.0
H193 H 0.58134 0.50781 0.78443 0.0
H194 H 0.4716 0.33257 0.73523 0.0
H195 H 0.68141 0.38249 0.74377 0.0
H196 H 0.64181 0.49902 0.76561 0.0
H197 H 0.68564 0.46917 0.75092 0.0
H198 H 0.34394 0.45146 0.7484 0.0
H199 H 0.7009 0.42569 0.74296 0.0
H200 H 0.362 0.3027 0.74827 0.0
N201 N 0.40304 0.40379 0.74407 0.0
C202 C 0.37799 0.3853 0.74703 0.0
C203 C 0.35321 0.43278 0.74819 0.0
C204 C 0.33949 0.38984 0.7511 0.0
C205 C 0.39112 0.42733 0.74408 0.0
C206 C 0.32732 0.41397 0.75187 0.0
N207 N 0.42848 0.35819 0.74187 0.0
C208 C 0.44223 0.33532 0.73899 0.0
C209 C 0.36596 0.34193 0.74816 0.0
C210 C 0.39098 0.3617 0.74554 0.0
C211 C 0.38026 0.3184 0.74627 0.0
C212 C 0.41848 0.31511 0.74145 0.0
H213 H 0.29795 0.41824 0.75498 0.0
H214 H 0.28475 0.37332 0.75731 0.0
H215 H 0.30798 0.33137 0.7548 0.0
O216 O 0.48681 0.38608 0.70921 0.0
O217 O 0.45459 0.37258 0.76756 0.0
O218 O 0.51062 0.3662 0.78604 0.0
O219 O 0.43113 0.40105 0.71275 0.0
O220 O 0.51402 0.36895 0.73511 0.0
O221 O 0.54891 0.36322 0.76555 0.0
O222 O 0.55137 0.40427 0.81352 0.0
O223 O 0.55477 0.40843 0.74852 0.0
O224 O 0.49844 0.42558 0.74007 0.0
O225 O 0.59203 0.38217 0.79819 0.0
O226 O 0.49006 0.41085 0.78913 0.0
O227 O 0.4681 0.42502 0.75795 0.0
C228 C 0.47471 0.36152 0.78188 0.0
C229 C 0.46462 0.41214 0.68281 0.0
C230 C 0.46121 0.4222 0.64604 0.0
C231 C 0.47661 0.44523 0.65039 0.0
C232 C 0.4792 0.43532 0.68683 0.0
C233 C 0.48542 0.4517 0.67067 0.0
C234 C 0.45561 0.40565 0.66245 0.0
C235 C 0.53925 0.35725 0.74652 0.0
C236 C 0.45727 0.39488 0.69974 0.0
C237 C 0.31444 0.37022 0.75406 0.0
C238 C 0.32764 0.34632 0.7526 0.0
C239 C 0.53543 0.42537 0.73892 0.0
C240 C 0.57702 0.3715 0.83246 0.0
C241 C 0.58703 0.3595 0.86842 0.0
C242 C 0.57548 0.33578 0.86351 0.0
C243 C 0.5652 0.34774 0.82796 0.0
C244 C 0.58738 0.37741 0.85281 0.0
C245 C 0.56421 0.33005 0.84345 0.0
C246 C 0.46655 0.42431 0.7782 0.0
C247 C 0.58006 0.38988 0.81588 0.0
H248 H 0.48085 0.45851 0.63821 0.0
H249 H 0.48515 0.44082 0.70246 0.0
H250 H 0.4965 0.46962 0.67392 0.0
H251 H 0.44409 0.38774 0.65942 0.0
H252 H 0.57503 0.3217 0.87524 0.0
H253 H 0.5574 0.34276 0.81239 0.0
H254 H 0.59673 0.39569 0.85637 0.0
H255 H 0.55514 0.31176 0.83984 0.0
Tb256 Tb 0.04081 0.89223 0.73439 0.0
C257 C 0.88308 0.87148 0.77278 0.0
N258 N 0.90076 0.89327 0.77014 0.0
C259 C 0.84331 0.91051 0.757 0.0
C260 C 0.84478 0.86826 0.76726 0.0
C261 C 0.8814 0.91282 0.76266 0.0
C262 C 0.82494 0.88813 0.75923 0.0
C263 C 0.8868 0.8293 0.78336 0.0
C264 C 0.90411 0.85215 0.78033 0.0
C265 C 0.84867 0.82591 0.77778 0.0
C266 C 0.82775 0.84532 0.76967 0.0
Tb267 Tb 0.96293 0.89475 0.77968 0.0
N268 N 0.94131 0.85591 0.78502 0.0
C269 C 0.90808 0.81073 0.7924 0.0
C270 C 0.96104 0.83834 0.79533 0.0
C271 C 0.9452 0.81537 0.79864 0.0
H272 H 0.89508 0.93031 0.76131 0.0
H273 H 0.96127 0.80145 0.80654 0.0
H274 H 0.10981 0.86144 0.75702 0.0
H275 H 0.03637 0.98269 0.7012 0.0
H276 H 0.98818 0.84211 0.8021 0.0
H277 H 0.89566 0.79313 0.79552 0.0
H278 H 0.01334 0.94127 0.70732 0.0
H279 H 0.82811 0.92602 0.75098 0.0
H280 H 0.83503 0.8084 0.77981 0.0
H281 H 0.79839 0.84243 0.76543 0.0
H282 H 0.17534 0.8693 0.76862 0.0
H283 H 0.79546 0.8864 0.75476 0.0
H284 H 0.0993 0.99514 0.71429 0.0
N285 N 0.101 0.89753 0.74636 0.0
C286 C 0.11676 0.91974 0.74276 0.0
C287 C 0.15906 0.88368 0.76151 0.0
C288 C 0.15434 0.92483 0.74864 0.0
C289 C 0.12174 0.87937 0.75519 0.0
C290 C 0.17541 0.90653 0.75828 0.0
N291 N 0.05886 0.93142 0.72723 0.0
C292 C 0.03898 0.94697 0.71486 0.0
C293 C 0.11039 0.96038 0.72876 0.0
C294 C 0.09482 0.9373 0.7331 0.0
C295 C 0.08838 0.97721 0.71792 0.0
C296 C 0.05275 0.97031 0.71064 0.0
H297 H 0.20442 0.90976 0.76305 0.0
H298 H 0.19895 0.9518 0.74836 0.0
H299 H 0.16033 0.98314 0.73117 0.0
O300 O 0.03964 0.89398 0.70177 0.0
O301 O 0.05524 0.90872 0.76445 0.0
O302 O 1.00073 0.92618 0.77651 0.0
O303 O 0.07736 0.86983 0.71748 0.0
O304 O 0.98553 0.90944 0.72805 0.0
O305 O 0.96544 0.92623 0.75895 0.0
O306 O 0.96934 0.89035 0.81175 0.0
O307 O 0.94677 0.87774 0.75025 0.0
O308 O 1.00099 0.86152 0.73615 0.0
O309 O 0.92841 0.91522 0.79954 0.0
O310 O 0.01778 0.87677 0.78543 0.0
O311 O 0.03732 0.86033 0.75438 0.0
C312 C 0.03761 0.92641 0.77383 0.0
C313 C 0.09941 0.88749 0.68627 0.0
C314 C 0.12394 0.89674 0.65175 0.0
C315 C 0.15859 0.9038 0.66067 0.0
C316 C 0.13475 0.89399 0.69465 0.0
C317 C 0.1639 0.90235 0.68195 0.0
C318 C 0.09428 0.88866 0.66471 0.0
C319 C 0.96663 0.92592 0.73859 0.0
C320 C 0.06803 0.87925 0.69979 0.0
C321 C 0.1698 0.94782 0.74444 0.0
C322 C 0.14784 0.9656 0.73463 0.0
C323 C 0.96419 0.86109 0.73944 0.0
C324 C 0.9543 0.92381 0.83243 0.0
C325 C 0.95218 0.93503 0.8689 0.0
C326 C 0.97531 0.95526 0.8644 0.0
C327 C 0.97725 0.94408 0.82825 0.0
C328 C 0.94185 0.91938 0.8527 0.0
C329 C 0.98767 0.95972 0.8442 0.0
C330 C 0.03617 0.86028 0.77467 0.0
C331 C 0.94396 0.9065 0.81616 0.0
H332 H 0.18204 0.90981 0.65111 0.0
H333 H 0.14021 0.89235 0.71098 0.0
H334 H 0.19092 0.9074 0.68862 0.0
H335 H 0.06731 0.88335 0.65806 0.0
H336 H 0.98351 0.9678 0.87645 0.0
H337 H 0.98717 0.94775 0.81273 0.0
H338 H 0.92467 0.90342 0.85589 0.0
H339 H 0.0054 0.97536 0.84091 0.0
Tb340 Tb 0.47296 0.61981 0.23304 0.0
C341 C 0.63325 0.64224 0.26979 0.0
N342 N 0.61454 0.62063 0.26962 0.0
C343 C 0.67183 0.60029 0.26011 0.0
C344 C 0.67203 0.64377 0.26472 0.0
C345 C 0.63335 0.5997 0.26523 0.0
C346 C 0.69125 0.62243 0.25977 0.0
C347 C 0.6313 0.68581 0.27457 0.0
C348 C 0.61302 0.663 0.27446 0.0
C349 C 0.66992 0.68746 0.26951 0.0
C350 C 0.69023 0.66649 0.26457 0.0
Tb351 Tb 0.55175 0.622 0.27789 0.0
N352 N 0.5753 0.66083 0.27854 0.0
C353 C 0.61026 0.70626 0.27986 0.0
C354 C 0.55532 0.68057 0.28492 0.0
C355 C 0.57221 0.70357 0.28529 0.0
H356 H 0.61903 0.58245 0.26617 0.0
H357 H 0.55602 0.71916 0.29014 0.0
H358 H 0.41149 0.66481 0.23867 0.0
H359 H 0.45492 0.52244 0.22972 0.0
H360 H 0.52686 0.67878 0.29048 0.0
H361 H 0.62337 0.72406 0.28029 0.0
H362 H 0.49066 0.56076 0.22797 0.0
H363 H 0.68655 0.58364 0.25659 0.0
H364 H 0.68436 0.70486 0.26939 0.0
H365 H 0.71998 0.66805 0.26065 0.0
H366 H 0.3431 0.66906 0.2455 0.0
H367 H 0.72105 0.62283 0.25577 0.0
H368 H 0.3859 0.52295 0.23631 0.0
N369 N 0.4101 0.62626 0.23896 0.0
C370 C 0.38807 0.60599 0.23994 0.0
C371 C 0.35543 0.6512 0.24409 0.0
C372 C 0.34867 0.60756 0.24311 0.0
C373 C 0.39432 0.64874 0.24064 0.0
C374 C 0.33248 0.63052 0.24534 0.0
N375 N 0.44343 0.58286 0.2351 0.0
C376 C 0.46107 0.56132 0.23156 0.0
C377 C 0.38335 0.56211 0.23838 0.0
C378 C 0.40519 0.58357 0.23769 0.0
C379 C 0.40166 0.53987 0.23584 0.0
C380 C 0.44063 0.53951 0.23221 0.0
H381 H 0.3023 0.63249 0.24784 0.0
H382 H 0.29639 0.58705 0.24613 0.0
H383 H 0.32675 0.54727 0.24176 0.0
O384 O 0.48313 0.60712 0.20304 0.0
O385 O 0.45814 0.60331 0.26318 0.0
O386 O 0.51496 0.59004 0.2765 0.0
O387 O 0.44352 0.63589 0.20819 0.0
O388 O 0.52833 0.60246 0.22822 0.0
O389 O 0.55072 0.58856 0.25969 0.0
O390 O 0.54282 0.63028 0.3092 0.0
O391 O 0.56569 0.63813 0.24749 0.0
O392 O 0.50947 0.6521 0.23373 0.0
O393 O 0.58543 0.60476 0.30041 0.0
O394 O 0.49624 0.63933 0.28311 0.0
O395 O 0.47538 0.65296 0.25123 0.0
C396 C 0.47784 0.58976 0.27599 0.0
C397 C 0.47608 0.63595 0.17645 0.0
C398 C 0.47325 0.64549 0.13957 0.0
C399 C 0.50595 0.66 0.14179 0.0
C400 C 0.50886 0.65022 0.17824 0.0
C401 C 0.52356 0.66231 0.16101 0.0
C402 C 0.45837 0.6336 0.15713 0.0
C403 C 0.54795 0.58692 0.23942 0.0
C404 C 0.46064 0.62287 0.19443 0.0
C405 C 0.32675 0.58622 0.24379 0.0
C406 C 0.34404 0.56356 0.24135 0.0
C407 C 0.54655 0.65337 0.23579 0.0
C408 C 0.55594 0.59873 0.33274 0.0
C409 C 0.55549 0.58911 0.36966 0.0
C410 C 0.53205 0.56895 0.36556 0.0
C411 C 0.53292 0.57841 0.329 0.0
C412 C 0.56723 0.60398 0.35305 0.0
C413 C 0.52093 0.56368 0.34536 0.0
C414 C 0.47532 0.65383 0.27154 0.0
C415 C 0.56796 0.61486 0.31573 0.0
H416 H 0.51779 0.66971 0.1287 0.0
H417 H 0.52319 0.65184 0.1929 0.0
H418 H 0.54877 0.67343 0.16255 0.0
H419 H 0.43349 0.62211 0.15574 0.0
H420 H 0.52284 0.55701 0.37793 0.0
H421 H 0.52433 0.57389 0.31349 0.0
H422 H 0.58478 0.61981 0.35591 0.0
H423 H 0.50309 0.54805 0.34235 0.0
H424 H 0.16703 0.888 0.35842 0.0
H425 H 0.15253 0.92232 0.33553 0.0
H426 H 0.19349 0.97204 0.38174 0.0
H427 H 0.20838 0.93794 0.40453 0.0
H428 H 0.12339 0.98387 0.36865 0.0
H429 H 0.24214 0.96356 0.33724 0.0
H430 H 0.2885 0.93653 0.32077 0.0
H431 H 0.2107 0.92316 0.27106 0.0
H432 H 0.16364 0.94985 0.28739 0.0
H433 H 0.09678 0.09148 0.31238 0.0
H434 H 0.12806 0.05856 0.3312 0.0
H435 H 0.10035 0.00911 0.2819 0.0
H436 H 0.0709 0.0424 0.2626 0.0
H437 H 0.16576 0.99718 0.29643 0.0
H438 H 0.04574 0.01342 0.32839 0.0
H439 H 0.99681 0.0391 0.34446 0.0
H440 H 0.07436 0.05793 0.39297 0.0
H441 H 0.12374 0.03263 0.37701 0.0
C442 C 0.17376 0.90621 0.3635 0.0
C443 C 0.1885 0.91024 0.38339 0.0
C444 C 0.16539 0.92583 0.35041 0.0
C445 C 0.17183 0.94979 0.35693 0.0
C446 C 0.18802 0.95375 0.37642 0.0
C447 C 0.19642 0.93422 0.38946 0.0
C448 C 0.15913 0.97083 0.34422 0.0
C449 C 0.13317 0.98699 0.35297 0.0
C450 C 0.1709 0.9745 0.32354 0.0
C451 C 0.19922 0.95853 0.31365 0.0
C452 C 0.23479 0.9547 0.32288 0.0
C453 C 0.26122 0.93947 0.31355 0.0
C454 C 0.25251 0.92808 0.29491 0.0
C455 C 0.21739 0.93197 0.28552 0.0
C456 C 0.19084 0.94716 0.29479 0.0
C457 C 0.09798 0.07365 0.30546 0.0
C458 C 0.08143 0.06944 0.28609 0.0
C459 C 0.11556 0.05477 0.31628 0.0
C460 C 0.11573 0.03109 0.30828 0.0
C461 C 0.10055 0.02714 0.28849 0.0
C462 C 0.08376 0.04617 0.27744 0.0
C463 C 0.13007 0.01031 0.3209 0.0
C464 C 0.15616 0.99414 0.31215 0.0
C465 C 0.11812 1.0064 0.34157 0.0
C466 C 0.08845 0.02141 0.35136 0.0
C467 C 0.05231 0.02323 0.34238 0.0
C468 C 0.02455 0.03767 0.35147 0.0
C469 C 0.03253 0.05022 0.36966 0.0
C470 C 0.06824 0.04825 0.37885 0.0
C471 C 0.09611 0.03384 0.3698 0.0
H472 H 0.01102 0.06141 0.37668 0.0
H473 H 0.27301 0.9163 0.28771 0.0
H474 H 0.32099 0.61653 0.8614 0.0
H475 H 0.34556 0.58479 0.83861 0.0
H476 H 0.33428 0.53233 0.88801 0.0
H477 H 0.31068 0.56395 0.91077 0.0
H478 H 0.40036 0.52776 0.87102 0.0
H479 H 0.27279 0.53483 0.84499 0.0
H480 H 0.2179 0.55647 0.83035 0.0
H481 H 0.28397 0.57712 0.77738 0.0
H482 H 0.33942 0.55586 0.79184 0.0
H483 H 0.43472 0.42029 0.81639 0.0
H484 H 0.40214 0.45189 0.83588 0.0
H485 H 0.4159 0.50151 0.78459 0.0
H486 H 0.44736 0.4697 0.76486 0.0
H487 H 0.34933 0.50845 0.80161 0.0
H488 H 0.47667 0.50251 0.82774 0.0
H489 H 0.53211 0.4809 0.84198 0.0
H490 H 0.4666 0.45878 0.89472 0.0
H491 H 0.41074 0.48 0.88064 0.0
C492 C 0.32349 0.59816 0.86726 0.0
C493 C 0.31426 0.59275 0.8879 0.0
C494 C 0.33743 0.58001 0.85424 0.0
C495 C 0.34167 0.55606 0.86153 0.0
C496 C 0.33158 0.55064 0.88202 0.0
C497 C 0.31811 0.56875 0.89503 0.0
C498 C 0.35794 0.53667 0.84829 0.0
C499 C 0.38879 0.52337 0.85596 0.0
C500 C 0.34372 0.5313 0.82836 0.0
C501 C 0.31035 0.54396 0.8196 0.0
C502 C 0.27568 0.54413 0.83029 0.0
C503 C 0.24446 0.55631 0.82201 0.0
C504 C 0.24747 0.56822 0.80297 0.0
C505 C 0.28169 0.56792 0.79214 0.0
C506 C 0.31301 0.55579 0.80036 0.0
C507 C 0.43031 0.43786 0.80922 0.0
C508 C 0.44349 0.44254 0.78913 0.0
C509 C 0.41192 0.45597 0.82039 0.0
C510 C 0.40724 0.47931 0.81189 0.0
C511 C 0.41917 0.4837 0.79152 0.0
C512 C 0.43705 0.46547 0.78022 0.0
C513 C 0.39131 0.49936 0.82451 0.0
C514 C 0.36076 0.51286 0.81669 0.0
C515 C 0.40581 0.505 0.84433 0.0
C516 C 0.43951 0.49261 0.85302 0.0
C517 C 0.47411 0.49289 0.84229 0.0
C518 C 0.50557 0.48073 0.85034 0.0
C519 C 0.50282 0.4684 0.86919 0.0
C520 C 0.46867 0.4683 0.88009 0.0
C521 C 0.43712 0.48042 0.87211 0.0
H522 H 0.52718 0.45897 0.87538 0.0
H523 H 0.22327 0.57764 0.79659 0.0
H524 H 0.61756 0.60893 0.62829 0.0
H525 H 0.59725 0.57719 0.6527 0.0
H526 H 0.71357 0.55596 0.66145 0.0
H527 H 0.7341 0.58821 0.63744 0.0
H528 H 0.65553 0.5175 0.64887 0.0
H529 H 0.68028 0.57995 0.69944 0.0
H530 H 0.67378 0.62102 0.71389 0.0
H531 H 0.55336 0.611 0.71848 0.0
H532 H 0.55907 0.57 0.70376 0.0
H533 H 0.60542 0.42478 0.72058 0.0
H534 H 0.63771 0.45834 0.70285 0.0
H535 H 0.53978 0.5036 0.71231 0.0
H536 H 0.50926 0.47092 0.73168 0.0
H537 H 0.59549 0.53035 0.71713 0.0
H538 H 0.56411 0.47395 0.66365 0.0
H539 H 0.56233 0.43483 0.64529 0.0
H540 H 0.68383 0.43486 0.64193 0.0
H541 H 0.68625 0.47383 0.66051 0.0
C542 C 0.63879 0.59777 0.63575 0.0
C543 C 0.67737 0.60104 0.63113 0.0
C544 C 0.6272 0.57967 0.64963 0.0
C545 C 0.65393 0.56426 0.65884 0.0
C546 C 0.69256 0.56773 0.65452 0.0
C547 C 0.70425 0.58619 0.64095 0.0
C548 C 0.64108 0.54369 0.67201 0.0
C549 C 0.64305 0.52015 0.664 0.0
C550 C 0.62349 0.5474 0.69131 0.0
C551 C 0.62009 0.57197 0.70033 0.0
C552 C 0.65238 0.58658 0.70336 0.0
C553 C 0.64884 0.60984 0.71164 0.0
C554 C 0.61317 0.61864 0.71705 0.0
C555 C 0.58097 0.60417 0.71426 0.0
C556 C 0.58435 0.58091 0.70598 0.0
C557 C 0.59117 0.44205 0.71915 0.0
C558 C 0.55498 0.44527 0.72765 0.0
C559 C 0.60936 0.46116 0.70871 0.0
C560 C 0.59106 0.48357 0.70582 0.0
C561 C 0.55477 0.48665 0.71431 0.0
C562 C 0.53712 0.46783 0.72522 0.0
C563 C 0.60925 0.50384 0.69393 0.0
C564 C 0.60829 0.52743 0.70213 0.0
C565 C 0.6266 0.50029 0.67443 0.0
C566 C 0.62534 0.47663 0.66367 0.0
C567 C 0.59041 0.46545 0.65919 0.0
C568 C 0.58929 0.44336 0.6487 0.0
C569 C 0.62295 0.43237 0.64246 0.0
C570 C 0.65779 0.44339 0.64678 0.0
C571 C 0.65905 0.46549 0.65728 0.0
H572 H 0.62204 0.41541 0.63415 0.0
H573 H 0.61049 0.63665 0.72345 0.0
H574 H 0.89399 0.90618 0.12934 0.0
H575 H 0.91605 0.93639 0.15441 0.0
H576 H 0.80165 0.96203 0.16155 0.0
H577 H 0.77931 0.93132 0.13687 0.0
H578 H 0.86245 0.99868 0.1509 0.0
H579 H 0.83142 0.93529 0.19977 0.0
H580 H 0.8336 0.89358 0.21368 0.0
H581 H 0.95447 0.89895 0.21992 0.0
H582 H 0.95308 0.94058 0.20574 0.0
H583 H 0.91368 0.08647 0.22514 0.0
H584 H 0.88015 0.05361 0.20752 0.0
H585 H 0.97831 0.00784 0.21442 0.0
H586 H 0.01058 0.04002 0.23351 0.0
H587 H 0.91996 0.98107 0.21927 0.0
H588 H 0.95578 0.03933 0.1678 0.0
H589 H 0.96033 0.07998 0.15173 0.0
H590 H 0.83904 0.08306 0.14733 0.0
H591 H 0.83391 0.04257 0.16365 0.0
C592 C 0.87352 0.91798 0.13658 0.0
C593 C 0.83496 0.91638 0.13133 0.0
C594 C 0.88611 0.93521 0.15084 0.0
C595 C 0.86046 0.95143 0.15981 0.0
C596 C 0.82183 0.94963 0.15482 0.0
C597 C 0.8091 0.93204 0.14086 0.0
C598 C 0.87453 0.97102 0.17351 0.0
C599 C 0.87435 0.99496 0.16604 0.0
C600 C 0.8913 0.96596 0.19288 0.0
C601 C 0.89217 0.94098 0.20151 0.0
C602 C 0.85851 0.9275 0.20393 0.0
C603 C 0.85959 0.90389 0.2119 0.0
C604 C 0.89416 0.8936 0.21764 0.0
C605 C 0.92771 0.90693 0.21546 0.0
C606 C 0.92679 0.93054 0.20747 0.0
C607 C 0.9277 0.0692 0.22331 0.0
C608 C 0.96465 0.06578 0.23078 0.0
C609 C 0.90875 0.05051 0.21294 0.0
C610 C 0.92686 0.02827 0.20921 0.0
C611 C 0.96359 0.02475 0.21704 0.0
C612 C 0.98217 0.04324 0.2278 0.0
C613 C 0.90821 0.00894 0.19666 0.0
C614 C 0.90766 0.98498 0.20426 0.0
C615 C 0.89165 0.01387 0.17712 0.0
C616 C 0.89451 0.0381 0.16716 0.0
C617 C 0.93015 0.0488 0.16354 0.0
C618 C 0.93282 0.07177 0.15437 0.0
C619 C 0.89998 0.08413 0.14858 0.0
C620 C 0.86444 0.07349 0.15187 0.0
C621 C 0.86164 0.05052 0.16107 0.0
H622 H 0.90207 0.10191 0.14149 0.0
H623 H 0.89494 0.87531 0.22381 0.0
H624 H 0.8962 0.11236 0.62865 0.0
H625 H 0.91521 0.07866 0.65106 0.0
H626 H 0.79776 0.05866 0.65935 0.0
H627 H 0.77874 0.09328 0.63761 0.0
H628 H 0.83329 0.05068 0.69378 0.0
H629 H 0.8563 0.0295 0.62388 0.0
H630 H 0.88108 0.03476 0.58854 0.0
H631 H 0.99492 0.03526 0.61195 0.0
H632 H 0.9708 0.03039 0.64749 0.0
H633 H 0.93612 0.92347 0.69987 0.0
H634 H 0.90579 0.95609 0.6802 0.0
H635 H 0.92313 1.00489 0.7313 0.0
H636 H 0.95213 0.97207 0.75122 0.0
H637 H 0.93126 0.99571 0.66572 0.0
H638 H 0.85877 0.04944 0.73198 0.0
H639 H 0.82748 0.04106 0.76534 0.0
H640 H 0.80038 0.9688 0.74556 0.0
H641 H 0.83114 0.9768 0.71201 0.0
C642 C 0.87451 0.10096 0.63556 0.0
C643 C 0.83609 0.10526 0.63144 0.0
C644 C 0.88534 0.08159 0.64821 0.0
C645 C 0.85801 0.06565 0.65651 0.0
C646 C 0.81942 0.07058 0.65308 0.0
C647 C 0.80853 0.09031 0.64068 0.0
C648 C 0.86996 0.04342 0.668 0.0
C649 C 0.85469 0.03865 0.68764 0.0
C650 C 0.89701 0.02718 0.65977 0.0
C651 C 0.91171 0.02977 0.63838 0.0
C652 C 0.88661 0.03086 0.62151 0.0
C653 C 0.90054 0.03378 0.60144 0.0
C654 C 0.93955 0.03539 0.598 0.0
C655 C 0.96471 0.03403 0.61463 0.0
C656 C 0.95093 0.03117 0.63475 0.0
C657 C 0.93303 0.9411 0.70696 0.0
C658 C 0.94637 0.94521 0.72709 0.0
C659 C 0.9158 0.95977 0.69569 0.0
C660 C 0.91176 0.98301 0.70426 0.0
C661 C 0.92501 0.98706 0.72444 0.0
C662 C 0.94173 0.96829 0.73582 0.0
C663 C 0.89531 1.00323 0.69177 0.0
C664 C 0.90976 0.00764 0.67188 0.0
C665 C 0.86654 0.01858 0.69949 0.0
C666 C 0.84758 0.01368 0.71954 0.0
C667 C 0.84601 0.03179 0.73472 0.0
C668 C 0.82841 0.02709 0.75367 0.0
C669 C 0.8121 1.00437 0.75759 0.0
C670 C 0.81322 0.98633 0.74254 0.0
C671 C 0.83077 0.99094 0.72356 0.0
H672 H 0.7985 1.00077 0.77228 0.0
H673 H 0.95027 0.03766 0.58245 0.0
H674 H 0.72596 0.40382 0.15458 0.0
H675 H 0.70649 0.43627 0.17803 0.0
H676 H 0.61482 0.45474 0.13703 0.0
H677 H 0.63206 0.42161 0.11429 0.0
H678 H 0.67344 0.49502 0.15323 0.0
H679 H 0.58354 0.42947 0.17182 0.0
H680 H 0.5698 0.38785 0.18397 0.0
H681 H 0.63487 0.40067 0.23894 0.0
H682 H 0.64945 0.44228 0.22692 0.0
H683 H 0.55212 0.57916 0.19782 0.0
H684 H 0.58104 0.54538 0.17993 0.0
H685 H 0.61718 0.51496 0.23822 0.0
H686 H 0.58521 0.54773 0.25639 0.0
H687 H 0.5965 0.4801 0.21617 0.0
H688 H 0.67978 0.54576 0.20251 0.0
H689 H 0.69898 0.58717 0.1922 0.0
H690 H 0.6571 0.57474 0.13087 0.0
H691 H 0.63709 0.53337 0.14089 0.0
C692 C 0.70131 0.4145 0.15064 0.0
C693 C 0.68095 0.41007 0.13228 0.0
C694 C 0.69045 0.43317 0.16401 0.0
C695 C 0.65942 0.44794 0.15913 0.0
C696 C 0.6391 0.44366 0.14093 0.0
C697 C 0.64934 0.42477 0.12783 0.0
C698 C 0.64773 0.46799 0.17283 0.0
C699 C 0.65651 0.49188 0.16697 0.0
C700 C 0.62699 0.46373 0.19114 0.0
C701 C 0.618 0.43882 0.19835 0.0
C702 C 0.59526 0.42331 0.18638 0.0
C703 C 0.58723 0.39975 0.19327 0.0
C704 C 0.60157 0.39158 0.21218 0.0
C705 C 0.62386 0.40699 0.22427 0.0
C706 C 0.63199 0.43056 0.21744 0.0
C707 C 0.56626 0.56536 0.20692 0.0
C708 C 0.56709 0.56662 0.22861 0.0
C709 C 0.58321 0.54608 0.19659 0.0
C710 C 0.60254 0.52788 0.20759 0.0
C711 C 0.60295 0.52887 0.22928 0.0
C712 C 0.58507 0.54787 0.23968 0.0
C713 C 0.62121 0.50757 0.19636 0.0
C714 C 0.61388 0.48352 0.20265 0.0
C715 C 0.64424 0.51172 0.17872 0.0
C716 C 0.65673 0.53649 0.1725 0.0
C717 C 0.67449 0.55189 0.18685 0.0
C718 C 0.68552 0.57536 0.18106 0.0
C719 C 0.67921 0.58359 0.1609 0.0
C720 C 0.66196 0.56834 0.14648 0.0
C721 C 0.65081 0.54486 0.1522 0.0
H722 H 0.68774 0.60177 0.15645 0.0
H723 H 0.59532 0.37334 0.21749 0.0
H724 H 0.35428 0.39342 0.36336 0.0
H725 H 0.37524 0.42633 0.34034 0.0
H726 H 0.33279 0.47907 0.38337 0.0
H727 H 0.31117 0.44631 0.40618 0.0
H728 H 0.31971 0.49344 0.34412 0.0
H729 H 0.42517 0.46428 0.38362 0.0
H730 H 0.46921 0.43345 0.39716 0.0
H731 H 0.50449 0.41673 0.33543 0.0
H732 H 0.46021 0.44724 0.3215 0.0
H733 H 0.42408 0.59541 0.30555 0.0
H734 H 0.39419 0.5636 0.32657 0.0
H735 H 0.45466 0.50917 0.29209 0.0
H736 H 0.48753 0.54123 0.27287 0.0
H737 H 0.45695 0.49585 0.32794 0.0
H738 H 0.34487 0.52365 0.28848 0.0
H739 H 0.29848 0.55416 0.27661 0.0
H740 H 0.27751 0.57502 0.33924 0.0
H741 H 0.32257 0.54403 0.35158 0.0
C742 C 0.34864 0.41201 0.36766 0.0
C743 C 0.33138 0.41727 0.38667 0.0
C744 C 0.36094 0.43082 0.3546 0.0
C745 C 0.35621 0.45521 0.3603 0.0
C746 C 0.33697 0.46044 0.37868 0.0
C747 C 0.3248 0.44169 0.39175 0.0
C748 C 0.37313 0.47527 0.34778 0.0
C749 C 0.34974 0.49401 0.34058 0.0
C750 C 0.41229 0.4761 0.34316 0.0
C751 C 0.43909 0.45785 0.35151 0.0
C752 C 0.44211 0.4539 0.37292 0.0
C753 C 0.46714 0.4365 0.38067 0.0
C754 C 0.48956 0.42309 0.36716 0.0
C755 C 0.48706 0.4271 0.34587 0.0
C756 C 0.46201 0.44445 0.33804 0.0
C757 C 0.43069 0.57658 0.30252 0.0
C758 C 0.45774 0.57061 0.28759 0.0
C759 C 0.41322 0.55832 0.31433 0.0
C760 C 0.42108 0.53365 0.31068 0.0
C761 C 0.44785 0.52789 0.29537 0.0
C762 C 0.4665 0.54618 0.28425 0.0
C763 C 0.40335 0.51381 0.32338 0.0
C764 C 0.42675 0.49517 0.33099 0.0
C765 C 0.36419 0.51314 0.32839 0.0
C766 C 0.33726 0.53171 0.32091 0.0
C767 C 0.33041 0.5348 0.29969 0.0
C768 C 0.30437 0.55214 0.29289 0.0
C769 C 0.28552 0.56673 0.30711 0.0
C770 C 0.29221 0.56376 0.32823 0.0
C771 C 0.31771 0.54618 0.33515 0.0
H772 H 0.26558 0.58024 0.30176 0.0
H773 H 0.50894 0.40963 0.37318 0.0
H774 H 0.15174 0.12149 0.86491 0.0
H775 H 0.12952 0.09004 0.84091 0.0
H776 H 0.19243 0.0361 0.87491 0.0
H777 H 0.21406 0.06738 0.89909 0.0
H778 H 0.19748 0.03233 0.83045 0.0
H779 H 0.10504 0.03916 0.88485 0.0
H780 H 0.06028 0.0612 0.90704 0.0
H781 H 0.99644 0.08293 0.85363 0.0
H782 H 0.04124 0.06135 0.83108 0.0
H783 H 0.10711 0.92474 0.7926 0.0
H784 H 0.13909 0.95754 0.81117 0.0
H785 H 0.05027 0.00688 0.79291 0.0
H786 H 0.0173 0.9737 0.77558 0.0
H787 H 0.06 0.01347 0.82991 0.0
H788 H 0.15867 0.0167 0.77549 0.0
H789 H 0.20962 1.00218 0.75261 0.0
H790 H 0.26071 0.96425 0.8035 0.0
H791 H 0.21107 0.97955 0.82685 0.0
C792 C 0.16136 0.103 0.86696 0.0
C793 C 0.18463 0.0968 0.88377 0.0
C794 C 0.14848 0.08505 0.85338 0.0
C795 C 0.15911 0.06072 0.85626 0.0
C796 C 0.18389 0.05475 0.87243 0.0
C797 C 0.19621 0.07258 0.8862 0.0
C798 C 0.14304 0.04129 0.84304 0.0
C799 C 0.16743 0.02804 0.83038 0.0
C800 C 0.10382 0.03603 0.84271 0.0
C801 C 0.07674 0.04888 0.85626 0.0
C802 C 0.08167 0.04883 0.87782 0.0
C803 C 0.05625 0.06121 0.89047 0.0
C804 C 0.02559 0.07352 0.88175 0.0
C805 C 0.02024 0.07343 0.86036 0.0
C806 C 0.04563 0.06112 0.84764 0.0
C807 C 0.09479 0.9427 0.79239 0.0
C808 C 0.05956 0.94666 0.78289 0.0
C809 C 0.11331 0.9616 0.80282 0.0
C810 C 0.09749 0.98501 0.80343 0.0
C811 C 0.06312 0.98907 0.79296 0.0
C812 C 0.04423 0.9701 0.783 0.0
C813 C 0.11427 1.00463 0.81656 0.0
C814 C 0.09 0.0178 0.82957 0.0
C815 C 0.15357 0.01007 0.81699 0.0
C816 C 0.18094 0.99888 0.80276 0.0
C817 C 0.18055 1.00503 0.7817 0.0
C818 C 0.20942 0.99693 0.76873 0.0
C819 C 0.2382 0.98216 0.77656 0.0
C820 C 0.23836 0.97563 0.79743 0.0
C821 C 0.21009 0.98419 0.81058 0.0
H822 H 0.26038 0.97579 0.76644 0.0
H823 H 0.00594 0.08308 0.89156 0.0
H824 H 0.11999 0.1054 0.94813 0.0
H825 H 0.09746 0.09747 0.98321 0.0
H826 H 0.19976 0.12923 1.00787 0.0
H827 H 0.22311 0.13639 0.97281 0.0
H828 H 0.18227 0.08881 0.02833 0.0
H829 H 0.11577 0.16039 1.00747 0.0
H830 H 0.07543 0.18564 0.98497 0.0
H831 H 0.98326 0.13529 0.99285 0.0
H832 H 0.02325 0.10954 0.01517 0.0
H833 H 0.12053 0.10634 0.13125 0.0
H834 H 0.14134 0.11361 0.09573 0.0
H835 H 0.04209 0.07638 0.073 0.0
H836 H 0.02075 0.06936 0.10859 0.0
H837 H 0.05718 0.11898 0.05151 0.0
H838 H 0.12483 0.04784 0.07318 0.0
H839 H 0.16581 0.02363 0.09616 0.0
H840 H 0.25674 0.07467 0.08722 0.0
H841 H 0.2161 0.09938 0.06441 0.0
C842 C 0.13792 0.11045 0.961 0.0
C843 C 0.17336 0.12159 0.95762 0.0
C844 C 0.1248 0.10615 0.98107 0.0
C845 C 0.14667 0.11305 0.99821 0.0
C846 C 0.18229 0.12384 0.9949 0.0
C847 C 0.19547 0.12811 0.97484 0.0
C848 C 0.13255 0.10894 0.01959 0.0
C849 C 0.15512 0.09569 0.03345 0.0
C850 C 0.09677 0.11746 0.02621 0.0
C851 C 0.07263 0.13291 0.01282 0.0
C852 C 0.087 0.1546 1.00426 0.0
C853 C 0.06418 0.16902 0.99157 0.0
C854 C 0.02684 0.16204 0.98743 0.0
C855 C 0.01221 0.14065 0.99604 0.0
C856 C 0.03493 0.12614 0.00872 0.0
C857 C 0.10291 0.09992 0.11869 0.0
C858 C 0.06899 0.08725 0.12273 0.0
C859 C 0.115 0.10391 0.09841 0.0
C860 C 0.09347 0.09532 0.08172 0.0
C861 C 0.05921 0.08309 0.08565 0.0
C862 C 0.04719 0.07895 0.10598 0.0
C863 C 0.10696 0.09894 0.06019 0.0
C864 C 0.08427 0.11209 0.04633 0.0
C865 C 0.14274 0.09047 0.05361 0.0
C866 C 0.1673 0.07558 0.06724 0.0
C867 C 0.15347 0.054 0.07624 0.0
C868 C 0.17665 0.04017 0.08921 0.0
C869 C 0.21382 0.04764 0.09319 0.0
C870 C 0.22792 0.06892 0.08415 0.0
C871 C 0.20484 0.08284 0.07118 0.0
H872 H 0.23173 0.03691 0.10323 0.0
H873 H 0.00921 0.17323 0.97761 0.0
H874 H 0.39859 0.40295 0.45038 0.0
H875 H 0.42089 0.40844 0.48584 0.0
H876 H 0.31822 0.3753 0.50889 0.0
H877 H 0.29532 0.37031 0.47348 0.0
H878 H 0.33608 0.4155 0.53039 0.0
H879 H 0.40042 0.34389 0.50848 0.0
H880 H 0.4402 0.31907 0.48563 0.0
H881 H 0.53394 0.36775 0.49502 0.0
H882 H 0.49452 0.39308 0.5177 0.0
H883 H 0.39665 0.39868 0.63365 0.0
H884 H 0.37575 0.39042 0.59838 0.0
H885 H 0.47749 0.42403 0.57461 0.0
H886 H 0.49914 0.43173 0.60992 0.0
H887 H 0.45993 0.38295 0.5536 0.0
H888 H 0.39475 0.45485 0.57514 0.0
H889 H 0.35469 0.47941 0.59806 0.0
H890 H 0.26209 0.42966 0.58938 0.0
H891 H 0.3018 0.40461 0.56662 0.0
C892 C 0.3806 0.39702 0.463 0.0
C893 C 0.34518 0.38616 0.45909 0.0
C894 C 0.39355 0.39996 0.48326 0.0
C895 C 0.37142 0.39203 0.50003 0.0
C896 C 0.33585 0.38147 0.4962 0.0
C897 C 0.32292 0.37847 0.47594 0.0
C898 C 0.3852 0.39498 0.52159 0.0
C899 C 0.36292 0.40808 0.53553 0.0
C900 C 0.42058 0.38574 0.52821 0.0
C901 C 0.4444 0.37052 0.51462 0.0
C902 C 0.42942 0.34942 0.50553 0.0
C903 C 0.45192 0.33524 0.49264 0.0
C904 C 0.48954 0.34186 0.48883 0.0
C905 C 0.50477 0.36266 0.49796 0.0
C906 C 0.48237 0.37693 0.51085 0.0
C907 C 0.41489 0.40398 0.62094 0.0
C908 C 0.44952 0.41597 0.62462 0.0
C909 C 0.40271 0.39946 0.60077 0.0
C910 C 0.42478 0.40693 0.58383 0.0
C911 C 0.4599 0.41822 0.58743 0.0
C912 C 0.47209 0.42277 0.60762 0.0
C913 C 0.41082 0.40349 0.56236 0.0
C914 C 0.43307 0.39032 0.54844 0.0
C915 C 0.37537 0.41263 0.55575 0.0
C916 C 0.35137 0.42773 0.56934 0.0
C917 C 0.36594 0.44905 0.57825 0.0
C918 C 0.34328 0.46307 0.59119 0.0
C919 C 0.3059 0.45607 0.59522 0.0
C920 C 0.29107 0.43505 0.58626 0.0
C921 C 0.31363 0.42094 0.57333 0.0
H922 H 0.2884 0.46695 0.60524 0.0
H923 H 0.50692 0.33085 0.47884 0.0
H924 H 0.63275 0.39861 0.06458 0.0
H925 H 0.61605 0.40115 0.02807 0.0
H926 H 0.7128 0.35727 0.01276 0.0
H927 H 0.73115 0.35603 0.04906 0.0
H928 H 0.70566 0.39034 0.98476 0.0
H929 H 0.61945 0.33389 0.01662 0.0
H930 H 0.57157 0.31993 0.04179 0.0
H931 H 0.49517 0.37526 0.02086 0.0
H932 H 0.54283 0.38975 0.99573 0.0
H933 H 0.64068 0.33618 0.89111 0.0
H934 H 0.65924 0.34386 0.92698 0.0
H935 H 0.57914 0.40254 0.93001 0.0
H936 H 0.56101 0.39521 0.89385 0.0
H937 H 0.57585 0.36593 0.96365 0.0
H938 H 0.66345 0.41905 0.9289 0.0
H939 H 0.7121 0.42971 0.90305 0.0
H940 H 0.78692 0.37639 0.92894 0.0
H941 H 0.73847 0.36513 0.95476 0.0
C942 C 0.65099 0.38989 0.05345 0.0
C943 C 0.68322 0.37693 0.05992 0.0
C944 C 0.64105 0.39109 0.03254 0.0
C945 C 0.66265 0.37896 0.01761 0.0
C946 C 0.69546 0.36666 0.02393 0.0
C947 C 0.70569 0.36572 0.04479 0.0
C948 C 0.65073 0.37855 0.99549 0.0
C949 C 0.67734 0.38481 0.9802 0.0
C950 C 0.61357 0.37176 0.98939 0.0
C951 C 0.58486 0.36308 1.00447 0.0
C952 C 0.59255 0.34319 0.0175 0.0
C953 C 0.56544 0.33517 0.03174 0.0
C954 C 0.5304 0.34675 0.03297 0.0
C955 C 0.52236 0.36634 0.01992 0.0
C956 C 0.54939 0.37446 1.00566 0.0
C957 C 0.62725 0.35082 0.8994 0.0
C958 C 0.59945 0.36512 0.88976 0.0
C959 C 0.63792 0.35523 0.91983 0.0
C960 C 0.62061 0.37379 0.93111 0.0
C961 C 0.59286 0.38816 0.92153 0.0
C962 C 0.58268 0.38405 0.90091 0.0
C963 C 0.63086 0.37749 0.9531 0.0
C964 C 0.60398 0.37174 0.96832 0.0
C965 C 0.66791 0.38431 0.95911 0.0
C966 C 0.69718 0.3911 0.94365 0.0
C967 C 0.69014 0.40944 0.92897 0.0
C968 C 0.71771 0.41562 0.91434 0.0
C969 C 0.75254 0.40369 0.91432 0.0
C970 C 0.75991 0.3856 0.92896 0.0
C971 C 0.73242 0.37933 0.94361 0.0
H972 H 0.77386 0.40851 0.90299 0.0
H973 H 0.50944 0.34051 0.04401 0.0
H974 H 0.817 0.09962 0.55606 0.0
H975 H 0.83105 0.09555 0.51925 0.0
H976 H 0.88179 0.16699 0.51888 0.0
H977 H 0.86662 0.17137 0.55553 0.0
H978 H 0.83854 0.16328 0.48725 0.0
H979 H 0.93476 0.11253 0.51587 0.0
H980 H 0.96048 0.07966 0.53765 0.0
H981 H 0.89468 0.02727 0.50414 0.0
H982 H 0.8681 0.05987 0.48235 0.0
H983 H 0.9155 0.15368 0.38624 0.0
H984 H 0.91286 0.15546 0.42404 0.0
H985 H 0.84352 0.09082 0.42521 0.0
H986 H 0.84624 0.08885 0.38745 0.0
H987 H 0.8997 0.09129 0.45626 0.0
H988 H 0.80169 0.14343 0.42909 0.0
H989 H 0.77701 0.17684 0.40754 0.0
H990 H 0.84969 0.22738 0.43888 0.0
H991 H 0.87521 0.19417 0.46042 0.0
C992 C 0.83158 0.11431 0.54816 0.0
C993 C 0.8407 0.13582 0.55865 0.0
C994 C 0.83973 0.11196 0.52711 0.0
C995 C 0.85794 0.13085 0.51623 0.0
C996 C 0.86766 0.15217 0.52685 0.0
C997 C 0.85902 0.15466 0.5478 0.0
C998 C 0.86521 0.12891 0.4936 0.0
C999 C 0.85256 0.1477 0.48059 0.0
C1000 C 0.88283 0.1084 0.4847 0.0
C1001 C 0.89918 0.08869 0.49758 0.0
C1002 C 0.92559 0.09402 0.51322 0.0
C1003 C 0.94034 0.07543 0.52557 0.0
C1004 C 0.92915 0.0514 0.52232 0.0
C1005 C 0.90329 0.0459 0.50666 0.0
C1006 C 0.8884 0.06442 0.49429 0.0
C1007 C 0.90014 0.13966 0.39458 0.0
C1008 C 0.88085 0.12122 0.38386 0.0
C1009 C 0.89851 0.14076 0.41615 0.0
C1010 C 0.87773 0.12337 0.42743 0.0
C1011 C 0.85967 0.10443 0.41683 0.0
C1012 C 0.861 0.10344 0.39525 0.0
C1013 C 0.87311 0.12564 0.45015 0.0
C1014 C 0.88608 0.10691 0.46309 0.0
C1015 C 0.85614 0.14629 0.45905 0.0
C1016 C 0.84064 0.16628 0.44621 0.0
C1017 C 0.81263 0.16164 0.43127 0.0
C1018 C 0.79845 0.18054 0.41908 0.0
C1019 C 0.81185 0.20421 0.4218 0.0
C1020 C 0.83938 0.20903 0.43677 0.0
C1021 C 0.85369 0.19018 0.44898 0.0
H1022 H 0.80084 0.21882 0.41235 0.0
H1023 H 0.94056 0.03705 0.53191 0.0
H1024 H 0.84365 0.9328 0.05911 0.0
H1025 H 0.86639 0.93957 0.02393 0.0
H1026 H 0.86265 0.86251 0.01279 0.0
H1027 H 0.84155 0.85549 0.04827 0.0
H1028 H 0.92377 0.88095 0.9956 0.0
H1029 H 0.79212 0.90044 0.99521 0.0
H1030 H 0.73383 0.92076 1.00674 0.0
H1031 H 0.78282 0.99021 0.99204 0.0
H1032 H 0.84164 0.97031 0.98068 0.0
H1033 H 0.8818 0.92004 0.88167 0.0
H1034 H 0.86077 0.91103 0.91689 0.0
H1035 H 0.97135 0.93044 0.94009 0.0
H1036 H 0.99287 0.93888 0.90486 0.0
H1037 H 0.8544 0.93858 0.95037 0.0
H1038 H 0.99201 0.89399 0.98158 0.0
H1039 H 0.04551 0.86997 0.96837 0.0
H1040 H 0.97614 0.844 0.9186 0.0
H1041 H 0.92209 0.86754 0.93169 0.0
C1042 C 0.84824 0.91723 0.04932 0.0
C1043 C 0.84054 0.89359 0.05658 0.0
C1044 C 0.86085 0.92116 0.02909 0.0
C1045 C 0.86569 0.90159 0.01554 0.0
C1046 C 0.85899 0.87793 0.02288 0.0
C1047 C 0.84654 0.87397 0.04315 0.0
C1048 C 0.87698 0.90582 0.99363 0.0
C1049 C 0.90865 0.8936 0.98575 0.0
C1050 C 0.85677 0.92186 0.98052 0.0
C1051 C 0.82141 0.9339 0.98728 0.0
C1052 C 0.79057 0.92006 0.99458 0.0
C1053 C 0.75742 0.93149 1.00106 0.0
C1054 C 0.75466 0.95676 1.00017 0.0
C1055 C 0.78502 0.97064 0.99275 0.0
C1056 C 0.81826 0.95929 0.98627 0.0
C1057 C 0.90176 0.92219 0.89425 0.0
C1058 C 0.93909 0.93009 0.89041 0.0
C1059 C 0.88959 0.91722 0.9144 0.0
C1060 C 0.91453 0.91986 0.93115 0.0
C1061 C 0.95169 0.928 0.92741 0.0
C1062 C 0.96386 0.93303 0.90726 0.0
C1063 C 0.90165 0.91413 0.95252 0.0
C1064 C 0.86964 0.92603 0.96027 0.0
C1065 C 0.92093 0.8973 0.96531 0.0
C1066 C 0.95313 0.88276 0.95751 0.0
C1067 C 0.98814 0.88307 0.96787 0.0
C1068 C 0.01856 0.86955 0.9604 0.0
C1069 C 0.01426 0.85554 0.94262 0.0
C1070 C 0.97947 0.85494 0.93232 0.0
C1071 C 0.94895 0.86839 0.93975 0.0
H1072 H 0.03786 0.84512 0.93684 0.0
H1073 H 0.72897 0.96558 1.0052 0.0
H1074 H 0.61363 0.61926 0.56586 0.0
H1075 H 0.59023 0.61278 0.53072 0.0
H1076 H 0.70273 0.62505 0.50677 0.0
H1077 H 0.72639 0.63131 0.5418 0.0
H1078 H 0.65057 0.64914 0.48424 0.0
H1079 H 0.6661 0.568 0.51057 0.0
H1080 H 0.65657 0.53432 0.53529 0.0
H1081 H 0.53652 0.5368 0.52478 0.0
H1082 H 0.54529 0.57075 0.5002 0.0
H1083 H 0.62604 0.60283 0.383 0.0
H1084 H 0.64664 0.61055 0.41842 0.0
H1085 H 0.53374 0.59499 0.44045 0.0
H1086 H 0.51301 0.58713 0.40505 0.0
H1087 H 0.58437 0.57319 0.46426 0.0
H1088 H 0.56852 0.65365 0.43743 0.0
H1089 H 0.57765 0.68749 0.41283 0.0
H1090 H 0.69743 0.68666 0.42439 0.0
H1091 H 0.6891 0.65257 0.44886 0.0
C1092 C 0.63347 0.62035 0.55314 0.0
C1093 C 0.67192 0.62581 0.55669 0.0
C1094 C 0.62003 0.6167 0.53304 0.0
C1095 C 0.64478 0.61826 0.51609 0.0
C1096 C 0.68307 0.62385 0.51958 0.0
C1097 C 0.69653 0.6275 0.53964 0.0
C1098 C 0.63086 0.61413 0.4947 0.0
C1099 C 0.63649 0.63241 0.47981 0.0
C1100 C 0.61163 0.59256 0.48901 0.0
C1101 C 0.60632 0.57208 0.50371 0.0
C1102 C 0.63764 0.56149 0.51365 0.0
C1103 C 0.63238 0.54233 0.52762 0.0
C1104 C 0.59596 0.53347 0.53164 0.0
C1105 C 0.56472 0.54371 0.52167 0.0
C1106 C 0.56981 0.5629 0.50771 0.0
C1107 C 0.60548 0.60132 0.39536 0.0
C1108 C 0.56784 0.59442 0.39117 0.0
C1109 C 0.61731 0.60573 0.41562 0.0
C1110 C 0.59166 0.60362 0.43214 0.0
C1111 C 0.55408 0.5967 0.428 0.0
C1112 C 0.54228 0.59217 0.40775 0.0
C1113 C 0.60419 0.60817 0.45374 0.0
C1114 C 0.59833 0.58996 0.46868 0.0
C1115 C 0.62312 0.62984 0.45949 0.0
C1116 C 0.62821 0.6504 0.44484 0.0
C1117 C 0.59685 0.66056 0.43461 0.0
C1118 C 0.60187 0.6798 0.42071 0.0
C1119 C 0.63811 0.68918 0.41701 0.0
C1120 C 0.66939 0.67936 0.42725 0.0
C1121 C 0.66453 0.66009 0.44115 0.0
H1122 H 0.64194 0.70408 0.40624 0.0
H1123 H 0.59194 0.51863 0.54246 0.0
H1124 H 0.37915 0.62796 0.94779 0.0
H1125 H 0.40667 0.6293 0.98244 0.0
H1126 H 0.29474 0.63356 0.00881 0.0
H1127 H 0.267 0.6321 0.97423 0.0
H1128 H 0.34149 0.66583 0.02637 0.0
H1129 H 0.34531 0.58099 0.01093 0.0
H1130 H 0.36055 0.54483 0.99035 0.0
H1131 H 0.4792 0.56157 0.9949 0.0
H1132 H 0.46463 0.59805 0.01526 0.0
H1133 H 0.39734 0.64478 0.13033 0.0
H1134 H 0.36776 0.64052 0.09636 0.0
H1135 H 0.47816 0.63619 0.06815 0.0
H1136 H 0.5079 0.63958 0.10211 0.0
H1137 H 0.43083 0.60322 0.05189 0.0
H1138 H 0.42674 0.68865 0.06645 0.0
H1139 H 0.41145 0.72486 0.08697 0.0
H1140 H 0.29308 0.70685 0.08402 0.0
H1141 H 0.30772 0.67033 0.06371 0.0
C1142 C 0.36036 0.62893 0.96098 0.0
C1143 C 0.32086 0.62991 0.95822 0.0
C1144 C 0.37614 0.62972 0.98078 0.0
C1145 C 0.35276 0.63129 0.99826 0.0
C1146 C 0.31334 0.63239 0.99556 0.0
C1147 C 0.29754 0.63164 0.97576 0.0
C1148 C 0.36943 0.63221 0.01935 0.0
C1149 C 0.36058 0.65194 0.03206 0.0
C1150 C 0.39498 0.61437 0.02663 0.0
C1151 C 0.40384 0.59239 0.01446 0.0
C1152 C 0.37464 0.57707 1.0074 0.0
C1153 C 0.38316 0.5565 0.9958 0.0
C1154 C 0.42081 0.55094 0.99128 0.0
C1155 C 0.45004 0.56592 0.99839 0.0
C1156 C 0.44167 0.58653 0.00998 0.0
C1157 C 0.41534 0.64266 0.11693 0.0
C1158 C 0.45503 0.64267 0.11896 0.0
C1159 C 0.39838 0.64045 0.09749 0.0
C1160 C 0.42074 0.63836 0.07965 0.0
C1161 C 0.46032 0.63789 0.08167 0.0
C1162 C 0.47729 0.64007 0.10109 0.0
C1163 C 0.40298 0.63687 0.05886 0.0
C1164 C 0.41164 0.61705 0.04621 0.0
C1165 C 0.37724 0.65462 0.05162 0.0
C1166 C 0.36836 0.67663 0.06374 0.0
C1167 C 0.39748 0.69231 0.07031 0.0
C1168 C 0.38892 0.7129 0.08188 0.0
C1169 C 0.35133 0.71811 0.08684 0.0
C1170 C 0.32219 0.70277 0.08019 0.0
C1171 C 0.33059 0.68213 0.06864 0.0
H1172 H 0.34476 0.73407 0.0958 0.0
H1173 H 0.42735 0.535 0.98229 0.0
H1174 H 0.19308 0.91481 0.45748 0.0
H1175 H 0.17589 0.92037 0.49364 0.0
H1176 H 0.12961 0.84782 0.49578 0.0
H1177 H 0.14513 0.84249 0.4593 0.0
H1178 H 0.08557 0.87825 0.5171 0.0
H1179 H 0.21851 0.86023 0.5144 0.0
H1180 H 0.2846 0.86559 0.50285 0.0
H1181 H 0.28607 0.93791 0.52718 0.0
H1182 H 0.21978 0.93309 0.53863 0.0
H1183 H 0.09583 0.8608 0.62698 0.0
H1184 H 0.09874 0.85882 0.58922 0.0
H1185 H 0.14673 0.93097 0.58723 0.0
H1186 H 0.14426 0.93286 0.62491 0.0
H1187 H 0.18844 0.90109 0.56557 0.0
H1188 H 0.05549 0.9182 0.56971 0.0
H1189 H 0.98971 0.9121 0.58151 0.0
H1190 H 0.98835 0.84084 0.55505 0.0
H1191 H 0.05433 0.84638 0.54332 0.0
C1192 C 0.17865 0.90016 0.46549 0.0
C1193 C 0.17078 0.87811 0.45545 0.0
C1194 C 0.16916 0.90329 0.48626 0.0
C1195 C 0.15203 0.88436 0.49756 0.0
C1196 C 0.14299 0.86263 0.48743 0.0
C1197 C 0.15228 0.85953 0.46661 0.0
C1198 C 0.14489 0.8869 0.52009 0.0
C1199 C 0.10811 0.88301 0.52775 0.0
C1200 C 0.17415 0.89349 0.53397 0.0
C1201 C 0.21407 0.89638 0.52719 0.0
C1202 C 0.23284 0.87734 0.51716 0.0
C1203 C 0.27035 0.88027 0.51065 0.0
C1204 C 0.28949 0.9021 0.51423 0.0
C1205 C 0.27119 0.92103 0.52439 0.0
C1206 C 0.23367 0.9182 0.53091 0.0
C1207 C 0.10615 0.87643 0.61843 0.0
C1208 C 0.12003 0.89692 0.62889 0.0
C1209 C 0.10783 0.8753 0.59685 0.0
C1210 C 0.12295 0.89476 0.58533 0.0
C1211 C 0.13517 0.91566 0.59575 0.0
C1212 C 0.13374 0.91673 0.61728 0.0
C1213 C 0.12899 0.8927 0.56265 0.0
C1214 C 0.16573 0.89652 0.55496 0.0
C1215 C 0.09971 0.88596 0.54883 0.0
C1216 C 0.05999 0.88262 0.5558 0.0
C1217 C 0.04127 0.90115 0.56654 0.0
C1218 C 0.00393 0.89781 0.57319 0.0
C1219 C 0.9849 0.87607 0.56908 0.0
C1220 C 0.00314 0.85766 0.55825 0.0
C1221 C 0.0405 0.8609 0.55158 0.0
H1222 H 0.95598 0.87352 0.57424 0.0
H1223 H 0.31853 0.90434 0.50918 0.0
H1224 H 0.18862 0.32232 0.39281 0.0
H1225 H 0.14872 0.29496 0.37228 0.0
H1226 H 0.24476 0.27787 0.33393 0.0
H1227 H 0.28463 0.30538 0.35449 0.0
H1228 H 0.17756 0.28119 0.31133 0.0
H1229 H 0.22267 0.24141 0.37319 0.0
H1230 H 0.23224 0.23697 0.41075 0.0
H1231 H 0.11183 0.23682 0.42018 0.0
H1232 H 0.10157 0.24161 0.38268 0.0
H1233 H 0.12686 0.16522 0.27361 0.0
H1234 H 0.15781 0.19933 0.29065 0.0
H1235 H 0.05807 0.20996 0.3279 0.0
H1236 H 0.02645 0.17621 0.31003 0.0
H1237 H 0.12276 0.21198 0.35081 0.0
H1238 H 0.0766 0.24847 0.28923 0.0
H1239 H 0.06571 0.25368 0.25188 0.0
H1240 H 0.18548 0.26072 0.24182 0.0
H1241 H 0.19719 0.25508 0.2791 0.0
C1242 C 0.20083 0.31323 0.37961 0.0
C1243 C 0.23941 0.31602 0.375 0.0
C1244 C 0.17816 0.29747 0.36801 0.0
C1245 C 0.19385 0.28409 0.35173 0.0
C1246 C 0.23203 0.28799 0.3464 0.0
C1247 C 0.25474 0.30374 0.35807 0.0
C1248 C 0.17138 0.26472 0.34136 0.0
C1249 C 0.16588 0.26593 0.31991 0.0
C1250 C 0.15525 0.24512 0.35263 0.0
C1251 C 0.16137 0.24214 0.37517 0.0
C1252 C 0.19825 0.24063 0.3833 0.0
C1253 C 0.20379 0.23802 0.40457 0.0
C1254 C 0.17266 0.23669 0.41785 0.0
C1255 C 0.13592 0.2379 0.40988 0.0
C1256 C 0.13022 0.24055 0.38862 0.0
C1257 C 0.11109 0.17531 0.28485 0.0
C1258 C 0.0738 0.16865 0.28985 0.0
C1259 C 0.12897 0.19463 0.29485 0.0
C1260 C 0.11 0.2076 0.31027 0.0
C1261 C 0.07316 0.20038 0.31591 0.0
C1262 C 0.05518 0.18108 0.30576 0.0
C1263 C 0.12914 0.2283 0.32072 0.0
C1264 C 0.13413 0.22732 0.3422 0.0
C1265 C 0.14461 0.24814 0.30947 0.0
C1266 C 0.13779 0.25119 0.28698 0.0
C1267 C 0.10067 0.2509 0.27905 0.0
C1268 C 0.09433 0.25401 0.25789 0.0
C1269 C 0.12487 0.25767 0.24451 0.0
C1270 C 0.16184 0.25802 0.25223 0.0
C1271 C 0.16835 0.25485 0.27338 0.0
H1272 H 0.11989 0.26011 0.22814 0.0
H1273 H 0.17701 0.23465 0.43432 0.0
H1274 H 0.23245 0.22097 0.86599 0.0
H1275 H 0.27316 0.24752 0.84506 0.0
H1276 H 0.36975 0.20316 0.86037 0.0
H1277 H 0.32886 0.17685 0.88166 0.0
H1278 H 0.38586 0.24933 0.86668 0.0
H1279 H 0.33183 0.20508 0.81067 0.0
H1280 H 0.28107 0.18705 0.78946 0.0
H1281 H 0.23505 0.25782 0.77792 0.0
H1282 H 0.28521 0.27627 0.79931 0.0
H1283 H 0.50509 0.32013 0.79878 0.0
H1284 H 0.47087 0.28659 0.81561 0.0
H1285 H 0.36555 0.32474 0.807 0.0
H1286 H 0.39957 0.35834 0.79069 0.0
H1287 H 0.35876 0.27814 0.79551 0.0
H1288 H 0.4082 0.32173 0.85395 0.0
H1289 H 0.45798 0.34033 0.8755 0.0
H1290 H 0.51203 0.27114 0.88236 0.0
H1291 H 0.46283 0.25216 0.86057 0.0
C1292 C 0.26219 0.21656 0.86436 0.0
C1293 C 0.27759 0.19676 0.87506 0.0
C1294 C 0.28548 0.23173 0.85243 0.0
C1295 C 0.3246 0.22728 0.85094 0.0
C1296 C 0.33971 0.20696 0.86121 0.0
C1297 C 0.31636 0.19182 0.8732 0.0
C1298 C 0.34992 0.24489 0.84001 0.0
C1299 C 0.38037 0.25523 0.85095 0.0
C1300 C 0.3424 0.25308 0.81964 0.0
C1301 C 0.31214 0.24204 0.80676 0.0
C1302 C 0.31071 0.21679 0.80375 0.0
C1303 C 0.28207 0.20649 0.79167 0.0
C1304 C 0.2548 0.22127 0.78239 0.0
C1305 C 0.25617 0.24639 0.78514 0.0
C1306 C 0.28473 0.25678 0.79722 0.0
C1307 C 0.47479 0.32156 0.8009 0.0
C1308 C 0.45509 0.34192 0.79348 0.0
C1309 C 0.45519 0.30231 0.81036 0.0
C1310 C 0.41558 0.30313 0.81259 0.0
C1311 C 0.39603 0.32358 0.80535 0.0
C1312 C 0.41556 0.3428 0.79602 0.0
C1313 C 0.39414 0.28274 0.82231 0.0
C1314 C 0.36447 0.27194 0.81114 0.0
C1315 C 0.40231 0.27418 0.84246 0.0
C1316 C 0.43203 0.28557 0.85547 0.0
C1317 C 0.43088 0.31051 0.8599 0.0
C1318 C 0.45895 0.32112 0.87218 0.0
C1319 C 0.48811 0.30692 0.88031 0.0
C1320 C 0.48939 0.2821 0.87607 0.0
C1321 C 0.46142 0.27141 0.86375 0.0
H1322 H 0.50962 0.31513 0.88996 0.0
H1323 H 0.23266 0.21326 0.77303 0.0
H1324 H 0.77607 0.20255 0.66925 0.0
H1325 H 0.73649 0.22739 0.69217 0.0
H1326 H 0.64856 0.22864 0.64586 0.0
H1327 H 0.68789 0.20382 0.62315 0.0
H1328 H 0.67029 0.27451 0.65911 0.0
H1329 H 0.63524 0.1971 0.68921 0.0
H1330 H 0.64801 0.15768 0.70594 0.0
H1331 H 0.7013 0.19401 0.75685 0.0
H1332 H 0.6893 0.23366 0.74027 0.0
H1333 H 0.52604 0.33717 0.70853 0.0
H1334 H 0.56122 0.30507 0.69165 0.0
H1335 H 0.63365 0.29832 0.74504 0.0
H1336 H 0.59692 0.32942 0.76267 0.0
H1337 H 0.62305 0.25536 0.72951 0.0
H1338 H 0.66018 0.33191 0.70105 0.0
H1339 H 0.64956 0.37226 0.68547 0.0
H1340 H 0.59813 0.33905 0.6325 0.0
H1341 H 0.60791 0.29851 0.64791 0.0
C1342 C 0.74785 0.20762 0.66431 0.0
C1343 C 0.73462 0.20117 0.64465 0.0
C1344 C 0.72534 0.22183 0.67733 0.0
C1345 C 0.68955 0.22988 0.67071 0.0
C1346 C 0.67603 0.22265 0.65128 0.0
C1347 C 0.69835 0.20836 0.6384 0.0
C1348 C 0.66732 0.24739 0.68313 0.0
C1349 C 0.65956 0.2702 0.67441 0.0
C1350 C 0.65461 0.24215 0.7034 0.0
C1351 C 0.66172 0.21833 0.71339 0.0
C1352 C 0.64998 0.19668 0.70388 0.0
C1353 C 0.65702 0.17429 0.71336 0.0
C1354 C 0.67556 0.17333 0.73242 0.0
C1355 C 0.687 0.19477 0.74207 0.0
C1356 C 0.68005 0.2172 0.73265 0.0
C1357 C 0.54919 0.32878 0.71685 0.0
C1358 C 0.55908 0.33641 0.73685 0.0
C1359 C 0.56951 0.31044 0.70708 0.0
C1360 C 0.60095 0.29973 0.71677 0.0
C1361 C 0.60981 0.30646 0.7371 0.0
C1362 C 0.58892 0.32446 0.74711 0.0
C1363 C 0.62532 0.28235 0.70531 0.0
C1364 C 0.63378 0.25969 0.71423 0.0
C1365 C 0.63939 0.28786 0.68532 0.0
C1366 C 0.63452 0.31218 0.67571 0.0
C1367 C 0.6465 0.33322 0.68611 0.0
C1368 C 0.64061 0.35612 0.67732 0.0
C1369 C 0.6231 0.3582 0.65804 0.0
C1370 C 0.61166 0.33739 0.64745 0.0
C1371 C 0.6174 0.31445 0.65619 0.0
H1372 H 0.61841 0.37592 0.65131 0.0
H1373 H 0.68098 0.15599 0.73973 0.0
H1374 H 0.81491 0.33534 0.15128 0.0
H1375 H 0.85588 0.31165 0.17448 0.0
H1376 H 0.76814 0.25718 0.18026 0.0
H1377 H 0.72711 0.28115 0.15754 0.0
H1378 H 0.80471 0.26086 0.21579 0.0
H1379 H 0.83969 0.25263 0.14408 0.0
H1380 H 0.85982 0.26739 0.10974 0.0
H1381 H 0.96094 0.29774 0.13624 0.0
H1382 H 0.94113 0.28339 0.17079 0.0
H1383 H 0.95621 0.15924 0.20558 0.0
H1384 H 0.91703 0.19129 0.19098 0.0
H1385 H 0.91708 0.22805 0.24965 0.0
H1386 H 0.9552 0.19533 0.26463 0.0
H1387 H 0.9264 0.2364 0.18401 0.0
H1388 H 0.83665 0.26153 0.25467 0.0
H1389 H 0.81322 0.24323 0.28713 0.0
H1390 H 0.81571 0.17259 0.25965 0.0
H1391 H 0.83901 0.19044 0.22696 0.0
C1392 C 0.80413 0.31867 0.15807 0.0
C1393 C 0.76796 0.31004 0.15287 0.0
C1394 C 0.82759 0.30504 0.17116 0.0
C1395 C 0.81538 0.28238 0.17888 0.0
C1396 C 0.77826 0.27457 0.17457 0.0
C1397 C 0.7548 0.28826 0.16161 0.0
C1398 C 0.84203 0.26574 0.18978 0.0
C1399 C 0.83147 0.25566 0.20892 0.0
C1400 C 0.87677 0.2586 0.18076 0.0
C1401 C 0.88873 0.2672 0.16003 0.0
C1402 C 0.86608 0.2626 0.14259 0.0
C1403 C 0.87745 0.27087 0.1231 0.0
C1404 C 0.91158 0.28356 0.12082 0.0
C1405 C 0.93447 0.28795 0.13804 0.0
C1406 C 0.92319 0.27976 0.15757 0.0
C1407 C 0.94798 0.17415 0.21542 0.0
C1408 C 0.95871 0.17465 0.23632 0.0
C1409 C 0.92556 0.19254 0.20701 0.0
C1410 C 0.91359 0.21207 0.2192 0.0
C1411 C 0.92514 0.21296 0.23999 0.0
C1412 C 0.94712 0.19431 0.24852 0.0
C1413 C 0.88895 0.23121 0.20996 0.0
C1414 C 0.89993 0.24182 0.19109 0.0
C1415 C 0.85419 0.23834 0.21901 0.0
C1416 C 0.83994 0.22732 0.23846 0.0
C1417 C 0.83214 0.24209 0.25555 0.0
C1418 C 0.81895 0.23179 0.27398 0.0
C1419 C 0.8132 0.20674 0.27547 0.0
C1420 C 0.82047 0.19195 0.25849 0.0
C1421 C 0.83371 0.20215 0.24002 0.0
H1422 H 0.80298 0.19879 0.28975 0.0
H1423 H 0.92034 0.28994 0.10572 0.0
H1424 H 0.73325 0.71936 0.64083 0.0
H1425 H 0.76378 0.74881 0.66388 0.0
H1426 H 0.86586 0.70605 0.66362 0.0
H1427 H 0.83505 0.67648 0.64076 0.0
H1428 H 0.85265 0.72464 0.70167 0.0
H1429 H 0.85685 0.75483 0.63185 0.0
H1430 H 0.83015 0.76706 0.59818 0.0
H1431 H 0.76235 0.82107 0.62791 0.0
H1432 H 0.78828 0.80892 0.66181 0.0
H1433 H 0.98766 0.81582 0.72841 0.0
H1434 H 0.95029 0.78365 0.71214 0.0
H1435 H 0.85162 0.82949 0.71308 0.0
H1436 H 0.88917 0.86197 0.72877 0.0
H1437 H 0.86091 0.80944 0.67583 0.0
H1438 H 0.84676 0.77446 0.7452 0.0
H1439 H 0.86816 0.76 0.77937 0.0
H1440 H 0.95445 0.71719 0.75066 0.0
H1441 H 0.93205 0.73036 0.71622 0.0
C1442 C 0.76187 0.71603 0.64616 0.0
C1443 C 0.78184 0.69569 0.6393 0.0
C1444 C 0.77942 0.73293 0.65914 0.0
C1445 C 0.81736 0.72987 0.66522 0.0
C1446 C 0.83663 0.70883 0.65912 0.0
C1447 C 0.81904 0.69193 0.64615 0.0
C1448 C 0.83758 0.74914 0.677 0.0
C1449 C 0.85474 0.74311 0.69588 0.0
C1450 C 0.83975 0.77342 0.66975 0.0
C1451 C 0.82419 0.78079 0.64938 0.0
C1452 C 0.83602 0.76918 0.63122 0.0
C1453 C 0.82107 0.77612 0.6121 0.0
C1454 C 0.79449 0.79478 0.61091 0.0
C1455 C 0.78289 0.80658 0.62885 0.0
C1456 C 0.79772 0.79969 0.64802 0.0
C1457 C 0.95798 0.81902 0.72518 0.0
C1458 C 0.94133 0.84141 0.72999 0.0
C1459 C 0.9365 0.8005 0.71611 0.0
C1460 C 0.89792 0.80395 0.71163 0.0
C1461 C 0.88123 0.82629 0.7165 0.0
C1462 C 0.90268 0.8448 0.7256 0.0
C1463 C 0.87584 0.78495 0.70053 0.0
C1464 C 0.85855 0.79101 0.68167 0.0
C1465 C 0.87347 0.76074 0.70777 0.0
C1466 C 0.88811 0.75359 0.72827 0.0
C1467 C 0.87047 0.7621 0.74623 0.0
C1468 C 0.88266 0.75406 0.76562 0.0
C1469 C 0.91312 0.73806 0.76723 0.0
C1470 C 0.93101 0.7297 0.7494 0.0
C1471 C 0.91832 0.73722 0.72994 0.0
H1472 H 0.92263 0.73198 0.78228 0.0
H1473 H 0.78295 0.80013 0.59609 0.0
H1474 H 0.7742 0.80728 0.14601 0.0
H1475 H 0.74307 0.77725 0.16858 0.0
H1476 H 0.63434 0.80843 0.15393 0.0
H1477 H 0.66562 0.83866 0.1317 0.0
H1478 H 0.63616 0.79474 0.19361 0.0
H1479 H 0.66718 0.7584 0.12849 0.0
H1480 H 0.70923 0.74628 0.09999 0.0
H1481 H 0.7755 0.70351 0.14212 0.0
H1482 H 0.73411 0.71565 0.17093 0.0
H1483 H 0.51702 0.69465 0.21855 0.0
H1484 H 0.551 0.72776 0.20143 0.0
H1485 H 0.65704 0.69144 0.21294 0.0
H1486 H 0.62287 0.65742 0.22855 0.0
H1487 H 0.65821 0.70842 0.17622 0.0
H1488 H 0.62407 0.74435 0.24164 0.0
H1489 H 0.58037 0.75705 0.2693 0.0
H1490 H 0.51767 0.80003 0.22584 0.0
H1491 H 0.56095 0.78775 0.19794 0.0
C1492 C 0.74377 0.80802 0.14809 0.0
C1493 C 0.72218 0.82526 0.13737 0.0
C1494 C 0.72595 0.79075 0.16081 0.0
C1495 C 0.68623 0.79028 0.16271 0.0
C1496 C 0.66495 0.80837 0.15273 0.0
C1497 C 0.68279 0.82566 0.14008 0.0
C1498 C 0.66663 0.77019 0.17402 0.0
C1499 C 0.64081 0.77586 0.18974 0.0
C1500 C 0.67294 0.74549 0.16919 0.0
C1501 C 0.69782 0.73816 0.15189 0.0
C1502 C 0.6909 0.74657 0.1317 0.0
C1503 C 0.71459 0.73967 0.11549 0.0
C1504 C 0.74509 0.7242 0.11925 0.0
C1505 C 0.75191 0.71554 0.13923 0.0
C1506 C 0.72834 0.72241 0.1555 0.0
C1507 C 0.54758 0.69366 0.2174 0.0
C1508 C 0.56727 0.67353 0.22535 0.0
C1509 C 0.56709 0.71281 0.2078 0.0
C1510 C 0.60683 0.71257 0.20633 0.0
C1511 C 0.62646 0.6923 0.21403 0.0
C1512 C 0.60689 0.67293 0.22322 0.0
C1513 C 0.62787 0.73287 0.19603 0.0
C1514 C 0.65385 0.72725 0.18036 0.0
C1515 C 0.62153 0.75759 0.20087 0.0
C1516 C 0.59559 0.76499 0.21768 0.0
C1517 C 0.60084 0.75641 0.23797 0.0
C1518 C 0.57618 0.76353 0.25368 0.0
C1519 C 0.54618 0.77917 0.2493 0.0
C1520 C 0.54089 0.78788 0.22921 0.0
C1521 C 0.56554 0.78093 0.21346 0.0
H1522 H 0.52711 0.78461 0.26149 0.0
H1523 H 0.76339 0.71887 0.10668 0.0
H1524 H 0.32089 0.81636 0.38383 0.0
H1525 H 0.35922 0.79074 0.36125 0.0
H1526 H 0.25823 0.76876 0.32853 0.0
H1527 H 0.21988 0.79414 0.35147 0.0
H1528 H 0.29799 0.73036 0.33849 0.0
H1529 H 0.32598 0.80595 0.3058 0.0
H1530 H 0.34569 0.84886 0.30346 0.0
H1531 H 0.45538 0.83059 0.32748 0.0
H1532 H 0.43615 0.7876 0.33025 0.0
H1533 H 0.44873 0.69625 0.25502 0.0
H1534 H 0.40774 0.72608 0.27141 0.0
H1535 H 0.41049 0.68459 0.3281 0.0
H1536 H 0.45007 0.65409 0.31146 0.0
H1537 H 0.41589 0.75557 0.30247 0.0
H1538 H 0.32782 0.6897 0.35359 0.0
H1539 H 0.30614 0.64706 0.35319 0.0
H1540 H 0.31072 0.64695 0.28697 0.0
H1541 H 0.33204 0.68964 0.28691 0.0
C1542 C 0.30714 0.80652 0.37144 0.0
C1543 C 0.26771 0.80738 0.36907 0.0
C1544 C 0.32899 0.79186 0.35856 0.0
C1545 C 0.31171 0.77787 0.34305 0.0
C1546 C 0.27224 0.77936 0.34035 0.0
C1547 C 0.2504 0.79401 0.35328 0.0
C1548 C 0.3345 0.76051 0.33067 0.0
C1549 C 0.32366 0.73594 0.33054 0.0
C1550 C 0.36778 0.76772 0.32002 0.0
C1551 C 0.37949 0.79357 0.31839 0.0
C1552 C 0.3542 0.8111 0.31074 0.0
C1553 C 0.36531 0.83544 0.30931 0.0
C1554 C 0.40174 0.84246 0.31536 0.0
C1555 C 0.42716 0.82513 0.32282 0.0
C1556 C 0.41618 0.80077 0.3243 0.0
C1557 C 0.44009 0.69326 0.27088 0.0
C1558 C 0.45184 0.67247 0.28178 0.0
C1559 C 0.417 0.71049 0.28031 0.0
C1560 C 0.4054 0.70742 0.3009 0.0
C1561 C 0.4183 0.68711 0.31205 0.0
C1562 C 0.44115 0.66976 0.30257 0.0
C1563 C 0.37976 0.72541 0.31065 0.0
C1564 C 0.39009 0.75006 0.31033 0.0
C1565 C 0.34558 0.71835 0.3205 0.0
C1566 C 0.33182 0.69284 0.32028 0.0
C1567 C 0.324 0.68062 0.33893 0.0
C1568 C 0.31185 0.65643 0.33878 0.0
C1569 C 0.30721 0.64428 0.32005 0.0
C1570 C 0.31452 0.65635 0.30144 0.0
C1571 C 0.32666 0.68054 0.30149 0.0
H1572 H 0.29789 0.62554 0.31997 0.0
H1573 H 0.41029 0.86131 0.31424 0.0
H1574 H 0.19047 0.66771 0.85294 0.0
H1575 H 0.16308 0.70012 0.83135 0.0
H1576 H 0.19335 0.75285 0.8776 0.0
H1577 H 0.2206 0.72054 0.89905 0.0
H1578 H 0.11919 0.75624 0.86619 0.0
H1579 H 0.2403 0.75133 0.83234 0.0
H1580 H 0.29251 0.73078 0.81432 0.0
H1581 H 0.2164 0.70972 0.76579 0.0
H1582 H 0.16359 0.72988 0.78367 0.0
H1583 H 0.06896 0.86337 0.81277 0.0
H1584 H 0.10397 0.83183 0.8313 0.0
H1585 H 0.08578 0.78264 0.78056 0.0
H1586 H 0.05226 0.81455 0.76163 0.0
H1587 H 0.15383 0.77682 0.79396 0.0
H1588 H 0.03254 0.78092 0.82714 0.0
H1589 H 0.97929 0.80076 0.84487 0.0
H1590 H 0.05326 0.8218 0.89435 0.0
H1591 H 0.10711 0.80235 0.87682 0.0
C1592 C 0.19193 0.68633 0.85817 0.0
C1593 C 0.20784 0.69186 0.87743 0.0
C1594 C 0.17627 0.70479 0.84591 0.0
C1595 C 0.1762 0.72895 0.85286 0.0
C1596 C 0.19304 0.73439 0.87194 0.0
C1597 C 0.20881 0.716 0.8841 0.0
C1598 C 0.1567 0.74836 0.84092 0.0
C1599 C 0.12707 0.76096 0.85048 0.0
C1600 C 0.16619 0.75402 0.82022 0.0
C1601 C 0.19791 0.74189 0.80946 0.0
C1602 C 0.23462 0.74213 0.81792 0.0
C1603 C 0.26434 0.7306 0.80771 0.0
C1604 C 0.25776 0.71889 0.78895 0.0
C1605 C 0.22145 0.71876 0.78033 0.0
C1606 C 0.19162 0.73025 0.79049 0.0
C1607 C 0.07251 0.84582 0.8056 0.0
C1608 C 0.05776 0.84134 0.78583 0.0
C1609 C 0.09236 0.82774 0.81622 0.0
C1610 C 0.09693 0.80459 0.80755 0.0
C1611 C 0.08265 0.80028 0.78763 0.0
C1612 C 0.06344 0.81851 0.77684 0.0
C1613 C 0.11632 0.78485 0.81925 0.0
C1614 C 0.14584 0.77212 0.80966 0.0
C1615 C 0.10645 0.77887 0.83989 0.0
C1616 C 0.07396 0.79034 0.85057 0.0
C1617 C 0.03752 0.7899 0.84174 0.0
C1618 C 0.00722 0.80107 0.85175 0.0
C1619 C 0.01292 0.8126 0.87068 0.0
C1620 C 0.04891 0.8129 0.87967 0.0
C1621 C 0.07932 0.80177 0.86972 0.0
H1622 H 0.98943 0.82125 0.87839 0.0
H1623 H 0.2808 0.70998 0.78107 0.0
loop_
_geom_bond_atom_site_label_1
_geom_bond_atom_site_label_2
_geom_bond_distance
_geom_bond_site_symmetry_2
_ccdc_geom_bond_type
H0 C3 0.929 . S
H1 C6 0.929 . S
H2 C8 0.930 . S
C3 H0 0.929 . S
C3 C4 1.398 . S
C3 C5 1.396 . S
C4 C3 1.398 . S
C4 C8 1.407 . S
C5 C3 1.396 . S
C5 C6 1.394 . S
C6 H1 0.929 . S
C6 C5 1.394 . S
C6 C7 1.382 . S
C7 C6 1.382 . S
C7 C8 1.392 . S
C7 N9 1.420 . S
C8 H2 0.930 . S
C8 C4 1.407 . S
C8 C7 1.392 . S
N9 C7 1.420 . S
N9 C10 1.244 . S
C10 N9 1.244 . S
H11 C14 0.929 . S
H12 C17 0.929 . S
H13 C19 0.930 . S
C14 H11 0.929 . S
C14 C15 1.398 . S
C14 C16 1.396 . S
C15 C14 1.398 . S
C15 C19 1.407 . S
C16 C14 1.396 . S
C16 C17 1.394 . S
C17 H12 0.929 . S
C17 C16 1.394 . S
C17 C18 1.382 . S
C18 C17 1.382 . S
C18 C19 1.392 . S
C18 N20 1.420 . S
C19 H13 0.930 . S
C19 C15 1.407 . S
C19 C18 1.392 . S
N20 C18 1.420 . S
N20 C21 1.244 . S
C21 N20 1.244 . S
H22 C25 0.929 . S
H23 C28 0.929 . S
H24 C30 0.930 . S
C25 H22 0.929 . S
C25 C26 1.398 . S
C25 C27 1.396 . S
C26 C25 1.398 . S
C26 C30 1.407 . S
C27 C25 1.396 . S
C27 C28 1.394 . S
C28 H23 0.929 . S
C28 C27 1.394 . S
C28 C29 1.382 . S
C29 C28 1.382 . S
C29 C30 1.392 . S
C29 N31 1.420 . S
C30 H24 0.930 . S
C30 C26 1.407 . S
C30 C29 1.392 . S
N31 C29 1.420 . S
N31 C32 1.244 . S
C32 N31 1.244 . S
H33 C36 0.929 . S
H34 C39 0.929 . S
H35 C41 0.930 . S
C36 H33 0.929 . S
C36 C37 1.398 . S
C36 C38 1.396 . S
C37 C36 1.398 . S
C37 C41 1.407 . S
C38 C36 1.396 . S
C38 C39 1.394 . S
C39 H34 0.929 . S
C39 C38 1.394 . S
C39 C40 1.382 . S
C40 C39 1.382 . S
C40 C41 1.392 . S
C40 N42 1.420 . S
C41 H35 0.930 . S
C41 C37 1.407 . S
C41 C40 1.392 . S
N42 C40 1.420 . S
N42 C43 1.244 . S
C43 N42 1.244 . S
H44 C47 0.929 . S
H45 C50 0.929 . S
H46 C52 0.930 . S
C47 H44 0.929 . S
C47 C48 1.398 . S
C47 C49 1.396 . S
C48 C47 1.398 . S
C48 C52 1.407 . S
C49 C47 1.396 . S
C49 C50 1.394 . S
C50 H45 0.929 . S
C50 C49 1.394 . S
C50 C51 1.382 . S
C51 C50 1.382 . S
C51 C52 1.392 . S
C51 N53 1.420 . S
C52 H46 0.930 . S
C52 C48 1.407 . S
C52 C51 1.392 . S
N53 C51 1.420 . S
N53 C54 1.244 . S
C54 N53 1.244 . S
H55 C58 0.929 . S
H56 C61 0.929 . S
H57 C63 0.930 . S
C58 H55 0.929 . S
C58 C59 1.398 . S
C58 C60 1.396 . S
C59 C58 1.398 . S
C59 C63 1.407 . S
C60 C58 1.396 . S
C60 C61 1.394 . S
C61 H56 0.929 . S
C61 C60 1.394 . S
C61 C62 1.382 . S
C62 C61 1.382 . S
C62 C63 1.392 . S
C62 N64 1.420 . S
C63 H57 0.930 . S
C63 C59 1.407 . S
C63 C62 1.392 . S
N64 C62 1.420 . S
N64 C65 1.244 . S
C65 N64 1.244 . S
H66 C69 0.929 . S
H67 C72 0.929 . S
H68 C74 0.930 . S
C69 H66 0.929 . S
C69 C70 1.398 . S
C69 C71 1.396 . S
C70 C69 1.398 . S
C70 C74 1.407 . S
C71 C69 1.396 . S
C71 C72 1.394 . S
C72 H67 0.929 . S
C72 C71 1.394 . S
C72 C73 1.382 . S
C73 C72 1.382 . S
C73 C74 1.392 . S
C73 N75 1.420 . S
C74 H68 0.930 . S
C74 C70 1.407 . S
C74 C73 1.392 . S
N75 C73 1.420 . S
N75 C76 1.244 . S
C76 N75 1.244 . S
H77 C80 0.929 . S
H78 C83 0.929 . S
H79 C85 0.930 . S
C80 H77 0.929 . S
C80 C81 1.398 . S
C80 C82 1.396 . S
C81 C80 1.398 . S
C81 C85 1.407 . S
C82 C80 1.396 . S
C82 C83 1.394 . S
C83 H78 0.929 . S
C83 C82 1.394 . S
C83 C84 1.382 . S
C84 C83 1.382 . S
C84 C85 1.392 . S
C84 N86 1.420 . S
C85 H79 0.930 . S
C85 C81 1.407 . S
C85 C84 1.392 . S
N86 C84 1.420 . S
N86 C87 1.244 . S
C87 N86 1.244 . S
Tb88 N117 2.617 . S
Tb88 N123 2.572 . S
Tb88 O132 2.465 . S
Tb88 O133 2.387 . S
Tb88 O135 2.428 . S
Tb88 O136 2.308 . S
Tb88 O140 2.349 . S
Tb88 O143 2.393 . S
Tb88 C152 2.802 . S
C89 N90 1.379 . S
C89 C92 1.416 . S
C89 C96 1.424 . S
N90 C89 1.379 . S
N90 C93 1.334 . S
N90 Tb99 2.617 . S
C91 C93 1.390 . S
C91 C94 1.339 . S
C91 H111 0.930 . S
C92 C89 1.416 . S
C92 C94 1.416 . S
C92 C98 1.448 . S
C93 N90 1.334 . S
C93 C91 1.390 . S
C93 H104 0.930 . S
C94 C91 1.339 . S
C94 C92 1.416 . S
C94 H115 0.930 . S
C95 C96 1.413 . S
C95 C97 1.427 . S
C95 C101 1.416 . S
C96 C89 1.424 . S
C96 C95 1.413 . S
C96 N100 1.361 . S
C97 C95 1.427 . S
C97 C98 1.328 . S
C97 H112 0.929 . S
C98 C92 1.448 . S
C98 C97 1.328 . S
C98 H113 0.930 . S
Tb99 N90 2.617 . S
Tb99 N100 2.572 . S
Tb99 O134 2.349 1_655 S
Tb99 O137 2.393 . S
Tb99 O138 2.465 . S
Tb99 O139 2.387 . S
Tb99 O141 2.428 . S
Tb99 O142 2.308 1_655 S
Tb99 C163 2.802 . S
N100 C96 1.361 . S
N100 Tb99 2.572 . S
N100 C102 1.340 . S
C101 C95 1.416 . S
C101 C103 1.332 . S
C101 H109 0.931 . S
C102 N100 1.340 . S
C102 C103 1.407 . S
C102 H108 0.930 . S
C103 C101 1.332 . S
C103 C102 1.407 . S
C103 H105 0.929 . S
H104 C93 0.930 . S
H105 C103 0.929 . S
H106 C121 0.930 . S
H107 C128 0.929 . S
H108 C102 0.930 . S
H109 C101 0.931 . S
H110 C124 0.930 . S
H111 C91 0.930 . S
H112 C97 0.929 . S
H113 C98 0.930 . S
H114 C119 0.930 . S
H115 C94 0.930 . S
H116 C127 0.931 . S
N117 Tb88 2.617 . S
N117 C118 1.379 . S
N117 C121 1.334 . S
C118 N117 1.379 . S
C118 C120 1.416 . S
C118 C126 1.424 . S
C119 H114 0.930 . S
C119 C121 1.390 . S
C119 C122 1.339 . S
C120 C118 1.416 . S
C120 C122 1.416 . S
C120 C153 1.448 . S
C121 H106 0.930 . S
C121 N117 1.334 . S
C121 C119 1.390 . S
C122 C119 1.339 . S
C122 C120 1.416 . S
C122 H129 0.930 . S
N123 Tb88 2.572 . S
N123 C124 1.340 . S
N123 C126 1.361 . S
C124 H110 0.930 . S
C124 N123 1.340 . S
C124 C128 1.407 . S
C125 C126 1.413 . S
C125 C127 1.416 . S
C125 C154 1.427 . S
C126 C118 1.424 . S
C126 N123 1.361 . S
C126 C125 1.413 . S
C127 H116 0.931 . S
C127 C125 1.416 . S
C127 C128 1.332 . S
C128 H107 0.929 . S
C128 C124 1.407 . S
C128 C127 1.332 . S
H129 C122 0.930 . S
H130 C153 0.930 . S
H131 C154 0.929 . S
O132 Tb88 2.465 . S
O132 C152 1.264 . S
O133 Tb88 2.387 . S
O133 C144 1.264 . S
O134 Tb99 2.349 1_455 S
O134 C144 1.243 . S
O135 Tb88 2.428 . S
O135 C152 1.256 . S
O136 Tb88 2.308 . S
O136 C151 1.266 1_455 S
O137 Tb99 2.393 . S
O137 C151 1.248 . S
O138 Tb99 2.465 . S
O138 C163 1.264 . S
O139 Tb99 2.387 . S
O139 C155 1.264 . S
O140 Tb88 2.349 . S
O140 C155 1.243 1_455 S
O141 Tb99 2.428 . S
O141 C163 1.256 . S
O142 Tb99 2.308 1_455 S
O142 C162 1.266 . S
O143 Tb88 2.393 . S
O143 C162 1.248 . S
C144 O133 1.264 . S
C144 O134 1.243 . S
C145 C148 1.399 . S
C145 C150 1.383 . S
C145 C152 1.496 . S
C146 C147 1.399 . S
C146 C150 1.389 . S
C147 C146 1.399 . S
C147 C149 1.380 . S
C147 H164 0.929 . S
C148 C145 1.399 . S
C148 C149 1.392 . S
C148 H165 0.929 . S
C149 C147 1.380 . S
C149 C148 1.392 . S
C149 H166 0.929 . S
C150 C145 1.383 . S
C150 C146 1.389 . S
C150 H167 0.931 . S
C151 O136 1.266 1_655 S
C151 O137 1.248 . S
C152 Tb88 2.802 . S
C152 O132 1.264 . S
C152 O135 1.256 . S
C152 C145 1.496 . S
C153 C120 1.448 . S
C153 H130 0.930 . S
C153 C154 1.328 . S
C154 C125 1.427 . S
C154 H131 0.929 . S
C154 C153 1.328 . S
C155 O139 1.264 . S
C155 O140 1.243 1_655 S
C156 C159 1.399 . S
C156 C160 1.383 . S
C156 C163 1.496 . S
C157 C158 1.399 . S
C157 C160 1.389 . S
C158 C157 1.399 . S
C158 C161 1.380 . S
C158 H168 0.929 . S
C159 C156 1.399 . S
C159 C161 1.392 . S
C159 H169 0.929 . S
C160 C156 1.383 . S
C160 C157 1.389 . S
C160 H170 0.931 . S
C161 C158 1.380 . S
C161 C159 1.392 . S
C161 H171 0.929 . S
C162 O142 1.266 . S
C162 O143 1.248 . S
C163 Tb99 2.802 . S
C163 O138 1.264 . S
C163 O141 1.256 . S
C163 C156 1.496 . S
H164 C147 0.929 . S
H165 C148 0.929 . S
H166 C149 0.929 . S
H167 C150 0.931 . S
H168 C158 0.929 . S
H169 C159 0.929 . S
H170 C160 0.931 . S
H171 C161 0.929 . S
Tb172 N201 2.617 . S
Tb172 N207 2.572 . S
Tb172 O216 2.465 . S
Tb172 O217 2.387 . S
Tb172 O219 2.428 . S
Tb172 O220 2.308 . S
Tb172 O224 2.349 . S
Tb172 O227 2.393 . S
Tb172 C236 2.802 . S
C173 N174 1.379 . S
C173 C176 1.416 . S
C173 C180 1.424 . S
N174 C173 1.379 . S
N174 C177 1.334 . S
N174 Tb183 2.617 . S
C175 C177 1.390 . S
C175 C178 1.339 . S
C175 H195 0.930 . S
C176 C173 1.416 . S
C176 C178 1.416 . S
C176 C182 1.448 . S
C177 N174 1.334 . S
C177 C175 1.390 . S
C177 H188 0.930 . S
C178 C175 1.339 . S
C178 C176 1.416 . S
C178 H199 0.930 . S
C179 C180 1.413 . S
C179 C181 1.427 . S
C179 C185 1.416 . S
C180 C173 1.424 . S
C180 C179 1.413 . S
C180 N184 1.361 . S
C181 C179 1.427 . S
C181 C182 1.328 . S
C181 H196 0.929 . S
C182 C176 1.448 . S
C182 C181 1.328 . S
C182 H197 0.930 . S
Tb183 N174 2.617 . S
Tb183 N184 2.572 . S
Tb183 O218 2.349 . S
Tb183 O221 2.393 . S
Tb183 O222 2.465 . S
Tb183 O223 2.387 . S
Tb183 O225 2.428 . S
Tb183 O226 2.308 . S
Tb183 C247 2.802 . S
N184 C180 1.361 . S
N184 Tb183 2.572 . S
N184 C186 1.340 . S
C185 C179 1.416 . S
C185 C187 1.332 . S
C185 H193 0.931 . S
C186 N184 1.340 . S
C186 C187 1.407 . S
C186 H192 0.930 . S
C187 C185 1.332 . S
C187 C186 1.407 . S
C187 H189 0.929 . S
H188 C177 0.930 . S
H189 C187 0.929 . S
H190 C205 0.930 . S
H191 C212 0.929 . S
H192 C186 0.930 . S
H193 C185 0.931 . S
H194 C208 0.930 . S
H195 C175 0.930 . S
H196 C181 0.929 . S
H197 C182 0.930 . S
H198 C203 0.930 . S
H199 C178 0.930 . S
H200 C211 0.931 . S
N201 Tb172 2.617 . S
N201 C202 1.379 . S
N201 C205 1.334 . S
C202 N201 1.379 . S
C202 C204 1.416 . S
C202 C210 1.424 . S
C203 H198 0.930 . S
C203 C205 1.390 . S
C203 C206 1.339 . S
C204 C202 1.416 . S
C204 C206 1.416 . S
C204 C237 1.448 . S
C205 H190 0.930 . S
C205 N201 1.334 . S
C205 C203 1.390 . S
C206 C203 1.339 . S
C206 C204 1.416 . S
C206 H213 0.930 . S
N207 Tb172 2.572 . S
N207 C208 1.340 . S
N207 C210 1.361 . S
C208 H194 0.930 . S
C208 N207 1.340 . S
C208 C212 1.407 . S
C209 C210 1.413 . S
C209 C211 1.416 . S
C209 C238 1.427 . S
C210 C202 1.424 . S
C210 N207 1.361 . S
C210 C209 1.413 . S
C211 H200 0.931 . S
C211 C209 1.416 . S
C211 C212 1.332 . S
C212 H191 0.929 . S
C212 C208 1.407 . S
C212 C211 1.332 . S
H213 C206 0.930 . S
H214 C237 0.930 . S
H215 C238 0.929 . S
O216 Tb172 2.465 . S
O216 C236 1.264 . S
O217 Tb172 2.387 . S
O217 C228 1.264 . S
O218 Tb183 2.349 . S
O218 C228 1.243 . S
O219 Tb172 2.428 . S
O219 C236 1.256 . S
O220 Tb172 2.308 . S
O220 C235 1.266 . S
O221 Tb183 2.393 . S
O221 C235 1.248 . S
O222 Tb183 2.465 . S
O222 C247 1.264 . S
O223 Tb183 2.387 . S
O223 C239 1.264 . S
O224 Tb172 2.349 . S
O224 C239 1.243 . S
O225 Tb183 2.428 . S
O225 C247 1.256 . S
O226 Tb183 2.308 . S
O226 C246 1.266 . S
O227 Tb172 2.393 . S
O227 C246 1.248 . S
C228 O217 1.264 . S
C228 O218 1.243 . S
C229 C232 1.399 . S
C229 C234 1.383 . S
C229 C236 1.496 . S
C230 C231 1.399 . S
C230 C234 1.389 . S
C231 C230 1.399 . S
C231 C233 1.380 . S
C231 H248 0.929 . S
C232 C229 1.399 . S
C232 C233 1.392 . S
C232 H249 0.929 . S
C233 C231 1.380 . S
C233 C232 1.392 . S
C233 H250 0.929 . S
C234 C229 1.383 . S
C234 C230 1.389 . S
C234 H251 0.931 . S
C235 O220 1.266 . S
C235 O221 1.248 . S
C236 Tb172 2.802 . S
C236 O216 1.264 . S
C236 O219 1.256 . S
C236 C229 1.496 . S
C237 C204 1.448 . S
C237 H214 0.930 . S
C237 C238 1.328 . S
C238 C209 1.427 . S
C238 H215 0.929 . S
C238 C237 1.328 . S
C239 O223 1.264 . S
C239 O224 1.243 . S
C240 C243 1.399 . S
C240 C244 1.383 . S
C240 C247 1.496 . S
C241 C242 1.399 . S
C241 C244 1.389 . S
C242 C241 1.399 . S
C242 C245 1.380 . S
C242 H252 0.929 . S
C243 C240 1.399 . S
C243 C245 1.392 . S
C243 H253 0.929 . S
C244 C240 1.383 . S
C244 C241 1.389 . S
C244 H254 0.931 . S
C245 C242 1.380 . S
C245 C243 1.392 . S
C245 H255 0.929 . S
C246 O226 1.266 . S
C246 O227 1.248 . S
C247 Tb183 2.802 . S
C247 O222 1.264 . S
C247 O225 1.256 . S
C247 C240 1.496 . S
H248 C231 0.929 . S
H249 C232 0.929 . S
H250 C233 0.929 . S
H251 C234 0.931 . S
H252 C242 0.929 . S
H253 C243 0.929 . S
H254 C244 0.931 . S
H255 C245 0.929 . S
Tb256 N285 2.617 . S
Tb256 N291 2.572 . S
Tb256 O300 2.465 . S
Tb256 O301 2.387 . S
Tb256 O303 2.428 . S
Tb256 O304 2.308 . S
Tb256 O308 2.349 . S
Tb256 O311 2.393 . S
Tb256 C320 2.802 . S
C257 N258 1.379 . S
C257 C260 1.416 . S
C257 C264 1.424 . S
N258 C257 1.379 . S
N258 C261 1.334 . S
N258 Tb267 2.617 . S
C259 C261 1.390 . S
C259 C262 1.339 . S
C259 H279 0.930 . S
C260 C257 1.416 . S
C260 C262 1.416 . S
C260 C266 1.448 . S
C261 N258 1.334 . S
C261 C259 1.390 . S
C261 H272 0.930 . S
C262 C259 1.339 . S
C262 C260 1.416 . S
C262 H283 0.930 . S
C263 C264 1.413 . S
C263 C265 1.427 . S
C263 C269 1.416 . S
C264 C257 1.424 . S
C264 C263 1.413 . S
C264 N268 1.361 . S
C265 C263 1.427 . S
C265 C266 1.328 . S
C265 H280 0.929 . S
C266 C260 1.448 . S
C266 C265 1.328 . S
C266 H281 0.930 . S
Tb267 N258 2.617 . S
Tb267 N268 2.572 . S
Tb267 O302 2.349 1_655 S
Tb267 O305 2.393 . S
Tb267 O306 2.465 . S
Tb267 O307 2.387 . S
Tb267 O309 2.428 . S
Tb267 O310 2.308 1_655 S
Tb267 C331 2.802 . S
N268 C264 1.361 . S
N268 Tb267 2.572 . S
N268 C270 1.340 . S
C269 C263 1.416 . S
C269 C271 1.332 . S
C269 H277 0.931 . S
C270 N268 1.340 . S
C270 C271 1.407 . S
C270 H276 0.930 . S
C271 C269 1.332 . S
C271 C270 1.407 . S
C271 H273 0.929 . S
H272 C261 0.930 . S
H273 C271 0.929 . S
H274 C289 0.930 . S
H275 C296 0.929 . S
H276 C270 0.930 . S
H277 C269 0.931 . S
H278 C292 0.930 . S
H279 C259 0.930 . S
H280 C265 0.929 . S
H281 C266 0.930 . S
H282 C287 0.930 . S
H283 C262 0.930 . S
H284 C295 0.931 . S
N285 Tb256 2.617 . S
N285 C286 1.379 . S
N285 C289 1.334 . S
C286 N285 1.379 . S
C286 C288 1.416 . S
C286 C294 1.424 . S
C287 H282 0.930 . S
C287 C289 1.390 . S
C287 C290 1.339 . S
C288 C286 1.416 . S
C288 C290 1.416 . S
C288 C321 1.448 . S
C289 H274 0.930 . S
C289 N285 1.334 . S
C289 C287 1.390 . S
C290 C287 1.339 . S
C290 C288 1.416 . S
C290 H297 0.930 . S
N291 Tb256 2.572 . S
N291 C292 1.340 . S
N291 C294 1.361 . S
C292 H278 0.930 . S
C292 N291 1.340 . S
C292 C296 1.407 . S
C293 C294 1.413 . S
C293 C295 1.416 . S
C293 C322 1.427 . S
C294 C286 1.424 . S
C294 N291 1.361 . S
C294 C293 1.413 . S
C295 H284 0.931 . S
C295 C293 1.416 . S
C295 C296 1.332 . S
C296 H275 0.929 . S
C296 C292 1.407 . S
C296 C295 1.332 . S
H297 C290 0.930 . S
H298 C321 0.930 . S
H299 C322 0.929 . S
O300 Tb256 2.465 . S
O300 C320 1.264 . S
O301 Tb256 2.387 . S
O301 C312 1.264 . S
O302 Tb267 2.349 1_455 S
O302 C312 1.243 . S
O303 Tb256 2.428 . S
O303 C320 1.256 . S
O304 Tb256 2.308 . S
O304 C319 1.266 1_455 S
O305 Tb267 2.393 . S
O305 C319 1.248 . S
O306 Tb267 2.465 . S
O306 C331 1.264 . S
O307 Tb267 2.387 . S
O307 C323 1.264 . S
O308 Tb256 2.349 . S
O308 C323 1.243 1_455 S
O309 Tb267 2.428 . S
O309 C331 1.256 . S
O310 Tb267 2.308 1_455 S
O310 C330 1.266 . S
O311 Tb256 2.393 . S
O311 C330 1.248 . S
C312 O301 1.264 . S
C312 O302 1.243 . S
C313 C316 1.399 . S
C313 C318 1.383 . S
C313 C320 1.496 . S
C314 C315 1.399 . S
C314 C318 1.389 . S
C315 C314 1.399 . S
C315 C317 1.380 . S
C315 H332 0.929 . S
C316 C313 1.399 . S
C316 C317 1.392 . S
C316 H333 0.929 . S
C317 C315 1.380 . S
C317 C316 1.392 . S
C317 H334 0.929 . S
C318 C313 1.383 . S
C318 C314 1.389 . S
C318 H335 0.931 . S
C319 O304 1.266 1_655 S
C319 O305 1.248 . S
C320 Tb256 2.802 . S
C320 O300 1.264 . S
C320 O303 1.256 . S
C320 C313 1.496 . S
C321 C288 1.448 . S
C321 H298 0.930 . S
C321 C322 1.328 . S
C322 C293 1.427 . S
C322 H299 0.929 . S
C322 C321 1.328 . S
C323 O307 1.264 . S
C323 O308 1.243 1_655 S
C324 C327 1.399 . S
C324 C328 1.383 . S
C324 C331 1.496 . S
C325 C326 1.399 . S
C325 C328 1.389 . S
C326 C325 1.399 . S
C326 C329 1.380 . S
C326 H336 0.929 . S
C327 C324 1.399 . S
C327 C329 1.392 . S
C327 H337 0.929 . S
C328 C324 1.383 . S
C328 C325 1.389 . S
C328 H338 0.931 . S
C329 C326 1.380 . S
C329 C327 1.392 . S
C329 H339 0.929 . S
C330 O310 1.266 . S
C330 O311 1.248 . S
C331 Tb267 2.802 . S
C331 O306 1.264 . S
C331 O309 1.256 . S
C331 C324 1.496 . S
H332 C315 0.929 . S
H333 C316 0.929 . S
H334 C317 0.929 . S
H335 C318 0.931 . S
H336 C326 0.929 . S
H337 C327 0.929 . S
H338 C328 0.931 . S
H339 C329 0.929 . S
Tb340 N369 2.617 . S
Tb340 N375 2.572 . S
Tb340 O384 2.465 . S
Tb340 O385 2.387 . S
Tb340 O387 2.428 . S
Tb340 O388 2.308 . S
Tb340 O392 2.349 . S
Tb340 O395 2.393 . S
Tb340 C404 2.802 . S
C341 N342 1.379 . S
C341 C344 1.416 . S
C341 C348 1.424 . S
N342 C341 1.379 . S
N342 C345 1.334 . S
N342 Tb351 2.617 . S
C343 C345 1.390 . S
C343 C346 1.339 . S
C343 H363 0.930 . S
C344 C341 1.416 . S
C344 C346 1.416 . S
C344 C350 1.448 . S
C345 N342 1.334 . S
C345 C343 1.390 . S
C345 H356 0.930 . S
C346 C343 1.339 . S
C346 C344 1.416 . S
C346 H367 0.930 . S
C347 C348 1.413 . S
C347 C349 1.427 . S
C347 C353 1.416 . S
C348 C341 1.424 . S
C348 C347 1.413 . S
C348 N352 1.361 . S
C349 C347 1.427 . S
C349 C350 1.328 . S
C349 H364 0.929 . S
C350 C344 1.448 . S
C350 C349 1.328 . S
C350 H365 0.930 . S
Tb351 N342 2.617 . S
Tb351 N352 2.572 . S
Tb351 O386 2.349 . S
Tb351 O389 2.393 . S
Tb351 O390 2.465 . S
Tb351 O391 2.387 . S
Tb351 O393 2.428 . S
Tb351 O394 2.308 . S
Tb351 C415 2.802 . S
N352 C348 1.361 . S
N352 Tb351 2.572 . S
N352 C354 1.340 . S
C353 C347 1.416 . S
C353 C355 1.332 . S
C353 H361 0.931 . S
C354 N352 1.340 . S
C354 C355 1.407 . S
C354 H360 0.930 . S
C355 C353 1.332 . S
C355 C354 1.407 . S
C355 H357 0.929 . S
H356 C345 0.930 . S
H357 C355 0.929 . S
H358 C373 0.930 . S
H359 C380 0.929 . S
H360 C354 0.930 . S
H361 C353 0.931 . S
H362 C376 0.930 . S
H363 C343 0.930 . S
H364 C349 0.929 . S
H365 C350 0.930 . S
H366 C371 0.930 . S
H367 C346 0.930 . S
H368 C379 0.931 . S
N369 Tb340 2.617 . S
N369 C370 1.379 . S
N369 C373 1.334 . S
C370 N369 1.379 . S
C370 C372 1.416 . S
C370 C378 1.424 . S
C371 H366 0.930 . S
C371 C373 1.390 . S
C371 C374 1.339 . S
C372 C370 1.416 . S
C372 C374 1.416 . S
C372 C405 1.448 . S
C373 H358 0.930 . S
C373 N369 1.334 . S
C373 C371 1.390 . S
C374 C371 1.339 . S
C374 C372 1.416 . S
C374 H381 0.930 . S
N375 Tb340 2.572 . S
N375 C376 1.340 . S
N375 C378 1.361 . S
C376 H362 0.930 . S
C376 N375 1.340 . S
C376 C380 1.407 . S
C377 C378 1.413 . S
C377 C379 1.416 . S
C377 C406 1.427 . S
C378 C370 1.424 . S
C378 N375 1.361 . S
C378 C377 1.413 . S
C379 H368 0.931 . S
C379 C377 1.416 . S
C379 C380 1.332 . S
C380 H359 0.929 . S
C380 C376 1.407 . S
C380 C379 1.332 . S
H381 C374 0.930 . S
H382 C405 0.930 . S
H383 C406 0.929 . S
O384 Tb340 2.465 . S
O384 C404 1.264 . S
O385 Tb340 2.387 . S
O385 C396 1.264 . S
O386 Tb351 2.349 . S
O386 C396 1.243 . S
O387 Tb340 2.428 . S
O387 C404 1.256 . S
O388 Tb340 2.308 . S
O388 C403 1.266 . S
O389 Tb351 2.393 . S
O389 C403 1.248 . S
O390 Tb351 2.465 . S
O390 C415 1.264 . S
O391 Tb351 2.387 . S
O391 C407 1.264 . S
O392 Tb340 2.349 . S
O392 C407 1.243 . S
O393 Tb351 2.428 . S
O393 C415 1.256 . S
O394 Tb351 2.308 . S
O394 C414 1.266 . S
O395 Tb340 2.393 . S
O395 C414 1.248 . S
C396 O385 1.264 . S
C396 O386 1.243 . S
C397 C400 1.399 . S
C397 C402 1.383 . S
C397 C404 1.496 . S
C398 C399 1.399 . S
C398 C402 1.389 . S
C399 C398 1.399 . S
C399 C401 1.380 . S
C399 H416 0.929 . S
C400 C397 1.399 . S
C400 C401 1.392 . S
C400 H417 0.929 . S
C401 C399 1.380 . S
C401 C400 1.392 . S
C401 H418 0.929 . S
C402 C397 1.383 . S
C402 C398 1.389 . S
C402 H419 0.931 . S
C403 O388 1.266 . S
C403 O389 1.248 . S
C404 Tb340 2.802 . S
C404 O384 1.264 . S
C404 O387 1.256 . S
C404 C397 1.496 . S
C405 C372 1.448 . S
C405 H382 0.930 . S
C405 C406 1.328 . S
C406 C377 1.427 . S
C406 H383 0.929 . S
C406 C405 1.328 . S
C407 O391 1.264 . S
C407 O392 1.243 . S
C408 C411 1.399 . S
C408 C412 1.383 . S
C408 C415 1.496 . S
C409 C410 1.399 . S
C409 C412 1.389 . S
C410 C409 1.399 . S
C410 C413 1.380 . S
C410 H420 0.929 . S
C411 C408 1.399 . S
C411 C413 1.392 . S
C411 H421 0.929 . S
C412 C408 1.383 . S
C412 C409 1.389 . S
C412 H422 0.931 . S
C413 C410 1.380 . S
C413 C411 1.392 . S
C413 H423 0.929 . S
C414 O394 1.266 . S
C414 O395 1.248 . S
C415 Tb351 2.802 . S
C415 O390 1.264 . S
C415 O393 1.256 . S
C415 C408 1.496 . S
H416 C399 0.929 . S
H417 C400 0.929 . S
H418 C401 0.929 . S
H419 C402 0.931 . S
H420 C410 0.929 . S
H421 C411 0.929 . S
H422 C412 0.931 . S
H423 C413 0.929 . S
H424 C442 0.951 . S
H425 C444 0.951 . S
H426 C446 0.950 . S
H427 C447 0.950 . S
H428 C449 0.950 . S
H429 C452 0.950 . S
H430 C453 0.950 . S
H431 C455 0.950 . S
H432 C456 0.950 . S
H433 C457 0.951 . S
H434 C459 0.951 . S
H435 C461 0.948 . S
H436 C462 0.950 . S
H437 C464 0.950 . S
H438 C467 0.950 . S
H439 C468 0.950 . S
H440 C470 0.950 1_645 S
H441 C471 0.950 . S
C442 H424 0.951 . S
C442 C443 1.366 . S
C442 C444 1.388 . S
C443 C442 1.366 . S
C443 C447 1.385 . S
C444 H425 0.951 . S
C444 C442 1.388 . S
C444 C445 1.366 . S
C445 C444 1.366 . S
C445 C446 1.414 . S
C445 C448 1.499 . S
C446 H426 0.950 . S
C446 C445 1.414 . S
C446 C447 1.374 . S
C447 H427 0.950 . S
C447 C443 1.385 . S
C447 C446 1.374 . S
C448 C445 1.499 . S
C448 C449 1.373 . S
C448 C450 1.389 . S
C449 H428 0.950 . S
C449 C448 1.373 . S
C449 C465 1.377 . S
C450 C448 1.389 . S
C450 C451 1.524 . S
C450 C464 1.377 . S
C451 C450 1.524 . S
C451 C452 1.397 . S
C451 C456 1.363 . S
C452 H429 0.950 . S
C452 C451 1.397 . S
C452 C453 1.334 . S
C453 H430 0.950 . S
C453 C452 1.334 . S
C453 C454 1.287 . S
C454 C453 1.287 . S
C454 C455 1.524 . S
C454 H473 0.913 . S
C455 H431 0.950 . S
C455 C454 1.524 . S
C455 C456 1.415 . S
C456 H432 0.950 . S
C456 C451 1.363 . S
C456 C455 1.415 . S
C457 H433 0.951 . S
C457 C458 1.366 . S
C457 C459 1.388 . S
C458 C457 1.366 . S
C458 C462 1.385 . S
C459 H434 0.951 . S
C459 C457 1.388 . S
C459 C460 1.366 . S
C460 C459 1.366 . S
C460 C461 1.414 . S
C460 C463 1.499 1_545 S
C461 H435 0.948 . S
C461 C460 1.414 . S
C461 C462 1.374 . S
C462 H436 0.950 . S
C462 C458 1.385 . S
C462 C461 1.374 . S
C463 C460 1.499 1_565 S
C463 C464 1.373 . S
C463 C465 1.389 . S
C464 H437 0.950 . S
C464 C450 1.377 . S
C464 C463 1.373 . S
C465 C449 1.377 . S
C465 C463 1.389 . S
C465 C466 1.524 . S
C466 C465 1.524 . S
C466 C467 1.397 . S
C466 C471 1.363 . S
C467 H438 0.950 . S
C467 C466 1.397 . S
C467 C468 1.334 1_455 S
C468 H439 0.950 . S
C468 C467 1.334 1_655 S
C468 C469 1.287 . S
C469 C468 1.287 . S
C469 C470 1.524 1_655 S
C469 H472 0.999 . S
C470 H440 0.950 1_465 S
C470 C469 1.524 1_455 S
C470 C471 1.415 . S
C471 H441 0.950 . S
C471 C466 1.363 . S
C471 C470 1.415 . S
H472 C469 0.999 . S
H473 C454 0.913 . S
H474 C492 0.951 . S
H475 C494 0.951 . S
H476 C496 0.950 . S
H477 C497 0.950 . S
H478 C499 0.950 . S
H479 C502 0.950 . S
H480 C503 0.950 . S
H481 C505 0.950 . S
H482 C506 0.950 . S
H483 C507 0.951 . S
H484 C509 0.951 . S
H485 C511 0.950 . S
H486 C512 0.950 . S
H487 C514 0.950 . S
H488 C517 0.950 . S
H489 C518 0.950 . S
H490 C520 0.950 . S
H491 C521 0.950 . S
C492 H474 0.951 . S
C492 C493 1.366 . S
C492 C494 1.388 . S
C493 C492 1.366 . S
C493 C497 1.385 . S
C494 H475 0.951 . S
C494 C492 1.388 . S
C494 C495 1.366 . S
C495 C494 1.366 . S
C495 C496 1.414 . S
C495 C498 1.499 . S
C496 H476 0.950 . S
C496 C495 1.414 . S
C496 C497 1.374 . S
C497 H477 0.950 . S
C497 C493 1.385 . S
C497 C496 1.374 . S
C498 C495 1.499 . S
C498 C499 1.373 . S
C498 C500 1.389 . S
C499 H478 0.950 . S
C499 C498 1.373 . S
C499 C515 1.377 . S
C500 C498 1.389 . S
C500 C501 1.524 . S
C500 C514 1.377 . S
C501 C500 1.524 . S
C501 C502 1.397 . S
C501 C506 1.363 . S
C502 H479 0.950 . S
C502 C501 1.397 . S
C502 C503 1.334 . S
C503 H480 0.950 . S
C503 C502 1.334 . S
C503 C504 1.287 . S
C504 C503 1.287 . S
C504 C505 1.524 . S
C504 H523 0.913 . S
C505 H481 0.950 . S
C505 C504 1.524 . S
C505 C506 1.415 . S
C506 H482 0.950 . S
C506 C501 1.363 . S
C506 C505 1.415 . S
C507 H483 0.951 . S
C507 C508 1.366 . S
C507 C509 1.388 . S
C508 C507 1.366 . S
C508 C512 1.385 . S
C509 H484 0.951 . S
C509 C507 1.388 . S
C509 C510 1.366 . S
C510 C509 1.366 . S
C510 C511 1.414 . S
C510 C513 1.499 . S
C511 H485 0.950 . S
C511 C510 1.414 . S
C511 C512 1.374 . S
C512 H486 0.950 . S
C512 C508 1.385 . S
C512 C511 1.374 . S
C513 C510 1.499 . S
C513 C514 1.373 . S
C513 C515 1.389 . S
C514 H487 0.950 . S
C514 C500 1.377 . S
C514 C513 1.373 . S
C515 C499 1.377 . S
C515 C513 1.389 . S
C515 C516 1.524 . S
C516 C515 1.524 . S
C516 C517 1.397 . S
C516 C521 1.363 . S
C517 H488 0.950 . S
C517 C516 1.397 . S
C517 C518 1.334 . S
C518 H489 0.950 . S
C518 C517 1.334 . S
C518 C519 1.287 . S
C519 C518 1.287 . S
C519 C520 1.524 . S
C519 H522 0.999 . S
C520 H490 0.950 . S
C520 C519 1.524 . S
C520 C521 1.415 . S
C521 H491 0.950 . S
C521 C516 1.363 . S
C521 C520 1.415 . S
H522 C519 0.999 . S
H523 C504 0.913 . S
H524 C542 0.951 . S
H525 C544 0.951 . S
H526 C546 0.950 . S
H527 C547 0.950 . S
H528 C549 0.950 . S
H529 C552 0.950 . S
H530 C553 0.950 . S
H531 C555 0.950 . S
H532 C556 0.950 . S
H533 C557 0.951 . S
H534 C559 0.951 . S
H535 C561 0.950 . S
H536 C562 0.950 . S
H537 C564 0.950 . S
H538 C567 0.950 . S
H539 C568 0.950 . S
H540 C570 0.950 . S
H541 C571 0.950 . S
C542 H524 0.951 . S
C542 C543 1.366 . S
C542 C544 1.388 . S
C543 C542 1.366 . S
C543 C547 1.385 . S
C544 H525 0.951 . S
C544 C542 1.388 . S
C544 C545 1.366 . S
C545 C544 1.366 . S
C545 C546 1.414 . S
C545 C548 1.499 . S
C546 H526 0.950 . S
C546 C545 1.414 . S
C546 C547 1.374 . S
C547 H527 0.950 . S
C547 C543 1.385 . S
C547 C546 1.374 . S
C548 C545 1.499 . S
C548 C549 1.373 . S
C548 C550 1.389 . S
C549 H528 0.950 . S
C549 C548 1.373 . S
C549 C565 1.377 . S
C550 C548 1.389 . S
C550 C551 1.524 . S
C550 C564 1.377 . S
C551 C550 1.524 . S
C551 C552 1.397 . S
C551 C556 1.363 . S
C552 H529 0.950 . S
C552 C551 1.397 . S
C552 C553 1.334 . S
C553 H530 0.950 . S
C553 C552 1.334 . S
C553 C554 1.287 . S
C554 C553 1.287 . S
C554 C555 1.524 . S
C554 H573 0.913 . S
C555 H531 0.950 . S
C555 C554 1.524 . S
C555 C556 1.415 . S
C556 H532 0.950 . S
C556 C551 1.363 . S
C556 C555 1.415 . S
C557 H533 0.951 . S
C557 C558 1.366 . S
C557 C559 1.388 . S
C558 C557 1.366 . S
C558 C562 1.385 . S
C559 H534 0.951 . S
C559 C557 1.388 . S
C559 C560 1.366 . S
C560 C559 1.366 . S
C560 C561 1.414 . S
C560 C563 1.499 . S
C561 H535 0.950 . S
C561 C560 1.414 . S
C561 C562 1.374 . S
C562 H536 0.950 . S
C562 C558 1.385 . S
C562 C561 1.374 . S
C563 C560 1.499 . S
C563 C564 1.373 . S
C563 C565 1.389 . S
C564 H537 0.950 . S
C564 C550 1.377 . S
C564 C563 1.373 . S
C565 C549 1.377 . S
C565 C563 1.389 . S
C565 C566 1.524 . S
C566 C565 1.524 . S
C566 C567 1.397 . S
C566 C571 1.363 . S
C567 H538 0.950 . S
C567 C566 1.397 . S
C567 C568 1.334 . S
C568 H539 0.950 . S
C568 C567 1.334 . S
C568 C569 1.287 . S
C569 C568 1.287 . S
C569 C570 1.524 . S
C569 H572 0.999 . S
C570 H540 0.950 . S
C570 C569 1.524 . S
C570 C571 1.415 . S
C571 H541 0.950 . S
C571 C566 1.363 . S
C571 C570 1.415 . S
H572 C569 0.999 . S
H573 C554 0.913 . S
H574 C592 0.951 . S
H575 C594 0.951 . S
H576 C596 0.950 . S
H577 C597 0.950 . S
H578 C599 0.950 . S
H579 C602 0.950 . S
H580 C603 0.950 . S
H581 C605 0.950 . S
H582 C606 0.950 . S
H583 C607 0.951 . S
H584 C609 0.951 . S
H585 C611 0.971 . S
H586 C612 0.950 . S
H587 C614 0.950 . S
H588 C617 0.950 . S
H589 C618 0.950 . S
H590 C620 0.950 . S
H591 C621 0.950 . S
C592 H574 0.951 . S
C592 C593 1.366 . S
C592 C594 1.388 . S
C593 C592 1.366 . S
C593 C597 1.385 . S
C594 H575 0.951 . S
C594 C592 1.388 . S
C594 C595 1.366 . S
C595 C594 1.366 . S
C595 C596 1.414 . S
C595 C598 1.499 . S
C596 H576 0.950 . S
C596 C595 1.414 . S
C596 C597 1.374 . S
C597 H577 0.950 . S
C597 C593 1.385 . S
C597 C596 1.374 . S
C598 C595 1.499 . S
C598 C599 1.373 . S
C598 C600 1.389 . S
C599 H578 0.950 . S
C599 C598 1.373 . S
C599 C615 1.377 1_565 S
C600 C598 1.389 . S
C600 C601 1.524 . S
C600 C614 1.377 . S
C601 C600 1.524 . S
C601 C602 1.397 . S
C601 C606 1.363 . S
C602 H579 0.950 . S
C602 C601 1.397 . S
C602 C603 1.334 . S
C603 H580 0.950 . S
C603 C602 1.334 . S
C603 C604 1.287 . S
C604 C603 1.287 . S
C604 C605 1.524 . S
C604 H623 0.913 . S
C605 H581 0.950 . S
C605 C604 1.524 . S
C605 C606 1.415 . S
C606 H582 0.950 . S
C606 C601 1.363 . S
C606 C605 1.415 . S
C607 H583 0.951 . S
C607 C608 1.366 . S
C607 C609 1.388 . S
C608 C607 1.366 . S
C608 C612 1.385 . S
C609 H584 0.951 . S
C609 C607 1.388 . S
C609 C610 1.366 . S
C610 C609 1.366 . S
C610 C611 1.414 . S
C610 C613 1.515 . S
C611 H585 0.971 . S
C611 C610 1.414 . S
C611 C612 1.374 . S
C612 H586 0.950 . S
C612 C608 1.385 . S
C612 C611 1.374 . S
C613 C610 1.515 . S
C613 C614 1.350 1_545 S
C613 C615 1.396 . S
C614 H587 0.950 . S
C614 C600 1.377 . S
C614 C613 1.350 1_565 S
C615 C599 1.377 1_545 S
C615 C613 1.396 . S
C615 C616 1.524 . S
C616 C615 1.524 . S
C616 C617 1.397 . S
C616 C621 1.363 . S
C617 H588 0.950 . S
C617 C616 1.397 . S
C617 C618 1.334 . S
C618 H589 0.950 . S
C618 C617 1.334 . S
C618 C619 1.287 . S
C619 C618 1.287 . S
C619 C620 1.524 . S
C619 H622 0.999 . S
C620 H590 0.950 . S
C620 C619 1.524 . S
C620 C621 1.415 . S
C621 H591 0.950 . S
C621 C616 1.363 . S
C621 C620 1.415 . S
H622 C619 0.999 . S
H623 C604 0.913 . S
H624 C642 0.951 . S
H625 C644 0.951 . S
H626 C646 0.950 . S
H627 C647 0.950 . S
H628 C649 0.950 . S
H629 C652 0.950 . S
H630 C653 0.950 . S
H631 C655 0.950 1_455 S
H632 C656 0.950 . S
H633 C657 0.951 . S
H634 C659 0.951 . S
H635 C661 0.950 1_545 S
H636 C662 0.950 . S
H637 C664 0.950 . S
H638 C667 0.950 . S
H639 C668 0.950 . S
H640 C670 0.950 . S
H641 C671 0.950 . S
C642 H624 0.951 . S
C642 C643 1.366 . S
C642 C644 1.388 . S
C643 C642 1.366 . S
C643 C647 1.385 . S
C644 H625 0.951 . S
C644 C642 1.388 . S
C644 C645 1.366 . S
C645 C644 1.366 . S
C645 C646 1.414 . S
C645 C648 1.499 . S
C646 H626 0.950 . S
C646 C645 1.414 . S
C646 C647 1.374 . S
C647 H627 0.950 . S
C647 C643 1.385 . S
C647 C646 1.374 . S
C648 C645 1.499 . S
C648 C649 1.373 . S
C648 C650 1.389 . S
C649 H628 0.950 . S
C649 C648 1.373 . S
C649 C665 1.377 . S
C650 C648 1.389 . S
C650 C651 1.524 . S
C650 C664 1.377 . S
C651 C650 1.524 . S
C651 C652 1.397 . S
C651 C656 1.363 . S
C652 H629 0.950 . S
C652 C651 1.397 . S
C652 C653 1.334 . S
C653 H630 0.950 . S
C653 C652 1.334 . S
C653 C654 1.287 . S
C654 C653 1.287 . S
C654 C655 1.524 . S
C654 H673 0.913 . S
C655 H631 0.950 1_655 S
C655 C654 1.524 . S
C655 C656 1.415 . S
C656 H632 0.950 . S
C656 C651 1.363 . S
C656 C655 1.415 . S
C657 H633 0.951 . S
C657 C658 1.366 . S
C657 C659 1.388 . S
C658 C657 1.366 . S
C658 C662 1.385 . S
C659 H634 0.951 . S
C659 C657 1.388 . S
C659 C660 1.366 . S
C660 C659 1.366 . S
C660 C661 1.414 . S
C660 C663 1.499 1_565 S
C661 H635 0.950 1_565 S
C661 C660 1.414 . S
C661 C662 1.374 . S
C662 H636 0.950 . S
C662 C658 1.385 . S
C662 C661 1.374 . S
C663 C660 1.499 1_545 S
C663 C664 1.373 . S
C663 C665 1.389 . S
C664 H637 0.950 . S
C664 C650 1.377 . S
C664 C663 1.373 . S
C665 C649 1.377 . S
C665 C663 1.389 . S
C665 C666 1.524 . S
C666 C665 1.524 . S
C666 C667 1.397 . S
C666 C671 1.363 . S
C667 H638 0.950 . S
C667 C666 1.397 . S
C667 C668 1.334 . S
C668 H639 0.950 . S
C668 C667 1.334 . S
C668 C669 1.287 . S
C669 C668 1.287 . S
C669 C670 1.524 1_545 S
C669 H672 0.992 1_545 S
C670 H640 0.950 . S
C670 C669 1.524 1_565 S
C670 C671 1.415 1_565 S
C671 H641 0.950 . S
C671 C666 1.363 . S
C671 C670 1.415 1_545 S
H672 C669 0.992 1_565 S
H673 C654 0.913 . S
H674 C692 0.951 . S
H675 C694 0.951 . S
H676 C696 0.950 . S
H677 C697 0.950 . S
H678 C699 0.950 . S
H679 C702 0.950 . S
H680 C703 0.950 . S
H681 C705 0.950 . S
H682 C706 0.950 . S
H683 C707 0.951 . S
H684 C709 0.951 . S
H685 C711 0.950 . S
H686 C712 0.950 . S
H687 C714 0.950 . S
H688 C717 0.950 . S
H689 C718 0.950 . S
H690 C720 0.950 . S
H691 C721 0.950 . S
C692 H674 0.951 . S
C692 C693 1.366 . S
C692 C694 1.388 . S
C693 C692 1.366 . S
C693 C697 1.385 . S
C694 H675 0.951 . S
C694 C692 1.388 . S
C694 C695 1.366 . S
C695 C694 1.366 . S
C695 C696 1.414 . S
C695 C698 1.499 . S
C696 H676 0.950 . S
C696 C695 1.414 . S
C696 C697 1.374 . S
C697 H677 0.950 . S
C697 C693 1.385 . S
C697 C696 1.374 . S
C698 C695 1.499 . S
C698 C699 1.373 . S
C698 C700 1.389 . S
C699 H678 0.950 . S
C699 C698 1.373 . S
C699 C715 1.377 . S
C700 C698 1.389 . S
C700 C701 1.524 . S
C700 C714 1.377 . S
C701 C700 1.524 . S
C701 C702 1.397 . S
C701 C706 1.363 . S
C702 H679 0.950 . S
C702 C701 1.397 . S
C702 C703 1.334 . S
C703 H680 0.950 . S
C703 C702 1.334 . S
C703 C704 1.287 . S
C704 C703 1.287 . S
C704 C705 1.524 . S
C704 H723 0.913 . S
C705 H681 0.950 . S
C705 C704 1.524 . S
C705 C706 1.415 . S
C706 H682 0.950 . S
C706 C701 1.363 . S
C706 C705 1.415 . S
C707 H683 0.951 . S
C707 C708 1.366 . S
C707 C709 1.388 . S
C708 C707 1.366 . S
C708 C712 1.385 . S
C709 H684 0.951 . S
C709 C707 1.388 . S
C709 C710 1.366 . S
C710 C709 1.366 . S
C710 C711 1.414 . S
C710 C713 1.499 . S
C711 H685 0.950 . S
C711 C710 1.414 . S
C711 C712 1.374 . S
C712 H686 0.950 . S
C712 C708 1.385 . S
C712 C711 1.374 . S
C713 C710 1.499 . S
C713 C714 1.373 . S
C713 C715 1.389 . S
C714 H687 0.950 . S
C714 C700 1.377 . S
C714 C713 1.373 . S
C715 C699 1.377 . S
C715 C713 1.389 . S
C715 C716 1.524 . S
C716 C715 1.524 . S
C716 C717 1.397 . S
C716 C721 1.363 . S
C717 H688 0.950 . S
C717 C716 1.397 . S
C717 C718 1.334 . S
C718 H689 0.950 . S
C718 C717 1.334 . S
C718 C719 1.287 . S
C719 C718 1.287 . S
C719 C720 1.524 . S
C719 H722 0.999 . S
C720 H690 0.950 . S
C720 C719 1.524 . S
C720 C721 1.415 . S
C721 H691 0.950 . S
C721 C716 1.363 . S
C721 C720 1.415 . S
H722 C719 0.999 . S
H723 C704 0.913 . S
H724 C742 0.951 . S
H725 C744 0.951 . S
H726 C746 0.950 . S
H727 C747 0.950 . S
H728 C749 0.950 . S
H729 C752 0.950 . S
H730 C753 0.950 . S
H731 C755 0.950 . S
H732 C756 0.950 . S
H733 C757 0.951 . S
H734 C759 0.951 . S
H735 C761 0.950 . S
H736 C762 0.950 . S
H737 C764 0.950 . S
H738 C767 0.950 . S
H739 C768 0.950 . S
H740 C770 0.950 . S
H741 C771 0.950 . S
C742 H724 0.951 . S
C742 C743 1.366 . S
C742 C744 1.388 . S
C743 C742 1.366 . S
C743 C747 1.385 . S
C744 H725 0.951 . S
C744 C742 1.388 . S
C744 C745 1.366 . S
C745 C744 1.366 . S
C745 C746 1.414 . S
C745 C748 1.499 . S
C746 H726 0.950 . S
C746 C745 1.414 . S
C746 C747 1.374 . S
C747 H727 0.950 . S
C747 C743 1.385 . S
C747 C746 1.374 . S
C748 C745 1.499 . S
C748 C749 1.373 . S
C748 C750 1.389 . S
C749 H728 0.950 . S
C749 C748 1.373 . S
C749 C765 1.377 . S
C750 C748 1.389 . S
C750 C751 1.524 . S
C750 C764 1.377 . S
C751 C750 1.524 . S
C751 C752 1.397 . S
C751 C756 1.363 . S
C752 H729 0.950 . S
C752 C751 1.397 . S
C752 C753 1.334 . S
C753 H730 0.950 . S
C753 C752 1.334 . S
C753 C754 1.287 . S
C754 C753 1.287 . S
C754 C755 1.524 . S
C754 H773 0.913 . S
C755 H731 0.950 . S
C755 C754 1.524 . S
C755 C756 1.415 . S
C756 H732 0.950 . S
C756 C751 1.363 . S
C756 C755 1.415 . S
C757 H733 0.951 . S
C757 C758 1.366 . S
C757 C759 1.388 . S
C758 C757 1.366 . S
C758 C762 1.385 . S
C759 H734 0.951 . S
C759 C757 1.388 . S
C759 C760 1.366 . S
C760 C759 1.366 . S
C760 C761 1.414 . S
C760 C763 1.499 . S
C761 H735 0.950 . S
C761 C760 1.414 . S
C761 C762 1.374 . S
C762 H736 0.950 . S
C762 C758 1.385 . S
C762 C761 1.374 . S
C763 C760 1.499 . S
C763 C764 1.373 . S
C763 C765 1.389 . S
C764 H737 0.950 . S
C764 C750 1.377 . S
C764 C763 1.373 . S
C765 C749 1.377 . S
C765 C763 1.389 . S
C765 C766 1.524 . S
C766 C765 1.524 . S
C766 C767 1.397 . S
C766 C771 1.363 . S
C767 H738 0.950 . S
C767 C766 1.397 . S
C767 C768 1.334 . S
C768 H739 0.950 . S
C768 C767 1.334 . S
C768 C769 1.287 . S
C769 C768 1.287 . S
C769 C770 1.524 . S
C769 H772 0.999 . S
C770 H740 0.950 . S
C770 C769 1.524 . S
C770 C771 1.415 . S
C771 H741 0.950 . S
C771 C766 1.363 . S
C771 C770 1.415 . S
H772 C769 0.999 . S
H773 C754 0.913 . S
H774 C792 0.951 . S
H775 C794 0.951 . S
H776 C796 0.950 . S
H777 C797 0.950 . S
H778 C799 0.950 . S
H779 C802 0.950 . S
H780 C803 0.950 . S
H781 C805 0.950 . S
H782 C806 0.950 . S
H783 C807 0.951 . S
H784 C809 0.951 . S
H785 C811 0.950 1_545 S
H786 C812 0.950 . S
H787 C814 0.950 . S
H788 C817 0.950 . S
H789 C818 0.950 . S
H790 C820 0.950 . S
H791 C821 0.950 . S
C792 H774 0.951 . S
C792 C793 1.366 . S
C792 C794 1.388 . S
C793 C792 1.366 . S
C793 C797 1.385 . S
C794 H775 0.951 . S
C794 C792 1.388 . S
C794 C795 1.366 . S
C795 C794 1.366 . S
C795 C796 1.414 . S
C795 C798 1.499 . S
C796 H776 0.950 . S
C796 C795 1.414 . S
C796 C797 1.374 . S
C797 H777 0.950 . S
C797 C793 1.385 . S
C797 C796 1.374 . S
C798 C795 1.499 . S
C798 C799 1.373 . S
C798 C800 1.389 . S
C799 H778 0.950 . S
C799 C798 1.373 . S
C799 C815 1.377 . S
C800 C798 1.389 . S
C800 C801 1.524 . S
C800 C814 1.377 . S
C801 C800 1.524 . S
C801 C802 1.397 . S
C801 C806 1.363 . S
C802 H779 0.950 . S
C802 C801 1.397 . S
C802 C803 1.334 . S
C803 H780 0.950 . S
C803 C802 1.334 . S
C803 C804 1.287 . S
C804 C803 1.287 . S
C804 C805 1.524 . S
C804 H823 0.913 . S
C805 H781 0.950 . S
C805 C804 1.524 . S
C805 C806 1.415 . S
C806 H782 0.950 . S
C806 C801 1.363 . S
C806 C805 1.415 . S
C807 H783 0.951 . S
C807 C808 1.366 . S
C807 C809 1.388 . S
C808 C807 1.366 . S
C808 C812 1.385 . S
C809 H784 0.951 . S
C809 C807 1.388 . S
C809 C810 1.366 . S
C810 C809 1.366 . S
C810 C811 1.414 . S
C810 C813 1.499 1_565 S
C811 H785 0.950 1_565 S
C811 C810 1.414 . S
C811 C812 1.374 . S
C812 H786 0.950 . S
C812 C808 1.385 . S
C812 C811 1.374 . S
C813 C810 1.499 1_545 S
C813 C814 1.373 . S
C813 C815 1.389 . S
C814 H787 0.950 . S
C814 C800 1.377 . S
C814 C813 1.373 . S
C815 C799 1.377 . S
C815 C813 1.389 . S
C815 C816 1.524 1_545 S
C816 C815 1.524 1_565 S
C816 C817 1.397 . S
C816 C821 1.363 . S
C817 H788 0.950 . S
C817 C816 1.397 . S
C817 C818 1.334 . S
C818 H789 0.950 . S
C818 C817 1.334 . S
C818 C819 1.287 . S
C819 C818 1.287 . S
C819 C820 1.524 . S
C819 H822 0.999 . S
C820 H790 0.950 . S
C820 C819 1.524 . S
C820 C821 1.415 . S
C821 H791 0.950 . S
C821 C816 1.363 . S
C821 C820 1.415 . S
H822 C819 0.999 . S
H823 C804 0.913 . S
H824 C842 0.951 . S
H825 C844 0.951 . S
H826 C846 0.950 1_554 S
H827 C847 0.950 . S
H828 C849 0.950 . S
H829 C852 0.950 . S
H830 C853 0.956 . S
H831 C855 0.950 1_556 S
H832 C856 0.950 . S
H833 C857 0.951 . S
H834 C859 0.951 . S
H835 C861 0.950 . S
H836 C862 0.950 . S
H837 C864 0.950 . S
H838 C867 0.950 . S
H839 C868 0.950 . S
H840 C870 0.950 . S
H841 C871 0.950 . S
C842 H824 0.951 . S
C842 C843 1.366 . S
C842 C844 1.388 . S
C843 C842 1.366 . S
C843 C847 1.385 . S
C844 H825 0.951 . S
C844 C842 1.388 . S
C844 C845 1.366 . S
C845 C844 1.366 . S
C845 C846 1.414 . S
C845 C848 1.499 1_556 S
C846 H826 0.950 1_556 S
C846 C845 1.414 . S
C846 C847 1.374 . S
C847 H827 0.950 . S
C847 C843 1.385 . S
C847 C846 1.374 . S
C848 C845 1.499 1_554 S
C848 C849 1.373 . S
C848 C850 1.389 . S
C849 H828 0.950 . S
C849 C848 1.373 . S
C849 C865 1.377 . S
C850 C848 1.389 . S
C850 C851 1.524 . S
C850 C864 1.377 . S
C851 C850 1.524 . S
C851 C852 1.397 . S
C851 C856 1.363 . S
C852 H829 0.950 . S
C852 C851 1.397 . S
C852 C853 1.326 1_554 S
C853 H830 0.956 . S
C853 C852 1.326 1_556 S
C853 C854 1.289 . S
C854 C853 1.289 . S
C854 C855 1.524 1_556 S
C854 H873 0.913 . S
C855 H831 0.950 1_554 S
C855 C854 1.524 1_554 S
C855 C856 1.415 . S
C856 H832 0.950 . S
C856 C851 1.363 . S
C856 C855 1.415 . S
C857 H833 0.951 . S
C857 C858 1.366 . S
C857 C859 1.388 . S
C858 C857 1.366 . S
C858 C862 1.385 . S
C859 H834 0.951 . S
C859 C857 1.388 . S
C859 C860 1.366 . S
C860 C859 1.366 . S
C860 C861 1.414 . S
C860 C863 1.499 . S
C861 H835 0.950 . S
C861 C860 1.414 . S
C861 C862 1.374 . S
C862 H836 0.950 . S
C862 C858 1.385 . S
C862 C861 1.374 . S
C863 C860 1.499 . S
C863 C864 1.373 . S
C863 C865 1.389 . S
C864 H837 0.950 . S
C864 C850 1.377 . S
C864 C863 1.373 . S
C865 C849 1.377 . S
C865 C863 1.389 . S
C865 C866 1.524 . S
C866 C865 1.524 . S
C866 C867 1.397 . S
C866 C871 1.363 . S
C867 H838 0.950 . S
C867 C866 1.397 . S
C867 C868 1.334 . S
C868 H839 0.950 . S
C868 C867 1.334 . S
C868 C869 1.287 . S
C869 C868 1.287 . S
C869 C870 1.524 . S
C869 H872 0.999 . S
C870 H840 0.950 . S
C870 C869 1.524 . S
C870 C871 1.415 . S
C871 H841 0.950 . S
C871 C866 1.363 . S
C871 C870 1.415 . S
H872 C869 0.999 . S
H873 C854 0.913 . S
H874 C892 0.951 . S
H875 C894 0.951 . S
H876 C896 0.950 . S
H877 C897 0.950 . S
H878 C899 0.950 . S
H879 C902 0.950 . S
H880 C903 0.950 . S
H881 C905 0.950 . S
H882 C906 0.950 . S
H883 C907 0.951 . S
H884 C909 0.951 . S
H885 C911 0.950 . S
H886 C912 0.950 . S
H887 C914 0.950 . S
H888 C917 0.950 . S
H889 C918 0.950 . S
H890 C920 0.950 . S
H891 C921 0.950 . S
C892 H874 0.951 . S
C892 C893 1.366 . S
C892 C894 1.388 . S
C893 C892 1.366 . S
C893 C897 1.385 . S
C894 H875 0.951 . S
C894 C892 1.388 . S
C894 C895 1.366 . S
C895 C894 1.366 . S
C895 C896 1.414 . S
C895 C898 1.499 . S
C896 H876 0.950 . S
C896 C895 1.414 . S
C896 C897 1.374 . S
C897 H877 0.950 . S
C897 C893 1.385 . S
C897 C896 1.374 . S
C898 C895 1.499 . S
C898 C899 1.373 . S
C898 C900 1.389 . S
C899 H878 0.950 . S
C899 C898 1.373 . S
C899 C915 1.377 . S
C900 C898 1.389 . S
C900 C901 1.524 . S
C900 C914 1.377 . S
C901 C900 1.524 . S
C901 C902 1.397 . S
C901 C906 1.363 . S
C902 H879 0.950 . S
C902 C901 1.397 . S
C902 C903 1.334 . S
C903 H880 0.950 . S
C903 C902 1.334 . S
C903 C904 1.287 . S
C904 C903 1.287 . S
C904 C905 1.524 . S
C904 H923 0.913 . S
C905 H881 0.950 . S
C905 C904 1.524 . S
C905 C906 1.415 . S
C906 H882 0.950 . S
C906 C901 1.363 . S
C906 C905 1.415 . S
C907 H883 0.951 . S
C907 C908 1.366 . S
C907 C909 1.388 . S
C908 C907 1.366 . S
C908 C912 1.385 . S
C909 H884 0.951 . S
C909 C907 1.388 . S
C909 C910 1.366 . S
C910 C909 1.366 . S
C910 C911 1.414 . S
C910 C913 1.499 . S
C911 H885 0.950 . S
C911 C910 1.414 . S
C911 C912 1.374 . S
C912 H886 0.950 . S
C912 C908 1.385 . S
C912 C911 1.374 . S
C913 C910 1.499 . S
C913 C914 1.373 . S
C913 C915 1.389 . S
C914 H887 0.950 . S
C914 C900 1.377 . S
C914 C913 1.373 . S
C915 C899 1.377 . S
C915 C913 1.389 . S
C915 C916 1.524 . S
C916 C915 1.524 . S
C916 C917 1.397 . S
C916 C921 1.363 . S
C917 H888 0.950 . S
C917 C916 1.397 . S
C917 C918 1.334 . S
C918 H889 0.950 . S
C918 C917 1.334 . S
C918 C919 1.287 . S
C919 C918 1.287 . S
C919 C920 1.524 . S
C919 H922 0.999 . S
C920 H890 0.950 . S
C920 C919 1.524 . S
C920 C921 1.415 . S
C921 H891 0.950 . S
C921 C916 1.363 . S
C921 C920 1.415 . S
H922 C919 0.999 . S
H923 C904 0.913 . S
H924 C942 0.951 . S
H925 C944 0.951 . S
H926 C946 0.907 1_556 S
H927 C947 0.950 . S
H928 C949 0.950 . S
H929 C952 0.950 . S
H930 C953 0.950 . S
H931 C955 0.950 . S
H932 C956 0.925 1_556 S
H933 C957 0.951 . S
H934 C959 0.951 . S
H935 C961 0.950 . S
H936 C962 0.950 . S
H937 C964 0.950 . S
H938 C967 0.950 . S
H939 C968 0.950 . S
H940 C970 0.950 . S
H941 C971 0.950 . S
C942 H924 0.951 . S
C942 C943 1.366 . S
C942 C944 1.388 . S
C943 C942 1.366 . S
C943 C947 1.385 . S
C944 H925 0.951 . S
C944 C942 1.388 . S
C944 C945 1.366 . S
C945 C944 1.366 . S
C945 C946 1.414 . S
C945 C948 1.499 1_554 S
C946 H926 0.907 1_554 S
C946 C945 1.414 . S
C946 C947 1.374 . S
C947 H927 0.950 . S
C947 C943 1.385 . S
C947 C946 1.374 . S
C948 C945 1.499 1_556 S
C948 C949 1.373 . S
C948 C950 1.389 . S
C949 H928 0.950 . S
C949 C948 1.373 . S
C949 C965 1.377 . S
C950 C948 1.389 . S
C950 C951 1.524 . S
C950 C964 1.377 . S
C951 C950 1.524 . S
C951 C952 1.397 1_556 S
C951 C956 1.356 1_556 S
C952 H929 0.950 . S
C952 C951 1.397 1_554 S
C952 C953 1.334 . S
C953 H930 0.950 . S
C953 C952 1.334 . S
C953 C954 1.287 . S
C954 C953 1.287 . S
C954 C955 1.524 . S
C954 H973 0.913 . S
C955 H931 0.950 . S
C955 C954 1.524 . S
C955 C956 1.449 . S
C956 H932 0.925 1_554 S
C956 C951 1.356 1_554 S
C956 C955 1.449 . S
C957 H933 0.951 . S
C957 C958 1.366 . S
C957 C959 1.388 . S
C958 C957 1.366 . S
C958 C962 1.385 . S
C959 H934 0.951 . S
C959 C957 1.388 . S
C959 C960 1.366 . S
C960 C959 1.366 . S
C960 C961 1.414 . S
C960 C963 1.499 . S
C961 H935 0.950 . S
C961 C960 1.414 . S
C961 C962 1.374 . S
C962 H936 0.950 . S
C962 C958 1.385 . S
C962 C961 1.374 . S
C963 C960 1.499 . S
C963 C964 1.373 . S
C963 C965 1.389 . S
C964 H937 0.950 . S
C964 C950 1.377 . S
C964 C963 1.373 . S
C965 C949 1.377 . S
C965 C963 1.389 . S
C965 C966 1.524 . S
C966 C965 1.524 . S
C966 C967 1.397 . S
C966 C971 1.363 . S
C967 H938 0.950 . S
C967 C966 1.397 . S
C967 C968 1.334 . S
C968 H939 0.950 . S
C968 C967 1.334 . S
C968 C969 1.287 . S
C969 C968 1.287 . S
C969 C970 1.524 . S
C969 H972 0.999 . S
C970 H940 0.950 . S
C970 C969 1.524 . S
C970 C971 1.415 . S
C971 H941 0.950 . S
C971 C966 1.363 . S
C971 C970 1.415 . S
H972 C969 0.999 . S
H973 C954 0.913 . S
H974 C992 0.951 . S
H975 C994 0.951 . S
H976 C996 0.950 . S
H977 C997 0.950 . S
H978 C999 0.950 . S
H979 C1002 0.950 . S
H980 C1003 0.950 . S
H981 C1005 0.950 . S
H982 C1006 0.950 . S
H983 C1007 0.951 . S
H984 C1009 0.951 . S
H985 C1011 0.950 . S
H986 C1012 0.950 . S
H987 C1014 0.950 . S
H988 C1017 0.950 . S
H989 C1018 0.950 . S
H990 C1020 0.950 . S
H991 C1021 0.950 . S
C992 H974 0.951 . S
C992 C993 1.366 . S
C992 C994 1.388 . S
C993 C992 1.366 . S
C993 C997 1.385 . S
C994 H975 0.951 . S
C994 C992 1.388 . S
C994 C995 1.366 . S
C995 C994 1.366 . S
C995 C996 1.414 . S
C995 C998 1.499 . S
C996 H976 0.950 . S
C996 C995 1.414 . S
C996 C997 1.374 . S
C997 H977 0.950 . S
C997 C993 1.385 . S
C997 C996 1.374 . S
C998 C995 1.499 . S
C998 C999 1.373 . S
C998 C1000 1.389 . S
C999 H978 0.950 . S
C999 C998 1.373 . S
C999 C1015 1.377 . S
C1000 C998 1.389 . S
C1000 C1001 1.524 . S
C1000 C1014 1.377 . S
C1001 C1000 1.524 . S
C1001 C1002 1.397 . S
C1001 C1006 1.363 . S
C1002 H979 0.950 . S
C1002 C1001 1.397 . S
C1002 C1003 1.334 . S
C1003 H980 0.950 . S
C1003 C1002 1.334 . S
C1003 C1004 1.287 . S
C1004 C1003 1.287 . S
C1004 C1005 1.524 . S
C1004 H1023 0.913 . S
C1005 H981 0.950 . S
C1005 C1004 1.524 . S
C1005 C1006 1.415 . S
C1006 H982 0.950 . S
C1006 C1001 1.363 . S
C1006 C1005 1.415 . S
C1007 H983 0.951 . S
C1007 C1008 1.366 . S
C1007 C1009 1.388 . S
C1008 C1007 1.366 . S
C1008 C1012 1.385 . S
C1009 H984 0.951 . S
C1009 C1007 1.388 . S
C1009 C1010 1.366 . S
C1010 C1009 1.366 . S
C1010 C1011 1.414 . S
C1010 C1013 1.499 . S
C1011 H985 0.950 . S
C1011 C1010 1.414 . S
C1011 C1012 1.374 . S
C1012 H986 0.950 . S
C1012 C1008 1.385 . S
C1012 C1011 1.374 . S
C1013 C1010 1.499 . S
C1013 C1014 1.373 . S
C1013 C1015 1.389 . S
C1014 H987 0.950 . S
C1014 C1000 1.377 . S
C1014 C1013 1.373 . S
C1015 C999 1.377 . S
C1015 C1013 1.389 . S
C1015 C1016 1.524 . S
C1016 C1015 1.524 . S
C1016 C1017 1.397 . S
C1016 C1021 1.363 . S
C1017 H988 0.950 . S
C1017 C1016 1.397 . S
C1017 C1018 1.334 . S
C1018 H989 0.950 . S
C1018 C1017 1.334 . S
C1018 C1019 1.287 . S
C1019 C1018 1.287 . S
C1019 C1020 1.524 . S
C1019 H1022 0.999 . S
C1020 H990 0.950 . S
C1020 C1019 1.524 . S
C1020 C1021 1.415 . S
C1021 H991 0.950 . S
C1021 C1016 1.363 . S
C1021 C1020 1.415 . S
H1022 C1019 0.999 . S
H1023 C1004 0.913 . S
H1024 C1042 0.951 . S
H1025 C1044 0.951 . S
H1026 C1046 0.950 . S
H1027 C1047 0.950 . S
H1028 C1049 0.950 . S
H1029 C1052 0.950 . S
H1030 C1053 0.950 . S
H1031 C1055 0.950 . S
H1032 C1056 0.950 . S
H1033 C1057 0.951 . S
H1034 C1059 0.951 . S
H1035 C1061 0.950 . S
H1036 C1062 0.950 . S
H1037 C1064 0.950 . S
H1038 C1067 0.950 . S
H1039 C1068 0.950 1_455 S
H1040 C1070 0.950 . S
H1041 C1071 0.950 . S
C1042 H1024 0.951 . S
C1042 C1043 1.366 . S
C1042 C1044 1.388 . S
C1043 C1042 1.366 . S
C1043 C1047 1.385 . S
C1044 H1025 0.951 . S
C1044 C1042 1.388 . S
C1044 C1045 1.366 . S
C1045 C1044 1.366 . S
C1045 C1046 1.414 . S
C1045 C1048 1.499 1_554 S
C1046 H1026 0.950 . S
C1046 C1045 1.414 . S
C1046 C1047 1.374 . S
C1047 H1027 0.950 . S
C1047 C1043 1.385 . S
C1047 C1046 1.374 . S
C1048 C1045 1.499 1_556 S
C1048 C1049 1.373 . S
C1048 C1050 1.389 . S
C1049 H1028 0.950 . S
C1049 C1048 1.373 . S
C1049 C1065 1.377 . S
C1050 C1048 1.389 . S
C1050 C1051 1.524 . S
C1050 C1064 1.377 . S
C1051 C1050 1.524 . S
C1051 C1052 1.397 . S
C1051 C1056 1.363 . S
C1052 H1029 0.950 . S
C1052 C1051 1.397 . S
C1052 C1053 1.334 . S
C1053 H1030 0.950 . S
C1053 C1052 1.334 . S
C1053 C1054 1.287 . S
C1054 C1053 1.287 . S
C1054 C1055 1.524 . S
C1054 H1073 0.913 . S
C1055 H1031 0.950 . S
C1055 C1054 1.524 . S
C1055 C1056 1.415 . S
C1056 H1032 0.950 . S
C1056 C1051 1.363 . S
C1056 C1055 1.415 . S
C1057 H1033 0.951 . S
C1057 C1058 1.366 . S
C1057 C1059 1.388 . S
C1058 C1057 1.366 . S
C1058 C1062 1.385 . S
C1059 H1034 0.951 . S
C1059 C1057 1.388 . S
C1059 C1060 1.366 . S
C1060 C1059 1.366 . S
C1060 C1061 1.414 . S
C1060 C1063 1.499 . S
C1061 H1035 0.950 . S
C1061 C1060 1.414 . S
C1061 C1062 1.374 . S
C1062 H1036 0.950 . S
C1062 C1058 1.385 . S
C1062 C1061 1.374 . S
C1063 C1060 1.499 . S
C1063 C1064 1.373 . S
C1063 C1065 1.389 . S
C1064 H1037 0.950 . S
C1064 C1050 1.377 . S
C1064 C1063 1.373 . S
C1065 C1049 1.377 . S
C1065 C1063 1.389 . S
C1065 C1066 1.524 . S
C1066 C1065 1.524 . S
C1066 C1067 1.397 . S
C1066 C1071 1.363 . S
C1067 H1038 0.950 . S
C1067 C1066 1.397 . S
C1067 C1068 1.334 . S
C1068 H1039 0.950 1_655 S
C1068 C1067 1.334 . S
C1068 C1069 1.287 . S
C1069 C1068 1.287 . S
C1069 C1070 1.524 . S
C1069 H1072 0.999 1_655 S
C1070 H1040 0.950 . S
C1070 C1069 1.524 . S
C1070 C1071 1.415 . S
C1071 H1041 0.950 . S
C1071 C1066 1.363 . S
C1071 C1070 1.415 . S
H1072 C1069 0.999 1_455 S
H1073 C1054 0.913 . S
H1074 C1092 0.951 . S
H1075 C1094 0.951 . S
H1076 C1096 0.950 . S
H1077 C1097 0.950 . S
H1078 C1099 0.950 . S
H1079 C1102 0.950 . S
H1080 C1103 0.950 . S
H1081 C1105 0.950 . S
H1082 C1106 0.950 . S
H1083 C1107 0.951 . S
H1084 C1109 0.951 . S
H1085 C1111 0.950 . S
H1086 C1112 0.950 . S
H1087 C1114 0.950 . S
H1088 C1117 0.950 . S
H1089 C1118 0.950 . S
H1090 C1120 0.950 . S
H1091 C1121 0.950 . S
C1092 H1074 0.951 . S
C1092 C1093 1.366 . S
C1092 C1094 1.388 . S
C1093 C1092 1.366 . S
C1093 C1097 1.385 . S
C1094 H1075 0.951 . S
C1094 C1092 1.388 . S
C1094 C1095 1.366 . S
C1095 C1094 1.366 . S
C1095 C1096 1.414 . S
C1095 C1098 1.499 . S
C1096 H1076 0.950 . S
C1096 C1095 1.414 . S
C1096 C1097 1.374 . S
C1097 H1077 0.950 . S
C1097 C1093 1.385 . S
C1097 C1096 1.374 . S
C1098 C1095 1.499 . S
C1098 C1099 1.373 . S
C1098 C1100 1.389 . S
C1099 H1078 0.950 . S
C1099 C1098 1.373 . S
C1099 C1115 1.377 . S
C1100 C1098 1.389 . S
C1100 C1101 1.524 . S
C1100 C1114 1.377 . S
C1101 C1100 1.524 . S
C1101 C1102 1.397 . S
C1101 C1106 1.363 . S
C1102 H1079 0.950 . S
C1102 C1101 1.397 . S
C1102 C1103 1.334 . S
C1103 H1080 0.950 . S
C1103 C1102 1.334 . S
C1103 C1104 1.287 . S
C1104 C1103 1.287 . S
C1104 C1105 1.524 . S
C1104 H1123 0.913 . S
C1105 H1081 0.950 . S
C1105 C1104 1.524 . S
C1105 C1106 1.415 . S
C1106 H1082 0.950 . S
C1106 C1101 1.363 . S
C1106 C1105 1.415 . S
C1107 H1083 0.951 . S
C1107 C1108 1.366 . S
C1107 C1109 1.388 . S
C1108 C1107 1.366 . S
C1108 C1112 1.385 . S
C1109 H1084 0.951 . S
C1109 C1107 1.388 . S
C1109 C1110 1.366 . S
C1110 C1109 1.366 . S
C1110 C1111 1.414 . S
C1110 C1113 1.499 . S
C1111 H1085 0.950 . S
C1111 C1110 1.414 . S
C1111 C1112 1.374 . S
C1112 H1086 0.950 . S
C1112 C1108 1.385 . S
C1112 C1111 1.374 . S
C1113 C1110 1.499 . S
C1113 C1114 1.373 . S
C1113 C1115 1.389 . S
C1114 H1087 0.950 . S
C1114 C1100 1.377 . S
C1114 C1113 1.373 . S
C1115 C1099 1.377 . S
C1115 C1113 1.389 . S
C1115 C1116 1.524 . S
C1116 C1115 1.524 . S
C1116 C1117 1.397 . S
C1116 C1121 1.363 . S
C1117 H1088 0.950 . S
C1117 C1116 1.397 . S
C1117 C1118 1.334 . S
C1118 H1089 0.950 . S
C1118 C1117 1.334 . S
C1118 C1119 1.287 . S
C1119 C1118 1.287 . S
C1119 C1120 1.524 . S
C1119 H1122 0.999 . S
C1120 H1090 0.950 . S
C1120 C1119 1.524 . S
C1120 C1121 1.415 . S
C1121 H1091 0.950 . S
C1121 C1116 1.363 . S
C1121 C1120 1.415 . S
H1122 C1119 0.999 . S
H1123 C1104 0.913 . S
H1124 C1142 0.951 . S
H1125 C1144 0.951 . S
H1126 C1146 0.950 . S
H1127 C1147 0.950 . S
H1128 C1149 0.950 . S
H1129 C1152 0.950 . S
H1130 C1153 0.950 . S
H1131 C1155 0.950 . S
H1132 C1156 0.950 1_554 S
H1133 C1157 0.951 . S
H1134 C1159 0.951 . S
H1135 C1161 0.950 . S
H1136 C1162 0.950 . S
H1137 C1164 0.950 . S
H1138 C1167 0.950 . S
H1139 C1168 0.950 . S
H1140 C1170 0.950 . S
H1141 C1171 0.950 . S
C1142 H1124 0.951 . S
C1142 C1143 1.366 . S
C1142 C1144 1.388 . S
C1143 C1142 1.366 . S
C1143 C1147 1.385 . S
C1144 H1125 0.951 . S
C1144 C1142 1.388 . S
C1144 C1145 1.366 . S
C1145 C1144 1.366 . S
C1145 C1146 1.414 . S
C1145 C1148 1.499 1_556 S
C1146 H1126 0.950 . S
C1146 C1145 1.414 . S
C1146 C1147 1.374 . S
C1147 H1127 0.950 . S
C1147 C1143 1.385 . S
C1147 C1146 1.374 . S
C1148 C1145 1.499 1_554 S
C1148 C1149 1.373 . S
C1148 C1150 1.389 . S
C1149 H1128 0.950 . S
C1149 C1148 1.373 . S
C1149 C1165 1.377 . S
C1150 C1148 1.389 . S
C1150 C1151 1.519 1_554 S
C1150 C1164 1.377 . S
C1151 C1150 1.519 1_556 S
C1151 C1152 1.400 . S
C1151 C1156 1.364 . S
C1152 H1129 0.950 . S
C1152 C1151 1.400 . S
C1152 C1153 1.334 . S
C1153 H1130 0.950 . S
C1153 C1152 1.334 . S
C1153 C1154 1.287 . S
C1154 C1153 1.287 . S
C1154 C1155 1.524 . S
C1154 H1173 0.913 . S
C1155 H1131 0.950 . S
C1155 C1154 1.524 . S
C1155 C1156 1.415 . S
C1156 H1132 0.950 1_556 S
C1156 C1151 1.364 . S
C1156 C1155 1.415 . S
C1157 H1133 0.951 . S
C1157 C1158 1.366 . S
C1157 C1159 1.388 . S
C1158 C1157 1.366 . S
C1158 C1162 1.385 . S
C1159 H1134 0.951 . S
C1159 C1157 1.388 . S
C1159 C1160 1.366 . S
C1160 C1159 1.366 . S
C1160 C1161 1.414 . S
C1160 C1163 1.499 . S
C1161 H1135 0.950 . S
C1161 C1160 1.414 . S
C1161 C1162 1.374 . S
C1162 H1136 0.950 . S
C1162 C1158 1.385 . S
C1162 C1161 1.374 . S
C1163 C1160 1.499 . S
C1163 C1164 1.373 . S
C1163 C1165 1.389 . S
C1164 H1137 0.950 . S
C1164 C1150 1.377 . S
C1164 C1163 1.373 . S
C1165 C1149 1.377 . S
C1165 C1163 1.389 . S
C1165 C1166 1.524 . S
C1166 C1165 1.524 . S
C1166 C1167 1.397 . S
C1166 C1171 1.363 . S
C1167 H1138 0.950 . S
C1167 C1166 1.397 . S
C1167 C1168 1.334 . S
C1168 H1139 0.950 . S
C1168 C1167 1.334 . S
C1168 C1169 1.287 . S
C1169 C1168 1.287 . S
C1169 C1170 1.524 . S
C1169 H1172 0.999 . S
C1170 H1140 0.950 . S
C1170 C1169 1.524 . S
C1170 C1171 1.415 . S
C1171 H1141 0.950 . S
C1171 C1166 1.363 . S
C1171 C1170 1.415 . S
H1172 C1169 0.999 . S
H1173 C1154 0.913 . S
H1174 C1192 0.951 . S
H1175 C1194 0.951 . S
H1176 C1196 0.950 . S
H1177 C1197 0.950 . S
H1178 C1199 0.950 . S
H1179 C1202 0.950 . S
H1180 C1203 0.950 . S
H1181 C1205 0.950 . S
H1182 C1206 0.950 . S
H1183 C1207 0.951 . S
H1184 C1209 0.951 . S
H1185 C1211 0.950 . S
H1186 C1212 0.950 . S
H1187 C1214 0.950 . S
H1188 C1217 0.950 . S
H1189 C1218 0.950 1_655 S
H1190 C1220 0.950 . S
H1191 C1221 0.950 . S
C1192 H1174 0.951 . S
C1192 C1193 1.366 . S
C1192 C1194 1.388 . S
C1193 C1192 1.366 . S
C1193 C1197 1.385 . S
C1194 H1175 0.951 . S
C1194 C1192 1.388 . S
C1194 C1195 1.366 . S
C1195 C1194 1.366 . S
C1195 C1196 1.414 . S
C1195 C1198 1.499 . S
C1196 H1176 0.950 . S
C1196 C1195 1.414 . S
C1196 C1197 1.374 . S
C1197 H1177 0.950 . S
C1197 C1193 1.385 . S
C1197 C1196 1.374 . S
C1198 C1195 1.499 . S
C1198 C1199 1.373 . S
C1198 C1200 1.389 . S
C1199 H1178 0.950 . S
C1199 C1198 1.373 . S
C1199 C1215 1.377 . S
C1200 C1198 1.389 . S
C1200 C1201 1.524 . S
C1200 C1214 1.377 . S
C1201 C1200 1.524 . S
C1201 C1202 1.397 . S
C1201 C1206 1.363 . S
C1202 H1179 0.950 . S
C1202 C1201 1.397 . S
C1202 C1203 1.334 . S
C1203 H1180 0.950 . S
C1203 C1202 1.334 . S
C1203 C1204 1.287 . S
C1204 C1203 1.287 . S
C1204 C1205 1.524 . S
C1204 H1223 0.913 . S
C1205 H1181 0.950 . S
C1205 C1204 1.524 . S
C1205 C1206 1.415 . S
C1206 H1182 0.950 . S
C1206 C1201 1.363 . S
C1206 C1205 1.415 . S
C1207 H1183 0.951 . S
C1207 C1208 1.366 . S
C1207 C1209 1.388 . S
C1208 C1207 1.366 . S
C1208 C1212 1.385 . S
C1209 H1184 0.951 . S
C1209 C1207 1.388 . S
C1209 C1210 1.366 . S
C1210 C1209 1.366 . S
C1210 C1211 1.414 . S
C1210 C1213 1.499 . S
C1211 H1185 0.950 . S
C1211 C1210 1.414 . S
C1211 C1212 1.374 . S
C1212 H1186 0.950 . S
C1212 C1208 1.385 . S
C1212 C1211 1.374 . S
C1213 C1210 1.499 . S
C1213 C1214 1.373 . S
C1213 C1215 1.389 . S
C1214 H1187 0.950 . S
C1214 C1200 1.377 . S
C1214 C1213 1.373 . S
C1215 C1199 1.377 . S
C1215 C1213 1.389 . S
C1215 C1216 1.524 . S
C1216 C1215 1.524 . S
C1216 C1217 1.397 . S
C1216 C1221 1.363 . S
C1217 H1188 0.950 . S
C1217 C1216 1.397 . S
C1217 C1218 1.334 . S
C1218 H1189 0.950 1_455 S
C1218 C1217 1.334 . S
C1218 C1219 1.287 1_455 S
C1219 C1218 1.287 1_655 S
C1219 C1220 1.524 1_655 S
C1219 H1222 0.999 . S
C1220 H1190 0.950 . S
C1220 C1219 1.524 1_455 S
C1220 C1221 1.415 . S
C1221 H1191 0.950 . S
C1221 C1216 1.363 . S
C1221 C1220 1.415 . S
H1222 C1219 0.999 . S
H1223 C1204 0.913 . S
H1224 C1242 0.951 . S
H1225 C1244 0.951 . S
H1226 C1246 0.950 . S
H1227 C1247 0.950 . S
H1228 C1249 0.950 . S
H1229 C1252 0.950 . S
H1230 C1253 0.950 . S
H1231 C1255 0.950 . S
H1232 C1256 0.950 . S
H1233 C1257 0.951 . S
H1234 C1259 0.951 . S
H1235 C1261 0.950 . S
H1236 C1262 0.950 . S
H1237 C1264 0.950 . S
H1238 C1267 0.950 . S
H1239 C1268 0.950 . S
H1240 C1270 0.950 . S
H1241 C1271 0.950 . S
C1242 H1224 0.951 . S
C1242 C1243 1.366 . S
C1242 C1244 1.388 . S
C1243 C1242 1.366 . S
C1243 C1247 1.385 . S
C1244 H1225 0.951 . S
C1244 C1242 1.388 . S
C1244 C1245 1.366 . S
C1245 C1244 1.366 . S
C1245 C1246 1.414 . S
C1245 C1248 1.499 . S
C1246 H1226 0.950 . S
C1246 C1245 1.414 . S
C1246 C1247 1.374 . S
C1247 H1227 0.950 . S
C1247 C1243 1.385 . S
C1247 C1246 1.374 . S
C1248 C1245 1.499 . S
C1248 C1249 1.373 . S
C1248 C1250 1.389 . S
C1249 H1228 0.950 . S
C1249 C1248 1.373 . S
C1249 C1265 1.377 . S
C1250 C1248 1.389 . S
C1250 C1251 1.524 . S
C1250 C1264 1.377 . S
C1251 C1250 1.524 . S
C1251 C1252 1.397 . S
C1251 C1256 1.363 . S
C1252 H1229 0.950 . S
C1252 C1251 1.397 . S
C1252 C1253 1.334 . S
C1253 H1230 0.950 . S
C1253 C1252 1.334 . S
C1253 C1254 1.287 . S
C1254 C1253 1.287 . S
C1254 C1255 1.524 . S
C1254 H1273 0.913 . S
C1255 H1231 0.950 . S
C1255 C1254 1.524 . S
C1255 C1256 1.415 . S
C1256 H1232 0.950 . S
C1256 C1251 1.363 . S
C1256 C1255 1.415 . S
C1257 H1233 0.951 . S
C1257 C1258 1.366 . S
C1257 C1259 1.388 . S
C1258 C1257 1.366 . S
C1258 C1262 1.385 . S
C1259 H1234 0.951 . S
C1259 C1257 1.388 . S
C1259 C1260 1.366 . S
C1260 C1259 1.366 . S
C1260 C1261 1.414 . S
C1260 C1263 1.499 . S
C1261 H1235 0.950 . S
C1261 C1260 1.414 . S
C1261 C1262 1.374 . S
C1262 H1236 0.950 . S
C1262 C1258 1.385 . S
C1262 C1261 1.374 . S
C1263 C1260 1.499 . S
C1263 C1264 1.373 . S
C1263 C1265 1.389 . S
C1264 H1237 0.950 . S
C1264 C1250 1.377 . S
C1264 C1263 1.373 . S
C1265 C1249 1.377 . S
C1265 C1263 1.389 . S
C1265 C1266 1.524 . S
C1266 C1265 1.524 . S
C1266 C1267 1.397 . S
C1266 C1271 1.363 . S
C1267 H1238 0.950 . S
C1267 C1266 1.397 . S
C1267 C1268 1.334 . S
C1268 H1239 0.950 . S
C1268 C1267 1.334 . S
C1268 C1269 1.287 . S
C1269 C1268 1.287 . S
C1269 C1270 1.524 . S
C1269 H1272 0.999 . S
C1270 H1240 0.950 . S
C1270 C1269 1.524 . S
C1270 C1271 1.415 . S
C1271 H1241 0.950 . S
C1271 C1266 1.363 . S
C1271 C1270 1.415 . S
H1272 C1269 0.999 . S
H1273 C1254 0.913 . S
H1274 C1292 0.951 . S
H1275 C1294 0.951 . S
H1276 C1296 0.950 . S
H1277 C1297 0.950 . S
H1278 C1299 0.950 . S
H1279 C1302 0.950 . S
H1280 C1303 0.950 . S
H1281 C1305 0.950 . S
H1282 C1306 0.950 . S
H1283 C1307 0.951 . S
H1284 C1309 0.951 . S
H1285 C1311 0.950 . S
H1286 C1312 0.950 . S
H1287 C1314 0.950 . S
H1288 C1317 0.950 . S
H1289 C1318 0.950 . S
H1290 C1320 0.950 . S
H1291 C1321 0.950 . S
C1292 H1274 0.951 . S
C1292 C1293 1.366 . S
C1292 C1294 1.388 . S
C1293 C1292 1.366 . S
C1293 C1297 1.385 . S
C1294 H1275 0.951 . S
C1294 C1292 1.388 . S
C1294 C1295 1.366 . S
C1295 C1294 1.366 . S
C1295 C1296 1.414 . S
C1295 C1298 1.499 . S
C1296 H1276 0.950 . S
C1296 C1295 1.414 . S
C1296 C1297 1.374 . S
C1297 H1277 0.950 . S
C1297 C1293 1.385 . S
C1297 C1296 1.374 . S
C1298 C1295 1.499 . S
C1298 C1299 1.373 . S
C1298 C1300 1.389 . S
C1299 H1278 0.950 . S
C1299 C1298 1.373 . S
C1299 C1315 1.377 . S
C1300 C1298 1.389 . S
C1300 C1301 1.524 . S
C1300 C1314 1.377 . S
C1301 C1300 1.524 . S
C1301 C1302 1.397 . S
C1301 C1306 1.363 . S
C1302 H1279 0.950 . S
C1302 C1301 1.397 . S
C1302 C1303 1.334 . S
C1303 H1280 0.950 . S
C1303 C1302 1.334 . S
C1303 C1304 1.287 . S
C1304 C1303 1.287 . S
C1304 C1305 1.524 . S
C1304 H1323 0.913 . S
C1305 H1281 0.950 . S
C1305 C1304 1.524 . S
C1305 C1306 1.415 . S
C1306 H1282 0.950 . S
C1306 C1301 1.363 . S
C1306 C1305 1.415 . S
C1307 H1283 0.951 . S
C1307 C1308 1.366 . S
C1307 C1309 1.388 . S
C1308 C1307 1.366 . S
C1308 C1312 1.385 . S
C1309 H1284 0.951 . S
C1309 C1307 1.388 . S
C1309 C1310 1.366 . S
C1310 C1309 1.366 . S
C1310 C1311 1.414 . S
C1310 C1313 1.499 . S
C1311 H1285 0.950 . S
C1311 C1310 1.414 . S
C1311 C1312 1.374 . S
C1312 H1286 0.950 . S
C1312 C1308 1.385 . S
C1312 C1311 1.374 . S
C1313 C1310 1.499 . S
C1313 C1314 1.373 . S
C1313 C1315 1.389 . S
C1314 H1287 0.950 . S
C1314 C1300 1.377 . S
C1314 C1313 1.373 . S
C1315 C1299 1.377 . S
C1315 C1313 1.389 . S
C1315 C1316 1.524 . S
C1316 C1315 1.524 . S
C1316 C1317 1.397 . S
C1316 C1321 1.363 . S
C1317 H1288 0.950 . S
C1317 C1316 1.397 . S
C1317 C1318 1.334 . S
C1318 H1289 0.950 . S
C1318 C1317 1.334 . S
C1318 C1319 1.287 . S
C1319 C1318 1.287 . S
C1319 C1320 1.524 . S
C1319 H1322 0.999 . S
C1320 H1290 0.950 . S
C1320 C1319 1.524 . S
C1320 C1321 1.415 . S
C1321 H1291 0.950 . S
C1321 C1316 1.363 . S
C1321 C1320 1.415 . S
H1322 C1319 0.999 . S
H1323 C1304 0.913 . S
H1324 C1342 0.951 . S
H1325 C1344 0.951 . S
H1326 C1346 0.950 . S
H1327 C1347 0.950 . S
H1328 C1349 0.950 . S
H1329 C1352 0.950 . S
H1330 C1353 0.950 . S
H1331 C1355 0.950 . S
H1332 C1356 0.950 . S
H1333 C1357 0.951 . S
H1334 C1359 0.951 . S
H1335 C1361 0.950 . S
H1336 C1362 0.950 . S
H1337 C1364 0.950 . S
H1338 C1367 0.950 . S
H1339 C1368 0.950 . S
H1340 C1370 0.950 . S
H1341 C1371 0.950 . S
C1342 H1324 0.951 . S
C1342 C1343 1.366 . S
C1342 C1344 1.388 . S
C1343 C1342 1.366 . S
C1343 C1347 1.385 . S
C1344 H1325 0.951 . S
C1344 C1342 1.388 . S
C1344 C1345 1.366 . S
C1345 C1344 1.366 . S
C1345 C1346 1.414 . S
C1345 C1348 1.499 . S
C1346 H1326 0.950 . S
C1346 C1345 1.414 . S
C1346 C1347 1.374 . S
C1347 H1327 0.950 . S
C1347 C1343 1.385 . S
C1347 C1346 1.374 . S
C1348 C1345 1.499 . S
C1348 C1349 1.373 . S
C1348 C1350 1.389 . S
C1349 H1328 0.950 . S
C1349 C1348 1.373 . S
C1349 C1365 1.377 . S
C1350 C1348 1.389 . S
C1350 C1351 1.524 . S
C1350 C1364 1.377 . S
C1351 C1350 1.524 . S
C1351 C1352 1.397 . S
C1351 C1356 1.363 . S
C1352 H1329 0.950 . S
C1352 C1351 1.397 . S
C1352 C1353 1.334 . S
C1353 H1330 0.950 . S
C1353 C1352 1.334 . S
C1353 C1354 1.287 . S
C1354 C1353 1.287 . S
C1354 C1355 1.524 . S
C1354 H1373 0.913 . S
C1355 H1331 0.950 . S
C1355 C1354 1.524 . S
C1355 C1356 1.415 . S
C1356 H1332 0.950 . S
C1356 C1351 1.363 . S
C1356 C1355 1.415 . S
C1357 H1333 0.951 . S
C1357 C1358 1.366 . S
C1357 C1359 1.388 . S
C1358 C1357 1.366 . S
C1358 C1362 1.385 . S
C1359 H1334 0.951 . S
C1359 C1357 1.388 . S
C1359 C1360 1.366 . S
C1360 C1359 1.366 . S
C1360 C1361 1.414 . S
C1360 C1363 1.499 . S
C1361 H1335 0.950 . S
C1361 C1360 1.414 . S
C1361 C1362 1.374 . S
C1362 H1336 0.950 . S
C1362 C1358 1.385 . S
C1362 C1361 1.374 . S
C1363 C1360 1.499 . S
C1363 C1364 1.373 . S
C1363 C1365 1.389 . S
C1364 H1337 0.950 . S
C1364 C1350 1.377 . S
C1364 C1363 1.373 . S
C1365 C1349 1.377 . S
C1365 C1363 1.389 . S
C1365 C1366 1.524 . S
C1366 C1365 1.524 . S
C1366 C1367 1.397 . S
C1366 C1371 1.363 . S
C1367 H1338 0.950 . S
C1367 C1366 1.397 . S
C1367 C1368 1.334 . S
C1368 H1339 0.950 . S
C1368 C1367 1.334 . S
C1368 C1369 1.287 . S
C1369 C1368 1.287 . S
C1369 C1370 1.524 . S
C1369 H1372 0.999 . S
C1370 H1340 0.950 . S
C1370 C1369 1.524 . S
C1370 C1371 1.415 . S
C1371 H1341 0.950 . S
C1371 C1366 1.363 . S
C1371 C1370 1.415 . S
H1372 C1369 0.999 . S
H1373 C1354 0.913 . S
H1374 C1392 0.951 . S
H1375 C1394 0.951 . S
H1376 C1396 0.950 . S
H1377 C1397 0.950 . S
H1378 C1399 0.950 . S
H1379 C1402 0.950 . S
H1380 C1403 0.950 . S
H1381 C1405 0.950 1_455 S
H1382 C1406 0.950 . S
H1383 C1407 0.951 . S
H1384 C1409 0.951 . S
H1385 C1411 0.950 . S
H1386 C1412 0.950 1_455 S
H1387 C1414 0.950 . S
H1388 C1417 0.950 . S
H1389 C1418 0.950 . S
H1390 C1420 0.950 . S
H1391 C1421 0.950 . S
C1392 H1374 0.951 . S
C1392 C1393 1.366 . S
C1392 C1394 1.388 . S
C1393 C1392 1.366 . S
C1393 C1397 1.385 . S
C1394 H1375 0.951 . S
C1394 C1392 1.388 . S
C1394 C1395 1.366 . S
C1395 C1394 1.366 . S
C1395 C1396 1.414 . S
C1395 C1398 1.499 . S
C1396 H1376 0.950 . S
C1396 C1395 1.414 . S
C1396 C1397 1.374 . S
C1397 H1377 0.950 . S
C1397 C1393 1.385 . S
C1397 C1396 1.374 . S
C1398 C1395 1.499 . S
C1398 C1399 1.373 . S
C1398 C1400 1.389 . S
C1399 H1378 0.950 . S
C1399 C1398 1.373 . S
C1399 C1415 1.377 . S
C1400 C1398 1.389 . S
C1400 C1401 1.524 . S
C1400 C1414 1.377 . S
C1401 C1400 1.524 . S
C1401 C1402 1.397 . S
C1401 C1406 1.363 . S
C1402 H1379 0.950 . S
C1402 C1401 1.397 . S
C1402 C1403 1.334 . S
C1403 H1380 0.950 . S
C1403 C1402 1.334 . S
C1403 C1404 1.287 . S
C1404 C1403 1.287 . S
C1404 C1405 1.524 . S
C1404 H1423 0.913 . S
C1405 H1381 0.950 1_655 S
C1405 C1404 1.524 . S
C1405 C1406 1.415 . S
C1406 H1382 0.950 . S
C1406 C1401 1.363 . S
C1406 C1405 1.415 . S
C1407 H1383 0.951 . S
C1407 C1408 1.366 . S
C1407 C1409 1.388 . S
C1408 C1407 1.366 . S
C1408 C1412 1.385 . S
C1409 H1384 0.951 . S
C1409 C1407 1.388 . S
C1409 C1410 1.366 . S
C1410 C1409 1.366 . S
C1410 C1411 1.414 . S
C1410 C1413 1.499 . S
C1411 H1385 0.950 . S
C1411 C1410 1.414 . S
C1411 C1412 1.374 . S
C1412 H1386 0.950 1_655 S
C1412 C1408 1.385 . S
C1412 C1411 1.374 . S
C1413 C1410 1.499 . S
C1413 C1414 1.373 . S
C1413 C1415 1.389 . S
C1414 H1387 0.950 . S
C1414 C1400 1.377 . S
C1414 C1413 1.373 . S
C1415 C1399 1.377 . S
C1415 C1413 1.389 . S
C1415 C1416 1.524 . S
C1416 C1415 1.524 . S
C1416 C1417 1.397 . S
C1416 C1421 1.363 . S
C1417 H1388 0.950 . S
C1417 C1416 1.397 . S
C1417 C1418 1.334 . S
C1418 H1389 0.950 . S
C1418 C1417 1.334 . S
C1418 C1419 1.287 . S
C1419 C1418 1.287 . S
C1419 C1420 1.524 . S
C1419 H1422 0.999 . S
C1420 H1390 0.950 . S
C1420 C1419 1.524 . S
C1420 C1421 1.415 . S
C1421 H1391 0.950 . S
C1421 C1416 1.363 . S
C1421 C1420 1.415 . S
H1422 C1419 0.999 . S
H1423 C1404 0.913 . S
H1424 C1442 0.951 . S
H1425 C1444 0.951 . S
H1426 C1446 0.950 . S
H1427 C1447 0.950 . S
H1428 C1449 0.950 . S
H1429 C1452 0.950 . S
H1430 C1453 0.950 . S
H1431 C1455 0.950 . S
H1432 C1456 0.950 . S
H1433 C1457 0.951 . S
H1434 C1459 0.951 . S
H1435 C1461 0.950 . S
H1436 C1462 0.950 . S
H1437 C1464 0.950 . S
H1438 C1467 0.950 . S
H1439 C1468 0.950 . S
H1440 C1470 0.950 . S
H1441 C1471 0.950 . S
C1442 H1424 0.951 . S
C1442 C1443 1.366 . S
C1442 C1444 1.388 . S
C1443 C1442 1.366 . S
C1443 C1447 1.385 . S
C1444 H1425 0.951 . S
C1444 C1442 1.388 . S
C1444 C1445 1.366 . S
C1445 C1444 1.366 . S
C1445 C1446 1.414 . S
C1445 C1448 1.499 . S
C1446 H1426 0.950 . S
C1446 C1445 1.414 . S
C1446 C1447 1.374 . S
C1447 H1427 0.950 . S
C1447 C1443 1.385 . S
C1447 C1446 1.374 . S
C1448 C1445 1.499 . S
C1448 C1449 1.373 . S
C1448 C1450 1.389 . S
C1449 H1428 0.950 . S
C1449 C1448 1.373 . S
C1449 C1465 1.377 . S
C1450 C1448 1.389 . S
C1450 C1451 1.524 . S
C1450 C1464 1.377 . S
C1451 C1450 1.524 . S
C1451 C1452 1.397 . S
C1451 C1456 1.363 . S
C1452 H1429 0.950 . S
C1452 C1451 1.397 . S
C1452 C1453 1.334 . S
C1453 H1430 0.950 . S
C1453 C1452 1.334 . S
C1453 C1454 1.287 . S
C1454 C1453 1.287 . S
C1454 C1455 1.524 . S
C1454 H1473 0.913 . S
C1455 H1431 0.950 . S
C1455 C1454 1.524 . S
C1455 C1456 1.415 . S
C1456 H1432 0.950 . S
C1456 C1451 1.363 . S
C1456 C1455 1.415 . S
C1457 H1433 0.951 . S
C1457 C1458 1.366 . S
C1457 C1459 1.388 . S
C1458 C1457 1.366 . S
C1458 C1462 1.385 . S
C1459 H1434 0.951 . S
C1459 C1457 1.388 . S
C1459 C1460 1.366 . S
C1460 C1459 1.366 . S
C1460 C1461 1.414 . S
C1460 C1463 1.499 . S
C1461 H1435 0.950 . S
C1461 C1460 1.414 . S
C1461 C1462 1.374 . S
C1462 H1436 0.950 . S
C1462 C1458 1.385 . S
C1462 C1461 1.374 . S
C1463 C1460 1.499 . S
C1463 C1464 1.373 . S
C1463 C1465 1.389 . S
C1464 H1437 0.950 . S
C1464 C1450 1.377 . S
C1464 C1463 1.373 . S
C1465 C1449 1.377 . S
C1465 C1463 1.389 . S
C1465 C1466 1.524 . S
C1466 C1465 1.524 . S
C1466 C1467 1.397 . S
C1466 C1471 1.363 . S
C1467 H1438 0.950 . S
C1467 C1466 1.397 . S
C1467 C1468 1.334 . S
C1468 H1439 0.950 . S
C1468 C1467 1.334 . S
C1468 C1469 1.287 . S
C1469 C1468 1.287 . S
C1469 C1470 1.524 . S
C1469 H1472 0.999 . S
C1470 H1440 0.950 . S
C1470 C1469 1.524 . S
C1470 C1471 1.415 . S
C1471 H1441 0.950 . S
C1471 C1466 1.363 . S
C1471 C1470 1.415 . S
H1472 C1469 0.999 . S
H1473 C1454 0.913 . S
H1474 C1492 0.951 . S
H1475 C1494 0.951 . S
H1476 C1496 0.950 . S
H1477 C1497 0.950 . S
H1478 C1499 0.950 . S
H1479 C1502 0.950 . S
H1480 C1503 0.950 . S
H1481 C1505 0.950 . S
H1482 C1506 0.950 . S
H1483 C1507 0.951 . S
H1484 C1509 0.951 . S
H1485 C1511 0.950 . S
H1486 C1512 0.950 . S
H1487 C1514 0.950 . S
H1488 C1517 0.950 . S
H1489 C1518 0.950 . S
H1490 C1520 0.950 . S
H1491 C1521 0.950 . S
C1492 H1474 0.951 . S
C1492 C1493 1.366 . S
C1492 C1494 1.388 . S
C1493 C1492 1.366 . S
C1493 C1497 1.385 . S
C1494 H1475 0.951 . S
C1494 C1492 1.388 . S
C1494 C1495 1.366 . S
C1495 C1494 1.366 . S
C1495 C1496 1.414 . S
C1495 C1498 1.499 . S
C1496 H1476 0.950 . S
C1496 C1495 1.414 . S
C1496 C1497 1.374 . S
C1497 H1477 0.950 . S
C1497 C1493 1.385 . S
C1497 C1496 1.374 . S
C1498 C1495 1.499 . S
C1498 C1499 1.373 . S
C1498 C1500 1.389 . S
C1499 H1478 0.950 . S
C1499 C1498 1.373 . S
C1499 C1515 1.377 . S
C1500 C1498 1.389 . S
C1500 C1501 1.524 . S
C1500 C1514 1.377 . S
C1501 C1500 1.524 . S
C1501 C1502 1.397 . S
C1501 C1506 1.363 . S
C1502 H1479 0.950 . S
C1502 C1501 1.397 . S
C1502 C1503 1.334 . S
C1503 H1480 0.950 . S
C1503 C1502 1.334 . S
C1503 C1504 1.287 . S
C1504 C1503 1.287 . S
C1504 C1505 1.524 . S
C1504 H1523 0.913 . S
C1505 H1481 0.950 . S
C1505 C1504 1.524 . S
C1505 C1506 1.415 . S
C1506 H1482 0.950 . S
C1506 C1501 1.363 . S
C1506 C1505 1.415 . S
C1507 H1483 0.951 . S
C1507 C1508 1.366 . S
C1507 C1509 1.388 . S
C1508 C1507 1.366 . S
C1508 C1512 1.385 . S
C1509 H1484 0.951 . S
C1509 C1507 1.388 . S
C1509 C1510 1.366 . S
C1510 C1509 1.366 . S
C1510 C1511 1.414 . S
C1510 C1513 1.499 . S
C1511 H1485 0.950 . S
C1511 C1510 1.414 . S
C1511 C1512 1.374 . S
C1512 H1486 0.950 . S
C1512 C1508 1.385 . S
C1512 C1511 1.374 . S
C1513 C1510 1.499 . S
C1513 C1514 1.373 . S
C1513 C1515 1.389 . S
C1514 H1487 0.950 . S
C1514 C1500 1.377 . S
C1514 C1513 1.373 . S
C1515 C1499 1.377 . S
C1515 C1513 1.389 . S
C1515 C1516 1.524 . S
C1516 C1515 1.524 . S
C1516 C1517 1.397 . S
C1516 C1521 1.363 . S
C1517 H1488 0.950 . S
C1517 C1516 1.397 . S
C1517 C1518 1.334 . S
C1518 H1489 0.950 . S
C1518 C1517 1.334 . S
C1518 C1519 1.287 . S
C1519 C1518 1.287 . S
C1519 C1520 1.524 . S
C1519 H1522 0.999 . S
C1520 H1490 0.950 . S
C1520 C1519 1.524 . S
C1520 C1521 1.415 . S
C1521 H1491 0.950 . S
C1521 C1516 1.363 . S
C1521 C1520 1.415 . S
H1522 C1519 0.999 . S
H1523 C1504 0.913 . S
H1524 C1542 0.951 . S
H1525 C1544 0.951 . S
H1526 C1546 0.950 . S
H1527 C1547 0.950 . S
H1528 C1549 0.950 . S
H1529 C1552 0.950 . S
H1530 C1553 0.950 . S
H1531 C1555 0.950 . S
H1532 C1556 0.950 . S
H1533 C1557 0.951 . S
H1534 C1559 0.951 . S
H1535 C1561 0.950 . S
H1536 C1562 0.950 . S
H1537 C1564 0.950 . S
H1538 C1567 0.950 . S
H1539 C1568 0.950 . S
H1540 C1570 0.950 . S
H1541 C1571 0.950 . S
C1542 H1524 0.951 . S
C1542 C1543 1.366 . S
C1542 C1544 1.388 . S
C1543 C1542 1.366 . S
C1543 C1547 1.385 . S
C1544 H1525 0.951 . S
C1544 C1542 1.388 . S
C1544 C1545 1.366 . S
C1545 C1544 1.366 . S
C1545 C1546 1.414 . S
C1545 C1548 1.499 . S
C1546 H1526 0.950 . S
C1546 C1545 1.414 . S
C1546 C1547 1.374 . S
C1547 H1527 0.950 . S
C1547 C1543 1.385 . S
C1547 C1546 1.374 . S
C1548 C1545 1.499 . S
C1548 C1549 1.373 . S
C1548 C1550 1.389 . S
C1549 H1528 0.950 . S
C1549 C1548 1.373 . S
C1549 C1565 1.377 . S
C1550 C1548 1.389 . S
C1550 C1551 1.524 . S
C1550 C1564 1.377 . S
C1551 C1550 1.524 . S
C1551 C1552 1.397 . S
C1551 C1556 1.363 . S
C1552 H1529 0.950 . S
C1552 C1551 1.397 . S
C1552 C1553 1.334 . S
C1553 H1530 0.950 . S
C1553 C1552 1.334 . S
C1553 C1554 1.287 . S
C1554 C1553 1.287 . S
C1554 C1555 1.524 . S
C1554 H1573 0.913 . S
C1555 H1531 0.950 . S
C1555 C1554 1.524 . S
C1555 C1556 1.415 . S
C1556 H1532 0.950 . S
C1556 C1551 1.363 . S
C1556 C1555 1.415 . S
C1557 H1533 0.951 . S
C1557 C1558 1.366 . S
C1557 C1559 1.388 . S
C1558 C1557 1.366 . S
C1558 C1562 1.385 . S
C1559 H1534 0.951 . S
C1559 C1557 1.388 . S
C1559 C1560 1.366 . S
C1560 C1559 1.366 . S
C1560 C1561 1.414 . S
C1560 C1563 1.499 . S
C1561 H1535 0.950 . S
C1561 C1560 1.414 . S
C1561 C1562 1.374 . S
C1562 H1536 0.950 . S
C1562 C1558 1.385 . S
C1562 C1561 1.374 . S
C1563 C1560 1.499 . S
C1563 C1564 1.373 . S
C1563 C1565 1.389 . S
C1564 H1537 0.950 . S
C1564 C1550 1.377 . S
C1564 C1563 1.373 . S
C1565 C1549 1.377 . S
C1565 C1563 1.389 . S
C1565 C1566 1.524 . S
C1566 C1565 1.524 . S
C1566 C1567 1.397 . S
C1566 C1571 1.363 . S
C1567 H1538 0.950 . S
C1567 C1566 1.397 . S
C1567 C1568 1.334 . S
C1568 H1539 0.950 . S
C1568 C1567 1.334 . S
C1568 C1569 1.287 . S
C1569 C1568 1.287 . S
C1569 C1570 1.524 . S
C1569 H1572 0.999 . S
C1570 H1540 0.950 . S
C1570 C1569 1.524 . S
C1570 C1571 1.415 . S
C1571 H1541 0.950 . S
C1571 C1566 1.363 . S
C1571 C1570 1.415 . S
H1572 C1569 0.999 . S
H1573 C1554 0.913 . S
H1574 C1592 0.951 . S
H1575 C1594 0.951 . S
H1576 C1596 0.950 . S
H1577 C1597 0.950 . S
H1578 C1599 0.950 . S
H1579 C1602 0.950 . S
H1580 C1603 0.950 . S
H1581 C1605 0.950 . S
H1582 C1606 0.950 . S
H1583 C1607 0.951 . S
H1584 C1609 0.951 . S
H1585 C1611 0.950 . S
H1586 C1612 0.950 . S
H1587 C1614 0.950 . S
H1588 C1617 0.950 . S
H1589 C1618 0.950 . S
H1590 C1620 0.950 . S
H1591 C1621 0.950 . S
C1592 H1574 0.951 . S
C1592 C1593 1.366 . S
C1592 C1594 1.388 . S
C1593 C1592 1.366 . S
C1593 C1597 1.385 . S
C1594 H1575 0.951 . S
C1594 C1592 1.388 . S
C1594 C1595 1.366 . S
C1595 C1594 1.366 . S
C1595 C1596 1.414 . S
C1595 C1598 1.499 . S
C1596 H1576 0.950 . S
C1596 C1595 1.414 . S
C1596 C1597 1.374 . S
C1597 H1577 0.950 . S
C1597 C1593 1.385 . S
C1597 C1596 1.374 . S
C1598 C1595 1.499 . S
C1598 C1599 1.373 . S
C1598 C1600 1.389 . S
C1599 H1578 0.950 . S
C1599 C1598 1.373 . S
C1599 C1615 1.377 . S
C1600 C1598 1.389 . S
C1600 C1601 1.524 . S
C1600 C1614 1.377 . S
C1601 C1600 1.524 . S
C1601 C1602 1.397 . S
C1601 C1606 1.363 . S
C1602 H1579 0.950 . S
C1602 C1601 1.397 . S
C1602 C1603 1.334 . S
C1603 H1580 0.950 . S
C1603 C1602 1.334 . S
C1603 C1604 1.287 . S
C1604 C1603 1.287 . S
C1604 C1605 1.524 . S
C1604 H1623 0.913 . S
C1605 H1581 0.950 . S
C1605 C1604 1.524 . S
C1605 C1606 1.415 . S
C1606 H1582 0.950 . S
C1606 C1601 1.363 . S
C1606 C1605 1.415 . S
C1607 H1583 0.951 . S
C1607 C1608 1.366 . S
C1607 C1609 1.388 . S
C1608 C1607 1.366 . S
C1608 C1612 1.385 . S
C1609 H1584 0.951 . S
C1609 C1607 1.388 . S
C1609 C1610 1.366 . S
C1610 C1609 1.366 . S
C1610 C1611 1.414 . S
C1610 C1613 1.499 . S
C1611 H1585 0.950 . S
C1611 C1610 1.414 . S
C1611 C1612 1.374 . S
C1612 H1586 0.950 . S
C1612 C1608 1.385 . S
C1612 C1611 1.374 . S
C1613 C1610 1.499 . S
C1613 C1614 1.373 . S
C1613 C1615 1.389 . S
C1614 H1587 0.950 . S
C1614 C1600 1.377 . S
C1614 C1613 1.373 . S
C1615 C1599 1.377 . S
C1615 C1613 1.389 . S
C1615 C1616 1.524 . S
C1616 C1615 1.524 . S
C1616 C1617 1.397 . S
C1616 C1621 1.363 . S
C1617 H1588 0.950 . S
C1617 C1616 1.397 . S
C1617 C1618 1.334 . S
C1618 H1589 0.950 . S
C1618 C1617 1.334 . S
C1618 C1619 1.287 . S
C1619 C1618 1.287 . S
C1619 C1620 1.524 . S
C1619 H1622 0.999 . S
C1620 H1590 0.950 . S
C1620 C1619 1.524 . S
C1620 C1621 1.415 . S
C1621 H1591 0.950 . S
C1621 C1616 1.363 . S
C1621 C1620 1.415 . S
H1622 C1619 0.999 . S
H1623 C1604 0.913 . S
C443 C71 1.681 . S
C458 C162 1.661 . S
C508 C246 1.631 . S
C493 C81 1.648 . S
C558 C239 1.672 . S
C543 C49 1.671 . S
C593 C59 1.640 . S
C608 C155 1.641 . S
C658 C319 1.663 . S
C643 C27 1.678 . S
C708 C403 1.706 . S
C693 C38 1.723 . S
C743 C5 1.668 . S
C758 C396 1.671 . S
C793 C16 1.715 . S
C808 C312 1.720 . S
C858 C146 1.419 . S
C843 C15 1.573 . S
C908 C230 1.432 . S
C893 C4 1.587 . S
C958 C241 1.390 . S
C943 C37 1.586 . S
C1008 C157 1.399 . S
C993 C26 1.598 . S
C1058 C325 1.483 . S
C1043 C60 1.628 . S
C1093 C48 1.663 . S
C1108 C409 1.500 . S
C1158 C398 1.448 . S
C1143 C82 1.641 . S
C1193 C70 1.674 . S
C1208 C314 1.461 . S
C1258 C144 1.512 . S
C1243 C10 1.503 . S
C1308 C228 1.571 . S
C1293 C21 1.563 . S
C1343 C32 1.498 . S
C1358 C235 1.480 . S
C1408 C151 1.538 . S
C1393 C43 1.557 . S
C1458 C323 1.623 . S
C1443 C54 1.608 . S
C1493 C65 1.564 . S
C1508 C407 1.562 . S
C1543 C76 1.607 . S
C1558 C414 1.595 . S
C1593 C87 1.557 . S
C1608 C330 1.530 . S
