# Generated by pormake.
# Topology zzz, (3,6)-cn, num edge types: 1
# Building blocks:
#     Node 0, Type 0, BuildingBlock: VETTIZ_charged_linker_0, # of connection points: 3
#     Node 1, Type 0, BuildingBlock: VETTIZ_charged_linker_0, # of connection points: 3
#     Node 2, Type 0, BuildingBlock: VETTIZ_charged_linker_0, # of connection points: 3
#     Node 3, Type 0, BuildingBlock: VETTIZ_charged_linker_0, # of connection points: 3
#     Node 4, Type 0, BuildingBlock: VETTIZ_charged_linker_0, # of connection points: 3
#     Node 5, Type 0, BuildingBlock: VETTIZ_charged_linker_0, # of connection points: 3
#     Node 6, Type 0, BuildingBlock: VETTIZ_charged_linker_0, # of connection points: 3
#     Node 7, Type 0, BuildingBlock: VETTIZ_charged_linker_0, # of connection points: 3
#     Node 8, Type 1, BuildingBlock: VOLQOD_clean_sbu_1, # of connection points: 6
#     Node 9, Type 1, BuildingBlock: VOLQOD_clean_sbu_1, # of connection points: 6
#     Node 10, Type 1, BuildingBlock: VOLQOD_clean_sbu_1, # of connection points: 6
#     Node 11, Type 1, BuildingBlock: VOLQOD_clean_sbu_1, # of connection points: 6
#     Edge 12, Type (0, 1), BuildingBlock: CIFDUS_clean_linker_0, # of connection points: 2
#     Edge 13, Type (0, 1), BuildingBlock: CIFDUS_clean_linker_0, # of connection points: 2
#     Edge 14, Type (0, 1), BuildingBlock: CIFDUS_clean_linker_0, # of connection points: 2
#     Edge 15, Type (0, 1), BuildingBlock: CIFDUS_clean_linker_0, # of connection points: 2
#     Edge 16, Type (0, 1), BuildingBlock: CIFDUS_clean_linker_0, # of connection points: 2
#     Edge 17, Type (0, 1), BuildingBlock: CIFDUS_clean_linker_0, # of connection points: 2
#     Edge 18, Type (0, 1), BuildingBlock: CIFDUS_clean_linker_0, # of connection points: 2
#     Edge 19, Type (0, 1), BuildingBlock: CIFDUS_clean_linker_0, # of connection points: 2
#     Edge 20, Type (0, 1), BuildingBlock: CIFDUS_clean_linker_0, # of connection points: 2
#     Edge 21, Type (0, 1), BuildingBlock: CIFDUS_clean_linker_0, # of connection points: 2
#     Edge 22, Type (0, 1), BuildingBlock: CIFDUS_clean_linker_0, # of connection points: 2
#     Edge 23, Type (0, 1), BuildingBlock: CIFDUS_clean_linker_0, # of connection points: 2
#     Edge 24, Type (0, 1), BuildingBlock: CIFDUS_clean_linker_0, # of connection points: 2
#     Edge 25, Type (0, 1), BuildingBlock: CIFDUS_clean_linker_0, # of connection points: 2
#     Edge 26, Type (0, 1), BuildingBlock: CIFDUS_clean_linker_0, # of connection points: 2
#     Edge 27, Type (0, 1), BuildingBlock: CIFDUS_clean_linker_0, # of connection points: 2
#     Edge 28, Type (0, 1), BuildingBlock: CIFDUS_clean_linker_0, # of connection points: 2
#     Edge 29, Type (0, 1), BuildingBlock: CIFDUS_clean_linker_0, # of connection points: 2
#     Edge 30, Type (0, 1), BuildingBlock: CIFDUS_clean_linker_0, # of connection points: 2
#     Edge 31, Type (0, 1), BuildingBlock: CIFDUS_clean_linker_0, # of connection points: 2
#     Edge 32, Type (0, 1), BuildingBlock: CIFDUS_clean_linker_0, # of connection points: 2
#     Edge 33, Type (0, 1), BuildingBlock: CIFDUS_clean_linker_0, # of connection points: 2
#     Edge 34, Type (0, 1), BuildingBlock: CIFDUS_clean_linker_0, # of connection points: 2
#     Edge 35, Type (0, 1), BuildingBlock: CIFDUS_clean_linker_0, # of connection points: 2
# Relax obj value: 0.367
# Max RMSD: 0.260
# Mean RMSD: 0.211
data_MOF--net-zzz--node1-VOLQOD_clean_sbu_1--node2-VETTIZ_charged_linker_0--edge1-CIFDUS_clean_linker_0
_symmetry_space_group_name_H-M    P1
_symmetry_Int_Tables_number       1
_symmetry_cell_setting            triclinic
loop_
_symmetry_equiv_pos_as_xyz
'x, y, z'
_cell_length_a     51.281397
_cell_length_b     50.619869
_cell_length_c     20.362548
_cell_angle_alpha  90.043831
_cell_angle_beta   90.100448
_cell_angle_gamma 92.391626
loop_
_atom_site_label
_atom_site_type_symbol
_atom_site_fract_x
_atom_site_fract_y
_atom_site_fract_z
_atom_type_partial_charge
C0 C 0.83535 0.52337 0.32554 0.0
C1 C 0.86193 0.52052 0.34238 0.0
C2 C 0.88039 0.51819 0.29228 0.0
C3 C 0.84683 0.52142 0.20973 0.0
C4 C 0.82821 0.52373 0.25813 0.0
C5 C 0.80116 0.52586 0.22791 0.0
H6 H 0.72961 0.53525 0.9425 0.0
C7 C 0.83407 0.52265 0.14506 0.0
C8 C 0.8072 0.52558 0.1541 0.0
H9 H 0.69869 0.5302 0.13913 0.0
H10 H 0.7429 0.52863 0.18349 0.0
H11 H 0.7809 0.57399 0.97279 0.0
H12 H 0.7669 0.48958 0.96237 0.0
H13 H 0.79728 0.49659 0.92569 0.0
H14 H 0.76843 0.50994 0.89026 0.0
H15 H 0.7741 0.55684 0.89706 0.0
H16 H 0.80686 0.56072 0.92899 0.0
C17 C 0.78982 0.55218 0.24972 0.0
C18 C 0.78432 0.50133 0.24885 0.0
C19 C 0.89039 0.51127 0.94548 0.0
C20 C 0.88617 0.51197 0.87731 0.0
C21 C 0.86116 0.51812 0.85417 0.0
C22 C 0.84084 0.523 0.89855 0.0
C23 C 0.84559 0.5217 0.96672 0.0
C24 C 0.87027 0.5165 0.98848 0.0
C25 C 0.87263 0.51659 0.06163 0.0
C26 C 0.84483 0.52154 0.08121 0.0
C27 C 0.829 0.52436 0.02588 0.0
C28 C 0.89177 0.53999 0.08101 0.0
C29 C 0.88105 0.48877 0.0835 0.0
C30 C 0.73232 0.53436 0.99524 0.0
C31 C 0.71075 0.53337 0.03736 0.0
C32 C 0.71509 0.53119 0.10568 0.0
C33 C 0.7407 0.53016 0.13124 0.0
C34 C 0.76211 0.53066 0.0879 0.0
C35 C 0.75746 0.53259 0.02102 0.0
C36 C 0.78169 0.53059 0.98083 0.0
C37 C 0.80191 0.52757 0.034 0.0
C38 C 0.79072 0.52789 0.09743 0.0
C39 C 0.7862 0.55676 0.94234 0.0
C40 C 0.77856 0.50554 0.937 0.0
H41 H 0.88841 0.51647 0.19188 0.0
H42 H 0.82073 0.52506 0.36342 0.0
H43 H 0.7956 0.48312 0.24422 0.0
H44 H 0.76688 0.49804 0.21775 0.0
H45 H 0.77806 0.50305 0.30084 0.0
H46 H 0.80423 0.56885 0.24115 0.0
H47 H 0.78502 0.55172 0.30291 0.0
H48 H 0.77206 0.5568 0.22215 0.0
H49 H 0.90885 0.50581 0.96615 0.0
H50 H 0.85723 0.51899 0.80198 0.0
H51 H 0.82216 0.52727 0.87813 0.0
H52 H 0.89264 0.55571 0.04278 0.0
H53 H 0.91194 0.53327 0.08787 0.0
H54 H 0.88563 0.55035 0.12596 0.0
H55 H 0.87276 0.47308 0.0503 0.0
H56 H 0.87378 0.48301 0.13272 0.0
H57 H 0.90262 0.48751 0.08275 0.0
H58 H 0.90082 0.51599 0.30415 0.0
C59 C 0.87308 0.51862 0.22669 0.0
C60 C 0.98059 0.82099 0.99506 0.0
C61 C 0.975 0.84584 0.02216 0.0
C62 C 0.95598 0.84677 0.07224 0.0
C63 C 0.9563 0.79956 0.08236 0.0
C64 C 0.97089 0.79798 0.02611 0.0
C65 C 0.97704 0.76982 0.01086 0.0
H66 H 1.00175 0.64904 0.11166 0.0
C67 C 0.95718 0.77437 0.11714 0.0
C68 C 0.96613 0.75587 0.07242 0.0
H69 H 0.95965 0.66768 0.93371 0.0
H70 H 0.9521 0.71138 0.97691 0.0
H71 H 0.03292 0.7145 0.13159 0.0
H72 H 0.96045 0.68174 0.2156 0.0
H73 H 0.98455 0.69413 0.27289 0.0
H74 H 0.99048 0.66497 0.22621 0.0
H75 H 0.03302 0.68535 0.18214 0.0
H76 H 0.03029 0.71751 0.21804 0.0
C77 C 0.00683 0.76706 0.00499 0.0
C78 C 0.96311 0.76149 0.94656 0.0
C79 C 0.97344 0.788 0.35837 0.0
C80 C 0.99432 0.78046 0.3972 0.0
C81 C 0.00791 0.75791 0.37852 0.0
C82 C 1.00115 0.74395 0.32014 0.0
C83 C 0.98201 0.75385 0.27811 0.0
C84 C 0.96934 0.77626 0.2971 0.0
C85 C 0.95681 0.78991 0.24087 0.0
C86 C 0.96193 0.77079 0.18534 0.0
C87 C 0.97591 0.74899 0.20755 0.0
C88 C 0.97092 0.81767 0.23156 0.0
C89 C 0.92733 0.79135 0.25476 0.0
C90 C 0.99205 0.66292 0.08054 0.0
C91 C 0.98206 0.65499 0.0181 0.0
C92 C 0.96823 0.67327 0.98062 0.0
C93 C 0.96496 0.69888 0.00318 0.0
C94 C 0.97683 0.70692 0.06172 0.0
C95 C 0.98844 0.68909 0.10235 0.0
C96 C 0.99436 0.70167 0.16926 0.0
C97 C 0.98163 0.72847 0.16203 0.0
C98 C 0.97414 0.73154 0.09665 0.0
C99 C 0.02426 0.70493 0.17612 0.0
C100 C 0.98179 0.68469 0.22427 0.0
H101 H 0.93165 0.82463 0.13926 0.0
H102 H 0.99334 0.81947 0.95307 0.0
H103 H 0.96534 0.77733 0.90894 0.0
H104 H 0.94189 0.75748 0.95484 0.0
H105 H 0.97189 0.74391 0.9246 0.0
H106 H 0.01694 0.77435 0.05027 0.0
H107 H 0.01481 0.77845 0.96242 0.0
H108 H 0.01152 0.74604 0.99761 0.0
H109 H 0.96344 0.8059 0.3698 0.0
H110 H 0.02435 0.75183 0.40746 0.0
H111 H 0.01214 0.72714 0.30741 0.0
H112 H 0.98331 0.82417 0.27377 0.0
H113 H 0.95686 0.83357 0.2261 0.0
H114 H 0.98458 0.81789 0.18931 0.0
H115 H 0.9191 0.77193 0.27226 0.0
H116 H 0.91621 0.79629 0.21017 0.0
H117 H 0.92372 0.80639 0.29312 0.0
H118 H 0.95016 0.86531 0.09283 0.0
C119 C 0.94585 0.82345 0.10076 0.0
C120 C 0.82525 0.98821 0.04785 0.0
C121 C 0.83067 0.98916 0.9796 0.0
C122 C 0.80966 0.98951 0.93504 0.0
C123 C 0.77869 0.98728 0.02434 0.0
C124 C 0.79894 0.9868 0.06918 0.0
C125 C 0.78852 0.98438 0.13898 0.0
H126 H 0.67989 0.95165 0.32364 0.0
C127 C 0.75382 0.98338 0.05942 0.0
C128 C 0.75918 0.98011 0.12681 0.0
H129 H 0.75246 0.98437 0.40224 0.0
H130 H 0.77134 0.98445 0.2914 0.0
H131 H 0.67381 0.99167 0.25184 0.0
H132 H 0.69835 0.91639 0.19885 0.0
H133 H 0.6781 0.92621 0.1341 0.0
H134 H 0.66584 0.92601 0.21726 0.0
H135 H 0.65194 0.97034 0.20725 0.0
H136 H 0.67233 0.99557 0.16717 0.0
C137 C 0.79487 0.01079 0.1745 0.0
C138 C 0.80025 0.96059 0.17363 0.0
C139 C 0.66695 1.00362 0.95752 0.0
C140 C 0.64141 1.0011 0.98407 0.0
C141 C 0.63682 0.98277 0.03544 0.0
C142 C 0.65727 0.96957 0.06367 0.0
C143 C 0.68286 0.97619 0.04446 0.0
C144 C 0.68747 0.99114 0.98911 0.0
C145 C 0.71623 0.99287 0.97257 0.0
C146 C 0.72781 0.98149 0.03538 0.0
C147 C 0.70792 0.97219 0.077 0.0
C148 C 0.72517 0.02209 0.96209 0.0
C149 C 0.72068 0.9752 0.91147 0.0
C150 C 0.70031 0.95768 0.31878 0.0
C151 C 0.71466 0.96733 0.37268 0.0
C152 C 0.74077 0.97666 0.36168 0.0
C153 C 0.75157 0.97704 0.29735 0.0
C154 C 0.7357 0.96932 0.24335 0.0
C155 C 0.71034 0.96037 0.25573 0.0
C156 C 0.69347 0.95953 0.19621 0.0
C157 C 0.71306 0.96776 0.14418 0.0
C158 C 0.73819 0.97285 0.17058 0.0
C159 C 0.67173 0.98007 0.20559 0.0
C160 C 0.68316 0.93059 0.18593 0.0
H161 H 0.76881 0.98881 0.92076 0.0
H162 H 0.84102 0.98791 0.08321 0.0
H163 H 0.79659 0.94228 0.14426 0.0
H164 H 0.79163 0.95719 0.22274 0.0
H165 H 0.82168 0.96378 0.17991 0.0
H166 H 0.78988 0.02778 0.14291 0.0
H167 H 0.81601 0.01285 0.18651 0.0
H168 H 0.7836 0.01282 0.22008 0.0
H169 H 0.67112 0.01556 0.91453 0.0
H170 H 0.61776 0.97929 0.05697 0.0
H171 H 0.65251 0.95582 0.10207 0.0
H172 H 0.71967 0.03429 0.00496 0.0
H173 H 0.71597 0.03024 0.91746 0.0
H174 H 0.74654 0.02454 0.956 0.0
H175 H 0.70241 0.96481 0.89398 0.0
H176 H 0.73444 0.95939 0.92233 0.0
H177 H 0.72835 0.98701 0.86923 0.0
H178 H 0.81325 0.99052 0.88264 0.0
C179 C 0.78387 0.98855 0.95699 0.0
C180 C 0.57792 0.72458 0.32113 0.0
C181 C 0.58335 0.69715 0.31921 0.0
C182 C 0.59068 0.68629 0.25828 0.0
C183 C 0.57536 0.72424 0.20283 0.0
C184 C 0.57512 0.73816 0.26062 0.0
C185 C 0.57303 0.76755 0.24516 0.0
H186 H 0.53359 0.85418 0.00399 0.0
C187 C 0.56541 0.74032 0.15033 0.0
C188 C 0.56534 0.76666 0.17188 0.0
H189 H 0.57837 0.87687 0.17572 0.0
H190 H 0.57662 0.83059 0.21314 0.0
H191 H 0.56353 0.80475 0.96304 0.0
H192 H 0.49496 0.81442 0.07961 0.0
H193 H 0.49053 0.78296 0.04413 0.0
H194 H 0.49315 0.81182 0.992 0.0
H195 H 0.53286 0.81501 0.93124 0.0
H196 H 0.53978 0.78062 0.93798 0.0
C197 C 0.60041 0.78062 0.25597 0.0
C198 C 0.55214 0.78 0.2879 0.0
C199 C 0.50799 0.68971 0.98707 0.0
C200 C 0.4913 0.69752 0.93654 0.0
C201 C 0.48856 0.72469 0.9249 0.0
C202 C 0.5026 0.74371 0.96245 0.0
C203 C 0.51969 0.73546 0.01187 0.0
C204 C 0.52203 0.70883 0.02361 0.0
C205 C 0.54131 0.70344 0.07709 0.0
C206 C 0.54983 0.73163 0.09651 0.0
C207 C 0.53693 0.75006 0.05882 0.0
C208 C 0.56395 0.6876 0.04823 0.0
C209 C 0.52658 0.68852 0.13301 0.0
C210 C 0.54341 0.84918 0.04922 0.0
C211 C 0.55659 0.86882 0.08611 0.0
C212 C 0.56865 0.86179 0.14566 0.0
C213 C 0.568 0.83506 0.16674 0.0
C214 C 0.55569 0.8154 0.12712 0.0
C215 C 0.54336 0.82293 0.06991 0.0
C216 C 0.53096 0.80014 0.03316 0.0
C217 C 0.5403 0.77732 0.07319 0.0
C218 C 0.55427 0.78594 0.12964 0.0
C219 C 0.54214 0.80004 0.96243 0.0
C220 C 0.50087 0.80237 0.03681 0.0
H221 H 0.59177 0.6908 0.15435 0.0
H222 H 0.57489 0.73459 0.36727 0.0
H223 H 0.53296 0.76926 0.28116 0.0
H224 H 0.54984 0.80099 0.27453 0.0
H225 H 0.55755 0.77918 0.34069 0.0
H226 H 0.61536 0.76988 0.22822 0.0
H227 H 0.60574 0.7802 0.30889 0.0
H228 H 0.60194 0.80126 0.23942 0.0
H229 H 0.51124 0.669 0.99584 0.0
H230 H 0.476 0.73121 0.88583 0.0
H231 H 0.50008 0.76406 0.95043 0.0
H232 H 0.55999 0.68051 0.99736 0.0
H233 H 0.56741 0.66961 0.07763 0.0
H234 H 0.58239 0.69989 0.04568 0.0
H235 H 0.51085 0.70065 0.1531 0.0
H236 H 0.53954 0.68343 0.17397 0.0
H237 H 0.51753 0.66957 0.11482 0.0
H238 H 0.59806 0.66658 0.25525 0.0
C239 C 0.58656 0.69974 0.19995 0.0
C240 C 0.33205 0.5113 0.31739 0.0
C241 C 0.33999 0.51953 0.38104 0.0
C242 C 0.32517 0.538 0.4146 0.0
C243 C 0.2947 0.53935 0.32406 0.0
C244 C 0.30917 0.52146 0.28986 0.0
C245 C 0.29645 0.51439 0.22442 0.0
H246 H 0.19845 0.53842 0.00539 0.0
C247 C 0.2723 0.54651 0.28323 0.0
C248 C 0.27339 0.53261 0.22353 0.0
H249 H 0.2522 0.47536 0.99486 0.0
H250 H 0.27454 0.4922 0.0934 0.0
H251 H 0.18262 0.52906 0.1292 0.0
H252 H 0.23993 0.58685 0.06759 0.0
H253 H 0.22019 0.60166 0.127 0.0
H254 H 0.20534 0.58741 0.05401 0.0
H255 H 0.17421 0.56268 0.11887 0.0
H256 H 0.18433 0.55009 0.19732 0.0
C257 C 0.28729 0.48491 0.22673 0.0
C258 C 0.31598 0.52097 0.16871 0.0
C259 C 0.19914 0.59744 0.38246 0.0
C260 C 0.17533 0.60571 0.35622 0.0
C261 C 0.17278 0.60725 0.28729 0.0
C262 C 0.19185 0.59728 0.24593 0.0
C263 C 0.21377 0.58582 0.27364 0.0
C264 C 0.21808 0.58774 0.34032 0.0
C265 C 0.24341 0.57599 0.36023 0.0
C266 C 0.25178 0.56383 0.29557 0.0
C267 C 0.23409 0.56933 0.24551 0.0
C268 C 0.23762 0.55462 0.41334 0.0
C269 C 0.26247 0.59888 0.38285 0.0
C270 C 0.21554 0.52871 0.02317 0.0
C271 C 0.22399 0.50602 0.99184 0.0
C272 C 0.24557 0.49314 0.01802 0.0
C273 C 0.25824 0.50273 0.07552 0.0
C274 C 0.24852 0.52476 0.10846 0.0
C275 C 0.2274 0.53719 0.08181 0.0
C276 C 0.21697 0.55776 0.12647 0.0
C277 C 0.23524 0.55582 0.18464 0.0
C278 C 0.25427 0.53699 0.1738 0.0
C279 C 0.1881 0.54974 0.14384 0.0
C280 C 0.22057 0.58493 0.09213 0.0
H281 H 0.29243 0.56178 0.41519 0.0
H282 H 0.34301 0.49698 0.29064 0.0
H283 H 0.3243 0.54149 0.17432 0.0
H284 H 0.30678 0.51979 0.11972 0.0
H285 H 0.33237 0.50729 0.16964 0.0
H286 H 0.28005 0.47938 0.27654 0.0
H287 H 0.30355 0.47192 0.21465 0.0
H288 H 0.27072 0.48027 0.1935 0.0
H289 H 0.2022 0.59632 0.43492 0.0
H290 H 0.15532 0.61467 0.26524 0.0
H291 H 0.18818 0.59767 0.19413 0.0
H292 H 0.22033 0.54185 0.39913 0.0
H293 H 0.23345 0.56382 0.46151 0.0
H294 H 0.25373 0.54113 0.42038 0.0
H295 H 0.25597 0.61856 0.36679 0.0
H296 H 0.28217 0.59731 0.36113 0.0
H297 H 0.26427 0.59955 0.4372 0.0
H298 H 0.33098 0.54482 0.46315 0.0
C299 C 0.30282 0.54801 0.38648 0.0
C300 C 0.07112 0.17037 0.39027 0.0
C301 C 0.07199 0.14278 0.38234 0.0
C302 C 0.08907 0.13264 0.33511 0.0
C303 C 0.09697 0.17647 0.29223 0.0
C304 C 0.08432 0.18691 0.34518 0.0
C305 C 0.08492 0.21659 0.34279 0.0
H306 H 0.06291 0.32275 0.1901 0.0
C307 C 0.10152 0.19742 0.24357 0.0
C308 C 0.09722 0.22136 0.27497 0.0
H309 H 0.10602 0.31781 0.37305 0.0
H310 H 0.11764 0.27295 0.34438 0.0
H311 H 0.11327 0.28674 0.11038 0.0
H312 H 0.03637 0.25893 0.17732 0.0
H313 H 0.04324 0.2516 0.09376 0.0
H314 H 0.03983 0.28534 0.11837 0.0
H315 H 0.08427 0.30118 0.07908 0.0
H316 H 0.09406 0.26961 0.0499 0.0
C317 C 0.10175 0.2274 0.40054 0.0
C318 C 0.05686 0.22653 0.34627 0.0
C319 C 0.08748 0.16617 0.01088 0.0
C320 C 0.0757 0.17667 0.95527 0.0
C321 C 0.06853 0.20337 0.95709 0.0
C322 C 0.07328 0.21911 0.01385 0.0
C323 C 0.08452 0.20775 0.06981 0.0
C324 C 0.09088 0.18146 0.06742 0.0
C325 C 0.09905 0.17082 0.13237 0.0
C326 C 0.09818 0.19551 0.17441 0.0
C327 C 0.09001 0.21746 0.13778 0.0
C328 C 0.1272 0.16133 0.12636 0.0
C329 C 0.07883 0.14851 0.1534 0.0
C330 C 0.07402 0.31174 0.22519 0.0
C331 C 0.08237 0.32341 0.28566 0.0
C332 C 0.09842 0.30909 0.32794 0.0
C333 C 0.10406 0.28304 0.31389 0.0
C334 C 0.09272 0.27099 0.25892 0.0
C335 C 0.08048 0.28536 0.21176 0.0
C336 C 0.07682 0.26889 0.14922 0.0
C337 C 0.08798 0.24242 0.17022 0.0
C338 C 0.09499 0.24417 0.23649 0.0
C339 C 0.09288 0.28228 0.09377 0.0
C340 C 0.04746 0.26602 0.13339 0.0
H341 H 0.11465 0.14132 0.25474 0.0
H342 H 0.0592 0.17885 0.42795 0.0
H343 H 0.04466 0.21791 0.30578 0.0
H344 H 0.05685 0.24838 0.34229 0.0
H345 H 0.04751 0.22112 0.3938 0.0
H346 H 0.0984 0.21533 0.44557 0.0
H347 H 0.09647 0.24765 0.41447 0.0
H348 H 0.12289 0.22723 0.38859 0.0
H349 H 0.09225 0.14552 0.01245 0.0
H350 H 0.05908 0.21192 0.91504 0.0
H351 H 0.06733 0.23917 0.01305 0.0
H352 H 0.13973 0.17598 0.09888 0.0
H353 H 0.12744 0.14214 0.09985 0.0
H354 H 0.13657 0.15904 0.17484 0.0
H355 H 0.06607 0.1413 0.11248 0.0
H356 H 0.06529 0.15541 0.19166 0.0
H357 H 0.08846 0.13064 0.17101 0.0
H358 H 0.09165 0.11157 0.33106 0.0
C359 C 0.10195 0.14957 0.29047 0.0
C360 C 0.32511 0.00518 0.01883 0.0
C361 C 0.34817 0.99826 0.9856 0.0
C362 C 0.36174 0.97646 0.00782 0.0
C363 C 0.33197 0.97037 0.09853 0.0
C364 C 0.31703 0.99037 0.075 0.0
C365 C 0.29239 0.99251 0.11612 0.0
H366 H 0.23288 0.96145 0.40922 0.0
C367 C 0.32065 0.9603 0.16033 0.0
C368 C 0.29698 0.9726 0.17145 0.0
H369 H 0.19872 1.00372 0.24741 0.0
H370 H 0.23808 0.99874 0.18446 0.0
H371 H 0.24816 0.91543 0.32399 0.0
H372 H 0.29321 0.98359 0.39276 0.0
H373 H 0.31108 0.95524 0.40749 0.0
H374 H 0.27978 0.9581 0.44556 0.0
H375 H 0.26156 0.91677 0.40539 0.0
H376 H 0.27989 0.90477 0.33657 0.0
C377 C 0.26882 0.98379 0.07286 0.0
C378 C 0.2909 0.02098 0.14223 0.0
C379 C 0.37994 0.91033 0.30946 0.0
C380 C 0.37799 0.90195 0.37521 0.0
C381 C 0.35301 0.90114 0.40477 0.0
C382 C 0.33153 0.9117 0.37268 0.0
C383 C 0.33483 0.92278 0.30979 0.0
C384 C 0.35834 0.92055 0.27812 0.0
C385 C 0.35842 0.93246 0.21081 0.0
C386 C 0.33149 0.94391 0.2088 0.0
C387 C 0.31789 0.93848 0.26705 0.0
C388 C 0.36113 0.90967 0.16034 0.0
C389 C 0.38068 0.95425 0.20851 0.0
C390 C 0.23297 0.96928 0.35993 0.0
C391 C 0.21176 0.98297 0.33474 0.0
C392 C 0.2144 0.99341 0.27013 0.0
C393 C 0.23725 0.99018 0.23262 0.0
C394 C 0.25768 0.97571 0.25859 0.0
C395 C 0.25492 0.96524 0.321 0.0
C396 C 0.27715 0.94853 0.33998 0.0
C397 C 0.29372 0.95029 0.27859 0.0
C398 C 0.28286 0.96693 0.231 0.0
C399 C 0.2663 0.9199 0.35268 0.0
C400 C 0.2911 0.96181 0.39978 0.0
H401 H 0.36548 0.94662 0.07781 0.0
H402 H 0.31387 0.02142 1.00156 0.0
H403 H 0.30927 0.02705 0.16825 0.0
H404 H 0.27474 0.02303 0.17735 0.0
H405 H 0.28806 0.03506 0.10125 0.0
H406 H 0.27336 0.96618 0.04292 0.0
H407 H 0.26365 0.99985 0.03863 0.0
H408 H 0.25149 0.97777 0.10198 0.0
H409 H 0.39838 0.91121 0.28382 0.0
H410 H 0.35018 0.89357 0.45403 0.0
H411 H 0.31348 0.91184 0.39925 0.0
H412 H 0.35667 0.88986 0.18229 0.0
H413 H 0.38125 0.90938 0.14031 0.0
H414 H 0.34707 0.91101 0.11909 0.0
H415 H 0.38131 0.96588 0.25493 0.0
H416 H 0.37844 0.96896 0.16942 0.0
H417 H 0.39999 0.94543 0.20217 0.0
H418 H 0.37934 0.97066 0.98314 0.0
C419 C 0.35371 0.96249 0.06327 0.0
C420 C 0.48773 0.31926 0.05415 0.0
C421 C 0.48193 0.34581 0.03951 0.0
C422 C 0.46974 0.36082 0.08791 0.0
C423 C 0.47165 0.32484 0.16537 0.0
C424 C 0.48184 0.30897 0.11745 0.0
C425 C 0.48492 0.28102 0.14317 0.0
H426 H 0.47804 0.19959 0.41413 0.0
C427 C 0.46989 0.30996 0.22739 0.0
C428 C 0.47703 0.28382 0.21536 0.0
H429 H 0.49432 0.17473 0.21643 0.0
H430 H 0.49158 0.22055 0.17823 0.0
H431 H 0.51486 0.2483 0.41177 0.0
H432 H 0.43252 0.2368 0.38261 0.0
H433 H 0.43702 0.26501 0.43254 0.0
H434 H 0.44865 0.23386 0.46044 0.0
H435 H 0.49268 0.24784 0.47955 0.0
H436 H 0.50234 0.27819 0.43791 0.0
C437 C 0.51363 0.27366 0.13601 0.0
C438 C 0.46576 0.26228 0.10532 0.0
C439 C 0.46154 0.36182 0.4384 0.0
C440 C 0.46623 0.35493 0.50402 0.0
C441 C 0.46658 0.32809 0.52139 0.0
C442 C 0.4644 0.30844 0.473 0.0
C443 C 0.46269 0.31581 0.40647 0.0
C444 C 0.46043 0.34207 0.39034 0.0
C445 C 0.46082 0.34657 0.31735 0.0
C446 C 0.46502 0.31874 0.29232 0.0
C447 C 0.46593 0.30095 0.34461 0.0
C448 C 0.48432 0.36589 0.30166 0.0
C449 C 0.43383 0.35665 0.2966 0.0
C450 C 0.4808 0.20384 0.36236 0.0
C451 C 0.48583 0.18356 0.31817 0.0
C452 C 0.49014 0.19009 0.25145 0.0
C453 C 0.48828 0.21656 0.22937 0.0
C454 C 0.48215 0.23652 0.27464 0.0
C455 C 0.47891 0.22967 0.34003 0.0
C456 C 0.47332 0.25256 0.38309 0.0
C457 C 0.47189 0.27434 0.33292 0.0
C458 C 0.4774 0.26541 0.26892 0.0
C459 C 0.4968 0.257 0.43093 0.0
C460 C 0.44659 0.24688 0.41702 0.0
H461 H 0.45567 0.36332 0.18451 0.0
H462 H 0.49655 0.30699 0.01748 0.0
H463 H 0.44615 0.2708 0.1024 0.0
H464 H 0.46285 0.24291 0.12947 0.0
H465 H 0.47272 0.2591 0.05438 0.0
H466 H 0.52682 0.2894 0.15747 0.0
H467 H 0.51884 0.27132 0.08345 0.0
H468 H 0.51772 0.25512 0.1618 0.0
H469 H 0.46165 0.3824 0.42374 0.0
H470 H 0.4702 0.32244 0.5718 0.0
H471 H 0.46558 0.28838 0.48914 0.0
H472 H 0.50179 0.36065 0.33062 0.0
H473 H 0.4798 0.38656 0.31411 0.0
H474 H 0.49062 0.36547 0.25007 0.0
H475 H 0.41854 0.35213 0.33413 0.0
H476 H 0.42633 0.34687 0.25119 0.0
H477 H 0.43466 0.37841 0.2892 0.0
H478 H 0.46513 0.38119 0.07864 0.0
C479 C 0.46445 0.35049 0.15001 0.0
O480 O 0.09018 0.98014 0.64716 0.0
Zn481 Zn 0.06106 0.98659 0.71418 0.0
O482 O 0.02594 0.98062 0.67441 0.0
Zn483 Zn 1.00466 0.01107 0.69364 0.0
Zn484 Zn 0.02999 0.97307 0.5805 0.0
Zn485 Zn 0.00651 0.95082 0.71117 0.0
O486 O 0.97149 1.00267 0.74783 0.0
O487 O 0.9709 0.95893 0.74651 0.0
O488 O 0.06563 0.02488 0.74562 0.0
O489 O 0.02577 0.0402 0.74001 0.0
O490 O 0.99615 0.0271 0.60737 0.0
O491 O 0.01206 1.00125 0.52963 0.0
O492 O 0.01838 0.93476 0.55584 0.0
O493 O 0.0644 0.96316 0.79537 0.0
O494 O 1.0028 0.91967 0.65087 0.0
O495 O 0.02641 0.94026 0.78758 0.0
C496 C 0.08952 0.9785 0.58451 0.0
C497 C 0.96043 0.98039 0.76218 0.0
C498 C 1.00076 0.02212 0.54721 0.0
C499 C 0.04984 0.04341 0.7547 0.0
C500 C 0.00841 0.91602 0.59088 0.0
C501 C 0.04784 0.94578 0.81681 0.0
O502 O 0.06796 0.97706 0.55337 0.0
O503 O 0.50843 0.06322 0.58966 0.0
Zn504 Zn 0.50949 0.04408 0.67762 0.0
O505 O 0.52765 0.01087 0.66487 0.0
Zn506 Zn 0.50854 0.98393 0.71354 0.0
Zn507 Zn 0.53061 1.00144 0.57289 0.0
Zn508 Zn 0.56301 0.01524 0.69954 0.0
O509 O 0.52884 0.97151 0.79119 0.0
O510 O 0.56694 0.99413 0.78581 0.0
O511 O 0.4722 0.0384 0.71471 0.0
O512 O 0.47417 0.99651 0.74536 0.0
O513 O 0.49764 0.95417 0.65442 0.0
O514 O 0.50366 0.9716 0.55476 0.0
O515 O 0.5671 0.98866 0.55152 0.0
O516 O 0.53059 0.06471 0.7465 0.0
O517 O 0.5906 1.00272 0.63729 0.0
O518 O 0.56948 0.05434 0.71143 0.0
C519 C 0.51486 0.05697 0.53115 0.0
C520 C 0.55145 0.97733 0.81437 0.0
C521 C 0.49385 0.95367 0.59263 0.0
C522 C 0.46184 0.01774 0.74146 0.0
C523 C 0.58899 0.99173 0.58116 0.0
C524 C 0.55539 0.06767 0.74928 0.0
O525 O 0.52378 0.03436 0.51757 0.0
O526 O 0.47302 0.50689 0.62307 0.0
Zn527 Zn 0.49725 0.51081 0.70261 0.0
O528 O 0.53379 0.51818 0.67543 0.0
Zn529 Zn 0.55526 0.49206 0.71912 0.0
Zn530 Zn 0.53601 0.51593 0.5792 0.0
Zn531 Zn 0.54754 0.55371 0.69899 0.0
O532 O 0.58063 0.50924 0.78458 0.0
O533 O 0.57818 0.55214 0.76342 0.0
O534 O 0.4935 0.47672 0.75662 0.0
O535 O 0.53383 0.46281 0.76495 0.0
O536 O 0.57577 0.4762 0.64731 0.0
O537 O 0.55615 0.4842 0.55422 0.0
O538 O 0.55119 0.54927 0.53848 0.0
O539 O 0.48484 0.54205 0.7552 0.0
O540 O 0.55758 0.57758 0.62036 0.0
O541 O 0.51839 0.57125 0.74311 0.0
C542 C 0.47694 0.50784 0.56122 0.0
C543 C 0.58826 0.5332 0.7947 0.0
C544 C 0.56466 0.46764 0.59526 0.0
C545 C 0.50946 0.45968 0.7764 0.0
C546 C 0.5578 0.57237 0.5591 0.0
C547 C 0.49541 0.5651 0.76308 0.0
O548 O 0.49995 0.51124 0.53833 0.0
O549 O 0.98542 0.51516 0.61042 0.0
Zn550 Zn 0.02195 0.52241 0.65045 0.0
O551 O 0.04184 0.48978 0.6607 0.0
Zn552 Zn 0.05148 0.48481 0.75388 0.0
Zn553 Zn 0.01956 0.45974 0.62549 0.0
Zn554 Zn 0.0749 0.49145 0.61258 0.0
O555 O 0.09016 0.4836 0.76985 0.0
O556 O 0.10731 0.49151 0.67175 0.0
O557 O 0.01782 0.54033 0.73943 0.0
O558 O 0.03944 0.51545 0.80956 0.0
O559 O 0.03589 0.44905 0.77768 0.0
O560 O 0.01084 0.43425 0.69939 0.0
O561 O 0.03758 0.44057 0.55157 0.0
O562 O 0.04191 0.54805 0.58934 0.0
O563 O 0.07639 0.46167 0.54549 0.0
O564 O 0.07705 0.52553 0.56417 0.0
C565 C 0.97397 0.49402 0.58873 0.0
C566 C 0.10996 0.48742 0.73313 0.0
C567 C 0.0129 0.44349 0.75726 0.0
C568 C 0.02618 0.53564 0.79719 0.0
C569 C 0.06016 0.44354 0.52571 0.0
C570 C 0.06354 0.54594 0.55934 0.0
O571 O 0.98525 0.47208 0.59079 0.0
H572 H 0.19363 0.95227 0.43986 0.0
H573 H 0.17325 0.02003 0.32358 0.0
H574 H 0.13371 0.0237 0.38774 0.0
H575 H 0.10469 0.0082 0.47865 0.0
H576 H 0.12924 0.94556 0.60471 0.0
H577 H 0.16807 0.94037 0.53672 0.0
C578 C 0.18135 0.96853 0.42883 0.0
C579 C 0.18727 0.98579 0.3755 0.0
C580 C 0.15922 0.97166 0.46858 0.0
C581 C 0.16961 0.00582 0.36241 0.0
C582 C 0.14689 0.00824 0.39993 0.0
C583 C 0.11871 0.99358 0.49138 0.0
C584 C 0.1141 0.97719 0.54649 0.0
C585 C 0.14149 0.9913 0.45319 0.0
C586 C 0.13245 0.95847 0.56283 0.0
C587 C 0.15456 0.95543 0.5237 0.0
H588 H 0.52476 0.14766 0.31745 0.0
H589 H 0.44583 0.15856 0.38127 0.0
H590 H 0.44741 0.11967 0.45143 0.0
H591 H 0.4729 0.08581 0.50508 0.0
H592 H 0.55089 0.07241 0.43862 0.0
H593 H 0.54815 0.10878 0.35942 0.0
C594 C 0.50769 0.14095 0.34509 0.0
C595 C 0.48526 0.15609 0.34448 0.0
C596 C 0.50878 0.11844 0.38608 0.0
C597 C 0.46333 0.14728 0.38108 0.0
C598 C 0.46429 0.12516 0.42168 0.0
C599 C 0.48916 0.09069 0.47264 0.0
C600 C 0.51218 0.07677 0.4782 0.0
C601 C 0.4872 0.11117 0.42641 0.0
C602 C 0.53299 0.08295 0.43528 0.0
C603 C 0.53143 0.10378 0.3901 0.0
H604 H 0.39102 0.5224 0.34129 0.0
H605 H 0.341 0.49504 0.49908 0.0
H606 H 0.379 0.48719 0.56772 0.0
H607 H 0.42619 0.49273 0.58744 0.0
H608 H 0.47662 0.52048 0.43042 0.0
H609 H 0.43904 0.52334 0.35738 0.0
C610 C 0.38856 0.51403 0.39001 0.0
C611 C 0.36324 0.50934 0.41511 0.0
C612 C 0.41062 0.51007 0.42997 0.0
C613 C 0.3603 0.49882 0.47873 0.0
C614 C 0.38203 0.4945 0.51817 0.0
C615 C 0.42903 0.49918 0.53709 0.0
C616 C 0.45428 0.50671 0.51505 0.0
C617 C 0.40726 0.50084 0.49514 0.0
C618 C 0.45748 0.51466 0.44916 0.0
C619 C 0.43593 0.51637 0.40718 0.0
H620 H 0.11261 0.36498 0.3297 0.0
H621 H 0.03243 0.3391 0.2992 0.0
H622 H 0.01801 0.3752 0.3689 0.0
H623 H 0.02873 0.41044 0.45021 0.0
H624 H 0.10934 0.43553 0.48098 0.0
H625 H 0.12302 0.40337 0.40021 0.0
C626 C 0.09194 0.36773 0.33691 0.0
C627 C 0.0736 0.34938 0.30943 0.0
C628 C 0.08391 0.388 0.37856 0.0
C629 C 0.0469 0.35313 0.31911 0.0
C630 C 0.03869 0.37353 0.35986 0.0
C631 C 0.04928 0.409 0.43895 0.0
C632 C 0.06799 0.42519 0.47267 0.0
C633 C 0.05709 0.39045 0.39189 0.0
C634 C 0.09449 0.42329 0.45641 0.0
C635 C 0.10237 0.40488 0.41006 0.0
H636 H 0.84976 0.9555 0.8902 0.0
H637 H 0.87185 0.02401 0.00621 0.0
H638 H 0.91373 0.02825 0.94771 0.0
H639 H 0.94332 0.01335 0.85914 0.0
H640 H 0.92115 0.94335 0.74806 0.0
H641 H 0.88006 0.93902 0.80809 0.0
C642 C 0.8639 0.97119 0.90319 0.0
C643 C 0.8577 0.98944 0.95244 0.0
C644 C 0.88779 0.97347 0.86931 0.0
C645 C 0.87625 0.00958 0.96897 0.0
C646 C 0.90007 0.01214 0.935 0.0
C647 C 0.92938 0.99728 0.84792 0.0
C648 C 0.93518 0.9789 0.79835 0.0
C649 C 0.9059 0.99444 0.8842 0.0
C650 C 0.91716 0.95784 0.78551 0.0
C651 C 0.89365 0.9553 0.82 0.0
H652 H 0.59441 0.89507 0.01484 0.0
H653 H 0.51723 0.90233 0.09403 0.0
H654 H 0.50972 0.93928 0.02014 0.0
H655 H 0.52223 0.96403 0.92056 0.0
H656 H 0.59937 0.95759 0.84034 0.0
H657 H 0.61004 0.92622 0.92729 0.0
C658 C 0.57644 0.90558 0.01777 0.0
C659 C 0.55646 0.89622 0.06032 0.0
C660 C 0.57205 0.9265 0.97374 0.0
C661 C 0.53299 0.90951 0.06254 0.0
C662 C 0.52858 0.93038 0.01959 0.0
C663 C 0.54154 0.95611 0.92287 0.0
C664 C 0.55983 0.96273 0.87349 0.0
C665 C 0.54748 0.93819 0.97297 0.0
C666 C 0.58491 0.95267 0.87755 0.0
C667 C 0.59096 0.93464 0.92715 0.0
H668 H 0.69104 0.56792 0.94998 0.0
H669 H 0.67118 0.49645 0.05672 0.0
H670 H 0.63084 0.49041 0.99262 0.0
H671 H 0.60325 0.50345 0.89921 0.0
H672 H 0.62257 0.57591 0.79542 0.0
H673 H 0.66097 0.58357 0.86519 0.0
C674 C 0.67761 0.55129 0.95993 0.0
C675 C 0.6841 0.53261 0.00793 0.0
C676 C 0.65452 0.54794 0.92275 0.0
C677 C 0.66651 0.51121 0.02052 0.0
C678 C 0.64358 0.50762 0.98338 0.0
C679 C 0.61576 0.52102 0.89219 0.0
C680 C 0.61016 0.53891 0.84147 0.0
C681 C 0.6377 0.52551 0.93323 0.0
C682 C 0.62638 0.56178 0.83384 0.0
C683 C 0.64842 0.56615 0.87367 0.0
H684 H 0.0266 0.62695 0.00885 0.0
H685 H 0.94442 0.62267 0.96257 0.0
H686 H 0.95057 0.58474 0.8913 0.0
H687 H 0.98013 0.55622 0.83123 0.0
H688 H 0.06167 0.55768 0.88248 0.0
H689 H 0.05506 0.59309 0.9623 0.0
C690 C 0.00996 0.61724 0.98461 0.0
C691 C 0.9852 0.62808 0.98989 0.0
C692 C 0.01362 0.59524 0.94336 0.0
C693 C 0.96381 0.61513 0.95823 0.0
C694 C 0.96729 0.59346 0.91721 0.0
C695 C 0.99634 0.56414 0.8605 0.0
C696 C 0.0214 0.55476 0.85041 0.0
C697 C 0.99225 0.58399 0.90738 0.0
C698 C 0.04221 0.56475 0.88933 0.0
C699 C 0.03844 0.58502 0.93487 0.0
H700 H 0.0462 0.09853 0.33701 0.0
H701 H 0.05676 0.14682 0.51089 0.0
H702 H 0.02783 0.11644 0.57199 0.0
H703 H 1.00537 0.07354 0.58029 0.0
H704 H 1.00102 0.02141 0.41234 0.0
H705 H 0.02075 0.05648 0.34365 0.0
C706 C 0.04237 0.10232 0.38845 0.0
C707 C 0.05406 0.12469 0.41962 0.0
C708 C 0.02647 0.08429 0.42392 0.0
C709 C 0.04809 0.12979 0.48562 0.0
C710 C 0.03154 0.11241 0.52062 0.0
C711 C 0.00788 0.06999 0.52817 0.0
C712 C 1.002 0.04475 0.50157 0.0
C713 C 0.02124 0.08928 0.49071 0.0
C714 C 1.00543 0.04064 0.43396 0.0
C715 C 0.01712 0.06053 0.39502 0.0
H716 H 0.38476 0.9104 0.50735 0.0
H717 H 0.42717 0.88727 0.33457 0.0
H718 H 0.46814 0.9002 0.38827 0.0
H719 H 0.49093 0.92581 0.47726 0.0
H720 H 0.44827 0.94292 0.65363 0.0
H721 H 0.40841 0.92366 0.60571 0.0
C722 C 0.40274 0.90701 0.48152 0.0
C723 C 0.40238 0.89942 0.41495 0.0
C724 C 0.42636 0.91371 0.51322 0.0
C725 C 0.42645 0.8948 0.38424 0.0
C726 C 0.45006 0.902 0.41509 0.0
C727 C 0.47303 0.92461 0.50558 0.0
C728 C 0.47235 0.93618 0.56816 0.0
C729 C 0.45011 0.91294 0.47825 0.0
C730 C 0.44921 0.9342 0.60512 0.0
C731 C 0.42635 0.9233 0.57768 0.0
H732 H 0.51268 0.35506 0.56468 0.0
H733 H 0.44491 0.40153 0.53805 0.0
H734 H 0.46951 0.44102 0.57677 0.0
H735 H 0.51222 0.46321 0.59511 0.0
H736 H 0.58101 0.41759 0.61086 0.0
H737 H 0.5541 0.37652 0.60068 0.0
C738 C 0.50304 0.37361 0.5701 0.0
C739 C 0.47714 0.37558 0.54846 0.0
C740 C 0.51771 0.39636 0.58869 0.0
C741 C 0.46485 0.39972 0.55459 0.0
C742 C 0.47899 0.42227 0.57596 0.0
C743 C 0.52121 0.44422 0.59689 0.0
C744 C 0.5485 0.44315 0.60126 0.0
C745 C 0.50576 0.42102 0.58923 0.0
C746 C 0.56003 0.41865 0.60617 0.0
C747 C 0.54467 0.39529 0.60029 0.0
H748 H 0.12473 0.59147 0.32715 0.0
H749 H 0.17313 0.62363 0.48428 0.0
H750 H 0.13875 0.61228 0.5632 0.0
H751 H 0.09956 0.58419 0.58897 0.0
H752 H 0.05188 0.55217 0.43144 0.0
H753 H 0.08095 0.57359 0.35066 0.0
C754 C 0.12757 0.59717 0.37805 0.0
C755 C 0.15206 0.60754 0.39974 0.0
C756 C 0.10779 0.59045 0.42324 0.0
C757 C 0.15496 0.61466 0.4663 0.0
C758 C 0.13524 0.60826 0.51158 0.0
C759 C 0.09494 0.58309 0.53698 0.0
C760 C 0.07371 0.56687 0.51569 0.0
C761 C 0.11223 0.59475 0.49099 0.0
C762 C 0.06799 0.56494 0.44851 0.0
C763 C 0.08481 0.57687 0.40244 0.0
H764 H 0.02571 0.85009 0.98078 0.0
H765 H 0.9587 0.89703 0.01879 0.0
H766 H 0.98309 0.93641 0.98314 0.0
H767 H 0.01904 0.95555 0.91986 0.0
H768 H 0.08 0.90646 0.85253 0.0
H769 H 0.06357 0.87043 0.92362 0.0
C770 C 0.01621 0.86881 0.98066 0.0
C771 C 0.99006 0.87021 1.00156 0.0
C772 C 0.02975 0.89125 0.95587 0.0
C773 C 0.97871 0.89504 0.00354 0.0
C774 C 0.99267 0.91772 0.98292 0.0
C775 C 0.02946 0.93735 0.92362 0.0
C776 C 0.05041 0.93337 0.88104 0.0
C777 C 0.01775 0.91584 0.95672 0.0
C778 C 0.06389 0.90992 0.88537 0.0
C779 C 0.05397 0.8891 0.92444 0.0
H780 H 0.64544 0.04987 0.92443 0.0
H781 H 0.58784 0.99081 0.99116 0.0
H782 H 0.55354 0.01614 0.94626 0.0
H783 H 0.54071 0.04752 0.86426 0.0
H784 H 0.59875 0.09936 0.77378 0.0
H785 H 0.63146 0.08537 0.85256 0.0
C786 C 0.62551 0.04211 0.92856 0.0
C787 C 0.6199 0.01766 0.95982 0.0
C788 C 0.60559 0.05586 0.89824 0.0
C789 C 0.59349 0.00926 0.96765 0.0
C790 C 0.57351 0.02378 0.94151 0.0
C791 C 0.56018 0.05683 0.86417 0.0
C792 C 0.56757 0.07395 0.81277 0.0
C793 C 0.57944 0.04622 0.9037 0.0
C794 C 0.59274 0.08601 0.81299 0.0
C795 C 0.61159 0.07742 0.85684 0.0
H796 H 0.46846 0.64954 0.96706 0.0
H797 H 0.49043 0.69958 0.80301 0.0
H798 H 0.48706 0.66174 0.72936 0.0
H799 H 0.48926 0.61383 0.71787 0.0
H800 H 0.47131 0.56297 0.88254 0.0
H801 H 0.46154 0.60155 0.94985 0.0
C802 C 0.47181 0.6522 0.91485 0.0
C803 C 0.48039 0.67715 0.89079 0.0
C804 C 0.47111 0.63009 0.87329 0.0
C805 C 0.48395 0.6806 0.8229 0.0
C806 C 0.48234 0.65887 0.78081 0.0
C807 C 0.48232 0.61124 0.76789 0.0
C808 C 0.48137 0.58594 0.79604 0.0
C809 C 0.47767 0.63342 0.80634 0.0
C810 C 0.47217 0.58243 0.86033 0.0
C811 C 0.46686 0.60447 0.8988 0.0
H812 H 0.93825 0.52159 0.89433 0.0
H813 H 0.88278 0.4849 0.75907 0.0
H814 H 0.91831 0.46319 0.70336 0.0
H815 H 0.96379 0.44854 0.70594 0.0
H816 H 0.01459 0.47591 0.86351 0.0
H817 H 0.98182 0.50561 0.90096 0.0
C818 C 0.93364 0.50849 0.85336 0.0
C819 C 0.90761 0.50416 0.83287 0.0
C820 C 0.95341 0.4937 0.82677 0.0
C821 C 0.90253 0.48855 0.77664 0.0
C822 C 0.9228 0.4757 0.74544 0.0
C823 C 0.96781 0.46129 0.74787 0.0
C824 C 0.99224 0.46096 0.77979 0.0
C825 C 0.9481 0.47711 0.7722 0.0
C826 C 0.99655 0.47666 0.83599 0.0
C827 C 0.97774 0.49357 0.8578 0.0
H828 H 0.10636 0.14054 0.89877 0.0
H829 H 0.02882 0.17016 0.89085 0.0
H830 H 0.01424 0.13216 0.82361 0.0
H831 H 0.02228 0.08766 0.77959 0.0
H832 H 0.09958 0.05732 0.79411 0.0
H833 H 0.11527 0.09814 0.84718 0.0
C834 C 0.08635 0.13892 0.88137 0.0
C835 C 0.06866 0.15811 0.90038 0.0
C836 C 0.07788 0.11648 0.84527 0.0
C837 C 0.04291 0.15587 0.87663 0.0
C838 C 0.03447 0.13389 0.83899 0.0
C839 C 0.0426 0.08999 0.79396 0.0
C840 C 0.05958 0.0691 0.78351 0.0
C841 C 0.05156 0.11358 0.82513 0.0
C842 C 0.08592 0.07278 0.80197 0.0
C843 C 0.09499 0.09621 0.83224 0.0
H844 H 0.35472 0.98082 0.86218 0.0
H845 H 0.37125 0.04785 0.9876 0.0
H846 H 0.40686 0.06299 0.91466 0.0
H847 H 0.43902 0.0515 0.82831 0.0
H848 H 0.42397 0.98144 0.71153 0.0
H849 H 0.38233 0.97319 0.76696 0.0
C850 C 0.36534 0.99943 0.87169 0.0
C851 C 0.36023 0.01329 0.9299 0.0
C852 C 0.38673 0.007 0.83181 0.0
C853 C 0.37447 0.03708 0.94254 0.0
C854 C 0.39522 0.04542 0.90144 0.0
C855 C 0.42618 0.03494 0.81385 0.0
C856 C 0.43459 0.01701 0.76607 0.0
C857 C 0.40246 0.02973 0.84791 0.0
C858 C 0.41797 0.9954 0.74837 0.0
C859 C 0.39415 0.99065 0.78013 0.0
H860 H 0.45188 0.37594 0.96192 0.0
H861 H 0.52964 0.3475 0.97851 0.0
H862 H 0.54491 0.37912 0.89426 0.0
H863 H 0.53715 0.41876 0.82648 0.0
H864 H 0.45925 0.44779 0.81459 0.0
H865 H 0.44324 0.41232 0.88656 0.0
C866 C 0.47209 0.37631 0.94618 0.0
C867 C 0.48963 0.35946 0.97695 0.0
C868 C 0.48086 0.39512 0.89947 0.0
C869 C 0.51567 0.36004 0.95543 0.0
C870 C 0.52448 0.37841 0.90785 0.0
C871 C 0.51663 0.41724 0.83913 0.0
C872 C 0.49958 0.43639 0.81563 0.0
C873 C 0.50743 0.39671 0.88126 0.0
C874 C 0.47298 0.4337 0.83219 0.0
C875 C 0.46373 0.41332 0.87343 0.0
H876 H 0.2147 0.5263 0.87059 0.0
H877 H 0.1945 0.46051 0.99719 0.0
H878 H 0.15802 0.44734 0.92489 0.0
H879 H 0.12845 0.45828 0.83384 0.0
H880 H 0.14984 0.52263 0.7036 0.0
H881 H 0.18938 0.53248 0.76828 0.0
C882 C 0.2028 0.50858 0.88092 0.0
C883 C 0.2073 0.49428 0.93884 0.0
C884 C 0.18184 0.50115 0.839 0.0
C885 C 0.19161 0.47155 0.95237 0.0
C886 C 0.17057 0.46422 0.91143 0.0
C887 C 0.14208 0.4741 0.81892 0.0
C888 C 0.13611 0.48989 0.76443 0.0
C889 C 0.16496 0.47941 0.85587 0.0
C890 C 0.15403 0.51017 0.74522 0.0
C891 C 0.17656 0.51591 0.78247 0.0
H892 H 0.96818 0.80244 0.49789 0.0
H893 H 0.04256 0.80496 0.39982 0.0
H894 H 0.0537 0.84797 0.44993 0.0
H895 H 0.0399 0.88744 0.51162 0.0
H896 H 0.96564 0.88402 0.61082 0.0
H897 H 0.95655 0.83928 0.56927 0.0
C898 C 0.98721 0.812 0.48946 0.0
C899 C 1.00458 0.80039 0.44557 0.0
C900 C 0.99307 0.83711 0.51669 0.0
C901 C 0.02905 0.81316 0.43439 0.0
C902 C 0.03518 0.83806 0.46197 0.0
C903 C 0.02171 0.87687 0.52371 0.0
C904 C 1.00317 0.88924 0.56295 0.0
C905 C 0.01692 0.85071 0.50113 0.0
C906 C 0.98002 0.87506 0.57994 0.0
C907 C 0.97489 0.84941 0.55657 0.0
H908 H 0.67744 0.93465 0.42889 0.0
H909 H 0.71699 0.01083 0.45448 0.0
H910 H 0.68238 0.02415 0.52876 0.0
H911 H 0.63699 0.01692 0.57054 0.0
H912 H 0.59458 0.94394 0.52417 0.0
H913 H 0.63336 0.92707 0.47151 0.0
C914 C 0.67871 0.95413 0.45123 0.0
C915 C 0.69968 0.97185 0.43466 0.0
C916 C 0.65753 0.96258 0.48828 0.0
C917 C 0.70128 0.99665 0.46604 0.0
C918 C 0.68113 0.0045 0.50754 0.0
C919 C 0.63641 0.99726 0.54923 0.0
C920 C 0.61292 0.9817 0.55081 0.0
C921 C 0.65853 0.98813 0.51629 0.0
C922 C 0.61231 0.95635 0.52282 0.0
C923 C 0.63453 0.94665 0.49314 0.0
H924 H 0.56345 0.64715 0.31305 0.0
H925 H 0.59291 0.70476 0.45373 0.0
H926 H 0.58765 0.67146 0.54163 0.0
H927 H 0.57565 0.62476 0.57696 0.0
H928 H 0.55039 0.56827 0.42793 0.0
H929 H 0.55425 0.60216 0.34482 0.0
C930 C 0.56946 0.65256 0.36253 0.0
C931 C 0.57934 0.67843 0.3759 0.0
C932 C 0.5674 0.63325 0.41154 0.0
C933 C 0.58546 0.68505 0.44146 0.0
C934 C 0.58262 0.66589 0.49167 0.0
C935 C 0.57124 0.61987 0.52621 0.0
C936 C 0.56276 0.5937 0.50935 0.0
C937 C 0.57385 0.63971 0.47713 0.0
C938 C 0.55709 0.58792 0.44309 0.0
C939 C 0.55913 0.60741 0.39512 0.0
H940 H 0.87424 0.4773 0.41057 0.0
H941 H 0.87591 0.5622 0.42093 0.0
H942 H 0.90993 0.56167 0.50559 0.0
H943 H 0.94475 0.53724 0.56083 0.0
H944 H 0.94357 0.45209 0.54534 0.0
H945 H 0.90407 0.45253 0.47932 0.0
C946 C 0.88115 0.49557 0.43391 0.0
C947 C 0.87225 0.51972 0.41042 0.0
C948 C 0.90158 0.4951 0.48015 0.0
C949 C 0.88195 0.54334 0.43942 0.0
C950 C 0.90183 0.54303 0.48687 0.0
C951 C 0.93562 0.51875 0.54397 0.0
C952 C 0.94769 0.49472 0.55699 0.0
C953 C 0.91273 0.51908 0.50514 0.0
C954 C 0.93523 0.47097 0.53523 0.0
C955 C 0.91247 0.47115 0.49746 0.0
loop_
_geom_bond_atom_site_label_1
_geom_bond_atom_site_label_2
_geom_bond_distance
_geom_bond_site_symmetry_2
_ccdc_geom_bond_type
C0 C1 1.391 . S
C0 C4 1.391 . S
C0 H42 0.948 . S
C1 C0 1.391 . S
C1 C2 1.391 . S
C2 C1 1.391 . S
C2 H58 0.947 . S
C2 C59 1.392 . S
C3 C4 1.391 . S
C3 C7 1.397 . S
C3 C59 1.419 . S
C4 C0 1.391 . S
C4 C3 1.391 . S
C4 C5 1.399 . S
C5 C4 1.399 . S
C5 C8 1.396 . S
C5 C17 1.453 . S
C5 C18 1.684 . S
H6 C30 0.948 . S
C7 C3 1.397 . S
C7 C8 1.394 . S
C7 C26 1.723 . S
C8 C5 1.396 . S
C8 C7 1.394 . S
C8 C38 1.723 . S
H9 C32 0.947 . S
H10 C33 0.948 . S
H11 C39 0.982 . S
H12 C40 0.979 . S
H13 C40 0.980 . S
H14 C40 0.983 . S
H15 C39 0.979 . S
H16 C39 0.977 . S
C17 C5 1.453 . S
C17 H46 0.982 . S
C17 H47 0.979 . S
C17 H48 0.977 . S
C18 C5 1.684 . S
C18 H43 0.979 . S
C18 H44 0.980 . S
C18 H45 0.983 . S
C19 C20 1.391 . S
C19 C24 1.391 . S
C19 H49 0.948 . S
C20 C19 1.391 . S
C20 C21 1.391 . S
C21 C20 1.391 . S
C21 C22 1.392 . S
C21 H50 0.947 . S
C22 C21 1.392 . S
C22 C23 1.419 . S
C22 H51 0.948 . S
C23 C22 1.419 . S
C23 C24 1.391 . S
C23 C27 1.397 . S
C24 C19 1.391 . S
C24 C23 1.391 . S
C24 C25 1.399 1_556 S
C25 C24 1.399 1_554 S
C25 C26 1.396 . S
C25 C28 1.453 . S
C25 C29 1.684 . S
C26 C7 1.723 . S
C26 C25 1.396 . S
C26 C27 1.394 1_554 S
C27 C23 1.397 . S
C27 C26 1.394 1_556 S
C27 C37 1.723 . S
C28 C25 1.453 . S
C28 H52 0.982 . S
C28 H53 0.979 . S
C28 H54 0.977 . S
C29 C25 1.684 . S
C29 H55 0.979 . S
C29 H56 0.980 . S
C29 H57 0.983 . S
C30 H6 0.948 . S
C30 C31 1.391 . S
C30 C35 1.391 . S
C31 C30 1.391 . S
C31 C32 1.391 1_556 S
C32 H9 0.947 . S
C32 C31 1.391 1_554 S
C32 C33 1.392 . S
C33 H10 0.948 . S
C33 C32 1.392 . S
C33 C34 1.419 . S
C34 C33 1.419 . S
C34 C35 1.391 1_554 S
C34 C38 1.397 . S
C35 C30 1.391 . S
C35 C34 1.391 1_556 S
C35 C36 1.399 . S
C36 C35 1.399 . S
C36 C37 1.396 . S
C36 C39 1.453 . S
C36 C40 1.684 . S
C37 C27 1.723 . S
C37 C36 1.396 . S
C37 C38 1.394 1_556 S
C38 C8 1.723 . S
C38 C34 1.397 . S
C38 C37 1.394 1_554 S
C39 H11 0.982 . S
C39 H15 0.979 . S
C39 H16 0.977 . S
C39 C36 1.453 . S
C40 H12 0.979 . S
C40 H13 0.980 . S
C40 H14 0.983 . S
C40 C36 1.684 . S
H41 C59 0.948 . S
H42 C0 0.948 . S
H43 C18 0.979 . S
H44 C18 0.980 . S
H45 C18 0.983 . S
H46 C17 0.982 . S
H47 C17 0.979 . S
H48 C17 0.977 . S
H49 C19 0.948 . S
H50 C21 0.947 . S
H51 C22 0.948 . S
H52 C28 0.982 . S
H53 C28 0.979 . S
H54 C28 0.977 . S
H55 C29 0.979 . S
H56 C29 0.980 . S
H57 C29 0.983 . S
H58 C2 0.947 . S
C59 C2 1.392 . S
C59 C3 1.419 . S
C59 H41 0.948 . S
C60 C61 1.391 . S
C60 C64 1.391 . S
C60 H102 0.948 . S
C61 C60 1.391 . S
C61 C62 1.391 . S
C62 C61 1.391 . S
C62 H118 0.947 . S
C62 C119 1.392 1_556 S
C63 C64 1.391 1_554 S
C63 C67 1.397 . S
C63 C119 1.419 . S
C64 C60 1.391 . S
C64 C63 1.391 1_556 S
C64 C65 1.399 . S
C65 C64 1.399 . S
C65 C68 1.396 1_556 S
C65 C77 1.453 1_655 S
C65 C78 1.684 . S
H66 C90 0.948 . S
C67 C63 1.397 . S
C67 C68 1.394 . S
C67 C86 1.723 . S
C68 C65 1.396 1_554 S
C68 C67 1.394 . S
C68 C98 1.723 . S
H69 C92 0.947 . S
H70 C93 0.948 . S
H71 C99 0.982 . S
H72 C100 0.979 . S
H73 C100 0.980 . S
H74 C100 0.983 . S
H75 C99 0.979 . S
H76 C99 0.977 . S
C77 C65 1.453 1_455 S
C77 H106 0.982 . S
C77 H107 0.979 . S
C77 H108 0.977 . S
C78 C65 1.684 . S
C78 H103 0.979 . S
C78 H104 0.980 . S
C78 H105 0.983 . S
C79 C80 1.391 . S
C79 C84 1.391 . S
C79 H109 0.948 . S
C80 C79 1.391 . S
C80 C81 1.391 . S
C81 C80 1.391 . S
C81 C82 1.392 . S
C81 H110 0.947 . S
C82 C81 1.392 . S
C82 C83 1.419 . S
C82 H111 0.948 . S
C83 C82 1.419 . S
C83 C84 1.391 . S
C83 C87 1.397 . S
C84 C79 1.391 . S
C84 C83 1.391 . S
C84 C85 1.399 . S
C85 C84 1.399 . S
C85 C86 1.396 . S
C85 C88 1.453 1_655 S
C85 C89 1.684 . S
C86 C67 1.723 . S
C86 C85 1.396 . S
C86 C87 1.394 . S
C87 C83 1.397 . S
C87 C86 1.394 . S
C87 C97 1.723 . S
C88 C85 1.453 1_455 S
C88 H112 0.982 . S
C88 H113 0.979 . S
C88 H114 0.977 . S
C89 C85 1.684 . S
C89 H115 0.979 . S
C89 H116 0.980 . S
C89 H117 0.983 . S
C90 H66 0.948 . S
C90 C91 1.391 . S
C90 C95 1.391 . S
C91 C90 1.391 . S
C91 C92 1.391 1_554 S
C92 H69 0.947 . S
C92 C91 1.391 1_556 S
C92 C93 1.392 . S
C93 H70 0.948 . S
C93 C92 1.392 . S
C93 C94 1.419 1_556 S
C94 C93 1.419 1_554 S
C94 C95 1.391 . S
C94 C98 1.397 . S
C95 C90 1.391 . S
C95 C94 1.391 . S
C95 C96 1.399 . S
C96 C95 1.399 . S
C96 C97 1.396 . S
C96 C99 1.453 1_655 S
C96 C100 1.684 . S
C97 C87 1.723 . S
C97 C96 1.396 . S
C97 C98 1.394 . S
C98 C68 1.723 . S
C98 C94 1.397 . S
C98 C97 1.394 . S
C99 H71 0.982 . S
C99 H75 0.979 . S
C99 H76 0.977 . S
C99 C96 1.453 1_455 S
C100 H72 0.979 . S
C100 H73 0.980 . S
C100 H74 0.983 . S
C100 C96 1.684 . S
H101 C119 0.948 . S
H102 C60 0.948 . S
H103 C78 0.979 . S
H104 C78 0.980 . S
H105 C78 0.983 . S
H106 C77 0.982 . S
H107 C77 0.979 . S
H108 C77 0.977 . S
H109 C79 0.948 . S
H110 C81 0.947 . S
H111 C82 0.948 . S
H112 C88 0.982 . S
H113 C88 0.979 . S
H114 C88 0.977 . S
H115 C89 0.979 . S
H116 C89 0.980 . S
H117 C89 0.983 . S
H118 C62 0.947 . S
C119 C62 1.392 1_554 S
C119 C63 1.419 . S
C119 H101 0.948 . S
C120 C121 1.391 1_554 S
C120 C124 1.391 . S
C120 H162 0.948 . S
C121 C120 1.391 1_556 S
C121 C122 1.391 . S
C122 C121 1.391 . S
C122 H178 0.947 . S
C122 C179 1.392 . S
C123 C124 1.391 . S
C123 C127 1.396 . S
C123 C179 1.419 1_554 S
C124 C120 1.391 . S
C124 C123 1.391 . S
C124 C125 1.399 . S
C125 C124 1.399 . S
C125 C128 1.396 1_565 S
C125 C137 1.453 1_565 S
C125 C138 1.684 . S
H126 C150 0.948 . S
C127 C123 1.396 . S
C127 C128 1.394 1_565 S
C127 C146 1.723 1_564 S
C128 C125 1.396 1_545 S
C128 C127 1.394 1_545 S
C128 C158 1.723 . S
H129 C152 0.947 . S
H130 C153 0.948 . S
H131 C159 0.982 . S
H132 C160 0.979 . S
H133 C160 0.980 . S
H134 C160 0.983 . S
H135 C159 0.979 . S
H136 C159 0.977 . S
C137 C125 1.453 1_545 S
C137 H166 0.982 . S
C137 H167 0.979 . S
C137 H168 0.977 . S
C138 C125 1.684 . S
C138 H163 0.979 . S
C138 H164 0.980 . S
C138 H165 0.983 . S
C139 C140 1.391 . S
C139 C144 1.391 . S
C139 H169 0.948 . S
C140 C139 1.391 . S
C140 C141 1.391 . S
C141 C140 1.391 . S
C141 C142 1.392 . S
C141 H170 0.947 . S
C142 C141 1.392 . S
C142 C143 1.419 . S
C142 H171 0.948 1_556 S
C143 C142 1.419 . S
C143 C144 1.391 . S
C143 C147 1.397 1_566 S
C144 C139 1.391 . S
C144 C143 1.391 . S
C144 C145 1.399 . S
C145 C144 1.399 . S
C145 C146 1.396 1_565 S
C145 C148 1.453 1_565 S
C145 C149 1.684 . S
C146 C127 1.723 1_546 S
C146 C145 1.396 1_545 S
C146 C147 1.394 1_556 S
C147 C143 1.397 1_544 S
C147 C146 1.394 1_554 S
C147 C157 1.723 . S
C148 C145 1.453 1_545 S
C148 H172 0.982 . S
C148 H173 0.979 . S
C148 H174 0.977 . S
C149 C145 1.684 . S
C149 H175 0.979 . S
C149 H176 0.980 . S
C149 H177 0.983 . S
C150 H126 0.948 . S
C150 C151 1.391 . S
C150 C155 1.391 . S
C151 C150 1.391 . S
C151 C152 1.391 . S
C152 H129 0.947 . S
C152 C151 1.391 . S
C152 C153 1.392 . S
C153 H130 0.948 . S
C153 C152 1.392 . S
C153 C154 1.419 . S
C154 C153 1.419 . S
C154 C155 1.391 . S
C154 C158 1.397 1_565 S
C155 C150 1.391 . S
C155 C154 1.391 . S
C155 C156 1.399 . S
C156 C155 1.399 . S
C156 C157 1.396 1_565 S
C156 C159 1.453 1_565 S
C156 C160 1.684 . S
C157 C147 1.723 . S
C157 C156 1.396 1_545 S
C157 C158 1.394 . S
C158 C128 1.723 . S
C158 C154 1.397 1_545 S
C158 C157 1.394 . S
C159 H131 0.982 . S
C159 H135 0.979 . S
C159 H136 0.977 . S
C159 C156 1.453 1_545 S
C160 H132 0.979 . S
C160 H133 0.980 . S
C160 H134 0.983 . S
C160 C156 1.684 . S
H161 C179 0.948 . S
H162 C120 0.948 . S
H163 C138 0.979 . S
H164 C138 0.980 . S
H165 C138 0.983 . S
H166 C137 0.982 . S
H167 C137 0.979 . S
H168 C137 0.977 . S
H169 C139 0.948 . S
H170 C141 0.947 . S
H171 C142 0.948 1_554 S
H172 C148 0.982 . S
H173 C148 0.979 . S
H174 C148 0.977 . S
H175 C149 0.979 . S
H176 C149 0.980 . S
H177 C149 0.983 . S
H178 C122 0.947 . S
C179 C122 1.392 . S
C179 C123 1.419 1_556 S
C179 H161 0.948 . S
C180 C181 1.391 . S
C180 C184 1.391 . S
C180 H222 0.948 . S
C181 C180 1.391 . S
C181 C182 1.391 . S
C182 C181 1.391 . S
C182 H238 0.947 . S
C182 C239 1.392 . S
C183 C184 1.391 . S
C183 C187 1.397 . S
C183 C239 1.419 . S
C184 C180 1.391 . S
C184 C183 1.391 . S
C184 C185 1.399 . S
C185 C184 1.399 . S
C185 C188 1.396 . S
C185 C197 1.453 . S
C185 C198 1.684 . S
H186 C210 0.948 . S
C187 C183 1.397 . S
C187 C188 1.394 . S
C187 C206 1.723 . S
C188 C185 1.396 . S
C188 C187 1.394 . S
C188 C218 1.723 . S
H189 C212 0.947 . S
H190 C213 0.948 . S
H191 C219 0.982 . S
H192 C220 0.979 . S
H193 C220 0.980 . S
H194 C220 0.983 . S
H195 C219 0.979 . S
H196 C219 0.977 . S
C197 C185 1.453 . S
C197 H226 0.982 . S
C197 H227 0.979 . S
C197 H228 0.977 . S
C198 C185 1.684 . S
C198 H223 0.979 . S
C198 H224 0.980 . S
C198 H225 0.983 . S
C199 C200 1.391 . S
C199 C204 1.391 . S
C199 H229 0.948 . S
C200 C199 1.391 . S
C200 C201 1.391 . S
C201 C200 1.391 . S
C201 C202 1.392 . S
C201 H230 0.947 . S
C202 C201 1.392 . S
C202 C203 1.419 . S
C202 H231 0.948 . S
C203 C202 1.419 . S
C203 C204 1.391 . S
C203 C207 1.397 . S
C204 C199 1.391 . S
C204 C203 1.391 . S
C204 C205 1.399 1_556 S
C205 C204 1.399 1_554 S
C205 C206 1.396 . S
C205 C208 1.453 . S
C205 C209 1.684 . S
C206 C187 1.723 . S
C206 C205 1.396 . S
C206 C207 1.394 1_554 S
C207 C203 1.397 . S
C207 C206 1.394 1_556 S
C207 C217 1.723 . S
C208 C205 1.453 . S
C208 H232 0.982 . S
C208 H233 0.979 . S
C208 H234 0.977 . S
C209 C205 1.684 . S
C209 H235 0.979 . S
C209 H236 0.980 . S
C209 H237 0.983 . S
C210 H186 0.948 . S
C210 C211 1.391 1_556 S
C210 C215 1.391 . S
C211 C210 1.391 1_554 S
C211 C212 1.391 . S
C212 H189 0.947 . S
C212 C211 1.391 . S
C212 C213 1.392 . S
C213 H190 0.948 . S
C213 C212 1.392 . S
C213 C214 1.419 . S
C214 C213 1.419 . S
C214 C215 1.391 1_554 S
C214 C218 1.397 . S
C215 C210 1.391 . S
C215 C214 1.391 1_556 S
C215 C216 1.399 . S
C216 C215 1.399 . S
C216 C217 1.396 . S
C216 C219 1.453 . S
C216 C220 1.684 . S
C217 C207 1.723 . S
C217 C216 1.396 . S
C217 C218 1.394 1_556 S
C218 C188 1.723 . S
C218 C214 1.397 . S
C218 C217 1.394 1_554 S
C219 H191 0.982 . S
C219 H195 0.979 . S
C219 H196 0.977 . S
C219 C216 1.453 . S
C220 H192 0.979 . S
C220 H193 0.980 . S
C220 H194 0.983 . S
C220 C216 1.684 . S
H221 C239 0.948 . S
H222 C180 0.948 . S
H223 C198 0.979 . S
H224 C198 0.980 . S
H225 C198 0.983 . S
H226 C197 0.982 . S
H227 C197 0.979 . S
H228 C197 0.977 . S
H229 C199 0.948 . S
H230 C201 0.947 . S
H231 C202 0.948 . S
H232 C208 0.982 . S
H233 C208 0.979 . S
H234 C208 0.977 . S
H235 C209 0.979 . S
H236 C209 0.980 . S
H237 C209 0.983 . S
H238 C182 0.947 . S
C239 C182 1.392 . S
C239 C183 1.419 . S
C239 H221 0.948 . S
C240 C241 1.391 . S
C240 C244 1.391 . S
C240 H282 0.948 . S
C241 C240 1.391 . S
C241 C242 1.391 . S
C242 C241 1.391 . S
C242 H298 0.947 . S
C242 C299 1.392 . S
C243 C244 1.391 . S
C243 C247 1.397 . S
C243 C299 1.419 . S
C244 C240 1.391 . S
C244 C243 1.391 . S
C244 C245 1.399 . S
C245 C244 1.399 . S
C245 C248 1.396 . S
C245 C257 1.453 . S
C245 C258 1.684 . S
H246 C270 0.948 . S
C247 C243 1.397 . S
C247 C248 1.394 . S
C247 C266 1.723 . S
C248 C245 1.396 . S
C248 C247 1.394 . S
C248 C278 1.723 . S
H249 C272 0.947 . S
H250 C273 0.948 . S
H251 C279 0.982 . S
H252 C280 0.979 . S
H253 C280 0.980 . S
H254 C280 0.983 . S
H255 C279 0.979 . S
H256 C279 0.977 . S
C257 C245 1.453 . S
C257 H286 0.982 . S
C257 H287 0.979 . S
C257 H288 0.977 . S
C258 C245 1.684 . S
C258 H283 0.979 . S
C258 H284 0.980 . S
C258 H285 0.983 . S
C259 C260 1.391 . S
C259 C264 1.391 . S
C259 H289 0.948 . S
C260 C259 1.391 . S
C260 C261 1.391 . S
C261 C260 1.391 . S
C261 C262 1.392 . S
C261 H290 0.947 . S
C262 C261 1.392 . S
C262 C263 1.419 . S
C262 H291 0.948 . S
C263 C262 1.419 . S
C263 C264 1.391 . S
C263 C267 1.397 . S
C264 C259 1.391 . S
C264 C263 1.391 . S
C264 C265 1.399 . S
C265 C264 1.399 . S
C265 C266 1.396 . S
C265 C268 1.453 . S
C265 C269 1.684 . S
C266 C247 1.723 . S
C266 C265 1.396 . S
C266 C267 1.394 . S
C267 C263 1.397 . S
C267 C266 1.394 . S
C267 C277 1.723 . S
C268 C265 1.453 . S
C268 H292 0.982 . S
C268 H293 0.979 . S
C268 H294 0.977 . S
C269 C265 1.684 . S
C269 H295 0.979 . S
C269 H296 0.980 . S
C269 H297 0.983 . S
C270 H246 0.948 . S
C270 C271 1.391 1_554 S
C270 C275 1.391 . S
C271 C270 1.391 1_556 S
C271 C272 1.391 . S
C272 H249 0.947 . S
C272 C271 1.391 . S
C272 C273 1.392 1_556 S
C273 H250 0.948 . S
C273 C272 1.392 1_554 S
C273 C274 1.419 . S
C274 C273 1.419 . S
C274 C275 1.391 . S
C274 C278 1.397 . S
C275 C270 1.391 . S
C275 C274 1.391 . S
C275 C276 1.399 . S
C276 C275 1.399 . S
C276 C277 1.396 . S
C276 C279 1.453 . S
C276 C280 1.684 . S
C277 C267 1.723 . S
C277 C276 1.396 . S
C277 C278 1.394 . S
C278 C248 1.723 . S
C278 C274 1.397 . S
C278 C277 1.394 . S
C279 H251 0.982 . S
C279 H255 0.979 . S
C279 H256 0.977 . S
C279 C276 1.453 . S
C280 H252 0.979 . S
C280 H253 0.980 . S
C280 H254 0.983 . S
C280 C276 1.684 . S
H281 C299 0.948 . S
H282 C240 0.948 . S
H283 C258 0.979 . S
H284 C258 0.980 . S
H285 C258 0.983 . S
H286 C257 0.982 . S
H287 C257 0.979 . S
H288 C257 0.977 . S
H289 C259 0.948 . S
H290 C261 0.947 . S
H291 C262 0.948 . S
H292 C268 0.982 . S
H293 C268 0.979 . S
H294 C268 0.977 . S
H295 C269 0.979 . S
H296 C269 0.980 . S
H297 C269 0.983 . S
H298 C242 0.947 . S
C299 C242 1.392 . S
C299 C243 1.419 . S
C299 H281 0.948 . S
C300 C301 1.391 . S
C300 C304 1.391 . S
C300 H342 0.948 . S
C301 C300 1.391 . S
C301 C302 1.391 . S
C302 C301 1.391 . S
C302 H358 0.947 . S
C302 C359 1.392 . S
C303 C304 1.391 . S
C303 C307 1.397 . S
C303 C359 1.419 . S
C304 C300 1.391 . S
C304 C303 1.391 . S
C304 C305 1.399 . S
C305 C304 1.399 . S
C305 C308 1.396 . S
C305 C317 1.453 . S
C305 C318 1.684 . S
H306 C330 0.948 . S
C307 C303 1.397 . S
C307 C308 1.394 . S
C307 C326 1.723 . S
C308 C305 1.396 . S
C308 C307 1.394 . S
C308 C338 1.723 . S
H309 C332 0.947 . S
H310 C333 0.948 . S
H311 C339 0.982 . S
H312 C340 0.979 . S
H313 C340 0.980 . S
H314 C340 0.983 . S
H315 C339 0.979 . S
H316 C339 0.977 . S
C317 C305 1.453 . S
C317 H346 0.982 . S
C317 H347 0.979 . S
C317 H348 0.977 . S
C318 C305 1.684 . S
C318 H343 0.979 . S
C318 H344 0.980 . S
C318 H345 0.983 . S
C319 C320 1.391 . S
C319 C324 1.391 . S
C319 H349 0.948 . S
C320 C319 1.391 . S
C320 C321 1.391 . S
C321 C320 1.391 . S
C321 C322 1.392 . S
C321 H350 0.947 . S
C322 C321 1.392 . S
C322 C323 1.419 . S
C322 H351 0.948 . S
C323 C322 1.419 . S
C323 C324 1.391 . S
C323 C327 1.397 . S
C324 C319 1.391 . S
C324 C323 1.391 . S
C324 C325 1.399 . S
C325 C324 1.399 . S
C325 C326 1.396 . S
C325 C328 1.453 . S
C325 C329 1.684 . S
C326 C307 1.723 . S
C326 C325 1.396 . S
C326 C327 1.394 . S
C327 C323 1.397 . S
C327 C326 1.394 . S
C327 C337 1.723 . S
C328 C325 1.453 . S
C328 H352 0.982 . S
C328 H353 0.979 . S
C328 H354 0.977 . S
C329 C325 1.684 . S
C329 H355 0.979 . S
C329 H356 0.980 . S
C329 H357 0.983 . S
C330 H306 0.948 . S
C330 C331 1.391 . S
C330 C335 1.391 . S
C331 C330 1.391 . S
C331 C332 1.391 . S
C332 H309 0.947 . S
C332 C331 1.391 . S
C332 C333 1.392 . S
C333 H310 0.948 . S
C333 C332 1.392 . S
C333 C334 1.419 . S
C334 C333 1.419 . S
C334 C335 1.391 . S
C334 C338 1.397 . S
C335 C330 1.391 . S
C335 C334 1.391 . S
C335 C336 1.399 . S
C336 C335 1.399 . S
C336 C337 1.396 . S
C336 C339 1.453 . S
C336 C340 1.684 . S
C337 C327 1.723 . S
C337 C336 1.396 . S
C337 C338 1.394 . S
C338 C308 1.723 . S
C338 C334 1.397 . S
C338 C337 1.394 . S
C339 H311 0.982 . S
C339 H315 0.979 . S
C339 H316 0.977 . S
C339 C336 1.453 . S
C340 H312 0.979 . S
C340 H313 0.980 . S
C340 H314 0.983 . S
C340 C336 1.684 . S
H341 C359 0.948 . S
H342 C300 0.948 . S
H343 C318 0.979 . S
H344 C318 0.980 . S
H345 C318 0.983 . S
H346 C317 0.982 . S
H347 C317 0.979 . S
H348 C317 0.977 . S
H349 C319 0.948 . S
H350 C321 0.947 . S
H351 C322 0.948 . S
H352 C328 0.982 . S
H353 C328 0.979 . S
H354 C328 0.977 . S
H355 C329 0.979 . S
H356 C329 0.980 . S
H357 C329 0.983 . S
H358 C302 0.947 . S
C359 C302 1.392 . S
C359 C303 1.419 . S
C359 H341 0.948 . S
C360 C361 1.391 . S
C360 C364 1.391 . S
C360 H402 0.948 . S
C361 C360 1.391 . S
C361 C362 1.391 . S
C362 C361 1.391 . S
C362 H418 0.947 . S
C362 C419 1.392 . S
C363 C364 1.391 . S
C363 C367 1.397 1_545 S
C363 C419 1.419 . S
C364 C360 1.391 . S
C364 C363 1.391 . S
C364 C365 1.399 . S
C365 C364 1.399 . S
C365 C368 1.396 1_545 S
C365 C377 1.453 1_545 S
C365 C378 1.684 . S
H366 C390 0.948 . S
C367 C363 1.397 1_565 S
C367 C368 1.394 . S
C367 C386 1.723 . S
C368 C365 1.396 1_565 S
C368 C367 1.394 . S
C368 C398 1.723 . S
H369 C392 0.947 . S
H370 C393 0.948 . S
H371 C399 0.982 . S
H372 C400 0.979 . S
H373 C400 0.980 . S
H374 C400 0.983 . S
H375 C399 0.979 . S
H376 C399 0.977 . S
C377 C365 1.453 1_565 S
C377 H406 0.982 . S
C377 H407 0.979 . S
C377 H408 0.977 . S
C378 C365 1.684 . S
C378 H403 0.979 . S
C378 H404 0.980 . S
C378 H405 0.983 . S
C379 C380 1.391 . S
C379 C384 1.391 . S
C379 H409 0.948 . S
C380 C379 1.391 . S
C380 C381 1.391 . S
C381 C380 1.391 . S
C381 C382 1.392 . S
C381 H410 0.947 . S
C382 C381 1.392 . S
C382 C383 1.419 . S
C382 H411 0.948 . S
C383 C382 1.419 . S
C383 C384 1.391 . S
C383 C387 1.397 1_545 S
C384 C379 1.391 . S
C384 C383 1.391 . S
C384 C385 1.399 . S
C385 C384 1.399 . S
C385 C386 1.396 1_545 S
C385 C388 1.453 1_545 S
C385 C389 1.684 . S
C386 C367 1.723 . S
C386 C385 1.396 1_565 S
C386 C387 1.394 . S
C387 C383 1.397 1_565 S
C387 C386 1.394 . S
C387 C397 1.723 . S
C388 C385 1.453 1_565 S
C388 H412 0.982 . S
C388 H413 0.979 . S
C388 H414 0.977 . S
C389 C385 1.684 . S
C389 H415 0.979 . S
C389 H416 0.980 . S
C389 H417 0.983 . S
C390 H366 0.948 . S
C390 C391 1.391 . S
C390 C395 1.391 . S
C391 C390 1.391 . S
C391 C392 1.391 . S
C392 H369 0.947 . S
C392 C391 1.391 . S
C392 C393 1.392 . S
C393 H370 0.948 . S
C393 C392 1.392 . S
C393 C394 1.419 . S
C394 C393 1.419 . S
C394 C395 1.391 . S
C394 C398 1.397 1_545 S
C395 C390 1.391 . S
C395 C394 1.391 . S
C395 C396 1.399 . S
C396 C395 1.399 . S
C396 C397 1.396 1_545 S
C396 C399 1.453 1_545 S
C396 C400 1.684 . S
C397 C387 1.723 . S
C397 C396 1.396 1_565 S
C397 C398 1.394 . S
C398 C368 1.723 . S
C398 C394 1.397 1_565 S
C398 C397 1.394 . S
C399 H371 0.982 . S
C399 H375 0.979 . S
C399 H376 0.977 . S
C399 C396 1.453 1_565 S
C400 H372 0.979 . S
C400 H373 0.980 . S
C400 H374 0.983 . S
C400 C396 1.684 . S
H401 C419 0.948 . S
H402 C360 0.948 . S
H403 C378 0.979 . S
H404 C378 0.980 . S
H405 C378 0.983 . S
H406 C377 0.982 . S
H407 C377 0.979 . S
H408 C377 0.977 . S
H409 C379 0.948 . S
H410 C381 0.947 . S
H411 C382 0.948 . S
H412 C388 0.982 . S
H413 C388 0.979 . S
H414 C388 0.977 . S
H415 C389 0.979 . S
H416 C389 0.980 . S
H417 C389 0.983 . S
H418 C362 0.947 . S
C419 C362 1.392 . S
C419 C363 1.419 . S
C419 H401 0.948 . S
C420 C421 1.391 1_554 S
C420 C424 1.391 . S
C420 H462 0.948 1_554 S
C421 C420 1.391 1_556 S
C421 C422 1.391 1_556 S
C422 C421 1.391 1_554 S
C422 H478 0.947 . S
C422 C479 1.392 . S
C423 C424 1.391 . S
C423 C427 1.397 . S
C423 C479 1.419 . S
C424 C420 1.391 . S
C424 C423 1.391 . S
C424 C425 1.399 . S
C425 C424 1.399 . S
C425 C428 1.396 . S
C425 C437 1.453 . S
C425 C438 1.684 . S
H426 C450 0.948 . S
C427 C423 1.397 . S
C427 C428 1.394 . S
C427 C446 1.723 . S
C428 C425 1.396 . S
C428 C427 1.394 . S
C428 C458 1.723 . S
H429 C452 0.947 . S
H430 C453 0.948 . S
H431 C459 0.982 . S
H432 C460 0.979 . S
H433 C460 0.980 . S
H434 C460 0.983 . S
H435 C459 0.979 . S
H436 C459 0.977 . S
C437 C425 1.453 . S
C437 H466 0.982 . S
C437 H467 0.979 . S
C437 H468 0.977 . S
C438 C425 1.684 . S
C438 H463 0.979 . S
C438 H464 0.980 . S
C438 H465 0.983 . S
C439 C440 1.391 . S
C439 C444 1.391 . S
C439 H469 0.948 . S
C440 C439 1.391 . S
C440 C441 1.391 . S
C441 C440 1.391 . S
C441 C442 1.392 . S
C441 H470 0.947 . S
C442 C441 1.392 . S
C442 C443 1.419 . S
C442 H471 0.948 . S
C443 C442 1.419 . S
C443 C444 1.391 . S
C443 C447 1.397 . S
C444 C439 1.391 . S
C444 C443 1.391 . S
C444 C445 1.399 . S
C445 C444 1.399 . S
C445 C446 1.396 . S
C445 C448 1.453 . S
C445 C449 1.684 . S
C446 C427 1.723 . S
C446 C445 1.396 . S
C446 C447 1.394 . S
C447 C443 1.397 . S
C447 C446 1.394 . S
C447 C457 1.723 . S
C448 C445 1.453 . S
C448 H472 0.982 . S
C448 H473 0.979 . S
C448 H474 0.977 . S
C449 C445 1.684 . S
C449 H475 0.979 . S
C449 H476 0.980 . S
C449 H477 0.983 . S
C450 H426 0.948 . S
C450 C451 1.391 . S
C450 C455 1.391 . S
C451 C450 1.391 . S
C451 C452 1.391 . S
C452 H429 0.947 . S
C452 C451 1.391 . S
C452 C453 1.392 . S
C453 H430 0.948 . S
C453 C452 1.392 . S
C453 C454 1.419 . S
C454 C453 1.419 . S
C454 C455 1.391 . S
C454 C458 1.397 . S
C455 C450 1.391 . S
C455 C454 1.391 . S
C455 C456 1.399 . S
C456 C455 1.399 . S
C456 C457 1.396 . S
C456 C459 1.453 . S
C456 C460 1.684 . S
C457 C447 1.723 . S
C457 C456 1.396 . S
C457 C458 1.394 . S
C458 C428 1.723 . S
C458 C454 1.397 . S
C458 C457 1.394 . S
C459 H431 0.982 . S
C459 H435 0.979 . S
C459 H436 0.977 . S
C459 C456 1.453 . S
C460 H432 0.979 . S
C460 H433 0.980 . S
C460 H434 0.983 . S
C460 C456 1.684 . S
H461 C479 0.948 . S
H462 C420 0.948 1_556 S
H463 C438 0.979 . S
H464 C438 0.980 . S
H465 C438 0.983 . S
H466 C437 0.982 . S
H467 C437 0.979 . S
H468 C437 0.977 . S
H469 C439 0.948 . S
H470 C441 0.947 . S
H471 C442 0.948 . S
H472 C448 0.982 . S
H473 C448 0.979 . S
H474 C448 0.977 . S
H475 C449 0.979 . S
H476 C449 0.980 . S
H477 C449 0.983 . S
H478 C422 0.947 . S
C479 C422 1.392 . S
C479 C423 1.419 . S
C479 H461 0.948 . S
O480 Zn481 1.953 . S
O480 C496 1.225 . S
Zn481 O480 1.953 . S
Zn481 O482 1.950 . S
Zn481 O488 1.919 1_565 S
Zn481 O493 1.924 . S
O482 Zn481 1.950 . S
O482 Zn483 1.901 1_565 S
O482 Zn484 1.953 . S
O482 Zn485 1.963 . S
Zn483 O482 1.901 1_545 S
Zn483 O486 1.933 1_455 S
Zn483 O489 1.941 . S
Zn483 O490 1.965 . S
Zn484 O482 1.953 . S
Zn484 O491 1.938 1_565 S
Zn484 O492 1.906 . S
Zn484 O502 1.953 . S
Zn485 O482 1.963 . S
Zn485 O487 1.932 1_455 S
Zn485 O494 1.975 1_455 S
Zn485 O495 1.910 . S
O486 Zn483 1.933 1_655 S
O486 C497 1.226 . S
O487 Zn485 1.932 1_655 S
O487 C497 1.307 1_565 S
O488 Zn481 1.919 1_545 S
O488 C499 1.253 . S
O489 Zn483 1.941 . S
O489 C499 1.283 . S
O490 Zn483 1.965 . S
O490 C498 1.303 . S
O491 Zn484 1.938 1_545 S
O491 C498 1.247 . S
O492 Zn484 1.906 . S
O492 C500 1.304 . S
O493 Zn481 1.924 . S
O493 C501 1.311 . S
O494 Zn485 1.975 1_655 S
O494 C500 1.270 1_655 S
O495 Zn485 1.910 . S
O495 C501 1.231 . S
C496 O480 1.225 . S
C496 O502 1.298 . S
C497 O486 1.226 . S
C497 O487 1.307 1_545 S
C498 O490 1.303 . S
C498 O491 1.247 . S
C499 O488 1.253 . S
C499 O489 1.283 . S
C500 O492 1.304 . S
C500 O494 1.270 1_455 S
C501 O493 1.311 . S
C501 O495 1.231 . S
O502 Zn484 1.953 . S
O502 C496 1.298 . S
O503 Zn504 1.953 . S
O503 C519 1.225 . S
Zn504 O503 1.953 . S
Zn504 O505 1.949 . S
Zn504 O511 1.919 . S
Zn504 O516 1.924 . S
O505 Zn504 1.949 . S
O505 Zn506 1.923 1_545 S
O505 Zn507 1.950 . S
O505 Zn508 1.945 1_545 S
Zn506 O505 1.923 1_565 S
Zn506 O509 1.933 . S
Zn506 O512 1.941 . S
Zn506 O513 1.965 . S
Zn507 O505 1.950 . S
Zn507 O514 1.938 . S
Zn507 O515 1.906 1_545 S
Zn507 O525 1.953 . S
Zn508 O505 1.945 1_565 S
Zn508 O510 1.932 . S
Zn508 O517 1.977 . S
Zn508 O518 1.910 1_565 S
O509 Zn506 1.933 . S
O509 C520 1.226 . S
O510 Zn508 1.932 . S
O510 C520 1.307 . S
O511 Zn504 1.919 . S
O511 C522 1.253 . S
O512 Zn506 1.941 . S
O512 C522 1.283 1_565 S
O513 Zn506 1.965 . S
O513 C521 1.303 . S
O514 Zn507 1.938 . S
O514 C521 1.247 1_545 S
O515 Zn507 1.906 1_565 S
O515 C523 1.304 . S
O516 Zn504 1.924 . S
O516 C524 1.311 . S
O517 Zn508 1.977 . S
O517 C523 1.272 . S
O518 Zn508 1.910 1_545 S
O518 C524 1.231 . S
C519 O503 1.225 . S
C519 O525 1.298 . S
C520 O509 1.226 . S
C520 O510 1.307 . S
C521 O513 1.303 . S
C521 O514 1.247 1_565 S
C522 O511 1.253 . S
C522 O512 1.283 1_545 S
C523 O515 1.304 . S
C523 O517 1.272 . S
C524 O516 1.311 . S
C524 O518 1.231 . S
O525 Zn507 1.953 . S
O525 C519 1.298 . S
O526 Zn527 1.953 . S
O526 C542 1.225 . S
Zn527 O526 1.953 . S
Zn527 O528 1.949 . S
Zn527 O534 1.919 . S
Zn527 O539 1.924 . S
O528 Zn527 1.949 . S
O528 Zn529 1.923 . S
O528 Zn530 1.950 . S
O528 Zn531 1.945 . S
Zn529 O528 1.923 . S
Zn529 O532 1.933 . S
Zn529 O535 1.941 . S
Zn529 O536 1.965 . S
Zn530 O528 1.950 . S
Zn530 O537 1.938 . S
Zn530 O538 1.906 . S
Zn530 O548 1.953 . S
Zn531 O528 1.945 . S
Zn531 O533 1.932 . S
Zn531 O540 1.977 . S
Zn531 O541 1.910 . S
O532 Zn529 1.933 . S
O532 C543 1.226 . S
O533 Zn531 1.932 . S
O533 C543 1.307 . S
O534 Zn527 1.919 . S
O534 C545 1.253 . S
O535 Zn529 1.941 . S
O535 C545 1.283 . S
O536 Zn529 1.965 . S
O536 C544 1.303 . S
O537 Zn530 1.938 . S
O537 C544 1.247 . S
O538 Zn530 1.906 . S
O538 C546 1.304 . S
O539 Zn527 1.924 . S
O539 C547 1.311 . S
O540 Zn531 1.977 . S
O540 C546 1.272 . S
O541 Zn531 1.910 . S
O541 C547 1.231 . S
C542 O526 1.225 . S
C542 O548 1.298 . S
C543 O532 1.226 . S
C543 O533 1.307 . S
C544 O536 1.303 . S
C544 O537 1.247 . S
C545 O534 1.253 . S
C545 O535 1.283 . S
C546 O538 1.304 . S
C546 O540 1.272 . S
C547 O539 1.311 . S
C547 O541 1.231 . S
O548 Zn530 1.953 . S
O548 C542 1.298 . S
O549 Zn550 1.953 1_655 S
O549 C565 1.225 . S
Zn550 O549 1.953 1_455 S
Zn550 O551 1.949 . S
Zn550 O557 1.919 . S
Zn550 O562 1.924 . S
O551 Zn550 1.949 . S
O551 Zn552 1.923 . S
O551 Zn553 1.950 1_455 S
O551 Zn554 1.945 . S
Zn552 O551 1.923 . S
Zn552 O555 1.933 . S
Zn552 O558 1.933 1_455 S
Zn552 O559 1.965 1_455 S
Zn553 O551 1.950 1_655 S
Zn553 O560 1.938 . S
Zn553 O561 1.906 1_655 S
Zn553 O571 1.953 . S
Zn554 O551 1.945 . S
Zn554 O556 1.932 . S
Zn554 O563 1.977 . S
Zn554 O564 1.910 . S
O555 Zn552 1.933 . S
O555 C566 1.226 . S
O556 Zn554 1.932 . S
O556 C566 1.307 . S
O557 Zn550 1.919 . S
O557 C568 1.253 . S
O558 Zn552 1.933 1_655 S
O558 C568 1.276 1_655 S
O559 Zn552 1.965 1_655 S
O559 C567 1.303 . S
O560 Zn553 1.938 . S
O560 C567 1.247 . S
O561 Zn553 1.906 1_455 S
O561 C569 1.304 . S
O562 Zn550 1.924 . S
O562 C570 1.311 . S
O563 Zn554 1.977 . S
O563 C569 1.272 . S
O564 Zn554 1.910 . S
O564 C570 1.231 . S
C565 O549 1.225 . S
C565 O571 1.298 . S
C566 O555 1.226 . S
C566 O556 1.307 . S
C567 O559 1.303 . S
C567 O560 1.247 . S
C568 O557 1.253 . S
C568 O558 1.276 1_455 S
C569 O561 1.304 . S
C569 O563 1.272 . S
C570 O562 1.311 . S
C570 O564 1.231 . S
O571 Zn553 1.953 . S
O571 C565 1.298 . S
H572 C578 0.930 . S
H573 C581 0.930 . S
H574 C582 0.930 . S
H575 C583 0.930 . S
H576 C586 0.930 . S
H577 C587 0.930 . S
C578 H572 0.930 . S
C578 C579 1.370 . S
C578 C580 1.415 . S
C579 C578 1.370 . S
C579 C581 1.401 1_565 S
C580 C578 1.415 . S
C580 C585 1.425 1_565 S
C580 C587 1.409 . S
C581 H573 0.930 . S
C581 C579 1.401 1_545 S
C581 C582 1.362 . S
C582 H574 0.930 . S
C582 C581 1.362 . S
C582 C585 1.409 . S
C583 H575 0.930 . S
C583 C584 1.355 1_545 S
C583 C585 1.415 . S
C584 C583 1.355 1_565 S
C584 C586 1.419 . S
C585 C580 1.425 1_545 S
C585 C582 1.409 . S
C585 C583 1.415 . S
C586 H576 0.930 . S
C586 C584 1.419 . S
C586 C587 1.362 . S
C587 H577 0.930 . S
C587 C580 1.409 . S
C587 C586 1.362 . S
H588 C594 0.930 . S
H589 C597 0.930 . S
H590 C598 0.930 . S
H591 C599 0.930 . S
H592 C602 0.930 . S
H593 C603 0.930 . S
C594 H588 0.930 . S
C594 C595 1.355 . S
C594 C596 1.415 . S
C595 C594 1.355 . S
C595 C597 1.419 . S
C596 C594 1.415 . S
C596 C601 1.425 . S
C596 C603 1.409 . S
C597 H589 0.930 . S
C597 C595 1.419 . S
C597 C598 1.362 . S
C598 H590 0.930 . S
C598 C597 1.362 . S
C598 C601 1.409 . S
C599 H591 0.930 . S
C599 C600 1.355 . S
C599 C601 1.415 . S
C600 C599 1.355 . S
C600 C602 1.419 . S
C601 C596 1.425 . S
C601 C598 1.409 . S
C601 C599 1.415 . S
C602 H592 0.930 . S
C602 C600 1.419 . S
C602 C603 1.362 . S
C603 H593 0.930 . S
C603 C596 1.409 . S
C603 C602 1.362 . S
H604 C610 0.930 . S
H605 C613 0.930 . S
H606 C614 0.930 . S
H607 C615 0.930 . S
H608 C618 0.930 . S
H609 C619 0.930 . S
C610 H604 0.930 . S
C610 C611 1.355 . S
C610 C612 1.415 . S
C611 C610 1.355 . S
C611 C613 1.419 . S
C612 C610 1.415 . S
C612 C617 1.425 . S
C612 C619 1.409 . S
C613 H605 0.930 . S
C613 C611 1.419 . S
C613 C614 1.362 . S
C614 H606 0.930 . S
C614 C613 1.362 . S
C614 C617 1.409 . S
C615 H607 0.930 . S
C615 C616 1.355 . S
C615 C617 1.415 . S
C616 C615 1.355 . S
C616 C618 1.419 . S
C617 C612 1.425 . S
C617 C614 1.409 . S
C617 C615 1.415 . S
C618 H608 0.930 . S
C618 C616 1.419 . S
C618 C619 1.362 . S
C619 H609 0.930 . S
C619 C612 1.409 . S
C619 C618 1.362 . S
H620 C626 0.930 . S
H621 C629 0.930 . S
H622 C630 0.930 . S
H623 C631 0.930 . S
H624 C634 0.930 . S
H625 C635 0.930 . S
C626 H620 0.930 . S
C626 C627 1.355 . S
C626 C628 1.415 . S
C627 C626 1.355 . S
C627 C629 1.419 . S
C628 C626 1.415 . S
C628 C633 1.425 . S
C628 C635 1.409 . S
C629 H621 0.930 . S
C629 C627 1.419 . S
C629 C630 1.362 . S
C630 H622 0.930 . S
C630 C629 1.362 . S
C630 C633 1.409 . S
C631 H623 0.930 . S
C631 C632 1.355 . S
C631 C633 1.415 . S
C632 C631 1.355 . S
C632 C634 1.419 . S
C633 C628 1.425 . S
C633 C630 1.409 . S
C633 C631 1.415 . S
C634 H624 0.930 . S
C634 C632 1.419 . S
C634 C635 1.362 . S
C635 H625 0.930 . S
C635 C628 1.409 . S
C635 C634 1.362 . S
H636 C642 0.927 1_564 S
H637 C645 0.930 . S
H638 C646 0.930 . S
H639 C647 0.930 . S
H640 C650 0.935 . S
H641 C651 0.931 . S
C642 H636 0.927 1_546 S
C642 C643 1.357 . S
C642 C644 1.416 . S
C643 C642 1.357 . S
C643 C645 1.419 . S
C644 C642 1.416 . S
C644 C649 1.425 . S
C644 C651 1.408 1_545 S
C645 H637 0.930 . S
C645 C643 1.419 . S
C645 C646 1.362 . S
C646 H638 0.930 . S
C646 C645 1.362 . S
C646 C649 1.409 . S
C647 H639 0.930 . S
C647 C648 1.355 . S
C647 C649 1.415 . S
C648 C647 1.355 . S
C648 C650 1.419 . S
C649 C644 1.425 . S
C649 C646 1.409 . S
C649 C647 1.415 . S
C650 H640 0.935 . S
C650 C648 1.419 . S
C650 C651 1.362 1_545 S
C651 H641 0.931 . S
C651 C644 1.408 1_565 S
C651 C650 1.362 1_565 S
H652 C658 0.930 . S
H653 C661 0.930 . S
H654 C662 0.930 . S
H655 C663 0.930 . S
H656 C666 0.930 . S
H657 C667 0.930 . S
C658 H652 0.930 . S
C658 C659 1.355 . S
C658 C660 1.415 . S
C659 C658 1.355 . S
C659 C661 1.419 . S
C660 C658 1.415 . S
C660 C665 1.425 . S
C660 C667 1.409 . S
C661 H653 0.930 . S
C661 C659 1.419 . S
C661 C662 1.362 . S
C662 H654 0.930 . S
C662 C661 1.362 . S
C662 C665 1.409 . S
C663 H655 0.930 . S
C663 C664 1.355 . S
C663 C665 1.415 . S
C664 C663 1.355 . S
C664 C666 1.419 . S
C665 C660 1.425 . S
C665 C662 1.409 . S
C665 C663 1.415 . S
C666 H656 0.930 . S
C666 C664 1.419 . S
C666 C667 1.362 . S
C667 H657 0.930 . S
C667 C660 1.409 . S
C667 C666 1.362 . S
H668 C674 0.930 . S
H669 C677 0.934 . S
H670 C678 0.930 . S
H671 C679 0.930 . S
H672 C682 0.930 . S
H673 C683 0.930 . S
C674 H668 0.930 . S
C674 C675 1.355 . S
C674 C676 1.415 . S
C675 C674 1.355 . S
C675 C677 1.419 . S
C676 C674 1.415 . S
C676 C681 1.425 . S
C676 C683 1.409 . S
C677 H669 0.934 . S
C677 C675 1.419 . S
C677 C678 1.362 . S
C678 H670 0.930 . S
C678 C677 1.362 . S
C678 C681 1.409 . S
C679 H671 0.930 . S
C679 C680 1.355 . S
C679 C681 1.415 . S
C680 C679 1.355 . S
C680 C682 1.419 . S
C681 C676 1.425 . S
C681 C678 1.409 . S
C681 C679 1.415 . S
C682 H672 0.930 . S
C682 C680 1.419 . S
C682 C683 1.362 . S
C683 H673 0.930 . S
C683 C676 1.409 . S
C683 C682 1.362 . S
H684 C690 0.930 1_554 S
H685 C693 0.930 . S
H686 C694 0.930 . S
H687 C695 0.930 . S
H688 C698 0.930 . S
H689 C699 0.930 . S
C690 H684 0.930 1_556 S
C690 C691 1.355 1_455 S
C690 C692 1.415 . S
C691 C690 1.355 1_655 S
C691 C693 1.419 . S
C692 C690 1.415 . S
C692 C697 1.425 1_455 S
C692 C699 1.409 . S
C693 H685 0.930 . S
C693 C691 1.419 . S
C693 C694 1.362 . S
C694 H686 0.930 . S
C694 C693 1.362 . S
C694 C697 1.409 . S
C695 H687 0.930 . S
C695 C696 1.355 1_655 S
C695 C697 1.415 . S
C696 C695 1.355 1_455 S
C696 C698 1.419 . S
C697 C692 1.425 1_655 S
C697 C694 1.409 . S
C697 C695 1.415 . S
C698 H688 0.930 . S
C698 C696 1.419 . S
C698 C699 1.362 . S
C699 H689 0.930 . S
C699 C692 1.409 . S
C699 C698 1.362 . S
H700 C706 0.930 . S
H701 C709 0.930 . S
H702 C710 0.930 . S
H703 C711 0.930 . S
H704 C714 0.930 . S
H705 C715 0.930 . S
C706 H700 0.930 . S
C706 C707 1.355 . S
C706 C708 1.415 . S
C707 C706 1.355 . S
C707 C709 1.419 . S
C708 C706 1.415 . S
C708 C713 1.425 . S
C708 C715 1.409 . S
C709 H701 0.930 . S
C709 C707 1.419 . S
C709 C710 1.362 . S
C710 H702 0.930 . S
C710 C709 1.362 . S
C710 C713 1.409 . S
C711 H703 0.930 . S
C711 C712 1.355 . S
C711 C713 1.415 . S
C712 C711 1.355 . S
C712 C714 1.419 . S
C713 C708 1.425 . S
C713 C710 1.409 . S
C713 C711 1.415 . S
C714 H704 0.930 . S
C714 C712 1.419 . S
C714 C715 1.362 . S
C715 H705 0.930 . S
C715 C708 1.409 . S
C715 C714 1.362 . S
H716 C722 0.930 . S
H717 C725 0.930 . S
H718 C726 0.930 . S
H719 C727 0.930 . S
H720 C730 0.930 . S
H721 C731 0.930 . S
C722 H716 0.930 . S
C722 C723 1.357 . S
C722 C724 1.415 . S
C723 C722 1.357 . S
C723 C725 1.415 1_545 S
C724 C722 1.415 . S
C724 C729 1.425 1_545 S
C724 C731 1.409 . S
C725 H717 0.930 . S
C725 C723 1.415 1_565 S
C725 C726 1.362 . S
C726 H718 0.930 . S
C726 C725 1.362 . S
C726 C729 1.409 . S
C727 H719 0.930 . S
C727 C728 1.355 . S
C727 C729 1.415 . S
C728 C727 1.355 . S
C728 C730 1.419 1_565 S
C729 C724 1.425 1_565 S
C729 C726 1.409 . S
C729 C727 1.415 . S
C730 H720 0.930 . S
C730 C728 1.419 1_545 S
C730 C731 1.362 . S
C731 H721 0.930 . S
C731 C724 1.409 . S
C731 C730 1.362 . S
H732 C738 0.930 . S
H733 C741 0.930 . S
H734 C742 0.930 . S
H735 C743 0.930 . S
H736 C746 0.930 . S
H737 C747 0.930 . S
C738 H732 0.930 . S
C738 C739 1.355 . S
C738 C740 1.415 . S
C739 C738 1.355 . S
C739 C741 1.419 . S
C740 C738 1.415 . S
C740 C745 1.425 . S
C740 C747 1.409 . S
C741 H733 0.930 . S
C741 C739 1.419 . S
C741 C742 1.362 . S
C742 H734 0.930 . S
C742 C741 1.362 . S
C742 C745 1.409 . S
C743 H735 0.930 . S
C743 C744 1.355 . S
C743 C745 1.415 . S
C744 C743 1.355 . S
C744 C746 1.419 . S
C745 C740 1.425 . S
C745 C742 1.409 . S
C745 C743 1.415 . S
C746 H736 0.930 . S
C746 C744 1.419 . S
C746 C747 1.362 . S
C747 H737 0.930 . S
C747 C740 1.409 . S
C747 C746 1.362 . S
H748 C754 0.930 . S
H749 C757 0.930 . S
H750 C758 0.930 . S
H751 C759 0.930 . S
H752 C762 0.930 . S
H753 C763 0.930 . S
C754 H748 0.930 . S
C754 C755 1.355 . S
C754 C756 1.415 . S
C755 C754 1.355 . S
C755 C757 1.419 . S
C756 C754 1.415 . S
C756 C761 1.425 . S
C756 C763 1.409 . S
C757 H749 0.930 . S
C757 C755 1.419 . S
C757 C758 1.362 . S
C758 H750 0.930 . S
C758 C757 1.362 . S
C758 C761 1.409 . S
C759 H751 0.930 . S
C759 C760 1.355 . S
C759 C761 1.415 . S
C760 C759 1.355 . S
C760 C762 1.419 . S
C761 C756 1.425 . S
C761 C758 1.409 . S
C761 C759 1.415 . S
C762 H752 0.930 . S
C762 C760 1.419 . S
C762 C763 1.362 . S
C763 H753 0.930 . S
C763 C756 1.409 . S
C763 C762 1.362 . S
H764 C770 0.930 . S
H765 C773 0.930 . S
H766 C774 0.930 . S
H767 C775 0.930 . S
H768 C778 0.930 . S
H769 C779 0.930 . S
C770 H764 0.930 . S
C770 C771 1.355 1_455 S
C770 C772 1.415 . S
C771 C770 1.355 1_655 S
C771 C773 1.419 . S
C772 C770 1.415 . S
C772 C777 1.425 . S
C772 C779 1.409 . S
C773 H765 0.930 . S
C773 C771 1.419 . S
C773 C774 1.362 . S
C774 H766 0.930 . S
C774 C773 1.362 . S
C774 C777 1.409 1_655 S
C775 H767 0.930 . S
C775 C776 1.355 . S
C775 C777 1.415 . S
C776 C775 1.355 . S
C776 C778 1.419 . S
C777 C772 1.425 . S
C777 C774 1.409 1_455 S
C777 C775 1.415 . S
C778 H768 0.930 . S
C778 C776 1.419 . S
C778 C779 1.362 . S
C779 H769 0.930 . S
C779 C772 1.409 . S
C779 C778 1.362 . S
H780 C786 0.930 . S
H781 C789 0.930 . S
H782 C790 0.930 . S
H783 C791 0.930 . S
H784 C794 0.930 . S
H785 C795 0.930 . S
C786 H780 0.930 . S
C786 C787 1.355 1_545 S
C786 C788 1.415 . S
C787 C786 1.355 1_565 S
C787 C789 1.419 . S
C788 C786 1.415 . S
C788 C793 1.425 . S
C788 C795 1.409 . S
C789 H781 0.930 . S
C789 C787 1.419 . S
C789 C790 1.362 . S
C790 H782 0.930 . S
C790 C789 1.362 . S
C790 C793 1.409 1_565 S
C791 H783 0.930 . S
C791 C792 1.355 . S
C791 C793 1.415 . S
C792 C791 1.355 . S
C792 C794 1.419 . S
C793 C788 1.425 . S
C793 C790 1.409 1_545 S
C793 C791 1.415 . S
C794 H784 0.930 . S
C794 C792 1.419 . S
C794 C795 1.362 . S
C795 H785 0.930 . S
C795 C788 1.409 . S
C795 C794 1.362 . S
H796 C802 0.930 . S
H797 C805 0.930 . S
H798 C806 0.930 . S
H799 C807 0.930 . S
H800 C810 0.930 . S
H801 C811 0.930 . S
C802 H796 0.930 . S
C802 C803 1.355 . S
C802 C804 1.415 . S
C803 C802 1.355 . S
C803 C805 1.419 . S
C804 C802 1.415 . S
C804 C809 1.425 . S
C804 C811 1.409 . S
C805 H797 0.930 . S
C805 C803 1.419 . S
C805 C806 1.362 . S
C806 H798 0.930 . S
C806 C805 1.362 . S
C806 C809 1.409 . S
C807 H799 0.930 . S
C807 C808 1.355 . S
C807 C809 1.415 . S
C808 C807 1.355 . S
C808 C810 1.419 . S
C809 C804 1.425 . S
C809 C806 1.409 . S
C809 C807 1.415 . S
C810 H800 0.930 . S
C810 C808 1.419 . S
C810 C811 1.362 . S
C811 H801 0.930 . S
C811 C804 1.409 . S
C811 C810 1.362 . S
H812 C818 0.930 . S
H813 C821 0.930 . S
H814 C822 0.930 . S
H815 C823 0.930 . S
H816 C826 0.930 . S
H817 C827 0.930 . S
C818 H812 0.930 . S
C818 C819 1.355 . S
C818 C820 1.415 . S
C819 C818 1.355 . S
C819 C821 1.419 . S
C820 C818 1.415 . S
C820 C825 1.425 . S
C820 C827 1.409 . S
C821 H813 0.930 . S
C821 C819 1.419 . S
C821 C822 1.362 . S
C822 H814 0.930 . S
C822 C821 1.362 . S
C822 C825 1.409 . S
C823 H815 0.930 . S
C823 C824 1.355 . S
C823 C825 1.415 . S
C824 C823 1.355 . S
C824 C826 1.419 . S
C825 C820 1.425 . S
C825 C822 1.409 . S
C825 C823 1.415 . S
C826 H816 0.930 . S
C826 C824 1.419 . S
C826 C827 1.362 . S
C827 H817 0.930 . S
C827 C820 1.409 . S
C827 C826 1.362 . S
H828 C834 0.930 . S
H829 C837 0.930 . S
H830 C838 0.930 . S
H831 C839 0.930 . S
H832 C842 0.930 . S
H833 C843 0.930 . S
C834 H828 0.930 . S
C834 C835 1.355 1_556 S
C834 C836 1.415 . S
C835 C834 1.355 1_554 S
C835 C837 1.419 . S
C836 C834 1.415 . S
C836 C841 1.425 . S
C836 C843 1.409 . S
C837 H829 0.930 . S
C837 C835 1.419 . S
C837 C838 1.362 . S
C838 H830 0.930 . S
C838 C837 1.362 . S
C838 C841 1.409 1_554 S
C839 H831 0.930 . S
C839 C840 1.355 . S
C839 C841 1.415 . S
C840 C839 1.355 . S
C840 C842 1.419 . S
C841 C836 1.425 . S
C841 C838 1.409 1_556 S
C841 C839 1.415 . S
C842 H832 0.930 . S
C842 C840 1.419 . S
C842 C843 1.362 . S
C843 H833 0.930 . S
C843 C836 1.409 . S
C843 C842 1.362 . S
H844 C850 0.930 . S
H845 C853 0.930 . S
H846 C854 0.930 1_554 S
H847 C855 0.930 . S
H848 C858 0.930 . S
H849 C859 0.930 . S
C850 H844 0.930 . S
C850 C851 1.344 1_565 S
C850 C852 1.415 . S
C851 C850 1.344 1_545 S
C851 C853 1.432 1_556 S
C852 C850 1.415 . S
C852 C857 1.425 1_565 S
C852 C859 1.409 . S
C853 H845 0.930 . S
C853 C851 1.432 1_554 S
C853 C854 1.362 1_554 S
C854 H846 0.930 1_556 S
C854 C853 1.362 1_556 S
C854 C857 1.409 . S
C855 H847 0.930 . S
C855 C856 1.355 1_545 S
C855 C857 1.415 . S
C856 C855 1.355 1_565 S
C856 C858 1.419 . S
C857 C852 1.425 1_545 S
C857 C854 1.409 . S
C857 C855 1.415 . S
C858 H848 0.930 . S
C858 C856 1.419 . S
C858 C859 1.362 . S
C859 H849 0.930 . S
C859 C852 1.409 . S
C859 C858 1.362 . S
H860 C866 0.930 . S
H861 C869 0.930 . S
H862 C870 0.930 . S
H863 C871 0.930 . S
H864 C874 0.930 . S
H865 C875 0.930 . S
C866 H860 0.930 . S
C866 C867 1.355 . S
C866 C868 1.415 . S
C867 C866 1.355 . S
C867 C869 1.419 . S
C868 C866 1.415 . S
C868 C873 1.425 . S
C868 C875 1.409 . S
C869 H861 0.930 . S
C869 C867 1.419 . S
C869 C870 1.362 . S
C870 H862 0.930 . S
C870 C869 1.362 . S
C870 C873 1.409 . S
C871 H863 0.930 . S
C871 C872 1.355 . S
C871 C873 1.415 . S
C872 C871 1.355 . S
C872 C874 1.419 . S
C873 C868 1.425 . S
C873 C870 1.409 . S
C873 C871 1.415 . S
C874 H864 0.930 . S
C874 C872 1.419 . S
C874 C875 1.362 . S
C875 H865 0.930 . S
C875 C868 1.409 . S
C875 C874 1.362 . S
H876 C882 0.930 . S
H877 C885 0.930 . S
H878 C886 0.930 . S
H879 C887 0.930 . S
H880 C890 0.930 . S
H881 C891 0.930 . S
C882 H876 0.930 . S
C882 C883 1.355 . S
C882 C884 1.415 . S
C883 C882 1.355 . S
C883 C885 1.419 . S
C884 C882 1.415 . S
C884 C889 1.425 . S
C884 C891 1.409 . S
C885 H877 0.930 . S
C885 C883 1.419 . S
C885 C886 1.362 . S
C886 H878 0.930 . S
C886 C885 1.362 . S
C886 C889 1.409 . S
C887 H879 0.930 . S
C887 C888 1.355 . S
C887 C889 1.415 . S
C888 C887 1.355 . S
C888 C890 1.419 . S
C889 C884 1.425 . S
C889 C886 1.409 . S
C889 C887 1.415 . S
C890 H880 0.930 . S
C890 C888 1.419 . S
C890 C891 1.362 . S
C891 H881 0.930 . S
C891 C884 1.409 . S
C891 C890 1.362 . S
H892 C898 0.930 . S
H893 C901 0.930 . S
H894 C902 0.930 . S
H895 C903 0.930 . S
H896 C906 0.930 . S
H897 C907 0.930 . S
C898 H892 0.930 . S
C898 C899 1.355 . S
C898 C900 1.415 . S
C899 C898 1.355 . S
C899 C901 1.419 1_655 S
C900 C898 1.415 . S
C900 C905 1.425 1_655 S
C900 C907 1.409 . S
C901 H893 0.930 . S
C901 C899 1.419 1_455 S
C901 C902 1.362 . S
C902 H894 0.930 . S
C902 C901 1.362 . S
C902 C905 1.409 . S
C903 H895 0.930 . S
C903 C904 1.355 1_455 S
C903 C905 1.415 . S
C904 C903 1.355 1_655 S
C904 C906 1.419 . S
C905 C900 1.425 1_455 S
C905 C902 1.409 . S
C905 C903 1.415 . S
C906 H896 0.930 . S
C906 C904 1.419 . S
C906 C907 1.362 . S
C907 H897 0.930 . S
C907 C900 1.409 . S
C907 C906 1.362 . S
H908 C914 0.930 . S
H909 C917 0.930 . S
H910 C918 0.930 . S
H911 C919 0.930 . S
H912 C922 0.930 . S
H913 C923 0.930 . S
C914 H908 0.930 . S
C914 C915 1.355 . S
C914 C916 1.415 . S
C915 C914 1.355 . S
C915 C917 1.419 1_565 S
C916 C914 1.415 . S
C916 C921 1.425 . S
C916 C923 1.409 . S
C917 H909 0.930 . S
C917 C915 1.419 1_545 S
C917 C918 1.362 . S
C918 H910 0.930 . S
C918 C917 1.362 . S
C918 C921 1.409 1_545 S
C919 H911 0.930 . S
C919 C920 1.355 . S
C919 C921 1.415 . S
C920 C919 1.355 . S
C920 C922 1.419 . S
C921 C916 1.425 . S
C921 C918 1.409 1_565 S
C921 C919 1.415 . S
C922 H912 0.930 . S
C922 C920 1.419 . S
C922 C923 1.362 . S
C923 H913 0.930 . S
C923 C916 1.409 . S
C923 C922 1.362 . S
H924 C930 0.930 . S
H925 C933 0.930 . S
H926 C934 0.930 . S
H927 C935 0.930 . S
H928 C938 0.930 . S
H929 C939 0.930 . S
C930 H924 0.930 . S
C930 C931 1.355 . S
C930 C932 1.415 . S
C931 C930 1.355 . S
C931 C933 1.419 . S
C932 C930 1.415 . S
C932 C937 1.425 . S
C932 C939 1.409 . S
C933 H925 0.930 . S
C933 C931 1.419 . S
C933 C934 1.362 . S
C934 H926 0.930 . S
C934 C933 1.362 . S
C934 C937 1.409 . S
C935 H927 0.930 . S
C935 C936 1.355 . S
C935 C937 1.415 . S
C936 C935 1.355 . S
C936 C938 1.419 . S
C937 C932 1.425 . S
C937 C934 1.409 . S
C937 C935 1.415 . S
C938 H928 0.930 . S
C938 C936 1.419 . S
C938 C939 1.362 . S
C939 H929 0.930 . S
C939 C932 1.409 . S
C939 C938 1.362 . S
H940 C946 0.930 . S
H941 C949 0.930 . S
H942 C950 0.930 . S
H943 C951 0.930 . S
H944 C954 0.930 . S
H945 C955 0.930 . S
C946 H940 0.930 . S
C946 C947 1.355 . S
C946 C948 1.415 . S
C947 C946 1.355 . S
C947 C949 1.419 . S
C948 C946 1.415 . S
C948 C953 1.425 . S
C948 C955 1.409 . S
C949 H941 0.930 . S
C949 C947 1.419 . S
C949 C950 1.362 . S
C950 H942 0.930 . S
C950 C949 1.362 . S
C950 C953 1.409 . S
C951 H943 0.930 . S
C951 C952 1.355 . S
C951 C953 1.415 . S
C952 C951 1.355 . S
C952 C954 1.419 . S
C953 C948 1.425 . S
C953 C950 1.409 . S
C953 C951 1.415 . S
C954 H944 0.930 . S
C954 C952 1.419 . S
C954 C955 1.362 . S
C955 H945 0.930 . S
C955 C948 1.409 . S
C955 C954 1.362 . S
C579 C391 1.826 1_565 S
C584 C496 1.782 . S
C600 C519 1.939 . S
C595 C451 2.012 . S
C616 C542 1.770 . S
C611 C241 1.631 . S
C632 C569 1.670 . S
C627 C331 1.602 . S
C648 C497 1.619 . S
C643 C121 1.497 1_545 S
C659 C211 1.702 1_556 S
C664 C520 1.730 . S
C675 C31 1.618 . S
C680 C543 1.596 . S
C691 C91 1.595 1_556 S
C696 C568 1.754 . S
C712 C498 0.394 . S
C707 C301 0.655 . S
C728 C521 0.145 . S
C723 C380 0.161 . S
C744 C544 0.274 . S
C739 C440 0.362 . S
C755 C260 0.746 . S
C760 C570 0.747 . S
C771 C61 0.569 . S
C776 C501 0.770 . S
C792 C524 0.741 . S
C787 C140 0.497 . S
C808 C547 0.635 . S
C803 C200 0.637 . S
C819 C20 0.278 . S
C824 C567 0.158 . S
C835 C320 1.972 . S
C840 C499 1.956 . S
C851 C361 1.687 1_556 S
C856 C522 1.903 1_565 S
C872 C545 1.959 . S
C867 C421 1.808 . S
C888 C566 1.763 . S
C883 C271 1.762 . S
C899 C80 2.094 . S
C904 C500 2.007 1_655 S
C920 C523 1.820 . S
C915 C151 1.906 . S
C936 C546 1.884 . S
C931 C181 1.759 . S
C947 C1 1.886 . S
C952 C565 2.094 . S
