# Generated by pormake.
# Topology ftw, (4,12)-cn, num edge types: 1
# Building blocks:
#     Node 0, Type 0, BuildingBlock: KUFVIS_clean_linker_0, # of connection points: 4
#     Node 1, Type 0, BuildingBlock: KUFVIS_clean_linker_0, # of connection points: 4
#     Node 2, Type 0, BuildingBlock: KUFVIS_clean_linker_0, # of connection points: 4
#     Node 3, Type 1, BuildingBlock: QEWDON_clean_sbu_0, # of connection points: 12
#     Edge 4, Type (0, 1), BuildingBlock: XIVTED_clean_linker_0, # of connection points: 2
#     Edge 5, Type (0, 1), BuildingBlock: XIVTED_clean_linker_0, # of connection points: 2
#     Edge 6, Type (0, 1), BuildingBlock: XIVTED_clean_linker_0, # of connection points: 2
#     Edge 7, Type (0, 1), BuildingBlock: XIVTED_clean_linker_0, # of connection points: 2
#     Edge 8, Type (0, 1), BuildingBlock: XIVTED_clean_linker_0, # of connection points: 2
#     Edge 9, Type (0, 1), BuildingBlock: XIVTED_clean_linker_0, # of connection points: 2
#     Edge 10, Type (0, 1), BuildingBlock: XIVTED_clean_linker_0, # of connection points: 2
#     Edge 11, Type (0, 1), BuildingBlock: XIVTED_clean_linker_0, # of connection points: 2
#     Edge 12, Type (0, 1), BuildingBlock: XIVTED_clean_linker_0, # of connection points: 2
#     Edge 13, Type (0, 1), BuildingBlock: XIVTED_clean_linker_0, # of connection points: 2
#     Edge 14, Type (0, 1), BuildingBlock: XIVTED_clean_linker_0, # of connection points: 2
#     Edge 15, Type (0, 1), BuildingBlock: XIVTED_clean_linker_0, # of connection points: 2
# Relax obj value: 0.101
# Max RMSD: 0.258
# Mean RMSD: 0.192
data_MOF--net-ftw--node1-QEWDON_clean_sbu_0--node2-KUFVIS_clean_linker_0--edge1-XIVTED_clean_linker_0
_symmetry_space_group_name_H-M    P1
_symmetry_Int_Tables_number       1
_symmetry_cell_setting            triclinic
loop_
_symmetry_equiv_pos_as_xyz
'x, y, z'
_cell_length_a     23.642863
_cell_length_b     26.511251
_cell_length_c     25.180628
_cell_angle_alpha  89.750358
_cell_angle_beta   89.913417
_cell_angle_gamma 90.162762
loop_
_atom_site_label
_atom_site_type_symbol
_atom_site_fract_x
_atom_site_fract_y
_atom_site_fract_z
_atom_type_partial_charge
H0 H 0.96154 0.32427 0.52839 0.0
H1 H -0.02942 0.46747 0.60386 0.0
H2 H 0.96011 0.45641 0.43151 0.0
H3 H 0.95593 0.53517 0.42598 0.0
H4 H 0.96558 0.67788 0.50266 0.0
H5 H -0.01772 0.54469 0.5966 0.0
C6 C 0.96316 0.36508 0.52532 0.0
C7 C 0.95954 0.38773 0.47523 0.0
C8 C 0.96824 0.39386 0.57147 0.0
C9 C 0.96824 0.44694 0.56716 0.0
C10 C 0.96598 0.47206 0.51683 0.0
C11 C 0.96223 0.44075 0.47099 0.0
C12 C 0.96682 0.52993 0.51239 0.0
C13 C 0.9608 0.55549 0.46264 0.0
C14 C 0.96034 0.60871 0.45904 0.0
C15 C 0.96596 0.63707 0.50543 0.0
C16 C -0.02579 0.61391 0.5549 0.0
C17 C -0.02565 0.56081 0.55806 0.0
H18 H 0.46528 0.00271 0.71045 0.0
H19 H 0.55837 0.97337 0.56817 0.0
H20 H 0.38205 0.0179 0.56052 0.0
H21 H 0.38571 0.98255 0.48051 0.0
H22 H 0.48586 0.01009 0.3416 0.0
H23 H 0.56469 0.01663 0.49408 0.0
C24 C 0.46678 0.00041 0.66745 0.0
C25 C 0.41769 0.00968 0.6382 0.0
C26 C 0.51769 0.98836 0.64232 0.0
C27 C 0.51898 0.98416 0.58676 0.0
C28 C 0.4707 0.99553 0.55564 0.0
C29 C 0.41968 0.00772 0.58242 0.0
C30 C 0.47486 -0.00222 0.49585 0.0
C31 C 0.42656 0.99116 0.46326 0.0
C32 C 0.43031 -0.00268 0.40786 0.0
C33 C 0.48296 0.00713 0.3845 0.0
C34 C 0.53162 0.0132 0.41529 0.0
C35 C 0.52722 0.00914 0.47081 0.0
H36 H 0.53469 0.63891 0.06811 0.0
H37 H 0.55867 0.48036 0.05258 0.0
H38 H 0.40368 0.55087 0.9973 0.0
H39 H 0.36448 0.47817 0.0108 0.0
H40 H 0.39329 0.32247 0.97739 0.0
H41 H 0.53508 0.41876 1.00403 0.0
C42 C 0.51845 0.60229 0.05634 0.0
C43 C 0.46466 0.59879 0.03415 0.0
C44 C 0.55265 0.55977 0.06111 0.0
C45 C 0.53176 0.51255 0.04577 0.0
C46 C 0.47702 0.5076 0.02325 0.0
C47 C 0.44469 0.552 0.01616 0.0
C48 C 0.45354 0.45671 1.00814 0.0
C49 C 0.39454 0.44844 1.00315 0.0
C50 C 0.37317 0.40075 0.98954 0.0
C51 C 0.41015 0.36002 0.98404 0.0
C52 C 0.46804 0.36647 0.99203 0.0
C53 C 0.48971 0.41489 1.00129 0.0
Zn54 Zn 0.02254 0.07848 0.97743 0.0
Zn55 Zn 0.03039 0.09436 0.10536 0.0
O56 O 0.0105 0.04308 0.04944 0.0
H57 H -0.00929 0.01167 0.05558 0.0
C58 C 0.94159 0.16372 0.88831 0.0
O59 O 0.96143 0.11799 0.88117 0.0
Zn60 Zn 0.89849 0.88748 0.11498 0.0
Zn61 Zn 0.88468 0.87143 0.98885 0.0
O62 O 0.89246 0.92477 0.04589 0.0
H63 H 0.90143 0.95986 0.03961 0.0
Zn64 Zn 0.87828 0.11376 0.9791 0.0
O65 O 0.91617 0.09393 0.04948 0.0
Zn66 Zn 0.8576 0.07567 0.10491 0.0
H67 H 0.90194 0.10373 0.01504 0.0
Zn68 Zn 0.07617 0.88454 0.96827 0.0
O69 O 0.03487 0.90574 0.03541 0.0
H70 H -0.00207 0.92095 0.03458 0.0
Zn71 Zn 0.0907 0.91401 0.0956 0.0
C72 C 0.05488 0.84734 0.86165 0.0
O73 O 0.08856 0.88598 0.85267 0.0
O74 O 0.03947 0.15462 0.98484 0.0
O75 O 0.05965 0.15855 0.07093 0.0
O76 O 0.86588 0.8017 0.0212 0.0
O77 O 0.86487 0.81702 0.1082 0.0
O78 O 0.79214 0.11507 0.98953 0.0
O79 O 0.78014 0.09517 0.07511 0.0
C80 C 0.11018 0.01946 0.14954 0.0
O81 O 0.15927 0.87124 0.98517 0.0
O82 O 0.16922 0.89268 0.0703 0.0
O83 O 0.84025 0.89064 0.92004 0.0
C84 C 0.05773 0.17881 0.02492 0.0
O85 O 0.07366 0.04696 0.91773 0.0
C86 C 0.84694 0.97558 0.16732 0.0
O87 O 0.90869 0.17166 0.92751 0.0
C88 C 0.85728 0.78733 0.06896 0.0
O89 O 0.03987 0.83815 0.90931 0.0
C90 C 0.92328 0.13266 0.18084 0.0
O91 O 0.0927 0.06492 0.15017 0.0
O92 O 0.08549 0.98762 0.11954 0.0
C93 C 0.76038 0.10876 0.02998 0.0
O94 O 0.85813 0.92859 0.17026 0.0
O95 O 0.86235 0.00066 0.12619 0.0
C96 C 0.01597 0.85598 0.16156 0.0
O97 O 0.87348 0.11807 0.16936 0.0
O98 O 0.96456 0.11811 0.15204 0.0
C99 C 0.18955 0.87584 0.02671 0.0
O100 O 0.06817 0.86547 0.15459 0.0
O101 O -0.01902 0.88098 0.13348 0.0
C102 C 0.81949 0.93448 0.91397 0.0
O103 O 0.82803 0.96849 0.95093 0.0
C104 C 0.12256 0.06708 0.91545 0.0
O105 O 0.13648 0.10007 0.95198 0.0
H106 H 0.87731 0.31728 0.46054 0.0
H107 H 0.01577 0.19353 0.20131 0.0
H108 H 0.02411 0.38128 0.38395 0.0
H109 H 0.84881 0.15718 0.25966 0.0
H110 H 0.02402 0.25849 0.2704 0.0
H111 H 0.86955 0.2556 0.38914 0.0
C112 C 0.90765 0.31859 0.42826 0.0
C113 C 0.95134 0.35455 0.42813 0.0
C114 C -0.01434 0.23621 0.26801 0.0
C115 C 0.94335 0.28316 0.34622 0.0
C116 C -0.01893 0.19884 0.22885 0.0
C117 C 0.9315 0.16969 0.22457 0.0
C118 C 0.94062 0.24415 0.30357 0.0
C119 C 0.88778 0.17868 0.26119 0.0
C120 C 0.90329 0.28327 0.38749 0.0
C121 C -0.01047 0.35446 0.38531 0.0
N122 N 0.89344 0.21483 0.29899 0.0
N123 N -0.01502 0.31901 0.34628 0.0
H124 H 0.55416 0.07843 0.33293 0.0
H125 H 0.85066 0.9495 0.2715 0.0
H126 H 0.63457 0.96958 0.43558 0.0
H127 H 0.76648 0.05044 0.16314 0.0
H128 H 0.78186 0.97079 0.34003 0.0
H129 H 0.64003 0.08227 0.27885 0.0
C130 C 0.59017 0.05573 0.34445 0.0
C131 C 0.58676 0.02284 0.38831 0.0
C132 C 0.77891 0.98914 0.30163 0.0
C133 C 0.68541 0.02721 0.3265 0.0
C134 C 0.81835 0.97714 0.26247 0.0
C135 C 0.81409 -0.00191 0.21132 0.0
C136 C 0.73418 0.02187 0.28948 0.0
C137 C 0.77159 0.03377 0.20198 0.0
C138 C 0.63926 0.05808 0.31361 0.0
C139 C 0.63518 0.99528 0.40206 0.0
N140 N 0.73264 0.04391 0.2404 0.0
N141 N 0.68217 -0.00248 0.37082 0.0
H142 H 0.02743 0.59557 0.37121 0.0
H143 H 0.9136 0.84024 0.21387 0.0
H144 H 0.88979 0.68616 0.42942 0.0
H145 H 0.08059 0.77762 0.19533 0.0
H146 H 0.89265 0.77439 0.28081 0.0
H147 H 0.03491 0.65145 0.29349 0.0
C148 C -0.00213 0.62647 0.36699 0.0
C149 C 0.95802 0.63618 0.40698 0.0
C150 C 0.93369 0.77501 0.26167 0.0
C151 C 0.96666 0.70086 0.31823 0.0
C152 C 0.94555 0.81246 0.22334 0.0
C153 C -0.00089 0.81486 0.19916 0.0
C154 C -0.02468 0.73922 0.27514 0.0
C155 C 0.03892 0.77777 0.21322 0.0
C156 C 0.00249 0.65872 0.32288 0.0
C157 C 0.92133 0.67741 0.39966 0.0
N158 N 0.02627 0.74174 0.25001 0.0
N159 N 0.92665 0.70829 0.35644 0.0
H160 H 0.39965 0.07265 0.34212 0.0
H161 H 0.1327 0.93407 0.21035 0.0
H162 H 0.34683 0.92472 0.3941 0.0
H163 H 0.20077 0.07872 0.16392 0.0
H164 H 0.21022 0.92548 0.2757 0.0
H165 H 0.32443 0.07309 0.27692 0.0
C166 C 0.3717 0.04025 0.33987 0.0
C167 C 0.3796 -0.00148 0.37327 0.0
C168 C 0.20829 0.95874 0.25068 0.0
C169 C 0.29278 -0.00173 0.29779 0.0
C170 C 0.16455 0.96334 0.21309 0.0
C171 C 0.16037 0.00725 0.18194 0.0
C172 C 0.24766 -0.00169 0.25656 0.0
C173 C 0.2021 0.04444 0.18745 0.0
C174 C 0.32873 0.04032 0.3024 0.0
C175 C 0.34185 0.95768 0.36904 0.0
N176 N 0.24352 0.03921 0.22403 0.0
N177 N 0.30002 0.95839 0.33161 0.0
H178 H 0.93331 0.60299 0.65762 0.0
H179 H 0.07873 0.85985 0.75644 0.0
H180 H 0.0407 0.69838 0.56125 0.0
H181 H -0.00575 0.75777 0.86465 0.0
H182 H 0.05795 0.80278 0.6837 0.0
H183 H 0.94996 0.65944 0.7334 0.0
C184 C 0.96056 0.63554 0.65238 0.0
C185 C -0.01485 0.64606 0.6026 0.0
C186 C 0.04382 0.79265 0.72327 0.0
C187 C 0.00381 0.71109 0.68899 0.0
C188 C 0.05559 0.82544 0.765 0.0
C189 C 0.03856 0.81362 0.81703 0.0
C190 C 0.01466 0.74731 0.73311 0.0
C191 C 0.00834 0.76843 0.82524 0.0
C192 C 0.96978 0.66789 0.69559 0.0
C193 C 0.01976 0.6891 0.59829 0.0
N194 N -0.00251 0.73682 0.78377 0.0
N195 N 0.0278 0.71986 0.64061 0.0
H196 H 0.40341 0.09214 0.69947 0.0
H197 H 0.113 -0.00163 0.83321 0.0
H198 H 0.31665 0.95851 0.64644 0.0
H199 H 0.22185 0.11523 0.89483 0.0
H200 H 0.17929 0.98726 0.75857 0.0
H201 H 0.32758 0.10743 0.76309 0.0
C202 C 0.36754 0.06661 0.70061 0.0
C203 C 0.36601 0.02417 0.66772 0.0
C204 C 0.18839 0.01532 0.7885 0.0
C205 C 0.27953 0.04039 0.74169 0.0
C206 C 0.15072 0.02158 0.83115 0.0
C207 C 0.16192 0.05766 0.87057 0.0
C208 C 0.23715 0.04573 0.78513 0.0
C209 C 0.21135 0.08678 0.86573 0.0
C210 C 0.32447 0.07499 0.73726 0.0
C211 C 0.31892 0.99191 0.67093 0.0
N212 N 0.24681 0.08022 0.82397 0.0
N213 N 0.27766 0.00036 0.7078 0.0
H214 H 0.03693 0.31459 0.59659 0.0
H215 H 0.89428 0.25858 0.88027 0.0
H216 H 0.91035 0.41124 0.66534 0.0
H217 H 0.01398 0.16037 0.80329 0.0
H218 H 0.90663 0.31984 0.80774 0.0
H219 H 0.03633 0.26334 0.67726 0.0
C220 C 0.00918 0.32526 0.6289 0.0
C221 C -0.02688 0.36705 0.62375 0.0
C222 C 0.93049 0.28506 0.80696 0.0
C223 C -0.02795 0.30798 0.71697 0.0
C224 C 0.92359 0.25005 0.84849 0.0
C225 C 0.95272 0.20385 0.84783 0.0
C226 C 0.96692 0.27398 0.7644 0.0
C227 C -0.00982 0.19513 0.80549 0.0
C228 C 0.00888 0.29591 0.67511 0.0
C229 C 0.93886 0.37942 0.66747 0.0
N230 N -0.00412 0.22957 0.76556 0.0
N231 N 0.93871 0.34974 0.71199 0.0
H232 H 0.597 0.91241 0.64056 0.0
H233 H 0.7623 0.02197 0.89323 0.0
H234 H 0.55624 0.05224 0.71845 0.0
H235 H 0.79162 0.87306 0.83027 0.0
H236 H 0.69526 0.03785 0.82163 0.0
H237 H 0.67713 0.90159 0.70172 0.0
C238 C 0.60536 0.94104 0.6701 0.0
C239 C 0.5696 0.98291 0.67497 0.0
C240 C 0.71657 0.00177 0.82322 0.0
C241 C 0.66067 0.97089 0.74488 0.0
C242 C 0.755 0.99269 0.86413 0.0
C243 C 0.78231 0.9459 0.86813 0.0
C244 C 0.70519 0.96385 0.78584 0.0
C245 C 0.77123 0.90955 0.829 0.0
C246 C 0.65081 0.93478 0.70513 0.0
C247 C 0.58218 0.01892 0.71396 0.0
N248 N 0.73327 0.91917 0.78968 0.0
N249 N 0.62638 0.01197 0.74749 0.0
H250 H 0.31363 0.36352 0.90615 0.0
H251 H 0.09101 0.24675 0.10044 0.0
H252 H 0.29503 0.41237 0.06815 0.0
H253 H 0.0859 0.22463 0.9307 0.0
H254 H 0.15345 0.31908 0.08694 0.0
H255 H 0.21957 0.32524 0.91036 0.0
C256 C 0.28878 0.3674 0.94209 0.0
C257 C 0.31186 0.39064 0.98699 0.0
C258 C 0.13777 0.29909 0.05253 0.0
C259 C 0.2053 0.34564 0.99291 0.0
C260 C 0.10216 0.25765 0.06024 0.0
C261 C 0.08442 0.22876 0.01673 0.0
C262 C 0.15651 0.31118 1.00105 0.0
C263 C 0.09936 0.24524 0.96552 0.0
C264 C 0.2352 0.34546 0.94463 0.0
C265 C 0.27844 0.39468 0.03274 0.0
N266 N 0.13558 0.28467 0.95917 0.0
N267 N 0.22724 0.3713 0.03498 0.0
H268 H 0.41449 0.64001 0.94628 0.0
H269 H 0.25668 0.85226 0.11207 0.0
H270 H 0.43743 0.66213 0.11439 0.0
H271 H 0.24921 0.84165 0.94109 0.0
H272 H 0.33258 0.79014 0.11242 0.0
H273 H 0.35987 0.7185 0.94224 0.0
C274 C 0.40757 0.66135 0.9823 0.0
C275 C 0.42977 0.6447 0.03078 0.0
C276 C 0.31502 0.80208 0.07472 0.0
C277 C 0.3682 0.73422 0.02667 0.0
C278 C 0.27197 0.83796 0.07448 0.0
C279 C 0.24555 0.85127 0.02659 0.0
C280 C 0.3314 0.77928 0.02682 0.0
C281 C 0.26748 0.83164 0.97909 0.0
C282 C 0.37704 0.7063 0.97999 0.0
C283 C 0.42076 0.6739 0.07628 0.0
N284 N 0.30836 0.79587 0.98048 0.0
N285 N 0.39028 0.71706 0.07322 0.0
H286 H 0.53636 0.34463 0.07504 0.0
H287 H 0.69567 0.12105 0.9409 0.0
H288 H 0.48078 0.28622 0.92426 0.0
H289 H 0.69335 0.14244 0.11075 0.0
H290 H 0.61403 0.17697 0.93294 0.0
H291 H 0.59456 0.26971 0.08775 0.0
C292 C 0.53688 0.31605 0.04442 0.0
C293 C 0.5047 0.32181 0.99813 0.0
C294 C 0.63053 0.16839 0.97204 0.0
C295 C 0.5705 0.23572 0.01262 0.0
C296 C 0.677 0.13639 0.97667 0.0
C297 C 0.70202 0.12798 0.02647 0.0
C298 C 0.60985 0.19273 0.01741 0.0
C299 C 0.6758 0.14831 0.07152 0.0
C300 C 0.56938 0.27299 0.05201 0.0
C301 C 0.5056 0.2832 0.96023 0.0
N302 N 0.63197 0.18083 0.06578 0.0
N303 N 0.53873 0.24194 0.96794 0.0
H304 H 0.59148 0.59808 0.15436 0.0
H305 H 0.84933 0.70911 0.99879 0.0
H306 H 0.6472 0.54197 1.00287 0.0
H307 H 0.8076 0.75042 0.15978 0.0
H308 H 0.79045 0.63403 1.00803 0.0
H309 H 0.68372 0.63803 0.16686 0.0
C310 C 0.62413 0.59264 0.1247 0.0
C311 C 0.61195 0.56726 0.07737 0.0
C312 C 0.79497 0.65891 0.04176 0.0
C313 C 0.7165 0.61441 0.09013 0.0
C314 C 0.82851 0.70197 0.03644 0.0
C315 C 0.83205 0.73691 0.07806 0.0
C316 C 0.76397 0.65112 0.08872 0.0
C317 C 0.80518 0.72506 0.12627 0.0
C318 C 0.67664 0.61573 0.13156 0.0
C319 C 0.6552 0.56136 0.03988 0.0
N320 N 0.77121 0.68374 0.12987 0.0
N321 N 0.70521 0.58595 0.0464 0.0
loop_
_geom_bond_atom_site_label_1
_geom_bond_atom_site_label_2
_geom_bond_distance
_geom_bond_site_symmetry_2
_ccdc_geom_bond_type
H0 C6 0.930 . S
H1 C9 0.931 . S
H2 C11 0.931 . S
H3 C13 0.930 . S
H4 C15 0.930 . S
H5 C17 0.931 . S
C6 H0 0.930 . S
C6 C7 1.381 . S
C6 C8 1.393 1_655 S
C7 C6 1.381 . S
C7 C11 1.382 . S
C8 C6 1.393 1_455 S
C8 C9 1.400 . S
C9 H1 0.931 . S
C9 C8 1.400 . S
C9 C10 1.375 . S
C10 C9 1.375 . S
C10 C11 1.415 1_455 S
C10 C12 1.501 . S
C11 H2 0.931 . S
C11 C7 1.382 . S
C11 C10 1.415 1_655 S
C12 C10 1.501 . S
C12 C13 1.384 . S
C12 C17 1.408 1_455 S
C13 H3 0.930 . S
C13 C12 1.384 . S
C13 C14 1.389 . S
C14 C13 1.389 . S
C14 C15 1.405 . S
C15 H4 0.930 . S
C15 C14 1.405 . S
C15 C16 1.364 1_455 S
C16 C15 1.364 1_655 S
C16 C17 1.400 . S
C17 H5 0.931 . S
C17 C12 1.408 1_655 S
C17 C16 1.400 . S
H18 C24 0.930 . S
H19 C27 0.931 . S
H20 C29 0.931 . S
H21 C31 0.930 . S
H22 C33 0.930 . S
H23 C35 0.931 . S
C24 H18 0.930 . S
C24 C25 1.380 . S
C24 C26 1.394 1_545 S
C25 C24 1.380 . S
C25 C29 1.382 . S
C26 C24 1.394 1_565 S
C26 C27 1.400 . S
C27 H19 0.931 . S
C27 C26 1.400 . S
C27 C28 1.375 . S
C28 C27 1.375 . S
C28 C29 1.415 1_565 S
C28 C30 1.501 . S
C29 H20 0.931 . S
C29 C25 1.382 . S
C29 C28 1.415 1_545 S
C30 C28 1.501 . S
C30 C31 1.384 . S
C30 C35 1.408 1_565 S
C31 H21 0.930 . S
C31 C30 1.384 . S
C31 C32 1.389 . S
C32 C31 1.389 . S
C32 C33 1.405 . S
C33 H22 0.930 . S
C33 C32 1.405 . S
C33 C34 1.364 1_565 S
C34 C33 1.364 1_545 S
C34 C35 1.400 . S
C35 H23 0.931 . S
C35 C30 1.408 1_545 S
C35 C34 1.400 . S
H36 C42 0.930 . S
H37 C45 0.931 . S
H38 C47 0.931 . S
H39 C49 0.930 . S
H40 C51 0.930 . S
H41 C53 0.931 . S
C42 H36 0.930 . S
C42 C43 1.380 . S
C42 C44 1.394 . S
C43 C42 1.380 . S
C43 C47 1.382 . S
C44 C42 1.394 . S
C44 C45 1.400 . S
C45 H37 0.931 . S
C45 C44 1.400 . S
C45 C46 1.375 . S
C46 C45 1.375 . S
C46 C47 1.415 . S
C46 C48 1.501 . S
C47 H38 0.931 . S
C47 C43 1.382 . S
C47 C46 1.415 . S
C48 C46 1.501 . S
C48 C49 1.384 . S
C48 C53 1.408 . S
C49 H39 0.930 . S
C49 C48 1.384 . S
C49 C50 1.389 . S
C50 C49 1.389 . S
C50 C51 1.405 . S
C51 H40 0.930 . S
C51 C50 1.405 . S
C51 C52 1.364 . S
C52 C51 1.364 . S
C52 C53 1.400 . S
C53 H41 0.931 . S
C53 C48 1.408 . S
C53 C52 1.400 . S
Zn54 O56 1.933 1_556 S
Zn54 O74 1.985 . S
Zn54 O85 1.955 . S
Zn55 O56 1.911 . S
Zn55 O75 1.970 . S
Zn55 O91 1.945 . S
Zn55 O98 1.981 . S
O56 Zn54 1.933 1_554 S
O56 Zn55 1.911 . S
O56 H57 0.841 . S
H57 O56 0.841 . S
C58 O59 1.246 . S
C58 O87 1.276 1_455 S
O59 C58 1.246 . S
Zn60 O62 1.911 . S
Zn60 O77 1.970 . S
Zn60 O94 1.945 . S
Zn60 O101 1.981 . S
Zn61 O62 1.933 1_556 S
Zn61 O76 1.985 . S
Zn61 O83 1.955 . S
O62 Zn60 1.911 . S
O62 Zn61 1.933 1_554 S
O62 H63 0.841 . S
H63 O62 0.841 . S
Zn64 O65 1.933 1_556 S
Zn64 O78 1.985 . S
Zn64 O87 1.955 . S
O65 Zn64 1.933 1_554 S
O65 Zn66 1.911 . S
O65 H67 0.841 . S
Zn66 O65 1.911 . S
Zn66 O79 1.970 . S
Zn66 O95 1.981 . S
Zn66 O97 1.945 . S
H67 O65 0.841 . S
Zn68 O69 1.933 1_556 S
Zn68 O81 1.985 . S
Zn68 O89 1.955 . S
O69 Zn68 1.933 1_554 S
O69 H70 0.841 . S
O69 Zn71 1.911 . S
H70 O69 0.841 . S
Zn71 O69 1.911 . S
Zn71 O82 1.970 . S
Zn71 O92 1.981 . S
Zn71 O100 1.945 . S
C72 O73 1.246 . S
C72 O89 1.276 1_655 S
O73 C72 1.246 . S
O74 Zn54 1.985 . S
O74 C84 1.245 1_556 S
O75 Zn55 1.970 . S
O75 C84 1.263 . S
O76 Zn61 1.985 . S
O76 C88 1.245 1_556 S
O77 Zn60 1.970 . S
O77 C88 1.263 . S
O78 Zn64 1.985 . S
O78 C93 1.245 1_556 S
O79 Zn66 1.970 . S
O79 C93 1.263 . S
C80 O91 1.262 . S
C80 O92 1.244 1_545 S
O81 Zn68 1.985 . S
O81 C99 1.245 1_556 S
O82 Zn71 1.970 . S
O82 C99 1.263 . S
O83 Zn61 1.955 . S
O83 C102 1.276 1_565 S
C84 O74 1.245 1_554 S
C84 O75 1.263 . S
O85 Zn54 1.955 . S
O85 C104 1.276 1_545 S
C86 O94 1.261 1_545 S
C86 O95 1.245 . S
O87 C58 1.276 1_655 S
O87 Zn64 1.955 . S
C88 O76 1.245 1_554 S
C88 O77 1.263 . S
O89 Zn68 1.955 . S
O89 C72 1.276 1_455 S
C90 O97 1.245 1_455 S
C90 O98 1.254 . S
O91 Zn55 1.945 . S
O91 C80 1.262 . S
O92 Zn71 1.981 . S
O92 C80 1.244 1_565 S
C93 O78 1.245 1_554 S
C93 O79 1.263 . S
O94 Zn60 1.945 . S
O94 C86 1.261 1_565 S
O95 Zn66 1.981 . S
O95 C86 1.245 . S
C96 O100 1.282 . S
C96 O101 1.234 1_455 S
O97 Zn66 1.945 . S
O97 C90 1.245 1_655 S
O98 Zn55 1.981 . S
O98 C90 1.254 . S
C99 O81 1.245 1_554 S
C99 O82 1.263 . S
O100 Zn71 1.945 . S
O100 C96 1.282 . S
O101 Zn60 1.981 . S
O101 C96 1.234 1_655 S
C102 O83 1.276 1_545 S
C102 O103 1.246 . S
O103 C102 1.246 . S
C104 O85 1.276 1_565 S
C104 O105 1.246 . S
O105 C104 1.246 . S
H106 C112 0.930 . S
H107 C116 0.930 . S
H108 C121 0.929 . S
H109 C119 0.929 . S
H110 C114 0.929 . S
H111 C120 0.929 . S
C112 H106 0.930 . S
C112 C113 1.367 . S
C112 C120 1.378 . S
C113 C112 1.367 . S
C113 C121 1.433 1_655 S
C114 H110 0.929 . S
C114 C116 1.378 . S
C114 C118 1.350 . S
C115 C118 1.464 . S
C115 C120 1.340 1_455 S
C115 N123 1.437 . S
C116 H107 0.930 . S
C116 C114 1.378 . S
C116 C117 1.367 . S
C117 C116 1.367 . S
C117 C119 1.433 1_455 S
C118 C114 1.350 . S
C118 C115 1.464 . S
C118 N122 1.427 1_455 S
C119 H109 0.929 . S
C119 C117 1.433 1_655 S
C119 N122 1.384 . S
C120 H111 0.929 . S
C120 C112 1.378 . S
C120 C115 1.340 1_655 S
C121 H108 0.929 . S
C121 C113 1.433 1_455 S
C121 N123 1.384 . S
N122 C118 1.427 1_655 S
N122 C119 1.384 . S
N123 C115 1.437 . S
N123 C121 1.384 . S
H124 C130 0.930 . S
H125 C134 0.930 . S
H126 C139 0.929 . S
H127 C137 0.929 . S
H128 C132 0.929 . S
H129 C138 0.929 . S
C130 H124 0.930 . S
C130 C131 1.367 . S
C130 C138 1.378 . S
C131 C130 1.367 . S
C131 C139 1.433 1_545 S
C132 H128 0.929 . S
C132 C134 1.378 . S
C132 C136 1.350 1_565 S
C133 C136 1.463 . S
C133 C138 1.350 . S
C133 N141 1.427 1_545 S
C134 H125 0.930 . S
C134 C132 1.378 . S
C134 C135 1.367 1_565 S
C135 C134 1.367 1_545 S
C135 C137 1.433 . S
C136 C132 1.350 1_545 S
C136 C133 1.463 . S
C136 N140 1.427 . S
C137 H127 0.929 . S
C137 C135 1.433 . S
C137 N140 1.384 . S
C138 H129 0.929 . S
C138 C130 1.378 . S
C138 C133 1.350 . S
C139 H126 0.929 . S
C139 C131 1.433 1_565 S
C139 N141 1.384 . S
N140 C136 1.427 . S
N140 C137 1.384 . S
N141 C133 1.427 1_565 S
N141 C139 1.384 . S
H142 C148 0.930 . S
H143 C152 0.930 . S
H144 C157 0.929 . S
H145 C155 0.929 . S
H146 C150 0.929 . S
H147 C156 0.929 . S
C148 H142 0.930 . S
C148 C149 1.367 . S
C148 C156 1.378 . S
C149 C148 1.367 . S
C149 C157 1.433 1_455 S
C150 H146 0.929 . S
C150 C152 1.378 . S
C150 C154 1.350 . S
C151 C154 1.462 . S
C151 C156 1.350 1_655 S
C151 N159 1.427 . S
C152 H143 0.930 . S
C152 C150 1.378 . S
C152 C153 1.367 . S
C153 C152 1.367 . S
C153 C155 1.433 . S
C154 C150 1.350 . S
C154 C151 1.462 . S
C154 N158 1.427 1_655 S
C155 H145 0.929 . S
C155 C153 1.433 . S
C155 N158 1.383 1_655 S
C156 H147 0.929 . S
C156 C148 1.378 . S
C156 C151 1.350 1_455 S
C157 H144 0.929 . S
C157 C149 1.433 1_655 S
C157 N159 1.384 . S
N158 C154 1.427 1_455 S
N158 C155 1.383 1_455 S
N159 C151 1.427 . S
N159 C157 1.384 . S
H160 C166 0.930 . S
H161 C170 0.930 . S
H162 C175 0.929 . S
H163 C173 0.929 . S
H164 C168 0.929 . S
H165 C174 0.929 . S
C166 H160 0.930 . S
C166 C167 1.367 1_545 S
C166 C174 1.378 . S
C167 C166 1.367 1_565 S
C167 C175 1.433 . S
C168 H164 0.929 . S
C168 C170 1.378 . S
C168 C172 1.350 . S
C169 C172 1.463 . S
C169 C174 1.350 1_565 S
C169 N177 1.427 . S
C170 H161 0.930 . S
C170 C168 1.378 . S
C170 C171 1.367 . S
C171 C170 1.367 . S
C171 C173 1.433 1_565 S
C172 C168 1.350 . S
C172 C169 1.463 . S
C172 N176 1.427 1_565 S
C173 H163 0.929 . S
C173 C171 1.433 1_545 S
C173 N176 1.384 . S
C174 H165 0.929 . S
C174 C166 1.378 . S
C174 C169 1.350 1_545 S
C175 H162 0.929 . S
C175 C167 1.433 . S
C175 N177 1.384 . S
N176 C172 1.427 1_545 S
N176 C173 1.384 . S
N177 C169 1.427 . S
N177 C175 1.384 . S
H178 C184 0.930 . S
H179 C188 0.930 . S
H180 C193 0.929 1_455 S
H181 C191 0.929 . S
H182 C186 0.929 . S
H183 C192 0.929 . S
C184 H178 0.930 . S
C184 C185 1.367 . S
C184 C192 1.378 . S
C185 C184 1.367 . S
C185 C193 1.433 . S
C186 H182 0.929 . S
C186 C188 1.378 . S
C186 C190 1.350 . S
C187 C190 1.463 . S
C187 C192 1.350 . S
C187 N195 1.427 . S
C188 H179 0.930 . S
C188 C186 1.378 . S
C188 C189 1.367 . S
C189 C188 1.367 . S
C189 C191 1.433 . S
C190 C186 1.350 . S
C190 C187 1.463 . S
C190 N194 1.427 . S
C191 H181 0.929 . S
C191 C189 1.433 . S
C191 N194 1.384 . S
C192 H183 0.929 . S
C192 C184 1.378 . S
C192 C187 1.350 . S
C193 H180 0.929 1_655 S
C193 C185 1.433 . S
C193 N195 1.384 . S
N194 C190 1.427 . S
N194 C191 1.384 . S
N195 C187 1.427 . S
N195 C193 1.384 . S
H196 C202 0.930 . S
H197 C206 0.930 . S
H198 C211 0.929 . S
H199 C209 0.929 . S
H200 C204 0.929 . S
H201 C210 0.929 . S
C202 H196 0.930 . S
C202 C203 1.367 . S
C202 C210 1.378 . S
C203 C202 1.367 . S
C203 C211 1.433 1_545 S
C204 H200 0.929 . S
C204 C206 1.378 . S
C204 C208 1.350 . S
C205 C208 1.463 . S
C205 C210 1.350 1_565 S
C205 N213 1.427 . S
C206 H197 0.930 . S
C206 C204 1.378 . S
C206 C207 1.367 . S
C207 C206 1.367 . S
C207 C209 1.433 1_565 S
C208 C204 1.350 . S
C208 C205 1.463 . S
C208 N212 1.427 1_565 S
C209 H199 0.929 . S
C209 C207 1.433 1_545 S
C209 N212 1.384 . S
C210 H201 0.929 . S
C210 C202 1.378 . S
C210 C205 1.350 1_545 S
C211 H198 0.929 . S
C211 C203 1.433 1_565 S
C211 N213 1.384 . S
N212 C208 1.427 1_545 S
N212 C209 1.384 . S
N213 C205 1.427 . S
N213 C211 1.384 . S
H214 C220 0.930 . S
H215 C224 0.930 . S
H216 C229 0.929 . S
H217 C227 0.929 . S
H218 C222 0.929 . S
H219 C228 0.929 . S
C220 H214 0.930 . S
C220 C221 1.367 . S
C220 C228 1.378 . S
C221 C220 1.367 . S
C221 C229 1.433 1_455 S
C222 H218 0.929 . S
C222 C224 1.378 . S
C222 C226 1.350 1_655 S
C223 C226 1.463 . S
C223 C228 1.350 . S
C223 N231 1.427 1_455 S
C224 H215 0.930 . S
C224 C222 1.378 . S
C224 C225 1.367 1_655 S
C225 C224 1.367 1_455 S
C225 C227 1.433 . S
C226 C222 1.350 1_455 S
C226 C223 1.463 . S
C226 N230 1.427 . S
C227 H217 0.929 . S
C227 C225 1.433 . S
C227 N230 1.384 . S
C228 H219 0.929 . S
C228 C220 1.378 . S
C228 C223 1.350 . S
C229 H216 0.929 . S
C229 C221 1.433 1_655 S
C229 N231 1.384 . S
N230 C226 1.427 . S
N230 C227 1.384 . S
N231 C223 1.427 1_655 S
N231 C229 1.384 . S
H232 C238 0.930 . S
H233 C242 0.930 . S
H234 C247 0.929 . S
H235 C245 0.929 . S
H236 C240 0.929 . S
H237 C246 0.929 . S
C238 H232 0.930 . S
C238 C239 1.367 . S
C238 C246 1.378 . S
C239 C238 1.367 . S
C239 C247 1.433 1_565 S
C240 H236 0.929 . S
C240 C242 1.378 . S
C240 C244 1.350 . S
C241 C244 1.463 . S
C241 C246 1.350 1_545 S
C241 N249 1.427 . S
C242 H233 0.930 . S
C242 C240 1.378 . S
C242 C243 1.367 . S
C243 C242 1.367 . S
C243 C245 1.433 1_545 S
C244 C240 1.350 . S
C244 C241 1.463 . S
C244 N248 1.427 1_545 S
C245 H235 0.929 . S
C245 C243 1.433 1_565 S
C245 N248 1.384 . S
C246 H237 0.929 . S
C246 C238 1.378 . S
C246 C241 1.350 1_565 S
C247 H234 0.929 . S
C247 C239 1.433 1_545 S
C247 N249 1.384 . S
N248 C244 1.427 1_565 S
N248 C245 1.384 . S
N249 C241 1.427 . S
N249 C247 1.384 . S
H250 C256 0.930 . S
H251 C260 0.930 . S
H252 C265 0.929 . S
H253 C263 0.929 . S
H254 C258 0.929 . S
H255 C264 0.929 . S
C256 H250 0.930 . S
C256 C257 1.367 1_556 S
C256 C264 1.378 . S
C257 C256 1.367 1_554 S
C257 C265 1.433 . S
C258 H254 0.929 . S
C258 C260 1.378 . S
C258 C262 1.350 . S
C259 C262 1.463 . S
C259 C264 1.350 1_554 S
C259 N267 1.427 . S
C260 H251 0.930 . S
C260 C258 1.378 . S
C260 C261 1.367 . S
C261 C260 1.367 . S
C261 C263 1.433 1_554 S
C262 C258 1.350 . S
C262 C259 1.463 . S
C262 N266 1.427 1_554 S
C263 H253 0.929 . S
C263 C261 1.433 1_556 S
C263 N266 1.384 . S
C264 H255 0.929 . S
C264 C256 1.378 . S
C264 C259 1.350 1_556 S
C265 H252 0.929 . S
C265 C257 1.433 . S
C265 N267 1.384 . S
N266 C262 1.427 1_556 S
N266 C263 1.384 . S
N267 C259 1.427 . S
N267 C265 1.384 . S
H268 C274 0.930 . S
H269 C278 0.930 . S
H270 C283 0.929 . S
H271 C281 0.929 . S
H272 C276 0.929 . S
H273 C282 0.929 . S
C274 H268 0.930 . S
C274 C275 1.367 1_556 S
C274 C282 1.378 . S
C275 C274 1.367 1_554 S
C275 C283 1.433 . S
C276 H272 0.929 . S
C276 C278 1.378 . S
C276 C280 1.350 . S
C277 C280 1.463 . S
C277 C282 1.350 1_554 S
C277 N285 1.427 . S
C278 H269 0.930 . S
C278 C276 1.378 . S
C278 C279 1.367 . S
C279 C278 1.367 . S
C279 C281 1.433 1_554 S
C280 C276 1.350 . S
C280 C277 1.463 . S
C280 N284 1.427 1_554 S
C281 H271 0.929 . S
C281 C279 1.433 1_556 S
C281 N284 1.384 . S
C282 H273 0.929 . S
C282 C274 1.378 . S
C282 C277 1.350 1_556 S
C283 H270 0.929 . S
C283 C275 1.433 . S
C283 N285 1.384 . S
N284 C280 1.427 1_556 S
N284 C281 1.384 . S
N285 C277 1.427 . S
N285 C283 1.384 . S
H286 C292 0.930 . S
H287 C296 0.930 . S
H288 C301 0.929 . S
H289 C299 0.929 . S
H290 C294 0.929 . S
H291 C300 0.929 . S
C292 H286 0.930 . S
C292 C293 1.367 . S
C292 C300 1.378 . S
C293 C292 1.367 . S
C293 C301 1.433 1_554 S
C294 H290 0.929 . S
C294 C296 1.378 . S
C294 C298 1.350 1_556 S
C295 C298 1.463 . S
C295 C300 1.350 . S
C295 N303 1.427 1_554 S
C296 H287 0.930 . S
C296 C294 1.378 . S
C296 C297 1.367 1_556 S
C297 C296 1.367 1_554 S
C297 C299 1.433 . S
C298 C294 1.350 1_554 S
C298 C295 1.463 . S
C298 N302 1.427 . S
C299 H289 0.929 . S
C299 C297 1.433 . S
C299 N302 1.384 . S
C300 H291 0.929 . S
C300 C292 1.378 . S
C300 C295 1.350 . S
C301 H288 0.929 . S
C301 C293 1.433 1_556 S
C301 N303 1.384 . S
N302 C298 1.427 . S
N302 C299 1.384 . S
N303 C295 1.427 1_556 S
N303 C301 1.384 . S
H304 C310 0.930 . S
H305 C314 0.930 . S
H306 C319 0.929 . S
H307 C317 0.929 . S
H308 C312 0.929 . S
H309 C318 0.929 . S
C310 H304 0.930 . S
C310 C311 1.367 . S
C310 C318 1.378 . S
C311 C310 1.367 . S
C311 C319 1.433 1_554 S
C312 H308 0.929 . S
C312 C314 1.378 . S
C312 C316 1.350 1_556 S
C313 C316 1.463 . S
C313 C318 1.350 . S
C313 N321 1.427 1_554 S
C314 H305 0.930 . S
C314 C312 1.378 . S
C314 C315 1.367 1_556 S
C315 C314 1.367 1_554 S
C315 C317 1.433 . S
C316 C312 1.350 1_554 S
C316 C313 1.463 . S
C316 N320 1.427 . S
C317 H307 0.929 . S
C317 C315 1.433 . S
C317 N320 1.384 . S
C318 H309 0.929 . S
C318 C310 1.378 . S
C318 C313 1.350 . S
C319 H306 0.929 . S
C319 C311 1.433 1_556 S
C319 N321 1.384 . S
N320 C316 1.427 . S
N320 C317 1.384 . S
N321 C313 1.427 1_556 S
N321 C319 1.384 . S
C117 C90 1.996 . S
C113 C7 2.072 . S
C135 C86 1.294 . S
C131 C34 1.359 . S
C153 C96 1.988 1_655 S
C149 C14 2.079 . S
C171 C80 1.308 1_565 S
C167 C32 1.362 . S
C185 C16 2.181 . S
C189 C72 2.087 . S
C207 C104 1.395 . S
C203 C25 1.475 . S
C221 C8 2.177 . S
C225 C58 2.071 . S
C239 C26 1.476 . S
C243 C102 1.381 . S
C257 C50 1.053 . S
C261 C84 1.043 . S
C275 C43 1.075 . S
C279 C99 1.064 . S
C297 C93 1.061 . S
C293 C52 1.066 . S
C315 C88 1.033 . S
C311 C44 1.053 . S
