# Generated by pormake.
# Topology anh, (6,3)-cn, num edge types: 1
# Building blocks:
#     Node 0, Type 0, BuildingBlock: NUHQIS_clean_sbu_0, # of connection points: 6
#     Node 1, Type 0, BuildingBlock: NUHQIS_clean_sbu_0, # of connection points: 6
#     Node 2, Type 0, BuildingBlock: NUHQIS_clean_sbu_0, # of connection points: 6
#     Node 3, Type 1, BuildingBlock: VETTIZ_charged_linker_0, # of connection points: 3
#     Node 4, Type 1, BuildingBlock: VETTIZ_charged_linker_0, # of connection points: 3
#     Node 5, Type 1, BuildingBlock: VETTIZ_charged_linker_0, # of connection points: 3
#     Node 6, Type 1, BuildingBlock: VETTIZ_charged_linker_0, # of connection points: 3
#     Node 7, Type 1, BuildingBlock: VETTIZ_charged_linker_0, # of connection points: 3
#     Node 8, Type 1, BuildingBlock: VETTIZ_charged_linker_0, # of connection points: 3
#     Edge 9, Type (0, 1), BuildingBlock: CIFDUS_clean_linker_0, # of connection points: 2
#     Edge 10, Type (0, 1), BuildingBlock: CIFDUS_clean_linker_0, # of connection points: 2
#     Edge 11, Type (0, 1), BuildingBlock: CIFDUS_clean_linker_0, # of connection points: 2
#     Edge 12, Type (0, 1), BuildingBlock: CIFDUS_clean_linker_0, # of connection points: 2
#     Edge 13, Type (0, 1), BuildingBlock: CIFDUS_clean_linker_0, # of connection points: 2
#     Edge 14, Type (0, 1), BuildingBlock: CIFDUS_clean_linker_0, # of connection points: 2
#     Edge 15, Type (0, 1), BuildingBlock: CIFDUS_clean_linker_0, # of connection points: 2
#     Edge 16, Type (0, 1), BuildingBlock: CIFDUS_clean_linker_0, # of connection points: 2
#     Edge 17, Type (0, 1), BuildingBlock: CIFDUS_clean_linker_0, # of connection points: 2
#     Edge 18, Type (0, 1), BuildingBlock: CIFDUS_clean_linker_0, # of connection points: 2
#     Edge 19, Type (0, 1), BuildingBlock: CIFDUS_clean_linker_0, # of connection points: 2
#     Edge 20, Type (0, 1), BuildingBlock: CIFDUS_clean_linker_0, # of connection points: 2
#     Edge 21, Type (0, 1), BuildingBlock: CIFDUS_clean_linker_0, # of connection points: 2
#     Edge 22, Type (0, 1), BuildingBlock: CIFDUS_clean_linker_0, # of connection points: 2
#     Edge 23, Type (0, 1), BuildingBlock: CIFDUS_clean_linker_0, # of connection points: 2
#     Edge 24, Type (0, 1), BuildingBlock: CIFDUS_clean_linker_0, # of connection points: 2
#     Edge 25, Type (0, 1), BuildingBlock: CIFDUS_clean_linker_0, # of connection points: 2
#     Edge 26, Type (0, 1), BuildingBlock: CIFDUS_clean_linker_0, # of connection points: 2
# Relax obj value: 0.265
# Max RMSD: 0.194
# Mean RMSD: 0.161
data_MOF--net-anh--node1-NUHQIS_clean_sbu_0--node2-VETTIZ_charged_linker_0--edge1-CIFDUS_clean_linker_0
_symmetry_space_group_name_H-M    P1
_symmetry_Int_Tables_number       1
_symmetry_cell_setting            triclinic
loop_
_symmetry_equiv_pos_as_xyz
'x, y, z'
_cell_length_a     31.503987
_cell_length_b     31.480412
_cell_length_c     60.311187
_cell_angle_alpha  91.295398
_cell_angle_beta   90.589201
_cell_angle_gamma 120.10612
loop_
_atom_site_label
_atom_site_type_symbol
_atom_site_fract_x
_atom_site_fract_y
_atom_site_fract_z
_atom_type_partial_charge
Tb0 Tb 0.21334 0.60349 0.15753 0.0
Eu1 Eu 0.14875 0.65618 0.15212 0.0
C2 C 0.18405 0.64139 0.19875 0.0
C3 C 1.09717 0.53931 0.15732 0.0
C4 C 0.30992 0.57857 0.1753 0.0
C5 C 0.37522 0.56359 0.18594 0.0
C6 C 0.32885 0.54696 0.1764 0.0
C7 C 0.33645 0.62615 0.18487 0.0
C8 C 0.38322 0.64314 0.19416 0.0
C9 C 0.40341 0.61226 0.19436 0.0
C10 C 0.26332 0.56245 0.16354 0.0
O11 O 0.18531 0.58899 0.12322 0.0
O12 O 0.18469 0.66037 0.1199 0.0
O13 O 0.22618 0.72135 0.15823 0.0
O14 O 0.26893 0.68021 0.15275 0.0
C15 C 0.18546 0.62275 0.11076 0.0
O16 O 1.10552 0.67613 0.13096 0.0
O17 O 1.11048 0.69188 0.16635 0.0
O18 O 0.1452 0.63366 0.18735 0.0
O19 O 0.22158 0.64346 0.18865 0.0
O20 O 0.13921 0.54769 0.16595 0.0
O21 O 1.09456 0.57405 0.14678 0.0
C22 C 0.26787 0.72133 0.15587 0.0
O23 O 0.22735 0.55618 0.17607 0.0
O24 O 0.26584 0.58665 0.14586 0.0
C25 C 1.03223 0.65096 0.14863 0.0
C26 C 0.94109 0.56686 0.13827 0.0
C27 C 0.95627 0.61068 0.12695 0.0
C28 C 1.00163 0.65237 0.13203 0.0
C29 C 1.01473 0.60895 0.16154 0.0
C30 C 0.96946 0.56727 0.15643 0.0
C31 C 1.08536 0.68491 0.1479 0.0
H32 H 0.39019 0.53922 0.18548 0.0
H33 H 0.30854 0.51003 0.16921 0.0
H34 H 0.32149 0.65046 0.18451 0.0
H35 H 0.40423 0.68075 0.20049 0.0
H36 H 0.93436 0.61187 0.11328 0.0
H37 H 1.01457 0.6841 0.12174 0.0
H38 H 1.03793 0.60656 0.17426 0.0
H39 H 0.95868 0.53429 0.16557 0.0
Tb40 Tb 0.74239 0.16006 0.49136 0.0
Eu41 Eu 0.62489 1.09238 0.48606 0.0
C42 C 0.67535 0.1298 0.5323 0.0
C43 C 0.69414 1.04358 0.49268 0.0
C44 C 0.85036 0.27515 0.49791 0.0
C45 C 0.88839 0.34954 0.47703 0.0
C46 C 0.88554 0.30559 0.48291 0.0
C47 C 0.82262 0.2924 0.50912 0.0
C48 C 0.82566 0.33649 0.50331 0.0
C49 C 0.85613 0.36359 0.48613 0.0
C50 C 0.83174 0.22199 0.49624 0.0
O51 O 0.72705 0.12981 0.45733 0.0
O52 O 0.65246 0.124 0.45293 0.0
O53 O 0.63865 0.17037 0.49154 0.0
O54 O 0.71883 0.21169 0.48117 0.0
C55 C 0.69229 0.12799 0.44441 0.0
O56 O 0.55924 1.03523 0.46879 0.0
O57 O 0.55261 1.07165 0.49848 0.0
O58 O 0.64536 1.08953 0.52119 0.0
O59 O 0.71014 0.16712 0.5221 0.0
O60 O 0.73035 1.08728 0.49929 0.0
O61 O 0.65309 1.03824 0.48397 0.0
C62 C 0.67796 0.21134 0.48593 0.0
O63 O 0.80503 0.19601 0.5125 0.0
O64 O 0.81108 0.20232 0.47704 0.0
C65 C 0.49957 0.98715 0.49424 0.0
C66 C 0.44031 0.89521 0.51277 0.0
C67 C 0.41975 0.9232 0.50527 0.0
C68 C 0.44922 0.96885 0.49606 0.0
C69 C 0.52065 0.9603 0.50241 0.0
C70 C 0.49116 0.91444 0.5115 0.0
C71 C 0.53035 1.03469 0.48431 0.0
H72 H 0.91324 0.37068 0.46413 0.0
H73 H 0.90707 0.29297 0.47399 0.0
H74 H 0.79482 0.26954 0.52067 0.0
H75 H 0.80076 0.34673 0.51072 0.0
H76 H 0.38052 0.90889 0.50562 0.0
H77 H 0.43259 0.98943 0.49001 0.0
H78 H 0.55979 0.97448 0.50143 0.0
H79 H 0.50788 0.89365 0.51714 0.0
Tb80 Tb 0.68146 0.66394 0.8222 0.0
Eu81 Eu 0.62799 0.54651 0.82729 0.0
C82 C 0.66589 0.61798 0.86829 0.0
C83 C 0.74674 0.61237 0.82491 0.0
C84 C 0.68287 0.77668 0.81558 0.0
C85 C 0.65518 0.8173 0.79054 0.0
C86 C 0.6922 0.80912 0.79839 0.0
C87 C 0.63759 0.75626 0.82625 0.0
C88 C 0.60061 0.76456 0.81844 0.0
C89 C 0.60811 0.79282 0.79967 0.0
C90 C 0.7135 0.75404 0.81795 0.0
O91 O 0.68231 0.63203 0.78993 0.0
O92 O 0.6125 0.55765 0.79214 0.0
O93 O 0.5707 0.56718 0.83474 0.0
O94 O 0.60275 0.63932 0.81658 0.0
C95 C 0.64531 0.59306 0.78029 0.0
O96 O 0.61068 0.4724 0.81742 0.0
O97 O 0.57959 0.48458 0.8472 0.0
O98 O 0.67056 0.58325 0.85856 0.0
O99 O 0.65743 0.64722 0.85631 0.0
O100 O 0.74454 0.65284 0.82869 0.0
O101 O 0.70689 0.56968 0.82061 0.0
C102 C 0.56558 0.6024 0.82623 0.0
O103 O 0.71273 0.7349 0.837 0.0
O104 O 0.70787 0.72413 0.80148 0.0
C105 C 0.60698 0.42833 0.84874 0.0
C106 C 0.64949 0.37913 0.86937 0.0
C107 C 0.60163 0.35271 0.85998 0.0
C108 C 0.58061 0.3772 0.84967 0.0
C109 C 0.65327 0.45512 0.85938 0.0
C110 C 0.67451 0.43069 0.86958 0.0
C111 C 0.58777 0.45388 0.83576 0.0
H112 H 0.66276 0.84098 0.77661 0.0
H113 H 0.72672 0.825 0.78987 0.0
H114 H 0.62924 0.73065 0.83945 0.0
H115 H 0.56517 0.74595 0.82613 0.0
H116 H 0.58172 0.31292 0.85916 0.0
H117 H 0.54476 0.35616 0.84161 0.0
H118 H 0.67376 0.49485 0.85899 0.0
H119 H 0.71133 0.45191 0.87666 0.0
C120 C 0.79391 0.2642 0.1721 0.0
C121 C 0.83606 0.30271 0.18341 0.0
C122 C 0.83719 0.30351 0.20678 0.0
C123 C 0.75916 0.22767 0.20744 0.0
C124 C 0.75579 0.22679 0.18454 0.0
C125 C 0.70794 0.18219 0.1761 0.0
H126 H 0.50214 0.9646 0.20382 0.0
C127 C 0.71596 0.18354 0.21585 0.0
C128 C 0.68515 0.15584 0.19764 0.0
H129 H 0.5338 1.02314 0.13831 0.0
H130 H 0.60973 0.09498 0.15272 0.0
H131 H 0.61002 0.99174 0.21853 0.0
H132 H 0.52237 1.0597 0.22639 0.0
H133 H 0.55782 1.07578 0.25094 0.0
H134 H 0.51598 1.01177 0.24395 0.0
H135 H 0.55982 0.97043 0.23715 0.0
H136 H 0.62153 1.01584 0.24585 0.0
C137 C 0.71988 0.15059 0.16036 0.0
C138 C 0.67629 0.20062 0.16485 0.0
C139 C 0.70257 0.15785 0.29945 0.0
C140 C 0.66646 0.12074 0.31225 0.0
C141 C 0.62726 1.07933 0.30144 0.0
C142 C 0.623 1.07541 0.27831 0.0
C143 C 0.65802 0.1136 0.26563 0.0
C144 C 0.69734 0.1536 0.27617 0.0
C145 C 0.73056 0.19054 0.25983 0.0
C146 C 0.70393 0.16654 0.23784 0.0
C147 C 0.66166 0.12165 0.24145 0.0
C148 C 0.78126 0.19373 0.26168 0.0
C149 C 0.73151 0.23958 0.26489 0.0
C150 C 0.52552 0.99246 0.19241 0.0
C151 C 0.51221 0.98763 0.1699 0.0
C152 C 0.54326 1.02579 0.15579 0.0
C153 C 0.58725 1.0674 0.16417 0.0
C154 C 0.59984 1.07143 0.18698 0.0
C155 C 0.56829 1.03409 0.20049 0.0
C156 C 0.58373 1.04422 0.22438 0.0
C157 C 0.63033 0.0934 0.22338 0.0
C158 C 0.64097 0.10997 0.20146 0.0
C159 C 0.59407 1.00346 0.2321 0.0
C160 C 0.54301 1.04778 0.23725 0.0
H161 H 0.80385 0.26998 0.23638 0.0
H162 H 0.79125 0.2627 0.15416 0.0
H163 H 0.67458 0.22884 0.17564 0.0
H164 H 0.63807 0.17099 0.16179 0.0
H165 H 0.69206 0.21755 0.1488 0.0
H166 H 0.74675 0.1424 0.16844 0.0
H167 H 0.73605 0.17015 0.14485 0.0
H168 H 0.68703 0.11503 0.15583 0.0
H169 H 0.73301 0.1902 0.30736 0.0
H170 H 0.59937 1.05008 0.311 0.0
H171 H 0.59197 1.04299 0.2713 0.0
H172 H 0.77721 0.15776 0.2661 0.0
H173 H 0.80509 0.22122 0.27469 0.0
H174 H 0.80082 0.20243 0.24585 0.0
H175 H 0.69568 0.23277 0.27128 0.0
H176 H 0.73705 0.26137 0.24996 0.0
H177 H 0.76024 0.26245 0.27761 0.0
H178 H 0.8677 0.3331 0.2161 0.0
C179 C 0.7996 0.26662 0.21869 0.0
C180 C 0.67346 0.74252 0.50615 0.0
C181 C 0.678 0.78521 0.5172 0.0
C182 C 0.68138 0.78804 0.5405 0.0
C183 C 0.67571 0.70839 0.54179 0.0
C184 C 0.67307 0.70461 0.51888 0.0
C185 C 0.67085 0.65699 0.51087 0.0
H186 H 0.65618 0.43915 0.54254 0.0
C187 C 0.67356 0.6639 0.55067 0.0
C188 C 0.67096 0.63286 0.53276 0.0
H189 H 0.66188 0.48319 0.47503 0.0
H190 H 0.66801 0.56073 0.48827 0.0
H191 H 0.74066 0.5412 0.5612 0.0
H192 H 0.58358 0.47004 0.55889 0.0
H193 H 0.6012 0.50147 0.58467 0.0
H194 H 0.6163 0.45431 0.57846 0.0
H195 H 0.70261 0.49206 0.57895 0.0
H196 H 0.72453 0.55547 0.58688 0.0
C197 C 0.71701 0.67026 0.49748 0.0
C198 C 0.62302 0.62552 0.49723 0.0
C199 C 0.67103 0.6471 0.63461 0.0
C200 C 0.66736 0.60985 0.64832 0.0
C201 C 0.66415 0.56737 0.63838 0.0
C202 C 0.66459 0.56203 0.61528 0.0
C203 C 0.66817 0.59949 0.60176 0.0
C204 C 0.67122 0.64104 0.61149 0.0
C205 C 0.67431 0.67672 0.59454 0.0
C206 C 0.67261 0.64971 0.57296 0.0
C207 C 0.66918 0.60474 0.57735 0.0
C208 C 0.72428 0.72498 0.59823 0.0
C209 C 0.62837 0.68243 0.59692 0.0
C210 C 0.65885 0.46531 0.53046 0.0
C211 C 0.65814 0.45459 0.50777 0.0
C212 C 0.6624 0.4904 0.49269 0.0
C213 C 0.66578 0.53524 0.50039 0.0
C214 C 0.66556 0.54474 0.52341 0.0
C215 C 0.66264 0.50963 0.53778 0.0
C216 C 0.66331 0.52386 0.56157 0.0
C217 C 0.66709 0.57336 0.55963 0.0
C218 C 0.6682 0.58659 0.53729 0.0
C219 C 0.70984 0.52813 0.57294 0.0
C220 C 0.61387 0.4855 0.57162 0.0
H221 H 0.68266 0.75566 0.57033 0.0
H222 H 0.6711 0.73922 0.48822 0.0
H223 H 0.59089 0.62039 0.50681 0.0
H224 H 0.61717 0.58862 0.49304 0.0
H225 H 0.62352 0.64355 0.48153 0.0
H226 H 0.75059 0.69733 0.50701 0.0
H227 H 0.71594 0.68677 0.48154 0.0
H228 H 0.72099 0.63797 0.4938 0.0
H229 H 0.67315 0.68007 0.64168 0.0
H230 H 0.66205 0.53843 0.64851 0.0
H231 H 0.66225 0.52882 0.60893 0.0
H232 H 0.75253 0.71775 0.60556 0.0
H233 H 0.72085 0.75117 0.60967 0.0
H234 H 0.74034 0.74332 0.58255 0.0
H235 H 0.59594 0.64734 0.60179 0.0
H236 H 0.6166 0.69131 0.58123 0.0
H237 H 0.63462 0.71084 0.60983 0.0
H238 H 0.6843 0.81963 0.5495 0.0
C239 C 0.68019 0.75038 0.55269 0.0
C240 C 0.29382 0.63836 0.83748 0.0
C241 C 0.33258 0.63563 0.84848 0.0
C242 C 0.33363 0.63618 0.87181 0.0
C243 C 0.25781 0.63811 0.87316 0.0
C244 C 0.25643 0.63933 0.85027 0.0
C245 C 0.21117 0.64128 0.84233 0.0
H246 H 0.99349 0.62862 0.87299 0.0
C247 C 0.21376 0.63717 0.88203 0.0
C248 C 0.18529 0.63876 0.86417 0.0
H249 H 1.04873 0.65065 0.80666 0.0
H250 H 1.12169 0.64887 0.8201 0.0
H251 H 1.02272 0.54983 0.8873 0.0
H252 H 1.08982 0.70634 0.89443 0.0
H253 H 1.10673 0.68883 0.9188 0.0
H254 H 1.04257 0.66587 0.91244 0.0
H255 H 1.00149 0.57991 0.90601 0.0
H256 H 1.04763 0.56522 0.91441 0.0
C257 C 0.17953 0.59648 0.8268 0.0
C258 C 0.22853 0.69051 0.83101 0.0
C259 C 0.19188 0.62966 0.9658 0.0
C260 C 0.15555 0.62916 0.97931 0.0
C261 C 1.11372 0.62651 0.96925 0.0
C262 C 1.10866 0.62573 0.94615 0.0
C263 C 0.14605 0.62811 0.93278 0.0
C264 C 0.18649 0.62948 0.94264 0.0
C265 C 0.22265 0.63244 0.92578 0.0
C266 C 0.19765 0.63357 0.90421 0.0
C267 C 0.15293 0.63096 0.90846 0.0
C268 C 0.22617 0.5851 0.92727 0.0
C269 C 0.27167 0.6812 0.93042 0.0
C270 C 1.02081 0.63247 0.86118 0.0
C271 C 1.01465 0.63891 0.83872 0.0
C272 C 1.0523 0.64537 0.82411 0.0
C273 C 1.09457 0.64432 0.83192 0.0
C274 C 1.09989 0.63776 0.85467 0.0
C275 C 1.0631 0.63262 0.8687 0.0
C276 C 1.07453 0.62938 0.89245 0.0
C277 C 1.12379 0.63241 0.89077 0.0
C278 C 0.13938 0.63682 0.86861 0.0
C279 C 1.03454 0.57872 0.90069 0.0
C280 C 1.07835 0.67455 0.90537 0.0
H281 H 0.30061 0.63716 0.90168 0.0
H282 H 0.29209 0.6385 0.81955 0.0
H283 H 0.25623 0.72153 0.84172 0.0
H284 H 0.19825 0.69782 0.82796 0.0
H285 H 0.24568 0.6911 0.81492 0.0
H286 H 0.17177 0.56202 0.83491 0.0
H287 H 0.19879 0.59898 0.81113 0.0
H288 H 0.14381 0.59316 0.82255 0.0
H289 H 0.2246 0.63201 0.97309 0.0
H290 H 1.085 0.62555 0.97934 0.0
H291 H 1.07599 0.62398 0.93968 0.0
H292 H 0.19101 0.55352 0.93268 0.0
H293 H 0.25527 0.59021 0.93939 0.0
H294 H 0.23275 0.57255 0.91108 0.0
H295 H 0.26492 0.71043 0.93717 0.0
H296 H 0.2927 0.69681 0.91526 0.0
H297 H 0.29522 0.67631 0.94273 0.0
H298 H 0.36316 0.6353 0.88078 0.0
C299 C 0.29697 0.63734 0.88404 0.0
C300 C 0.96735 0.61934 0.46167 0.0
C301 C 0.92524 0.60877 0.44904 0.0
C302 C 0.93083 0.6213 0.4265 0.0
C303 C 1.0144 0.63675 0.42823 0.0
C304 C 1.01037 0.6303 0.45085 0.0
C305 C 1.0516 0.62561 0.46086 0.0
H306 H 0.27517 0.65461 0.45067 0.0
C307 C 1.05956 0.63699 0.42147 0.0
C308 C 1.08114 0.63011 0.44054 0.0
H309 H 0.18832 0.62148 0.50969 0.0
H310 H 1.11838 0.60727 0.48752 0.0
H311 H 0.18712 0.56243 0.42185 0.0
H312 H 0.2426 0.7177 0.42622 0.0
H313 H 0.23385 0.69851 0.39795 0.0
H314 H 0.27513 0.68905 0.41503 0.0
H315 H 0.23534 0.60356 0.40446 0.0
H316 H 0.17151 0.5766 0.3961 0.0
C317 C 1.03009 0.57402 0.47103 0.0
C318 C 1.07979 0.66919 0.47766 0.0
C319 C 1.10451 0.64895 0.34022 0.0
C320 C 0.1416 0.64523 0.32898 0.0
C321 C 0.17746 0.64137 0.34159 0.0
C322 C 0.17611 0.64063 0.36477 0.0
C323 C 1.13823 0.64317 0.37561 0.0
C324 C 1.10319 0.64723 0.36339 0.0
C325 C 1.06364 0.6458 0.37772 0.0
C326 C 1.08099 0.64042 0.40051 0.0
C327 C 1.1248 0.63912 0.39911 0.0
C328 C 1.01401 0.60013 0.37045 0.0
C329 C 1.0647 0.69524 0.37586 0.0
C330 C 0.24079 0.64254 0.45889 0.0
C331 C 0.23831 0.64195 0.48225 0.0
C332 C 0.1921 0.62468 0.49188 0.0
C333 C 0.15149 0.61676 0.47897 0.0
C334 C 0.15673 0.62466 0.4561 0.0
C335 C 0.19958 0.63365 0.44618 0.0
C336 C 0.1971 0.63747 0.42139 0.0
C337 C 0.14744 0.63391 0.41851 0.0
C338 C 1.12463 0.62753 0.43895 0.0
C339 C 0.19808 0.59304 0.41025 0.0
C340 C 0.23946 0.6882 0.41463 0.0
H341 H 0.97664 0.64122 0.39851 0.0
H342 H 0.96469 0.60994 0.47897 0.0
H343 H 1.08667 0.70414 0.47032 0.0
H344 H 1.11617 0.67515 0.48262 0.0
H345 H 1.05816 0.6637 0.49284 0.0
H346 H 0.99406 0.54703 0.46316 0.0
H347 H 1.02443 0.57561 0.48911 0.0
H348 H 1.05335 0.55736 0.4682 0.0
H349 H 1.07648 0.65232 0.33123 0.0
H350 H 0.20592 0.63741 0.33358 0.0
H351 H 0.20429 0.63744 0.37335 0.0
H352 H 1.0194 0.56977 0.36405 0.0
H353 H 0.9955 0.609 0.35707 0.0
H354 H 0.98868 0.58411 0.38432 0.0
H355 H 1.10317 0.72643 0.37651 0.0
H356 H 1.04621 0.70251 0.38965 0.0
H357 H 1.0475 0.69663 0.35993 0.0
H358 H 0.89908 0.61401 0.41641 0.0
C359 C 0.9755 0.63564 0.41603 0.0
C360 C 0.49645 0.94613 0.78125 0.0
C361 C 0.46586 0.90829 0.76597 0.0
C362 C 0.46313 0.92053 0.74383 0.0
C363 C 0.53082 1.00315 0.75148 0.0
C364 C 0.52962 0.9924 0.7736 0.0
C365 C 0.57246 1.03172 0.78689 0.0
H366 H 0.75516 0.26398 0.795 0.0
C367 C 0.57505 1.05162 0.74846 0.0
C368 C 0.59926 1.06855 0.76917 0.0
H369 H 0.70293 0.15466 0.84567 0.0
H370 H 0.65308 1.09226 0.81833 0.0
H371 H 0.76887 0.18659 0.75951 0.0
H372 H 0.66262 0.23332 0.76757 0.0
H373 H 0.67489 0.23331 0.73908 0.0
H374 H 0.72378 0.27304 0.75825 0.0
H375 H 0.77978 0.24485 0.75021 0.0
H376 H 0.74821 0.18976 0.73285 0.0
C377 C 0.60341 1.00981 0.79617 0.0
C378 C 0.55202 1.05195 0.80488 0.0
C379 C 0.62651 0.11659 0.67139 0.0
C380 C 0.66553 0.16045 0.66342 0.0
C381 C 0.69599 0.19823 0.67892 0.0
C382 C 0.6893 0.19145 0.7018 0.0
C383 C 0.65153 0.14657 0.70934 0.0
C384 C 0.61987 0.11074 0.69422 0.0
C385 C 0.58055 1.0661 0.70524 0.0
C386 C 0.59574 1.07988 0.72944 0.0
C387 C 0.6377 0.12678 0.73173 0.0
C388 C 0.58439 1.02093 0.69748 0.0
C389 C 0.5303 1.06182 0.69987 0.0
C390 C 0.73445 0.22651 0.80032 0.0
C391 C 0.73084 0.21513 0.82301 0.0
C392 C 0.70433 0.16525 0.82862 0.0
C393 C 0.67517 0.12889 0.81269 0.0
C394 C 0.67396 0.14218 0.79075 0.0
C395 C 0.70615 0.18936 0.78449 0.0
C396 C 0.70332 0.19509 0.75985 0.0
C397 C 0.6609 0.14474 0.75289 0.0
C398 C 0.64311 0.11462 0.77123 0.0
C399 C 0.75252 0.20492 0.74994 0.0
C400 C 0.69079 0.23602 0.75581 0.0
H401 H 0.49396 0.97425 0.71918 0.0
H402 H 0.5004 0.93837 0.79831 0.0
H403 H 0.525 1.06073 0.79741 0.0
H404 H 0.58045 1.08613 0.81323 0.0
H405 H 0.53303 1.02431 0.81775 0.0
H406 H 0.59637 0.9761 0.78665 0.0
H407 H 0.59503 0.99979 0.81377 0.0
H408 H 0.64339 1.03514 0.79473 0.0
H409 H 0.60242 1.08639 0.66022 0.0
H410 H 0.72534 0.23303 0.67342 0.0
H411 H 0.71396 0.22129 0.71275 0.0
H412 H 0.62347 1.03038 0.6971 0.0
H413 H 0.56822 1.00803 0.68052 0.0
H414 H 0.56646 0.98981 0.70865 0.0
H415 H 0.53428 0.0986 0.69751 0.0
H416 H 0.50426 1.0461 0.71354 0.0
H417 H 0.51334 1.03945 0.68441 0.0
H418 H 0.43966 0.89217 0.73173 0.0
C419 C 0.4954 0.96797 0.73651 0.0
C420 C 0.67105 0.41193 0.12629 0.0
C421 C 0.68198 0.38222 0.1125 0.0
C422 C 0.66537 0.37451 0.09013 0.0
C423 C 0.64897 0.44172 0.09403 0.0
C424 C 0.65757 0.44338 0.11662 0.0
C425 C 0.66184 0.48834 0.12797 0.0
H426 H 0.62887 0.68155 0.1237 0.0
C427 C 0.64763 0.48666 0.08859 0.0
C428 C 0.65497 0.51384 0.10846 0.0
H429 H 0.66928 0.627 0.18076 0.0
H430 H 0.6804 0.57152 0.15699 0.0
H431 H 0.71954 0.69028 0.0959 0.0
H432 H 0.56548 0.586 0.09492 0.0
H433 H 0.58579 0.60173 0.06742 0.0
H434 H 0.59326 0.64895 0.08696 0.0
H435 H 0.67835 0.6958 0.07713 0.0
H436 H 0.70766 0.661 0.06953 0.0
C437 C 0.71412 0.51913 0.13878 0.0
C438 C 0.61948 0.47104 0.14449 0.0
C439 C 0.64419 0.53004 0.00832 0.0
C440 C 0.6502 0.57273 -0.00163 0.0
C441 C 0.65033 0.60987 0.012 0.0
C442 C 0.64645 0.60535 0.03506 0.0
C443 C 0.64313 0.56368 0.04472 0.0
C444 C 0.64153 0.52664 0.0314 0.0
C445 C 0.64155 0.48671 0.04466 0.0
C446 C 0.64436 0.50644 0.06814 0.0
C447 C 0.64503 0.55141 0.06803 0.0
C448 C 0.688 0.48401 0.03881 0.0
C449 C 0.59257 0.43844 0.0398 0.0
C450 C 0.64159 0.65893 0.1312 0.0
C451 C 0.64499 0.65668 0.15448 0.0
C452 C 0.66336 0.62756 0.16308 0.0
C453 C 0.66979 0.59516 0.14921 0.0
C454 C 0.6598 0.59328 0.12638 0.0
C455 C 0.64973 0.62734 0.1175 0.0
C456 C 0.64578 0.62313 0.09251 0.0
C457 C 0.64979 0.5775 0.08826 0.0
C458 C 0.65679 0.55971 0.10823 0.0
C459 C 0.6898 0.66989 0.08317 0.0
C460 C 0.59497 0.61469 0.08491 0.0
H461 H 0.64082 0.3999 0.06326 0.0
H462 H 0.68224 0.41844 0.14365 0.0
H463 H 0.58424 0.44267 0.13648 0.0
H464 H 0.61306 0.50066 0.15041 0.0
H465 H 0.62667 0.45452 0.15912 0.0
H466 H 0.74104 0.51126 0.13059 0.0
H467 H 0.71413 0.5113 0.15664 0.0
H468 H 0.7298 0.55915 0.13696 0.0
H469 H 0.64297 0.50027 -0.00154 0.0
H470 H 0.65525 0.64336 0.00499 0.0
H471 H 0.6472 0.63494 0.04455 0.0
H472 H 0.71956 0.52126 0.03588 0.0
H473 H 0.68163 0.46104 0.02353 0.0
H474 H 0.7009 0.46987 0.05228 0.0
H475 H 0.56162 0.44579 0.03829 0.0
H476 H 0.58247 0.41214 0.05328 0.0
H477 H 0.59397 0.4204 0.024 0.0
H478 H 0.67165 0.3505 0.07922 0.0
C479 C 0.64877 0.40424 0.08079 0.0
H480 H 0.47991 0.69555 0.17938 0.0
H481 H 0.44466 0.57215 0.22037 0.0
H482 H 0.52743 0.58557 0.21636 0.0
H483 H 0.597 0.61555 0.19241 0.0
H484 H 0.63236 0.73719 0.14993 0.0
H485 H 0.5623 0.74183 0.16378 0.0
C486 C 0.49109 0.67306 0.18827 0.0
C487 C 0.45604 0.63197 0.19957 0.0
C488 C 0.53807 0.67975 0.1851 0.0
C489 C 0.47092 0.60328 0.21116 0.0
C490 C 0.5181 0.6108 0.20875 0.0
C491 C 0.59136 0.64479 0.18675 0.0
C492 C 0.61866 0.67421 0.16914 0.0
C493 C 0.55043 0.64644 0.19436 0.0
C494 C 0.61048 0.71224 0.16261 0.0
C495 C 0.5704 0.71501 0.17057 0.0
H496 H 0.84977 0.43904 0.50626 0.0
H497 H 0.84536 0.37253 0.44228 0.0
H498 H 0.84463 0.44007 0.42381 0.0
H499 H 0.86553 0.52504 0.42606 0.0
H500 H 0.88036 0.59685 0.48959 0.0
H501 H 0.85164 0.5189 0.50793 0.0
C502 C 0.84786 0.43912 0.4883 0.0
C503 C 0.84997 0.4022 0.47561 0.0
C504 C 0.84829 0.47866 0.47771 0.0
C505 C 0.84618 0.40188 0.45236 0.0
C506 C 0.84498 0.44006 0.44178 0.0
C507 C 0.86021 0.52341 0.44383 0.0
C508 C 0.87836 0.56719 0.45662 0.0
C509 C 0.84883 0.47987 0.45428 0.0
C510 C 0.86841 0.56379 0.47944 0.0
C511 C 0.85342 0.51946 0.49 0.0
H512 H 0.53251 0.79785 0.81925 0.0
H513 H 0.58898 0.7894 0.75534 0.0
H514 H 0.53088 0.8074 0.73708 0.0
H515 H 0.48089 0.84568 0.74051 0.0
H516 H 0.426 0.85719 0.80415 0.0
H517 H 0.46285 0.81303 0.82098 0.0
C518 C 0.53129 0.79866 0.8013 0.0
C519 C 0.56677 0.79486 0.78877 0.0
C520 C 0.49749 0.80878 0.79081 0.0
C521 C 0.5638 0.79484 0.76548 0.0
C522 C 0.53007 0.80436 0.75496 0.0
C523 C 0.47462 0.83641 0.75784 0.0
C524 C 0.4539 0.85775 0.77142 0.0
C525 C 0.49893 0.81438 0.7676 0.0
C526 C 0.44384 0.84294 0.79353 0.0
C527 C 0.46596 0.81876 0.80328 0.0
H528 H 0.87002 0.49242 0.16211 0.0
H529 H 0.91791 0.53496 0.09529 0.0
H530 H 0.84351 0.46383 0.08044 0.0
H531 H 0.75914 0.40229 0.08651 0.0
H532 H 0.70866 0.36017 0.15287 0.0
H533 H 0.79159 0.41521 0.16775 0.0
C534 C 0.86454 0.48565 0.14432 0.0
C535 C 0.89836 0.5202 0.12981 0.0
C536 C 0.82163 0.44433 0.1358 0.0
C537 C 0.89131 0.5102 0.1068 0.0
C538 C 0.84915 0.46909 0.09828 0.0
C539 C 0.7663 0.40313 0.10418 0.0
C540 C 0.72694 0.38045 0.11873 0.0
C541 C 0.81303 0.43742 0.11261 0.0
C542 C 0.73799 0.37948 0.14136 0.0
C543 C 0.78517 0.412 0.14995 0.0
H544 H 0.44424 0.81468 0.49907 0.0
H545 H 0.36221 0.86053 0.54015 0.0
H546 H 0.29331 0.77647 0.53968 0.0
H547 H 0.25057 0.69913 0.51892 0.0
H548 H 0.33039 0.65317 0.47622 0.0
H549 H 0.40683 0.72795 0.48672 0.0
C550 C 0.41211 0.80588 0.5087 0.0
C551 C 0.40744 0.84382 0.51901 0.0
C552 C 0.37203 0.7578 0.50771 0.0
C553 C 0.36587 0.83196 0.53157 0.0
C554 C 0.32651 0.78396 0.53127 0.0
C555 C 0.28467 0.7038 0.51259 0.0
C556 C 0.28419 0.67161 0.49583 0.0
C557 C 0.32801 0.74757 0.51805 0.0
C558 C 0.32933 0.67847 0.48836 0.0
C559 C 0.3731 0.72136 0.49431 0.0
H560 H 0.74069 0.40206 0.85693 0.0
H561 H 0.61651 0.29555 0.89295 0.0
H562 H 0.64262 0.23528 0.88697 0.0
H563 H 0.68338 0.20763 0.86161 0.0
H564 H 0.80566 0.31251 0.82386 0.0
H565 H 0.79833 0.37928 0.84109 0.0
C566 C 0.72065 0.36648 0.86443 0.0
C567 C 0.67566 0.35242 0.87459 0.0
C568 C 0.73472 0.33141 0.86008 0.0
C569 C 0.65047 0.30651 0.88447 0.0
C570 C 0.66527 0.27201 0.88095 0.0
C571 C 0.71024 0.245 0.85773 0.0
C572 C 0.74304 0.25454 0.84028 0.0
C573 C 0.70482 0.28295 0.86716 0.0
C574 C 0.77811 0.30373 0.83628 0.0
C575 C 0.77397 0.34203 0.84614 0.0
H576 H 0.63168 0.94543 0.47958 0.0
H577 H 0.76971 1.04115 0.51391 0.0
H578 H 0.7792 0.9711 0.52202 0.0
H579 H 0.74661 0.88208 0.52192 0.0
H580 H 0.60938 0.78433 0.48804 0.0
H581 H 0.60203 0.85511 0.47684 0.0
C582 C 0.66403 0.95108 0.48869 0.0
C583 C 0.69973 0.99926 0.49619 0.0
C584 C 0.66968 0.90997 0.49332 0.0
C585 C 0.74139 1.00515 0.5079 0.0
C586 C 0.74699 0.96484 0.51258 0.0
C587 C 0.71554 0.87624 0.51165 0.0
C588 C 0.67874 0.82765 0.50576 0.0
C589 C 0.71121 0.91707 0.50566 0.0
C590 C 0.63867 0.82106 0.49255 0.0
C591 C 0.63418 0.86168 0.4864 0.0
H592 H 0.84227 0.68191 0.81356 0.0
H593 H 0.7573 0.54073 0.84312 0.0
H594 H 0.83089 0.53535 0.84886 0.0
H595 H 0.91991 0.5707 0.84652 0.0
H596 H 1.00678 0.70925 0.81544 0.0
H597 H 0.93274 0.71522 0.80888 0.0
C598 C 0.84002 0.65011 0.82129 0.0
C599 C 0.79387 0.61191 0.82803 0.0
C600 C 0.88304 0.64646 0.82408 0.0
C601 C 0.79187 0.57068 0.83772 0.0
C602 C 0.83414 0.56748 0.84103 0.0
C603 C 0.92262 0.602 0.83807 0.0
C604 C 0.96906 0.63945 0.83149 0.0
C605 C 0.87991 0.60505 0.83434 0.0
C606 C 0.97162 0.6796 0.82049 0.0
C607 C 0.92922 0.68323 0.81693 0.0
H608 H 0.29354 0.81733 0.14568 0.0
H609 H 0.35282 0.73059 0.17154 0.0
H610 H 0.43294 0.80354 0.17665 0.0
H611 H 0.48674 0.89261 0.17525 0.0
H612 H 0.43185 0.98158 0.14813 0.0
H613 H 0.35068 0.90792 0.14162 0.0
C614 C 0.32402 0.81451 0.15243 0.0
C615 C 0.3165 0.768 0.15836 0.0
C616 C 0.37131 0.85724 0.15491 0.0
C617 C 0.35694 0.76535 0.16679 0.0
C618 C 0.40313 0.80729 0.16974 0.0
C619 C 0.4572 0.89582 0.16759 0.0
C620 C 0.46554 0.94265 0.16215 0.0
C621 C 0.4108 0.85341 0.16398 0.0
C622 C 0.42674 0.94603 0.15224 0.0
C623 C 0.38011 0.90386 0.14875 0.0
H624 H 0.60992 0.23309 0.50311 0.0
H625 H 0.74476 0.2976 0.46719 0.0
H626 H 0.74794 0.37684 0.46829 0.0
H627 H 0.71722 0.43095 0.48269 0.0
H628 H 0.58263 0.3659 0.51869 0.0
H629 H 0.57512 0.28507 0.51442 0.0
C630 C 0.63995 0.26433 0.49539 0.0
C631 C 0.67733 0.25889 0.48533 0.0
C632 C 0.64216 0.3105 0.49633 0.0
C633 C 0.71573 0.30028 0.47538 0.0
C634 C 0.71777 0.34595 0.47604 0.0
C635 C 0.68565 0.39888 0.4891 0.0
C636 C 0.65042 0.40482 0.50095 0.0
C637 C 0.68183 0.35198 0.48688 0.0
C638 C 0.61025 0.36264 0.50947 0.0
C639 C 0.60604 0.31626 0.50714 0.0
H640 H 0.53147 0.66236 0.80915 0.0
H641 H 0.48827 0.53581 0.84937 0.0
H642 H 0.41106 0.53159 0.85686 0.0
H643 H 0.35752 0.56642 0.85501 0.0
H644 H 0.39837 0.6949 0.81701 0.0
H645 H 0.47307 0.6948 0.80525 0.0
C646 C 0.50528 0.6341 0.81964 0.0
C647 C 0.51695 0.60011 0.82896 0.0
C648 C 0.45992 0.63191 0.82424 0.0
C649 C 0.48141 0.56292 0.842 0.0
C650 C 0.43677 0.56031 0.84637 0.0
C651 C 0.38242 0.59415 0.84388 0.0
C652 C 0.37211 0.63061 0.83698 0.0
C653 C 0.42595 0.59497 0.83796 0.0
C654 C 0.40485 0.66605 0.82246 0.0
C655 C 0.44808 0.66644 0.81603 0.0
H656 H 1.00192 0.49667 0.13879 0.0
H657 H 1.09053 0.47136 0.18597 0.0
H658 H 1.01966 0.39492 0.19599 0.0
H659 H 0.93209 0.33692 0.19359 0.0
H660 H 0.83984 0.35839 0.14744 0.0
H661 H 0.91252 0.43215 0.13399 0.0
C662 C 1.00571 0.47436 0.15121 0.0
C663 C 1.05213 0.49083 0.16171 0.0
C664 C 0.96399 0.4292 0.15708 0.0
C665 C 1.0559 0.46054 0.17754 0.0
C666 C 1.01512 0.41643 0.18339 0.0
C667 C 0.92752 0.35776 0.18063 0.0
C668 C 0.88001 0.34252 0.17203 0.0
C669 C 0.96895 0.40077 0.17358 0.0
C670 C 0.8756 0.36929 0.15464 0.0
C671 C 0.91717 0.41199 0.14718 0.0
H672 H 0.16861 0.67711 0.08178 0.0
H673 H 0.19773 0.55718 0.0845 0.0
H674 H 0.19304 0.54954 0.04385 0.0
H675 H 0.17876 0.57634 0.00742 0.0
H676 H 0.147 0.69456 0.00593 0.0
H677 H 0.15477 0.70354 0.04626 0.0
C678 C 0.17422 0.64936 0.07357 0.0
C679 C 0.18366 0.61785 0.08621 0.0
C680 C 0.17087 0.64484 0.05037 0.0
C681 C 0.19037 0.5819 0.07518 0.0
C682 C 0.18773 0.57755 0.05194 0.0
C683 C 0.17389 0.60418 0.01601 0.0
C684 C 0.16209 0.63462 0.00378 0.0
C685 C 0.17778 0.60873 0.03935 0.0
C686 C 0.15553 0.67038 0.01503 0.0
C687 C 0.16011 0.67563 0.03807 0.0
H688 H 0.62521 0.12092 0.41395 0.0
H689 H 0.77035 0.13971 0.41978 0.0
H690 H 0.77683 0.14223 0.37931 0.0
H691 H 0.7396 0.13648 0.34198 0.0
H692 H 0.59357 0.11546 0.33723 0.0
H693 H 0.58929 0.1169 0.37757 0.0
C694 C 0.65841 0.12565 0.40647 0.0
C695 C 0.69714 0.1299 0.41995 0.0
C696 C 0.66174 0.1268 0.38332 0.0
C697 C 0.73984 0.1361 0.40983 0.0
C698 C 0.7436 0.13764 0.38668 0.0
C699 C 0.70719 0.13276 0.34989 0.0
C700 C 0.66686 0.12572 0.33674 0.0
C701 C 0.70463 0.13277 0.37322 0.0
C702 C 0.62485 0.12055 0.34707 0.0
C703 C 0.62238 0.12135 0.37011 0.0
H704 H 0.69993 0.66338 0.75103 0.0
H705 H 0.58299 0.51265 0.75425 0.0
H706 H 0.57887 0.50498 0.71378 0.0
H707 H 0.60925 0.54069 0.67747 0.0
H708 H 0.72621 0.6913 0.67436 0.0
H709 H 0.72903 0.69953 0.71481 0.0
C710 C 0.67354 0.62877 0.74292 0.0
C711 C 0.64204 0.58854 0.75572 0.0
C712 C 0.67122 0.62465 0.71964 0.0
C713 C 0.60775 0.54419 0.74486 0.0
C714 C 0.60538 0.53975 0.72169 0.0
C715 C 0.63553 0.57524 0.68565 0.0
C716 C 0.6676 0.61526 0.67289 0.0
C717 C 0.6371 0.57965 0.70893 0.0
C718 C 0.70081 0.66006 0.68375 0.0
C719 C 0.70266 0.6647 0.70689 0.0
H720 H 0.74208 0.18334 0.56519 0.0
H721 H 0.58726 1.08659 0.55196 0.0
H722 H 0.57019 1.09217 0.59092 0.0
H723 H 0.59913 0.12208 0.62873 0.0
H724 H 0.75489 0.20984 0.64323 0.0
H725 H 0.77142 0.21194 0.6038 0.0
C726 C 0.70468 0.16373 0.57092 0.0
C727 C 0.66602 0.13448 0.55584 0.0
C728 C 0.69521 0.16586 0.59353 0.0
C729 C 0.61768 0.10895 0.56336 0.0
C730 C 0.60785 0.11227 0.5856 0.0
C731 C 0.63684 0.14118 0.62345 0.0
C732 C 0.67555 0.1654 0.6392 0.0
C733 C 0.64638 0.14009 0.60087 0.0
C734 C 0.72404 0.19137 0.63166 0.0
C735 C 0.73369 0.19214 0.60904 0.0
H736 H 0.70138 0.57848 0.89714 0.0
H737 H 0.62435 0.65934 0.89408 0.0
H738 H 0.61243 0.65244 0.93418 0.0
H739 H 0.6198 0.61904 0.96959 0.0
H740 H 0.70176 0.54277 0.97248 0.0
H741 H 0.71454 0.55117 0.93281 0.0
C742 C 0.68229 0.59493 0.90527 0.0
C743 C 0.66351 0.6191 0.8927 0.0
C744 C 0.67566 0.59089 0.92822 0.0
C745 C 0.63931 0.64068 0.90345 0.0
C746 C 0.6322 0.63646 0.92634 0.0
C747 C 0.64107 0.60484 0.96167 0.0
C748 C 0.65891 0.57946 0.97413 0.0
C749 C 0.64965 0.61102 0.93883 0.0
C750 C 0.68608 0.56104 0.96335 0.0
C751 C 0.694 0.56633 0.94064 0.0
H752 H 1.10597 0.61117 0.2252 0.0
H753 H 0.26417 0.68421 0.22689 0.0
H754 H 0.26512 0.69419 0.26729 0.0
H755 H 0.22086 0.68212 0.30194 0.0
H756 H 1.06218 0.60214 0.30015 0.0
H757 H 1.06178 0.59639 0.25988 0.0
C758 C 0.14069 0.62945 0.2344 0.0
C759 C 0.18494 0.64714 0.22312 0.0
C760 C 0.14091 0.63424 0.25757 0.0
C761 C 0.22961 0.67018 0.23525 0.0
C762 C 0.23016 0.676 0.25832 0.0
C763 C 0.18609 0.66288 0.29285 0.0
C764 C 0.14165 0.64291 0.30427 0.0
C765 C 0.18599 0.65803 0.26965 0.0
C766 C 1.09707 0.61898 0.29196 0.0
C767 C 1.09672 0.61512 0.26887 0.0
loop_
_geom_bond_atom_site_label_1
_geom_bond_atom_site_label_2
_geom_bond_distance
_geom_bond_site_symmetry_2
_ccdc_geom_bond_type
Tb0 C10 2.825 . S
Tb0 O11 2.347 . S
Tb0 O14 2.366 . S
Tb0 O19 2.418 . S
Tb0 O20 2.384 1_455 S
Tb0 O23 2.479 . S
Tb0 O24 2.471 . S
Eu1 O12 2.418 . S
Eu1 O13 2.384 1_655 S
Eu1 O16 2.479 . S
Eu1 O17 2.471 . S
Eu1 O18 2.347 1_655 S
Eu1 O21 2.366 . S
Eu1 C31 2.825 . S
C2 O18 1.259 . S
C2 O19 1.265 . S
C3 O20 1.255 . S
C3 O21 1.265 . S
C4 C6 1.380 . S
C4 C7 1.374 . S
C4 C10 1.507 . S
C5 C6 1.384 . S
C5 C9 1.387 . S
C5 H32 0.930 . S
C6 C4 1.380 . S
C6 C5 1.384 . S
C6 H33 0.931 . S
C7 C4 1.374 . S
C7 C8 1.390 . S
C7 H34 0.930 . S
C8 C7 1.390 . S
C8 C9 1.391 . S
C8 H35 0.930 . S
C9 C5 1.387 . S
C9 C8 1.391 . S
C10 Tb0 2.825 . S
C10 C4 1.507 . S
C10 O23 1.238 . S
C10 O24 1.247 . S
O11 Tb0 2.347 . S
O11 C15 1.259 . S
O12 Eu1 2.418 . S
O12 C15 1.263 1_655 S
O13 Eu1 2.384 1_455 S
O13 C22 1.255 . S
O14 Tb0 2.366 . S
O14 C22 1.265 . S
C15 O11 1.259 . S
C15 O12 1.263 1_455 S
O16 Eu1 2.479 . S
O16 C31 1.238 . S
O17 Eu1 2.471 . S
O17 C31 1.247 . S
O18 Eu1 2.347 1_455 S
O18 C2 1.259 . S
O19 Tb0 2.418 . S
O19 C2 1.265 . S
O20 Tb0 2.384 1_655 S
O20 C3 1.255 . S
O21 Eu1 2.366 . S
O21 C3 1.265 . S
C22 O13 1.255 . S
C22 O14 1.265 . S
O23 Tb0 2.479 . S
O23 C10 1.238 . S
O24 Tb0 2.471 . S
O24 C10 1.247 . S
C25 C28 1.380 . S
C25 C29 1.374 . S
C25 C31 1.507 . S
C26 C27 1.387 . S
C26 C30 1.391 . S
C27 C26 1.387 . S
C27 C28 1.384 . S
C27 H36 0.930 . S
C28 C25 1.380 . S
C28 C27 1.384 . S
C28 H37 0.931 . S
C29 C25 1.374 . S
C29 C30 1.390 . S
C29 H38 0.930 . S
C30 C26 1.391 . S
C30 C29 1.390 . S
C30 H39 0.930 . S
C31 Eu1 2.825 . S
C31 O16 1.238 . S
C31 O17 1.247 . S
C31 C25 1.507 . S
H32 C5 0.930 . S
H33 C6 0.931 . S
H34 C7 0.930 . S
H35 C8 0.930 . S
H36 C27 0.930 . S
H37 C28 0.931 . S
H38 C29 0.930 . S
H39 C30 0.930 . S
Tb40 C50 2.825 . S
Tb40 O51 2.347 . S
Tb40 O54 2.366 . S
Tb40 O59 2.418 . S
Tb40 O60 2.384 1_545 S
Tb40 O63 2.479 . S
Tb40 O64 2.471 . S
Eu41 O52 2.418 . S
Eu41 O53 2.384 . S
Eu41 O56 2.479 1_545 S
Eu41 O57 2.471 1_545 S
Eu41 O58 2.347 . S
Eu41 O61 2.366 1_545 S
Eu41 C71 2.825 1_545 S
C42 O58 1.259 . S
C42 O59 1.265 . S
C43 O60 1.255 . S
C43 O61 1.265 . S
C44 C46 1.380 . S
C44 C47 1.374 . S
C44 C50 1.507 . S
C45 C46 1.384 . S
C45 C49 1.387 . S
C45 H72 0.930 . S
C46 C44 1.380 . S
C46 C45 1.384 . S
C46 H73 0.931 . S
C47 C44 1.374 . S
C47 C48 1.390 . S
C47 H74 0.930 . S
C48 C47 1.390 . S
C48 C49 1.391 . S
C48 H75 0.930 . S
C49 C45 1.387 . S
C49 C48 1.391 . S
C50 Tb40 2.825 . S
C50 C44 1.507 . S
C50 O63 1.238 . S
C50 O64 1.247 . S
O51 Tb40 2.347 . S
O51 C55 1.259 . S
O52 Eu41 2.418 . S
O52 C55 1.265 . S
O53 Eu41 2.384 . S
O53 C62 1.255 . S
O54 Tb40 2.366 . S
O54 C62 1.265 . S
C55 O51 1.259 . S
C55 O52 1.265 . S
O56 Eu41 2.479 1_565 S
O56 C71 1.238 . S
O57 Eu41 2.471 1_565 S
O57 C71 1.247 . S
O58 Eu41 2.347 . S
O58 C42 1.259 . S
O59 Tb40 2.418 . S
O59 C42 1.265 . S
O60 Tb40 2.384 1_565 S
O60 C43 1.255 . S
O61 Eu41 2.366 1_565 S
O61 C43 1.265 . S
C62 O53 1.255 . S
C62 O54 1.265 . S
O63 Tb40 2.479 . S
O63 C50 1.238 . S
O64 Tb40 2.471 . S
O64 C50 1.247 . S
C65 C68 1.380 . S
C65 C69 1.374 . S
C65 C71 1.507 . S
C66 C67 1.387 . S
C66 C70 1.391 . S
C67 C66 1.387 . S
C67 C68 1.384 . S
C67 H76 0.930 . S
C68 C65 1.380 . S
C68 C67 1.384 . S
C68 H77 0.931 . S
C69 C65 1.374 . S
C69 C70 1.390 . S
C69 H78 0.930 . S
C70 C66 1.391 . S
C70 C69 1.390 . S
C70 H79 0.930 . S
C71 Eu41 2.825 1_565 S
C71 O56 1.238 . S
C71 O57 1.247 . S
C71 C65 1.507 . S
H72 C45 0.930 . S
H73 C46 0.931 . S
H74 C47 0.930 . S
H75 C48 0.930 . S
H76 C67 0.930 . S
H77 C68 0.931 . S
H78 C69 0.930 . S
H79 C70 0.930 . S
Tb80 C90 2.825 . S
Tb80 O91 2.347 . S
Tb80 O94 2.366 . S
Tb80 O99 2.418 . S
Tb80 O100 2.384 . S
Tb80 O103 2.479 . S
Tb80 O104 2.471 . S
Eu81 O92 2.418 . S
Eu81 O93 2.384 . S
Eu81 O96 2.479 . S
Eu81 O97 2.471 . S
Eu81 O98 2.347 . S
Eu81 O101 2.366 . S
Eu81 C111 2.825 . S
C82 O98 1.259 . S
C82 O99 1.265 . S
C83 O100 1.255 . S
C83 O101 1.265 . S
C84 C86 1.380 . S
C84 C87 1.374 . S
C84 C90 1.507 . S
C85 C86 1.384 . S
C85 C89 1.387 . S
C85 H112 0.930 . S
C86 C84 1.380 . S
C86 C85 1.384 . S
C86 H113 0.931 . S
C87 C84 1.374 . S
C87 C88 1.390 . S
C87 H114 0.930 . S
C88 C87 1.390 . S
C88 C89 1.391 . S
C88 H115 0.930 . S
C89 C85 1.387 . S
C89 C88 1.391 . S
C90 Tb80 2.825 . S
C90 C84 1.507 . S
C90 O103 1.238 . S
C90 O104 1.247 . S
O91 Tb80 2.347 . S
O91 C95 1.259 . S
O92 Eu81 2.418 . S
O92 C95 1.265 . S
O93 Eu81 2.384 . S
O93 C102 1.255 . S
O94 Tb80 2.366 . S
O94 C102 1.265 . S
C95 O91 1.259 . S
C95 O92 1.265 . S
O96 Eu81 2.479 . S
O96 C111 1.238 . S
O97 Eu81 2.471 . S
O97 C111 1.247 . S
O98 Eu81 2.347 . S
O98 C82 1.259 . S
O99 Tb80 2.418 . S
O99 C82 1.265 . S
O100 Tb80 2.384 . S
O100 C83 1.255 . S
O101 Eu81 2.366 . S
O101 C83 1.265 . S
C102 O93 1.255 . S
C102 O94 1.265 . S
O103 Tb80 2.479 . S
O103 C90 1.238 . S
O104 Tb80 2.471 . S
O104 C90 1.247 . S
C105 C108 1.380 . S
C105 C109 1.374 . S
C105 C111 1.507 . S
C106 C107 1.387 . S
C106 C110 1.391 . S
C107 C106 1.387 . S
C107 C108 1.384 . S
C107 H116 0.930 . S
C108 C105 1.380 . S
C108 C107 1.384 . S
C108 H117 0.931 . S
C109 C105 1.374 . S
C109 C110 1.390 . S
C109 H118 0.930 . S
C110 C106 1.391 . S
C110 C109 1.390 . S
C110 H119 0.930 . S
C111 Eu81 2.825 . S
C111 O96 1.238 . S
C111 O97 1.247 . S
C111 C105 1.507 . S
H112 C85 0.930 . S
H113 C86 0.931 . S
H114 C87 0.930 . S
H115 C88 0.930 . S
H116 C107 0.930 . S
H117 C108 0.931 . S
H118 C109 0.930 . S
H119 C110 0.930 . S
C120 C121 1.391 . S
C120 C124 1.391 . S
C120 H162 0.948 . S
C121 C120 1.391 . S
C121 C122 1.391 . S
C122 C121 1.391 . S
C122 H178 0.947 . S
C122 C179 1.392 . S
C123 C124 1.391 . S
C123 C127 1.397 . S
C123 C179 1.419 . S
C124 C120 1.391 . S
C124 C123 1.391 . S
C124 C125 1.399 . S
C125 C124 1.399 . S
C125 C128 1.396 . S
C125 C137 1.453 . S
C125 C138 1.684 . S
H126 C150 0.948 . S
C127 C123 1.397 . S
C127 C128 1.394 . S
C127 C146 1.723 . S
C128 C125 1.396 . S
C128 C127 1.394 . S
C128 C158 1.723 1_545 S
H129 C152 0.947 . S
H130 C153 0.948 . S
H131 C159 0.982 . S
H132 C160 0.979 . S
H133 C160 0.980 . S
H134 C160 0.983 . S
H135 C159 0.979 . S
H136 C159 0.977 . S
C137 C125 1.453 . S
C137 H166 0.982 . S
C137 H167 0.979 . S
C137 H168 0.977 1_545 S
C138 C125 1.684 . S
C138 H163 0.979 . S
C138 H164 0.980 . S
C138 H165 0.983 . S
C139 C140 1.391 . S
C139 C144 1.391 . S
C139 H169 0.948 . S
C140 C139 1.391 . S
C140 C141 1.391 1_545 S
C141 C140 1.391 1_565 S
C141 C142 1.392 . S
C141 H170 0.947 . S
C142 C141 1.392 . S
C142 C143 1.419 1_565 S
C142 H171 0.948 . S
C143 C142 1.419 1_545 S
C143 C144 1.391 . S
C143 C147 1.397 . S
C144 C139 1.391 . S
C144 C143 1.391 . S
C144 C145 1.399 . S
C145 C144 1.399 . S
C145 C146 1.396 . S
C145 C148 1.453 . S
C145 C149 1.684 . S
C146 C127 1.723 . S
C146 C145 1.396 . S
C146 C147 1.394 . S
C147 C143 1.397 . S
C147 C146 1.394 . S
C147 C157 1.723 1_545 S
C148 C145 1.453 . S
C148 H172 0.982 . S
C148 H173 0.979 . S
C148 H174 0.977 . S
C149 C145 1.684 . S
C149 H175 0.979 . S
C149 H176 0.980 . S
C149 H177 0.983 . S
C150 H126 0.948 . S
C150 C151 1.391 . S
C150 C155 1.391 . S
C151 C150 1.391 . S
C151 C152 1.391 . S
C152 H129 0.947 . S
C152 C151 1.391 . S
C152 C153 1.392 . S
C153 H130 0.948 . S
C153 C152 1.392 . S
C153 C154 1.419 . S
C154 C153 1.419 . S
C154 C155 1.391 . S
C154 C158 1.397 . S
C155 C150 1.391 . S
C155 C154 1.391 . S
C155 C156 1.399 . S
C156 C155 1.399 . S
C156 C157 1.396 . S
C156 C159 1.453 . S
C156 C160 1.684 . S
C157 C147 1.723 1_565 S
C157 C156 1.396 . S
C157 C158 1.394 . S
C158 C128 1.723 1_565 S
C158 C154 1.397 . S
C158 C157 1.394 . S
C159 H131 0.982 . S
C159 H135 0.979 . S
C159 H136 0.977 . S
C159 C156 1.453 . S
C160 H132 0.979 . S
C160 H133 0.980 . S
C160 H134 0.983 . S
C160 C156 1.684 . S
H161 C179 0.948 . S
H162 C120 0.948 . S
H163 C138 0.979 . S
H164 C138 0.980 . S
H165 C138 0.983 . S
H166 C137 0.982 . S
H167 C137 0.979 . S
H168 C137 0.977 1_565 S
H169 C139 0.948 . S
H170 C141 0.947 . S
H171 C142 0.948 . S
H172 C148 0.982 . S
H173 C148 0.979 . S
H174 C148 0.977 . S
H175 C149 0.979 . S
H176 C149 0.980 . S
H177 C149 0.983 . S
H178 C122 0.947 . S
C179 C122 1.392 . S
C179 C123 1.419 . S
C179 H161 0.948 . S
C180 C181 1.391 . S
C180 C184 1.391 . S
C180 H222 0.948 . S
C181 C180 1.391 . S
C181 C182 1.391 . S
C182 C181 1.391 . S
C182 H238 0.947 . S
C182 C239 1.392 . S
C183 C184 1.391 . S
C183 C187 1.397 . S
C183 C239 1.419 . S
C184 C180 1.391 . S
C184 C183 1.391 . S
C184 C185 1.399 . S
C185 C184 1.399 . S
C185 C188 1.396 . S
C185 C197 1.453 . S
C185 C198 1.684 . S
H186 C210 0.948 . S
C187 C183 1.397 . S
C187 C188 1.394 . S
C187 C206 1.723 . S
C188 C185 1.396 . S
C188 C187 1.394 . S
C188 C218 1.723 . S
H189 C212 0.947 . S
H190 C213 0.948 . S
H191 C219 0.982 . S
H192 C220 0.979 . S
H193 C220 0.980 . S
H194 C220 0.983 . S
H195 C219 0.979 . S
H196 C219 0.977 . S
C197 C185 1.453 . S
C197 H226 0.982 . S
C197 H227 0.979 . S
C197 H228 0.977 . S
C198 C185 1.684 . S
C198 H223 0.979 . S
C198 H224 0.980 . S
C198 H225 0.983 . S
C199 C200 1.391 . S
C199 C204 1.391 . S
C199 H229 0.948 . S
C200 C199 1.391 . S
C200 C201 1.391 . S
C201 C200 1.391 . S
C201 C202 1.392 . S
C201 H230 0.947 . S
C202 C201 1.392 . S
C202 C203 1.419 . S
C202 H231 0.948 . S
C203 C202 1.419 . S
C203 C204 1.391 . S
C203 C207 1.397 . S
C204 C199 1.391 . S
C204 C203 1.391 . S
C204 C205 1.399 . S
C205 C204 1.399 . S
C205 C206 1.396 . S
C205 C208 1.453 . S
C205 C209 1.684 . S
C206 C187 1.723 . S
C206 C205 1.396 . S
C206 C207 1.394 . S
C207 C203 1.397 . S
C207 C206 1.394 . S
C207 C217 1.723 . S
C208 C205 1.453 . S
C208 H232 0.982 . S
C208 H233 0.979 . S
C208 H234 0.977 . S
C209 C205 1.684 . S
C209 H235 0.979 . S
C209 H236 0.980 . S
C209 H237 0.983 . S
C210 H186 0.948 . S
C210 C211 1.391 . S
C210 C215 1.391 . S
C211 C210 1.391 . S
C211 C212 1.391 . S
C212 H189 0.947 . S
C212 C211 1.391 . S
C212 C213 1.392 . S
C213 H190 0.948 . S
C213 C212 1.392 . S
C213 C214 1.419 . S
C214 C213 1.419 . S
C214 C215 1.391 . S
C214 C218 1.397 . S
C215 C210 1.391 . S
C215 C214 1.391 . S
C215 C216 1.399 . S
C216 C215 1.399 . S
C216 C217 1.396 . S
C216 C219 1.453 . S
C216 C220 1.684 . S
C217 C207 1.723 . S
C217 C216 1.396 . S
C217 C218 1.394 . S
C218 C188 1.723 . S
C218 C214 1.397 . S
C218 C217 1.394 . S
C219 H191 0.982 . S
C219 H195 0.979 . S
C219 H196 0.977 . S
C219 C216 1.453 . S
C220 H192 0.979 . S
C220 H193 0.980 . S
C220 H194 0.983 . S
C220 C216 1.684 . S
H221 C239 0.948 . S
H222 C180 0.948 . S
H223 C198 0.979 . S
H224 C198 0.980 . S
H225 C198 0.983 . S
H226 C197 0.982 . S
H227 C197 0.979 . S
H228 C197 0.977 . S
H229 C199 0.948 . S
H230 C201 0.947 . S
H231 C202 0.948 . S
H232 C208 0.982 . S
H233 C208 0.979 . S
H234 C208 0.977 . S
H235 C209 0.979 . S
H236 C209 0.980 . S
H237 C209 0.983 . S
H238 C182 0.947 . S
C239 C182 1.392 . S
C239 C183 1.419 . S
C239 H221 0.948 . S
C240 C241 1.391 . S
C240 C244 1.391 . S
C240 H282 0.948 . S
C241 C240 1.391 . S
C241 C242 1.391 . S
C242 C241 1.391 . S
C242 H298 0.947 . S
C242 C299 1.392 . S
C243 C244 1.391 . S
C243 C247 1.397 . S
C243 C299 1.419 . S
C244 C240 1.391 . S
C244 C243 1.391 . S
C244 C245 1.399 . S
C245 C244 1.399 . S
C245 C248 1.396 . S
C245 C257 1.453 . S
C245 C258 1.684 . S
H246 C270 0.948 . S
C247 C243 1.397 . S
C247 C248 1.394 . S
C247 C266 1.723 . S
C248 C245 1.396 . S
C248 C247 1.394 . S
C248 C278 1.723 1_455 S
H249 C272 0.947 . S
H250 C273 0.948 . S
H251 C279 0.982 . S
H252 C280 0.979 . S
H253 C280 0.980 . S
H254 C280 0.983 . S
H255 C279 0.979 . S
H256 C279 0.977 . S
C257 C245 1.453 . S
C257 H286 0.982 . S
C257 H287 0.979 . S
C257 H288 0.977 . S
C258 C245 1.684 . S
C258 H283 0.979 . S
C258 H284 0.980 . S
C258 H285 0.983 . S
C259 C260 1.391 . S
C259 C264 1.391 . S
C259 H289 0.948 . S
C260 C259 1.391 . S
C260 C261 1.391 1_455 S
C261 C260 1.391 1_655 S
C261 C262 1.392 . S
C261 H290 0.947 . S
C262 C261 1.392 . S
C262 C263 1.419 1_655 S
C262 H291 0.948 . S
C263 C262 1.419 1_455 S
C263 C264 1.391 . S
C263 C267 1.397 . S
C264 C259 1.391 . S
C264 C263 1.391 . S
C264 C265 1.399 . S
C265 C264 1.399 . S
C265 C266 1.396 . S
C265 C268 1.453 . S
C265 C269 1.684 . S
C266 C247 1.723 . S
C266 C265 1.396 . S
C266 C267 1.394 . S
C267 C263 1.397 . S
C267 C266 1.394 . S
C267 C277 1.723 1_455 S
C268 C265 1.453 . S
C268 H292 0.982 . S
C268 H293 0.979 . S
C268 H294 0.977 . S
C269 C265 1.684 . S
C269 H295 0.979 . S
C269 H296 0.980 . S
C269 H297 0.983 . S
C270 H246 0.948 . S
C270 C271 1.391 . S
C270 C275 1.391 . S
C271 C270 1.391 . S
C271 C272 1.391 . S
C272 H249 0.947 . S
C272 C271 1.391 . S
C272 C273 1.392 . S
C273 H250 0.948 . S
C273 C272 1.392 . S
C273 C274 1.419 . S
C274 C273 1.419 . S
C274 C275 1.391 . S
C274 C278 1.397 . S
C275 C270 1.391 . S
C275 C274 1.391 . S
C275 C276 1.399 . S
C276 C275 1.399 . S
C276 C277 1.396 . S
C276 C279 1.453 . S
C276 C280 1.684 . S
C277 C267 1.723 1_655 S
C277 C276 1.396 . S
C277 C278 1.394 . S
C278 C248 1.723 1_655 S
C278 C274 1.397 . S
C278 C277 1.394 . S
C279 H251 0.982 . S
C279 H255 0.979 . S
C279 H256 0.977 . S
C279 C276 1.453 . S
C280 H252 0.979 . S
C280 H253 0.980 . S
C280 H254 0.983 . S
C280 C276 1.684 . S
H281 C299 0.948 . S
H282 C240 0.948 . S
H283 C258 0.979 . S
H284 C258 0.980 . S
H285 C258 0.983 . S
H286 C257 0.982 . S
H287 C257 0.979 . S
H288 C257 0.977 . S
H289 C259 0.948 . S
H290 C261 0.947 . S
H291 C262 0.948 . S
H292 C268 0.982 . S
H293 C268 0.979 . S
H294 C268 0.977 . S
H295 C269 0.979 . S
H296 C269 0.980 . S
H297 C269 0.983 . S
H298 C242 0.947 . S
C299 C242 1.392 . S
C299 C243 1.419 . S
C299 H281 0.948 . S
C300 C301 1.391 . S
C300 C304 1.391 . S
C300 H342 0.948 . S
C301 C300 1.391 . S
C301 C302 1.391 . S
C302 C301 1.391 . S
C302 H358 0.947 . S
C302 C359 1.392 . S
C303 C304 1.391 . S
C303 C307 1.397 . S
C303 C359 1.419 . S
C304 C300 1.391 . S
C304 C303 1.391 . S
C304 C305 1.399 . S
C305 C304 1.399 . S
C305 C308 1.396 . S
C305 C317 1.453 1_655 S
C305 C318 1.684 . S
H306 C330 0.948 . S
C307 C303 1.397 . S
C307 C308 1.394 . S
C307 C326 1.723 . S
C308 C305 1.396 . S
C308 C307 1.394 . S
C308 C338 1.723 1_655 S
H309 C332 0.947 . S
H310 C333 0.948 . S
H311 C339 0.982 . S
H312 C340 0.979 . S
H313 C340 0.980 . S
H314 C340 0.983 . S
H315 C339 0.979 . S
H316 C339 0.977 . S
C317 C305 1.453 1_455 S
C317 H346 0.982 . S
C317 H347 0.979 1_455 S
C317 H348 0.977 . S
C318 C305 1.684 . S
C318 H343 0.979 . S
C318 H344 0.997 . S
C318 H345 0.983 . S
C319 C320 1.391 1_655 S
C319 C324 1.391 . S
C319 H349 0.948 . S
C320 C319 1.391 1_455 S
C320 C321 1.391 . S
C321 C320 1.391 . S
C321 C322 1.392 . S
C321 H350 0.947 . S
C322 C321 1.392 . S
C322 C323 1.419 . S
C322 H351 0.948 . S
C323 C322 1.419 . S
C323 C324 1.391 1_455 S
C323 C327 1.397 . S
C324 C319 1.391 . S
C324 C323 1.391 1_655 S
C324 C325 1.399 . S
C325 C324 1.399 . S
C325 C326 1.396 . S
C325 C328 1.453 . S
C325 C329 1.684 . S
C326 C307 1.723 . S
C326 C325 1.396 . S
C326 C327 1.394 1_655 S
C327 C323 1.397 . S
C327 C326 1.394 1_455 S
C327 C337 1.723 . S
C328 C325 1.453 . S
C328 H352 0.982 . S
C328 H353 0.979 . S
C328 H354 0.977 . S
C329 C325 1.684 . S
C329 H355 0.979 . S
C329 H356 0.980 . S
C329 H357 0.983 . S
C330 H306 0.948 . S
C330 C331 1.391 . S
C330 C335 1.391 . S
C331 C330 1.391 . S
C331 C332 1.391 . S
C332 H309 0.947 . S
C332 C331 1.391 . S
C332 C333 1.392 . S
C333 H310 0.948 . S
C333 C332 1.392 . S
C333 C334 1.419 . S
C334 C333 1.419 . S
C334 C335 1.391 . S
C334 C338 1.397 . S
C335 C330 1.391 . S
C335 C334 1.391 . S
C335 C336 1.399 . S
C336 C335 1.399 . S
C336 C337 1.396 . S
C336 C339 1.453 . S
C336 C340 1.684 . S
C337 C327 1.723 . S
C337 C336 1.396 . S
C337 C338 1.394 . S
C338 C308 1.723 1_455 S
C338 C334 1.397 . S
C338 C337 1.394 . S
C339 H311 0.982 . S
C339 H315 0.979 . S
C339 H316 0.977 . S
C339 C336 1.453 . S
C340 H312 0.979 . S
C340 H313 0.980 . S
C340 H314 0.983 . S
C340 C336 1.684 . S
H341 C359 0.948 . S
H342 C300 0.948 . S
H343 C318 0.979 . S
H344 C318 0.997 . S
H345 C318 0.983 . S
H346 C317 0.982 . S
H347 C317 0.979 1_655 S
H348 C317 0.977 . S
H349 C319 0.948 . S
H350 C321 0.947 . S
H351 C322 0.948 . S
H352 C328 0.982 . S
H353 C328 0.979 . S
H354 C328 0.977 . S
H355 C329 0.979 . S
H356 C329 0.980 . S
H357 C329 0.983 . S
H358 C302 0.947 . S
C359 C302 1.392 . S
C359 C303 1.419 . S
C359 H341 0.948 . S
C360 C361 1.391 . S
C360 C364 1.391 . S
C360 H402 0.948 . S
C361 C360 1.391 . S
C361 C362 1.391 . S
C362 C361 1.391 . S
C362 H418 0.947 . S
C362 C419 1.392 . S
C363 C364 1.391 . S
C363 C367 1.397 . S
C363 C419 1.419 . S
C364 C360 1.391 . S
C364 C363 1.391 . S
C364 C365 1.399 . S
C365 C364 1.399 . S
C365 C368 1.396 . S
C365 C377 1.453 . S
C365 C378 1.684 . S
H366 C390 0.948 . S
C367 C363 1.397 . S
C367 C368 1.394 . S
C367 C386 1.723 . S
C368 C365 1.396 . S
C368 C367 1.394 . S
C368 C398 1.723 1_565 S
H369 C392 0.947 . S
H370 C393 0.948 . S
H371 C399 0.982 . S
H372 C400 0.979 . S
H373 C400 0.980 . S
H374 C400 0.983 . S
H375 C399 0.979 . S
H376 C399 0.977 . S
C377 C365 1.453 . S
C377 H406 0.982 1_565 S
C377 H407 0.979 . S
C377 H408 0.977 1_565 S
C378 C365 1.684 . S
C378 H403 0.979 . S
C378 H404 0.980 . S
C378 H405 0.983 . S
C379 C380 1.391 1_565 S
C379 C384 1.391 . S
C379 H409 0.948 . S
C380 C379 1.391 1_545 S
C380 C381 1.391 . S
C381 C380 1.391 . S
C381 C382 1.392 . S
C381 H410 0.947 . S
C382 C381 1.392 . S
C382 C383 1.419 . S
C382 H411 0.948 . S
C383 C382 1.419 . S
C383 C384 1.391 1_545 S
C383 C387 1.397 . S
C384 C379 1.391 . S
C384 C383 1.391 1_565 S
C384 C385 1.399 . S
C385 C384 1.399 . S
C385 C386 1.396 . S
C385 C388 1.453 . S
C385 C389 1.684 . S
C386 C367 1.723 . S
C386 C385 1.396 . S
C386 C387 1.394 1_565 S
C387 C383 1.397 . S
C387 C386 1.394 1_545 S
C387 C397 1.723 . S
C388 C385 1.453 . S
C388 H412 0.982 . S
C388 H413 0.979 . S
C388 H414 0.977 . S
C389 C385 1.684 . S
C389 H415 0.979 . S
C389 H416 0.980 . S
C389 H417 0.983 . S
C390 H366 0.948 . S
C390 C391 1.391 . S
C390 C395 1.391 . S
C391 C390 1.391 . S
C391 C392 1.391 . S
C392 H369 0.947 . S
C392 C391 1.391 . S
C392 C393 1.392 . S
C393 H370 0.948 . S
C393 C392 1.392 . S
C393 C394 1.419 . S
C394 C393 1.419 . S
C394 C395 1.391 . S
C394 C398 1.397 . S
C395 C390 1.391 . S
C395 C394 1.391 . S
C395 C396 1.399 . S
C396 C395 1.399 . S
C396 C397 1.396 . S
C396 C399 1.453 . S
C396 C400 1.684 . S
C397 C387 1.723 . S
C397 C396 1.396 . S
C397 C398 1.394 . S
C398 C368 1.723 1_545 S
C398 C394 1.397 . S
C398 C397 1.394 . S
C399 H371 0.982 . S
C399 H375 0.979 . S
C399 H376 0.977 . S
C399 C396 1.453 . S
C400 H372 0.979 . S
C400 H373 0.980 . S
C400 H374 0.983 . S
C400 C396 1.684 . S
H401 C419 0.948 . S
H402 C360 0.948 . S
H403 C378 0.979 . S
H404 C378 0.980 . S
H405 C378 0.983 . S
H406 C377 0.982 1_545 S
H407 C377 0.979 . S
H408 C377 0.977 1_545 S
H409 C379 0.948 . S
H410 C381 0.947 . S
H411 C382 0.948 . S
H412 C388 0.982 . S
H413 C388 0.979 . S
H414 C388 0.977 . S
H415 C389 0.979 . S
H416 C389 0.980 . S
H417 C389 0.983 . S
H418 C362 0.947 . S
C419 C362 1.392 . S
C419 C363 1.419 . S
C419 H401 0.948 . S
C420 C421 1.391 . S
C420 C424 1.391 . S
C420 H462 0.948 . S
C421 C420 1.391 . S
C421 C422 1.391 . S
C422 C421 1.391 . S
C422 H478 0.947 . S
C422 C479 1.392 . S
C423 C424 1.391 . S
C423 C427 1.397 . S
C423 C479 1.419 . S
C424 C420 1.391 . S
C424 C423 1.391 . S
C424 C425 1.399 . S
C425 C424 1.399 . S
C425 C428 1.396 . S
C425 C437 1.453 . S
C425 C438 1.684 . S
H426 C450 0.948 . S
C427 C423 1.397 . S
C427 C428 1.394 . S
C427 C446 1.723 . S
C428 C425 1.396 . S
C428 C427 1.394 . S
C428 C458 1.723 . S
H429 C452 0.947 . S
H430 C453 0.948 . S
H431 C459 0.982 . S
H432 C460 0.979 . S
H433 C460 0.980 . S
H434 C460 0.983 . S
H435 C459 0.979 . S
H436 C459 0.977 . S
C437 C425 1.453 . S
C437 H466 0.982 . S
C437 H467 0.979 . S
C437 H468 0.977 . S
C438 C425 1.684 . S
C438 H463 0.979 . S
C438 H464 0.980 . S
C438 H465 0.983 . S
C439 C440 1.391 1_554 S
C439 C444 1.391 . S
C439 H469 0.948 1_554 S
C440 C439 1.391 1_556 S
C440 C441 1.391 1_556 S
C441 C440 1.391 1_554 S
C441 C442 1.392 . S
C441 H470 0.947 1_554 S
C442 C441 1.392 . S
C442 C443 1.419 . S
C442 H471 0.948 . S
C443 C442 1.419 . S
C443 C444 1.391 . S
C443 C447 1.397 . S
C444 C439 1.391 . S
C444 C443 1.391 . S
C444 C445 1.399 . S
C445 C444 1.399 . S
C445 C446 1.396 . S
C445 C448 1.453 . S
C445 C449 1.684 . S
C446 C427 1.723 . S
C446 C445 1.396 . S
C446 C447 1.394 . S
C447 C443 1.397 . S
C447 C446 1.394 . S
C447 C457 1.723 . S
C448 C445 1.453 . S
C448 H472 0.982 . S
C448 H473 0.979 . S
C448 H474 0.977 . S
C449 C445 1.684 . S
C449 H475 0.979 . S
C449 H476 0.980 . S
C449 H477 0.983 . S
C450 H426 0.948 . S
C450 C451 1.391 . S
C450 C455 1.391 . S
C451 C450 1.391 . S
C451 C452 1.391 . S
C452 H429 0.947 . S
C452 C451 1.391 . S
C452 C453 1.392 . S
C453 H430 0.948 . S
C453 C452 1.392 . S
C453 C454 1.419 . S
C454 C453 1.419 . S
C454 C455 1.391 . S
C454 C458 1.397 . S
C455 C450 1.391 . S
C455 C454 1.391 . S
C455 C456 1.399 . S
C456 C455 1.399 . S
C456 C457 1.396 . S
C456 C459 1.453 . S
C456 C460 1.684 . S
C457 C447 1.723 . S
C457 C456 1.396 . S
C457 C458 1.394 . S
C458 C428 1.723 . S
C458 C454 1.397 . S
C458 C457 1.394 . S
C459 H431 0.982 . S
C459 H435 0.979 . S
C459 H436 0.977 . S
C459 C456 1.453 . S
C460 H432 0.979 . S
C460 H433 0.980 . S
C460 H434 0.983 . S
C460 C456 1.684 . S
H461 C479 0.948 . S
H462 C420 0.948 . S
H463 C438 0.979 . S
H464 C438 0.980 . S
H465 C438 0.983 . S
H466 C437 0.982 . S
H467 C437 0.979 . S
H468 C437 0.977 . S
H469 C439 0.948 1_556 S
H470 C441 0.947 1_556 S
H471 C442 0.948 . S
H472 C448 0.982 . S
H473 C448 0.979 . S
H474 C448 0.977 . S
H475 C449 0.979 . S
H476 C449 0.980 . S
H477 C449 0.983 . S
H478 C422 0.947 . S
C479 C422 1.392 . S
C479 C423 1.419 . S
C479 H461 0.948 . S
H480 C486 0.930 . S
H481 C489 0.930 . S
H482 C490 0.930 . S
H483 C491 0.930 . S
H484 C494 0.930 . S
H485 C495 0.930 . S
C486 H480 0.930 . S
C486 C487 1.355 . S
C486 C488 1.415 . S
C487 C486 1.355 . S
C487 C489 1.419 . S
C488 C486 1.415 . S
C488 C493 1.425 . S
C488 C495 1.409 . S
C489 H481 0.930 . S
C489 C487 1.419 . S
C489 C490 1.362 . S
C490 H482 0.930 . S
C490 C489 1.362 . S
C490 C493 1.409 . S
C491 H483 0.930 . S
C491 C492 1.355 . S
C491 C493 1.415 . S
C492 C491 1.355 . S
C492 C494 1.419 . S
C493 C488 1.425 . S
C493 C490 1.409 . S
C493 C491 1.415 . S
C494 H484 0.930 . S
C494 C492 1.419 . S
C494 C495 1.362 . S
C495 H485 0.930 . S
C495 C488 1.409 . S
C495 C494 1.362 . S
H496 C502 0.930 . S
H497 C505 0.930 . S
H498 C506 0.930 . S
H499 C507 0.930 . S
H500 C510 0.930 . S
H501 C511 0.930 . S
C502 H496 0.930 . S
C502 C503 1.355 . S
C502 C504 1.415 . S
C503 C502 1.355 . S
C503 C505 1.419 . S
C504 C502 1.415 . S
C504 C509 1.425 . S
C504 C511 1.409 . S
C505 H497 0.930 . S
C505 C503 1.419 . S
C505 C506 1.362 . S
C506 H498 0.930 . S
C506 C505 1.362 . S
C506 C509 1.409 . S
C507 H499 0.930 . S
C507 C508 1.355 . S
C507 C509 1.415 . S
C508 C507 1.355 . S
C508 C510 1.419 . S
C509 C504 1.425 . S
C509 C506 1.409 . S
C509 C507 1.415 . S
C510 H500 0.930 . S
C510 C508 1.419 . S
C510 C511 1.362 . S
C511 H501 0.930 . S
C511 C504 1.409 . S
C511 C510 1.362 . S
H512 C518 0.930 . S
H513 C521 0.930 . S
H514 C522 0.930 . S
H515 C523 0.930 . S
H516 C526 0.930 . S
H517 C527 0.930 . S
C518 H512 0.930 . S
C518 C519 1.355 . S
C518 C520 1.415 . S
C519 C518 1.355 . S
C519 C521 1.419 . S
C520 C518 1.415 . S
C520 C525 1.425 . S
C520 C527 1.409 . S
C521 H513 0.930 . S
C521 C519 1.419 . S
C521 C522 1.362 . S
C522 H514 0.930 . S
C522 C521 1.362 . S
C522 C525 1.409 . S
C523 H515 0.930 . S
C523 C524 1.355 . S
C523 C525 1.415 . S
C524 C523 1.355 . S
C524 C526 1.419 . S
C525 C520 1.425 . S
C525 C522 1.409 . S
C525 C523 1.415 . S
C526 H516 0.930 . S
C526 C524 1.419 . S
C526 C527 1.362 . S
C527 H517 0.930 . S
C527 C520 1.409 . S
C527 C526 1.362 . S
H528 C534 0.930 . S
H529 C537 0.930 . S
H530 C538 0.930 . S
H531 C539 0.930 . S
H532 C542 0.930 . S
H533 C543 0.930 . S
C534 H528 0.930 . S
C534 C535 1.355 . S
C534 C536 1.415 . S
C535 C534 1.355 . S
C535 C537 1.419 . S
C536 C534 1.415 . S
C536 C541 1.425 . S
C536 C543 1.409 . S
C537 H529 0.930 . S
C537 C535 1.419 . S
C537 C538 1.362 . S
C538 H530 0.930 . S
C538 C537 1.362 . S
C538 C541 1.409 . S
C539 H531 0.930 . S
C539 C540 1.355 . S
C539 C541 1.415 . S
C540 C539 1.355 . S
C540 C542 1.419 . S
C541 C536 1.425 . S
C541 C538 1.409 . S
C541 C539 1.415 . S
C542 H532 0.930 . S
C542 C540 1.419 . S
C542 C543 1.362 . S
C543 H533 0.930 . S
C543 C536 1.409 . S
C543 C542 1.362 . S
H544 C550 0.930 . S
H545 C553 0.930 . S
H546 C554 0.930 . S
H547 C555 0.930 . S
H548 C558 0.930 . S
H549 C559 0.930 . S
C550 H544 0.930 . S
C550 C551 1.355 . S
C550 C552 1.415 . S
C551 C550 1.355 . S
C551 C553 1.419 . S
C552 C550 1.415 . S
C552 C557 1.425 . S
C552 C559 1.409 . S
C553 H545 0.930 . S
C553 C551 1.419 . S
C553 C554 1.362 . S
C554 H546 0.930 . S
C554 C553 1.362 . S
C554 C557 1.409 . S
C555 H547 0.930 . S
C555 C556 1.355 . S
C555 C557 1.415 . S
C556 C555 1.355 . S
C556 C558 1.419 . S
C557 C552 1.425 . S
C557 C554 1.409 . S
C557 C555 1.415 . S
C558 H548 0.930 . S
C558 C556 1.419 . S
C558 C559 1.362 . S
C559 H549 0.930 . S
C559 C552 1.409 . S
C559 C558 1.362 . S
H560 C566 0.930 . S
H561 C569 0.930 . S
H562 C570 0.930 . S
H563 C571 0.930 . S
H564 C574 0.930 . S
H565 C575 0.930 . S
C566 H560 0.930 . S
C566 C567 1.355 . S
C566 C568 1.415 . S
C567 C566 1.355 . S
C567 C569 1.419 . S
C568 C566 1.415 . S
C568 C573 1.425 . S
C568 C575 1.409 . S
C569 H561 0.930 . S
C569 C567 1.419 . S
C569 C570 1.362 . S
C570 H562 0.930 . S
C570 C569 1.362 . S
C570 C573 1.409 . S
C571 H563 0.930 . S
C571 C572 1.355 . S
C571 C573 1.415 . S
C572 C571 1.355 . S
C572 C574 1.419 . S
C573 C568 1.425 . S
C573 C570 1.409 . S
C573 C571 1.415 . S
C574 H564 0.930 . S
C574 C572 1.419 . S
C574 C575 1.362 . S
C575 H565 0.930 . S
C575 C568 1.409 . S
C575 C574 1.362 . S
H576 C582 0.930 . S
H577 C585 0.930 . S
H578 C586 0.930 . S
H579 C587 0.930 . S
H580 C590 0.930 . S
H581 C591 0.930 . S
C582 H576 0.930 . S
C582 C583 1.355 . S
C582 C584 1.415 . S
C583 C582 1.355 . S
C583 C585 1.419 . S
C584 C582 1.415 . S
C584 C589 1.425 . S
C584 C591 1.409 . S
C585 H577 0.930 . S
C585 C583 1.419 . S
C585 C586 1.362 . S
C586 H578 0.930 . S
C586 C585 1.362 . S
C586 C589 1.409 . S
C587 H579 0.930 . S
C587 C588 1.355 . S
C587 C589 1.415 . S
C588 C587 1.355 . S
C588 C590 1.419 . S
C589 C584 1.425 . S
C589 C586 1.409 . S
C589 C587 1.415 . S
C590 H580 0.930 . S
C590 C588 1.419 . S
C590 C591 1.362 . S
C591 H581 0.930 . S
C591 C584 1.409 . S
C591 C590 1.362 . S
H592 C598 0.930 . S
H593 C601 0.930 . S
H594 C602 0.930 . S
H595 C603 0.930 . S
H596 C606 0.930 . S
H597 C607 0.930 . S
C598 H592 0.930 . S
C598 C599 1.355 . S
C598 C600 1.415 . S
C599 C598 1.355 . S
C599 C601 1.419 . S
C600 C598 1.415 . S
C600 C605 1.425 . S
C600 C607 1.409 . S
C601 H593 0.930 . S
C601 C599 1.419 . S
C601 C602 1.362 . S
C602 H594 0.930 . S
C602 C601 1.362 . S
C602 C605 1.409 . S
C603 H595 0.930 . S
C603 C604 1.355 . S
C603 C605 1.415 . S
C604 C603 1.355 . S
C604 C606 1.419 . S
C605 C600 1.425 . S
C605 C602 1.409 . S
C605 C603 1.415 . S
C606 H596 0.930 . S
C606 C604 1.419 . S
C606 C607 1.362 . S
C607 H597 0.930 . S
C607 C600 1.409 . S
C607 C606 1.362 . S
H608 C614 0.930 . S
H609 C617 0.930 . S
H610 C618 0.930 . S
H611 C619 0.930 . S
H612 C622 0.930 . S
H613 C623 0.930 . S
C614 H608 0.930 . S
C614 C615 1.355 . S
C614 C616 1.415 . S
C615 C614 1.355 . S
C615 C617 1.419 . S
C616 C614 1.415 . S
C616 C621 1.425 . S
C616 C623 1.409 . S
C617 H609 0.930 . S
C617 C615 1.419 . S
C617 C618 1.362 . S
C618 H610 0.930 . S
C618 C617 1.362 . S
C618 C621 1.409 . S
C619 H611 0.930 . S
C619 C620 1.355 . S
C619 C621 1.415 . S
C620 C619 1.355 . S
C620 C622 1.419 . S
C621 C616 1.425 . S
C621 C618 1.409 . S
C621 C619 1.415 . S
C622 H612 0.930 . S
C622 C620 1.419 . S
C622 C623 1.362 . S
C623 H613 0.930 . S
C623 C616 1.409 . S
C623 C622 1.362 . S
H624 C630 0.930 . S
H625 C633 0.930 . S
H626 C634 0.930 . S
H627 C635 0.930 . S
H628 C638 0.930 . S
H629 C639 0.930 . S
C630 H624 0.930 . S
C630 C631 1.355 . S
C630 C632 1.415 . S
C631 C630 1.355 . S
C631 C633 1.419 . S
C632 C630 1.415 . S
C632 C637 1.425 . S
C632 C639 1.409 . S
C633 H625 0.930 . S
C633 C631 1.419 . S
C633 C634 1.362 . S
C634 H626 0.930 . S
C634 C633 1.362 . S
C634 C637 1.409 . S
C635 H627 0.930 . S
C635 C636 1.355 . S
C635 C637 1.415 . S
C636 C635 1.355 . S
C636 C638 1.419 . S
C637 C632 1.425 . S
C637 C634 1.409 . S
C637 C635 1.415 . S
C638 H628 0.930 . S
C638 C636 1.419 . S
C638 C639 1.362 . S
C639 H629 0.930 . S
C639 C632 1.409 . S
C639 C638 1.362 . S
H640 C646 0.930 . S
H641 C649 0.930 . S
H642 C650 0.930 . S
H643 C651 0.930 . S
H644 C654 0.930 . S
H645 C655 0.930 . S
C646 H640 0.930 . S
C646 C647 1.355 . S
C646 C648 1.415 . S
C647 C646 1.355 . S
C647 C649 1.419 . S
C648 C646 1.415 . S
C648 C653 1.425 . S
C648 C655 1.409 . S
C649 H641 0.930 . S
C649 C647 1.419 . S
C649 C650 1.362 . S
C650 H642 0.930 . S
C650 C649 1.362 . S
C650 C653 1.409 . S
C651 H643 0.930 . S
C651 C652 1.355 . S
C651 C653 1.415 . S
C652 C651 1.355 . S
C652 C654 1.419 . S
C653 C648 1.425 . S
C653 C650 1.409 . S
C653 C651 1.415 . S
C654 H644 0.930 . S
C654 C652 1.419 . S
C654 C655 1.362 . S
C655 H645 0.930 . S
C655 C648 1.409 . S
C655 C654 1.362 . S
H656 C662 0.930 . S
H657 C665 0.930 . S
H658 C666 0.930 . S
H659 C667 0.930 . S
H660 C670 0.930 . S
H661 C671 0.930 . S
C662 H656 0.930 . S
C662 C663 1.355 . S
C662 C664 1.415 . S
C663 C662 1.355 . S
C663 C665 1.419 . S
C664 C662 1.415 . S
C664 C669 1.425 . S
C664 C671 1.409 . S
C665 H657 0.930 . S
C665 C663 1.419 . S
C665 C666 1.362 . S
C666 H658 0.930 . S
C666 C665 1.362 . S
C666 C669 1.409 . S
C667 H659 0.930 . S
C667 C668 1.355 . S
C667 C669 1.415 . S
C668 C667 1.355 . S
C668 C670 1.419 . S
C669 C664 1.425 . S
C669 C666 1.409 . S
C669 C667 1.415 . S
C670 H660 0.930 . S
C670 C668 1.419 . S
C670 C671 1.362 . S
C671 H661 0.930 . S
C671 C664 1.409 . S
C671 C670 1.362 . S
H672 C678 0.930 1_655 S
H673 C681 0.930 . S
H674 C682 0.930 . S
H675 C683 0.930 . S
H676 C686 0.930 1_655 S
H677 C687 0.916 1_655 S
C678 H672 0.930 1_455 S
C678 C679 1.355 . S
C678 C680 1.415 . S
C679 C678 1.355 . S
C679 C681 1.419 . S
C680 C678 1.415 . S
C680 C685 1.425 . S
C680 C687 1.420 . S
C681 H673 0.930 . S
C681 C679 1.419 . S
C681 C682 1.362 . S
C682 H674 0.930 . S
C682 C681 1.362 . S
C682 C685 1.409 . S
C683 H675 0.930 . S
C683 C684 1.355 . S
C683 C685 1.415 . S
C684 C683 1.355 . S
C684 C686 1.419 . S
C685 C680 1.425 . S
C685 C682 1.409 . S
C685 C683 1.415 . S
C686 H676 0.930 1_455 S
C686 C684 1.419 . S
C686 C687 1.366 . S
C687 H677 0.916 1_455 S
C687 C680 1.420 . S
C687 C686 1.366 . S
H688 C694 0.930 . S
H689 C697 0.930 . S
H690 C698 0.930 . S
H691 C699 0.930 . S
H692 C702 0.930 . S
H693 C703 0.930 . S
C694 H688 0.930 . S
C694 C695 1.355 . S
C694 C696 1.415 . S
C695 C694 1.355 . S
C695 C697 1.419 . S
C696 C694 1.415 . S
C696 C701 1.425 . S
C696 C703 1.409 . S
C697 H689 0.930 . S
C697 C695 1.419 . S
C697 C698 1.362 . S
C698 H690 0.930 . S
C698 C697 1.362 . S
C698 C701 1.409 . S
C699 H691 0.930 . S
C699 C700 1.355 . S
C699 C701 1.415 . S
C700 C699 1.355 . S
C700 C702 1.419 . S
C701 C696 1.425 . S
C701 C698 1.409 . S
C701 C699 1.415 . S
C702 H692 0.930 . S
C702 C700 1.419 . S
C702 C703 1.362 . S
C703 H693 0.930 . S
C703 C696 1.409 . S
C703 C702 1.362 . S
H704 C710 0.930 . S
H705 C713 0.930 . S
H706 C714 0.930 . S
H707 C715 0.930 . S
H708 C718 0.930 . S
H709 C719 0.930 . S
C710 H704 0.930 . S
C710 C711 1.355 . S
C710 C712 1.415 . S
C711 C710 1.355 . S
C711 C713 1.419 . S
C712 C710 1.415 . S
C712 C717 1.425 . S
C712 C719 1.409 . S
C713 H705 0.930 . S
C713 C711 1.419 . S
C713 C714 1.362 . S
C714 H706 0.930 . S
C714 C713 1.362 . S
C714 C717 1.409 . S
C715 H707 0.930 . S
C715 C716 1.355 . S
C715 C717 1.415 . S
C716 C715 1.355 . S
C716 C718 1.419 . S
C717 C712 1.425 . S
C717 C714 1.409 . S
C717 C715 1.415 . S
C718 H708 0.930 . S
C718 C716 1.419 . S
C718 C719 1.362 . S
C719 H709 0.930 . S
C719 C712 1.409 . S
C719 C718 1.362 . S
H720 C726 0.930 . S
H721 C729 0.930 . S
H722 C730 0.930 . S
H723 C731 0.930 . S
H724 C734 0.930 . S
H725 C735 0.930 . S
C726 H720 0.930 . S
C726 C727 1.355 . S
C726 C728 1.415 . S
C727 C726 1.355 . S
C727 C729 1.419 1_545 S
C728 C726 1.415 . S
C728 C733 1.425 1_545 S
C728 C735 1.409 . S
C729 H721 0.930 . S
C729 C727 1.419 1_565 S
C729 C730 1.362 . S
C730 H722 0.930 . S
C730 C729 1.362 . S
C730 C733 1.409 . S
C731 H723 0.930 . S
C731 C732 1.355 1_565 S
C731 C733 1.415 . S
C732 C731 1.355 1_545 S
C732 C734 1.419 . S
C733 C728 1.425 1_565 S
C733 C730 1.409 . S
C733 C731 1.415 . S
C734 H724 0.930 . S
C734 C732 1.419 . S
C734 C735 1.362 . S
C735 H725 0.930 . S
C735 C728 1.409 . S
C735 C734 1.362 . S
H736 C742 0.930 . S
H737 C745 0.930 . S
H738 C746 0.930 . S
H739 C747 0.930 . S
H740 C750 0.930 . S
H741 C751 0.930 . S
C742 H736 0.930 . S
C742 C743 1.355 . S
C742 C744 1.415 . S
C743 C742 1.355 . S
C743 C745 1.419 . S
C744 C742 1.415 . S
C744 C749 1.425 . S
C744 C751 1.409 . S
C745 H737 0.930 . S
C745 C743 1.419 . S
C745 C746 1.362 . S
C746 H738 0.930 . S
C746 C745 1.362 . S
C746 C749 1.409 . S
C747 H739 0.930 . S
C747 C748 1.355 . S
C747 C749 1.415 . S
C748 C747 1.355 . S
C748 C750 1.419 . S
C749 C744 1.425 . S
C749 C746 1.409 . S
C749 C747 1.415 . S
C750 H740 0.930 . S
C750 C748 1.419 . S
C750 C751 1.362 . S
C751 H741 0.930 . S
C751 C744 1.409 . S
C751 C750 1.362 . S
H752 C758 0.934 . S
H753 C761 0.930 . S
H754 C762 0.930 . S
H755 C763 0.930 . S
H756 C766 0.930 . S
H757 C767 0.930 . S
C758 H752 0.934 . S
C758 C759 1.347 1_655 S
C758 C760 1.418 . S
C759 C758 1.347 1_455 S
C759 C761 1.419 . S
C760 C758 1.418 . S
C760 C765 1.426 1_655 S
C760 C767 1.408 . S
C761 H753 0.930 . S
C761 C759 1.419 . S
C761 C762 1.362 . S
C762 H754 0.930 . S
C762 C761 1.362 . S
C762 C765 1.409 . S
C763 H755 0.930 . S
C763 C764 1.355 . S
C763 C765 1.415 . S
C764 C763 1.355 . S
C764 C766 1.419 1_455 S
C765 C760 1.426 1_455 S
C765 C762 1.409 . S
C765 C763 1.415 . S
C766 H756 0.930 . S
C766 C764 1.419 1_655 S
C766 C767 1.362 . S
C767 H757 0.930 . S
C767 C760 1.408 . S
C767 C766 1.362 . S
C487 C9 0.547 . S
C492 C451 0.525 . S
C503 C49 0.288 . S
C508 C301 0.486 . S
C519 C89 0.324 . S
C524 C361 0.501 . S
C535 C26 0.424 . S
C540 C421 0.504 . S
C556 C331 0.472 . S
C551 C66 0.480 . S
C572 C391 0.589 . S
C567 C106 0.668 . S
C583 C43 2.991 . S
C588 C181 2.838 . S
C599 C83 3.124 . S
C604 C271 3.097 . S
C615 C22 3.178 . S
C620 C151 3.150 . S
C636 C211 3.147 . S
C631 C62 3.177 . S
C652 C241 2.881 . S
C647 C102 3.037 . S
C663 C3 2.983 . S
C668 C121 2.821 . S
C684 C260 1.748 1_554 S
C679 C15 1.762 . S
C695 C55 1.766 . S
C700 C140 1.744 . S
C711 C95 1.726 . S
C716 C200 1.772 . S
C732 C380 1.012 . S
C727 C42 1.053 . S
C748 C440 1.075 . S
C743 C82 1.079 . S
C759 C2 1.065 . S
C764 C320 1.073 . S
