# Generated by pormake.
# Topology zzz, (3,6)-cn, num edge types: 1
# Building blocks:
#     Node 0, Type 0, BuildingBlock: KAKCAD_clean_linker_0, # of connection points: 3
#     Node 1, Type 0, BuildingBlock: KAKCAD_clean_linker_0, # of connection points: 3
#     Node 2, Type 0, BuildingBlock: KAKCAD_clean_linker_0, # of connection points: 3
#     Node 3, Type 0, BuildingBlock: KAKCAD_clean_linker_0, # of connection points: 3
#     Node 4, Type 0, BuildingBlock: KAKCAD_clean_linker_0, # of connection points: 3
#     Node 5, Type 0, BuildingBlock: KAKCAD_clean_linker_0, # of connection points: 3
#     Node 6, Type 0, BuildingBlock: KAKCAD_clean_linker_0, # of connection points: 3
#     Node 7, Type 0, BuildingBlock: KAKCAD_clean_linker_0, # of connection points: 3
#     Node 8, Type 1, BuildingBlock: KUMBUR_clean_sbu_0, # of connection points: 6
#     Node 9, Type 1, BuildingBlock: KUMBUR_clean_sbu_0, # of connection points: 6
#     Node 10, Type 1, BuildingBlock: KUMBUR_clean_sbu_0, # of connection points: 6
#     Node 11, Type 1, BuildingBlock: KUMBUR_clean_sbu_0, # of connection points: 6
#     Edge 12, Type (0, 1), BuildingBlock: UVAHIK_clean_linker_0, # of connection points: 2
#     Edge 13, Type (0, 1), BuildingBlock: UVAHIK_clean_linker_0, # of connection points: 2
#     Edge 14, Type (0, 1), BuildingBlock: UVAHIK_clean_linker_0, # of connection points: 2
#     Edge 15, Type (0, 1), BuildingBlock: UVAHIK_clean_linker_0, # of connection points: 2
#     Edge 16, Type (0, 1), BuildingBlock: UVAHIK_clean_linker_0, # of connection points: 2
#     Edge 17, Type (0, 1), BuildingBlock: UVAHIK_clean_linker_0, # of connection points: 2
#     Edge 18, Type (0, 1), BuildingBlock: UVAHIK_clean_linker_0, # of connection points: 2
#     Edge 19, Type (0, 1), BuildingBlock: UVAHIK_clean_linker_0, # of connection points: 2
#     Edge 20, Type (0, 1), BuildingBlock: UVAHIK_clean_linker_0, # of connection points: 2
#     Edge 21, Type (0, 1), BuildingBlock: UVAHIK_clean_linker_0, # of connection points: 2
#     Edge 22, Type (0, 1), BuildingBlock: UVAHIK_clean_linker_0, # of connection points: 2
#     Edge 23, Type (0, 1), BuildingBlock: UVAHIK_clean_linker_0, # of connection points: 2
#     Edge 24, Type (0, 1), BuildingBlock: UVAHIK_clean_linker_0, # of connection points: 2
#     Edge 25, Type (0, 1), BuildingBlock: UVAHIK_clean_linker_0, # of connection points: 2
#     Edge 26, Type (0, 1), BuildingBlock: UVAHIK_clean_linker_0, # of connection points: 2
#     Edge 27, Type (0, 1), BuildingBlock: UVAHIK_clean_linker_0, # of connection points: 2
#     Edge 28, Type (0, 1), BuildingBlock: UVAHIK_clean_linker_0, # of connection points: 2
#     Edge 29, Type (0, 1), BuildingBlock: UVAHIK_clean_linker_0, # of connection points: 2
#     Edge 30, Type (0, 1), BuildingBlock: UVAHIK_clean_linker_0, # of connection points: 2
#     Edge 31, Type (0, 1), BuildingBlock: UVAHIK_clean_linker_0, # of connection points: 2
#     Edge 32, Type (0, 1), BuildingBlock: UVAHIK_clean_linker_0, # of connection points: 2
#     Edge 33, Type (0, 1), BuildingBlock: UVAHIK_clean_linker_0, # of connection points: 2
#     Edge 34, Type (0, 1), BuildingBlock: UVAHIK_clean_linker_0, # of connection points: 2
#     Edge 35, Type (0, 1), BuildingBlock: UVAHIK_clean_linker_0, # of connection points: 2
# Relax obj value: 0.272
# Max RMSD: 0.226
# Mean RMSD: 0.210
data_MOF--net-zzz--node1-KUMBUR_clean_sbu_0--node2-KAKCAD_clean_linker_0--edge1-UVAHIK_clean_linker_0
_symmetry_space_group_name_H-M    P1
_symmetry_Int_Tables_number       1
_symmetry_cell_setting            triclinic
loop_
_symmetry_equiv_pos_as_xyz
'x, y, z'
_cell_length_a     71.415125
_cell_length_b     71.283592
_cell_length_c     24.781017
_cell_angle_alpha  90.247349
_cell_angle_beta   90.092798
_cell_angle_gamma 89.973667
loop_
_atom_site_label
_atom_site_type_symbol
_atom_site_fract_x
_atom_site_fract_y
_atom_site_fract_z
_atom_type_partial_charge
C0 C 0.78877 0.59349 0.93986 0.0
C1 C 0.8074 0.58723 0.93795 0.0
C2 C 0.77611 0.58553 0.97645 0.0
C3 C 0.78181 0.57091 0.01096 0.0
C4 C 0.80046 0.56461 0.00808 0.0
C5 C 0.81308 0.57276 0.97251 0.0
C6 C 0.76849 0.56165 0.04877 0.0
C7 C 0.74976 0.55839 0.03411 0.0
C8 C 0.73779 0.5478 0.06728 0.0
C9 C 0.74488 0.54006 0.11559 0.0
C10 C 0.76349 0.54374 0.13137 0.0
C11 C 0.77492 0.55478 0.09845 0.0
C12 C 0.77226 0.53536 0.17982 0.0
C13 C 0.77482 0.54631 0.22652 0.0
C14 C 0.78242 0.51862 0.17423 0.0
C15 C 0.79581 0.51353 0.21285 0.0
C16 C 0.7993 0.52509 0.25795 0.0
C17 C 0.71816 0.54463 0.04917 0.0
C18 C 0.70708 0.55998 0.03367 0.0
C19 C 0.71108 0.52643 0.04154 0.0
C20 C 0.69367 0.52365 0.01628 0.0
C21 C 0.68288 0.53904 0.99857 0.0
C22 C 0.68964 0.55725 0.00916 0.0
C23 C 0.78809 0.54112 0.26554 0.0
H24 H 0.78406 0.60457 0.9133 0.0
H25 H 0.76192 0.59084 0.97771 0.0
H26 H 0.8053 0.55299 0.03237 0.0
H27 H 0.82724 0.56731 0.97085 0.0
H28 H 0.7446 0.56338 0.99561 0.0
H29 H 0.78917 0.55756 0.11129 0.0
H30 H 0.73601 0.53142 0.14074 0.0
H31 H 0.76751 0.55955 0.23095 0.0
H32 H 0.78101 0.51019 0.13795 0.0
H33 H 0.8041 0.50101 0.20607 0.0
H34 H 0.71214 0.57418 0.03946 0.0
H35 H 0.71942 0.51434 0.05262 0.0
H36 H 0.79053 0.5504 0.29957 0.0
H37 H 0.6816 0.56948 0.99771 0.0
H38 H 0.68908 0.50942 0.00861 0.0
C39 C 0.91697 0.79148 0.9443 0.0
C40 C 0.92042 0.81084 0.94311 0.0
C41 C 0.92661 0.78005 0.98099 0.0
C42 C 0.94029 0.78773 0.01586 0.0
C43 C 0.94353 0.80721 0.01407 0.0
C44 C 0.93355 0.8186 0.97879 0.0
C45 C 0.95195 0.77567 0.05198 0.0
C46 C 0.95712 0.75737 0.03668 0.0
C47 C 0.9698 0.74682 0.06774 0.0
C48 C 0.97791 0.75501 0.11434 0.0
C49 C 0.97246 0.77319 0.13083 0.0
C50 C 0.9592 0.78302 0.10037 0.0
C51 C 0.98089 0.78327 0.17749 0.0
C52 C 0.97116 0.78438 0.22658 0.0
C53 C 0.99569 0.79582 0.16843 0.0
C54 C 1.00007 0.80981 0.20641 0.0
C55 C 0.98969 0.81166 0.25453 0.0
C56 C 0.9744 0.72745 0.04918 0.0
C57 C 0.95998 0.71419 0.04326 0.0
C58 C 0.99234 0.72292 0.02993 0.0
C59 C 0.99556 0.70576 1.00326 0.0
C60 C 0.98096 0.69267 0.99598 0.0
C61 C 0.96324 0.69697 0.01746 0.0
C62 C 0.9756 0.79829 0.26483 0.0
H63 H 0.90701 0.78523 0.91657 0.0
H64 H 0.92347 0.7652 0.98145 0.0
H65 H 0.95431 0.81375 0.03839 0.0
H66 H 0.93679 0.83344 0.97752 0.0
H67 H 0.95188 0.75143 0.99929 0.0
H68 H 0.95492 0.79681 0.11418 0.0
H69 H 0.98816 0.74728 0.13766 0.0
H70 H 0.95938 0.77518 0.23396 0.0
H71 H 1.00301 0.79567 0.13017 0.0
H72 H 0.01083 0.81987 0.19628 0.0
H73 H 0.94596 0.71743 0.05714 0.0
H74 H 1.00363 0.733 0.03324 0.0
H75 H 0.9675 0.79893 0.30167 0.0
H76 H 0.95162 0.68737 0.01223 0.0
H77 H 0.00941 0.70284 0.98759 0.0
C78 C 0.72066 0.91702 0.94958 0.0
C79 C 0.70216 0.92361 0.94521 0.0
C80 C 0.73246 0.92379 0.99044 0.0
C81 C 0.72604 0.93739 0.02741 0.0
C82 C 0.70728 0.94326 0.02433 0.0
C83 C 0.6955 0.93642 0.98395 0.0
C84 C 0.7391 0.94691 0.06557 0.0
C85 C 0.75705 0.95219 0.04851 0.0
C86 C 0.76859 0.96358 0.08089 0.0
C87 C 0.76197 0.9698 0.13159 0.0
C88 C 0.74398 0.96444 0.1493 0.0
C89 C 0.73294 0.95274 0.11666 0.0
C90 C 0.73505 0.97249 0.19811 0.0
C91 C 0.73296 0.96157 0.24467 0.0
C92 C 0.7246 0.98907 0.19333 0.0
C93 C 0.71152 0.99411 0.23289 0.0
C94 C 0.7086 0.98271 0.27852 0.0
C95 C 0.78693 0.96954 0.05837 0.0
C96 C 0.80389 0.96412 0.08253 0.0
C97 C 0.78742 0.97818 0.00754 0.0
C98 C 0.80431 0.98031 0.97988 0.0
C99 C 0.82121 0.97376 1.00214 0.0
C100 C 0.82091 0.96623 0.05465 0.0
C101 C 0.72005 0.96673 0.28474 0.0
H102 H 0.72614 0.90706 0.92051 0.0
H103 H 0.74675 0.91875 0.99215 0.0
H104 H 0.70189 0.954 0.05119 0.0
H105 H 0.68148 0.94213 0.98116 0.0
H106 H 0.76186 0.94808 0.0087 0.0
H107 H 0.71906 0.94885 0.13036 0.0
H108 H 0.77042 0.9792 0.15601 0.0
H109 H 0.7406 0.94851 0.2487 0.0
H110 H 0.72557 0.99742 0.15701 0.0
H111 H 0.7029 0.00633 0.22571 0.0
H112 H 0.80387 0.95726 0.12143 0.0
H113 H 0.77455 0.98257 0.98811 0.0
H114 H 0.71861 0.95777 0.31963 0.0
H115 H 0.83366 0.96104 0.07301 0.0
H116 H 0.80404 0.9866 0.94019 0.0
C117 C 0.52479 0.71255 0.22792 0.0
C118 C 0.53173 0.71504 0.28063 0.0
C119 C 0.52945 0.72513 0.18695 0.0
C120 C 0.54113 0.74059 0.19748 0.0
C121 C 0.54722 0.74378 0.25067 0.0
C122 C 0.54264 0.73108 0.2918 0.0
C123 C 0.54898 0.75155 0.15178 0.0
C124 C 0.54804 0.77129 0.1499 0.0
C125 C 0.55596 0.78105 0.10612 0.0
C126 C 0.56516 0.77094 0.06519 0.0
C127 C 0.5656 0.75125 0.0652 0.0
C128 C 0.55746 0.74177 0.10895 0.0
C129 C 0.57311 0.74051 0.01787 0.0
C130 C 0.57161 0.74768 0.96515 0.0
C131 C 0.58056 0.72239 0.02436 0.0
C132 C 0.58465 0.71116 0.9796 0.0
C133 C 0.58211 0.71792 0.92672 0.0
C134 C 0.55311 0.8015 0.09818 0.0
C135 C 0.53489 0.80869 0.0929 0.0
C136 C 0.56836 0.81304 0.08481 0.0
C137 C 0.56544 0.83086 0.06283 0.0
C138 C 0.54718 0.83743 0.05313 0.0
C139 C 0.53195 0.82645 0.07031 0.0
C140 C 0.57639 0.73669 0.92041 0.0
H141 H 0.51652 0.70034 0.2175 0.0
H142 H 0.52452 0.72234 0.14633 0.0
H143 H 0.55633 0.75551 0.25986 0.0
H144 H 0.54803 0.73358 0.33206 0.0
H145 H 0.5409 0.77897 0.18162 0.0
H146 H 0.55737 0.72659 0.10965 0.0
H147 H 0.57136 0.77857 0.03202 0.0
H148 H 0.5659 0.76149 0.95772 0.0
H149 H 0.58266 0.7165 0.06409 0.0
H150 H 0.5889 0.69684 0.98708 0.0
H151 H 0.52288 0.80003 0.10231 0.0
H152 H 0.58255 0.80778 0.08823 0.0
H153 H 0.57488 0.74283 0.8808 0.0
H154 H 0.51772 0.83121 0.06388 0.0
H155 H 0.57747 0.8389 0.04985 0.0
C156 C 0.22 0.43663 0.22821 0.0
C157 C 0.20964 0.42093 0.21042 0.0
C158 C 0.23499 0.44341 0.1979 0.0
C159 C 0.23974 0.43485 0.14883 0.0
C160 C 0.23047 0.41838 0.13294 0.0
C161 C 0.21574 0.41132 0.16386 0.0
C162 C 0.25201 0.44484 0.11065 0.0
C163 C 0.27018 0.45011 0.12508 0.0
C164 C 0.28103 0.46139 0.09073 0.0
C165 C 0.27312 0.46796 0.04189 0.0
C166 C 0.25487 0.46233 0.02664 0.0
C167 C 0.24461 0.45071 0.06131 0.0
C168 C 0.24546 0.46869 0.97621 0.0
C169 C 0.24244 0.48783 0.96614 0.0
C170 C 0.2363 0.45541 0.94343 0.0
C171 C 0.22334 0.461 0.90439 0.0
C172 C 0.21919 0.48011 0.89659 0.0
C173 C 0.30052 0.46586 0.1076 0.0
C174 C 0.30619 0.48441 0.11777 0.0
C175 C 0.31274 0.45115 0.12104 0.0
C176 C 0.32983 0.45477 0.14654 0.0
C177 C 0.33513 0.47322 0.16 0.0
C178 C 0.32333 0.48806 0.14384 0.0
C179 C 0.22944 0.49349 0.92673 0.0
H180 H 0.21574 0.44465 0.26327 0.0
H181 H 0.24187 0.45624 0.21063 0.0
H182 H 0.23405 0.4115 0.09527 0.0
H183 H 0.20851 0.3989 0.14961 0.0
H184 H 0.27584 0.44558 0.16353 0.0
H185 H 0.23033 0.44692 0.05101 0.0
H186 H 0.28123 0.47691 0.01554 0.0
H187 H 0.24919 0.49837 0.99104 0.0
H188 H 0.23832 0.44054 0.95035 0.0
H189 H 0.21574 0.45019 0.88277 0.0
H190 H 0.29694 0.49599 0.10835 0.0
H191 H 0.30874 0.43672 0.11341 0.0
H192 H 0.22696 0.50834 0.92125 0.0
H193 H 0.32687 0.50245 0.15362 0.0
H194 H 0.33871 0.443 0.15686 0.0
C195 C 0.0792 0.23221 0.24937 0.0
C196 C 0.09205 0.2185 0.23213 0.0
C197 C 0.07058 0.24406 0.21216 0.0
C198 C 0.07466 0.24251 0.15687 0.0
C199 C 0.08847 0.22968 0.1401 0.0
C200 C 0.09705 0.21776 0.17735 0.0
C201 C 0.06331 0.25299 0.11672 0.0
C202 C 0.05795 0.27158 0.12642 0.0
C203 C 0.04583 0.28107 0.0911 0.0
C204 C 0.0389 0.27156 0.04481 0.0
C205 C 0.04481 0.25297 0.03354 0.0
C206 C 0.05681 0.24392 0.07011 0.0
C207 C 0.03894 0.24212 0.98466 0.0
C208 C 0.02008 0.23759 0.97509 0.0
C209 C 0.05274 0.23318 0.95329 0.0
C210 C 0.048 0.21917 0.91602 0.0
C211 C 0.02924 0.21365 0.90852 0.0
C212 C 0.04098 0.30086 0.105 0.0
C213 C 0.02269 0.30591 0.12007 0.0
C214 C 0.05554 0.31378 0.11407 0.0
C215 C 0.05218 0.33077 0.14081 0.0
C216 C 0.03415 0.33537 0.15943 0.0
C217 C 0.01929 0.32304 0.14691 0.0
C218 C 0.01528 0.22352 0.93742 0.0
H219 H 0.07481 0.23296 0.29114 0.0
H220 H 0.05989 0.25364 0.22642 0.0
H221 H 0.09221 0.22843 0.09789 0.0
H222 H 0.10707 0.20748 0.16299 0.0
H223 H 0.0631 0.27872 0.1622 0.0
H224 H 0.06061 0.2294 0.06294 0.0
H225 H 0.02955 0.2787 0.01725 0.0
H226 H 0.00915 0.24408 0.99899 0.0
H227 H 0.06742 0.23628 0.95996 0.0
H228 H 0.05927 0.21194 0.89548 0.0
H229 H 0.01126 0.29611 0.11441 0.0
H230 H 0.06979 0.31023 0.10306 0.0
H231 H 1.00064 0.22001 0.93221 0.0
H232 H 0.00523 0.3261 0.16066 0.0
H233 H 0.06389 0.34005 0.14856 0.0
C234 C 0.30455 0.09477 0.21686 0.0
C235 C 0.31551 0.10857 0.19142 0.0
C236 C 0.29007 0.08581 0.18903 0.0
C237 C 0.28628 0.09034 0.13507 0.0
C238 C 0.29604 0.10527 0.1112 0.0
C239 C 0.31047 0.11436 0.13918 0.0
C240 C 0.2744 0.07768 0.10187 0.0
C241 C 0.25752 0.07056 0.1218 0.0
C242 C 0.24765 0.05645 0.0938 0.0
C243 C 0.25493 0.04954 0.04446 0.0
C244 C 0.27188 0.05678 0.02371 0.0
C245 C 0.28129 0.07088 0.05273 0.0
C246 C 0.28128 0.04907 0.97468 0.0
C247 C 0.28541 0.02985 0.97018 0.0
C248 C 0.28937 0.06146 0.93738 0.0
C249 C 0.30246 0.05513 0.8996 0.0
C250 C 0.30775 0.03611 0.89742 0.0
C251 C 0.23021 0.04885 0.11856 0.0
C252 C 0.2301 0.04428 0.17369 0.0
C253 C 0.21327 0.04795 0.08969 0.0
C254 C 0.19645 0.04348 0.11619 0.0
C255 C 0.19627 0.03965 0.172 0.0
C256 C 0.21342 0.03979 0.2 0.0
C257 C 0.29847 0.02344 0.93191 0.0
H258 H 0.30809 0.08972 0.25673 0.0
H259 H 0.2829 0.07427 0.2084 0.0
H260 H 0.29318 0.10925 0.06985 0.0
H261 H 0.31834 0.12519 0.11877 0.0
H262 H 0.25216 0.0759 0.15979 0.0
H263 H 0.2948 0.07576 0.03862 0.0
H264 H 0.2477 0.0384 0.02305 0.0
H265 H 0.2795 0.01996 0.9985 0.0
H266 H 0.28644 0.07636 0.93972 0.0
H267 H 0.30925 0.06547 0.87447 0.0
H268 H 0.24294 0.04472 0.19704 0.0
H269 H 0.21291 0.05148 0.04723 0.0
H270 H 0.30177 0.00862 0.93075 0.0
H271 H 0.21395 0.03717 0.24297 0.0
H272 H 0.18356 0.04329 0.09312 0.0
C273 C 0.45343 0.2949 0.89234 0.0
C274 C 0.47265 0.29742 0.88206 0.0
C275 C 0.44742 0.28383 0.93534 0.0
C276 C 0.4604 0.27504 0.96962 0.0
C277 C 0.47953 0.27627 0.95712 0.0
C278 C 0.48561 0.28734 0.91376 0.0
C279 C 0.45417 0.26832 0.02346 0.0
C280 C 0.45929 0.25067 0.04457 0.0
C281 C 0.45409 0.24573 0.0977 0.0
C282 C 0.44402 0.25874 0.12929 0.0
C283 C 0.43924 0.27645 0.10918 0.0
C284 C 0.44397 0.28085 0.05589 0.0
C285 C 0.43094 0.29104 0.14507 0.0
C286 C 0.41745 0.28654 0.18436 0.0
C287 C 0.43735 0.30964 0.1419 0.0
C288 C 0.4307 0.3233 0.17722 0.0
C289 C 0.41753 0.3188 0.21718 0.0
C290 C 0.45921 0.2273 0.12202 0.0
C291 C 0.45624 0.2103 0.09422 0.0
C292 C 0.46541 0.22659 0.17591 0.0
C293 C 0.4673 0.20948 0.20253 0.0
C294 C 0.46329 0.19253 0.17588 0.0
C295 C 0.45832 0.19305 0.1209 0.0
C296 C 0.41088 0.30028 0.2203 0.0
H297 H 0.44295 0.30247 0.86953 0.0
H298 H 0.43257 0.28316 0.94406 0.0
H299 H 0.48987 0.26976 0.98306 0.0
H300 H 0.5005 0.28858 0.9065 0.0
H301 H 0.46742 0.24102 0.02016 0.0
H302 H 0.44026 0.2945 0.03997 0.0
H303 H 0.44029 0.25523 0.17038 0.0
H304 H 0.41209 0.27238 0.18763 0.0
H305 H 0.44811 0.31357 0.11336 0.0
H306 H 0.43654 0.33729 0.17467 0.0
H307 H 0.45143 0.21035 0.05275 0.0
H308 H 0.46831 0.23938 0.19818 0.0
H309 H 0.40076 0.29641 0.25077 0.0
H310 H 0.4552 0.18018 0.0993 0.0
H311 H 0.47159 0.20953 0.24449 0.0
Tb312 Tb 0.02798 0.00504 0.65174 0.0
C313 C 0.9599 0.98794 0.50374 0.0
C314 C 0.97172 0.96926 0.42976 0.0
C315 C 0.93945 0.96556 0.45851 0.0
C316 C 0.97447 0.98292 0.47049 0.0
C317 C 0.94207 0.97969 0.49743 0.0
C318 C 0.95428 0.96032 0.42477 0.0
C319 C 0.93041 1.00098 0.56548 0.0
N320 N 0.963 1.00158 0.5408 0.0
C321 C 0.94835 0.00866 0.57032 0.0
C322 C 0.92731 0.98622 0.52943 0.0
Tb323 Tb 0.99297 0.01311 0.54781 0.0
N324 N 0.99112 0.99189 0.47682 0.0
C325 C 0.00521 0.98859 0.4403 0.0
C326 C 0.98645 0.96522 0.39463 0.0
C327 C 1.00316 0.97512 0.3995 0.0
H328 H 0.95062 0.01989 0.59899 0.0
H329 H 0.01456 0.97235 0.37186 0.0
H330 H 0.952 0.94966 0.39416 0.0
H331 H 0.91903 0.00635 0.58989 0.0
H332 H 0.01839 0.99579 0.44198 0.0
H333 H 1.00366 0.04888 0.81746 0.0
H334 H 0.98495 0.95477 0.36304 0.0
H335 H 0.07205 0.99556 0.62033 0.0
H336 H 1.0019 0.02309 0.75274 0.0
H337 H 0.1029 0.0111 0.62569 0.0
H338 H 0.92592 0.9589 0.45341 0.0
H339 H 0.03151 0.06945 0.8201 0.0
H340 H 0.06404 0.07623 0.78678 0.0
H341 H 0.91341 0.98025 0.52579 0.0
H342 H 0.09127 0.0661 0.7331 0.0
N343 N 0.02848 0.02855 0.71656 0.0
C344 C 0.01431 0.03155 0.75287 0.0
C345 C 0.03089 0.05796 0.79138 0.0
C346 C 0.04588 0.05411 0.75697 0.0
C347 C 0.0152 0.04634 0.79012 0.0
C348 C 0.04428 0.039 0.72025 0.0
H349 H 0.10606 0.04151 0.67351 0.0
N350 N 0.05755 0.01767 0.66037 0.0
C351 C 0.09073 0.01771 0.64355 0.0
C352 C 0.0594 0.03342 0.69042 0.0
C353 C 0.07321 0.009 0.64033 0.0
C354 C 0.09245 0.03488 0.67039 0.0
C355 C 0.07678 0.04264 0.69588 0.0
O356 O 0.0454 0.98291 0.67623 0.0
O357 O 0.01074 0.99345 0.58835 0.0
O358 O 0.98064 0.99434 0.60814 0.0
O359 O 0.99912 1.00147 0.68289 0.0
O360 O 0.03673 0.98214 0.59719 0.0
O361 O 0.02146 0.99075 0.72355 0.0
O362 O 0.97428 0.03452 0.52616 0.0
O363 O 0.01048 0.02524 0.61075 0.0
O364 O 0.04265 0.01859 0.58444 0.0
O365 O 0.02127 0.01553 0.51297 0.0
O366 O 0.98307 0.03327 0.60835 0.0
O367 O 1.00055 0.03146 0.48499 0.0
C368 C 0.02145 0.98091 0.57006 0.0
C369 C 0.0293 0.95841 0.71779 0.0
C370 C 0.00601 0.9334 0.71099 0.0
C371 C 0.01063 0.95257 0.71076 0.0
C372 C 0.02044 0.92012 0.71749 0.0
C373 C 0.0434 0.94492 0.7243 0.0
C374 C 0.03898 0.92588 0.72391 0.0
C375 C 0.98347 0.99482 0.661 0.0
C376 C 0.0346 0.97835 0.71604 0.0
C377 C 0.07813 0.05863 0.72899 0.0
C378 C 0.06266 0.06436 0.75961 0.0
C379 C 0.99877 0.03631 0.63187 0.0
C380 C 0.99085 0.06237 0.50926 0.0
C381 C 0.00866 0.06998 0.49901 0.0
C382 C 0.0133 0.08818 0.5166 0.0
C383 C 0.9999 0.09871 0.54519 0.0
C384 C 0.97759 0.07337 0.53698 0.0
C385 C 0.98217 0.09133 0.55516 0.0
C386 C 0.03827 0.01904 0.53235 0.0
C387 C 0.98649 0.04261 0.49525 0.0
H388 H 0.99974 0.96287 0.70501 0.0
H389 H 0.01739 0.90525 0.71914 0.0
H390 H 0.05788 0.94914 0.72935 0.0
H391 H 0.04993 0.91554 0.72913 0.0
H392 H 0.01903 0.06166 0.4781 0.0
H393 H 1.00292 0.11286 0.55873 0.0
H394 H 0.96375 0.06794 0.54564 0.0
H395 H 0.97193 0.09958 0.57695 0.0
Tb396 Tb 0.50987 0.02767 0.63689 0.0
C397 C 0.53378 0.9574 0.50436 0.0
C398 C 0.55524 0.96962 0.43826 0.0
C399 C 0.55846 0.93743 0.46861 0.0
C400 C 0.53995 0.97204 0.47368 0.0
C401 C 0.54251 0.93968 0.50109 0.0
C402 C 0.56483 0.95241 0.43715 0.0
C403 C 0.51757 0.92732 0.55593 0.0
N404 N 0.51818 0.96016 0.53414 0.0
C405 C 0.50938 0.94516 0.55721 0.0
C406 C 0.53444 0.92464 0.5286 0.0
Tb407 Tb 0.50601 0.98998 0.53813 0.0
N408 N 0.53019 0.98833 0.47612 0.0
C409 C 0.53424 1.00233 0.44021 0.0
C410 C 0.56004 0.98435 0.40399 0.0
C411 C 0.54929 1.00066 0.40439 0.0
H412 H 0.49625 0.94705 0.57812 0.0
H413 H 0.55266 0.01206 0.37738 0.0
H414 H 0.57678 0.95037 0.41088 0.0
H415 H 0.51082 0.91566 0.57587 0.0
H416 H 0.52646 0.0152 0.43968 0.0
H417 H 0.4687 0.00659 0.81047 0.0
H418 H 0.57173 0.98312 0.37635 0.0
H419 H 0.51333 0.06912 0.57731 0.0
H420 H 0.49392 1.00366 0.7448 0.0
H421 H 0.49583 0.09901 0.57532 0.0
H422 H 0.56554 0.924 0.46605 0.0
H423 H 0.44725 0.03378 0.80785 0.0
H424 H 0.43867 0.06473 0.76666 0.0
H425 H 0.54069 0.91079 0.5272 0.0
H426 H 0.44601 0.08995 0.70253 0.0
N427 N 0.48708 0.02892 0.70257 0.0
C428 C 0.48493 0.01573 0.74218 0.0
C429 C 0.45845 0.03266 0.77855 0.0
C430 C 0.46129 0.04663 0.74009 0.0
C431 C 0.47053 0.01731 0.78016 0.0
C432 C 0.47603 0.04443 0.7027 0.0
H433 H 0.46752 0.10301 0.63168 0.0
N434 N 0.4949 0.05617 0.63351 0.0
C435 C 0.49119 0.08772 0.60112 0.0
C436 C 0.48007 0.05855 0.66682 0.0
C437 C 0.50111 0.07081 0.60256 0.0
C438 C 0.47519 0.08989 0.63282 0.0
C439 C 0.46963 0.07534 0.66695 0.0
O440 O 0.52916 0.04885 0.65584 0.0
O441 O 0.52413 0.00942 0.5802 0.0
O442 O 0.5205 0.9777 0.60783 0.0
O443 O 0.51529 1.00031 0.67574 0.0
O444 O 0.53162 0.03704 0.58058 0.0
O445 O 0.52514 0.02536 0.70934 0.0
O446 O 0.48322 0.97309 0.51502 0.0
O447 O 0.4925 0.00737 0.59767 0.0
O448 O 0.49097 0.03651 0.57211 0.0
O449 O 0.50254 0.0182 0.50218 0.0
O450 O 0.4837 0.9803 0.59284 0.0
O451 O 0.49301 0.99506 0.46329 0.0
C452 C 0.53556 0.02092 0.56036 0.0
C453 C 0.55597 0.03716 0.69711 0.0
C454 C 0.58349 0.01746 0.68309 0.0
C455 C 0.56399 0.01942 0.68775 0.0
C456 C 0.59488 0.03351 0.68664 0.0
C457 C 0.56759 0.05296 0.70114 0.0
C458 C 0.58694 0.05113 0.69566 0.0
C459 C 0.52046 0.98329 0.65917 0.0
C460 C 0.53556 0.03982 0.69741 0.0
C461 C 0.45436 0.07725 0.70221 0.0
C462 C 0.4502 0.0629 0.73874 0.0
C463 C 0.48094 0.99597 0.61726 0.0
C464 C 0.46016 0.99184 0.4739 0.0
C465 C 0.45674 0.00936 0.4499 0.0
C466 C 0.43925 0.01823 0.45531 0.0
C467 C 0.42498 0.00907 0.4841 0.0
C468 C 0.44558 0.9829 0.50186 0.0
C469 C 0.42814 0.99151 0.50692 0.0
C470 C 0.49343 0.03321 0.52007 0.0
C471 C 0.47924 0.98371 0.47414 0.0
H472 H 0.55512 0.00719 0.68336 0.0
H473 H 0.60998 0.03237 0.68393 0.0
H474 H 0.56164 0.06678 0.70754 0.0
H475 H 0.59582 0.06339 0.69865 0.0
H476 H 0.46785 0.01632 0.42816 0.0
H477 H 0.41121 0.0153 0.48812 0.0
H478 H 0.44776 0.9694 0.52079 0.0
H479 H 0.41704 0.98457 0.52886 0.0
Tb480 Tb 0.53149 0.50299 0.54846 0.0
C481 C 0.45006 0.48249 0.60385 0.0
C482 C 0.43013 0.49629 0.53588 0.0
C483 C 0.42059 0.46748 0.58013 0.0
C484 C 0.44684 0.49628 0.56634 0.0
C485 C 0.43683 0.46812 0.61216 0.0
C486 C 0.41723 0.48157 0.54205 0.0
C487 C 0.45581 0.4572 0.68639 0.0
N488 N 0.46582 0.4837 0.63405 0.0
C489 C 0.46844 0.47179 0.67673 0.0
C490 C 0.44006 0.45517 0.65342 0.0
Tb491 Tb 0.48624 0.50758 0.61395 0.0
N492 N 0.45976 0.51012 0.56134 0.0
C493 C 0.45598 0.52522 0.52919 0.0
C494 C 0.42671 0.51125 0.50099 0.0
C495 C 0.43958 0.52591 0.49825 0.0
H496 H 0.48069 0.47311 0.70208 0.0
H497 H 0.43696 0.53773 0.47201 0.0
H498 H 0.40445 0.48119 0.51846 0.0
H499 H 0.45828 0.44748 0.71907 0.0
H500 H 0.46559 0.53673 0.52611 0.0
H501 H 0.58057 0.4746 0.6935 0.0
H502 H 0.41408 0.51178 0.47675 0.0
H503 H 0.53659 0.53698 0.45858 0.0
H504 H 0.55184 0.47508 0.63955 0.0
H505 H 0.5589 0.56254 0.43967 0.0
H506 H 0.41034 0.45645 0.58545 0.0
H507 H 0.60349 0.50043 0.68619 0.0
H508 H 0.61308 0.53061 0.64193 0.0
H509 H 0.43027 0.44389 0.66103 0.0
H510 H 0.60706 0.55474 0.57323 0.0
N511 N 0.55768 0.50134 0.60225 0.0
C512 C 0.56148 0.48655 0.63557 0.0
C513 C 0.59078 0.50078 0.66226 0.0
C514 C 0.58731 0.51543 0.62631 0.0
C515 C 0.5779 0.48617 0.66641 0.0
C516 C 0.57055 0.51516 0.59606 0.0
H517 H 0.58698 0.56665 0.49713 0.0
N518 N 0.55153 0.52704 0.52729 0.0
C519 C 0.56142 0.55312 0.47304 0.0
C520 C 0.5673 0.52856 0.55738 0.0
C521 C 0.54884 0.53858 0.48381 0.0
C522 C 0.57721 0.55544 0.50567 0.0
C523 C 0.58051 0.54286 0.54784 0.0
O524 O 0.54162 0.49813 0.47033 0.0
O525 O 0.50148 0.50066 0.542 0.0
O526 O 0.49072 0.47818 0.59181 0.0
O527 O 0.5233 0.47696 0.59167 0.0
O528 O 0.5151 0.50957 0.47511 0.0
O529 O 0.54342 0.47665 0.53131 0.0
O530 O 0.47633 0.51176 0.69265 0.0
O531 O 0.51626 0.50989 0.62046 0.0
O532 O 0.52699 0.53247 0.5697 0.0
O533 O 0.49438 0.53353 0.57039 0.0
O534 O 0.5027 0.50024 0.68651 0.0
O535 O 0.47578 0.53427 0.63459 0.0
C536 C 0.49892 0.50545 0.49385 0.0
C537 C 0.53801 0.46727 0.4412 0.0
C538 C 0.51191 0.44904 0.40573 0.0
C539 C 0.51962 0.46053 0.44613 0.0
C540 C 0.52283 0.44427 0.3605 0.0
C541 C 0.54874 0.46236 0.39605 0.0
C542 C 0.54117 0.45085 0.3559 0.0
C543 C 0.50663 0.46883 0.59706 0.0
C544 C 0.5456 0.48068 0.48038 0.0
C545 C 0.5968 0.54378 0.57958 0.0
C546 C 0.60023 0.53004 0.61867 0.0
C547 C 0.51885 0.50478 0.66833 0.0
C548 C 0.48368 0.54154 0.7255 0.0
C549 C 0.49901 0.55285 0.71124 0.0
C550 C 0.50905 0.56274 0.75095 0.0
C551 C 0.50366 0.56106 0.80531 0.0
C552 C 0.47845 0.54018 0.77985 0.0
C553 C 0.48844 0.54987 0.81953 0.0
C554 C 0.511 0.54177 0.56516 0.0
C555 C 0.47412 0.52968 0.68533 0.0
H556 H 0.51123 0.46453 0.48067 0.0
H557 H 0.51729 0.43522 0.32911 0.0
H558 H 0.56288 0.46763 0.39151 0.0
H559 H 0.54949 0.44709 0.32103 0.0
H560 H 0.50331 0.55382 0.66955 0.0
H561 H 0.51091 0.56877 0.83676 0.0
H562 H 0.46682 0.53135 0.79167 0.0
H563 H 0.48435 0.54873 0.86143 0.0
Tb564 Tb 0.01428 0.53361 0.54755 0.0
C565 C 0.02718 0.45362 0.62366 0.0
C566 C 0.01365 0.43296 0.55658 0.0
C567 C 0.04072 0.42276 0.60822 0.0
C568 C 0.01405 0.45036 0.58397 0.0
C569 C 0.04044 0.43973 0.63718 0.0
C570 C 0.02733 0.41937 0.56798 0.0
C571 C 0.0509 0.45967 0.71025 0.0
N572 N 0.02634 0.47009 0.65095 0.0
C573 C 0.03739 0.47291 0.6956 0.0
C574 C 0.05262 0.4431 0.68042 0.0
Tb575 Tb 0.00427 0.49138 0.62261 0.0
N576 N 1.00113 0.46391 0.57402 0.0
C577 C 0.98645 0.46015 0.53995 0.0
C578 C 0.99926 0.42956 0.51954 0.0
C579 C 0.98546 0.44311 0.51184 0.0
H580 H 0.03624 0.48577 0.71865 0.0
H581 H 0.97406 0.4405 0.48396 0.0
H582 H 0.02738 0.40603 0.54685 0.0
H583 H 0.05999 0.46226 0.74447 0.0
H584 H 0.97552 0.47022 0.5328 0.0
H585 H 0.04738 0.58305 0.68634 0.0
H586 H 0.99848 0.41641 0.49752 0.0
H587 H 0.98655 0.54467 0.44436 0.0
H588 H 0.04612 0.55516 0.62971 0.0
H589 H 0.96284 0.56878 0.42296 0.0
H590 H 0.05091 0.41198 0.61759 0.0
H591 H 0.02183 0.60638 0.68325 0.0
H592 H 0.99233 0.61756 0.63871 0.0
H593 H 0.06304 0.43281 0.69199 0.0
H594 H 0.96881 0.61349 0.56705 0.0
N595 N 0.01857 0.5605 0.5989 0.0
C596 C 0.03415 0.56426 0.62952 0.0
C597 C 0.02086 0.59371 0.6591 0.0
C598 C 0.00596 0.59088 0.62344 0.0
C599 C 0.03525 0.58055 0.66107 0.0
C600 C 0.00534 0.57406 0.5931 0.0
H601 H 0.9579 0.5955 0.48545 0.0
N602 N 0.99363 0.55658 0.52067 0.0
C603 C 0.97082 0.56973 0.46004 0.0
C604 C 0.99224 0.5719 0.5528 0.0
C605 C 0.98415 0.55604 0.47244 0.0
C606 C 0.96803 0.58473 0.49548 0.0
C607 C 0.97929 0.58633 0.54153 0.0
O608 O 0.02339 0.54991 0.48187 0.0
O609 O 0.01371 0.50335 0.54769 0.0
O610 O 0.03438 0.49363 0.60704 0.0
O611 O 0.03709 0.52598 0.60415 0.0
O612 O 0.00632 0.51623 0.47739 0.0
O613 O 0.04177 0.53009 0.51866 0.0
O614 O 0.99864 0.48331 0.70212 0.0
O615 O 1.00286 0.5219 0.62067 0.0
O616 O 0.98381 0.52925 0.54397 0.0
O617 O 0.97909 0.49877 0.57605 0.0
O618 O 0.01066 0.50984 0.69172 0.0
O619 O 0.97695 0.4825 0.64131 0.0
C620 C 0.00893 0.50016 0.49948 0.0
C621 C 0.04275 0.53239 0.42339 0.0
C622 C 0.05407 0.50646 0.36722 0.0
C623 C 0.05082 0.51445 0.41836 0.0
C624 C 0.04879 0.51656 0.32096 0.0
C625 C 0.03777 0.54226 0.37659 0.0
C626 C 0.04067 0.5343 0.32576 0.0
C627 C 0.04418 0.50915 0.61446 0.0
C628 C 0.03893 0.54068 0.47705 0.0
C629 C 0.97882 0.60237 0.57454 0.0
C630 C 0.99221 0.60468 0.61535 0.0
C631 C 0.00696 0.52554 0.66907 0.0
C632 C 0.96856 0.49097 0.73064 0.0
C633 C 0.96118 0.50882 0.71899 0.0
C634 C 0.95083 0.51863 0.75825 0.0
C635 C 0.94798 0.51034 0.80906 0.0
C636 C 0.96549 0.48297 0.78139 0.0
C637 C 0.95524 0.49263 0.82039 0.0
C638 C 0.97322 0.51428 0.55217 0.0
C639 C 0.98087 0.48113 0.69261 0.0
H640 H 0.05452 0.50663 0.45422 0.0
H641 H 0.05142 0.51104 0.28092 0.0
H642 H 0.03153 0.55608 0.37933 0.0
H643 H 0.0368 0.54201 0.28989 0.0
H644 H 0.96372 0.51515 0.67999 0.0
H645 H 0.93976 0.51739 0.83975 0.0
H646 H 0.97128 0.46933 0.7911 0.0
H647 H 0.95291 0.48638 0.85953 0.0
C648 C 0.16215 0.04696 0.19076 0.0
C649 C 0.17837 0.03641 0.20211 0.0
C650 C 0.14609 0.04533 0.22309 0.0
C651 C 0.13254 0.03243 0.36143 0.0
H652 H 0.0819 0.02928 0.30558 0.0
C653 C 0.0711 0.01372 0.5004 0.0
C654 C 0.05359 0.02219 0.49272 0.0
C655 C 0.08561 0.0162 0.46339 0.0
C656 C 0.09591 0.03045 0.32197 0.0
H657 H 0.18977 0.01493 0.25459 0.0
H658 H 0.16203 0.01234 0.31101 0.0
H659 H 0.10827 0.03184 0.24303 0.0
H660 H 0.03717 0.03886 0.43721 0.0
H661 H 0.06272 0.0439 0.37308 0.0
H662 H 0.12043 0.03137 0.44011 0.0
C663 C 0.16183 0.02214 0.27771 0.0
C664 C 0.11104 0.03184 0.28601 0.0
C665 C 0.17777 0.02365 0.24528 0.0
C666 C 0.05069 0.03267 0.44545 0.0
C667 C 0.06531 0.03534 0.4083 0.0
C668 C 0.11748 0.03123 0.39724 0.0
C669 C 0.14591 0.03321 0.26776 0.0
C670 C 0.12958 0.03253 0.30534 0.0
C671 C 0.08308 0.02725 0.41703 0.0
C672 C 0.09893 0.02988 0.37817 0.0
H673 H 0.16209 0.05706 0.15826 0.0
H674 H 0.13409 0.05411 0.21439 0.0
H675 H 0.14658 0.03339 0.3778 0.0
H676 H 0.07345 1.00444 0.53382 0.0
H677 H 0.09874 0.00904 0.47067 0.0
C678 C 0.47295 0.15871 0.18749 0.0
C679 C 0.46347 0.17465 0.20675 0.0
C680 C 0.47402 0.14241 0.21896 0.0
C681 C 0.46934 0.12694 0.36192 0.0
H682 H 0.47159 0.07713 0.29905 0.0
C683 C 0.47356 0.06108 0.49603 0.0
C684 C 0.48683 0.04749 0.48081 0.0
C685 C 0.46867 0.0756 0.46083 0.0
C686 C 0.47099 0.09094 0.31729 0.0
H687 H 0.44674 0.18564 0.27253 0.0
H688 H 0.44808 0.15723 0.32645 0.0
H689 H 0.46659 0.10421 0.24089 0.0
H690 H 0.50437 0.03786 0.41494 0.0
H691 H 0.49594 0.06311 0.35378 0.0
H692 H 0.47369 0.11371 0.43824 0.0
C693 C 0.45532 0.1574 0.28811 0.0
C694 C 0.46823 0.10652 0.28384 0.0
C695 C 0.45447 0.1737 0.25706 0.0
C696 C 0.49428 0.04818 0.42837 0.0
C697 C 0.48935 0.06265 0.39307 0.0
C698 C 0.47189 0.11138 0.39533 0.0
C699 C 0.46542 0.14161 0.27012 0.0
C700 C 0.46754 0.12478 0.30561 0.0
C701 C 0.4768 0.0768 0.40924 0.0
C702 C 0.4729 0.09317 0.37351 0.0
H703 H 0.48005 0.15906 0.14893 0.0
H704 H 0.48208 0.13065 0.20381 0.0
H705 H 0.46931 0.14073 0.38034 0.0
H706 H 0.46708 0.06064 0.53549 0.0
H707 H 0.45856 0.08595 0.47416 0.0
C708 C 0.35718 0.46432 0.23523 0.0
C709 C 0.35234 0.47668 0.19323 0.0
C710 C 0.37322 0.46731 0.26662 0.0
C711 C 0.40714 0.50397 0.30847 0.0
H712 H 0.43773 0.46142 0.34932 0.0
C713 C 0.47812 0.514 0.41703 0.0
C714 C 0.48249 0.50164 0.45911 0.0
C715 C 0.46271 0.51062 0.3834 0.0
C716 C 0.42929 0.47345 0.3388 0.0
H717 H 0.36082 0.50202 0.15187 0.0
H718 H 0.3888 0.5073 0.20686 0.0
H719 H 0.41006 0.45652 0.29353 0.0
H720 H 0.4754 0.47503 0.49555 0.0
H721 H 0.44828 0.46918 0.4377 0.0
H722 H 0.42625 0.52086 0.35427 0.0
C723 C 0.38003 0.49531 0.21565 0.0
C724 C 0.41336 0.47064 0.30669 0.0
C725 C 0.36396 0.49228 0.18405 0.0
C726 C 0.4719 0.48517 0.46477 0.0
C727 C 0.45652 0.4817 0.43095 0.0
C728 C 0.42305 0.50676 0.34071 0.0
C729 C 0.38492 0.48281 0.25726 0.0
C730 C 0.40206 0.48587 0.291 0.0
C731 C 0.45146 0.49458 0.39042 0.0
C732 C 0.43442 0.49154 0.35619 0.0
H733 H 0.34839 0.4524 0.2446 0.0
H734 H 0.37627 0.45759 0.29894 0.0
H735 H 0.39861 0.51599 0.29809 0.0
H736 H 0.48644 0.52651 0.41085 0.0
H737 H 0.45964 0.52059 0.35177 0.0
C738 C 0.01575 0.36412 0.18874 0.0
C739 C 0.03133 0.35224 0.19486 0.0
C740 C 0.01344 0.37995 0.22218 0.0
C741 C 0.03988 0.41123 0.31824 0.0
H742 H 0.99013 0.4273 0.35995 0.0
C743 C 0.02724 0.47103 0.47571 0.0
C744 C 0.01178 0.48284 0.46718 0.0
C745 C 0.02999 0.45509 0.4431 0.0
C746 C 0.00415 0.42319 0.34825 0.0
H747 H 0.05631 0.34743 0.24271 0.0
H748 H 0.05216 0.37455 0.30118 0.0
H749 H 0.99388 0.39981 0.30246 0.0
H750 H 0.98801 0.48819 0.41536 0.0
H751 H 0.99268 0.46053 0.35856 0.0
H752 H 0.05012 0.43426 0.36555 0.0
C753 C 0.04197 0.37213 0.26952 0.0
C754 C 0.00631 0.40735 0.31501 0.0
C755 C 0.04435 0.35647 0.23588 0.0
C756 C 0.99971 0.47897 0.42382 0.0
C757 C 1.00237 0.46304 0.39146 0.0
C758 C 0.03771 0.42694 0.35197 0.0
C759 C 0.02655 0.38424 0.26313 0.0
C760 C 0.02421 0.40116 0.29905 0.0
C761 C 0.0174 0.45067 0.40096 0.0
C762 C 0.01981 0.43336 0.36688 0.0
H763 H 0.0055 0.36139 0.15743 0.0
H764 H 1.0015 0.38898 0.21523 0.0
H765 H 0.05392 0.4072 0.30656 0.0
H766 H 0.03717 0.47409 0.50763 0.0
H767 H 0.04176 0.44601 0.45181 0.0
C768 C 0.83789 0.96869 0.914 0.0
C769 C 0.83867 0.97379 0.96889 0.0
C770 C 0.85396 0.96896 0.88186 0.0
C771 C 0.90615 0.97026 0.88722 0.0
H772 H 0.90082 0.98823 0.7405 0.0
C773 C 0.96891 0.99246 0.75323 0.0
C774 C 0.96811 0.98862 0.69751 0.0
C775 C 0.9537 0.98843 0.78682 0.0
C776 C 0.90255 0.9829 0.78108 0.0
H777 H 0.85723 0.98289 0.03307 0.0
H778 H 0.88535 0.98363 0.97674 0.0
H779 H 0.8734 0.98617 0.79826 0.0
H780 H 0.95132 0.97554 0.63487 0.0
H781 H 0.92459 0.96896 0.69312 0.0
H782 H 0.93547 0.9674 0.86996 0.0
C783 C 0.87226 0.97918 0.95868 0.0
C784 C 0.88677 0.98172 0.81437 0.0
C785 C 0.85612 0.97882 0.99103 0.0
C786 C 0.95213 0.9795 0.677 0.0
C787 C 0.93683 0.97562 0.7105 0.0
C788 C 0.92197 0.97153 0.85391 0.0
C789 C 0.87137 0.97441 0.90344 0.0
C790 C 0.88832 0.97543 0.86801 0.0
C791 C 0.93727 0.98041 0.76567 0.0
C792 C 0.92038 0.97795 0.80045 0.0
H793 H 0.8248 0.96428 0.8958 0.0
H794 H 0.85272 0.96474 0.83998 0.0
H795 H 0.9079 0.96507 0.92791 0.0
H796 H 0.9811 0.99903 0.77099 0.0
H797 H 0.95458 0.99228 0.82906 0.0
C798 C 0.55485 0.87079 0.02687 0.0
C799 C 0.54414 0.85441 0.01929 0.0
C800 C 0.5532 0.88591 0.99106 0.0
C801 C 0.54162 0.89545 0.85032 0.0
H802 H 0.53336 0.94709 0.89386 0.0
C803 C 0.51925 0.95075 0.69613 0.0
C804 C 0.52531 0.96936 0.70133 0.0
C805 C 0.52299 0.93757 0.73618 0.0
C806 C 0.53601 0.93281 0.88093 0.0
H807 H 0.52321 0.8412 0.96831 0.0
H808 H 0.52047 0.86742 0.90593 0.0
H809 H 0.5369 0.92274 0.96259 0.0
H810 H 0.53946 0.98899 0.75441 0.0
H811 H 0.54673 0.96578 0.82404 0.0
H812 H 0.54115 0.90525 0.76906 0.0
C813 C 0.53006 0.86862 0.93968 0.0
C814 C 0.53794 0.91886 0.9204 0.0
C815 C 0.53149 0.85367 0.97579 0.0
C816 C 0.53494 0.97463 0.74857 0.0
C817 C 0.53894 0.96134 0.78872 0.0
C818 C 0.53997 0.90935 0.81104 0.0
C819 C 0.54107 0.88479 0.94641 0.0
C820 C 0.54035 0.89997 0.90539 0.0
C821 C 0.53303 0.94256 0.78297 0.0
C822 C 0.53668 0.92819 0.82559 0.0
H823 H 0.5647 0.87179 0.06005 0.0
H824 H 0.56188 0.8982 0.99718 0.0
H825 H 0.54386 0.88106 0.83754 0.0
H826 H 0.51085 0.94645 0.66226 0.0
H827 H 0.51751 0.92352 0.73091 0.0
C828 C 0.66042 0.54856 0.92478 0.0
C829 C 0.66514 0.53627 0.96704 0.0
C830 C 0.64403 0.54601 0.89459 0.0
C831 C 0.59794 0.5212 0.89505 0.0
H832 H 0.59903 0.53243 0.7422 0.0
C833 C 0.5393 0.49779 0.74728 0.0
C834 C 0.53475 0.50961 0.70408 0.0
C835 C 0.55437 0.50205 0.78143 0.0
C836 C 0.59838 0.52939 0.78489 0.0
H837 H 0.65591 0.51156 0.01035 0.0
H838 H 0.62772 0.50671 0.9565 0.0
H839 H 0.62704 0.53711 0.79641 0.0
H840 H 0.54101 0.53621 0.66628 0.0
H841 H 0.56739 0.54368 0.72559 0.0
H842 H 0.56933 0.51308 0.88294 0.0
C843 C 0.63655 0.51862 0.94741 0.0
C844 C 0.6145 0.53213 0.81622 0.0
C845 C 0.65292 0.52126 0.97795 0.0
C846 C 0.54475 0.52642 0.69775 0.0
C847 C 0.55981 0.53073 0.73198 0.0
C848 C 0.58186 0.5183 0.86355 0.0
C849 C 0.63187 0.53095 0.90515 0.0
C850 C 0.61456 0.52806 0.87181 0.0
C851 C 0.56503 0.51843 0.77375 0.0
C852 C 0.58188 0.52227 0.80796 0.0
H853 H 0.66954 0.5601 0.91423 0.0
H854 H 0.64088 0.55599 0.86304 0.0
H855 H 0.59725 0.51824 0.93781 0.0
H856 H 0.53152 0.48495 0.75366 0.0
H857 H 0.55799 0.49219 0.8129 0.0
C858 C 0.99334 0.67535 0.91429 0.0
C859 C 0.98378 0.67503 0.96392 0.0
C860 C 0.99492 0.65906 0.88252 0.0
C861 C 0.99352 0.60724 0.88933 0.0
H862 H 0.98546 0.60992 0.73481 0.0
C863 C 0.98749 0.55407 0.69137 0.0
C864 C 1.00343 0.54294 0.70037 0.0
C865 C 0.9839 0.56984 0.72409 0.0
C866 C 0.98766 0.60889 0.77789 0.0
H867 H 0.96878 0.65707 0.0194 0.0
H868 H 0.97176 0.62866 0.96441 0.0
H869 H 0.98204 0.63818 0.79028 0.0
H870 H 0.02736 0.53876 0.75253 0.0
H871 H 0.02138 0.5663 0.80887 0.0
H872 H 0.99931 0.57802 0.87696 0.0
C873 C 0.97795 0.64155 0.9499 0.0
C874 C 0.98587 0.62514 0.80969 0.0
C875 C 0.97616 0.65788 0.98132 0.0
C876 C 0.01521 0.54736 0.744 0.0
C877 C 0.01166 0.56305 0.77658 0.0
C878 C 0.99555 0.59106 0.85746 0.0
C879 C 0.98721 0.64194 0.89981 0.0
C880 C 0.98886 0.62457 0.86586 0.0
C881 C 0.99604 0.57461 0.76697 0.0
C882 C 0.99278 0.59166 0.80121 0.0
H883 H 0.99921 0.68832 0.89931 0.0
H884 H 1.00231 0.65986 0.84447 0.0
H885 H 0.99601 0.60625 0.93235 0.0
H886 H 0.9778 0.55054 0.65922 0.0
H887 H 0.97157 0.57823 0.71603 0.0
C888 C 0.09637 0.18458 0.25335 0.0
C889 C 0.0978 0.20341 0.26976 0.0
C890 C 0.09703 0.1702 0.2913 0.0
C891 C 0.08263 0.16467 0.43065 0.0
H892 H 0.09213 0.11228 0.39814 0.0
C893 C 0.041 0.10851 0.53923 0.0
C894 C 0.03165 0.09665 0.50259 0.0
C895 C 0.05658 0.11886 0.52289 0.0
C896 C 0.08955 0.12686 0.40815 0.0
H897 H 0.10335 0.22182 0.33772 0.0
H898 H 0.10473 0.19663 0.40417 0.0
H899 H 0.1078 0.13662 0.34579 0.0
H900 H 0.03223 0.0853 0.42122 0.0
H901 H 0.05918 0.10339 0.39266 0.0
H902 H 0.06358 0.15507 0.49061 0.0
C903 C 0.10262 0.19301 0.36211 0.0
C904 C 0.09851 0.1408 0.37819 0.0
C905 C 0.10184 0.20744 0.32411 0.0
C906 C 0.03912 0.09424 0.45059 0.0
C907 C 0.05468 0.10459 0.43424 0.0
C908 C 0.07375 0.15077 0.46064 0.0
C909 C 0.0992 0.17432 0.34651 0.0
C910 C 0.09437 0.15985 0.38724 0.0
C911 C 0.06312 0.11758 0.46952 0.0
C912 C 0.07637 0.13173 0.44789 0.0
H913 H 0.0931 0.18099 0.21188 0.0
H914 H 0.09416 0.15603 0.27767 0.0
H915 H 0.07891 0.17914 0.43861 0.0
H916 H 0.03586 0.11034 0.57995 0.0
H917 H 0.06298 0.12851 0.5513 0.0
C918 C 0.34988 0.11499 0.18305 0.0
C919 C 0.33378 0.11418 0.21566 0.0
C920 C 0.3677 0.1145 0.20626 0.0
C921 C 0.39374 0.11101 0.33721 0.0
H922 H 0.41436 0.06675 0.26819 0.0
C923 C 0.42424 0.05009 0.45543 0.0
C924 C 0.43564 0.0367 0.42973 0.0
C925 C 0.4185 0.0662 0.42813 0.0
C926 C 0.40941 0.07943 0.28769 0.0
H927 H 0.32388 0.11524 0.29829 0.0
H928 H 0.35489 0.1136 0.33868 0.0
H929 H 0.39165 0.08534 0.22092 0.0
H930 H 0.45147 0.03073 0.35695 0.0
H931 H 0.44195 0.05897 0.31012 0.0
H932 H 0.41108 0.10443 0.40516 0.0
C933 C 0.35382 0.11465 0.2952 0.0
C934 C 0.39622 0.09018 0.26027 0.0
C935 C 0.33598 0.11532 0.27199 0.0
C936 C 0.44254 0.04063 0.37792 0.0
C937 C 0.43695 0.05682 0.35082 0.0
C938 C 0.40718 0.10032 0.36457 0.0
C939 C 0.3698 0.11298 0.26245 0.0
C940 C 0.38747 0.1055 0.28573 0.0
C941 C 0.42416 0.0694 0.37456 0.0
C942 C 0.41434 0.08375 0.34128 0.0
H943 H 0.34885 0.11419 0.13951 0.0
H944 H 0.37979 0.11365 0.17998 0.0
H945 H 0.38749 0.12295 0.35752 0.0
H946 H 0.41915 0.04779 0.496 0.0
H947 H 0.4086 0.07541 0.44799 0.0
C948 C 0.40984 0.35192 0.24209 0.0
C949 C 0.41247 0.33322 0.258 0.0
C950 C 0.41068 0.36641 0.27995 0.0
C951 C 0.43672 0.37397 0.40453 0.0
H952 H 0.42333 0.42545 0.37255 0.0
C953 C 0.48727 0.43233 0.45865 0.0
C954 C 0.49274 0.44145 0.41111 0.0
C955 C 0.47037 0.42246 0.46059 0.0
C956 C 0.42698 0.41114 0.38282 0.0
H957 H 0.4153 0.31481 0.32692 0.0
H958 H 0.41609 0.3401 0.3935 0.0
H959 H 0.40366 0.39989 0.3391 0.0
H960 H 0.48422 0.44891 0.33012 0.0
H961 H 0.4551 0.43121 0.3326 0.0
H962 H 0.46055 0.38511 0.4456 0.0
C963 C 0.41407 0.34365 0.35145 0.0
C964 C 0.41579 0.39648 0.36345 0.0
C965 C 0.41342 0.32911 0.31333 0.0
C966 C 0.48042 0.44175 0.36698 0.0
C967 C 0.4636 0.43187 0.36881 0.0
C968 C 0.44775 0.3886 0.42439 0.0
C969 C 0.41401 0.36252 0.33479 0.0
C970 C 0.4213 0.37769 0.37076 0.0
C971 C 0.4587 0.42155 0.4149 0.0
C972 C 0.44369 0.40725 0.41062 0.0
H973 H 0.40863 0.35546 0.19975 0.0
H974 H 0.41053 0.38067 0.26512 0.0
H975 H 0.44157 0.35978 0.41116 0.0
H976 H 0.49664 0.43179 0.49296 0.0
H977 H 0.46695 0.41463 0.49664 0.0
C978 C 0.17591 0.41122 0.20244 0.0
C979 C 0.19109 0.41668 0.23526 0.0
C980 C 0.15762 0.4118 0.2222 0.0
C981 C 0.12866 0.42355 0.34431 0.0
H982 H 0.09967 0.45103 0.23844 0.0
C983 C 0.07954 0.48431 0.39555 0.0
C984 C 0.06421 0.48831 0.36181 0.0
C985 C 0.09098 0.46883 0.38526 0.0
C986 C 0.10723 0.44297 0.26835 0.0
H987 H 0.19896 0.42442 0.31702 0.0
H988 H 0.16712 0.42666 0.35028 0.0
H989 H 0.12775 0.43489 0.21067 0.0
H990 H 0.04776 0.47801 0.29424 0.0
H991 H 0.0681 0.45126 0.27532 0.0
H992 H 0.10854 0.43296 0.40263 0.0
C993 C 0.16927 0.42174 0.30937 0.0
C994 C 0.12344 0.43361 0.25235 0.0
C995 C 0.18761 0.42077 0.28994 0.0
C996 C 0.0598 0.47567 0.31997 0.0
C997 C 0.07139 0.4603 0.30928 0.0
C998 C 0.11243 0.43307 0.36041 0.0
C999 C 0.15399 0.41826 0.27482 0.0
C1000 C 0.13479 0.42438 0.29042 0.0
C1001 C 0.08745 0.45706 0.34078 0.0
C1002 C 0.10196 0.44348 0.32288 0.0
H1003 H 0.17783 0.40792 0.16016 0.0
H1004 H 0.14624 0.40842 0.19492 0.0
H1005 H 0.13683 0.41627 0.37453 0.0
H1006 H 0.08349 0.49378 0.42789 0.0
H1007 H 0.10337 0.46693 0.4099 0.0
C1008 C 0.90275 0.8394 0.91608 0.0
C1009 C 0.91241 0.82306 0.90108 0.0
C1010 C 0.90106 0.85427 0.87987 0.0
C1011 C 0.91632 0.87074 0.74253 0.0
H1012 H 0.93746 0.91112 0.82808 0.0
C1013 C 0.98137 0.91028 0.68243 0.0
C1014 C 0.98615 0.92714 0.7086 0.0
C1015 C 0.96387 0.90208 0.69069 0.0
C1016 C 0.93111 0.90042 0.8029 0.0
H1017 H 0.92606 0.80846 0.83539 0.0
H1018 H 0.92377 0.83451 0.77271 0.0
H1019 H 0.92004 0.88682 0.87194 0.0
H1020 H 0.97533 0.94984 0.75821 0.0
H1021 H 0.94456 0.93599 0.77057 0.0
H1022 H 0.92869 0.88396 0.67378 0.0
C1023 C 0.91706 0.83592 0.81166 0.0
C1024 C 0.921 0.88631 0.82836 0.0
C1025 C 0.91844 0.82092 0.84762 0.0
C1026 C 0.97223 0.93676 0.73775 0.0
C1027 C 0.95459 0.9287 0.74532 0.0
C1028 C 0.92645 0.88495 0.71691 0.0
C1029 C 0.90951 0.85322 0.82866 0.0
C1030 C 0.91446 0.87068 0.79905 0.0
C1031 C 0.95064 0.91068 0.72482 0.0
C1032 C 0.93499 0.89933 0.74736 0.0
H1033 H 0.89793 0.84127 0.95719 0.0
H1034 H 0.89468 0.8672 0.89378 0.0
H1035 H 0.91106 0.85915 0.71853 0.0
H1036 H 0.99157 0.90281 0.6582 0.0
H1037 H 0.96144 0.88824 0.67396 0.0
C1038 C 0.69813 0.92074 0.8451 0.0
C1039 C 0.69045 0.91933 0.89713 0.0
C1040 C 0.68641 0.92213 0.80003 0.0
C1041 C 0.63601 0.92371 0.75666 0.0
H1042 H 0.65197 0.97017 0.69059 0.0
C1043 C 0.58701 0.98454 0.71545 0.0
C1044 C 0.59221 0.99865 0.67914 0.0
C1045 C 0.59783 0.96832 0.72041 0.0
C1046 C 0.6473 0.95691 0.70692 0.0
H1047 H 0.66471 0.91557 0.94196 0.0
H1048 H 0.64431 0.91858 0.86401 0.0
H1049 H 0.6743 0.95165 0.73995 0.0
H1050 H 0.61136 0.00596 0.61491 0.0
H1051 H 0.6301 0.97742 0.62263 0.0
H1052 H 0.60859 0.92979 0.72611 0.0
C1053 C 0.6593 0.91857 0.85751 0.0
C1054 C 0.66023 0.94619 0.7355 0.0
C1055 C 0.671 0.91707 0.90246 0.0
C1056 C 0.6073 0.99543 0.64405 0.0
C1057 C 0.61801 0.9791 0.64853 0.0
C1058 C 0.62302 0.93445 0.7278 0.0
C1059 C 0.66683 0.92226 0.80623 0.0
C1060 C 0.65454 0.93001 0.76322 0.0
C1061 C 0.61403 0.96585 0.68887 0.0
C1062 C 0.62831 0.95172 0.70516 0.0
H1063 H 0.71307 0.92244 0.83951 0.0
H1064 H 0.69267 0.92455 0.76089 0.0
H1065 H 0.63126 0.91109 0.77662 0.0
H1066 H 0.57551 0.9867 0.74322 0.0
H1067 H 0.59433 0.95858 0.75223 0.0
C1068 C 0.59404 0.68834 0.88144 0.0
C1069 C 0.58323 0.70485 0.87928 0.0
C1070 C 0.59157 0.67406 0.84323 0.0
C1071 C 0.55339 0.65795 0.75335 0.0
H1072 H 0.58611 0.61489 0.73751 0.0
C1073 C 0.5215 0.58879 0.69387 0.0
C1074 C 0.52423 0.57589 0.73591 0.0
C1075 C 0.53366 0.60397 0.68782 0.0
C1076 C 0.57691 0.62693 0.74082 0.0
H1077 H 0.56311 0.72001 0.82961 0.0
H1078 H 0.56034 0.69617 0.76115 0.0
H1079 H 0.59897 0.64474 0.76929 0.0
H1080 H 0.54317 0.56721 0.79946 0.0
H1081 H 0.56419 0.5939 0.7897 0.0
H1082 H 0.5313 0.64012 0.72644 0.0
C1083 C 0.56978 0.69363 0.79454 0.0
C1084 C 0.58421 0.64401 0.75953 0.0
C1085 C 0.57171 0.70761 0.83375 0.0
C1086 C 0.54049 0.57724 0.76766 0.0
C1087 C 0.55267 0.59239 0.76151 0.0
C1088 C 0.54623 0.64107 0.73382 0.0
C1089 C 0.57866 0.67615 0.80066 0.0
C1090 C 0.57234 0.65951 0.76859 0.0
C1091 C 0.54875 0.60648 0.72363 0.0
C1092 C 0.5577 0.62514 0.72972 0.0
H1093 H 0.60376 0.6859 0.9142 0.0
H1094 H 0.59888 0.66096 0.84954 0.0
H1095 H 0.54357 0.66926 0.76034 0.0
H1096 H 0.50917 0.58803 0.66843 0.0
H1097 H 0.53047 0.61449 0.65773 0.0
C1098 C 0.83912 0.59931 0.91495 0.0
C1099 C 0.82095 0.59456 0.89814 0.0
C1100 C 0.85348 0.60125 0.87733 0.0
C1101 C 0.86533 0.57839 0.75195 0.0
H1102 H 0.91286 0.6029 0.77932 0.0
C1103 C 0.93087 0.53903 0.69949 0.0
C1104 C 0.94183 0.53689 0.74616 0.0
C1105 C 0.91835 0.55404 0.69517 0.0
C1106 C 0.89966 0.59605 0.77054 0.0
H1107 H 0.80302 0.59015 0.82873 0.0
H1108 H 0.82817 0.59364 0.7625 0.0
H1109 H 0.8841 0.61638 0.81599 0.0
H1110 H 0.95047 0.55018 0.82087 0.0
H1111 H 0.92838 0.57594 0.81449 0.0
H1112 H 0.88079 0.55727 0.71049 0.0
C1113 C 0.83137 0.59565 0.80487 0.0
C1114 C 0.88318 0.60379 0.7915 0.0
C1115 C 0.81694 0.59377 0.84269 0.0
C1116 C 0.94178 0.55124 0.78514 0.0
C1117 C 0.92924 0.56619 0.78099 0.0
C1118 C 0.88176 0.57065 0.73114 0.0
C1119 C 0.84999 0.59839 0.82201 0.0
C1120 C 0.86599 0.59436 0.78535 0.0
C1121 C 0.91651 0.56709 0.73765 0.0
C1122 C 0.89926 0.57871 0.74317 0.0
H1123 H 0.8425 0.60017 0.95753 0.0
H1124 H 0.8676 0.60325 0.89225 0.0
H1125 H 0.85241 0.57065 0.74642 0.0
H1126 H 0.93073 0.52828 0.66857 0.0
H1127 H 0.90908 0.55458 0.66058 0.0
C1128 C 0.03551 0.19226 0.82827 0.0
C1129 C 0.02467 0.19681 0.87403 0.0
C1130 C 0.03263 0.17546 0.79969 0.0
C1131 C 0.01061 0.12802 0.81525 0.0
H1132 H 0.02008 0.12396 0.6616 0.0
C1133 C 0.98886 0.063 0.69031 0.0
C1134 C 1.00262 0.05481 0.65734 0.0
C1135 C 0.99182 0.08052 0.71456 0.0
C1136 C 0.01756 0.12484 0.70461 0.0
H1137 H 1.00172 0.18705 0.92383 0.0
H1138 H 0.99609 0.15844 0.87274 0.0
H1139 H 0.02382 0.15423 0.70709 0.0
H1140 H 0.02957 0.05932 0.61973 0.0
H1141 H 0.03482 0.09015 0.6623 0.0
H1142 H 0.00389 0.09871 0.8122 0.0
C1143 C 0.0073 0.16759 0.85981 0.0
C1144 C 0.01973 0.14222 0.73091 0.0
C1145 C 0.01031 0.1843 0.88874 0.0
C1146 C 0.019 0.06504 0.64641 0.0
C1147 C 0.02188 0.08277 0.67021 0.0
C1148 C 0.00823 0.11075 0.78883 0.0
C1149 C 0.01866 0.16267 0.81541 0.0
C1150 C 0.01624 0.14414 0.78674 0.0
C1151 C 0.00842 0.09057 0.70529 0.0
C1152 C 0.01162 0.10893 0.73319 0.0
H1153 H 0.04649 0.20158 0.81473 0.0
H1154 H 0.0418 0.17231 0.76611 0.0
H1155 H 0.00824 0.12861 0.85835 0.0
H1156 H 0.9759 0.05563 0.69829 0.0
H1157 H 0.98105 0.08624 0.74057 0.0
C1158 C 0.32779 0.03913 0.81349 0.0
C1159 C 0.3239 0.03004 0.86268 0.0
C1160 C 0.3441 0.03502 0.78433 0.0
C1161 C 0.38062 0.99934 0.76288 0.0
H1162 H 0.41177 0.04115 0.7194 0.0
C1163 C 0.4557 0.98776 0.68204 0.0
C1164 C 0.46301 1.00035 0.64425 0.0
C1165 C 0.4384 0.99121 0.70666 0.0
C1166 C 0.40315 0.02927 0.73026 0.0
H1167 H 0.33432 0.009 0.91835 0.0
H1168 H 0.36225 1.00139 0.86634 0.0
H1169 H 0.382 0.04709 0.76442 0.0
H1170 H 0.45715 0.02544 0.59832 0.0
H1171 H 0.42678 0.03136 0.64013 0.0
H1172 H 0.40139 0.98147 0.72781 0.0
C1173 C 0.35265 0.01182 0.85074 0.0
C1174 C 0.38607 0.03271 0.75635 0.0
C1175 C 0.33649 0.01612 0.8804 0.0
C1176 C 0.45223 0.01596 0.62917 0.0
C1177 C 0.43476 0.01929 0.65317 0.0
C1178 C 0.39755 0.99589 0.73606 0.0
C1179 C 0.35684 0.02147 0.8029 0.0
C1180 C 0.37467 0.01779 0.77336 0.0
C1181 C 0.42764 0.00706 0.69277 0.0
C1182 C 0.40919 0.01079 0.71972 0.0
H1183 H 0.31832 0.0496 0.79757 0.0
H1184 H 0.34676 0.04249 0.74715 0.0
H1185 H 0.37206 0.98755 0.77493 0.0
H1186 H 0.4636 0.97541 0.69347 0.0
H1187 H 0.43366 0.98155 0.73731 0.0
C1188 C 0.4946 0.32331 0.85309 0.0
C1189 C 0.47892 0.31188 0.84221 0.0
C1190 C 0.499 0.33849 0.81963 0.0
C1191 C 0.47618 0.37219 0.73034 0.0
H1192 H 0.52649 0.38515 0.68545 0.0
C1193 C 0.48927 0.4384 0.60326 0.0
C1194 C 0.50546 0.44894 0.6142 0.0
C1195 C 0.487 0.42043 0.62479 0.0
C1196 C 0.51236 0.38191 0.69813 0.0
H1197 H 0.4564 0.30697 0.78491 0.0
H1198 H 0.46382 0.33369 0.72768 0.0
H1199 H 0.52105 0.3561 0.73498 0.0
H1200 H 0.53215 0.44868 0.65574 0.0
H1201 H 0.52805 0.41768 0.69478 0.0
H1202 H 0.46745 0.39819 0.69606 0.0
C1203 C 0.47257 0.33095 0.76251 0.0
C1204 C 0.50926 0.36517 0.72633 0.0
C1205 C 0.4683 0.31564 0.79551 0.0
C1206 C 0.51961 0.44086 0.64592 0.0
C1207 C 0.51723 0.42299 0.66829 0.0
C1208 C 0.47929 0.38902 0.70291 0.0
C1209 C 0.48775 0.34277 0.77475 0.0
C1210 C 0.49113 0.36013 0.74282 0.0
C1211 C 0.50073 0.41261 0.65886 0.0
C1212 C 0.49744 0.3942 0.6864 0.0
H1213 H 0.50299 0.32114 0.88893 0.0
H1214 H 0.51072 0.3474 0.83038 0.0
H1215 H 0.46208 0.36888 0.74326 0.0
H1216 H 0.47813 0.44418 0.57864 0.0
H1217 H 0.47432 0.41281 0.61517 0.0
C1218 C 0.19124 0.50063 0.87535 0.0
C1219 C 0.20317 0.48571 0.86081 0.0
C1220 C 0.175 0.50447 0.84548 0.0
C1221 C 0.15029 0.49328 0.71512 0.0
H1222 H 0.10646 0.50894 0.79572 0.0
C1223 C 0.07454 0.49191 0.62725 0.0
C1224 C 0.06323 0.50763 0.63803 0.0
C1225 C 0.09213 0.49001 0.65193 0.0
C1226 C 0.11861 0.50473 0.77249 0.0
H1227 H 0.20761 0.46384 0.80096 0.0
H1228 H 0.17909 0.46998 0.7506 0.0
H1229 H 0.13611 0.50451 0.84253 0.0
H1230 H 0.06132 0.53339 0.68432 0.0
H1231 H 0.09197 0.53017 0.72706 0.0
H1232 H 0.13242 0.49297 0.64533 0.0
C1233 C 0.18233 0.47894 0.78472 0.0
C1234 C 0.13571 0.50228 0.79932 0.0
C1235 C 0.19867 0.47523 0.81424 0.0
C1236 C 0.06988 0.52138 0.67405 0.0
C1237 C 0.08734 0.51938 0.69919 0.0
C1238 C 0.1331 0.49552 0.68841 0.0
C1239 C 0.17004 0.49342 0.80037 0.0
C1240 C 0.15187 0.49652 0.77112 0.0
C1241 C 0.09868 0.50365 0.6886 0.0
C1242 C 0.11704 0.5013 0.71675 0.0
H1243 H 0.19401 0.50897 0.91109 0.0
H1244 H 0.1662 0.51602 0.85833 0.0
H1245 H 0.16237 0.48915 0.69159 0.0
H1246 H 0.06972 0.481 0.59999 0.0
H1247 H 0.10041 0.47762 0.64333 0.0
C1248 C 0.97744 0.83685 0.3179 0.0
C1249 C 0.99267 0.8282 0.29153 0.0
C1250 C 0.97998 0.85296 0.34987 0.0
C1251 C 0.01705 0.88153 0.41942 0.0
H1252 H 0.97878 0.92016 0.41981 0.0
C1253 C 0.03066 0.95589 0.50499 0.0
C1254 C 0.01669 0.96419 0.53698 0.0
C1255 C 0.02716 0.93925 0.47649 0.0
C1256 C 0.98952 0.90943 0.42056 0.0
H1257 H 0.02272 0.82988 0.27984 0.0
H1258 H 0.02705 0.85813 0.33365 0.0
H1259 H 0.97396 0.89143 0.36754 0.0
H1260 H 0.98846 0.96083 0.56714 0.0
H1261 H 0.98212 0.93189 0.51629 0.0
H1262 H 0.03276 0.89978 0.47145 0.0
C1263 C 0.01309 0.85231 0.33046 0.0
C1264 C 0.98676 0.89286 0.39065 0.0
C1265 C 0.01056 0.83613 0.29879 0.0
C1266 C 0.99925 0.95518 0.54113 0.0
C1267 C 0.99568 0.93853 0.51226 0.0
C1268 C 0.01987 0.89814 0.44883 0.0
C1269 C 0.99783 0.86107 0.35636 0.0
C1270 C 1.00052 0.87865 0.38936 0.0
C1271 C 0.00964 0.93031 0.47968 0.0
C1272 C 0.00621 0.91237 0.44962 0.0
H1273 H 0.96337 0.83147 0.3129 0.0
H1274 H 0.96788 0.85902 0.36958 0.0
H1275 H 0.02783 0.87087 0.42073 0.0
H1276 H 0.04435 0.96234 0.50191 0.0
H1277 H 0.0382 0.93343 0.45161 0.0
C1278 C 0.68667 0.00521 0.32662 0.0
C1279 C 0.69271 0.98669 0.3166 0.0
C1280 C 0.6706 0.00877 0.35742 0.0
C1281 C 0.63853 0.98928 0.45915 0.0
H1282 H 0.60179 0.02205 0.39337 0.0
C1283 C 0.56351 0.99962 0.54802 0.0
C1284 C 0.55438 0.01673 0.53821 0.0
C1285 C 0.58106 0.99586 0.52482 0.0
C1286 C 0.61198 0.01318 0.4132 0.0
H1287 H 0.68642 0.95744 0.33326 0.0
H1288 H 0.65893 0.9638 0.38849 0.0
H1289 H 0.63129 0.01612 0.3477 0.0
H1290 H 0.55732 0.04411 0.50201 0.0
H1291 H 0.58802 0.03803 0.46353 0.0
H1292 H 0.61942 0.98657 0.52516 0.0
C1293 C 0.66667 0.97552 0.37206 0.0
C1294 C 0.62891 0.0097 0.38664 0.0
C1295 C 0.68257 0.97191 0.34051 0.0
C1296 C 0.56377 0.03055 0.50867 0.0
C1297 C 0.58135 0.02695 0.48615 0.0
C1298 C 0.62167 0.993 0.48628 0.0
C1299 C 0.66027 0.99397 0.37994 0.0
C1300 C 0.64241 0.99775 0.40923 0.0
C1301 C 0.59007 0.00935 0.49239 0.0
C1302 C 0.60813 0.00511 0.46385 0.0
H1303 H 0.69422 0.01703 0.31022 0.0
H1304 H 0.66618 0.02317 0.36343 0.0
H1305 H 0.64868 0.98002 0.47766 0.0
H1306 H 0.55689 0.98897 0.5725 0.0
H1307 H 0.5872 0.98216 0.53099 0.0
C1308 C 0.5115 0.69058 0.32528 0.0
C1309 C 0.52867 0.7002 0.32218 0.0
C1310 C 0.50931 0.67528 0.36001 0.0
C1311 C 0.53724 0.63886 0.42941 0.0
H1312 H 0.49033 0.62794 0.50119 0.0
C1313 C 0.5285 0.57224 0.55884 0.0
C1314 C 0.51195 0.56193 0.55032 0.0
C1315 C 0.53034 0.59048 0.53881 0.0
C1316 C 0.5035 0.63072 0.48118 0.0
H1317 H 0.55686 0.70144 0.35475 0.0
H1318 H 0.55292 0.67506 0.41603 0.0
H1319 H 0.49392 0.65732 0.45198 0.0
H1320 H 0.48401 0.56325 0.51648 0.0
H1321 H 0.48716 0.59491 0.48144 0.0
H1322 H 0.54672 0.61216 0.45764 0.0
C1323 C 0.5412 0.67919 0.39097 0.0
C1324 C 0.50556 0.64759 0.4529 0.0
C1325 C 0.54338 0.69451 0.35628 0.0
C1326 C 0.49693 0.57071 0.52389 0.0
C1327 C 0.49875 0.58896 0.50381 0.0
C1328 C 0.53518 0.62202 0.45766 0.0
C1329 C 0.52424 0.66914 0.39264 0.0
C1330 C 0.52239 0.6518 0.42606 0.0
C1331 C 0.51563 0.59895 0.50988 0.0
C1332 C 0.51821 0.61759 0.48342 0.0
H1333 H 0.4998 0.69467 0.30011 0.0
H1334 H 0.49609 0.66786 0.35979 0.0
H1335 H 0.55031 0.64143 0.4086 0.0
H1336 H 0.54024 0.56605 0.58007 0.0
H1337 H 0.5434 0.59787 0.54539 0.0
C1338 C 0.81482 0.523 0.34965 0.0
C1339 C 0.81592 0.52161 0.29313 0.0
C1340 C 0.83084 0.52053 0.38183 0.0
C1341 C 0.88061 0.50315 0.37481 0.0
H1342 H 0.88686 0.53278 0.50519 0.0
C1343 C 0.95242 0.51802 0.47225 0.0
C1344 C 0.95437 0.51414 0.52743 0.0
C1345 C 0.93482 0.51763 0.44756 0.0
C1346 C 0.8852 0.52428 0.46915 0.0
H1347 H 0.83486 0.51709 0.22614 0.0
H1348 H 0.86267 0.51345 0.28132 0.0
H1349 H 0.85752 0.53467 0.45444 0.0
H1350 H 0.9396 0.50605 0.59978 0.0
H1351 H 0.90839 0.50618 0.55694 0.0
H1352 H 0.9087 0.49358 0.38829 0.0
C1353 C 0.84943 0.51565 0.30153 0.0
C1354 C 0.86834 0.52527 0.44003 0.0
C1355 C 0.83342 0.51782 0.26961 0.0
C1356 C 0.93836 0.50954 0.55746 0.0
C1357 C 0.92058 0.50959 0.53297 0.0
C1358 C 0.89752 0.50246 0.4033 0.0
C1359 C 0.84846 0.51692 0.35823 0.0
C1360 C 0.86587 0.51492 0.39187 0.0
C1361 C 0.91868 0.51353 0.47762 0.0
C1362 C 0.9001 0.51317 0.45038 0.0
H1363 H 0.80153 0.52588 0.36899 0.0
H1364 H 0.82936 0.52137 0.42523 0.0
H1365 H 0.8792 0.49449 0.33905 0.0
H1366 H 0.96459 0.52083 0.44772 0.0
H1367 H 0.9338 0.52064 0.40484 0.0
loop_
_geom_bond_atom_site_label_1
_geom_bond_atom_site_label_2
_geom_bond_distance
_geom_bond_site_symmetry_2
_ccdc_geom_bond_type
C0 C1 1.386 . S
C0 C2 1.397 1_556 S
C0 H24 0.931 . S
C1 C0 1.386 . S
C1 C5 1.397 1_556 S
C2 C0 1.397 1_554 S
C2 C3 1.384 . S
C2 H25 0.930 . S
C3 C2 1.384 . S
C3 C4 1.377 . S
C3 C6 1.481 . S
C4 C3 1.377 . S
C4 C5 1.389 . S
C4 H26 0.929 . S
C5 C1 1.397 1_554 S
C5 C4 1.389 . S
C5 H27 0.931 . S
C6 C3 1.481 . S
C6 C7 1.387 . S
C6 C11 1.390 . S
C7 C6 1.387 . S
C7 C8 1.401 . S
C7 H28 0.930 . S
C8 C7 1.401 . S
C8 C9 1.376 . S
C8 C17 1.511 . S
C9 C8 1.376 . S
C9 C10 1.392 . S
C9 H30 0.931 . S
C10 C9 1.392 . S
C10 C11 1.361 . S
C10 C12 1.500 . S
C11 C6 1.390 . S
C11 C10 1.361 . S
C11 H29 0.931 . S
C12 C10 1.500 . S
C12 C13 1.371 . S
C12 C14 1.365 . S
C13 C12 1.371 . S
C13 C23 1.386 . S
C13 H31 0.931 . S
C14 C12 1.365 . S
C14 C15 1.409 . S
C14 H32 0.929 . S
C15 C14 1.409 . S
C15 C16 1.380 . S
C15 H33 0.930 . S
C16 C15 1.380 . S
C16 C23 1.357 . S
C17 C8 1.511 . S
C17 C18 1.341 . S
C17 C19 1.371 . S
C18 C17 1.341 . S
C18 C22 1.394 . S
C18 H34 0.930 . S
C19 C17 1.371 . S
C19 C20 1.392 . S
C19 H35 0.931 . S
C20 C19 1.392 . S
C20 C21 1.331 . S
C20 H38 0.932 . S
C21 C20 1.331 . S
C21 C22 1.336 . S
C22 C18 1.394 . S
C22 C21 1.336 . S
C22 H37 0.929 . S
C23 C13 1.386 . S
C23 C16 1.357 . S
C23 H36 0.928 . S
H24 C0 0.931 . S
H25 C2 0.930 . S
H26 C4 0.929 . S
H27 C5 0.931 . S
H28 C7 0.930 . S
H29 C11 0.931 . S
H30 C9 0.931 . S
H31 C13 0.931 . S
H32 C14 0.929 . S
H33 C15 0.930 . S
H34 C18 0.930 . S
H35 C19 0.931 . S
H36 C23 0.928 . S
H37 C22 0.929 . S
H38 C20 0.932 . S
C39 C40 1.386 . S
C39 C41 1.397 1_556 S
C39 H63 0.931 . S
C40 C39 1.386 . S
C40 C44 1.397 1_556 S
C41 C39 1.397 1_554 S
C41 C42 1.384 . S
C41 H64 0.930 . S
C42 C41 1.384 . S
C42 C43 1.377 . S
C42 C45 1.481 . S
C43 C42 1.377 . S
C43 C44 1.389 . S
C43 H65 0.929 . S
C44 C40 1.397 1_554 S
C44 C43 1.389 . S
C44 H66 0.931 . S
C45 C42 1.481 . S
C45 C46 1.387 . S
C45 C50 1.390 . S
C46 C45 1.387 . S
C46 C47 1.401 . S
C46 H67 0.930 . S
C47 C46 1.401 . S
C47 C48 1.376 . S
C47 C56 1.511 . S
C48 C47 1.376 . S
C48 C49 1.392 . S
C48 H69 0.931 . S
C49 C48 1.392 . S
C49 C50 1.361 . S
C49 C51 1.500 . S
C50 C45 1.390 . S
C50 C49 1.361 . S
C50 H68 0.931 . S
C51 C49 1.500 . S
C51 C52 1.371 . S
C51 C53 1.365 . S
C52 C51 1.371 . S
C52 C62 1.386 . S
C52 H70 0.931 . S
C53 C51 1.365 . S
C53 C54 1.409 . S
C53 H71 0.929 . S
C54 C53 1.409 . S
C54 C55 1.380 . S
C54 H72 0.930 . S
C55 C54 1.380 . S
C55 C62 1.357 . S
C56 C47 1.511 . S
C56 C57 1.341 . S
C56 C58 1.371 . S
C57 C56 1.341 . S
C57 C61 1.394 . S
C57 H73 0.930 . S
C58 C56 1.371 . S
C58 C59 1.392 . S
C58 H74 0.931 . S
C59 C58 1.392 . S
C59 C60 1.331 . S
C59 H77 0.932 . S
C60 C59 1.331 . S
C60 C61 1.336 . S
C61 C57 1.394 . S
C61 C60 1.336 . S
C61 H76 0.929 . S
C62 C52 1.386 . S
C62 C55 1.357 . S
C62 H75 0.928 . S
H63 C39 0.931 . S
H64 C41 0.930 . S
H65 C43 0.929 . S
H66 C44 0.931 . S
H67 C46 0.930 . S
H68 C50 0.931 . S
H69 C48 0.931 . S
H70 C52 0.931 . S
H71 C53 0.929 . S
H72 C54 0.930 . S
H73 C57 0.930 . S
H74 C58 0.931 . S
H75 C62 0.928 . S
H76 C61 0.929 . S
H77 C59 0.932 . S
C78 C79 1.386 . S
C78 C80 1.397 1_556 S
C78 H102 0.931 . S
C79 C78 1.386 . S
C79 C83 1.397 1_556 S
C80 C78 1.397 1_554 S
C80 C81 1.384 . S
C80 H103 0.930 . S
C81 C80 1.384 . S
C81 C82 1.377 . S
C81 C84 1.481 . S
C82 C81 1.377 . S
C82 C83 1.389 . S
C82 H104 0.929 . S
C83 C79 1.397 1_554 S
C83 C82 1.389 . S
C83 H105 0.931 . S
C84 C81 1.481 . S
C84 C85 1.387 . S
C84 C89 1.390 . S
C85 C84 1.387 . S
C85 C86 1.401 . S
C85 H106 0.930 . S
C86 C85 1.401 . S
C86 C87 1.376 . S
C86 C95 1.511 . S
C87 C86 1.376 . S
C87 C88 1.392 . S
C87 H108 0.931 . S
C88 C87 1.392 . S
C88 C89 1.361 . S
C88 C90 1.500 . S
C89 C84 1.390 . S
C89 C88 1.361 . S
C89 H107 0.931 . S
C90 C88 1.500 . S
C90 C91 1.371 . S
C90 C92 1.365 . S
C91 C90 1.371 . S
C91 C101 1.386 . S
C91 H109 0.931 . S
C92 C90 1.365 . S
C92 C93 1.409 . S
C92 H110 0.929 . S
C93 C92 1.409 . S
C93 C94 1.380 . S
C93 H111 0.930 . S
C94 C93 1.380 . S
C94 C101 1.357 . S
C95 C86 1.511 . S
C95 C96 1.341 . S
C95 C97 1.371 . S
C96 C95 1.341 . S
C96 C100 1.394 . S
C96 H112 0.930 . S
C97 C95 1.371 . S
C97 C98 1.392 . S
C97 H113 0.931 . S
C98 C97 1.392 . S
C98 C99 1.331 . S
C98 H116 0.932 . S
C99 C98 1.331 . S
C99 C100 1.336 . S
C100 C96 1.394 . S
C100 C99 1.336 . S
C100 H115 0.929 . S
C101 C91 1.386 . S
C101 C94 1.357 . S
C101 H114 0.928 . S
H102 C78 0.931 . S
H103 C80 0.930 . S
H104 C82 0.929 . S
H105 C83 0.931 . S
H106 C85 0.930 . S
H107 C89 0.931 . S
H108 C87 0.931 . S
H109 C91 0.931 . S
H110 C92 0.929 . S
H111 C93 0.930 . S
H112 C96 0.930 . S
H113 C97 0.931 . S
H114 C101 0.928 . S
H115 C100 0.929 . S
H116 C98 0.932 . S
C117 C118 1.386 . S
C117 C119 1.397 . S
C117 H141 0.931 . S
C118 C117 1.386 . S
C118 C122 1.397 . S
C119 C117 1.397 . S
C119 C120 1.384 . S
C119 H142 0.930 . S
C120 C119 1.384 . S
C120 C121 1.377 . S
C120 C123 1.481 . S
C121 C120 1.377 . S
C121 C122 1.389 . S
C121 H143 0.929 . S
C122 C118 1.397 . S
C122 C121 1.389 . S
C122 H144 0.931 . S
C123 C120 1.481 . S
C123 C124 1.387 . S
C123 C128 1.390 . S
C124 C123 1.387 . S
C124 C125 1.401 . S
C124 H145 0.930 . S
C125 C124 1.401 . S
C125 C126 1.376 . S
C125 C134 1.511 . S
C126 C125 1.376 . S
C126 C127 1.392 . S
C126 H147 0.931 . S
C127 C126 1.392 . S
C127 C128 1.361 . S
C127 C129 1.500 . S
C128 C123 1.390 . S
C128 C127 1.361 . S
C128 H146 0.931 . S
C129 C127 1.500 . S
C129 C130 1.371 . S
C129 C131 1.365 . S
C130 C129 1.371 . S
C130 C140 1.386 1_554 S
C130 H148 0.931 . S
C131 C129 1.365 . S
C131 C132 1.409 . S
C131 H149 0.929 . S
C132 C131 1.409 . S
C132 C133 1.380 1_554 S
C132 H150 0.930 . S
C133 C132 1.380 1_556 S
C133 C140 1.357 . S
C134 C125 1.511 . S
C134 C135 1.341 . S
C134 C136 1.371 . S
C135 C134 1.341 . S
C135 C139 1.394 . S
C135 H151 0.930 . S
C136 C134 1.371 . S
C136 C137 1.392 . S
C136 H152 0.931 . S
C137 C136 1.392 . S
C137 C138 1.331 . S
C137 H155 0.932 . S
C138 C137 1.331 . S
C138 C139 1.336 . S
C139 C135 1.394 . S
C139 C138 1.336 . S
C139 H154 0.929 . S
C140 C130 1.386 1_556 S
C140 C133 1.357 . S
C140 H153 0.928 . S
H141 C117 0.931 . S
H142 C119 0.930 . S
H143 C121 0.929 . S
H144 C122 0.931 . S
H145 C124 0.930 . S
H146 C128 0.931 . S
H147 C126 0.931 . S
H148 C130 0.931 . S
H149 C131 0.929 . S
H150 C132 0.930 . S
H151 C135 0.930 . S
H152 C136 0.931 . S
H153 C140 0.928 . S
H154 C139 0.929 . S
H155 C137 0.932 . S
C156 C157 1.386 . S
C156 C158 1.397 . S
C156 H180 0.931 . S
C157 C156 1.386 . S
C157 C161 1.397 . S
C158 C156 1.397 . S
C158 C159 1.384 . S
C158 H181 0.930 . S
C159 C158 1.384 . S
C159 C160 1.377 . S
C159 C162 1.481 . S
C160 C159 1.377 . S
C160 C161 1.389 . S
C160 H182 0.929 . S
C161 C157 1.397 . S
C161 C160 1.389 . S
C161 H183 0.931 . S
C162 C159 1.481 . S
C162 C163 1.387 . S
C162 C167 1.390 . S
C163 C162 1.387 . S
C163 C164 1.401 . S
C163 H184 0.930 . S
C164 C163 1.401 . S
C164 C165 1.376 1_554 S
C164 C173 1.511 . S
C165 C164 1.376 1_556 S
C165 C166 1.392 . S
C165 H186 0.931 . S
C166 C165 1.392 . S
C166 C167 1.361 1_556 S
C166 C168 1.500 . S
C167 C162 1.390 . S
C167 C166 1.361 1_554 S
C167 H185 0.931 1_554 S
C168 C166 1.500 . S
C168 C169 1.371 . S
C168 C170 1.365 . S
C169 C168 1.371 . S
C169 C179 1.386 . S
C169 H187 0.931 . S
C170 C168 1.365 . S
C170 C171 1.409 . S
C170 H188 0.929 . S
C171 C170 1.409 . S
C171 C172 1.380 . S
C171 H189 0.930 . S
C172 C171 1.380 . S
C172 C179 1.357 . S
C173 C164 1.511 . S
C173 C174 1.341 . S
C173 C175 1.371 . S
C174 C173 1.341 . S
C174 C178 1.394 . S
C174 H190 0.930 . S
C175 C173 1.371 . S
C175 C176 1.392 . S
C175 H191 0.931 1_554 S
C176 C175 1.392 . S
C176 C177 1.331 . S
C176 H194 0.932 1_554 S
C177 C176 1.331 . S
C177 C178 1.336 . S
C178 C174 1.394 . S
C178 C177 1.336 . S
C178 H193 0.929 . S
C179 C169 1.386 . S
C179 C172 1.357 . S
C179 H192 0.928 . S
H180 C156 0.931 . S
H181 C158 0.930 . S
H182 C160 0.929 . S
H183 C161 0.931 . S
H184 C163 0.930 . S
H185 C167 0.931 1_556 S
H186 C165 0.931 . S
H187 C169 0.931 . S
H188 C170 0.929 . S
H189 C171 0.930 . S
H190 C174 0.930 . S
H191 C175 0.931 1_556 S
H192 C179 0.928 . S
H193 C178 0.929 . S
H194 C176 0.932 1_556 S
C195 C196 1.386 . S
C195 C197 1.397 . S
C195 H219 0.931 . S
C196 C195 1.386 . S
C196 C200 1.397 . S
C197 C195 1.397 . S
C197 C198 1.384 . S
C197 H220 0.930 . S
C198 C197 1.384 . S
C198 C199 1.377 . S
C198 C201 1.481 . S
C199 C198 1.377 . S
C199 C200 1.389 . S
C199 H221 0.929 . S
C200 C196 1.397 . S
C200 C199 1.389 . S
C200 H222 0.931 . S
C201 C198 1.481 . S
C201 C202 1.387 . S
C201 C206 1.390 1_554 S
C202 C201 1.387 . S
C202 C203 1.401 . S
C202 H223 0.930 . S
C203 C202 1.401 . S
C203 C204 1.376 1_554 S
C203 C212 1.511 . S
C204 C203 1.376 1_556 S
C204 C205 1.392 . S
C204 H225 0.931 . S
C205 C204 1.392 . S
C205 C206 1.361 . S
C205 C207 1.500 . S
C206 C201 1.390 1_556 S
C206 C205 1.361 . S
C206 H224 0.931 . S
C207 C205 1.500 . S
C207 C208 1.371 . S
C207 C209 1.365 . S
C208 C207 1.371 . S
C208 C218 1.386 . S
C208 H226 0.931 . S
C209 C207 1.365 . S
C209 C210 1.409 . S
C209 H227 0.929 . S
C210 C209 1.409 . S
C210 C211 1.380 . S
C210 H228 0.930 . S
C211 C210 1.380 . S
C211 C218 1.357 . S
C212 C203 1.511 . S
C212 C213 1.341 . S
C212 C214 1.371 1_554 S
C213 C212 1.341 . S
C213 C217 1.394 . S
C213 H229 0.930 . S
C214 C212 1.371 1_556 S
C214 C215 1.392 1_556 S
C214 H230 0.931 . S
C215 C214 1.392 1_554 S
C215 C216 1.331 . S
C215 H233 0.932 1_554 S
C216 C215 1.331 . S
C216 C217 1.336 . S
C217 C213 1.394 . S
C217 C216 1.336 . S
C217 H232 0.929 . S
C218 C208 1.386 . S
C218 C211 1.357 . S
C218 H231 0.928 . S
H219 C195 0.931 . S
H220 C197 0.930 . S
H221 C199 0.929 . S
H222 C200 0.931 . S
H223 C202 0.930 . S
H224 C206 0.931 . S
H225 C204 0.931 . S
H226 C208 0.931 . S
H227 C209 0.929 . S
H228 C210 0.930 . S
H229 C213 0.930 . S
H230 C214 0.931 . S
H231 C218 0.928 . S
H232 C217 0.929 . S
H233 C215 0.932 1_556 S
C234 C235 1.386 . S
C234 C236 1.397 . S
C234 H258 0.931 . S
C235 C234 1.386 . S
C235 C239 1.397 . S
C236 C234 1.397 . S
C236 C237 1.384 . S
C236 H259 0.930 . S
C237 C236 1.384 . S
C237 C238 1.377 . S
C237 C240 1.481 . S
C238 C237 1.377 . S
C238 C239 1.389 . S
C238 H260 0.929 . S
C239 C235 1.397 . S
C239 C238 1.389 . S
C239 H261 0.931 . S
C240 C237 1.481 . S
C240 C241 1.387 . S
C240 C245 1.390 1_554 S
C241 C240 1.387 . S
C241 C242 1.401 . S
C241 H262 0.930 . S
C242 C241 1.401 . S
C242 C243 1.376 1_554 S
C242 C251 1.511 . S
C243 C242 1.376 1_556 S
C243 C244 1.392 . S
C243 H264 0.931 . S
C244 C243 1.392 . S
C244 C245 1.361 . S
C244 C246 1.500 . S
C245 C240 1.390 1_556 S
C245 C244 1.361 . S
C245 H263 0.931 . S
C246 C244 1.500 . S
C246 C247 1.371 . S
C246 C248 1.365 . S
C247 C246 1.371 . S
C247 C257 1.386 . S
C247 H265 0.931 . S
C248 C246 1.365 . S
C248 C249 1.409 . S
C248 H266 0.929 . S
C249 C248 1.409 . S
C249 C250 1.380 . S
C249 H267 0.930 . S
C250 C249 1.380 . S
C250 C257 1.357 . S
C251 C242 1.511 . S
C251 C252 1.341 . S
C251 C253 1.371 1_554 S
C252 C251 1.341 . S
C252 C256 1.394 . S
C252 H268 0.930 . S
C253 C251 1.371 1_556 S
C253 C254 1.392 1_556 S
C253 H269 0.931 . S
C254 C253 1.392 1_554 S
C254 C255 1.331 . S
C254 H272 0.932 1_554 S
C255 C254 1.331 . S
C255 C256 1.336 . S
C256 C252 1.394 . S
C256 C255 1.336 . S
C256 H271 0.929 . S
C257 C247 1.386 . S
C257 C250 1.357 . S
C257 H270 0.928 . S
H258 C234 0.931 . S
H259 C236 0.930 . S
H260 C238 0.929 . S
H261 C239 0.931 . S
H262 C241 0.930 . S
H263 C245 0.931 . S
H264 C243 0.931 . S
H265 C247 0.931 . S
H266 C248 0.929 . S
H267 C249 0.930 . S
H268 C252 0.930 . S
H269 C253 0.931 . S
H270 C257 0.928 . S
H271 C256 0.929 . S
H272 C254 0.932 1_556 S
C273 C274 1.386 . S
C273 C275 1.397 . S
C273 H297 0.931 . S
C274 C273 1.386 . S
C274 C278 1.397 . S
C275 C273 1.397 . S
C275 C276 1.384 . S
C275 H298 0.930 . S
C276 C275 1.384 . S
C276 C277 1.377 . S
C276 C279 1.481 . S
C277 C276 1.377 . S
C277 C278 1.389 . S
C277 H299 0.929 . S
C278 C274 1.397 . S
C278 C277 1.389 . S
C278 H300 0.931 . S
C279 C276 1.481 . S
C279 C280 1.387 . S
C279 C284 1.390 1_556 S
C280 C279 1.387 . S
C280 C281 1.401 1_556 S
C280 H301 0.930 . S
C281 C280 1.401 1_554 S
C281 C282 1.376 . S
C281 C290 1.511 . S
C282 C281 1.376 . S
C282 C283 1.392 . S
C282 H303 0.931 . S
C283 C282 1.392 . S
C283 C284 1.361 . S
C283 C285 1.500 . S
C284 C279 1.390 1_554 S
C284 C283 1.361 . S
C284 H302 0.931 1_554 S
C285 C283 1.500 . S
C285 C286 1.371 . S
C285 C287 1.365 . S
C286 C285 1.371 . S
C286 C296 1.386 . S
C286 H304 0.931 . S
C287 C285 1.365 . S
C287 C288 1.409 . S
C287 H305 0.929 . S
C288 C287 1.409 . S
C288 C289 1.380 . S
C288 H306 0.930 . S
C289 C288 1.380 . S
C289 C296 1.357 . S
C290 C281 1.511 . S
C290 C291 1.341 . S
C290 C292 1.371 . S
C291 C290 1.341 . S
C291 C295 1.394 . S
C291 H307 0.930 1_554 S
C292 C290 1.371 . S
C292 C293 1.392 . S
C292 H308 0.931 . S
C293 C292 1.392 . S
C293 C294 1.331 . S
C293 H311 0.932 . S
C294 C293 1.331 . S
C294 C295 1.336 . S
C295 C291 1.394 . S
C295 C294 1.336 . S
C295 H310 0.929 1_554 S
C296 C286 1.386 . S
C296 C289 1.357 . S
C296 H309 0.928 . S
H297 C273 0.931 . S
H298 C275 0.930 . S
H299 C277 0.929 . S
H300 C278 0.931 . S
H301 C280 0.930 . S
H302 C284 0.931 1_556 S
H303 C282 0.931 . S
H304 C286 0.931 . S
H305 C287 0.929 . S
H306 C288 0.930 . S
H307 C291 0.930 1_556 S
H308 C292 0.931 . S
H309 C296 0.928 . S
H310 C295 0.929 1_556 S
H311 C293 0.932 . S
Tb312 N343 2.660 1_565 S
Tb312 N350 2.600 . S
Tb312 O356 2.546 . S
Tb312 O357 2.610 1_455 S
Tb312 O359 2.320 1_455 S
Tb312 O360 2.552 . S
Tb312 O361 2.413 . S
Tb312 O363 2.362 1_565 S
Tb312 O364 2.421 . S
Tb312 C376 2.833 . S
C313 C316 1.420 1_545 S
C313 C317 1.414 . S
C313 N320 1.359 . S
C314 C316 1.434 . S
C314 C318 1.432 . S
C314 C326 1.410 . S
C315 C317 1.444 1_565 S
C315 C318 1.317 . S
C315 H338 0.929 . S
C316 C313 1.420 1_565 S
C316 C314 1.434 . S
C316 N324 1.355 1_565 S
C317 C313 1.414 . S
C317 C315 1.444 1_545 S
C317 C322 1.385 . S
C318 C314 1.432 . S
C318 C315 1.317 . S
C318 H330 0.930 . S
C319 C321 1.392 . S
C319 C322 1.370 . S
C319 H331 0.931 . S
N320 C313 1.359 . S
N320 C321 1.327 . S
N320 Tb323 2.600 . S
C321 C319 1.392 . S
C321 N320 1.327 . S
C321 H328 0.930 . S
C322 C317 1.385 . S
C322 C319 1.370 . S
C322 H341 0.930 . S
Tb323 N320 2.600 . S
Tb323 N324 2.660 . S
Tb323 O357 2.362 1_545 S
Tb323 O358 2.421 . S
Tb323 O362 2.546 . S
Tb323 O363 2.610 1_655 S
Tb323 O365 2.320 1_655 S
Tb323 O366 2.552 1_655 S
Tb323 O367 2.413 . S
Tb323 C387 2.833 . S
N324 C316 1.355 1_545 S
N324 Tb323 2.660 . S
N324 C325 1.305 1_645 S
C325 N324 1.305 1_465 S
C325 C327 1.407 . S
C325 H332 0.930 . S
C326 C314 1.410 . S
C326 C327 1.345 1_655 S
C326 H334 0.930 . S
C327 C325 1.407 . S
C327 C326 1.345 1_455 S
C327 H329 0.930 . S
H328 C321 0.930 . S
H329 C327 0.930 . S
H330 C318 0.930 . S
H331 C319 0.931 . S
H332 C325 0.930 . S
H333 C347 0.930 1_655 S
H334 C326 0.930 . S
H335 C353 0.930 . S
H336 C344 0.930 1_655 S
H337 C351 0.931 . S
H338 C315 0.929 . S
H339 C345 0.930 . S
H340 C378 0.930 . S
H341 C322 0.930 . S
H342 C377 0.929 . S
N343 Tb312 2.660 1_545 S
N343 C344 1.305 . S
N343 C348 1.360 . S
C344 H336 0.930 1_455 S
C344 N343 1.305 . S
C344 C347 1.407 . S
C345 H339 0.930 . S
C345 C346 1.410 . S
C345 C347 1.345 . S
C346 C345 1.410 . S
C346 C348 1.417 . S
C346 C378 1.432 . S
C347 H333 0.930 1_455 S
C347 C344 1.407 . S
C347 C345 1.345 . S
C348 N343 1.360 . S
C348 C346 1.417 . S
C348 C352 1.432 . S
H349 C354 0.930 . S
N350 Tb312 2.600 . S
N350 C352 1.359 1_565 S
N350 C353 1.327 . S
C351 H337 0.931 . S
C351 C353 1.392 . S
C351 C354 1.370 . S
C352 C348 1.432 . S
C352 N350 1.359 1_545 S
C352 C355 1.414 . S
C353 H335 0.930 . S
C353 N350 1.327 . S
C353 C351 1.392 . S
C354 H349 0.930 . S
C354 C351 1.370 . S
C354 C355 1.385 1_565 S
C355 C352 1.414 . S
C355 C354 1.385 1_545 S
C355 C377 1.444 . S
O356 Tb312 2.546 . S
O356 C376 1.251 . S
O357 Tb312 2.610 1_655 S
O357 Tb323 2.362 1_565 S
O357 C368 1.283 . S
O358 Tb323 2.421 . S
O358 C375 1.262 . S
O359 Tb312 2.320 1_655 S
O359 C375 1.260 1_565 S
O360 Tb312 2.552 . S
O360 C368 1.243 1_455 S
O361 Tb312 2.413 . S
O361 C376 1.256 . S
O362 Tb323 2.546 . S
O362 C387 1.251 . S
O363 Tb312 2.362 1_545 S
O363 Tb323 2.610 1_455 S
O363 C379 1.283 . S
O364 Tb312 2.421 . S
O364 C386 1.262 1_565 S
O365 Tb323 2.320 1_455 S
O365 C386 1.260 . S
O366 Tb323 2.552 1_455 S
O366 C379 1.243 . S
O367 Tb323 2.413 . S
O367 C387 1.256 . S
C368 O357 1.283 . S
C368 O360 1.243 1_655 S
C369 C371 1.382 . S
C369 C373 1.393 . S
C369 C376 1.500 . S
C370 C371 1.400 . S
C370 C372 1.384 . S
C371 C369 1.382 . S
C371 C370 1.400 . S
C371 H388 0.930 1_455 S
C372 C370 1.384 . S
C372 C374 1.392 . S
C372 H389 0.931 . S
C373 C369 1.393 . S
C373 C374 1.401 . S
C373 H390 0.930 . S
C374 C372 1.392 . S
C374 C373 1.401 . S
C374 H391 0.930 . S
C375 O358 1.262 . S
C375 O359 1.260 1_545 S
C376 Tb312 2.833 . S
C376 O356 1.251 . S
C376 O361 1.256 . S
C376 C369 1.500 . S
C377 H342 0.929 . S
C377 C355 1.444 . S
C377 C378 1.317 . S
C378 H340 0.930 . S
C378 C346 1.432 . S
C378 C377 1.317 . S
C379 O363 1.283 . S
C379 O366 1.243 . S
C380 C381 1.382 . S
C380 C384 1.393 . S
C380 C387 1.500 . S
C381 C380 1.382 . S
C381 C382 1.400 . S
C381 H392 0.930 1_655 S
C382 C381 1.400 . S
C382 C383 1.384 . S
C383 C382 1.384 . S
C383 C385 1.392 . S
C383 H393 0.931 . S
C384 C380 1.393 . S
C384 C385 1.401 . S
C384 H394 0.930 . S
C385 C383 1.392 . S
C385 C384 1.401 . S
C385 H395 0.930 . S
C386 O364 1.262 1_545 S
C386 O365 1.260 . S
C387 Tb323 2.833 . S
C387 O362 1.251 . S
C387 O367 1.256 . S
C387 C380 1.500 . S
H388 C371 0.930 1_655 S
H389 C372 0.931 . S
H390 C373 0.930 . S
H391 C374 0.930 . S
H392 C381 0.930 1_455 S
H393 C383 0.931 . S
H394 C384 0.930 . S
H395 C385 0.930 . S
Tb396 N427 2.660 . S
Tb396 N434 2.600 . S
Tb396 O440 2.546 . S
Tb396 O441 2.610 1_545 S
Tb396 O443 2.320 1_545 S
Tb396 O444 2.552 . S
Tb396 O445 2.413 . S
Tb396 O447 2.362 . S
Tb396 O448 2.421 . S
Tb396 C460 2.833 . S
C397 C400 1.432 . S
C397 C401 1.414 . S
C397 N404 1.359 . S
C398 C400 1.417 . S
C398 C402 1.432 . S
C398 C410 1.410 . S
C399 C401 1.444 . S
C399 C402 1.317 . S
C399 H422 0.929 . S
C400 C397 1.432 . S
C400 C398 1.417 . S
C400 N408 1.360 . S
C401 C397 1.414 . S
C401 C399 1.444 . S
C401 C406 1.385 . S
C402 C398 1.432 . S
C402 C399 1.317 . S
C402 H414 0.930 . S
C403 C405 1.392 . S
C403 C406 1.370 . S
C403 H415 0.931 . S
N404 C397 1.359 . S
N404 C405 1.327 . S
N404 Tb407 2.600 . S
C405 C403 1.392 . S
C405 N404 1.327 . S
C405 H412 0.930 . S
C406 C401 1.385 . S
C406 C403 1.370 . S
C406 H425 0.930 . S
Tb407 N404 2.600 . S
Tb407 N408 2.660 . S
Tb407 O441 2.362 . S
Tb407 O442 2.421 . S
Tb407 O446 2.546 . S
Tb407 O447 2.610 1_565 S
Tb407 O449 2.320 1_565 S
Tb407 O450 2.552 1_565 S
Tb407 O451 2.413 . S
Tb407 C471 2.833 . S
N408 C400 1.360 . S
N408 Tb407 2.660 . S
N408 C409 1.305 1_565 S
C409 N408 1.305 1_545 S
C409 C411 1.407 . S
C409 H416 0.930 . S
C410 C398 1.410 . S
C410 C411 1.345 1_565 S
C410 H418 0.930 . S
C411 C409 1.407 . S
C411 C410 1.345 1_545 S
C411 H413 0.930 . S
H412 C405 0.930 . S
H413 C411 0.930 . S
H414 C402 0.930 . S
H415 C403 0.931 . S
H416 C409 0.930 . S
H417 C431 0.930 1_565 S
H418 C410 0.930 . S
H419 C437 0.930 . S
H420 C428 0.930 1_565 S
H421 C435 0.931 . S
H422 C399 0.929 . S
H423 C429 0.930 . S
H424 C462 0.930 . S
H425 C406 0.930 . S
H426 C461 0.929 . S
N427 Tb396 2.660 . S
N427 C428 1.305 . S
N427 C432 1.360 . S
C428 H420 0.930 1_545 S
C428 N427 1.305 . S
C428 C431 1.407 . S
C429 H423 0.930 . S
C429 C430 1.410 . S
C429 C431 1.345 . S
C430 C429 1.410 . S
C430 C432 1.417 . S
C430 C462 1.432 . S
C431 H417 0.930 1_545 S
C431 C428 1.407 . S
C431 C429 1.345 . S
C432 N427 1.360 . S
C432 C430 1.417 . S
C432 C436 1.432 . S
H433 C438 0.930 . S
N434 Tb396 2.600 . S
N434 C436 1.359 . S
N434 C437 1.327 . S
C435 H421 0.931 . S
C435 C437 1.392 . S
C435 C438 1.370 . S
C436 C432 1.432 . S
C436 N434 1.359 . S
C436 C439 1.414 . S
C437 H419 0.930 . S
C437 N434 1.327 . S
C437 C435 1.392 . S
C438 H433 0.930 . S
C438 C435 1.370 . S
C438 C439 1.385 . S
C439 C436 1.414 . S
C439 C438 1.385 . S
C439 C461 1.444 . S
O440 Tb396 2.546 . S
O440 C460 1.251 . S
O441 Tb396 2.610 1_565 S
O441 Tb407 2.362 . S
O441 C452 1.283 . S
O442 Tb407 2.421 . S
O442 C459 1.262 . S
O443 Tb396 2.320 1_565 S
O443 C459 1.260 . S
O444 Tb396 2.552 . S
O444 C452 1.243 1_545 S
O445 Tb396 2.413 . S
O445 C460 1.256 . S
O446 Tb407 2.546 . S
O446 C471 1.251 . S
O447 Tb396 2.362 . S
O447 Tb407 2.610 1_545 S
O447 C463 1.283 . S
O448 Tb396 2.421 . S
O448 C470 1.262 . S
O449 Tb407 2.320 1_545 S
O449 C470 1.260 . S
O450 Tb407 2.552 1_545 S
O450 C463 1.243 . S
O451 Tb407 2.413 . S
O451 C471 1.256 . S
C452 O441 1.283 . S
C452 O444 1.243 1_565 S
C453 C455 1.382 . S
C453 C457 1.393 . S
C453 C460 1.500 . S
C454 C455 1.400 . S
C454 C456 1.384 . S
C455 C453 1.382 . S
C455 C454 1.400 . S
C455 H472 0.938 . S
C456 C454 1.384 . S
C456 C458 1.392 . S
C456 H473 0.931 . S
C457 C453 1.393 . S
C457 C458 1.401 . S
C457 H474 0.930 . S
C458 C456 1.392 . S
C458 C457 1.401 . S
C458 H475 0.930 . S
C459 O442 1.262 . S
C459 O443 1.260 . S
C460 Tb396 2.833 . S
C460 O440 1.251 . S
C460 O445 1.256 . S
C460 C453 1.500 . S
C461 H426 0.929 . S
C461 C439 1.444 . S
C461 C462 1.317 . S
C462 H424 0.930 . S
C462 C430 1.432 . S
C462 C461 1.317 . S
C463 O447 1.283 . S
C463 O450 1.243 . S
C464 C465 1.421 . S
C464 C468 1.393 . S
C464 C471 1.500 . S
C465 C464 1.421 . S
C465 C466 1.404 . S
C465 H476 0.889 1_565 S
C466 C465 1.404 . S
C466 C467 1.384 . S
C467 C466 1.384 . S
C467 C469 1.392 . S
C467 H477 0.931 . S
C468 C464 1.393 . S
C468 C469 1.401 . S
C468 H478 0.930 . S
C469 C467 1.392 . S
C469 C468 1.401 . S
C469 H479 0.930 . S
C470 O448 1.262 . S
C470 O449 1.260 . S
C471 Tb407 2.833 . S
C471 O446 1.251 . S
C471 O451 1.256 . S
C471 C464 1.500 . S
H472 C455 0.938 . S
H473 C456 0.931 . S
H474 C457 0.930 . S
H475 C458 0.930 . S
H476 C465 0.889 1_545 S
H477 C467 0.931 . S
H478 C468 0.930 . S
H479 C469 0.930 . S
Tb480 N511 2.660 . S
Tb480 N518 2.600 . S
Tb480 O524 2.546 . S
Tb480 O525 2.610 . S
Tb480 O527 2.320 . S
Tb480 O528 2.552 . S
Tb480 O529 2.413 . S
Tb480 O531 2.362 . S
Tb480 O532 2.421 . S
Tb480 C544 2.833 . S
C481 C484 1.432 . S
C481 C485 1.414 . S
C481 N488 1.359 . S
C482 C484 1.417 . S
C482 C486 1.432 . S
C482 C494 1.410 . S
C483 C485 1.444 . S
C483 C486 1.317 . S
C483 H506 0.929 . S
C484 C481 1.432 . S
C484 C482 1.417 . S
C484 N492 1.360 . S
C485 C481 1.414 . S
C485 C483 1.444 . S
C485 C490 1.385 . S
C486 C482 1.432 . S
C486 C483 1.317 . S
C486 H498 0.930 . S
C487 C489 1.392 . S
C487 C490 1.370 . S
C487 H499 0.931 . S
N488 C481 1.359 . S
N488 C489 1.327 . S
N488 Tb491 2.600 . S
C489 C487 1.392 . S
C489 N488 1.327 . S
C489 H496 0.930 . S
C490 C485 1.385 . S
C490 C487 1.370 . S
C490 H509 0.930 . S
Tb491 N488 2.600 . S
Tb491 N492 2.660 . S
Tb491 O525 2.362 . S
Tb491 O526 2.421 . S
Tb491 O530 2.546 . S
Tb491 O531 2.610 . S
Tb491 O533 2.320 . S
Tb491 O534 2.552 . S
Tb491 O535 2.413 . S
Tb491 C555 2.833 . S
N492 C484 1.360 . S
N492 Tb491 2.660 . S
N492 C493 1.305 . S
C493 N492 1.305 . S
C493 C495 1.407 . S
C493 H500 0.930 . S
C494 C482 1.410 . S
C494 C495 1.345 . S
C494 H502 0.930 . S
C495 C493 1.407 . S
C495 C494 1.345 . S
C495 H497 0.930 . S
H496 C489 0.930 . S
H497 C495 0.930 . S
H498 C486 0.930 . S
H499 C487 0.931 . S
H500 C493 0.930 . S
H501 C515 0.930 . S
H502 C494 0.930 . S
H503 C521 0.930 . S
H504 C512 0.930 . S
H505 C519 0.931 . S
H506 C483 0.929 . S
H507 C513 0.930 . S
H508 C546 0.930 . S
H509 C490 0.930 . S
H510 C545 0.929 . S
N511 Tb480 2.660 . S
N511 C512 1.305 . S
N511 C516 1.360 . S
C512 H504 0.930 . S
C512 N511 1.305 . S
C512 C515 1.407 . S
C513 H507 0.930 . S
C513 C514 1.410 . S
C513 C515 1.345 . S
C514 C513 1.410 . S
C514 C516 1.417 . S
C514 C546 1.432 . S
C515 H501 0.930 . S
C515 C512 1.407 . S
C515 C513 1.345 . S
C516 N511 1.360 . S
C516 C514 1.417 . S
C516 C520 1.432 . S
H517 C522 0.930 . S
N518 Tb480 2.600 . S
N518 C520 1.359 . S
N518 C521 1.327 . S
C519 H505 0.931 . S
C519 C521 1.392 . S
C519 C522 1.370 . S
C520 C516 1.432 . S
C520 N518 1.359 . S
C520 C523 1.414 . S
C521 H503 0.930 . S
C521 N518 1.327 . S
C521 C519 1.392 . S
C522 H517 0.930 . S
C522 C519 1.370 . S
C522 C523 1.385 . S
C523 C520 1.414 . S
C523 C522 1.385 . S
C523 C545 1.444 . S
O524 Tb480 2.546 . S
O524 C544 1.251 . S
O525 Tb480 2.610 . S
O525 Tb491 2.362 . S
O525 C536 1.283 . S
O526 Tb491 2.421 . S
O526 C543 1.262 . S
O527 Tb480 2.320 . S
O527 C543 1.260 . S
O528 Tb480 2.552 . S
O528 C536 1.243 . S
O529 Tb480 2.413 . S
O529 C544 1.256 . S
O530 Tb491 2.546 . S
O530 C555 1.251 . S
O531 Tb480 2.362 . S
O531 Tb491 2.610 . S
O531 C547 1.283 . S
O532 Tb480 2.421 . S
O532 C554 1.262 . S
O533 Tb491 2.320 . S
O533 C554 1.260 . S
O534 Tb491 2.552 . S
O534 C547 1.243 . S
O535 Tb491 2.413 . S
O535 C555 1.256 . S
C536 O525 1.283 . S
C536 O528 1.243 . S
C537 C539 1.382 . S
C537 C541 1.393 . S
C537 C544 1.500 . S
C538 C539 1.400 . S
C538 C540 1.384 . S
C539 C537 1.382 . S
C539 C538 1.400 . S
C539 H556 0.930 . S
C540 C538 1.384 . S
C540 C542 1.392 . S
C540 H557 0.931 . S
C541 C537 1.393 . S
C541 C542 1.401 . S
C541 H558 0.930 . S
C542 C540 1.392 . S
C542 C541 1.401 . S
C542 H559 0.930 . S
C543 O526 1.262 . S
C543 O527 1.260 . S
C544 Tb480 2.833 . S
C544 O524 1.251 . S
C544 O529 1.256 . S
C544 C537 1.500 . S
C545 H510 0.929 . S
C545 C523 1.444 . S
C545 C546 1.317 . S
C546 H508 0.930 . S
C546 C514 1.432 . S
C546 C545 1.317 . S
C547 O531 1.283 . S
C547 O534 1.243 . S
C548 C549 1.382 . S
C548 C552 1.393 . S
C548 C555 1.500 . S
C549 C548 1.382 . S
C549 C550 1.400 . S
C549 H560 0.930 . S
C550 C549 1.400 . S
C550 C551 1.384 . S
C551 C550 1.384 . S
C551 C553 1.392 . S
C551 H561 0.931 . S
C552 C548 1.393 . S
C552 C553 1.401 . S
C552 H562 0.930 . S
C553 C551 1.392 . S
C553 C552 1.401 . S
C553 H563 0.930 . S
C554 O532 1.262 . S
C554 O533 1.260 . S
C555 Tb491 2.833 . S
C555 O530 1.251 . S
C555 O535 1.256 . S
C555 C548 1.500 . S
H556 C539 0.930 . S
H557 C540 0.931 . S
H558 C541 0.930 . S
H559 C542 0.930 . S
H560 C549 0.930 . S
H561 C551 0.931 . S
H562 C552 0.930 . S
H563 C553 0.930 . S
Tb564 N595 2.660 . S
Tb564 N602 2.600 . S
Tb564 O608 2.546 . S
Tb564 O609 2.610 . S
Tb564 O611 2.320 . S
Tb564 O612 2.552 . S
Tb564 O613 2.413 . S
Tb564 O615 2.362 . S
Tb564 O616 2.421 1_455 S
Tb564 C628 2.833 . S
C565 C568 1.432 . S
C565 C569 1.414 . S
C565 N572 1.359 . S
C566 C568 1.417 . S
C566 C570 1.432 . S
C566 C578 1.410 . S
C567 C569 1.444 . S
C567 C570 1.317 . S
C567 H590 0.929 . S
C568 C565 1.432 . S
C568 C566 1.417 . S
C568 N576 1.360 . S
C569 C565 1.414 . S
C569 C567 1.444 . S
C569 C574 1.385 . S
C570 C566 1.432 . S
C570 C567 1.317 . S
C570 H582 0.930 . S
C571 C573 1.392 . S
C571 C574 1.370 1_455 S
C571 H583 0.931 . S
N572 C565 1.359 . S
N572 C573 1.327 1_655 S
N572 Tb575 2.600 . S
C573 C571 1.392 . S
C573 N572 1.327 1_455 S
C573 H580 0.930 . S
C574 C569 1.385 . S
C574 C571 1.370 1_655 S
C574 H593 0.930 . S
Tb575 N572 2.600 . S
Tb575 N576 2.660 . S
Tb575 O609 2.362 1_655 S
Tb575 O610 2.421 1_655 S
Tb575 O614 2.546 . S
Tb575 O615 2.610 1_655 S
Tb575 O617 2.320 . S
Tb575 O618 2.552 . S
Tb575 O619 2.413 . S
Tb575 C639 2.833 . S
N576 C568 1.360 . S
N576 Tb575 2.660 . S
N576 C577 1.305 . S
C577 N576 1.305 . S
C577 C579 1.407 . S
C577 H584 0.930 . S
C578 C566 1.410 . S
C578 C579 1.345 . S
C578 H586 0.930 . S
C579 C577 1.407 . S
C579 C578 1.345 . S
C579 H581 0.930 . S
H580 C573 0.930 . S
H581 C579 0.930 . S
H582 C570 0.930 . S
H583 C571 0.931 . S
H584 C577 0.930 . S
H585 C599 0.930 . S
H586 C578 0.930 . S
H587 C605 0.930 1_655 S
H588 C596 0.930 . S
H589 C603 0.931 1_655 S
H590 C567 0.929 . S
H591 C597 0.930 . S
H592 C630 0.930 . S
H593 C574 0.930 . S
H594 C629 0.929 . S
N595 Tb564 2.660 . S
N595 C596 1.305 . S
N595 C600 1.360 . S
C596 H588 0.930 . S
C596 N595 1.305 . S
C596 C599 1.407 . S
C597 H591 0.930 . S
C597 C598 1.410 . S
C597 C599 1.345 . S
C598 C597 1.410 . S
C598 C600 1.417 . S
C598 C630 1.432 . S
C599 H585 0.930 . S
C599 C596 1.407 . S
C599 C597 1.345 . S
C600 N595 1.360 . S
C600 C598 1.417 . S
C600 C604 1.432 . S
H601 C606 0.930 . S
N602 Tb564 2.600 . S
N602 C604 1.359 . S
N602 C605 1.327 . S
C603 H589 0.931 1_455 S
C603 C605 1.392 . S
C603 C606 1.370 . S
C604 C600 1.432 . S
C604 N602 1.359 . S
C604 C607 1.414 . S
C605 H587 0.930 1_455 S
C605 N602 1.327 . S
C605 C603 1.392 . S
C606 H601 0.930 . S
C606 C603 1.370 . S
C606 C607 1.385 . S
C607 C604 1.414 . S
C607 C606 1.385 . S
C607 C629 1.444 . S
O608 Tb564 2.546 . S
O608 C628 1.251 . S
O609 Tb564 2.610 . S
O609 Tb575 2.362 1_455 S
O609 C620 1.283 . S
O610 Tb575 2.421 1_455 S
O610 C627 1.262 . S
O611 Tb564 2.320 . S
O611 C627 1.260 . S
O612 Tb564 2.552 . S
O612 C620 1.243 . S
O613 Tb564 2.413 . S
O613 C628 1.256 . S
O614 Tb575 2.546 . S
O614 C639 1.251 . S
O615 Tb564 2.362 . S
O615 Tb575 2.610 1_455 S
O615 C631 1.283 1_455 S
O616 Tb564 2.421 1_655 S
O616 C638 1.262 . S
O617 Tb575 2.320 . S
O617 C638 1.260 . S
O618 Tb575 2.552 . S
O618 C631 1.243 . S
O619 Tb575 2.413 . S
O619 C639 1.256 . S
C620 O609 1.283 . S
C620 O612 1.243 . S
C621 C623 1.382 . S
C621 C625 1.393 . S
C621 C628 1.500 . S
C622 C623 1.400 . S
C622 C624 1.384 . S
C623 C621 1.382 . S
C623 C622 1.400 . S
C623 H640 0.930 . S
C624 C622 1.384 . S
C624 C626 1.392 . S
C624 H641 0.931 . S
C625 C621 1.393 . S
C625 C626 1.401 . S
C625 H642 0.930 . S
C626 C624 1.392 . S
C626 C625 1.401 . S
C626 H643 0.930 . S
C627 O610 1.262 . S
C627 O611 1.260 . S
C628 Tb564 2.833 . S
C628 O608 1.251 . S
C628 O613 1.256 . S
C628 C621 1.500 . S
C629 H594 0.929 . S
C629 C607 1.444 . S
C629 C630 1.317 . S
C630 H592 0.930 . S
C630 C598 1.432 . S
C630 C629 1.317 . S
C631 O615 1.283 1_655 S
C631 O618 1.243 . S
C632 C633 1.382 . S
C632 C636 1.393 . S
C632 C639 1.500 . S
C633 C632 1.382 . S
C633 C634 1.400 . S
C633 H644 0.930 . S
C634 C633 1.400 . S
C634 C635 1.384 . S
C635 C634 1.384 . S
C635 C637 1.392 . S
C635 H645 0.931 . S
C636 C632 1.393 . S
C636 C637 1.401 . S
C636 H646 0.930 . S
C637 C635 1.392 . S
C637 C636 1.401 . S
C637 H647 0.930 . S
C638 O616 1.262 . S
C638 O617 1.260 . S
C639 Tb575 2.833 . S
C639 O614 1.251 . S
C639 O619 1.256 . S
C639 C632 1.500 . S
H640 C623 0.930 . S
H641 C624 0.931 . S
H642 C625 0.930 . S
H643 C626 0.930 . S
H644 C633 0.930 . S
H645 C635 0.931 . S
H646 C636 0.930 . S
H647 C637 0.930 . S
C648 C649 1.349 . S
C648 C650 1.327 . S
C648 H673 0.950 . S
C649 C648 1.349 . S
C649 C665 1.349 . S
C650 C648 1.327 . S
C650 C669 1.429 . S
C650 H674 0.950 . S
C651 C668 1.574 . S
C651 C670 1.368 . S
C651 H675 0.949 . S
H652 C656 0.949 . S
C653 C654 1.349 . S
C653 C655 1.327 . S
C653 H676 0.950 . S
C654 C653 1.349 . S
C654 C666 1.349 . S
C655 C653 1.327 . S
C655 C671 1.429 . S
C655 H677 0.950 . S
C656 H652 0.949 . S
C656 C664 1.574 . S
C656 C672 1.368 . S
H657 C665 0.950 . S
H658 C663 0.950 . S
H659 C664 0.949 . S
H660 C666 0.950 . S
H661 C667 0.950 . S
H662 C668 0.949 . S
C663 H658 0.950 . S
C663 C665 1.327 . S
C663 C669 1.429 . S
C664 C656 1.574 . S
C664 H659 0.949 . S
C664 C670 1.368 . S
C665 C649 1.349 . S
C665 H657 0.950 . S
C665 C663 1.327 . S
C666 C654 1.349 . S
C666 H660 0.950 . S
C666 C667 1.327 . S
C667 H661 0.950 . S
C667 C666 1.327 . S
C667 C671 1.429 . S
C668 C651 1.574 . S
C668 H662 0.949 . S
C668 C672 1.368 . S
C669 C650 1.429 . S
C669 C663 1.429 . S
C669 C670 1.523 . S
C670 C651 1.368 . S
C670 C664 1.368 . S
C670 C669 1.523 . S
C671 C655 1.429 . S
C671 C667 1.429 . S
C671 C672 1.523 . S
C672 C656 1.368 . S
C672 C668 1.368 . S
C672 C671 1.523 . S
H673 C648 0.950 . S
H674 C650 0.950 . S
H675 C651 0.949 . S
H676 C653 0.950 . S
H677 C655 0.950 . S
C678 C679 1.349 . S
C678 C680 1.327 . S
C678 H703 0.950 . S
C679 C678 1.349 . S
C679 C695 1.349 . S
C680 C678 1.327 . S
C680 C699 1.429 . S
C680 H704 0.950 . S
C681 C698 1.574 . S
C681 C700 1.368 . S
C681 H705 0.949 . S
H682 C686 0.949 . S
C683 C684 1.349 . S
C683 C685 1.327 . S
C683 H706 0.950 . S
C684 C683 1.349 . S
C684 C696 1.349 . S
C685 C683 1.327 . S
C685 C701 1.429 . S
C685 H707 0.950 . S
C686 H682 0.949 . S
C686 C694 1.574 . S
C686 C702 1.368 . S
H687 C695 0.950 . S
H688 C693 0.950 . S
H689 C694 0.949 . S
H690 C696 0.950 . S
H691 C697 0.950 . S
H692 C698 0.949 . S
C693 H688 0.950 . S
C693 C695 1.327 . S
C693 C699 1.429 . S
C694 C686 1.574 . S
C694 H689 0.949 . S
C694 C700 1.368 . S
C695 C679 1.349 . S
C695 H687 0.950 . S
C695 C693 1.327 . S
C696 C684 1.349 . S
C696 H690 0.950 . S
C696 C697 1.327 . S
C697 H691 0.950 . S
C697 C696 1.327 . S
C697 C701 1.429 . S
C698 C681 1.574 . S
C698 H692 0.949 . S
C698 C702 1.368 . S
C699 C680 1.429 . S
C699 C693 1.429 . S
C699 C700 1.523 . S
C700 C681 1.368 . S
C700 C694 1.368 . S
C700 C699 1.523 . S
C701 C685 1.429 . S
C701 C697 1.429 . S
C701 C702 1.523 . S
C702 C686 1.368 . S
C702 C698 1.368 . S
C702 C701 1.523 . S
H703 C678 0.950 . S
H704 C680 0.950 . S
H705 C681 0.949 . S
H706 C683 0.950 . S
H707 C685 0.950 . S
C708 C709 1.349 . S
C708 C710 1.327 . S
C708 H733 0.950 . S
C709 C708 1.349 . S
C709 C725 1.349 . S
C710 C708 1.327 . S
C710 C729 1.429 . S
C710 H734 0.950 . S
C711 C728 1.574 . S
C711 C730 1.368 . S
C711 H735 0.949 . S
H712 C716 0.949 . S
C713 C714 1.349 . S
C713 C715 1.327 . S
C713 H736 0.950 . S
C714 C713 1.349 . S
C714 C726 1.349 . S
C715 C713 1.327 . S
C715 C731 1.429 . S
C715 H737 0.950 . S
C716 H712 0.949 . S
C716 C724 1.574 . S
C716 C732 1.368 . S
H717 C725 0.950 . S
H718 C723 0.950 . S
H719 C724 0.949 . S
H720 C726 0.950 . S
H721 C727 0.950 . S
H722 C728 0.949 . S
C723 H718 0.950 . S
C723 C725 1.327 . S
C723 C729 1.429 . S
C724 C716 1.574 . S
C724 H719 0.949 . S
C724 C730 1.368 . S
C725 C709 1.349 . S
C725 H717 0.950 . S
C725 C723 1.327 . S
C726 C714 1.349 . S
C726 H720 0.950 . S
C726 C727 1.327 . S
C727 H721 0.950 . S
C727 C726 1.327 . S
C727 C731 1.429 . S
C728 C711 1.574 . S
C728 H722 0.949 . S
C728 C732 1.368 . S
C729 C710 1.429 . S
C729 C723 1.429 . S
C729 C730 1.523 . S
C730 C711 1.368 . S
C730 C724 1.368 . S
C730 C729 1.523 . S
C731 C715 1.429 . S
C731 C727 1.429 . S
C731 C732 1.523 . S
C732 C716 1.368 . S
C732 C728 1.368 . S
C732 C731 1.523 . S
H733 C708 0.950 . S
H734 C710 0.950 . S
H735 C711 0.949 . S
H736 C713 0.950 . S
H737 C715 0.950 . S
C738 C739 1.349 . S
C738 C740 1.327 . S
C738 H763 0.950 . S
C739 C738 1.349 . S
C739 C755 1.349 . S
C740 C738 1.327 . S
C740 C759 1.429 . S
C740 H764 0.950 . S
C741 C758 1.574 . S
C741 C760 1.368 . S
C741 H765 0.949 . S
H742 C746 0.949 . S
C743 C744 1.349 . S
C743 C745 1.327 . S
C743 H766 0.950 . S
C744 C743 1.349 . S
C744 C756 1.349 . S
C745 C743 1.327 . S
C745 C761 1.429 . S
C745 H767 0.950 . S
C746 H742 0.949 . S
C746 C754 1.574 . S
C746 C762 1.368 . S
H747 C755 0.950 . S
H748 C753 0.950 . S
H749 C754 0.949 . S
H750 C756 0.950 1_655 S
H751 C757 0.950 . S
H752 C758 0.949 . S
C753 H748 0.950 . S
C753 C755 1.327 . S
C753 C759 1.429 . S
C754 C746 1.574 . S
C754 H749 0.949 . S
C754 C760 1.368 . S
C755 C739 1.349 . S
C755 H747 0.950 . S
C755 C753 1.327 . S
C756 C744 1.349 . S
C756 H750 0.950 1_455 S
C756 C757 1.327 . S
C757 H751 0.950 . S
C757 C756 1.327 . S
C757 C761 1.429 . S
C758 C741 1.574 . S
C758 H752 0.949 . S
C758 C762 1.368 . S
C759 C740 1.429 . S
C759 C753 1.429 . S
C759 C760 1.523 . S
C760 C741 1.368 . S
C760 C754 1.368 . S
C760 C759 1.523 . S
C761 C745 1.429 . S
C761 C757 1.429 . S
C761 C762 1.523 . S
C762 C746 1.368 . S
C762 C758 1.368 . S
C762 C761 1.523 . S
H763 C738 0.950 . S
H764 C740 0.950 . S
H765 C741 0.949 . S
H766 C743 0.950 . S
H767 C745 0.950 . S
C768 C769 1.349 . S
C768 C770 1.327 . S
C768 H793 0.950 . S
C769 C768 1.349 . S
C769 C785 1.349 1_554 S
C770 C768 1.327 . S
C770 C789 1.429 1_554 S
C770 H794 0.950 . S
C771 C788 1.574 . S
C771 C790 1.368 . S
C771 H795 0.949 . S
H772 C776 0.949 . S
C773 C774 1.349 . S
C773 C775 1.327 . S
C773 H796 0.950 . S
C774 C773 1.349 . S
C774 C786 1.357 . S
C775 C773 1.327 . S
C775 C791 1.429 . S
C775 H797 0.950 . S
C776 H772 0.949 . S
C776 C784 1.574 . S
C776 C792 1.368 . S
H777 C785 0.950 . S
H778 C783 0.950 . S
H779 C784 0.949 . S
H780 C786 0.937 1_545 S
H781 C787 0.950 1_545 S
H782 C788 0.949 . S
C783 H778 0.950 . S
C783 C785 1.327 . S
C783 C789 1.429 . S
C784 C776 1.574 . S
C784 H779 0.949 . S
C784 C790 1.368 . S
C785 C769 1.349 1_556 S
C785 H777 0.950 . S
C785 C783 1.327 . S
C786 C774 1.357 . S
C786 H780 0.937 1_565 S
C786 C787 1.332 . S
C787 H781 0.950 1_565 S
C787 C786 1.332 . S
C787 C791 1.429 . S
C788 C771 1.574 . S
C788 H782 0.949 . S
C788 C792 1.368 . S
C789 C770 1.429 1_556 S
C789 C783 1.429 . S
C789 C790 1.523 . S
C790 C771 1.368 . S
C790 C784 1.368 . S
C790 C789 1.523 . S
C791 C775 1.429 . S
C791 C787 1.429 . S
C791 C792 1.523 . S
C792 C776 1.368 . S
C792 C788 1.368 . S
C792 C791 1.523 . S
H793 C768 0.950 . S
H794 C770 0.950 . S
H795 C771 0.949 . S
H796 C773 0.950 . S
H797 C775 0.950 . S
C798 C799 1.349 . S
C798 C800 1.327 1_554 S
C798 H823 0.950 . S
C799 C798 1.349 . S
C799 C815 1.349 1_554 S
C800 C798 1.327 1_556 S
C800 C819 1.429 . S
C800 H824 0.950 . S
C801 C818 1.574 . S
C801 C820 1.368 . S
C801 H825 0.949 . S
H802 C806 0.949 . S
C803 C804 1.349 . S
C803 C805 1.327 . S
C803 H826 0.950 . S
C804 C803 1.349 . S
C804 C816 1.349 . S
C805 C803 1.327 . S
C805 C821 1.429 . S
C805 H827 0.950 . S
C806 H802 0.949 . S
C806 C814 1.574 . S
C806 C822 1.368 . S
H807 C815 0.950 . S
H808 C813 0.950 . S
H809 C814 0.949 . S
H810 C816 0.950 . S
H811 C817 0.950 . S
H812 C818 0.949 . S
C813 H808 0.950 . S
C813 C815 1.327 . S
C813 C819 1.429 . S
C814 C806 1.574 . S
C814 H809 0.949 . S
C814 C820 1.368 . S
C815 C799 1.349 1_556 S
C815 H807 0.950 . S
C815 C813 1.327 . S
C816 C804 1.349 . S
C816 H810 0.950 . S
C816 C817 1.327 . S
C817 H811 0.950 . S
C817 C816 1.327 . S
C817 C821 1.429 . S
C818 C801 1.574 . S
C818 H812 0.949 . S
C818 C822 1.368 . S
C819 C800 1.429 . S
C819 C813 1.429 . S
C819 C820 1.523 . S
C820 C801 1.368 . S
C820 C814 1.368 . S
C820 C819 1.523 . S
C821 C805 1.429 . S
C821 C817 1.429 . S
C821 C822 1.523 . S
C822 C806 1.368 . S
C822 C818 1.368 . S
C822 C821 1.523 . S
H823 C798 0.950 . S
H824 C800 0.950 . S
H825 C801 0.949 . S
H826 C803 0.950 . S
H827 C805 0.950 . S
C828 C829 1.349 1_556 S
C828 C830 1.327 . S
C828 H853 0.950 . S
C829 C828 1.349 1_554 S
C829 C845 1.349 . S
C830 C828 1.327 . S
C830 C849 1.429 . S
C830 H854 0.950 . S
C831 C848 1.574 . S
C831 C850 1.368 . S
C831 H855 0.949 . S
H832 C836 0.949 . S
C833 C834 1.349 . S
C833 C835 1.327 . S
C833 H856 0.950 . S
C834 C833 1.349 . S
C834 C846 1.349 . S
C835 C833 1.327 . S
C835 C851 1.429 . S
C835 H857 0.950 . S
C836 H832 0.949 . S
C836 C844 1.574 . S
C836 C852 1.368 . S
H837 C845 0.950 . S
H838 C843 0.950 1_554 S
H839 C844 0.949 . S
H840 C846 0.950 . S
H841 C847 0.950 . S
H842 C848 0.949 . S
C843 H838 0.950 1_556 S
C843 C845 1.327 1_556 S
C843 C849 1.429 . S
C844 C836 1.574 . S
C844 H839 0.949 . S
C844 C850 1.368 . S
C845 C829 1.349 . S
C845 H837 0.950 . S
C845 C843 1.327 1_554 S
C846 C834 1.349 . S
C846 H840 0.950 . S
C846 C847 1.327 . S
C847 H841 0.950 . S
C847 C846 1.327 . S
C847 C851 1.429 . S
C848 C831 1.574 . S
C848 H842 0.949 . S
C848 C852 1.368 . S
C849 C830 1.429 . S
C849 C843 1.429 . S
C849 C850 1.523 . S
C850 C831 1.368 . S
C850 C844 1.368 . S
C850 C849 1.523 . S
C851 C835 1.429 . S
C851 C847 1.429 . S
C851 C852 1.523 . S
C852 C836 1.368 . S
C852 C848 1.368 . S
C852 C851 1.523 . S
H853 C828 0.950 . S
H854 C830 0.950 . S
H855 C831 0.949 . S
H856 C833 0.950 . S
H857 C835 0.950 . S
C858 C859 1.349 . S
C858 C860 1.327 1_554 S
C858 H883 0.950 . S
C859 C858 1.349 . S
C859 C875 1.349 . S
C860 C858 1.327 1_556 S
C860 C879 1.429 . S
C860 H884 0.950 . S
C861 C878 1.574 . S
C861 C880 1.368 . S
C861 H885 0.949 . S
H862 C866 0.949 . S
C863 C864 1.349 . S
C863 C865 1.327 . S
C863 H886 0.950 . S
C864 C863 1.349 . S
C864 C876 1.349 . S
C865 C863 1.327 . S
C865 C881 1.429 . S
C865 H887 0.950 . S
C866 H862 0.949 . S
C866 C874 1.574 . S
C866 C882 1.368 . S
H867 C875 0.950 . S
H868 C873 0.950 . S
H869 C874 0.949 . S
H870 C876 0.950 1_455 S
H871 C877 0.950 . S
H872 C878 0.949 . S
C873 H868 0.950 . S
C873 C875 1.327 1_556 S
C873 C879 1.429 . S
C874 C866 1.574 . S
C874 H869 0.949 . S
C874 C880 1.368 . S
C875 C859 1.349 . S
C875 H867 0.950 . S
C875 C873 1.327 1_554 S
C876 C864 1.349 . S
C876 H870 0.950 1_655 S
C876 C877 1.327 . S
C877 H871 0.950 . S
C877 C876 1.327 . S
C877 C881 1.429 . S
C878 C861 1.574 . S
C878 H872 0.949 . S
C878 C882 1.368 . S
C879 C860 1.429 . S
C879 C873 1.429 . S
C879 C880 1.523 . S
C880 C861 1.368 . S
C880 C874 1.368 . S
C880 C879 1.523 . S
C881 C865 1.429 . S
C881 C877 1.429 . S
C881 C882 1.523 . S
C882 C866 1.368 . S
C882 C878 1.368 . S
C882 C881 1.523 . S
H883 C858 0.950 . S
H884 C860 0.950 . S
H885 C861 0.949 . S
H886 C863 0.950 . S
H887 C865 0.950 . S
C888 C889 1.349 . S
C888 C890 1.327 . S
C888 H913 0.950 . S
C889 C888 1.349 . S
C889 C905 1.349 . S
C890 C888 1.327 . S
C890 C909 1.429 . S
C890 H914 0.950 . S
C891 C908 1.574 . S
C891 C910 1.368 . S
C891 H915 0.949 . S
H892 C896 0.949 . S
C893 C894 1.345 1_655 S
C893 C895 1.318 1_655 S
C893 H916 0.963 . S
C894 C893 1.345 1_455 S
C894 C906 1.349 . S
C895 C893 1.318 1_455 S
C895 C911 1.429 . S
C895 H917 0.950 . S
C896 H892 0.949 . S
C896 C904 1.574 . S
C896 C912 1.368 . S
H897 C905 0.950 . S
H898 C903 0.950 . S
H899 C904 0.949 . S
H900 C906 0.950 . S
H901 C907 0.950 . S
H902 C908 0.949 . S
C903 H898 0.950 . S
C903 C905 1.327 . S
C903 C909 1.429 . S
C904 C896 1.574 . S
C904 H899 0.949 . S
C904 C910 1.368 . S
C905 C889 1.349 . S
C905 H897 0.950 . S
C905 C903 1.327 . S
C906 C894 1.349 . S
C906 H900 0.950 . S
C906 C907 1.327 . S
C907 H901 0.950 . S
C907 C906 1.327 . S
C907 C911 1.429 . S
C908 C891 1.574 . S
C908 H902 0.949 . S
C908 C912 1.368 . S
C909 C890 1.429 . S
C909 C903 1.429 . S
C909 C910 1.523 . S
C910 C891 1.368 . S
C910 C904 1.368 . S
C910 C909 1.523 . S
C911 C895 1.429 . S
C911 C907 1.429 . S
C911 C912 1.523 . S
C912 C896 1.368 . S
C912 C908 1.368 . S
C912 C911 1.523 . S
H913 C888 0.950 . S
H914 C890 0.950 . S
H915 C891 0.949 . S
H916 C893 0.963 . S
H917 C895 0.950 . S
C918 C919 1.349 . S
C918 C920 1.327 . S
C918 H943 0.950 . S
C919 C918 1.349 . S
C919 C935 1.349 . S
C920 C918 1.327 . S
C920 C939 1.429 . S
C920 H944 0.950 . S
C921 C938 1.574 . S
C921 C940 1.368 . S
C921 H945 0.949 . S
H922 C926 0.949 . S
C923 C924 1.349 . S
C923 C925 1.327 . S
C923 H946 0.950 . S
C924 C923 1.349 . S
C924 C936 1.349 . S
C925 C923 1.327 . S
C925 C941 1.429 . S
C925 H947 0.950 . S
C926 H922 0.949 . S
C926 C934 1.574 . S
C926 C942 1.368 . S
H927 C935 0.950 . S
H928 C933 0.950 . S
H929 C934 0.949 . S
H930 C936 0.950 . S
H931 C937 0.950 . S
H932 C938 0.949 . S
C933 H928 0.950 . S
C933 C935 1.327 . S
C933 C939 1.429 . S
C934 C926 1.574 . S
C934 H929 0.949 . S
C934 C940 1.368 . S
C935 C919 1.349 . S
C935 H927 0.950 . S
C935 C933 1.327 . S
C936 C924 1.349 . S
C936 H930 0.950 . S
C936 C937 1.327 . S
C937 H931 0.950 . S
C937 C936 1.327 . S
C937 C941 1.429 . S
C938 C921 1.574 . S
C938 H932 0.949 . S
C938 C942 1.368 . S
C939 C920 1.429 . S
C939 C933 1.429 . S
C939 C940 1.523 . S
C940 C921 1.368 . S
C940 C934 1.368 . S
C940 C939 1.523 . S
C941 C925 1.429 . S
C941 C937 1.429 . S
C941 C942 1.523 . S
C942 C926 1.368 . S
C942 C938 1.368 . S
C942 C941 1.523 . S
H943 C918 0.950 . S
H944 C920 0.950 . S
H945 C921 0.949 . S
H946 C923 0.950 . S
H947 C925 0.950 . S
C948 C949 1.349 . S
C948 C950 1.327 . S
C948 H973 0.950 . S
C949 C948 1.349 . S
C949 C965 1.349 . S
C950 C948 1.327 . S
C950 C969 1.429 . S
C950 H974 0.950 . S
C951 C968 1.574 . S
C951 C970 1.368 . S
C951 H975 0.949 . S
H952 C956 0.949 . S
C953 C954 1.349 . S
C953 C955 1.327 . S
C953 H976 0.950 . S
C954 C953 1.349 . S
C954 C966 1.349 . S
C955 C953 1.327 . S
C955 C971 1.429 . S
C955 H977 0.950 . S
C956 H952 0.949 . S
C956 C964 1.574 . S
C956 C972 1.368 . S
H957 C965 0.950 . S
H958 C963 0.950 . S
H959 C964 0.949 . S
H960 C966 0.950 . S
H961 C967 0.950 . S
H962 C968 0.949 . S
C963 H958 0.950 . S
C963 C965 1.327 . S
C963 C969 1.429 . S
C964 C956 1.574 . S
C964 H959 0.949 . S
C964 C970 1.368 . S
C965 C949 1.349 . S
C965 H957 0.950 . S
C965 C963 1.327 . S
C966 C954 1.349 . S
C966 H960 0.950 . S
C966 C967 1.327 . S
C967 H961 0.950 . S
C967 C966 1.327 . S
C967 C971 1.429 . S
C968 C951 1.574 . S
C968 H962 0.949 . S
C968 C972 1.368 . S
C969 C950 1.429 . S
C969 C963 1.429 . S
C969 C970 1.523 . S
C970 C951 1.368 . S
C970 C964 1.368 . S
C970 C969 1.523 . S
C971 C955 1.429 . S
C971 C967 1.429 . S
C971 C972 1.523 . S
C972 C956 1.368 . S
C972 C968 1.368 . S
C972 C971 1.523 . S
H973 C948 0.950 . S
H974 C950 0.950 . S
H975 C951 0.949 . S
H976 C953 0.950 . S
H977 C955 0.950 . S
C978 C979 1.349 . S
C978 C980 1.327 . S
C978 H1003 0.950 . S
C979 C978 1.349 . S
C979 C995 1.349 . S
C980 C978 1.327 . S
C980 C999 1.429 . S
C980 H1004 0.950 . S
C981 C998 1.574 . S
C981 C1000 1.368 . S
C981 H1005 0.949 . S
H982 C986 0.949 . S
C983 C984 1.349 . S
C983 C985 1.327 . S
C983 H1006 0.950 . S
C984 C983 1.349 . S
C984 C996 1.349 . S
C985 C983 1.327 . S
C985 C1001 1.429 . S
C985 H1007 0.950 . S
C986 H982 0.949 . S
C986 C994 1.574 . S
C986 C1002 1.368 . S
H987 C995 0.950 . S
H988 C993 0.950 . S
H989 C994 0.949 . S
H990 C996 0.950 . S
H991 C997 0.950 . S
H992 C998 0.949 . S
C993 H988 0.950 . S
C993 C995 1.327 . S
C993 C999 1.429 . S
C994 C986 1.574 . S
C994 H989 0.949 . S
C994 C1000 1.368 . S
C995 C979 1.349 . S
C995 H987 0.950 . S
C995 C993 1.327 . S
C996 C984 1.349 . S
C996 H990 0.950 . S
C996 C997 1.327 . S
C997 H991 0.950 . S
C997 C996 1.327 . S
C997 C1001 1.429 . S
C998 C981 1.574 . S
C998 H992 0.949 . S
C998 C1002 1.368 . S
C999 C980 1.429 . S
C999 C993 1.429 . S
C999 C1000 1.523 . S
C1000 C981 1.368 . S
C1000 C994 1.368 . S
C1000 C999 1.523 . S
C1001 C985 1.429 . S
C1001 C997 1.429 . S
C1001 C1002 1.523 . S
C1002 C986 1.368 . S
C1002 C998 1.368 . S
C1002 C1001 1.523 . S
H1003 C978 0.950 . S
H1004 C980 0.950 . S
H1005 C981 0.949 . S
H1006 C983 0.950 . S
H1007 C985 0.950 . S
C1008 C1009 1.349 . S
C1008 C1010 1.327 . S
C1008 H1033 0.950 1_556 S
C1009 C1008 1.349 . S
C1009 C1025 1.349 . S
C1010 C1008 1.327 . S
C1010 C1029 1.429 . S
C1010 H1034 0.950 . S
C1011 C1028 1.574 . S
C1011 C1030 1.368 . S
C1011 H1035 0.949 . S
H1012 C1016 0.949 . S
C1013 C1014 1.349 1_655 S
C1013 C1015 1.327 . S
C1013 H1036 0.950 . S
C1014 C1013 1.349 1_455 S
C1014 C1026 1.349 . S
C1015 C1013 1.327 . S
C1015 C1031 1.429 . S
C1015 H1037 0.950 . S
C1016 H1012 0.949 . S
C1016 C1024 1.574 . S
C1016 C1032 1.368 . S
H1017 C1025 0.950 . S
H1018 C1023 0.950 . S
H1019 C1024 0.949 . S
H1020 C1026 0.950 . S
H1021 C1027 0.944 1_455 S
H1022 C1028 0.949 . S
C1023 H1018 0.950 . S
C1023 C1025 1.327 . S
C1023 C1029 1.429 . S
C1024 C1016 1.574 . S
C1024 H1019 0.949 . S
C1024 C1030 1.368 . S
C1025 C1009 1.349 . S
C1025 H1017 0.950 . S
C1025 C1023 1.327 . S
C1026 C1014 1.349 . S
C1026 H1020 0.950 . S
C1026 C1027 1.327 1_455 S
C1027 H1021 0.944 1_655 S
C1027 C1026 1.327 1_655 S
C1027 C1031 1.429 . S
C1028 C1011 1.574 . S
C1028 H1022 0.949 . S
C1028 C1032 1.368 . S
C1029 C1010 1.429 . S
C1029 C1023 1.429 . S
C1029 C1030 1.523 . S
C1030 C1011 1.368 . S
C1030 C1024 1.368 . S
C1030 C1029 1.523 . S
C1031 C1015 1.429 . S
C1031 C1027 1.429 . S
C1031 C1032 1.523 . S
C1032 C1016 1.368 . S
C1032 C1028 1.368 . S
C1032 C1031 1.523 . S
H1033 C1008 0.950 1_554 S
H1034 C1010 0.950 . S
H1035 C1011 0.949 . S
H1036 C1013 0.950 . S
H1037 C1015 0.950 . S
C1038 C1039 1.349 . S
C1038 C1040 1.327 . S
C1038 H1063 0.950 . S
C1039 C1038 1.349 . S
C1039 C1055 1.349 . S
C1040 C1038 1.327 . S
C1040 C1059 1.429 . S
C1040 H1064 0.950 . S
C1041 C1058 1.574 . S
C1041 C1060 1.368 . S
C1041 H1065 0.949 . S
H1042 C1046 0.949 1_545 S
C1043 C1044 1.349 1_565 S
C1043 C1045 1.327 . S
C1043 H1066 0.950 . S
C1044 C1043 1.349 1_545 S
C1044 C1056 1.349 . S
C1045 C1043 1.327 . S
C1045 C1061 1.429 . S
C1045 H1067 0.950 . S
C1046 H1042 0.949 1_565 S
C1046 C1054 1.574 . S
C1046 C1062 1.368 . S
H1047 C1055 0.950 . S
H1048 C1053 0.950 . S
H1049 C1054 0.949 . S
H1050 C1056 0.950 . S
H1051 C1057 0.950 . S
H1052 C1058 0.949 . S
C1053 H1048 0.950 . S
C1053 C1055 1.327 . S
C1053 C1059 1.429 . S
C1054 C1046 1.574 . S
C1054 H1049 0.949 . S
C1054 C1060 1.368 . S
C1055 C1039 1.349 . S
C1055 H1047 0.950 . S
C1055 C1053 1.327 . S
C1056 C1044 1.349 . S
C1056 H1050 0.950 . S
C1056 C1057 1.327 . S
C1057 H1051 0.950 . S
C1057 C1056 1.327 . S
C1057 C1061 1.429 1_545 S
C1058 C1041 1.574 . S
C1058 H1052 0.949 . S
C1058 C1062 1.368 . S
C1059 C1040 1.429 . S
C1059 C1053 1.429 . S
C1059 C1060 1.523 . S
C1060 C1041 1.368 . S
C1060 C1054 1.368 . S
C1060 C1059 1.523 . S
C1061 C1045 1.429 . S
C1061 C1057 1.429 1_565 S
C1061 C1062 1.523 . S
C1062 C1046 1.368 . S
C1062 C1058 1.368 . S
C1062 C1061 1.523 . S
H1063 C1038 0.950 . S
H1064 C1040 0.950 . S
H1065 C1041 0.949 . S
H1066 C1043 0.950 . S
H1067 C1045 0.950 . S
C1068 C1069 1.349 . S
C1068 C1070 1.327 . S
C1068 H1093 0.950 . S
C1069 C1068 1.349 . S
C1069 C1085 1.349 . S
C1070 C1068 1.327 . S
C1070 C1089 1.429 . S
C1070 H1094 0.950 . S
C1071 C1088 1.574 . S
C1071 C1090 1.368 . S
C1071 H1095 0.949 . S
H1072 C1076 0.949 . S
C1073 C1074 1.349 . S
C1073 C1075 1.327 . S
C1073 H1096 0.950 . S
C1074 C1073 1.349 . S
C1074 C1086 1.349 . S
C1075 C1073 1.327 . S
C1075 C1091 1.429 . S
C1075 H1097 0.950 . S
C1076 H1072 0.949 . S
C1076 C1084 1.574 . S
C1076 C1092 1.368 . S
H1077 C1085 0.950 1_554 S
H1078 C1083 0.950 . S
H1079 C1084 0.949 . S
H1080 C1086 0.950 . S
H1081 C1087 0.950 . S
H1082 C1088 0.949 . S
C1083 H1078 0.950 . S
C1083 C1085 1.327 . S
C1083 C1089 1.429 . S
C1084 C1076 1.574 . S
C1084 H1079 0.949 . S
C1084 C1090 1.368 . S
C1085 C1069 1.349 . S
C1085 H1077 0.950 1_556 S
C1085 C1083 1.327 . S
C1086 C1074 1.349 . S
C1086 H1080 0.950 . S
C1086 C1087 1.327 . S
C1087 H1081 0.950 . S
C1087 C1086 1.327 . S
C1087 C1091 1.429 . S
C1088 C1071 1.574 . S
C1088 H1082 0.949 . S
C1088 C1092 1.368 . S
C1089 C1070 1.429 . S
C1089 C1083 1.429 . S
C1089 C1090 1.523 . S
C1090 C1071 1.368 . S
C1090 C1084 1.368 . S
C1090 C1089 1.523 . S
C1091 C1075 1.429 . S
C1091 C1087 1.429 . S
C1091 C1092 1.523 . S
C1092 C1076 1.368 . S
C1092 C1088 1.368 . S
C1092 C1091 1.523 . S
H1093 C1068 0.950 . S
H1094 C1070 0.950 . S
H1095 C1071 0.949 . S
H1096 C1073 0.950 . S
H1097 C1075 0.950 . S
C1098 C1099 1.349 . S
C1098 C1100 1.327 . S
C1098 H1123 0.950 . S
C1099 C1098 1.349 . S
C1099 C1115 1.349 . S
C1100 C1098 1.327 . S
C1100 C1119 1.429 . S
C1100 H1124 0.950 . S
C1101 C1118 1.574 . S
C1101 C1120 1.368 . S
C1101 H1125 0.949 . S
H1102 C1106 0.949 . S
C1103 C1104 1.349 . S
C1103 C1105 1.327 . S
C1103 H1126 0.950 . S
C1104 C1103 1.349 . S
C1104 C1116 1.349 . S
C1105 C1103 1.327 . S
C1105 C1121 1.429 . S
C1105 H1127 0.950 . S
C1106 H1102 0.949 . S
C1106 C1114 1.574 . S
C1106 C1122 1.368 . S
H1107 C1115 0.950 1_554 S
H1108 C1113 0.950 . S
H1109 C1114 0.949 . S
H1110 C1116 0.950 . S
H1111 C1117 0.950 . S
H1112 C1118 0.949 . S
C1113 H1108 0.950 . S
C1113 C1115 1.327 . S
C1113 C1119 1.429 . S
C1114 C1106 1.574 . S
C1114 H1109 0.949 . S
C1114 C1120 1.368 . S
C1115 C1099 1.349 . S
C1115 H1107 0.950 1_556 S
C1115 C1113 1.327 . S
C1116 C1104 1.349 . S
C1116 H1110 0.950 . S
C1116 C1117 1.327 . S
C1117 H1111 0.950 . S
C1117 C1116 1.327 . S
C1117 C1121 1.429 . S
C1118 C1101 1.574 . S
C1118 H1112 0.949 . S
C1118 C1122 1.368 . S
C1119 C1100 1.429 . S
C1119 C1113 1.429 . S
C1119 C1120 1.523 . S
C1120 C1101 1.368 . S
C1120 C1114 1.368 . S
C1120 C1119 1.523 . S
C1121 C1105 1.429 . S
C1121 C1117 1.429 . S
C1121 C1122 1.523 . S
C1122 C1106 1.368 . S
C1122 C1118 1.368 . S
C1122 C1121 1.523 . S
H1123 C1098 0.950 . S
H1124 C1100 0.950 . S
H1125 C1101 0.949 . S
H1126 C1103 0.950 . S
H1127 C1105 0.950 . S
C1128 C1129 1.349 . S
C1128 C1130 1.327 . S
C1128 H1153 0.950 . S
C1129 C1128 1.349 . S
C1129 C1145 1.349 . S
C1130 C1128 1.327 . S
C1130 C1149 1.429 . S
C1130 H1154 0.950 . S
C1131 C1148 1.574 . S
C1131 C1150 1.368 . S
C1131 H1155 0.949 . S
H1132 C1136 0.949 . S
C1133 C1134 1.349 . S
C1133 C1135 1.327 . S
C1133 H1156 0.950 . S
C1134 C1133 1.349 . S
C1134 C1146 1.349 . S
C1135 C1133 1.327 . S
C1135 C1151 1.429 . S
C1135 H1157 0.950 . S
C1136 H1132 0.949 . S
C1136 C1144 1.574 . S
C1136 C1152 1.368 . S
H1137 C1145 0.950 . S
H1138 C1143 0.950 . S
H1139 C1144 0.949 . S
H1140 C1146 0.950 . S
H1141 C1147 0.950 . S
H1142 C1148 0.949 . S
C1143 H1138 0.950 . S
C1143 C1145 1.327 . S
C1143 C1149 1.429 . S
C1144 C1136 1.574 . S
C1144 H1139 0.949 . S
C1144 C1150 1.368 . S
C1145 C1129 1.349 . S
C1145 H1137 0.950 . S
C1145 C1143 1.327 . S
C1146 C1134 1.349 . S
C1146 H1140 0.950 . S
C1146 C1147 1.327 . S
C1147 H1141 0.950 . S
C1147 C1146 1.327 . S
C1147 C1151 1.429 . S
C1148 C1131 1.574 . S
C1148 H1142 0.949 . S
C1148 C1152 1.368 . S
C1149 C1130 1.429 . S
C1149 C1143 1.429 . S
C1149 C1150 1.523 . S
C1150 C1131 1.368 . S
C1150 C1144 1.368 . S
C1150 C1149 1.523 . S
C1151 C1135 1.429 . S
C1151 C1147 1.429 . S
C1151 C1152 1.523 . S
C1152 C1136 1.368 . S
C1152 C1148 1.368 . S
C1152 C1151 1.523 . S
H1153 C1128 0.950 . S
H1154 C1130 0.950 . S
H1155 C1131 0.949 . S
H1156 C1133 0.950 . S
H1157 C1135 0.950 . S
C1158 C1159 1.349 . S
C1158 C1160 1.327 . S
C1158 H1183 0.950 . S
C1159 C1158 1.349 . S
C1159 C1175 1.349 . S
C1160 C1158 1.327 . S
C1160 C1179 1.429 . S
C1160 H1184 0.950 . S
C1161 C1178 1.574 . S
C1161 C1180 1.368 . S
C1161 H1185 0.949 . S
H1162 C1166 0.949 . S
C1163 C1164 1.349 . S
C1163 C1165 1.327 . S
C1163 H1186 0.950 . S
C1164 C1163 1.349 . S
C1164 C1176 1.349 . S
C1165 C1163 1.327 . S
C1165 C1181 1.429 . S
C1165 H1187 0.950 . S
C1166 H1162 0.949 . S
C1166 C1174 1.574 . S
C1166 C1182 1.368 . S
H1167 C1175 0.950 . S
H1168 C1173 0.950 . S
H1169 C1174 0.949 . S
H1170 C1176 0.950 . S
H1171 C1177 0.950 . S
H1172 C1178 0.949 . S
C1173 H1168 0.950 . S
C1173 C1175 1.327 . S
C1173 C1179 1.429 . S
C1174 C1166 1.574 . S
C1174 H1169 0.949 . S
C1174 C1180 1.368 . S
C1175 C1159 1.349 . S
C1175 H1167 0.950 . S
C1175 C1173 1.327 . S
C1176 C1164 1.349 . S
C1176 H1170 0.950 . S
C1176 C1177 1.327 . S
C1177 H1171 0.950 . S
C1177 C1176 1.327 . S
C1177 C1181 1.429 . S
C1178 C1161 1.574 . S
C1178 H1172 0.949 . S
C1178 C1182 1.368 . S
C1179 C1160 1.429 . S
C1179 C1173 1.429 . S
C1179 C1180 1.523 . S
C1180 C1161 1.368 . S
C1180 C1174 1.368 . S
C1180 C1179 1.523 . S
C1181 C1165 1.429 . S
C1181 C1177 1.429 . S
C1181 C1182 1.523 . S
C1182 C1166 1.368 . S
C1182 C1178 1.368 . S
C1182 C1181 1.523 . S
H1183 C1158 0.950 . S
H1184 C1160 0.950 . S
H1185 C1161 0.949 . S
H1186 C1163 0.950 . S
H1187 C1165 0.950 . S
C1188 C1189 1.349 . S
C1188 C1190 1.327 . S
C1188 H1213 0.950 . S
C1189 C1188 1.349 . S
C1189 C1205 1.349 . S
C1190 C1188 1.327 . S
C1190 C1209 1.429 . S
C1190 H1214 0.950 . S
C1191 C1208 1.574 . S
C1191 C1210 1.368 . S
C1191 H1215 0.949 . S
H1192 C1196 0.949 . S
C1193 C1194 1.349 . S
C1193 C1195 1.327 . S
C1193 H1216 0.950 . S
C1194 C1193 1.349 . S
C1194 C1206 1.349 . S
C1195 C1193 1.327 . S
C1195 C1211 1.429 . S
C1195 H1217 0.950 . S
C1196 H1192 0.949 . S
C1196 C1204 1.574 . S
C1196 C1212 1.368 . S
H1197 C1205 0.950 . S
H1198 C1203 0.950 . S
H1199 C1204 0.949 . S
H1200 C1206 0.950 . S
H1201 C1207 0.950 . S
H1202 C1208 0.949 . S
C1203 H1198 0.950 . S
C1203 C1205 1.327 . S
C1203 C1209 1.429 . S
C1204 C1196 1.574 . S
C1204 H1199 0.949 . S
C1204 C1210 1.368 . S
C1205 C1189 1.349 . S
C1205 H1197 0.950 . S
C1205 C1203 1.327 . S
C1206 C1194 1.349 . S
C1206 H1200 0.950 . S
C1206 C1207 1.327 . S
C1207 H1201 0.950 . S
C1207 C1206 1.327 . S
C1207 C1211 1.429 . S
C1208 C1191 1.574 . S
C1208 H1202 0.949 . S
C1208 C1212 1.368 . S
C1209 C1190 1.429 . S
C1209 C1203 1.429 . S
C1209 C1210 1.523 . S
C1210 C1191 1.368 . S
C1210 C1204 1.368 . S
C1210 C1209 1.523 . S
C1211 C1195 1.429 . S
C1211 C1207 1.429 . S
C1211 C1212 1.523 . S
C1212 C1196 1.368 . S
C1212 C1208 1.368 . S
C1212 C1211 1.523 . S
H1213 C1188 0.950 . S
H1214 C1190 0.950 . S
H1215 C1191 0.949 . S
H1216 C1193 0.950 . S
H1217 C1195 0.950 . S
C1218 C1219 1.349 . S
C1218 C1220 1.327 . S
C1218 H1243 0.950 . S
C1219 C1218 1.349 . S
C1219 C1235 1.349 . S
C1220 C1218 1.327 . S
C1220 C1239 1.429 . S
C1220 H1244 0.950 . S
C1221 C1238 1.574 . S
C1221 C1240 1.368 . S
C1221 H1245 0.949 . S
H1222 C1226 0.949 . S
C1223 C1224 1.349 . S
C1223 C1225 1.327 . S
C1223 H1246 0.950 . S
C1224 C1223 1.349 . S
C1224 C1236 1.349 . S
C1225 C1223 1.327 . S
C1225 C1241 1.429 . S
C1225 H1247 0.950 . S
C1226 H1222 0.949 . S
C1226 C1234 1.574 . S
C1226 C1242 1.368 . S
H1227 C1235 0.950 . S
H1228 C1233 0.950 . S
H1229 C1234 0.949 . S
H1230 C1236 0.950 . S
H1231 C1237 0.950 . S
H1232 C1238 0.949 . S
C1233 H1228 0.950 . S
C1233 C1235 1.327 . S
C1233 C1239 1.429 . S
C1234 C1226 1.574 . S
C1234 H1229 0.949 . S
C1234 C1240 1.368 . S
C1235 C1219 1.349 . S
C1235 H1227 0.950 . S
C1235 C1233 1.327 . S
C1236 C1224 1.349 . S
C1236 H1230 0.950 . S
C1236 C1237 1.327 . S
C1237 H1231 0.950 . S
C1237 C1236 1.327 . S
C1237 C1241 1.429 . S
C1238 C1221 1.574 . S
C1238 H1232 0.949 . S
C1238 C1242 1.368 . S
C1239 C1220 1.429 . S
C1239 C1233 1.429 . S
C1239 C1240 1.523 . S
C1240 C1221 1.368 . S
C1240 C1234 1.368 . S
C1240 C1239 1.523 . S
C1241 C1225 1.429 . S
C1241 C1237 1.429 . S
C1241 C1242 1.523 . S
C1242 C1226 1.368 . S
C1242 C1238 1.368 . S
C1242 C1241 1.523 . S
H1243 C1218 0.950 . S
H1244 C1220 0.950 . S
H1245 C1221 0.949 . S
H1246 C1223 0.950 . S
H1247 C1225 0.950 . S
C1248 C1249 1.349 . S
C1248 C1250 1.327 . S
C1248 H1273 0.950 . S
C1249 C1248 1.349 . S
C1249 C1265 1.349 . S
C1250 C1248 1.327 . S
C1250 C1269 1.429 . S
C1250 H1274 0.950 . S
C1251 C1268 1.574 . S
C1251 C1270 1.368 . S
C1251 H1275 0.949 . S
H1252 C1256 0.949 . S
C1253 C1254 1.349 . S
C1253 C1255 1.327 . S
C1253 H1276 0.950 1_655 S
C1254 C1253 1.349 . S
C1254 C1266 1.349 . S
C1255 C1253 1.327 . S
C1255 C1271 1.429 . S
C1255 H1277 0.950 . S
C1256 H1252 0.949 . S
C1256 C1264 1.574 . S
C1256 C1272 1.368 . S
H1257 C1265 0.950 . S
H1258 C1263 0.950 . S
H1259 C1264 0.949 . S
H1260 C1266 0.950 . S
H1261 C1267 0.950 . S
H1262 C1268 0.949 . S
C1263 H1258 0.950 . S
C1263 C1265 1.327 . S
C1263 C1269 1.429 . S
C1264 C1256 1.574 . S
C1264 H1259 0.949 . S
C1264 C1270 1.368 . S
C1265 C1249 1.349 . S
C1265 H1257 0.950 . S
C1265 C1263 1.327 . S
C1266 C1254 1.349 . S
C1266 H1260 0.950 . S
C1266 C1267 1.327 . S
C1267 H1261 0.950 . S
C1267 C1266 1.327 . S
C1267 C1271 1.429 . S
C1268 C1251 1.574 . S
C1268 H1262 0.949 . S
C1268 C1272 1.368 . S
C1269 C1250 1.429 . S
C1269 C1263 1.429 . S
C1269 C1270 1.523 . S
C1270 C1251 1.368 . S
C1270 C1264 1.368 . S
C1270 C1269 1.523 . S
C1271 C1255 1.429 . S
C1271 C1267 1.429 . S
C1271 C1272 1.523 . S
C1272 C1256 1.368 . S
C1272 C1268 1.368 . S
C1272 C1271 1.523 . S
H1273 C1248 0.950 . S
H1274 C1250 0.950 . S
H1275 C1251 0.949 . S
H1276 C1253 0.950 1_455 S
H1277 C1255 0.950 . S
C1278 C1279 1.349 . S
C1278 C1280 1.327 . S
C1278 H1303 0.950 . S
C1279 C1278 1.349 . S
C1279 C1295 1.349 . S
C1280 C1278 1.327 . S
C1280 C1299 1.429 . S
C1280 H1304 0.950 . S
C1281 C1298 1.574 . S
C1281 C1300 1.368 . S
C1281 H1305 0.949 . S
H1282 C1286 0.949 . S
C1283 C1284 1.349 . S
C1283 C1285 1.327 . S
C1283 H1306 0.950 . S
C1284 C1283 1.349 . S
C1284 C1296 1.349 . S
C1285 C1283 1.327 . S
C1285 C1301 1.429 . S
C1285 H1307 0.950 . S
C1286 H1282 0.949 . S
C1286 C1294 1.574 . S
C1286 C1302 1.368 . S
H1287 C1295 0.950 . S
H1288 C1293 0.950 . S
H1289 C1294 0.949 . S
H1290 C1296 0.950 1_545 S
H1291 C1297 0.950 1_545 S
H1292 C1298 0.949 . S
C1293 H1288 0.950 . S
C1293 C1295 1.327 . S
C1293 C1299 1.429 . S
C1294 C1286 1.574 . S
C1294 H1289 0.949 . S
C1294 C1300 1.368 . S
C1295 C1279 1.349 . S
C1295 H1287 0.950 . S
C1295 C1293 1.327 . S
C1296 C1284 1.349 . S
C1296 H1290 0.950 1_565 S
C1296 C1297 1.327 . S
C1297 H1291 0.950 1_565 S
C1297 C1296 1.327 . S
C1297 C1301 1.429 . S
C1298 C1281 1.574 . S
C1298 H1292 0.949 . S
C1298 C1302 1.368 . S
C1299 C1280 1.429 . S
C1299 C1293 1.429 . S
C1299 C1300 1.523 . S
C1300 C1281 1.368 . S
C1300 C1294 1.368 . S
C1300 C1299 1.523 . S
C1301 C1285 1.429 . S
C1301 C1297 1.429 . S
C1301 C1302 1.523 . S
C1302 C1286 1.368 . S
C1302 C1298 1.368 . S
C1302 C1301 1.523 . S
H1303 C1278 0.950 . S
H1304 C1280 0.950 . S
H1305 C1281 0.949 . S
H1306 C1283 0.950 . S
H1307 C1285 0.950 . S
C1308 C1309 1.349 . S
C1308 C1310 1.327 . S
C1308 H1333 0.950 . S
C1309 C1308 1.349 . S
C1309 C1325 1.349 . S
C1310 C1308 1.327 . S
C1310 C1329 1.429 . S
C1310 H1334 0.950 . S
C1311 C1328 1.574 . S
C1311 C1330 1.368 . S
C1311 H1335 0.949 . S
H1312 C1316 0.949 . S
C1313 C1314 1.349 . S
C1313 C1315 1.327 . S
C1313 H1336 0.950 . S
C1314 C1313 1.349 . S
C1314 C1326 1.349 . S
C1315 C1313 1.327 . S
C1315 C1331 1.429 . S
C1315 H1337 0.950 . S
C1316 H1312 0.949 . S
C1316 C1324 1.574 . S
C1316 C1332 1.368 . S
H1317 C1325 0.950 . S
H1318 C1323 0.950 . S
H1319 C1324 0.949 . S
H1320 C1326 0.950 . S
H1321 C1327 0.950 . S
H1322 C1328 0.949 . S
C1323 H1318 0.950 . S
C1323 C1325 1.327 . S
C1323 C1329 1.429 . S
C1324 C1316 1.574 . S
C1324 H1319 0.949 . S
C1324 C1330 1.368 . S
C1325 C1309 1.349 . S
C1325 H1317 0.950 . S
C1325 C1323 1.327 . S
C1326 C1314 1.349 . S
C1326 H1320 0.950 . S
C1326 C1327 1.327 . S
C1327 H1321 0.950 . S
C1327 C1326 1.327 . S
C1327 C1331 1.429 . S
C1328 C1311 1.574 . S
C1328 H1322 0.949 . S
C1328 C1332 1.368 . S
C1329 C1310 1.429 . S
C1329 C1323 1.429 . S
C1329 C1330 1.523 . S
C1330 C1311 1.368 . S
C1330 C1324 1.368 . S
C1330 C1329 1.523 . S
C1331 C1315 1.429 . S
C1331 C1327 1.429 . S
C1331 C1332 1.523 . S
C1332 C1316 1.368 . S
C1332 C1328 1.368 . S
C1332 C1331 1.523 . S
H1333 C1308 0.950 . S
H1334 C1310 0.950 . S
H1335 C1311 0.949 . S
H1336 C1313 0.950 . S
H1337 C1315 0.950 . S
C1338 C1339 1.349 . S
C1338 C1340 1.327 . S
C1338 H1363 0.950 . S
C1339 C1338 1.349 . S
C1339 C1355 1.349 . S
C1340 C1338 1.327 . S
C1340 C1359 1.429 . S
C1340 H1364 0.950 . S
C1341 C1358 1.574 . S
C1341 C1360 1.368 . S
C1341 H1365 0.949 . S
H1342 C1346 0.949 . S
C1343 C1344 1.349 . S
C1343 C1345 1.327 . S
C1343 H1366 0.950 . S
C1344 C1343 1.349 . S
C1344 C1356 1.349 . S
C1345 C1343 1.327 . S
C1345 C1361 1.429 . S
C1345 H1367 0.950 . S
C1346 H1342 0.949 . S
C1346 C1354 1.574 . S
C1346 C1362 1.368 . S
H1347 C1355 0.950 . S
H1348 C1353 0.950 . S
H1349 C1354 0.949 . S
H1350 C1356 0.950 . S
H1351 C1357 0.950 . S
H1352 C1358 0.949 . S
C1353 H1348 0.950 . S
C1353 C1355 1.327 . S
C1353 C1359 1.429 . S
C1354 C1346 1.574 . S
C1354 H1349 0.949 . S
C1354 C1360 1.368 . S
C1355 C1339 1.349 . S
C1355 H1347 0.950 . S
C1355 C1353 1.327 . S
C1356 C1344 1.349 . S
C1356 H1350 0.950 . S
C1356 C1357 1.327 . S
C1357 H1351 0.950 . S
C1357 C1356 1.327 . S
C1357 C1361 1.429 . S
C1358 C1341 1.574 . S
C1358 H1352 0.949 . S
C1358 C1362 1.368 . S
C1359 C1340 1.429 . S
C1359 C1353 1.429 . S
C1359 C1360 1.523 . S
C1360 C1341 1.368 . S
C1360 C1354 1.368 . S
C1360 C1359 1.523 . S
C1361 C1345 1.429 . S
C1361 C1357 1.429 . S
C1361 C1362 1.523 . S
C1362 C1346 1.368 . S
C1362 C1358 1.368 . S
C1362 C1361 1.523 . S
H1363 C1338 0.950 . S
H1364 C1340 0.950 . S
H1365 C1341 0.949 . S
H1366 C1343 0.950 . S
H1367 C1345 0.950 . S
C649 C255 2.066 . S
C654 C386 2.119 . S
C684 C470 2.161 . S
C679 C294 2.096 . S
C714 C536 2.127 . S
C709 C177 2.237 . S
C744 C620 2.106 . S
C739 C216 2.218 . S
C774 C375 2.119 1_565 S
C769 C99 2.079 . S
C799 C138 2.083 . S
C804 C459 2.161 . S
C829 C21 2.250 . S
C834 C547 2.126 . S
C859 C60 2.232 . S
C864 C631 2.107 . S
C894 C382 0.432 1_455 S
C889 C196 0.460 . S
C924 C466 0.407 1_545 S
C919 C235 0.421 . S
C954 C538 0.444 . S
C949 C289 0.420 . S
C979 C157 0.448 . S
C984 C622 0.454 . S
C1009 C40 0.447 . S
C1014 C370 0.432 . S
C1044 C454 0.408 . S
C1039 C79 0.406 . S
C1074 C550 0.444 . S
C1069 C133 0.409 . S
C1099 C1 0.433 . S
C1104 C634 0.454 . S
C1129 C211 2.606 . S
C1134 C379 2.719 . S
C1159 C250 2.549 . S
C1164 C463 2.661 . S
C1194 C543 2.670 . S
C1189 C274 2.429 . S
C1224 C627 2.706 . S
C1219 C172 2.457 . S
C1249 C55 2.601 . S
C1254 C368 2.718 . S
C1284 C452 2.662 . S
C1279 C94 2.547 . S
C1314 C554 2.670 . S
C1309 C118 2.422 . S
C1339 C16 2.454 . S
C1344 C638 2.708 . S
