# Generated by pormake.
# Topology pyr, (3,6)-cn, num edge types: 1
# Building blocks:
#     Node 0, Type 0, BuildingBlock: BELTOD_clean_linker_0, # of connection points: 3
#     Node 1, Type 0, BuildingBlock: BELTOD_clean_linker_0, # of connection points: 3
#     Node 2, Type 0, BuildingBlock: BELTOD_clean_linker_0, # of connection points: 3
#     Node 3, Type 0, BuildingBlock: BELTOD_clean_linker_0, # of connection points: 3
#     Node 4, Type 0, BuildingBlock: BELTOD_clean_linker_0, # of connection points: 3
#     Node 5, Type 0, BuildingBlock: BELTOD_clean_linker_0, # of connection points: 3
#     Node 6, Type 0, BuildingBlock: BELTOD_clean_linker_0, # of connection points: 3
#     Node 7, Type 0, BuildingBlock: BELTOD_clean_linker_0, # of connection points: 3
#     Node 8, Type 1, BuildingBlock: MIFKUJ_clean_sbu_0, # of connection points: 6
#     Node 9, Type 1, BuildingBlock: MIFKUJ_clean_sbu_0, # of connection points: 6
#     Node 10, Type 1, BuildingBlock: MIFKUJ_clean_sbu_0, # of connection points: 6
#     Node 11, Type 1, BuildingBlock: MIFKUJ_clean_sbu_0, # of connection points: 6
#     Edge 12, Type (0, 1), BuildingBlock: XIVTED_clean_linker_0, # of connection points: 2
#     Edge 13, Type (0, 1), BuildingBlock: XIVTED_clean_linker_0, # of connection points: 2
#     Edge 14, Type (0, 1), BuildingBlock: XIVTED_clean_linker_0, # of connection points: 2
#     Edge 15, Type (0, 1), BuildingBlock: XIVTED_clean_linker_0, # of connection points: 2
#     Edge 16, Type (0, 1), BuildingBlock: XIVTED_clean_linker_0, # of connection points: 2
#     Edge 17, Type (0, 1), BuildingBlock: XIVTED_clean_linker_0, # of connection points: 2
#     Edge 18, Type (0, 1), BuildingBlock: XIVTED_clean_linker_0, # of connection points: 2
#     Edge 19, Type (0, 1), BuildingBlock: XIVTED_clean_linker_0, # of connection points: 2
#     Edge 20, Type (0, 1), BuildingBlock: XIVTED_clean_linker_0, # of connection points: 2
#     Edge 21, Type (0, 1), BuildingBlock: XIVTED_clean_linker_0, # of connection points: 2
#     Edge 22, Type (0, 1), BuildingBlock: XIVTED_clean_linker_0, # of connection points: 2
#     Edge 23, Type (0, 1), BuildingBlock: XIVTED_clean_linker_0, # of connection points: 2
#     Edge 24, Type (0, 1), BuildingBlock: XIVTED_clean_linker_0, # of connection points: 2
#     Edge 25, Type (0, 1), BuildingBlock: XIVTED_clean_linker_0, # of connection points: 2
#     Edge 26, Type (0, 1), BuildingBlock: XIVTED_clean_linker_0, # of connection points: 2
#     Edge 27, Type (0, 1), BuildingBlock: XIVTED_clean_linker_0, # of connection points: 2
#     Edge 28, Type (0, 1), BuildingBlock: XIVTED_clean_linker_0, # of connection points: 2
#     Edge 29, Type (0, 1), BuildingBlock: XIVTED_clean_linker_0, # of connection points: 2
#     Edge 30, Type (0, 1), BuildingBlock: XIVTED_clean_linker_0, # of connection points: 2
#     Edge 31, Type (0, 1), BuildingBlock: XIVTED_clean_linker_0, # of connection points: 2
#     Edge 32, Type (0, 1), BuildingBlock: XIVTED_clean_linker_0, # of connection points: 2
#     Edge 33, Type (0, 1), BuildingBlock: XIVTED_clean_linker_0, # of connection points: 2
#     Edge 34, Type (0, 1), BuildingBlock: XIVTED_clean_linker_0, # of connection points: 2
#     Edge 35, Type (0, 1), BuildingBlock: XIVTED_clean_linker_0, # of connection points: 2
# Relax obj value: 0.031
# Max RMSD: 0.086
# Mean RMSD: 0.052
data_MOF--net-pyr--node1-MIFKUJ_clean_sbu_0--node2-BELTOD_clean_linker_0--edge1-XIVTED_clean_linker_0
_symmetry_space_group_name_H-M    P1
_symmetry_Int_Tables_number       1
_symmetry_cell_setting            triclinic
loop_
_symmetry_equiv_pos_as_xyz
'x, y, z'
_cell_length_a     44.810603
_cell_length_b     40.492689
_cell_length_c     42.981217
_cell_angle_alpha  86.050295
_cell_angle_beta   88.398821
_cell_angle_gamma 96.109845
loop_
_atom_site_label
_atom_site_type_symbol
_atom_site_fract_x
_atom_site_fract_y
_atom_site_fract_z
_atom_type_partial_charge
P0 P 0.24423 0.23172 0.24966 0.0
H1 H 0.3013 0.24511 0.21464 0.0
H2 H 0.32962 0.21097 0.18227 0.0
H3 H 0.26183 0.12756 0.20301 0.0
H4 H 0.23395 0.16159 0.23546 0.0
H5 H 0.21531 0.29181 0.25747 0.0
H6 H 0.18301 0.32283 0.22396 0.0
H7 H 0.194 0.25559 0.15165 0.0
H8 H 0.22635 0.22512 0.18497 0.0
H9 H 0.24997 0.20064 0.31231 0.0
H10 H 0.18108 0.20602 0.24458 0.0
O11 O 0.26725 0.25669 0.26981 0.0
H12 H 0.2144 0.16536 0.34805 0.0
H13 H 0.14571 0.17087 0.27985 0.0
C14 C 0.26595 0.20567 0.22801 0.0
C15 C 0.2928 0.21933 0.2125 0.0
C16 C 0.30877 0.19991 0.19377 0.0
C17 C 0.298 0.16652 0.19017 0.0
C18 C 0.27098 0.15301 0.20574 0.0
C19 C 0.25501 0.17248 0.22434 0.0
C20 C 0.22377 0.2567 0.22346 0.0
C21 C 0.21116 0.28419 0.23418 0.0
C22 C 0.19246 0.30163 0.21515 0.0
C23 C 0.186 0.29167 0.18514 0.0
C24 C 0.19894 0.26422 0.17443 0.0
C25 C 0.21752 0.24678 0.1935 0.0
C26 C 0.21793 0.20667 0.27621 0.0
C27 C 0.22716 0.19444 0.30526 0.0
C28 C 0.20692 0.17409 0.3255 0.0
C29 C 0.17718 0.16563 0.31684 0.0
C30 C 0.16827 0.17753 0.28744 0.0
C31 C 0.18851 0.19768 0.26724 0.0
P32 P 0.37384 0.89009 0.64643 0.0
H33 H 0.37316 0.94884 0.68171 0.0
H34 H 0.38276 0.95899 0.73606 0.0
H35 H 0.39535 0.85515 0.75481 0.0
H36 H 0.38423 0.84501 0.70107 0.0
H37 H 0.43042 0.87005 0.62216 0.0
H38 H 0.44493 0.81664 0.6072 0.0
H39 H 0.35687 0.76917 0.63723 0.0
H40 H 0.34244 0.8228 0.65163 0.0
H41 H 0.32003 0.91503 0.6743 0.0
H42 H 0.345 0.87195 0.58962 0.0
O43 O 0.39614 0.92007 0.62607 0.0
H44 H 0.2707 0.92226 0.65394 0.0
H45 H 0.29531 0.87749 0.56974 0.0
C46 C 0.37809 0.89626 0.68725 0.0
C47 C 0.37756 0.9282 0.69771 0.0
C48 C 0.38332 0.934 0.72876 0.0
C49 C 0.39018 0.90798 0.74991 0.0
C50 C 0.38981 0.87575 0.73943 0.0
C51 C 0.38367 0.86993 0.70846 0.0
C52 C 0.38515 0.85043 0.63728 0.0
C53 C 0.41427 0.84813 0.6255 0.0
C54 C 0.4226 0.81753 0.6172 0.0
C55 C 0.40195 0.7887 0.62073 0.0
C56 C 0.3731 0.79102 0.63362 0.0
C57 C 0.36484 0.8216 0.64194 0.0
C58 C 0.3362 0.89274 0.63356 0.0
C59 C 0.31483 0.90668 0.65152 0.0
C60 C 0.28644 0.91057 0.6399 0.0
C61 C 0.27894 0.90056 0.6101 0.0
C62 C 0.30037 0.88605 0.59252 0.0
C63 C 0.32875 0.88252 0.60401 0.0
P64 P 0.69316 0.31655 0.79548 0.0
H65 H 0.72745 0.29815 0.8491 0.0
H66 H 0.76745 0.3282 0.87683 0.0
H67 H 0.75776 0.41766 0.81885 0.0
H68 H 0.71791 0.3873 0.79103 0.0
H69 H 0.65411 0.25726 0.78349 0.0
H70 H 0.61882 0.21899 0.81657 0.0
H71 H 0.63417 0.28163 0.89322 0.0
H72 H 0.66936 0.31998 0.85985 0.0
H73 H 0.70359 0.33042 0.72829 0.0
H74 H 0.64339 0.35797 0.7997 0.0
O75 O 0.71295 0.2909 0.77674 0.0
H76 H 0.67664 0.3598 0.68844 0.0
H77 H 0.61606 0.38754 0.75966 0.0
C78 C 0.71938 0.34058 0.81835 0.0
C79 C 0.73354 0.32441 0.84278 0.0
C80 C 0.75638 0.34165 0.85866 0.0
C81 C 0.76582 0.37535 0.85008 0.0
C82 C 0.75119 0.39164 0.82586 0.0
C83 C 0.72822 0.37437 0.81008 0.0
C84 C 0.66496 0.29089 0.81948 0.0
C85 C 0.64969 0.26288 0.80735 0.0
C86 C 0.62936 0.24116 0.82622 0.0
C87 C 0.62394 0.24712 0.85761 0.0
C88 C 0.63828 0.27611 0.86928 0.0
C89 C 0.65842 0.29801 0.85024 0.0
C90 C 0.67512 0.34151 0.76687 0.0
C91 C 0.68462 0.34292 0.73543 0.0
C92 C 0.66913 0.35967 0.71263 0.0
C93 C 0.64396 0.37559 0.72085 0.0
C94 C 0.63539 0.37554 0.75261 0.0
C95 C 0.65086 0.35855 0.77546 0.0
P96 P 0.81807 0.68498 0.29257 0.0
H97 H 0.86107 0.74394 0.28069 0.0
H98 H 0.88882 0.78049 0.31519 0.0
H99 H 0.85824 0.71249 0.39439 0.0
H100 H 0.82992 0.67647 0.35967 0.0
H101 H 0.79581 0.64272 0.24498 0.0
H102 H 0.82011 0.60822 0.2096 0.0
H103 H 0.90367 0.62829 0.25599 0.0
H104 H 0.87912 0.66297 0.29144 0.0
H105 H 0.75974 0.7072 0.30649 0.0
H106 H 0.80456 0.61963 0.32729 0.0
O107 O 0.80648 0.71265 0.26625 0.0
H108 H 0.71448 0.68052 0.33465 0.0
H109 H 0.75914 0.59264 0.35572 0.0
C110 C 0.84288 0.70792 0.31769 0.0
C111 C 0.86064 0.7367 0.30545 0.0
C112 C 0.8767 0.75749 0.32524 0.0
C113 C 0.87548 0.74974 0.35771 0.0
C114 C 0.85916 0.71963 0.36961 0.0
C115 C 0.84305 0.69888 0.34974 0.0
C116 C 0.83567 0.6555 0.27069 0.0
C117 C 0.81926 0.6393 0.24785 0.0
C118 C 0.83319 0.61973 0.22756 0.0
C119 C 0.86387 0.61581 0.22982 0.0
C120 C 0.87997 0.63075 0.25379 0.0
C121 C 0.86599 0.65065 0.27399 0.0
C122 C 0.78524 0.66509 0.31423 0.0
C123 C 0.75979 0.68213 0.31703 0.0
C124 C 0.73391 0.66685 0.33312 0.0
C125 C 0.73313 0.63436 0.34716 0.0
C126 C 0.75908 0.61773 0.34522 0.0
C127 C 0.78495 0.63299 0.32882 0.0
P128 P 0.87397 0.90471 0.8779 0.0
H129 H 0.84504 0.92922 0.93205 0.0
H130 H 0.79263 0.93468 0.946 0.0
H131 H 0.76517 0.89088 0.86102 0.0
H132 H 0.81769 0.88589 0.84707 0.0
H133 H 0.92227 0.88021 0.91461 0.0
H134 H 0.93541 0.82413 0.92855 0.0
H135 H 0.85874 0.78264 0.87978 0.0
H136 H 0.84564 0.8387 0.86619 0.0
H137 H 0.84919 0.9481 0.82996 0.0
H138 H 0.91689 0.87994 0.83523 0.0
O139 O 0.89575 0.93288 0.89597 0.0
H140 H 0.85955 0.95834 0.77387 0.0
H141 H 0.92835 0.89112 0.77961 0.0
C142 C 0.83526 0.90795 0.88819 0.0
C143 C 0.82774 0.9209 0.91639 0.0
C144 C 0.79775 0.92372 0.92446 0.0
C145 C 0.77477 0.91341 0.9045 0.0
C146 C 0.7824 0.89956 0.87662 0.0
C147 C 0.81239 0.89664 0.86866 0.0
C148 C 0.88264 0.86353 0.88991 0.0
C149 C 0.90812 0.85903 0.9072 0.0
C150 C 0.91578 0.82699 0.91489 0.0
C151 C 0.89806 0.79897 0.90532 0.0
C152 C 0.87256 0.80369 0.88791 0.0
C153 C 0.86502 0.83572 0.88016 0.0
C154 C 0.88152 0.91238 0.83657 0.0
C155 C 0.86613 0.93514 0.81901 0.0
C156 C 0.87232 0.94124 0.78696 0.0
C157 C 0.89458 0.92527 0.77206 0.0
C158 C 0.91048 0.90314 0.79005 0.0
C159 C 0.90405 0.89684 0.82199 0.0
P160 P 0.71348 0.21483 0.27826 0.0
H161 H 0.72698 0.27519 0.31049 0.0
H162 H 0.69763 0.30431 0.3464 0.0
H163 H 0.62255 0.22872 0.34128 0.0
H164 H 0.65209 0.1998 0.30515 0.0
H165 H 0.75683 0.17216 0.25685 0.0
H166 H 0.79156 0.13858 0.284 0.0
H167 H 0.75782 0.16695 0.37245 0.0
H168 H 0.72241 0.19916 0.34523 0.0
H169 H 0.67624 0.2385 0.22951 0.0
H170 H 0.69627 0.14336 0.27011 0.0
O171 O 0.73608 0.24361 0.25679 0.0
H172 H 0.6432 0.21055 0.19311 0.0
H173 H 0.66439 0.11508 0.23275 0.0
C174 C 0.69146 0.23581 0.30468 0.0
C175 C 0.70416 0.26499 0.31699 0.0
C176 C 0.68744 0.28143 0.33772 0.0
C177 C 0.65772 0.26886 0.34659 0.0
C178 C 0.64523 0.23926 0.33452 0.0
C179 C 0.66208 0.22271 0.31391 0.0
C180 C 0.73697 0.18803 0.29895 0.0
C181 C 0.75669 0.17074 0.28212 0.0
C182 C 0.77672 0.1518 0.2977 0.0
C183 C 0.7777 0.1502 0.33047 0.0
C184 C 0.75746 0.1672 0.34726 0.0
C185 C 0.73726 0.18589 0.33164 0.0
C186 C 0.68917 0.19308 0.25202 0.0
C187 C 0.67376 0.21155 0.23031 0.0
C188 C 0.65503 0.19548 0.20936 0.0
C189 C 0.65145 0.1605 0.20957 0.0
C190 C 0.6665 0.14202 0.23194 0.0
C191 C 0.68505 0.15819 0.25314 0.0
P192 P 0.35604 0.61284 0.1609 0.0
H193 H 0.32891 0.5851 0.10635 0.0
H194 H 0.27718 0.57421 0.09073 0.0
H195 H 0.24647 0.61397 0.17533 0.0
H196 H 0.29854 0.62362 0.1913 0.0
H197 H 0.40884 0.64244 0.12336 0.0
H198 H 0.42726 0.69969 0.10588 0.0
H199 H 0.35179 0.73432 0.15389 0.0
H200 H 0.33323 0.67664 0.17101 0.0
H201 H 0.32907 0.56083 0.20691 0.0
H202 H 0.39667 0.64519 0.20464 0.0
O203 O 0.37622 0.5874 0.14235 0.0
H204 H 0.34162 0.5447 0.2605 0.0
H205 H 0.40972 0.62899 0.25773 0.0
C206 C 0.3175 0.6045 0.15028 0.0
C207 C 0.31103 0.59119 0.12169 0.0
C208 C 0.28137 0.58537 0.11259 0.0
C209 C 0.25749 0.59321 0.13171 0.0
C210 C 0.26418 0.60711 0.16022 0.0
C211 C 0.29395 0.61275 0.16937 0.0
C212 C 0.36943 0.65525 0.14812 0.0
C213 C 0.39616 0.66228 0.13006 0.0
C214 C 0.40682 0.69512 0.12027 0.0
C215 C 0.391 0.72163 0.12847 0.0
C216 C 0.36428 0.71446 0.14681 0.0
C217 C 0.35368 0.68152 0.15667 0.0
C218 C 0.3614 0.60464 0.202 0.0
C219 C 0.34616 0.57629 0.21817 0.0
C220 C 0.35361 0.56689 0.24869 0.0
C221 C 0.37673 0.58552 0.26349 0.0
C222 C 0.39146 0.61437 0.24735 0.0
C223 C 0.384 0.62369 0.21687 0.0
P224 P 0.17934 0.30309 0.73799 0.0
H225 H 0.19876 0.24695 0.70828 0.0
H226 H 0.17623 0.20998 0.67086 0.0
H227 H 0.09806 0.26388 0.66895 0.0
H228 H 0.12105 0.30126 0.70641 0.0
H229 H 0.24128 0.32193 0.75458 0.0
H230 H 0.28408 0.35357 0.72625 0.0
H231 H 0.22781 0.3736 0.64857 0.0
H232 H 0.18507 0.34103 0.67703 0.0
H233 H 0.12021 0.28587 0.76842 0.0
H234 H 0.18517 0.37257 0.75501 0.0
O235 O 0.19351 0.27834 0.76514 0.0
H236 H 0.09026 0.31514 0.80359 0.0
H237 H 0.15598 0.40163 0.79093 0.0
C238 C 0.16133 0.27636 0.71063 0.0
C239 C 0.17672 0.25078 0.69991 0.0
C240 C 0.1639 0.22981 0.67833 0.0
C241 C 0.13534 0.23399 0.66696 0.0
C242 C 0.11995 0.25985 0.67758 0.0
C243 C 0.13304 0.28116 0.69901 0.0
C244 C 0.21014 0.32873 0.7177 0.0
C245 C 0.23811 0.33314 0.73147 0.0
C246 C 0.26257 0.3515 0.71528 0.0
C247 C 0.25949 0.36608 0.68502 0.0
C248 C 0.23112 0.36226 0.6716 0.0
C249 C 0.20662 0.34384 0.68789 0.0
C250 C 0.15458 0.32721 0.75848 0.0
C251 C 0.12769 0.31148 0.77249 0.0
C252 C 0.1108 0.32814 0.79297 0.0
C253 C 0.12076 0.36075 0.80037 0.0
C254 C 0.14734 0.37677 0.78551 0.0
C255 C 0.16413 0.36009 0.7649 0.0
Zn256 Zn 0.02883 0.98788 0.5227 0.0
Zn257 Zn 0.97031 0.00913 0.48945 0.0
C258 C 0.05939 0.05013 0.53607 0.0
O259 O 0.0792 0.03938 0.51719 0.0
C260 C 0.94413 0.94411 0.47918 0.0
O261 O 0.92366 0.95402 0.49784 0.0
O262 O 0.06323 0.96399 0.53919 0.0
O263 O 0.99046 0.96224 0.541 0.0
O264 O 0.96357 0.00457 0.53591 0.0
C265 C 0.08343 0.95438 0.52165 0.0
O266 O 0.08125 0.95807 0.49124 0.0
O267 O 0.03439 0.03244 0.54182 0.0
C268 C 0.93771 0.03709 0.44115 0.0
O269 O 0.96126 0.0294 0.42541 0.0
O270 O 0.93597 0.03074 0.47056 0.0
O271 O 0.00739 0.03765 0.47316 0.0
O272 O 0.03557 0.99649 0.47597 0.0
O273 O 0.968 0.9635 0.47238 0.0
C274 C 0.96994 0.97846 0.55124 0.0
C275 C 0.0302 0.02462 0.46378 0.0
Zn276 Zn 0.51963 0.98342 0.99805 0.0
Zn277 Zn 0.47 0.01867 0.02377 0.0
C278 C 0.48098 0.94644 0.95618 0.0
O279 O 0.48773 0.92035 0.97336 0.0
C280 C 0.50706 0.06024 0.05934 0.0
O281 O 0.49328 0.08164 0.04218 0.0
O282 O 0.55753 0.96417 0.98651 0.0
O283 O 0.53128 0.03276 0.99737 0.0
O284 O 0.4864 0.04294 0.98287 0.0
C285 C 0.56839 0.97014 0.95882 0.0
O286 O 0.55422 0.98813 0.93867 0.0
O287 O 0.49141 0.97539 0.96293 0.0
C288 C 0.42299 0.02932 0.06502 0.0
O289 O 0.43329 0.00335 0.07932 0.0
O290 O 0.43454 0.04053 0.03854 0.0
O291 O 0.45699 0.96912 0.02635 0.0
O292 O 0.50243 0.95773 0.03741 0.0
O293 O 0.50084 0.02928 0.05621 0.0
C294 C 0.51461 0.05126 0.98238 0.0
C295 C 0.47422 0.94972 0.03926 0.0
Zn296 Zn 0.50788 0.46408 0.48807 0.0
Zn297 Zn 0.48389 0.51948 0.52684 0.0
C298 C 0.54564 0.50835 0.44635 0.0
O299 O 0.52707 0.49418 0.42686 0.0
C300 C 0.44458 0.48701 0.57445 0.0
O301 O 0.46434 0.50431 0.59062 0.0
O302 O 0.52067 0.42455 0.46731 0.0
O303 O 0.50802 0.45196 0.53409 0.0
O304 O 0.52154 0.50339 0.5453 0.0
C305 C 0.54614 0.41597 0.47482 0.0
O306 O 0.56109 0.43207 0.49602 0.0
O307 O 0.54144 0.5006 0.47546 0.0
C308 C 0.45326 0.57444 0.53898 0.0
O309 O 0.4336 0.557 0.52281 0.0
O310 O 0.47835 0.5635 0.54414 0.0
O311 O 0.47948 0.5279 0.48009 0.0
O312 O 0.46945 0.47572 0.46923 0.0
O313 O 0.44833 0.48826 0.54492 0.0
C314 C 0.52212 0.47224 0.55117 0.0
C315 C 0.46688 0.50639 0.46309 0.0
Zn316 Zn 0.98508 0.5192 0.99074 0.0
Zn317 Zn 0.01113 0.46703 0.03925 0.0
C318 C 0.94738 0.48663 0.94866 0.0
O319 O 0.96809 0.50367 0.92998 0.0
C320 C 0.0506 0.50967 0.07109 0.0
O321 O 0.03227 0.495 0.09347 0.0
O322 O 0.97974 0.56322 0.96807 0.0
O323 O 0.97971 0.52937 0.03591 0.0
O324 O 0.97419 0.47976 0.06118 0.0
C325 C 0.95377 0.57236 0.9726 0.0
O326 O 0.93387 0.55268 0.99015 0.0
O327 O 0.94983 0.48789 0.97799 0.0
C328 C 0.05055 0.4202 0.05397 0.0
O329 O 0.06228 0.43472 0.02749 0.0
O330 O 0.02593 0.42879 0.06444 0.0
O331 O 0.00863 0.45258 0.99528 0.0
O332 O 0.02288 0.50258 0.9735 0.0
O333 O 0.04525 0.50351 0.04301 0.0
C334 C 0.96967 0.51026 0.05942 0.0
C335 C 0.02219 0.47114 0.97311 0.0
H336 H 0.11866 0.1745 0.32978 0.0
H337 H 0.08631 0.0102 0.44547 0.0
H338 H 0.18599 0.10896 0.3527 0.0
H339 H 0.02306 0.08241 0.42959 0.0
H340 H 0.12228 0.04399 0.40933 0.0
H341 H 0.08254 0.13912 0.36424 0.0
C342 C 0.1258 0.15254 0.34199 0.0
C343 C 0.15535 0.14461 0.33831 0.0
C344 C 0.1005 0.05237 0.41372 0.0
C345 C 0.11413 0.10404 0.37802 0.0
C346 C 0.0799 0.03302 0.43426 0.0
C347 C 0.05165 0.04352 0.44065 0.0
C348 C 0.09272 0.08233 0.39938 0.0
C349 C 0.04462 0.07339 0.42549 0.0
C350 C 0.1052 0.13243 0.36179 0.0
C351 C 0.1635 0.11615 0.35509 0.0
N352 N 0.06501 0.09172 0.40561 0.0
N353 N 0.14296 0.09682 0.37418 0.0
H354 H 0.37826 0.86797 0.80439 0.0
H355 H 0.47156 0.99405 0.91028 0.0
H356 H 0.4235 0.96333 0.76915 0.0
H357 H 0.45077 0.88922 0.93716 0.0
H358 H 0.44605 0.98584 0.86149 0.0
H359 H 0.39734 0.878 0.85604 0.0
C360 C 0.39214 0.89102 0.80741 0.0
C361 C 0.39938 0.91472 0.78213 0.0
C362 C 0.44695 0.96467 0.87814 0.0
C363 C 0.4208 0.92654 0.84144 0.0
C364 C 0.46142 0.96934 0.90606 0.0
C365 C 0.46353 0.9422 0.92774 0.0
C366 C 0.43426 0.9327 0.8719 0.0
C367 C 0.44989 0.91078 0.921 0.0
C368 C 0.40288 0.89676 0.83698 0.0
C369 C 0.4169 0.94446 0.78784 0.0
N370 N 0.43589 0.90686 0.89361 0.0
N371 N 0.42705 0.94945 0.8168 0.0
H372 H 0.62604 0.34876 0.66709 0.0
H373 H 0.54831 0.50596 0.59872 0.0
H374 H 0.62054 0.43597 0.71835 0.0
H375 H 0.53635 0.40878 0.56251 0.0
H376 H 0.57788 0.48313 0.64075 0.0
H377 H 0.59659 0.37287 0.62629 0.0
C378 C 0.61878 0.37314 0.66966 0.0
C379 C 0.62592 0.39046 0.6961 0.0
C380 C 0.56868 0.46687 0.6236 0.0
C381 C 0.59185 0.41822 0.64941 0.0
C382 C 0.5519 0.47988 0.59958 0.0
C383 C 0.53982 0.45927 0.57703 0.0
C384 C 0.57369 0.43313 0.62483 0.0
C385 C 0.5451 0.42564 0.57936 0.0
C386 C 0.60176 0.3868 0.64643 0.0
C387 C 0.61541 0.42171 0.69841 0.0
N388 N 0.56171 0.41372 0.60268 0.0
N389 N 0.59901 0.43471 0.67527 0.0
H390 H 0.90348 0.56852 0.23798 0.0
H391 H 0.94245 0.56728 0.05601 0.0
H392 H 0.85953 0.62387 0.16675 0.0
H393 H 0.95977 0.48587 0.12081 0.0
H394 H 0.91656 0.59174 0.09785 0.0
H395 H 0.92887 0.54114 0.1969 0.0
C396 C 0.89919 0.57487 0.21374 0.0
C397 C 0.87925 0.59835 0.20575 0.0
C398 C 0.9259 0.56846 0.10296 0.0
C399 C 0.90829 0.56752 0.15887 0.0
C400 C 0.9408 0.5545 0.07908 0.0
C401 C 0.95326 0.52441 0.08488 0.0
C402 C 0.92375 0.5526 0.13314 0.0
C403 C 0.95031 0.50899 0.11529 0.0
C404 C 0.91352 0.55915 0.19038 0.0
C405 C 0.87441 0.60562 0.174 0.0
N406 N 0.93603 0.52339 0.13839 0.0
N407 N 0.88894 0.59046 0.1518 0.0
H408 H 0.32529 0.18432 0.13267 0.0
H409 H 0.39208 0.0101 0.12005 0.0
H410 H 0.30873 0.10163 0.20206 0.0
H411 H 0.4042 0.08995 0.04741 0.0
H412 H 0.3598 0.0426 0.14938 0.0
H413 H 0.35331 0.14988 0.10045 0.0
C414 C 0.32765 0.15895 0.14117 0.0
C415 C 0.31475 0.14586 0.17016 0.0
C416 C 0.36933 0.05296 0.12693 0.0
C417 C 0.34651 0.10622 0.13328 0.0
C418 C 0.38775 0.03438 0.11013 0.0
C419 C 0.40099 0.0474 0.0813 0.0
C420 C 0.36422 0.08493 0.11494 0.0
C421 C 0.39449 0.07895 0.06956 0.0
C422 C 0.34345 0.13923 0.12267 0.0
C423 C 0.31807 0.11266 0.17976 0.0
N424 N 0.37673 0.09676 0.08654 0.0
N425 N 0.33372 0.09405 0.16144 0.0
H426 H 0.26702 0.91916 0.54951 0.0
H427 H 0.0946 0.9408 0.58344 0.0
H428 H 0.22334 0.89537 0.64036 0.0
H429 H 0.13454 0.94118 0.49081 0.0
H430 H 0.14151 0.92543 0.60525 0.0
H431 H 0.21876 0.92877 0.52807 0.0
C432 C 0.24727 0.91557 0.56496 0.0
C433 C 0.24939 0.90623 0.59685 0.0
C434 C 0.1399 0.92864 0.58016 0.0
C435 C 0.19386 0.91799 0.57238 0.0
C436 C 0.11314 0.93742 0.56768 0.0
C437 C 0.11066 0.94241 0.53523 0.0
C438 C 0.16444 0.92515 0.56006 0.0
C439 C 0.1354 0.93763 0.51595 0.0
C440 C 0.21967 0.92126 0.55268 0.0
C441 C 0.22295 0.90291 0.61574 0.0
N442 N 0.1613 0.92953 0.52867 0.0
N443 N 0.19632 0.90889 0.60324 0.0
H444 H 0.81208 0.41755 0.82206 0.0
H445 H 0.89896 0.44955 0.97959 0.0
H446 H 0.77947 0.37245 0.91221 0.0
H447 H 0.93486 0.48304 0.88718 0.0
H448 H 0.8542 0.42257 0.95621 0.0
H449 H 0.85597 0.44412 0.84646 0.0
C450 C 0.81398 0.4135 0.84707 0.0
C451 C 0.79196 0.39279 0.8651 0.0
C452 C 0.87195 0.43576 0.94111 0.0
C453 C 0.84259 0.42283 0.89325 0.0
C454 C 0.89752 0.45111 0.95443 0.0
C455 C 0.92072 0.46862 0.93534 0.0
C456 C 0.86953 0.43811 0.9085 0.0
C457 C 0.91759 0.46986 0.90287 0.0
C458 C 0.83922 0.42846 0.86098 0.0
C459 C 0.79601 0.38798 0.89736 0.0
N460 N 0.89249 0.45495 0.89055 0.0
N461 N 0.8208 0.40292 0.91041 0.0
H462 H 0.67601 0.63325 0.32636 0.0
H463 H 0.59744 0.52713 0.47639 0.0
H464 H 0.72615 0.59749 0.4036 0.0
H465 H 0.55504 0.53934 0.38803 0.0
H466 H 0.64313 0.55956 0.45338 0.0
H467 H 0.62984 0.60544 0.35196 0.0
C468 C 0.67727 0.61972 0.34885 0.0
C469 C 0.70499 0.61768 0.36287 0.0
C470 C 0.62374 0.55524 0.43914 0.0
C471 C 0.65213 0.58566 0.39231 0.0
C472 C 0.59761 0.53695 0.45229 0.0
C473 C 0.57243 0.53043 0.43405 0.0
C474 C 0.62451 0.56741 0.40767 0.0
C475 C 0.57397 0.54358 0.4029 0.0
C476 C 0.65092 0.6037 0.36337 0.0
C477 C 0.70529 0.59943 0.39184 0.0
N478 N 0.59952 0.56141 0.39073 0.0
N479 N 0.67924 0.58418 0.40567 0.0
H480 H 0.19209 0.30923 0.12245 0.0
H481 H 0.03883 0.39435 0.11438 0.0
H482 H 0.13274 0.31402 0.20247 0.0
H483 H 0.10183 0.39465 0.03647 0.0
H484 H 0.07085 0.36129 0.14627 0.0
H485 H 0.1574 0.3374 0.0899 0.0
C486 C 0.17168 0.31609 0.13315 0.0
C487 C 0.16534 0.30932 0.16524 0.0
C488 C 0.07754 0.36844 0.12214 0.0
C489 C 0.12554 0.34178 0.12812 0.0
C490 C 0.05921 0.38717 0.10389 0.0
C491 C 0.06776 0.39741 0.07276 0.0
C492 C 0.10454 0.35988 0.10912 0.0
C493 C 0.09443 0.38748 0.0604 0.0
C494 C 0.15192 0.33229 0.11457 0.0
C495 C 0.13872 0.31917 0.17791 0.0
N496 N 0.11192 0.36941 0.07864 0.0
N497 N 0.11979 0.33489 0.15932 0.0
H498 H 0.63563 0.22382 0.9167 0.0
H499 H 0.49038 0.08953 0.93632 0.0
H500 H 0.56963 0.21268 0.8459 0.0
H501 H 0.56963 0.08457 0.9905 0.0
H502 H 0.5148 0.14019 0.90753 0.0
H503 H 0.60693 0.1787 0.94898 0.0
C504 C 0.61485 0.21221 0.90814 0.0
C505 C 0.60507 0.22196 0.8785 0.0
C506 C 0.52673 0.12801 0.92581 0.0
C507 C 0.57226 0.16998 0.91522 0.0
C508 C 0.5128 0.09921 0.94228 0.0
C509 C 0.52811 0.08267 0.96563 0.0
C510 C 0.55597 0.14055 0.93309 0.0
C511 C 0.55712 0.09628 0.97243 0.0
C512 C 0.59861 0.18626 0.92646 0.0
C513 C 0.57816 0.20568 0.86845 0.0
N514 N 0.57008 0.12438 0.95627 0.0
N515 N 0.5627 0.18042 0.88674 0.0
H516 H 0.85234 0.76564 0.41376 0.0
H517 H 0.97669 0.91973 0.43228 0.0
H518 H 0.92904 0.79046 0.35024 0.0
H519 H 0.89718 0.89591 0.49201 0.0
H520 H 0.96286 0.86931 0.40513 0.0
H521 H 0.8719 0.80956 0.44601 0.0
C522 C 0.87357 0.77992 0.4068 0.0
C523 C 0.88896 0.77428 0.37907 0.0
C524 C 0.94859 0.87502 0.42434 0.0
C525 C 0.91127 0.82542 0.41578 0.0
C526 C 0.95651 0.90376 0.4399 0.0
C527 C 0.93794 0.91224 0.46431 0.0
C528 C 0.92195 0.85459 0.4333 0.0
C529 C 0.91207 0.89058 0.47317 0.0
C530 C 0.88462 0.80528 0.42515 0.0
C531 C 0.91613 0.79419 0.37111 0.0
N532 N 0.9048 0.86294 0.4576 0.0
N533 N 0.92631 0.81898 0.38925 0.0
H534 H 0.45516 0.76118 0.62728 0.0
H535 H 0.40105 0.603 0.53303 0.0
H536 H 0.36724 0.7433 0.58926 0.0
H537 H 0.48837 0.61753 0.57306 0.0
H538 H 0.38865 0.6546 0.55357 0.0
H539 H 0.46814 0.70898 0.60767 0.0
C540 C 0.43861 0.74632 0.61478 0.0
C541 C 0.41004 0.75663 0.60995 0.0
C542 C 0.41054 0.64656 0.55791 0.0
C543 C 0.4247 0.69683 0.58759 0.0
C544 C 0.41767 0.61706 0.54613 0.0
C545 C 0.44582 0.6059 0.55129 0.0
C546 C 0.4317 0.66522 0.57498 0.0
C547 C 0.4664 0.62521 0.5685 0.0
C548 C 0.44599 0.71646 0.60372 0.0
C549 C 0.38937 0.73615 0.59393 0.0
N550 N 0.45894 0.65396 0.57971 0.0
N551 N 0.39713 0.70734 0.58329 0.0
H552 H 0.89616 0.98489 0.73707 0.0
H553 H 0.97196 0.92002 0.58683 0.0
H554 H 0.9098 0.88168 0.72953 0.0
H555 H 0.93426 0.01387 0.58589 0.0
H556 H 0.95033 0.90569 0.63948 0.0
H557 H 0.91071 0.99631 0.68197 0.0
C558 C 0.90184 0.96451 0.72381 0.0
C559 C 0.90188 0.93227 0.73814 0.0
C560 C 0.94658 0.92929 0.62763 0.0
C561 C 0.9192 0.94542 0.67507 0.0
C562 C 0.95898 0.93752 0.59761 0.0
C563 C 0.95507 0.96828 0.58202 0.0
C564 C 0.93049 0.95216 0.64231 0.0
C565 C 0.9379 0.98991 0.59706 0.0
C566 C 0.9103 0.97111 0.69234 0.0
C567 C 0.91002 0.90706 0.71973 0.0
N568 N 0.92649 0.98158 0.6265 0.0
N569 N 0.91857 0.91422 0.68924 0.0
H570 H 0.6453 0.18066 0.14811 0.0
H571 H 0.52928 0.02631 0.10969 0.0
H572 H 0.61398 0.10166 0.2178 0.0
H573 H 0.53715 0.12223 0.05797 0.0
H574 H 0.56632 0.04894 0.14602 0.0
H575 H 0.61167 0.15474 0.11111 0.0
C576 C 0.63126 0.15795 0.15576 0.0
C577 C 0.63222 0.14367 0.18639 0.0
C578 C 0.5599 0.0649 0.12666 0.0
C579 C 0.59405 0.1134 0.14368 0.0
C580 C 0.53891 0.05202 0.10591 0.0
C581 C 0.53002 0.07252 0.08096 0.0
C582 C 0.57235 0.09828 0.12198 0.0
C583 C 0.54313 0.10564 0.07708 0.0
C584 C 0.61218 0.14306 0.1345 0.0
C585 C 0.61415 0.11355 0.19446 0.0
N586 N 0.56367 0.11744 0.09731 0.0
N587 N 0.59573 0.09944 0.17324 0.0
H588 H 0.39407 0.623 0.31223 0.0
H589 H 0.44131 0.46788 0.41871 0.0
H590 H 0.38285 0.52154 0.28599 0.0
H591 H 0.45646 0.56982 0.44312 0.0
H592 H 0.417 0.48672 0.37152 0.0
H593 H 0.41418 0.60366 0.36172 0.0
C594 C 0.39577 0.59664 0.31686 0.0
C595 C 0.3868 0.57392 0.29476 0.0
C596 C 0.42556 0.50497 0.38724 0.0
C597 C 0.40974 0.55154 0.35158 0.0
C598 C 0.43944 0.49422 0.41424 0.0
C599 C 0.45109 0.51729 0.43492 0.0
C600 C 0.42324 0.53908 0.38076 0.0
C601 C 0.44795 0.55112 0.42783 0.0
C602 C 0.40717 0.5856 0.3452 0.0
C603 C 0.38911 0.53998 0.30237 0.0
N604 N 0.43442 0.56097 0.40134 0.0
N605 N 0.40047 0.52988 0.33002 0.0
H606 H 0.09435 0.33194 0.85538 0.0
H607 H 0.04895 0.50207 0.91873 0.0
H608 H 0.11098 0.42683 0.80213 0.0
H609 H 0.02791 0.40524 0.96755 0.0
H610 H 0.0721 0.47564 0.87588 0.0
H611 H 0.06979 0.35885 0.89642 0.0
C612 C 0.09254 0.35839 0.85207 0.0
C613 C 0.10469 0.37702 0.82501 0.0
C614 C 0.06238 0.46021 0.89598 0.0
C615 C 0.07695 0.40834 0.8726 0.0
C616 C 0.04921 0.4753 0.92048 0.0
C617 C 0.03646 0.45589 0.94685 0.0
C618 C 0.06288 0.42548 0.89787 0.0
C619 C 0.03739 0.42127 0.94773 0.0
C620 C 0.07868 0.37384 0.87573 0.0
C621 C 0.10224 0.41145 0.82263 0.0
N622 N 0.05037 0.40725 0.9237 0.0
N623 N 0.0887 0.42598 0.84611 0.0
H624 H 0.74468 0.9018 0.96131 0.0
H625 H 0.59673 0.9767 0.90118 0.0
H626 H 0.73281 0.9358 0.86551 0.0
H627 H 0.60609 0.93712 0.99586 0.0
H628 H 0.64581 0.95992 0.8873 0.0
H629 H 0.69334 0.91282 0.97414 0.0
C630 C 0.73125 0.91157 0.94297 0.0
C631 C 0.7431 0.91804 0.91232 0.0
C632 C 0.63708 0.95475 0.91108 0.0
C633 C 0.68429 0.93059 0.9268 0.0
C634 C 0.60904 0.96435 0.91904 0.0
C635 C 0.59735 0.95848 0.94978 0.0
C636 C 0.65366 0.93929 0.93405 0.0
C637 C 0.61427 0.94225 0.97189 0.0
C638 C 0.7019 0.91769 0.95028 0.0
C639 C 0.72453 0.93018 0.88939 0.0
N640 N 0.64165 0.93339 0.96363 0.0
N641 N 0.69613 0.93625 0.89714 0.0
H642 H 0.77139 0.1129 0.38682 0.0
H643 H 0.93867 0.06146 0.38028 0.0
H644 H 0.83622 0.14619 0.31195 0.0
H645 H 0.88244 0.04901 0.46439 0.0
H646 H 0.89936 0.08792 0.35322 0.0
H647 H 0.80996 0.08502 0.41408 0.0
C648 C 0.7937 0.11446 0.37611 0.0
C649 C 0.80047 0.13199 0.34696 0.0
C650 C 0.89561 0.07943 0.37761 0.0
C651 C 0.8446 0.09969 0.37791 0.0
C652 C 0.91803 0.06424 0.39308 0.0
C653 C 0.91387 0.05306 0.42468 0.0
C654 C 0.86867 0.08329 0.39374 0.0
C655 C 0.88664 0.05738 0.44004 0.0
C656 C 0.81567 0.09841 0.39166 0.0
C657 C 0.8297 0.13257 0.33406 0.0
N658 N 0.86502 0.0721 0.42439 0.0
N659 N 0.85062 0.11667 0.3496 0.0
H660 H 0.23505 0.59964 0.0728 0.0
H661 H 0.0679 0.52608 0.12888 0.0
H662 H 0.20746 0.57049 0.16871 0.0
H663 H 0.09848 0.53604 0.03221 0.0
H664 H 0.11708 0.55068 0.14341 0.0
H665 H 0.18369 0.58392 0.05735 0.0
C666 C 0.21827 0.58994 0.09066 0.0
C667 C 0.22583 0.58613 0.12215 0.0
C668 C 0.11302 0.54773 0.11899 0.0
C669 C 0.16674 0.56861 0.10453 0.0
C670 C 0.08486 0.53376 0.11061 0.0
C671 C 0.07908 0.52868 0.07926 0.0
C672 C 0.13573 0.55679 0.09589 0.0
C673 C 0.10195 0.53937 0.05667 0.0
C674 C 0.18888 0.58115 0.08178 0.0
C675 C 0.20281 0.57419 0.14423 0.0
N676 N 0.12936 0.55271 0.06546 0.0
N677 N 0.17441 0.56575 0.13498 0.0
H678 H 0.2752 0.36599 0.62262 0.0
H679 H 0.42975 0.48213 0.63672 0.0
H680 H 0.30437 0.40851 0.7075 0.0
H681 H 0.39784 0.44937 0.5489 0.0
H682 H 0.38457 0.45328 0.66299 0.0
H683 H 0.32 0.39511 0.59508 0.0
C684 C 0.29085 0.38165 0.63544 0.0
C685 C 0.28597 0.38466 0.66752 0.0
C686 C 0.38738 0.45233 0.63798 0.0
C687 C 0.33759 0.41767 0.63617 0.0
C688 C 0.41328 0.46876 0.62291 0.0
C689 C 0.41764 0.46823 0.5905 0.0
C690 C 0.36553 0.43507 0.62061 0.0
C691 C 0.39542 0.45045 0.57393 0.0
C692 C 0.31654 0.39809 0.61972 0.0
C693 C 0.30735 0.40493 0.68293 0.0
N694 N 0.37031 0.43458 0.58917 0.0
N695 N 0.33216 0.42054 0.66715 0.0
H696 H 0.86043 0.74363 0.92574 0.0
H697 H 0.99095 0.62348 0.94196 0.0
H698 H 0.95382 0.77677 0.90354 0.0
H699 H 0.899 0.59569 0.97421 0.0
H700 H 0.97749 0.67846 0.92368 0.0
H701 H 0.87388 0.68782 0.93955 0.0
C702 C 0.88376 0.7391 0.92358 0.0
C703 C 0.90604 0.76491 0.91353 0.0
C704 C 0.96029 0.66025 0.93468 0.0
C705 C 0.92168 0.70106 0.92956 0.0
C706 C 0.96793 0.62886 0.94503 0.0
C707 C 0.9461 0.60504 0.95977 0.0
C708 C 0.93059 0.66771 0.939 0.0
C709 C 0.91662 0.61333 0.96314 0.0
C710 C 0.89146 0.70726 0.93163 0.0
C711 C 0.93598 0.75769 0.91158 0.0
N712 N 0.90977 0.64396 0.9529 0.0
N713 N 0.94294 0.72642 0.91953 0.0
H714 H 0.35884 0.77185 0.1063 0.0
H715 H 0.50499 0.90179 0.06761 0.0
H716 H 0.44914 0.75095 0.12602 0.0
H717 H 0.41518 0.92329 0.04623 0.0
H718 H 0.48445 0.84736 0.09128 0.0
H719 H 0.37851 0.82837 0.08669 0.0
C720 C 0.38277 0.77921 0.10677 0.0
C721 C 0.40238 0.75651 0.11769 0.0
C722 C 0.46919 0.86399 0.08151 0.0
C723 C 0.42508 0.8211 0.09497 0.0
C724 C 0.48092 0.89514 0.06798 0.0
C725 C 0.46181 0.91716 0.05478 0.0
C726 C 0.43808 0.85463 0.08187 0.0
C727 C 0.43078 0.9071 0.05603 0.0
C728 C 0.394 0.81143 0.09539 0.0
C729 C 0.43322 0.76737 0.11736 0.0
N730 N 0.4199 0.87654 0.06924 0.0
N731 N 0.44359 0.7988 0.10614 0.0
H732 H 0.16256 0.21322 0.61525 0.0
H733 H 0.02678 0.07686 0.58152 0.0
H734 H 0.07782 0.20252 0.66702 0.0
H735 H 0.11052 0.09331 0.52778 0.0
H736 H 0.04314 0.12496 0.61093 0.0
H737 H 0.14213 0.17161 0.5809 0.0
C738 C 0.13957 0.20214 0.61931 0.0
C739 C 0.12197 0.21111 0.64424 0.0
C740 C 0.0578 0.11816 0.59253 0.0
C741 C 0.0983 0.16323 0.60491 0.0
C742 C 0.04846 0.09073 0.5757 0.0
C743 C 0.06741 0.08082 0.5523 0.0
C744 C 0.0863 0.13576 0.58593 0.0
C745 C 0.09523 0.09979 0.54575 0.0
C746 C 0.12785 0.17844 0.59962 0.0
C747 C 0.09214 0.19637 0.64804 0.0
N748 N 0.10387 0.12612 0.56258 0.0
N749 N 0.08133 0.1729 0.62879 0.0
H750 H 0.67586 0.29743 0.39976 0.0
H751 H 0.52393 0.38081 0.42648 0.0
H752 H 0.59897 0.28151 0.34225 0.0
H753 H 0.60032 0.39293 0.48527 0.0
H754 H 0.54958 0.34179 0.39709 0.0
H755 H 0.64726 0.33018 0.43294 0.0
C756 C 0.65293 0.30084 0.39412 0.0
C757 C 0.63987 0.28694 0.36805 0.0
C758 C 0.56062 0.35284 0.41656 0.0
C759 C 0.60685 0.32433 0.40606 0.0
C760 C 0.54597 0.37508 0.43337 0.0
C761 C 0.56007 0.39034 0.45826 0.0
C762 C 0.58959 0.34588 0.42465 0.0
C763 C 0.58864 0.38194 0.46616 0.0
C764 C 0.63653 0.3194 0.41317 0.0
C765 C 0.60987 0.29163 0.36221 0.0
N766 N 0.60249 0.36046 0.44931 0.0
N767 N 0.59443 0.31014 0.38093 0.0
loop_
_geom_bond_atom_site_label_1
_geom_bond_atom_site_label_2
_geom_bond_distance
_geom_bond_site_symmetry_2
_ccdc_geom_bond_type
P0 O11 1.490 . S
P0 C14 1.812 . S
P0 C20 1.803 . S
P0 C26 1.819 . S
H1 C15 0.941 . S
H2 C16 0.939 . S
H3 C18 0.940 . S
H4 C19 0.940 . S
H5 C21 0.939 . S
H6 C22 0.942 . S
H7 C24 0.940 . S
H8 C25 0.939 . S
H9 C27 0.941 . S
H10 C31 0.939 . S
O11 P0 1.490 . S
H12 C28 0.939 . S
H13 C30 0.940 . S
C14 P0 1.812 . S
C14 C15 1.389 . S
C14 C19 1.391 . S
C15 H1 0.941 . S
C15 C14 1.389 . S
C15 C16 1.397 . S
C16 H2 0.939 . S
C16 C15 1.397 . S
C16 C17 1.378 . S
C17 C16 1.378 . S
C17 C18 1.378 . S
C18 H3 0.940 . S
C18 C17 1.378 . S
C18 C19 1.396 . S
C19 H4 0.940 . S
C19 C14 1.391 . S
C19 C18 1.396 . S
C20 P0 1.803 . S
C20 C21 1.378 . S
C20 C25 1.400 . S
C21 H5 0.939 . S
C21 C20 1.378 . S
C21 C22 1.361 . S
C22 H6 0.942 . S
C22 C21 1.361 . S
C22 C23 1.369 . S
C23 C22 1.369 . S
C23 C24 1.404 . S
C24 H7 0.940 . S
C24 C23 1.404 . S
C24 C25 1.389 . S
C25 H8 0.939 . S
C25 C20 1.400 . S
C25 C24 1.389 . S
C26 P0 1.819 . S
C26 C27 1.391 . S
C26 C31 1.391 . S
C27 H9 0.941 . S
C27 C26 1.391 . S
C27 C28 1.396 . S
C28 H12 0.939 . S
C28 C27 1.396 . S
C28 C29 1.397 . S
C29 C28 1.397 . S
C29 C30 1.385 . S
C30 H13 0.940 . S
C30 C29 1.385 . S
C30 C31 1.388 . S
C31 H10 0.939 . S
C31 C26 1.391 . S
C31 C30 1.388 . S
P32 O43 1.490 . S
P32 C46 1.812 . S
P32 C52 1.803 . S
P32 C58 1.819 . S
H33 C47 0.941 . S
H34 C48 0.939 . S
H35 C50 0.940 . S
H36 C51 0.940 . S
H37 C53 0.939 . S
H38 C54 0.942 . S
H39 C56 0.940 . S
H40 C57 0.939 . S
H41 C59 0.941 . S
H42 C63 0.939 . S
O43 P32 1.490 . S
H44 C60 0.939 . S
H45 C62 0.940 . S
C46 P32 1.812 . S
C46 C47 1.389 . S
C46 C51 1.391 . S
C47 H33 0.941 . S
C47 C46 1.389 . S
C47 C48 1.397 . S
C48 H34 0.939 . S
C48 C47 1.397 . S
C48 C49 1.378 . S
C49 C48 1.378 . S
C49 C50 1.378 . S
C50 H35 0.940 . S
C50 C49 1.378 . S
C50 C51 1.396 . S
C51 H36 0.940 . S
C51 C46 1.391 . S
C51 C50 1.396 . S
C52 P32 1.803 . S
C52 C53 1.378 . S
C52 C57 1.400 . S
C53 H37 0.939 . S
C53 C52 1.378 . S
C53 C54 1.361 . S
C54 H38 0.942 . S
C54 C53 1.361 . S
C54 C55 1.369 . S
C55 C54 1.369 . S
C55 C56 1.404 . S
C56 H39 0.940 . S
C56 C55 1.404 . S
C56 C57 1.389 . S
C57 H40 0.939 . S
C57 C52 1.400 . S
C57 C56 1.389 . S
C58 P32 1.819 . S
C58 C59 1.391 . S
C58 C63 1.391 . S
C59 H41 0.941 . S
C59 C58 1.391 . S
C59 C60 1.396 . S
C60 H44 0.939 . S
C60 C59 1.396 . S
C60 C61 1.397 . S
C61 C60 1.397 . S
C61 C62 1.385 . S
C62 H45 0.940 . S
C62 C61 1.385 . S
C62 C63 1.388 . S
C63 H42 0.939 . S
C63 C58 1.391 . S
C63 C62 1.388 . S
P64 O75 1.490 . S
P64 C78 1.812 . S
P64 C84 1.803 . S
P64 C90 1.819 . S
H65 C79 0.941 . S
H66 C80 0.939 . S
H67 C82 0.940 . S
H68 C83 0.940 . S
H69 C85 0.939 . S
H70 C86 0.942 . S
H71 C88 0.940 . S
H72 C89 0.939 . S
H73 C91 0.941 . S
H74 C95 0.939 . S
O75 P64 1.490 . S
H76 C92 0.939 . S
H77 C94 0.940 . S
C78 P64 1.812 . S
C78 C79 1.389 . S
C78 C83 1.391 . S
C79 H65 0.941 . S
C79 C78 1.389 . S
C79 C80 1.397 . S
C80 H66 0.939 . S
C80 C79 1.397 . S
C80 C81 1.378 . S
C81 C80 1.378 . S
C81 C82 1.378 . S
C82 H67 0.940 . S
C82 C81 1.378 . S
C82 C83 1.396 . S
C83 H68 0.940 . S
C83 C78 1.391 . S
C83 C82 1.396 . S
C84 P64 1.803 . S
C84 C85 1.378 . S
C84 C89 1.400 . S
C85 H69 0.939 . S
C85 C84 1.378 . S
C85 C86 1.361 . S
C86 H70 0.942 . S
C86 C85 1.361 . S
C86 C87 1.369 . S
C87 C86 1.369 . S
C87 C88 1.404 . S
C88 H71 0.940 . S
C88 C87 1.404 . S
C88 C89 1.389 . S
C89 H72 0.939 . S
C89 C84 1.400 . S
C89 C88 1.389 . S
C90 P64 1.819 . S
C90 C91 1.391 . S
C90 C95 1.391 . S
C91 H73 0.941 . S
C91 C90 1.391 . S
C91 C92 1.396 . S
C92 H76 0.939 . S
C92 C91 1.396 . S
C92 C93 1.397 . S
C93 C92 1.397 . S
C93 C94 1.385 . S
C94 H77 0.940 . S
C94 C93 1.385 . S
C94 C95 1.388 . S
C95 H74 0.939 . S
C95 C90 1.391 . S
C95 C94 1.388 . S
P96 O107 1.490 . S
P96 C110 1.812 . S
P96 C116 1.803 . S
P96 C122 1.819 . S
H97 C111 0.941 . S
H98 C112 0.939 . S
H99 C114 0.940 . S
H100 C115 0.940 . S
H101 C117 0.939 . S
H102 C118 0.942 . S
H103 C120 0.940 . S
H104 C121 0.939 . S
H105 C123 0.941 . S
H106 C127 0.939 . S
O107 P96 1.490 . S
H108 C124 0.939 . S
H109 C126 0.940 . S
C110 P96 1.812 . S
C110 C111 1.389 . S
C110 C115 1.391 . S
C111 H97 0.941 . S
C111 C110 1.389 . S
C111 C112 1.397 . S
C112 H98 0.939 . S
C112 C111 1.397 . S
C112 C113 1.378 . S
C113 C112 1.378 . S
C113 C114 1.378 . S
C114 H99 0.940 . S
C114 C113 1.378 . S
C114 C115 1.396 . S
C115 H100 0.940 . S
C115 C110 1.391 . S
C115 C114 1.396 . S
C116 P96 1.803 . S
C116 C117 1.378 . S
C116 C121 1.400 . S
C117 H101 0.939 . S
C117 C116 1.378 . S
C117 C118 1.361 . S
C118 H102 0.942 . S
C118 C117 1.361 . S
C118 C119 1.369 . S
C119 C118 1.369 . S
C119 C120 1.404 . S
C120 H103 0.940 . S
C120 C119 1.404 . S
C120 C121 1.389 . S
C121 H104 0.939 . S
C121 C116 1.400 . S
C121 C120 1.389 . S
C122 P96 1.819 . S
C122 C123 1.391 . S
C122 C127 1.391 . S
C123 H105 0.941 . S
C123 C122 1.391 . S
C123 C124 1.396 . S
C124 H108 0.939 . S
C124 C123 1.396 . S
C124 C125 1.397 . S
C125 C124 1.397 . S
C125 C126 1.385 . S
C126 H109 0.940 . S
C126 C125 1.385 . S
C126 C127 1.388 . S
C127 H106 0.939 . S
C127 C122 1.391 . S
C127 C126 1.388 . S
P128 O139 1.490 . S
P128 C142 1.812 . S
P128 C148 1.803 . S
P128 C154 1.819 . S
H129 C143 0.941 . S
H130 C144 0.939 . S
H131 C146 0.940 . S
H132 C147 0.940 . S
H133 C149 0.939 . S
H134 C150 0.942 . S
H135 C152 0.940 . S
H136 C153 0.939 . S
H137 C155 0.941 . S
H138 C159 0.939 . S
O139 P128 1.490 . S
H140 C156 0.939 . S
H141 C158 0.940 . S
C142 P128 1.812 . S
C142 C143 1.389 . S
C142 C147 1.391 . S
C143 H129 0.941 . S
C143 C142 1.389 . S
C143 C144 1.397 . S
C144 H130 0.939 . S
C144 C143 1.397 . S
C144 C145 1.378 . S
C145 C144 1.378 . S
C145 C146 1.378 . S
C146 H131 0.940 . S
C146 C145 1.378 . S
C146 C147 1.396 . S
C147 H132 0.940 . S
C147 C142 1.391 . S
C147 C146 1.396 . S
C148 P128 1.803 . S
C148 C149 1.378 . S
C148 C153 1.400 . S
C149 H133 0.939 . S
C149 C148 1.378 . S
C149 C150 1.361 . S
C150 H134 0.942 . S
C150 C149 1.361 . S
C150 C151 1.369 . S
C151 C150 1.369 . S
C151 C152 1.404 . S
C152 H135 0.940 . S
C152 C151 1.404 . S
C152 C153 1.389 . S
C153 H136 0.939 . S
C153 C148 1.400 . S
C153 C152 1.389 . S
C154 P128 1.819 . S
C154 C155 1.391 . S
C154 C159 1.391 . S
C155 H137 0.941 . S
C155 C154 1.391 . S
C155 C156 1.396 . S
C156 H140 0.939 . S
C156 C155 1.396 . S
C156 C157 1.397 . S
C157 C156 1.397 . S
C157 C158 1.385 . S
C158 H141 0.940 . S
C158 C157 1.385 . S
C158 C159 1.388 . S
C159 H138 0.939 . S
C159 C154 1.391 . S
C159 C158 1.388 . S
P160 O171 1.490 . S
P160 C174 1.812 . S
P160 C180 1.803 . S
P160 C186 1.819 . S
H161 C175 0.941 . S
H162 C176 0.939 . S
H163 C178 0.940 . S
H164 C179 0.940 . S
H165 C181 0.939 . S
H166 C182 0.942 . S
H167 C184 0.940 . S
H168 C185 0.939 . S
H169 C187 0.941 . S
H170 C191 0.939 . S
O171 P160 1.490 . S
H172 C188 0.939 . S
H173 C190 0.940 . S
C174 P160 1.812 . S
C174 C175 1.389 . S
C174 C179 1.391 . S
C175 H161 0.941 . S
C175 C174 1.389 . S
C175 C176 1.397 . S
C176 H162 0.939 . S
C176 C175 1.397 . S
C176 C177 1.378 . S
C177 C176 1.378 . S
C177 C178 1.378 . S
C178 H163 0.940 . S
C178 C177 1.378 . S
C178 C179 1.396 . S
C179 H164 0.940 . S
C179 C174 1.391 . S
C179 C178 1.396 . S
C180 P160 1.803 . S
C180 C181 1.378 . S
C180 C185 1.400 . S
C181 H165 0.939 . S
C181 C180 1.378 . S
C181 C182 1.361 . S
C182 H166 0.942 . S
C182 C181 1.361 . S
C182 C183 1.369 . S
C183 C182 1.369 . S
C183 C184 1.404 . S
C184 H167 0.940 . S
C184 C183 1.404 . S
C184 C185 1.389 . S
C185 H168 0.939 . S
C185 C180 1.400 . S
C185 C184 1.389 . S
C186 P160 1.819 . S
C186 C187 1.391 . S
C186 C191 1.391 . S
C187 H169 0.941 . S
C187 C186 1.391 . S
C187 C188 1.396 . S
C188 H172 0.939 . S
C188 C187 1.396 . S
C188 C189 1.397 . S
C189 C188 1.397 . S
C189 C190 1.385 . S
C190 H173 0.940 . S
C190 C189 1.385 . S
C190 C191 1.388 . S
C191 H170 0.939 . S
C191 C186 1.391 . S
C191 C190 1.388 . S
P192 O203 1.490 . S
P192 C206 1.812 . S
P192 C212 1.803 . S
P192 C218 1.819 . S
H193 C207 0.941 . S
H194 C208 0.939 . S
H195 C210 0.940 . S
H196 C211 0.940 . S
H197 C213 0.939 . S
H198 C214 0.942 . S
H199 C216 0.940 . S
H200 C217 0.939 . S
H201 C219 0.941 . S
H202 C223 0.939 . S
O203 P192 1.490 . S
H204 C220 0.939 . S
H205 C222 0.940 . S
C206 P192 1.812 . S
C206 C207 1.389 . S
C206 C211 1.391 . S
C207 H193 0.941 . S
C207 C206 1.389 . S
C207 C208 1.397 . S
C208 H194 0.939 . S
C208 C207 1.397 . S
C208 C209 1.378 . S
C209 C208 1.378 . S
C209 C210 1.378 . S
C210 H195 0.940 . S
C210 C209 1.378 . S
C210 C211 1.396 . S
C211 H196 0.940 . S
C211 C206 1.391 . S
C211 C210 1.396 . S
C212 P192 1.803 . S
C212 C213 1.378 . S
C212 C217 1.400 . S
C213 H197 0.939 . S
C213 C212 1.378 . S
C213 C214 1.361 . S
C214 H198 0.942 . S
C214 C213 1.361 . S
C214 C215 1.369 . S
C215 C214 1.369 . S
C215 C216 1.404 . S
C216 H199 0.940 . S
C216 C215 1.404 . S
C216 C217 1.389 . S
C217 H200 0.939 . S
C217 C212 1.400 . S
C217 C216 1.389 . S
C218 P192 1.819 . S
C218 C219 1.391 . S
C218 C223 1.391 . S
C219 H201 0.941 . S
C219 C218 1.391 . S
C219 C220 1.396 . S
C220 H204 0.939 . S
C220 C219 1.396 . S
C220 C221 1.397 . S
C221 C220 1.397 . S
C221 C222 1.385 . S
C222 H205 0.940 . S
C222 C221 1.385 . S
C222 C223 1.388 . S
C223 H202 0.939 . S
C223 C218 1.391 . S
C223 C222 1.388 . S
P224 O235 1.490 . S
P224 C238 1.812 . S
P224 C244 1.803 . S
P224 C250 1.819 . S
H225 C239 0.941 . S
H226 C240 0.939 . S
H227 C242 0.940 . S
H228 C243 0.940 . S
H229 C245 0.939 . S
H230 C246 0.942 . S
H231 C248 0.940 . S
H232 C249 0.939 . S
H233 C251 0.941 . S
H234 C255 0.939 . S
O235 P224 1.490 . S
H236 C252 0.939 . S
H237 C254 0.940 . S
C238 P224 1.812 . S
C238 C239 1.389 . S
C238 C243 1.391 . S
C239 H225 0.941 . S
C239 C238 1.389 . S
C239 C240 1.397 . S
C240 H226 0.939 . S
C240 C239 1.397 . S
C240 C241 1.378 . S
C241 C240 1.378 . S
C241 C242 1.378 . S
C242 H227 0.940 . S
C242 C241 1.378 . S
C242 C243 1.396 . S
C243 H228 0.940 . S
C243 C238 1.391 . S
C243 C242 1.396 . S
C244 P224 1.803 . S
C244 C245 1.378 . S
C244 C249 1.400 . S
C245 H229 0.939 . S
C245 C244 1.378 . S
C245 C246 1.361 . S
C246 H230 0.942 . S
C246 C245 1.361 . S
C246 C247 1.369 . S
C247 C246 1.369 . S
C247 C248 1.404 . S
C248 H231 0.940 . S
C248 C247 1.404 . S
C248 C249 1.389 . S
C249 H232 0.939 . S
C249 C244 1.400 . S
C249 C248 1.389 . S
C250 P224 1.819 . S
C250 C251 1.391 . S
C250 C255 1.391 . S
C251 H233 0.941 . S
C251 C250 1.391 . S
C251 C252 1.396 . S
C252 H236 0.939 . S
C252 C251 1.396 . S
C252 C253 1.397 . S
C253 C252 1.397 . S
C253 C254 1.385 . S
C254 H237 0.940 . S
C254 C253 1.385 . S
C254 C255 1.388 . S
C255 H234 0.939 . S
C255 C250 1.391 . S
C255 C254 1.388 . S
Zn256 O262 1.969 1_545 S
Zn256 O263 1.965 1_545 S
Zn256 O267 2.024 . S
Zn256 O272 1.969 . S
Zn257 O264 1.969 . S
Zn257 O270 1.969 1_565 S
Zn257 O271 1.965 1_665 S
Zn257 O273 2.024 . S
C258 O259 1.229 . S
C258 O267 1.058 . S
O259 C258 1.229 . S
C260 O261 1.229 . S
C260 O273 1.058 . S
O261 C260 1.229 . S
O262 Zn256 1.969 1_565 S
O262 C265 1.267 . S
O263 Zn256 1.965 1_565 S
O263 C274 1.260 1_455 S
O264 Zn257 1.969 . S
O264 C274 1.258 . S
C265 O262 1.267 . S
C265 O266 1.228 . S
O266 C265 1.228 . S
O267 Zn256 2.024 . S
O267 C258 1.058 . S
C268 O269 1.228 . S
C268 O270 1.267 . S
O269 C268 1.228 . S
O270 Zn257 1.969 1_545 S
O270 C268 1.267 . S
O271 Zn257 1.965 1_445 S
O271 C275 1.260 . S
O272 Zn256 1.969 . S
O272 C275 1.258 . S
O273 Zn257 2.024 . S
O273 C260 1.058 . S
C274 O263 1.260 1_655 S
C274 O264 1.258 . S
C275 O271 1.260 . S
C275 O272 1.258 . S
Zn276 O282 1.969 . S
Zn276 O283 1.965 1_565 S
Zn276 O287 2.024 . S
Zn276 O292 1.969 1_556 S
Zn277 O284 1.969 . S
Zn277 O290 1.969 . S
Zn277 O291 1.965 1_545 S
Zn277 O293 2.024 . S
C278 O279 1.229 . S
C278 O287 1.058 . S
O279 C278 1.229 . S
C280 O281 1.229 . S
C280 O293 1.058 . S
O281 C280 1.229 . S
O282 Zn276 1.969 . S
O282 C285 1.267 . S
O283 Zn276 1.965 1_545 S
O283 C294 1.260 . S
O284 Zn277 1.969 . S
O284 C294 1.258 1_554 S
C285 O282 1.267 . S
C285 O286 1.228 . S
O286 C285 1.228 . S
O287 Zn276 2.024 . S
O287 C278 1.058 . S
C288 O289 1.228 . S
C288 O290 1.267 . S
O289 C288 1.228 . S
O290 Zn277 1.969 . S
O290 C288 1.267 . S
O291 Zn277 1.965 1_565 S
O291 C295 1.260 . S
O292 Zn276 1.969 1_554 S
O292 C295 1.258 . S
O293 Zn277 2.024 . S
O293 C280 1.058 . S
C294 O283 1.260 . S
C294 O284 1.258 1_556 S
C295 O291 1.260 . S
C295 O292 1.258 . S
Zn296 O302 1.969 . S
Zn296 O303 1.965 . S
Zn296 O307 2.024 . S
Zn296 O312 1.969 . S
Zn297 O304 1.969 . S
Zn297 O310 1.969 . S
Zn297 O311 1.965 . S
Zn297 O313 2.024 . S
C298 O299 1.229 . S
C298 O307 1.058 . S
O299 C298 1.229 . S
C300 O301 1.229 . S
C300 O313 1.058 . S
O301 C300 1.229 . S
O302 Zn296 1.969 . S
O302 C305 1.267 . S
O303 Zn296 1.965 . S
O303 C314 1.260 . S
O304 Zn297 1.969 . S
O304 C314 1.258 . S
C305 O302 1.267 . S
C305 O306 1.228 . S
O306 C305 1.228 . S
O307 Zn296 2.024 . S
O307 C298 1.058 . S
C308 O309 1.228 . S
C308 O310 1.267 . S
O309 C308 1.228 . S
O310 Zn297 1.969 . S
O310 C308 1.267 . S
O311 Zn297 1.965 . S
O311 C315 1.260 . S
O312 Zn296 1.969 . S
O312 C315 1.258 . S
O313 Zn297 2.024 . S
O313 C300 1.058 . S
C314 O303 1.260 . S
C314 O304 1.258 . S
C315 O311 1.260 . S
C315 O312 1.258 . S
Zn316 O322 1.969 . S
Zn316 O323 1.965 1_556 S
Zn316 O327 2.024 . S
Zn316 O332 1.969 1_655 S
Zn317 O324 1.969 . S
Zn317 O330 1.969 . S
Zn317 O331 1.965 1_554 S
Zn317 O333 2.024 . S
C318 O319 1.229 . S
C318 O327 1.058 . S
O319 C318 1.229 . S
C320 O321 1.229 . S
C320 O333 1.058 . S
O321 C320 1.229 . S
O322 Zn316 1.969 . S
O322 C325 1.267 . S
O323 Zn316 1.965 1_554 S
O323 C334 1.260 . S
O324 Zn317 1.969 . S
O324 C334 1.258 1_455 S
C325 O322 1.267 . S
C325 O326 1.228 . S
O326 C325 1.228 . S
O327 Zn316 2.024 . S
O327 C318 1.058 . S
C328 O329 1.228 . S
C328 O330 1.267 . S
O329 C328 1.228 . S
O330 Zn317 1.969 . S
O330 C328 1.267 . S
O331 Zn317 1.965 1_556 S
O331 C335 1.260 . S
O332 Zn316 1.969 1_455 S
O332 C335 1.258 . S
O333 Zn317 2.024 . S
O333 C320 1.058 . S
C334 O323 1.260 . S
C334 O324 1.258 1_655 S
C335 O331 1.260 . S
C335 O332 1.258 . S
H336 C342 0.930 . S
H337 C346 0.930 . S
H338 C351 0.929 . S
H339 C349 0.929 . S
H340 C344 0.929 . S
H341 C350 0.929 . S
C342 H336 0.930 . S
C342 C343 1.367 . S
C342 C350 1.378 . S
C343 C342 1.367 . S
C343 C351 1.433 . S
C344 H340 0.929 . S
C344 C346 1.378 . S
C344 C348 1.350 . S
C345 C348 1.463 . S
C345 C350 1.350 . S
C345 N353 1.427 . S
C346 H337 0.930 . S
C346 C344 1.378 . S
C346 C347 1.367 . S
C347 C346 1.367 . S
C347 C349 1.433 . S
C348 C344 1.350 . S
C348 C345 1.463 . S
C348 N352 1.427 . S
C349 H339 0.929 . S
C349 C347 1.433 . S
C349 N352 1.384 . S
C350 H341 0.929 . S
C350 C342 1.378 . S
C350 C345 1.350 . S
C351 H338 0.929 . S
C351 C343 1.433 . S
C351 N353 1.384 . S
N352 C348 1.427 . S
N352 C349 1.384 . S
N353 C345 1.427 . S
N353 C351 1.384 . S
H354 C360 0.930 . S
H355 C364 0.930 . S
H356 C369 0.929 . S
H357 C367 0.929 . S
H358 C362 0.929 . S
H359 C368 0.929 . S
C360 H354 0.930 . S
C360 C361 1.367 . S
C360 C368 1.378 . S
C361 C360 1.367 . S
C361 C369 1.433 . S
C362 H358 0.929 . S
C362 C364 1.378 . S
C362 C366 1.350 . S
C363 C366 1.463 . S
C363 C368 1.350 . S
C363 N371 1.427 . S
C364 H355 0.930 . S
C364 C362 1.378 . S
C364 C365 1.367 . S
C365 C364 1.367 . S
C365 C367 1.433 . S
C366 C362 1.350 . S
C366 C363 1.463 . S
C366 N370 1.427 . S
C367 H357 0.929 . S
C367 C365 1.433 . S
C367 N370 1.384 . S
C368 H359 0.929 . S
C368 C360 1.378 . S
C368 C363 1.350 . S
C369 H356 0.929 . S
C369 C361 1.433 . S
C369 N371 1.384 . S
N370 C366 1.427 . S
N370 C367 1.384 . S
N371 C363 1.427 . S
N371 C369 1.384 . S
H372 C378 0.930 . S
H373 C382 0.930 . S
H374 C387 0.929 . S
H375 C385 0.929 . S
H376 C380 0.929 . S
H377 C386 0.929 . S
C378 H372 0.930 . S
C378 C379 1.367 . S
C378 C386 1.378 . S
C379 C378 1.367 . S
C379 C387 1.433 . S
C380 H376 0.929 . S
C380 C382 1.378 . S
C380 C384 1.350 . S
C381 C384 1.463 . S
C381 C386 1.350 . S
C381 N389 1.427 . S
C382 H373 0.930 . S
C382 C380 1.378 . S
C382 C383 1.367 . S
C383 C382 1.367 . S
C383 C385 1.433 . S
C384 C380 1.350 . S
C384 C381 1.463 . S
C384 N388 1.427 . S
C385 H375 0.929 . S
C385 C383 1.433 . S
C385 N388 1.384 . S
C386 H377 0.929 . S
C386 C378 1.378 . S
C386 C381 1.350 . S
C387 H374 0.929 . S
C387 C379 1.433 . S
C387 N389 1.384 . S
N388 C384 1.427 . S
N388 C385 1.384 . S
N389 C381 1.427 . S
N389 C387 1.384 . S
H390 C396 0.930 . S
H391 C400 0.930 . S
H392 C405 0.929 . S
H393 C403 0.929 . S
H394 C398 0.929 . S
H395 C404 0.929 . S
C396 H390 0.930 . S
C396 C397 1.367 . S
C396 C404 1.378 . S
C397 C396 1.367 . S
C397 C405 1.433 . S
C398 H394 0.929 . S
C398 C400 1.378 . S
C398 C402 1.350 . S
C399 C402 1.463 . S
C399 C404 1.350 . S
C399 N407 1.427 . S
C400 H391 0.930 . S
C400 C398 1.378 . S
C400 C401 1.367 . S
C401 C400 1.367 . S
C401 C403 1.433 . S
C402 C398 1.350 . S
C402 C399 1.463 . S
C402 N406 1.427 . S
C403 H393 0.929 . S
C403 C401 1.433 . S
C403 N406 1.384 . S
C404 H395 0.929 . S
C404 C396 1.378 . S
C404 C399 1.350 . S
C405 H392 0.929 . S
C405 C397 1.433 . S
C405 N407 1.384 . S
N406 C402 1.427 . S
N406 C403 1.384 . S
N407 C399 1.427 . S
N407 C405 1.384 . S
H408 C414 0.930 . S
H409 C418 0.930 . S
H410 C423 0.929 . S
H411 C421 0.929 . S
H412 C416 0.929 . S
H413 C422 0.929 . S
C414 H408 0.930 . S
C414 C415 1.367 . S
C414 C422 1.378 . S
C415 C414 1.367 . S
C415 C423 1.433 . S
C416 H412 0.929 . S
C416 C418 1.378 . S
C416 C420 1.350 . S
C417 C420 1.463 . S
C417 C422 1.350 . S
C417 N425 1.427 . S
C418 H409 0.930 . S
C418 C416 1.378 . S
C418 C419 1.367 . S
C419 C418 1.367 . S
C419 C421 1.433 . S
C420 C416 1.350 . S
C420 C417 1.463 . S
C420 N424 1.427 . S
C421 H411 0.929 . S
C421 C419 1.433 . S
C421 N424 1.384 . S
C422 H413 0.929 . S
C422 C414 1.378 . S
C422 C417 1.350 . S
C423 H410 0.929 . S
C423 C415 1.433 . S
C423 N425 1.384 . S
N424 C420 1.427 . S
N424 C421 1.384 . S
N425 C417 1.427 . S
N425 C423 1.384 . S
H426 C432 0.930 . S
H427 C436 0.930 . S
H428 C441 0.929 . S
H429 C439 0.929 . S
H430 C434 0.929 . S
H431 C440 0.929 . S
C432 H426 0.930 . S
C432 C433 1.367 . S
C432 C440 1.378 . S
C433 C432 1.367 . S
C433 C441 1.433 . S
C434 H430 0.929 . S
C434 C436 1.378 . S
C434 C438 1.350 . S
C435 C438 1.463 . S
C435 C440 1.350 . S
C435 N443 1.427 . S
C436 H427 0.930 . S
C436 C434 1.378 . S
C436 C437 1.367 . S
C437 C436 1.367 . S
C437 C439 1.433 . S
C438 C434 1.350 . S
C438 C435 1.463 . S
C438 N442 1.427 . S
C439 H429 0.929 . S
C439 C437 1.433 . S
C439 N442 1.384 . S
C440 H431 0.929 . S
C440 C432 1.378 . S
C440 C435 1.350 . S
C441 H428 0.929 . S
C441 C433 1.433 . S
C441 N443 1.384 . S
N442 C438 1.427 . S
N442 C439 1.384 . S
N443 C435 1.427 . S
N443 C441 1.384 . S
H444 C450 0.930 . S
H445 C454 0.930 . S
H446 C459 0.929 . S
H447 C457 0.929 . S
H448 C452 0.929 . S
H449 C458 0.929 . S
C450 H444 0.930 . S
C450 C451 1.367 . S
C450 C458 1.378 . S
C451 C450 1.367 . S
C451 C459 1.433 . S
C452 H448 0.929 . S
C452 C454 1.378 . S
C452 C456 1.350 . S
C453 C456 1.463 . S
C453 C458 1.350 . S
C453 N461 1.427 . S
C454 H445 0.930 . S
C454 C452 1.378 . S
C454 C455 1.367 . S
C455 C454 1.367 . S
C455 C457 1.433 . S
C456 C452 1.350 . S
C456 C453 1.463 . S
C456 N460 1.427 . S
C457 H447 0.929 . S
C457 C455 1.433 . S
C457 N460 1.384 . S
C458 H449 0.929 . S
C458 C450 1.378 . S
C458 C453 1.350 . S
C459 H446 0.929 . S
C459 C451 1.433 . S
C459 N461 1.384 . S
N460 C456 1.427 . S
N460 C457 1.384 . S
N461 C453 1.427 . S
N461 C459 1.384 . S
H462 C468 0.930 . S
H463 C472 0.930 . S
H464 C477 0.929 . S
H465 C475 0.929 . S
H466 C470 0.929 . S
H467 C476 0.929 . S
C468 H462 0.930 . S
C468 C469 1.367 . S
C468 C476 1.378 . S
C469 C468 1.367 . S
C469 C477 1.433 . S
C470 H466 0.929 . S
C470 C472 1.378 . S
C470 C474 1.350 . S
C471 C474 1.463 . S
C471 C476 1.350 . S
C471 N479 1.427 . S
C472 H463 0.930 . S
C472 C470 1.378 . S
C472 C473 1.367 . S
C473 C472 1.367 . S
C473 C475 1.433 . S
C474 C470 1.350 . S
C474 C471 1.463 . S
C474 N478 1.427 . S
C475 H465 0.929 . S
C475 C473 1.433 . S
C475 N478 1.384 . S
C476 H467 0.929 . S
C476 C468 1.378 . S
C476 C471 1.350 . S
C477 H464 0.929 . S
C477 C469 1.433 . S
C477 N479 1.384 . S
N478 C474 1.427 . S
N478 C475 1.384 . S
N479 C471 1.427 . S
N479 C477 1.384 . S
H480 C486 0.930 . S
H481 C490 0.930 . S
H482 C495 0.929 . S
H483 C493 0.929 . S
H484 C488 0.929 . S
H485 C494 0.929 . S
C486 H480 0.930 . S
C486 C487 1.367 . S
C486 C494 1.378 . S
C487 C486 1.367 . S
C487 C495 1.433 . S
C488 H484 0.929 . S
C488 C490 1.378 . S
C488 C492 1.350 . S
C489 C492 1.463 . S
C489 C494 1.350 . S
C489 N497 1.427 . S
C490 H481 0.930 . S
C490 C488 1.378 . S
C490 C491 1.367 . S
C491 C490 1.367 . S
C491 C493 1.433 . S
C492 C488 1.350 . S
C492 C489 1.463 . S
C492 N496 1.427 . S
C493 H483 0.929 . S
C493 C491 1.433 . S
C493 N496 1.384 . S
C494 H485 0.929 . S
C494 C486 1.378 . S
C494 C489 1.350 . S
C495 H482 0.929 . S
C495 C487 1.433 . S
C495 N497 1.384 . S
N496 C492 1.427 . S
N496 C493 1.384 . S
N497 C489 1.427 . S
N497 C495 1.384 . S
H498 C504 0.930 . S
H499 C508 0.930 . S
H500 C513 0.929 . S
H501 C511 0.954 . S
H502 C506 0.929 . S
H503 C512 0.929 . S
C504 H498 0.930 . S
C504 C505 1.367 . S
C504 C512 1.378 . S
C505 C504 1.367 . S
C505 C513 1.433 . S
C506 H502 0.929 . S
C506 C508 1.378 . S
C506 C510 1.350 . S
C507 C510 1.463 . S
C507 C512 1.350 . S
C507 N515 1.427 . S
C508 H499 0.930 . S
C508 C506 1.378 . S
C508 C509 1.367 . S
C509 C508 1.367 . S
C509 C511 1.433 . S
C510 C506 1.350 . S
C510 C507 1.463 . S
C510 N514 1.427 . S
C511 H501 0.954 . S
C511 C509 1.433 . S
C511 N514 1.384 . S
C512 H503 0.929 . S
C512 C504 1.378 . S
C512 C507 1.350 . S
C513 H500 0.929 . S
C513 C505 1.433 . S
C513 N515 1.384 . S
N514 C510 1.427 . S
N514 C511 1.384 . S
N515 C507 1.427 . S
N515 C513 1.384 . S
H516 C522 0.930 . S
H517 C526 0.930 . S
H518 C531 0.929 . S
H519 C529 0.929 . S
H520 C524 0.929 . S
H521 C530 0.929 . S
C522 H516 0.930 . S
C522 C523 1.367 . S
C522 C530 1.378 . S
C523 C522 1.367 . S
C523 C531 1.433 . S
C524 H520 0.929 . S
C524 C526 1.378 . S
C524 C528 1.350 . S
C525 C528 1.463 . S
C525 C530 1.350 . S
C525 N533 1.427 . S
C526 H517 0.930 . S
C526 C524 1.378 . S
C526 C527 1.367 . S
C527 C526 1.367 . S
C527 C529 1.433 . S
C528 C524 1.350 . S
C528 C525 1.463 . S
C528 N532 1.427 . S
C529 H519 0.929 . S
C529 C527 1.433 . S
C529 N532 1.384 . S
C530 H521 0.929 . S
C530 C522 1.378 . S
C530 C525 1.350 . S
C531 H518 0.929 . S
C531 C523 1.433 . S
C531 N533 1.384 . S
N532 C528 1.427 . S
N532 C529 1.384 . S
N533 C525 1.427 . S
N533 C531 1.384 . S
H534 C540 0.930 . S
H535 C544 0.930 . S
H536 C549 0.929 . S
H537 C547 0.929 . S
H538 C542 0.929 . S
H539 C548 0.929 . S
C540 H534 0.930 . S
C540 C541 1.367 . S
C540 C548 1.378 . S
C541 C540 1.367 . S
C541 C549 1.433 . S
C542 H538 0.929 . S
C542 C544 1.378 . S
C542 C546 1.350 . S
C543 C546 1.463 . S
C543 C548 1.350 . S
C543 N551 1.427 . S
C544 H535 0.930 . S
C544 C542 1.378 . S
C544 C545 1.367 . S
C545 C544 1.367 . S
C545 C547 1.433 . S
C546 C542 1.350 . S
C546 C543 1.463 . S
C546 N550 1.427 . S
C547 H537 0.929 . S
C547 C545 1.433 . S
C547 N550 1.384 . S
C548 H539 0.929 . S
C548 C540 1.378 . S
C548 C543 1.350 . S
C549 H536 0.929 . S
C549 C541 1.433 . S
C549 N551 1.384 . S
N550 C546 1.427 . S
N550 C547 1.384 . S
N551 C543 1.427 . S
N551 C549 1.384 . S
H552 C558 0.930 . S
H553 C562 0.930 . S
H554 C567 0.929 . S
H555 C565 0.929 . S
H556 C560 0.929 . S
H557 C566 0.929 . S
C558 H552 0.930 . S
C558 C559 1.367 . S
C558 C566 1.378 . S
C559 C558 1.367 . S
C559 C567 1.433 . S
C560 H556 0.929 . S
C560 C562 1.378 . S
C560 C564 1.350 . S
C561 C564 1.463 . S
C561 C566 1.350 . S
C561 N569 1.427 . S
C562 H553 0.930 . S
C562 C560 1.378 . S
C562 C563 1.367 . S
C563 C562 1.367 . S
C563 C565 1.433 . S
C564 C560 1.350 . S
C564 C561 1.463 . S
C564 N568 1.427 . S
C565 H555 0.929 . S
C565 C563 1.433 . S
C565 N568 1.384 . S
C566 H557 0.929 . S
C566 C558 1.378 . S
C566 C561 1.350 . S
C567 H554 0.929 . S
C567 C559 1.433 . S
C567 N569 1.384 . S
N568 C564 1.427 . S
N568 C565 1.384 . S
N569 C561 1.427 . S
N569 C567 1.384 . S
H570 C576 0.930 . S
H571 C580 0.930 . S
H572 C585 0.929 . S
H573 C583 0.929 . S
H574 C578 0.929 . S
H575 C584 0.929 . S
C576 H570 0.930 . S
C576 C577 1.367 . S
C576 C584 1.378 . S
C577 C576 1.367 . S
C577 C585 1.433 . S
C578 H574 0.929 . S
C578 C580 1.378 . S
C578 C582 1.350 . S
C579 C582 1.463 . S
C579 C584 1.350 . S
C579 N587 1.427 . S
C580 H571 0.930 . S
C580 C578 1.378 . S
C580 C581 1.367 . S
C581 C580 1.367 . S
C581 C583 1.433 . S
C582 C578 1.350 . S
C582 C579 1.463 . S
C582 N586 1.427 . S
C583 H573 0.929 . S
C583 C581 1.433 . S
C583 N586 1.384 . S
C584 H575 0.929 . S
C584 C576 1.378 . S
C584 C579 1.350 . S
C585 H572 0.929 . S
C585 C577 1.433 . S
C585 N587 1.384 . S
N586 C582 1.427 . S
N586 C583 1.384 . S
N587 C579 1.427 . S
N587 C585 1.384 . S
H588 C594 0.930 . S
H589 C598 0.930 . S
H590 C603 0.929 . S
H591 C601 0.929 . S
H592 C596 0.929 . S
H593 C602 0.929 . S
C594 H588 0.930 . S
C594 C595 1.367 . S
C594 C602 1.378 . S
C595 C594 1.367 . S
C595 C603 1.433 . S
C596 H592 0.929 . S
C596 C598 1.378 . S
C596 C600 1.350 . S
C597 C600 1.463 . S
C597 C602 1.350 . S
C597 N605 1.427 . S
C598 H589 0.930 . S
C598 C596 1.378 . S
C598 C599 1.367 . S
C599 C598 1.367 . S
C599 C601 1.433 . S
C600 C596 1.350 . S
C600 C597 1.463 . S
C600 N604 1.427 . S
C601 H591 0.929 . S
C601 C599 1.433 . S
C601 N604 1.384 . S
C602 H593 0.929 . S
C602 C594 1.378 . S
C602 C597 1.350 . S
C603 H590 0.929 . S
C603 C595 1.433 . S
C603 N605 1.384 . S
N604 C600 1.427 . S
N604 C601 1.384 . S
N605 C597 1.427 . S
N605 C603 1.384 . S
H606 C612 0.930 . S
H607 C616 0.930 . S
H608 C621 0.929 . S
H609 C619 0.929 . S
H610 C614 0.929 . S
H611 C620 0.929 . S
C612 H606 0.930 . S
C612 C613 1.367 . S
C612 C620 1.378 . S
C613 C612 1.367 . S
C613 C621 1.433 . S
C614 H610 0.929 . S
C614 C616 1.378 . S
C614 C618 1.350 . S
C615 C618 1.463 . S
C615 C620 1.350 . S
C615 N623 1.427 . S
C616 H607 0.930 . S
C616 C614 1.378 . S
C616 C617 1.367 . S
C617 C616 1.367 . S
C617 C619 1.433 . S
C618 C614 1.350 . S
C618 C615 1.463 . S
C618 N622 1.427 . S
C619 H609 0.929 . S
C619 C617 1.433 . S
C619 N622 1.384 . S
C620 H611 0.929 . S
C620 C612 1.378 . S
C620 C615 1.350 . S
C621 H608 0.929 . S
C621 C613 1.433 . S
C621 N623 1.384 . S
N622 C618 1.427 . S
N622 C619 1.384 . S
N623 C615 1.427 . S
N623 C621 1.384 . S
H624 C630 0.930 . S
H625 C634 0.930 . S
H626 C639 0.929 . S
H627 C637 0.929 . S
H628 C632 0.929 . S
H629 C638 0.929 . S
C630 H624 0.930 . S
C630 C631 1.367 . S
C630 C638 1.378 . S
C631 C630 1.367 . S
C631 C639 1.433 . S
C632 H628 0.929 . S
C632 C634 1.378 . S
C632 C636 1.350 . S
C633 C636 1.463 . S
C633 C638 1.350 . S
C633 N641 1.427 . S
C634 H625 0.930 . S
C634 C632 1.378 . S
C634 C635 1.367 . S
C635 C634 1.367 . S
C635 C637 1.433 . S
C636 C632 1.350 . S
C636 C633 1.463 . S
C636 N640 1.427 . S
C637 H627 0.929 . S
C637 C635 1.433 . S
C637 N640 1.384 . S
C638 H629 0.929 . S
C638 C630 1.378 . S
C638 C633 1.350 . S
C639 H626 0.929 . S
C639 C631 1.433 . S
C639 N641 1.384 . S
N640 C636 1.427 . S
N640 C637 1.384 . S
N641 C633 1.427 . S
N641 C639 1.384 . S
H642 C648 0.930 . S
H643 C652 0.930 . S
H644 C657 0.929 . S
H645 C655 0.929 . S
H646 C650 0.929 . S
H647 C656 0.929 . S
C648 H642 0.930 . S
C648 C649 1.367 . S
C648 C656 1.378 . S
C649 C648 1.367 . S
C649 C657 1.433 . S
C650 H646 0.929 . S
C650 C652 1.378 . S
C650 C654 1.350 . S
C651 C654 1.463 . S
C651 C656 1.350 . S
C651 N659 1.427 . S
C652 H643 0.930 . S
C652 C650 1.378 . S
C652 C653 1.367 . S
C653 C652 1.367 . S
C653 C655 1.433 . S
C654 C650 1.350 . S
C654 C651 1.463 . S
C654 N658 1.427 . S
C655 H645 0.929 . S
C655 C653 1.433 . S
C655 N658 1.384 . S
C656 H647 0.929 . S
C656 C648 1.378 . S
C656 C651 1.350 . S
C657 H644 0.929 . S
C657 C649 1.433 . S
C657 N659 1.384 . S
N658 C654 1.427 . S
N658 C655 1.384 . S
N659 C651 1.427 . S
N659 C657 1.384 . S
H660 C666 0.930 . S
H661 C670 0.930 . S
H662 C675 0.929 . S
H663 C673 0.929 . S
H664 C668 0.929 . S
H665 C674 0.929 . S
C666 H660 0.930 . S
C666 C667 1.367 . S
C666 C674 1.378 . S
C667 C666 1.367 . S
C667 C675 1.433 . S
C668 H664 0.929 . S
C668 C670 1.378 . S
C668 C672 1.350 . S
C669 C672 1.463 . S
C669 C674 1.350 . S
C669 N677 1.427 . S
C670 H661 0.930 . S
C670 C668 1.378 . S
C670 C671 1.367 . S
C671 C670 1.367 . S
C671 C673 1.433 . S
C672 C668 1.350 . S
C672 C669 1.463 . S
C672 N676 1.427 . S
C673 H663 0.929 . S
C673 C671 1.433 . S
C673 N676 1.384 . S
C674 H665 0.929 . S
C674 C666 1.378 . S
C674 C669 1.350 . S
C675 H662 0.929 . S
C675 C667 1.433 . S
C675 N677 1.384 . S
N676 C672 1.427 . S
N676 C673 1.384 . S
N677 C669 1.427 . S
N677 C675 1.384 . S
H678 C684 0.930 . S
H679 C688 0.930 . S
H680 C693 0.929 . S
H681 C691 0.929 . S
H682 C686 0.929 . S
H683 C692 0.929 . S
C684 H678 0.930 . S
C684 C685 1.367 . S
C684 C692 1.378 . S
C685 C684 1.367 . S
C685 C693 1.433 . S
C686 H682 0.929 . S
C686 C688 1.378 . S
C686 C690 1.350 . S
C687 C690 1.463 . S
C687 C692 1.350 . S
C687 N695 1.427 . S
C688 H679 0.930 . S
C688 C686 1.378 . S
C688 C689 1.367 . S
C689 C688 1.367 . S
C689 C691 1.433 . S
C690 C686 1.350 . S
C690 C687 1.463 . S
C690 N694 1.427 . S
C691 H681 0.929 . S
C691 C689 1.433 . S
C691 N694 1.384 . S
C692 H683 0.929 . S
C692 C684 1.378 . S
C692 C687 1.350 . S
C693 H680 0.929 . S
C693 C685 1.433 . S
C693 N695 1.384 . S
N694 C690 1.427 . S
N694 C691 1.384 . S
N695 C687 1.427 . S
N695 C693 1.384 . S
H696 C702 0.930 . S
H697 C706 0.930 . S
H698 C711 0.929 . S
H699 C709 0.929 . S
H700 C704 0.929 . S
H701 C710 0.929 . S
C702 H696 0.930 . S
C702 C703 1.367 . S
C702 C710 1.378 . S
C703 C702 1.367 . S
C703 C711 1.433 . S
C704 H700 0.929 . S
C704 C706 1.378 . S
C704 C708 1.350 . S
C705 C708 1.463 . S
C705 C710 1.350 . S
C705 N713 1.427 . S
C706 H697 0.930 . S
C706 C704 1.378 . S
C706 C707 1.367 . S
C707 C706 1.367 . S
C707 C709 1.433 . S
C708 C704 1.350 . S
C708 C705 1.463 . S
C708 N712 1.427 . S
C709 H699 0.929 . S
C709 C707 1.433 . S
C709 N712 1.384 . S
C710 H701 0.929 . S
C710 C702 1.378 . S
C710 C705 1.350 . S
C711 H698 0.929 . S
C711 C703 1.433 . S
C711 N713 1.384 . S
N712 C708 1.427 . S
N712 C709 1.384 . S
N713 C705 1.427 . S
N713 C711 1.384 . S
H714 C720 0.930 . S
H715 C724 0.930 . S
H716 C729 0.929 . S
H717 C727 0.929 . S
H718 C722 0.929 . S
H719 C728 0.929 . S
C720 H714 0.930 . S
C720 C721 1.367 . S
C720 C728 1.378 . S
C721 C720 1.367 . S
C721 C729 1.433 . S
C722 H718 0.929 . S
C722 C724 1.378 . S
C722 C726 1.350 . S
C723 C726 1.463 . S
C723 C728 1.350 . S
C723 N731 1.427 . S
C724 H715 0.930 . S
C724 C722 1.378 . S
C724 C725 1.367 . S
C725 C724 1.367 . S
C725 C727 1.433 . S
C726 C722 1.350 . S
C726 C723 1.463 . S
C726 N730 1.427 . S
C727 H717 0.929 . S
C727 C725 1.433 . S
C727 N730 1.384 . S
C728 H719 0.929 . S
C728 C720 1.378 . S
C728 C723 1.350 . S
C729 H716 0.929 . S
C729 C721 1.433 . S
C729 N731 1.384 . S
N730 C726 1.427 . S
N730 C727 1.384 . S
N731 C723 1.427 . S
N731 C729 1.384 . S
H732 C738 0.930 . S
H733 C742 0.930 . S
H734 C747 0.929 . S
H735 C745 0.929 . S
H736 C740 0.929 . S
H737 C746 0.929 . S
C738 H732 0.930 . S
C738 C739 1.367 . S
C738 C746 1.378 . S
C739 C738 1.367 . S
C739 C747 1.433 . S
C740 H736 0.929 . S
C740 C742 1.378 . S
C740 C744 1.350 . S
C741 C744 1.463 . S
C741 C746 1.350 . S
C741 N749 1.427 . S
C742 H733 0.930 . S
C742 C740 1.378 . S
C742 C743 1.367 . S
C743 C742 1.367 . S
C743 C745 1.433 . S
C744 C740 1.350 . S
C744 C741 1.463 . S
C744 N748 1.427 . S
C745 H735 0.929 . S
C745 C743 1.433 . S
C745 N748 1.384 . S
C746 H737 0.929 . S
C746 C738 1.378 . S
C746 C741 1.350 . S
C747 H734 0.929 . S
C747 C739 1.433 . S
C747 N749 1.384 . S
N748 C744 1.427 . S
N748 C745 1.384 . S
N749 C741 1.427 . S
N749 C747 1.384 . S
H750 C756 0.930 . S
H751 C760 0.930 . S
H752 C765 0.929 . S
H753 C763 0.929 . S
H754 C758 0.929 . S
H755 C764 0.929 . S
C756 H750 0.930 . S
C756 C757 1.367 . S
C756 C764 1.378 . S
C757 C756 1.367 . S
C757 C765 1.433 . S
C758 H754 0.929 . S
C758 C760 1.378 . S
C758 C762 1.350 . S
C759 C762 1.463 . S
C759 C764 1.350 . S
C759 N767 1.427 . S
C760 H751 0.930 . S
C760 C758 1.378 . S
C760 C761 1.367 . S
C761 C760 1.367 . S
C761 C763 1.433 . S
C762 C758 1.350 . S
C762 C759 1.463 . S
C762 N766 1.427 . S
C763 H753 0.929 . S
C763 C761 1.433 . S
C763 N766 1.384 . S
C764 H755 0.929 . S
C764 C756 1.378 . S
C764 C759 1.350 . S
C765 H752 0.929 . S
C765 C757 1.433 . S
C765 N767 1.384 . S
N766 C762 1.427 . S
N766 C763 1.384 . S
N767 C759 1.427 . S
N767 C765 1.384 . S
C343 C29 1.549 . S
C347 C275 1.515 . S
C361 C49 1.240 . S
C365 C278 1.216 . S
C383 C314 1.784 . S
C379 C93 1.780 . S
C397 C119 1.627 . S
C401 C334 1.607 . S
C419 C288 1.656 . S
C415 C17 1.682 . S
C437 C265 1.542 . S
C433 C61 1.535 . S
C455 C318 1.557 . S
C451 C81 1.651 . S
C473 C298 1.404 . S
C469 C125 1.487 . S
C487 C23 1.339 . S
C491 C328 1.293 . S
C509 C294 1.606 . S
C505 C87 1.601 . S
C523 C113 1.660 . S
C527 C260 1.596 . S
C541 C55 1.299 . S
C545 C308 1.293 . S
C563 C274 1.451 . S
C559 C157 1.400 . S
C577 C189 1.281 . S
C581 C280 1.251 . S
C595 C221 1.736 . S
C599 C315 1.761 . S
C613 C253 1.681 . S
C617 C335 1.666 . S
C631 C145 1.677 . S
C635 C285 1.698 . S
C653 C268 1.477 . S
C649 C183 1.482 . S
C671 C320 1.571 . S
C667 C209 1.646 . S
C689 C300 1.362 . S
C685 C247 1.446 . S
C703 C151 1.287 . S
C707 C325 1.293 . S
C725 C295 1.595 . S
C721 C215 1.567 . S
C743 C258 1.600 . S
C739 C241 1.626 . S
C757 C177 1.333 . S
C761 C305 1.333 . S
