# Generated by pormake.
# Topology nom, (4,4)-cn, num edge types: 1
# Building blocks:
#     Node 0, Type 0, BuildingBlock: KUFVIS_clean_linker_0, # of connection points: 4
#     Node 1, Type 0, BuildingBlock: KUFVIS_clean_linker_0, # of connection points: 4
#     Node 2, Type 0, BuildingBlock: KUFVIS_clean_linker_0, # of connection points: 4
#     Node 3, Type 0, BuildingBlock: KUFVIS_clean_linker_0, # of connection points: 4
#     Node 4, Type 0, BuildingBlock: KUFVIS_clean_linker_0, # of connection points: 4
#     Node 5, Type 0, BuildingBlock: KUFVIS_clean_linker_0, # of connection points: 4
#     Node 6, Type 1, BuildingBlock: QUQFOY_clean_sbu_1, # of connection points: 4
#     Node 7, Type 1, BuildingBlock: QUQFOY_clean_sbu_1, # of connection points: 4
#     Node 8, Type 1, BuildingBlock: QUQFOY_clean_sbu_1, # of connection points: 4
#     Node 9, Type 1, BuildingBlock: QUQFOY_clean_sbu_1, # of connection points: 4
#     Node 10, Type 1, BuildingBlock: QUQFOY_clean_sbu_1, # of connection points: 4
#     Node 11, Type 1, BuildingBlock: QUQFOY_clean_sbu_1, # of connection points: 4
#     Edge 12, Type (0, 1), BuildingBlock: ZUJKAS_clean_linker_0, # of connection points: 2
#     Edge 13, Type (0, 1), BuildingBlock: ZUJKAS_clean_linker_0, # of connection points: 2
#     Edge 14, Type (0, 1), BuildingBlock: ZUJKAS_clean_linker_0, # of connection points: 2
#     Edge 15, Type (0, 1), BuildingBlock: ZUJKAS_clean_linker_0, # of connection points: 2
#     Edge 16, Type (0, 1), BuildingBlock: ZUJKAS_clean_linker_0, # of connection points: 2
#     Edge 17, Type (0, 1), BuildingBlock: ZUJKAS_clean_linker_0, # of connection points: 2
#     Edge 18, Type (0, 1), BuildingBlock: ZUJKAS_clean_linker_0, # of connection points: 2
#     Edge 19, Type (0, 1), BuildingBlock: ZUJKAS_clean_linker_0, # of connection points: 2
#     Edge 20, Type (0, 1), BuildingBlock: ZUJKAS_clean_linker_0, # of connection points: 2
#     Edge 21, Type (0, 1), BuildingBlock: ZUJKAS_clean_linker_0, # of connection points: 2
#     Edge 22, Type (0, 1), BuildingBlock: ZUJKAS_clean_linker_0, # of connection points: 2
#     Edge 23, Type (0, 1), BuildingBlock: ZUJKAS_clean_linker_0, # of connection points: 2
#     Edge 24, Type (0, 1), BuildingBlock: ZUJKAS_clean_linker_0, # of connection points: 2
#     Edge 25, Type (0, 1), BuildingBlock: ZUJKAS_clean_linker_0, # of connection points: 2
#     Edge 26, Type (0, 1), BuildingBlock: ZUJKAS_clean_linker_0, # of connection points: 2
#     Edge 27, Type (0, 1), BuildingBlock: ZUJKAS_clean_linker_0, # of connection points: 2
#     Edge 28, Type (0, 1), BuildingBlock: ZUJKAS_clean_linker_0, # of connection points: 2
#     Edge 29, Type (0, 1), BuildingBlock: ZUJKAS_clean_linker_0, # of connection points: 2
#     Edge 30, Type (0, 1), BuildingBlock: ZUJKAS_clean_linker_0, # of connection points: 2
#     Edge 31, Type (0, 1), BuildingBlock: ZUJKAS_clean_linker_0, # of connection points: 2
#     Edge 32, Type (0, 1), BuildingBlock: ZUJKAS_clean_linker_0, # of connection points: 2
#     Edge 33, Type (0, 1), BuildingBlock: ZUJKAS_clean_linker_0, # of connection points: 2
#     Edge 34, Type (0, 1), BuildingBlock: ZUJKAS_clean_linker_0, # of connection points: 2
#     Edge 35, Type (0, 1), BuildingBlock: ZUJKAS_clean_linker_0, # of connection points: 2
# Relax obj value: 0.005
# Max RMSD: 0.092
# Mean RMSD: 0.068
data_MOF--net-nom--node1-QUQFOY_clean_sbu_1--node2-KUFVIS_clean_linker_0--edge1-ZUJKAS_clean_linker_0
_symmetry_space_group_name_H-M    P1
_symmetry_Int_Tables_number       1
_symmetry_cell_setting            triclinic
loop_
_symmetry_equiv_pos_as_xyz
'x, y, z'
_cell_length_a     61.577864
_cell_length_b     61.632629
_cell_length_c     56.661993
_cell_angle_alpha  90.040983
_cell_angle_beta   89.945246
_cell_angle_gamma 120.05446
loop_
_atom_site_label
_atom_site_type_symbol
_atom_site_fract_x
_atom_site_fract_y
_atom_site_fract_z
_atom_type_partial_charge
H0 H 0.10631 0.58144 0.33428 0.0
H1 H 0.04723 0.56489 0.28494 0.0
H2 H 0.0301 0.54046 0.35777 0.0
H3 H 0.99628 0.54539 0.3497 0.0
H4 H 0.93569 0.50287 0.30184 0.0
H5 H 1.01091 0.52708 0.27969 0.0
C6 C 0.08643 0.57283 0.33034 0.0
C7 C 0.06901 0.56131 0.34843 0.0
C8 C 0.07873 0.57387 0.3074 0.0
C9 C 0.053 0.56342 0.30263 0.0
C10 C 0.0349 0.55092 0.32062 0.0
C11 C 0.04332 0.55007 0.34363 0.0
C12 C 1.00738 0.53818 0.31534 0.0
C13 C 0.98994 0.53658 0.33262 0.0
C14 C 0.96412 0.52393 0.32766 0.0
C15 C 0.95566 0.51276 0.30562 0.0
C16 C 0.97243 0.51399 0.28839 0.0
C17 C 0.99823 0.52678 0.29311 0.0
H18 H 0.55359 0.10291 0.4968 0.0
H19 H 0.5016 0.04578 0.45014 0.0
H20 H 0.51276 0.02715 0.52122 0.0
H21 H 0.47335 0.99578 0.51637 0.0
H22 H 0.43983 0.93483 0.46737 0.0
H23 H 0.49642 1.00705 0.44296 0.0
C24 C 0.54057 0.08326 0.49321 0.0
C25 C 0.53427 0.06577 0.51133 0.0
C26 C 0.52906 0.07619 0.47111 0.0
C27 C 0.51102 0.05093 0.46706 0.0
C28 C 0.50511 0.03258 0.48483 0.0
C29 C 0.51683 0.04048 0.50711 0.0
C30 C 0.48683 1.00541 0.48013 0.0
C31 C 0.47204 0.98902 0.49851 0.0
C32 C 0.45514 0.96361 0.49385 0.0
C33 C 0.4525 0.9546 0.47081 0.0
C34 C 0.4672 0.97019 0.45248 0.0
C35 C 0.48456 0.99543 0.45719 0.0
H36 H 0.54553 0.4593 0.63329 0.0
H37 H 0.50201 0.47217 0.6846 0.0
H38 H 0.50726 0.49816 0.61259 0.0
H39 H 0.46775 0.49111 0.62229 0.0
H40 H 0.44738 0.52905 0.67371 0.0
H41 H 0.50299 0.50967 0.69121 0.0
C42 C 0.5338 0.46718 0.63796 0.0
C43 C 0.52698 0.47859 0.62051 0.0
C44 C 0.52508 0.46501 0.66108 0.0
C45 C 0.50918 0.47449 0.66677 0.0
C46 C 0.50277 0.487 0.64952 0.0
C47 C 0.51173 0.48873 0.62623 0.0
C48 C 0.48722 0.49857 0.65596 0.0
C49 C 0.47014 0.49933 0.63967 0.0
C50 C 0.45555 0.51019 0.646 0.0
C51 C 0.45809 0.52016 0.6687 0.0
C52 C 0.47482 0.51966 0.68495 0.0
C53 C 0.48962 0.50926 0.67855 0.0
H54 H 0.10551 0.52391 0.7998 0.0
H55 H 0.04422 0.49382 0.84865 0.0
H56 H 0.03239 0.50498 0.77521 0.0
H57 H 0.99418 0.47059 0.78245 0.0
H58 H 0.93631 0.46484 0.82851 0.0
H59 H 1.012 0.50093 0.85344 0.0
C60 C 0.08563 0.5162 0.80324 0.0
C61 C 0.0697 0.5143 0.78486 0.0
C62 C 0.07662 0.50944 0.82622 0.0
C63 C 0.05096 0.49959 0.83083 0.0
C64 C 0.03433 0.49737 0.81244 0.0
C65 C 0.04424 0.50538 0.7895 0.0
C66 C 1.00698 0.48762 0.81711 0.0
C67 C 0.98879 0.47475 0.7993 0.0
C68 C 0.9634 0.46714 0.80317 0.0
C69 C 0.95603 0.47157 0.82512 0.0
C70 C 0.97337 0.48312 0.84329 0.0
C71 C 0.9988 0.49135 0.8393 0.0
H72 H 0.5213 0.93581 -0.00087 0.0
H73 H 0.54714 0.99695 0.95051 0.0
H74 H 0.53532 1.00719 0.02422 0.0
H75 H 0.56863 0.04629 0.0171 0.0
H76 H 0.57255 0.10332 0.97114 0.0
H77 H 0.53827 0.02781 0.94619 0.0
C78 C 0.52794 0.9555 -0.00421 0.0
C79 C 0.52854 0.97076 0.01429 0.0
C80 C 0.53399 0.96469 0.97278 0.0
C81 C 0.54191 0.99001 0.96836 0.0
C82 C 0.54324 1.00608 0.98693 0.0
C83 C 0.53581 0.99587 0.00983 0.0
C84 C 0.55167 0.03317 0.98248 0.0
C85 C 0.56411 0.05145 0.00032 0.0
C86 C 0.57102 0.07665 -0.00349 0.0
C87 C 0.56621 0.08372 0.97458 0.0
C88 C 0.55501 0.06631 0.9564 0.0
C89 C 0.54751 0.04107 0.96036 0.0
H90 H 0.51897 0.60042 0.13485 0.0
H91 H 0.54638 0.56661 0.18353 0.0
H92 H 0.5339 0.54354 0.11015 0.0
H93 H 0.56792 0.53882 0.11703 0.0
H94 H 0.57234 0.48585 0.16276 0.0
H95 H 0.53787 0.52681 0.18811 0.0
C96 C 0.52594 0.58766 0.13823 0.0
C97 C 0.52655 0.57287 0.11985 0.0
C98 C 0.53248 0.58503 0.16121 0.0
C99 C 0.54082 0.56798 0.16573 0.0
C100 C 0.54218 0.55315 0.14727 0.0
C101 C 0.53432 0.55543 0.12442 0.0
C102 C 0.55106 0.53486 0.15175 0.0
C103 C 0.56356 0.52918 0.13383 0.0
C104 C 0.57063 0.51101 0.13755 0.0
C105 C 0.56596 0.49911 0.15946 0.0
C106 C 0.55477 0.50522 0.17774 0.0
C107 C 0.54712 0.52286 0.17388 0.0
O108 O 0.61911 0.38292 0.42925 0.0
Cd109 Cd 0.62526 0.36793 0.39908 0.0
Cd110 Cd 0.67104 0.41451 0.40066 0.0
O111 O 0.65555 0.41809 0.43164 0.0
O112 O 0.59606 0.33295 0.39854 0.0
O113 O 0.63523 0.3412 0.40053 0.0
C114 C 0.6116 0.32479 0.39982 0.0
C115 C 0.71426 0.42841 0.40015 0.0
C116 C 0.63363 0.40353 0.43959 0.0
C117 C 0.63554 0.4049 0.35988 0.0
O118 O 0.65586 0.42001 0.37034 0.0
O119 O 0.6215 0.38289 0.36785 0.0
O120 O 0.70595 0.44385 0.40124 0.0
O121 O 0.69794 0.40476 0.39953 0.0
O122 O 0.25924 0.61846 0.59517 0.0
Cd123 Cd 0.28041 0.62482 0.56498 0.0
Cd124 Cd 0.27981 0.67113 0.56733 0.0
O125 O 0.25999 0.65464 0.59779 0.0
O126 O 0.28531 0.59515 0.56277 0.0
O127 O 0.31682 0.63376 0.56742 0.0
C128 C 0.30904 0.61014 0.56517 0.0
C129 C 0.30819 0.71458 0.56747 0.0
C130 C 0.25285 0.63272 0.60556 0.0
C131 C 0.25444 0.63641 0.52587 0.0
O132 O 0.25994 0.65668 0.53653 0.0
O133 O 0.26189 0.62196 0.53379 0.0
O134 O 0.28429 0.70558 0.56788 0.0
O135 O 0.31625 0.69885 0.56741 0.0
O136 O 0.65617 0.25139 0.76232 0.0
Cd137 Cd 0.67128 0.27258 0.7322 0.0
Cd138 Cd 0.62562 0.27348 0.7348 0.0
O139 O 0.62255 0.25524 0.76615 0.0
O140 O 0.70608 0.27792 0.73112 0.0
O141 O 0.69837 0.30914 0.73392 0.0
C142 C 0.71455 0.30166 0.73278 0.0
C143 C 0.61187 0.30286 0.73396 0.0
C144 C 0.63634 0.24671 0.77344 0.0
C145 C 0.63337 0.24641 0.69376 0.0
O146 O 0.6188 0.25189 0.70486 0.0
O147 O 0.65563 0.25425 0.70096 0.0
O148 O 0.59641 0.27919 0.73594 0.0
O149 O 0.63548 0.31012 0.73266 0.0
O150 O 0.42085 0.65747 0.93215 0.0
Cd151 Cd 0.41703 0.67262 0.90103 0.0
Cd152 Cd 0.37092 0.62477 0.90056 0.0
O153 O 0.38583 0.62073 0.93171 0.0
O154 O 0.44695 0.70714 0.90187 0.0
O155 O 0.40825 0.70028 0.90024 0.0
C156 C 0.43204 0.71607 0.90116 0.0
C157 C 0.32717 0.60813 0.89898 0.0
C158 C 0.40664 0.63607 0.94128 0.0
C159 C 0.40898 0.63643 0.86145 0.0
O160 O 0.38768 0.62133 0.87034 0.0
O161 O 0.42299 0.6578 0.8707 0.0
O162 O 0.33698 0.59397 0.89958 0.0
O163 O 0.34225 0.63207 0.89946 0.0
O164 O 0.78713 0.38364 0.03665 0.0
Cd165 Cd 0.76627 0.3687 0.06696 0.0
Cd166 Cd 0.76537 0.41437 0.06469 0.0
O167 O 0.78408 0.41774 0.03349 0.0
O168 O 0.76077 0.33388 0.06791 0.0
O169 O 0.72961 0.34176 0.0658 0.0
C170 C 0.737 0.32551 0.0667 0.0
C171 C 0.736 0.42816 0.06533 0.0
C172 C 0.79222 0.40373 0.02586 0.0
C173 C 0.79241 0.40642 0.10561 0.0
O174 O 0.78648 0.42084 0.09491 0.0
O175 O 0.78506 0.38442 0.09796 0.0
O176 O 0.75973 0.4436 0.06373 0.0
O177 O 0.72868 0.40454 0.06634 0.0
O178 O 0.42231 0.77974 0.20298 0.0
Cd179 Cd 0.41709 0.7609 0.23442 0.0
Cd180 Cd 0.37043 0.76095 0.2316 0.0
O181 O 0.38643 0.7796 0.20052 0.0
O182 O 0.447 0.75631 0.23551 0.0
O183 O 0.40823 0.72446 0.23534 0.0
C184 C 0.43203 0.73244 0.23557 0.0
C185 C 0.32701 0.73234 0.23182 0.0
C186 C 0.40804 0.78592 0.19235 0.0
C187 C 0.40587 0.78848 0.2722 0.0
O188 O 0.38511 0.78177 0.26191 0.0
O189 O 0.42081 0.78153 0.26441 0.0
O190 O 0.33584 0.75614 0.23032 0.0
O191 O 0.34291 0.72452 0.23296 0.0
H192 H 0.11388 0.5621 0.29437 0.0
H193 H 0.15287 0.58891 0.27307 0.0
H194 H 0.12774 0.64153 0.25875 0.0
H195 H 0.08864 0.61472 0.2805 0.0
H196 H 0.16753 0.61156 0.22803 0.0
H197 H 0.19056 0.68125 0.30005 0.0
H198 H 0.16448 0.64965 0.30197 0.0
H199 H 0.16216 0.67242 0.28403 0.0
C200 C 0.11638 0.57904 0.28607 0.0
C201 C 0.09839 0.58648 0.28915 0.0
C202 C 0.13866 0.59435 0.27393 0.0
C203 C 0.14344 0.61745 0.26475 0.0
C204 C 0.12457 0.62394 0.26605 0.0
H205 H 0.28986 0.74387 0.22712 0.0
H206 H 0.24472 0.71604 0.23166 0.0
C207 C 0.10216 0.60853 0.27821 0.0
C208 C 0.16913 0.6356 0.25637 0.0
H209 H 0.22151 0.69056 0.27148 0.0
C210 C 0.17928 0.62898 0.23734 0.0
C211 C 0.18451 0.65822 0.26869 0.0
C212 C 0.17505 0.66583 0.28994 0.0
C213 C 0.20444 0.6443 0.2304 0.0
C214 C 0.21995 0.66658 0.24311 0.0
C215 C 0.2096 0.67348 0.26174 0.0
C216 C 0.24718 0.68275 0.23804 0.0
C217 C 0.21414 0.63651 0.2095 0.0
C218 C 0.26367 0.6733 0.24003 0.0
C219 C 0.2896 0.6892 0.23739 0.0
C220 C 0.29952 0.71491 0.23295 0.0
C221 C 0.28289 0.72419 0.23057 0.0
C222 C 0.25704 0.70829 0.23314 0.0
H223 H 0.19863 0.62357 0.19768 0.0
H224 H 0.22777 0.65305 0.19912 0.0
H225 H 0.22382 0.62654 0.21589 0.0
H226 H 0.25659 0.65378 0.24436 0.0
H227 H 0.3019 0.68149 0.23945 0.0
H228 H 0.57533 0.11142 0.45587 0.0
H229 H 0.58634 0.15078 0.43594 0.0
H230 H 0.50781 0.12615 0.42697 0.0
H231 H 0.49669 0.0868 0.44747 0.0
H232 H 0.57608 0.16657 0.39302 0.0
H233 H 0.53323 0.18801 0.46955 0.0
H234 H 0.53862 0.16183 0.4695 0.0
H235 H 0.51257 0.16 0.45351 0.0
C236 C 0.56041 0.11415 0.44909 0.0
C237 C 0.53516 0.09621 0.45343 0.0
C238 C 0.56672 0.13663 0.43771 0.0
C239 C 0.54791 0.14166 0.43048 0.0
C240 C 0.52263 0.12283 0.43283 0.0
H241 H 0.56307 0.28668 0.39702 0.0
H242 H 0.54711 0.24179 0.40136 0.0
C243 C 0.51628 0.10025 0.44428 0.0
C244 C 0.555 0.16748 0.42297 0.0
H245 H 0.55246 0.21917 0.44065 0.0
C246 C 0.57074 0.17803 0.40329 0.0
C247 C 0.54824 0.1825 0.43655 0.0
C248 C 0.53242 0.17268 0.45857 0.0
C249 C 0.5799 0.20319 0.39683 0.0
C250 C 0.57348 0.21828 0.41067 0.0
C251 C 0.55734 0.20757 0.43004 0.0
C252 C 0.58364 0.2454 0.40588 0.0
C253 C 0.59627 0.21335 0.37522 0.0
C254 C 0.60957 0.26245 0.40694 0.0
C255 C 0.61882 0.28824 0.40445 0.0
C256 C 0.60228 0.29746 0.40105 0.0
C257 C 0.57637 0.28027 0.39965 0.0
C258 C 0.56717 0.25456 0.4021 0.0
H259 H 0.59364 0.19808 0.36305 0.0
H260 H 0.59223 0.22658 0.36549 0.0
H261 H 0.61624 0.22363 0.38072 0.0
H262 H 0.62261 0.25588 0.41037 0.0
H263 H 0.63885 0.30097 0.40572 0.0
H264 H 0.40795 0.5001 0.65477 0.0
H265 H 0.38368 0.51378 0.63194 0.0
H266 H 0.43872 0.5386 0.5761 0.0
H267 H 0.46416 0.52633 0.59991 0.0
H268 H 0.42972 0.57394 0.58527 0.0
H269 H 0.33727 0.48912 0.57852 0.0
H270 H 0.34583 0.49383 0.60902 0.0
H271 H 0.36446 0.48778 0.58824 0.0
C272 C 0.41472 0.50806 0.63743 0.0
C273 C 0.43814 0.51241 0.62927 0.0
C274 C 0.4006 0.51561 0.62419 0.0
C275 C 0.40907 0.52699 0.60205 0.0
C276 C 0.4317 0.52982 0.5931 0.0
H277 H 0.30443 0.56941 0.54203 0.0
H278 H 0.33095 0.5505 0.54574 0.0
C279 C 0.44611 0.52256 0.60659 0.0
C280 C 0.39572 0.53844 0.58995 0.0
H281 H 0.33696 0.52872 0.57954 0.0
C282 C 0.40946 0.56386 0.5835 0.0
C283 C 0.36934 0.52536 0.58696 0.0
C284 C 0.35351 0.49745 0.59081 0.0
C285 C 0.39746 0.57686 0.57568 0.0
C286 C 0.37089 0.56445 0.57532 0.0
C287 C 0.35729 0.53862 0.58028 0.0
C288 C 0.35668 0.57783 0.57084 0.0
C289 C 0.41355 0.60373 0.56788 0.0
C290 C 0.36236 0.59982 0.58333 0.0
C291 C 0.34764 0.61111 0.58059 0.0
C292 C 0.32638 0.60011 0.56601 0.0
C293 C 0.32072 0.57826 0.55343 0.0
C294 C 0.33586 0.5674 0.55561 0.0
H295 H 0.43155 0.60693 0.56023 0.0
H296 H 0.40389 0.60909 0.55454 0.0
H297 H 0.41822 0.61625 0.58343 0.0
H298 H 0.37765 0.60783 0.59588 0.0
H299 H 0.35217 0.62774 0.59077 0.0
H300 H 0.95187 0.42312 0.78125 0.0
H301 H 0.91259 0.39506 0.76046 0.0
H302 H 0.89022 0.45094 0.76602 0.0
H303 H 0.92939 0.47894 0.78635 0.0
H304 H 0.86773 0.3779 0.78296 0.0
H305 H 0.86631 0.42454 0.70013 0.0
H306 H 0.89491 0.43349 0.71618 0.0
H307 H 0.87446 0.445 0.72515 0.0
C308 C 0.93901 0.42974 0.7771 0.0
C309 C 0.94363 0.45317 0.78531 0.0
C310 C 0.91651 0.41366 0.76539 0.0
C311 C 0.89848 0.42094 0.76151 0.0
C312 C 0.90396 0.44505 0.76831 0.0
H313 H 0.73893 0.35246 0.74073 0.0
H314 H 0.7842 0.38077 0.74563 0.0
C315 C 0.92632 0.46102 0.78003 0.0
C316 C 0.87264 0.40234 0.7538 0.0
H317 H 0.82605 0.39319 0.71533 0.0
C318 C 0.85877 0.381 0.7679 0.0
C319 C 0.86083 0.40654 0.73433 0.0
C320 C 0.87499 0.42852 0.71795 0.0
C321 C 0.83321 0.36432 0.76366 0.0
C322 C 0.82125 0.36882 0.74451 0.0
C323 C 0.83522 0.38983 0.73005 0.0
C324 C 0.7941 0.35212 0.73966 0.0
C325 C 0.81899 0.3426 0.78036 0.0
C326 C 0.78472 0.32678 0.73411 0.0
C327 C 0.75894 0.31058 0.73144 0.0
C328 C 0.74196 0.31942 0.73406 0.0
C329 C 0.75147 0.34504 0.7387 0.0
C330 C 0.77733 0.36124 0.74145 0.0
H331 H 0.8293 0.34521 0.79717 0.0
H332 H 0.80022 0.34005 0.78449 0.0
H333 H 0.81624 0.32515 0.77192 0.0
H334 H 0.79734 0.31943 0.7322 0.0
H335 H 0.7523 0.29102 0.72764 0.0
H336 H 0.4998 0.95058 0.93737 0.0
H337 H 0.48211 0.91103 0.91523 0.0
H338 H 0.53839 0.89694 0.9447 0.0
H339 H 0.55592 0.93625 0.96694 0.0
H340 H 0.52121 0.88103 0.8925 0.0
H341 H 0.44689 0.84718 0.96175 0.0
H342 H 0.45468 0.87563 0.94615 0.0
H343 H 0.4771 0.87499 0.96587 0.0
C344 C 0.50905 0.93958 0.93822 0.0
C345 C 0.52926 0.94643 0.95372 0.0
C346 C 0.49882 0.91693 0.92576 0.0
C347 C 0.50883 0.90101 0.92855 0.0
C348 C 0.53046 0.909 0.94228 0.0
H349 H 0.48072 0.7526 0.90734 0.0
H350 H 0.49766 0.79764 0.91041 0.0
C351 C 0.54053 0.93149 0.95487 0.0
C352 C 0.49487 0.87466 0.92031 0.0
H353 H 0.44621 0.81726 0.9359 0.0
C354 C 0.5046 0.86708 0.90172 0.0
C355 C 0.47319 0.85658 0.93237 0.0
C356 C 0.46227 0.86379 0.95273 0.0
C357 C 0.49345 0.84171 0.89516 0.0
C358 C 0.4725 0.82341 0.90804 0.0
C359 C 0.46225 0.83122 0.92603 0.0
C360 C 0.46214 0.79602 0.90454 0.0
C361 C 0.50432 0.83481 0.87455 0.0
C362 C 0.43631 0.77983 0.90091 0.0
C363 C 0.42642 0.75383 0.89954 0.0
C364 C 0.44219 0.74356 0.90183 0.0
C365 C 0.46804 0.75985 0.9053 0.0
C366 C 0.47784 0.78572 0.90682 0.0
H367 H 0.51348 0.85055 0.86178 0.0
H368 H 0.51887 0.8307 0.88107 0.0
H369 H 0.48969 0.81803 0.86513 0.0
H370 H 0.42376 0.7873 0.89936 0.0
H371 H 0.40644 0.74181 0.89689 0.0
H372 H 0.61459 0.54335 0.11536 0.0
H373 H 0.64243 0.532 0.09436 0.0
H374 H 0.58642 0.45375 0.10033 0.0
H375 H 0.55861 0.46504 0.12086 0.0
H376 H 0.65967 0.50434 0.11673 0.0
H377 H 0.61226 0.45602 0.03416 0.0
H378 H 0.60354 0.47578 0.05033 0.0
H379 H 0.59201 0.44384 0.05935 0.0
C380 C 0.60789 0.52383 0.11127 0.0
C381 C 0.58448 0.50506 0.11966 0.0
C382 C 0.62384 0.51734 0.09944 0.0
C383 C 0.61647 0.49201 0.09561 0.0
C384 C 0.59237 0.4734 0.10259 0.0
H385 H 0.68521 0.4014 0.07354 0.0
H386 H 0.65673 0.41806 0.07883 0.0
C387 C 0.57652 0.47986 0.11444 0.0
C388 C 0.63498 0.48474 0.08771 0.0
H389 H 0.64385 0.44735 0.04892 0.0
C390 C 0.65644 0.49225 0.10163 0.0
C391 C 0.63061 0.4687 0.0682 0.0
C392 C 0.60846 0.46081 0.05202 0.0
C393 C 0.67311 0.48345 0.09717 0.0
C394 C 0.66848 0.467 0.07795 0.0
C395 C 0.64732 0.45988 0.06369 0.0
C396 C 0.68523 0.4567 0.07281 0.0
C397 C 0.69499 0.49102 0.11367 0.0
C398 C 0.71052 0.4728 0.06708 0.0
C399 C 0.72681 0.46339 0.06418 0.0
C400 C 0.7181 0.4376 0.06674 0.0
C401 C 0.69252 0.42134 0.07153 0.0
C402 C 0.67622 0.43083 0.07452 0.0
H403 H 0.69248 0.49865 0.13058 0.0
H404 H 0.69763 0.47485 0.11764 0.0
H405 H 0.71238 0.50581 0.10517 0.0
H406 H 0.71777 0.49276 0.06522 0.0
H407 H 0.74634 0.47642 0.06026 0.0
H408 H 0.40477 0.93614 0.5006 0.0
H409 H 0.38248 0.8969 0.52288 0.0
H410 H 0.45295 0.90838 0.54977 0.0
H411 H 0.47527 0.94793 0.52772 0.0
H412 H 0.42242 0.86323 0.52108 0.0
H413 H 0.36811 0.8738 0.59398 0.0
H414 H 0.36716 0.88739 0.56619 0.0
H415 H 0.39628 0.89997 0.58195 0.0
C416 C 0.41534 0.93086 0.51219 0.0
C417 C 0.44165 0.94514 0.51276 0.0
C418 C 0.40263 0.90842 0.52484 0.0
C419 C 0.41606 0.89979 0.53806 0.0
C420 C 0.44225 0.91485 0.53987 0.0
H421 H 0.35937 0.74074 0.57347 0.0
H422 H 0.38757 0.78611 0.56976 0.0
C423 C 0.45495 0.9375 0.52745 0.0
C424 C 0.40318 0.87347 0.54651 0.0
H425 H 0.35606 0.83208 0.58241 0.0
C426 C 0.4082 0.8564 0.53478 0.0
C427 C 0.38447 0.86469 0.56414 0.0
C428 C 0.37872 0.88239 0.57748 0.0
C429 C 0.39416 0.83055 0.53937 0.0
C430 C 0.37507 0.82159 0.55679 0.0
C431 C 0.37069 0.83887 0.56911 0.0
C432 C 0.35815 0.79429 0.56112 0.0
C433 C 0.39898 0.81306 0.52449 0.0
C434 C 0.33212 0.78385 0.55859 0.0
C435 C 0.31599 0.75808 0.56118 0.0
C436 C 0.32549 0.74206 0.56619 0.0
C437 C 0.35149 0.75255 0.56933 0.0
C438 C 0.36765 0.77847 0.56707 0.0
H439 H 0.40949 0.82229 0.5081 0.0
H440 H 0.41041 0.80706 0.53473 0.0
H441 H 0.38112 0.79609 0.51945 0.0
H442 H 0.32428 0.7956 0.55405 0.0
H443 H 0.29606 0.75065 0.55867 0.0
H444 H 0.49456 0.42321 0.687 0.0
H445 H 0.50728 0.3964 0.70793 0.0
H446 H 0.58494 0.45002 0.6937 0.0
H447 H 0.57232 0.47673 0.67308 0.0
H448 H 0.53249 0.37647 0.68395 0.0
H449 H 0.58838 0.42993 0.76142 0.0
H450 H 0.56705 0.43736 0.7464 0.0
H451 H 0.59794 0.44796 0.7347 0.0
C452 C 0.51435 0.42964 0.68919 0.0
C453 C 0.53249 0.45202 0.67854 0.0
C454 C 0.5216 0.41428 0.70099 0.0
C455 C 0.54709 0.42129 0.70256 0.0
C456 C 0.56523 0.44443 0.69318 0.0
H457 H 0.6383 0.3531 0.72343 0.0
H458 H 0.62147 0.38138 0.71789 0.0
C459 C 0.558 0.45964 0.68131 0.0
C460 C 0.55467 0.40315 0.71078 0.0
H461 H 0.59485 0.39662 0.74777 0.0
C462 C 0.54577 0.38066 0.69819 0.0
C463 C 0.57227 0.4088 0.72915 0.0
C464 C 0.5818 0.43223 0.74385 0.0
C465 C 0.5547 0.36412 0.70281 0.0
C466 C 0.57265 0.36996 0.7209 0.0
C467 C 0.58116 0.3922 0.73387 0.0
C468 C 0.58314 0.3534 0.72614 0.0
C469 C 0.54561 0.34108 0.68755 0.0
C470 C 0.56733 0.3285 0.73321 0.0
C471 C 0.57683 0.31231 0.7362 0.0
C472 C 0.60244 0.32074 0.73245 0.0
C473 C 0.61848 0.346 0.72637 0.0
C474 C 0.6089 0.36219 0.72324 0.0
H475 H 0.53697 0.34264 0.6709 0.0
H476 H 0.56124 0.33773 0.68304 0.0
H477 H 0.53119 0.3245 0.69733 0.0
H478 H 0.54751 0.32146 0.73606 0.0
H479 H 0.56399 0.29305 0.74116 0.0
H480 H 0.10313 0.55279 0.85019 0.0
H481 H 0.14354 0.567 0.86972 0.0
H482 H 0.13372 0.49294 0.86231 0.0
H483 H 0.09357 0.47897 0.84213 0.0
H484 H 0.16405 0.55428 0.90754 0.0
H485 H 0.19485 0.53594 0.8213 0.0
H486 H 0.1651 0.53454 0.82508 0.0
H487 H 0.16898 0.50881 0.83446 0.0
C488 C 0.10916 0.53933 0.85367 0.0
C489 C 0.09525 0.51476 0.84496 0.0
C490 C 0.13231 0.54748 0.86466 0.0
C491 C 0.14193 0.5312 0.86697 0.0
C492 C 0.12687 0.50595 0.8603 0.0
H493 H 0.29193 0.55855 0.89594 0.0
H494 H 0.24672 0.53988 0.89065 0.0
C495 C 0.10379 0.49786 0.84911 0.0
C496 C 0.16867 0.54141 0.87358 0.0
H497 H 0.22463 0.55095 0.85196 0.0
C498 C 0.17729 0.55348 0.89545 0.0
C499 C 0.18604 0.54071 0.85761 0.0
C500 C 0.17841 0.52954 0.83321 0.0
C501 C 0.20273 0.5645 0.90189 0.0
C502 C 0.21996 0.56361 0.88596 0.0
C503 C 0.21133 0.55148 0.86418 0.0
C504 C 0.24713 0.57516 0.8913 0.0
C505 C 0.21096 0.57677 0.92576 0.0
C506 C 0.26244 0.60127 0.89344 0.0
C507 C 0.28845 0.6121 0.89636 0.0
C508 C 0.29956 0.59697 0.89715 0.0
C509 C 0.28405 0.5708 0.89542 0.0
C510 C 0.25816 0.56004 0.89242 0.0
H511 H 0.19479 0.57117 0.93785 0.0
H512 H 0.22429 0.5719 0.93406 0.0
H513 H 0.22074 0.59743 0.92358 0.0
H514 H 0.25438 0.61332 0.8922 0.0
H515 H 0.29986 0.63231 0.89759 0.0
H516 H 0.55993 0.11166 0.01218 0.0
H517 H 0.58841 0.15103 0.03207 0.0
H518 H 0.64258 0.12672 0.04034 0.0
H519 H 0.61423 0.08737 0.01982 0.0
H520 H 0.61481 0.167 0.07469 0.0
H521 H 0.67866 0.18851 -0.00223 0.0
H522 H 0.64709 0.16222 -0.002 0.0
H523 H 0.67151 0.16058 0.01381 0.0
C524 C 0.57766 0.11446 0.01878 0.0
C525 C 0.58503 0.09663 0.01422 0.0
C526 C 0.59391 0.13695 0.03015 0.0
C527 C 0.61786 0.14207 0.03717 0.0
C528 C 0.62436 0.12333 0.03463 0.0
H529 H 0.74776 0.28772 0.06979 0.0
H530 H 0.71897 0.24272 0.06582 0.0
C531 C 0.60806 0.10075 0.02318 0.0
C532 C 0.63664 0.16793 0.0446 0.0
H533 H 0.69073 0.21972 0.02662 0.0
C534 C 0.63155 0.17848 0.06433 0.0
C535 C 0.65834 0.18298 0.0309 0.0
C536 C 0.66423 0.17316 0.00882 0.0
C537 C 0.64754 0.20368 0.07069 0.0
C538 C 0.66896 0.21881 0.05672 0.0
C539 C 0.67432 0.20809 0.03732 0.0
C540 C 0.68583 0.24597 0.06135 0.0
C541 C 0.64142 0.21387 0.09232 0.0
C542 C 0.67679 0.26285 0.06022 0.0
C543 C 0.69326 0.2887 0.06249 0.0
C544 C 0.7191 0.29814 0.06575 0.0
C545 C 0.72798 0.28113 0.06726 0.0
C546 C 0.71154 0.25536 0.06502 0.0
H547 H 0.62888 0.19862 0.10458 0.0
H548 H 0.65874 0.22722 0.10194 0.0
H549 H 0.6316 0.22402 0.08687 0.0
H550 H 0.65711 0.2561 0.05688 0.0
H551 H 0.68582 0.30129 0.06115 0.0
H552 H 0.49892 0.56543 0.19723 0.0
H553 H 0.48168 0.58759 0.2196 0.0
H554 H 0.5372 0.65756 0.18875 0.0
H555 H 0.55425 0.63549 0.16624 0.0
H556 H 0.5199 0.65498 0.24295 0.0
H557 H 0.44715 0.61796 0.17221 0.0
H558 H 0.45539 0.597 0.18659 0.0
H559 H 0.47768 0.62124 0.16768 0.0
C560 C 0.50812 0.58568 0.19611 0.0
C561 C 0.52797 0.59883 0.18017 0.0
C562 C 0.49815 0.59827 0.20872 0.0
C563 C 0.5081 0.62415 0.20567 0.0
C564 C 0.52936 0.63761 0.1914 0.0
H565 H 0.48095 0.74463 0.23139 0.0
H566 H 0.49775 0.71647 0.22771 0.0
C567 C 0.53915 0.62503 0.17865 0.0
C568 C 0.49435 0.63663 0.21422 0.0
H569 H 0.4467 0.64689 0.19866 0.0
C570 C 0.50368 0.65301 0.23353 0.0
C571 C 0.47317 0.63391 0.2019 0.0
C572 C 0.46265 0.61667 0.18087 0.0
C573 C 0.49261 0.66716 0.24058 0.0
C574 C 0.47217 0.66541 0.22749 0.0
C575 C 0.46234 0.64829 0.20871 0.0
C576 C 0.4619 0.68242 0.23165 0.0
C577 C 0.50298 0.68384 0.26196 0.0
C578 C 0.43596 0.67278 0.2345 0.0
C579 C 0.42616 0.68894 0.23621 0.0
C580 C 0.44213 0.71506 0.23507 0.0
C581 C 0.4681 0.72463 0.23254 0.0
C582 C 0.47782 0.70851 0.23066 0.0
H583 H 0.51155 0.67644 0.27451 0.0
H584 H 0.5179 0.70274 0.25631 0.0
H585 H 0.48819 0.68575 0.27136 0.0
H586 H 0.42325 0.65272 0.23508 0.0
H587 H 0.40608 0.68096 0.23811 0.0
H588 H 0.94954 0.49536 0.3675 0.0
H589 H 0.90896 0.47967 0.38767 0.0
H590 H 0.89388 0.52873 0.34538 0.0
H591 H 0.9342 0.54429 0.32523 0.0
H592 H 0.88003 0.5066 0.4098 0.0
H593 H 0.84258 0.45017 0.32777 0.0
H594 H 0.8748 0.46303 0.337 0.0
H595 H 0.86469 0.48304 0.32404 0.0
C596 C 0.93804 0.5036 0.36338 0.0
C597 C 0.94497 0.52116 0.34503 0.0
C598 C 0.91484 0.49452 0.37475 0.0
C599 C 0.89842 0.50293 0.36783 0.0
C600 C 0.90633 0.52205 0.35095 0.0
H601 H 0.75223 0.47697 0.40306 0.0
H602 H 0.79713 0.49316 0.39831 0.0
C603 C 0.92939 0.53104 0.33959 0.0
C604 C 0.87182 0.48945 0.37544 0.0
H605 H 0.81294 0.44957 0.35466 0.0
C606 C 0.86532 0.49395 0.39789 0.0
C607 C 0.85277 0.47269 0.35995 0.0
C608 C 0.85892 0.4667 0.33588 0.0
C609 C 0.84003 0.48275 0.40493 0.0
C610 C 0.82088 0.46692 0.38896 0.0
C611 C 0.82757 0.46173 0.36687 0.0
C612 C 0.79379 0.45672 0.39408 0.0
C613 C 0.83405 0.488 0.42935 0.0
C614 C 0.77681 0.4308 0.39296 0.0
C615 C 0.75098 0.42143 0.39551 0.0
C616 C 0.74164 0.43786 0.39899 0.0
C617 C 0.75875 0.46376 0.40046 0.0
C618 C 0.78451 0.47307 0.39796 0.0
H619 H 0.8501 0.49365 0.44158 0.0
H620 H 0.83006 0.50366 0.42846 0.0
H621 H 0.8173 0.47135 0.43676 0.0
H622 H 0.78354 0.41784 0.38975 0.0
H623 H 0.73832 0.4014 0.39425 0.0
H624 H 0.08282 0.5981 0.38069 0.0
H625 H 0.11135 0.60626 0.41394 0.0
H626 H 0.10741 0.53525 0.40185 0.0
H627 H 0.07917 0.52734 0.36826 0.0
H628 H 0.11216 0.58168 0.45592 0.0
H629 H 0.18135 0.5874 0.38936 0.0
H630 H 0.15247 0.58622 0.38119 0.0
H631 H 0.15225 0.55816 0.39021 0.0
C632 C 0.08729 0.58384 0.38581 0.0
C633 C 0.07873 0.56201 0.37227 0.0
C634 C 0.10368 0.58856 0.40464 0.0
C635 C 0.11186 0.57158 0.41 0.0
C636 C 0.10161 0.54875 0.39771 0.0
H637 H 0.23528 0.59249 0.50092 0.0
H638 H 0.20049 0.57582 0.47279 0.0
C639 C 0.08527 0.54407 0.3788 0.0
C640 C 0.13301 0.57912 0.4266 0.0
H641 H 0.19469 0.59501 0.42893 0.0
C642 C 0.13016 0.58445 0.45009 0.0
C643 C 0.15653 0.58289 0.41883 0.0
C644 C 0.16103 0.5786 0.39349 0.0
C645 C 0.15025 0.59346 0.46606 0.0
C646 C 0.17384 0.59762 0.45818 0.0
C647 C 0.17656 0.59182 0.43484 0.0
C648 C 0.19607 0.60847 0.47382 0.0
C649 C 0.14603 0.59838 0.49127 0.0
C650 C 0.20574 0.63276 0.48289 0.0
C651 C 0.22569 0.64243 0.49885 0.0
C652 C 0.23638 0.62796 0.50601 0.0
C653 C 0.22748 0.60412 0.49586 0.0
C654 C 0.20753 0.5945 0.47985 0.0
H655 H 0.12578 0.58837 0.49592 0.0
H656 H 0.15608 0.59255 0.50373 0.0
H657 H 0.15341 0.61877 0.49366 0.0
H658 H 0.19752 0.64407 0.47797 0.0
H659 H 0.23213 0.66089 0.50619 0.0
H660 H 0.58324 0.09192 0.52452 0.0
H661 H 0.59978 0.11861 0.55954 0.0
H662 H 0.52447 0.08965 0.5857 0.0
H663 H 0.50786 0.06268 0.55075 0.0
H664 H 0.55557 0.14459 0.57461 0.0
H665 H 0.6032 0.10918 0.63357 0.0
H666 H 0.60812 0.10862 0.60228 0.0
H667 H 0.57749 0.08876 0.61443 0.0
C668 C 0.57035 0.09046 0.53829 0.0
C669 C 0.54434 0.07523 0.53512 0.0
C670 C 0.57978 0.10571 0.55823 0.0
C671 C 0.56332 0.10602 0.57515 0.0
C672 C 0.53743 0.08946 0.57287 0.0
H673 H 0.58458 0.2183 0.67956 0.0
H674 H 0.56742 0.1845 0.65061 0.0
C675 C 0.52799 0.07397 0.55304 0.0
C676 C 0.5728 0.12642 0.59277 0.0
H677 H 0.61011 0.14993 0.64134 0.0
C678 C 0.5673 0.1457 0.58937 0.0
C679 C 0.58843 0.12791 0.61162 0.0
C680 C 0.59464 0.10749 0.61592 0.0
C681 C 0.57742 0.16678 0.60415 0.0
C682 C 0.59288 0.16823 0.62325 0.0
C683 C 0.59827 0.14881 0.62669 0.0
C684 C 0.60346 0.18959 0.64001 0.0
C685 C 0.57209 0.18763 0.59863 0.0
C686 C 0.62944 0.20357 0.64389 0.0
C687 C 0.63934 0.22278 0.66068 0.0
C688 C 0.62341 0.22837 0.6739 0.0
C689 C 0.59744 0.21473 0.66952 0.0
C690 C 0.58756 0.19539 0.6529 0.0
H691 H 0.56679 0.18724 0.57983 0.0
H692 H 0.55615 0.18531 0.60964 0.0
H693 H 0.58861 0.20628 0.60249 0.0
H694 H 0.64205 0.1994 0.63414 0.0
H695 H 0.65941 0.23286 0.66366 0.0
H696 H 0.51241 0.56364 0.70242 0.0
H697 H 0.5092 0.58667 0.73649 0.0
H698 H 0.4362 0.52379 0.75273 0.0
H699 H 0.43951 0.50093 0.71897 0.0
H700 H 0.4718 0.5988 0.73801 0.0
H701 H 0.46677 0.54521 0.818 0.0
H702 H 0.4792 0.54152 0.79035 0.0
H703 H 0.44585 0.52533 0.79543 0.0
C704 C 0.49624 0.55447 0.71396 0.0
C705 C 0.47634 0.5305 0.70846 0.0
C706 C 0.49432 0.56764 0.73324 0.0
C707 C 0.47257 0.55684 0.74729 0.0
C708 C 0.45339 0.53227 0.74253 0.0
H709 H 0.38519 0.59121 0.83874 0.0
H710 H 0.40341 0.57468 0.81071 0.0
C711 C 0.45526 0.51922 0.72326 0.0
C712 C 0.46802 0.57215 0.7646 0.0
H713 H 0.44751 0.57103 0.82078 0.0
C714 C 0.46703 0.5931 0.75627 0.0
C715 C 0.46171 0.5646 0.78835 0.0
C716 C 0.46368 0.54308 0.79862 0.0
C717 C 0.45845 0.6058 0.77069 0.0
C718 C 0.45095 0.59743 0.79406 0.0
C719 C 0.45304 0.57721 0.80273 0.0
C720 C 0.43969 0.60851 0.80952 0.0
C721 C 0.45624 0.62722 0.76049 0.0
C722 C 0.45395 0.63321 0.81775 0.0
C723 C 0.44357 0.6428 0.83375 0.0
C724 C 0.41877 0.62778 0.84187 0.0
C725 C 0.40431 0.60333 0.83288 0.0
C726 C 0.41472 0.59378 0.81694 0.0
H727 H 0.4587 0.62854 0.74101 0.0
H728 H 0.43768 0.62509 0.76482 0.0
H729 H 0.4709 0.6451 0.76835 0.0
H730 H 0.47334 0.64478 0.81239 0.0
H731 H 0.45528 0.66166 0.84039 0.0
H732 H 0.97172 0.45695 0.88227 0.0
H733 H 0.94328 0.44765 0.9159 0.0
H734 H 0.92361 0.50143 0.89015 0.0
H735 H 0.95137 0.51004 0.85611 0.0
H736 H 0.93439 0.47251 0.95216 0.0
H737 H 0.85755 0.43566 0.88599 0.0
H738 H 0.88941 0.4447 0.87835 0.0
H739 H 0.88045 0.46815 0.88207 0.0
C740 C 0.96203 0.46743 0.88435 0.0
C741 C 0.96363 0.48418 0.86676 0.0
C742 C 0.94567 0.462 0.90342 0.0
C743 C 0.93082 0.47334 0.90511 0.0
C744 C 0.93443 0.49202 0.88883 0.0
H745 H 0.80571 0.44418 -0.00302 0.0
H746 H 0.83945 0.46146 0.96763 0.0
C747 C 0.95051 0.49719 0.86961 0.0
C748 C 0.90983 0.46372 0.92226 0.0
H749 H 0.8459 0.43498 0.92584 0.0
C750 C 0.91506 0.46435 0.94643 0.0
C751 C 0.88456 0.45277 0.91467 0.0
C752 C 0.87756 0.45001 0.88886 0.0
C753 C 0.89568 0.4546 0.96324 0.0
C754 C 0.87053 0.44387 0.95562 0.0
C755 C 0.86528 0.44337 0.93153 0.0
C756 C 0.84932 0.43266 0.97242 0.0
C757 C 0.90217 0.45593 0.98906 0.0
C758 C 0.84325 0.41031 0.98416 0.0
C759 C 0.82383 0.40022 0.00072 0.0
C760 C 0.81022 0.4124 0.00593 0.0
C761 C 0.81582 0.43434 -0.00656 0.0
C762 C 0.83514 0.4443 0.97674 0.0
H763 H 0.92249 0.46878 0.99235 0.0
H764 H 0.89122 0.4623 -0.00036 0.0
H765 H 0.89724 0.43695 -0.00466 0.0
H766 H 0.85378 0.40088 0.98074 0.0
H767 H 0.82006 0.38332 0.01 0.0
H768 H 0.4883 0.96585 0.03887 0.0
H769 H 0.4668 0.93634 0.07131 0.0
H770 H 0.52633 0.91875 0.07369 0.0
H771 H 0.54751 0.94781 0.04106 0.0
H772 H 0.47936 0.8775 0.06593 0.0
H773 H 0.47703 0.93285 0.14241 0.0
H774 H 0.46659 0.93889 0.11487 0.0
H775 H 0.49877 0.94694 0.11819 0.0
C776 C 0.49721 0.9564 0.04702 0.0
C777 C 0.51954 0.95908 0.03766 0.0
C778 C 0.48491 0.93952 0.06548 0.0
C779 C 0.495 0.92538 0.07491 0.0
C780 C 0.51824 0.92947 0.06665 0.0
H781 H 0.45224 0.80143 0.16893 0.0
H782 H 0.47135 0.8343 0.13913 0.0
C783 C 0.53039 0.94615 0.04816 0.0
C784 C 0.48005 0.90411 0.09106 0.0
H785 H 0.4529 0.88858 0.1456 0.0
C786 C 0.47363 0.87994 0.08338 0.0
C787 C 0.47231 0.90731 0.11365 0.0
C788 C 0.47915 0.9329 0.12293 0.0
C789 C 0.45987 0.85889 0.09776 0.0
C790 C 0.45263 0.86213 0.12055 0.0
C791 C 0.45852 0.8862 0.12807 0.0
C792 C 0.44007 0.84096 0.13729 0.0
C793 C 0.45309 0.83334 0.08839 0.0
C794 C 0.41609 0.83373 0.14604 0.0
C795 C 0.40503 0.81485 0.16308 0.0
C796 C 0.41795 0.80311 0.17186 0.0
C797 C 0.44172 0.80998 0.16253 0.0
C798 C 0.45267 0.82876 0.14545 0.0
H799 H 0.4539 0.83318 0.06881 0.0
H800 H 0.46663 0.82801 0.09531 0.0
H801 H 0.43399 0.81894 0.09418 0.0
H802 H 0.4061 0.84299 0.13996 0.0
H803 H 0.38677 0.81014 0.16998 0.0
H804 H 0.58103 0.52989 0.21667 0.0
H805 H 0.59046 0.51089 0.25024 0.0
H806 H 0.5366 0.43728 0.22463 0.0
H807 H 0.52784 0.45629 0.19064 0.0
H808 H 0.56586 0.47724 0.28656 0.0
H809 H 0.6024 0.43719 0.22012 0.0
H810 H 0.59328 0.45991 0.21255 0.0
H811 H 0.56985 0.42747 0.2164 0.0
C812 C 0.57055 0.50971 0.21877 0.0
C813 C 0.55375 0.49448 0.20122 0.0
C814 C 0.57606 0.49886 0.23782 0.0
C815 C 0.56475 0.47267 0.23951 0.0
C816 C 0.54599 0.45752 0.2233 0.0
H817 H 0.59463 0.37758 0.33156 0.0
H818 H 0.57703 0.3937 0.30227 0.0
C819 C 0.54074 0.46835 0.20411 0.0
C820 C 0.57448 0.4614 0.25659 0.0
H821 H 0.60338 0.42643 0.25995 0.0
C822 C 0.57401 0.46609 0.28077 0.0
C823 C 0.58543 0.44711 0.24892 0.0
C824 C 0.58804 0.44279 0.22309 0.0
C825 C 0.58391 0.4566 0.29751 0.0
C826 C 0.59464 0.44222 0.2898 0.0
C827 C 0.59499 0.43737 0.26571 0.0
C828 C 0.60604 0.43241 0.30653 0.0
C829 C 0.58279 0.46188 0.32334 0.0
C830 C 0.62861 0.44882 0.31793 0.0
C831 C 0.63888 0.4397 0.33445 0.0
C832 C 0.62666 0.41398 0.33995 0.0
C833 C 0.6045 0.39749 0.32779 0.0
C834 C 0.59436 0.40664 0.31112 0.0
H835 H 0.57002 0.46941 0.32672 0.0
H836 H 0.57639 0.44457 0.33394 0.0
H837 H 0.60185 0.47591 0.32951 0.0
H838 H 0.63806 0.46875 0.31429 0.0
H839 H 0.65595 0.45294 0.34347 0.0
H840 H 0.42508 0.94364 0.42631 0.0
H841 H 0.41981 0.9168 0.39241 0.0
H842 H 0.49928 0.94337 0.39241 0.0
H843 H 0.50463 0.97031 0.42652 0.0
H844 H 0.44421 0.92609 0.34568 0.0
H845 H 0.46319 0.86572 0.40547 0.0
H846 H 0.45569 0.88865 0.41658 0.0
H847 H 0.48617 0.89859 0.40444 0.0
C848 C 0.44149 0.94421 0.41866 0.0
C849 C 0.46523 0.9589 0.42898 0.0
C850 C 0.43848 0.92889 0.39937 0.0
C851 C 0.45909 0.92786 0.39022 0.0
C852 C 0.48312 0.94378 0.39944 0.0
H853 H 0.45196 0.81349 0.29358 0.0
H854 H 0.46669 0.8482 0.32167 0.0
C855 C 0.48619 0.95929 0.41871 0.0
C856 C 0.45478 0.90847 0.37252 0.0
H857 H 0.45111 0.85158 0.36663 0.0
C858 C 0.44596 0.90991 0.35012 0.0
C859 C 0.45707 0.88742 0.37847 0.0
C860 C 0.46589 0.88474 0.40257 0.0
C861 C 0.43903 0.89062 0.33353 0.0
C862 C 0.44036 0.86909 0.33981 0.0
C863 C 0.44997 0.86804 0.36195 0.0
C864 C 0.43108 0.84711 0.32392 0.0
C865 C 0.43034 0.8935 0.30945 0.0
C866 C 0.40593 0.83437 0.31664 0.0
C867 C 0.39744 0.81454 0.30062 0.0
C868 C 0.4139 0.80691 0.29172 0.0
C869 C 0.43878 0.81888 0.30004 0.0
C870 C 0.44728 0.8388 0.31602 0.0
H871 H 0.43742 0.91352 0.30509 0.0
H872 H 0.43663 0.88519 0.29552 0.0
H873 H 0.40953 0.8837 0.3092 0.0
H874 H 0.39293 0.84002 0.32307 0.0
H875 H 0.37812 0.80563 0.29477 0.0
H876 H 0.50223 0.44383 0.58685 0.0
H877 H 0.52157 0.43548 0.55281 0.0
H878 H 0.59104 0.50381 0.56673 0.0
H879 H 0.5718 0.51178 0.60116 0.0
H880 H 0.54797 0.46 0.51152 0.0
H881 H 0.60878 0.44875 0.57708 0.0
H882 H 0.58207 0.45157 0.58561 0.0
H883 H 0.61098 0.47892 0.57719 0.0
C884 C 0.52129 0.45753 0.58197 0.0
C885 C 0.53555 0.47853 0.5963 0.0
C886 C 0.53238 0.45269 0.56269 0.0
C887 C 0.55788 0.46874 0.55762 0.0
C888 C 0.57146 0.49097 0.57064 0.0
H889 H 0.65861 0.44701 0.46513 0.0
H890 H 0.64067 0.46354 0.49361 0.0
C891 C 0.56042 0.49571 0.59004 0.0
C892 C 0.57076 0.46071 0.54061 0.0
H893 H 0.61493 0.44275 0.53711 0.0
C894 C 0.56269 0.45634 0.51706 0.0
C895 C 0.5898 0.4557 0.54799 0.0
C896 C 0.59832 0.45873 0.57337 0.0
C897 C 0.57328 0.44724 0.50062 0.0
C898 C 0.59215 0.44207 0.50807 0.0
C899 C 0.60047 0.44676 0.53151 0.0
C900 C 0.60323 0.43138 0.49187 0.0
C901 C 0.56432 0.44337 0.47537 0.0
C902 C 0.58829 0.40743 0.48219 0.0
C903 C 0.59849 0.39782 0.46604 0.0
C904 C 0.62384 0.41203 0.45928 0.0
C905 C 0.63901 0.43558 0.46988 0.0
C906 C 0.62879 0.44512 0.48608 0.0
H907 H 0.55441 0.45381 0.47126 0.0
H908 H 0.58028 0.44941 0.46293 0.0
H909 H 0.55105 0.42313 0.47237 0.0
H910 H 0.56864 0.3963 0.48687 0.0
H911 H 0.58627 0.37959 0.45831 0.0
H912 H 0.07178 0.5529 0.75962 0.0
H913 H 0.09897 0.57373 0.72542 0.0
H914 H 0.12091 0.51735 0.72406 0.0
H915 H 0.09396 0.49669 0.75812 0.0
H916 H 0.15182 0.59192 0.729 0.0
H917 H 0.1095 0.52646 0.6537 0.0
H918 H 0.09167 0.52547 0.67944 0.0
H919 H 0.11149 0.5118 0.68036 0.0
C920 C 0.08173 0.54453 0.7514 0.0
C921 C 0.08075 0.52318 0.76126 0.0
C922 C 0.09734 0.55649 0.73204 0.0
C923 C 0.11178 0.54695 0.72214 0.0
C924 C 0.1096 0.52476 0.73116 0.0
H925 H 0.23555 0.58799 0.62852 0.0
H926 H 0.20153 0.56904 0.65735 0.0
C927 C 0.09425 0.513 0.75059 0.0
C928 C 0.13151 0.56163 0.70452 0.0
H929 H 0.15277 0.55777 0.64997 0.0
C930 C 0.15191 0.58471 0.71155 0.0
C931 C 0.13159 0.55199 0.68193 0.0
C932 C 0.10979 0.52767 0.67327 0.0
C933 C 0.17295 0.59793 0.69694 0.0
C934 C 0.1733 0.58801 0.67452 0.0
C935 C 0.15254 0.56527 0.66723 0.0
C936 C 0.1952 0.60054 0.65847 0.0
C937 C 0.19504 0.62181 0.70606 0.0
C938 C 0.20322 0.62472 0.64983 0.0
C939 C 0.22286 0.63574 0.63352 0.0
C940 C 0.23463 0.62263 0.6253 0.0
C941 C 0.22694 0.59864 0.63447 0.0
C942 C 0.20741 0.58772 0.65087 0.0
H943 H 0.19444 0.62335 0.72556 0.0
H944 H 0.21303 0.62295 0.70111 0.0
H945 H 0.19471 0.63812 0.69817 0.0
H946 H 0.19377 0.63478 0.65513 0.0
H947 H 0.22812 0.65414 0.62667 0.0
H948 H 0.58074 0.06702 0.91733 0.0
H949 H 0.59042 0.09527 0.88355 0.0
H950 H 0.53766 0.11645 0.90923 0.0
H951 H 0.52863 0.08885 0.94341 0.0
H952 H 0.5659 0.10473 0.84724 0.0
H953 H 0.60443 0.18165 0.91334 0.0
H954 H 0.59476 0.14968 0.92098 0.0
H955 H 0.57177 0.15928 0.91738 0.0
C956 C 0.57053 0.07699 0.9152 0.0
C957 C 0.554 0.07589 0.93284 0.0
C958 C 0.57619 0.09324 0.89604 0.0
C959 C 0.56529 0.10847 0.8943 0.0
C960 C 0.54674 0.10532 0.91059 0.0
H961 H 0.5965 0.23414 0.80297 0.0
H962 H 0.579 0.20048 0.83232 0.0
C963 C 0.54134 0.08935 0.9299 0.0
C964 C 0.57529 0.12941 0.87713 0.0
H965 H 0.60522 0.19333 0.87351 0.0
C966 C 0.57446 0.12409 0.85295 0.0
C967 C 0.58676 0.15471 0.88469 0.0
C968 C 0.58975 0.16177 0.91051 0.0
C969 C 0.58448 0.14341 0.83612 0.0
C970 C 0.59571 0.1686 0.84372 0.0
C971 C 0.59645 0.17394 0.86782 0.0
C972 C 0.6071 0.18974 0.82689 0.0
C973 C 0.58287 0.13681 0.81029 0.0
C974 C 0.62916 0.1953 0.8148 0.0
C975 C 0.63939 0.21467 0.79822 0.0
C976 C 0.62763 0.22874 0.79337 0.0
C977 C 0.60601 0.22366 0.80622 0.0
C978 C 0.59592 0.20439 0.82293 0.0
H979 H 0.56962 0.11659 0.80705 0.0
H980 H 0.57681 0.14805 0.79977 0.0
H981 H 0.6017 0.14129 0.8039 0.0
H982 H 0.63826 0.1844 0.81795 0.0
H983 H 0.65603 0.21804 0.78866 0.0
H984 H 0.48809 0.53597 0.09459 0.0
H985 H 0.46667 0.54185 0.06068 0.0
H986 H 0.5217 0.6207 0.05975 0.0
H987 H 0.54305 0.61487 0.09342 0.0
H988 H 0.44671 0.57436 0.06418 0.0
H989 H 0.51351 0.60158 0.98955 0.0
H990 H 0.5154 0.58526 0.01526 0.0
H991 H 0.52768 0.61858 0.0162 0.0
C992 C 0.49605 0.55433 0.08653 0.0
C993 C 0.51722 0.57497 0.09643 0.0
C994 C 0.48374 0.55771 0.06734 0.0
C995 C 0.49271 0.58167 0.05763 0.0
C996 C 0.51471 0.60199 0.06669 0.0
H997 H 0.44942 0.66403 0.96696 0.0
H998 H 0.46815 0.64888 -0.00417 0.0
C999 C 0.52685 0.59866 0.08593 0.0
C1000 C 0.47771 0.58631 0.04009 0.0
H1001 H 0.48151 0.61273 0.98626 0.0
C1002 C 0.45408 0.58235 0.04695 0.0
C1003 C 0.48749 0.59688 0.01776 0.0
C1004 C 0.51232 0.60062 0.00912 0.0
C1005 C 0.44046 0.58979 0.0325 0.0
C1006 C 0.45061 0.60109 0.01046 0.0
C1007 C 0.47387 0.60427 0.00327 0.0
C1008 C 0.43783 0.6104 -0.00526 0.0
C1009 C 0.41588 0.58652 0.04138 0.0
C1010 C 0.41429 0.59386 0.98495 0.0
C1011 C 0.4034 0.60249 0.96856 0.0
C1012 C 0.416 0.62779 0.96146 0.0
C1013 C 0.43917 0.64445 0.97199 0.0
C1014 C 0.44998 0.63581 0.98842 0.0
H1015 H 0.41367 0.58313 0.06072 0.0
H1016 H 0.41429 0.60329 0.03732 0.0
H1017 H 0.40018 0.57014 0.03248 0.0
H1018 H 0.40477 0.5741 0.98932 0.0
H1019 H 0.38563 0.5891 0.96069 0.0
H1020 H 0.97795 0.53639 0.24573 0.0
H1021 H 0.95046 0.51744 0.21131 0.0
H1022 H 0.91471 0.4456 0.24613 0.0
H1023 H 0.94197 0.46445 0.28049 0.0
H1024 H 0.93042 0.45909 0.18497 0.0
H1025 H 0.86634 0.48211 0.23479 0.0
H1026 H 0.9 0.5019 0.23647 0.0
H1027 H 0.88504 0.47183 0.25052 0.0
C1028 C 0.96497 0.51637 0.24551 0.0
C1029 C 0.96203 0.50176 0.26554 0.0
C1030 C 0.94923 0.50562 0.22598 0.0
C1031 C 0.9306 0.48021 0.22637 0.0
C1032 C 0.9291 0.46522 0.24556 0.0
H1033 H 0.81042 0.38165 0.13208 0.0
H1034 H 0.84404 0.39965 0.16138 0.0
C1035 C 0.94467 0.47594 0.26507 0.0
C1036 C 0.91038 0.47012 0.20864 0.0
H1037 H 0.85118 0.45974 0.19935 0.0
C1038 C 0.91311 0.45926 0.18796 0.0
C1039 C 0.88797 0.47056 0.21274 0.0
C1040 C 0.88444 0.48223 0.23478 0.0
C1041 C 0.89374 0.4486 0.17118 0.0
C1042 C 0.87101 0.44848 0.17555 0.0
C1043 C 0.86854 0.45971 0.19614 0.0
C1044 C 0.84968 0.43716 0.15883 0.0
C1045 C 0.89791 0.43793 0.14879 0.0
C1046 C 0.84086 0.452 0.14858 0.0
C1047 C 0.82144 0.44172 0.13206 0.0
C1048 C 0.81042 0.41636 0.1255 0.0
C1049 C 0.81857 0.40128 0.1366 0.0
C1050 C 0.83797 0.41158 0.15318 0.0
H1051 H 0.91819 0.44528 0.14538 0.0
H1052 H 0.88868 0.41724 0.15044 0.0
H1053 H 0.88967 0.44229 0.13335 0.0
H1054 H 0.84948 0.47173 0.15292 0.0
H1055 H 0.81563 0.45389 0.12391 0.0
loop_
_geom_bond_atom_site_label_1
_geom_bond_atom_site_label_2
_geom_bond_distance
_geom_bond_site_symmetry_2
_ccdc_geom_bond_type
H0 C6 0.930 . S
H1 C9 0.931 . S
H2 C11 0.931 . S
H3 C13 0.930 . S
H4 C15 0.930 . S
H5 C17 0.931 . S
C6 H0 0.930 . S
C6 C7 1.380 . S
C6 C8 1.394 . S
C7 C6 1.380 . S
C7 C11 1.382 . S
C8 C6 1.394 . S
C8 C9 1.400 . S
C9 H1 0.931 . S
C9 C8 1.400 . S
C9 C10 1.375 . S
C10 C9 1.375 . S
C10 C11 1.415 . S
C10 C12 1.501 1_455 S
C11 H2 0.931 . S
C11 C7 1.382 . S
C11 C10 1.415 . S
C12 C10 1.501 1_655 S
C12 C13 1.384 . S
C12 C17 1.408 . S
C13 H3 0.930 . S
C13 C12 1.384 . S
C13 C14 1.389 . S
C14 C13 1.389 . S
C14 C15 1.405 . S
C15 H4 0.930 . S
C15 C14 1.405 . S
C15 C16 1.364 . S
C16 C15 1.364 . S
C16 C17 1.400 . S
C17 H5 0.931 . S
C17 C12 1.408 . S
C17 C16 1.400 . S
H18 C24 0.930 . S
H19 C27 0.931 . S
H20 C29 0.931 . S
H21 C31 0.930 . S
H22 C33 0.930 . S
H23 C35 0.931 1_545 S
C24 H18 0.930 . S
C24 C25 1.380 . S
C24 C26 1.394 . S
C25 C24 1.380 . S
C25 C29 1.382 . S
C26 C24 1.394 . S
C26 C27 1.400 . S
C27 H19 0.931 . S
C27 C26 1.400 . S
C27 C28 1.375 . S
C28 C27 1.375 . S
C28 C29 1.415 . S
C28 C30 1.501 1_545 S
C29 H20 0.931 . S
C29 C25 1.382 . S
C29 C28 1.415 . S
C30 C28 1.501 1_565 S
C30 C31 1.384 . S
C30 C35 1.408 . S
C31 H21 0.930 . S
C31 C30 1.384 . S
C31 C32 1.389 . S
C32 C31 1.389 . S
C32 C33 1.405 . S
C33 H22 0.930 . S
C33 C32 1.405 . S
C33 C34 1.364 . S
C34 C33 1.364 . S
C34 C35 1.400 . S
C35 H23 0.931 1_565 S
C35 C30 1.408 . S
C35 C34 1.400 . S
H36 C42 0.930 . S
H37 C45 0.931 . S
H38 C47 0.931 . S
H39 C49 0.930 . S
H40 C51 0.930 . S
H41 C53 0.931 . S
C42 H36 0.930 . S
C42 C43 1.380 . S
C42 C44 1.394 . S
C43 C42 1.380 . S
C43 C47 1.382 . S
C44 C42 1.394 . S
C44 C45 1.400 . S
C45 H37 0.931 . S
C45 C44 1.400 . S
C45 C46 1.375 . S
C46 C45 1.375 . S
C46 C47 1.415 . S
C46 C48 1.501 . S
C47 H38 0.931 . S
C47 C43 1.382 . S
C47 C46 1.415 . S
C48 C46 1.501 . S
C48 C49 1.384 . S
C48 C53 1.408 . S
C49 H39 0.930 . S
C49 C48 1.384 . S
C49 C50 1.389 . S
C50 C49 1.389 . S
C50 C51 1.405 . S
C51 H40 0.930 . S
C51 C50 1.405 . S
C51 C52 1.364 . S
C52 C51 1.364 . S
C52 C53 1.400 . S
C53 H41 0.931 . S
C53 C48 1.408 . S
C53 C52 1.400 . S
H54 C60 0.930 . S
H55 C63 0.931 . S
H56 C65 0.931 . S
H57 C67 0.930 . S
H58 C69 0.930 . S
H59 C71 0.931 . S
C60 H54 0.930 . S
C60 C61 1.380 . S
C60 C62 1.394 . S
C61 C60 1.380 . S
C61 C65 1.382 . S
C62 C60 1.394 . S
C62 C63 1.400 . S
C63 H55 0.931 . S
C63 C62 1.400 . S
C63 C64 1.375 . S
C64 C63 1.375 . S
C64 C65 1.415 . S
C64 C66 1.501 1_455 S
C65 H56 0.931 . S
C65 C61 1.382 . S
C65 C64 1.415 . S
C66 C64 1.501 1_655 S
C66 C67 1.384 . S
C66 C71 1.408 . S
C67 H57 0.930 . S
C67 C66 1.384 . S
C67 C68 1.389 . S
C68 C67 1.389 . S
C68 C69 1.405 . S
C69 H58 0.930 . S
C69 C68 1.405 . S
C69 C70 1.364 . S
C70 C69 1.364 . S
C70 C71 1.400 . S
C71 H59 0.931 . S
C71 C66 1.408 . S
C71 C70 1.400 . S
H72 C78 0.930 . S
H73 C81 0.931 . S
H74 C83 0.931 1_545 S
H75 C85 0.930 . S
H76 C87 0.930 . S
H77 C89 0.931 . S
C78 H72 0.930 . S
C78 C79 1.380 . S
C78 C80 1.394 1_554 S
C79 C78 1.380 . S
C79 C83 1.382 . S
C80 C78 1.394 1_556 S
C80 C81 1.400 . S
C81 H73 0.931 . S
C81 C80 1.400 . S
C81 C82 1.375 . S
C82 C81 1.375 . S
C82 C83 1.415 1_556 S
C82 C84 1.501 1_565 S
C83 H74 0.931 1_565 S
C83 C79 1.382 . S
C83 C82 1.415 1_554 S
C84 C82 1.501 1_545 S
C84 C85 1.384 1_556 S
C84 C89 1.408 . S
C85 H75 0.930 . S
C85 C84 1.384 1_554 S
C85 C86 1.389 1_554 S
C86 C85 1.389 1_556 S
C86 C87 1.405 . S
C87 H76 0.930 . S
C87 C86 1.405 . S
C87 C88 1.364 . S
C88 C87 1.364 . S
C88 C89 1.400 . S
C89 H77 0.931 . S
C89 C84 1.408 . S
C89 C88 1.400 . S
H90 C96 0.930 . S
H91 C99 0.931 . S
H92 C101 0.931 . S
H93 C103 0.930 . S
H94 C105 0.930 . S
H95 C107 0.931 . S
C96 H90 0.930 . S
C96 C97 1.380 . S
C96 C98 1.394 . S
C97 C96 1.380 . S
C97 C101 1.382 . S
C98 C96 1.394 . S
C98 C99 1.400 . S
C99 H91 0.931 . S
C99 C98 1.400 . S
C99 C100 1.375 . S
C100 C99 1.375 . S
C100 C101 1.415 . S
C100 C102 1.501 . S
C101 H92 0.931 . S
C101 C97 1.382 . S
C101 C100 1.415 . S
C102 C100 1.501 . S
C102 C103 1.384 . S
C102 C107 1.408 . S
C103 H93 0.930 . S
C103 C102 1.384 . S
C103 C104 1.389 . S
C104 C103 1.389 . S
C104 C105 1.405 . S
C105 H94 0.930 . S
C105 C104 1.405 . S
C105 C106 1.364 . S
C106 C105 1.364 . S
C106 C107 1.400 . S
C107 H95 0.931 . S
C107 C102 1.408 . S
C107 C106 1.400 . S
O108 Cd109 2.223 . S
O108 C116 1.315 . S
Cd109 O108 2.223 . S
Cd109 O112 2.297 . S
Cd109 O113 2.439 . S
Cd109 O119 2.240 . S
Cd110 O111 2.240 . S
Cd110 O118 2.223 . S
Cd110 O120 2.297 . S
Cd110 O121 2.439 . S
O111 Cd110 2.240 . S
O111 C116 1.279 . S
O112 Cd109 2.297 . S
O112 C114 1.247 . S
O113 Cd109 2.439 . S
O113 C114 1.208 . S
C114 O112 1.247 . S
C114 O113 1.208 . S
C115 O120 1.247 . S
C115 O121 1.208 . S
C116 O108 1.315 . S
C116 O111 1.279 . S
C117 O118 1.315 . S
C117 O119 1.279 . S
O118 Cd110 2.223 . S
O118 C117 1.315 . S
O119 Cd109 2.240 . S
O119 C117 1.279 . S
O120 Cd110 2.297 . S
O120 C115 1.247 . S
O121 Cd110 2.439 . S
O121 C115 1.208 . S
O122 Cd123 2.223 . S
O122 C130 1.315 . S
Cd123 O122 2.223 . S
Cd123 O126 2.297 . S
Cd123 O127 2.439 . S
Cd123 O133 2.240 . S
Cd124 O125 2.240 . S
Cd124 O132 2.223 . S
Cd124 O134 2.297 . S
Cd124 O135 2.439 . S
O125 Cd124 2.240 . S
O125 C130 1.279 . S
O126 Cd123 2.297 . S
O126 C128 1.247 . S
O127 Cd123 2.439 . S
O127 C128 1.208 . S
C128 O126 1.247 . S
C128 O127 1.208 . S
C129 O134 1.247 . S
C129 O135 1.208 . S
C130 O122 1.315 . S
C130 O125 1.279 . S
C131 O132 1.315 . S
C131 O133 1.279 . S
O132 Cd124 2.223 . S
O132 C131 1.315 . S
O133 Cd123 2.240 . S
O133 C131 1.279 . S
O134 Cd124 2.297 . S
O134 C129 1.247 . S
O135 Cd124 2.439 . S
O135 C129 1.208 . S
O136 Cd137 2.223 . S
O136 C144 1.315 . S
Cd137 O136 2.223 . S
Cd137 O140 2.297 . S
Cd137 O141 2.439 . S
Cd137 O147 2.240 . S
Cd138 O139 2.240 . S
Cd138 O146 2.223 . S
Cd138 O148 2.297 . S
Cd138 O149 2.439 . S
O139 Cd138 2.240 . S
O139 C144 1.279 . S
O140 Cd137 2.297 . S
O140 C142 1.247 . S
O141 Cd137 2.439 . S
O141 C142 1.208 . S
C142 O140 1.247 . S
C142 O141 1.208 . S
C143 O148 1.247 . S
C143 O149 1.208 . S
C144 O136 1.315 . S
C144 O139 1.279 . S
C145 O146 1.315 . S
C145 O147 1.279 . S
O146 Cd138 2.223 . S
O146 C145 1.315 . S
O147 Cd137 2.240 . S
O147 C145 1.279 . S
O148 Cd138 2.297 . S
O148 C143 1.247 . S
O149 Cd138 2.439 . S
O149 C143 1.208 . S
O150 Cd151 2.223 . S
O150 C158 1.315 . S
Cd151 O150 2.223 . S
Cd151 O154 2.297 . S
Cd151 O155 2.439 . S
Cd151 O161 2.240 . S
Cd152 O153 2.240 . S
Cd152 O160 2.223 . S
Cd152 O162 2.297 . S
Cd152 O163 2.439 . S
O153 Cd152 2.240 . S
O153 C158 1.279 . S
O154 Cd151 2.297 . S
O154 C156 1.247 . S
O155 Cd151 2.439 . S
O155 C156 1.208 . S
C156 O154 1.247 . S
C156 O155 1.208 . S
C157 O162 1.247 . S
C157 O163 1.208 . S
C158 O150 1.315 . S
C158 O153 1.279 . S
C159 O160 1.315 . S
C159 O161 1.279 . S
O160 Cd152 2.223 . S
O160 C159 1.315 . S
O161 Cd151 2.240 . S
O161 C159 1.279 . S
O162 Cd152 2.297 . S
O162 C157 1.247 . S
O163 Cd152 2.439 . S
O163 C157 1.208 . S
O164 Cd165 2.223 . S
O164 C172 1.315 . S
Cd165 O164 2.223 . S
Cd165 O168 2.297 . S
Cd165 O169 2.439 . S
Cd165 O175 2.240 . S
Cd166 O167 2.240 . S
Cd166 O174 2.223 . S
Cd166 O176 2.297 . S
Cd166 O177 2.439 . S
O167 Cd166 2.240 . S
O167 C172 1.279 . S
O168 Cd165 2.297 . S
O168 C170 1.247 . S
O169 Cd165 2.439 . S
O169 C170 1.208 . S
C170 O168 1.247 . S
C170 O169 1.208 . S
C171 O176 1.247 . S
C171 O177 1.208 . S
C172 O164 1.315 . S
C172 O167 1.279 . S
C173 O174 1.315 . S
C173 O175 1.279 . S
O174 Cd166 2.223 . S
O174 C173 1.315 . S
O175 Cd165 2.240 . S
O175 C173 1.279 . S
O176 Cd166 2.297 . S
O176 C171 1.247 . S
O177 Cd166 2.439 . S
O177 C171 1.208 . S
O178 Cd179 2.223 . S
O178 C186 1.315 . S
Cd179 O178 2.223 . S
Cd179 O182 2.297 . S
Cd179 O183 2.439 . S
Cd179 O189 2.240 . S
Cd180 O181 2.240 . S
Cd180 O188 2.223 . S
Cd180 O190 2.297 . S
Cd180 O191 2.439 . S
O181 Cd180 2.240 . S
O181 C186 1.279 . S
O182 Cd179 2.297 . S
O182 C184 1.247 . S
O183 Cd179 2.439 . S
O183 C184 1.208 . S
C184 O182 1.247 . S
C184 O183 1.208 . S
C185 O190 1.247 . S
C185 O191 1.208 . S
C186 O178 1.315 . S
C186 O181 1.279 . S
C187 O188 1.315 . S
C187 O189 1.279 . S
O188 Cd180 2.223 . S
O188 C187 1.315 . S
O189 Cd179 2.240 . S
O189 C187 1.279 . S
O190 Cd180 2.297 . S
O190 C185 1.247 . S
O191 Cd180 2.439 . S
O191 C185 1.208 . S
H192 C200 0.929 . S
H193 C202 0.930 . S
H194 C204 0.930 . S
H195 C207 0.929 . S
H196 C210 0.930 . S
H197 C212 0.960 . S
H198 C212 0.960 . S
H199 C212 0.960 . S
C200 H192 0.929 . S
C200 C201 1.377 . S
C200 C202 1.384 . S
C201 C200 1.377 . S
C201 C207 1.390 . S
C202 H193 0.930 . S
C202 C200 1.384 . S
C202 C203 1.372 . S
C203 C202 1.372 . S
C203 C204 1.400 . S
C203 C208 1.490 . S
C204 H194 0.930 . S
C204 C203 1.400 . S
C204 C207 1.386 . S
H205 C221 0.930 . S
H206 C222 0.931 . S
C207 H195 0.929 . S
C207 C201 1.390 . S
C207 C204 1.386 . S
C208 C203 1.490 . S
C208 C210 1.395 . S
C208 C211 1.403 . S
H209 C215 0.930 . S
C210 H196 0.930 . S
C210 C208 1.395 . S
C210 C213 1.403 . S
C211 C208 1.403 . S
C211 C212 1.524 . S
C211 C215 1.400 . S
C212 H197 0.960 . S
C212 H198 0.960 . S
C212 H199 0.960 . S
C212 C211 1.524 . S
C213 C210 1.403 . S
C213 C214 1.392 . S
C213 C217 1.495 . S
C214 C213 1.392 . S
C214 C215 1.385 . S
C214 C216 1.478 . S
C215 H209 0.930 . S
C215 C211 1.400 . S
C215 C214 1.385 . S
C216 C214 1.478 . S
C216 C218 1.381 . S
C216 C222 1.383 . S
C217 C213 1.495 . S
C217 H223 0.959 . S
C217 H224 0.961 . S
C217 H225 0.960 . S
C218 C216 1.381 . S
C218 C219 1.394 . S
C218 H226 0.930 . S
C219 C218 1.394 . S
C219 C220 1.383 . S
C219 H227 0.929 . S
C220 C219 1.383 . S
C220 C221 1.377 . S
C221 H205 0.930 . S
C221 C220 1.377 . S
C221 C222 1.379 . S
C222 H206 0.931 . S
C222 C216 1.383 . S
C222 C221 1.379 . S
H223 C217 0.959 . S
H224 C217 0.961 . S
H225 C217 0.960 . S
H226 C218 0.930 . S
H227 C219 0.929 . S
H228 C236 0.929 . S
H229 C238 0.930 . S
H230 C240 0.930 . S
H231 C243 0.929 . S
H232 C246 0.930 . S
H233 C248 0.960 . S
H234 C248 0.960 . S
H235 C248 0.960 . S
C236 H228 0.929 . S
C236 C237 1.377 . S
C236 C238 1.384 . S
C237 C236 1.377 . S
C237 C243 1.390 . S
C238 H229 0.930 . S
C238 C236 1.384 . S
C238 C239 1.372 . S
C239 C238 1.372 . S
C239 C240 1.400 . S
C239 C244 1.490 . S
C240 H230 0.930 . S
C240 C239 1.400 . S
C240 C243 1.386 . S
H241 C257 0.930 . S
H242 C258 0.931 . S
C243 H231 0.929 . S
C243 C237 1.390 . S
C243 C240 1.386 . S
C244 C239 1.490 . S
C244 C246 1.395 . S
C244 C247 1.403 . S
H245 C251 0.930 . S
C246 H232 0.930 . S
C246 C244 1.395 . S
C246 C249 1.403 . S
C247 C244 1.403 . S
C247 C248 1.524 . S
C247 C251 1.400 . S
C248 H233 0.960 . S
C248 H234 0.960 . S
C248 H235 0.960 . S
C248 C247 1.524 . S
C249 C246 1.403 . S
C249 C250 1.392 . S
C249 C253 1.495 . S
C250 C249 1.392 . S
C250 C251 1.385 . S
C250 C252 1.478 . S
C251 H245 0.930 . S
C251 C247 1.400 . S
C251 C250 1.385 . S
C252 C250 1.478 . S
C252 C254 1.381 . S
C252 C258 1.383 . S
C253 C249 1.495 . S
C253 H259 0.959 . S
C253 H260 0.961 . S
C253 H261 0.960 . S
C254 C252 1.381 . S
C254 C255 1.394 . S
C254 H262 0.930 . S
C255 C254 1.394 . S
C255 C256 1.383 . S
C255 H263 0.929 . S
C256 C255 1.383 . S
C256 C257 1.377 . S
C257 H241 0.930 . S
C257 C256 1.377 . S
C257 C258 1.379 . S
C258 H242 0.931 . S
C258 C252 1.383 . S
C258 C257 1.379 . S
H259 C253 0.959 . S
H260 C253 0.961 . S
H261 C253 0.960 . S
H262 C254 0.930 . S
H263 C255 0.929 . S
H264 C272 0.929 . S
H265 C274 0.930 . S
H266 C276 0.930 . S
H267 C279 0.929 . S
H268 C282 0.930 . S
H269 C284 0.960 . S
H270 C284 0.960 . S
H271 C284 0.960 . S
C272 H264 0.929 . S
C272 C273 1.377 . S
C272 C274 1.384 . S
C273 C272 1.377 . S
C273 C279 1.390 . S
C274 H265 0.930 . S
C274 C272 1.384 . S
C274 C275 1.372 . S
C275 C274 1.372 . S
C275 C276 1.400 . S
C275 C280 1.490 . S
C276 H266 0.930 . S
C276 C275 1.400 . S
C276 C279 1.386 . S
H277 C293 0.930 . S
H278 C294 0.931 . S
C279 H267 0.929 . S
C279 C273 1.390 . S
C279 C276 1.386 . S
C280 C275 1.490 . S
C280 C282 1.395 . S
C280 C283 1.403 . S
H281 C287 0.930 . S
C282 H268 0.930 . S
C282 C280 1.395 . S
C282 C285 1.403 . S
C283 C280 1.403 . S
C283 C284 1.524 . S
C283 C287 1.400 . S
C284 H269 0.960 . S
C284 H270 0.960 . S
C284 H271 0.960 . S
C284 C283 1.524 . S
C285 C282 1.403 . S
C285 C286 1.392 . S
C285 C289 1.495 . S
C286 C285 1.392 . S
C286 C287 1.385 . S
C286 C288 1.478 . S
C287 H281 0.930 . S
C287 C283 1.400 . S
C287 C286 1.385 . S
C288 C286 1.478 . S
C288 C290 1.381 . S
C288 C294 1.383 . S
C289 C285 1.495 . S
C289 H295 0.959 . S
C289 H296 0.961 . S
C289 H297 0.960 . S
C290 C288 1.381 . S
C290 C291 1.394 . S
C290 H298 0.930 . S
C291 C290 1.394 . S
C291 C292 1.383 . S
C291 H299 0.929 . S
C292 C291 1.383 . S
C292 C293 1.377 . S
C293 H277 0.930 . S
C293 C292 1.377 . S
C293 C294 1.379 . S
C294 H278 0.931 . S
C294 C288 1.383 . S
C294 C293 1.379 . S
H295 C289 0.959 . S
H296 C289 0.961 . S
H297 C289 0.960 . S
H298 C290 0.930 . S
H299 C291 0.929 . S
H300 C308 0.929 . S
H301 C310 0.930 . S
H302 C312 0.930 . S
H303 C315 0.929 . S
H304 C318 0.930 . S
H305 C320 0.960 . S
H306 C320 0.960 . S
H307 C320 0.960 . S
C308 H300 0.929 . S
C308 C309 1.377 . S
C308 C310 1.384 . S
C309 C308 1.377 . S
C309 C315 1.390 . S
C310 H301 0.930 . S
C310 C308 1.384 . S
C310 C311 1.372 . S
C311 C310 1.372 . S
C311 C312 1.400 . S
C311 C316 1.490 . S
C312 H302 0.930 . S
C312 C311 1.400 . S
C312 C315 1.386 . S
H313 C329 0.930 . S
H314 C330 0.931 . S
C315 H303 0.929 . S
C315 C309 1.390 . S
C315 C312 1.386 . S
C316 C311 1.490 . S
C316 C318 1.395 . S
C316 C319 1.403 . S
H317 C323 0.930 . S
C318 H304 0.930 . S
C318 C316 1.395 . S
C318 C321 1.403 . S
C319 C316 1.403 . S
C319 C320 1.524 . S
C319 C323 1.400 . S
C320 H305 0.960 . S
C320 H306 0.960 . S
C320 H307 0.960 . S
C320 C319 1.524 . S
C321 C318 1.403 . S
C321 C322 1.392 . S
C321 C325 1.495 . S
C322 C321 1.392 . S
C322 C323 1.385 . S
C322 C324 1.478 . S
C323 H317 0.930 . S
C323 C319 1.400 . S
C323 C322 1.385 . S
C324 C322 1.478 . S
C324 C326 1.381 . S
C324 C330 1.383 . S
C325 C321 1.495 . S
C325 H331 0.959 . S
C325 H332 0.961 . S
C325 H333 0.960 . S
C326 C324 1.381 . S
C326 C327 1.394 . S
C326 H334 0.930 . S
C327 C326 1.394 . S
C327 C328 1.383 . S
C327 H335 0.929 . S
C328 C327 1.383 . S
C328 C329 1.377 . S
C329 H313 0.930 . S
C329 C328 1.377 . S
C329 C330 1.379 . S
C330 H314 0.931 . S
C330 C324 1.383 . S
C330 C329 1.379 . S
H331 C325 0.959 . S
H332 C325 0.961 . S
H333 C325 0.960 . S
H334 C326 0.930 . S
H335 C327 0.929 . S
H336 C344 0.929 . S
H337 C346 0.930 . S
H338 C348 0.930 . S
H339 C351 0.929 1_554 S
H340 C354 0.930 . S
H341 C356 0.960 . S
H342 C356 0.960 . S
H343 C356 0.960 . S
C344 H336 0.929 . S
C344 C345 1.377 . S
C344 C346 1.384 . S
C345 C344 1.377 . S
C345 C351 1.390 . S
C346 H337 0.930 . S
C346 C344 1.384 . S
C346 C347 1.372 . S
C347 C346 1.372 . S
C347 C348 1.400 . S
C347 C352 1.490 . S
C348 H338 0.930 . S
C348 C347 1.400 . S
C348 C351 1.386 . S
H349 C365 0.930 . S
H350 C366 0.931 . S
C351 H339 0.929 1_556 S
C351 C345 1.390 . S
C351 C348 1.386 . S
C352 C347 1.490 . S
C352 C354 1.395 . S
C352 C355 1.403 . S
H353 C359 0.930 . S
C354 H340 0.930 . S
C354 C352 1.395 . S
C354 C357 1.403 . S
C355 C352 1.403 . S
C355 C356 1.524 . S
C355 C359 1.400 . S
C356 H341 0.960 . S
C356 H342 0.960 . S
C356 H343 0.960 . S
C356 C355 1.524 . S
C357 C354 1.403 . S
C357 C358 1.392 . S
C357 C361 1.495 . S
C358 C357 1.392 . S
C358 C359 1.385 . S
C358 C360 1.478 . S
C359 H353 0.930 . S
C359 C355 1.400 . S
C359 C358 1.385 . S
C360 C358 1.478 . S
C360 C362 1.381 . S
C360 C366 1.383 . S
C361 C357 1.495 . S
C361 H367 0.959 . S
C361 H368 0.961 . S
C361 H369 0.960 . S
C362 C360 1.381 . S
C362 C363 1.394 . S
C362 H370 0.930 . S
C363 C362 1.394 . S
C363 C364 1.383 . S
C363 H371 0.929 . S
C364 C363 1.383 . S
C364 C365 1.377 . S
C365 H349 0.930 . S
C365 C364 1.377 . S
C365 C366 1.379 . S
C366 H350 0.931 . S
C366 C360 1.383 . S
C366 C365 1.379 . S
H367 C361 0.959 . S
H368 C361 0.961 . S
H369 C361 0.960 . S
H370 C362 0.930 . S
H371 C363 0.929 . S
H372 C380 0.929 . S
H373 C382 0.930 . S
H374 C384 0.930 . S
H375 C387 0.929 . S
H376 C390 0.930 . S
H377 C392 0.960 . S
H378 C392 0.960 . S
H379 C392 0.960 . S
C380 H372 0.929 . S
C380 C381 1.377 . S
C380 C382 1.384 . S
C381 C380 1.377 . S
C381 C387 1.390 . S
C382 H373 0.930 . S
C382 C380 1.384 . S
C382 C383 1.372 . S
C383 C382 1.372 . S
C383 C384 1.400 . S
C383 C388 1.490 . S
C384 H374 0.930 . S
C384 C383 1.400 . S
C384 C387 1.386 . S
H385 C401 0.930 . S
H386 C402 0.931 . S
C387 H375 0.929 . S
C387 C381 1.390 . S
C387 C384 1.386 . S
C388 C383 1.490 . S
C388 C390 1.395 . S
C388 C391 1.403 . S
H389 C395 0.930 . S
C390 H376 0.930 . S
C390 C388 1.395 . S
C390 C393 1.403 . S
C391 C388 1.403 . S
C391 C392 1.524 . S
C391 C395 1.400 . S
C392 H377 0.960 . S
C392 H378 0.960 . S
C392 H379 0.960 . S
C392 C391 1.524 . S
C393 C390 1.403 . S
C393 C394 1.392 . S
C393 C397 1.495 . S
C394 C393 1.392 . S
C394 C395 1.385 . S
C394 C396 1.478 . S
C395 H389 0.930 . S
C395 C391 1.400 . S
C395 C394 1.385 . S
C396 C394 1.478 . S
C396 C398 1.381 . S
C396 C402 1.383 . S
C397 C393 1.495 . S
C397 H403 0.959 . S
C397 H404 0.961 . S
C397 H405 0.960 . S
C398 C396 1.381 . S
C398 C399 1.394 . S
C398 H406 0.930 . S
C399 C398 1.394 . S
C399 C400 1.383 . S
C399 H407 0.929 . S
C400 C399 1.383 . S
C400 C401 1.377 . S
C401 H385 0.930 . S
C401 C400 1.377 . S
C401 C402 1.379 . S
C402 H386 0.931 . S
C402 C396 1.383 . S
C402 C401 1.379 . S
H403 C397 0.959 . S
H404 C397 0.961 . S
H405 C397 0.960 . S
H406 C398 0.930 . S
H407 C399 0.929 . S
H408 C416 0.929 . S
H409 C418 0.930 . S
H410 C420 0.930 . S
H411 C423 0.929 . S
H412 C426 0.930 . S
H413 C428 0.960 . S
H414 C428 0.960 . S
H415 C428 0.960 . S
C416 H408 0.929 . S
C416 C417 1.377 . S
C416 C418 1.384 . S
C417 C416 1.377 . S
C417 C423 1.390 . S
C418 H409 0.930 . S
C418 C416 1.384 . S
C418 C419 1.372 . S
C419 C418 1.372 . S
C419 C420 1.400 . S
C419 C424 1.490 . S
C420 H410 0.930 . S
C420 C419 1.400 . S
C420 C423 1.386 . S
H421 C437 0.930 . S
H422 C438 0.931 . S
C423 H411 0.929 . S
C423 C417 1.390 . S
C423 C420 1.386 . S
C424 C419 1.490 . S
C424 C426 1.395 . S
C424 C427 1.403 . S
H425 C431 0.930 . S
C426 H412 0.930 . S
C426 C424 1.395 . S
C426 C429 1.403 . S
C427 C424 1.403 . S
C427 C428 1.524 . S
C427 C431 1.400 . S
C428 H413 0.960 . S
C428 H414 0.960 . S
C428 H415 0.960 . S
C428 C427 1.524 . S
C429 C426 1.403 . S
C429 C430 1.392 . S
C429 C433 1.495 . S
C430 C429 1.392 . S
C430 C431 1.385 . S
C430 C432 1.478 . S
C431 H425 0.930 . S
C431 C427 1.400 . S
C431 C430 1.385 . S
C432 C430 1.478 . S
C432 C434 1.381 . S
C432 C438 1.383 . S
C433 C429 1.495 . S
C433 H439 0.959 . S
C433 H440 0.961 . S
C433 H441 0.960 . S
C434 C432 1.381 . S
C434 C435 1.394 . S
C434 H442 0.930 . S
C435 C434 1.394 . S
C435 C436 1.383 . S
C435 H443 0.929 . S
C436 C435 1.383 . S
C436 C437 1.377 . S
C437 H421 0.930 . S
C437 C436 1.377 . S
C437 C438 1.379 . S
C438 H422 0.931 . S
C438 C432 1.383 . S
C438 C437 1.379 . S
H439 C433 0.959 . S
H440 C433 0.961 . S
H441 C433 0.960 . S
H442 C434 0.930 . S
H443 C435 0.929 . S
H444 C452 0.929 . S
H445 C454 0.930 . S
H446 C456 0.930 . S
H447 C459 0.929 . S
H448 C462 0.930 . S
H449 C464 0.960 . S
H450 C464 0.960 . S
H451 C464 0.960 . S
C452 H444 0.929 . S
C452 C453 1.377 . S
C452 C454 1.384 . S
C453 C452 1.377 . S
C453 C459 1.390 . S
C454 H445 0.930 . S
C454 C452 1.384 . S
C454 C455 1.372 . S
C455 C454 1.372 . S
C455 C456 1.400 . S
C455 C460 1.490 . S
C456 H446 0.930 . S
C456 C455 1.400 . S
C456 C459 1.386 . S
H457 C473 0.930 . S
H458 C474 0.931 . S
C459 H447 0.929 . S
C459 C453 1.390 . S
C459 C456 1.386 . S
C460 C455 1.490 . S
C460 C462 1.395 . S
C460 C463 1.403 . S
H461 C467 0.930 . S
C462 H448 0.930 . S
C462 C460 1.395 . S
C462 C465 1.403 . S
C463 C460 1.403 . S
C463 C464 1.524 . S
C463 C467 1.400 . S
C464 H449 0.960 . S
C464 H450 0.960 . S
C464 H451 0.960 . S
C464 C463 1.524 . S
C465 C462 1.403 . S
C465 C466 1.392 . S
C465 C469 1.495 . S
C466 C465 1.392 . S
C466 C467 1.385 . S
C466 C468 1.478 . S
C467 H461 0.930 . S
C467 C463 1.400 . S
C467 C466 1.385 . S
C468 C466 1.478 . S
C468 C470 1.381 . S
C468 C474 1.383 . S
C469 C465 1.495 . S
C469 H475 0.959 . S
C469 H476 0.961 . S
C469 H477 0.960 . S
C470 C468 1.381 . S
C470 C471 1.394 . S
C470 H478 0.930 . S
C471 C470 1.394 . S
C471 C472 1.383 . S
C471 H479 0.929 . S
C472 C471 1.383 . S
C472 C473 1.377 . S
C473 H457 0.930 . S
C473 C472 1.377 . S
C473 C474 1.379 . S
C474 H458 0.931 . S
C474 C468 1.383 . S
C474 C473 1.379 . S
H475 C469 0.959 . S
H476 C469 0.961 . S
H477 C469 0.960 . S
H478 C470 0.930 . S
H479 C471 0.929 . S
H480 C488 0.929 . S
H481 C490 0.930 . S
H482 C492 0.930 . S
H483 C495 0.929 . S
H484 C498 0.930 . S
H485 C500 0.960 . S
H486 C500 0.960 . S
H487 C500 0.960 . S
C488 H480 0.929 . S
C488 C489 1.377 . S
C488 C490 1.384 . S
C489 C488 1.377 . S
C489 C495 1.390 . S
C490 H481 0.930 . S
C490 C488 1.384 . S
C490 C491 1.372 . S
C491 C490 1.372 . S
C491 C492 1.400 . S
C491 C496 1.490 . S
C492 H482 0.930 . S
C492 C491 1.400 . S
C492 C495 1.386 . S
H493 C509 0.930 . S
H494 C510 0.931 . S
C495 H483 0.929 . S
C495 C489 1.390 . S
C495 C492 1.386 . S
C496 C491 1.490 . S
C496 C498 1.395 . S
C496 C499 1.403 . S
H497 C503 0.930 . S
C498 H484 0.930 . S
C498 C496 1.395 . S
C498 C501 1.403 . S
C499 C496 1.403 . S
C499 C500 1.524 . S
C499 C503 1.400 . S
C500 H485 0.960 . S
C500 H486 0.960 . S
C500 H487 0.960 . S
C500 C499 1.524 . S
C501 C498 1.403 . S
C501 C502 1.392 . S
C501 C505 1.495 . S
C502 C501 1.392 . S
C502 C503 1.385 . S
C502 C504 1.478 . S
C503 H497 0.930 . S
C503 C499 1.400 . S
C503 C502 1.385 . S
C504 C502 1.478 . S
C504 C506 1.381 . S
C504 C510 1.383 . S
C505 C501 1.495 . S
C505 H511 0.959 . S
C505 H512 0.961 . S
C505 H513 0.960 . S
C506 C504 1.381 . S
C506 C507 1.394 . S
C506 H514 0.930 . S
C507 C506 1.394 . S
C507 C508 1.383 . S
C507 H515 0.929 . S
C508 C507 1.383 . S
C508 C509 1.377 . S
C509 H493 0.930 . S
C509 C508 1.377 . S
C509 C510 1.379 . S
C510 H494 0.931 . S
C510 C504 1.383 . S
C510 C509 1.379 . S
H511 C505 0.959 . S
H512 C505 0.961 . S
H513 C505 0.960 . S
H514 C506 0.930 . S
H515 C507 0.929 . S
H516 C524 0.929 . S
H517 C526 0.930 . S
H518 C528 0.930 . S
H519 C531 0.929 . S
H520 C534 0.930 . S
H521 C536 0.960 . S
H522 C536 0.960 . S
H523 C536 0.960 . S
C524 H516 0.929 . S
C524 C525 1.377 1_556 S
C524 C526 1.384 . S
C525 C524 1.377 1_554 S
C525 C531 1.390 . S
C526 H517 0.930 . S
C526 C524 1.384 . S
C526 C527 1.372 1_556 S
C527 C526 1.372 1_554 S
C527 C528 1.400 . S
C527 C532 1.490 . S
C528 H518 0.930 . S
C528 C527 1.400 . S
C528 C531 1.386 . S
H529 C545 0.930 . S
H530 C546 0.931 . S
C531 H519 0.929 . S
C531 C525 1.390 . S
C531 C528 1.386 . S
C532 C527 1.490 . S
C532 C534 1.395 . S
C532 C535 1.403 . S
H533 C539 0.930 . S
C534 H520 0.930 . S
C534 C532 1.395 . S
C534 C537 1.403 . S
C535 C532 1.403 . S
C535 C536 1.524 . S
C535 C539 1.400 . S
C536 H521 0.960 . S
C536 H522 0.960 . S
C536 H523 0.960 . S
C536 C535 1.524 . S
C537 C534 1.403 . S
C537 C538 1.392 . S
C537 C541 1.495 . S
C538 C537 1.392 . S
C538 C539 1.385 . S
C538 C540 1.478 . S
C539 H533 0.930 . S
C539 C535 1.400 . S
C539 C538 1.385 . S
C540 C538 1.478 . S
C540 C542 1.381 . S
C540 C546 1.383 . S
C541 C537 1.495 . S
C541 H547 0.959 . S
C541 H548 0.961 . S
C541 H549 0.960 . S
C542 C540 1.381 . S
C542 C543 1.394 . S
C542 H550 0.930 . S
C543 C542 1.394 . S
C543 C544 1.383 . S
C543 H551 0.929 . S
C544 C543 1.383 . S
C544 C545 1.377 . S
C545 H529 0.930 . S
C545 C544 1.377 . S
C545 C546 1.379 . S
C546 H530 0.931 . S
C546 C540 1.383 . S
C546 C545 1.379 . S
H547 C541 0.959 . S
H548 C541 0.961 . S
H549 C541 0.960 . S
H550 C542 0.930 . S
H551 C543 0.929 . S
H552 C560 0.929 . S
H553 C562 0.930 . S
H554 C564 0.930 . S
H555 C567 0.929 . S
H556 C570 0.930 . S
H557 C572 0.960 . S
H558 C572 0.960 . S
H559 C572 0.960 . S
C560 H552 0.929 . S
C560 C561 1.377 . S
C560 C562 1.384 . S
C561 C560 1.377 . S
C561 C567 1.390 . S
C562 H553 0.930 . S
C562 C560 1.384 . S
C562 C563 1.372 . S
C563 C562 1.372 . S
C563 C564 1.400 . S
C563 C568 1.490 . S
C564 H554 0.930 . S
C564 C563 1.400 . S
C564 C567 1.386 . S
H565 C581 0.930 . S
H566 C582 0.931 . S
C567 H555 0.929 . S
C567 C561 1.390 . S
C567 C564 1.386 . S
C568 C563 1.490 . S
C568 C570 1.395 . S
C568 C571 1.403 . S
H569 C575 0.930 . S
C570 H556 0.930 . S
C570 C568 1.395 . S
C570 C573 1.403 . S
C571 C568 1.403 . S
C571 C572 1.524 . S
C571 C575 1.400 . S
C572 H557 0.960 . S
C572 H558 0.960 . S
C572 H559 0.960 . S
C572 C571 1.524 . S
C573 C570 1.403 . S
C573 C574 1.392 . S
C573 C577 1.495 . S
C574 C573 1.392 . S
C574 C575 1.385 . S
C574 C576 1.478 . S
C575 H569 0.930 . S
C575 C571 1.400 . S
C575 C574 1.385 . S
C576 C574 1.478 . S
C576 C578 1.381 . S
C576 C582 1.383 . S
C577 C573 1.495 . S
C577 H583 0.959 . S
C577 H584 0.961 . S
C577 H585 0.960 . S
C578 C576 1.381 . S
C578 C579 1.394 . S
C578 H586 0.930 . S
C579 C578 1.394 . S
C579 C580 1.383 . S
C579 H587 0.929 . S
C580 C579 1.383 . S
C580 C581 1.377 . S
C581 H565 0.930 . S
C581 C580 1.377 . S
C581 C582 1.379 . S
C582 H566 0.931 . S
C582 C576 1.383 . S
C582 C581 1.379 . S
H583 C577 0.959 . S
H584 C577 0.961 . S
H585 C577 0.960 . S
H586 C578 0.930 . S
H587 C579 0.929 . S
H588 C596 0.929 . S
H589 C598 0.930 . S
H590 C600 0.930 . S
H591 C603 0.929 . S
H592 C606 0.930 . S
H593 C608 0.960 . S
H594 C608 0.960 . S
H595 C608 0.960 . S
C596 H588 0.929 . S
C596 C597 1.377 . S
C596 C598 1.384 . S
C597 C596 1.377 . S
C597 C603 1.390 . S
C598 H589 0.930 . S
C598 C596 1.384 . S
C598 C599 1.372 . S
C599 C598 1.372 . S
C599 C600 1.400 . S
C599 C604 1.490 . S
C600 H590 0.930 . S
C600 C599 1.400 . S
C600 C603 1.386 . S
H601 C617 0.930 . S
H602 C618 0.931 . S
C603 H591 0.929 . S
C603 C597 1.390 . S
C603 C600 1.386 . S
C604 C599 1.490 . S
C604 C606 1.395 . S
C604 C607 1.403 . S
H605 C611 0.930 . S
C606 H592 0.930 . S
C606 C604 1.395 . S
C606 C609 1.403 . S
C607 C604 1.403 . S
C607 C608 1.524 . S
C607 C611 1.400 . S
C608 H593 0.960 . S
C608 H594 0.960 . S
C608 H595 0.960 . S
C608 C607 1.524 . S
C609 C606 1.403 . S
C609 C610 1.392 . S
C609 C613 1.495 . S
C610 C609 1.392 . S
C610 C611 1.385 . S
C610 C612 1.478 . S
C611 H605 0.930 . S
C611 C607 1.400 . S
C611 C610 1.385 . S
C612 C610 1.478 . S
C612 C614 1.381 . S
C612 C618 1.383 . S
C613 C609 1.495 . S
C613 H619 0.959 . S
C613 H620 0.961 . S
C613 H621 0.960 . S
C614 C612 1.381 . S
C614 C615 1.394 . S
C614 H622 0.930 . S
C615 C614 1.394 . S
C615 C616 1.383 . S
C615 H623 0.929 . S
C616 C615 1.383 . S
C616 C617 1.377 . S
C617 H601 0.930 . S
C617 C616 1.377 . S
C617 C618 1.379 . S
C618 H602 0.931 . S
C618 C612 1.383 . S
C618 C617 1.379 . S
H619 C613 0.959 . S
H620 C613 0.961 . S
H621 C613 0.960 . S
H622 C614 0.930 . S
H623 C615 0.929 . S
H624 C632 0.929 . S
H625 C634 0.930 . S
H626 C636 0.930 . S
H627 C639 0.929 . S
H628 C642 0.930 . S
H629 C644 0.960 . S
H630 C644 0.960 . S
H631 C644 0.960 . S
C632 H624 0.929 . S
C632 C633 1.377 . S
C632 C634 1.384 . S
C633 C632 1.377 . S
C633 C639 1.390 . S
C634 H625 0.930 . S
C634 C632 1.384 . S
C634 C635 1.372 . S
C635 C634 1.372 . S
C635 C636 1.400 . S
C635 C640 1.490 . S
C636 H626 0.930 . S
C636 C635 1.400 . S
C636 C639 1.386 . S
H637 C653 0.930 . S
H638 C654 0.931 . S
C639 H627 0.929 . S
C639 C633 1.390 . S
C639 C636 1.386 . S
C640 C635 1.490 . S
C640 C642 1.395 . S
C640 C643 1.403 . S
H641 C647 0.930 . S
C642 H628 0.930 . S
C642 C640 1.395 . S
C642 C645 1.403 . S
C643 C640 1.403 . S
C643 C644 1.524 . S
C643 C647 1.400 . S
C644 H629 0.960 . S
C644 H630 0.960 . S
C644 H631 0.960 . S
C644 C643 1.524 . S
C645 C642 1.403 . S
C645 C646 1.392 . S
C645 C649 1.495 . S
C646 C645 1.392 . S
C646 C647 1.385 . S
C646 C648 1.478 . S
C647 H641 0.930 . S
C647 C643 1.400 . S
C647 C646 1.385 . S
C648 C646 1.478 . S
C648 C650 1.381 . S
C648 C654 1.383 . S
C649 C645 1.495 . S
C649 H655 0.959 . S
C649 H656 0.961 . S
C649 H657 0.960 . S
C650 C648 1.381 . S
C650 C651 1.394 . S
C650 H658 0.930 . S
C651 C650 1.394 . S
C651 C652 1.383 . S
C651 H659 0.929 . S
C652 C651 1.383 . S
C652 C653 1.377 . S
C653 H637 0.930 . S
C653 C652 1.377 . S
C653 C654 1.379 . S
C654 H638 0.931 . S
C654 C648 1.383 . S
C654 C653 1.379 . S
H655 C649 0.959 . S
H656 C649 0.961 . S
H657 C649 0.960 . S
H658 C650 0.930 . S
H659 C651 0.929 . S
H660 C668 0.929 . S
H661 C670 0.930 . S
H662 C672 0.930 . S
H663 C675 0.929 . S
H664 C678 0.930 . S
H665 C680 0.960 . S
H666 C680 0.960 . S
H667 C680 0.960 . S
C668 H660 0.929 . S
C668 C669 1.377 . S
C668 C670 1.384 . S
C669 C668 1.377 . S
C669 C675 1.390 . S
C670 H661 0.930 . S
C670 C668 1.384 . S
C670 C671 1.372 . S
C671 C670 1.372 . S
C671 C672 1.400 . S
C671 C676 1.490 . S
C672 H662 0.930 . S
C672 C671 1.400 . S
C672 C675 1.386 . S
H673 C689 0.930 . S
H674 C690 0.931 . S
C675 H663 0.929 . S
C675 C669 1.390 . S
C675 C672 1.386 . S
C676 C671 1.490 . S
C676 C678 1.395 . S
C676 C679 1.403 . S
H677 C683 0.930 . S
C678 H664 0.930 . S
C678 C676 1.395 . S
C678 C681 1.403 . S
C679 C676 1.403 . S
C679 C680 1.524 . S
C679 C683 1.400 . S
C680 H665 0.960 . S
C680 H666 0.960 . S
C680 H667 0.960 . S
C680 C679 1.524 . S
C681 C678 1.403 . S
C681 C682 1.392 . S
C681 C685 1.495 . S
C682 C681 1.392 . S
C682 C683 1.385 . S
C682 C684 1.478 . S
C683 H677 0.930 . S
C683 C679 1.400 . S
C683 C682 1.385 . S
C684 C682 1.478 . S
C684 C686 1.381 . S
C684 C690 1.383 . S
C685 C681 1.495 . S
C685 H691 0.959 . S
C685 H692 0.961 . S
C685 H693 0.960 . S
C686 C684 1.381 . S
C686 C687 1.394 . S
C686 H694 0.930 . S
C687 C686 1.394 . S
C687 C688 1.383 . S
C687 H695 0.929 . S
C688 C687 1.383 . S
C688 C689 1.377 . S
C689 H673 0.930 . S
C689 C688 1.377 . S
C689 C690 1.379 . S
C690 H674 0.931 . S
C690 C684 1.383 . S
C690 C689 1.379 . S
H691 C685 0.959 . S
H692 C685 0.961 . S
H693 C685 0.960 . S
H694 C686 0.930 . S
H695 C687 0.929 . S
H696 C704 0.929 . S
H697 C706 0.930 . S
H698 C708 0.930 . S
H699 C711 0.929 . S
H700 C714 0.930 . S
H701 C716 0.960 . S
H702 C716 0.960 . S
H703 C716 0.960 . S
C704 H696 0.929 . S
C704 C705 1.377 . S
C704 C706 1.384 . S
C705 C704 1.377 . S
C705 C711 1.390 . S
C706 H697 0.930 . S
C706 C704 1.384 . S
C706 C707 1.372 . S
C707 C706 1.372 . S
C707 C708 1.400 . S
C707 C712 1.490 . S
C708 H698 0.930 . S
C708 C707 1.400 . S
C708 C711 1.386 . S
H709 C725 0.930 . S
H710 C726 0.931 . S
C711 H699 0.929 . S
C711 C705 1.390 . S
C711 C708 1.386 . S
C712 C707 1.490 . S
C712 C714 1.395 . S
C712 C715 1.403 . S
H713 C719 0.930 . S
C714 H700 0.930 . S
C714 C712 1.395 . S
C714 C717 1.403 . S
C715 C712 1.403 . S
C715 C716 1.524 . S
C715 C719 1.400 . S
C716 H701 0.960 . S
C716 H702 0.960 . S
C716 H703 0.960 . S
C716 C715 1.524 . S
C717 C714 1.403 . S
C717 C718 1.392 . S
C717 C721 1.495 . S
C718 C717 1.392 . S
C718 C719 1.385 . S
C718 C720 1.478 . S
C719 H713 0.930 . S
C719 C715 1.400 . S
C719 C718 1.385 . S
C720 C718 1.478 . S
C720 C722 1.381 . S
C720 C726 1.383 . S
C721 C717 1.495 . S
C721 H727 0.959 . S
C721 H728 0.961 . S
C721 H729 0.960 . S
C722 C720 1.381 . S
C722 C723 1.394 . S
C722 H730 0.930 . S
C723 C722 1.394 . S
C723 C724 1.383 . S
C723 H731 0.929 . S
C724 C723 1.383 . S
C724 C725 1.377 . S
C725 H709 0.930 . S
C725 C724 1.377 . S
C725 C726 1.379 . S
C726 H710 0.931 . S
C726 C720 1.383 . S
C726 C725 1.379 . S
H727 C721 0.959 . S
H728 C721 0.961 . S
H729 C721 0.960 . S
H730 C722 0.930 . S
H731 C723 0.929 . S
H732 C740 0.929 . S
H733 C742 0.930 . S
H734 C744 0.930 . S
H735 C747 0.929 . S
H736 C750 0.930 . S
H737 C752 0.960 . S
H738 C752 0.960 . S
H739 C752 0.960 . S
C740 H732 0.929 . S
C740 C741 1.377 . S
C740 C742 1.384 . S
C741 C740 1.377 . S
C741 C747 1.390 . S
C742 H733 0.930 . S
C742 C740 1.384 . S
C742 C743 1.372 . S
C743 C742 1.372 . S
C743 C744 1.400 . S
C743 C748 1.490 . S
C744 H734 0.930 . S
C744 C743 1.400 . S
C744 C747 1.386 . S
H745 C761 0.930 . S
H746 C762 0.931 . S
C747 H735 0.929 . S
C747 C741 1.390 . S
C747 C744 1.386 . S
C748 C743 1.490 . S
C748 C750 1.395 . S
C748 C751 1.403 . S
H749 C755 0.930 . S
C750 H736 0.930 . S
C750 C748 1.395 . S
C750 C753 1.403 . S
C751 C748 1.403 . S
C751 C752 1.524 . S
C751 C755 1.400 . S
C752 H737 0.960 . S
C752 H738 0.960 . S
C752 H739 0.960 . S
C752 C751 1.524 . S
C753 C750 1.403 . S
C753 C754 1.392 . S
C753 C757 1.495 1_556 S
C754 C753 1.392 . S
C754 C755 1.385 . S
C754 C756 1.478 . S
C755 H749 0.930 . S
C755 C751 1.400 . S
C755 C754 1.385 . S
C756 C754 1.478 . S
C756 C758 1.381 1_556 S
C756 C762 1.383 . S
C757 C753 1.495 1_554 S
C757 H763 0.959 . S
C757 H764 0.961 . S
C757 H765 0.960 . S
C758 C756 1.381 1_554 S
C758 C759 1.394 . S
C758 H766 0.930 . S
C759 C758 1.394 . S
C759 C760 1.383 . S
C759 H767 0.929 . S
C760 C759 1.383 . S
C760 C761 1.377 . S
C761 H745 0.930 . S
C761 C760 1.377 . S
C761 C762 1.379 1_554 S
C762 H746 0.931 . S
C762 C756 1.383 . S
C762 C761 1.379 1_556 S
H763 C757 0.959 . S
H764 C757 0.961 . S
H765 C757 0.960 . S
H766 C758 0.930 . S
H767 C759 0.929 . S
H768 C776 0.929 . S
H769 C778 0.930 . S
H770 C780 0.930 . S
H771 C783 0.929 . S
H772 C786 0.930 . S
H773 C788 0.960 . S
H774 C788 0.960 . S
H775 C788 0.960 . S
C776 H768 0.929 . S
C776 C777 1.377 . S
C776 C778 1.384 . S
C777 C776 1.377 . S
C777 C783 1.390 . S
C778 H769 0.930 . S
C778 C776 1.384 . S
C778 C779 1.372 . S
C779 C778 1.372 . S
C779 C780 1.400 . S
C779 C784 1.490 . S
C780 H770 0.930 . S
C780 C779 1.400 . S
C780 C783 1.386 . S
H781 C797 0.930 . S
H782 C798 0.931 . S
C783 H771 0.929 . S
C783 C777 1.390 . S
C783 C780 1.386 . S
C784 C779 1.490 . S
C784 C786 1.395 . S
C784 C787 1.403 . S
H785 C791 0.930 . S
C786 H772 0.930 . S
C786 C784 1.395 . S
C786 C789 1.403 . S
C787 C784 1.403 . S
C787 C788 1.524 . S
C787 C791 1.400 . S
C788 H773 0.960 . S
C788 H774 0.960 . S
C788 H775 0.960 . S
C788 C787 1.524 . S
C789 C786 1.403 . S
C789 C790 1.392 . S
C789 C793 1.495 . S
C790 C789 1.392 . S
C790 C791 1.385 . S
C790 C792 1.478 . S
C791 H785 0.930 . S
C791 C787 1.400 . S
C791 C790 1.385 . S
C792 C790 1.478 . S
C792 C794 1.381 . S
C792 C798 1.383 . S
C793 C789 1.495 . S
C793 H799 0.959 . S
C793 H800 0.961 . S
C793 H801 0.960 . S
C794 C792 1.381 . S
C794 C795 1.394 . S
C794 H802 0.930 . S
C795 C794 1.394 . S
C795 C796 1.383 . S
C795 H803 0.929 . S
C796 C795 1.383 . S
C796 C797 1.377 . S
C797 H781 0.930 . S
C797 C796 1.377 . S
C797 C798 1.379 . S
C798 H782 0.931 . S
C798 C792 1.383 . S
C798 C797 1.379 . S
H799 C793 0.959 . S
H800 C793 0.961 . S
H801 C793 0.960 . S
H802 C794 0.930 . S
H803 C795 0.929 . S
H804 C812 0.929 . S
H805 C814 0.930 . S
H806 C816 0.930 . S
H807 C819 0.929 . S
H808 C822 0.930 . S
H809 C824 0.960 . S
H810 C824 0.960 . S
H811 C824 0.960 . S
C812 H804 0.929 . S
C812 C813 1.377 . S
C812 C814 1.384 . S
C813 C812 1.377 . S
C813 C819 1.390 . S
C814 H805 0.930 . S
C814 C812 1.384 . S
C814 C815 1.372 . S
C815 C814 1.372 . S
C815 C816 1.400 . S
C815 C820 1.490 . S
C816 H806 0.930 . S
C816 C815 1.400 . S
C816 C819 1.386 . S
H817 C833 0.930 . S
H818 C834 0.931 . S
C819 H807 0.929 . S
C819 C813 1.390 . S
C819 C816 1.386 . S
C820 C815 1.490 . S
C820 C822 1.395 . S
C820 C823 1.403 . S
H821 C827 0.930 . S
C822 H808 0.930 . S
C822 C820 1.395 . S
C822 C825 1.403 . S
C823 C820 1.403 . S
C823 C824 1.524 . S
C823 C827 1.400 . S
C824 H809 0.960 . S
C824 H810 0.960 . S
C824 H811 0.960 . S
C824 C823 1.524 . S
C825 C822 1.403 . S
C825 C826 1.392 . S
C825 C829 1.495 . S
C826 C825 1.392 . S
C826 C827 1.385 . S
C826 C828 1.478 . S
C827 H821 0.930 . S
C827 C823 1.400 . S
C827 C826 1.385 . S
C828 C826 1.478 . S
C828 C830 1.381 . S
C828 C834 1.383 . S
C829 C825 1.495 . S
C829 H835 0.959 . S
C829 H836 0.961 . S
C829 H837 0.960 . S
C830 C828 1.381 . S
C830 C831 1.394 . S
C830 H838 0.930 . S
C831 C830 1.394 . S
C831 C832 1.383 . S
C831 H839 0.929 . S
C832 C831 1.383 . S
C832 C833 1.377 . S
C833 H817 0.930 . S
C833 C832 1.377 . S
C833 C834 1.379 . S
C834 H818 0.931 . S
C834 C828 1.383 . S
C834 C833 1.379 . S
H835 C829 0.959 . S
H836 C829 0.961 . S
H837 C829 0.960 . S
H838 C830 0.930 . S
H839 C831 0.929 . S
H840 C848 0.929 . S
H841 C850 0.930 . S
H842 C852 0.930 . S
H843 C855 0.929 . S
H844 C858 0.930 . S
H845 C860 0.960 . S
H846 C860 0.960 . S
H847 C860 0.960 . S
C848 H840 0.929 . S
C848 C849 1.377 . S
C848 C850 1.384 . S
C849 C848 1.377 . S
C849 C855 1.390 . S
C850 H841 0.930 . S
C850 C848 1.384 . S
C850 C851 1.372 . S
C851 C850 1.372 . S
C851 C852 1.400 . S
C851 C856 1.490 . S
C852 H842 0.930 . S
C852 C851 1.400 . S
C852 C855 1.386 . S
H853 C869 0.930 . S
H854 C870 0.931 . S
C855 H843 0.929 . S
C855 C849 1.390 . S
C855 C852 1.386 . S
C856 C851 1.490 . S
C856 C858 1.395 . S
C856 C859 1.403 . S
H857 C863 0.930 . S
C858 H844 0.930 . S
C858 C856 1.395 . S
C858 C861 1.403 . S
C859 C856 1.403 . S
C859 C860 1.524 . S
C859 C863 1.400 . S
C860 H845 0.960 . S
C860 H846 0.960 . S
C860 H847 0.960 . S
C860 C859 1.524 . S
C861 C858 1.403 . S
C861 C862 1.392 . S
C861 C865 1.495 . S
C862 C861 1.392 . S
C862 C863 1.385 . S
C862 C864 1.478 . S
C863 H857 0.930 . S
C863 C859 1.400 . S
C863 C862 1.385 . S
C864 C862 1.478 . S
C864 C866 1.381 . S
C864 C870 1.383 . S
C865 C861 1.495 . S
C865 H871 0.959 . S
C865 H872 0.961 . S
C865 H873 0.960 . S
C866 C864 1.381 . S
C866 C867 1.394 . S
C866 H874 0.930 . S
C867 C866 1.394 . S
C867 C868 1.383 . S
C867 H875 0.929 . S
C868 C867 1.383 . S
C868 C869 1.377 . S
C869 H853 0.930 . S
C869 C868 1.377 . S
C869 C870 1.379 . S
C870 H854 0.931 . S
C870 C864 1.383 . S
C870 C869 1.379 . S
H871 C865 0.959 . S
H872 C865 0.961 . S
H873 C865 0.960 . S
H874 C866 0.930 . S
H875 C867 0.929 . S
H876 C884 0.929 . S
H877 C886 0.930 . S
H878 C888 0.930 . S
H879 C891 0.929 . S
H880 C894 0.930 . S
H881 C896 0.960 . S
H882 C896 0.960 . S
H883 C896 0.960 . S
C884 H876 0.929 . S
C884 C885 1.377 . S
C884 C886 1.384 . S
C885 C884 1.377 . S
C885 C891 1.390 . S
C886 H877 0.930 . S
C886 C884 1.384 . S
C886 C887 1.372 . S
C887 C886 1.372 . S
C887 C888 1.400 . S
C887 C892 1.490 . S
C888 H878 0.930 . S
C888 C887 1.400 . S
C888 C891 1.386 . S
H889 C905 0.930 . S
H890 C906 0.931 . S
C891 H879 0.929 . S
C891 C885 1.390 . S
C891 C888 1.386 . S
C892 C887 1.490 . S
C892 C894 1.395 . S
C892 C895 1.403 . S
H893 C899 0.930 . S
C894 H880 0.930 . S
C894 C892 1.395 . S
C894 C897 1.403 . S
C895 C892 1.403 . S
C895 C896 1.524 . S
C895 C899 1.400 . S
C896 H881 0.960 . S
C896 H882 0.960 . S
C896 H883 0.960 . S
C896 C895 1.524 . S
C897 C894 1.403 . S
C897 C898 1.392 . S
C897 C901 1.495 . S
C898 C897 1.392 . S
C898 C899 1.385 . S
C898 C900 1.478 . S
C899 H893 0.930 . S
C899 C895 1.400 . S
C899 C898 1.385 . S
C900 C898 1.478 . S
C900 C902 1.381 . S
C900 C906 1.383 . S
C901 C897 1.495 . S
C901 H907 0.959 . S
C901 H908 0.961 . S
C901 H909 0.960 . S
C902 C900 1.381 . S
C902 C903 1.394 . S
C902 H910 0.930 . S
C903 C902 1.394 . S
C903 C904 1.383 . S
C903 H911 0.929 . S
C904 C903 1.383 . S
C904 C905 1.377 . S
C905 H889 0.930 . S
C905 C904 1.377 . S
C905 C906 1.379 . S
C906 H890 0.931 . S
C906 C900 1.383 . S
C906 C905 1.379 . S
H907 C901 0.959 . S
H908 C901 0.961 . S
H909 C901 0.960 . S
H910 C902 0.930 . S
H911 C903 0.929 . S
H912 C920 0.929 . S
H913 C922 0.930 . S
H914 C924 0.930 . S
H915 C927 0.929 . S
H916 C930 0.930 . S
H917 C932 0.960 . S
H918 C932 0.960 . S
H919 C932 0.960 . S
C920 H912 0.929 . S
C920 C921 1.377 . S
C920 C922 1.384 . S
C921 C920 1.377 . S
C921 C927 1.390 . S
C922 H913 0.930 . S
C922 C920 1.384 . S
C922 C923 1.372 . S
C923 C922 1.372 . S
C923 C924 1.400 . S
C923 C928 1.490 . S
C924 H914 0.930 . S
C924 C923 1.400 . S
C924 C927 1.386 . S
H925 C941 0.930 . S
H926 C942 0.931 . S
C927 H915 0.929 . S
C927 C921 1.390 . S
C927 C924 1.386 . S
C928 C923 1.490 . S
C928 C930 1.395 . S
C928 C931 1.403 . S
H929 C935 0.930 . S
C930 H916 0.930 . S
C930 C928 1.395 . S
C930 C933 1.403 . S
C931 C928 1.403 . S
C931 C932 1.524 . S
C931 C935 1.400 . S
C932 H917 0.960 . S
C932 H918 0.960 . S
C932 H919 0.960 . S
C932 C931 1.524 . S
C933 C930 1.403 . S
C933 C934 1.392 . S
C933 C937 1.495 . S
C934 C933 1.392 . S
C934 C935 1.385 . S
C934 C936 1.478 . S
C935 H929 0.930 . S
C935 C931 1.400 . S
C935 C934 1.385 . S
C936 C934 1.478 . S
C936 C938 1.381 . S
C936 C942 1.383 . S
C937 C933 1.495 . S
C937 H943 0.959 . S
C937 H944 0.961 . S
C937 H945 0.960 . S
C938 C936 1.381 . S
C938 C939 1.394 . S
C938 H946 0.930 . S
C939 C938 1.394 . S
C939 C940 1.383 . S
C939 H947 0.929 . S
C940 C939 1.383 . S
C940 C941 1.377 . S
C941 H925 0.930 . S
C941 C940 1.377 . S
C941 C942 1.379 . S
C942 H926 0.931 . S
C942 C936 1.383 . S
C942 C941 1.379 . S
H943 C937 0.959 . S
H944 C937 0.961 . S
H945 C937 0.960 . S
H946 C938 0.930 . S
H947 C939 0.929 . S
H948 C956 0.929 . S
H949 C958 0.930 . S
H950 C960 0.930 . S
H951 C963 0.929 . S
H952 C966 0.930 . S
H953 C968 0.960 . S
H954 C968 0.960 . S
H955 C968 0.960 . S
C956 H948 0.929 . S
C956 C957 1.377 . S
C956 C958 1.384 . S
C957 C956 1.377 . S
C957 C963 1.390 . S
C958 H949 0.930 . S
C958 C956 1.384 . S
C958 C959 1.372 . S
C959 C958 1.372 . S
C959 C960 1.400 . S
C959 C964 1.490 . S
C960 H950 0.930 . S
C960 C959 1.400 . S
C960 C963 1.386 . S
H961 C977 0.930 . S
H962 C978 0.931 . S
C963 H951 0.929 . S
C963 C957 1.390 . S
C963 C960 1.386 . S
C964 C959 1.490 . S
C964 C966 1.395 . S
C964 C967 1.403 . S
H965 C971 0.930 . S
C966 H952 0.930 . S
C966 C964 1.395 . S
C966 C969 1.403 . S
C967 C964 1.403 . S
C967 C968 1.524 . S
C967 C971 1.400 . S
C968 H953 0.960 . S
C968 H954 0.960 . S
C968 H955 0.960 . S
C968 C967 1.524 . S
C969 C966 1.403 . S
C969 C970 1.392 . S
C969 C973 1.495 . S
C970 C969 1.392 . S
C970 C971 1.385 . S
C970 C972 1.478 . S
C971 H965 0.930 . S
C971 C967 1.400 . S
C971 C970 1.385 . S
C972 C970 1.478 . S
C972 C974 1.381 . S
C972 C978 1.383 . S
C973 C969 1.495 . S
C973 H979 0.959 . S
C973 H980 0.961 . S
C973 H981 0.960 . S
C974 C972 1.381 . S
C974 C975 1.394 . S
C974 H982 0.930 . S
C975 C974 1.394 . S
C975 C976 1.383 . S
C975 H983 0.929 . S
C976 C975 1.383 . S
C976 C977 1.377 . S
C977 H961 0.930 . S
C977 C976 1.377 . S
C977 C978 1.379 . S
C978 H962 0.931 . S
C978 C972 1.383 . S
C978 C977 1.379 . S
H979 C973 0.959 . S
H980 C973 0.961 . S
H981 C973 0.960 . S
H982 C974 0.930 . S
H983 C975 0.929 . S
H984 C992 0.929 . S
H985 C994 0.930 . S
H986 C996 0.930 . S
H987 C999 0.929 . S
H988 C1002 0.930 . S
H989 C1004 0.960 . S
H990 C1004 0.960 . S
H991 C1004 0.960 . S
C992 H984 0.929 . S
C992 C993 1.377 . S
C992 C994 1.384 . S
C993 C992 1.377 . S
C993 C999 1.390 . S
C994 H985 0.930 . S
C994 C992 1.384 . S
C994 C995 1.372 . S
C995 C994 1.372 . S
C995 C996 1.400 . S
C995 C1000 1.490 . S
C996 H986 0.930 . S
C996 C995 1.400 . S
C996 C999 1.386 . S
H997 C1013 0.930 . S
H998 C1014 0.931 1_554 S
C999 H987 0.929 . S
C999 C993 1.390 . S
C999 C996 1.386 . S
C1000 C995 1.490 . S
C1000 C1002 1.395 . S
C1000 C1003 1.403 . S
H1001 C1007 0.930 . S
C1002 H988 0.930 . S
C1002 C1000 1.395 . S
C1002 C1005 1.403 . S
C1003 C1000 1.403 . S
C1003 C1004 1.524 . S
C1003 C1007 1.400 . S
C1004 H989 0.960 . S
C1004 H990 0.960 . S
C1004 H991 0.960 . S
C1004 C1003 1.524 . S
C1005 C1002 1.403 . S
C1005 C1006 1.392 . S
C1005 C1009 1.495 . S
C1006 C1005 1.392 . S
C1006 C1007 1.385 . S
C1006 C1008 1.478 1_554 S
C1007 H1001 0.930 . S
C1007 C1003 1.400 . S
C1007 C1006 1.385 . S
C1008 C1006 1.478 1_556 S
C1008 C1010 1.381 . S
C1008 C1014 1.383 . S
C1009 C1005 1.495 . S
C1009 H1015 0.959 . S
C1009 H1016 0.961 . S
C1009 H1017 0.960 1_554 S
C1010 C1008 1.381 . S
C1010 C1011 1.394 . S
C1010 H1018 0.930 . S
C1011 C1010 1.394 . S
C1011 C1012 1.383 . S
C1011 H1019 0.929 . S
C1012 C1011 1.383 . S
C1012 C1013 1.377 . S
C1013 H997 0.930 . S
C1013 C1012 1.377 . S
C1013 C1014 1.379 . S
C1014 H998 0.931 1_556 S
C1014 C1008 1.383 . S
C1014 C1013 1.379 . S
H1015 C1009 0.959 . S
H1016 C1009 0.961 . S
H1017 C1009 0.960 1_556 S
H1018 C1010 0.930 . S
H1019 C1011 0.929 . S
H1020 C1028 0.929 . S
H1021 C1030 0.930 . S
H1022 C1032 0.930 . S
H1023 C1035 0.929 . S
H1024 C1038 0.930 . S
H1025 C1040 0.960 . S
H1026 C1040 0.960 . S
H1027 C1040 0.960 . S
C1028 H1020 0.929 . S
C1028 C1029 1.377 . S
C1028 C1030 1.384 . S
C1029 C1028 1.377 . S
C1029 C1035 1.390 . S
C1030 H1021 0.930 . S
C1030 C1028 1.384 . S
C1030 C1031 1.372 . S
C1031 C1030 1.372 . S
C1031 C1032 1.400 . S
C1031 C1036 1.490 . S
C1032 H1022 0.930 . S
C1032 C1031 1.400 . S
C1032 C1035 1.386 . S
H1033 C1049 0.930 . S
H1034 C1050 0.931 . S
C1035 H1023 0.929 . S
C1035 C1029 1.390 . S
C1035 C1032 1.386 . S
C1036 C1031 1.490 . S
C1036 C1038 1.395 . S
C1036 C1039 1.403 . S
H1037 C1043 0.930 . S
C1038 H1024 0.930 . S
C1038 C1036 1.395 . S
C1038 C1041 1.403 . S
C1039 C1036 1.403 . S
C1039 C1040 1.524 . S
C1039 C1043 1.400 . S
C1040 H1025 0.960 . S
C1040 H1026 0.960 . S
C1040 H1027 0.960 . S
C1040 C1039 1.524 . S
C1041 C1038 1.403 . S
C1041 C1042 1.392 . S
C1041 C1045 1.495 . S
C1042 C1041 1.392 . S
C1042 C1043 1.385 . S
C1042 C1044 1.478 . S
C1043 H1037 0.930 . S
C1043 C1039 1.400 . S
C1043 C1042 1.385 . S
C1044 C1042 1.478 . S
C1044 C1046 1.381 . S
C1044 C1050 1.383 . S
C1045 C1041 1.495 . S
C1045 H1051 0.959 . S
C1045 H1052 0.961 . S
C1045 H1053 0.960 . S
C1046 C1044 1.381 . S
C1046 C1047 1.394 . S
C1046 H1054 0.930 . S
C1047 C1046 1.394 . S
C1047 C1048 1.383 . S
C1047 H1055 0.929 . S
C1048 C1047 1.383 . S
C1048 C1049 1.377 . S
C1049 H1033 0.930 . S
C1049 C1048 1.377 . S
C1049 C1050 1.379 . S
C1050 H1034 0.931 . S
C1050 C1044 1.383 . S
C1050 C1049 1.379 . S
H1051 C1045 0.959 . S
H1052 C1045 0.961 . S
H1053 C1045 0.960 . S
H1054 C1046 0.930 . S
H1055 C1047 0.929 . S
C220 C185 1.496 . S
C201 C8 1.466 . S
C237 C26 1.470 . S
C256 C114 1.511 . S
C273 C50 1.477 . S
C292 C128 1.521 . S
C309 C68 1.479 . S
C328 C142 1.478 . S
C364 C156 1.466 . S
C345 C80 1.475 . S
C381 C104 1.480 . S
C400 C171 1.482 . S
C417 C32 1.478 . S
C436 C129 1.521 . S
C453 C44 1.479 . S
C472 C143 1.470 . S
C489 C62 1.470 . S
C508 C157 1.474 . S
C544 C170 1.511 . S
C525 C86 1.469 1_554 S
C580 C184 1.468 . S
C561 C98 1.473 . S
C616 C115 1.471 . S
C597 C14 1.475 . S
C633 C7 1.492 . S
C652 C131 1.525 . S
C669 C25 1.493 . S
C688 C145 1.520 . S
C724 C159 1.534 . S
C705 C52 1.501 . S
C741 C70 1.500 . S
C760 C172 1.537 . S
C796 C186 1.519 . S
C777 C79 1.492 . S
C832 C117 1.529 . S
C813 C106 1.494 . S
C868 C187 1.524 . S
C849 C34 1.493 . S
C885 C43 1.490 . S
C904 C116 1.524 . S
C940 C130 1.546 . S
C921 C61 1.503 . S
C957 C88 1.495 . S
C976 C144 1.531 . S
C993 C97 1.498 . S
C1012 C158 1.544 . S
C1029 C16 1.504 . S
C1048 C173 1.547 . S
