# Generated by pormake.
# Topology zzz, (3,6)-cn, num edge types: 1
# Building blocks:
#     Node 0, Type 0, BuildingBlock: ESEHIV_clean_linker_0, # of connection points: 3
#     Node 1, Type 0, BuildingBlock: ESEHIV_clean_linker_0, # of connection points: 3
#     Node 2, Type 0, BuildingBlock: ESEHIV_clean_linker_0, # of connection points: 3
#     Node 3, Type 0, BuildingBlock: ESEHIV_clean_linker_0, # of connection points: 3
#     Node 4, Type 0, BuildingBlock: ESEHIV_clean_linker_0, # of connection points: 3
#     Node 5, Type 0, BuildingBlock: ESEHIV_clean_linker_0, # of connection points: 3
#     Node 6, Type 0, BuildingBlock: ESEHIV_clean_linker_0, # of connection points: 3
#     Node 7, Type 0, BuildingBlock: ESEHIV_clean_linker_0, # of connection points: 3
#     Node 8, Type 1, BuildingBlock: JUFBIX_clean_sbu_0, # of connection points: 6
#     Node 9, Type 1, BuildingBlock: JUFBIX_clean_sbu_0, # of connection points: 6
#     Node 10, Type 1, BuildingBlock: JUFBIX_clean_sbu_0, # of connection points: 6
#     Node 11, Type 1, BuildingBlock: JUFBIX_clean_sbu_0, # of connection points: 6
#     Edge 12, Type (0, 1), BuildingBlock: XUDNAN_clean_linker_2, # of connection points: 2
#     Edge 13, Type (0, 1), BuildingBlock: XUDNAN_clean_linker_2, # of connection points: 2
#     Edge 14, Type (0, 1), BuildingBlock: XUDNAN_clean_linker_2, # of connection points: 2
#     Edge 15, Type (0, 1), BuildingBlock: XUDNAN_clean_linker_2, # of connection points: 2
#     Edge 16, Type (0, 1), BuildingBlock: XUDNAN_clean_linker_2, # of connection points: 2
#     Edge 17, Type (0, 1), BuildingBlock: XUDNAN_clean_linker_2, # of connection points: 2
#     Edge 18, Type (0, 1), BuildingBlock: XUDNAN_clean_linker_2, # of connection points: 2
#     Edge 19, Type (0, 1), BuildingBlock: XUDNAN_clean_linker_2, # of connection points: 2
#     Edge 20, Type (0, 1), BuildingBlock: XUDNAN_clean_linker_2, # of connection points: 2
#     Edge 21, Type (0, 1), BuildingBlock: XUDNAN_clean_linker_2, # of connection points: 2
#     Edge 22, Type (0, 1), BuildingBlock: XUDNAN_clean_linker_2, # of connection points: 2
#     Edge 23, Type (0, 1), BuildingBlock: XUDNAN_clean_linker_2, # of connection points: 2
#     Edge 24, Type (0, 1), BuildingBlock: XUDNAN_clean_linker_2, # of connection points: 2
#     Edge 25, Type (0, 1), BuildingBlock: XUDNAN_clean_linker_2, # of connection points: 2
#     Edge 26, Type (0, 1), BuildingBlock: XUDNAN_clean_linker_2, # of connection points: 2
#     Edge 27, Type (0, 1), BuildingBlock: XUDNAN_clean_linker_2, # of connection points: 2
#     Edge 28, Type (0, 1), BuildingBlock: XUDNAN_clean_linker_2, # of connection points: 2
#     Edge 29, Type (0, 1), BuildingBlock: XUDNAN_clean_linker_2, # of connection points: 2
#     Edge 30, Type (0, 1), BuildingBlock: XUDNAN_clean_linker_2, # of connection points: 2
#     Edge 31, Type (0, 1), BuildingBlock: XUDNAN_clean_linker_2, # of connection points: 2
#     Edge 32, Type (0, 1), BuildingBlock: XUDNAN_clean_linker_2, # of connection points: 2
#     Edge 33, Type (0, 1), BuildingBlock: XUDNAN_clean_linker_2, # of connection points: 2
#     Edge 34, Type (0, 1), BuildingBlock: XUDNAN_clean_linker_2, # of connection points: 2
#     Edge 35, Type (0, 1), BuildingBlock: XUDNAN_clean_linker_2, # of connection points: 2
# Relax obj value: 0.281
# Max RMSD: 0.230
# Mean RMSD: 0.186
data_MOF--net-zzz--node1-JUFBIX_clean_sbu_0--node2-ESEHIV_clean_linker_0--edge1-XUDNAN_clean_linker_2
_symmetry_space_group_name_H-M    P1
_symmetry_Int_Tables_number       1
_symmetry_cell_setting            triclinic
loop_
_symmetry_equiv_pos_as_xyz
'x, y, z'
_cell_length_a     44.94955
_cell_length_b     46.067091
_cell_length_c     17.838643
_cell_angle_alpha  80.386806
_cell_angle_beta   90.200754
_cell_angle_gamma 86.11319
loop_
_atom_site_label
_atom_site_type_symbol
_atom_site_fract_x
_atom_site_fract_y
_atom_site_fract_z
_atom_type_partial_charge
H0 H 0.84541 0.52346 0.35145 0.0
H1 H 0.78451 0.50614 0.18176 0.0
H2 H 0.75128 0.54437 0.37285 0.0
C3 C 0.82276 0.52417 0.32957 0.0
C4 C 0.7991 0.53543 0.36966 0.0
C5 C 0.81766 0.51344 0.26234 0.0
C6 C 0.78845 0.51403 0.23467 0.0
C7 C 0.76433 0.52545 0.27341 0.0
C8 C 0.76965 0.53558 0.34232 0.0
H9 H 0.03449 0.83301 0.31859 0.0
H10 H 0.04734 0.7768 0.15147 0.0
H11 H 0.01105 0.74317 0.37053 0.0
C12 C 0.03407 0.81137 0.30236 0.0
C13 C 0.02235 0.7885 0.35284 0.0
C14 C 0.04332 0.80723 0.22989 0.0
C15 C 0.0411 0.7795 0.20855 0.0
C16 C 0.02968 0.75588 0.25836 0.0
C17 C 0.02035 0.76066 0.3313 0.0
H18 H 0.68564 0.01617 0.24058 0.0
H19 H 0.751 0.02244 0.06544 0.0
H20 H 0.77484 0.97907 0.29413 0.0
C21 C 0.70847 0.0123 0.22306 0.0
C22 C 0.72948 0.99728 0.27621 0.0
C23 C 0.71595 0.02099 0.14705 0.0
C24 C 0.74517 0.01495 0.12405 0.0
C25 C 0.76694 1.00024 0.17678 0.0
C26 C 0.75869 0.99099 0.253 0.0
H27 H 0.47646 0.6852 0.28761 0.0
H28 H 0.50017 0.7738 0.29163 0.0
H29 H 0.49275 0.74177 0.07833 0.0
C30 C 0.48111 0.70689 0.25761 0.0
C31 C 0.48445 0.71075 0.17892 0.0
C32 C 0.48762 0.72883 0.2994 0.0
C33 C 0.49437 0.75679 0.26002 0.0
C34 C 0.49493 0.76212 0.17939 0.0
C35 C 0.49034 0.73867 0.13954 0.0
H36 H 0.15764 0.53308 0.20817 0.0
H37 H 0.21665 0.54119 0.39064 0.0
H38 H 0.25119 0.50855 0.19208 0.0
C39 C 0.18005 0.53085 0.23231 0.0
C40 C 0.20382 0.51991 0.19216 0.0
C41 C 0.18474 0.53894 0.30305 0.0
C42 C 0.21357 0.53599 0.33421 0.0
C43 C 0.23801 0.52524 0.29499 0.0
C44 C 0.23286 0.51683 0.2236 0.0
H45 H 0.01395 0.20068 0.33403 0.0
H46 H 0.99455 0.27333 0.45186 0.0
H47 H 0.04469 0.28596 0.24473 0.0
C48 C 0.01539 0.22376 0.33801 0.0
C49 C 0.03057 0.24184 0.28164 0.0
C50 C 0.00227 0.23485 0.3994 0.0
C51 C 0.00446 0.26463 0.40418 0.0
C52 C 0.01983 0.28325 0.3493 0.0
C53 C 0.03287 0.2718 0.2875 0.0
H54 H 0.29212 0.02081 0.32194 0.0
H55 H 0.22926 0.02021 0.50335 0.0
H56 H 0.20347 0.06048 0.27479 0.0
C57 C 0.27013 0.02642 0.34239 0.0
C58 C 0.24899 0.04206 0.29048 0.0
C59 C 0.26392 0.0193 0.41988 0.0
C60 C 0.2347 0.02525 0.44368 0.0
C61 C 0.21258 0.03935 0.39138 0.0
C62 C 0.21997 0.0484 0.31471 0.0
H63 H 0.50849 0.34516 0.34711 0.0
H64 H 0.48165 0.26212 0.2985 0.0
H65 H 0.50278 0.27225 0.52883 0.0
C66 C 0.50453 0.32209 0.36573 0.0
C67 C 0.50686 0.31057 0.44307 0.0
C68 C 0.49596 0.30494 0.31261 0.0
C69 C 0.48922 0.27543 0.33851 0.0
C70 C 0.49231 0.26328 0.41674 0.0
C71 C 0.50132 0.28104 0.46852 0.0
Co72 Co 0.00128 0.04718 0.83529 0.0
C73 C 0.95089 0.01221 0.88892 0.0
Co74 Co 0.98059 1.00476 0.74512 0.0
C75 C 0.03225 0.08502 0.90991 0.0
C76 C 0.03005 0.04343 0.98305 0.0
N77 N 0.02462 0.05713 0.9111 0.0
N78 N 0.04215 0.08964 0.97845 0.0
C79 C 0.04107 0.06322 0.0243 0.0
H80 H 0.02837 0.10202 0.86058 0.0
H81 H 0.02377 0.02149 0.00589 0.0
C82 C 0.03305 0.03822 0.69709 0.0
N83 N 0.9694 0.97682 0.6866 0.0
C84 C 0.97125 0.94688 0.70187 0.0
C85 C 0.96178 0.98338 0.61214 0.0
N86 N 0.96512 0.93477 0.63989 0.0
C87 C 0.95892 0.95783 0.58372 0.0
C88 C 0.96074 0.05451 0.71345 0.0
O89 O 0.03092 0.05236 0.75524 0.0
O90 O 0.01493 0.01844 0.6837 0.0
O91 O 0.9525 0.03486 0.67979 0.0
O92 O 0.97798 0.04441 0.76711 0.0
O93 O 0.9511 0.99911 0.82853 0.0
H94 H 0.96028 1.00528 0.57871 0.0
H95 H 0.97825 0.93417 0.75633 0.0
O96 O 0.96937 0.03207 0.90037 0.0
O97 O 0.02024 0.00781 0.86511 0.0
O98 O 0.00529 0.97573 0.79985 0.0
C99 C 0.0214 0.98165 0.85172 0.0
H100 H 0.04533 0.05896 0.08499 0.0
H101 H 0.9549 0.95639 0.52462 0.0
Co102 Co 0.47677 0.01868 0.8346 0.0
C103 C 0.50003 0.96046 0.87037 0.0
Co104 Co 0.50547 1.00514 0.74433 0.0
C105 C 0.42297 0.03876 0.90454 0.0
C106 C 0.46039 0.03243 0.98144 0.0
N107 N 0.45254 0.03088 0.90926 0.0
N108 N 0.41208 0.04502 0.97085 0.0
C109 C 0.43563 0.0412 0.0193 0.0
H110 H 0.40954 0.03952 0.85369 0.0
H111 H 0.48252 0.02674 0.00576 0.0
C112 C 0.48245 0.06323 0.70804 0.0
N113 N 0.52955 0.99293 0.66923 0.0
C114 C 0.55895 0.98418 0.67363 0.0
C115 C 0.52162 0.99262 0.5963 0.0
N116 N 0.56938 0.97828 0.60673 0.0
C117 C 0.54612 0.9837 0.55773 0.0
C118 C 0.44572 0.99502 0.72871 0.0
O119 O 0.46903 0.05663 0.77082 0.0
O120 O 0.50024 0.04388 0.68565 0.0
O121 O 0.47083 0.99404 0.69641 0.0
O122 O 0.44358 1.00443 0.79133 0.0
O123 O 0.51075 0.96658 0.804 0.0
H124 H 0.49971 0.99949 0.57181 0.0
H125 H 0.57274 0.98304 0.72403 0.0
O126 O 0.48459 0.98052 0.89703 0.0
O127 O 0.51058 0.0329 0.87768 0.0
O128 O 0.53928 0.01652 0.79262 0.0
C129 C 0.53636 0.02907 0.85051 0.0
H130 H 0.43478 0.04326 0.07883 0.0
H131 H 0.54718 0.98263 0.49762 0.0
Co132 Co 0.52398 0.51391 0.81035 0.0
C133 C 0.49202 0.46922 0.89118 0.0
Co134 Co 0.47634 0.51697 0.77717 0.0
C135 C 0.57352 0.51215 0.91442 0.0
C136 C 0.58774 0.51478 0.79924 0.0
N137 N 0.56331 0.51278 0.8428 0.0
N138 N 0.60334 0.51407 0.9173 0.0
C139 C 0.61236 0.51556 0.84477 0.0
H140 H 0.55914 0.51145 0.96312 0.0
H141 H 0.58757 0.51629 0.73806 0.0
C142 C 0.50758 0.56216 0.69731 0.0
N143 N 0.43701 0.51836 0.74382 0.0
C144 C 0.42748 0.51529 0.6738 0.0
C145 C 0.41186 0.52352 0.78204 0.0
N146 N 0.39756 0.51844 0.66682 0.0
C147 C 0.38755 0.52381 0.73453 0.0
C148 C 0.48671 0.54823 0.89071 0.0
O149 O 0.52955 0.54914 0.73771 0.0
O150 O 0.48253 0.5508 0.70347 0.0
O151 O 0.46569 0.54262 0.84871 0.0
O152 O 0.51295 0.53748 0.88265 0.0
O153 O 0.4702 0.48302 0.85174 0.0
H154 H 0.4112 0.527 0.84049 0.0
H155 H 0.44217 0.5115 0.62793 0.0
O156 O 0.51779 0.47913 0.88256 0.0
O157 O 0.53499 0.48965 0.73833 0.0
O158 O 0.4877 0.49118 0.70717 0.0
C159 C 0.51441 0.48117 0.70007 0.0
H160 H 0.63508 0.51733 0.82564 0.0
H161 H 0.36434 0.52737 0.74874 0.0
Co162 Co 0.0003 0.54998 0.79615 0.0
C163 C 0.05211 0.51296 0.83699 0.0
Co164 Co 0.00051 0.50552 0.76321 0.0
C165 C 0.00283 0.59042 0.90407 0.0
C166 C 0.00438 0.61292 0.78916 0.0
N167 N 0.00193 0.58592 0.831 0.0
N168 N 0.00599 0.61893 0.9091 0.0
C169 C 0.00712 0.63318 0.83706 0.0
H170 H 0.00206 0.57308 0.95293 0.0
H171 H 0.00452 0.61762 0.72772 0.0
C172 C 0.94866 0.54263 0.72321 0.0
N173 N 0.99848 0.46965 0.72829 0.0
C174 C 0.01392 0.4592 0.67213 0.0
C175 C 0.97699 0.45069 0.74616 0.0
N176 N 0.00249 0.43488 0.65362 0.0
C177 C 0.97943 0.42938 0.7007 0.0
C178 C 0.97627 0.50686 0.90332 0.0
O179 O 0.962 0.56192 0.75118 0.0
O180 O 0.96158 0.51726 0.72274 0.0
O181 O 0.98349 0.48961 0.85689 0.0
O182 O 0.98177 0.53385 0.88723 0.0
O183 O 0.03954 0.49413 0.80515 0.0
H184 H 0.95958 0.45304 0.78683 0.0
H185 H 0.03204 0.47015 0.64224 0.0
O186 O 0.03834 0.53778 0.84012 0.0
O187 O 0.01892 0.56539 0.70452 0.0
O188 O 0.01747 0.52203 0.6701 0.0
C189 C 0.02457 0.54858 0.65605 0.0
H190 H 0.00953 0.65659 0.82041 0.0
H191 H 0.96479 0.41165 0.70092 0.0
H192 H 0.17416 0.99968 0.45571 0.0
H193 H 0.18404 0.09345 0.39352 0.0
H194 H 0.13705 0.10399 0.45971 0.0
H195 H 0.09137 1.00449 0.43587 0.0
H196 H 0.08786 0.97505 0.51503 0.0
H197 H 0.1206 0.97543 0.45694 0.0
H198 H 0.15387 0.97255 0.57727 0.0
H199 H 0.12129 0.97254 0.63556 0.0
H200 H 0.1478 1.00007 0.6376 0.0
H201 H 0.09307 0.10356 0.54885 0.0
H202 H 0.052 0.09247 0.63949 0.0
H203 H 0.06893 0.9991 0.6343 0.0
C204 C 0.16593 0.0224 0.45458 0.0
C205 C 0.18239 0.04582 0.41949 0.0
C206 C 0.17139 0.07531 0.41951 0.0
C207 C 0.14487 0.08144 0.4572 0.0
C208 C 0.12949 0.05778 0.49316 0.0
C209 C 0.13929 0.02885 0.49057 0.0
C210 C 0.11921 0.00738 0.53525 0.0
C211 C 0.10385 0.98954 0.48262 0.0
C212 C 0.13659 0.98695 0.60026 0.0
C213 C 0.09709 0.02864 0.56552 0.0
C214 C 0.10344 0.05763 0.54107 0.0
C215 C 0.08752 0.08099 0.56698 0.0
C216 C 0.06443 0.07452 0.61874 0.0
C217 C 0.05727 0.04501 0.64289 0.0
C218 C 0.07366 0.02189 0.6154 0.0
H219 H 0.52909 0.21258 0.44973 0.0
H220 H 0.4372 0.24658 0.45797 0.0
H221 H 0.42403 0.1984 0.52965 0.0
H222 H 0.51266 0.13626 0.42877 0.0
H223 H 0.54412 0.11989 0.48757 0.0
H224 H 0.54563 0.15624 0.43218 0.0
H225 H 0.55817 0.17671 0.55435 0.0
H226 H 0.55635 0.14054 0.6102 0.0
H227 H 0.53343 0.17123 0.63405 0.0
H228 H 0.42229 0.1485 0.61358 0.0
H229 H 0.43081 0.0987 0.691 0.0
H230 H 0.52312 0.09547 0.62143 0.0
C231 C 0.50607 0.20946 0.46481 0.0
C232 C 0.48395 0.23299 0.44725 0.0
C233 C 0.45423 0.22856 0.46969 0.0
C234 C 0.44665 0.20136 0.51078 0.0
C235 C 0.46903 0.17868 0.52854 0.0
C236 C 0.49805 0.18225 0.50511 0.0
C237 C 0.518 0.15459 0.53345 0.0
C238 C 0.53086 0.14093 0.46649 0.0
C239 C 0.54296 0.16117 0.58613 0.0
C240 C 0.4958 0.1351 0.57733 0.0
C241 C 0.46773 0.14953 0.57442 0.0
C242 C 0.44405 0.13681 0.61506 0.0
C243 C 0.44911 0.10859 0.65921 0.0
C244 C 0.47748 0.0931 0.6615 0.0
C245 C 0.50103 0.10657 0.61958 0.0
H246 H 0.26147 0.5624 0.38105 0.0
H247 H 0.2829 0.48121 0.29324 0.0
H248 H 0.32968 0.47336 0.36963 0.0
H249 H 0.33773 0.58418 0.40457 0.0
H250 H 0.32884 0.59679 0.49273 0.0
H251 H 0.30046 0.5988 0.42008 0.0
H252 H 0.26684 0.56856 0.51717 0.0
H253 H 0.29513 0.56623 0.58985 0.0
H254 H 0.281 0.533 0.56711 0.0
H255 H 0.37222 0.4724 0.46574 0.0
H256 H 0.40453 0.47717 0.57564 0.0
H257 H 0.35109 0.55559 0.6091 0.0
C258 C 0.276 0.54301 0.37712 0.0
C259 C 0.26828 0.52235 0.33117 0.0
C260 C 0.28839 0.49761 0.32704 0.0
C261 C 0.31498 0.49289 0.37063 0.0
C262 C 0.32106 0.51304 0.41812 0.0
C263 C 0.30203 0.53761 0.42145 0.0
C264 C 0.31156 0.55427 0.4827 0.0
C265 C 0.32016 0.58535 0.44792 0.0
C266 C 0.28718 0.55557 0.54273 0.0
C267 C 0.33855 0.53486 0.515 0.0
C268 C 0.34421 0.51157 0.47594 0.0
C269 C 0.36799 0.49061 0.49639 0.0
C270 C 0.38618 0.49345 0.55865 0.0
C271 C 0.37998 0.5166 0.60063 0.0
C272 C 0.35602 0.53759 0.57808 0.0
H273 H 0.97561 0.32274 0.37827 0.0
H274 H 0.07135 0.3115 0.35597 0.0
H275 H 0.07714 0.35566 0.41591 0.0
H276 H 0.96893 0.40648 0.36104 0.0
H277 H 0.94043 0.40416 0.43221 0.0
H278 H 0.94371 0.37735 0.36922 0.0
H279 H 0.94784 0.33545 0.48609 0.0
H280 H 0.94531 0.36194 0.5494 0.0
H281 H 0.97682 0.33521 0.55639 0.0
H282 H 0.0726 0.39519 0.50099 0.0
H283 H 0.0582 0.42586 0.59871 0.0
H284 H 0.96566 0.40887 0.56886 0.0
C285 C 0.99769 0.33043 0.3829 0.0
C286 C 0.02302 0.31397 0.36188 0.0
C287 C 0.05163 0.32418 0.37026 0.0
C288 C 0.05509 0.34914 0.40476 0.0
C289 C 0.02967 0.36372 0.42971 0.0
C290 C 0.00144 0.35492 0.41789 0.0
C291 C 0.97802 0.37121 0.45894 0.0
C292 C 0.95651 0.39098 0.40194 0.0
C293 C 0.96103 0.34966 0.51607 0.0
C294 C 0.99751 0.38944 0.4991 0.0
C295 C 0.02716 0.3855 0.48037 0.0
C296 C 0.04937 0.39877 0.51489 0.0
C297 C 0.04104 0.41611 0.5704 0.0
C298 C 0.01086 0.4195 0.5919 0.0
C299 C 0.98894 0.40643 0.55433 0.0
H300 H 0.78723 0.98554 0.04131 0.0
H301 H 0.81782 0.00652 0.25589 0.0
H302 H 0.86946 1.00565 0.20991 0.0
H303 H 0.85442 0.93843 0.00435 0.0
H304 H 0.85283 0.95255 0.90379 0.0
H305 H 0.81896 0.95019 0.95764 0.0
H306 H 0.80559 0.0059 0.91102 0.0
H307 H 0.83939 0.00846 0.85738 0.0
H308 H 0.83183 0.03228 0.92661 0.0
H309 H 0.91622 0.00933 0.13558 0.0
H310 H 0.95533 0.01608 0.03903 0.0
H311 H 0.89489 0.99319 0.87124 0.0
C312 C 0.80482 0.98955 0.07911 0.0
C313 C 0.79838 0.99601 0.15248 0.0
C314 C 0.82214 1.00099 0.2001 0.0
C315 C 0.85158 1.00068 0.17432 0.0
C316 C 0.85698 0.99513 0.10096 0.0
C317 C 0.83432 0.9894 0.05419 0.0
C318 C 0.84576 0.98645 0.9757 0.0
C319 C 0.84282 0.95503 0.95944 0.0
C320 C 0.82969 0.00966 0.91408 0.0
C321 C 0.87817 0.99254 0.98477 0.0
C322 C 0.8842 0.99715 0.0578 0.0
C323 C 0.91191 1.0053 0.07861 0.0
C324 C 0.93393 0.00923 0.0232 0.0
C325 C 0.92818 1.00504 0.94771 0.0
C326 C 0.90008 0.99602 0.92879 0.0
H327 H 0.46845 0.81808 0.18165 0.0
H328 H 0.53916 0.77103 0.07629 0.0
H329 H 0.54967 0.81714 0.99165 0.0
H330 H 0.44104 0.86346 0.01261 0.0
H331 H 0.43268 0.89608 0.05421 0.0
H332 H 0.43228 0.86013 0.1121 0.0
H333 H 0.4705 0.87484 0.20551 0.0
H334 H 0.47088 0.91094 0.14809 0.0
H335 H 0.50526 0.88855 0.16988 0.0
H336 H 0.55008 0.86681 0.91144 0.0
H337 H 0.5415 0.91771 0.84264 0.0
H338 H 0.47074 0.93425 0.99836 0.0
C339 C 0.48657 0.81775 0.14189 0.0
C340 C 0.50308 0.79095 0.13569 0.0
C341 C 0.52621 0.79124 0.0819 0.0
C342 C 0.53239 0.81736 0.03365 0.0
C343 C 0.51529 0.84321 0.03967 0.0
C344 C 0.49297 0.84378 0.09266 0.0
C345 C 0.47703 0.87442 0.0841 0.0
C346 C 0.44379 0.87345 0.06459 0.0
C347 C 0.48117 0.88799 0.15619 0.0
C348 C 0.49358 0.89073 0.01739 0.0
C349 C 0.51561 0.87223 0.99304 0.0
C350 C 0.5331 0.88161 0.93048 0.0
C351 C 0.52796 0.9106 0.89153 0.0
C352 C 0.50554 0.93016 0.91502 0.0
C353 C 0.48829 0.92002 0.97939 0.0
H354 H 0.74829 0.54907 0.12816 0.0
H355 H 0.71288 0.50487 0.33917 0.0
H356 H 0.66522 0.5004 0.27248 0.0
H357 H 0.67721 0.58852 0.04899 0.0
H358 H 0.68677 0.58338 0.95381 0.0
H359 H 0.71574 0.58683 0.02124 0.0
H360 H 0.7414 0.53704 0.99825 0.0
H361 H 0.71235 0.53316 0.93182 0.0
H362 H 0.72063 0.50447 0.01245 0.0
H363 H 0.62392 0.49547 0.17741 0.0
H364 H 0.59222 0.49259 0.06565 0.0
H365 H 0.65577 0.54011 0.9185 0.0
C366 C 0.73023 0.53904 0.16069 0.0
C367 C 0.73412 0.52729 0.23867 0.0
C368 C 0.71013 0.51426 0.27952 0.0
C369 C 0.68311 0.51153 0.24198 0.0
C370 C 0.68048 0.52229 0.16404 0.0
C371 C 0.70334 0.53617 0.12427 0.0
C372 C 0.69607 0.54404 0.04021 0.0
C373 C 0.6938 0.57769 0.01457 0.0
C374 C 0.71897 0.52875 0.99295 0.0
C375 C 0.66593 0.53154 0.03807 0.0
C376 C 0.65706 0.51936 0.10995 0.0
C377 C 0.63049 0.50536 0.1211 0.0
C378 C 0.6126 0.50386 0.05723 0.0
C379 C 0.62145 0.51608 0.98302 0.0
C380 C 0.64842 0.53025 0.97404 0.0
H381 H 0.06488 0.72955 0.15878 0.0
H382 H 0.98419 0.71826 0.2907 0.0
H383 H 0.97315 0.6766 0.2268 0.0
H384 H 0.03086 0.72357 0.98949 0.0
H385 H 0.06265 0.70538 0.9511 0.0
H386 H 0.06809 0.72923 0.01936 0.0
H387 H 0.09849 0.68675 0.1065 0.0
H388 H 0.0933 0.66272 0.03817 0.0
H389 H 0.08228 0.65196 0.13536 0.0
H390 H 0.96816 0.63918 0.13757 0.0
H391 H 0.96802 0.61282 0.02688 0.0
H392 H 0.04776 0.65414 0.94331 0.0
C393 C 0.04494 0.7183 0.17514 0.0
C394 C 0.02542 0.72755 0.23009 0.0
C395 C -7e-05 0.71152 0.25009 0.0
C396 C 0.99334 0.68784 0.2136 0.0
C397 C 0.0123 0.68048 0.15683 0.0
C398 C 0.03757 0.69538 0.13769 0.0
C399 C 0.05223 0.68618 0.0682 0.0
C400 C 0.05351 0.71266 0.00323 0.0
C401 C 0.08342 0.671 0.08829 0.0
C402 C 0.03076 0.66444 0.04951 0.0
C403 C 0.00835 0.66069 0.10252 0.0
C404 C 0.98569 0.64191 0.09608 0.0
C405 C 0.98575 0.62704 0.03332 0.0
C406 C 0.00778 0.63173 0.97698 0.0
C407 C 0.03067 0.65039 0.98577 0.0
H408 H 0.96827 0.1887 0.38412 0.0
H409 H 0.00481 0.23469 0.55329 0.0
H410 H 0.98696 0.1974 0.65491 0.0
H411 H 0.90415 0.15681 0.49761 0.0
H412 H 0.91005 0.1224 0.46257 0.0
H413 H 0.91843 0.15649 0.40342 0.0
H414 H 0.97244 0.13501 0.38704 0.0
H415 H 0.96417 0.10099 0.44566 0.0
H416 H 0.99506 0.12071 0.47043 0.0
H417 H 0.97472 0.15124 0.73632 0.0
H418 H 0.97049 0.09893 0.79087 0.0
H419 H 0.94372 0.08122 0.57011 0.0
C420 C 0.97203 0.19129 0.44253 0.0
C421 C 0.98783 0.21482 0.46043 0.0
C422 C 0.99219 0.21734 0.53775 0.0
C423 C 0.98216 0.19618 0.59607 0.0
C424 C 0.96776 0.17264 0.57631 0.0
C425 C 0.96264 0.17009 0.50133 0.0
C426 C 0.95105 0.14049 0.49486 0.0
C427 C 0.91901 0.14429 0.46272 0.0
C428 C 0.97193 0.1233 0.44671 0.0
C429 C 0.95193 0.12619 0.57767 0.0
C430 C 0.96093 0.1454 0.62386 0.0
C431 C 0.96687 0.13624 0.70117 0.0
C432 C 0.96448 0.10649 0.73161 0.0
C433 C 0.95642 0.0863 0.68465 0.0
C434 C 0.94906 0.09646 0.60746 0.0
H435 H 0.32236 0.03326 0.40927 0.0
H436 H 0.26215 0.98109 0.55757 0.0
H437 H 0.30354 0.96568 0.65038 0.0
H438 H 0.38698 0.97955 0.44589 0.0
H439 H 0.41267 0.00823 0.43943 0.0
H440 H 0.37837 0.01444 0.3847 0.0
H441 H 0.36449 0.06106 0.44403 0.0
H442 H 0.3986 0.05509 0.49902 0.0
H443 H 0.36338 0.05807 0.54606 0.0
H444 H 0.35056 0.96086 0.73236 0.0
H445 H 0.39969 0.96456 0.79241 0.0
H446 H 0.4297 0.01401 0.58152 0.0
C447 C 0.31775 0.01776 0.45976 0.0
C448 C 0.28876 0.00823 0.47522 0.0
C449 C 0.28395 0.98903 0.54431 0.0
C450 C 0.30742 0.9799 0.59711 0.0
C451 C 0.33566 0.98966 0.57928 0.0
C452 C 0.34091 0.00783 0.51165 0.0
C453 C 0.37296 0.01589 0.50605 0.0
C454 C 0.38867 1.00379 0.44011 0.0
C455 C 0.37495 0.04951 0.49838 0.0
C456 C 0.38495 0.99998 0.58214 0.0
C457 C 0.36308 0.98512 0.62397 0.0
C458 C 0.36806 0.97167 0.69938 0.0
C459 C 0.39593 0.97384 0.73296 0.0
C460 C 0.4185 0.98878 0.69054 0.0
C461 C 0.41312 1.00146 0.61394 0.0
H462 H 0.46943 0.35493 0.47569 0.0
H463 H 0.55816 0.31303 0.52371 0.0
H464 H 0.57082 0.35362 0.59152 0.0
H465 H 0.48969 0.428 0.43744 0.0
H466 H 0.45777 0.44351 0.48173 0.0
H467 H 0.45506 0.41024 0.44237 0.0
H468 H 0.43786 0.38279 0.57218 0.0
H469 H 0.4398 0.41624 0.61119 0.0
H470 H 0.46016 0.38279 0.65638 0.0
H471 H 0.57439 0.4009 0.64536 0.0
H472 H 0.56691 0.44751 0.69619 0.0
H473 H 0.47534 0.45781 0.61228 0.0
C474 C 0.49124 0.35401 0.50238 0.0
C475 C 0.51279 0.33089 0.49597 0.0
C476 C 0.54132 0.33043 0.52972 0.0
C477 C 0.54871 0.35347 0.56746 0.0
C478 C 0.52719 0.37654 0.57078 0.0
C479 C 0.49885 0.37666 0.54032 0.0
C480 C 0.47985 0.40406 0.55059 0.0
C481 C 0.47003 0.42254 0.47343 0.0
C482 C 0.45283 0.39598 0.60059 0.0
C483 C 0.50196 0.41956 0.59107 0.0
C484 C 0.5292 0.4035 0.60178 0.0
C485 C 0.5531 0.41356 0.63769 0.0
C486 C 0.54869 0.4402 0.66579 0.0
C487 C 0.52054 0.45635 0.65816 0.0
C488 C 0.49716 0.44609 0.6188 0.0
H489 H 0.13303 0.51229 0.33521 0.0
H490 H 0.17973 0.58849 0.36887 0.0
H491 H 0.1381 0.60426 0.4468 0.0
H492 H 0.05549 0.54734 0.33351 0.0
H493 H 0.04154 0.51418 0.3856 0.0
H494 H 0.07239 0.51174 0.32212 0.0
H495 H 0.10433 0.48071 0.43229 0.0
H496 H 0.07357 0.48292 0.49554 0.0
H497 H 0.10915 0.49516 0.51913 0.0
H498 H 0.09443 0.60861 0.53154 0.0
H499 H 0.0549 0.59874 0.62619 0.0
H500 H 0.03727 0.51911 0.53836 0.0
C501 C 0.13403 0.53273 0.35733 0.0
C502 C 0.15925 0.54944 0.34566 0.0
C503 C 0.16042 0.57553 0.37729 0.0
C504 C 0.13682 0.58475 0.42087 0.0
C505 C 0.11233 0.56758 0.43211 0.0
C506 C 0.11085 0.54203 0.4015 0.0
C507 C 0.08396 0.52558 0.42954 0.0
C508 C 0.06205 0.52467 0.36376 0.0
C509 C 0.09333 0.49426 0.47164 0.0
C510 C 0.07124 0.54521 0.48324 0.0
C511 C 0.08743 0.56972 0.48248 0.0
C512 C 0.08128 0.58977 0.53182 0.0
C513 C 0.05874 0.584 0.58529 0.0
C514 C 0.04305 0.55815 0.58957 0.0
C515 C 0.04872 0.53918 0.53602 0.0
H516 H 0.0273 0.82129 0.07949 0.0
H517 H 0.078 0.85181 0.25498 0.0
H518 H 0.08538 0.89814 0.16716 0.0
H519 H 0.07135 0.85725 0.91277 0.0
H520 H 0.03793 0.86536 0.85478 0.0
H521 H 0.04153 0.83271 0.92657 0.0
H522 H 0.99208 0.8494 0.98627 0.0
H523 H 0.98849 0.88201 0.91518 0.0
H524 H 0.98833 0.88527 0.01449 0.0
H525 H 0.07948 0.94419 0.06837 0.0
H526 H 0.06129 0.9851 0.96724 0.0
H527 H 0.01696 0.92289 0.85544 0.0
C528 C 0.04109 0.83708 0.09859 0.0
C529 C 0.05216 0.83281 0.17409 0.0
C530 C 0.06911 0.85466 0.19751 0.0
C531 C 0.07367 0.88093 0.14781 0.0
C532 C 0.06161 0.8848 0.07444 0.0
C533 C 0.04605 0.86321 0.04959 0.0
C534 C 0.03254 0.87384 0.97127 0.0
C535 C 0.0467 0.85624 0.9129 0.0
C536 C 0.99836 0.87257 0.97194 0.0
C537 C 0.04155 0.90528 0.95764 0.0
C538 C 0.05869 0.91116 0.01705 0.0
C539 C 0.06665 0.93967 0.02071 0.0
C540 C 0.05608 0.96282 0.96329 0.0
C541 C 0.03759 0.95725 0.9036 0.0
C542 C 0.03134 0.92792 0.89963 0.0
H543 H 0.70119 1.004 0.01317 0.0
H544 H 0.67616 0.06709 0.16077 0.0
H545 H 0.62952 0.08159 0.08659 0.0
H546 H 0.66407 0.0481 0.83187 0.0
H547 H 0.6529 0.01472 0.80299 0.0
H548 H 0.68716 0.01424 0.85622 0.0
H549 H 0.66917 0.97203 0.95675 0.0
H550 H 0.63477 0.97268 0.90482 0.0
H551 H 0.63412 0.9774 0.00311 0.0
H552 H 0.58193 0.08134 0.01626 0.0
H553 H 0.53806 0.06949 0.94624 0.0
H554 H 0.59411 0.00781 0.84064 0.0
C555 C 0.68653 0.02187 0.02735 0.0
C556 C 0.69223 0.03461 0.09212 0.0
C557 C 0.67212 0.05719 0.11102 0.0
C558 C 0.64565 0.0656 0.06913 0.0
C559 C 0.63984 0.0515 0.00794 0.0
C560 C 0.65996 0.03052 0.98598 0.0
C561 C 0.6468 0.01626 0.92398 0.0
C562 C 0.66374 0.02379 0.84933 0.0
C563 C 0.64617 0.98262 0.94871 0.0
C564 C 0.61566 0.03128 0.91773 0.0
C565 C 0.61222 0.0518 0.96594 0.0
C566 C 0.58454 0.066 0.97658 0.0
C567 C 0.55972 0.05897 0.93709 0.0
C568 C 0.56282 0.03802 0.88752 0.0
C569 C 0.59125 0.02444 0.87685 0.0
H570 H 0.458 0.70096 0.04421 0.0
H571 H 0.51709 0.66005 0.23115 0.0
H572 H 0.51779 0.61301 0.18456 0.0
H573 H 0.41581 0.63727 0.03181 0.0
H574 H 0.41445 0.64298 0.92936 0.0
H575 H 0.41662 0.67403 0.97824 0.0
H576 H 0.46408 0.68921 0.90382 0.0
H577 H 0.46167 0.65856 0.85378 0.0
H578 H 0.49541 0.66253 0.90491 0.0
H579 H 0.51293 0.57093 0.1223 0.0
H580 H 0.50953 0.53639 0.03198 0.0
H581 H 0.45553 0.60258 0.87873 0.0
C582 C 0.4711 0.68206 0.07485 0.0
C583 C 0.48666 0.68392 0.14281 0.0
C584 C 0.50411 0.6589 0.18056 0.0
C585 C 0.50468 0.63202 0.15463 0.0
C586 C 0.4882 0.63048 0.08974 0.0
C587 C 0.47231 0.65479 0.04891 0.0
C588 C 0.45853 0.64691 0.97758 0.0
C589 C 0.42431 0.65052 0.97939 0.0
C590 C 0.47065 0.6654 0.90577 0.0
C591 C 0.46951 0.61457 0.98506 0.0
C592 C 0.48612 0.60568 0.05121 0.0
C593 C 0.49987 0.57745 0.07041 0.0
C594 C 0.49771 0.55798 0.01903 0.0
C595 C 0.482 0.56682 0.94932 0.0
C596 C 0.46697 0.59516 0.93276 0.0
H597 H 0.86826 0.54145 0.22603 0.0
H598 H 0.82381 0.46316 0.19868 0.0
H599 H 0.86523 0.44833 0.11884 0.0
H600 H 0.89047 0.55845 0.04142 0.0
H601 H 0.92574 0.57192 0.06274 0.0
H602 H 0.89536 0.57349 0.12736 0.0
H603 H 0.92864 0.54379 0.23676 0.0
H604 H 0.95915 0.54208 0.17196 0.0
H605 H 0.94653 0.50857 0.22561 0.0
H606 H 0.90842 0.44513 0.0312 0.0
H607 H 0.94725 0.45588 0.93488 0.0
H608 H 0.9629 0.53653 0.02 0.0
C609 C 0.8677 0.52074 0.20508 0.0
C610 C 0.84312 0.50324 0.21895 0.0
C611 C 0.84256 0.4768 0.18854 0.0
C612 C 0.86608 0.4681 0.14389 0.0
C613 C 0.88991 0.48606 0.13057 0.0
C614 C 0.89082 0.51188 0.16023 0.0
C615 C 0.91699 0.52909 0.13049 0.0
C616 C 0.90649 0.56004 0.08796 0.0
C617 C 0.93914 0.53098 0.19507 0.0
C618 C 0.92996 0.50957 0.07691 0.0
C619 C 0.91452 0.4845 0.07903 0.0
C620 C 0.921 0.46442 0.02993 0.0
C621 C 0.94314 0.47067 0.97552 0.0
C622 C 0.95808 0.49702 0.97013 0.0
C623 C 0.95203 0.51609 0.02322 0.0
H624 H 0.06436 0.19011 0.28716 0.0
H625 H 0.02076 0.26233 0.12973 0.0
H626 H 0.027 0.23286 0.02609 0.0
H627 H 0.1157 0.15887 0.14599 0.0
H628 H 0.11017 0.12172 0.19179 0.0
H629 H 0.10968 0.15114 0.24703 0.0
H630 H 0.05762 0.1375 0.29716 0.0
H631 H 0.05754 0.10853 0.24121 0.0
H632 H 0.02755 0.13701 0.23031 0.0
H633 H 0.02817 0.19201 0.94806 0.0
H634 H 0.02586 0.14514 0.90108 0.0
H635 H 0.06832 0.09877 0.11045 0.0
C636 C 0.05731 0.20017 0.23004 0.0
C637 C 0.04227 0.22858 0.21619 0.0
C638 C 0.03284 0.24086 0.14121 0.0
C639 C 0.03614 0.22415 0.08217 0.0
C640 C 0.04923 0.19537 0.09901 0.0
C641 C 0.06016 0.18368 0.17104 0.0
C642 C 0.06945 0.15107 0.1776 0.0
C643 C 0.10326 0.14537 0.19139 0.0
C644 C 0.05198 0.13246 0.24022 0.0
C645 C 0.06063 0.14581 0.09923 0.0
C646 C 0.04954 0.17169 0.05426 0.0
C647 C 0.03749 0.17176 0.98218 0.0
C648 C 0.0363 0.14476 0.95589 0.0
C649 C 0.04687 0.11774 1.00172 0.0
C650 C 0.05989 0.11871 0.07362 0.0
H651 H 0.29002 0.08136 0.25564 0.0
H652 H 0.23465 0.02413 0.15679 0.0
H653 H 0.2671 0.02794 0.04405 0.0
H654 H 0.31894 0.12567 0.0705 0.0
H655 H 0.35531 0.12459 0.1142 0.0
H656 H 0.3223 0.12636 0.17092 0.0
H657 H 0.3432 0.07958 0.26184 0.0
H658 H 0.37572 0.07697 0.20482 0.0
H659 H 0.35257 0.04621 0.22422 0.0
H660 H 0.31187 0.02784 0.96 0.0
H661 H 0.36345 0.0239 0.91339 0.0
H662 H 0.3913 0.07835 0.07303 0.0
C663 C 0.28373 0.07129 0.20773 0.0
C664 C 0.25956 0.05311 0.21342 0.0
C665 C 0.25257 0.03888 0.15203 0.0
C666 C 0.27107 0.0408 0.08817 0.0
C667 C 0.29632 0.05701 0.08709 0.0
C668 C 0.3024 0.07237 0.14514 0.0
C669 C 0.33357 0.08306 0.13948 0.0
C670 C 0.33245 0.11694 0.12274 0.0
C671 C 0.35233 0.0707 0.21181 0.0
C672 C 0.3448 0.06993 0.07187 0.0
C673 C 0.32281 0.05574 0.04088 0.0
C674 C 0.32898 0.03956 0.98258 0.0
C675 C 0.35836 0.03743 0.95639 0.0
C676 C 0.38134 0.05091 0.98955 0.0
C677 C 0.37415 0.06792 0.04659 0.0
H678 H 0.5368 0.33616 0.22732 0.0
H679 H 0.44628 0.30992 0.22009 0.0
H680 H 0.43624 0.34695 0.10333 0.0
H681 H 0.51943 0.41008 0.18484 0.0
H682 H 0.55156 0.41935 0.12788 0.0
H683 H 0.55366 0.38701 0.20027 0.0
H684 H 0.56996 0.35419 0.10106 0.0
H685 H 0.56864 0.38655 0.02839 0.0
H686 H 0.54759 0.35567 0.01624 0.0
H687 H 0.43411 0.39254 0.99981 0.0
H688 H 0.44115 0.43914 0.91252 0.0
H689 H 0.53306 0.43599 0.99052 0.0
C690 C 0.51524 0.33738 0.19924 0.0
C691 C 0.4924 0.3199 0.23208 0.0
C692 C 0.46425 0.32258 0.19493 0.0
C693 C 0.45831 0.3438 0.12905 0.0
C694 C 0.48086 0.36193 0.10082 0.0
C695 C 0.50897 0.35849 0.13409 0.0
C696 C 0.52856 0.38233 0.09767 0.0
C697 C 0.53889 0.40077 0.15615 0.0
C698 C 0.55527 0.36888 0.05849 0.0
C699 C 0.50691 0.40033 0.04003 0.0
C700 C 0.47956 0.38816 0.04221 0.0
C701 C 0.45559 0.40192 0.99692 0.0
C702 C 0.45977 0.42854 0.94779 0.0
C703 C 0.48769 0.4413 0.94433 0.0
C704 C 0.51149 0.4268 0.99121 0.0
H705 H 0.18453 0.55747 0.06748 0.0
H706 H 0.20322 0.46479 0.15533 0.0
H707 H 0.17247 0.45196 0.0517 0.0
H708 H 0.11328 0.55391 0.04549 0.0
H709 H 0.10715 0.58079 0.96013 0.0
H710 H 0.13835 0.58289 0.02132 0.0
H711 H 0.17493 0.58065 0.91027 0.0
H712 H 0.14369 0.5794 0.84747 0.0
H713 H 0.17387 0.55117 0.85558 0.0
H714 H 0.13004 0.44993 0.95952 0.0
H715 H 0.08216 0.45893 0.88707 0.0
H716 H 0.08998 0.55321 0.86537 0.0
C717 C 0.18368 0.53452 0.0615 0.0
C718 C 0.19674 0.51207 0.11758 0.0
C719 C 0.19411 0.48219 0.11118 0.0
C720 C 0.17647 0.47479 0.05281 0.0
C721 C 0.16188 0.49758 1.00143 0.0
C722 C 0.16583 0.52693 0.00455 0.0
C723 C 0.14386 0.54737 0.95294 0.0
C724 C 0.12454 0.56737 0.99768 0.0
C725 C 0.16006 0.56573 0.88767 0.0
C726 C 0.12567 0.52506 0.92401 0.0
C727 C 0.13675 0.49645 0.95062 0.0
C728 C 0.12165 0.47226 0.93687 0.0
C729 C 0.09444 0.47753 0.89594 0.0
C730 C 0.08239 0.50675 0.87093 0.0
C731 C 0.09868 0.53062 0.88369 0.0
H732 H 0.97038 0.81923 0.36848 0.0
H733 H 0.04883 0.7779 0.49371 0.0
H734 H 0.03591 0.80502 0.59935 0.0
H735 H 0.97931 0.88632 0.39998 0.0
H736 H 0.9407 0.8985 0.40859 0.0
H737 H 0.9504 0.86963 0.3552 0.0
H738 H 0.91631 0.8347 0.43872 0.0
H739 H 0.90595 0.86374 0.49197 0.0
H740 H 0.92102 0.82832 0.54068 0.0
H741 H 0.02089 0.845 0.6758 0.0
H742 H 0.00558 0.89289 0.71421 0.0
H743 H 0.93684 0.90832 0.53852 0.0
C744 C 0.98371 0.8146 0.42036 0.0
C745 C 0.00999 0.79585 0.42454 0.0
C746 C 0.02805 0.79141 0.49099 0.0
C747 C 0.02091 0.80688 0.55094 0.0
C748 C 0.99558 0.82656 0.54344 0.0
C749 C 0.97696 0.83004 0.48006 0.0
C750 C 0.95406 0.85577 0.47914 0.0
C751 C 0.95629 0.8789 0.40648 0.0
C752 C 0.92246 0.84498 0.4882 0.0
C753 C 0.96379 0.86745 0.54906 0.0
C754 C 0.98727 0.84997 0.58667 0.0
C755 C 0.002 0.85837 0.64792 0.0
C756 C 0.9931 0.88563 0.66959 0.0
C757 C 0.96997 0.90439 0.62935 0.0
C758 C 0.95454 0.89445 0.57041 0.0
H759 H 0.70594 0.03163 0.37293 0.0
H760 H 0.72682 0.94063 0.3493 0.0
H761 H 0.6936 0.92447 0.45632 0.0
H762 H 0.69191 0.01773 0.59026 0.0
H763 H 0.66182 0.04611 0.57711 0.0
H764 H 0.69399 0.04957 0.51692 0.0
H765 H 0.65923 0.05603 0.39838 0.0
H766 H 0.62713 0.05195 0.45755 0.0
H767 H 0.63422 0.02782 0.38884 0.0
H768 H 0.64848 0.91959 0.53806 0.0
H769 H 0.59863 0.92637 0.59486 0.0
H770 H 0.60721 0.0203 0.56692 0.0
C771 C 0.70481 0.00825 0.39362 0.0
C772 C 0.7192 0.98728 0.35427 0.0
C773 C 0.71651 0.9569 0.38023 0.0
C774 C 0.69754 0.9476 0.44068 0.0
C775 C 0.6819 0.969 0.47503 0.0
C776 C 0.68596 0.99875 0.45359 0.0
C777 C 0.66335 0.01765 0.49032 0.0
C778 C 0.67869 0.03371 0.54704 0.0
C779 C 0.64491 0.03961 0.43018 0.0
C780 C 0.64452 0.99412 0.53112 0.0
C781 C 0.65589 0.96612 0.52315 0.0
C782 C 0.64002 0.94126 0.54714 0.0
C783 C 0.6118 0.94522 0.57903 0.0
C784 C 0.5999 0.97371 0.5865 0.0
C785 C 0.61665 0.99828 0.56384 0.0
H786 H 0.44854 0.7029 0.40115 0.0
H787 H 0.53956 0.72776 0.37949 0.0
H788 H 0.55427 0.69025 0.49173 0.0
H789 H 0.44879 0.67742 0.61753 0.0
H790 H 0.42653 0.64737 0.60551 0.0
H791 H 0.42186 0.68188 0.5406 0.0
H792 H 0.43124 0.65349 0.42841 0.0
H793 H 0.4372 0.6191 0.49252 0.0
H794 H 0.46564 0.63119 0.42573 0.0
H795 H 0.56097 0.64247 0.58757 0.0
H796 H 0.55781 0.59311 0.66621 0.0
H797 H 0.46278 0.59784 0.61785 0.0
C798 C 0.47112 0.70179 0.42339 0.0
C799 C 0.49278 0.71867 0.38242 0.0
C800 C 0.52244 0.71573 0.41108 0.0
C801 C 0.53106 0.69406 0.47423 0.0
C802 C 0.5097 0.67569 0.50852 0.0
C803 C 0.48012 0.67985 0.48506 0.0
C804 C 0.46231 0.65477 0.523 0.0
C805 C 0.43846 0.66603 0.57476 0.0
C806 C 0.4483 0.63871 0.46388 0.0
C807 C 0.4866 0.63524 0.56913 0.0
C808 C 0.51373 0.64778 0.56115 0.0
C809 C 0.53969 0.63279 0.59519 0.0
C810 C 0.53774 0.60461 0.6393 0.0
C811 C 0.51009 0.59142 0.64824 0.0
C812 C 0.48431 0.60716 0.6124 0.0
H813 H 0.83619 0.57792 0.38444 0.0
H814 H 0.78146 0.51432 0.51342 0.0
H815 H 0.80874 0.5188 0.63106 0.0
H816 H 0.89942 0.54919 0.45792 0.0
H817 H 0.91827 0.58227 0.46143 0.0
H818 H 0.88849 0.58289 0.39403 0.0
H819 H 0.85987 0.62566 0.44661 0.0
H820 H 0.89002 0.62579 0.51352 0.0
H821 H 0.85245 0.62198 0.54688 0.0
H822 H 0.85051 0.5181 0.72216 0.0
H823 H 0.90046 0.51581 0.78226 0.0
H824 H 0.92878 0.58034 0.59638 0.0
C825 C 0.82885 0.5664 0.43844 0.0
C826 C 0.80656 0.54612 0.4406 0.0
C827 C 0.79802 0.53045 0.5112 0.0
C828 C 0.81357 0.53279 0.57813 0.0
C829 C 0.83721 0.55119 0.57324 0.0
C830 C 0.84435 0.56835 0.50527 0.0
C831 C 0.87371 0.58223 0.5117 0.0
C832 C 0.89627 0.5736 0.45285 0.0
C833 C 0.8687 0.61592 0.50426 0.0
C834 C 0.8832 0.56839 0.59189 0.0
C835 C 0.86153 0.55107 0.62707 0.0
C836 C 0.86707 0.5325 0.69656 0.0
C837 C 0.89548 0.53121 0.73014 0.0
C838 C 0.91785 0.54853 0.69453 0.0
C839 C 0.91147 0.56787 0.62575 0.0
loop_
_geom_bond_atom_site_label_1
_geom_bond_atom_site_label_2
_geom_bond_distance
_geom_bond_site_symmetry_2
_ccdc_geom_bond_type
H0 C3 0.931 . S
H1 C6 0.928 . S
H2 C8 0.930 . S
C3 H0 0.931 . S
C3 C4 1.413 . S
C3 C5 1.360 . S
C4 C3 1.413 . S
C4 C8 1.429 . S
C5 C3 1.360 . S
C5 C6 1.372 . S
C6 H1 0.928 . S
C6 C5 1.372 . S
C6 C7 1.404 . S
C7 C6 1.404 . S
C7 C8 1.391 . S
C8 H2 0.930 . S
C8 C4 1.429 . S
C8 C7 1.391 . S
H9 C12 0.931 . S
H10 C15 0.915 1_556 S
H11 C17 0.931 . S
C12 H9 0.931 . S
C12 C13 1.414 . S
C12 C14 1.360 . S
C13 C12 1.414 . S
C13 C17 1.430 1_655 S
C14 C12 1.360 . S
C14 C15 1.374 . S
C15 H10 0.915 1_554 S
C15 C14 1.374 . S
C15 C16 1.403 . S
C16 C15 1.403 . S
C16 C17 1.390 1_655 S
C17 H11 0.931 . S
C17 C13 1.430 1_455 S
C17 C16 1.390 1_455 S
H18 C21 0.931 . S
H19 C24 0.928 1_556 S
H20 C26 0.930 . S
C21 H18 0.931 . S
C21 C22 1.413 . S
C21 C23 1.360 . S
C22 C21 1.413 . S
C22 C26 1.429 . S
C23 C21 1.360 . S
C23 C24 1.372 . S
C24 H19 0.928 1_554 S
C24 C23 1.372 . S
C24 C25 1.404 . S
C25 C24 1.404 . S
C25 C26 1.391 . S
C26 H20 0.930 . S
C26 C22 1.429 . S
C26 C25 1.391 . S
H27 C30 0.931 . S
H28 C33 0.928 . S
H29 C35 0.930 . S
C30 H27 0.931 . S
C30 C31 1.413 . S
C30 C32 1.360 . S
C31 C30 1.413 . S
C31 C35 1.429 . S
C32 C30 1.360 . S
C32 C33 1.372 . S
C33 H28 0.928 . S
C33 C32 1.372 . S
C33 C34 1.404 . S
C34 C33 1.404 . S
C34 C35 1.391 . S
C35 H29 0.930 . S
C35 C31 1.429 . S
C35 C34 1.391 . S
H36 C39 0.931 . S
H37 C42 0.928 . S
H38 C44 0.930 . S
C39 H36 0.931 . S
C39 C40 1.413 . S
C39 C41 1.360 . S
C40 C39 1.413 . S
C40 C44 1.429 . S
C41 C39 1.360 . S
C41 C42 1.372 . S
C42 H37 0.928 . S
C42 C41 1.372 . S
C42 C43 1.404 . S
C43 C42 1.404 . S
C43 C44 1.391 . S
C44 H38 0.930 . S
C44 C40 1.429 . S
C44 C43 1.391 . S
H45 C48 0.930 . S
H46 C51 0.928 . S
H47 C53 0.928 . S
C48 H45 0.930 . S
C48 C49 1.413 . S
C48 C50 1.360 . S
C49 C48 1.413 . S
C49 C53 1.428 1_655 S
C50 C48 1.360 . S
C50 C51 1.371 . S
C51 H46 0.928 . S
C51 C50 1.371 . S
C51 C52 1.404 . S
C52 C51 1.404 . S
C52 C53 1.391 1_655 S
C53 H47 0.928 . S
C53 C49 1.428 1_455 S
C53 C52 1.391 1_455 S
H54 C57 0.931 . S
H55 C60 0.928 . S
H56 C62 0.930 . S
C57 H54 0.931 . S
C57 C58 1.413 . S
C57 C59 1.360 . S
C58 C57 1.413 . S
C58 C62 1.429 . S
C59 C57 1.360 . S
C59 C60 1.372 . S
C60 H55 0.928 . S
C60 C59 1.372 . S
C60 C61 1.404 . S
C61 C60 1.404 . S
C61 C62 1.391 . S
C62 H56 0.930 . S
C62 C58 1.429 . S
C62 C61 1.391 . S
H63 C66 0.931 . S
H64 C69 0.928 . S
H65 C71 0.930 . S
C66 H63 0.931 . S
C66 C67 1.413 . S
C66 C68 1.360 . S
C67 C66 1.413 . S
C67 C71 1.429 . S
C68 C66 1.360 . S
C68 C69 1.372 . S
C69 H64 0.928 . S
C69 C68 1.372 . S
C69 C70 1.404 . S
C70 C69 1.404 . S
C70 C71 1.391 . S
C71 H65 0.930 . S
C71 C67 1.429 . S
C71 C70 1.391 . S
Co72 N77 2.057 . S
Co72 O89 2.021 . S
Co72 O92 2.062 1_455 S
Co72 O96 2.117 1_455 S
Co72 O97 2.020 1_545 S
C73 O93 1.259 1_545 S
C73 O96 1.258 . S
Co74 N83 2.043 1_545 S
Co74 O90 2.124 1_655 S
Co74 O91 2.046 . S
Co74 O93 2.018 1_545 S
Co74 O98 2.042 1_645 S
C75 N77 1.316 . S
C75 N78 1.347 1_556 S
C75 H80 0.931 . S
C76 N77 1.375 1_655 S
C76 C79 1.350 1_556 S
C76 H81 0.930 . S
N77 Co72 2.057 . S
N77 C75 1.316 . S
N77 C76 1.375 1_455 S
N78 C75 1.347 1_554 S
N78 C79 1.373 1_455 S
C79 C76 1.350 1_554 S
C79 N78 1.373 1_655 S
C79 H100 0.931 . S
H80 C75 0.931 . S
H81 C76 0.930 . S
C82 O89 1.259 . S
C82 O90 1.258 . S
N83 Co74 2.043 1_565 S
N83 C84 1.344 . S
N83 C85 1.342 1_655 S
C84 N83 1.344 . S
C84 N86 1.347 . S
C84 H95 0.931 . S
C85 N83 1.342 1_455 S
C85 C87 1.350 . S
C85 H94 0.930 . S
N86 C84 1.347 . S
N86 C87 1.373 1_655 S
C87 C85 1.350 . S
C87 N86 1.373 1_455 S
C87 H101 0.931 . S
C88 O91 1.256 . S
C88 O92 1.255 . S
O89 Co72 2.021 . S
O89 C82 1.259 . S
O90 Co74 2.124 1_455 S
O90 C82 1.258 . S
O91 Co74 2.046 . S
O91 C88 1.256 . S
O92 Co72 2.062 1_655 S
O92 C88 1.255 . S
O93 C73 1.259 1_565 S
O93 Co74 2.018 1_565 S
H94 C85 0.930 . S
H95 C84 0.931 . S
O96 Co72 2.117 1_655 S
O96 C73 1.258 . S
O97 Co72 2.020 1_565 S
O97 C99 1.256 . S
O98 Co74 2.042 1_465 S
O98 C99 1.255 . S
C99 O97 1.256 . S
C99 O98 1.255 . S
H100 C79 0.931 . S
H101 C87 0.931 . S
Co102 N107 2.057 . S
Co102 O119 2.021 . S
Co102 O122 2.062 . S
Co102 O126 2.117 1_545 S
Co102 O127 2.020 . S
C103 O123 1.259 . S
C103 O126 1.258 . S
Co104 N113 2.057 . S
Co104 O120 2.117 . S
Co104 O121 2.020 . S
Co104 O123 2.021 1_545 S
Co104 O128 2.062 1_545 S
C105 N107 1.316 . S
C105 N108 1.347 1_556 S
C105 H110 0.931 . S
C106 N107 1.375 . S
C106 C109 1.350 1_556 S
C106 H111 0.930 1_545 S
N107 Co102 2.057 . S
N107 C105 1.316 . S
N107 C106 1.375 . S
N108 C105 1.347 1_554 S
N108 C109 1.373 . S
C109 C106 1.350 1_554 S
C109 N108 1.373 . S
C109 H130 0.931 . S
H110 C105 0.931 . S
H111 C106 0.930 1_565 S
C112 O119 1.259 . S
C112 O120 1.258 . S
N113 Co104 2.057 . S
N113 C114 1.316 1_545 S
N113 C115 1.375 . S
C114 N113 1.316 1_565 S
C114 N116 1.347 . S
C114 H125 0.931 . S
C115 N113 1.375 . S
C115 C117 1.350 . S
C115 H124 0.930 . S
N116 C114 1.347 . S
N116 C117 1.373 1_565 S
C117 C115 1.350 . S
C117 N116 1.373 1_545 S
C117 H131 0.931 . S
C118 O121 1.256 . S
C118 O122 1.255 . S
O119 Co102 2.021 . S
O119 C112 1.259 . S
O120 Co104 2.117 . S
O120 C112 1.258 . S
O121 Co104 2.020 . S
O121 C118 1.256 . S
O122 Co102 2.062 . S
O122 C118 1.255 . S
O123 C103 1.259 . S
O123 Co104 2.021 1_565 S
H124 C115 0.930 . S
H125 C114 0.931 . S
O126 Co102 2.117 1_565 S
O126 C103 1.258 . S
O127 Co102 2.020 . S
O127 C129 1.256 . S
O128 Co104 2.062 1_565 S
O128 C129 1.255 1_565 S
C129 O127 1.256 . S
C129 O128 1.255 1_545 S
H130 C109 0.931 . S
H131 C117 0.931 . S
Co132 N137 2.057 . S
Co132 O149 2.021 . S
Co132 O152 2.062 . S
Co132 O156 2.117 . S
Co132 O157 2.020 . S
C133 O153 1.259 . S
C133 O156 1.258 . S
Co134 N143 2.057 . S
Co134 O150 2.117 . S
Co134 O151 2.020 . S
Co134 O153 2.021 . S
Co134 O158 2.062 . S
C135 N137 1.316 . S
C135 N138 1.347 . S
C135 H140 0.931 . S
C136 N137 1.375 . S
C136 C139 1.350 . S
C136 H141 0.930 . S
N137 Co132 2.057 . S
N137 C135 1.316 . S
N137 C136 1.375 . S
N138 C135 1.347 . S
N138 C139 1.373 . S
C139 C136 1.350 . S
C139 N138 1.373 . S
C139 H160 0.931 . S
H140 C135 0.931 . S
H141 C136 0.930 . S
C142 O149 1.259 . S
C142 O150 1.258 . S
N143 Co134 2.057 . S
N143 C144 1.316 . S
N143 C145 1.375 . S
C144 N143 1.316 . S
C144 N146 1.347 . S
C144 H155 0.931 . S
C145 N143 1.375 . S
C145 C147 1.350 . S
C145 H154 0.930 . S
N146 C144 1.347 . S
N146 C147 1.373 . S
C147 C145 1.350 . S
C147 N146 1.373 . S
C147 H161 0.931 . S
C148 O151 1.256 . S
C148 O152 1.255 . S
O149 Co132 2.021 . S
O149 C142 1.259 . S
O150 Co134 2.117 . S
O150 C142 1.258 . S
O151 Co134 2.020 . S
O151 C148 1.256 . S
O152 Co132 2.062 . S
O152 C148 1.255 . S
O153 C133 1.259 . S
O153 Co134 2.021 . S
H154 C145 0.930 . S
H155 C144 0.931 . S
O156 Co132 2.117 . S
O156 C133 1.258 . S
O157 Co132 2.020 . S
O157 C159 1.256 . S
O158 Co134 2.062 . S
O158 C159 1.255 . S
C159 O157 1.256 . S
C159 O158 1.255 . S
H160 C139 0.931 . S
H161 C147 0.931 . S
Co162 N167 2.057 . S
Co162 O179 2.021 1_455 S
Co162 O182 2.062 1_455 S
Co162 O186 2.117 . S
Co162 O187 2.020 . S
C163 O183 1.259 . S
C163 O186 1.258 . S
Co164 N173 2.057 . S
Co164 O180 2.117 . S
Co164 O181 2.020 . S
Co164 O183 2.021 1_655 S
Co164 O188 2.062 1_655 S
C165 N167 1.316 . S
C165 N168 1.347 . S
C165 H170 0.931 1_455 S
C166 N167 1.375 . S
C166 C169 1.350 . S
C166 H171 0.930 . S
N167 Co162 2.057 . S
N167 C165 1.316 . S
N167 C166 1.375 . S
N168 C165 1.347 . S
N168 C169 1.373 . S
C169 C166 1.350 . S
C169 N168 1.373 . S
C169 H190 0.931 . S
H170 C165 0.931 1_655 S
H171 C166 0.930 . S
C172 O179 1.259 . S
C172 O180 1.258 . S
N173 Co164 2.057 . S
N173 C174 1.316 . S
N173 C175 1.375 . S
C174 N173 1.316 . S
C174 N176 1.347 . S
C174 H185 0.931 1_655 S
C175 N173 1.375 . S
C175 C177 1.350 . S
C175 H184 0.930 . S
N176 C174 1.347 . S
N176 C177 1.373 . S
C177 C175 1.350 . S
C177 N176 1.373 . S
C177 H191 0.931 . S
C178 O181 1.256 . S
C178 O182 1.255 . S
O179 Co162 2.021 1_655 S
O179 C172 1.259 . S
O180 Co164 2.117 . S
O180 C172 1.258 . S
O181 Co164 2.020 . S
O181 C178 1.256 . S
O182 Co162 2.062 1_655 S
O182 C178 1.255 . S
O183 C163 1.259 . S
O183 Co164 2.021 1_455 S
H184 C175 0.930 . S
H185 C174 0.931 1_455 S
O186 Co162 2.117 . S
O186 C163 1.258 . S
O187 Co162 2.020 . S
O187 C189 1.256 . S
O188 Co164 2.062 1_455 S
O188 C189 1.255 . S
C189 O187 1.256 . S
C189 O188 1.255 . S
H190 C169 0.931 . S
H191 C177 0.931 . S
H192 C204 0.930 . S
H193 C206 0.930 . S
H194 C207 0.930 . S
H195 C211 0.959 . S
H196 C211 0.959 . S
H197 C211 0.961 . S
H198 C212 0.965 . S
H199 C212 0.980 . S
H200 C212 0.956 . S
H201 C215 0.929 . S
H202 C216 0.931 . S
H203 C218 0.930 . S
C204 H192 0.930 . S
C204 C205 1.399 . S
C204 C209 1.399 . S
C205 C204 1.399 . S
C205 C206 1.376 . S
C206 H193 0.930 . S
C206 C205 1.376 . S
C206 C207 1.388 . S
C207 H194 0.930 . S
C207 C206 1.388 . S
C207 C208 1.390 . S
C208 C207 1.390 . S
C208 C209 1.394 . S
C208 C214 1.465 . S
C209 C204 1.399 . S
C209 C208 1.394 . S
C209 C210 1.516 . S
C210 C209 1.516 . S
C210 C211 1.502 . S
C210 C212 1.540 1_545 S
C210 C213 1.526 . S
C211 H195 0.959 . S
C211 H196 0.959 . S
C211 H197 0.961 . S
C211 C210 1.502 . S
C212 H198 0.965 . S
C212 H199 0.980 . S
C212 H200 0.956 . S
C212 C210 1.540 1_565 S
C213 C210 1.526 . S
C213 C214 1.396 . S
C213 C218 1.390 . S
C214 C208 1.465 . S
C214 C213 1.396 . S
C214 C215 1.399 . S
C215 H201 0.929 . S
C215 C214 1.399 . S
C215 C216 1.385 . S
C216 H202 0.931 . S
C216 C215 1.385 . S
C216 C217 1.389 . S
C217 C216 1.389 . S
C217 C218 1.387 . S
C218 H203 0.930 . S
C218 C213 1.390 . S
C218 C217 1.387 . S
H219 C231 0.930 . S
H220 C233 0.930 . S
H221 C234 0.930 . S
H222 C238 0.959 . S
H223 C238 0.959 . S
H224 C238 0.961 . S
H225 C239 0.960 . S
H226 C239 0.961 . S
H227 C239 0.959 . S
H228 C242 0.929 . S
H229 C243 0.931 . S
H230 C245 0.930 . S
C231 H219 0.930 . S
C231 C232 1.399 . S
C231 C236 1.399 . S
C232 C231 1.399 . S
C232 C233 1.376 . S
C233 H220 0.930 . S
C233 C232 1.376 . S
C233 C234 1.388 . S
C234 H221 0.930 . S
C234 C233 1.388 . S
C234 C235 1.390 . S
C235 C234 1.390 . S
C235 C236 1.394 . S
C235 C241 1.465 . S
C236 C231 1.399 . S
C236 C235 1.394 . S
C236 C237 1.516 . S
C237 C236 1.516 . S
C237 C238 1.502 . S
C237 C239 1.561 . S
C237 C240 1.526 . S
C238 H222 0.959 . S
C238 H223 0.959 . S
C238 H224 0.961 . S
C238 C237 1.502 . S
C239 H225 0.960 . S
C239 H226 0.961 . S
C239 H227 0.959 . S
C239 C237 1.561 . S
C240 C237 1.526 . S
C240 C241 1.396 . S
C240 C245 1.390 . S
C241 C235 1.465 . S
C241 C240 1.396 . S
C241 C242 1.399 . S
C242 H228 0.929 . S
C242 C241 1.399 . S
C242 C243 1.385 . S
C243 H229 0.931 . S
C243 C242 1.385 . S
C243 C244 1.389 . S
C244 C243 1.389 . S
C244 C245 1.387 . S
C245 H230 0.930 . S
C245 C240 1.390 . S
C245 C244 1.387 . S
H246 C258 0.930 . S
H247 C260 0.930 . S
H248 C261 0.930 . S
H249 C265 0.959 . S
H250 C265 0.959 . S
H251 C265 0.961 . S
H252 C266 0.960 . S
H253 C266 0.961 . S
H254 C266 0.959 . S
H255 C269 0.929 . S
H256 C270 0.931 . S
H257 C272 0.930 . S
C258 H246 0.930 . S
C258 C259 1.399 . S
C258 C263 1.399 . S
C259 C258 1.399 . S
C259 C260 1.376 . S
C260 H247 0.930 . S
C260 C259 1.376 . S
C260 C261 1.388 . S
C261 H248 0.930 . S
C261 C260 1.388 . S
C261 C262 1.390 . S
C262 C261 1.390 . S
C262 C263 1.394 . S
C262 C268 1.465 . S
C263 C258 1.399 . S
C263 C262 1.394 . S
C263 C264 1.516 . S
C264 C263 1.516 . S
C264 C265 1.502 . S
C264 C266 1.561 . S
C264 C267 1.526 . S
C265 H249 0.959 . S
C265 H250 0.959 . S
C265 H251 0.961 . S
C265 C264 1.502 . S
C266 H252 0.960 . S
C266 H253 0.961 . S
C266 H254 0.959 . S
C266 C264 1.561 . S
C267 C264 1.526 . S
C267 C268 1.396 . S
C267 C272 1.390 . S
C268 C262 1.465 . S
C268 C267 1.396 . S
C268 C269 1.399 . S
C269 H255 0.929 . S
C269 C268 1.399 . S
C269 C270 1.385 . S
C270 H256 0.931 . S
C270 C269 1.385 . S
C270 C271 1.389 . S
C271 C270 1.389 . S
C271 C272 1.387 . S
C272 H257 0.930 . S
C272 C267 1.390 . S
C272 C271 1.387 . S
H273 C285 0.930 . S
H274 C287 0.930 . S
H275 C288 0.930 . S
H276 C292 0.959 . S
H277 C292 0.959 . S
H278 C292 0.961 . S
H279 C293 0.960 . S
H280 C293 0.961 . S
H281 C293 0.959 . S
H282 C296 0.929 . S
H283 C297 0.938 . S
H284 C299 0.930 . S
C285 H273 0.930 . S
C285 C286 1.399 1_655 S
C285 C290 1.399 . S
C286 C285 1.399 1_455 S
C286 C287 1.376 . S
C287 H274 0.930 . S
C287 C286 1.376 . S
C287 C288 1.388 . S
C288 H275 0.930 . S
C288 C287 1.388 . S
C288 C289 1.402 . S
C289 C288 1.402 . S
C289 C290 1.381 1_455 S
C289 C295 1.463 1_455 S
C290 C285 1.399 . S
C290 C289 1.381 1_655 S
C290 C291 1.516 . S
C291 C290 1.516 . S
C291 C292 1.502 . S
C291 C293 1.561 1_655 S
C291 C294 1.526 . S
C292 H276 0.959 . S
C292 H277 0.959 . S
C292 H278 0.961 . S
C292 C291 1.502 . S
C293 H279 0.960 . S
C293 H280 0.961 . S
C293 H281 0.959 . S
C293 C291 1.561 1_455 S
C294 C291 1.526 . S
C294 C295 1.396 . S
C294 C299 1.390 . S
C295 C289 1.463 1_655 S
C295 C294 1.396 . S
C295 C296 1.399 1_655 S
C296 H282 0.929 . S
C296 C295 1.399 1_455 S
C296 C297 1.385 1_455 S
C297 H283 0.938 . S
C297 C296 1.385 1_655 S
C297 C298 1.389 . S
C298 C297 1.389 . S
C298 C299 1.387 . S
C299 H284 0.930 . S
C299 C294 1.390 . S
C299 C298 1.387 . S
H300 C312 0.930 . S
H301 C314 0.930 . S
H302 C315 0.930 . S
H303 C319 0.959 . S
H304 C319 0.959 . S
H305 C319 0.961 . S
H306 C320 0.960 . S
H307 C320 0.961 . S
H308 C320 0.959 1_556 S
H309 C323 0.929 1_545 S
H310 C324 0.931 . S
H311 C326 0.930 . S
C312 H300 0.930 . S
C312 C313 1.399 . S
C312 C317 1.399 . S
C313 C312 1.399 . S
C313 C314 1.376 1_554 S
C314 H301 0.930 . S
C314 C313 1.376 1_556 S
C314 C315 1.388 . S
C315 H302 0.930 . S
C315 C314 1.388 . S
C315 C316 1.390 . S
C316 C315 1.390 . S
C316 C317 1.394 1_556 S
C316 C322 1.465 . S
C317 C312 1.399 . S
C317 C316 1.394 1_554 S
C317 C318 1.516 . S
C318 C317 1.516 . S
C318 C319 1.502 . S
C318 C320 1.561 . S
C318 C321 1.526 1_554 S
C319 H303 0.959 . S
C319 H304 0.959 . S
C319 H305 0.961 . S
C319 C318 1.502 . S
C320 H306 0.960 . S
C320 H307 0.961 . S
C320 H308 0.959 1_554 S
C320 C318 1.561 . S
C321 C318 1.526 1_556 S
C321 C322 1.396 . S
C321 C326 1.390 . S
C322 C316 1.465 . S
C322 C321 1.396 . S
C322 C323 1.399 . S
C323 H309 0.929 1_565 S
C323 C322 1.399 . S
C323 C324 1.385 1_565 S
C324 H310 0.931 . S
C324 C323 1.385 1_545 S
C324 C325 1.387 1_545 S
C325 C324 1.387 1_565 S
C325 C326 1.402 . S
C326 H311 0.930 . S
C326 C321 1.390 . S
C326 C325 1.402 . S
H327 C339 0.930 . S
H328 C341 0.930 . S
H329 C342 0.930 . S
H330 C346 0.959 . S
H331 C346 0.959 . S
H332 C346 0.961 . S
H333 C347 0.960 . S
H334 C347 0.961 . S
H335 C347 0.959 . S
H336 C350 0.929 . S
H337 C351 0.931 . S
H338 C353 0.930 . S
C339 H327 0.930 . S
C339 C340 1.399 . S
C339 C344 1.399 . S
C340 C339 1.399 . S
C340 C341 1.376 1_554 S
C341 H328 0.930 . S
C341 C340 1.376 1_556 S
C341 C342 1.388 . S
C342 H329 0.930 . S
C342 C341 1.388 . S
C342 C343 1.390 . S
C343 C342 1.390 . S
C343 C344 1.394 1_556 S
C343 C349 1.465 . S
C344 C339 1.399 . S
C344 C343 1.394 1_554 S
C344 C345 1.516 . S
C345 C344 1.516 . S
C345 C346 1.502 . S
C345 C347 1.561 . S
C345 C348 1.526 1_554 S
C346 H330 0.959 . S
C346 H331 0.959 . S
C346 H332 0.961 . S
C346 C345 1.502 . S
C347 H333 0.960 . S
C347 H334 0.961 . S
C347 H335 0.959 . S
C347 C345 1.561 . S
C348 C345 1.526 1_556 S
C348 C349 1.396 . S
C348 C353 1.390 . S
C349 C343 1.465 . S
C349 C348 1.396 . S
C349 C350 1.399 . S
C350 H336 0.929 . S
C350 C349 1.399 . S
C350 C351 1.385 . S
C351 H337 0.931 . S
C351 C350 1.385 . S
C351 C352 1.389 . S
C352 C351 1.389 . S
C352 C353 1.387 . S
C353 H338 0.930 . S
C353 C348 1.390 . S
C353 C352 1.387 . S
H354 C366 0.930 . S
H355 C368 0.930 . S
H356 C369 0.930 . S
H357 C373 0.959 . S
H358 C373 0.959 1_556 S
H359 C373 0.961 . S
H360 C374 0.960 . S
H361 C374 0.961 . S
H362 C374 0.959 . S
H363 C377 0.929 . S
H364 C378 0.931 . S
H365 C380 0.930 . S
C366 H354 0.930 . S
C366 C367 1.399 . S
C366 C371 1.399 . S
C367 C366 1.399 . S
C367 C368 1.376 . S
C368 H355 0.930 . S
C368 C367 1.376 . S
C368 C369 1.388 . S
C369 H356 0.930 . S
C369 C368 1.388 . S
C369 C370 1.390 . S
C370 C369 1.390 . S
C370 C371 1.394 . S
C370 C376 1.465 1_554 S
C371 C366 1.399 . S
C371 C370 1.394 . S
C371 C372 1.516 1_554 S
C372 C371 1.516 1_556 S
C372 C373 1.502 1_556 S
C372 C374 1.561 . S
C372 C375 1.526 . S
C373 H357 0.959 . S
C373 H358 0.959 1_554 S
C373 H359 0.961 . S
C373 C372 1.502 1_554 S
C374 H360 0.960 . S
C374 H361 0.961 . S
C374 H362 0.959 . S
C374 C372 1.561 . S
C375 C372 1.526 . S
C375 C376 1.396 . S
C375 C380 1.390 . S
C376 C370 1.465 1_556 S
C376 C375 1.396 . S
C376 C377 1.399 . S
C377 H363 0.929 . S
C377 C376 1.399 . S
C377 C378 1.385 . S
C378 H364 0.931 . S
C378 C377 1.385 . S
C378 C379 1.389 . S
C379 C378 1.389 . S
C379 C380 1.387 . S
C380 H365 0.930 . S
C380 C375 1.390 . S
C380 C379 1.387 . S
H381 C393 0.930 1_556 S
H382 C395 0.930 . S
H383 C396 0.930 . S
H384 C400 0.959 1_655 S
H385 C400 0.959 . S
H386 C400 0.961 . S
H387 C401 0.960 . S
H388 C401 0.961 . S
H389 C401 0.959 . S
H390 C404 0.930 1_554 S
H391 C405 0.931 . S
H392 C407 0.930 . S
C393 H381 0.930 1_554 S
C393 C394 1.399 . S
C393 C398 1.399 1_554 S
C394 C393 1.399 . S
C394 C395 1.376 1_455 S
C395 H382 0.930 . S
C395 C394 1.376 1_655 S
C395 C396 1.388 . S
C396 H383 0.930 . S
C396 C395 1.388 . S
C396 C397 1.390 1_655 S
C397 C396 1.390 1_455 S
C397 C398 1.394 1_554 S
C397 C403 1.465 1_554 S
C398 C393 1.399 1_556 S
C398 C397 1.394 1_556 S
C398 C399 1.516 . S
C399 C398 1.516 . S
C399 C400 1.502 . S
C399 C401 1.561 . S
C399 C402 1.526 . S
C400 H384 0.959 1_455 S
C400 H385 0.959 . S
C400 H386 0.961 . S
C400 C399 1.502 . S
C401 H387 0.960 . S
C401 H388 0.961 . S
C401 H389 0.959 . S
C401 C399 1.561 . S
C402 C399 1.526 . S
C402 C403 1.396 . S
C402 C407 1.390 . S
C403 C397 1.465 1_556 S
C403 C402 1.396 . S
C403 C404 1.399 . S
C404 H390 0.930 1_556 S
C404 C403 1.399 . S
C404 C405 1.385 . S
C405 H391 0.931 . S
C405 C404 1.385 . S
C405 C406 1.389 . S
C406 C405 1.389 . S
C406 C407 1.387 . S
C407 H392 0.930 . S
C407 C402 1.390 . S
C407 C406 1.387 . S
H408 C420 0.930 . S
H409 C422 0.930 . S
H410 C423 0.930 . S
H411 C427 0.959 . S
H412 C427 0.959 . S
H413 C427 0.961 . S
H414 C428 0.960 . S
H415 C428 0.961 . S
H416 C428 0.959 . S
H417 C431 0.935 . S
H418 C432 0.931 . S
H419 C434 0.930 . S
C420 H408 0.930 . S
C420 C421 1.399 1_655 S
C420 C425 1.399 . S
C421 C420 1.399 1_455 S
C421 C422 1.376 . S
C422 H409 0.930 . S
C422 C421 1.376 . S
C422 C423 1.388 . S
C423 H410 0.930 . S
C423 C422 1.388 . S
C423 C424 1.390 . S
C424 C423 1.390 . S
C424 C425 1.394 1_455 S
C424 C430 1.465 1_455 S
C425 C420 1.399 . S
C425 C424 1.394 1_655 S
C425 C426 1.516 . S
C426 C425 1.516 . S
C426 C427 1.502 . S
C426 C428 1.561 1_655 S
C426 C429 1.526 . S
C427 H411 0.959 . S
C427 H412 0.959 . S
C427 H413 0.961 . S
C427 C426 1.502 . S
C428 H414 0.960 . S
C428 H415 0.961 . S
C428 H416 0.959 . S
C428 C426 1.561 1_455 S
C429 C426 1.526 . S
C429 C430 1.396 . S
C429 C434 1.390 . S
C430 C424 1.465 1_655 S
C430 C429 1.396 . S
C430 C431 1.398 1_655 S
C431 H417 0.935 . S
C431 C430 1.398 1_455 S
C431 C432 1.381 1_455 S
C432 H418 0.931 . S
C432 C431 1.381 1_655 S
C432 C433 1.389 . S
C433 C432 1.389 . S
C433 C434 1.387 . S
C434 H419 0.930 . S
C434 C429 1.390 . S
C434 C433 1.387 . S
H435 C447 0.930 . S
H436 C449 0.930 . S
H437 C450 0.930 . S
H438 C454 0.959 . S
H439 C454 0.959 . S
H440 C454 0.961 . S
H441 C455 0.960 . S
H442 C455 0.961 . S
H443 C455 0.959 . S
H444 C458 0.929 1_565 S
H445 C459 0.896 1_565 S
H446 C461 0.930 . S
C447 H435 0.930 . S
C447 C448 1.399 . S
C447 C452 1.399 . S
C448 C447 1.399 . S
C448 C449 1.376 . S
C449 H436 0.930 . S
C449 C448 1.376 . S
C449 C450 1.388 . S
C450 H437 0.930 . S
C450 C449 1.388 . S
C450 C451 1.390 . S
C451 C450 1.390 . S
C451 C452 1.394 . S
C451 C457 1.465 . S
C452 C447 1.399 . S
C452 C451 1.394 . S
C452 C453 1.516 . S
C453 C452 1.516 . S
C453 C454 1.502 . S
C453 C455 1.561 . S
C453 C456 1.526 . S
C454 H438 0.959 . S
C454 H439 0.959 . S
C454 H440 0.961 . S
C454 C453 1.502 . S
C455 H441 0.960 . S
C455 H442 0.961 . S
C455 H443 0.959 . S
C455 C453 1.561 . S
C456 C453 1.526 . S
C456 C457 1.396 . S
C456 C461 1.390 . S
C457 C451 1.465 . S
C457 C456 1.396 . S
C457 C458 1.399 . S
C458 H444 0.929 1_545 S
C458 C457 1.399 . S
C458 C459 1.390 . S
C459 H445 0.896 1_545 S
C459 C458 1.390 . S
C459 C460 1.420 . S
C460 C459 1.420 . S
C460 C461 1.387 . S
C461 H446 0.930 . S
C461 C456 1.390 . S
C461 C460 1.387 . S
H462 C474 0.930 . S
H463 C476 0.930 . S
H464 C477 0.930 . S
H465 C481 0.959 . S
H466 C481 0.959 . S
H467 C481 0.961 . S
H468 C482 0.960 . S
H469 C482 0.961 . S
H470 C482 0.959 . S
H471 C485 0.929 . S
H472 C486 0.931 . S
H473 C488 0.930 . S
C474 H462 0.930 . S
C474 C475 1.399 . S
C474 C479 1.399 . S
C475 C474 1.399 . S
C475 C476 1.376 . S
C476 H463 0.930 . S
C476 C475 1.376 . S
C476 C477 1.388 . S
C477 H464 0.930 . S
C477 C476 1.388 . S
C477 C478 1.390 . S
C478 C477 1.390 . S
C478 C479 1.394 . S
C478 C484 1.465 . S
C479 C474 1.399 . S
C479 C478 1.394 . S
C479 C480 1.516 . S
C480 C479 1.516 . S
C480 C481 1.502 . S
C480 C482 1.561 . S
C480 C483 1.526 . S
C481 H465 0.959 . S
C481 H466 0.959 . S
C481 H467 0.961 . S
C481 C480 1.502 . S
C482 H468 0.960 . S
C482 H469 0.961 . S
C482 H470 0.959 . S
C482 C480 1.561 . S
C483 C480 1.526 . S
C483 C484 1.396 . S
C483 C488 1.390 . S
C484 C478 1.465 . S
C484 C483 1.396 . S
C484 C485 1.399 . S
C485 H471 0.929 . S
C485 C484 1.399 . S
C485 C486 1.385 . S
C486 H472 0.931 . S
C486 C485 1.385 . S
C486 C487 1.389 . S
C487 C486 1.389 . S
C487 C488 1.387 . S
C488 H473 0.930 . S
C488 C483 1.390 . S
C488 C487 1.387 . S
H489 C501 0.930 . S
H490 C503 0.930 . S
H491 C504 0.930 . S
H492 C508 0.959 . S
H493 C508 0.959 . S
H494 C508 0.961 . S
H495 C509 0.960 . S
H496 C509 0.961 . S
H497 C509 0.959 . S
H498 C512 0.929 . S
H499 C513 0.931 . S
H500 C515 0.930 . S
C501 H489 0.930 . S
C501 C502 1.399 . S
C501 C506 1.399 . S
C502 C501 1.399 . S
C502 C503 1.376 . S
C503 H490 0.930 . S
C503 C502 1.376 . S
C503 C504 1.388 . S
C504 H491 0.930 . S
C504 C503 1.388 . S
C504 C505 1.390 . S
C505 C504 1.390 . S
C505 C506 1.394 . S
C505 C511 1.465 . S
C506 C501 1.399 . S
C506 C505 1.394 . S
C506 C507 1.516 . S
C507 C506 1.516 . S
C507 C508 1.502 . S
C507 C509 1.561 . S
C507 C510 1.526 . S
C508 H492 0.959 . S
C508 H493 0.959 . S
C508 H494 0.961 . S
C508 C507 1.502 . S
C509 H495 0.960 . S
C509 H496 0.961 . S
C509 H497 0.959 . S
C509 C507 1.561 . S
C510 C507 1.526 . S
C510 C511 1.396 . S
C510 C515 1.390 . S
C511 C505 1.465 . S
C511 C510 1.396 . S
C511 C512 1.399 . S
C512 H498 0.929 . S
C512 C511 1.399 . S
C512 C513 1.385 . S
C513 H499 0.931 . S
C513 C512 1.385 . S
C513 C514 1.389 . S
C514 C513 1.389 . S
C514 C515 1.387 . S
C515 H500 0.930 . S
C515 C510 1.390 . S
C515 C514 1.387 . S
H516 C528 0.930 . S
H517 C530 0.930 . S
H518 C531 0.930 . S
H519 C535 0.959 . S
H520 C535 0.959 . S
H521 C535 0.961 . S
H522 C536 0.960 . S
H523 C536 0.961 . S
H524 C536 0.959 1_655 S
H525 C539 0.929 1_554 S
H526 C540 0.927 1_655 S
H527 C542 0.930 . S
C528 H516 0.930 . S
C528 C529 1.399 1_456 S
C528 C533 1.399 . S
C529 C528 1.399 1_654 S
C529 C530 1.376 . S
C530 H517 0.930 . S
C530 C529 1.376 . S
C530 C531 1.388 . S
C531 H518 0.930 . S
C531 C530 1.388 . S
C531 C532 1.390 . S
C532 C531 1.390 . S
C532 C533 1.394 1_654 S
C532 C538 1.464 1_654 S
C533 C528 1.399 . S
C533 C532 1.394 1_456 S
C533 C534 1.516 . S
C534 C533 1.516 . S
C534 C535 1.502 . S
C534 C536 1.561 . S
C534 C537 1.526 . S
C535 H519 0.959 . S
C535 H520 0.959 . S
C535 H521 0.961 . S
C535 C534 1.502 . S
C536 H522 0.960 . S
C536 H523 0.961 . S
C536 H524 0.959 1_455 S
C536 C534 1.561 . S
C537 C534 1.526 . S
C537 C538 1.399 . S
C537 C542 1.390 . S
C538 C532 1.464 1_456 S
C538 C537 1.399 . S
C538 C539 1.398 1_455 S
C539 H525 0.929 1_556 S
C539 C538 1.398 1_655 S
C539 C540 1.379 1_655 S
C540 H526 0.927 1_455 S
C540 C539 1.379 1_455 S
C540 C541 1.399 . S
C541 C540 1.399 . S
C541 C542 1.387 . S
C542 H527 0.930 . S
C542 C537 1.390 . S
C542 C541 1.387 . S
H543 C555 0.930 . S
H544 C557 0.930 . S
H545 C558 0.930 . S
H546 C562 0.959 . S
H547 C562 0.959 . S
H548 C562 0.961 . S
H549 C563 0.960 . S
H550 C563 0.961 . S
H551 C563 0.959 . S
H552 C566 0.929 . S
H553 C567 0.931 . S
H554 C569 0.930 . S
C555 H543 0.930 . S
C555 C556 1.399 1_556 S
C555 C560 1.399 . S
C556 C555 1.399 1_554 S
C556 C557 1.376 . S
C557 H544 0.930 . S
C557 C556 1.376 . S
C557 C558 1.388 . S
C558 H545 0.930 . S
C558 C557 1.388 . S
C558 C559 1.376 1_554 S
C559 C558 1.376 1_556 S
C559 C560 1.406 . S
C559 C565 1.470 . S
C560 C555 1.399 . S
C560 C559 1.406 . S
C560 C561 1.516 . S
C561 C560 1.516 . S
C561 C562 1.502 . S
C561 C563 1.561 . S
C561 C564 1.526 . S
C562 H546 0.959 . S
C562 H547 0.959 . S
C562 H548 0.961 . S
C562 C561 1.502 . S
C563 H549 0.960 . S
C563 H550 0.961 . S
C563 H551 0.959 . S
C563 C561 1.561 . S
C564 C561 1.526 . S
C564 C565 1.396 . S
C564 C569 1.390 . S
C565 C559 1.470 . S
C565 C564 1.396 . S
C565 C566 1.399 1_556 S
C566 H552 0.929 . S
C566 C565 1.399 1_554 S
C566 C567 1.385 1_564 S
C567 H553 0.931 . S
C567 C566 1.385 1_546 S
C567 C568 1.389 . S
C568 C567 1.389 . S
C568 C569 1.387 1_545 S
C569 H554 0.930 . S
C569 C564 1.390 . S
C569 C568 1.387 1_565 S
H570 C582 0.930 . S
H571 C584 0.930 . S
H572 C585 0.930 . S
H573 C589 0.959 . S
H574 C589 0.959 . S
H575 C589 0.961 . S
H576 C590 0.960 . S
H577 C590 0.961 . S
H578 C590 0.959 . S
H579 C593 0.931 1_554 S
H580 C594 0.931 . S
H581 C596 0.930 . S
C582 H570 0.930 . S
C582 C583 1.399 1_556 S
C582 C587 1.399 . S
C583 C582 1.399 1_554 S
C583 C584 1.376 . S
C584 H571 0.930 . S
C584 C583 1.376 . S
C584 C585 1.388 . S
C585 H572 0.930 . S
C585 C584 1.388 . S
C585 C586 1.390 . S
C586 C585 1.390 . S
C586 C587 1.394 1_554 S
C586 C592 1.465 1_554 S
C587 C582 1.399 . S
C587 C586 1.394 1_556 S
C587 C588 1.516 . S
C588 C587 1.516 . S
C588 C589 1.502 . S
C588 C590 1.561 . S
C588 C591 1.526 . S
C589 H573 0.959 . S
C589 H574 0.959 . S
C589 H575 0.961 . S
C589 C588 1.502 . S
C590 H576 0.960 . S
C590 H577 0.961 . S
C590 H578 0.959 . S
C590 C588 1.561 . S
C591 C588 1.526 . S
C591 C592 1.396 . S
C591 C596 1.390 . S
C592 C586 1.465 1_556 S
C592 C591 1.396 . S
C592 C593 1.398 . S
C593 H579 0.931 1_556 S
C593 C592 1.398 . S
C593 C594 1.384 . S
C594 H580 0.931 . S
C594 C593 1.384 . S
C594 C595 1.389 . S
C595 C594 1.389 . S
C595 C596 1.387 . S
C596 H581 0.930 . S
C596 C591 1.390 . S
C596 C595 1.387 . S
H597 C609 0.930 . S
H598 C611 0.930 . S
H599 C612 0.930 . S
H600 C616 0.959 . S
H601 C616 0.959 . S
H602 C616 0.961 . S
H603 C617 0.960 . S
H604 C617 0.961 . S
H605 C617 0.959 1_556 S
H606 C620 0.929 . S
H607 C621 0.931 . S
H608 C623 0.930 . S
C609 H597 0.930 . S
C609 C610 1.399 . S
C609 C614 1.399 . S
C610 C609 1.399 . S
C610 C611 1.376 1_554 S
C611 H598 0.930 . S
C611 C610 1.376 1_556 S
C611 C612 1.388 . S
C612 H599 0.930 . S
C612 C611 1.388 . S
C612 C613 1.390 . S
C613 C612 1.390 . S
C613 C614 1.394 1_556 S
C613 C619 1.465 . S
C614 C609 1.399 . S
C614 C613 1.394 1_554 S
C614 C615 1.516 . S
C615 C614 1.516 . S
C615 C616 1.502 . S
C615 C617 1.561 . S
C615 C618 1.526 1_554 S
C616 H600 0.959 . S
C616 H601 0.959 . S
C616 H602 0.961 . S
C616 C615 1.502 . S
C617 H603 0.960 . S
C617 H604 0.961 . S
C617 H605 0.959 1_554 S
C617 C615 1.561 . S
C618 C615 1.526 1_556 S
C618 C619 1.396 . S
C618 C623 1.390 . S
C619 C613 1.465 . S
C619 C618 1.396 . S
C619 C620 1.399 . S
C620 H606 0.929 . S
C620 C619 1.399 . S
C620 C621 1.385 . S
C621 H607 0.931 . S
C621 C620 1.385 . S
C621 C622 1.389 . S
C622 C621 1.389 . S
C622 C623 1.387 . S
C623 H608 0.930 . S
C623 C618 1.390 . S
C623 C622 1.387 . S
H624 C636 0.930 . S
H625 C638 0.930 . S
H626 C639 0.930 . S
H627 C643 0.959 . S
H628 C643 0.959 . S
H629 C643 0.961 . S
H630 C644 0.960 . S
H631 C644 0.961 . S
H632 C644 0.959 1_655 S
H633 C647 0.929 . S
H634 C648 0.931 1_556 S
H635 C650 0.930 . S
C636 H624 0.930 . S
C636 C637 1.399 1_455 S
C636 C641 1.399 . S
C637 C636 1.399 1_655 S
C637 C638 1.376 . S
C638 H625 0.930 . S
C638 C637 1.376 . S
C638 C639 1.388 . S
C639 H626 0.930 . S
C639 C638 1.388 . S
C639 C640 1.390 . S
C640 C639 1.390 . S
C640 C641 1.394 1_655 S
C640 C646 1.465 . S
C641 C636 1.399 . S
C641 C640 1.394 1_455 S
C641 C642 1.516 . S
C642 C641 1.516 . S
C642 C643 1.502 . S
C642 C644 1.561 . S
C642 C645 1.526 . S
C643 H627 0.959 . S
C643 H628 0.959 . S
C643 H629 0.961 . S
C643 C642 1.502 . S
C644 H630 0.960 . S
C644 H631 0.961 . S
C644 H632 0.959 1_455 S
C644 C642 1.561 . S
C645 C642 1.526 . S
C645 C646 1.396 1_455 S
C645 C650 1.390 . S
C646 C640 1.465 . S
C646 C645 1.396 1_655 S
C646 C647 1.399 . S
C647 H633 0.929 . S
C647 C646 1.399 . S
C647 C648 1.385 . S
C648 H634 0.931 1_554 S
C648 C647 1.385 . S
C648 C649 1.389 1_655 S
C649 C648 1.389 1_455 S
C649 C650 1.387 . S
C650 H635 0.930 . S
C650 C645 1.390 . S
C650 C649 1.387 . S
H651 C663 0.930 . S
H652 C665 0.930 . S
H653 C666 0.930 . S
H654 C670 0.959 . S
H655 C670 0.959 . S
H656 C670 0.961 . S
H657 C671 0.960 . S
H658 C671 0.961 . S
H659 C671 0.959 . S
H660 C674 0.929 . S
H661 C675 0.931 . S
H662 C677 0.930 . S
C663 H651 0.930 . S
C663 C664 1.399 . S
C663 C668 1.399 . S
C664 C663 1.399 . S
C664 C665 1.376 . S
C665 H652 0.930 . S
C665 C664 1.376 . S
C665 C666 1.388 . S
C666 H653 0.930 . S
C666 C665 1.388 . S
C666 C667 1.390 . S
C667 C666 1.390 . S
C667 C668 1.394 . S
C667 C673 1.465 . S
C668 C663 1.399 . S
C668 C667 1.394 . S
C668 C669 1.516 . S
C669 C668 1.516 . S
C669 C670 1.502 . S
C669 C671 1.561 . S
C669 C672 1.526 . S
C670 H654 0.959 . S
C670 H655 0.959 . S
C670 H656 0.961 . S
C670 C669 1.502 . S
C671 H657 0.960 . S
C671 H658 0.961 . S
C671 H659 0.959 . S
C671 C669 1.561 . S
C672 C669 1.526 . S
C672 C673 1.396 . S
C672 C677 1.390 . S
C673 C667 1.465 . S
C673 C672 1.396 . S
C673 C674 1.399 . S
C674 H660 0.929 . S
C674 C673 1.399 . S
C674 C675 1.385 . S
C675 H661 0.931 . S
C675 C674 1.385 . S
C675 C676 1.389 . S
C676 C675 1.389 . S
C676 C677 1.387 . S
C677 H662 0.930 . S
C677 C672 1.390 . S
C677 C676 1.387 . S
H678 C690 0.930 . S
H679 C692 0.930 . S
H680 C693 0.930 . S
H681 C697 0.959 . S
H682 C697 0.959 . S
H683 C697 0.961 . S
H684 C698 0.960 . S
H685 C698 0.961 . S
H686 C698 0.959 . S
H687 C701 0.929 . S
H688 C702 0.931 . S
H689 C704 0.930 . S
C690 H678 0.930 . S
C690 C691 1.399 . S
C690 C695 1.399 . S
C691 C690 1.399 . S
C691 C692 1.376 . S
C692 H679 0.930 . S
C692 C691 1.376 . S
C692 C693 1.388 . S
C693 H680 0.930 . S
C693 C692 1.388 . S
C693 C694 1.390 . S
C694 C693 1.390 . S
C694 C695 1.394 . S
C694 C700 1.465 . S
C695 C690 1.399 . S
C695 C694 1.394 . S
C695 C696 1.516 . S
C696 C695 1.516 . S
C696 C697 1.502 . S
C696 C698 1.561 . S
C696 C699 1.526 . S
C697 H681 0.959 . S
C697 H682 0.959 . S
C697 H683 0.961 . S
C697 C696 1.502 . S
C698 H684 0.960 . S
C698 H685 0.961 . S
C698 H686 0.959 . S
C698 C696 1.561 . S
C699 C696 1.526 . S
C699 C700 1.396 . S
C699 C704 1.390 . S
C700 C694 1.465 . S
C700 C699 1.396 . S
C700 C701 1.399 1_554 S
C701 H687 0.929 . S
C701 C700 1.399 1_556 S
C701 C702 1.385 . S
C702 H688 0.931 . S
C702 C701 1.385 . S
C702 C703 1.389 . S
C703 C702 1.389 . S
C703 C704 1.387 1_556 S
C704 H689 0.930 . S
C704 C699 1.390 . S
C704 C703 1.387 1_554 S
H705 C717 0.930 . S
H706 C719 0.930 . S
H707 C720 0.930 . S
H708 C724 0.959 . S
H709 C724 0.959 . S
H710 C724 0.961 . S
H711 C725 0.960 . S
H712 C725 0.961 . S
H713 C725 0.959 . S
H714 C728 0.933 . S
H715 C729 0.931 . S
H716 C731 0.930 . S
C717 H705 0.930 . S
C717 C718 1.399 . S
C717 C722 1.399 . S
C718 C717 1.399 . S
C718 C719 1.376 . S
C719 H706 0.930 . S
C719 C718 1.376 . S
C719 C720 1.388 . S
C720 H707 0.930 . S
C720 C719 1.388 . S
C720 C721 1.390 . S
C721 C720 1.390 . S
C721 C722 1.394 . S
C721 C727 1.465 . S
C722 C717 1.399 . S
C722 C721 1.394 . S
C722 C723 1.516 . S
C723 C722 1.516 . S
C723 C724 1.502 . S
C723 C725 1.561 . S
C723 C726 1.526 . S
C724 H708 0.959 . S
C724 H709 0.959 . S
C724 H710 0.961 . S
C724 C723 1.502 . S
C725 H711 0.960 . S
C725 H712 0.961 . S
C725 H713 0.959 . S
C725 C723 1.561 . S
C726 C723 1.526 . S
C726 C727 1.396 . S
C726 C731 1.390 . S
C727 C721 1.465 . S
C727 C726 1.396 . S
C727 C728 1.399 . S
C728 H714 0.933 . S
C728 C727 1.399 . S
C728 C729 1.385 1_554 S
C729 H715 0.931 . S
C729 C728 1.385 1_556 S
C729 C730 1.389 . S
C730 C729 1.389 . S
C730 C731 1.387 1_556 S
C731 H716 0.930 . S
C731 C726 1.390 . S
C731 C730 1.387 1_554 S
H732 C744 0.930 . S
H733 C746 0.930 . S
H734 C747 0.930 . S
H735 C751 0.959 . S
H736 C751 0.959 . S
H737 C751 0.961 . S
H738 C752 0.960 . S
H739 C752 0.961 . S
H740 C752 0.959 . S
H741 C755 0.929 . S
H742 C756 0.931 . S
H743 C758 0.930 . S
C744 H732 0.930 . S
C744 C745 1.401 . S
C744 C749 1.399 . S
C745 C744 1.401 . S
C745 C746 1.374 1_655 S
C746 H733 0.930 . S
C746 C745 1.374 1_455 S
C746 C747 1.388 . S
C747 H734 0.930 . S
C747 C746 1.388 . S
C747 C748 1.390 . S
C748 C747 1.390 . S
C748 C749 1.394 1_455 S
C748 C754 1.465 1_455 S
C749 C744 1.399 . S
C749 C748 1.394 1_655 S
C749 C750 1.516 . S
C750 C749 1.516 . S
C750 C751 1.502 . S
C750 C752 1.561 . S
C750 C753 1.526 . S
C751 H735 0.959 . S
C751 H736 0.959 . S
C751 H737 0.961 . S
C751 C750 1.502 . S
C752 H738 0.960 . S
C752 H739 0.961 . S
C752 H740 0.959 . S
C752 C750 1.561 . S
C753 C750 1.526 . S
C753 C754 1.400 . S
C753 C758 1.390 . S
C754 C748 1.465 1_655 S
C754 C753 1.400 . S
C754 C755 1.396 1_655 S
C755 H741 0.929 . S
C755 C754 1.396 1_455 S
C755 C756 1.385 . S
C756 H742 0.931 . S
C756 C755 1.385 . S
C756 C757 1.389 1_455 S
C757 C756 1.389 1_655 S
C757 C758 1.387 . S
C758 H743 0.930 . S
C758 C753 1.390 . S
C758 C757 1.387 . S
H759 C771 0.930 . S
H760 C773 0.930 . S
H761 C774 0.930 . S
H762 C778 0.936 1_565 S
H763 C778 0.988 . S
H764 C778 0.972 . S
H765 C779 0.960 . S
H766 C779 0.961 . S
H767 C779 0.959 . S
H768 C782 0.929 . S
H769 C783 0.931 . S
H770 C785 0.930 1_545 S
C771 H759 0.930 . S
C771 C772 1.399 . S
C771 C776 1.399 . S
C772 C771 1.399 . S
C772 C773 1.376 . S
C773 H760 0.930 . S
C773 C772 1.376 . S
C773 C774 1.388 . S
C774 H761 0.930 . S
C774 C773 1.388 . S
C774 C775 1.390 . S
C775 C774 1.390 . S
C775 C776 1.394 . S
C775 C781 1.465 . S
C776 C771 1.399 . S
C776 C775 1.394 . S
C776 C777 1.516 . S
C777 C776 1.516 . S
C777 C778 1.485 1_565 S
C777 C779 1.561 1_565 S
C777 C780 1.526 . S
C778 H762 0.936 1_545 S
C778 H763 0.988 . S
C778 H764 0.972 . S
C778 C777 1.485 1_545 S
C779 H765 0.960 . S
C779 H766 0.961 . S
C779 H767 0.959 . S
C779 C777 1.561 1_545 S
C780 C777 1.526 . S
C780 C781 1.396 . S
C780 C785 1.390 . S
C781 C775 1.465 . S
C781 C780 1.396 . S
C781 C782 1.399 . S
C782 H768 0.929 . S
C782 C781 1.399 . S
C782 C783 1.385 . S
C783 H769 0.931 . S
C783 C782 1.385 . S
C783 C784 1.389 . S
C784 C783 1.389 . S
C784 C785 1.387 . S
C785 H770 0.930 1_565 S
C785 C780 1.390 . S
C785 C784 1.387 . S
H786 C798 0.930 . S
H787 C800 0.930 . S
H788 C801 0.930 . S
H789 C805 0.959 . S
H790 C805 0.959 . S
H791 C805 0.961 . S
H792 C806 0.960 . S
H793 C806 0.961 . S
H794 C806 0.959 . S
H795 C809 0.929 . S
H796 C810 0.931 . S
H797 C812 0.930 . S
C798 H786 0.930 . S
C798 C799 1.399 . S
C798 C803 1.399 . S
C799 C798 1.399 . S
C799 C800 1.376 . S
C800 H787 0.930 . S
C800 C799 1.376 . S
C800 C801 1.388 . S
C801 H788 0.930 . S
C801 C800 1.388 . S
C801 C802 1.390 . S
C802 C801 1.390 . S
C802 C803 1.394 . S
C802 C808 1.465 . S
C803 C798 1.399 . S
C803 C802 1.394 . S
C803 C804 1.516 . S
C804 C803 1.516 . S
C804 C805 1.502 . S
C804 C806 1.561 . S
C804 C807 1.526 . S
C805 H789 0.959 . S
C805 H790 0.959 . S
C805 H791 0.961 . S
C805 C804 1.502 . S
C806 H792 0.960 . S
C806 H793 0.961 . S
C806 H794 0.959 . S
C806 C804 1.561 . S
C807 C804 1.526 . S
C807 C808 1.396 . S
C807 C812 1.390 . S
C808 C802 1.465 . S
C808 C807 1.396 . S
C808 C809 1.399 . S
C809 H795 0.929 . S
C809 C808 1.399 . S
C809 C810 1.385 . S
C810 H796 0.931 . S
C810 C809 1.385 . S
C810 C811 1.389 . S
C811 C810 1.389 . S
C811 C812 1.387 . S
C812 H797 0.930 . S
C812 C807 1.390 . S
C812 C811 1.387 . S
H813 C825 0.930 . S
H814 C827 0.930 . S
H815 C828 0.930 . S
H816 C832 0.959 . S
H817 C832 0.959 . S
H818 C832 0.961 . S
H819 C833 0.960 . S
H820 C833 0.961 . S
H821 C833 0.959 . S
H822 C836 0.929 . S
H823 C837 0.931 . S
H824 C839 0.930 . S
C825 H813 0.930 . S
C825 C826 1.399 . S
C825 C830 1.399 . S
C826 C825 1.399 . S
C826 C827 1.376 . S
C827 H814 0.930 . S
C827 C826 1.376 . S
C827 C828 1.388 . S
C828 H815 0.930 . S
C828 C827 1.388 . S
C828 C829 1.390 . S
C829 C828 1.390 . S
C829 C830 1.394 . S
C829 C835 1.465 . S
C830 C825 1.399 . S
C830 C829 1.394 . S
C830 C831 1.516 . S
C831 C830 1.516 . S
C831 C832 1.502 . S
C831 C833 1.561 . S
C831 C834 1.526 . S
C832 H816 0.959 . S
C832 H817 0.959 . S
C832 H818 0.961 . S
C832 C831 1.502 . S
C833 H819 0.960 . S
C833 H820 0.961 . S
C833 H821 0.959 . S
C833 C831 1.561 . S
C834 C831 1.526 . S
C834 C835 1.396 . S
C834 C839 1.390 . S
C835 C829 1.465 . S
C835 C834 1.396 . S
C835 C836 1.399 . S
C836 H822 0.929 . S
C836 C835 1.399 . S
C836 C837 1.385 . S
C837 H823 0.931 . S
C837 C836 1.385 . S
C837 C838 1.389 . S
C838 C837 1.389 . S
C838 C839 1.387 . S
C839 H824 0.930 . S
C839 C834 1.390 . S
C839 C838 1.387 . S
C205 C61 1.662 . S
C217 C82 1.692 . S
C244 C112 1.696 . S
C232 C70 1.696 . S
C271 N146 1.510 . S
C259 C43 1.453 . S
C298 N176 1.201 . S
C286 C52 1.305 1_455 S
C325 C73 1.702 1_565 S
C313 C25 1.664 . S
C340 C34 1.681 . S
C352 C103 1.704 . S
C367 C7 1.446 . S
C379 N138 1.457 . S
C394 C16 1.310 1_455 S
C406 N168 1.193 . S
C433 C88 0.273 . S
C421 C50 0.445 1_455 S
C460 C118 0.634 . S
C448 C59 0.549 . S
C487 C159 0.805 . S
C475 C67 0.758 . S
C502 C41 0.469 . S
C514 C189 0.625 . S
C529 C14 0.311 . S
C541 C99 0.294 . S
C568 C129 0.602 . S
C556 C23 0.549 . S
C595 C148 0.776 . S
C583 C31 0.753 . S
C610 C5 0.656 . S
C622 C178 0.493 . S
C637 C49 1.365 . S
C649 N78 1.323 . S
C664 C58 1.417 . S
C676 N108 1.439 . S
C703 C133 1.646 . S
C691 C68 1.636 . S
C730 C163 1.759 . S
C718 C40 1.732 . S
C745 C13 1.381 . S
C757 N86 1.331 . S
C784 N116 1.488 . S
C772 C22 1.437 . S
C811 C142 1.649 . S
C799 C32 1.612 . S
C826 C4 1.700 . S
C838 C172 1.765 . S
