# Generated by pormake.
# Topology ctn, (3,4)-cn, num edge types: 1
# Building blocks:
#     Node 0, Type 0, BuildingBlock: BELTOD_clean_linker_0, # of connection points: 3
#     Node 1, Type 0, BuildingBlock: BELTOD_clean_linker_0, # of connection points: 3
#     Node 2, Type 0, BuildingBlock: BELTOD_clean_linker_0, # of connection points: 3
#     Node 3, Type 0, BuildingBlock: BELTOD_clean_linker_0, # of connection points: 3
#     Node 4, Type 0, BuildingBlock: BELTOD_clean_linker_0, # of connection points: 3
#     Node 5, Type 0, BuildingBlock: BELTOD_clean_linker_0, # of connection points: 3
#     Node 6, Type 0, BuildingBlock: BELTOD_clean_linker_0, # of connection points: 3
#     Node 7, Type 0, BuildingBlock: BELTOD_clean_linker_0, # of connection points: 3
#     Node 8, Type 0, BuildingBlock: BELTOD_clean_linker_0, # of connection points: 3
#     Node 9, Type 0, BuildingBlock: BELTOD_clean_linker_0, # of connection points: 3
#     Node 10, Type 0, BuildingBlock: BELTOD_clean_linker_0, # of connection points: 3
#     Node 11, Type 0, BuildingBlock: BELTOD_clean_linker_0, # of connection points: 3
#     Node 12, Type 0, BuildingBlock: BELTOD_clean_linker_0, # of connection points: 3
#     Node 13, Type 0, BuildingBlock: BELTOD_clean_linker_0, # of connection points: 3
#     Node 14, Type 0, BuildingBlock: BELTOD_clean_linker_0, # of connection points: 3
#     Node 15, Type 0, BuildingBlock: BELTOD_clean_linker_0, # of connection points: 3
#     Node 16, Type 1, BuildingBlock: TATPOV_clean_sbu_0, # of connection points: 4
#     Node 17, Type 1, BuildingBlock: TATPOV_clean_sbu_0, # of connection points: 4
#     Node 18, Type 1, BuildingBlock: TATPOV_clean_sbu_0, # of connection points: 4
#     Node 19, Type 1, BuildingBlock: TATPOV_clean_sbu_0, # of connection points: 4
#     Node 20, Type 1, BuildingBlock: TATPOV_clean_sbu_0, # of connection points: 4
#     Node 21, Type 1, BuildingBlock: TATPOV_clean_sbu_0, # of connection points: 4
#     Node 22, Type 1, BuildingBlock: TATPOV_clean_sbu_0, # of connection points: 4
#     Node 23, Type 1, BuildingBlock: TATPOV_clean_sbu_0, # of connection points: 4
#     Node 24, Type 1, BuildingBlock: TATPOV_clean_sbu_0, # of connection points: 4
#     Node 25, Type 1, BuildingBlock: TATPOV_clean_sbu_0, # of connection points: 4
#     Node 26, Type 1, BuildingBlock: TATPOV_clean_sbu_0, # of connection points: 4
#     Node 27, Type 1, BuildingBlock: TATPOV_clean_sbu_0, # of connection points: 4
#     Edge 28, Type (0, 1), BuildingBlock: OJICUG_clean_linker_0, # of connection points: 2
#     Edge 29, Type (0, 1), BuildingBlock: OJICUG_clean_linker_0, # of connection points: 2
#     Edge 30, Type (0, 1), BuildingBlock: OJICUG_clean_linker_0, # of connection points: 2
#     Edge 31, Type (0, 1), BuildingBlock: OJICUG_clean_linker_0, # of connection points: 2
#     Edge 32, Type (0, 1), BuildingBlock: OJICUG_clean_linker_0, # of connection points: 2
#     Edge 33, Type (0, 1), BuildingBlock: OJICUG_clean_linker_0, # of connection points: 2
#     Edge 34, Type (0, 1), BuildingBlock: OJICUG_clean_linker_0, # of connection points: 2
#     Edge 35, Type (0, 1), BuildingBlock: OJICUG_clean_linker_0, # of connection points: 2
#     Edge 36, Type (0, 1), BuildingBlock: OJICUG_clean_linker_0, # of connection points: 2
#     Edge 37, Type (0, 1), BuildingBlock: OJICUG_clean_linker_0, # of connection points: 2
#     Edge 38, Type (0, 1), BuildingBlock: OJICUG_clean_linker_0, # of connection points: 2
#     Edge 39, Type (0, 1), BuildingBlock: OJICUG_clean_linker_0, # of connection points: 2
#     Edge 40, Type (0, 1), BuildingBlock: OJICUG_clean_linker_0, # of connection points: 2
#     Edge 41, Type (0, 1), BuildingBlock: OJICUG_clean_linker_0, # of connection points: 2
#     Edge 42, Type (0, 1), BuildingBlock: OJICUG_clean_linker_0, # of connection points: 2
#     Edge 43, Type (0, 1), BuildingBlock: OJICUG_clean_linker_0, # of connection points: 2
#     Edge 44, Type (0, 1), BuildingBlock: OJICUG_clean_linker_0, # of connection points: 2
#     Edge 45, Type (0, 1), BuildingBlock: OJICUG_clean_linker_0, # of connection points: 2
#     Edge 46, Type (0, 1), BuildingBlock: OJICUG_clean_linker_0, # of connection points: 2
#     Edge 47, Type (0, 1), BuildingBlock: OJICUG_clean_linker_0, # of connection points: 2
#     Edge 48, Type (0, 1), BuildingBlock: OJICUG_clean_linker_0, # of connection points: 2
#     Edge 49, Type (0, 1), BuildingBlock: OJICUG_clean_linker_0, # of connection points: 2
#     Edge 50, Type (0, 1), BuildingBlock: OJICUG_clean_linker_0, # of connection points: 2
#     Edge 51, Type (0, 1), BuildingBlock: OJICUG_clean_linker_0, # of connection points: 2
#     Edge 52, Type (0, 1), BuildingBlock: OJICUG_clean_linker_0, # of connection points: 2
#     Edge 53, Type (0, 1), BuildingBlock: OJICUG_clean_linker_0, # of connection points: 2
#     Edge 54, Type (0, 1), BuildingBlock: OJICUG_clean_linker_0, # of connection points: 2
#     Edge 55, Type (0, 1), BuildingBlock: OJICUG_clean_linker_0, # of connection points: 2
#     Edge 56, Type (0, 1), BuildingBlock: OJICUG_clean_linker_0, # of connection points: 2
#     Edge 57, Type (0, 1), BuildingBlock: OJICUG_clean_linker_0, # of connection points: 2
#     Edge 58, Type (0, 1), BuildingBlock: OJICUG_clean_linker_0, # of connection points: 2
#     Edge 59, Type (0, 1), BuildingBlock: OJICUG_clean_linker_0, # of connection points: 2
#     Edge 60, Type (0, 1), BuildingBlock: OJICUG_clean_linker_0, # of connection points: 2
#     Edge 61, Type (0, 1), BuildingBlock: OJICUG_clean_linker_0, # of connection points: 2
#     Edge 62, Type (0, 1), BuildingBlock: OJICUG_clean_linker_0, # of connection points: 2
#     Edge 63, Type (0, 1), BuildingBlock: OJICUG_clean_linker_0, # of connection points: 2
#     Edge 64, Type (0, 1), BuildingBlock: OJICUG_clean_linker_0, # of connection points: 2
#     Edge 65, Type (0, 1), BuildingBlock: OJICUG_clean_linker_0, # of connection points: 2
#     Edge 66, Type (0, 1), BuildingBlock: OJICUG_clean_linker_0, # of connection points: 2
#     Edge 67, Type (0, 1), BuildingBlock: OJICUG_clean_linker_0, # of connection points: 2
#     Edge 68, Type (0, 1), BuildingBlock: OJICUG_clean_linker_0, # of connection points: 2
#     Edge 69, Type (0, 1), BuildingBlock: OJICUG_clean_linker_0, # of connection points: 2
#     Edge 70, Type (0, 1), BuildingBlock: OJICUG_clean_linker_0, # of connection points: 2
#     Edge 71, Type (0, 1), BuildingBlock: OJICUG_clean_linker_0, # of connection points: 2
#     Edge 72, Type (0, 1), BuildingBlock: OJICUG_clean_linker_0, # of connection points: 2
#     Edge 73, Type (0, 1), BuildingBlock: OJICUG_clean_linker_0, # of connection points: 2
#     Edge 74, Type (0, 1), BuildingBlock: OJICUG_clean_linker_0, # of connection points: 2
#     Edge 75, Type (0, 1), BuildingBlock: OJICUG_clean_linker_0, # of connection points: 2
# Relax obj value: 0.003
# Max RMSD: 0.049
# Mean RMSD: 0.025
data_MOF--net-ctn--node1-TATPOV_clean_sbu_0--node2-BELTOD_clean_linker_0--edge1-OJICUG_clean_linker_0
_symmetry_space_group_name_H-M    P1
_symmetry_Int_Tables_number       1
_symmetry_cell_setting            triclinic
loop_
_symmetry_equiv_pos_as_xyz
'x, y, z'
_cell_length_a     46.901221
_cell_length_b     47.280209
_cell_length_c     46.81671
_cell_angle_alpha  90.441914
_cell_angle_beta   91.377779
_cell_angle_gamma 92.008772
loop_
_atom_site_label
_atom_site_type_symbol
_atom_site_fract_x
_atom_site_fract_y
_atom_site_fract_z
_atom_type_partial_charge
P0 P 0.05682 0.05616 0.04263 0.0
H1 H 0.04981 0.05432 0.10426 0.0
H2 H 0.00906 0.04354 0.13414 0.0
H3 H 0.95717 0.0236 0.05866 0.0
H4 H 0.99832 0.0347 0.02873 0.0
H5 H 0.10296 0.02935 0.0734 0.0
H6 H 0.13215 0.9891 0.06287 0.0
H7 H 0.08338 0.97362 0.98448 0.0
H8 H 0.05417 0.01433 0.99524 0.0
H9 H 0.00993 0.09414 0.03231 0.0
H10 H 0.08186 0.06489 0.98618 0.0
O11 O 0.07813 0.07826 0.06207 0.0
H12 H 0.99914 0.12679 0.99385 0.0
H13 H 0.07142 0.09794 0.94765 0.0
C14 C 0.0269 0.04596 0.06426 0.0
C15 C 0.0297 0.04759 0.09409 0.0
C16 C 0.00638 0.0412 0.11119 0.0
C17 C 0.97975 0.03286 0.09881 0.0
C18 C 0.97725 0.03038 0.06884 0.0
C19 C 0.00075 0.03661 0.05173 0.0
C20 C 0.07696 0.02534 0.03469 0.0
C21 C 0.09852 0.01734 0.05392 0.0
C22 C 0.11506 0.99409 0.04799 0.0
C23 C 0.11027 0.97816 0.02273 0.0
C24 C 0.08793 0.9857 0.00391 0.0
C25 C 0.07122 0.00894 0.01001 0.0
C26 C 0.04604 0.07617 0.01171 0.0
C27 C 0.02296 0.09412 0.01354 0.0
C28 C 0.01705 0.11315 0.99167 0.0
C29 C 0.03443 0.11504 0.96763 0.0
C30 C 0.05732 0.09672 0.96562 0.0
C31 C 0.06325 0.07769 0.98762 0.0
P32 P 0.27779 0.67065 0.21818 0.0
H33 H 0.30936 0.72369 0.20708 0.0
H34 H 0.30218 0.76096 0.1725 0.0
H35 H 0.22152 0.72107 0.14588 0.0
H36 H 0.22819 0.68436 0.18164 0.0
H37 H 0.33161 0.64547 0.23598 0.0
H38 H 0.36995 0.66128 0.26915 0.0
H39 H 0.31925 0.73094 0.29579 0.0
H40 H 0.2814 0.71549 0.26176 0.0
H41 H 0.23536 0.63152 0.19244 0.0
H42 H 0.25133 0.67105 0.27493 0.0
O43 O 0.29242 0.64807 0.19571 0.0
H44 H 0.19507 0.60433 0.21161 0.0
H45 H 0.2111 0.64377 0.29424 0.0
C46 C 0.26912 0.70135 0.19746 0.0
C47 C 0.28958 0.72341 0.19468 0.0
C48 C 0.28559 0.74462 0.17458 0.0
C49 C 0.26143 0.74381 0.15614 0.0
C50 C 0.24023 0.72249 0.15991 0.0
C51 C 0.24412 0.70137 0.18033 0.0
C52 C 0.3039 0.67966 0.24601 0.0
C53 C 0.32861 0.66399 0.24915 0.0
C54 C 0.35045 0.6729 0.26837 0.0
C55 C 0.34786 0.69759 0.28491 0.0
C56 C 0.32219 0.71215 0.28298 0.0
C57 C 0.30046 0.70329 0.26366 0.0
C58 C 0.24658 0.65307 0.23229 0.0
C59 C 0.23001 0.63459 0.21461 0.0
C60 C 0.20686 0.6192 0.22553 0.0
C61 C 0.19999 0.62188 0.25445 0.0
C62 C 0.21609 0.64112 0.27193 0.0
C63 C 0.2391 0.65675 0.26087 0.0
P64 P 0.01941 0.46714 0.05867 0.0
H65 H 0.04138 0.46245 0.00173 0.0
H66 H 0.03675 0.42558 0.96512 0.0
H67 H 0.99447 0.37001 0.02479 0.0
H68 H -0.00056 0.40724 0.06173 0.0
H69 H 0.00578 0.52705 0.05709 0.0
H70 H 0.96254 0.55147 0.0428 0.0
H71 H 0.91837 0.47079 0.02824 0.0
H72 H 0.96141 0.44651 0.04287 0.0
H73 H 0.05028 0.42422 0.09055 0.0
H74 H 0.99476 0.49254 0.10897 0.0
O75 O 0.04711 0.48919 0.05251 0.0
H76 H 0.05981 0.41835 0.14185 0.0
H77 H 0.00428 0.48684 0.15996 0.0
C78 C 0.02119 0.43743 0.03456 0.0
C79 C 0.03181 0.4421 0.00725 0.0
C80 C 0.02891 0.42109 0.98625 0.0
C81 C 0.01501 0.39502 0.99204 0.0
C82 C 0.00547 0.38983 0.01982 0.0
C83 C 0.00835 0.41103 0.04092 0.0
C84 C 0.98703 0.48499 0.05026 0.0
C85 C 0.98675 0.51463 0.05095 0.0
C86 C 0.962 0.52855 0.04303 0.0
C87 C 0.93724 0.51298 0.03417 0.0
C88 C 0.9373 0.48327 0.03461 0.0
C89 C 0.96193 0.4694 0.04288 0.0
C90 C 0.02131 0.45838 0.09594 0.0
C91 C 0.03946 0.43735 0.10561 0.0
C92 C 0.04494 0.43406 0.1349 0.0
C93 C 0.03283 0.45221 0.15483 0.0
C94 C 0.014 0.47267 0.14505 0.0
C95 C 0.00837 0.47576 0.11587 0.0
P96 P 0.69446 0.78273 0.17051 0.0
H97 H 0.71827 0.83243 0.14142 0.0
H98 H 0.75011 0.8716 0.15747 0.0
H99 H 0.76133 0.83093 0.23916 0.0
H100 H 0.72887 0.79206 0.22306 0.0
H101 H 0.66884 0.72958 0.14979 0.0
H102 H 0.68824 0.68966 0.12427 0.0
H103 H 0.77353 0.72534 0.13901 0.0
H104 H 0.7538 0.76563 0.16364 0.0
H105 H 0.64421 0.81194 0.18683 0.0
H106 H 0.69204 0.74185 0.21799 0.0
O107 O 0.67566 0.7949 0.14278 0.0
H108 H 0.61194 0.80691 0.22647 0.0
H109 H 0.65987 0.73697 0.25858 0.0
C110 C 0.72074 0.80967 0.18129 0.0
C111 C 0.7277 0.83185 0.16273 0.0
C112 C 0.74613 0.85417 0.17187 0.0
C113 C 0.75806 0.85461 0.19973 0.0
C114 C 0.75206 0.83155 0.21777 0.0
C115 C 0.7336 0.80925 0.20858 0.0
C116 C 0.70984 0.75055 0.15853 0.0
C117 C 0.69177 0.72843 0.14807 0.0
C118 C 0.70294 0.70554 0.13357 0.0
C119 C 0.73247 0.70438 0.12928 0.0
C120 C 0.75065 0.7258 0.14145 0.0
C121 C 0.7394 0.74879 0.15579 0.0
C122 C 0.67018 0.777 0.19924 0.0
C123 C 0.64765 0.79531 0.20218 0.0
C124 C 0.62938 0.79258 0.22509 0.0
C125 C 0.63349 0.77171 0.24591 0.0
C126 C 0.65604 0.75313 0.24282 0.0
C127 C 0.67441 0.75591 0.21969 0.0
P128 P 0.06952 0.95273 0.41622 0.0
H129 H 0.11636 0.95157 0.45809 0.0
H130 H 0.15559 0.98526 0.47037 0.0
H131 H 0.11976 0.04589 0.41244 0.0
H132 H 0.08028 0.01243 0.40066 0.0
H133 H 0.04343 0.89628 0.41727 0.0
H134 H 0.02025 0.86867 0.45471 0.0
H135 H 0.04012 0.93604 0.5155 0.0
H136 H 0.06275 0.96392 0.47777 0.0
H137 H 0.06482 0.97477 0.35829 0.0
H138 H 0.00952 0.96189 0.42964 0.0
O139 O 0.08668 0.93121 0.39465 0.0
H140 H 0.02447 0.9905 0.32929 0.0
H141 H 0.96892 0.9755 0.40052 0.0
C142 C 0.09513 0.97957 0.42878 0.0
C143 C 0.11647 0.97242 0.44867 0.0
C144 C 0.13886 0.99168 0.4557 0.0
C145 C 0.14064 0.01819 0.44239 0.0
C146 C 0.11887 0.02558 0.42299 0.0
C147 C 0.09626 0.00643 0.41628 0.0
C148 C 0.0555 0.93176 0.44493 0.0
C149 C 0.04317 0.90494 0.43875 0.0
C150 C 0.02976 0.8893 0.46006 0.0
C151 C 0.02854 0.90023 0.48797 0.0
C152 C 0.04113 0.92703 0.49422 0.0
C153 C 0.05417 0.94288 0.47273 0.0
C154 C 0.04017 0.96684 0.39599 0.0
C155 C 0.04396 0.97531 0.36769 0.0
C156 C 0.02076 0.98403 0.35105 0.0
C157 C 0.99316 0.98402 0.36231 0.0
C158 C 0.98976 0.97625 0.39106 0.0
C159 C 0.01306 0.96807 0.40778 0.0
P160 P 0.22676 0.75652 0.74374 0.0
H161 H 0.27141 0.76718 0.78633 0.0
H162 H 0.27136 0.78026 0.83688 0.0
H163 H 0.17936 0.78199 0.83352 0.0
H164 H 0.17945 0.76836 0.78282 0.0
H165 H 0.27677 0.73347 0.71645 0.0
H166 H 0.29805 0.68716 0.71819 0.0
H167 H 0.22862 0.656 0.7698 0.0
H168 H 0.2082 0.70286 0.76891 0.0
H169 H 0.18991 0.80355 0.73357 0.0
H170 H 0.18857 0.71428 0.71364 0.0
O171 O 0.24919 0.77904 0.72759 0.0
H172 H 0.14408 0.8078 0.70827 0.0
H173 H 0.14255 0.71824 0.68884 0.0
C174 C 0.22554 0.7671 0.78072 0.0
C175 C 0.25122 0.77046 0.7964 0.0
C176 C 0.25114 0.77782 0.82529 0.0
C177 C 0.22532 0.78208 0.83911 0.0
C178 C 0.19954 0.77904 0.82331 0.0
C179 C 0.19962 0.77127 0.79434 0.0
C180 C 0.2409 0.72157 0.74258 0.0
C181 C 0.26604 0.71663 0.72802 0.0
C182 C 0.27812 0.69 0.72888 0.0
C183 C 0.26519 0.66773 0.74424 0.0
C184 C 0.23952 0.67271 0.75821 0.0
C185 C 0.22764 0.69942 0.75753 0.0
C186 C 0.19252 0.7586 0.72578 0.0
C187 C 0.17961 0.78482 0.72395 0.0
C188 C 0.15336 0.78718 0.70961 0.0
C189 C 0.1396 0.76333 0.69663 0.0
C190 C 0.1527 0.73706 0.69842 0.0
C191 C 0.17896 0.73472 0.71285 0.0
P192 P 0.96368 0.52833 0.55119 0.0
H193 H 0.02433 0.52685 0.53751 0.0
H194 H 0.04843 0.5179 0.49257 0.0
H195 H 0.9673 0.51811 0.44698 0.0
H196 H 0.9434 0.52755 0.49178 0.0
H197 H 0.99285 0.56836 0.58999 0.0
H198 H 0.9874 0.61816 0.59994 0.0
H199 H 0.91489 0.61854 0.5409 0.0
H200 H 0.92259 0.56911 0.52902 0.0
H201 H 0.95892 0.46979 0.53502 0.0
H202 H 0.90073 0.53418 0.5586 0.0
O203 O 0.98439 0.51496 0.57686 0.0
H204 H 0.91889 0.4378 0.52244 0.0
H205 H 0.8602 0.50245 0.54464 0.0
C206 C 0.98206 0.52715 0.51798 0.0
C207 C 0.01182 0.52547 0.51777 0.0
C208 C 0.02556 0.52046 0.49212 0.0
C209 C 0.00961 0.51693 0.46645 0.0
C210 C 0.97999 0.52036 0.46656 0.0
C211 C 0.96637 0.52578 0.49211 0.0
C212 C 0.95729 0.56466 0.55975 0.0
C213 C 0.97557 0.57907 0.57939 0.0
C214 C 0.97224 0.6077 0.58524 0.0
C215 C 0.9502 0.6226 0.57184 0.0
C216 C 0.93215 0.60804 0.5517 0.0
C217 C 0.93611 0.57951 0.54527 0.0
C218 C 0.9329 0.50468 0.54683 0.0
C219 C 0.93746 0.47707 0.53748 0.0
C220 C 0.91451 0.45889 0.52997 0.0
C221 C 0.88636 0.46793 0.53159 0.0
C222 C 0.88167 0.49505 0.54275 0.0
C223 C 0.90487 0.51332 0.55045 0.0
P224 P 0.8386 0.85514 0.85437 0.0
H225 H 0.85824 0.89365 0.81011 0.0
H226 H 0.87724 0.88585 0.76227 0.0
H227 H 0.8666 0.79564 0.77336 0.0
H228 H 0.84654 0.80335 0.82027 0.0
H229 H 0.8114 0.90122 0.88431 0.0
H230 H 0.76335 0.91969 0.88092 0.0
H231 H 0.74117 0.85896 0.81387 0.0
H232 H 0.78921 0.84049 0.81754 0.0
H233 H 0.88156 0.81473 0.8703 0.0
H234 H 0.79145 0.82413 0.88259 0.0
O235 O 0.8609 0.87802 0.87162 0.0
H236 H 0.87851 0.76808 0.8928 0.0
H237 H 0.78841 0.77788 0.90502 0.0
C238 C 0.85185 0.84911 0.81914 0.0
C239 C 0.85995 0.87221 0.80218 0.0
C240 C 0.87064 0.86779 0.77491 0.0
C241 C 0.87361 0.84017 0.7645 0.0
C242 C 0.86482 0.81711 0.78121 0.0
C243 C 0.85358 0.82155 0.80814 0.0
C244 C 0.80393 0.8699 0.85078 0.0
C245 C 0.79628 0.89209 0.86869 0.0
C246 C 0.76883 0.90261 0.86675 0.0
C247 C 0.74853 0.89079 0.84709 0.0
C248 C 0.75628 0.86833 0.82937 0.0
C249 C 0.78377 0.85797 0.83123 0.0
C250 C 0.83671 0.82271 0.87432 0.0
C251 C 0.86123 0.80691 0.87811 0.0
C252 C 0.85945 0.78027 0.8908 0.0
C253 C 0.83318 0.76932 0.90043 0.0
C254 C 0.80895 0.78585 0.89789 0.0
C255 C 0.81068 0.8123 0.88487 0.0
P256 P 0.34899 0.35237 0.35767 0.0
H257 H 0.39785 0.38085 0.33048 0.0
H258 H 0.41763 0.37671 0.28272 0.0
H259 H 0.35171 0.31387 0.26 0.0
H260 H 0.33221 0.31802 0.30762 0.0
H261 H 0.32699 0.40856 0.36915 0.0
H262 H 0.27913 0.42734 0.36522 0.0
H263 H 0.24649 0.34617 0.33325 0.0
H264 H 0.29401 0.32738 0.33837 0.0
H265 H 0.38032 0.30016 0.35019 0.0
H266 H 0.31238 0.32946 0.40209 0.0
O267 O 0.36993 0.37348 0.37853 0.0
H268 H 0.37452 0.25298 0.37062 0.0
H269 H 0.30588 0.28224 0.422 0.0
C270 C 0.36353 0.34977 0.32256 0.0
C271 C 0.38765 0.36622 0.3152 0.0
C272 C 0.39897 0.36379 0.28794 0.0
C273 C 0.38614 0.34505 0.26758 0.0
C274 C 0.3618 0.32882 0.27505 0.0
C275 C 0.35066 0.33113 0.3023 0.0
C276 C 0.31398 0.36654 0.35425 0.0
C277 C 0.30948 0.39482 0.36143 0.0
C278 C 0.28213 0.40556 0.35897 0.0
C279 C 0.25889 0.38822 0.34904 0.0
C280 C 0.26373 0.35998 0.34148 0.0
C281 C 0.291 0.34927 0.34408 0.0
C282 C 0.34616 0.31806 0.37396 0.0
C283 C 0.36402 0.29641 0.36583 0.0
C284 C 0.36062 0.2694 0.37748 0.0
C285 C 0.33946 0.2637 0.39767 0.0
C286 C 0.32246 0.28587 0.40662 0.0
C287 C 0.32597 0.31285 0.39503 0.0
P288 P 0.52244 0.96827 0.5515 0.0
H289 H 0.53327 0.95958 0.49177 0.0
H290 H 0.52752 0.91853 0.46013 0.0
H291 H 0.50569 0.86598 0.53195 0.0
H292 H 0.51163 0.90753 0.56387 0.0
H293 H 0.50444 0.02633 0.55792 0.0
H294 H 0.45971 0.04928 0.54605 0.0
H295 H 0.42087 0.96804 0.52217 0.0
H296 H 0.46553 0.94531 0.53395 0.0
H297 H 0.57468 0.97176 0.58622 0.0
H298 H 0.48543 0.95197 0.5988 0.0
O299 O 0.54758 0.99086 0.53974 0.0
H300 H 0.58397 0.9689 0.63764 0.0
H301 H 0.49457 0.94918 0.65051 0.0
C302 C 0.52329 0.93652 0.53017 0.0
C303 C 0.52792 0.93915 0.5009 0.0
C304 C 0.52441 0.91572 0.48281 0.0
C305 C 0.51595 0.88916 0.4936 0.0
C306 C 0.5124 0.8862 0.52317 0.0
C307 C 0.51581 0.90988 0.54136 0.0
C308 C 0.48852 0.98429 0.54606 0.0
C309 C 0.4862 0.01347 0.55035 0.0
C310 C 0.46059 0.02651 0.54377 0.0
C311 C 0.43691 0.01048 0.53284 0.0
C312 C 0.43893 0.98099 0.53006 0.0
C313 C 0.46448 0.96798 0.53678 0.0
C314 C 0.52931 0.96261 0.58886 0.0
C315 C 0.5571 0.96668 0.60007 0.0
C316 C 0.56235 0.96518 0.62945 0.0
C317 C 0.53991 0.95929 0.6481 0.0
C318 C 0.51226 0.95381 0.63663 0.0
C319 C 0.507 0.95549 0.60716 0.0
P320 P 0.19373 0.2906 0.66311 0.0
H321 H 0.21465 0.34303 0.6366 0.0
H322 H 0.24571 0.38218 0.65405 0.0
H323 H 0.26069 0.33724 0.73274 0.0
H324 H 0.22907 0.29827 0.71524 0.0
H325 H 0.1696 0.23525 0.64716 0.0
H326 H 0.18986 0.1944 0.62404 0.0
H327 H 0.27411 0.23393 0.63382 0.0
H328 H 0.25347 0.27512 0.65593 0.0
H329 H 0.13947 0.31627 0.67232 0.0
H330 H 0.19126 0.25483 0.71446 0.0
O331 O 0.17678 0.30169 0.63372 0.0
H332 H 0.10512 0.31271 0.71028 0.0
H333 H 0.15708 0.25172 0.75345 0.0
C334 C 0.2192 0.31793 0.67483 0.0
C335 C 0.22473 0.34148 0.65754 0.0
C336 C 0.24271 0.36382 0.66747 0.0
C337 C 0.25553 0.36299 0.6949 0.0
C338 C 0.25075 0.33879 0.71172 0.0
C339 C 0.23277 0.31644 0.70172 0.0
C340 C 0.21 0.25813 0.65339 0.0
C341 C 0.19252 0.23477 0.64496 0.0
C342 C 0.2042 0.21135 0.6318 0.0
C343 C 0.23365 0.2109 0.62679 0.0
C344 C 0.2513 0.23374 0.63687 0.0
C345 C 0.23954 0.25725 0.64983 0.0
C346 C 0.16769 0.28556 0.69039 0.0
C347 C 0.14335 0.30182 0.6897 0.0
C348 C 0.12384 0.29997 0.71165 0.0
C349 C 0.12849 0.28217 0.73514 0.0
C350 C 0.15278 0.26549 0.7356 0.0
C351 C 0.17234 0.2673 0.7134 0.0
P352 P 0.77762 0.16306 0.71407 0.0
H353 H 0.80369 0.16786 0.65875 0.0
H354 H 0.79912 0.20129 0.61982 0.0
H355 H 0.73576 0.24557 0.66651 0.0
H356 H 0.7401 0.21128 0.70557 0.0
H357 H 0.83451 0.14558 0.73225 0.0
H358 H 0.87189 0.16789 0.76266 0.0
H359 H 0.8167 0.23698 0.78012 0.0
H360 H 0.77954 0.2147 0.74898 0.0
H361 H 0.72124 0.14583 0.69203 0.0
H362 H 0.76299 0.15746 0.77456 0.0
O363 O 0.78978 0.13303 0.7008 0.0
H364 H 0.68021 0.123 0.71456 0.0
H365 H 0.72165 0.13568 0.79739 0.0
C366 C 0.772 0.18689 0.68485 0.0
C367 C 0.78852 0.18449 0.66054 0.0
C368 C 0.78602 0.20379 0.63836 0.0
C369 C 0.76723 0.22624 0.64018 0.0
C370 C 0.75025 0.22838 0.66442 0.0
C371 C 0.75279 0.2089 0.68673 0.0
C372 C 0.80432 0.1786 0.73824 0.0
C373 C 0.83034 0.16544 0.74274 0.0
C374 C 0.85167 0.17812 0.76038 0.0
C375 C 0.84736 0.20426 0.77385 0.0
C376 C 0.82089 0.21703 0.76979 0.0
C377 C 0.79959 0.20432 0.75207 0.0
C378 C 0.74502 0.15361 0.73159 0.0
C379 C 0.72112 0.14439 0.71511 0.0
C380 C 0.69761 0.1314 0.72807 0.0
C381 C 0.69767 0.12729 0.75782 0.0
C382 C 0.72106 0.13811 0.7744 0.0
C383 C 0.74465 0.15089 0.76137 0.0
P384 P 0.56539 0.54162 0.55205 0.0
H385 H 0.53697 0.5746 0.59496 0.0
H386 H 0.4955 0.56498 0.62429 0.0
H387 H 0.48063 0.48462 0.58089 0.0
H388 H 0.52255 0.49437 0.55174 0.0
H389 H 0.5972 0.52234 0.50227 0.0
H390 H 0.62829 0.48237 0.49566 0.0
H391 H 0.60548 0.45081 0.57871 0.0
H392 H 0.57511 0.49106 0.58539 0.0
H393 H 0.5981 0.58657 0.52404 0.0
H394 H 0.51602 0.54367 0.51198 0.0
O395 O 0.58779 0.56058 0.57351 0.0
H396 H 0.58632 0.61943 0.48591 0.0
H397 H 0.50385 0.57678 0.47392 0.0
C398 C 0.53327 0.53487 0.57174 0.0
C399 C 0.52476 0.55493 0.5917 0.0
C400 C 0.50085 0.5495 0.6083 0.0
C401 C 0.48481 0.52391 0.60513 0.0
C402 C 0.49279 0.5043 0.58423 0.0
C403 C 0.51672 0.50985 0.56753 0.0
C404 C 0.58334 0.50942 0.54409 0.0
C405 C 0.59836 0.50646 0.51875 0.0
C406 C 0.61615 0.48354 0.51499 0.0
C407 C 0.61952 0.46338 0.53671 0.0
C408 C 0.60368 0.46606 0.56168 0.0
C409 C 0.58599 0.48892 0.56538 0.0
C410 C 0.55774 0.56301 0.52121 0.0
C411 C 0.57756 0.58413 0.51308 0.0
C412 C 0.57072 0.60303 0.49135 0.0
C413 C 0.54394 0.60108 0.47714 0.0
C414 C 0.52467 0.5789 0.48438 0.0
C415 C 0.53155 0.56 0.50623 0.0
P416 P 0.57257 0.45373 0.90731 0.0
H417 H 0.60754 0.46372 0.95941 0.0
H418 H 0.6473 0.497 0.97056 0.0
H419 H 0.63372 0.53771 0.88928 0.0
H420 H 0.59436 0.50394 0.87801 0.0
H421 H 0.58428 0.40006 0.93512 0.0
H422 H 0.5629 0.37546 0.97545 0.0
H423 H 0.50709 0.44507 0.98781 0.0
H424 H 0.52852 0.46953 0.94738 0.0
H425 H 0.54303 0.4298 0.85667 0.0
H426 H 0.53884 0.50486 0.9091 0.0
O427 O 0.59053 0.43032 0.88862 0.0
H428 H 0.5021 0.44478 0.82801 0.0
H429 H 0.4975 0.51981 0.88067 0.0
C430 C 0.59765 0.48167 0.91807 0.0
C431 C 0.61262 0.48025 0.94429 0.0
C432 C 0.63536 0.49935 0.95069 0.0
C433 C 0.64374 0.51997 0.93078 0.0
C434 C 0.62797 0.52191 0.90496 0.0
C435 C 0.60528 0.50279 0.89859 0.0
C436 C 0.55753 0.43632 0.93781 0.0
C437 C 0.56744 0.41004 0.94648 0.0
C438 C 0.55536 0.3961 0.9697 0.0
C439 C 0.53317 0.40825 0.98469 0.0
C440 C 0.52383 0.43498 0.97639 0.0
C441 C 0.53607 0.44897 0.95326 0.0
C442 C 0.54412 0.46636 0.88482 0.0
C443 C 0.53355 0.44972 0.86177 0.0
C444 C 0.5102 0.45832 0.84536 0.0
C445 C 0.49669 0.4835 0.85206 0.0
C446 C 0.50746 0.50026 0.87509 0.0
C447 C 0.53107 0.49179 0.89128 0.0
P448 P 0.73702 0.25307 0.23136 0.0
H449 H 0.78246 0.27646 0.26851 0.0
H450 H 0.78495 0.28928 0.31919 0.0
H451 H 0.6958 0.26532 0.32681 0.0
H452 H 0.6935 0.25206 0.27593 0.0
H453 H 0.79095 0.22994 0.21343 0.0
H454 H 0.80994 0.18259 0.21564 0.0
H455 H 0.72998 0.15059 0.24891 0.0
H456 H 0.71154 0.19833 0.24747 0.0
H457 H 0.69581 0.2974 0.23449 0.0
H458 H 0.7022 0.21717 0.19113 0.0
O459 O 0.75925 0.27454 0.21366 0.0
H460 H 0.64964 0.30416 0.21083 0.0
H461 H 0.65566 0.22338 0.16792 0.0
C462 C 0.73768 0.26394 0.26832 0.0
C463 C 0.76336 0.27424 0.28097 0.0
C464 C 0.76478 0.28143 0.30994 0.0
C465 C 0.74051 0.2784 0.32687 0.0
C466 C 0.71468 0.26822 0.31414 0.0
C467 C 0.71339 0.26066 0.28512 0.0
C468 C 0.74968 0.21755 0.22992 0.0
C469 C 0.77736 0.21267 0.22084 0.0
C470 C 0.78818 0.18549 0.22199 0.0
C471 C 0.77154 0.16267 0.23244 0.0
C472 C 0.74356 0.16768 0.24107 0.0
C473 C 0.73285 0.19491 0.24005 0.0
C474 C 0.70204 0.25641 0.21527 0.0
C475 C 0.68699 0.28097 0.22029 0.0
C476 C 0.66055 0.28477 0.20678 0.0
C477 C 0.64878 0.26419 0.18765 0.0
C478 C 0.66414 0.2397 0.18242 0.0
C479 C 0.69064 0.23595 0.19597 0.0
P480 P 0.45549 0.03646 0.04937 0.0
H481 H 0.51516 0.0405 0.03269 0.0
H482 H 0.53855 0.03023 0.9877 0.0
H483 H 0.45607 0.01463 0.94645 0.0
H484 H 0.43289 0.02501 0.99121 0.0
H485 H 0.45544 0.06809 0.10285 0.0
H486 H 0.45181 0.11843 0.11379 0.0
H487 H 0.43784 0.13537 0.02407 0.0
H488 H 0.4413 0.0848 0.01329 0.0
H489 H 0.44655 0.97659 0.05833 0.0
H490 H 0.39485 0.04724 0.03633 0.0
O491 O 0.47746 0.02433 0.07468 0.0
H492 H 0.40624 0.94402 0.0477 0.0
H493 H 0.35411 0.01441 0.02542 0.0
C494 C 0.47237 0.03275 0.01549 0.0
C495 C 0.50215 0.03514 0.01388 0.0
C496 C 0.51546 0.02942 0.98815 0.0
C497 C 0.4991 0.02123 0.96371 0.0
C498 C 0.4692 0.02037 0.9651 0.0
C499 C 0.45595 0.0263 0.99072 0.0
C500 C 0.44925 0.0729 0.05723 0.0
C501 C 0.45141 0.08261 0.08555 0.0
C502 C 0.44944 0.11137 0.09176 0.0
C503 C 0.44497 0.13087 0.06973 0.0
C504 C 0.44128 0.12082 0.04148 0.0
C505 C 0.44341 0.09199 0.03528 0.0
C506 C 0.42357 0.01431 0.04852 0.0
C507 C 0.42626 0.98516 0.05199 0.0
C508 C 0.40329 0.96655 0.04562 0.0
C509 C 0.37721 0.97673 0.03541 0.0
C510 C 0.37398 0.00609 0.03336 0.0
C511 C 0.39717 0.02481 0.03968 0.0
Zn512 Zn 0.28345 0.82882 0.00072 0.0
Zn513 Zn 0.23782 0.85458 0.01024 0.0
O514 O 0.24027 0.82713 0.04528 0.0
O515 O 0.28202 0.80903 0.03782 0.0
O516 O 0.20248 0.87734 0.01693 0.0
O517 O 0.30743 0.86412 0.99786 0.0
O518 O 0.26984 0.88637 0.01194 0.0
C519 C 0.26044 0.81123 0.05323 0.0
C520 C 0.24432 0.81709 0.95604 0.0
O521 O 0.23024 0.83514 0.96991 0.0
O522 O 0.26817 0.80949 0.96579 0.0
C523 C 0.1933 0.89381 0.99765 0.0
O524 O 0.20616 0.8947 0.97303 0.0
C525 C 0.29616 0.88675 0.00558 0.0
Zn526 Zn 0.08377 0.42935 0.32917 0.0
Zn527 Zn 0.1086 0.48178 0.31984 0.0
O528 O 0.08414 0.48958 0.35423 0.0
O529 O 0.06176 0.44842 0.3607 0.0
O530 O 0.12875 0.51904 0.31182 0.0
O531 O 0.12347 0.41463 0.33768 0.0
O532 O 0.14217 0.45675 0.32819 0.0
C533 C 0.06626 0.47419 0.36771 0.0
C534 C 0.07231 0.45054 0.27272 0.0
O535 O 0.08664 0.47196 0.28261 0.0
O536 O 0.06831 0.42888 0.28809 0.0
C537 C 0.11947 0.53717 0.29432 0.0
O538 O 0.09458 0.53249 0.28138 0.0
C539 C 0.1452 0.43105 0.33511 0.0
Zn540 Zn 0.8108 0.59467 0.93658 0.0
Zn541 Zn 0.79512 0.61484 0.98782 0.0
O542 O 0.82855 0.58979 0.99894 0.0
O543 O 0.83983 0.57134 0.9575 0.0
O544 O 0.78481 0.63407 0.02451 0.0
O545 O 0.82166 0.63413 0.9232 0.0
O546 O 0.80606 0.64967 0.96415 0.0
C547 C 0.84373 0.57345 0.98432 0.0
C548 C 0.75202 0.5805 0.95022 0.0
O549 O 0.7585 0.59304 0.97383 0.0
O550 O 0.77033 0.57911 0.93083 0.0
C551 C 0.76818 0.62496 0.04368 0.0
O552 O 0.756 0.5996 0.04092 0.0
C553 C 0.81652 0.65453 0.93976 0.0
Zn554 Zn 0.83189 0.00221 0.28111 0.0
Zn555 Zn 0.86218 0.00604 0.23307 0.0
O556 O 0.83983 0.04333 0.23256 0.0
O557 O 0.81443 0.03932 0.27139 0.0
O558 O 0.88896 0.00849 0.19972 0.0
O559 O 0.86761 0.00205 0.306 0.0
O560 O 0.89163 0.00252 0.26621 0.0
C561 C 0.82152 0.05315 0.24945 0.0
C562 C 0.81946 0.95616 0.24096 0.0
O563 O 0.83725 0.9697 0.22548 0.0
O564 O 0.81397 0.96545 0.26562 0.0
C565 C 0.88482 0.01976 0.17545 0.0
O566 O 0.86022 0.03114 0.1696 0.0
C567 C 0.89116 0.00165 0.2934 0.0
Zn568 Zn 0.30668 0.09098 0.4386 0.0
Zn569 Zn 0.29481 0.1136 0.49004 0.0
O570 O 0.32756 0.08777 0.50096 0.0
O571 O 0.33604 0.06775 0.45949 0.0
O572 O 0.2861 0.1349 0.52609 0.0
O573 O 0.3179 0.12931 0.42283 0.0
O574 O 0.30666 0.14693 0.4645 0.0
C575 C 0.3414 0.0705 0.48606 0.0
C576 C 0.24871 0.07939 0.4556 0.0
O577 O 0.25704 0.0923 0.47849 0.0
O578 O 0.26561 0.07681 0.43511 0.0
C579 C 0.26984 0.12688 0.54602 0.0
O580 O 0.25754 0.10149 0.54476 0.0
C581 C 0.3154 0.15048 0.43919 0.0
Zn582 Zn 0.33116 0.50653 0.78236 0.0
Zn583 Zn 0.35884 0.51375 0.73295 0.0
O584 O 0.33582 0.55028 0.7365 0.0
O585 O 0.3134 0.54444 0.77694 0.0
O586 O 0.38215 0.5199 0.69746 0.0
O587 O 0.36849 0.50425 0.80443 0.0
O588 O 0.39056 0.50864 0.76367 0.0
C589 C 0.31888 0.55927 0.75521 0.0
C590 C 0.3169 0.46305 0.73977 0.0
O591 O 0.33416 0.47748 0.72449 0.0
O592 O 0.31217 0.47098 0.76509 0.0
C593 C 0.39823 0.50056 0.68896 0.0
O594 O 0.39817 0.47641 0.70267 0.0
C595 C 0.39141 0.50538 0.79068 0.0
Zn596 Zn 0.7952 0.32155 0.49279 0.0
Zn597 Zn 0.7477 0.34495 0.50045 0.0
O598 O 0.74862 0.31648 0.53459 0.0
O599 O 0.79208 0.30133 0.52976 0.0
O600 O 0.71128 0.36666 0.50459 0.0
O601 O 0.81761 0.35795 0.4914 0.0
O602 O 0.77848 0.37766 0.50539 0.0
C603 C 0.76928 0.30175 0.54362 0.0
C604 C 0.75928 0.30977 0.44558 0.0
O605 O 0.74363 0.32663 0.45925 0.0
O606 O 0.78277 0.30261 0.45658 0.0
C607 C 0.70786 0.38082 0.52741 0.0
O608 O 0.72711 0.37941 0.54816 0.0
C609 C 0.80494 0.37955 0.49973 0.0
Zn610 Zn 0.57458 0.93588 0.82543 0.0
Zn611 Zn 0.6015 0.98791 0.81901 0.0
O612 O 0.57519 0.99562 0.85203 0.0
O613 O 0.55282 0.95429 0.85748 0.0
O614 O 0.62337 0.02456 0.81278 0.0
O615 O 0.61362 0.91929 0.83356 0.0
O616 O 0.63365 0.96172 0.82878 0.0
C617 C 0.55704 0.98 0.86491 0.0
C618 C 0.5667 0.95929 0.7693 0.0
O619 O 0.58213 0.97948 0.7802 0.0
O620 O 0.55993 0.93795 0.78423 0.0
C621 C 0.61447 0.04484 0.79772 0.0
O622 O 0.5886 0.04305 0.78632 0.0
C623 C 0.63577 0.93546 0.83372 0.0
Zn624 Zn 0.98693 0.30568 0.83725 0.0
Zn625 Zn 0.00141 0.2604 0.86573 0.0
O626 O 0.03448 0.26384 0.83691 0.0
O627 O 0.02293 0.30317 0.81521 0.0
O628 O 0.01043 0.22706 0.89104 0.0
O629 O 0.98707 0.33008 0.87212 0.0
O630 O 0.00146 0.29315 0.89599 0.0
C631 C 0.03977 0.28304 0.81854 0.0
C632 C 0.94497 0.26135 0.82987 0.0
O633 O 0.96225 0.24856 0.8464 0.0
O634 O 0.95066 0.28661 0.82261 0.0
C635 C 0.0154 0.20202 0.88287 0.0
O636 O 0.01542 0.19614 0.8554 0.0
C637 C 0.99512 0.31919 0.8954 0.0
Zn638 Zn 0.49275 0.79029 0.34716 0.0
Zn639 Zn 0.50603 0.74613 0.37602 0.0
O640 O 0.53933 0.74974 0.34718 0.0
O641 O 0.52921 0.78979 0.32616 0.0
O642 O 0.51667 0.71292 0.40107 0.0
O643 O 0.49029 0.81505 0.38112 0.0
O644 O 0.50542 0.77924 0.40626 0.0
C645 C 0.54556 0.7693 0.32949 0.0
C646 C 0.4502 0.74697 0.33937 0.0
O647 O 0.46643 0.7341 0.35693 0.0
O648 O 0.4573 0.77157 0.33114 0.0
C649 C 0.51117 0.68688 0.39546 0.0
O650 O 0.49758 0.67983 0.37144 0.0
C651 C 0.49803 0.80497 0.40485 0.0
Zn652 Zn 0.92352 0.79951 0.59588 0.0
Zn653 Zn 0.97495 0.79377 0.62463 0.0
O654 O 0.98457 0.82161 0.59264 0.0
O655 O 0.94384 0.82662 0.56909 0.0
O656 O 0.01253 0.78957 0.64562 0.0
O657 O 0.9076 0.81377 0.63361 0.0
O658 O 0.94914 0.80797 0.6554 0.0
C659 C 0.97031 0.8325 0.57227 0.0
C660 C 0.94361 0.7423 0.59652 0.0
O661 O 0.96403 0.75364 0.61146 0.0
O662 O 0.9237 0.75715 0.58669 0.0
C663 C 0.03206 0.77503 0.63507 0.0
O664 O 0.02758 0.76281 0.60998 0.0
C665 C 0.92321 0.81495 0.65613 0.0
Zn666 Zn 0.43109 0.3087 0.0963 0.0
Zn667 Zn 0.48291 0.30134 0.1229 0.0
O668 O 0.49256 0.32914 0.09096 0.0
O669 O 0.45107 0.33661 0.06984 0.0
O670 O 0.52077 0.2952 0.14266 0.0
O671 O 0.41628 0.32172 0.13462 0.0
O672 O 0.45858 0.31643 0.15491 0.0
C673 C 0.47783 0.3413 0.07174 0.0
C674 C 0.44932 0.25104 0.09467 0.0
O675 O 0.47057 0.26173 0.10893 0.0
O676 O 0.42941 0.26662 0.08619 0.0
C677 C 0.54066 0.28335 0.12961 0.0
O678 O 0.53635 0.27551 0.10282 0.0
C679 C 0.43263 0.3232 0.15659 0.0
C680 C 0.2427 0.77302 0.8887 0.0
C681 C 0.22587 0.7889 0.87009 0.0
H682 H 0.26104 0.76915 0.93049 0.0
C683 C 0.21171 0.81228 0.88099 0.0
H684 H 0.25336 0.75458 0.88103 0.0
C685 C 0.2161 0.82077 0.90965 0.0
C686 C 0.23466 0.80592 0.92765 0.0
H687 H 0.19854 0.82482 0.86703 0.0
H688 H 0.2063 0.83975 0.9172 0.0
C689 C 0.24701 0.78138 0.91708 0.0
C690 C 0.01207 0.48338 0.42528 0.0
C691 C 0.0234 0.50726 0.4402 0.0
H692 H 0.01688 0.45407 0.39084 0.0
C693 C 0.04848 0.52079 0.43063 0.0
H694 H 0.99291 0.47239 0.43243 0.0
C695 C 0.06207 0.5105 0.40658 0.0
C696 C 0.05111 0.48616 0.39209 0.0
H697 H 0.05758 0.53926 0.44179 0.0
H698 H 0.08152 0.52119 0.39977 0.0
C699 C 0.0259 0.4728 0.40161 0.0
C700 C 0.81519 0.73451 0.93647 0.0
C701 C 0.83056 0.74018 0.91166 0.0
H702 H 0.79895 0.70304 0.96499 0.0
C703 C 0.84216 0.71759 0.89671 0.0
H704 H 0.80618 0.75157 0.94848 0.0
C705 C 0.83783 0.68979 0.90598 0.0
C706 C 0.82208 0.68404 0.93056 0.0
H707 H 0.85385 0.72135 0.87735 0.0
H708 H 0.84664 0.67279 0.89371 0.0
C709 C 0.81114 0.70674 0.94594 0.0
C710 C 0.94416 0.0037 0.35569 0.0
C711 C 0.96784 0.99072 0.34397 0.0
H712 H 0.90139 0.01709 0.34901 0.0
C713 C 0.96648 0.9829 0.31485 0.0
H714 H 0.94455 0.01071 0.37776 0.0
C715 C 0.94193 0.98734 0.29816 0.0
C716 C 0.91796 0.99917 0.31032 0.0
H717 H 0.98397 0.97244 0.30505 0.0
H718 H 0.94136 0.98052 0.276 0.0
C719 C 0.91943 0.00757 0.33916 0.0
C720 C 0.26567 0.19534 0.58794 0.0
C721 C 0.24529 0.18831 0.6085 0.0
H722 H 0.28948 0.1816 0.55242 0.0
C723 C 0.23459 0.16015 0.60966 0.0
H724 H 0.27407 0.21685 0.586 0.0
C725 C 0.24323 0.13985 0.59001 0.0
C726 C 0.26278 0.14727 0.5688 0.0
H727 H 0.21915 0.15389 0.62545 0.0
H728 H 0.23403 0.11856 0.59101 0.0
C729 C 0.27435 0.1751 0.56843 0.0
C730 C 0.45748 0.49018 0.63649 0.0
C731 C 0.46082 0.51728 0.62458 0.0
H732 H 0.4352 0.46367 0.66601 0.0
C733 C 0.4421 0.53836 0.63274 0.0
H734 H 0.47168 0.47353 0.63094 0.0
C735 C 0.4212 0.53273 0.65298 0.0
C736 C 0.41856 0.50591 0.66562 0.0
H737 H 0.44382 0.55934 0.62369 0.0
H738 H 0.40754 0.54962 0.65918 0.0
C739 C 0.43664 0.48458 0.65677 0.0
C740 C 0.7928 0.25784 0.60619 0.0
C741 C 0.76685 0.24786 0.61729 0.0
H742 H 0.81375 0.28264 0.57473 0.0
C743 C 0.74118 0.25779 0.60551 0.0
H744 H 0.81296 0.25128 0.61526 0.0
C745 C 0.74159 0.27622 0.58206 0.0
C746 C 0.76768 0.28487 0.57012 0.0
H747 H 0.72084 0.2505 0.61371 0.0
H748 H 0.72159 0.28283 0.5727 0.0
C749 C 0.79321 0.27596 0.58295 0.0
C750 C 0.53414 0.93834 0.69687 0.0
C751 C 0.5454 0.95981 0.67942 0.0
H752 H 0.53205 0.92125 0.73903 0.0
C753 C 0.56244 0.98179 0.69198 0.0
H754 H 0.521 0.92112 0.68772 0.0
C755 C 0.56867 0.98198 0.72127 0.0
C756 C 0.55814 0.96009 0.73868 0.0
H757 H 0.57101 0.99888 0.67912 0.0
H758 H 0.5822 0.99906 0.73014 0.0
C759 C 0.54054 0.93841 0.72622 0.0
C760 C 0.88979 0.20387 0.80809 0.0
C761 C 0.87106 0.21898 0.79042 0.0
H762 H 0.92776 0.20535 0.83468 0.0
C763 C 0.87605 0.24824 0.78733 0.0
H764 H 0.88636 0.18135 0.81119 0.0
C765 C 0.89956 0.26193 0.80083 0.0
C766 C 0.91881 0.24677 0.8178 0.0
H767 H 0.86236 0.2605 0.77361 0.0
H768 H 0.90296 0.28441 0.79737 0.0
C769 C 0.91341 0.21764 0.82169 0.0
C770 C 0.52076 0.8389 0.47618 0.0
C771 C 0.50878 0.86562 0.47333 0.0
H772 H 0.5268 0.79831 0.45652 0.0
C773 C 0.49086 0.8707 0.44966 0.0
H774 H 0.53457 0.83447 0.49435 0.0
C775 C 0.48637 0.85029 0.42835 0.0
C776 C 0.49972 0.82418 0.43004 0.0
H777 H 0.48084 0.89089 0.44726 0.0
H778 H 0.47306 0.85542 0.41001 0.0
C779 C 0.5163 0.81827 0.45459 0.0
C780 C 0.09896 0.25664 0.77218 0.0
C781 C 0.10823 0.28199 0.75914 0.0
H782 H 0.06993 0.23696 0.80159 0.0
C783 C 0.09686 0.30755 0.7682 0.0
H784 H 0.10734 0.2366 0.76569 0.0
C785 C 0.07548 0.30769 0.7883 0.0
C786 C 0.06505 0.28233 0.80025 0.0
H787 H 0.1041 0.32755 0.7593 0.0
H788 H 0.06667 0.32778 0.79406 0.0
C789 C 0.07756 0.25683 0.79269 0.0
C790 C 0.54277 0.65165 0.46105 0.0
C791 C 0.5358 0.62285 0.45582 0.0
H792 H 0.54047 0.69427 0.44636 0.0
C793 C 0.52072 0.61527 0.43042 0.0
H794 H 0.55396 0.65833 0.48059 0.0
C795 C 0.51287 0.63597 0.41073 0.0
C796 C 0.51978 0.66477 0.41606 0.0
H797 H 0.51521 0.59328 0.4256 0.0
H798 H 0.50131 0.62938 0.39137 0.0
C799 C 0.53485 0.67232 0.44147 0.0
C800 C 0.87433 0.84497 0.71129 0.0
C801 C 0.88678 0.83511 0.73672 0.0
H802 H 0.87592 0.84594 0.66553 0.0
C803 C 0.91163 0.81955 0.73558 0.0
H804 H 0.85508 0.85697 0.7118 0.0
C805 C 0.92381 0.81373 0.70939 0.0
C806 C 0.91102 0.82285 0.68377 0.0
H807 H 0.92158 0.81185 0.755 0.0
H808 H 0.94288 0.80145 0.70919 0.0
C809 C 0.88618 0.83859 0.68494 0.0
C810 C 0.98571 0.87265 0.50444 0.0
C811 C 0.01336 0.88393 0.51016 0.0
H812 H 0.95031 0.84794 0.51971 0.0
C813 C 0.02648 0.87908 0.53687 0.0
H814 H 0.97504 0.87633 0.48409 0.0
C815 C 0.01245 0.86255 0.55724 0.0
C816 C 0.98485 0.85102 0.5514 0.0
H817 H 0.04784 0.88751 0.54172 0.0
H818 H 0.02326 0.85872 0.57747 0.0
C819 C 0.97152 0.85655 0.52491 0.0
C820 C 0.09056 0.78277 0.69219 0.0
C821 C 0.11187 0.76598 0.68103 0.0
H822 H 0.0487 0.79874 0.68656 0.0
C823 C 0.10661 0.75204 0.6547 0.0
H824 H 0.09381 0.79351 0.71259 0.0
C825 C 0.08071 0.75497 0.63979 0.0
C826 C 0.05946 0.77185 0.65091 0.0
H827 H 0.12272 0.73922 0.64535 0.0
H828 H 0.07742 0.74405 0.61949 0.0
C829 C 0.06465 0.78565 0.67733 0.0
C830 C 0.95452 0.66426 0.60577 0.0
C831 C 0.9467 0.65322 0.57853 0.0
H832 H 0.96014 0.70108 0.6325 0.0
C833 C 0.93639 0.67191 0.55768 0.0
H834 H 0.96164 0.65064 0.62279 0.0
C835 C 0.93443 0.70078 0.56381 0.0
C836 C 0.94347 0.71168 0.59059 0.0
H837 H 0.93058 0.66454 0.53633 0.0
H838 H 0.92685 0.71475 0.54725 0.0
C839 C 0.9534 0.69318 0.61153 0.0
C840 C 0.77098 0.89029 0.2382 0.0
C841 C 0.77512 0.87981 0.2105 0.0
H842 H 0.78153 0.92235 0.26939 0.0
C843 C 0.79459 0.89436 0.19295 0.0
H844 H 0.75582 0.87995 0.25213 0.0
C845 C 0.8093 0.91899 0.20281 0.0
C846 C 0.80478 0.92963 0.23041 0.0
H847 H 0.79848 0.88671 0.17158 0.0
H848 H 0.824 0.92979 0.18873 0.0
C849 C 0.7856 0.91482 0.24801 0.0
C850 C 0.80234 0.12323 0.21563 0.0
C851 C 0.78384 0.1342 0.2359 0.0
H852 H 0.82876 0.08903 0.20382 0.0
C853 C 0.77778 0.11809 0.26024 0.0
H854 H 0.80729 0.13495 0.19649 0.0
C855 C 0.78985 0.09183 0.2643 0.0
C856 C 0.80851 0.08089 0.24422 0.0
H857 H 0.76414 0.12601 0.27661 0.0
H858 H 0.78475 0.08027 0.2835 0.0
C859 C 0.81457 0.09685 0.21975 0.0
C860 C 0.36209 0.93448 0.00626 0.0
C861 C 0.35469 0.95629 0.02485 0.0
H862 H 0.34924 0.89589 0.98514 0.0
C863 C 0.32649 0.95716 0.03426 0.0
H864 H 0.3835 0.93369 0.99816 0.0
C865 C 0.3066 0.93533 0.02673 0.0
C866 C 0.31472 0.91249 0.00963 0.0
H867 H 0.32028 0.9739 0.0485 0.0
H868 H 0.28542 0.93562 0.03542 0.0
C869 C 0.34238 0.91289 0.99872 0.0
C870 C 0.22577 0.42705 0.33627 0.0
C871 C 0.22976 0.39949 0.3463 0.0
H872 H 0.19608 0.45859 0.32491 0.0
C873 C 0.20565 0.3826 0.35324 0.0
H874 H 0.24381 0.4405 0.33036 0.0
C875 C 0.17821 0.39286 0.34979 0.0
C876 C 0.17425 0.42032 0.33952 0.0
H877 H 0.20796 0.36145 0.36148 0.0
H878 H 0.16011 0.37924 0.3552 0.0
C879 C 0.19836 0.43736 0.33299 0.0
C880 C 0.17843 0.04256 0.47375 0.0
C881 C 0.16667 0.03661 0.44636 0.0
H882 H 0.21352 0.06143 0.49826 0.0
C883 C 0.18115 0.04655 0.42233 0.0
H884 H 0.16762 0.03515 0.49261 0.0
C885 C 0.20743 0.06109 0.42551 0.0
C886 C 0.21963 0.06643 0.45281 0.0
H887 H 0.17273 0.04202 0.40097 0.0
H888 H 0.21846 0.06774 0.40649 0.0
C889 C 0.20458 0.05765 0.47697 0.0
C890 C 0.64661 0.10929 0.76108 0.0
C891 C 0.67519 0.10893 0.77087 0.0
H892 H 0.60484 0.08947 0.76204 0.0
C893 C 0.6828 0.08894 0.79153 0.0
H894 H 0.63995 0.12464 0.74546 0.0
C895 C 0.66271 0.069 0.80117 0.0
C896 C 0.6345 0.06841 0.7903 0.0
H897 H 0.70465 0.0877 0.79929 0.0
H898 H 0.66965 0.05333 0.81635 0.0
C899 C 0.62646 0.08922 0.7707 0.0
C900 C 0.39929 0.04681 0.53773 0.0
C901 C 0.41106 0.02467 0.52219 0.0
H902 H 0.36769 0.0785 0.53869 0.0
C903 C 0.39889 0.017 0.49542 0.0
H904 H 0.40816 0.05306 0.5585 0.0
C905 C 0.37596 0.03156 0.48406 0.0
C906 C 0.36447 0.05406 0.49927 0.0
H907 H 0.4077 0.00028 0.48278 0.0
H908 H 0.36749 0.02539 0.46312 0.0
C909 C 0.37607 0.06126 0.52645 0.0
C910 C 0.65854 0.43458 0.55809 0.0
C911 C 0.64096 0.44093 0.53439 0.0
H912 H 0.69312 0.41076 0.5745 0.0
C913 C 0.64483 0.42639 0.50849 0.0
H914 H 0.65652 0.44562 0.57825 0.0
C915 C 0.66599 0.40627 0.50632 0.0
C916 C 0.68392 0.40042 0.52993 0.0
H917 H 0.63153 0.43059 0.48989 0.0
H918 H 0.66866 0.39572 0.48599 0.0
C919 C 0.67972 0.41465 0.55588 0.0
C920 C 0.72393 0.30236 0.3716 0.0
C921 C 0.74295 0.28459 0.35796 0.0
H922 H 0.71411 0.32456 0.41023 0.0
C923 C 0.76549 0.27347 0.37396 0.0
H924 H 0.70632 0.31117 0.35967 0.0
C925 C 0.76979 0.28083 0.40262 0.0
C926 C 0.75178 0.29974 0.41612 0.0
H927 H 0.78015 0.25931 0.36415 0.0
H928 H 0.78785 0.27217 0.41397 0.0
C929 C 0.72839 0.31001 0.40047 0.0
C930 C 0.50375 0.9864 0.92383 0.0
C931 C 0.51313 0.01174 0.93746 0.0
H932 H 0.51028 0.95649 0.89036 0.0
C933 C 0.53652 0.02713 0.92649 0.0
H934 H 0.48598 0.97393 0.93201 0.0
C935 C 0.5504 0.01721 0.90246 0.0
C936 C 0.54139 0.99151 0.88923 0.0
H937 H 0.54408 0.0468 0.93652 0.0
H938 H 0.56854 0.02939 0.89464 0.0
C939 C 0.5178 0.97633 0.90007 0.0
C940 C 0.33546 0.21106 0.39021 0.0
C941 C 0.33447 0.23458 0.40867 0.0
H942 H 0.33022 0.16616 0.38529 0.0
C943 C 0.32774 0.23011 0.43743 0.0
H944 H 0.34015 0.21376 0.36784 0.0
C945 C 0.32172 0.20281 0.44738 0.0
C946 C 0.3224 0.17934 0.42882 0.0
H947 H 0.32719 0.24772 0.45232 0.0
H948 H 0.31648 0.20015 0.46963 0.0
C949 C 0.32956 0.18376 0.40018 0.0
C950 C 0.44621 0.499 0.85084 0.0
C951 C 0.47048 0.49129 0.83605 0.0
H952 H 0.40221 0.50936 0.84814 0.0
C953 C 0.469 0.48961 0.80605 0.0
H954 H 0.44665 0.5002 0.87397 0.0
C955 C 0.44356 0.49505 0.79118 0.0
C956 C 0.419 0.50185 0.80606 0.0
H957 H 0.48747 0.48388 0.79412 0.0
H958 H 0.44294 0.49317 0.76809 0.0
C959 C 0.42071 0.50406 0.83603 0.0
C960 C 0.7322 0.65487 0.1086 0.0
C961 C 0.74378 0.68275 0.10965 0.0
H962 H 0.73088 0.61462 0.08708 0.0
C963 C 0.76481 0.69062 0.09004 0.0
H964 H 0.7162 0.64799 0.12359 0.0
C965 C 0.77332 0.67152 0.06933 0.0
C966 C 0.76096 0.64402 0.06753 0.0
H967 H 0.7739 0.71199 0.08983 0.0
H968 H 0.78902 0.67867 0.05415 0.0
C969 C 0.7407 0.6357 0.08775 0.0
C970 C 0.95783 0.01321 0.14327 0.0
C971 C 0.95469 0.02757 0.11726 0.0
H972 H 0.93839 -0.00068 0.18179 0.0
C973 C 0.92783 0.03807 0.10981 0.0
H974 H 0.97808 0.00448 0.14948 0.0
C975 C 0.90493 0.03507 0.12838 0.0
C976 C 0.90836 0.02141 0.15477 0.0
H977 H 0.92474 0.04944 0.09005 0.0
H978 H 0.88473 0.04396 0.12229 0.0
C979 C 0.93498 0.01015 0.16176 0.0
C980 C 0.28535 0.76698 0.11511 0.0
C981 C 0.26052 0.76265 0.13085 0.0
H982 H 0.30471 0.78553 0.07888 0.0
C983 C 0.2352 0.7751 0.12122 0.0
H984 H 0.30508 0.75725 0.12143 0.0
C985 C 0.2349 0.79151 0.09628 0.0
C986 C 0.25982 0.79534 0.08043 0.0
H987 H 0.2157 0.77212 0.13293 0.0
H988 H 0.21516 0.8007 0.08916 0.0
C989 C 0.28502 0.78304 0.09038 0.0
C990 C 0.05015 0.47683 0.19966 0.0
C991 C 0.04167 0.45156 0.1854 0.0
H992 H 0.06658 0.4963 0.23827 0.0
C993 C 0.04265 0.4259 0.20025 0.0
H994 H 0.04995 0.49688 0.18862 0.0
C995 C 0.052 0.42556 0.22886 0.0
C996 C 0.06099 0.45084 0.24296 0.0
H997 H 0.03615 0.40614 0.18974 0.0
H998 H 0.05271 0.40546 0.23975 0.0
C999 C 0.05985 0.47646 0.22805 0.0
C1000 C 0.39179 0.69279 0.31682 0.0
C1001 C 0.37285 0.70989 0.30149 0.0
H1002 H 0.43114 0.69103 0.34125 0.0
C1003 C 0.37898 0.73912 0.30026 0.0
H1004 H 0.38757 0.67019 0.31831 0.0
C1005 C 0.40366 0.7509 0.31326 0.0
C1006 C 0.42306 0.73386 0.32792 0.0
H1007 H 0.36525 0.75291 0.28826 0.0
H1008 H 0.40777 0.77348 0.31127 0.0
C1009 C 0.41664 0.7047 0.33006 0.0
C1010 C 0.01387 0.34568 0.97085 0.0
C1011 C 0.00851 0.37465 0.9683 0.0
H1012 H 0.01402 0.3052 0.94966 0.0
C1013 C 0.99717 0.38459 0.94241 0.0
H1014 H 0.02255 0.33747 0.99064 0.0
C1015 C 0.99218 0.36633 0.91923 0.0
C1016 C 0.99847 0.33754 0.92121 0.0
H1017 H 0.99225 0.40668 0.94 0.0
H1018 H 0.98381 0.37503 0.89954 0.0
C1019 C 0.00902 0.32727 0.94742 0.0
C1020 C 0.60276 0.74401 0.28035 0.0
C1021 C 0.61423 0.77006 0.27069 0.0
H1022 H 0.57188 0.72317 0.30706 0.0
C1023 C 0.60552 0.79517 0.28353 0.0
H1024 H 0.60909 0.72429 0.2709 0.0
C1025 C 0.58423 0.79451 0.30373 0.0
C1026 C 0.57136 0.76872 0.31204 0.0
H1027 H 0.61452 0.81554 0.27725 0.0
H1028 H 0.57718 0.8144 0.31225 0.0
C1029 C 0.5815 0.74334 0.30101 0.0
C1030 C 0.02295 0.16473 0.95403 0.0
C1031 C 0.02956 0.13714 0.94566 0.0
H1032 H 0.01349 0.20669 0.941 0.0
C1033 C 0.0318 0.13109 0.91634 0.0
H1034 H 0.02155 0.17029 0.97643 0.0
C1035 C 0.02724 0.15209 0.89591 0.0
C1036 C 0.02053 0.17966 0.90435 0.0
H1037 H 0.03671 0.11002 0.90917 0.0
H1038 H 0.02894 0.14669 0.87351 0.0
C1039 C 0.01853 0.1857 0.93367 0.0
C1040 C 0.4279 0.33912 0.23583 0.0
C1041 C 0.39837 0.34175 0.23886 0.0
H1042 H 0.46191 0.33118 0.2075 0.0
C1043 C 0.38045 0.33993 0.21438 0.0
H1044 H 0.44221 0.34022 0.25433 0.0
C1045 C 0.39169 0.33478 0.18755 0.0
C1046 C 0.42111 0.33117 0.18461 0.0
H1047 H 0.35765 0.34224 0.21602 0.0
H1048 H 0.37718 0.33299 0.16922 0.0
C1049 C 0.43914 0.3338 0.209 0.0
C1050 C 0.48926 0.39127 0.00981 0.0
C1051 C 0.51915 0.39259 0.0082 0.0
H1052 H 0.45278 0.37407 0.03104 0.0
C1053 C 0.53542 0.37796 0.02849 0.0
H1054 H 0.47613 0.40208 0.9943 0.0
C1055 C 0.52204 0.36189 0.0496 0.0
C1056 C 0.4921 0.35994 0.05073 0.0
H1057 H 0.55851 0.37883 0.02798 0.0
H1058 H 0.53519 0.35054 0.06466 0.0
C1059 C 0.47588 0.37507 0.03078 0.0
C1060 C 0.61664 0.26131 0.14386 0.0
C1061 C 0.62088 0.2686 0.17287 0.0
H1062 H 0.58813 0.26032 0.10745 0.0
C1063 C 0.59838 0.28061 0.18754 0.0
H1064 H 0.63363 0.25239 0.1318 0.0
C1065 C 0.57238 0.28539 0.17352 0.0
C1066 C 0.56821 0.27823 0.14448 0.0
H1067 H 0.60077 0.28612 0.20999 0.0
H1068 H 0.55552 0.29466 0.18549 0.0
C1069 C 0.5906 0.26605 0.12984 0.0
C1070 C 0.46707 0.17356 0.09447 0.0
C1071 C 0.44565 0.16164 0.07616 0.0
H1072 H 0.48514 0.21101 0.11451 0.0
C1073 C 0.4254 0.17935 0.06382 0.0
H1074 H 0.48324 0.1605 0.10396 0.0
C1075 C 0.42644 0.2084 0.06989 0.0
C1076 C 0.44794 0.22031 0.08819 0.0
H1077 H 0.40858 0.17069 0.04973 0.0
H1078 H 0.41048 0.2215 0.06015 0.0
C1079 C 0.46826 0.20255 0.10036 0.0
C1080 C 0.29118 0.40366 0.68918 0.0
C1081 C 0.27244 0.38792 0.7065 0.0
H1082 H 0.32005 0.43964 0.68603 0.0
C1083 C 0.26897 0.39685 0.73486 0.0
H1084 H 0.29453 0.39721 0.66731 0.0
C1085 C 0.28357 0.42105 0.74557 0.0
C1086 C 0.30207 0.43702 0.72822 0.0
H1087 H 0.25438 0.38554 0.74867 0.0
H1088 H 0.28007 0.42738 0.76745 0.0
C1089 C 0.30588 0.42793 0.69994 0.0
C1090 C 0.29337 0.62812 0.72355 0.0
C1091 C 0.27891 0.63981 0.74664 0.0
H1092 H 0.31742 0.59362 0.70806 0.0
C1093 C 0.27805 0.62479 0.77243 0.0
H1094 H 0.29423 0.63889 0.70325 0.0
C1095 C 0.29099 0.59877 0.77502 0.0
C1096 C 0.30543 0.58707 0.75201 0.0
H1097 H 0.26774 0.63332 0.79089 0.0
H1098 H 0.28986 0.58793 0.79529 0.0
C1099 C 0.30658 0.60209 0.72625 0.0
C1100 C 0.86586 0.4328 0.49603 0.0
C1101 C 0.8625 0.44887 0.52103 0.0
H1102 H 0.85003 0.3984 0.46967 0.0
C1103 C 0.83738 0.44484 0.53657 0.0
H1104 H 0.88451 0.436 0.48307 0.0
C1105 C 0.81717 0.42353 0.52842 0.0
C1106 C 0.82201 0.40593 0.50483 0.0
H1107 H 0.83416 0.45697 0.55586 0.0
H1108 H 0.79883 0.4196 0.54165 0.0
C1109 C 0.846 0.41143 0.48819 0.0
C1110 C 0.6953 0.88372 0.84242 0.0
C1111 C 0.71948 0.9021 0.84481 0.0
H1112 H 0.64983 0.87978 0.83736 0.0
C1113 C 0.71579 0.93144 0.84449 0.0
H1114 H 0.69749 0.861 0.84292 0.0
C1115 C 0.68857 0.9422 0.84132 0.0
C1116 C 0.66438 0.92386 0.83856 0.0
H1117 H 0.73403 0.94612 0.84603 0.0
H1118 H 0.68656 0.96494 0.84075 0.0
C1119 C 0.66801 0.89449 0.83943 0.0
C1120 C 0.68963 0.54123 0.91337 0.0
C1121 C 0.6704 0.53745 0.93568 0.0
H1122 H 0.73019 0.5577 0.90044 0.0
C1123 C 0.67771 0.54902 0.96277 0.0
H1124 H 0.68492 0.53222 0.89237 0.0
C1125 C 0.70393 0.56365 0.96749 0.0
C1126 C 0.72341 0.56676 0.94527 0.0
H1127 H 0.66325 0.5466 0.98034 0.0
H1128 H 0.70915 0.572 0.98866 0.0
C1129 C 0.71577 0.55566 0.9181 0.0
C1130 C 0.18313 0.58839 0.29205 0.0
C1131 C 0.17758 0.603 0.26662 0.0
H1132 H 0.16908 0.55615 0.32079 0.0
C1133 C 0.15153 0.5976 0.25178 0.0
H1134 H 0.20312 0.59194 0.30382 0.0
C1135 C 0.13195 0.57712 0.26153 0.0
C1136 C 0.1382 0.56145 0.28615 0.0
H1137 H 0.14661 0.60877 0.23226 0.0
H1138 H 0.11246 0.57283 0.24914 0.0
C1139 C 0.16369 0.56776 0.30166 0.0
C1140 C 0.9011 0.55086 0.03702 0.0
C1141 C 0.91211 0.5276 0.02261 0.0
H1142 H 0.87034 0.58341 0.03642 0.0
C1143 C 0.89975 0.51895 0.99624 0.0
H1144 H 0.91023 0.55785 0.05745 0.0
C1145 C 0.8773 0.53366 0.9841 0.0
C1146 C 0.86643 0.55714 0.99825 0.0
H1147 H 0.90801 0.50127 0.98456 0.0
H1148 H 0.86858 0.52673 0.96347 0.0
C1149 C 0.87824 0.56535 0.02506 0.0
C1150 C 0.13975 0.95164 0.98795 0.0
C1151 C 0.1294 0.95467 0.0157 0.0
H1152 H 0.16792 0.93016 0.9605 0.0
C1153 C 0.13891 0.93617 0.03706 0.0
H1154 H 0.13311 0.96566 0.97105 0.0
C1155 C 0.15895 0.91581 0.03104 0.0
C1156 C 0.17009 0.91351 0.00353 0.0
H1157 H 0.13109 0.93766 0.05858 0.0
H1158 H 0.16622 0.90234 0.04815 0.0
C1159 C 0.15988 0.93136 0.98196 0.0
loop_
_geom_bond_atom_site_label_1
_geom_bond_atom_site_label_2
_geom_bond_distance
_geom_bond_site_symmetry_2
_ccdc_geom_bond_type
P0 O11 1.490 . S
P0 C14 1.812 . S
P0 C20 1.803 . S
P0 C26 1.819 . S
H1 C15 0.941 . S
H2 C16 0.939 . S
H3 C18 0.940 . S
H4 C19 0.940 . S
H5 C21 0.939 . S
H6 C22 0.942 . S
H7 C24 0.940 . S
H8 C25 0.939 . S
H9 C27 0.941 . S
H10 C31 0.939 . S
O11 P0 1.490 . S
H12 C28 0.939 . S
H13 C30 0.940 . S
C14 P0 1.812 . S
C14 C15 1.389 . S
C14 C19 1.391 . S
C15 H1 0.941 . S
C15 C14 1.389 . S
C15 C16 1.397 . S
C16 H2 0.939 . S
C16 C15 1.397 . S
C16 C17 1.378 1_455 S
C17 C16 1.378 1_655 S
C17 C18 1.378 . S
C18 H3 0.940 . S
C18 C17 1.378 . S
C18 C19 1.396 1_655 S
C19 H4 0.940 . S
C19 C14 1.391 . S
C19 C18 1.396 1_455 S
C20 P0 1.803 . S
C20 C21 1.378 . S
C20 C25 1.400 . S
C21 H5 0.939 . S
C21 C20 1.378 . S
C21 C22 1.361 . S
C22 H6 0.942 . S
C22 C21 1.361 . S
C22 C23 1.369 1_545 S
C23 C22 1.369 1_565 S
C23 C24 1.404 . S
C24 H7 0.940 . S
C24 C23 1.404 . S
C24 C25 1.389 1_565 S
C25 H8 0.939 . S
C25 C20 1.400 . S
C25 C24 1.389 1_545 S
C26 P0 1.819 . S
C26 C27 1.391 . S
C26 C31 1.391 . S
C27 H9 0.941 . S
C27 C26 1.391 . S
C27 C28 1.396 . S
C28 H12 0.939 . S
C28 C27 1.396 . S
C28 C29 1.397 1_554 S
C29 C28 1.397 1_556 S
C29 C30 1.385 . S
C30 H13 0.940 . S
C30 C29 1.385 . S
C30 C31 1.388 1_556 S
C31 H10 0.939 . S
C31 C26 1.391 . S
C31 C30 1.388 1_554 S
P32 O43 1.490 . S
P32 C46 1.812 . S
P32 C52 1.803 . S
P32 C58 1.819 . S
H33 C47 0.941 . S
H34 C48 0.939 . S
H35 C50 0.940 . S
H36 C51 0.940 . S
H37 C53 0.939 . S
H38 C54 0.942 . S
H39 C56 0.940 . S
H40 C57 0.939 . S
H41 C59 0.941 . S
H42 C63 0.939 . S
O43 P32 1.490 . S
H44 C60 0.939 . S
H45 C62 0.940 . S
C46 P32 1.812 . S
C46 C47 1.389 . S
C46 C51 1.391 . S
C47 H33 0.941 . S
C47 C46 1.389 . S
C47 C48 1.397 . S
C48 H34 0.939 . S
C48 C47 1.397 . S
C48 C49 1.378 . S
C49 C48 1.378 . S
C49 C50 1.378 . S
C50 H35 0.940 . S
C50 C49 1.378 . S
C50 C51 1.396 . S
C51 H36 0.940 . S
C51 C46 1.391 . S
C51 C50 1.396 . S
C52 P32 1.803 . S
C52 C53 1.378 . S
C52 C57 1.400 . S
C53 H37 0.939 . S
C53 C52 1.378 . S
C53 C54 1.361 . S
C54 H38 0.942 . S
C54 C53 1.361 . S
C54 C55 1.369 . S
C55 C54 1.369 . S
C55 C56 1.404 . S
C56 H39 0.940 . S
C56 C55 1.404 . S
C56 C57 1.389 . S
C57 H40 0.939 . S
C57 C52 1.400 . S
C57 C56 1.389 . S
C58 P32 1.819 . S
C58 C59 1.391 . S
C58 C63 1.391 . S
C59 H41 0.941 . S
C59 C58 1.391 . S
C59 C60 1.396 . S
C60 H44 0.939 . S
C60 C59 1.396 . S
C60 C61 1.397 . S
C61 C60 1.397 . S
C61 C62 1.385 . S
C62 H45 0.940 . S
C62 C61 1.385 . S
C62 C63 1.388 . S
C63 H42 0.939 . S
C63 C58 1.391 . S
C63 C62 1.388 . S
P64 O75 1.490 . S
P64 C78 1.812 . S
P64 C84 1.803 . S
P64 C90 1.819 . S
H65 C79 0.941 . S
H66 C80 0.939 . S
H67 C82 0.940 . S
H68 C83 0.940 . S
H69 C85 0.939 . S
H70 C86 0.942 . S
H71 C88 0.940 . S
H72 C89 0.939 . S
H73 C91 0.941 . S
H74 C95 0.939 . S
O75 P64 1.490 . S
H76 C92 0.939 . S
H77 C94 0.940 . S
C78 P64 1.812 . S
C78 C79 1.389 1_554 S
C78 C83 1.391 . S
C79 H65 0.941 . S
C79 C78 1.389 1_556 S
C79 C80 1.397 . S
C80 H66 0.939 . S
C80 C79 1.397 . S
C80 C81 1.402 . S
C81 C80 1.402 . S
C81 C82 1.341 1_556 S
C82 H67 0.940 . S
C82 C81 1.341 1_554 S
C82 C83 1.396 . S
C83 H68 0.940 . S
C83 C78 1.391 . S
C83 C82 1.396 . S
C84 P64 1.803 . S
C84 C85 1.378 . S
C84 C89 1.400 . S
C85 H69 0.939 . S
C85 C84 1.378 . S
C85 C86 1.361 . S
C86 H70 0.942 . S
C86 C85 1.361 . S
C86 C87 1.369 . S
C87 C86 1.369 . S
C87 C88 1.404 . S
C88 H71 0.940 . S
C88 C87 1.404 . S
C88 C89 1.389 . S
C89 H72 0.939 . S
C89 C84 1.400 . S
C89 C88 1.389 . S
C90 P64 1.819 . S
C90 C91 1.391 1_655 S
C90 C95 1.391 . S
C91 H73 0.941 . S
C91 C90 1.391 1_455 S
C91 C92 1.396 . S
C92 H76 0.939 . S
C92 C91 1.396 . S
C92 C93 1.397 . S
C93 C92 1.397 . S
C93 C94 1.385 1_455 S
C94 H77 0.940 . S
C94 C93 1.385 1_655 S
C94 C95 1.388 . S
C95 H74 0.939 . S
C95 C90 1.391 . S
C95 C94 1.388 . S
P96 O107 1.490 . S
P96 C110 1.812 . S
P96 C116 1.803 . S
P96 C122 1.819 . S
H97 C111 0.941 . S
H98 C112 0.939 . S
H99 C114 0.940 . S
H100 C115 0.940 . S
H101 C117 0.939 . S
H102 C118 0.942 . S
H103 C120 0.940 . S
H104 C121 0.939 . S
H105 C123 0.941 . S
H106 C127 0.939 . S
O107 P96 1.490 . S
H108 C124 0.939 . S
H109 C126 0.940 . S
C110 P96 1.812 . S
C110 C111 1.389 . S
C110 C115 1.391 . S
C111 H97 0.941 . S
C111 C110 1.389 . S
C111 C112 1.397 . S
C112 H98 0.939 . S
C112 C111 1.397 . S
C112 C113 1.378 . S
C113 C112 1.378 . S
C113 C114 1.378 . S
C114 H99 0.940 . S
C114 C113 1.378 . S
C114 C115 1.396 . S
C115 H100 0.940 . S
C115 C110 1.391 . S
C115 C114 1.396 . S
C116 P96 1.803 . S
C116 C117 1.378 . S
C116 C121 1.400 . S
C117 H101 0.939 . S
C117 C116 1.378 . S
C117 C118 1.361 . S
C118 H102 0.942 . S
C118 C117 1.361 . S
C118 C119 1.369 . S
C119 C118 1.369 . S
C119 C120 1.404 . S
C120 H103 0.940 . S
C120 C119 1.404 . S
C120 C121 1.389 . S
C121 H104 0.939 . S
C121 C116 1.400 . S
C121 C120 1.389 . S
C122 P96 1.819 . S
C122 C123 1.391 . S
C122 C127 1.391 . S
C123 H105 0.941 . S
C123 C122 1.391 . S
C123 C124 1.396 . S
C124 H108 0.939 . S
C124 C123 1.396 . S
C124 C125 1.397 . S
C125 C124 1.397 . S
C125 C126 1.385 . S
C126 H109 0.940 . S
C126 C125 1.385 . S
C126 C127 1.388 . S
C127 H106 0.939 . S
C127 C122 1.391 . S
C127 C126 1.388 . S
P128 O139 1.490 . S
P128 C142 1.812 . S
P128 C148 1.803 . S
P128 C154 1.819 . S
H129 C143 0.941 . S
H130 C144 0.939 . S
H131 C146 0.940 . S
H132 C147 0.940 . S
H133 C149 0.939 . S
H134 C150 0.942 . S
H135 C152 0.940 . S
H136 C153 0.939 . S
H137 C155 0.941 . S
H138 C159 0.939 . S
O139 P128 1.490 . S
H140 C156 0.939 . S
H141 C158 0.940 . S
C142 P128 1.812 . S
C142 C143 1.389 . S
C142 C147 1.391 . S
C143 H129 0.941 . S
C143 C142 1.389 . S
C143 C144 1.397 . S
C144 H130 0.939 . S
C144 C143 1.397 . S
C144 C145 1.378 1_565 S
C145 C144 1.378 1_545 S
C145 C146 1.378 . S
C146 H131 0.940 . S
C146 C145 1.378 . S
C146 C147 1.396 1_545 S
C147 H132 0.940 . S
C147 C142 1.391 . S
C147 C146 1.396 1_565 S
C148 P128 1.803 . S
C148 C149 1.378 . S
C148 C153 1.400 . S
C149 H133 0.939 . S
C149 C148 1.378 . S
C149 C150 1.361 . S
C150 H134 0.942 . S
C150 C149 1.361 . S
C150 C151 1.369 . S
C151 C150 1.369 . S
C151 C152 1.404 . S
C152 H135 0.940 . S
C152 C151 1.404 . S
C152 C153 1.389 . S
C153 H136 0.939 . S
C153 C148 1.400 . S
C153 C152 1.389 . S
C154 P128 1.819 . S
C154 C155 1.391 . S
C154 C159 1.391 . S
C155 H137 0.941 . S
C155 C154 1.391 . S
C155 C156 1.396 . S
C156 H140 0.939 . S
C156 C155 1.396 . S
C156 C157 1.397 . S
C157 C156 1.397 . S
C157 C158 1.385 1_455 S
C158 H141 0.940 . S
C158 C157 1.385 1_655 S
C158 C159 1.388 1_655 S
C159 H138 0.939 . S
C159 C154 1.391 . S
C159 C158 1.388 1_455 S
P160 O171 1.490 . S
P160 C174 1.812 . S
P160 C180 1.803 . S
P160 C186 1.819 . S
H161 C175 0.941 . S
H162 C176 0.939 . S
H163 C178 0.940 . S
H164 C179 0.940 . S
H165 C181 0.939 . S
H166 C182 0.942 . S
H167 C184 0.940 . S
H168 C185 0.939 . S
H169 C187 0.941 . S
H170 C191 0.939 . S
O171 P160 1.490 . S
H172 C188 0.939 . S
H173 C190 0.940 . S
C174 P160 1.812 . S
C174 C175 1.389 . S
C174 C179 1.391 . S
C175 H161 0.941 . S
C175 C174 1.389 . S
C175 C176 1.397 . S
C176 H162 0.939 . S
C176 C175 1.397 . S
C176 C177 1.378 . S
C177 C176 1.378 . S
C177 C178 1.378 . S
C178 H163 0.940 . S
C178 C177 1.378 . S
C178 C179 1.396 . S
C179 H164 0.940 . S
C179 C174 1.391 . S
C179 C178 1.396 . S
C180 P160 1.803 . S
C180 C181 1.378 . S
C180 C185 1.400 . S
C181 H165 0.939 . S
C181 C180 1.378 . S
C181 C182 1.361 . S
C182 H166 0.942 . S
C182 C181 1.361 . S
C182 C183 1.369 . S
C183 C182 1.369 . S
C183 C184 1.404 . S
C184 H167 0.940 . S
C184 C183 1.404 . S
C184 C185 1.389 . S
C185 H168 0.939 . S
C185 C180 1.400 . S
C185 C184 1.389 . S
C186 P160 1.819 . S
C186 C187 1.391 . S
C186 C191 1.391 . S
C187 H169 0.941 . S
C187 C186 1.391 . S
C187 C188 1.396 . S
C188 H172 0.939 . S
C188 C187 1.396 . S
C188 C189 1.397 . S
C189 C188 1.397 . S
C189 C190 1.385 . S
C190 H173 0.940 . S
C190 C189 1.385 . S
C190 C191 1.388 . S
C191 H170 0.939 . S
C191 C186 1.391 . S
C191 C190 1.388 . S
P192 O203 1.490 1_655 S
P192 C206 1.812 . S
P192 C212 1.803 . S
P192 C218 1.819 . S
H193 C207 0.941 . S
H194 C208 0.939 . S
H195 C210 0.940 . S
H196 C211 0.940 . S
H197 C213 0.939 . S
H198 C214 0.942 . S
H199 C216 0.940 . S
H200 C217 0.939 . S
H201 C219 0.941 . S
H202 C223 0.939 . S
O203 P192 1.490 1_455 S
H204 C220 0.939 . S
H205 C222 0.940 . S
C206 P192 1.812 . S
C206 C207 1.389 1_655 S
C206 C211 1.391 . S
C207 H193 0.941 . S
C207 C206 1.389 1_455 S
C207 C208 1.397 . S
C208 H194 0.939 . S
C208 C207 1.397 . S
C208 C209 1.378 . S
C209 C208 1.378 . S
C209 C210 1.378 1_455 S
C210 H195 0.940 . S
C210 C209 1.378 1_655 S
C210 C211 1.396 . S
C211 H196 0.940 . S
C211 C206 1.391 . S
C211 C210 1.396 . S
C212 P192 1.803 . S
C212 C213 1.378 . S
C212 C217 1.400 . S
C213 H197 0.939 . S
C213 C212 1.378 . S
C213 C214 1.361 . S
C214 H198 0.942 . S
C214 C213 1.361 . S
C214 C215 1.369 . S
C215 C214 1.369 . S
C215 C216 1.404 . S
C216 H199 0.940 . S
C216 C215 1.404 . S
C216 C217 1.389 . S
C217 H200 0.939 . S
C217 C212 1.400 . S
C217 C216 1.389 . S
C218 P192 1.819 . S
C218 C219 1.391 . S
C218 C223 1.391 . S
C219 H201 0.941 . S
C219 C218 1.391 . S
C219 C220 1.396 . S
C220 H204 0.939 . S
C220 C219 1.396 . S
C220 C221 1.397 . S
C221 C220 1.397 . S
C221 C222 1.385 . S
C222 H205 0.940 . S
C222 C221 1.385 . S
C222 C223 1.388 . S
C223 H202 0.939 . S
C223 C218 1.391 . S
C223 C222 1.388 . S
P224 O235 1.490 . S
P224 C238 1.812 . S
P224 C244 1.803 . S
P224 C250 1.819 . S
H225 C239 0.941 . S
H226 C240 0.939 . S
H227 C242 0.940 . S
H228 C243 0.940 . S
H229 C245 0.939 . S
H230 C246 0.942 . S
H231 C248 0.940 . S
H232 C249 0.939 . S
H233 C251 0.941 . S
H234 C255 0.939 . S
O235 P224 1.490 . S
H236 C252 0.939 . S
H237 C254 0.940 . S
C238 P224 1.812 . S
C238 C239 1.389 . S
C238 C243 1.391 . S
C239 H225 0.941 . S
C239 C238 1.389 . S
C239 C240 1.397 . S
C240 H226 0.939 . S
C240 C239 1.397 . S
C240 C241 1.378 . S
C241 C240 1.378 . S
C241 C242 1.378 . S
C242 H227 0.940 . S
C242 C241 1.378 . S
C242 C243 1.396 . S
C243 H228 0.940 . S
C243 C238 1.391 . S
C243 C242 1.396 . S
C244 P224 1.803 . S
C244 C245 1.378 . S
C244 C249 1.400 . S
C245 H229 0.939 . S
C245 C244 1.378 . S
C245 C246 1.361 . S
C246 H230 0.942 . S
C246 C245 1.361 . S
C246 C247 1.369 . S
C247 C246 1.369 . S
C247 C248 1.404 . S
C248 H231 0.940 . S
C248 C247 1.404 . S
C248 C249 1.389 . S
C249 H232 0.939 . S
C249 C244 1.400 . S
C249 C248 1.389 . S
C250 P224 1.819 . S
C250 C251 1.391 . S
C250 C255 1.391 . S
C251 H233 0.941 . S
C251 C250 1.391 . S
C251 C252 1.396 . S
C252 H236 0.939 . S
C252 C251 1.396 . S
C252 C253 1.397 . S
C253 C252 1.397 . S
C253 C254 1.385 . S
C254 H237 0.940 . S
C254 C253 1.385 . S
C254 C255 1.388 . S
C255 H234 0.939 . S
C255 C250 1.391 . S
C255 C254 1.388 . S
P256 O267 1.490 . S
P256 C270 1.812 . S
P256 C276 1.803 . S
P256 C282 1.819 . S
H257 C271 0.941 . S
H258 C272 0.939 . S
H259 C274 0.940 . S
H260 C275 0.940 . S
H261 C277 0.939 . S
H262 C278 0.942 . S
H263 C280 0.940 . S
H264 C281 0.939 . S
H265 C283 0.941 . S
H266 C287 0.939 . S
O267 P256 1.490 . S
H268 C284 0.939 . S
H269 C286 0.940 . S
C270 P256 1.812 . S
C270 C271 1.389 . S
C270 C275 1.391 . S
C271 H257 0.941 . S
C271 C270 1.389 . S
C271 C272 1.397 . S
C272 H258 0.939 . S
C272 C271 1.397 . S
C272 C273 1.378 . S
C273 C272 1.378 . S
C273 C274 1.378 . S
C274 H259 0.940 . S
C274 C273 1.378 . S
C274 C275 1.396 . S
C275 H260 0.940 . S
C275 C270 1.391 . S
C275 C274 1.396 . S
C276 P256 1.803 . S
C276 C277 1.378 . S
C276 C281 1.400 . S
C277 H261 0.939 . S
C277 C276 1.378 . S
C277 C278 1.361 . S
C278 H262 0.942 . S
C278 C277 1.361 . S
C278 C279 1.369 . S
C279 C278 1.369 . S
C279 C280 1.404 . S
C280 H263 0.940 . S
C280 C279 1.404 . S
C280 C281 1.389 . S
C281 H264 0.939 . S
C281 C276 1.400 . S
C281 C280 1.389 . S
C282 P256 1.819 . S
C282 C283 1.391 . S
C282 C287 1.391 . S
C283 H265 0.941 . S
C283 C282 1.391 . S
C283 C284 1.396 . S
C284 H268 0.939 . S
C284 C283 1.396 . S
C284 C285 1.397 . S
C285 C284 1.397 . S
C285 C286 1.385 . S
C286 H269 0.940 . S
C286 C285 1.385 . S
C286 C287 1.388 . S
C287 H266 0.939 . S
C287 C282 1.391 . S
C287 C286 1.388 . S
P288 O299 1.490 1_565 S
P288 C302 1.812 . S
P288 C308 1.803 . S
P288 C314 1.819 . S
H289 C303 0.941 . S
H290 C304 0.939 . S
H291 C306 0.940 . S
H292 C307 0.940 . S
H293 C309 0.939 . S
H294 C310 0.942 . S
H295 C312 0.940 . S
H296 C313 0.939 . S
H297 C315 0.941 . S
H298 C319 0.939 . S
O299 P288 1.490 1_545 S
H300 C316 0.939 . S
H301 C318 0.940 . S
C302 P288 1.812 . S
C302 C303 1.389 . S
C302 C307 1.391 . S
C303 H289 0.941 . S
C303 C302 1.389 . S
C303 C304 1.397 . S
C304 H290 0.939 . S
C304 C303 1.397 . S
C304 C305 1.378 . S
C305 C304 1.378 . S
C305 C306 1.378 . S
C306 H291 0.940 . S
C306 C305 1.378 . S
C306 C307 1.396 . S
C307 H292 0.940 . S
C307 C302 1.391 . S
C307 C306 1.396 . S
C308 P288 1.803 . S
C308 C309 1.378 1_565 S
C308 C313 1.400 . S
C309 H293 0.939 . S
C309 C308 1.378 1_545 S
C309 C310 1.361 . S
C310 H294 0.942 . S
C310 C309 1.361 . S
C310 C311 1.369 . S
C311 C310 1.369 . S
C311 C312 1.404 1_545 S
C312 H295 0.940 . S
C312 C311 1.404 1_565 S
C312 C313 1.389 . S
C313 H296 0.939 . S
C313 C308 1.400 . S
C313 C312 1.389 . S
C314 P288 1.819 . S
C314 C315 1.391 . S
C314 C319 1.391 . S
C315 H297 0.941 . S
C315 C314 1.391 . S
C315 C316 1.396 . S
C316 H300 0.939 . S
C316 C315 1.396 . S
C316 C317 1.397 . S
C317 C316 1.397 . S
C317 C318 1.385 . S
C318 H301 0.940 . S
C318 C317 1.385 . S
C318 C319 1.388 . S
C319 H298 0.939 . S
C319 C314 1.391 . S
C319 C318 1.388 . S
P320 O331 1.490 . S
P320 C334 1.812 . S
P320 C340 1.803 . S
P320 C346 1.819 . S
H321 C335 0.941 . S
H322 C336 0.939 . S
H323 C338 0.940 . S
H324 C339 0.940 . S
H325 C341 0.939 . S
H326 C342 0.942 . S
H327 C344 0.940 . S
H328 C345 0.939 . S
H329 C347 0.941 . S
H330 C351 0.939 . S
O331 P320 1.490 . S
H332 C348 0.939 . S
H333 C350 0.940 . S
C334 P320 1.812 . S
C334 C335 1.389 . S
C334 C339 1.391 . S
C335 H321 0.941 . S
C335 C334 1.389 . S
C335 C336 1.397 . S
C336 H322 0.939 . S
C336 C335 1.397 . S
C336 C337 1.378 . S
C337 C336 1.378 . S
C337 C338 1.378 . S
C338 H323 0.940 . S
C338 C337 1.378 . S
C338 C339 1.396 . S
C339 H324 0.940 . S
C339 C334 1.391 . S
C339 C338 1.396 . S
C340 P320 1.803 . S
C340 C341 1.378 . S
C340 C345 1.400 . S
C341 H325 0.939 . S
C341 C340 1.378 . S
C341 C342 1.361 . S
C342 H326 0.942 . S
C342 C341 1.361 . S
C342 C343 1.369 . S
C343 C342 1.369 . S
C343 C344 1.404 . S
C344 H327 0.940 . S
C344 C343 1.404 . S
C344 C345 1.389 . S
C345 H328 0.939 . S
C345 C340 1.400 . S
C345 C344 1.389 . S
C346 P320 1.819 . S
C346 C347 1.391 . S
C346 C351 1.391 . S
C347 H329 0.941 . S
C347 C346 1.391 . S
C347 C348 1.396 . S
C348 H332 0.939 . S
C348 C347 1.396 . S
C348 C349 1.397 . S
C349 C348 1.397 . S
C349 C350 1.385 . S
C350 H333 0.940 . S
C350 C349 1.385 . S
C350 C351 1.388 . S
C351 H330 0.939 . S
C351 C346 1.391 . S
C351 C350 1.388 . S
P352 O363 1.490 . S
P352 C366 1.812 . S
P352 C372 1.803 . S
P352 C378 1.819 . S
H353 C367 0.941 . S
H354 C368 0.939 . S
H355 C370 0.940 . S
H356 C371 0.940 . S
H357 C373 0.939 . S
H358 C374 0.942 . S
H359 C376 0.940 . S
H360 C377 0.939 . S
H361 C379 0.941 . S
H362 C383 0.939 . S
O363 P352 1.490 . S
H364 C380 0.939 . S
H365 C382 0.940 . S
C366 P352 1.812 . S
C366 C367 1.389 . S
C366 C371 1.391 . S
C367 H353 0.941 . S
C367 C366 1.389 . S
C367 C368 1.397 . S
C368 H354 0.939 . S
C368 C367 1.397 . S
C368 C369 1.378 . S
C369 C368 1.378 . S
C369 C370 1.378 . S
C370 H355 0.940 . S
C370 C369 1.378 . S
C370 C371 1.396 . S
C371 H356 0.940 . S
C371 C366 1.391 . S
C371 C370 1.396 . S
C372 P352 1.803 . S
C372 C373 1.378 . S
C372 C377 1.400 . S
C373 H357 0.939 . S
C373 C372 1.378 . S
C373 C374 1.361 . S
C374 H358 0.942 . S
C374 C373 1.361 . S
C374 C375 1.369 . S
C375 C374 1.369 . S
C375 C376 1.404 . S
C376 H359 0.940 . S
C376 C375 1.404 . S
C376 C377 1.389 . S
C377 H360 0.939 . S
C377 C372 1.400 . S
C377 C376 1.389 . S
C378 P352 1.819 . S
C378 C379 1.391 . S
C378 C383 1.391 . S
C379 H361 0.941 . S
C379 C378 1.391 . S
C379 C380 1.396 . S
C380 H364 0.939 . S
C380 C379 1.396 . S
C380 C381 1.397 . S
C381 C380 1.397 . S
C381 C382 1.385 . S
C382 H365 0.940 . S
C382 C381 1.385 . S
C382 C383 1.388 . S
C383 H362 0.939 . S
C383 C378 1.391 . S
C383 C382 1.388 . S
P384 O395 1.490 . S
P384 C398 1.812 . S
P384 C404 1.803 . S
P384 C410 1.819 . S
H385 C399 0.941 . S
H386 C400 0.939 . S
H387 C402 0.940 . S
H388 C403 0.940 . S
H389 C405 0.939 . S
H390 C406 0.942 . S
H391 C408 0.940 . S
H392 C409 0.939 . S
H393 C411 0.941 . S
H394 C415 0.939 . S
O395 P384 1.490 . S
H396 C412 0.939 . S
H397 C414 0.940 . S
C398 P384 1.812 . S
C398 C399 1.389 . S
C398 C403 1.391 . S
C399 H385 0.941 . S
C399 C398 1.389 . S
C399 C400 1.397 . S
C400 H386 0.939 . S
C400 C399 1.397 . S
C400 C401 1.378 . S
C401 C400 1.378 . S
C401 C402 1.378 . S
C402 H387 0.940 . S
C402 C401 1.378 . S
C402 C403 1.396 . S
C403 H388 0.940 . S
C403 C398 1.391 . S
C403 C402 1.396 . S
C404 P384 1.803 . S
C404 C405 1.378 . S
C404 C409 1.400 . S
C405 H389 0.939 . S
C405 C404 1.378 . S
C405 C406 1.361 . S
C406 H390 0.942 . S
C406 C405 1.361 . S
C406 C407 1.369 . S
C407 C406 1.369 . S
C407 C408 1.404 . S
C408 H391 0.940 . S
C408 C407 1.404 . S
C408 C409 1.389 . S
C409 H392 0.939 . S
C409 C404 1.400 . S
C409 C408 1.389 . S
C410 P384 1.819 . S
C410 C411 1.391 . S
C410 C415 1.391 . S
C411 H393 0.941 . S
C411 C410 1.391 . S
C411 C412 1.396 . S
C412 H396 0.939 . S
C412 C411 1.396 . S
C412 C413 1.397 . S
C413 C412 1.397 . S
C413 C414 1.385 . S
C414 H397 0.940 . S
C414 C413 1.385 . S
C414 C415 1.388 . S
C415 H394 0.939 . S
C415 C410 1.391 . S
C415 C414 1.388 . S
P416 O427 1.490 . S
P416 C430 1.812 . S
P416 C436 1.803 . S
P416 C442 1.819 . S
H417 C431 0.941 . S
H418 C432 0.939 . S
H419 C434 0.940 . S
H420 C435 0.940 . S
H421 C437 0.939 . S
H422 C438 0.942 . S
H423 C440 0.940 . S
H424 C441 0.936 1_554 S
H425 C443 0.941 . S
H426 C447 0.939 . S
O427 P416 1.490 . S
H428 C444 0.939 . S
H429 C446 0.940 . S
C430 P416 1.812 . S
C430 C431 1.389 . S
C430 C435 1.391 . S
C431 H417 0.941 . S
C431 C430 1.389 . S
C431 C432 1.397 . S
C432 H418 0.939 . S
C432 C431 1.397 . S
C432 C433 1.378 . S
C433 C432 1.378 . S
C433 C434 1.378 . S
C434 H419 0.940 . S
C434 C433 1.378 . S
C434 C435 1.396 . S
C435 H420 0.940 . S
C435 C430 1.391 . S
C435 C434 1.396 . S
C436 P416 1.803 . S
C436 C437 1.378 . S
C436 C441 1.400 . S
C437 H421 0.939 . S
C437 C436 1.378 . S
C437 C438 1.361 . S
C438 H422 0.942 . S
C438 C437 1.361 . S
C438 C439 1.369 1_556 S
C439 C438 1.369 1_554 S
C439 C440 1.404 . S
C440 H423 0.940 . S
C440 C439 1.404 . S
C440 C441 1.389 1_554 S
C441 H424 0.936 1_556 S
C441 C436 1.400 . S
C441 C440 1.389 1_556 S
C442 P416 1.819 . S
C442 C443 1.391 . S
C442 C447 1.391 . S
C443 H425 0.941 . S
C443 C442 1.391 . S
C443 C444 1.396 . S
C444 H428 0.939 . S
C444 C443 1.396 . S
C444 C445 1.397 . S
C445 C444 1.397 . S
C445 C446 1.385 . S
C446 H429 0.940 . S
C446 C445 1.385 . S
C446 C447 1.388 . S
C447 H426 0.939 . S
C447 C442 1.391 . S
C447 C446 1.388 . S
P448 O459 1.490 . S
P448 C462 1.812 . S
P448 C468 1.803 . S
P448 C474 1.819 . S
H449 C463 0.941 . S
H450 C464 0.939 . S
H451 C466 0.940 . S
H452 C467 0.940 . S
H453 C469 0.939 . S
H454 C470 0.942 . S
H455 C472 0.940 . S
H456 C473 0.939 . S
H457 C475 0.941 . S
H458 C479 0.939 . S
O459 P448 1.490 . S
H460 C476 0.939 . S
H461 C478 0.940 . S
C462 P448 1.812 . S
C462 C463 1.389 . S
C462 C467 1.391 . S
C463 H449 0.941 . S
C463 C462 1.389 . S
C463 C464 1.397 . S
C464 H450 0.939 . S
C464 C463 1.397 . S
C464 C465 1.378 . S
C465 C464 1.378 . S
C465 C466 1.378 . S
C466 H451 0.940 . S
C466 C465 1.378 . S
C466 C467 1.396 . S
C467 H452 0.940 . S
C467 C462 1.391 . S
C467 C466 1.396 . S
C468 P448 1.803 . S
C468 C469 1.378 . S
C468 C473 1.400 . S
C469 H453 0.939 . S
C469 C468 1.378 . S
C469 C470 1.361 . S
C470 H454 0.942 . S
C470 C469 1.361 . S
C470 C471 1.369 . S
C471 C470 1.369 . S
C471 C472 1.404 . S
C472 H455 0.940 . S
C472 C471 1.404 . S
C472 C473 1.389 . S
C473 H456 0.939 . S
C473 C468 1.400 . S
C473 C472 1.389 . S
C474 P448 1.819 . S
C474 C475 1.391 . S
C474 C479 1.391 . S
C475 H457 0.941 . S
C475 C474 1.391 . S
C475 C476 1.396 . S
C476 H460 0.939 . S
C476 C475 1.396 . S
C476 C477 1.397 . S
C477 C476 1.397 . S
C477 C478 1.385 . S
C478 H461 0.940 . S
C478 C477 1.385 . S
C478 C479 1.388 . S
C479 H458 0.939 . S
C479 C474 1.391 . S
C479 C478 1.388 . S
P480 O491 1.490 . S
P480 C494 1.812 . S
P480 C500 1.803 . S
P480 C506 1.819 . S
H481 C495 0.941 . S
H482 C496 0.939 . S
H483 C498 0.940 . S
H484 C499 0.940 . S
H485 C501 0.939 . S
H486 C502 0.942 . S
H487 C504 0.940 . S
H488 C505 0.939 . S
H489 C507 0.941 . S
H490 C511 0.939 . S
O491 P480 1.490 . S
H492 C508 0.939 . S
H493 C510 0.940 . S
C494 P480 1.812 . S
C494 C495 1.389 . S
C494 C499 1.391 . S
C495 H481 0.941 . S
C495 C494 1.389 . S
C495 C496 1.397 . S
C496 H482 0.939 . S
C496 C495 1.397 . S
C496 C497 1.378 . S
C497 C496 1.378 . S
C497 C498 1.378 . S
C498 H483 0.940 . S
C498 C497 1.378 . S
C498 C499 1.396 . S
C499 H484 0.940 . S
C499 C494 1.391 . S
C499 C498 1.396 . S
C500 P480 1.803 . S
C500 C501 1.378 1_556 S
C500 C505 1.400 . S
C501 H485 0.939 . S
C501 C500 1.378 1_554 S
C501 C502 1.361 . S
C502 H486 0.942 . S
C502 C501 1.361 . S
C502 C503 1.369 . S
C503 C502 1.369 . S
C503 C504 1.404 1_554 S
C504 H487 0.940 . S
C504 C503 1.404 1_556 S
C504 C505 1.389 . S
C505 H488 0.939 . S
C505 C500 1.400 . S
C505 C504 1.389 . S
C506 P480 1.819 . S
C506 C507 1.391 1_545 S
C506 C511 1.391 . S
C507 H489 0.941 . S
C507 C506 1.391 1_565 S
C507 C508 1.396 . S
C508 H492 0.939 . S
C508 C507 1.396 . S
C508 C509 1.397 . S
C509 C508 1.397 . S
C509 C510 1.385 1_565 S
C510 H493 0.940 . S
C510 C509 1.385 1_545 S
C510 C511 1.388 . S
C511 H490 0.939 . S
C511 C506 1.391 . S
C511 C510 1.388 . S
Zn512 O515 2.031 . S
Zn512 O517 2.049 1_554 S
Zn512 O522 2.067 1_554 S
Zn513 O514 1.962 . S
Zn513 O516 1.986 . S
Zn513 O518 1.996 . S
Zn513 O521 1.943 1_554 S
O514 Zn513 1.962 . S
O514 C519 1.254 . S
O515 Zn512 2.031 . S
O515 C519 1.269 . S
O516 Zn513 1.986 . S
O516 C523 1.262 . S
O517 Zn512 2.049 1_556 S
O517 C525 1.260 . S
O518 Zn513 1.996 . S
O518 C525 1.257 1_554 S
C519 O514 1.254 . S
C519 O515 1.269 . S
C520 O521 1.249 . S
C520 O522 1.270 . S
O521 Zn513 1.943 1_556 S
O521 C520 1.249 . S
O522 Zn512 2.067 1_556 S
O522 C520 1.270 . S
C523 O516 1.262 . S
C523 O524 1.232 . S
O524 C523 1.232 . S
C525 O517 1.260 . S
C525 O518 1.257 1_556 S
Zn526 O529 2.031 . S
Zn526 O531 2.049 . S
Zn526 O536 2.067 . S
Zn527 O528 1.962 . S
Zn527 O530 1.986 . S
Zn527 O532 1.996 . S
Zn527 O535 1.943 . S
O528 Zn527 1.962 . S
O528 C533 1.254 . S
O529 Zn526 2.031 . S
O529 C533 1.269 . S
O530 Zn527 1.986 . S
O530 C537 1.262 . S
O531 Zn526 2.049 . S
O531 C539 1.260 . S
O532 Zn527 1.996 . S
O532 C539 1.257 . S
C533 O528 1.254 . S
C533 O529 1.269 . S
C534 O535 1.249 . S
C534 O536 1.270 . S
O535 Zn527 1.943 . S
O535 C534 1.249 . S
O536 Zn526 2.067 . S
O536 C534 1.270 . S
C537 O530 1.262 . S
C537 O538 1.232 . S
O538 C537 1.232 . S
C539 O531 1.260 . S
C539 O532 1.257 . S
Zn540 O543 2.031 . S
Zn540 O545 2.049 . S
Zn540 O550 2.067 . S
Zn541 O542 1.962 . S
Zn541 O544 1.986 . S
Zn541 O546 1.996 1_554 S
Zn541 O549 1.943 . S
O542 Zn541 1.962 . S
O542 C547 1.254 . S
O543 Zn540 2.031 . S
O543 C547 1.269 1_556 S
O544 Zn541 1.986 . S
O544 C551 1.262 . S
O545 Zn540 2.049 . S
O545 C553 1.260 . S
O546 Zn541 1.996 1_556 S
O546 C553 1.257 . S
C547 O542 1.254 . S
C547 O543 1.269 1_554 S
C548 O549 1.249 1_556 S
C548 O550 1.270 . S
O549 Zn541 1.943 . S
O549 C548 1.249 1_554 S
O550 Zn540 2.067 . S
O550 C548 1.270 . S
C551 O544 1.262 . S
C551 O552 1.232 . S
O552 C551 1.232 . S
C553 O545 1.260 . S
C553 O546 1.257 . S
Zn554 O557 2.029 . S
Zn554 O559 2.051 1_545 S
Zn554 O564 2.070 1_545 S
Zn555 O556 1.962 . S
Zn555 O558 1.986 . S
Zn555 O560 1.996 . S
Zn555 O563 1.943 1_545 S
O556 Zn555 1.962 . S
O556 C561 1.254 . S
O557 Zn554 2.029 . S
O557 C561 1.269 . S
O558 Zn555 1.986 . S
O558 C565 1.262 . S
O559 Zn554 2.051 1_565 S
O559 C567 1.260 . S
O560 Zn555 1.996 . S
O560 C567 1.257 1_545 S
C561 O556 1.254 . S
C561 O557 1.269 . S
C562 O563 1.249 . S
C562 O564 1.270 . S
O563 Zn555 1.943 1_565 S
O563 C562 1.249 . S
O564 Zn554 2.070 1_565 S
O564 C562 1.270 . S
C565 O558 1.262 . S
C565 O566 1.232 . S
O566 C565 1.232 . S
C567 O559 1.260 . S
C567 O560 1.257 1_565 S
Zn568 O571 2.031 . S
Zn568 O573 2.049 . S
Zn568 O578 2.067 . S
Zn569 O570 1.962 . S
Zn569 O572 1.986 . S
Zn569 O574 1.996 . S
Zn569 O577 1.943 . S
O570 Zn569 1.962 . S
O570 C575 1.254 . S
O571 Zn568 2.031 . S
O571 C575 1.269 . S
O572 Zn569 1.986 . S
O572 C579 1.262 . S
O573 Zn568 2.049 . S
O573 C581 1.260 . S
O574 Zn569 1.996 . S
O574 C581 1.257 . S
C575 O570 1.254 . S
C575 O571 1.269 . S
C576 O577 1.249 . S
C576 O578 1.270 . S
O577 Zn569 1.943 . S
O577 C576 1.249 . S
O578 Zn568 2.067 . S
O578 C576 1.270 . S
C579 O572 1.262 . S
C579 O580 1.232 . S
O580 C579 1.232 . S
C581 O573 1.260 . S
C581 O574 1.257 . S
Zn582 O585 2.031 . S
Zn582 O587 2.049 . S
Zn582 O592 2.067 . S
Zn583 O584 1.962 . S
Zn583 O586 1.986 . S
Zn583 O588 1.996 . S
Zn583 O591 1.943 . S
O584 Zn583 1.962 . S
O584 C589 1.254 . S
O585 Zn582 2.031 . S
O585 C589 1.269 . S
O586 Zn583 1.986 . S
O586 C593 1.262 . S
O587 Zn582 2.049 . S
O587 C595 1.260 . S
O588 Zn583 1.996 . S
O588 C595 1.257 . S
C589 O584 1.254 . S
C589 O585 1.269 . S
C590 O591 1.249 . S
C590 O592 1.270 . S
O591 Zn583 1.943 . S
O591 C590 1.249 . S
O592 Zn582 2.067 . S
O592 C590 1.270 . S
C593 O586 1.262 . S
C593 O594 1.232 . S
O594 C593 1.232 . S
C595 O587 1.260 . S
C595 O588 1.257 . S
Zn596 O599 2.031 . S
Zn596 O601 2.049 . S
Zn596 O606 2.067 . S
Zn597 O598 1.962 . S
Zn597 O600 1.986 . S
Zn597 O602 1.996 . S
Zn597 O605 1.943 . S
O598 Zn597 1.962 . S
O598 C603 1.254 . S
O599 Zn596 2.031 . S
O599 C603 1.269 . S
O600 Zn597 1.986 . S
O600 C607 1.262 . S
O601 Zn596 2.049 . S
O601 C609 1.260 . S
O602 Zn597 1.996 . S
O602 C609 1.257 . S
C603 O598 1.254 . S
C603 O599 1.269 . S
C604 O605 1.249 . S
C604 O606 1.270 . S
O605 Zn597 1.943 . S
O605 C604 1.249 . S
O606 Zn596 2.067 . S
O606 C604 1.270 . S
C607 O600 1.262 . S
C607 O608 1.232 . S
O608 C607 1.232 . S
C609 O601 1.260 . S
C609 O602 1.257 . S
Zn610 O613 2.031 . S
Zn610 O615 2.049 . S
Zn610 O620 2.067 . S
Zn611 O612 1.962 . S
Zn611 O614 1.986 . S
Zn611 O616 1.996 1_545 S
Zn611 O619 1.943 . S
O612 Zn611 1.962 . S
O612 C617 1.254 . S
O613 Zn610 2.031 . S
O613 C617 1.269 1_565 S
O614 Zn611 1.986 . S
O614 C621 1.262 . S
O615 Zn610 2.049 . S
O615 C623 1.260 . S
O616 Zn611 1.996 1_565 S
O616 C623 1.257 . S
C617 O612 1.254 . S
C617 O613 1.269 1_545 S
C618 O619 1.249 1_565 S
C618 O620 1.270 . S
O619 Zn611 1.943 . S
O619 C618 1.249 1_545 S
O620 Zn610 2.067 . S
O620 C618 1.270 . S
C621 O614 1.262 . S
C621 O622 1.232 . S
O622 C621 1.232 . S
C623 O615 1.260 . S
C623 O616 1.257 . S
Zn624 O627 2.031 . S
Zn624 O629 2.049 1_455 S
Zn624 O634 2.067 1_455 S
Zn625 O626 1.962 . S
Zn625 O628 1.986 . S
Zn625 O630 1.996 . S
Zn625 O633 1.943 1_455 S
O626 Zn625 1.962 . S
O626 C631 1.254 . S
O627 Zn624 2.031 . S
O627 C631 1.269 . S
O628 Zn625 1.986 . S
O628 C635 1.262 . S
O629 Zn624 2.049 1_655 S
O629 C637 1.260 . S
O630 Zn625 1.996 . S
O630 C637 1.257 1_455 S
C631 O626 1.254 . S
C631 O627 1.269 . S
C632 O633 1.249 . S
C632 O634 1.270 . S
O633 Zn625 1.943 1_655 S
O633 C632 1.249 . S
O634 Zn624 2.067 1_655 S
O634 C632 1.270 . S
C635 O628 1.262 . S
C635 O636 1.232 . S
O636 C635 1.232 . S
C637 O629 1.260 . S
C637 O630 1.257 1_655 S
Zn638 O641 2.031 . S
Zn638 O643 2.049 . S
Zn638 O648 2.067 . S
Zn639 O640 1.962 . S
Zn639 O642 1.986 . S
Zn639 O644 1.996 . S
Zn639 O647 1.943 . S
O640 Zn639 1.962 . S
O640 C645 1.254 . S
O641 Zn638 2.031 . S
O641 C645 1.269 . S
O642 Zn639 1.986 . S
O642 C649 1.262 . S
O643 Zn638 2.049 . S
O643 C651 1.260 . S
O644 Zn639 1.996 . S
O644 C651 1.257 . S
C645 O640 1.254 . S
C645 O641 1.269 . S
C646 O647 1.249 . S
C646 O648 1.270 . S
O647 Zn639 1.943 . S
O647 C646 1.249 . S
O648 Zn638 2.067 . S
O648 C646 1.270 . S
C649 O642 1.262 . S
C649 O650 1.232 . S
O650 C649 1.232 . S
C651 O643 1.260 . S
C651 O644 1.257 . S
Zn652 O655 2.031 . S
Zn652 O657 2.049 . S
Zn652 O662 2.067 . S
Zn653 O654 1.962 . S
Zn653 O656 1.986 . S
Zn653 O658 1.996 1_455 S
Zn653 O661 1.943 . S
O654 Zn653 1.962 . S
O654 C659 1.254 . S
O655 Zn652 2.031 . S
O655 C659 1.269 1_655 S
O656 Zn653 1.986 . S
O656 C663 1.262 . S
O657 Zn652 2.049 . S
O657 C665 1.260 . S
O658 Zn653 1.996 1_655 S
O658 C665 1.257 . S
C659 O654 1.254 . S
C659 O655 1.269 1_455 S
C660 O661 1.249 1_655 S
C660 O662 1.270 . S
O661 Zn653 1.943 . S
O661 C660 1.249 1_455 S
O662 Zn652 2.067 . S
O662 C660 1.270 . S
C663 O656 1.262 . S
C663 O664 1.232 . S
O664 C663 1.232 . S
C665 O657 1.260 . S
C665 O658 1.257 . S
Zn666 O669 2.031 . S
Zn666 O671 2.049 . S
Zn666 O676 2.067 . S
Zn667 O668 1.962 . S
Zn667 O670 1.986 . S
Zn667 O672 1.996 . S
Zn667 O675 1.943 . S
O668 Zn667 1.962 . S
O668 C673 1.254 . S
O669 Zn666 2.031 . S
O669 C673 1.269 . S
O670 Zn667 1.986 . S
O670 C677 1.262 . S
O671 Zn666 2.049 . S
O671 C679 1.260 . S
O672 Zn667 1.996 . S
O672 C679 1.257 . S
C673 O668 1.254 . S
C673 O669 1.269 . S
C674 O675 1.249 . S
C674 O676 1.270 . S
O675 Zn667 1.943 . S
O675 C674 1.249 . S
O676 Zn666 2.067 . S
O676 C674 1.270 . S
C677 O670 1.262 . S
C677 O678 1.232 . S
O678 C677 1.232 . S
C679 O671 1.260 . S
C679 O672 1.257 . S
C680 C681 1.387 . S
C680 H684 0.950 . S
C680 C689 1.390 . S
C681 C680 1.387 . S
C681 C683 1.387 . S
H682 C689 0.950 . S
C683 C681 1.387 . S
C683 C685 1.390 . S
C683 H687 0.950 . S
H684 C680 0.950 . S
C685 C683 1.390 . S
C685 C686 1.387 . S
C685 H688 0.950 . S
C686 C685 1.387 . S
C686 C689 1.387 . S
H687 C683 0.950 . S
H688 C685 0.950 . S
C689 C680 1.390 . S
C689 H682 0.950 . S
C689 C686 1.387 . S
C690 C691 1.387 . S
C690 H694 0.950 . S
C690 C699 1.390 . S
C691 C690 1.387 . S
C691 C693 1.387 . S
H692 C699 0.950 . S
C693 C691 1.387 . S
C693 C695 1.390 . S
C693 H697 0.950 . S
H694 C690 0.950 . S
C695 C693 1.390 . S
C695 C696 1.387 . S
C695 H698 0.950 . S
C696 C695 1.387 . S
C696 C699 1.387 . S
H697 C693 0.950 . S
H698 C695 0.950 . S
C699 C690 1.390 . S
C699 H692 0.950 . S
C699 C696 1.387 . S
C700 C701 1.387 . S
C700 H704 0.950 . S
C700 C709 1.390 . S
C701 C700 1.387 . S
C701 C703 1.387 . S
H702 C709 0.950 . S
C703 C701 1.387 . S
C703 C705 1.390 . S
C703 H707 0.950 . S
H704 C700 0.950 . S
C705 C703 1.390 . S
C705 C706 1.387 . S
C705 H708 0.950 . S
C706 C705 1.387 . S
C706 C709 1.387 . S
H707 C703 0.950 . S
H708 C705 0.950 . S
C709 C700 1.390 . S
C709 H702 0.950 . S
C709 C706 1.387 . S
C710 C711 1.387 . S
C710 H714 0.950 1_565 S
C710 C719 1.390 1_565 S
C711 C710 1.387 . S
C711 C713 1.387 . S
H712 C719 0.950 . S
C713 C711 1.387 . S
C713 C715 1.390 . S
C713 H717 0.950 . S
H714 C710 0.950 1_545 S
C715 C713 1.390 . S
C715 C716 1.387 . S
C715 H718 0.950 . S
C716 C715 1.387 . S
C716 C719 1.387 1_565 S
H717 C713 0.950 . S
H718 C715 0.950 . S
C719 C710 1.390 1_545 S
C719 H712 0.950 . S
C719 C716 1.387 1_545 S
C720 C721 1.387 . S
C720 H724 0.950 . S
C720 C729 1.390 . S
C721 C720 1.387 . S
C721 C723 1.387 . S
H722 C729 0.950 . S
C723 C721 1.387 . S
C723 C725 1.390 . S
C723 H727 0.950 . S
H724 C720 0.950 . S
C725 C723 1.390 . S
C725 C726 1.387 . S
C725 H728 0.950 . S
C726 C725 1.387 . S
C726 C729 1.387 . S
H727 C723 0.950 . S
H728 C725 0.950 . S
C729 C720 1.390 . S
C729 H722 0.950 . S
C729 C726 1.387 . S
C730 C731 1.387 . S
C730 H734 0.950 . S
C730 C739 1.390 . S
C731 C730 1.387 . S
C731 C733 1.387 . S
H732 C739 0.950 . S
C733 C731 1.387 . S
C733 C735 1.390 . S
C733 H737 0.950 . S
H734 C730 0.950 . S
C735 C733 1.390 . S
C735 C736 1.387 . S
C735 H738 0.950 . S
C736 C735 1.387 . S
C736 C739 1.387 . S
H737 C733 0.950 . S
H738 C735 0.950 . S
C739 C730 1.390 . S
C739 H732 0.950 . S
C739 C736 1.387 . S
C740 C741 1.387 . S
C740 H744 0.950 . S
C740 C749 1.390 . S
C741 C740 1.387 . S
C741 C743 1.387 . S
H742 C749 0.950 . S
C743 C741 1.387 . S
C743 C745 1.390 . S
C743 H747 0.950 . S
H744 C740 0.950 . S
C745 C743 1.390 . S
C745 C746 1.387 . S
C745 H748 0.950 . S
C746 C745 1.387 . S
C746 C749 1.387 . S
H747 C743 0.950 . S
H748 C745 0.950 . S
C749 C740 1.390 . S
C749 H742 0.950 . S
C749 C746 1.387 . S
C750 C751 1.387 . S
C750 H754 0.950 . S
C750 C759 1.390 . S
C751 C750 1.387 . S
C751 C753 1.387 1_565 S
H752 C759 0.950 . S
C753 C751 1.387 1_545 S
C753 C755 1.390 . S
C753 H757 0.950 . S
H754 C750 0.950 . S
C755 C753 1.390 . S
C755 C756 1.387 1_545 S
C755 H758 0.950 . S
C756 C755 1.387 1_565 S
C756 C759 1.387 . S
H757 C753 0.950 . S
H758 C755 0.950 . S
C759 C750 1.390 . S
C759 H752 0.950 . S
C759 C756 1.387 . S
C760 C761 1.387 . S
C760 H764 0.950 . S
C760 C769 1.390 . S
C761 C760 1.387 . S
C761 C763 1.387 . S
H762 C769 0.950 . S
C763 C761 1.387 . S
C763 C765 1.390 . S
C763 H767 0.950 . S
H764 C760 0.950 . S
C765 C763 1.390 . S
C765 C766 1.387 . S
C765 H768 0.950 . S
C766 C765 1.387 . S
C766 C769 1.387 . S
H767 C763 0.950 . S
H768 C765 0.950 . S
C769 C760 1.390 . S
C769 H762 0.950 . S
C769 C766 1.387 . S
C770 C771 1.387 . S
C770 H774 0.950 . S
C770 C779 1.390 . S
C771 C770 1.387 . S
C771 C773 1.387 . S
H772 C779 0.950 . S
C773 C771 1.387 . S
C773 C775 1.390 . S
C773 H777 0.950 . S
H774 C770 0.950 . S
C775 C773 1.390 . S
C775 C776 1.387 . S
C775 H778 0.950 . S
C776 C775 1.387 . S
C776 C779 1.387 . S
H777 C773 0.950 . S
H778 C775 0.950 . S
C779 C770 1.390 . S
C779 H772 0.950 . S
C779 C776 1.387 . S
C780 C781 1.387 . S
C780 H784 0.950 . S
C780 C789 1.390 . S
C781 C780 1.387 . S
C781 C783 1.387 . S
H782 C789 0.950 . S
C783 C781 1.387 . S
C783 C785 1.390 . S
C783 H787 0.950 . S
H784 C780 0.950 . S
C785 C783 1.390 . S
C785 C786 1.387 . S
C785 H788 0.950 . S
C786 C785 1.387 . S
C786 C789 1.387 . S
H787 C783 0.950 . S
H788 C785 0.950 . S
C789 C780 1.390 . S
C789 H782 0.950 . S
C789 C786 1.387 . S
C790 C791 1.387 . S
C790 H794 0.950 . S
C790 C799 1.390 . S
C791 C790 1.387 . S
C791 C793 1.387 . S
H792 C799 0.950 . S
C793 C791 1.387 . S
C793 C795 1.390 . S
C793 H797 0.950 . S
H794 C790 0.950 . S
C795 C793 1.390 . S
C795 C796 1.387 . S
C795 H798 0.950 . S
C796 C795 1.387 . S
C796 C799 1.387 . S
H797 C793 0.950 . S
H798 C795 0.950 . S
C799 C790 1.390 . S
C799 H792 0.950 . S
C799 C796 1.387 . S
C800 C801 1.387 . S
C800 H804 0.950 . S
C800 C809 1.390 . S
C801 C800 1.387 . S
C801 C803 1.387 . S
H802 C809 0.950 . S
C803 C801 1.387 . S
C803 C805 1.390 . S
C803 H807 0.950 . S
H804 C800 0.950 . S
C805 C803 1.390 . S
C805 C806 1.387 . S
C805 H808 0.950 . S
C806 C805 1.387 . S
C806 C809 1.387 . S
H807 C803 0.950 . S
H808 C805 0.950 . S
C809 C800 1.390 . S
C809 H802 0.950 . S
C809 C806 1.387 . S
C810 C811 1.387 . S
C810 H814 0.950 1_455 S
C810 C819 1.395 . S
C811 C810 1.387 . S
C811 C813 1.387 . S
H812 C819 0.927 1_655 S
C813 C811 1.387 . S
C813 C815 1.390 . S
C813 H817 0.950 . S
H814 C810 0.950 1_655 S
C815 C813 1.390 . S
C815 C816 1.387 . S
C815 H818 0.950 . S
C816 C815 1.387 . S
C816 C819 1.405 . S
H817 C813 0.950 . S
H818 C815 0.950 . S
C819 C810 1.395 . S
C819 H812 0.927 1_455 S
C819 C816 1.405 . S
C820 C821 1.387 . S
C820 H824 0.950 . S
C820 C829 1.390 . S
C821 C820 1.387 . S
C821 C823 1.387 . S
H822 C829 0.950 . S
C823 C821 1.387 . S
C823 C825 1.390 . S
C823 H827 0.950 . S
H824 C820 0.950 . S
C825 C823 1.390 . S
C825 C826 1.387 . S
C825 H828 0.950 . S
C826 C825 1.387 . S
C826 C829 1.387 . S
H827 C823 0.950 . S
H828 C825 0.950 . S
C829 C820 1.390 . S
C829 H822 0.950 . S
C829 C826 1.387 . S
C830 C831 1.387 . S
C830 H834 0.950 . S
C830 C839 1.390 . S
C831 C830 1.387 . S
C831 C833 1.387 1_655 S
H832 C839 0.950 . S
C833 C831 1.387 1_455 S
C833 C835 1.390 . S
C833 H837 0.950 . S
H834 C830 0.950 . S
C835 C833 1.390 . S
C835 C836 1.387 1_455 S
C835 H838 0.950 . S
C836 C835 1.387 1_655 S
C836 C839 1.387 . S
H837 C833 0.950 . S
H838 C835 0.950 . S
C839 C830 1.390 . S
C839 H832 0.950 . S
C839 C836 1.387 . S
C840 C841 1.387 . S
C840 H844 0.950 . S
C840 C849 1.390 . S
C841 C840 1.387 . S
C841 C843 1.387 . S
H842 C849 0.950 . S
C843 C841 1.387 . S
C843 C845 1.390 . S
C843 H847 0.950 . S
H844 C840 0.950 . S
C845 C843 1.390 . S
C845 C846 1.387 . S
C845 H848 0.950 . S
C846 C845 1.387 . S
C846 C849 1.387 . S
H847 C843 0.950 . S
H848 C845 0.950 . S
C849 C840 1.390 . S
C849 H842 0.950 . S
C849 C846 1.387 . S
C850 C851 1.387 . S
C850 H854 0.950 . S
C850 C859 1.390 . S
C851 C850 1.387 . S
C851 C853 1.387 . S
H852 C859 0.950 . S
C853 C851 1.387 . S
C853 C855 1.390 . S
C853 H857 0.950 . S
H854 C850 0.950 . S
C855 C853 1.390 . S
C855 C856 1.387 . S
C855 H858 0.950 . S
C856 C855 1.387 . S
C856 C859 1.387 . S
H857 C853 0.950 . S
H858 C855 0.950 . S
C859 C850 1.390 . S
C859 H852 0.950 . S
C859 C856 1.387 . S
C860 C861 1.387 . S
C860 H864 0.950 . S
C860 C869 1.390 . S
C861 C860 1.387 . S
C861 C863 1.387 . S
H862 C869 0.950 . S
C863 C861 1.387 . S
C863 C865 1.390 . S
C863 H867 0.955 1_565 S
H864 C860 0.950 . S
C865 C863 1.390 . S
C865 C866 1.387 . S
C865 H868 0.950 1_556 S
C866 C865 1.387 . S
C866 C869 1.387 . S
H867 C863 0.955 1_545 S
H868 C865 0.950 1_554 S
C869 C860 1.390 . S
C869 H862 0.950 . S
C869 C866 1.387 . S
C870 C871 1.387 . S
C870 H874 0.950 . S
C870 C879 1.390 . S
C871 C870 1.387 . S
C871 C873 1.387 . S
H872 C879 0.950 . S
C873 C871 1.387 . S
C873 C875 1.390 . S
C873 H877 0.950 . S
H874 C870 0.950 . S
C875 C873 1.390 . S
C875 C876 1.387 . S
C875 H878 0.950 . S
C876 C875 1.387 . S
C876 C879 1.387 . S
H877 C873 0.950 . S
H878 C875 0.950 . S
C879 C870 1.390 . S
C879 H872 0.950 . S
C879 C876 1.387 . S
C880 C881 1.387 . S
C880 H884 0.950 . S
C880 C889 1.390 . S
C881 C880 1.387 . S
C881 C883 1.387 . S
H882 C889 0.950 . S
C883 C881 1.387 . S
C883 C885 1.390 . S
C883 H887 0.950 . S
H884 C880 0.950 . S
C885 C883 1.390 . S
C885 C886 1.387 . S
C885 H888 0.950 . S
C886 C885 1.387 . S
C886 C889 1.387 . S
H887 C883 0.950 . S
H888 C885 0.950 . S
C889 C880 1.390 . S
C889 H882 0.950 . S
C889 C886 1.387 . S
C890 C891 1.387 . S
C890 H894 0.950 . S
C890 C899 1.390 . S
C891 C890 1.387 . S
C891 C893 1.387 . S
H892 C899 0.950 . S
C893 C891 1.387 . S
C893 C895 1.390 . S
C893 H897 0.950 . S
H894 C890 0.950 . S
C895 C893 1.390 . S
C895 C896 1.387 . S
C895 H898 0.950 . S
C896 C895 1.387 . S
C896 C899 1.387 . S
H897 C893 0.950 . S
H898 C895 0.950 . S
C899 C890 1.390 . S
C899 H892 0.950 . S
C899 C896 1.387 . S
C900 C901 1.387 . S
C900 H904 0.950 . S
C900 C909 1.390 . S
C901 C900 1.387 . S
C901 C903 1.387 . S
H902 C909 0.950 . S
C903 C901 1.387 . S
C903 C905 1.390 . S
C903 H907 0.950 . S
H904 C900 0.950 . S
C905 C903 1.390 . S
C905 C906 1.387 . S
C905 H908 0.950 . S
C906 C905 1.387 . S
C906 C909 1.387 . S
H907 C903 0.950 . S
H908 C905 0.950 . S
C909 C900 1.390 . S
C909 H902 0.950 . S
C909 C906 1.387 . S
C910 C911 1.387 . S
C910 H914 0.950 . S
C910 C919 1.390 . S
C911 C910 1.387 . S
C911 C913 1.387 . S
H912 C919 0.950 . S
C913 C911 1.387 . S
C913 C915 1.390 . S
C913 H917 0.950 . S
H914 C910 0.950 . S
C915 C913 1.390 . S
C915 C916 1.387 . S
C915 H918 0.950 . S
C916 C915 1.387 . S
C916 C919 1.387 . S
H917 C913 0.950 . S
H918 C915 0.950 . S
C919 C910 1.390 . S
C919 H912 0.950 . S
C919 C916 1.387 . S
C920 C921 1.387 . S
C920 H924 0.950 . S
C920 C929 1.390 . S
C921 C920 1.387 . S
C921 C923 1.387 . S
H922 C929 0.950 . S
C923 C921 1.387 . S
C923 C925 1.390 . S
C923 H927 0.950 . S
H924 C920 0.950 . S
C925 C923 1.390 . S
C925 C926 1.387 . S
C925 H928 0.950 . S
C926 C925 1.387 . S
C926 C929 1.387 . S
H927 C923 0.950 . S
H928 C925 0.950 . S
C929 C920 1.390 . S
C929 H922 0.950 . S
C929 C926 1.387 . S
C930 C931 1.387 . S
C930 H934 0.950 1_545 S
C930 C939 1.398 . S
C931 C930 1.387 . S
C931 C933 1.387 . S
H932 C939 0.920 1_565 S
C933 C931 1.387 . S
C933 C935 1.390 . S
C933 H937 0.950 . S
H934 C930 0.950 1_565 S
C935 C933 1.390 . S
C935 C936 1.387 . S
C935 H938 0.950 . S
C936 C935 1.387 . S
C936 C939 1.410 . S
H937 C933 0.950 . S
H938 C935 0.950 . S
C939 C930 1.398 . S
C939 H932 0.920 1_545 S
C939 C936 1.410 . S
C940 C941 1.387 . S
C940 H944 0.950 . S
C940 C949 1.390 . S
C941 C940 1.387 . S
C941 C943 1.387 . S
H942 C949 0.950 . S
C943 C941 1.387 . S
C943 C945 1.390 . S
C943 H947 0.950 . S
H944 C940 0.950 . S
C945 C943 1.390 . S
C945 C946 1.387 . S
C945 H948 0.950 . S
C946 C945 1.387 . S
C946 C949 1.387 . S
H947 C943 0.950 . S
H948 C945 0.950 . S
C949 C940 1.390 . S
C949 H942 0.950 . S
C949 C946 1.387 . S
C950 C951 1.387 . S
C950 H954 0.950 . S
C950 C959 1.390 . S
C951 C950 1.387 . S
C951 C953 1.387 . S
H952 C959 0.950 . S
C953 C951 1.387 . S
C953 C955 1.390 . S
C953 H957 0.950 . S
H954 C950 0.950 . S
C955 C953 1.390 . S
C955 C956 1.387 . S
C955 H958 0.950 . S
C956 C955 1.387 . S
C956 C959 1.387 . S
H957 C953 0.950 . S
H958 C955 0.950 . S
C959 C950 1.390 . S
C959 H952 0.950 . S
C959 C956 1.387 . S
C960 C961 1.387 . S
C960 H964 0.950 . S
C960 C969 1.390 . S
C961 C960 1.387 . S
C961 C963 1.387 . S
H962 C969 0.950 . S
C963 C961 1.387 . S
C963 C965 1.390 . S
C963 H967 0.950 . S
H964 C960 0.950 . S
C965 C963 1.390 . S
C965 C966 1.387 . S
C965 H968 0.950 . S
C966 C965 1.387 . S
C966 C969 1.387 . S
H967 C963 0.950 . S
H968 C965 0.950 . S
C969 C960 1.390 . S
C969 H962 0.950 . S
C969 C966 1.387 . S
C970 C971 1.382 1_565 S
C970 H974 0.955 . S
C970 C979 1.391 . S
C971 C970 1.382 1_545 S
C971 C973 1.387 . S
H972 C979 0.950 . S
C973 C971 1.387 . S
C973 C975 1.390 . S
C973 H977 0.950 . S
H974 C970 0.955 . S
C975 C973 1.390 . S
C975 C976 1.387 . S
C975 H978 0.950 . S
C976 C975 1.387 . S
C976 C979 1.387 1_545 S
H977 C973 0.950 . S
H978 C975 0.950 . S
C979 C970 1.391 . S
C979 H972 0.950 . S
C979 C976 1.387 1_565 S
C980 C981 1.387 . S
C980 H984 0.950 . S
C980 C989 1.390 . S
C981 C980 1.387 . S
C981 C983 1.387 . S
H982 C989 0.950 . S
C983 C981 1.387 . S
C983 C985 1.390 . S
C983 H987 0.950 . S
H984 C980 0.950 . S
C985 C983 1.390 . S
C985 C986 1.387 . S
C985 H988 0.950 . S
C986 C985 1.387 . S
C986 C989 1.387 . S
H987 C983 0.950 . S
H988 C985 0.950 . S
C989 C980 1.390 . S
C989 H982 0.950 . S
C989 C986 1.387 . S
C990 C991 1.387 . S
C990 H994 0.950 . S
C990 C999 1.390 . S
C991 C990 1.387 . S
C991 C993 1.387 . S
H992 C999 0.950 . S
C993 C991 1.387 . S
C993 C995 1.390 . S
C993 H997 0.950 . S
H994 C990 0.950 . S
C995 C993 1.390 . S
C995 C996 1.387 . S
C995 H998 0.950 . S
C996 C995 1.387 . S
C996 C999 1.387 . S
H997 C993 0.950 . S
H998 C995 0.950 . S
C999 C990 1.390 . S
C999 H992 0.950 . S
C999 C996 1.387 . S
C1000 C1001 1.387 . S
C1000 H1004 0.950 . S
C1000 C1009 1.390 . S
C1001 C1000 1.387 . S
C1001 C1003 1.387 . S
H1002 C1009 0.950 . S
C1003 C1001 1.387 . S
C1003 C1005 1.390 . S
C1003 H1007 0.950 . S
H1004 C1000 0.950 . S
C1005 C1003 1.390 . S
C1005 C1006 1.387 . S
C1005 H1008 0.950 . S
C1006 C1005 1.387 . S
C1006 C1009 1.387 . S
H1007 C1003 0.950 . S
H1008 C1005 0.950 . S
C1009 C1000 1.390 . S
C1009 H1002 0.950 . S
C1009 C1006 1.387 . S
C1010 C1011 1.387 . S
C1010 H1014 0.925 1_656 S
C1010 C1019 1.390 1_655 S
C1011 C1010 1.387 . S
C1011 C1013 1.387 . S
H1012 C1019 0.950 . S
C1013 C1011 1.387 . S
C1013 C1015 1.390 . S
C1013 H1017 0.950 . S
H1014 C1010 0.925 1_454 S
C1015 C1013 1.390 . S
C1015 C1016 1.387 . S
C1015 H1018 0.950 . S
C1016 C1015 1.387 . S
C1016 C1019 1.387 1_655 S
H1017 C1013 0.950 . S
H1018 C1015 0.950 . S
C1019 C1010 1.390 1_455 S
C1019 H1012 0.950 . S
C1019 C1016 1.387 1_455 S
C1020 C1021 1.387 . S
C1020 H1024 0.950 . S
C1020 C1029 1.390 . S
C1021 C1020 1.387 . S
C1021 C1023 1.387 . S
H1022 C1029 0.950 . S
C1023 C1021 1.387 . S
C1023 C1025 1.390 . S
C1023 H1027 0.950 . S
H1024 C1020 0.950 . S
C1025 C1023 1.390 . S
C1025 C1026 1.387 . S
C1025 H1028 0.950 . S
C1026 C1025 1.387 . S
C1026 C1029 1.387 . S
H1027 C1023 0.950 . S
H1028 C1025 0.950 . S
C1029 C1020 1.390 . S
C1029 H1022 0.950 . S
C1029 C1026 1.387 . S
C1030 C1031 1.387 . S
C1030 H1034 0.950 . S
C1030 C1039 1.390 . S
C1031 C1030 1.387 . S
C1031 C1033 1.383 1_455 S
H1032 C1039 0.950 . S
C1033 C1031 1.383 1_655 S
C1033 C1035 1.391 . S
C1033 H1037 0.953 . S
H1034 C1030 0.950 . S
C1035 C1033 1.391 . S
C1035 C1036 1.387 1_655 S
C1035 H1038 0.950 . S
C1036 C1035 1.387 1_455 S
C1036 C1039 1.387 . S
H1037 C1033 0.953 . S
H1038 C1035 0.950 . S
C1039 C1030 1.390 . S
C1039 H1032 0.950 . S
C1039 C1036 1.387 . S
C1040 C1041 1.387 . S
C1040 H1044 0.950 . S
C1040 C1049 1.390 . S
C1041 C1040 1.387 . S
C1041 C1043 1.387 . S
H1042 C1049 0.950 . S
C1043 C1041 1.387 . S
C1043 C1045 1.390 . S
C1043 H1047 0.950 . S
H1044 C1040 0.950 . S
C1045 C1043 1.390 . S
C1045 C1046 1.387 . S
C1045 H1048 0.950 . S
C1046 C1045 1.387 . S
C1046 C1049 1.387 . S
H1047 C1043 0.950 . S
H1048 C1045 0.950 . S
C1049 C1040 1.390 . S
C1049 H1042 0.950 . S
C1049 C1046 1.387 . S
C1050 C1051 1.387 . S
C1050 H1054 0.950 . S
C1050 C1059 1.390 . S
C1051 C1050 1.387 . S
C1051 C1053 1.387 . S
H1052 C1059 0.950 . S
C1053 C1051 1.387 . S
C1053 C1055 1.390 . S
C1053 H1057 0.950 . S
H1054 C1050 0.950 . S
C1055 C1053 1.390 . S
C1055 C1056 1.387 . S
C1055 H1058 0.950 . S
C1056 C1055 1.387 . S
C1056 C1059 1.387 . S
H1057 C1053 0.950 . S
H1058 C1055 0.950 . S
C1059 C1050 1.390 . S
C1059 H1052 0.950 . S
C1059 C1056 1.387 . S
C1060 C1061 1.387 . S
C1060 H1064 0.950 . S
C1060 C1069 1.390 . S
C1061 C1060 1.387 . S
C1061 C1063 1.387 . S
H1062 C1069 0.950 . S
C1063 C1061 1.387 . S
C1063 C1065 1.390 . S
C1063 H1067 0.950 . S
H1064 C1060 0.950 . S
C1065 C1063 1.390 . S
C1065 C1066 1.387 . S
C1065 H1068 0.950 . S
C1066 C1065 1.387 . S
C1066 C1069 1.387 . S
H1067 C1063 0.950 . S
H1068 C1065 0.950 . S
C1069 C1060 1.390 . S
C1069 H1062 0.950 . S
C1069 C1066 1.387 . S
C1070 C1071 1.387 . S
C1070 H1074 0.950 . S
C1070 C1079 1.390 . S
C1071 C1070 1.387 . S
C1071 C1073 1.387 . S
H1072 C1079 0.950 . S
C1073 C1071 1.387 . S
C1073 C1075 1.390 . S
C1073 H1077 0.950 . S
H1074 C1070 0.950 . S
C1075 C1073 1.390 . S
C1075 C1076 1.387 . S
C1075 H1078 0.950 . S
C1076 C1075 1.387 . S
C1076 C1079 1.387 . S
H1077 C1073 0.950 . S
H1078 C1075 0.950 . S
C1079 C1070 1.390 . S
C1079 H1072 0.950 . S
C1079 C1076 1.387 . S
C1080 C1081 1.387 . S
C1080 H1084 0.950 . S
C1080 C1089 1.390 . S
C1081 C1080 1.387 . S
C1081 C1083 1.387 . S
H1082 C1089 0.950 . S
C1083 C1081 1.387 . S
C1083 C1085 1.390 . S
C1083 H1087 0.950 . S
H1084 C1080 0.950 . S
C1085 C1083 1.390 . S
C1085 C1086 1.387 . S
C1085 H1088 0.950 . S
C1086 C1085 1.387 . S
C1086 C1089 1.387 . S
H1087 C1083 0.950 . S
H1088 C1085 0.950 . S
C1089 C1080 1.390 . S
C1089 H1082 0.950 . S
C1089 C1086 1.387 . S
C1090 C1091 1.387 . S
C1090 H1094 0.950 . S
C1090 C1099 1.390 . S
C1091 C1090 1.387 . S
C1091 C1093 1.387 . S
H1092 C1099 0.950 . S
C1093 C1091 1.387 . S
C1093 C1095 1.390 . S
C1093 H1097 0.950 . S
H1094 C1090 0.950 . S
C1095 C1093 1.390 . S
C1095 C1096 1.387 . S
C1095 H1098 0.950 . S
C1096 C1095 1.387 . S
C1096 C1099 1.387 . S
H1097 C1093 0.950 . S
H1098 C1095 0.950 . S
C1099 C1090 1.390 . S
C1099 H1092 0.950 . S
C1099 C1096 1.387 . S
C1100 C1101 1.387 . S
C1100 H1104 0.950 . S
C1100 C1109 1.390 . S
C1101 C1100 1.387 . S
C1101 C1103 1.387 . S
H1102 C1109 0.950 . S
C1103 C1101 1.387 . S
C1103 C1105 1.390 . S
C1103 H1107 0.950 . S
H1104 C1100 0.950 . S
C1105 C1103 1.390 . S
C1105 C1106 1.387 . S
C1105 H1108 0.950 . S
C1106 C1105 1.387 . S
C1106 C1109 1.387 . S
H1107 C1103 0.950 . S
H1108 C1105 0.950 . S
C1109 C1100 1.390 . S
C1109 H1102 0.950 . S
C1109 C1106 1.387 . S
C1110 C1111 1.387 . S
C1110 H1114 0.950 . S
C1110 C1119 1.390 . S
C1111 C1110 1.387 . S
C1111 C1113 1.387 . S
H1112 C1119 0.950 . S
C1113 C1111 1.387 . S
C1113 C1115 1.390 . S
C1113 H1117 0.950 . S
H1114 C1110 0.950 . S
C1115 C1113 1.390 . S
C1115 C1116 1.387 . S
C1115 H1118 0.950 . S
C1116 C1115 1.387 . S
C1116 C1119 1.387 . S
H1117 C1113 0.950 . S
H1118 C1115 0.950 . S
C1119 C1110 1.390 . S
C1119 H1112 0.950 . S
C1119 C1116 1.387 . S
C1120 C1121 1.387 . S
C1120 H1124 0.950 . S
C1120 C1129 1.390 . S
C1121 C1120 1.387 . S
C1121 C1123 1.387 1_556 S
H1122 C1129 0.950 . S
C1123 C1121 1.387 1_554 S
C1123 C1125 1.390 . S
C1123 H1127 0.950 . S
H1124 C1120 0.950 . S
C1125 C1123 1.390 . S
C1125 C1126 1.387 1_554 S
C1125 H1128 0.950 . S
C1126 C1125 1.387 1_556 S
C1126 C1129 1.387 . S
H1127 C1123 0.950 . S
H1128 C1125 0.950 . S
C1129 C1120 1.390 . S
C1129 H1122 0.950 . S
C1129 C1126 1.387 . S
C1130 C1131 1.387 . S
C1130 H1134 0.950 . S
C1130 C1139 1.390 . S
C1131 C1130 1.387 . S
C1131 C1133 1.387 . S
H1132 C1139 0.950 . S
C1133 C1131 1.387 . S
C1133 C1135 1.390 . S
C1133 H1137 0.950 . S
H1134 C1130 0.950 . S
C1135 C1133 1.390 . S
C1135 C1136 1.387 . S
C1135 H1138 0.950 . S
C1136 C1135 1.387 . S
C1136 C1139 1.387 . S
H1137 C1133 0.950 . S
H1138 C1135 0.950 . S
C1139 C1130 1.390 . S
C1139 H1132 0.950 . S
C1139 C1136 1.387 . S
C1140 C1141 1.387 . S
C1140 H1144 0.950 . S
C1140 C1149 1.390 . S
C1141 C1140 1.387 . S
C1141 C1143 1.387 . S
H1142 C1149 0.950 . S
C1143 C1141 1.387 . S
C1143 C1145 1.390 . S
C1143 H1147 0.950 1_554 S
H1144 C1140 0.950 . S
C1145 C1143 1.390 . S
C1145 C1146 1.387 . S
C1145 H1148 0.950 1_554 S
C1146 C1145 1.387 . S
C1146 C1149 1.387 . S
H1147 C1143 0.950 1_556 S
H1148 C1145 0.950 1_556 S
C1149 C1140 1.390 . S
C1149 H1142 0.950 . S
C1149 C1146 1.387 . S
C1150 C1151 1.395 . S
C1150 H1154 0.943 1_554 S
C1150 C1159 1.389 1_554 S
C1151 C1150 1.395 . S
C1151 C1153 1.387 . S
H1152 C1159 0.950 . S
C1153 C1151 1.387 . S
C1153 C1155 1.390 . S
C1153 H1157 0.950 . S
H1154 C1150 0.943 1_556 S
C1155 C1153 1.390 . S
C1155 C1156 1.387 . S
C1155 H1158 0.950 . S
C1156 C1155 1.387 . S
C1156 C1159 1.387 1_554 S
H1157 C1153 0.950 . S
H1158 C1155 0.950 . S
C1159 C1150 1.389 1_556 S
C1159 H1152 0.950 . S
C1159 C1156 1.387 1_556 S
C686 C520 1.463 . S
C681 C177 1.454 . S
C696 C533 1.506 . S
C691 C209 1.469 . S
C701 C253 1.522 . S
C706 C553 1.479 . S
C716 C567 1.412 . S
C711 C157 1.460 1_655 S
C726 C579 1.516 . S
C721 C343 1.494 . S
C736 C593 1.437 . S
C731 C401 1.407 . S
C741 C369 1.488 . S
C746 C603 1.497 . S
C756 C618 1.500 . S
C751 C317 1.489 . S
C761 C375 1.504 . S
C766 C632 1.499 . S
C776 C651 1.415 . S
C771 C305 1.446 . S
C781 C349 1.482 . S
C786 C631 1.504 . S
C796 C649 1.450 . S
C791 C413 1.408 . S
C801 C241 1.551 . S
C806 C665 1.490 . S
C811 C151 1.461 . S
C816 C659 1.465 . S
C821 C189 1.479 . S
C826 C663 1.509 . S
C831 C215 1.500 . S
C836 C660 1.511 . S
C841 C113 1.487 . S
C846 C562 1.482 . S
C851 C471 1.449 . S
C856 C561 1.467 . S
C866 C525 1.398 . S
C861 C509 1.414 . S
C876 C539 1.501 . S
C871 C279 1.554 . S
C881 C145 1.498 . S
C886 C576 1.471 . S
C896 C621 1.541 . S
C891 C381 1.517 . S
C906 C575 1.501 . S
C901 C311 1.465 . S
C916 C607 1.434 . S
C911 C407 1.402 . S
C926 C604 1.464 . S
C921 C465 1.452 . S
C931 C497 1.469 . S
C936 C617 1.506 . S
C941 C285 1.526 . S
C946 C581 1.483 . S
C956 C595 1.409 . S
C951 C445 1.459 . S
C961 C119 1.496 . S
C966 C551 1.516 . S
C976 C565 1.437 . S
C971 C17 1.407 . S
C986 C519 1.498 . S
C981 C49 1.487 . S
C996 C534 1.500 . S
C991 C93 1.487 . S
C1001 C55 1.504 . S
C1006 C646 1.498 . S
C1011 C81 1.464 . S
C1016 C637 1.416 . S
C1021 C125 1.482 . S
C1026 C645 1.504 . S
C1031 C29 1.407 . S
C1036 C635 1.449 . S
C1046 C679 1.486 . S
C1041 C273 1.548 . S
C1056 C673 1.465 . S
C1051 C439 1.460 . S
C1066 C677 1.510 . S
C1061 C477 1.477 . S
C1071 C503 1.498 . S
C1076 C674 1.510 . S
C1081 C337 1.488 . S
C1086 C590 1.482 . S
C1096 C589 1.467 . S
C1091 C183 1.449 . S
C1106 C609 1.397 . S
C1101 C221 1.413 . S
C1116 C623 1.505 . S
C1111 C247 1.557 . S
C1121 C433 1.497 . S
C1126 C548 1.472 . S
C1136 C537 1.540 . S
C1131 C61 1.514 . S
C1141 C87 1.465 . S
C1146 C547 1.500 . S
C1156 C523 1.435 . S
C1151 C23 1.404 . S
