# Generated by pormake.
# Topology ptr, (4,4)-cn, num edge types: 1
# Building blocks:
#     Node 0, Type 0, BuildingBlock: UXUYUI_clean_sbu_0, # of connection points: 4
#     Node 1, Type 0, BuildingBlock: UXUYUI_clean_sbu_0, # of connection points: 4
#     Node 2, Type 0, BuildingBlock: UXUYUI_clean_sbu_0, # of connection points: 4
#     Node 3, Type 0, BuildingBlock: UXUYUI_clean_sbu_0, # of connection points: 4
#     Node 4, Type 0, BuildingBlock: UXUYUI_clean_sbu_0, # of connection points: 4
#     Node 5, Type 0, BuildingBlock: UXUYUI_clean_sbu_0, # of connection points: 4
#     Node 6, Type 0, BuildingBlock: UXUYUI_clean_sbu_0, # of connection points: 4
#     Node 7, Type 0, BuildingBlock: UXUYUI_clean_sbu_0, # of connection points: 4
#     Node 8, Type 0, BuildingBlock: UXUYUI_clean_sbu_0, # of connection points: 4
#     Node 9, Type 0, BuildingBlock: UXUYUI_clean_sbu_0, # of connection points: 4
#     Node 10, Type 0, BuildingBlock: UXUYUI_clean_sbu_0, # of connection points: 4
#     Node 11, Type 0, BuildingBlock: UXUYUI_clean_sbu_0, # of connection points: 4
#     Node 12, Type 0, BuildingBlock: UXUYUI_clean_sbu_0, # of connection points: 4
#     Node 13, Type 0, BuildingBlock: UXUYUI_clean_sbu_0, # of connection points: 4
#     Node 14, Type 0, BuildingBlock: UXUYUI_clean_sbu_0, # of connection points: 4
#     Node 15, Type 0, BuildingBlock: UXUYUI_clean_sbu_0, # of connection points: 4
#     Node 16, Type 0, BuildingBlock: UXUYUI_clean_sbu_0, # of connection points: 4
#     Node 17, Type 0, BuildingBlock: UXUYUI_clean_sbu_0, # of connection points: 4
#     Node 18, Type 1, BuildingBlock: MIFKUJ_clean_linker_1, # of connection points: 4
#     Node 19, Type 1, BuildingBlock: MIFKUJ_clean_linker_1, # of connection points: 4
#     Node 20, Type 1, BuildingBlock: MIFKUJ_clean_linker_1, # of connection points: 4
#     Node 21, Type 1, BuildingBlock: MIFKUJ_clean_linker_1, # of connection points: 4
#     Node 22, Type 1, BuildingBlock: MIFKUJ_clean_linker_1, # of connection points: 4
#     Node 23, Type 1, BuildingBlock: MIFKUJ_clean_linker_1, # of connection points: 4
#     Node 24, Type 1, BuildingBlock: MIFKUJ_clean_linker_1, # of connection points: 4
#     Node 25, Type 1, BuildingBlock: MIFKUJ_clean_linker_1, # of connection points: 4
#     Node 26, Type 1, BuildingBlock: MIFKUJ_clean_linker_1, # of connection points: 4
#     Node 27, Type 1, BuildingBlock: MIFKUJ_clean_linker_1, # of connection points: 4
#     Node 28, Type 1, BuildingBlock: MIFKUJ_clean_linker_1, # of connection points: 4
#     Node 29, Type 1, BuildingBlock: MIFKUJ_clean_linker_1, # of connection points: 4
#     Node 30, Type 1, BuildingBlock: MIFKUJ_clean_linker_1, # of connection points: 4
#     Node 31, Type 1, BuildingBlock: MIFKUJ_clean_linker_1, # of connection points: 4
#     Node 32, Type 1, BuildingBlock: MIFKUJ_clean_linker_1, # of connection points: 4
#     Node 33, Type 1, BuildingBlock: MIFKUJ_clean_linker_1, # of connection points: 4
#     Node 34, Type 1, BuildingBlock: MIFKUJ_clean_linker_1, # of connection points: 4
#     Node 35, Type 1, BuildingBlock: MIFKUJ_clean_linker_1, # of connection points: 4
#     Edge 36, Type (0, 1), BuildingBlock: XUDNAN_clean_linker_2, # of connection points: 2
#     Edge 37, Type (0, 1), BuildingBlock: XUDNAN_clean_linker_2, # of connection points: 2
#     Edge 38, Type (0, 1), BuildingBlock: XUDNAN_clean_linker_2, # of connection points: 2
#     Edge 39, Type (0, 1), BuildingBlock: XUDNAN_clean_linker_2, # of connection points: 2
#     Edge 40, Type (0, 1), BuildingBlock: XUDNAN_clean_linker_2, # of connection points: 2
#     Edge 41, Type (0, 1), BuildingBlock: XUDNAN_clean_linker_2, # of connection points: 2
#     Edge 42, Type (0, 1), BuildingBlock: XUDNAN_clean_linker_2, # of connection points: 2
#     Edge 43, Type (0, 1), BuildingBlock: XUDNAN_clean_linker_2, # of connection points: 2
#     Edge 44, Type (0, 1), BuildingBlock: XUDNAN_clean_linker_2, # of connection points: 2
#     Edge 45, Type (0, 1), BuildingBlock: XUDNAN_clean_linker_2, # of connection points: 2
#     Edge 46, Type (0, 1), BuildingBlock: XUDNAN_clean_linker_2, # of connection points: 2
#     Edge 47, Type (0, 1), BuildingBlock: XUDNAN_clean_linker_2, # of connection points: 2
#     Edge 48, Type (0, 1), BuildingBlock: XUDNAN_clean_linker_2, # of connection points: 2
#     Edge 49, Type (0, 1), BuildingBlock: XUDNAN_clean_linker_2, # of connection points: 2
#     Edge 50, Type (0, 1), BuildingBlock: XUDNAN_clean_linker_2, # of connection points: 2
#     Edge 51, Type (0, 1), BuildingBlock: XUDNAN_clean_linker_2, # of connection points: 2
#     Edge 52, Type (0, 1), BuildingBlock: XUDNAN_clean_linker_2, # of connection points: 2
#     Edge 53, Type (0, 1), BuildingBlock: XUDNAN_clean_linker_2, # of connection points: 2
#     Edge 54, Type (0, 1), BuildingBlock: XUDNAN_clean_linker_2, # of connection points: 2
#     Edge 55, Type (0, 1), BuildingBlock: XUDNAN_clean_linker_2, # of connection points: 2
#     Edge 56, Type (0, 1), BuildingBlock: XUDNAN_clean_linker_2, # of connection points: 2
#     Edge 57, Type (0, 1), BuildingBlock: XUDNAN_clean_linker_2, # of connection points: 2
#     Edge 58, Type (0, 1), BuildingBlock: XUDNAN_clean_linker_2, # of connection points: 2
#     Edge 59, Type (0, 1), BuildingBlock: XUDNAN_clean_linker_2, # of connection points: 2
#     Edge 60, Type (0, 1), BuildingBlock: XUDNAN_clean_linker_2, # of connection points: 2
#     Edge 61, Type (0, 1), BuildingBlock: XUDNAN_clean_linker_2, # of connection points: 2
#     Edge 62, Type (0, 1), BuildingBlock: XUDNAN_clean_linker_2, # of connection points: 2
#     Edge 63, Type (0, 1), BuildingBlock: XUDNAN_clean_linker_2, # of connection points: 2
#     Edge 64, Type (0, 1), BuildingBlock: XUDNAN_clean_linker_2, # of connection points: 2
#     Edge 65, Type (0, 1), BuildingBlock: XUDNAN_clean_linker_2, # of connection points: 2
#     Edge 66, Type (0, 1), BuildingBlock: XUDNAN_clean_linker_2, # of connection points: 2
#     Edge 67, Type (0, 1), BuildingBlock: XUDNAN_clean_linker_2, # of connection points: 2
#     Edge 68, Type (0, 1), BuildingBlock: XUDNAN_clean_linker_2, # of connection points: 2
#     Edge 69, Type (0, 1), BuildingBlock: XUDNAN_clean_linker_2, # of connection points: 2
#     Edge 70, Type (0, 1), BuildingBlock: XUDNAN_clean_linker_2, # of connection points: 2
#     Edge 71, Type (0, 1), BuildingBlock: XUDNAN_clean_linker_2, # of connection points: 2
#     Edge 72, Type (0, 1), BuildingBlock: XUDNAN_clean_linker_2, # of connection points: 2
#     Edge 73, Type (0, 1), BuildingBlock: XUDNAN_clean_linker_2, # of connection points: 2
#     Edge 74, Type (0, 1), BuildingBlock: XUDNAN_clean_linker_2, # of connection points: 2
#     Edge 75, Type (0, 1), BuildingBlock: XUDNAN_clean_linker_2, # of connection points: 2
#     Edge 76, Type (0, 1), BuildingBlock: XUDNAN_clean_linker_2, # of connection points: 2
#     Edge 77, Type (0, 1), BuildingBlock: XUDNAN_clean_linker_2, # of connection points: 2
#     Edge 78, Type (0, 1), BuildingBlock: XUDNAN_clean_linker_2, # of connection points: 2
#     Edge 79, Type (0, 1), BuildingBlock: XUDNAN_clean_linker_2, # of connection points: 2
#     Edge 80, Type (0, 1), BuildingBlock: XUDNAN_clean_linker_2, # of connection points: 2
#     Edge 81, Type (0, 1), BuildingBlock: XUDNAN_clean_linker_2, # of connection points: 2
#     Edge 82, Type (0, 1), BuildingBlock: XUDNAN_clean_linker_2, # of connection points: 2
#     Edge 83, Type (0, 1), BuildingBlock: XUDNAN_clean_linker_2, # of connection points: 2
#     Edge 84, Type (0, 1), BuildingBlock: XUDNAN_clean_linker_2, # of connection points: 2
#     Edge 85, Type (0, 1), BuildingBlock: XUDNAN_clean_linker_2, # of connection points: 2
#     Edge 86, Type (0, 1), BuildingBlock: XUDNAN_clean_linker_2, # of connection points: 2
#     Edge 87, Type (0, 1), BuildingBlock: XUDNAN_clean_linker_2, # of connection points: 2
#     Edge 88, Type (0, 1), BuildingBlock: XUDNAN_clean_linker_2, # of connection points: 2
#     Edge 89, Type (0, 1), BuildingBlock: XUDNAN_clean_linker_2, # of connection points: 2
#     Edge 90, Type (0, 1), BuildingBlock: XUDNAN_clean_linker_2, # of connection points: 2
#     Edge 91, Type (0, 1), BuildingBlock: XUDNAN_clean_linker_2, # of connection points: 2
#     Edge 92, Type (0, 1), BuildingBlock: XUDNAN_clean_linker_2, # of connection points: 2
#     Edge 93, Type (0, 1), BuildingBlock: XUDNAN_clean_linker_2, # of connection points: 2
#     Edge 94, Type (0, 1), BuildingBlock: XUDNAN_clean_linker_2, # of connection points: 2
#     Edge 95, Type (0, 1), BuildingBlock: XUDNAN_clean_linker_2, # of connection points: 2
#     Edge 96, Type (0, 1), BuildingBlock: XUDNAN_clean_linker_2, # of connection points: 2
#     Edge 97, Type (0, 1), BuildingBlock: XUDNAN_clean_linker_2, # of connection points: 2
#     Edge 98, Type (0, 1), BuildingBlock: XUDNAN_clean_linker_2, # of connection points: 2
#     Edge 99, Type (0, 1), BuildingBlock: XUDNAN_clean_linker_2, # of connection points: 2
#     Edge 100, Type (0, 1), BuildingBlock: XUDNAN_clean_linker_2, # of connection points: 2
#     Edge 101, Type (0, 1), BuildingBlock: XUDNAN_clean_linker_2, # of connection points: 2
#     Edge 102, Type (0, 1), BuildingBlock: XUDNAN_clean_linker_2, # of connection points: 2
#     Edge 103, Type (0, 1), BuildingBlock: XUDNAN_clean_linker_2, # of connection points: 2
#     Edge 104, Type (0, 1), BuildingBlock: XUDNAN_clean_linker_2, # of connection points: 2
#     Edge 105, Type (0, 1), BuildingBlock: XUDNAN_clean_linker_2, # of connection points: 2
#     Edge 106, Type (0, 1), BuildingBlock: XUDNAN_clean_linker_2, # of connection points: 2
#     Edge 107, Type (0, 1), BuildingBlock: XUDNAN_clean_linker_2, # of connection points: 2
# Relax obj value: 0.094
# Max RMSD: 0.272
# Mean RMSD: 0.119
data_MOF--net-ptr--node1-UXUYUI_clean_sbu_0--node2-MIFKUJ_clean_linker_1--edge1-XUDNAN_clean_linker_2
_symmetry_space_group_name_H-M    P1
_symmetry_Int_Tables_number       1
_symmetry_cell_setting            triclinic
loop_
_symmetry_equiv_pos_as_xyz
'x, y, z'
_cell_length_a     107.96588
_cell_length_b     107.9633
_cell_length_c     70.889761
_cell_angle_alpha  90.110039
_cell_angle_beta   89.888497
_cell_angle_gamma 120.11035
loop_
_atom_site_label
_atom_site_type_symbol
_atom_site_fract_x
_atom_site_fract_y
_atom_site_fract_z
_atom_type_partial_charge
Li0 Li 0.98988 0.33674 0.00434 0.0
Li1 Li 0.01294 0.34762 0.01893 0.0
Li2 Li 0.99604 0.35572 0.02615 0.0
Li3 Li 0.00679 0.36065 0.99488 0.0
C4 C 0.9819 0.32871 0.04201 0.0
N5 N 0.95737 0.31271 0.0631 0.0
C6 C 0.98247 0.32214 0.05869 0.0
C7 C 0.96884 0.32713 0.03604 0.0
C8 C 0.96995 0.3141 0.06916 0.0
C9 C 0.95657 0.319 0.0469 0.0
C10 C 0.00578 0.333 0.97895 0.0
C11 C 0.0011 0.32408 0.94701 0.0
N12 N 0.99849 0.3111 0.9533 0.0
C13 C 0.0032 0.3196 0.98508 0.0
C14 C 0.00484 0.3353 0.95975 0.0
C15 C 0.99948 0.30865 0.9719 0.0
C16 C 0.9707 0.32095 0.97617 0.0
N17 N 0.97509 0.31944 0.99351 0.0
C18 C 0.9616 0.29394 0.99083 0.0
C19 C 0.97053 0.30629 0.00118 0.0
C20 C 0.95763 0.29525 0.97242 0.0
C21 C 0.96201 0.30894 0.96524 0.0
H22 H 0.97462 0.33155 0.97041 0.0
H23 H 0.97441 0.3054 0.01487 0.0
C24 C 0.03369 0.35252 0.04589 0.0
N25 N 0.02793 0.34545 0.02947 0.0
C26 C 0.04533 0.35227 0.05396 0.0
C27 C 0.04462 0.33704 0.02843 0.0
C28 C 0.03313 0.3378 0.02066 0.0
C29 C 0.05095 0.34448 0.04517 0.0
H30 H 0.02937 0.35859 0.05251 0.0
H31 H 0.02859 0.33253 0.00742 0.0
C32 C 0.9828 0.36321 0.99891 0.0
N33 N 0.97552 0.38411 0.99359 0.0
C34 C 0.99238 0.37742 0.00395 0.0
C35 C 0.96953 0.35965 0.99117 0.0
C36 C 0.9885 0.38782 0.00115 0.0
C37 C 0.96605 0.37037 0.98859 0.0
C38 C 0.03084 0.37748 0.0177 0.0
C39 C 0.03693 0.39067 0.027 0.0
C40 C 0.03946 0.3742 0.00639 0.0
C41 C 0.05154 0.40038 0.02483 0.0
C42 C 0.05403 0.38419 0.00463 0.0
N43 N 0.05971 0.39696 0.0138 0.0
C44 C 1.0001 0.37326 0.05748 0.0
C45 C 0.97634 0.36143 0.04581 0.0
C46 C 0.99685 0.38117 0.07011 0.0
N47 N 0.98997 0.36385 0.04541 0.0
C48 C 0.97259 0.36904 0.05827 0.0
C49 C 0.98301 0.37934 0.07034 0.0
H50 H 0.01087 0.37501 0.0568 0.0
H51 H 0.96849 0.35398 0.03596 0.0
C52 C 0.00229 0.3691 0.95986 0.0
N53 N 0.01225 0.37352 0.97383 0.0
C54 C 0.0042 0.378 0.94455 0.0
C55 C 0.02682 0.39574 0.95789 0.0
C56 C 0.02437 0.38659 0.97311 0.0
C57 C 0.01657 0.39153 0.9435 0.0
H58 H 0.99267 0.35874 0.96086 0.0
H59 H 0.03199 0.39018 0.98447 0.0
O60 O 0.99412 0.33662 0.0317 0.0
O61 O 0.00906 0.34374 0.9917 0.0
O62 O 0.98628 0.35276 0.00146 0.0
O63 O 0.0166 0.36778 0.02004 0.0
H64 H 0.9925 0.32327 0.06349 0.0
H65 H 0.96815 0.33208 0.02316 0.0
H66 H 0.97024 0.30896 0.0821 0.0
H67 H 0.9464 0.3177 0.04245 0.0
H68 H 1.00025 0.3257 0.93212 0.0
H69 H 0.0037 0.31757 0.99992 0.0
H70 H 0.00693 0.34562 0.95473 0.0
H71 H 0.99726 0.29818 0.97647 0.0
H72 H 0.95849 0.28353 0.99672 0.0
H73 H 0.95909 0.31032 0.95112 0.0
H74 H 0.0499 0.35809 0.06694 0.0
H75 H 0.04879 0.33106 0.02117 0.0
H76 H 0.00271 0.38042 0.00995 0.0
H77 H 0.96201 0.3487 0.98719 0.0
H78 H 0.9958 0.39884 0.00498 0.0
H79 H 0.95581 0.36776 0.98261 0.0
H80 H 0.03042 0.39338 0.03578 0.0
H81 H 0.03497 0.36411 0.99898 0.0
H82 H 0.05638 0.41063 0.03193 0.0
H83 H 0.06081 0.38179 0.99594 0.0
H84 H 0.00528 0.38909 0.07896 0.0
H85 H 0.96174 0.36711 0.05814 0.0
H86 H 0.99607 0.37436 0.93369 0.0
H87 H 0.03639 0.40621 0.95771 0.0
Li88 Li 0.6638 0.64922 0.00487 0.0
Li89 Li 0.65344 0.66324 0.01719 0.0
Li90 Li 0.64423 0.63773 0.02741 0.0
Li91 Li 0.63944 0.64294 0.99573 0.0
C92 C 0.67629 0.65859 0.03895 0.0
N93 N 0.7029 0.66606 0.05331 0.0
C94 C 0.6861 0.6729 0.04311 0.0
C95 C 0.67994 0.64806 0.04223 0.0
C96 C 0.69952 0.67646 0.05034 0.0
C97 C 0.69348 0.65206 0.04944 0.0
C98 C 0.66084 0.67033 0.97656 0.0
C99 C 0.6536 0.68141 0.95283 0.0
N100 N 0.66751 0.68975 0.94754 0.0
C101 C 0.67505 0.67893 0.97075 0.0
C102 C 0.65001 0.6715 0.96743 0.0
C103 C 0.67821 0.68872 0.95612 0.0
C104 C 0.68004 0.63924 0.98635 0.0
N105 N 0.6811 0.65066 0.99587 0.0
C106 C 0.70647 0.6637 0.99127 0.0
C107 C 0.69395 0.66281 0.99831 0.0
C108 C 0.70571 0.65203 0.98142 0.0
C109 C 0.69224 0.63969 0.97897 0.0
H110 H 0.66966 0.62985 0.98427 0.0
H111 H 0.69448 0.67186 0.00559 0.0
C112 C 0.65123 0.68292 0.04105 0.0
N113 N 0.65783 0.6818 0.02532 0.0
C114 C 0.65404 0.69635 0.04738 0.0
C115 C 0.67048 0.70718 0.0213 0.0
C116 C 0.66744 0.69357 0.01559 0.0
C117 C 0.66368 0.70868 0.03733 0.0
H118 H 0.6437 0.67336 0.04857 0.0
H119 H 0.67279 0.69243 0.00341 0.0
C120 C 0.63549 0.6159 0.00173 0.0
N121 N 0.61319 0.58796 0.99895 0.0
C122 C 0.62157 0.61244 0.00672 0.0
C123 C 0.63804 0.60511 0.99541 0.0
C124 C 0.61045 0.59827 0.00519 0.0
C125 C 0.62663 0.59106 0.99408 0.0
C126 C 0.62239 0.65046 0.01822 0.0
C127 C 0.60888 0.64143 0.02601 0.0
C128 C 0.62488 0.66273 0.00847 0.0
C129 C 0.59806 0.64481 0.02381 0.0
C130 C 0.61379 0.66575 0.00658 0.0
N131 N 0.60072 0.6568 0.01422 0.0
C132 C 0.62619 0.62397 0.05876 0.0
C133 C 0.64072 0.61443 0.04895 0.0
C134 C 0.61911 0.61288 0.07177 0.0
N135 N 0.63655 0.62435 0.04745 0.0
C136 C 0.63402 0.60323 0.06184 0.0
C137 C 0.6228 0.60213 0.07316 0.0
H138 H 0.62311 0.63202 0.05724 0.0
H139 H 0.64891 0.61495 0.03965 0.0
C140 C 0.63243 0.63345 0.95894 0.0
N141 N 0.62666 0.63569 0.97472 0.0
C142 C 0.62402 0.62726 0.94296 0.0
C143 C 0.60386 0.62597 0.95961 0.0
C144 C 0.61266 0.63212 0.97533 0.0
C145 C 0.60948 0.62334 0.94317 0.0
H146 H 0.64355 0.63622 0.95896 0.0
H147 H 0.60818 0.63374 0.98804 0.0
O148 O 0.66316 0.65492 0.03174 0.0
O149 O 0.65759 0.6606 0.99077 0.0
O150 O 0.64662 0.62969 0.00329 0.0
O151 O 0.63309 0.64727 0.02027 0.0
H152 H 0.68341 0.68116 0.04067 0.0
H153 H 0.67248 0.63695 0.039 0.0
H154 H 0.70725 0.68749 0.05356 0.0
H155 H 0.6965 0.64405 0.05193 0.0
H156 H 0.64531 0.68242 0.94567 0.0
H157 H 0.68357 0.67813 0.97756 0.0
H158 H 0.63892 0.66477 0.97141 0.0
H159 H 0.68917 0.6955 0.95157 0.0
H160 H 0.71661 0.67339 0.9936 0.0
H161 H 0.69107 0.63055 0.97112 0.0
H162 H 0.64852 0.69706 0.05974 0.0
H163 H 0.67815 0.71645 0.01335 0.0
H164 H 0.61934 0.62055 0.01178 0.0
H165 H 0.64874 0.60752 0.99164 0.0
H166 H 0.59965 0.59547 0.009 0.0
H167 H 0.62847 0.58261 0.98921 0.0
H168 H 0.60672 0.63183 0.03351 0.0
H169 H 0.63526 0.6699 0.00248 0.0
H170 H 0.58754 0.6379 0.0297 0.0
H171 H 0.61558 0.67522 0.99905 0.0
H172 H 0.61045 0.61241 0.08004 0.0
H173 H 0.63741 0.59535 0.06263 0.0
H174 H 0.62879 0.62521 0.93078 0.0
H175 H 0.59276 0.62325 0.96039 0.0
Li176 Li 0.35466 0.99537 0.98962 0.0
Li177 Li 0.36052 0.00319 0.02303 0.0
Li178 Li 0.33642 0.98948 0.0132 0.0
Li179 Li 0.34946 0.01375 0.00315 0.0
C180 C 0.34212 0.96913 0.01379 0.0
N181 N 0.32296 0.94013 0.01691 0.0
C182 C 0.34096 0.96201 0.03072 0.0
C183 C 0.33359 0.96149 0.99842 0.0
C184 C 0.33119 0.94735 0.03202 0.0
C185 C 0.32396 0.94684 1.00028 0.0
C186 C 0.38216 0.0192 0.99481 0.0
C187 C 0.405 0.03671 0.98192 0.0
N188 N 0.40977 0.02728 0.98395 0.0
C189 C 0.38727 0.00967 0.99676 0.0
C190 C 0.39106 0.03281 0.98729 0.0
C191 C 0.40127 0.01396 0.99118 0.0
C192 C 0.36587 0.99933 0.95262 0.0
N193 N 0.36193 0.99064 0.96799 0.0
C194 C 0.37211 0.9774 0.95466 0.0
C195 C 0.36483 0.97978 0.96921 0.0
C196 C 0.3766 0.98638 0.93875 0.0
C197 C 0.37326 0.99738 0.93775 0.0
H198 H 0.3637 0.00808 0.95224 0.0
H199 H 0.36203 0.97334 0.98185 0.0
C200 C 0.36545 0.99643 0.0582 0.0
N201 N 0.37267 0.00542 0.04373 0.0
C202 C 0.37286 0.99477 0.07312 0.0
C203 C 0.39506 0.01258 0.05881 0.0
C204 C 0.38717 0.01388 0.04408 0.0
C205 C 0.38789 0.00251 0.0732 0.0
H206 H 0.3539 0.99011 0.05773 0.0
H207 H 0.39268 0.02124 0.03267 0.0
C208 C 0.32371 0.99211 0.98101 0.0
N209 N 0.2961 0.98231 0.9686 0.0
C210 C 0.31512 0.99666 0.9899 0.0
C211 C 0.31831 0.98263 0.96578 0.0
C212 C 0.30117 0.99156 0.98342 0.0
C213 C 0.30431 0.97779 0.95972 0.0
C214 C 0.34962 0.01801 0.04157 0.0
C215 C 0.34115 0.01757 0.05679 0.0
C216 C 0.3631 0.03013 0.03885 0.0
C217 C 0.34629 0.02929 0.06899 0.0
C218 C 0.36785 0.04162 0.05137 0.0
N219 N 0.35942 0.04098 0.06605 0.0
C220 C 0.31833 0.97629 0.04273 0.0
C221 C 0.30627 0.96613 0.01402 0.0
C222 C 0.30585 0.96799 0.05298 0.0
N223 N 0.31828 0.97553 0.02361 0.0
C224 C 0.29344 0.95759 0.02377 0.0
C225 C 0.29307 0.95876 0.0435 0.0
H226 H 0.32809 0.98358 0.05006 0.0
H227 H 0.30652 0.96541 0.99885 0.0
C228 C 0.35411 0.03706 0.98035 0.0
N229 N 0.34805 0.0301 0.99673 0.0
C230 C 0.35229 0.04839 0.97439 0.0
C231 C 0.33824 0.04529 0.00244 0.0
C232 C 0.34017 0.03393 0.00771 0.0
C233 C 0.34425 0.0526 0.98552 0.0
H234 H 0.36013 0.03363 0.97176 0.0
H235 H 0.33507 0.02796 0.02035 0.0
O236 O 0.35131 0.98356 0.01233 0.0
O237 O 0.36838 0.01513 0.99965 0.0
O238 O 0.33735 0.99688 0.98716 0.0
O239 O 0.34463 0.00656 0.02955 0.0
H240 H 0.34752 0.96771 0.04273 0.0
H241 H 0.33426 0.96687 0.98527 0.0
H242 H 0.33015 0.94171 0.04506 0.0
H243 H 0.31724 0.94081 0.98854 0.0
H244 H 0.41202 0.04722 0.97609 0.0
H245 H 0.38051 0.99908 0.00254 0.0
H246 H 0.3872 0.04027 0.98559 0.0
H247 H 0.40537 0.00669 0.9926 0.0
H248 H 0.37471 0.96899 0.95622 0.0
H249 H 0.37647 0.0045 0.92572 0.0
H250 H 0.36691 0.98716 0.08417 0.0
H251 H 0.40664 0.0188 0.05841 0.0
H252 H 0.3191 0.00387 0.00183 0.0
H253 H 0.32487 0.97903 0.95878 0.0
H254 H 0.29436 0.99492 0.99022 0.0
H255 H 0.29996 0.97042 0.94798 0.0
H256 H 0.33069 0.00828 0.05909 0.0
H257 H 0.36985 0.03072 0.02722 0.0
H258 H 0.33983 0.0291 0.0808 0.0
H259 H 0.37824 0.05107 0.04942 0.0
H260 H 0.30617 0.96893 0.06821 0.0
H261 H 0.28384 0.95055 0.01592 0.0
H262 H 0.35712 0.0538 0.96127 0.0
H263 H 0.33177 0.04806 0.01123 0.0
Li264 Li 0.01145 0.66496 0.01764 0.0
Li265 Li 0.99377 0.6413 0.02949 0.0
Li266 Li 0.00466 0.64443 0.997 0.0
Li267 Li 0.987 0.65191 0.00334 0.0
C268 C 0.02661 0.65328 0.03137 0.0
N269 N 0.05229 0.6639 0.05035 0.0
C270 C 0.02682 0.65313 0.05108 0.0
C271 C 0.03942 0.65864 0.02131 0.0
C272 C 0.03992 0.6586 0.06042 0.0
C273 C 0.0523 0.66401 0.03117 0.0
C274 C 0.98297 0.65888 0.04252 0.0
C275 C 0.95865 0.64918 0.05329 0.0
N276 N 0.96345 0.65819 0.06836 0.0
C277 C 0.98767 0.66813 0.05803 0.0
C278 C 0.96835 0.64939 0.04004 0.0
C279 C 0.97764 0.66759 0.07098 0.0
C280 C 0.03427 0.6936 0.01298 0.0
N281 N 0.02655 0.6831 0.02571 0.0
C282 C 0.04037 0.69828 0.05116 0.0
C283 C 0.02924 0.68526 0.04451 0.0
C284 C 0.04871 0.70928 0.03833 0.0
C285 C 0.04545 0.70683 0.01901 0.0
H286 H 0.0317 0.69175 0.99816 0.0
H287 H 0.02276 0.67681 0.05435 0.0
C288 C 0.98957 0.6171 0.04787 0.0
N289 N 0.98844 0.62893 0.05071 0.0
C290 C 0.98836 0.6083 0.06299 0.0
C291 C 0.98423 0.62372 0.08363 0.0
C292 C 0.98561 0.63227 0.06809 0.0
C293 C 0.98596 0.61173 0.08127 0.0
H294 H 0.9921 0.61488 0.03394 0.0
H295 H 0.98502 0.64187 0.07013 0.0
C296 C 0.01246 0.6669 0.97345 0.0
N297 N 0.02557 0.67435 0.93852 0.0
C298 C 0.00494 0.66748 0.95777 0.0
C299 C 0.02669 0.67026 0.97141 0.0
C300 C 0.01175 0.67123 0.94021 0.0
C301 C 0.03311 0.67396 0.95362 0.0
C302 C 0.97141 0.62091 0.0014 0.0
C303 C 0.96858 0.61437 0.98367 0.0
C304 C 0.9609 0.61524 0.01544 0.0
C305 C 0.95512 0.6025 0.9801 0.0
C306 C 0.94757 0.60334 0.01133 0.0
N307 N 0.94497 0.59728 0.99388 0.0
C308 C 0.01747 0.62859 0.98579 0.0
C309 C 0.00696 0.63442 0.96058 0.0
C310 C 0.02109 0.62069 0.97367 0.0
N311 N 0.01053 0.63523 0.9791 0.0
C312 C 0.01058 0.62683 0.94789 0.0
C313 C 0.01762 0.61967 0.95439 0.0
H314 H 0.01988 0.62912 0.00067 0.0
H315 H 0.00105 0.63944 0.95569 0.0
C316 C 0.96949 0.66432 0.99688 0.0
N317 N 0.97255 0.65412 0.99114 0.0
C318 C 0.9604 0.66725 0.98613 0.0
C319 C 0.9577 0.649 0.964 0.0
C320 C 0.96677 0.64642 0.97516 0.0
C321 C 0.95465 0.65974 0.96922 0.0
H322 H 0.97455 0.67059 0.00937 0.0
H323 H 0.96979 0.63877 0.97053 0.0
O324 O 0.0139 0.64808 0.02197 0.0
O325 O 0.99269 0.65927 0.02979 0.0
O326 O 0.00593 0.66311 0.99071 0.0
O327 O 0.9846 0.63244 0.00519 0.0
H328 H 0.01701 0.649 0.05909 0.0
H329 H 0.03942 0.65859 0.00606 0.0
H330 H 0.04026 0.65865 0.07567 0.0
H331 H 0.06231 0.66824 0.02356 0.0
H332 H 0.94729 0.64188 0.05155 0.0
H333 H 0.99896 0.67561 0.06009 0.0
H334 H 0.96451 0.64238 0.02793 0.0
H335 H 0.98112 0.67464 0.08309 0.0
H336 H 0.04254 0.69961 0.06615 0.0
H337 H 0.05139 0.71508 0.00864 0.0
H338 H 0.99003 0.59935 0.06048 0.0
H339 H 0.98223 0.62669 0.09741 0.0
H340 H 0.99397 0.66505 0.95911 0.0
H341 H 0.03268 0.66998 0.98342 0.0
H342 H 0.00604 0.67167 0.92794 0.0
H343 H 0.0441 0.67652 0.95182 0.0
H344 H 0.97667 0.61849 0.97274 0.0
H345 H 0.96304 0.61986 0.02942 0.0
H346 H 0.95274 0.59741 0.96638 0.0
H347 H 0.93932 0.59887 0.02203 0.0
H348 H 0.02617 0.6151 0.97953 0.0
H349 H 0.00778 0.62653 0.93317 0.0
H350 H 0.95846 0.67574 0.99053 0.0
H351 H 0.95341 0.64289 0.95114 0.0
Li352 Li 0.34125 0.35024 0.0198 0.0
Li353 Li 0.36559 0.35712 0.02656 0.0
Li354 Li 0.35936 0.36531 0.99721 0.0
Li355 Li 0.35239 0.3397 0.00185 0.0
C356 C 0.35495 0.38049 0.02873 0.0
N357 N 0.34972 0.4021 0.03927 0.0
C358 C 0.35824 0.38615 0.04698 0.0
C359 C 0.3492 0.38596 0.01576 0.0
C360 C 0.35545 0.39702 0.05206 0.0
C361 C 0.34658 0.39685 0.02138 0.0
C362 C 0.34544 0.33474 0.04808 0.0
C363 C 0.33863 0.31851 0.07445 0.0
N364 N 0.3392 0.32887 0.08597 0.0
C365 C 0.34596 0.34522 0.06019 0.0
C366 C 0.34174 0.32127 0.05526 0.0
C367 C 0.34277 0.34206 0.07929 0.0
C368 C 0.31396 0.33067 0.03208 0.0
N369 N 0.32309 0.34504 0.03118 0.0
C370 C 0.30625 0.34938 0.04759 0.0
C371 C 0.31947 0.35441 0.03863 0.0
C372 C 0.29665 0.33456 0.04886 0.0
C373 C 0.30062 0.32519 0.04071 0.0
H374 H 0.31713 0.32343 0.0262 0.0
H375 H 0.32684 0.36576 0.03799 0.0
C376 C 0.38937 0.37824 0.04484 0.0
N377 N 0.38031 0.36386 0.04502 0.0
C378 C 0.40019 0.38467 0.05827 0.0
C379 C 0.39233 0.36133 0.07175 0.0
C380 C 0.38169 0.35532 0.05791 0.0
C381 C 0.40168 0.37625 0.07218 0.0
H382 H 0.38806 0.38472 0.03429 0.0
H383 H 0.37442 0.34388 0.05765 0.0
C384 C 0.32664 0.34189 0.98793 0.0
N385 N 0.29763 0.32969 0.98115 0.0
C386 C 0.31812 0.32707 0.98565 0.0
C387 C 0.32043 0.35051 0.98653 0.0
C388 C 0.30347 0.3211 0.98228 0.0
C389 C 0.30574 0.34414 0.98318 0.0
C390 C 0.38231 0.353 0.00043 0.0
C391 C 0.39482 0.36084 0.98988 0.0
C392 C 0.38046 0.34136 0.01121 0.0
C393 C 0.4053 0.35686 0.99025 0.0
C394 C 0.39119 0.33773 0.0112 0.0
N395 N 0.40329 0.34549 0.00081 0.0
C396 C 0.38056 0.39092 0.98191 0.0
C397 C 0.35899 0.38022 0.96428 0.0
C398 C 0.38722 0.40181 0.96858 0.0
N399 N 0.36676 0.38038 0.97944 0.0
C400 C 0.36522 0.39097 0.95062 0.0
C401 C 0.37959 0.40184 0.95257 0.0
H402 H 0.38646 0.39068 0.99409 0.0
H403 H 0.34807 0.37159 0.96262 0.0
C404 C 0.34348 0.31028 0.9967 0.0
N405 N 0.34957 0.32336 0.98838 0.0
C406 C 0.33998 0.2981 0.98591 0.0
C407 C 0.34938 0.31322 0.95836 0.0
C408 C 0.35273 0.32508 0.96968 0.0
C409 C 0.34268 0.29948 0.9664 0.0
H410 H 0.34093 0.30925 0.01157 0.0
H411 H 0.3575 0.33564 0.96349 0.0
O412 O 0.35773 0.36992 0.02352 0.0
O413 O 0.34845 0.33753 0.02928 0.0
O414 O 0.34095 0.34789 0.9916 0.0
O415 O 0.37202 0.35685 1.0003 0.0
H416 H 0.36289 0.38218 0.05713 0.0
H417 H 0.34674 0.38183 0.00155 0.0
H418 H 0.35788 0.40146 0.06616 0.0
H419 H 0.34206 0.40113 0.01151 0.0
H420 H 0.33575 0.30813 0.08019 0.0
H421 H 0.34875 0.35568 0.05494 0.0
H422 H 0.34129 0.31303 0.0461 0.0
H423 H 0.34312 0.35008 0.0888 0.0
H424 H 0.30376 0.35702 0.05388 0.0
H425 H 0.29352 0.3137 0.04101 0.0
H426 H 0.40732 0.39615 0.05772 0.0
H427 H 0.393 0.35441 0.08224 0.0
H428 H 0.32272 0.32021 0.98669 0.0
H429 H 0.32684 0.36199 0.98816 0.0
H430 H 0.29674 0.30965 0.98061 0.0
H431 H 0.30077 0.35068 0.9822 0.0
H432 H 0.39641 0.3699 0.98152 0.0
H433 H 0.37088 0.3352 0.01952 0.0
H434 H 0.41504 0.36283 0.98215 0.0
H435 H 0.38991 0.32875 0.01948 0.0
H436 H 0.39826 0.41008 0.97073 0.0
H437 H 0.359 0.39052 0.9384 0.0
H438 H 0.3347 0.28769 0.99262 0.0
H439 H 0.35183 0.31478 0.94343 0.0
Li440 Li 0.65517 0.98984 0.01485 0.0
Li441 Li 0.64716 0.00507 0.02916 0.0
Li442 Li 0.64302 0.99856 0.99533 0.0
Li443 Li 0.66694 0.01518 0.00593 0.0
C444 C 0.62757 0.97197 0.02245 0.0
N445 N 0.6122 0.94338 0.03236 0.0
C446 C 0.62627 0.96794 0.0414 0.0
C447 C 0.62083 0.96146 0.00858 0.0
C448 C 0.61852 0.95343 0.04612 0.0
C449 C 0.61316 0.94707 0.01386 0.0
C450 C 0.67475 0.01753 0.04367 0.0
C451 C 0.68223 0.04057 0.05778 0.0
N452 N 0.69209 0.03929 0.06821 0.0
C453 C 0.68494 0.01643 0.05452 0.0
C454 C 0.67335 0.02968 0.04531 0.0
C455 C 0.69361 0.02755 0.06685 0.0
C456 C 0.66137 0.96726 0.00832 0.0
N457 N 0.65856 0.97474 0.02139 0.0
C458 C 0.66125 0.96151 0.04644 0.0
C459 C 0.65863 0.97221 0.04014 0.0
C460 C 0.66411 0.95348 0.03332 0.0
C461 C 0.6642 0.95653 0.014 0.0
H462 H 0.66161 0.96973 0.99352 0.0
H463 H 0.65662 0.97853 0.05023 0.0
C464 C 0.62849 0.01146 0.04875 0.0
N465 N 0.63847 0.00744 0.05107 0.0
C466 C 0.61999 0.01095 0.06392 0.0
C467 C 0.63234 0.00234 0.08364 0.0
C468 C 0.64078 0.00326 0.06815 0.0
C469 C 0.6216 0.00594 0.08148 0.0
H470 H 0.62662 0.01432 0.03489 0.0
H471 H 0.64864 0.99989 0.06948 0.0
C472 C 0.65937 0.99381 0.97103 0.0
N473 N 0.65588 0.98475 0.93393 0.0
C474 C 0.66806 0.00318 0.95689 0.0
C475 C 0.64907 0.97979 0.96632 0.0
C476 C 0.66609 0.99841 0.93821 0.0
C477 C 0.64742 0.97542 0.94749 0.0
C478 C 0.64983 0.02718 0.99444 0.0
C479 C 0.65724 0.02981 0.97739 0.0
C480 C 0.64213 0.03414 0.99829 0.0
C481 C 0.65678 0.03928 0.96441 0.0
C482 C 0.64192 0.04355 0.98495 0.0
N483 N 0.64919 0.0459 0.96842 0.0
C484 C 0.61526 0.98814 0.98332 0.0
C485 C 0.63185 0.99977 0.95853 0.0
C486 C 0.60411 0.98709 0.97227 0.0
N487 N 0.62885 0.99465 0.97649 0.0
C488 C 0.621 0.99904 0.94699 0.0
C489 C 0.60699 0.99305 0.95409 0.0
H490 H 0.61316 0.98439 0.99773 0.0
H491 H 0.64275 0.00515 0.95346 0.0
C492 C 0.6949 0.02826 0.99237 0.0
N493 N 0.68498 0.0312 0.99955 0.0
C494 C 0.70814 0.03933 0.98625 0.0
C495 C 0.70087 0.05631 0.99555 0.0
C496 C 0.68775 0.04488 0.0015 0.0
C497 C 0.71122 0.05358 0.9876 0.0
H498 H 0.69241 0.01726 0.99114 0.0
H499 H 0.67968 0.04692 0.00735 0.0
O500 O 0.63525 0.98612 0.01753 0.0
O501 O 0.66625 0.00673 0.03152 0.0
O502 O 0.6611 0.99829 0.9894 0.0
O503 O 0.65005 0.01785 0.0073 0.0
H504 H 0.63131 0.97591 0.05233 0.0
H505 H 0.6214 0.96439 0.99389 0.0
H506 H 0.61755 0.95017 0.06072 0.0
H507 H 0.60794 0.93883 0.00325 0.0
H508 H 0.68128 0.05003 0.05918 0.0
H509 H 0.68613 0.00708 0.05342 0.0
H510 H 0.66552 0.03073 0.03706 0.0
H511 H 0.70155 0.02685 0.07534 0.0
H512 H 0.66086 0.95946 0.06144 0.0
H513 H 0.66662 0.95084 0.00338 0.0
H514 H 0.61167 0.0136 0.06165 0.0
H515 H 0.63386 0.99841 0.09698 0.0
H516 H 0.67622 0.01403 0.96026 0.0
H517 H 0.64245 0.97234 0.97711 0.0
H518 H 0.67268 0.00557 0.92712 0.0
H519 H 0.63944 0.96461 0.94365 0.0
H520 H 0.66323 0.02453 0.97418 0.0
H521 H 0.63639 0.03233 0.01144 0.0
H522 H 0.66245 0.04135 0.95114 0.0
H523 H 0.63599 0.04898 0.98774 0.0
H524 H 0.59344 0.98216 0.97821 0.0
H525 H 0.62372 0.00389 0.93312 0.0
H526 H 0.71588 0.03675 0.98054 0.0
H527 H 0.70273 0.06711 0.99673 0.0
Li528 Li 0.65464 0.67058 0.33808 0.0
Li529 Li 0.67829 0.683 0.35163 0.0
Li530 Li 0.66063 0.69031 0.35984 0.0
Li531 Li 0.6714 0.69493 0.32842 0.0
C532 C 0.65843 0.65903 0.3714 0.0
N533 N 0.65631 0.63374 0.38357 0.0
C534 C 0.66106 0.65058 0.35889 0.0
C535 C 0.65471 0.65461 0.39009 0.0
C536 C 0.65994 0.63784 0.36532 0.0
C537 C 0.6537 0.64179 0.39597 0.0
C538 C 0.68502 0.68069 0.31433 0.0
C539 C 0.70967 0.6967 0.30587 0.0
N540 N 0.70915 0.68665 0.2938 0.0
C541 C 0.68472 0.67051 0.30184 0.0
C542 C 0.69758 0.69389 0.31639 0.0
C543 C 0.69704 0.67373 0.29159 0.0
C544 C 0.6387 0.65409 0.3085 0.0
N545 N 0.63955 0.65343 0.32754 0.0
C546 C 0.61869 0.63011 0.32806 0.0
C547 C 0.62985 0.64179 0.33748 0.0
C548 C 0.61744 0.63067 0.30839 0.0
C549 C 0.62766 0.64282 0.2986 0.0
H550 H 0.64652 0.66354 0.30104 0.0
H551 H 0.63059 0.64165 0.35267 0.0
C552 C 0.70142 0.69019 0.37572 0.0
N553 N 0.69374 0.68123 0.36142 0.0
C554 C 0.71313 0.68977 0.38328 0.0
C555 C 0.70847 0.6705 0.36178 0.0
C556 C 0.69698 0.67145 0.35441 0.0
C557 C 0.71679 0.67986 0.37626 0.0
H558 H 0.69848 0.69772 0.38118 0.0
H559 H 0.69069 0.66443 0.34304 0.0
C560 C 0.63668 0.68175 0.33685 0.0
N561 N 0.60764 0.6716 0.34004 0.0
C562 C 0.62969 0.68561 0.32354 0.0
C563 C 0.6289 0.67272 0.35178 0.0
C564 C 0.615 0.68037 0.3254 0.0
C565 C 0.61423 0.6677 0.35314 0.0
C566 C 0.68917 0.71709 0.35339 0.0
C567 C 0.68268 0.72541 0.35141 0.0
C568 C 0.70403 0.72377 0.35543 0.0
C569 C 0.69116 0.74033 0.35166 0.0
C570 C 0.71215 0.73871 0.35559 0.0
N571 N 0.7056 0.74661 0.35373 0.0
C572 C 0.65576 0.69676 0.3974 0.0
C573 C 0.64756 0.70565 0.3728 0.0
C574 C 0.65118 0.70305 0.41098 0.0
N575 N 0.6539 0.6982 0.37873 0.0
C576 C 0.64286 0.71209 0.3858 0.0
C577 C 0.64462 0.71086 0.40521 0.0
H578 H 0.66087 0.6908 0.40174 0.0
H579 H 0.64634 0.70681 0.35789 0.0
C580 C 0.66507 0.70179 0.29429 0.0
N581 N 0.6758 0.70727 0.30719 0.0
C582 C 0.66488 0.71029 0.27968 0.0
C583 C 0.68739 0.72974 0.29101 0.0
C584 C 0.68718 0.72077 0.30541 0.0
C585 C 0.67582 0.72466 0.27837 0.0
H586 H 0.65625 0.69096 0.29592 0.0
H587 H 0.69575 0.72485 0.31561 0.0
O588 O 0.65953 0.6716 0.36553 0.0
O589 O 0.67308 0.67753 0.32466 0.0
O590 O 0.65103 0.68667 0.33507 0.0
O591 O 0.6811 0.70246 0.35307 0.0
H592 H 0.6639 0.65378 0.34436 0.0
H593 H 0.65265 0.66104 0.39994 0.0
H594 H 0.66195 0.6312 0.35579 0.0
H595 H 0.65083 0.63824 0.4104 0.0
H596 H 0.71946 0.70687 0.30734 0.0
H597 H 0.67508 0.66022 0.30017 0.0
H598 H 0.69802 0.70185 0.32603 0.0
H599 H 0.69698 0.66594 0.2819 0.0
H600 H 0.61092 0.62095 0.33607 0.0
H601 H 0.6271 0.64359 0.28342 0.0
H602 H 0.7192 0.69705 0.39459 0.0
H603 H 0.71103 0.66277 0.35596 0.0
H604 H 0.63555 0.69259 0.3119 0.0
H605 H 0.6341 0.66958 0.36219 0.0
H606 H 0.60945 0.68327 0.31521 0.0
H607 H 0.60807 0.6607 0.36461 0.0
H608 H 0.67127 0.72043 0.34928 0.0
H609 H 0.70926 0.7175 0.35674 0.0
H610 H 0.68629 0.7469 0.35007 0.0
H611 H 0.72365 0.74403 0.35714 0.0
H612 H 0.65268 0.70175 0.42579 0.0
H613 H 0.63816 0.71824 0.38064 0.0
H614 H 0.65594 0.70582 0.26997 0.0
H615 H 0.69607 0.74074 0.29046 0.0
Li616 Li 0.30309 0.97949 0.32621 0.0
Li617 Li 0.30786 0.97318 0.35886 0.0
Li618 Li 0.31761 0.99897 0.34944 0.0
Li619 Li 0.32673 0.98491 0.33556 0.0
C620 C 0.28833 0.98906 0.35007 0.0
N621 N 0.27097 0.00096 0.34699 0.0
C622 C 0.27739 0.98561 0.36317 0.0
C623 C 0.29045 0.99856 0.3354 0.0
C624 C 0.26872 0.99174 0.36137 0.0
C625 C 0.28155 0.00447 0.33409 0.0
C626 C 0.31306 0.95675 0.32569 0.0
C627 C 0.32775 0.94572 0.32532 0.0
N628 N 0.32162 0.93917 0.30874 0.0
C629 C 0.30682 0.9498 0.30874 0.0
C630 C 0.32352 0.95459 0.33414 0.0
C631 C 0.31132 0.94099 0.30037 0.0
C632 C 0.2945 0.97305 0.28859 0.0
N633 N 0.28952 0.97298 0.30622 0.0
C634 C 0.26548 0.96196 0.29476 0.0
C635 C 0.27532 0.96757 0.30956 0.0
C636 C 0.27028 0.96169 0.27638 0.0
C637 C 0.28504 0.96742 0.27342 0.0
H638 H 0.30578 0.97698 0.28645 0.0
H639 H 0.27157 0.96736 0.32377 0.0
C640 C 0.2908 0.96033 0.39158 0.0
N641 N 0.29926 0.95919 0.37827 0.0
C642 C 0.28283 0.94899 0.40402 0.0
C643 C 0.29301 0.93589 0.38937 0.0
C644 C 0.30068 0.94739 0.37721 0.0
C645 C 0.2836 0.9364 0.40264 0.0
H646 H 0.28982 0.96981 0.39206 0.0
H647 H 0.3074 0.94669 0.36651 0.0
C648 C 0.33328 0.00736 0.31299 0.0
N649 N 0.35803 0.02647 0.29422 0.0
C650 C 0.34568 0.01644 0.32313 0.0
C651 C 0.33344 0.00809 0.29331 0.0
C652 C 0.35809 0.026 0.31339 0.0
C653 C 0.34607 0.0178 0.28408 0.0
C654 C 0.33861 0.99228 0.37321 0.0
C655 C 0.34947 0.00626 0.37711 0.0
C656 C 0.33947 0.98071 0.38049 0.0
C657 C 0.36122 0.00843 0.3879 0.0
C658 C 0.35139 0.98333 0.3912 0.0
N659 N 0.36193 0.99702 0.39464 0.0
C660 C 0.32264 0.0198 0.37725 0.0
C661 C 0.32496 0.0279 0.34567 0.0
C662 C 0.32671 0.03348 0.38405 0.0
N663 N 0.32201 0.01734 0.35836 0.0
C664 C 0.32923 0.04175 0.35184 0.0
C665 C 0.33028 0.0447 0.37125 0.0
H666 H 0.32024 0.01118 0.387 0.0
H667 H 0.32419 0.02561 0.33074 0.0
C668 C 0.34159 0.9817 0.30569 0.0
N669 N 0.34343 0.98586 0.32409 0.0
C670 C 0.35246 0.98114 0.29579 0.0
C671 C 0.36742 0.99007 0.32348 0.0
C672 C 0.35614 0.99025 0.33298 0.0
C673 C 0.36551 0.98522 0.30476 0.0
H674 H 0.33152 0.97858 0.29878 0.0
H675 H 0.35759 0.9938 0.34742 0.0
O676 O 0.29698 0.98323 0.35172 0.0
O677 O 0.30892 0.96561 0.33389 0.0
O678 O 0.32114 0.99767 0.32233 0.0
O679 O 0.327 0.98996 0.36278 0.0
H680 H 0.2756 0.97827 0.3746 0.0
H681 H 0.29883 0.00134 0.32509 0.0
H682 H 0.26021 0.98916 0.37141 0.0
H683 H 0.28307 0.01183 0.32281 0.0
H684 H 0.33595 0.94411 0.3316 0.0
H685 H 0.29855 0.95113 0.30213 0.0
H686 H 0.32857 0.95996 0.34715 0.0
H687 H 0.30661 0.93559 0.28722 0.0
H688 H 0.25423 0.95778 0.29773 0.0
H689 H 0.28925 0.96712 0.25966 0.0
H690 H 0.27565 0.94981 0.41397 0.0
H691 H 0.29416 0.92652 0.38803 0.0
H692 H 0.34574 0.01598 0.33835 0.0
H693 H 0.32393 0.00124 0.28523 0.0
H694 H 0.36778 0.03302 0.32106 0.0
H695 H 0.34636 0.01845 0.26884 0.0
H696 H 0.34885 0.01534 0.3719 0.0
H697 H 0.33103 0.96984 0.37793 0.0
H698 H 0.36974 0.01919 0.39095 0.0
H699 H 0.35224 0.97448 0.39684 0.0
H700 H 0.32747 0.03537 0.39913 0.0
H701 H 0.33172 0.05007 0.34154 0.0
H702 H 0.35067 0.97754 0.28126 0.0
H703 H 0.37737 0.99332 0.33084 0.0
Li704 Li 0.02443 0.32642 0.32393 0.0
Li705 Li 0.03165 0.3383 0.3561 0.0
Li706 Li 0.00657 0.3216 0.34808 0.0
Li707 Li 0.01828 0.34523 0.33407 0.0
C708 C 0.01616 0.30469 0.35782 0.0
N709 N 0.00154 0.27856 0.37591 0.0
C710 C 0.01841 0.30364 0.37702 0.0
C711 C 0.00656 0.29243 0.34779 0.0
C712 C 0.01089 0.29034 0.38592 0.0
C713 C 0.99925 0.27933 0.3572 0.0
C714 C 0.04989 0.36002 0.33047 0.0
C715 C 0.06434 0.38392 0.3428 0.0
N716 N 0.07515 0.38598 0.33099 0.0
C717 C 0.06114 0.36235 0.31847 0.0
C718 C 0.05148 0.37086 0.34275 0.0
C719 C 0.07383 0.37556 0.31894 0.0
C720 C 0.03501 0.32753 0.28732 0.0
N721 N 0.03106 0.3199 0.30363 0.0
C722 C 0.03829 0.30382 0.29161 0.0
C723 C 0.03253 0.30822 0.30601 0.0
C724 C 0.04273 0.31163 0.2747 0.0
C725 C 0.04094 0.32358 0.27259 0.0
H726 H 0.0338 0.33684 0.28593 0.0
H727 H 0.02953 0.3025 0.31926 0.0
C728 C 0.04158 0.3434 0.3936 0.0
N729 N 0.04587 0.34479 0.37529 0.0
C730 C 0.05162 0.34763 0.40816 0.0
C731 C 0.07031 0.35501 0.38471 0.0
C732 C 0.05989 0.3503 0.37064 0.0
C733 C 0.06617 0.3536 0.40369 0.0
H734 H 0.03034 0.33884 0.39688 0.0
H735 H 0.063 0.35093 0.35603 0.0
C736 C 0.99396 0.31714 0.31207 0.0
N737 N 0.96906 0.29805 0.29359 0.0
C738 C 0.98226 0.31935 0.31187 0.0
C739 C 0.99304 0.30529 0.30273 0.0
C740 C 0.96975 0.30955 0.30249 0.0
C741 C 0.98034 0.29575 0.2935 0.0
C742 C 0.00975 0.34749 0.37104 0.0
C743 C 0.99506 0.34258 0.37145 0.0
C744 C 0.01913 0.35974 0.38123 0.0
C745 C 0.99002 0.35019 0.38176 0.0
C746 C 0.01367 0.36705 0.39139 0.0
N747 N 0.99935 0.36217 0.39143 0.0
C748 C 0.98966 0.30887 0.37945 0.0
C749 C 0.97719 0.29742 0.35149 0.0
C750 C 0.97763 0.30015 0.39036 0.0
N751 N 0.98919 0.3076 0.36035 0.0
C752 C 0.96481 0.28857 0.36185 0.0
C753 C 0.96483 0.29005 0.38157 0.0
H754 H 0.9994 0.31685 0.38622 0.0
H755 H 0.97706 0.29618 0.33642 0.0
C756 C 0.02608 0.37165 0.31507 0.0
N757 N 0.01567 0.36052 0.32505 0.0
C758 C 0.02387 0.38258 0.30842 0.0
C759 C 1.00005 0.37008 0.32162 0.0
C760 C 0.00278 0.35952 0.32819 0.0
C761 C 0.0107 0.38191 0.31168 0.0
H762 H 0.03606 0.37204 0.31205 0.0
H763 H 0.99449 0.35037 0.33554 0.0
O764 O 0.0231 0.31769 0.34899 0.0
O765 O 0.03747 0.34709 0.33037 0.0
O766 O 0.00635 0.32671 0.32096 0.0
O767 O 0.01488 0.34007 0.36124 0.0
H768 H 0.02579 0.31302 0.38499 0.0
H769 H 0.00462 0.29308 0.33296 0.0
H770 H 0.01247 0.28938 0.40079 0.0
H771 H 0.99171 0.26978 0.34964 0.0
H772 H 0.06571 0.39241 0.35222 0.0
H773 H 0.06008 0.35403 0.30893 0.0
H774 H 0.04284 0.36921 0.35205 0.0
H775 H 0.08264 0.37753 0.30973 0.0
H776 H 0.03971 0.29469 0.29393 0.0
H777 H 0.04416 0.32984 0.25974 0.0
H778 H 0.0481 0.34636 0.4227 0.0
H779 H 0.08145 0.35939 0.38084 0.0
H780 H 0.98278 0.32846 0.31897 0.0
H781 H 0.00199 0.30345 0.30262 0.0
H782 H 0.9606 0.31109 0.30231 0.0
H783 H 0.97946 0.28651 0.28627 0.0
H784 H 0.98763 0.33307 0.3637 0.0
H785 H 0.03049 0.36353 0.38141 0.0
H786 H 0.97868 0.34657 0.38208 0.0
H787 H 0.02081 0.37658 0.39929 0.0
H788 H 0.97836 0.30143 0.40554 0.0
H789 H 0.95524 0.28097 0.35439 0.0
H790 H 0.03245 0.39147 0.30089 0.0
H791 H 0.98956 0.36881 0.32403 0.0
Li792 Li 0.67851 0.99252 0.35271 0.0
Li793 Li 0.65951 0.96755 0.3578 0.0
Li794 Li 0.67374 0.97522 0.3283 0.0
Li795 Li 0.65577 0.98201 0.33374 0.0
C796 C 0.6918 0.97912 0.36591 0.0
N797 N 0.71494 0.98758 0.38968 0.0
C798 C 0.68989 0.97287 0.38372 0.0
C799 C 0.7055 0.98959 0.36014 0.0
C800 C 0.70173 0.97731 0.39554 0.0
C801 C 0.71705 0.99375 0.37238 0.0
C802 C 0.64977 0.98558 0.37523 0.0
C803 C 0.62663 0.98122 0.38571 0.0
N804 N 0.63227 0.98676 0.4029 0.0
C805 C 0.65536 0.9914 0.39294 0.0
C806 C 0.6353 0.9806 0.37153 0.0
C807 C 0.64634 0.99183 0.40676 0.0
C808 C 0.69833 0.02222 0.35582 0.0
N809 N 0.69215 0.00959 0.36535 0.0
C810 C 0.7033 0.02164 0.39405 0.0
C811 C 0.69465 0.00907 0.38404 0.0
C812 C 0.70947 0.03488 0.38473 0.0
C813 C 0.70717 0.03507 0.36527 0.0
H814 H 0.69604 0.02236 0.341 0.0
H815 H 0.6896 0.99892 0.39133 0.0
C816 C 0.64759 0.93916 0.36918 0.0
N817 N 0.65103 0.95234 0.37572 0.0
C818 C 0.64206 0.92746 0.38137 0.0
C819 C 0.64376 0.9431 0.40692 0.0
C820 C 0.64923 0.95452 0.39418 0.0
C821 C 0.64015 0.92936 0.40056 0.0
H822 H 0.64939 0.9378 0.3545 0.0
H823 H 0.65236 0.96513 0.39916 0.0
C824 C 0.6827 0.99791 0.3083 0.0
N825 N 0.69626 0.0037 0.27369 0.0
C826 C 0.67469 0.99442 0.29169 0.0
C827 C 0.69761 0.00442 0.30734 0.0
C828 C 0.68175 0.99742 0.27432 0.0
C829 C 0.70426 0.00724 0.28969 0.0
C830 C 0.63834 0.95242 0.32874 0.0
C831 C 0.63346 0.94454 0.31202 0.0
C832 C 0.62858 0.95003 0.3432 0.0
C833 C 0.6189 0.93462 0.30993 0.0
C834 C 0.6141 0.94002 0.34061 0.0
N835 N 0.60959 0.9326 0.32415 0.0
C836 C 0.69477 0.96975 0.3125 0.0
C837 C 0.67405 0.96221 0.29382 0.0
C838 C 0.69992 0.96339 0.29998 0.0
N839 N 0.68191 0.9688 0.30943 0.0
C840 C 0.67866 0.95547 0.28108 0.0
C841 C 0.69161 0.95567 0.28432 0.0
H842 H 0.70084 0.97506 0.32498 0.0
H843 H 0.66397 0.96182 0.29158 0.0
C844 C 0.64271 0.99846 0.33003 0.0
N845 N 0.64273 0.98684 0.32268 0.0
C846 C 0.63376 0.00305 0.32259 0.0
C847 C 0.62524 0.98386 0.29975 0.0
C848 C 0.63431 0.97957 0.30775 0.0
C849 C 0.62489 0.99578 0.30717 0.0
H850 H 0.64968 0.00416 0.34175 0.0
H851 H 0.63483 0.97062 0.30181 0.0
O852 O 0.68032 0.97496 0.3542 0.0
O853 O 0.65855 0.9853 0.36141 0.0
O854 O 0.67596 0.99468 0.32541 0.0
O855 O 0.6526 0.96223 0.33097 0.0
H856 H 0.6794 0.96469 0.38839 0.0
H857 H 0.70716 0.99462 0.34648 0.0
H858 H 0.7004 0.97259 0.40938 0.0
H859 H 0.72769 0.00191 0.36815 0.0
H860 H 0.61541 0.97736 0.38302 0.0
H861 H 0.66649 0.99541 0.39611 0.0
H862 H 0.63076 0.97639 0.35783 0.0
H863 H 0.65053 0.9962 0.42056 0.0
H864 H 0.70495 0.02101 0.409 0.0
H865 H 0.71164 0.04509 0.35762 0.0
H866 H 0.6397 0.91713 0.37592 0.0
H867 H 0.64244 0.94504 0.42158 0.0
H868 H 0.66315 0.9893 0.2922 0.0
H869 H 0.70395 0.00718 0.32007 0.0
H870 H 0.67568 0.99471 0.26134 0.0
H871 H 0.71578 0.01221 0.28872 0.0
H872 H 0.6408 0.94607 0.30069 0.0
H873 H 0.63214 0.95569 0.3564 0.0
H874 H 0.61499 0.92853 0.29701 0.0
H875 H 0.60647 0.93811 0.35172 0.0
H876 H 0.71015 0.96421 0.30286 0.0
H877 H 0.67178 0.94962 0.26935 0.0
H878 H 0.63373 0.01217 0.32895 0.0
H879 H 0.61882 0.97809 0.28764 0.0
Li880 Li 0.02827 0.69111 0.36312 0.0
Li881 Li 0.00399 0.68195 0.34971 0.0
Li882 Li 0.02006 0.67323 0.33806 0.0
Li883 Li 0.02514 0.69715 0.32945 0.0
C884 C 0.0104 0.66492 0.38057 0.0
N885 N 0.00812 0.65249 0.4154 0.0
C886 C 0.99847 0.66116 0.39199 0.0
C887 C 0.02116 0.66232 0.38685 0.0
C888 C 0.99751 0.6549 0.40956 0.0
C889 C 0.01981 0.65604 0.4045 0.0
C890 C 0.01675 0.71253 0.35972 0.0
C891 C 0.01089 0.73094 0.35336 0.0
N892 N 0.01191 0.73403 0.3721 0.0
C893 C 0.01789 0.716 0.37889 0.0
C894 C 0.01335 0.72015 0.34682 0.0
C895 C 0.01534 0.72685 0.38488 0.0
C896 C 0.05342 0.70994 0.38247 0.0
N897 N 0.03971 0.69927 0.38517 0.0
C898 C 0.04252 0.70212 0.41861 0.0
C899 C 0.03413 0.69538 0.40281 0.0
C900 C 0.05667 0.71346 0.41636 0.0
C901 C 0.06209 0.71728 0.39789 0.0
H902 H 0.0575 0.71304 0.36827 0.0
H903 H 0.02306 0.6873 0.40472 0.0
C904 C 0.97373 0.66555 0.34725 0.0
N905 N 0.98481 0.67667 0.35636 0.0
C906 C 0.9596 0.66103 0.35251 0.0
C907 C 0.96856 0.67949 0.37639 0.0
C908 C 0.98248 0.68358 0.37075 0.0
C909 C 0.95685 0.668 0.36733 0.0
H910 H 0.97588 0.66005 0.33607 0.0
H911 H 0.99142 0.69211 0.37812 0.0
C912 C 0.04809 0.68769 0.33288 0.0
N913 N 0.0664 0.67909 0.31862 0.0
C914 C 0.0517 0.68953 0.31376 0.0
C915 C 0.05391 0.68166 0.34482 0.0
C916 C 0.06095 0.68507 0.3068 0.0
C917 C 0.06312 0.67732 0.33732 0.0
C918 C 0.99994 0.68004 0.30905 0.0
C919 C 0.99784 0.67289 0.29186 0.0
C920 C 0.99396 0.68875 0.31193 0.0
C921 C 0.98988 0.67471 0.27774 0.0
C922 C 0.98605 0.69027 0.29748 0.0
N923 N 0.9842 0.68329 0.28081 0.0
C924 C 0.01838 0.64611 0.34011 0.0
C925 C 0.02314 0.65655 0.30968 0.0
C926 C 0.019 0.63432 0.33319 0.0
N927 N 0.0206 0.65699 0.3284 0.0
C928 C 0.02384 0.64494 0.30213 0.0
C929 C 0.02183 0.63366 0.31398 0.0
H930 H 0.01602 0.64649 0.3548 0.0
H931 H 0.02472 0.66528 0.30063 0.0
C932 C 0.04181 0.72552 0.31807 0.0
N933 N 0.03335 0.71208 0.31123 0.0
C934 C 0.04872 0.73711 0.30578 0.0
C935 C 0.03826 0.7208 0.27952 0.0
C936 C 0.03153 0.7095 0.29236 0.0
C937 C 0.047 0.73485 0.28619 0.0
H938 H 0.04332 0.72721 0.33313 0.0
H939 H 0.02503 0.69868 0.28725 0.0
O940 O 0.01152 0.67113 0.36338 0.0
O941 O 0.01939 0.70203 0.35359 0.0
O942 O 0.03882 0.6917 0.33987 0.0
O943 O 0.00782 0.67846 0.32293 0.0
H944 H 0.99002 0.66305 0.38735 0.0
H945 H 0.03051 0.66524 0.37824 0.0
H946 H 0.98834 0.65195 0.41856 0.0
H947 H 0.02808 0.65401 0.40956 0.0
H948 H 0.00823 0.7369 0.34354 0.0
H949 H 0.02056 0.71027 0.38907 0.0
H950 H 0.01274 0.71787 0.33188 0.0
H951 H 0.01608 0.72957 0.39969 0.0
H952 H 0.03782 0.69852 0.43243 0.0
H953 H 0.07276 0.72613 0.39522 0.0
H954 H 0.95095 0.65197 0.34531 0.0
H955 H 0.96702 0.68532 0.38774 0.0
H956 H 0.04728 0.6942 0.30435 0.0
H957 H 0.05134 0.68032 0.3597 0.0
H958 H 0.06376 0.68633 0.29199 0.0
H959 H 0.06765 0.67256 0.34637 0.0
H960 H 0.00237 0.66607 0.28943 0.0
H961 H 0.9953 0.69417 0.32522 0.0
H962 H 0.98821 0.66929 0.26434 0.0
H963 H 0.98136 0.69699 0.29952 0.0
H964 H 0.01709 0.62573 0.34275 0.0
H965 H 0.02612 0.6449 0.28726 0.0
H966 H 0.05559 0.74769 0.31158 0.0
H967 H 0.0366 0.71856 0.26455 0.0
Li968 Li 0.31047 0.34147 0.36003 0.0
Li969 Li 0.31604 0.32266 0.35403 0.0
Li970 Li 0.3309 0.34648 0.33984 0.0
Li971 Li 0.30681 0.33046 0.32831 0.0
C972 C 0.33678 0.35286 0.37791 0.0
N973 N 0.35434 0.37628 0.4 0.0
C974 C 0.34407 0.35136 0.3932 0.0
C975 C 0.33838 0.36625 0.37388 0.0
C976 C 0.35291 0.36333 0.4042 0.0
C977 C 0.34732 0.37797 0.38521 0.0
C978 C 0.28713 0.30789 0.35758 0.0
C979 C 0.27059 0.2832 0.34981 0.0
N980 N 0.26718 0.28036 0.36838 0.0
C981 C 0.28327 0.30477 0.37655 0.0
C982 C 0.28058 0.29707 0.34406 0.0
C983 C 0.27324 0.29077 0.38175 0.0
C984 C 0.2985 0.35783 0.37402 0.0
N985 N 0.30312 0.34863 0.37873 0.0
C986 C 0.29597 0.34807 0.41077 0.0
C987 C 0.30217 0.34387 0.3967 0.0
C988 C 0.29092 0.35742 0.40629 0.0
C989 C 0.29241 0.36248 0.38771 0.0
H990 H 0.29932 0.36135 0.3596 0.0
H991 H 0.30606 0.33664 0.40002 0.0
C992 C 0.32264 0.30015 0.35834 0.0
N993 N 0.31743 0.30792 0.3668 0.0
C994 C 0.32569 0.29115 0.36908 0.0
C995 C 0.31782 0.29823 0.39691 0.0
C996 C 0.31495 0.30708 0.38567 0.0
C997 C 0.32356 0.29035 0.3887 0.0
H998 H 0.32513 0.30144 0.34348 0.0
H999 H 0.31132 0.31378 0.39213 0.0
C1000 C 0.31818 0.35926 0.31884 0.0
N1001 N 0.32325 0.37517 0.28628 0.0
C1002 C 0.32529 0.35734 0.30362 0.0
C1003 C 0.31366 0.3693 0.31749 0.0
C1004 C 0.32775 0.36547 0.28729 0.0
C1005 C 0.31632 0.37724 0.30092 0.0
C1006 C 0.32316 0.31929 0.31308 0.0
C1007 C 0.33345 0.32531 0.29879 0.0
C1008 C 0.31245 0.30492 0.31185 0.0
C1009 C 0.33272 0.31689 0.28338 0.0
C1010 C 0.31209 0.29684 0.29623 0.0
N1011 N 0.32213 0.30295 0.28242 0.0
C1012 C 0.35859 0.35397 0.33017 0.0
C1013 C 0.35465 0.37364 0.32828 0.0
C1014 C 0.37204 0.36199 0.32188 0.0
N1015 N 0.35004 0.35972 0.33259 0.0
C1016 C 0.36806 0.38208 0.31989 0.0
C1017 C 0.37673 0.37608 0.31603 0.0
H1018 H 0.35466 0.3429 0.3339 0.0
H1019 H 0.34766 0.378 0.3305 0.0
C1020 C 0.28106 0.32252 0.30939 0.0
N1021 N 0.29468 0.32531 0.30657 0.0
C1022 C 0.27215 0.32056 0.29403 0.0
C1023 C 0.29135 0.32408 0.27314 0.0
C1024 C 0.29985 0.32592 0.28888 0.0
C1025 C 0.2774 0.32165 0.2756 0.0
H1026 H 0.27728 0.32233 0.32359 0.0
H1027 H 0.31076 0.32844 0.28682 0.0
O1028 O 0.32802 0.34118 0.36714 0.0
O1029 O 0.29697 0.32153 0.35224 0.0
O1030 O 0.31566 0.35142 0.33501 0.0
O1031 O 0.32361 0.32746 0.32816 0.0
H1032 H 0.34288 0.34103 0.39652 0.0
H1033 H 0.33276 0.36761 0.36218 0.0
H1034 H 0.35862 0.36234 0.41607 0.0
H1035 H 0.34866 0.3884 0.38225 0.0
H1036 H 0.2655 0.27471 0.3395 0.0
H1037 H 0.28801 0.31306 0.38716 0.0
H1038 H 0.2831 0.29935 0.32926 0.0
H1039 H 0.27026 0.2882 0.3964 0.0
H1040 H 0.29511 0.34404 0.42498 0.0
H1041 H 0.28851 0.36958 0.38369 0.0
H1042 H 0.33035 0.28548 0.36222 0.0
H1043 H 0.31591 0.29787 0.41196 0.0
H1044 H 0.32894 0.34971 0.30444 0.0
H1045 H 0.30817 0.37098 0.32911 0.0
H1046 H 0.33325 0.36407 0.27543 0.0
H1047 H 0.31289 0.38505 0.29969 0.0
H1048 H 0.34184 0.33641 0.29946 0.0
H1049 H 0.30461 0.30002 0.32294 0.0
H1050 H 0.34055 0.32143 0.27218 0.0
H1051 H 0.30384 0.28571 0.29511 0.0
H1052 H 0.37851 0.35705 0.31951 0.0
H1053 H 0.37124 0.39289 0.31556 0.0
H1054 H 0.26152 0.31889 0.29656 0.0
H1055 H 0.29579 0.3249 0.25918 0.0
Li1056 Li 0.32234 0.00666 0.6703 0.0
Li1057 Li 0.346 0.01922 0.68275 0.0
Li1058 Li 0.32926 0.02567 0.69452 0.0
Li1059 Li 0.33839 0.03124 0.66197 0.0
C1060 C 0.31678 0.99786 0.70796 0.0
N1061 N 0.29343 0.97971 0.72983 0.0
C1062 C 0.31785 0.98877 0.72105 0.0
C1063 C 0.30382 0.99771 0.706 0.0
C1064 C 0.30592 0.97968 0.73196 0.0
C1065 C 0.29214 0.98847 0.71719 0.0
C1066 C 0.34242 0.00377 0.64991 0.0
C1067 C 0.34875 0.9925 0.62528 0.0
N1068 N 0.34599 0.98155 0.6372 0.0
C1069 C 0.33963 0.99239 0.66191 0.0
C1070 C 0.34699 0.00383 0.63144 0.0
C1071 C 0.34151 0.98126 0.65522 0.0
C1072 C 0.30585 0.99032 0.6407 0.0
N1073 N 0.30819 0.98914 0.65925 0.0
C1074 C 0.29358 0.96364 0.65766 0.0
C1075 C 0.30223 0.97616 0.6679 0.0
C1076 C 0.29131 0.96456 0.63832 0.0
C1077 C 0.29738 0.97814 0.62994 0.0
H1078 H 0.31107 0.00075 0.63408 0.0
H1079 H 0.30464 0.9754 0.68248 0.0
C1080 C 0.36197 0.01274 0.70805 0.0
N1081 N 0.3618 0.01716 0.69018 0.0
C1082 C 0.37322 0.01085 0.71404 0.0
C1083 C 0.38404 0.0184 0.68322 0.0
C1084 C 0.37249 0.01996 0.67776 0.0
C1085 C 0.38449 0.01369 0.70156 0.0
H1086 H 0.3533 0.01058 0.7176 0.0
H1087 H 0.37208 0.02348 0.66362 0.0
C1088 C 0.3139 0.03093 0.66195 0.0
N1089 N 0.30652 0.04861 0.64297 0.0
C1090 C 0.31977 0.04525 0.66737 0.0
C1091 C 0.30419 0.02557 0.64699 0.0
C1092 C 0.31593 0.05403 0.65757 0.0
C1093 C 0.30061 0.0347 0.63755 0.0
C1094 C 0.36343 0.04645 0.68859 0.0
C1095 C 0.36892 0.04985 0.7069 0.0
C1096 C 0.37284 0.0504 0.67327 0.0
C1097 C 0.38373 0.05709 0.70959 0.0
C1098 C 0.38758 0.05766 0.67654 0.0
N1099 N 0.39268 0.06082 0.69449 0.0
C1100 C 0.33111 0.03373 0.73224 0.0
C1101 C 0.31257 0.03468 0.71566 0.0
C1102 C 0.32833 0.03935 0.74838 0.0
N1103 N 0.32351 0.03187 0.71621 0.0
C1104 C 0.30933 0.04022 0.73155 0.0
C1105 C 0.31745 0.04288 0.74812 0.0
H1106 H 0.33951 0.03107 0.73236 0.0
H1107 H 0.30645 0.03276 0.70286 0.0
C1108 C 0.33703 0.03811 0.62454 0.0
N1109 N 0.34302 0.04408 0.64139 0.0
C1110 C 0.33938 0.04672 0.60879 0.0
C1111 C 0.35435 0.0675 0.62792 0.0
C1112 C 0.3515 0.05847 0.64341 0.0
C1113 C 0.34821 0.06167 0.61027 0.0
H1114 H 0.3302 0.02662 0.62345 0.0
H1115 H 0.356 0.06294 0.65706 0.0
O1116 O 0.32845 0.00681 0.69726 0.0
O1117 O 0.34052 0.01475 0.65596 0.0
O1118 O 0.31788 0.0223 0.67101 0.0
O1119 O 0.34895 0.03909 0.68566 0.0
H1120 H 0.32779 0.98873 0.72272 0.0
H1121 H 0.30271 0.0046 0.69597 0.0
H1122 H 0.3066 0.97258 0.74213 0.0
H1123 H 0.28206 0.98824 0.71582 0.0
H1124 H 0.35228 0.99241 0.61102 0.0
H1125 H 0.33603 0.9921 0.67622 0.0
H1126 H 0.34914 0.01253 0.62197 0.0
H1127 H 0.33939 0.9724 0.66435 0.0
H1128 H 0.28927 0.95336 0.66457 0.0
H1129 H 0.29582 0.97932 0.6151 0.0
H1130 H 0.37295 0.00699 0.7282 0.0
H1131 H 0.39257 0.02097 0.67319 0.0
H1132 H 0.3274 0.04959 0.67883 0.0
H1133 H 0.29949 0.01451 0.64267 0.0
H1134 H 0.32047 0.06516 0.66151 0.0
H1135 H 0.29315 0.03071 0.62589 0.0
H1136 H 0.36183 0.04691 0.71892 0.0
H1137 H 0.3688 0.04763 0.65902 0.0
H1138 H 0.38811 0.05975 0.72369 0.0
H1139 H 0.39497 0.0607 0.66483 0.0
H1140 H 0.33496 0.04129 0.76072 0.0
H1141 H 0.30064 0.04247 0.7308 0.0
H1142 H 0.33409 0.0417 0.59569 0.0
H1143 H 0.36137 0.07891 0.62978 0.0
Li1144 Li 0.9956 0.31676 0.67197 0.0
Li1145 Li 0.98188 0.3273 0.68371 0.0
Li1146 Li 0.97623 0.30328 0.69396 0.0
Li1147 Li 0.96983 0.30661 0.66219 0.0
C1148 C 0.00729 0.32893 0.70631 0.0
N1149 N 0.03446 0.34347 0.72167 0.0
C1150 C 0.01453 0.34386 0.70774 0.0
C1151 C 0.01379 0.32138 0.71294 0.0
C1152 C 0.02827 0.35101 0.71549 0.0
C1153 C 0.02756 0.32893 0.72058 0.0
C1154 C 0.99473 0.33855 0.64776 0.0
C1155 C 0.9982 0.35461 0.62209 0.0
N1156 N 0.01097 0.36447 0.62967 0.0
C1157 C 0.00784 0.34885 0.65533 0.0
C1158 C 0.98983 0.34145 0.63103 0.0
C1159 C 0.01591 0.36188 0.64596 0.0
C1160 C 0.01194 0.30927 0.64979 0.0
N1161 N 0.01344 0.31947 0.66234 0.0
C1162 C 0.03897 0.33125 0.65944 0.0
C1163 C 0.02663 0.33045 0.6671 0.0
C1164 C 0.0377 0.32065 0.64677 0.0
C1165 C 0.02394 0.30962 0.64187 0.0
H1166 H 0.00137 0.30081 0.64591 0.0
H1167 H 0.02768 0.3386 0.67684 0.0
C1168 C 0.98169 0.34596 0.71089 0.0
N1169 N 0.98214 0.34427 0.69195 0.0
C1170 C 0.98147 0.35788 0.71819 0.0
C1171 C 0.98211 0.36608 0.68632 0.0
C1172 C 0.98222 0.35395 0.67965 0.0
C1173 C 0.9817 0.36817 0.70585 0.0
H1174 H 0.98141 0.33796 0.72034 0.0
H1175 H 0.98221 0.35225 0.66465 0.0
C1176 C 0.97873 0.2837 0.67422 0.0
N1177 N 0.97561 0.25758 0.68437 0.0
C1178 C 0.96628 0.27099 0.66942 0.0
C1179 C 0.98968 0.28311 0.6839 0.0
C1180 C 0.96488 0.2579 0.67475 0.0
C1181 C 0.98788 0.26981 0.68898 0.0
C1182 C 0.95217 0.31307 0.68341 0.0
C1183 C 0.94078 0.30847 0.69607 0.0
C1184 C 0.95284 0.32116 0.66766 0.0
C1185 C 0.93022 0.31209 0.6928 0.0
C1186 C 0.94209 0.32457 0.6649 0.0
N1187 N 0.9311 0.32 0.67742 0.0
C1188 C 0.97564 0.28898 0.72891 0.0
C1189 C 0.95521 0.27814 0.70907 0.0
C1190 C 0.96929 0.27727 0.74125 0.0
N1191 N 0.96857 0.28905 0.71308 0.0
C1192 C 0.94864 0.26618 0.72072 0.0
C1193 C 0.95575 0.26559 0.73691 0.0
H1194 H 0.98623 0.29784 0.7318 0.0
H1195 H 0.94984 0.27858 0.69644 0.0
C1196 C 0.95876 0.29924 0.62463 0.0
N1197 N 0.9559 0.2967 0.64336 0.0
C1198 C 0.94869 0.29022 0.61131 0.0
C1199 C 0.933 0.27639 0.63692 0.0
C1200 C 0.94322 0.28577 0.64967 0.0
C1201 C 0.93582 0.27843 0.61751 0.0
H1202 H 0.96906 0.30785 0.62005 0.0
H1203 H 0.94135 0.28395 0.66466 0.0
O1204 O 0.99379 0.32172 0.69887 0.0
O1205 O 0.98655 0.32579 0.6568 0.0
O1206 O 0.98012 0.29665 0.66967 0.0
O1207 O 0.96256 0.3096 0.68648 0.0
H1208 H 0.00966 0.34989 0.70281 0.0
H1209 H 0.0083 0.30983 0.71217 0.0
H1210 H 0.03403 0.36257 0.71657 0.0
H1211 H 0.03275 0.32323 0.72566 0.0
H1212 H 0.99453 0.357 0.60914 0.0
H1213 H 0.01165 0.34686 0.66838 0.0
H1214 H 0.9796 0.33366 0.62511 0.0
H1215 H 0.02608 0.36996 0.65168 0.0
H1216 H 0.04938 0.33994 0.66362 0.0
H1217 H 0.02244 0.30139 0.63186 0.0
H1218 H 0.98088 0.35886 0.73332 0.0
H1219 H 0.98243 0.37376 0.67625 0.0
H1220 H 0.95772 0.27124 0.66185 0.0
H1221 H 0.99944 0.29283 0.6875 0.0
H1222 H 0.95525 0.24799 0.67129 0.0
H1223 H 0.99623 0.26921 0.69659 0.0
H1224 H 0.94011 0.30217 0.7083 0.0
H1225 H 0.96154 0.32477 0.65766 0.0
H1226 H 0.92134 0.3086 0.7025 0.0
H1227 H 0.94248 0.33084 0.65279 0.0
H1228 H 0.97504 0.27714 0.75369 0.0
H1229 H 0.93811 0.25743 0.71708 0.0
H1230 H 0.95124 0.29198 0.59642 0.0
H1231 H 0.92317 0.26739 0.64215 0.0
Li1232 Li 0.68247 0.68025 0.6685 0.0
Li1233 Li 0.669 0.65477 0.6787 0.0
Li1234 Li 0.69443 0.67194 0.68957 0.0
Li1235 Li 0.68956 0.66332 0.65721 0.0
C1236 C 0.6713 0.68089 0.70077 0.0
N1237 N 0.66068 0.69836 0.71164 0.0
C1238 C 0.65673 0.6762 0.69877 0.0
C1239 C 0.68046 0.6944 0.70842 0.0
C1240 C 0.65157 0.6852 0.70433 0.0
C1241 C 0.67489 0.70309 0.71379 0.0
C1242 C 0.66709 0.65819 0.63514 0.0
C1243 C 0.65844 0.63941 0.6118 0.0
N1244 N 0.65997 0.64901 0.59829 0.0
C1245 C 0.6685 0.66786 0.62106 0.0
C1246 C 0.66194 0.64384 0.63053 0.0
C1247 C 0.66487 0.66301 0.6025 0.0
C1248 C 0.6917 0.70937 0.66105 0.0
N1249 N 0.68012 0.69595 0.66138 0.0
C1250 C 0.66506 0.70467 0.65008 0.0
C1251 C 0.66695 0.6934 0.65607 0.0
C1252 C 0.67685 0.71866 0.64962 0.0
C1253 C 0.69029 0.72094 0.65529 0.0
H1254 H 0.70208 0.71108 0.66498 0.0
H1255 H 0.65795 0.68258 0.65634 0.0
C1256 C 0.6492 0.63413 0.70376 0.0
N1257 N 0.65075 0.63988 0.68629 0.0
C1258 C 0.63557 0.62444 0.71066 0.0
C1259 C 0.62549 0.62652 0.68121 0.0
C1260 C 0.6393 0.63617 0.67491 0.0
C1261 C 0.62346 0.62073 0.69946 0.0
H1262 H 0.65852 0.63746 0.71257 0.0
H1263 H 0.64086 0.64106 0.66116 0.0
C1264 C 0.71609 0.6924 0.66904 0.0
N1265 N 0.74489 0.7108 0.6757 0.0
C1266 C 0.72641 0.69072 0.65922 0.0
C1267 C 0.72045 0.70346 0.68223 0.0
C1268 C 0.74091 0.70013 0.66278 0.0
C1269 C 0.73505 0.71264 0.68541 0.0
C1270 C 0.68648 0.63965 0.67942 0.0
C1271 C 0.69892 0.63973 0.68502 0.0
C1272 C 0.67474 0.62694 0.67295 0.0
C1273 C 0.6995 0.62711 0.68375 0.0
C1274 C 0.67574 0.61455 0.6719 0.0
N1275 N 0.688 0.61489 0.67726 0.0
C1276 C 0.70295 0.67764 0.72788 0.0
C1277 C 0.72025 0.67763 0.70732 0.0
C1278 C 0.71201 0.68044 0.74334 0.0
N1279 N 0.70721 0.67633 0.71031 0.0
C1280 C 0.72978 0.6808 0.72223 0.0
C1281 C 0.7257 0.68211 0.74067 0.0
H1282 H 0.69242 0.6763 0.72992 0.0
H1283 H 0.72328 0.6762 0.69331 0.0
C1284 C 0.70095 0.66927 0.6214 0.0
N1285 N 0.69776 0.65959 0.63547 0.0
C1286 C 0.70894 0.66946 0.60585 0.0
C1287 C 0.71019 0.64958 0.6193 0.0
C1288 C 0.7019 0.6496 0.63448 0.0
C1289 C 0.71416 0.65988 0.60495 0.0
H1290 H 0.69786 0.67733 0.62273 0.0
H1291 H 0.69941 0.64207 0.64578 0.0
O1292 O 0.67662 0.67242 0.69488 0.0
O1293 O 0.67072 0.66276 0.65336 0.0
O1294 O 0.70183 0.68325 0.66577 0.0
O1295 O 0.68567 0.65185 0.68073 0.0
H1296 H 0.64952 0.66579 0.69279 0.0
H1297 H 0.69176 0.69816 0.71008 0.0
H1298 H 0.64033 0.68176 0.70277 0.0
H1299 H 0.68186 0.71361 0.71964 0.0
H1300 H 0.65451 0.62835 0.60801 0.0
H1301 H 0.67249 0.67902 0.6244 0.0
H1302 H 0.66073 0.63622 0.64126 0.0
H1303 H 0.66598 0.67039 0.59144 0.0
H1304 H 0.6545 0.70247 0.64592 0.0
H1305 H 0.6997 0.73151 0.65484 0.0
H1306 H 0.63451 0.62039 0.72489 0.0
H1307 H 0.61649 0.62383 0.67201 0.0
H1308 H 0.72329 0.68219 0.64905 0.0
H1309 H 0.71264 0.70481 0.69014 0.0
H1310 H 0.74899 0.69894 0.65531 0.0
H1311 H 0.73856 0.72119 0.69565 0.0
H1312 H 0.70806 0.64943 0.69018 0.0
H1313 H 0.66494 0.62662 0.6689 0.0
H1314 H 0.70909 0.62703 0.68794 0.0
H1315 H 0.66675 0.60465 0.66687 0.0
H1316 H 0.70816 0.681 0.75724 0.0
H1317 H 0.74025 0.68224 0.71921 0.0
H1318 H 0.71143 0.67741 0.59498 0.0
H1319 H 0.71405 0.64207 0.61938 0.0
Li1320 Li 0.3449 0.33024 0.68534 0.0
Li1321 Li 0.32779 0.30498 0.69231 0.0
Li1322 Li 0.34154 0.31253 0.66212 0.0
Li1323 Li 0.3218 0.31699 0.66698 0.0
C1324 C 0.36058 0.31935 0.69927 0.0
N1325 N 0.38451 0.33031 0.72211 0.0
C1326 C 0.35946 0.31434 0.71772 0.0
C1327 C 0.3739 0.32986 0.69239 0.0
C1328 C 0.37168 0.32003 0.72905 0.0
C1329 C 0.38586 0.33529 0.70417 0.0
C1330 C 0.31532 0.32139 0.70764 0.0
C1331 C 0.29126 0.31452 0.71735 0.0
N1332 N 0.29638 0.32116 0.7342 0.0
C1333 C 0.32033 0.32827 0.72501 0.0
C1334 C 0.30065 0.31457 0.70374 0.0
C1335 C 0.31059 0.32799 0.73826 0.0
C1336 C 0.3644 0.36054 0.68802 0.0
N1337 N 0.35784 0.34789 0.69753 0.0
C1338 C 0.36806 0.35984 0.72662 0.0
C1339 C 0.35968 0.34734 0.7164 0.0
C1340 C 0.37466 0.37311 0.71735 0.0
C1341 C 0.373 0.37338 0.69772 0.0
H1342 H 0.36271 0.36069 0.67301 0.0
H1343 H 0.35441 0.33717 0.72362 0.0
C1344 C 0.32355 0.27959 0.7074 0.0
N1345 N 0.32086 0.29037 0.71106 0.0
C1346 C 0.31955 0.26847 0.7203 0.0
C1347 C 0.30982 0.27961 0.74043 0.0
C1348 C 0.31409 0.29057 0.72716 0.0
C1349 C 0.31265 0.26843 0.73714 0.0
H1350 H 0.32896 0.27973 0.69447 0.0
H1351 H 0.31208 0.29924 0.72985 0.0
C1352 C 0.34805 0.33413 0.64054 0.0
N1353 N 0.36117 0.3399 0.60563 0.0
C1354 C 0.33979 0.33004 0.62412 0.0
C1355 C 0.36297 0.34125 0.63923 0.0
C1356 C 0.34663 0.33304 0.60659 0.0
C1357 C 0.3694 0.34404 0.62144 0.0
C1358 C 0.30765 0.28633 0.66442 0.0
C1359 C 0.30443 0.27704 0.64908 0.0
C1360 C 0.29725 0.28323 0.67823 0.0
C1361 C 0.29076 0.26502 0.64761 0.0
C1362 C 0.28371 0.2711 0.67628 0.0
N1363 N 0.28076 0.26233 0.66112 0.0
C1364 C 0.3627 0.30685 0.64715 0.0
C1365 C 0.34224 0.29959 0.62801 0.0
C1366 C 0.36766 0.30005 0.63507 0.0
N1367 N 0.35003 0.30622 0.64365 0.0
C1368 C 0.34665 0.29242 0.61574 0.0
C1369 C 0.35935 0.29222 0.61946 0.0
H1370 H 0.36868 0.31213 0.6597 0.0
H1371 H 0.33224 0.29934 0.62553 0.0
C1372 C 0.30421 0.32905 0.66027 0.0
N1373 N 0.30684 0.31848 0.65493 0.0
C1374 C 0.29286 0.32995 0.65226 0.0
C1375 C 0.28753 0.30941 0.63289 0.0
C1376 C 0.29896 0.30893 0.64126 0.0
C1377 C 0.28422 0.3199 0.63856 0.0
H1378 H 0.31076 0.33661 0.67104 0.0
H1379 H 0.30154 0.30092 0.63681 0.0
O1380 O 0.34871 0.31399 0.68803 0.0
O1381 O 0.32476 0.32169 0.69441 0.0
O1382 O 0.34154 0.33097 0.65782 0.0
O1383 O 0.32102 0.29816 0.66607 0.0
H1384 H 0.34925 0.30622 0.7233 0.0
H1385 H 0.37495 0.3339 0.67819 0.0
H1386 H 0.37095 0.31629 0.74338 0.0
H1387 H 0.39621 0.34349 0.69907 0.0
H1388 H 0.27989 0.30924 0.71449 0.0
H1389 H 0.33158 0.33371 0.72834 0.0
H1390 H 0.29649 0.3094 0.69033 0.0
H1391 H 0.31435 0.33321 0.75178 0.0
H1392 H 0.36924 0.35914 0.74168 0.0
H1393 H 0.37788 0.38341 0.69009 0.0
H1394 H 0.32178 0.25997 0.7171 0.0
H1395 H 0.30465 0.28006 0.75331 0.0
H1396 H 0.32823 0.32449 0.6249 0.0
H1397 H 0.36951 0.34452 0.65182 0.0
H1398 H 0.34038 0.32987 0.59375 0.0
H1399 H 0.38094 0.34948 0.62021 0.0
H1400 H 0.31236 0.27907 0.63838 0.0
H1401 H 0.29966 0.28997 0.69048 0.0
H1402 H 0.28811 0.25781 0.63574 0.0
H1403 H 0.27558 0.26862 0.68689 0.0
H1404 H 0.37769 0.30054 0.63832 0.0
H1405 H 0.33976 0.28649 0.60406 0.0
H1406 H 0.29066 0.33818 0.65709 0.0
H1407 H 0.28138 0.30167 0.62205 0.0
Li1408 Li 0.67612 0.01888 0.68378 0.0
Li1409 Li 0.70017 0.02603 0.69229 0.0
Li1410 Li 0.69415 0.03241 0.66053 0.0
Li1411 Li 0.68675 0.00703 0.66888 0.0
C1412 C 0.68773 0.0458 0.69706 0.0
N1413 N 0.67762 0.05986 0.71925 0.0
C1414 C 0.68481 0.04234 0.71615 0.0
C1415 C 0.68564 0.05649 0.68927 0.0
C1416 C 0.67966 0.04954 0.72712 0.0
C1417 C 0.68049 0.06346 0.70073 0.0
C1418 C 0.68735 0.99866 0.70546 0.0
C1419 C 0.70401 0.99008 0.70895 0.0
N1420 N 0.69637 0.98206 0.72399 0.0
C1421 C 0.67971 0.99036 0.721 0.0
C1422 C 0.69965 0.99856 0.69944 0.0
C1423 C 0.68443 0.98204 0.73016 0.0
C1424 C 0.65121 0.00323 0.70486 0.0
N1425 N 0.65817 0.01532 0.69431 0.0
C1426 C 0.63929 0.02047 0.69963 0.0
C1427 C 0.65247 0.02392 0.69153 0.0
C1428 C 0.63191 0.00805 0.71071 0.0
C1429 C 0.63812 0.99944 0.71331 0.0
H1430 H 0.65583 0.99646 0.70666 0.0
H1431 H 0.65805 0.03339 0.68291 0.0
C1432 C 0.72813 0.043 0.70483 0.0
N1433 N 0.71473 0.03347 0.71093 0.0
C1434 C 0.73947 0.0493 0.71757 0.0
C1435 C 0.72298 0.03606 0.74277 0.0
C1436 C 0.71194 0.02992 0.72947 0.0
C1437 C 0.73698 0.04586 0.73683 0.0
H1438 H 0.72996 0.04582 0.69005 0.0
H1439 H 0.70113 0.02239 0.73395 0.0
C1440 C 0.66307 0.01413 0.65115 0.0
N1441 N 0.63766 0.01296 0.64179 0.0
C1442 C 0.65019 0.00108 0.65163 0.0
C1443 C 0.66303 0.02657 0.64586 0.0
C1444 C 0.63745 0.00072 0.6469 0.0
C1445 C 0.65007 0.02575 0.64115 0.0
C1446 C 0.71496 0.02347 0.65279 0.0
C1447 C 0.71018 0.02105 0.63412 0.0
C1448 C 0.72836 0.02519 0.65714 0.0
C1449 C 0.71897 0.02052 0.62004 0.0
C1450 C 0.73681 0.02455 0.64266 0.0
N1451 N 0.73199 0.02226 0.62457 0.0
C1452 C 0.71225 0.06019 0.64845 0.0
C1453 C 0.69801 0.04502 0.62361 0.0
C1454 C 0.71895 0.07177 0.63612 0.0
N1455 N 0.702 0.04718 0.64207 0.0
C1456 C 0.70451 0.05632 0.61072 0.0
C1457 C 0.7151 0.06994 0.61696 0.0
H1458 H 0.71528 0.06154 0.66318 0.0
H1459 H 0.68981 0.03454 0.61891 0.0
C1460 C 0.66916 0.97812 0.66189 0.0
N1461 N 0.68293 0.98876 0.65952 0.0
C1462 C 0.66472 0.96428 0.6555 0.0
C1463 C 0.68886 0.97238 0.64493 0.0
C1464 C 0.69283 0.98611 0.65148 0.0
C1465 C 0.6746 0.96123 0.64682 0.0
H1466 H 0.66162 0.9804 0.66886 0.0
H1467 H 0.70384 0.99454 0.65028 0.0
O1468 O 0.69263 0.03878 0.68604 0.0
O1469 O 0.68284 0.00695 0.69653 0.0
O1470 O 0.67565 0.01477 0.65599 0.0
O1471 O 0.70655 0.02401 0.66683 0.0
H1472 H 0.68634 0.03404 0.72233 0.0
H1473 H 0.68786 0.05927 0.67449 0.0
H1474 H 0.67725 0.04691 0.74189 0.0
H1475 H 0.67875 0.07171 0.69489 0.0
H1476 H 0.71348 0.98989 0.7044 0.0
H1477 H 0.67025 0.99039 0.72602 0.0
H1478 H 0.70581 0.00492 0.68759 0.0
H1479 H 0.6786 0.97557 0.74219 0.0
H1480 H 0.63485 0.02734 0.69698 0.0
H1481 H 0.633 0.9899 0.72195 0.0
H1482 H 0.75004 0.057 0.71244 0.0
H1483 H 0.72062 0.0331 0.75748 0.0
H1484 H 0.64997 0.99135 0.6557 0.0
H1485 H 0.67283 0.03681 0.64572 0.0
H1486 H 0.6274 0.9907 0.64729 0.0
H1487 H 0.64988 0.03532 0.63713 0.0
H1488 H 0.69971 0.01938 0.63061 0.0
H1489 H 0.73214 0.0269 0.67156 0.0
H1490 H 0.71541 0.01865 0.60552 0.0
H1491 H 0.7472 0.02584 0.64582 0.0
H1492 H 0.72723 0.082 0.64149 0.0
H1493 H 0.70116 0.05448 0.5961 0.0
H1494 H 0.65359 0.95612 0.65718 0.0
H1495 H 0.69693 0.97047 0.63872 0.0
Li1496 Li 0.9764 0.67139 0.69188 0.0
Li1497 Li 0.98114 0.65257 0.68255 0.0
Li1498 Li 0.99694 0.67717 0.67112 0.0
Li1499 Li 0.97275 0.66258 0.65885 0.0
C1500 C 0.00267 0.68086 0.70943 0.0
N1501 N 0.02094 0.70275 0.73318 0.0
C1502 C 0.01015 0.6783 0.72349 0.0
C1503 C 0.00445 0.69454 0.70744 0.0
C1504 C 0.01934 0.68951 0.73537 0.0
C1505 C 0.01375 0.70547 0.71958 0.0
C1506 C 0.95316 0.63889 0.68871 0.0
C1507 C 0.93613 0.6139 0.68357 0.0
N1508 N 0.9346 0.61186 0.70255 0.0
C1509 C 0.95129 0.63659 0.70815 0.0
C1510 C 0.94542 0.6275 0.67629 0.0
C1511 C 0.94191 0.62283 0.71488 0.0
C1512 C 0.96205 0.68486 0.70728 0.0
N1513 N 0.96918 0.67787 0.71166 0.0
C1514 C 0.96481 0.67888 0.74452 0.0
C1515 C 0.97074 0.67491 0.72983 0.0
C1516 C 0.95723 0.68602 0.74047 0.0
C1517 C 0.95604 0.68914 0.72153 0.0
H1518 H 0.96085 0.68692 0.69269 0.0
H1519 H 0.97634 0.66919 0.73289 0.0
C1520 C 0.98394 0.62773 0.68025 0.0
N1521 N 0.98156 0.63624 0.69207 0.0
C1522 C 0.98604 0.6169 0.68747 0.0
C1523 C 0.98292 0.62357 0.71892 0.0
C1524 C 0.98096 0.63434 0.71108 0.0
C1525 C 0.98579 0.61488 0.70706 0.0
H1526 H 0.98478 0.62964 0.66527 0.0
H1527 H 0.97945 0.64152 0.72021 0.0
C1528 C 0.98447 0.69198 0.6533 0.0
N1529 N 0.98889 0.71009 0.62332 0.0
C1530 C 0.99232 0.69202 0.63759 0.0
C1531 C 0.9789 0.70119 0.65378 0.0
C1532 C 0.99444 0.70124 0.62258 0.0
C1533 C 0.98123 0.71025 0.63848 0.0
C1534 C 0.98808 0.65258 0.63997 0.0
C1535 C 0.99891 0.6594 0.62649 0.0
C1536 C 0.97615 0.63928 0.6358 0.0
C1537 C 0.99756 0.65281 0.60903 0.0
C1538 C 0.9752 0.63304 0.61819 0.0
N1539 N 0.98584 0.63988 0.60528 0.0
C1540 C 0.0247 0.68486 0.661 0.0
C1541 C 0.02124 0.70485 0.66263 0.0
C1542 C 0.03828 0.6933 0.65322 0.0
N1543 N 0.01631 0.69061 0.66486 0.0
C1544 C 0.03478 0.71371 0.65482 0.0
C1545 C 0.04328 0.70782 0.6494 0.0
H1546 H 0.02053 0.67353 0.66312 0.0
H1547 H 0.01439 0.70919 0.66601 0.0
C1548 C 0.94676 0.65468 0.63992 0.0
N1549 N 0.96087 0.65922 0.63709 0.0
C1550 C 0.93799 0.65356 0.62474 0.0
C1551 C 0.95833 0.66145 0.60397 0.0
C1552 C 0.96667 0.66244 0.61948 0.0
C1553 C 0.94385 0.65725 0.60651 0.0
H1554 H 0.94243 0.65237 0.65408 0.0
H1555 H 0.97789 0.6662 0.61742 0.0
O1556 O 0.99361 0.66994 0.69777 0.0
O1557 O 0.96242 0.65225 0.68186 0.0
O1558 O 0.9822 0.68297 0.66814 0.0
O1559 O 0.98913 0.65895 0.65707 0.0
H1560 H 0.00885 0.66774 0.72522 0.0
H1561 H 0.99872 0.69673 0.6967 0.0
H1562 H 0.0252 0.68768 0.74632 0.0
H1563 H 0.01523 0.71611 0.71821 0.0
H1564 H 0.9301 0.60497 0.67413 0.0
H1565 H 0.95713 0.6453 0.71794 0.0
H1566 H 0.94649 0.62915 0.6612 0.0
H1567 H 0.94045 0.62087 0.7299 0.0
H1568 H 0.9658 0.676 0.75883 0.0
H1569 H 0.95047 0.69477 0.71771 0.0
H1570 H 0.98815 0.61039 0.67782 0.0
H1571 H 0.98286 0.62252 0.73412 0.0
H1572 H 0.99671 0.68498 0.63695 0.0
H1573 H 0.97283 0.70136 0.66583 0.0
H1574 H 0.00048 0.70134 0.61032 0.0
H1575 H 0.97697 0.71743 0.63867 0.0
H1576 H 0.00819 0.66973 0.62936 0.0
H1577 H 0.96771 0.63385 0.64605 0.0
H1578 H 0.00583 0.658 0.59846 0.0
H1579 H 0.966 0.62276 0.61478 0.0
H1580 H 0.0446 0.68839 0.64964 0.0
H1581 H 0.03821 0.72484 0.6521 0.0
H1582 H 0.92691 0.65043 0.62738 0.0
H1583 H 0.96325 0.66423 0.59014 0.0
H1584 H 0.14588 0.32352 0.18776 0.0
H1585 H 0.12531 0.32068 0.20578 0.0
H1586 H 0.09676 0.28915 0.16558 0.0
H1587 H 0.1174 0.2917 0.14794 0.0
H1588 H 0.15577 0.30688 0.18064 0.0
H1589 H 0.14232 0.33361 0.14538 0.0
H1590 H 0.12792 0.34158 0.12869 0.0
H1591 H 0.11765 0.30907 0.08623 0.0
H1592 H 0.13176 0.30071 0.10354 0.0
H1593 H 0.17089 0.2892 0.11973 0.0
H1594 H 0.19187 0.29023 0.10477 0.0
H1595 H 0.21615 0.33582 0.1152 0.0
H1596 H 0.195 0.33468 0.12981 0.0
H1597 H 0.15974 0.31415 0.11125 0.0
H1598 H 0.17403 0.28824 0.16513 0.0
H1599 H 0.19511 0.29098 0.18224 0.0
H1600 H 0.21099 0.33636 0.18765 0.0
H1601 H 0.18996 0.33353 0.1708 0.0
C1602 C 0.1332 0.30784 0.16648 0.0
C1603 C 0.13519 0.31595 0.18287 0.0
C1604 C 0.12342 0.31442 0.19305 0.0
C1605 C 0.10939 0.30472 0.18707 0.0
C1606 C 0.10742 0.29662 0.17064 0.0
C1607 C 0.11921 0.29816 0.16046 0.0
C1608 C 0.14573 0.3094 0.15575 0.0
C1609 C 0.15649 0.30835 0.16546 0.0
C1610 C 0.14715 0.31202 0.13604 0.0
C1611 C 0.13796 0.31642 0.12587 0.0
C1612 C 0.13679 0.32801 0.13265 0.0
C1613 C 0.1287 0.3327 0.12293 0.0
C1614 C 0.12173 0.32604 0.10604 0.0
C1615 C 0.12281 0.31435 0.09928 0.0
C1616 C 0.13093 0.30963 0.10908 0.0
C1617 C 0.18145 0.31187 0.12569 0.0
C1618 C 0.18069 0.29942 0.11851 0.0
C1619 C 0.19271 0.30002 0.11014 0.0
C1620 C 0.20568 0.3131 0.10885 0.0
C1621 C 0.20627 0.32562 0.11575 0.0
C1622 C 0.19424 0.32499 0.12413 0.0
C1623 C 0.16918 0.31096 0.13611 0.0
C1624 C 0.1586 0.31222 0.12633 0.0
C1625 C 0.16835 0.30948 0.15587 0.0
C1626 C 0.1805 0.31069 0.16685 0.0
C1627 C 0.18202 0.29872 0.1702 0.0
C1628 C 0.19401 0.30029 0.17993 0.0
C1629 C 0.20468 0.31389 0.18614 0.0
C1630 C 0.20301 0.32579 0.18282 0.0
C1631 C 0.19099 0.32419 0.17334 0.0
H1632 H 0.7175 0.8759 0.1737 0.0
H1633 H 0.72118 0.89479 0.19587 0.0
H1634 H 0.67835 0.88651 0.18459 0.0
H1635 H 0.67484 0.86772 0.16218 0.0
H1636 H 0.69596 0.84737 0.17905 0.0
H1637 H 0.70791 0.88502 0.12935 0.0
H1638 H 0.70373 0.90097 0.10895 0.0
H1639 H 0.66059 0.86659 0.09859 0.0
H1640 H 0.66482 0.85083 0.11873 0.0
H1641 H 0.6661 0.81791 0.10977 0.0
H1642 H 0.66236 0.79795 0.08966 0.0
H1643 H 0.69935 0.79887 0.11429 0.0
H1644 H 0.70344 0.81927 0.13399 0.0
H1645 H 0.68485 0.84332 0.11081 0.0
H1646 H 0.66727 0.80695 0.15433 0.0
H1647 H 0.66281 0.78671 0.17396 0.0
H1648 H 0.70368 0.81254 0.20136 0.0
H1649 H 0.70853 0.8326 0.18065 0.0
C1650 C 0.69593 0.87044 0.16626 0.0
C1651 C 0.709 0.87832 0.17578 0.0
C1652 C 0.71104 0.88906 0.18852 0.0
C1653 C 0.7 0.89206 0.19215 0.0
C1654 C 0.68712 0.88457 0.18198 0.0
C1655 C 0.68509 0.87382 0.16917 0.0
C1656 C 0.69325 0.85781 0.15488 0.0
C1657 C 0.69383 0.84656 0.16402 0.0
C1658 C 0.68936 0.85632 0.13565 0.0
C1659 C 0.6867 0.86672 0.12544 0.0
C1660 C 0.6975 0.88104 0.12291 0.0
C1661 C 0.6951 0.89011 0.11125 0.0
C1662 C 0.68191 0.88493 0.10192 0.0
C1663 C 0.67097 0.87079 0.10522 0.0
C1664 C 0.67335 0.8618 0.11681 0.0
C1665 C 0.68508 0.82017 0.12342 0.0
C1666 C 0.67349 0.81392 0.1108 0.0
C1667 C 0.67133 0.80249 0.09934 0.0
C1668 C 0.6806 0.79694 0.10041 0.0
C1669 C 0.692 0.80292 0.11331 0.0
C1670 C 0.69431 0.81454 0.12459 0.0
C1671 C 0.68769 0.83283 0.13486 0.0
C1672 C 0.68717 0.8441 0.12579 0.0
C1673 C 0.69051 0.83384 0.15448 0.0
C1674 C 0.68835 0.8213 0.16576 0.0
C1675 C 0.67548 0.80819 0.16417 0.0
C1676 C 0.67283 0.79665 0.17567 0.0
C1677 C 0.68281 0.79801 0.18943 0.0
C1678 C 0.69582 0.81106 0.19081 0.0
C1679 C 0.69855 0.82259 0.17908 0.0
H1680 H 0.12044 0.83778 0.16844 0.0
H1681 H 0.10105 0.82132 0.18914 0.0
H1682 H 0.12023 0.79451 0.19231 0.0
H1683 H 0.13913 0.81071 0.17071 0.0
H1684 H 0.15178 0.8504 0.18095 0.0
H1685 H 0.1173 0.822 0.13134 0.0
H1686 H 0.10217 0.80101 0.11182 0.0
H1687 H 0.13818 0.79469 0.10236 0.0
H1688 H 0.15321 0.81567 0.12172 0.0
H1689 H 0.18876 0.85592 0.11843 0.0
H1690 H 0.20958 0.87546 0.10274 0.0
H1691 H 0.19331 0.90393 0.11515 0.0
H1692 H 0.17286 0.88448 0.13134 0.0
H1693 H 0.15958 0.84297 0.11387 0.0
H1694 H 0.1944 0.86953 0.15848 0.0
H1695 H 0.21259 0.89065 0.17519 0.0
H1696 H 0.17977 0.898 0.19801 0.0
H1697 H 0.1615 0.8773 0.18025 0.0
C1698 C 0.13116 0.82542 0.16809 0.0
C1699 C 0.12029 0.82821 0.17339 0.0
C1700 C 0.10929 0.81884 0.18538 0.0
C1701 C 0.10912 0.80664 0.1927 0.0
C1702 C 0.11986 0.80367 0.18684 0.0
C1703 C 0.13074 0.81296 0.17457 0.0
C1704 C 0.14354 0.83618 0.15711 0.0
C1705 C 0.1534 0.84892 0.1662 0.0
C1706 C 0.146 0.8338 0.13823 0.0
C1707 C 0.13637 0.82036 0.12803 0.0
C1708 C 0.12185 0.81592 0.12534 0.0
C1709 C 0.11322 0.80394 0.11415 0.0
C1710 C 0.11902 0.79627 0.10539 0.0
C1711 C 0.13346 0.80053 0.1086 0.0
C1712 C 0.14204 0.81246 0.11975 0.0
C1713 C 0.17938 0.86881 0.12625 0.0
C1714 C 0.18964 0.86635 0.11756 0.0
C1715 C 0.20151 0.87753 0.10854 0.0
C1716 C 0.20324 0.89134 0.10785 0.0
C1717 C 0.19254 0.89355 0.1158 0.0
C1718 C 0.18077 0.88241 0.12496 0.0
C1719 C 0.16759 0.85742 0.13749 0.0
C1720 C 0.15794 0.84454 0.12859 0.0
C1721 C 0.16561 0.85945 0.15678 0.0
C1722 C 0.17656 0.87201 0.16762 0.0
C1723 C 0.19107 0.87584 0.16667 0.0
C1724 C 0.20146 0.88783 0.17632 0.0
C1725 C 0.19751 0.89593 0.18766 0.0
C1726 C 0.183 0.89188 0.18924 0.0
C1727 C 0.17261 0.88006 0.17917 0.0
H1728 H 0.28672 0.16043 0.84131 0.0
H1729 H 0.2838 0.17695 0.82062 0.0
H1730 H 0.32688 0.21029 0.83387 0.0
H1731 H 0.32981 0.19366 0.85419 0.0
H1732 H 0.30663 0.15112 0.83993 0.0
H1733 H 0.29351 0.17786 0.88205 0.0
H1734 H 0.29642 0.20035 0.89435 0.0
H1735 H 0.3391 0.21256 0.91314 0.0
H1736 H 0.33616 0.19009 0.90071 0.0
H1737 H 0.33765 0.15571 0.90859 0.0
H1738 H 0.34252 0.14085 0.92978 0.0
H1739 H 0.30328 0.10349 0.91215 0.0
H1740 H 0.29814 0.11848 0.89136 0.0
H1741 H 0.3181 0.16242 0.90772 0.0
H1742 H 0.33226 0.13671 0.86662 0.0
H1743 H 0.33183 0.11624 0.85111 0.0
H1744 H 0.29033 0.10376 0.82766 0.0
H1745 H 0.29043 0.12387 0.84389 0.0
C1746 C 0.30843 0.17586 0.84938 0.0
C1747 C 0.29554 0.17128 0.83965 0.0
C1748 C 0.29386 0.18076 0.82797 0.0
C1749 C 0.30509 0.19494 0.82568 0.0
C1750 C 0.31807 0.19941 0.83522 0.0
C1751 C 0.31973 0.18995 0.84694 0.0
C1752 C 0.31003 0.16597 0.86229 0.0
C1753 C 0.30889 0.1534 0.85484 0.0
C1754 C 0.3134 0.16925 0.88158 0.0
C1755 C 0.31469 0.18238 0.89023 0.0
C1756 C 0.3035 0.18539 0.8888 0.0
C1757 C 0.30518 0.19825 0.89581 0.0
C1758 C 0.31803 0.20827 0.9046 0.0
C1759 C 0.32903 0.20501 0.90659 0.0
C1760 C 0.32738 0.19218 0.89947 0.0
C1761 C 0.31758 0.13823 0.89823 0.0
C1762 C 0.33 0.14435 0.90938 0.0
C1763 C 0.3328 0.13586 0.92147 0.0
C1764 C 0.32329 0.12104 0.92255 0.0
C1765 C 0.31085 0.11488 0.91142 0.0
C1766 C 0.30793 0.12343 0.89953 0.0
C1767 C 0.31482 0.14746 0.8854 0.0
C1768 C 0.31571 0.15995 0.89286 0.0
C1769 C 0.31144 0.14418 0.86603 0.0
C1770 C 0.31125 0.13171 0.85675 0.0
C1771 C 0.32291 0.12942 0.85849 0.0
C1772 C 0.3227 0.11776 0.84958 0.0
C1773 C 0.31102 0.10843 0.8383 0.0
C1774 C 0.29946 0.11084 0.83627 0.0
C1775 C 0.29954 0.12232 0.84551 0.0
H1776 H 0.83931 0.11694 0.85594 0.0
H1777 H 0.82248 0.09716 0.83601 0.0
H1778 H 0.79555 0.11619 0.83306 0.0
H1779 H 0.81215 0.13554 0.85379 0.0
H1780 H 0.85199 0.14653 0.84175 0.0
H1781 H 0.82369 0.11633 0.8939 0.0
H1782 H 0.80269 0.10269 0.91403 0.0
H1783 H 0.79824 0.1401 0.92014 0.0
H1784 H 0.81917 0.15365 0.90001 0.0
H1785 H 0.85708 0.18716 0.90019 0.0
H1786 H 0.87607 0.20942 0.91404 0.0
H1787 H 0.90731 0.19739 0.89864 0.0
H1788 H 0.8883 0.17494 0.88539 0.0
H1789 H 0.84594 0.16034 0.90638 0.0
H1790 H 0.86953 0.18985 0.854 0.0
H1791 H 0.88842 0.20552 0.83216 0.0
H1792 H 0.89949 0.17259 0.82352 0.0
H1793 H 0.88037 0.15688 0.84521 0.0
C1794 C 0.82695 0.12765 0.85631 0.0
C1795 C 0.82961 0.11664 0.8513 0.0
C1796 C 0.82003 0.10542 0.83975 0.0
C1797 C 0.80774 0.10516 0.83261 0.0
C1798 C 0.8048 0.11592 0.83839 0.0
C1799 C 0.81431 0.12704 0.8502 0.0
C1800 C 0.83817 0.14056 0.86602 0.0
C1801 C 0.85079 0.14943 0.85602 0.0
C1802 C 0.83622 0.14468 0.88421 0.0
C1803 C 0.82297 0.136 0.89535 0.0
C1804 C 0.81804 0.12152 0.8993 0.0
C1805 C 0.80606 0.11374 0.91085 0.0
C1806 C 0.79887 0.12035 0.91877 0.0
C1807 C 0.80369 0.13477 0.91451 0.0
C1808 C 0.81561 0.14251 0.90294 0.0
C1809 C 0.87127 0.17946 0.89144 0.0
C1810 C 0.86798 0.1892 0.90002 0.0
C1811 C 0.87882 0.20192 0.90792 0.0
C1812 C 0.89314 0.20515 0.90724 0.0
C1813 C 0.89637 0.19523 0.89909 0.0
C1814 C 0.88552 0.18244 0.89147 0.0
C1815 C 0.85986 0.1663 0.88218 0.0
C1816 C 0.8472 0.15741 0.89216 0.0
C1817 C 0.86149 0.16242 0.86364 0.0
C1818 C 0.87358 0.17222 0.8513 0.0
C1819 C 0.87616 0.18609 0.84761 0.0
C1820 C 0.88702 0.19506 0.83516 0.0
C1821 C 0.89549 0.19033 0.82607 0.0
C1822 C 0.89305 0.17651 0.83008 0.0
C1823 C 0.88216 0.16753 0.84251 0.0
H1824 H 0.81328 0.66935 0.83812 0.0
H1825 H 0.79344 0.6693 0.82171 0.0
H1826 H 0.80543 0.71055 0.84637 0.0
H1827 H 0.82467 0.70991 0.8637 0.0
H1828 H 0.84484 0.69438 0.83629 0.0
H1829 H 0.80632 0.6623 0.87685 0.0
H1830 H 0.78459 0.6541 0.89566 0.0
H1831 H 0.80611 0.69238 0.92974 0.0
H1832 H 0.82791 0.70059 0.91069 0.0
H1833 H 0.87229 0.7017 0.90962 0.0
H1834 H 0.89119 0.69787 0.92269 0.0
H1835 H 0.88087 0.6645 0.88158 0.0
H1836 H 0.862 0.6682 0.86886 0.0
H1837 H 0.84268 0.68342 0.90464 0.0
H1838 H 0.88407 0.71151 0.86408 0.0
H1839 H 0.90441 0.71382 0.84594 0.0
H1840 H 0.87532 0.67805 0.81107 0.0
H1841 H 0.8551 0.67619 0.82885 0.0
C1842 C 0.82039 0.68963 0.85203 0.0
C1843 C 0.81153 0.67832 0.84001 0.0
C1844 C 0.80026 0.6784 0.83052 0.0
C1845 C 0.79783 0.69 0.83247 0.0
C1846 C 0.80677 0.70132 0.84467 0.0
C1847 C 0.81787 0.70106 0.85448 0.0
C1848 C 0.8324 0.68954 0.86179 0.0
C1849 C 0.84443 0.69208 0.85124 0.0
C1850 C 0.83183 0.68658 0.88126 0.0
C1851 C 0.81864 0.68208 0.89232 0.0
C1852 C 0.80631 0.66899 0.88825 0.0
C1853 C 0.79396 0.66427 0.89909 0.0
C1854 C 0.7937 0.67258 0.9142 0.0
C1855 C 0.80601 0.68582 0.9181 0.0
C1856 C 0.81844 0.69048 0.90731 0.0
C1857 C 0.86597 0.68545 0.88802 0.0
C1858 C 0.87405 0.69349 0.90358 0.0
C1859 C 0.88481 0.69129 0.91101 0.0
C1860 C 0.88762 0.68104 0.90293 0.0
C1861 C 0.87915 0.67268 0.88781 0.0
C1862 C 0.86836 0.67479 0.88054 0.0
C1863 C 0.8552 0.68827 0.87916 0.0
C1864 C 0.84336 0.68624 0.88984 0.0
C1865 C 0.85585 0.69147 0.85969 0.0
C1866 C 0.8681 0.69367 0.84781 0.0
C1867 C 0.88212 0.70429 0.85238 0.0
C1868 C 0.89373 0.70551 0.84208 0.0
C1869 C 0.89156 0.69607 0.82706 0.0
C1870 C 0.87744 0.68566 0.8223 0.0
C1871 C 0.86584 0.68454 0.83249 0.0
H1872 H 0.81923 0.66702 0.51559 0.0
H1873 H 0.80257 0.67136 0.53374 0.0
H1874 H 0.76697 0.63641 0.50482 0.0
H1875 H 0.78376 0.63188 0.48687 0.0
H1876 H 0.82446 0.6463 0.51259 0.0
H1877 H 0.81159 0.67171 0.47305 0.0
H1878 H 0.79706 0.67935 0.45603 0.0
H1879 H 0.77955 0.64104 0.42186 0.0
H1880 H 0.79378 0.63309 0.43969 0.0
H1881 H 0.83185 0.62587 0.44026 0.0
H1882 H 0.85082 0.62713 0.4199 0.0
H1883 H 0.88143 0.66669 0.44694 0.0
H1884 H 0.86247 0.66543 0.46707 0.0
H1885 H 0.82294 0.6461 0.44265 0.0
H1886 H 0.84406 0.62599 0.4892 0.0
H1887 H 0.86521 0.62888 0.50636 0.0
H1888 H 0.87448 0.67074 0.52506 0.0
H1889 H 0.85336 0.66774 0.50835 0.0
C1890 C 0.80276 0.64916 0.49981 0.0
C1891 C 0.80784 0.66016 0.5133 0.0
C1892 C 0.79831 0.66273 0.52352 0.0
C1893 C 0.78348 0.65432 0.52055 0.0
C1894 C 0.77835 0.64303 0.50743 0.0
C1895 C 0.78792 0.64049 0.49711 0.0
C1896 C 0.8131 0.64721 0.48817 0.0
C1897 C 0.82402 0.6461 0.49729 0.0
C1898 C 0.81282 0.64742 0.46821 0.0
C1899 C 0.80359 0.65169 0.4579 0.0
C1900 C 0.80444 0.6648 0.46213 0.0
C1901 C 0.79626 0.66927 0.45218 0.0
C1902 C 0.78721 0.66087 0.43746 0.0
C1903 C 0.78632 0.6477 0.43322 0.0
C1904 C 0.7945 0.64318 0.44331 0.0
C1905 C 0.84579 0.6454 0.45544 0.0
C1906 C 0.84268 0.63475 0.44186 0.0
C1907 C 0.85351 0.63552 0.4302 0.0
C1908 C 0.86764 0.64697 0.43187 0.0
C1909 C 0.87071 0.65759 0.44554 0.0
C1910 C 0.85988 0.65686 0.4571 0.0
C1911 C 0.83416 0.64499 0.4671 0.0
C1912 C 0.82299 0.64567 0.45794 0.0
C1913 C 0.83478 0.64544 0.48704 0.0
C1914 C 0.84719 0.64666 0.49754 0.0
C1915 C 0.85063 0.63573 0.4971 0.0
C1916 C 0.86263 0.63736 0.5069 0.0
C1917 C 0.87144 0.65006 0.51689 0.0
C1918 C 0.8679 0.66091 0.51733 0.0
C1919 C 0.85582 0.65917 0.50789 0.0
H1920 H 0.38208 0.20822 0.51307 0.0
H1921 H 0.38562 0.22677 0.53575 0.0
H1922 H 0.34325 0.21938 0.52344 0.0
H1923 H 0.33979 0.20083 0.50066 0.0
H1924 H 0.36189 0.18008 0.51488 0.0
H1925 H 0.3745 0.21942 0.47162 0.0
H1926 H 0.37118 0.23865 0.45911 0.0
H1927 H 0.32815 0.20748 0.44213 0.0
H1928 H 0.33154 0.18829 0.45468 0.0
H1929 H 0.33159 0.1492 0.4484 0.0
H1930 H 0.32985 0.12978 0.42842 0.0
H1931 H 0.3737 0.1426 0.44165 0.0
H1932 H 0.37533 0.16185 0.46176 0.0
H1933 H 0.35039 0.17911 0.44699 0.0
H1934 H 0.33771 0.13972 0.48669 0.0
H1935 H 0.33811 0.11992 0.50276 0.0
H1936 H 0.37792 0.14977 0.52965 0.0
H1937 H 0.37803 0.16959 0.51267 0.0
C1938 C 0.36069 0.20315 0.50515 0.0
C1939 C 0.37358 0.21065 0.51518 0.0
C1940 C 0.37557 0.22122 0.52817 0.0
C1941 C 0.36468 0.22449 0.53148 0.0
C1942 C 0.3519 0.21723 0.52106 0.0
C1943 C 0.3499 0.2066 0.50807 0.0
C1944 C 0.35841 0.19129 0.49236 0.0
C1945 C 0.35966 0.17997 0.49995 0.0
C1946 C 0.35477 0.19086 0.4731 0.0
C1947 C 0.35318 0.20245 0.46434 0.0
C1948 C 0.36435 0.21673 0.46521 0.0
C1949 C 0.36243 0.22771 0.45808 0.0
C1950 C 0.34935 0.22459 0.44978 0.0
C1951 C 0.33838 0.21022 0.44831 0.0
C1952 C 0.34029 0.19925 0.45551 0.0
C1953 C 0.35356 0.1569 0.45659 0.0
C1954 C 0.34083 0.14786 0.44689 0.0
C1955 C 0.33982 0.13674 0.43562 0.0
C1956 C 0.35164 0.13471 0.43355 0.0
C1957 C 0.36447 0.14399 0.44293 0.0
C1958 C 0.3654 0.15494 0.45444 0.0
C1959 C 0.35443 0.16816 0.46941 0.0
C1960 C 0.35279 0.17927 0.46187 0.0
C1961 C 0.35755 0.16831 0.48883 0.0
C1962 C 0.35799 0.15619 0.49811 0.0
C1963 C 0.34677 0.14203 0.49555 0.0
C1964 C 0.34693 0.13072 0.50485 0.0
C1965 C 0.35807 0.13339 0.51733 0.0
C1966 C 0.36922 0.1475 0.52006 0.0
C1967 C 0.36925 0.15879 0.51041 0.0
H1968 H 0.78768 0.17339 0.49958 0.0
H1969 H 0.76854 0.15752 0.52103 0.0
H1970 H 0.78311 0.12685 0.51733 0.0
H1971 H 0.80168 0.14251 0.49502 0.0
H1972 H 0.81893 0.18212 0.50883 0.0
H1973 H 0.78161 0.15967 0.46127 0.0
H1974 H 0.76219 0.13735 0.4483 0.0
H1975 H 0.79271 0.12435 0.43269 0.0
H1976 H 0.8121 0.14669 0.44581 0.0
H1977 H 0.85364 0.18558 0.44581 0.0
H1978 H 0.87631 0.20466 0.43283 0.0
H1979 H 0.86344 0.23567 0.44634 0.0
H1980 H 0.84123 0.2167 0.45988 0.0
H1981 H 0.82302 0.17582 0.44011 0.0
H1982 H 0.85795 0.19197 0.487 0.0
H1983 H 0.87746 0.20663 0.5087 0.0
H1984 H 0.85389 0.22651 0.52918 0.0
H1985 H 0.83431 0.21179 0.50727 0.0
C1986 C 0.79603 0.15908 0.49577 0.0
C1987 C 0.78655 0.16312 0.50319 0.0
C1988 C 0.7757 0.15407 0.51559 0.0
C1989 C 0.77435 0.14094 0.52122 0.0
C1990 C 0.78365 0.13676 0.51321 0.0
C1991 C 0.79435 0.14573 0.50053 0.0
C1992 C 0.80843 0.16936 0.48435 0.0
C1993 C 0.81967 0.18096 0.49372 0.0
C1994 C 0.8097 0.16727 0.4649 0.0
C1995 C 0.79826 0.15472 0.45479 0.0
C1996 C 0.78413 0.15204 0.45496 0.0
C1997 C 0.77305 0.13929 0.44757 0.0
C1998 C 0.77592 0.12903 0.43969 0.0
C1999 C 0.79018 0.13209 0.43858 0.0
C2000 C 0.80127 0.14483 0.44608 0.0
C2001 C 0.84585 0.19978 0.45391 0.0
C2002 C 0.85566 0.19647 0.44565 0.0
C2003 C 0.8686 0.2074 0.43824 0.0
C2004 C 0.87183 0.22176 0.43883 0.0
C2005 C 0.86152 0.22482 0.44611 0.0
C2006 C 0.84873 0.21396 0.45368 0.0
C2007 C 0.83331 0.18888 0.46456 0.0
C2008 C 0.82213 0.17715 0.45512 0.0
C2009 C 0.83224 0.1905 0.48417 0.0
C2010 C 0.84472 0.20086 0.49545 0.0
C2011 C 0.85712 0.19974 0.49579 0.0
C2012 C 0.8682 0.20803 0.50828 0.0
C2013 C 0.86711 0.21762 0.52064 0.0
C2014 C 0.85501 0.21926 0.51968 0.0
C2015 C 0.84382 0.21083 0.50727 0.0
H2016 H 0.97351 0.50931 0.17754 0.0
H2017 H 0.97159 0.52858 0.16223 0.0
H2018 H 0.01616 0.55804 0.17438 0.0
H2019 H 0.01807 0.53874 0.18946 0.0
H2020 H 0.9889 0.49705 0.17021 0.0
H2021 H 0.98503 0.52333 0.22206 0.0
H2022 H 0.99084 0.54422 0.24161 0.0
H2023 H 0.03349 0.55115 0.25016 0.0
H2024 H 0.02757 0.53019 0.23067 0.0
H2025 H 0.02291 0.48763 0.22356 0.0
H2026 H 0.02312 0.46868 0.24249 0.0
H2027 H 0.97694 0.44442 0.24068 0.0
H2028 H 0.97679 0.46321 0.22145 0.0
H2029 H 0.0076 0.50244 0.2354 0.0
H2030 H 0.01127 0.47633 0.18259 0.0
H2031 H 0.00553 0.45628 0.16144 0.0
H2032 H 0.96229 0.44849 0.15605 0.0
H2033 H 0.96832 0.46887 0.17673 0.0
C2034 C 0.99589 0.52261 0.18487 0.0
C2035 C 0.98289 0.5199 0.17681 0.0
C2036 C 0.9818 0.53092 0.16807 0.0
C2037 C 0.99369 0.54485 0.16724 0.0
C2038 C 0.00674 0.54748 0.17511 0.0
C2039 C 0.00785 0.53645 0.18372 0.0
C2040 C 0.99694 0.51095 0.19445 0.0
C2041 C 0.99282 0.49818 0.18456 0.0
C2042 C 0.00235 0.51251 0.21303 0.0
C2043 C 0.00591 0.52527 0.22477 0.0
C2044 C 0.99567 0.52943 0.22801 0.0
C2045 C 0.99902 0.54139 0.23915 0.0
C2046 C 0.01264 0.54938 0.24742 0.0
C2047 C 0.02285 0.54515 0.24419 0.0
C2048 C 0.0195 0.53319 0.23302 0.0
C2049 C 0.99984 0.47676 0.2211 0.0
C2050 C 0.01286 0.47813 0.22703 0.0
C2051 C 0.01297 0.46732 0.23775 0.0
C2052 C 1.00004 0.45517 0.24304 0.0
C2053 C 0.98703 0.45373 0.23682 0.0
C2054 C 0.98694 0.46439 0.22581 0.0
C2055 C 0.99957 0.48864 0.21114 0.0
C2056 C 0.00376 0.5014 0.22103 0.0
C2057 C 0.9941 0.48702 0.19267 0.0
C2058 C 0.99022 0.47408 0.18122 0.0
C2059 C 0.00051 0.47017 0.17703 0.0
C2060 C 0.99718 0.45865 0.16497 0.0
C2061 C 0.98345 0.45077 0.15692 0.0
C2062 C 0.97305 0.45447 0.16167 0.0
C2063 C 0.97643 0.46607 0.17358 0.0
H2064 H 0.50809 0.4569 0.17898 0.0
H2065 H 0.49142 0.43685 0.15923 0.0
H2066 H 0.45719 0.44437 0.17585 0.0
H2067 H 0.47404 0.46484 0.1946 0.0
H2068 H 0.5171 0.48393 0.17569 0.0
H2069 H 0.49532 0.45112 0.22582 0.0
H2070 H 0.47493 0.43169 0.24212 0.0
H2071 H 0.45708 0.45925 0.25108 0.0
H2072 H 0.4778 0.47879 0.23516 0.0
H2073 H 0.51277 0.52005 0.23006 0.0
H2074 H 0.52759 0.5434 0.24498 0.0
H2075 H 0.56448 0.53792 0.24052 0.0
H2076 H 0.54953 0.51445 0.22577 0.0
H2077 H 0.50674 0.4929 0.24092 0.0
H2078 H 0.52964 0.52523 0.18711 0.0
H2079 H 0.54867 0.54163 0.16578 0.0
H2080 H 0.56572 0.51294 0.16463 0.0
H2081 H 0.54644 0.49648 0.18549 0.0
C2082 C 0.49232 0.46233 0.18846 0.0
C2083 C 0.49698 0.4542 0.17838 0.0
C2084 C 0.4874 0.44264 0.16722 0.0
C2085 C 0.47294 0.43897 0.1659 0.0
C2086 C 0.46827 0.44698 0.1763 0.0
C2087 C 0.47787 0.45859 0.1873 0.0
C2088 C 0.50266 0.47523 0.19929 0.0
C2089 C 0.51498 0.48574 0.1901 0.0
C2090 C 0.4999 0.4777 0.21805 0.0
C2091 C 0.48798 0.46633 0.22911 0.0
C2092 C 0.48705 0.45299 0.2314 0.0
C2093 C 0.47534 0.44187 0.24063 0.0
C2094 C 0.46426 0.44384 0.24771 0.0
C2095 C 0.46547 0.45739 0.24595 0.0
C2096 C 0.47728 0.46857 0.23681 0.0
C2097 C 0.53007 0.51558 0.22668 0.0
C2098 C 0.52403 0.52384 0.2324 0.0
C2099 C 0.53252 0.53721 0.2408 0.0
C2100 C 0.5472 0.54251 0.24383 0.0
C2101 C 0.55318 0.53407 0.23847 0.0
C2102 C 0.54469 0.52072 0.22992 0.0
C2103 C 0.52104 0.50165 0.21714 0.0
C2104 C 0.50895 0.49097 0.22661 0.0
C2105 C 0.52422 0.49888 0.1988 0.0
C2106 C 0.53665 0.50965 0.18783 0.0
C2107 C 0.53763 0.52262 0.18248 0.0
C2108 C 0.54854 0.53199 0.17033 0.0
C2109 C 0.55865 0.52854 0.16334 0.0
C2110 C 0.55795 0.5158 0.16942 0.0
C2111 C 0.547 0.50642 0.18144 0.0
H2112 H 0.52825 0.01832 0.16506 0.0
H2113 H 0.54608 0.01576 0.14708 0.0
H2114 H 0.54335 0.98442 0.1874 0.0
H2115 H 0.52447 0.98588 0.20393 0.0
H2116 H 0.50199 0.00183 0.1714 0.0
H2117 H 0.54199 0.02543 0.21247 0.0
H2118 H 0.56269 0.02756 0.22924 0.0
H2119 H 0.53454 0.99121 0.26384 0.0
H2120 H 0.51392 0.98876 0.24641 0.0
H2121 H 0.47398 0.98071 0.23993 0.0
H2122 H 0.45155 0.97555 0.25518 0.0
H2123 H 0.45541 0.01408 0.23123 0.0
H2124 H 0.47792 0.0192 0.21587 0.0
H2125 H 0.50203 0.00433 0.24129 0.0
H2126 H 0.46219 0.98092 0.19798 0.0
H2127 H 0.4423 0.97855 0.17913 0.0
H2128 H 0.47159 0.01626 0.1474 0.0
H2129 H 0.49124 0.0192 0.16742 0.0
C2130 C 0.52513 0.0025 0.18611 0.0
C2131 C 0.53141 0.01079 0.16991 0.0
C2132 C 0.5418 0.00945 0.15976 0.0
C2133 C 0.54635 0.99993 0.16574 0.0
C2134 C 0.54005 0.9917 0.18205 0.0
C2135 C 0.52939 0.99275 0.19183 0.0
C2136 C 0.51383 0.00367 0.1967 0.0
C2137 C 0.50219 0.00273 0.18665 0.0
C2138 C 0.51397 0.00473 0.21666 0.0
C2139 C 0.52642 0.00683 0.22802 0.0
C2140 C 0.54028 0.01792 0.22367 0.0
C2141 C 0.5521 0.0192 0.23339 0.0
C2142 C 0.55029 0.0095 0.24783 0.0
C2143 C 0.53634 0.9987 0.25259 0.0
C2144 C 0.52452 0.99739 0.24279 0.0
C2145 C 0.47754 0.00028 0.22668 0.0
C2146 C 0.47011 0.98816 0.23818 0.0
C2147 C 0.45727 0.98517 0.24677 0.0
C2148 C 0.45172 0.99436 0.24424 0.0
C2149 C 0.4595 0.00686 0.23344 0.0
C2150 C 0.4723 0.00977 0.22464 0.0
C2151 C 0.49021 0.0023 0.21595 0.0
C2152 C 0.50206 0.0038 0.226 0.0
C2153 C 0.49038 0.00204 0.19598 0.0
C2154 C 0.47819 0.00042 0.18442 0.0
C2155 C 0.46428 0.98888 0.18728 0.0
C2156 C 0.45293 0.98741 0.17622 0.0
C2157 C 0.45528 0.9972 0.16165 0.0
C2158 C 0.46927 0.00866 0.1587 0.0
C2159 C 0.48057 0.01027 0.17 0.0
H2160 H 0.48691 0.01628 0.85155 0.0
H2161 H 0.46537 0.01116 0.86909 0.0
H2162 H 0.43987 0.97628 0.83085 0.0
H2163 H 0.46148 0.98081 0.81429 0.0
H2164 H 0.49911 0.0014 0.84831 0.0
H2165 H 0.4822 0.02157 0.80215 0.0
H2166 H 0.46513 0.02304 0.78103 0.0
H2167 H 0.45785 0.98435 0.75293 0.0
H2168 H 0.47531 0.98328 0.77369 0.0
H2169 H 0.51065 0.98243 0.7784 0.0
H2170 H 0.52955 0.98095 0.76171 0.0
H2171 H 0.56136 0.01714 0.79359 0.0
H2172 H 0.54228 0.01915 0.8094 0.0
H2173 H 0.50336 0.00178 0.77866 0.0
H2174 H 0.52099 0.98224 0.82789 0.0
H2175 H 0.53714 0.98164 0.85173 0.0
H2176 H 0.5436 0.02149 0.87492 0.0
H2177 H 0.52749 0.022 0.85123 0.0
C2178 C 0.47588 0.99904 0.83144 0.0
C2179 C 0.47667 0.00756 0.84692 0.0
C2180 C 0.46429 0.00469 0.85684 0.0
C2181 C 0.45082 0.99326 0.85146 0.0
C2182 C 0.45004 0.98502 0.83562 0.0
C2183 C 0.46242 0.98777 0.82589 0.0
C2184 C 0.48915 0.00121 0.82194 0.0
C2185 C 0.50016 0.00176 0.83306 0.0
C2186 C 0.49055 0.00158 0.80208 0.0
C2187 C 0.47999 0.0023 0.7895 0.0
C2188 C 0.47688 0.0134 0.79145 0.0
C2189 C 0.46706 0.01418 0.77941 0.0
C2190 C 0.46009 0.00381 0.76523 0.0
C2191 C 0.4632 0.99267 0.76342 0.0
C2192 C 0.47312 0.99199 0.77534 0.0
C2193 C 0.52498 0.00078 0.79536 0.0
C2194 C 0.52169 0.99012 0.78174 0.0
C2195 C 0.53256 0.98919 0.77234 0.0
C2196 C 0.54704 0.99881 0.77644 0.0
C2197 C 0.55035 0.0096 0.78997 0.0
C2198 C 0.53943 0.01063 0.79924 0.0
C2199 C 0.51315 0.00156 0.80504 0.0
C2200 C 0.50241 0.00158 0.79391 0.0
C2201 C 0.51215 0.00198 0.82492 0.0
C2202 C 0.52304 0.00217 0.83782 0.0
C2203 C 0.5261 0.99096 0.83791 0.0
C2204 C 0.53533 0.99064 0.85151 0.0
C2205 C 0.5415 0.00144 0.86531 0.0
C2206 C 0.53881 0.01289 0.86468 0.0
C2207 C 0.52965 0.01322 0.85112 0.0
H2208 H 0.03366 0.53557 0.83855 0.0
H2209 H 0.0392 0.55597 0.8589 0.0
H2210 H 0.99383 0.53998 0.86627 0.0
H2211 H 0.98857 0.52027 0.84479 0.0
H2212 H 0.01394 0.50467 0.8507 0.0
H2213 H 0.02344 0.53868 0.80276 0.0
H2214 H 0.02264 0.55726 0.78411 0.0
H2215 H 0.97716 0.52956 0.77603 0.0
H2216 H 0.97798 0.511 0.79504 0.0
H2217 H 0.97476 0.46973 0.79205 0.0
H2218 H 0.9694 0.44911 0.77218 0.0
H2219 H 0.01317 0.45861 0.77783 0.0
H2220 H 0.01841 0.47914 0.79784 0.0
H2221 H 0.99369 0.49786 0.78626 0.0
H2222 H 0.98711 0.46206 0.83227 0.0
H2223 H 0.99155 0.44451 0.84793 0.0
H2224 H 0.03526 0.47759 0.85862 0.0
H2225 H 0.03095 0.49486 0.84215 0.0
C2226 C 0.01073 0.5265 0.84018 0.0
C2227 C 0.02496 0.53663 0.84441 0.0
C2228 C 0.02807 0.54821 0.85622 0.0
C2229 C 0.01698 0.54966 0.86451 0.0
C2230 C 0.0027 0.53947 0.85999 0.0
C2231 C 0.99963 0.52809 0.84781 0.0
C2232 C 0.00741 0.5138 0.82864 0.0
C2233 C 0.00963 0.50319 0.83653 0.0
C2234 C 0.00163 0.5119 0.81033 0.0
C2235 C 0.00074 0.52352 0.80046 0.0
C2236 C 0.01323 0.53671 0.79734 0.0
C2237 C 0.01279 0.54725 0.78651 0.0
C2238 C 0.99985 0.54482 0.77853 0.0
C2239 C 0.98726 0.53176 0.78212 0.0
C2240 C 0.98772 0.52115 0.79289 0.0
C2241 C 0.99694 0.4759 0.79657 0.0
C2242 C 0.98319 0.46735 0.78902 0.0
C2243 C 0.98016 0.4556 0.7776 0.0
C2244 C 0.99086 0.45221 0.77339 0.0
C2245 C 0.00463 0.46078 0.78102 0.0
C2246 C 0.00765 0.47254 0.79244 0.0
C2247 C 1.00016 0.48856 0.8083 0.0
C2248 C 0.99785 0.49919 0.8005 0.0
C2249 C 0.00614 0.49058 0.82659 0.0
C2250 C 0.00874 0.47976 0.83584 0.0
C2251 C 0.99771 0.46547 0.83771 0.0
C2252 C 1.00023 0.45547 0.84687 0.0
C2253 C 0.01378 0.45961 0.85452 0.0
C2254 C 0.02477 0.47394 0.85262 0.0
C2255 C 0.02228 0.48389 0.84337 0.0
H2256 H 0.46124 0.50804 0.84679 0.0
H2257 H 0.4415 0.49128 0.86698 0.0
H2258 H 0.44914 0.45726 0.84986 0.0
H2259 H 0.46903 0.47413 0.82993 0.0
H2260 H 0.48993 0.51596 0.84827 0.0
H2261 H 0.45082 0.49357 0.80378 0.0
H2262 H 0.43066 0.47235 0.78977 0.0
H2263 H 0.45953 0.45819 0.77044 0.0
H2264 H 0.47968 0.47957 0.78434 0.0
H2265 H 0.51906 0.51837 0.77831 0.0
H2266 H 0.53812 0.53623 0.75818 0.0
H2267 H 0.52952 0.56867 0.77958 0.0
H2268 H 0.51035 0.55075 0.79937 0.0
H2269 H 0.49053 0.5088 0.77917 0.0
H2270 H 0.5302 0.53264 0.82012 0.0
H2271 H 0.5503 0.55235 0.83661 0.0
H2272 H 0.52109 0.56254 0.86495 0.0
H2273 H 0.501 0.54313 0.84788 0.0
C2274 C 0.46653 0.49231 0.8368 0.0
C2275 C 0.45866 0.49697 0.84742 0.0
C2276 C 0.44732 0.48737 0.85882 0.0
C2277 C 0.44374 0.47295 0.85995 0.0
C2278 C 0.45171 0.46833 0.84937 0.0
C2279 C 0.463 0.47792 0.8379 0.0
C2280 C 0.4785 0.50256 0.82466 0.0
C2281 C 0.49 0.51456 0.83312 0.0
C2282 C 0.47876 0.50037 0.80501 0.0
C2283 C 0.46671 0.48804 0.79532 0.0
C2284 C 0.4528 0.48591 0.79648 0.0
C2285 C 0.44129 0.47375 0.78851 0.0
C2286 C 0.44346 0.46349 0.77914 0.0
C2287 C 0.45749 0.46593 0.77741 0.0
C2288 C 0.46902 0.47811 0.78539 0.0
C2289 C 0.51336 0.53325 0.79042 0.0
C2290 C 0.52126 0.52932 0.77859 0.0
C2291 C 0.53221 0.53955 0.76722 0.0
C2292 C 0.53532 0.55386 0.76732 0.0
C2293 C 0.52728 0.55772 0.77906 0.0
C2294 C 0.51641 0.54751 0.79048 0.0
C2295 C 0.5019 0.52247 0.80271 0.0
C2296 C 0.4905 0.5103 0.7943 0.0
C2297 C 0.5018 0.5245 0.82246 0.0
C2298 C 0.51406 0.53652 0.83246 0.0
C2299 C 0.52811 0.53927 0.82957 0.0
C2300 C 0.53959 0.5505 0.83906 0.0
C2301 C 0.53723 0.55899 0.85197 0.0
C2302 C 0.52318 0.55611 0.85511 0.0
C2303 C 0.51172 0.54502 0.84538 0.0
H2304 H 0.61516 0.82707 0.51703 0.0
H2305 H 0.60997 0.84208 0.4965 0.0
H2306 H 0.65495 0.87428 0.4964 0.0
H2307 H 0.65984 0.8595 0.51756 0.0
H2308 H 0.63368 0.81679 0.50767 0.0
H2309 H 0.62713 0.84203 0.55881 0.0
H2310 H 0.62978 0.86221 0.57778 0.0
H2311 H 0.67562 0.8801 0.57836 0.0
H2312 H 0.6729 0.85976 0.55952 0.0
H2313 H 0.67602 0.82225 0.56224 0.0
H2314 H 0.68243 0.80768 0.58175 0.0
H2315 H 0.63901 0.77232 0.57772 0.0
H2316 H 0.63268 0.78694 0.55816 0.0
H2317 H 0.65726 0.83075 0.57025 0.0
H2318 H 0.66341 0.80596 0.51594 0.0
H2319 H 0.65996 0.7861 0.49578 0.0
H2320 H 0.61407 0.76673 0.5024 0.0
H2321 H 0.61772 0.78711 0.52154 0.0
C2322 C 0.63786 0.84221 0.51884 0.0
C2323 C 0.62383 0.83748 0.51278 0.0
C2324 C 0.62092 0.84604 0.50092 0.0
C2325 C 0.63205 0.85939 0.49461 0.0
C2326 C 0.64604 0.86422 0.50117 0.0
C2327 C 0.6489 0.85574 0.51322 0.0
C2328 C 0.64124 0.83262 0.52979 0.0
C2329 C 0.63862 0.81971 0.5215 0.0
C2330 C 0.64802 0.83663 0.54755 0.0
C2331 C 0.64982 0.84943 0.55775 0.0
C2332 C 0.63776 0.85038 0.56284 0.0
C2333 C 0.63927 0.86185 0.57374 0.0
C2334 C 0.6529 0.87267 0.57955 0.0
C2335 C 0.66501 0.87194 0.57396 0.0
C2336 C 0.66347 0.86033 0.5633 0.0
C2337 C 0.65391 0.80566 0.55861 0.0
C2338 C 0.66791 0.81133 0.56544 0.0
C2339 C 0.67154 0.803 0.57667 0.0
C2340 C 0.66121 0.78886 0.58137 0.0
C2341 C 0.64726 0.78311 0.57416 0.0
C2342 C 0.64363 0.79145 0.56295 0.0
C2343 C 0.64982 0.81492 0.54806 0.0
C2344 C 0.65233 0.8278 0.55642 0.0
C2345 C 0.64291 0.81087 0.53036 0.0
C2346 C 0.64082 0.79799 0.52013 0.0
C2347 C 0.65263 0.79733 0.51314 0.0
C2348 C 0.65061 0.78589 0.50169 0.0
C2349 C 0.63671 0.77478 0.49722 0.0
C2350 C 0.62493 0.77523 0.50505 0.0
C2351 C 0.62697 0.7868 0.51617 0.0
H2352 H 0.16481 0.7888 0.51519 0.0
H2353 H 0.1437 0.76957 0.49941 0.0
H2354 H 0.11863 0.78822 0.51884 0.0
H2355 H 0.13956 0.80693 0.53504 0.0
H2356 H 0.17741 0.8193 0.50958 0.0
H2357 H 0.16219 0.78633 0.56164 0.0
H2358 H 0.14203 0.76658 0.57785 0.0
H2359 H 0.12542 0.79452 0.59187 0.0
H2360 H 0.14605 0.81442 0.57613 0.0
H2361 H 0.18781 0.85529 0.57418 0.0
H2362 H 0.20762 0.87732 0.58726 0.0
H2363 H 0.23773 0.86586 0.56464 0.0
H2364 H 0.21789 0.84389 0.55159 0.0
H2365 H 0.1783 0.8267 0.57885 0.0
H2366 H 0.19718 0.86101 0.52653 0.0
H2367 H 0.21421 0.87718 0.50296 0.0
H2368 H 0.22395 0.84431 0.48706 0.0
H2369 H 0.20666 0.82815 0.51023 0.0
C2370 C 0.15367 0.79917 0.52639 0.0
C2371 C 0.15471 0.78863 0.51608 0.0
C2372 C 0.14265 0.7777 0.50701 0.0
C2373 C 0.12939 0.77726 0.50789 0.0
C2374 C 0.12851 0.78796 0.51819 0.0
C2375 C 0.1405 0.79874 0.52739 0.0
C2376 C 0.16637 0.81093 0.53583 0.0
C2377 C 0.17777 0.82083 0.52474 0.0
C2378 C 0.16669 0.81294 0.55554 0.0
C2379 C 0.15555 0.80177 0.56767 0.0
C2380 C 0.15434 0.78824 0.56854 0.0
C2381 C 0.14273 0.77694 0.57764 0.0
C2382 C 0.13195 0.77888 0.58588 0.0
C2383 C 0.13356 0.79266 0.58578 0.0
C2384 C 0.14532 0.80404 0.57679 0.0
C2385 C 0.20139 0.84806 0.56167 0.0
C2386 C 0.19867 0.85746 0.57224 0.0
C2387 C 0.21 0.87002 0.57974 0.0
C2388 C 0.22425 0.8734 0.57684 0.0
C2389 C 0.22689 0.8637 0.56681 0.0
C2390 C 0.21556 0.85113 0.55937 0.0
C2391 C 0.18943 0.83533 0.55252 0.0
C2392 C 0.17808 0.82521 0.56369 0.0
C2393 C 0.1893 0.83303 0.53282 0.0
C2394 C 0.20064 0.84338 0.52005 0.0
C2395 C 0.20314 0.85739 0.51811 0.0
C2396 C 0.21292 0.86663 0.50468 0.0
C2397 C 0.22034 0.86199 0.49296 0.0
C2398 C 0.2182 0.84813 0.49554 0.0
C2399 C 0.20838 0.83889 0.50884 0.0
H2400 H 0.15081 0.34005 0.50077 0.0
H2401 H 0.13348 0.34293 0.48184 0.0
H2402 H 0.13969 0.3781 0.51743 0.0
H2403 H 0.15696 0.37506 0.53651 0.0
H2404 H 0.17963 0.36081 0.50615 0.0
H2405 H 0.13813 0.3305 0.54206 0.0
H2406 H 0.11597 0.32279 0.5597 0.0
H2407 H 0.13875 0.35753 0.59912 0.0
H2408 H 0.161 0.36527 0.58128 0.0
H2409 H 0.20362 0.36435 0.58115 0.0
H2410 H 0.21841 0.35631 0.59748 0.0
H2411 H 0.20699 0.32336 0.55537 0.0
H2412 H 0.19219 0.33127 0.53935 0.0
H2413 H 0.17392 0.34796 0.57405 0.0
H2414 H 0.21724 0.37527 0.53665 0.0
H2415 H 0.2378 0.37891 0.51759 0.0
H2416 H 0.20917 0.34538 0.47966 0.0
H2417 H 0.1887 0.34183 0.49868 0.0
C2418 C 0.15515 0.35735 0.52 0.0
C2419 C 0.14834 0.3483 0.50458 0.0
C2420 C 0.1384 0.34989 0.49387 0.0
C2421 C 0.13526 0.36073 0.4982 0.0
C2422 C 0.14197 0.3697 0.51377 0.0
C2423 C 0.15177 0.36795 0.52469 0.0
C2424 C 0.16618 0.356 0.53067 0.0
C2425 C 0.17839 0.358 0.521 0.0
C2426 C 0.16464 0.35255 0.55007 0.0
C2427 C 0.15117 0.34852 0.56029 0.0
C2428 C 0.13833 0.33657 0.55437 0.0
C2429 C 0.12571 0.33211 0.56453 0.0
C2430 C 0.12567 0.33953 0.58082 0.0
C2431 C 0.13848 0.35168 0.58655 0.0
C2432 C 0.15117 0.35606 0.57644 0.0
C2433 C 0.19692 0.34849 0.55896 0.0
C2434 C 0.2044 0.35545 0.57542 0.0
C2435 C 0.21288 0.35091 0.58466 0.0
C2436 C 0.21379 0.33917 0.57773 0.0
C2437 C 0.20637 0.33233 0.56115 0.0
C2438 C 0.19802 0.33693 0.55189 0.0
C2439 C 0.18736 0.35269 0.54949 0.0
C2440 C 0.17539 0.35121 0.55936 0.0
C2441 C 0.18896 0.35634 0.53014 0.0
C2442 C 0.20147 0.35829 0.51905 0.0
C2443 C 0.21543 0.36866 0.52429 0.0
C2444 C 0.22713 0.37077 0.51337 0.0
C2445 C 0.22506 0.3624 0.49719 0.0
C2446 C 0.21108 0.35188 0.49217 0.0
C2447 C 0.19939 0.34991 0.50293 0.0
H2448 H 0.99238 0.38943 0.10637 0.0
H2449 H 0.96671 0.39122 0.06051 0.0
H2450 H 0.96261 0.40828 0.07873 0.0
H2451 H 0.97177 0.39294 0.14512 0.0
H2452 H 0.98751 0.40411 0.15894 0.0
H2453 H 0.98735 0.39098 0.14306 0.0
H2454 H 0.0101 0.41082 0.12652 0.0
H2455 H 0.0103 0.424 0.14229 0.0
H2456 H 0.01003 0.42629 0.11714 0.0
H2457 H 0.96291 0.42657 0.10057 0.0
H2458 H 0.96733 0.44471 0.12477 0.0
H2459 H 0.99266 0.43106 0.15678 0.0
C2460 C 0.98582 0.39332 0.10019 0.0
C2461 C 0.97977 0.38884 0.08203 0.0
C2462 C 0.97121 0.3942 0.07453 0.0
C2463 C 0.96889 0.40399 0.08473 0.0
C2464 C 0.97517 0.40831 0.10245 0.0
C2465 C 0.98341 0.40312 0.11017 0.0
C2466 C 0.98948 0.41004 0.12911 0.0
C2467 C 0.98368 0.39885 0.145 0.0
C2468 C 0.00595 0.41828 0.12873 0.0
C2469 C 0.9836 0.42014 0.13061 0.0
C2470 C 0.9753 0.41889 0.11513 0.0
C2471 C 0.96921 0.4275 0.11291 0.0
C2472 C 0.97171 0.43773 0.12683 0.0
C2473 C 0.98024 0.43928 0.14284 0.0
C2474 C 0.98614 0.43023 0.14472 0.0
H2475 H 0.61144 0.60097 0.10852 0.0
H2476 H 0.61473 0.57427 0.06516 0.0
H2477 H 0.6 0.55289 0.08447 0.0
H2478 H 0.61183 0.5804 0.14907 0.0
H2479 H 0.59884 0.58283 0.16205 0.0
H2480 H 0.6106 0.59627 0.1455 0.0
H2481 H 0.58864 0.59432 0.12798 0.0
H2482 H 0.57682 0.58087 0.14445 0.0
H2483 H 0.57489 0.57711 0.1195 0.0
H2484 H 0.58382 0.5343 0.1073 0.0
H2485 H 0.56706 0.51955 0.13228 0.0
H2486 H 0.57395 0.55807 0.16104 0.0
C2487 C 0.6091 0.59064 0.10309 0.0
C2488 C 0.61442 0.58937 0.08536 0.0
C2489 C 0.61112 0.57562 0.07886 0.0
C2490 C 0.60266 0.56337 0.08968 0.0
C2491 C 0.59753 0.56501 0.10698 0.0
C2492 C 0.60062 0.57827 0.11369 0.0
C2493 C 0.59326 0.57695 0.13243 0.0
C2494 C 0.60429 0.58456 0.1482 0.0
C2495 C 0.58278 0.58265 0.13099 0.0
C2496 C 0.58538 0.56084 0.13501 0.0
C2497 C 0.58809 0.5542 0.12021 0.0
C2498 C 0.58174 0.53938 0.11909 0.0
C2499 C 0.5723 0.53109 0.13345 0.0
C2500 C 0.56927 0.53762 0.14878 0.0
C2501 C 0.57599 0.55273 0.14952 0.0
H2502 H 0.412 0.02122 0.09335 0.0
H2503 H 0.38204 0.97601 0.08437 0.0
H2504 H 0.39555 0.96984 0.1067 0.0
H2505 H 0.44348 0.01838 0.09622 0.0
H2506 H 0.45178 0.03165 0.11453 0.0
H2507 H 0.43948 0.03266 0.09835 0.0
H2508 H 0.42404 0.03262 0.12642 0.0
H2509 H 0.43633 0.03166 0.14269 0.0
H2510 H 0.41757 0.01837 0.14353 0.0
H2511 H 0.4129 0.96843 0.12834 0.0
H2512 H 0.43261 0.97186 0.14908 0.0
H2513 H 0.45085 0.01799 0.14556 0.0
C2514 C 0.40828 0.01004 0.09616 0.0
C2515 C 0.3959 0.99909 0.08724 0.0
C2516 C 0.39134 0.98457 0.09129 0.0
C2517 C 0.39899 0.98095 0.10387 0.0
C2518 C 0.41115 0.99196 0.11238 0.0
C2519 C 0.41574 0.00621 0.10884 0.0
C2520 C 0.42924 0.01591 0.11982 0.0
C2521 C 0.44173 0.02519 0.10643 0.0
C2522 C 0.42663 0.02519 0.13396 0.0
C2523 C 0.4316 0.00487 0.12984 0.0
C2524 C 0.42103 0.99113 0.12531 0.0
C2525 C 0.42114 0.97914 0.13224 0.0
C2526 C 0.43235 0.98122 0.14417 0.0
C2527 C 0.44328 0.9952 0.14923 0.0
C2528 C 0.44278 0.00715 0.14194 0.0
H2529 H 0.4004 0.0074 0.92051 0.0
H2530 H 0.37259 0.96129 0.92348 0.0
H2531 H 0.38805 0.95815 0.90058 0.0
H2532 H 0.40862 0.00893 0.86992 0.0
H2533 H 0.4269 0.02305 0.873 0.0
H2534 H 0.41319 0.0217 0.88882 0.0
H2535 H 0.42777 0.02091 0.91731 0.0
H2536 H 0.44147 0.02215 0.9016 0.0
H2537 H 0.43301 0.00747 0.91801 0.0
H2538 H 0.40724 0.95991 0.87905 0.0
H2539 H 0.42859 0.96639 0.85972 0.0
H2540 H 0.44352 0.01147 0.8695 0.0
C2541 C 0.39738 0.99665 0.91605 0.0
C2542 C 0.38526 0.98458 0.9238 0.0
C2543 C 0.38189 0.97069 0.91788 0.0
C2544 C 0.39056 0.9688 0.90481 0.0
C2545 C 0.40254 0.9809 0.89768 0.0
C2546 C 0.40592 0.99457 0.90298 0.0
C2547 C 0.4197 0.00574 0.89369 0.0
C2548 C 0.41693 0.01543 0.88058 0.0
C2549 C 0.43116 0.01458 0.90854 0.0
C2550 C 0.42363 0.9962 0.88256 0.0
C2551 C 0.41356 0.98192 0.88503 0.0
C2552 C 0.41509 0.97107 0.87677 0.0
C2553 C 0.42725 0.97489 0.86568 0.0
C2554 C 0.43774 0.98947 0.86282 0.0
C2555 C 0.43579 0.00023 0.8714 0.0
H2556 H 0.99716 0.39865 0.93043 0.0
H2557 H 0.04047 0.40702 0.92181 0.0
H2558 H 0.044 0.42434 0.89661 0.0
H2559 H 0.9891 0.40171 0.88118 0.0
H2560 H 0.97918 0.41053 0.88706 0.0
H2561 H 0.97975 0.39806 0.90339 0.0
H2562 H 0.98935 0.41753 0.92947 0.0
H2563 H 0.9888 0.43004 0.91324 0.0
H2564 H 0.00529 0.4345 0.92507 0.0
H2565 H 0.04296 0.44119 0.87305 0.0
H2566 H 0.03794 0.45721 0.85387 0.0
H2567 H 0.99561 0.43852 0.87902 0.0
C2568 C 0.00729 0.40395 0.92299 0.0
C2569 C 0.01852 0.40144 0.92789 0.0
C2570 C 0.03176 0.40883 0.91822 0.0
C2571 C 0.03382 0.41861 0.90386 0.0
C2572 C 0.02256 0.42092 0.89944 0.0
C2573 C 0.00958 0.41384 0.90878 0.0
C2574 C 0.99951 0.41888 0.90214 0.0
C2575 C 0.98609 0.40656 0.89289 0.0
C2576 C 0.99551 0.42564 0.91845 0.0
C2577 C 0.00891 0.42999 0.88773 0.0
C2578 C 0.0221 0.43089 0.88625 0.0
C2579 C 0.03267 0.44058 0.87411 0.0
C2580 C 0.02974 0.44971 0.86337 0.0
C2581 C 0.0164 0.4492 0.86496 0.0
C2582 C 0.00583 0.43906 0.87721 0.0
H2583 H 0.5815 0.6013 0.94308 0.0
H2584 H 0.61642 0.62888 0.9056 0.0
H2585 H 0.60151 0.61585 0.87815 0.0
H2586 H 0.56919 0.5693 0.91741 0.0
H2587 H 0.55046 0.56278 0.92179 0.0
H2588 H 0.56367 0.5746 0.9385 0.0
H2589 H 0.554 0.59218 0.93592 0.0
H2590 H 0.5407 0.58037 0.91926 0.0
H2591 H 0.55278 0.5988 0.91308 0.0
H2592 H 0.58329 0.59891 0.85487 0.0
H2593 H 0.56264 0.57989 0.83741 0.0
H2594 H 0.53933 0.56416 0.88998 0.0
C2595 C 0.58595 0.60482 0.92911 0.0
C2596 C 0.60019 0.61612 0.92656 0.0
C2597 C 0.60564 0.62013 0.90798 0.0
C2598 C 0.59722 0.61286 0.89228 0.0
C2599 C 0.58331 0.60168 0.89534 0.0
C2600 C 0.57767 0.59776 0.91328 0.0
C2601 C 0.56251 0.58518 0.91274 0.0
C2602 C 0.5614 0.5722 0.92323 0.0
C2603 C 0.55187 0.58939 0.92072 0.0
C2604 C 0.56057 0.58253 0.8917 0.0
C2605 C 0.5727 0.59214 0.8819 0.0
C2606 C 0.57368 0.59141 0.86236 0.0
C2607 C 0.56196 0.58056 0.85259 0.0
C2608 C 0.5494 0.57065 0.86236 0.0
C2609 C 0.54871 0.57174 0.88215 0.0
H2610 H 0.00168 0.60344 0.92407 0.0
H2611 H 0.04083 0.61558 0.95513 0.0
H2612 H 0.04519 0.59948 0.9351 0.0
H2613 H 0.99075 0.56724 0.91715 0.0
H2614 H 0.9843 0.56629 0.89346 0.0
H2615 H 0.98436 0.57905 0.90989 0.0
H2616 H 0.99954 0.59972 0.88665 0.0
H2617 H 0.99942 0.587 0.87005 0.0
H2618 H 0.01619 0.60192 0.87779 0.0
H2619 H 0.04433 0.58072 0.9133 0.0
H2620 H 0.03918 0.56182 0.89006 0.0
H2621 H 0.00204 0.56393 0.8709 0.0
C2622 C 0.01136 0.60302 0.92648 0.0
C2623 C 0.02084 0.61077 0.94138 0.0
C2624 C 0.0332 0.60956 0.94413 0.0
C2625 C 0.03586 0.60052 0.93271 0.0
C2626 C 0.02619 0.59293 0.91836 0.0
C2627 C 0.0143 0.59423 0.91503 0.0
C2628 C 0.00554 0.58482 0.89875 0.0
C2629 C 0.99034 0.57369 0.90521 0.0
C2630 C 0.00516 0.59391 0.88233 0.0
C2631 C 0.01423 0.57779 0.8937 0.0
C2632 C 0.02607 0.5826 0.90521 0.0
C2633 C 0.03525 0.57709 0.90393 0.0
C2634 C 0.03228 0.5664 0.89051 0.0
C2635 C 0.02028 0.56139 0.87831 0.0
C2636 C 0.01124 0.56734 0.87997 0.0
H2637 H 0.40645 0.41193 0.93792 0.0
H2638 H 0.36892 0.41663 0.9336 0.0
H2639 H 0.38104 0.43509 0.90895 0.0
H2640 H 0.43262 0.44905 0.93234 0.0
H2641 H 0.44466 0.44558 0.9187 0.0
H2642 H 0.43289 0.43264 0.93573 0.0
H2643 H 0.42263 0.41313 0.90971 0.0
H2644 H 0.43434 0.42602 0.89258 0.0
H2645 H 0.41528 0.41618 0.88857 0.0
H2646 H 0.39763 0.4535 0.8853 0.0
H2647 H 0.41714 0.47002 0.86403 0.0
H2648 H 0.44367 0.45312 0.8841 0.0
C2649 C 0.4008 0.41692 0.9319 0.0
C2650 C 0.38676 0.41289 0.93773 0.0
C2651 C 0.37965 0.41948 0.92925 0.0
C2652 C 0.38646 0.43 0.9153 0.0
C2653 C 0.40034 0.43374 0.90995 0.0
C2654 C 0.40741 0.42736 0.91795 0.0
C2655 C 0.42226 0.43324 0.90973 0.0
C2656 C 0.43378 0.44056 0.92504 0.0
C2657 C 0.4237 0.42144 0.89954 0.0
C2658 C 0.42251 0.44402 0.89591 0.0
C2659 C 0.40979 0.44418 0.89624 0.0
C2660 C 0.40763 0.45345 0.8849 0.0
C2661 C 0.41878 0.46283 0.87294 0.0
C2662 C 0.4319 0.46283 0.87239 0.0
C2663 C 0.4337 0.45324 0.88401 0.0
H2664 H 0.60097 0.98921 0.91586 0.0
H2665 H 0.58785 1.00006 0.96839 0.0
H2666 H 0.56947 0.00267 0.9514 0.0
H2667 H 0.59689 0.01425 0.88699 0.0
H2668 H 0.59016 0.00256 0.86678 0.0
H2669 H 0.60207 0.00096 0.88307 0.0
H2670 H 0.58341 0.97415 0.88801 0.0
H2671 H 0.57144 0.97566 0.87174 0.0
H2672 H 0.56548 0.9691 0.8953 0.0
H2673 H 0.55303 0.00477 0.92915 0.0
H2674 H 0.5391 0.00606 0.90254 0.0
H2675 H 0.56274 0.99428 0.86388 0.0
C2676 C 0.59421 0.99212 0.92376 0.0
C2677 C 0.59574 0.99422 0.94353 0.0
C2678 C 0.58668 0.99803 0.95335 0.0
C2679 C 0.57626 0.99965 0.94381 0.0
C2680 C 0.57501 0.99747 0.9244 0.0
C2681 C 0.58369 0.99378 0.91443 0.0
C2682 C 0.58014 0.99228 0.89355 0.0
C2683 C 0.59309 0.00316 0.88191 0.0
C2684 C 0.5748 0.97688 0.88675 0.0
C2685 C 0.5682 0.99581 0.8934 0.0
C2686 C 0.56545 0.99876 0.91139 0.0
C2687 C 0.55507 0.0025 0.91498 0.0
C2688 C 0.54729 0.00329 0.89975 0.0
C2689 C 0.54991 0.00038 0.88113 0.0
C2690 C 0.56045 0.99649 0.87797 0.0
H2691 H 0.61277 0.02399 0.0955 0.0
H2692 H 0.60646 0.98121 0.10128 0.0
H2693 H 0.58704 0.97524 0.12428 0.0
H2694 H 0.60583 0.02806 0.14547 0.0
H2695 H 0.59694 0.03794 0.1398 0.0
H2696 H 0.61085 0.03905 0.12459 0.0
H2697 H 0.5934 0.03112 0.09623 0.0
H2698 H 0.5794 0.02984 0.11137 0.0
H2699 H 0.57654 0.01457 0.0976 0.0
H2700 H 0.56674 0.97314 0.1438 0.0
H2701 H 0.54843 0.97566 0.16117 0.0
H2702 H 0.56927 0.02056 0.14513 0.0
C2703 C 0.60741 0.01344 0.10184 0.0
C2704 C 0.61112 0.00306 0.09673 0.0
C2705 C 0.60389 0.98936 0.10523 0.0
C2706 C 0.5928 0.98585 0.11821 0.0
C2707 C 0.58924 0.99624 0.12272 0.0
C2708 C 0.59647 0.00984 0.11506 0.0
C2709 C 0.59042 0.01896 0.12222 0.0
C2710 C 0.60168 0.03176 0.13371 0.0
C2711 C 0.58459 0.02391 0.10588 0.0
C2712 C 0.57844 0.00825 0.13472 0.0
C2713 C 0.57791 0.99521 0.13473 0.0
C2714 C 0.56725 0.98341 0.14429 0.0
C2715 C 0.55693 0.98501 0.15428 0.0
C2716 C 0.5574 0.99839 0.15493 0.0
C2717 C 0.56841 0.01014 0.14496 0.0
H2718 H 0.97538 0.58267 0.08404 0.0
H2719 H 0.9982 0.62232 0.11578 0.0
H2720 H 0.00111 0.60918 0.14217 0.0
H2721 H 0.95739 0.55895 0.12426 0.0
H2722 H 0.95952 0.54466 0.11465 0.0
H2723 H 0.95788 0.55692 0.09907 0.0
H2724 H 0.9818 0.5629 0.0829 0.0
H2725 H 0.98354 0.55071 0.09846 0.0
H2726 H 0.99769 0.56912 0.09705 0.0
H2727 H 0.00341 0.59216 0.16398 0.0
H2728 H 0.00435 0.57232 0.17994 0.0
H2729 H 0.98068 0.54393 0.13364 0.0
C2730 C 0.98088 0.58859 0.0966 0.0
C2731 C 0.98646 0.60354 0.09783 0.0
C2732 C 0.99355 0.61084 0.11459 0.0
C2733 C 0.99535 0.60347 0.12963 0.0
C2734 C 0.98998 0.58881 0.12776 0.0
C2735 C 0.98282 0.58142 0.11172 0.0
C2736 C 0.97877 0.56583 0.11284 0.0
C2737 C 0.96242 0.55601 0.1127 0.0
C2738 C 0.98588 0.56192 0.09687 0.0
C2739 C 0.98502 0.56566 0.13188 0.0
C2740 C 0.99137 0.57901 0.1403 0.0
C2741 C 0.99838 0.58164 0.15759 0.0
C2742 C 0.99894 0.57034 0.16648 0.0
C2743 C 0.99257 0.55659 0.15804 0.0
C2744 C 0.98544 0.55426 0.14058 0.0
H2745 H 0.41024 0.40182 0.0902 0.0
H2746 H 0.41826 0.36624 0.08814 0.0
H2747 H 0.43682 0.37793 0.11272 0.0
H2748 H 0.44686 0.42924 0.09493 0.0
H2749 H 0.44292 0.44008 0.11043 0.0
H2750 H 0.42984 0.42851 0.09341 0.0
H2751 H 0.41121 0.4163 0.1202 0.0
H2752 H 0.42426 0.42779 0.13732 0.0
H2753 H 0.41548 0.40862 0.13996 0.0
H2754 H 0.45497 0.39397 0.13722 0.0
H2755 H 0.47122 0.41299 0.15921 0.0
H2756 H 0.45194 0.43841 0.14352 0.0
C2757 C 0.41595 0.39649 0.09475 0.0
C2758 C 0.41275 0.38308 0.08716 0.0
C2759 C 0.42034 0.37641 0.09388 0.0
C2760 C 0.43097 0.38301 0.10777 0.0
C2761 C 0.43389 0.39628 0.11479 0.0
C2762 C 0.4266 0.40294 0.10846 0.0
C2763 C 0.43195 0.41732 0.11788 0.0
C2764 C 0.43827 0.4295 0.10329 0.0
C2765 C 0.42002 0.41751 0.12953 0.0
C2766 C 0.44347 0.41777 0.13047 0.0
C2767 C 0.4444 0.40553 0.12858 0.0
C2768 C 0.45434 0.40361 0.13877 0.0
C2769 C 0.46359 0.41452 0.15114 0.0
C2770 C 0.46289 0.42723 0.15317 0.0
C2771 C 0.45264 0.42877 0.14262 0.0
H2772 H 0.65835 0.72541 0.43765 0.0
H2773 H 0.62018 0.71258 0.4041 0.0
H2774 H 0.61338 0.72641 0.42509 0.0
H2775 H 0.64152 0.72433 0.4838 0.0
H2776 H 0.65751 0.73967 0.49266 0.0
H2777 H 0.65886 0.72788 0.47581 0.0
H2778 H 0.67383 0.74947 0.45377 0.0
H2779 H 0.67242 0.7613 0.47044 0.0
H2780 H 0.66661 0.76056 0.44644 0.0
H2781 H 0.61192 0.74339 0.44756 0.0
H2782 H 0.6152 0.76155 0.47103 0.0
H2783 H 0.6534 0.76218 0.49176 0.0
C2784 C 0.64839 0.72522 0.43497 0.0
C2785 C 0.63985 0.71796 0.41911 0.0
C2786 C 0.62702 0.71823 0.41595 0.0
C2787 C 0.62301 0.72598 0.42788 0.0
C2788 C 0.63183 0.73328 0.44308 0.0
C2789 C 0.64415 0.73284 0.44683 0.0
C2790 C 0.65198 0.7421 0.46374 0.0
C2791 C 0.65249 0.73295 0.47996 0.0
C2792 C 0.6671 0.75407 0.45826 0.0
C2793 C 0.64232 0.74811 0.46854 0.0
C2794 C 0.63073 0.74281 0.45649 0.0
C2795 C 0.62077 0.74738 0.45737 0.0
C2796 C 0.6227 0.75767 0.47091 0.0
C2797 C 0.63446 0.76326 0.48358 0.0
C2798 C 0.64431 0.75824 0.48236 0.0
H2799 H 0.27583 0.93476 0.44018 0.0
H2800 H 0.26921 0.90874 0.39029 0.0
H2801 H 0.25299 0.88708 0.40826 0.0
H2802 H 0.27517 0.90934 0.47407 0.0
H2803 H 0.26563 0.91332 0.49173 0.0
H2804 H 0.27711 0.92691 0.47515 0.0
H2805 H 0.25595 0.93029 0.46501 0.0
H2806 H 0.24441 0.91671 0.48155 0.0
H2807 H 0.23954 0.91502 0.45698 0.0
H2808 H 0.23707 0.86838 0.43092 0.0
H2809 H 0.22224 0.8535 0.45726 0.0
H2810 H 0.23905 0.89126 0.49298 0.0
C2811 C 0.27095 0.92451 0.43305 0.0
C2812 C 0.27395 0.92346 0.41385 0.0
C2813 C 0.26736 0.90981 0.40507 0.0
C2814 C 0.25804 0.89744 0.41511 0.0
C2815 C 0.25536 0.89884 0.43397 0.0
C2816 C 0.2616 0.91198 0.4429 0.0
C2817 C 0.2567 0.91041 0.46328 0.0
C2818 C 0.26941 0.91528 0.47686 0.0
C2819 C 0.24867 0.91859 0.46691 0.0
C2820 C 0.24668 0.89435 0.46429 0.0
C2821 C 0.24612 0.88792 0.4472 0.0
C2822 C 0.2375 0.87325 0.44444 0.0
C2823 C 0.22919 0.86487 0.45956 0.0
C2824 C 0.22957 0.87114 0.4773 0.0
C2825 C 0.23846 0.88612 0.47961 0.0
H2826 H 0.06806 0.33662 0.43057 0.0
H2827 H 0.0889 0.38025 0.40996 0.0
H2828 H 0.10789 0.38737 0.43409 0.0
H2829 H 0.07689 0.34472 0.48079 0.0
H2830 H 0.08011 0.33002 0.48401 0.0
H2831 H 0.06739 0.32878 0.46662 0.0
H2832 H 0.08103 0.32334 0.44078 0.0
H2833 H 0.09378 0.32457 0.45807 0.0
H2834 H 0.09987 0.33563 0.43726 0.0
H2835 H 0.12501 0.38942 0.4596 0.0
H2836 H 0.14011 0.38592 0.48275 0.0
H2837 H 0.10872 0.34064 0.48545 0.0
C2838 C 0.07649 0.34772 0.43145 0.0
C2839 C 0.07701 0.35799 0.41872 0.0
C2840 C 0.08836 0.37232 0.41979 0.0
C2841 C 0.09911 0.37644 0.43345 0.0
C2842 C 0.0984 0.36603 0.44574 0.0
C2843 C 0.08744 0.35194 0.44477 0.0
C2844 C 0.08982 0.3426 0.45848 0.0
C2845 C 0.07784 0.33615 0.47336 0.0
C2846 C 0.09121 0.33085 0.44802 0.0
C2847 C 0.10392 0.35359 0.46715 0.0
C2848 C 0.10856 0.36708 0.45986 0.0
C2849 C 0.12145 0.37892 0.46548 0.0
C2850 C 0.12991 0.37685 0.47867 0.0
C2851 C 0.12554 0.36303 0.48585 0.0
C2852 C 0.1123 0.35131 0.48014 0.0
H2853 H 0.0669 0.32962 0.25474 0.0
H2854 H 0.03479 0.2848 0.26142 0.0
H2855 H 0.04765 0.2782 0.23823 0.0
H2856 H 0.07316 0.32809 0.20402 0.0
H2857 H 0.0921 0.34051 0.20607 0.0
H2858 H 0.07974 0.34171 0.22205 0.0
H2859 H 0.09373 0.33977 0.25047 0.0
H2860 H 0.10607 0.33847 0.23461 0.0
H2861 H 0.09657 0.3247 0.25198 0.0
H2862 H 0.06474 0.27644 0.21569 0.0
H2863 H 0.08497 0.2796 0.19587 0.0
H2864 H 0.10571 0.32562 0.20374 0.0
C2865 C 0.0624 0.31844 0.25101 0.0
C2866 C 0.04981 0.30771 0.25979 0.0
C2867 C 0.04446 0.29317 0.25491 0.0
C2868 C 0.05164 0.28933 0.24169 0.0
C2869 C 0.06413 0.30017 0.23349 0.0
C2870 C 0.06945 0.31443 0.23792 0.0
C2871 C 0.08347 0.32393 0.22788 0.0
C2872 C 0.08203 0.33416 0.21419 0.0
C2873 C 0.09568 0.3322 0.24209 0.0
C2874 C 0.08535 0.31278 0.21737 0.0
C2875 C 0.07402 0.29915 0.22063 0.0
C2876 C 0.0736 0.28707 0.21287 0.0
C2877 C 0.08511 0.28899 0.20157 0.0
C2878 C 0.09691 0.30286 0.19822 0.0
C2879 C 0.0969 0.31488 0.20614 0.0
H2880 H 0.69664 0.74605 0.25607 0.0
H2881 H 0.65162 0.72573 0.27115 0.0
H2882 H 0.64867 0.74199 0.24984 0.0
H2883 H 0.70268 0.78201 0.25355 0.0
H2884 H 0.71464 0.7871 0.23362 0.0
H2885 H 0.71334 0.77364 0.24979 0.0
H2886 H 0.70716 0.75581 0.22208 0.0
H2887 H 0.70847 0.76923 0.20582 0.0
H2888 H 0.6923 0.75202 0.20685 0.0
H2889 H 0.65047 0.76061 0.22795 0.0
H2890 H 0.65685 0.78045 0.20589 0.0
H2891 H 0.70062 0.78881 0.20395 0.0
C2892 C 0.68618 0.74505 0.25487 0.0
C2893 C 0.67432 0.73448 0.26513 0.0
C2894 C 0.6608 0.73351 0.26315 0.0
C2895 C 0.65902 0.74277 0.25118 0.0
C2896 C 0.67086 0.753 0.24125 0.0
C2897 C 0.68418 0.75422 0.24288 0.0
C2898 C 0.6951 0.76627 0.23057 0.0
C2899 C 0.70715 0.77795 0.24261 0.0
C2900 C 0.70111 0.76048 0.21543 0.0
C2901 C 0.6858 0.7716 0.22188 0.0
C2902 C 0.67188 0.76378 0.22831 0.0
C2903 C 0.66131 0.76674 0.22264 0.0
C2904 C 0.66503 0.77798 0.20996 0.0
C2905 C 0.6792 0.78611 0.20291 0.0
C2906 C 0.68972 0.78286 0.20908 0.0
H2907 H 0.2435 0.93759 0.2775 0.0
H2908 H 0.27375 0.97018 0.23926 0.0
H2909 H 0.25765 0.95762 0.21257 0.0
H2910 H 0.23313 0.9082 0.24804 0.0
H2911 H 0.21451 0.89901 0.25477 0.0
H2912 H 0.22792 0.91105 0.27109 0.0
H2913 H 0.21483 0.92555 0.27423 0.0
H2914 H 0.20131 0.91349 0.25797 0.0
H2915 H 0.21094 0.93247 0.25333 0.0
H2916 H 0.23949 0.94027 0.18971 0.0
H2917 H 0.21973 0.91996 0.17257 0.0
H2918 H 0.20055 0.89966 0.22578 0.0
C2919 C 0.24661 0.94233 0.26362 0.0
C2920 C 0.25997 0.95488 0.26054 0.0
C2921 C 0.26371 0.96047 0.242 0.0
C2922 C 0.25458 0.95347 0.22674 0.0
C2923 C 0.24163 0.941 0.23026 0.0
C2924 C 0.23756 0.93558 0.24826 0.0
C2925 C 0.2233 0.92173 0.24814 0.0
C2926 C 0.22482 0.90927 0.25597 0.0
C2927 C 0.21192 0.92342 0.25906 0.0
C2928 C 0.22016 0.92004 0.2272 0.0
C2929 C 0.23088 0.93128 0.21712 0.0
C2930 C 0.23089 0.93156 0.19746 0.0
C2931 C 0.2197 0.92002 0.18785 0.0
C2932 C 0.20862 0.90848 0.19795 0.0
C2933 C 0.20877 0.90857 0.21783 0.0
H2934 H 0.68716 0.94986 0.24602 0.0
H2935 H 0.7052 0.94122 0.29565 0.0
H2936 H 0.71093 0.92569 0.27673 0.0
H2937 H 0.66979 0.91429 0.22889 0.0
H2938 H 0.67291 0.91919 0.20432 0.0
H2939 H 0.67164 0.93103 0.22111 0.0
H2940 H 0.69656 0.95157 0.21069 0.0
H2941 H 0.69789 0.93979 0.1938 0.0
H2942 H 0.71173 0.94885 0.21122 0.0
H2943 H 0.71327 0.90982 0.25336 0.0
H2944 H 0.71167 0.89423 0.22698 0.0
H2945 H 0.69137 0.91222 0.19249 0.0
C2946 C 0.69237 0.94478 0.25295 0.0
C2947 C 0.69587 0.94702 0.27238 0.0
C2948 C 0.70274 0.94011 0.28074 0.0
C2949 C 0.70596 0.93113 0.27013 0.0
C2950 C 0.70218 0.92904 0.25115 0.0
C2951 C 0.69553 0.93564 0.2426 0.0
C2952 C 0.69184 0.93085 0.22224 0.0
C2953 C 0.67558 0.9234 0.21896 0.0
C2954 C 0.7 0.94352 0.20869 0.0
C2955 C 0.69724 0.92034 0.22084 0.0
C2956 C 0.7033 0.91961 0.23764 0.0
C2957 C 0.7087 0.91041 0.24005 0.0
C2958 C 0.70781 0.90165 0.22492 0.0
C2959 C 0.70153 0.90208 0.20757 0.0
C2960 C 0.69623 0.91163 0.20555 0.0
H2961 H 0.06044 0.73567 0.25274 0.0
H2962 H 0.05074 0.76179 0.28974 0.0
H2963 H 0.06466 0.78263 0.26906 0.0
H2964 H 0.09596 0.76188 0.24236 0.0
H2965 H 0.0954 0.75685 0.21798 0.0
H2966 H 0.08397 0.7437 0.23501 0.0
H2967 H 0.06169 0.73801 0.21494 0.0
H2968 H 0.07307 0.75109 0.19776 0.0
H2969 H 0.05854 0.75231 0.20838 0.0
H2970 H 0.08094 0.80094 0.24582 0.0
H2971 H 0.098 0.8155 0.22107 0.0
H2972 H 0.09611 0.7773 0.19785 0.0
C2973 C 0.06099 0.74569 0.25631 0.0
C2974 C 0.05452 0.74709 0.27294 0.0
C2975 C 0.05576 0.76049 0.27725 0.0
C2976 C 0.06357 0.77237 0.26552 0.0
C2977 C 0.06998 0.77068 0.24942 0.0
C2978 C 0.0687 0.75766 0.2447 0.0
C2979 C 0.07706 0.75888 0.22691 0.0
C2980 C 0.08879 0.75511 0.23081 0.0
C2981 C 0.06699 0.74952 0.21106 0.0
C2982 C 0.08344 0.77467 0.22258 0.0
C2983 C 0.07917 0.78124 0.23572 0.0
C2984 C 0.08416 0.79588 0.23524 0.0
C2985 C 0.0938 0.80405 0.22098 0.0
C2986 C 0.09834 0.79759 0.20722 0.0
C2987 C 0.09295 0.78264 0.20809 0.0
H2988 H 0.24864 0.30352 0.26898 0.0
H2989 H 0.28676 0.33951 0.24516 0.0
H2990 H 0.27252 0.3402 0.21847 0.0
H2991 H 0.23215 0.28649 0.22376 0.0
H2992 H 0.21429 0.28102 0.23179 0.0
H2993 H 0.22765 0.28259 0.24836 0.0
H2994 H 0.2233 0.30005 0.26866 0.0
H2995 H 0.20994 0.29852 0.25219 0.0
H2996 H 0.22487 0.3159 0.25793 0.0
H2997 H 0.25405 0.33835 0.19585 0.0
H2998 H 0.2324 0.33369 0.17825 0.0
H2999 H 0.20614 0.29876 0.2163 0.0
C3000 C 0.25399 0.31146 0.25806 0.0
C3001 C 0.26884 0.32138 0.25907 0.0
C3002 C 0.27546 0.33163 0.2445 0.0
C3003 C 0.26746 0.33215 0.22933 0.0
C3004 C 0.25285 0.3223 0.22882 0.0
C3005 C 0.24616 0.31209 0.24272 0.0
C3006 C 0.23021 0.30309 0.2391 0.0
C3007 C 0.22582 0.28737 0.23554 0.0
C3008 C 0.22158 0.30448 0.25544 0.0
C3009 C 0.22893 0.31012 0.22129 0.0
C3010 C 0.24214 0.32112 0.21557 0.0
C3011 C 0.24366 0.32967 0.20006 0.0
C3012 C 0.23132 0.32699 0.19022 0.0
C3013 C 0.21765 0.31585 0.19591 0.0
C3014 C 0.21649 0.30719 0.21149 0.0
H3015 H 0.26953 0.33952 0.43019 0.0
H3016 H 0.29552 0.3842 0.4145 0.0
H3017 H 0.28249 0.39062 0.43772 0.0
H3018 H 0.23705 0.33961 0.43455 0.0
H3019 H 0.23052 0.32747 0.45429 0.0
H3020 H 0.2427 0.32662 0.4377 0.0
H3021 H 0.2601 0.32995 0.46494 0.0
H3022 H 0.24794 0.3308 0.48165 0.0
H3023 H 0.26627 0.34516 0.48046 0.0
H3024 H 0.2661 0.39197 0.46202 0.0
H3025 H 0.24663 0.38801 0.48403 0.0
H3026 H 0.23098 0.34234 0.48298 0.0
C3027 C 0.27264 0.35069 0.4319 0.0
C3028 C 0.2836 0.3614 0.42073 0.0
C3029 C 0.28714 0.37585 0.42297 0.0
C3030 C 0.27986 0.37959 0.43616 0.0
C3031 C 0.26903 0.36873 0.44689 0.0
C3032 C 0.26539 0.35457 0.44483 0.0
C3033 C 0.25275 0.34484 0.45718 0.0
C3034 C 0.24 0.334 0.44521 0.0
C3035 C 0.25703 0.33724 0.47193 0.0
C3036 C 0.24971 0.35571 0.46632 0.0
C3037 C 0.25934 0.36946 0.46043 0.0
C3038 C 0.25854 0.38126 0.46679 0.0
C3039 C 0.2475 0.37892 0.47934 0.0
C3040 C 0.23733 0.36488 0.48516 0.0
C3041 C 0.23857 0.35318 0.47866 0.0
H3042 H 0.65015 0.92946 0.43617 0.0
H3043 H 0.61883 0.9016 0.3949 0.0
H3044 H 0.61192 0.88087 0.41581 0.0
H3045 H 0.66198 0.90617 0.44934 0.0
H3046 H 0.66417 0.9108 0.47404 0.0
H3047 H 0.66566 0.92368 0.45679 0.0
H3048 H 0.6459 0.9263 0.47398 0.0
H3049 H 0.64441 0.91348 0.4914 0.0
H3050 H 0.62879 0.9106 0.47855 0.0
H3051 H 0.61014 0.86297 0.43961 0.0
H3052 H 0.61333 0.84914 0.46475 0.0
H3053 H 0.64488 0.88879 0.49151 0.0
C3054 C 0.64157 0.91907 0.43174 0.0
C3055 C 0.63502 0.91715 0.41389 0.0
C3056 C 0.62409 0.9033 0.40843 0.0
C3057 C 0.62002 0.89148 0.42026 0.0
C3058 C 0.62689 0.8937 0.43759 0.0
C3059 C 0.63735 0.90716 0.4434 0.0
C3060 C 0.64364 0.90651 0.4622 0.0
C3061 C 0.65982 0.91212 0.46047 0.0
C3062 C 0.64049 0.91471 0.47743 0.0
C3063 C 0.63537 0.89053 0.46579 0.0
C3064 C 0.62568 0.88336 0.4515 0.0
C3065 C 0.61748 0.86848 0.45108 0.0
C3066 C 0.61931 0.86071 0.46555 0.0
C3067 C 0.62928 0.86782 0.48031 0.0
C3068 C 0.63722 0.88297 0.48046 0.0
H3069 H 0.08617 0.72719 0.42073 0.0
H3070 H 0.04723 0.71874 0.44998 0.0
H3071 H 0.06152 0.73218 0.47738 0.0
H3072 H 0.1063 0.72671 0.46121 0.0
H3073 H 0.12294 0.7416 0.45304 0.0
H3074 H 0.10962 0.72996 0.43627 0.0
H3075 H 0.10956 0.75178 0.4212 0.0
H3076 H 0.12294 0.76348 0.43782 0.0
H3077 H 0.10631 0.76352 0.43588 0.0
H3078 H 0.07993 0.74698 0.50149 0.0
H3079 H 0.10131 0.76388 0.51949 0.0
H3080 H 0.12837 0.76505 0.47324 0.0
C3081 C 0.08056 0.72814 0.4328 0.0
C3082 C 0.06543 0.72156 0.43309 0.0
C3083 C 0.0587 0.72316 0.44942 0.0
C3084 C 0.06675 0.73091 0.4651 0.0
C3085 C 0.08157 0.73723 0.46425 0.0
C3086 C 0.08844 0.7361 0.44846 0.0
C3087 C 0.10456 0.74486 0.45065 0.0
C3088 C 0.11125 0.7352 0.45028 0.0
C3089 C 0.11123 0.75661 0.43549 0.0
C3090 C 0.10565 0.75119 0.47009 0.0
C3091 C 0.09226 0.74646 0.47779 0.0
C3092 C 0.09048 0.75085 0.49556 0.0
C3093 C 0.10272 0.76056 0.50561 0.0
C3094 C 0.11659 0.766 0.49775 0.0
C3095 C 0.11799 0.76103 0.47982 0.0
H3096 H 0.31066 0.06426 0.74818 0.0
H3097 H 0.31907 0.03761 0.78577 0.0
H3098 H 0.31743 0.0509 0.8131 0.0
H3099 H 0.33046 0.09653 0.77243 0.0
H3100 H 0.31806 0.10282 0.76849 0.0
H3101 H 0.31907 0.09071 0.75192 0.0
H3102 H 0.29189 0.07299 0.75596 0.0
H3103 H 0.29077 0.08511 0.77246 0.0
H3104 H 0.28467 0.06686 0.77924 0.0
H3105 H 0.31693 0.06844 0.8361 0.0
H3106 H 0.31602 0.08802 0.85317 0.0
H3107 H 0.30654 0.10215 0.80074 0.0
C3108 C 0.31181 0.06094 0.76215 0.0
C3109 C 0.31507 0.0499 0.76474 0.0
C3110 C 0.31681 0.04618 0.78333 0.0
C3111 C 0.31579 0.05359 0.79898 0.0
C3112 C 0.31284 0.06458 0.79586 0.0
C3113 C 0.31069 0.06812 0.77792 0.0
C3114 C 0.30803 0.08062 0.77834 0.0
C3115 C 0.3196 0.09342 0.76714 0.0
C3116 C 0.29294 0.07612 0.77107 0.0
C3117 C 0.30929 0.08374 0.79929 0.0
C3118 C 0.3121 0.07439 0.80916 0.0
C3119 C 0.31453 0.07569 0.82857 0.0
C3120 C 0.31406 0.08685 0.83811 0.0
C3121 C 0.31108 0.09644 0.82826 0.0
C3122 C 0.30858 0.09477 0.80864 0.0
H3123 H 0.94948 0.26375 0.77465 0.0
H3124 H 0.94625 0.23826 0.7256 0.0
H3125 H 0.93248 0.21613 0.74427 0.0
H3126 H 0.95154 0.23976 0.81079 0.0
H3127 H 0.94061 0.24278 0.8273 0.0
H3128 H 0.95192 0.25664 0.81089 0.0
H3129 H 0.92989 0.2578 0.79881 0.0
H3130 H 0.91852 0.24391 0.81505 0.0
H3131 H 0.91451 0.24172 0.79019 0.0
H3132 H 0.91721 0.19693 0.76702 0.0
H3133 H 0.90097 0.18178 0.79222 0.0
H3134 H 0.91387 0.21954 0.82683 0.0
C3135 C 0.94619 0.25349 0.76807 0.0
C3136 C 0.94899 0.25262 0.74881 0.0
C3137 C 0.94421 0.23907 0.7404 0.0
C3138 C 0.93645 0.22648 0.75089 0.0
C3139 C 0.93355 0.22764 0.76976 0.0
C3140 C 0.93828 0.24079 0.77832 0.0
C3141 C 0.93259 0.23898 0.7983 0.0
C3142 C 0.9449 0.24489 0.81267 0.0
C3143 C 0.92333 0.24602 0.80071 0.0
C3144 C 0.92363 0.2228 0.79941 0.0
C3145 C 0.92451 0.21649 0.78289 0.0
C3146 C 0.91662 0.20173 0.78015 0.0
C3147 C 0.90746 0.19319 0.79462 0.0
C3148 C 0.90619 0.19943 0.8116 0.0
C3149 C 0.91456 0.21444 0.81403 0.0
H3150 H 0.74562 0.67342 0.74493 0.0
H3151 H 0.72836 0.69719 0.77346 0.0
H3152 H 0.74439 0.7013 0.80037 0.0
H3153 H 0.75095 0.65705 0.78487 0.0
H3154 H 0.76772 0.65921 0.77659 0.0
H3155 H 0.75444 0.65761 0.75991 0.0
H3156 H 0.77294 0.68164 0.74446 0.0
H3157 H 0.78631 0.68326 0.761 0.0
H3158 H 0.78221 0.69746 0.7589 0.0
H3159 H 0.76212 0.70229 0.82466 0.0
H3160 H 0.78092 0.70133 0.84324 0.0
H3161 H 0.78829 0.6795 0.79674 0.0
C3162 C 0.74527 0.6797 0.75661 0.0
C3163 C 0.73555 0.68489 0.75692 0.0
C3164 C 0.7354 0.69278 0.77289 0.0
C3165 C 0.74458 0.69529 0.78824 0.0
C3166 C 0.75401 0.69004 0.78735 0.0
C3167 C 0.75452 0.68257 0.77182 0.0
C3168 C 0.76595 0.67848 0.77398 0.0
C3169 C 0.75936 0.66212 0.77383 0.0
C3170 C 0.77754 0.68564 0.75868 0.0
C3171 C 0.7717 0.68469 0.79327 0.0
C3172 C 0.76463 0.69122 0.80084 0.0
C3173 C 0.76786 0.69736 0.81876 0.0
C3174 C 0.77866 0.69685 0.82916 0.0
C3175 C 0.78624 0.69039 0.82153 0.0
C3176 C 0.78264 0.68432 0.80326 0.0
H3177 H 0.71733 0.63876 0.58711 0.0
H3178 H 0.73541 0.6849 0.58976 0.0
H3179 H 0.75367 0.68809 0.56657 0.0
H3180 H 0.75071 0.63997 0.58569 0.0
H3181 H 0.74491 0.62501 0.56981 0.0
H3182 H 0.73216 0.62607 0.58514 0.0
H3183 H 0.71659 0.62405 0.55625 0.0
H3184 H 0.72931 0.62299 0.54081 0.0
H3185 H 0.72448 0.63654 0.53704 0.0
H3186 H 0.77092 0.68668 0.54488 0.0
H3187 H 0.78644 0.68065 0.52616 0.0
H3188 H 0.75817 0.63557 0.53828 0.0
C3189 C 0.72506 0.64953 0.58275 0.0
C3190 C 0.72469 0.66154 0.59012 0.0
C3191 C 0.73509 0.67546 0.58398 0.0
C3192 C 0.74563 0.67742 0.57088 0.0
C3193 C 0.74573 0.66539 0.56405 0.0
C3194 C 0.73577 0.65172 0.56975 0.0
C3195 C 0.73887 0.64071 0.56101 0.0
C3196 C 0.74184 0.63246 0.57633 0.0
C3197 C 0.72658 0.63047 0.548 0.0
C3198 C 0.75227 0.65041 0.54981 0.0
C3199 C 0.75594 0.66458 0.55167 0.0
C3200 C 0.76814 0.67562 0.54323 0.0
C3201 C 0.77693 0.67209 0.53274 0.0
C3202 C 0.77354 0.65766 0.53084 0.0
C3203 C 0.76093 0.64668 0.53932 0.0
H3204 H 0.3516 0.08875 0.60958 0.0
H3205 H 0.35066 0.05594 0.573 0.0
H3206 H 0.35347 0.07086 0.54529 0.0
H3207 H 0.33267 0.09965 0.58007 0.0
H3208 H 0.34349 0.11844 0.58553 0.0
H3209 H 0.34154 0.10524 0.60258 0.0
H3210 H 0.36912 0.11666 0.60421 0.0
H3211 H 0.37117 0.12994 0.58721 0.0
H3212 H 0.37911 0.11898 0.58282 0.0
H3213 H 0.35483 0.08871 0.52137 0.0
H3214 H 0.35634 0.10904 0.50324 0.0
H3215 H 0.35846 0.1309 0.55552 0.0
C3216 C 0.35225 0.08476 0.59583 0.0
C3217 C 0.35076 0.07104 0.59359 0.0
C3218 C 0.35143 0.06623 0.57517 0.0
C3219 C 0.35315 0.07468 0.5593 0.0
C3220 C 0.35444 0.08805 0.56206 0.0
C3221 C 0.3542 0.09314 0.57987 0.0
C3222 C 0.35582 0.10789 0.57898 0.0
C3223 C 0.34259 0.10779 0.58728 0.0
C3224 C 0.36963 0.11903 0.58889 0.0
C3225 C 0.35679 0.11021 0.55786 0.0
C3226 C 0.35589 0.0986 0.54832 0.0
C3227 C 0.35575 0.09794 0.52867 0.0
C3228 C 0.35657 0.10947 0.51851 0.0
C3229 C 0.35769 0.12151 0.52806 0.0
C3230 C 0.35789 0.1219 0.54795 0.0
H3231 H 0.92241 0.28201 0.58679 0.0
H3232 H 0.92712 0.25017 0.61816 0.0
H3233 H 0.91063 0.23139 0.59612 0.0
H3234 H 0.88474 0.25949 0.5777 0.0
H3235 H 0.88548 0.26647 0.55439 0.0
H3236 H 0.89821 0.27762 0.57203 0.0
H3237 H 0.91909 0.28209 0.5497 0.0
H3238 H 0.90641 0.27095 0.53199 0.0
H3239 H 0.91988 0.26703 0.5401 0.0
H3240 H 0.89402 0.21621 0.57095 0.0
H3241 H 0.87672 0.20496 0.54496 0.0
H3242 H 0.88155 0.24618 0.53042 0.0
C3243 C 0.91999 0.27108 0.58886 0.0
C3244 C 0.92599 0.26745 0.60406 0.0
C3245 C 0.92253 0.25307 0.60659 0.0
C3246 C 0.91325 0.24238 0.59413 0.0
C3247 C 0.90743 0.24624 0.57933 0.0
C3248 C 0.91053 0.26019 0.57669 0.0
C3249 C 0.90228 0.26125 0.56007 0.0
C3250 C 0.89207 0.26652 0.56643 0.0
C3251 C 0.91253 0.2709 0.54454 0.0
C3252 C 0.89408 0.24572 0.55384 0.0
C3253 C 0.89737 0.23731 0.56505 0.0
C3254 C 0.89134 0.22266 0.56205 0.0
C3255 C 0.8816 0.21639 0.54722 0.0
C3256 C 0.87789 0.22473 0.5357 0.0
C3257 C 0.8842 0.23959 0.53909 0.0
H3258 H 0.35492 0.28559 0.58136 0.0
H3259 H 0.37192 0.27714 0.63219 0.0
H3260 H 0.37666 0.26038 0.61451 0.0
H3261 H 0.33611 0.24961 0.56595 0.0
H3262 H 0.33942 0.25376 0.54119 0.0
H3263 H 0.33885 0.26646 0.55714 0.0
H3264 H 0.3642 0.28586 0.5463 0.0
H3265 H 0.36483 0.27322 0.53025 0.0
H3266 H 0.37876 0.28224 0.54756 0.0
H3267 H 0.37806 0.24328 0.59225 0.0
H3268 H 0.37583 0.22677 0.56671 0.0
H3269 H 0.35709 0.24538 0.53044 0.0
C3270 C 0.35971 0.2803 0.58881 0.0
C3271 C 0.36319 0.28293 0.60822 0.0
C3272 C 0.3695 0.27573 0.61727 0.0
C3273 C 0.37214 0.26604 0.60737 0.0
C3274 C 0.36836 0.26356 0.58842 0.0
C3275 C 0.36228 0.27046 0.57919 0.0
C3276 C 0.35844 0.26518 0.55903 0.0
C3277 C 0.34224 0.25835 0.55564 0.0
C3278 C 0.36708 0.27735 0.54495 0.0
C3279 C 0.36309 0.25406 0.55852 0.0
C3280 C 0.36891 0.25343 0.57557 0.0
C3281 C 0.37366 0.24378 0.57875 0.0
C3282 C 0.37241 0.23449 0.56411 0.0
C3283 C 0.36639 0.23484 0.54651 0.0
C3284 C 0.3617 0.24482 0.54374 0.0
H3285 H 0.72488 0.07007 0.581 0.0
H3286 H 0.72165 0.09759 0.62307 0.0
H3287 H 0.73517 0.11843 0.60224 0.0
H3288 H 0.76013 0.0941 0.56678 0.0
H3289 H 0.75729 0.0895 0.5421 0.0
H3290 H 0.74637 0.07648 0.55957 0.0
H3291 H 0.72345 0.07333 0.54343 0.0
H3292 H 0.7343 0.08629 0.52581 0.0
H3293 H 0.7216 0.0888 0.5394 0.0
H3294 H 0.75061 0.13646 0.57829 0.0
H3295 H 0.76663 0.1506 0.55243 0.0
H3296 H 0.75895 0.11139 0.52479 0.0
C3297 C 0.72676 0.08043 0.58566 0.0
C3298 C 0.72224 0.0822 0.60371 0.0
C3299 C 0.72516 0.096 0.60941 0.0
C3300 C 0.73275 0.10788 0.59763 0.0
C3301 C 0.73727 0.10581 0.58011 0.0
C3302 C 0.73432 0.09243 0.57404 0.0
C3303 C 0.74099 0.0933 0.55489 0.0
C3304 C 0.75184 0.08803 0.55591 0.0
C3305 C 0.72939 0.08493 0.54 0.0
C3306 C 0.74839 0.10929 0.55135 0.0
C3307 C 0.74602 0.11627 0.56604 0.0
C3308 C 0.75233 0.1311 0.56651 0.0
C3309 C 0.76135 0.13905 0.55161 0.0
C3310 C 0.76399 0.13218 0.53631 0.0
C3311 C 0.75725 0.11704 0.53622 0.0
H3312 H 0.91575 0.63784 0.59747 0.0
H3313 H 0.95247 0.67791 0.57944 0.0
H3314 H 0.93836 0.67931 0.55315 0.0
H3315 H 0.90202 0.62408 0.55024 0.0
H3316 H 0.88355 0.6163 0.55726 0.0
H3317 H 0.89675 0.61787 0.57409 0.0
H3318 H 0.88941 0.63197 0.5967 0.0
H3319 H 0.87616 0.6304 0.57999 0.0
H3320 H 0.88962 0.64782 0.58828 0.0
H3321 H 0.92008 0.67743 0.53032 0.0
H3322 H 0.8985 0.6722 0.51207 0.0
H3323 H 0.87352 0.63323 0.54422 0.0
C3324 C 0.92083 0.64687 0.58794 0.0
C3325 C 0.93528 0.65769 0.59042 0.0
C3326 C 0.94153 0.66934 0.57762 0.0
C3327 C 0.93358 0.67027 0.56268 0.0
C3328 C 0.9194 0.65945 0.56063 0.0
C3329 C 0.91305 0.64795 0.57285 0.0
C3330 C 0.89745 0.63806 0.56781 0.0
C3331 C 0.89479 0.6232 0.562 0.0
C3332 C 0.88758 0.63701 0.58417 0.0
C3333 C 0.89598 0.64598 0.5511 0.0
C3334 C 0.90881 0.65826 0.54719 0.0
C3335 C 0.91001 0.66777 0.53308 0.0
C3336 C 0.89773 0.66474 0.52284 0.0
C3337 C 0.88447 0.65229 0.52669 0.0
C3338 C 0.88363 0.64268 0.54081 0.0
H3339 H 0.93118 0.68478 0.7394 0.0
H3340 H 0.96716 0.69537 0.77643 0.0
H3341 H 0.95468 0.69995 0.80236 0.0
H3342 H 0.9236 0.71203 0.75776 0.0
H3343 H 0.90452 0.70061 0.75515 0.0
H3344 H 0.91656 0.69866 0.7394 0.0
H3345 H 0.90473 0.67182 0.7483 0.0
H3346 H 0.89274 0.67369 0.76416 0.0
H3347 H 0.90385 0.66685 0.77274 0.0
H3348 H 0.93758 0.70193 0.82477 0.0
H3349 H 0.9175 0.70178 0.84163 0.0
H3350 H 0.89355 0.69156 0.7892 0.0
C3351 C 0.93661 0.68835 0.75281 0.0
C3352 C 0.95018 0.68967 0.75582 0.0
C3353 C 0.9567 0.69406 0.77381 0.0
C3354 C 0.94974 0.6968 0.7886 0.0
C3355 C 0.93633 0.69524 0.78516 0.0
C3356 C 0.9299 0.69124 0.76766 0.0
C3357 C 0.91531 0.69003 0.76772 0.0
C3358 C 0.91499 0.70099 0.75421 0.0
C3359 C 0.90346 0.67469 0.76296 0.0
C3360 C 0.91443 0.69373 0.78809 0.0
C3361 C 0.92666 0.69673 0.79792 0.0
C3362 C 0.92804 0.69983 0.81715 0.0
C3363 C 0.91659 0.6998 0.82658 0.0
C3364 C 0.90392 0.69676 0.81677 0.0
C3365 C 0.90299 0.69383 0.79721 0.0
H3366 H 0.32873 0.25677 0.74897 0.0
H3367 H 0.28764 0.25414 0.75733 0.0
H3368 H 0.28113 0.23497 0.7809 0.0
H3369 H 0.316 0.21902 0.75264 0.0
H3370 H 0.33169 0.22151 0.76493 0.0
H3371 H 0.33304 0.23499 0.74878 0.0
H3372 H 0.34403 0.25409 0.77526 0.0
H3373 H 0.34269 0.24067 0.79149 0.0
H3374 H 0.33447 0.25119 0.79719 0.0
H3375 H 0.27907 0.21587 0.80334 0.0
H3376 H 0.2819 0.1988 0.82355 0.0
H3377 H 0.32428 0.21397 0.80015 0.0
C3378 C 0.3183 0.25208 0.75563 0.0
C3379 C 0.30867 0.25691 0.75128 0.0
C3380 C 0.29524 0.25068 0.76057 0.0
C3381 C 0.29142 0.23974 0.77389 0.0
C3382 C 0.30117 0.23522 0.77781 0.0
C3383 C 0.31435 0.24122 0.76898 0.0
C3384 C 0.32297 0.23457 0.77583 0.0
C3385 C 0.32611 0.22708 0.75958 0.0
C3386 C 0.33686 0.2458 0.78552 0.0
C3387 C 0.31257 0.22385 0.78988 0.0
C3388 C 0.30004 0.22435 0.79079 0.0
C3389 C 0.28883 0.21538 0.80273 0.0
C3390 C 0.2905 0.20567 0.81406 0.0
C3391 C 0.30331 0.20506 0.81342 0.0
C3392 C 0.31444 0.21429 0.80112 0.0
H3393 H 0.73715 0.05745 0.77149 0.0
H3394 H 0.76394 0.04993 0.73289 0.0
H3395 H 0.7845 0.06291 0.75435 0.0
H3396 H 0.76297 0.09257 0.78389 0.0
H3397 H 0.75778 0.09114 0.80832 0.0
H3398 H 0.74479 0.08019 0.79084 0.0
H3399 H 0.73925 0.05734 0.80946 0.0
H3400 H 0.75218 0.06824 0.82709 0.0
H3401 H 0.75365 0.05418 0.81544 0.0
H3402 H 0.80246 0.07816 0.77846 0.0
H3403 H 0.81682 0.09467 0.80381 0.0
H3404 H 0.77835 0.09177 0.82772 0.0
C3405 C 0.74727 0.05827 0.76777 0.0
C3406 C 0.74896 0.05268 0.75052 0.0
C3407 C 0.76245 0.05424 0.74595 0.0
C3408 C 0.77416 0.06151 0.7581 0.0
C3409 C 0.7722 0.06712 0.77481 0.0
C3410 C 0.7591 0.06554 0.77974 0.0
C3411 C 0.76012 0.07326 0.79807 0.0
C3412 C 0.75618 0.08499 0.79509 0.0
C3413 C 0.75074 0.06262 0.81343 0.0
C3414 C 0.7759 0.07966 0.80245 0.0
C3415 C 0.78262 0.07587 0.78891 0.0
C3416 C 0.79729 0.081 0.78934 0.0
C3417 C 0.80534 0.09032 0.80394 0.0
C3418 C 0.79875 0.09444 0.81802 0.0
C3419 C 0.78377 0.08889 0.81724 0.0
H3420 H 0.05423 0.32137 0.05267 0.0
H3421 H 0.07609 0.36772 0.05588 0.0
H3422 H 0.09715 0.36802 0.07002 0.0
H3423 H 0.06645 0.31626 0.09694 0.0
H3424 H 0.06831 0.30135 0.08928 0.0
H3425 H 0.05538 0.3048 0.07814 0.0
H3426 H 0.06679 0.30591 0.04554 0.0
H3427 H 0.07978 0.30248 0.0566 0.0
H3428 H 0.08564 0.31812 0.04204 0.0
H3429 H 0.11543 0.36335 0.08444 0.0
H3430 H 0.12952 0.354 0.09981 0.0
H3431 H 0.09552 0.31053 0.08851 0.0
C3432 C 0.06355 0.33157 0.05614 0.0
C3433 C 0.06362 0.34454 0.05317 0.0
C3434 C 0.07585 0.35768 0.05817 0.0
C3435 C 0.08786 0.35796 0.06608 0.0
C3436 C 0.08743 0.34499 0.06899 0.0
C3437 C 0.07558 0.33202 0.06428 0.0
C3438 C 0.07761 0.31961 0.0699 0.0
C3439 C 0.06626 0.30994 0.08443 0.0
C3440 C 0.07745 0.31102 0.05248 0.0
C3441 C 0.09239 0.32763 0.07864 0.0
C3442 C 0.09789 0.34226 0.07778 0.0
C3443 C 0.11124 0.35192 0.08523 0.0
C3444 C 0.11911 0.34649 0.09405 0.0
C3445 C 0.11358 0.33153 0.09551 0.0
C3446 C 0.10011 0.32201 0.08745 0.0
H3447 H 0.66898 0.71997 0.07312 0.0
H3448 H 0.66461 0.7297 0.01499 0.0
H3449 H 0.66899 0.75354 0.02477 0.0
H3450 H 0.6515 0.73732 0.09433 0.0
H3451 H 0.66339 0.74398 0.11432 0.0
H3452 H 0.6601 0.72775 0.10272 0.0
H3453 H 0.68737 0.73855 0.09752 0.0
H3454 H 0.69074 0.75482 0.10907 0.0
H3455 H 0.69741 0.75548 0.08554 0.0
H3456 H 0.67287 0.77582 0.0409 0.0
H3457 H 0.67694 0.79561 0.06232 0.0
H3458 H 0.67943 0.77175 0.10989 0.0
C3459 C 0.6689 0.72712 0.06248 0.0
C3460 C 0.66646 0.72302 0.0433 0.0
C3461 C 0.6666 0.7327 0.02973 0.0
C3462 C 0.66902 0.74622 0.03516 0.0
C3463 C 0.67138 0.74993 0.05417 0.0
C3464 C 0.67143 0.74071 0.06763 0.0
C3465 C 0.6743 0.74737 0.08712 0.0
C3466 C 0.66156 0.73858 0.1004 0.0
C3467 C 0.68829 0.74916 0.09529 0.0
C3468 C 0.67573 0.76173 0.08253 0.0
C3469 C 0.67395 0.76295 0.06345 0.0
C3470 C 0.67436 0.77503 0.05585 0.0
C3471 C 0.67661 0.78617 0.0681 0.0
C3472 C 0.67853 0.78517 0.08768 0.0
C3473 C 0.67817 0.77283 0.09493 0.0
H3474 H 0.27129 0.93072 0.03921 0.0
H3475 H 0.28407 0.96921 0.07218 0.0
H3476 H 0.26229 0.95628 0.09151 0.0
H3477 H 0.23285 0.91834 0.03949 0.0
H3478 H 0.22774 0.89973 0.04139 0.0
H3479 H 0.24416 0.91211 0.02962 0.0
H3480 H 0.25829 0.90471 0.05198 0.0
H3481 H 0.24194 0.89238 0.06388 0.0
H3482 H 0.25675 0.90602 0.07714 0.0
H3483 H 0.24002 0.93915 0.10831 0.0
H3484 H 0.21801 0.91886 0.12112 0.0
H3485 H 0.21868 0.89151 0.07655 0.0
C3486 C 0.26939 0.93646 0.05033 0.0
C3487 C 0.27947 0.95095 0.05429 0.0
C3488 C 0.27666 0.95805 0.0691 0.0
C3489 C 0.26427 0.95083 0.08009 0.0
C3490 C 0.25469 0.93652 0.07604 0.0
C3491 C 0.25701 0.92941 0.06147 0.0
C3492 C 0.24506 0.91392 0.06043 0.0
C3493 C 0.23697 0.91085 0.04161 0.0
C3494 C 0.25086 0.90366 0.06355 0.0
C3495 C 0.2358 0.91345 0.07684 0.0
C3496 C 0.24157 0.92663 0.08559 0.0
C3497 C 0.23526 0.92881 0.10142 0.0
C3498 C 0.22268 0.91722 0.10851 0.0
C3499 C 0.21643 0.90358 0.09974 0.0
C3500 C 0.22315 0.90175 0.08364 0.0
H3501 H 0.33599 0.05661 0.95057 0.0
H3502 H 0.34689 0.07494 0.00676 0.0
H3503 H 0.34232 0.09424 0.9969 0.0
H3504 H 0.35172 0.08989 0.92497 0.0
H3505 H 0.33772 0.08339 0.90751 0.0
H3506 H 0.34198 0.07113 0.91899 0.0
H3507 H 0.31553 0.05562 0.92954 0.0
H3508 H 0.31121 0.06789 0.91818 0.0
H3509 H 0.30722 0.06377 0.94285 0.0
H3510 H 0.33712 0.11179 0.98077 0.0
H3511 H 0.33102 0.12612 0.95961 0.0
H3512 H 0.32282 0.09601 0.91416 0.0
C3513 C 0.33753 0.06477 0.96073 0.0
C3514 C 0.34185 0.06435 0.97941 0.0
C3515 C 0.34352 0.07505 0.99241 0.0
C3516 C 0.34099 0.08606 0.98693 0.0
C3517 C 0.33668 0.08613 0.96844 0.0
C3518 C 0.3349 0.07575 0.95554 0.0
C3519 C 0.32997 0.07818 0.93662 0.0
C3520 C 0.34101 0.08081 0.92111 0.0
C3521 C 0.3151 0.06562 0.9315 0.0
C3522 C 0.32937 0.09162 0.94085 0.0
C3523 C 0.33333 0.09605 0.95927 0.0
C3524 C 0.33395 0.1084 0.96635 0.0
C3525 C 0.33052 0.11648 0.95424 0.0
C3526 C 0.32641 0.11212 0.93533 0.0
C3527 C 0.32574 0.09947 0.92864 0.0
H3528 H 0.93248 0.27038 0.97978 0.0
H3529 H 0.96558 0.29161 0.93743 0.0
H3530 H 0.95299 0.27056 0.91649 0.0
H3531 H 0.92586 0.23439 0.97175 0.0
H3532 H 0.90678 0.2261 0.97507 0.0
H3533 H 0.91866 0.24261 0.98704 0.0
H3534 H 0.90513 0.25445 0.97248 0.0
H3535 H 0.89322 0.23799 0.96047 0.0
H3536 H 0.90311 0.25434 0.94723 0.0
H3537 H 0.93701 0.24731 0.90032 0.0
H3538 H 0.91783 0.22375 0.88907 0.0
H3539 H 0.89454 0.21789 0.94133 0.0
C3540 C 0.93707 0.27051 0.96614 0.0
C3541 C 0.94995 0.28255 0.96013 0.0
C3542 C 0.95564 0.28248 0.94215 0.0
C3543 C 0.94862 0.27057 0.93023 0.0
C3544 C 0.93588 0.25888 0.93648 0.0
C3545 C 0.93008 0.25877 0.95394 0.0
C3546 C 0.91597 0.24504 0.9569 0.0
C3547 C 0.91688 0.23653 0.97369 0.0
C3548 C 0.90363 0.24815 0.95941 0.0
C3549 C 0.91475 0.23749 0.93838 0.0
C3550 C 0.92642 0.2456 0.9269 0.0
C3551 C 0.92781 0.24085 0.90916 0.0
C3552 C 0.91691 0.22745 0.90294 0.0
C3553 C 0.90475 0.21905 0.91434 0.0
C3554 C 0.90369 0.22416 0.93229 0.0
H3555 H 0.7287 0.67501 0.96442 0.0
H3556 H 0.71236 0.63062 0.98027 0.0
H3557 H 0.73342 0.63133 0.96556 0.0
H3558 H 0.74276 0.67352 0.92001 0.0
H3559 H 0.75846 0.69105 0.92169 0.0
H3560 H 0.74235 0.68726 0.93403 0.0
H3561 H 0.75637 0.6951 0.96553 0.0
H3562 H 0.77255 0.69895 0.95327 0.0
H3563 H 0.76644 0.68679 0.97299 0.0
H3564 H 0.75555 0.63643 0.94793 0.0
H3565 H 0.77777 0.64586 0.92919 0.0
H3566 H 0.78021 0.68714 0.92569 0.0
C3567 C 0.72965 0.6655 0.96511 0.0
C3568 C 0.71881 0.65273 0.97345 0.0
C3569 C 0.72039 0.64047 0.97371 0.0
C3570 C 0.73237 0.64079 0.96552 0.0
C3571 C 0.74275 0.65349 0.95726 0.0
C3572 C 0.74159 0.66566 0.9571 0.0
C3573 C 0.75415 0.67785 0.94697 0.0
C3574 C 0.74912 0.6827 0.92965 0.0
C3575 C 0.7629 0.69041 0.9605 0.0
C3576 C 0.76245 0.67056 0.94123 0.0
C3577 C 0.75568 0.65651 0.94733 0.0
C3578 C 0.761 0.64744 0.94318 0.0
C3579 C 0.77357 0.65286 0.93246 0.0
C3580 C 0.78069 0.66721 0.92604 0.0
C3581 C 0.77509 0.67618 0.93064 0.0
H3582 H 0.93336 0.66574 0.97839 0.0
H3583 H 0.95731 0.66282 0.931 0.0
H3584 H 0.94342 0.66894 0.90924 0.0
H3585 H 0.89959 0.65025 0.95524 0.0
H3586 H 0.89415 0.66186 0.96614 0.0
H3587 H 0.90634 0.6578 0.97821 0.0
H3588 H 0.92469 0.6849 0.9812 0.0
H3589 H 0.91256 0.68905 0.96911 0.0
H3590 H 0.93049 0.69587 0.9603 0.0
H3591 H 0.92666 0.67457 0.8925 0.0
H3592 H 0.90762 0.67914 0.88163 0.0
H3593 H 0.89444 0.67864 0.93964 0.0
C3594 C 0.93576 0.66654 0.96345 0.0
C3595 C 0.94634 0.66369 0.95637 0.0
C3596 C 0.94908 0.6647 0.93671 0.0
C3597 C 0.94134 0.66829 0.92425 0.0
C3598 C 0.93092 0.67091 0.93165 0.0
C3599 C 0.9281 0.6701 0.95076 0.0
C3600 C 0.916 0.67301 0.95488 0.0
C3601 C 0.90327 0.65995 0.96416 0.0
C3602 C 0.92126 0.68651 0.9671 0.0
C3603 C 0.91239 0.67542 0.93507 0.0
C3604 C 0.9212 0.67422 0.92191 0.0
C3605 C 0.91972 0.67558 0.90265 0.0
C3606 C 0.90884 0.67809 0.89662 0.0
C3607 C 0.89955 0.67919 0.90979 0.0
C3608 C 0.90149 0.67801 0.92928 0.0
H3609 H 0.34486 0.27559 0.9736 0.0
H3610 H 0.32963 0.29426 0.93196 0.0
H3611 H 0.32148 0.2729 0.91183 0.0
H3612 H 0.35772 0.25928 0.94076 0.0
H3613 H 0.35217 0.24346 0.95484 0.0
H3614 H 0.35676 0.2602 0.96607 0.0
H3615 H 0.33194 0.24825 0.98245 0.0
H3616 H 0.32728 0.23147 0.97127 0.0
H3617 H 0.31594 0.23915 0.96833 0.0
H3618 H 0.31484 0.24951 0.89631 0.0
H3619 H 0.31082 0.22592 0.88599 0.0
H3620 H 0.33013 0.22231 0.93781 0.0
C3621 C 0.33974 0.27515 0.9603 0.0
C3622 C 0.33794 0.28663 0.95431 0.0
C3623 C 0.33132 0.28569 0.93671 0.0
C3624 C 0.32656 0.27356 0.92523 0.0
C3625 C 0.3285 0.26245 0.93154 0.0
C3626 C 0.33496 0.26313 0.94863 0.0
C3627 C 0.33589 0.24976 0.95198 0.0
C3628 C 0.35157 0.2534 0.9535 0.0
C3629 C 0.32724 0.24168 0.96955 0.0
C3630 C 0.32897 0.24149 0.93409 0.0
C3631 C 0.32472 0.24897 0.92254 0.0
C3632 C 0.31808 0.24353 0.90525 0.0
C3633 C 0.31576 0.23009 0.89957 0.0
C3634 C 0.32012 0.22226 0.91111 0.0
C3635 C 0.32678 0.22808 0.92861 0.0
H3636 H 0.72545 0.05408 0.95521 0.0
H3637 H 0.72817 0.08002 0.00364 0.0
H3638 H 0.7509 0.09988 0.99132 0.0
H3639 H 0.76324 0.06611 0.95229 0.0
H3640 H 0.76341 0.06587 0.92687 0.0
H3641 H 0.74736 0.05372 0.93951 0.0
H3642 H 0.7332 0.06327 0.921 0.0
H3643 H 0.74921 0.07546 0.90832 0.0
H3644 H 0.73939 0.0822 0.92117 0.0
H3645 H 0.77324 0.11693 0.97365 0.0
H3646 H 0.79368 0.12995 0.95195 0.0
H3647 H 0.77643 0.09276 0.91522 0.0
C3648 C 0.73089 0.06387 0.96337 0.0
C3649 C 0.72502 0.06548 0.98042 0.0
C3650 C 0.73237 0.07858 0.99044 0.0
C3651 C 0.74533 0.0899 0.98362 0.0
C3652 C 0.75079 0.08793 0.96677 0.0
C3653 C 0.74382 0.07524 0.95679 0.0
C3654 C 0.75191 0.07591 0.93898 0.0
C3655 C 0.75677 0.06474 0.93945 0.0
C3656 C 0.74289 0.07411 0.92133 0.0
C3657 C 0.76453 0.09098 0.94049 0.0
C3658 C 0.76367 0.09773 0.95661 0.0
C3659 C 0.77401 0.11176 0.96097 0.0
C3660 C 0.78553 0.11909 0.9485 0.0
C3661 C 0.78662 0.11239 0.93186 0.0
C3662 C 0.77597 0.09813 0.92791 0.0
H3663 H 0.67867 0.95313 0.06508 0.0
H3664 H 0.65541 0.92748 0.01644 0.0
H3665 H 0.6591 0.90799 0.02766 0.0
H3666 H 0.7045 0.94095 0.06868 0.0
H3667 H 0.70416 0.94068 0.0941 0.0
H3668 H 0.70078 0.95317 0.0815 0.0
H3669 H 0.67652 0.94343 0.09889 0.0
H3670 H 0.67983 0.93095 0.11157 0.0
H3671 H 0.66366 0.92454 0.09798 0.0
H3672 H 0.66407 0.89083 0.04483 0.0
H3673 H 0.66963 0.87683 0.06718 0.0
H3674 H 0.68882 0.91313 0.10544 0.0
C3675 C 0.67433 0.94343 0.05675 0.0
C3676 C 0.6668 0.94193 0.03977 0.0
C3677 C 0.66145 0.92906 0.02927 0.0
C3678 C 0.66342 0.91788 0.03558 0.0
C3679 C 0.67075 0.91968 0.05244 0.0
C3680 C 0.67611 0.93212 0.0629 0.0
C3681 C 0.68297 0.93104 0.08101 0.0
C3682 C 0.69906 0.94212 0.08133 0.0
C3683 C 0.67528 0.93258 0.09838 0.0
C3684 C 0.68043 0.91595 0.07921 0.0
C3685 C 0.67346 0.90966 0.06254 0.0
C3686 C 0.66955 0.89564 0.0579 0.0
C3687 C 0.67267 0.88776 0.07075 0.0
C3688 C 0.67957 0.89386 0.0881 0.0
C3689 C 0.68367 0.90823 0.09222 0.0
H3690 H 0.04998 0.72437 0.07037 0.0
H3691 H 0.07498 0.72547 0.02165 0.0
H3692 H 0.09528 0.74822 0.03298 0.0
H3693 H 0.0635 0.76244 0.07345 0.0
H3694 H 0.06379 0.76272 0.09888 0.0
H3695 H 0.05095 0.74681 0.08654 0.0
H3696 H 0.06003 0.73197 0.1044 0.0
H3697 H 0.07287 0.74781 0.11681 0.0
H3698 H 0.07878 0.73747 0.10354 0.0
H3699 H 0.11305 0.77041 0.04992 0.0
H3700 H 0.12722 0.79064 0.07143 0.0
H3701 H 0.09102 0.77471 0.10977 0.0
C3702 C 0.05974 0.72934 0.0621 0.0
C3703 C 0.06084 0.72312 0.04504 0.0
C3704 C 0.07376 0.73012 0.03457 0.0
C3705 C 0.08539 0.74301 0.04095 0.0
C3706 C 0.08395 0.74877 0.05784 0.0
C3707 C 0.07147 0.74219 0.06828 0.0
C3708 C 0.07284 0.75048 0.08618 0.0
C3709 C 0.06214 0.75593 0.08626 0.0
C3710 C 0.07102 0.74139 0.10377 0.0
C3711 C 0.08809 0.76271 0.08422 0.0
C3712 C 0.09428 0.76153 0.06774 0.0
C3713 C 0.10834 0.77144 0.06289 0.0
C3714 C 0.11633 0.78283 0.07527 0.0
C3715 C 0.11027 0.78421 0.09235 0.0
C3716 C 0.09592 0.77402 0.09676 0.0
H3717 H 0.27846 0.34557 0.04972 0.0
H3718 H 0.28346 0.31072 0.07138 0.0
H3719 H 0.26045 0.30109 0.08811 0.0
H3720 H 0.26364 0.35096 0.09237 0.0
H3721 H 0.25153 0.35512 0.08022 0.0
H3722 H 0.26816 0.359 0.06927 0.0
H3723 H 0.25428 0.34394 0.04011 0.0
H3724 H 0.2376 0.33998 0.05098 0.0
H3725 H 0.24031 0.32559 0.04327 0.0
H3726 H 0.23707 0.29534 0.10286 0.0
H3727 H 0.2152 0.2943 0.11532 0.0
H3728 H 0.22563 0.33316 0.08476 0.0
C3729 C 0.27479 0.33597 0.05807 0.0
C3730 C 0.28277 0.32885 0.05904 0.0
C3731 C 0.27744 0.31622 0.07002 0.0
C3732 C 0.26441 0.3107 0.07971 0.0
C3733 C 0.25684 0.31797 0.07841 0.0
C3734 C 0.26184 0.33036 0.06795 0.0
C3735 C 0.25176 0.33626 0.06923 0.0
C3736 C 0.25922 0.35122 0.07832 0.0
C3737 C 0.24563 0.33645 0.04974 0.0
C3738 C 0.24032 0.32525 0.08208 0.0
C3739 C 0.24343 0.31476 0.08714 0.0
C3740 C 0.23449 0.30347 0.09895 0.0
C3741 C 0.22205 0.30292 0.10586 0.0
C3742 C 0.21868 0.31361 0.10096 0.0
C3743 C 0.22797 0.32489 0.08887 0.0
H3744 H 0.71829 0.65653 0.38855 0.0
H3745 H 0.74367 0.70255 0.38115 0.0
H3746 H 0.76473 0.70241 0.39445 0.0
H3747 H 0.73324 0.65562 0.43292 0.0
H3748 H 0.73287 0.639 0.42845 0.0
H3749 H 0.72003 0.64254 0.4172 0.0
H3750 H 0.72795 0.63826 0.38447 0.0
H3751 H 0.74084 0.63472 0.39563 0.0
H3752 H 0.74656 0.6484 0.37781 0.0
H3753 H 0.78278 0.69744 0.40897 0.0
H3754 H 0.79659 0.6882 0.42531 0.0
H3755 H 0.75934 0.64543 0.42468 0.0
C3756 C 0.72835 0.66653 0.38953 0.0
C3757 C 0.72942 0.67956 0.38379 0.0
C3758 C 0.74265 0.69248 0.38557 0.0
C3759 C 0.75467 0.69249 0.393 0.0
C3760 C 0.75325 0.67949 0.39867 0.0
C3761 C 0.74043 0.66675 0.39713 0.0
C3762 C 0.74164 0.6544 0.40521 0.0
C3763 C 0.73133 0.64749 0.42194 0.0
C3764 C 0.7391 0.64329 0.38986 0.0
C3765 C 0.75712 0.66223 0.41163 0.0
C3766 C 0.76362 0.67666 0.40755 0.0
C3767 C 0.7778 0.68616 0.41231 0.0
C3768 C 0.78552 0.68081 0.42171 0.0
C3769 C 0.77903 0.6661 0.42647 0.0
C3770 C 0.76466 0.65669 0.42111 0.0
H3771 H 0.31883 0.0537 0.39905 0.0
H3772 H 0.35372 0.0691 0.35873 0.0
H3773 H 0.36286 0.09385 0.37006 0.0
H3774 H 0.31287 0.08363 0.39463 0.0
H3775 H 0.30885 0.0838 0.41928 0.0
H3776 H 0.30509 0.06728 0.4081 0.0
H3777 H 0.32047 0.06373 0.43318 0.0
H3778 H 0.32426 0.08022 0.44444 0.0
H3779 H 0.33876 0.07766 0.43686 0.0
H3780 H 0.36868 0.11674 0.38649 0.0
H3781 H 0.3701 0.13647 0.40594 0.0
H3782 H 0.33098 0.10636 0.43479 0.0
C3783 C 0.32841 0.06229 0.39268 0.0
C3784 C 0.33558 0.05952 0.37802 0.0
C3785 C 0.34801 0.07104 0.36986 0.0
C3786 C 0.35331 0.0851 0.37625 0.0
C3787 C 0.34599 0.08748 0.39071 0.0
C3788 C 0.33376 0.07643 0.39874 0.0
C3789 C 0.32782 0.08194 0.4139 0.0
C3790 C 0.31277 0.07899 0.40865 0.0
C3791 C 0.32784 0.0755 0.43324 0.0
C3792 C 0.33868 0.09779 0.4132 0.0
C3793 C 0.34912 0.10075 0.39981 0.0
C3794 C 0.36052 0.11458 0.39694 0.0
C3795 C 0.36127 0.12569 0.40806 0.0
C3796 C 0.35061 0.12291 0.42173 0.0
C3797 C 0.33916 0.10879 0.42424 0.0
H3798 H 0.94317 0.26201 0.37614 0.0
H3799 H 0.95606 0.29901 0.41239 0.0
H3800 H 0.93417 0.28532 0.43121 0.0
H3801 H 0.90572 0.25126 0.37537 0.0
H3802 H 0.89965 0.23236 0.3753 0.0
H3803 H 0.91672 0.24482 0.36505 0.0
H3804 H 0.92916 0.23509 0.3868 0.0
H3805 H 0.91214 0.22263 0.39715 0.0
H3806 H 0.92672 0.23493 0.41198 0.0
H3807 H 0.91108 0.26786 0.44619 0.0
H3808 H 0.88766 0.24787 0.45586 0.0
H3809 H 0.88862 0.22254 0.40876 0.0
C3810 C 0.94139 0.26729 0.38796 0.0
C3811 C 0.95153 0.28159 0.39286 0.0
C3812 C 0.94872 0.28798 0.40857 0.0
C3813 C 0.93623 0.28033 0.4193 0.0
C3814 C 0.92653 0.2663 0.41409 0.0
C3815 C 0.92888 0.25984 0.39875 0.0
C3816 C 0.91648 0.24472 0.39596 0.0
C3817 C 0.90921 0.24321 0.37678 0.0
C3818 C 0.92142 0.23369 0.3981 0.0
C3819 C 0.90682 0.24374 0.41214 0.0
C3820 C 0.91289 0.2563 0.42244 0.0
C3821 C 0.90614 0.25801 0.43813 0.0
C3822 C 0.89276 0.2466 0.44341 0.0
C3823 C 0.88613 0.23365 0.43293 0.0
C3824 C 0.89337 0.23224 0.41713 0.0
H3825 H 0.02016 0.3973 0.27851 0.0
H3826 H 0.99504 0.39247 0.3288 0.0
H3827 H 0.98945 0.41041 0.31648 0.0
H3828 H 0.03556 0.43586 0.27478 0.0
H3829 H 0.03519 0.43564 0.24936 0.0
H3830 H 0.03709 0.42223 0.26201 0.0
H3831 H 0.01492 0.40229 0.24462 0.0
H3832 H 0.0129 0.41563 0.232 0.0
H3833 H 0.99819 0.40221 0.24565 0.0
H3834 H 0.98573 0.4281 0.29825 0.0
H3835 H 0.98559 0.44575 0.27618 0.0
H3836 H 0.01446 0.44043 0.23886 0.0
C3837 C 0.01366 0.40013 0.28711 0.0
C3838 C 0.00794 0.39329 0.30459 0.0
C3839 C 0.9993 0.39725 0.31519 0.0
C3840 C 0.99614 0.40753 0.30838 0.0
C3841 C 0.00183 0.41392 0.29105 0.0
C3842 C 0.01054 0.41051 0.28065 0.0
C3843 C 0.01541 0.4191 0.26254 0.0
C3844 C 0.03178 0.42879 0.26216 0.0
C3845 C 0.01003 0.40921 0.24518 0.0
C3846 C 0.008 0.42781 0.26435 0.0
C3847 C 1.00012 0.42455 0.28084 0.0
C3848 C 0.99194 0.43083 0.28536 0.0
C3849 C 0.99187 0.44076 0.27274 0.0
C3850 C 1.00004 0.44442 0.25593 0.0
C3851 C 0.00823 0.43789 0.25173 0.0
H3852 H 0.60808 0.60189 0.31013 0.0
H3853 H 0.59985 0.63301 0.28299 0.0
H3854 H 0.58053 0.61371 0.26421 0.0
H3855 H 0.6031 0.58083 0.26911 0.0
H3856 H 0.59461 0.56392 0.28132 0.0
H3857 H 0.60719 0.57999 0.29355 0.0
H3858 H 0.58812 0.57523 0.31911 0.0
H3859 H 0.5755 0.55909 0.30701 0.0
H3860 H 0.57095 0.57269 0.31213 0.0
H3861 H 0.5626 0.59131 0.2479 0.0
H3862 H 0.54744 0.56715 0.23451 0.0
H3863 H 0.56753 0.55049 0.27167 0.0
C3864 C 0.60205 0.60456 0.30042 0.0
C3865 C 0.60539 0.6189 0.298 0.0
C3866 C 0.59747 0.62208 0.28494 0.0
C3867 C 0.58646 0.61121 0.27428 0.0
C3868 C 0.58355 0.59721 0.27679 0.0
C3869 C 0.59111 0.59384 0.2895 0.0
C3870 C 0.58621 0.578 0.28885 0.0
C3871 C 0.59851 0.57555 0.28285 0.0
C3872 C 0.57981 0.57083 0.30791 0.0
C3873 C 0.57479 0.57303 0.27373 0.0
C3874 C 0.57336 0.58428 0.26708 0.0
C3875 C 0.56356 0.58239 0.25304 0.0
C3876 C 0.55496 0.56864 0.24559 0.0
C3877 C 0.55628 0.55695 0.25209 0.0
C3878 C 0.56636 0.55924 0.26634 0.0
H3879 H 0.39399 0.0055 0.30141 0.0
H3880 H 0.36252 0.96207 0.28547 0.0
H3881 H 0.38122 0.95971 0.2684 0.0
H3882 H 0.41322 0.01482 0.25734 0.0
H3883 H 0.43055 0.02556 0.26806 0.0
H3884 H 0.4148 0.02375 0.27947 0.0
H3885 H 0.42098 0.0146 0.30978 0.0
H3886 H 0.43676 0.01641 0.29848 0.0
H3887 H 0.42367 0.99944 0.30837 0.0
H3888 H 0.40321 0.96186 0.25363 0.0
H3889 H 0.4271 0.96876 0.24077 0.0
H3890 H 0.44429 0.01111 0.26521 0.0
C3891 C 0.3911 0.99548 0.29441 0.0
C3892 C 0.37685 0.98394 0.29473 0.0
C3893 C 0.37338 0.97105 0.28524 0.0
C3894 C 0.38392 0.9696 0.27559 0.0
C3895 C 0.39785 0.98118 0.27545 0.0
C3896 C 0.40147 0.99391 0.28449 0.0
C3897 C 0.41718 0.00482 0.28172 0.0
C3898 C 0.41904 0.01802 0.27101 0.0
C3899 C 0.42511 0.00906 0.30072 0.0
C3900 C 0.42183 0.9962 0.26979 0.0
C3901 C 0.41051 0.98256 0.26646 0.0
C3902 C 0.41216 0.97251 0.2561 0.0
C3903 C 0.42575 0.9765 0.24893 0.0
C3904 C 0.43748 0.99044 0.25204 0.0
C3905 C 0.43545 0.00042 0.26252 0.0
H3906 H 0.59754 0.97934 0.29328 0.0
H3907 H 0.63106 0.02348 0.30183 0.0
H3908 H 0.61542 0.03176 0.28843 0.0
H3909 H 0.58569 0.98523 0.24842 0.0
H3910 H 0.56708 0.97254 0.25289 0.0
H3911 H 0.58081 0.9701 0.26364 0.0
H3912 H 0.57009 0.96937 0.29664 0.0
H3913 H 0.55638 0.9719 0.286 0.0
H3914 H 0.56774 0.98406 0.30405 0.0
H3915 H 0.59615 0.03527 0.27409 0.0
H3916 H 0.57482 0.03374 0.25907 0.0
H3917 H 0.5544 0.98736 0.25846 0.0
C3918 C 0.60167 0.99075 0.2922 0.0
C3919 C 0.61553 0.00074 0.29876 0.0
C3920 C 0.6204 0.01559 0.29726 0.0
C3921 C 0.61163 0.02041 0.28956 0.0
C3922 C 0.59803 0.01027 0.28331 0.0
C3923 C 0.59309 0.99576 0.28445 0.0
C3924 C 0.57812 0.9871 0.27646 0.0
C3925 C 0.57792 0.97823 0.25933 0.0
C3926 C 0.56746 0.97755 0.2917 0.0
C3927 C 0.57542 0.99903 0.27065 0.0
C3928 C 0.58702 0.01231 0.27477 0.0
C3929 C 0.58703 0.02493 0.27071 0.0
C3930 C 0.57489 0.02395 0.26208 0.0
C3931 C 0.56292 0.01044 0.25754 0.0
C3932 C 0.56326 0.99785 0.26198 0.0
H3933 H 0.01072 0.61919 0.28069 0.0
H3934 H 0.03466 0.61996 0.33024 0.0
H3935 H 0.03528 0.59878 0.31834 0.0
H3936 H 0.98915 0.58133 0.27709 0.0
H3937 H 0.98944 0.58097 0.25167 0.0
H3938 H 0.99123 0.59647 0.26376 0.0
H3939 H 0.01509 0.61261 0.24619 0.0
H3940 H 0.01334 0.59716 0.23397 0.0
H3941 H 0.02929 0.60844 0.24738 0.0
H3942 H 0.03285 0.57724 0.30146 0.0
H3943 H 0.02741 0.5567 0.2808 0.0
H3944 H 0.00553 0.57026 0.24187 0.0
C3945 C 0.01626 0.61502 0.28892 0.0
C3946 C 0.02262 0.62122 0.30643 0.0
C3947 C 0.02955 0.61529 0.31691 0.0
C3948 C 0.03004 0.60331 0.31022 0.0
C3949 C 0.02357 0.59741 0.29299 0.0
C3950 C 0.01683 0.60306 0.28246 0.0
C3951 C 0.01046 0.59449 0.26458 0.0
C3952 C 0.9941 0.58793 0.26427 0.0
C3953 C 0.01747 0.60373 0.24699 0.0
C3954 C 0.01457 0.58307 0.2668 0.0
C3955 C 0.02218 0.58498 0.28324 0.0
C3956 C 0.02698 0.57568 0.28847 0.0
C3957 C 0.02391 0.56409 0.27659 0.0
C3958 C 0.01609 0.56188 0.25967 0.0
C3959 C 0.01142 0.57157 0.25477 0.0
H3960 H 0.39763 0.40459 0.31842 0.0
H3961 H 0.38551 0.36544 0.28733 0.0
H3962 H 0.40686 0.3784 0.26722 0.0
H3963 H 0.41034 0.42808 0.27872 0.0
H3964 H 0.42505 0.44255 0.29115 0.0
H3965 H 0.40913 0.43012 0.30379 0.0
H3966 H 0.42438 0.42442 0.32651 0.0
H3967 H 0.44036 0.43687 0.31397 0.0
H3968 H 0.43609 0.41857 0.31697 0.0
H3969 H 0.42869 0.39558 0.24954 0.0
H3970 H 0.45021 0.41596 0.23579 0.0
H3971 H 0.4487 0.44407 0.27855 0.0
C3972 C 0.3995 0.39875 0.30741 0.0
C3973 C 0.38996 0.38396 0.30457 0.0
C3974 C 0.39281 0.3767 0.29003 0.0
C3975 C 0.40485 0.38398 0.27843 0.0
C3976 C 0.41399 0.39853 0.28155 0.0
C3977 C 0.41153 0.40586 0.29571 0.0
C3978 C 0.423 0.42155 0.29583 0.0
C3979 C 0.41649 0.43114 0.29215 0.0
C3980 C 0.43146 0.42559 0.31442 0.0
C3981 C 0.43216 0.42189 0.27939 0.0
C3982 C 0.42676 0.40849 0.2714 0.0
C3983 C 0.43314 0.40612 0.2558 0.0
C3984 C 0.44543 0.41776 0.24817 0.0
C3985 C 0.45128 0.43162 0.25618 0.0
C3986 C 0.44449 0.43365 0.27202 0.0
H3987 H 0.3206 0.26383 0.38194 0.0
H3988 H 0.33753 0.2987 0.42251 0.0
H3989 H 0.34592 0.28568 0.44239 0.0
H3990 H 0.30851 0.23516 0.41563 0.0
H3991 H 0.31355 0.22458 0.40132 0.0
H3992 H 0.30871 0.23656 0.39028 0.0
H3993 H 0.333 0.24907 0.3726 0.0
H3994 H 0.33793 0.23713 0.3836 0.0
H3995 H 0.34941 0.25623 0.38586 0.0
H3996 H 0.35274 0.26916 0.45772 0.0
H3997 H 0.35703 0.24979 0.46792 0.0
H3998 H 0.33617 0.2258 0.4172 0.0
C3999 C 0.32611 0.26874 0.39498 0.0
C4000 C 0.32829 0.28224 0.40073 0.0
C4001 C 0.33547 0.28825 0.41797 0.0
C4002 C 0.34039 0.281 0.4293 0.0
C4003 C 0.33807 0.26774 0.42321 0.0
C4004 C 0.33109 0.26164 0.40649 0.0
C4005 C 0.32999 0.24724 0.40326 0.0
C4006 C 0.31425 0.23517 0.40259 0.0
C4007 C 0.33807 0.24743 0.38526 0.0
C4008 C 0.33743 0.24622 0.42079 0.0
C4009 C 0.34205 0.25819 0.43207 0.0
C4010 C 0.34921 0.25974 0.44899 0.0
C4011 C 0.35169 0.24873 0.4546 0.0
C4012 C 0.34699 0.23632 0.44333 0.0
C4013 C 0.33978 0.23511 0.42619 0.0
H4014 H 0.73521 0.05867 0.37558 0.0
H4015 H 0.70182 0.04161 0.4182 0.0
H4016 H 0.71494 0.06404 0.4364 0.0
H4017 H 0.76466 0.07684 0.40765 0.0
H4018 H 0.77477 0.09199 0.39239 0.0
H4019 H 0.7626 0.07472 0.38241 0.0
H4020 H 0.74947 0.08568 0.36451 0.0
H4021 H 0.7616 0.10299 0.37445 0.0
H4022 H 0.74255 0.09528 0.3775 0.0
H4023 H 0.7315 0.08812 0.44995 0.0
H4024 H 0.75107 0.11214 0.45878 0.0
H4025 H 0.77394 0.11373 0.40757 0.0
C4026 C 0.73064 0.05972 0.38868 0.0
C4027 C 0.71753 0.0484 0.39553 0.0
C4028 C 0.71195 0.05008 0.41284 0.0
C4029 C 0.71927 0.06281 0.4232 0.0
C4030 C 0.73218 0.07373 0.41611 0.0
C4031 C 0.73787 0.07233 0.39931 0.0
C4032 C 0.75213 0.08562 0.39513 0.0
C4033 C 0.76426 0.08207 0.39436 0.0
C4034 C 0.75138 0.09281 0.37681 0.0
C4035 C 0.75354 0.09467 0.41224 0.0
C4036 C 0.74185 0.08764 0.42407 0.0
C4037 C 0.74069 0.09377 0.44078 0.0
C4038 C 0.75181 0.10745 0.44561 0.0
C4039 C 0.76398 0.11484 0.43381 0.0
C4040 C 0.7648 0.10832 0.4169 0.0
H4041 H 0.94701 0.66677 0.40351 0.0
H4042 H 0.93288 0.6586 0.34518 0.0
H4043 H 0.90825 0.65113 0.35548 0.0
H4044 H 0.91515 0.63772 0.42437 0.0
H4045 H 0.91575 0.64803 0.44474 0.0
H4046 H 0.93209 0.65196 0.43286 0.0
H4047 H 0.93842 0.67833 0.4285 0.0
H4048 H 0.92212 0.67449 0.44039 0.0
H4049 H 0.92578 0.68211 0.41705 0.0
H4050 H 0.88526 0.64528 0.37213 0.0
H4051 H 0.86591 0.64215 0.39373 0.0
H4052 H 0.89531 0.6547 0.44097 0.0
C4053 C 0.93879 0.6635 0.39283 0.0
C4054 C 0.94194 0.66327 0.37349 0.0
C4055 C 0.93074 0.65867 0.36009 0.0
C4056 C 0.91672 0.65447 0.3658 0.0
C4057 C 0.91405 0.65493 0.38495 0.0
C4058 C 0.92478 0.65936 0.39826 0.0
C4059 C 0.91922 0.65931 0.4179 0.0
C4060 C 0.92063 0.64862 0.43072 0.0
C4061 C 0.92684 0.67446 0.42645 0.0
C4062 C 0.9037 0.65432 0.41355 0.0
C4063 C 0.90089 0.65174 0.39449 0.0
C4064 C 0.88733 0.6472 0.38709 0.0
C4065 C 0.87638 0.64538 0.39948 0.0
C4066 C 0.87908 0.64816 0.41904 0.0
C4067 C 0.89293 0.6526 0.42608 0.0
H4068 H 0.39731 0.01885 0.73652 0.0
H4069 H 0.39888 0.00359 0.68029 0.0
H4070 H 0.41881 1.00014 0.69018 0.0
H4071 H 0.43503 0.03728 0.74594 0.0
H4072 H 0.43291 0.03195 0.77035 0.0
H4073 H 0.41914 0.03383 0.75867 0.0
H4074 H 0.40037 0.00774 0.76764 0.0
H4075 H 0.41407 0.0058 0.77941 0.0
H4076 H 0.40348 0.99337 0.76113 0.0
H4077 H 0.43854 0.99828 0.70617 0.0
H4078 H 0.45616 0.99744 0.72739 0.0
H4079 H 0.44044 0.01217 0.77375 0.0
C4080 C 0.40173 0.01467 0.72628 0.0
C4081 C 0.39653 0.0116 0.70755 0.0
C4082 C 0.40282 0.00633 0.6946 0.0
C4083 C 0.4141 0.00422 0.70011 0.0
C4084 C 0.41891 0.00733 0.71866 0.0
C4085 C 0.41288 0.01236 0.73158 0.0
C4086 C 0.41977 0.01451 0.7508 0.0
C4087 C 0.42715 0.03033 0.75678 0.0
C4088 C 0.40877 0.00477 0.76561 0.0
C4089 C 0.43061 0.00988 0.74666 0.0
C4090 C 0.43 0.00587 0.72802 0.0
C4091 C 0.43905 0.0013 0.72084 0.0
C4092 C 0.44896 0.00076 0.73306 0.0
C4093 C 0.44967 0.00464 0.75233 0.0
C4094 C 0.44033 0.00928 0.7591 0.0
H4095 H 0.99501 0.38413 0.73755 0.0
H4096 H 0.96741 0.38099 0.69107 0.0
H4097 H 0.96698 0.40221 0.70309 0.0
H4098 H 0.97745 0.39434 0.77268 0.0
H4099 H 0.99385 0.40629 0.7848 0.0
H4100 H 0.9922 0.39098 0.77233 0.0
H4101 H 0.01491 0.40761 0.75287 0.0
H4102 H 0.0166 0.42297 0.76523 0.0
H4103 H 0.01564 0.42228 0.73983 0.0
H4104 H 0.96957 0.4238 0.72007 0.0
H4105 H 0.97487 0.44416 0.74099 0.0
H4106 H 0.99986 0.43257 0.7772 0.0
C4107 C 0.98875 0.38779 0.72996 0.0
C4108 C 0.98131 0.38089 0.71326 0.0
C4109 C 0.97343 0.38621 0.70368 0.0
C4110 C 0.97302 0.39821 0.71047 0.0
C4111 C 0.98048 0.40474 0.72694 0.0
C4112 C 0.98816 0.39969 0.7366 0.0
C4113 C 0.99514 0.40861 0.75405 0.0
C4114 C 0.98931 0.39951 0.77203 0.0
C4115 C 0.01155 0.41579 0.75292 0.0
C4116 C 0.99028 0.41951 0.7526 0.0
C4117 C 0.98182 0.41707 0.73687 0.0
C4118 C 0.97611 0.42577 0.73249 0.0
C4119 C 0.97911 0.43725 0.74454 0.0
C4120 C 0.98773 0.43995 0.7608 0.0
C4121 C 0.99336 0.4309 0.7648 0.0
H4122 H 0.61353 0.59665 0.72168 0.0
H4123 H 0.60025 0.62429 0.69503 0.0
H4124 H 0.57612 0.60974 0.70863 0.0
H4125 H 0.57993 0.5634 0.71603 0.0
H4126 H 0.58107 0.55647 0.73867 0.0
H4127 H 0.59718 0.56869 0.72619 0.0
H4128 H 0.60585 0.58561 0.7552 0.0
H4129 H 0.58978 0.57343 0.76776 0.0
H4130 H 0.59452 0.59188 0.76486 0.0
H4131 H 0.55374 0.59286 0.72608 0.0
H4132 H 0.53443 0.57439 0.74577 0.0
H4133 H 0.56229 0.55794 0.76154 0.0
C4134 C 0.60555 0.59964 0.7187 0.0
C4135 C 0.60878 0.61157 0.70715 0.0
C4136 C 0.59798 0.61505 0.70351 0.0
C4137 C 0.58426 0.60691 0.71128 0.0
C4138 C 0.58147 0.5953 0.72266 0.0
C4139 C 0.59178 0.59163 0.72633 0.0
C4140 C 0.58606 0.57878 0.73932 0.0
C4141 C 0.58606 0.56609 0.72946 0.0
C4142 C 0.59456 0.58266 0.75789 0.0
C4143 C 0.57095 0.57588 0.74248 0.0
C4144 C 0.56853 0.58554 0.73273 0.0
C4145 C 0.55549 0.58521 0.73374 0.0
C4146 C 0.54462 0.57475 0.74504 0.0
C4147 C 0.54685 0.56473 0.75518 0.0
C4148 C 0.5602 0.56533 0.75376 0.0
H4149 H 0.6619 0.71937 0.61874 0.0
H4150 H 0.68848 0.74544 0.66507 0.0
H4151 H 0.68708 0.76612 0.65286 0.0
H4152 H 0.67698 0.74641 0.58362 0.0
H4153 H 0.66028 0.74089 0.57168 0.0
H4154 H 0.66285 0.72795 0.58445 0.0
H4155 H 0.6401 0.72102 0.60428 0.0
H4156 H 0.63742 0.7339 0.59151 0.0
H4157 H 0.63862 0.73475 0.61688 0.0
H4158 H 0.68335 0.78406 0.63524 0.0
H4159 H 0.67726 0.79807 0.6136 0.0
H4160 H 0.65327 0.76039 0.57853 0.0
C4161 C 0.66724 0.72937 0.62648 0.0
C4162 C 0.6753 0.73081 0.64286 0.0
C4163 C 0.68236 0.74415 0.65239 0.0
C4164 C 0.68157 0.75592 0.64562 0.0
C4165 C 0.67368 0.75418 0.62932 0.0
C4166 C 0.6666 0.74124 0.61989 0.0
C4167 C 0.65916 0.74235 0.60241 0.0
C4168 C 0.66518 0.73922 0.58448 0.0
C4169 C 0.64286 0.73242 0.60387 0.0
C4170 C 0.66323 0.75795 0.60344 0.0
C4171 C 0.67158 0.76457 0.61909 0.0
C4172 C 0.67681 0.779 0.62294 0.0
C4173 C 0.67339 0.7869 0.61048 0.0
C4174 C 0.66484 0.78035 0.59432 0.0
C4175 C 0.6597 0.76567 0.59085 0.0
H4176 H 0.26591 0.9401 0.64668 0.0
H4177 H 0.29881 0.95945 0.60362 0.0
H4178 H 0.28555 0.93799 0.58367 0.0
H4179 H 0.25874 0.90361 0.64035 0.0
H4180 H 0.23975 0.8957 0.64418 0.0
H4181 H 0.25203 0.91243 0.65537 0.0
H4182 H 0.2386 0.92425 0.64047 0.0
H4183 H 0.2263 0.90757 0.62921 0.0
H4184 H 0.23617 0.92355 0.61525 0.0
H4185 H 0.26863 0.91479 0.56815 0.0
H4186 H 0.2488 0.8914 0.5577 0.0
H4187 H 0.2269 0.88684 0.61089 0.0
C4188 C 0.27037 0.93974 0.63313 0.0
C4189 C 0.28335 0.95147 0.62664 0.0
C4190 C 0.28878 0.95068 0.60874 0.0
C4191 C 0.28138 0.9385 0.59737 0.0
C4192 C 0.26857 0.92719 0.6041 0.0
C4193 C 0.26308 0.92767 0.62154 0.0
C4194 C 0.2489 0.91417 0.62517 0.0
C4195 C 0.24992 0.906 0.64228 0.0
C4196 C 0.23678 0.9176 0.62766 0.0
C4197 C 0.24723 0.90609 0.60697 0.0
C4198 C 0.25875 0.91377 0.59508 0.0
C4199 C 0.25959 0.90863 0.57738 0.0
C4200 C 0.24831 0.89529 0.57162 0.0
C4201 C 0.23633 0.88725 0.58351 0.0
C4202 C 0.23586 0.89276 0.60144 0.0
H4203 H 0.06231 0.34393 0.63325 0.0
H4204 H 0.04212 0.29803 0.6419 0.0
H4205 H 0.06279 0.29811 0.62694 0.0
H4206 H 0.07704 0.34471 0.58824 0.0
H4207 H 0.09348 0.36133 0.59211 0.0
H4208 H 0.07741 0.35787 0.6043 0.0
H4209 H 0.09043 0.36219 0.63637 0.0
H4210 H 0.10657 0.36571 0.62427 0.0
H4211 H 0.09903 0.35207 0.64221 0.0
H4212 H 0.08492 0.30284 0.60978 0.0
H4213 H 0.10753 0.31208 0.59199 0.0
H4214 H 0.11377 0.35499 0.59487 0.0
C4215 C 0.06235 0.33394 0.63227 0.0
C4216 C 0.05056 0.32096 0.63869 0.0
C4217 C 0.05093 0.30807 0.63686 0.0
C4218 C 0.06266 0.30801 0.62849 0.0
C4219 C 0.074 0.32094 0.62209 0.0
C4220 C 0.074 0.33368 0.62394 0.0
C4221 C 0.08739 0.34601 0.61536 0.0
C4222 C 0.0836 0.35288 0.59903 0.0
C4223 C 0.09639 0.35715 0.63046 0.0
C4224 C 0.09483 0.33815 0.60824 0.0
C4225 C 0.0869 0.32371 0.61231 0.0
C4226 C 0.09127 0.31414 0.60661 0.0
C4227 C 0.10407 0.31947 0.59643 0.0
C4228 C 0.11237 0.33423 0.59207 0.0
C4229 C 0.10772 0.34369 0.59821 0.0
H4230 H 0.28226 0.34331 0.62741 0.0
H4231 H 0.25771 0.29694 0.6314 0.0
H4232 H 0.23692 0.297 0.61718 0.0
H4233 H 0.25277 0.34944 0.63852 0.0
H4234 H 0.25862 0.36408 0.62213 0.0
H4235 H 0.27154 0.36048 0.63309 0.0
H4236 H 0.28087 0.35855 0.60014 0.0
H4237 H 0.26799 0.36213 0.58909 0.0
H4238 H 0.26848 0.34615 0.58306 0.0
H4239 H 0.2191 0.30189 0.60176 0.0
H4240 H 0.20521 0.31137 0.58604 0.0
H4241 H 0.24102 0.35461 0.59232 0.0
C4242 C 0.27245 0.33319 0.6255 0.0
C4243 C 0.27164 0.32011 0.63044 0.0
C4244 C 0.25867 0.30707 0.62747 0.0
C4245 C 0.24677 0.307 0.61953 0.0
C4246 C 0.24796 0.32005 0.61469 0.0
C4247 C 0.26044 0.33291 0.61758 0.0
C4248 C 0.25895 0.34539 0.6107 0.0
C4249 C 0.26057 0.35544 0.62709 0.0
C4250 C 0.26971 0.35353 0.5948 0.0
C4251 C 0.24372 0.3375 0.60335 0.0
C4252 C 0.23759 0.32289 0.60585 0.0
C4253 C 0.22376 0.31331 0.59977 0.0
C4254 C 0.21599 0.31878 0.59077 0.0
C4255 C 0.22205 0.33371 0.58793 0.0
C4256 C 0.23606 0.34317 0.59449 0.0
H4257 H 0.6832 0.95331 0.61451 0.0
H4258 H 0.65558 0.93571 0.66351 0.0
H4259 H 0.64701 0.91132 0.65146 0.0
H4260 H 0.65943 0.92783 0.58096 0.0
H4261 H 0.67329 0.92683 0.56803 0.0
H4262 H 0.67735 0.94301 0.58044 0.0
H4263 H 0.69749 0.94193 0.59886 0.0
H4264 H 0.69354 0.92578 0.58645 0.0
H4265 H 0.69336 0.92597 0.61187 0.0
H4266 H 0.64077 0.88889 0.63371 0.0
H4267 H 0.63831 0.86976 0.61216 0.0
H4268 H 0.67078 0.90169 0.57546 0.0
C4269 C 0.67549 0.94434 0.62286 0.0
C4270 C 0.66999 0.9465 0.63992 0.0
C4271 C 0.65976 0.93441 0.65023 0.0
C4272 C 0.65488 0.92048 0.64357 0.0
C4273 C 0.6604 0.91877 0.62663 0.0
C4274 C 0.67057 0.93034 0.61648 0.0
C4275 C 0.67476 0.9255 0.5987 0.0
C4276 C 0.67098 0.93113 0.58099 0.0
C4277 C 0.69074 0.93007 0.599 0.0
C4278 C 0.66536 0.90941 0.60046 0.0
C4279 C 0.65708 0.90577 0.61662 0.0
C4280 C 0.64724 0.89159 0.62107 0.0
C4281 C 0.64587 0.88082 0.60872 0.0
C4282 C 0.65437 0.88428 0.59221 0.0
C4283 C 0.66426 0.89876 0.58809 0.0
H4284 H 0.06457 0.73595 0.6548 0.0
H4285 H 0.05194 0.69904 0.61856 0.0
H4286 H 0.07345 0.71306 0.5991 0.0
H4287 H 0.07802 0.76219 0.61804 0.0
H4288 H 0.0928 0.77554 0.63165 0.0
H4289 H 0.07668 0.7625 0.64337 0.0
H4290 H 0.09143 0.75481 0.66404 0.0
H4291 H 0.10761 0.76786 0.65242 0.0
H4292 H 0.10291 0.74932 0.65285 0.0
H4293 H 0.09546 0.73108 0.58271 0.0
H4294 H 0.11732 0.752 0.57072 0.0
H4295 H 0.11636 0.77744 0.61768 0.0
C4296 C 0.06636 0.73083 0.64279 0.0
C4297 C 0.05663 0.71634 0.63833 0.0
C4298 C 0.05938 0.71002 0.62251 0.0
C4299 C 0.07151 0.71792 0.61128 0.0
C4300 C 0.08085 0.73215 0.61602 0.0
C4301 C 0.0785 0.73857 0.63141 0.0
C4302 C 0.09022 0.75411 0.63318 0.0
C4303 C 0.08406 0.76418 0.63145 0.0
C4304 C 0.09854 0.75667 0.65172 0.0
C4305 C 0.09941 0.75542 0.61625 0.0
C4306 C 0.09377 0.7426 0.60659 0.0
C4307 C 0.1001 0.74114 0.59028 0.0
C4308 C 0.11259 0.75309 0.58366 0.0
C4309 C 0.11873 0.76635 0.59339 0.0
C4310 C 0.11196 0.76748 0.60989 0.0
H4311 H 0.97269 0.59583 0.73627 0.0
H4312 H 0.0077 0.61077 0.69613 0.0
H4313 H 0.01475 0.59423 0.70976 0.0
H4314 H 0.99142 0.59221 0.77562 0.0
H4315 H 0.97616 0.57618 0.78454 0.0
H4316 H 0.97356 0.58894 0.77137 0.0
H4317 H 0.9571 0.56899 0.74793 0.0
H4318 H 0.95964 0.55616 0.76106 0.0
H4319 H 0.96369 0.5586 0.7362 0.0
H4320 H 0.01861 0.57687 0.72825 0.0
H4321 H 0.01849 0.55893 0.74986 0.0
H4322 H 0.98092 0.55489 0.77805 0.0
C4323 C 0.98183 0.5956 0.73036 0.0
C4324 C 0.9896 0.60453 0.71505 0.0
C4325 C 0.00145 0.60387 0.70764 0.0
C4326 C 0.0056 0.59457 0.71536 0.0
C4327 C 0.99775 0.58595 0.73045 0.0
C4328 C 0.98607 0.58629 0.73783 0.0
C4329 C 0.97952 0.57587 0.75411 0.0
C4330 C 0.98022 0.58378 0.7725 0.0
C4331 C 0.96407 0.56421 0.74954 0.0
C4332 C 0.98944 0.56974 0.7548 0.0
C4333 C 0.99989 0.57575 0.74104 0.0
C4334 C 0.01046 0.57206 0.73906 0.0
C4335 C 0.01036 0.56193 0.75147 0.0
C4336 C 0.99973 0.55557 0.76565 0.0
C4337 C 0.9891 0.5595 0.76724 0.0
H4338 H 0.4011 0.39651 0.70962 0.0
H4339 H 0.36626 0.3799 0.75015 0.0
H4340 H 0.37975 0.40155 0.76968 0.0
H4341 H 0.42933 0.41178 0.74322 0.0
H4342 H 0.44082 0.42735 0.72928 0.0
H4343 H 0.42816 0.4109 0.71784 0.0
H4344 H 0.41715 0.42414 0.70032 0.0
H4345 H 0.42982 0.44065 0.71166 0.0
H4346 H 0.4109 0.43415 0.7137 0.0
H4347 H 0.39717 0.42436 0.78539 0.0
H4348 H 0.41764 0.44703 0.79654 0.0
H4349 H 0.4413 0.44927 0.74581 0.0
C4350 C 0.39627 0.39755 0.72248 0.0
C4351 C 0.38266 0.38651 0.72842 0.0
C4352 C 0.37674 0.38815 0.74546 0.0
C4353 C 0.38428 0.40044 0.75659 0.0
C4354 C 0.39774 0.41102 0.75049 0.0
C4355 C 0.4037 0.40975 0.73385 0.0
C4356 C 0.41857 0.42252 0.73095 0.0
C4357 C 0.42989 0.41785 0.73029 0.0
C4358 C 0.41914 0.43086 0.7131 0.0
C4359 C 0.42005 0.43107 0.74864 0.0
C4360 C 0.40786 0.42426 0.75964 0.0
C4361 C 0.40673 0.42988 0.77683 0.0
C4362 C 0.41839 0.44281 0.78299 0.0
C4363 C 0.43105 0.45002 0.77201 0.0
C4364 C 0.43181 0.44401 0.75458 0.0
H4365 H 0.62298 0.02576 0.72632 0.0
H4366 H 0.60875 0.98104 0.71479 0.0
H4367 H 0.58591 0.97398 0.7308 0.0
H4368 H 0.60709 0.02094 0.77176 0.0
H4369 H 0.60176 0.03417 0.76854 0.0
H4370 H 0.61713 0.0359 0.75616 0.0
H4371 H 0.606 0.03692 0.72426 0.0
H4372 H 0.59066 0.03533 0.73656 0.0
H4373 H 0.58828 0.02278 0.71816 0.0
H4374 H 0.56506 0.9716 0.74902 0.0
H4375 H 0.54671 0.97408 0.76649 0.0
H4376 H 0.57353 0.0204 0.76431 0.0
C4377 C 0.61501 0.01449 0.72693 0.0
C4378 C 0.61781 0.00396 0.71946 0.0
C4379 C 0.60707 0.98932 0.72077 0.0
C4380 C 0.594 0.98519 0.72973 0.0
C4381 C 0.5917 0.99581 0.73717 0.0
C4382 C 0.60181 0.01016 0.73569 0.0
C4383 C 0.59652 0.0194 0.74475 0.0
C4384 C 0.6062 0.02811 0.76128 0.0
C4385 C 0.59529 0.02918 0.73005 0.0
C4386 C 0.5819 0.00796 0.75164 0.0
C4387 C 0.57939 0.99444 0.74718 0.0
C4388 C 0.5668 0.98214 0.75238 0.0
C4389 C 0.5564 0.98368 0.76221 0.0
C4390 C 0.55852 0.99744 0.76662 0.0
C4391 C 0.57155 0.00972 0.76131 0.0
loop_
_geom_bond_atom_site_label_1
_geom_bond_atom_site_label_2
_geom_bond_distance
_geom_bond_site_symmetry_2
_ccdc_geom_bond_type
Li0 N17 1.982 1_554 S
Li0 O60 1.956 . S
Li0 O61 1.970 1_654 S
Li0 O62 1.961 . S
Li1 N25 1.990 . S
Li1 O60 1.970 1_455 S
Li1 O61 1.956 1_554 S
Li1 O63 1.961 . S
Li2 N47 1.990 . S
Li2 O60 1.961 . S
Li2 O62 1.956 . S
Li2 O63 1.970 1_655 S
Li3 N53 1.990 . S
Li3 O61 1.961 . S
Li3 O62 1.970 1_456 S
Li3 O63 1.956 1_556 S
C4 C6 1.322 1_655 S
C4 C7 1.356 . S
C4 O60 1.325 . S
N5 C8 1.314 . S
N5 C9 1.279 . S
C6 C4 1.322 1_455 S
C6 C8 1.353 1_455 S
C6 H64 0.955 . S
C7 C4 1.356 . S
C7 C9 1.358 . S
C7 H65 0.930 . S
C8 N5 1.314 . S
C8 C6 1.353 1_655 S
C8 H66 0.930 1_655 S
C9 N5 1.279 . S
C9 C7 1.358 . S
C9 H67 0.930 . S
C10 C13 1.348 . S
C10 C14 1.356 . S
C10 O61 1.325 . S
C11 N12 1.279 . S
C11 C14 1.358 . S
C11 H68 0.930 . S
N12 C11 1.279 . S
N12 C15 1.314 . S
C13 C10 1.348 . S
C13 C15 1.353 . S
C13 H69 0.929 1_455 S
C14 C10 1.356 . S
C14 C11 1.358 . S
C14 H70 0.930 . S
C15 N12 1.314 . S
C15 C13 1.353 . S
C15 H71 0.930 . S
C16 N17 1.350 . S
C16 C21 1.353 . S
C16 H22 0.930 . S
N17 Li0 1.982 1_556 S
N17 C16 1.350 . S
N17 C19 1.258 1_556 S
C18 C19 1.358 . S
C18 C20 1.356 1_554 S
C18 H72 0.930 . S
C19 N17 1.258 1_554 S
C19 C18 1.358 . S
C19 H23 0.930 . S
C20 C18 1.356 1_556 S
C20 C21 1.348 . S
C21 C16 1.353 . S
C21 C20 1.348 . S
C21 H73 0.929 . S
H22 C16 0.930 . S
H23 C19 0.930 . S
C24 N25 1.314 . S
C24 C26 1.353 . S
C24 H30 0.930 . S
N25 Li1 1.990 . S
N25 C24 1.314 . S
N25 C28 1.279 . S
C26 C24 1.353 . S
C26 C29 1.348 . S
C26 H74 0.929 . S
C27 C28 1.358 . S
C27 C29 1.356 . S
C27 H75 0.930 . S
C28 N25 1.279 . S
C28 C27 1.358 . S
C28 H31 0.949 . S
C29 C26 1.348 . S
C29 C27 1.356 . S
H30 C24 0.930 . S
H31 C28 0.949 . S
C32 C34 1.348 . S
C32 C35 1.356 1_556 S
C32 O62 1.325 1_556 S
N33 C36 1.314 . S
N33 C37 1.279 1_556 S
C34 C32 1.348 . S
C34 C36 1.353 . S
C34 H76 0.929 . S
C35 C32 1.356 1_554 S
C35 C37 1.358 . S
C35 H77 0.930 . S
C36 N33 1.314 . S
C36 C34 1.353 . S
C36 H78 0.930 . S
C37 N33 1.279 1_554 S
C37 C35 1.358 . S
C37 H79 0.930 . S
C38 C39 1.348 . S
C38 C40 1.356 . S
C38 O63 1.325 . S
C39 C38 1.348 . S
C39 C41 1.353 . S
C39 H80 0.929 . S
C40 C38 1.356 . S
C40 C42 1.358 . S
C40 H81 0.930 . S
C41 C39 1.353 . S
C41 N43 1.314 . S
C41 H82 0.930 . S
C42 C40 1.358 . S
C42 N43 1.279 . S
C42 H83 0.930 . S
N43 C41 1.314 . S
N43 C42 1.279 . S
C44 C46 1.353 . S
C44 N47 1.314 . S
C44 H50 0.888 1_655 S
C45 N47 1.279 . S
C45 C48 1.358 . S
C45 H51 0.930 . S
C46 C44 1.353 . S
C46 C49 1.348 . S
C46 H84 0.929 . S
N47 Li2 1.990 . S
N47 C44 1.314 . S
N47 C45 1.279 . S
C48 C45 1.358 . S
C48 C49 1.356 . S
C48 H85 0.930 . S
C49 C46 1.348 . S
C49 C48 1.356 . S
H50 C44 0.888 1_455 S
H51 C45 0.930 . S
C52 N53 1.314 . S
C52 C54 1.353 . S
C52 H58 0.930 . S
N53 Li3 1.990 . S
N53 C52 1.314 . S
N53 C56 1.279 . S
C54 C52 1.353 . S
C54 C57 1.348 . S
C54 H86 0.929 . S
C55 C56 1.358 . S
C55 C57 1.356 . S
C55 H87 0.930 . S
C56 N53 1.279 . S
C56 C55 1.358 . S
C56 H59 0.930 . S
C57 C54 1.348 . S
C57 C55 1.356 . S
H58 C52 0.930 . S
H59 C56 0.930 . S
O60 Li0 1.956 . S
O60 Li1 1.970 1_655 S
O60 Li2 1.961 . S
O60 C4 1.325 . S
O61 Li0 1.970 1_456 S
O61 Li1 1.956 1_556 S
O61 Li3 1.961 . S
O61 C10 1.325 . S
O62 Li0 1.961 . S
O62 Li2 1.956 . S
O62 Li3 1.970 1_654 S
O62 C32 1.325 1_554 S
O63 Li1 1.961 . S
O63 Li2 1.970 1_455 S
O63 Li3 1.956 1_554 S
O63 C38 1.325 . S
H64 C6 0.955 . S
H65 C7 0.930 . S
H66 C8 0.930 1_455 S
H67 C9 0.930 . S
H68 C11 0.930 . S
H69 C13 0.929 1_655 S
H70 C14 0.930 . S
H71 C15 0.930 . S
H72 C18 0.930 . S
H73 C21 0.929 . S
H74 C26 0.929 . S
H75 C27 0.930 . S
H76 C34 0.929 . S
H77 C35 0.930 . S
H78 C36 0.930 . S
H79 C37 0.930 . S
H80 C39 0.929 . S
H81 C40 0.930 . S
H82 C41 0.930 . S
H83 C42 0.930 . S
H84 C46 0.929 . S
H85 C48 0.930 . S
H86 C54 0.929 . S
H87 C55 0.930 . S
Li88 N105 1.990 1_554 S
Li88 O148 1.956 . S
Li88 O149 1.970 1_554 S
Li88 O150 1.964 . S
Li89 N113 1.990 . S
Li89 O148 1.970 . S
Li89 O149 1.956 1_554 S
Li89 O151 1.961 . S
Li90 N135 1.990 . S
Li90 O148 1.961 . S
Li90 O150 1.991 . S
Li90 O151 1.970 . S
Li91 N141 1.990 . S
Li91 O149 1.961 . S
Li91 O150 1.960 1_556 S
Li91 O151 1.956 1_556 S
C92 C94 1.348 . S
C92 C95 1.356 . S
C92 O148 1.325 . S
N93 C96 1.314 . S
N93 C97 1.279 . S
C94 C92 1.348 . S
C94 C96 1.353 . S
C94 H152 0.929 . S
C95 C92 1.356 . S
C95 C97 1.358 . S
C95 H153 0.930 . S
C96 N93 1.314 . S
C96 C94 1.353 . S
C96 H154 0.930 . S
C97 N93 1.279 . S
C97 C95 1.358 . S
C97 H155 0.930 . S
C98 C101 1.348 . S
C98 C102 1.356 . S
C98 O149 1.325 . S
C99 N100 1.279 . S
C99 C102 1.358 . S
C99 H156 0.930 . S
N100 C99 1.279 . S
N100 C103 1.314 . S
C101 C98 1.348 . S
C101 C103 1.353 . S
C101 H157 0.929 . S
C102 C98 1.356 . S
C102 C99 1.358 . S
C102 H158 0.930 . S
C103 N100 1.314 . S
C103 C101 1.353 . S
C103 H159 0.930 . S
C104 N105 1.314 . S
C104 C109 1.353 . S
C104 H110 0.930 . S
N105 Li88 1.990 1_556 S
N105 C104 1.314 . S
N105 C107 1.279 1_556 S
C106 C107 1.358 1_556 S
C106 C108 1.356 . S
C106 H160 0.930 1_556 S
C107 N105 1.279 1_554 S
C107 C106 1.358 1_554 S
C107 H111 0.930 . S
C108 C106 1.356 . S
C108 C109 1.348 . S
C109 C104 1.353 . S
C109 C108 1.348 . S
C109 H161 0.929 . S
H110 C104 0.930 . S
H111 C107 0.930 . S
C112 N113 1.314 . S
C112 C114 1.353 . S
C112 H118 0.930 . S
N113 Li89 1.990 . S
N113 C112 1.314 . S
N113 C116 1.279 . S
C114 C112 1.353 . S
C114 C117 1.348 . S
C114 H162 0.929 . S
C115 C116 1.358 . S
C115 C117 1.356 . S
C115 H163 0.930 . S
C116 N113 1.279 . S
C116 C115 1.358 . S
C116 H119 0.930 . S
C117 C114 1.348 . S
C117 C115 1.356 . S
H118 C112 0.930 . S
H119 C116 0.930 . S
C120 C122 1.348 . S
C120 C123 1.344 1_556 S
C120 O150 1.315 1_556 S
N121 C124 1.314 . S
N121 C125 1.279 . S
C122 C120 1.348 . S
C122 C124 1.353 . S
C122 H164 0.929 . S
C123 C120 1.344 1_554 S
C123 C125 1.345 1_554 S
C123 H165 0.958 . S
C124 N121 1.314 . S
C124 C122 1.353 . S
C124 H166 0.930 . S
C125 N121 1.279 . S
C125 C123 1.345 1_556 S
C125 H167 0.930 . S
C126 C127 1.348 . S
C126 C128 1.356 . S
C126 O151 1.325 . S
C127 C126 1.348 . S
C127 C129 1.353 . S
C127 H168 0.929 . S
C128 C126 1.356 . S
C128 C130 1.358 . S
C128 H169 0.930 . S
C129 C127 1.353 . S
C129 N131 1.314 . S
C129 H170 0.930 . S
C130 C128 1.358 . S
C130 N131 1.279 . S
C130 H171 0.930 . S
N131 C129 1.314 . S
N131 C130 1.279 . S
C132 C134 1.353 . S
C132 N135 1.314 . S
C132 H138 0.930 . S
C133 N135 1.279 . S
C133 C136 1.358 . S
C133 H139 0.930 . S
C134 C132 1.353 . S
C134 C137 1.348 . S
C134 H172 0.929 . S
N135 Li90 1.990 . S
N135 C132 1.314 . S
N135 C133 1.279 . S
C136 C133 1.358 . S
C136 C137 1.356 . S
C136 H173 0.930 . S
C137 C134 1.348 . S
C137 C136 1.356 . S
H138 C132 0.930 . S
H139 C133 0.930 . S
C140 N141 1.314 . S
C140 C142 1.353 . S
C140 H146 0.930 . S
N141 Li91 1.990 . S
N141 C140 1.314 . S
N141 C144 1.279 . S
C142 C140 1.353 . S
C142 C145 1.348 . S
C142 H174 0.929 . S
C143 C144 1.358 . S
C143 C145 1.356 . S
C143 H175 0.930 . S
C144 N141 1.279 . S
C144 C143 1.358 . S
C144 H147 0.930 . S
C145 C142 1.348 . S
C145 C143 1.356 . S
H146 C140 0.930 . S
H147 C144 0.930 . S
O148 Li88 1.956 . S
O148 Li89 1.970 . S
O148 Li90 1.961 . S
O148 C92 1.325 . S
O149 Li88 1.970 1_556 S
O149 Li89 1.956 1_556 S
O149 Li91 1.961 . S
O149 C98 1.325 . S
O150 Li88 1.964 . S
O150 Li90 1.991 . S
O150 Li91 1.960 1_554 S
O150 C120 1.315 1_554 S
O151 Li89 1.961 . S
O151 Li90 1.970 . S
O151 Li91 1.956 1_554 S
O151 C126 1.325 . S
H152 C94 0.929 . S
H153 C95 0.930 . S
H154 C96 0.930 . S
H155 C97 0.930 . S
H156 C99 0.930 . S
H157 C101 0.929 . S
H158 C102 0.930 . S
H159 C103 0.930 . S
H160 C106 0.930 1_554 S
H161 C109 0.929 . S
H162 C114 0.929 . S
H163 C115 0.930 . S
H164 C122 0.929 . S
H165 C123 0.958 . S
H166 C124 0.930 . S
H167 C125 0.930 . S
H168 C127 0.929 . S
H169 C128 0.930 . S
H170 C129 0.930 . S
H171 C130 0.930 . S
H172 C134 0.929 . S
H173 C136 0.930 . S
H174 C142 0.929 . S
H175 C143 0.930 . S
Li176 N193 1.990 . S
Li176 O236 1.956 1_556 S
Li176 O237 1.970 1_566 S
Li176 O238 1.961 . S
Li177 N201 1.990 . S
Li177 O236 1.970 1_545 S
Li177 O237 1.956 . S
Li177 O239 1.961 . S
Li178 N223 1.990 . S
Li178 O236 1.961 . S
Li178 O238 1.956 1_554 S
Li178 O239 1.970 1_565 S
Li179 N229 1.990 1_554 S
Li179 O237 1.961 . S
Li179 O238 1.970 1_544 S
Li179 O239 1.956 . S
C180 C182 1.348 . S
C180 C183 1.356 . S
C180 O236 1.325 . S
N181 C184 1.314 . S
N181 C185 1.279 . S
C182 C180 1.348 . S
C182 C184 1.353 . S
C182 H240 0.929 . S
C183 C180 1.356 . S
C183 C185 1.358 . S
C183 H241 0.930 . S
C184 N181 1.314 . S
C184 C182 1.353 . S
C184 H242 0.930 . S
C185 N181 1.279 . S
C185 C183 1.358 . S
C185 H243 0.930 . S
C186 C189 1.348 . S
C186 C190 1.356 1_556 S
C186 O237 1.325 1_556 S
C187 N188 1.279 1_554 S
C187 C190 1.358 . S
C187 H244 0.930 . S
N188 C187 1.279 1_556 S
N188 C191 1.314 . S
C189 C186 1.348 . S
C189 C191 1.353 . S
C189 H245 0.929 . S
C190 C186 1.356 1_554 S
C190 C187 1.358 . S
C190 H246 0.930 . S
C191 N188 1.314 . S
C191 C189 1.353 . S
C191 H247 0.930 . S
C192 N193 1.314 . S
C192 C197 1.353 . S
C192 H198 0.888 1_565 S
N193 Li176 1.990 . S
N193 C192 1.314 . S
N193 C195 1.279 . S
C194 C195 1.358 . S
C194 C196 1.356 . S
C194 H248 0.930 . S
C195 N193 1.279 . S
C195 C194 1.358 . S
C195 H199 0.930 . S
C196 C194 1.356 . S
C196 C197 1.348 . S
C197 C192 1.353 . S
C197 C196 1.348 . S
C197 H249 0.929 . S
H198 C192 0.888 1_545 S
H199 C195 0.930 . S
C200 N201 1.314 . S
C200 C202 1.353 . S
C200 H206 0.930 . S
N201 Li177 1.990 . S
N201 C200 1.314 . S
N201 C204 1.279 . S
C202 C200 1.353 . S
C202 C205 1.348 . S
C202 H250 0.929 . S
C203 C204 1.358 . S
C203 C205 1.356 . S
C203 H251 0.930 . S
C204 N201 1.279 . S
C204 C203 1.358 . S
C204 H207 0.930 . S
C205 C202 1.348 . S
C205 C203 1.356 . S
H206 C200 0.930 . S
H207 C204 0.930 . S
C208 C210 1.322 1_565 S
C208 C211 1.356 . S
C208 O238 1.325 . S
N209 C212 1.314 . S
N209 C213 1.279 . S
C210 C208 1.322 1_545 S
C210 C212 1.353 1_545 S
C210 H252 0.955 . S
C211 C208 1.356 . S
C211 C213 1.358 . S
C211 H253 0.930 . S
C212 N209 1.314 . S
C212 C210 1.353 1_565 S
C212 H254 0.930 1_565 S
C213 N209 1.279 . S
C213 C211 1.358 . S
C213 H255 0.930 . S
C214 C215 1.348 . S
C214 C216 1.356 . S
C214 O239 1.325 . S
C215 C214 1.348 . S
C215 C217 1.353 . S
C215 H256 0.929 1_545 S
C216 C214 1.356 . S
C216 C218 1.358 . S
C216 H257 0.930 . S
C217 C215 1.353 . S
C217 N219 1.314 . S
C217 H258 0.930 . S
C218 C216 1.358 . S
C218 N219 1.279 . S
C218 H259 0.930 . S
N219 C217 1.314 . S
N219 C218 1.279 . S
C220 C222 1.353 . S
C220 N223 1.314 . S
C220 H226 0.930 . S
C221 N223 1.279 . S
C221 C224 1.358 . S
C221 H227 0.922 1_554 S
C222 C220 1.353 . S
C222 C225 1.348 . S
C222 H260 0.929 . S
N223 Li178 1.990 . S
N223 C220 1.314 . S
N223 C221 1.279 . S
C224 C221 1.358 . S
C224 C225 1.356 . S
C224 H261 0.930 . S
C225 C222 1.348 . S
C225 C224 1.356 . S
H226 C220 0.930 . S
H227 C221 0.922 1_556 S
C228 N229 1.314 . S
C228 C230 1.353 . S
C228 H234 0.930 . S
N229 Li179 1.990 1_556 S
N229 C228 1.314 . S
N229 C232 1.279 1_556 S
C230 C228 1.353 . S
C230 C233 1.348 . S
C230 H262 0.929 . S
C231 C232 1.358 . S
C231 C233 1.356 1_554 S
C231 H263 0.930 . S
C232 N229 1.279 1_554 S
C232 C231 1.358 . S
C232 H235 0.930 . S
C233 C230 1.348 . S
C233 C231 1.356 1_556 S
H234 C228 0.930 . S
H235 C232 0.930 . S
O236 Li176 1.956 1_554 S
O236 Li177 1.970 1_565 S
O236 Li178 1.961 . S
O236 C180 1.325 . S
O237 Li176 1.970 1_544 S
O237 Li177 1.956 . S
O237 Li179 1.961 . S
O237 C186 1.325 1_554 S
O238 Li176 1.961 . S
O238 Li178 1.956 1_556 S
O238 Li179 1.970 1_566 S
O238 C208 1.325 . S
O239 Li177 1.961 . S
O239 Li178 1.970 1_545 S
O239 Li179 1.956 . S
O239 C214 1.325 . S
H240 C182 0.929 . S
H241 C183 0.930 . S
H242 C184 0.930 . S
H243 C185 0.930 . S
H244 C187 0.930 . S
H245 C189 0.929 . S
H246 C190 0.930 . S
H247 C191 0.930 . S
H248 C194 0.930 . S
H249 C197 0.929 . S
H250 C202 0.929 . S
H251 C203 0.930 . S
H252 C210 0.955 . S
H253 C211 0.930 . S
H254 C212 0.930 1_545 S
H255 C213 0.930 . S
H256 C215 0.929 1_565 S
H257 C216 0.930 . S
H258 C217 0.930 . S
H259 C218 0.930 . S
H260 C222 0.929 . S
H261 C224 0.930 . S
H262 C230 0.929 . S
H263 C231 0.930 . S
Li264 N281 1.990 . S
Li264 O324 1.956 . S
Li264 O325 1.970 1_455 S
Li264 O326 1.961 1_554 S
Li265 N289 1.990 . S
Li265 O324 1.970 1_655 S
Li265 O325 1.956 . S
Li265 O327 1.961 . S
Li266 N311 1.990 . S
Li266 O324 1.961 1_556 S
Li266 O326 1.956 . S
Li266 O327 1.970 1_456 S
Li267 N317 1.990 1_554 S
Li267 O325 1.961 . S
Li267 O326 1.970 1_654 S
Li267 O327 1.956 . S
C268 C270 1.348 . S
C268 C271 1.356 . S
C268 O324 1.325 . S
N269 C272 1.314 . S
N269 C273 1.279 . S
C270 C268 1.348 . S
C270 C272 1.353 . S
C270 H328 0.929 . S
C271 C268 1.356 . S
C271 C273 1.358 . S
C271 H329 0.930 1_554 S
C272 N269 1.314 . S
C272 C270 1.353 . S
C272 H330 0.930 . S
C273 N269 1.279 . S
C273 C271 1.358 . S
C273 H331 0.930 . S
C274 C277 1.348 1_655 S
C274 C278 1.356 . S
C274 O325 1.325 . S
C275 N276 1.279 . S
C275 C278 1.358 . S
C275 H332 0.930 . S
N276 C275 1.279 . S
N276 C279 1.314 . S
C277 C274 1.348 1_455 S
C277 C279 1.353 1_455 S
C277 H333 0.929 . S
C278 C274 1.356 . S
C278 C275 1.358 . S
C278 H334 0.930 . S
C279 N276 1.314 . S
C279 C277 1.353 1_655 S
C279 H335 0.930 1_655 S
C280 N281 1.314 . S
C280 C285 1.353 . S
C280 H286 0.930 . S
N281 Li264 1.990 . S
N281 C280 1.314 . S
N281 C283 1.279 . S
C282 C283 1.358 . S
C282 C284 1.356 . S
C282 H336 0.930 . S
C283 N281 1.279 . S
C283 C282 1.358 . S
C283 H287 0.930 . S
C284 C282 1.356 . S
C284 C285 1.348 . S
C285 C280 1.353 . S
C285 C284 1.348 . S
C285 H337 0.929 . S
H286 C280 0.930 . S
H287 C283 0.930 . S
C288 N289 1.314 . S
C288 C290 1.353 . S
C288 H294 0.930 . S
N289 Li265 1.990 . S
N289 C288 1.314 . S
N289 C292 1.279 . S
C290 C288 1.353 . S
C290 C293 1.348 . S
C290 H338 0.929 . S
C291 C292 1.358 . S
C291 C293 1.356 . S
C291 H339 0.930 . S
C292 N289 1.279 . S
C292 C291 1.358 . S
C292 H295 0.930 . S
C293 C290 1.348 . S
C293 C291 1.356 . S
H294 C288 0.930 . S
H295 C292 0.930 . S
C296 C298 1.348 1_455 S
C296 C299 1.356 . S
C296 O326 1.325 . S
N297 C300 1.314 . S
N297 C301 1.279 . S
C298 C296 1.348 1_655 S
C298 C300 1.353 1_655 S
C298 H340 0.929 . S
C299 C296 1.356 . S
C299 C301 1.358 . S
C299 H341 0.930 . S
C300 N297 1.314 . S
C300 C298 1.353 1_455 S
C300 H342 0.930 1_455 S
C301 N297 1.279 . S
C301 C299 1.358 . S
C301 H343 0.930 . S
C302 C303 1.348 . S
C302 C304 1.356 1_556 S
C302 O327 1.325 1_556 S
C303 C302 1.348 . S
C303 C305 1.353 . S
C303 H344 0.929 . S
C304 C302 1.356 1_554 S
C304 C306 1.358 . S
C304 H345 0.930 . S
C305 C303 1.353 . S
C305 N307 1.314 . S
C305 H346 0.930 . S
C306 C304 1.358 . S
C306 N307 1.279 1_554 S
C306 H347 0.930 . S
N307 C305 1.314 . S
N307 C306 1.279 1_556 S
C308 C310 1.353 . S
C308 N311 1.314 . S
C308 H314 0.930 . S
C309 N311 1.279 . S
C309 C312 1.358 . S
C309 H315 0.930 . S
C310 C308 1.353 . S
C310 C313 1.348 . S
C310 H348 0.929 . S
N311 Li266 1.990 . S
N311 C308 1.314 . S
N311 C309 1.279 . S
C312 C309 1.358 . S
C312 C313 1.356 . S
C312 H349 0.930 . S
C313 C310 1.348 . S
C313 C312 1.356 . S
H314 C308 0.930 . S
H315 C309 0.930 . S
C316 N317 1.314 1_554 S
C316 C318 1.353 1_554 S
C316 H322 0.930 . S
N317 Li267 1.990 1_556 S
N317 C316 1.314 1_556 S
N317 C320 1.279 . S
C318 C316 1.353 1_556 S
C318 C321 1.348 . S
C318 H350 0.913 1_556 S
C319 C320 1.358 . S
C319 C321 1.356 . S
C319 H351 0.930 . S
C320 N317 1.279 . S
C320 C319 1.358 . S
C320 H323 0.930 . S
C321 C318 1.348 . S
C321 C319 1.356 . S
H322 C316 0.930 . S
H323 C320 0.930 . S
O324 Li264 1.956 . S
O324 Li265 1.970 1_455 S
O324 Li266 1.961 1_554 S
O324 C268 1.325 . S
O325 Li264 1.970 1_655 S
O325 Li265 1.956 . S
O325 Li267 1.961 . S
O325 C274 1.325 . S
O326 Li264 1.961 1_556 S
O326 Li266 1.956 . S
O326 Li267 1.970 1_456 S
O326 C296 1.325 . S
O327 Li265 1.961 . S
O327 Li266 1.970 1_654 S
O327 Li267 1.956 . S
O327 C302 1.325 1_554 S
H328 C270 0.929 . S
H329 C271 0.930 1_556 S
H330 C272 0.930 . S
H331 C273 0.930 . S
H332 C275 0.930 . S
H333 C277 0.929 . S
H334 C278 0.930 . S
H335 C279 0.930 1_455 S
H336 C282 0.930 . S
H337 C285 0.929 . S
H338 C290 0.929 . S
H339 C291 0.930 . S
H340 C298 0.929 . S
H341 C299 0.930 . S
H342 C300 0.930 1_655 S
H343 C301 0.930 . S
H344 C303 0.929 . S
H345 C304 0.930 . S
H346 C305 0.930 . S
H347 C306 0.930 . S
H348 C310 0.929 . S
H349 C312 0.930 . S
H350 C318 0.913 1_554 S
H351 C319 0.930 . S
Li352 N369 1.990 . S
Li352 O412 1.956 . S
Li352 O413 1.970 . S
Li352 O414 1.961 1_554 S
Li353 N377 1.990 . S
Li353 O412 1.970 . S
Li353 O413 1.956 . S
Li353 O415 1.961 . S
Li354 N399 1.990 . S
Li354 O412 1.961 1_556 S
Li354 O414 1.956 . S
Li354 O415 1.970 1_556 S
Li355 N405 1.990 1_554 S
Li355 O413 1.961 . S
Li355 O414 1.970 1_554 S
Li355 O415 1.956 . S
C356 C358 1.348 . S
C356 C359 1.356 . S
C356 O412 1.325 . S
N357 C360 1.314 . S
N357 C361 1.279 . S
C358 C356 1.348 . S
C358 C360 1.353 . S
C358 H416 0.929 . S
C359 C356 1.356 . S
C359 C361 1.358 . S
C359 H417 0.930 . S
C360 N357 1.314 . S
C360 C358 1.353 . S
C360 H418 0.930 . S
C361 N357 1.279 . S
C361 C359 1.358 . S
C361 H419 0.930 . S
C362 C365 1.348 . S
C362 C366 1.356 . S
C362 O413 1.325 . S
C363 N364 1.279 . S
C363 C366 1.358 . S
C363 H420 0.930 . S
N364 C363 1.279 . S
N364 C367 1.314 . S
C365 C362 1.348 . S
C365 C367 1.353 . S
C365 H421 0.929 . S
C366 C362 1.356 . S
C366 C363 1.358 . S
C366 H422 0.930 . S
C367 N364 1.314 . S
C367 C365 1.353 . S
C367 H423 0.930 . S
C368 N369 1.314 . S
C368 C373 1.353 . S
C368 H374 0.930 . S
N369 Li352 1.990 . S
N369 C368 1.314 . S
N369 C371 1.279 . S
C370 C371 1.358 . S
C370 C372 1.356 . S
C370 H424 0.930 . S
C371 N369 1.279 . S
C371 C370 1.358 . S
C371 H375 0.930 . S
C372 C370 1.356 . S
C372 C373 1.348 . S
C373 C368 1.353 . S
C373 C372 1.348 . S
C373 H425 0.929 . S
H374 C368 0.930 . S
H375 C371 0.930 . S
C376 N377 1.314 . S
C376 C378 1.353 . S
C376 H382 0.930 . S
N377 Li353 1.990 . S
N377 C376 1.314 . S
N377 C380 1.279 . S
C378 C376 1.353 . S
C378 C381 1.348 . S
C378 H426 0.929 . S
C379 C380 1.358 . S
C379 C381 1.356 . S
C379 H427 0.930 . S
C380 N377 1.279 . S
C380 C379 1.358 . S
C380 H383 0.930 . S
C381 C378 1.348 . S
C381 C379 1.356 . S
H382 C376 0.930 . S
H383 C380 0.930 . S
C384 C386 1.348 . S
C384 C387 1.356 . S
C384 O414 1.325 . S
N385 C388 1.314 . S
N385 C389 1.279 . S
C386 C384 1.348 . S
C386 C388 1.353 . S
C386 H428 0.929 . S
C387 C384 1.356 . S
C387 C389 1.358 . S
C387 H429 0.930 . S
C388 N385 1.314 . S
C388 C386 1.353 . S
C388 H430 0.930 . S
C389 N385 1.279 . S
C389 C387 1.358 . S
C389 H431 0.930 . S
C390 C391 1.348 . S
C390 C392 1.356 1_556 S
C390 O415 1.325 1_556 S
C391 C390 1.348 . S
C391 C393 1.353 . S
C391 H432 0.929 . S
C392 C390 1.356 1_554 S
C392 C394 1.358 1_554 S
C392 H433 0.930 . S
C393 C391 1.353 . S
C393 N395 1.314 . S
C393 H434 0.930 . S
C394 C392 1.358 1_556 S
C394 N395 1.279 . S
C394 H435 0.930 1_556 S
N395 C393 1.314 . S
N395 C394 1.279 . S
C396 C398 1.353 . S
C396 N399 1.314 . S
C396 H402 0.930 . S
C397 N399 1.279 . S
C397 C400 1.358 . S
C397 H403 0.930 . S
C398 C396 1.353 . S
C398 C401 1.348 . S
C398 H436 0.929 . S
N399 Li354 1.990 . S
N399 C396 1.314 . S
N399 C397 1.279 . S
C400 C397 1.358 . S
C400 C401 1.356 . S
C400 H437 0.930 . S
C401 C398 1.348 . S
C401 C400 1.356 . S
H402 C396 0.930 . S
H403 C397 0.930 . S
C404 N405 1.314 . S
C404 C406 1.353 . S
C404 H410 0.930 1_556 S
N405 Li355 1.990 1_556 S
N405 C404 1.314 . S
N405 C408 1.279 . S
C406 C404 1.353 . S
C406 C409 1.348 . S
C406 H438 0.929 . S
C407 C408 1.358 . S
C407 C409 1.356 . S
C407 H439 0.930 . S
C408 N405 1.279 . S
C408 C407 1.358 . S
C408 H411 0.930 . S
C409 C406 1.348 . S
C409 C407 1.356 . S
H410 C404 0.930 1_554 S
H411 C408 0.930 . S
O412 Li352 1.956 . S
O412 Li353 1.970 . S
O412 Li354 1.961 1_554 S
O412 C356 1.325 . S
O413 Li352 1.970 . S
O413 Li353 1.956 . S
O413 Li355 1.961 . S
O413 C362 1.325 . S
O414 Li352 1.961 1_556 S
O414 Li354 1.956 . S
O414 Li355 1.970 1_556 S
O414 C384 1.325 . S
O415 Li353 1.961 . S
O415 Li354 1.970 1_554 S
O415 Li355 1.956 . S
O415 C390 1.325 1_554 S
H416 C358 0.929 . S
H417 C359 0.930 . S
H418 C360 0.930 . S
H419 C361 0.930 . S
H420 C363 0.930 . S
H421 C365 0.929 . S
H422 C366 0.930 . S
H423 C367 0.930 . S
H424 C370 0.930 . S
H425 C373 0.929 . S
H426 C378 0.929 . S
H427 C379 0.930 . S
H428 C386 0.929 . S
H429 C387 0.930 . S
H430 C388 0.930 . S
H431 C389 0.930 . S
H432 C391 0.929 . S
H433 C392 0.930 . S
H434 C393 0.930 . S
H435 C394 0.930 1_554 S
H436 C398 0.929 . S
H437 C400 0.930 . S
H438 C406 0.929 . S
H439 C407 0.930 . S
Li440 N457 1.990 . S
Li440 O500 1.956 . S
Li440 O501 1.970 1_565 S
Li440 O502 1.961 1_554 S
Li441 N465 1.990 . S
Li441 O500 1.970 1_545 S
Li441 O501 1.956 . S
Li441 O503 1.961 . S
Li442 N487 1.990 . S
Li442 O500 1.961 1_556 S
Li442 O502 1.956 . S
Li442 O503 1.970 1_566 S
Li443 N493 1.990 1_554 S
Li443 O501 1.961 . S
Li443 O502 1.970 1_544 S
Li443 O503 1.956 . S
C444 C446 1.348 . S
C444 C447 1.356 . S
C444 O500 1.325 . S
N445 C448 1.314 . S
N445 C449 1.279 . S
C446 C444 1.348 . S
C446 C448 1.353 . S
C446 H504 0.929 . S
C447 C444 1.356 . S
C447 C449 1.358 . S
C447 H505 0.930 1_554 S
C448 N445 1.314 . S
C448 C446 1.353 . S
C448 H506 0.930 . S
C449 N445 1.279 . S
C449 C447 1.358 . S
C449 H507 0.930 . S
C450 C453 1.348 1_545 S
C450 C454 1.356 . S
C450 O501 1.325 . S
C451 N452 1.279 . S
C451 C454 1.358 . S
C451 H508 0.930 . S
N452 C451 1.279 . S
N452 C455 1.314 . S
C453 C450 1.348 1_565 S
C453 C455 1.353 1_565 S
C453 H509 0.929 . S
C454 C450 1.356 . S
C454 C451 1.358 . S
C454 H510 0.930 . S
C455 N452 1.314 . S
C455 C453 1.353 1_545 S
C455 H511 0.930 1_545 S
C456 N457 1.314 . S
C456 C461 1.353 . S
C456 H462 0.930 . S
N457 Li440 1.990 . S
N457 C456 1.314 . S
N457 C459 1.279 . S
C458 C459 1.358 . S
C458 C460 1.356 . S
C458 H512 0.930 . S
C459 N457 1.279 . S
C459 C458 1.358 . S
C459 H463 0.930 . S
C460 C458 1.356 . S
C460 C461 1.348 . S
C461 C456 1.353 . S
C461 C460 1.348 . S
C461 H513 0.929 . S
H462 C456 0.930 . S
H463 C459 0.930 . S
C464 N465 1.314 . S
C464 C466 1.353 . S
C464 H470 0.930 . S
N465 Li441 1.990 . S
N465 C464 1.314 . S
N465 C468 1.279 . S
C466 C464 1.353 . S
C466 C469 1.348 . S
C466 H514 0.929 . S
C467 C468 1.358 . S
C467 C469 1.356 . S
C467 H515 0.930 . S
C468 N465 1.279 . S
C468 C467 1.358 . S
C468 H471 0.930 . S
C469 C466 1.348 . S
C469 C467 1.356 . S
H470 C464 0.930 . S
H471 C468 0.930 . S
C472 C474 1.348 1_565 S
C472 C475 1.356 . S
C472 O502 1.325 . S
N473 C476 1.314 . S
N473 C477 1.279 . S
C474 C472 1.348 1_545 S
C474 C476 1.353 1_545 S
C474 H516 0.929 . S
C475 C472 1.356 . S
C475 C477 1.358 . S
C475 H517 0.930 . S
C476 N473 1.314 . S
C476 C474 1.353 1_565 S
C476 H518 0.930 1_565 S
C477 N473 1.279 . S
C477 C475 1.358 . S
C477 H519 0.930 . S
C478 C479 1.375 . S
C478 C480 1.338 1_556 S
C478 O503 1.318 1_556 S
C479 C478 1.375 . S
C479 C481 1.353 . S
C479 H520 0.929 . S
C480 C478 1.338 1_554 S
C480 C482 1.358 . S
C480 H521 0.930 . S
C481 C479 1.353 . S
C481 N483 1.314 . S
C481 H522 0.930 . S
C482 C480 1.358 . S
C482 N483 1.279 1_554 S
C482 H523 0.930 . S
N483 C481 1.314 . S
N483 C482 1.279 1_556 S
C484 C486 1.353 . S
C484 N487 1.314 . S
C484 H490 0.930 . S
C485 N487 1.279 . S
C485 C488 1.358 . S
C485 H491 0.930 . S
C486 C484 1.353 . S
C486 C489 1.348 . S
C486 H524 0.929 . S
N487 Li442 1.990 . S
N487 C484 1.314 . S
N487 C485 1.279 . S
C488 C485 1.358 . S
C488 C489 1.356 . S
C488 H525 0.930 . S
C489 C486 1.348 . S
C489 C488 1.356 . S
H490 C484 0.930 . S
H491 C485 0.930 . S
C492 N493 1.314 1_554 S
C492 C494 1.353 1_554 S
C492 H498 0.930 . S
N493 Li443 1.990 1_556 S
N493 C492 1.314 1_556 S
N493 C496 1.279 . S
C494 C492 1.353 1_556 S
C494 C497 1.348 . S
C494 H526 0.929 1_556 S
C495 C496 1.358 . S
C495 C497 1.356 . S
C495 H527 0.930 . S
C496 N493 1.279 . S
C496 C495 1.358 . S
C496 H499 0.930 . S
C497 C494 1.348 . S
C497 C495 1.356 . S
H498 C492 0.930 . S
H499 C496 0.930 . S
O500 Li440 1.956 . S
O500 Li441 1.970 1_565 S
O500 Li442 1.961 1_554 S
O500 C444 1.325 . S
O501 Li440 1.970 1_545 S
O501 Li441 1.956 . S
O501 Li443 1.961 . S
O501 C450 1.325 . S
O502 Li440 1.961 1_556 S
O502 Li442 1.956 . S
O502 Li443 1.970 1_566 S
O502 C472 1.325 . S
O503 Li441 1.961 . S
O503 Li442 1.970 1_544 S
O503 Li443 1.956 . S
O503 C478 1.318 1_554 S
H504 C446 0.929 . S
H505 C447 0.930 1_556 S
H506 C448 0.930 . S
H507 C449 0.930 . S
H508 C451 0.930 . S
H509 C453 0.929 . S
H510 C454 0.930 . S
H511 C455 0.930 1_565 S
H512 C458 0.930 . S
H513 C461 0.929 . S
H514 C466 0.929 . S
H515 C467 0.930 . S
H516 C474 0.929 . S
H517 C475 0.930 . S
H518 C476 0.930 1_545 S
H519 C477 0.930 . S
H520 C479 0.929 . S
H521 C480 0.930 . S
H522 C481 0.930 . S
H523 C482 0.930 . S
H524 C486 0.929 . S
H525 C488 0.930 . S
H526 C494 0.929 1_554 S
H527 C495 0.930 . S
Li528 N545 1.990 . S
Li528 O588 1.956 . S
Li528 O589 1.970 . S
Li528 O590 1.961 . S
Li529 N553 1.990 . S
Li529 O588 1.970 . S
Li529 O589 1.956 . S
Li529 O591 1.961 . S
Li530 N575 1.990 . S
Li530 O588 1.961 . S
Li530 O590 1.956 . S
Li530 O591 1.970 . S
Li531 N581 1.990 . S
Li531 O589 1.961 . S
Li531 O590 1.970 . S
Li531 O591 1.956 . S
C532 C534 1.348 . S
C532 C535 1.356 . S
C532 O588 1.325 . S
N533 C536 1.314 . S
N533 C537 1.279 . S
C534 C532 1.348 . S
C534 C536 1.353 . S
C534 H592 0.929 . S
C535 C532 1.356 . S
C535 C537 1.358 . S
C535 H593 0.930 . S
C536 N533 1.314 . S
C536 C534 1.353 . S
C536 H594 0.930 . S
C537 N533 1.279 . S
C537 C535 1.358 . S
C537 H595 0.930 . S
C538 C541 1.348 . S
C538 C542 1.356 . S
C538 O589 1.325 . S
C539 N540 1.279 . S
C539 C542 1.358 . S
C539 H596 0.930 . S
N540 C539 1.279 . S
N540 C543 1.314 . S
C541 C538 1.348 . S
C541 C543 1.353 . S
C541 H597 0.929 . S
C542 C538 1.356 . S
C542 C539 1.358 . S
C542 H598 0.930 . S
C543 N540 1.314 . S
C543 C541 1.353 . S
C543 H599 0.930 . S
C544 N545 1.314 . S
C544 C549 1.353 . S
C544 H550 0.930 . S
N545 Li528 1.990 . S
N545 C544 1.314 . S
N545 C547 1.279 . S
C546 C547 1.358 . S
C546 C548 1.356 . S
C546 H600 0.930 . S
C547 N545 1.279 . S
C547 C546 1.358 . S
C547 H551 0.930 . S
C548 C546 1.356 . S
C548 C549 1.348 . S
C549 C544 1.353 . S
C549 C548 1.348 . S
C549 H601 0.929 . S
H550 C544 0.930 . S
H551 C547 0.930 . S
C552 N553 1.314 . S
C552 C554 1.353 . S
C552 H558 0.930 . S
N553 Li529 1.990 . S
N553 C552 1.314 . S
N553 C556 1.279 . S
C554 C552 1.353 . S
C554 C557 1.348 . S
C554 H602 0.929 . S
C555 C556 1.358 . S
C555 C557 1.356 . S
C555 H603 0.930 . S
C556 N553 1.279 . S
C556 C555 1.358 . S
C556 H559 0.930 . S
C557 C554 1.348 . S
C557 C555 1.356 . S
H558 C552 0.930 . S
H559 C556 0.930 . S
C560 C562 1.348 . S
C560 C563 1.356 . S
C560 O590 1.325 . S
N561 C564 1.314 . S
N561 C565 1.279 . S
C562 C560 1.348 . S
C562 C564 1.353 . S
C562 H604 0.929 . S
C563 C560 1.356 . S
C563 C565 1.358 . S
C563 H605 0.930 . S
C564 N561 1.314 . S
C564 C562 1.353 . S
C564 H606 0.930 . S
C565 N561 1.279 . S
C565 C563 1.358 . S
C565 H607 0.930 . S
C566 C567 1.348 . S
C566 C568 1.356 . S
C566 O591 1.325 . S
C567 C566 1.348 . S
C567 C569 1.353 . S
C567 H608 0.929 . S
C568 C566 1.356 . S
C568 C570 1.358 . S
C568 H609 0.930 . S
C569 C567 1.353 . S
C569 N571 1.314 . S
C569 H610 0.930 . S
C570 C568 1.358 . S
C570 N571 1.279 . S
C570 H611 0.930 . S
N571 C569 1.314 . S
N571 C570 1.279 . S
C572 C574 1.353 . S
C572 N575 1.314 . S
C572 H578 0.930 . S
C573 N575 1.279 . S
C573 C576 1.358 . S
C573 H579 0.930 . S
C574 C572 1.353 . S
C574 C577 1.348 . S
C574 H612 0.929 . S
N575 Li530 1.990 . S
N575 C572 1.314 . S
N575 C573 1.279 . S
C576 C573 1.358 . S
C576 C577 1.356 . S
C576 H613 0.930 . S
C577 C574 1.348 . S
C577 C576 1.356 . S
H578 C572 0.930 . S
H579 C573 0.930 . S
C580 N581 1.314 . S
C580 C582 1.353 . S
C580 H586 0.930 . S
N581 Li531 1.990 . S
N581 C580 1.314 . S
N581 C584 1.279 . S
C582 C580 1.353 . S
C582 C585 1.348 . S
C582 H614 0.929 . S
C583 C584 1.358 . S
C583 C585 1.356 . S
C583 H615 0.930 . S
C584 N581 1.279 . S
C584 C583 1.358 . S
C584 H587 0.930 . S
C585 C582 1.348 . S
C585 C583 1.356 . S
H586 C580 0.930 . S
H587 C584 0.930 . S
O588 Li528 1.956 . S
O588 Li529 1.970 . S
O588 Li530 1.961 . S
O588 C532 1.325 . S
O589 Li528 1.970 . S
O589 Li529 1.956 . S
O589 Li531 1.961 . S
O589 C538 1.325 . S
O590 Li528 1.961 . S
O590 Li530 1.956 . S
O590 Li531 1.970 . S
O590 C560 1.325 . S
O591 Li529 1.961 . S
O591 Li530 1.970 . S
O591 Li531 1.956 . S
O591 C566 1.325 . S
H592 C534 0.929 . S
H593 C535 0.930 . S
H594 C536 0.930 . S
H595 C537 0.930 . S
H596 C539 0.930 . S
H597 C541 0.929 . S
H598 C542 0.930 . S
H599 C543 0.930 . S
H600 C546 0.930 . S
H601 C549 0.929 . S
H602 C554 0.929 . S
H603 C555 0.930 . S
H604 C562 0.929 . S
H605 C563 0.930 . S
H606 C564 0.930 . S
H607 C565 0.930 . S
H608 C567 0.929 . S
H609 C568 0.930 . S
H610 C569 0.930 . S
H611 C570 0.930 . S
H612 C574 0.929 . S
H613 C576 0.930 . S
H614 C582 0.929 . S
H615 C583 0.930 . S
Li616 N633 1.990 . S
Li616 O676 1.956 . S
Li616 O677 1.970 . S
Li616 O678 1.961 . S
Li617 N641 1.990 . S
Li617 O676 1.970 . S
Li617 O677 1.956 . S
Li617 O679 1.961 . S
Li618 N663 1.990 1_565 S
Li618 O676 1.961 . S
Li618 O678 1.956 . S
Li618 O679 1.970 . S
Li619 N669 1.990 . S
Li619 O677 1.961 . S
Li619 O678 1.970 . S
Li619 O679 1.956 . S
C620 C622 1.348 . S
C620 C623 1.356 . S
C620 O676 1.325 . S
N621 C624 1.314 . S
N621 C625 1.279 . S
C622 C620 1.348 . S
C622 C624 1.353 . S
C622 H680 0.929 . S
C623 C620 1.356 . S
C623 C625 1.358 . S
C623 H681 0.930 . S
C624 N621 1.314 . S
C624 C622 1.353 . S
C624 H682 0.930 . S
C625 N621 1.279 . S
C625 C623 1.358 . S
C625 H683 0.930 . S
C626 C629 1.348 . S
C626 C630 1.356 . S
C626 O677 1.325 . S
C627 N628 1.279 . S
C627 C630 1.358 . S
C627 H684 0.930 . S
N628 C627 1.279 . S
N628 C631 1.314 . S
C629 C626 1.348 . S
C629 C631 1.353 . S
C629 H685 0.929 . S
C630 C626 1.356 . S
C630 C627 1.358 . S
C630 H686 0.930 . S
C631 N628 1.314 . S
C631 C629 1.353 . S
C631 H687 0.930 . S
C632 N633 1.314 . S
C632 C637 1.353 . S
C632 H638 0.930 . S
N633 Li616 1.990 . S
N633 C632 1.314 . S
N633 C635 1.279 . S
C634 C635 1.358 . S
C634 C636 1.356 . S
C634 H688 0.930 . S
C635 N633 1.279 . S
C635 C634 1.358 . S
C635 H639 0.930 . S
C636 C634 1.356 . S
C636 C637 1.348 . S
C637 C632 1.353 . S
C637 C636 1.348 . S
C637 H689 0.929 . S
H638 C632 0.930 . S
H639 C635 0.930 . S
C640 N641 1.314 . S
C640 C642 1.353 . S
C640 H646 0.930 . S
N641 Li617 1.990 . S
N641 C640 1.314 . S
N641 C644 1.279 . S
C642 C640 1.353 . S
C642 C645 1.348 . S
C642 H690 0.929 . S
C643 C644 1.358 . S
C643 C645 1.356 . S
C643 H691 0.930 . S
C644 N641 1.279 . S
C644 C643 1.358 . S
C644 H647 0.930 . S
C645 C642 1.348 . S
C645 C643 1.356 . S
H646 C640 0.930 . S
H647 C644 0.930 . S
C648 C650 1.348 . S
C648 C651 1.356 . S
C648 O678 1.325 1_545 S
N649 C652 1.314 . S
N649 C653 1.279 . S
C650 C648 1.348 . S
C650 C652 1.353 . S
C650 H692 0.929 . S
C651 C648 1.356 . S
C651 C653 1.358 . S
C651 H693 0.930 . S
C652 N649 1.314 . S
C652 C650 1.353 . S
C652 H694 0.930 . S
C653 N649 1.279 . S
C653 C651 1.358 . S
C653 H695 0.930 . S
C654 C655 1.348 1_565 S
C654 C656 1.356 . S
C654 O679 1.325 . S
C655 C654 1.348 1_545 S
C655 C657 1.353 . S
C655 H696 0.929 . S
C656 C654 1.356 . S
C656 C658 1.358 . S
C656 H697 0.930 . S
C657 C655 1.353 . S
C657 N659 1.314 . S
C657 H698 0.930 . S
C658 C656 1.358 . S
C658 N659 1.279 1_565 S
C658 H699 0.930 . S
N659 C657 1.314 . S
N659 C658 1.279 1_545 S
C660 C662 1.353 . S
C660 N663 1.314 . S
C660 H666 0.930 . S
C661 N663 1.279 . S
C661 C664 1.358 . S
C661 H667 0.930 . S
C662 C660 1.353 . S
C662 C665 1.348 . S
C662 H700 0.929 . S
N663 Li618 1.990 1_545 S
N663 C660 1.314 . S
N663 C661 1.279 . S
C664 C661 1.358 . S
C664 C665 1.356 . S
C664 H701 0.930 . S
C665 C662 1.348 . S
C665 C664 1.356 . S
H666 C660 0.930 . S
H667 C661 0.930 . S
C668 N669 1.314 . S
C668 C670 1.353 . S
C668 H674 0.930 . S
N669 Li619 1.990 . S
N669 C668 1.314 . S
N669 C672 1.279 . S
C670 C668 1.353 . S
C670 C673 1.348 . S
C670 H702 0.929 . S
C671 C672 1.358 . S
C671 C673 1.356 . S
C671 H703 0.930 . S
C672 N669 1.279 . S
C672 C671 1.358 . S
C672 H675 0.930 . S
C673 C670 1.348 . S
C673 C671 1.356 . S
H674 C668 0.930 . S
H675 C672 0.930 . S
O676 Li616 1.956 . S
O676 Li617 1.970 . S
O676 Li618 1.961 . S
O676 C620 1.325 . S
O677 Li616 1.970 . S
O677 Li617 1.956 . S
O677 Li619 1.961 . S
O677 C626 1.325 . S
O678 Li616 1.961 . S
O678 Li618 1.956 . S
O678 Li619 1.970 . S
O678 C648 1.325 1_565 S
O679 Li617 1.961 . S
O679 Li618 1.970 . S
O679 Li619 1.956 . S
O679 C654 1.325 . S
H680 C622 0.929 . S
H681 C623 0.930 . S
H682 C624 0.930 . S
H683 C625 0.930 . S
H684 C627 0.930 . S
H685 C629 0.929 . S
H686 C630 0.930 . S
H687 C631 0.930 . S
H688 C634 0.930 . S
H689 C637 0.929 . S
H690 C642 0.929 . S
H691 C643 0.930 . S
H692 C650 0.929 . S
H693 C651 0.930 . S
H694 C652 0.930 . S
H695 C653 0.930 . S
H696 C655 0.929 . S
H697 C656 0.930 . S
H698 C657 0.930 . S
H699 C658 0.930 . S
H700 C662 0.929 . S
H701 C664 0.930 . S
H702 C670 0.929 . S
H703 C671 0.930 . S
Li704 N721 1.990 . S
Li704 O764 1.956 . S
Li704 O765 1.970 . S
Li704 O766 1.961 . S
Li705 N729 1.990 . S
Li705 O764 1.970 . S
Li705 O765 1.956 . S
Li705 O767 1.961 . S
Li706 N751 1.990 1_455 S
Li706 O764 1.961 . S
Li706 O766 1.956 . S
Li706 O767 1.970 . S
Li707 N757 1.990 . S
Li707 O765 1.961 . S
Li707 O766 1.970 . S
Li707 O767 1.956 . S
C708 C710 1.348 . S
C708 C711 1.356 . S
C708 O764 1.325 . S
N709 C712 1.314 . S
N709 C713 1.279 . S
C710 C708 1.348 . S
C710 C712 1.353 . S
C710 H768 0.929 . S
C711 C708 1.356 . S
C711 C713 1.358 . S
C711 H769 0.930 . S
C712 N709 1.314 . S
C712 C710 1.353 . S
C712 H770 0.930 . S
C713 N709 1.279 . S
C713 C711 1.358 . S
C713 H771 0.930 . S
C714 C717 1.348 . S
C714 C718 1.356 . S
C714 O765 1.325 . S
C715 N716 1.279 . S
C715 C718 1.358 . S
C715 H772 0.930 . S
N716 C715 1.279 . S
N716 C719 1.314 . S
C717 C714 1.348 . S
C717 C719 1.353 . S
C717 H773 0.929 . S
C718 C714 1.356 . S
C718 C715 1.358 . S
C718 H774 0.930 . S
C719 N716 1.314 . S
C719 C717 1.353 . S
C719 H775 0.930 . S
C720 N721 1.314 . S
C720 C725 1.353 . S
C720 H726 0.930 . S
N721 Li704 1.990 . S
N721 C720 1.314 . S
N721 C723 1.279 . S
C722 C723 1.358 . S
C722 C724 1.356 . S
C722 H776 0.930 . S
C723 N721 1.279 . S
C723 C722 1.358 . S
C723 H727 0.930 . S
C724 C722 1.356 . S
C724 C725 1.348 . S
C725 C720 1.353 . S
C725 C724 1.348 . S
C725 H777 0.929 . S
H726 C720 0.930 . S
H727 C723 0.930 . S
C728 N729 1.314 . S
C728 C730 1.353 . S
C728 H734 0.930 . S
N729 Li705 1.990 . S
N729 C728 1.314 . S
N729 C732 1.279 . S
C730 C728 1.353 . S
C730 C733 1.348 . S
C730 H778 0.929 . S
C731 C732 1.358 . S
C731 C733 1.356 . S
C731 H779 0.930 . S
C732 N729 1.279 . S
C732 C731 1.358 . S
C732 H735 0.930 . S
C733 C730 1.348 . S
C733 C731 1.356 . S
H734 C728 0.930 . S
H735 C732 0.930 . S
C736 C738 1.348 . S
C736 C739 1.356 . S
C736 O766 1.325 1_655 S
N737 C740 1.314 . S
N737 C741 1.279 . S
C738 C736 1.348 . S
C738 C740 1.353 . S
C738 H780 0.929 . S
C739 C736 1.356 . S
C739 C741 1.358 . S
C739 H781 0.930 . S
C740 N737 1.314 . S
C740 C738 1.353 . S
C740 H782 0.930 . S
C741 N737 1.279 . S
C741 C739 1.358 . S
C741 H783 0.930 . S
C742 C743 1.348 1_455 S
C742 C744 1.356 . S
C742 O767 1.325 . S
C743 C742 1.348 1_655 S
C743 C745 1.353 . S
C743 H784 0.929 . S
C744 C742 1.356 . S
C744 C746 1.358 . S
C744 H785 0.930 . S
C745 C743 1.353 . S
C745 N747 1.317 . S
C745 H786 0.930 . S
C746 C744 1.358 . S
C746 N747 1.268 1_455 S
C746 H787 0.930 . S
N747 C745 1.317 . S
N747 C746 1.268 1_655 S
C748 C750 1.353 . S
C748 N751 1.314 . S
C748 H754 0.930 . S
C749 N751 1.279 . S
C749 C752 1.358 . S
C749 H755 0.930 . S
C750 C748 1.353 . S
C750 C753 1.348 . S
C750 H788 0.929 . S
N751 Li706 1.990 1_655 S
N751 C748 1.314 . S
N751 C749 1.279 . S
C752 C749 1.358 . S
C752 C753 1.356 . S
C752 H789 0.930 . S
C753 C750 1.348 . S
C753 C752 1.356 . S
H754 C748 0.930 . S
H755 C749 0.930 . S
C756 N757 1.314 . S
C756 C758 1.353 . S
C756 H762 0.930 . S
N757 Li707 1.990 . S
N757 C756 1.314 . S
N757 C760 1.279 . S
C758 C756 1.353 . S
C758 C761 1.348 . S
C758 H790 0.929 . S
C759 C760 1.358 . S
C759 C761 1.356 . S
C759 H791 0.930 . S
C760 N757 1.279 . S
C760 C759 1.358 . S
C760 H763 0.930 . S
C761 C758 1.348 . S
C761 C759 1.356 . S
H762 C756 0.930 . S
H763 C760 0.930 . S
O764 Li704 1.956 . S
O764 Li705 1.970 . S
O764 Li706 1.961 . S
O764 C708 1.325 . S
O765 Li704 1.970 . S
O765 Li705 1.956 . S
O765 Li707 1.961 . S
O765 C714 1.325 . S
O766 Li704 1.961 . S
O766 Li706 1.956 . S
O766 Li707 1.970 . S
O766 C736 1.325 1_455 S
O767 Li705 1.961 . S
O767 Li706 1.970 . S
O767 Li707 1.956 . S
O767 C742 1.325 . S
H768 C710 0.929 . S
H769 C711 0.930 . S
H770 C712 0.930 . S
H771 C713 0.930 . S
H772 C715 0.930 . S
H773 C717 0.929 . S
H774 C718 0.930 . S
H775 C719 0.930 . S
H776 C722 0.930 . S
H777 C725 0.929 . S
H778 C730 0.929 . S
H779 C731 0.930 . S
H780 C738 0.929 . S
H781 C739 0.930 . S
H782 C740 0.930 . S
H783 C741 0.930 . S
H784 C743 0.929 . S
H785 C744 0.930 . S
H786 C745 0.930 . S
H787 C746 0.930 . S
H788 C750 0.929 . S
H789 C752 0.930 . S
H790 C758 0.929 . S
H791 C759 0.930 . S
Li792 N809 1.990 1_565 S
Li792 O852 1.956 . S
Li792 O853 1.970 . S
Li792 O854 1.961 . S
Li793 N817 1.990 . S
Li793 O852 1.970 . S
Li793 O853 1.956 . S
Li793 O855 1.961 . S
Li794 N839 1.990 . S
Li794 O852 1.961 . S
Li794 O854 1.956 . S
Li794 O855 1.970 . S
Li795 N845 1.990 . S
Li795 O853 1.961 . S
Li795 O854 1.970 . S
Li795 O855 1.956 . S
C796 C798 1.348 . S
C796 C799 1.356 . S
C796 O852 1.325 . S
N797 C800 1.314 . S
N797 C801 1.279 . S
C798 C796 1.348 . S
C798 C800 1.353 . S
C798 H856 0.929 . S
C799 C796 1.356 . S
C799 C801 1.358 . S
C799 H857 0.930 . S
C800 N797 1.314 . S
C800 C798 1.353 . S
C800 H858 0.930 . S
C801 N797 1.279 . S
C801 C799 1.358 . S
C801 H859 0.930 . S
C802 C805 1.348 1_565 S
C802 C806 1.356 . S
C802 O853 1.325 . S
C803 N804 1.277 . S
C803 C806 1.358 . S
C803 H860 0.930 . S
N804 C803 1.277 . S
N804 C807 1.314 1_565 S
C805 C802 1.348 1_545 S
C805 C807 1.353 . S
C805 H861 0.929 . S
C806 C802 1.356 . S
C806 C803 1.358 . S
C806 H862 0.930 . S
C807 N804 1.314 1_545 S
C807 C805 1.353 . S
C807 H863 0.930 . S
C808 N809 1.314 . S
C808 C813 1.353 . S
C808 H814 0.930 . S
N809 Li792 1.990 1_545 S
N809 C808 1.314 . S
N809 C811 1.279 . S
C810 C811 1.358 . S
C810 C812 1.356 . S
C810 H864 0.930 . S
C811 N809 1.279 . S
C811 C810 1.358 . S
C811 H815 0.930 . S
C812 C810 1.356 . S
C812 C813 1.348 . S
C813 C808 1.353 . S
C813 C812 1.348 . S
C813 H865 0.929 . S
H814 C808 0.930 . S
H815 C811 0.930 . S
C816 N817 1.314 . S
C816 C818 1.353 . S
C816 H822 0.930 . S
N817 Li793 1.990 . S
N817 C816 1.314 . S
N817 C820 1.279 . S
C818 C816 1.353 . S
C818 C821 1.348 . S
C818 H866 0.929 . S
C819 C820 1.358 . S
C819 C821 1.356 . S
C819 H867 0.930 . S
C820 N817 1.279 . S
C820 C819 1.358 . S
C820 H823 0.930 . S
C821 C818 1.348 . S
C821 C819 1.356 . S
H822 C816 0.930 . S
H823 C820 0.930 . S
C824 C826 1.348 . S
C824 C827 1.356 . S
C824 O854 1.325 1_545 S
N825 C828 1.314 . S
N825 C829 1.279 . S
C826 C824 1.348 . S
C826 C828 1.353 . S
C826 H868 0.929 1_545 S
C827 C824 1.356 . S
C827 C829 1.358 . S
C827 H869 0.930 . S
C828 N825 1.314 . S
C828 C826 1.353 . S
C828 H870 0.930 . S
C829 N825 1.279 . S
C829 C827 1.358 . S
C829 H871 0.930 . S
C830 C831 1.348 . S
C830 C832 1.356 . S
C830 O855 1.325 . S
C831 C830 1.348 . S
C831 C833 1.353 . S
C831 H872 0.929 . S
C832 C830 1.356 . S
C832 C834 1.358 . S
C832 H873 0.930 . S
C833 C831 1.353 . S
C833 N835 1.314 . S
C833 H874 0.930 . S
C834 C832 1.358 . S
C834 N835 1.279 . S
C834 H875 0.930 . S
N835 C833 1.314 . S
N835 C834 1.279 . S
C836 C838 1.353 . S
C836 N839 1.314 . S
C836 H842 0.930 . S
C837 N839 1.279 . S
C837 C840 1.358 . S
C837 H843 0.930 . S
C838 C836 1.353 . S
C838 C841 1.348 . S
C838 H876 0.929 . S
N839 Li794 1.990 . S
N839 C836 1.314 . S
N839 C837 1.279 . S
C840 C837 1.358 . S
C840 C841 1.356 . S
C840 H877 0.930 . S
C841 C838 1.348 . S
C841 C840 1.356 . S
H842 C836 0.930 . S
H843 C837 0.930 . S
C844 N845 1.314 . S
C844 C846 1.353 . S
C844 H850 0.912 1_565 S
N845 Li795 1.990 . S
N845 C844 1.314 . S
N845 C848 1.279 . S
C846 C844 1.353 . S
C846 C849 1.348 . S
C846 H878 0.929 1_565 S
C847 C848 1.358 . S
C847 C849 1.356 . S
C847 H879 0.930 . S
C848 N845 1.279 . S
C848 C847 1.358 . S
C848 H851 0.930 . S
C849 C846 1.348 . S
C849 C847 1.356 . S
H850 C844 0.912 1_545 S
H851 C848 0.930 . S
O852 Li792 1.956 . S
O852 Li793 1.970 . S
O852 Li794 1.961 . S
O852 C796 1.325 . S
O853 Li792 1.970 . S
O853 Li793 1.956 . S
O853 Li795 1.961 . S
O853 C802 1.325 . S
O854 Li792 1.961 . S
O854 Li794 1.956 . S
O854 Li795 1.970 . S
O854 C824 1.325 1_565 S
O855 Li793 1.961 . S
O855 Li794 1.970 . S
O855 Li795 1.956 . S
O855 C830 1.325 . S
H856 C798 0.929 . S
H857 C799 0.930 . S
H858 C800 0.930 . S
H859 C801 0.930 . S
H860 C803 0.930 . S
H861 C805 0.929 . S
H862 C806 0.930 . S
H863 C807 0.930 . S
H864 C810 0.930 . S
H865 C813 0.929 . S
H866 C818 0.929 . S
H867 C819 0.930 . S
H868 C826 0.929 1_565 S
H869 C827 0.930 . S
H870 C828 0.930 . S
H871 C829 0.930 . S
H872 C831 0.929 . S
H873 C832 0.930 . S
H874 C833 0.930 . S
H875 C834 0.930 . S
H876 C838 0.929 . S
H877 C840 0.930 . S
H878 C846 0.929 1_545 S
H879 C847 0.930 . S
Li880 N897 1.990 . S
Li880 O940 1.956 . S
Li880 O941 1.970 . S
Li880 O942 1.961 . S
Li881 N905 1.990 1_455 S
Li881 O940 1.970 . S
Li881 O941 1.956 . S
Li881 O943 1.961 . S
Li882 N927 1.990 . S
Li882 O940 1.961 . S
Li882 O942 1.956 . S
Li882 O943 1.970 . S
Li883 N933 1.990 . S
Li883 O941 1.961 . S
Li883 O942 1.970 . S
Li883 O943 1.956 . S
C884 C886 1.348 1_455 S
C884 C887 1.356 . S
C884 O940 1.325 . S
N885 C888 1.322 1_455 S
N885 C889 1.272 . S
C886 C884 1.348 1_655 S
C886 C888 1.353 . S
C886 H944 0.929 . S
C887 C884 1.356 . S
C887 C889 1.358 . S
C887 H945 0.930 . S
C888 N885 1.322 1_655 S
C888 C886 1.353 . S
C888 H946 0.930 . S
C889 N885 1.272 . S
C889 C887 1.358 . S
C889 H947 0.930 . S
C890 C893 1.348 . S
C890 C894 1.356 . S
C890 O941 1.325 . S
C891 N892 1.279 . S
C891 C894 1.358 . S
C891 H948 0.930 . S
N892 C891 1.279 . S
N892 C895 1.314 . S
C893 C890 1.348 . S
C893 C895 1.353 . S
C893 H949 0.929 . S
C894 C890 1.356 . S
C894 C891 1.358 . S
C894 H950 0.930 . S
C895 N892 1.314 . S
C895 C893 1.353 . S
C895 H951 0.930 . S
C896 N897 1.314 . S
C896 C901 1.353 . S
C896 H902 0.930 . S
N897 Li880 1.990 . S
N897 C896 1.314 . S
N897 C899 1.279 . S
C898 C899 1.358 . S
C898 C900 1.356 . S
C898 H952 0.930 . S
C899 N897 1.279 . S
C899 C898 1.358 . S
C899 H903 0.930 . S
C900 C898 1.356 . S
C900 C901 1.348 . S
C901 C896 1.353 . S
C901 C900 1.348 . S
C901 H953 0.929 . S
H902 C896 0.930 . S
H903 C899 0.930 . S
C904 N905 1.314 . S
C904 C906 1.353 . S
C904 H910 0.930 . S
N905 Li881 1.990 1_655 S
N905 C904 1.314 . S
N905 C908 1.279 . S
C906 C904 1.353 . S
C906 C909 1.348 . S
C906 H954 0.929 . S
C907 C908 1.358 . S
C907 C909 1.356 . S
C907 H955 0.930 . S
C908 N905 1.279 . S
C908 C907 1.358 . S
C908 H911 0.930 . S
C909 C906 1.348 . S
C909 C907 1.356 . S
H910 C904 0.930 . S
H911 C908 0.930 . S
C912 C914 1.348 . S
C912 C915 1.356 . S
C912 O942 1.325 . S
N913 C916 1.314 . S
N913 C917 1.279 . S
C914 C912 1.348 . S
C914 C916 1.353 . S
C914 H956 0.929 . S
C915 C912 1.356 . S
C915 C917 1.358 . S
C915 H957 0.930 . S
C916 N913 1.314 . S
C916 C914 1.353 . S
C916 H958 0.930 . S
C917 N913 1.279 . S
C917 C915 1.358 . S
C917 H959 0.930 . S
C918 C919 1.348 . S
C918 C920 1.356 . S
C918 O943 1.325 1_655 S
C919 C918 1.348 . S
C919 C921 1.353 . S
C919 H960 0.929 1_655 S
C920 C918 1.356 . S
C920 C922 1.358 . S
C920 H961 0.930 . S
C921 C919 1.353 . S
C921 N923 1.314 . S
C921 H962 0.930 . S
C922 C920 1.358 . S
C922 N923 1.279 . S
C922 H963 0.930 . S
N923 C921 1.314 . S
N923 C922 1.279 . S
C924 C926 1.353 . S
C924 N927 1.314 . S
C924 H930 0.866 1_455 S
C925 N927 1.279 . S
C925 C928 1.358 . S
C925 H931 0.930 . S
C926 C924 1.353 . S
C926 C929 1.348 . S
C926 H964 0.929 1_455 S
N927 Li882 1.990 . S
N927 C924 1.314 . S
N927 C925 1.279 . S
C928 C925 1.358 . S
C928 C929 1.356 . S
C928 H965 0.930 . S
C929 C926 1.348 . S
C929 C928 1.356 . S
H930 C924 0.866 1_655 S
H931 C925 0.930 . S
C932 N933 1.314 . S
C932 C934 1.353 . S
C932 H938 0.930 . S
N933 Li883 1.990 . S
N933 C932 1.314 . S
N933 C936 1.279 . S
C934 C932 1.353 . S
C934 C937 1.348 . S
C934 H966 0.929 . S
C935 C936 1.358 . S
C935 C937 1.356 . S
C935 H967 0.930 . S
C936 N933 1.279 . S
C936 C935 1.358 . S
C936 H939 0.930 . S
C937 C934 1.348 . S
C937 C935 1.356 . S
H938 C932 0.930 . S
H939 C936 0.930 . S
O940 Li880 1.956 . S
O940 Li881 1.970 . S
O940 Li882 1.961 . S
O940 C884 1.325 . S
O941 Li880 1.970 . S
O941 Li881 1.956 . S
O941 Li883 1.961 . S
O941 C890 1.325 . S
O942 Li880 1.961 . S
O942 Li882 1.956 . S
O942 Li883 1.970 . S
O942 C912 1.325 . S
O943 Li881 1.961 . S
O943 Li882 1.970 . S
O943 Li883 1.956 . S
O943 C918 1.325 1_455 S
H944 C886 0.929 . S
H945 C887 0.930 . S
H946 C888 0.930 . S
H947 C889 0.930 . S
H948 C891 0.930 . S
H949 C893 0.929 . S
H950 C894 0.930 . S
H951 C895 0.930 . S
H952 C898 0.930 . S
H953 C901 0.929 . S
H954 C906 0.929 . S
H955 C907 0.930 . S
H956 C914 0.929 . S
H957 C915 0.930 . S
H958 C916 0.930 . S
H959 C917 0.930 . S
H960 C919 0.929 1_455 S
H961 C920 0.930 . S
H962 C921 0.930 . S
H963 C922 0.930 . S
H964 C926 0.929 1_655 S
H965 C928 0.930 . S
H966 C934 0.929 . S
H967 C935 0.930 . S
Li968 N985 1.990 . S
Li968 O1028 1.956 . S
Li968 O1029 1.970 . S
Li968 O1030 1.961 . S
Li969 N993 1.990 . S
Li969 O1028 1.970 . S
Li969 O1029 1.956 . S
Li969 O1031 1.961 . S
Li970 N1015 1.990 . S
Li970 O1028 1.961 . S
Li970 O1030 1.956 . S
Li970 O1031 1.970 . S
Li971 N1021 1.990 . S
Li971 O1029 1.961 . S
Li971 O1030 1.970 . S
Li971 O1031 1.956 . S
C972 C974 1.348 . S
C972 C975 1.356 . S
C972 O1028 1.325 . S
N973 C976 1.314 . S
N973 C977 1.279 . S
C974 C972 1.348 . S
C974 C976 1.353 . S
C974 H1032 0.929 . S
C975 C972 1.356 . S
C975 C977 1.358 . S
C975 H1033 0.930 . S
C976 N973 1.314 . S
C976 C974 1.353 . S
C976 H1034 0.930 . S
C977 N973 1.279 . S
C977 C975 1.358 . S
C977 H1035 0.930 . S
C978 C981 1.348 . S
C978 C982 1.356 . S
C978 O1029 1.325 . S
C979 N980 1.279 . S
C979 C982 1.358 . S
C979 H1036 0.930 . S
N980 C979 1.279 . S
N980 C983 1.314 . S
C981 C978 1.348 . S
C981 C983 1.353 . S
C981 H1037 0.929 . S
C982 C978 1.356 . S
C982 C979 1.358 . S
C982 H1038 0.930 . S
C983 N980 1.314 . S
C983 C981 1.353 . S
C983 H1039 0.930 . S
C984 N985 1.314 . S
C984 C989 1.353 . S
C984 H990 0.930 . S
N985 Li968 1.990 . S
N985 C984 1.314 . S
N985 C987 1.279 . S
C986 C987 1.358 . S
C986 C988 1.356 . S
C986 H1040 0.930 . S
C987 N985 1.279 . S
C987 C986 1.358 . S
C987 H991 0.930 . S
C988 C986 1.356 . S
C988 C989 1.348 . S
C989 C984 1.353 . S
C989 C988 1.348 . S
C989 H1041 0.929 . S
H990 C984 0.930 . S
H991 C987 0.930 . S
C992 N993 1.314 . S
C992 C994 1.353 . S
C992 H998 0.930 . S
N993 Li969 1.990 . S
N993 C992 1.314 . S
N993 C996 1.279 . S
C994 C992 1.353 . S
C994 C997 1.348 . S
C994 H1042 0.929 . S
C995 C996 1.358 . S
C995 C997 1.356 . S
C995 H1043 0.930 . S
C996 N993 1.279 . S
C996 C995 1.358 . S
C996 H999 0.930 . S
C997 C994 1.348 . S
C997 C995 1.356 . S
H998 C992 0.930 . S
H999 C996 0.930 . S
C1000 C1002 1.348 . S
C1000 C1003 1.356 . S
C1000 O1030 1.325 . S
N1001 C1004 1.314 . S
N1001 C1005 1.279 . S
C1002 C1000 1.348 . S
C1002 C1004 1.353 . S
C1002 H1044 0.929 . S
C1003 C1000 1.356 . S
C1003 C1005 1.358 . S
C1003 H1045 0.930 . S
C1004 N1001 1.314 . S
C1004 C1002 1.353 . S
C1004 H1046 0.930 . S
C1005 N1001 1.279 . S
C1005 C1003 1.358 . S
C1005 H1047 0.930 . S
C1006 C1007 1.348 . S
C1006 C1008 1.356 . S
C1006 O1031 1.325 . S
C1007 C1006 1.348 . S
C1007 C1009 1.353 . S
C1007 H1048 0.929 . S
C1008 C1006 1.356 . S
C1008 C1010 1.358 . S
C1008 H1049 0.930 . S
C1009 C1007 1.353 . S
C1009 N1011 1.314 . S
C1009 H1050 0.930 . S
C1010 C1008 1.358 . S
C1010 N1011 1.279 . S
C1010 H1051 0.930 . S
N1011 C1009 1.314 . S
N1011 C1010 1.279 . S
C1012 C1014 1.353 . S
C1012 N1015 1.314 . S
C1012 H1018 0.930 . S
C1013 N1015 1.279 . S
C1013 C1016 1.358 . S
C1013 H1019 0.930 . S
C1014 C1012 1.353 . S
C1014 C1017 1.348 . S
C1014 H1052 0.929 . S
N1015 Li970 1.990 . S
N1015 C1012 1.314 . S
N1015 C1013 1.279 . S
C1016 C1013 1.358 . S
C1016 C1017 1.356 . S
C1016 H1053 0.930 . S
C1017 C1014 1.348 . S
C1017 C1016 1.356 . S
H1018 C1012 0.930 . S
H1019 C1013 0.930 . S
C1020 N1021 1.314 . S
C1020 C1022 1.353 . S
C1020 H1026 0.930 . S
N1021 Li971 1.990 . S
N1021 C1020 1.314 . S
N1021 C1024 1.279 . S
C1022 C1020 1.353 . S
C1022 C1025 1.348 . S
C1022 H1054 0.929 . S
C1023 C1024 1.358 . S
C1023 C1025 1.356 . S
C1023 H1055 0.930 . S
C1024 N1021 1.279 . S
C1024 C1023 1.358 . S
C1024 H1027 0.930 . S
C1025 C1022 1.348 . S
C1025 C1023 1.356 . S
H1026 C1020 0.930 . S
H1027 C1024 0.930 . S
O1028 Li968 1.956 . S
O1028 Li969 1.970 . S
O1028 Li970 1.961 . S
O1028 C972 1.325 . S
O1029 Li968 1.970 . S
O1029 Li969 1.956 . S
O1029 Li971 1.961 . S
O1029 C978 1.325 . S
O1030 Li968 1.961 . S
O1030 Li970 1.956 . S
O1030 Li971 1.970 . S
O1030 C1000 1.325 . S
O1031 Li969 1.961 . S
O1031 Li970 1.970 . S
O1031 Li971 1.956 . S
O1031 C1006 1.325 . S
H1032 C974 0.929 . S
H1033 C975 0.930 . S
H1034 C976 0.930 . S
H1035 C977 0.930 . S
H1036 C979 0.930 . S
H1037 C981 0.929 . S
H1038 C982 0.930 . S
H1039 C983 0.930 . S
H1040 C986 0.930 . S
H1041 C989 0.929 . S
H1042 C994 0.929 . S
H1043 C995 0.930 . S
H1044 C1002 0.929 . S
H1045 C1003 0.930 . S
H1046 C1004 0.930 . S
H1047 C1005 0.930 . S
H1048 C1007 0.929 . S
H1049 C1008 0.930 . S
H1050 C1009 0.930 . S
H1051 C1010 0.930 . S
H1052 C1014 0.929 . S
H1053 C1016 0.930 . S
H1054 C1022 0.929 . S
H1055 C1023 0.930 . S
Li1056 N1073 1.990 1_545 S
Li1056 O1116 1.956 . S
Li1056 O1117 1.970 . S
Li1056 O1118 1.961 . S
Li1057 N1081 1.990 . S
Li1057 O1116 1.970 . S
Li1057 O1117 1.956 . S
Li1057 O1119 1.961 . S
Li1058 N1103 1.990 . S
Li1058 O1116 1.961 . S
Li1058 O1118 1.956 . S
Li1058 O1119 1.970 . S
Li1059 N1109 1.990 . S
Li1059 O1117 1.961 . S
Li1059 O1118 1.970 . S
Li1059 O1119 1.956 . S
C1060 C1062 1.348 . S
C1060 C1063 1.356 . S
C1060 O1116 1.325 1_565 S
N1061 C1064 1.314 . S
N1061 C1065 1.279 . S
C1062 C1060 1.348 . S
C1062 C1064 1.353 . S
C1062 H1120 0.929 . S
C1063 C1060 1.356 . S
C1063 C1065 1.358 . S
C1063 H1121 0.930 . S
C1064 N1061 1.314 . S
C1064 C1062 1.353 . S
C1064 H1122 0.930 . S
C1065 N1061 1.279 . S
C1065 C1063 1.358 . S
C1065 H1123 0.930 . S
C1066 C1069 1.348 1_545 S
C1066 C1070 1.356 . S
C1066 O1117 1.325 . S
C1067 N1068 1.257 1_545 S
C1067 C1070 1.358 . S
C1067 H1124 0.930 . S
N1068 C1067 1.257 1_565 S
N1068 C1071 1.320 . S
C1069 C1066 1.348 1_565 S
C1069 C1071 1.353 . S
C1069 H1125 0.929 . S
C1070 C1066 1.356 . S
C1070 C1067 1.358 . S
C1070 H1126 0.930 . S
C1071 N1068 1.320 . S
C1071 C1069 1.353 . S
C1071 H1127 0.930 . S
C1072 N1073 1.314 . S
C1072 C1077 1.353 . S
C1072 H1078 0.930 . S
N1073 Li1056 1.990 1_565 S
N1073 C1072 1.314 . S
N1073 C1075 1.279 . S
C1074 C1075 1.358 . S
C1074 C1076 1.356 . S
C1074 H1128 0.930 . S
C1075 N1073 1.279 . S
C1075 C1074 1.358 . S
C1075 H1079 0.930 . S
C1076 C1074 1.356 . S
C1076 C1077 1.348 . S
C1077 C1072 1.353 . S
C1077 C1076 1.348 . S
C1077 H1129 0.929 . S
H1078 C1072 0.930 . S
H1079 C1075 0.930 . S
C1080 N1081 1.314 . S
C1080 C1082 1.353 . S
C1080 H1086 0.930 . S
N1081 Li1057 1.990 . S
N1081 C1080 1.314 . S
N1081 C1084 1.279 . S
C1082 C1080 1.353 . S
C1082 C1085 1.348 . S
C1082 H1130 0.929 . S
C1083 C1084 1.358 . S
C1083 C1085 1.356 . S
C1083 H1131 0.930 . S
C1084 N1081 1.279 . S
C1084 C1083 1.358 . S
C1084 H1087 0.930 . S
C1085 C1082 1.348 . S
C1085 C1083 1.356 . S
H1086 C1080 0.930 . S
H1087 C1084 0.930 . S
C1088 C1090 1.348 . S
C1088 C1091 1.356 . S
C1088 O1118 1.325 . S
N1089 C1092 1.314 . S
N1089 C1093 1.279 . S
C1090 C1088 1.348 . S
C1090 C1092 1.353 . S
C1090 H1132 0.929 . S
C1091 C1088 1.356 . S
C1091 C1093 1.358 . S
C1091 H1133 0.930 . S
C1092 N1089 1.314 . S
C1092 C1090 1.353 . S
C1092 H1134 0.930 . S
C1093 N1089 1.279 . S
C1093 C1091 1.358 . S
C1093 H1135 0.930 . S
C1094 C1095 1.348 . S
C1094 C1096 1.356 . S
C1094 O1119 1.325 . S
C1095 C1094 1.348 . S
C1095 C1097 1.353 . S
C1095 H1136 0.929 . S
C1096 C1094 1.356 . S
C1096 C1098 1.358 . S
C1096 H1137 0.930 . S
C1097 C1095 1.353 . S
C1097 N1099 1.314 . S
C1097 H1138 0.930 . S
C1098 C1096 1.358 . S
C1098 N1099 1.279 . S
C1098 H1139 0.930 . S
N1099 C1097 1.314 . S
N1099 C1098 1.279 . S
C1100 C1102 1.353 . S
C1100 N1103 1.314 . S
C1100 H1106 0.930 . S
C1101 N1103 1.279 . S
C1101 C1104 1.358 . S
C1101 H1107 0.930 . S
C1102 C1100 1.353 . S
C1102 C1105 1.348 . S
C1102 H1140 0.929 . S
N1103 Li1058 1.990 . S
N1103 C1100 1.314 . S
N1103 C1101 1.279 . S
C1104 C1101 1.358 . S
C1104 C1105 1.356 . S
C1104 H1141 0.930 . S
C1105 C1102 1.348 . S
C1105 C1104 1.356 . S
H1106 C1100 0.930 . S
H1107 C1101 0.930 . S
C1108 N1109 1.314 . S
C1108 C1110 1.353 . S
C1108 H1114 0.930 . S
N1109 Li1059 1.990 . S
N1109 C1108 1.314 . S
N1109 C1112 1.279 . S
C1110 C1108 1.353 . S
C1110 C1113 1.348 . S
C1110 H1142 0.929 . S
C1111 C1112 1.358 . S
C1111 C1113 1.356 . S
C1111 H1143 0.930 . S
C1112 N1109 1.279 . S
C1112 C1111 1.358 . S
C1112 H1115 0.930 . S
C1113 C1110 1.348 . S
C1113 C1111 1.356 . S
H1114 C1108 0.930 . S
H1115 C1112 0.930 . S
O1116 Li1056 1.956 . S
O1116 Li1057 1.970 . S
O1116 Li1058 1.961 . S
O1116 C1060 1.325 1_545 S
O1117 Li1056 1.970 . S
O1117 Li1057 1.956 . S
O1117 Li1059 1.961 . S
O1117 C1066 1.325 . S
O1118 Li1056 1.961 . S
O1118 Li1058 1.956 . S
O1118 Li1059 1.970 . S
O1118 C1088 1.325 . S
O1119 Li1057 1.961 . S
O1119 Li1058 1.970 . S
O1119 Li1059 1.956 . S
O1119 C1094 1.325 . S
H1120 C1062 0.929 . S
H1121 C1063 0.930 . S
H1122 C1064 0.930 . S
H1123 C1065 0.930 . S
H1124 C1067 0.930 . S
H1125 C1069 0.929 . S
H1126 C1070 0.930 . S
H1127 C1071 0.930 . S
H1128 C1074 0.930 . S
H1129 C1077 0.929 . S
H1130 C1082 0.929 . S
H1131 C1083 0.930 . S
H1132 C1090 0.929 . S
H1133 C1091 0.930 . S
H1134 C1092 0.930 . S
H1135 C1093 0.930 . S
H1136 C1095 0.929 . S
H1137 C1096 0.930 . S
H1138 C1097 0.930 . S
H1139 C1098 0.930 . S
H1140 C1102 0.929 . S
H1141 C1104 0.930 . S
H1142 C1110 0.929 . S
H1143 C1111 0.930 . S
Li1144 N1161 1.990 1_655 S
Li1144 O1204 1.956 . S
Li1144 O1205 1.970 . S
Li1144 O1206 1.961 . S
Li1145 N1169 1.990 . S
Li1145 O1204 1.970 . S
Li1145 O1205 1.956 . S
Li1145 O1207 1.961 . S
Li1146 N1191 1.990 . S
Li1146 O1204 1.961 . S
Li1146 O1206 1.956 . S
Li1146 O1207 1.970 . S
Li1147 N1197 1.990 . S
Li1147 O1205 1.961 . S
Li1147 O1206 1.970 . S
Li1147 O1207 1.956 . S
C1148 C1150 1.348 . S
C1148 C1151 1.356 . S
C1148 O1204 1.325 1_455 S
N1149 C1152 1.314 . S
N1149 C1153 1.279 . S
C1150 C1148 1.348 . S
C1150 C1152 1.353 . S
C1150 H1208 0.929 . S
C1151 C1148 1.356 . S
C1151 C1153 1.358 . S
C1151 H1209 0.930 . S
C1152 N1149 1.314 . S
C1152 C1150 1.353 . S
C1152 H1210 0.930 . S
C1153 N1149 1.279 . S
C1153 C1151 1.358 . S
C1153 H1211 0.930 . S
C1154 C1157 1.348 1_655 S
C1154 C1158 1.356 . S
C1154 O1205 1.325 . S
C1155 N1156 1.279 1_655 S
C1155 C1158 1.358 . S
C1155 H1212 0.930 . S
N1156 C1155 1.279 1_455 S
N1156 C1159 1.314 . S
C1157 C1154 1.348 1_455 S
C1157 C1159 1.353 . S
C1157 H1213 0.929 . S
C1158 C1154 1.356 . S
C1158 C1155 1.358 . S
C1158 H1214 0.930 . S
C1159 N1156 1.314 . S
C1159 C1157 1.353 . S
C1159 H1215 0.930 . S
C1160 N1161 1.314 . S
C1160 C1165 1.353 . S
C1160 H1166 0.930 . S
N1161 Li1144 1.990 1_455 S
N1161 C1160 1.314 . S
N1161 C1163 1.279 . S
C1162 C1163 1.358 . S
C1162 C1164 1.356 . S
C1162 H1216 0.930 . S
C1163 N1161 1.279 . S
C1163 C1162 1.358 . S
C1163 H1167 0.930 . S
C1164 C1162 1.356 . S
C1164 C1165 1.348 . S
C1165 C1160 1.353 . S
C1165 C1164 1.348 . S
C1165 H1217 0.929 . S
H1166 C1160 0.930 . S
H1167 C1163 0.930 . S
C1168 N1169 1.314 . S
C1168 C1170 1.353 . S
C1168 H1174 0.930 . S
N1169 Li1145 1.990 . S
N1169 C1168 1.314 . S
N1169 C1172 1.279 . S
C1170 C1168 1.353 . S
C1170 C1173 1.348 . S
C1170 H1218 0.929 . S
C1171 C1172 1.358 . S
C1171 C1173 1.356 . S
C1171 H1219 0.930 . S
C1172 N1169 1.279 . S
C1172 C1171 1.358 . S
C1172 H1175 0.930 . S
C1173 C1170 1.348 . S
C1173 C1171 1.356 . S
H1174 C1168 0.930 . S
H1175 C1172 0.930 . S
C1176 C1178 1.348 . S
C1176 C1179 1.356 . S
C1176 O1206 1.325 . S
N1177 C1180 1.314 . S
N1177 C1181 1.279 . S
C1178 C1176 1.348 . S
C1178 C1180 1.353 . S
C1178 H1220 0.929 . S
C1179 C1176 1.356 . S
C1179 C1181 1.358 . S
C1179 H1221 0.930 . S
C1180 N1177 1.314 . S
C1180 C1178 1.353 . S
C1180 H1222 0.930 . S
C1181 N1177 1.279 . S
C1181 C1179 1.358 . S
C1181 H1223 0.930 . S
C1182 C1183 1.348 . S
C1182 C1184 1.356 . S
C1182 O1207 1.325 . S
C1183 C1182 1.348 . S
C1183 C1185 1.353 . S
C1183 H1224 0.929 . S
C1184 C1182 1.356 . S
C1184 C1186 1.358 . S
C1184 H1225 0.930 . S
C1185 C1183 1.353 . S
C1185 N1187 1.314 . S
C1185 H1226 0.930 . S
C1186 C1184 1.358 . S
C1186 N1187 1.279 . S
C1186 H1227 0.930 . S
N1187 C1185 1.314 . S
N1187 C1186 1.279 . S
C1188 C1190 1.353 . S
C1188 N1191 1.314 . S
C1188 H1194 0.930 . S
C1189 N1191 1.279 . S
C1189 C1192 1.358 . S
C1189 H1195 0.930 . S
C1190 C1188 1.353 . S
C1190 C1193 1.348 . S
C1190 H1228 0.929 . S
N1191 Li1146 1.990 . S
N1191 C1188 1.314 . S
N1191 C1189 1.279 . S
C1192 C1189 1.358 . S
C1192 C1193 1.356 . S
C1192 H1229 0.930 . S
C1193 C1190 1.348 . S
C1193 C1192 1.356 . S
H1194 C1188 0.930 . S
H1195 C1189 0.930 . S
C1196 N1197 1.314 . S
C1196 C1198 1.353 . S
C1196 H1202 0.930 . S
N1197 Li1147 1.990 . S
N1197 C1196 1.314 . S
N1197 C1200 1.279 . S
C1198 C1196 1.353 . S
C1198 C1201 1.348 . S
C1198 H1230 0.929 . S
C1199 C1200 1.358 . S
C1199 C1201 1.356 . S
C1199 H1231 0.930 . S
C1200 N1197 1.279 . S
C1200 C1199 1.358 . S
C1200 H1203 0.930 . S
C1201 C1198 1.348 . S
C1201 C1199 1.356 . S
H1202 C1196 0.930 . S
H1203 C1200 0.930 . S
O1204 Li1144 1.956 . S
O1204 Li1145 1.970 . S
O1204 Li1146 1.961 . S
O1204 C1148 1.325 1_655 S
O1205 Li1144 1.970 . S
O1205 Li1145 1.956 . S
O1205 Li1147 1.961 . S
O1205 C1154 1.325 . S
O1206 Li1144 1.961 . S
O1206 Li1146 1.956 . S
O1206 Li1147 1.970 . S
O1206 C1176 1.325 . S
O1207 Li1145 1.961 . S
O1207 Li1146 1.970 . S
O1207 Li1147 1.956 . S
O1207 C1182 1.325 . S
H1208 C1150 0.929 . S
H1209 C1151 0.930 . S
H1210 C1152 0.930 . S
H1211 C1153 0.930 . S
H1212 C1155 0.930 . S
H1213 C1157 0.929 . S
H1214 C1158 0.930 . S
H1215 C1159 0.930 . S
H1216 C1162 0.930 . S
H1217 C1165 0.929 . S
H1218 C1170 0.929 . S
H1219 C1171 0.930 . S
H1220 C1178 0.929 . S
H1221 C1179 0.930 . S
H1222 C1180 0.930 . S
H1223 C1181 0.930 . S
H1224 C1183 0.929 . S
H1225 C1184 0.930 . S
H1226 C1185 0.930 . S
H1227 C1186 0.930 . S
H1228 C1190 0.929 . S
H1229 C1192 0.930 . S
H1230 C1198 0.929 . S
H1231 C1199 0.930 . S
Li1232 N1249 1.990 . S
Li1232 O1292 1.956 . S
Li1232 O1293 1.970 . S
Li1232 O1294 1.961 . S
Li1233 N1257 1.990 . S
Li1233 O1292 1.970 . S
Li1233 O1293 1.956 . S
Li1233 O1295 1.961 . S
Li1234 N1279 1.990 . S
Li1234 O1292 1.961 . S
Li1234 O1294 1.956 . S
Li1234 O1295 1.970 . S
Li1235 N1285 1.990 . S
Li1235 O1293 1.961 . S
Li1235 O1294 1.970 . S
Li1235 O1295 1.956 . S
C1236 C1238 1.348 . S
C1236 C1239 1.356 . S
C1236 O1292 1.325 . S
N1237 C1240 1.314 . S
N1237 C1241 1.279 . S
C1238 C1236 1.348 . S
C1238 C1240 1.353 . S
C1238 H1296 0.929 . S
C1239 C1236 1.356 . S
C1239 C1241 1.358 . S
C1239 H1297 0.930 . S
C1240 N1237 1.314 . S
C1240 C1238 1.353 . S
C1240 H1298 0.930 . S
C1241 N1237 1.279 . S
C1241 C1239 1.358 . S
C1241 H1299 0.930 . S
C1242 C1245 1.348 . S
C1242 C1246 1.356 . S
C1242 O1293 1.325 . S
C1243 N1244 1.279 . S
C1243 C1246 1.358 . S
C1243 H1300 0.930 . S
N1244 C1243 1.279 . S
N1244 C1247 1.314 . S
C1245 C1242 1.348 . S
C1245 C1247 1.353 . S
C1245 H1301 0.929 . S
C1246 C1242 1.356 . S
C1246 C1243 1.358 . S
C1246 H1302 0.930 . S
C1247 N1244 1.314 . S
C1247 C1245 1.353 . S
C1247 H1303 0.930 . S
C1248 N1249 1.314 . S
C1248 C1253 1.353 . S
C1248 H1254 0.930 . S
N1249 Li1232 1.990 . S
N1249 C1248 1.314 . S
N1249 C1251 1.279 . S
C1250 C1251 1.358 . S
C1250 C1252 1.356 . S
C1250 H1304 0.930 . S
C1251 N1249 1.279 . S
C1251 C1250 1.358 . S
C1251 H1255 0.930 . S
C1252 C1250 1.356 . S
C1252 C1253 1.348 . S
C1253 C1248 1.353 . S
C1253 C1252 1.348 . S
C1253 H1305 0.929 . S
H1254 C1248 0.930 . S
H1255 C1251 0.930 . S
C1256 N1257 1.314 . S
C1256 C1258 1.353 . S
C1256 H1262 0.930 . S
N1257 Li1233 1.990 . S
N1257 C1256 1.314 . S
N1257 C1260 1.279 . S
C1258 C1256 1.353 . S
C1258 C1261 1.348 . S
C1258 H1306 0.929 . S
C1259 C1260 1.358 . S
C1259 C1261 1.356 . S
C1259 H1307 0.930 . S
C1260 N1257 1.279 . S
C1260 C1259 1.358 . S
C1260 H1263 0.930 . S
C1261 C1258 1.348 . S
C1261 C1259 1.356 . S
H1262 C1256 0.930 . S
H1263 C1260 0.930 . S
C1264 C1266 1.348 . S
C1264 C1267 1.356 . S
C1264 O1294 1.325 . S
N1265 C1268 1.314 . S
N1265 C1269 1.279 . S
C1266 C1264 1.348 . S
C1266 C1268 1.353 . S
C1266 H1308 0.929 . S
C1267 C1264 1.356 . S
C1267 C1269 1.358 . S
C1267 H1309 0.930 . S
C1268 N1265 1.314 . S
C1268 C1266 1.353 . S
C1268 H1310 0.930 . S
C1269 N1265 1.279 . S
C1269 C1267 1.358 . S
C1269 H1311 0.930 . S
C1270 C1271 1.348 . S
C1270 C1272 1.356 . S
C1270 O1295 1.325 . S
C1271 C1270 1.348 . S
C1271 C1273 1.353 . S
C1271 H1312 0.929 . S
C1272 C1270 1.356 . S
C1272 C1274 1.358 . S
C1272 H1313 0.930 . S
C1273 C1271 1.353 . S
C1273 N1275 1.314 . S
C1273 H1314 0.930 . S
C1274 C1272 1.358 . S
C1274 N1275 1.279 . S
C1274 H1315 0.930 . S
N1275 C1273 1.314 . S
N1275 C1274 1.279 . S
C1276 C1278 1.353 . S
C1276 N1279 1.314 . S
C1276 H1282 0.930 . S
C1277 N1279 1.279 . S
C1277 C1280 1.358 . S
C1277 H1283 0.930 . S
C1278 C1276 1.353 . S
C1278 C1281 1.348 . S
C1278 H1316 0.929 . S
N1279 Li1234 1.990 . S
N1279 C1276 1.314 . S
N1279 C1277 1.279 . S
C1280 C1277 1.358 . S
C1280 C1281 1.356 . S
C1280 H1317 0.930 . S
C1281 C1278 1.348 . S
C1281 C1280 1.356 . S
H1282 C1276 0.930 . S
H1283 C1277 0.930 . S
C1284 N1285 1.314 . S
C1284 C1286 1.353 . S
C1284 H1290 0.930 . S
N1285 Li1235 1.990 . S
N1285 C1284 1.314 . S
N1285 C1288 1.279 . S
C1286 C1284 1.353 . S
C1286 C1289 1.348 . S
C1286 H1318 0.929 . S
C1287 C1288 1.358 . S
C1287 C1289 1.356 . S
C1287 H1319 0.930 . S
C1288 N1285 1.279 . S
C1288 C1287 1.358 . S
C1288 H1291 0.930 . S
C1289 C1286 1.348 . S
C1289 C1287 1.356 . S
H1290 C1284 0.930 . S
H1291 C1288 0.930 . S
O1292 Li1232 1.956 . S
O1292 Li1233 1.970 . S
O1292 Li1234 1.961 . S
O1292 C1236 1.325 . S
O1293 Li1232 1.970 . S
O1293 Li1233 1.956 . S
O1293 Li1235 1.961 . S
O1293 C1242 1.325 . S
O1294 Li1232 1.961 . S
O1294 Li1234 1.956 . S
O1294 Li1235 1.970 . S
O1294 C1264 1.325 . S
O1295 Li1233 1.961 . S
O1295 Li1234 1.970 . S
O1295 Li1235 1.956 . S
O1295 C1270 1.325 . S
H1296 C1238 0.929 . S
H1297 C1239 0.930 . S
H1298 C1240 0.930 . S
H1299 C1241 0.930 . S
H1300 C1243 0.930 . S
H1301 C1245 0.929 . S
H1302 C1246 0.930 . S
H1303 C1247 0.930 . S
H1304 C1250 0.930 . S
H1305 C1253 0.929 . S
H1306 C1258 0.929 . S
H1307 C1259 0.930 . S
H1308 C1266 0.929 . S
H1309 C1267 0.930 . S
H1310 C1268 0.930 . S
H1311 C1269 0.930 . S
H1312 C1271 0.929 . S
H1313 C1272 0.930 . S
H1314 C1273 0.930 . S
H1315 C1274 0.930 . S
H1316 C1278 0.929 . S
H1317 C1280 0.930 . S
H1318 C1286 0.929 . S
H1319 C1287 0.930 . S
Li1320 N1337 1.990 . S
Li1320 O1380 1.956 . S
Li1320 O1381 1.970 . S
Li1320 O1382 1.961 . S
Li1321 N1345 1.990 . S
Li1321 O1380 1.970 . S
Li1321 O1381 1.956 . S
Li1321 O1383 1.961 . S
Li1322 N1367 1.990 . S
Li1322 O1380 1.961 . S
Li1322 O1382 1.956 . S
Li1322 O1383 1.970 . S
Li1323 N1373 1.990 . S
Li1323 O1381 1.961 . S
Li1323 O1382 1.970 . S
Li1323 O1383 1.956 . S
C1324 C1326 1.348 . S
C1324 C1327 1.356 . S
C1324 O1380 1.325 . S
N1325 C1328 1.314 . S
N1325 C1329 1.279 . S
C1326 C1324 1.348 . S
C1326 C1328 1.353 . S
C1326 H1384 0.929 . S
C1327 C1324 1.356 . S
C1327 C1329 1.358 . S
C1327 H1385 0.930 . S
C1328 N1325 1.314 . S
C1328 C1326 1.353 . S
C1328 H1386 0.930 . S
C1329 N1325 1.279 . S
C1329 C1327 1.358 . S
C1329 H1387 0.930 . S
C1330 C1333 1.348 . S
C1330 C1334 1.356 . S
C1330 O1381 1.325 . S
C1331 N1332 1.279 . S
C1331 C1334 1.358 . S
C1331 H1388 0.930 . S
N1332 C1331 1.279 . S
N1332 C1335 1.314 . S
C1333 C1330 1.348 . S
C1333 C1335 1.353 . S
C1333 H1389 0.929 . S
C1334 C1330 1.356 . S
C1334 C1331 1.358 . S
C1334 H1390 0.930 . S
C1335 N1332 1.314 . S
C1335 C1333 1.353 . S
C1335 H1391 0.930 . S
C1336 N1337 1.314 . S
C1336 C1341 1.353 . S
C1336 H1342 0.930 . S
N1337 Li1320 1.990 . S
N1337 C1336 1.314 . S
N1337 C1339 1.279 . S
C1338 C1339 1.358 . S
C1338 C1340 1.356 . S
C1338 H1392 0.930 . S
C1339 N1337 1.279 . S
C1339 C1338 1.358 . S
C1339 H1343 0.930 . S
C1340 C1338 1.356 . S
C1340 C1341 1.348 . S
C1341 C1336 1.353 . S
C1341 C1340 1.348 . S
C1341 H1393 0.929 . S
H1342 C1336 0.930 . S
H1343 C1339 0.930 . S
C1344 N1345 1.314 . S
C1344 C1346 1.353 . S
C1344 H1350 0.930 . S
N1345 Li1321 1.990 . S
N1345 C1344 1.314 . S
N1345 C1348 1.279 . S
C1346 C1344 1.353 . S
C1346 C1349 1.348 . S
C1346 H1394 0.929 . S
C1347 C1348 1.358 . S
C1347 C1349 1.356 . S
C1347 H1395 0.930 . S
C1348 N1345 1.279 . S
C1348 C1347 1.358 . S
C1348 H1351 0.930 . S
C1349 C1346 1.348 . S
C1349 C1347 1.356 . S
H1350 C1344 0.930 . S
H1351 C1348 0.930 . S
C1352 C1354 1.348 . S
C1352 C1355 1.356 . S
C1352 O1382 1.325 . S
N1353 C1356 1.314 . S
N1353 C1357 1.279 . S
C1354 C1352 1.348 . S
C1354 C1356 1.353 . S
C1354 H1396 0.929 . S
C1355 C1352 1.356 . S
C1355 C1357 1.358 . S
C1355 H1397 0.930 . S
C1356 N1353 1.314 . S
C1356 C1354 1.353 . S
C1356 H1398 0.930 . S
C1357 N1353 1.279 . S
C1357 C1355 1.358 . S
C1357 H1399 0.930 . S
C1358 C1359 1.348 . S
C1358 C1360 1.356 . S
C1358 O1383 1.325 . S
C1359 C1358 1.348 . S
C1359 C1361 1.353 . S
C1359 H1400 0.929 . S
C1360 C1358 1.356 . S
C1360 C1362 1.358 . S
C1360 H1401 0.930 . S
C1361 C1359 1.353 . S
C1361 N1363 1.314 . S
C1361 H1402 0.930 . S
C1362 C1360 1.358 . S
C1362 N1363 1.279 . S
C1362 H1403 0.930 . S
N1363 C1361 1.314 . S
N1363 C1362 1.279 . S
C1364 C1366 1.353 . S
C1364 N1367 1.314 . S
C1364 H1370 0.930 . S
C1365 N1367 1.279 . S
C1365 C1368 1.358 . S
C1365 H1371 0.930 . S
C1366 C1364 1.353 . S
C1366 C1369 1.348 . S
C1366 H1404 0.929 . S
N1367 Li1322 1.990 . S
N1367 C1364 1.314 . S
N1367 C1365 1.279 . S
C1368 C1365 1.358 . S
C1368 C1369 1.356 . S
C1368 H1405 0.930 . S
C1369 C1366 1.348 . S
C1369 C1368 1.356 . S
H1370 C1364 0.930 . S
H1371 C1365 0.930 . S
C1372 N1373 1.314 . S
C1372 C1374 1.353 . S
C1372 H1378 0.930 . S
N1373 Li1323 1.990 . S
N1373 C1372 1.314 . S
N1373 C1376 1.279 . S
C1374 C1372 1.353 . S
C1374 C1377 1.348 . S
C1374 H1406 0.929 . S
C1375 C1376 1.358 . S
C1375 C1377 1.356 . S
C1375 H1407 0.930 . S
C1376 N1373 1.279 . S
C1376 C1375 1.358 . S
C1376 H1379 0.930 . S
C1377 C1374 1.348 . S
C1377 C1375 1.356 . S
H1378 C1372 0.930 . S
H1379 C1376 0.930 . S
O1380 Li1320 1.956 . S
O1380 Li1321 1.970 . S
O1380 Li1322 1.961 . S
O1380 C1324 1.325 . S
O1381 Li1320 1.970 . S
O1381 Li1321 1.956 . S
O1381 Li1323 1.961 . S
O1381 C1330 1.325 . S
O1382 Li1320 1.961 . S
O1382 Li1322 1.956 . S
O1382 Li1323 1.970 . S
O1382 C1352 1.325 . S
O1383 Li1321 1.961 . S
O1383 Li1322 1.970 . S
O1383 Li1323 1.956 . S
O1383 C1358 1.325 . S
H1384 C1326 0.929 . S
H1385 C1327 0.930 . S
H1386 C1328 0.930 . S
H1387 C1329 0.930 . S
H1388 C1331 0.930 . S
H1389 C1333 0.929 . S
H1390 C1334 0.930 . S
H1391 C1335 0.930 . S
H1392 C1338 0.930 . S
H1393 C1341 0.929 . S
H1394 C1346 0.929 . S
H1395 C1347 0.930 . S
H1396 C1354 0.929 . S
H1397 C1355 0.930 . S
H1398 C1356 0.930 . S
H1399 C1357 0.930 . S
H1400 C1359 0.929 . S
H1401 C1360 0.930 . S
H1402 C1361 0.930 . S
H1403 C1362 0.930 . S
H1404 C1366 0.929 . S
H1405 C1368 0.930 . S
H1406 C1374 0.929 . S
H1407 C1375 0.930 . S
Li1408 N1425 1.990 . S
Li1408 O1468 1.956 . S
Li1408 O1469 1.970 . S
Li1408 O1470 1.961 . S
Li1409 N1433 1.990 . S
Li1409 O1468 1.970 . S
Li1409 O1469 1.956 . S
Li1409 O1471 1.961 . S
Li1410 N1455 1.990 . S
Li1410 O1468 1.961 . S
Li1410 O1470 1.956 . S
Li1410 O1471 1.970 . S
Li1411 N1461 1.990 1_545 S
Li1411 O1469 1.961 . S
Li1411 O1470 1.970 . S
Li1411 O1471 1.956 . S
C1412 C1414 1.348 . S
C1412 C1415 1.356 . S
C1412 O1468 1.325 . S
N1413 C1416 1.314 . S
N1413 C1417 1.279 . S
C1414 C1412 1.348 . S
C1414 C1416 1.353 . S
C1414 H1472 0.929 . S
C1415 C1412 1.356 . S
C1415 C1417 1.358 . S
C1415 H1473 0.930 . S
C1416 N1413 1.314 . S
C1416 C1414 1.353 . S
C1416 H1474 0.930 . S
C1417 N1413 1.279 . S
C1417 C1415 1.358 . S
C1417 H1475 0.930 . S
C1418 C1421 1.348 . S
C1418 C1422 1.356 . S
C1418 O1469 1.325 1_565 S
C1419 N1420 1.279 . S
C1419 C1422 1.358 . S
C1419 H1476 0.930 . S
N1420 C1419 1.279 . S
N1420 C1423 1.314 . S
C1421 C1418 1.348 . S
C1421 C1423 1.353 . S
C1421 H1477 0.929 1_565 S
C1422 C1418 1.356 . S
C1422 C1419 1.358 . S
C1422 H1478 0.930 . S
C1423 N1420 1.314 . S
C1423 C1421 1.353 . S
C1423 H1479 0.930 . S
C1424 N1425 1.314 . S
C1424 C1429 1.353 . S
C1424 H1430 0.865 1_545 S
N1425 Li1408 1.990 . S
N1425 C1424 1.314 . S
N1425 C1427 1.279 . S
C1426 C1427 1.358 . S
C1426 C1428 1.356 . S
C1426 H1480 0.930 . S
C1427 N1425 1.279 . S
C1427 C1426 1.358 . S
C1427 H1431 0.930 . S
C1428 C1426 1.356 . S
C1428 C1429 1.348 . S
C1429 C1424 1.353 . S
C1429 C1428 1.348 . S
C1429 H1481 0.929 1_545 S
H1430 C1424 0.865 1_565 S
H1431 C1427 0.930 . S
C1432 N1433 1.314 . S
C1432 C1434 1.353 . S
C1432 H1438 0.930 . S
N1433 Li1409 1.990 . S
N1433 C1432 1.314 . S
N1433 C1436 1.279 . S
C1434 C1432 1.353 . S
C1434 C1437 1.348 . S
C1434 H1482 0.929 . S
C1435 C1436 1.358 . S
C1435 C1437 1.356 . S
C1435 H1483 0.930 . S
C1436 N1433 1.279 . S
C1436 C1435 1.358 . S
C1436 H1439 0.930 . S
C1437 C1434 1.348 . S
C1437 C1435 1.356 . S
H1438 C1432 0.930 . S
H1439 C1436 0.930 . S
C1440 C1442 1.348 1_545 S
C1440 C1443 1.356 . S
C1440 O1470 1.325 . S
N1441 C1444 1.307 . S
N1441 C1445 1.286 1_565 S
C1442 C1440 1.348 1_565 S
C1442 C1444 1.353 . S
C1442 H1484 0.929 . S
C1443 C1440 1.356 . S
C1443 C1445 1.358 . S
C1443 H1485 0.930 . S
C1444 N1441 1.307 . S
C1444 C1442 1.353 . S
C1444 H1486 0.930 . S
C1445 N1441 1.286 1_545 S
C1445 C1443 1.358 . S
C1445 H1487 0.930 . S
C1446 C1447 1.348 . S
C1446 C1448 1.356 . S
C1446 O1471 1.325 . S
C1447 C1446 1.348 . S
C1447 C1449 1.353 . S
C1447 H1488 0.929 . S
C1448 C1446 1.356 . S
C1448 C1450 1.358 . S
C1448 H1489 0.930 . S
C1449 C1447 1.353 . S
C1449 N1451 1.314 . S
C1449 H1490 0.930 . S
C1450 C1448 1.358 . S
C1450 N1451 1.279 . S
C1450 H1491 0.930 . S
N1451 C1449 1.314 . S
N1451 C1450 1.279 . S
C1452 C1454 1.353 . S
C1452 N1455 1.314 . S
C1452 H1458 0.930 . S
C1453 N1455 1.279 . S
C1453 C1456 1.358 . S
C1453 H1459 0.930 . S
C1454 C1452 1.353 . S
C1454 C1457 1.348 . S
C1454 H1492 0.929 . S
N1455 Li1410 1.990 . S
N1455 C1452 1.314 . S
N1455 C1453 1.279 . S
C1456 C1453 1.358 . S
C1456 C1457 1.356 . S
C1456 H1493 0.930 . S
C1457 C1454 1.348 . S
C1457 C1456 1.356 . S
H1458 C1452 0.930 . S
H1459 C1453 0.930 . S
C1460 N1461 1.314 . S
C1460 C1462 1.353 . S
C1460 H1466 0.930 . S
N1461 Li1411 1.990 1_565 S
N1461 C1460 1.314 . S
N1461 C1464 1.279 . S
C1462 C1460 1.353 . S
C1462 C1465 1.348 . S
C1462 H1494 0.929 . S
C1463 C1464 1.358 . S
C1463 C1465 1.356 . S
C1463 H1495 0.930 . S
C1464 N1461 1.279 . S
C1464 C1463 1.358 . S
C1464 H1467 0.930 . S
C1465 C1462 1.348 . S
C1465 C1463 1.356 . S
H1466 C1460 0.930 . S
H1467 C1464 0.930 . S
O1468 Li1408 1.956 . S
O1468 Li1409 1.970 . S
O1468 Li1410 1.961 . S
O1468 C1412 1.325 . S
O1469 Li1408 1.970 . S
O1469 Li1409 1.956 . S
O1469 Li1411 1.961 . S
O1469 C1418 1.325 1_545 S
O1470 Li1408 1.961 . S
O1470 Li1410 1.956 . S
O1470 Li1411 1.970 . S
O1470 C1440 1.325 . S
O1471 Li1409 1.961 . S
O1471 Li1410 1.970 . S
O1471 Li1411 1.956 . S
O1471 C1446 1.325 . S
H1472 C1414 0.929 . S
H1473 C1415 0.930 . S
H1474 C1416 0.930 . S
H1475 C1417 0.930 . S
H1476 C1419 0.930 . S
H1477 C1421 0.929 1_545 S
H1478 C1422 0.930 . S
H1479 C1423 0.930 . S
H1480 C1426 0.930 . S
H1481 C1429 0.929 1_565 S
H1482 C1434 0.929 . S
H1483 C1435 0.930 . S
H1484 C1442 0.929 . S
H1485 C1443 0.930 . S
H1486 C1444 0.930 . S
H1487 C1445 0.930 . S
H1488 C1447 0.929 . S
H1489 C1448 0.930 . S
H1490 C1449 0.930 . S
H1491 C1450 0.930 . S
H1492 C1454 0.929 . S
H1493 C1456 0.930 . S
H1494 C1462 0.929 . S
H1495 C1463 0.930 . S
Li1496 N1513 1.990 . S
Li1496 O1556 1.956 . S
Li1496 O1557 1.970 . S
Li1496 O1558 1.961 . S
Li1497 N1521 1.990 . S
Li1497 O1556 1.970 . S
Li1497 O1557 1.956 . S
Li1497 O1559 1.961 . S
Li1498 N1543 1.990 1_655 S
Li1498 O1556 1.961 . S
Li1498 O1558 1.956 . S
Li1498 O1559 1.970 . S
Li1499 N1549 1.990 . S
Li1499 O1557 1.961 . S
Li1499 O1558 1.970 . S
Li1499 O1559 1.956 . S
C1500 C1502 1.348 . S
C1500 C1503 1.356 . S
C1500 O1556 1.325 1_455 S
N1501 C1504 1.314 . S
N1501 C1505 1.279 . S
C1502 C1500 1.348 . S
C1502 C1504 1.353 . S
C1502 H1560 0.929 1_455 S
C1503 C1500 1.356 . S
C1503 C1505 1.358 . S
C1503 H1561 0.930 . S
C1504 N1501 1.314 . S
C1504 C1502 1.353 . S
C1504 H1562 0.930 . S
C1505 N1501 1.279 . S
C1505 C1503 1.358 . S
C1505 H1563 0.930 . S
C1506 C1509 1.348 . S
C1506 C1510 1.356 . S
C1506 O1557 1.325 . S
C1507 N1508 1.279 . S
C1507 C1510 1.358 . S
C1507 H1564 0.930 . S
N1508 C1507 1.279 . S
N1508 C1511 1.314 . S
C1509 C1506 1.348 . S
C1509 C1511 1.353 . S
C1509 H1565 0.929 . S
C1510 C1506 1.356 . S
C1510 C1507 1.358 . S
C1510 H1566 0.930 . S
C1511 N1508 1.314 . S
C1511 C1509 1.353 . S
C1511 H1567 0.930 . S
C1512 N1513 1.314 . S
C1512 C1517 1.353 . S
C1512 H1518 0.930 . S
N1513 Li1496 1.990 . S
N1513 C1512 1.314 . S
N1513 C1515 1.279 . S
C1514 C1515 1.358 . S
C1514 C1516 1.356 . S
C1514 H1568 0.930 . S
C1515 N1513 1.279 . S
C1515 C1514 1.358 . S
C1515 H1519 0.930 . S
C1516 C1514 1.356 . S
C1516 C1517 1.348 . S
C1517 C1512 1.353 . S
C1517 C1516 1.348 . S
C1517 H1569 0.929 . S
H1518 C1512 0.930 . S
H1519 C1515 0.930 . S
C1520 N1521 1.314 . S
C1520 C1522 1.353 . S
C1520 H1526 0.906 1_655 S
N1521 Li1497 1.990 . S
N1521 C1520 1.314 . S
N1521 C1524 1.279 . S
C1522 C1520 1.353 . S
C1522 C1525 1.348 . S
C1522 H1570 0.929 1_655 S
C1523 C1524 1.358 . S
C1523 C1525 1.356 . S
C1523 H1571 0.930 . S
C1524 N1521 1.279 . S
C1524 C1523 1.358 . S
C1524 H1527 0.930 . S
C1525 C1522 1.348 . S
C1525 C1523 1.356 . S
H1526 C1520 0.906 1_455 S
H1527 C1524 0.930 . S
C1528 C1530 1.348 . S
C1528 C1531 1.356 . S
C1528 O1558 1.325 . S
N1529 C1532 1.314 . S
N1529 C1533 1.279 . S
C1530 C1528 1.348 . S
C1530 C1532 1.353 . S
C1530 H1572 0.929 . S
C1531 C1528 1.356 . S
C1531 C1533 1.358 . S
C1531 H1573 0.930 . S
C1532 N1529 1.314 . S
C1532 C1530 1.353 . S
C1532 H1574 0.930 . S
C1533 N1529 1.279 . S
C1533 C1531 1.358 . S
C1533 H1575 0.930 . S
C1534 C1535 1.348 1_655 S
C1534 C1536 1.356 . S
C1534 O1559 1.325 . S
C1535 C1534 1.348 1_455 S
C1535 C1537 1.353 . S
C1535 H1576 0.929 . S
C1536 C1534 1.356 . S
C1536 C1538 1.358 . S
C1536 H1577 0.930 . S
C1537 C1535 1.353 . S
C1537 N1539 1.314 . S
C1537 H1578 0.930 . S
C1538 C1536 1.358 . S
C1538 N1539 1.280 1_655 S
C1538 H1579 0.930 . S
N1539 C1537 1.314 . S
N1539 C1538 1.280 1_455 S
C1540 C1542 1.353 . S
C1540 N1543 1.314 . S
C1540 H1546 0.930 . S
C1541 N1543 1.279 . S
C1541 C1544 1.358 . S
C1541 H1547 0.930 . S
C1542 C1540 1.353 . S
C1542 C1545 1.348 . S
C1542 H1580 0.929 . S
N1543 Li1498 1.990 1_455 S
N1543 C1540 1.314 . S
N1543 C1541 1.279 . S
C1544 C1541 1.358 . S
C1544 C1545 1.356 . S
C1544 H1581 0.930 . S
C1545 C1542 1.348 . S
C1545 C1544 1.356 . S
H1546 C1540 0.930 . S
H1547 C1541 0.930 . S
C1548 N1549 1.314 . S
C1548 C1550 1.353 . S
C1548 H1554 0.930 . S
N1549 Li1499 1.990 . S
N1549 C1548 1.314 . S
N1549 C1552 1.279 . S
C1550 C1548 1.353 . S
C1550 C1553 1.348 . S
C1550 H1582 0.929 . S
C1551 C1552 1.358 . S
C1551 C1553 1.356 . S
C1551 H1583 0.930 . S
C1552 N1549 1.279 . S
C1552 C1551 1.358 . S
C1552 H1555 0.930 . S
C1553 C1550 1.348 . S
C1553 C1551 1.356 . S
H1554 C1548 0.930 . S
H1555 C1552 0.930 . S
O1556 Li1496 1.956 . S
O1556 Li1497 1.970 . S
O1556 Li1498 1.961 . S
O1556 C1500 1.325 1_655 S
O1557 Li1496 1.970 . S
O1557 Li1497 1.956 . S
O1557 Li1499 1.961 . S
O1557 C1506 1.325 . S
O1558 Li1496 1.961 . S
O1558 Li1498 1.956 . S
O1558 Li1499 1.970 . S
O1558 C1528 1.325 . S
O1559 Li1497 1.961 . S
O1559 Li1498 1.970 . S
O1559 Li1499 1.956 . S
O1559 C1534 1.325 . S
H1560 C1502 0.929 1_655 S
H1561 C1503 0.930 . S
H1562 C1504 0.930 . S
H1563 C1505 0.930 . S
H1564 C1507 0.930 . S
H1565 C1509 0.929 . S
H1566 C1510 0.930 . S
H1567 C1511 0.930 . S
H1568 C1514 0.930 . S
H1569 C1517 0.929 . S
H1570 C1522 0.929 1_455 S
H1571 C1523 0.930 . S
H1572 C1530 0.929 . S
H1573 C1531 0.930 . S
H1574 C1532 0.930 . S
H1575 C1533 0.930 . S
H1576 C1535 0.929 . S
H1577 C1536 0.930 . S
H1578 C1537 0.930 . S
H1579 C1538 0.930 . S
H1580 C1542 0.929 . S
H1581 C1544 0.930 . S
H1582 C1550 0.929 . S
H1583 C1551 0.930 . S
H1584 C1603 0.949 . S
H1585 C1604 0.950 . S
H1586 C1606 0.950 . S
H1587 C1607 0.950 . S
H1588 C1609 0.950 . S
H1589 C1612 0.950 . S
H1590 C1613 0.950 . S
H1591 C1615 0.951 . S
H1592 C1616 0.949 . S
H1593 C1618 0.949 . S
H1594 C1619 0.950 . S
H1595 C1621 0.950 . S
H1596 C1622 0.950 . S
H1597 C1624 0.950 . S
H1598 C1627 0.950 . S
H1599 C1628 0.950 . S
H1600 C1630 0.951 . S
H1601 C1631 0.949 . S
C1602 C1603 1.376 . S
C1602 C1607 1.386 . S
C1602 C1608 1.483 . S
C1603 H1584 0.949 . S
C1603 C1602 1.376 . S
C1603 C1604 1.397 . S
C1604 H1585 0.950 . S
C1604 C1603 1.397 . S
C1604 C1605 1.391 . S
C1605 C1604 1.391 . S
C1605 C1606 1.405 . S
C1606 H1586 0.950 . S
C1606 C1605 1.405 . S
C1606 C1607 1.367 . S
C1607 H1587 0.950 . S
C1607 C1602 1.386 . S
C1607 C1606 1.367 . S
C1608 C1602 1.483 . S
C1608 C1609 1.382 . S
C1608 C1610 1.403 . S
C1609 H1588 0.950 . S
C1609 C1608 1.382 . S
C1609 C1625 1.411 . S
C1610 C1608 1.403 . S
C1610 C1611 1.489 . S
C1610 C1624 1.411 . S
C1611 C1610 1.489 . S
C1611 C1612 1.383 . S
C1611 C1616 1.382 . S
C1612 H1589 0.950 . S
C1612 C1611 1.383 . S
C1612 C1613 1.395 . S
C1613 H1590 0.950 . S
C1613 C1612 1.395 . S
C1613 C1614 1.288 . S
C1614 C1613 1.288 . S
C1614 C1615 1.392 . S
C1615 H1591 0.951 . S
C1615 C1614 1.392 . S
C1615 C1616 1.392 . S
C1616 H1592 0.949 . S
C1616 C1611 1.382 . S
C1616 C1615 1.392 . S
C1617 C1618 1.376 . S
C1617 C1622 1.386 . S
C1617 C1623 1.483 . S
C1618 H1593 0.949 . S
C1618 C1617 1.376 . S
C1618 C1619 1.397 . S
C1619 H1594 0.950 . S
C1619 C1618 1.397 . S
C1619 C1620 1.391 . S
C1620 C1619 1.391 . S
C1620 C1621 1.405 . S
C1621 H1595 0.950 . S
C1621 C1620 1.405 . S
C1621 C1622 1.367 . S
C1622 H1596 0.950 . S
C1622 C1617 1.386 . S
C1622 C1621 1.367 . S
C1623 C1617 1.483 . S
C1623 C1624 1.382 . S
C1623 C1625 1.403 . S
C1624 H1597 0.950 . S
C1624 C1610 1.411 . S
C1624 C1623 1.382 . S
C1625 C1609 1.411 . S
C1625 C1623 1.403 . S
C1625 C1626 1.489 . S
C1626 C1625 1.489 . S
C1626 C1627 1.383 . S
C1626 C1631 1.382 . S
C1627 H1598 0.950 . S
C1627 C1626 1.383 . S
C1627 C1628 1.395 . S
C1628 H1599 0.950 . S
C1628 C1627 1.395 . S
C1628 C1629 1.288 . S
C1629 C1628 1.288 . S
C1629 C1630 1.392 . S
C1630 H1600 0.951 . S
C1630 C1629 1.392 . S
C1630 C1631 1.392 . S
C1631 H1601 0.949 . S
C1631 C1626 1.382 . S
C1631 C1630 1.392 . S
H1632 C1651 0.949 . S
H1633 C1652 0.950 . S
H1634 C1654 0.950 . S
H1635 C1655 0.950 . S
H1636 C1657 0.950 . S
H1637 C1660 0.950 . S
H1638 C1661 0.950 . S
H1639 C1663 0.951 . S
H1640 C1664 0.949 . S
H1641 C1666 0.949 . S
H1642 C1667 0.950 . S
H1643 C1669 0.950 . S
H1644 C1670 0.950 . S
H1645 C1672 0.950 . S
H1646 C1675 0.950 . S
H1647 C1676 0.950 . S
H1648 C1678 0.951 . S
H1649 C1679 0.949 . S
C1650 C1651 1.376 . S
C1650 C1655 1.386 . S
C1650 C1656 1.483 . S
C1651 H1632 0.949 . S
C1651 C1650 1.376 . S
C1651 C1652 1.397 . S
C1652 H1633 0.950 . S
C1652 C1651 1.397 . S
C1652 C1653 1.391 . S
C1653 C1652 1.391 . S
C1653 C1654 1.405 . S
C1654 H1634 0.950 . S
C1654 C1653 1.405 . S
C1654 C1655 1.367 . S
C1655 H1635 0.950 . S
C1655 C1650 1.386 . S
C1655 C1654 1.367 . S
C1656 C1650 1.483 . S
C1656 C1657 1.382 . S
C1656 C1658 1.403 . S
C1657 H1636 0.950 . S
C1657 C1656 1.382 . S
C1657 C1673 1.411 . S
C1658 C1656 1.403 . S
C1658 C1659 1.489 . S
C1658 C1672 1.411 . S
C1659 C1658 1.489 . S
C1659 C1660 1.383 . S
C1659 C1664 1.382 . S
C1660 H1637 0.950 . S
C1660 C1659 1.383 . S
C1660 C1661 1.395 . S
C1661 H1638 0.950 . S
C1661 C1660 1.395 . S
C1661 C1662 1.288 . S
C1662 C1661 1.288 . S
C1662 C1663 1.392 . S
C1663 H1639 0.951 . S
C1663 C1662 1.392 . S
C1663 C1664 1.392 . S
C1664 H1640 0.949 . S
C1664 C1659 1.382 . S
C1664 C1663 1.392 . S
C1665 C1666 1.376 . S
C1665 C1670 1.386 . S
C1665 C1671 1.483 . S
C1666 H1641 0.949 . S
C1666 C1665 1.376 . S
C1666 C1667 1.397 . S
C1667 H1642 0.950 . S
C1667 C1666 1.397 . S
C1667 C1668 1.391 . S
C1668 C1667 1.391 . S
C1668 C1669 1.405 . S
C1669 H1643 0.950 . S
C1669 C1668 1.405 . S
C1669 C1670 1.367 . S
C1670 H1644 0.950 . S
C1670 C1665 1.386 . S
C1670 C1669 1.367 . S
C1671 C1665 1.483 . S
C1671 C1672 1.382 . S
C1671 C1673 1.403 . S
C1672 H1645 0.950 . S
C1672 C1658 1.411 . S
C1672 C1671 1.382 . S
C1673 C1657 1.411 . S
C1673 C1671 1.403 . S
C1673 C1674 1.489 . S
C1674 C1673 1.489 . S
C1674 C1675 1.383 . S
C1674 C1679 1.382 . S
C1675 H1646 0.950 . S
C1675 C1674 1.383 . S
C1675 C1676 1.395 . S
C1676 H1647 0.950 . S
C1676 C1675 1.395 . S
C1676 C1677 1.288 . S
C1677 C1676 1.288 . S
C1677 C1678 1.392 . S
C1678 H1648 0.951 . S
C1678 C1677 1.392 . S
C1678 C1679 1.392 . S
C1679 H1649 0.949 . S
C1679 C1674 1.382 . S
C1679 C1678 1.392 . S
H1680 C1699 0.949 . S
H1681 C1700 0.950 . S
H1682 C1702 0.950 . S
H1683 C1703 0.950 . S
H1684 C1705 0.950 . S
H1685 C1708 0.950 . S
H1686 C1709 0.950 . S
H1687 C1711 0.951 . S
H1688 C1712 0.949 . S
H1689 C1714 0.949 . S
H1690 C1715 0.950 . S
H1691 C1717 0.950 . S
H1692 C1718 0.950 . S
H1693 C1720 0.950 . S
H1694 C1723 0.950 . S
H1695 C1724 0.950 . S
H1696 C1726 0.951 . S
H1697 C1727 0.949 . S
C1698 C1699 1.376 . S
C1698 C1703 1.386 . S
C1698 C1704 1.483 . S
C1699 H1680 0.949 . S
C1699 C1698 1.376 . S
C1699 C1700 1.397 . S
C1700 H1681 0.950 . S
C1700 C1699 1.397 . S
C1700 C1701 1.391 . S
C1701 C1700 1.391 . S
C1701 C1702 1.405 . S
C1702 H1682 0.950 . S
C1702 C1701 1.405 . S
C1702 C1703 1.367 . S
C1703 H1683 0.950 . S
C1703 C1698 1.386 . S
C1703 C1702 1.367 . S
C1704 C1698 1.483 . S
C1704 C1705 1.382 . S
C1704 C1706 1.403 . S
C1705 H1684 0.950 . S
C1705 C1704 1.382 . S
C1705 C1721 1.411 . S
C1706 C1704 1.403 . S
C1706 C1707 1.489 . S
C1706 C1720 1.411 . S
C1707 C1706 1.489 . S
C1707 C1708 1.383 . S
C1707 C1712 1.382 . S
C1708 H1685 0.950 . S
C1708 C1707 1.383 . S
C1708 C1709 1.395 . S
C1709 H1686 0.950 . S
C1709 C1708 1.395 . S
C1709 C1710 1.288 . S
C1710 C1709 1.288 . S
C1710 C1711 1.392 . S
C1711 H1687 0.951 . S
C1711 C1710 1.392 . S
C1711 C1712 1.392 . S
C1712 H1688 0.949 . S
C1712 C1707 1.382 . S
C1712 C1711 1.392 . S
C1713 C1714 1.376 . S
C1713 C1718 1.386 . S
C1713 C1719 1.483 . S
C1714 H1689 0.949 . S
C1714 C1713 1.376 . S
C1714 C1715 1.397 . S
C1715 H1690 0.950 . S
C1715 C1714 1.397 . S
C1715 C1716 1.391 . S
C1716 C1715 1.391 . S
C1716 C1717 1.405 . S
C1717 H1691 0.950 . S
C1717 C1716 1.405 . S
C1717 C1718 1.367 . S
C1718 H1692 0.950 . S
C1718 C1713 1.386 . S
C1718 C1717 1.367 . S
C1719 C1713 1.483 . S
C1719 C1720 1.382 . S
C1719 C1721 1.403 . S
C1720 H1693 0.950 . S
C1720 C1706 1.411 . S
C1720 C1719 1.382 . S
C1721 C1705 1.411 . S
C1721 C1719 1.403 . S
C1721 C1722 1.489 . S
C1722 C1721 1.489 . S
C1722 C1723 1.383 . S
C1722 C1727 1.382 . S
C1723 H1694 0.950 . S
C1723 C1722 1.383 . S
C1723 C1724 1.395 . S
C1724 H1695 0.950 . S
C1724 C1723 1.395 . S
C1724 C1725 1.288 . S
C1725 C1724 1.288 . S
C1725 C1726 1.392 . S
C1726 H1696 0.951 . S
C1726 C1725 1.392 . S
C1726 C1727 1.392 . S
C1727 H1697 0.949 . S
C1727 C1722 1.382 . S
C1727 C1726 1.392 . S
H1728 C1747 0.949 . S
H1729 C1748 0.950 . S
H1730 C1750 0.950 . S
H1731 C1751 0.950 . S
H1732 C1753 0.950 . S
H1733 C1756 0.950 . S
H1734 C1757 0.950 . S
H1735 C1759 0.951 . S
H1736 C1760 0.949 . S
H1737 C1762 0.949 . S
H1738 C1763 0.950 . S
H1739 C1765 0.950 . S
H1740 C1766 0.950 . S
H1741 C1768 0.950 . S
H1742 C1771 0.950 . S
H1743 C1772 0.950 . S
H1744 C1774 0.951 . S
H1745 C1775 0.949 . S
C1746 C1747 1.376 . S
C1746 C1751 1.386 . S
C1746 C1752 1.483 . S
C1747 H1728 0.949 . S
C1747 C1746 1.376 . S
C1747 C1748 1.397 . S
C1748 H1729 0.950 . S
C1748 C1747 1.397 . S
C1748 C1749 1.391 . S
C1749 C1748 1.391 . S
C1749 C1750 1.405 . S
C1750 H1730 0.950 . S
C1750 C1749 1.405 . S
C1750 C1751 1.367 . S
C1751 H1731 0.950 . S
C1751 C1746 1.386 . S
C1751 C1750 1.367 . S
C1752 C1746 1.483 . S
C1752 C1753 1.382 . S
C1752 C1754 1.403 . S
C1753 H1732 0.950 . S
C1753 C1752 1.382 . S
C1753 C1769 1.411 . S
C1754 C1752 1.403 . S
C1754 C1755 1.489 . S
C1754 C1768 1.411 . S
C1755 C1754 1.489 . S
C1755 C1756 1.383 . S
C1755 C1760 1.382 . S
C1756 H1733 0.950 . S
C1756 C1755 1.383 . S
C1756 C1757 1.395 . S
C1757 H1734 0.950 . S
C1757 C1756 1.395 . S
C1757 C1758 1.288 . S
C1758 C1757 1.288 . S
C1758 C1759 1.392 . S
C1759 H1735 0.951 . S
C1759 C1758 1.392 . S
C1759 C1760 1.392 . S
C1760 H1736 0.949 . S
C1760 C1755 1.382 . S
C1760 C1759 1.392 . S
C1761 C1762 1.376 . S
C1761 C1766 1.386 . S
C1761 C1767 1.483 . S
C1762 H1737 0.949 . S
C1762 C1761 1.376 . S
C1762 C1763 1.397 . S
C1763 H1738 0.950 . S
C1763 C1762 1.397 . S
C1763 C1764 1.391 . S
C1764 C1763 1.391 . S
C1764 C1765 1.405 . S
C1765 H1739 0.950 . S
C1765 C1764 1.405 . S
C1765 C1766 1.367 . S
C1766 H1740 0.950 . S
C1766 C1761 1.386 . S
C1766 C1765 1.367 . S
C1767 C1761 1.483 . S
C1767 C1768 1.382 . S
C1767 C1769 1.403 . S
C1768 H1741 0.950 . S
C1768 C1754 1.411 . S
C1768 C1767 1.382 . S
C1769 C1753 1.411 . S
C1769 C1767 1.403 . S
C1769 C1770 1.489 . S
C1770 C1769 1.489 . S
C1770 C1771 1.383 . S
C1770 C1775 1.382 . S
C1771 H1742 0.950 . S
C1771 C1770 1.383 . S
C1771 C1772 1.395 . S
C1772 H1743 0.950 . S
C1772 C1771 1.395 . S
C1772 C1773 1.288 . S
C1773 C1772 1.288 . S
C1773 C1774 1.392 . S
C1774 H1744 0.951 . S
C1774 C1773 1.392 . S
C1774 C1775 1.392 . S
C1775 H1745 0.949 . S
C1775 C1770 1.382 . S
C1775 C1774 1.392 . S
H1776 C1795 0.949 . S
H1777 C1796 0.950 . S
H1778 C1798 0.950 . S
H1779 C1799 0.950 . S
H1780 C1801 0.950 . S
H1781 C1804 0.950 . S
H1782 C1805 0.950 . S
H1783 C1807 0.951 . S
H1784 C1808 0.949 . S
H1785 C1810 0.949 . S
H1786 C1811 0.950 . S
H1787 C1813 0.950 . S
H1788 C1814 0.950 . S
H1789 C1816 0.950 . S
H1790 C1819 0.950 . S
H1791 C1820 0.950 . S
H1792 C1822 0.951 . S
H1793 C1823 0.949 . S
C1794 C1795 1.376 . S
C1794 C1799 1.386 . S
C1794 C1800 1.483 . S
C1795 H1776 0.949 . S
C1795 C1794 1.376 . S
C1795 C1796 1.397 . S
C1796 H1777 0.950 . S
C1796 C1795 1.397 . S
C1796 C1797 1.391 . S
C1797 C1796 1.391 . S
C1797 C1798 1.405 . S
C1798 H1778 0.950 . S
C1798 C1797 1.405 . S
C1798 C1799 1.367 . S
C1799 H1779 0.950 . S
C1799 C1794 1.386 . S
C1799 C1798 1.367 . S
C1800 C1794 1.483 . S
C1800 C1801 1.382 . S
C1800 C1802 1.403 . S
C1801 H1780 0.950 . S
C1801 C1800 1.382 . S
C1801 C1817 1.411 . S
C1802 C1800 1.403 . S
C1802 C1803 1.489 . S
C1802 C1816 1.411 . S
C1803 C1802 1.489 . S
C1803 C1804 1.383 . S
C1803 C1808 1.382 . S
C1804 H1781 0.950 . S
C1804 C1803 1.383 . S
C1804 C1805 1.395 . S
C1805 H1782 0.950 . S
C1805 C1804 1.395 . S
C1805 C1806 1.288 . S
C1806 C1805 1.288 . S
C1806 C1807 1.392 . S
C1807 H1783 0.951 . S
C1807 C1806 1.392 . S
C1807 C1808 1.392 . S
C1808 H1784 0.949 . S
C1808 C1803 1.382 . S
C1808 C1807 1.392 . S
C1809 C1810 1.376 . S
C1809 C1814 1.386 . S
C1809 C1815 1.483 . S
C1810 H1785 0.949 . S
C1810 C1809 1.376 . S
C1810 C1811 1.397 . S
C1811 H1786 0.950 . S
C1811 C1810 1.397 . S
C1811 C1812 1.391 . S
C1812 C1811 1.391 . S
C1812 C1813 1.405 . S
C1813 H1787 0.950 . S
C1813 C1812 1.405 . S
C1813 C1814 1.367 . S
C1814 H1788 0.950 . S
C1814 C1809 1.386 . S
C1814 C1813 1.367 . S
C1815 C1809 1.483 . S
C1815 C1816 1.382 . S
C1815 C1817 1.403 . S
C1816 H1789 0.950 . S
C1816 C1802 1.411 . S
C1816 C1815 1.382 . S
C1817 C1801 1.411 . S
C1817 C1815 1.403 . S
C1817 C1818 1.489 . S
C1818 C1817 1.489 . S
C1818 C1819 1.383 . S
C1818 C1823 1.382 . S
C1819 H1790 0.950 . S
C1819 C1818 1.383 . S
C1819 C1820 1.395 . S
C1820 H1791 0.950 . S
C1820 C1819 1.395 . S
C1820 C1821 1.288 . S
C1821 C1820 1.288 . S
C1821 C1822 1.392 . S
C1822 H1792 0.951 . S
C1822 C1821 1.392 . S
C1822 C1823 1.392 . S
C1823 H1793 0.949 . S
C1823 C1818 1.382 . S
C1823 C1822 1.392 . S
H1824 C1843 0.949 . S
H1825 C1844 0.950 . S
H1826 C1846 0.950 . S
H1827 C1847 0.950 . S
H1828 C1849 0.950 . S
H1829 C1852 0.950 . S
H1830 C1853 0.950 . S
H1831 C1855 0.951 . S
H1832 C1856 0.949 . S
H1833 C1858 0.949 . S
H1834 C1859 0.950 . S
H1835 C1861 0.950 . S
H1836 C1862 0.950 . S
H1837 C1864 0.950 . S
H1838 C1867 0.950 . S
H1839 C1868 0.950 . S
H1840 C1870 0.951 . S
H1841 C1871 0.949 . S
C1842 C1843 1.376 . S
C1842 C1847 1.386 . S
C1842 C1848 1.483 . S
C1843 H1824 0.949 . S
C1843 C1842 1.376 . S
C1843 C1844 1.397 . S
C1844 H1825 0.950 . S
C1844 C1843 1.397 . S
C1844 C1845 1.391 . S
C1845 C1844 1.391 . S
C1845 C1846 1.405 . S
C1846 H1826 0.950 . S
C1846 C1845 1.405 . S
C1846 C1847 1.367 . S
C1847 H1827 0.950 . S
C1847 C1842 1.386 . S
C1847 C1846 1.367 . S
C1848 C1842 1.483 . S
C1848 C1849 1.382 . S
C1848 C1850 1.403 . S
C1849 H1828 0.950 . S
C1849 C1848 1.382 . S
C1849 C1865 1.411 . S
C1850 C1848 1.403 . S
C1850 C1851 1.489 . S
C1850 C1864 1.411 . S
C1851 C1850 1.489 . S
C1851 C1852 1.383 . S
C1851 C1856 1.382 . S
C1852 H1829 0.950 . S
C1852 C1851 1.383 . S
C1852 C1853 1.395 . S
C1853 H1830 0.950 . S
C1853 C1852 1.395 . S
C1853 C1854 1.288 . S
C1854 C1853 1.288 . S
C1854 C1855 1.392 . S
C1855 H1831 0.951 . S
C1855 C1854 1.392 . S
C1855 C1856 1.392 . S
C1856 H1832 0.949 . S
C1856 C1851 1.382 . S
C1856 C1855 1.392 . S
C1857 C1858 1.376 . S
C1857 C1862 1.386 . S
C1857 C1863 1.483 . S
C1858 H1833 0.949 . S
C1858 C1857 1.376 . S
C1858 C1859 1.397 . S
C1859 H1834 0.950 . S
C1859 C1858 1.397 . S
C1859 C1860 1.391 . S
C1860 C1859 1.391 . S
C1860 C1861 1.405 . S
C1861 H1835 0.950 . S
C1861 C1860 1.405 . S
C1861 C1862 1.367 . S
C1862 H1836 0.950 . S
C1862 C1857 1.386 . S
C1862 C1861 1.367 . S
C1863 C1857 1.483 . S
C1863 C1864 1.382 . S
C1863 C1865 1.403 . S
C1864 H1837 0.950 . S
C1864 C1850 1.411 . S
C1864 C1863 1.382 . S
C1865 C1849 1.411 . S
C1865 C1863 1.403 . S
C1865 C1866 1.489 . S
C1866 C1865 1.489 . S
C1866 C1867 1.383 . S
C1866 C1871 1.382 . S
C1867 H1838 0.950 . S
C1867 C1866 1.383 . S
C1867 C1868 1.395 . S
C1868 H1839 0.950 . S
C1868 C1867 1.395 . S
C1868 C1869 1.288 . S
C1869 C1868 1.288 . S
C1869 C1870 1.392 . S
C1870 H1840 0.951 . S
C1870 C1869 1.392 . S
C1870 C1871 1.392 . S
C1871 H1841 0.949 . S
C1871 C1866 1.382 . S
C1871 C1870 1.392 . S
H1872 C1891 0.949 . S
H1873 C1892 0.950 . S
H1874 C1894 0.950 . S
H1875 C1895 0.950 . S
H1876 C1897 0.950 . S
H1877 C1900 0.950 . S
H1878 C1901 0.950 . S
H1879 C1903 0.951 . S
H1880 C1904 0.949 . S
H1881 C1906 0.949 . S
H1882 C1907 0.950 . S
H1883 C1909 0.950 . S
H1884 C1910 0.950 . S
H1885 C1912 0.950 . S
H1886 C1915 0.950 . S
H1887 C1916 0.950 . S
H1888 C1918 0.951 . S
H1889 C1919 0.949 . S
C1890 C1891 1.376 . S
C1890 C1895 1.386 . S
C1890 C1896 1.483 . S
C1891 H1872 0.949 . S
C1891 C1890 1.376 . S
C1891 C1892 1.397 . S
C1892 H1873 0.950 . S
C1892 C1891 1.397 . S
C1892 C1893 1.391 . S
C1893 C1892 1.391 . S
C1893 C1894 1.405 . S
C1894 H1874 0.950 . S
C1894 C1893 1.405 . S
C1894 C1895 1.367 . S
C1895 H1875 0.950 . S
C1895 C1890 1.386 . S
C1895 C1894 1.367 . S
C1896 C1890 1.483 . S
C1896 C1897 1.382 . S
C1896 C1898 1.403 . S
C1897 H1876 0.950 . S
C1897 C1896 1.382 . S
C1897 C1913 1.411 . S
C1898 C1896 1.403 . S
C1898 C1899 1.489 . S
C1898 C1912 1.411 . S
C1899 C1898 1.489 . S
C1899 C1900 1.383 . S
C1899 C1904 1.382 . S
C1900 H1877 0.950 . S
C1900 C1899 1.383 . S
C1900 C1901 1.395 . S
C1901 H1878 0.950 . S
C1901 C1900 1.395 . S
C1901 C1902 1.288 . S
C1902 C1901 1.288 . S
C1902 C1903 1.392 . S
C1903 H1879 0.951 . S
C1903 C1902 1.392 . S
C1903 C1904 1.392 . S
C1904 H1880 0.949 . S
C1904 C1899 1.382 . S
C1904 C1903 1.392 . S
C1905 C1906 1.376 . S
C1905 C1910 1.386 . S
C1905 C1911 1.483 . S
C1906 H1881 0.949 . S
C1906 C1905 1.376 . S
C1906 C1907 1.397 . S
C1907 H1882 0.950 . S
C1907 C1906 1.397 . S
C1907 C1908 1.391 . S
C1908 C1907 1.391 . S
C1908 C1909 1.405 . S
C1909 H1883 0.950 . S
C1909 C1908 1.405 . S
C1909 C1910 1.367 . S
C1910 H1884 0.950 . S
C1910 C1905 1.386 . S
C1910 C1909 1.367 . S
C1911 C1905 1.483 . S
C1911 C1912 1.382 . S
C1911 C1913 1.403 . S
C1912 H1885 0.950 . S
C1912 C1898 1.411 . S
C1912 C1911 1.382 . S
C1913 C1897 1.411 . S
C1913 C1911 1.403 . S
C1913 C1914 1.489 . S
C1914 C1913 1.489 . S
C1914 C1915 1.383 . S
C1914 C1919 1.382 . S
C1915 H1886 0.950 . S
C1915 C1914 1.383 . S
C1915 C1916 1.395 . S
C1916 H1887 0.950 . S
C1916 C1915 1.395 . S
C1916 C1917 1.288 . S
C1917 C1916 1.288 . S
C1917 C1918 1.392 . S
C1918 H1888 0.951 . S
C1918 C1917 1.392 . S
C1918 C1919 1.392 . S
C1919 H1889 0.949 . S
C1919 C1914 1.382 . S
C1919 C1918 1.392 . S
H1920 C1939 0.949 . S
H1921 C1940 0.950 . S
H1922 C1942 0.950 . S
H1923 C1943 0.950 . S
H1924 C1945 0.950 . S
H1925 C1948 0.950 . S
H1926 C1949 0.950 . S
H1927 C1951 0.951 . S
H1928 C1952 0.949 . S
H1929 C1954 0.949 . S
H1930 C1955 0.950 . S
H1931 C1957 0.950 . S
H1932 C1958 0.950 . S
H1933 C1960 0.950 . S
H1934 C1963 0.950 . S
H1935 C1964 0.950 . S
H1936 C1966 0.951 . S
H1937 C1967 0.949 . S
C1938 C1939 1.376 . S
C1938 C1943 1.386 . S
C1938 C1944 1.483 . S
C1939 H1920 0.949 . S
C1939 C1938 1.376 . S
C1939 C1940 1.397 . S
C1940 H1921 0.950 . S
C1940 C1939 1.397 . S
C1940 C1941 1.391 . S
C1941 C1940 1.391 . S
C1941 C1942 1.405 . S
C1942 H1922 0.950 . S
C1942 C1941 1.405 . S
C1942 C1943 1.367 . S
C1943 H1923 0.950 . S
C1943 C1938 1.386 . S
C1943 C1942 1.367 . S
C1944 C1938 1.483 . S
C1944 C1945 1.382 . S
C1944 C1946 1.403 . S
C1945 H1924 0.950 . S
C1945 C1944 1.382 . S
C1945 C1961 1.411 . S
C1946 C1944 1.403 . S
C1946 C1947 1.489 . S
C1946 C1960 1.411 . S
C1947 C1946 1.489 . S
C1947 C1948 1.383 . S
C1947 C1952 1.382 . S
C1948 H1925 0.950 . S
C1948 C1947 1.383 . S
C1948 C1949 1.395 . S
C1949 H1926 0.950 . S
C1949 C1948 1.395 . S
C1949 C1950 1.288 . S
C1950 C1949 1.288 . S
C1950 C1951 1.392 . S
C1951 H1927 0.951 . S
C1951 C1950 1.392 . S
C1951 C1952 1.392 . S
C1952 H1928 0.949 . S
C1952 C1947 1.382 . S
C1952 C1951 1.392 . S
C1953 C1954 1.376 . S
C1953 C1958 1.386 . S
C1953 C1959 1.483 . S
C1954 H1929 0.949 . S
C1954 C1953 1.376 . S
C1954 C1955 1.397 . S
C1955 H1930 0.950 . S
C1955 C1954 1.397 . S
C1955 C1956 1.391 . S
C1956 C1955 1.391 . S
C1956 C1957 1.405 . S
C1957 H1931 0.950 . S
C1957 C1956 1.405 . S
C1957 C1958 1.367 . S
C1958 H1932 0.950 . S
C1958 C1953 1.386 . S
C1958 C1957 1.367 . S
C1959 C1953 1.483 . S
C1959 C1960 1.382 . S
C1959 C1961 1.403 . S
C1960 H1933 0.950 . S
C1960 C1946 1.411 . S
C1960 C1959 1.382 . S
C1961 C1945 1.411 . S
C1961 C1959 1.403 . S
C1961 C1962 1.489 . S
C1962 C1961 1.489 . S
C1962 C1963 1.383 . S
C1962 C1967 1.382 . S
C1963 H1934 0.950 . S
C1963 C1962 1.383 . S
C1963 C1964 1.395 . S
C1964 H1935 0.950 . S
C1964 C1963 1.395 . S
C1964 C1965 1.288 . S
C1965 C1964 1.288 . S
C1965 C1966 1.392 . S
C1966 H1936 0.951 . S
C1966 C1965 1.392 . S
C1966 C1967 1.392 . S
C1967 H1937 0.949 . S
C1967 C1962 1.382 . S
C1967 C1966 1.392 . S
H1968 C1987 0.949 . S
H1969 C1988 0.950 . S
H1970 C1990 0.950 . S
H1971 C1991 0.950 . S
H1972 C1993 0.950 . S
H1973 C1996 0.950 . S
H1974 C1997 0.950 . S
H1975 C1999 0.951 . S
H1976 C2000 0.949 . S
H1977 C2002 0.949 . S
H1978 C2003 0.950 . S
H1979 C2005 0.950 . S
H1980 C2006 0.950 . S
H1981 C2008 0.950 . S
H1982 C2011 0.950 . S
H1983 C2012 0.950 . S
H1984 C2014 0.951 . S
H1985 C2015 0.949 . S
C1986 C1987 1.376 . S
C1986 C1991 1.386 . S
C1986 C1992 1.483 . S
C1987 H1968 0.949 . S
C1987 C1986 1.376 . S
C1987 C1988 1.397 . S
C1988 H1969 0.950 . S
C1988 C1987 1.397 . S
C1988 C1989 1.391 . S
C1989 C1988 1.391 . S
C1989 C1990 1.405 . S
C1990 H1970 0.950 . S
C1990 C1989 1.405 . S
C1990 C1991 1.367 . S
C1991 H1971 0.950 . S
C1991 C1986 1.386 . S
C1991 C1990 1.367 . S
C1992 C1986 1.483 . S
C1992 C1993 1.382 . S
C1992 C1994 1.403 . S
C1993 H1972 0.950 . S
C1993 C1992 1.382 . S
C1993 C2009 1.411 . S
C1994 C1992 1.403 . S
C1994 C1995 1.489 . S
C1994 C2008 1.411 . S
C1995 C1994 1.489 . S
C1995 C1996 1.383 . S
C1995 C2000 1.382 . S
C1996 H1973 0.950 . S
C1996 C1995 1.383 . S
C1996 C1997 1.395 . S
C1997 H1974 0.950 . S
C1997 C1996 1.395 . S
C1997 C1998 1.288 . S
C1998 C1997 1.288 . S
C1998 C1999 1.392 . S
C1999 H1975 0.951 . S
C1999 C1998 1.392 . S
C1999 C2000 1.392 . S
C2000 H1976 0.949 . S
C2000 C1995 1.382 . S
C2000 C1999 1.392 . S
C2001 C2002 1.376 . S
C2001 C2006 1.386 . S
C2001 C2007 1.483 . S
C2002 H1977 0.949 . S
C2002 C2001 1.376 . S
C2002 C2003 1.397 . S
C2003 H1978 0.950 . S
C2003 C2002 1.397 . S
C2003 C2004 1.391 . S
C2004 C2003 1.391 . S
C2004 C2005 1.405 . S
C2005 H1979 0.950 . S
C2005 C2004 1.405 . S
C2005 C2006 1.367 . S
C2006 H1980 0.950 . S
C2006 C2001 1.386 . S
C2006 C2005 1.367 . S
C2007 C2001 1.483 . S
C2007 C2008 1.382 . S
C2007 C2009 1.403 . S
C2008 H1981 0.950 . S
C2008 C1994 1.411 . S
C2008 C2007 1.382 . S
C2009 C1993 1.411 . S
C2009 C2007 1.403 . S
C2009 C2010 1.489 . S
C2010 C2009 1.489 . S
C2010 C2011 1.383 . S
C2010 C2015 1.382 . S
C2011 H1982 0.950 . S
C2011 C2010 1.383 . S
C2011 C2012 1.395 . S
C2012 H1983 0.950 . S
C2012 C2011 1.395 . S
C2012 C2013 1.288 . S
C2013 C2012 1.288 . S
C2013 C2014 1.392 . S
C2014 H1984 0.951 . S
C2014 C2013 1.392 . S
C2014 C2015 1.392 . S
C2015 H1985 0.949 . S
C2015 C2010 1.382 . S
C2015 C2014 1.392 . S
H2016 C2035 0.949 . S
H2017 C2036 0.950 . S
H2018 C2038 0.950 . S
H2019 C2039 0.950 . S
H2020 C2041 0.950 . S
H2021 C2044 0.950 . S
H2022 C2045 0.950 . S
H2023 C2047 0.951 . S
H2024 C2048 0.949 . S
H2025 C2050 0.949 . S
H2026 C2051 0.950 . S
H2027 C2053 0.950 . S
H2028 C2054 0.950 . S
H2029 C2056 0.950 . S
H2030 C2059 0.950 . S
H2031 C2060 0.950 . S
H2032 C2062 0.951 . S
H2033 C2063 0.949 . S
C2034 C2035 1.376 . S
C2034 C2039 1.386 1_655 S
C2034 C2040 1.483 . S
C2035 H2016 0.949 . S
C2035 C2034 1.376 . S
C2035 C2036 1.397 . S
C2036 H2017 0.950 . S
C2036 C2035 1.397 . S
C2036 C2037 1.391 . S
C2037 C2036 1.391 . S
C2037 C2038 1.405 1_655 S
C2038 H2018 0.950 . S
C2038 C2037 1.405 1_455 S
C2038 C2039 1.367 . S
C2039 H2019 0.950 . S
C2039 C2034 1.386 1_455 S
C2039 C2038 1.367 . S
C2040 C2034 1.483 . S
C2040 C2041 1.382 . S
C2040 C2042 1.403 1_655 S
C2041 H2020 0.950 . S
C2041 C2040 1.382 . S
C2041 C2057 1.411 . S
C2042 C2040 1.403 1_455 S
C2042 C2043 1.489 . S
C2042 C2056 1.411 . S
C2043 C2042 1.489 . S
C2043 C2044 1.383 1_455 S
C2043 C2048 1.382 . S
C2044 H2021 0.950 . S
C2044 C2043 1.383 1_655 S
C2044 C2045 1.395 . S
C2045 H2022 0.950 . S
C2045 C2044 1.395 . S
C2045 C2046 1.288 1_655 S
C2046 C2045 1.288 1_455 S
C2046 C2047 1.392 . S
C2047 H2023 0.951 . S
C2047 C2046 1.392 . S
C2047 C2048 1.392 . S
C2048 H2024 0.949 . S
C2048 C2043 1.382 . S
C2048 C2047 1.392 . S
C2049 C2050 1.376 . S
C2049 C2054 1.386 1_455 S
C2049 C2055 1.483 . S
C2050 H2025 0.949 . S
C2050 C2049 1.376 . S
C2050 C2051 1.397 . S
C2051 H2026 0.950 . S
C2051 C2050 1.397 . S
C2051 C2052 1.391 . S
C2052 C2051 1.391 . S
C2052 C2053 1.405 1_455 S
C2053 H2027 0.950 . S
C2053 C2052 1.405 1_655 S
C2053 C2054 1.367 . S
C2054 H2028 0.950 . S
C2054 C2049 1.386 1_655 S
C2054 C2053 1.367 . S
C2055 C2049 1.483 . S
C2055 C2056 1.382 . S
C2055 C2057 1.403 1_455 S
C2056 H2029 0.950 . S
C2056 C2042 1.411 . S
C2056 C2055 1.382 . S
C2057 C2041 1.411 . S
C2057 C2055 1.403 1_655 S
C2057 C2058 1.489 . S
C2058 C2057 1.489 . S
C2058 C2059 1.383 1_655 S
C2058 C2063 1.382 . S
C2059 H2030 0.950 . S
C2059 C2058 1.383 1_455 S
C2059 C2060 1.395 . S
C2060 H2031 0.950 . S
C2060 C2059 1.395 . S
C2060 C2061 1.288 1_455 S
C2061 C2060 1.288 1_655 S
C2061 C2062 1.392 . S
C2062 H2032 0.951 . S
C2062 C2061 1.392 . S
C2062 C2063 1.392 . S
C2063 H2033 0.949 . S
C2063 C2058 1.382 . S
C2063 C2062 1.392 . S
H2064 C2083 0.949 . S
H2065 C2084 0.950 . S
H2066 C2086 0.950 . S
H2067 C2087 0.950 . S
H2068 C2089 0.950 . S
H2069 C2092 0.950 . S
H2070 C2093 0.950 . S
H2071 C2095 0.951 . S
H2072 C2096 0.949 . S
H2073 C2098 0.949 . S
H2074 C2099 0.950 . S
H2075 C2101 0.950 . S
H2076 C2102 0.950 . S
H2077 C2104 0.950 . S
H2078 C2107 0.950 . S
H2079 C2108 0.950 . S
H2080 C2110 0.951 . S
H2081 C2111 0.949 . S
C2082 C2083 1.376 . S
C2082 C2087 1.386 . S
C2082 C2088 1.483 . S
C2083 H2064 0.949 . S
C2083 C2082 1.376 . S
C2083 C2084 1.397 . S
C2084 H2065 0.950 . S
C2084 C2083 1.397 . S
C2084 C2085 1.391 . S
C2085 C2084 1.391 . S
C2085 C2086 1.405 . S
C2086 H2066 0.950 . S
C2086 C2085 1.405 . S
C2086 C2087 1.367 . S
C2087 H2067 0.950 . S
C2087 C2082 1.386 . S
C2087 C2086 1.367 . S
C2088 C2082 1.483 . S
C2088 C2089 1.382 . S
C2088 C2090 1.403 . S
C2089 H2068 0.950 . S
C2089 C2088 1.382 . S
C2089 C2105 1.411 . S
C2090 C2088 1.403 . S
C2090 C2091 1.489 . S
C2090 C2104 1.411 . S
C2091 C2090 1.489 . S
C2091 C2092 1.383 . S
C2091 C2096 1.382 . S
C2092 H2069 0.950 . S
C2092 C2091 1.383 . S
C2092 C2093 1.395 . S
C2093 H2070 0.950 . S
C2093 C2092 1.395 . S
C2093 C2094 1.288 . S
C2094 C2093 1.288 . S
C2094 C2095 1.392 . S
C2095 H2071 0.951 . S
C2095 C2094 1.392 . S
C2095 C2096 1.392 . S
C2096 H2072 0.949 . S
C2096 C2091 1.382 . S
C2096 C2095 1.392 . S
C2097 C2098 1.376 . S
C2097 C2102 1.386 . S
C2097 C2103 1.483 . S
C2098 H2073 0.949 . S
C2098 C2097 1.376 . S
C2098 C2099 1.397 . S
C2099 H2074 0.950 . S
C2099 C2098 1.397 . S
C2099 C2100 1.391 . S
C2100 C2099 1.391 . S
C2100 C2101 1.405 . S
C2101 H2075 0.950 . S
C2101 C2100 1.405 . S
C2101 C2102 1.367 . S
C2102 H2076 0.950 . S
C2102 C2097 1.386 . S
C2102 C2101 1.367 . S
C2103 C2097 1.483 . S
C2103 C2104 1.382 . S
C2103 C2105 1.403 . S
C2104 H2077 0.950 . S
C2104 C2090 1.411 . S
C2104 C2103 1.382 . S
C2105 C2089 1.411 . S
C2105 C2103 1.403 . S
C2105 C2106 1.489 . S
C2106 C2105 1.489 . S
C2106 C2107 1.383 . S
C2106 C2111 1.382 . S
C2107 H2078 0.950 . S
C2107 C2106 1.383 . S
C2107 C2108 1.395 . S
C2108 H2079 0.950 . S
C2108 C2107 1.395 . S
C2108 C2109 1.288 . S
C2109 C2108 1.288 . S
C2109 C2110 1.392 . S
C2110 H2080 0.951 . S
C2110 C2109 1.392 . S
C2110 C2111 1.392 . S
C2111 H2081 0.949 . S
C2111 C2106 1.382 . S
C2111 C2110 1.392 . S
H2112 C2131 0.949 . S
H2113 C2132 0.950 . S
H2114 C2134 0.950 . S
H2115 C2135 0.950 . S
H2116 C2137 0.950 . S
H2117 C2140 0.950 . S
H2118 C2141 0.950 . S
H2119 C2143 0.951 . S
H2120 C2144 0.949 . S
H2121 C2146 0.949 . S
H2122 C2147 0.950 . S
H2123 C2149 0.950 . S
H2124 C2150 0.950 . S
H2125 C2152 0.950 . S
H2126 C2155 0.950 . S
H2127 C2156 0.950 . S
H2128 C2158 0.951 . S
H2129 C2159 0.949 . S
C2130 C2131 1.376 . S
C2130 C2135 1.386 1_545 S
C2130 C2136 1.483 . S
C2131 H2112 0.949 . S
C2131 C2130 1.376 . S
C2131 C2132 1.397 . S
C2132 H2113 0.950 . S
C2132 C2131 1.397 . S
C2132 C2133 1.391 . S
C2133 C2132 1.391 . S
C2133 C2134 1.405 1_545 S
C2134 H2114 0.950 . S
C2134 C2133 1.405 1_565 S
C2134 C2135 1.367 . S
C2135 H2115 0.950 . S
C2135 C2130 1.386 1_565 S
C2135 C2134 1.367 . S
C2136 C2130 1.483 . S
C2136 C2137 1.382 . S
C2136 C2138 1.403 1_545 S
C2137 H2116 0.950 . S
C2137 C2136 1.382 . S
C2137 C2153 1.411 . S
C2138 C2136 1.403 1_565 S
C2138 C2139 1.489 . S
C2138 C2152 1.411 . S
C2139 C2138 1.489 . S
C2139 C2140 1.383 1_565 S
C2139 C2144 1.382 . S
C2140 H2117 0.950 . S
C2140 C2139 1.383 1_545 S
C2140 C2141 1.395 . S
C2141 H2118 0.950 . S
C2141 C2140 1.395 . S
C2141 C2142 1.288 1_545 S
C2142 C2141 1.288 1_565 S
C2142 C2143 1.392 . S
C2143 H2119 0.951 . S
C2143 C2142 1.392 . S
C2143 C2144 1.392 . S
C2144 H2120 0.949 . S
C2144 C2139 1.382 . S
C2144 C2143 1.392 . S
C2145 C2146 1.376 . S
C2145 C2150 1.386 1_565 S
C2145 C2151 1.483 . S
C2146 H2121 0.949 . S
C2146 C2145 1.376 . S
C2146 C2147 1.397 . S
C2147 H2122 0.950 . S
C2147 C2146 1.397 . S
C2147 C2148 1.391 . S
C2148 C2147 1.391 . S
C2148 C2149 1.405 1_565 S
C2149 H2123 0.950 . S
C2149 C2148 1.405 1_545 S
C2149 C2150 1.367 . S
C2150 H2124 0.950 . S
C2150 C2145 1.386 1_545 S
C2150 C2149 1.367 . S
C2151 C2145 1.483 . S
C2151 C2152 1.382 . S
C2151 C2153 1.403 1_565 S
C2152 H2125 0.950 . S
C2152 C2138 1.411 . S
C2152 C2151 1.382 . S
C2153 C2137 1.411 . S
C2153 C2151 1.403 1_545 S
C2153 C2154 1.489 . S
C2154 C2153 1.489 . S
C2154 C2155 1.383 1_545 S
C2154 C2159 1.382 . S
C2155 H2126 0.950 . S
C2155 C2154 1.383 1_565 S
C2155 C2156 1.395 . S
C2156 H2127 0.950 . S
C2156 C2155 1.395 . S
C2156 C2157 1.288 1_565 S
C2157 C2156 1.288 1_545 S
C2157 C2158 1.392 . S
C2158 H2128 0.951 . S
C2158 C2157 1.392 . S
C2158 C2159 1.392 . S
C2159 H2129 0.949 . S
C2159 C2154 1.382 . S
C2159 C2158 1.392 . S
H2160 C2179 0.949 . S
H2161 C2180 0.950 . S
H2162 C2182 0.950 . S
H2163 C2183 0.950 . S
H2164 C2185 0.950 . S
H2165 C2188 0.950 . S
H2166 C2189 0.950 . S
H2167 C2191 0.951 . S
H2168 C2192 0.949 . S
H2169 C2194 0.949 . S
H2170 C2195 0.950 . S
H2171 C2197 0.950 . S
H2172 C2198 0.950 . S
H2173 C2200 0.950 . S
H2174 C2203 0.950 . S
H2175 C2204 0.950 . S
H2176 C2206 0.951 . S
H2177 C2207 0.949 . S
C2178 C2179 1.377 . S
C2178 C2183 1.385 1_545 S
C2178 C2184 1.506 . S
C2179 H2160 0.949 . S
C2179 C2178 1.377 . S
C2179 C2180 1.397 . S
C2180 H2161 0.950 . S
C2180 C2179 1.397 . S
C2180 C2181 1.391 1_545 S
C2181 C2180 1.391 1_565 S
C2181 C2182 1.405 . S
C2182 H2162 0.950 . S
C2182 C2181 1.405 . S
C2182 C2183 1.367 . S
C2183 H2163 0.950 . S
C2183 C2178 1.385 1_565 S
C2183 C2182 1.367 . S
C2184 C2178 1.506 . S
C2184 C2185 1.359 . S
C2184 C2186 1.399 1_545 S
C2185 H2164 0.950 . S
C2185 C2184 1.359 . S
C2185 C2201 1.440 . S
C2186 C2184 1.399 1_565 S
C2186 C2187 1.480 . S
C2186 C2200 1.429 . S
C2187 C2186 1.480 . S
C2187 C2188 1.368 1_565 S
C2187 C2192 1.389 . S
C2188 H2165 0.950 . S
C2188 C2187 1.368 1_545 S
C2188 C2189 1.395 . S
C2189 H2166 0.950 . S
C2189 C2188 1.395 . S
C2189 C2190 1.288 . S
C2190 C2189 1.288 . S
C2190 C2191 1.392 1_545 S
C2191 H2167 0.951 . S
C2191 C2190 1.392 1_565 S
C2191 C2192 1.392 . S
C2192 H2168 0.949 . S
C2192 C2187 1.389 . S
C2192 C2191 1.392 . S
C2193 C2194 1.377 1_545 S
C2193 C2198 1.385 . S
C2193 C2199 1.497 1_545 S
C2194 H2169 0.949 . S
C2194 C2193 1.377 1_565 S
C2194 C2195 1.397 . S
C2195 H2170 0.950 . S
C2195 C2194 1.397 . S
C2195 C2196 1.391 1_565 S
C2196 C2195 1.391 1_545 S
C2196 C2197 1.405 . S
C2197 H2171 0.950 . S
C2197 C2196 1.405 . S
C2197 C2198 1.367 . S
C2198 H2172 0.950 . S
C2198 C2193 1.385 . S
C2198 C2197 1.367 . S
C2199 C2193 1.497 1_565 S
C2199 C2200 1.367 . S
C2199 C2201 1.399 1_565 S
C2200 H2173 0.950 . S
C2200 C2186 1.429 . S
C2200 C2199 1.367 . S
C2201 C2185 1.440 . S
C2201 C2199 1.399 1_545 S
C2201 C2202 1.480 . S
C2202 C2201 1.480 . S
C2202 C2203 1.348 1_545 S
C2202 C2207 1.401 . S
C2203 H2174 0.950 . S
C2203 C2202 1.348 1_565 S
C2203 C2204 1.395 . S
C2204 H2175 0.950 . S
C2204 C2203 1.395 . S
C2204 C2205 1.288 . S
C2205 C2204 1.288 . S
C2205 C2206 1.392 1_565 S
C2206 H2176 0.951 . S
C2206 C2205 1.392 1_545 S
C2206 C2207 1.392 . S
C2207 H2177 0.949 . S
C2207 C2202 1.401 . S
C2207 C2206 1.392 . S
H2208 C2227 0.949 . S
H2209 C2228 0.950 . S
H2210 C2230 0.950 . S
H2211 C2231 0.950 . S
H2212 C2233 0.950 . S
H2213 C2236 0.950 . S
H2214 C2237 0.950 . S
H2215 C2239 0.951 . S
H2216 C2240 0.949 . S
H2217 C2242 0.949 . S
H2218 C2243 0.950 . S
H2219 C2245 0.950 . S
H2220 C2246 0.950 . S
H2221 C2248 0.950 . S
H2222 C2251 0.950 . S
H2223 C2252 0.950 . S
H2224 C2254 0.951 . S
H2225 C2255 0.949 . S
C2226 C2227 1.376 . S
C2226 C2231 1.386 1_455 S
C2226 C2232 1.483 . S
C2227 H2208 0.949 . S
C2227 C2226 1.376 . S
C2227 C2228 1.397 . S
C2228 H2209 0.950 . S
C2228 C2227 1.397 . S
C2228 C2229 1.391 . S
C2229 C2228 1.391 . S
C2229 C2230 1.405 1_455 S
C2230 H2210 0.950 . S
C2230 C2229 1.405 1_655 S
C2230 C2231 1.367 . S
C2231 H2211 0.950 . S
C2231 C2226 1.386 1_655 S
C2231 C2230 1.367 . S
C2232 C2226 1.483 . S
C2232 C2233 1.382 . S
C2232 C2234 1.403 1_455 S
C2233 H2212 0.950 . S
C2233 C2232 1.382 . S
C2233 C2249 1.411 . S
C2234 C2232 1.403 1_655 S
C2234 C2235 1.489 . S
C2234 C2248 1.411 . S
C2235 C2234 1.489 . S
C2235 C2236 1.383 1_655 S
C2235 C2240 1.382 . S
C2236 H2213 0.950 . S
C2236 C2235 1.383 1_455 S
C2236 C2237 1.395 . S
C2237 H2214 0.950 . S
C2237 C2236 1.395 . S
C2237 C2238 1.288 1_455 S
C2238 C2237 1.288 1_655 S
C2238 C2239 1.392 . S
C2239 H2215 0.951 . S
C2239 C2238 1.392 . S
C2239 C2240 1.392 . S
C2240 H2216 0.949 . S
C2240 C2235 1.382 . S
C2240 C2239 1.392 . S
C2241 C2242 1.376 . S
C2241 C2246 1.386 1_655 S
C2241 C2247 1.483 . S
C2242 H2217 0.949 . S
C2242 C2241 1.376 . S
C2242 C2243 1.397 . S
C2243 H2218 0.950 . S
C2243 C2242 1.397 . S
C2243 C2244 1.391 . S
C2244 C2243 1.391 . S
C2244 C2245 1.405 1_655 S
C2245 H2219 0.950 . S
C2245 C2244 1.405 1_455 S
C2245 C2246 1.367 . S
C2246 H2220 0.950 . S
C2246 C2241 1.386 1_455 S
C2246 C2245 1.367 . S
C2247 C2241 1.483 . S
C2247 C2248 1.382 . S
C2247 C2249 1.403 1_655 S
C2248 H2221 0.950 . S
C2248 C2234 1.411 . S
C2248 C2247 1.382 . S
C2249 C2233 1.411 . S
C2249 C2247 1.403 1_455 S
C2249 C2250 1.489 . S
C2250 C2249 1.489 . S
C2250 C2251 1.383 1_455 S
C2250 C2255 1.382 . S
C2251 H2222 0.950 . S
C2251 C2250 1.383 1_655 S
C2251 C2252 1.395 . S
C2252 H2223 0.950 . S
C2252 C2251 1.395 . S
C2252 C2253 1.288 1_655 S
C2253 C2252 1.288 1_455 S
C2253 C2254 1.392 . S
C2254 H2224 0.951 . S
C2254 C2253 1.392 . S
C2254 C2255 1.392 . S
C2255 H2225 0.949 . S
C2255 C2250 1.382 . S
C2255 C2254 1.392 . S
H2256 C2275 0.949 . S
H2257 C2276 0.950 . S
H2258 C2278 0.950 . S
H2259 C2279 0.950 . S
H2260 C2281 0.950 . S
H2261 C2284 0.950 . S
H2262 C2285 0.950 . S
H2263 C2287 0.951 . S
H2264 C2288 0.949 . S
H2265 C2290 0.949 . S
H2266 C2291 0.950 . S
H2267 C2293 0.950 . S
H2268 C2294 0.950 . S
H2269 C2296 0.950 . S
H2270 C2299 0.950 . S
H2271 C2300 0.950 . S
H2272 C2302 0.951 . S
H2273 C2303 0.949 . S
C2274 C2275 1.376 . S
C2274 C2279 1.386 . S
C2274 C2280 1.483 . S
C2275 H2256 0.949 . S
C2275 C2274 1.376 . S
C2275 C2276 1.397 . S
C2276 H2257 0.950 . S
C2276 C2275 1.397 . S
C2276 C2277 1.391 . S
C2277 C2276 1.391 . S
C2277 C2278 1.405 . S
C2278 H2258 0.950 . S
C2278 C2277 1.405 . S
C2278 C2279 1.367 . S
C2279 H2259 0.950 . S
C2279 C2274 1.386 . S
C2279 C2278 1.367 . S
C2280 C2274 1.483 . S
C2280 C2281 1.382 . S
C2280 C2282 1.403 . S
C2281 H2260 0.950 . S
C2281 C2280 1.382 . S
C2281 C2297 1.411 . S
C2282 C2280 1.403 . S
C2282 C2283 1.489 . S
C2282 C2296 1.411 . S
C2283 C2282 1.489 . S
C2283 C2284 1.383 . S
C2283 C2288 1.382 . S
C2284 H2261 0.950 . S
C2284 C2283 1.383 . S
C2284 C2285 1.395 . S
C2285 H2262 0.950 . S
C2285 C2284 1.395 . S
C2285 C2286 1.288 . S
C2286 C2285 1.288 . S
C2286 C2287 1.392 . S
C2287 H2263 0.951 . S
C2287 C2286 1.392 . S
C2287 C2288 1.392 . S
C2288 H2264 0.949 . S
C2288 C2283 1.382 . S
C2288 C2287 1.392 . S
C2289 C2290 1.376 . S
C2289 C2294 1.386 . S
C2289 C2295 1.483 . S
C2290 H2265 0.949 . S
C2290 C2289 1.376 . S
C2290 C2291 1.397 . S
C2291 H2266 0.950 . S
C2291 C2290 1.397 . S
C2291 C2292 1.391 . S
C2292 C2291 1.391 . S
C2292 C2293 1.405 . S
C2293 H2267 0.950 . S
C2293 C2292 1.405 . S
C2293 C2294 1.367 . S
C2294 H2268 0.950 . S
C2294 C2289 1.386 . S
C2294 C2293 1.367 . S
C2295 C2289 1.483 . S
C2295 C2296 1.382 . S
C2295 C2297 1.403 . S
C2296 H2269 0.950 . S
C2296 C2282 1.411 . S
C2296 C2295 1.382 . S
C2297 C2281 1.411 . S
C2297 C2295 1.403 . S
C2297 C2298 1.489 . S
C2298 C2297 1.489 . S
C2298 C2299 1.383 . S
C2298 C2303 1.382 . S
C2299 H2270 0.950 . S
C2299 C2298 1.383 . S
C2299 C2300 1.395 . S
C2300 H2271 0.950 . S
C2300 C2299 1.395 . S
C2300 C2301 1.288 . S
C2301 C2300 1.288 . S
C2301 C2302 1.392 . S
C2302 H2272 0.951 . S
C2302 C2301 1.392 . S
C2302 C2303 1.392 . S
C2303 H2273 0.949 . S
C2303 C2298 1.382 . S
C2303 C2302 1.392 . S
H2304 C2323 0.949 . S
H2305 C2324 0.950 . S
H2306 C2326 0.950 . S
H2307 C2327 0.950 . S
H2308 C2329 0.950 . S
H2309 C2332 0.950 . S
H2310 C2333 0.950 . S
H2311 C2335 0.951 . S
H2312 C2336 0.949 . S
H2313 C2338 0.949 . S
H2314 C2339 0.950 . S
H2315 C2341 0.950 . S
H2316 C2342 0.950 . S
H2317 C2344 0.950 . S
H2318 C2347 0.950 . S
H2319 C2348 0.950 . S
H2320 C2350 0.951 . S
H2321 C2351 0.949 . S
C2322 C2323 1.376 . S
C2322 C2327 1.386 . S
C2322 C2328 1.483 . S
C2323 H2304 0.949 . S
C2323 C2322 1.376 . S
C2323 C2324 1.397 . S
C2324 H2305 0.950 . S
C2324 C2323 1.397 . S
C2324 C2325 1.391 . S
C2325 C2324 1.391 . S
C2325 C2326 1.405 . S
C2326 H2306 0.950 . S
C2326 C2325 1.405 . S
C2326 C2327 1.367 . S
C2327 H2307 0.950 . S
C2327 C2322 1.386 . S
C2327 C2326 1.367 . S
C2328 C2322 1.483 . S
C2328 C2329 1.382 . S
C2328 C2330 1.403 . S
C2329 H2308 0.950 . S
C2329 C2328 1.382 . S
C2329 C2345 1.411 . S
C2330 C2328 1.403 . S
C2330 C2331 1.489 . S
C2330 C2344 1.411 . S
C2331 C2330 1.489 . S
C2331 C2332 1.383 . S
C2331 C2336 1.382 . S
C2332 H2309 0.950 . S
C2332 C2331 1.383 . S
C2332 C2333 1.395 . S
C2333 H2310 0.950 . S
C2333 C2332 1.395 . S
C2333 C2334 1.288 . S
C2334 C2333 1.288 . S
C2334 C2335 1.392 . S
C2335 H2311 0.951 . S
C2335 C2334 1.392 . S
C2335 C2336 1.392 . S
C2336 H2312 0.949 . S
C2336 C2331 1.382 . S
C2336 C2335 1.392 . S
C2337 C2338 1.376 . S
C2337 C2342 1.386 . S
C2337 C2343 1.483 . S
C2338 H2313 0.949 . S
C2338 C2337 1.376 . S
C2338 C2339 1.397 . S
C2339 H2314 0.950 . S
C2339 C2338 1.397 . S
C2339 C2340 1.391 . S
C2340 C2339 1.391 . S
C2340 C2341 1.405 . S
C2341 H2315 0.950 . S
C2341 C2340 1.405 . S
C2341 C2342 1.367 . S
C2342 H2316 0.950 . S
C2342 C2337 1.386 . S
C2342 C2341 1.367 . S
C2343 C2337 1.483 . S
C2343 C2344 1.382 . S
C2343 C2345 1.403 . S
C2344 H2317 0.950 . S
C2344 C2330 1.411 . S
C2344 C2343 1.382 . S
C2345 C2329 1.411 . S
C2345 C2343 1.403 . S
C2345 C2346 1.489 . S
C2346 C2345 1.489 . S
C2346 C2347 1.383 . S
C2346 C2351 1.382 . S
C2347 H2318 0.950 . S
C2347 C2346 1.383 . S
C2347 C2348 1.395 . S
C2348 H2319 0.950 . S
C2348 C2347 1.395 . S
C2348 C2349 1.288 . S
C2349 C2348 1.288 . S
C2349 C2350 1.392 . S
C2350 H2320 0.951 . S
C2350 C2349 1.392 . S
C2350 C2351 1.392 . S
C2351 H2321 0.949 . S
C2351 C2346 1.382 . S
C2351 C2350 1.392 . S
H2352 C2371 0.949 . S
H2353 C2372 0.950 . S
H2354 C2374 0.950 . S
H2355 C2375 0.950 . S
H2356 C2377 0.950 . S
H2357 C2380 0.950 . S
H2358 C2381 0.950 . S
H2359 C2383 0.951 . S
H2360 C2384 0.949 . S
H2361 C2386 0.949 . S
H2362 C2387 0.950 . S
H2363 C2389 0.950 . S
H2364 C2390 0.950 . S
H2365 C2392 0.950 . S
H2366 C2395 0.950 . S
H2367 C2396 0.950 . S
H2368 C2398 0.951 . S
H2369 C2399 0.949 . S
C2370 C2371 1.376 . S
C2370 C2375 1.386 . S
C2370 C2376 1.483 . S
C2371 H2352 0.949 . S
C2371 C2370 1.376 . S
C2371 C2372 1.397 . S
C2372 H2353 0.950 . S
C2372 C2371 1.397 . S
C2372 C2373 1.391 . S
C2373 C2372 1.391 . S
C2373 C2374 1.405 . S
C2374 H2354 0.950 . S
C2374 C2373 1.405 . S
C2374 C2375 1.367 . S
C2375 H2355 0.950 . S
C2375 C2370 1.386 . S
C2375 C2374 1.367 . S
C2376 C2370 1.483 . S
C2376 C2377 1.382 . S
C2376 C2378 1.403 . S
C2377 H2356 0.950 . S
C2377 C2376 1.382 . S
C2377 C2393 1.411 . S
C2378 C2376 1.403 . S
C2378 C2379 1.489 . S
C2378 C2392 1.411 . S
C2379 C2378 1.489 . S
C2379 C2380 1.383 . S
C2379 C2384 1.382 . S
C2380 H2357 0.950 . S
C2380 C2379 1.383 . S
C2380 C2381 1.395 . S
C2381 H2358 0.950 . S
C2381 C2380 1.395 . S
C2381 C2382 1.288 . S
C2382 C2381 1.288 . S
C2382 C2383 1.392 . S
C2383 H2359 0.951 . S
C2383 C2382 1.392 . S
C2383 C2384 1.392 . S
C2384 H2360 0.949 . S
C2384 C2379 1.382 . S
C2384 C2383 1.392 . S
C2385 C2386 1.376 . S
C2385 C2390 1.386 . S
C2385 C2391 1.483 . S
C2386 H2361 0.949 . S
C2386 C2385 1.376 . S
C2386 C2387 1.397 . S
C2387 H2362 0.950 . S
C2387 C2386 1.397 . S
C2387 C2388 1.391 . S
C2388 C2387 1.391 . S
C2388 C2389 1.405 . S
C2389 H2363 0.950 . S
C2389 C2388 1.405 . S
C2389 C2390 1.367 . S
C2390 H2364 0.950 . S
C2390 C2385 1.386 . S
C2390 C2389 1.367 . S
C2391 C2385 1.483 . S
C2391 C2392 1.382 . S
C2391 C2393 1.403 . S
C2392 H2365 0.950 . S
C2392 C2378 1.411 . S
C2392 C2391 1.382 . S
C2393 C2377 1.411 . S
C2393 C2391 1.403 . S
C2393 C2394 1.489 . S
C2394 C2393 1.489 . S
C2394 C2395 1.383 . S
C2394 C2399 1.382 . S
C2395 H2366 0.950 . S
C2395 C2394 1.383 . S
C2395 C2396 1.395 . S
C2396 H2367 0.950 . S
C2396 C2395 1.395 . S
C2396 C2397 1.288 . S
C2397 C2396 1.288 . S
C2397 C2398 1.392 . S
C2398 H2368 0.951 . S
C2398 C2397 1.392 . S
C2398 C2399 1.392 . S
C2399 H2369 0.949 . S
C2399 C2394 1.382 . S
C2399 C2398 1.392 . S
H2400 C2419 0.949 . S
H2401 C2420 0.950 . S
H2402 C2422 0.950 . S
H2403 C2423 0.950 . S
H2404 C2425 0.950 . S
H2405 C2428 0.950 . S
H2406 C2429 0.950 . S
H2407 C2431 0.951 . S
H2408 C2432 0.949 . S
H2409 C2434 0.949 . S
H2410 C2435 0.950 . S
H2411 C2437 0.950 . S
H2412 C2438 0.950 . S
H2413 C2440 0.950 . S
H2414 C2443 0.950 . S
H2415 C2444 0.950 . S
H2416 C2446 0.951 . S
H2417 C2447 0.949 . S
C2418 C2419 1.376 . S
C2418 C2423 1.386 . S
C2418 C2424 1.483 . S
C2419 H2400 0.949 . S
C2419 C2418 1.376 . S
C2419 C2420 1.397 . S
C2420 H2401 0.950 . S
C2420 C2419 1.397 . S
C2420 C2421 1.391 . S
C2421 C2420 1.391 . S
C2421 C2422 1.405 . S
C2422 H2402 0.950 . S
C2422 C2421 1.405 . S
C2422 C2423 1.367 . S
C2423 H2403 0.950 . S
C2423 C2418 1.386 . S
C2423 C2422 1.367 . S
C2424 C2418 1.483 . S
C2424 C2425 1.382 . S
C2424 C2426 1.403 . S
C2425 H2404 0.950 . S
C2425 C2424 1.382 . S
C2425 C2441 1.411 . S
C2426 C2424 1.403 . S
C2426 C2427 1.489 . S
C2426 C2440 1.411 . S
C2427 C2426 1.489 . S
C2427 C2428 1.383 . S
C2427 C2432 1.382 . S
C2428 H2405 0.950 . S
C2428 C2427 1.383 . S
C2428 C2429 1.395 . S
C2429 H2406 0.950 . S
C2429 C2428 1.395 . S
C2429 C2430 1.288 . S
C2430 C2429 1.288 . S
C2430 C2431 1.392 . S
C2431 H2407 0.951 . S
C2431 C2430 1.392 . S
C2431 C2432 1.392 . S
C2432 H2408 0.949 . S
C2432 C2427 1.382 . S
C2432 C2431 1.392 . S
C2433 C2434 1.376 . S
C2433 C2438 1.386 . S
C2433 C2439 1.483 . S
C2434 H2409 0.949 . S
C2434 C2433 1.376 . S
C2434 C2435 1.397 . S
C2435 H2410 0.950 . S
C2435 C2434 1.397 . S
C2435 C2436 1.391 . S
C2436 C2435 1.391 . S
C2436 C2437 1.405 . S
C2437 H2411 0.950 . S
C2437 C2436 1.405 . S
C2437 C2438 1.367 . S
C2438 H2412 0.950 . S
C2438 C2433 1.386 . S
C2438 C2437 1.367 . S
C2439 C2433 1.483 . S
C2439 C2440 1.382 . S
C2439 C2441 1.403 . S
C2440 H2413 0.950 . S
C2440 C2426 1.411 . S
C2440 C2439 1.382 . S
C2441 C2425 1.411 . S
C2441 C2439 1.403 . S
C2441 C2442 1.489 . S
C2442 C2441 1.489 . S
C2442 C2443 1.383 . S
C2442 C2447 1.382 . S
C2443 H2414 0.950 . S
C2443 C2442 1.383 . S
C2443 C2444 1.395 . S
C2444 H2415 0.950 . S
C2444 C2443 1.395 . S
C2444 C2445 1.288 . S
C2445 C2444 1.288 . S
C2445 C2446 1.392 . S
C2446 H2416 0.951 . S
C2446 C2445 1.392 . S
C2446 C2447 1.392 . S
C2447 H2417 0.949 . S
C2447 C2442 1.382 . S
C2447 C2446 1.392 . S
H2448 C2460 0.930 . S
H2449 C2462 0.930 . S
H2450 C2463 0.930 . S
H2451 C2467 0.959 . S
H2452 C2467 0.959 . S
H2453 C2467 0.961 . S
H2454 C2468 0.960 . S
H2455 C2468 0.961 . S
H2456 C2468 0.959 . S
H2457 C2471 0.929 . S
H2458 C2472 0.931 . S
H2459 C2474 0.930 . S
C2460 H2448 0.930 . S
C2460 C2461 1.399 . S
C2460 C2465 1.399 . S
C2461 C2460 1.399 . S
C2461 C2462 1.376 . S
C2462 H2449 0.930 . S
C2462 C2461 1.376 . S
C2462 C2463 1.388 . S
C2463 H2450 0.930 . S
C2463 C2462 1.388 . S
C2463 C2464 1.390 . S
C2464 C2463 1.390 . S
C2464 C2465 1.394 . S
C2464 C2470 1.465 . S
C2465 C2460 1.399 . S
C2465 C2464 1.394 . S
C2465 C2466 1.516 . S
C2466 C2465 1.516 . S
C2466 C2467 1.502 . S
C2466 C2468 1.561 1_655 S
C2466 C2469 1.526 . S
C2467 H2451 0.959 . S
C2467 H2452 0.959 . S
C2467 H2453 0.961 . S
C2467 C2466 1.502 . S
C2468 H2454 0.960 . S
C2468 H2455 0.961 . S
C2468 H2456 0.959 . S
C2468 C2466 1.561 1_455 S
C2469 C2466 1.526 . S
C2469 C2470 1.396 . S
C2469 C2474 1.390 . S
C2470 C2464 1.465 . S
C2470 C2469 1.396 . S
C2470 C2471 1.399 . S
C2471 H2457 0.929 . S
C2471 C2470 1.399 . S
C2471 C2472 1.385 . S
C2472 H2458 0.931 . S
C2472 C2471 1.385 . S
C2472 C2473 1.389 . S
C2473 C2472 1.389 . S
C2473 C2474 1.387 . S
C2474 H2459 0.930 . S
C2474 C2469 1.390 . S
C2474 C2473 1.387 . S
H2475 C2487 0.930 . S
H2476 C2489 0.930 . S
H2477 C2490 0.930 . S
H2478 C2494 0.959 . S
H2479 C2494 0.959 . S
H2480 C2494 0.961 . S
H2481 C2495 0.960 . S
H2482 C2495 0.961 . S
H2483 C2495 0.959 . S
H2484 C2498 0.929 . S
H2485 C2499 0.931 . S
H2486 C2501 0.930 . S
C2487 H2475 0.930 . S
C2487 C2488 1.399 . S
C2487 C2492 1.399 . S
C2488 C2487 1.399 . S
C2488 C2489 1.376 . S
C2489 H2476 0.930 . S
C2489 C2488 1.376 . S
C2489 C2490 1.388 . S
C2490 H2477 0.930 . S
C2490 C2489 1.388 . S
C2490 C2491 1.390 . S
C2491 C2490 1.390 . S
C2491 C2492 1.394 . S
C2491 C2497 1.465 . S
C2492 C2487 1.399 . S
C2492 C2491 1.394 . S
C2492 C2493 1.516 . S
C2493 C2492 1.516 . S
C2493 C2494 1.502 . S
C2493 C2495 1.561 . S
C2493 C2496 1.526 . S
C2494 H2478 0.959 . S
C2494 H2479 0.959 . S
C2494 H2480 0.961 . S
C2494 C2493 1.502 . S
C2495 H2481 0.960 . S
C2495 H2482 0.961 . S
C2495 H2483 0.959 . S
C2495 C2493 1.561 . S
C2496 C2493 1.526 . S
C2496 C2497 1.396 . S
C2496 C2501 1.390 . S
C2497 C2491 1.465 . S
C2497 C2496 1.396 . S
C2497 C2498 1.399 . S
C2498 H2484 0.929 . S
C2498 C2497 1.399 . S
C2498 C2499 1.385 . S
C2499 H2485 0.931 . S
C2499 C2498 1.385 . S
C2499 C2500 1.389 . S
C2500 C2499 1.389 . S
C2500 C2501 1.387 . S
C2501 H2486 0.930 . S
C2501 C2496 1.390 . S
C2501 C2500 1.387 . S
H2502 C2514 0.930 . S
H2503 C2516 0.930 1_565 S
H2504 C2517 0.930 . S
H2505 C2521 0.959 . S
H2506 C2521 0.959 . S
H2507 C2521 0.961 . S
H2508 C2522 0.960 . S
H2509 C2522 0.961 . S
H2510 C2522 0.959 . S
H2511 C2525 0.929 . S
H2512 C2526 0.931 . S
H2513 C2528 0.930 . S
C2514 H2502 0.930 . S
C2514 C2515 1.399 . S
C2514 C2519 1.399 . S
C2515 C2514 1.399 . S
C2515 C2516 1.376 . S
C2516 H2503 0.930 1_545 S
C2516 C2515 1.376 . S
C2516 C2517 1.388 1_545 S
C2517 H2504 0.930 . S
C2517 C2516 1.388 1_565 S
C2517 C2518 1.390 1_565 S
C2518 C2517 1.390 1_545 S
C2518 C2519 1.394 . S
C2518 C2524 1.465 . S
C2519 C2514 1.399 . S
C2519 C2518 1.394 . S
C2519 C2520 1.516 . S
C2520 C2519 1.516 . S
C2520 C2521 1.502 . S
C2520 C2522 1.561 . S
C2520 C2523 1.526 . S
C2521 H2505 0.959 . S
C2521 H2506 0.959 . S
C2521 H2507 0.961 . S
C2521 C2520 1.502 . S
C2522 H2508 0.960 . S
C2522 H2509 0.961 . S
C2522 H2510 0.959 . S
C2522 C2520 1.561 . S
C2523 C2520 1.526 . S
C2523 C2524 1.396 . S
C2523 C2528 1.390 . S
C2524 C2518 1.465 . S
C2524 C2523 1.396 . S
C2524 C2525 1.399 1_545 S
C2525 H2511 0.929 . S
C2525 C2524 1.399 1_565 S
C2525 C2526 1.385 . S
C2526 H2512 0.931 . S
C2526 C2525 1.385 . S
C2526 C2527 1.389 1_565 S
C2527 C2526 1.389 1_545 S
C2527 C2528 1.387 . S
C2528 H2513 0.930 . S
C2528 C2523 1.390 . S
C2528 C2527 1.387 . S
H2529 C2541 0.930 1_545 S
H2530 C2543 0.930 . S
H2531 C2544 0.930 . S
H2532 C2548 0.959 . S
H2533 C2548 0.959 . S
H2534 C2548 0.961 . S
H2535 C2549 0.960 . S
H2536 C2549 0.961 . S
H2537 C2549 0.959 . S
H2538 C2552 0.929 . S
H2539 C2553 0.931 . S
H2540 C2555 0.930 . S
C2541 H2529 0.930 1_565 S
C2541 C2542 1.399 . S
C2541 C2546 1.399 . S
C2542 C2541 1.399 . S
C2542 C2543 1.376 . S
C2543 H2530 0.930 . S
C2543 C2542 1.376 . S
C2543 C2544 1.388 . S
C2544 H2531 0.930 . S
C2544 C2543 1.388 . S
C2544 C2545 1.390 . S
C2545 C2544 1.390 . S
C2545 C2546 1.394 . S
C2545 C2551 1.465 . S
C2546 C2541 1.399 . S
C2546 C2545 1.394 . S
C2546 C2547 1.516 1_565 S
C2547 C2546 1.516 1_545 S
C2547 C2548 1.502 . S
C2547 C2549 1.561 . S
C2547 C2550 1.526 1_545 S
C2548 H2532 0.959 . S
C2548 H2533 0.959 . S
C2548 H2534 0.961 . S
C2548 C2547 1.502 . S
C2549 H2535 0.960 . S
C2549 H2536 0.961 . S
C2549 H2537 0.959 . S
C2549 C2547 1.561 . S
C2550 C2547 1.526 1_565 S
C2550 C2551 1.396 . S
C2550 C2555 1.390 1_565 S
C2551 C2545 1.465 . S
C2551 C2550 1.396 . S
C2551 C2552 1.399 . S
C2552 H2538 0.929 . S
C2552 C2551 1.399 . S
C2552 C2553 1.385 . S
C2553 H2539 0.931 . S
C2553 C2552 1.385 . S
C2553 C2554 1.389 . S
C2554 C2553 1.389 . S
C2554 C2555 1.387 1_565 S
C2555 H2540 0.930 . S
C2555 C2550 1.390 1_545 S
C2555 C2554 1.387 1_545 S
H2556 C2568 0.919 1_655 S
H2557 C2570 0.930 . S
H2558 C2571 0.930 . S
H2559 C2575 0.959 . S
H2560 C2575 0.959 . S
H2561 C2575 0.961 . S
H2562 C2576 0.960 . S
H2563 C2576 0.961 . S
H2564 C2576 0.959 . S
H2565 C2579 0.929 . S
H2566 C2580 0.931 . S
H2567 C2582 0.930 . S
C2568 H2556 0.919 1_455 S
C2568 C2569 1.399 . S
C2568 C2573 1.399 . S
C2569 C2568 1.399 . S
C2569 C2570 1.376 . S
C2570 H2557 0.930 . S
C2570 C2569 1.376 . S
C2570 C2571 1.388 . S
C2571 H2558 0.930 . S
C2571 C2570 1.388 . S
C2571 C2572 1.390 . S
C2572 C2571 1.390 . S
C2572 C2573 1.394 . S
C2572 C2578 1.465 . S
C2573 C2568 1.399 . S
C2573 C2572 1.394 . S
C2573 C2574 1.516 1_455 S
C2574 C2573 1.516 1_655 S
C2574 C2575 1.502 . S
C2574 C2576 1.561 . S
C2574 C2577 1.526 1_655 S
C2575 H2559 0.959 . S
C2575 H2560 0.959 . S
C2575 H2561 0.961 . S
C2575 C2574 1.502 . S
C2576 H2562 0.960 . S
C2576 H2563 0.961 . S
C2576 H2564 0.959 . S
C2576 C2574 1.561 . S
C2577 C2574 1.526 1_455 S
C2577 C2578 1.396 . S
C2577 C2582 1.390 1_455 S
C2578 C2572 1.465 . S
C2578 C2577 1.396 . S
C2578 C2579 1.399 . S
C2579 H2565 0.929 . S
C2579 C2578 1.399 . S
C2579 C2580 1.385 . S
C2580 H2566 0.931 . S
C2580 C2579 1.385 . S
C2580 C2581 1.389 . S
C2581 C2580 1.389 . S
C2581 C2582 1.387 1_455 S
C2582 H2567 0.930 . S
C2582 C2577 1.390 1_655 S
C2582 C2581 1.387 1_655 S
H2583 C2595 0.930 . S
H2584 C2597 0.930 . S
H2585 C2598 0.930 . S
H2586 C2602 0.959 . S
H2587 C2602 0.959 . S
H2588 C2602 0.961 . S
H2589 C2603 0.960 . S
H2590 C2603 0.961 . S
H2591 C2603 0.959 . S
H2592 C2606 0.929 . S
H2593 C2607 0.931 . S
H2594 C2609 0.930 . S
C2595 H2583 0.930 . S
C2595 C2596 1.399 . S
C2595 C2600 1.399 . S
C2596 C2595 1.399 . S
C2596 C2597 1.376 . S
C2597 H2584 0.930 . S
C2597 C2596 1.376 . S
C2597 C2598 1.388 . S
C2598 H2585 0.930 . S
C2598 C2597 1.388 . S
C2598 C2599 1.390 . S
C2599 C2598 1.390 . S
C2599 C2600 1.394 . S
C2599 C2605 1.465 . S
C2600 C2595 1.399 . S
C2600 C2599 1.394 . S
C2600 C2601 1.516 . S
C2601 C2600 1.516 . S
C2601 C2602 1.502 . S
C2601 C2603 1.561 . S
C2601 C2604 1.526 . S
C2602 H2586 0.959 . S
C2602 H2587 0.959 . S
C2602 H2588 0.961 . S
C2602 C2601 1.502 . S
C2603 H2589 0.960 . S
C2603 H2590 0.961 . S
C2603 H2591 0.959 . S
C2603 C2601 1.561 . S
C2604 C2601 1.526 . S
C2604 C2605 1.396 . S
C2604 C2609 1.390 . S
C2605 C2599 1.465 . S
C2605 C2604 1.396 . S
C2605 C2606 1.399 . S
C2606 H2592 0.929 . S
C2606 C2605 1.399 . S
C2606 C2607 1.385 . S
C2607 H2593 0.931 . S
C2607 C2606 1.385 . S
C2607 C2608 1.389 . S
C2608 C2607 1.389 . S
C2608 C2609 1.387 . S
C2609 H2594 0.930 . S
C2609 C2604 1.390 . S
C2609 C2608 1.387 . S
H2610 C2622 0.930 . S
H2611 C2624 0.930 . S
H2612 C2625 0.930 . S
H2613 C2629 0.959 . S
H2614 C2629 0.959 . S
H2615 C2629 0.961 . S
H2616 C2630 0.960 . S
H2617 C2630 0.961 . S
H2618 C2630 0.959 . S
H2619 C2633 0.929 . S
H2620 C2634 0.931 . S
H2621 C2636 0.930 . S
C2622 H2610 0.930 . S
C2622 C2623 1.399 . S
C2622 C2627 1.399 . S
C2623 C2622 1.399 . S
C2623 C2624 1.376 . S
C2624 H2611 0.930 . S
C2624 C2623 1.376 . S
C2624 C2625 1.388 . S
C2625 H2612 0.930 . S
C2625 C2624 1.388 . S
C2625 C2626 1.390 . S
C2626 C2625 1.390 . S
C2626 C2627 1.394 . S
C2626 C2632 1.465 . S
C2627 C2622 1.399 . S
C2627 C2626 1.394 . S
C2627 C2628 1.516 . S
C2628 C2627 1.516 . S
C2628 C2629 1.502 1_455 S
C2628 C2630 1.561 . S
C2628 C2631 1.526 . S
C2629 H2613 0.959 . S
C2629 H2614 0.959 . S
C2629 H2615 0.961 . S
C2629 C2628 1.502 1_655 S
C2630 H2616 0.960 . S
C2630 H2617 0.961 . S
C2630 H2618 0.959 . S
C2630 C2628 1.561 . S
C2631 C2628 1.526 . S
C2631 C2632 1.396 . S
C2631 C2636 1.390 . S
C2632 C2626 1.465 . S
C2632 C2631 1.396 . S
C2632 C2633 1.399 . S
C2633 H2619 0.929 . S
C2633 C2632 1.399 . S
C2633 C2634 1.385 . S
C2634 H2620 0.931 . S
C2634 C2633 1.385 . S
C2634 C2635 1.389 . S
C2635 C2634 1.389 . S
C2635 C2636 1.387 . S
C2636 H2621 0.930 . S
C2636 C2631 1.390 . S
C2636 C2635 1.387 . S
H2637 C2649 0.930 . S
H2638 C2651 0.930 . S
H2639 C2652 0.930 . S
H2640 C2656 0.959 . S
H2641 C2656 0.959 . S
H2642 C2656 0.961 . S
H2643 C2657 0.960 . S
H2644 C2657 0.961 . S
H2645 C2657 0.959 . S
H2646 C2660 0.929 . S
H2647 C2661 0.931 . S
H2648 C2663 0.930 . S
C2649 H2637 0.930 . S
C2649 C2650 1.399 . S
C2649 C2654 1.399 . S
C2650 C2649 1.399 . S
C2650 C2651 1.376 . S
C2651 H2638 0.930 . S
C2651 C2650 1.376 . S
C2651 C2652 1.388 . S
C2652 H2639 0.930 . S
C2652 C2651 1.388 . S
C2652 C2653 1.390 . S
C2653 C2652 1.390 . S
C2653 C2654 1.394 . S
C2653 C2659 1.465 . S
C2654 C2649 1.399 . S
C2654 C2653 1.394 . S
C2654 C2655 1.516 . S
C2655 C2654 1.516 . S
C2655 C2656 1.502 . S
C2655 C2657 1.561 . S
C2655 C2658 1.526 . S
C2656 H2640 0.959 . S
C2656 H2641 0.959 . S
C2656 H2642 0.961 . S
C2656 C2655 1.502 . S
C2657 H2643 0.960 . S
C2657 H2644 0.961 . S
C2657 H2645 0.959 . S
C2657 C2655 1.561 . S
C2658 C2655 1.526 . S
C2658 C2659 1.396 . S
C2658 C2663 1.390 . S
C2659 C2653 1.465 . S
C2659 C2658 1.396 . S
C2659 C2660 1.399 . S
C2660 H2646 0.929 . S
C2660 C2659 1.399 . S
C2660 C2661 1.385 . S
C2661 H2647 0.931 . S
C2661 C2660 1.385 . S
C2661 C2662 1.389 . S
C2662 C2661 1.389 . S
C2662 C2663 1.387 . S
C2663 H2648 0.930 . S
C2663 C2658 1.390 . S
C2663 C2662 1.387 . S
H2664 C2676 0.930 . S
H2665 C2678 0.930 . S
H2666 C2679 0.930 1_545 S
H2667 C2683 0.959 . S
H2668 C2683 0.959 . S
H2669 C2683 0.961 . S
H2670 C2684 0.960 . S
H2671 C2684 0.961 . S
H2672 C2684 0.959 . S
H2673 C2687 0.929 . S
H2674 C2688 0.931 . S
H2675 C2690 0.930 . S
C2676 H2664 0.930 . S
C2676 C2677 1.399 . S
C2676 C2681 1.399 . S
C2677 C2676 1.399 . S
C2677 C2678 1.376 . S
C2678 H2665 0.930 . S
C2678 C2677 1.376 . S
C2678 C2679 1.388 . S
C2679 H2666 0.930 1_565 S
C2679 C2678 1.388 . S
C2679 C2680 1.390 . S
C2680 C2679 1.390 . S
C2680 C2681 1.394 . S
C2680 C2686 1.465 . S
C2681 C2676 1.399 . S
C2681 C2680 1.394 . S
C2681 C2682 1.516 . S
C2682 C2681 1.516 . S
C2682 C2683 1.502 . S
C2682 C2684 1.561 . S
C2682 C2685 1.526 . S
C2683 H2667 0.959 . S
C2683 H2668 0.959 . S
C2683 H2669 0.961 . S
C2683 C2682 1.502 . S
C2684 H2670 0.960 . S
C2684 H2671 0.961 . S
C2684 H2672 0.959 . S
C2684 C2682 1.561 . S
C2685 C2682 1.526 . S
C2685 C2686 1.396 . S
C2685 C2690 1.390 . S
C2686 C2680 1.465 . S
C2686 C2685 1.396 . S
C2686 C2687 1.399 1_565 S
C2687 H2673 0.929 . S
C2687 C2686 1.399 1_545 S
C2687 C2688 1.385 . S
C2688 H2674 0.931 . S
C2688 C2687 1.385 . S
C2688 C2689 1.389 1_545 S
C2689 C2688 1.389 1_565 S
C2689 C2690 1.387 . S
C2690 H2675 0.930 . S
C2690 C2685 1.390 . S
C2690 C2689 1.387 . S
H2691 C2703 0.930 . S
H2692 C2705 0.930 1_565 S
H2693 C2706 0.930 . S
H2694 C2710 0.959 . S
H2695 C2710 0.959 . S
H2696 C2710 0.961 . S
H2697 C2711 0.960 . S
H2698 C2711 0.961 . S
H2699 C2711 0.959 . S
H2700 C2714 0.929 . S
H2701 C2715 0.931 . S
H2702 C2717 0.930 . S
C2703 H2691 0.930 . S
C2703 C2704 1.399 . S
C2703 C2708 1.399 . S
C2704 C2703 1.399 . S
C2704 C2705 1.376 . S
C2705 H2692 0.930 1_545 S
C2705 C2704 1.376 . S
C2705 C2706 1.388 1_545 S
C2706 H2693 0.930 . S
C2706 C2705 1.388 1_565 S
C2706 C2707 1.390 1_565 S
C2707 C2706 1.390 1_545 S
C2707 C2708 1.394 . S
C2707 C2713 1.465 . S
C2708 C2703 1.399 . S
C2708 C2707 1.394 . S
C2708 C2709 1.516 . S
C2709 C2708 1.516 . S
C2709 C2710 1.502 . S
C2709 C2711 1.561 . S
C2709 C2712 1.526 . S
C2710 H2694 0.959 . S
C2710 H2695 0.959 . S
C2710 H2696 0.961 . S
C2710 C2709 1.502 . S
C2711 H2697 0.960 . S
C2711 H2698 0.961 . S
C2711 H2699 0.959 . S
C2711 C2709 1.561 . S
C2712 C2709 1.526 . S
C2712 C2713 1.396 . S
C2712 C2717 1.390 . S
C2713 C2707 1.465 . S
C2713 C2712 1.396 . S
C2713 C2714 1.399 1_545 S
C2714 H2700 0.929 . S
C2714 C2713 1.399 1_565 S
C2714 C2715 1.385 . S
C2715 H2701 0.931 . S
C2715 C2714 1.385 . S
C2715 C2716 1.389 1_565 S
C2716 C2715 1.389 1_545 S
C2716 C2717 1.387 . S
C2717 H2702 0.930 . S
C2717 C2712 1.390 . S
C2717 C2716 1.387 . S
H2718 C2730 0.930 . S
H2719 C2732 0.930 1_455 S
H2720 C2733 0.930 . S
H2721 C2737 0.959 . S
H2722 C2737 0.959 . S
H2723 C2737 0.961 . S
H2724 C2738 0.960 . S
H2725 C2738 0.961 . S
H2726 C2738 0.959 . S
H2727 C2741 0.929 . S
H2728 C2742 0.931 . S
H2729 C2744 0.930 . S
C2730 H2718 0.930 . S
C2730 C2731 1.399 . S
C2730 C2735 1.399 . S
C2731 C2730 1.399 . S
C2731 C2732 1.376 . S
C2732 H2719 0.930 1_655 S
C2732 C2731 1.376 . S
C2732 C2733 1.388 1_655 S
C2733 H2720 0.930 . S
C2733 C2732 1.388 1_455 S
C2733 C2734 1.390 1_455 S
C2734 C2733 1.390 1_655 S
C2734 C2735 1.394 . S
C2734 C2740 1.465 . S
C2735 C2730 1.399 . S
C2735 C2734 1.394 . S
C2735 C2736 1.516 . S
C2736 C2735 1.516 . S
C2736 C2737 1.502 . S
C2736 C2738 1.561 . S
C2736 C2739 1.526 . S
C2737 H2721 0.959 . S
C2737 H2722 0.959 . S
C2737 H2723 0.961 . S
C2737 C2736 1.502 . S
C2738 H2724 0.960 . S
C2738 H2725 0.961 . S
C2738 H2726 0.959 . S
C2738 C2736 1.561 . S
C2739 C2736 1.526 . S
C2739 C2740 1.396 . S
C2739 C2744 1.390 . S
C2740 C2734 1.465 . S
C2740 C2739 1.396 . S
C2740 C2741 1.399 1_655 S
C2741 H2727 0.929 . S
C2741 C2740 1.399 1_455 S
C2741 C2742 1.385 . S
C2742 H2728 0.931 . S
C2742 C2741 1.385 . S
C2742 C2743 1.389 1_455 S
C2743 C2742 1.389 1_655 S
C2743 C2744 1.387 . S
C2744 H2729 0.930 . S
C2744 C2739 1.390 . S
C2744 C2743 1.387 . S
H2745 C2757 0.930 . S
H2746 C2759 0.930 . S
H2747 C2760 0.930 . S
H2748 C2764 0.959 . S
H2749 C2764 0.959 . S
H2750 C2764 0.961 . S
H2751 C2765 0.960 . S
H2752 C2765 0.961 . S
H2753 C2765 0.959 . S
H2754 C2768 0.929 . S
H2755 C2769 0.931 . S
H2756 C2771 0.930 . S
C2757 H2745 0.930 . S
C2757 C2758 1.399 . S
C2757 C2762 1.399 . S
C2758 C2757 1.399 . S
C2758 C2759 1.376 . S
C2759 H2746 0.930 . S
C2759 C2758 1.376 . S
C2759 C2760 1.388 . S
C2760 H2747 0.930 . S
C2760 C2759 1.388 . S
C2760 C2761 1.390 . S
C2761 C2760 1.390 . S
C2761 C2762 1.394 . S
C2761 C2767 1.465 . S
C2762 C2757 1.399 . S
C2762 C2761 1.394 . S
C2762 C2763 1.516 . S
C2763 C2762 1.516 . S
C2763 C2764 1.502 . S
C2763 C2765 1.561 . S
C2763 C2766 1.526 . S
C2764 H2748 0.959 . S
C2764 H2749 0.959 . S
C2764 H2750 0.961 . S
C2764 C2763 1.502 . S
C2765 H2751 0.960 . S
C2765 H2752 0.961 . S
C2765 H2753 0.959 . S
C2765 C2763 1.561 . S
C2766 C2763 1.526 . S
C2766 C2767 1.396 . S
C2766 C2771 1.390 . S
C2767 C2761 1.465 . S
C2767 C2766 1.396 . S
C2767 C2768 1.399 . S
C2768 H2754 0.929 . S
C2768 C2767 1.399 . S
C2768 C2769 1.385 . S
C2769 H2755 0.931 . S
C2769 C2768 1.385 . S
C2769 C2770 1.389 . S
C2770 C2769 1.389 . S
C2770 C2771 1.387 . S
C2771 H2756 0.930 . S
C2771 C2766 1.390 . S
C2771 C2770 1.387 . S
H2772 C2784 0.930 . S
H2773 C2786 0.930 . S
H2774 C2787 0.930 . S
H2775 C2791 0.959 . S
H2776 C2791 0.959 . S
H2777 C2791 0.961 . S
H2778 C2792 0.960 . S
H2779 C2792 0.961 . S
H2780 C2792 0.959 . S
H2781 C2795 0.929 . S
H2782 C2796 0.931 . S
H2783 C2798 0.930 . S
C2784 H2772 0.930 . S
C2784 C2785 1.399 . S
C2784 C2789 1.399 . S
C2785 C2784 1.399 . S
C2785 C2786 1.376 . S
C2786 H2773 0.930 . S
C2786 C2785 1.376 . S
C2786 C2787 1.388 . S
C2787 H2774 0.930 . S
C2787 C2786 1.388 . S
C2787 C2788 1.390 . S
C2788 C2787 1.390 . S
C2788 C2789 1.394 . S
C2788 C2794 1.465 . S
C2789 C2784 1.399 . S
C2789 C2788 1.394 . S
C2789 C2790 1.516 . S
C2790 C2789 1.516 . S
C2790 C2791 1.502 . S
C2790 C2792 1.561 . S
C2790 C2793 1.526 . S
C2791 H2775 0.959 . S
C2791 H2776 0.959 . S
C2791 H2777 0.961 . S
C2791 C2790 1.502 . S
C2792 H2778 0.960 . S
C2792 H2779 0.961 . S
C2792 H2780 0.959 . S
C2792 C2790 1.561 . S
C2793 C2790 1.526 . S
C2793 C2794 1.396 . S
C2793 C2798 1.390 . S
C2794 C2788 1.465 . S
C2794 C2793 1.396 . S
C2794 C2795 1.399 . S
C2795 H2781 0.929 . S
C2795 C2794 1.399 . S
C2795 C2796 1.385 . S
C2796 H2782 0.931 . S
C2796 C2795 1.385 . S
C2796 C2797 1.389 . S
C2797 C2796 1.389 . S
C2797 C2798 1.387 . S
C2798 H2783 0.930 . S
C2798 C2793 1.390 . S
C2798 C2797 1.387 . S
H2799 C2811 0.930 . S
H2800 C2813 0.930 . S
H2801 C2814 0.930 . S
H2802 C2818 0.959 . S
H2803 C2818 0.959 . S
H2804 C2818 0.961 . S
H2805 C2819 0.960 . S
H2806 C2819 0.961 . S
H2807 C2819 0.959 . S
H2808 C2822 0.929 . S
H2809 C2823 0.931 . S
H2810 C2825 0.930 . S
C2811 H2799 0.930 . S
C2811 C2812 1.399 . S
C2811 C2816 1.399 . S
C2812 C2811 1.399 . S
C2812 C2813 1.376 . S
C2813 H2800 0.930 . S
C2813 C2812 1.376 . S
C2813 C2814 1.388 . S
C2814 H2801 0.930 . S
C2814 C2813 1.388 . S
C2814 C2815 1.390 . S
C2815 C2814 1.390 . S
C2815 C2816 1.394 . S
C2815 C2821 1.465 . S
C2816 C2811 1.399 . S
C2816 C2815 1.394 . S
C2816 C2817 1.516 . S
C2817 C2816 1.516 . S
C2817 C2818 1.502 . S
C2817 C2819 1.561 . S
C2817 C2820 1.526 . S
C2818 H2802 0.959 . S
C2818 H2803 0.959 . S
C2818 H2804 0.961 . S
C2818 C2817 1.502 . S
C2819 H2805 0.960 . S
C2819 H2806 0.961 . S
C2819 H2807 0.959 . S
C2819 C2817 1.561 . S
C2820 C2817 1.526 . S
C2820 C2821 1.396 . S
C2820 C2825 1.390 . S
C2821 C2815 1.465 . S
C2821 C2820 1.396 . S
C2821 C2822 1.399 . S
C2822 H2808 0.929 . S
C2822 C2821 1.399 . S
C2822 C2823 1.385 . S
C2823 H2809 0.931 . S
C2823 C2822 1.385 . S
C2823 C2824 1.389 . S
C2824 C2823 1.389 . S
C2824 C2825 1.387 . S
C2825 H2810 0.930 . S
C2825 C2820 1.390 . S
C2825 C2824 1.387 . S
H2826 C2838 0.930 . S
H2827 C2840 0.930 . S
H2828 C2841 0.930 . S
H2829 C2845 0.959 . S
H2830 C2845 0.959 . S
H2831 C2845 0.961 . S
H2832 C2846 0.960 . S
H2833 C2846 0.961 . S
H2834 C2846 0.959 . S
H2835 C2849 0.929 . S
H2836 C2850 0.931 . S
H2837 C2852 0.930 . S
C2838 H2826 0.930 . S
C2838 C2839 1.399 . S
C2838 C2843 1.399 . S
C2839 C2838 1.399 . S
C2839 C2840 1.376 . S
C2840 H2827 0.930 . S
C2840 C2839 1.376 . S
C2840 C2841 1.388 . S
C2841 H2828 0.930 . S
C2841 C2840 1.388 . S
C2841 C2842 1.390 . S
C2842 C2841 1.390 . S
C2842 C2843 1.394 . S
C2842 C2848 1.465 . S
C2843 C2838 1.399 . S
C2843 C2842 1.394 . S
C2843 C2844 1.516 . S
C2844 C2843 1.516 . S
C2844 C2845 1.502 . S
C2844 C2846 1.561 . S
C2844 C2847 1.526 . S
C2845 H2829 0.959 . S
C2845 H2830 0.959 . S
C2845 H2831 0.961 . S
C2845 C2844 1.502 . S
C2846 H2832 0.960 . S
C2846 H2833 0.961 . S
C2846 H2834 0.959 . S
C2846 C2844 1.561 . S
C2847 C2844 1.526 . S
C2847 C2848 1.396 . S
C2847 C2852 1.390 . S
C2848 C2842 1.465 . S
C2848 C2847 1.396 . S
C2848 C2849 1.399 . S
C2849 H2835 0.929 . S
C2849 C2848 1.399 . S
C2849 C2850 1.385 . S
C2850 H2836 0.931 . S
C2850 C2849 1.385 . S
C2850 C2851 1.389 . S
C2851 C2850 1.389 . S
C2851 C2852 1.387 . S
C2852 H2837 0.930 . S
C2852 C2847 1.390 . S
C2852 C2851 1.387 . S
H2853 C2865 0.930 . S
H2854 C2867 0.930 . S
H2855 C2868 0.930 . S
H2856 C2872 0.959 . S
H2857 C2872 0.959 . S
H2858 C2872 0.961 . S
H2859 C2873 0.960 . S
H2860 C2873 0.961 . S
H2861 C2873 0.959 . S
H2862 C2876 0.929 . S
H2863 C2877 0.931 . S
H2864 C2879 0.930 . S
C2865 H2853 0.930 . S
C2865 C2866 1.399 . S
C2865 C2870 1.399 . S
C2866 C2865 1.399 . S
C2866 C2867 1.376 . S
C2867 H2854 0.930 . S
C2867 C2866 1.376 . S
C2867 C2868 1.388 . S
C2868 H2855 0.930 . S
C2868 C2867 1.388 . S
C2868 C2869 1.390 . S
C2869 C2868 1.390 . S
C2869 C2870 1.394 . S
C2869 C2875 1.465 . S
C2870 C2865 1.399 . S
C2870 C2869 1.394 . S
C2870 C2871 1.516 . S
C2871 C2870 1.516 . S
C2871 C2872 1.502 . S
C2871 C2873 1.561 . S
C2871 C2874 1.526 . S
C2872 H2856 0.959 . S
C2872 H2857 0.959 . S
C2872 H2858 0.961 . S
C2872 C2871 1.502 . S
C2873 H2859 0.960 . S
C2873 H2860 0.961 . S
C2873 H2861 0.959 . S
C2873 C2871 1.561 . S
C2874 C2871 1.526 . S
C2874 C2875 1.396 . S
C2874 C2879 1.390 . S
C2875 C2869 1.465 . S
C2875 C2874 1.396 . S
C2875 C2876 1.399 . S
C2876 H2862 0.929 . S
C2876 C2875 1.399 . S
C2876 C2877 1.385 . S
C2877 H2863 0.931 . S
C2877 C2876 1.385 . S
C2877 C2878 1.389 . S
C2878 C2877 1.389 . S
C2878 C2879 1.387 . S
C2879 H2864 0.930 . S
C2879 C2874 1.390 . S
C2879 C2878 1.387 . S
H2880 C2892 0.930 . S
H2881 C2894 0.930 . S
H2882 C2895 0.930 . S
H2883 C2899 0.959 . S
H2884 C2899 0.959 . S
H2885 C2899 0.961 . S
H2886 C2900 0.960 . S
H2887 C2900 0.961 . S
H2888 C2900 0.959 . S
H2889 C2903 0.929 . S
H2890 C2904 0.931 . S
H2891 C2906 0.930 . S
C2892 H2880 0.930 . S
C2892 C2893 1.399 . S
C2892 C2897 1.399 . S
C2893 C2892 1.399 . S
C2893 C2894 1.376 . S
C2894 H2881 0.930 . S
C2894 C2893 1.376 . S
C2894 C2895 1.388 . S
C2895 H2882 0.930 . S
C2895 C2894 1.388 . S
C2895 C2896 1.390 . S
C2896 C2895 1.390 . S
C2896 C2897 1.394 . S
C2896 C2902 1.465 . S
C2897 C2892 1.399 . S
C2897 C2896 1.394 . S
C2897 C2898 1.516 . S
C2898 C2897 1.516 . S
C2898 C2899 1.502 . S
C2898 C2900 1.561 . S
C2898 C2901 1.526 . S
C2899 H2883 0.959 . S
C2899 H2884 0.959 . S
C2899 H2885 0.961 . S
C2899 C2898 1.502 . S
C2900 H2886 0.960 . S
C2900 H2887 0.961 . S
C2900 H2888 0.959 . S
C2900 C2898 1.561 . S
C2901 C2898 1.526 . S
C2901 C2902 1.396 . S
C2901 C2906 1.390 . S
C2902 C2896 1.465 . S
C2902 C2901 1.396 . S
C2902 C2903 1.399 . S
C2903 H2889 0.929 . S
C2903 C2902 1.399 . S
C2903 C2904 1.385 . S
C2904 H2890 0.931 . S
C2904 C2903 1.385 . S
C2904 C2905 1.389 . S
C2905 C2904 1.389 . S
C2905 C2906 1.387 . S
C2906 H2891 0.930 . S
C2906 C2901 1.390 . S
C2906 C2905 1.387 . S
H2907 C2919 0.930 . S
H2908 C2921 0.930 . S
H2909 C2922 0.930 . S
H2910 C2926 0.959 . S
H2911 C2926 0.959 . S
H2912 C2926 0.961 . S
H2913 C2927 0.960 . S
H2914 C2927 0.961 . S
H2915 C2927 0.959 . S
H2916 C2930 0.929 . S
H2917 C2931 0.931 . S
H2918 C2933 0.930 . S
C2919 H2907 0.930 . S
C2919 C2920 1.399 . S
C2919 C2924 1.399 . S
C2920 C2919 1.399 . S
C2920 C2921 1.376 . S
C2921 H2908 0.930 . S
C2921 C2920 1.376 . S
C2921 C2922 1.388 . S
C2922 H2909 0.930 . S
C2922 C2921 1.388 . S
C2922 C2923 1.390 . S
C2923 C2922 1.390 . S
C2923 C2924 1.394 . S
C2923 C2929 1.465 . S
C2924 C2919 1.399 . S
C2924 C2923 1.394 . S
C2924 C2925 1.516 . S
C2925 C2924 1.516 . S
C2925 C2926 1.502 . S
C2925 C2927 1.561 . S
C2925 C2928 1.526 . S
C2926 H2910 0.959 . S
C2926 H2911 0.959 . S
C2926 H2912 0.961 . S
C2926 C2925 1.502 . S
C2927 H2913 0.960 . S
C2927 H2914 0.961 . S
C2927 H2915 0.959 . S
C2927 C2925 1.561 . S
C2928 C2925 1.526 . S
C2928 C2929 1.396 . S
C2928 C2933 1.390 . S
C2929 C2923 1.465 . S
C2929 C2928 1.396 . S
C2929 C2930 1.399 . S
C2930 H2916 0.929 . S
C2930 C2929 1.399 . S
C2930 C2931 1.385 . S
C2931 H2917 0.931 . S
C2931 C2930 1.385 . S
C2931 C2932 1.389 . S
C2932 C2931 1.389 . S
C2932 C2933 1.387 . S
C2933 H2918 0.930 . S
C2933 C2928 1.390 . S
C2933 C2932 1.387 . S
H2934 C2946 0.930 . S
H2935 C2948 0.930 . S
H2936 C2949 0.930 . S
H2937 C2953 0.959 . S
H2938 C2953 0.959 . S
H2939 C2953 0.961 . S
H2940 C2954 0.960 . S
H2941 C2954 0.961 . S
H2942 C2954 0.959 . S
H2943 C2957 0.929 . S
H2944 C2958 0.931 . S
H2945 C2960 0.930 . S
C2946 H2934 0.930 . S
C2946 C2947 1.399 . S
C2946 C2951 1.399 . S
C2947 C2946 1.399 . S
C2947 C2948 1.376 . S
C2948 H2935 0.930 . S
C2948 C2947 1.376 . S
C2948 C2949 1.388 . S
C2949 H2936 0.930 . S
C2949 C2948 1.388 . S
C2949 C2950 1.390 . S
C2950 C2949 1.390 . S
C2950 C2951 1.394 . S
C2950 C2956 1.465 . S
C2951 C2946 1.399 . S
C2951 C2950 1.394 . S
C2951 C2952 1.516 . S
C2952 C2951 1.516 . S
C2952 C2953 1.502 . S
C2952 C2954 1.561 . S
C2952 C2955 1.526 . S
C2953 H2937 0.959 . S
C2953 H2938 0.959 . S
C2953 H2939 0.961 . S
C2953 C2952 1.502 . S
C2954 H2940 0.960 . S
C2954 H2941 0.961 . S
C2954 H2942 0.959 . S
C2954 C2952 1.561 . S
C2955 C2952 1.526 . S
C2955 C2956 1.396 . S
C2955 C2960 1.390 . S
C2956 C2950 1.465 . S
C2956 C2955 1.396 . S
C2956 C2957 1.399 . S
C2957 H2943 0.929 . S
C2957 C2956 1.399 . S
C2957 C2958 1.385 . S
C2958 H2944 0.931 . S
C2958 C2957 1.385 . S
C2958 C2959 1.389 . S
C2959 C2958 1.389 . S
C2959 C2960 1.387 . S
C2960 H2945 0.930 . S
C2960 C2955 1.390 . S
C2960 C2959 1.387 . S
H2961 C2973 0.930 . S
H2962 C2975 0.930 . S
H2963 C2976 0.930 . S
H2964 C2980 0.959 . S
H2965 C2980 0.959 . S
H2966 C2980 0.961 . S
H2967 C2981 0.960 . S
H2968 C2981 0.961 . S
H2969 C2981 0.959 . S
H2970 C2984 0.929 . S
H2971 C2985 0.931 . S
H2972 C2987 0.930 . S
C2973 H2961 0.930 . S
C2973 C2974 1.399 . S
C2973 C2978 1.399 . S
C2974 C2973 1.399 . S
C2974 C2975 1.376 . S
C2975 H2962 0.930 . S
C2975 C2974 1.376 . S
C2975 C2976 1.388 . S
C2976 H2963 0.930 . S
C2976 C2975 1.388 . S
C2976 C2977 1.390 . S
C2977 C2976 1.390 . S
C2977 C2978 1.394 . S
C2977 C2983 1.465 . S
C2978 C2973 1.399 . S
C2978 C2977 1.394 . S
C2978 C2979 1.516 . S
C2979 C2978 1.516 . S
C2979 C2980 1.502 . S
C2979 C2981 1.561 . S
C2979 C2982 1.526 . S
C2980 H2964 0.959 . S
C2980 H2965 0.959 . S
C2980 H2966 0.961 . S
C2980 C2979 1.502 . S
C2981 H2967 0.960 . S
C2981 H2968 0.961 . S
C2981 H2969 0.959 . S
C2981 C2979 1.561 . S
C2982 C2979 1.526 . S
C2982 C2983 1.396 . S
C2982 C2987 1.390 . S
C2983 C2977 1.465 . S
C2983 C2982 1.396 . S
C2983 C2984 1.399 . S
C2984 H2970 0.929 . S
C2984 C2983 1.399 . S
C2984 C2985 1.385 . S
C2985 H2971 0.931 . S
C2985 C2984 1.385 . S
C2985 C2986 1.389 . S
C2986 C2985 1.389 . S
C2986 C2987 1.387 . S
C2987 H2972 0.930 . S
C2987 C2982 1.390 . S
C2987 C2986 1.387 . S
H2988 C3000 0.930 . S
H2989 C3002 0.930 . S
H2990 C3003 0.930 . S
H2991 C3007 0.959 . S
H2992 C3007 0.959 . S
H2993 C3007 0.961 . S
H2994 C3008 0.960 . S
H2995 C3008 0.961 . S
H2996 C3008 0.959 . S
H2997 C3011 0.929 . S
H2998 C3012 0.931 . S
H2999 C3014 0.930 . S
C3000 H2988 0.930 . S
C3000 C3001 1.399 . S
C3000 C3005 1.399 . S
C3001 C3000 1.399 . S
C3001 C3002 1.376 . S
C3002 H2989 0.930 . S
C3002 C3001 1.376 . S
C3002 C3003 1.388 . S
C3003 H2990 0.930 . S
C3003 C3002 1.388 . S
C3003 C3004 1.390 . S
C3004 C3003 1.390 . S
C3004 C3005 1.394 . S
C3004 C3010 1.465 . S
C3005 C3000 1.399 . S
C3005 C3004 1.394 . S
C3005 C3006 1.516 . S
C3006 C3005 1.516 . S
C3006 C3007 1.502 . S
C3006 C3008 1.561 . S
C3006 C3009 1.526 . S
C3007 H2991 0.959 . S
C3007 H2992 0.959 . S
C3007 H2993 0.961 . S
C3007 C3006 1.502 . S
C3008 H2994 0.960 . S
C3008 H2995 0.961 . S
C3008 H2996 0.959 . S
C3008 C3006 1.561 . S
C3009 C3006 1.526 . S
C3009 C3010 1.396 . S
C3009 C3014 1.390 . S
C3010 C3004 1.465 . S
C3010 C3009 1.396 . S
C3010 C3011 1.399 . S
C3011 H2997 0.929 . S
C3011 C3010 1.399 . S
C3011 C3012 1.385 . S
C3012 H2998 0.931 . S
C3012 C3011 1.385 . S
C3012 C3013 1.389 . S
C3013 C3012 1.389 . S
C3013 C3014 1.387 . S
C3014 H2999 0.930 . S
C3014 C3009 1.390 . S
C3014 C3013 1.387 . S
H3015 C3027 0.930 . S
H3016 C3029 0.930 . S
H3017 C3030 0.930 . S
H3018 C3034 0.959 . S
H3019 C3034 0.959 . S
H3020 C3034 0.961 . S
H3021 C3035 0.960 . S
H3022 C3035 0.961 . S
H3023 C3035 0.959 . S
H3024 C3038 0.929 . S
H3025 C3039 0.931 . S
H3026 C3041 0.930 . S
C3027 H3015 0.930 . S
C3027 C3028 1.399 . S
C3027 C3032 1.399 . S
C3028 C3027 1.399 . S
C3028 C3029 1.376 . S
C3029 H3016 0.930 . S
C3029 C3028 1.376 . S
C3029 C3030 1.388 . S
C3030 H3017 0.930 . S
C3030 C3029 1.388 . S
C3030 C3031 1.390 . S
C3031 C3030 1.390 . S
C3031 C3032 1.394 . S
C3031 C3037 1.465 . S
C3032 C3027 1.399 . S
C3032 C3031 1.394 . S
C3032 C3033 1.516 . S
C3033 C3032 1.516 . S
C3033 C3034 1.502 . S
C3033 C3035 1.561 . S
C3033 C3036 1.526 . S
C3034 H3018 0.959 . S
C3034 H3019 0.959 . S
C3034 H3020 0.961 . S
C3034 C3033 1.502 . S
C3035 H3021 0.960 . S
C3035 H3022 0.961 . S
C3035 H3023 0.959 . S
C3035 C3033 1.561 . S
C3036 C3033 1.526 . S
C3036 C3037 1.396 . S
C3036 C3041 1.390 . S
C3037 C3031 1.465 . S
C3037 C3036 1.396 . S
C3037 C3038 1.399 . S
C3038 H3024 0.929 . S
C3038 C3037 1.399 . S
C3038 C3039 1.385 . S
C3039 H3025 0.931 . S
C3039 C3038 1.385 . S
C3039 C3040 1.389 . S
C3040 C3039 1.389 . S
C3040 C3041 1.387 . S
C3041 H3026 0.930 . S
C3041 C3036 1.390 . S
C3041 C3040 1.387 . S
H3042 C3054 0.930 . S
H3043 C3056 0.930 . S
H3044 C3057 0.930 . S
H3045 C3061 0.959 . S
H3046 C3061 0.959 . S
H3047 C3061 0.961 . S
H3048 C3062 0.960 . S
H3049 C3062 0.961 . S
H3050 C3062 0.959 . S
H3051 C3065 0.929 . S
H3052 C3066 0.931 . S
H3053 C3068 0.930 . S
C3054 H3042 0.930 . S
C3054 C3055 1.399 . S
C3054 C3059 1.399 . S
C3055 C3054 1.399 . S
C3055 C3056 1.376 . S
C3056 H3043 0.930 . S
C3056 C3055 1.376 . S
C3056 C3057 1.388 . S
C3057 H3044 0.930 . S
C3057 C3056 1.388 . S
C3057 C3058 1.390 . S
C3058 C3057 1.390 . S
C3058 C3059 1.394 . S
C3058 C3064 1.465 . S
C3059 C3054 1.399 . S
C3059 C3058 1.394 . S
C3059 C3060 1.516 . S
C3060 C3059 1.516 . S
C3060 C3061 1.502 . S
C3060 C3062 1.561 . S
C3060 C3063 1.526 . S
C3061 H3045 0.959 . S
C3061 H3046 0.959 . S
C3061 H3047 0.961 . S
C3061 C3060 1.502 . S
C3062 H3048 0.960 . S
C3062 H3049 0.961 . S
C3062 H3050 0.959 . S
C3062 C3060 1.561 . S
C3063 C3060 1.526 . S
C3063 C3064 1.396 . S
C3063 C3068 1.390 . S
C3064 C3058 1.465 . S
C3064 C3063 1.396 . S
C3064 C3065 1.399 . S
C3065 H3051 0.929 . S
C3065 C3064 1.399 . S
C3065 C3066 1.385 . S
C3066 H3052 0.931 . S
C3066 C3065 1.385 . S
C3066 C3067 1.389 . S
C3067 C3066 1.389 . S
C3067 C3068 1.387 . S
C3068 H3053 0.930 . S
C3068 C3063 1.390 . S
C3068 C3067 1.387 . S
H3069 C3081 0.930 . S
H3070 C3083 0.930 . S
H3071 C3084 0.930 . S
H3072 C3088 0.959 . S
H3073 C3088 0.959 . S
H3074 C3088 0.961 . S
H3075 C3089 0.960 . S
H3076 C3089 0.961 . S
H3077 C3089 0.959 . S
H3078 C3092 0.929 . S
H3079 C3093 0.931 . S
H3080 C3095 0.930 . S
C3081 H3069 0.930 . S
C3081 C3082 1.399 . S
C3081 C3086 1.399 . S
C3082 C3081 1.399 . S
C3082 C3083 1.376 . S
C3083 H3070 0.930 . S
C3083 C3082 1.376 . S
C3083 C3084 1.388 . S
C3084 H3071 0.930 . S
C3084 C3083 1.388 . S
C3084 C3085 1.390 . S
C3085 C3084 1.390 . S
C3085 C3086 1.394 . S
C3085 C3091 1.465 . S
C3086 C3081 1.399 . S
C3086 C3085 1.394 . S
C3086 C3087 1.516 . S
C3087 C3086 1.516 . S
C3087 C3088 1.502 . S
C3087 C3089 1.561 . S
C3087 C3090 1.526 . S
C3088 H3072 0.959 . S
C3088 H3073 0.959 . S
C3088 H3074 0.961 . S
C3088 C3087 1.502 . S
C3089 H3075 0.960 . S
C3089 H3076 0.961 . S
C3089 H3077 0.959 . S
C3089 C3087 1.561 . S
C3090 C3087 1.526 . S
C3090 C3091 1.396 . S
C3090 C3095 1.390 . S
C3091 C3085 1.465 . S
C3091 C3090 1.396 . S
C3091 C3092 1.399 . S
C3092 H3078 0.929 . S
C3092 C3091 1.399 . S
C3092 C3093 1.385 . S
C3093 H3079 0.931 . S
C3093 C3092 1.385 . S
C3093 C3094 1.389 . S
C3094 C3093 1.389 . S
C3094 C3095 1.387 . S
C3095 H3080 0.930 . S
C3095 C3090 1.390 . S
C3095 C3094 1.387 . S
H3096 C3108 0.930 . S
H3097 C3110 0.930 . S
H3098 C3111 0.930 . S
H3099 C3115 0.959 . S
H3100 C3115 0.959 . S
H3101 C3115 0.961 . S
H3102 C3116 0.960 . S
H3103 C3116 0.961 . S
H3104 C3116 0.959 . S
H3105 C3119 0.929 . S
H3106 C3120 0.931 . S
H3107 C3122 0.930 . S
C3108 H3096 0.930 . S
C3108 C3109 1.399 . S
C3108 C3113 1.399 . S
C3109 C3108 1.399 . S
C3109 C3110 1.376 . S
C3110 H3097 0.930 . S
C3110 C3109 1.376 . S
C3110 C3111 1.388 . S
C3111 H3098 0.930 . S
C3111 C3110 1.388 . S
C3111 C3112 1.390 . S
C3112 C3111 1.390 . S
C3112 C3113 1.394 . S
C3112 C3118 1.465 . S
C3113 C3108 1.399 . S
C3113 C3112 1.394 . S
C3113 C3114 1.516 . S
C3114 C3113 1.516 . S
C3114 C3115 1.502 . S
C3114 C3116 1.561 . S
C3114 C3117 1.526 . S
C3115 H3099 0.959 . S
C3115 H3100 0.959 . S
C3115 H3101 0.961 . S
C3115 C3114 1.502 . S
C3116 H3102 0.960 . S
C3116 H3103 0.961 . S
C3116 H3104 0.959 . S
C3116 C3114 1.561 . S
C3117 C3114 1.526 . S
C3117 C3118 1.396 . S
C3117 C3122 1.390 . S
C3118 C3112 1.465 . S
C3118 C3117 1.396 . S
C3118 C3119 1.399 . S
C3119 H3105 0.929 . S
C3119 C3118 1.399 . S
C3119 C3120 1.385 . S
C3120 H3106 0.931 . S
C3120 C3119 1.385 . S
C3120 C3121 1.389 . S
C3121 C3120 1.389 . S
C3121 C3122 1.387 . S
C3122 H3107 0.930 . S
C3122 C3117 1.390 . S
C3122 C3121 1.387 . S
H3123 C3135 0.930 . S
H3124 C3137 0.930 . S
H3125 C3138 0.930 . S
H3126 C3142 0.959 . S
H3127 C3142 0.959 . S
H3128 C3142 0.961 . S
H3129 C3143 0.960 . S
H3130 C3143 0.961 . S
H3131 C3143 0.959 . S
H3132 C3146 0.929 . S
H3133 C3147 0.931 . S
H3134 C3149 0.930 . S
C3135 H3123 0.930 . S
C3135 C3136 1.399 . S
C3135 C3140 1.399 . S
C3136 C3135 1.399 . S
C3136 C3137 1.376 . S
C3137 H3124 0.930 . S
C3137 C3136 1.376 . S
C3137 C3138 1.388 . S
C3138 H3125 0.930 . S
C3138 C3137 1.388 . S
C3138 C3139 1.390 . S
C3139 C3138 1.390 . S
C3139 C3140 1.394 . S
C3139 C3145 1.465 . S
C3140 C3135 1.399 . S
C3140 C3139 1.394 . S
C3140 C3141 1.516 . S
C3141 C3140 1.516 . S
C3141 C3142 1.502 . S
C3141 C3143 1.561 . S
C3141 C3144 1.526 . S
C3142 H3126 0.959 . S
C3142 H3127 0.959 . S
C3142 H3128 0.961 . S
C3142 C3141 1.502 . S
C3143 H3129 0.960 . S
C3143 H3130 0.961 . S
C3143 H3131 0.959 . S
C3143 C3141 1.561 . S
C3144 C3141 1.526 . S
C3144 C3145 1.396 . S
C3144 C3149 1.390 . S
C3145 C3139 1.465 . S
C3145 C3144 1.396 . S
C3145 C3146 1.399 . S
C3146 H3132 0.929 . S
C3146 C3145 1.399 . S
C3146 C3147 1.385 . S
C3147 H3133 0.931 . S
C3147 C3146 1.385 . S
C3147 C3148 1.389 . S
C3148 C3147 1.389 . S
C3148 C3149 1.387 . S
C3149 H3134 0.930 . S
C3149 C3144 1.390 . S
C3149 C3148 1.387 . S
H3150 C3162 0.930 . S
H3151 C3164 0.930 . S
H3152 C3165 0.930 . S
H3153 C3169 0.959 . S
H3154 C3169 0.959 . S
H3155 C3169 0.961 . S
H3156 C3170 0.960 . S
H3157 C3170 0.961 . S
H3158 C3170 0.959 . S
H3159 C3173 0.929 . S
H3160 C3174 0.931 . S
H3161 C3176 0.930 . S
C3162 H3150 0.930 . S
C3162 C3163 1.399 . S
C3162 C3167 1.399 . S
C3163 C3162 1.399 . S
C3163 C3164 1.376 . S
C3164 H3151 0.930 . S
C3164 C3163 1.376 . S
C3164 C3165 1.388 . S
C3165 H3152 0.930 . S
C3165 C3164 1.388 . S
C3165 C3166 1.390 . S
C3166 C3165 1.390 . S
C3166 C3167 1.394 . S
C3166 C3172 1.465 . S
C3167 C3162 1.399 . S
C3167 C3166 1.394 . S
C3167 C3168 1.516 . S
C3168 C3167 1.516 . S
C3168 C3169 1.502 . S
C3168 C3170 1.561 . S
C3168 C3171 1.526 . S
C3169 H3153 0.959 . S
C3169 H3154 0.959 . S
C3169 H3155 0.961 . S
C3169 C3168 1.502 . S
C3170 H3156 0.960 . S
C3170 H3157 0.961 . S
C3170 H3158 0.959 . S
C3170 C3168 1.561 . S
C3171 C3168 1.526 . S
C3171 C3172 1.396 . S
C3171 C3176 1.390 . S
C3172 C3166 1.465 . S
C3172 C3171 1.396 . S
C3172 C3173 1.399 . S
C3173 H3159 0.929 . S
C3173 C3172 1.399 . S
C3173 C3174 1.385 . S
C3174 H3160 0.931 . S
C3174 C3173 1.385 . S
C3174 C3175 1.389 . S
C3175 C3174 1.389 . S
C3175 C3176 1.387 . S
C3176 H3161 0.930 . S
C3176 C3171 1.390 . S
C3176 C3175 1.387 . S
H3177 C3189 0.930 . S
H3178 C3191 0.930 . S
H3179 C3192 0.930 . S
H3180 C3196 0.959 . S
H3181 C3196 0.959 . S
H3182 C3196 0.961 . S
H3183 C3197 0.960 . S
H3184 C3197 0.961 . S
H3185 C3197 0.959 . S
H3186 C3200 0.929 . S
H3187 C3201 0.931 . S
H3188 C3203 0.930 . S
C3189 H3177 0.930 . S
C3189 C3190 1.399 . S
C3189 C3194 1.399 . S
C3190 C3189 1.399 . S
C3190 C3191 1.376 . S
C3191 H3178 0.930 . S
C3191 C3190 1.376 . S
C3191 C3192 1.388 . S
C3192 H3179 0.930 . S
C3192 C3191 1.388 . S
C3192 C3193 1.390 . S
C3193 C3192 1.390 . S
C3193 C3194 1.394 . S
C3193 C3199 1.465 . S
C3194 C3189 1.399 . S
C3194 C3193 1.394 . S
C3194 C3195 1.516 . S
C3195 C3194 1.516 . S
C3195 C3196 1.502 . S
C3195 C3197 1.561 . S
C3195 C3198 1.526 . S
C3196 H3180 0.959 . S
C3196 H3181 0.959 . S
C3196 H3182 0.961 . S
C3196 C3195 1.502 . S
C3197 H3183 0.960 . S
C3197 H3184 0.961 . S
C3197 H3185 0.959 . S
C3197 C3195 1.561 . S
C3198 C3195 1.526 . S
C3198 C3199 1.396 . S
C3198 C3203 1.390 . S
C3199 C3193 1.465 . S
C3199 C3198 1.396 . S
C3199 C3200 1.399 . S
C3200 H3186 0.929 . S
C3200 C3199 1.399 . S
C3200 C3201 1.385 . S
C3201 H3187 0.931 . S
C3201 C3200 1.385 . S
C3201 C3202 1.389 . S
C3202 C3201 1.389 . S
C3202 C3203 1.387 . S
C3203 H3188 0.930 . S
C3203 C3198 1.390 . S
C3203 C3202 1.387 . S
H3204 C3216 0.930 . S
H3205 C3218 0.930 . S
H3206 C3219 0.930 . S
H3207 C3223 0.959 . S
H3208 C3223 0.959 . S
H3209 C3223 0.961 . S
H3210 C3224 0.960 . S
H3211 C3224 0.961 . S
H3212 C3224 0.959 . S
H3213 C3227 0.929 . S
H3214 C3228 0.931 . S
H3215 C3230 0.930 . S
C3216 H3204 0.930 . S
C3216 C3217 1.399 . S
C3216 C3221 1.399 . S
C3217 C3216 1.399 . S
C3217 C3218 1.376 . S
C3218 H3205 0.930 . S
C3218 C3217 1.376 . S
C3218 C3219 1.388 . S
C3219 H3206 0.930 . S
C3219 C3218 1.388 . S
C3219 C3220 1.390 . S
C3220 C3219 1.390 . S
C3220 C3221 1.394 . S
C3220 C3226 1.465 . S
C3221 C3216 1.399 . S
C3221 C3220 1.394 . S
C3221 C3222 1.516 . S
C3222 C3221 1.516 . S
C3222 C3223 1.502 . S
C3222 C3224 1.561 . S
C3222 C3225 1.526 . S
C3223 H3207 0.959 . S
C3223 H3208 0.959 . S
C3223 H3209 0.961 . S
C3223 C3222 1.502 . S
C3224 H3210 0.960 . S
C3224 H3211 0.961 . S
C3224 H3212 0.959 . S
C3224 C3222 1.561 . S
C3225 C3222 1.526 . S
C3225 C3226 1.396 . S
C3225 C3230 1.390 . S
C3226 C3220 1.465 . S
C3226 C3225 1.396 . S
C3226 C3227 1.399 . S
C3227 H3213 0.929 . S
C3227 C3226 1.399 . S
C3227 C3228 1.385 . S
C3228 H3214 0.931 . S
C3228 C3227 1.385 . S
C3228 C3229 1.389 . S
C3229 C3228 1.389 . S
C3229 C3230 1.387 . S
C3230 H3215 0.930 . S
C3230 C3225 1.390 . S
C3230 C3229 1.387 . S
H3231 C3243 0.930 . S
H3232 C3245 0.930 . S
H3233 C3246 0.930 . S
H3234 C3250 0.959 . S
H3235 C3250 0.959 . S
H3236 C3250 0.961 . S
H3237 C3251 0.960 . S
H3238 C3251 0.961 . S
H3239 C3251 0.959 . S
H3240 C3254 0.929 . S
H3241 C3255 0.931 . S
H3242 C3257 0.930 . S
C3243 H3231 0.930 . S
C3243 C3244 1.399 . S
C3243 C3248 1.399 . S
C3244 C3243 1.399 . S
C3244 C3245 1.376 . S
C3245 H3232 0.930 . S
C3245 C3244 1.376 . S
C3245 C3246 1.388 . S
C3246 H3233 0.930 . S
C3246 C3245 1.388 . S
C3246 C3247 1.390 . S
C3247 C3246 1.390 . S
C3247 C3248 1.394 . S
C3247 C3253 1.465 . S
C3248 C3243 1.399 . S
C3248 C3247 1.394 . S
C3248 C3249 1.516 . S
C3249 C3248 1.516 . S
C3249 C3250 1.502 . S
C3249 C3251 1.561 . S
C3249 C3252 1.526 . S
C3250 H3234 0.959 . S
C3250 H3235 0.959 . S
C3250 H3236 0.961 . S
C3250 C3249 1.502 . S
C3251 H3237 0.960 . S
C3251 H3238 0.961 . S
C3251 H3239 0.959 . S
C3251 C3249 1.561 . S
C3252 C3249 1.526 . S
C3252 C3253 1.396 . S
C3252 C3257 1.390 . S
C3253 C3247 1.465 . S
C3253 C3252 1.396 . S
C3253 C3254 1.399 . S
C3254 H3240 0.929 . S
C3254 C3253 1.399 . S
C3254 C3255 1.385 . S
C3255 H3241 0.931 . S
C3255 C3254 1.385 . S
C3255 C3256 1.389 . S
C3256 C3255 1.389 . S
C3256 C3257 1.387 . S
C3257 H3242 0.930 . S
C3257 C3252 1.390 . S
C3257 C3256 1.387 . S
H3258 C3270 0.930 . S
H3259 C3272 0.930 . S
H3260 C3273 0.930 . S
H3261 C3277 0.959 . S
H3262 C3277 0.959 . S
H3263 C3277 0.961 . S
H3264 C3278 0.960 . S
H3265 C3278 0.961 . S
H3266 C3278 0.959 . S
H3267 C3281 0.929 . S
H3268 C3282 0.931 . S
H3269 C3284 0.930 . S
C3270 H3258 0.930 . S
C3270 C3271 1.399 . S
C3270 C3275 1.399 . S
C3271 C3270 1.399 . S
C3271 C3272 1.376 . S
C3272 H3259 0.930 . S
C3272 C3271 1.376 . S
C3272 C3273 1.388 . S
C3273 H3260 0.930 . S
C3273 C3272 1.388 . S
C3273 C3274 1.390 . S
C3274 C3273 1.390 . S
C3274 C3275 1.394 . S
C3274 C3280 1.465 . S
C3275 C3270 1.399 . S
C3275 C3274 1.394 . S
C3275 C3276 1.516 . S
C3276 C3275 1.516 . S
C3276 C3277 1.502 . S
C3276 C3278 1.561 . S
C3276 C3279 1.526 . S
C3277 H3261 0.959 . S
C3277 H3262 0.959 . S
C3277 H3263 0.961 . S
C3277 C3276 1.502 . S
C3278 H3264 0.960 . S
C3278 H3265 0.961 . S
C3278 H3266 0.959 . S
C3278 C3276 1.561 . S
C3279 C3276 1.526 . S
C3279 C3280 1.396 . S
C3279 C3284 1.390 . S
C3280 C3274 1.465 . S
C3280 C3279 1.396 . S
C3280 C3281 1.399 . S
C3281 H3267 0.929 . S
C3281 C3280 1.399 . S
C3281 C3282 1.385 . S
C3282 H3268 0.931 . S
C3282 C3281 1.385 . S
C3282 C3283 1.389 . S
C3283 C3282 1.389 . S
C3283 C3284 1.387 . S
C3284 H3269 0.930 . S
C3284 C3279 1.390 . S
C3284 C3283 1.387 . S
H3285 C3297 0.930 . S
H3286 C3299 0.930 . S
H3287 C3300 0.930 . S
H3288 C3304 0.959 . S
H3289 C3304 0.959 . S
H3290 C3304 0.961 . S
H3291 C3305 0.960 . S
H3292 C3305 0.961 . S
H3293 C3305 0.959 . S
H3294 C3308 0.929 . S
H3295 C3309 0.931 . S
H3296 C3311 0.930 . S
C3297 H3285 0.930 . S
C3297 C3298 1.399 . S
C3297 C3302 1.399 . S
C3298 C3297 1.399 . S
C3298 C3299 1.376 . S
C3299 H3286 0.930 . S
C3299 C3298 1.376 . S
C3299 C3300 1.388 . S
C3300 H3287 0.930 . S
C3300 C3299 1.388 . S
C3300 C3301 1.390 . S
C3301 C3300 1.390 . S
C3301 C3302 1.394 . S
C3301 C3307 1.465 . S
C3302 C3297 1.399 . S
C3302 C3301 1.394 . S
C3302 C3303 1.516 . S
C3303 C3302 1.516 . S
C3303 C3304 1.502 . S
C3303 C3305 1.561 . S
C3303 C3306 1.526 . S
C3304 H3288 0.959 . S
C3304 H3289 0.959 . S
C3304 H3290 0.961 . S
C3304 C3303 1.502 . S
C3305 H3291 0.960 . S
C3305 H3292 0.961 . S
C3305 H3293 0.959 . S
C3305 C3303 1.561 . S
C3306 C3303 1.526 . S
C3306 C3307 1.396 . S
C3306 C3311 1.390 . S
C3307 C3301 1.465 . S
C3307 C3306 1.396 . S
C3307 C3308 1.399 . S
C3308 H3294 0.929 . S
C3308 C3307 1.399 . S
C3308 C3309 1.385 . S
C3309 H3295 0.931 . S
C3309 C3308 1.385 . S
C3309 C3310 1.389 . S
C3310 C3309 1.389 . S
C3310 C3311 1.387 . S
C3311 H3296 0.930 . S
C3311 C3306 1.390 . S
C3311 C3310 1.387 . S
H3312 C3324 0.930 . S
H3313 C3326 0.930 . S
H3314 C3327 0.930 . S
H3315 C3331 0.959 . S
H3316 C3331 0.959 . S
H3317 C3331 0.961 . S
H3318 C3332 0.960 . S
H3319 C3332 0.961 . S
H3320 C3332 0.959 . S
H3321 C3335 0.929 . S
H3322 C3336 0.931 . S
H3323 C3338 0.930 . S
C3324 H3312 0.930 . S
C3324 C3325 1.399 . S
C3324 C3329 1.399 . S
C3325 C3324 1.399 . S
C3325 C3326 1.376 . S
C3326 H3313 0.930 . S
C3326 C3325 1.376 . S
C3326 C3327 1.388 . S
C3327 H3314 0.930 . S
C3327 C3326 1.388 . S
C3327 C3328 1.390 . S
C3328 C3327 1.390 . S
C3328 C3329 1.394 . S
C3328 C3334 1.465 . S
C3329 C3324 1.399 . S
C3329 C3328 1.394 . S
C3329 C3330 1.516 . S
C3330 C3329 1.516 . S
C3330 C3331 1.502 . S
C3330 C3332 1.561 . S
C3330 C3333 1.526 . S
C3331 H3315 0.959 . S
C3331 H3316 0.959 . S
C3331 H3317 0.961 . S
C3331 C3330 1.502 . S
C3332 H3318 0.960 . S
C3332 H3319 0.961 . S
C3332 H3320 0.959 . S
C3332 C3330 1.561 . S
C3333 C3330 1.526 . S
C3333 C3334 1.396 . S
C3333 C3338 1.390 . S
C3334 C3328 1.465 . S
C3334 C3333 1.396 . S
C3334 C3335 1.399 . S
C3335 H3321 0.929 . S
C3335 C3334 1.399 . S
C3335 C3336 1.385 . S
C3336 H3322 0.931 . S
C3336 C3335 1.385 . S
C3336 C3337 1.389 . S
C3337 C3336 1.389 . S
C3337 C3338 1.387 . S
C3338 H3323 0.930 . S
C3338 C3333 1.390 . S
C3338 C3337 1.387 . S
H3339 C3351 0.930 . S
H3340 C3353 0.930 . S
H3341 C3354 0.930 . S
H3342 C3358 0.959 . S
H3343 C3358 0.959 . S
H3344 C3358 0.961 . S
H3345 C3359 0.960 . S
H3346 C3359 0.961 . S
H3347 C3359 0.959 . S
H3348 C3362 0.929 . S
H3349 C3363 0.931 . S
H3350 C3365 0.930 . S
C3351 H3339 0.930 . S
C3351 C3352 1.399 . S
C3351 C3356 1.399 . S
C3352 C3351 1.399 . S
C3352 C3353 1.376 . S
C3353 H3340 0.930 . S
C3353 C3352 1.376 . S
C3353 C3354 1.388 . S
C3354 H3341 0.930 . S
C3354 C3353 1.388 . S
C3354 C3355 1.390 . S
C3355 C3354 1.390 . S
C3355 C3356 1.394 . S
C3355 C3361 1.465 . S
C3356 C3351 1.399 . S
C3356 C3355 1.394 . S
C3356 C3357 1.516 . S
C3357 C3356 1.516 . S
C3357 C3358 1.502 . S
C3357 C3359 1.561 . S
C3357 C3360 1.526 . S
C3358 H3342 0.959 . S
C3358 H3343 0.959 . S
C3358 H3344 0.961 . S
C3358 C3357 1.502 . S
C3359 H3345 0.960 . S
C3359 H3346 0.961 . S
C3359 H3347 0.959 . S
C3359 C3357 1.561 . S
C3360 C3357 1.526 . S
C3360 C3361 1.396 . S
C3360 C3365 1.390 . S
C3361 C3355 1.465 . S
C3361 C3360 1.396 . S
C3361 C3362 1.399 . S
C3362 H3348 0.929 . S
C3362 C3361 1.399 . S
C3362 C3363 1.385 . S
C3363 H3349 0.931 . S
C3363 C3362 1.385 . S
C3363 C3364 1.389 . S
C3364 C3363 1.389 . S
C3364 C3365 1.387 . S
C3365 H3350 0.930 . S
C3365 C3360 1.390 . S
C3365 C3364 1.387 . S
H3366 C3378 0.930 . S
H3367 C3380 0.930 . S
H3368 C3381 0.930 . S
H3369 C3385 0.959 . S
H3370 C3385 0.959 . S
H3371 C3385 0.961 . S
H3372 C3386 0.960 . S
H3373 C3386 0.961 . S
H3374 C3386 0.959 . S
H3375 C3389 0.929 . S
H3376 C3390 0.931 . S
H3377 C3392 0.930 . S
C3378 H3366 0.930 . S
C3378 C3379 1.399 . S
C3378 C3383 1.399 . S
C3379 C3378 1.399 . S
C3379 C3380 1.376 . S
C3380 H3367 0.930 . S
C3380 C3379 1.376 . S
C3380 C3381 1.388 . S
C3381 H3368 0.930 . S
C3381 C3380 1.388 . S
C3381 C3382 1.390 . S
C3382 C3381 1.390 . S
C3382 C3383 1.394 . S
C3382 C3388 1.465 . S
C3383 C3378 1.399 . S
C3383 C3382 1.394 . S
C3383 C3384 1.516 . S
C3384 C3383 1.516 . S
C3384 C3385 1.502 . S
C3384 C3386 1.561 . S
C3384 C3387 1.526 . S
C3385 H3369 0.959 . S
C3385 H3370 0.959 . S
C3385 H3371 0.961 . S
C3385 C3384 1.502 . S
C3386 H3372 0.960 . S
C3386 H3373 0.961 . S
C3386 H3374 0.959 . S
C3386 C3384 1.561 . S
C3387 C3384 1.526 . S
C3387 C3388 1.396 . S
C3387 C3392 1.390 . S
C3388 C3382 1.465 . S
C3388 C3387 1.396 . S
C3388 C3389 1.399 . S
C3389 H3375 0.929 . S
C3389 C3388 1.399 . S
C3389 C3390 1.385 . S
C3390 H3376 0.931 . S
C3390 C3389 1.385 . S
C3390 C3391 1.389 . S
C3391 C3390 1.389 . S
C3391 C3392 1.387 . S
C3392 H3377 0.930 . S
C3392 C3387 1.390 . S
C3392 C3391 1.387 . S
H3393 C3405 0.930 . S
H3394 C3407 0.930 . S
H3395 C3408 0.930 . S
H3396 C3412 0.959 . S
H3397 C3412 0.959 . S
H3398 C3412 0.961 . S
H3399 C3413 0.960 . S
H3400 C3413 0.961 . S
H3401 C3413 0.959 . S
H3402 C3416 0.929 . S
H3403 C3417 0.931 . S
H3404 C3419 0.930 . S
C3405 H3393 0.930 . S
C3405 C3406 1.399 . S
C3405 C3410 1.399 . S
C3406 C3405 1.399 . S
C3406 C3407 1.376 . S
C3407 H3394 0.930 . S
C3407 C3406 1.376 . S
C3407 C3408 1.388 . S
C3408 H3395 0.930 . S
C3408 C3407 1.388 . S
C3408 C3409 1.390 . S
C3409 C3408 1.390 . S
C3409 C3410 1.394 . S
C3409 C3415 1.465 . S
C3410 C3405 1.399 . S
C3410 C3409 1.394 . S
C3410 C3411 1.516 . S
C3411 C3410 1.516 . S
C3411 C3412 1.502 . S
C3411 C3413 1.561 . S
C3411 C3414 1.526 . S
C3412 H3396 0.959 . S
C3412 H3397 0.959 . S
C3412 H3398 0.961 . S
C3412 C3411 1.502 . S
C3413 H3399 0.960 . S
C3413 H3400 0.961 . S
C3413 H3401 0.959 . S
C3413 C3411 1.561 . S
C3414 C3411 1.526 . S
C3414 C3415 1.396 . S
C3414 C3419 1.390 . S
C3415 C3409 1.465 . S
C3415 C3414 1.396 . S
C3415 C3416 1.399 . S
C3416 H3402 0.929 . S
C3416 C3415 1.399 . S
C3416 C3417 1.385 . S
C3417 H3403 0.931 . S
C3417 C3416 1.385 . S
C3417 C3418 1.389 . S
C3418 C3417 1.389 . S
C3418 C3419 1.387 . S
C3419 H3404 0.930 . S
C3419 C3414 1.390 . S
C3419 C3418 1.387 . S
H3420 C3432 0.930 . S
H3421 C3434 0.930 . S
H3422 C3435 0.930 . S
H3423 C3439 0.959 . S
H3424 C3439 0.959 . S
H3425 C3439 0.961 . S
H3426 C3440 0.960 . S
H3427 C3440 0.961 . S
H3428 C3440 0.959 . S
H3429 C3443 0.929 . S
H3430 C3444 0.931 . S
H3431 C3446 0.930 . S
C3432 H3420 0.930 . S
C3432 C3433 1.399 . S
C3432 C3437 1.399 . S
C3433 C3432 1.399 . S
C3433 C3434 1.376 . S
C3434 H3421 0.930 . S
C3434 C3433 1.376 . S
C3434 C3435 1.388 . S
C3435 H3422 0.930 . S
C3435 C3434 1.388 . S
C3435 C3436 1.390 . S
C3436 C3435 1.390 . S
C3436 C3437 1.394 . S
C3436 C3442 1.465 . S
C3437 C3432 1.399 . S
C3437 C3436 1.394 . S
C3437 C3438 1.516 . S
C3438 C3437 1.516 . S
C3438 C3439 1.502 . S
C3438 C3440 1.561 . S
C3438 C3441 1.526 . S
C3439 H3423 0.959 . S
C3439 H3424 0.959 . S
C3439 H3425 0.961 . S
C3439 C3438 1.502 . S
C3440 H3426 0.960 . S
C3440 H3427 0.961 . S
C3440 H3428 0.959 . S
C3440 C3438 1.561 . S
C3441 C3438 1.526 . S
C3441 C3442 1.396 . S
C3441 C3446 1.390 . S
C3442 C3436 1.465 . S
C3442 C3441 1.396 . S
C3442 C3443 1.399 . S
C3443 H3429 0.929 . S
C3443 C3442 1.399 . S
C3443 C3444 1.385 . S
C3444 H3430 0.931 . S
C3444 C3443 1.385 . S
C3444 C3445 1.389 . S
C3445 C3444 1.389 . S
C3445 C3446 1.387 . S
C3446 H3431 0.930 . S
C3446 C3441 1.390 . S
C3446 C3445 1.387 . S
H3447 C3459 0.930 . S
H3448 C3461 0.930 . S
H3449 C3462 0.930 . S
H3450 C3466 0.959 . S
H3451 C3466 0.959 . S
H3452 C3466 0.961 . S
H3453 C3467 0.960 . S
H3454 C3467 0.961 . S
H3455 C3467 0.959 . S
H3456 C3470 0.929 . S
H3457 C3471 0.931 . S
H3458 C3473 0.930 . S
C3459 H3447 0.930 . S
C3459 C3460 1.399 . S
C3459 C3464 1.399 . S
C3460 C3459 1.399 . S
C3460 C3461 1.376 . S
C3461 H3448 0.930 . S
C3461 C3460 1.376 . S
C3461 C3462 1.388 . S
C3462 H3449 0.930 . S
C3462 C3461 1.388 . S
C3462 C3463 1.390 . S
C3463 C3462 1.390 . S
C3463 C3464 1.394 . S
C3463 C3469 1.465 . S
C3464 C3459 1.399 . S
C3464 C3463 1.394 . S
C3464 C3465 1.516 . S
C3465 C3464 1.516 . S
C3465 C3466 1.502 . S
C3465 C3467 1.561 . S
C3465 C3468 1.526 . S
C3466 H3450 0.959 . S
C3466 H3451 0.959 . S
C3466 H3452 0.961 . S
C3466 C3465 1.502 . S
C3467 H3453 0.960 . S
C3467 H3454 0.961 . S
C3467 H3455 0.959 . S
C3467 C3465 1.561 . S
C3468 C3465 1.526 . S
C3468 C3469 1.396 . S
C3468 C3473 1.390 . S
C3469 C3463 1.465 . S
C3469 C3468 1.396 . S
C3469 C3470 1.399 . S
C3470 H3456 0.929 . S
C3470 C3469 1.399 . S
C3470 C3471 1.385 . S
C3471 H3457 0.931 . S
C3471 C3470 1.385 . S
C3471 C3472 1.389 . S
C3472 C3471 1.389 . S
C3472 C3473 1.387 . S
C3473 H3458 0.930 . S
C3473 C3468 1.390 . S
C3473 C3472 1.387 . S
H3474 C3486 0.930 . S
H3475 C3488 0.930 . S
H3476 C3489 0.930 . S
H3477 C3493 0.959 . S
H3478 C3493 0.959 . S
H3479 C3493 0.961 . S
H3480 C3494 0.960 . S
H3481 C3494 0.961 . S
H3482 C3494 0.959 . S
H3483 C3497 0.929 . S
H3484 C3498 0.931 . S
H3485 C3500 0.930 . S
C3486 H3474 0.930 . S
C3486 C3487 1.399 . S
C3486 C3491 1.399 . S
C3487 C3486 1.399 . S
C3487 C3488 1.376 . S
C3488 H3475 0.930 . S
C3488 C3487 1.376 . S
C3488 C3489 1.388 . S
C3489 H3476 0.930 . S
C3489 C3488 1.388 . S
C3489 C3490 1.390 . S
C3490 C3489 1.390 . S
C3490 C3491 1.394 . S
C3490 C3496 1.465 . S
C3491 C3486 1.399 . S
C3491 C3490 1.394 . S
C3491 C3492 1.516 . S
C3492 C3491 1.516 . S
C3492 C3493 1.502 . S
C3492 C3494 1.561 . S
C3492 C3495 1.526 . S
C3493 H3477 0.959 . S
C3493 H3478 0.959 . S
C3493 H3479 0.961 . S
C3493 C3492 1.502 . S
C3494 H3480 0.960 . S
C3494 H3481 0.961 . S
C3494 H3482 0.959 . S
C3494 C3492 1.561 . S
C3495 C3492 1.526 . S
C3495 C3496 1.396 . S
C3495 C3500 1.390 . S
C3496 C3490 1.465 . S
C3496 C3495 1.396 . S
C3496 C3497 1.399 . S
C3497 H3483 0.929 . S
C3497 C3496 1.399 . S
C3497 C3498 1.385 . S
C3498 H3484 0.931 . S
C3498 C3497 1.385 . S
C3498 C3499 1.389 . S
C3499 C3498 1.389 . S
C3499 C3500 1.387 . S
C3500 H3485 0.930 . S
C3500 C3495 1.390 . S
C3500 C3499 1.387 . S
H3501 C3513 0.930 . S
H3502 C3515 0.930 1_554 S
H3503 C3516 0.930 . S
H3504 C3520 0.959 . S
H3505 C3520 0.959 . S
H3506 C3520 0.961 . S
H3507 C3521 0.960 . S
H3508 C3521 0.961 . S
H3509 C3521 0.959 . S
H3510 C3524 0.929 . S
H3511 C3525 0.931 . S
H3512 C3527 0.930 . S
C3513 H3501 0.930 . S
C3513 C3514 1.399 . S
C3513 C3518 1.399 . S
C3514 C3513 1.399 . S
C3514 C3515 1.376 . S
C3515 H3502 0.930 1_556 S
C3515 C3514 1.376 . S
C3515 C3516 1.388 . S
C3516 H3503 0.930 . S
C3516 C3515 1.388 . S
C3516 C3517 1.390 . S
C3517 C3516 1.390 . S
C3517 C3518 1.394 . S
C3517 C3523 1.465 . S
C3518 C3513 1.399 . S
C3518 C3517 1.394 . S
C3518 C3519 1.516 . S
C3519 C3518 1.516 . S
C3519 C3520 1.502 . S
C3519 C3521 1.561 . S
C3519 C3522 1.526 . S
C3520 H3504 0.959 . S
C3520 H3505 0.959 . S
C3520 H3506 0.961 . S
C3520 C3519 1.502 . S
C3521 H3507 0.960 . S
C3521 H3508 0.961 . S
C3521 H3509 0.959 . S
C3521 C3519 1.561 . S
C3522 C3519 1.526 . S
C3522 C3523 1.396 . S
C3522 C3527 1.390 . S
C3523 C3517 1.465 . S
C3523 C3522 1.396 . S
C3523 C3524 1.399 . S
C3524 H3510 0.929 . S
C3524 C3523 1.399 . S
C3524 C3525 1.385 . S
C3525 H3511 0.931 . S
C3525 C3524 1.385 . S
C3525 C3526 1.389 . S
C3526 C3525 1.389 . S
C3526 C3527 1.387 . S
C3527 H3512 0.930 . S
C3527 C3522 1.390 . S
C3527 C3526 1.387 . S
H3528 C3540 0.930 . S
H3529 C3542 0.930 . S
H3530 C3543 0.930 . S
H3531 C3547 0.959 . S
H3532 C3547 0.959 . S
H3533 C3547 0.961 1_554 S
H3534 C3548 0.973 . S
H3535 C3548 0.961 . S
H3536 C3548 0.959 . S
H3537 C3551 0.929 . S
H3538 C3552 0.931 . S
H3539 C3554 0.930 . S
C3540 H3528 0.930 . S
C3540 C3541 1.399 . S
C3540 C3545 1.399 . S
C3541 C3540 1.399 . S
C3541 C3542 1.376 . S
C3542 H3529 0.930 . S
C3542 C3541 1.376 . S
C3542 C3543 1.388 . S
C3543 H3530 0.930 . S
C3543 C3542 1.388 . S
C3543 C3544 1.390 . S
C3544 C3543 1.390 . S
C3544 C3545 1.394 . S
C3544 C3550 1.465 . S
C3545 C3540 1.399 . S
C3545 C3544 1.394 . S
C3545 C3546 1.516 . S
C3546 C3545 1.516 . S
C3546 C3547 1.502 . S
C3546 C3548 1.561 . S
C3546 C3549 1.526 . S
C3547 H3531 0.959 . S
C3547 H3532 0.959 . S
C3547 H3533 0.961 1_556 S
C3547 C3546 1.502 . S
C3548 H3534 0.973 . S
C3548 H3535 0.961 . S
C3548 H3536 0.959 . S
C3548 C3546 1.561 . S
C3549 C3546 1.526 . S
C3549 C3550 1.396 . S
C3549 C3554 1.390 . S
C3550 C3544 1.465 . S
C3550 C3549 1.396 . S
C3550 C3551 1.399 . S
C3551 H3537 0.929 . S
C3551 C3550 1.399 . S
C3551 C3552 1.385 . S
C3552 H3538 0.931 . S
C3552 C3551 1.385 . S
C3552 C3553 1.389 . S
C3553 C3552 1.389 . S
C3553 C3554 1.387 . S
C3554 H3539 0.930 . S
C3554 C3549 1.390 . S
C3554 C3553 1.387 . S
H3555 C3567 0.930 . S
H3556 C3569 0.930 . S
H3557 C3570 0.930 . S
H3558 C3574 0.959 . S
H3559 C3574 0.959 . S
H3560 C3574 0.961 . S
H3561 C3575 0.986 . S
H3562 C3575 0.961 . S
H3563 C3575 0.959 . S
H3564 C3578 0.929 . S
H3565 C3579 0.931 . S
H3566 C3581 0.930 . S
C3567 H3555 0.930 . S
C3567 C3568 1.399 . S
C3567 C3572 1.399 . S
C3568 C3567 1.399 . S
C3568 C3569 1.376 . S
C3569 H3556 0.930 . S
C3569 C3568 1.376 . S
C3569 C3570 1.388 . S
C3570 H3557 0.930 . S
C3570 C3569 1.388 . S
C3570 C3571 1.390 . S
C3571 C3570 1.390 . S
C3571 C3572 1.394 . S
C3571 C3577 1.465 . S
C3572 C3567 1.399 . S
C3572 C3571 1.394 . S
C3572 C3573 1.516 . S
C3573 C3572 1.516 . S
C3573 C3574 1.502 . S
C3573 C3575 1.561 . S
C3573 C3576 1.526 . S
C3574 H3558 0.959 . S
C3574 H3559 0.959 . S
C3574 H3560 0.961 . S
C3574 C3573 1.502 . S
C3575 H3561 0.986 . S
C3575 H3562 0.961 . S
C3575 H3563 0.959 . S
C3575 C3573 1.561 . S
C3576 C3573 1.526 . S
C3576 C3577 1.396 . S
C3576 C3581 1.390 . S
C3577 C3571 1.465 . S
C3577 C3576 1.396 . S
C3577 C3578 1.399 . S
C3578 H3564 0.929 . S
C3578 C3577 1.399 . S
C3578 C3579 1.385 . S
C3579 H3565 0.931 . S
C3579 C3578 1.385 . S
C3579 C3580 1.389 . S
C3580 C3579 1.389 . S
C3580 C3581 1.387 . S
C3581 H3566 0.930 . S
C3581 C3576 1.390 . S
C3581 C3580 1.387 . S
H3582 C3594 0.930 . S
H3583 C3596 0.930 . S
H3584 C3597 0.930 . S
H3585 C3601 0.959 . S
H3586 C3601 0.959 . S
H3587 C3601 0.961 . S
H3588 C3602 0.960 1_554 S
H3589 C3602 0.961 . S
H3590 C3602 0.959 . S
H3591 C3605 0.929 . S
H3592 C3606 0.931 . S
H3593 C3608 0.930 . S
C3594 H3582 0.930 . S
C3594 C3595 1.399 . S
C3594 C3599 1.399 . S
C3595 C3594 1.399 . S
C3595 C3596 1.376 . S
C3596 H3583 0.930 . S
C3596 C3595 1.376 . S
C3596 C3597 1.388 . S
C3597 H3584 0.930 . S
C3597 C3596 1.388 . S
C3597 C3598 1.390 . S
C3598 C3597 1.390 . S
C3598 C3599 1.394 . S
C3598 C3604 1.465 . S
C3599 C3594 1.399 . S
C3599 C3598 1.394 . S
C3599 C3600 1.516 . S
C3600 C3599 1.516 . S
C3600 C3601 1.502 . S
C3600 C3602 1.561 . S
C3600 C3603 1.526 . S
C3601 H3585 0.959 . S
C3601 H3586 0.959 . S
C3601 H3587 0.961 . S
C3601 C3600 1.502 . S
C3602 H3588 0.960 1_556 S
C3602 H3589 0.961 . S
C3602 H3590 0.959 . S
C3602 C3600 1.561 . S
C3603 C3600 1.526 . S
C3603 C3604 1.396 . S
C3603 C3608 1.390 . S
C3604 C3598 1.465 . S
C3604 C3603 1.396 . S
C3604 C3605 1.399 . S
C3605 H3591 0.929 . S
C3605 C3604 1.399 . S
C3605 C3606 1.385 . S
C3606 H3592 0.931 . S
C3606 C3605 1.385 . S
C3606 C3607 1.389 . S
C3607 C3606 1.389 . S
C3607 C3608 1.387 . S
C3608 H3593 0.930 . S
C3608 C3603 1.390 . S
C3608 C3607 1.387 . S
H3609 C3621 0.930 . S
H3610 C3623 0.930 . S
H3611 C3624 0.930 . S
H3612 C3628 0.959 . S
H3613 C3628 0.959 . S
H3614 C3628 0.961 . S
H3615 C3629 0.959 . S
H3616 C3629 0.961 . S
H3617 C3629 0.959 . S
H3618 C3632 0.929 . S
H3619 C3633 0.931 . S
H3620 C3635 0.930 . S
C3621 H3609 0.930 . S
C3621 C3622 1.399 . S
C3621 C3626 1.399 . S
C3622 C3621 1.399 . S
C3622 C3623 1.376 . S
C3623 H3610 0.930 . S
C3623 C3622 1.376 . S
C3623 C3624 1.388 . S
C3624 H3611 0.930 . S
C3624 C3623 1.388 . S
C3624 C3625 1.390 . S
C3625 C3624 1.390 . S
C3625 C3626 1.394 . S
C3625 C3631 1.465 . S
C3626 C3621 1.399 . S
C3626 C3625 1.394 . S
C3626 C3627 1.516 . S
C3627 C3626 1.516 . S
C3627 C3628 1.502 . S
C3627 C3629 1.561 . S
C3627 C3630 1.526 . S
C3628 H3612 0.959 . S
C3628 H3613 0.959 . S
C3628 H3614 0.961 . S
C3628 C3627 1.502 . S
C3629 H3615 0.959 . S
C3629 H3616 0.961 . S
C3629 H3617 0.959 . S
C3629 C3627 1.561 . S
C3630 C3627 1.526 . S
C3630 C3631 1.396 . S
C3630 C3635 1.390 . S
C3631 C3625 1.465 . S
C3631 C3630 1.396 . S
C3631 C3632 1.399 . S
C3632 H3618 0.929 . S
C3632 C3631 1.399 . S
C3632 C3633 1.385 . S
C3633 H3619 0.931 . S
C3633 C3632 1.385 . S
C3633 C3634 1.389 . S
C3634 C3633 1.389 . S
C3634 C3635 1.387 . S
C3635 H3620 0.930 . S
C3635 C3630 1.390 . S
C3635 C3634 1.387 . S
H3636 C3648 0.930 . S
H3637 C3650 0.930 . S
H3638 C3651 0.930 . S
H3639 C3655 0.959 . S
H3640 C3655 0.959 . S
H3641 C3655 0.961 . S
H3642 C3656 0.960 . S
H3643 C3656 0.961 . S
H3644 C3656 0.959 . S
H3645 C3659 0.929 . S
H3646 C3660 0.931 . S
H3647 C3662 0.930 . S
C3648 H3636 0.930 . S
C3648 C3649 1.399 . S
C3648 C3653 1.399 . S
C3649 C3648 1.399 . S
C3649 C3650 1.376 . S
C3650 H3637 0.930 . S
C3650 C3649 1.376 . S
C3650 C3651 1.388 . S
C3651 H3638 0.930 . S
C3651 C3650 1.388 . S
C3651 C3652 1.390 . S
C3652 C3651 1.390 . S
C3652 C3653 1.394 . S
C3652 C3658 1.465 . S
C3653 C3648 1.399 . S
C3653 C3652 1.394 . S
C3653 C3654 1.516 . S
C3654 C3653 1.516 . S
C3654 C3655 1.502 . S
C3654 C3656 1.561 . S
C3654 C3657 1.526 . S
C3655 H3639 0.959 . S
C3655 H3640 0.959 . S
C3655 H3641 0.961 . S
C3655 C3654 1.502 . S
C3656 H3642 0.960 . S
C3656 H3643 0.961 . S
C3656 H3644 0.959 . S
C3656 C3654 1.561 . S
C3657 C3654 1.526 . S
C3657 C3658 1.396 . S
C3657 C3662 1.390 . S
C3658 C3652 1.465 . S
C3658 C3657 1.396 . S
C3658 C3659 1.399 . S
C3659 H3645 0.929 . S
C3659 C3658 1.399 . S
C3659 C3660 1.385 . S
C3660 H3646 0.931 . S
C3660 C3659 1.385 . S
C3660 C3661 1.389 . S
C3661 C3660 1.389 . S
C3661 C3662 1.387 . S
C3662 H3647 0.930 . S
C3662 C3657 1.390 . S
C3662 C3661 1.387 . S
H3663 C3675 0.930 . S
H3664 C3677 0.930 . S
H3665 C3678 0.930 . S
H3666 C3682 0.959 . S
H3667 C3682 0.959 . S
H3668 C3682 0.961 . S
H3669 C3683 0.960 . S
H3670 C3683 0.961 . S
H3671 C3683 0.959 . S
H3672 C3686 0.929 . S
H3673 C3687 0.931 . S
H3674 C3689 0.930 . S
C3675 H3663 0.930 . S
C3675 C3676 1.399 . S
C3675 C3680 1.399 . S
C3676 C3675 1.399 . S
C3676 C3677 1.376 . S
C3677 H3664 0.930 . S
C3677 C3676 1.376 . S
C3677 C3678 1.388 . S
C3678 H3665 0.930 . S
C3678 C3677 1.388 . S
C3678 C3679 1.390 . S
C3679 C3678 1.390 . S
C3679 C3680 1.394 . S
C3679 C3685 1.465 . S
C3680 C3675 1.399 . S
C3680 C3679 1.394 . S
C3680 C3681 1.516 . S
C3681 C3680 1.516 . S
C3681 C3682 1.502 . S
C3681 C3683 1.561 . S
C3681 C3684 1.526 . S
C3682 H3666 0.959 . S
C3682 H3667 0.959 . S
C3682 H3668 0.961 . S
C3682 C3681 1.502 . S
C3683 H3669 0.960 . S
C3683 H3670 0.961 . S
C3683 H3671 0.959 . S
C3683 C3681 1.561 . S
C3684 C3681 1.526 . S
C3684 C3685 1.396 . S
C3684 C3689 1.390 . S
C3685 C3679 1.465 . S
C3685 C3684 1.396 . S
C3685 C3686 1.399 . S
C3686 H3672 0.929 . S
C3686 C3685 1.399 . S
C3686 C3687 1.385 . S
C3687 H3673 0.931 . S
C3687 C3686 1.385 . S
C3687 C3688 1.389 . S
C3688 C3687 1.389 . S
C3688 C3689 1.387 . S
C3689 H3674 0.930 . S
C3689 C3684 1.390 . S
C3689 C3688 1.387 . S
H3690 C3702 0.930 . S
H3691 C3704 0.930 . S
H3692 C3705 0.930 . S
H3693 C3709 0.959 . S
H3694 C3709 0.959 . S
H3695 C3709 0.961 . S
H3696 C3710 0.960 . S
H3697 C3710 0.961 . S
H3698 C3710 0.959 . S
H3699 C3713 0.929 . S
H3700 C3714 0.931 . S
H3701 C3716 0.930 . S
C3702 H3690 0.930 . S
C3702 C3703 1.399 . S
C3702 C3707 1.399 . S
C3703 C3702 1.399 . S
C3703 C3704 1.376 . S
C3704 H3691 0.930 . S
C3704 C3703 1.376 . S
C3704 C3705 1.388 . S
C3705 H3692 0.930 . S
C3705 C3704 1.388 . S
C3705 C3706 1.390 . S
C3706 C3705 1.390 . S
C3706 C3707 1.394 . S
C3706 C3712 1.465 . S
C3707 C3702 1.399 . S
C3707 C3706 1.394 . S
C3707 C3708 1.516 . S
C3708 C3707 1.516 . S
C3708 C3709 1.502 . S
C3708 C3710 1.561 . S
C3708 C3711 1.526 . S
C3709 H3693 0.959 . S
C3709 H3694 0.959 . S
C3709 H3695 0.961 . S
C3709 C3708 1.502 . S
C3710 H3696 0.960 . S
C3710 H3697 0.961 . S
C3710 H3698 0.959 . S
C3710 C3708 1.561 . S
C3711 C3708 1.526 . S
C3711 C3712 1.396 . S
C3711 C3716 1.390 . S
C3712 C3706 1.465 . S
C3712 C3711 1.396 . S
C3712 C3713 1.399 . S
C3713 H3699 0.929 . S
C3713 C3712 1.399 . S
C3713 C3714 1.385 . S
C3714 H3700 0.931 . S
C3714 C3713 1.385 . S
C3714 C3715 1.389 . S
C3715 C3714 1.389 . S
C3715 C3716 1.387 . S
C3716 H3701 0.930 . S
C3716 C3711 1.390 . S
C3716 C3715 1.387 . S
H3717 C3729 0.930 . S
H3718 C3731 0.930 . S
H3719 C3732 0.930 . S
H3720 C3736 0.959 . S
H3721 C3736 0.959 . S
H3722 C3736 0.961 . S
H3723 C3737 0.960 . S
H3724 C3737 0.961 . S
H3725 C3737 0.959 . S
H3726 C3740 0.929 . S
H3727 C3741 0.931 . S
H3728 C3743 0.930 . S
C3729 H3717 0.930 . S
C3729 C3730 1.399 . S
C3729 C3734 1.399 . S
C3730 C3729 1.399 . S
C3730 C3731 1.376 . S
C3731 H3718 0.930 . S
C3731 C3730 1.376 . S
C3731 C3732 1.388 . S
C3732 H3719 0.930 . S
C3732 C3731 1.388 . S
C3732 C3733 1.390 . S
C3733 C3732 1.390 . S
C3733 C3734 1.394 . S
C3733 C3739 1.465 . S
C3734 C3729 1.399 . S
C3734 C3733 1.394 . S
C3734 C3735 1.516 . S
C3735 C3734 1.516 . S
C3735 C3736 1.502 . S
C3735 C3737 1.561 . S
C3735 C3738 1.526 . S
C3736 H3720 0.959 . S
C3736 H3721 0.959 . S
C3736 H3722 0.961 . S
C3736 C3735 1.502 . S
C3737 H3723 0.960 . S
C3737 H3724 0.961 . S
C3737 H3725 0.959 . S
C3737 C3735 1.561 . S
C3738 C3735 1.526 . S
C3738 C3739 1.396 . S
C3738 C3743 1.390 . S
C3739 C3733 1.465 . S
C3739 C3738 1.396 . S
C3739 C3740 1.399 . S
C3740 H3726 0.929 . S
C3740 C3739 1.399 . S
C3740 C3741 1.385 . S
C3741 H3727 0.931 . S
C3741 C3740 1.385 . S
C3741 C3742 1.389 . S
C3742 C3741 1.389 . S
C3742 C3743 1.387 . S
C3743 H3728 0.930 . S
C3743 C3738 1.390 . S
C3743 C3742 1.387 . S
H3744 C3756 0.930 . S
H3745 C3758 0.930 . S
H3746 C3759 0.930 . S
H3747 C3763 0.959 . S
H3748 C3763 0.959 . S
H3749 C3763 0.961 . S
H3750 C3764 0.960 . S
H3751 C3764 0.961 . S
H3752 C3764 0.959 . S
H3753 C3767 0.929 . S
H3754 C3768 0.931 . S
H3755 C3770 0.930 . S
C3756 H3744 0.930 . S
C3756 C3757 1.399 . S
C3756 C3761 1.399 . S
C3757 C3756 1.399 . S
C3757 C3758 1.376 . S
C3758 H3745 0.930 . S
C3758 C3757 1.376 . S
C3758 C3759 1.388 . S
C3759 H3746 0.930 . S
C3759 C3758 1.388 . S
C3759 C3760 1.390 . S
C3760 C3759 1.390 . S
C3760 C3761 1.394 . S
C3760 C3766 1.465 . S
C3761 C3756 1.399 . S
C3761 C3760 1.394 . S
C3761 C3762 1.516 . S
C3762 C3761 1.516 . S
C3762 C3763 1.502 . S
C3762 C3764 1.561 . S
C3762 C3765 1.526 . S
C3763 H3747 0.959 . S
C3763 H3748 0.959 . S
C3763 H3749 0.961 . S
C3763 C3762 1.502 . S
C3764 H3750 0.960 . S
C3764 H3751 0.961 . S
C3764 H3752 0.959 . S
C3764 C3762 1.561 . S
C3765 C3762 1.526 . S
C3765 C3766 1.396 . S
C3765 C3770 1.390 . S
C3766 C3760 1.465 . S
C3766 C3765 1.396 . S
C3766 C3767 1.399 . S
C3767 H3753 0.929 . S
C3767 C3766 1.399 . S
C3767 C3768 1.385 . S
C3768 H3754 0.931 . S
C3768 C3767 1.385 . S
C3768 C3769 1.389 . S
C3769 C3768 1.389 . S
C3769 C3770 1.387 . S
C3770 H3755 0.930 . S
C3770 C3765 1.390 . S
C3770 C3769 1.387 . S
H3771 C3783 0.930 . S
H3772 C3785 0.930 . S
H3773 C3786 0.930 . S
H3774 C3790 0.959 . S
H3775 C3790 0.959 . S
H3776 C3790 0.961 . S
H3777 C3791 0.960 . S
H3778 C3791 0.961 . S
H3779 C3791 0.959 . S
H3780 C3794 0.929 . S
H3781 C3795 0.931 . S
H3782 C3797 0.930 . S
C3783 H3771 0.930 . S
C3783 C3784 1.399 . S
C3783 C3788 1.399 . S
C3784 C3783 1.399 . S
C3784 C3785 1.376 . S
C3785 H3772 0.930 . S
C3785 C3784 1.376 . S
C3785 C3786 1.388 . S
C3786 H3773 0.930 . S
C3786 C3785 1.388 . S
C3786 C3787 1.390 . S
C3787 C3786 1.390 . S
C3787 C3788 1.394 . S
C3787 C3793 1.465 . S
C3788 C3783 1.399 . S
C3788 C3787 1.394 . S
C3788 C3789 1.516 . S
C3789 C3788 1.516 . S
C3789 C3790 1.502 . S
C3789 C3791 1.561 . S
C3789 C3792 1.526 . S
C3790 H3774 0.959 . S
C3790 H3775 0.959 . S
C3790 H3776 0.961 . S
C3790 C3789 1.502 . S
C3791 H3777 0.960 . S
C3791 H3778 0.961 . S
C3791 H3779 0.959 . S
C3791 C3789 1.561 . S
C3792 C3789 1.526 . S
C3792 C3793 1.396 . S
C3792 C3797 1.390 . S
C3793 C3787 1.465 . S
C3793 C3792 1.396 . S
C3793 C3794 1.399 . S
C3794 H3780 0.929 . S
C3794 C3793 1.399 . S
C3794 C3795 1.385 . S
C3795 H3781 0.931 . S
C3795 C3794 1.385 . S
C3795 C3796 1.389 . S
C3796 C3795 1.389 . S
C3796 C3797 1.387 . S
C3797 H3782 0.930 . S
C3797 C3792 1.390 . S
C3797 C3796 1.387 . S
H3798 C3810 0.930 . S
H3799 C3812 0.930 . S
H3800 C3813 0.930 . S
H3801 C3817 0.959 . S
H3802 C3817 0.959 . S
H3803 C3817 0.961 . S
H3804 C3818 0.960 . S
H3805 C3818 0.961 . S
H3806 C3818 0.959 . S
H3807 C3821 0.929 . S
H3808 C3822 0.931 . S
H3809 C3824 0.930 . S
C3810 H3798 0.930 . S
C3810 C3811 1.399 . S
C3810 C3815 1.399 . S
C3811 C3810 1.399 . S
C3811 C3812 1.376 . S
C3812 H3799 0.930 . S
C3812 C3811 1.376 . S
C3812 C3813 1.388 . S
C3813 H3800 0.930 . S
C3813 C3812 1.388 . S
C3813 C3814 1.390 . S
C3814 C3813 1.390 . S
C3814 C3815 1.394 . S
C3814 C3820 1.465 . S
C3815 C3810 1.399 . S
C3815 C3814 1.394 . S
C3815 C3816 1.516 . S
C3816 C3815 1.516 . S
C3816 C3817 1.502 . S
C3816 C3818 1.561 . S
C3816 C3819 1.526 . S
C3817 H3801 0.959 . S
C3817 H3802 0.959 . S
C3817 H3803 0.961 . S
C3817 C3816 1.502 . S
C3818 H3804 0.960 . S
C3818 H3805 0.961 . S
C3818 H3806 0.959 . S
C3818 C3816 1.561 . S
C3819 C3816 1.526 . S
C3819 C3820 1.396 . S
C3819 C3824 1.390 . S
C3820 C3814 1.465 . S
C3820 C3819 1.396 . S
C3820 C3821 1.399 . S
C3821 H3807 0.929 . S
C3821 C3820 1.399 . S
C3821 C3822 1.385 . S
C3822 H3808 0.931 . S
C3822 C3821 1.385 . S
C3822 C3823 1.389 . S
C3823 C3822 1.389 . S
C3823 C3824 1.387 . S
C3824 H3809 0.930 . S
C3824 C3819 1.390 . S
C3824 C3823 1.387 . S
H3825 C3837 0.930 . S
H3826 C3839 0.930 . S
H3827 C3840 0.887 1_655 S
H3828 C3844 0.959 . S
H3829 C3844 0.959 . S
H3830 C3844 0.961 . S
H3831 C3845 0.960 . S
H3832 C3845 0.961 . S
H3833 C3845 0.959 1_655 S
H3834 C3848 0.929 . S
H3835 C3849 0.931 . S
H3836 C3851 0.930 . S
C3837 H3825 0.930 . S
C3837 C3838 1.399 . S
C3837 C3842 1.399 . S
C3838 C3837 1.399 . S
C3838 C3839 1.376 . S
C3839 H3826 0.930 . S
C3839 C3838 1.376 . S
C3839 C3840 1.429 . S
C3840 H3827 0.887 1_455 S
C3840 C3839 1.429 . S
C3840 C3841 1.395 . S
C3841 C3840 1.395 . S
C3841 C3842 1.394 . S
C3841 C3847 1.465 . S
C3842 C3837 1.399 . S
C3842 C3841 1.394 . S
C3842 C3843 1.516 . S
C3843 C3842 1.516 . S
C3843 C3844 1.502 . S
C3843 C3845 1.561 . S
C3843 C3846 1.526 . S
C3844 H3828 0.959 . S
C3844 H3829 0.959 . S
C3844 H3830 0.961 . S
C3844 C3843 1.502 . S
C3845 H3831 0.960 . S
C3845 H3832 0.961 . S
C3845 H3833 0.959 1_455 S
C3845 C3843 1.561 . S
C3846 C3843 1.526 . S
C3846 C3847 1.396 . S
C3846 C3851 1.390 . S
C3847 C3841 1.465 . S
C3847 C3846 1.396 . S
C3847 C3848 1.399 1_455 S
C3848 H3834 0.929 . S
C3848 C3847 1.399 1_655 S
C3848 C3849 1.385 . S
C3849 H3835 0.931 . S
C3849 C3848 1.385 . S
C3849 C3850 1.389 1_655 S
C3850 C3849 1.389 1_455 S
C3850 C3851 1.387 . S
C3851 H3836 0.930 . S
C3851 C3846 1.390 . S
C3851 C3850 1.387 . S
H3852 C3864 0.930 . S
H3853 C3866 0.930 . S
H3854 C3867 0.930 . S
H3855 C3871 0.959 . S
H3856 C3871 0.959 . S
H3857 C3871 0.961 . S
H3858 C3872 0.960 . S
H3859 C3872 0.961 . S
H3860 C3872 0.959 . S
H3861 C3875 0.929 . S
H3862 C3876 0.931 . S
H3863 C3878 0.930 . S
C3864 H3852 0.930 . S
C3864 C3865 1.399 . S
C3864 C3869 1.399 . S
C3865 C3864 1.399 . S
C3865 C3866 1.376 . S
C3866 H3853 0.930 . S
C3866 C3865 1.376 . S
C3866 C3867 1.388 . S
C3867 H3854 0.930 . S
C3867 C3866 1.388 . S
C3867 C3868 1.390 . S
C3868 C3867 1.390 . S
C3868 C3869 1.394 . S
C3868 C3874 1.465 . S
C3869 C3864 1.399 . S
C3869 C3868 1.394 . S
C3869 C3870 1.516 . S
C3870 C3869 1.516 . S
C3870 C3871 1.502 . S
C3870 C3872 1.561 . S
C3870 C3873 1.526 . S
C3871 H3855 0.959 . S
C3871 H3856 0.959 . S
C3871 H3857 0.961 . S
C3871 C3870 1.502 . S
C3872 H3858 0.960 . S
C3872 H3859 0.961 . S
C3872 H3860 0.959 . S
C3872 C3870 1.561 . S
C3873 C3870 1.526 . S
C3873 C3874 1.396 . S
C3873 C3878 1.390 . S
C3874 C3868 1.465 . S
C3874 C3873 1.396 . S
C3874 C3875 1.399 . S
C3875 H3861 0.929 . S
C3875 C3874 1.399 . S
C3875 C3876 1.385 . S
C3876 H3862 0.931 . S
C3876 C3875 1.385 . S
C3876 C3877 1.389 . S
C3877 C3876 1.389 . S
C3877 C3878 1.387 . S
C3878 H3863 0.930 . S
C3878 C3873 1.390 . S
C3878 C3877 1.387 . S
H3879 C3891 0.847 1_545 S
H3880 C3893 0.930 . S
H3881 C3894 0.930 . S
H3882 C3898 0.959 . S
H3883 C3898 0.959 . S
H3884 C3898 0.961 . S
H3885 C3899 0.960 . S
H3886 C3899 0.961 . S
H3887 C3899 0.959 . S
H3888 C3902 0.929 . S
H3889 C3903 0.931 . S
H3890 C3905 0.930 . S
C3891 H3879 0.847 1_565 S
C3891 C3892 1.439 . S
C3891 C3896 1.447 . S
C3892 C3891 1.439 . S
C3892 C3893 1.376 . S
C3893 H3880 0.930 . S
C3893 C3892 1.376 . S
C3893 C3894 1.388 . S
C3894 H3881 0.930 . S
C3894 C3893 1.388 . S
C3894 C3895 1.390 . S
C3895 C3894 1.390 . S
C3895 C3896 1.394 . S
C3895 C3901 1.465 . S
C3896 C3891 1.447 . S
C3896 C3895 1.394 . S
C3896 C3897 1.516 1_565 S
C3897 C3896 1.516 1_545 S
C3897 C3898 1.502 . S
C3897 C3899 1.561 . S
C3897 C3900 1.562 . S
C3898 H3882 0.959 . S
C3898 H3883 0.959 . S
C3898 H3884 0.961 . S
C3898 C3897 1.502 . S
C3899 H3885 0.960 . S
C3899 H3886 0.961 . S
C3899 H3887 0.959 . S
C3899 C3897 1.561 . S
C3900 C3897 1.562 . S
C3900 C3901 1.365 1_545 S
C3900 C3905 1.383 . S
C3901 C3895 1.465 . S
C3901 C3900 1.365 1_565 S
C3901 C3902 1.399 . S
C3902 H3888 0.929 . S
C3902 C3901 1.399 . S
C3902 C3903 1.385 . S
C3903 H3889 0.931 . S
C3903 C3902 1.385 . S
C3903 C3904 1.389 . S
C3904 C3903 1.389 . S
C3904 C3905 1.387 1_565 S
C3905 H3890 0.930 . S
C3905 C3900 1.383 . S
C3905 C3904 1.387 1_545 S
H3906 C3918 0.930 . S
H3907 C3920 0.930 . S
H3908 C3921 0.930 . S
H3909 C3925 0.959 . S
H3910 C3925 0.959 . S
H3911 C3925 0.961 . S
H3912 C3926 0.960 . S
H3913 C3926 0.961 . S
H3914 C3926 0.959 . S
H3915 C3929 0.929 . S
H3916 C3930 0.931 . S
H3917 C3932 0.930 . S
C3918 H3906 0.930 . S
C3918 C3919 1.399 . S
C3918 C3923 1.399 . S
C3919 C3918 1.399 . S
C3919 C3920 1.376 1_565 S
C3920 H3907 0.930 . S
C3920 C3919 1.376 1_545 S
C3920 C3921 1.388 . S
C3921 H3908 0.930 . S
C3921 C3920 1.388 . S
C3921 C3922 1.390 1_545 S
C3922 C3921 1.390 1_565 S
C3922 C3923 1.394 . S
C3922 C3928 1.492 . S
C3923 C3918 1.399 . S
C3923 C3922 1.394 . S
C3923 C3924 1.516 . S
C3924 C3923 1.516 . S
C3924 C3925 1.502 . S
C3924 C3926 1.561 . S
C3924 C3927 1.526 . S
C3925 H3909 0.959 . S
C3925 H3910 0.959 . S
C3925 H3911 0.961 . S
C3925 C3924 1.502 . S
C3926 H3912 0.960 . S
C3926 H3913 0.961 . S
C3926 H3914 0.959 . S
C3926 C3924 1.561 . S
C3927 C3924 1.526 . S
C3927 C3928 1.426 . S
C3927 C3932 1.390 . S
C3928 C3922 1.492 . S
C3928 C3927 1.426 . S
C3928 C3929 1.351 1_565 S
C3929 H3915 0.929 . S
C3929 C3928 1.351 1_545 S
C3929 C3930 1.385 . S
C3930 H3916 0.931 . S
C3930 C3929 1.385 . S
C3930 C3931 1.389 1_545 S
C3931 C3930 1.389 1_565 S
C3931 C3932 1.387 . S
C3932 H3917 0.930 . S
C3932 C3927 1.390 . S
C3932 C3931 1.387 . S
H3933 C3945 0.930 . S
H3934 C3947 0.930 . S
H3935 C3948 0.930 . S
H3936 C3952 0.959 . S
H3937 C3952 0.959 . S
H3938 C3952 0.961 . S
H3939 C3953 0.960 . S
H3940 C3953 0.961 . S
H3941 C3953 0.959 . S
H3942 C3956 0.929 . S
H3943 C3957 0.931 . S
H3944 C3959 0.932 1_655 S
C3945 H3933 0.930 . S
C3945 C3946 1.399 . S
C3945 C3950 1.399 . S
C3946 C3945 1.399 . S
C3946 C3947 1.376 . S
C3947 H3934 0.930 . S
C3947 C3946 1.376 . S
C3947 C3948 1.388 . S
C3948 H3935 0.930 . S
C3948 C3947 1.388 . S
C3948 C3949 1.390 . S
C3949 C3948 1.390 . S
C3949 C3950 1.394 . S
C3949 C3955 1.465 . S
C3950 C3945 1.399 . S
C3950 C3949 1.394 . S
C3950 C3951 1.528 . S
C3951 C3950 1.528 . S
C3951 C3952 1.432 1_455 S
C3951 C3953 1.585 . S
C3951 C3954 1.575 . S
C3952 H3936 0.959 . S
C3952 H3937 0.959 . S
C3952 H3938 0.961 . S
C3952 C3951 1.432 1_655 S
C3953 H3939 0.960 . S
C3953 H3940 0.961 . S
C3953 H3941 0.959 . S
C3953 C3951 1.585 . S
C3954 C3951 1.575 . S
C3954 C3955 1.396 . S
C3954 C3959 1.390 . S
C3955 C3949 1.465 . S
C3955 C3954 1.396 . S
C3955 C3956 1.399 . S
C3956 H3942 0.929 . S
C3956 C3955 1.399 . S
C3956 C3957 1.385 . S
C3957 H3943 0.931 . S
C3957 C3956 1.385 . S
C3957 C3958 1.389 . S
C3958 C3957 1.389 . S
C3958 C3959 1.384 . S
C3959 H3944 0.932 1_455 S
C3959 C3954 1.390 . S
C3959 C3958 1.384 . S
H3960 C3972 0.930 . S
H3961 C3974 0.930 . S
H3962 C3975 0.930 . S
H3963 C3979 0.959 . S
H3964 C3979 0.959 . S
H3965 C3979 0.961 . S
H3966 C3980 0.960 . S
H3967 C3980 0.961 . S
H3968 C3980 0.959 . S
H3969 C3983 0.929 . S
H3970 C3984 0.931 . S
H3971 C3986 0.930 . S
C3972 H3960 0.930 . S
C3972 C3973 1.399 . S
C3972 C3977 1.399 . S
C3973 C3972 1.399 . S
C3973 C3974 1.376 . S
C3974 H3961 0.930 . S
C3974 C3973 1.376 . S
C3974 C3975 1.388 . S
C3975 H3962 0.930 . S
C3975 C3974 1.388 . S
C3975 C3976 1.390 . S
C3976 C3975 1.390 . S
C3976 C3977 1.394 . S
C3976 C3982 1.465 . S
C3977 C3972 1.399 . S
C3977 C3976 1.394 . S
C3977 C3978 1.516 . S
C3978 C3977 1.516 . S
C3978 C3979 1.502 . S
C3978 C3980 1.561 . S
C3978 C3981 1.526 . S
C3979 H3963 0.959 . S
C3979 H3964 0.959 . S
C3979 H3965 0.961 . S
C3979 C3978 1.502 . S
C3980 H3966 0.960 . S
C3980 H3967 0.961 . S
C3980 H3968 0.959 . S
C3980 C3978 1.561 . S
C3981 C3978 1.526 . S
C3981 C3982 1.396 . S
C3981 C3986 1.390 . S
C3982 C3976 1.465 . S
C3982 C3981 1.396 . S
C3982 C3983 1.399 . S
C3983 H3969 0.929 . S
C3983 C3982 1.399 . S
C3983 C3984 1.385 . S
C3984 H3970 0.931 . S
C3984 C3983 1.385 . S
C3984 C3985 1.389 . S
C3985 C3984 1.389 . S
C3985 C3986 1.387 . S
C3986 H3971 0.930 . S
C3986 C3981 1.390 . S
C3986 C3985 1.387 . S
H3987 C3999 0.930 . S
H3988 C4001 0.930 . S
H3989 C4002 0.930 . S
H3990 C4006 0.959 . S
H3991 C4006 0.959 . S
H3992 C4006 0.961 . S
H3993 C4007 0.960 . S
H3994 C4007 0.961 . S
H3995 C4007 0.959 . S
H3996 C4010 0.929 . S
H3997 C4011 0.931 . S
H3998 C4013 0.930 . S
C3999 H3987 0.930 . S
C3999 C4000 1.399 . S
C3999 C4004 1.399 . S
C4000 C3999 1.399 . S
C4000 C4001 1.376 . S
C4001 H3988 0.930 . S
C4001 C4000 1.376 . S
C4001 C4002 1.388 . S
C4002 H3989 0.930 . S
C4002 C4001 1.388 . S
C4002 C4003 1.390 . S
C4003 C4002 1.390 . S
C4003 C4004 1.394 . S
C4003 C4009 1.465 . S
C4004 C3999 1.399 . S
C4004 C4003 1.394 . S
C4004 C4005 1.516 . S
C4005 C4004 1.516 . S
C4005 C4006 1.502 . S
C4005 C4007 1.561 . S
C4005 C4008 1.526 . S
C4006 H3990 0.959 . S
C4006 H3991 0.959 . S
C4006 H3992 0.961 . S
C4006 C4005 1.502 . S
C4007 H3993 0.960 . S
C4007 H3994 0.961 . S
C4007 H3995 0.959 . S
C4007 C4005 1.561 . S
C4008 C4005 1.526 . S
C4008 C4009 1.396 . S
C4008 C4013 1.390 . S
C4009 C4003 1.465 . S
C4009 C4008 1.396 . S
C4009 C4010 1.399 . S
C4010 H3996 0.929 . S
C4010 C4009 1.399 . S
C4010 C4011 1.385 . S
C4011 H3997 0.931 . S
C4011 C4010 1.385 . S
C4011 C4012 1.389 . S
C4012 C4011 1.389 . S
C4012 C4013 1.387 . S
C4013 H3998 0.930 . S
C4013 C4008 1.390 . S
C4013 C4012 1.387 . S
H4014 C4026 0.930 . S
H4015 C4028 0.930 . S
H4016 C4029 0.930 . S
H4017 C4033 0.959 . S
H4018 C4033 0.959 . S
H4019 C4033 0.961 . S
H4020 C4034 0.960 . S
H4021 C4034 0.961 . S
H4022 C4034 0.959 . S
H4023 C4037 0.929 . S
H4024 C4038 0.931 . S
H4025 C4040 0.930 . S
C4026 H4014 0.930 . S
C4026 C4027 1.399 . S
C4026 C4031 1.399 . S
C4027 C4026 1.399 . S
C4027 C4028 1.376 . S
C4028 H4015 0.930 . S
C4028 C4027 1.376 . S
C4028 C4029 1.388 . S
C4029 H4016 0.930 . S
C4029 C4028 1.388 . S
C4029 C4030 1.390 . S
C4030 C4029 1.390 . S
C4030 C4031 1.394 . S
C4030 C4036 1.465 . S
C4031 C4026 1.399 . S
C4031 C4030 1.394 . S
C4031 C4032 1.516 . S
C4032 C4031 1.516 . S
C4032 C4033 1.502 . S
C4032 C4034 1.561 . S
C4032 C4035 1.526 . S
C4033 H4017 0.959 . S
C4033 H4018 0.959 . S
C4033 H4019 0.961 . S
C4033 C4032 1.502 . S
C4034 H4020 0.960 . S
C4034 H4021 0.961 . S
C4034 H4022 0.959 . S
C4034 C4032 1.561 . S
C4035 C4032 1.526 . S
C4035 C4036 1.396 . S
C4035 C4040 1.390 . S
C4036 C4030 1.465 . S
C4036 C4035 1.396 . S
C4036 C4037 1.399 . S
C4037 H4023 0.929 . S
C4037 C4036 1.399 . S
C4037 C4038 1.385 . S
C4038 H4024 0.931 . S
C4038 C4037 1.385 . S
C4038 C4039 1.389 . S
C4039 C4038 1.389 . S
C4039 C4040 1.387 . S
C4040 H4025 0.930 . S
C4040 C4035 1.390 . S
C4040 C4039 1.387 . S
H4041 C4053 0.930 . S
H4042 C4055 0.930 . S
H4043 C4056 0.930 . S
H4044 C4060 0.959 . S
H4045 C4060 0.959 . S
H4046 C4060 0.961 . S
H4047 C4061 0.960 . S
H4048 C4061 0.961 . S
H4049 C4061 0.959 . S
H4050 C4064 0.929 . S
H4051 C4065 0.931 . S
H4052 C4067 0.930 . S
C4053 H4041 0.930 . S
C4053 C4054 1.399 . S
C4053 C4058 1.399 . S
C4054 C4053 1.399 . S
C4054 C4055 1.376 . S
C4055 H4042 0.930 . S
C4055 C4054 1.376 . S
C4055 C4056 1.388 . S
C4056 H4043 0.930 . S
C4056 C4055 1.388 . S
C4056 C4057 1.390 . S
C4057 C4056 1.390 . S
C4057 C4058 1.394 . S
C4057 C4063 1.465 . S
C4058 C4053 1.399 . S
C4058 C4057 1.394 . S
C4058 C4059 1.516 . S
C4059 C4058 1.516 . S
C4059 C4060 1.502 . S
C4059 C4061 1.561 . S
C4059 C4062 1.526 . S
C4060 H4044 0.959 . S
C4060 H4045 0.959 . S
C4060 H4046 0.961 . S
C4060 C4059 1.502 . S
C4061 H4047 0.960 . S
C4061 H4048 0.961 . S
C4061 H4049 0.959 . S
C4061 C4059 1.561 . S
C4062 C4059 1.526 . S
C4062 C4063 1.396 . S
C4062 C4067 1.390 . S
C4063 C4057 1.465 . S
C4063 C4062 1.396 . S
C4063 C4064 1.399 . S
C4064 H4050 0.929 . S
C4064 C4063 1.399 . S
C4064 C4065 1.385 . S
C4065 H4051 0.931 . S
C4065 C4064 1.385 . S
C4065 C4066 1.389 . S
C4066 C4065 1.389 . S
C4066 C4067 1.387 . S
C4067 H4052 0.930 . S
C4067 C4062 1.390 . S
C4067 C4066 1.387 . S
H4068 C4080 0.930 . S
H4069 C4082 0.931 . S
H4070 C4083 0.930 . S
H4071 C4087 0.959 . S
H4072 C4087 0.959 . S
H4073 C4087 0.961 . S
H4074 C4088 0.960 . S
H4075 C4088 0.961 . S
H4076 C4088 0.959 . S
H4077 C4091 0.929 . S
H4078 C4092 0.931 . S
H4079 C4094 0.930 . S
C4080 H4068 0.930 . S
C4080 C4081 1.399 . S
C4080 C4085 1.399 . S
C4081 C4080 1.399 . S
C4081 C4082 1.375 1_545 S
C4082 H4069 0.931 . S
C4082 C4081 1.375 1_565 S
C4082 C4083 1.390 . S
C4083 H4070 0.930 . S
C4083 C4082 1.390 . S
C4083 C4084 1.390 1_565 S
C4084 C4083 1.390 1_545 S
C4084 C4085 1.394 . S
C4084 C4090 1.514 . S
C4085 C4080 1.399 . S
C4085 C4084 1.394 . S
C4085 C4086 1.516 . S
C4086 C4085 1.516 . S
C4086 C4087 1.502 . S
C4086 C4088 1.561 . S
C4086 C4089 1.526 . S
C4087 H4071 0.959 . S
C4087 H4072 0.959 . S
C4087 H4073 0.961 . S
C4087 C4086 1.502 . S
C4088 H4074 0.960 . S
C4088 H4075 0.961 . S
C4088 H4076 0.959 . S
C4088 C4086 1.561 . S
C4089 C4086 1.526 . S
C4089 C4090 1.445 . S
C4089 C4094 1.390 . S
C4090 C4084 1.514 . S
C4090 C4089 1.445 . S
C4090 C4091 1.318 1_545 S
C4091 H4077 0.929 . S
C4091 C4090 1.318 1_565 S
C4091 C4092 1.385 . S
C4092 H4078 0.931 . S
C4092 C4091 1.385 . S
C4092 C4093 1.389 1_565 S
C4093 C4092 1.389 1_545 S
C4093 C4094 1.387 . S
C4094 H4079 0.930 . S
C4094 C4089 1.390 . S
C4094 C4093 1.387 . S
H4095 C4107 0.930 . S
H4096 C4109 0.930 . S
H4097 C4110 0.936 1_455 S
H4098 C4114 0.959 . S
H4099 C4114 0.959 . S
H4100 C4114 0.961 . S
H4101 C4115 0.956 1_655 S
H4102 C4115 0.985 . S
H4103 C4115 0.959 . S
H4104 C4118 0.929 . S
H4105 C4119 0.931 . S
H4106 C4121 0.930 . S
C4107 H4095 0.930 . S
C4107 C4108 1.399 . S
C4107 C4112 1.399 . S
C4108 C4107 1.399 . S
C4108 C4109 1.376 . S
C4109 H4096 0.930 . S
C4109 C4108 1.376 . S
C4109 C4110 1.388 . S
C4110 H4097 0.936 1_655 S
C4110 C4109 1.388 . S
C4110 C4111 1.390 . S
C4111 C4110 1.390 . S
C4111 C4112 1.394 . S
C4111 C4117 1.465 . S
C4112 C4107 1.399 . S
C4112 C4111 1.394 . S
C4112 C4113 1.516 . S
C4113 C4112 1.516 . S
C4113 C4114 1.502 . S
C4113 C4115 1.561 1_655 S
C4113 C4116 1.526 . S
C4114 H4098 0.959 . S
C4114 H4099 0.959 . S
C4114 H4100 0.961 . S
C4114 C4113 1.502 . S
C4115 H4101 0.956 1_455 S
C4115 H4102 0.985 . S
C4115 H4103 0.959 . S
C4115 C4113 1.561 1_455 S
C4116 C4113 1.526 . S
C4116 C4117 1.396 . S
C4116 C4121 1.390 . S
C4117 C4111 1.465 . S
C4117 C4116 1.396 . S
C4117 C4118 1.399 1_655 S
C4118 H4104 0.929 . S
C4118 C4117 1.399 1_455 S
C4118 C4119 1.385 . S
C4119 H4105 0.931 . S
C4119 C4118 1.385 . S
C4119 C4120 1.389 1_455 S
C4120 C4119 1.389 1_655 S
C4120 C4121 1.387 . S
C4121 H4106 0.930 . S
C4121 C4116 1.390 . S
C4121 C4120 1.387 . S
H4122 C4134 0.930 . S
H4123 C4136 0.930 . S
H4124 C4137 0.930 . S
H4125 C4141 0.959 . S
H4126 C4141 0.959 . S
H4127 C4141 0.961 . S
H4128 C4142 0.960 . S
H4129 C4142 0.961 . S
H4130 C4142 0.959 . S
H4131 C4145 0.929 . S
H4132 C4146 0.931 . S
H4133 C4148 0.930 . S
C4134 H4122 0.930 . S
C4134 C4135 1.399 . S
C4134 C4139 1.399 . S
C4135 C4134 1.399 . S
C4135 C4136 1.376 . S
C4136 H4123 0.930 . S
C4136 C4135 1.376 . S
C4136 C4137 1.388 . S
C4137 H4124 0.930 . S
C4137 C4136 1.388 . S
C4137 C4138 1.390 . S
C4138 C4137 1.390 . S
C4138 C4139 1.394 . S
C4138 C4144 1.465 . S
C4139 C4134 1.399 . S
C4139 C4138 1.394 . S
C4139 C4140 1.516 . S
C4140 C4139 1.516 . S
C4140 C4141 1.502 . S
C4140 C4142 1.561 . S
C4140 C4143 1.526 . S
C4141 H4125 0.959 . S
C4141 H4126 0.959 . S
C4141 H4127 0.961 . S
C4141 C4140 1.502 . S
C4142 H4128 0.960 . S
C4142 H4129 0.961 . S
C4142 H4130 0.959 . S
C4142 C4140 1.561 . S
C4143 C4140 1.526 . S
C4143 C4144 1.396 . S
C4143 C4148 1.390 . S
C4144 C4138 1.465 . S
C4144 C4143 1.396 . S
C4144 C4145 1.399 . S
C4145 H4131 0.929 . S
C4145 C4144 1.399 . S
C4145 C4146 1.385 . S
C4146 H4132 0.931 . S
C4146 C4145 1.385 . S
C4146 C4147 1.389 . S
C4147 C4146 1.389 . S
C4147 C4148 1.387 . S
C4148 H4133 0.930 . S
C4148 C4143 1.390 . S
C4148 C4147 1.387 . S
H4149 C4161 0.930 . S
H4150 C4163 0.930 . S
H4151 C4164 0.930 . S
H4152 C4168 0.959 . S
H4153 C4168 0.959 . S
H4154 C4168 0.961 . S
H4155 C4169 0.960 . S
H4156 C4169 0.961 . S
H4157 C4169 0.959 . S
H4158 C4172 0.929 . S
H4159 C4173 0.931 . S
H4160 C4175 0.930 . S
C4161 H4149 0.930 . S
C4161 C4162 1.399 . S
C4161 C4166 1.399 . S
C4162 C4161 1.399 . S
C4162 C4163 1.376 . S
C4163 H4150 0.930 . S
C4163 C4162 1.376 . S
C4163 C4164 1.388 . S
C4164 H4151 0.930 . S
C4164 C4163 1.388 . S
C4164 C4165 1.390 . S
C4165 C4164 1.390 . S
C4165 C4166 1.394 . S
C4165 C4171 1.465 . S
C4166 C4161 1.399 . S
C4166 C4165 1.394 . S
C4166 C4167 1.516 . S
C4167 C4166 1.516 . S
C4167 C4168 1.502 . S
C4167 C4169 1.561 . S
C4167 C4170 1.526 . S
C4168 H4152 0.959 . S
C4168 H4153 0.959 . S
C4168 H4154 0.961 . S
C4168 C4167 1.502 . S
C4169 H4155 0.960 . S
C4169 H4156 0.961 . S
C4169 H4157 0.959 . S
C4169 C4167 1.561 . S
C4170 C4167 1.526 . S
C4170 C4171 1.396 . S
C4170 C4175 1.390 . S
C4171 C4165 1.465 . S
C4171 C4170 1.396 . S
C4171 C4172 1.399 . S
C4172 H4158 0.929 . S
C4172 C4171 1.399 . S
C4172 C4173 1.385 . S
C4173 H4159 0.931 . S
C4173 C4172 1.385 . S
C4173 C4174 1.389 . S
C4174 C4173 1.389 . S
C4174 C4175 1.387 . S
C4175 H4160 0.930 . S
C4175 C4170 1.390 . S
C4175 C4174 1.387 . S
H4176 C4188 0.930 . S
H4177 C4190 0.930 . S
H4178 C4191 0.930 . S
H4179 C4195 0.959 . S
H4180 C4195 0.959 . S
H4181 C4195 0.961 . S
H4182 C4196 0.960 . S
H4183 C4196 0.961 . S
H4184 C4196 0.959 . S
H4185 C4199 0.929 . S
H4186 C4200 0.931 . S
H4187 C4202 0.930 . S
C4188 H4176 0.930 . S
C4188 C4189 1.399 . S
C4188 C4193 1.399 . S
C4189 C4188 1.399 . S
C4189 C4190 1.376 . S
C4190 H4177 0.930 . S
C4190 C4189 1.376 . S
C4190 C4191 1.388 . S
C4191 H4178 0.930 . S
C4191 C4190 1.388 . S
C4191 C4192 1.390 . S
C4192 C4191 1.390 . S
C4192 C4193 1.394 . S
C4192 C4198 1.465 . S
C4193 C4188 1.399 . S
C4193 C4192 1.394 . S
C4193 C4194 1.516 . S
C4194 C4193 1.516 . S
C4194 C4195 1.502 . S
C4194 C4196 1.561 . S
C4194 C4197 1.526 . S
C4195 H4179 0.959 . S
C4195 H4180 0.959 . S
C4195 H4181 0.961 . S
C4195 C4194 1.502 . S
C4196 H4182 0.960 . S
C4196 H4183 0.961 . S
C4196 H4184 0.959 . S
C4196 C4194 1.561 . S
C4197 C4194 1.526 . S
C4197 C4198 1.396 . S
C4197 C4202 1.390 . S
C4198 C4192 1.465 . S
C4198 C4197 1.396 . S
C4198 C4199 1.399 . S
C4199 H4185 0.929 . S
C4199 C4198 1.399 . S
C4199 C4200 1.385 . S
C4200 H4186 0.931 . S
C4200 C4199 1.385 . S
C4200 C4201 1.389 . S
C4201 C4200 1.389 . S
C4201 C4202 1.387 . S
C4202 H4187 0.930 . S
C4202 C4197 1.390 . S
C4202 C4201 1.387 . S
H4203 C4215 0.930 . S
H4204 C4217 0.930 . S
H4205 C4218 0.930 . S
H4206 C4222 0.959 . S
H4207 C4222 0.959 . S
H4208 C4222 0.961 . S
H4209 C4223 0.960 . S
H4210 C4223 0.961 . S
H4211 C4223 0.959 . S
H4212 C4226 0.929 . S
H4213 C4227 0.931 . S
H4214 C4229 0.930 . S
C4215 H4203 0.930 . S
C4215 C4216 1.399 . S
C4215 C4220 1.399 . S
C4216 C4215 1.399 . S
C4216 C4217 1.376 . S
C4217 H4204 0.930 . S
C4217 C4216 1.376 . S
C4217 C4218 1.388 . S
C4218 H4205 0.930 . S
C4218 C4217 1.388 . S
C4218 C4219 1.390 . S
C4219 C4218 1.390 . S
C4219 C4220 1.394 . S
C4219 C4225 1.465 . S
C4220 C4215 1.399 . S
C4220 C4219 1.394 . S
C4220 C4221 1.516 . S
C4221 C4220 1.516 . S
C4221 C4222 1.502 . S
C4221 C4223 1.561 . S
C4221 C4224 1.526 . S
C4222 H4206 0.959 . S
C4222 H4207 0.959 . S
C4222 H4208 0.961 . S
C4222 C4221 1.502 . S
C4223 H4209 0.960 . S
C4223 H4210 0.961 . S
C4223 H4211 0.959 . S
C4223 C4221 1.561 . S
C4224 C4221 1.526 . S
C4224 C4225 1.396 . S
C4224 C4229 1.390 . S
C4225 C4219 1.465 . S
C4225 C4224 1.396 . S
C4225 C4226 1.399 . S
C4226 H4212 0.929 . S
C4226 C4225 1.399 . S
C4226 C4227 1.385 . S
C4227 H4213 0.931 . S
C4227 C4226 1.385 . S
C4227 C4228 1.389 . S
C4228 C4227 1.389 . S
C4228 C4229 1.387 . S
C4229 H4214 0.930 . S
C4229 C4224 1.390 . S
C4229 C4228 1.387 . S
H4230 C4242 0.930 . S
H4231 C4244 0.930 . S
H4232 C4245 0.930 . S
H4233 C4249 0.959 . S
H4234 C4249 0.959 . S
H4235 C4249 0.961 . S
H4236 C4250 0.960 . S
H4237 C4250 0.961 . S
H4238 C4250 0.959 . S
H4239 C4253 0.929 . S
H4240 C4254 0.931 . S
H4241 C4256 0.930 . S
C4242 H4230 0.930 . S
C4242 C4243 1.399 . S
C4242 C4247 1.399 . S
C4243 C4242 1.399 . S
C4243 C4244 1.376 . S
C4244 H4231 0.930 . S
C4244 C4243 1.376 . S
C4244 C4245 1.388 . S
C4245 H4232 0.930 . S
C4245 C4244 1.388 . S
C4245 C4246 1.390 . S
C4246 C4245 1.390 . S
C4246 C4247 1.394 . S
C4246 C4252 1.465 . S
C4247 C4242 1.399 . S
C4247 C4246 1.394 . S
C4247 C4248 1.516 . S
C4248 C4247 1.516 . S
C4248 C4249 1.502 . S
C4248 C4250 1.561 . S
C4248 C4251 1.526 . S
C4249 H4233 0.959 . S
C4249 H4234 0.959 . S
C4249 H4235 0.961 . S
C4249 C4248 1.502 . S
C4250 H4236 0.960 . S
C4250 H4237 0.961 . S
C4250 H4238 0.959 . S
C4250 C4248 1.561 . S
C4251 C4248 1.526 . S
C4251 C4252 1.396 . S
C4251 C4256 1.390 . S
C4252 C4246 1.465 . S
C4252 C4251 1.396 . S
C4252 C4253 1.399 . S
C4253 H4239 0.929 . S
C4253 C4252 1.399 . S
C4253 C4254 1.385 . S
C4254 H4240 0.931 . S
C4254 C4253 1.385 . S
C4254 C4255 1.389 . S
C4255 C4254 1.389 . S
C4255 C4256 1.387 . S
C4256 H4241 0.930 . S
C4256 C4251 1.390 . S
C4256 C4255 1.387 . S
H4257 C4269 0.930 . S
H4258 C4271 0.930 . S
H4259 C4272 0.930 . S
H4260 C4276 0.959 . S
H4261 C4276 0.959 . S
H4262 C4276 0.961 . S
H4263 C4277 0.960 . S
H4264 C4277 0.961 . S
H4265 C4277 0.959 . S
H4266 C4280 0.929 . S
H4267 C4281 0.931 . S
H4268 C4283 0.930 . S
C4269 H4257 0.930 . S
C4269 C4270 1.399 . S
C4269 C4274 1.399 . S
C4270 C4269 1.399 . S
C4270 C4271 1.376 . S
C4271 H4258 0.930 . S
C4271 C4270 1.376 . S
C4271 C4272 1.388 . S
C4272 H4259 0.930 . S
C4272 C4271 1.388 . S
C4272 C4273 1.390 . S
C4273 C4272 1.390 . S
C4273 C4274 1.394 . S
C4273 C4279 1.465 . S
C4274 C4269 1.399 . S
C4274 C4273 1.394 . S
C4274 C4275 1.516 . S
C4275 C4274 1.516 . S
C4275 C4276 1.502 . S
C4275 C4277 1.561 . S
C4275 C4278 1.526 . S
C4276 H4260 0.959 . S
C4276 H4261 0.959 . S
C4276 H4262 0.961 . S
C4276 C4275 1.502 . S
C4277 H4263 0.960 . S
C4277 H4264 0.961 . S
C4277 H4265 0.959 . S
C4277 C4275 1.561 . S
C4278 C4275 1.526 . S
C4278 C4279 1.396 . S
C4278 C4283 1.390 . S
C4279 C4273 1.465 . S
C4279 C4278 1.396 . S
C4279 C4280 1.399 . S
C4280 H4266 0.929 . S
C4280 C4279 1.399 . S
C4280 C4281 1.385 . S
C4281 H4267 0.931 . S
C4281 C4280 1.385 . S
C4281 C4282 1.389 . S
C4282 C4281 1.389 . S
C4282 C4283 1.387 . S
C4283 H4268 0.930 . S
C4283 C4278 1.390 . S
C4283 C4282 1.387 . S
H4284 C4296 0.930 . S
H4285 C4298 0.930 . S
H4286 C4299 0.930 . S
H4287 C4303 0.959 . S
H4288 C4303 0.959 . S
H4289 C4303 0.961 . S
H4290 C4304 0.960 . S
H4291 C4304 0.961 . S
H4292 C4304 0.959 . S
H4293 C4307 0.929 . S
H4294 C4308 0.931 . S
H4295 C4310 0.930 . S
C4296 H4284 0.930 . S
C4296 C4297 1.399 . S
C4296 C4301 1.399 . S
C4297 C4296 1.399 . S
C4297 C4298 1.376 . S
C4298 H4285 0.930 . S
C4298 C4297 1.376 . S
C4298 C4299 1.388 . S
C4299 H4286 0.930 . S
C4299 C4298 1.388 . S
C4299 C4300 1.390 . S
C4300 C4299 1.390 . S
C4300 C4301 1.394 . S
C4300 C4306 1.465 . S
C4301 C4296 1.399 . S
C4301 C4300 1.394 . S
C4301 C4302 1.516 . S
C4302 C4301 1.516 . S
C4302 C4303 1.502 . S
C4302 C4304 1.561 . S
C4302 C4305 1.526 . S
C4303 H4287 0.959 . S
C4303 H4288 0.959 . S
C4303 H4289 0.961 . S
C4303 C4302 1.502 . S
C4304 H4290 0.960 . S
C4304 H4291 0.961 . S
C4304 H4292 0.959 . S
C4304 C4302 1.561 . S
C4305 C4302 1.526 . S
C4305 C4306 1.396 . S
C4305 C4310 1.390 . S
C4306 C4300 1.465 . S
C4306 C4305 1.396 . S
C4306 C4307 1.399 . S
C4307 H4293 0.929 . S
C4307 C4306 1.399 . S
C4307 C4308 1.385 . S
C4308 H4294 0.931 . S
C4308 C4307 1.385 . S
C4308 C4309 1.389 . S
C4309 C4308 1.389 . S
C4309 C4310 1.387 . S
C4310 H4295 0.930 . S
C4310 C4305 1.390 . S
C4310 C4309 1.387 . S
H4311 C4323 0.930 . S
H4312 C4325 0.930 . S
H4313 C4326 0.930 . S
H4314 C4330 0.959 . S
H4315 C4330 0.959 . S
H4316 C4330 0.961 . S
H4317 C4331 0.960 . S
H4318 C4331 0.961 . S
H4319 C4331 0.959 . S
H4320 C4334 0.929 . S
H4321 C4335 0.931 . S
H4322 C4337 0.930 . S
C4323 H4311 0.930 . S
C4323 C4324 1.399 . S
C4323 C4328 1.399 . S
C4324 C4323 1.399 . S
C4324 C4325 1.376 1_655 S
C4325 H4312 0.930 . S
C4325 C4324 1.376 1_455 S
C4325 C4326 1.388 . S
C4326 H4313 0.930 . S
C4326 C4325 1.388 . S
C4326 C4327 1.390 1_455 S
C4327 C4326 1.390 1_655 S
C4327 C4328 1.394 . S
C4327 C4333 1.468 . S
C4328 C4323 1.399 . S
C4328 C4327 1.394 . S
C4328 C4329 1.516 . S
C4329 C4328 1.516 . S
C4329 C4330 1.502 . S
C4329 C4331 1.561 . S
C4329 C4332 1.526 . S
C4330 H4314 0.959 . S
C4330 H4315 0.959 . S
C4330 H4316 0.961 . S
C4330 C4329 1.502 . S
C4331 H4317 0.960 . S
C4331 H4318 0.961 . S
C4331 H4319 0.959 . S
C4331 C4329 1.561 . S
C4332 C4329 1.526 . S
C4332 C4333 1.398 . S
C4332 C4337 1.390 . S
C4333 C4327 1.468 . S
C4333 C4332 1.398 . S
C4333 C4334 1.395 1_655 S
C4334 H4320 0.929 . S
C4334 C4333 1.395 1_455 S
C4334 C4335 1.385 . S
C4335 H4321 0.931 . S
C4335 C4334 1.385 . S
C4335 C4336 1.389 1_455 S
C4336 C4335 1.389 1_655 S
C4336 C4337 1.387 . S
C4337 H4322 0.930 . S
C4337 C4332 1.390 . S
C4337 C4336 1.387 . S
H4338 C4350 0.930 . S
H4339 C4352 0.930 . S
H4340 C4353 0.930 . S
H4341 C4357 0.959 . S
H4342 C4357 0.959 . S
H4343 C4357 0.961 . S
H4344 C4358 0.960 . S
H4345 C4358 0.961 . S
H4346 C4358 0.959 . S
H4347 C4361 0.929 . S
H4348 C4362 0.931 . S
H4349 C4364 0.930 . S
C4350 H4338 0.930 . S
C4350 C4351 1.399 . S
C4350 C4355 1.399 . S
C4351 C4350 1.399 . S
C4351 C4352 1.376 . S
C4352 H4339 0.930 . S
C4352 C4351 1.376 . S
C4352 C4353 1.388 . S
C4353 H4340 0.930 . S
C4353 C4352 1.388 . S
C4353 C4354 1.390 . S
C4354 C4353 1.390 . S
C4354 C4355 1.394 . S
C4354 C4360 1.465 . S
C4355 C4350 1.399 . S
C4355 C4354 1.394 . S
C4355 C4356 1.516 . S
C4356 C4355 1.516 . S
C4356 C4357 1.502 . S
C4356 C4358 1.561 . S
C4356 C4359 1.526 . S
C4357 H4341 0.959 . S
C4357 H4342 0.959 . S
C4357 H4343 0.961 . S
C4357 C4356 1.502 . S
C4358 H4344 0.960 . S
C4358 H4345 0.961 . S
C4358 H4346 0.959 . S
C4358 C4356 1.561 . S
C4359 C4356 1.526 . S
C4359 C4360 1.396 . S
C4359 C4364 1.390 . S
C4360 C4354 1.465 . S
C4360 C4359 1.396 . S
C4360 C4361 1.399 . S
C4361 H4347 0.929 . S
C4361 C4360 1.399 . S
C4361 C4362 1.385 . S
C4362 H4348 0.931 . S
C4362 C4361 1.385 . S
C4362 C4363 1.389 . S
C4363 C4362 1.389 . S
C4363 C4364 1.387 . S
C4364 H4349 0.930 . S
C4364 C4359 1.390 . S
C4364 C4363 1.387 . S
H4365 C4377 0.930 . S
H4366 C4379 0.930 . S
H4367 C4380 0.930 . S
H4368 C4384 0.959 . S
H4369 C4384 0.959 . S
H4370 C4384 0.961 . S
H4371 C4385 0.960 . S
H4372 C4385 0.961 . S
H4373 C4385 0.959 . S
H4374 C4388 0.929 . S
H4375 C4389 0.931 . S
H4376 C4391 0.930 . S
C4377 H4365 0.930 . S
C4377 C4378 1.399 . S
C4377 C4382 1.399 . S
C4378 C4377 1.399 . S
C4378 C4379 1.376 1_545 S
C4379 H4366 0.930 . S
C4379 C4378 1.376 1_565 S
C4379 C4380 1.388 . S
C4380 H4367 0.930 . S
C4380 C4379 1.388 . S
C4380 C4381 1.390 1_565 S
C4381 C4380 1.390 1_545 S
C4381 C4382 1.394 . S
C4381 C4387 1.438 . S
C4382 C4377 1.399 . S
C4382 C4381 1.394 . S
C4382 C4383 1.516 . S
C4383 C4382 1.516 . S
C4383 C4384 1.502 . S
C4383 C4385 1.561 . S
C4383 C4386 1.526 . S
C4384 H4368 0.959 . S
C4384 H4369 0.959 . S
C4384 H4370 0.961 . S
C4384 C4383 1.502 . S
C4385 H4371 0.960 . S
C4385 H4372 0.961 . S
C4385 H4373 0.959 . S
C4385 C4383 1.561 . S
C4386 C4383 1.526 . S
C4386 C4387 1.467 . S
C4386 C4391 1.390 . S
C4387 C4381 1.438 . S
C4387 C4386 1.467 . S
C4387 C4388 1.373 1_545 S
C4388 H4374 0.929 . S
C4388 C4387 1.373 1_565 S
C4388 C4389 1.385 . S
C4389 H4375 0.931 . S
C4389 C4388 1.385 . S
C4389 C4390 1.389 1_565 S
C4390 C4389 1.389 1_545 S
C4390 C4391 1.387 . S
C4391 H4376 0.930 . S
C4391 C4386 1.390 . S
C4391 C4390 1.387 . S
C2461 C49 1.565 . S
C2473 C2061 1.617 . S
C2488 C137 1.607 . S
C2500 C2109 1.637 . S
C2527 C2157 1.659 . S
C2515 C205 1.608 . S
C2542 C196 1.609 . S
C2554 C2181 1.636 . S
C2569 C57 1.608 . S
C2581 C2253 1.625 . S
C2596 C145 1.647 . S
C2608 C2301 1.650 . S
C2623 C313 1.600 . S
C2635 C2229 1.633 . S
C2662 C2277 1.652 . S
C2650 C401 1.649 . S
C2689 C2205 1.648 . S
C2677 C489 1.587 . S
C2704 C469 1.568 . S
C2716 C2133 1.642 . S
C2743 C2037 1.662 . S
C2731 C293 1.594 . S
C2758 C381 1.650 . S
C2770 C2085 1.651 . S
C2785 C577 1.681 . S
C2797 C2349 1.698 . S
C2812 C645 1.661 . S
C2824 C2397 1.670 . S
C2851 C2421 1.650 . S
C2839 C733 1.631 . S
C2866 C724 1.618 . S
C2878 C1605 1.639 . S
C2893 C585 1.666 . S
C2905 C1677 1.685 . S
C2920 C636 1.696 . S
C2932 C1725 1.700 . S
C2947 C841 1.613 . S
C2959 C1653 1.630 . S
C2974 C937 1.697 . S
C2986 C1701 1.702 . S
C3013 C1629 1.640 . S
C3001 C1025 1.659 . S
C3040 C2445 1.698 . S
C3028 C988 1.706 . S
C3067 C2325 1.649 . S
C3055 C821 1.637 . S
C3094 C2373 1.683 . S
C3082 C900 1.687 . S
C3109 C1105 1.637 . S
C3121 C1773 1.639 . S
C3136 C1193 1.671 . S
C3148 C1821 1.684 . S
C3163 C1281 1.691 . S
C3175 C1845 1.679 . S
C3190 C1289 1.687 . S
C3202 C1893 1.682 . S
C3229 C1965 1.654 . S
C3217 C1113 1.653 . S
C3256 C2013 1.670 . S
C3244 C1201 1.663 . S
C3283 C1941 1.708 . S
C3271 C1369 1.691 . S
C3310 C1989 1.691 . S
C3298 C1457 1.685 . S
C3325 C1553 1.623 . S
C3337 C1917 1.591 . S
C3364 C1869 1.626 . S
C3352 C1516 1.633 . S
C3379 C1349 1.695 . S
C3391 C1749 1.696 . S
C3418 C1797 1.698 . S
C3406 C1437 1.690 . S
C3445 C1614 1.518 . S
C3433 C29 1.544 . S
C3460 C117 1.417 . S
C3472 C1668 1.432 . S
C3499 C1716 1.515 . S
C3487 C225 1.554 . S
C3526 C1764 1.519 . S
C3514 C233 1.526 . S
C3553 C1812 1.509 . S
C3541 C20 1.556 . S
C3580 C1854 1.414 . S
C3568 C108 1.451 . S
C3595 C321 1.500 . S
C3607 C1860 1.544 . S
C3622 C409 1.415 . S
C3634 C1758 1.395 . S
C3649 C497 1.582 . S
C3661 C1806 1.484 . S
C3676 C460 1.552 . S
C3688 C1662 1.479 . S
C3715 C1710 1.505 . S
C3703 C284 1.581 . S
C3730 C372 1.412 . S
C3742 C1620 1.431 . S
C3769 C1902 1.422 . S
C3757 C557 1.458 . S
C3784 C665 1.521 . S
C3796 C1956 1.533 . S
C3811 C753 1.537 . S
C3823 C2004 1.486 . S
C3850 C2052 1.184 . S
C3838 C761 1.163 . S
C3865 C548 1.443 . S
C3877 C2100 1.364 . S
C3892 C673 1.173 . S
C3904 C2148 1.152 . S
C3919 C849 1.170 . S
C3931 C2142 1.178 . S
C3946 C929 1.183 . S
C3958 C2046 1.165 . S
C3985 C2094 1.414 . S
C3973 C1017 1.408 . S
C4000 C997 1.437 . S
C4012 C1950 1.377 . S
C4027 C812 1.520 . S
C4039 C1998 1.500 . S
C4066 C1908 1.547 . S
C4054 C909 1.539 . S
C4093 C2190 1.162 . S
C4081 C1085 1.154 . S
C4108 C1173 1.171 . S
C4120 C2244 1.187 . S
C4135 C1261 1.407 . S
C4147 C2292 1.437 . S
C4174 C2340 1.395 . S
C4162 C1252 1.457 . S
C4201 C2388 1.470 . S
C4189 C1076 1.543 . S
C4216 C1164 1.548 . S
C4228 C2430 1.516 . S
C4243 C1377 1.470 . S
C4255 C2436 1.423 . S
C4270 C1465 1.545 . S
C4282 C2334 1.509 . S
C4309 C2382 1.502 . S
C4297 C1545 1.517 . S
C4336 C2238 1.172 . S
C4324 C1525 1.152 . S
C4363 C2286 1.401 . S
C4351 C1340 1.413 . S
C4378 C1428 1.185 . S
C4390 C2196 1.190 . S
