# Generated by pormake.
# Topology llk, (3,12)-cn, num edge types: 1
# Building blocks:
#     Node 0, Type 0, BuildingBlock: BELTOD_clean_linker_0, # of connection points: 3
#     Node 1, Type 0, BuildingBlock: BELTOD_clean_linker_0, # of connection points: 3
#     Node 2, Type 0, BuildingBlock: BELTOD_clean_linker_0, # of connection points: 3
#     Node 3, Type 0, BuildingBlock: BELTOD_clean_linker_0, # of connection points: 3
#     Node 4, Type 0, BuildingBlock: BELTOD_clean_linker_0, # of connection points: 3
#     Node 5, Type 0, BuildingBlock: BELTOD_clean_linker_0, # of connection points: 3
#     Node 6, Type 0, BuildingBlock: BELTOD_clean_linker_0, # of connection points: 3
#     Node 7, Type 0, BuildingBlock: BELTOD_clean_linker_0, # of connection points: 3
#     Node 8, Type 0, BuildingBlock: BELTOD_clean_linker_0, # of connection points: 3
#     Node 9, Type 0, BuildingBlock: BELTOD_clean_linker_0, # of connection points: 3
#     Node 10, Type 0, BuildingBlock: BELTOD_clean_linker_0, # of connection points: 3
#     Node 11, Type 0, BuildingBlock: BELTOD_clean_linker_0, # of connection points: 3
#     Node 12, Type 0, BuildingBlock: BELTOD_clean_linker_0, # of connection points: 3
#     Node 13, Type 0, BuildingBlock: BELTOD_clean_linker_0, # of connection points: 3
#     Node 14, Type 0, BuildingBlock: BELTOD_clean_linker_0, # of connection points: 3
#     Node 15, Type 0, BuildingBlock: BELTOD_clean_linker_0, # of connection points: 3
#     Node 16, Type 0, BuildingBlock: BELTOD_clean_linker_0, # of connection points: 3
#     Node 17, Type 0, BuildingBlock: BELTOD_clean_linker_0, # of connection points: 3
#     Node 18, Type 0, BuildingBlock: BELTOD_clean_linker_0, # of connection points: 3
#     Node 19, Type 0, BuildingBlock: BELTOD_clean_linker_0, # of connection points: 3
#     Node 20, Type 0, BuildingBlock: BELTOD_clean_linker_0, # of connection points: 3
#     Node 21, Type 0, BuildingBlock: BELTOD_clean_linker_0, # of connection points: 3
#     Node 22, Type 0, BuildingBlock: BELTOD_clean_linker_0, # of connection points: 3
#     Node 23, Type 0, BuildingBlock: BELTOD_clean_linker_0, # of connection points: 3
#     Node 24, Type 1, BuildingBlock: QEWDON_clean_sbu_0, # of connection points: 12
#     Node 25, Type 1, BuildingBlock: QEWDON_clean_sbu_0, # of connection points: 12
#     Node 26, Type 1, BuildingBlock: QEWDON_clean_sbu_0, # of connection points: 12
#     Node 27, Type 1, BuildingBlock: QEWDON_clean_sbu_0, # of connection points: 12
#     Node 28, Type 1, BuildingBlock: QEWDON_clean_sbu_0, # of connection points: 12
#     Node 29, Type 1, BuildingBlock: QEWDON_clean_sbu_0, # of connection points: 12
#     Edge 30, Type (0, 1), BuildingBlock: XUDNAN_clean_linker_2, # of connection points: 2
#     Edge 31, Type (0, 1), BuildingBlock: XUDNAN_clean_linker_2, # of connection points: 2
#     Edge 32, Type (0, 1), BuildingBlock: XUDNAN_clean_linker_2, # of connection points: 2
#     Edge 33, Type (0, 1), BuildingBlock: XUDNAN_clean_linker_2, # of connection points: 2
#     Edge 34, Type (0, 1), BuildingBlock: XUDNAN_clean_linker_2, # of connection points: 2
#     Edge 35, Type (0, 1), BuildingBlock: XUDNAN_clean_linker_2, # of connection points: 2
#     Edge 36, Type (0, 1), BuildingBlock: XUDNAN_clean_linker_2, # of connection points: 2
#     Edge 37, Type (0, 1), BuildingBlock: XUDNAN_clean_linker_2, # of connection points: 2
#     Edge 38, Type (0, 1), BuildingBlock: XUDNAN_clean_linker_2, # of connection points: 2
#     Edge 39, Type (0, 1), BuildingBlock: XUDNAN_clean_linker_2, # of connection points: 2
#     Edge 40, Type (0, 1), BuildingBlock: XUDNAN_clean_linker_2, # of connection points: 2
#     Edge 41, Type (0, 1), BuildingBlock: XUDNAN_clean_linker_2, # of connection points: 2
#     Edge 42, Type (0, 1), BuildingBlock: XUDNAN_clean_linker_2, # of connection points: 2
#     Edge 43, Type (0, 1), BuildingBlock: XUDNAN_clean_linker_2, # of connection points: 2
#     Edge 44, Type (0, 1), BuildingBlock: XUDNAN_clean_linker_2, # of connection points: 2
#     Edge 45, Type (0, 1), BuildingBlock: XUDNAN_clean_linker_2, # of connection points: 2
#     Edge 46, Type (0, 1), BuildingBlock: XUDNAN_clean_linker_2, # of connection points: 2
#     Edge 47, Type (0, 1), BuildingBlock: XUDNAN_clean_linker_2, # of connection points: 2
#     Edge 48, Type (0, 1), BuildingBlock: XUDNAN_clean_linker_2, # of connection points: 2
#     Edge 49, Type (0, 1), BuildingBlock: XUDNAN_clean_linker_2, # of connection points: 2
#     Edge 50, Type (0, 1), BuildingBlock: XUDNAN_clean_linker_2, # of connection points: 2
#     Edge 51, Type (0, 1), BuildingBlock: XUDNAN_clean_linker_2, # of connection points: 2
#     Edge 52, Type (0, 1), BuildingBlock: XUDNAN_clean_linker_2, # of connection points: 2
#     Edge 53, Type (0, 1), BuildingBlock: XUDNAN_clean_linker_2, # of connection points: 2
#     Edge 54, Type (0, 1), BuildingBlock: XUDNAN_clean_linker_2, # of connection points: 2
#     Edge 55, Type (0, 1), BuildingBlock: XUDNAN_clean_linker_2, # of connection points: 2
#     Edge 56, Type (0, 1), BuildingBlock: XUDNAN_clean_linker_2, # of connection points: 2
#     Edge 57, Type (0, 1), BuildingBlock: XUDNAN_clean_linker_2, # of connection points: 2
#     Edge 58, Type (0, 1), BuildingBlock: XUDNAN_clean_linker_2, # of connection points: 2
#     Edge 59, Type (0, 1), BuildingBlock: XUDNAN_clean_linker_2, # of connection points: 2
#     Edge 60, Type (0, 1), BuildingBlock: XUDNAN_clean_linker_2, # of connection points: 2
#     Edge 61, Type (0, 1), BuildingBlock: XUDNAN_clean_linker_2, # of connection points: 2
#     Edge 62, Type (0, 1), BuildingBlock: XUDNAN_clean_linker_2, # of connection points: 2
#     Edge 63, Type (0, 1), BuildingBlock: XUDNAN_clean_linker_2, # of connection points: 2
#     Edge 64, Type (0, 1), BuildingBlock: XUDNAN_clean_linker_2, # of connection points: 2
#     Edge 65, Type (0, 1), BuildingBlock: XUDNAN_clean_linker_2, # of connection points: 2
#     Edge 66, Type (0, 1), BuildingBlock: XUDNAN_clean_linker_2, # of connection points: 2
#     Edge 67, Type (0, 1), BuildingBlock: XUDNAN_clean_linker_2, # of connection points: 2
#     Edge 68, Type (0, 1), BuildingBlock: XUDNAN_clean_linker_2, # of connection points: 2
#     Edge 69, Type (0, 1), BuildingBlock: XUDNAN_clean_linker_2, # of connection points: 2
#     Edge 70, Type (0, 1), BuildingBlock: XUDNAN_clean_linker_2, # of connection points: 2
#     Edge 71, Type (0, 1), BuildingBlock: XUDNAN_clean_linker_2, # of connection points: 2
#     Edge 72, Type (0, 1), BuildingBlock: XUDNAN_clean_linker_2, # of connection points: 2
#     Edge 73, Type (0, 1), BuildingBlock: XUDNAN_clean_linker_2, # of connection points: 2
#     Edge 74, Type (0, 1), BuildingBlock: XUDNAN_clean_linker_2, # of connection points: 2
#     Edge 75, Type (0, 1), BuildingBlock: XUDNAN_clean_linker_2, # of connection points: 2
#     Edge 76, Type (0, 1), BuildingBlock: XUDNAN_clean_linker_2, # of connection points: 2
#     Edge 77, Type (0, 1), BuildingBlock: XUDNAN_clean_linker_2, # of connection points: 2
#     Edge 78, Type (0, 1), BuildingBlock: XUDNAN_clean_linker_2, # of connection points: 2
#     Edge 79, Type (0, 1), BuildingBlock: XUDNAN_clean_linker_2, # of connection points: 2
#     Edge 80, Type (0, 1), BuildingBlock: XUDNAN_clean_linker_2, # of connection points: 2
#     Edge 81, Type (0, 1), BuildingBlock: XUDNAN_clean_linker_2, # of connection points: 2
#     Edge 82, Type (0, 1), BuildingBlock: XUDNAN_clean_linker_2, # of connection points: 2
#     Edge 83, Type (0, 1), BuildingBlock: XUDNAN_clean_linker_2, # of connection points: 2
#     Edge 84, Type (0, 1), BuildingBlock: XUDNAN_clean_linker_2, # of connection points: 2
#     Edge 85, Type (0, 1), BuildingBlock: XUDNAN_clean_linker_2, # of connection points: 2
#     Edge 86, Type (0, 1), BuildingBlock: XUDNAN_clean_linker_2, # of connection points: 2
#     Edge 87, Type (0, 1), BuildingBlock: XUDNAN_clean_linker_2, # of connection points: 2
#     Edge 88, Type (0, 1), BuildingBlock: XUDNAN_clean_linker_2, # of connection points: 2
#     Edge 89, Type (0, 1), BuildingBlock: XUDNAN_clean_linker_2, # of connection points: 2
#     Edge 90, Type (0, 1), BuildingBlock: XUDNAN_clean_linker_2, # of connection points: 2
#     Edge 91, Type (0, 1), BuildingBlock: XUDNAN_clean_linker_2, # of connection points: 2
#     Edge 92, Type (0, 1), BuildingBlock: XUDNAN_clean_linker_2, # of connection points: 2
#     Edge 93, Type (0, 1), BuildingBlock: XUDNAN_clean_linker_2, # of connection points: 2
#     Edge 94, Type (0, 1), BuildingBlock: XUDNAN_clean_linker_2, # of connection points: 2
#     Edge 95, Type (0, 1), BuildingBlock: XUDNAN_clean_linker_2, # of connection points: 2
#     Edge 96, Type (0, 1), BuildingBlock: XUDNAN_clean_linker_2, # of connection points: 2
#     Edge 97, Type (0, 1), BuildingBlock: XUDNAN_clean_linker_2, # of connection points: 2
#     Edge 98, Type (0, 1), BuildingBlock: XUDNAN_clean_linker_2, # of connection points: 2
#     Edge 99, Type (0, 1), BuildingBlock: XUDNAN_clean_linker_2, # of connection points: 2
#     Edge 100, Type (0, 1), BuildingBlock: XUDNAN_clean_linker_2, # of connection points: 2
#     Edge 101, Type (0, 1), BuildingBlock: XUDNAN_clean_linker_2, # of connection points: 2
# Relax obj value: 0.119
# Max RMSD: 0.148
# Mean RMSD: 0.135
data_MOF--net-llk--node1-QEWDON_clean_sbu_0--node2-BELTOD_clean_linker_0--edge1-XUDNAN_clean_linker_2
_symmetry_space_group_name_H-M    P1
_symmetry_Int_Tables_number       1
_symmetry_cell_setting            triclinic
loop_
_symmetry_equiv_pos_as_xyz
'x, y, z'
_cell_length_a     51.266063
_cell_length_b     53.661813
_cell_length_c     52.287797
_cell_angle_alpha  90.157675
_cell_angle_beta   90.013746
_cell_angle_gamma 89.679976
loop_
_atom_site_label
_atom_site_type_symbol
_atom_site_fract_x
_atom_site_fract_y
_atom_site_fract_z
_atom_type_partial_charge
P0 P 0.99749 0.295 0.26763 0.0
H1 H 0.98074 0.2876 0.21492 0.0
H2 H 0.98727 0.31415 0.17738 0.0
H3 H 0.04836 0.35323 0.21718 0.0
H4 H 0.04243 0.32636 0.2543 0.0
H5 H 0.95966 0.25684 0.27975 0.0
H6 H 0.96386 0.21544 0.29739 0.0
H7 H 0.04764 0.21916 0.28964 0.0
H8 H 0.0432 0.2612 0.2711 0.0
H9 H 0.98944 0.3469 0.28005 0.0
H10 H 0.03281 0.28524 0.31197 0.0
O11 O 0.96558 0.30122 0.26612 0.0
H12 H 0.0044 0.37359 0.31473 0.0
H13 H 0.04862 0.31203 0.34612 0.0
C14 C 0.01067 0.30537 0.2376 0.0
C15 C 0.99645 0.30101 0.2151 0.0
C16 C 0.00014 0.31619 0.19368 0.0
C17 C 0.01805 0.33583 0.19468 0.0
C18 C 0.03438 0.33819 0.21609 0.0
C19 C 0.03091 0.32285 0.23734 0.0
C20 C 0.00114 0.26223 0.27422 0.0
C21 C 0.97897 0.24868 0.28106 0.0
C22 C 0.98139 0.22485 0.29117 0.0
C23 C 0.0061 0.21405 0.29499 0.0
C24 C 0.02837 0.22711 0.287 0.0
C25 C 0.02584 0.25097 0.27627 0.0
C26 C 0.00976 0.31401 0.29339 0.0
C27 C 0.00235 0.33914 0.29441 0.0
C28 C 0.01121 0.35447 0.31411 0.0
C29 C 0.02791 0.345 0.33315 0.0
C30 C 0.03564 0.31985 0.33187 0.0
C31 C 0.02664 0.30448 0.31215 0.0
P32 P 0.7754 0.00944 0.22324 0.0
H33 H 0.80015 0.00501 0.17335 0.0
H34 H 0.78467 0.02156 0.13258 0.0
H35 H 0.73792 0.07593 0.17316 0.0
H36 H 0.75341 0.05997 0.21298 0.0
H37 H 0.7901 0.96701 0.25265 0.0
H38 H 0.81686 0.96284 0.28982 0.0
H39 H 0.84978 0.03578 0.27563 0.0
H40 H 0.82021 0.04053 0.23914 0.0
H41 H 0.7297 0.9847 0.24487 0.0
H42 H 0.76985 0.05444 0.25415 0.0
O43 O 0.76618 0.9821 0.21098 0.0
H44 H 0.69922 0.99652 0.27808 0.0
H45 H 0.73722 0.06837 0.28433 0.0
C46 C 0.77737 0.03051 0.19647 0.0
C47 C 0.78774 0.02142 0.17344 0.0
C48 C 0.77872 0.03082 0.15008 0.0
C49 C 0.75918 0.04937 0.14964 0.0
C50 C 0.75269 0.06143 0.17264 0.0
C51 C 0.76161 0.05199 0.19587 0.0
C52 C 0.80355 0.00384 0.24275 0.0
C53 C 0.80376 0.98179 0.2569 0.0
C54 C 0.81938 0.97945 0.27846 0.0
C55 C 0.83589 0.99894 0.28628 0.0
C56 C 0.83704 0.02048 0.27081 0.0
C57 C 0.82061 0.02307 0.24947 0.0
C58 C 0.7513 0.0192 0.24615 0.0
C59 C 0.73135 0.00302 0.25342 0.0
C60 C 0.71362 0.01005 0.27239 0.0
C61 C 0.71497 0.03381 0.28397 0.0
C62 C 0.73534 0.04979 0.27656 0.0
C63 C 0.75382 0.04213 0.25864 0.0
P64 P 0.06875 0.75136 0.25858 0.0
H65 H 0.07296 0.75921 0.20357 0.0
H66 H 0.05162 0.73968 0.16707 0.0
H67 H -0.00042 0.70112 0.21834 0.0
H68 H 0.02136 0.72054 0.25485 0.0
H69 H 0.0835 0.77557 0.3058 0.0
H70 H 0.07181 0.8153 0.32545 0.0
H71 H 0.01928 0.83071 0.26272 0.0
H72 H 0.03141 0.79075 0.24293 0.0
H73 H 0.10535 0.71046 0.26857 0.0
H74 H 0.03385 0.73917 0.30086 0.0
O75 O 0.0991 0.75597 0.24816 0.0
H76 H 0.10635 0.67753 0.3008 0.0
H77 H 0.03417 0.70593 0.33259 0.0
C78 C 0.0492 0.7409 0.23196 0.0
C79 C 0.0567 0.74686 0.20697 0.0
C80 C 0.04431 0.73576 0.18606 0.0
C81 C 0.02401 0.71857 0.18974 0.0
C82 C 0.01544 0.71392 0.21484 0.0
C83 C 0.02785 0.7251 0.23576 0.0
C84 C 0.05799 0.78004 0.27316 0.0
C85 C 0.06921 0.78735 0.29641 0.0
C86 C 0.06245 0.81006 0.30768 0.0
C87 C 0.04447 0.82613 0.29576 0.0
C88 C 0.03329 0.8188 0.27232 0.0
C89 C 0.04005 0.7959 0.26107 0.0
C90 C 0.06973 0.72742 0.2826 0.0
C91 C 0.08992 0.70973 0.28268 0.0
C92 C 0.09038 0.69082 0.30103 0.0
C93 C 0.07044 0.68916 0.31943 0.0
C94 C 0.05017 0.70695 0.31912 0.0
C95 C 0.04984 0.72589 0.30087 0.0
P96 P 0.25562 0.94811 0.25236 0.0
H97 H 0.20342 0.92945 0.24067 0.0
H98 H 0.16086 0.93912 0.25943 0.0
H99 H 0.19519 0.00112 0.30018 0.0
H100 H 0.23675 0.99234 0.28012 0.0
H101 H 0.29173 0.92351 0.21781 0.0
H102 H 0.31238 0.9362 0.17798 0.0
H103 H 0.26868 0.00531 0.17988 0.0
H104 H 0.24748 0.99203 0.21958 0.0
H105 H 0.26548 0.93111 0.30418 0.0
H106 H 0.29166 0.99057 0.25532 0.0
O107 O 0.25486 0.91706 0.25395 0.0
H108 H 0.29025 0.94873 0.33977 0.0
H109 H 0.31674 0.00811 0.2907 0.0
C110 C 0.2234 0.95969 0.25959 0.0
C111 C 0.20149 0.94558 0.25303 0.0
C112 C 0.17721 0.951 0.26403 0.0
C113 C 0.17458 0.97047 0.28202 0.0
C114 C 0.19618 0.986 0.28648 0.0
C115 C 0.22026 0.9808 0.27514 0.0
C116 C 0.26775 0.95663 0.22135 0.0
C117 C 0.28617 0.94117 0.20938 0.0
C118 C 0.29819 0.94858 0.18673 0.0
C119 C 0.29229 0.97182 0.17576 0.0
C120 C 0.27339 0.98713 0.18761 0.0
C121 C 0.26127 0.97961 0.2103 0.0
C122 C 0.27724 0.95915 0.27696 0.0
C123 C 0.27706 0.94763 0.30096 0.0
C124 C 0.29114 0.95778 0.3213 0.0
C125 C 0.30544 0.97983 0.31804 0.0
C126 C 0.30571 0.99124 0.29387 0.0
C127 C 0.29166 0.98102 0.27352 0.0
P128 P 0.96333 0.75489 0.75508 0.0
H129 H 0.94505 0.73689 0.80456 0.0
H130 H 0.96399 0.70893 0.83585 0.0
H131 H 0.03697 0.70961 0.79426 0.0
H132 H 0.01691 0.73603 0.7618 0.0
H133 H 0.94154 0.79434 0.72426 0.0
H134 H 0.96118 0.82936 0.70202 0.0
H135 H 0.03395 0.81539 0.74126 0.0
H136 H 0.01407 0.78035 0.7636 0.0
H137 H 0.92942 0.71539 0.73519 0.0
H138 H 0.00193 0.75027 0.71423 0.0
O139 O 0.93199 0.75913 0.76268 0.0
H140 H 0.93155 0.68956 0.69636 0.0
H141 H 0.00409 0.7248 0.67572 0.0
C142 C 0.97963 0.73893 0.78095 0.0
C143 C 0.96527 0.73139 0.80234 0.0
C144 C 0.97631 0.71541 0.82048 0.0
C145 C 0.00218 0.70676 0.81782 0.0
C146 C 0.01689 0.71539 0.79687 0.0
C147 C 0.00559 0.73095 0.77844 0.0
C148 C 0.97626 0.78468 0.74565 0.0
C149 C 0.96147 0.79932 0.72878 0.0
C150 C 0.97276 0.81937 0.71601 0.0
C151 C -0.00079 0.82504 0.71967 0.0
C152 C 0.0136 0.81126 0.73777 0.0
C153 C 0.0022 0.79124 0.75068 0.0
C154 C 0.96514 0.7352 0.72723 0.0
C155 C 0.94569 0.71757 0.72221 0.0
C156 C 0.94696 0.7028 0.70011 0.0
C157 C 0.96771 0.70555 0.68277 0.0
C158 C 0.9875 0.72275 0.68835 0.0
C159 C 0.98631 0.73728 0.71045 0.0
P160 P 0.27097 0.95106 0.78257 0.0
H161 H 0.26912 0.95292 0.83888 0.0
H162 H 0.29548 0.97656 0.86939 0.0
H163 H 0.32652 0.01998 0.8069 0.0
H164 H 0.29976 0.99707 0.77714 0.0
H165 H 0.23377 0.9254 0.75039 0.0
H166 H 0.21286 0.93829 0.7106 0.0
H167 H 0.23479 0.01451 0.7255 0.0
H168 H 0.25523 0.00163 0.76553 0.0
H169 H 0.32309 0.93445 0.79751 0.0
H170 H 0.28348 0.95383 0.7273 0.0
O171 O 0.26069 0.92524 0.79703 0.0
H172 H 0.36515 0.93842 0.77566 0.0
H173 H 0.32494 0.95727 0.70572 0.0
C174 C 0.28216 0.97346 0.80575 0.0
C175 C 0.28081 0.96823 0.83197 0.0
C176 C 0.29622 0.98154 0.84935 0.0
C177 C 0.31343 1.00006 0.84067 0.0
C178 C 0.31326 0.00626 0.81454 0.0
C179 C 0.29774 0.99317 0.79735 0.0
C180 C 0.2463 0.96245 0.76091 0.0
C181 C 0.23309 0.94505 0.74573 0.0
C182 C 0.2215 0.95238 0.72277 0.0
C183 C 0.22286 0.97729 0.71467 0.0
C184 C 0.23363 0.99515 0.7312 0.0
C185 C 0.24536 0.98775 0.75415 0.0
C186 C 0.30001 0.94424 0.76431 0.0
C187 C 0.32332 0.93863 0.77725 0.0
C188 C 0.34734 0.94101 0.76482 0.0
C189 C 0.34823 0.94888 0.73924 0.0
C190 C 0.32479 0.9519 0.72569 0.0
C191 C 0.30092 0.94968 0.7381 0.0
P192 P 0.05321 0.26079 0.75607 0.0
H193 H 0.06945 0.25215 0.80858 0.0
H194 H 0.06024 0.27466 0.84799 0.0
H195 H -0.0012 0.31562 0.8097 0.0
H196 H 0.00895 0.29347 0.76991 0.0
H197 H 0.0809 0.21947 0.73272 0.0
H198 H 0.06653 0.18437 0.70743 0.0
H199 H 0.98635 0.20169 0.72612 0.0
H200 H 0.00118 0.2374 0.75191 0.0
H201 H 0.07395 0.31054 0.74962 0.0
H202 H 0.02042 0.26264 0.70927 0.0
O203 O 0.08549 0.25881 0.75993 0.0
H204 H 0.07038 0.34122 0.71534 0.0
H205 H 0.0164 0.29332 0.6754 0.0
C206 C 0.04018 0.27139 0.78623 0.0
C207 C 0.05358 0.26555 0.8088 0.0
C208 C 0.0482 0.27848 0.83144 0.0
C209 C 0.02904 0.29738 0.83206 0.0
C210 C 0.01415 0.30168 0.80981 0.0
C211 C 0.0197 0.2888 0.78709 0.0
C212 C 0.04217 0.23093 0.74453 0.0
C213 C 0.06026 0.21532 0.73229 0.0
C214 C 0.05196 0.19511 0.71771 0.0
C215 C 0.02525 0.19012 0.71471 0.0
C216 C 0.00706 0.20509 0.728 0.0
C217 C 0.0155 0.22528 0.74298 0.0
C218 C 0.04784 0.28411 0.73191 0.0
C219 C 0.06121 0.30674 0.73356 0.0
C220 C 0.059 0.32433 0.71404 0.0
C221 C 0.04324 0.31959 0.69256 0.0
C222 C 0.02903 0.29731 0.6915 0.0
C223 C 0.03127 0.27974 0.71103 0.0
P224 P 0.78253 0.09763 0.78825 0.0
H225 H 0.76024 0.11665 0.8361 0.0
H226 H 0.72427 0.10186 0.86249 0.0
H227 H 0.72233 0.03349 0.81878 0.0
H228 H 0.75844 0.04843 0.79238 0.0
H229 H 0.83525 0.11268 0.80338 0.0
H230 H 0.87729 0.1013 0.78499 0.0
H231 H 0.84079 0.04001 0.74497 0.0
H232 H 0.79951 0.05035 0.76521 0.0
H233 H 0.72716 0.09545 0.77338 0.0
H234 H 0.80182 0.09768 0.73523 0.0
O235 O 0.78665 0.12774 0.79511 0.0
H236 H 0.70593 0.08626 0.73259 0.0
H237 H 0.78064 0.08757 0.69463 0.0
C238 C 0.76196 0.08368 0.81218 0.0
C239 C 0.75262 0.09818 0.83262 0.0
C240 C 0.732 0.08971 0.84772 0.0
C241 C 0.72019 0.06668 0.84245 0.0
C242 C 0.73078 0.05148 0.82303 0.0
C243 C 0.75162 0.05986 0.80813 0.0
C244 C 0.81409 0.08288 0.78494 0.0
C245 C 0.83655 0.09614 0.79155 0.0
C246 C 0.86058 0.08979 0.78063 0.0
C247 C 0.86236 0.07051 0.76233 0.0
C248 C 0.84043 0.05515 0.75867 0.0
C249 C 0.81659 0.06107 0.77029 0.0
C250 C 0.76628 0.09582 0.75766 0.0
C251 C 0.73903 0.09398 0.75632 0.0
C252 C 0.72686 0.08892 0.73299 0.0
C253 C 0.74181 0.08571 0.7107 0.0
C254 C 0.76883 0.08949 0.71171 0.0
C255 C 0.7809 0.09508 0.73495 0.0
P256 P 0.25917 0.27342 0.97237 0.0
H257 H 0.26933 0.22086 0.9607 0.0
H258 H 0.30057 0.19156 0.97919 0.0
H259 H 0.3145 0.2429 0.04145 0.0
H260 H 0.28303 0.27193 0.02303 0.0
H261 H 0.20436 0.2712 0.95732 0.0
H262 H 0.1658 0.2937 0.97197 0.0
H263 H 0.21101 0.32613 0.03337 0.0
H264 H 0.249 0.30229 0.01945 0.0
H265 H 0.31286 0.26873 0.95592 0.0
H266 H 0.26199 0.3284 0.98086 0.0
O267 O 0.25214 0.26309 0.94304 0.0
H268 H 0.34974 0.29737 0.95601 0.0
H269 H 0.29906 0.3568 0.98185 0.0
C270 C 0.27377 0.24858 0.99052 0.0
C271 C 0.27837 0.22545 0.97881 0.0
C272 C 0.2965 0.20882 0.98924 0.0
C273 C 0.3104 0.21514 0.0115 0.0
C274 C 0.30406 0.23741 0.02435 0.0
C275 C 0.28589 0.25401 0.0139 0.0
C276 C 0.2298 0.28569 0.9868 0.0
C277 C 0.20586 0.28274 0.97427 0.0
C278 C 0.1838 0.2958 0.98259 0.0
C279 C 0.18535 0.31241 0.00341 0.0
C280 C 0.20889 0.31356 0.01728 0.0
C281 C 0.23082 0.30002 0.00922 0.0
C282 C 0.28477 0.29614 0.96916 0.0
C283 C 0.30957 0.28799 0.96135 0.0
C284 C 0.33063 0.30433 0.96139 0.0
C285 C 0.32725 0.32914 0.96933 0.0
C286 C 0.30221 0.33759 0.97615 0.0
C287 C 0.28102 0.32128 0.97571 0.0
P288 P 0.23342 0.77612 0.97544 0.0
H289 H 0.18363 0.79764 0.99278 0.0
H290 H 0.1445 0.77802 0.0105 0.0
H291 H 0.187 0.70847 0.0171 0.0
H292 H 0.22534 0.728 0.00037 0.0
H293 H 0.2472 0.81724 0.94209 0.0
H294 H 0.26668 0.85772 0.95011 0.0
H295 H 0.26282 0.84415 0.03152 0.0
H296 H 0.2417 0.80417 0.02321 0.0
H297 H 0.25698 0.73826 0.94194 0.0
H298 H 0.27021 0.76838 0.01739 0.0
O299 O 0.22285 0.77458 0.94529 0.0
H300 H 0.28948 0.70569 0.95004 0.0
H301 H 0.30284 0.73613 0.02544 0.0
C302 C 0.20755 0.76447 0.99538 0.0
C303 C 0.18467 0.77844 0.99902 0.0
C304 C 0.16227 0.76712 0.009 0.0
C305 C 0.1624 0.74155 0.01516 0.0
C306 C 0.18603 0.72825 0.01316 0.0
C307 C 0.20823 0.73953 0.0033 0.0
C308 C 0.24298 0.8077 0.98206 0.0
C309 C 0.24989 0.82323 0.9617 0.0
C310 C 0.26137 0.84631 0.96633 0.0
C311 C 0.2668 0.85413 0.99146 0.0
C312 C 0.25878 0.83892 0.01191 0.0
C313 C 0.24687 0.81592 0.00721 0.0
C314 C 0.26141 0.75599 0.97894 0.0
C315 C 0.26738 0.73834 0.95996 0.0
C316 C 0.28593 0.71969 0.96461 0.0
C317 C 0.2985 0.71825 0.98845 0.0
C318 C 0.29322 0.7366 0.007 0.0
C319 C 0.2748 0.75528 0.00228 0.0
P320 P 0.80481 0.26489 0.95819 0.0
H321 H 0.86016 0.26057 0.94541 0.0
H322 H 0.89807 0.2843 0.95969 0.0
H323 H 0.8504 0.32015 0.01747 0.0
H324 H 0.81341 0.29545 0.00413 0.0
H325 H 0.78468 0.22232 0.93007 0.0
H326 H 0.76767 0.18215 0.94365 0.0
H327 H 0.78883 0.19902 0.02172 0.0
H328 H 0.80653 0.23925 0.00782 0.0
H329 H 0.78766 0.3113 0.93452 0.0
H330 H 0.76501 0.26609 0.99882 0.0
O331 O 0.80953 0.265 0.9266 0.0
H332 H 0.75637 0.34348 0.94783 0.0
H333 H 0.73405 0.29816 0.01222 0.0
C334 C 0.8338 0.27683 0.97315 0.0
C335 C 0.85814 0.27304 0.96162 0.0
C336 C 0.87974 0.2868 0.96968 0.0
C337 C 0.87721 0.30472 0.98929 0.0
C338 C 0.85327 0.30659 0.00235 0.0
C339 C 0.83185 0.29259 0.99449 0.0
C340 C 0.79701 0.23368 0.96792 0.0
C341 C 0.7864 0.21714 0.95 0.0
C342 C 0.77674 0.19412 0.95777 0.0
C343 C 0.77704 0.18744 0.98372 0.0
C344 C 0.78844 0.20372 0.00158 0.0
C345 C 0.79858 0.22662 0.99367 0.0
C346 C 0.77838 0.28605 0.96536 0.0
C347 C 0.77556 0.30802 0.95113 0.0
C348 C 0.75778 0.32643 0.95879 0.0
C349 C 0.74294 0.32334 0.98114 0.0
C350 C 0.74544 0.30111 0.99506 0.0
C351 C 0.76297 0.28261 0.98722 0.0
P352 P 0.80524 0.77918 0.02758 0.0
H353 H 0.85934 0.76498 0.0367 0.0
H354 H 0.88592 0.73152 0.02032 0.0
H355 H 0.82789 0.71695 0.96191 0.0
H356 H 0.79981 0.74801 0.98126 0.0
H357 H 0.79059 0.82895 0.0442 0.0
H358 H 0.75651 0.85683 0.02904 0.0
H359 H 0.74899 0.81247 0.96038 0.0
H360 H 0.78413 0.78562 0.97493 0.0
H361 H 0.80716 0.73341 0.05741 0.0
H362 H 0.74758 0.77966 0.02293 0.0
O363 O 0.82063 0.79059 0.05316 0.0
H364 H 0.77374 0.70282 0.06894 0.0
H365 H 0.71477 0.74927 0.03399 0.0
C366 C 0.82777 0.75982 0.00977 0.0
C367 C 0.8525 0.75495 0.02003 0.0
C368 C 0.86797 0.73563 0.01031 0.0
C369 C 0.85944 0.72097 0.98949 0.0
C370 C 0.83523 0.72711 0.97825 0.0
C371 C 0.81929 0.74575 0.98877 0.0
C372 C 0.78993 0.80486 0.01093 0.0
C373 C 0.78254 0.82581 0.02533 0.0
C374 C 0.76261 0.84155 0.01682 0.0
C375 C 0.74928 0.83635 0.99392 0.0
C376 C 0.75866 0.81699 0.97819 0.0
C377 C 0.77893 0.80145 0.98659 0.0
C378 C 0.7801 0.75866 0.03888 0.0
C379 C 0.78697 0.73713 0.05254 0.0
C380 C 0.76793 0.71974 0.05918 0.0
C381 C 0.74182 0.72364 0.05203 0.0
C382 C 0.73486 0.74569 0.03935 0.0
C383 C 0.75379 0.76311 0.03295 0.0
P384 P 0.4911 0.76994 0.76006 0.0
H385 H 0.46621 0.76996 0.70983 0.0
H386 H 0.47509 0.7935 0.67106 0.0
H387 H 0.54807 0.8183 0.70345 0.0
H388 H 0.53883 0.79503 0.7424 0.0
H389 H 0.4678 0.72691 0.78422 0.0
H390 H 0.48622 0.69068 0.80529 0.0
H391 H 0.56326 0.71198 0.78042 0.0
H392 H 0.54437 0.74831 0.75843 0.0
H393 H 0.45939 0.80847 0.78489 0.0
H394 H 0.53926 0.78289 0.78776 0.0
O395 O 0.45871 0.7669 0.75892 0.0
H396 H 0.46887 0.83957 0.81753 0.0
H397 H 0.54925 0.8147 0.81939 0.0
C398 C 0.50154 0.78119 0.72931 0.0
C399 C 0.48438 0.78005 0.70845 0.0
C400 C 0.48954 0.79348 0.68618 0.0
C401 C 0.51203 0.80822 0.68435 0.0
C402 C 0.53023 0.80762 0.70451 0.0
C403 C 0.52504 0.79417 0.72678 0.0
C404 C 0.50467 0.74036 0.76968 0.0
C405 C 0.48855 0.72347 0.78245 0.0
C406 C 0.49914 0.70263 0.79451 0.0
C407 C 0.52621 0.69842 0.79449 0.0
C408 C 0.54232 0.71478 0.78075 0.0
C409 C 0.53156 0.7355 0.76819 0.0
C410 C 0.49846 0.793 0.78411 0.0
C411 C 0.47901 0.80955 0.79246 0.0
C412 C 0.48457 0.82759 0.81096 0.0
C413 C 0.50988 0.82973 0.82118 0.0
C414 C 0.52943 0.81335 0.81236 0.0
C415 C 0.52374 0.79513 0.7941 0.0
P416 P 0.30832 0.50756 0.74533 0.0
H417 H 0.33025 0.51298 0.6939 0.0
H418 H 0.30969 0.52644 0.6542 0.0
H419 H 0.24393 0.55474 0.69768 0.0
H420 H 0.26597 0.54384 0.73683 0.0
H421 H 0.35176 0.48282 0.77031 0.0
H422 H 0.38256 0.49597 0.80278 0.0
H423 H 0.35221 0.57114 0.7984 0.0
H424 H 0.32092 0.55755 0.76555 0.0
H425 H 0.25997 0.48257 0.73318 0.0
H426 H 0.29183 0.5228 0.79743 0.0
O427 O 0.3175 0.47982 0.73382 0.0
H428 H 0.2175 0.4816 0.75414 0.0
H429 H 0.24981 0.52105 0.81895 0.0
C430 C 0.29923 0.52654 0.71827 0.0
C431 C 0.31193 0.52308 0.69482 0.0
C432 C 0.29976 0.53037 0.67203 0.0
C433 C 0.27431 0.54056 0.67227 0.0
C434 C 0.26328 0.54678 0.69618 0.0
C435 C 0.27589 0.54026 0.71891 0.0
C436 C 0.33432 0.51928 0.76516 0.0
C437 C 0.35214 0.5023 0.77571 0.0
C438 C 0.36987 0.5099 0.79435 0.0
C439 C 0.37004 0.53469 0.80316 0.0
C440 C 0.35257 0.55191 0.79207 0.0
C441 C 0.33486 0.54425 0.77314 0.0
C442 C 0.27911 0.50265 0.76372 0.0
C443 C 0.25798 0.49061 0.75211 0.0
C444 C 0.23368 0.49011 0.76413 0.0
C445 C 0.23012 0.50146 0.78816 0.0
C446 C 0.25169 0.51262 0.80019 0.0
C447 C 0.27592 0.51337 0.788 0.0
P448 P 0.51048 0.24662 0.75657 0.0
H449 H 0.52725 0.2511 0.70348 0.0
H450 H 0.51361 0.22885 0.66513 0.0
H451 H 0.44643 0.20076 0.70536 0.0
H452 H 0.45985 0.22385 0.74377 0.0
H453 H 0.53645 0.29417 0.7655 0.0
H454 H 0.52639 0.32844 0.79426 0.0
H455 H 0.45001 0.29737 0.80787 0.0
H456 H 0.46074 0.26242 0.77941 0.0
H457 H 0.50177 0.19266 0.7514 0.0
H458 H 0.51323 0.24562 0.81255 0.0
O459 O 0.5425 0.24867 0.75123 0.0
H460 H 0.4972 0.15946 0.78221 0.0
H461 H 0.51134 0.21197 0.84359 0.0
C462 C 0.49498 0.23852 0.72669 0.0
C463 C 0.50908 0.24092 0.70389 0.0
C464 C 0.50123 0.22817 0.6819 0.0
C465 C 0.47923 0.21266 0.68242 0.0
C466 C 0.46366 0.21232 0.70456 0.0
C467 C 0.47123 0.22562 0.72643 0.0
C468 C 0.49943 0.27559 0.77049 0.0
C469 C 0.51725 0.29501 0.77406 0.0
C470 C 0.51137 0.31479 0.79053 0.0
C471 C 0.48748 0.31559 0.80377 0.0
C472 C 0.46879 0.29713 0.79839 0.0
C473 C 0.47475 0.27727 0.78189 0.0
C474 C 0.50652 0.22196 0.77962 0.0
C475 C 0.50283 0.19732 0.7715 0.0
C476 C 0.5008 0.1781 0.78928 0.0
C477 C 0.50383 0.18282 0.81561 0.0
C478 C 0.50811 0.20755 0.82364 0.0
C479 C 0.5094 0.22689 0.80581 0.0
P480 P 0.7404 0.47568 0.76873 0.0
H481 H 0.68555 0.46921 0.75469 0.0
H482 H 0.64558 0.48381 0.7753 0.0
H483 H 0.69121 0.5326 0.82355 0.0
H484 H 0.73069 0.51894 0.80178 0.0
H485 H 0.76622 0.45447 0.72421 0.0
H486 H 0.80468 0.46827 0.70105 0.0
H487 H 0.79853 0.54058 0.73677 0.0
H488 H 0.75973 0.5266 0.76031 0.0
H489 H 0.72813 0.46399 0.82208 0.0
H490 H 0.79709 0.48044 0.77789 0.0
O491 O 0.73209 0.44689 0.7599 0.0
H492 H 0.75423 0.46532 0.8614 0.0
H493 H 0.82278 0.48195 0.81677 0.0
C494 C 0.71112 0.49259 0.77711 0.0
C495 C 0.68681 0.48369 0.76909 0.0
C496 C 0.66396 0.49185 0.78118 0.0
C497 C 0.66506 0.50885 0.80174 0.0
C498 C 0.68934 0.51954 0.80786 0.0
C499 C 0.71211 0.51166 0.79543 0.0
C500 C 0.75992 0.48953 0.7439 0.0
C501 C 0.77227 0.47366 0.72628 0.0
C502 C 0.79444 0.48148 0.71319 0.0
C503 C 0.80466 0.50533 0.71744 0.0
C504 C 0.79089 0.52212 0.73314 0.0
C505 C 0.76862 0.51421 0.74641 0.0
C506 C 0.76033 0.47311 0.79707 0.0
C507 C 0.7488 0.46782 0.82078 0.0
C508 C 0.76369 0.46852 0.8432 0.0
C509 C 0.79033 0.47439 0.84211 0.0
C510 C 0.80209 0.47814 0.8182 0.0
C511 C 0.7873 0.47728 0.79588 0.0
P512 P 0.46451 0.27232 0.28018 0.0
H513 H 0.4452 0.25469 0.32939 0.0
H514 H 0.4638 0.22749 0.36154 0.0
H515 H 0.53836 0.23042 0.32299 0.0
H516 H 0.51901 0.25589 0.28981 0.0
H517 H 0.43728 0.31744 0.26415 0.0
H518 H 0.45168 0.35461 0.24206 0.0
H519 H 0.53174 0.32969 0.24958 0.0
H520 H 0.51728 0.29408 0.27373 0.0
H521 H 0.4274 0.23941 0.2539 0.0
H522 H 0.50838 0.25974 0.24639 0.0
O523 O 0.43288 0.27528 0.28729 0.0
H524 H 0.43165 0.21194 0.2166 0.0
H525 H 0.51264 0.23252 0.20951 0.0
C526 C 0.48062 0.25775 0.30708 0.0
C527 C 0.46569 0.24993 0.32801 0.0
C528 C 0.47651 0.23438 0.34666 0.0
C529 C 0.50268 0.22647 0.34496 0.0
C530 C 0.51802 0.23566 0.32478 0.0
C531 C 0.50701 0.25079 0.30586 0.0
C532 C 0.47611 0.30264 0.27058 0.0
C533 C 0.45802 0.32038 0.26187 0.0
C534 C 0.46632 0.34154 0.24874 0.0
C535 C 0.49292 0.34506 0.24323 0.0
C536 C 0.5111 0.32797 0.25342 0.0
C537 C 0.50277 0.30718 0.26718 0.0
C538 C 0.46753 0.25182 0.25296 0.0
C539 C 0.44606 0.23804 0.24432 0.0
C540 C 0.44848 0.22238 0.22298 0.0
C541 C 0.4725 0.22004 0.21023 0.0
C542 C 0.49397 0.23367 0.21916 0.0
C543 C 0.49148 0.24941 0.24027 0.0
P544 P 0.7342 0.53358 0.27902 0.0
H545 H 0.68799 0.55134 0.25309 0.0
H546 H 0.65777 0.53215 0.22353 0.0
H547 H 0.69562 0.46085 0.23495 0.0
H548 H 0.72644 0.48066 0.26478 0.0
H549 H 0.71689 0.52803 0.33186 0.0
H550 H 0.74193 0.51995 0.37073 0.0
H551 H 0.80809 0.49756 0.32469 0.0
H552 H 0.78255 0.50443 0.28614 0.0
H553 H 0.75282 0.51329 0.22979 0.0
H554 H 0.77443 0.57134 0.28282 0.0
O555 O 0.7212 0.5601 0.29006 0.0
H556 H 0.79134 0.52202 0.20416 0.0
H557 H 0.81345 0.57987 0.25745 0.0
C558 C 0.70915 0.51736 0.26155 0.0
C559 C 0.68941 0.53143 0.24991 0.0
C560 C 0.67199 0.52034 0.23296 0.0
C561 C 0.67399 0.49482 0.227 0.0
C562 C 0.69351 0.48053 0.23916 0.0
C563 C 0.71097 0.49174 0.25635 0.0
C564 C 0.74808 0.51758 0.30612 0.0
C565 C 0.73641 0.52039 0.33017 0.0
C566 C 0.7509 0.51602 0.3524 0.0
C567 C 0.77738 0.50899 0.35087 0.0
C568 C 0.78786 0.50313 0.32671 0.0
C569 C 0.77323 0.50723 0.30451 0.0
C570 C 0.76049 0.54198 0.25799 0.0
C571 C 0.76562 0.52815 0.23577 0.0
C572 C 0.78786 0.53299 0.22125 0.0
C573 C 0.80554 0.55156 0.22886 0.0
C574 C 0.80007 0.56567 0.25091 0.0
C575 C 0.77777 0.56082 0.26541 0.0
P576 P 0.58835 0.78442 0.26126 0.0
H577 H 0.60913 0.78224 0.31347 0.0
H578 H 0.59527 0.80271 0.35308 0.0
H579 H 0.52411 0.82676 0.31618 0.0
H580 H 0.53807 0.80616 0.27664 0.0
H581 H 0.6091 0.75558 0.21914 0.0
H582 H 0.59301 0.71973 0.19551 0.0
H583 H 0.53071 0.71167 0.25064 0.0
H584 H 0.54643 0.74857 0.27344 0.0
H585 H 0.60425 0.83612 0.25516 0.0
H586 H 0.54944 0.78589 0.21988 0.0
O587 O 0.62083 0.78491 0.26341 0.0
H588 H 0.58889 0.86981 0.22722 0.0
H589 H 0.53423 0.81921 0.19205 0.0
C590 C 0.57482 0.79294 0.29198 0.0
C591 C 0.59025 0.79136 0.31407 0.0
C592 C 0.5823 0.80312 0.33673 0.0
C593 C 0.55879 0.81676 0.33765 0.0
C594 C 0.54257 0.81683 0.31594 0.0
C595 C 0.55043 0.80486 0.29338 0.0
C596 C 0.57914 0.75457 0.24819 0.0
C597 C 0.5923 0.74574 0.22646 0.0
C598 C 0.58307 0.72507 0.21297 0.0
C599 C 0.56041 0.71264 0.22096 0.0
C600 C 0.54794 0.72095 0.24355 0.0
C601 C 0.55707 0.74189 0.25688 0.0
C602 C 0.57852 0.80836 0.23916 0.0
C603 C 0.58923 0.83226 0.24115 0.0
C604 C 0.5803 0.8515 0.22536 0.0
C605 C 0.56053 0.84706 0.20732 0.0
C606 C 0.54985 0.82306 0.20542 0.0
C607 C 0.55861 0.80395 0.22134 0.0
P608 P 0.2801 0.60149 0.26168 0.0
H609 H 0.26546 0.60815 0.31539 0.0
H610 H 0.23725 0.5829 0.34231 0.0
H611 H 0.24254 0.52262 0.28753 0.0
H612 H 0.27145 0.54773 0.26115 0.0
H613 H 0.31209 0.63563 0.23375 0.0
H614 H 0.34906 0.62908 0.20649 0.0
H615 H 0.35942 0.55507 0.23835 0.0
H616 H 0.32003 0.5613 0.26361 0.0
H617 H 0.22373 0.59625 0.25894 0.0
H618 H 0.28855 0.59226 0.20615 0.0
O619 O 0.27481 0.63061 0.27177 0.0
H620 H 0.19467 0.58084 0.22523 0.0
H621 H 0.25934 0.57808 0.17258 0.0
C622 C 0.27035 0.57991 0.28615 0.0
C623 C 0.26147 0.58914 0.30968 0.0
C624 C 0.24499 0.57478 0.32488 0.0
C625 C 0.23693 0.55105 0.31664 0.0
C626 C 0.24825 0.54084 0.29444 0.0
C627 C 0.26496 0.55515 0.27937 0.0
C628 C 0.31321 0.59897 0.25059 0.0
C629 C 0.32278 0.61824 0.2354 0.0
C630 C 0.34434 0.61433 0.21968 0.0
C631 C 0.35759 0.59119 0.21938 0.0
C632 C 0.34941 0.5728 0.23691 0.0
C633 C 0.32707 0.57646 0.25194 0.0
C634 C 0.25841 0.59532 0.2353 0.0
C635 C 0.23163 0.59268 0.24006 0.0
C636 C 0.21507 0.58386 0.22091 0.0
C637 C 0.225 0.57833 0.19656 0.0
C638 C 0.2514 0.58239 0.1913 0.0
C639 C 0.26808 0.5906 0.2106 0.0
P640 P 0.7684 0.77968 0.4524 0.0
H641 H 0.77426 0.72644 0.44054 0.0
H642 H 0.79847 0.69376 0.46274 0.0
H643 H 0.80776 0.74266 0.52795 0.0
H644 H 0.78264 0.77462 0.50611 0.0
H645 H 0.71669 0.78135 0.42883 0.0
H646 H 0.67625 0.80284 0.44047 0.0
H647 H 0.71263 0.82949 0.50986 0.0
H648 H 0.75279 0.80764 0.49827 0.0
H649 H 0.8245 0.77165 0.45591 0.0
H650 H 0.77183 0.83472 0.45597 0.0
O651 O 0.7666 0.77147 0.42165 0.0
H652 H 0.86012 0.79864 0.46939 0.0
H653 H 0.80779 0.86191 0.46907 0.0
C654 C 0.77679 0.75303 0.4716 0.0
C655 C 0.78061 0.72975 0.46 0.0
C656 C 0.7948 0.71119 0.47262 0.0
C657 C 0.80576 0.7158 0.49687 0.0
C658 C 0.79962 0.73832 0.50937 0.0
C659 C 0.7851 0.7567 0.49688 0.0
C660 C 0.73786 0.79318 0.46251 0.0
C661 C 0.71588 0.79159 0.44668 0.0
C662 C 0.69278 0.80394 0.45333 0.0
C663 C 0.69126 0.81805 0.47599 0.0
C664 C 0.713 0.81857 0.49241 0.0
C665 C 0.73607 0.80616 0.48575 0.0
C666 C 0.79523 0.80097 0.45612 0.0
C667 C 0.82061 0.79135 0.45852 0.0
C668 C 0.841 0.80674 0.46616 0.0
C669 C 0.83648 0.83216 0.4707 0.0
C670 C 0.81163 0.84228 0.46583 0.0
C671 C 0.79107 0.82673 0.45854 0.0
P672 P 0.7737 0.25223 0.45901 0.0
H673 H 0.72308 0.23209 0.44496 0.0
H674 H 0.69038 0.20905 0.46841 0.0
H675 H 0.73449 0.21886 0.53814 0.0
H676 H 0.76773 0.24193 0.5141 0.0
H677 H 0.76138 0.30351 0.44448 0.0
H678 H 0.78354 0.3428 0.45315 0.0
H679 H 0.83351 0.30554 0.50769 0.0
H680 H 0.81093 0.2663 0.49917 0.0
H681 H 0.78384 0.20075 0.47694 0.0
H682 H 0.82466 0.25818 0.43582 0.0
O683 O 0.76293 0.25638 0.42918 0.0
H684 H 0.82286 0.17455 0.4759 0.0
H685 H 0.86366 0.2318 0.43418 0.0
C686 C 0.74775 0.23898 0.4778 0.0
C687 C 0.72557 0.22983 0.46538 0.0
C688 C 0.7067 0.21669 0.47892 0.0
C689 C 0.70963 0.21222 0.50528 0.0
C690 C 0.73166 0.22193 0.51787 0.0
C691 C 0.75056 0.23527 0.50422 0.0
C692 C 0.78484 0.28192 0.47083 0.0
C693 C 0.77668 0.30388 0.45874 0.0
C694 C 0.7895 0.32632 0.46359 0.0
C695 C 0.81068 0.32718 0.48068 0.0
C696 C 0.8173 0.30553 0.49441 0.0
C697 C 0.80442 0.28306 0.48953 0.0
C698 C 0.80152 0.23166 0.4569 0.0
C699 C 0.80112 0.20772 0.46756 0.0
C700 C 0.82341 0.1926 0.46669 0.0
C701 C 0.84644 0.20113 0.45504 0.0
C702 C 0.84638 0.22481 0.44361 0.0
C703 C 0.82409 0.23988 0.44448 0.0
P704 P 0.25761 0.77157 0.49441 0.0
H705 H 0.30813 0.76064 0.47127 0.0
H706 H 0.35022 0.78091 0.4761 0.0
H707 H 0.32157 0.81948 0.54325 0.0
H708 H 0.28014 0.79752 0.53929 0.0
H709 H 0.25345 0.72205 0.47129 0.0
H710 H 0.22319 0.6881 0.48024 0.0
H711 H 0.2019 0.72324 0.5515 0.0
H712 H 0.23281 0.75703 0.54288 0.0
H713 H 0.26422 0.82584 0.50167 0.0
H714 H 0.20079 0.77338 0.50045 0.0
O715 O 0.25768 0.77003 0.46251 0.0
H716 H 0.23396 0.85916 0.5127 0.0
H717 H 0.17018 0.80682 0.50997 0.0
C718 C 0.29061 0.7785 0.50422 0.0
C719 C 0.31118 0.7728 0.48755 0.0
C720 C 0.33521 0.78471 0.49018 0.0
C721 C 0.33897 0.80287 0.50931 0.0
C722 C 0.31941 0.80594 0.52803 0.0
C723 C 0.29555 0.79345 0.52572 0.0
C724 C 0.24491 0.74239 0.50614 0.0
C725 C 0.24321 0.72198 0.48939 0.0
C726 C 0.22595 0.70253 0.49451 0.0
C727 C 0.21023 0.70324 0.51645 0.0
C728 C 0.21401 0.72227 0.53455 0.0
C729 C 0.23165 0.74154 0.52962 0.0
C730 C 0.23519 0.79661 0.50218 0.0
C731 C 0.24391 0.82125 0.50445 0.0
C732 C 0.2264 0.8405 0.51025 0.0
C733 C 0.19958 0.83568 0.51285 0.0
C734 C 0.19076 0.81114 0.50919 0.0
C735 C 0.20835 0.7919 0.50373 0.0
P736 P 0.26812 0.25374 0.57699 0.0
H737 H 0.32459 0.26099 0.5804 0.0
H738 H 0.36082 0.23929 0.55952 0.0
H739 H 0.3064 0.20289 0.50871 0.0
H740 H 0.27053 0.22557 0.52886 0.0
H741 H 0.22366 0.28088 0.5973 0.0
H742 H 0.20336 0.32083 0.58639 0.0
H743 H 0.25987 0.33074 0.52603 0.0
H744 H 0.28009 0.29073 0.53708 0.0
H745 H 0.27202 0.20324 0.59592 0.0
H746 H 0.21528 0.24767 0.55519 0.0
O747 O 0.2791 0.25693 0.60685 0.0
H748 H 0.24576 0.16592 0.58811 0.0
H749 H 0.18862 0.21056 0.54834 0.0
C750 C 0.29485 0.24424 0.55673 0.0
C751 C 0.32056 0.24893 0.56427 0.0
C752 C 0.34124 0.23637 0.55238 0.0
C753 C 0.33646 0.21873 0.53294 0.0
C754 C 0.31086 0.21623 0.52363 0.0
C755 C 0.29024 0.22907 0.53533 0.0
C756 C 0.25315 0.28276 0.56783 0.0
C757 C 0.23156 0.29161 0.58162 0.0
C758 C 0.21994 0.31438 0.57533 0.0
C759 C 0.23 0.32889 0.55534 0.0
C760 C 0.25183 0.32004 0.54167 0.0
C761 C 0.2633 0.29711 0.54786 0.0
C762 C 0.2454 0.2283 0.57657 0.0
C763 C 0.25347 0.20514 0.58618 0.0
C764 C 0.23856 0.18387 0.5817 0.0
C765 C 0.21516 0.18561 0.56795 0.0
C766 C 0.20641 0.20898 0.55943 0.0
C767 C 0.22162 0.23018 0.56342 0.0
Zn768 Zn 0.98821 0.9906 0.45383 0.0
Zn769 Zn 0.97772 0.04895 0.45978 0.0
O770 O 0.00449 0.02444 0.45016 0.0
H771 H 0.01505 0.0284 0.4355 0.0
C772 C 0.95062 0.96197 0.53848 0.0
O773 O 0.95215 0.98045 0.52214 0.0
Zn774 Zn 0.07826 0.044 0.54954 0.0
Zn775 Zn 0.07842 0.98436 0.55715 0.0
O776 O 0.05482 0.01433 0.55309 0.0
H777 H 0.03688 0.01347 0.54754 0.0
Zn778 Zn 0.97657 0.99866 0.56997 0.0
O779 O 0.98413 0.02157 0.54024 0.0
Zn780 Zn 0.98816 0.05498 0.55607 0.0
H781 H 0.99179 0.01624 0.52424 0.0
Zn782 Zn 0.03913 0.00336 0.47941 0.0
O783 O 0.03187 0.04032 0.48744 0.0
H784 H 0.02615 0.04717 0.50361 0.0
Zn785 Zn 0.05139 0.058 0.45955 0.0
C786 C 0.08272 0.97884 0.50056 0.0
O787 O 0.09309 0.99426 0.48399 0.0
O788 O 0.949 0.99439 0.44816 0.0
O789 O 0.94307 0.0355 0.44639 0.0
O790 O 0.11656 0.99412 0.56205 0.0
O791 O 0.1154 0.0356 0.56082 0.0
O792 O 0.96552 0.01681 0.60324 0.0
O793 O 0.97192 0.05625 0.5918 0.0
C794 C 0.00712 0.09025 0.43176 0.0
O795 O 0.05265 0.996 0.44298 0.0
O796 O 0.06538 0.03397 0.4322 0.0
O797 O 0.06762 0.95508 0.58082 0.0
C798 C 0.93465 0.01329 0.44342 0.0
O799 O 0.00332 0.96395 0.42893 0.0
C800 C 0.04032 0.0731 0.57459 0.0
O801 O 0.95982 0.9648 0.56087 0.0
C802 C 0.12769 0.01513 0.56435 0.0
O803 O 0.05832 0.98015 0.50471 0.0
C804 C 0.9704 0.0773 0.5081 0.0
O805 O 0.98676 0.07879 0.43917 0.0
O806 O 0.03013 0.08385 0.43881 0.0
C807 C 0.96465 0.04008 0.60822 0.0
O808 O 0.06487 0.07027 0.57362 0.0
O809 O 0.02647 0.06061 0.55909 0.0
C810 C 0.08925 0.06952 0.49933 0.0
O811 O 0.97285 0.08053 0.53214 0.0
O812 O 0.97716 0.05667 0.49792 0.0
C813 C 0.06376 0.01069 0.42741 0.0
O814 O 0.0831 0.0738 0.47614 0.0
O815 O 0.07495 0.05545 0.51277 0.0
C816 C 0.04831 0.95446 0.59603 0.0
O817 O 0.03215 0.97352 0.59706 0.0
C818 C 0.00395 0.97035 0.40552 0.0
O819 O 0.99632 0.99295 0.3993 0.0
Zn820 Zn 0.47329 0.05172 0.048 0.0
Zn821 Zn 0.48942 0.06944 0.99079 0.0
O822 O 0.48944 0.04037 0.01461 0.0
H823 H 0.50031 0.02577 0.01256 0.0
C824 C 0.53461 0.11897 0.06609 0.0
O825 O 0.52495 0.1151 0.04315 0.0
Zn826 Zn 0.55186 0.97274 0.97809 0.0
Zn827 Zn 0.57057 0.96874 0.03733 0.0
O828 O 0.55084 0.98997 0.01191 0.0
H829 H 0.54215 0.00558 0.01559 0.0
Zn830 Zn 0.57642 0.08843 0.04493 0.0
O831 O 0.55812 0.06288 0.02331 0.0
Zn832 Zn 0.58101 0.06001 0.99252 0.0
H833 H 0.54306 0.05301 0.02769 0.0
Zn834 Zn 0.4567 0.98586 0.04047 0.0
O835 O 0.48148 0.97985 0.01106 0.0
H836 H 0.49766 0.9707 0.01269 0.0
Zn837 Zn 0.45996 0.98566 0.97984 0.0
C838 C 0.48046 0.95155 0.07491 0.0
O839 O 0.48016 0.93895 0.05332 0.0
O840 O 0.46121 0.08808 0.0467 0.0
O841 O 0.47036 0.09922 0.00675 0.0
O842 O 0.58559 0.93707 0.0207 0.0
O843 O 0.5733 0.94063 0.98009 0.0
O844 O 0.61462 0.09482 0.03577 0.0
O845 O 0.61849 0.07109 0.00088 0.0
C846 C 0.45912 0.03946 0.9558 0.0
O847 O 0.41918 0.97648 0.03049 0.0
O848 O 0.42233 0.97529 0.98794 0.0
O849 O 0.59921 0.9871 0.05748 0.0
C850 C 0.46026 0.10387 0.02861 0.0
O851 O 0.444 0.03015 0.06356 0.0
C852 C 0.58068 0.01518 0.95757 0.0
O853 O 0.55663 0.10955 0.07178 0.0
C854 C 0.58567 0.92914 0.99772 0.0
O855 O 0.47068 0.97335 0.07533 0.0
C856 C 0.54051 0.08305 0.96396 0.0
O857 O 0.46894 0.06089 0.95933 0.0
O858 O 0.46502 0.02224 0.97151 0.0
C859 C 0.62846 0.08531 0.01797 0.0
O860 O 0.57122 0.99383 0.9528 0.0
O861 O 0.57752 0.02454 0.9798 0.0
C862 C 0.49918 0.9594 0.95108 0.0
O863 O 0.5652 0.08065 0.96447 0.0
O864 O 0.52738 0.07569 0.98308 0.0
C865 C 0.40917 0.97249 0.00854 0.0
O866 O 0.47478 0.96392 0.95162 0.0
O867 O 0.51372 0.96991 0.96756 0.0
C868 C 0.59952 0.01051 0.06108 0.0
O869 O 0.57964 0.02408 0.05344 0.0
C870 C 0.42143 0.03364 0.05408 0.0
O871 O 0.41888 0.04887 0.03459 0.0
Zn872 Zn 0.9874 0.48062 0.96971 0.0
Zn873 Zn 0.97706 0.54057 0.96911 0.0
O874 O 0.00534 0.51425 0.97117 0.0
H875 H 0.02294 0.51648 0.97732 0.0
C876 C 0.96502 0.45759 0.03979 0.0
O877 O 0.97822 0.47329 0.02568 0.0
Zn878 Zn 0.06406 0.5676 0.03285 0.0
Zn879 Zn 0.05375 0.50859 0.04303 0.0
O880 O 0.0381 0.54025 0.02862 0.0
H881 H 0.02484 0.54112 0.01555 0.0
Zn882 Zn 0.97123 0.49921 0.07433 0.0
O883 O 0.9825 0.5233 0.0471 0.0
Zn884 Zn 0.98011 0.55769 0.06147 0.0
H885 H 0.98997 0.51861 0.03085 0.0
Zn886 Zn 0.06637 0.50119 0.95438 0.0
O887 O 0.07871 0.53139 0.97482 0.0
H888 H 0.09438 0.53174 0.98508 0.0
Zn889 Zn 0.06742 0.55592 0.94801 0.0
C890 C 0.08037 0.46237 0.99253 0.0
O891 O 0.08046 0.48127 0.00853 0.0
O892 O 0.9478 0.48415 0.96421 0.0
O893 O 0.94292 0.52495 0.95757 0.0
O894 O 0.08946 0.51511 0.05931 0.0
O895 O 0.09592 0.55552 0.05232 0.0
O896 O 0.9532 0.51768 0.10406 0.0
O897 O 0.96171 0.55773 0.09615 0.0
C898 C 0.01159 0.57015 0.93857 0.0
O899 O 0.0769 0.50458 0.91655 0.0
O900 O 0.08382 0.54536 0.91433 0.0
O901 O 0.03123 0.48529 0.06549 0.0
C902 C 0.93375 0.50286 0.9581 0.0
O903 O 0.00372 0.45092 0.94904 0.0
C904 C 0.02614 0.59283 0.06247 0.0
O905 O 0.95904 0.46384 0.06253 0.0
C906 C 0.10318 0.53468 0.06176 0.0
O907 O 0.07443 0.46612 0.96926 0.0
C908 C 0.96087 0.57482 0.01282 0.0
O909 O 0.9877 0.56774 0.94452 0.0
O910 O 0.02814 0.55493 0.94786 0.0
C911 C 0.95152 0.54074 0.11003 0.0
O912 O 0.04823 0.59656 0.05226 0.0
O913 O 0.01622 0.57132 0.06025 0.0
C914 C 0.07549 0.59476 0.98237 0.0
O915 O 0.96069 0.57924 0.03673 0.0
O916 O 0.97187 0.55506 0.00456 0.0
C917 C 0.08485 0.52362 0.90437 0.0
O918 O 0.07674 0.59106 0.9584 0.0
O919 O 0.07188 0.57602 0.99658 0.0
C920 C 0.02928 0.46206 0.06113 0.0
O921 O 0.03933 0.45274 0.04007 0.0
C922 C 0.01578 0.43271 0.95924 0.0
O923 O 0.02057 0.43323 0.98393 0.0
Zn924 Zn 0.49742 0.49505 0.99876 0.0
Zn925 Zn 0.48545 0.47971 0.05681 0.0
O926 O 0.50776 0.50266 0.03585 0.0
H927 H 0.51665 0.51725 0.04215 0.0
C928 C 0.52737 0.43341 0.93961 0.0
O929 O 0.54179 0.45146 0.93042 0.0
Zn930 Zn 0.5622 0.56232 0.05964 0.0
Zn931 Zn 0.56736 0.57603 0.0008 0.0
O932 O 0.55504 0.54853 0.02463 0.0
H933 H 0.55407 0.53122 0.01967 0.0
Zn934 Zn 0.54816 0.45152 0.98947 0.0
O935 O 0.5309 0.46045 0.02325 0.0
Zn936 Zn 0.55888 0.4662 0.04886 0.0
H937 H 0.5151 0.45226 0.02848 0.0
Zn938 Zn 0.491 0.58145 0.98494 0.0
O939 O 0.50778 0.57326 0.01921 0.0
H940 H 0.52329 0.58253 0.02343 0.0
Zn941 Zn 0.4792 0.57117 0.04484 0.0
C942 C 0.51458 0.58773 0.93417 0.0
O943 O 0.49996 0.56831 0.92944 0.0
O944 O 0.47714 0.46252 0.99479 0.0
O945 O 0.46431 0.45532 0.03469 0.0
O946 O 0.59423 0.5994 0.01786 0.0
O947 O 0.59196 0.58666 0.05823 0.0
O948 O 0.5863 0.44041 0.99509 0.0
O949 O 0.59239 0.4495 0.03627 0.0
C950 C 0.45845 0.52499 0.07375 0.0
O951 O 0.45331 0.59537 0.98858 0.0
O952 O 0.44669 0.58707 0.02973 0.0
O953 O 0.57335 0.56701 0.96248 0.0
C954 C 0.46389 0.45009 0.01083 0.0
O955 O 0.48086 0.52107 0.97397 0.0
C956 C 0.57263 0.51122 0.07887 0.0
O957 O 0.52654 0.43012 0.96369 0.0
C958 C 0.60199 0.60037 0.04102 0.0
O959 O 0.51473 0.59688 0.95661 0.0
C960 C 0.52607 0.4495 0.09315 0.0
O961 O 0.46022 0.50147 0.07641 0.0
O962 O 0.47189 0.53535 0.05615 0.0
C963 C 0.60058 0.44049 0.01506 0.0
O964 O 0.57292 0.5346 0.08292 0.0
O965 O 0.56435 0.50271 0.05756 0.0
C966 C 0.51258 0.59315 0.08552 0.0
O967 O 0.54774 0.45023 0.0813 0.0
O968 O 0.50533 0.4597 0.08434 0.0
C969 C 0.43882 0.59582 0.00841 0.0
O970 O 0.49018 0.59144 0.07532 0.0
O971 O 0.53179 0.58137 0.07571 0.0
C972 C 0.56226 0.54841 0.95211 0.0
O973 O 0.54605 0.53499 0.96572 0.0
C974 C 0.4817 0.51376 0.95081 0.0
O975 O 0.49499 0.49342 0.94534 0.0
Zn976 Zn 0.98064 0.50839 0.48138 0.0
Zn977 Zn 0.97127 0.56518 0.48356 0.0
O978 O 0.99332 0.53944 0.50071 0.0
H979 H 0.01008 0.54191 0.50873 0.0
C980 C 0.93271 0.46313 0.51989 0.0
O981 O 0.94756 0.47619 0.50457 0.0
Zn982 Zn 0.06972 0.55229 0.54773 0.0
Zn983 Zn 0.08019 0.49729 0.5414 0.0
O984 O 0.051 0.52037 0.55266 0.0
H985 H 0.03266 0.51713 0.55013 0.0
Zn986 Zn 0.95683 0.49651 0.5574 0.0
O987 O 0.95862 0.52786 0.5355 0.0
Zn988 Zn 0.97062 0.55471 0.55931 0.0
H989 H 0.94727 0.53074 0.52103 0.0
Zn990 Zn 0.07312 0.48071 0.47051 0.0
O991 O 0.05858 0.51221 0.48642 0.0
H992 H 0.04753 0.51226 0.50137 0.0
Zn993 Zn 0.05862 0.53863 0.45945 0.0
C994 C 0.11925 0.46711 0.49815 0.0
O995 O 0.1253 0.48948 0.48997 0.0
O996 O 0.94445 0.50974 0.46328 0.0
O997 O 0.93913 0.55052 0.46708 0.0
O998 O 0.11633 0.51142 0.55075 0.0
O999 O 0.1065 0.55009 0.56306 0.0
O1000 O 0.95063 0.50557 0.59512 0.0
O1001 O 0.95658 0.54671 0.59505 0.0
C1002 C 0.01401 0.57202 0.44828 0.0
O1003 O 0.08803 0.48676 0.43463 0.0
O1004 O 0.07604 0.52591 0.42678 0.0
O1005 O 0.07374 0.46115 0.55298 0.0
C1006 C 0.93073 0.52929 0.46007 0.0
O1007 O 0.0056 0.47976 0.47117 0.0
C1008 C 0.02241 0.57854 0.56459 0.0
O1009 O 0.9335 0.46757 0.54375 0.0
C1010 C 0.12297 0.53222 0.56057 0.0
O1011 O 0.09676 0.45855 0.49313 0.0
C1012 C 0.94925 0.59944 0.52924 0.0
O1013 O 0.99247 0.5815 0.45565 0.0
O1014 O 0.02162 0.55155 0.45796 0.0
C1015 C 0.95014 0.52662 0.60642 0.0
O1016 O 0.04711 0.57993 0.56199 0.0
O1017 O 0.01036 0.55866 0.55853 0.0
C1018 C 0.0824 0.57209 0.49453 0.0
O1019 O 0.95356 0.58706 0.54956 0.0
O1020 O 0.95589 0.59129 0.50724 0.0
C1021 C 0.08754 0.50574 0.42007 0.0
O1022 O 0.0795 0.56829 0.47078 0.0
O1023 O 0.07302 0.55625 0.50993 0.0
C1024 C 0.06803 0.45996 0.57657 0.0
O1025 O 0.06747 0.48067 0.59005 0.0
C1026 C 0.01681 0.48103 0.44957 0.0
O1027 O 0.01364 0.50121 0.43572 0.0
Zn1028 Zn 0.47918 0.99367 0.46975 0.0
Zn1029 Zn 0.469 0.05284 0.48202 0.0
O1030 O 0.49688 0.02591 0.48073 0.0
H1031 H 0.51237 0.02598 0.49124 0.0
C1032 C 0.45829 0.94409 0.5272 0.0
O1033 O 0.46039 0.96258 0.51093 0.0
Zn1034 Zn 0.56808 0.05372 0.55642 0.0
Zn1035 Zn 0.57591 0.99474 0.56372 0.0
O1036 O 0.55022 0.021 0.55174 0.0
H1037 H 0.53596 0.01798 0.54005 0.0
Zn1038 Zn 0.48378 0.9802 0.56201 0.0
O1039 O 0.47452 0.0119 0.54261 0.0
Zn1040 Zn 0.47558 0.03887 0.56941 0.0
H1041 H 0.46468 0.012 0.52685 0.0
Zn1042 Zn 0.56213 0.00583 0.45371 0.0
O1043 O 0.56509 0.02957 0.48437 0.0
H1044 H 0.5641 0.01633 0.47189 0.0
Zn1045 Zn 0.56006 0.06252 0.46759 0.0
C1046 C 0.57232 0.9589 0.48167 0.0
O1047 O 0.56461 0.97223 0.5014 0.0
O1048 O 0.44267 0.00069 0.45529 0.0
O1049 O 0.43647 0.04118 0.46284 0.0
O1050 O 0.6099 0.00907 0.57917 0.0
O1051 O 0.6018 0.04976 0.57593 0.0
O1052 O 0.48036 0.98513 0.60079 0.0
O1053 O 0.46609 0.02435 0.60418 0.0
C1054 C 0.50611 0.08623 0.46004 0.0
O1055 O 0.57744 0.02149 0.42081 0.0
O1056 O 0.57712 0.06113 0.43321 0.0
O1057 O 0.56068 0.96292 0.58034 0.0
C1058 C 0.4288 0.0204 0.45357 0.0
O1059 O 0.49952 0.96437 0.45169 0.0
C1060 C 0.5206 0.07333 0.57737 0.0
O1061 O 0.46702 0.94681 0.54977 0.0
C1062 C 0.61632 0.03169 0.58306 0.0
O1063 O 0.57232 0.96874 0.45959 0.0
C1064 C 0.45077 0.07307 0.53556 0.0
O1065 O 0.48193 0.08429 0.46482 0.0
O1066 O 0.52131 0.06902 0.46766 0.0
C1067 C 0.47111 0.00306 0.61405 0.0
O1068 O 0.54462 0.07802 0.57432 0.0
O1069 O 0.51207 0.052 0.57093 0.0
C1070 C 0.5825 0.08658 0.5106 0.0
O1071 O 0.45254 0.06773 0.55919 0.0
O1072 O 0.4619 0.05853 0.51964 0.0
C1073 C 0.58277 0.04433 0.41689 0.0
O1074 O 0.57884 0.08922 0.48681 0.0
O1075 O 0.57312 0.06734 0.52123 0.0
C1076 C 0.54351 0.94936 0.56971 0.0
O1077 O 0.53455 0.95544 0.54702 0.0
C1078 C 0.50931 0.94577 0.46342 0.0
O1079 O 0.50848 0.94528 0.48851 0.0
H1080 H 0.16625 0.16952 0.58088 0.0
H1081 H 0.23398 0.15144 0.53476 0.0
H1082 H 0.21032 0.11609 0.51536 0.0
H1083 H 0.14567 0.10234 0.59066 0.0
H1084 H 0.11157 0.1106 0.58946 0.0
H1085 H 0.13492 0.13241 0.60211 0.0
H1086 H 0.11891 0.16562 0.56965 0.0
H1087 H 0.09571 0.14387 0.55692 0.0
H1088 H 0.11908 0.1583 0.53597 0.0
H1089 H 0.17748 0.08805 0.49598 0.0
H1090 H 0.13823 0.06605 0.48044 0.0
H1091 H 0.09256 0.09941 0.54133 0.0
C1092 C 0.17617 0.15762 0.56719 0.0
C1093 C 0.20186 0.16286 0.5593 0.0
C1094 C 0.21437 0.14733 0.54114 0.0
C1095 C 0.20111 0.12729 0.53008 0.0
C1096 C 0.17561 0.12275 0.53789 0.0
C1097 C 0.16339 0.13709 0.55643 0.0
C1098 C 0.13543 0.1289 0.56037 0.0
C1099 C 0.13169 0.11791 0.58724 0.0
C1100 C 0.11616 0.15046 0.55542 0.0
C1101 C 0.1334 0.10884 0.54004 0.0
C1102 C 0.15689 0.10545 0.52746 0.0
C1103 C 0.15919 0.08994 0.50615 0.0
C1104 C 0.13687 0.07765 0.49738 0.0
C1105 C 0.11279 0.08075 0.51013 0.0
C1106 C 0.11108 0.09619 0.53191 0.0
H1107 H 0.85237 0.15044 0.44863 0.0
H1108 H 0.89551 0.21783 0.46565 0.0
H1109 H 0.93514 0.19278 0.47309 0.0
H1110 H 0.87759 0.11516 0.49652 0.0
H1111 H 0.87946 0.08616 0.47911 0.0
H1112 H 0.85601 0.10946 0.46994 0.0
H1113 H 0.87472 0.10943 0.42382 0.0
H1114 H 0.89813 0.08597 0.4331 0.0
H1115 H 0.90909 0.11465 0.41898 0.0
H1116 H 0.96703 0.16092 0.48691 0.0
H1117 H 0.98919 0.12414 0.5054 0.0
H1118 H 0.92686 0.07681 0.47831 0.0
C1119 C 0.87032 0.15994 0.45337 0.0
C1120 C 0.87086 0.18613 0.45638 0.0
C1121 C 0.89469 0.19787 0.46273 0.0
C1122 C 0.91734 0.18377 0.46701 0.0
C1123 C 0.916 0.15796 0.46454 0.0
C1124 C 0.89319 0.14612 0.45756 0.0
C1125 C 0.89627 0.11803 0.45888 0.0
C1126 C 0.87615 0.10655 0.47721 0.0
C1127 C 0.89445 0.10635 0.43208 0.0
C1128 C 0.92376 0.11599 0.46938 0.0
C1129 C 0.93497 0.13927 0.47198 0.0
C1130 C 0.95886 0.14255 0.48423 0.0
C1131 C 0.97128 0.12163 0.49471 0.0
C1132 C 0.95991 0.0978 0.49264 0.0
C1133 C 0.93629 0.0948 0.47921 0.0
H1134 H 0.85636 0.87689 0.45466 0.0
H1135 H 0.86186 0.82167 0.51483 0.0
H1136 H 0.89395 0.84779 0.5376 0.0
H1137 H 0.92625 0.89351 0.45637 0.0
H1138 H 0.92024 0.92599 0.45004 0.0
H1139 H 0.89851 0.90274 0.43735 0.0
H1140 H 0.85913 0.92427 0.45897 0.0
H1141 H 0.8802 0.94796 0.47166 0.0
H1142 H 0.85982 0.93025 0.49292 0.0
H1143 H 0.92229 0.88118 0.55549 0.0
H1144 H 0.94662 0.91924 0.56667 0.0
H1145 H 0.92421 0.95217 0.49405 0.0
C1146 C 0.8646 0.87029 0.47249 0.0
C1147 C 0.85685 0.84734 0.48304 0.0
C1148 C 0.86789 0.83913 0.50638 0.0
C1149 C 0.88604 0.85382 0.51944 0.0
C1150 C 0.89322 0.87645 0.50865 0.0
C1151 C 0.88313 0.88454 0.48556 0.0
C1152 C 0.89393 0.90979 0.47841 0.0
C1153 C 0.91071 0.90789 0.4541 0.0
C1154 C 0.87196 0.92921 0.47532 0.0
C1155 C 0.91058 0.91512 0.50169 0.0
C1156 C 0.91014 0.89553 0.51876 0.0
C1157 C 0.92309 0.89654 0.54215 0.0
C1158 C 0.93678 0.91826 0.54836 0.0
C1159 C 0.93734 0.93865 0.53123 0.0
C1160 C 0.9243 0.93685 0.50749 0.0
H1161 H 0.20083 0.88394 0.49523 0.0
H1162 H 0.15526 0.83395 0.54249 0.0
H1163 H 0.12204 0.86691 0.54822 0.0
H1164 H 0.18531 0.94137 0.53253 0.0
H1165 H 0.18441 0.96029 0.50412 0.0
H1166 H 0.20575 0.93351 0.50561 0.0
H1167 H 0.18478 0.91583 0.46429 0.0
H1168 H 0.16344 0.94247 0.46261 0.0
H1169 H 0.14994 0.91153 0.46303 0.0
H1170 H 0.0913 0.90334 0.54411 0.0
H1171 H 0.06638 0.9409 0.53165 0.0
H1172 H 0.13391 0.96832 0.49062 0.0
C1173 C 0.18431 0.88005 0.50743 0.0
C1174 C 0.1807 0.85621 0.51829 0.0
C1175 C 0.15832 0.85188 0.53356 0.0
C1176 C 0.13944 0.87058 0.53718 0.0
C1177 C 0.14344 0.89369 0.52582 0.0
C1178 C 0.1655 0.89859 0.51155 0.0
C1179 C 0.1645 0.92449 0.50022 0.0
C1180 C 0.18629 0.94088 0.51129 0.0
C1181 C 0.16572 0.9235 0.47081 0.0
C1182 C 0.13797 0.93304 0.50952 0.0
C1183 C 0.12618 0.91509 0.52441 0.0
C1184 C 0.1006 0.9178 0.53304 0.0
C1185 C 0.08662 0.93924 0.52594 0.0
C1186 C 0.09836 0.95782 0.51066 0.0
C1187 C 0.12454 0.95476 0.50281 0.0
H1188 H 0.51199 0.18716 0.19972 0.0
H1189 H 0.43969 0.21694 0.169 0.0
H1190 H 0.44668 0.19281 0.12914 0.0
H1191 H 0.54823 0.18988 0.14278 0.0
H1192 H 0.56594 0.16127 0.14823 0.0
H1193 H 0.55419 0.17929 0.17496 0.0
H1194 H 0.5293 0.14083 0.19199 0.0
H1195 H 0.54113 0.12262 0.16538 0.0
H1196 H 0.50658 0.12495 0.17138 0.0
H1197 H 0.46397 0.16874 0.09118 0.0
H1198 H 0.48843 0.14384 0.05928 0.0
H1199 H 0.54856 0.12893 0.11566 0.0
C1200 C 0.49753 0.18845 0.18467 0.0
C1201 C 0.47532 0.20392 0.18735 0.0
C1202 C 0.45671 0.20499 0.16737 0.0
C1203 C 0.46058 0.19147 0.14466 0.0
C1204 C 0.48302 0.17682 0.14242 0.0
C1205 C 0.501 0.175 0.16202 0.0
C1206 C 0.52382 0.15849 0.15464 0.0
C1207 C 0.54956 0.17311 0.15518 0.0
C1208 C 0.52528 0.13535 0.17187 0.0
C1209 C 0.51612 0.15166 0.12762 0.0
C1210 C 0.49255 0.16242 0.12089 0.0
C1211 C 0.48217 0.1598 0.09641 0.0
C1212 C 0.49615 0.14558 0.07844 0.0
C1213 C 0.52009 0.13404 0.0851 0.0
C1214 C 0.53014 0.13724 0.11004 0.0
H1215 H 0.83798 0.51596 0.20879 0.0
H1216 H 0.82825 0.59606 0.21584 0.0
H1217 H 0.86818 0.60226 0.1901 0.0
H1218 H 0.90941 0.51459 0.21038 0.0
H1219 H 0.91136 0.48991 0.187 0.0
H1220 H 0.88366 0.49194 0.20813 0.0
H1221 H 0.85246 0.49271 0.16909 0.0
H1222 H 0.88 0.49051 0.14791 0.0
H1223 H 0.85702 0.51583 0.14457 0.0
H1224 H 0.90694 0.59947 0.16008 0.0
H1225 H 0.94008 0.58794 0.12775 0.0
H1226 H 0.92403 0.50968 0.1412 0.0
C1227 C 0.84426 0.53483 0.20501 0.0
C1228 C 0.82998 0.55553 0.21426 0.0
C1229 C 0.83905 0.57992 0.20914 0.0
C1230 C 0.86168 0.58361 0.19454 0.0
C1231 C 0.87512 0.56274 0.18544 0.0
C1232 C 0.86673 0.53883 0.19057 0.0
C1233 C 0.88354 0.51952 0.17733 0.0
C1234 C 0.89784 0.50302 0.19688 0.0
C1235 C 0.86729 0.50373 0.15861 0.0
C1236 C 0.90231 0.53628 0.16334 0.0
C1237 C 0.89739 0.56115 0.16842 0.0
C1238 C 0.91119 0.58004 0.15624 0.0
C1239 C 0.93003 0.57331 0.13794 0.0
C1240 C 0.93482 0.5479 0.13199 0.0
C1241 C 0.92114 0.52927 0.14543 0.0
H1242 H 0.55039 0.84513 0.15601 0.0
H1243 H 0.54756 0.89472 0.22162 0.0
H1244 H 0.52794 0.92768 0.19462 0.0
H1245 H 0.56573 0.8927 0.10865 0.0
H1246 H 0.54589 0.87835 0.08432 0.0
H1247 H 0.56107 0.85942 0.10859 0.0
H1248 H 0.51591 0.84146 0.12077 0.0
H1249 H 0.50058 0.86041 0.09667 0.0
H1250 H 0.48978 0.86247 0.12941 0.0
H1251 H 0.50603 0.95422 0.16081 0.0
H1252 H 0.48539 0.9728 0.12253 0.0
H1253 H 0.50296 0.90549 0.07943 0.0
C1254 C 0.54574 0.86297 0.16467 0.0
C1255 C 0.55045 0.86741 0.19088 0.0
C1256 C 0.54435 0.89105 0.20149 0.0
C1257 C 0.5331 0.90981 0.18635 0.0
C1258 C 0.52832 0.90466 0.16063 0.0
C1259 C 0.53467 0.88188 0.14984 0.0
C1260 C 0.52714 0.88082 0.1219 0.0
C1261 C 0.5514 0.87764 0.10486 0.0
C1262 C 0.50717 0.86006 0.11691 0.0
C1263 C 0.51502 0.90637 0.11875 0.0
C1264 C 0.51595 0.91992 0.14124 0.0
C1265 C 0.50537 0.94385 0.14304 0.0
C1266 C 0.49364 0.95422 0.12123 0.0
C1267 C 0.49259 0.94063 0.09798 0.0
C1268 C 0.50348 0.91642 0.09687 0.0
H1269 H 0.20985 0.59755 0.15062 0.0
H1270 H 0.20284 0.53278 0.19939 0.0
H1271 H 0.17552 0.51207 0.16666 0.0
H1272 H 0.14434 0.59763 0.12978 0.0
H1273 H 0.1515 0.60792 0.09776 0.0
H1274 H 0.17285 0.61621 0.12367 0.0
H1275 H 0.21186 0.59656 0.09909 0.0
H1276 H 0.19041 0.58794 0.07325 0.0
H1277 H 0.21013 0.56453 0.08877 0.0
H1278 H 0.14816 0.49918 0.12978 0.0
H1279 H 0.11695 0.49698 0.09416 0.0
H1280 H 0.1395 0.57128 0.07017 0.0
C1281 C 0.2027 0.57891 0.15413 0.0
C1282 C 0.20837 0.56652 0.17721 0.0
C1283 C 0.19853 0.54238 0.18166 0.0
C1284 C 0.18327 0.53046 0.16316 0.0
C1285 C 0.17799 0.54311 0.14048 0.0
C1286 C 0.18705 0.56693 0.13603 0.0
C1287 C 0.17642 0.57728 0.11119 0.0
C1288 C 0.16031 0.60116 0.11589 0.0
C1289 C 0.19853 0.58184 0.09193 0.0
C1290 C 0.15938 0.55582 0.10277 0.0
C1291 C 0.16118 0.53606 0.11958 0.0
C1292 C 0.14665 0.51446 0.11638 0.0
C1293 C 0.12902 0.51338 0.09599 0.0
C1294 C 0.1257 0.53401 0.07938 0.0
C1295 C 0.14168 0.55518 0.08244 0.0
H1296 H 0.49018 0.8774 0.82558 0.0
H1297 H 0.54211 0.82457 0.86287 0.0
H1298 H 0.54971 0.85488 0.8975 0.0
H1299 H 0.52425 0.93479 0.84481 0.0
H1300 H 0.49416 0.95158 0.85001 0.0
H1301 H 0.49573 0.92724 0.82622 0.0
H1302 H 0.45694 0.90483 0.84792 0.0
H1303 H 0.4552 0.9291 0.87165 0.0
H1304 H 0.45898 0.89709 0.8814 0.0
H1305 H 0.54766 0.88866 0.93055 0.0
H1306 H 0.53467 0.92271 0.95984 0.0
H1307 H 0.48409 0.95344 0.90158 0.0
C1308 C 0.50328 0.87219 0.84091 0.0
C1309 C 0.51565 0.84857 0.84131 0.0
C1310 C 0.53279 0.84269 0.86175 0.0
C1311 C 0.53719 0.85977 0.8816 0.0
C1312 C 0.52435 0.88269 0.88077 0.0
C1313 C 0.50772 0.88892 0.86097 0.0
C1314 C 0.49452 0.91381 0.86571 0.0
C1315 C 0.50266 0.93299 0.84548 0.0
C1316 C 0.46465 0.91103 0.86674 0.0
C1317 C 0.50568 0.92023 0.89168 0.0
C1318 C 0.52322 0.90227 0.89984 0.0
C1319 C 0.53459 0.90323 0.92404 0.0
C1320 C 0.52754 0.92286 0.94043 0.0
C1321 C 0.50947 0.94123 0.93251 0.0
C1322 C 0.49855 0.93995 0.90778 0.0
H1323 H 0.2079 0.5397 0.81584 0.0
H1324 H 0.19315 0.46459 0.78849 0.0
H1325 H 0.15023 0.46534 0.8097 0.0
H1326 H 0.18297 0.53037 0.87694 0.0
H1327 H 0.16924 0.56121 0.88029 0.0
H1328 H 0.19687 0.55616 0.85973 0.0
H1329 H 0.17118 0.57557 0.82191 0.0
H1330 H 0.14331 0.58042 0.84239 0.0
H1331 H 0.13992 0.56293 0.81311 0.0
H1332 H 0.11157 0.47213 0.83768 0.0
H1333 H 0.08133 0.48338 0.87254 0.0
H1334 H 0.12129 0.55384 0.88239 0.0
C1335 C 0.19563 0.52342 0.81417 0.0
C1336 C 0.20393 0.50211 0.80035 0.0
C1337 C 0.1871 0.48131 0.79855 0.0
C1338 C 0.16266 0.48155 0.81054 0.0
C1339 C 0.15523 0.50276 0.82419 0.0
C1340 C 0.17124 0.5233 0.82612 0.0
C1341 C 0.1598 0.54276 0.84397 0.0
C1342 C 0.17831 0.54791 0.86657 0.0
C1343 C 0.15316 0.56685 0.82947 0.0
C1344 C 0.13532 0.52953 0.85255 0.0
C1345 C 0.13282 0.50669 0.84053 0.0
C1346 C 0.11306 0.49013 0.84691 0.0
C1347 C 0.09598 0.49669 0.86675 0.0
C1348 C 0.09886 0.51955 0.88004 0.0
C1349 C 0.11823 0.53651 0.87219 0.0
H1350 H 0.48768 0.18276 0.86627 0.0
H1351 H 0.52278 0.13545 0.80787 0.0
H1352 H 0.52696 0.10172 0.83896 0.0
H1353 H 0.53137 0.16682 0.91327 0.0
H1354 H 0.50861 0.16749 0.93955 0.0
H1355 H 0.50256 0.18618 0.91168 0.0
H1356 H 0.45734 0.1654 0.90623 0.0
H1357 H 0.46339 0.14654 0.93413 0.0
H1358 H 0.45524 0.13193 0.90412 0.0
H1359 H 0.5341 0.07561 0.87642 0.0
H1360 H 0.5462 0.05976 0.91899 0.0
H1361 H 0.50872 0.12339 0.95474 0.0
C1362 C 0.49589 0.1652 0.85986 0.0
C1363 C 0.50441 0.16184 0.83428 0.0
C1364 C 0.51518 0.13848 0.82694 0.0
C1365 C 0.51776 0.11909 0.84456 0.0
C1366 C 0.50961 0.12319 0.8696 0.0
C1367 C 0.49896 0.14566 0.87737 0.0
C1368 C 0.49517 0.14628 0.90618 0.0
C1369 C 0.51034 0.16797 0.91837 0.0
C1370 C 0.46605 0.14761 0.91306 0.0
C1371 C 0.50679 0.12121 0.91343 0.0
C1372 C 0.51428 0.10798 0.89186 0.0
C1373 C 0.52781 0.08549 0.89342 0.0
C1374 C 0.53467 0.07666 0.91761 0.0
C1375 C 0.52806 0.09027 0.93985 0.0
C1376 C 0.51327 0.11241 0.9379 0.0
H1377 H 0.82343 0.51221 0.85385 0.0
H1378 H 0.79287 0.44272 0.8831 0.0
H1379 H 0.82262 0.44568 0.9203 0.0
H1380 H 0.8879 0.50067 0.86778 0.0
H1381 H 0.89591 0.53222 0.87655 0.0
H1382 H 0.86964 0.52642 0.85461 0.0
H1383 H 0.83803 0.55134 0.88389 0.0
H1384 H 0.86428 0.55717 0.90602 0.0
H1385 H 0.8347 0.5427 0.91702 0.0
H1386 H 0.86024 0.45286 0.95006 0.0
H1387 H 0.90176 0.46431 0.97089 0.0
H1388 H 0.90646 0.5301 0.92315 0.0
C1389 C 0.82273 0.49783 0.86833 0.0
C1390 C 0.80599 0.4772 0.86569 0.0
C1391 C 0.80546 0.45876 0.88496 0.0
C1392 C 0.82225 0.46032 0.90611 0.0
C1393 C 0.83902 0.48065 0.90781 0.0
C1394 C 0.83913 0.49924 0.88957 0.0
C1395 C 0.86036 0.51809 0.89467 0.0
C1396 C 0.87958 0.5194 0.87207 0.0
C1397 C 0.84864 0.54385 0.90077 0.0
C1398 C 0.87294 0.50666 0.91804 0.0
C1399 C 0.86023 0.48519 0.92548 0.0
C1400 C 0.86997 0.46995 0.94484 0.0
C1401 C 0.89358 0.47656 0.9565 0.0
C1402 C 0.90705 0.49826 0.94884 0.0
C1403 C 0.89618 0.5138 0.92987 0.0
H1404 H 0.70858 0.70479 0.01664 0.0
H1405 H 0.73087 0.69853 0.09637 0.0
H1406 H 0.69697 0.66629 0.10264 0.0
H1407 H 0.63977 0.69745 0.02501 0.0
H1408 H 0.63578 0.67934 0.9962 0.0
H1409 H 0.66156 0.70189 0.99837 0.0
H1410 H 0.69558 0.66757 0.98733 0.0
H1411 H 0.66989 0.64491 0.98511 0.0
H1412 H 0.69701 0.63967 0.00642 0.0
H1413 H 0.65984 0.63547 0.09998 0.0
H1414 H 0.62416 0.6069 0.08836 0.0
H1415 H 0.62753 0.63319 0.00991 0.0
C1416 C 0.70618 0.69674 0.03547 0.0
C1417 C 0.72204 0.70419 0.05612 0.0
C1418 C 0.71881 0.69296 0.08035 0.0
C1419 C 0.69961 0.67477 0.08407 0.0
C1420 C 0.68414 0.66796 0.06327 0.0
C1421 C 0.68739 0.67849 0.0394 0.0
C1422 C 0.66878 0.66761 0.02 0.0
C1423 C 0.65038 0.68778 0.00927 0.0
C1424 C 0.68371 0.65414 0.99845 0.0
C1425 C 0.65431 0.64941 0.03669 0.0
C1426 C 0.66334 0.64991 0.0616 0.0
C1427 C 0.65272 0.63482 0.0805 0.0
C1428 C 0.63245 0.61866 0.07369 0.0
C1429 C 0.62312 0.61769 0.04816 0.0
C1430 C 0.63424 0.63338 0.02955 0.0
H1431 H 0.33739 0.69768 0.95879 0.0
H1432 H 0.29848 0.69056 0.03209 0.0
H1433 H 0.32757 0.65545 0.04319 0.0
H1434 H 0.34928 0.63044 0.94845 0.0
H1435 H 0.38083 0.63546 0.93423 0.0
H1436 H 0.35553 0.6587 0.93099 0.0
H1437 H 0.38615 0.69202 0.95048 0.0
H1438 H 0.41153 0.66894 0.95364 0.0
H1439 H 0.40092 0.68644 0.98125 0.0
H1440 H 0.36214 0.62313 0.04752 0.0
H1441 H 0.4017 0.59699 0.04591 0.0
H1442 H 0.41852 0.62473 0.9697 0.0
C1443 C 0.33477 0.68845 0.977 0.0
C1444 C 0.31576 0.69686 0.99463 0.0
C1445 C 0.31316 0.68461 0.01845 0.0
C1446 C 0.32939 0.6645 0.02481 0.0
C1447 C 0.34806 0.65679 0.00711 0.0
C1448 C 0.3509 0.66837 0.98371 0.0
C1449 C 0.37366 0.65741 0.9689 0.0
C1450 C 0.36425 0.64475 0.94418 0.0
C1451 C 0.39428 0.67739 0.96325 0.0
C1452 C 0.3836 0.63839 0.98797 0.0
C1453 C 0.36827 0.63809 0.00969 0.0
C1454 C 0.37418 0.623 0.03052 0.0
C1455 C 0.39674 0.60822 0.0294 0.0
C1456 C 0.41326 0.60876 0.00766 0.0
C1457 C 0.40619 0.62367 0.98647 0.0
H1458 H 0.34187 0.35809 0.00996 0.0
H1459 H 0.36395 0.33757 0.93262 0.0
H1460 H 0.4024 0.36509 0.93556 0.0
H1461 H 0.3604 0.42212 0.00692 0.0
H1462 H 0.37281 0.42321 0.03916 0.0
H1463 H 0.34724 0.40175 0.03099 0.0
H1464 H 0.37542 0.36507 0.04784 0.0
H1465 H 0.40114 0.38642 0.05597 0.0
H1466 H 0.40778 0.36027 0.03521 0.0
H1467 H 0.43667 0.39639 0.94599 0.0
H1468 H 0.46587 0.42838 0.96371 0.0
H1469 H 0.42321 0.42685 0.0354 0.0
C1470 C 0.35477 0.35955 0.99363 0.0
C1471 C 0.34997 0.34592 0.97098 0.0
C1472 C 0.3674 0.34789 0.95012 0.0
C1473 C 0.38922 0.36344 0.95162 0.0
C1474 C 0.39344 0.3766 0.97425 0.0
C1475 C 0.37684 0.3747 0.99495 0.0
C1476 C 0.38596 0.39075 0.01707 0.0
C1477 C 0.36538 0.41064 0.02393 0.0
C1478 C 0.393 0.37466 0.0404 0.0
C1479 C 0.41004 0.40234 0.00539 0.0
C1480 C 0.41393 0.39392 0.98066 0.0
C1481 C 0.43407 0.40284 0.96545 0.0
C1482 C 0.45059 0.42098 0.97573 0.0
C1483 C 0.44713 0.42981 0.00109 0.0
C1484 C 0.42667 0.42014 0.01613 0.0
H1485 H 0.70678 0.34991 0.95369 0.0
H1486 H 0.73974 0.34201 0.02966 0.0
H1487 H 0.70968 0.37462 0.04579 0.0
H1488 H 0.69472 0.41772 0.95669 0.0
H1489 H 0.66438 0.41544 0.93945 0.0
H1490 H 0.69024 0.39332 0.93335 0.0
H1491 H 0.65882 0.35693 0.94328 0.0
H1492 H 0.6329 0.37889 0.94932 0.0
H1493 H 0.6418 0.35648 0.97345 0.0
H1494 H 0.67434 0.4061 0.05417 0.0
H1495 H 0.63458 0.43221 0.05479 0.0
H1496 H 0.62437 0.41915 0.97336 0.0
C1497 C 0.70795 0.3554 0.97361 0.0
C1498 C 0.72556 0.34354 0.99045 0.0
C1499 C 0.72622 0.3508 0.01651 0.0
C1500 C 0.7094 0.36942 0.02578 0.0
C1501 C 0.69207 0.3806 0.00874 0.0
C1502 C 0.69116 0.37382 0.98321 0.0
C1503 C 0.66939 0.38734 0.96935 0.0
C1504 C 0.68035 0.40447 0.94848 0.0
C1505 C 0.64956 0.3688 0.95821 0.0
C1506 C 0.6578 0.40229 0.9912 0.0
C1507 C 0.67141 0.39846 0.01366 0.0
C1508 C 0.66365 0.40943 0.03665 0.0
C1509 C 0.64103 0.42426 0.03679 0.0
C1510 C 0.62629 0.42777 0.01413 0.0
C1511 C 0.63522 0.417 0.99099 0.0
H1512 H 0.96042 0.65519 0.67771 0.0
H1513 H 0.97957 0.72161 0.63472 0.0
H1514 H 0.98866 0.6958 0.59663 0.0
H1515 H 0.00959 0.61905 0.65554 0.0
H1516 H 0.99188 0.59017 0.65358 0.0
H1517 H 0.98163 0.6139 0.67573 0.0
H1518 H 0.93547 0.61375 0.65563 0.0
H1519 H 0.94569 0.5901 0.63318 0.0
H1520 H 0.93172 0.61887 0.62177 0.0
H1521 H 0.00365 0.66319 0.5665 0.0
H1522 H 0.02239 0.62557 0.54591 0.0
H1523 H 0.99247 0.58003 0.60734 0.0
C1524 C 0.96556 0.66432 0.65998 0.0
C1525 C 0.96928 0.69036 0.6591 0.0
C1526 C 0.97678 0.70165 0.6358 0.0
C1527 C 0.98174 0.68717 0.61402 0.0
C1528 C 0.9788 0.66145 0.61572 0.0
C1529 C 0.97057 0.65008 0.63801 0.0
C1530 C 0.97197 0.62195 0.63567 0.0
C1531 C 0.98984 0.61063 0.65634 0.0
C1532 C 0.94457 0.61051 0.63661 0.0
C1533 C 0.98378 0.61935 0.60924 0.0
C1534 C 0.98707 0.64236 0.59785 0.0
C1535 C 0.00046 0.64502 0.57481 0.0
C1536 C 0.01114 0.62366 0.56333 0.0
C1537 C 0.00814 0.60008 0.57484 0.0
C1538 C 0.99393 0.59782 0.59775 0.0
H1539 H 0.35736 0.99098 0.71206 0.0
H1540 H 0.39497 0.92346 0.73915 0.0
H1541 H 0.43517 0.93493 0.71575 0.0
H1542 H 0.37988 0.98776 0.65076 0.0
H1543 H 0.38395 0.02084 0.64654 0.0
H1544 H 0.36044 0.0095 0.66906 0.0
H1545 H 0.3824 0.03538 0.70497 0.0
H1546 H 0.40624 0.04663 0.68249 0.0
H1547 H 0.41671 0.03125 0.71136 0.0
H1548 H 0.46786 0.95006 0.68392 0.0
H1549 H 0.48981 0.96674 0.6457 0.0
H1550 H 0.43113 0.025 0.64018 0.0
C1551 C 0.3742 0.97877 0.71335 0.0
C1552 C 0.37311 0.95625 0.7272 0.0
C1553 C 0.39553 0.94085 0.7287 0.0
C1554 C 0.41841 0.94728 0.71557 0.0
C1555 C 0.41859 0.96937 0.70152 0.0
C1556 C 0.39708 0.98497 0.70052 0.0
C1557 C 0.40109 0.00618 0.68197 0.0
C1558 C 0.38011 0.00603 0.66084 0.0
C1559 C 0.40165 0.03135 0.69605 0.0
C1560 C 0.42771 0.9994 0.67158 0.0
C1561 C 0.43772 0.97838 0.68344 0.0
C1562 C 0.46056 0.96686 0.67496 0.0
C1563 C 0.47288 0.97646 0.65322 0.0
C1564 C 0.46228 0.99732 0.64021 0.0
C1565 C 0.44007 0.0095 0.65019 0.0
H1566 H 0.04109 0.37063 0.69437 0.0
H1567 H 0.04535 0.30824 0.64151 0.0
H1568 H 0.04908 0.33752 0.60538 0.0
H1569 H 0.00456 0.41318 0.65212 0.0
H1570 H 0.02241 0.44003 0.66302 0.0
H1571 H 0.01718 0.41417 0.68429 0.0
H1572 H 0.06706 0.4106 0.69176 0.0
H1573 H 0.07246 0.4363 0.67042 0.0
H1574 H 0.08851 0.40684 0.66468 0.0
H1575 H 0.05696 0.3735 0.57554 0.0
H1576 H 0.06612 0.4136 0.55422 0.0
H1577 H 0.05679 0.45204 0.62686 0.0
C1578 C 0.04254 0.36313 0.67517 0.0
C1579 C 0.04288 0.33718 0.67075 0.0
C1580 C 0.04467 0.32808 0.64532 0.0
C1581 C 0.04692 0.34455 0.62468 0.0
C1582 C 0.04716 0.37003 0.62979 0.0
C1583 C 0.04475 0.37928 0.65439 0.0
C1584 C 0.04686 0.40736 0.65492 0.0
C1585 C 0.02122 0.41939 0.66413 0.0
C1586 C 0.07011 0.41575 0.67141 0.0
C1587 C 0.05156 0.41241 0.62688 0.0
C1588 C 0.05151 0.3907 0.61263 0.0
C1589 C 0.05667 0.39068 0.58644 0.0
C1590 C 0.06194 0.4135 0.57452 0.0
C1591 C 0.06207 0.43594 0.58886 0.0
C1592 C 0.05667 0.43526 0.61532 0.0
H1593 H 0.69983 0.10545 0.6855 0.0
H1594 H 0.75548 0.04439 0.68363 0.0
H1595 H 0.73153 0.02537 0.64749 0.0
H1596 H 0.64438 0.07124 0.67422 0.0
H1597 H 0.62846 0.09369 0.65383 0.0
H1598 H 0.65164 0.10394 0.67736 0.0
H1599 H 0.67858 0.12577 0.64199 0.0
H1600 H 0.65535 0.11564 0.6183 0.0
H1601 H 0.68943 0.10809 0.61459 0.0
H1602 H 0.69798 0.01015 0.61624 0.0
H1603 H 0.65923 0.00162 0.58947 0.0
H1604 H 0.62717 0.07402 0.60983 0.0
C1605 C 0.70722 0.08838 0.67703 0.0
C1606 C 0.72945 0.07636 0.6871 0.0
C1607 C 0.73861 0.05395 0.67584 0.0
C1608 C 0.72513 0.04303 0.6554 0.0
C1609 C 0.7029 0.05506 0.64619 0.0
C1610 C 0.6943 0.0775 0.6563 0.0
C1611 C 0.66924 0.08604 0.64371 0.0
C1612 C 0.64713 0.08888 0.66346 0.0
C1613 C 0.67341 0.11032 0.62876 0.0
C1614 C 0.66446 0.06436 0.62581 0.0
C1615 C 0.68412 0.04672 0.62742 0.0
C1616 C 0.68276 0.02408 0.61435 0.0
C1617 C 0.66065 0.01934 0.59932 0.0
C1618 C 0.64038 0.03725 0.5974 0.0
C1619 C 0.64261 0.06017 0.61053 0.0
H1620 H 0.04127 0.39436 0.33176 0.0
H1621 H 0.03134 0.33233 0.38384 0.0
H1622 H 0.03761 0.36065 0.42045 0.0
H1623 H 0.0875 0.43228 0.37315 0.0
H1624 H 0.07173 0.46088 0.36357 0.0
H1625 H 0.07366 0.435 0.34158 0.0
H1626 H 0.0234 0.43633 0.33607 0.0
H1627 H 0.0214 0.46207 0.35795 0.0
H1628 H 0.00288 0.43424 0.36397 0.0
H1629 H 0.03598 0.3962 0.45097 0.0
H1630 H 0.025 0.4358 0.47251 0.0
H1631 H 0.03464 0.47507 0.40072 0.0
C1632 C 0.04106 0.38662 0.35086 0.0
C1633 C 0.0359 0.3611 0.3549 0.0
C1634 C 0.03575 0.3517 0.38019 0.0
C1635 C 0.03929 0.36768 0.40115 0.0
C1636 C 0.04322 0.39296 0.39651 0.0
C1637 C 0.04434 0.40234 0.37193 0.0
C1638 C 0.04477 0.43055 0.37202 0.0
C1639 C 0.07098 0.44024 0.36199 0.0
C1640 C 0.02174 0.44141 0.35661 0.0
C1641 C 0.04187 0.43559 0.40035 0.0
C1642 C 0.04183 0.4137 0.41424 0.0
C1643 C 0.03656 0.41349 0.44039 0.0
C1644 C 0.03024 0.43609 0.45245 0.0
C1645 C 0.02886 0.4585 0.43825 0.0
C1646 C 0.03579 0.45829 0.41213 0.0
H1647 H 0.66449 0.01649 0.29163 0.0
H1648 H 0.72132 0.06842 0.323 0.0
H1649 H 0.68952 0.08165 0.35502 0.0
H1650 H 0.60472 0.05018 0.30673 0.0
H1651 H 0.58793 0.02254 0.31703 0.0
H1652 H 0.61288 0.02036 0.29282 0.0
H1653 H 0.63785 0.98761 0.31995 0.0
H1654 H 0.61283 0.98945 0.34399 0.0
H1655 H 0.64637 0.99496 0.35255 0.0
H1656 H 0.65271 0.08847 0.38479 0.0
H1657 H 0.61741 0.08224 0.4159 0.0
H1658 H 0.58784 0.02077 0.37039 0.0
C1659 C 0.67064 0.03058 0.30511 0.0
C1660 C 0.69562 0.04173 0.30384 0.0
C1661 C 0.70214 0.06021 0.32226 0.0
C1662 C 0.68417 0.06785 0.34085 0.0
C1663 C 0.65994 0.05641 0.34139 0.0
C1664 C 0.6534 0.03769 0.3245 0.0
C1665 C 0.62774 0.02573 0.3317 0.0
C1666 C 0.6071 0.02997 0.31082 0.0
C1667 C 0.63143 0.99779 0.33739 0.0
C1668 C 0.62123 0.04035 0.35567 0.0
C1669 C 0.6396 0.05858 0.36029 0.0
C1670 C 0.63816 0.0743 0.38142 0.0
C1671 C 0.61795 0.07067 0.3989 0.0
C1672 C 0.59997 0.05097 0.39551 0.0
C1673 C 0.60129 0.036 0.37333 0.0
H1674 H 0.05588 0.69094 0.37001 0.0
H1675 H 0.08307 0.64009 0.31092 0.0
H1676 H 0.07773 0.60485 0.3405 0.0
H1677 H 0.08318 0.65576 0.42614 0.0
H1678 H 0.05496 0.66284 0.4454 0.0
H1679 H 0.06568 0.68462 0.42144 0.0
H1680 H 0.01967 0.6839 0.40078 0.0
H1681 H 0.00889 0.66216 0.42457 0.0
H1682 H 0.00589 0.6545 0.39111 0.0
H1683 H 0.0634 0.57467 0.37381 0.0
H1684 H 0.04018 0.55213 0.40803 0.0
H1685 H 0.02203 0.62213 0.44546 0.0
C1686 C 0.06115 0.67244 0.36341 0.0
C1687 C 0.07002 0.66835 0.33814 0.0
C1688 C 0.07672 0.64383 0.33031 0.0
C1689 C 0.07375 0.62364 0.347 0.0
C1690 C 0.06431 0.62827 0.37155 0.0
C1691 C 0.05825 0.6521 0.37981 0.0
C1692 C 0.04581 0.6518 0.40608 0.0
C1693 C 0.06347 0.66451 0.42593 0.0
C1694 C 0.01845 0.66379 0.40558 0.0
C1695 C 0.04448 0.62401 0.41067 0.0
C1696 C 0.05586 0.61077 0.39082 0.0
C1697 C 0.05517 0.58482 0.38983 0.0
C1698 C 0.04225 0.57213 0.40946 0.0
C1699 C 0.03025 0.58538 0.4297 0.0
C1700 C 0.03157 0.6116 0.43039 0.0
H1701 H 0.33556 0.95552 0.35335 0.0
H1702 H 0.30819 0.02917 0.33179 0.0
H1703 H 0.33327 0.04753 0.36752 0.0
H1704 H 0.33519 0.96594 0.42292 0.0
H1705 H 0.36443 0.9477 0.4276 0.0
H1706 H 0.34257 0.94031 0.4017 0.0
H1707 H 0.38061 0.9443 0.3693 0.0
H1708 H 0.40255 0.95153 0.39508 0.0
H1709 H 0.3993 0.97265 0.36851 0.0
H1710 H 0.36364 0.05793 0.40415 0.0
H1711 H 0.39878 0.05966 0.43649 0.0
H1712 H 0.40533 0.97896 0.43395 0.0
C1713 C 0.33441 0.97546 0.35644 0.0
C1714 C 0.31986 0.99091 0.33986 0.0
C1715 C 0.3194 0.017 0.34416 0.0
C1716 C 0.33336 0.02756 0.36454 0.0
C1717 C 0.34758 0.01176 0.38049 0.0
C1718 C 0.34821 0.98627 0.37662 0.0
C1719 C 0.36635 0.9735 0.3953 0.0
C1720 C 0.35122 0.95582 0.41293 0.0
C1721 C 0.38851 0.9597 0.3812 0.0
C1722 C 0.37638 0.99585 0.40989 0.0
C1723 C 0.36508 0.01774 0.40138 0.0
C1724 C 0.37242 0.04087 0.41115 0.0
C1725 C 0.39234 0.04166 0.42958 0.0
C1726 C 0.40484 0.01946 0.43779 0.0
C1727 C 0.39613 0.99629 0.42823 0.0
H1728 H 0.03814 0.20266 0.33566 0.0
H1729 H 0.97728 0.17227 0.28725 0.0
H1730 H 0.97215 0.13706 0.31691 0.0
H1731 H 0.06591 0.14003 0.35546 0.0
H1732 H 0.07294 0.15108 0.38729 0.0
H1733 H 0.0742 0.17226 0.36063 0.0
H1734 H 0.04145 0.20137 0.38392 0.0
H1735 H 0.03951 0.18001 0.41033 0.0
H1736 H 0.01025 0.18933 0.3937 0.0
H1737 H 0.96775 0.11027 0.35462 0.0
H1738 H 0.97063 0.08676 0.39468 0.0
H1739 H 0.03705 0.13122 0.41825 0.0
C1740 C 0.02449 0.18806 0.33083 0.0
C1741 C 0.00794 0.19025 0.30926 0.0
C1742 C 0.98993 0.17105 0.30381 0.0
C1743 C 0.98687 0.15101 0.32053 0.0
C1744 C 0.00234 0.15015 0.34238 0.0
C1745 C 0.02139 0.16764 0.34726 0.0
C1746 C 0.03468 0.16252 0.37274 0.0
C1747 C 0.06366 0.15608 0.36879 0.0
C1748 C 0.03126 0.18462 0.39126 0.0
C1749 C 0.01944 0.13999 0.3817 0.0
C1750 C 0.00073 0.13346 0.3639 0.0
C1751 C 0.98272 0.11475 0.36846 0.0
C1752 C 0.98433 0.10173 0.39149 0.0
C1753 C 0.00412 0.10711 0.40961 0.0
C1754 C 0.02187 0.1266 0.40467 0.0
H1755 H 0.85219 0.03743 0.3186 0.0
H1756 H 0.85271 0.95653 0.31155 0.0
H1757 H 0.86822 0.95313 0.35554 0.0
H1758 H 0.91441 0.03778 0.35023 0.0
H1759 H 0.90664 0.06467 0.36959 0.0
H1760 H 0.89146 0.06079 0.33883 0.0
H1761 H 0.84617 0.06461 0.36065 0.0
H1762 H 0.8614 0.06758 0.39158 0.0
H1763 H 0.83773 0.04345 0.38602 0.0
H1764 H 0.88254 0.95769 0.40034 0.0
H1765 H 0.90939 0.9692 0.43735 0.0
H1766 H 0.90766 0.04651 0.41315 0.0
C1767 C 0.85565 0.01891 0.32599 0.0
C1768 C 0.84966 0.99725 0.31152 0.0
C1769 C 0.85529 0.97354 0.32235 0.0
C1770 C 0.86428 0.97132 0.34748 0.0
C1771 C 0.86865 0.99294 0.36146 0.0
C1772 C 0.86573 0.01628 0.35078 0.0
C1773 C 0.87599 0.03631 0.36865 0.0
C1774 C 0.89847 0.05072 0.35608 0.0
C1775 C 0.854 0.05403 0.37723 0.0
C1776 C 0.88551 0.02039 0.39076 0.0
C1777 C 0.87996 0.99556 0.38657 0.0
C1778 C 0.88723 0.97706 0.40377 0.0
C1779 C 0.90237 0.98383 0.42487 0.0
C1780 C 0.9109 0.00873 0.42806 0.0
C1781 C 0.90115 0.02744 0.41153 0.0
H1782 H 0.03556 0.83631 0.34652 0.0
H1783 H 0.0392 0.87141 0.27193 0.0
H1784 H 0.03048 0.91238 0.29203 0.0
H1785 H 0.98391 0.874 0.37199 0.0
H1786 H 0.99751 0.87515 0.40376 0.0
H1787 H 0.00406 0.84873 0.38341 0.0
H1788 H 0.05379 0.85561 0.38908 0.0
H1789 H 0.04733 0.88211 0.40938 0.0
H1790 H 0.06756 0.88553 0.38144 0.0
H1791 H 0.02176 0.94957 0.32046 0.0
H1792 H 0.01133 0.97981 0.35467 0.0
H1793 H 0.01403 0.92027 0.41068 0.0
C1794 C 0.03468 0.85262 0.33439 0.0
C1795 C 0.03809 0.85064 0.30762 0.0
C1796 C 0.03635 0.87241 0.29243 0.0
C1797 C 0.03163 0.89579 0.3037 0.0
C1798 C 0.02867 0.89707 0.33017 0.0
C1799 C 0.03 0.87604 0.3453 0.0
C1800 C 0.02574 0.88238 0.37324 0.0
C1801 C 0.00135 0.86929 0.3837 0.0
C1802 C 0.05006 0.87603 0.38922 0.0
C1803 C 0.02163 0.91027 0.37147 0.0
C1804 C 0.02355 0.91841 0.34649 0.0
C1805 C 0.02016 0.94339 0.34008 0.0
C1806 C 0.01421 0.96042 0.35965 0.0
C1807 C 0.01172 0.95239 0.38534 0.0
C1808 C 0.01582 0.92701 0.39126 0.0
H1809 H 0.15205 0.01304 0.30255 0.0
H1810 H 0.14425 0.93246 0.30036 0.0
H1811 H 0.11046 0.93491 0.33352 0.0
H1812 H 0.15107 0.01771 0.36782 0.0
H1813 H 0.13317 0.04667 0.36961 0.0
H1814 H 0.15244 0.03962 0.34178 0.0
H1815 H 0.1119 0.04561 0.31278 0.0
H1816 H 0.0925 0.05299 0.34057 0.0
H1817 H 0.08264 0.02827 0.31932 0.0
H1818 H 0.08327 0.94492 0.37171 0.0
H1819 H 0.06353 0.96216 0.41093 0.0
H1820 H 0.08966 0.0361 0.38962 0.0
C1821 C 0.14294 0.99591 0.30864 0.0
C1822 C 0.15091 0.97257 0.29853 0.0
C1823 C 0.13825 0.95068 0.30714 0.0
C1824 C 0.11907 0.95183 0.32621 0.0
C1825 C 0.11264 0.97498 0.33655 0.0
C1826 C 0.12399 0.99669 0.32791 0.0
C1827 C 0.11576 0.01884 0.3441 0.0
C1828 C 0.13952 0.03143 0.35656 0.0
C1829 C 0.09974 0.03753 0.32824 0.0
C1830 C 0.09893 0.00602 0.36383 0.0
C1831 C 0.09705 0.98078 0.3589 0.0
C1832 C 0.0842 0.96473 0.37551 0.0
C1833 C 0.07307 0.97473 0.3978 0.0
C1834 C 0.07477 1.00055 0.40329 0.0
C1835 C 0.0877 0.01634 0.38586 0.0
H1836 H 0.98095 0.871 0.70396 0.0
H1837 H 0.04644 0.81991 0.69605 0.0
H1838 H 0.06625 0.84782 0.66422 0.0
H1839 H 0.97582 0.88693 0.63843 0.0
H1840 H 0.96783 0.91925 0.64395 0.0
H1841 H 0.9594 0.89619 0.66746 0.0
H1842 H 0.98486 0.92067 0.70211 0.0
H1843 H 0.99313 0.94393 0.67874 0.0
H1844 H 0.01855 0.92848 0.6966 0.0
H1845 H 0.07747 0.87943 0.63114 0.0
H1846 H 0.08117 0.91451 0.60113 0.0
H1847 H 0.00866 0.94566 0.63044 0.0
C1848 C -0.00041 0.86582 0.6957 0.0
C1849 C 0.01224 0.84333 0.70267 0.0
C1850 C 0.03661 0.83724 0.69143 0.0
C1851 C 0.04793 0.85288 0.67315 0.0
C1852 C 0.03472 0.87463 0.66639 0.0
C1853 C 0.01124 0.8813 0.67749 0.0
C1854 C 0.00096 0.90556 0.66646 0.0
C1855 C 0.97443 0.90174 0.65329 0.0
C1856 C -0.00071 0.92586 0.68721 0.0
C1857 C 0.02215 0.91125 0.64715 0.0
C1858 C 0.04139 0.89311 0.64743 0.0
C1859 C 0.06266 0.89388 0.63091 0.0
C1860 C 0.06452 0.91388 0.61387 0.0
C1861 C 0.04528 0.93296 0.61348 0.0
C1862 C 0.02376 0.93147 0.63033 0.0
H1863 H 0.19278 0.01666 0.69771 0.0
H1864 H 0.23741 0.95264 0.67146 0.0
H1865 H 0.22515 0.96202 0.62695 0.0
H1866 H 0.1403 0.00784 0.65774 0.0
H1867 H 0.13385 0.04039 0.65183 0.0
H1868 H 0.14983 0.03107 0.68086 0.0
H1869 H 0.18813 0.06068 0.67022 0.0
H1870 H 0.17235 0.06962 0.64077 0.0
H1871 H 0.20513 0.0573 0.64022 0.0
H1872 H 0.20294 0.97369 0.58696 0.0
H1873 H 0.16935 0.98491 0.55516 0.0
H1874 H 0.1404 0.04282 0.60568 0.0
C1875 C 0.20041 0.00502 0.68247 0.0
C1876 C 0.21593 0.98388 0.68798 0.0
C1877 C 0.2252 0.96875 0.66766 0.0
C1878 C 0.21867 0.97414 0.64228 0.0
C1879 C 0.20304 0.99489 0.63742 0.0
C1880 C 0.19397 0.01012 0.65692 0.0
C1881 C 0.17484 0.02935 0.6468 0.0
C1882 C 0.14813 0.027 0.66008 0.0
C1883 C 0.18578 0.05581 0.64968 0.0
C1884 C 0.17355 0.02167 0.61888 0.0
C1885 C 0.19047 0.00211 0.61377 0.0
C1886 C 0.1902 0.98948 0.59042 0.0
C1887 C 0.17119 0.99605 0.57237 0.0
C1888 C 0.15287 0.01514 0.57776 0.0
C1889 C 0.15497 0.02893 0.6007 0.0
H1890 H 0.04665 0.14391 0.70672 0.0
H1891 H 0.98623 0.1937 0.6788 0.0
H1892 H 0.97906 0.16574 0.6418 0.0
H1893 H 0.07566 0.13362 0.64923 0.0
H1894 H 0.08396 0.10137 0.65454 0.0
H1895 H 0.08038 0.12217 0.6813 0.0
H1896 H 0.04559 0.09307 0.70122 0.0
H1897 H 0.04933 0.07199 0.67455 0.0
H1898 H 0.01753 0.08421 0.68255 0.0
H1899 H 0.98367 0.13554 0.60415 0.0
H1900 H 0.99863 0.10543 0.57099 0.0
H1901 H 0.05722 0.0773 0.62331 0.0
C1902 C 0.03143 0.14863 0.69318 0.0
C1903 C 0.01697 0.17098 0.69572 0.0
C1904 C 0.99727 0.17648 0.67753 0.0
C1905 C 0.99316 0.16075 0.65635 0.0
C1906 C 0.00875 0.13949 0.65375 0.0
C1907 C 0.02726 0.13328 0.67194 0.0
C1908 C 0.04334 0.11097 0.66369 0.0
C1909 C 0.07255 0.11744 0.66209 0.0
C1910 C 0.03866 0.08874 0.68157 0.0
C1911 C 0.0319 0.10625 0.63751 0.0
C1912 C 0.01164 0.12252 0.63217 0.0
C1913 C -0.00078 0.12246 0.60836 0.0
C1914 C 0.00774 0.10529 0.58967 0.0
C1915 C 0.02888 0.08901 0.59477 0.0
C1916 C 0.04084 0.08944 0.61904 0.0
H1917 H 0.88364 0.0291 0.73766 0.0
H1918 H 0.89126 0.10954 0.74417 0.0
H1919 H 0.92276 0.10927 0.70908 0.0
H1920 H 0.95235 0.01582 0.71601 0.0
H1921 H 0.94162 0.99218 0.69389 0.0
H1922 H 0.9238 0.99764 0.72312 0.0
H1923 H 0.88152 0.00459 0.6969 0.0
H1924 H 0.8992 0.99943 0.66765 0.0
H1925 H 0.88099 0.02793 0.67216 0.0
H1926 H 0.94759 0.10196 0.66907 0.0
H1927 H 0.96525 0.08736 0.62787 0.0
H1928 H 0.94127 0.01197 0.6457 0.0
C1929 C 0.89229 0.04663 0.73213 0.0
C1930 C 0.88493 0.06928 0.74421 0.0
C1931 C 0.89689 0.09173 0.73608 0.0
C1932 C 0.91477 0.09187 0.71586 0.0
C1933 C 0.92069 0.06943 0.70378 0.0
C1934 C 0.91006 0.04715 0.71173 0.0
C1935 C 0.91766 0.02607 0.69375 0.0
C1936 C 0.93489 0.00679 0.70752 0.0
C1937 C 0.89339 0.0138 0.68192 0.0
C1938 C 0.93313 0.04028 0.67388 0.0
C1939 C 0.93499 0.06519 0.68029 0.0
C1940 C 0.94669 0.08239 0.66408 0.0
C1941 C 0.95663 0.07394 0.64064 0.0
C1942 C 0.9549 0.04852 0.63354 0.0
C1943 C 0.94321 0.03148 0.65063 0.0
H1944 H 0.34455 0.96653 0.16597 0.0
H1945 H 0.27314 0.99721 0.13407 0.0
H1946 H 0.29807 0.01336 0.09724 0.0
H1947 H 0.38516 0.01573 0.15025 0.0
H1948 H 0.41316 0.9967 0.14247 0.0
H1949 H 0.38937 0.9856 0.16493 0.0
H1950 H 0.38298 0.94569 0.13754 0.0
H1951 H 0.40688 0.95674 0.11503 0.0
H1952 H 0.37466 0.9486 0.10417 0.0
H1953 H 0.33131 0.02844 0.06543 0.0
H1954 H 0.37027 0.04246 0.04193 0.0
H1955 H 0.41973 0.00136 0.09462 0.0
C1956 C 0.33399 0.97612 0.15096 0.0
C1957 C 0.30682 0.98048 0.15286 0.0
C1958 C 0.29395 0.99378 0.13313 0.0
C1959 C 0.30791 0.00283 0.11204 0.0
C1960 C 0.3347 0.99831 0.1109 0.0
C1961 C 0.34758 0.98519 0.12981 0.0
C1962 C 0.37668 0.98414 0.12489 0.0
C1963 C 0.39198 0.99627 0.14694 0.0
C1964 C 0.38583 0.95719 0.12012 0.0
C1965 C 0.37828 0.99944 0.10071 0.0
C1966 C 0.35384 0.00713 0.09271 0.0
C1967 C 0.35052 0.02235 0.07141 0.0
C1968 C 0.37279 0.03023 0.05819 0.0
C1969 C 0.39807 0.02305 0.06647 0.0
C1970 C 0.4007 0.0071 0.08776 0.0
H1971 H 0.02985 0.33684 0.14308 0.0
H1972 H 0.00066 0.38186 0.20593 0.0
H1973 H 0.99533 0.41774 0.17692 0.0
H1974 H 0.06782 0.38492 0.11492 0.0
H1975 H 0.06152 0.3757 0.08233 0.0
H1976 H 0.06073 0.35284 0.10744 0.0
H1977 H 0.01399 0.34073 0.09375 0.0
H1978 H 0.0141 0.36406 0.06897 0.0
H1979 H 0.98882 0.36427 0.09292 0.0
H1980 H 0.99517 0.44906 0.14241 0.0
H1981 H 0.0041 0.47553 0.10507 0.0
H1982 H 0.0343 0.41111 0.06397 0.0
C1983 C 0.02217 0.35426 0.15051 0.0
C1984 C 0.01563 0.35679 0.17662 0.0
C1985 C 0.00587 0.37977 0.18595 0.0
C1986 C 0.00258 0.40013 0.16961 0.0
C1987 C 0.00926 0.39721 0.14398 0.0
C1988 C 0.01912 0.375 0.13444 0.0
C1989 C 0.02662 0.37765 0.10651 0.0
C1990 C 0.05591 0.37248 0.10258 0.0
C1991 C 0.00989 0.36066 0.08952 0.0
C1992 C 0.01998 0.40491 0.10214 0.0
C1993 C 0.00957 0.41565 0.12392 0.0
C1994 C 0.00313 0.44087 0.12515 0.0
C1995 C 0.00828 0.45575 0.10382 0.0
C1996 C 0.01988 0.44541 0.0816 0.0
C1997 C 0.02511 0.41951 0.08056 0.0
H1998 H 0.74 0.01061 0.12234 0.0
H1999 H 0.73415 0.09096 0.12986 0.0
H2000 H 0.69343 0.09044 0.10442 0.0
H2001 H 0.71006 0.00508 0.05673 0.0
H2002 H 0.69409 0.97663 0.06591 0.0
H2003 H 0.72529 0.98448 0.07954 0.0
H2004 H 0.70531 0.97998 0.12484 0.0
H2005 H 0.6739 0.97305 0.11146 0.0
H2006 H 0.67735 0.9987 0.1335 0.0
H2007 H 0.64896 0.07967 0.08571 0.0
H2008 H 0.60796 0.06019 0.07075 0.0
H2009 H 0.64457 0.98732 0.07544 0.0
C2010 C 0.73111 0.02832 0.1175 0.0
C2011 C 0.74049 0.05085 0.12794 0.0
C2012 C 0.72739 0.07347 0.12199 0.0
C2013 C 0.70421 0.07333 0.10761 0.0
C2014 C 0.6946 0.05047 0.09917 0.0
C2015 C 0.70803 0.02845 0.10343 0.0
C2016 C 0.6925 0.00605 0.09497 0.0
C2017 C 0.70631 0.99226 0.07297 0.0
C2018 C 0.68695 0.98844 0.11754 0.0
C2019 C 0.66789 0.01876 0.08592 0.0
C2020 C 0.66934 0.04437 0.08835 0.0
C2021 C 0.64793 0.05969 0.0831 0.0
C2022 C 0.62473 0.0485 0.07466 0.0
C2023 C 0.62325 0.02234 0.07142 0.0
C2024 C 0.64513 0.00741 0.07733 0.0
H2025 H 0.01293 0.66867 0.18811 0.0
H2026 H 0.01319 0.73514 0.14112 0.0
H2027 H 0.0042 0.70945 0.10297 0.0
H2028 H 0.04672 0.63202 0.14818 0.0
H2029 H 0.02932 0.60348 0.15392 0.0
H2030 H 0.02989 0.6273 0.17805 0.0
H2031 H 0.97922 0.62856 0.17874 0.0
H2032 H 0.97887 0.60425 0.15489 0.0
H2033 H 0.96158 0.63307 0.14927 0.0
H2034 H 0.0052 0.6765 0.06951 0.0
H2035 H 0.01522 0.63889 0.04385 0.0
H2036 H 0.01086 0.5935 0.11195 0.0
C2037 C 0.00991 0.67798 0.17 0.0
C2038 C 0.01371 0.70397 0.16767 0.0
C2039 C 0.01055 0.71526 0.1434 0.0
C2040 C 0.00518 0.70083 0.12163 0.0
C2041 C 0.00255 0.67513 0.12444 0.0
C2042 C 0.0044 0.66382 0.1481 0.0
C2043 C 0.00411 0.63566 0.14557 0.0
C2044 C 0.02899 0.62395 0.15709 0.0
C2045 C 0.97947 0.62475 0.15784 0.0
C2046 C 0.00345 0.63287 0.11672 0.0
C2047 C 0.0021 0.65589 0.10487 0.0
C2048 C 0.00528 0.65835 0.07849 0.0
C2049 C 0.01091 0.63693 0.06403 0.0
C2050 C 0.01292 0.61338 0.07592 0.0
C2051 C 0.00818 0.61121 0.10237 0.0
H2052 H 0.3403 0.97734 0.88017 0.0
H2053 H 0.33225 0.04792 0.84019 0.0
H2054 H 0.37027 0.0641 0.86348 0.0
H2055 H 0.35787 0.00717 0.9413 0.0
H2056 H 0.37996 0.98266 0.95048 0.0
H2057 H 0.35196 0.97567 0.93091 0.0
H2058 H 0.38169 0.95573 0.8965 0.0
H2059 H 0.4099 0.96212 0.91591 0.0
H2060 H 0.40837 0.97342 0.8835 0.0
H2061 H 0.41056 0.07173 0.88844 0.0
H2062 H 0.44677 0.07328 0.9191 0.0
H2063 H 0.42764 0.99884 0.94529 0.0
C2064 C 0.34608 0.99639 0.87665 0.0
C2065 C 0.33344 0.01115 0.85787 0.0
C2066 C 0.34194 0.03595 0.8539 0.0
C2067 C 0.36351 0.04537 0.86709 0.0
C2068 C 0.37609 0.02999 0.88462 0.0
C2069 C 0.36734 0.0063 0.88998 0.0
C2070 C 0.38383 0.99415 0.91064 0.0
C2071 C 0.3674 0.98962 0.93475 0.0
C2072 C 0.39671 0.96992 0.90104 0.0
C2073 C 0.40384 0.01436 0.91524 0.0
C2074 C 0.3989 0.03483 0.89999 0.0
C2075 C 0.41447 0.05593 0.9007 0.0
C2076 C 0.4351 0.05653 0.91816 0.0
C2077 C 0.43995 0.03622 0.93489 0.0
C2078 C 0.42443 0.01463 0.93291 0.0
H2079 H 0.01896 0.34789 0.83358 0.0
H2080 H 0.03329 0.28424 0.88288 0.0
H2081 H 0.03324 0.31213 0.92047 0.0
H2082 H 0.05794 0.39148 0.86692 0.0
H2083 H 0.03576 0.41731 0.86261 0.0
H2084 H 0.03667 0.39241 0.83946 0.0
H2085 H 0.98711 0.38515 0.8455 0.0
H2086 H 0.98598 0.41027 0.8684 0.0
H2087 H 0.97443 0.3798 0.87717 0.0
H2088 H 0.03316 0.34733 0.9527 0.0
H2089 H 0.02934 0.38653 0.97732 0.0
H2090 H 0.01292 0.42672 0.90714 0.0
C2091 C 0.02156 0.33963 0.85228 0.0
C2092 C 0.02626 0.31374 0.85509 0.0
C2093 C 0.03008 0.30399 0.88003 0.0
C2094 C 0.02999 0.31969 0.90157 0.0
C2095 C 0.02581 0.34511 0.89798 0.0
C2096 C 0.02131 0.35497 0.87399 0.0
C2097 C 0.01704 0.38291 0.87535 0.0
C2098 C 0.03811 0.39684 0.86018 0.0
C2099 C 0.9895 0.38994 0.86606 0.0
C2100 C 0.01998 0.38726 0.90384 0.0
C2101 C 0.0252 0.36525 0.91655 0.0
C2102 C 0.02892 0.36464 0.94295 0.0
C2103 C 0.02685 0.38705 0.95676 0.0
C2104 C 0.02076 0.40972 0.94419 0.0
C2105 C 0.01756 0.40972 0.91733 0.0
H2106 H 0.70889 0.06951 0.89389 0.0
H2107 H 0.6759 0.04811 0.82069 0.0
H2108 H 0.63447 0.03745 0.84199 0.0
H2109 H 0.68161 0.02094 0.92793 0.0
H2110 H 0.67414 0.03731 0.95694 0.0
H2111 H 0.70091 0.0474 0.93735 0.0
H2112 H 0.68275 0.09109 0.93354 0.0
H2113 H 0.65401 0.08438 0.95217 0.0
H2114 H 0.65069 0.09641 0.92038 0.0
H2115 H 0.59751 0.02723 0.87132 0.0
H2116 H 0.56909 0.0145 0.90698 0.0
H2117 H 0.6257 0.04237 0.96136 0.0
C2118 C 0.69284 0.06284 0.88233 0.0
C2119 C 0.69563 0.05962 0.85562 0.0
C2120 C 0.67431 0.05044 0.84121 0.0
C2121 C 0.6506 0.04462 0.85309 0.0
C2122 C 0.64845 0.04811 0.87942 0.0
C2123 C 0.66904 0.0568 0.89389 0.0
C2124 C 0.66228 0.05705 0.92209 0.0
C2125 C 0.68083 0.03971 0.93698 0.0
C2126 C 0.66252 0.0838 0.93269 0.0
C2127 C 0.63477 0.04684 0.92133 0.0
C2128 C 0.62708 0.04213 0.89644 0.0
C2129 C 0.60319 0.03116 0.89085 0.0
C2130 C 0.58715 0.02406 0.91123 0.0
C2131 C 0.5949 0.02807 0.93692 0.0
C2132 C 0.61877 0.04012 0.94196 0.0
H2133 H 0.99109 0.69959 0.8692 0.0
H2134 H 0.03638 0.66852 0.80634 0.0
H2135 H 0.04955 0.6335 0.83361 0.0
H2136 H 0.03317 0.67674 0.92219 0.0
H2137 H 0.0061 0.66863 0.94229 0.0
H2138 H 0.00329 0.69455 0.92054 0.0
H2139 H 0.96267 0.67569 0.89973 0.0
H2140 H 0.96393 0.64916 0.92065 0.0
H2141 H 0.96405 0.64462 0.88656 0.0
H2142 H 0.0527 0.59866 0.86506 0.0
H2143 H 0.04386 0.56652 0.8976 0.0
H2144 H 0.99494 0.61853 0.93927 0.0
C2145 C 0.00407 0.68567 0.86115 0.0
C2146 C 0.01278 0.68723 0.83547 0.0
C2147 C 0.02987 0.66843 0.82602 0.0
C2148 C 0.03742 0.64825 0.84138 0.0
C2149 C 0.02775 0.64694 0.86622 0.0
C2150 C 0.01148 0.66518 0.87609 0.0
C2151 C 0.00123 0.65786 0.9022 0.0
C2152 C 0.01154 0.67552 0.92303 0.0
C2153 C 0.97121 0.65679 0.90229 0.0
C2154 C 0.01321 0.63215 0.90487 0.0
C2155 C 0.02906 0.62648 0.88425 0.0
C2156 C 0.04091 0.60316 0.88163 0.0
C2157 C 0.0361 0.58508 0.90035 0.0
C2158 C 0.01951 0.59035 0.92125 0.0
C2159 C 0.00812 0.61425 0.92364 0.0
H2160 H 0.15385 0.33552 0.96832 0.0
H2161 H 0.16882 0.33151 0.04995 0.0
H2162 H 0.13854 0.36684 0.0569 0.0
H2163 H 0.15382 0.3979 0.96295 0.0
H2164 H 0.12794 0.40037 0.93975 0.0
H2165 H 0.14711 0.37232 0.94154 0.0
H2166 H 0.10528 0.34604 0.94838 0.0
H2167 H 0.08614 0.37417 0.94574 0.0
H2168 H 0.08285 0.35457 0.97351 0.0
H2169 H 0.11285 0.40698 0.05383 0.0
H2170 H 0.0923 0.44683 0.04123 0.0
H2171 H 0.09148 0.42225 0.96209 0.0
C2172 C 0.15 0.34121 0.98784 0.0
C2173 C 0.16382 0.33056 0.00857 0.0
C2174 C 0.15877 0.33946 0.03366 0.0
C2175 C 0.14139 0.3594 0.03784 0.0
C2176 C 0.12882 0.36995 0.0168 0.0
C2177 C 0.13255 0.36082 0.99234 0.0
C2178 C 0.11867 0.37673 0.97266 0.0
C2179 C 0.13805 0.38746 0.9531 0.0
C2180 C 0.09693 0.36199 0.9593 0.0
C2181 C 0.10749 0.3969 0.98973 0.0
C2182 C 0.11333 0.39261 0.01517 0.0
C2183 C 0.10756 0.41018 0.03407 0.0
C2184 C 0.0959 0.43279 0.02671 0.0
C2185 C 0.08994 0.43755 0.00071 0.0
C2186 C 0.09531 0.41903 0.98218 0.0
H2187 H 0.15359 0.701 0.04622 0.0
H2188 H 0.11585 0.74915 0.99073 0.0
H2189 H 0.08099 0.71864 0.98549 0.0
H2190 H 0.15026 0.65051 0.01339 0.0
H2191 H 0.14341 0.62826 0.03826 0.0
H2192 H 0.15936 0.65688 0.04608 0.0
H2193 H 0.12338 0.66748 0.07916 0.0
H2194 H 0.10747 0.63846 0.07166 0.0
H2195 H 0.08961 0.6674 0.06952 0.0
H2196 H 0.05999 0.67949 0.97474 0.0
H2197 H 0.05233 0.63578 0.9625 0.0
H2198 H 0.10233 0.61094 0.02424 0.0
C2199 C 0.13736 0.70556 0.03381 0.0
C2200 C 0.13766 0.72751 0.01883 0.0
C2201 C 0.11607 0.7328 0.0028 0.0
C2202 C 0.09607 0.71541 0.99959 0.0
C2203 C 0.09767 0.69291 0.01277 0.0
C2204 C 0.11742 0.68814 0.03016 0.0
C2205 C 0.11741 0.66095 0.03825 0.0
C2206 C 0.14418 0.64844 0.03368 0.0
C2207 C 0.10895 0.65844 0.06631 0.0
C2208 C 0.0967 0.65071 0.02046 0.0
C2209 C 0.0849 0.66964 0.00661 0.0
C2210 C 0.06832 0.66462 0.98611 0.0
C2211 C 0.06426 0.63976 0.97912 0.0
C2212 C 0.0766 0.62023 0.99267 0.0
C2213 C 0.09218 0.62569 0.01415 0.0
H2214 H 0.34808 0.19428 0.98105 0.0
H2215 H 0.32458 0.20217 0.06043 0.0
H2216 H 0.36392 0.17869 0.0738 0.0
H2217 H 0.3714 0.13193 0.98592 0.0
H2218 H 0.39795 0.13648 0.96385 0.0
H2219 H 0.36875 0.15502 0.96106 0.0
H2220 H 0.39664 0.19513 0.96399 0.0
H2221 H 0.42585 0.17657 0.96726 0.0
H2222 H 0.41781 0.19968 0.99112 0.0
H2223 H 0.4042 0.15233 0.07822 0.0
H2224 H 0.4407 0.12267 0.07336 0.0
H2225 H 0.43846 0.13281 0.99103 0.0
C2226 C 0.35106 0.19092 0.00126 0.0
C2227 C 0.3332 0.19998 0.01972 0.0
C2228 C 0.33809 0.19554 0.04598 0.0
C2229 C 0.36039 0.18229 0.05374 0.0
C2230 C 0.37768 0.17381 0.03502 0.0
C2231 C 0.37321 0.17784 0.00931 0.0
C2232 C 0.39416 0.1658 0.99294 0.0
C2233 C 0.38236 0.14614 0.97489 0.0
C2234 C 0.40952 0.18548 0.97795 0.0
C2235 C 0.41087 0.15389 0.01344 0.0
C2236 C 0.40117 0.15894 0.03759 0.0
C2237 C 0.41217 0.14851 0.05945 0.0
C2238 C 0.43299 0.13175 0.05647 0.0
C2239 C 0.44274 0.12566 0.03184 0.0
C2240 C 0.43197 0.13753 0.01016 0.0
H2241 H 0.89165 0.32713 0.03485 0.0
H2242 H 0.90857 0.32643 0.95341 0.0
H2243 H 0.93703 0.36264 0.95895 0.0
H2244 H 0.88405 0.39064 0.03975 0.0
H2245 H 0.89861 0.39405 0.07094 0.0
H2246 H 0.88365 0.36506 0.06203 0.0
H2247 H 0.92665 0.34128 0.07178 0.0
H2248 H 0.94155 0.37025 0.08116 0.0
H2249 H 0.95653 0.35108 0.0568 0.0
H2250 H 0.95694 0.40267 0.97125 0.0
H2251 H 0.96991 0.44254 0.99044 0.0
H2252 H 0.94104 0.41826 0.06418 0.0
C2253 C 0.90174 0.33425 0.01825 0.0
C2254 C 0.8979 0.32363 0.99371 0.0
C2255 C 0.91156 0.33365 0.97253 0.0
C2256 C 0.92767 0.35443 0.97543 0.0
C2257 C 0.93008 0.36501 0.99963 0.0
C2258 C 0.91779 0.35514 0.02077 0.0
C2259 C 0.92172 0.3715 0.04414 0.0
C2260 C 0.89545 0.38086 0.05483 0.0
C2261 C 0.93757 0.3577 0.06469 0.0
C2262 C 0.93727 0.39259 0.03256 0.0
C2263 C 0.94204 0.38828 0.0069 0.0
C2264 C 0.95399 0.40593 0.99148 0.0
C2265 C 0.96139 0.42853 0.00259 0.0
C2266 C 0.95716 0.4333 0.02891 0.0
C2267 C 0.94496 0.415 0.04409 0.0
H2268 H 0.71116 0.84936 0.02812 0.0
H2269 H 0.72953 0.85117 0.94709 0.0
H2270 H 0.68621 0.86995 0.93841 0.0
H2271 H 0.64249 0.83601 0.02244 0.0
H2272 H 0.6336 0.85609 0.04876 0.0
H2273 H 0.66515 0.84112 0.04828 0.0
H2274 H 0.68784 0.88401 0.05274 0.0
H2275 H 0.65639 0.89897 0.05379 0.0
H2276 H 0.68008 0.90842 0.03033 0.0
H2277 H 0.64131 0.89049 0.93916 0.0
H2278 H 0.60172 0.91493 0.9496 0.0
H2279 H 0.61401 0.89984 0.03026 0.0
C2280 C 0.70634 0.85392 0.00851 0.0
C2281 C 0.72392 0.84887 0.98829 0.0
C2282 C 0.71637 0.85466 0.9629 0.0
C2283 C 0.69178 0.86529 0.95778 0.0
C2284 C 0.67494 0.86988 0.97825 0.0
C2285 C 0.68207 0.86455 0.00312 0.0
C2286 C 0.66131 0.87263 0.02197 0.0
C2287 C 0.64997 0.85011 0.03619 0.0
C2288 C 0.67204 0.89217 0.0408 0.0
C2289 C 0.64151 0.88388 0.0039 0.0
C2290 C 0.64943 0.88178 0.97871 0.0
C2291 C 0.63485 0.89207 0.9588 0.0
C2292 C 0.61226 0.9058 0.96493 0.0
C2293 C 0.60472 0.90937 0.99078 0.0
C2294 C 0.61907 0.89736 0.0103 0.0
H2295 H 0.91239 0.71082 0.9952 0.0
H2296 H 0.84068 0.67785 0.96655 0.0
H2297 H 0.86392 0.63866 0.95899 0.0
H2298 H 0.96022 0.67394 0.95863 0.0
H2299 H 0.98148 0.6694 0.98574 0.0
H2300 H 0.96226 0.69753 0.98302 0.0
H2301 H 0.94087 0.69039 0.02691 0.0
H2302 H 0.96084 0.66311 0.03091 0.0
H2303 H 0.92588 0.66082 0.03365 0.0
H2304 H 0.89221 0.60063 0.96162 0.0
H2305 H 0.9208 0.56746 0.97919 0.0
H2306 H 0.97192 0.62362 0.01066 0.0
C2307 C 0.90134 0.69562 0.98712 0.0
C2308 C 0.87442 0.6981 0.98141 0.0
C2309 C 0.86137 0.67731 0.97047 0.0
C2310 C 0.87445 0.65464 0.96617 0.0
C2311 C 0.90058 0.65266 0.97316 0.0
C2312 C 0.91378 0.67259 0.9837 0.0
C2313 C 0.94004 0.6646 0.99419 0.0
C2314 C 0.96234 0.67709 0.97951 0.0
C2315 C 0.94199 0.67003 0.02311 0.0
C2316 C 0.93911 0.63688 0.98879 0.0
C2317 C 0.91659 0.63041 0.97587 0.0
C2318 C 0.91018 0.60551 0.97122 0.0
C2319 C 0.92656 0.58676 0.98109 0.0
C2320 C 0.94863 0.59318 0.99579 0.0
C2321 C 0.95542 0.61843 0.99887 0.0
H2322 H 0.30808 0.8711 0.96318 0.0
H2323 H 0.26204 0.88845 0.03069 0.0
H2324 H 0.29118 0.92384 0.04013 0.0
H2325 H 0.36844 0.88276 0.98917 0.0
H2326 H 0.3823 0.89637 0.96081 0.0
H2327 H 0.35632 0.87417 0.95802 0.0
H2328 H 0.32877 0.90612 0.9322 0.0
H2329 H 0.35502 0.92817 0.93471 0.0
H2330 H 0.32274 0.93667 0.94543 0.0
H2331 H 0.32844 0.95406 0.04484 0.0
H2332 H 0.37003 0.97701 0.04379 0.0
H2333 H 0.38981 0.94141 0.97181 0.0
C2334 C 0.30348 0.88276 0.97951 0.0
C2335 C 0.28258 0.87695 0.9961 0.0
C2336 C 0.27802 0.8923 0.01778 0.0
C2337 C 0.29433 0.9126 0.02318 0.0
C2338 C 0.31491 0.91753 0.00654 0.0
C2339 C 0.31934 0.90317 0.985 0.0
C2340 C 0.34375 0.91124 0.97107 0.0
C2341 C 0.36388 0.88987 0.96971 0.0
C2342 C 0.33716 0.92115 0.94427 0.0
C2343 C 0.35284 0.93196 0.98854 0.0
C2344 C 0.33588 0.93544 0.00882 0.0
C2345 C 0.34148 0.95194 0.02869 0.0
C2346 C 0.36513 0.96494 0.02794 0.0
C2347 C 0.38279 0.96156 0.00737 0.0
C2348 C 0.37629 0.94508 0.9873 0.0
H2349 H 0.74026 0.18495 0.02103 0.0
H2350 H 0.78001 0.14016 0.96389 0.0
H2351 H 0.7499 0.10529 0.97246 0.0
H2352 H 0.72096 0.13177 0.0652 0.0
H2353 H 0.68994 0.14643 0.07165 0.0
H2354 H 0.71827 0.16529 0.06557 0.0
H2355 H 0.69339 0.18782 0.02905 0.0
H2356 H 0.6652 0.16898 0.03487 0.0
H2357 H 0.67956 0.16964 0.00341 0.0
H2358 H 0.71168 0.07788 0.98263 0.0
H2359 H 0.66756 0.06159 0.99185 0.0
H2360 H 0.65195 0.12538 0.0404 0.0
C2361 C 0.74335 0.16738 0.0112 0.0
C2362 C 0.76268 0.16502 0.99213 0.0
C2363 C 0.76545 0.14218 0.97877 0.0
C2364 C 0.74854 0.12227 0.98362 0.0
C2365 C 0.72902 0.1255 0.00193 0.0
C2366 C 0.72646 0.14748 0.01563 0.0
C2367 C 0.70173 0.1477 0.03145 0.0
C2368 C 0.70812 0.1478 0.06017 0.0
C2369 C 0.68393 0.16983 0.02424 0.0
C2370 C 0.69003 0.12309 0.02339 0.0
C2371 C 0.70638 0.11018 0.00696 0.0
C2372 C 0.69887 0.08776 0.99567 0.0
C2373 C 0.67374 0.07877 0.00071 0.0
C2374 C 0.65621 0.0925 0.01619 0.0
C2375 C 0.66491 0.11443 0.02843 0.0
H2376 H 0.50979 0.65031 0.79992 0.0
H2377 H 0.56609 0.70336 0.82872 0.0
H2378 H 0.57637 0.67511 0.86452 0.0
H2379 H 0.48227 0.63686 0.85524 0.0
H2380 H 0.47702 0.60403 0.85005 0.0
H2381 H 0.47941 0.62462 0.82321 0.0
H2382 H 0.51651 0.59756 0.80468 0.0
H2383 H 0.51529 0.57684 0.83175 0.0
H2384 H 0.54546 0.59173 0.82327 0.0
H2385 H 0.57181 0.64733 0.90231 0.0
H2386 H 0.55503 0.62081 0.93715 0.0
H2387 H 0.50301 0.58456 0.88349 0.0
C2388 C 0.52507 0.65544 0.8132 0.0
C2389 C 0.53725 0.67892 0.81149 0.0
C2390 C 0.55687 0.68526 0.82938 0.0
C2391 C 0.56277 0.66933 0.84985 0.0
C2392 C 0.54927 0.64692 0.85186 0.0
C2393 C 0.53123 0.63968 0.83364 0.0
C2394 C 0.51692 0.61641 0.84185 0.0
C2395 C 0.48717 0.62077 0.84265 0.0
C2396 C 0.52397 0.59432 0.82436 0.0
C2397 C 0.52813 0.6129 0.86838 0.0
C2398 C 0.54716 0.63035 0.87365 0.0
C2399 C 0.55754 0.63309 0.89817 0.0
C2400 C 0.54777 0.6181 0.91789 0.0
C2401 C 0.52783 0.60062 0.91294 0.0
C2402 C 0.51867 0.59741 0.8877 0.0
H2403 H 0.42067 0.52025 0.81223 0.0
H2404 H 0.35709 0.56349 0.84481 0.0
H2405 H 0.38216 0.56835 0.88485 0.0
H2406 H 0.43337 0.48511 0.86445 0.0
H2407 H 0.46837 0.4841 0.86112 0.0
H2408 H 0.44821 0.48866 0.83341 0.0
H2409 H 0.47285 0.52949 0.82294 0.0
H2410 H 0.49323 0.52503 0.8507 0.0
H2411 H 0.47507 0.55363 0.84686 0.0
H2412 H 0.41123 0.56281 0.92361 0.0
H2413 H 0.44136 0.5473 0.95704 0.0
H2414 H 0.48506 0.50664 0.89925 0.0
C2415 C 0.41226 0.53125 0.82756 0.0
C2416 C 0.38691 0.54154 0.8253 0.0
C2417 C 0.37662 0.55579 0.84586 0.0
C2418 C 0.39071 0.55857 0.86875 0.0
C2419 C 0.4152 0.54726 0.87071 0.0
C2420 C 0.42601 0.53413 0.8505 0.0
C2421 C 0.45138 0.52162 0.85818 0.0
C2422 C 0.45024 0.4932 0.85406 0.0
C2423 C 0.47451 0.53312 0.84381 0.0
C2424 C 0.45224 0.5283 0.88629 0.0
C2425 C 0.43165 0.54369 0.89307 0.0
C2426 C 0.42763 0.55108 0.9184 0.0
C2427 C 0.44481 0.54213 0.93728 0.0
C2428 C 0.46549 0.52568 0.93076 0.0
C2429 C 0.46944 0.51919 0.90484 0.0
H2430 H 0.50319 0.36474 0.8069 0.0
H2431 H 0.46485 0.30655 0.85023 0.0
H2432 H 0.46565 0.33318 0.88856 0.0
H2433 H 0.54734 0.38055 0.85298 0.0
H2434 H 0.54723 0.41365 0.84721 0.0
H2435 H 0.53901 0.39247 0.8218 0.0
H2436 H 0.49475 0.41518 0.81539 0.0
H2437 H 0.50294 0.43663 0.84072 0.0
H2438 H 0.47304 0.4192 0.84222 0.0
H2439 H 0.47731 0.36252 0.92371 0.0
H2440 H 0.49713 0.39344 0.95258 0.0
H2441 H 0.52794 0.43308 0.88702 0.0
C2442 C 0.49441 0.35781 0.82429 0.0
C2443 C 0.48378 0.33352 0.82535 0.0
C2444 C 0.47257 0.32522 0.8486 0.0
C2445 C 0.47308 0.34019 0.87061 0.0
C2446 C 0.48464 0.36356 0.86913 0.0
C2447 C 0.49478 0.37252 0.84649 0.0
C2448 C 0.50827 0.39731 0.85062 0.0
C2449 C 0.53717 0.39589 0.84269 0.0
C2450 C 0.49389 0.41832 0.83639 0.0
C2451 C 0.50534 0.40018 0.87933 0.0
C2452 C 0.49127 0.38071 0.88956 0.0
C2453 C 0.48783 0.37816 0.91586 0.0
C2454 C 0.49921 0.39585 0.93213 0.0
C2455 C 0.51381 0.41593 0.92212 0.0
C2456 C 0.51655 0.4182 0.8953 0.0
H2457 H 0.65069 0.55165 0.82803 0.0
H2458 H 0.62783 0.47476 0.81535 0.0
H2459 H 0.59382 0.47916 0.84811 0.0
H2460 H 0.64825 0.54908 0.89312 0.0
H2461 H 0.63587 0.5802 0.89829 0.0
H2462 H 0.65437 0.5732 0.86996 0.0
H2463 H 0.61621 0.58927 0.84169 0.0
H2464 H 0.5977 0.59647 0.87012 0.0
H2465 H 0.5841 0.57643 0.84593 0.0
H2466 H 0.56647 0.48963 0.88629 0.0
H2467 H 0.54951 0.50499 0.92762 0.0
H2468 H 0.59173 0.57412 0.91737 0.0
C2469 C 0.63823 0.53586 0.83172 0.0
C2470 C 0.64195 0.51295 0.81869 0.0
C2471 C 0.6251 0.49278 0.82435 0.0
C2472 C 0.6057 0.49503 0.84312 0.0
C2473 C 0.6032 0.51758 0.85614 0.0
C2474 C 0.61892 0.53771 0.85061 0.0
C2475 C 0.61437 0.55884 0.86943 0.0
C2476 C 0.63972 0.56571 0.88354 0.0
C2477 C 0.60239 0.58161 0.85598 0.0
C2478 C 0.59481 0.54688 0.88723 0.0
C2479 C 0.58803 0.52336 0.87882 0.0
C2480 C 0.57137 0.50816 0.89286 0.0
C2481 C 0.56187 0.51703 0.91637 0.0
C2482 C 0.56944 0.54068 0.92582 0.0
C2483 C 0.5856 0.55596 0.91067 0.0
H2484 H 0.46591 0.3642 0.20196 0.0
H2485 H 0.53947 0.37098 0.24277 0.0
H2486 H 0.55543 0.39932 0.20936 0.0
H2487 H 0.48982 0.36443 0.1403 0.0
H2488 H 0.46416 0.38339 0.12685 0.0
H2489 H 0.45781 0.36458 0.15457 0.0
H2490 H 0.4421 0.40362 0.17959 0.0
H2491 H 0.44806 0.42255 0.15181 0.0
H2492 H 0.46309 0.43038 0.18192 0.0
H2493 H 0.56526 0.4225 0.16877 0.0
H2494 H 0.56608 0.4438 0.12701 0.0
H2495 H 0.48451 0.42596 0.1154 0.0
C2496 C 0.48508 0.37214 0.20453 0.0
C2497 C 0.50143 0.36494 0.22513 0.0
C2498 C 0.52667 0.37555 0.227 0.0
C2499 C 0.53588 0.39188 0.20818 0.0
C2500 C 0.51945 0.39797 0.18791 0.0
C2501 C 0.49436 0.38891 0.1863 0.0
C2502 C 0.48068 0.39817 0.16242 0.0
C2503 C 0.47266 0.37634 0.14502 0.0
C2504 C 0.45709 0.41467 0.16936 0.0
C2505 C 0.50226 0.41333 0.15048 0.0
C2506 C 0.52454 0.41281 0.16539 0.0
C2507 C 0.54772 0.42364 0.15729 0.0
C2508 C 0.54804 0.43559 0.1335 0.0
C2509 C 0.52525 0.43691 0.11822 0.0
C2510 C 0.50206 0.42572 0.12695 0.0
H2511 H 0.62223 0.50441 0.21811 0.0
H2512 H 0.68826 0.46269 0.18837 0.0
H2513 H 0.6633 0.45326 0.1492 0.0
H2514 H 0.56873 0.4675 0.18509 0.0
H2515 H 0.55022 0.49542 0.17861 0.0
H2516 H 0.5697 0.49321 0.20726 0.0
H2517 H 0.59447 0.53333 0.1954 0.0
H2518 H 0.57487 0.53634 0.16718 0.0
H2519 H 0.60993 0.53553 0.16452 0.0
H2520 H 0.6358 0.45698 0.1097 0.0
H2521 H 0.60941 0.47447 0.07443 0.0
H2522 H 0.56152 0.51421 0.12918 0.0
C2523 C 0.63115 0.49261 0.20371 0.0
C2524 C 0.6572 0.48427 0.20639 0.0
C2525 C 0.66819 0.46894 0.18704 0.0
C2526 C 0.65413 0.46353 0.16463 0.0
C2527 C 0.62898 0.4733 0.16196 0.0
C2528 C 0.61749 0.48732 0.18119 0.0
C2529 C 0.5922 0.49913 0.17226 0.0
C2530 C 0.56882 0.48816 0.18665 0.0
C2531 C 0.59295 0.52776 0.17498 0.0
C2532 C 0.59217 0.4911 0.1445 0.0
C2533 C 0.61307 0.47554 0.13903 0.0
C2534 C 0.61886 0.4684 0.11394 0.0
C2535 C 0.60359 0.47816 0.09395 0.0
C2536 C 0.58297 0.49498 0.09921 0.0
C2537 C 0.57672 0.50075 0.12481 0.0
H2538 H 0.58555 0.67702 0.19084 0.0
H2539 H 0.50845 0.70366 0.21272 0.0
H2540 H 0.48866 0.67363 0.18314 0.0
H2541 H 0.57191 0.67132 0.12488 0.0
H2542 H 0.59112 0.64348 0.11994 0.0
H2543 H 0.59965 0.66494 0.14507 0.0
H2544 H 0.59708 0.62928 0.17825 0.0
H2545 H 0.58858 0.6077 0.15315 0.0
H2546 H 0.56767 0.61117 0.18065 0.0
H2547 H 0.47689 0.64373 0.14918 0.0
H2548 H 0.4736 0.61539 0.11254 0.0
H2549 H 0.55802 0.608 0.11046 0.0
C2550 C 0.56449 0.67647 0.18959 0.0
C2551 C 0.54866 0.69272 0.20455 0.0
C2552 C 0.52115 0.69114 0.2022 0.0
C2553 C 0.50965 0.67421 0.18522 0.0
C2554 C 0.5258 0.6589 0.17055 0.0
C2555 C 0.55262 0.65974 0.17253 0.0
C2556 C 0.56539 0.64208 0.15337 0.0
C2557 C 0.58305 0.65631 0.13471 0.0
C2558 C 0.58058 0.62132 0.16718 0.0
C2559 C 0.5415 0.63175 0.13988 0.0
C2560 C 0.51893 0.64159 0.15041 0.0
C2561 C 0.4944 0.63574 0.14091 0.0
C2562 C 0.49277 0.61958 0.11998 0.0
C2563 C 0.51552 0.60929 0.10852 0.0
C2564 C 0.54025 0.61535 0.11885 0.0
H2565 H 0.37343 0.54498 0.19989 0.0
H2566 H 0.3884 0.62448 0.19208 0.0
H2567 H 0.41274 0.6161 0.15275 0.0
H2568 H 0.44078 0.52786 0.17966 0.0
H2569 H 0.42983 0.49942 0.16481 0.0
H2570 H 0.41286 0.51174 0.19229 0.0
H2571 H 0.36975 0.51132 0.16642 0.0
H2572 H 0.38668 0.49967 0.13866 0.0
H2573 H 0.36785 0.52806 0.13662 0.0
H2574 H 0.42779 0.59956 0.10994 0.0
H2575 H 0.44669 0.57535 0.07456 0.0
H2576 H 0.43219 0.50691 0.11553 0.0
C2577 C 0.38224 0.56081 0.19065 0.0
C2578 C 0.37747 0.58565 0.19898 0.0
C2579 C 0.38997 0.60537 0.18568 0.0
C2580 C 0.40423 0.60084 0.16329 0.0
C2581 C 0.4071 0.57636 0.15501 0.0
C2582 C 0.39765 0.55659 0.16895 0.0
C2583 C 0.40519 0.53193 0.1567 0.0
C2584 C 0.42325 0.51685 0.17442 0.0
C2585 C 0.38092 0.51687 0.14916 0.0
C2586 C 0.41965 0.54108 0.1333 0.0
C2587 C 0.41987 0.56676 0.13238 0.0
C2588 C 0.4293 0.57948 0.11121 0.0
C2589 C 0.44035 0.56559 0.0912 0.0
C2590 C 0.443 0.53944 0.09285 0.0
C2591 C 0.43158 0.52702 0.11394 0.0
H2592 H 0.82088 0.54214 0.68439 0.0
H2593 H 0.84839 0.48008 0.73004 0.0
H2594 H 0.89261 0.48503 0.7123 0.0
H2595 H 0.85337 0.52605 0.62982 0.0
H2596 H 0.86151 0.55712 0.61962 0.0
H2597 H 0.8336 0.55225 0.6397 0.0
H2598 H 0.85218 0.58365 0.67268 0.0
H2599 H 0.88039 0.58838 0.65268 0.0
H2600 H 0.88448 0.57885 0.68547 0.0
H2601 H 0.93068 0.49098 0.6845 0.0
H2602 H 0.95988 0.4972 0.64753 0.0
H2603 H 0.90959 0.55644 0.62012 0.0
C2604 C 0.83652 0.53022 0.69116 0.0
C2605 C 0.83144 0.51082 0.70861 0.0
C2606 C 0.85205 0.49505 0.71666 0.0
C2607 C 0.87724 0.49785 0.70686 0.0
C2608 C 0.88162 0.51667 0.68912 0.0
C2609 C 0.86192 0.53273 0.68139 0.0
C2610 C 0.87114 0.54923 0.65969 0.0
C2611 C 0.85389 0.54594 0.6358 0.0
C2612 C 0.8721 0.57666 0.66815 0.0
C2613 C 0.89842 0.53887 0.65548 0.0
C2614 C 0.90425 0.52048 0.67308 0.0
C2615 C 0.92677 0.50588 0.67111 0.0
C2616 C 0.94329 0.50954 0.65013 0.0
C2617 C 0.93732 0.52777 0.63156 0.0
C2618 C 0.91511 0.54317 0.63475 0.0
H2619 H 0.52883 0.85644 0.68675 0.0
H2620 H 0.50175 0.8003 0.63322 0.0
H2621 H 0.50454 0.83098 0.59807 0.0
H2622 H 0.49509 0.90853 0.65826 0.0
H2623 H 0.52126 0.92997 0.66454 0.0
H2624 H 0.51626 0.90374 0.68536 0.0
H2625 H 0.56414 0.88942 0.67784 0.0
H2626 H 0.56918 0.91568 0.65712 0.0
H2627 H 0.57559 0.88455 0.6456 0.0
H2628 H 0.51017 0.86842 0.56877 0.0
H2629 H 0.52141 0.90817 0.54754 0.0
H2630 H 0.54612 0.93858 0.62055 0.0
C2631 C 0.52385 0.85041 0.66759 0.0
C2632 C 0.51522 0.82589 0.66273 0.0
C2633 C 0.50828 0.81902 0.63743 0.0
C2634 C 0.5098 0.83631 0.61736 0.0
C2635 C 0.51822 0.86039 0.62293 0.0
C2636 C 0.52524 0.86736 0.64743 0.0
C2637 C 0.53404 0.89419 0.64845 0.0
C2638 C 0.51556 0.91003 0.66514 0.0
C2639 C 0.56242 0.89605 0.65779 0.0
C2640 C 0.53157 0.90109 0.62055 0.0
C2641 C 0.52196 0.88155 0.60614 0.0
C2642 C 0.51781 0.88379 0.57987 0.0
C2643 C 0.52415 0.90643 0.568 0.0
C2644 C 0.53484 0.92631 0.5824 0.0
C2645 C 0.53825 0.9236 0.60902 0.0
H2646 H 0.23221 0.57169 0.66055 0.0
H2647 H 0.27789 0.50981 0.63003 0.0
H2648 H 0.24729 0.50607 0.59444 0.0
H2649 H 0.17304 0.54272 0.65125 0.0
H2650 H 0.15489 0.57051 0.64334 0.0
H2651 H 0.18333 0.57259 0.66334 0.0
H2652 H 0.20397 0.60444 0.63218 0.0
H2653 H 0.17522 0.60269 0.61246 0.0
H2654 H 0.20694 0.59662 0.59876 0.0
H2655 H 0.20892 0.50426 0.5658 0.0
H2656 H 0.16512 0.50435 0.5466 0.0
H2657 H 0.14179 0.56485 0.59703 0.0
C2658 C 0.23616 0.55752 0.64632 0.0
C2659 C 0.25802 0.54129 0.64841 0.0
C2660 C 0.26208 0.52318 0.6289 0.0
C2661 C 0.24455 0.52068 0.60851 0.0
C2662 C 0.22278 0.53625 0.60775 0.0
C2663 C 0.21848 0.55434 0.62611 0.0
C2664 C 0.19189 0.56647 0.62268 0.0
C2665 C 0.17479 0.56284 0.64657 0.0
C2666 C 0.19468 0.59421 0.61611 0.0
C2667 C 0.18158 0.55174 0.60006 0.0
C2668 C 0.19998 0.53474 0.59149 0.0
C2669 C 0.19451 0.51777 0.57206 0.0
C2670 C 0.16949 0.51789 0.56135 0.0
C2671 C 0.15004 0.53471 0.57017 0.0
C2672 C 0.15638 0.55211 0.58953 0.0
H2673 H 0.47237 0.16242 0.68638 0.0
H2674 H 0.47887 0.22193 0.63095 0.0
H2675 H 0.48145 0.19081 0.59613 0.0
H2676 H 0.51852 0.12515 0.66105 0.0
H2677 H 0.50296 0.09569 0.66706 0.0
H2678 H 0.49534 0.12217 0.68679 0.0
H2679 H 0.44625 0.11733 0.67611 0.0
H2680 H 0.45376 0.09065 0.65633 0.0
H2681 H 0.43589 0.11664 0.64316 0.0
H2682 H 0.49137 0.1542 0.56878 0.0
H2683 H 0.50906 0.11491 0.55109 0.0
H2684 H 0.49638 0.07839 0.62368 0.0
C2685 C 0.47308 0.16887 0.66679 0.0
C2686 C 0.47501 0.19459 0.66127 0.0
C2687 C 0.47711 0.20234 0.63552 0.0
C2688 C 0.47851 0.18478 0.61564 0.0
C2689 C 0.4776 0.15951 0.6218 0.0
C2690 C 0.47465 0.15152 0.64673 0.0
C2691 C 0.47769 0.12341 0.64855 0.0
C2692 C 0.49996 0.1162 0.66693 0.0
C2693 C 0.45186 0.11129 0.65651 0.0
C2694 C 0.48439 0.11702 0.62104 0.0
C2695 C 0.48355 0.13808 0.60583 0.0
C2696 C 0.4915 0.13751 0.58034 0.0
C2697 C 0.50142 0.11513 0.57041 0.0
C2698 C 0.50338 0.09367 0.58591 0.0
C2699 C 0.49407 0.09438 0.61128 0.0
H2700 H 0.8199 0.4799 0.36527 0.0
H2701 H 0.77573 0.5461 0.38658 0.0
H2702 H 0.80816 0.55577 0.41956 0.0
H2703 H 0.84462 0.46515 0.43148 0.0
H2704 H 0.87585 0.45522 0.41921 0.0
H2705 H 0.84688 0.4512 0.40014 0.0
H2706 H 0.86906 0.47565 0.36339 0.0
H2707 H 0.89768 0.4801 0.38276 0.0
H2708 H 0.88091 0.50669 0.36945 0.0
H2709 H 0.84781 0.56213 0.44539 0.0
H2710 H 0.89126 0.56296 0.46532 0.0
H2711 H 0.91064 0.4925 0.42871 0.0
C2712 C 0.81675 0.4961 0.37727 0.0
C2713 C 0.79493 0.51201 0.37342 0.0
C2714 C 0.79175 0.53317 0.38946 0.0
C2715 C 0.81024 0.53899 0.40819 0.0
C2716 C 0.83181 0.52339 0.41094 0.0
C2717 C 0.83504 0.50217 0.39625 0.0
C2718 C 0.861 0.4896 0.40207 0.0
C2719 C 0.85682 0.46376 0.41394 0.0
C2720 C 0.87817 0.48793 0.37798 0.0
C2721 C 0.87221 0.50768 0.42151 0.0
C2722 C 0.85489 0.52693 0.4264 0.0
C2723 C 0.86136 0.54691 0.44214 0.0
C2724 C 0.88619 0.54729 0.45324 0.0
C2725 C 0.90433 0.52775 0.44869 0.0
C2726 C 0.89706 0.50752 0.43283 0.0
H2727 H 0.54039 0.86485 0.33844 0.0
H2728 H 0.56274 0.80398 0.38842 0.0
H2729 H 0.55352 0.83057 0.42614 0.0
H2730 H 0.56833 0.91375 0.37629 0.0
H2731 H 0.54255 0.93576 0.36956 0.0
H2732 H 0.55053 0.91182 0.3466 0.0
H2733 H 0.50255 0.8967 0.34702 0.0
H2734 H 0.49442 0.92073 0.36981 0.0
H2735 H 0.48753 0.88861 0.37702 0.0
H2736 H 0.54261 0.86449 0.4585 0.0
H2737 H 0.52839 0.90177 0.48267 0.0
H2738 H 0.5133 0.94033 0.41125 0.0
C2739 C 0.54306 0.85699 0.35732 0.0
C2740 C 0.55216 0.83225 0.36047 0.0
C2741 C 0.5559 0.82289 0.38553 0.0
C2742 C 0.55069 0.83785 0.40706 0.0
C2743 C 0.54203 0.86226 0.40324 0.0
C2744 C 0.53819 0.87172 0.37897 0.0
C2745 C 0.52888 0.89855 0.38 0.0
C2746 C 0.54876 0.91599 0.36736 0.0
C2747 C 0.50173 0.9013 0.36774 0.0
C2748 C 0.5278 0.90268 0.40864 0.0
C2749 C 0.53563 0.8816 0.42175 0.0
C2750 C 0.53628 0.88102 0.4484 0.0
C2751 C 0.52821 0.90235 0.46197 0.0
C2752 C 0.51959 0.924 0.4489 0.0
C2753 C 0.51973 0.92412 0.42186 0.0
H2754 H 0.19227 0.57275 0.33498 0.0
H2755 H 0.23078 0.50095 0.32655 0.0
H2756 H 0.19264 0.48048 0.34627 0.0
H2757 H 0.1663 0.56183 0.39615 0.0
H2758 H 0.13647 0.57881 0.39023 0.0
H2759 H 0.16571 0.58692 0.37329 0.0
H2760 H 0.14104 0.58102 0.33045 0.0
H2761 H 0.11195 0.57204 0.34736 0.0
H2762 H 0.12576 0.55158 0.32351 0.0
H2763 H 0.15173 0.46841 0.36988 0.0
H2764 H 0.11396 0.46617 0.39894 0.0
H2765 H 0.10252 0.54606 0.39178 0.0
C2766 C 0.19284 0.55272 0.33739 0.0
C2767 C 0.21464 0.53847 0.32933 0.0
C2768 C 0.21426 0.51224 0.33242 0.0
C2769 C 0.19265 0.50046 0.34351 0.0
C2770 C 0.17149 0.51514 0.35118 0.0
C2771 C 0.17152 0.54072 0.34837 0.0
C2772 C 0.14727 0.55251 0.35977 0.0
C2773 C 0.15437 0.5711 0.38113 0.0
C2774 C 0.13052 0.56503 0.33902 0.0
C2775 C 0.13396 0.52965 0.3703 0.0
C2776 C 0.14795 0.50821 0.36473 0.0
C2777 C 0.14047 0.48504 0.37409 0.0
C2778 C 0.11889 0.48395 0.39054 0.0
C2779 C 0.10515 0.50593 0.39761 0.0
C2780 C 0.11224 0.52885 0.38644 0.0
H2781 H 0.49056 0.21849 0.39589 0.0
H2782 H 0.537 0.1886 0.33329 0.0
H2783 H 0.54919 0.15279 0.35981 0.0
H2784 H 0.53147 0.19301 0.44981 0.0
H2785 H 0.50295 0.1859 0.46851 0.0
H2786 H 0.50259 0.21213 0.44702 0.0
H2787 H 0.46153 0.19435 0.42465 0.0
H2788 H 0.46186 0.16814 0.44595 0.0
H2789 H 0.46252 0.16313 0.41185 0.0
H2790 H 0.54982 0.11676 0.38915 0.0
H2791 H 0.53842 0.08341 0.41936 0.0
H2792 H 0.49152 0.13518 0.46329 0.0
C2793 C 0.50367 0.20469 0.38785 0.0
C2794 C 0.51295 0.20674 0.36243 0.0
C2795 C 0.53011 0.18809 0.35283 0.0
C2796 C 0.53709 0.16747 0.36776 0.0
C2797 C 0.52685 0.16564 0.39233 0.0
C2798 C 0.5106 0.18379 0.40241 0.0
C2799 C 0.49966 0.17584 0.42806 0.0
C2800 C 0.50978 0.19273 0.44963 0.0
C2801 C 0.46963 0.17533 0.42757 0.0
C2802 C 0.51114 0.14984 0.43009 0.0
C2803 C 0.52732 0.14459 0.40958 0.0
C2804 C 0.53812 0.12098 0.40585 0.0
C2805 C 0.53202 0.10219 0.42337 0.0
C2806 C 0.51549 0.1071 0.44439 0.0
C2807 C 0.50501 0.13126 0.44784 0.0
H2808 H 0.66384 0.84666 0.44211 0.0
H2809 H 0.66697 0.82613 0.52225 0.0
H2810 H 0.63197 0.85668 0.53169 0.0
H2811 H 0.65731 0.90932 0.45104 0.0
H2812 H 0.63524 0.91477 0.42477 0.0
H2813 H 0.65736 0.8887 0.42375 0.0
H2814 H 0.61851 0.8588 0.41685 0.0
H2815 H 0.59605 0.88475 0.41806 0.0
H2816 H 0.59207 0.85878 0.43952 0.0
H2817 H 0.60102 0.89322 0.53313 0.0
H2818 H 0.57729 0.9328 0.5265 0.0
H2819 H 0.59354 0.92836 0.44517 0.0
C2820 C 0.65655 0.8479 0.46151 0.0
C2821 C 0.66802 0.83387 0.48141 0.0
C2822 C 0.65852 0.83675 0.5067 0.0
C2823 C 0.63851 0.8539 0.51221 0.0
C2824 C 0.62806 0.86786 0.49218 0.0
C2825 C 0.63664 0.86489 0.4673 0.0
C2826 C 0.62408 0.88373 0.44961 0.0
C2827 C 0.64473 0.90009 0.43655 0.0
C2828 C 0.60664 0.87074 0.42982 0.0
C2829 C 0.60798 0.89851 0.4686 0.0
C2830 C 0.61015 0.88885 0.493 0.0
C2831 C 0.59878 0.90066 0.51403 0.0
C2832 C 0.58533 0.92317 0.51008 0.0
C2833 C 0.5835 0.93368 0.48532 0.0
C2834 C 0.59442 0.92075 0.46431 0.0
H2835 H 0.65648 0.21121 0.49964 0.0
H2836 H 0.72011 0.17509 0.53997 0.0
H2837 H 0.68989 0.14262 0.55503 0.0
H2838 H 0.60183 0.19203 0.54491 0.0
H2839 H 0.58004 0.18732 0.5183 0.0
H2840 H 0.60466 0.21114 0.51675 0.0
H2841 H 0.62235 0.19178 0.47466 0.0
H2842 H 0.59785 0.16813 0.47609 0.0
H2843 H 0.6318 0.15936 0.47415 0.0
H2844 H 0.65577 0.1093 0.55707 0.0
H2845 H 0.62208 0.07885 0.54476 0.0
H2846 H 0.58026 0.13634 0.50373 0.0
C2847 C 0.66391 0.19687 0.51227 0.0
C2848 C 0.69068 0.19577 0.51864 0.0
C2849 C 0.69962 0.17664 0.53515 0.0
C2850 C 0.68256 0.15805 0.54378 0.0
C2851 C 0.65651 0.15899 0.53603 0.0
C2852 C 0.64718 0.17815 0.52085 0.0
C2853 C 0.6196 0.17314 0.51194 0.0
C2854 C 0.6004 0.19203 0.52369 0.0
C2855 C 0.61783 0.17308 0.48248 0.0
C2856 C 0.6155 0.14738 0.52291 0.0
C2857 C 0.63665 0.13977 0.53742 0.0
C2858 C 0.63869 0.1154 0.5466 0.0
C2859 C 0.61921 0.09821 0.53991 0.0
C2860 C 0.59805 0.10549 0.52424 0.0
C2861 C 0.59582 0.13056 0.51646 0.0
H2862 H 0.84368 0.69055 0.4704 0.0
H2863 H 0.81464 0.70326 0.5474 0.0
H2864 H 0.85139 0.67844 0.56466 0.0
H2865 H 0.8625 0.62678 0.48043 0.0
H2866 H 0.89051 0.62897 0.45976 0.0
H2867 H 0.86242 0.64845 0.45414 0.0
H2868 H 0.89199 0.68749 0.4563 0.0
H2869 H 0.92008 0.66812 0.46252 0.0
H2870 H 0.91159 0.6929 0.48439 0.0
H2871 H 0.8915 0.65164 0.57327 0.0
H2872 H 0.92805 0.62145 0.57213 0.0
H2873 H 0.92942 0.62622 0.48922 0.0
C2874 C 0.84463 0.68783 0.49089 0.0
C2875 C 0.82613 0.6989 0.50751 0.0
C2876 C 0.82868 0.69522 0.53425 0.0
C2877 C 0.8495 0.68116 0.54424 0.0
C2878 C 0.86758 0.6709 0.52725 0.0
C2879 C 0.86509 0.67381 0.50112 0.0
C2880 C 0.88637 0.66009 0.48678 0.0
C2881 C 0.87476 0.63987 0.46926 0.0
C2882 C 0.90352 0.67824 0.47161 0.0
C2883 C 0.90119 0.64879 0.5089 0.0
C2884 C 0.89029 0.65541 0.53213 0.0
C2885 C 0.90018 0.64636 0.55518 0.0
C2886 C 0.92103 0.62929 0.55433 0.0
C2887 C 0.93158 0.62133 0.53058 0.0
C2888 C 0.922 0.63197 0.50772 0.0
H2889 H 0.36706 0.8257 0.54845 0.0
H2890 H 0.36028 0.82202 0.46566 0.0
H2891 H 0.39326 0.85462 0.46156 0.0
H2892 H 0.37103 0.89069 0.55213 0.0
H2893 H 0.39431 0.89159 0.57795 0.0
H2894 H 0.37271 0.86545 0.57478 0.0
H2895 H 0.4124 0.83535 0.57379 0.0
H2896 H 0.43415 0.86145 0.57702 0.0
H2897 H 0.43792 0.84008 0.55061 0.0
H2898 H 0.42295 0.89078 0.46587 0.0
H2899 H 0.4485 0.92757 0.47877 0.0
H2900 H 0.43665 0.90871 0.5586 0.0
C2901 C 0.37278 0.83145 0.52945 0.0
C2902 C 0.36118 0.82075 0.50741 0.0
C2903 C 0.36925 0.82913 0.48292 0.0
C2904 C 0.38792 0.84789 0.48032 0.0
C2905 C 0.39856 0.85826 0.50235 0.0
C2906 C 0.39148 0.85028 0.52646 0.0
C2907 C 0.40473 0.8658 0.54698 0.0
C2908 C 0.38448 0.87917 0.56395 0.0
C2909 C 0.42341 0.84971 0.56305 0.0
C2910 C 0.41964 0.88415 0.53055 0.0
C2911 C 0.41593 0.87931 0.50486 0.0
C2912 C 0.42632 0.89457 0.48593 0.0
C2913 C 0.44072 0.91549 0.49344 0.0
C2914 C 0.44466 0.92095 0.51965 0.0
C2915 C 0.43428 0.90481 0.5384 0.0
H2916 H 0.17786 0.33938 0.55034 0.0
H2917 H 0.25442 0.37308 0.54535 0.0
H2918 H 0.23396 0.41331 0.53371 0.0
H2919 H 0.15075 0.36976 0.49703 0.0
H2920 H 0.11872 0.37358 0.51076 0.0
H2921 H 0.13925 0.34811 0.52074 0.0
H2922 H 0.13489 0.3626 0.56794 0.0
H2923 H 0.11434 0.38813 0.55796 0.0
H2924 H 0.14333 0.39413 0.57641 0.0
H2925 H 0.20533 0.44926 0.5209 0.0
H2926 H 0.17094 0.47757 0.50503 0.0
H2927 H 0.11299 0.4203 0.5182 0.0
C2928 C 0.19028 0.35534 0.54722 0.0
C2929 C 0.21772 0.35317 0.54884 0.0
C2930 C 0.23337 0.37431 0.54404 0.0
C2931 C 0.22192 0.39727 0.53765 0.0
C2932 C 0.19481 0.39875 0.53615 0.0
C2933 C 0.17918 0.37833 0.54072 0.0
C2934 C 0.15067 0.38447 0.53624 0.0
C2935 C 0.13918 0.36801 0.51492 0.0
C2936 C 0.13488 0.3822 0.56113 0.0
C2937 C 0.15275 0.41136 0.52789 0.0
C2938 C 0.17833 0.41936 0.52834 0.0
C2939 C 0.18522 0.44326 0.52062 0.0
C2940 C 0.16551 0.45922 0.51166 0.0
C2941 C 0.13928 0.45115 0.51034 0.0
C2942 C 0.13285 0.42704 0.51903 0.0
H2943 H 0.37123 0.19611 0.56464 0.0
H2944 H 0.34697 0.19827 0.48521 0.0
H2945 H 0.37674 0.16286 0.47567 0.0
H2946 H 0.44048 0.17791 0.55325 0.0
H2947 H 0.43977 0.15912 0.58173 0.0
H2948 H 0.41987 0.1867 0.57981 0.0
H2949 H 0.37996 0.15897 0.59113 0.0
H2950 H 0.40029 0.13159 0.59165 0.0
H2951 H 0.37224 0.13277 0.57087 0.0
H2952 H 0.4066 0.12391 0.47644 0.0
H2953 H 0.43269 0.08637 0.4875 0.0
H2954 H 0.43641 0.11149 0.56632 0.0
C2955 C 0.37279 0.18989 0.54499 0.0
C2956 C 0.35698 0.20028 0.52563 0.0
C2957 C 0.35895 0.19067 0.50039 0.0
C2958 C 0.37587 0.17062 0.49478 0.0
C2959 C 0.39072 0.16045 0.5146 0.0
C2960 C 0.38936 0.17 0.53915 0.0
C2961 C 0.4055 0.1549 0.55766 0.0
C2962 C 0.42774 0.17065 0.56872 0.0
C2963 C 0.38847 0.14391 0.57907 0.0
C2964 C 0.41571 0.13484 0.53996 0.0
C2965 C 0.40733 0.13835 0.5151 0.0
C2966 C 0.41348 0.12122 0.4958 0.0
C2967 C 0.42831 0.09994 0.50223 0.0
C2968 C 0.43654 0.09593 0.52776 0.0
C2969 C 0.43037 0.11389 0.54662 0.0
H2970 H 0.83218 0.34942 0.52349 0.0
H2971 H 0.8277 0.35544 0.44082 0.0
H2972 H 0.85763 0.39118 0.44206 0.0
H2973 H 0.83512 0.4163 0.53625 0.0
H2974 H 0.85773 0.41287 0.56242 0.0
H2975 H 0.83508 0.38829 0.5552 0.0
H2976 H 0.87353 0.35698 0.55113 0.0
H2977 H 0.8963 0.38149 0.55821 0.0
H2978 H 0.89976 0.36351 0.52923 0.0
H2979 H 0.88999 0.42446 0.45176 0.0
H2980 H 0.9205 0.45532 0.46963 0.0
H2981 H 0.9039 0.42841 0.54617 0.0
C2982 C 0.83741 0.35835 0.50568 0.0
C2983 C 0.82739 0.34972 0.48207 0.0
C2984 C 0.83469 0.36197 0.45918 0.0
C2985 C 0.85185 0.38219 0.45965 0.0
C2986 C 0.86153 0.39007 0.48317 0.0
C2987 C 0.85443 0.37873 0.50581 0.0
C2988 C 0.86783 0.39088 0.52846 0.0
C2989 C 0.84774 0.40279 0.54665 0.0
C2990 C 0.8854 0.37209 0.54258 0.0
C2991 C 0.88383 0.41055 0.51495 0.0
C2992 C 0.87992 0.40969 0.48882 0.0
C2993 C 0.89302 0.42554 0.4722 0.0
C2994 C 0.91043 0.4429 0.48255 0.0
C2995 C 0.9146 0.44432 0.50931 0.0
C2996 C 0.90105 0.42788 0.52565 0.0
H2997 H 0.20473 0.65459 0.53282 0.0
H2998 H 0.16264 0.71722 0.50045 0.0
H2999 H 0.12319 0.69129 0.49615 0.0
H3000 H 0.17924 0.60795 0.49415 0.0
H3001 H 0.17625 0.58465 0.51876 0.0
H3002 H 0.20027 0.60877 0.5218 0.0
H3003 H 0.18093 0.62142 0.56572 0.0
H3004 H 0.15692 0.59717 0.56265 0.0
H3005 H 0.1467 0.62886 0.56829 0.0
H3006 H 0.09083 0.65772 0.48975 0.0
H3007 H 0.06652 0.61862 0.48334 0.0
H3008 H 0.12764 0.57747 0.52218 0.0
C3009 C 0.18695 0.66284 0.52543 0.0
C3010 C 0.18641 0.68788 0.5172 0.0
C3011 C 0.16312 0.69813 0.50715 0.0
C3012 C 0.14069 0.68356 0.50465 0.0
C3013 C 0.14176 0.65884 0.51266 0.0
C3014 C 0.16413 0.64857 0.52314 0.0
C3015 C 0.16016 0.62119 0.52922 0.0
C3016 C 0.18016 0.60468 0.51512 0.0
C3017 C 0.16124 0.61691 0.55821 0.0
C3018 C 0.1327 0.61735 0.51907 0.0
C3019 C 0.12238 0.63948 0.50993 0.0
C3020 C 0.09834 0.64044 0.49751 0.0
C3021 C 0.08466 0.61819 0.49399 0.0
C3022 C 0.09487 0.59532 0.50303 0.0
C3023 C 0.11898 0.59492 0.5161 0.0
loop_
_geom_bond_atom_site_label_1
_geom_bond_atom_site_label_2
_geom_bond_distance
_geom_bond_site_symmetry_2
_ccdc_geom_bond_type
P0 O11 1.490 1_455 S
P0 C14 1.812 . S
P0 C20 1.803 . S
P0 C26 1.819 . S
H1 C15 0.941 1_655 S
H2 C16 0.939 . S
H3 C18 0.940 . S
H4 C19 0.940 . S
H5 C21 0.939 1_655 S
H6 C22 0.935 1_655 S
H7 C24 0.940 . S
H8 C25 0.939 . S
H9 C27 0.941 1_655 S
H10 C31 0.939 . S
O11 P0 1.490 1_655 S
H12 C28 0.939 . S
H13 C30 0.940 . S
C14 P0 1.812 . S
C14 C15 1.389 . S
C14 C19 1.391 . S
C15 H1 0.941 1_455 S
C15 C14 1.389 . S
C15 C16 1.397 . S
C16 H2 0.939 . S
C16 C15 1.397 . S
C16 C17 1.378 . S
C17 C16 1.378 . S
C17 C18 1.378 . S
C18 H3 0.940 . S
C18 C17 1.378 . S
C18 C19 1.396 . S
C19 H4 0.940 . S
C19 C14 1.391 . S
C19 C18 1.396 . S
C20 P0 1.803 . S
C20 C21 1.378 . S
C20 C25 1.400 . S
C21 H5 0.939 1_455 S
C21 C20 1.378 . S
C21 C22 1.361 . S
C22 H6 0.935 1_455 S
C22 C21 1.361 . S
C22 C23 1.369 . S
C23 C22 1.369 . S
C23 C24 1.404 . S
C24 H7 0.940 . S
C24 C23 1.404 . S
C24 C25 1.389 . S
C25 H8 0.939 . S
C25 C20 1.400 . S
C25 C24 1.389 . S
C26 P0 1.819 . S
C26 C27 1.391 . S
C26 C31 1.391 . S
C27 H9 0.941 1_455 S
C27 C26 1.391 . S
C27 C28 1.396 . S
C28 H12 0.939 . S
C28 C27 1.396 . S
C28 C29 1.397 . S
C29 C28 1.397 . S
C29 C30 1.385 . S
C30 H13 0.940 . S
C30 C29 1.385 . S
C30 C31 1.388 . S
C31 H10 0.939 . S
C31 C26 1.391 . S
C31 C30 1.388 . S
P32 O43 1.490 1_545 S
P32 C46 1.812 . S
P32 C52 1.803 . S
P32 C58 1.819 . S
H33 C47 0.941 1_565 S
H34 C48 0.939 . S
H35 C50 0.940 . S
H36 C51 0.940 . S
H37 C53 0.939 1_565 S
H38 C54 0.934 1_565 S
H39 C56 0.940 . S
H40 C57 0.939 . S
H41 C59 0.941 1_565 S
H42 C63 0.939 . S
O43 P32 1.490 1_565 S
H44 C60 0.939 . S
H45 C62 0.940 . S
C46 P32 1.812 . S
C46 C47 1.389 . S
C46 C51 1.391 . S
C47 H33 0.941 1_545 S
C47 C46 1.389 . S
C47 C48 1.397 . S
C48 H34 0.939 . S
C48 C47 1.397 . S
C48 C49 1.378 . S
C49 C48 1.378 . S
C49 C50 1.378 . S
C50 H35 0.940 . S
C50 C49 1.378 . S
C50 C51 1.396 . S
C51 H36 0.940 . S
C51 C46 1.391 . S
C51 C50 1.396 . S
C52 P32 1.803 . S
C52 C53 1.378 . S
C52 C57 1.400 . S
C53 H37 0.939 1_545 S
C53 C52 1.378 . S
C53 C54 1.361 . S
C54 H38 0.934 1_545 S
C54 C53 1.361 . S
C54 C55 1.369 . S
C55 C54 1.369 . S
C55 C56 1.404 . S
C56 H39 0.940 . S
C56 C55 1.404 . S
C56 C57 1.389 . S
C57 H40 0.939 . S
C57 C52 1.400 . S
C57 C56 1.389 . S
C58 P32 1.819 . S
C58 C59 1.391 . S
C58 C63 1.391 . S
C59 H41 0.941 1_545 S
C59 C58 1.391 . S
C59 C60 1.396 . S
C60 H44 0.939 . S
C60 C59 1.396 . S
C60 C61 1.397 . S
C61 C60 1.397 . S
C61 C62 1.385 . S
C62 H45 0.940 . S
C62 C61 1.385 . S
C62 C63 1.388 . S
C63 H42 0.939 . S
C63 C58 1.391 . S
C63 C62 1.388 . S
P64 O75 1.490 . S
P64 C78 1.812 . S
P64 C84 1.803 . S
P64 C90 1.819 . S
H65 C79 0.941 . S
H66 C80 0.939 . S
H67 C82 0.940 1_655 S
H68 C83 0.940 . S
H69 C85 0.939 . S
H70 C86 0.942 . S
H71 C88 0.940 1_655 S
H72 C89 0.939 . S
H73 C91 0.941 . S
H74 C95 0.939 . S
O75 P64 1.490 . S
H76 C92 0.939 . S
H77 C94 0.940 . S
C78 P64 1.812 . S
C78 C79 1.389 . S
C78 C83 1.391 . S
C79 H65 0.941 . S
C79 C78 1.389 . S
C79 C80 1.397 . S
C80 H66 0.939 . S
C80 C79 1.397 . S
C80 C81 1.378 . S
C81 C80 1.378 . S
C81 C82 1.378 . S
C82 H67 0.940 1_455 S
C82 C81 1.378 . S
C82 C83 1.396 . S
C83 H68 0.940 . S
C83 C78 1.391 . S
C83 C82 1.396 . S
C84 P64 1.803 . S
C84 C85 1.378 . S
C84 C89 1.400 . S
C85 H69 0.939 . S
C85 C84 1.378 . S
C85 C86 1.361 . S
C86 H70 0.942 . S
C86 C85 1.361 . S
C86 C87 1.369 . S
C87 C86 1.369 . S
C87 C88 1.404 . S
C88 H71 0.940 1_455 S
C88 C87 1.404 . S
C88 C89 1.389 . S
C89 H72 0.939 . S
C89 C84 1.400 . S
C89 C88 1.389 . S
C90 P64 1.819 . S
C90 C91 1.391 . S
C90 C95 1.391 . S
C91 H73 0.941 . S
C91 C90 1.391 . S
C91 C92 1.396 . S
C92 H76 0.939 . S
C92 C91 1.396 . S
C92 C93 1.397 . S
C93 C92 1.397 . S
C93 C94 1.385 . S
C94 H77 0.940 . S
C94 C93 1.385 . S
C94 C95 1.388 . S
C95 H74 0.939 . S
C95 C90 1.391 . S
C95 C94 1.388 . S
P96 O107 1.490 . S
P96 C110 1.812 . S
P96 C116 1.803 . S
P96 C122 1.819 . S
H97 C111 0.941 . S
H98 C112 0.939 . S
H99 C114 0.940 . S
H100 C115 0.940 . S
H101 C117 0.939 . S
H102 C118 0.942 . S
H103 C120 0.940 . S
H104 C121 0.939 . S
H105 C123 0.941 . S
H106 C127 0.939 1_545 S
O107 P96 1.490 . S
H108 C124 0.939 . S
H109 C126 0.940 . S
C110 P96 1.812 . S
C110 C111 1.389 . S
C110 C115 1.391 1_565 S
C111 H97 0.941 . S
C111 C110 1.389 . S
C111 C112 1.397 . S
C112 H98 0.939 . S
C112 C111 1.397 . S
C112 C113 1.378 . S
C113 C112 1.378 . S
C113 C114 1.378 1_565 S
C114 H99 0.940 . S
C114 C113 1.378 1_545 S
C114 C115 1.396 . S
C115 H100 0.940 . S
C115 C110 1.391 1_545 S
C115 C114 1.396 . S
C116 P96 1.803 . S
C116 C117 1.378 . S
C116 C121 1.400 1_565 S
C117 H101 0.939 . S
C117 C116 1.378 . S
C117 C118 1.361 . S
C118 H102 0.942 . S
C118 C117 1.361 . S
C118 C119 1.369 . S
C119 C118 1.369 . S
C119 C120 1.404 1_565 S
C120 H103 0.940 . S
C120 C119 1.404 1_545 S
C120 C121 1.389 . S
C121 H104 0.939 . S
C121 C116 1.400 1_545 S
C121 C120 1.389 . S
C122 P96 1.819 . S
C122 C123 1.391 . S
C122 C127 1.391 . S
C123 H105 0.941 . S
C123 C122 1.391 . S
C123 C124 1.396 . S
C124 H108 0.939 . S
C124 C123 1.396 . S
C124 C125 1.397 . S
C125 C124 1.397 . S
C125 C126 1.385 1_565 S
C126 H109 0.940 . S
C126 C125 1.385 1_545 S
C126 C127 1.388 1_545 S
C127 H106 0.939 1_565 S
C127 C122 1.391 . S
C127 C126 1.388 1_565 S
P128 O139 1.490 . S
P128 C142 1.812 . S
P128 C148 1.803 . S
P128 C154 1.819 . S
H129 C143 0.941 . S
H130 C144 0.939 . S
H131 C146 0.940 . S
H132 C147 0.951 . S
H133 C149 0.939 . S
H134 C150 0.942 . S
H135 C152 0.940 . S
H136 C153 0.965 . S
H137 C155 0.941 . S
H138 C159 0.925 1_455 S
O139 P128 1.490 . S
H140 C156 0.939 . S
H141 C158 0.940 . S
C142 P128 1.812 . S
C142 C143 1.389 . S
C142 C147 1.373 1_655 S
C143 H129 0.941 . S
C143 C142 1.389 . S
C143 C144 1.397 . S
C144 H130 0.939 . S
C144 C143 1.397 . S
C144 C145 1.378 . S
C145 C144 1.378 . S
C145 C146 1.378 1_655 S
C146 H131 0.940 . S
C146 C145 1.378 1_455 S
C146 C147 1.403 . S
C147 H132 0.951 . S
C147 C142 1.373 1_455 S
C147 C146 1.403 . S
C148 P128 1.803 . S
C148 C149 1.378 . S
C148 C153 1.359 1_655 S
C149 H133 0.939 . S
C149 C148 1.378 . S
C149 C150 1.361 . S
C150 H134 0.942 . S
C150 C149 1.361 . S
C150 C151 1.369 . S
C151 C150 1.369 . S
C151 C152 1.404 1_655 S
C152 H135 0.940 . S
C152 C151 1.404 1_455 S
C152 C153 1.406 . S
C153 H136 0.965 . S
C153 C148 1.359 1_455 S
C153 C152 1.406 . S
C154 P128 1.819 . S
C154 C155 1.391 . S
C154 C159 1.391 . S
C155 H137 0.941 . S
C155 C154 1.391 . S
C155 C156 1.396 . S
C156 H140 0.939 . S
C156 C155 1.396 . S
C156 C157 1.397 . S
C157 C156 1.397 . S
C157 C158 1.385 1_655 S
C158 H141 0.940 . S
C158 C157 1.385 1_455 S
C158 C159 1.388 1_455 S
C159 H138 0.925 1_655 S
C159 C154 1.391 . S
C159 C158 1.388 1_655 S
P160 O171 1.490 . S
P160 C174 1.812 . S
P160 C180 1.803 . S
P160 C186 1.819 . S
H161 C175 0.941 . S
H162 C176 0.939 . S
H163 C178 0.940 . S
H164 C179 0.940 . S
H165 C181 0.939 . S
H166 C182 0.942 . S
H167 C184 0.940 . S
H168 C185 0.939 . S
H169 C187 0.941 . S
H170 C191 0.939 . S
O171 P160 1.490 . S
H172 C188 0.939 . S
H173 C190 0.940 . S
C174 P160 1.812 . S
C174 C175 1.389 . S
C174 C179 1.391 1_565 S
C175 H161 0.941 . S
C175 C174 1.389 . S
C175 C176 1.397 . S
C176 H162 0.939 . S
C176 C175 1.397 . S
C176 C177 1.378 1_565 S
C177 C176 1.378 1_545 S
C177 C178 1.378 . S
C178 H163 0.940 . S
C178 C177 1.378 . S
C178 C179 1.396 . S
C179 H164 0.940 . S
C179 C174 1.391 1_545 S
C179 C178 1.396 . S
C180 P160 1.803 . S
C180 C181 1.378 . S
C180 C185 1.400 1_565 S
C181 H165 0.939 . S
C181 C180 1.378 . S
C181 C182 1.361 . S
C182 H166 0.942 . S
C182 C181 1.361 . S
C182 C183 1.369 1_565 S
C183 C182 1.369 1_545 S
C183 C184 1.404 . S
C184 H167 0.940 . S
C184 C183 1.404 . S
C184 C185 1.389 . S
C185 H168 0.939 . S
C185 C180 1.400 1_545 S
C185 C184 1.389 . S
C186 P160 1.819 . S
C186 C187 1.391 . S
C186 C191 1.391 1_565 S
C187 H169 0.941 . S
C187 C186 1.391 . S
C187 C188 1.396 . S
C188 H172 0.939 . S
C188 C187 1.396 . S
C188 C189 1.397 1_565 S
C189 C188 1.397 1_545 S
C189 C190 1.385 . S
C190 H173 0.940 . S
C190 C189 1.385 . S
C190 C191 1.388 . S
C191 H170 0.939 . S
C191 C186 1.391 1_545 S
C191 C190 1.388 . S
P192 O203 1.490 . S
P192 C206 1.812 . S
P192 C212 1.803 . S
P192 C218 1.819 . S
H193 C207 0.941 . S
H194 C208 0.939 . S
H195 C210 0.940 1_655 S
H196 C211 0.940 . S
H197 C213 0.939 . S
H198 C214 0.942 . S
H199 C216 0.940 1_655 S
H200 C217 0.939 . S
H201 C219 0.941 . S
H202 C223 0.939 . S
O203 P192 1.490 . S
H204 C220 0.939 . S
H205 C222 0.940 . S
C206 P192 1.812 . S
C206 C207 1.389 . S
C206 C211 1.391 . S
C207 H193 0.941 . S
C207 C206 1.389 . S
C207 C208 1.397 . S
C208 H194 0.939 . S
C208 C207 1.397 . S
C208 C209 1.378 . S
C209 C208 1.378 . S
C209 C210 1.378 . S
C210 H195 0.940 1_455 S
C210 C209 1.378 . S
C210 C211 1.396 . S
C211 H196 0.940 . S
C211 C206 1.391 . S
C211 C210 1.396 . S
C212 P192 1.803 . S
C212 C213 1.378 . S
C212 C217 1.400 . S
C213 H197 0.939 . S
C213 C212 1.378 . S
C213 C214 1.361 . S
C214 H198 0.942 . S
C214 C213 1.361 . S
C214 C215 1.369 . S
C215 C214 1.369 . S
C215 C216 1.404 . S
C216 H199 0.940 1_455 S
C216 C215 1.404 . S
C216 C217 1.389 . S
C217 H200 0.939 . S
C217 C212 1.400 . S
C217 C216 1.389 . S
C218 P192 1.819 . S
C218 C219 1.391 . S
C218 C223 1.391 . S
C219 H201 0.941 . S
C219 C218 1.391 . S
C219 C220 1.396 . S
C220 H204 0.939 . S
C220 C219 1.396 . S
C220 C221 1.397 . S
C221 C220 1.397 . S
C221 C222 1.385 . S
C222 H205 0.940 . S
C222 C221 1.385 . S
C222 C223 1.388 . S
C223 H202 0.939 . S
C223 C218 1.391 . S
C223 C222 1.388 . S
P224 O235 1.490 . S
P224 C238 1.812 . S
P224 C244 1.803 . S
P224 C250 1.819 . S
H225 C239 0.941 . S
H226 C240 0.939 . S
H227 C242 0.940 . S
H228 C243 0.940 . S
H229 C245 0.939 . S
H230 C246 0.942 . S
H231 C248 0.940 . S
H232 C249 0.939 . S
H233 C251 0.941 . S
H234 C255 0.939 . S
O235 P224 1.490 . S
H236 C252 0.939 . S
H237 C254 0.940 . S
C238 P224 1.812 . S
C238 C239 1.389 . S
C238 C243 1.391 . S
C239 H225 0.941 . S
C239 C238 1.389 . S
C239 C240 1.397 . S
C240 H226 0.939 . S
C240 C239 1.397 . S
C240 C241 1.378 . S
C241 C240 1.378 . S
C241 C242 1.378 . S
C242 H227 0.940 . S
C242 C241 1.378 . S
C242 C243 1.396 . S
C243 H228 0.940 . S
C243 C238 1.391 . S
C243 C242 1.396 . S
C244 P224 1.803 . S
C244 C245 1.378 . S
C244 C249 1.400 . S
C245 H229 0.939 . S
C245 C244 1.378 . S
C245 C246 1.361 . S
C246 H230 0.942 . S
C246 C245 1.361 . S
C246 C247 1.369 . S
C247 C246 1.369 . S
C247 C248 1.404 . S
C248 H231 0.940 . S
C248 C247 1.404 . S
C248 C249 1.389 . S
C249 H232 0.939 . S
C249 C244 1.400 . S
C249 C248 1.389 . S
C250 P224 1.819 . S
C250 C251 1.391 . S
C250 C255 1.391 . S
C251 H233 0.941 . S
C251 C250 1.391 . S
C251 C252 1.396 . S
C252 H236 0.939 . S
C252 C251 1.396 . S
C252 C253 1.397 . S
C253 C252 1.397 . S
C253 C254 1.385 . S
C254 H237 0.940 . S
C254 C253 1.385 . S
C254 C255 1.388 . S
C255 H234 0.939 . S
C255 C250 1.391 . S
C255 C254 1.388 . S
P256 O267 1.490 . S
P256 C270 1.812 . S
P256 C276 1.803 . S
P256 C282 1.819 . S
H257 C271 0.941 . S
H258 C272 0.939 . S
H259 C274 0.940 . S
H260 C275 0.940 . S
H261 C277 0.939 . S
H262 C278 0.942 . S
H263 C280 0.940 . S
H264 C281 0.939 . S
H265 C283 0.941 . S
H266 C287 0.939 . S
O267 P256 1.490 . S
H268 C284 0.939 . S
H269 C286 0.940 . S
C270 P256 1.812 . S
C270 C271 1.389 . S
C270 C275 1.391 1_556 S
C271 H257 0.941 . S
C271 C270 1.389 . S
C271 C272 1.397 . S
C272 H258 0.939 . S
C272 C271 1.397 . S
C272 C273 1.378 1_556 S
C273 C272 1.378 1_554 S
C273 C274 1.378 . S
C274 H259 0.940 . S
C274 C273 1.378 . S
C274 C275 1.396 . S
C275 H260 0.940 . S
C275 C270 1.391 1_554 S
C275 C274 1.396 . S
C276 P256 1.803 . S
C276 C277 1.378 . S
C276 C281 1.400 1_556 S
C277 H261 0.939 . S
C277 C276 1.378 . S
C277 C278 1.361 . S
C278 H262 0.942 . S
C278 C277 1.361 . S
C278 C279 1.369 1_556 S
C279 C278 1.369 1_554 S
C279 C280 1.404 . S
C280 H263 0.940 . S
C280 C279 1.404 . S
C280 C281 1.389 . S
C281 H264 0.939 . S
C281 C276 1.400 1_554 S
C281 C280 1.389 . S
C282 P256 1.819 . S
C282 C283 1.391 . S
C282 C287 1.391 1_556 S
C283 H265 0.941 . S
C283 C282 1.391 . S
C283 C284 1.396 . S
C284 H268 0.939 . S
C284 C283 1.396 . S
C284 C285 1.397 1_556 S
C285 C284 1.397 1_554 S
C285 C286 1.385 . S
C286 H269 0.940 . S
C286 C285 1.385 . S
C286 C287 1.388 . S
C287 H266 0.939 . S
C287 C282 1.391 1_554 S
C287 C286 1.388 . S
P288 O299 1.490 . S
P288 C302 1.812 . S
P288 C308 1.803 . S
P288 C314 1.819 . S
H289 C303 0.941 . S
H290 C304 0.939 . S
H291 C306 0.940 . S
H292 C307 0.940 . S
H293 C309 0.939 . S
H294 C310 0.942 . S
H295 C312 0.940 . S
H296 C313 0.939 . S
H297 C315 0.941 . S
H298 C319 0.939 . S
O299 P288 1.490 . S
H300 C316 0.939 . S
H301 C318 0.940 . S
C302 P288 1.812 . S
C302 C303 1.389 . S
C302 C307 1.391 1_556 S
C303 H289 0.941 . S
C303 C302 1.389 . S
C303 C304 1.397 . S
C304 H290 0.939 . S
C304 C303 1.397 . S
C304 C305 1.378 1_556 S
C305 C304 1.378 1_554 S
C305 C306 1.378 . S
C306 H291 0.940 . S
C306 C305 1.378 . S
C306 C307 1.396 . S
C307 H292 0.940 . S
C307 C302 1.391 1_554 S
C307 C306 1.396 . S
C308 P288 1.803 . S
C308 C309 1.378 . S
C308 C313 1.400 1_556 S
C309 H293 0.939 . S
C309 C308 1.378 . S
C309 C310 1.361 . S
C310 H294 0.942 . S
C310 C309 1.361 . S
C310 C311 1.369 1_556 S
C311 C310 1.369 1_554 S
C311 C312 1.404 . S
C312 H295 0.940 . S
C312 C311 1.404 . S
C312 C313 1.389 . S
C313 H296 0.939 . S
C313 C308 1.400 1_554 S
C313 C312 1.389 . S
C314 P288 1.819 . S
C314 C315 1.391 . S
C314 C319 1.391 1_556 S
C315 H297 0.941 . S
C315 C314 1.391 . S
C315 C316 1.396 . S
C316 H300 0.939 . S
C316 C315 1.396 . S
C316 C317 1.397 1_556 S
C317 C316 1.397 1_554 S
C317 C318 1.385 . S
C318 H301 0.940 . S
C318 C317 1.385 . S
C318 C319 1.388 . S
C319 H298 0.939 . S
C319 C314 1.391 1_554 S
C319 C318 1.388 . S
P320 O331 1.490 . S
P320 C334 1.812 . S
P320 C340 1.803 . S
P320 C346 1.819 . S
H321 C335 0.941 . S
H322 C336 0.939 . S
H323 C338 0.940 . S
H324 C339 0.940 . S
H325 C341 0.939 . S
H326 C342 0.942 . S
H327 C344 0.940 . S
H328 C345 0.939 . S
H329 C347 0.941 . S
H330 C351 0.939 1_554 S
O331 P320 1.490 . S
H332 C348 0.939 . S
H333 C350 0.940 . S
C334 P320 1.812 . S
C334 C335 1.389 . S
C334 C339 1.391 1_556 S
C335 H321 0.941 . S
C335 C334 1.389 . S
C335 C336 1.397 . S
C336 H322 0.939 . S
C336 C335 1.397 . S
C336 C337 1.378 . S
C337 C336 1.378 . S
C337 C338 1.378 1_556 S
C338 H323 0.940 . S
C338 C337 1.378 1_554 S
C338 C339 1.396 . S
C339 H324 0.940 . S
C339 C334 1.391 1_554 S
C339 C338 1.396 . S
C340 P320 1.803 . S
C340 C341 1.378 . S
C340 C345 1.400 1_556 S
C341 H325 0.939 . S
C341 C340 1.378 . S
C341 C342 1.361 . S
C342 H326 0.942 . S
C342 C341 1.361 . S
C342 C343 1.369 . S
C343 C342 1.369 . S
C343 C344 1.404 1_556 S
C344 H327 0.940 . S
C344 C343 1.404 1_554 S
C344 C345 1.389 . S
C345 H328 0.939 . S
C345 C340 1.400 1_554 S
C345 C344 1.389 . S
C346 P320 1.819 . S
C346 C347 1.391 . S
C346 C351 1.391 . S
C347 H329 0.941 . S
C347 C346 1.391 . S
C347 C348 1.396 . S
C348 H332 0.939 . S
C348 C347 1.396 . S
C348 C349 1.397 . S
C349 C348 1.397 . S
C349 C350 1.385 1_556 S
C350 H333 0.940 . S
C350 C349 1.385 1_554 S
C350 C351 1.388 1_554 S
C351 H330 0.939 1_556 S
C351 C346 1.391 . S
C351 C350 1.388 1_556 S
P352 O363 1.490 . S
P352 C366 1.812 . S
P352 C372 1.803 . S
P352 C378 1.819 . S
H353 C367 0.941 . S
H354 C368 0.939 . S
H355 C370 0.940 . S
H356 C371 0.940 1_556 S
H357 C373 0.939 . S
H358 C374 0.942 . S
H359 C376 0.940 . S
H360 C377 0.939 1_556 S
H361 C379 0.941 . S
H362 C383 0.939 . S
O363 P352 1.490 . S
H364 C380 0.939 . S
H365 C382 0.911 1_556 S
C366 P352 1.812 . S
C366 C367 1.389 . S
C366 C371 1.391 . S
C367 H353 0.941 . S
C367 C366 1.389 . S
C367 C368 1.397 . S
C368 H354 0.939 . S
C368 C367 1.397 . S
C368 C369 1.378 . S
C369 C368 1.378 . S
C369 C370 1.378 1_554 S
C370 H355 0.940 . S
C370 C369 1.378 1_556 S
C370 C371 1.396 1_556 S
C371 H356 0.940 1_554 S
C371 C366 1.391 . S
C371 C370 1.396 1_554 S
C372 P352 1.803 . S
C372 C373 1.378 . S
C372 C377 1.400 . S
C373 H357 0.939 . S
C373 C372 1.378 . S
C373 C374 1.361 . S
C374 H358 0.942 . S
C374 C373 1.361 . S
C374 C375 1.369 . S
C375 C374 1.369 . S
C375 C376 1.404 1_554 S
C376 H359 0.940 . S
C376 C375 1.404 1_556 S
C376 C377 1.389 1_556 S
C377 H360 0.939 1_554 S
C377 C372 1.400 . S
C377 C376 1.389 1_554 S
C378 P352 1.819 . S
C378 C379 1.391 . S
C378 C383 1.391 . S
C379 H361 0.941 . S
C379 C378 1.391 . S
C379 C380 1.396 . S
C380 H364 0.939 . S
C380 C379 1.396 . S
C380 C381 1.397 . S
C381 C380 1.397 . S
C381 C382 1.400 . S
C382 H365 0.911 1_554 S
C382 C381 1.400 . S
C382 C383 1.403 . S
C383 H362 0.939 . S
C383 C378 1.391 . S
C383 C382 1.403 . S
P384 O395 1.490 . S
P384 C398 1.812 . S
P384 C404 1.803 . S
P384 C410 1.819 . S
H385 C399 0.941 . S
H386 C400 0.939 . S
H387 C402 0.940 . S
H388 C403 0.940 . S
H389 C405 0.939 . S
H390 C406 0.942 . S
H391 C408 0.940 . S
H392 C409 0.939 . S
H393 C411 0.941 . S
H394 C415 0.939 . S
O395 P384 1.490 . S
H396 C412 0.939 . S
H397 C414 0.940 . S
C398 P384 1.812 . S
C398 C399 1.389 . S
C398 C403 1.391 . S
C399 H385 0.941 . S
C399 C398 1.389 . S
C399 C400 1.397 . S
C400 H386 0.939 . S
C400 C399 1.397 . S
C400 C401 1.378 . S
C401 C400 1.378 . S
C401 C402 1.378 . S
C402 H387 0.940 . S
C402 C401 1.378 . S
C402 C403 1.396 . S
C403 H388 0.940 . S
C403 C398 1.391 . S
C403 C402 1.396 . S
C404 P384 1.803 . S
C404 C405 1.378 . S
C404 C409 1.400 . S
C405 H389 0.939 . S
C405 C404 1.378 . S
C405 C406 1.361 . S
C406 H390 0.942 . S
C406 C405 1.361 . S
C406 C407 1.369 . S
C407 C406 1.369 . S
C407 C408 1.404 . S
C408 H391 0.940 . S
C408 C407 1.404 . S
C408 C409 1.389 . S
C409 H392 0.939 . S
C409 C404 1.400 . S
C409 C408 1.389 . S
C410 P384 1.819 . S
C410 C411 1.391 . S
C410 C415 1.391 . S
C411 H393 0.941 . S
C411 C410 1.391 . S
C411 C412 1.396 . S
C412 H396 0.939 . S
C412 C411 1.396 . S
C412 C413 1.397 . S
C413 C412 1.397 . S
C413 C414 1.385 . S
C414 H397 0.940 . S
C414 C413 1.385 . S
C414 C415 1.388 . S
C415 H394 0.939 . S
C415 C410 1.391 . S
C415 C414 1.388 . S
P416 O427 1.490 . S
P416 C430 1.812 . S
P416 C436 1.803 . S
P416 C442 1.819 . S
H417 C431 0.941 . S
H418 C432 0.939 . S
H419 C434 0.940 . S
H420 C435 0.940 . S
H421 C437 0.939 . S
H422 C438 0.942 . S
H423 C440 0.940 . S
H424 C441 0.939 . S
H425 C443 0.941 . S
H426 C447 0.939 . S
O427 P416 1.490 . S
H428 C444 0.939 . S
H429 C446 0.940 . S
C430 P416 1.812 . S
C430 C431 1.389 . S
C430 C435 1.391 . S
C431 H417 0.941 . S
C431 C430 1.389 . S
C431 C432 1.397 . S
C432 H418 0.939 . S
C432 C431 1.397 . S
C432 C433 1.378 . S
C433 C432 1.378 . S
C433 C434 1.378 . S
C434 H419 0.940 . S
C434 C433 1.378 . S
C434 C435 1.396 . S
C435 H420 0.940 . S
C435 C430 1.391 . S
C435 C434 1.396 . S
C436 P416 1.803 . S
C436 C437 1.378 . S
C436 C441 1.400 . S
C437 H421 0.939 . S
C437 C436 1.378 . S
C437 C438 1.361 . S
C438 H422 0.942 . S
C438 C437 1.361 . S
C438 C439 1.369 . S
C439 C438 1.369 . S
C439 C440 1.404 . S
C440 H423 0.940 . S
C440 C439 1.404 . S
C440 C441 1.389 . S
C441 H424 0.939 . S
C441 C436 1.400 . S
C441 C440 1.389 . S
C442 P416 1.819 . S
C442 C443 1.391 . S
C442 C447 1.391 . S
C443 H425 0.941 . S
C443 C442 1.391 . S
C443 C444 1.396 . S
C444 H428 0.939 . S
C444 C443 1.396 . S
C444 C445 1.397 . S
C445 C444 1.397 . S
C445 C446 1.385 . S
C446 H429 0.940 . S
C446 C445 1.385 . S
C446 C447 1.388 . S
C447 H426 0.939 . S
C447 C442 1.391 . S
C447 C446 1.388 . S
P448 O459 1.490 . S
P448 C462 1.812 . S
P448 C468 1.803 . S
P448 C474 1.819 . S
H449 C463 0.941 . S
H450 C464 0.939 . S
H451 C466 0.940 . S
H452 C467 0.940 . S
H453 C469 0.939 . S
H454 C470 0.942 . S
H455 C472 0.940 . S
H456 C473 0.939 . S
H457 C475 0.941 . S
H458 C479 0.939 . S
O459 P448 1.490 . S
H460 C476 0.939 . S
H461 C478 0.940 . S
C462 P448 1.812 . S
C462 C463 1.389 . S
C462 C467 1.391 . S
C463 H449 0.941 . S
C463 C462 1.389 . S
C463 C464 1.397 . S
C464 H450 0.939 . S
C464 C463 1.397 . S
C464 C465 1.378 . S
C465 C464 1.378 . S
C465 C466 1.378 . S
C466 H451 0.940 . S
C466 C465 1.378 . S
C466 C467 1.396 . S
C467 H452 0.940 . S
C467 C462 1.391 . S
C467 C466 1.396 . S
C468 P448 1.803 . S
C468 C469 1.378 . S
C468 C473 1.400 . S
C469 H453 0.939 . S
C469 C468 1.378 . S
C469 C470 1.361 . S
C470 H454 0.942 . S
C470 C469 1.361 . S
C470 C471 1.369 . S
C471 C470 1.369 . S
C471 C472 1.404 . S
C472 H455 0.940 . S
C472 C471 1.404 . S
C472 C473 1.389 . S
C473 H456 0.939 . S
C473 C468 1.400 . S
C473 C472 1.389 . S
C474 P448 1.819 . S
C474 C475 1.391 . S
C474 C479 1.391 . S
C475 H457 0.941 . S
C475 C474 1.391 . S
C475 C476 1.396 . S
C476 H460 0.939 . S
C476 C475 1.396 . S
C476 C477 1.397 . S
C477 C476 1.397 . S
C477 C478 1.385 . S
C478 H461 0.940 . S
C478 C477 1.385 . S
C478 C479 1.388 . S
C479 H458 0.939 . S
C479 C474 1.391 . S
C479 C478 1.388 . S
P480 O491 1.490 . S
P480 C494 1.812 . S
P480 C500 1.803 . S
P480 C506 1.819 . S
H481 C495 0.941 . S
H482 C496 0.939 . S
H483 C498 0.940 . S
H484 C499 0.940 . S
H485 C501 0.939 . S
H486 C502 0.942 . S
H487 C504 0.940 . S
H488 C505 0.939 . S
H489 C507 0.941 . S
H490 C511 0.939 . S
O491 P480 1.490 . S
H492 C508 0.939 . S
H493 C510 0.940 . S
C494 P480 1.812 . S
C494 C495 1.389 . S
C494 C499 1.391 . S
C495 H481 0.941 . S
C495 C494 1.389 . S
C495 C496 1.397 . S
C496 H482 0.939 . S
C496 C495 1.397 . S
C496 C497 1.378 . S
C497 C496 1.378 . S
C497 C498 1.378 . S
C498 H483 0.940 . S
C498 C497 1.378 . S
C498 C499 1.396 . S
C499 H484 0.940 . S
C499 C494 1.391 . S
C499 C498 1.396 . S
C500 P480 1.803 . S
C500 C501 1.378 . S
C500 C505 1.400 . S
C501 H485 0.939 . S
C501 C500 1.378 . S
C501 C502 1.361 . S
C502 H486 0.942 . S
C502 C501 1.361 . S
C502 C503 1.369 . S
C503 C502 1.369 . S
C503 C504 1.404 . S
C504 H487 0.940 . S
C504 C503 1.404 . S
C504 C505 1.389 . S
C505 H488 0.939 . S
C505 C500 1.400 . S
C505 C504 1.389 . S
C506 P480 1.819 . S
C506 C507 1.391 . S
C506 C511 1.391 . S
C507 H489 0.941 . S
C507 C506 1.391 . S
C507 C508 1.396 . S
C508 H492 0.939 . S
C508 C507 1.396 . S
C508 C509 1.397 . S
C509 C508 1.397 . S
C509 C510 1.385 . S
C510 H493 0.940 . S
C510 C509 1.385 . S
C510 C511 1.388 . S
C511 H490 0.939 . S
C511 C506 1.391 . S
C511 C510 1.388 . S
P512 O523 1.490 . S
P512 C526 1.812 . S
P512 C532 1.803 . S
P512 C538 1.819 . S
H513 C527 0.941 . S
H514 C528 0.939 . S
H515 C530 0.940 . S
H516 C531 0.940 . S
H517 C533 0.939 . S
H518 C534 0.942 . S
H519 C536 0.940 . S
H520 C537 0.939 . S
H521 C539 0.941 . S
H522 C543 0.939 . S
O523 P512 1.490 . S
H524 C540 0.939 . S
H525 C542 0.940 . S
C526 P512 1.812 . S
C526 C527 1.389 . S
C526 C531 1.391 . S
C527 H513 0.941 . S
C527 C526 1.389 . S
C527 C528 1.397 . S
C528 H514 0.939 . S
C528 C527 1.397 . S
C528 C529 1.378 . S
C529 C528 1.378 . S
C529 C530 1.378 . S
C530 H515 0.940 . S
C530 C529 1.378 . S
C530 C531 1.396 . S
C531 H516 0.940 . S
C531 C526 1.391 . S
C531 C530 1.396 . S
C532 P512 1.803 . S
C532 C533 1.378 . S
C532 C537 1.400 . S
C533 H517 0.939 . S
C533 C532 1.378 . S
C533 C534 1.361 . S
C534 H518 0.942 . S
C534 C533 1.361 . S
C534 C535 1.369 . S
C535 C534 1.369 . S
C535 C536 1.404 . S
C536 H519 0.940 . S
C536 C535 1.404 . S
C536 C537 1.389 . S
C537 H520 0.939 . S
C537 C532 1.400 . S
C537 C536 1.389 . S
C538 P512 1.819 . S
C538 C539 1.391 . S
C538 C543 1.391 . S
C539 H521 0.941 . S
C539 C538 1.391 . S
C539 C540 1.396 . S
C540 H524 0.939 . S
C540 C539 1.396 . S
C540 C541 1.397 . S
C541 C540 1.397 . S
C541 C542 1.385 . S
C542 H525 0.940 . S
C542 C541 1.385 . S
C542 C543 1.388 . S
C543 H522 0.939 . S
C543 C538 1.391 . S
C543 C542 1.388 . S
P544 O555 1.490 . S
P544 C558 1.812 . S
P544 C564 1.803 . S
P544 C570 1.819 . S
H545 C559 0.941 . S
H546 C560 0.939 . S
H547 C562 0.940 . S
H548 C563 0.940 . S
H549 C565 0.939 . S
H550 C566 0.942 . S
H551 C568 0.940 . S
H552 C569 0.939 . S
H553 C571 0.941 . S
H554 C575 0.939 . S
O555 P544 1.490 . S
H556 C572 0.939 . S
H557 C574 0.940 . S
C558 P544 1.812 . S
C558 C559 1.389 . S
C558 C563 1.391 . S
C559 H545 0.941 . S
C559 C558 1.389 . S
C559 C560 1.397 . S
C560 H546 0.939 . S
C560 C559 1.397 . S
C560 C561 1.378 . S
C561 C560 1.378 . S
C561 C562 1.378 . S
C562 H547 0.940 . S
C562 C561 1.378 . S
C562 C563 1.396 . S
C563 H548 0.940 . S
C563 C558 1.391 . S
C563 C562 1.396 . S
C564 P544 1.803 . S
C564 C565 1.378 . S
C564 C569 1.400 . S
C565 H549 0.939 . S
C565 C564 1.378 . S
C565 C566 1.361 . S
C566 H550 0.942 . S
C566 C565 1.361 . S
C566 C567 1.369 . S
C567 C566 1.369 . S
C567 C568 1.404 . S
C568 H551 0.940 . S
C568 C567 1.404 . S
C568 C569 1.389 . S
C569 H552 0.939 . S
C569 C564 1.400 . S
C569 C568 1.389 . S
C570 P544 1.819 . S
C570 C571 1.391 . S
C570 C575 1.391 . S
C571 H553 0.941 . S
C571 C570 1.391 . S
C571 C572 1.396 . S
C572 H556 0.939 . S
C572 C571 1.396 . S
C572 C573 1.397 . S
C573 C572 1.397 . S
C573 C574 1.385 . S
C574 H557 0.940 . S
C574 C573 1.385 . S
C574 C575 1.388 . S
C575 H554 0.939 . S
C575 C570 1.391 . S
C575 C574 1.388 . S
P576 O587 1.490 . S
P576 C590 1.812 . S
P576 C596 1.803 . S
P576 C602 1.819 . S
H577 C591 0.941 . S
H578 C592 0.939 . S
H579 C594 0.940 . S
H580 C595 0.940 . S
H581 C597 0.939 . S
H582 C598 0.942 . S
H583 C600 0.940 . S
H584 C601 0.939 . S
H585 C603 0.941 . S
H586 C607 0.939 . S
O587 P576 1.490 . S
H588 C604 0.939 . S
H589 C606 0.940 . S
C590 P576 1.812 . S
C590 C591 1.389 . S
C590 C595 1.391 . S
C591 H577 0.941 . S
C591 C590 1.389 . S
C591 C592 1.397 . S
C592 H578 0.939 . S
C592 C591 1.397 . S
C592 C593 1.378 . S
C593 C592 1.378 . S
C593 C594 1.378 . S
C594 H579 0.940 . S
C594 C593 1.378 . S
C594 C595 1.396 . S
C595 H580 0.940 . S
C595 C590 1.391 . S
C595 C594 1.396 . S
C596 P576 1.803 . S
C596 C597 1.378 . S
C596 C601 1.400 . S
C597 H581 0.939 . S
C597 C596 1.378 . S
C597 C598 1.361 . S
C598 H582 0.942 . S
C598 C597 1.361 . S
C598 C599 1.369 . S
C599 C598 1.369 . S
C599 C600 1.404 . S
C600 H583 0.940 . S
C600 C599 1.404 . S
C600 C601 1.389 . S
C601 H584 0.939 . S
C601 C596 1.400 . S
C601 C600 1.389 . S
C602 P576 1.819 . S
C602 C603 1.391 . S
C602 C607 1.391 . S
C603 H585 0.941 . S
C603 C602 1.391 . S
C603 C604 1.396 . S
C604 H588 0.939 . S
C604 C603 1.396 . S
C604 C605 1.397 . S
C605 C604 1.397 . S
C605 C606 1.385 . S
C606 H589 0.940 . S
C606 C605 1.385 . S
C606 C607 1.388 . S
C607 H586 0.939 . S
C607 C602 1.391 . S
C607 C606 1.388 . S
P608 O619 1.490 . S
P608 C622 1.812 . S
P608 C628 1.803 . S
P608 C634 1.819 . S
H609 C623 0.941 . S
H610 C624 0.939 . S
H611 C626 0.940 . S
H612 C627 0.940 . S
H613 C629 0.939 . S
H614 C630 0.942 . S
H615 C632 0.940 . S
H616 C633 0.939 . S
H617 C635 0.941 . S
H618 C639 0.939 . S
O619 P608 1.490 . S
H620 C636 0.939 . S
H621 C638 0.940 . S
C622 P608 1.812 . S
C622 C623 1.389 . S
C622 C627 1.391 . S
C623 H609 0.941 . S
C623 C622 1.389 . S
C623 C624 1.397 . S
C624 H610 0.939 . S
C624 C623 1.397 . S
C624 C625 1.378 . S
C625 C624 1.378 . S
C625 C626 1.378 . S
C626 H611 0.940 . S
C626 C625 1.378 . S
C626 C627 1.396 . S
C627 H612 0.940 . S
C627 C622 1.391 . S
C627 C626 1.396 . S
C628 P608 1.803 . S
C628 C629 1.378 . S
C628 C633 1.400 . S
C629 H613 0.939 . S
C629 C628 1.378 . S
C629 C630 1.361 . S
C630 H614 0.942 . S
C630 C629 1.361 . S
C630 C631 1.369 . S
C631 C630 1.369 . S
C631 C632 1.404 . S
C632 H615 0.940 . S
C632 C631 1.404 . S
C632 C633 1.389 . S
C633 H616 0.939 . S
C633 C628 1.400 . S
C633 C632 1.389 . S
C634 P608 1.819 . S
C634 C635 1.391 . S
C634 C639 1.391 . S
C635 H617 0.941 . S
C635 C634 1.391 . S
C635 C636 1.396 . S
C636 H620 0.939 . S
C636 C635 1.396 . S
C636 C637 1.397 . S
C637 C636 1.397 . S
C637 C638 1.385 . S
C638 H621 0.940 . S
C638 C637 1.385 . S
C638 C639 1.388 . S
C639 H618 0.939 . S
C639 C634 1.391 . S
C639 C638 1.388 . S
P640 O651 1.490 . S
P640 C654 1.812 . S
P640 C660 1.803 . S
P640 C666 1.819 . S
H641 C655 0.941 . S
H642 C656 0.939 . S
H643 C658 0.940 . S
H644 C659 0.940 . S
H645 C661 0.939 . S
H646 C662 0.942 . S
H647 C664 0.940 . S
H648 C665 0.939 . S
H649 C667 0.941 . S
H650 C671 0.939 . S
O651 P640 1.490 . S
H652 C668 0.939 . S
H653 C670 0.940 . S
C654 P640 1.812 . S
C654 C655 1.389 . S
C654 C659 1.391 . S
C655 H641 0.941 . S
C655 C654 1.389 . S
C655 C656 1.397 . S
C656 H642 0.939 . S
C656 C655 1.397 . S
C656 C657 1.378 . S
C657 C656 1.378 . S
C657 C658 1.378 . S
C658 H643 0.940 . S
C658 C657 1.378 . S
C658 C659 1.396 . S
C659 H644 0.940 . S
C659 C654 1.391 . S
C659 C658 1.396 . S
C660 P640 1.803 . S
C660 C661 1.378 . S
C660 C665 1.400 . S
C661 H645 0.939 . S
C661 C660 1.378 . S
C661 C662 1.361 . S
C662 H646 0.942 . S
C662 C661 1.361 . S
C662 C663 1.369 . S
C663 C662 1.369 . S
C663 C664 1.404 . S
C664 H647 0.940 . S
C664 C663 1.404 . S
C664 C665 1.389 . S
C665 H648 0.939 . S
C665 C660 1.400 . S
C665 C664 1.389 . S
C666 P640 1.819 . S
C666 C667 1.391 . S
C666 C671 1.391 . S
C667 H649 0.941 . S
C667 C666 1.391 . S
C667 C668 1.396 . S
C668 H652 0.939 . S
C668 C667 1.396 . S
C668 C669 1.397 . S
C669 C668 1.397 . S
C669 C670 1.385 . S
C670 H653 0.940 . S
C670 C669 1.385 . S
C670 C671 1.388 . S
C671 H650 0.939 . S
C671 C666 1.391 . S
C671 C670 1.388 . S
P672 O683 1.490 . S
P672 C686 1.812 . S
P672 C692 1.803 . S
P672 C698 1.819 . S
H673 C687 0.941 . S
H674 C688 0.939 . S
H675 C690 0.940 . S
H676 C691 0.940 . S
H677 C693 0.939 . S
H678 C694 0.942 . S
H679 C696 0.940 . S
H680 C697 0.939 . S
H681 C699 0.941 . S
H682 C703 0.939 . S
O683 P672 1.490 . S
H684 C700 0.939 . S
H685 C702 0.940 . S
C686 P672 1.812 . S
C686 C687 1.389 . S
C686 C691 1.391 . S
C687 H673 0.941 . S
C687 C686 1.389 . S
C687 C688 1.397 . S
C688 H674 0.939 . S
C688 C687 1.397 . S
C688 C689 1.378 . S
C689 C688 1.378 . S
C689 C690 1.378 . S
C690 H675 0.940 . S
C690 C689 1.378 . S
C690 C691 1.396 . S
C691 H676 0.940 . S
C691 C686 1.391 . S
C691 C690 1.396 . S
C692 P672 1.803 . S
C692 C693 1.378 . S
C692 C697 1.400 . S
C693 H677 0.939 . S
C693 C692 1.378 . S
C693 C694 1.361 . S
C694 H678 0.942 . S
C694 C693 1.361 . S
C694 C695 1.369 . S
C695 C694 1.369 . S
C695 C696 1.404 . S
C696 H679 0.940 . S
C696 C695 1.404 . S
C696 C697 1.389 . S
C697 H680 0.939 . S
C697 C692 1.400 . S
C697 C696 1.389 . S
C698 P672 1.819 . S
C698 C699 1.391 . S
C698 C703 1.391 . S
C699 H681 0.941 . S
C699 C698 1.391 . S
C699 C700 1.396 . S
C700 H684 0.939 . S
C700 C699 1.396 . S
C700 C701 1.397 . S
C701 C700 1.397 . S
C701 C702 1.385 . S
C702 H685 0.940 . S
C702 C701 1.385 . S
C702 C703 1.388 . S
C703 H682 0.939 . S
C703 C698 1.391 . S
C703 C702 1.388 . S
P704 O715 1.490 . S
P704 C718 1.812 . S
P704 C724 1.803 . S
P704 C730 1.819 . S
H705 C719 0.941 . S
H706 C720 0.939 . S
H707 C722 0.940 . S
H708 C723 0.940 . S
H709 C725 0.939 . S
H710 C726 0.942 . S
H711 C728 0.940 . S
H712 C729 0.939 . S
H713 C731 0.941 . S
H714 C735 0.939 . S
O715 P704 1.490 . S
H716 C732 0.939 . S
H717 C734 0.940 . S
C718 P704 1.812 . S
C718 C719 1.389 . S
C718 C723 1.391 . S
C719 H705 0.941 . S
C719 C718 1.389 . S
C719 C720 1.397 . S
C720 H706 0.939 . S
C720 C719 1.397 . S
C720 C721 1.378 . S
C721 C720 1.378 . S
C721 C722 1.378 . S
C722 H707 0.940 . S
C722 C721 1.378 . S
C722 C723 1.396 . S
C723 H708 0.940 . S
C723 C718 1.391 . S
C723 C722 1.396 . S
C724 P704 1.803 . S
C724 C725 1.378 . S
C724 C729 1.400 . S
C725 H709 0.939 . S
C725 C724 1.378 . S
C725 C726 1.361 . S
C726 H710 0.942 . S
C726 C725 1.361 . S
C726 C727 1.369 . S
C727 C726 1.369 . S
C727 C728 1.404 . S
C728 H711 0.940 . S
C728 C727 1.404 . S
C728 C729 1.389 . S
C729 H712 0.939 . S
C729 C724 1.400 . S
C729 C728 1.389 . S
C730 P704 1.819 . S
C730 C731 1.391 . S
C730 C735 1.391 . S
C731 H713 0.941 . S
C731 C730 1.391 . S
C731 C732 1.396 . S
C732 H716 0.939 . S
C732 C731 1.396 . S
C732 C733 1.397 . S
C733 C732 1.397 . S
C733 C734 1.385 . S
C734 H717 0.940 . S
C734 C733 1.385 . S
C734 C735 1.388 . S
C735 H714 0.939 . S
C735 C730 1.391 . S
C735 C734 1.388 . S
P736 O747 1.490 . S
P736 C750 1.812 . S
P736 C756 1.803 . S
P736 C762 1.819 . S
H737 C751 0.941 . S
H738 C752 0.939 . S
H739 C754 0.940 . S
H740 C755 0.940 . S
H741 C757 0.939 . S
H742 C758 0.942 . S
H743 C760 0.940 . S
H744 C761 0.939 . S
H745 C763 0.941 . S
H746 C767 0.939 . S
O747 P736 1.490 . S
H748 C764 0.939 . S
H749 C766 0.940 . S
C750 P736 1.812 . S
C750 C751 1.389 . S
C750 C755 1.391 . S
C751 H737 0.941 . S
C751 C750 1.389 . S
C751 C752 1.397 . S
C752 H738 0.939 . S
C752 C751 1.397 . S
C752 C753 1.378 . S
C753 C752 1.378 . S
C753 C754 1.378 . S
C754 H739 0.940 . S
C754 C753 1.378 . S
C754 C755 1.396 . S
C755 H740 0.940 . S
C755 C750 1.391 . S
C755 C754 1.396 . S
C756 P736 1.803 . S
C756 C757 1.378 . S
C756 C761 1.400 . S
C757 H741 0.939 . S
C757 C756 1.378 . S
C757 C758 1.361 . S
C758 H742 0.942 . S
C758 C757 1.361 . S
C758 C759 1.369 . S
C759 C758 1.369 . S
C759 C760 1.404 . S
C760 H743 0.940 . S
C760 C759 1.404 . S
C760 C761 1.389 . S
C761 H744 0.939 . S
C761 C756 1.400 . S
C761 C760 1.389 . S
C762 P736 1.819 . S
C762 C763 1.391 . S
C762 C767 1.391 . S
C763 H745 0.941 . S
C763 C762 1.391 . S
C763 C764 1.396 . S
C764 H748 0.939 . S
C764 C763 1.396 . S
C764 C765 1.397 . S
C765 C764 1.397 . S
C765 C766 1.385 . S
C766 H749 0.940 . S
C766 C765 1.385 . S
C766 C767 1.388 . S
C767 H746 0.939 . S
C767 C762 1.391 . S
C767 C766 1.388 . S
Zn768 O770 1.919 1_665 S
Zn768 O788 1.977 1_565 S
Zn768 O799 1.965 . S
Zn769 O770 1.893 1_655 S
Zn769 O789 1.970 . S
Zn769 O805 1.943 1_655 S
Zn769 O812 1.981 . S
O770 Zn768 1.919 1_445 S
O770 Zn769 1.893 1_455 S
O770 H771 0.884 . S
H771 O770 0.884 . S
C772 O773 1.246 . S
C772 O801 1.276 . S
O773 C772 1.246 . S
Zn774 O776 1.911 . S
Zn774 O791 1.970 . S
Zn774 O808 1.945 . S
Zn774 O815 1.981 . S
Zn775 O776 1.933 1_565 S
Zn775 O790 1.985 . S
Zn775 O797 1.955 . S
O776 Zn774 1.911 . S
O776 Zn775 1.933 1_545 S
O776 H777 0.841 . S
H777 O776 0.841 . S
Zn778 O779 1.933 1_565 S
Zn778 O792 1.976 1_565 S
Zn778 O801 1.955 . S
O779 Zn778 1.933 1_545 S
O779 Zn780 1.911 . S
O779 H781 0.841 . S
Zn780 O779 1.911 . S
Zn780 O793 1.970 . S
Zn780 O809 1.981 1_655 S
Zn780 O811 1.945 . S
H781 O779 0.841 . S
Zn782 O783 1.933 1_565 S
Zn782 O795 1.985 . S
Zn782 O803 1.955 . S
O783 Zn782 1.933 1_545 S
O783 H784 0.841 . S
O783 Zn785 1.911 . S
H784 O783 0.841 . S
Zn785 O783 1.911 . S
Zn785 O796 1.970 . S
Zn785 O806 1.981 . S
Zn785 O814 1.945 . S
C786 O787 1.246 . S
C786 O803 1.276 . S
O787 C786 1.246 . S
O788 Zn768 1.977 1_545 S
O788 C798 1.278 . S
O789 Zn769 1.970 . S
O789 C798 1.263 . S
O790 Zn775 1.985 . S
O790 C802 1.245 1_565 S
O791 Zn774 1.970 . S
O791 C802 1.263 . S
O792 Zn778 1.976 1_545 S
O792 C807 1.287 . S
O793 Zn780 1.970 . S
O793 C807 1.263 . S
C794 O805 1.266 . S
C794 O806 1.245 . S
O795 Zn782 1.985 . S
O795 C813 1.245 1_565 S
O796 Zn785 1.970 . S
O796 C813 1.263 . S
O797 Zn775 1.955 . S
O797 C816 1.276 . S
C798 O788 1.278 . S
C798 O789 1.263 . S
O799 Zn768 1.965 . S
O799 C818 1.241 1_655 S
C800 O808 1.262 . S
C800 O809 1.245 . S
O801 C772 1.276 . S
O801 Zn778 1.955 . S
C802 O790 1.245 1_545 S
C802 O791 1.263 . S
O803 Zn782 1.955 . S
O803 C786 1.276 . S
C804 O811 1.262 . S
C804 O812 1.245 . S
O805 Zn769 1.943 1_455 S
O805 C794 1.266 . S
O806 Zn785 1.981 . S
O806 C794 1.245 . S
C807 O792 1.287 . S
C807 O793 1.263 . S
O808 Zn774 1.945 . S
O808 C800 1.262 . S
O809 Zn780 1.981 1_455 S
O809 C800 1.245 . S
C810 O814 1.262 . S
C810 O815 1.245 . S
O811 Zn780 1.945 . S
O811 C804 1.262 . S
O812 Zn769 1.981 . S
O812 C804 1.245 . S
C813 O795 1.245 1_545 S
C813 O796 1.263 . S
O814 Zn785 1.945 . S
O814 C810 1.262 . S
O815 Zn774 1.981 . S
O815 C810 1.245 . S
C816 O797 1.276 . S
C816 O817 1.246 . S
O817 C816 1.246 . S
C818 O799 1.241 1_455 S
C818 O819 1.246 . S
O819 C818 1.246 . S
Zn820 O822 1.933 . S
Zn820 O840 1.985 . S
Zn820 O851 1.955 . S
Zn821 O822 1.911 1_556 S
Zn821 O841 1.970 . S
Zn821 O857 1.945 . S
Zn821 O864 1.981 . S
O822 Zn820 1.933 . S
O822 Zn821 1.911 1_554 S
O822 H823 0.841 . S
H823 O822 0.841 . S
C824 O825 1.246 . S
C824 O853 1.276 . S
O825 C824 1.246 . S
Zn826 O828 1.914 1_556 S
Zn826 O843 1.970 . S
Zn826 O860 1.945 . S
Zn826 O867 1.981 . S
Zn827 O828 1.935 . S
Zn827 O842 1.985 . S
Zn827 O849 1.954 . S
O828 Zn826 1.914 1_554 S
O828 Zn827 1.935 . S
O828 H829 0.833 1_565 S
H829 O828 0.833 1_545 S
Zn830 O831 1.933 . S
Zn830 O844 1.985 . S
Zn830 O853 1.955 . S
O831 Zn830 1.933 . S
O831 Zn832 1.911 1_554 S
O831 H833 0.841 . S
Zn832 O831 1.911 1_556 S
Zn832 O845 1.970 . S
Zn832 O861 1.981 . S
Zn832 O863 1.945 . S
H833 O831 0.841 . S
Zn834 O835 1.933 . S
Zn834 O847 1.985 . S
Zn834 O855 1.955 . S
O835 Zn834 1.933 . S
O835 H836 0.841 . S
O835 Zn837 1.911 1_554 S
H836 O835 0.841 . S
Zn837 O835 1.911 1_556 S
Zn837 O848 1.970 . S
Zn837 O858 1.981 1_565 S
Zn837 O866 1.945 . S
C838 O839 1.246 . S
C838 O855 1.276 . S
O839 C838 1.246 . S
O840 Zn820 1.985 . S
O840 C850 1.245 . S
O841 Zn821 1.970 . S
O841 C850 1.263 1_556 S
O842 Zn827 1.985 . S
O842 C854 1.245 . S
O843 Zn826 1.970 . S
O843 C854 1.263 1_556 S
O844 Zn830 1.985 . S
O844 C859 1.245 . S
O845 Zn832 1.970 . S
O845 C859 1.263 1_556 S
C846 O857 1.262 . S
C846 O858 1.245 . S
O847 Zn834 1.985 . S
O847 C865 1.245 . S
O848 Zn837 1.970 . S
O848 C865 1.263 1_556 S
O849 Zn827 1.954 . S
O849 C868 1.279 1_565 S
C850 O840 1.245 . S
C850 O841 1.263 1_554 S
O851 Zn820 1.955 . S
O851 C870 1.276 . S
C852 O860 1.262 1_545 S
C852 O861 1.245 . S
O853 C824 1.276 . S
O853 Zn830 1.955 . S
C854 O842 1.245 . S
C854 O843 1.263 1_554 S
O855 Zn834 1.955 . S
O855 C838 1.276 . S
C856 O863 1.262 . S
C856 O864 1.245 . S
O857 Zn821 1.945 . S
O857 C846 1.262 . S
O858 Zn837 1.981 1_545 S
O858 C846 1.245 . S
C859 O844 1.245 . S
C859 O845 1.263 1_554 S
O860 Zn826 1.945 . S
O860 C852 1.262 1_565 S
O861 Zn832 1.981 . S
O861 C852 1.245 . S
C862 O866 1.262 . S
C862 O867 1.245 . S
O863 Zn832 1.945 . S
O863 C856 1.262 . S
O864 Zn821 1.981 . S
O864 C856 1.245 . S
C865 O847 1.245 . S
C865 O848 1.263 1_554 S
O866 Zn837 1.945 . S
O866 C862 1.262 . S
O867 Zn826 1.981 . S
O867 C862 1.245 . S
C868 O849 1.279 1_545 S
C868 O869 1.246 . S
O869 C868 1.246 . S
C870 O851 1.276 . S
C870 O871 1.246 . S
O871 C870 1.246 . S
Zn872 O874 1.933 . S
Zn872 O892 1.985 . S
Zn872 O903 1.952 1_655 S
Zn873 O874 1.911 . S
Zn873 O893 1.970 . S
Zn873 O909 1.945 . S
Zn873 O916 1.981 . S
O874 Zn872 1.933 . S
O874 Zn873 1.911 . S
O874 H875 0.841 1_655 S
H875 O874 0.841 1_455 S
C876 O877 1.246 1_554 S
C876 O905 1.276 . S
O877 C876 1.246 1_556 S
Zn878 O880 1.911 . S
Zn878 O895 1.970 . S
Zn878 O912 1.945 . S
Zn878 O919 1.981 . S
Zn879 O880 1.933 . S
Zn879 O894 1.985 . S
Zn879 O901 1.955 . S
O880 Zn878 1.911 . S
O880 Zn879 1.933 . S
O880 H881 0.841 . S
H881 O880 0.841 . S
Zn882 O883 1.933 . S
Zn882 O896 1.985 . S
Zn882 O905 1.955 . S
O883 Zn882 1.933 . S
O883 Zn884 1.911 . S
O883 H885 0.841 . S
Zn884 O883 1.911 . S
Zn884 O897 1.970 . S
Zn884 O913 1.981 1_655 S
Zn884 O915 1.945 . S
H885 O883 0.841 . S
Zn886 O887 1.933 . S
Zn886 O899 1.985 . S
Zn886 O907 1.955 . S
O887 Zn886 1.933 . S
O887 H888 0.841 1_556 S
O887 Zn889 1.911 . S
H888 O887 0.841 1_554 S
Zn889 O887 1.911 . S
Zn889 O900 1.970 . S
Zn889 O910 1.981 . S
Zn889 O918 1.945 . S
C890 O891 1.246 . S
C890 O907 1.276 1_554 S
O891 C890 1.246 . S
O892 Zn872 1.985 . S
O892 C902 1.245 . S
O893 Zn873 1.970 . S
O893 C902 1.263 . S
O894 Zn879 1.985 . S
O894 C906 1.245 . S
O895 Zn878 1.970 . S
O895 C906 1.263 . S
O896 Zn882 1.985 . S
O896 C911 1.245 . S
O897 Zn884 1.970 . S
O897 C911 1.263 . S
C898 O909 1.262 1_455 S
C898 O910 1.245 . S
O899 Zn886 1.985 . S
O899 C917 1.245 . S
O900 Zn889 1.970 . S
O900 C917 1.263 . S
O901 Zn879 1.955 . S
O901 C920 1.276 . S
C902 O892 1.245 . S
C902 O893 1.263 . S
O903 Zn872 1.952 1_455 S
O903 C922 1.284 . S
C904 O912 1.262 . S
C904 O913 1.245 . S
O905 C876 1.276 . S
O905 Zn882 1.955 . S
C906 O894 1.245 . S
C906 O895 1.263 . S
O907 Zn886 1.955 . S
O907 C890 1.276 1_556 S
C908 O915 1.262 . S
C908 O916 1.245 1_554 S
O909 Zn873 1.945 . S
O909 C898 1.262 1_655 S
O910 Zn889 1.981 . S
O910 C898 1.245 . S
C911 O896 1.245 . S
C911 O897 1.263 . S
O912 Zn878 1.945 . S
O912 C904 1.262 . S
O913 Zn884 1.981 1_455 S
O913 C904 1.245 . S
C914 O918 1.262 1_554 S
C914 O919 1.245 . S
O915 Zn884 1.945 . S
O915 C908 1.262 . S
O916 Zn873 1.981 . S
O916 C908 1.245 1_556 S
C917 O899 1.245 . S
C917 O900 1.263 . S
O918 Zn889 1.945 . S
O918 C914 1.262 1_556 S
O919 Zn878 1.981 . S
O919 C914 1.245 . S
C920 O901 1.276 . S
C920 O921 1.246 . S
O921 C920 1.246 . S
C922 O903 1.284 . S
C922 O923 1.246 . S
O923 C922 1.246 . S
Zn924 O926 1.933 1_556 S
Zn924 O944 1.985 . S
Zn924 O955 1.955 . S
Zn925 O926 1.911 . S
Zn925 O945 1.970 . S
Zn925 O961 1.945 . S
Zn925 O968 1.981 . S
O926 Zn924 1.933 1_554 S
O926 Zn925 1.911 . S
O926 H927 0.841 . S
H927 O926 0.841 . S
C928 O929 1.246 . S
C928 O957 1.276 . S
O929 C928 1.246 . S
Zn930 O932 1.911 . S
Zn930 O947 1.970 . S
Zn930 O964 1.945 . S
Zn930 O971 1.981 . S
Zn931 O932 1.933 1_556 S
Zn931 O946 1.985 . S
Zn931 O953 1.955 . S
O932 Zn930 1.911 . S
O932 Zn931 1.933 1_554 S
O932 H933 0.841 . S
H933 O932 0.841 . S
Zn934 O935 1.933 1_556 S
Zn934 O948 1.985 . S
Zn934 O957 1.955 . S
O935 Zn934 1.933 1_554 S
O935 Zn936 1.911 . S
O935 H937 0.841 . S
Zn936 O935 1.911 . S
Zn936 O949 1.970 . S
Zn936 O965 1.981 . S
Zn936 O967 1.945 . S
H937 O935 0.841 . S
Zn938 O939 1.933 1_556 S
Zn938 O951 1.985 . S
Zn938 O959 1.955 . S
O939 Zn938 1.933 1_554 S
O939 H940 0.841 . S
O939 Zn941 1.911 . S
H940 O939 0.841 . S
Zn941 O939 1.911 . S
Zn941 O952 1.970 . S
Zn941 O962 1.981 . S
Zn941 O970 1.945 . S
C942 O943 1.246 . S
C942 O959 1.276 . S
O943 C942 1.246 . S
O944 Zn924 1.985 . S
O944 C954 1.245 1_556 S
O945 Zn925 1.970 . S
O945 C954 1.263 . S
O946 Zn931 1.985 . S
O946 C958 1.245 1_556 S
O947 Zn930 1.970 . S
O947 C958 1.263 . S
O948 Zn934 1.985 . S
O948 C963 1.245 1_556 S
O949 Zn936 1.970 . S
O949 C963 1.263 . S
C950 O961 1.262 . S
C950 O962 1.245 . S
O951 Zn938 1.985 . S
O951 C969 1.245 1_556 S
O952 Zn941 1.970 . S
O952 C969 1.263 . S
O953 Zn931 1.955 . S
O953 C972 1.276 . S
C954 O944 1.245 1_554 S
C954 O945 1.263 . S
O955 Zn924 1.955 . S
O955 C974 1.276 . S
C956 O964 1.262 . S
C956 O965 1.245 . S
O957 C928 1.276 . S
O957 Zn934 1.955 . S
C958 O946 1.245 1_554 S
C958 O947 1.263 . S
O959 Zn938 1.955 . S
O959 C942 1.276 . S
C960 O967 1.262 . S
C960 O968 1.245 . S
O961 Zn925 1.945 . S
O961 C950 1.262 . S
O962 Zn941 1.981 . S
O962 C950 1.245 . S
C963 O948 1.245 1_554 S
C963 O949 1.263 . S
O964 Zn930 1.945 . S
O964 C956 1.262 . S
O965 Zn936 1.981 . S
O965 C956 1.245 . S
C966 O970 1.262 . S
C966 O971 1.245 . S
O967 Zn936 1.945 . S
O967 C960 1.262 . S
O968 Zn925 1.981 . S
O968 C960 1.245 . S
C969 O951 1.245 1_554 S
C969 O952 1.263 . S
O970 Zn941 1.945 . S
O970 C966 1.262 . S
O971 Zn930 1.981 . S
O971 C966 1.245 . S
C972 O953 1.276 . S
C972 O973 1.246 . S
O973 C972 1.246 . S
C974 O955 1.276 . S
C974 O975 1.246 . S
O975 C974 1.246 . S
Zn976 O978 1.929 1_655 S
Zn976 O996 1.985 . S
Zn976 O1007 1.955 1_655 S
Zn977 O978 1.904 1_655 S
Zn977 O997 1.970 . S
Zn977 O1013 1.945 . S
Zn977 O1020 1.981 . S
O978 Zn976 1.929 1_455 S
O978 Zn977 1.904 1_455 S
O978 H979 0.855 . S
H979 O978 0.855 . S
C980 O981 1.246 . S
C980 O1009 1.276 . S
O981 C980 1.246 . S
Zn982 O984 1.911 . S
Zn982 O999 1.970 . S
Zn982 O1016 1.945 . S
Zn982 O1023 1.981 . S
Zn983 O984 1.933 . S
Zn983 O998 1.985 . S
Zn983 O1005 1.955 . S
O984 Zn982 1.911 . S
O984 Zn983 1.933 . S
O984 H985 0.841 . S
H985 O984 0.841 . S
Zn986 O987 1.933 . S
Zn986 O1000 1.985 . S
Zn986 O1009 1.955 . S
O987 Zn986 1.933 . S
O987 Zn988 1.911 . S
O987 H989 0.841 . S
Zn988 O987 1.911 . S
Zn988 O1001 1.970 . S
Zn988 O1017 1.981 1_655 S
Zn988 O1019 1.945 . S
H989 O987 0.841 . S
Zn990 O991 1.933 . S
Zn990 O1003 1.985 . S
Zn990 O1011 1.955 . S
O991 Zn990 1.933 . S
O991 H992 0.841 . S
O991 Zn993 1.911 . S
H992 O991 0.841 . S
Zn993 O991 1.911 . S
Zn993 O1004 1.970 . S
Zn993 O1014 1.981 . S
Zn993 O1022 1.945 . S
C994 O995 1.246 . S
C994 O1011 1.276 . S
O995 C994 1.246 . S
O996 Zn976 1.985 . S
O996 C1006 1.245 . S
O997 Zn977 1.970 . S
O997 C1006 1.263 . S
O998 Zn983 1.985 . S
O998 C1010 1.245 . S
O999 Zn982 1.970 . S
O999 C1010 1.263 . S
O1000 Zn986 1.985 . S
O1000 C1015 1.245 . S
O1001 Zn988 1.970 . S
O1001 C1015 1.263 . S
C1002 O1013 1.262 1_455 S
C1002 O1014 1.245 . S
O1003 Zn990 1.985 . S
O1003 C1021 1.245 . S
O1004 Zn993 1.970 . S
O1004 C1021 1.263 . S
O1005 Zn983 1.955 . S
O1005 C1024 1.276 . S
C1006 O996 1.245 . S
C1006 O997 1.263 . S
O1007 Zn976 1.955 1_455 S
O1007 C1026 1.276 . S
C1008 O1016 1.262 . S
C1008 O1017 1.245 . S
O1009 C980 1.276 . S
O1009 Zn986 1.955 . S
C1010 O998 1.245 . S
C1010 O999 1.263 . S
O1011 Zn990 1.955 . S
O1011 C994 1.276 . S
C1012 O1019 1.262 . S
C1012 O1020 1.245 . S
O1013 Zn977 1.945 . S
O1013 C1002 1.262 1_655 S
O1014 Zn993 1.981 . S
O1014 C1002 1.245 . S
C1015 O1000 1.245 . S
C1015 O1001 1.263 . S
O1016 Zn982 1.945 . S
O1016 C1008 1.262 . S
O1017 Zn988 1.981 1_455 S
O1017 C1008 1.245 . S
C1018 O1022 1.262 . S
C1018 O1023 1.245 . S
O1019 Zn988 1.945 . S
O1019 C1012 1.262 . S
O1020 Zn977 1.981 . S
O1020 C1012 1.245 . S
C1021 O1003 1.245 . S
C1021 O1004 1.263 . S
O1022 Zn993 1.945 . S
O1022 C1018 1.262 . S
O1023 Zn982 1.981 . S
O1023 C1018 1.245 . S
C1024 O1005 1.276 . S
C1024 O1025 1.246 . S
O1025 C1024 1.246 . S
C1026 O1007 1.276 . S
C1026 O1027 1.246 . S
O1027 C1026 1.246 . S
Zn1028 O1030 1.933 1_565 S
Zn1028 O1048 1.985 . S
Zn1028 O1059 1.955 . S
Zn1029 O1030 1.911 . S
Zn1029 O1049 1.970 . S
Zn1029 O1065 1.945 . S
Zn1029 O1072 1.981 . S
O1030 Zn1028 1.933 1_545 S
O1030 Zn1029 1.911 . S
O1030 H1031 0.841 . S
H1031 O1030 0.841 . S
C1032 O1033 1.246 . S
C1032 O1061 1.276 . S
O1033 C1032 1.246 . S
Zn1034 O1036 1.911 . S
Zn1034 O1051 1.970 . S
Zn1034 O1068 1.945 . S
Zn1034 O1075 1.981 . S
Zn1035 O1036 1.933 1_565 S
Zn1035 O1050 1.985 1_565 S
Zn1035 O1057 1.955 . S
O1036 Zn1034 1.911 . S
O1036 Zn1035 1.933 1_545 S
O1036 H1037 0.841 . S
H1037 O1036 0.841 . S
Zn1038 O1039 1.933 1_565 S
Zn1038 O1052 1.985 . S
Zn1038 O1061 1.955 . S
O1039 Zn1038 1.933 1_545 S
O1039 Zn1040 1.911 . S
O1039 H1041 0.841 . S
Zn1040 O1039 1.911 . S
Zn1040 O1053 1.970 . S
Zn1040 O1069 1.981 . S
Zn1040 O1071 1.945 . S
H1041 O1039 0.841 . S
Zn1042 O1043 1.933 1_565 S
Zn1042 O1055 1.985 1_565 S
Zn1042 O1063 1.955 . S
O1043 Zn1042 1.933 1_545 S
O1043 H1044 0.841 . S
O1043 Zn1045 1.911 . S
H1044 O1043 0.841 . S
Zn1045 O1043 1.911 . S
Zn1045 O1056 1.970 . S
Zn1045 O1066 1.981 . S
Zn1045 O1074 1.945 . S
C1046 O1047 1.246 . S
C1046 O1063 1.276 . S
O1047 C1046 1.246 . S
O1048 Zn1028 1.985 . S
O1048 C1058 1.245 1_565 S
O1049 Zn1029 1.970 . S
O1049 C1058 1.263 . S
O1050 Zn1035 1.985 1_545 S
O1050 C1062 1.245 . S
O1051 Zn1034 1.970 . S
O1051 C1062 1.263 . S
O1052 Zn1038 1.985 . S
O1052 C1067 1.245 1_565 S
O1053 Zn1040 1.970 . S
O1053 C1067 1.263 . S
C1054 O1065 1.262 . S
C1054 O1066 1.245 . S
O1055 Zn1042 1.985 1_545 S
O1055 C1073 1.245 . S
O1056 Zn1045 1.970 . S
O1056 C1073 1.263 . S
O1057 Zn1035 1.955 . S
O1057 C1076 1.276 . S
C1058 O1048 1.245 1_545 S
C1058 O1049 1.263 . S
O1059 Zn1028 1.955 . S
O1059 C1078 1.276 . S
C1060 O1068 1.262 . S
C1060 O1069 1.245 . S
O1061 C1032 1.276 . S
O1061 Zn1038 1.955 . S
C1062 O1050 1.245 . S
C1062 O1051 1.263 . S
O1063 Zn1042 1.955 . S
O1063 C1046 1.276 . S
C1064 O1071 1.262 . S
C1064 O1072 1.245 . S
O1065 Zn1029 1.945 . S
O1065 C1054 1.262 . S
O1066 Zn1045 1.981 . S
O1066 C1054 1.245 . S
C1067 O1052 1.245 1_545 S
C1067 O1053 1.263 . S
O1068 Zn1034 1.945 . S
O1068 C1060 1.262 . S
O1069 Zn1040 1.981 . S
O1069 C1060 1.245 . S
C1070 O1074 1.262 . S
C1070 O1075 1.245 . S
O1071 Zn1040 1.945 . S
O1071 C1064 1.262 . S
O1072 Zn1029 1.981 . S
O1072 C1064 1.245 . S
C1073 O1055 1.245 . S
C1073 O1056 1.263 . S
O1074 Zn1045 1.945 . S
O1074 C1070 1.262 . S
O1075 Zn1034 1.981 . S
O1075 C1070 1.245 . S
C1076 O1057 1.276 . S
C1076 O1077 1.246 . S
O1077 C1076 1.246 . S
C1078 O1059 1.276 . S
C1078 O1079 1.246 . S
O1079 C1078 1.246 . S
H1080 C1092 0.930 . S
H1081 C1094 0.930 . S
H1082 C1095 0.930 . S
H1083 C1099 0.959 . S
H1084 C1099 0.959 . S
H1085 C1099 0.961 . S
H1086 C1100 0.960 . S
H1087 C1100 0.961 . S
H1088 C1100 0.959 . S
H1089 C1103 0.929 . S
H1090 C1104 0.931 . S
H1091 C1106 0.930 . S
C1092 H1080 0.930 . S
C1092 C1093 1.399 . S
C1092 C1097 1.399 . S
C1093 C1092 1.399 . S
C1093 C1094 1.376 . S
C1094 H1081 0.930 . S
C1094 C1093 1.376 . S
C1094 C1095 1.388 . S
C1095 H1082 0.930 . S
C1095 C1094 1.388 . S
C1095 C1096 1.390 . S
C1096 C1095 1.390 . S
C1096 C1097 1.394 . S
C1096 C1102 1.465 . S
C1097 C1092 1.399 . S
C1097 C1096 1.394 . S
C1097 C1098 1.516 . S
C1098 C1097 1.516 . S
C1098 C1099 1.502 . S
C1098 C1100 1.561 . S
C1098 C1101 1.526 . S
C1099 H1083 0.959 . S
C1099 H1084 0.959 . S
C1099 H1085 0.961 . S
C1099 C1098 1.502 . S
C1100 H1086 0.960 . S
C1100 H1087 0.961 . S
C1100 H1088 0.959 . S
C1100 C1098 1.561 . S
C1101 C1098 1.526 . S
C1101 C1102 1.396 . S
C1101 C1106 1.390 . S
C1102 C1096 1.465 . S
C1102 C1101 1.396 . S
C1102 C1103 1.399 . S
C1103 H1089 0.929 . S
C1103 C1102 1.399 . S
C1103 C1104 1.385 . S
C1104 H1090 0.931 . S
C1104 C1103 1.385 . S
C1104 C1105 1.389 . S
C1105 C1104 1.389 . S
C1105 C1106 1.387 . S
C1106 H1091 0.930 . S
C1106 C1101 1.390 . S
C1106 C1105 1.387 . S
H1107 C1119 0.930 . S
H1108 C1121 0.930 . S
H1109 C1122 0.930 . S
H1110 C1126 0.959 . S
H1111 C1126 0.959 . S
H1112 C1126 0.961 . S
H1113 C1127 0.960 . S
H1114 C1127 0.961 . S
H1115 C1127 0.959 . S
H1116 C1130 0.929 . S
H1117 C1131 0.931 . S
H1118 C1133 0.930 . S
C1119 H1107 0.930 . S
C1119 C1120 1.399 . S
C1119 C1124 1.399 . S
C1120 C1119 1.399 . S
C1120 C1121 1.376 . S
C1121 H1108 0.930 . S
C1121 C1120 1.376 . S
C1121 C1122 1.388 . S
C1122 H1109 0.930 . S
C1122 C1121 1.388 . S
C1122 C1123 1.390 . S
C1123 C1122 1.390 . S
C1123 C1124 1.394 . S
C1123 C1129 1.465 . S
C1124 C1119 1.399 . S
C1124 C1123 1.394 . S
C1124 C1125 1.516 . S
C1125 C1124 1.516 . S
C1125 C1126 1.502 . S
C1125 C1127 1.561 . S
C1125 C1128 1.526 . S
C1126 H1110 0.959 . S
C1126 H1111 0.959 . S
C1126 H1112 0.961 . S
C1126 C1125 1.502 . S
C1127 H1113 0.960 . S
C1127 H1114 0.961 . S
C1127 H1115 0.959 . S
C1127 C1125 1.561 . S
C1128 C1125 1.526 . S
C1128 C1129 1.396 . S
C1128 C1133 1.390 . S
C1129 C1123 1.465 . S
C1129 C1128 1.396 . S
C1129 C1130 1.399 . S
C1130 H1116 0.929 . S
C1130 C1129 1.399 . S
C1130 C1131 1.385 . S
C1131 H1117 0.931 . S
C1131 C1130 1.385 . S
C1131 C1132 1.389 . S
C1132 C1131 1.389 . S
C1132 C1133 1.387 . S
C1133 H1118 0.930 . S
C1133 C1128 1.390 . S
C1133 C1132 1.387 . S
H1134 C1146 0.930 . S
H1135 C1148 0.930 . S
H1136 C1149 0.930 . S
H1137 C1153 0.959 . S
H1138 C1153 0.959 . S
H1139 C1153 0.961 . S
H1140 C1154 0.960 . S
H1141 C1154 0.961 . S
H1142 C1154 0.959 . S
H1143 C1157 0.929 . S
H1144 C1158 0.931 . S
H1145 C1160 0.930 . S
C1146 H1134 0.930 . S
C1146 C1147 1.399 . S
C1146 C1151 1.399 . S
C1147 C1146 1.399 . S
C1147 C1148 1.376 . S
C1148 H1135 0.930 . S
C1148 C1147 1.376 . S
C1148 C1149 1.388 . S
C1149 H1136 0.930 . S
C1149 C1148 1.388 . S
C1149 C1150 1.390 . S
C1150 C1149 1.390 . S
C1150 C1151 1.394 . S
C1150 C1156 1.465 . S
C1151 C1146 1.399 . S
C1151 C1150 1.394 . S
C1151 C1152 1.516 . S
C1152 C1151 1.516 . S
C1152 C1153 1.502 . S
C1152 C1154 1.561 . S
C1152 C1155 1.526 . S
C1153 H1137 0.959 . S
C1153 H1138 0.959 . S
C1153 H1139 0.961 . S
C1153 C1152 1.502 . S
C1154 H1140 0.960 . S
C1154 H1141 0.961 . S
C1154 H1142 0.959 . S
C1154 C1152 1.561 . S
C1155 C1152 1.526 . S
C1155 C1156 1.396 . S
C1155 C1160 1.390 . S
C1156 C1150 1.465 . S
C1156 C1155 1.396 . S
C1156 C1157 1.399 . S
C1157 H1143 0.929 . S
C1157 C1156 1.399 . S
C1157 C1158 1.385 . S
C1158 H1144 0.931 . S
C1158 C1157 1.385 . S
C1158 C1159 1.389 . S
C1159 C1158 1.389 . S
C1159 C1160 1.387 . S
C1160 H1145 0.930 . S
C1160 C1155 1.390 . S
C1160 C1159 1.387 . S
H1161 C1173 0.930 . S
H1162 C1175 0.930 . S
H1163 C1176 0.930 . S
H1164 C1180 0.959 . S
H1165 C1180 0.959 . S
H1166 C1180 0.961 . S
H1167 C1181 0.960 . S
H1168 C1181 0.961 . S
H1169 C1181 0.959 . S
H1170 C1184 0.929 . S
H1171 C1185 0.931 . S
H1172 C1187 0.930 . S
C1173 H1161 0.930 . S
C1173 C1174 1.399 . S
C1173 C1178 1.399 . S
C1174 C1173 1.399 . S
C1174 C1175 1.376 . S
C1175 H1162 0.930 . S
C1175 C1174 1.376 . S
C1175 C1176 1.388 . S
C1176 H1163 0.930 . S
C1176 C1175 1.388 . S
C1176 C1177 1.390 . S
C1177 C1176 1.390 . S
C1177 C1178 1.394 . S
C1177 C1183 1.465 . S
C1178 C1173 1.399 . S
C1178 C1177 1.394 . S
C1178 C1179 1.516 . S
C1179 C1178 1.516 . S
C1179 C1180 1.502 . S
C1179 C1181 1.561 . S
C1179 C1182 1.526 . S
C1180 H1164 0.959 . S
C1180 H1165 0.959 . S
C1180 H1166 0.961 . S
C1180 C1179 1.502 . S
C1181 H1167 0.960 . S
C1181 H1168 0.961 . S
C1181 H1169 0.959 . S
C1181 C1179 1.561 . S
C1182 C1179 1.526 . S
C1182 C1183 1.396 . S
C1182 C1187 1.390 . S
C1183 C1177 1.465 . S
C1183 C1182 1.396 . S
C1183 C1184 1.399 . S
C1184 H1170 0.929 . S
C1184 C1183 1.399 . S
C1184 C1185 1.385 . S
C1185 H1171 0.931 . S
C1185 C1184 1.385 . S
C1185 C1186 1.389 . S
C1186 C1185 1.389 . S
C1186 C1187 1.387 . S
C1187 H1172 0.930 . S
C1187 C1182 1.390 . S
C1187 C1186 1.387 . S
H1188 C1200 0.930 . S
H1189 C1202 0.930 . S
H1190 C1203 0.930 . S
H1191 C1207 0.959 . S
H1192 C1207 0.959 . S
H1193 C1207 0.961 . S
H1194 C1208 0.960 . S
H1195 C1208 0.961 . S
H1196 C1208 0.959 . S
H1197 C1211 0.929 . S
H1198 C1212 0.931 . S
H1199 C1214 0.930 . S
C1200 H1188 0.930 . S
C1200 C1201 1.399 . S
C1200 C1205 1.399 . S
C1201 C1200 1.399 . S
C1201 C1202 1.376 . S
C1202 H1189 0.930 . S
C1202 C1201 1.376 . S
C1202 C1203 1.388 . S
C1203 H1190 0.930 . S
C1203 C1202 1.388 . S
C1203 C1204 1.390 . S
C1204 C1203 1.390 . S
C1204 C1205 1.394 . S
C1204 C1210 1.465 . S
C1205 C1200 1.399 . S
C1205 C1204 1.394 . S
C1205 C1206 1.516 . S
C1206 C1205 1.516 . S
C1206 C1207 1.502 . S
C1206 C1208 1.561 . S
C1206 C1209 1.526 . S
C1207 H1191 0.959 . S
C1207 H1192 0.959 . S
C1207 H1193 0.961 . S
C1207 C1206 1.502 . S
C1208 H1194 0.960 . S
C1208 H1195 0.961 . S
C1208 H1196 0.959 . S
C1208 C1206 1.561 . S
C1209 C1206 1.526 . S
C1209 C1210 1.396 . S
C1209 C1214 1.390 . S
C1210 C1204 1.465 . S
C1210 C1209 1.396 . S
C1210 C1211 1.399 . S
C1211 H1197 0.929 . S
C1211 C1210 1.399 . S
C1211 C1212 1.385 . S
C1212 H1198 0.931 . S
C1212 C1211 1.385 . S
C1212 C1213 1.389 . S
C1213 C1212 1.389 . S
C1213 C1214 1.387 . S
C1214 H1199 0.930 . S
C1214 C1209 1.390 . S
C1214 C1213 1.387 . S
H1215 C1227 0.930 . S
H1216 C1229 0.930 . S
H1217 C1230 0.930 . S
H1218 C1234 0.959 . S
H1219 C1234 0.959 . S
H1220 C1234 0.961 . S
H1221 C1235 0.960 . S
H1222 C1235 0.961 . S
H1223 C1235 0.959 . S
H1224 C1238 0.929 . S
H1225 C1239 0.931 . S
H1226 C1241 0.930 . S
C1227 H1215 0.930 . S
C1227 C1228 1.399 . S
C1227 C1232 1.399 . S
C1228 C1227 1.399 . S
C1228 C1229 1.376 . S
C1229 H1216 0.930 . S
C1229 C1228 1.376 . S
C1229 C1230 1.388 . S
C1230 H1217 0.930 . S
C1230 C1229 1.388 . S
C1230 C1231 1.390 . S
C1231 C1230 1.390 . S
C1231 C1232 1.394 . S
C1231 C1237 1.465 . S
C1232 C1227 1.399 . S
C1232 C1231 1.394 . S
C1232 C1233 1.516 . S
C1233 C1232 1.516 . S
C1233 C1234 1.502 . S
C1233 C1235 1.561 . S
C1233 C1236 1.526 . S
C1234 H1218 0.959 . S
C1234 H1219 0.959 . S
C1234 H1220 0.961 . S
C1234 C1233 1.502 . S
C1235 H1221 0.960 . S
C1235 H1222 0.961 . S
C1235 H1223 0.959 . S
C1235 C1233 1.561 . S
C1236 C1233 1.526 . S
C1236 C1237 1.396 . S
C1236 C1241 1.390 . S
C1237 C1231 1.465 . S
C1237 C1236 1.396 . S
C1237 C1238 1.399 . S
C1238 H1224 0.929 . S
C1238 C1237 1.399 . S
C1238 C1239 1.385 . S
C1239 H1225 0.931 . S
C1239 C1238 1.385 . S
C1239 C1240 1.389 . S
C1240 C1239 1.389 . S
C1240 C1241 1.387 . S
C1241 H1226 0.930 . S
C1241 C1236 1.390 . S
C1241 C1240 1.387 . S
H1242 C1254 0.930 . S
H1243 C1256 0.930 . S
H1244 C1257 0.930 . S
H1245 C1261 0.959 . S
H1246 C1261 0.959 . S
H1247 C1261 0.961 . S
H1248 C1262 0.960 . S
H1249 C1262 0.961 . S
H1250 C1262 0.959 . S
H1251 C1265 0.929 . S
H1252 C1266 0.931 . S
H1253 C1268 0.930 . S
C1254 H1242 0.930 . S
C1254 C1255 1.399 . S
C1254 C1259 1.399 . S
C1255 C1254 1.399 . S
C1255 C1256 1.376 . S
C1256 H1243 0.930 . S
C1256 C1255 1.376 . S
C1256 C1257 1.388 . S
C1257 H1244 0.930 . S
C1257 C1256 1.388 . S
C1257 C1258 1.390 . S
C1258 C1257 1.390 . S
C1258 C1259 1.394 . S
C1258 C1264 1.465 . S
C1259 C1254 1.399 . S
C1259 C1258 1.394 . S
C1259 C1260 1.516 . S
C1260 C1259 1.516 . S
C1260 C1261 1.502 . S
C1260 C1262 1.561 . S
C1260 C1263 1.526 . S
C1261 H1245 0.959 . S
C1261 H1246 0.959 . S
C1261 H1247 0.961 . S
C1261 C1260 1.502 . S
C1262 H1248 0.960 . S
C1262 H1249 0.961 . S
C1262 H1250 0.959 . S
C1262 C1260 1.561 . S
C1263 C1260 1.526 . S
C1263 C1264 1.396 . S
C1263 C1268 1.390 . S
C1264 C1258 1.465 . S
C1264 C1263 1.396 . S
C1264 C1265 1.399 . S
C1265 H1251 0.929 . S
C1265 C1264 1.399 . S
C1265 C1266 1.385 . S
C1266 H1252 0.931 . S
C1266 C1265 1.385 . S
C1266 C1267 1.389 . S
C1267 C1266 1.389 . S
C1267 C1268 1.387 . S
C1268 H1253 0.930 . S
C1268 C1263 1.390 . S
C1268 C1267 1.387 . S
H1269 C1281 0.930 . S
H1270 C1283 0.930 . S
H1271 C1284 0.930 . S
H1272 C1288 0.959 . S
H1273 C1288 0.959 . S
H1274 C1288 0.961 . S
H1275 C1289 0.960 . S
H1276 C1289 0.961 . S
H1277 C1289 0.959 . S
H1278 C1292 0.929 . S
H1279 C1293 0.931 . S
H1280 C1295 0.930 . S
C1281 H1269 0.930 . S
C1281 C1282 1.399 . S
C1281 C1286 1.399 . S
C1282 C1281 1.399 . S
C1282 C1283 1.376 . S
C1283 H1270 0.930 . S
C1283 C1282 1.376 . S
C1283 C1284 1.388 . S
C1284 H1271 0.930 . S
C1284 C1283 1.388 . S
C1284 C1285 1.390 . S
C1285 C1284 1.390 . S
C1285 C1286 1.394 . S
C1285 C1291 1.465 . S
C1286 C1281 1.399 . S
C1286 C1285 1.394 . S
C1286 C1287 1.516 . S
C1287 C1286 1.516 . S
C1287 C1288 1.502 . S
C1287 C1289 1.561 . S
C1287 C1290 1.526 . S
C1288 H1272 0.959 . S
C1288 H1273 0.959 . S
C1288 H1274 0.961 . S
C1288 C1287 1.502 . S
C1289 H1275 0.960 . S
C1289 H1276 0.961 . S
C1289 H1277 0.959 . S
C1289 C1287 1.561 . S
C1290 C1287 1.526 . S
C1290 C1291 1.396 . S
C1290 C1295 1.390 . S
C1291 C1285 1.465 . S
C1291 C1290 1.396 . S
C1291 C1292 1.399 . S
C1292 H1278 0.929 . S
C1292 C1291 1.399 . S
C1292 C1293 1.385 . S
C1293 H1279 0.931 . S
C1293 C1292 1.385 . S
C1293 C1294 1.389 . S
C1294 C1293 1.389 . S
C1294 C1295 1.387 . S
C1295 H1280 0.930 . S
C1295 C1290 1.390 . S
C1295 C1294 1.387 . S
H1296 C1308 0.930 . S
H1297 C1310 0.930 . S
H1298 C1311 0.930 . S
H1299 C1315 0.959 . S
H1300 C1315 0.959 . S
H1301 C1315 0.961 . S
H1302 C1316 0.960 . S
H1303 C1316 0.961 . S
H1304 C1316 0.959 . S
H1305 C1319 0.929 . S
H1306 C1320 0.931 . S
H1307 C1322 0.930 . S
C1308 H1296 0.930 . S
C1308 C1309 1.399 . S
C1308 C1313 1.399 . S
C1309 C1308 1.399 . S
C1309 C1310 1.376 . S
C1310 H1297 0.930 . S
C1310 C1309 1.376 . S
C1310 C1311 1.388 . S
C1311 H1298 0.930 . S
C1311 C1310 1.388 . S
C1311 C1312 1.390 . S
C1312 C1311 1.390 . S
C1312 C1313 1.394 . S
C1312 C1318 1.465 . S
C1313 C1308 1.399 . S
C1313 C1312 1.394 . S
C1313 C1314 1.516 . S
C1314 C1313 1.516 . S
C1314 C1315 1.502 . S
C1314 C1316 1.561 . S
C1314 C1317 1.526 . S
C1315 H1299 0.959 . S
C1315 H1300 0.959 . S
C1315 H1301 0.961 . S
C1315 C1314 1.502 . S
C1316 H1302 0.960 . S
C1316 H1303 0.961 . S
C1316 H1304 0.959 . S
C1316 C1314 1.561 . S
C1317 C1314 1.526 . S
C1317 C1318 1.396 . S
C1317 C1322 1.390 . S
C1318 C1312 1.465 . S
C1318 C1317 1.396 . S
C1318 C1319 1.399 . S
C1319 H1305 0.929 . S
C1319 C1318 1.399 . S
C1319 C1320 1.385 . S
C1320 H1306 0.931 . S
C1320 C1319 1.385 . S
C1320 C1321 1.389 . S
C1321 C1320 1.389 . S
C1321 C1322 1.387 . S
C1322 H1307 0.930 . S
C1322 C1317 1.390 . S
C1322 C1321 1.387 . S
H1323 C1335 0.930 . S
H1324 C1337 0.930 . S
H1325 C1338 0.930 . S
H1326 C1342 0.959 . S
H1327 C1342 0.959 . S
H1328 C1342 0.961 . S
H1329 C1343 0.960 . S
H1330 C1343 0.961 . S
H1331 C1343 0.959 . S
H1332 C1346 0.929 . S
H1333 C1347 0.931 . S
H1334 C1349 0.930 . S
C1335 H1323 0.930 . S
C1335 C1336 1.399 . S
C1335 C1340 1.399 . S
C1336 C1335 1.399 . S
C1336 C1337 1.376 . S
C1337 H1324 0.930 . S
C1337 C1336 1.376 . S
C1337 C1338 1.388 . S
C1338 H1325 0.930 . S
C1338 C1337 1.388 . S
C1338 C1339 1.390 . S
C1339 C1338 1.390 . S
C1339 C1340 1.394 . S
C1339 C1345 1.465 . S
C1340 C1335 1.399 . S
C1340 C1339 1.394 . S
C1340 C1341 1.516 . S
C1341 C1340 1.516 . S
C1341 C1342 1.502 . S
C1341 C1343 1.561 . S
C1341 C1344 1.526 . S
C1342 H1326 0.959 . S
C1342 H1327 0.959 . S
C1342 H1328 0.961 . S
C1342 C1341 1.502 . S
C1343 H1329 0.960 . S
C1343 H1330 0.961 . S
C1343 H1331 0.959 . S
C1343 C1341 1.561 . S
C1344 C1341 1.526 . S
C1344 C1345 1.396 . S
C1344 C1349 1.390 . S
C1345 C1339 1.465 . S
C1345 C1344 1.396 . S
C1345 C1346 1.399 . S
C1346 H1332 0.929 . S
C1346 C1345 1.399 . S
C1346 C1347 1.385 . S
C1347 H1333 0.931 . S
C1347 C1346 1.385 . S
C1347 C1348 1.389 . S
C1348 C1347 1.389 . S
C1348 C1349 1.387 . S
C1349 H1334 0.930 . S
C1349 C1344 1.390 . S
C1349 C1348 1.387 . S
H1350 C1362 0.930 . S
H1351 C1364 0.930 . S
H1352 C1365 0.930 . S
H1353 C1369 0.959 . S
H1354 C1369 0.959 . S
H1355 C1369 0.961 . S
H1356 C1370 0.960 . S
H1357 C1370 0.961 . S
H1358 C1370 0.959 . S
H1359 C1373 0.929 . S
H1360 C1374 0.931 . S
H1361 C1376 0.930 . S
C1362 H1350 0.930 . S
C1362 C1363 1.399 . S
C1362 C1367 1.399 . S
C1363 C1362 1.399 . S
C1363 C1364 1.376 . S
C1364 H1351 0.930 . S
C1364 C1363 1.376 . S
C1364 C1365 1.388 . S
C1365 H1352 0.930 . S
C1365 C1364 1.388 . S
C1365 C1366 1.390 . S
C1366 C1365 1.390 . S
C1366 C1367 1.394 . S
C1366 C1372 1.465 . S
C1367 C1362 1.399 . S
C1367 C1366 1.394 . S
C1367 C1368 1.516 . S
C1368 C1367 1.516 . S
C1368 C1369 1.502 . S
C1368 C1370 1.561 . S
C1368 C1371 1.526 . S
C1369 H1353 0.959 . S
C1369 H1354 0.959 . S
C1369 H1355 0.961 . S
C1369 C1368 1.502 . S
C1370 H1356 0.960 . S
C1370 H1357 0.961 . S
C1370 H1358 0.959 . S
C1370 C1368 1.561 . S
C1371 C1368 1.526 . S
C1371 C1372 1.396 . S
C1371 C1376 1.390 . S
C1372 C1366 1.465 . S
C1372 C1371 1.396 . S
C1372 C1373 1.399 . S
C1373 H1359 0.929 . S
C1373 C1372 1.399 . S
C1373 C1374 1.385 . S
C1374 H1360 0.931 . S
C1374 C1373 1.385 . S
C1374 C1375 1.389 . S
C1375 C1374 1.389 . S
C1375 C1376 1.387 . S
C1376 H1361 0.930 . S
C1376 C1371 1.390 . S
C1376 C1375 1.387 . S
H1377 C1389 0.930 . S
H1378 C1391 0.930 . S
H1379 C1392 0.930 . S
H1380 C1396 0.959 . S
H1381 C1396 0.959 . S
H1382 C1396 0.961 . S
H1383 C1397 0.960 . S
H1384 C1397 0.961 . S
H1385 C1397 0.959 . S
H1386 C1400 0.929 . S
H1387 C1401 0.931 . S
H1388 C1403 0.930 . S
C1389 H1377 0.930 . S
C1389 C1390 1.399 . S
C1389 C1394 1.399 . S
C1390 C1389 1.399 . S
C1390 C1391 1.376 . S
C1391 H1378 0.930 . S
C1391 C1390 1.376 . S
C1391 C1392 1.388 . S
C1392 H1379 0.930 . S
C1392 C1391 1.388 . S
C1392 C1393 1.390 . S
C1393 C1392 1.390 . S
C1393 C1394 1.394 . S
C1393 C1399 1.465 . S
C1394 C1389 1.399 . S
C1394 C1393 1.394 . S
C1394 C1395 1.516 . S
C1395 C1394 1.516 . S
C1395 C1396 1.502 . S
C1395 C1397 1.561 . S
C1395 C1398 1.526 . S
C1396 H1380 0.959 . S
C1396 H1381 0.959 . S
C1396 H1382 0.961 . S
C1396 C1395 1.502 . S
C1397 H1383 0.960 . S
C1397 H1384 0.961 . S
C1397 H1385 0.959 . S
C1397 C1395 1.561 . S
C1398 C1395 1.526 . S
C1398 C1399 1.396 . S
C1398 C1403 1.390 . S
C1399 C1393 1.465 . S
C1399 C1398 1.396 . S
C1399 C1400 1.399 . S
C1400 H1386 0.929 . S
C1400 C1399 1.399 . S
C1400 C1401 1.385 . S
C1401 H1387 0.931 . S
C1401 C1400 1.385 . S
C1401 C1402 1.389 . S
C1402 C1401 1.389 . S
C1402 C1403 1.387 . S
C1403 H1388 0.930 . S
C1403 C1398 1.390 . S
C1403 C1402 1.387 . S
H1404 C1416 0.930 . S
H1405 C1418 0.930 . S
H1406 C1419 0.930 . S
H1407 C1423 0.959 . S
H1408 C1423 0.959 . S
H1409 C1423 0.961 . S
H1410 C1424 0.960 . S
H1411 C1424 0.961 . S
H1412 C1424 0.959 . S
H1413 C1427 0.929 . S
H1414 C1428 0.931 . S
H1415 C1430 0.930 . S
C1416 H1404 0.930 . S
C1416 C1417 1.399 1_556 S
C1416 C1421 1.399 . S
C1417 C1416 1.399 1_554 S
C1417 C1418 1.376 . S
C1418 H1405 0.930 . S
C1418 C1417 1.376 . S
C1418 C1419 1.388 . S
C1419 H1406 0.930 . S
C1419 C1418 1.388 . S
C1419 C1420 1.390 . S
C1420 C1419 1.390 . S
C1420 C1421 1.394 1_554 S
C1420 C1426 1.465 . S
C1421 C1416 1.399 . S
C1421 C1420 1.394 1_556 S
C1421 C1422 1.516 . S
C1422 C1421 1.516 . S
C1422 C1423 1.502 . S
C1422 C1424 1.561 . S
C1422 C1425 1.526 . S
C1423 H1407 0.959 . S
C1423 H1408 0.959 . S
C1423 H1409 0.961 . S
C1423 C1422 1.502 . S
C1424 H1410 0.960 . S
C1424 H1411 0.961 . S
C1424 H1412 0.959 . S
C1424 C1422 1.561 . S
C1425 C1422 1.526 . S
C1425 C1426 1.396 1_556 S
C1425 C1430 1.390 . S
C1426 C1420 1.465 . S
C1426 C1425 1.396 1_554 S
C1426 C1427 1.399 . S
C1427 H1413 0.929 . S
C1427 C1426 1.399 . S
C1427 C1428 1.385 . S
C1428 H1414 0.931 . S
C1428 C1427 1.385 . S
C1428 C1429 1.389 . S
C1429 C1428 1.389 . S
C1429 C1430 1.387 1_554 S
C1430 H1415 0.930 . S
C1430 C1425 1.390 . S
C1430 C1429 1.387 1_556 S
H1431 C1443 0.942 . S
H1432 C1445 0.930 . S
H1433 C1446 0.930 . S
H1434 C1450 0.959 . S
H1435 C1450 0.959 . S
H1436 C1450 0.961 . S
H1437 C1451 0.960 . S
H1438 C1451 0.961 . S
H1439 C1451 0.959 . S
H1440 C1454 0.929 . S
H1441 C1455 0.931 . S
H1442 C1457 0.930 . S
C1443 H1431 0.942 . S
C1443 C1444 1.388 1_556 S
C1443 C1448 1.397 1_556 S
C1444 C1443 1.388 1_554 S
C1444 C1445 1.376 . S
C1445 H1432 0.930 . S
C1445 C1444 1.376 . S
C1445 C1446 1.388 . S
C1446 H1433 0.930 . S
C1446 C1445 1.388 . S
C1446 C1447 1.390 . S
C1447 C1446 1.390 . S
C1447 C1448 1.394 . S
C1447 C1453 1.465 . S
C1448 C1443 1.397 1_554 S
C1448 C1447 1.394 . S
C1448 C1449 1.516 1_554 S
C1449 C1448 1.516 1_556 S
C1449 C1450 1.502 . S
C1449 C1451 1.561 . S
C1449 C1452 1.526 1_556 S
C1450 H1434 0.959 . S
C1450 H1435 0.959 . S
C1450 H1436 0.961 . S
C1450 C1449 1.502 . S
C1451 H1437 0.960 . S
C1451 H1438 0.961 . S
C1451 H1439 0.959 . S
C1451 C1449 1.561 . S
C1452 C1449 1.526 1_554 S
C1452 C1453 1.396 . S
C1452 C1457 1.390 1_554 S
C1453 C1447 1.465 . S
C1453 C1452 1.396 . S
C1453 C1454 1.399 . S
C1454 H1440 0.929 . S
C1454 C1453 1.399 . S
C1454 C1455 1.385 . S
C1455 H1441 0.931 . S
C1455 C1454 1.385 . S
C1455 C1456 1.389 . S
C1456 C1455 1.389 . S
C1456 C1457 1.387 1_554 S
C1457 H1442 0.930 . S
C1457 C1452 1.390 1_556 S
C1457 C1456 1.387 1_556 S
H1458 C1470 0.930 . S
H1459 C1472 0.930 . S
H1460 C1473 0.930 . S
H1461 C1477 0.959 . S
H1462 C1477 0.959 . S
H1463 C1477 0.961 . S
H1464 C1478 0.960 . S
H1465 C1478 0.961 . S
H1466 C1478 0.959 . S
H1467 C1481 0.929 . S
H1468 C1482 0.931 . S
H1469 C1484 0.930 . S
C1470 H1458 0.930 . S
C1470 C1471 1.399 . S
C1470 C1475 1.399 . S
C1471 C1470 1.399 . S
C1471 C1472 1.376 1_554 S
C1472 H1459 0.930 . S
C1472 C1471 1.376 1_556 S
C1472 C1473 1.388 . S
C1473 H1460 0.930 . S
C1473 C1472 1.388 . S
C1473 C1474 1.390 1_556 S
C1474 C1473 1.390 1_554 S
C1474 C1475 1.394 . S
C1474 C1480 1.465 . S
C1475 C1470 1.399 . S
C1475 C1474 1.394 . S
C1475 C1476 1.516 . S
C1476 C1475 1.516 . S
C1476 C1477 1.502 . S
C1476 C1478 1.561 . S
C1476 C1479 1.526 . S
C1477 H1461 0.959 . S
C1477 H1462 0.959 . S
C1477 H1463 0.961 . S
C1477 C1476 1.502 . S
C1478 H1464 0.960 . S
C1478 H1465 0.961 . S
C1478 H1466 0.959 . S
C1478 C1476 1.561 . S
C1479 C1476 1.526 . S
C1479 C1480 1.396 . S
C1479 C1484 1.390 . S
C1480 C1474 1.465 . S
C1480 C1479 1.396 . S
C1480 C1481 1.399 1_554 S
C1481 H1467 0.929 . S
C1481 C1480 1.399 1_556 S
C1481 C1482 1.385 . S
C1482 H1468 0.931 . S
C1482 C1481 1.385 . S
C1482 C1483 1.389 1_556 S
C1483 C1482 1.389 1_554 S
C1483 C1484 1.387 . S
C1484 H1469 0.930 . S
C1484 C1479 1.390 . S
C1484 C1483 1.387 . S
H1485 C1497 0.930 . S
H1486 C1499 0.930 . S
H1487 C1500 0.930 . S
H1488 C1504 0.959 . S
H1489 C1504 0.959 . S
H1490 C1504 0.961 . S
H1491 C1505 0.960 . S
H1492 C1505 0.961 . S
H1493 C1505 0.959 . S
H1494 C1508 0.929 . S
H1495 C1509 0.931 . S
H1496 C1511 0.930 . S
C1497 H1485 0.930 . S
C1497 C1498 1.399 1_556 S
C1497 C1502 1.399 . S
C1498 C1497 1.399 1_554 S
C1498 C1499 1.376 . S
C1499 H1486 0.930 . S
C1499 C1498 1.376 . S
C1499 C1500 1.388 . S
C1500 H1487 0.930 . S
C1500 C1499 1.388 . S
C1500 C1501 1.390 . S
C1501 C1500 1.390 . S
C1501 C1502 1.394 1_554 S
C1501 C1507 1.465 . S
C1502 C1497 1.399 . S
C1502 C1501 1.394 1_556 S
C1502 C1503 1.516 . S
C1503 C1502 1.516 . S
C1503 C1504 1.502 . S
C1503 C1505 1.561 . S
C1503 C1506 1.526 . S
C1504 H1488 0.959 . S
C1504 H1489 0.959 . S
C1504 H1490 0.961 . S
C1504 C1503 1.502 . S
C1505 H1491 0.960 . S
C1505 H1492 0.961 . S
C1505 H1493 0.959 . S
C1505 C1503 1.561 . S
C1506 C1503 1.526 . S
C1506 C1507 1.396 1_556 S
C1506 C1511 1.390 . S
C1507 C1501 1.465 . S
C1507 C1506 1.396 1_554 S
C1507 C1508 1.399 . S
C1508 H1494 0.929 . S
C1508 C1507 1.399 . S
C1508 C1509 1.385 . S
C1509 H1495 0.931 . S
C1509 C1508 1.385 . S
C1509 C1510 1.389 . S
C1510 C1509 1.389 . S
C1510 C1511 1.387 1_554 S
C1511 H1496 0.930 . S
C1511 C1506 1.390 . S
C1511 C1510 1.387 1_556 S
H1512 C1524 0.932 . S
H1513 C1526 0.930 . S
H1514 C1527 0.930 . S
H1515 C1531 0.959 . S
H1516 C1531 0.959 . S
H1517 C1531 0.961 . S
H1518 C1532 0.960 . S
H1519 C1532 0.961 . S
H1520 C1532 0.959 . S
H1521 C1535 0.929 . S
H1522 C1536 0.931 . S
H1523 C1538 0.930 . S
C1524 H1512 0.932 . S
C1524 C1525 1.398 1_655 S
C1524 C1529 1.398 1_655 S
C1525 C1524 1.398 1_455 S
C1525 C1526 1.377 . S
C1526 H1513 0.930 . S
C1526 C1525 1.377 . S
C1526 C1527 1.388 . S
C1527 H1514 0.930 . S
C1527 C1526 1.388 . S
C1527 C1528 1.390 . S
C1528 C1527 1.390 . S
C1528 C1529 1.394 . S
C1528 C1534 1.465 . S
C1529 C1524 1.398 1_455 S
C1529 C1528 1.394 . S
C1529 C1530 1.515 1_455 S
C1530 C1529 1.515 1_655 S
C1530 C1531 1.493 1_655 S
C1530 C1532 1.574 . S
C1530 C1533 1.523 1_655 S
C1531 H1515 0.959 . S
C1531 H1516 0.959 . S
C1531 H1517 0.961 . S
C1531 C1530 1.493 1_455 S
C1532 H1518 0.960 . S
C1532 H1519 0.961 . S
C1532 H1520 0.959 . S
C1532 C1530 1.574 . S
C1533 C1530 1.523 1_455 S
C1533 C1534 1.396 . S
C1533 C1538 1.390 . S
C1534 C1528 1.465 . S
C1534 C1533 1.396 . S
C1534 C1535 1.399 . S
C1535 H1521 0.929 . S
C1535 C1534 1.399 . S
C1535 C1536 1.385 . S
C1536 H1522 0.931 . S
C1536 C1535 1.385 . S
C1536 C1537 1.389 . S
C1537 C1536 1.389 . S
C1537 C1538 1.387 . S
C1538 H1523 0.930 . S
C1538 C1533 1.390 . S
C1538 C1537 1.387 . S
H1539 C1551 0.930 . S
H1540 C1553 0.930 . S
H1541 C1554 0.930 . S
H1542 C1558 0.959 . S
H1543 C1558 0.959 . S
H1544 C1558 0.961 . S
H1545 C1559 0.960 . S
H1546 C1559 0.961 . S
H1547 C1559 0.959 . S
H1548 C1562 0.929 . S
H1549 C1563 0.931 . S
H1550 C1565 0.930 . S
C1551 H1539 0.930 . S
C1551 C1552 1.399 . S
C1551 C1556 1.399 . S
C1552 C1551 1.399 . S
C1552 C1553 1.376 1_545 S
C1553 H1540 0.930 . S
C1553 C1552 1.376 1_565 S
C1553 C1554 1.388 . S
C1554 H1541 0.930 . S
C1554 C1553 1.388 . S
C1554 C1555 1.394 . S
C1555 C1554 1.394 . S
C1555 C1556 1.389 1_565 S
C1555 C1561 1.465 1_565 S
C1556 C1551 1.399 . S
C1556 C1555 1.389 1_545 S
C1556 C1557 1.516 . S
C1557 C1556 1.516 . S
C1557 C1558 1.502 . S
C1557 C1559 1.561 . S
C1557 C1560 1.526 . S
C1558 H1542 0.959 . S
C1558 H1543 0.959 . S
C1558 H1544 0.961 . S
C1558 C1557 1.502 . S
C1559 H1545 0.960 . S
C1559 H1546 0.961 . S
C1559 H1547 0.959 . S
C1559 C1557 1.561 . S
C1560 C1557 1.526 . S
C1560 C1561 1.396 . S
C1560 C1565 1.390 . S
C1561 C1555 1.465 1_545 S
C1561 C1560 1.396 . S
C1561 C1562 1.399 1_545 S
C1562 H1548 0.929 . S
C1562 C1561 1.399 1_565 S
C1562 C1563 1.385 . S
C1563 H1549 0.931 . S
C1563 C1562 1.385 . S
C1563 C1564 1.389 1_565 S
C1564 C1563 1.389 1_545 S
C1564 C1565 1.387 . S
C1565 H1550 0.930 . S
C1565 C1560 1.390 . S
C1565 C1564 1.387 . S
H1566 C1578 0.930 . S
H1567 C1580 0.930 . S
H1568 C1581 0.930 1_655 S
H1569 C1585 0.959 . S
H1570 C1585 0.959 . S
H1571 C1585 0.961 . S
H1572 C1586 0.960 . S
H1573 C1586 0.961 . S
H1574 C1586 0.959 . S
H1575 C1589 0.929 1_655 S
H1576 C1590 0.931 1_655 S
H1577 C1592 0.930 . S
C1578 H1566 0.930 . S
C1578 C1579 1.399 . S
C1578 C1583 1.399 . S
C1579 C1578 1.399 . S
C1579 C1580 1.376 . S
C1580 H1567 0.930 . S
C1580 C1579 1.376 . S
C1580 C1581 1.388 . S
C1581 H1568 0.930 1_455 S
C1581 C1580 1.388 . S
C1581 C1582 1.390 . S
C1582 C1581 1.390 . S
C1582 C1583 1.394 . S
C1582 C1588 1.465 . S
C1583 C1578 1.399 . S
C1583 C1582 1.394 . S
C1583 C1584 1.516 . S
C1584 C1583 1.516 . S
C1584 C1585 1.502 . S
C1584 C1586 1.561 . S
C1584 C1587 1.526 . S
C1585 H1569 0.959 . S
C1585 H1570 0.959 . S
C1585 H1571 0.961 . S
C1585 C1584 1.502 . S
C1586 H1572 0.960 . S
C1586 H1573 0.961 . S
C1586 H1574 0.959 . S
C1586 C1584 1.561 . S
C1587 C1584 1.526 . S
C1587 C1588 1.396 . S
C1587 C1592 1.390 . S
C1588 C1582 1.465 . S
C1588 C1587 1.396 . S
C1588 C1589 1.399 . S
C1589 H1575 0.929 1_455 S
C1589 C1588 1.399 . S
C1589 C1590 1.385 . S
C1590 H1576 0.931 1_455 S
C1590 C1589 1.385 . S
C1590 C1591 1.389 . S
C1591 C1590 1.389 . S
C1591 C1592 1.387 . S
C1592 H1577 0.930 . S
C1592 C1587 1.390 . S
C1592 C1591 1.387 . S
H1593 C1605 0.930 . S
H1594 C1607 0.930 1_565 S
H1595 C1608 0.930 1_565 S
H1596 C1612 0.959 . S
H1597 C1612 0.959 . S
H1598 C1612 0.961 . S
H1599 C1613 0.960 . S
H1600 C1613 0.961 . S
H1601 C1613 0.959 . S
H1602 C1616 0.929 . S
H1603 C1617 0.957 . S
H1604 C1619 0.930 . S
C1605 H1593 0.930 . S
C1605 C1606 1.399 . S
C1605 C1610 1.399 . S
C1606 C1605 1.399 . S
C1606 C1607 1.376 . S
C1607 H1594 0.930 1_545 S
C1607 C1606 1.376 . S
C1607 C1608 1.388 . S
C1608 H1595 0.930 1_545 S
C1608 C1607 1.388 . S
C1608 C1609 1.390 . S
C1609 C1608 1.390 . S
C1609 C1610 1.394 . S
C1609 C1615 1.465 . S
C1610 C1605 1.399 . S
C1610 C1609 1.394 . S
C1610 C1611 1.516 . S
C1611 C1610 1.516 . S
C1611 C1612 1.502 . S
C1611 C1613 1.561 . S
C1611 C1614 1.526 . S
C1612 H1596 0.959 . S
C1612 H1597 0.959 . S
C1612 H1598 0.961 . S
C1612 C1611 1.502 . S
C1613 H1599 0.960 . S
C1613 H1600 0.961 . S
C1613 H1601 0.959 . S
C1613 C1611 1.561 . S
C1614 C1611 1.526 . S
C1614 C1615 1.396 . S
C1614 C1619 1.390 . S
C1615 C1609 1.465 . S
C1615 C1614 1.396 . S
C1615 C1616 1.399 1_545 S
C1616 H1602 0.929 . S
C1616 C1615 1.399 1_565 S
C1616 C1617 1.389 . S
C1617 H1603 0.957 . S
C1617 C1616 1.389 . S
C1617 C1618 1.360 1_565 S
C1618 C1617 1.360 1_545 S
C1618 C1619 1.387 . S
C1619 H1604 0.930 . S
C1619 C1614 1.390 . S
C1619 C1618 1.387 . S
H1620 C1632 0.930 . S
H1621 C1634 0.930 . S
H1622 C1635 0.930 . S
H1623 C1639 0.959 . S
H1624 C1639 0.959 . S
H1625 C1639 0.961 . S
H1626 C1640 0.960 . S
H1627 C1640 0.961 . S
H1628 C1640 0.959 . S
H1629 C1643 0.929 . S
H1630 C1644 0.931 . S
H1631 C1646 0.930 . S
C1632 H1620 0.930 . S
C1632 C1633 1.399 . S
C1632 C1637 1.399 . S
C1633 C1632 1.399 . S
C1633 C1634 1.376 . S
C1634 H1621 0.930 . S
C1634 C1633 1.376 . S
C1634 C1635 1.388 . S
C1635 H1622 0.930 . S
C1635 C1634 1.388 . S
C1635 C1636 1.390 . S
C1636 C1635 1.390 . S
C1636 C1637 1.394 . S
C1636 C1642 1.465 . S
C1637 C1632 1.399 . S
C1637 C1636 1.394 . S
C1637 C1638 1.516 . S
C1638 C1637 1.516 . S
C1638 C1639 1.502 . S
C1638 C1640 1.561 . S
C1638 C1641 1.526 . S
C1639 H1623 0.959 . S
C1639 H1624 0.959 . S
C1639 H1625 0.961 . S
C1639 C1638 1.502 . S
C1640 H1626 0.960 . S
C1640 H1627 0.961 . S
C1640 H1628 0.959 . S
C1640 C1638 1.561 . S
C1641 C1638 1.526 . S
C1641 C1642 1.396 . S
C1641 C1646 1.390 . S
C1642 C1636 1.465 . S
C1642 C1641 1.396 . S
C1642 C1643 1.399 . S
C1643 H1629 0.929 . S
C1643 C1642 1.399 . S
C1643 C1644 1.385 . S
C1644 H1630 0.931 . S
C1644 C1643 1.385 . S
C1644 C1645 1.389 . S
C1645 C1644 1.389 . S
C1645 C1646 1.387 . S
C1646 H1631 0.930 . S
C1646 C1641 1.390 . S
C1646 C1645 1.387 . S
H1647 C1659 0.930 . S
H1648 C1661 0.930 . S
H1649 C1662 0.930 . S
H1650 C1666 0.959 . S
H1651 C1666 0.959 . S
H1652 C1666 0.961 . S
H1653 C1667 0.960 . S
H1654 C1667 0.961 . S
H1655 C1667 0.959 1_565 S
H1656 C1670 0.929 . S
H1657 C1671 0.931 . S
H1658 C1673 0.930 . S
C1659 H1647 0.930 . S
C1659 C1660 1.399 . S
C1659 C1664 1.399 . S
C1660 C1659 1.399 . S
C1660 C1661 1.376 . S
C1661 H1648 0.930 . S
C1661 C1660 1.376 . S
C1661 C1662 1.388 . S
C1662 H1649 0.930 . S
C1662 C1661 1.388 . S
C1662 C1663 1.390 . S
C1663 C1662 1.390 . S
C1663 C1664 1.394 . S
C1663 C1669 1.465 . S
C1664 C1659 1.399 . S
C1664 C1663 1.394 . S
C1664 C1665 1.516 . S
C1665 C1664 1.516 . S
C1665 C1666 1.502 . S
C1665 C1667 1.561 . S
C1665 C1668 1.526 . S
C1666 H1650 0.959 . S
C1666 H1651 0.959 . S
C1666 H1652 0.961 . S
C1666 C1665 1.502 . S
C1667 H1653 0.960 . S
C1667 H1654 0.961 . S
C1667 H1655 0.959 1_545 S
C1667 C1665 1.561 . S
C1668 C1665 1.526 . S
C1668 C1669 1.396 . S
C1668 C1673 1.390 . S
C1669 C1663 1.465 . S
C1669 C1668 1.396 . S
C1669 C1670 1.399 . S
C1670 H1656 0.929 . S
C1670 C1669 1.399 . S
C1670 C1671 1.385 . S
C1671 H1657 0.931 . S
C1671 C1670 1.385 . S
C1671 C1672 1.389 . S
C1672 C1671 1.389 . S
C1672 C1673 1.387 . S
C1673 H1658 0.930 . S
C1673 C1668 1.390 . S
C1673 C1672 1.387 . S
H1674 C1686 0.930 . S
H1675 C1688 0.930 . S
H1676 C1689 0.917 1_655 S
H1677 C1693 0.959 . S
H1678 C1693 0.959 . S
H1679 C1693 0.961 . S
H1680 C1694 0.960 . S
H1681 C1694 0.961 . S
H1682 C1694 0.963 1_655 S
H1683 C1697 0.946 . S
H1684 C1698 0.931 . S
H1685 C1700 0.930 . S
C1686 H1674 0.930 . S
C1686 C1687 1.399 . S
C1686 C1691 1.399 . S
C1687 C1686 1.399 . S
C1687 C1688 1.376 . S
C1688 H1675 0.930 . S
C1688 C1687 1.376 . S
C1688 C1689 1.388 . S
C1689 H1676 0.917 1_455 S
C1689 C1688 1.388 . S
C1689 C1690 1.390 . S
C1690 C1689 1.390 . S
C1690 C1691 1.394 . S
C1690 C1696 1.465 . S
C1691 C1686 1.399 . S
C1691 C1690 1.394 . S
C1691 C1692 1.516 . S
C1692 C1691 1.516 . S
C1692 C1693 1.502 . S
C1692 C1694 1.561 . S
C1692 C1695 1.526 . S
C1693 H1677 0.959 . S
C1693 H1678 0.959 . S
C1693 H1679 0.961 . S
C1693 C1692 1.502 . S
C1694 H1680 0.960 . S
C1694 H1681 0.961 . S
C1694 H1682 0.963 1_455 S
C1694 C1692 1.561 . S
C1695 C1692 1.526 . S
C1695 C1696 1.396 . S
C1695 C1700 1.390 . S
C1696 C1690 1.465 . S
C1696 C1695 1.396 . S
C1696 C1697 1.399 . S
C1697 H1683 0.946 . S
C1697 C1696 1.399 . S
C1697 C1698 1.385 . S
C1698 H1684 0.931 . S
C1698 C1697 1.385 . S
C1698 C1699 1.389 . S
C1699 C1698 1.389 . S
C1699 C1700 1.387 . S
C1700 H1685 0.930 . S
C1700 C1695 1.390 . S
C1700 C1699 1.387 . S
H1701 C1713 0.930 . S
H1702 C1715 0.930 . S
H1703 C1716 0.930 . S
H1704 C1720 0.959 . S
H1705 C1720 0.959 . S
H1706 C1720 0.961 . S
H1707 C1721 0.960 . S
H1708 C1721 0.961 . S
H1709 C1721 0.959 . S
H1710 C1724 0.929 . S
H1711 C1725 0.931 . S
H1712 C1727 0.915 1_565 S
C1713 H1701 0.930 . S
C1713 C1714 1.399 1_565 S
C1713 C1718 1.399 . S
C1714 C1713 1.399 1_545 S
C1714 C1715 1.376 . S
C1715 H1702 0.930 . S
C1715 C1714 1.376 . S
C1715 C1716 1.388 . S
C1716 H1703 0.930 . S
C1716 C1715 1.388 . S
C1716 C1717 1.390 . S
C1717 C1716 1.390 . S
C1717 C1718 1.394 1_545 S
C1717 C1723 1.465 . S
C1718 C1713 1.399 . S
C1718 C1717 1.394 1_565 S
C1718 C1719 1.516 . S
C1719 C1718 1.516 . S
C1719 C1720 1.502 . S
C1719 C1721 1.561 . S
C1719 C1722 1.526 1_565 S
C1720 H1704 0.959 . S
C1720 H1705 0.959 . S
C1720 H1706 0.961 . S
C1720 C1719 1.502 . S
C1721 H1707 0.960 . S
C1721 H1708 0.961 . S
C1721 H1709 0.959 . S
C1721 C1719 1.561 . S
C1722 C1719 1.526 1_545 S
C1722 C1723 1.396 . S
C1722 C1727 1.391 . S
C1723 C1717 1.465 . S
C1723 C1722 1.396 . S
C1723 C1724 1.399 . S
C1724 H1710 0.929 . S
C1724 C1723 1.399 . S
C1724 C1725 1.385 . S
C1725 H1711 0.931 . S
C1725 C1724 1.385 . S
C1725 C1726 1.389 . S
C1726 C1725 1.389 . S
C1726 C1727 1.401 . S
C1727 H1712 0.915 1_545 S
C1727 C1722 1.391 . S
C1727 C1726 1.401 . S
H1728 C1740 0.930 . S
H1729 C1742 0.954 . S
H1730 C1743 0.930 1_655 S
H1731 C1747 0.959 . S
H1732 C1747 0.959 . S
H1733 C1747 0.961 . S
H1734 C1748 0.960 . S
H1735 C1748 0.961 . S
H1736 C1748 0.959 . S
H1737 C1751 0.929 1_655 S
H1738 C1752 0.931 1_655 S
H1739 C1754 0.930 . S
C1740 H1728 0.930 . S
C1740 C1741 1.399 . S
C1740 C1745 1.399 . S
C1741 C1740 1.399 . S
C1741 C1742 1.376 . S
C1742 H1729 0.954 . S
C1742 C1741 1.376 . S
C1742 C1743 1.388 . S
C1743 H1730 0.930 1_455 S
C1743 C1742 1.388 . S
C1743 C1744 1.390 . S
C1744 C1743 1.390 . S
C1744 C1745 1.394 . S
C1744 C1750 1.465 . S
C1745 C1740 1.399 . S
C1745 C1744 1.394 . S
C1745 C1746 1.516 . S
C1746 C1745 1.516 . S
C1746 C1747 1.502 . S
C1746 C1748 1.561 . S
C1746 C1749 1.526 . S
C1747 H1731 0.959 . S
C1747 H1732 0.959 . S
C1747 H1733 0.961 . S
C1747 C1746 1.502 . S
C1748 H1734 0.960 . S
C1748 H1735 0.961 . S
C1748 H1736 0.959 . S
C1748 C1746 1.561 . S
C1749 C1746 1.526 . S
C1749 C1750 1.396 . S
C1749 C1754 1.390 . S
C1750 C1744 1.465 . S
C1750 C1749 1.396 . S
C1750 C1751 1.399 . S
C1751 H1737 0.929 1_455 S
C1751 C1750 1.399 . S
C1751 C1752 1.385 . S
C1752 H1738 0.931 1_455 S
C1752 C1751 1.385 . S
C1752 C1753 1.389 . S
C1753 C1752 1.389 . S
C1753 C1754 1.387 . S
C1754 H1739 0.930 . S
C1754 C1749 1.390 . S
C1754 C1753 1.387 . S
H1755 C1767 0.930 . S
H1756 C1769 0.914 1_565 S
H1757 C1770 0.930 1_565 S
H1758 C1774 0.959 . S
H1759 C1774 0.959 . S
H1760 C1774 0.961 . S
H1761 C1775 0.960 . S
H1762 C1775 0.961 . S
H1763 C1775 0.959 . S
H1764 C1778 0.929 . S
H1765 C1779 0.931 . S
H1766 C1781 0.930 . S
C1767 H1755 0.930 . S
C1767 C1768 1.399 . S
C1767 C1772 1.399 . S
C1768 C1767 1.399 . S
C1768 C1769 1.376 . S
C1769 H1756 0.914 1_545 S
C1769 C1768 1.376 . S
C1769 C1770 1.388 . S
C1770 H1757 0.930 1_545 S
C1770 C1769 1.388 . S
C1770 C1771 1.390 . S
C1771 C1770 1.390 . S
C1771 C1772 1.394 . S
C1771 C1777 1.465 . S
C1772 C1767 1.399 . S
C1772 C1771 1.394 . S
C1772 C1773 1.516 . S
C1773 C1772 1.516 . S
C1773 C1774 1.502 . S
C1773 C1775 1.561 . S
C1773 C1776 1.526 . S
C1774 H1758 0.959 . S
C1774 H1759 0.959 . S
C1774 H1760 0.961 . S
C1774 C1773 1.502 . S
C1775 H1761 0.960 . S
C1775 H1762 0.961 . S
C1775 H1763 0.959 . S
C1775 C1773 1.561 . S
C1776 C1773 1.526 . S
C1776 C1777 1.396 . S
C1776 C1781 1.390 . S
C1777 C1771 1.465 . S
C1777 C1776 1.396 . S
C1777 C1778 1.399 1_545 S
C1778 H1764 0.929 . S
C1778 C1777 1.399 1_565 S
C1778 C1779 1.385 . S
C1779 H1765 0.931 . S
C1779 C1778 1.385 . S
C1779 C1780 1.389 1_565 S
C1780 C1779 1.389 1_545 S
C1780 C1781 1.387 . S
C1781 H1766 0.930 . S
C1781 C1776 1.390 . S
C1781 C1780 1.387 . S
H1782 C1794 0.930 . S
H1783 C1796 0.930 . S
H1784 C1797 0.930 . S
H1785 C1801 0.959 1_655 S
H1786 C1801 0.959 . S
H1787 C1801 0.961 . S
H1788 C1802 0.960 . S
H1789 C1802 0.961 . S
H1790 C1802 0.959 . S
H1791 C1805 0.929 . S
H1792 C1806 0.931 . S
H1793 C1808 0.930 . S
C1794 H1782 0.930 . S
C1794 C1795 1.399 . S
C1794 C1799 1.399 . S
C1795 C1794 1.399 . S
C1795 C1796 1.376 . S
C1796 H1783 0.930 . S
C1796 C1795 1.376 . S
C1796 C1797 1.388 . S
C1797 H1784 0.930 . S
C1797 C1796 1.388 . S
C1797 C1798 1.390 . S
C1798 C1797 1.390 . S
C1798 C1799 1.394 . S
C1798 C1804 1.465 . S
C1799 C1794 1.399 . S
C1799 C1798 1.394 . S
C1799 C1800 1.516 . S
C1800 C1799 1.516 . S
C1800 C1801 1.502 . S
C1800 C1802 1.561 . S
C1800 C1803 1.526 . S
C1801 H1785 0.959 1_455 S
C1801 H1786 0.959 . S
C1801 H1787 0.961 . S
C1801 C1800 1.502 . S
C1802 H1788 0.960 . S
C1802 H1789 0.961 . S
C1802 H1790 0.959 . S
C1802 C1800 1.561 . S
C1803 C1800 1.526 . S
C1803 C1804 1.396 . S
C1803 C1808 1.390 . S
C1804 C1798 1.465 . S
C1804 C1803 1.396 . S
C1804 C1805 1.399 . S
C1805 H1791 0.929 . S
C1805 C1804 1.399 . S
C1805 C1806 1.385 . S
C1806 H1792 0.931 . S
C1806 C1805 1.385 . S
C1806 C1807 1.389 . S
C1807 C1806 1.389 . S
C1807 C1808 1.387 . S
C1808 H1793 0.930 . S
C1808 C1803 1.390 . S
C1808 C1807 1.387 . S
H1809 C1821 0.930 . S
H1810 C1823 0.930 . S
H1811 C1824 0.930 . S
H1812 C1828 0.959 . S
H1813 C1828 0.959 . S
H1814 C1828 0.961 . S
H1815 C1829 0.960 . S
H1816 C1829 0.961 . S
H1817 C1829 0.959 . S
H1818 C1832 0.929 . S
H1819 C1833 0.931 . S
H1820 C1835 0.930 . S
C1821 H1809 0.930 . S
C1821 C1822 1.399 . S
C1821 C1826 1.399 . S
C1822 C1821 1.399 . S
C1822 C1823 1.376 1_545 S
C1823 H1810 0.930 . S
C1823 C1822 1.376 1_565 S
C1823 C1824 1.388 . S
C1824 H1811 0.930 . S
C1824 C1823 1.388 . S
C1824 C1825 1.414 . S
C1825 C1824 1.414 . S
C1825 C1826 1.367 1_565 S
C1825 C1831 1.463 1_565 S
C1826 C1821 1.399 . S
C1826 C1825 1.367 1_545 S
C1826 C1827 1.516 . S
C1827 C1826 1.516 . S
C1827 C1828 1.502 . S
C1827 C1829 1.561 . S
C1827 C1830 1.526 . S
C1828 H1812 0.959 . S
C1828 H1813 0.959 . S
C1828 H1814 0.961 . S
C1828 C1827 1.502 . S
C1829 H1815 0.960 . S
C1829 H1816 0.961 . S
C1829 H1817 0.959 . S
C1829 C1827 1.561 . S
C1830 C1827 1.526 . S
C1830 C1831 1.396 . S
C1830 C1835 1.390 . S
C1831 C1825 1.463 1_545 S
C1831 C1830 1.396 . S
C1831 C1832 1.399 1_545 S
C1832 H1818 0.929 . S
C1832 C1831 1.399 1_565 S
C1832 C1833 1.385 . S
C1833 H1819 0.931 . S
C1833 C1832 1.385 . S
C1833 C1834 1.389 1_565 S
C1834 C1833 1.389 1_545 S
C1834 C1835 1.387 . S
C1835 H1820 0.930 . S
C1835 C1830 1.390 . S
C1835 C1834 1.387 . S
H1836 C1848 0.930 . S
H1837 C1850 0.930 . S
H1838 C1851 0.930 . S
H1839 C1855 0.959 . S
H1840 C1855 0.959 . S
H1841 C1855 0.961 . S
H1842 C1856 0.960 . S
H1843 C1856 0.961 . S
H1844 C1856 0.959 . S
H1845 C1859 0.929 . S
H1846 C1860 0.931 . S
H1847 C1862 0.931 1_655 S
C1848 H1836 0.930 . S
C1848 C1849 1.399 1_655 S
C1848 C1853 1.404 . S
C1849 C1848 1.399 1_455 S
C1849 C1850 1.376 . S
C1850 H1837 0.930 . S
C1850 C1849 1.376 . S
C1850 C1851 1.388 . S
C1851 H1838 0.930 . S
C1851 C1850 1.388 . S
C1851 C1852 1.390 . S
C1852 C1851 1.390 . S
C1852 C1853 1.380 1_455 S
C1852 C1858 1.465 . S
C1853 C1848 1.404 . S
C1853 C1852 1.380 1_655 S
C1853 C1854 1.523 . S
C1854 C1853 1.523 . S
C1854 C1855 1.502 . S
C1854 C1856 1.561 1_655 S
C1854 C1857 1.526 1_655 S
C1855 H1839 0.959 . S
C1855 H1840 0.959 . S
C1855 H1841 0.961 . S
C1855 C1854 1.502 . S
C1856 H1842 0.960 . S
C1856 H1843 0.961 . S
C1856 H1844 0.959 . S
C1856 C1854 1.561 1_455 S
C1857 C1854 1.526 1_455 S
C1857 C1858 1.396 . S
C1857 C1862 1.389 . S
C1858 C1852 1.465 . S
C1858 C1857 1.396 . S
C1858 C1859 1.399 . S
C1859 H1845 0.929 . S
C1859 C1858 1.399 . S
C1859 C1860 1.385 . S
C1860 H1846 0.931 . S
C1860 C1859 1.385 . S
C1860 C1861 1.389 . S
C1861 C1860 1.389 . S
C1861 C1862 1.386 . S
C1862 H1847 0.931 1_455 S
C1862 C1857 1.389 . S
C1862 C1861 1.386 . S
H1863 C1875 0.930 . S
H1864 C1877 0.930 . S
H1865 C1878 0.930 . S
H1866 C1882 0.959 . S
H1867 C1882 0.959 . S
H1868 C1882 0.961 . S
H1869 C1883 0.960 . S
H1870 C1883 0.961 . S
H1871 C1883 0.959 . S
H1872 C1886 0.929 . S
H1873 C1887 0.931 . S
H1874 C1889 0.930 . S
C1875 H1863 0.930 . S
C1875 C1876 1.399 . S
C1875 C1880 1.399 . S
C1876 C1875 1.399 . S
C1876 C1877 1.376 1_545 S
C1877 H1864 0.930 . S
C1877 C1876 1.376 1_565 S
C1877 C1878 1.388 . S
C1878 H1865 0.930 . S
C1878 C1877 1.388 . S
C1878 C1879 1.380 1_565 S
C1879 C1878 1.380 1_545 S
C1879 C1880 1.405 . S
C1879 C1885 1.466 . S
C1880 C1875 1.399 . S
C1880 C1879 1.405 . S
C1880 C1881 1.516 . S
C1881 C1880 1.516 . S
C1881 C1882 1.502 . S
C1881 C1883 1.561 . S
C1881 C1884 1.526 . S
C1882 H1866 0.959 . S
C1882 H1867 0.959 . S
C1882 H1868 0.961 . S
C1882 C1881 1.502 . S
C1883 H1869 0.960 . S
C1883 H1870 0.961 . S
C1883 H1871 0.959 . S
C1883 C1881 1.561 . S
C1884 C1881 1.526 . S
C1884 C1885 1.396 . S
C1884 C1889 1.390 . S
C1885 C1879 1.466 . S
C1885 C1884 1.396 . S
C1885 C1886 1.399 1_545 S
C1886 H1872 0.929 . S
C1886 C1885 1.399 1_565 S
C1886 C1887 1.385 . S
C1887 H1873 0.931 . S
C1887 C1886 1.385 . S
C1887 C1888 1.389 1_565 S
C1888 C1887 1.389 1_545 S
C1888 C1889 1.387 . S
C1889 H1874 0.930 . S
C1889 C1884 1.390 . S
C1889 C1888 1.387 . S
H1890 C1902 0.930 . S
H1891 C1904 0.930 . S
H1892 C1905 0.930 . S
H1893 C1909 0.959 . S
H1894 C1909 0.959 . S
H1895 C1909 0.961 . S
H1896 C1910 0.960 . S
H1897 C1910 0.961 . S
H1898 C1910 0.959 . S
H1899 C1913 0.929 . S
H1900 C1914 0.931 . S
H1901 C1916 0.930 . S
C1902 H1890 0.930 . S
C1902 C1903 1.399 . S
C1902 C1907 1.399 . S
C1903 C1902 1.399 . S
C1903 C1904 1.376 . S
C1904 H1891 0.930 . S
C1904 C1903 1.376 . S
C1904 C1905 1.388 . S
C1905 H1892 0.930 . S
C1905 C1904 1.388 . S
C1905 C1906 1.390 . S
C1906 C1905 1.390 . S
C1906 C1907 1.394 . S
C1906 C1912 1.465 . S
C1907 C1902 1.399 . S
C1907 C1906 1.394 . S
C1907 C1908 1.516 . S
C1908 C1907 1.516 . S
C1908 C1909 1.502 . S
C1908 C1910 1.561 1_455 S
C1908 C1911 1.526 . S
C1909 H1893 0.959 . S
C1909 H1894 0.959 . S
C1909 H1895 0.961 . S
C1909 C1908 1.502 . S
C1910 H1896 0.960 . S
C1910 H1897 0.961 . S
C1910 H1898 0.959 . S
C1910 C1908 1.561 1_655 S
C1911 C1908 1.526 . S
C1911 C1912 1.396 . S
C1911 C1916 1.390 . S
C1912 C1906 1.465 . S
C1912 C1911 1.396 . S
C1912 C1913 1.399 . S
C1913 H1899 0.929 . S
C1913 C1912 1.399 . S
C1913 C1914 1.385 . S
C1914 H1900 0.931 . S
C1914 C1913 1.385 . S
C1914 C1915 1.389 . S
C1915 C1914 1.389 . S
C1915 C1916 1.387 . S
C1916 H1901 0.930 . S
C1916 C1911 1.390 . S
C1916 C1915 1.387 . S
H1917 C1929 0.930 . S
H1918 C1931 0.930 . S
H1919 C1932 0.930 . S
H1920 C1936 0.959 1_545 S
H1921 C1936 0.959 . S
H1922 C1936 0.961 . S
H1923 C1937 0.960 . S
H1924 C1937 0.961 . S
H1925 C1937 0.959 . S
H1926 C1940 0.929 . S
H1927 C1941 0.931 . S
H1928 C1943 0.930 1_565 S
C1929 H1917 0.930 . S
C1929 C1930 1.399 . S
C1929 C1934 1.399 . S
C1930 C1929 1.399 . S
C1930 C1931 1.376 . S
C1931 H1918 0.930 . S
C1931 C1930 1.376 . S
C1931 C1932 1.388 . S
C1932 H1919 0.930 . S
C1932 C1931 1.388 . S
C1932 C1933 1.390 . S
C1933 C1932 1.390 . S
C1933 C1934 1.394 . S
C1933 C1939 1.465 . S
C1934 C1929 1.399 . S
C1934 C1933 1.394 . S
C1934 C1935 1.513 . S
C1935 C1934 1.513 . S
C1935 C1936 1.503 1_545 S
C1935 C1937 1.565 1_545 S
C1935 C1938 1.523 . S
C1936 H1920 0.959 1_565 S
C1936 H1921 0.959 . S
C1936 H1922 0.961 . S
C1936 C1935 1.503 1_565 S
C1937 H1923 0.960 . S
C1937 H1924 0.961 . S
C1937 H1925 0.959 . S
C1937 C1935 1.565 1_565 S
C1938 C1935 1.523 . S
C1938 C1939 1.396 . S
C1938 C1943 1.390 . S
C1939 C1933 1.465 . S
C1939 C1938 1.396 . S
C1939 C1940 1.399 . S
C1940 H1926 0.929 . S
C1940 C1939 1.399 . S
C1940 C1941 1.385 . S
C1941 H1927 0.931 . S
C1941 C1940 1.385 . S
C1941 C1942 1.389 . S
C1942 C1941 1.389 . S
C1942 C1943 1.387 . S
C1943 H1928 0.930 1_545 S
C1943 C1938 1.390 . S
C1943 C1942 1.387 . S
H1944 C1956 0.930 . S
H1945 C1958 0.930 . S
H1946 C1959 0.930 . S
H1947 C1963 0.959 . S
H1948 C1963 0.959 . S
H1949 C1963 0.961 . S
H1950 C1964 0.960 . S
H1951 C1964 0.961 . S
H1952 C1964 0.959 . S
H1953 C1967 0.929 . S
H1954 C1968 0.931 . S
H1955 C1970 0.930 . S
C1956 H1944 0.930 . S
C1956 C1957 1.399 1_565 S
C1956 C1961 1.399 . S
C1957 C1956 1.399 1_545 S
C1957 C1958 1.376 . S
C1958 H1945 0.930 . S
C1958 C1957 1.376 . S
C1958 C1959 1.388 . S
C1959 H1946 0.930 . S
C1959 C1958 1.388 . S
C1959 C1960 1.390 . S
C1960 C1959 1.390 . S
C1960 C1961 1.394 1_545 S
C1960 C1966 1.465 . S
C1961 C1956 1.399 . S
C1961 C1960 1.394 1_565 S
C1961 C1962 1.516 . S
C1962 C1961 1.516 . S
C1962 C1963 1.502 . S
C1962 C1964 1.561 . S
C1962 C1965 1.526 . S
C1963 H1947 0.959 . S
C1963 H1948 0.959 . S
C1963 H1949 0.961 . S
C1963 C1962 1.502 . S
C1964 H1950 0.960 . S
C1964 H1951 0.961 . S
C1964 H1952 0.959 . S
C1964 C1962 1.561 . S
C1965 C1962 1.526 . S
C1965 C1966 1.396 1_565 S
C1965 C1970 1.390 . S
C1966 C1960 1.465 . S
C1966 C1965 1.396 1_545 S
C1966 C1967 1.399 . S
C1967 H1953 0.929 . S
C1967 C1966 1.399 . S
C1967 C1968 1.385 . S
C1968 H1954 0.931 . S
C1968 C1967 1.385 . S
C1968 C1969 1.389 . S
C1969 C1968 1.389 . S
C1969 C1970 1.387 1_545 S
C1970 H1955 0.930 . S
C1970 C1965 1.390 . S
C1970 C1969 1.387 1_565 S
H1971 C1983 0.930 . S
H1972 C1985 0.930 . S
H1973 C1986 0.930 . S
H1974 C1990 0.959 . S
H1975 C1990 0.959 . S
H1976 C1990 0.961 . S
H1977 C1991 0.960 . S
H1978 C1991 0.961 . S
H1979 C1991 0.959 1_655 S
H1980 C1994 0.929 . S
H1981 C1995 0.931 . S
H1982 C1997 0.930 . S
C1983 H1971 0.930 . S
C1983 C1984 1.399 . S
C1983 C1988 1.399 . S
C1984 C1983 1.399 . S
C1984 C1985 1.376 . S
C1985 H1972 0.930 . S
C1985 C1984 1.376 . S
C1985 C1986 1.388 . S
C1986 H1973 0.930 . S
C1986 C1985 1.388 . S
C1986 C1987 1.390 . S
C1987 C1986 1.390 . S
C1987 C1988 1.394 . S
C1987 C1993 1.465 . S
C1988 C1983 1.399 . S
C1988 C1987 1.394 . S
C1988 C1989 1.516 . S
C1989 C1988 1.516 . S
C1989 C1990 1.502 . S
C1989 C1991 1.561 . S
C1989 C1992 1.526 . S
C1990 H1974 0.959 . S
C1990 H1975 0.959 . S
C1990 H1976 0.961 . S
C1990 C1989 1.502 . S
C1991 H1977 0.960 . S
C1991 H1978 0.961 . S
C1991 H1979 0.959 1_455 S
C1991 C1989 1.561 . S
C1992 C1989 1.526 . S
C1992 C1993 1.396 . S
C1992 C1997 1.390 . S
C1993 C1987 1.465 . S
C1993 C1992 1.396 . S
C1993 C1994 1.399 . S
C1994 H1980 0.929 . S
C1994 C1993 1.399 . S
C1994 C1995 1.385 . S
C1995 H1981 0.931 . S
C1995 C1994 1.385 . S
C1995 C1996 1.389 . S
C1996 C1995 1.389 . S
C1996 C1997 1.387 . S
C1997 H1982 0.930 . S
C1997 C1992 1.390 . S
C1997 C1996 1.387 . S
H1998 C2010 0.930 . S
H1999 C2012 0.930 . S
H2000 C2013 0.930 . S
H2001 C2017 0.959 1_545 S
H2002 C2017 0.959 . S
H2003 C2017 0.961 . S
H2004 C2018 0.960 . S
H2005 C2018 0.961 . S
H2006 C2018 0.959 . S
H2007 C2021 0.929 . S
H2008 C2022 0.931 . S
H2009 C2024 0.892 1_565 S
C2010 H1998 0.930 . S
C2010 C2011 1.399 . S
C2010 C2015 1.399 . S
C2011 C2010 1.399 . S
C2011 C2012 1.376 . S
C2012 H1999 0.930 . S
C2012 C2011 1.376 . S
C2012 C2013 1.388 . S
C2013 H2000 0.930 . S
C2013 C2012 1.388 . S
C2013 C2014 1.390 . S
C2014 C2013 1.390 . S
C2014 C2015 1.394 . S
C2014 C2020 1.465 . S
C2015 C2010 1.399 . S
C2015 C2014 1.394 . S
C2015 C2016 1.516 . S
C2016 C2015 1.516 . S
C2016 C2017 1.502 1_545 S
C2016 C2018 1.561 1_545 S
C2016 C2019 1.526 . S
C2017 H2001 0.959 1_565 S
C2017 H2002 0.959 . S
C2017 H2003 0.961 . S
C2017 C2016 1.502 1_565 S
C2018 H2004 0.960 . S
C2018 H2005 0.961 . S
C2018 H2006 0.959 . S
C2018 C2016 1.561 1_565 S
C2019 C2016 1.526 . S
C2019 C2020 1.396 . S
C2019 C2024 1.390 . S
C2020 C2014 1.465 . S
C2020 C2019 1.396 . S
C2020 C2021 1.399 . S
C2021 H2007 0.929 . S
C2021 C2020 1.399 . S
C2021 C2022 1.385 . S
C2022 H2008 0.931 . S
C2022 C2021 1.385 . S
C2022 C2023 1.389 . S
C2023 C2022 1.389 . S
C2023 C2024 1.387 . S
C2024 H2009 0.892 1_545 S
C2024 C2019 1.390 . S
C2024 C2023 1.387 . S
H2025 C2037 0.930 . S
H2026 C2039 0.930 . S
H2027 C2040 0.930 . S
H2028 C2044 0.959 . S
H2029 C2044 0.959 . S
H2030 C2044 0.961 . S
H2031 C2045 0.960 . S
H2032 C2045 0.961 . S
H2033 C2045 0.959 . S
H2034 C2048 0.929 . S
H2035 C2049 0.931 . S
H2036 C2051 0.930 . S
C2037 H2025 0.930 . S
C2037 C2038 1.399 . S
C2037 C2042 1.399 . S
C2038 C2037 1.399 . S
C2038 C2039 1.376 . S
C2039 H2026 0.930 . S
C2039 C2038 1.376 . S
C2039 C2040 1.388 . S
C2040 H2027 0.930 . S
C2040 C2039 1.388 . S
C2040 C2041 1.390 . S
C2041 C2040 1.390 . S
C2041 C2042 1.394 . S
C2041 C2047 1.465 . S
C2042 C2037 1.399 . S
C2042 C2041 1.394 . S
C2042 C2043 1.516 . S
C2043 C2042 1.516 . S
C2043 C2044 1.502 . S
C2043 C2045 1.561 1_455 S
C2043 C2046 1.526 . S
C2044 H2028 0.959 . S
C2044 H2029 0.959 . S
C2044 H2030 0.961 . S
C2044 C2043 1.502 . S
C2045 H2031 0.960 . S
C2045 H2032 0.961 . S
C2045 H2033 0.959 . S
C2045 C2043 1.561 1_655 S
C2046 C2043 1.526 . S
C2046 C2047 1.396 . S
C2046 C2051 1.390 . S
C2047 C2041 1.465 . S
C2047 C2046 1.396 . S
C2047 C2048 1.399 . S
C2048 H2034 0.929 . S
C2048 C2047 1.399 . S
C2048 C2049 1.385 . S
C2049 H2035 0.931 . S
C2049 C2048 1.385 . S
C2049 C2050 1.389 . S
C2050 C2049 1.389 . S
C2050 C2051 1.387 . S
C2051 H2036 0.930 . S
C2051 C2046 1.390 . S
C2051 C2050 1.387 . S
H2052 C2064 0.930 . S
H2053 C2066 0.930 . S
H2054 C2067 0.930 . S
H2055 C2071 0.959 . S
H2056 C2071 0.959 . S
H2057 C2071 0.961 . S
H2058 C2072 0.960 . S
H2059 C2072 0.961 . S
H2060 C2072 0.959 . S
H2061 C2075 0.929 . S
H2062 C2076 0.931 . S
H2063 C2078 0.930 . S
C2064 H2052 0.930 . S
C2064 C2065 1.399 1_565 S
C2064 C2069 1.399 . S
C2065 C2064 1.399 1_545 S
C2065 C2066 1.376 . S
C2066 H2053 0.930 . S
C2066 C2065 1.376 . S
C2066 C2067 1.388 . S
C2067 H2054 0.930 . S
C2067 C2066 1.388 . S
C2067 C2068 1.390 . S
C2068 C2067 1.390 . S
C2068 C2069 1.394 1_545 S
C2068 C2074 1.465 . S
C2069 C2064 1.399 . S
C2069 C2068 1.394 1_565 S
C2069 C2070 1.516 . S
C2070 C2069 1.516 . S
C2070 C2071 1.502 . S
C2070 C2072 1.561 . S
C2070 C2073 1.526 . S
C2071 H2055 0.959 . S
C2071 H2056 0.959 . S
C2071 H2057 0.961 . S
C2071 C2070 1.502 . S
C2072 H2058 0.960 . S
C2072 H2059 0.961 . S
C2072 H2060 0.959 . S
C2072 C2070 1.561 . S
C2073 C2070 1.526 . S
C2073 C2074 1.396 1_565 S
C2073 C2078 1.390 . S
C2074 C2068 1.465 . S
C2074 C2073 1.396 1_545 S
C2074 C2075 1.399 . S
C2075 H2061 0.929 . S
C2075 C2074 1.399 . S
C2075 C2076 1.385 . S
C2076 H2062 0.931 . S
C2076 C2075 1.385 . S
C2076 C2077 1.389 . S
C2077 C2076 1.389 . S
C2077 C2078 1.387 1_545 S
C2078 H2063 0.930 . S
C2078 C2073 1.390 . S
C2078 C2077 1.387 1_565 S
H2079 C2091 0.930 . S
H2080 C2093 0.930 . S
H2081 C2094 0.930 . S
H2082 C2098 0.959 . S
H2083 C2098 0.959 . S
H2084 C2098 0.961 . S
H2085 C2099 0.960 . S
H2086 C2099 0.961 . S
H2087 C2099 0.959 . S
H2088 C2102 0.929 . S
H2089 C2103 0.931 . S
H2090 C2105 0.930 . S
C2091 H2079 0.930 . S
C2091 C2092 1.399 . S
C2091 C2096 1.399 . S
C2092 C2091 1.399 . S
C2092 C2093 1.376 . S
C2093 H2080 0.930 . S
C2093 C2092 1.376 . S
C2093 C2094 1.388 . S
C2094 H2081 0.930 . S
C2094 C2093 1.388 . S
C2094 C2095 1.390 . S
C2095 C2094 1.390 . S
C2095 C2096 1.394 . S
C2095 C2101 1.465 . S
C2096 C2091 1.399 . S
C2096 C2095 1.394 . S
C2096 C2097 1.516 . S
C2097 C2096 1.516 . S
C2097 C2098 1.502 . S
C2097 C2099 1.561 1_455 S
C2097 C2100 1.526 . S
C2098 H2082 0.959 . S
C2098 H2083 0.959 . S
C2098 H2084 0.961 . S
C2098 C2097 1.502 . S
C2099 H2085 0.960 . S
C2099 H2086 0.961 . S
C2099 H2087 0.959 . S
C2099 C2097 1.561 1_655 S
C2100 C2097 1.526 . S
C2100 C2101 1.396 . S
C2100 C2105 1.390 . S
C2101 C2095 1.465 . S
C2101 C2100 1.396 . S
C2101 C2102 1.399 . S
C2102 H2088 0.929 . S
C2102 C2101 1.399 . S
C2102 C2103 1.385 . S
C2103 H2089 0.931 . S
C2103 C2102 1.385 . S
C2103 C2104 1.389 . S
C2104 C2103 1.389 . S
C2104 C2105 1.387 . S
C2105 H2090 0.930 . S
C2105 C2100 1.390 . S
C2105 C2104 1.387 . S
H2106 C2118 0.930 . S
H2107 C2120 0.920 1_565 S
H2108 C2121 0.930 1_565 S
H2109 C2125 0.959 . S
H2110 C2125 0.959 . S
H2111 C2125 0.961 . S
H2112 C2126 0.960 . S
H2113 C2126 0.961 . S
H2114 C2126 0.959 . S
H2115 C2129 0.929 1_565 S
H2116 C2130 0.931 1_565 S
H2117 C2132 0.930 . S
C2118 H2106 0.930 . S
C2118 C2119 1.399 . S
C2118 C2123 1.399 . S
C2119 C2118 1.399 . S
C2119 C2120 1.376 . S
C2120 H2107 0.920 1_545 S
C2120 C2119 1.376 . S
C2120 C2121 1.388 . S
C2121 H2108 0.930 1_545 S
C2121 C2120 1.388 . S
C2121 C2122 1.390 . S
C2122 C2121 1.390 . S
C2122 C2123 1.394 . S
C2122 C2128 1.465 . S
C2123 C2118 1.399 . S
C2123 C2122 1.394 . S
C2123 C2124 1.516 . S
C2124 C2123 1.516 . S
C2124 C2125 1.502 . S
C2124 C2126 1.561 . S
C2124 C2127 1.526 . S
C2125 H2109 0.959 . S
C2125 H2110 0.959 . S
C2125 H2111 0.961 . S
C2125 C2124 1.502 . S
C2126 H2112 0.960 . S
C2126 H2113 0.961 . S
C2126 H2114 0.959 . S
C2126 C2124 1.561 . S
C2127 C2124 1.526 . S
C2127 C2128 1.396 . S
C2127 C2132 1.390 . S
C2128 C2122 1.465 . S
C2128 C2127 1.396 . S
C2128 C2129 1.399 . S
C2129 H2115 0.929 1_545 S
C2129 C2128 1.399 . S
C2129 C2130 1.385 . S
C2130 H2116 0.931 1_545 S
C2130 C2129 1.385 . S
C2130 C2131 1.389 . S
C2131 C2130 1.389 . S
C2131 C2132 1.387 . S
C2132 H2117 0.930 . S
C2132 C2127 1.390 . S
C2132 C2131 1.387 . S
H2133 C2145 0.930 . S
H2134 C2147 0.930 . S
H2135 C2148 0.930 . S
H2136 C2152 0.959 . S
H2137 C2152 0.959 . S
H2138 C2152 0.961 . S
H2139 C2153 0.960 . S
H2140 C2153 0.961 . S
H2141 C2153 0.959 . S
H2142 C2156 0.929 . S
H2143 C2157 0.931 . S
H2144 C2159 0.930 . S
C2145 H2133 0.930 . S
C2145 C2146 1.399 . S
C2145 C2150 1.399 . S
C2146 C2145 1.399 . S
C2146 C2147 1.376 . S
C2147 H2134 0.930 . S
C2147 C2146 1.376 . S
C2147 C2148 1.388 . S
C2148 H2135 0.930 . S
C2148 C2147 1.388 . S
C2148 C2149 1.390 . S
C2149 C2148 1.390 . S
C2149 C2150 1.394 . S
C2149 C2155 1.465 . S
C2150 C2145 1.399 . S
C2150 C2149 1.394 . S
C2150 C2151 1.516 . S
C2151 C2150 1.516 . S
C2151 C2152 1.502 . S
C2151 C2153 1.561 1_455 S
C2151 C2154 1.526 . S
C2152 H2136 0.959 . S
C2152 H2137 0.959 . S
C2152 H2138 0.961 . S
C2152 C2151 1.502 . S
C2153 H2139 0.960 . S
C2153 H2140 0.961 . S
C2153 H2141 0.959 . S
C2153 C2151 1.561 1_655 S
C2154 C2151 1.526 . S
C2154 C2155 1.396 . S
C2154 C2159 1.390 . S
C2155 C2149 1.465 . S
C2155 C2154 1.396 . S
C2155 C2156 1.399 . S
C2156 H2142 0.929 . S
C2156 C2155 1.399 . S
C2156 C2157 1.385 . S
C2157 H2143 0.931 . S
C2157 C2156 1.385 . S
C2157 C2158 1.389 . S
C2158 C2157 1.389 . S
C2158 C2159 1.387 . S
C2159 H2144 0.930 . S
C2159 C2154 1.390 . S
C2159 C2158 1.387 . S
H2160 C2172 0.930 1_556 S
H2161 C2174 0.930 . S
H2162 C2175 0.930 . S
H2163 C2179 0.959 . S
H2164 C2179 0.959 . S
H2165 C2179 0.961 . S
H2166 C2180 0.960 . S
H2167 C2180 0.961 . S
H2168 C2180 0.959 . S
H2169 C2183 0.929 . S
H2170 C2184 0.931 . S
H2171 C2186 0.930 1_556 S
C2172 H2160 0.930 1_554 S
C2172 C2173 1.399 . S
C2172 C2177 1.399 . S
C2173 C2172 1.399 . S
C2173 C2174 1.376 . S
C2174 H2161 0.930 . S
C2174 C2173 1.376 . S
C2174 C2175 1.388 . S
C2175 H2162 0.930 . S
C2175 C2174 1.388 . S
C2175 C2176 1.390 . S
C2176 C2175 1.390 . S
C2176 C2177 1.394 . S
C2176 C2182 1.465 . S
C2177 C2172 1.399 . S
C2177 C2176 1.394 . S
C2177 C2178 1.516 1_554 S
C2178 C2177 1.516 1_556 S
C2178 C2179 1.502 . S
C2178 C2180 1.561 . S
C2178 C2181 1.526 1_556 S
C2179 H2163 0.959 . S
C2179 H2164 0.959 . S
C2179 H2165 0.961 . S
C2179 C2178 1.502 . S
C2180 H2166 0.960 . S
C2180 H2167 0.961 . S
C2180 H2168 0.959 . S
C2180 C2178 1.561 . S
C2181 C2178 1.526 1_554 S
C2181 C2182 1.396 . S
C2181 C2186 1.390 . S
C2182 C2176 1.465 . S
C2182 C2181 1.396 . S
C2182 C2183 1.399 . S
C2183 H2169 0.929 . S
C2183 C2182 1.399 . S
C2183 C2184 1.385 . S
C2184 H2170 0.931 . S
C2184 C2183 1.385 . S
C2184 C2185 1.389 . S
C2185 C2184 1.389 . S
C2185 C2186 1.387 . S
C2186 H2171 0.930 1_554 S
C2186 C2181 1.390 . S
C2186 C2185 1.387 . S
H2187 C2199 0.930 . S
H2188 C2201 0.930 . S
H2189 C2202 0.930 . S
H2190 C2206 0.959 . S
H2191 C2206 0.959 . S
H2192 C2206 0.961 . S
H2193 C2207 0.960 . S
H2194 C2207 0.961 . S
H2195 C2207 0.959 . S
H2196 C2210 0.929 . S
H2197 C2211 0.931 . S
H2198 C2213 0.930 . S
C2199 H2187 0.930 . S
C2199 C2200 1.399 . S
C2199 C2204 1.399 . S
C2200 C2199 1.399 . S
C2200 C2201 1.376 1_554 S
C2201 H2188 0.930 . S
C2201 C2200 1.376 1_556 S
C2201 C2202 1.388 . S
C2202 H2189 0.930 . S
C2202 C2201 1.388 . S
C2202 C2203 1.390 1_556 S
C2203 C2202 1.390 1_554 S
C2203 C2204 1.394 . S
C2203 C2209 1.465 . S
C2204 C2199 1.399 . S
C2204 C2203 1.394 . S
C2204 C2205 1.516 . S
C2205 C2204 1.516 . S
C2205 C2206 1.502 . S
C2205 C2207 1.561 . S
C2205 C2208 1.526 . S
C2206 H2190 0.959 . S
C2206 H2191 0.959 . S
C2206 H2192 0.961 . S
C2206 C2205 1.502 . S
C2207 H2193 0.960 . S
C2207 H2194 0.961 . S
C2207 H2195 0.959 . S
C2207 C2205 1.561 . S
C2208 C2205 1.526 . S
C2208 C2209 1.396 . S
C2208 C2213 1.390 . S
C2209 C2203 1.465 . S
C2209 C2208 1.396 . S
C2209 C2210 1.399 1_554 S
C2210 H2196 0.929 . S
C2210 C2209 1.399 1_556 S
C2210 C2211 1.385 . S
C2211 H2197 0.931 . S
C2211 C2210 1.385 . S
C2211 C2212 1.389 1_556 S
C2212 C2211 1.389 1_554 S
C2212 C2213 1.387 . S
C2213 H2198 0.930 . S
C2213 C2208 1.390 . S
C2213 C2212 1.387 . S
H2214 C2226 0.952 . S
H2215 C2228 0.930 . S
H2216 C2229 0.930 . S
H2217 C2233 0.959 . S
H2218 C2233 0.959 . S
H2219 C2233 0.961 . S
H2220 C2234 0.960 . S
H2221 C2234 0.961 . S
H2222 C2234 0.959 . S
H2223 C2237 0.929 . S
H2224 C2238 0.931 . S
H2225 C2240 0.930 . S
C2226 H2214 0.952 . S
C2226 C2227 1.380 1_556 S
C2226 C2231 1.396 1_556 S
C2227 C2226 1.380 1_554 S
C2227 C2228 1.376 . S
C2228 H2215 0.930 . S
C2228 C2227 1.376 . S
C2228 C2229 1.388 . S
C2229 H2216 0.930 . S
C2229 C2228 1.388 . S
C2229 C2230 1.390 . S
C2230 C2229 1.390 . S
C2230 C2231 1.394 . S
C2230 C2236 1.465 . S
C2231 C2226 1.396 1_554 S
C2231 C2230 1.394 . S
C2231 C2232 1.516 1_554 S
C2232 C2231 1.516 1_556 S
C2232 C2233 1.502 . S
C2232 C2234 1.561 . S
C2232 C2235 1.507 1_556 S
C2233 H2217 0.959 . S
C2233 H2218 0.959 . S
C2233 H2219 0.961 . S
C2233 C2232 1.502 . S
C2234 H2220 0.960 . S
C2234 H2221 0.961 . S
C2234 H2222 0.959 . S
C2234 C2232 1.561 . S
C2235 C2232 1.507 1_554 S
C2235 C2236 1.428 . S
C2235 C2240 1.381 1_554 S
C2236 C2230 1.465 . S
C2236 C2235 1.428 . S
C2236 C2237 1.399 . S
C2237 H2223 0.929 . S
C2237 C2236 1.399 . S
C2237 C2238 1.385 . S
C2238 H2224 0.931 . S
C2238 C2237 1.385 . S
C2238 C2239 1.389 . S
C2239 C2238 1.389 . S
C2239 C2240 1.387 1_554 S
C2240 H2225 0.930 . S
C2240 C2235 1.381 1_556 S
C2240 C2239 1.387 1_556 S
H2241 C2253 0.930 . S
H2242 C2255 0.930 . S
H2243 C2256 0.930 . S
H2244 C2260 0.959 . S
H2245 C2260 0.959 . S
H2246 C2260 0.961 . S
H2247 C2261 0.960 . S
H2248 C2261 0.961 . S
H2249 C2261 0.959 . S
H2250 C2264 0.929 . S
H2251 C2265 0.931 . S
H2252 C2267 0.930 . S
C2253 H2241 0.930 . S
C2253 C2254 1.404 . S
C2253 C2258 1.399 . S
C2254 C2253 1.404 . S
C2254 C2255 1.371 1_554 S
C2255 H2242 0.930 . S
C2255 C2254 1.371 1_556 S
C2255 C2256 1.388 . S
C2256 H2243 0.930 . S
C2256 C2255 1.388 . S
C2256 C2257 1.390 . S
C2257 C2256 1.390 . S
C2257 C2258 1.394 1_556 S
C2257 C2263 1.465 . S
C2258 C2253 1.399 . S
C2258 C2257 1.394 1_554 S
C2258 C2259 1.516 . S
C2259 C2258 1.516 . S
C2259 C2260 1.502 . S
C2259 C2261 1.561 . S
C2259 C2262 1.526 . S
C2260 H2244 0.959 . S
C2260 H2245 0.959 . S
C2260 H2246 0.961 . S
C2260 C2259 1.502 . S
C2261 H2247 0.960 . S
C2261 H2248 0.961 . S
C2261 H2249 0.959 . S
C2261 C2259 1.561 . S
C2262 C2259 1.526 . S
C2262 C2263 1.396 1_554 S
C2262 C2267 1.390 . S
C2263 C2257 1.465 . S
C2263 C2262 1.396 1_556 S
C2263 C2264 1.399 . S
C2264 H2250 0.929 . S
C2264 C2263 1.399 . S
C2264 C2265 1.385 . S
C2265 H2251 0.931 . S
C2265 C2264 1.385 . S
C2265 C2266 1.402 . S
C2266 C2265 1.402 . S
C2266 C2267 1.376 1_556 S
C2267 H2252 0.930 . S
C2267 C2262 1.390 . S
C2267 C2266 1.376 1_554 S
H2268 C2280 0.930 . S
H2269 C2282 0.930 . S
H2270 C2283 0.930 . S
H2271 C2287 0.959 . S
H2272 C2287 0.959 . S
H2273 C2287 0.961 . S
H2274 C2288 0.960 . S
H2275 C2288 0.961 . S
H2276 C2288 0.959 . S
H2277 C2291 0.929 . S
H2278 C2292 0.931 . S
H2279 C2294 0.930 . S
C2280 H2268 0.930 . S
C2280 C2281 1.399 . S
C2280 C2285 1.399 . S
C2281 C2280 1.399 . S
C2281 C2282 1.376 1_554 S
C2282 H2269 0.930 . S
C2282 C2281 1.376 1_556 S
C2282 C2283 1.388 . S
C2283 H2270 0.930 . S
C2283 C2282 1.388 . S
C2283 C2284 1.390 . S
C2284 C2283 1.390 . S
C2284 C2285 1.394 1_556 S
C2284 C2290 1.465 . S
C2285 C2280 1.399 . S
C2285 C2284 1.394 1_554 S
C2285 C2286 1.516 . S
C2286 C2285 1.516 . S
C2286 C2287 1.502 . S
C2286 C2288 1.561 . S
C2286 C2289 1.526 . S
C2287 H2271 0.959 . S
C2287 H2272 0.959 . S
C2287 H2273 0.961 . S
C2287 C2286 1.502 . S
C2288 H2274 0.960 . S
C2288 H2275 0.961 . S
C2288 H2276 0.959 . S
C2288 C2286 1.561 . S
C2289 C2286 1.526 . S
C2289 C2290 1.396 1_554 S
C2289 C2294 1.390 . S
C2290 C2284 1.465 . S
C2290 C2289 1.396 1_556 S
C2290 C2291 1.399 . S
C2291 H2277 0.929 . S
C2291 C2290 1.399 . S
C2291 C2292 1.385 . S
C2292 H2278 0.931 . S
C2292 C2291 1.385 . S
C2292 C2293 1.389 1_556 S
C2293 C2292 1.389 1_554 S
C2293 C2294 1.387 . S
C2294 H2279 0.930 . S
C2294 C2289 1.390 . S
C2294 C2293 1.387 . S
H2295 C2307 0.930 . S
H2296 C2309 0.930 . S
H2297 C2310 0.930 . S
H2298 C2314 0.959 . S
H2299 C2314 0.959 . S
H2300 C2314 0.961 . S
H2301 C2315 0.960 . S
H2302 C2315 0.961 . S
H2303 C2315 0.959 . S
H2304 C2318 0.929 . S
H2305 C2319 0.931 . S
H2306 C2321 0.930 . S
C2307 H2295 0.930 . S
C2307 C2308 1.399 1_556 S
C2307 C2312 1.395 1_556 S
C2308 C2307 1.399 1_554 S
C2308 C2309 1.376 . S
C2309 H2296 0.930 . S
C2309 C2308 1.376 . S
C2309 C2310 1.388 . S
C2310 H2297 0.930 . S
C2310 C2309 1.388 . S
C2310 C2311 1.390 . S
C2311 C2310 1.390 . S
C2311 C2312 1.408 . S
C2311 C2317 1.465 . S
C2312 C2307 1.395 1_554 S
C2312 C2311 1.408 . S
C2312 C2313 1.509 1_554 S
C2313 C2312 1.509 1_556 S
C2313 C2314 1.502 . S
C2313 C2315 1.561 1_556 S
C2313 C2316 1.517 1_556 S
C2314 H2298 0.959 . S
C2314 H2299 0.959 . S
C2314 H2300 0.961 . S
C2314 C2313 1.502 . S
C2315 H2301 0.960 . S
C2315 H2302 0.961 . S
C2315 H2303 0.959 . S
C2315 C2313 1.561 1_554 S
C2316 C2313 1.517 1_554 S
C2316 C2317 1.413 . S
C2316 C2321 1.386 1_554 S
C2317 C2311 1.465 . S
C2317 C2316 1.413 . S
C2317 C2318 1.399 . S
C2318 H2304 0.929 . S
C2318 C2317 1.399 . S
C2318 C2319 1.385 . S
C2319 H2305 0.931 . S
C2319 C2318 1.385 . S
C2319 C2320 1.389 . S
C2320 C2319 1.389 . S
C2320 C2321 1.387 1_554 S
C2321 H2306 0.930 . S
C2321 C2316 1.386 1_556 S
C2321 C2320 1.387 1_556 S
H2322 C2334 0.930 . S
H2323 C2336 0.930 . S
H2324 C2337 0.930 . S
H2325 C2341 0.959 . S
H2326 C2341 0.959 . S
H2327 C2341 0.961 . S
H2328 C2342 0.960 . S
H2329 C2342 0.961 . S
H2330 C2342 0.959 . S
H2331 C2345 0.929 . S
H2332 C2346 0.931 . S
H2333 C2348 0.930 . S
C2334 H2322 0.930 . S
C2334 C2335 1.399 1_556 S
C2334 C2339 1.399 1_556 S
C2335 C2334 1.399 1_554 S
C2335 C2336 1.376 . S
C2336 H2323 0.930 . S
C2336 C2335 1.376 . S
C2336 C2337 1.388 . S
C2337 H2324 0.930 . S
C2337 C2336 1.388 . S
C2337 C2338 1.390 . S
C2338 C2337 1.390 . S
C2338 C2339 1.394 . S
C2338 C2344 1.465 . S
C2339 C2334 1.399 1_554 S
C2339 C2338 1.394 . S
C2339 C2340 1.516 1_554 S
C2340 C2339 1.516 1_556 S
C2340 C2341 1.502 . S
C2340 C2342 1.561 . S
C2340 C2343 1.533 . S
C2341 H2325 0.959 . S
C2341 H2326 0.959 . S
C2341 H2327 0.961 . S
C2341 C2340 1.502 . S
C2342 H2328 0.960 . S
C2342 H2329 0.961 . S
C2342 H2330 0.959 . S
C2342 C2340 1.561 . S
C2343 C2340 1.533 . S
C2343 C2344 1.386 1_556 S
C2343 C2348 1.392 . S
C2344 C2338 1.465 . S
C2344 C2343 1.386 1_554 S
C2344 C2345 1.399 . S
C2345 H2331 0.929 . S
C2345 C2344 1.399 . S
C2345 C2346 1.385 . S
C2346 H2332 0.931 . S
C2346 C2345 1.385 . S
C2346 C2347 1.389 . S
C2347 C2346 1.389 . S
C2347 C2348 1.387 1_554 S
C2348 H2333 0.930 . S
C2348 C2343 1.392 . S
C2348 C2347 1.387 1_556 S
H2349 C2361 0.930 . S
H2350 C2363 0.930 . S
H2351 C2364 0.930 . S
H2352 C2368 0.959 . S
H2353 C2368 0.959 . S
H2354 C2368 0.961 . S
H2355 C2369 0.960 . S
H2356 C2369 0.961 . S
H2357 C2369 0.959 . S
H2358 C2372 0.929 . S
H2359 C2373 0.931 . S
H2360 C2375 0.930 . S
C2361 H2349 0.930 . S
C2361 C2362 1.405 . S
C2361 C2366 1.399 . S
C2362 C2361 1.405 . S
C2362 C2363 1.369 1_554 S
C2363 H2350 0.930 . S
C2363 C2362 1.369 1_556 S
C2363 C2364 1.388 . S
C2364 H2351 0.930 . S
C2364 C2363 1.388 . S
C2364 C2365 1.390 . S
C2365 C2364 1.390 . S
C2365 C2366 1.394 1_556 S
C2365 C2371 1.465 . S
C2366 C2361 1.399 . S
C2366 C2365 1.394 1_554 S
C2366 C2367 1.516 . S
C2367 C2366 1.516 . S
C2367 C2368 1.502 . S
C2367 C2369 1.561 . S
C2367 C2370 1.526 . S
C2368 H2352 0.959 . S
C2368 H2353 0.959 . S
C2368 H2354 0.961 . S
C2368 C2367 1.502 . S
C2369 H2355 0.960 . S
C2369 H2356 0.961 . S
C2369 H2357 0.959 . S
C2369 C2367 1.561 . S
C2370 C2367 1.526 . S
C2370 C2371 1.396 1_554 S
C2370 C2375 1.390 . S
C2371 C2365 1.465 . S
C2371 C2370 1.396 1_556 S
C2371 C2372 1.399 . S
C2372 H2358 0.929 . S
C2372 C2371 1.399 . S
C2372 C2373 1.385 . S
C2373 H2359 0.931 . S
C2373 C2372 1.385 . S
C2373 C2374 1.389 1_556 S
C2374 C2373 1.389 1_554 S
C2374 C2375 1.387 . S
C2375 H2360 0.930 . S
C2375 C2370 1.390 . S
C2375 C2374 1.387 . S
H2376 C2388 0.930 . S
H2377 C2390 0.930 . S
H2378 C2391 0.930 . S
H2379 C2395 0.959 . S
H2380 C2395 0.959 . S
H2381 C2395 0.961 . S
H2382 C2396 0.960 . S
H2383 C2396 0.961 . S
H2384 C2396 0.959 . S
H2385 C2399 0.929 . S
H2386 C2400 0.931 . S
H2387 C2402 0.930 . S
C2388 H2376 0.930 . S
C2388 C2389 1.399 . S
C2388 C2393 1.399 . S
C2389 C2388 1.399 . S
C2389 C2390 1.376 . S
C2390 H2377 0.930 . S
C2390 C2389 1.376 . S
C2390 C2391 1.388 . S
C2391 H2378 0.930 . S
C2391 C2390 1.388 . S
C2391 C2392 1.390 . S
C2392 C2391 1.390 . S
C2392 C2393 1.394 . S
C2392 C2398 1.465 . S
C2393 C2388 1.399 . S
C2393 C2392 1.394 . S
C2393 C2394 1.516 . S
C2394 C2393 1.516 . S
C2394 C2395 1.502 . S
C2394 C2396 1.561 . S
C2394 C2397 1.526 . S
C2395 H2379 0.959 . S
C2395 H2380 0.959 . S
C2395 H2381 0.961 . S
C2395 C2394 1.502 . S
C2396 H2382 0.960 . S
C2396 H2383 0.961 . S
C2396 H2384 0.959 . S
C2396 C2394 1.561 . S
C2397 C2394 1.526 . S
C2397 C2398 1.396 . S
C2397 C2402 1.390 . S
C2398 C2392 1.465 . S
C2398 C2397 1.396 . S
C2398 C2399 1.399 . S
C2399 H2385 0.929 . S
C2399 C2398 1.399 . S
C2399 C2400 1.385 . S
C2400 H2386 0.931 . S
C2400 C2399 1.385 . S
C2400 C2401 1.389 . S
C2401 C2400 1.389 . S
C2401 C2402 1.387 . S
C2402 H2387 0.930 . S
C2402 C2397 1.390 . S
C2402 C2401 1.387 . S
H2403 C2415 0.930 . S
H2404 C2417 0.930 . S
H2405 C2418 0.930 . S
H2406 C2422 0.959 . S
H2407 C2422 0.959 . S
H2408 C2422 0.961 . S
H2409 C2423 0.960 . S
H2410 C2423 0.961 . S
H2411 C2423 0.959 . S
H2412 C2426 0.929 . S
H2413 C2427 0.931 . S
H2414 C2429 0.930 . S
C2415 H2403 0.930 . S
C2415 C2416 1.399 . S
C2415 C2420 1.399 . S
C2416 C2415 1.399 . S
C2416 C2417 1.376 . S
C2417 H2404 0.930 . S
C2417 C2416 1.376 . S
C2417 C2418 1.388 . S
C2418 H2405 0.930 . S
C2418 C2417 1.388 . S
C2418 C2419 1.390 . S
C2419 C2418 1.390 . S
C2419 C2420 1.394 . S
C2419 C2425 1.465 . S
C2420 C2415 1.399 . S
C2420 C2419 1.394 . S
C2420 C2421 1.516 . S
C2421 C2420 1.516 . S
C2421 C2422 1.502 . S
C2421 C2423 1.561 . S
C2421 C2424 1.526 . S
C2422 H2406 0.959 . S
C2422 H2407 0.959 . S
C2422 H2408 0.961 . S
C2422 C2421 1.502 . S
C2423 H2409 0.960 . S
C2423 H2410 0.961 . S
C2423 H2411 0.959 . S
C2423 C2421 1.561 . S
C2424 C2421 1.526 . S
C2424 C2425 1.396 . S
C2424 C2429 1.390 . S
C2425 C2419 1.465 . S
C2425 C2424 1.396 . S
C2425 C2426 1.399 . S
C2426 H2412 0.929 . S
C2426 C2425 1.399 . S
C2426 C2427 1.385 . S
C2427 H2413 0.931 . S
C2427 C2426 1.385 . S
C2427 C2428 1.389 . S
C2428 C2427 1.389 . S
C2428 C2429 1.387 . S
C2429 H2414 0.930 . S
C2429 C2424 1.390 . S
C2429 C2428 1.387 . S
H2430 C2442 0.930 . S
H2431 C2444 0.930 . S
H2432 C2445 0.930 . S
H2433 C2449 0.959 . S
H2434 C2449 0.959 . S
H2435 C2449 0.961 . S
H2436 C2450 0.960 . S
H2437 C2450 0.961 . S
H2438 C2450 0.959 . S
H2439 C2453 0.929 . S
H2440 C2454 0.931 . S
H2441 C2456 0.930 . S
C2442 H2430 0.930 . S
C2442 C2443 1.399 . S
C2442 C2447 1.399 . S
C2443 C2442 1.399 . S
C2443 C2444 1.376 . S
C2444 H2431 0.930 . S
C2444 C2443 1.376 . S
C2444 C2445 1.388 . S
C2445 H2432 0.930 . S
C2445 C2444 1.388 . S
C2445 C2446 1.390 . S
C2446 C2445 1.390 . S
C2446 C2447 1.394 . S
C2446 C2452 1.465 . S
C2447 C2442 1.399 . S
C2447 C2446 1.394 . S
C2447 C2448 1.516 . S
C2448 C2447 1.516 . S
C2448 C2449 1.502 . S
C2448 C2450 1.561 . S
C2448 C2451 1.526 . S
C2449 H2433 0.959 . S
C2449 H2434 0.959 . S
C2449 H2435 0.961 . S
C2449 C2448 1.502 . S
C2450 H2436 0.960 . S
C2450 H2437 0.961 . S
C2450 H2438 0.959 . S
C2450 C2448 1.561 . S
C2451 C2448 1.526 . S
C2451 C2452 1.396 . S
C2451 C2456 1.390 . S
C2452 C2446 1.465 . S
C2452 C2451 1.396 . S
C2452 C2453 1.399 . S
C2453 H2439 0.929 . S
C2453 C2452 1.399 . S
C2453 C2454 1.385 . S
C2454 H2440 0.931 . S
C2454 C2453 1.385 . S
C2454 C2455 1.389 . S
C2455 C2454 1.389 . S
C2455 C2456 1.387 . S
C2456 H2441 0.930 . S
C2456 C2451 1.390 . S
C2456 C2455 1.387 . S
H2457 C2469 0.930 . S
H2458 C2471 0.930 . S
H2459 C2472 0.930 . S
H2460 C2476 0.959 . S
H2461 C2476 0.959 . S
H2462 C2476 0.961 . S
H2463 C2477 0.960 . S
H2464 C2477 0.961 . S
H2465 C2477 0.959 . S
H2466 C2480 0.929 . S
H2467 C2481 0.931 . S
H2468 C2483 0.930 . S
C2469 H2457 0.930 . S
C2469 C2470 1.399 . S
C2469 C2474 1.399 . S
C2470 C2469 1.399 . S
C2470 C2471 1.376 . S
C2471 H2458 0.930 . S
C2471 C2470 1.376 . S
C2471 C2472 1.388 . S
C2472 H2459 0.930 . S
C2472 C2471 1.388 . S
C2472 C2473 1.390 . S
C2473 C2472 1.390 . S
C2473 C2474 1.394 . S
C2473 C2479 1.465 . S
C2474 C2469 1.399 . S
C2474 C2473 1.394 . S
C2474 C2475 1.516 . S
C2475 C2474 1.516 . S
C2475 C2476 1.502 . S
C2475 C2477 1.561 . S
C2475 C2478 1.526 . S
C2476 H2460 0.959 . S
C2476 H2461 0.959 . S
C2476 H2462 0.961 . S
C2476 C2475 1.502 . S
C2477 H2463 0.960 . S
C2477 H2464 0.961 . S
C2477 H2465 0.959 . S
C2477 C2475 1.561 . S
C2478 C2475 1.526 . S
C2478 C2479 1.396 . S
C2478 C2483 1.390 . S
C2479 C2473 1.465 . S
C2479 C2478 1.396 . S
C2479 C2480 1.399 . S
C2480 H2466 0.929 . S
C2480 C2479 1.399 . S
C2480 C2481 1.385 . S
C2481 H2467 0.931 . S
C2481 C2480 1.385 . S
C2481 C2482 1.389 . S
C2482 C2481 1.389 . S
C2482 C2483 1.387 . S
C2483 H2468 0.930 . S
C2483 C2478 1.390 . S
C2483 C2482 1.387 . S
H2484 C2496 0.930 . S
H2485 C2498 0.930 . S
H2486 C2499 0.930 . S
H2487 C2503 0.959 . S
H2488 C2503 0.959 . S
H2489 C2503 0.961 . S
H2490 C2504 0.960 . S
H2491 C2504 0.961 . S
H2492 C2504 0.959 . S
H2493 C2507 0.929 . S
H2494 C2508 0.931 . S
H2495 C2510 0.930 . S
C2496 H2484 0.930 . S
C2496 C2497 1.399 . S
C2496 C2501 1.399 . S
C2497 C2496 1.399 . S
C2497 C2498 1.376 . S
C2498 H2485 0.930 . S
C2498 C2497 1.376 . S
C2498 C2499 1.388 . S
C2499 H2486 0.930 . S
C2499 C2498 1.388 . S
C2499 C2500 1.390 . S
C2500 C2499 1.390 . S
C2500 C2501 1.394 . S
C2500 C2506 1.465 . S
C2501 C2496 1.399 . S
C2501 C2500 1.394 . S
C2501 C2502 1.516 . S
C2502 C2501 1.516 . S
C2502 C2503 1.502 . S
C2502 C2504 1.561 . S
C2502 C2505 1.526 . S
C2503 H2487 0.959 . S
C2503 H2488 0.959 . S
C2503 H2489 0.961 . S
C2503 C2502 1.502 . S
C2504 H2490 0.960 . S
C2504 H2491 0.961 . S
C2504 H2492 0.959 . S
C2504 C2502 1.561 . S
C2505 C2502 1.526 . S
C2505 C2506 1.396 . S
C2505 C2510 1.390 . S
C2506 C2500 1.465 . S
C2506 C2505 1.396 . S
C2506 C2507 1.399 . S
C2507 H2493 0.929 . S
C2507 C2506 1.399 . S
C2507 C2508 1.385 . S
C2508 H2494 0.931 . S
C2508 C2507 1.385 . S
C2508 C2509 1.389 . S
C2509 C2508 1.389 . S
C2509 C2510 1.387 . S
C2510 H2495 0.930 . S
C2510 C2505 1.390 . S
C2510 C2509 1.387 . S
H2511 C2523 0.930 . S
H2512 C2525 0.930 . S
H2513 C2526 0.930 . S
H2514 C2530 0.959 . S
H2515 C2530 0.959 . S
H2516 C2530 0.961 . S
H2517 C2531 0.960 . S
H2518 C2531 0.961 . S
H2519 C2531 0.959 . S
H2520 C2534 0.929 . S
H2521 C2535 0.931 . S
H2522 C2537 0.930 . S
C2523 H2511 0.930 . S
C2523 C2524 1.399 . S
C2523 C2528 1.399 . S
C2524 C2523 1.399 . S
C2524 C2525 1.376 . S
C2525 H2512 0.930 . S
C2525 C2524 1.376 . S
C2525 C2526 1.388 . S
C2526 H2513 0.930 . S
C2526 C2525 1.388 . S
C2526 C2527 1.390 . S
C2527 C2526 1.390 . S
C2527 C2528 1.394 . S
C2527 C2533 1.465 . S
C2528 C2523 1.399 . S
C2528 C2527 1.394 . S
C2528 C2529 1.516 . S
C2529 C2528 1.516 . S
C2529 C2530 1.502 . S
C2529 C2531 1.561 . S
C2529 C2532 1.526 . S
C2530 H2514 0.959 . S
C2530 H2515 0.959 . S
C2530 H2516 0.961 . S
C2530 C2529 1.502 . S
C2531 H2517 0.960 . S
C2531 H2518 0.961 . S
C2531 H2519 0.959 . S
C2531 C2529 1.561 . S
C2532 C2529 1.526 . S
C2532 C2533 1.396 . S
C2532 C2537 1.390 . S
C2533 C2527 1.465 . S
C2533 C2532 1.396 . S
C2533 C2534 1.399 . S
C2534 H2520 0.929 . S
C2534 C2533 1.399 . S
C2534 C2535 1.385 . S
C2535 H2521 0.931 . S
C2535 C2534 1.385 . S
C2535 C2536 1.389 . S
C2536 C2535 1.389 . S
C2536 C2537 1.387 . S
C2537 H2522 0.930 . S
C2537 C2532 1.390 . S
C2537 C2536 1.387 . S
H2538 C2550 0.930 . S
H2539 C2552 0.930 . S
H2540 C2553 0.930 . S
H2541 C2557 0.959 . S
H2542 C2557 0.959 . S
H2543 C2557 0.961 . S
H2544 C2558 0.960 . S
H2545 C2558 0.961 . S
H2546 C2558 0.959 . S
H2547 C2561 0.929 . S
H2548 C2562 0.931 . S
H2549 C2564 0.930 . S
C2550 H2538 0.930 . S
C2550 C2551 1.399 . S
C2550 C2555 1.399 . S
C2551 C2550 1.399 . S
C2551 C2552 1.376 . S
C2552 H2539 0.930 . S
C2552 C2551 1.376 . S
C2552 C2553 1.388 . S
C2553 H2540 0.930 . S
C2553 C2552 1.388 . S
C2553 C2554 1.390 . S
C2554 C2553 1.390 . S
C2554 C2555 1.394 . S
C2554 C2560 1.465 . S
C2555 C2550 1.399 . S
C2555 C2554 1.394 . S
C2555 C2556 1.516 . S
C2556 C2555 1.516 . S
C2556 C2557 1.502 . S
C2556 C2558 1.561 . S
C2556 C2559 1.526 . S
C2557 H2541 0.959 . S
C2557 H2542 0.959 . S
C2557 H2543 0.961 . S
C2557 C2556 1.502 . S
C2558 H2544 0.960 . S
C2558 H2545 0.961 . S
C2558 H2546 0.959 . S
C2558 C2556 1.561 . S
C2559 C2556 1.526 . S
C2559 C2560 1.396 . S
C2559 C2564 1.390 . S
C2560 C2554 1.465 . S
C2560 C2559 1.396 . S
C2560 C2561 1.399 . S
C2561 H2547 0.929 . S
C2561 C2560 1.399 . S
C2561 C2562 1.385 . S
C2562 H2548 0.931 . S
C2562 C2561 1.385 . S
C2562 C2563 1.389 . S
C2563 C2562 1.389 . S
C2563 C2564 1.387 . S
C2564 H2549 0.930 . S
C2564 C2559 1.390 . S
C2564 C2563 1.387 . S
H2565 C2577 0.930 . S
H2566 C2579 0.930 . S
H2567 C2580 0.930 . S
H2568 C2584 0.959 . S
H2569 C2584 0.959 . S
H2570 C2584 0.961 . S
H2571 C2585 0.960 . S
H2572 C2585 0.961 . S
H2573 C2585 0.959 . S
H2574 C2588 0.929 . S
H2575 C2589 0.931 . S
H2576 C2591 0.930 . S
C2577 H2565 0.930 . S
C2577 C2578 1.399 . S
C2577 C2582 1.399 . S
C2578 C2577 1.399 . S
C2578 C2579 1.376 . S
C2579 H2566 0.930 . S
C2579 C2578 1.376 . S
C2579 C2580 1.388 . S
C2580 H2567 0.930 . S
C2580 C2579 1.388 . S
C2580 C2581 1.390 . S
C2581 C2580 1.390 . S
C2581 C2582 1.394 . S
C2581 C2587 1.465 . S
C2582 C2577 1.399 . S
C2582 C2581 1.394 . S
C2582 C2583 1.516 . S
C2583 C2582 1.516 . S
C2583 C2584 1.502 . S
C2583 C2585 1.561 . S
C2583 C2586 1.526 . S
C2584 H2568 0.959 . S
C2584 H2569 0.959 . S
C2584 H2570 0.961 . S
C2584 C2583 1.502 . S
C2585 H2571 0.960 . S
C2585 H2572 0.961 . S
C2585 H2573 0.959 . S
C2585 C2583 1.561 . S
C2586 C2583 1.526 . S
C2586 C2587 1.396 . S
C2586 C2591 1.390 . S
C2587 C2581 1.465 . S
C2587 C2586 1.396 . S
C2587 C2588 1.399 . S
C2588 H2574 0.929 . S
C2588 C2587 1.399 . S
C2588 C2589 1.385 . S
C2589 H2575 0.931 . S
C2589 C2588 1.385 . S
C2589 C2590 1.389 . S
C2590 C2589 1.389 . S
C2590 C2591 1.387 . S
C2591 H2576 0.930 . S
C2591 C2586 1.390 . S
C2591 C2590 1.387 . S
H2592 C2604 0.930 . S
H2593 C2606 0.930 . S
H2594 C2607 0.930 . S
H2595 C2611 0.959 . S
H2596 C2611 0.959 . S
H2597 C2611 0.961 . S
H2598 C2612 0.960 . S
H2599 C2612 0.961 . S
H2600 C2612 0.959 . S
H2601 C2615 0.929 . S
H2602 C2616 0.931 . S
H2603 C2618 0.930 . S
C2604 H2592 0.930 . S
C2604 C2605 1.399 . S
C2604 C2609 1.399 . S
C2605 C2604 1.399 . S
C2605 C2606 1.376 . S
C2606 H2593 0.930 . S
C2606 C2605 1.376 . S
C2606 C2607 1.388 . S
C2607 H2594 0.930 . S
C2607 C2606 1.388 . S
C2607 C2608 1.390 . S
C2608 C2607 1.390 . S
C2608 C2609 1.394 . S
C2608 C2614 1.465 . S
C2609 C2604 1.399 . S
C2609 C2608 1.394 . S
C2609 C2610 1.516 . S
C2610 C2609 1.516 . S
C2610 C2611 1.502 . S
C2610 C2612 1.561 . S
C2610 C2613 1.526 . S
C2611 H2595 0.959 . S
C2611 H2596 0.959 . S
C2611 H2597 0.961 . S
C2611 C2610 1.502 . S
C2612 H2598 0.960 . S
C2612 H2599 0.961 . S
C2612 H2600 0.959 . S
C2612 C2610 1.561 . S
C2613 C2610 1.526 . S
C2613 C2614 1.396 . S
C2613 C2618 1.390 . S
C2614 C2608 1.465 . S
C2614 C2613 1.396 . S
C2614 C2615 1.399 . S
C2615 H2601 0.929 . S
C2615 C2614 1.399 . S
C2615 C2616 1.385 . S
C2616 H2602 0.931 . S
C2616 C2615 1.385 . S
C2616 C2617 1.389 . S
C2617 C2616 1.389 . S
C2617 C2618 1.387 . S
C2618 H2603 0.930 . S
C2618 C2613 1.390 . S
C2618 C2617 1.387 . S
H2619 C2631 0.930 . S
H2620 C2633 0.930 . S
H2621 C2634 0.930 . S
H2622 C2638 0.959 . S
H2623 C2638 0.959 . S
H2624 C2638 0.961 . S
H2625 C2639 0.960 . S
H2626 C2639 0.961 . S
H2627 C2639 0.959 . S
H2628 C2642 0.929 . S
H2629 C2643 0.931 . S
H2630 C2645 0.930 . S
C2631 H2619 0.930 . S
C2631 C2632 1.399 . S
C2631 C2636 1.399 . S
C2632 C2631 1.399 . S
C2632 C2633 1.376 . S
C2633 H2620 0.930 . S
C2633 C2632 1.376 . S
C2633 C2634 1.388 . S
C2634 H2621 0.930 . S
C2634 C2633 1.388 . S
C2634 C2635 1.390 . S
C2635 C2634 1.390 . S
C2635 C2636 1.394 . S
C2635 C2641 1.465 . S
C2636 C2631 1.399 . S
C2636 C2635 1.394 . S
C2636 C2637 1.516 . S
C2637 C2636 1.516 . S
C2637 C2638 1.502 . S
C2637 C2639 1.561 . S
C2637 C2640 1.526 . S
C2638 H2622 0.959 . S
C2638 H2623 0.959 . S
C2638 H2624 0.961 . S
C2638 C2637 1.502 . S
C2639 H2625 0.960 . S
C2639 H2626 0.961 . S
C2639 H2627 0.959 . S
C2639 C2637 1.561 . S
C2640 C2637 1.526 . S
C2640 C2641 1.396 . S
C2640 C2645 1.390 . S
C2641 C2635 1.465 . S
C2641 C2640 1.396 . S
C2641 C2642 1.399 . S
C2642 H2628 0.929 . S
C2642 C2641 1.399 . S
C2642 C2643 1.385 . S
C2643 H2629 0.931 . S
C2643 C2642 1.385 . S
C2643 C2644 1.389 . S
C2644 C2643 1.389 . S
C2644 C2645 1.387 . S
C2645 H2630 0.930 . S
C2645 C2640 1.390 . S
C2645 C2644 1.387 . S
H2646 C2658 0.930 . S
H2647 C2660 0.930 . S
H2648 C2661 0.930 . S
H2649 C2665 0.959 . S
H2650 C2665 0.959 . S
H2651 C2665 0.961 . S
H2652 C2666 0.960 . S
H2653 C2666 0.961 . S
H2654 C2666 0.959 . S
H2655 C2669 0.929 . S
H2656 C2670 0.931 . S
H2657 C2672 0.930 . S
C2658 H2646 0.930 . S
C2658 C2659 1.399 . S
C2658 C2663 1.399 . S
C2659 C2658 1.399 . S
C2659 C2660 1.376 . S
C2660 H2647 0.930 . S
C2660 C2659 1.376 . S
C2660 C2661 1.388 . S
C2661 H2648 0.930 . S
C2661 C2660 1.388 . S
C2661 C2662 1.390 . S
C2662 C2661 1.390 . S
C2662 C2663 1.394 . S
C2662 C2668 1.465 . S
C2663 C2658 1.399 . S
C2663 C2662 1.394 . S
C2663 C2664 1.516 . S
C2664 C2663 1.516 . S
C2664 C2665 1.502 . S
C2664 C2666 1.561 . S
C2664 C2667 1.526 . S
C2665 H2649 0.959 . S
C2665 H2650 0.959 . S
C2665 H2651 0.961 . S
C2665 C2664 1.502 . S
C2666 H2652 0.960 . S
C2666 H2653 0.961 . S
C2666 H2654 0.959 . S
C2666 C2664 1.561 . S
C2667 C2664 1.526 . S
C2667 C2668 1.396 . S
C2667 C2672 1.390 . S
C2668 C2662 1.465 . S
C2668 C2667 1.396 . S
C2668 C2669 1.399 . S
C2669 H2655 0.929 . S
C2669 C2668 1.399 . S
C2669 C2670 1.385 . S
C2670 H2656 0.931 . S
C2670 C2669 1.385 . S
C2670 C2671 1.389 . S
C2671 C2670 1.389 . S
C2671 C2672 1.387 . S
C2672 H2657 0.930 . S
C2672 C2667 1.390 . S
C2672 C2671 1.387 . S
H2673 C2685 0.930 . S
H2674 C2687 0.930 . S
H2675 C2688 0.930 . S
H2676 C2692 0.959 . S
H2677 C2692 0.959 . S
H2678 C2692 0.961 . S
H2679 C2693 0.960 . S
H2680 C2693 0.961 . S
H2681 C2693 0.959 . S
H2682 C2696 0.929 . S
H2683 C2697 0.931 . S
H2684 C2699 0.930 . S
C2685 H2673 0.930 . S
C2685 C2686 1.399 . S
C2685 C2690 1.399 . S
C2686 C2685 1.399 . S
C2686 C2687 1.376 . S
C2687 H2674 0.930 . S
C2687 C2686 1.376 . S
C2687 C2688 1.388 . S
C2688 H2675 0.930 . S
C2688 C2687 1.388 . S
C2688 C2689 1.390 . S
C2689 C2688 1.390 . S
C2689 C2690 1.394 . S
C2689 C2695 1.465 . S
C2690 C2685 1.399 . S
C2690 C2689 1.394 . S
C2690 C2691 1.516 . S
C2691 C2690 1.516 . S
C2691 C2692 1.502 . S
C2691 C2693 1.561 . S
C2691 C2694 1.526 . S
C2692 H2676 0.959 . S
C2692 H2677 0.959 . S
C2692 H2678 0.961 . S
C2692 C2691 1.502 . S
C2693 H2679 0.960 . S
C2693 H2680 0.961 . S
C2693 H2681 0.959 . S
C2693 C2691 1.561 . S
C2694 C2691 1.526 . S
C2694 C2695 1.396 . S
C2694 C2699 1.390 . S
C2695 C2689 1.465 . S
C2695 C2694 1.396 . S
C2695 C2696 1.399 . S
C2696 H2682 0.929 . S
C2696 C2695 1.399 . S
C2696 C2697 1.385 . S
C2697 H2683 0.931 . S
C2697 C2696 1.385 . S
C2697 C2698 1.389 . S
C2698 C2697 1.389 . S
C2698 C2699 1.387 . S
C2699 H2684 0.930 . S
C2699 C2694 1.390 . S
C2699 C2698 1.387 . S
H2700 C2712 0.930 . S
H2701 C2714 0.930 . S
H2702 C2715 0.930 . S
H2703 C2719 0.959 . S
H2704 C2719 0.959 . S
H2705 C2719 0.961 . S
H2706 C2720 0.960 . S
H2707 C2720 0.961 . S
H2708 C2720 0.959 . S
H2709 C2723 0.929 . S
H2710 C2724 0.931 . S
H2711 C2726 0.930 . S
C2712 H2700 0.930 . S
C2712 C2713 1.399 . S
C2712 C2717 1.399 . S
C2713 C2712 1.399 . S
C2713 C2714 1.376 . S
C2714 H2701 0.930 . S
C2714 C2713 1.376 . S
C2714 C2715 1.388 . S
C2715 H2702 0.930 . S
C2715 C2714 1.388 . S
C2715 C2716 1.390 . S
C2716 C2715 1.390 . S
C2716 C2717 1.394 . S
C2716 C2722 1.465 . S
C2717 C2712 1.399 . S
C2717 C2716 1.394 . S
C2717 C2718 1.516 . S
C2718 C2717 1.516 . S
C2718 C2719 1.502 . S
C2718 C2720 1.561 . S
C2718 C2721 1.526 . S
C2719 H2703 0.959 . S
C2719 H2704 0.959 . S
C2719 H2705 0.961 . S
C2719 C2718 1.502 . S
C2720 H2706 0.960 . S
C2720 H2707 0.961 . S
C2720 H2708 0.959 . S
C2720 C2718 1.561 . S
C2721 C2718 1.526 . S
C2721 C2722 1.396 . S
C2721 C2726 1.390 . S
C2722 C2716 1.465 . S
C2722 C2721 1.396 . S
C2722 C2723 1.399 . S
C2723 H2709 0.929 . S
C2723 C2722 1.399 . S
C2723 C2724 1.385 . S
C2724 H2710 0.931 . S
C2724 C2723 1.385 . S
C2724 C2725 1.389 . S
C2725 C2724 1.389 . S
C2725 C2726 1.387 . S
C2726 H2711 0.930 . S
C2726 C2721 1.390 . S
C2726 C2725 1.387 . S
H2727 C2739 0.930 . S
H2728 C2741 0.930 . S
H2729 C2742 0.930 . S
H2730 C2746 0.959 . S
H2731 C2746 0.959 . S
H2732 C2746 0.961 . S
H2733 C2747 0.960 . S
H2734 C2747 0.961 . S
H2735 C2747 0.959 . S
H2736 C2750 0.929 . S
H2737 C2751 0.931 . S
H2738 C2753 0.930 . S
C2739 H2727 0.930 . S
C2739 C2740 1.399 . S
C2739 C2744 1.399 . S
C2740 C2739 1.399 . S
C2740 C2741 1.376 . S
C2741 H2728 0.930 . S
C2741 C2740 1.376 . S
C2741 C2742 1.388 . S
C2742 H2729 0.930 . S
C2742 C2741 1.388 . S
C2742 C2743 1.390 . S
C2743 C2742 1.390 . S
C2743 C2744 1.394 . S
C2743 C2749 1.465 . S
C2744 C2739 1.399 . S
C2744 C2743 1.394 . S
C2744 C2745 1.516 . S
C2745 C2744 1.516 . S
C2745 C2746 1.502 . S
C2745 C2747 1.561 . S
C2745 C2748 1.526 . S
C2746 H2730 0.959 . S
C2746 H2731 0.959 . S
C2746 H2732 0.961 . S
C2746 C2745 1.502 . S
C2747 H2733 0.960 . S
C2747 H2734 0.961 . S
C2747 H2735 0.959 . S
C2747 C2745 1.561 . S
C2748 C2745 1.526 . S
C2748 C2749 1.396 . S
C2748 C2753 1.390 . S
C2749 C2743 1.465 . S
C2749 C2748 1.396 . S
C2749 C2750 1.399 . S
C2750 H2736 0.929 . S
C2750 C2749 1.399 . S
C2750 C2751 1.385 . S
C2751 H2737 0.931 . S
C2751 C2750 1.385 . S
C2751 C2752 1.389 . S
C2752 C2751 1.389 . S
C2752 C2753 1.387 . S
C2753 H2738 0.930 . S
C2753 C2748 1.390 . S
C2753 C2752 1.387 . S
H2754 C2766 0.930 . S
H2755 C2768 0.930 . S
H2756 C2769 0.930 . S
H2757 C2773 0.959 . S
H2758 C2773 0.959 . S
H2759 C2773 0.961 . S
H2760 C2774 0.960 . S
H2761 C2774 0.961 . S
H2762 C2774 0.959 . S
H2763 C2777 0.929 . S
H2764 C2778 0.931 . S
H2765 C2780 0.930 . S
C2766 H2754 0.930 . S
C2766 C2767 1.399 . S
C2766 C2771 1.399 . S
C2767 C2766 1.399 . S
C2767 C2768 1.376 . S
C2768 H2755 0.930 . S
C2768 C2767 1.376 . S
C2768 C2769 1.388 . S
C2769 H2756 0.930 . S
C2769 C2768 1.388 . S
C2769 C2770 1.390 . S
C2770 C2769 1.390 . S
C2770 C2771 1.394 . S
C2770 C2776 1.465 . S
C2771 C2766 1.399 . S
C2771 C2770 1.394 . S
C2771 C2772 1.516 . S
C2772 C2771 1.516 . S
C2772 C2773 1.502 . S
C2772 C2774 1.561 . S
C2772 C2775 1.526 . S
C2773 H2757 0.959 . S
C2773 H2758 0.959 . S
C2773 H2759 0.961 . S
C2773 C2772 1.502 . S
C2774 H2760 0.960 . S
C2774 H2761 0.961 . S
C2774 H2762 0.959 . S
C2774 C2772 1.561 . S
C2775 C2772 1.526 . S
C2775 C2776 1.396 . S
C2775 C2780 1.390 . S
C2776 C2770 1.465 . S
C2776 C2775 1.396 . S
C2776 C2777 1.399 . S
C2777 H2763 0.929 . S
C2777 C2776 1.399 . S
C2777 C2778 1.385 . S
C2778 H2764 0.931 . S
C2778 C2777 1.385 . S
C2778 C2779 1.389 . S
C2779 C2778 1.389 . S
C2779 C2780 1.387 . S
C2780 H2765 0.930 . S
C2780 C2775 1.390 . S
C2780 C2779 1.387 . S
H2781 C2793 0.930 . S
H2782 C2795 0.930 . S
H2783 C2796 0.930 . S
H2784 C2800 0.959 . S
H2785 C2800 0.959 . S
H2786 C2800 0.961 . S
H2787 C2801 0.960 . S
H2788 C2801 0.961 . S
H2789 C2801 0.959 . S
H2790 C2804 0.929 . S
H2791 C2805 0.931 . S
H2792 C2807 0.930 . S
C2793 H2781 0.930 . S
C2793 C2794 1.399 . S
C2793 C2798 1.399 . S
C2794 C2793 1.399 . S
C2794 C2795 1.376 . S
C2795 H2782 0.930 . S
C2795 C2794 1.376 . S
C2795 C2796 1.388 . S
C2796 H2783 0.930 . S
C2796 C2795 1.388 . S
C2796 C2797 1.390 . S
C2797 C2796 1.390 . S
C2797 C2798 1.394 . S
C2797 C2803 1.465 . S
C2798 C2793 1.399 . S
C2798 C2797 1.394 . S
C2798 C2799 1.516 . S
C2799 C2798 1.516 . S
C2799 C2800 1.502 . S
C2799 C2801 1.561 . S
C2799 C2802 1.526 . S
C2800 H2784 0.959 . S
C2800 H2785 0.959 . S
C2800 H2786 0.961 . S
C2800 C2799 1.502 . S
C2801 H2787 0.960 . S
C2801 H2788 0.961 . S
C2801 H2789 0.959 . S
C2801 C2799 1.561 . S
C2802 C2799 1.526 . S
C2802 C2803 1.396 . S
C2802 C2807 1.390 . S
C2803 C2797 1.465 . S
C2803 C2802 1.396 . S
C2803 C2804 1.399 . S
C2804 H2790 0.929 . S
C2804 C2803 1.399 . S
C2804 C2805 1.385 . S
C2805 H2791 0.931 . S
C2805 C2804 1.385 . S
C2805 C2806 1.389 . S
C2806 C2805 1.389 . S
C2806 C2807 1.387 . S
C2807 H2792 0.930 . S
C2807 C2802 1.390 . S
C2807 C2806 1.387 . S
H2808 C2820 0.930 . S
H2809 C2822 0.930 . S
H2810 C2823 0.930 . S
H2811 C2827 0.959 . S
H2812 C2827 0.959 . S
H2813 C2827 0.961 . S
H2814 C2828 0.960 . S
H2815 C2828 0.961 . S
H2816 C2828 0.959 . S
H2817 C2831 0.929 . S
H2818 C2832 0.931 . S
H2819 C2834 0.930 . S
C2820 H2808 0.930 . S
C2820 C2821 1.399 . S
C2820 C2825 1.399 . S
C2821 C2820 1.399 . S
C2821 C2822 1.376 . S
C2822 H2809 0.930 . S
C2822 C2821 1.376 . S
C2822 C2823 1.388 . S
C2823 H2810 0.930 . S
C2823 C2822 1.388 . S
C2823 C2824 1.390 . S
C2824 C2823 1.390 . S
C2824 C2825 1.394 . S
C2824 C2830 1.465 . S
C2825 C2820 1.399 . S
C2825 C2824 1.394 . S
C2825 C2826 1.516 . S
C2826 C2825 1.516 . S
C2826 C2827 1.502 . S
C2826 C2828 1.561 . S
C2826 C2829 1.526 . S
C2827 H2811 0.959 . S
C2827 H2812 0.959 . S
C2827 H2813 0.961 . S
C2827 C2826 1.502 . S
C2828 H2814 0.960 . S
C2828 H2815 0.961 . S
C2828 H2816 0.959 . S
C2828 C2826 1.561 . S
C2829 C2826 1.526 . S
C2829 C2830 1.396 . S
C2829 C2834 1.390 . S
C2830 C2824 1.465 . S
C2830 C2829 1.396 . S
C2830 C2831 1.399 . S
C2831 H2817 0.929 . S
C2831 C2830 1.399 . S
C2831 C2832 1.385 . S
C2832 H2818 0.931 . S
C2832 C2831 1.385 . S
C2832 C2833 1.389 . S
C2833 C2832 1.389 . S
C2833 C2834 1.387 . S
C2834 H2819 0.930 . S
C2834 C2829 1.390 . S
C2834 C2833 1.387 . S
H2835 C2847 0.930 . S
H2836 C2849 0.930 . S
H2837 C2850 0.930 . S
H2838 C2854 0.959 . S
H2839 C2854 0.959 . S
H2840 C2854 0.961 . S
H2841 C2855 0.960 . S
H2842 C2855 0.961 . S
H2843 C2855 0.959 . S
H2844 C2858 0.929 . S
H2845 C2859 0.931 . S
H2846 C2861 0.930 . S
C2847 H2835 0.930 . S
C2847 C2848 1.399 . S
C2847 C2852 1.399 . S
C2848 C2847 1.399 . S
C2848 C2849 1.376 . S
C2849 H2836 0.930 . S
C2849 C2848 1.376 . S
C2849 C2850 1.388 . S
C2850 H2837 0.930 . S
C2850 C2849 1.388 . S
C2850 C2851 1.390 . S
C2851 C2850 1.390 . S
C2851 C2852 1.394 . S
C2851 C2857 1.465 . S
C2852 C2847 1.399 . S
C2852 C2851 1.394 . S
C2852 C2853 1.516 . S
C2853 C2852 1.516 . S
C2853 C2854 1.502 . S
C2853 C2855 1.561 . S
C2853 C2856 1.526 . S
C2854 H2838 0.959 . S
C2854 H2839 0.959 . S
C2854 H2840 0.961 . S
C2854 C2853 1.502 . S
C2855 H2841 0.960 . S
C2855 H2842 0.961 . S
C2855 H2843 0.959 . S
C2855 C2853 1.561 . S
C2856 C2853 1.526 . S
C2856 C2857 1.396 . S
C2856 C2861 1.390 . S
C2857 C2851 1.465 . S
C2857 C2856 1.396 . S
C2857 C2858 1.399 . S
C2858 H2844 0.929 . S
C2858 C2857 1.399 . S
C2858 C2859 1.385 . S
C2859 H2845 0.931 . S
C2859 C2858 1.385 . S
C2859 C2860 1.389 . S
C2860 C2859 1.389 . S
C2860 C2861 1.387 . S
C2861 H2846 0.930 . S
C2861 C2856 1.390 . S
C2861 C2860 1.387 . S
H2862 C2874 0.930 . S
H2863 C2876 0.930 . S
H2864 C2877 0.930 . S
H2865 C2881 0.959 . S
H2866 C2881 0.959 . S
H2867 C2881 0.961 . S
H2868 C2882 0.960 . S
H2869 C2882 0.961 . S
H2870 C2882 0.959 . S
H2871 C2885 0.929 . S
H2872 C2886 0.931 . S
H2873 C2888 0.930 . S
C2874 H2862 0.930 . S
C2874 C2875 1.399 . S
C2874 C2879 1.399 . S
C2875 C2874 1.399 . S
C2875 C2876 1.376 . S
C2876 H2863 0.930 . S
C2876 C2875 1.376 . S
C2876 C2877 1.388 . S
C2877 H2864 0.930 . S
C2877 C2876 1.388 . S
C2877 C2878 1.390 . S
C2878 C2877 1.390 . S
C2878 C2879 1.394 . S
C2878 C2884 1.465 . S
C2879 C2874 1.399 . S
C2879 C2878 1.394 . S
C2879 C2880 1.516 . S
C2880 C2879 1.516 . S
C2880 C2881 1.502 . S
C2880 C2882 1.561 . S
C2880 C2883 1.526 . S
C2881 H2865 0.959 . S
C2881 H2866 0.959 . S
C2881 H2867 0.961 . S
C2881 C2880 1.502 . S
C2882 H2868 0.960 . S
C2882 H2869 0.961 . S
C2882 H2870 0.959 . S
C2882 C2880 1.561 . S
C2883 C2880 1.526 . S
C2883 C2884 1.396 . S
C2883 C2888 1.390 . S
C2884 C2878 1.465 . S
C2884 C2883 1.396 . S
C2884 C2885 1.399 . S
C2885 H2871 0.929 . S
C2885 C2884 1.399 . S
C2885 C2886 1.385 . S
C2886 H2872 0.931 . S
C2886 C2885 1.385 . S
C2886 C2887 1.389 . S
C2887 C2886 1.389 . S
C2887 C2888 1.387 . S
C2888 H2873 0.930 . S
C2888 C2883 1.390 . S
C2888 C2887 1.387 . S
H2889 C2901 0.930 . S
H2890 C2903 0.930 . S
H2891 C2904 0.930 . S
H2892 C2908 0.959 . S
H2893 C2908 0.959 . S
H2894 C2908 0.961 . S
H2895 C2909 0.960 . S
H2896 C2909 0.961 . S
H2897 C2909 0.959 . S
H2898 C2912 0.929 . S
H2899 C2913 0.931 . S
H2900 C2915 0.930 . S
C2901 H2889 0.930 . S
C2901 C2902 1.399 . S
C2901 C2906 1.399 . S
C2902 C2901 1.399 . S
C2902 C2903 1.376 . S
C2903 H2890 0.930 . S
C2903 C2902 1.376 . S
C2903 C2904 1.388 . S
C2904 H2891 0.930 . S
C2904 C2903 1.388 . S
C2904 C2905 1.390 . S
C2905 C2904 1.390 . S
C2905 C2906 1.394 . S
C2905 C2911 1.465 . S
C2906 C2901 1.399 . S
C2906 C2905 1.394 . S
C2906 C2907 1.516 . S
C2907 C2906 1.516 . S
C2907 C2908 1.502 . S
C2907 C2909 1.561 . S
C2907 C2910 1.526 . S
C2908 H2892 0.959 . S
C2908 H2893 0.959 . S
C2908 H2894 0.961 . S
C2908 C2907 1.502 . S
C2909 H2895 0.960 . S
C2909 H2896 0.961 . S
C2909 H2897 0.959 . S
C2909 C2907 1.561 . S
C2910 C2907 1.526 . S
C2910 C2911 1.396 . S
C2910 C2915 1.390 . S
C2911 C2905 1.465 . S
C2911 C2910 1.396 . S
C2911 C2912 1.399 . S
C2912 H2898 0.929 . S
C2912 C2911 1.399 . S
C2912 C2913 1.385 . S
C2913 H2899 0.931 . S
C2913 C2912 1.385 . S
C2913 C2914 1.389 . S
C2914 C2913 1.389 . S
C2914 C2915 1.387 . S
C2915 H2900 0.930 . S
C2915 C2910 1.390 . S
C2915 C2914 1.387 . S
H2916 C2928 0.930 . S
H2917 C2930 0.930 . S
H2918 C2931 0.930 . S
H2919 C2935 0.959 . S
H2920 C2935 0.959 . S
H2921 C2935 0.961 . S
H2922 C2936 0.960 . S
H2923 C2936 0.961 . S
H2924 C2936 0.959 . S
H2925 C2939 0.929 . S
H2926 C2940 0.931 . S
H2927 C2942 0.930 . S
C2928 H2916 0.930 . S
C2928 C2929 1.399 . S
C2928 C2933 1.399 . S
C2929 C2928 1.399 . S
C2929 C2930 1.376 . S
C2930 H2917 0.930 . S
C2930 C2929 1.376 . S
C2930 C2931 1.388 . S
C2931 H2918 0.930 . S
C2931 C2930 1.388 . S
C2931 C2932 1.390 . S
C2932 C2931 1.390 . S
C2932 C2933 1.394 . S
C2932 C2938 1.465 . S
C2933 C2928 1.399 . S
C2933 C2932 1.394 . S
C2933 C2934 1.516 . S
C2934 C2933 1.516 . S
C2934 C2935 1.502 . S
C2934 C2936 1.561 . S
C2934 C2937 1.526 . S
C2935 H2919 0.959 . S
C2935 H2920 0.959 . S
C2935 H2921 0.961 . S
C2935 C2934 1.502 . S
C2936 H2922 0.960 . S
C2936 H2923 0.961 . S
C2936 H2924 0.959 . S
C2936 C2934 1.561 . S
C2937 C2934 1.526 . S
C2937 C2938 1.396 . S
C2937 C2942 1.390 . S
C2938 C2932 1.465 . S
C2938 C2937 1.396 . S
C2938 C2939 1.399 . S
C2939 H2925 0.929 . S
C2939 C2938 1.399 . S
C2939 C2940 1.385 . S
C2940 H2926 0.931 . S
C2940 C2939 1.385 . S
C2940 C2941 1.389 . S
C2941 C2940 1.389 . S
C2941 C2942 1.387 . S
C2942 H2927 0.930 . S
C2942 C2937 1.390 . S
C2942 C2941 1.387 . S
H2943 C2955 0.930 . S
H2944 C2957 0.930 . S
H2945 C2958 0.930 . S
H2946 C2962 0.959 . S
H2947 C2962 0.959 . S
H2948 C2962 0.961 . S
H2949 C2963 0.960 . S
H2950 C2963 0.961 . S
H2951 C2963 0.959 . S
H2952 C2966 0.929 . S
H2953 C2967 0.931 . S
H2954 C2969 0.930 . S
C2955 H2943 0.930 . S
C2955 C2956 1.399 . S
C2955 C2960 1.399 . S
C2956 C2955 1.399 . S
C2956 C2957 1.376 . S
C2957 H2944 0.930 . S
C2957 C2956 1.376 . S
C2957 C2958 1.388 . S
C2958 H2945 0.930 . S
C2958 C2957 1.388 . S
C2958 C2959 1.390 . S
C2959 C2958 1.390 . S
C2959 C2960 1.394 . S
C2959 C2965 1.465 . S
C2960 C2955 1.399 . S
C2960 C2959 1.394 . S
C2960 C2961 1.516 . S
C2961 C2960 1.516 . S
C2961 C2962 1.502 . S
C2961 C2963 1.561 . S
C2961 C2964 1.526 . S
C2962 H2946 0.959 . S
C2962 H2947 0.959 . S
C2962 H2948 0.961 . S
C2962 C2961 1.502 . S
C2963 H2949 0.960 . S
C2963 H2950 0.961 . S
C2963 H2951 0.959 . S
C2963 C2961 1.561 . S
C2964 C2961 1.526 . S
C2964 C2965 1.396 . S
C2964 C2969 1.390 . S
C2965 C2959 1.465 . S
C2965 C2964 1.396 . S
C2965 C2966 1.399 . S
C2966 H2952 0.929 . S
C2966 C2965 1.399 . S
C2966 C2967 1.385 . S
C2967 H2953 0.931 . S
C2967 C2966 1.385 . S
C2967 C2968 1.389 . S
C2968 C2967 1.389 . S
C2968 C2969 1.387 . S
C2969 H2954 0.930 . S
C2969 C2964 1.390 . S
C2969 C2968 1.387 . S
H2970 C2982 0.930 . S
H2971 C2984 0.930 . S
H2972 C2985 0.930 . S
H2973 C2989 0.959 . S
H2974 C2989 0.959 . S
H2975 C2989 0.961 . S
H2976 C2990 0.960 . S
H2977 C2990 0.961 . S
H2978 C2990 0.959 . S
H2979 C2993 0.929 . S
H2980 C2994 0.931 . S
H2981 C2996 0.930 . S
C2982 H2970 0.930 . S
C2982 C2983 1.399 . S
C2982 C2987 1.399 . S
C2983 C2982 1.399 . S
C2983 C2984 1.376 . S
C2984 H2971 0.930 . S
C2984 C2983 1.376 . S
C2984 C2985 1.388 . S
C2985 H2972 0.930 . S
C2985 C2984 1.388 . S
C2985 C2986 1.390 . S
C2986 C2985 1.390 . S
C2986 C2987 1.394 . S
C2986 C2992 1.465 . S
C2987 C2982 1.399 . S
C2987 C2986 1.394 . S
C2987 C2988 1.516 . S
C2988 C2987 1.516 . S
C2988 C2989 1.502 . S
C2988 C2990 1.561 . S
C2988 C2991 1.526 . S
C2989 H2973 0.959 . S
C2989 H2974 0.959 . S
C2989 H2975 0.961 . S
C2989 C2988 1.502 . S
C2990 H2976 0.960 . S
C2990 H2977 0.961 . S
C2990 H2978 0.959 . S
C2990 C2988 1.561 . S
C2991 C2988 1.526 . S
C2991 C2992 1.396 . S
C2991 C2996 1.390 . S
C2992 C2986 1.465 . S
C2992 C2991 1.396 . S
C2992 C2993 1.399 . S
C2993 H2979 0.929 . S
C2993 C2992 1.399 . S
C2993 C2994 1.385 . S
C2994 H2980 0.931 . S
C2994 C2993 1.385 . S
C2994 C2995 1.389 . S
C2995 C2994 1.389 . S
C2995 C2996 1.387 . S
C2996 H2981 0.930 . S
C2996 C2991 1.390 . S
C2996 C2995 1.387 . S
H2997 C3009 0.930 . S
H2998 C3011 0.930 . S
H2999 C3012 0.930 . S
H3000 C3016 0.959 . S
H3001 C3016 0.959 . S
H3002 C3016 0.961 . S
H3003 C3017 0.960 . S
H3004 C3017 0.961 . S
H3005 C3017 0.959 . S
H3006 C3020 0.929 . S
H3007 C3021 0.931 . S
H3008 C3023 0.930 . S
C3009 H2997 0.930 . S
C3009 C3010 1.399 . S
C3009 C3014 1.399 . S
C3010 C3009 1.399 . S
C3010 C3011 1.376 . S
C3011 H2998 0.930 . S
C3011 C3010 1.376 . S
C3011 C3012 1.388 . S
C3012 H2999 0.930 . S
C3012 C3011 1.388 . S
C3012 C3013 1.390 . S
C3013 C3012 1.390 . S
C3013 C3014 1.394 . S
C3013 C3019 1.465 . S
C3014 C3009 1.399 . S
C3014 C3013 1.394 . S
C3014 C3015 1.516 . S
C3015 C3014 1.516 . S
C3015 C3016 1.502 . S
C3015 C3017 1.561 . S
C3015 C3018 1.526 . S
C3016 H3000 0.959 . S
C3016 H3001 0.959 . S
C3016 H3002 0.961 . S
C3016 C3015 1.502 . S
C3017 H3003 0.960 . S
C3017 H3004 0.961 . S
C3017 H3005 0.959 . S
C3017 C3015 1.561 . S
C3018 C3015 1.526 . S
C3018 C3019 1.396 . S
C3018 C3023 1.390 . S
C3019 C3013 1.465 . S
C3019 C3018 1.396 . S
C3019 C3020 1.399 . S
C3020 H3006 0.929 . S
C3020 C3019 1.399 . S
C3020 C3021 1.385 . S
C3021 H3007 0.931 . S
C3021 C3020 1.385 . S
C3021 C3022 1.389 . S
C3022 C3021 1.389 . S
C3022 C3023 1.387 . S
C3023 H3008 0.930 . S
C3023 C3018 1.390 . S
C3023 C3022 1.387 . S
C1105 C810 1.017 . S
C1093 C765 1.122 . S
C1120 C701 1.147 . S
C1132 C804 1.086 . S
C1159 C772 1.167 . S
C1147 C669 1.270 . S
C1174 C733 1.274 . S
C1186 C786 1.269 . S
C1213 C824 1.629 . S
C1201 C541 1.661 . S
C1240 C911 1.123 . S
C1228 C573 1.097 . S
C1255 C605 1.769 . S
C1267 C838 1.719 . S
C1294 C906 0.769 . S
C1282 C637 0.849 . S
C1309 C413 1.702 . S
C1321 C862 1.644 . S
C1348 C917 1.234 . S
C1336 C445 1.178 . S
C1363 C477 1.618 . S
C1375 C856 1.619 . S
C1390 C509 0.824 . S
C1402 C902 0.858 . S
C1429 C958 0.849 . S
C1417 C381 0.819 . S
C1444 C317 1.274 . S
C1456 C969 1.244 . S
C1471 C285 0.915 . S
C1483 C954 0.973 . S
C1510 C963 1.282 . S
C1498 C349 1.312 1_554 S
C1525 C157 1.195 1_455 S
C1537 C1008 1.218 . S
C1552 C189 0.376 . S
C1564 C1067 0.457 . S
C1579 C221 1.359 . S
C1591 C1024 1.349 . S
C1606 C253 0.824 . S
C1618 C1062 0.836 . S
C1645 C1026 1.345 . S
C1633 C29 1.343 . S
C1672 C1073 0.332 . S
C1660 C61 0.376 . S
C1687 C93 1.221 . S
C1699 C1002 1.098 . S
C1726 C1058 0.725 . S
C1714 C125 0.789 1_545 S
C1753 C794 1.700 . S
C1741 C23 1.714 . S
C1768 C55 1.395 . S
C1780 C798 1.522 . S
C1795 C87 1.790 . S
C1807 C818 1.707 . S
C1822 C113 1.210 1_545 S
C1834 C813 1.239 . S
C1849 C151 1.802 1_455 S
C1861 C816 1.779 . S
C1888 C802 1.487 . S
C1876 C183 1.388 . S
C1903 C215 1.716 . S
C1915 C800 1.751 . S
C1942 C807 1.216 . S
C1930 C247 1.102 . S
C1969 C870 1.679 . S
C1957 C119 1.798 1_545 S
C1984 C17 1.981 . S
C1996 C920 2.022 . S
C2023 C868 1.445 . S
C2011 C49 1.418 . S
C2050 C904 1.947 . S
C2038 C81 1.963 . S
C2065 C177 1.352 . S
C2077 C846 1.322 . S
C2104 C922 2.026 . S
C2092 C209 2.023 . S
C2131 C852 1.680 . S
C2119 C241 1.702 . S
C2158 C898 1.933 . S
C2146 C145 1.933 1_455 S
C2185 C890 1.799 . S
C2173 C279 1.742 . S
C2200 C305 1.582 . S
C2212 C914 1.622 . S
C2239 C850 1.449 . S
C2227 C273 1.426 . S
C2266 C876 1.693 1_556 S
C2254 C337 1.617 1_554 S
C2281 C375 1.404 . S
C2293 C854 1.360 . S
C2308 C369 1.606 . S
C2320 C908 1.684 . S
C2347 C865 1.740 . S
C2335 C311 1.662 . S
C2374 C859 1.778 . S
C2362 C343 1.625 1_554 S
C2401 C942 2.139 . S
C2389 C407 2.071 . S
C2428 C974 1.776 . S
C2416 C439 1.662 . S
C2443 C471 2.032 . S
C2455 C928 2.120 . S
C2482 C972 1.457 . S
C2470 C497 1.397 . S
C2509 C960 2.092 . S
C2497 C535 2.075 . S
C2524 C561 1.594 . S
C2536 C956 1.709 . S
C2551 C599 2.120 . S
C2563 C966 2.163 . S
C2590 C950 1.398 . S
C2578 C631 1.275 . S
C2617 C1015 1.664 . S
C2605 C503 1.554 . S
C2632 C401 1.825 . S
C2644 C1076 1.839 . S
C2671 C1010 1.404 . S
C2659 C433 1.303 . S
C2698 C1060 1.832 . S
C2686 C465 1.761 . S
C2725 C1006 1.322 . S
C2713 C567 1.153 . S
C2740 C593 1.778 . S
C2752 C1078 1.794 . S
C2779 C1021 1.559 . S
C2767 C625 1.598 . S
C2806 C1054 1.676 . S
C2794 C529 1.651 . S
C2833 C1046 1.916 . S
C2821 C663 1.896 . S
C2848 C689 1.927 . S
C2860 C1070 1.901 . S
C2887 C1012 1.593 . S
C2875 C657 1.654 . S
C2902 C721 1.981 . S
C2914 C1032 2.023 . S
C2941 C994 1.623 . S
C2929 C759 1.697 . S
C2968 C1064 1.816 . S
C2956 C753 1.771 . S
C2995 C980 1.682 . S
C2983 C695 1.636 . S
C3010 C727 1.567 . S
C3022 C1018 1.592 . S
