# Generated by pormake.
# Topology pyr, (3,6)-cn, num edge types: 1
# Building blocks:
#     Node 0, Type 0, BuildingBlock: VETTIZ_charged_linker_0, # of connection points: 3
#     Node 1, Type 0, BuildingBlock: VETTIZ_charged_linker_0, # of connection points: 3
#     Node 2, Type 0, BuildingBlock: VETTIZ_charged_linker_0, # of connection points: 3
#     Node 3, Type 0, BuildingBlock: VETTIZ_charged_linker_0, # of connection points: 3
#     Node 4, Type 0, BuildingBlock: VETTIZ_charged_linker_0, # of connection points: 3
#     Node 5, Type 0, BuildingBlock: VETTIZ_charged_linker_0, # of connection points: 3
#     Node 6, Type 0, BuildingBlock: VETTIZ_charged_linker_0, # of connection points: 3
#     Node 7, Type 0, BuildingBlock: VETTIZ_charged_linker_0, # of connection points: 3
#     Node 8, Type 1, BuildingBlock: BETDAH_clean_sbu_0, # of connection points: 6
#     Node 9, Type 1, BuildingBlock: BETDAH_clean_sbu_0, # of connection points: 6
#     Node 10, Type 1, BuildingBlock: BETDAH_clean_sbu_0, # of connection points: 6
#     Node 11, Type 1, BuildingBlock: BETDAH_clean_sbu_0, # of connection points: 6
#     Edge 12, Type (0, 1), BuildingBlock: XUDNAN_clean_linker_2, # of connection points: 2
#     Edge 13, Type (0, 1), BuildingBlock: XUDNAN_clean_linker_2, # of connection points: 2
#     Edge 14, Type (0, 1), BuildingBlock: XUDNAN_clean_linker_2, # of connection points: 2
#     Edge 15, Type (0, 1), BuildingBlock: XUDNAN_clean_linker_2, # of connection points: 2
#     Edge 16, Type (0, 1), BuildingBlock: XUDNAN_clean_linker_2, # of connection points: 2
#     Edge 17, Type (0, 1), BuildingBlock: XUDNAN_clean_linker_2, # of connection points: 2
#     Edge 18, Type (0, 1), BuildingBlock: XUDNAN_clean_linker_2, # of connection points: 2
#     Edge 19, Type (0, 1), BuildingBlock: XUDNAN_clean_linker_2, # of connection points: 2
#     Edge 20, Type (0, 1), BuildingBlock: XUDNAN_clean_linker_2, # of connection points: 2
#     Edge 21, Type (0, 1), BuildingBlock: XUDNAN_clean_linker_2, # of connection points: 2
#     Edge 22, Type (0, 1), BuildingBlock: XUDNAN_clean_linker_2, # of connection points: 2
#     Edge 23, Type (0, 1), BuildingBlock: XUDNAN_clean_linker_2, # of connection points: 2
#     Edge 24, Type (0, 1), BuildingBlock: XUDNAN_clean_linker_2, # of connection points: 2
#     Edge 25, Type (0, 1), BuildingBlock: XUDNAN_clean_linker_2, # of connection points: 2
#     Edge 26, Type (0, 1), BuildingBlock: XUDNAN_clean_linker_2, # of connection points: 2
#     Edge 27, Type (0, 1), BuildingBlock: XUDNAN_clean_linker_2, # of connection points: 2
#     Edge 28, Type (0, 1), BuildingBlock: XUDNAN_clean_linker_2, # of connection points: 2
#     Edge 29, Type (0, 1), BuildingBlock: XUDNAN_clean_linker_2, # of connection points: 2
#     Edge 30, Type (0, 1), BuildingBlock: XUDNAN_clean_linker_2, # of connection points: 2
#     Edge 31, Type (0, 1), BuildingBlock: XUDNAN_clean_linker_2, # of connection points: 2
#     Edge 32, Type (0, 1), BuildingBlock: XUDNAN_clean_linker_2, # of connection points: 2
#     Edge 33, Type (0, 1), BuildingBlock: XUDNAN_clean_linker_2, # of connection points: 2
#     Edge 34, Type (0, 1), BuildingBlock: XUDNAN_clean_linker_2, # of connection points: 2
#     Edge 35, Type (0, 1), BuildingBlock: XUDNAN_clean_linker_2, # of connection points: 2
# Relax obj value: 0.096
# Max RMSD: 0.125
# Mean RMSD: 0.059
data_MOF--net-pyr--node1-BETDAH_clean_sbu_0--node2-VETTIZ_charged_linker_0--edge1-XUDNAN_clean_linker_2
_symmetry_space_group_name_H-M    P1
_symmetry_Int_Tables_number       1
_symmetry_cell_setting            triclinic
loop_
_symmetry_equiv_pos_as_xyz
'x, y, z'
_cell_length_a     45.615959
_cell_length_b     48.499269
_cell_length_c     43.963864
_cell_angle_alpha  90.691791
_cell_angle_beta   88.61123
_cell_angle_gamma 100.82677
loop_
_atom_site_label
_atom_site_type_symbol
_atom_site_fract_x
_atom_site_fract_y
_atom_site_fract_z
_atom_type_partial_charge
C0 C 0.24488 0.25181 0.30397 0.0
C1 C 0.22673 0.27078 0.31422 0.0
C2 C 0.23159 0.29788 0.30146 0.0
C3 C 0.26651 0.28434 0.26453 0.0
C4 C 0.26486 0.25921 0.2794 0.0
C5 C 0.28507 0.24138 0.26472 0.0
H6 H 0.36827 0.21421 0.14246 0.0
C7 C 0.28518 0.28375 0.23676 0.0
C8 C 0.29703 0.25909 0.23719 0.0
H9 H 0.35057 0.16748 0.22605 0.0
H10 H 0.32455 0.2026 0.24713 0.0
H11 H 0.38113 0.27992 0.17427 0.0
H12 H 0.30679 0.22417 0.13561 0.0
H13 H 0.29955 0.25793 0.12999 0.0
H14 H 0.33225 0.24808 0.11232 0.0
H15 H 0.3786 0.26907 0.13504 0.0
H16 H 0.36311 0.29862 0.1485 0.0
C17 C 0.31008 0.23889 0.28725 0.0
C18 C 0.26578 0.2129 0.25533 0.0
C19 C 0.27131 0.34744 0.15022 0.0
C20 C 0.27846 0.34684 0.11899 0.0
C21 C 0.29906 0.33026 0.10871 0.0
C22 C 0.31082 0.31322 0.129 0.0
C23 C 0.30132 0.31226 0.15973 0.0
C24 C 0.28249 0.32977 0.16999 0.0
C25 C 0.27278 0.32457 0.20267 0.0
C26 C 0.28826 0.30044 0.21015 0.0
C27 C 0.30493 0.29329 0.18493 0.0
C28 C 0.28483 0.35132 0.22157 0.0
C29 C 0.23826 0.31572 0.20364 0.0
C30 C 0.35932 0.21197 0.16554 0.0
C31 C 0.3615 0.18823 0.18276 0.0
C32 C 0.34903 0.18561 0.21243 0.0
C33 C 0.33396 0.20599 0.2246 0.0
C34 C 0.3308 0.229 0.20671 0.0
C35 C 0.34373 0.23197 0.17787 0.0
C36 C 0.33673 0.25708 0.16168 0.0
C37 C 0.31854 0.26926 0.18607 0.0
C38 C 0.31485 0.25247 0.21221 0.0
C39 C 0.3664 0.27732 0.15423 0.0
C40 C 0.31804 0.2465 0.13333 0.0
H41 H 0.2533 0.32525 0.26718 0.0
H42 H 0.24238 0.23102 0.31349 0.0
H43 H 0.24506 0.21625 0.24427 0.0
H44 H 0.27707 0.20107 0.23866 0.0
H45 H 0.25912 0.19938 0.27548 0.0
H46 H 0.31365 0.25665 0.30383 0.0
H47 H 0.30455 0.21917 0.30052 0.0
H48 H 0.33206 0.23989 0.27561 0.0
H49 H 0.25523 0.35962 0.15878 0.0
H50 H 0.30513 0.32964 0.08477 0.0
H51 H 0.3258 0.30051 0.11977 0.0
H52 H 0.30425 0.36477 0.21 0.0
H53 H 0.26743 0.36431 0.2254 0.0
H54 H 0.29332 0.34627 0.24384 0.0
H55 H 0.23083 0.29948 0.18594 0.0
H56 H 0.22908 0.30647 0.22532 0.0
H57 H 0.22744 0.33394 0.19932 0.0
H58 H 0.21913 0.31346 0.30976 0.0
C59 C 0.25145 0.30476 0.27676 0.0
C60 C 0.24234 0.90724 0.54332 0.0
C61 C 0.2261 0.92108 0.56422 0.0
C62 C 0.2361 0.92507 0.59439 0.0
C63 C 0.27792 0.90232 0.58203 0.0
C64 C 0.26773 0.8978 0.55274 0.0
C65 C 0.28632 0.88142 0.53364 0.0
H66 H 0.40084 0.81161 0.52455 0.0
C67 C 0.30517 0.89022 0.58422 0.0
C68 C 0.31009 0.87783 0.55596 0.0
H69 H 0.33402 0.81464 0.45721 0.0
H70 H 0.31307 0.84777 0.48873 0.0
H71 H 0.41295 0.87922 0.5425 0.0
H72 H 0.35854 0.80418 0.57855 0.0
H73 H 0.37296 0.8245 0.60992 0.0
H74 H 0.39824 0.81239 0.58301 0.0
H75 H 0.42818 0.85414 0.56381 0.0
H76 H 0.41401 0.88259 0.58228 0.0
C77 C 0.29966 0.89964 0.50619 0.0
C78 C 0.26645 0.85296 0.52485 0.0
C79 C 0.36295 0.89941 0.68247 0.0
C80 C 0.38917 0.89041 0.69093 0.0
C81 C 0.40444 0.87633 0.66933 0.0
C82 C 0.39368 0.87105 0.63989 0.0
C83 C 0.36724 0.87979 0.6319 0.0
C84 C 0.35244 0.8939 0.65294 0.0
C85 C 0.32471 0.90161 0.64029 0.0
C86 C 0.32541 0.88983 0.60817 0.0
C87 C 0.35028 0.87699 0.60352 0.0
C88 C 0.32864 0.93403 0.64058 0.0
C89 C 0.29739 0.88641 0.65914 0.0
C90 C 0.38235 0.82011 0.51596 0.0
C91 C 0.36925 0.81071 0.48817 0.0
C92 C 0.3445 0.8216 0.47852 0.0
C93 C 0.33227 0.84061 0.49697 0.0
C94 C 0.34465 0.84843 0.52553 0.0
C95 C 0.36964 0.83859 0.53427 0.0
C96 C 0.37893 0.84765 0.56594 0.0
C97 C 0.35491 0.864 0.5752 0.0
C98 C 0.335 0.86451 0.55147 0.0
C99 C 0.41022 0.86675 0.56381 0.0
C100 C 0.37737 0.82096 0.58553 0.0
H101 H 0.26843 0.91965 0.62654 0.0
H102 H 0.23577 0.90398 0.51987 0.0
H103 H 0.24818 0.84644 0.542 0.0
H104 H 0.27885 0.83544 0.5242 0.0
H105 H 0.2559 0.85423 0.50254 0.0
H106 H 0.30766 0.92176 0.5135 0.0
H107 H 0.28268 0.89966 0.4885 0.0
H108 H 0.3193 0.89274 0.49563 0.0
H109 H 0.35053 0.91003 0.69864 0.0
H110 H 0.4249 0.86954 0.67515 0.0
H111 H 0.40628 0.86015 0.62457 0.0
H112 H 0.35182 0.9438 0.63352 0.0
H113 H 0.32435 0.942 0.66375 0.0
H114 H 0.31413 0.94199 0.62444 0.0
H115 H 0.30115 0.86578 0.6674 0.0
H116 H 0.27692 0.88127 0.64566 0.0
H117 H 0.29296 0.89907 0.67937 0.0
H118 H 0.22384 0.93508 0.61126 0.0
C119 C 0.26196 0.91591 0.60333 0.0
C120 C 0.63554 0.27508 0.91143 0.0
C121 C 0.60916 0.25678 0.90289 0.0
C122 C 0.59231 0.26574 0.87956 0.0
C123 C 0.62905 0.30925 0.87295 0.0
C124 C 0.64502 0.3007 0.8963 0.0
C125 C 0.67302 0.32155 0.90274 0.0
H126 H 0.76722 0.44415 0.8738 0.0
C127 C 0.64608 0.33685 0.86144 0.0
C128 C 0.67193 0.34381 0.87904 0.0
H129 H 0.77264 0.38377 0.94412 0.0
H130 H 0.72838 0.35399 0.92567 0.0
H131 H 0.69395 0.44029 0.87987 0.0
H132 H 0.74939 0.39939 0.82053 0.0
H133 H 0.71928 0.4055 0.79913 0.0
H134 H 0.74519 0.43493 0.8144 0.0
H135 H 0.72011 0.45865 0.85244 0.0
H136 H 0.68298 0.44247 0.8419 0.0
C137 C 0.67018 0.33299 0.93557 0.0
C138 C 0.70004 0.30679 0.89715 0.0
C139 C 0.60728 0.38988 0.77461 0.0
C140 C 0.61963 0.41457 0.75838 0.0
C141 C 0.64855 0.4286 0.7658 0.0
C142 C 0.66441 0.41905 0.78937 0.0
C143 C 0.65162 0.39482 0.80579 0.0
C144 C 0.62382 0.38014 0.79776 0.0
C145 C 0.61491 0.35359 0.81634 0.0
C146 C 0.64124 0.3554 0.83761 0.0
C147 C 0.66258 0.37995 0.83151 0.0
C148 C 0.5856 0.35503 0.83407 0.0
C149 C 0.61252 0.32816 0.79443 0.0
C150 C 0.75882 0.4246 0.88539 0.0
C151 C 0.77387 0.41657 0.9107 0.0
C152 C 0.76212 0.39056 0.92446 0.0
C153 C 0.73605 0.37331 0.91382 0.0
C154 C 0.72106 0.38185 0.88899 0.0
C155 C 0.73261 0.40704 0.87504 0.0
C156 C 0.71367 0.41256 0.8488 0.0
C157 C 0.68849 0.38688 0.84983 0.0
C158 C 0.69304 0.36896 0.87343 0.0
C159 C 0.70208 0.44 0.85582 0.0
C160 C 0.73275 0.41338 0.81908 0.0
H161 H 0.58832 0.29713 0.847 0.0
H162 H 0.64886 0.26961 0.92968 0.0
H163 H 0.69607 0.29189 0.87758 0.0
H164 H 0.7208 0.3215 0.89094 0.0
H165 H 0.70407 0.29464 0.91738 0.0
H166 H 0.64654 0.33383 0.94168 0.0
H167 H 0.67819 0.31944 0.95249 0.0
H168 H 0.68221 0.35482 0.93847 0.0
H169 H 0.58526 0.37837 0.7693 0.0
H170 H 0.65858 0.44761 0.75392 0.0
H171 H 0.68605 0.43113 0.79411 0.0
H172 H 0.58681 0.37606 0.84488 0.0
H173 H 0.56629 0.35141 0.81865 0.0
H174 H 0.58106 0.33971 0.85272 0.0
H175 H 0.63118 0.33151 0.7773 0.0
H176 H 0.61421 0.30856 0.80613 0.0
H177 H 0.59123 0.32492 0.78196 0.0
H178 H 0.57193 0.25233 0.87226 0.0
C179 C 0.60206 0.29172 0.86464 0.0
C180 C 0.92633 0.78733 0.38098 0.0
C181 C 0.91624 0.80297 0.40519 0.0
C182 C 0.88798 0.79267 0.41858 0.0
C183 C 0.88112 0.7515 0.3853 0.0
C184 C 0.90825 0.76195 0.37117 0.0
C185 C 0.91472 0.74312 0.34507 0.0
H186 H 0.87379 0.62373 0.25962 0.0
C187 C 0.86823 0.72418 0.37063 0.0
C188 C 0.88758 0.71922 0.34667 0.0
H189 H 0.95053 0.69026 0.2468 0.0
H190 H 0.93585 0.71451 0.29105 0.0
H191 H 0.87784 0.62296 0.33678 0.0
H192 H 0.82597 0.66468 0.2773 0.0
H193 H 0.80327 0.64785 0.30725 0.0
H194 H 0.81995 0.62708 0.28003 0.0
H195 H 0.84925 0.60368 0.31326 0.0
H196 H 0.84029 0.61791 0.34958 0.0
C197 C 0.94393 0.73273 0.35178 0.0
C198 C 0.9159 0.75994 0.31519 0.0
C199 C 0.77408 0.66599 0.41767 0.0
C200 C 0.75679 0.63931 0.41168 0.0
C201 C 0.76451 0.62447 0.38573 0.0
C202 C 0.78956 0.63557 0.367 0.0
C203 C 0.80718 0.66194 0.37406 0.0
C204 C 0.79885 0.67672 0.3989 0.0
C205 C 0.81949 0.70443 0.40334 0.0
C206 C 0.84219 0.70383 0.37763 0.0
C207 C 0.83513 0.67891 0.36026 0.0
C208 C 0.83371 0.70417 0.43499 0.0
C209 C 0.80137 0.72814 0.39916 0.0
C210 C 0.88753 0.6434 0.26651 0.0
C211 C 0.91335 0.65506 0.24912 0.0
C212 C 0.93034 0.68086 0.25913 0.0
C213 C 0.92179 0.69502 0.285 0.0
C214 C 0.89567 0.68361 0.30157 0.0
C215 C 0.87905 0.65808 0.29242 0.0
C216 C 0.85176 0.64945 0.31295 0.0
C217 C 0.85447 0.67415 0.33532 0.0
C218 C 0.8805 0.69415 0.32859 0.0
C219 C 0.85464 0.62194 0.32898 0.0
C220 C 0.82361 0.64691 0.2935 0.0
H221 H 0.84959 0.76047 0.42065 0.0
H222 H 0.94774 0.79478 0.36985 0.0
H223 H 0.90004 0.77479 0.31638 0.0
H224 H 0.90895 0.74645 0.29524 0.0
H225 H 0.93858 0.77243 0.31071 0.0
H226 H 0.94426 0.72662 0.37606 0.0
H227 H 0.96375 0.74946 0.34728 0.0
H228 H 0.94648 0.71384 0.3385 0.0
H229 H 0.76861 0.67833 0.43697 0.0
H230 H 0.75171 0.6039 0.38044 0.0
H231 H 0.79449 0.62306 0.34791 0.0
H232 H 0.83951 0.68332 0.43944 0.0
H233 H 0.81804 0.70845 0.45342 0.0
H234 H 0.85487 0.71931 0.43707 0.0
H235 H 0.78234 0.72143 0.3837 0.0
H236 H 0.81473 0.74696 0.3882 0.0
H237 H 0.79202 0.73431 0.42123 0.0
H238 H 0.87967 0.80399 0.43729 0.0
C239 C 0.87056 0.76718 0.40894 0.0
C240 C 0.73908 0.73098 0.93299 0.0
C241 C 0.75543 0.71031 0.92393 0.0
C242 C 0.76261 0.70718 0.89296 0.0
C243 C 0.74169 0.74784 0.88109 0.0
C244 C 0.73183 0.74917 0.91093 0.0
C245 C 0.71409 0.77221 0.91571 0.0
H246 H 0.67882 0.89281 0.86554 0.0
C247 C 0.73433 0.77178 0.86465 0.0
C248 C 0.71718 0.78567 0.88435 0.0
H249 H 0.64872 0.84874 0.94872 0.0
H250 H 0.6729 0.81039 0.93286 0.0
H251 H 0.66417 0.84003 0.82178 0.0
H252 H 0.74611 0.87802 0.86453 0.0
H253 H 0.75365 0.87227 0.82578 0.0
H254 H 0.72839 0.89519 0.83618 0.0
H255 H 0.68713 0.8714 0.80711 0.0
H256 H 0.69335 0.83695 0.79589 0.0
C257 C 0.68129 0.75863 0.92371 0.0
C258 C 0.72936 0.79254 0.94046 0.0
C259 C 0.79373 0.80395 0.7685 0.0
C260 C 0.79575 0.82787 0.75021 0.0
C261 C 0.77443 0.84529 0.75482 0.0
C262 C 0.7532 0.84025 0.77869 0.0
C263 C 0.75327 0.81762 0.79832 0.0
C264 C 0.7724 0.79922 0.7922 0.0
C265 C 0.7686 0.77566 0.8147 0.0
C266 C 0.7451 0.78388 0.83633 0.0
C267 C 0.73663 0.80875 0.82692 0.0
C268 C 0.75698 0.74764 0.79768 0.0
C269 C 0.79891 0.77674 0.8303 0.0
C270 C 0.67746 0.87485 0.88029 0.0
C271 C 0.66219 0.87384 0.90851 0.0
C272 C 0.66034 0.84992 0.92686 0.0
C273 C 0.6745 0.82778 0.91771 0.0
C274 C 0.69062 0.82958 0.88994 0.0
C275 C 0.69124 0.85248 0.87138 0.0
C276 C 0.70871 0.85041 0.84227 0.0
C277 C 0.71828 0.82234 0.84629 0.0
C278 C 0.7082 0.81059 0.87461 0.0
C279 C 0.68747 0.84986 0.8152 0.0
C280 C 0.73561 0.87526 0.84184 0.0
H281 H 0.76255 0.72299 0.84835 0.0
H282 H 0.73282 0.73329 0.95667 0.0
H283 H 0.75373 0.79857 0.93538 0.0
H284 H 0.72071 0.81226 0.94203 0.0
H285 H 0.72644 0.78251 0.96319 0.0
H286 H 0.67589 0.73631 0.91615 0.0
H287 H 0.67676 0.75909 0.94863 0.0
H288 H 0.66511 0.76898 0.91195 0.0
H289 H 0.80949 0.78995 0.76564 0.0
H290 H 0.77463 0.86332 0.74048 0.0
H291 H 0.73816 0.85468 0.78154 0.0
H292 H 0.74813 0.75109 0.77495 0.0
H293 H 0.77497 0.73531 0.79397 0.0
H294 H 0.73799 0.73452 0.81008 0.0
H295 H 0.80785 0.79838 0.8386 0.0
H296 H 0.79753 0.76298 0.85018 0.0
H297 H 0.81564 0.77053 0.81413 0.0
H298 H 0.77506 0.69122 0.88565 0.0
C299 C 0.75568 0.72577 0.87146 0.0
C300 C 0.8184 0.1605 0.52198 0.0
C301 C 0.83154 0.14211 0.50334 0.0
C302 C 0.81779 0.13276 0.47564 0.0
C303 C 0.77805 0.15843 0.4867 0.0
C304 C 0.79223 0.16875 0.51296 0.0
C305 C 0.77683 0.1897 0.52915 0.0
H306 H 0.66558 0.26372 0.53291 0.0
C307 C 0.75091 0.1706 0.48437 0.0
C308 C 0.75036 0.18932 0.50886 0.0
H309 H 0.74122 0.27244 0.59202 0.0
H310 H 0.75754 0.23335 0.56644 0.0
H311 H 0.6513 0.19321 0.53228 0.0
H312 H 0.69939 0.25756 0.47364 0.0
H313 H 0.68067 0.23081 0.45006 0.0
H314 H 0.65934 0.2494 0.4754 0.0
H315 H 0.633 0.21512 0.50958 0.0
H316 H 0.64265 0.18315 0.49454 0.0
C317 C 0.76694 0.1784 0.5613 0.0
C318 C 0.79836 0.21861 0.52895 0.0
C319 C 0.67636 0.13595 0.40225 0.0
C320 C 0.64936 0.14347 0.39419 0.0
C321 C 0.63878 0.16482 0.41064 0.0
C322 C 0.65472 0.1782 0.43527 0.0
C323 C 0.6817 0.17038 0.44319 0.0
C324 C 0.69223 0.14977 0.42656 0.0
C325 C 0.72201 0.14517 0.43717 0.0
C326 C 0.72706 0.16566 0.46371 0.0
C327 C 0.70339 0.18029 0.46717 0.0
C328 C 0.71845 0.11434 0.44761 0.0
C329 C 0.74546 0.15333 0.41106 0.0
C330 C 0.68521 0.25674 0.54095 0.0
C331 C 0.70206 0.27103 0.56467 0.0
C332 C 0.72796 0.26178 0.57377 0.0
C333 C 0.73744 0.23922 0.55877 0.0
C334 C 0.72104 0.22601 0.5342 0.0
C335 C 0.69512 0.23452 0.52602 0.0
C336 C 0.68105 0.21875 0.49877 0.0
C337 C 0.70333 0.19995 0.49134 0.0
C338 C 0.72658 0.20423 0.51221 0.0
C339 C 0.65027 0.20173 0.50902 0.0
C340 C 0.67974 0.24007 0.47305 0.0
H341 H 0.78153 0.13247 0.44633 0.0
H342 H 0.82782 0.16818 0.54349 0.0
H343 H 0.8147 0.22029 0.50953 0.0
H344 H 0.78663 0.23633 0.52579 0.0
H345 H 0.81132 0.22206 0.55017 0.0
H346 H 0.75757 0.15551 0.5603 0.0
H347 H 0.78612 0.18155 0.57687 0.0
H348 H 0.74907 0.18818 0.57163 0.0
H349 H 0.68528 0.12006 0.38941 0.0
H350 H 0.61806 0.17097 0.40454 0.0
H351 H 0.64552 0.19424 0.44703 0.0
H352 H 0.69811 0.10851 0.46236 0.0
H353 H 0.71618 0.09978 0.42774 0.0
H354 H 0.7372 0.11043 0.46123 0.0
H355 H 0.73841 0.16822 0.39492 0.0
H356 H 0.76718 0.16456 0.41949 0.0
H357 H 0.749 0.13459 0.39773 0.0
H358 H 0.82762 0.11941 0.46012 0.0
C359 C 0.79105 0.1406 0.46741 0.0
C360 C 0.4242 0.67281 0.29612 0.0
C361 C 0.41324 0.64634 0.30942 0.0
C362 C 0.38598 0.63076 0.29921 0.0
C363 C 0.38143 0.66695 0.26257 0.0
C364 C 0.40793 0.68273 0.27282 0.0
C365 C 0.41634 0.71006 0.25551 0.0
H366 H 0.38269 0.7956 0.14345 0.0
C367 C 0.37059 0.68225 0.23717 0.0
C368 C 0.39107 0.70774 0.23284 0.0
H369 H 0.45729 0.81398 0.20377 0.0
H370 H 0.44197 0.76813 0.22725 0.0
H371 H 0.33522 0.77092 0.19325 0.0
H372 H 0.38806 0.73269 0.12918 0.0
H373 H 0.3531 0.71027 0.13096 0.0
H374 H 0.35574 0.74596 0.11824 0.0
H375 H 0.32755 0.76813 0.1534 0.0
H376 H 0.31166 0.74077 0.17964 0.0
C377 C 0.41617 0.73455 0.27825 0.0
C378 C 0.44685 0.71068 0.23927 0.0
C379 C 0.27279 0.64026 0.18376 0.0
C380 C 0.25739 0.65025 0.15997 0.0
C381 C 0.27075 0.67533 0.14539 0.0
C382 C 0.29826 0.6907 0.15465 0.0
C383 C 0.31292 0.68125 0.17913 0.0
C384 C 0.30053 0.65615 0.19296 0.0
C385 C 0.31978 0.64968 0.21856 0.0
C386 C 0.34521 0.67525 0.21809 0.0
C387 C 0.34086 0.69367 0.19496 0.0
C388 C 0.30108 0.6481 0.24856 0.0
C389 C 0.33099 0.6223 0.21013 0.0
C390 C 0.39577 0.79008 0.16188 0.0
C391 C 0.42111 0.80899 0.17183 0.0
C392 C 0.43769 0.80008 0.19543 0.0
C393 C 0.42858 0.77345 0.20926 0.0
C394 C 0.40258 0.75523 0.19947 0.0
C395 C 0.38697 0.76382 0.17587 0.0
C396 C 0.35986 0.74245 0.16801 0.0
C397 C 0.36124 0.71954 0.19086 0.0
C398 C 0.3863 0.72679 0.2095 0.0
C399 C 0.332 0.7561 0.17357 0.0
C400 C 0.36408 0.73233 0.13484 0.0
H401 H 0.34964 0.62769 0.26939 0.0
H402 H 0.44531 0.68513 0.30314 0.0
H403 H 0.44757 0.69009 0.22814 0.0
H404 H 0.45134 0.7264 0.22101 0.0
H405 H 0.4653 0.71506 0.25571 0.0
H406 H 0.3962 0.73007 0.29371 0.0
H407 H 0.43633 0.73778 0.2925 0.0
H408 H 0.41493 0.75445 0.26695 0.0
H409 H 0.26295 0.62121 0.19565 0.0
H410 H 0.25936 0.68349 0.12716 0.0
H411 H 0.30667 0.7098 0.14273 0.0
H412 H 0.28696 0.66449 0.24915 0.0
H413 H 0.28603 0.62736 0.25089 0.0
H414 H 0.31494 0.65219 0.26894 0.0
H415 H 0.33596 0.62132 0.18528 0.0
H416 H 0.35214 0.62075 0.22106 0.0
H417 H 0.3139 0.60351 0.21603 0.0
H418 H 0.37727 0.61027 0.30874 0.0
C419 C 0.37008 0.64085 0.27612 0.0
C420 C 0.1212 0.28045 0.69565 0.0
C421 C 0.13228 0.26461 0.6722 0.0
C422 C 0.16056 0.27531 0.65913 0.0
C423 C 0.16542 0.31735 0.69091 0.0
C424 C 0.13835 0.30651 0.70495 0.0
C425 C 0.131 0.32576 0.73034 0.0
H426 H 0.16641 0.44992 0.80935 0.0
C427 C 0.17713 0.34539 0.70456 0.0
C428 C 0.15734 0.35046 0.72806 0.0
H429 H 0.09372 0.38066 0.8273 0.0
H430 H 0.10918 0.35518 0.78409 0.0
H431 H 0.1624 0.44628 0.73212 0.0
H432 H 0.21652 0.41089 0.79514 0.0
H433 H 0.23869 0.42648 0.76424 0.0
H434 H 0.22101 0.44812 0.78962 0.0
H435 H 0.18994 0.46794 0.75496 0.0
H436 H 0.20013 0.45256 0.71972 0.0
C437 C 0.10117 0.33475 0.72314 0.0
C438 C 0.13048 0.31001 0.76083 0.0
C439 C 0.26928 0.40474 0.65538 0.0
C440 C 0.28547 0.43208 0.6601 0.0
C441 C 0.27699 0.44767 0.6851 0.0
C442 C 0.25218 0.43655 0.70414 0.0
C443 C 0.23566 0.40939 0.69838 0.0
C444 C 0.2448 0.39397 0.67448 0.0
C445 C 0.22532 0.36553 0.6713 0.0
C446 C 0.2024 0.36632 0.69674 0.0
C447 C 0.20827 0.39203 0.7128 0.0
C448 C 0.21108 0.36384 0.63948 0.0
C449 C 0.24469 0.34303 0.67694 0.0
C450 C 0.15369 0.4294 0.80373 0.0
C451 C 0.12865 0.41743 0.82198 0.0
C452 C 0.11309 0.39041 0.81394 0.0
C453 C 0.12217 0.37554 0.7888 0.0
C454 C 0.14751 0.38738 0.77127 0.0
C455 C 0.16288 0.41394 0.77881 0.0
C456 C 0.18995 0.42267 0.75805 0.0
C457 C 0.18851 0.397 0.73725 0.0
C458 C 0.16328 0.37635 0.74492 0.0
C459 C 0.18566 0.44887 0.74028 0.0
C460 C 0.21816 0.42752 0.77764 0.0
H461 H 0.198 0.30839 0.65665 0.0
H462 H 0.09973 0.27268 0.70653 0.0
H463 H 0.1468 0.29559 0.76022 0.0
H464 H 0.13724 0.32428 0.78023 0.0
H465 H 0.10806 0.2972 0.76581 0.0
H466 H 0.10104 0.34103 0.69889 0.0
H467 H 0.08203 0.3172 0.72709 0.0
H468 H 0.0973 0.35308 0.73666 0.0
H469 H 0.27537 0.3919 0.63681 0.0
H470 H 0.28897 0.46879 0.68934 0.0
H471 H 0.24657 0.44963 0.72243 0.0
H472 H 0.20456 0.38413 0.63376 0.0
H473 H 0.22701 0.35921 0.62149 0.0
H474 H 0.19029 0.34811 0.63802 0.0
H475 H 0.2637 0.35125 0.69196 0.0
H476 H 0.23216 0.32446 0.68907 0.0
H477 H 0.25417 0.33611 0.65528 0.0
H478 H 0.16961 0.26384 0.64102 0.0
C479 C 0.17699 0.30142 0.66818 0.0
Ho480 Ho 0.02236 0.04708 0.50802 0.0
Ho481 Ho 0.03594 1.01948 0.56615 0.0
C482 C 0.05274 0.08523 0.56561 0.0
C483 C 1.00925 0.08036 0.46732 0.0
C484 C 0.02801 0.10471 0.45214 0.0
C485 C 0.02056 0.13144 0.45487 0.0
C486 C 0.03955 0.15494 0.4426 0.0
C487 C 0.06632 0.15209 0.42734 0.0
C488 C 0.07338 0.12519 0.4242 0.0
C489 C 0.05456 0.10183 0.43656 0.0
C490 C 0.07596 1.03062 0.50829 0.0
C491 C 1.00516 0.9814 0.50883 0.0
C492 C 0.04622 0.98495 0.60677 0.0
C493 C 0.02362 0.9617 0.61852 0.0
C494 C 0.03052 0.94195 0.63889 0.0
C495 C 1.00766 0.92121 0.65094 0.0
C496 C 0.97785 0.92046 0.64294 0.0
C497 C 0.9713 0.93979 0.62191 0.0
C498 C 0.99399 0.96006 0.60965 0.0
C499 C 0.98222 0.03579 0.56537 0.0
O500 O 0.03465 0.08298 0.54211 0.0
O501 O 0.06211 0.06288 0.57591 0.0
O502 O 1.01576 0.05579 0.46091 0.0
O503 O 1.00375 0.0835 0.49636 0.0
O504 O 0.06001 1.03063 0.48442 0.0
O505 O 0.06398 0.04171 0.52999 0.0
O506 O 0.02385 0.98362 0.53181 0.0
O507 O 0.99566 1.0038 0.499 0.0
O508 O 0.04062 1.00979 0.61344 0.0
O509 O 0.05374 0.98269 0.5781 0.0
O510 O 0.99833 0.03659 0.58921 0.0
O511 O 0.99446 1.02453 0.54404 0.0
H512 H 1.00034 0.13421 0.46698 0.0
H513 H 0.03354 0.17538 0.44557 0.0
H514 H 0.09344 0.1221 0.41202 0.0
H515 H 0.0611 0.08156 0.43414 0.0
H516 H 0.05331 0.9429 0.64585 0.0
H517 H 1.01305 0.90643 0.66722 0.0
H518 H 0.9485 0.93943 0.61529 0.0
H519 H 0.98829 0.97499 0.5937 0.0
Ho520 Ho 0.53711 0.04452 0.05958 0.0
Ho521 Ho 0.48785 1.02443 1.01942 0.0
C522 C 0.47296 0.06126 0.07421 0.0
C523 C 0.57683 0.07268 0.0947 0.0
C524 C 0.57781 0.07805 0.12754 0.0
C525 C 0.60035 0.09866 0.13945 0.0
C526 C 0.60222 0.10294 0.17088 0.0
C527 C 0.58162 0.08652 0.1908 0.0
C528 C 0.55863 0.0663 0.17864 0.0
C529 C 0.55666 0.06218 0.14722 0.0
C530 C 0.50522 0.993 0.0759 0.0
C531 C 0.55199 1.0083 1.00435 0.0
C532 C 0.4477 0.99499 0.98567 0.0
C533 C 0.44635 0.98145 0.95548 0.0
C534 C 0.43198 0.95336 0.95272 0.0
C535 C 0.42998 0.94 0.92436 0.0
C536 C 0.44213 0.9546 0.89819 0.0
C537 C 0.45677 0.9827 0.90101 0.0
C538 C 0.45901 0.996 0.92946 0.0
C539 C 0.51998 0.0761 1.00351 0.0
O540 O 0.50217 0.06947 0.07561 0.0
O541 O 0.46143 0.0397 0.0571 0.0
O542 O 0.57641 0.04666 0.0865 0.0
O543 O 0.55767 0.08408 0.07998 0.0
O544 O 0.53382 1.00047 0.07779 0.0
O545 O 0.49468 1.01375 0.06701 0.0
O546 O 0.52282 0.99967 1.00342 0.0
O547 O 0.56331 1.03044 1.02078 0.0
O548 O 0.45301 1.02241 0.98657 0.0
O549 O 0.46229 0.98408 1.00613 0.0
O550 O 0.49124 0.06891 1.00201 0.0
O551 O 0.53034 0.05517 1.01207 0.0
H552 H 0.61678 0.1111 0.12449 0.0
H553 H 0.62035 0.11846 0.17963 0.0
H554 H 0.54229 0.05357 0.19345 0.0
H555 H 0.53895 0.04631 0.13827 0.0
H556 H 0.42211 0.94179 0.97254 0.0
H557 H 0.41829 0.91843 0.92279 0.0
H558 H 0.46656 0.99434 0.88122 0.0
H559 H 0.4705 1.01763 0.93104 0.0
Ho560 Ho 0.52685 0.51067 0.51688 0.0
Ho561 Ho 0.51398 0.55791 0.5522 0.0
C562 C 0.53994 0.51286 0.58962 0.0
C563 C 0.55279 0.47223 0.49373 0.0
C564 C 0.57361 0.45651 0.50742 0.0
C565 C 0.59499 0.46968 0.52807 0.0
C566 C 0.61282 0.45409 0.54321 0.0
C567 C 0.60944 0.42505 0.53814 0.0
C568 C 0.58842 0.41206 0.51698 0.0
C569 C 0.57061 0.42768 0.50181 0.0
C570 C 0.46951 0.50322 0.53812 0.0
C571 C 0.49976 0.55495 0.47889 0.0
C572 C 0.48841 0.59686 0.57456 0.0
C573 C 0.4766 0.61889 0.55882 0.0
C574 C 0.49324 0.63449 0.53538 0.0
C575 C 0.48022 0.6523 0.51753 0.0
C576 C 0.45016 0.65439 0.52235 0.0
C577 C 0.43377 0.63922 0.54624 0.0
C578 C 0.44692 0.62169 0.56436 0.0
C579 C 0.57138 0.56544 0.53094 0.0
O580 O 0.54843 0.50497 0.56237 0.0
O581 O 0.52245 0.5317 0.5919 0.0
O582 O 0.52561 0.46699 0.50506 0.0
O583 O 0.56281 0.49904 0.48982 0.0
O584 O 0.47735 0.49609 0.51099 0.0
O585 O 0.4925 0.51352 0.55277 0.0
O586 O 0.49531 0.56623 0.50585 0.0
O587 O 0.5139 0.53357 0.47675 0.0
O588 O 0.51741 0.5987 0.57383 0.0
O589 O 0.47408 0.57141 0.56905 0.0
O590 O 0.56345 0.57252 0.55806 0.0
O591 O 0.54837 0.55519 0.51626 0.0
H592 H 0.59759 0.49193 0.53297 0.0
H593 H 0.62874 0.46467 0.5594 0.0
H594 H 0.58577 0.38981 0.51206 0.0
H595 H 0.55418 0.41717 0.48606 0.0
H596 H 0.51604 0.63232 0.53019 0.0
H597 H 0.49347 0.66381 0.4994 0.0
H598 H 0.41074 0.64089 0.55093 0.0
H599 H 0.43361 0.60961 0.5821 0.0
Ho600 Ho 1.01711 0.50709 0.0499 0.0
Ho601 Ho 1.01676 0.5663 1.01475 0.0
C602 C 0.06961 0.56228 0.06146 0.0
C603 C 0.02934 0.45871 0.06252 0.0
C604 C 0.05646 0.44594 0.06108 0.0
C605 C 0.06473 0.43293 1.03432 0.0
C606 C 0.09123 0.42236 1.03267 0.0
C607 C 0.10964 0.42369 0.0581 0.0
C608 C 0.10056 0.43562 0.08528 0.0
C609 C 0.07443 0.44671 0.08669 0.0
C610 C 0.98669 0.54201 0.08285 0.0
C611 C 0.96045 0.51325 1.00884 0.0
C612 C 1.00256 0.61318 0.99982 0.0
C613 C 0.97414 0.62298 1.00389 0.0
C614 C 0.95016 0.60615 1.01939 0.0
C615 C 0.92188 0.61322 1.0198 0.0
C616 C 0.91695 0.63711 1.0044 0.0
C617 C 0.94136 0.65452 0.98986 0.0
C618 C 0.96974 0.64746 0.98959 0.0
C619 C 0.0484 0.5318 0.98247 0.0
O620 O 0.06214 0.53431 0.06134 0.0
O621 O 0.05419 0.57869 0.04719 0.0
O622 O 0.02924 0.47877 0.08274 0.0
O623 O 1.01799 0.46412 0.03659 0.0
O624 O 0.98978 0.51726 0.0917 0.0
O625 O 0.99881 0.54513 0.05664 0.0
O626 O 0.97077 0.54071 1.00759 0.0
O627 O 0.97539 0.49552 1.02169 0.0
O628 O 1.00142 0.59187 0.98103 0.0
O629 O 1.01689 0.61018 1.0247 0.0
O630 O 0.04528 0.5565 0.97362 0.0
O631 O 0.03528 0.52831 1.00812 0.0
H632 H 0.05091 0.4312 1.01446 0.0
H633 H 0.09737 0.41345 1.01129 0.0
H634 H 0.1134 0.43617 0.10573 0.0
H635 H 0.06833 0.4559 0.10794 0.0
H636 H 0.95302 0.58695 1.03024 0.0
H637 H 0.90369 0.59954 1.03148 0.0
H638 H 0.93828 0.67285 0.97739 0.0
H639 H 0.98793 0.66049 0.97721 0.0
H640 H 0.22201 0.23334 0.36197 0.0
H641 H 0.17167 0.28562 0.31304 0.0
H642 H 0.12653 0.26547 0.34244 0.0
H643 H 0.1681 0.17349 0.35874 0.0
H644 H 0.17435 0.16053 0.39582 0.0
H645 H 0.20426 0.1829 0.37566 0.0
H646 H 0.2111 0.2176 0.42135 0.0
H647 H 0.18128 0.19518 0.4418 0.0
H648 H 0.17959 0.23157 0.43599 0.0
H649 H 0.08526 0.23502 0.37111 0.0
H650 H 0.05127 0.19649 0.3972 0.0
H651 H 0.12766 0.16319 0.42699 0.0
C652 C 0.20167 0.24095 0.35775 0.0
C653 C 0.20075 0.2614 0.33528 0.0
C654 C 0.17346 0.27063 0.33062 0.0
C655 C 0.14748 0.25915 0.34712 0.0
C656 C 0.14899 0.23841 0.36829 0.0
C657 C 0.17541 0.2295 0.37382 0.0
C658 C 0.17033 0.20488 0.39542 0.0
C659 C 0.17981 0.17893 0.3805 0.0
C660 C 0.18654 0.21279 0.42542 0.0
C661 C 0.13678 0.20064 0.40008 0.0
C662 C 0.12496 0.2205 0.38467 0.0
C663 C 0.09428 0.21967 0.3838 0.0
C664 C 0.07514 0.19774 0.39877 0.0
C665 C 0.08674 0.1768 0.41419 0.0
C666 C 0.11804 0.17875 0.41527 0.0
H667 H 0.39282 0.93835 0.72542 0.0
H668 H 0.41065 0.85357 0.72718 0.0
H669 H 0.42864 0.86154 0.77969 0.0
H670 H 0.45639 0.97106 0.76942 0.0
H671 H 0.43609 0.99458 0.7892 0.0
H672 H 0.4258 0.98258 0.7513 0.0
H673 H 0.37159 0.96383 0.77042 0.0
H674 H 0.38167 0.97586 0.80832 0.0
H675 H 0.36516 0.93957 0.8017 0.0
H676 H 0.44235 0.87798 0.83276 0.0
H677 H 0.45125 0.90201 0.88256 0.0
H678 H 0.42431 0.97586 0.84592 0.0
C679 C 0.40047 0.92145 0.73687 0.0
C680 C 0.40041 0.89536 0.72223 0.0
C681 C 0.41087 0.87385 0.73785 0.0
C682 C 0.42102 0.87814 0.76769 0.0
C683 C 0.42068 0.90408 0.78148 0.0
C684 C 0.41075 0.92539 0.76657 0.0
C685 C 0.41206 0.95108 0.78672 0.0
C686 C 0.43389 0.97631 0.77336 0.0
C687 C 0.38076 0.95797 0.79211 0.0
C688 C 0.42391 0.94076 0.81544 0.0
C689 C 0.42881 0.91362 0.81195 0.0
C690 C 0.43877 0.8993 0.83573 0.0
C691 C 0.44364 0.91303 0.86391 0.0
C692 C 0.43858 0.94078 0.86797 0.0
C693 C 0.42884 0.95482 0.84329 0.0
H694 H 0.63471 0.42909 0.69806 0.0
H695 H 0.56501 0.42909 0.7668 0.0
H696 H 0.53768 0.45407 0.73156 0.0
H697 H 0.63444 0.49609 0.6657 0.0
H698 H 0.63907 0.4853 0.62676 0.0
H699 H 0.65318 0.46724 0.65712 0.0
H700 H 0.62271 0.42015 0.63802 0.0
H701 H 0.60818 0.43803 0.60782 0.0
H702 H 0.58294 0.41647 0.63381 0.0
H703 H 0.51989 0.48275 0.69025 0.0
H704 H 0.50947 0.50738 0.64411 0.0
H705 H 0.58791 0.48571 0.59923 0.0
C706 C 0.61353 0.43413 0.70554 0.0
C707 C 0.60202 0.42707 0.73539 0.0
C708 C 0.57419 0.434 0.74414 0.0
C709 C 0.55858 0.44838 0.72426 0.0
C710 C 0.57065 0.45533 0.69521 0.0
C711 C 0.59718 0.4479 0.68557 0.0
C712 C 0.60459 0.45707 0.65272 0.0
C713 C 0.63461 0.47765 0.65046 0.0
C714 C 0.60461 0.43139 0.63188 0.0
C715 C 0.57863 0.47161 0.64574 0.0
C716 C 0.55946 0.47049 0.67074 0.0
C717 C 0.5346 0.48343 0.67048 0.0
C718 C 0.52895 0.4976 0.6441 0.0
C719 C 0.54773 0.49863 0.61777 0.0
C720 C 0.57292 0.48525 0.61877 0.0
H721 H 0.91612 0.59874 0.23663 0.0
H722 H 0.93163 0.68107 0.19519 0.0
H723 H 0.95014 0.66123 0.14822 0.0
H724 H 0.98138 0.57729 0.20483 0.0
H725 H 0.96383 0.54121 0.19864 0.0
H726 H 0.95019 0.56139 0.22865 0.0
H727 H 0.89729 0.55034 0.20621 0.0
H728 H 0.91079 0.53006 0.17615 0.0
H729 H 0.89229 0.55854 0.16701 0.0
H730 H 0.96942 0.63282 0.10572 0.0
H731 H 0.98743 0.59803 0.07205 0.0
H732 H 0.95947 0.53372 0.13956 0.0
C733 C 0.92301 0.61251 0.21753 0.0
C734 C 0.92243 0.64167 0.21998 0.0
C735 C 0.9321 0.65883 0.19433 0.0
C736 C 0.94258 0.64769 0.16735 0.0
C737 C 0.94341 0.61911 0.16586 0.0
C738 C 0.93381 0.60168 0.19024 0.0
C739 C 0.93801 0.57184 0.18286 0.0
C740 C 0.95964 0.56238 0.20507 0.0
C741 C 0.90779 0.55149 0.18307 0.0
C742 C 0.95162 0.57531 0.15076 0.0
C743 C 0.95441 0.60275 0.14134 0.0
C744 C 0.96702 0.61122 0.11286 0.0
C745 C 0.97711 0.59126 0.09363 0.0
C746 C 0.97456 0.56299 0.10259 0.0
C747 C 0.96153 0.55509 0.13169 0.0
H748 H 0.41694 0.19107 0.15566 0.0
H749 H 0.33494 0.13341 0.17882 0.0
H750 H 0.3551 0.09446 0.15456 0.0
H751 H 0.43068 0.16151 0.08317 0.0
H752 H 0.47055 0.1662 0.08721 0.0
H753 H 0.44991 0.18956 0.10669 0.0
H754 H 0.47109 0.17773 0.15809 0.0
H755 H 0.49182 0.15433 0.13875 0.0
H756 H 0.46642 0.14161 0.16968 0.0
H757 H 0.38255 0.06266 0.12523 0.0
H758 H 0.41722 0.03884 0.09553 0.0
H759 H 0.48307 0.1161 0.09399 0.0
C760 C 0.40338 0.17019 0.15564 0.0
C761 C 0.37443 0.16509 0.16905 0.0
C762 C 0.35726 0.13757 0.16883 0.0
C763 C 0.36847 0.1154 0.15505 0.0
C764 C 0.39706 0.12105 0.14198 0.0
C765 C 0.41448 0.14765 0.14245 0.0
C766 C 0.44462 0.14783 0.12704 0.0
C767 C 0.44919 0.16744 0.09938 0.0
C768 C 0.46999 0.15585 0.14975 0.0
C769 C 0.44117 0.1173 0.11736 0.0
C770 C 0.41348 0.10231 0.1261 0.0
C771 C 0.40444 0.07407 0.11856 0.0
C772 C 0.42422 0.06076 0.1016 0.0
C773 C 0.45284 0.07559 0.0927 0.0
C774 C 0.46147 0.10417 0.10091 0.0
H775 H 0.20623 0.96883 0.58384 0.0
H776 H 0.18492 0.89758 0.52201 0.0
H777 H 0.14448 0.91814 0.50108 0.0
H778 H 0.127 0.9743 0.59892 0.0
H779 H 0.13605 1.012 0.60206 0.0
H780 H 0.16284 0.99113 0.61291 0.0
H781 H 0.20187 1.01944 0.57569 0.0
H782 H 0.17507 0.04002 0.56435 0.0
H783 H 0.19301 1.0212 0.53609 0.0
H784 H 0.10995 0.94849 0.48328 0.0
H785 H 0.0786 0.98383 0.4745 0.0
H786 H 0.11836 1.03266 0.55141 0.0
C787 C 0.1927 0.95708 0.56645 0.0
C788 C 0.19938 0.93178 0.55422 0.0
C789 C 0.18108 0.91744 0.53115 0.0
C790 C 0.1578 0.9288 0.51926 0.0
C791 C 0.1525 0.95412 0.53122 0.0
C792 C 0.16887 0.96774 0.55482 0.0
C793 C 0.15834 0.99462 0.56367 0.0
C794 C 0.14528 0.9929 0.59633 0.0
C795 C 0.18358 1.02033 0.5597 0.0
C796 C 0.13422 0.99443 0.54061 0.0
C797 C 0.13132 0.97092 0.52204 0.0
C798 C 0.11168 0.96678 0.49794 0.0
C799 C 0.0942 0.98706 0.49297 0.0
C800 C 0.09622 1.01084 0.51232 0.0
C801 C 0.11642 1.01454 0.53643 0.0
H802 H 0.8245 0.4024 0.93621 0.0
H803 H 0.78422 0.47415 0.91555 0.0
H804 H 0.82679 0.50561 0.93856 0.0
H805 H 0.85329 0.42786 1.00929 0.0
H806 H 0.88734 0.4143 1.00483 0.0
H807 H 0.85406 0.39708 0.98609 0.0
H808 H 0.88248 0.40218 0.93419 0.0
H809 H 0.91587 0.41931 0.95278 0.0
H810 H 0.90131 0.43642 0.92192 0.0
H811 H 0.87301 0.52956 0.96469 0.0
H812 H 0.92061 0.54479 0.99021 0.0
H813 H 0.93225 0.45807 0.99531 0.0
C814 C 0.82449 0.42471 0.93658 0.0
C815 C 0.8007 0.43561 0.92372 0.0
C816 C 0.80212 0.46508 0.92456 0.0
C817 C 0.8262 0.4832 0.93789 0.0
C818 C 0.84898 0.47175 0.95047 0.0
C819 C 0.84848 0.44321 0.94985 0.0
C820 C 0.87604 0.4365 0.96498 0.0
C821 C 0.86714 0.41783 0.99296 0.0
C822 C 0.89505 0.42279 0.9421 0.0
C823 C 0.89206 0.46574 0.97425 0.0
C824 C 0.87589 0.48567 0.96563 0.0
C825 C 0.88586 0.51412 0.97144 0.0
C826 C 0.91313 0.52256 0.98605 0.0
C827 C 0.93061 0.50276 0.99492 0.0
C828 C 0.91959 0.47383 0.98906 0.0
H829 H 0.69883 0.61062 0.40004 0.0
H830 H 0.75894 0.63983 0.47358 0.0
H831 H 0.71895 0.6225 0.51101 0.0
H832 H 0.63349 0.62903 0.43546 0.0
H833 H 0.60793 0.59863 0.42201 0.0
H834 H 0.64158 0.61194 0.40043 0.0
H835 H 0.65672 0.56317 0.40231 0.0
H836 H 0.62306 0.54971 0.42388 0.0
H837 H 0.65889 0.54683 0.43859 0.0
H838 H 0.67242 0.60412 0.54095 0.0
H839 H 0.6219 0.58563 0.56159 0.0
H840 H 0.5902 0.5672 0.46997 0.0
C841 C 0.70364 0.61303 0.42402 0.0
C842 C 0.73222 0.62688 0.43371 0.0
C843 C 0.73731 0.62977 0.4654 0.0
C844 C 0.71471 0.61981 0.48694 0.0
C845 C 0.6868 0.60677 0.47674 0.0
C846 C 0.68107 0.60323 0.44607 0.0
C847 C 0.64859 0.58916 0.44156 0.0
C848 C 0.63192 0.60834 0.42381 0.0
C849 C 0.64671 0.56052 0.42564 0.0
C850 C 0.63705 0.5857 0.47442 0.0
C851 C 0.65964 0.59595 0.49424 0.0
C852 C 0.6546 0.59589 0.52565 0.0
C853 C 0.62575 0.58535 0.53719 0.0
C854 C 0.602 0.57488 0.51754 0.0
C855 C 0.6079 0.57485 0.48565 0.0
H856 H 0.26257 0.39861 0.12315 0.0
H857 H 0.25206 0.32311 0.06753 0.0
H858 H 0.21184 0.33865 0.03978 0.0
H859 H 0.18981 0.3979 0.13555 0.0
H860 H 0.19083 0.4352 0.13405 0.0
H861 H 0.22357 0.42224 0.14441 0.0
H862 H 0.25425 0.45058 0.10096 0.0
H863 H 0.22168 0.46418 0.09076 0.0
H864 H 0.24097 0.44651 0.06257 0.0
H865 H 0.16593 0.35652 1.02667 0.0
H866 H 0.12091 0.37754 1.02578 0.0
H867 H 0.16207 0.44292 0.08809 0.0
C868 C 0.25256 0.38592 0.10432 0.0
C869 C 0.26059 0.35975 0.09737 0.0
C870 C 0.24674 0.34349 0.07287 0.0
C871 C 0.2237 0.35208 0.05708 0.0
C872 C 0.21511 0.37719 0.06573 0.0
C873 C 0.22958 0.39423 0.08833 0.0
C874 C 0.21395 0.41852 0.09566 0.0
C875 C 0.20395 0.41843 0.1294 0.0
C876 C 0.2339 0.44662 0.08696 0.0
C877 C 0.18747 0.41153 0.07499 0.0
C878 C 0.18873 0.38785 0.05763 0.0
C879 C 0.16516 0.37563 0.03938 0.0
C880 C 0.13962 0.38783 0.03898 0.0
C881 C 0.13775 0.41211 0.0567 0.0
C882 C 0.16245 0.42431 0.07438 0.0
H883 H 0.55223 0.22664 0.91901 0.0
H884 H 0.64624 0.22153 0.92006 0.0
H885 H 0.63365 0.17618 0.94617 0.0
H886 H 0.53222 0.19535 0.99251 0.0
H887 H 0.49651 0.17588 0.98107 0.0
H888 H 0.5125 0.20823 0.9623 0.0
H889 H 0.50846 0.18252 0.91021 0.0
H890 H 0.49232 0.15012 0.92881 0.0
H891 H 0.52523 0.15193 0.90482 0.0
H892 H 0.61143 0.1313 0.97318 0.0
H893 H 0.58073 0.08946 0.99721 0.0
H894 H 0.50059 0.12162 0.97824 0.0
C895 C 0.57018 0.21592 0.92449 0.0
C896 C 0.60042 0.2283 0.91765 0.0
C897 C 0.62301 0.21324 0.92552 0.0
C898 C 0.61606 0.18719 0.94027 0.0
C899 C 0.58627 0.1759 0.94708 0.0
C900 C 0.56361 0.18963 0.93931 0.0
C901 C 0.5334 0.17254 0.94927 0.0
C902 C 0.51773 0.18899 0.97268 0.0
C903 C 0.51369 0.16376 0.92163 0.0
C904 C 0.54269 0.14718 0.9638 0.0
C905 C 0.57335 0.14967 0.96232 0.0
C906 C 0.58738 0.12912 0.97435 0.0
C907 C 0.56973 0.10537 0.98803 0.0
C908 C 0.5382 0.10204 0.98964 0.0
C909 C 0.52461 0.12343 0.97737 0.0
H910 H 0.90082 0.85449 0.41911 0.0
H911 H 0.97485 0.81009 0.42109 0.0
H912 H 1.00531 0.85076 0.4471 0.0
H913 H 0.94702 0.92419 0.40465 0.0
H914 H 0.92345 0.94234 0.42781 0.0
H915 H 0.90768 0.91001 0.4088 0.0
H916 H 0.88658 0.88885 0.46037 0.0
H917 H 0.90245 0.92103 0.47956 0.0
H918 H 0.91154 0.88825 0.49143 0.0
H919 H 0.02621 0.8946 0.47723 0.0
H920 H 0.03835 0.94041 0.5035 0.0
H921 H 0.9527 0.95903 0.47881 0.0
C922 C 0.92356 0.85346 0.42476 0.0
C923 C 0.93542 0.82894 0.41796 0.0
C924 C 0.96532 0.82859 0.42569 0.0
C925 C 0.98274 0.85158 0.44069 0.0
C926 C 0.97025 0.87518 0.44746 0.0
C927 C 0.94152 0.87654 0.43923 0.0
C928 C 0.9337 0.90465 0.44881 0.0
C929 C 0.9276 0.92128 0.42085 0.0
C930 C 0.90698 0.90043 0.47138 0.0
C931 C 0.96229 0.9187 0.46419 0.0
C932 C 0.98292 0.90113 0.46341 0.0
C933 C 1.01036 0.90864 0.47753 0.0
C934 C 1.01701 0.93475 0.49256 0.0
C935 C 0.99668 0.95358 0.49308 0.0
C936 C 0.96893 0.94535 0.4785 0.0
H937 H 0.42598 0.80223 0.47755 0.0
H938 H 0.33326 0.76348 0.46666 0.0
H939 H 0.3477 0.71743 0.46 0.0
H940 H 0.46092 0.74621 0.43033 0.0
H941 H 0.49017 0.74917 0.45768 0.0
H942 H 0.47495 0.77962 0.44811 0.0
H943 H 0.46359 0.78719 0.50527 0.0
H944 H 0.47792 0.75662 0.51501 0.0
H945 H 0.4403 0.75933 0.52634 0.0
H946 H 0.36849 0.67584 0.47212 0.0
H947 H 0.39438 0.64286 0.49809 0.0
H948 H 0.47367 0.70763 0.50401 0.0
C949 C 0.40901 0.78418 0.47209 0.0
C950 C 0.37858 0.78635 0.47268 0.0
C951 C 0.35677 0.76241 0.46584 0.0
C952 C 0.36481 0.73606 0.46214 0.0
C953 C 0.39475 0.73411 0.46497 0.0
C954 C 0.41672 0.75771 0.46903 0.0
C955 C 0.44596 0.74979 0.47778 0.0
C956 C 0.46939 0.7566 0.45193 0.0
C957 C 0.45756 0.76405 0.50787 0.0
C958 C 0.43617 0.71842 0.4813 0.0
C959 C 0.40691 0.70961 0.47265 0.0
C960 C 0.39167 0.68233 0.47803 0.0
C961 C 0.4064 0.66385 0.49319 0.0
C962 C 0.43601 0.67277 0.50303 0.0
C963 C 0.45128 0.7001 0.49609 0.0
H964 H 0.82586 0.88105 0.73737 0.0
H965 H 0.82524 0.7934 0.71516 0.0
H966 H 0.87261 0.80723 0.6861 0.0
H967 H 0.85517 0.9082 0.66297 0.0
H968 H 0.87646 0.9396 0.67961 0.0
H969 H 0.84212 0.92246 0.69771 0.0
H970 H 0.87037 0.91937 0.74764 0.0
H971 H 0.9049 0.93597 0.72957 0.0
H972 H 0.90219 0.90221 0.74722 0.0
H973 H 0.92256 0.83085 0.66267 0.0
H974 H 0.96726 0.86291 0.64162 0.0
H975 H 0.9324 0.93444 0.67668 0.0
C976 C 0.83505 0.86468 0.72576 0.0
C977 C 0.82172 0.83606 0.72886 0.0
C978 C 0.8352 0.81545 0.7137 0.0
C979 C 0.86207 0.82309 0.697 0.0
C980 C 0.87497 0.85146 0.69524 0.0
C981 C 0.86153 0.87193 0.7087 0.0
C982 C 0.87976 0.90095 0.70349 0.0
C983 C 0.86234 0.91885 0.68482 0.0
C984 C 0.8899 0.91546 0.73378 0.0
C985 C 0.90582 0.89362 0.68535 0.0
C986 C 0.90289 0.86498 0.68097 0.0
C987 C 0.92491 0.85333 0.66568 0.0
C988 C 0.95024 0.87156 0.65404 0.0
C989 C 0.95297 0.90094 0.65757 0.0
C990 C 0.93061 0.91199 0.6736 0.0
H991 H 0.63242 0.16848 0.34407 0.0
H992 H 0.6309 0.08735 0.38494 0.0
H993 H 0.6078 0.06381 0.33879 0.0
H994 H 0.56245 0.14916 0.30056 0.0
H995 H 0.57805 0.17005 0.26838 0.0
H996 H 0.59018 0.18044 0.30624 0.0
H997 H 0.64505 0.18095 0.28909 0.0
H998 H 0.63311 0.17044 0.25131 0.0
H999 H 0.65487 0.14984 0.27201 0.0
H1000 H 0.58913 0.04926 0.287 0.0
H1001 H 0.57852 0.0445 0.23219 0.0
H1002 H 0.59364 0.13519 0.22437 0.0
C1003 C 0.6264 0.14579 0.34351 0.0
C1004 C 0.63295 0.12961 0.36799 0.0
C1005 C 0.62578 0.09997 0.36633 0.0
C1006 C 0.61258 0.08649 0.34034 0.0
C1007 C 0.60688 0.10302 0.31627 0.0
C1008 C 0.6136 0.13202 0.31758 0.0
C1009 C 0.60808 0.14481 0.2875 0.0
C1010 C 0.58321 0.16213 0.29088 0.0
C1011 C 0.637 0.16254 0.2742 0.0
C1012 C 0.59803 0.11846 0.26882 0.0
C1013 C 0.59693 0.0946 0.286 0.0
C1014 C 0.58952 0.06778 0.2734 0.0
C1015 C 0.58344 0.06528 0.2423 0.0
C1016 C 0.58517 0.08948 0.22413 0.0
C1017 C 0.59218 0.11635 0.23774 0.0
H1018 H 0.41733 0.65233 0.37257 0.0
H1019 H 0.44838 0.60874 0.2952 0.0
H1020 H 0.47417 0.58176 0.32979 0.0
H1021 H 0.48517 0.65655 0.41696 0.0
H1022 H 0.46601 0.65039 0.45314 0.0
H1023 H 0.44983 0.66748 0.42344 0.0
H1024 H 0.40163 0.63074 0.42668 0.0
H1025 H 0.41652 0.61298 0.4568 0.0
H1026 H 0.40311 0.59396 0.42291 0.0
H1027 H 0.49444 0.5576 0.37257 0.0
H1028 H 0.50978 0.53905 0.42024 0.0
H1029 H 0.46695 0.59802 0.47183 0.0
C1030 C 0.43003 0.63745 0.363 0.0
C1031 C 0.43123 0.63292 0.33101 0.0
C1032 C 0.44752 0.61282 0.31946 0.0
C1033 C 0.46214 0.59731 0.339 0.0
C1034 C 0.46035 0.60196 0.37034 0.0
C1035 C 0.4449 0.62165 0.38236 0.0
C1036 C 0.44641 0.62211 0.41704 0.0
C1037 C 0.46282 0.65087 0.42828 0.0
C1038 C 0.41504 0.6145 0.43171 0.0
C1039 C 0.46459 0.59927 0.42262 0.0
C1040 C 0.47237 0.58805 0.39521 0.0
C1041 C 0.48858 0.56637 0.39412 0.0
C1042 C 0.49717 0.55587 0.42154 0.0
C1043 C 0.48973 0.56685 0.45019 0.0
C1044 C 0.47316 0.58903 0.45051 0.0
H1045 H 0.116 0.47139 0.82905 0.0
H1046 H 0.11928 0.39564 0.87912 0.0
H1047 H 0.1013 0.41694 0.92565 0.0
H1048 H 0.13829 0.52153 0.89131 0.0
H1049 H 0.11286 0.54405 0.88121 0.0
H1050 H 0.12781 0.52363 0.85225 0.0
H1051 H 0.07419 0.50148 0.8364 0.0
H1052 H 0.0591 0.52178 0.86534 0.0
H1053 H 0.048 0.4841 0.86461 0.0
H1054 H 0.08235 0.44663 0.96736 0.0
H1055 H 0.06163 0.48126 0.99952 0.0
H1056 H 0.06774 0.5368 0.9225 0.0
C1057 C 0.11332 0.45947 0.84993 0.0
C1058 C 0.11932 0.43176 0.8503 0.0
C1059 C 0.11489 0.41679 0.87809 0.0
C1060 C 0.10471 0.42878 0.90474 0.0
C1061 C 0.09864 0.4559 0.90357 0.0
C1062 C 0.10264 0.47105 0.87683 0.0
C1063 C 0.09304 0.49929 0.8815 0.0
C1064 C 0.11958 0.52357 0.87625 0.0
C1065 C 0.06704 0.5018 0.86073 0.0
C1066 C 0.08297 0.49761 0.91488 0.0
C1067 C 0.08664 0.47249 0.92727 0.0
C1068 C 0.07907 0.46623 0.95777 0.0
C1069 C 0.06709 0.48586 0.97589 0.0
C1070 C 0.06239 0.51144 0.96364 0.0
C1071 C 0.07084 0.51737 0.93269 0.0
H1072 H 0.60601 0.87402 0.93237 0.0
H1073 H 0.6902 0.92859 0.9096 0.0
H1074 H 0.67045 0.96941 0.9298 0.0
H1075 H 0.55867 0.92401 0.91283 0.0
H1076 H 0.53226 0.91327 0.94354 0.0
H1077 H 0.55271 0.88845 0.9265 0.0
H1078 H 0.57208 0.87854 0.97946 0.0
H1079 H 0.55171 0.9033 0.99664 0.0
H1080 H 0.59135 0.90734 1.00196 0.0
H1081 H 0.64303 1.00349 0.95592 0.0
H1082 H 0.60847 1.02924 0.98335 0.0
H1083 H 0.54106 0.95313 0.98662 0.0
C1084 C 0.62017 0.89461 0.93156 0.0
C1085 C 0.6496 0.89826 0.91945 0.0
C1086 C 0.66749 0.92547 0.91855 0.0
C1087 C 0.65651 0.94872 0.93004 0.0
C1088 C 0.62746 0.94443 0.94198 0.0
C1089 C 0.60939 0.91813 0.94252 0.0
C1090 C 0.57904 0.9193 0.95671 0.0
C1091 C 0.55421 0.91075 0.93351 0.0
C1092 C 0.57322 0.90104 0.9854 0.0
C1093 C 0.5831 0.95025 0.96459 0.0
C1094 C 0.61124 0.96434 0.95601 0.0
C1095 C 0.62079 0.99278 0.96239 0.0
C1096 C 0.60108 1.0072 0.97804 0.0
C1097 C 0.57207 0.99322 0.98679 0.0
C1098 C 0.56295 0.96445 0.9797 0.0
H1099 H 0.84865 0.09146 0.48983 0.0
H1100 H 0.87691 0.16985 0.53939 0.0
H1101 H 0.9176 0.15053 0.56139 0.0
H1102 H 0.86389 0.04475 0.54281 0.0
H1103 H 0.8794 1.02233 0.5164 0.0
H1104 H 0.85242 0.04215 0.50375 0.0
H1105 H 0.88932 0.06522 0.46147 0.0
H1106 H 0.91617 0.04494 0.47357 0.0
H1107 H 0.92634 0.08262 0.47152 0.0
H1108 H 0.95133 0.12072 0.58269 0.0
H1109 H 0.98211 0.08552 0.59446 0.0
H1110 H 0.93709 1.02992 0.52513 0.0
C1111 C 0.86369 0.10508 0.5046 0.0
C1112 C 0.8587 0.13205 0.51335 0.0
C1113 C 0.87915 0.14869 0.53315 0.0
C1114 C 0.90267 0.13805 0.54558 0.0
C1115 C 0.90618 0.11113 0.53718 0.0
C1116 C 0.88792 0.09523 0.51637 0.0
C1117 C 0.89711 0.0672 0.51049 0.0
C1118 C 0.87169 0.04267 0.51887 0.0
C1119 C 0.90788 0.06487 0.47729 0.0
C1120 C 0.92268 0.06944 0.53216 0.0
C1121 C 0.92734 0.09484 0.54758 0.0
C1122 C 0.94833 0.10099 0.57034 0.0
C1123 C 0.96548 0.08084 0.57703 0.0
C1124 C 0.96191 0.05528 0.56048 0.0
C1125 C 0.94026 0.04948 0.53786 0.0
H1126 H 0.2353 0.59851 0.13222 0.0
H1127 H 0.209 0.67394 0.16856 0.0
H1128 H 0.15811 0.65794 0.14975 0.0
H1129 H 0.19467 0.5952 0.06432 0.0
H1130 H 0.18311 0.55757 0.06308 0.0
H1131 H 0.21697 0.57307 0.08186 0.0
H1132 H 0.19761 0.54679 0.13136 0.0
H1133 H 0.16375 0.53102 0.11263 0.0
H1134 H 0.16186 0.5506 0.14751 0.0
H1135 H 0.11224 0.63717 0.12305 0.0
H1136 H 0.07177 0.61093 0.09246 0.0
H1137 H 0.12461 0.54681 0.0733 0.0
C1138 C 0.2185 0.61117 0.13688 0.0
C1139 C 0.22602 0.63741 0.15222 0.0
C1140 C 0.20367 0.65375 0.15716 0.0
C1141 C 0.1747 0.64484 0.14648 0.0
C1142 C 0.1681 0.61935 0.13085 0.0
C1143 C 0.18911 0.60247 0.12626 0.0
C1144 C 0.17597 0.57659 0.10742 0.0
C1145 C 0.19374 0.57556 0.07739 0.0
C1146 C 0.17472 0.54965 0.12583 0.0
C1147 C 0.14465 0.58199 0.10172 0.0
C1148 C 0.14086 0.60687 0.11555 0.0
C1149 C 0.11479 0.61749 0.11244 0.0
C1150 C 0.09193 0.60244 0.09479 0.0
C1151 C 0.09481 0.57673 0.08042 0.0
C1152 C 0.12154 0.5662 0.08426 0.0
H1153 H 0.34321 0.46165 0.67063 0.0
H1154 H 0.28257 0.42988 0.59835 0.0
H1155 H 0.32215 0.44635 0.56016 0.0
H1156 H 0.38271 0.52437 0.62968 0.0
H1157 H 0.41867 0.522 0.64443 0.0
H1158 H 0.38519 0.50919 0.66655 0.0
H1159 H 0.40043 0.46057 0.67018 0.0
H1160 H 0.43389 0.47323 0.64803 0.0
H1161 H 0.40823 0.4424 0.63577 0.0
H1162 H 0.36843 0.46391 0.52945 0.0
H1163 H 0.41882 0.48184 0.50809 0.0
H1164 H 0.45111 0.50311 0.599 0.0
C1165 C 0.3382 0.45856 0.64675 0.0
C1166 C 0.30962 0.44427 0.63761 0.0
C1167 C 0.30422 0.4404 0.60606 0.0
C1168 C 0.32658 0.44982 0.58411 0.0
C1169 C 0.35454 0.46327 0.59378 0.0
C1170 C 0.36053 0.46778 0.6243 0.0
C1171 C 0.39303 0.48201 0.62824 0.0
C1172 C 0.395 0.51112 0.64311 0.0
C1173 C 0.40989 0.46344 0.64665 0.0
C1174 C 0.40428 0.48443 0.59526 0.0
C1175 C 0.38154 0.47357 0.57584 0.0
C1176 C 0.38636 0.47263 0.54443 0.0
C1177 C 0.41513 0.48286 0.53247 0.0
C1178 C 0.43898 0.49397 0.55173 0.0
C1179 C 0.43332 0.49495 0.58361 0.0
H1180 H 0.80055 0.73087 0.96108 0.0
H1181 H 0.74259 0.65392 0.93372 0.0
H1182 H 0.77417 0.62633 0.96078 0.0
H1183 H 0.86412 0.70904 0.94446 0.0
H1184 H 0.88615 0.72639 0.97507 0.0
H1185 H 0.85503 0.74034 0.96182 0.0
H1186 H 0.83157 0.73776 1.01619 0.0
H1187 H 0.86299 0.72422 1.02987 0.0
H1188 H 0.82558 0.70504 0.0365 0.0
H1189 H 0.81656 0.60746 0.98137 0.0
H1190 H 0.86631 0.59846 0.99341 0.0
H1191 H 0.89817 0.68783 1.00635 0.0
C1192 C 0.79373 0.70827 0.96236 0.0
C1193 C 0.76878 0.69437 0.94635 0.0
C1194 C 0.76121 0.66477 0.94672 0.0
C1195 C 0.77905 0.64902 0.96197 0.0
C1196 C 0.8044 0.66329 0.97649 0.0
C1197 C 0.81164 0.69231 0.97701 0.0
C1198 C 0.84246 0.70243 0.98962 0.0
C1199 C 0.86314 0.7206 0.96635 0.0
C1200 C 0.84052 0.7183 1.01985 0.0
C1201 C 0.85208 0.67465 0.99456 0.0
C1202 C 0.82955 0.65233 0.98759 0.0
C1203 C 0.83409 0.62472 0.98769 0.0
C1204 C 0.86248 0.61982 0.99464 0.0
C1205 C 0.88614 0.64243 1.00111 0.0
C1206 C 0.88054 0.67011 1.00164 0.0
H1207 H 0.47731 0.8412 0.15706 0.0
H1208 H 0.3826 0.84321 0.15579 0.0
H1209 H 0.39371 0.88932 0.13103 0.0
H1210 H 0.50179 0.916 0.17312 0.0
H1211 H 0.53489 0.91924 0.14918 0.0
H1212 H 0.51972 0.88622 0.16703 0.0
H1213 H 0.51671 0.86154 0.11436 0.0
H1214 H 0.53173 0.89451 0.09635 0.0
H1215 H 0.49654 0.8743 0.08446 0.0
H1216 H 0.41467 0.93532 0.10513 0.0
H1217 H 0.44435 0.97822 0.08194 0.0
H1218 H 0.52576 0.94802 0.10036 0.0
C1219 C 0.45891 0.85142 0.15185 0.0
C1220 C 0.42893 0.838 0.15821 0.0
C1221 C 0.40569 0.85239 0.1507 0.0
C1222 C 0.41178 0.87883 0.13672 0.0
C1223 C 0.44137 0.89117 0.1303 0.0
C1224 C 0.46462 0.87806 0.13775 0.0
C1225 C 0.49443 0.89611 0.12821 0.0
C1226 C 0.51385 0.90491 0.15605 0.0
C1227 C 0.51082 0.88069 0.10443 0.0
C1228 C 0.48424 0.92128 0.11427 0.0
C1229 C 0.4535 0.91792 0.11568 0.0
C1230 C 0.43878 0.93818 0.10404 0.0
C1231 C 0.45583 0.96253 0.09084 0.0
C1232 C 0.4874 0.96668 0.08934 0.0
C1233 C 0.50167 0.94559 0.1012 0.0
H1234 H 0.14923 0.21325 0.6612 0.0
H1235 H 0.07463 0.25626 0.65327 0.0
H1236 H 0.04651 0.2151 0.62599 0.0
H1237 H 0.1439 0.17929 0.58915 0.0
H1238 H 0.15263 0.14671 0.60209 0.0
H1239 H 0.16667 0.17896 0.62205 0.0
H1240 H 0.1423 0.15748 0.67227 0.0
H1241 H 0.1284 0.12505 0.65252 0.0
H1242 H 0.10295 0.14273 0.67364 0.0
H1243 H 0.02875 0.17152 0.59458 0.0
H1244 H 1.01925 0.12605 0.56767 0.0
H1245 H 0.10292 0.10802 0.59948 0.0
C1246 C 0.12679 0.2138 0.6541 0.0
C1247 C 0.11411 0.23811 0.65951 0.0
C1248 C 0.0847 0.23791 0.64979 0.0
C1249 C 0.06864 0.21465 0.63405 0.0
C1250 C 0.08197 0.19132 0.62859 0.0
C1251 C 0.11012 0.19041 0.6389 0.0
C1252 C 0.11904 0.16251 0.63027 0.0
C1253 C 0.14723 0.16716 0.60967 0.0
C1254 C 0.12343 0.14596 0.65888 0.0
C1255 C 0.09178 0.14809 0.61294 0.0
C1256 C 0.07087 0.16534 0.612 0.0
C1257 C 0.04473 0.15767 0.59573 0.0
C1258 C 0.03957 0.1317 0.58038 0.0
C1259 C 0.06004 0.11305 0.58169 0.0
C1260 C 0.08655 0.12149 0.59837 0.0
H1261 H 0.64683 0.28078 0.58079 0.0
H1262 H 0.73985 0.32108 0.57342 0.0
H1263 H 0.72545 0.36737 0.57877 0.0
H1264 H 0.62195 0.32083 0.53338 0.0
H1265 H 0.58689 0.32333 0.55202 0.0
H1266 H 0.60403 0.29375 0.55905 0.0
H1267 H 0.60364 0.30411 0.617 0.0
H1268 H 0.58583 0.33362 0.61025 0.0
H1269 H 0.62006 0.33852 0.63096 0.0
H1270 H 0.70117 0.40791 0.56982 0.0
H1271 H 0.66927 0.43889 0.54963 0.0
H1272 H 0.59154 0.37299 0.56259 0.0
C1273 C 0.66417 0.29937 0.58172 0.0
C1274 C 0.69438 0.29743 0.57679 0.0
C1275 C 0.71659 0.32207 0.57772 0.0
C1276 C 0.70858 0.3485 0.58069 0.0
C1277 C 0.67835 0.34985 0.58319 0.0
C1278 C 0.65646 0.32584 0.58444 0.0
C1279 C 0.62562 0.33271 0.58173 0.0
C1280 C 0.60868 0.31673 0.55495 0.0
C1281 C 0.60774 0.3269 0.61178 0.0
C1282 C 0.63373 0.36386 0.57577 0.0
C1283 C 0.66414 0.37358 0.57775 0.0
C1284 C 0.67724 0.4008 0.5692 0.0
C1285 C 0.65895 0.41824 0.55766 0.0
C1286 C 0.62797 0.40823 0.55442 0.0
C1287 C 0.6152 0.3811 0.56468 0.0
loop_
_geom_bond_atom_site_label_1
_geom_bond_atom_site_label_2
_geom_bond_distance
_geom_bond_site_symmetry_2
_ccdc_geom_bond_type
C0 C1 1.391 . S
C0 C4 1.391 . S
C0 H42 0.948 . S
C1 C0 1.391 . S
C1 C2 1.391 . S
C2 C1 1.391 . S
C2 H58 0.947 . S
C2 C59 1.392 . S
C3 C4 1.391 . S
C3 C7 1.397 . S
C3 C59 1.419 . S
C4 C0 1.391 . S
C4 C3 1.391 . S
C4 C5 1.399 . S
C5 C4 1.399 . S
C5 C8 1.396 . S
C5 C17 1.453 . S
C5 C18 1.684 . S
H6 C30 0.948 . S
C7 C3 1.397 . S
C7 C8 1.394 . S
C7 C26 1.723 . S
C8 C5 1.396 . S
C8 C7 1.394 . S
C8 C38 1.723 . S
H9 C32 0.947 . S
H10 C33 0.948 . S
H11 C39 0.982 . S
H12 C40 0.979 . S
H13 C40 0.980 . S
H14 C40 0.983 . S
H15 C39 0.979 . S
H16 C39 0.977 . S
C17 C5 1.453 . S
C17 H46 0.982 . S
C17 H47 0.979 . S
C17 H48 0.977 . S
C18 C5 1.684 . S
C18 H43 0.979 . S
C18 H44 0.980 . S
C18 H45 0.983 . S
C19 C20 1.391 . S
C19 C24 1.391 . S
C19 H49 0.948 . S
C20 C19 1.391 . S
C20 C21 1.391 . S
C21 C20 1.391 . S
C21 C22 1.392 . S
C21 H50 0.947 . S
C22 C21 1.392 . S
C22 C23 1.419 . S
C22 H51 0.948 . S
C23 C22 1.419 . S
C23 C24 1.391 . S
C23 C27 1.397 . S
C24 C19 1.391 . S
C24 C23 1.391 . S
C24 C25 1.399 . S
C25 C24 1.399 . S
C25 C26 1.396 . S
C25 C28 1.453 . S
C25 C29 1.684 . S
C26 C7 1.723 . S
C26 C25 1.396 . S
C26 C27 1.394 . S
C27 C23 1.397 . S
C27 C26 1.394 . S
C27 C37 1.723 . S
C28 C25 1.453 . S
C28 H52 0.982 . S
C28 H53 0.979 . S
C28 H54 0.977 . S
C29 C25 1.684 . S
C29 H55 0.979 . S
C29 H56 0.980 . S
C29 H57 0.983 . S
C30 H6 0.948 . S
C30 C31 1.391 . S
C30 C35 1.391 . S
C31 C30 1.391 . S
C31 C32 1.391 . S
C32 H9 0.947 . S
C32 C31 1.391 . S
C32 C33 1.392 . S
C33 H10 0.948 . S
C33 C32 1.392 . S
C33 C34 1.419 . S
C34 C33 1.419 . S
C34 C35 1.391 . S
C34 C38 1.397 . S
C35 C30 1.391 . S
C35 C34 1.391 . S
C35 C36 1.399 . S
C36 C35 1.399 . S
C36 C37 1.396 . S
C36 C39 1.453 . S
C36 C40 1.684 . S
C37 C27 1.723 . S
C37 C36 1.396 . S
C37 C38 1.394 . S
C38 C8 1.723 . S
C38 C34 1.397 . S
C38 C37 1.394 . S
C39 H11 0.982 . S
C39 H15 0.979 . S
C39 H16 0.977 . S
C39 C36 1.453 . S
C40 H12 0.979 . S
C40 H13 0.980 . S
C40 H14 0.983 . S
C40 C36 1.684 . S
H41 C59 0.948 . S
H42 C0 0.948 . S
H43 C18 0.979 . S
H44 C18 0.980 . S
H45 C18 0.983 . S
H46 C17 0.982 . S
H47 C17 0.979 . S
H48 C17 0.977 . S
H49 C19 0.948 . S
H50 C21 0.947 . S
H51 C22 0.948 . S
H52 C28 0.982 . S
H53 C28 0.979 . S
H54 C28 0.977 . S
H55 C29 0.979 . S
H56 C29 0.980 . S
H57 C29 0.983 . S
H58 C2 0.947 . S
C59 C2 1.392 . S
C59 C3 1.419 . S
C59 H41 0.948 . S
C60 C61 1.391 . S
C60 C64 1.391 . S
C60 H102 0.948 . S
C61 C60 1.391 . S
C61 C62 1.391 . S
C62 C61 1.391 . S
C62 H118 0.947 . S
C62 C119 1.392 . S
C63 C64 1.391 . S
C63 C67 1.397 . S
C63 C119 1.419 . S
C64 C60 1.391 . S
C64 C63 1.391 . S
C64 C65 1.399 . S
C65 C64 1.399 . S
C65 C68 1.396 . S
C65 C77 1.453 . S
C65 C78 1.684 . S
H66 C90 0.948 . S
C67 C63 1.397 . S
C67 C68 1.394 . S
C67 C86 1.723 . S
C68 C65 1.396 . S
C68 C67 1.394 . S
C68 C98 1.723 . S
H69 C92 0.947 . S
H70 C93 0.948 . S
H71 C99 0.982 . S
H72 C100 0.979 . S
H73 C100 0.980 . S
H74 C100 0.983 . S
H75 C99 0.979 . S
H76 C99 0.977 . S
C77 C65 1.453 . S
C77 H106 0.982 . S
C77 H107 0.979 . S
C77 H108 0.977 . S
C78 C65 1.684 . S
C78 H103 0.979 . S
C78 H104 0.980 . S
C78 H105 0.983 . S
C79 C80 1.391 . S
C79 C84 1.391 . S
C79 H109 0.948 . S
C80 C79 1.391 . S
C80 C81 1.391 . S
C81 C80 1.391 . S
C81 C82 1.392 . S
C81 H110 0.947 . S
C82 C81 1.392 . S
C82 C83 1.419 . S
C82 H111 0.948 . S
C83 C82 1.419 . S
C83 C84 1.391 . S
C83 C87 1.397 . S
C84 C79 1.391 . S
C84 C83 1.391 . S
C84 C85 1.399 . S
C85 C84 1.399 . S
C85 C86 1.396 . S
C85 C88 1.453 . S
C85 C89 1.684 . S
C86 C67 1.723 . S
C86 C85 1.396 . S
C86 C87 1.394 . S
C87 C83 1.397 . S
C87 C86 1.394 . S
C87 C97 1.723 . S
C88 C85 1.453 . S
C88 H112 0.982 . S
C88 H113 0.979 . S
C88 H114 0.977 . S
C89 C85 1.684 . S
C89 H115 0.979 . S
C89 H116 0.980 . S
C89 H117 0.983 . S
C90 H66 0.948 . S
C90 C91 1.391 . S
C90 C95 1.391 . S
C91 C90 1.391 . S
C91 C92 1.391 . S
C92 H69 0.947 . S
C92 C91 1.391 . S
C92 C93 1.392 . S
C93 H70 0.948 . S
C93 C92 1.392 . S
C93 C94 1.419 . S
C94 C93 1.419 . S
C94 C95 1.391 . S
C94 C98 1.397 . S
C95 C90 1.391 . S
C95 C94 1.391 . S
C95 C96 1.399 . S
C96 C95 1.399 . S
C96 C97 1.396 . S
C96 C99 1.453 . S
C96 C100 1.684 . S
C97 C87 1.723 . S
C97 C96 1.396 . S
C97 C98 1.394 . S
C98 C68 1.723 . S
C98 C94 1.397 . S
C98 C97 1.394 . S
C99 H71 0.982 . S
C99 H75 0.979 . S
C99 H76 0.977 . S
C99 C96 1.453 . S
C100 H72 0.979 . S
C100 H73 0.980 . S
C100 H74 0.983 . S
C100 C96 1.684 . S
H101 C119 0.948 . S
H102 C60 0.948 . S
H103 C78 0.979 . S
H104 C78 0.980 . S
H105 C78 0.983 . S
H106 C77 0.982 . S
H107 C77 0.979 . S
H108 C77 0.977 . S
H109 C79 0.948 . S
H110 C81 0.947 . S
H111 C82 0.948 . S
H112 C88 0.982 . S
H113 C88 0.979 . S
H114 C88 0.977 . S
H115 C89 0.979 . S
H116 C89 0.980 . S
H117 C89 0.983 . S
H118 C62 0.947 . S
C119 C62 1.392 . S
C119 C63 1.419 . S
C119 H101 0.948 . S
C120 C121 1.391 . S
C120 C124 1.391 . S
C120 H162 0.948 . S
C121 C120 1.391 . S
C121 C122 1.391 . S
C122 C121 1.391 . S
C122 H178 0.947 . S
C122 C179 1.392 . S
C123 C124 1.391 . S
C123 C127 1.397 . S
C123 C179 1.419 . S
C124 C120 1.391 . S
C124 C123 1.391 . S
C124 C125 1.399 . S
C125 C124 1.399 . S
C125 C128 1.396 . S
C125 C137 1.453 . S
C125 C138 1.684 . S
H126 C150 0.948 . S
C127 C123 1.397 . S
C127 C128 1.394 . S
C127 C146 1.723 . S
C128 C125 1.396 . S
C128 C127 1.394 . S
C128 C158 1.723 . S
H129 C152 0.947 . S
H130 C153 0.948 . S
H131 C159 0.982 . S
H132 C160 0.979 . S
H133 C160 0.980 . S
H134 C160 0.983 . S
H135 C159 0.979 . S
H136 C159 0.977 . S
C137 C125 1.453 . S
C137 H166 0.982 . S
C137 H167 0.979 . S
C137 H168 0.977 . S
C138 C125 1.684 . S
C138 H163 0.979 . S
C138 H164 0.980 . S
C138 H165 0.983 . S
C139 C140 1.391 . S
C139 C144 1.391 . S
C139 H169 0.948 . S
C140 C139 1.391 . S
C140 C141 1.391 . S
C141 C140 1.391 . S
C141 C142 1.392 . S
C141 H170 0.947 . S
C142 C141 1.392 . S
C142 C143 1.419 . S
C142 H171 0.948 . S
C143 C142 1.419 . S
C143 C144 1.391 . S
C143 C147 1.397 . S
C144 C139 1.391 . S
C144 C143 1.391 . S
C144 C145 1.399 . S
C145 C144 1.399 . S
C145 C146 1.396 . S
C145 C148 1.453 . S
C145 C149 1.684 . S
C146 C127 1.723 . S
C146 C145 1.396 . S
C146 C147 1.394 . S
C147 C143 1.397 . S
C147 C146 1.394 . S
C147 C157 1.723 . S
C148 C145 1.453 . S
C148 H172 0.982 . S
C148 H173 0.979 . S
C148 H174 0.977 . S
C149 C145 1.684 . S
C149 H175 0.979 . S
C149 H176 0.980 . S
C149 H177 0.983 . S
C150 H126 0.948 . S
C150 C151 1.391 . S
C150 C155 1.391 . S
C151 C150 1.391 . S
C151 C152 1.391 . S
C152 H129 0.947 . S
C152 C151 1.391 . S
C152 C153 1.392 . S
C153 H130 0.948 . S
C153 C152 1.392 . S
C153 C154 1.419 . S
C154 C153 1.419 . S
C154 C155 1.391 . S
C154 C158 1.397 . S
C155 C150 1.391 . S
C155 C154 1.391 . S
C155 C156 1.399 . S
C156 C155 1.399 . S
C156 C157 1.396 . S
C156 C159 1.453 . S
C156 C160 1.684 . S
C157 C147 1.723 . S
C157 C156 1.396 . S
C157 C158 1.394 . S
C158 C128 1.723 . S
C158 C154 1.397 . S
C158 C157 1.394 . S
C159 H131 0.982 . S
C159 H135 0.979 . S
C159 H136 0.977 . S
C159 C156 1.453 . S
C160 H132 0.979 . S
C160 H133 0.980 . S
C160 H134 0.983 . S
C160 C156 1.684 . S
H161 C179 0.948 . S
H162 C120 0.948 . S
H163 C138 0.979 . S
H164 C138 0.980 . S
H165 C138 0.983 . S
H166 C137 0.982 . S
H167 C137 0.979 . S
H168 C137 0.977 . S
H169 C139 0.948 . S
H170 C141 0.947 . S
H171 C142 0.948 . S
H172 C148 0.982 . S
H173 C148 0.979 . S
H174 C148 0.977 . S
H175 C149 0.979 . S
H176 C149 0.980 . S
H177 C149 0.983 . S
H178 C122 0.947 . S
C179 C122 1.392 . S
C179 C123 1.419 . S
C179 H161 0.948 . S
C180 C181 1.391 . S
C180 C184 1.391 . S
C180 H222 0.948 . S
C181 C180 1.391 . S
C181 C182 1.391 . S
C182 C181 1.391 . S
C182 H238 0.947 . S
C182 C239 1.392 . S
C183 C184 1.391 . S
C183 C187 1.397 . S
C183 C239 1.419 . S
C184 C180 1.391 . S
C184 C183 1.391 . S
C184 C185 1.399 . S
C185 C184 1.399 . S
C185 C188 1.396 . S
C185 C197 1.453 . S
C185 C198 1.684 . S
H186 C210 0.948 . S
C187 C183 1.397 . S
C187 C188 1.394 . S
C187 C206 1.723 . S
C188 C185 1.396 . S
C188 C187 1.394 . S
C188 C218 1.723 . S
H189 C212 0.947 . S
H190 C213 0.948 . S
H191 C219 0.982 . S
H192 C220 0.979 . S
H193 C220 0.980 . S
H194 C220 0.983 . S
H195 C219 0.979 . S
H196 C219 0.977 . S
C197 C185 1.453 . S
C197 H226 0.982 . S
C197 H227 0.979 . S
C197 H228 0.977 . S
C198 C185 1.684 . S
C198 H223 0.979 . S
C198 H224 0.980 . S
C198 H225 0.983 . S
C199 C200 1.391 . S
C199 C204 1.391 . S
C199 H229 0.948 . S
C200 C199 1.391 . S
C200 C201 1.391 . S
C201 C200 1.391 . S
C201 C202 1.392 . S
C201 H230 0.947 . S
C202 C201 1.392 . S
C202 C203 1.419 . S
C202 H231 0.948 . S
C203 C202 1.419 . S
C203 C204 1.391 . S
C203 C207 1.397 . S
C204 C199 1.391 . S
C204 C203 1.391 . S
C204 C205 1.399 . S
C205 C204 1.399 . S
C205 C206 1.396 . S
C205 C208 1.453 . S
C205 C209 1.684 . S
C206 C187 1.723 . S
C206 C205 1.396 . S
C206 C207 1.394 . S
C207 C203 1.397 . S
C207 C206 1.394 . S
C207 C217 1.723 . S
C208 C205 1.453 . S
C208 H232 0.982 . S
C208 H233 0.979 . S
C208 H234 0.977 . S
C209 C205 1.684 . S
C209 H235 0.979 . S
C209 H236 0.980 . S
C209 H237 0.983 . S
C210 H186 0.948 . S
C210 C211 1.391 . S
C210 C215 1.391 . S
C211 C210 1.391 . S
C211 C212 1.391 . S
C212 H189 0.947 . S
C212 C211 1.391 . S
C212 C213 1.392 . S
C213 H190 0.948 . S
C213 C212 1.392 . S
C213 C214 1.419 . S
C214 C213 1.419 . S
C214 C215 1.391 . S
C214 C218 1.397 . S
C215 C210 1.391 . S
C215 C214 1.391 . S
C215 C216 1.399 . S
C216 C215 1.399 . S
C216 C217 1.396 . S
C216 C219 1.453 . S
C216 C220 1.684 . S
C217 C207 1.723 . S
C217 C216 1.396 . S
C217 C218 1.394 . S
C218 C188 1.723 . S
C218 C214 1.397 . S
C218 C217 1.394 . S
C219 H191 0.982 . S
C219 H195 0.979 . S
C219 H196 0.977 . S
C219 C216 1.453 . S
C220 H192 0.979 . S
C220 H193 0.980 . S
C220 H194 0.983 . S
C220 C216 1.684 . S
H221 C239 0.948 . S
H222 C180 0.948 . S
H223 C198 0.979 . S
H224 C198 0.980 . S
H225 C198 0.983 . S
H226 C197 0.982 . S
H227 C197 0.979 . S
H228 C197 0.977 . S
H229 C199 0.948 . S
H230 C201 0.947 . S
H231 C202 0.948 . S
H232 C208 0.982 . S
H233 C208 0.979 . S
H234 C208 0.977 . S
H235 C209 0.979 . S
H236 C209 0.980 . S
H237 C209 0.983 . S
H238 C182 0.947 . S
C239 C182 1.392 . S
C239 C183 1.419 . S
C239 H221 0.948 . S
C240 C241 1.391 . S
C240 C244 1.391 . S
C240 H282 0.948 . S
C241 C240 1.391 . S
C241 C242 1.391 . S
C242 C241 1.391 . S
C242 H298 0.947 . S
C242 C299 1.392 . S
C243 C244 1.391 . S
C243 C247 1.397 . S
C243 C299 1.419 . S
C244 C240 1.391 . S
C244 C243 1.391 . S
C244 C245 1.399 . S
C245 C244 1.399 . S
C245 C248 1.396 . S
C245 C257 1.453 . S
C245 C258 1.684 . S
H246 C270 0.948 . S
C247 C243 1.397 . S
C247 C248 1.394 . S
C247 C266 1.723 . S
C248 C245 1.396 . S
C248 C247 1.394 . S
C248 C278 1.723 . S
H249 C272 0.947 . S
H250 C273 0.948 . S
H251 C279 0.982 . S
H252 C280 0.979 . S
H253 C280 0.980 . S
H254 C280 0.983 . S
H255 C279 0.979 . S
H256 C279 0.977 . S
C257 C245 1.453 . S
C257 H286 0.982 . S
C257 H287 0.979 . S
C257 H288 0.977 . S
C258 C245 1.684 . S
C258 H283 0.979 . S
C258 H284 0.980 . S
C258 H285 0.983 . S
C259 C260 1.391 . S
C259 C264 1.391 . S
C259 H289 0.948 . S
C260 C259 1.391 . S
C260 C261 1.391 . S
C261 C260 1.391 . S
C261 C262 1.392 . S
C261 H290 0.947 . S
C262 C261 1.392 . S
C262 C263 1.419 . S
C262 H291 0.948 . S
C263 C262 1.419 . S
C263 C264 1.391 . S
C263 C267 1.397 . S
C264 C259 1.391 . S
C264 C263 1.391 . S
C264 C265 1.399 . S
C265 C264 1.399 . S
C265 C266 1.396 . S
C265 C268 1.453 . S
C265 C269 1.684 . S
C266 C247 1.723 . S
C266 C265 1.396 . S
C266 C267 1.394 . S
C267 C263 1.397 . S
C267 C266 1.394 . S
C267 C277 1.723 . S
C268 C265 1.453 . S
C268 H292 0.982 . S
C268 H293 0.979 . S
C268 H294 0.977 . S
C269 C265 1.684 . S
C269 H295 0.979 . S
C269 H296 0.980 . S
C269 H297 0.983 . S
C270 H246 0.948 . S
C270 C271 1.391 . S
C270 C275 1.391 . S
C271 C270 1.391 . S
C271 C272 1.391 . S
C272 H249 0.947 . S
C272 C271 1.391 . S
C272 C273 1.392 . S
C273 H250 0.948 . S
C273 C272 1.392 . S
C273 C274 1.419 . S
C274 C273 1.419 . S
C274 C275 1.391 . S
C274 C278 1.397 . S
C275 C270 1.391 . S
C275 C274 1.391 . S
C275 C276 1.399 . S
C276 C275 1.399 . S
C276 C277 1.396 . S
C276 C279 1.453 . S
C276 C280 1.684 . S
C277 C267 1.723 . S
C277 C276 1.396 . S
C277 C278 1.394 . S
C278 C248 1.723 . S
C278 C274 1.397 . S
C278 C277 1.394 . S
C279 H251 0.982 . S
C279 H255 0.979 . S
C279 H256 0.977 . S
C279 C276 1.453 . S
C280 H252 0.979 . S
C280 H253 0.980 . S
C280 H254 0.983 . S
C280 C276 1.684 . S
H281 C299 0.948 . S
H282 C240 0.948 . S
H283 C258 0.979 . S
H284 C258 0.980 . S
H285 C258 0.983 . S
H286 C257 0.982 . S
H287 C257 0.979 . S
H288 C257 0.977 . S
H289 C259 0.948 . S
H290 C261 0.947 . S
H291 C262 0.948 . S
H292 C268 0.982 . S
H293 C268 0.979 . S
H294 C268 0.977 . S
H295 C269 0.979 . S
H296 C269 0.980 . S
H297 C269 0.983 . S
H298 C242 0.947 . S
C299 C242 1.392 . S
C299 C243 1.419 . S
C299 H281 0.948 . S
C300 C301 1.391 . S
C300 C304 1.391 . S
C300 H342 0.948 . S
C301 C300 1.391 . S
C301 C302 1.391 . S
C302 C301 1.391 . S
C302 H358 0.947 . S
C302 C359 1.392 . S
C303 C304 1.391 . S
C303 C307 1.397 . S
C303 C359 1.419 . S
C304 C300 1.391 . S
C304 C303 1.391 . S
C304 C305 1.399 . S
C305 C304 1.399 . S
C305 C308 1.396 . S
C305 C317 1.453 . S
C305 C318 1.684 . S
H306 C330 0.948 . S
C307 C303 1.397 . S
C307 C308 1.394 . S
C307 C326 1.723 . S
C308 C305 1.396 . S
C308 C307 1.394 . S
C308 C338 1.723 . S
H309 C332 0.947 . S
H310 C333 0.948 . S
H311 C339 0.982 . S
H312 C340 0.979 . S
H313 C340 0.980 . S
H314 C340 0.983 . S
H315 C339 0.979 . S
H316 C339 0.977 . S
C317 C305 1.453 . S
C317 H346 0.982 . S
C317 H347 0.979 . S
C317 H348 0.977 . S
C318 C305 1.684 . S
C318 H343 0.979 . S
C318 H344 0.980 . S
C318 H345 0.983 . S
C319 C320 1.391 . S
C319 C324 1.391 . S
C319 H349 0.948 . S
C320 C319 1.391 . S
C320 C321 1.391 . S
C321 C320 1.391 . S
C321 C322 1.392 . S
C321 H350 0.947 . S
C322 C321 1.392 . S
C322 C323 1.419 . S
C322 H351 0.948 . S
C323 C322 1.419 . S
C323 C324 1.391 . S
C323 C327 1.397 . S
C324 C319 1.391 . S
C324 C323 1.391 . S
C324 C325 1.399 . S
C325 C324 1.399 . S
C325 C326 1.396 . S
C325 C328 1.453 . S
C325 C329 1.684 . S
C326 C307 1.723 . S
C326 C325 1.396 . S
C326 C327 1.394 . S
C327 C323 1.397 . S
C327 C326 1.394 . S
C327 C337 1.723 . S
C328 C325 1.453 . S
C328 H352 0.982 . S
C328 H353 0.979 . S
C328 H354 0.977 . S
C329 C325 1.684 . S
C329 H355 0.979 . S
C329 H356 0.980 . S
C329 H357 0.983 . S
C330 H306 0.948 . S
C330 C331 1.391 . S
C330 C335 1.391 . S
C331 C330 1.391 . S
C331 C332 1.391 . S
C332 H309 0.947 . S
C332 C331 1.391 . S
C332 C333 1.392 . S
C333 H310 0.948 . S
C333 C332 1.392 . S
C333 C334 1.419 . S
C334 C333 1.419 . S
C334 C335 1.391 . S
C334 C338 1.397 . S
C335 C330 1.391 . S
C335 C334 1.391 . S
C335 C336 1.399 . S
C336 C335 1.399 . S
C336 C337 1.396 . S
C336 C339 1.453 . S
C336 C340 1.684 . S
C337 C327 1.723 . S
C337 C336 1.396 . S
C337 C338 1.394 . S
C338 C308 1.723 . S
C338 C334 1.397 . S
C338 C337 1.394 . S
C339 H311 0.982 . S
C339 H315 0.979 . S
C339 H316 0.977 . S
C339 C336 1.453 . S
C340 H312 0.979 . S
C340 H313 0.980 . S
C340 H314 0.983 . S
C340 C336 1.684 . S
H341 C359 0.948 . S
H342 C300 0.948 . S
H343 C318 0.979 . S
H344 C318 0.980 . S
H345 C318 0.983 . S
H346 C317 0.982 . S
H347 C317 0.979 . S
H348 C317 0.977 . S
H349 C319 0.948 . S
H350 C321 0.947 . S
H351 C322 0.948 . S
H352 C328 0.982 . S
H353 C328 0.979 . S
H354 C328 0.977 . S
H355 C329 0.979 . S
H356 C329 0.980 . S
H357 C329 0.983 . S
H358 C302 0.947 . S
C359 C302 1.392 . S
C359 C303 1.419 . S
C359 H341 0.948 . S
C360 C361 1.391 . S
C360 C364 1.391 . S
C360 H402 0.948 . S
C361 C360 1.391 . S
C361 C362 1.391 . S
C362 C361 1.391 . S
C362 H418 0.947 . S
C362 C419 1.392 . S
C363 C364 1.391 . S
C363 C367 1.397 . S
C363 C419 1.419 . S
C364 C360 1.391 . S
C364 C363 1.391 . S
C364 C365 1.399 . S
C365 C364 1.399 . S
C365 C368 1.396 . S
C365 C377 1.453 . S
C365 C378 1.684 . S
H366 C390 0.948 . S
C367 C363 1.397 . S
C367 C368 1.394 . S
C367 C386 1.723 . S
C368 C365 1.396 . S
C368 C367 1.394 . S
C368 C398 1.723 . S
H369 C392 0.947 . S
H370 C393 0.948 . S
H371 C399 0.982 . S
H372 C400 0.979 . S
H373 C400 0.980 . S
H374 C400 0.983 . S
H375 C399 0.979 . S
H376 C399 0.977 . S
C377 C365 1.453 . S
C377 H406 0.982 . S
C377 H407 0.979 . S
C377 H408 0.977 . S
C378 C365 1.684 . S
C378 H403 0.979 . S
C378 H404 0.980 . S
C378 H405 0.983 . S
C379 C380 1.391 . S
C379 C384 1.391 . S
C379 H409 0.948 . S
C380 C379 1.391 . S
C380 C381 1.391 . S
C381 C380 1.391 . S
C381 C382 1.392 . S
C381 H410 0.947 . S
C382 C381 1.392 . S
C382 C383 1.419 . S
C382 H411 0.948 . S
C383 C382 1.419 . S
C383 C384 1.391 . S
C383 C387 1.397 . S
C384 C379 1.391 . S
C384 C383 1.391 . S
C384 C385 1.399 . S
C385 C384 1.399 . S
C385 C386 1.396 . S
C385 C388 1.453 . S
C385 C389 1.684 . S
C386 C367 1.723 . S
C386 C385 1.396 . S
C386 C387 1.394 . S
C387 C383 1.397 . S
C387 C386 1.394 . S
C387 C397 1.723 . S
C388 C385 1.453 . S
C388 H412 0.982 . S
C388 H413 0.979 . S
C388 H414 0.977 . S
C389 C385 1.684 . S
C389 H415 0.979 . S
C389 H416 0.980 . S
C389 H417 0.983 . S
C390 H366 0.948 . S
C390 C391 1.391 . S
C390 C395 1.391 . S
C391 C390 1.391 . S
C391 C392 1.391 . S
C392 H369 0.947 . S
C392 C391 1.391 . S
C392 C393 1.392 . S
C393 H370 0.948 . S
C393 C392 1.392 . S
C393 C394 1.419 . S
C394 C393 1.419 . S
C394 C395 1.391 . S
C394 C398 1.397 . S
C395 C390 1.391 . S
C395 C394 1.391 . S
C395 C396 1.399 . S
C396 C395 1.399 . S
C396 C397 1.396 . S
C396 C399 1.453 . S
C396 C400 1.684 . S
C397 C387 1.723 . S
C397 C396 1.396 . S
C397 C398 1.394 . S
C398 C368 1.723 . S
C398 C394 1.397 . S
C398 C397 1.394 . S
C399 H371 0.982 . S
C399 H375 0.979 . S
C399 H376 0.977 . S
C399 C396 1.453 . S
C400 H372 0.979 . S
C400 H373 0.980 . S
C400 H374 0.983 . S
C400 C396 1.684 . S
H401 C419 0.948 . S
H402 C360 0.948 . S
H403 C378 0.979 . S
H404 C378 0.980 . S
H405 C378 0.983 . S
H406 C377 0.982 . S
H407 C377 0.979 . S
H408 C377 0.977 . S
H409 C379 0.948 . S
H410 C381 0.947 . S
H411 C382 0.948 . S
H412 C388 0.982 . S
H413 C388 0.979 . S
H414 C388 0.977 . S
H415 C389 0.979 . S
H416 C389 0.980 . S
H417 C389 0.983 . S
H418 C362 0.947 . S
C419 C362 1.392 . S
C419 C363 1.419 . S
C419 H401 0.948 . S
C420 C421 1.391 . S
C420 C424 1.391 . S
C420 H462 0.948 . S
C421 C420 1.391 . S
C421 C422 1.391 . S
C422 C421 1.391 . S
C422 H478 0.947 . S
C422 C479 1.392 . S
C423 C424 1.391 . S
C423 C427 1.397 . S
C423 C479 1.419 . S
C424 C420 1.391 . S
C424 C423 1.391 . S
C424 C425 1.399 . S
C425 C424 1.399 . S
C425 C428 1.396 . S
C425 C437 1.453 . S
C425 C438 1.684 . S
H426 C450 0.948 . S
C427 C423 1.397 . S
C427 C428 1.394 . S
C427 C446 1.723 . S
C428 C425 1.396 . S
C428 C427 1.394 . S
C428 C458 1.723 . S
H429 C452 0.947 . S
H430 C453 0.948 . S
H431 C459 0.982 . S
H432 C460 0.979 . S
H433 C460 0.980 . S
H434 C460 0.983 . S
H435 C459 0.979 . S
H436 C459 0.977 . S
C437 C425 1.453 . S
C437 H466 0.982 . S
C437 H467 0.979 . S
C437 H468 0.977 . S
C438 C425 1.684 . S
C438 H463 0.979 . S
C438 H464 0.980 . S
C438 H465 0.983 . S
C439 C440 1.391 . S
C439 C444 1.391 . S
C439 H469 0.948 . S
C440 C439 1.391 . S
C440 C441 1.391 . S
C441 C440 1.391 . S
C441 C442 1.392 . S
C441 H470 0.947 . S
C442 C441 1.392 . S
C442 C443 1.419 . S
C442 H471 0.948 . S
C443 C442 1.419 . S
C443 C444 1.391 . S
C443 C447 1.397 . S
C444 C439 1.391 . S
C444 C443 1.391 . S
C444 C445 1.399 . S
C445 C444 1.399 . S
C445 C446 1.396 . S
C445 C448 1.453 . S
C445 C449 1.684 . S
C446 C427 1.723 . S
C446 C445 1.396 . S
C446 C447 1.394 . S
C447 C443 1.397 . S
C447 C446 1.394 . S
C447 C457 1.723 . S
C448 C445 1.453 . S
C448 H472 0.982 . S
C448 H473 0.979 . S
C448 H474 0.977 . S
C449 C445 1.684 . S
C449 H475 0.979 . S
C449 H476 0.980 . S
C449 H477 0.983 . S
C450 H426 0.948 . S
C450 C451 1.391 . S
C450 C455 1.391 . S
C451 C450 1.391 . S
C451 C452 1.391 . S
C452 H429 0.947 . S
C452 C451 1.391 . S
C452 C453 1.392 . S
C453 H430 0.948 . S
C453 C452 1.392 . S
C453 C454 1.419 . S
C454 C453 1.419 . S
C454 C455 1.391 . S
C454 C458 1.397 . S
C455 C450 1.391 . S
C455 C454 1.391 . S
C455 C456 1.399 . S
C456 C455 1.399 . S
C456 C457 1.396 . S
C456 C459 1.453 . S
C456 C460 1.684 . S
C457 C447 1.723 . S
C457 C456 1.396 . S
C457 C458 1.394 . S
C458 C428 1.723 . S
C458 C454 1.397 . S
C458 C457 1.394 . S
C459 H431 0.982 . S
C459 H435 0.979 . S
C459 H436 0.977 . S
C459 C456 1.453 . S
C460 H432 0.979 . S
C460 H433 0.980 . S
C460 H434 0.983 . S
C460 C456 1.684 . S
H461 C479 0.948 . S
H462 C420 0.948 . S
H463 C438 0.979 . S
H464 C438 0.980 . S
H465 C438 0.983 . S
H466 C437 0.982 . S
H467 C437 0.979 . S
H468 C437 0.977 . S
H469 C439 0.948 . S
H470 C441 0.947 . S
H471 C442 0.948 . S
H472 C448 0.982 . S
H473 C448 0.979 . S
H474 C448 0.977 . S
H475 C449 0.979 . S
H476 C449 0.980 . S
H477 C449 0.983 . S
H478 C422 0.947 . S
C479 C422 1.392 . S
C479 C423 1.419 . S
C479 H461 0.948 . S
Ho480 C483 2.811 . S
Ho480 O500 2.322 . S
Ho480 O502 2.378 . S
Ho480 O503 2.524 . S
Ho480 O504 2.381 1_545 S
Ho480 O505 2.669 1_545 S
Ho480 O507 2.346 1_445 S
Ho480 O511 2.305 1_455 S
Ho481 C492 2.811 . S
Ho481 O501 2.346 1_665 S
Ho481 O505 2.305 1_655 S
Ho481 O506 2.322 . S
Ho481 O508 2.378 . S
Ho481 O509 2.524 . S
Ho481 O510 2.381 1_565 S
Ho481 O511 2.669 1_565 S
C482 O500 1.259 . S
C482 O501 1.268 . S
C483 Ho480 2.811 . S
C483 C484 1.488 . S
C483 O502 1.215 . S
C483 O503 1.289 . S
C484 C483 1.488 . S
C484 C485 1.348 . S
C484 C489 1.413 . S
C485 C484 1.348 . S
C485 C486 1.442 . S
C485 H512 0.930 . S
C486 C485 1.442 . S
C486 C487 1.381 . S
C486 H513 0.931 . S
C487 C486 1.381 . S
C487 C488 1.321 . S
C488 C487 1.321 . S
C488 C489 1.403 . S
C488 H514 0.934 . S
C489 C484 1.413 . S
C489 C488 1.403 . S
C489 H515 0.930 . S
C490 O504 1.275 . S
C490 O505 1.256 . S
C491 O506 1.259 . S
C491 O507 1.268 . S
C492 Ho481 2.811 . S
C492 C493 1.488 . S
C492 O508 1.215 . S
C492 O509 1.289 . S
C493 C492 1.488 . S
C493 C494 1.348 . S
C493 C498 1.413 . S
C494 C493 1.348 . S
C494 C495 1.442 . S
C494 H516 0.930 . S
C495 C494 1.442 . S
C495 C496 1.381 . S
C495 H517 0.931 . S
C496 C495 1.381 . S
C496 C497 1.321 . S
C497 C496 1.321 . S
C497 C498 1.403 . S
C497 H518 0.934 . S
C498 C493 1.413 . S
C498 C497 1.403 . S
C498 H519 0.930 . S
C499 O510 1.275 . S
C499 O511 1.256 . S
O500 Ho480 2.322 . S
O500 C482 1.259 . S
O501 Ho481 2.346 1_445 S
O501 C482 1.268 . S
O502 Ho480 2.378 . S
O502 C483 1.215 . S
O503 Ho480 2.524 . S
O503 C483 1.289 . S
O504 Ho480 2.381 1_565 S
O504 C490 1.275 . S
O505 Ho480 2.669 1_565 S
O505 Ho481 2.305 1_455 S
O505 C490 1.256 . S
O506 Ho481 2.322 . S
O506 C491 1.259 . S
O507 Ho480 2.346 1_665 S
O507 C491 1.268 . S
O508 Ho481 2.378 . S
O508 C492 1.215 . S
O509 Ho481 2.524 . S
O509 C492 1.289 . S
O510 Ho481 2.381 1_545 S
O510 C499 1.275 . S
O511 Ho480 2.305 1_655 S
O511 Ho481 2.669 1_545 S
O511 C499 1.256 . S
H512 C485 0.930 . S
H513 C486 0.931 . S
H514 C488 0.934 . S
H515 C489 0.930 . S
H516 C494 0.930 . S
H517 C495 0.931 . S
H518 C497 0.934 . S
H519 C498 0.930 . S
Ho520 C523 2.811 1_565 S
Ho520 O540 2.322 1_565 S
Ho520 O542 2.378 1_565 S
Ho520 O543 2.524 1_565 S
Ho520 O544 2.381 . S
Ho520 O545 2.669 . S
Ho520 O547 2.346 1_554 S
Ho520 O551 2.305 1_564 S
Ho521 C532 2.811 1_545 S
Ho521 O541 2.346 1_556 S
Ho521 O545 2.305 1_546 S
Ho521 O546 2.322 1_545 S
Ho521 O548 2.378 1_545 S
Ho521 O549 2.524 1_545 S
Ho521 O550 2.381 . S
Ho521 O551 2.669 . S
C522 O540 1.259 . S
C522 O541 1.268 . S
C523 Ho520 2.811 1_545 S
C523 C524 1.488 . S
C523 O542 1.215 . S
C523 O543 1.289 . S
C524 C523 1.488 . S
C524 C525 1.348 . S
C524 C529 1.413 . S
C525 C524 1.348 . S
C525 C526 1.442 . S
C525 H552 0.930 . S
C526 C525 1.442 . S
C526 C527 1.381 . S
C526 H553 0.931 . S
C527 C526 1.381 . S
C527 C528 1.321 . S
C528 C527 1.321 . S
C528 C529 1.403 . S
C528 H554 0.934 . S
C529 C524 1.413 . S
C529 C528 1.403 . S
C529 H555 0.930 . S
C530 O544 1.275 . S
C530 O545 1.256 . S
C531 O546 1.259 . S
C531 O547 1.268 . S
C532 Ho521 2.811 1_565 S
C532 C533 1.488 . S
C532 O548 1.215 . S
C532 O549 1.289 . S
C533 C532 1.488 . S
C533 C534 1.348 . S
C533 C538 1.413 . S
C534 C533 1.348 . S
C534 C535 1.442 . S
C534 H556 0.930 . S
C535 C534 1.442 . S
C535 C536 1.381 . S
C535 H557 0.931 . S
C536 C535 1.381 . S
C536 C537 1.321 . S
C537 C536 1.321 . S
C537 C538 1.403 . S
C537 H558 0.934 . S
C538 C533 1.413 . S
C538 C537 1.403 . S
C538 H559 0.930 . S
C539 O550 1.275 . S
C539 O551 1.256 . S
O540 Ho520 2.322 1_545 S
O540 C522 1.259 . S
O541 Ho521 2.346 1_554 S
O541 C522 1.268 . S
O542 Ho520 2.378 1_545 S
O542 C523 1.215 . S
O543 Ho520 2.524 1_545 S
O543 C523 1.289 . S
O544 Ho520 2.381 . S
O544 C530 1.275 . S
O545 Ho520 2.669 . S
O545 Ho521 2.305 1_564 S
O545 C530 1.256 . S
O546 Ho521 2.322 1_565 S
O546 C531 1.259 . S
O547 Ho520 2.346 1_556 S
O547 C531 1.268 . S
O548 Ho521 2.378 1_565 S
O548 C532 1.215 . S
O549 Ho521 2.524 1_565 S
O549 C532 1.289 . S
O550 Ho521 2.381 . S
O550 C539 1.275 . S
O551 Ho520 2.305 1_546 S
O551 Ho521 2.669 . S
O551 C539 1.256 . S
H552 C525 0.930 . S
H553 C526 0.931 . S
H554 C528 0.934 . S
H555 C529 0.930 . S
H556 C534 0.930 . S
H557 C535 0.931 . S
H558 C537 0.934 . S
H559 C538 0.930 . S
Ho560 C563 2.811 . S
Ho560 O580 2.322 . S
Ho560 O582 2.378 . S
Ho560 O583 2.524 . S
Ho560 O584 2.381 . S
Ho560 O585 2.669 . S
Ho560 O587 2.346 . S
Ho560 O591 2.305 . S
Ho561 C572 2.811 . S
Ho561 O581 2.346 . S
Ho561 O585 2.305 . S
Ho561 O586 2.322 . S
Ho561 O588 2.378 . S
Ho561 O589 2.524 . S
Ho561 O590 2.381 . S
Ho561 O591 2.669 . S
C562 O580 1.259 . S
C562 O581 1.268 . S
C563 Ho560 2.811 . S
C563 C564 1.488 . S
C563 O582 1.215 . S
C563 O583 1.289 . S
C564 C563 1.488 . S
C564 C565 1.348 . S
C564 C569 1.413 . S
C565 C564 1.348 . S
C565 C566 1.442 . S
C565 H592 0.930 . S
C566 C565 1.442 . S
C566 C567 1.381 . S
C566 H593 0.931 . S
C567 C566 1.381 . S
C567 C568 1.321 . S
C568 C567 1.321 . S
C568 C569 1.403 . S
C568 H594 0.934 . S
C569 C564 1.413 . S
C569 C568 1.403 . S
C569 H595 0.930 . S
C570 O584 1.275 . S
C570 O585 1.256 . S
C571 O586 1.259 . S
C571 O587 1.268 . S
C572 Ho561 2.811 . S
C572 C573 1.488 . S
C572 O588 1.215 . S
C572 O589 1.289 . S
C573 C572 1.488 . S
C573 C574 1.348 . S
C573 C578 1.413 . S
C574 C573 1.348 . S
C574 C575 1.442 . S
C574 H596 0.930 . S
C575 C574 1.442 . S
C575 C576 1.381 . S
C575 H597 0.931 . S
C576 C575 1.381 . S
C576 C577 1.321 . S
C577 C576 1.321 . S
C577 C578 1.403 . S
C577 H598 0.934 . S
C578 C573 1.413 . S
C578 C577 1.403 . S
C578 H599 0.930 . S
C579 O590 1.275 . S
C579 O591 1.256 . S
O580 Ho560 2.322 . S
O580 C562 1.259 . S
O581 Ho561 2.346 . S
O581 C562 1.268 . S
O582 Ho560 2.378 . S
O582 C563 1.215 . S
O583 Ho560 2.524 . S
O583 C563 1.289 . S
O584 Ho560 2.381 . S
O584 C570 1.275 . S
O585 Ho560 2.669 . S
O585 Ho561 2.305 . S
O585 C570 1.256 . S
O586 Ho561 2.322 . S
O586 C571 1.259 . S
O587 Ho560 2.346 . S
O587 C571 1.268 . S
O588 Ho561 2.378 . S
O588 C572 1.215 . S
O589 Ho561 2.524 . S
O589 C572 1.289 . S
O590 Ho561 2.381 . S
O590 C579 1.275 . S
O591 Ho560 2.305 . S
O591 Ho561 2.669 . S
O591 C579 1.256 . S
H592 C565 0.930 . S
H593 C566 0.931 . S
H594 C568 0.934 . S
H595 C569 0.930 . S
H596 C574 0.930 . S
H597 C575 0.931 . S
H598 C577 0.934 . S
H599 C578 0.930 . S
Ho600 C603 2.811 . S
Ho600 O620 2.322 . S
Ho600 O622 2.378 . S
Ho600 O623 2.524 . S
Ho600 O624 2.381 1_455 S
Ho600 O625 2.669 1_455 S
Ho600 O627 2.346 1_454 S
Ho600 O631 2.305 1_554 S
Ho601 C612 2.811 . S
Ho601 O621 2.346 1_656 S
Ho601 O625 2.305 1_556 S
Ho601 O626 2.322 . S
Ho601 O628 2.378 . S
Ho601 O629 2.524 . S
Ho601 O630 2.381 1_655 S
Ho601 O631 2.669 1_655 S
C602 O620 1.259 . S
C602 O621 1.268 . S
C603 Ho600 2.811 . S
C603 C604 1.488 . S
C603 O622 1.215 . S
C603 O623 1.289 . S
C604 C603 1.488 . S
C604 C605 1.348 . S
C604 C609 1.413 . S
C605 C604 1.348 . S
C605 C606 1.442 . S
C605 H632 0.930 . S
C606 C605 1.442 . S
C606 C607 1.381 . S
C606 H633 0.931 . S
C607 C606 1.381 . S
C607 C608 1.321 . S
C608 C607 1.321 . S
C608 C609 1.403 . S
C608 H634 0.934 . S
C609 C604 1.413 . S
C609 C608 1.403 . S
C609 H635 0.930 . S
C610 O624 1.275 . S
C610 O625 1.256 . S
C611 O626 1.259 . S
C611 O627 1.268 . S
C612 Ho601 2.811 . S
C612 C613 1.488 . S
C612 O628 1.215 . S
C612 O629 1.289 . S
C613 C612 1.488 . S
C613 C614 1.348 . S
C613 C618 1.413 . S
C614 C613 1.348 . S
C614 C615 1.442 . S
C614 H636 0.930 . S
C615 C614 1.442 . S
C615 C616 1.381 . S
C615 H637 0.931 . S
C616 C615 1.381 . S
C616 C617 1.321 . S
C617 C616 1.321 . S
C617 C618 1.403 . S
C617 H638 0.934 . S
C618 C613 1.413 . S
C618 C617 1.403 . S
C618 H639 0.930 . S
C619 O630 1.275 . S
C619 O631 1.256 . S
O620 Ho600 2.322 . S
O620 C602 1.259 . S
O621 Ho601 2.346 1_454 S
O621 C602 1.268 . S
O622 Ho600 2.378 . S
O622 C603 1.215 . S
O623 Ho600 2.524 . S
O623 C603 1.289 . S
O624 Ho600 2.381 1_655 S
O624 C610 1.275 . S
O625 Ho600 2.669 1_655 S
O625 Ho601 2.305 1_554 S
O625 C610 1.256 . S
O626 Ho601 2.322 . S
O626 C611 1.259 . S
O627 Ho600 2.346 1_656 S
O627 C611 1.268 . S
O628 Ho601 2.378 . S
O628 C612 1.215 . S
O629 Ho601 2.524 . S
O629 C612 1.289 . S
O630 Ho601 2.381 1_455 S
O630 C619 1.275 . S
O631 Ho600 2.305 1_556 S
O631 Ho601 2.669 1_455 S
O631 C619 1.256 . S
H632 C605 0.930 . S
H633 C606 0.931 . S
H634 C608 0.934 . S
H635 C609 0.930 . S
H636 C614 0.930 . S
H637 C615 0.931 . S
H638 C617 0.934 . S
H639 C618 0.930 . S
H640 C652 0.930 . S
H641 C654 0.930 . S
H642 C655 0.930 . S
H643 C659 0.959 . S
H644 C659 0.959 . S
H645 C659 0.961 . S
H646 C660 0.960 . S
H647 C660 0.961 . S
H648 C660 0.959 . S
H649 C663 0.929 . S
H650 C664 0.931 . S
H651 C666 0.930 . S
C652 H640 0.930 . S
C652 C653 1.399 . S
C652 C657 1.399 . S
C653 C652 1.399 . S
C653 C654 1.376 . S
C654 H641 0.930 . S
C654 C653 1.376 . S
C654 C655 1.388 . S
C655 H642 0.930 . S
C655 C654 1.388 . S
C655 C656 1.390 . S
C656 C655 1.390 . S
C656 C657 1.394 . S
C656 C662 1.465 . S
C657 C652 1.399 . S
C657 C656 1.394 . S
C657 C658 1.516 . S
C658 C657 1.516 . S
C658 C659 1.502 . S
C658 C660 1.561 . S
C658 C661 1.526 . S
C659 H643 0.959 . S
C659 H644 0.959 . S
C659 H645 0.961 . S
C659 C658 1.502 . S
C660 H646 0.960 . S
C660 H647 0.961 . S
C660 H648 0.959 . S
C660 C658 1.561 . S
C661 C658 1.526 . S
C661 C662 1.396 . S
C661 C666 1.390 . S
C662 C656 1.465 . S
C662 C661 1.396 . S
C662 C663 1.399 . S
C663 H649 0.929 . S
C663 C662 1.399 . S
C663 C664 1.385 . S
C664 H650 0.931 . S
C664 C663 1.385 . S
C664 C665 1.389 . S
C665 C664 1.389 . S
C665 C666 1.387 . S
C666 H651 0.930 . S
C666 C661 1.390 . S
C666 C665 1.387 . S
H667 C679 0.930 . S
H668 C681 0.930 . S
H669 C682 0.930 . S
H670 C686 0.959 . S
H671 C686 0.959 . S
H672 C686 0.961 . S
H673 C687 0.960 . S
H674 C687 0.961 . S
H675 C687 0.959 . S
H676 C690 0.929 . S
H677 C691 0.931 . S
H678 C693 0.930 . S
C679 H667 0.930 . S
C679 C680 1.399 . S
C679 C684 1.399 . S
C680 C679 1.399 . S
C680 C681 1.376 . S
C681 H668 0.930 . S
C681 C680 1.376 . S
C681 C682 1.388 . S
C682 H669 0.930 . S
C682 C681 1.388 . S
C682 C683 1.390 . S
C683 C682 1.390 . S
C683 C684 1.394 . S
C683 C689 1.465 . S
C684 C679 1.399 . S
C684 C683 1.394 . S
C684 C685 1.516 . S
C685 C684 1.516 . S
C685 C686 1.502 . S
C685 C687 1.561 . S
C685 C688 1.526 . S
C686 H670 0.959 . S
C686 H671 0.959 . S
C686 H672 0.961 . S
C686 C685 1.502 . S
C687 H673 0.960 . S
C687 H674 0.961 . S
C687 H675 0.959 . S
C687 C685 1.561 . S
C688 C685 1.526 . S
C688 C689 1.396 . S
C688 C693 1.390 . S
C689 C683 1.465 . S
C689 C688 1.396 . S
C689 C690 1.399 . S
C690 H676 0.929 . S
C690 C689 1.399 . S
C690 C691 1.385 . S
C691 H677 0.931 . S
C691 C690 1.385 . S
C691 C692 1.389 . S
C692 C691 1.389 . S
C692 C693 1.387 . S
C693 H678 0.930 . S
C693 C688 1.390 . S
C693 C692 1.387 . S
H694 C706 0.930 . S
H695 C708 0.930 . S
H696 C709 0.930 . S
H697 C713 0.959 . S
H698 C713 0.959 . S
H699 C713 0.961 . S
H700 C714 0.960 . S
H701 C714 0.961 . S
H702 C714 0.959 . S
H703 C717 0.929 . S
H704 C718 0.931 . S
H705 C720 0.930 . S
C706 H694 0.930 . S
C706 C707 1.399 . S
C706 C711 1.399 . S
C707 C706 1.399 . S
C707 C708 1.376 . S
C708 H695 0.930 . S
C708 C707 1.376 . S
C708 C709 1.388 . S
C709 H696 0.930 . S
C709 C708 1.388 . S
C709 C710 1.390 . S
C710 C709 1.390 . S
C710 C711 1.394 . S
C710 C716 1.465 . S
C711 C706 1.399 . S
C711 C710 1.394 . S
C711 C712 1.516 . S
C712 C711 1.516 . S
C712 C713 1.502 . S
C712 C714 1.561 . S
C712 C715 1.526 . S
C713 H697 0.959 . S
C713 H698 0.959 . S
C713 H699 0.961 . S
C713 C712 1.502 . S
C714 H700 0.960 . S
C714 H701 0.961 . S
C714 H702 0.959 . S
C714 C712 1.561 . S
C715 C712 1.526 . S
C715 C716 1.396 . S
C715 C720 1.390 . S
C716 C710 1.465 . S
C716 C715 1.396 . S
C716 C717 1.399 . S
C717 H703 0.929 . S
C717 C716 1.399 . S
C717 C718 1.385 . S
C718 H704 0.931 . S
C718 C717 1.385 . S
C718 C719 1.389 . S
C719 C718 1.389 . S
C719 C720 1.387 . S
C720 H705 0.930 . S
C720 C715 1.390 . S
C720 C719 1.387 . S
H721 C733 0.930 . S
H722 C735 0.930 . S
H723 C736 0.930 . S
H724 C740 0.959 . S
H725 C740 0.959 . S
H726 C740 0.961 . S
H727 C741 0.960 . S
H728 C741 0.961 . S
H729 C741 0.959 . S
H730 C744 0.929 . S
H731 C745 0.931 . S
H732 C747 0.930 . S
C733 H721 0.930 . S
C733 C734 1.399 . S
C733 C738 1.399 . S
C734 C733 1.399 . S
C734 C735 1.376 . S
C735 H722 0.930 . S
C735 C734 1.376 . S
C735 C736 1.388 . S
C736 H723 0.930 . S
C736 C735 1.388 . S
C736 C737 1.390 . S
C737 C736 1.390 . S
C737 C738 1.394 . S
C737 C743 1.465 . S
C738 C733 1.399 . S
C738 C737 1.394 . S
C738 C739 1.516 . S
C739 C738 1.516 . S
C739 C740 1.502 . S
C739 C741 1.561 . S
C739 C742 1.526 . S
C740 H724 0.959 . S
C740 H725 0.959 . S
C740 H726 0.961 . S
C740 C739 1.502 . S
C741 H727 0.960 . S
C741 H728 0.961 . S
C741 H729 0.959 . S
C741 C739 1.561 . S
C742 C739 1.526 . S
C742 C743 1.396 . S
C742 C747 1.390 . S
C743 C737 1.465 . S
C743 C742 1.396 . S
C743 C744 1.399 . S
C744 H730 0.929 . S
C744 C743 1.399 . S
C744 C745 1.385 . S
C745 H731 0.931 . S
C745 C744 1.385 . S
C745 C746 1.389 . S
C746 C745 1.389 . S
C746 C747 1.387 . S
C747 H732 0.930 . S
C747 C742 1.390 . S
C747 C746 1.387 . S
H748 C760 0.930 . S
H749 C762 0.930 . S
H750 C763 0.930 . S
H751 C767 0.959 . S
H752 C767 0.959 . S
H753 C767 0.961 . S
H754 C768 0.960 . S
H755 C768 0.961 . S
H756 C768 0.959 . S
H757 C771 0.929 . S
H758 C772 0.931 . S
H759 C774 0.930 . S
C760 H748 0.930 . S
C760 C761 1.399 . S
C760 C765 1.399 . S
C761 C760 1.399 . S
C761 C762 1.376 . S
C762 H749 0.930 . S
C762 C761 1.376 . S
C762 C763 1.388 . S
C763 H750 0.930 . S
C763 C762 1.388 . S
C763 C764 1.390 . S
C764 C763 1.390 . S
C764 C765 1.394 . S
C764 C770 1.465 . S
C765 C760 1.399 . S
C765 C764 1.394 . S
C765 C766 1.516 . S
C766 C765 1.516 . S
C766 C767 1.502 . S
C766 C768 1.561 . S
C766 C769 1.526 . S
C767 H751 0.959 . S
C767 H752 0.959 . S
C767 H753 0.961 . S
C767 C766 1.502 . S
C768 H754 0.960 . S
C768 H755 0.961 . S
C768 H756 0.959 . S
C768 C766 1.561 . S
C769 C766 1.526 . S
C769 C770 1.396 . S
C769 C774 1.390 . S
C770 C764 1.465 . S
C770 C769 1.396 . S
C770 C771 1.399 . S
C771 H757 0.929 . S
C771 C770 1.399 . S
C771 C772 1.385 . S
C772 H758 0.931 . S
C772 C771 1.385 . S
C772 C773 1.389 . S
C773 C772 1.389 . S
C773 C774 1.387 . S
C774 H759 0.930 . S
C774 C769 1.390 . S
C774 C773 1.387 . S
H775 C787 0.930 . S
H776 C789 0.930 . S
H777 C790 0.930 . S
H778 C794 0.959 . S
H779 C794 0.959 . S
H780 C794 0.961 . S
H781 C795 0.960 . S
H782 C795 0.961 . S
H783 C795 0.959 . S
H784 C798 0.929 . S
H785 C799 0.931 . S
H786 C801 0.930 . S
C787 H775 0.930 . S
C787 C788 1.399 . S
C787 C792 1.399 . S
C788 C787 1.399 . S
C788 C789 1.376 . S
C789 H776 0.930 . S
C789 C788 1.376 . S
C789 C790 1.388 . S
C790 H777 0.930 . S
C790 C789 1.388 . S
C790 C791 1.390 . S
C791 C790 1.390 . S
C791 C792 1.394 . S
C791 C797 1.465 . S
C792 C787 1.399 . S
C792 C791 1.394 . S
C792 C793 1.516 . S
C793 C792 1.516 . S
C793 C794 1.502 . S
C793 C795 1.561 . S
C793 C796 1.526 . S
C794 H778 0.959 . S
C794 H779 0.959 . S
C794 H780 0.961 . S
C794 C793 1.502 . S
C795 H781 0.960 . S
C795 H782 0.961 . S
C795 H783 0.959 . S
C795 C793 1.561 . S
C796 C793 1.526 . S
C796 C797 1.396 . S
C796 C801 1.390 . S
C797 C791 1.465 . S
C797 C796 1.396 . S
C797 C798 1.399 . S
C798 H784 0.929 . S
C798 C797 1.399 . S
C798 C799 1.385 . S
C799 H785 0.931 . S
C799 C798 1.385 . S
C799 C800 1.389 . S
C800 C799 1.389 . S
C800 C801 1.387 . S
C801 H786 0.930 . S
C801 C796 1.390 . S
C801 C800 1.387 . S
H802 C814 0.930 . S
H803 C816 0.930 . S
H804 C817 0.930 . S
H805 C821 0.959 . S
H806 C821 0.959 . S
H807 C821 0.961 . S
H808 C822 0.960 . S
H809 C822 0.961 . S
H810 C822 0.959 . S
H811 C825 0.929 . S
H812 C826 0.931 . S
H813 C828 0.930 . S
C814 H802 0.930 . S
C814 C815 1.399 . S
C814 C819 1.399 . S
C815 C814 1.399 . S
C815 C816 1.376 . S
C816 H803 0.930 . S
C816 C815 1.376 . S
C816 C817 1.388 . S
C817 H804 0.930 . S
C817 C816 1.388 . S
C817 C818 1.390 . S
C818 C817 1.390 . S
C818 C819 1.394 . S
C818 C824 1.465 . S
C819 C814 1.399 . S
C819 C818 1.394 . S
C819 C820 1.516 . S
C820 C819 1.516 . S
C820 C821 1.502 . S
C820 C822 1.561 . S
C820 C823 1.526 . S
C821 H805 0.959 . S
C821 H806 0.959 . S
C821 H807 0.961 . S
C821 C820 1.502 . S
C822 H808 0.960 . S
C822 H809 0.961 . S
C822 H810 0.959 . S
C822 C820 1.561 . S
C823 C820 1.526 . S
C823 C824 1.396 . S
C823 C828 1.390 . S
C824 C818 1.465 . S
C824 C823 1.396 . S
C824 C825 1.399 . S
C825 H811 0.929 . S
C825 C824 1.399 . S
C825 C826 1.385 . S
C826 H812 0.931 . S
C826 C825 1.385 . S
C826 C827 1.389 . S
C827 C826 1.389 . S
C827 C828 1.387 . S
C828 H813 0.930 . S
C828 C823 1.390 . S
C828 C827 1.387 . S
H829 C841 0.930 . S
H830 C843 0.930 . S
H831 C844 0.930 . S
H832 C848 0.959 . S
H833 C848 0.959 . S
H834 C848 0.961 . S
H835 C849 0.960 . S
H836 C849 0.961 . S
H837 C849 0.959 . S
H838 C852 0.929 . S
H839 C853 0.931 . S
H840 C855 0.930 . S
C841 H829 0.930 . S
C841 C842 1.399 . S
C841 C846 1.399 . S
C842 C841 1.399 . S
C842 C843 1.376 . S
C843 H830 0.930 . S
C843 C842 1.376 . S
C843 C844 1.388 . S
C844 H831 0.930 . S
C844 C843 1.388 . S
C844 C845 1.390 . S
C845 C844 1.390 . S
C845 C846 1.394 . S
C845 C851 1.465 . S
C846 C841 1.399 . S
C846 C845 1.394 . S
C846 C847 1.516 . S
C847 C846 1.516 . S
C847 C848 1.502 . S
C847 C849 1.561 . S
C847 C850 1.526 . S
C848 H832 0.959 . S
C848 H833 0.959 . S
C848 H834 0.961 . S
C848 C847 1.502 . S
C849 H835 0.960 . S
C849 H836 0.961 . S
C849 H837 0.959 . S
C849 C847 1.561 . S
C850 C847 1.526 . S
C850 C851 1.396 . S
C850 C855 1.390 . S
C851 C845 1.465 . S
C851 C850 1.396 . S
C851 C852 1.399 . S
C852 H838 0.929 . S
C852 C851 1.399 . S
C852 C853 1.385 . S
C853 H839 0.931 . S
C853 C852 1.385 . S
C853 C854 1.389 . S
C854 C853 1.389 . S
C854 C855 1.387 . S
C855 H840 0.930 . S
C855 C850 1.390 . S
C855 C854 1.387 . S
H856 C868 0.930 . S
H857 C870 0.930 . S
H858 C871 0.930 . S
H859 C875 0.959 . S
H860 C875 0.959 . S
H861 C875 0.961 . S
H862 C876 0.960 . S
H863 C876 0.961 . S
H864 C876 0.959 . S
H865 C879 0.929 . S
H866 C880 0.931 . S
H867 C882 0.930 . S
C868 H856 0.930 . S
C868 C869 1.399 . S
C868 C873 1.399 . S
C869 C868 1.399 . S
C869 C870 1.376 . S
C870 H857 0.930 . S
C870 C869 1.376 . S
C870 C871 1.388 . S
C871 H858 0.930 . S
C871 C870 1.388 . S
C871 C872 1.390 . S
C872 C871 1.390 . S
C872 C873 1.394 . S
C872 C878 1.465 . S
C873 C868 1.399 . S
C873 C872 1.394 . S
C873 C874 1.516 . S
C874 C873 1.516 . S
C874 C875 1.502 . S
C874 C876 1.561 . S
C874 C877 1.526 . S
C875 H859 0.959 . S
C875 H860 0.959 . S
C875 H861 0.961 . S
C875 C874 1.502 . S
C876 H862 0.960 . S
C876 H863 0.961 . S
C876 H864 0.959 . S
C876 C874 1.561 . S
C877 C874 1.526 . S
C877 C878 1.396 . S
C877 C882 1.390 . S
C878 C872 1.465 . S
C878 C877 1.396 . S
C878 C879 1.399 . S
C879 H865 0.929 . S
C879 C878 1.399 . S
C879 C880 1.385 . S
C880 H866 0.931 . S
C880 C879 1.385 . S
C880 C881 1.389 . S
C881 C880 1.389 . S
C881 C882 1.387 . S
C882 H867 0.930 . S
C882 C877 1.390 . S
C882 C881 1.387 . S
H883 C895 0.930 . S
H884 C897 0.930 . S
H885 C898 0.930 . S
H886 C902 0.959 . S
H887 C902 0.959 . S
H888 C902 0.961 . S
H889 C903 0.960 . S
H890 C903 0.961 . S
H891 C903 0.959 . S
H892 C906 0.929 . S
H893 C907 0.931 . S
H894 C909 0.930 . S
C895 H883 0.930 . S
C895 C896 1.399 . S
C895 C900 1.399 . S
C896 C895 1.399 . S
C896 C897 1.376 . S
C897 H884 0.930 . S
C897 C896 1.376 . S
C897 C898 1.388 . S
C898 H885 0.930 . S
C898 C897 1.388 . S
C898 C899 1.390 . S
C899 C898 1.390 . S
C899 C900 1.394 . S
C899 C905 1.465 . S
C900 C895 1.399 . S
C900 C899 1.394 . S
C900 C901 1.516 . S
C901 C900 1.516 . S
C901 C902 1.502 . S
C901 C903 1.561 . S
C901 C904 1.526 . S
C902 H886 0.959 . S
C902 H887 0.959 . S
C902 H888 0.961 . S
C902 C901 1.502 . S
C903 H889 0.960 . S
C903 H890 0.961 . S
C903 H891 0.959 . S
C903 C901 1.561 . S
C904 C901 1.526 . S
C904 C905 1.396 . S
C904 C909 1.390 . S
C905 C899 1.465 . S
C905 C904 1.396 . S
C905 C906 1.399 . S
C906 H892 0.929 . S
C906 C905 1.399 . S
C906 C907 1.385 . S
C907 H893 0.931 . S
C907 C906 1.385 . S
C907 C908 1.389 . S
C908 C907 1.389 . S
C908 C909 1.387 . S
C909 H894 0.930 . S
C909 C904 1.390 . S
C909 C908 1.387 . S
H910 C922 0.930 . S
H911 C924 0.930 . S
H912 C925 0.930 . S
H913 C929 0.959 . S
H914 C929 0.959 . S
H915 C929 0.961 . S
H916 C930 0.960 . S
H917 C930 0.961 . S
H918 C930 0.959 . S
H919 C933 0.929 . S
H920 C934 0.931 . S
H921 C936 0.930 . S
C922 H910 0.930 . S
C922 C923 1.399 . S
C922 C927 1.399 . S
C923 C922 1.399 . S
C923 C924 1.376 . S
C924 H911 0.930 . S
C924 C923 1.376 . S
C924 C925 1.388 . S
C925 H912 0.930 . S
C925 C924 1.388 . S
C925 C926 1.390 . S
C926 C925 1.390 . S
C926 C927 1.394 . S
C926 C932 1.465 . S
C927 C922 1.399 . S
C927 C926 1.394 . S
C927 C928 1.516 . S
C928 C927 1.516 . S
C928 C929 1.502 . S
C928 C930 1.561 . S
C928 C931 1.526 . S
C929 H913 0.959 . S
C929 H914 0.959 . S
C929 H915 0.961 . S
C929 C928 1.502 . S
C930 H916 0.960 . S
C930 H917 0.961 . S
C930 H918 0.959 . S
C930 C928 1.561 . S
C931 C928 1.526 . S
C931 C932 1.396 . S
C931 C936 1.390 . S
C932 C926 1.465 . S
C932 C931 1.396 . S
C932 C933 1.399 . S
C933 H919 0.929 . S
C933 C932 1.399 . S
C933 C934 1.385 . S
C934 H920 0.931 . S
C934 C933 1.385 . S
C934 C935 1.389 . S
C935 C934 1.389 . S
C935 C936 1.387 . S
C936 H921 0.930 . S
C936 C931 1.390 . S
C936 C935 1.387 . S
H937 C949 0.930 . S
H938 C951 0.930 . S
H939 C952 0.930 . S
H940 C956 0.959 . S
H941 C956 0.959 . S
H942 C956 0.961 . S
H943 C957 0.960 . S
H944 C957 0.961 . S
H945 C957 0.959 . S
H946 C960 0.929 . S
H947 C961 0.931 . S
H948 C963 0.930 . S
C949 H937 0.930 . S
C949 C950 1.399 . S
C949 C954 1.399 . S
C950 C949 1.399 . S
C950 C951 1.376 . S
C951 H938 0.930 . S
C951 C950 1.376 . S
C951 C952 1.388 . S
C952 H939 0.930 . S
C952 C951 1.388 . S
C952 C953 1.390 . S
C953 C952 1.390 . S
C953 C954 1.394 . S
C953 C959 1.465 . S
C954 C949 1.399 . S
C954 C953 1.394 . S
C954 C955 1.516 . S
C955 C954 1.516 . S
C955 C956 1.502 . S
C955 C957 1.561 . S
C955 C958 1.526 . S
C956 H940 0.959 . S
C956 H941 0.959 . S
C956 H942 0.961 . S
C956 C955 1.502 . S
C957 H943 0.960 . S
C957 H944 0.961 . S
C957 H945 0.959 . S
C957 C955 1.561 . S
C958 C955 1.526 . S
C958 C959 1.396 . S
C958 C963 1.390 . S
C959 C953 1.465 . S
C959 C958 1.396 . S
C959 C960 1.399 . S
C960 H946 0.929 . S
C960 C959 1.399 . S
C960 C961 1.385 . S
C961 H947 0.931 . S
C961 C960 1.385 . S
C961 C962 1.389 . S
C962 C961 1.389 . S
C962 C963 1.387 . S
C963 H948 0.930 . S
C963 C958 1.390 . S
C963 C962 1.387 . S
H964 C976 0.930 . S
H965 C978 0.930 . S
H966 C979 0.930 . S
H967 C983 0.959 . S
H968 C983 0.959 . S
H969 C983 0.961 . S
H970 C984 0.960 . S
H971 C984 0.961 . S
H972 C984 0.959 . S
H973 C987 0.929 . S
H974 C988 0.931 . S
H975 C990 0.930 . S
C976 H964 0.930 . S
C976 C977 1.399 . S
C976 C981 1.399 . S
C977 C976 1.399 . S
C977 C978 1.376 . S
C978 H965 0.930 . S
C978 C977 1.376 . S
C978 C979 1.388 . S
C979 H966 0.930 . S
C979 C978 1.388 . S
C979 C980 1.390 . S
C980 C979 1.390 . S
C980 C981 1.394 . S
C980 C986 1.465 . S
C981 C976 1.399 . S
C981 C980 1.394 . S
C981 C982 1.516 . S
C982 C981 1.516 . S
C982 C983 1.502 . S
C982 C984 1.561 . S
C982 C985 1.526 . S
C983 H967 0.959 . S
C983 H968 0.959 . S
C983 H969 0.961 . S
C983 C982 1.502 . S
C984 H970 0.960 . S
C984 H971 0.961 . S
C984 H972 0.959 . S
C984 C982 1.561 . S
C985 C982 1.526 . S
C985 C986 1.396 . S
C985 C990 1.390 . S
C986 C980 1.465 . S
C986 C985 1.396 . S
C986 C987 1.399 . S
C987 H973 0.929 . S
C987 C986 1.399 . S
C987 C988 1.385 . S
C988 H974 0.931 . S
C988 C987 1.385 . S
C988 C989 1.389 . S
C989 C988 1.389 . S
C989 C990 1.387 . S
C990 H975 0.930 . S
C990 C985 1.390 . S
C990 C989 1.387 . S
H991 C1003 0.930 . S
H992 C1005 0.930 . S
H993 C1006 0.930 . S
H994 C1010 0.959 . S
H995 C1010 0.959 . S
H996 C1010 0.961 . S
H997 C1011 0.960 . S
H998 C1011 0.961 . S
H999 C1011 0.959 . S
H1000 C1014 0.929 . S
H1001 C1015 0.931 . S
H1002 C1017 0.930 . S
C1003 H991 0.930 . S
C1003 C1004 1.399 . S
C1003 C1008 1.399 . S
C1004 C1003 1.399 . S
C1004 C1005 1.376 . S
C1005 H992 0.930 . S
C1005 C1004 1.376 . S
C1005 C1006 1.388 . S
C1006 H993 0.930 . S
C1006 C1005 1.388 . S
C1006 C1007 1.390 . S
C1007 C1006 1.390 . S
C1007 C1008 1.394 . S
C1007 C1013 1.465 . S
C1008 C1003 1.399 . S
C1008 C1007 1.394 . S
C1008 C1009 1.516 . S
C1009 C1008 1.516 . S
C1009 C1010 1.502 . S
C1009 C1011 1.561 . S
C1009 C1012 1.526 . S
C1010 H994 0.959 . S
C1010 H995 0.959 . S
C1010 H996 0.961 . S
C1010 C1009 1.502 . S
C1011 H997 0.960 . S
C1011 H998 0.961 . S
C1011 H999 0.959 . S
C1011 C1009 1.561 . S
C1012 C1009 1.526 . S
C1012 C1013 1.396 . S
C1012 C1017 1.390 . S
C1013 C1007 1.465 . S
C1013 C1012 1.396 . S
C1013 C1014 1.399 . S
C1014 H1000 0.929 . S
C1014 C1013 1.399 . S
C1014 C1015 1.385 . S
C1015 H1001 0.931 . S
C1015 C1014 1.385 . S
C1015 C1016 1.389 . S
C1016 C1015 1.389 . S
C1016 C1017 1.387 . S
C1017 H1002 0.930 . S
C1017 C1012 1.390 . S
C1017 C1016 1.387 . S
H1018 C1030 0.930 . S
H1019 C1032 0.930 . S
H1020 C1033 0.930 . S
H1021 C1037 0.959 . S
H1022 C1037 0.959 . S
H1023 C1037 0.961 . S
H1024 C1038 0.960 . S
H1025 C1038 0.961 . S
H1026 C1038 0.959 . S
H1027 C1041 0.929 . S
H1028 C1042 0.931 . S
H1029 C1044 0.930 . S
C1030 H1018 0.930 . S
C1030 C1031 1.399 . S
C1030 C1035 1.399 . S
C1031 C1030 1.399 . S
C1031 C1032 1.376 . S
C1032 H1019 0.930 . S
C1032 C1031 1.376 . S
C1032 C1033 1.388 . S
C1033 H1020 0.930 . S
C1033 C1032 1.388 . S
C1033 C1034 1.390 . S
C1034 C1033 1.390 . S
C1034 C1035 1.394 . S
C1034 C1040 1.465 . S
C1035 C1030 1.399 . S
C1035 C1034 1.394 . S
C1035 C1036 1.516 . S
C1036 C1035 1.516 . S
C1036 C1037 1.502 . S
C1036 C1038 1.561 . S
C1036 C1039 1.526 . S
C1037 H1021 0.959 . S
C1037 H1022 0.959 . S
C1037 H1023 0.961 . S
C1037 C1036 1.502 . S
C1038 H1024 0.960 . S
C1038 H1025 0.961 . S
C1038 H1026 0.959 . S
C1038 C1036 1.561 . S
C1039 C1036 1.526 . S
C1039 C1040 1.396 . S
C1039 C1044 1.390 . S
C1040 C1034 1.465 . S
C1040 C1039 1.396 . S
C1040 C1041 1.399 . S
C1041 H1027 0.929 . S
C1041 C1040 1.399 . S
C1041 C1042 1.385 . S
C1042 H1028 0.931 . S
C1042 C1041 1.385 . S
C1042 C1043 1.389 . S
C1043 C1042 1.389 . S
C1043 C1044 1.387 . S
C1044 H1029 0.930 . S
C1044 C1039 1.390 . S
C1044 C1043 1.387 . S
H1045 C1057 0.930 . S
H1046 C1059 0.930 . S
H1047 C1060 0.930 . S
H1048 C1064 0.959 . S
H1049 C1064 0.959 . S
H1050 C1064 0.961 . S
H1051 C1065 0.960 . S
H1052 C1065 0.961 . S
H1053 C1065 0.959 . S
H1054 C1068 0.929 . S
H1055 C1069 0.931 . S
H1056 C1071 0.930 . S
C1057 H1045 0.930 . S
C1057 C1058 1.399 . S
C1057 C1062 1.399 . S
C1058 C1057 1.399 . S
C1058 C1059 1.376 . S
C1059 H1046 0.930 . S
C1059 C1058 1.376 . S
C1059 C1060 1.388 . S
C1060 H1047 0.930 . S
C1060 C1059 1.388 . S
C1060 C1061 1.390 . S
C1061 C1060 1.390 . S
C1061 C1062 1.394 . S
C1061 C1067 1.465 . S
C1062 C1057 1.399 . S
C1062 C1061 1.394 . S
C1062 C1063 1.516 . S
C1063 C1062 1.516 . S
C1063 C1064 1.502 . S
C1063 C1065 1.561 . S
C1063 C1066 1.526 . S
C1064 H1048 0.959 . S
C1064 H1049 0.959 . S
C1064 H1050 0.961 . S
C1064 C1063 1.502 . S
C1065 H1051 0.960 . S
C1065 H1052 0.961 . S
C1065 H1053 0.959 . S
C1065 C1063 1.561 . S
C1066 C1063 1.526 . S
C1066 C1067 1.396 . S
C1066 C1071 1.390 . S
C1067 C1061 1.465 . S
C1067 C1066 1.396 . S
C1067 C1068 1.399 . S
C1068 H1054 0.929 . S
C1068 C1067 1.399 . S
C1068 C1069 1.385 . S
C1069 H1055 0.931 . S
C1069 C1068 1.385 . S
C1069 C1070 1.389 . S
C1070 C1069 1.389 . S
C1070 C1071 1.387 . S
C1071 H1056 0.930 . S
C1071 C1066 1.390 . S
C1071 C1070 1.387 . S
H1072 C1084 0.930 . S
H1073 C1086 0.930 . S
H1074 C1087 0.930 . S
H1075 C1091 0.959 . S
H1076 C1091 0.959 . S
H1077 C1091 0.961 . S
H1078 C1092 0.960 . S
H1079 C1092 0.961 . S
H1080 C1092 0.959 . S
H1081 C1095 0.929 . S
H1082 C1096 0.931 . S
H1083 C1098 0.930 . S
C1084 H1072 0.930 . S
C1084 C1085 1.399 . S
C1084 C1089 1.399 . S
C1085 C1084 1.399 . S
C1085 C1086 1.376 . S
C1086 H1073 0.930 . S
C1086 C1085 1.376 . S
C1086 C1087 1.388 . S
C1087 H1074 0.930 . S
C1087 C1086 1.388 . S
C1087 C1088 1.390 . S
C1088 C1087 1.390 . S
C1088 C1089 1.394 . S
C1088 C1094 1.465 . S
C1089 C1084 1.399 . S
C1089 C1088 1.394 . S
C1089 C1090 1.516 . S
C1090 C1089 1.516 . S
C1090 C1091 1.502 . S
C1090 C1092 1.561 . S
C1090 C1093 1.526 . S
C1091 H1075 0.959 . S
C1091 H1076 0.959 . S
C1091 H1077 0.961 . S
C1091 C1090 1.502 . S
C1092 H1078 0.960 . S
C1092 H1079 0.961 . S
C1092 H1080 0.959 . S
C1092 C1090 1.561 . S
C1093 C1090 1.526 . S
C1093 C1094 1.396 . S
C1093 C1098 1.390 . S
C1094 C1088 1.465 . S
C1094 C1093 1.396 . S
C1094 C1095 1.399 . S
C1095 H1081 0.929 . S
C1095 C1094 1.399 . S
C1095 C1096 1.385 . S
C1096 H1082 0.931 . S
C1096 C1095 1.385 . S
C1096 C1097 1.389 . S
C1097 C1096 1.389 . S
C1097 C1098 1.387 . S
C1098 H1083 0.930 . S
C1098 C1093 1.390 . S
C1098 C1097 1.387 . S
H1099 C1111 0.930 . S
H1100 C1113 0.930 . S
H1101 C1114 0.930 . S
H1102 C1118 0.959 . S
H1103 C1118 0.959 . S
H1104 C1118 0.961 . S
H1105 C1119 0.960 . S
H1106 C1119 0.961 . S
H1107 C1119 0.959 . S
H1108 C1122 0.929 . S
H1109 C1123 0.931 . S
H1110 C1125 0.930 . S
C1111 H1099 0.930 . S
C1111 C1112 1.399 . S
C1111 C1116 1.399 . S
C1112 C1111 1.399 . S
C1112 C1113 1.376 . S
C1113 H1100 0.930 . S
C1113 C1112 1.376 . S
C1113 C1114 1.388 . S
C1114 H1101 0.930 . S
C1114 C1113 1.388 . S
C1114 C1115 1.390 . S
C1115 C1114 1.390 . S
C1115 C1116 1.394 . S
C1115 C1121 1.465 . S
C1116 C1111 1.399 . S
C1116 C1115 1.394 . S
C1116 C1117 1.516 . S
C1117 C1116 1.516 . S
C1117 C1118 1.502 . S
C1117 C1119 1.561 . S
C1117 C1120 1.526 . S
C1118 H1102 0.959 . S
C1118 H1103 0.959 . S
C1118 H1104 0.961 . S
C1118 C1117 1.502 . S
C1119 H1105 0.960 . S
C1119 H1106 0.961 . S
C1119 H1107 0.959 . S
C1119 C1117 1.561 . S
C1120 C1117 1.526 . S
C1120 C1121 1.396 . S
C1120 C1125 1.390 . S
C1121 C1115 1.465 . S
C1121 C1120 1.396 . S
C1121 C1122 1.399 . S
C1122 H1108 0.929 . S
C1122 C1121 1.399 . S
C1122 C1123 1.385 . S
C1123 H1109 0.931 . S
C1123 C1122 1.385 . S
C1123 C1124 1.389 . S
C1124 C1123 1.389 . S
C1124 C1125 1.387 . S
C1125 H1110 0.930 . S
C1125 C1120 1.390 . S
C1125 C1124 1.387 . S
H1126 C1138 0.930 . S
H1127 C1140 0.930 . S
H1128 C1141 0.930 . S
H1129 C1145 0.959 . S
H1130 C1145 0.959 . S
H1131 C1145 0.961 . S
H1132 C1146 0.960 . S
H1133 C1146 0.961 . S
H1134 C1146 0.959 . S
H1135 C1149 0.929 . S
H1136 C1150 0.931 . S
H1137 C1152 0.930 . S
C1138 H1126 0.930 . S
C1138 C1139 1.399 . S
C1138 C1143 1.399 . S
C1139 C1138 1.399 . S
C1139 C1140 1.376 . S
C1140 H1127 0.930 . S
C1140 C1139 1.376 . S
C1140 C1141 1.388 . S
C1141 H1128 0.930 . S
C1141 C1140 1.388 . S
C1141 C1142 1.390 . S
C1142 C1141 1.390 . S
C1142 C1143 1.394 . S
C1142 C1148 1.465 . S
C1143 C1138 1.399 . S
C1143 C1142 1.394 . S
C1143 C1144 1.516 . S
C1144 C1143 1.516 . S
C1144 C1145 1.502 . S
C1144 C1146 1.561 . S
C1144 C1147 1.526 . S
C1145 H1129 0.959 . S
C1145 H1130 0.959 . S
C1145 H1131 0.961 . S
C1145 C1144 1.502 . S
C1146 H1132 0.960 . S
C1146 H1133 0.961 . S
C1146 H1134 0.959 . S
C1146 C1144 1.561 . S
C1147 C1144 1.526 . S
C1147 C1148 1.396 . S
C1147 C1152 1.390 . S
C1148 C1142 1.465 . S
C1148 C1147 1.396 . S
C1148 C1149 1.399 . S
C1149 H1135 0.929 . S
C1149 C1148 1.399 . S
C1149 C1150 1.385 . S
C1150 H1136 0.931 . S
C1150 C1149 1.385 . S
C1150 C1151 1.389 . S
C1151 C1150 1.389 . S
C1151 C1152 1.387 . S
C1152 H1137 0.930 . S
C1152 C1147 1.390 . S
C1152 C1151 1.387 . S
H1153 C1165 0.930 . S
H1154 C1167 0.930 . S
H1155 C1168 0.930 . S
H1156 C1172 0.959 . S
H1157 C1172 0.959 . S
H1158 C1172 0.961 . S
H1159 C1173 0.960 . S
H1160 C1173 0.961 . S
H1161 C1173 0.959 . S
H1162 C1176 0.929 . S
H1163 C1177 0.931 . S
H1164 C1179 0.930 . S
C1165 H1153 0.930 . S
C1165 C1166 1.399 . S
C1165 C1170 1.399 . S
C1166 C1165 1.399 . S
C1166 C1167 1.376 . S
C1167 H1154 0.930 . S
C1167 C1166 1.376 . S
C1167 C1168 1.388 . S
C1168 H1155 0.930 . S
C1168 C1167 1.388 . S
C1168 C1169 1.390 . S
C1169 C1168 1.390 . S
C1169 C1170 1.394 . S
C1169 C1175 1.465 . S
C1170 C1165 1.399 . S
C1170 C1169 1.394 . S
C1170 C1171 1.516 . S
C1171 C1170 1.516 . S
C1171 C1172 1.502 . S
C1171 C1173 1.561 . S
C1171 C1174 1.526 . S
C1172 H1156 0.959 . S
C1172 H1157 0.959 . S
C1172 H1158 0.961 . S
C1172 C1171 1.502 . S
C1173 H1159 0.960 . S
C1173 H1160 0.961 . S
C1173 H1161 0.959 . S
C1173 C1171 1.561 . S
C1174 C1171 1.526 . S
C1174 C1175 1.396 . S
C1174 C1179 1.390 . S
C1175 C1169 1.465 . S
C1175 C1174 1.396 . S
C1175 C1176 1.399 . S
C1176 H1162 0.929 . S
C1176 C1175 1.399 . S
C1176 C1177 1.385 . S
C1177 H1163 0.931 . S
C1177 C1176 1.385 . S
C1177 C1178 1.389 . S
C1178 C1177 1.389 . S
C1178 C1179 1.387 . S
C1179 H1164 0.930 . S
C1179 C1174 1.390 . S
C1179 C1178 1.387 . S
H1180 C1192 0.930 . S
H1181 C1194 0.930 . S
H1182 C1195 0.930 . S
H1183 C1199 0.959 . S
H1184 C1199 0.959 . S
H1185 C1199 0.961 . S
H1186 C1200 0.960 . S
H1187 C1200 0.961 . S
H1188 C1200 0.959 . S
H1189 C1203 0.929 . S
H1190 C1204 0.931 . S
H1191 C1206 0.930 . S
C1192 H1180 0.930 . S
C1192 C1193 1.399 . S
C1192 C1197 1.399 . S
C1193 C1192 1.399 . S
C1193 C1194 1.376 . S
C1194 H1181 0.930 . S
C1194 C1193 1.376 . S
C1194 C1195 1.388 . S
C1195 H1182 0.930 . S
C1195 C1194 1.388 . S
C1195 C1196 1.390 . S
C1196 C1195 1.390 . S
C1196 C1197 1.394 . S
C1196 C1202 1.465 . S
C1197 C1192 1.399 . S
C1197 C1196 1.394 . S
C1197 C1198 1.516 . S
C1198 C1197 1.516 . S
C1198 C1199 1.502 . S
C1198 C1200 1.561 . S
C1198 C1201 1.526 . S
C1199 H1183 0.959 . S
C1199 H1184 0.959 . S
C1199 H1185 0.961 . S
C1199 C1198 1.502 . S
C1200 H1186 0.960 . S
C1200 H1187 0.961 . S
C1200 H1188 0.959 . S
C1200 C1198 1.561 . S
C1201 C1198 1.526 . S
C1201 C1202 1.396 . S
C1201 C1206 1.390 . S
C1202 C1196 1.465 . S
C1202 C1201 1.396 . S
C1202 C1203 1.399 . S
C1203 H1189 0.929 . S
C1203 C1202 1.399 . S
C1203 C1204 1.385 . S
C1204 H1190 0.931 . S
C1204 C1203 1.385 . S
C1204 C1205 1.389 . S
C1205 C1204 1.389 . S
C1205 C1206 1.387 . S
C1206 H1191 0.930 . S
C1206 C1201 1.390 . S
C1206 C1205 1.387 . S
H1207 C1219 0.930 . S
H1208 C1221 0.930 . S
H1209 C1222 0.930 . S
H1210 C1226 0.959 . S
H1211 C1226 0.959 . S
H1212 C1226 0.961 . S
H1213 C1227 0.960 . S
H1214 C1227 0.961 . S
H1215 C1227 0.959 . S
H1216 C1230 0.929 . S
H1217 C1231 0.931 . S
H1218 C1233 0.930 . S
C1219 H1207 0.930 . S
C1219 C1220 1.399 . S
C1219 C1224 1.399 . S
C1220 C1219 1.399 . S
C1220 C1221 1.376 . S
C1221 H1208 0.930 . S
C1221 C1220 1.376 . S
C1221 C1222 1.388 . S
C1222 H1209 0.930 . S
C1222 C1221 1.388 . S
C1222 C1223 1.390 . S
C1223 C1222 1.390 . S
C1223 C1224 1.394 . S
C1223 C1229 1.465 . S
C1224 C1219 1.399 . S
C1224 C1223 1.394 . S
C1224 C1225 1.516 . S
C1225 C1224 1.516 . S
C1225 C1226 1.502 . S
C1225 C1227 1.561 . S
C1225 C1228 1.526 . S
C1226 H1210 0.959 . S
C1226 H1211 0.959 . S
C1226 H1212 0.961 . S
C1226 C1225 1.502 . S
C1227 H1213 0.960 . S
C1227 H1214 0.961 . S
C1227 H1215 0.959 . S
C1227 C1225 1.561 . S
C1228 C1225 1.526 . S
C1228 C1229 1.396 . S
C1228 C1233 1.390 . S
C1229 C1223 1.465 . S
C1229 C1228 1.396 . S
C1229 C1230 1.399 . S
C1230 H1216 0.929 . S
C1230 C1229 1.399 . S
C1230 C1231 1.385 . S
C1231 H1217 0.931 . S
C1231 C1230 1.385 . S
C1231 C1232 1.389 . S
C1232 C1231 1.389 . S
C1232 C1233 1.387 . S
C1233 H1218 0.930 . S
C1233 C1228 1.390 . S
C1233 C1232 1.387 . S
H1234 C1246 0.930 . S
H1235 C1248 0.930 . S
H1236 C1249 0.930 . S
H1237 C1253 0.959 . S
H1238 C1253 0.959 . S
H1239 C1253 0.961 . S
H1240 C1254 0.960 . S
H1241 C1254 0.961 . S
H1242 C1254 0.959 . S
H1243 C1257 0.929 . S
H1244 C1258 0.931 . S
H1245 C1260 0.930 . S
C1246 H1234 0.930 . S
C1246 C1247 1.399 . S
C1246 C1251 1.399 . S
C1247 C1246 1.399 . S
C1247 C1248 1.376 . S
C1248 H1235 0.930 . S
C1248 C1247 1.376 . S
C1248 C1249 1.388 . S
C1249 H1236 0.930 . S
C1249 C1248 1.388 . S
C1249 C1250 1.390 . S
C1250 C1249 1.390 . S
C1250 C1251 1.394 . S
C1250 C1256 1.465 . S
C1251 C1246 1.399 . S
C1251 C1250 1.394 . S
C1251 C1252 1.516 . S
C1252 C1251 1.516 . S
C1252 C1253 1.502 . S
C1252 C1254 1.561 . S
C1252 C1255 1.526 . S
C1253 H1237 0.959 . S
C1253 H1238 0.959 . S
C1253 H1239 0.961 . S
C1253 C1252 1.502 . S
C1254 H1240 0.960 . S
C1254 H1241 0.961 . S
C1254 H1242 0.959 . S
C1254 C1252 1.561 . S
C1255 C1252 1.526 . S
C1255 C1256 1.396 . S
C1255 C1260 1.390 . S
C1256 C1250 1.465 . S
C1256 C1255 1.396 . S
C1256 C1257 1.399 . S
C1257 H1243 0.929 . S
C1257 C1256 1.399 . S
C1257 C1258 1.385 . S
C1258 H1244 0.931 . S
C1258 C1257 1.385 . S
C1258 C1259 1.389 . S
C1259 C1258 1.389 . S
C1259 C1260 1.387 . S
C1260 H1245 0.930 . S
C1260 C1255 1.390 . S
C1260 C1259 1.387 . S
H1261 C1273 0.930 . S
H1262 C1275 0.930 . S
H1263 C1276 0.930 . S
H1264 C1280 0.959 . S
H1265 C1280 0.959 . S
H1266 C1280 0.961 . S
H1267 C1281 0.960 . S
H1268 C1281 0.961 . S
H1269 C1281 0.959 . S
H1270 C1284 0.929 . S
H1271 C1285 0.931 . S
H1272 C1287 0.930 . S
C1273 H1261 0.930 . S
C1273 C1274 1.399 . S
C1273 C1278 1.399 . S
C1274 C1273 1.399 . S
C1274 C1275 1.376 . S
C1275 H1262 0.930 . S
C1275 C1274 1.376 . S
C1275 C1276 1.388 . S
C1276 H1263 0.930 . S
C1276 C1275 1.388 . S
C1276 C1277 1.390 . S
C1277 C1276 1.390 . S
C1277 C1278 1.394 . S
C1277 C1283 1.465 . S
C1278 C1273 1.399 . S
C1278 C1277 1.394 . S
C1278 C1279 1.516 . S
C1279 C1278 1.516 . S
C1279 C1280 1.502 . S
C1279 C1281 1.561 . S
C1279 C1282 1.526 . S
C1280 H1264 0.959 . S
C1280 H1265 0.959 . S
C1280 H1266 0.961 . S
C1280 C1279 1.502 . S
C1281 H1267 0.960 . S
C1281 H1268 0.961 . S
C1281 H1269 0.959 . S
C1281 C1279 1.561 . S
C1282 C1279 1.526 . S
C1282 C1283 1.396 . S
C1282 C1287 1.390 . S
C1283 C1277 1.465 . S
C1283 C1282 1.396 . S
C1283 C1284 1.399 . S
C1284 H1270 0.929 . S
C1284 C1283 1.399 . S
C1284 C1285 1.385 . S
C1285 H1271 0.931 . S
C1285 C1284 1.385 . S
C1285 C1286 1.389 . S
C1286 C1285 1.389 . S
C1286 C1287 1.387 . S
C1287 H1272 0.930 . S
C1287 C1282 1.390 . S
C1287 C1286 1.387 . S
C653 C1 1.094 . S
C665 C487 1.308 . S
C680 C80 0.900 . S
C692 C536 1.000 . S
C719 C562 2.451 . S
C707 C140 2.462 . S
C734 C211 2.335 . S
C746 C610 2.350 . S
C773 C522 2.496 . S
C761 C31 2.240 . S
C800 C490 0.889 . S
C788 C61 0.873 . S
C827 C611 1.872 . S
C815 C151 1.910 . S
C854 C579 1.584 . S
C842 C200 1.620 . S
C869 C20 1.617 . S
C881 C607 1.746 . S
C908 C539 2.335 . S
C896 C121 2.393 . S
C923 C181 2.275 . S
C935 C491 2.338 . S
C950 C91 0.843 . S
C962 C576 0.850 . S
C989 C496 1.280 . S
C977 C260 1.257 . S
C1004 C320 1.005 . S
C1016 C527 0.928 . S
C1031 C361 2.434 . S
C1043 C571 2.462 . S
C1058 C451 2.355 . S
C1070 C619 2.326 . S
C1085 C271 2.284 . S
C1097 C531 2.501 . S
C1124 C499 0.847 . S
C1112 C301 0.871 . S
C1151 C602 1.865 . S
C1139 C380 1.909 . S
C1178 C570 1.596 . S
C1166 C440 1.620 . S
C1193 C241 1.626 . S
C1205 C616 1.738 . S
C1232 C530 2.314 . S
C1220 C391 2.386 . S
C1259 C482 2.338 . S
C1247 C421 2.303 . S
C1274 C331 0.864 . S
C1286 C567 0.827 . S
