# Generated by pormake.
# Topology pto, (3,4)-cn, num edge types: 1
# Building blocks:
#     Node 0, Type 0, BuildingBlock: QEWDON_clean_linker_0, # of connection points: 3
#     Node 1, Type 0, BuildingBlock: QEWDON_clean_linker_0, # of connection points: 3
#     Node 2, Type 0, BuildingBlock: QEWDON_clean_linker_0, # of connection points: 3
#     Node 3, Type 0, BuildingBlock: QEWDON_clean_linker_0, # of connection points: 3
#     Node 4, Type 0, BuildingBlock: QEWDON_clean_linker_0, # of connection points: 3
#     Node 5, Type 0, BuildingBlock: QEWDON_clean_linker_0, # of connection points: 3
#     Node 6, Type 0, BuildingBlock: QEWDON_clean_linker_0, # of connection points: 3
#     Node 7, Type 0, BuildingBlock: QEWDON_clean_linker_0, # of connection points: 3
#     Node 8, Type 1, BuildingBlock: KOZSID_clean_sbu_0, # of connection points: 4
#     Node 9, Type 1, BuildingBlock: KOZSID_clean_sbu_0, # of connection points: 4
#     Node 10, Type 1, BuildingBlock: KOZSID_clean_sbu_0, # of connection points: 4
#     Node 11, Type 1, BuildingBlock: KOZSID_clean_sbu_0, # of connection points: 4
#     Node 12, Type 1, BuildingBlock: KOZSID_clean_sbu_0, # of connection points: 4
#     Node 13, Type 1, BuildingBlock: KOZSID_clean_sbu_0, # of connection points: 4
#     Edge 14, Type (0, 1), BuildingBlock: ZUJKAS_clean_linker_0, # of connection points: 2
#     Edge 15, Type (0, 1), BuildingBlock: ZUJKAS_clean_linker_0, # of connection points: 2
#     Edge 16, Type (0, 1), BuildingBlock: ZUJKAS_clean_linker_0, # of connection points: 2
#     Edge 17, Type (0, 1), BuildingBlock: ZUJKAS_clean_linker_0, # of connection points: 2
#     Edge 18, Type (0, 1), BuildingBlock: ZUJKAS_clean_linker_0, # of connection points: 2
#     Edge 19, Type (0, 1), BuildingBlock: ZUJKAS_clean_linker_0, # of connection points: 2
#     Edge 20, Type (0, 1), BuildingBlock: ZUJKAS_clean_linker_0, # of connection points: 2
#     Edge 21, Type (0, 1), BuildingBlock: ZUJKAS_clean_linker_0, # of connection points: 2
#     Edge 22, Type (0, 1), BuildingBlock: ZUJKAS_clean_linker_0, # of connection points: 2
#     Edge 23, Type (0, 1), BuildingBlock: ZUJKAS_clean_linker_0, # of connection points: 2
#     Edge 24, Type (0, 1), BuildingBlock: ZUJKAS_clean_linker_0, # of connection points: 2
#     Edge 25, Type (0, 1), BuildingBlock: ZUJKAS_clean_linker_0, # of connection points: 2
#     Edge 26, Type (0, 1), BuildingBlock: ZUJKAS_clean_linker_0, # of connection points: 2
#     Edge 27, Type (0, 1), BuildingBlock: ZUJKAS_clean_linker_0, # of connection points: 2
#     Edge 28, Type (0, 1), BuildingBlock: ZUJKAS_clean_linker_0, # of connection points: 2
#     Edge 29, Type (0, 1), BuildingBlock: ZUJKAS_clean_linker_0, # of connection points: 2
#     Edge 30, Type (0, 1), BuildingBlock: ZUJKAS_clean_linker_0, # of connection points: 2
#     Edge 31, Type (0, 1), BuildingBlock: ZUJKAS_clean_linker_0, # of connection points: 2
#     Edge 32, Type (0, 1), BuildingBlock: ZUJKAS_clean_linker_0, # of connection points: 2
#     Edge 33, Type (0, 1), BuildingBlock: ZUJKAS_clean_linker_0, # of connection points: 2
#     Edge 34, Type (0, 1), BuildingBlock: ZUJKAS_clean_linker_0, # of connection points: 2
#     Edge 35, Type (0, 1), BuildingBlock: ZUJKAS_clean_linker_0, # of connection points: 2
#     Edge 36, Type (0, 1), BuildingBlock: ZUJKAS_clean_linker_0, # of connection points: 2
#     Edge 37, Type (0, 1), BuildingBlock: ZUJKAS_clean_linker_0, # of connection points: 2
# Relax obj value: 0.016
# Max RMSD: 0.202
# Mean RMSD: 0.078
data_MOF--net-pto--node1-KOZSID_clean_sbu_0--node2-QEWDON_clean_linker_0--edge1-ZUJKAS_clean_linker_0
_symmetry_space_group_name_H-M    P1
_symmetry_Int_Tables_number       1
_symmetry_cell_setting            triclinic
loop_
_symmetry_equiv_pos_as_xyz
'x, y, z'
_cell_length_a     43.162379
_cell_length_b     65.828619
_cell_length_c     59.584832
_cell_angle_alpha  93.054675
_cell_angle_beta   110.33394
_cell_angle_gamma 102.6386
loop_
_atom_site_label
_atom_site_type_symbol
_atom_site_fract_x
_atom_site_fract_y
_atom_site_fract_z
_atom_type_partial_charge
H0 H 0.25486 0.30085 0.29317 0.0
C1 C 0.25305 0.28533 0.29857 0.0
C2 C 0.25707 0.26897 0.28439 0.0
C3 C 0.24812 0.28203 0.32035 0.0
H4 H 0.25891 0.23635 0.28196 0.0
C5 C 0.25501 0.24902 0.29214 0.0
C6 C 0.24891 0.24529 0.31339 0.0
C7 C 0.24534 0.26186 0.32728 0.0
C8 C 0.24883 0.29992 0.337 0.0
H9 H 0.24154 0.25923 0.34405 0.0
C10 C 0.23134 0.31534 0.32836 0.0
C11 C 0.23313 0.33246 0.34441 0.0
C12 C 0.26806 0.30186 0.36188 0.0
H13 H 0.28235 0.29051 0.36904 0.0
C14 C 0.26964 0.31867 0.37781 0.0
H15 H 0.21653 0.31409 0.30924 0.0
C16 C 0.25233 0.33387 0.3692 0.0
H17 H 0.25371 0.34666 0.38201 0.0
H18 H 0.28445 0.31995 0.39691 0.0
H19 H 0.31216 0.79349 0.69598 0.0
C20 C 0.29752 0.77721 0.69103 0.0
C21 C 0.31173 0.76147 0.70249 0.0
C22 C 0.2637 0.77219 0.67436 0.0
H23 H 0.30213 0.72855 0.70633 0.0
C24 C 0.29199 0.74053 0.69656 0.0
C25 C 0.25814 0.73527 0.67998 0.0
C26 C 0.24439 0.75118 0.66872 0.0
C27 C 0.24708 0.78904 0.66492 0.0
H28 H 0.21818 0.74732 0.65602 0.0
C29 C 0.26225 0.80482 0.65419 0.0
C30 C 0.24609 0.82077 0.64547 0.0
C31 C 0.21576 0.78944 0.66702 0.0
H32 H 0.20377 0.77761 0.67546 0.0
C33 C 0.19983 0.80527 0.65858 0.0
H34 H 0.28642 0.80461 0.65254 0.0
C35 C 0.21479 0.82082 0.64784 0.0
H36 H 0.20151 0.83269 0.64099 0.0
H37 H 0.17572 0.80544 0.66027 0.0
H38 H 0.91256 0.82199 0.43332 0.0
C39 C 0.90291 0.82437 0.41452 0.0
C40 C 0.91349 0.81484 0.39775 0.0
C41 C 0.87847 0.83604 0.40686 0.0
H42 H 0.90703 0.80976 0.36014 0.0
C43 C 0.89972 0.8175 0.37331 0.0
C44 C 0.87496 0.82893 0.36539 0.0
C45 C 0.86467 0.83835 0.38236 0.0
C46 C 0.86346 0.84303 0.42368 0.0
H47 H 0.84464 0.84654 0.37638 0.0
C48 C 0.88035 0.86135 0.44059 0.0
C49 C 0.86541 0.86772 0.45648 0.0
C50 C 0.83171 0.83109 0.42266 0.0
H51 H 0.81843 0.81695 0.40969 0.0
C52 C 0.81693 0.83725 0.43842 0.0
H53 H 0.9049 0.87054 0.44135 0.0
C54 C 0.83358 0.85542 0.4552 0.0
H55 H 0.82117 0.86008 0.46688 0.0
H56 H 0.79238 0.82798 0.43751 0.0
H57 H 0.85137 0.33877 0.94072 0.0
C58 C 0.85388 0.32624 0.92942 0.0
C59 C 0.85873 0.33016 0.90775 0.0
C60 C 0.85331 0.30632 0.9369 0.0
H61 H 0.86676 0.31681 0.87698 0.0
C62 C 0.86254 0.31384 0.89355 0.0
C63 C 0.86197 0.29389 0.90079 0.0
C64 C 0.85724 0.29021 0.92249 0.0
C65 C 0.85064 0.3025 0.96045 0.0
H66 H 0.85732 0.27494 0.92846 0.0
C67 C 0.82174 0.3045 0.96532 0.0
C68 C 0.81858 0.29962 0.9873 0.0
C69 C 0.87678 0.29609 0.97788 0.0
H70 H 0.89925 0.29449 0.97444 0.0
C71 C 0.8742 0.29179 0.99991 0.0
H72 H 0.80123 0.309 0.95164 0.0
C73 C 0.8453 0.29346 0.00461 0.0
H74 H 0.84388 0.28996 0.02184 0.0
H75 H 0.89456 0.28698 0.01333 0.0
H76 H 0.99399 0.81428 0.84606 0.0
C77 C 0.97496 0.81472 0.85397 0.0
C78 C 0.95322 0.79589 0.85521 0.0
C79 C 0.97224 0.83422 0.86266 0.0
H80 H 0.91214 0.78237 0.86684 0.0
C81 C 0.92867 0.79683 0.86547 0.0
C82 C 0.92584 0.81624 0.87456 0.0
C83 C 0.94743 0.83494 0.87268 0.0
C84 C 0.99679 0.85371 0.86247 0.0
H85 H 0.94612 0.85 0.88006 0.0
C86 C 0.98542 0.87005 0.85047 0.0
C87 C 0.00912 0.88813 0.84941 0.0
C88 C 0.03197 0.85572 0.87389 0.0
H89 H 0.0412 0.84333 0.88328 0.0
C90 C 0.0555 0.87381 0.87344 0.0
H91 H 0.95827 0.86827 0.84121 0.0
C92 C 0.04425 0.8899 0.86127 0.0
H93 H 0.06308 0.90377 0.86119 0.0
H94 H 0.08258 0.87532 0.88244 0.0
H95 H 0.87089 0.32522 0.44145 0.0
C96 C 0.84555 0.32394 0.42828 0.0
C97 C 0.83639 0.34204 0.41942 0.0
C98 C 0.82289 0.304 0.41897 0.0
H99 H 0.79739 0.35361 0.39372 0.0
C100 C 0.80385 0.33993 0.40162 0.0
C101 C 0.78088 0.3201 0.39223 0.0
C102 C 0.79051 0.30226 0.4013 0.0
C103 C 0.83437 0.2847 0.42502 0.0
H104 H 0.7732 0.28681 0.39407 0.0
C105 C 0.84665 0.28057 0.44905 0.0
C106 C 0.85684 0.26184 0.45419 0.0
C107 C 0.83277 0.27017 0.40626 0.0
H108 H 0.82361 0.27312 0.38766 0.0
C109 C 0.84316 0.25179 0.41128 0.0
H110 H 0.8479 0.29175 0.46356 0.0
C111 C 0.855 0.24758 0.43502 0.0
H112 H 0.86201 0.23288 0.4383 0.0
H113 H 0.84175 0.24066 0.39669 0.0
H114 H 0.25406 0.25998 0.71665 0.0
C115 C 0.23567 0.26935 0.71409 0.0
C116 C 0.22553 0.27441 0.73326 0.0
C117 C 0.22322 0.27709 0.692 0.0
H118 H 0.19603 0.29196 0.74515 0.0
C119 C 0.20251 0.28711 0.73003 0.0
C120 C 0.18991 0.29504 0.70818 0.0
C121 C 0.20015 0.28979 0.68918 0.0
C122 C 0.23606 0.27326 0.67244 0.0
H123 H 0.19039 0.2958 0.67222 0.0
C124 C 0.23906 0.25314 0.66568 0.0
C125 C 0.25147 0.24978 0.64717 0.0
C126 C 0.24579 0.28999 0.66056 0.0
H127 H 0.24429 0.30569 0.66562 0.0
C128 C 0.25804 0.28674 0.64226 0.0
H129 H 0.23172 0.24016 0.67477 0.0
C130 C 0.26083 0.26681 0.63554 0.0
H131 H 0.26989 0.26468 0.62097 0.0
H132 H 0.26538 0.29972 0.6332 0.0
H133 H 0.28592 0.81854 0.20237 0.0
C134 C 0.27875 0.80369 0.20862 0.0
C135 C 0.27484 0.80352 0.23104 0.0
C136 C 0.27126 0.78474 0.19351 0.0
H137 H 0.26105 0.78399 0.25569 0.0
C138 C 0.26395 0.78419 0.23833 0.0
C139 C 0.25613 0.76514 0.22334 0.0
C140 C 0.26027 0.7655 0.20099 0.0
C141 C 0.26971 0.78523 0.16846 0.0
H142 H 0.25314 0.75097 0.18886 0.0
C143 C 0.29734 0.78308 0.16202 0.0
C144 C 0.29518 0.78357 0.13788 0.0
C145 C 0.23996 0.78789 0.15083 0.0
H146 H 0.2185 0.78959 0.15558 0.0
C147 C 0.23765 0.78838 0.12696 0.0
H148 H 0.32023 0.78091 0.17569 0.0
C149 C 0.26501 0.78626 0.12049 0.0
H150 H 0.26274 0.7871 0.1019 0.0
H151 H 0.21465 0.79052 0.11344 0.0
C152 C 0.12727 0.59753 0.35333 0.0
C153 C 0.16154 0.60748 0.36577 0.0
C154 C 0.16932 0.60314 0.38892 0.0
C155 C 0.13951 0.59091 0.38935 0.0
N156 N 0.11312 0.58702 0.3678 0.0
Co157 Co 0.06497 0.57036 0.3605 0.0
N158 N 0.07652 0.56407 0.39461 0.0
C159 C 0.10687 0.57106 0.41323 0.0
C160 C 0.10729 0.56337 0.43425 0.0
C161 C 0.0755 0.55038 0.42861 0.0
C162 C 0.05756 0.5509 0.40439 0.0
N163 N 0.01689 0.55363 0.35321 0.0
C164 C 0.00364 0.54158 0.36707 0.0
C165 C 0.96933 0.53166 0.35471 0.0
C166 C 0.96071 0.53744 0.33215 0.0
C167 C 0.9901 0.55043 0.33197 0.0
N168 N 0.0534 0.57656 0.32634 0.0
C169 C 0.02263 0.57019 0.30801 0.0
C170 C 0.02251 0.57687 0.28661 0.0
C171 C 0.0551 0.58834 0.29155 0.0
C172 C 0.07323 0.58805 0.31584 0.0
N173 N 0.07684 0.54442 0.35162 0.0
C174 C 0.09235 0.50664 0.34045 0.0
C175 C 0.06306 0.51179 0.32536 0.0
C176 C 0.05584 0.53061 0.33125 0.0
C177 C 0.11404 0.52094 0.36096 0.0
C178 C 0.1059 0.53956 0.36613 0.0
N179 N 0.05306 0.59641 0.36942 0.0
C180 C 0.0156 0.61983 0.36042 0.0
C181 C 0.03723 0.63408 0.38098 0.0
C182 C 0.06667 0.62898 0.39586 0.0
C183 C 0.074 0.61025 0.38981 0.0
C184 C 0.02391 0.60131 0.35505 0.0
H185 H 0.09695 0.60749 0.40183 0.0
H186 H 0.00637 0.59129 0.33909 0.0
H187 H 0.03293 0.53352 0.31921 0.0
H188 H 0.12339 0.54972 0.38208 0.0
C189 C 0.1353 0.58328 0.40983 0.0
C190 C 0.10902 0.59929 0.32811 0.0
C191 C 0.02321 0.5378 0.39119 0.0
C192 C 0.99414 0.55824 0.31155 0.0
H193 H 0.17901 0.61714 0.35892 0.0
H194 H 0.19369 0.60853 0.40378 0.0
H195 H 0.12857 0.56623 0.45136 0.0
H196 H 0.06673 0.5411 0.44071 0.0
H197 H 0.9525 0.52079 0.36098 0.0
H198 H 0.93632 0.53208 0.31731 0.0
H199 H 0.00121 0.57391 0.2695 0.0
H200 H 0.06442 0.59619 0.27878 0.0
H201 H 0.04534 0.50115 0.30934 0.0
H202 H 0.1374 0.51785 0.37298 0.0
H203 H 0.99212 0.62285 0.34851 0.0
H204 H 0.08442 0.63957 0.4119 0.0
C205 C 0.08675 0.555 0.76153 0.0
C206 C 0.12127 0.56449 0.77375 0.0
C207 C 0.12913 0.56022 0.79692 0.0
C208 C 0.09913 0.54852 0.79758 0.0
N209 N 0.07251 0.54488 0.77617 0.0
Co210 Co 0.02399 0.52919 0.76928 0.0
N211 N 0.03544 0.52357 0.80367 0.0
C212 C 0.06633 0.52972 0.82191 0.0
C213 C 0.06646 0.52313 0.84335 0.0
C214 C 0.03377 0.51192 0.83854 0.0
C215 C 0.01551 0.51238 0.81432 0.0
N216 N 0.97546 0.51358 0.76245 0.0
C217 C 0.96129 0.50335 0.77705 0.0
C218 C 0.9266 0.49434 0.7651 0.0
C219 C 0.91859 0.49883 0.74199 0.0
C220 C 0.94869 0.5103 0.74118 0.0
N221 N 0.01256 0.53472 0.73489 0.0
C222 C 0.98176 0.52836 0.71659 0.0
C223 C 0.98179 0.5346 0.69503 0.0
C224 C 0.01451 0.54578 0.69983 0.0
C225 C 0.03256 0.54575 0.72418 0.0
N226 N 0.03437 0.50253 0.76077 0.0
C227 C 0.05019 0.46518 0.74828 0.0
C228 C 0.02024 0.47013 0.73398 0.0
C229 C 0.01283 0.48868 0.74056 0.0
C230 C 0.07188 0.47916 0.76905 0.0
C231 C 0.06355 0.49753 0.7749 0.0
N232 N 0.0137 0.55593 0.77773 0.0
C233 C 0.97889 0.58086 0.76804 0.0
C234 C 0.00097 0.59479 0.78877 0.0
C235 C 0.02916 0.58873 0.80406 0.0
C236 C 0.03498 0.56945 0.79825 0.0
C237 C 0.98564 0.56167 0.76295 0.0
H238 H 0.05701 0.56593 0.81062 0.0
H239 H 0.96798 0.55186 0.74681 0.0
H240 H 0.98955 0.49148 0.72898 0.0
H241 H 0.08127 0.50749 0.79088 0.0
C242 C 0.09497 0.5412 0.81818 0.0
C243 C 0.06841 0.55682 0.73634 0.0
C244 C 0.97971 0.50123 0.80207 0.0
C245 C 0.95297 0.51728 0.72047 0.0
H246 H 0.1389 0.57382 0.76679 0.0
H247 H 0.15368 0.56534 0.81163 0.0
H248 H 0.0879 0.52585 0.86036 0.0
H249 H 0.02454 0.50403 0.85132 0.0
H250 H 0.90905 0.48524 0.77229 0.0
H251 H 0.8939 0.49396 0.72738 0.0
H252 H 0.96044 0.53167 0.67794 0.0
H253 H 0.02399 0.55331 0.68695 0.0
H254 H 0.00238 0.45965 0.71788 0.0
H255 H 0.09562 0.47618 0.78058 0.0
H256 H 0.95681 0.58487 0.7555 0.0
H257 H 0.04669 0.59875 0.8206 0.0
C258 C 0.3196 0.99449 0.4991 0.0
C259 C 0.35261 0.99422 0.51344 0.0
C260 C 0.37404 0.01016 0.50826 0.0
C261 C 0.35299 0.01919 0.49113 0.0
N262 N 0.31934 0.01008 0.48511 0.0
Co263 Co 0.28 0.01779 0.46037 0.0
N264 N 0.31156 0.04175 0.45347 0.0
C265 C 0.34603 0.04783 0.46401 0.0
C266 C 0.3606 0.0653 0.45621 0.0
C267 C 0.33383 0.07092 0.43994 0.0
C268 C 0.30437 0.05648 0.43877 0.0
N269 N 0.24073 0.0251 0.4351 0.0
C270 C 0.2404 0.04103 0.42158 0.0
C271 C 0.20754 0.04045 0.40611 0.0
C272 C 0.18629 0.0236 0.41007 0.0
C273 C 0.20728 0.0149 0.42765 0.0
N274 N 0.24835 0.9943 0.46786 0.0
C275 C 0.21382 0.98862 0.45779 0.0
C276 C 0.19904 0.97212 0.46685 0.0
C277 C 0.22569 0.96695 0.4838 0.0
C278 C 0.25531 0.98066 0.48406 0.0
N279 N 0.27671 0.03735 0.48549 0.0
C280 C 0.27205 0.06705 0.51933 0.0
C281 C 0.2427 0.05375 0.50189 0.0
C282 C 0.24559 0.0391 0.48536 0.0
C283 C 0.30376 0.06476 0.51993 0.0
C284 C 0.30549 0.04995 0.50301 0.0
N285 N 0.28331 0.99825 0.43513 0.0
C286 C 0.25722 0.9687 0.40302 0.0
C287 C 0.2881 0.9701 0.3998 0.0
C288 C 0.31649 0.98593 0.41439 0.0
C289 C 0.3136 0.99964 0.43185 0.0
C290 C 0.25537 0.98285 0.42054 0.0
H291 H 0.33631 0.01113 0.44255 0.0
H292 H 0.23103 0.98095 0.42189 0.0
H293 H 0.22227 0.02958 0.47241 0.0
H294 H 0.33042 0.04915 0.5043 0.0
C295 C 0.36398 0.03674 0.4811 0.0
C296 C 0.28939 0.97975 0.49963 0.0
C297 C 0.27022 0.05758 0.42361 0.0
C298 C 0.1961 0.99839 0.439 0.0
H299 H 0.36037 0.98364 0.52638 0.0
H300 H 0.40166 0.01473 0.51618 0.0
H301 H 0.38747 0.0731 0.46182 0.0
H302 H 0.33573 0.08423 0.43013 0.0
H303 H 0.19963 0.05135 0.39365 0.0
H304 H 0.15872 0.01868 0.40168 0.0
H305 H 0.17213 0.96456 0.46153 0.0
H306 H 0.22358 0.95436 0.49458 0.0
H307 H 0.2175 0.05498 0.50049 0.0
H308 H 0.32729 0.07437 0.53339 0.0
H309 H 0.23438 0.95685 0.3919 0.0
H310 H 0.34106 0.9875 0.41269 0.0
C311 C 0.57582 0.81509 0.03892 0.0
C312 C 0.56336 0.83237 0.04193 0.0
C313 C 0.58358 0.84915 0.03698 0.0
C314 C 0.607 0.84118 0.03111 0.0
N315 N 0.60279 0.82026 0.03178 0.0
Co316 Co 0.63108 0.80229 0.02443 0.0
N317 N 0.66213 0.82725 0.01866 0.0
C318 C 0.66086 0.84758 0.02108 0.0
C319 C 0.68518 0.86111 0.01541 0.0
C320 C 0.70281 0.84867 0.00867 0.0
C321 C 0.68806 0.8282 0.01057 0.0
N322 N 0.65904 0.78428 0.01667 0.0
C323 C 0.68504 0.78933 0.00853 0.0
C324 C 0.69637 0.77187 0.0042 0.0
C325 C 0.67659 0.75514 0.00955 0.0
C326 C 0.65437 0.76328 0.01674 0.0
N327 N 0.60031 0.77737 0.03056 0.0
C328 C 0.60272 0.75722 0.0293 0.0
C329 C 0.57903 0.74373 0.03555 0.0
C330 C 0.56053 0.756 0.04142 0.0
C331 C 0.57396 0.77635 0.03826 0.0
N332 N 0.60112 0.79748 0.98971 0.0
C333 C 0.5605 0.79111 0.94 0.0
C334 C 0.56783 0.77415 0.95218 0.0
C335 C 0.58801 0.77766 0.97683 0.0
C336 C 0.57379 0.81127 0.9532 0.0
C337 C 0.5937 0.81405 0.97777 0.0
N338 N 0.66106 0.80715 0.05919 0.0
C339 C 0.69126 0.79399 0.09548 0.0
C340 C 0.70003 0.8137 0.10918 0.0
C341 C 0.68974 0.83018 0.09733 0.0
C342 C 0.67061 0.82662 0.07257 0.0
C343 C 0.6719 0.79108 0.07072 0.0
H344 H 0.6636 0.83985 0.06476 0.0
H345 H 0.66562 0.77563 0.0614 0.0
H346 H 0.59273 0.76411 0.98507 0.0
H347 H 0.60302 0.82981 0.98664 0.0
C348 C 0.63454 0.85317 0.02647 0.0
C349 C 0.56169 0.79427 0.04371 0.0
C350 C 0.69863 0.81012 0.0035 0.0
C351 C 0.62803 0.75152 0.02275 0.0
H352 H 0.54216 0.83287 0.0475 0.0
H353 H 0.5819 0.86531 0.03807 0.0
H354 H 0.68887 0.87791 0.01536 0.0
H355 H 0.72363 0.85397 0.00248 0.0
H356 H 0.71637 0.77121 0.99737 0.0
H357 H 0.67773 0.73889 0.00784 0.0
H358 H 0.57598 0.72703 0.0362 0.0
H359 H 0.53989 0.75059 0.04774 0.0
H360 H 0.55775 0.75818 0.94285 0.0
H361 H 0.56932 0.82499 0.94458 0.0
H362 H 0.69853 0.7807 0.1039 0.0
H363 H 0.69646 0.84584 0.10711 0.0
C364 C 0.95931 0.07335 0.7179 0.0
C365 C 0.9919 0.07385 0.73384 0.0
C366 C 0.01351 0.09095 0.73066 0.0
C367 C 0.99301 0.09987 0.71306 0.0
N368 N 0.95957 0.08951 0.70472 0.0
Co369 Co 0.92097 0.0974 0.67946 0.0
N370 N 0.95308 0.12194 0.67397 0.0
C371 C 0.98754 0.12753 0.68459 0.0
C372 C 0.00279 0.14501 0.67718 0.0
C373 C 0.97654 0.15093 0.66076 0.0
C374 C 0.94664 0.13662 0.65904 0.0
N375 N 0.88217 0.10585 0.655 0.0
C376 C 0.88232 0.12241 0.64241 0.0
C377 C 0.84948 0.12267 0.62762 0.0
C378 C 0.82779 0.10587 0.63124 0.0
C379 C 0.84848 0.0963 0.64788 0.0
N380 N 0.88898 0.07231 0.68419 0.0
C381 C 0.85475 0.06581 0.67232 0.0
C382 C 0.83976 0.0477 0.67883 0.0
C383 C 0.866 0.04214 0.69575 0.0
C384 C 0.89558 0.05728 0.69858 0.0
N385 N 0.91589 0.11532 0.70519 0.0
C386 C 0.90752 0.14194 0.74019 0.0
C387 C 0.88031 0.1257 0.72497 0.0
C388 C 0.88499 0.11276 0.70776 0.0
C389 C 0.93926 0.14428 0.73796 0.0
C390 C 0.94289 0.13086 0.72057 0.0
N391 N 0.92594 0.07941 0.6537 0.0
C392 C 0.90019 0.05468 0.61682 0.0
C393 C 0.932 0.05197 0.61835 0.0
C394 C 0.96089 0.06355 0.63763 0.0
C395 C 0.95734 0.07724 0.65485 0.0
C396 C 0.89775 0.06828 0.63452 0.0
H397 H 0.98033 0.08575 0.66903 0.0
H398 H 0.87266 0.06924 0.63243 0.0
H399 H 0.86308 0.10088 0.69664 0.0
H400 H 0.96769 0.13351 0.71974 0.0
C401 C 0.00464 0.11706 0.70281 0.0
C402 C 0.92921 0.05679 0.71537 0.0
C403 C 0.91279 0.13799 0.64344 0.0
C404 C 0.83721 0.07765 0.65607 0.0
H405 H 0.9994 0.06281 0.74622 0.0
H406 H 0.04098 0.09602 0.73973 0.0
H407 H 0.02974 0.1528 0.68341 0.0
H408 H 0.97913 0.16448 0.6514 0.0
H409 H 0.84191 0.13374 0.6153 0.0
H410 H 0.80026 0.10103 0.62251 0.0
H411 H 0.81291 0.03962 0.67224 0.0
H412 H 0.86361 0.02855 0.70507 0.0
H413 H 0.85537 0.12289 0.72629 0.0
H414 H 0.96114 0.1567 0.74918 0.0
H415 H 0.877 0.04585 0.60238 0.0
H416 H 0.98612 0.06209 0.6394 0.0
C417 C 0.40945 0.30857 0.0902 0.0
C418 C 0.40162 0.32719 0.09551 0.0
C419 C 0.42192 0.34279 0.089 0.0
C420 C 0.44123 0.33296 0.08042 0.0
N421 N 0.43399 0.31191 0.08048 0.0
Co422 Co 0.45948 0.29202 0.07293 0.0
N423 N 0.493 0.31552 0.06722 0.0
C424 C 0.49239 0.33599 0.0676 0.0
C425 C 0.51814 0.34837 0.06227 0.0
C426 C 0.53614 0.33499 0.05797 0.0
C427 C 0.5202 0.31513 0.06091 0.0
N428 N 0.48572 0.27219 0.06649 0.0
C429 C 0.51439 0.27602 0.06118 0.0
C430 C 0.52453 0.25773 0.0584 0.0
C431 C 0.50144 0.24177 0.06203 0.0
C432 C 0.47861 0.25115 0.06683 0.0
N433 N 0.42534 0.26848 0.07784 0.0
C434 C 0.42303 0.24766 0.07422 0.0
C435 C 0.39664 0.23533 0.07897 0.0
C436 C 0.38164 0.24913 0.08652 0.0
C437 C 0.40004 0.26915 0.08614 0.0
N438 N 0.43058 0.28788 0.03788 0.0
C439 C 0.39278 0.28234 0.98764 0.0
C440 C 0.40286 0.26564 0.99911 0.0
C441 C 0.4214 0.2687 0.02394 0.0
C442 C 0.40141 0.30179 0.00186 0.0
C443 C 0.42011 0.30419 0.02669 0.0
N444 N 0.48824 0.29608 0.10775 0.0
C445 C 0.5119 0.28154 0.14443 0.0
C446 C 0.52854 0.30165 0.15737 0.0
C447 C 0.52444 0.31894 0.14504 0.0
C448 C 0.50436 0.31582 0.12041 0.0
C449 C 0.49208 0.27914 0.11986 0.0
H450 H 0.50226 0.3296 0.11195 0.0
H451 H 0.47999 0.26341 0.11103 0.0
H452 H 0.42831 0.25529 0.03126 0.0
H453 H 0.42593 0.31944 0.03634 0.0
C454 C 0.46819 0.34326 0.07404 0.0
C455 C 0.39462 0.28827 0.09595 0.0
C456 C 0.53186 0.29644 0.05747 0.0
C457 C 0.44887 0.24047 0.06988 0.0
H458 H 0.38403 0.3296 0.10397 0.0
H459 H 0.42353 0.35946 0.09132 0.0
H460 H 0.52333 0.36515 0.06174 0.0
H461 H 0.5585 0.33936 0.05322 0.0
H462 H 0.54601 0.25603 0.05372 0.0
H463 H 0.50087 0.22522 0.06074 0.0
H464 H 0.39025 0.21841 0.07831 0.0
H465 H 0.36054 0.24502 0.09268 0.0
H466 H 0.39719 0.25029 0.98892 0.0
H467 H 0.39368 0.31517 0.99394 0.0
H468 H 0.51386 0.26765 0.15325 0.0
H469 H 0.53713 0.33483 0.15422 0.0
H470 H 0.16738 0.32715 0.31258 0.0
H471 H 0.13609 0.35438 0.30181 0.0
H472 H 0.22626 0.40179 0.34673 0.0
H473 H 0.25773 0.3749 0.35695 0.0
H474 H 0.1234 0.37944 0.33363 0.0
H475 H 0.19417 0.42929 0.28668 0.0
H476 H 0.19828 0.40297 0.29142 0.0
H477 H 0.22271 0.42484 0.31498 0.0
C478 C 0.1807 0.34345 0.31965 0.0
C479 C 0.21496 0.3489 0.33569 0.0
C480 C 0.16278 0.35896 0.31358 0.0
C481 C 0.17896 0.38015 0.32321 0.0
C482 C 0.21343 0.38563 0.33864 0.0
H483 H 0.11673 0.48041 0.37233 0.0
H484 H 0.13245 0.4482 0.36409 0.0
C485 C 0.23128 0.37019 0.34473 0.0
C486 C 0.15938 0.3964 0.31934 0.0
H487 H 0.16369 0.44647 0.30599 0.0
C488 C 0.13174 0.39392 0.3271 0.0
C489 C 0.16982 0.41514 0.31042 0.0
C490 C 0.19764 0.41813 0.30016 0.0
C491 C 0.11589 0.41029 0.32782 0.0
C492 C 0.12847 0.42974 0.32103 0.0
C493 C 0.15442 0.43167 0.31159 0.0
C494 C 0.11716 0.44875 0.3255 0.0
C495 C 0.08632 0.40674 0.33636 0.0
C496 C 0.10405 0.46005 0.30662 0.0
C497 C 0.09546 0.4787 0.31135 0.0
C498 C 0.1002 0.48647 0.33509 0.0
C499 C 0.11313 0.475 0.35389 0.0
C500 C 0.12167 0.4564 0.34916 0.0
H501 H 0.07264 0.38982 0.33287 0.0
H502 H 0.09614 0.41182 0.35616 0.0
H503 H 0.06785 0.41589 0.32735 0.0
H504 H 0.10073 0.45452 0.28828 0.0
H505 H 0.08591 0.48729 0.29652 0.0
H506 H 0.27379 0.69743 0.67523 0.0
H507 H 0.23988 0.66257 0.67618 0.0
H508 H 0.15941 0.68996 0.67992 0.0
H509 H 0.19295 0.72463 0.67906 0.0
H510 H 0.22099 0.65247 0.71395 0.0
H511 H 0.10531 0.63802 0.63101 0.0
H512 H 0.14389 0.65781 0.63511 0.0
H513 H 0.11396 0.6633 0.64793 0.0
C514 C 0.24861 0.69592 0.67584 0.0
C515 C 0.23602 0.71379 0.67699 0.0
C516 C 0.22924 0.67602 0.67629 0.0
C517 C 0.19689 0.67362 0.67774 0.0
C518 C 0.18385 0.69132 0.67808 0.0
H519 H 0.05814 0.59505 0.72669 0.0
H520 H 0.08953 0.62118 0.7092 0.0
C521 C 0.20312 0.71118 0.67761 0.0
C522 C 0.17844 0.65327 0.6819 0.0
H523 H 0.09973 0.61884 0.66354 0.0
C524 C 0.19472 0.64482 0.70264 0.0
C525 C 0.14416 0.64336 0.66714 0.0
C526 C 0.12594 0.65098 0.64392 0.0
C527 C 0.177 0.62749 0.70983 0.0
C528 C 0.14224 0.61822 0.69568 0.0
C529 C 0.12636 0.62606 0.67437 0.0
C530 C 0.12133 0.60156 0.70389 0.0
C531 C 0.19505 0.61996 0.73319 0.0
C532 C 0.12836 0.58177 0.70613 0.0
C533 C 0.11048 0.56691 0.7161 0.0
C534 C 0.08542 0.57171 0.72388 0.0
C535 C 0.07749 0.59116 0.72079 0.0
C536 C 0.0953 0.60599 0.71081 0.0
H537 H 0.22002 0.63108 0.74401 0.0
H538 H 0.17895 0.61776 0.74435 0.0
H539 H 0.19979 0.60454 0.72909 0.0
H540 H 0.14809 0.578 0.70061 0.0
H541 H 0.11671 0.55188 0.71827 0.0
H542 H 0.96698 0.8114 0.38445 0.0
H543 H 0.99381 0.78196 0.38838 0.0
H544 H 0.93587 0.75483 0.43039 0.0
H545 H 0.90829 0.78392 0.42606 0.0
H546 H 0.03036 0.76191 0.42841 0.0
H547 H 0.90341 0.71191 0.36777 0.0
H548 H 0.91308 0.74026 0.37188 0.0
H549 H 0.90443 0.72599 0.39481 0.0
C550 C 0.96041 0.79935 0.39488 0.0
C551 C 0.93521 0.79983 0.40468 0.0
C552 C 0.97588 0.78262 0.39722 0.0
C553 C 0.96636 0.7661 0.40933 0.0
C554 C 0.94324 0.76735 0.42075 0.0
H555 H 0.04491 0.65335 0.4253 0.0
H556 H 0.02995 0.6859 0.4341 0.0
C557 C 0.92773 0.78408 0.41843 0.0
C558 C 0.97766 0.74661 0.40758 0.0
H559 H 0.94847 0.69546 0.38076 0.0
C560 C 0.01251 0.74731 0.41819 0.0
C561 C 0.95427 0.72771 0.39389 0.0
C562 C 0.91673 0.72632 0.38124 0.0
C563 C 0.0246 0.72953 0.41539 0.0
C564 C 0.00114 0.71065 0.40173 0.0
C565 C 0.96631 0.70995 0.39131 0.0
C566 C 0.01218 0.69166 0.3969 0.0
C567 C 0.06241 0.7312 0.42637 0.0
C568 C 0.0069 0.68407 0.37308 0.0
C569 C 0.01542 0.66556 0.36799 0.0
C570 C 0.02919 0.65413 0.38663 0.0
C571 C 0.03476 0.6619 0.41057 0.0
C572 C 0.02625 0.68049 0.41564 0.0
H573 H 0.07762 0.74779 0.43247 0.0
H574 H 0.0677 0.72261 0.44225 0.0
H575 H 0.07108 0.7239 0.41316 0.0
H576 H 0.99605 0.69249 0.35837 0.0
H577 H 0.01132 0.66023 0.34943 0.0
H578 H 0.89758 0.36745 0.93604 0.0
H579 H 0.91271 0.40137 0.92236 0.0
H580 H 0.84583 0.37461 0.84931 0.0
H581 H 0.82994 0.34094 0.86296 0.0
H582 H 0.94545 0.40569 0.89088 0.0
H583 H 0.82669 0.43192 0.85364 0.0
H584 H 0.83092 0.41213 0.87361 0.0
H585 H 0.82098 0.40517 0.8418 0.0
C586 C 0.88519 0.36903 0.91723 0.0
C587 C 0.86272 0.35153 0.90054 0.0
C588 C 0.894 0.38838 0.90942 0.0
C589 C 0.88023 0.39058 0.88485 0.0
C590 C 0.85629 0.37344 0.86842 0.0
H591 H 0.97059 0.45903 0.79646 0.0
H592 H 0.94601 0.43363 0.8183 0.0
C593 C 0.8475 0.35413 0.8762 0.0
C594 C 0.89429 0.40961 0.87575 0.0
H595 H 0.87139 0.44606 0.83879 0.0
C596 C 0.92933 0.41475 0.87986 0.0
C597 C 0.87334 0.42154 0.8615 0.0
C598 C 0.83596 0.41755 0.85758 0.0
C599 C 0.94363 0.43075 0.8691 0.0
C600 C 0.92226 0.4417 0.85355 0.0
C601 C 0.8876 0.43739 0.85044 0.0
C602 C 0.93533 0.45697 0.83958 0.0
C603 C 0.98145 0.43558 0.87414 0.0
C604 C 0.93651 0.47835 0.84387 0.0
C605 C 0.95046 0.4928 0.83137 0.0
C606 C 0.96308 0.48595 0.81437 0.0
C607 C 0.96101 0.46453 0.80959 0.0
C608 C 0.94718 0.45012 0.8221 0.0
H609 H 0.9955 0.42997 0.89107 0.0
H610 H 0.98566 0.42752 0.85901 0.0
H611 H 0.99239 0.45274 0.87561 0.0
H612 H 0.92734 0.48389 0.85722 0.0
H613 H 0.9519 0.50933 0.83519 0.0
H614 H 0.29198 0.22024 0.31379 0.0
H615 H 0.29276 0.1868 0.32962 0.0
H616 H 0.20692 0.19035 0.34955 0.0
H617 H 0.20512 0.22345 0.3329 0.0
H618 H 0.30338 0.18049 0.37638 0.0
H619 H 0.17782 0.13033 0.31497 0.0
H620 H 0.19717 0.15533 0.30834 0.0
H621 H 0.17518 0.15433 0.32911 0.0
C622 C 0.27275 0.21369 0.32103 0.0
C623 C 0.24835 0.22446 0.32196 0.0
C624 C 0.27341 0.19465 0.33024 0.0
C625 C 0.24964 0.18596 0.34048 0.0
C626 C 0.22508 0.19656 0.34129 0.0
H627 H 0.27293 0.09644 0.44291 0.0
H628 H 0.26743 0.12753 0.42228 0.0
C629 C 0.22435 0.21559 0.33203 0.0
C630 C 0.25193 0.16648 0.35164 0.0
H631 H 0.20696 0.11649 0.3502 0.0
C632 C 0.28236 0.16645 0.37058 0.0
C633 C 0.22461 0.14813 0.34385 0.0
C634 C 0.19196 0.14688 0.3228 0.0
C635 C 0.28603 0.1487 0.38226 0.0
C636 C 0.25826 0.13063 0.37509 0.0
C637 C 0.22806 0.13047 0.35582 0.0
C638 C 0.26023 0.1117 0.38735 0.0
C639 C 0.31975 0.14936 0.40196 0.0
C640 C 0.25699 0.09241 0.37438 0.0
C641 C 0.25989 0.0747 0.38611 0.0
C642 C 0.26584 0.07607 0.41089 0.0
C643 C 0.26845 0.0952 0.42378 0.0
C644 C 0.2655 0.1129 0.41206 0.0
H645 H 0.34083 0.16192 0.40083 0.0
H646 H 0.31786 0.15268 0.41983 0.0
H647 H 0.32644 0.13406 0.40104 0.0
H648 H 0.25279 0.09117 0.35529 0.0
H649 H 0.25784 0.05999 0.37596 0.0
H650 H 0.36358 0.74165 0.71179 0.0
H651 H 0.4136 0.74697 0.74931 0.0
H652 H 0.38434 0.79835 0.77753 0.0
H653 H 0.3346 0.79323 0.74015 0.0
H654 H 0.45483 0.8059 0.7893 0.0
H655 H 0.40042 0.72769 0.81017 0.0
H656 H 0.4072 0.72745 0.78209 0.0
H657 H 0.37597 0.73987 0.78611 0.0
C658 C 0.36815 0.75427 0.72589 0.0
C659 C 0.34505 0.76694 0.7231 0.0
C660 C 0.39661 0.75723 0.74731 0.0
C661 C 0.40222 0.77275 0.76638 0.0
C662 C 0.3804 0.78623 0.76306 0.0
H663 H 0.51187 0.81139 0.91704 0.0
H664 H 0.47745 0.80683 0.87399 0.0
C665 C 0.35207 0.78336 0.74162 0.0
C666 C 0.42928 0.77418 0.7904 0.0
H667 H 0.45213 0.74797 0.83915 0.0
C668 C 0.45444 0.79317 0.80013 0.0
C669 C 0.4287 0.75753 0.80448 0.0
C670 C 0.40151 0.73703 0.79535 0.0
C671 C 0.47865 0.79611 0.82375 0.0
C672 C 0.47732 0.77973 0.83807 0.0
C673 C 0.45302 0.76048 0.82806 0.0
C674 C 0.49921 0.78279 0.86401 0.0
C675 C 0.50526 0.81679 0.83329 0.0
C676 C 0.52228 0.7704 0.87274 0.0
C677 C 0.54218 0.77302 0.89741 0.0
C678 C 0.53908 0.78796 0.91379 0.0
C679 C 0.51549 0.80008 0.90491 0.0
C680 C 0.49578 0.79751 0.8803 0.0
H681 H 0.50896 0.82522 0.81838 0.0
H682 H 0.49682 0.82698 0.84421 0.0
H683 H 0.53017 0.81442 0.84506 0.0
H684 H 0.52506 0.75883 0.86044 0.0
H685 H 0.56031 0.76356 0.90359 0.0
H686 H 0.87219 0.87376 0.5038 0.0
H687 H 0.89153 0.90717 0.5306 0.0
H688 H 0.91525 0.93979 0.47546 0.0
H689 H 0.89564 0.90635 0.44835 0.0
H690 H 0.96498 0.95399 0.52654 0.0
H691 H 0.82958 0.94966 0.51318 0.0
H692 H 0.84366 0.92662 0.52242 0.0
H693 H 0.8416 0.93392 0.49341 0.0
C694 C 0.88178 0.88801 0.49743 0.0
C695 C 0.88192 0.88747 0.47384 0.0
C696 C 0.89292 0.90705 0.51278 0.0
C697 C 0.90433 0.92592 0.50484 0.0
C698 C 0.90647 0.92536 0.48186 0.0
H699 H 0.89953 0.04591 0.56928 0.0
H700 H 0.89695 0.01713 0.54045 0.0
C701 C 0.89534 0.90625 0.46645 0.0
C702 C 0.91114 0.94624 0.5198 0.0
H703 H 0.87159 0.97638 0.54316 0.0
C704 C 0.94463 0.95902 0.53011 0.0
C705 C 0.88439 0.95285 0.52407 0.0
C706 C 0.84771 0.94018 0.51255 0.0
C707 C 0.95219 0.97803 0.54523 0.0
C708 C 0.92557 0.98419 0.55026 0.0
C709 C 0.89201 0.97162 0.53938 0.0
C710 C 0.9316 0.00332 0.56711 0.0
C711 C 0.98847 0.99139 0.55554 0.0
C712 C 0.95246 0.00537 0.59161 0.0
C713 C 0.95402 0.02185 0.60813 0.0
C714 C 0.93438 0.0364 0.60046 0.0
C715 C 0.91463 0.0348 0.57576 0.0
C716 C 0.91325 0.01842 0.55926 0.0
H717 H 0.00345 0.98777 0.54469 0.0
H718 H 0.98922 0.00839 0.55636 0.0
H719 H 0.00105 0.98816 0.57419 0.0
H720 H 0.96624 0.99365 0.59818 0.0
H721 H 0.96914 0.02254 0.62709 0.0
H722 H 0.78364 0.27073 0.00681 0.0
H723 H 0.73301 0.27197 0.01584 0.0
H724 H 0.73111 0.33064 0.98713 0.0
H725 H 0.78245 0.32975 0.97846 0.0
H726 H 0.72428 0.33058 0.03281 0.0
H727 H 0.6342 0.26164 0.9675 0.0
H728 H 0.67318 0.25626 0.98662 0.0
H729 H 0.67441 0.2747 0.96554 0.0
C730 C 0.77256 0.28396 0.00248 0.0
C731 C 0.78713 0.30019 0.99199 0.0
C732 C 0.7434 0.28451 0.00741 0.0
C733 C 0.72807 0.30124 0.00185 0.0
C734 C 0.74246 0.31751 0.99139 0.0
H735 H 0.53035 0.30038 0.012 0.0
H736 H 0.57783 0.30314 0.99757 0.0
C737 C 0.77165 0.31693 0.98635 0.0
C738 C 0.69777 0.30199 0.00788 0.0
H739 H 0.61658 0.27414 0.99832 0.0
C740 C 0.70059 0.31837 0.02511 0.0
C741 C 0.66679 0.28618 0.99759 0.0
C742 C 0.66173 0.2688 0.97811 0.0
C743 C 0.67364 0.31893 0.03299 0.0
C744 C 0.64331 0.30251 0.02361 0.0
C745 C 0.64002 0.28658 0.0057 0.0
C746 C 0.61491 0.30136 0.03242 0.0
C747 C 0.67784 0.33706 0.05129 0.0
C748 C 0.62 0.29921 0.05669 0.0
C749 C 0.59298 0.29762 0.06486 0.0
C750 C 0.56053 0.29804 0.04884 0.0
C751 C 0.55532 0.30007 0.02457 0.0
C752 C 0.58231 0.30163 0.01639 0.0
H753 H 0.69812 0.35092 0.05164 0.0
H754 H 0.65357 0.34184 0.04741 0.0
H755 H 0.68525 0.33217 0.06956 0.0
H756 H 0.64477 0.29853 0.06924 0.0
H757 H 0.59732 0.29599 0.08364 0.0
H758 H 0.2517 0.86297 0.65178 0.0
H759 H 0.26854 0.88899 0.62764 0.0
H760 H 0.29107 0.84161 0.58733 0.0
H761 H 0.27345 0.8153 0.61109 0.0
H762 H 0.32978 0.90292 0.61809 0.0
H763 H 0.21763 0.8629 0.53564 0.0
H764 H 0.22123 0.85686 0.56549 0.0
H765 H 0.24564 0.84707 0.55043 0.0
C766 C 0.26039 0.8581 0.63785 0.0
C767 C 0.26081 0.83703 0.6331 0.0
C768 C 0.27021 0.87301 0.62419 0.0
C769 C 0.28051 0.86713 0.60547 0.0
C770 C 0.28271 0.84637 0.60149 0.0
H771 H 0.30223 0.94193 0.49183 0.0
H772 H 0.30514 0.91418 0.51803 0.0
C773 C 0.27293 0.83142 0.6152 0.0
C774 C 0.28679 0.88254 0.58933 0.0
H775 H 0.25283 0.89425 0.53216 0.0
C776 C 0.3132 0.90097 0.59924 0.0
C777 C 0.26508 0.87991 0.56475 0.0
C778 C 0.23561 0.86072 0.55338 0.0
C779 C 0.31813 0.91702 0.58528 0.0
C780 C 0.29566 0.91469 0.56094 0.0
C781 C 0.27 0.89597 0.55083 0.0
C782 C 0.29677 0.93197 0.54606 0.0
C783 C 0.34723 0.93635 0.59672 0.0
C784 C 0.29097 0.95106 0.55312 0.0
C785 C 0.28928 0.96678 0.53822 0.0
C786 C 0.29321 0.96357 0.51603 0.0
C787 C 0.29934 0.94463 0.509 0.0
C788 C 0.30098 0.92888 0.5239 0.0
H789 H 0.36773 0.93307 0.61242 0.0
H790 H 0.35842 0.94248 0.58347 0.0
H791 H 0.33757 0.94881 0.60333 0.0
H792 H 0.28682 0.95358 0.56985 0.0
H793 H 0.28425 0.98129 0.54374 0.0
H794 H 0.8603 0.86253 0.34225 0.0
H795 H 0.8304 0.86228 0.29873 0.0
H796 H 0.8204 0.79565 0.2861 0.0
H797 H 0.84982 0.79571 0.32933 0.0
H798 H 0.84956 0.8462 0.25836 0.0
H799 H 0.72105 0.80462 0.25538 0.0
H800 H 0.75499 0.81847 0.283 0.0
H801 H 0.75533 0.79304 0.27076 0.0
C802 C 0.85163 0.84785 0.33015 0.0
C803 C 0.85754 0.82917 0.33915 0.0
C804 C 0.83472 0.84775 0.30537 0.0
C805 C 0.82307 0.82891 0.28934 0.0
C806 C 0.82904 0.8103 0.29826 0.0
H807 H 0.75524 0.79917 0.13434 0.0
H808 H 0.78572 0.80424 0.17824 0.0
C809 C 0.84609 0.81041 0.32291 0.0
C810 C 0.80466 0.82852 0.2632 0.0
H811 H 0.72734 0.80832 0.21768 0.0
C812 C 0.82279 0.83807 0.24944 0.0
C813 C 0.76971 0.81801 0.25176 0.0
C814 C 0.74893 0.80806 0.26594 0.0
C815 C 0.807 0.83688 0.22427 0.0
C816 C 0.77234 0.82573 0.21271 0.0
C817 C 0.75399 0.81671 0.22661 0.0
C818 C 0.7546 0.82313 0.18617 0.0
C819 C 0.82742 0.84755 0.21023 0.0
C820 C 0.72671 0.83177 0.17619 0.0
C821 C 0.7092 0.82884 0.15119 0.0
C822 C 0.71907 0.81702 0.13571 0.0
C823 C 0.74693 0.80826 0.1458 0.0
C824 C 0.76456 0.81131 0.17083 0.0
H825 H 0.85093 0.85936 0.22219 0.0
H826 H 0.83517 0.83556 0.20103 0.0
H827 H 0.81187 0.85546 0.19615 0.0
H828 H 0.71846 0.84078 0.18778 0.0
H829 H 0.68753 0.83552 0.144 0.0
H830 H 0.91106 0.29734 0.88125 0.0
H831 H 0.91845 0.27042 0.85505 0.0
H832 H 0.83269 0.22585 0.86054 0.0
H833 H 0.82539 0.25275 0.88706 0.0
H834 H 0.88691 0.20865 0.86443 0.0
H835 H 0.85684 0.2509 0.78462 0.0
H836 H 0.89114 0.2664 0.8107 0.0
H837 H 0.84886 0.2583 0.8113 0.0
C838 C 0.89369 0.28182 0.87678 0.0
C839 C 0.86737 0.27719 0.88592 0.0
C840 C 0.8979 0.26648 0.8618 0.0
C841 C 0.87565 0.24629 0.85543 0.0
C842 C 0.85 0.24139 0.86513 0.0
H843 H 0.85218 0.15802 0.73385 0.0
H844 H 0.84371 0.18193 0.76261 0.0
C845 C 0.8459 0.25672 0.88028 0.0
C846 C 0.87905 0.23038 0.83848 0.0
H847 H 0.8797 0.22155 0.7817 0.0
C848 C 0.88518 0.21139 0.8463 0.0
C849 C 0.87625 0.23388 0.8147 0.0
C850 C 0.86757 0.25337 0.80471 0.0
C851 C 0.88927 0.19596 0.83112 0.0
C852 C 0.88788 0.19985 0.80769 0.0
C853 C 0.88113 0.21868 0.79976 0.0
C854 C 0.89276 0.18452 0.79087 0.0
C855 C 0.89445 0.17552 0.84016 0.0
C856 C 0.92325 0.17808 0.79715 0.0
C857 C 0.92801 0.16413 0.78084 0.0
C858 C 0.90249 0.15653 0.75782 0.0
C859 C 0.8721 0.16319 0.75157 0.0
C860 C 0.86731 0.17701 0.76792 0.0
H861 H 0.88524 0.17264 0.85524 0.0
H862 H 0.88095 0.16202 0.82545 0.0
H863 H 0.92211 0.17618 0.847 0.0
H864 H 0.94357 0.18403 0.81456 0.0
H865 H 0.95162 0.15923 0.78633 0.0
H866 H 0.23963 0.24144 0.24283 0.0
H867 H 0.26139 0.24609 0.21045 0.0
H868 H 0.3121 0.31073 0.24161 0.0
H869 H 0.29427 0.30552 0.27574 0.0
H870 H 0.25555 0.26729 0.17623 0.0
H871 H 0.39127 0.29367 0.23711 0.0
H872 H 0.35772 0.28434 0.24825 0.0
H873 H 0.36735 0.31118 0.24243 0.0
C874 C 0.25609 0.25656 0.24324 0.0
C875 C 0.26587 0.27287 0.26255 0.0
C876 C 0.26811 0.25929 0.22438 0.0
C877 C 0.28946 0.27858 0.22391 0.0
C878 C 0.29693 0.29542 0.24203 0.0
H879 H 0.33602 0.29967 0.09327 0.0
H880 H 0.31031 0.29867 0.12404 0.0
C881 C 0.28592 0.2925 0.26137 0.0
C882 C 0.30433 0.28076 0.20476 0.0
H883 H 0.37929 0.29685 0.19572 0.0
C884 C 0.28268 0.27363 0.18054 0.0
C885 C 0.33984 0.28866 0.21029 0.0
C886 C 0.36539 0.29466 0.23594 0.0
C887 C 0.29544 0.27397 0.16181 0.0
C888 C 0.33069 0.28283 0.16722 0.0
C889 C 0.35224 0.2902 0.19142 0.0
C890 C 0.34628 0.28395 0.14844 0.0
C891 C 0.27109 0.26396 0.13667 0.0
C892 C 0.37601 0.27695 0.15222 0.0
C893 C 0.39174 0.27864 0.13528 0.0
C894 C 0.37778 0.28702 0.11397 0.0
C895 C 0.34767 0.29358 0.10983 0.0
C896 C 0.33256 0.29257 0.12719 0.0
H897 H 0.24893 0.25193 0.13719 0.0
H898 H 0.26095 0.27621 0.12651 0.0
H899 H 0.2839 0.25633 0.12667 0.0
H900 H 0.38717 0.27017 0.16837 0.0
H901 H 0.41485 0.27335 0.13878 0.0
H902 H 0.01242 0.78417 0.86154 0.0
H903 H 0.01867 0.75008 0.84817 0.0
H904 H 0.90911 0.72642 0.81743 0.0
H905 H 0.90257 0.76076 0.82987 0.0
H906 H 0.99642 0.71198 0.86148 0.0
H907 H 0.93693 0.70922 0.76207 0.0
H908 H 0.94944 0.73311 0.78288 0.0
H909 H 0.91034 0.71385 0.77821 0.0
C910 C 0.98962 0.77186 0.85152 0.0
C911 C 0.95697 0.77525 0.84665 0.0
C912 C 0.99325 0.75233 0.84406 0.0
C913 C 0.96437 0.7358 0.83152 0.0
C914 C 0.93174 0.73908 0.82666 0.0
H915 H 0.93986 0.60405 0.78299 0.0
H916 H 0.93044 0.63819 0.79307 0.0
C917 C 0.92807 0.75864 0.83405 0.0
C918 C 0.96856 0.7149 0.82453 0.0
H919 H 0.95029 0.67794 0.77618 0.0
C920 C 0.98645 0.70458 0.84282 0.0
C921 C 0.95541 0.70525 0.80017 0.0
C922 C 0.93722 0.71598 0.77966 0.0
C923 C 0.99134 0.68478 0.83746 0.0
C924 C 0.97832 0.67518 0.81313 0.0
C925 C 0.96017 0.68538 0.79482 0.0
C926 C 0.98391 0.65471 0.80635 0.0
C927 C 0.01001 0.67415 0.85789 0.0
C928 C 0.01702 0.65285 0.81007 0.0
C929 C 0.02248 0.63346 0.80418 0.0
C930 C 0.9949 0.61552 0.79442 0.0
C931 C 0.96164 0.61756 0.79029 0.0
C932 C 0.95621 0.63701 0.79613 0.0
H933 H 0.0113 0.6812 0.87566 0.0
H934 H 0.99744 0.65708 0.85496 0.0
H935 H 0.03654 0.67589 0.85866 0.0
H936 H 0.03866 0.66645 0.81751 0.0
H937 H 0.04833 0.63257 0.80711 0.0
H938 H 0.82709 0.38099 0.42898 0.0
H939 H 0.86552 0.41511 0.43114 0.0
H940 H 0.94178 0.38407 0.42662 0.0
H941 H 0.90327 0.34992 0.42375 0.0
H942 H 0.93633 0.43681 0.46137 0.0
H943 H 0.91615 0.4137 0.36517 0.0
H944 H 0.88951 0.39966 0.3798 0.0
H945 H 0.93133 0.39576 0.38548 0.0
C946 C 0.85225 0.38146 0.42881 0.0
C947 C 0.86196 0.36272 0.4259 0.0
C948 C 0.87422 0.40096 0.43018 0.0
C949 C 0.9062 0.40203 0.42864 0.0
C950 C 0.91699 0.38351 0.42756 0.0
H951 H 0.04414 0.50183 0.39443 0.0
H952 H 0.01921 0.46932 0.40705 0.0
C953 C 0.89505 0.36401 0.42616 0.0
C954 C 0.92665 0.42216 0.42561 0.0
H955 H 0.95357 0.44662 0.38416 0.0
C956 C 0.94028 0.439 0.44456 0.0
C957 C 0.93151 0.42493 0.40358 0.0
C958 C 0.91617 0.40766 0.38223 0.0
C959 C 0.95906 0.45854 0.44213 0.0
C960 C 0.96369 0.46133 0.42001 0.0
C961 C 0.95019 0.44441 0.40116 0.0
C962 C 0.98142 0.48176 0.41546 0.0
C963 C 0.97409 0.47591 0.46332 0.0
C964 C 0.96869 0.49958 0.41626 0.0
C965 C 0.98304 0.51812 0.40918 0.0
C966 C 0.00995 0.51896 0.40091 0.0
C967 C 0.02334 0.50141 0.40077 0.0
C968 C 0.00913 0.48292 0.40793 0.0
H969 H 0.97702 0.4696 0.48066 0.0
H970 H 0.99941 0.48538 0.46445 0.0
H971 H 0.95676 0.48649 0.46104 0.0
H972 H 0.94687 0.49893 0.42147 0.0
H973 H 0.97246 0.53158 0.4094 0.0
H974 H 0.19596 0.3319 0.68905 0.0
H975 H 0.16676 0.35945 0.69131 0.0
H976 H 0.1082 0.32099 0.72634 0.0
H977 H 0.13664 0.2931 0.72361 0.0
H978 H 0.07038 0.34389 0.6911 0.0
H979 H 0.19212 0.39401 0.75839 0.0
H980 H 0.19419 0.38466 0.73018 0.0
H981 H 0.1859 0.36627 0.74989 0.0
C982 C 0.17625 0.32907 0.69668 0.0
C983 C 0.1688 0.31038 0.70634 0.0
C984 C 0.15983 0.3449 0.69815 0.0
C985 C 0.13579 0.34236 0.70936 0.0
C986 C 0.12684 0.32328 0.71775 0.0
H987 H 0.07766 0.4383 0.77809 0.0
H988 H 0.09609 0.40783 0.76742 0.0
C989 C 0.14324 0.30743 0.7163 0.0
C990 C 0.12183 0.3601 0.71396 0.0
H991 H 0.14492 0.4089 0.74638 0.0
C992 C 0.0866 0.35816 0.7031 0.0
C993 C 0.14309 0.37851 0.72995 0.0
C994 C 0.18089 0.38103 0.74298 0.0
C995 C 0.07208 0.3743 0.70768 0.0
C996 C 0.09346 0.39284 0.72336 0.0
C997 C 0.12864 0.3947 0.73427 0.0
C998 C 0.07998 0.41042 0.72924 0.0
C999 C 0.03394 0.3712 0.69619 0.0
C1000 C 0.06472 0.42194 0.71128 0.0
C1001 C 0.0543 0.43945 0.71735 0.0
C1002 C 0.05918 0.44582 0.74152 0.0
C1003 C 0.07397 0.43399 0.75937 0.0
C1004 C 0.08434 0.41652 0.75329 0.0
H1005 H 0.02043 0.35441 0.68923 0.0
H1006 H 0.02372 0.377 0.70931 0.0
H1007 H 0.02815 0.38031 0.68076 0.0
H1008 H 0.06175 0.41774 0.69269 0.0
H1009 H 0.04344 0.44839 0.70323 0.0
H1010 H 0.27325 0.7274 0.22202 0.0
H1011 H 0.2491 0.69508 0.23559 0.0
H1012 H 0.18123 0.72598 0.25429 0.0
H1013 H 0.20478 0.75798 0.24064 0.0
H1014 H 0.24772 0.69171 0.28359 0.0
H1015 H 0.11781 0.66999 0.21281 0.0
H1016 H 0.15361 0.68761 0.20907 0.0
H1017 H 0.13131 0.69706 0.22621 0.0
C1018 C 0.25291 0.72714 0.22878 0.0
C1019 C 0.24102 0.74521 0.23043 0.0
C1020 C 0.23925 0.70875 0.23657 0.0
C1021 C 0.21314 0.70812 0.24567 0.0
C1022 C 0.20101 0.72605 0.247 0.0
H1023 H 0.09819 0.63734 0.31807 0.0
H1024 H 0.1252 0.66204 0.29679 0.0
C1025 C 0.21473 0.74438 0.23942 0.0
C1026 C 0.19938 0.68921 0.25502 0.0
H1027 H 0.12451 0.65484 0.2494 0.0
C1028 C 0.22094 0.68333 0.27591 0.0
C1029 C 0.16444 0.67838 0.24491 0.0
C1030 C 0.14049 0.68343 0.22187 0.0
C1031 C 0.208 0.66769 0.2878 0.0
C1032 C 0.17272 0.65751 0.27825 0.0
C1033 C 0.15151 0.66277 0.25675 0.0
C1034 C 0.15681 0.64242 0.29112 0.0
C1035 C 0.23177 0.66296 0.31112 0.0
C1036 C 0.16551 0.62319 0.29481 0.0
C1037 C 0.15014 0.60914 0.30699 0.0
C1038 C 0.12586 0.61417 0.31551 0.0
C1039 C 0.11699 0.63329 0.31167 0.0
C1040 C 0.13231 0.6473 0.29952 0.0
H1041 H 0.25666 0.67496 0.3184 0.0
H1042 H 0.21998 0.66214 0.32502 0.0
H1043 H 0.2368 0.64745 0.30788 0.0
H1044 H 0.18392 0.61898 0.28811 0.0
H1045 H 0.15701 0.59434 0.30967 0.0
H1046 H 0.95585 0.90525 0.84767 0.0
H1047 H 0.93825 0.93355 0.8252 0.0
H1048 H 0.01868 0.93708 0.79722 0.0
H1049 H 0.03626 0.90886 0.81942 0.0
H1050 H 0.01647 0.97604 0.81629 0.0
H1051 H 0.88859 0.93087 0.75193 0.0
H1052 H 0.89609 0.92937 0.78334 0.0
H1053 H 0.92051 0.91827 0.76933 0.0
C1054 C 0.9695 0.9119 0.8365 0.0
C1055 C 0.99755 0.90487 0.83541 0.0
C1056 C 0.95941 0.92804 0.82366 0.0
C1057 C 0.977 0.93728 0.80939 0.0
C1058 C 0.0048 0.93019 0.80816 0.0
H1059 H 0.92837 0.01733 0.699 0.0
H1060 H 0.93841 0.9883 0.72263 0.0
C1061 C 0.01492 0.91413 0.82097 0.0
C1062 C 0.96738 0.95482 0.79626 0.0
H1063 H 0.90377 0.96746 0.75067 0.0
C1064 C 0.99178 0.9742 0.802 0.0
C1065 C 0.93528 0.95228 0.77748 0.0
C1066 C 0.90863 0.93155 0.76993 0.0
C1067 C 0.98505 0.99112 0.7894 0.0
C1068 C 0.95282 0.98868 0.7708 0.0
C1069 C 0.92835 0.96931 0.76508 0.0
C1070 C 0.94469 0.00579 0.75641 0.0
C1071 C 0.01288 0.01126 0.7956 0.0
C1072 C 0.94424 0.02504 0.7675 0.0
C1073 C 0.93861 0.04154 0.75405 0.0
C1074 C 0.93315 0.03894 0.72935 0.0
C1075 C 0.93258 0.01954 0.71808 0.0
C1076 C 0.93824 0.00305 0.73152 0.0
H1077 H 0.03836 0.00894 0.80626 0.0
H1078 H 0.01403 0.0177 0.77897 0.0
H1079 H 0.00736 0.02314 0.80658 0.0
H1080 H 0.9486 0.02735 0.78659 0.0
H1081 H 0.93896 0.05643 0.76295 0.0
H1082 H 0.73594 0.34523 0.38371 0.0
H1083 H 0.6862 0.34311 0.34681 0.0
H1084 H 0.70402 0.28811 0.31588 0.0
H1085 H 0.75376 0.29026 0.35224 0.0
H1086 H 0.68799 0.34531 0.30045 0.0
H1087 H 0.60157 0.27029 0.30242 0.0
H1088 H 0.63737 0.28452 0.32886 0.0
H1089 H 0.64384 0.26788 0.30681 0.0
C1090 C 0.72907 0.33259 0.36911 0.0
C1091 C 0.74873 0.31783 0.37103 0.0
C1092 C 0.70059 0.33136 0.34811 0.0
C1093 C 0.69111 0.31525 0.3288 0.0
C1094 C 0.71033 0.30033 0.33082 0.0
H1095 H 0.57328 0.2788 0.17975 0.0
H1096 H 0.60966 0.28344 0.22244 0.0
C1097 C 0.73878 0.30158 0.3517 0.0
C1098 C 0.663 0.31484 0.30565 0.0
H1099 H 0.59062 0.28244 0.2637 0.0
C1100 C 0.6663 0.33176 0.29256 0.0
C1101 C 0.63477 0.29715 0.29547 0.0
C1102 C 0.62893 0.27902 0.30922 0.0
C1103 C 0.64321 0.33091 0.26892 0.0
C1104 C 0.61589 0.31277 0.25832 0.0
C1105 C 0.61173 0.29626 0.27184 0.0
C1106 C 0.59289 0.30993 0.23266 0.0
C1107 C 0.64925 0.34891 0.25501 0.0
C1108 C 0.57114 0.32317 0.22431 0.0
C1109 C 0.55017 0.32051 0.19987 0.0
C1110 C 0.55048 0.30448 0.18341 0.0
C1111 C 0.57207 0.29112 0.19197 0.0
C1112 C 0.59298 0.2938 0.21635 0.0
H1113 H 0.67488 0.35991 0.2642 0.0
H1114 H 0.64679 0.34293 0.23653 0.0
H1115 H 0.62974 0.35788 0.25324 0.0
H1116 H 0.57029 0.33549 0.23671 0.0
H1117 H 0.53345 0.33085 0.19392 0.0
H1118 H 0.20532 0.21173 0.64001 0.0
H1119 H 0.20798 0.17738 0.62387 0.0
H1120 H 0.30543 0.20585 0.61965 0.0
H1121 H 0.30354 0.23993 0.6365 0.0
H1122 H 0.20988 0.16735 0.57954 0.0
H1123 H 0.32424 0.15422 0.64987 0.0
H1124 H 0.30308 0.17376 0.65516 0.0
H1125 H 0.33303 0.17942 0.64011 0.0
C1126 C 0.22769 0.21056 0.6362 0.0
C1127 C 0.25418 0.22858 0.63948 0.0
C1128 C 0.22908 0.19095 0.62685 0.0
C1129 C 0.25711 0.18898 0.62084 0.0
C1130 C 0.2839 0.20686 0.62463 0.0
H1131 H 0.31254 0.10724 0.53476 0.0
H1132 H 0.30734 0.13492 0.56115 0.0
C1133 C 0.28255 0.22641 0.63397 0.0
C1134 C 0.25725 0.16874 0.60868 0.0
H1135 H 0.30675 0.13441 0.61036 0.0
C1136 C 0.23072 0.15991 0.58649 0.0
C1137 C 0.28446 0.15904 0.61778 0.0
C1138 C 0.31261 0.16699 0.64217 0.0
C1139 C 0.23158 0.1423 0.57256 0.0
C1140 C 0.25955 0.1332 0.58118 0.0
C1141 C 0.28545 0.14153 0.60375 0.0
C1142 C 0.26338 0.11585 0.56632 0.0
C1143 C 0.2034 0.13413 0.54821 0.0
C1144 C 0.24068 0.09585 0.56082 0.0
C1145 C 0.24375 0.07988 0.54588 0.0
C1146 C 0.26961 0.08364 0.53618 0.0
C1147 C 0.29265 0.10365 0.54215 0.0
C1148 C 0.28962 0.11955 0.55714 0.0
H1149 H 0.18655 0.14497 0.54252 0.0
H1150 H 0.21427 0.13172 0.5342 0.0
H1151 H 0.18749 0.1187 0.54909 0.0
H1152 H 0.22054 0.09263 0.56802 0.0
H1153 H 0.22592 0.06458 0.54199 0.0
H1154 H 0.36339 0.80226 0.16207 0.0
H1155 H 0.41022 0.80219 0.14774 0.0
H1156 H 0.33958 0.7612 0.08298 0.0
H1157 H 0.29281 0.76095 0.09723 0.0
H1158 H 0.43387 0.76737 0.1315 0.0
H1159 H 0.38318 0.81475 0.0593 0.0
H1160 H 0.36983 0.81254 0.08481 0.0
H1161 H 0.35306 0.79141 0.06011 0.0
C1162 C 0.35794 0.79294 0.14499 0.0
C1163 C 0.32429 0.78183 0.13064 0.0
C1164 C 0.38469 0.79299 0.13679 0.0
C1165 C 0.37819 0.78199 0.11413 0.0
C1166 C 0.34498 0.7701 0.10032 0.0
H1167 H 0.49417 0.77431 0.02222 0.0
H1168 H 0.45027 0.77032 0.04025 0.0
C1169 C 0.31829 0.77003 0.10847 0.0
C1170 C 0.4057 0.78363 0.10435 0.0
H1171 H 0.4299 0.80179 0.05881 0.0
C1172 C 0.43317 0.77496 0.11568 0.0
C1173 C 0.40459 0.79353 0.08369 0.0
C1174 C 0.37627 0.80376 0.07132 0.0
C1175 C 0.45926 0.77551 0.10653 0.0
C1176 C 0.45809 0.7854 0.08582 0.0
C1177 C 0.43068 0.79416 0.07462 0.0
C1178 C 0.48503 0.78695 0.07541 0.0
C1179 C 0.48733 0.76506 0.11873 0.0
C1180 C 0.51902 0.79773 0.08913 0.0
C1181 C 0.54399 0.7999 0.07887 0.0
C1182 C 0.53528 0.79147 0.05472 0.0
C1183 C 0.50134 0.78079 0.04094 0.0
C1184 C 0.47638 0.77855 0.05121 0.0
H1185 H 0.47965 0.75344 0.1299 0.0
H1186 H 0.4946 0.75695 0.10524 0.0
H1187 H 0.51019 0.77719 0.13084 0.0
H1188 H 0.52612 0.80478 0.10762 0.0
H1189 H 0.57006 0.80834 0.08969 0.0
H1190 H 0.82823 0.2661 0.48814 0.0
H1191 H 0.84136 0.25213 0.52675 0.0
H1192 H 0.92186 0.23005 0.51434 0.0
H1193 H 0.90986 0.24468 0.47644 0.0
H1194 H 0.83441 0.21137 0.53065 0.0
H1195 H 0.9681 0.25329 0.58458 0.0
H1196 H 0.94274 0.26252 0.55803 0.0
H1197 H 0.96424 0.24249 0.5552 0.0
C1198 C 0.84944 0.25887 0.49405 0.0
C1199 C 0.86788 0.25638 0.47916 0.0
C1200 C 0.85678 0.25078 0.51604 0.0
C1201 C 0.88284 0.24022 0.52361 0.0
C1202 C 0.90216 0.23853 0.50923 0.0
H1203 H 0.93116 0.14206 0.60437 0.0
H1204 H 0.9241 0.16932 0.57771 0.0
C1205 C 0.89495 0.24666 0.48736 0.0
C1206 C 0.88729 0.22873 0.54484 0.0
H1207 H 0.94806 0.21882 0.59473 0.0
C1208 C 0.8591 0.21335 0.54497 0.0
C1209 C 0.9195 0.2313 0.56358 0.0
C1210 C 0.95024 0.24847 0.56548 0.0
C1211 C 0.86269 0.19969 0.56248 0.0
C1212 C 0.89527 0.20148 0.58026 0.0
C1213 C 0.92317 0.21742 0.58087 0.0
C1214 C 0.90111 0.18593 0.59726 0.0
C1215 C 0.83207 0.18274 0.56126 0.0
C1216 C 0.89076 0.18648 0.6171 0.0
C1217 C 0.89497 0.17103 0.63235 0.0
C1218 C 0.90937 0.15484 0.62782 0.0
C1219 C 0.92005 0.15447 0.60813 0.0
C1220 C 0.91609 0.16998 0.593 0.0
H1221 H 0.80887 0.18266 0.5454 0.0
H1222 H 0.83758 0.16708 0.5603 0.0
H1223 H 0.82662 0.18518 0.57794 0.0
H1224 H 0.87919 0.19872 0.62061 0.0
H1225 H 0.88667 0.17155 0.64752 0.0
H1226 H 0.29309 0.27704 0.75824 0.0
H1227 H 0.31987 0.27357 0.80091 0.0
H1228 H 0.22067 0.25591 0.80625 0.0
H1229 H 0.19368 0.25921 0.76355 0.0
H1230 H 0.26604 0.29055 0.83951 0.0
H1231 H 0.32599 0.22394 0.84031 0.0
H1232 H 0.33539 0.24316 0.82172 0.0
H1233 H 0.29229 0.22777 0.81392 0.0
C1234 C 0.27692 0.27175 0.76828 0.0
C1235 C 0.24129 0.26849 0.75758 0.0
C1236 C 0.29227 0.26979 0.79268 0.0
C1237 C 0.27223 0.26441 0.8067 0.0
C1238 C 0.23657 0.26008 0.79573 0.0
H1239 H 0.34244 0.24832 0.95902 0.0
H1240 H 0.31278 0.2434 0.91512 0.0
C1241 C 0.22122 0.26201 0.77137 0.0
C1242 C 0.2885 0.26567 0.83326 0.0
H1243 H 0.34307 0.24594 0.8779 0.0
C1244 C 0.28268 0.28068 0.84791 0.0
C1245 C 0.31005 0.25272 0.84414 0.0
C1246 C 0.31615 0.23585 0.82926 0.0
C1247 C 0.29843 0.28343 0.87316 0.0
C1248 C 0.32085 0.27096 0.88401 0.0
C1249 C 0.32607 0.25559 0.86944 0.0
C1250 C 0.33925 0.27385 0.91049 0.0
C1251 C 0.29093 0.29959 0.88808 0.0
C1252 C 0.36412 0.29254 0.92232 0.0
C1253 C 0.38131 0.29536 0.94736 0.0
C1254 C 0.37397 0.27951 0.96105 0.0
C1255 C 0.34904 0.26075 0.94903 0.0
C1256 C 0.33196 0.25792 0.92397 0.0
H1257 H 0.26763 0.30448 0.8775 0.0
H1258 H 0.28755 0.2934 0.90428 0.0
H1259 H 0.31278 0.31375 0.89435 0.0
H1260 H 0.3704 0.30489 0.91213 0.0
H1261 H 0.40079 0.30981 0.95592 0.0
H1262 H 0.32855 0.8387 0.24488 0.0
H1263 H 0.33678 0.87066 0.27196 0.0
H1264 H 0.23974 0.84487 0.27812 0.0
H1265 H 0.23136 0.81311 0.25125 0.0
H1266 H 0.25703 0.89076 0.26812 0.0
H1267 H 0.35159 0.86862 0.34761 0.0
H1268 H 0.35633 0.86654 0.31874 0.0
H1269 H 0.32117 0.8491 0.32287 0.0
C1270 C 0.30892 0.83999 0.25189 0.0
C1271 C 0.27951 0.82337 0.24621 0.0
C1272 C 0.31368 0.85815 0.26735 0.0
C1273 C 0.28892 0.85997 0.27707 0.0
C1274 C 0.25914 0.84368 0.27083 0.0
H1275 H 0.2619 0.92755 0.39078 0.0
H1276 H 0.26529 0.90257 0.36031 0.0
C1277 C 0.25452 0.82553 0.25562 0.0
C1278 C 0.29406 0.87843 0.29441 0.0
H1279 H 0.33254 0.8984 0.35433 0.0
C1280 C 0.27397 0.89271 0.28688 0.0
C1281 C 0.31594 0.88068 0.31886 0.0
C1282 C 0.33752 0.86545 0.32773 0.0
C1283 C 0.27462 0.90897 0.30341 0.0
C1284 C 0.29577 0.91085 0.32799 0.0
C1285 C 0.31649 0.8969 0.3354 0.0
C1286 C 0.29459 0.92614 0.34656 0.0
C1287 C 0.25168 0.92352 0.29481 0.0
C1288 C 0.31017 0.9476 0.34892 0.0
C1289 C 0.30833 0.96192 0.36635 0.0
C1290 C 0.29067 0.95497 0.38154 0.0
C1291 C 0.2753 0.9334 0.37914 0.0
C1292 C 0.27738 0.91912 0.36188 0.0
H1293 H 0.23494 0.91902 0.27542 0.0
H1294 H 0.23541 0.92349 0.30573 0.0
H1295 H 0.26752 0.93982 0.29737 0.0
H1296 H 0.32363 0.95326 0.33725 0.0
H1297 H 0.32023 0.97846 0.36768 0.0
H1298 H 0.88459 0.84325 0.8713 0.0
H1299 H 0.84518 0.84406 0.89249 0.0
H1300 H 0.87288 0.79141 0.92722 0.0
H1301 H 0.91256 0.79065 0.90651 0.0
H1302 H 0.80138 0.78737 0.9062 0.0
H1303 H 0.87167 0.8637 0.96558 0.0
H1304 H 0.8625 0.86408 0.93378 0.0
H1305 H 0.89125 0.8493 0.95011 0.0
C1306 C 0.8825 0.83197 0.88362 0.0
C1307 C 0.90164 0.81684 0.88713 0.0
C1308 C 0.85999 0.83246 0.89569 0.0
C1309 C 0.85636 0.8179 0.91155 0.0
C1310 C 0.87528 0.80275 0.91501 0.0
H1311 H 0.76695 0.81324 0.02088 0.0
H1312 H 0.80475 0.81588 0.99775 0.0
C1313 C 0.89779 0.80227 0.90303 0.0
C1314 C 0.8325 0.81809 0.92436 0.0
H1315 H 0.81866 0.84685 0.96772 0.0
C1316 C 0.80503 0.8004 0.91958 0.0
C1317 C 0.83763 0.83503 0.94197 0.0
C1318 C 0.86748 0.85407 0.9484 0.0
C1319 C 0.78249 0.79918 0.93196 0.0
C1320 C 0.78739 0.81621 0.94939 0.0
C1321 C 0.81487 0.83391 0.9542 0.0
C1322 C 0.76487 0.81559 0.96339 0.0
C1323 C 0.75411 0.77947 0.92676 0.0
C1324 C 0.73017 0.81491 0.95176 0.0
C1325 C 0.70874 0.81343 0.96492 0.0
C1326 C 0.72178 0.81265 0.98985 0.0
C1327 C 0.75657 0.81379 0.00161 0.0
C1328 C 0.77803 0.81532 0.98846 0.0
H1329 H 0.75821 0.7662 0.91675 0.0
H1330 H 0.75182 0.77461 0.9438 0.0
H1331 H 0.72954 0.78259 0.91556 0.0
H1332 H 0.71967 0.8154 0.93249 0.0
H1333 H 0.68192 0.81265 0.95565 0.0
loop_
_geom_bond_atom_site_label_1
_geom_bond_atom_site_label_2
_geom_bond_distance
_geom_bond_site_symmetry_2
_ccdc_geom_bond_type
H0 C1 0.949 . S
C1 H0 0.949 . S
C1 C2 1.395 . S
C1 C3 1.391 . S
C2 C1 1.395 . S
C2 C5 1.390 . S
C3 C1 1.391 . S
C3 C7 1.387 . S
C3 C8 1.491 . S
H4 C5 0.950 . S
C5 C2 1.390 . S
C5 H4 0.950 . S
C5 C6 1.378 . S
C6 C5 1.378 . S
C6 C7 1.409 . S
C7 C3 1.387 . S
C7 C6 1.409 . S
C7 H9 0.951 . S
C8 C3 1.491 . S
C8 C10 1.382 . S
C8 C12 1.404 . S
H9 C7 0.951 . S
C10 C8 1.382 . S
C10 C11 1.390 . S
C10 H15 0.949 . S
C11 C10 1.390 . S
C11 C16 1.399 . S
C12 C8 1.404 . S
C12 H13 0.950 . S
C12 C14 1.375 . S
H13 C12 0.950 . S
C14 C12 1.375 . S
C14 C16 1.382 . S
C14 H18 0.950 . S
H15 C10 0.949 . S
C16 C11 1.399 . S
C16 C14 1.382 . S
C16 H17 0.952 . S
H17 C16 0.952 . S
H18 C14 0.950 . S
H19 C20 0.949 . S
C20 H19 0.949 . S
C20 C21 1.395 . S
C20 C22 1.391 . S
C21 C20 1.395 . S
C21 C24 1.390 . S
C22 C20 1.391 . S
C22 C26 1.387 . S
C22 C27 1.491 . S
H23 C24 0.950 . S
C24 C21 1.390 . S
C24 H23 0.950 . S
C24 C25 1.378 . S
C25 C24 1.378 . S
C25 C26 1.409 . S
C26 C22 1.387 . S
C26 C25 1.409 . S
C26 H28 0.951 . S
C27 C22 1.491 . S
C27 C29 1.382 . S
C27 C31 1.404 . S
H28 C26 0.951 . S
C29 C27 1.382 . S
C29 C30 1.390 . S
C29 H34 0.949 . S
C30 C29 1.390 . S
C30 C35 1.399 . S
C31 C27 1.404 . S
C31 H32 0.950 . S
C31 C33 1.375 . S
H32 C31 0.950 . S
C33 C31 1.375 . S
C33 C35 1.382 . S
C33 H37 0.950 . S
H34 C29 0.949 . S
C35 C30 1.399 . S
C35 C33 1.382 . S
C35 H36 0.952 . S
H36 C35 0.952 . S
H37 C33 0.950 . S
H38 C39 0.949 . S
C39 H38 0.949 . S
C39 C40 1.395 . S
C39 C41 1.391 . S
C40 C39 1.395 . S
C40 C43 1.390 . S
C41 C39 1.391 . S
C41 C45 1.387 . S
C41 C46 1.491 . S
H42 C43 0.950 . S
C43 C40 1.390 . S
C43 H42 0.950 . S
C43 C44 1.378 . S
C44 C43 1.378 . S
C44 C45 1.409 . S
C45 C41 1.387 . S
C45 C44 1.409 . S
C45 H47 0.951 . S
C46 C41 1.491 . S
C46 C48 1.382 . S
C46 C50 1.404 . S
H47 C45 0.951 . S
C48 C46 1.382 . S
C48 C49 1.390 . S
C48 H53 0.949 . S
C49 C48 1.390 . S
C49 C54 1.399 . S
C50 C46 1.404 . S
C50 H51 0.950 . S
C50 C52 1.375 . S
H51 C50 0.950 . S
C52 C50 1.375 . S
C52 C54 1.382 . S
C52 H56 0.950 . S
H53 C48 0.949 . S
C54 C49 1.399 . S
C54 C52 1.382 . S
C54 H55 0.952 . S
H55 C54 0.952 . S
H56 C52 0.950 . S
H57 C58 0.949 . S
C58 H57 0.949 . S
C58 C59 1.395 . S
C58 C60 1.391 . S
C59 C58 1.395 . S
C59 C62 1.390 . S
C60 C58 1.391 . S
C60 C64 1.387 . S
C60 C65 1.491 . S
H61 C62 0.950 . S
C62 C59 1.390 . S
C62 H61 0.950 . S
C62 C63 1.378 . S
C63 C62 1.378 . S
C63 C64 1.409 . S
C64 C60 1.387 . S
C64 C63 1.409 . S
C64 H66 0.951 . S
C65 C60 1.491 . S
C65 C67 1.382 . S
C65 C69 1.404 . S
H66 C64 0.951 . S
C67 C65 1.382 . S
C67 C68 1.390 . S
C67 H72 0.949 . S
C68 C67 1.390 . S
C68 C73 1.399 . S
C69 C65 1.404 . S
C69 H70 0.950 . S
C69 C71 1.375 . S
H70 C69 0.950 . S
C71 C69 1.375 . S
C71 C73 1.382 . S
C71 H75 0.950 . S
H72 C67 0.949 . S
C73 C68 1.399 . S
C73 C71 1.382 . S
C73 H74 0.952 . S
H74 C73 0.952 . S
H75 C71 0.950 . S
H76 C77 0.949 . S
C77 H76 0.949 . S
C77 C78 1.395 . S
C77 C79 1.391 . S
C78 C77 1.395 . S
C78 C81 1.390 . S
C79 C77 1.391 . S
C79 C83 1.387 . S
C79 C84 1.491 . S
H80 C81 0.950 . S
C81 C78 1.390 . S
C81 H80 0.950 . S
C81 C82 1.378 . S
C82 C81 1.378 . S
C82 C83 1.409 . S
C83 C79 1.387 . S
C83 C82 1.409 . S
C83 H85 0.951 . S
C84 C79 1.491 . S
C84 C86 1.382 . S
C84 C88 1.404 . S
H85 C83 0.951 . S
C86 C84 1.382 . S
C86 C87 1.390 . S
C86 H91 0.949 . S
C87 C86 1.390 . S
C87 C92 1.399 1_655 S
C88 C84 1.404 . S
C88 H89 0.950 . S
C88 C90 1.375 . S
H89 C88 0.950 . S
C90 C88 1.375 . S
C90 C92 1.382 1_655 S
C90 H94 0.950 1_655 S
H91 C86 0.949 . S
C92 C87 1.399 1_455 S
C92 C90 1.382 1_455 S
C92 H93 0.952 . S
H93 C92 0.952 . S
H94 C90 0.950 1_455 S
H95 C96 0.949 . S
C96 H95 0.949 . S
C96 C97 1.395 . S
C96 C98 1.391 . S
C97 C96 1.395 . S
C97 C100 1.390 . S
C98 C96 1.391 . S
C98 C102 1.387 . S
C98 C103 1.491 . S
H99 C100 0.950 . S
C100 C97 1.390 . S
C100 H99 0.950 . S
C100 C101 1.378 . S
C101 C100 1.378 . S
C101 C102 1.409 . S
C102 C98 1.387 . S
C102 C101 1.409 . S
C102 H104 0.951 . S
C103 C98 1.491 . S
C103 C105 1.382 . S
C103 C107 1.404 . S
H104 C102 0.951 . S
C105 C103 1.382 . S
C105 C106 1.390 . S
C105 H110 0.949 . S
C106 C105 1.390 . S
C106 C111 1.399 . S
C107 C103 1.404 . S
C107 H108 0.950 . S
C107 C109 1.375 . S
H108 C107 0.950 . S
C109 C107 1.375 . S
C109 C111 1.382 . S
C109 H113 0.950 . S
H110 C105 0.949 . S
C111 C106 1.399 . S
C111 C109 1.382 . S
C111 H112 0.952 . S
H112 C111 0.952 . S
H113 C109 0.950 . S
H114 C115 0.949 . S
C115 H114 0.949 . S
C115 C116 1.395 . S
C115 C117 1.391 . S
C116 C115 1.395 . S
C116 C119 1.390 . S
C117 C115 1.391 . S
C117 C121 1.387 . S
C117 C122 1.491 . S
H118 C119 0.950 . S
C119 C116 1.390 . S
C119 H118 0.950 . S
C119 C120 1.378 . S
C120 C119 1.378 . S
C120 C121 1.409 . S
C121 C117 1.387 . S
C121 C120 1.409 . S
C121 H123 0.951 . S
C122 C117 1.491 . S
C122 C124 1.382 . S
C122 C126 1.404 . S
H123 C121 0.951 . S
C124 C122 1.382 . S
C124 C125 1.390 . S
C124 H129 0.949 . S
C125 C124 1.390 . S
C125 C130 1.399 . S
C126 C122 1.404 . S
C126 H127 0.950 . S
C126 C128 1.375 . S
H127 C126 0.950 . S
C128 C126 1.375 . S
C128 C130 1.382 . S
C128 H132 0.950 . S
H129 C124 0.949 . S
C130 C125 1.399 . S
C130 C128 1.382 . S
C130 H131 0.952 . S
H131 C130 0.952 . S
H132 C128 0.950 . S
H133 C134 0.949 . S
C134 H133 0.949 . S
C134 C135 1.395 . S
C134 C136 1.391 . S
C135 C134 1.395 . S
C135 C138 1.390 . S
C136 C134 1.391 . S
C136 C140 1.387 . S
C136 C141 1.491 . S
H137 C138 0.950 . S
C138 C135 1.390 . S
C138 H137 0.950 . S
C138 C139 1.378 . S
C139 C138 1.378 . S
C139 C140 1.409 . S
C140 C136 1.387 . S
C140 C139 1.409 . S
C140 H142 0.951 . S
C141 C136 1.491 . S
C141 C143 1.382 . S
C141 C145 1.404 . S
H142 C140 0.951 . S
C143 C141 1.382 . S
C143 C144 1.390 . S
C143 H148 0.949 . S
C144 C143 1.390 . S
C144 C149 1.399 . S
C145 C141 1.404 . S
C145 H146 0.950 . S
C145 C147 1.375 . S
H146 C145 0.950 . S
C147 C145 1.375 . S
C147 C149 1.382 . S
C147 H151 0.950 . S
H148 C143 0.949 . S
C149 C144 1.399 . S
C149 C147 1.382 . S
C149 H150 0.952 . S
H150 C149 0.952 . S
H151 C147 0.950 . S
C152 C153 1.443 . S
C152 N156 1.376 . S
C152 C190 1.389 . S
C153 C152 1.443 . S
C153 C154 1.340 . S
C153 H193 0.951 . S
C154 C153 1.340 . S
C154 C155 1.439 . S
C154 H194 0.950 . S
C155 C154 1.439 . S
C155 N156 1.374 . S
C155 C189 1.395 . S
N156 C152 1.376 . S
N156 C155 1.374 . S
N156 Co157 2.008 . S
Co157 N156 2.008 . S
Co157 N158 1.995 . S
Co157 N163 2.008 1_455 S
Co157 N168 1.995 . S
Co157 N173 2.282 . S
Co157 N179 2.282 . S
N158 Co157 1.995 . S
N158 C159 1.376 . S
N158 C162 1.383 . S
C159 N158 1.376 . S
C159 C160 1.446 . S
C159 C189 1.391 . S
C160 C159 1.446 . S
C160 C161 1.339 . S
C160 H195 0.949 . S
C161 C160 1.339 . S
C161 C162 1.439 . S
C161 H196 0.950 . S
C162 N158 1.383 . S
C162 C161 1.439 . S
C162 C191 1.392 1_455 S
N163 Co157 2.008 1_655 S
N163 C164 1.376 . S
N163 C167 1.374 . S
C164 N163 1.376 . S
C164 C165 1.443 . S
C164 C191 1.389 . S
C165 C164 1.443 . S
C165 C166 1.340 . S
C165 H197 0.951 . S
C166 C165 1.340 . S
C166 C167 1.439 . S
C166 H198 0.950 . S
C167 N163 1.374 . S
C167 C166 1.439 . S
C167 C192 1.395 . S
N168 Co157 1.995 . S
N168 C169 1.376 1_455 S
N168 C172 1.383 . S
C169 N168 1.376 1_655 S
C169 C170 1.446 . S
C169 C192 1.391 . S
C170 C169 1.446 . S
C170 C171 1.339 1_655 S
C170 H199 0.949 . S
C171 C170 1.339 1_455 S
C171 C172 1.439 . S
C171 H200 0.950 . S
C172 N168 1.383 . S
C172 C171 1.439 . S
C172 C190 1.392 . S
N173 Co157 2.282 . S
N173 C176 1.332 . S
N173 C178 1.332 . S
C174 C175 1.386 . S
C174 C177 1.388 . S
C175 C174 1.386 . S
C175 C176 1.382 . S
C175 H201 0.950 . S
C176 N173 1.332 . S
C176 C175 1.382 . S
C176 H187 0.952 . S
C177 C174 1.388 . S
C177 C178 1.382 . S
C177 H202 0.950 . S
C178 N173 1.332 . S
C178 C177 1.382 . S
C178 H188 0.948 . S
N179 Co157 2.282 . S
N179 C183 1.332 . S
N179 C184 1.332 1_455 S
C180 C181 1.388 . S
C180 C184 1.382 . S
C180 H203 0.950 . S
C181 C180 1.388 . S
C181 C182 1.386 1_655 S
C182 C181 1.386 1_455 S
C182 C183 1.382 . S
C182 H204 0.950 . S
C183 N179 1.332 . S
C183 C182 1.382 . S
C183 H185 0.952 . S
C184 N179 1.332 1_655 S
C184 C180 1.382 . S
C184 H186 0.948 . S
H185 C183 0.952 . S
H186 C184 0.948 . S
H187 C176 0.952 . S
H188 C178 0.948 . S
C189 C155 1.395 . S
C189 C159 1.391 . S
C190 C152 1.389 . S
C190 C172 1.392 . S
C191 C162 1.392 1_655 S
C191 C164 1.389 . S
C192 C167 1.395 . S
C192 C169 1.391 . S
H193 C153 0.951 . S
H194 C154 0.950 . S
H195 C160 0.949 . S
H196 C161 0.950 . S
H197 C165 0.951 . S
H198 C166 0.950 . S
H199 C170 0.949 . S
H200 C171 0.950 . S
H201 C175 0.950 . S
H202 C177 0.950 . S
H203 C180 0.950 . S
H204 C182 0.950 . S
C205 C206 1.443 . S
C205 N209 1.376 . S
C205 C243 1.389 . S
C206 C205 1.443 . S
C206 C207 1.340 . S
C206 H246 0.951 . S
C207 C206 1.340 . S
C207 C208 1.439 . S
C207 H247 0.950 . S
C208 C207 1.439 . S
C208 N209 1.374 . S
C208 C242 1.395 . S
N209 C205 1.376 . S
N209 C208 1.374 . S
N209 Co210 2.008 . S
Co210 N209 2.008 . S
Co210 N211 1.995 . S
Co210 N216 2.008 1_455 S
Co210 N221 1.995 . S
Co210 N226 2.282 . S
Co210 N232 2.282 . S
N211 Co210 1.995 . S
N211 C212 1.376 . S
N211 C215 1.383 . S
C212 N211 1.376 . S
C212 C213 1.446 . S
C212 C242 1.391 . S
C213 C212 1.446 . S
C213 C214 1.339 . S
C213 H248 0.949 . S
C214 C213 1.339 . S
C214 C215 1.439 . S
C214 H249 0.950 . S
C215 N211 1.383 . S
C215 C214 1.439 . S
C215 C244 1.405 . S
N216 Co210 2.008 1_655 S
N216 C217 1.376 . S
N216 C220 1.374 . S
C217 N216 1.376 . S
C217 C218 1.443 . S
C217 C244 1.386 1_655 S
C218 C217 1.443 . S
C218 C219 1.340 . S
C218 H250 0.951 . S
C219 C218 1.340 . S
C219 C220 1.439 . S
C219 H251 0.950 . S
C220 N216 1.374 . S
C220 C219 1.439 . S
C220 C245 1.395 . S
N221 Co210 1.995 . S
N221 C222 1.376 . S
N221 C225 1.383 . S
C222 N221 1.376 . S
C222 C223 1.446 . S
C222 C245 1.391 1_455 S
C223 C222 1.446 . S
C223 C224 1.339 . S
C223 H252 0.949 1_455 S
C224 C223 1.339 . S
C224 C225 1.439 . S
C224 H253 0.950 . S
C225 N221 1.383 . S
C225 C224 1.439 . S
C225 C243 1.392 . S
N226 Co210 2.282 . S
N226 C229 1.332 . S
N226 C231 1.332 . S
C227 C228 1.386 . S
C227 C230 1.388 . S
C228 C227 1.386 . S
C228 C229 1.382 . S
C228 H254 0.950 . S
C229 N226 1.332 . S
C229 C228 1.382 . S
C229 H240 0.952 . S
C230 C227 1.388 . S
C230 C231 1.382 . S
C230 H255 0.950 . S
C231 N226 1.332 . S
C231 C230 1.382 . S
C231 H241 0.948 . S
N232 Co210 2.282 . S
N232 C236 1.332 . S
N232 C237 1.332 . S
C233 C234 1.388 . S
C233 C237 1.382 . S
C233 H256 0.950 1_455 S
C234 C233 1.388 . S
C234 C235 1.386 . S
C235 C234 1.386 . S
C235 C236 1.382 . S
C235 H257 0.950 . S
C236 N232 1.332 . S
C236 C235 1.382 . S
C236 H238 0.952 . S
C237 N232 1.332 . S
C237 C233 1.382 . S
C237 H239 0.948 1_455 S
H238 C236 0.952 . S
H239 C237 0.948 1_655 S
H240 C229 0.952 . S
H241 C231 0.948 . S
C242 C208 1.395 . S
C242 C212 1.391 . S
C243 C205 1.389 . S
C243 C225 1.392 . S
C244 C215 1.405 . S
C244 C217 1.386 1_455 S
C245 C220 1.395 . S
C245 C222 1.391 1_655 S
H246 C206 0.951 . S
H247 C207 0.950 . S
H248 C213 0.949 . S
H249 C214 0.950 . S
H250 C218 0.951 . S
H251 C219 0.950 . S
H252 C223 0.949 1_655 S
H253 C224 0.950 . S
H254 C228 0.950 . S
H255 C230 0.950 . S
H256 C233 0.950 1_655 S
H257 C235 0.950 . S
C258 C259 1.443 . S
C258 N262 1.376 1_565 S
C258 C296 1.389 . S
C259 C258 1.443 . S
C259 C260 1.340 1_565 S
C259 H299 0.951 . S
C260 C259 1.340 1_545 S
C260 C261 1.439 . S
C260 H300 0.950 . S
C261 C260 1.439 . S
C261 N262 1.374 . S
C261 C295 1.395 . S
N262 C258 1.376 1_545 S
N262 C261 1.374 . S
N262 Co263 2.008 . S
Co263 N262 2.008 . S
Co263 N264 1.995 . S
Co263 N269 2.008 . S
Co263 N274 1.995 1_545 S
Co263 N279 2.282 . S
Co263 N285 2.282 1_545 S
N264 Co263 1.995 . S
N264 C265 1.376 . S
N264 C268 1.383 . S
C265 N264 1.376 . S
C265 C266 1.446 . S
C265 C295 1.391 . S
C266 C265 1.446 . S
C266 C267 1.339 . S
C266 H301 0.949 . S
C267 C266 1.339 . S
C267 C268 1.439 . S
C267 H302 0.950 . S
C268 N264 1.383 . S
C268 C267 1.439 . S
C268 C297 1.392 . S
N269 Co263 2.008 . S
N269 C270 1.376 . S
N269 C273 1.374 . S
C270 N269 1.376 . S
C270 C271 1.443 . S
C270 C297 1.389 . S
C271 C270 1.443 . S
C271 C272 1.340 . S
C271 H303 0.951 . S
C272 C271 1.340 . S
C272 C273 1.439 . S
C272 H304 0.950 . S
C273 N269 1.374 . S
C273 C272 1.439 . S
C273 C298 1.395 1_545 S
N274 Co263 1.995 1_565 S
N274 C275 1.376 . S
N274 C278 1.383 . S
C275 N274 1.376 . S
C275 C276 1.446 . S
C275 C298 1.391 . S
C276 C275 1.446 . S
C276 C277 1.339 . S
C276 H305 0.949 . S
C277 C276 1.339 . S
C277 C278 1.439 . S
C277 H306 0.950 . S
C278 N274 1.383 . S
C278 C277 1.439 . S
C278 C296 1.392 . S
N279 Co263 2.282 . S
N279 C282 1.332 . S
N279 C284 1.332 . S
C280 C281 1.386 . S
C280 C283 1.388 . S
C281 C280 1.386 . S
C281 C282 1.382 . S
C281 H307 0.950 . S
C282 N279 1.332 . S
C282 C281 1.382 . S
C282 H293 0.952 . S
C283 C280 1.388 . S
C283 C284 1.382 . S
C283 H308 0.950 . S
C284 N279 1.332 . S
C284 C283 1.382 . S
C284 H294 0.948 . S
N285 Co263 2.282 1_565 S
N285 C289 1.332 . S
N285 C290 1.332 . S
C286 C287 1.388 . S
C286 C290 1.382 . S
C286 H309 0.950 . S
C287 C286 1.388 . S
C287 C288 1.386 . S
C288 C287 1.386 . S
C288 C289 1.382 . S
C288 H310 0.950 . S
C289 N285 1.332 . S
C289 C288 1.382 . S
C289 H291 0.952 1_565 S
C290 N285 1.332 . S
C290 C286 1.382 . S
C290 H292 0.948 . S
H291 C289 0.952 1_545 S
H292 C290 0.948 . S
H293 C282 0.952 . S
H294 C284 0.948 . S
C295 C261 1.395 . S
C295 C265 1.391 . S
C296 C258 1.389 . S
C296 C278 1.392 . S
C297 C268 1.392 . S
C297 C270 1.389 . S
C298 C273 1.395 1_565 S
C298 C275 1.391 . S
H299 C259 0.951 . S
H300 C260 0.950 . S
H301 C266 0.949 . S
H302 C267 0.950 . S
H303 C271 0.951 . S
H304 C272 0.950 . S
H305 C276 0.949 . S
H306 C277 0.950 . S
H307 C281 0.950 . S
H308 C283 0.950 . S
H309 C286 0.950 . S
H310 C288 0.950 . S
C311 C312 1.443 . S
C311 N315 1.376 . S
C311 C349 1.389 . S
C312 C311 1.443 . S
C312 C313 1.340 . S
C312 H352 0.951 . S
C313 C312 1.340 . S
C313 C314 1.439 . S
C313 H353 0.950 . S
C314 C313 1.439 . S
C314 N315 1.374 . S
C314 C348 1.395 . S
N315 C311 1.376 . S
N315 C314 1.374 . S
N315 Co316 2.008 . S
Co316 N315 2.008 . S
Co316 N317 1.995 . S
Co316 N322 2.014 . S
Co316 N327 1.995 . S
Co316 N332 2.282 1_554 S
Co316 N338 2.282 . S
N317 Co316 1.995 . S
N317 C318 1.376 . S
N317 C321 1.383 1_554 S
C318 N317 1.376 . S
C318 C319 1.446 1_554 S
C318 C348 1.391 . S
C319 C318 1.446 1_556 S
C319 C320 1.339 . S
C319 H354 0.949 . S
C320 C319 1.339 . S
C320 C321 1.439 . S
C320 H355 0.950 . S
C321 N317 1.383 1_556 S
C321 C320 1.439 . S
C321 C350 1.392 . S
N322 Co316 2.014 . S
N322 C323 1.367 1_554 S
N322 C326 1.375 1_554 S
C323 N322 1.367 1_556 S
C323 C324 1.443 . S
C323 C350 1.389 . S
C324 C323 1.443 . S
C324 C325 1.340 . S
C324 H356 0.951 . S
C325 C324 1.340 . S
C325 C326 1.439 . S
C325 H357 0.950 . S
C326 N322 1.375 1_556 S
C326 C325 1.439 . S
C326 C351 1.395 1_556 S
N327 Co316 1.995 . S
N327 C328 1.376 . S
N327 C331 1.383 . S
C328 N327 1.376 . S
C328 C329 1.446 . S
C328 C351 1.391 . S
C329 C328 1.446 . S
C329 C330 1.339 . S
C329 H358 0.949 . S
C330 C329 1.339 . S
C330 C331 1.439 . S
C330 H359 0.950 . S
C331 N327 1.383 . S
C331 C330 1.439 . S
C331 C349 1.392 . S
N332 Co316 2.282 1_556 S
N332 C335 1.332 . S
N332 C337 1.332 . S
C333 C334 1.386 . S
C333 C336 1.388 . S
C334 C333 1.386 . S
C334 C335 1.382 . S
C334 H360 0.950 . S
C335 N332 1.332 . S
C335 C334 1.382 . S
C335 H346 0.952 . S
C336 C333 1.388 . S
C336 C337 1.382 . S
C336 H361 0.950 . S
C337 N332 1.332 . S
C337 C336 1.382 . S
C337 H347 0.948 . S
N338 Co316 2.282 . S
N338 C342 1.332 . S
N338 C343 1.332 . S
C339 C340 1.388 . S
C339 C343 1.382 . S
C339 H362 0.950 . S
C340 C339 1.388 . S
C340 C341 1.386 . S
C341 C340 1.386 . S
C341 C342 1.382 . S
C341 H363 0.950 . S
C342 N338 1.332 . S
C342 C341 1.382 . S
C342 H344 0.952 . S
C343 N338 1.332 . S
C343 C339 1.382 . S
C343 H345 0.948 . S
H344 C342 0.952 . S
H345 C343 0.948 . S
H346 C335 0.952 . S
H347 C337 0.948 . S
C348 C314 1.395 . S
C348 C318 1.391 . S
C349 C311 1.389 . S
C349 C331 1.392 . S
C350 C321 1.392 . S
C350 C323 1.389 . S
C351 C326 1.395 1_554 S
C351 C328 1.391 . S
H352 C312 0.951 . S
H353 C313 0.950 . S
H354 C319 0.949 . S
H355 C320 0.950 . S
H356 C324 0.951 . S
H357 C325 0.950 . S
H358 C329 0.949 . S
H359 C330 0.950 . S
H360 C334 0.950 . S
H361 C336 0.950 . S
H362 C339 0.950 . S
H363 C341 0.950 . S
C364 C365 1.443 . S
C364 N368 1.376 . S
C364 C402 1.389 . S
C365 C364 1.443 . S
C365 C366 1.340 . S
C365 H405 0.951 . S
C366 C365 1.340 . S
C366 C367 1.439 . S
C366 H406 0.950 . S
C367 C366 1.439 . S
C367 N368 1.374 . S
C367 C401 1.395 . S
N368 C364 1.376 . S
N368 C367 1.374 . S
N368 Co369 1.995 1_455 S
Co369 N368 1.995 1_655 S
Co369 N370 1.986 1_655 S
Co369 N375 2.021 . S
Co369 N380 2.004 . S
Co369 N385 2.290 . S
Co369 N391 2.270 1_655 S
N370 Co369 1.986 1_455 S
N370 C371 1.376 . S
N370 C374 1.383 . S
C371 N370 1.376 . S
C371 C372 1.446 . S
C371 C401 1.391 . S
C372 C371 1.446 . S
C372 C373 1.339 . S
C372 H407 0.949 . S
C373 C372 1.339 . S
C373 C374 1.439 . S
C373 H408 0.950 . S
C374 N370 1.383 . S
C374 C373 1.439 . S
C374 C403 1.392 1_455 S
N375 Co369 2.021 . S
N375 C376 1.376 . S
N375 C379 1.374 . S
C376 N375 1.376 . S
C376 C377 1.443 . S
C376 C403 1.389 . S
C377 C376 1.443 . S
C377 C378 1.340 . S
C377 H409 0.951 . S
C378 C377 1.340 . S
C378 C379 1.439 . S
C378 H410 0.950 . S
C379 N375 1.374 . S
C379 C378 1.439 . S
C379 C404 1.395 . S
N380 Co369 2.004 . S
N380 C381 1.376 . S
N380 C384 1.383 . S
C381 N380 1.376 . S
C381 C382 1.446 . S
C381 C404 1.391 . S
C382 C381 1.446 . S
C382 C383 1.339 . S
C382 H411 0.949 . S
C383 C382 1.339 . S
C383 C384 1.439 . S
C383 H412 0.950 . S
C384 N380 1.383 . S
C384 C383 1.439 . S
C384 C402 1.392 1_655 S
N385 Co369 2.290 . S
N385 C388 1.332 . S
N385 C390 1.332 1_655 S
C386 C387 1.386 . S
C386 C389 1.388 1_655 S
C387 C386 1.386 . S
C387 C388 1.382 . S
C387 H413 0.950 . S
C388 N385 1.332 . S
C388 C387 1.382 . S
C388 H399 0.952 . S
C389 C386 1.388 1_455 S
C389 C390 1.382 . S
C389 H414 0.950 . S
C390 N385 1.332 1_455 S
C390 C389 1.382 . S
C390 H400 0.948 . S
N391 Co369 2.270 1_455 S
N391 C395 1.343 . S
N391 C396 1.327 1_455 S
C392 C393 1.388 1_655 S
C392 C396 1.382 . S
C392 H415 0.950 . S
C393 C392 1.388 1_455 S
C393 C394 1.386 . S
C394 C393 1.386 . S
C394 C395 1.382 . S
C394 H416 0.950 . S
C395 N391 1.343 . S
C395 C394 1.382 . S
C395 H397 0.952 . S
C396 N391 1.327 1_655 S
C396 C392 1.382 . S
C396 H398 0.948 . S
H397 C395 0.952 . S
H398 C396 0.948 . S
H399 C388 0.952 . S
H400 C390 0.948 . S
C401 C367 1.395 . S
C401 C371 1.391 . S
C402 C364 1.389 . S
C402 C384 1.392 1_455 S
C403 C374 1.392 1_655 S
C403 C376 1.389 . S
C404 C379 1.395 . S
C404 C381 1.391 . S
H405 C365 0.951 . S
H406 C366 0.950 . S
H407 C372 0.949 . S
H408 C373 0.950 . S
H409 C377 0.951 . S
H410 C378 0.950 . S
H411 C382 0.949 . S
H412 C383 0.950 . S
H413 C387 0.950 . S
H414 C389 0.950 . S
H415 C392 0.950 . S
H416 C394 0.950 . S
C417 C418 1.443 . S
C417 N421 1.376 . S
C417 C455 1.389 . S
C418 C417 1.443 . S
C418 C419 1.340 . S
C418 H458 0.951 . S
C419 C418 1.340 . S
C419 C420 1.439 . S
C419 H459 0.950 . S
C420 C419 1.439 . S
C420 N421 1.374 . S
C420 C454 1.395 . S
N421 C417 1.376 . S
N421 C420 1.374 . S
N421 Co422 2.008 . S
Co422 N421 2.008 . S
Co422 N423 1.995 . S
Co422 N428 2.008 . S
Co422 N433 1.995 . S
Co422 N438 2.282 . S
Co422 N444 2.282 . S
N423 Co422 1.995 . S
N423 C424 1.376 . S
N423 C427 1.383 . S
C424 N423 1.376 . S
C424 C425 1.446 . S
C424 C454 1.391 . S
C425 C424 1.446 . S
C425 C426 1.339 . S
C425 H460 0.949 . S
C426 C425 1.339 . S
C426 C427 1.439 . S
C426 H461 0.950 . S
C427 N423 1.383 . S
C427 C426 1.439 . S
C427 C456 1.392 . S
N428 Co422 2.008 . S
N428 C429 1.376 . S
N428 C432 1.374 . S
C429 N428 1.376 . S
C429 C430 1.443 . S
C429 C456 1.389 . S
C430 C429 1.443 . S
C430 C431 1.340 . S
C430 H462 0.951 . S
C431 C430 1.340 . S
C431 C432 1.439 . S
C431 H463 0.950 . S
C432 N428 1.374 . S
C432 C431 1.439 . S
C432 C457 1.395 . S
N433 Co422 1.995 . S
N433 C434 1.376 . S
N433 C437 1.383 . S
C434 N433 1.376 . S
C434 C435 1.446 . S
C434 C457 1.391 . S
C435 C434 1.446 . S
C435 C436 1.339 . S
C435 H464 0.949 . S
C436 C435 1.339 . S
C436 C437 1.439 . S
C436 H465 0.950 . S
C437 N433 1.383 . S
C437 C436 1.439 . S
C437 C455 1.392 . S
N438 Co422 2.282 . S
N438 C441 1.332 . S
N438 C443 1.332 . S
C439 C440 1.386 . S
C439 C442 1.388 . S
C440 C439 1.386 . S
C440 C441 1.382 . S
C440 H466 0.950 . S
C441 N438 1.332 . S
C441 C440 1.382 . S
C441 H452 0.952 . S
C442 C439 1.388 . S
C442 C443 1.382 . S
C442 H467 0.950 . S
C443 N438 1.332 . S
C443 C442 1.382 . S
C443 H453 0.948 . S
N444 Co422 2.282 . S
N444 C448 1.332 . S
N444 C449 1.332 . S
C445 C446 1.388 . S
C445 C449 1.382 . S
C445 H468 0.950 . S
C446 C445 1.388 . S
C446 C447 1.386 . S
C447 C446 1.386 . S
C447 C448 1.382 . S
C447 H469 0.950 . S
C448 N444 1.332 . S
C448 C447 1.382 . S
C448 H450 0.952 . S
C449 N444 1.332 . S
C449 C445 1.382 . S
C449 H451 0.948 . S
H450 C448 0.952 . S
H451 C449 0.948 . S
H452 C441 0.952 . S
H453 C443 0.948 . S
C454 C420 1.395 . S
C454 C424 1.391 . S
C455 C417 1.389 . S
C455 C437 1.392 . S
C456 C427 1.392 . S
C456 C429 1.389 . S
C457 C432 1.395 . S
C457 C434 1.391 . S
H458 C418 0.951 . S
H459 C419 0.950 . S
H460 C425 0.949 . S
H461 C426 0.950 . S
H462 C430 0.951 . S
H463 C431 0.950 . S
H464 C435 0.949 . S
H465 C436 0.950 . S
H466 C440 0.950 . S
H467 C442 0.950 . S
H468 C445 0.950 . S
H469 C447 0.950 . S
H470 C478 0.929 . S
H471 C480 0.930 . S
H472 C482 0.930 . S
H473 C485 0.929 . S
H474 C488 0.930 . S
H475 C490 0.960 . S
H476 C490 0.960 . S
H477 C490 0.960 . S
C478 H470 0.929 . S
C478 C479 1.377 . S
C478 C480 1.384 . S
C479 C478 1.377 . S
C479 C485 1.390 . S
C480 H471 0.930 . S
C480 C478 1.384 . S
C480 C481 1.372 . S
C481 C480 1.372 . S
C481 C482 1.400 . S
C481 C486 1.490 . S
C482 H472 0.930 . S
C482 C481 1.400 . S
C482 C485 1.386 . S
H483 C499 0.930 . S
H484 C500 0.931 . S
C485 H473 0.929 . S
C485 C479 1.390 . S
C485 C482 1.386 . S
C486 C481 1.490 . S
C486 C488 1.395 . S
C486 C489 1.403 . S
H487 C493 0.930 . S
C488 H474 0.930 . S
C488 C486 1.395 . S
C488 C491 1.403 . S
C489 C486 1.403 . S
C489 C490 1.524 . S
C489 C493 1.400 . S
C490 H475 0.960 . S
C490 H476 0.960 . S
C490 H477 0.960 . S
C490 C489 1.524 . S
C491 C488 1.403 . S
C491 C492 1.392 . S
C491 C495 1.495 1_455 S
C492 C491 1.392 . S
C492 C493 1.385 . S
C492 C494 1.478 . S
C493 H487 0.930 . S
C493 C489 1.400 . S
C493 C492 1.385 . S
C494 C492 1.478 . S
C494 C496 1.381 . S
C494 C500 1.383 . S
C495 C491 1.495 1_655 S
C495 H501 0.959 . S
C495 H502 0.961 . S
C495 H503 0.960 . S
C496 C494 1.381 . S
C496 C497 1.394 . S
C496 H504 0.930 . S
C497 C496 1.394 . S
C497 C498 1.383 . S
C497 H505 0.929 . S
C498 C497 1.383 . S
C498 C499 1.377 . S
C499 H483 0.930 . S
C499 C498 1.377 . S
C499 C500 1.379 . S
C500 H484 0.931 . S
C500 C494 1.383 . S
C500 C499 1.379 . S
H501 C495 0.959 . S
H502 C495 0.961 . S
H503 C495 0.960 . S
H504 C496 0.930 . S
H505 C497 0.929 . S
H506 C514 0.929 . S
H507 C516 0.930 . S
H508 C518 0.930 . S
H509 C521 0.929 . S
H510 C524 0.930 . S
H511 C526 0.960 . S
H512 C526 0.960 . S
H513 C526 0.960 . S
C514 H506 0.929 . S
C514 C515 1.377 . S
C514 C516 1.384 . S
C515 C514 1.377 . S
C515 C521 1.390 . S
C516 H507 0.930 . S
C516 C514 1.384 . S
C516 C517 1.372 . S
C517 C516 1.372 . S
C517 C518 1.400 . S
C517 C522 1.490 . S
C518 H508 0.930 . S
C518 C517 1.400 . S
C518 C521 1.386 . S
H519 C535 0.930 . S
H520 C536 0.931 . S
C521 H509 0.929 . S
C521 C515 1.390 . S
C521 C518 1.386 . S
C522 C517 1.490 . S
C522 C524 1.395 . S
C522 C525 1.403 . S
H523 C529 0.930 . S
C524 H510 0.930 . S
C524 C522 1.395 . S
C524 C527 1.403 . S
C525 C522 1.403 . S
C525 C526 1.524 . S
C525 C529 1.400 . S
C526 H511 0.960 . S
C526 H512 0.960 . S
C526 H513 0.960 . S
C526 C525 1.524 . S
C527 C524 1.403 . S
C527 C528 1.392 . S
C527 C531 1.495 . S
C528 C527 1.392 . S
C528 C529 1.385 . S
C528 C530 1.478 . S
C529 H523 0.930 . S
C529 C525 1.400 . S
C529 C528 1.385 . S
C530 C528 1.478 . S
C530 C532 1.381 . S
C530 C536 1.383 . S
C531 C527 1.495 . S
C531 H537 0.959 . S
C531 H538 0.961 . S
C531 H539 0.960 . S
C532 C530 1.381 . S
C532 C533 1.394 . S
C532 H540 0.930 . S
C533 C532 1.394 . S
C533 C534 1.383 . S
C533 H541 0.929 . S
C534 C533 1.383 . S
C534 C535 1.377 . S
C535 H519 0.930 . S
C535 C534 1.377 . S
C535 C536 1.379 . S
C536 H520 0.931 . S
C536 C530 1.383 . S
C536 C535 1.379 . S
H537 C531 0.959 . S
H538 C531 0.961 . S
H539 C531 0.960 . S
H540 C532 0.930 . S
H541 C533 0.929 . S
H542 C550 0.929 . S
H543 C552 0.930 . S
H544 C554 0.930 . S
H545 C557 0.929 . S
H546 C560 0.930 . S
H547 C562 0.960 . S
H548 C562 0.960 . S
H549 C562 0.960 . S
C550 H542 0.929 . S
C550 C551 1.377 . S
C550 C552 1.384 . S
C551 C550 1.377 . S
C551 C557 1.390 . S
C552 H543 0.930 . S
C552 C550 1.384 . S
C552 C553 1.372 . S
C553 C552 1.372 . S
C553 C554 1.400 . S
C553 C558 1.490 . S
C554 H544 0.930 . S
C554 C553 1.400 . S
C554 C557 1.386 . S
H555 C571 0.930 . S
H556 C572 0.931 . S
C557 H545 0.929 . S
C557 C551 1.390 . S
C557 C554 1.386 . S
C558 C553 1.490 . S
C558 C560 1.395 . S
C558 C561 1.403 . S
H559 C565 0.930 . S
C560 H546 0.930 . S
C560 C558 1.395 . S
C560 C563 1.403 . S
C561 C558 1.403 . S
C561 C562 1.524 . S
C561 C565 1.400 . S
C562 H547 0.960 . S
C562 H548 0.960 . S
C562 H549 0.960 . S
C562 C561 1.524 . S
C563 C560 1.403 . S
C563 C564 1.392 . S
C563 C567 1.495 1_655 S
C564 C563 1.392 . S
C564 C565 1.385 . S
C564 C566 1.478 . S
C565 H559 0.930 . S
C565 C561 1.400 . S
C565 C564 1.385 . S
C566 C564 1.478 . S
C566 C568 1.381 . S
C566 C572 1.383 . S
C567 C563 1.495 1_455 S
C567 H573 0.959 . S
C567 H574 0.961 . S
C567 H575 0.960 . S
C568 C566 1.381 . S
C568 C569 1.394 . S
C568 H576 0.930 . S
C569 C568 1.394 . S
C569 C570 1.383 . S
C569 H577 0.929 . S
C570 C569 1.383 . S
C570 C571 1.377 . S
C571 H555 0.930 . S
C571 C570 1.377 . S
C571 C572 1.379 . S
C572 H556 0.931 . S
C572 C566 1.383 . S
C572 C571 1.379 . S
H573 C567 0.959 . S
H574 C567 0.961 . S
H575 C567 0.960 . S
H576 C568 0.930 . S
H577 C569 0.929 . S
H578 C586 0.929 . S
H579 C588 0.930 . S
H580 C590 0.930 . S
H581 C593 0.929 . S
H582 C596 0.930 . S
H583 C598 0.960 . S
H584 C598 0.960 . S
H585 C598 0.960 . S
C586 H578 0.929 . S
C586 C587 1.377 . S
C586 C588 1.384 . S
C587 C586 1.377 . S
C587 C593 1.390 . S
C588 H579 0.930 . S
C588 C586 1.384 . S
C588 C589 1.372 . S
C589 C588 1.372 . S
C589 C590 1.400 . S
C589 C594 1.490 . S
C590 H580 0.930 . S
C590 C589 1.400 . S
C590 C593 1.386 . S
H591 C607 0.930 . S
H592 C608 0.931 . S
C593 H581 0.929 . S
C593 C587 1.390 . S
C593 C590 1.386 . S
C594 C589 1.490 . S
C594 C596 1.395 . S
C594 C597 1.403 . S
H595 C601 0.930 . S
C596 H582 0.930 . S
C596 C594 1.395 . S
C596 C599 1.403 . S
C597 C594 1.403 . S
C597 C598 1.524 . S
C597 C601 1.400 . S
C598 H583 0.960 . S
C598 H584 0.960 . S
C598 H585 0.960 . S
C598 C597 1.524 . S
C599 C596 1.403 . S
C599 C600 1.392 . S
C599 C603 1.495 1_655 S
C600 C599 1.392 . S
C600 C601 1.385 . S
C600 C602 1.478 . S
C601 H595 0.930 . S
C601 C597 1.400 . S
C601 C600 1.385 . S
C602 C600 1.478 . S
C602 C604 1.381 . S
C602 C608 1.383 . S
C603 C599 1.495 1_455 S
C603 H609 0.959 . S
C603 H610 0.961 . S
C603 H611 0.960 . S
C604 C602 1.381 . S
C604 C605 1.394 . S
C604 H612 0.930 . S
C605 C604 1.394 . S
C605 C606 1.383 . S
C605 H613 0.928 1_655 S
C606 C605 1.383 . S
C606 C607 1.377 . S
C607 H591 0.930 . S
C607 C606 1.377 . S
C607 C608 1.379 . S
C608 H592 0.931 . S
C608 C602 1.383 . S
C608 C607 1.379 . S
H609 C603 0.959 . S
H610 C603 0.961 . S
H611 C603 0.960 . S
H612 C604 0.930 . S
H613 C605 0.928 1_455 S
H614 C622 0.929 . S
H615 C624 0.930 . S
H616 C626 0.930 . S
H617 C629 0.929 . S
H618 C632 0.930 . S
H619 C634 0.960 . S
H620 C634 0.960 . S
H621 C634 0.960 . S
C622 H614 0.929 . S
C622 C623 1.377 . S
C622 C624 1.384 . S
C623 C622 1.377 . S
C623 C629 1.390 . S
C624 H615 0.930 . S
C624 C622 1.384 . S
C624 C625 1.372 . S
C625 C624 1.372 . S
C625 C626 1.400 . S
C625 C630 1.490 . S
C626 H616 0.930 . S
C626 C625 1.400 . S
C626 C629 1.386 . S
H627 C643 0.930 . S
H628 C644 0.931 . S
C629 H617 0.929 . S
C629 C623 1.390 . S
C629 C626 1.386 . S
C630 C625 1.490 . S
C630 C632 1.395 . S
C630 C633 1.403 . S
H631 C637 0.930 . S
C632 H618 0.930 . S
C632 C630 1.395 . S
C632 C635 1.403 . S
C633 C630 1.403 . S
C633 C634 1.524 . S
C633 C637 1.400 . S
C634 H619 0.960 . S
C634 H620 0.960 . S
C634 H621 0.960 . S
C634 C633 1.524 . S
C635 C632 1.403 . S
C635 C636 1.392 . S
C635 C639 1.495 . S
C636 C635 1.392 . S
C636 C637 1.385 . S
C636 C638 1.478 . S
C637 H631 0.930 . S
C637 C633 1.400 . S
C637 C636 1.385 . S
C638 C636 1.478 . S
C638 C640 1.381 . S
C638 C644 1.383 . S
C639 C635 1.495 . S
C639 H645 0.959 . S
C639 H646 0.961 . S
C639 H647 0.960 . S
C640 C638 1.381 . S
C640 C641 1.394 . S
C640 H648 0.930 . S
C641 C640 1.394 . S
C641 C642 1.383 . S
C641 H649 0.929 . S
C642 C641 1.383 . S
C642 C643 1.377 . S
C643 H627 0.930 . S
C643 C642 1.377 . S
C643 C644 1.379 . S
C644 H628 0.931 . S
C644 C638 1.383 . S
C644 C643 1.379 . S
H645 C639 0.959 . S
H646 C639 0.961 . S
H647 C639 0.960 . S
H648 C640 0.930 . S
H649 C641 0.929 . S
H650 C658 0.929 . S
H651 C660 0.930 . S
H652 C662 0.930 . S
H653 C665 0.929 . S
H654 C668 0.930 . S
H655 C670 0.960 . S
H656 C670 0.960 . S
H657 C670 0.960 . S
C658 H650 0.929 . S
C658 C659 1.377 . S
C658 C660 1.384 . S
C659 C658 1.377 . S
C659 C665 1.390 . S
C660 H651 0.930 . S
C660 C658 1.384 . S
C660 C661 1.372 . S
C661 C660 1.372 . S
C661 C662 1.400 . S
C661 C666 1.490 . S
C662 H652 0.930 . S
C662 C661 1.400 . S
C662 C665 1.386 . S
H663 C679 0.930 . S
H664 C680 0.931 . S
C665 H653 0.929 . S
C665 C659 1.390 . S
C665 C662 1.386 . S
C666 C661 1.490 . S
C666 C668 1.395 . S
C666 C669 1.403 . S
H667 C673 0.930 . S
C668 H654 0.930 . S
C668 C666 1.395 . S
C668 C671 1.403 . S
C669 C666 1.403 . S
C669 C670 1.524 . S
C669 C673 1.400 . S
C670 H655 0.960 . S
C670 H656 0.960 . S
C670 H657 0.960 . S
C670 C669 1.524 . S
C671 C668 1.403 . S
C671 C672 1.392 . S
C671 C675 1.495 . S
C672 C671 1.392 . S
C672 C673 1.385 . S
C672 C674 1.478 . S
C673 H667 0.930 . S
C673 C669 1.400 . S
C673 C672 1.385 . S
C674 C672 1.478 . S
C674 C676 1.381 . S
C674 C680 1.383 . S
C675 C671 1.495 . S
C675 H681 0.959 . S
C675 H682 0.961 . S
C675 H683 0.960 . S
C676 C674 1.381 . S
C676 C677 1.394 . S
C676 H684 0.930 . S
C677 C676 1.394 . S
C677 C678 1.383 . S
C677 H685 0.929 . S
C678 C677 1.383 . S
C678 C679 1.377 . S
C679 H663 0.930 . S
C679 C678 1.377 . S
C679 C680 1.379 . S
C680 H664 0.931 . S
C680 C674 1.383 . S
C680 C679 1.379 . S
H681 C675 0.959 . S
H682 C675 0.961 . S
H683 C675 0.960 . S
H684 C676 0.930 . S
H685 C677 0.929 . S
H686 C694 0.929 . S
H687 C696 0.930 . S
H688 C698 0.930 . S
H689 C701 0.929 . S
H690 C704 0.930 1_455 S
H691 C706 0.960 . S
H692 C706 0.960 . S
H693 C706 0.960 . S
C694 H686 0.929 . S
C694 C695 1.377 . S
C694 C696 1.384 . S
C695 C694 1.377 . S
C695 C701 1.390 . S
C696 H687 0.930 . S
C696 C694 1.384 . S
C696 C697 1.372 . S
C697 C696 1.372 . S
C697 C698 1.400 . S
C697 C702 1.490 . S
C698 H688 0.930 . S
C698 C697 1.400 . S
C698 C701 1.386 . S
H699 C715 0.930 . S
H700 C716 0.931 . S
C701 H689 0.929 . S
C701 C695 1.390 . S
C701 C698 1.386 . S
C702 C697 1.490 . S
C702 C704 1.395 . S
C702 C705 1.403 . S
H703 C709 0.923 1_545 S
C704 H690 0.930 1_655 S
C704 C702 1.395 . S
C704 C707 1.403 1_665 S
C705 C702 1.403 . S
C705 C706 1.524 . S
C705 C709 1.400 . S
C706 H691 0.960 . S
C706 H692 0.960 . S
C706 H693 0.960 . S
C706 C705 1.524 . S
C707 C704 1.403 1_445 S
C707 C708 1.392 1_455 S
C707 C711 1.495 . S
C708 C707 1.392 1_655 S
C708 C709 1.385 1_545 S
C708 C710 1.478 . S
C709 H703 0.923 1_565 S
C709 C705 1.400 . S
C709 C708 1.385 1_565 S
C710 C708 1.478 . S
C710 C712 1.381 1_655 S
C710 C716 1.383 . S
C711 C707 1.495 . S
C711 H717 0.959 . S
C711 H718 0.961 . S
C711 H719 0.960 . S
C712 C710 1.381 1_455 S
C712 C713 1.394 . S
C712 H720 0.930 . S
C713 C712 1.394 . S
C713 C714 1.383 . S
C713 H721 0.929 . S
C714 C713 1.383 . S
C714 C715 1.377 1_455 S
C715 H699 0.930 . S
C715 C714 1.377 1_655 S
C715 C716 1.379 . S
C716 H700 0.931 . S
C716 C710 1.383 . S
C716 C715 1.379 . S
H717 C711 0.959 . S
H718 C711 0.961 . S
H719 C711 0.960 . S
H720 C712 0.930 . S
H721 C713 0.929 . S
H722 C730 0.929 . S
H723 C732 0.930 1_554 S
H724 C734 0.930 . S
H725 C737 0.929 . S
H726 C740 0.930 . S
H727 C742 0.960 . S
H728 C742 0.960 . S
H729 C742 0.960 . S
C730 H722 0.929 . S
C730 C731 1.377 . S
C730 C732 1.384 . S
C731 C730 1.377 . S
C731 C737 1.390 . S
C732 H723 0.930 1_556 S
C732 C730 1.384 . S
C732 C733 1.372 . S
C733 C732 1.372 . S
C733 C734 1.400 . S
C733 C738 1.490 1_556 S
C734 H724 0.930 . S
C734 C733 1.400 . S
C734 C737 1.386 . S
H735 C751 0.930 . S
H736 C752 0.931 . S
C737 H725 0.929 . S
C737 C731 1.390 . S
C737 C734 1.386 . S
C738 C733 1.490 1_554 S
C738 C740 1.395 . S
C738 C741 1.403 1_554 S
H739 C745 0.930 1_556 S
C740 H726 0.930 . S
C740 C738 1.395 . S
C740 C743 1.403 . S
C741 C738 1.403 1_556 S
C741 C742 1.524 . S
C741 C745 1.400 1_556 S
C742 H727 0.960 . S
C742 H728 0.960 . S
C742 H729 0.960 . S
C742 C741 1.524 . S
C743 C740 1.403 . S
C743 C744 1.392 . S
C743 C747 1.495 . S
C744 C743 1.392 . S
C744 C745 1.385 . S
C744 C746 1.478 . S
C745 H739 0.930 1_554 S
C745 C741 1.400 1_554 S
C745 C744 1.385 . S
C746 C744 1.478 . S
C746 C748 1.381 . S
C746 C752 1.383 . S
C747 C743 1.495 . S
C747 H753 0.959 . S
C747 H754 0.961 . S
C747 H755 0.960 . S
C748 C746 1.381 . S
C748 C749 1.394 . S
C748 H756 0.930 . S
C749 C748 1.394 . S
C749 C750 1.383 . S
C749 H757 0.929 . S
C750 C749 1.383 . S
C750 C751 1.377 . S
C751 H735 0.930 . S
C751 C750 1.377 . S
C751 C752 1.379 . S
C752 H736 0.931 . S
C752 C746 1.383 . S
C752 C751 1.379 . S
H753 C747 0.959 . S
H754 C747 0.961 . S
H755 C747 0.960 . S
H756 C748 0.930 . S
H757 C749 0.929 . S
H758 C766 0.929 . S
H759 C768 0.930 . S
H760 C770 0.930 . S
H761 C773 0.929 . S
H762 C776 0.930 . S
H763 C778 0.960 . S
H764 C778 0.960 . S
H765 C778 0.960 . S
C766 H758 0.929 . S
C766 C767 1.377 . S
C766 C768 1.384 . S
C767 C766 1.377 . S
C767 C773 1.390 . S
C768 H759 0.930 . S
C768 C766 1.384 . S
C768 C769 1.372 . S
C769 C768 1.372 . S
C769 C770 1.400 . S
C769 C774 1.490 . S
C770 H760 0.930 . S
C770 C769 1.400 . S
C770 C773 1.386 . S
H771 C787 0.930 . S
H772 C788 0.931 . S
C773 H761 0.929 . S
C773 C767 1.390 . S
C773 C770 1.386 . S
C774 C769 1.490 . S
C774 C776 1.395 . S
C774 C777 1.403 . S
H775 C781 0.930 . S
C776 H762 0.930 . S
C776 C774 1.395 . S
C776 C779 1.403 . S
C777 C774 1.403 . S
C777 C778 1.524 . S
C777 C781 1.400 . S
C778 H763 0.960 . S
C778 H764 0.960 . S
C778 H765 0.960 . S
C778 C777 1.524 . S
C779 C776 1.403 . S
C779 C780 1.392 . S
C779 C783 1.495 . S
C780 C779 1.392 . S
C780 C781 1.385 . S
C780 C782 1.478 . S
C781 H775 0.930 . S
C781 C777 1.400 . S
C781 C780 1.385 . S
C782 C780 1.478 . S
C782 C784 1.381 . S
C782 C788 1.383 . S
C783 C779 1.495 . S
C783 H789 0.959 . S
C783 H790 0.961 . S
C783 H791 0.960 . S
C784 C782 1.381 . S
C784 C785 1.394 . S
C784 H792 0.930 . S
C785 C784 1.394 . S
C785 C786 1.383 . S
C785 H793 0.929 . S
C786 C785 1.383 . S
C786 C787 1.377 . S
C787 H771 0.930 . S
C787 C786 1.377 . S
C787 C788 1.379 . S
C788 H772 0.931 . S
C788 C782 1.383 . S
C788 C787 1.379 . S
H789 C783 0.959 . S
H790 C783 0.961 . S
H791 C783 0.960 . S
H792 C784 0.930 . S
H793 C785 0.929 . S
H794 C802 0.929 . S
H795 C804 0.930 . S
H796 C806 0.930 . S
H797 C809 0.929 . S
H798 C812 0.930 . S
H799 C814 0.960 . S
H800 C814 0.960 . S
H801 C814 0.960 . S
C802 H794 0.929 . S
C802 C803 1.377 . S
C802 C804 1.384 . S
C803 C802 1.377 . S
C803 C809 1.390 . S
C804 H795 0.930 . S
C804 C802 1.384 . S
C804 C805 1.372 . S
C805 C804 1.372 . S
C805 C806 1.400 . S
C805 C810 1.490 . S
C806 H796 0.930 . S
C806 C805 1.400 . S
C806 C809 1.386 . S
H807 C823 0.930 . S
H808 C824 0.931 . S
C809 H797 0.929 . S
C809 C803 1.390 . S
C809 C806 1.386 . S
C810 C805 1.490 . S
C810 C812 1.395 . S
C810 C813 1.403 . S
H811 C817 0.930 . S
C812 H798 0.930 . S
C812 C810 1.395 . S
C812 C815 1.403 . S
C813 C810 1.403 . S
C813 C814 1.524 . S
C813 C817 1.400 . S
C814 H799 0.960 . S
C814 H800 0.960 . S
C814 H801 0.960 . S
C814 C813 1.524 . S
C815 C812 1.403 . S
C815 C816 1.392 . S
C815 C819 1.495 . S
C816 C815 1.392 . S
C816 C817 1.385 . S
C816 C818 1.478 . S
C817 H811 0.930 . S
C817 C813 1.400 . S
C817 C816 1.385 . S
C818 C816 1.478 . S
C818 C820 1.381 . S
C818 C824 1.383 . S
C819 C815 1.495 . S
C819 H825 0.959 . S
C819 H826 0.961 . S
C819 H827 0.960 . S
C820 C818 1.381 . S
C820 C821 1.394 . S
C820 H828 0.930 . S
C821 C820 1.394 . S
C821 C822 1.383 . S
C821 H829 0.929 . S
C822 C821 1.383 . S
C822 C823 1.377 . S
C823 H807 0.930 . S
C823 C822 1.377 . S
C823 C824 1.379 . S
C824 H808 0.931 . S
C824 C818 1.383 . S
C824 C823 1.379 . S
H825 C819 0.959 . S
H826 C819 0.961 . S
H827 C819 0.960 . S
H828 C820 0.930 . S
H829 C821 0.929 . S
H830 C838 0.929 . S
H831 C840 0.930 . S
H832 C842 0.930 . S
H833 C845 0.929 . S
H834 C848 0.930 . S
H835 C850 0.960 . S
H836 C850 0.960 . S
H837 C850 0.960 . S
C838 H830 0.929 . S
C838 C839 1.377 . S
C838 C840 1.384 . S
C839 C838 1.377 . S
C839 C845 1.390 . S
C840 H831 0.930 . S
C840 C838 1.384 . S
C840 C841 1.372 . S
C841 C840 1.372 . S
C841 C842 1.400 . S
C841 C846 1.490 . S
C842 H832 0.930 . S
C842 C841 1.400 . S
C842 C845 1.386 . S
H843 C859 0.930 . S
H844 C860 0.931 . S
C845 H833 0.929 . S
C845 C839 1.390 . S
C845 C842 1.386 . S
C846 C841 1.490 . S
C846 C848 1.395 . S
C846 C849 1.403 . S
H847 C853 0.930 . S
C848 H834 0.930 . S
C848 C846 1.395 . S
C848 C851 1.403 . S
C849 C846 1.403 . S
C849 C850 1.524 . S
C849 C853 1.400 . S
C850 H835 0.960 . S
C850 H836 0.960 . S
C850 H837 0.960 . S
C850 C849 1.524 . S
C851 C848 1.403 . S
C851 C852 1.392 . S
C851 C855 1.495 . S
C852 C851 1.392 . S
C852 C853 1.385 . S
C852 C854 1.478 . S
C853 H847 0.930 . S
C853 C849 1.400 . S
C853 C852 1.385 . S
C854 C852 1.478 . S
C854 C856 1.381 . S
C854 C860 1.383 . S
C855 C851 1.495 . S
C855 H861 0.959 . S
C855 H862 0.961 . S
C855 H863 0.960 . S
C856 C854 1.381 . S
C856 C857 1.394 1_655 S
C856 H864 0.930 1_655 S
C857 C856 1.394 1_455 S
C857 C858 1.383 1_455 S
C857 H865 0.929 . S
C858 C857 1.383 1_655 S
C858 C859 1.377 . S
C859 H843 0.930 . S
C859 C858 1.377 . S
C859 C860 1.379 . S
C860 H844 0.931 . S
C860 C854 1.383 . S
C860 C859 1.379 . S
H861 C855 0.959 . S
H862 C855 0.961 . S
H863 C855 0.960 . S
H864 C856 0.930 1_455 S
H865 C857 0.929 . S
H866 C874 0.929 . S
H867 C876 0.930 . S
H868 C878 0.930 . S
H869 C881 0.929 . S
H870 C884 0.930 . S
H871 C886 0.960 . S
H872 C886 0.960 . S
H873 C886 0.960 . S
C874 H866 0.929 . S
C874 C875 1.377 . S
C874 C876 1.384 . S
C875 C874 1.377 . S
C875 C881 1.390 . S
C876 H867 0.930 . S
C876 C874 1.384 . S
C876 C877 1.372 . S
C877 C876 1.372 . S
C877 C878 1.400 . S
C877 C882 1.490 . S
C878 H868 0.930 . S
C878 C877 1.400 . S
C878 C881 1.386 . S
H879 C895 0.930 . S
H880 C896 0.931 . S
C881 H869 0.929 . S
C881 C875 1.390 . S
C881 C878 1.386 . S
C882 C877 1.490 . S
C882 C884 1.395 . S
C882 C885 1.403 . S
H883 C889 0.930 . S
C884 H870 0.930 . S
C884 C882 1.395 . S
C884 C887 1.403 . S
C885 C882 1.403 . S
C885 C886 1.524 . S
C885 C889 1.400 . S
C886 H871 0.960 . S
C886 H872 0.960 . S
C886 H873 0.960 . S
C886 C885 1.524 . S
C887 C884 1.403 . S
C887 C888 1.392 . S
C887 C891 1.495 . S
C888 C887 1.392 . S
C888 C889 1.385 . S
C888 C890 1.478 . S
C889 H883 0.930 . S
C889 C885 1.400 . S
C889 C888 1.385 . S
C890 C888 1.478 . S
C890 C892 1.381 . S
C890 C896 1.383 . S
C891 C887 1.495 . S
C891 H897 0.959 . S
C891 H898 0.961 . S
C891 H899 0.960 . S
C892 C890 1.381 . S
C892 C893 1.394 . S
C892 H900 0.930 . S
C893 C892 1.394 . S
C893 C894 1.383 . S
C893 H901 0.929 . S
C894 C893 1.383 . S
C894 C895 1.377 . S
C895 H879 0.930 . S
C895 C894 1.377 . S
C895 C896 1.379 . S
C896 H880 0.931 . S
C896 C890 1.383 . S
C896 C895 1.379 . S
H897 C891 0.959 . S
H898 C891 0.961 . S
H899 C891 0.960 . S
H900 C892 0.930 . S
H901 C893 0.929 . S
H902 C910 0.929 . S
H903 C912 0.930 . S
H904 C914 0.930 . S
H905 C917 0.929 . S
H906 C920 0.930 . S
H907 C922 0.960 . S
H908 C922 0.960 . S
H909 C922 0.960 . S
C910 H902 0.929 . S
C910 C911 1.377 1_455 S
C910 C912 1.384 . S
C911 C910 1.377 1_655 S
C911 C917 1.390 . S
C912 H903 0.930 . S
C912 C910 1.384 . S
C912 C913 1.372 1_455 S
C913 C912 1.372 1_655 S
C913 C914 1.400 . S
C913 C918 1.490 . S
C914 H904 0.930 . S
C914 C913 1.400 . S
C914 C917 1.386 . S
H915 C931 0.930 . S
H916 C932 0.931 . S
C917 H905 0.929 . S
C917 C911 1.390 . S
C917 C914 1.386 . S
C918 C913 1.490 . S
C918 C920 1.395 1_655 S
C918 C921 1.403 . S
H919 C925 0.930 . S
C920 H906 0.930 . S
C920 C918 1.395 1_455 S
C920 C923 1.403 . S
C921 C918 1.403 . S
C921 C922 1.524 . S
C921 C925 1.400 . S
C922 H907 0.960 . S
C922 H908 0.960 . S
C922 H909 0.960 . S
C922 C921 1.524 . S
C923 C920 1.403 . S
C923 C924 1.392 . S
C923 C927 1.495 . S
C924 C923 1.392 . S
C924 C925 1.385 1_455 S
C924 C926 1.478 . S
C925 H919 0.930 . S
C925 C921 1.400 . S
C925 C924 1.385 1_655 S
C926 C924 1.478 . S
C926 C928 1.381 . S
C926 C932 1.383 1_455 S
C927 C923 1.495 . S
C927 H933 0.959 . S
C927 H934 0.961 . S
C927 H935 0.960 . S
C928 C926 1.381 . S
C928 C929 1.394 . S
C928 H936 0.930 . S
C929 C928 1.394 . S
C929 C930 1.383 . S
C929 H937 0.929 . S
C930 C929 1.383 . S
C930 C931 1.377 1_455 S
C931 H915 0.930 . S
C931 C930 1.377 1_655 S
C931 C932 1.379 . S
C932 H916 0.931 . S
C932 C926 1.383 1_655 S
C932 C931 1.379 . S
H933 C927 0.959 . S
H934 C927 0.961 . S
H935 C927 0.960 . S
H936 C928 0.930 . S
H937 C929 0.929 . S
H938 C946 0.929 . S
H939 C948 0.930 . S
H940 C950 0.930 . S
H941 C953 0.929 . S
H942 C956 0.930 . S
H943 C958 0.960 . S
H944 C958 0.960 . S
H945 C958 0.960 . S
C946 H938 0.929 . S
C946 C947 1.377 . S
C946 C948 1.384 . S
C947 C946 1.377 . S
C947 C953 1.390 . S
C948 H939 0.930 . S
C948 C946 1.384 . S
C948 C949 1.372 . S
C949 C948 1.372 . S
C949 C950 1.400 . S
C949 C954 1.490 . S
C950 H940 0.930 . S
C950 C949 1.400 . S
C950 C953 1.386 . S
H951 C967 0.930 . S
H952 C968 0.931 . S
C953 H941 0.929 . S
C953 C947 1.390 . S
C953 C950 1.386 . S
C954 C949 1.490 . S
C954 C956 1.395 . S
C954 C957 1.403 . S
H955 C961 0.930 . S
C956 H942 0.930 . S
C956 C954 1.395 . S
C956 C959 1.403 . S
C957 C954 1.403 . S
C957 C958 1.524 . S
C957 C961 1.400 . S
C958 H943 0.960 . S
C958 H944 0.960 . S
C958 H945 0.960 . S
C958 C957 1.524 . S
C959 C956 1.403 . S
C959 C960 1.392 . S
C959 C963 1.495 . S
C960 C959 1.392 . S
C960 C961 1.385 . S
C960 C962 1.478 . S
C961 H955 0.930 . S
C961 C957 1.400 . S
C961 C960 1.385 . S
C962 C960 1.478 . S
C962 C964 1.381 . S
C962 C968 1.383 . S
C963 C959 1.495 . S
C963 H969 0.959 . S
C963 H970 0.961 . S
C963 H971 0.960 . S
C964 C962 1.381 . S
C964 C965 1.394 . S
C964 H972 0.930 . S
C965 C964 1.394 . S
C965 C966 1.383 . S
C965 H973 0.929 . S
C966 C965 1.383 . S
C966 C967 1.377 . S
C967 H951 0.930 . S
C967 C966 1.377 . S
C967 C968 1.379 . S
C968 H952 0.931 . S
C968 C962 1.383 . S
C968 C967 1.379 . S
H969 C963 0.959 . S
H970 C963 0.961 . S
H971 C963 0.960 . S
H972 C964 0.930 . S
H973 C965 0.929 . S
H974 C982 0.929 . S
H975 C984 0.930 . S
H976 C986 0.930 . S
H977 C989 0.929 . S
H978 C992 0.930 . S
H979 C994 0.960 . S
H980 C994 0.960 . S
H981 C994 0.960 . S
C982 H974 0.929 . S
C982 C983 1.377 . S
C982 C984 1.384 . S
C983 C982 1.377 . S
C983 C989 1.390 . S
C984 H975 0.930 . S
C984 C982 1.384 . S
C984 C985 1.372 . S
C985 C984 1.372 . S
C985 C986 1.400 . S
C985 C990 1.490 . S
C986 H976 0.930 . S
C986 C985 1.400 . S
C986 C989 1.386 . S
H987 C1003 0.930 . S
H988 C1004 0.931 . S
C989 H977 0.929 . S
C989 C983 1.390 . S
C989 C986 1.386 . S
C990 C985 1.490 . S
C990 C992 1.395 . S
C990 C993 1.403 . S
H991 C997 0.930 . S
C992 H978 0.930 . S
C992 C990 1.395 . S
C992 C995 1.403 . S
C993 C990 1.403 . S
C993 C994 1.524 . S
C993 C997 1.400 . S
C994 H979 0.960 . S
C994 H980 0.960 . S
C994 H981 0.960 . S
C994 C993 1.524 . S
C995 C992 1.403 . S
C995 C996 1.392 . S
C995 C999 1.495 . S
C996 C995 1.392 . S
C996 C997 1.385 . S
C996 C998 1.478 . S
C997 H991 0.930 . S
C997 C993 1.400 . S
C997 C996 1.385 . S
C998 C996 1.478 . S
C998 C1000 1.381 . S
C998 C1004 1.383 . S
C999 C995 1.495 . S
C999 H1005 0.959 . S
C999 H1006 0.961 . S
C999 H1007 0.960 . S
C1000 C998 1.381 . S
C1000 C1001 1.394 . S
C1000 H1008 0.930 . S
C1001 C1000 1.394 . S
C1001 C1002 1.383 . S
C1001 H1009 0.929 . S
C1002 C1001 1.383 . S
C1002 C1003 1.377 . S
C1003 H987 0.930 . S
C1003 C1002 1.377 . S
C1003 C1004 1.379 . S
C1004 H988 0.931 . S
C1004 C998 1.383 . S
C1004 C1003 1.379 . S
H1005 C999 0.959 . S
H1006 C999 0.961 . S
H1007 C999 0.960 . S
H1008 C1000 0.930 . S
H1009 C1001 0.929 . S
H1010 C1018 0.929 . S
H1011 C1020 0.930 . S
H1012 C1022 0.930 . S
H1013 C1025 0.929 . S
H1014 C1028 0.930 . S
H1015 C1030 0.960 . S
H1016 C1030 0.960 . S
H1017 C1030 0.960 . S
C1018 H1010 0.929 . S
C1018 C1019 1.377 . S
C1018 C1020 1.384 . S
C1019 C1018 1.377 . S
C1019 C1025 1.390 . S
C1020 H1011 0.930 . S
C1020 C1018 1.384 . S
C1020 C1021 1.372 . S
C1021 C1020 1.372 . S
C1021 C1022 1.400 . S
C1021 C1026 1.490 . S
C1022 H1012 0.930 . S
C1022 C1021 1.400 . S
C1022 C1025 1.386 . S
H1023 C1039 0.930 . S
H1024 C1040 0.931 . S
C1025 H1013 0.929 . S
C1025 C1019 1.390 . S
C1025 C1022 1.386 . S
C1026 C1021 1.490 . S
C1026 C1028 1.395 . S
C1026 C1029 1.403 . S
H1027 C1033 0.930 . S
C1028 H1014 0.930 . S
C1028 C1026 1.395 . S
C1028 C1031 1.403 . S
C1029 C1026 1.403 . S
C1029 C1030 1.524 . S
C1029 C1033 1.400 . S
C1030 H1015 0.960 . S
C1030 H1016 0.960 . S
C1030 H1017 0.960 . S
C1030 C1029 1.524 . S
C1031 C1028 1.403 . S
C1031 C1032 1.392 . S
C1031 C1035 1.495 . S
C1032 C1031 1.392 . S
C1032 C1033 1.385 . S
C1032 C1034 1.478 . S
C1033 H1027 0.930 . S
C1033 C1029 1.400 . S
C1033 C1032 1.385 . S
C1034 C1032 1.478 . S
C1034 C1036 1.381 . S
C1034 C1040 1.383 . S
C1035 C1031 1.495 . S
C1035 H1041 0.959 . S
C1035 H1042 0.961 . S
C1035 H1043 0.960 . S
C1036 C1034 1.381 . S
C1036 C1037 1.394 . S
C1036 H1044 0.930 . S
C1037 C1036 1.394 . S
C1037 C1038 1.383 . S
C1037 H1045 0.929 . S
C1038 C1037 1.383 . S
C1038 C1039 1.377 . S
C1039 H1023 0.930 . S
C1039 C1038 1.377 . S
C1039 C1040 1.379 . S
C1040 H1024 0.931 . S
C1040 C1034 1.383 . S
C1040 C1039 1.379 . S
H1041 C1035 0.959 . S
H1042 C1035 0.961 . S
H1043 C1035 0.960 . S
H1044 C1036 0.930 . S
H1045 C1037 0.929 . S
H1046 C1054 0.929 . S
H1047 C1056 0.930 . S
H1048 C1058 0.930 . S
H1049 C1061 0.929 . S
H1050 C1064 0.930 . S
H1051 C1066 0.960 . S
H1052 C1066 0.960 . S
H1053 C1066 0.960 1_455 S
C1054 H1046 0.929 . S
C1054 C1055 1.377 . S
C1054 C1056 1.384 . S
C1055 C1054 1.377 . S
C1055 C1061 1.390 1_655 S
C1056 H1047 0.930 . S
C1056 C1054 1.384 . S
C1056 C1057 1.364 1_655 S
C1057 C1056 1.364 1_455 S
C1057 C1058 1.407 . S
C1057 C1062 1.490 . S
C1058 H1048 0.930 . S
C1058 C1057 1.407 . S
C1058 C1061 1.386 . S
H1059 C1075 0.930 . S
H1060 C1076 0.931 . S
C1061 H1049 0.929 . S
C1061 C1055 1.390 1_455 S
C1061 C1058 1.386 . S
C1062 C1057 1.490 . S
C1062 C1064 1.395 . S
C1062 C1065 1.403 1_455 S
H1063 C1069 0.931 1_655 S
C1064 H1050 0.930 . S
C1064 C1062 1.395 . S
C1064 C1067 1.403 1_565 S
C1065 C1062 1.403 1_655 S
C1065 C1066 1.524 . S
C1065 C1069 1.400 1_655 S
C1066 H1051 0.960 . S
C1066 H1052 0.960 . S
C1066 H1053 0.960 1_655 S
C1066 C1065 1.524 . S
C1067 C1064 1.403 1_545 S
C1067 C1068 1.392 . S
C1067 C1071 1.495 . S
C1068 C1067 1.392 . S
C1068 C1069 1.385 1_545 S
C1068 C1070 1.478 . S
C1069 H1063 0.931 1_455 S
C1069 C1065 1.400 1_455 S
C1069 C1068 1.385 1_565 S
C1070 C1068 1.478 . S
C1070 C1072 1.381 1_455 S
C1070 C1076 1.383 . S
C1071 C1067 1.495 . S
C1071 H1077 0.959 . S
C1071 H1078 0.961 . S
C1071 H1079 0.960 . S
C1072 C1070 1.381 1_655 S
C1072 C1073 1.394 . S
C1072 H1080 0.930 . S
C1073 C1072 1.394 . S
C1073 C1074 1.383 1_655 S
C1073 H1081 0.929 . S
C1074 C1073 1.383 1_455 S
C1074 C1075 1.377 . S
C1075 H1059 0.930 . S
C1075 C1074 1.377 . S
C1075 C1076 1.379 . S
C1076 H1060 0.931 . S
C1076 C1070 1.383 . S
C1076 C1075 1.379 . S
H1077 C1071 0.959 . S
H1078 C1071 0.961 . S
H1079 C1071 0.960 . S
H1080 C1072 0.930 . S
H1081 C1073 0.929 . S
H1082 C1090 0.929 . S
H1083 C1092 0.930 . S
H1084 C1094 0.930 . S
H1085 C1097 0.929 . S
H1086 C1100 0.930 . S
H1087 C1102 0.960 . S
H1088 C1102 0.960 . S
H1089 C1102 0.960 . S
C1090 H1082 0.929 . S
C1090 C1091 1.377 . S
C1090 C1092 1.384 . S
C1091 C1090 1.377 . S
C1091 C1097 1.390 . S
C1092 H1083 0.930 . S
C1092 C1090 1.384 . S
C1092 C1093 1.372 . S
C1093 C1092 1.372 . S
C1093 C1094 1.400 . S
C1093 C1098 1.490 . S
C1094 H1084 0.930 . S
C1094 C1093 1.400 . S
C1094 C1097 1.386 . S
H1095 C1111 0.930 . S
H1096 C1112 0.931 . S
C1097 H1085 0.929 . S
C1097 C1091 1.390 . S
C1097 C1094 1.386 . S
C1098 C1093 1.490 . S
C1098 C1100 1.395 . S
C1098 C1101 1.403 . S
H1099 C1105 0.930 . S
C1100 H1086 0.930 . S
C1100 C1098 1.395 . S
C1100 C1103 1.403 . S
C1101 C1098 1.403 . S
C1101 C1102 1.524 . S
C1101 C1105 1.400 . S
C1102 H1087 0.960 . S
C1102 H1088 0.960 . S
C1102 H1089 0.960 . S
C1102 C1101 1.524 . S
C1103 C1100 1.403 . S
C1103 C1104 1.392 . S
C1103 C1107 1.495 . S
C1104 C1103 1.392 . S
C1104 C1105 1.385 . S
C1104 C1106 1.478 . S
C1105 H1099 0.930 . S
C1105 C1101 1.400 . S
C1105 C1104 1.385 . S
C1106 C1104 1.478 . S
C1106 C1108 1.381 . S
C1106 C1112 1.383 . S
C1107 C1103 1.495 . S
C1107 H1113 0.959 . S
C1107 H1114 0.961 . S
C1107 H1115 0.960 . S
C1108 C1106 1.381 . S
C1108 C1109 1.394 . S
C1108 H1116 0.930 . S
C1109 C1108 1.394 . S
C1109 C1110 1.383 . S
C1109 H1117 0.929 . S
C1110 C1109 1.383 . S
C1110 C1111 1.377 . S
C1111 H1095 0.930 . S
C1111 C1110 1.377 . S
C1111 C1112 1.379 . S
C1112 H1096 0.931 . S
C1112 C1106 1.383 . S
C1112 C1111 1.379 . S
H1113 C1107 0.959 . S
H1114 C1107 0.961 . S
H1115 C1107 0.960 . S
H1116 C1108 0.930 . S
H1117 C1109 0.929 . S
H1118 C1126 0.929 . S
H1119 C1128 0.930 . S
H1120 C1130 0.930 . S
H1121 C1133 0.929 . S
H1122 C1136 0.930 . S
H1123 C1138 0.960 . S
H1124 C1138 0.960 . S
H1125 C1138 0.960 . S
C1126 H1118 0.929 . S
C1126 C1127 1.377 . S
C1126 C1128 1.384 . S
C1127 C1126 1.377 . S
C1127 C1133 1.390 . S
C1128 H1119 0.930 . S
C1128 C1126 1.384 . S
C1128 C1129 1.372 . S
C1129 C1128 1.372 . S
C1129 C1130 1.400 . S
C1129 C1134 1.490 . S
C1130 H1120 0.930 . S
C1130 C1129 1.400 . S
C1130 C1133 1.386 . S
H1131 C1147 0.930 . S
H1132 C1148 0.931 . S
C1133 H1121 0.929 . S
C1133 C1127 1.390 . S
C1133 C1130 1.386 . S
C1134 C1129 1.490 . S
C1134 C1136 1.395 . S
C1134 C1137 1.403 . S
H1135 C1141 0.930 . S
C1136 H1122 0.930 . S
C1136 C1134 1.395 . S
C1136 C1139 1.403 . S
C1137 C1134 1.403 . S
C1137 C1138 1.524 . S
C1137 C1141 1.400 . S
C1138 H1123 0.960 . S
C1138 H1124 0.960 . S
C1138 H1125 0.960 . S
C1138 C1137 1.524 . S
C1139 C1136 1.403 . S
C1139 C1140 1.392 . S
C1139 C1143 1.495 . S
C1140 C1139 1.392 . S
C1140 C1141 1.385 . S
C1140 C1142 1.478 . S
C1141 H1135 0.930 . S
C1141 C1137 1.400 . S
C1141 C1140 1.385 . S
C1142 C1140 1.478 . S
C1142 C1144 1.381 . S
C1142 C1148 1.383 . S
C1143 C1139 1.495 . S
C1143 H1149 0.959 . S
C1143 H1150 0.961 . S
C1143 H1151 0.960 . S
C1144 C1142 1.381 . S
C1144 C1145 1.394 . S
C1144 H1152 0.930 . S
C1145 C1144 1.394 . S
C1145 C1146 1.383 . S
C1145 H1153 0.929 . S
C1146 C1145 1.383 . S
C1146 C1147 1.377 . S
C1147 H1131 0.930 . S
C1147 C1146 1.377 . S
C1147 C1148 1.379 . S
C1148 H1132 0.931 . S
C1148 C1142 1.383 . S
C1148 C1147 1.379 . S
H1149 C1143 0.959 . S
H1150 C1143 0.961 . S
H1151 C1143 0.960 . S
H1152 C1144 0.930 . S
H1153 C1145 0.929 . S
H1154 C1162 0.929 . S
H1155 C1164 0.930 . S
H1156 C1166 0.930 . S
H1157 C1169 0.929 . S
H1158 C1172 0.930 . S
H1159 C1174 0.960 . S
H1160 C1174 0.960 . S
H1161 C1174 0.960 . S
C1162 H1154 0.929 . S
C1162 C1163 1.377 . S
C1162 C1164 1.384 . S
C1163 C1162 1.377 . S
C1163 C1169 1.390 . S
C1164 H1155 0.930 . S
C1164 C1162 1.384 . S
C1164 C1165 1.372 . S
C1165 C1164 1.372 . S
C1165 C1166 1.400 . S
C1165 C1170 1.490 . S
C1166 H1156 0.930 . S
C1166 C1165 1.400 . S
C1166 C1169 1.386 . S
H1167 C1183 0.930 . S
H1168 C1184 0.931 . S
C1169 H1157 0.929 . S
C1169 C1163 1.390 . S
C1169 C1166 1.386 . S
C1170 C1165 1.490 . S
C1170 C1172 1.395 . S
C1170 C1173 1.403 . S
H1171 C1177 0.930 . S
C1172 H1158 0.930 . S
C1172 C1170 1.395 . S
C1172 C1175 1.403 . S
C1173 C1170 1.403 . S
C1173 C1174 1.524 . S
C1173 C1177 1.400 . S
C1174 H1159 0.960 . S
C1174 H1160 0.960 . S
C1174 H1161 0.960 . S
C1174 C1173 1.524 . S
C1175 C1172 1.403 . S
C1175 C1176 1.392 . S
C1175 C1179 1.495 . S
C1176 C1175 1.392 . S
C1176 C1177 1.385 . S
C1176 C1178 1.478 . S
C1177 H1171 0.930 . S
C1177 C1173 1.400 . S
C1177 C1176 1.385 . S
C1178 C1176 1.478 . S
C1178 C1180 1.381 . S
C1178 C1184 1.383 . S
C1179 C1175 1.495 . S
C1179 H1185 0.959 . S
C1179 H1186 0.961 . S
C1179 H1187 0.960 . S
C1180 C1178 1.381 . S
C1180 C1181 1.394 . S
C1180 H1188 0.930 . S
C1181 C1180 1.394 . S
C1181 C1182 1.383 . S
C1181 H1189 0.929 . S
C1182 C1181 1.383 . S
C1182 C1183 1.377 . S
C1183 H1167 0.930 . S
C1183 C1182 1.377 . S
C1183 C1184 1.379 . S
C1184 H1168 0.931 . S
C1184 C1178 1.383 . S
C1184 C1183 1.379 . S
H1185 C1179 0.959 . S
H1186 C1179 0.961 . S
H1187 C1179 0.960 . S
H1188 C1180 0.930 . S
H1189 C1181 0.929 . S
H1190 C1198 0.929 . S
H1191 C1200 0.930 . S
H1192 C1202 0.930 . S
H1193 C1205 0.929 . S
H1194 C1208 0.930 . S
H1195 C1210 0.960 . S
H1196 C1210 0.960 . S
H1197 C1210 0.960 . S
C1198 H1190 0.929 . S
C1198 C1199 1.377 . S
C1198 C1200 1.384 . S
C1199 C1198 1.377 . S
C1199 C1205 1.390 . S
C1200 H1191 0.930 . S
C1200 C1198 1.384 . S
C1200 C1201 1.372 . S
C1201 C1200 1.372 . S
C1201 C1202 1.400 . S
C1201 C1206 1.490 . S
C1202 H1192 0.930 . S
C1202 C1201 1.400 . S
C1202 C1205 1.386 . S
H1203 C1219 0.930 . S
H1204 C1220 0.931 . S
C1205 H1193 0.929 . S
C1205 C1199 1.390 . S
C1205 C1202 1.386 . S
C1206 C1201 1.490 . S
C1206 C1208 1.395 . S
C1206 C1209 1.403 . S
H1207 C1213 0.930 . S
C1208 H1194 0.930 . S
C1208 C1206 1.395 . S
C1208 C1211 1.403 . S
C1209 C1206 1.403 . S
C1209 C1210 1.524 . S
C1209 C1213 1.400 . S
C1210 H1195 0.960 . S
C1210 H1196 0.960 . S
C1210 H1197 0.960 . S
C1210 C1209 1.524 . S
C1211 C1208 1.403 . S
C1211 C1212 1.392 . S
C1211 C1215 1.495 . S
C1212 C1211 1.392 . S
C1212 C1213 1.385 . S
C1212 C1214 1.478 . S
C1213 H1207 0.930 . S
C1213 C1209 1.400 . S
C1213 C1212 1.385 . S
C1214 C1212 1.478 . S
C1214 C1216 1.381 . S
C1214 C1220 1.383 . S
C1215 C1211 1.495 . S
C1215 H1221 0.959 . S
C1215 H1222 0.961 . S
C1215 H1223 0.960 . S
C1216 C1214 1.381 . S
C1216 C1217 1.394 . S
C1216 H1224 0.930 . S
C1217 C1216 1.394 . S
C1217 C1218 1.383 . S
C1217 H1225 0.929 . S
C1218 C1217 1.383 . S
C1218 C1219 1.377 . S
C1219 H1203 0.930 . S
C1219 C1218 1.377 . S
C1219 C1220 1.379 . S
C1220 H1204 0.931 . S
C1220 C1214 1.383 . S
C1220 C1219 1.379 . S
H1221 C1215 0.959 . S
H1222 C1215 0.961 . S
H1223 C1215 0.960 . S
H1224 C1216 0.930 . S
H1225 C1217 0.929 . S
H1226 C1234 0.929 . S
H1227 C1236 0.930 . S
H1228 C1238 0.930 . S
H1229 C1241 0.929 . S
H1230 C1244 0.930 . S
H1231 C1246 0.960 . S
H1232 C1246 0.960 . S
H1233 C1246 0.960 . S
C1234 H1226 0.929 . S
C1234 C1235 1.377 . S
C1234 C1236 1.384 . S
C1235 C1234 1.377 . S
C1235 C1241 1.390 . S
C1236 H1227 0.930 . S
C1236 C1234 1.384 . S
C1236 C1237 1.372 . S
C1237 C1236 1.372 . S
C1237 C1238 1.400 . S
C1237 C1242 1.490 . S
C1238 H1228 0.930 . S
C1238 C1237 1.400 . S
C1238 C1241 1.386 . S
H1239 C1255 0.930 . S
H1240 C1256 0.931 . S
C1241 H1229 0.929 . S
C1241 C1235 1.390 . S
C1241 C1238 1.386 . S
C1242 C1237 1.490 . S
C1242 C1244 1.395 . S
C1242 C1245 1.403 . S
H1243 C1249 0.930 . S
C1244 H1230 0.930 . S
C1244 C1242 1.395 . S
C1244 C1247 1.403 . S
C1245 C1242 1.403 . S
C1245 C1246 1.524 . S
C1245 C1249 1.400 . S
C1246 H1231 0.960 . S
C1246 H1232 0.960 . S
C1246 H1233 0.960 . S
C1246 C1245 1.524 . S
C1247 C1244 1.403 . S
C1247 C1248 1.392 . S
C1247 C1251 1.495 . S
C1248 C1247 1.392 . S
C1248 C1249 1.385 . S
C1248 C1250 1.478 . S
C1249 H1243 0.930 . S
C1249 C1245 1.400 . S
C1249 C1248 1.385 . S
C1250 C1248 1.478 . S
C1250 C1252 1.381 . S
C1250 C1256 1.383 . S
C1251 C1247 1.495 . S
C1251 H1257 0.959 . S
C1251 H1258 0.961 . S
C1251 H1259 0.960 . S
C1252 C1250 1.381 . S
C1252 C1253 1.394 . S
C1252 H1260 0.930 . S
C1253 C1252 1.394 . S
C1253 C1254 1.383 . S
C1253 H1261 0.929 . S
C1254 C1253 1.383 . S
C1254 C1255 1.377 . S
C1255 H1239 0.930 . S
C1255 C1254 1.377 . S
C1255 C1256 1.379 . S
C1256 H1240 0.931 . S
C1256 C1250 1.383 . S
C1256 C1255 1.379 . S
H1257 C1251 0.959 . S
H1258 C1251 0.961 . S
H1259 C1251 0.960 . S
H1260 C1252 0.930 . S
H1261 C1253 0.929 . S
H1262 C1270 0.929 . S
H1263 C1272 0.930 . S
H1264 C1274 0.930 . S
H1265 C1277 0.929 . S
H1266 C1280 0.930 . S
H1267 C1282 0.960 . S
H1268 C1282 0.960 . S
H1269 C1282 0.960 . S
C1270 H1262 0.929 . S
C1270 C1271 1.377 . S
C1270 C1272 1.384 . S
C1271 C1270 1.377 . S
C1271 C1277 1.390 . S
C1272 H1263 0.930 . S
C1272 C1270 1.384 . S
C1272 C1273 1.372 . S
C1273 C1272 1.372 . S
C1273 C1274 1.400 . S
C1273 C1278 1.490 . S
C1274 H1264 0.930 . S
C1274 C1273 1.400 . S
C1274 C1277 1.386 . S
H1275 C1291 0.930 . S
H1276 C1292 0.931 . S
C1277 H1265 0.929 . S
C1277 C1271 1.390 . S
C1277 C1274 1.386 . S
C1278 C1273 1.490 . S
C1278 C1280 1.395 . S
C1278 C1281 1.403 . S
H1279 C1285 0.930 . S
C1280 H1266 0.930 . S
C1280 C1278 1.395 . S
C1280 C1283 1.403 . S
C1281 C1278 1.403 . S
C1281 C1282 1.524 . S
C1281 C1285 1.400 . S
C1282 H1267 0.960 . S
C1282 H1268 0.960 . S
C1282 H1269 0.960 . S
C1282 C1281 1.524 . S
C1283 C1280 1.403 . S
C1283 C1284 1.392 . S
C1283 C1287 1.495 . S
C1284 C1283 1.392 . S
C1284 C1285 1.385 . S
C1284 C1286 1.478 . S
C1285 H1279 0.930 . S
C1285 C1281 1.400 . S
C1285 C1284 1.385 . S
C1286 C1284 1.478 . S
C1286 C1288 1.381 . S
C1286 C1292 1.383 . S
C1287 C1283 1.495 . S
C1287 H1293 0.959 . S
C1287 H1294 0.961 . S
C1287 H1295 0.960 . S
C1288 C1286 1.381 . S
C1288 C1289 1.394 . S
C1288 H1296 0.930 . S
C1289 C1288 1.394 . S
C1289 C1290 1.383 . S
C1289 H1297 0.929 . S
C1290 C1289 1.383 . S
C1290 C1291 1.377 . S
C1291 H1275 0.930 . S
C1291 C1290 1.377 . S
C1291 C1292 1.379 . S
C1292 H1276 0.931 . S
C1292 C1286 1.383 . S
C1292 C1291 1.379 . S
H1293 C1287 0.959 . S
H1294 C1287 0.961 . S
H1295 C1287 0.960 . S
H1296 C1288 0.930 . S
H1297 C1289 0.929 . S
H1298 C1306 0.929 . S
H1299 C1308 0.930 . S
H1300 C1310 0.930 . S
H1301 C1313 0.929 . S
H1302 C1316 0.930 . S
H1303 C1318 0.960 . S
H1304 C1318 0.960 . S
H1305 C1318 0.960 . S
C1306 H1298 0.929 . S
C1306 C1307 1.377 . S
C1306 C1308 1.384 . S
C1307 C1306 1.377 . S
C1307 C1313 1.390 . S
C1308 H1299 0.930 . S
C1308 C1306 1.384 . S
C1308 C1309 1.372 . S
C1309 C1308 1.372 . S
C1309 C1310 1.400 . S
C1309 C1314 1.490 . S
C1310 H1300 0.930 . S
C1310 C1309 1.400 . S
C1310 C1313 1.386 . S
H1311 C1327 0.930 . S
H1312 C1328 0.931 . S
C1313 H1301 0.929 . S
C1313 C1307 1.390 . S
C1313 C1310 1.386 . S
C1314 C1309 1.490 . S
C1314 C1316 1.395 . S
C1314 C1317 1.403 . S
H1315 C1321 0.930 . S
C1316 H1302 0.930 . S
C1316 C1314 1.395 . S
C1316 C1319 1.403 . S
C1317 C1314 1.403 . S
C1317 C1318 1.524 . S
C1317 C1321 1.400 . S
C1318 H1303 0.960 . S
C1318 H1304 0.960 . S
C1318 H1305 0.960 . S
C1318 C1317 1.524 . S
C1319 C1316 1.403 . S
C1319 C1320 1.392 . S
C1319 C1323 1.495 . S
C1320 C1319 1.392 . S
C1320 C1321 1.385 . S
C1320 C1322 1.478 . S
C1321 H1315 0.930 . S
C1321 C1317 1.400 . S
C1321 C1320 1.385 . S
C1322 C1320 1.478 . S
C1322 C1324 1.381 . S
C1322 C1328 1.383 . S
C1323 C1319 1.495 . S
C1323 H1329 0.959 . S
C1323 H1330 0.961 . S
C1323 H1331 0.960 . S
C1324 C1322 1.381 . S
C1324 C1325 1.394 . S
C1324 H1332 0.930 . S
C1325 C1324 1.394 . S
C1325 C1326 1.383 . S
C1325 H1333 0.929 . S
C1326 C1325 1.383 . S
C1326 C1327 1.377 . S
C1327 H1311 0.930 . S
C1327 C1326 1.377 . S
C1327 C1328 1.379 . S
C1328 H1312 0.931 . S
C1328 C1322 1.383 . S
C1328 C1327 1.379 . S
H1329 C1323 0.959 . S
H1330 C1323 0.961 . S
H1331 C1323 0.960 . S
H1332 C1324 0.930 . S
H1333 C1325 0.929 . S
C498 C174 1.492 . S
C479 C11 1.355 . S
C534 C243 1.668 . S
C515 C25 1.648 . S
C570 C181 1.163 . S
C551 C40 1.124 . S
C606 C244 1.390 1_655 S
C587 C59 1.360 . S
C642 C297 1.914 . S
C623 C6 1.896 . S
C678 C333 1.795 . S
C659 C21 1.746 . S
C695 C49 1.574 . S
C714 C393 1.661 . S
C750 C456 1.511 . S
C731 C68 1.412 . S
C786 C296 1.880 . S
C767 C30 1.669 . S
C803 C44 1.689 . S
C822 C340 1.686 . S
C858 C386 1.769 . S
C839 C63 1.775 . S
C894 C455 1.688 . S
C875 C2 1.667 . S
C911 C78 1.726 . S
C930 C234 1.759 . S
C966 C191 1.533 . S
C947 C97 1.462 . S
C983 C120 1.716 . S
C1002 C227 1.726 . S
C1019 C139 1.726 . S
C1038 C190 1.729 . S
C1074 C402 1.559 . S
C1055 C87 1.443 . S
C1110 C446 1.626 . S
C1091 C101 1.605 . S
C1146 C280 1.625 . S
C1127 C125 1.502 . S
C1163 C144 1.705 . S
C1182 C349 1.800 . S
C1218 C403 1.737 . S
C1199 C106 1.539 . S
C1254 C439 1.637 1_556 S
C1235 C116 1.612 . S
C1290 C287 1.624 . S
C1271 C135 1.596 . S
C1307 C82 1.786 . S
C1326 C350 1.780 . S
