# Generated by pormake.
# Topology pto, (3,4)-cn, num edge types: 1
# Building blocks:
#     Node 0, Type 0, BuildingBlock: OLANEW_clean_sbu_2, # of connection points: 3
#     Node 1, Type 0, BuildingBlock: OLANEW_clean_sbu_2, # of connection points: 3
#     Node 2, Type 0, BuildingBlock: OLANEW_clean_sbu_2, # of connection points: 3
#     Node 3, Type 0, BuildingBlock: OLANEW_clean_sbu_2, # of connection points: 3
#     Node 4, Type 0, BuildingBlock: OLANEW_clean_sbu_2, # of connection points: 3
#     Node 5, Type 0, BuildingBlock: OLANEW_clean_sbu_2, # of connection points: 3
#     Node 6, Type 0, BuildingBlock: OLANEW_clean_sbu_2, # of connection points: 3
#     Node 7, Type 0, BuildingBlock: OLANEW_clean_sbu_2, # of connection points: 3
#     Node 8, Type 1, BuildingBlock: MUDLON_clean_linker_0, # of connection points: 4
#     Node 9, Type 1, BuildingBlock: MUDLON_clean_linker_0, # of connection points: 4
#     Node 10, Type 1, BuildingBlock: MUDLON_clean_linker_0, # of connection points: 4
#     Node 11, Type 1, BuildingBlock: MUDLON_clean_linker_0, # of connection points: 4
#     Node 12, Type 1, BuildingBlock: MUDLON_clean_linker_0, # of connection points: 4
#     Node 13, Type 1, BuildingBlock: MUDLON_clean_linker_0, # of connection points: 4
#     Edge 14, Type (0, 1), BuildingBlock: KIFKEQ_clean_linker_1, # of connection points: 2
#     Edge 15, Type (0, 1), BuildingBlock: KIFKEQ_clean_linker_1, # of connection points: 2
#     Edge 16, Type (0, 1), BuildingBlock: KIFKEQ_clean_linker_1, # of connection points: 2
#     Edge 17, Type (0, 1), BuildingBlock: KIFKEQ_clean_linker_1, # of connection points: 2
#     Edge 18, Type (0, 1), BuildingBlock: KIFKEQ_clean_linker_1, # of connection points: 2
#     Edge 19, Type (0, 1), BuildingBlock: KIFKEQ_clean_linker_1, # of connection points: 2
#     Edge 20, Type (0, 1), BuildingBlock: KIFKEQ_clean_linker_1, # of connection points: 2
#     Edge 21, Type (0, 1), BuildingBlock: KIFKEQ_clean_linker_1, # of connection points: 2
#     Edge 22, Type (0, 1), BuildingBlock: KIFKEQ_clean_linker_1, # of connection points: 2
#     Edge 23, Type (0, 1), BuildingBlock: KIFKEQ_clean_linker_1, # of connection points: 2
#     Edge 24, Type (0, 1), BuildingBlock: KIFKEQ_clean_linker_1, # of connection points: 2
#     Edge 25, Type (0, 1), BuildingBlock: KIFKEQ_clean_linker_1, # of connection points: 2
#     Edge 26, Type (0, 1), BuildingBlock: KIFKEQ_clean_linker_1, # of connection points: 2
#     Edge 27, Type (0, 1), BuildingBlock: KIFKEQ_clean_linker_1, # of connection points: 2
#     Edge 28, Type (0, 1), BuildingBlock: KIFKEQ_clean_linker_1, # of connection points: 2
#     Edge 29, Type (0, 1), BuildingBlock: KIFKEQ_clean_linker_1, # of connection points: 2
#     Edge 30, Type (0, 1), BuildingBlock: KIFKEQ_clean_linker_1, # of connection points: 2
#     Edge 31, Type (0, 1), BuildingBlock: KIFKEQ_clean_linker_1, # of connection points: 2
#     Edge 32, Type (0, 1), BuildingBlock: KIFKEQ_clean_linker_1, # of connection points: 2
#     Edge 33, Type (0, 1), BuildingBlock: KIFKEQ_clean_linker_1, # of connection points: 2
#     Edge 34, Type (0, 1), BuildingBlock: KIFKEQ_clean_linker_1, # of connection points: 2
#     Edge 35, Type (0, 1), BuildingBlock: KIFKEQ_clean_linker_1, # of connection points: 2
#     Edge 36, Type (0, 1), BuildingBlock: KIFKEQ_clean_linker_1, # of connection points: 2
#     Edge 37, Type (0, 1), BuildingBlock: KIFKEQ_clean_linker_1, # of connection points: 2
# Relax obj value: 0.010
# Max RMSD: 0.127
# Mean RMSD: 0.066
data_MOF--net-pto--node1-OLANEW_clean_sbu_2--node2-MUDLON_clean_linker_0--edge1-KIFKEQ_clean_linker_1
_symmetry_space_group_name_H-M    P1
_symmetry_Int_Tables_number       1
_symmetry_cell_setting            triclinic
loop_
_symmetry_equiv_pos_as_xyz
'x, y, z'
_cell_length_a     40.355719
_cell_length_b     72.281823
_cell_length_c     56.432249
_cell_angle_alpha  92.737531
_cell_angle_beta   88.835879
_cell_angle_gamma 106.64025
loop_
_atom_site_label
_atom_site_type_symbol
_atom_site_fract_x
_atom_site_fract_y
_atom_site_fract_z
_atom_type_partial_charge
O0 O 0.32213 0.30427 0.30075 0.0
Cd1 Cd 0.29149 0.29211 0.33707 0.0
O2 O 0.32251 0.3328 0.31556 0.0
Cd3 Cd 0.32817 0.36381 0.31623 0.0
O4 O 0.31283 0.38966 0.32638 0.0
C5 C 0.3028 0.39932 0.31125 0.0
O6 O 0.30385 0.39436 0.2886 0.0
C7 C 0.33016 0.32244 0.29867 0.0
C8 C 0.32428 0.27098 0.36348 0.0
O9 O 0.30148 0.26259 0.34796 0.0
O10 O 0.33199 0.28943 0.36621 0.0
O11 O 0.21733 0.87969 0.79617 0.0
Cd12 Cd 0.17339 0.8872 0.77239 0.0
O13 O 0.2084 0.85281 0.77454 0.0
Cd14 Cd 0.21301 0.82404 0.76423 0.0
O15 O 0.2027 0.7942 0.75037 0.0
C16 C 0.1712 0.78416 0.75005 0.0
O17 O 0.14761 0.7921 0.75841 0.0
C18 C 0.22463 0.86397 0.79123 0.0
C19 C 0.2034 0.91111 0.73574 0.0
O20 O 0.19586 0.91822 0.75569 0.0
O21 O 0.19664 0.8927 0.73313 0.0
O22 O 0.85201 0.79841 0.31386 0.0
Cd23 Cd 0.83737 0.7732 0.28216 0.0
O24 O 0.80182 0.80438 0.31115 0.0
Cd25 Cd 0.78227 0.78371 0.28171 0.0
O26 O 0.7488 0.77469 0.25093 0.0
C27 C 0.72433 0.7825 0.25102 0.0
O28 O 0.72146 0.79405 0.26917 0.0
C29 C 0.83124 0.80787 0.32086 0.0
C30 C 0.86058 0.74175 0.29254 0.0
O31 O 0.8799 0.756 0.28144 0.0
O32 O 0.83008 0.74231 0.2986 0.0
O33 O 0.7521 0.2829 0.62656 0.0
Cd34 Cd 0.71412 0.25187 0.63877 0.0
O35 O 0.73255 0.29429 0.65875 0.0
Cd36 Cd 0.73091 0.3158 0.68689 0.0
O37 O 0.71931 0.32888 0.72046 0.0
C38 C 0.70576 0.31725 0.7365 0.0
O39 O 0.70039 0.29862 0.73198 0.0
C40 C 0.75184 0.29723 0.64042 0.0
C41 C 0.73542 0.22022 0.62197 0.0
O42 O 0.71327 0.22595 0.61059 0.0
O43 O 0.7477 0.22957 0.64123 0.0
O44 O 0.71081 0.75314 0.59631 0.0
Cd45 Cd 0.68838 0.71822 0.60042 0.0
O46 O 0.71223 0.75795 0.63495 0.0
Cd47 Cd 0.71593 0.775 0.66839 0.0
O48 O 0.7019 0.78461 0.7035 0.0
C49 C 0.67736 0.77265 0.71401 0.0
O50 O 0.6631 0.75569 0.70346 0.0
C51 C 0.71708 0.76475 0.61438 0.0
C52 C 0.7402 0.69974 0.60206 0.0
O53 O 0.72777 0.70242 0.5822 0.0
O54 O 0.7283 0.70595 0.6211 0.0
O55 O 0.86578 0.26966 0.31796 0.0
Cd56 Cd 0.84031 0.23591 0.3044 0.0
O57 O 0.82779 0.27629 0.29524 0.0
Cd58 Cd 0.80427 0.29503 0.27637 0.0
O59 O 0.77801 0.311 0.25524 0.0
C60 C 0.78075 0.31019 0.23276 0.0
O61 O 0.79984 0.29993 0.22282 0.0
C62 C 0.85276 0.28207 0.30972 0.0
C63 C 0.85096 0.20854 0.33439 0.0
O64 O 0.87211 0.21483 0.31737 0.0
O65 O 0.82516 0.21543 0.33743 0.0
O66 O 0.19267 0.33187 0.81043 0.0
Cd67 Cd 0.13967 0.32437 0.78732 0.0
O68 O 0.21616 0.31731 0.78289 0.0
Cd69 Cd 0.25485 0.30678 0.76295 0.0
O70 O 0.28368 0.29146 0.74009 0.0
C71 C 0.26863 0.28261 0.72152 0.0
O72 O 0.23724 0.28338 0.71701 0.0
C73 C 0.21854 0.32658 0.80285 0.0
C74 C 0.13602 0.35547 0.76111 0.0
O75 O 0.12563 0.35398 0.78274 0.0
O76 O 0.1483 0.34226 0.75185 0.0
O77 O 0.47013 0.86336 0.32517 0.0
Cd78 Cd 0.48728 0.86842 0.36684 0.0
O79 O 0.43191 0.83595 0.33264 0.0
Cd80 Cd 0.39411 0.80759 0.32652 0.0
O81 O 0.35332 0.78018 0.32836 0.0
C82 C 0.34708 0.77239 0.34832 0.0
O83 O 0.36565 0.78093 0.36672 0.0
C84 C 0.44727 0.84825 0.31769 0.0
C85 C 0.46523 0.89703 0.39177 0.0
O86 O 0.49304 0.90136 0.37927 0.0
O87 O 0.44757 0.87921 0.39215 0.0
H88 H 0.98752 0.45217 0.40156 0.0
N89 N 0.03099 0.47722 0.37448 0.0
H90 H 0.95001 0.42022 0.38921 0.0
H91 H 0.01456 0.46413 0.32845 0.0
H92 H 0.97689 0.4326 0.316 0.0
H93 H 0.07005 0.4846 0.33392 0.0
H94 H 0.12459 0.47725 0.32618 0.0
H95 H 0.06992 0.4671 0.40583 0.0
H96 H 0.12583 0.46087 0.39883 0.0
H97 H 0.03427 0.50153 0.41135 0.0
H98 H 0.01843 0.49595 0.33577 0.0
H99 H 0.0334 0.53515 0.41138 0.0
H100 H 0.01639 0.52934 0.33565 0.0
H101 H 0.01061 0.64097 0.40044 0.0
H102 H 0.97144 0.6573 0.38421 0.0
H103 H 0.96928 0.6246 0.31778 0.0
H104 H 0.00923 0.60876 0.33404 0.0
H105 H 0.07088 0.63006 0.33589 0.0
H106 H 0.12667 0.65406 0.33138 0.0
H107 H 0.14297 0.65507 0.40696 0.0
H108 H 0.08633 0.63132 0.41136 0.0
H109 H 0.00607 0.59094 0.4083 0.0
H110 H 0.99835 0.55608 0.40658 0.0
H111 H 0.05522 0.5613 0.34029 0.0
N112 N 0.03969 0.61664 0.37783 0.0
H113 H 0.06144 0.59587 0.34171 0.0
C114 C 0.00385 0.46063 0.36608 0.0
C115 C 0.98447 0.44816 0.38281 0.0
C116 C 0.96309 0.42992 0.37571 0.0
C117 C 0.9608 0.42378 0.35162 0.0
C118 C 0.97854 0.43678 0.33472 0.0
C119 C -0.00011 0.45501 0.34186 0.0
C120 C 0.06558 0.47595 0.37037 0.0
C121 C 0.08203 0.47945 0.34818 0.0
C122 C 0.11358 0.47545 0.34387 0.0
C123 C 0.1295 0.46817 0.36178 0.0
C124 C 0.11394 0.46596 0.38442 0.0
C125 C 0.08218 0.46967 0.38857 0.0
C126 C 0.02624 0.49617 0.37371 0.0
C127 C 0.02986 0.50748 0.39484 0.0
C128 C 0.02921 0.52668 0.3948 0.0
C129 C 0.02479 0.53501 0.3735 0.0
C130 C 0.02028 0.52347 0.35232 0.0
C131 C 0.02112 0.50424 0.3524 0.0
C132 C 0.01281 0.62369 0.36857 0.0
C133 C 0.00111 0.6371 0.38254 0.0
C134 C 0.97861 0.64634 0.37323 0.0
C135 C 0.96725 0.6423 0.34964 0.0
C136 C 0.97788 0.62822 0.33591 0.0
C137 C 0.00052 0.61902 0.34526 0.0
C138 C 0.0743 0.62896 0.3741 0.0
C139 C 0.08654 0.63523 0.35148 0.0
C140 C 0.11865 0.64894 0.3489 0.0
C141 C 0.13925 0.65663 0.36883 0.0
C142 C 0.12752 0.64971 0.39128 0.0
C143 C 0.09535 0.63603 0.39384 0.0
C144 C 0.03471 0.59607 0.37544 0.0
C145 C 0.0166 0.58447 0.39334 0.0
C146 C 0.01241 0.56459 0.39237 0.0
C147 C 0.0265 0.55587 0.37342 0.0
C148 C 0.04377 0.56747 0.35504 0.0
C149 C 0.0477 0.58736 0.35597 0.0
H150 H 0.97593 0.46078 0.65696 0.0
N151 N 0.01404 0.47471 0.61749 0.0
H152 H 0.92512 0.43311 0.65783 0.0
H153 H 0.97638 0.45686 0.58051 0.0
H154 H 0.92379 0.42962 0.58108 0.0
H155 H 0.05071 0.45096 0.60355 0.0
H156 H 0.08382 0.43613 0.62866 0.0
H157 H 0.03474 0.48691 0.66341 0.0
H158 H 0.06795 0.47242 0.68831 0.0
H159 H 0.9852 0.49468 0.65068 0.0
H160 H 0.04239 0.49971 0.58486 0.0
H161 H 0.98767 0.52867 0.65057 0.0
H162 H 0.04283 0.53348 0.58352 0.0
H163 H 0.97588 0.61863 0.64963 0.0
H164 H 0.92568 0.63079 0.64727 0.0
H165 H 0.93874 0.63332 0.5712 0.0
H166 H 0.98919 0.62098 0.57374 0.0
H167 H 0.06089 0.64797 0.60069 0.0
H168 H 0.0958 0.6737 0.6269 0.0
H169 H 0.06741 0.63638 0.68615 0.0
H170 H 0.03156 0.61099 0.65983 0.0
H171 H 0.96748 0.58473 0.63273 0.0
H172 H 0.96613 0.55113 0.63348 0.0
H173 H 0.06677 0.56434 0.59952 0.0
N174 N 0.01888 0.61426 0.61289 0.0
H175 H 0.06674 0.59794 0.59727 0.0
C176 C 0.98039 0.46075 0.61856 0.0
C177 C 0.96459 0.45428 0.64028 0.0
C178 C 0.93514 0.43842 0.64074 0.0
C179 C 0.92038 0.42884 0.61951 0.0
C180 C 0.93488 0.43626 0.5978 0.0
C181 C 0.96469 0.45197 0.59739 0.0
C182 C 0.03992 0.46995 0.6314 0.0
C183 C 0.05532 0.45612 0.62187 0.0
C184 C 0.07423 0.44767 0.63625 0.0
C185 C 0.07805 0.45292 0.66056 0.0
C186 C 0.06492 0.46785 0.66972 0.0
C187 C 0.04604 0.47629 0.65533 0.0
C188 C 0.01421 0.4947 0.6179 0.0
C189 C 0.99826 0.50309 0.63613 0.0
C190 C 0.99932 0.52258 0.63586 0.0
C191 C 0.01554 0.53404 0.61705 0.0
C192 C 0.03084 0.5254 0.59863 0.0
C193 C 0.03038 0.50602 0.5992 0.0
C194 C 0.98648 0.61897 0.61176 0.0
C195 C 0.96785 0.6216 0.6324 0.0
C196 C 0.93919 0.62865 0.63105 0.0
C197 C 0.92849 0.63323 0.60908 0.0
C198 C 0.94623 0.62982 0.58837 0.0
C199 C 0.97501 0.6228 0.58976 0.0
C200 C 0.04367 0.62763 0.62821 0.0
C201 C 0.06286 0.64525 0.61924 0.0
C202 C 0.08292 0.6599 0.63428 0.0
C203 C 0.08433 0.65719 0.65873 0.0
C204 C 0.0665 0.63908 0.6675 0.0
C205 C 0.04623 0.62446 0.65243 0.0
C206 C 0.01722 0.59408 0.61456 0.0
C207 C 0.98924 0.58058 0.62522 0.0
C208 C 0.98865 0.56117 0.6259 0.0
C209 C 0.01629 0.5548 0.61651 0.0
C210 C 0.04456 0.56846 0.60643 0.0
C211 C 0.0448 0.58777 0.6053 0.0
H212 H 0.35553 0.18128 0.55364 0.0
N213 N 0.41931 0.17478 0.55291 0.0
H214 H 0.33213 0.19853 0.58464 0.0
H215 H 0.44894 0.19018 0.5939 0.0
H216 H 0.42526 0.20744 0.62545 0.0
H217 H 0.45667 0.20784 0.53529 0.0
H218 H 0.44608 0.22239 0.49903 0.0
H219 H 0.37265 0.157 0.51769 0.0
H220 H 0.36342 0.17083 0.48113 0.0
H221 H 0.3565 0.14874 0.56319 0.0
H222 H 0.46312 0.1536 0.54553 0.0
H223 H 0.34356 0.11397 0.56268 0.0
H224 H 0.45018 0.11826 0.54529 0.0
H225 H 0.28202 0.00889 0.54786 0.0
H226 H 0.25824 0.98893 0.58158 0.0
H227 H 0.35887 0.00624 0.61438 0.0
H228 H 0.38223 0.02639 0.58086 0.0
H229 H 0.41041 0.02426 0.54522 0.0
H230 H 0.4346 0.00371 0.51845 0.0
H231 H 0.34587 0.99354 0.47293 0.0
H232 H 0.32136 0.0137 0.50019 0.0
H233 H 0.33165 0.053 0.57758 0.0
H234 H 0.35303 0.08771 0.58328 0.0
H235 H 0.41727 0.09031 0.52076 0.0
N236 N 0.34675 0.03038 0.54144 0.0
H237 H 0.397 0.05547 0.51526 0.0
C238 C 0.40419 0.1844 0.57143 0.0
C239 C 0.371 0.18684 0.56923 0.0
C240 C 0.35749 0.19663 0.58709 0.0
C241 C 0.37677 0.20428 0.60756 0.0
C242 C 0.40989 0.20182 0.6098 0.0
C243 C 0.42336 0.1919 0.59191 0.0
C244 C 0.4157 0.18136 0.52949 0.0
C245 C 0.43663 0.1996 0.52332 0.0
C246 C 0.43059 0.20785 0.50251 0.0
C247 C 0.40359 0.19789 0.48721 0.0
C248 C 0.3839 0.17914 0.49274 0.0
C249 C 0.38954 0.17106 0.5137 0.0
C250 C 0.41115 0.15402 0.55462 0.0
C251 C 0.37746 0.14246 0.55971 0.0
C252 C 0.37 0.12239 0.55945 0.0
C253 C 0.39587 0.11328 0.55411 0.0
C254 C 0.42962 0.12482 0.54934 0.0
C255 C 0.43711 0.14498 0.54961 0.0
C256 C 0.33379 0.01895 0.56173 0.0
C257 C 0.29883 0.00836 0.56237 0.0
C258 C 0.28534 0.99707 0.58163 0.0
C259 C 0.30676 0.99603 0.60056 0.0
C260 C 0.3419 0.0066 0.59989 0.0
C261 C 0.3553 0.01805 0.58071 0.0
C262 C 0.36374 0.02025 0.5248 0.0
C263 C 0.39612 0.01757 0.52956 0.0
C264 C 0.40997 0.0059 0.51421 0.0
C265 C 0.39199 0.99698 0.4937 0.0
C266 C 0.36037 1.00035 0.48852 0.0
C267 C 0.34633 0.01179 0.50403 0.0
C268 C 0.36358 0.05086 0.54659 0.0
C269 C 0.35136 0.06072 0.56546 0.0
C270 C 0.36322 0.08078 0.56858 0.0
C271 C 0.3869 0.09182 0.5525 0.0
C272 C 0.39957 0.08221 0.53378 0.0
C273 C 0.38785 0.06206 0.53069 0.0
H274 H 0.47777 0.75925 0.10793 0.0
N275 N 0.47986 0.78959 0.08257 0.0
H276 H 0.52548 0.75369 0.12974 0.0
H277 H 0.54934 0.8075 0.07483 0.0
H278 H 0.59682 0.80162 0.0958 0.0
H279 H 0.51525 0.82257 0.1076 0.0
H280 H 0.49603 0.83571 0.14386 0.0
H281 H 0.41621 0.77966 0.10087 0.0
H282 H 0.39653 0.79288 0.13764 0.0
H283 H 0.455 0.76887 0.04348 0.0
H284 H 0.50897 0.82682 0.06827 0.0
H285 H 0.4599 0.77943 0.00272 0.0
H286 H 0.51587 0.83719 0.02791 0.0
H287 H 0.48884 0.79935 0.89125 0.0
H288 H 0.52092 0.78742 0.86008 0.0
H289 H 0.60678 0.83899 0.87002 0.0
H290 H 0.57473 0.85045 0.90206 0.0
H291 H 0.50638 0.86443 0.89169 0.0
H292 H 0.45619 0.86868 0.87129 0.0
H293 H 0.3939 0.81362 0.89545 0.0
H294 H 0.44416 0.80951 0.9158 0.0
H295 H 0.50859 0.79833 0.93169 0.0
H296 H 0.50017 0.78832 0.97211 0.0
H297 H 0.48946 0.84433 0.99477 0.0
N298 N 0.50977 0.83433 0.9157 0.0
H299 H 0.50013 0.85476 0.95415 0.0
C300 C 0.5095 0.78385 0.08988 0.0
C301 C 0.50387 0.76816 0.10465 0.0
C302 C 0.53121 0.76498 0.11707 0.0
C303 C 0.56487 0.77744 0.11481 0.0
C304 C 0.57104 0.79202 0.0983 0.0
C305 C 0.54368 0.7953 0.08607 0.0
C306 C 0.46697 0.80014 0.10123 0.0
C307 C 0.48884 0.8164 0.11336 0.0
C308 C 0.47779 0.82392 0.13429 0.0
C309 C 0.44476 0.81531 0.14373 0.0
C310 C 0.42224 0.79973 0.13092 0.0
C311 C 0.43329 0.79228 0.10984 0.0
C312 C 0.48159 0.79688 0.05904 0.0
C313 C 0.46789 0.78386 0.04013 0.0
C314 C 0.47111 0.78991 0.01682 0.0
C315 C 0.48864 0.80917 0.01184 0.0
C316 C 0.50176 0.82232 0.03093 0.0
C317 C 0.49799 0.81632 0.05424 0.0
C318 C 0.52955 0.82581 0.89914 0.0
C319 C 0.51479 0.80794 0.88706 0.0
C320 C 0.5331 0.80122 0.86902 0.0
C321 C 0.56632 0.81234 0.86227 0.0
C322 C 0.58143 0.82993 0.87487 0.0
C323 C 0.56317 0.83655 0.89314 0.0
C324 C 0.47901 0.8368 0.90533 0.0
C325 C 0.48179 0.8534 0.89271 0.0
C326 C 0.45322 0.85571 0.88097 0.0
C327 C 0.42119 0.84144 0.88173 0.0
C328 C 0.41819 0.82493 0.89475 0.0
C329 C 0.4469 0.82255 0.90634 0.0
C330 C 0.50538 0.82757 0.93964 0.0
C331 C 0.50476 0.80866 0.94514 0.0
C332 C 0.49947 0.80277 0.96849 0.0
C333 C 0.49398 0.81544 0.98689 0.0
C334 C 0.49423 0.83424 0.98127 0.0
C335 C 0.50014 0.84022 0.958 0.0
H336 H 0.81326 0.07925 0.50714 0.0
N337 N 0.88194 0.08176 0.51108 0.0
H338 H 0.78241 0.09869 0.53003 0.0
H339 H 0.90324 0.10278 0.5508 0.0
H340 H 0.87238 0.12231 0.57395 0.0
H341 H 0.92697 0.11443 0.49855 0.0
H342 H 0.92509 0.13249 0.46342 0.0
H343 H 0.84147 0.06781 0.47214 0.0
H344 H 0.83984 0.08554 0.43648 0.0
H345 H 0.8274 0.05212 0.528 0.0
H346 H 0.92838 0.06458 0.4949 0.0
H347 H 0.8259 0.01856 0.53027 0.0
H348 H 0.92607 0.03057 0.49587 0.0
H349 H 0.80948 0.9213 0.5135 0.0
H350 H 0.7787 0.89547 0.5385 0.0
H351 H 0.86538 0.90976 0.58656 0.0
H352 H 0.89685 0.93515 0.56049 0.0
H353 H 0.9242 0.92424 0.50603 0.0
H354 H 0.92586 0.90432 0.4699 0.0
H355 H 0.83718 0.9189 0.44339 0.0
H356 H 0.83643 0.93904 0.47888 0.0
H357 H 0.82039 0.95549 0.5125 0.0
H358 H 0.82038 0.98899 0.50952 0.0
H359 H 0.93061 0.00759 0.5222 0.0
N360 N 0.87748 0.94253 0.51808 0.0
H361 H 0.9305 0.97387 0.52362 0.0
C362 C 0.86077 0.08968 0.52722 0.0
C363 C 0.82616 0.08831 0.52196 0.0
C364 C 0.80858 0.09948 0.53501 0.0
C365 C 0.82515 0.11219 0.55357 0.0
C366 C 0.85888 0.11256 0.55983 0.0
C367 C 0.87653 0.10143 0.54668 0.0
C368 C 0.88444 0.08987 0.488 0.0
C369 C 0.90851 0.10786 0.48474 0.0
C370 C 0.90738 0.11813 0.46459 0.0
C371 C 0.88209 0.11056 0.44715 0.0
C372 C 0.85926 0.09194 0.44975 0.0
C373 C 0.86036 0.08169 0.47001 0.0
C374 C 0.8783 0.06122 0.51123 0.0
C375 C 0.84916 0.04776 0.52083 0.0
C376 C 0.84816 0.02831 0.52202 0.0
C377 C 0.87595 0.02173 0.51342 0.0
C378 C 0.9045 0.03509 0.50323 0.0
C379 C 0.90573 0.05455 0.50239 0.0
C380 C 0.85584 0.93006 0.53497 0.0
C381 C 0.82173 0.91919 0.5296 0.0
C382 C 0.80395 0.90439 0.54411 0.0
C383 C 0.81966 0.90025 0.56448 0.0
C384 C 0.85275 0.91219 0.57075 0.0
C385 C 0.87066 0.92686 0.55604 0.0
C386 C 0.88038 0.93319 0.49527 0.0
C387 C 0.90566 0.92342 0.49213 0.0
C388 C 0.90632 0.91191 0.4716 0.0
C389 C 0.88149 0.90988 0.45379 0.0
C390 C 0.857 0.92031 0.45656 0.0
C391 C 0.85645 0.93185 0.47703 0.0
C392 C 0.87568 0.96216 0.518 0.0
C393 C 0.84458 0.96673 0.51449 0.0
C394 C 0.84459 0.98601 0.513 0.0
C395 C 0.87556 0.00114 0.51538 0.0
C396 C 0.90637 0.99642 0.51962 0.0
C397 C 0.90638 0.97716 0.52073 0.0
H398 H 0.54904 0.35291 0.11618 0.0
N399 N 0.55531 0.39067 0.10674 0.0
H400 H 0.59247 0.34071 0.13404 0.0
H401 H 0.62024 0.41023 0.1171 0.0
H402 H 0.6644 0.398 0.13485 0.0
H403 H 0.54544 0.41064 0.14553 0.0
H404 H 0.499 0.40106 0.17493 0.0
H405 H 0.49524 0.36069 0.10098 0.0
H406 H 0.44877 0.35133 0.12987 0.0
H407 H 0.54175 0.35856 0.07622 0.0
H408 H 0.56035 0.42039 0.07975 0.0
H409 H 0.53575 0.35794 0.03351 0.0
H410 H 0.55647 0.42013 0.03653 0.0
H411 H 0.53307 0.35039 0.91951 0.0
H412 H 0.56796 0.33764 0.89103 0.0
H413 H 0.6279 0.39594 0.87639 0.0
H414 H 0.59361 0.40851 0.90588 0.0
H415 H 0.51537 0.4051 0.89452 0.0
H416 H 0.45944 0.39378 0.8744 0.0
H417 H 0.42671 0.34727 0.92262 0.0
H418 H 0.48296 0.35841 0.94237 0.0
H419 H 0.56475 0.36491 0.95629 0.0
H420 H 0.56829 0.36578 0.99888 0.0
H421 H 0.51903 0.41165 0.00393 0.0
N422 N 0.53798 0.38852 0.92927 0.0
H423 H 0.51715 0.41145 0.96071 0.0
C424 C 0.58142 0.38259 0.11526 0.0
C425 C 0.57423 0.36285 0.11981 0.0
C426 C 0.59922 0.35585 0.13 0.0
C427 C 0.6319 0.36839 0.13592 0.0
C428 C 0.63934 0.38801 0.13075 0.0
C429 C 0.6143 0.395 0.12049 0.0
C430 C 0.52418 0.38648 0.12106 0.0
C431 C 0.52393 0.39794 0.14177 0.0
C432 C 0.49735 0.39246 0.15852 0.0
C433 C 0.4704 0.3753 0.15484 0.0
C434 C 0.46949 0.36445 0.13339 0.0
C435 C 0.49611 0.36993 0.11668 0.0
C436 C 0.55119 0.3896 0.08133 0.0
C437 C 0.54458 0.37206 0.06786 0.0
C438 C 0.54155 0.37176 0.04323 0.0
C439 C 0.54576 0.389 0.0314 0.0
C440 C 0.55245 0.40651 0.04497 0.0
C441 C 0.55493 0.40674 0.06966 0.0
C442 C 0.56096 0.38048 0.91493 0.0
C443 C 0.55416 0.36041 0.91053 0.0
C444 C 0.57398 0.35315 0.89403 0.0
C445 C 0.60052 0.36575 0.88114 0.0
C446 C 0.60798 0.38578 0.88616 0.0
C447 C 0.58839 0.39303 0.90294 0.0
C448 C 0.50326 0.38277 0.92001 0.0
C449 C 0.49592 0.39264 0.90093 0.0
C450 C 0.46418 0.38609 0.88939 0.0
C451 C 0.43895 0.36963 0.89694 0.0
C452 C 0.44572 0.36007 0.91658 0.0
C453 C 0.47777 0.36646 0.9279 0.0
C454 C 0.54047 0.3882 0.95485 0.0
C455 C 0.55459 0.37523 0.96618 0.0
C456 C 0.55642 0.37562 0.99089 0.0
C457 C 0.54379 0.38871 0.00502 0.0
C458 C 0.52953 0.40156 0.99371 0.0
C459 C 0.52818 0.40137 0.96897 0.0
H460 H 0.27306 0.42057 0.28407 0.0
H461 H 0.29253 0.41098 0.35688 0.0
H462 H 0.2361 0.44045 0.29778 0.0
H463 H 0.25582 0.43093 0.37045 0.0
H464 H 0.14403 0.43648 0.37838 0.0
H465 H 0.19177 0.42367 0.36745 0.0
H466 H 0.23235 0.47071 0.32089 0.0
H467 H 0.18481 0.48407 0.33241 0.0
C468 C 0.27004 0.42301 0.30298 0.0
C469 C 0.28528 0.41393 0.31937 0.0
C470 C 0.249 0.43448 0.31081 0.0
C471 C 0.24275 0.43702 0.33517 0.0
C472 C 0.25977 0.42896 0.35156 0.0
C473 C 0.28087 0.41758 0.34375 0.0
C474 C 0.16355 0.4445 0.36634 0.0
C475 C 0.16049 0.46139 0.35637 0.0
C476 C 0.19093 0.43707 0.36001 0.0
C477 C 0.21585 0.44622 0.34336 0.0
C478 C 0.21335 0.46331 0.33365 0.0
C479 C 0.18604 0.47089 0.3402 0.0
H480 H 0.21297 0.76299 0.73144 0.0
H481 H 0.1058 0.76031 0.74428 0.0
H482 H 0.19504 0.73073 0.71211 0.0
H483 H 0.08796 0.72851 0.72451 0.0
H484 H 0.06242 0.66638 0.70278 0.0
H485 H 0.08634 0.69545 0.72746 0.0
H486 H 0.16772 0.71547 0.6758 0.0
H487 H 0.14494 0.6858 0.65172 0.0
C488 C 0.18562 0.75551 0.73021 0.0
C489 C 0.16081 0.76425 0.73934 0.0
C490 C 0.17534 0.73706 0.71903 0.0
C491 C 0.14005 0.72698 0.71675 0.0
C492 C 0.11537 0.73565 0.7263 0.0
C493 C 0.12561 0.754 0.7375 0.0
C494 C 0.08599 0.67668 0.69696 0.0
C495 C 0.10156 0.67376 0.67512 0.0
C496 C 0.09943 0.69353 0.71098 0.0
C497 C 0.12863 0.70798 0.70345 0.0
C498 C 0.14526 0.70464 0.68221 0.0
C499 C 0.13194 0.68771 0.66824 0.0
H500 H 0.9252 0.73779 0.28479 0.0
H501 H 0.8252 0.70873 0.31428 0.0
H502 H 0.94761 0.71186 0.29686 0.0
H503 H 0.84743 0.68245 0.32583 0.0
H504 H 0.91446 0.65451 0.37009 0.0
H505 H 0.88668 0.67718 0.35465 0.0
H506 H 0.94492 0.67851 0.28932 0.0
H507 H 0.97399 0.65664 0.30523 0.0
C508 C 0.90787 0.72574 0.2936 0.0
C509 C 0.87347 0.72538 0.29868 0.0
C510 C 0.92066 0.71078 0.30038 0.0
C511 C 0.89932 0.69503 0.3123 0.0
C512 C 0.86467 0.69447 0.31694 0.0
C513 C 0.8519 0.70949 0.31022 0.0
C514 C 0.9213 0.65961 0.35242 0.0
C515 C 0.94673 0.65389 0.33902 0.0
C516 C 0.90507 0.67245 0.34344 0.0
C517 C 0.91379 0.67981 0.32081 0.0
C518 C 0.93802 0.67337 0.30698 0.0
C519 C 0.95435 0.6606 0.31599 0.0
H520 H 0.81645 0.30654 0.62116 0.0
H521 H 0.73786 0.33176 0.64849 0.0
H522 H 0.855 0.33867 0.61482 0.0
H523 H 0.77569 0.36397 0.64133 0.0
H524 H 0.86649 0.41863 0.65151 0.0
H525 H 0.8252 0.38708 0.65561 0.0
H526 H 0.8666 0.36588 0.59207 0.0
H527 H 0.90978 0.39689 0.58916 0.0
C528 C 0.80735 0.31901 0.62559 0.0
C529 C 0.77449 0.31672 0.63573 0.0
C530 C 0.82932 0.33746 0.6218 0.0
C531 C 0.81862 0.35406 0.62759 0.0
C532 C 0.78523 0.35163 0.63716 0.0
C533 C 0.76349 0.33317 0.6413 0.0
C534 C 0.86702 0.40722 0.63849 0.0
C535 C 0.89191 0.41038 0.62016 0.0
C536 C 0.84289 0.38913 0.64064 0.0
C537 C 0.84261 0.37375 0.6243 0.0
C538 C 0.86643 0.37719 0.60533 0.0
C539 C 0.8909 0.39518 0.60339 0.0
H540 H 0.30636 0.23176 0.36642 0.0
H541 H 0.37729 0.28451 0.39499 0.0
H542 H 0.3282 0.21322 0.39414 0.0
H543 H 0.39907 0.26589 0.42272 0.0
H544 H 0.44701 0.2229 0.45701 0.0
H545 H 0.43068 0.24011 0.42496 0.0
H546 H 0.32293 0.21162 0.43859 0.0
H547 H 0.33885 0.19498 0.47092 0.0
C548 C 0.32688 0.23938 0.37841 0.0
C549 C 0.33989 0.25962 0.37865 0.0
C550 C 0.33928 0.22876 0.39433 0.0
C551 C 0.36517 0.23813 0.41066 0.0
C552 C 0.37926 0.25828 0.41022 0.0
C553 C 0.36664 0.26894 0.39443 0.0
C554 C 0.41983 0.22035 0.45323 0.0
C555 C 0.39429 0.20746 0.46657 0.0
C556 C 0.41054 0.23016 0.43483 0.0
C557 C 0.37556 0.2271 0.42922 0.0
C558 C 0.35012 0.21399 0.44222 0.0
C559 C 0.35933 0.20438 0.46073 0.0
H560 H 0.24114 0.87326 0.83761 0.0
H561 H 0.26983 0.84429 0.77522 0.0
H562 H 0.28774 0.86672 0.8597 0.0
H563 H 0.31585 0.83734 0.79741 0.0
H564 H 0.42055 0.85276 0.83639 0.0
H565 H 0.37176 0.85709 0.81474 0.0
H566 H 0.30525 0.83904 0.87536 0.0
H567 H 0.35432 0.835 0.8972 0.0
C568 C 0.25714 0.86528 0.82873 0.0
C569 C 0.25149 0.85898 0.80483 0.0
C570 C 0.28364 0.86143 0.8414 0.0
C571 C 0.30533 0.85146 0.8303 0.0
C572 C 0.29957 0.84509 0.80641 0.0
C573 C 0.27288 0.8488 0.7938 0.0
C574 C 0.39554 0.8498 0.84512 0.0
C575 C 0.39126 0.84363 0.86851 0.0
C576 C 0.36755 0.85208 0.83265 0.0
C577 C 0.3347 0.84837 0.84336 0.0
C578 C 0.33034 0.84212 0.86673 0.0
C579 C 0.35832 0.83968 0.87915 0.0
H580 H 0.88866 0.81697 0.34922 0.0
H581 H 0.79629 0.83356 0.33559 0.0
H582 H 0.90461 0.84251 0.38048 0.0
H583 H 0.81218 0.85887 0.36673 0.0
H584 H 0.86697 0.9143 0.40748 0.0
H585 H 0.85738 0.89009 0.37478 0.0
H586 H 0.88197 0.84979 0.42062 0.0
H587 H 0.89097 0.87382 0.45347 0.0
C588 C 0.8718 0.82604 0.35286 0.0
C589 C 0.84119 0.8232 0.33992 0.0
C590 C 0.88089 0.84062 0.37079 0.0
C591 C 0.85974 0.85276 0.37594 0.0
C592 C 0.82926 0.84995 0.36293 0.0
C593 C 0.82005 0.83532 0.3452 0.0
C594 C 0.87036 0.90029 0.41061 0.0
C595 C 0.87949 0.89598 0.43318 0.0
C596 C 0.86491 0.88644 0.39187 0.0
C597 C 0.86867 0.86801 0.39521 0.0
C598 C 0.87919 0.86394 0.41746 0.0
C599 C 0.88443 0.87775 0.43627 0.0
H600 H 0.66947 0.29571 0.77191 0.0
H601 H 0.71585 0.35478 0.75272 0.0
H602 H 0.64684 0.30718 0.80832 0.0
H603 H 0.69298 0.36622 0.78922 0.0
H604 H 0.6691 0.37845 0.86795 0.0
H605 H 0.69738 0.36674 0.83407 0.0
H606 H 0.60119 0.32399 0.81611 0.0
H607 H 0.57272 0.33589 0.84932 0.0
C608 C 0.67506 0.31115 0.77552 0.0
C609 C 0.69422 0.32434 0.75932 0.0
C610 C 0.66199 0.3177 0.79634 0.0
C611 C 0.66798 0.33758 0.80151 0.0
C612 C 0.68817 0.35081 0.78576 0.0
C613 C 0.70106 0.34425 0.7648 0.0
C614 C 0.65395 0.36661 0.85672 0.0
C615 C 0.61863 0.35808 0.86147 0.0
C616 C 0.67019 0.35989 0.83738 0.0
C617 C 0.6515 0.3444 0.82256 0.0
C618 C 0.61639 0.33572 0.82748 0.0
C619 C 0.60012 0.34253 0.84661 0.0
H620 H 0.23139 0.90106 0.69434 0.0
H621 H 0.21149 0.94982 0.73316 0.0
H622 H 0.25721 0.92193 0.66205 0.0
H623 H 0.23729 0.97064 0.70083 0.0
H624 H 0.24711 0.99426 0.62518 0.0
H625 H 0.22272 0.97385 0.65821 0.0
H626 H 0.30972 0.95024 0.65499 0.0
H627 H 0.33399 0.97055 0.6218 0.0
C628 C 0.23255 0.91622 0.69599 0.0
C629 C 0.21934 0.92378 0.71628 0.0
C630 C 0.24751 0.92818 0.67757 0.0
C631 C 0.24923 0.94789 0.67894 0.0
C632 C 0.23603 0.95546 0.69922 0.0
C633 C 0.22141 0.94355 0.71776 0.0
C634 C 0.26094 0.98466 0.6315 0.0
C635 C 0.29239 0.98395 0.62092 0.0
C636 C 0.24715 0.97311 0.65051 0.0
C637 C 0.26434 0.96046 0.65914 0.0
C638 C 0.29581 0.95976 0.64857 0.0
C639 C 0.30981 0.97147 0.62973 0.0
H640 H 0.67383 0.79992 0.24513 0.0
H641 H 0.72172 0.75931 0.2106 0.0
H642 H 0.63738 0.79757 0.21077 0.0
H643 H 0.68487 0.75703 0.1759 0.0
H644 H 0.58074 0.74588 0.13174 0.0
H645 H 0.62025 0.74587 0.16422 0.0
H646 H 0.64945 0.80823 0.16908 0.0
H647 H 0.60977 0.8083 0.13738 0.0
C648 C 0.67652 0.79042 0.23024 0.0
C649 C 0.70089 0.77991 0.23054 0.0
C650 C 0.65574 0.78917 0.21049 0.0
C651 C 0.65865 0.77732 0.19056 0.0
C652 C 0.68215 0.76628 0.19105 0.0
C653 C 0.70325 0.76764 0.21085 0.0
C654 C 0.59587 0.75956 0.13964 0.0
C655 C 0.59208 0.77708 0.13197 0.0
C656 C 0.61859 0.75955 0.15809 0.0
C657 C 0.63755 0.77705 0.16931 0.0
C658 C 0.63479 0.79452 0.16096 0.0
C659 C 0.61236 0.79455 0.14255 0.0
H660 H 0.78988 0.20858 0.63708 0.0
H661 H 0.70597 0.19365 0.58689 0.0
H662 H 0.80946 0.18149 0.62141 0.0
H663 H 0.72461 0.1661 0.57184 0.0
H664 H 0.79266 0.13451 0.53126 0.0
H665 H 0.7696 0.15969 0.54858 0.0
H666 H 0.79735 0.14726 0.61845 0.0
H667 H 0.8214 0.1223 0.60082 0.0
C668 C 0.77539 0.19938 0.62286 0.0
C669 C 0.74655 0.20334 0.61309 0.0
C670 C 0.78646 0.18373 0.61399 0.0
C671 C 0.7687 0.17158 0.59529 0.0
C672 C 0.73934 0.17534 0.58593 0.0
C673 C 0.72853 0.1911 0.59462 0.0
C674 C 0.79334 0.13695 0.55036 0.0
C675 C 0.80869 0.12638 0.56471 0.0
C676 C 0.78006 0.15139 0.56033 0.0
C677 C 0.78151 0.15554 0.58496 0.0
C678 C 0.79627 0.14467 0.59938 0.0
C679 C 0.80989 0.13031 0.58934 0.0
H680 H 0.32348 0.30573 0.25424 0.0
H681 H 0.37605 0.3582 0.29375 0.0
H682 H 0.35329 0.31899 0.21814 0.0
H683 H 0.40617 0.37146 0.25774 0.0
H684 H 0.43737 0.39539 0.18493 0.0
H685 H 0.40022 0.38315 0.21885 0.0
H686 H 0.41112 0.32611 0.20274 0.0
H687 H 0.44777 0.33826 0.16898 0.0
C688 C 0.34129 0.32015 0.25516 0.0
C689 C 0.34712 0.33103 0.27675 0.0
C690 C 0.35845 0.32774 0.23451 0.0
C691 C 0.38217 0.34629 0.23503 0.0
C692 C 0.38758 0.35728 0.2566 0.0
C693 C 0.37024 0.34971 0.27725 0.0
C694 C 0.4316 0.38022 0.1886 0.0
C695 C 0.4454 0.36779 0.1742 0.0
C696 C 0.41042 0.37322 0.20805 0.0
C697 C 0.40268 0.35364 0.21352 0.0
C698 C 0.41596 0.34118 0.1988 0.0
C699 C 0.437 0.34815 0.17939 0.0
H700 H 0.76756 0.68923 0.64138 0.0
H701 H 0.7741 0.6874 0.56483 0.0
H702 H 0.81184 0.67247 0.64298 0.0
H703 H 0.81916 0.67111 0.56643 0.0
H704 H 0.875 0.62523 0.57745 0.0
H705 H 0.82889 0.64087 0.57572 0.0
H706 H 0.87262 0.6781 0.63627 0.0
H707 H 0.91821 0.66233 0.63814 0.0
C708 C 0.77859 0.68535 0.62488 0.0
C709 C 0.76734 0.68968 0.60298 0.0
C710 C 0.80413 0.67581 0.6258 0.0
C711 C 0.81918 0.67047 0.60483 0.0
C712 C 0.80782 0.67476 0.58291 0.0
C713 C 0.78214 0.68423 0.582 0.0
C714 C 0.87473 0.63679 0.59033 0.0
C715 C 0.90009 0.64246 0.60802 0.0
C716 C 0.84838 0.64579 0.58932 0.0
C717 C 0.84696 0.66072 0.6059 0.0
C718 C 0.87247 0.6664 0.62351 0.0
C719 C 0.89865 0.65736 0.62458 0.0
H720 H 0.91982 0.30112 0.31975 0.0
H721 H 0.8187 0.30977 0.31526 0.0
H722 H 0.94471 0.33552 0.32965 0.0
H723 H 0.84368 0.3443 0.32443 0.0
H724 H 0.89829 0.40094 0.3675 0.0
H725 H 0.87147 0.36663 0.35769 0.0
H726 H 0.9559 0.36625 0.30958 0.0
H727 H 0.98308 0.40026 0.3198 0.0
C728 C 0.90296 0.31041 0.32075 0.0
C729 C 0.86747 0.30285 0.31615 0.0
C730 C 0.91722 0.33013 0.32625 0.0
C731 C 0.89623 0.34268 0.32753 0.0
C732 C 0.86055 0.33501 0.32352 0.0
C733 C 0.84632 0.31529 0.31789 0.0
C734 C 0.91106 0.39351 0.35481 0.0
C735 C 0.94278 0.40336 0.3444 0.0
C736 C 0.89559 0.37391 0.34907 0.0
C737 C 0.91167 0.3637 0.33295 0.0
C738 C 0.94307 0.37364 0.32228 0.0
C739 C 0.95841 0.39321 0.3279 0.0
H740 H 0.12075 0.38828 0.77733 0.0
H741 H 0.1442 0.35929 0.7132 0.0
H742 H 0.1121 0.41403 0.7541 0.0
H743 H 0.13428 0.38466 0.68982 0.0
H744 H 0.13495 0.43949 0.65411 0.0
H745 H 0.15361 0.41775 0.67925 0.0
H746 H 0.06952 0.41775 0.72795 0.0
H747 H 0.0515 0.43959 0.7032 0.0
C748 C 0.12407 0.38741 0.75826 0.0
C749 C 0.13288 0.37167 0.74709 0.0
C750 C 0.11896 0.40213 0.7449 0.0
C751 C 0.12215 0.40137 0.72003 0.0
C752 C 0.13199 0.38588 0.70894 0.0
C753 C 0.13744 0.37124 0.72234 0.0
C754 C 0.12075 0.43496 0.67033 0.0
C755 C 0.09188 0.44134 0.67673 0.0
C756 C 0.13132 0.42245 0.68469 0.0
C757 C 0.11306 0.41594 0.70565 0.0
C758 C 0.08468 0.42273 0.71223 0.0
C759 C 0.0743 0.43528 0.69801 0.0
H760 H 0.32613 0.75302 0.38886 0.0
H761 H 0.3033 0.75106 0.31413 0.0
H762 H 0.27784 0.72418 0.39393 0.0
H763 H 0.25461 0.72233 0.31933 0.0
H764 H 0.18871 0.66081 0.33373 0.0
H765 H 0.24028 0.68801 0.32866 0.0
H766 H 0.21477 0.71578 0.39312 0.0
H767 H 0.16325 0.68877 0.3981 0.0
C768 C 0.31086 0.74643 0.37349 0.0
C769 C 0.31851 0.75441 0.3511 0.0
C770 C 0.28306 0.72994 0.37644 0.0
C771 C 0.26228 0.721 0.35706 0.0
C772 C 0.27033 0.72875 0.33457 0.0
C773 C 0.29812 0.74529 0.33162 0.0
C774 C 0.19408 0.67274 0.34679 0.0
C775 C 0.17182 0.67257 0.36634 0.0
C776 C 0.22362 0.68833 0.34388 0.0
C777 C 0.23164 0.70406 0.36049 0.0
C778 C 0.20967 0.70375 0.3802 0.0
C779 C 0.18013 0.68822 0.38308 0.0
H780 H 0.76286 0.79255 0.64157 0.0
H781 H 0.69899 0.78424 0.57929 0.0
H782 H 0.78567 0.82699 0.63391 0.0
H783 H 0.72173 0.81854 0.57163 0.0
H784 H 0.75043 0.88385 0.57387 0.0
H785 H 0.72333 0.85202 0.58932 0.0
H786 H 0.82404 0.84446 0.60042 0.0
H787 H 0.85123 0.87582 0.58425 0.0
C788 C 0.75312 0.79817 0.62659 0.0
C789 C 0.72895 0.78579 0.61113 0.0
C790 C 0.76638 0.81782 0.62209 0.0
C791 C 0.75533 0.82544 0.60225 0.0
C792 C 0.73038 0.81313 0.58724 0.0
C793 C 0.71757 0.79348 0.59151 0.0
C794 C 0.76686 0.87547 0.57967 0.0
C795 C 0.80309 0.88242 0.57752 0.0
C796 C 0.7513 0.85727 0.58862 0.0
C797 C 0.77159 0.84575 0.59594 0.0
C798 C 0.80775 0.85312 0.59514 0.0
C799 C 0.82333 0.87119 0.58592 0.0
H800 H 0.7795 0.31038 0.18434 0.0
H801 H 0.73873 0.33221 0.24768 0.0
H802 H 0.74647 0.32565 0.15997 0.0
H803 H 0.70529 0.34716 0.22331 0.0
H804 H 0.67275 0.38585 0.17338 0.0
H805 H 0.71154 0.37301 0.19585 0.0
H806 H 0.68596 0.32126 0.15022 0.0
H807 H 0.64813 0.3344 0.12722 0.0
C808 C 0.76355 0.31846 0.19307 0.0
C809 C 0.76168 0.32003 0.21796 0.0
C810 C 0.74449 0.32712 0.1791 0.0
C811 C 0.7232 0.33759 0.18969 0.0
C812 C 0.72178 0.33941 0.21458 0.0
C813 C 0.74079 0.33073 0.22856 0.0
C814 C 0.6759 0.37189 0.16787 0.0
C815 C 0.65731 0.36113 0.14853 0.0
C816 C 0.69781 0.36444 0.18092 0.0
C817 C 0.70167 0.34606 0.17492 0.0
C818 C 0.68378 0.33552 0.1552 0.0
C819 C 0.66183 0.34297 0.14217 0.0
H820 H 0.33262 0.27701 0.72603 0.0
H821 H 0.2431 0.26247 0.68058 0.0
H822 H 0.35963 0.25756 0.69979 0.0
H823 H 0.27027 0.24342 0.65426 0.0
H824 H 0.31107 0.1947 0.62561 0.0
H825 H 0.28593 0.21344 0.65392 0.0
H826 H 0.38453 0.25711 0.65984 0.0
H827 H 0.40976 0.23825 0.63152 0.0
C828 C 0.31877 0.26975 0.71041 0.0
C829 C 0.28564 0.27125 0.70545 0.0
C830 C 0.33431 0.25867 0.69533 0.0
C831 C 0.31702 0.24884 0.67501 0.0
C832 C 0.28405 0.25051 0.66999 0.0
C833 C 0.26855 0.26156 0.68502 0.0
C834 C 0.32738 0.20831 0.63294 0.0
C835 C 0.36233 0.21507 0.62617 0.0
C836 C 0.31297 0.21907 0.64913 0.0
C837 C 0.33312 0.23688 0.65895 0.0
C838 C 0.36836 0.24338 0.65276 0.0
C839 C 0.38283 0.23257 0.63654 0.0
H840 H 0.49155 0.86359 0.28229 0.0
H841 H 0.389 0.82575 0.29433 0.0
H842 H 0.48449 0.85684 0.23985 0.0
H843 H 0.38217 0.81863 0.25163 0.0
H844 H 0.41298 0.79197 0.17919 0.0
H845 H 0.40806 0.80118 0.22091 0.0
H846 H 0.45226 0.86122 0.20535 0.0
H847 H 0.45713 0.852 0.16353 0.0
C848 C 0.46736 0.85389 0.27589 0.0
C849 C 0.44122 0.84477 0.29182 0.0
C850 C 0.46324 0.8501 0.25149 0.0
C851 C 0.43281 0.83713 0.24234 0.0
C852 C 0.40615 0.82844 0.25818 0.0
C853 C 0.41023 0.83234 0.28268 0.0
C854 C 0.4207 0.80718 0.18452 0.0
C855 C 0.4358 0.82124 0.16806 0.0
C856 C 0.41793 0.81246 0.20848 0.0
C857 C 0.43023 0.8319 0.2165 0.0
C858 C 0.4432 0.84607 0.19979 0.0
C859 C 0.44594 0.8408 0.17584 0.0
H860 H 0.89914 0.18852 0.32986 0.0
H861 H 0.81367 0.19456 0.37387 0.0
H862 H 0.90621 0.16334 0.35491 0.0
H863 H 0.82134 0.16985 0.39927 0.0
H864 H 0.82158 0.11347 0.42885 0.0
H865 H 0.81409 0.13589 0.40005 0.0
H866 H 0.92504 0.15897 0.39377 0.0
H867 H 0.93255 0.13579 0.42163 0.0
C868 C 0.88199 0.18456 0.34496 0.0
C869 C 0.85583 0.19355 0.34986 0.0
C870 C 0.88612 0.17016 0.35938 0.0
C871 C 0.86427 0.16448 0.37908 0.0
C872 C 0.83822 0.17357 0.38399 0.0
C873 C 0.83399 0.18788 0.36953 0.0
C874 C 0.84442 0.12297 0.4209 0.0
C875 C 0.8777 0.12283 0.42766 0.0
C876 C 0.84011 0.13607 0.40465 0.0
C877 C 0.86894 0.14946 0.39481 0.0
C878 C 0.90223 0.14883 0.40088 0.0
C879 C 0.90655 0.13566 0.41707 0.0
H880 H 0.2376 0.35515 0.83722 0.0
H881 H 0.27131 0.30926 0.80193 0.0
H882 H 0.29024 0.36433 0.8608 0.0
H883 H 0.32471 0.31914 0.82469 0.0
H884 H 0.43129 0.36194 0.84942 0.0
H885 H 0.37735 0.3503 0.82715 0.0
H886 H 0.31897 0.34885 0.89234 0.0
H887 H 0.37307 0.36034 0.91469 0.0
C888 C 0.25629 0.34708 0.83433 0.0
C889 C 0.25065 0.33183 0.81705 0.0
C890 C 0.28636 0.35233 0.8479 0.0
C891 C 0.31159 0.34254 0.84438 0.0
C892 C 0.30587 0.32713 0.8274 0.0
C893 C 0.27549 0.32167 0.81408 0.0
C894 C 0.4069 0.3591 0.85895 0.0
C895 C 0.40622 0.36211 0.88371 0.0
C896 C 0.37613 0.35232 0.84626 0.0
C897 C 0.3441 0.34872 0.85806 0.0
C898 C 0.34338 0.35163 0.88285 0.0
C899 C 0.37422 0.35809 0.89561 0.0
H900 H 0.41734 0.89183 0.42751 0.0
H901 H 0.48883 0.93623 0.38815 0.0
H902 H 0.40106 0.91666 0.452 0.0
H903 H 0.47215 0.96106 0.41257 0.0
H904 H 0.39841 0.99585 0.44537 0.0
H905 H 0.4167 0.97194 0.42015 0.0
H906 H 0.43263 0.94325 0.48248 0.0
H907 H 0.41451 0.96715 0.50765 0.0
C908 C 0.42942 0.90687 0.42399 0.0
C909 C 0.45439 0.91208 0.40592 0.0
C910 C 0.42025 0.92107 0.4381 0.0
C911 C 0.43547 0.94075 0.43421 0.0
C912 C 0.45995 0.94598 0.41586 0.0
C913 C 0.46954 0.93178 0.40197 0.0
C914 C 0.40601 0.98448 0.45362 0.0
C915 C 0.40511 0.98334 0.47843 0.0
C916 C 0.4166 0.97089 0.43924 0.0
C917 C 0.42589 0.95573 0.4494 0.0
C918 C 0.42532 0.95471 0.47421 0.0
C919 C 0.41527 0.96846 0.48859 0.0
H920 H 0.62173 0.75132 0.73853 0.0
H921 H 0.70173 0.80591 0.74168 0.0
H922 H 0.59668 0.76053 0.77523 0.0
H923 H 0.67636 0.81515 0.77852 0.0
H924 H 0.63569 0.81568 0.85632 0.0
H925 H 0.66442 0.80594 0.8213 0.0
H926 H 0.56595 0.78512 0.78599 0.0
H927 H 0.5374 0.79518 0.82048 0.0
C928 C 0.6341 0.76525 0.7471 0.0
C929 C 0.6636 0.77794 0.73707 0.0
C930 C 0.61963 0.77055 0.76809 0.0
C931 C 0.6344 0.78861 0.77964 0.0
C932 C 0.66454 0.80109 0.77006 0.0
C933 C 0.67893 0.79583 0.74892 0.0
C934 C 0.62021 0.80915 0.84103 0.0
C935 C 0.58415 0.80608 0.84135 0.0
C936 C 0.63668 0.80355 0.82101 0.0
C937 C 0.61739 0.79464 0.801 0.0
C938 C 0.58143 0.79161 0.80132 0.0
C939 C 0.56505 0.79732 0.82117 0.0
loop_
_geom_bond_atom_site_label_1
_geom_bond_atom_site_label_2
_geom_bond_distance
_geom_bond_site_symmetry_2
_ccdc_geom_bond_type
O0 Cd1 2.300 . S
O0 C7 1.275 . S
Cd1 O0 2.300 . S
Cd1 O9 2.381 . S
Cd1 O10 2.378 . S
O2 Cd3 2.385 . S
O2 C7 1.255 . S
Cd3 O2 2.385 . S
Cd3 O4 2.317 . S
O4 Cd3 2.317 . S
O4 C5 1.232 . S
C5 O4 1.232 . S
C5 O6 1.218 . S
O6 C5 1.218 . S
C7 O0 1.275 . S
C7 O2 1.255 . S
C8 O9 1.258 . S
C8 O10 1.256 . S
O9 Cd1 2.381 . S
O9 C8 1.258 . S
O10 Cd1 2.378 . S
O10 C8 1.256 . S
O11 Cd12 2.300 . S
O11 C18 1.275 . S
Cd12 O11 2.300 . S
Cd12 O20 2.381 . S
Cd12 O21 2.378 . S
O13 Cd14 2.385 . S
O13 C18 1.255 . S
Cd14 O13 2.385 . S
Cd14 O15 2.317 . S
O15 Cd14 2.317 . S
O15 C16 1.232 . S
C16 O15 1.232 . S
C16 O17 1.218 . S
O17 C16 1.218 . S
C18 O11 1.275 . S
C18 O13 1.255 . S
C19 O20 1.258 . S
C19 O21 1.256 . S
O20 Cd12 2.381 . S
O20 C19 1.258 . S
O21 Cd12 2.378 . S
O21 C19 1.256 . S
O22 Cd23 2.300 . S
O22 C29 1.275 . S
Cd23 O22 2.300 . S
Cd23 O31 2.381 . S
Cd23 O32 2.378 . S
O24 Cd25 2.385 . S
O24 C29 1.255 . S
Cd25 O24 2.385 . S
Cd25 O26 2.317 . S
O26 Cd25 2.317 . S
O26 C27 1.232 . S
C27 O26 1.232 . S
C27 O28 1.218 . S
O28 C27 1.218 . S
C29 O22 1.275 . S
C29 O24 1.255 . S
C30 O31 1.258 . S
C30 O32 1.256 . S
O31 Cd23 2.381 . S
O31 C30 1.258 . S
O32 Cd23 2.378 . S
O32 C30 1.256 . S
O33 Cd34 2.300 . S
O33 C40 1.275 . S
Cd34 O33 2.300 . S
Cd34 O42 2.381 . S
Cd34 O43 2.378 . S
O35 Cd36 2.385 . S
O35 C40 1.255 . S
Cd36 O35 2.385 . S
Cd36 O37 2.317 . S
O37 Cd36 2.317 . S
O37 C38 1.232 . S
C38 O37 1.232 . S
C38 O39 1.218 . S
O39 C38 1.218 . S
C40 O33 1.275 . S
C40 O35 1.255 . S
C41 O42 1.258 . S
C41 O43 1.256 . S
O42 Cd34 2.381 . S
O42 C41 1.258 . S
O43 Cd34 2.378 . S
O43 C41 1.256 . S
O44 Cd45 2.300 . S
O44 C51 1.275 . S
Cd45 O44 2.300 . S
Cd45 O53 2.381 . S
Cd45 O54 2.378 . S
O46 Cd47 2.385 . S
O46 C51 1.255 . S
Cd47 O46 2.385 . S
Cd47 O48 2.317 . S
O48 Cd47 2.317 . S
O48 C49 1.232 . S
C49 O48 1.232 . S
C49 O50 1.218 . S
O50 C49 1.218 . S
C51 O44 1.275 . S
C51 O46 1.255 . S
C52 O53 1.258 . S
C52 O54 1.256 . S
O53 Cd45 2.381 . S
O53 C52 1.258 . S
O54 Cd45 2.378 . S
O54 C52 1.256 . S
O55 Cd56 2.300 . S
O55 C62 1.275 . S
Cd56 O55 2.300 . S
Cd56 O64 2.381 . S
Cd56 O65 2.378 . S
O57 Cd58 2.385 . S
O57 C62 1.255 . S
Cd58 O57 2.385 . S
Cd58 O59 2.317 . S
O59 Cd58 2.317 . S
O59 C60 1.232 . S
C60 O59 1.232 . S
C60 O61 1.218 . S
O61 C60 1.218 . S
C62 O55 1.275 . S
C62 O57 1.255 . S
C63 O64 1.258 . S
C63 O65 1.256 . S
O64 Cd56 2.381 . S
O64 C63 1.258 . S
O65 Cd56 2.378 . S
O65 C63 1.256 . S
O66 Cd67 2.300 . S
O66 C73 1.275 . S
Cd67 O66 2.300 . S
Cd67 O75 2.381 . S
Cd67 O76 2.378 . S
O68 Cd69 2.385 . S
O68 C73 1.255 . S
Cd69 O68 2.385 . S
Cd69 O70 2.317 . S
O70 Cd69 2.317 . S
O70 C71 1.232 . S
C71 O70 1.232 . S
C71 O72 1.218 . S
O72 C71 1.218 . S
C73 O66 1.275 . S
C73 O68 1.255 . S
C74 O75 1.258 . S
C74 O76 1.256 . S
O75 Cd67 2.381 . S
O75 C74 1.258 . S
O76 Cd67 2.378 . S
O76 C74 1.256 . S
O77 Cd78 2.300 . S
O77 C84 1.275 . S
Cd78 O77 2.300 . S
Cd78 O86 2.381 . S
Cd78 O87 2.378 . S
O79 Cd80 2.385 . S
O79 C84 1.255 . S
Cd80 O79 2.385 . S
Cd80 O81 2.317 . S
O81 Cd80 2.317 . S
O81 C82 1.232 . S
C82 O81 1.232 . S
C82 O83 1.218 . S
O83 C82 1.218 . S
C84 O77 1.275 . S
C84 O79 1.255 . S
C85 O86 1.258 . S
C85 O87 1.256 . S
O86 Cd78 2.381 . S
O86 C85 1.258 . S
O87 Cd78 2.378 . S
O87 C85 1.256 . S
H88 C115 0.929 . S
N89 C114 1.433 . S
N89 C120 1.435 . S
N89 C126 1.423 . S
H90 C116 0.930 . S
H91 C119 0.931 1_455 S
H92 C118 0.929 . S
H93 C121 0.930 . S
H94 C122 0.932 . S
H95 C125 0.929 . S
H96 C124 0.931 . S
H97 C127 0.929 . S
H98 C131 0.932 . S
H99 C128 0.931 . S
H100 C130 0.929 . S
H101 C133 0.929 . S
H102 C134 0.930 . S
H103 C136 0.929 . S
H104 C137 0.931 . S
H105 C139 0.930 . S
H106 C140 0.932 . S
H107 C142 0.931 . S
H108 C143 0.929 . S
H109 C145 0.929 . S
H110 C146 0.931 . S
H111 C148 0.929 . S
N112 C132 1.433 . S
N112 C138 1.435 . S
N112 C144 1.423 . S
H113 C149 0.932 . S
C114 N89 1.433 . S
C114 C115 1.363 . S
C114 C119 1.370 1_455 S
C115 H88 0.929 . S
C115 C114 1.363 . S
C115 C116 1.385 1_455 S
C116 H90 0.930 . S
C116 C115 1.385 1_655 S
C116 C117 1.357 . S
C117 C116 1.357 . S
C117 C118 1.406 . S
C118 H92 0.929 . S
C118 C117 1.406 . S
C118 C119 1.391 . S
C119 H91 0.931 1_655 S
C119 C114 1.370 1_655 S
C119 C118 1.391 . S
C120 N89 1.435 . S
C120 C121 1.358 . S
C120 C125 1.371 . S
C121 H93 0.930 . S
C121 C120 1.358 . S
C121 C122 1.405 . S
C122 H94 0.932 . S
C122 C121 1.405 . S
C122 C123 1.383 . S
C123 C122 1.383 . S
C123 C124 1.393 . S
C124 H96 0.931 . S
C124 C123 1.393 . S
C124 C125 1.382 . S
C125 H95 0.929 . S
C125 C120 1.371 . S
C125 C124 1.382 . S
C126 N89 1.423 . S
C126 C127 1.362 . S
C126 C131 1.388 . S
C127 H97 0.929 . S
C127 C126 1.362 . S
C127 C128 1.376 . S
C128 H99 0.931 . S
C128 C127 1.376 . S
C128 C129 1.396 . S
C129 C128 1.396 . S
C129 C130 1.348 . S
C129 C147 1.472 . S
C130 H100 0.929 . S
C130 C129 1.348 . S
C130 C131 1.443 . S
C131 H98 0.932 . S
C131 C126 1.388 . S
C131 C130 1.443 . S
C132 N112 1.433 . S
C132 C133 1.363 . S
C132 C137 1.370 . S
C133 H101 0.929 . S
C133 C132 1.363 . S
C133 C134 1.385 1_455 S
C134 H102 0.930 . S
C134 C133 1.385 1_655 S
C134 C135 1.357 . S
C135 C134 1.357 . S
C135 C136 1.406 . S
C136 H103 0.929 . S
C136 C135 1.406 . S
C136 C137 1.391 1_655 S
C137 H104 0.931 . S
C137 C132 1.370 . S
C137 C136 1.391 1_455 S
C138 N112 1.435 . S
C138 C139 1.358 . S
C138 C143 1.371 . S
C139 H105 0.930 . S
C139 C138 1.358 . S
C139 C140 1.405 . S
C140 H106 0.932 . S
C140 C139 1.405 . S
C140 C141 1.383 . S
C141 C140 1.383 . S
C141 C142 1.393 . S
C142 H107 0.931 . S
C142 C141 1.393 . S
C142 C143 1.382 . S
C143 H108 0.929 . S
C143 C138 1.371 . S
C143 C142 1.382 . S
C144 N112 1.423 . S
C144 C145 1.362 . S
C144 C149 1.388 . S
C145 H109 0.929 . S
C145 C144 1.362 . S
C145 C146 1.376 . S
C146 H110 0.931 . S
C146 C145 1.376 . S
C146 C147 1.396 . S
C147 C129 1.472 . S
C147 C146 1.396 . S
C147 C148 1.348 . S
C148 H111 0.929 . S
C148 C147 1.348 . S
C148 C149 1.443 . S
C149 H113 0.932 . S
C149 C144 1.388 . S
C149 C148 1.443 . S
H150 C177 0.929 . S
N151 C176 1.433 1_455 S
N151 C182 1.435 . S
N151 C188 1.423 . S
H152 C178 0.930 . S
H153 C181 0.931 . S
H154 C180 0.929 . S
H155 C183 0.930 . S
H156 C184 0.932 . S
H157 C187 0.929 . S
H158 C186 0.931 . S
H159 C189 0.929 . S
H160 C193 0.932 . S
H161 C190 0.931 . S
H162 C192 0.929 . S
H163 C195 0.929 . S
H164 C196 0.930 . S
H165 C198 0.929 . S
H166 C199 0.931 . S
H167 C201 0.930 . S
H168 C202 0.932 . S
H169 C204 0.931 . S
H170 C205 0.929 . S
H171 C207 0.929 . S
H172 C208 0.931 . S
H173 C210 0.929 . S
N174 C194 1.433 1_455 S
N174 C200 1.435 . S
N174 C206 1.423 . S
H175 C211 0.932 . S
C176 N151 1.433 1_655 S
C176 C177 1.363 . S
C176 C181 1.370 . S
C177 H150 0.929 . S
C177 C176 1.363 . S
C177 C178 1.385 . S
C178 H152 0.930 . S
C178 C177 1.385 . S
C178 C179 1.357 . S
C179 C178 1.357 . S
C179 C180 1.406 . S
C180 H154 0.929 . S
C180 C179 1.406 . S
C180 C181 1.391 . S
C181 H153 0.931 . S
C181 C176 1.370 . S
C181 C180 1.391 . S
C182 N151 1.435 . S
C182 C183 1.358 . S
C182 C187 1.371 . S
C183 H155 0.930 . S
C183 C182 1.358 . S
C183 C184 1.405 . S
C184 H156 0.932 . S
C184 C183 1.405 . S
C184 C185 1.383 . S
C185 C184 1.383 . S
C185 C186 1.393 . S
C186 H158 0.931 . S
C186 C185 1.393 . S
C186 C187 1.382 . S
C187 H157 0.929 . S
C187 C182 1.371 . S
C187 C186 1.382 . S
C188 N151 1.423 . S
C188 C189 1.362 1_455 S
C188 C193 1.388 . S
C189 H159 0.929 . S
C189 C188 1.362 1_655 S
C189 C190 1.376 . S
C190 H161 0.931 . S
C190 C189 1.376 . S
C190 C191 1.396 1_655 S
C191 C190 1.396 1_455 S
C191 C192 1.348 . S
C191 C209 1.472 . S
C192 H162 0.929 . S
C192 C191 1.348 . S
C192 C193 1.443 . S
C193 H160 0.932 . S
C193 C188 1.388 . S
C193 C192 1.443 . S
C194 N174 1.433 1_655 S
C194 C195 1.363 . S
C194 C199 1.370 . S
C195 H163 0.929 . S
C195 C194 1.363 . S
C195 C196 1.385 . S
C196 H164 0.930 . S
C196 C195 1.385 . S
C196 C197 1.357 . S
C197 C196 1.357 . S
C197 C198 1.406 . S
C198 H165 0.929 . S
C198 C197 1.406 . S
C198 C199 1.391 . S
C199 H166 0.931 . S
C199 C194 1.370 . S
C199 C198 1.391 . S
C200 N174 1.435 . S
C200 C201 1.358 . S
C200 C205 1.371 . S
C201 H167 0.930 . S
C201 C200 1.358 . S
C201 C202 1.405 . S
C202 H168 0.932 . S
C202 C201 1.405 . S
C202 C203 1.383 . S
C203 C202 1.383 . S
C203 C204 1.393 . S
C204 H169 0.931 . S
C204 C203 1.393 . S
C204 C205 1.382 . S
C205 H170 0.929 . S
C205 C200 1.371 . S
C205 C204 1.382 . S
C206 N174 1.423 . S
C206 C207 1.362 1_455 S
C206 C211 1.388 . S
C207 H171 0.929 . S
C207 C206 1.362 1_655 S
C207 C208 1.376 . S
C208 H172 0.931 . S
C208 C207 1.376 . S
C208 C209 1.396 1_655 S
C209 C191 1.472 . S
C209 C208 1.396 1_455 S
C209 C210 1.348 . S
C210 H173 0.929 . S
C210 C209 1.348 . S
C210 C211 1.443 . S
C211 H175 0.932 . S
C211 C206 1.388 . S
C211 C210 1.443 . S
H212 C239 0.929 . S
N213 C238 1.433 . S
N213 C244 1.435 . S
N213 C250 1.423 . S
H214 C240 0.930 . S
H215 C243 0.931 . S
H216 C242 0.929 . S
H217 C245 0.930 . S
H218 C246 0.932 . S
H219 C249 0.929 . S
H220 C248 0.931 . S
H221 C251 0.929 . S
H222 C255 0.932 . S
H223 C252 0.931 . S
H224 C254 0.929 . S
H225 C257 0.929 . S
H226 C258 0.930 1_565 S
H227 C260 0.929 . S
H228 C261 0.931 . S
H229 C263 0.930 . S
H230 C264 0.932 1_565 S
H231 C266 0.931 . S
H232 C267 0.929 . S
H233 C269 0.929 . S
H234 C270 0.931 . S
H235 C272 0.929 . S
N236 C256 1.433 . S
N236 C262 1.435 . S
N236 C268 1.423 . S
H237 C273 0.932 . S
C238 N213 1.433 . S
C238 C239 1.363 . S
C238 C243 1.370 . S
C239 H212 0.929 . S
C239 C238 1.363 . S
C239 C240 1.385 . S
C240 H214 0.930 . S
C240 C239 1.385 . S
C240 C241 1.357 . S
C241 C240 1.357 . S
C241 C242 1.406 . S
C242 H216 0.929 . S
C242 C241 1.406 . S
C242 C243 1.391 . S
C243 H215 0.931 . S
C243 C238 1.370 . S
C243 C242 1.391 . S
C244 N213 1.435 . S
C244 C245 1.358 . S
C244 C249 1.371 . S
C245 H217 0.930 . S
C245 C244 1.358 . S
C245 C246 1.405 . S
C246 H218 0.932 . S
C246 C245 1.405 . S
C246 C247 1.383 . S
C247 C246 1.383 . S
C247 C248 1.393 . S
C248 H220 0.931 . S
C248 C247 1.393 . S
C248 C249 1.382 . S
C249 H219 0.929 . S
C249 C244 1.371 . S
C249 C248 1.382 . S
C250 N213 1.423 . S
C250 C251 1.362 . S
C250 C255 1.388 . S
C251 H221 0.929 . S
C251 C250 1.362 . S
C251 C252 1.376 . S
C252 H223 0.931 . S
C252 C251 1.376 . S
C252 C253 1.396 . S
C253 C252 1.396 . S
C253 C254 1.348 . S
C253 C271 1.472 . S
C254 H224 0.929 . S
C254 C253 1.348 . S
C254 C255 1.443 . S
C255 H222 0.932 . S
C255 C250 1.388 . S
C255 C254 1.443 . S
C256 N236 1.433 . S
C256 C257 1.363 . S
C256 C261 1.370 . S
C257 H225 0.929 . S
C257 C256 1.363 . S
C257 C258 1.385 . S
C258 H226 0.930 1_545 S
C258 C257 1.385 . S
C258 C259 1.357 . S
C259 C258 1.357 . S
C259 C260 1.406 . S
C260 H227 0.929 . S
C260 C259 1.406 . S
C260 C261 1.391 . S
C261 H228 0.931 . S
C261 C256 1.370 . S
C261 C260 1.391 . S
C262 N236 1.435 . S
C262 C263 1.358 . S
C262 C267 1.371 . S
C263 H229 0.930 . S
C263 C262 1.358 . S
C263 C264 1.405 . S
C264 H230 0.932 1_545 S
C264 C263 1.405 . S
C264 C265 1.383 . S
C265 C264 1.383 . S
C265 C266 1.393 . S
C266 H231 0.931 . S
C266 C265 1.393 . S
C266 C267 1.382 . S
C267 H232 0.929 . S
C267 C262 1.371 . S
C267 C266 1.382 . S
C268 N236 1.423 . S
C268 C269 1.362 . S
C268 C273 1.388 . S
C269 H233 0.929 . S
C269 C268 1.362 . S
C269 C270 1.376 . S
C270 H234 0.931 . S
C270 C269 1.376 . S
C270 C271 1.396 . S
C271 C253 1.472 . S
C271 C270 1.396 . S
C271 C272 1.348 . S
C272 H235 0.929 . S
C272 C271 1.348 . S
C272 C273 1.443 . S
C273 H237 0.932 . S
C273 C268 1.388 . S
C273 C272 1.443 . S
H274 C301 0.929 . S
N275 C300 1.433 . S
N275 C306 1.435 . S
N275 C312 1.423 . S
H276 C302 0.930 . S
H277 C305 0.931 . S
H278 C304 0.929 . S
H279 C307 0.930 . S
H280 C308 0.932 . S
H281 C311 0.929 . S
H282 C310 0.931 . S
H283 C313 0.929 . S
H284 C317 0.932 . S
H285 C314 0.931 . S
H286 C316 0.929 . S
H287 C319 0.929 . S
H288 C320 0.930 . S
H289 C322 0.929 . S
H290 C323 0.931 . S
H291 C325 0.930 . S
H292 C326 0.932 . S
H293 C328 0.931 . S
H294 C329 0.929 . S
H295 C331 0.929 . S
H296 C332 0.931 . S
H297 C334 0.948 . S
N298 C318 1.433 . S
N298 C324 1.435 . S
N298 C330 1.423 . S
H299 C335 0.932 . S
C300 N275 1.433 . S
C300 C301 1.363 . S
C300 C305 1.370 . S
C301 H274 0.929 . S
C301 C300 1.363 . S
C301 C302 1.385 . S
C302 H276 0.930 . S
C302 C301 1.385 . S
C302 C303 1.357 . S
C303 C302 1.357 . S
C303 C304 1.406 . S
C304 H278 0.929 . S
C304 C303 1.406 . S
C304 C305 1.391 . S
C305 H277 0.931 . S
C305 C300 1.370 . S
C305 C304 1.391 . S
C306 N275 1.435 . S
C306 C307 1.358 . S
C306 C311 1.371 . S
C307 H279 0.930 . S
C307 C306 1.358 . S
C307 C308 1.405 . S
C308 H280 0.932 . S
C308 C307 1.405 . S
C308 C309 1.383 . S
C309 C308 1.383 . S
C309 C310 1.393 . S
C310 H282 0.931 . S
C310 C309 1.393 . S
C310 C311 1.382 . S
C311 H281 0.929 . S
C311 C306 1.371 . S
C311 C310 1.382 . S
C312 N275 1.423 . S
C312 C313 1.362 . S
C312 C317 1.388 . S
C313 H283 0.929 . S
C313 C312 1.362 . S
C313 C314 1.376 . S
C314 H285 0.931 . S
C314 C313 1.376 . S
C314 C315 1.396 . S
C315 C314 1.396 . S
C315 C316 1.348 . S
C315 C333 1.477 . S
C316 H286 0.929 . S
C316 C315 1.348 . S
C316 C317 1.443 . S
C317 H284 0.932 . S
C317 C312 1.388 . S
C317 C316 1.443 . S
C318 N298 1.433 . S
C318 C319 1.363 . S
C318 C323 1.370 . S
C319 H287 0.929 . S
C319 C318 1.363 . S
C319 C320 1.385 . S
C320 H288 0.930 . S
C320 C319 1.385 . S
C320 C321 1.357 . S
C321 C320 1.357 . S
C321 C322 1.406 . S
C322 H289 0.929 . S
C322 C321 1.406 . S
C322 C323 1.391 . S
C323 H290 0.931 . S
C323 C318 1.370 . S
C323 C322 1.391 . S
C324 N298 1.435 . S
C324 C325 1.358 . S
C324 C329 1.371 . S
C325 H291 0.930 . S
C325 C324 1.358 . S
C325 C326 1.405 . S
C326 H292 0.932 . S
C326 C325 1.405 . S
C326 C327 1.383 . S
C327 C326 1.383 . S
C327 C328 1.393 . S
C328 H293 0.931 . S
C328 C327 1.393 . S
C328 C329 1.382 . S
C329 H294 0.929 . S
C329 C324 1.371 . S
C329 C328 1.382 . S
C330 N298 1.423 . S
C330 C331 1.362 . S
C330 C335 1.388 . S
C331 H295 0.929 . S
C331 C330 1.362 . S
C331 C332 1.376 . S
C332 H296 0.931 . S
C332 C331 1.376 . S
C332 C333 1.393 1_556 S
C333 C315 1.477 . S
C333 C332 1.393 1_554 S
C333 C334 1.345 1_554 S
C334 H297 0.948 . S
C334 C333 1.345 1_556 S
C334 C335 1.443 . S
C335 H299 0.932 . S
C335 C330 1.388 . S
C335 C334 1.443 . S
H336 C363 0.929 . S
N337 C362 1.433 . S
N337 C368 1.435 . S
N337 C374 1.423 . S
H338 C364 0.930 . S
H339 C367 0.931 . S
H340 C366 0.929 . S
H341 C369 0.930 . S
H342 C370 0.932 . S
H343 C373 0.929 . S
H344 C372 0.931 . S
H345 C375 0.929 . S
H346 C379 0.932 . S
H347 C376 0.931 . S
H348 C378 0.929 . S
H349 C381 0.929 . S
H350 C382 0.930 . S
H351 C384 0.929 . S
H352 C385 0.931 . S
H353 C387 0.930 . S
H354 C388 0.932 . S
H355 C390 0.931 . S
H356 C391 0.929 . S
H357 C393 0.929 . S
H358 C394 0.931 . S
H359 C396 0.929 1_545 S
N360 C380 1.433 . S
N360 C386 1.435 . S
N360 C392 1.423 . S
H361 C397 0.932 . S
C362 N337 1.433 . S
C362 C363 1.363 . S
C362 C367 1.370 . S
C363 H336 0.929 . S
C363 C362 1.363 . S
C363 C364 1.385 . S
C364 H338 0.930 . S
C364 C363 1.385 . S
C364 C365 1.357 . S
C365 C364 1.357 . S
C365 C366 1.406 . S
C366 H340 0.929 . S
C366 C365 1.406 . S
C366 C367 1.391 . S
C367 H339 0.931 . S
C367 C362 1.370 . S
C367 C366 1.391 . S
C368 N337 1.435 . S
C368 C369 1.358 . S
C368 C373 1.371 . S
C369 H341 0.930 . S
C369 C368 1.358 . S
C369 C370 1.405 . S
C370 H342 0.932 . S
C370 C369 1.405 . S
C370 C371 1.383 . S
C371 C370 1.383 . S
C371 C372 1.393 . S
C372 H344 0.931 . S
C372 C371 1.393 . S
C372 C373 1.382 . S
C373 H343 0.929 . S
C373 C368 1.371 . S
C373 C372 1.382 . S
C374 N337 1.423 . S
C374 C375 1.362 . S
C374 C379 1.388 . S
C375 H345 0.929 . S
C375 C374 1.362 . S
C375 C376 1.376 . S
C376 H347 0.931 . S
C376 C375 1.376 . S
C376 C377 1.396 . S
C377 C376 1.396 . S
C377 C378 1.348 . S
C377 C395 1.472 . S
C378 H348 0.929 . S
C378 C377 1.348 . S
C378 C379 1.443 . S
C379 H346 0.932 . S
C379 C374 1.388 . S
C379 C378 1.443 . S
C380 N360 1.433 . S
C380 C381 1.363 . S
C380 C385 1.370 . S
C381 H349 0.929 . S
C381 C380 1.363 . S
C381 C382 1.385 . S
C382 H350 0.930 . S
C382 C381 1.385 . S
C382 C383 1.357 . S
C383 C382 1.357 . S
C383 C384 1.406 . S
C384 H351 0.929 . S
C384 C383 1.406 . S
C384 C385 1.391 . S
C385 H352 0.931 . S
C385 C380 1.370 . S
C385 C384 1.391 . S
C386 N360 1.435 . S
C386 C387 1.358 . S
C386 C391 1.371 . S
C387 H353 0.930 . S
C387 C386 1.358 . S
C387 C388 1.405 . S
C388 H354 0.932 . S
C388 C387 1.405 . S
C388 C389 1.383 . S
C389 C388 1.383 . S
C389 C390 1.393 . S
C390 H355 0.931 . S
C390 C389 1.393 . S
C390 C391 1.382 . S
C391 H356 0.929 . S
C391 C386 1.371 . S
C391 C390 1.382 . S
C392 N360 1.423 . S
C392 C393 1.362 . S
C392 C397 1.388 . S
C393 H357 0.929 . S
C393 C392 1.362 . S
C393 C394 1.376 . S
C394 H358 0.931 . S
C394 C393 1.376 . S
C394 C395 1.396 1_565 S
C395 C377 1.472 . S
C395 C394 1.396 1_545 S
C395 C396 1.348 1_545 S
C396 H359 0.929 1_565 S
C396 C395 1.348 1_565 S
C396 C397 1.443 . S
C397 H361 0.932 . S
C397 C392 1.388 . S
C397 C396 1.443 . S
H398 C425 0.929 . S
N399 C424 1.433 . S
N399 C430 1.435 . S
N399 C436 1.423 . S
H400 C426 0.930 . S
H401 C429 0.931 . S
H402 C428 0.929 . S
H403 C431 0.930 . S
H404 C432 0.932 . S
H405 C435 0.929 . S
H406 C434 0.931 . S
H407 C437 0.929 . S
H408 C441 0.932 . S
H409 C438 0.931 . S
H410 C440 0.929 . S
H411 C443 0.929 . S
H412 C444 0.930 . S
H413 C446 0.929 . S
H414 C447 0.931 . S
H415 C449 0.930 . S
H416 C450 0.932 . S
H417 C452 0.931 . S
H418 C453 0.929 . S
H419 C455 0.929 . S
H420 C456 0.931 . S
H421 C458 0.929 . S
N422 C442 1.433 . S
N422 C448 1.435 . S
N422 C454 1.423 . S
H423 C459 0.932 . S
C424 N399 1.433 . S
C424 C425 1.363 . S
C424 C429 1.370 . S
C425 H398 0.929 . S
C425 C424 1.363 . S
C425 C426 1.385 . S
C426 H400 0.930 . S
C426 C425 1.385 . S
C426 C427 1.357 . S
C427 C426 1.357 . S
C427 C428 1.406 . S
C428 H402 0.929 . S
C428 C427 1.406 . S
C428 C429 1.391 . S
C429 H401 0.931 . S
C429 C424 1.370 . S
C429 C428 1.391 . S
C430 N399 1.435 . S
C430 C431 1.358 . S
C430 C435 1.371 . S
C431 H403 0.930 . S
C431 C430 1.358 . S
C431 C432 1.405 . S
C432 H404 0.932 . S
C432 C431 1.405 . S
C432 C433 1.383 . S
C433 C432 1.383 . S
C433 C434 1.393 . S
C434 H406 0.931 . S
C434 C433 1.393 . S
C434 C435 1.382 . S
C435 H405 0.929 . S
C435 C430 1.371 . S
C435 C434 1.382 . S
C436 N399 1.423 . S
C436 C437 1.362 . S
C436 C441 1.388 . S
C437 H407 0.929 . S
C437 C436 1.362 . S
C437 C438 1.376 . S
C438 H409 0.931 . S
C438 C437 1.376 . S
C438 C439 1.396 . S
C439 C438 1.396 . S
C439 C440 1.348 . S
C439 C457 1.480 . S
C440 H410 0.929 . S
C440 C439 1.348 . S
C440 C441 1.443 . S
C441 H408 0.932 . S
C441 C436 1.388 . S
C441 C440 1.443 . S
C442 N422 1.433 . S
C442 C443 1.363 . S
C442 C447 1.370 . S
C443 H411 0.929 . S
C443 C442 1.363 . S
C443 C444 1.385 . S
C444 H412 0.930 . S
C444 C443 1.385 . S
C444 C445 1.357 . S
C445 C444 1.357 . S
C445 C446 1.406 . S
C446 H413 0.929 . S
C446 C445 1.406 . S
C446 C447 1.391 . S
C447 H414 0.931 . S
C447 C442 1.370 . S
C447 C446 1.391 . S
C448 N422 1.435 . S
C448 C449 1.358 . S
C448 C453 1.371 . S
C449 H415 0.930 . S
C449 C448 1.358 . S
C449 C450 1.405 . S
C450 H416 0.932 . S
C450 C449 1.405 . S
C450 C451 1.383 . S
C451 C450 1.383 . S
C451 C452 1.393 . S
C452 H417 0.931 . S
C452 C451 1.393 . S
C452 C453 1.382 . S
C453 H418 0.929 . S
C453 C448 1.371 . S
C453 C452 1.382 . S
C454 N422 1.423 . S
C454 C455 1.362 . S
C454 C459 1.388 . S
C455 H419 0.929 . S
C455 C454 1.362 . S
C455 C456 1.376 . S
C456 H420 0.931 . S
C456 C455 1.376 . S
C456 C457 1.392 1_556 S
C457 C439 1.480 . S
C457 C456 1.392 1_554 S
C457 C458 1.344 1_554 S
C458 H421 0.929 . S
C458 C457 1.344 1_556 S
C458 C459 1.443 . S
C459 H423 0.932 . S
C459 C454 1.388 . S
C459 C458 1.443 . S
H460 C468 0.950 . S
H461 C473 0.950 . S
H462 C470 0.950 . S
H463 C472 0.950 . S
H464 C474 0.950 . S
H465 C476 0.950 . S
H466 C478 0.950 . S
H467 C479 0.950 . S
C468 H460 0.950 . S
C468 C469 1.386 . S
C468 C470 1.391 . S
C469 C468 1.386 . S
C469 C473 1.393 . S
C470 H462 0.950 . S
C470 C468 1.391 . S
C470 C471 1.400 . S
C471 C470 1.400 . S
C471 C472 1.398 . S
C471 C477 1.491 . S
C472 H463 0.950 . S
C472 C471 1.398 . S
C472 C473 1.391 . S
C473 H461 0.950 . S
C473 C469 1.393 . S
C473 C472 1.391 . S
C474 H464 0.950 . S
C474 C475 1.386 . S
C474 C476 1.391 . S
C475 C474 1.386 . S
C475 C479 1.393 . S
C476 H465 0.950 . S
C476 C474 1.391 . S
C476 C477 1.400 . S
C477 C471 1.491 . S
C477 C476 1.400 . S
C477 C478 1.398 . S
C478 H466 0.950 . S
C478 C477 1.398 . S
C478 C479 1.391 . S
C479 H467 0.950 . S
C479 C475 1.393 . S
C479 C478 1.391 . S
H480 C488 0.950 . S
H481 C493 0.950 . S
H482 C490 0.950 . S
H483 C492 0.950 . S
H484 C494 0.950 . S
H485 C496 0.950 . S
H486 C498 0.950 . S
H487 C499 0.950 . S
C488 H480 0.950 . S
C488 C489 1.386 . S
C488 C490 1.391 . S
C489 C488 1.386 . S
C489 C493 1.393 . S
C490 H482 0.950 . S
C490 C488 1.391 . S
C490 C491 1.400 . S
C491 C490 1.400 . S
C491 C492 1.398 . S
C491 C497 1.491 . S
C492 H483 0.950 . S
C492 C491 1.398 . S
C492 C493 1.391 . S
C493 H481 0.950 . S
C493 C489 1.393 . S
C493 C492 1.391 . S
C494 H484 0.950 . S
C494 C495 1.386 . S
C494 C496 1.391 . S
C495 C494 1.386 . S
C495 C499 1.393 . S
C496 H485 0.950 . S
C496 C494 1.391 . S
C496 C497 1.400 . S
C497 C491 1.491 . S
C497 C496 1.400 . S
C497 C498 1.398 . S
C498 H486 0.950 . S
C498 C497 1.398 . S
C498 C499 1.391 . S
C499 H487 0.950 . S
C499 C495 1.393 . S
C499 C498 1.391 . S
H500 C508 0.950 . S
H501 C513 0.950 . S
H502 C510 0.950 . S
H503 C512 0.950 . S
H504 C514 0.950 . S
H505 C516 0.950 . S
H506 C518 0.950 . S
H507 C519 0.950 . S
C508 H500 0.950 . S
C508 C509 1.386 . S
C508 C510 1.391 . S
C509 C508 1.386 . S
C509 C513 1.393 . S
C510 H502 0.950 . S
C510 C508 1.391 . S
C510 C511 1.400 . S
C511 C510 1.400 . S
C511 C512 1.398 . S
C511 C517 1.491 . S
C512 H503 0.950 . S
C512 C511 1.398 . S
C512 C513 1.391 . S
C513 H501 0.950 . S
C513 C509 1.393 . S
C513 C512 1.391 . S
C514 H504 0.950 . S
C514 C515 1.386 . S
C514 C516 1.391 . S
C515 C514 1.386 . S
C515 C519 1.393 . S
C516 H505 0.950 . S
C516 C514 1.391 . S
C516 C517 1.400 . S
C517 C511 1.491 . S
C517 C516 1.400 . S
C517 C518 1.398 . S
C518 H506 0.950 . S
C518 C517 1.398 . S
C518 C519 1.391 . S
C519 H507 0.950 . S
C519 C515 1.393 . S
C519 C518 1.391 . S
H520 C528 0.950 . S
H521 C533 0.950 . S
H522 C530 0.950 . S
H523 C532 0.950 . S
H524 C534 0.950 . S
H525 C536 0.950 . S
H526 C538 0.950 . S
H527 C539 0.950 . S
C528 H520 0.950 . S
C528 C529 1.386 . S
C528 C530 1.391 . S
C529 C528 1.386 . S
C529 C533 1.393 . S
C530 H522 0.950 . S
C530 C528 1.391 . S
C530 C531 1.400 . S
C531 C530 1.400 . S
C531 C532 1.398 . S
C531 C537 1.491 . S
C532 H523 0.950 . S
C532 C531 1.398 . S
C532 C533 1.391 . S
C533 H521 0.950 . S
C533 C529 1.393 . S
C533 C532 1.391 . S
C534 H524 0.950 . S
C534 C535 1.386 . S
C534 C536 1.391 . S
C535 C534 1.386 . S
C535 C539 1.393 . S
C536 H525 0.950 . S
C536 C534 1.391 . S
C536 C537 1.400 . S
C537 C531 1.491 . S
C537 C536 1.400 . S
C537 C538 1.398 . S
C538 H526 0.950 . S
C538 C537 1.398 . S
C538 C539 1.391 . S
C539 H527 0.950 . S
C539 C535 1.393 . S
C539 C538 1.391 . S
H540 C548 0.950 . S
H541 C553 0.950 . S
H542 C550 0.950 . S
H543 C552 0.950 . S
H544 C554 0.950 . S
H545 C556 0.950 . S
H546 C558 0.950 . S
H547 C559 0.950 . S
C548 H540 0.950 . S
C548 C549 1.386 . S
C548 C550 1.391 . S
C549 C548 1.386 . S
C549 C553 1.393 . S
C550 H542 0.950 . S
C550 C548 1.391 . S
C550 C551 1.400 . S
C551 C550 1.400 . S
C551 C552 1.398 . S
C551 C557 1.491 . S
C552 H543 0.950 . S
C552 C551 1.398 . S
C552 C553 1.391 . S
C553 H541 0.950 . S
C553 C549 1.393 . S
C553 C552 1.391 . S
C554 H544 0.950 . S
C554 C555 1.386 . S
C554 C556 1.391 . S
C555 C554 1.386 . S
C555 C559 1.393 . S
C556 H545 0.950 . S
C556 C554 1.391 . S
C556 C557 1.400 . S
C557 C551 1.491 . S
C557 C556 1.400 . S
C557 C558 1.398 . S
C558 H546 0.950 . S
C558 C557 1.398 . S
C558 C559 1.391 . S
C559 H547 0.950 . S
C559 C555 1.393 . S
C559 C558 1.391 . S
H560 C568 0.950 . S
H561 C573 0.950 . S
H562 C570 0.950 . S
H563 C572 0.950 . S
H564 C574 0.950 . S
H565 C576 0.950 . S
H566 C578 0.950 . S
H567 C579 0.950 . S
C568 H560 0.950 . S
C568 C569 1.386 . S
C568 C570 1.391 . S
C569 C568 1.386 . S
C569 C573 1.393 . S
C570 H562 0.950 . S
C570 C568 1.391 . S
C570 C571 1.400 . S
C571 C570 1.400 . S
C571 C572 1.398 . S
C571 C577 1.491 . S
C572 H563 0.950 . S
C572 C571 1.398 . S
C572 C573 1.391 . S
C573 H561 0.950 . S
C573 C569 1.393 . S
C573 C572 1.391 . S
C574 H564 0.950 . S
C574 C575 1.386 . S
C574 C576 1.391 . S
C575 C574 1.386 . S
C575 C579 1.393 . S
C576 H565 0.950 . S
C576 C574 1.391 . S
C576 C577 1.400 . S
C577 C571 1.491 . S
C577 C576 1.400 . S
C577 C578 1.398 . S
C578 H566 0.950 . S
C578 C577 1.398 . S
C578 C579 1.391 . S
C579 H567 0.950 . S
C579 C575 1.393 . S
C579 C578 1.391 . S
H580 C588 0.950 . S
H581 C593 0.950 . S
H582 C590 0.950 . S
H583 C592 0.950 . S
H584 C594 0.950 . S
H585 C596 0.950 . S
H586 C598 0.950 . S
H587 C599 0.950 . S
C588 H580 0.950 . S
C588 C589 1.386 . S
C588 C590 1.391 . S
C589 C588 1.386 . S
C589 C593 1.393 . S
C590 H582 0.950 . S
C590 C588 1.391 . S
C590 C591 1.400 . S
C591 C590 1.400 . S
C591 C592 1.398 . S
C591 C597 1.491 . S
C592 H583 0.950 . S
C592 C591 1.398 . S
C592 C593 1.391 . S
C593 H581 0.950 . S
C593 C589 1.393 . S
C593 C592 1.391 . S
C594 H584 0.950 . S
C594 C595 1.386 . S
C594 C596 1.391 . S
C595 C594 1.386 . S
C595 C599 1.393 . S
C596 H585 0.950 . S
C596 C594 1.391 . S
C596 C597 1.400 . S
C597 C591 1.491 . S
C597 C596 1.400 . S
C597 C598 1.398 . S
C598 H586 0.950 . S
C598 C597 1.398 . S
C598 C599 1.391 . S
C599 H587 0.950 . S
C599 C595 1.393 . S
C599 C598 1.391 . S
H600 C608 0.950 . S
H601 C613 0.950 . S
H602 C610 0.950 . S
H603 C612 0.950 . S
H604 C614 0.950 . S
H605 C616 0.950 . S
H606 C618 0.950 . S
H607 C619 0.950 . S
C608 H600 0.950 . S
C608 C609 1.386 . S
C608 C610 1.391 . S
C609 C608 1.386 . S
C609 C613 1.393 . S
C610 H602 0.950 . S
C610 C608 1.391 . S
C610 C611 1.400 . S
C611 C610 1.400 . S
C611 C612 1.398 . S
C611 C617 1.491 . S
C612 H603 0.950 . S
C612 C611 1.398 . S
C612 C613 1.391 . S
C613 H601 0.950 . S
C613 C609 1.393 . S
C613 C612 1.391 . S
C614 H604 0.950 . S
C614 C615 1.386 . S
C614 C616 1.391 . S
C615 C614 1.386 . S
C615 C619 1.393 . S
C616 H605 0.950 . S
C616 C614 1.391 . S
C616 C617 1.400 . S
C617 C611 1.491 . S
C617 C616 1.400 . S
C617 C618 1.398 . S
C618 H606 0.950 . S
C618 C617 1.398 . S
C618 C619 1.391 . S
C619 H607 0.950 . S
C619 C615 1.393 . S
C619 C618 1.391 . S
H620 C628 0.950 . S
H621 C633 0.950 . S
H622 C630 0.950 . S
H623 C632 0.950 . S
H624 C634 0.950 . S
H625 C636 0.950 . S
H626 C638 0.950 . S
H627 C639 0.950 . S
C628 H620 0.950 . S
C628 C629 1.386 . S
C628 C630 1.391 . S
C629 C628 1.386 . S
C629 C633 1.393 . S
C630 H622 0.950 . S
C630 C628 1.391 . S
C630 C631 1.400 . S
C631 C630 1.400 . S
C631 C632 1.398 . S
C631 C637 1.491 . S
C632 H623 0.950 . S
C632 C631 1.398 . S
C632 C633 1.391 . S
C633 H621 0.950 . S
C633 C629 1.393 . S
C633 C632 1.391 . S
C634 H624 0.950 . S
C634 C635 1.386 . S
C634 C636 1.391 1_545 S
C635 C634 1.386 . S
C635 C639 1.393 1_545 S
C636 H625 0.950 . S
C636 C634 1.391 1_565 S
C636 C637 1.400 . S
C637 C631 1.491 . S
C637 C636 1.400 . S
C637 C638 1.398 . S
C638 H626 0.950 . S
C638 C637 1.398 . S
C638 C639 1.391 . S
C639 H627 0.950 . S
C639 C635 1.393 1_565 S
C639 C638 1.391 . S
H640 C648 0.950 . S
H641 C653 0.950 . S
H642 C650 0.950 . S
H643 C652 0.950 . S
H644 C654 0.950 . S
H645 C656 0.950 . S
H646 C658 0.950 . S
H647 C659 0.950 . S
C648 H640 0.950 . S
C648 C649 1.386 . S
C648 C650 1.391 . S
C649 C648 1.386 . S
C649 C653 1.393 . S
C650 H642 0.950 . S
C650 C648 1.391 . S
C650 C651 1.400 . S
C651 C650 1.400 . S
C651 C652 1.398 . S
C651 C657 1.491 . S
C652 H643 0.950 . S
C652 C651 1.398 . S
C652 C653 1.391 . S
C653 H641 0.950 . S
C653 C649 1.393 . S
C653 C652 1.391 . S
C654 H644 0.950 . S
C654 C655 1.386 . S
C654 C656 1.391 . S
C655 C654 1.386 . S
C655 C659 1.393 . S
C656 H645 0.950 . S
C656 C654 1.391 . S
C656 C657 1.400 . S
C657 C651 1.491 . S
C657 C656 1.400 . S
C657 C658 1.398 . S
C658 H646 0.950 . S
C658 C657 1.398 . S
C658 C659 1.391 . S
C659 H647 0.950 . S
C659 C655 1.393 . S
C659 C658 1.391 . S
H660 C668 0.950 . S
H661 C673 0.950 . S
H662 C670 0.950 . S
H663 C672 0.950 . S
H664 C674 0.950 . S
H665 C676 0.950 . S
H666 C678 0.950 . S
H667 C679 0.950 . S
C668 H660 0.950 . S
C668 C669 1.386 . S
C668 C670 1.391 . S
C669 C668 1.386 . S
C669 C673 1.393 . S
C670 H662 0.950 . S
C670 C668 1.391 . S
C670 C671 1.400 . S
C671 C670 1.400 . S
C671 C672 1.398 . S
C671 C677 1.491 . S
C672 H663 0.950 . S
C672 C671 1.398 . S
C672 C673 1.391 . S
C673 H661 0.950 . S
C673 C669 1.393 . S
C673 C672 1.391 . S
C674 H664 0.950 . S
C674 C675 1.386 . S
C674 C676 1.391 . S
C675 C674 1.386 . S
C675 C679 1.393 . S
C676 H665 0.950 . S
C676 C674 1.391 . S
C676 C677 1.400 . S
C677 C671 1.491 . S
C677 C676 1.400 . S
C677 C678 1.398 . S
C678 H666 0.950 . S
C678 C677 1.398 . S
C678 C679 1.391 . S
C679 H667 0.950 . S
C679 C675 1.393 . S
C679 C678 1.391 . S
H680 C688 0.950 . S
H681 C693 0.950 . S
H682 C690 0.950 . S
H683 C692 0.950 . S
H684 C694 0.950 . S
H685 C696 0.950 . S
H686 C698 0.950 . S
H687 C699 0.950 . S
C688 H680 0.950 . S
C688 C689 1.386 . S
C688 C690 1.391 . S
C689 C688 1.386 . S
C689 C693 1.393 . S
C690 H682 0.950 . S
C690 C688 1.391 . S
C690 C691 1.400 . S
C691 C690 1.400 . S
C691 C692 1.398 . S
C691 C697 1.491 . S
C692 H683 0.950 . S
C692 C691 1.398 . S
C692 C693 1.391 . S
C693 H681 0.950 . S
C693 C689 1.393 . S
C693 C692 1.391 . S
C694 H684 0.950 . S
C694 C695 1.386 . S
C694 C696 1.391 . S
C695 C694 1.386 . S
C695 C699 1.393 . S
C696 H685 0.950 . S
C696 C694 1.391 . S
C696 C697 1.400 . S
C697 C691 1.491 . S
C697 C696 1.400 . S
C697 C698 1.398 . S
C698 H686 0.950 . S
C698 C697 1.398 . S
C698 C699 1.391 . S
C699 H687 0.950 . S
C699 C695 1.393 . S
C699 C698 1.391 . S
H700 C708 0.950 . S
H701 C713 0.950 . S
H702 C710 0.950 . S
H703 C712 0.950 . S
H704 C714 0.950 . S
H705 C716 0.950 . S
H706 C718 0.950 . S
H707 C719 0.950 . S
C708 H700 0.950 . S
C708 C709 1.386 . S
C708 C710 1.391 . S
C709 C708 1.386 . S
C709 C713 1.393 . S
C710 H702 0.950 . S
C710 C708 1.391 . S
C710 C711 1.400 . S
C711 C710 1.400 . S
C711 C712 1.398 . S
C711 C717 1.491 . S
C712 H703 0.950 . S
C712 C711 1.398 . S
C712 C713 1.391 . S
C713 H701 0.950 . S
C713 C709 1.393 . S
C713 C712 1.391 . S
C714 H704 0.950 . S
C714 C715 1.386 . S
C714 C716 1.391 . S
C715 C714 1.386 . S
C715 C719 1.393 . S
C716 H705 0.950 . S
C716 C714 1.391 . S
C716 C717 1.400 . S
C717 C711 1.491 . S
C717 C716 1.400 . S
C717 C718 1.398 . S
C718 H706 0.950 . S
C718 C717 1.398 . S
C718 C719 1.391 . S
C719 H707 0.950 . S
C719 C715 1.393 . S
C719 C718 1.391 . S
H720 C728 0.950 . S
H721 C733 0.950 . S
H722 C730 0.950 . S
H723 C732 0.950 . S
H724 C734 0.950 . S
H725 C736 0.950 . S
H726 C738 0.950 . S
H727 C739 0.950 . S
C728 H720 0.950 . S
C728 C729 1.386 . S
C728 C730 1.391 . S
C729 C728 1.386 . S
C729 C733 1.393 . S
C730 H722 0.950 . S
C730 C728 1.391 . S
C730 C731 1.400 . S
C731 C730 1.400 . S
C731 C732 1.398 . S
C731 C737 1.491 . S
C732 H723 0.950 . S
C732 C731 1.398 . S
C732 C733 1.391 . S
C733 H721 0.950 . S
C733 C729 1.393 . S
C733 C732 1.391 . S
C734 H724 0.950 . S
C734 C735 1.386 . S
C734 C736 1.391 . S
C735 C734 1.386 . S
C735 C739 1.393 . S
C736 H725 0.950 . S
C736 C734 1.391 . S
C736 C737 1.400 . S
C737 C731 1.491 . S
C737 C736 1.400 . S
C737 C738 1.398 . S
C738 H726 0.950 . S
C738 C737 1.398 . S
C738 C739 1.391 . S
C739 H727 0.950 . S
C739 C735 1.393 . S
C739 C738 1.391 . S
H740 C748 0.950 . S
H741 C753 0.950 . S
H742 C750 0.950 . S
H743 C752 0.950 . S
H744 C754 0.950 . S
H745 C756 0.950 . S
H746 C758 0.950 . S
H747 C759 0.950 . S
C748 H740 0.950 . S
C748 C749 1.386 . S
C748 C750 1.391 . S
C749 C748 1.386 . S
C749 C753 1.393 . S
C750 H742 0.950 . S
C750 C748 1.391 . S
C750 C751 1.400 . S
C751 C750 1.400 . S
C751 C752 1.398 . S
C751 C757 1.491 . S
C752 H743 0.950 . S
C752 C751 1.398 . S
C752 C753 1.391 . S
C753 H741 0.950 . S
C753 C749 1.393 . S
C753 C752 1.391 . S
C754 H744 0.950 . S
C754 C755 1.386 . S
C754 C756 1.391 . S
C755 C754 1.386 . S
C755 C759 1.393 . S
C756 H745 0.950 . S
C756 C754 1.391 . S
C756 C757 1.400 . S
C757 C751 1.491 . S
C757 C756 1.400 . S
C757 C758 1.398 . S
C758 H746 0.950 . S
C758 C757 1.398 . S
C758 C759 1.391 . S
C759 H747 0.950 . S
C759 C755 1.393 . S
C759 C758 1.391 . S
H760 C768 0.950 . S
H761 C773 0.950 . S
H762 C770 0.950 . S
H763 C772 0.950 . S
H764 C774 0.950 . S
H765 C776 0.950 . S
H766 C778 0.950 . S
H767 C779 0.950 . S
C768 H760 0.950 . S
C768 C769 1.386 . S
C768 C770 1.391 . S
C769 C768 1.386 . S
C769 C773 1.393 . S
C770 H762 0.950 . S
C770 C768 1.391 . S
C770 C771 1.400 . S
C771 C770 1.400 . S
C771 C772 1.398 . S
C771 C777 1.491 . S
C772 H763 0.950 . S
C772 C771 1.398 . S
C772 C773 1.391 . S
C773 H761 0.950 . S
C773 C769 1.393 . S
C773 C772 1.391 . S
C774 H764 0.950 . S
C774 C775 1.386 . S
C774 C776 1.391 . S
C775 C774 1.386 . S
C775 C779 1.393 . S
C776 H765 0.950 . S
C776 C774 1.391 . S
C776 C777 1.400 . S
C777 C771 1.491 . S
C777 C776 1.400 . S
C777 C778 1.398 . S
C778 H766 0.950 . S
C778 C777 1.398 . S
C778 C779 1.391 . S
C779 H767 0.950 . S
C779 C775 1.393 . S
C779 C778 1.391 . S
H780 C788 0.950 . S
H781 C793 0.950 . S
H782 C790 0.950 . S
H783 C792 0.950 . S
H784 C794 0.950 . S
H785 C796 0.950 . S
H786 C798 0.950 . S
H787 C799 0.950 . S
C788 H780 0.950 . S
C788 C789 1.386 . S
C788 C790 1.391 . S
C789 C788 1.386 . S
C789 C793 1.393 . S
C790 H782 0.950 . S
C790 C788 1.391 . S
C790 C791 1.400 . S
C791 C790 1.400 . S
C791 C792 1.398 . S
C791 C797 1.491 . S
C792 H783 0.950 . S
C792 C791 1.398 . S
C792 C793 1.391 . S
C793 H781 0.950 . S
C793 C789 1.393 . S
C793 C792 1.391 . S
C794 H784 0.950 . S
C794 C795 1.386 . S
C794 C796 1.391 . S
C795 C794 1.386 . S
C795 C799 1.393 . S
C796 H785 0.950 . S
C796 C794 1.391 . S
C796 C797 1.400 . S
C797 C791 1.491 . S
C797 C796 1.400 . S
C797 C798 1.398 . S
C798 H786 0.950 . S
C798 C797 1.398 . S
C798 C799 1.391 . S
C799 H787 0.950 . S
C799 C795 1.393 . S
C799 C798 1.391 . S
H800 C808 0.950 . S
H801 C813 0.950 . S
H802 C810 0.950 . S
H803 C812 0.950 . S
H804 C814 0.950 . S
H805 C816 0.950 . S
H806 C818 0.950 . S
H807 C819 0.950 . S
C808 H800 0.950 . S
C808 C809 1.386 . S
C808 C810 1.391 . S
C809 C808 1.386 . S
C809 C813 1.393 . S
C810 H802 0.950 . S
C810 C808 1.391 . S
C810 C811 1.400 . S
C811 C810 1.400 . S
C811 C812 1.398 . S
C811 C817 1.491 . S
C812 H803 0.950 . S
C812 C811 1.398 . S
C812 C813 1.391 . S
C813 H801 0.950 . S
C813 C809 1.393 . S
C813 C812 1.391 . S
C814 H804 0.950 . S
C814 C815 1.386 . S
C814 C816 1.391 . S
C815 C814 1.386 . S
C815 C819 1.393 . S
C816 H805 0.950 . S
C816 C814 1.391 . S
C816 C817 1.400 . S
C817 C811 1.491 . S
C817 C816 1.400 . S
C817 C818 1.398 . S
C818 H806 0.950 . S
C818 C817 1.398 . S
C818 C819 1.391 . S
C819 H807 0.950 . S
C819 C815 1.393 . S
C819 C818 1.391 . S
H820 C828 0.950 . S
H821 C833 0.950 . S
H822 C830 0.950 . S
H823 C832 0.950 . S
H824 C834 0.950 . S
H825 C836 0.950 . S
H826 C838 0.950 . S
H827 C839 0.950 . S
C828 H820 0.950 . S
C828 C829 1.386 . S
C828 C830 1.391 . S
C829 C828 1.386 . S
C829 C833 1.393 . S
C830 H822 0.950 . S
C830 C828 1.391 . S
C830 C831 1.400 . S
C831 C830 1.400 . S
C831 C832 1.398 . S
C831 C837 1.491 . S
C832 H823 0.950 . S
C832 C831 1.398 . S
C832 C833 1.391 . S
C833 H821 0.950 . S
C833 C829 1.393 . S
C833 C832 1.391 . S
C834 H824 0.950 . S
C834 C835 1.386 . S
C834 C836 1.391 . S
C835 C834 1.386 . S
C835 C839 1.393 . S
C836 H825 0.950 . S
C836 C834 1.391 . S
C836 C837 1.400 . S
C837 C831 1.491 . S
C837 C836 1.400 . S
C837 C838 1.398 . S
C838 H826 0.950 . S
C838 C837 1.398 . S
C838 C839 1.391 . S
C839 H827 0.950 . S
C839 C835 1.393 . S
C839 C838 1.391 . S
H840 C848 0.950 . S
H841 C853 0.950 . S
H842 C850 0.950 . S
H843 C852 0.950 . S
H844 C854 0.950 . S
H845 C856 0.950 . S
H846 C858 0.950 . S
H847 C859 0.950 . S
C848 H840 0.950 . S
C848 C849 1.386 . S
C848 C850 1.391 . S
C849 C848 1.386 . S
C849 C853 1.393 . S
C850 H842 0.950 . S
C850 C848 1.391 . S
C850 C851 1.400 . S
C851 C850 1.400 . S
C851 C852 1.398 . S
C851 C857 1.491 . S
C852 H843 0.950 . S
C852 C851 1.398 . S
C852 C853 1.391 . S
C853 H841 0.950 . S
C853 C849 1.393 . S
C853 C852 1.391 . S
C854 H844 0.950 . S
C854 C855 1.386 . S
C854 C856 1.391 . S
C855 C854 1.386 . S
C855 C859 1.393 . S
C856 H845 0.950 . S
C856 C854 1.391 . S
C856 C857 1.400 . S
C857 C851 1.491 . S
C857 C856 1.400 . S
C857 C858 1.398 . S
C858 H846 0.950 . S
C858 C857 1.398 . S
C858 C859 1.391 . S
C859 H847 0.950 . S
C859 C855 1.393 . S
C859 C858 1.391 . S
H860 C868 0.950 . S
H861 C873 0.950 . S
H862 C870 0.950 . S
H863 C872 0.950 . S
H864 C874 0.950 . S
H865 C876 0.950 . S
H866 C878 0.950 . S
H867 C879 0.950 . S
C868 H860 0.950 . S
C868 C869 1.386 . S
C868 C870 1.391 . S
C869 C868 1.386 . S
C869 C873 1.393 . S
C870 H862 0.950 . S
C870 C868 1.391 . S
C870 C871 1.400 . S
C871 C870 1.400 . S
C871 C872 1.398 . S
C871 C877 1.491 . S
C872 H863 0.950 . S
C872 C871 1.398 . S
C872 C873 1.391 . S
C873 H861 0.950 . S
C873 C869 1.393 . S
C873 C872 1.391 . S
C874 H864 0.950 . S
C874 C875 1.386 . S
C874 C876 1.391 . S
C875 C874 1.386 . S
C875 C879 1.393 . S
C876 H865 0.950 . S
C876 C874 1.391 . S
C876 C877 1.400 . S
C877 C871 1.491 . S
C877 C876 1.400 . S
C877 C878 1.398 . S
C878 H866 0.950 . S
C878 C877 1.398 . S
C878 C879 1.391 . S
C879 H867 0.950 . S
C879 C875 1.393 . S
C879 C878 1.391 . S
H880 C888 0.950 . S
H881 C893 0.950 . S
H882 C890 0.950 . S
H883 C892 0.950 . S
H884 C894 0.950 . S
H885 C896 0.950 . S
H886 C898 0.950 . S
H887 C899 0.950 . S
C888 H880 0.950 . S
C888 C889 1.386 . S
C888 C890 1.391 . S
C889 C888 1.386 . S
C889 C893 1.393 . S
C890 H882 0.950 . S
C890 C888 1.391 . S
C890 C891 1.400 . S
C891 C890 1.400 . S
C891 C892 1.398 . S
C891 C897 1.491 . S
C892 H883 0.950 . S
C892 C891 1.398 . S
C892 C893 1.391 . S
C893 H881 0.950 . S
C893 C889 1.393 . S
C893 C892 1.391 . S
C894 H884 0.950 . S
C894 C895 1.386 . S
C894 C896 1.391 . S
C895 C894 1.386 . S
C895 C899 1.393 . S
C896 H885 0.950 . S
C896 C894 1.391 . S
C896 C897 1.400 . S
C897 C891 1.491 . S
C897 C896 1.400 . S
C897 C898 1.398 . S
C898 H886 0.950 . S
C898 C897 1.398 . S
C898 C899 1.391 . S
C899 H887 0.950 . S
C899 C895 1.393 . S
C899 C898 1.391 . S
H900 C908 0.950 . S
H901 C913 0.950 . S
H902 C910 0.950 . S
H903 C912 0.950 . S
H904 C914 0.942 1_545 S
H905 C916 0.950 . S
H906 C918 0.950 . S
H907 C919 0.950 . S
C908 H900 0.950 . S
C908 C909 1.386 . S
C908 C910 1.391 . S
C909 C908 1.386 . S
C909 C913 1.393 . S
C910 H902 0.950 . S
C910 C908 1.391 . S
C910 C911 1.400 . S
C911 C910 1.400 . S
C911 C912 1.398 . S
C911 C917 1.491 . S
C912 H903 0.950 . S
C912 C911 1.398 . S
C912 C913 1.391 . S
C913 H901 0.950 . S
C913 C909 1.393 . S
C913 C912 1.391 . S
C914 H904 0.942 1_565 S
C914 C915 1.386 . S
C914 C916 1.391 . S
C915 C914 1.386 . S
C915 C919 1.393 . S
C916 H905 0.950 . S
C916 C914 1.391 . S
C916 C917 1.400 . S
C917 C911 1.491 . S
C917 C916 1.400 . S
C917 C918 1.398 . S
C918 H906 0.950 . S
C918 C917 1.398 . S
C918 C919 1.391 . S
C919 H907 0.950 . S
C919 C915 1.393 . S
C919 C918 1.391 . S
H920 C928 0.950 . S
H921 C933 0.950 . S
H922 C930 0.950 . S
H923 C932 0.950 . S
H924 C934 0.950 . S
H925 C936 0.950 . S
H926 C938 0.950 . S
H927 C939 0.950 . S
C928 H920 0.950 . S
C928 C929 1.386 . S
C928 C930 1.391 . S
C929 C928 1.386 . S
C929 C933 1.393 . S
C930 H922 0.950 . S
C930 C928 1.391 . S
C930 C931 1.400 . S
C931 C930 1.400 . S
C931 C932 1.398 . S
C931 C937 1.491 . S
C932 H923 0.950 . S
C932 C931 1.398 . S
C932 C933 1.391 . S
C933 H921 0.950 . S
C933 C929 1.393 . S
C933 C932 1.391 . S
C934 H924 0.950 . S
C934 C935 1.386 . S
C934 C936 1.391 . S
C935 C934 1.386 . S
C935 C939 1.393 . S
C936 H925 0.950 . S
C936 C934 1.391 . S
C936 C937 1.400 . S
C937 C931 1.491 . S
C937 C936 1.400 . S
C937 C938 1.398 . S
C938 H926 0.950 . S
C938 C937 1.398 . S
C938 C939 1.391 . S
C939 H927 0.950 . S
C939 C935 1.393 . S
C939 C938 1.391 . S
C475 C123 1.415 . S
C469 C5 1.318 . S
C495 C203 1.619 . S
C489 C16 1.415 . S
C515 C135 1.665 . S
C509 C30 1.765 . S
C535 C179 1.827 . S
C529 C40 1.984 . S
C555 C247 1.234 . S
C549 C8 1.278 . S
C575 C327 1.438 . S
C569 C18 1.399 . S
C589 C29 1.851 . S
C595 C389 1.834 . S
C615 C445 1.575 . S
C609 C38 1.406 . S
C635 C259 1.324 . S
C629 C19 1.435 . S
C649 C27 1.541 . S
C655 C303 1.546 . S
C675 C365 1.765 . S
C669 C41 1.924 . S
C695 C433 1.412 . S
C689 C7 1.459 . S
C709 C52 1.911 . S
C715 C197 1.758 . S
C735 C117 1.533 . S
C729 C62 1.607 . S
C749 C74 1.524 . S
C755 C185 1.468 . S
C769 C82 1.088 . S
C775 C141 1.283 . S
C795 C383 2.001 . S
C789 C51 2.046 . S
C815 C427 1.581 . S
C809 C60 1.460 . S
C835 C241 1.351 . S
C829 C71 1.236 . S
C849 C84 1.395 . S
C855 C309 1.398 . S
C875 C371 1.775 . S
C869 C63 1.806 . S
C895 C451 1.460 . S
C889 C73 1.437 . S
C915 C265 1.321 1_565 S
C909 C85 1.386 . S
C929 C49 1.439 . S
C935 C321 1.602 . S
