# Generated by pormake.
# Topology zzz, (3,6)-cn, num edge types: 1
# Building blocks:
#     Node 0, Type 0, BuildingBlock: KAKCAD_clean_linker_0, # of connection points: 3
#     Node 1, Type 0, BuildingBlock: KAKCAD_clean_linker_0, # of connection points: 3
#     Node 2, Type 0, BuildingBlock: KAKCAD_clean_linker_0, # of connection points: 3
#     Node 3, Type 0, BuildingBlock: KAKCAD_clean_linker_0, # of connection points: 3
#     Node 4, Type 0, BuildingBlock: KAKCAD_clean_linker_0, # of connection points: 3
#     Node 5, Type 0, BuildingBlock: KAKCAD_clean_linker_0, # of connection points: 3
#     Node 6, Type 0, BuildingBlock: KAKCAD_clean_linker_0, # of connection points: 3
#     Node 7, Type 0, BuildingBlock: KAKCAD_clean_linker_0, # of connection points: 3
#     Node 8, Type 1, BuildingBlock: MIFKUJ_clean_sbu_0, # of connection points: 6
#     Node 9, Type 1, BuildingBlock: MIFKUJ_clean_sbu_0, # of connection points: 6
#     Node 10, Type 1, BuildingBlock: MIFKUJ_clean_sbu_0, # of connection points: 6
#     Node 11, Type 1, BuildingBlock: MIFKUJ_clean_sbu_0, # of connection points: 6
#     Edge 12, Type (0, 1), BuildingBlock: XIVTED_clean_linker_0, # of connection points: 2
#     Edge 13, Type (0, 1), BuildingBlock: XIVTED_clean_linker_0, # of connection points: 2
#     Edge 14, Type (0, 1), BuildingBlock: XIVTED_clean_linker_0, # of connection points: 2
#     Edge 15, Type (0, 1), BuildingBlock: XIVTED_clean_linker_0, # of connection points: 2
#     Edge 16, Type (0, 1), BuildingBlock: XIVTED_clean_linker_0, # of connection points: 2
#     Edge 17, Type (0, 1), BuildingBlock: XIVTED_clean_linker_0, # of connection points: 2
#     Edge 18, Type (0, 1), BuildingBlock: XIVTED_clean_linker_0, # of connection points: 2
#     Edge 19, Type (0, 1), BuildingBlock: XIVTED_clean_linker_0, # of connection points: 2
#     Edge 20, Type (0, 1), BuildingBlock: XIVTED_clean_linker_0, # of connection points: 2
#     Edge 21, Type (0, 1), BuildingBlock: XIVTED_clean_linker_0, # of connection points: 2
#     Edge 22, Type (0, 1), BuildingBlock: XIVTED_clean_linker_0, # of connection points: 2
#     Edge 23, Type (0, 1), BuildingBlock: XIVTED_clean_linker_0, # of connection points: 2
#     Edge 24, Type (0, 1), BuildingBlock: XIVTED_clean_linker_0, # of connection points: 2
#     Edge 25, Type (0, 1), BuildingBlock: XIVTED_clean_linker_0, # of connection points: 2
#     Edge 26, Type (0, 1), BuildingBlock: XIVTED_clean_linker_0, # of connection points: 2
#     Edge 27, Type (0, 1), BuildingBlock: XIVTED_clean_linker_0, # of connection points: 2
#     Edge 28, Type (0, 1), BuildingBlock: XIVTED_clean_linker_0, # of connection points: 2
#     Edge 29, Type (0, 1), BuildingBlock: XIVTED_clean_linker_0, # of connection points: 2
#     Edge 30, Type (0, 1), BuildingBlock: XIVTED_clean_linker_0, # of connection points: 2
#     Edge 31, Type (0, 1), BuildingBlock: XIVTED_clean_linker_0, # of connection points: 2
#     Edge 32, Type (0, 1), BuildingBlock: XIVTED_clean_linker_0, # of connection points: 2
#     Edge 33, Type (0, 1), BuildingBlock: XIVTED_clean_linker_0, # of connection points: 2
#     Edge 34, Type (0, 1), BuildingBlock: XIVTED_clean_linker_0, # of connection points: 2
#     Edge 35, Type (0, 1), BuildingBlock: XIVTED_clean_linker_0, # of connection points: 2
# Relax obj value: 0.308
# Max RMSD: 0.213
# Mean RMSD: 0.191
data_MOF--net-zzz--node1-MIFKUJ_clean_sbu_0--node2-KAKCAD_clean_linker_0--edge1-XIVTED_clean_linker_0
_symmetry_space_group_name_H-M    P1
_symmetry_Int_Tables_number       1
_symmetry_cell_setting            triclinic
loop_
_symmetry_equiv_pos_as_xyz
'x, y, z'
_cell_length_a     57.287642
_cell_length_b     58.784804
_cell_length_c     21.409867
_cell_angle_alpha  89.432677
_cell_angle_beta   89.901941
_cell_angle_gamma 91.146349
loop_
_atom_site_label
_atom_site_type_symbol
_atom_site_fract_x
_atom_site_fract_y
_atom_site_fract_z
_atom_type_partial_charge
C0 C 0.78479 0.59863 0.84108 0.0
C1 C 0.80301 0.58398 0.85577 0.0
C2 C 0.77021 0.60642 0.88869 0.0
C3 C 0.77365 0.59941 0.9512 0.0
C4 C 0.7932 0.58615 0.9653 0.0
C5 C 0.8077 0.57864 0.91819 0.0
C6 C 0.75519 0.60187 -0.00033 0.0
C7 C 0.73168 0.59821 0.98365 0.0
C8 C 0.71499 0.5921 0.02929 0.0
C9 C 0.7221 0.5894 0.09185 0.0
C10 C 0.74531 0.59444 0.10884 0.0
C11 C 0.76129 0.60191 0.06314 0.0
C12 C 0.75511 0.58645 0.16868 0.0
C13 C 0.76296 0.60197 0.21372 0.0
C14 C 0.76192 0.56374 0.17308 0.0
C15 C 0.77753 0.55691 0.21922 0.0
C16 C 0.78652 0.57258 0.26288 0.0
C17 C 0.69137 0.58499 0.00806 0.0
C18 C 0.6789 0.59912 0.96725 0.0
C19 C 0.68299 0.56274 0.0198 0.0
C20 C 0.66336 0.55431 0.98805 0.0
C21 C 0.65162 0.56808 0.94472 0.0
C22 C 0.6591 0.5908 0.93623 0.0
C23 C 0.77827 0.59503 0.26097 0.0
H24 H 0.78108 0.60299 0.79288 0.0
H25 H 0.75555 0.61687 0.87616 0.0
H26 H 0.79642 0.57985 0.0121 0.0
H27 H 0.82182 0.56739 0.9302 0.0
H28 H 0.72667 0.59762 0.9349 0.0
H29 H 0.77933 0.60492 0.07649 0.0
H30 H 0.70993 0.58264 0.12649 0.0
H31 H 0.75823 0.61969 0.21037 0.0
H32 H 0.75665 0.55166 0.1376 0.0
H33 H 0.78369 0.53964 0.21765 0.0
H34 H 0.68514 0.61629 0.95715 0.0
H35 H 0.69246 0.55143 0.05041 0.0
H36 H 0.78437 0.60751 0.29433 0.0
H37 H 0.65048 0.60175 0.90285 0.0
H38 H 0.65782 0.53678 0.99576 0.0
C39 C 0.99271 0.78598 0.87052 0.0
C40 C 0.00976 0.80321 0.8795 0.0
C41 C 0.98936 0.76864 0.91527 0.0
C42 C 0.00293 0.76829 0.96991 0.0
C43 C 0.02054 0.78498 0.97754 0.0
C44 C 0.02385 0.80224 0.93315 0.0
C45 C -0.00188 0.75147 0.02076 0.0
C46 C 0.99382 0.72842 0.00803 0.0
C47 C 0.98999 0.71266 0.05701 0.0
C48 C 0.98995 0.72001 0.1192 0.0
C49 C 0.9939 0.74309 0.1321 0.0
C50 C -0.00198 0.75861 0.08302 0.0
C51 C 0.99284 0.75204 0.19592 0.0
C52 C 0.97102 0.75542 0.22373 0.0
C53 C 0.01286 0.76229 0.22177 0.0
C54 C 0.01087 0.77729 0.27151 0.0
C55 C 0.98877 0.78253 0.29527 0.0
C56 C 0.9876 0.68841 0.04184 0.0
C57 C 0.96774 0.68041 0.0101 0.0
C58 C 0.0069 0.67432 0.0487 0.0
C59 C 0.00711 0.6532 0.0194 0.0
C60 C 0.98787 0.64586 0.98383 0.0
C61 C 0.96777 0.6591 0.98181 0.0
C62 C 0.96897 0.7707 0.27296 0.0
H63 H 0.98173 0.78605 0.82941 0.0
H64 H 0.97563 0.75601 0.90814 0.0
H65 H 0.03154 0.78497 0.01865 0.0
H66 H 0.03693 0.81532 0.94233 0.0
H67 H 0.99424 0.72255 0.96019 0.0
H68 H 0.00063 0.77649 0.09355 0.0
H69 H 0.98696 0.70791 0.15704 0.0
H70 H 0.95536 0.74785 0.20381 0.0
H71 H 0.0298 0.7601 0.20025 0.0
H72 H 0.02639 0.7863 0.28752 0.0
H73 H 0.9528 0.69122 0.00395 0.0
H74 H 0.02246 0.68038 0.07256 0.0
H75 H 0.95177 0.77437 0.29088 0.0
H76 H 0.95284 0.65384 0.95408 0.0
H77 H 0.0228 0.64323 0.02133 0.0
C78 C 0.69971 0.90684 0.86149 0.0
C79 C 0.68672 0.9267 0.86732 0.0
C80 C 0.71703 0.90187 0.90558 0.0
C81 C 0.72105 0.9166 0.95597 0.0
C82 C 0.7085 0.93679 0.95989 0.0
C83 C 0.69151 0.94177 0.91599 0.0
C84 C 0.73802 0.91144 0.00562 0.0
C85 C 0.76162 0.90884 0.99137 0.0
C86 C 0.77856 0.90961 0.03888 0.0
C87 C 0.77152 0.91236 0.10149 0.0
C88 C 0.74768 0.9139 0.11601 0.0
C89 C 0.73115 0.91317 0.06805 0.0
C90 C 0.73926 0.91961 0.17889 0.0
C91 C 0.73189 0.90231 0.22037 0.0
C92 C 0.73284 0.94208 0.19018 0.0
C93 C 0.71778 0.94699 0.23933 0.0
C94 C 0.7088 0.92947 0.27837 0.0
C95 C 0.80338 0.91139 0.02007 0.0
C96 C 0.8124 0.89587 0.97734 0.0
C97 C 0.81651 0.93106 0.03442 0.0
C98 C 0.83721 0.93619 0.00208 0.0
C99 C 0.84518 0.92166 0.95507 0.0
C100 C 0.83319 0.90088 0.94544 0.0
C101 C 0.71691 0.90722 0.27006 0.0
H102 H 0.69606 0.89501 0.82413 0.0
H103 H 0.7267 0.88631 0.90158 0.0
H104 H 0.71165 0.94863 -0.00242 0.0
H105 H 0.68161 0.95717 0.92097 0.0
H106 H 0.76698 0.90836 0.94279 0.0
H107 H 0.71285 0.91547 0.07912 0.0
H108 H 0.78446 0.91408 0.1381 0.0
H109 H 0.73635 0.8848 0.21173 0.0
H110 H 0.73789 0.95558 0.15773 0.0
H111 H 0.71177 0.96425 0.24332 0.0
H112 H 0.8026 0.88054 0.96575 0.0
H113 H 0.80977 0.94342 0.06665 0.0
H114 H 0.71069 0.89338 0.29984 0.0
H115 H 0.83917 0.88903 0.91074 0.0
H116 H 0.84591 0.95238 0.01056 0.0
C117 C 0.44661 0.7129 0.28223 0.0
C118 C 0.47057 0.70935 0.29183 0.0
C119 C 0.43922 0.72783 0.23555 0.0
C120 C 0.45562 0.73969 0.19838 0.0
C121 C 0.47947 0.738 0.21209 0.0
C122 C 0.48692 0.72285 0.25837 0.0
C123 C 0.44865 0.74819 0.13639 0.0
C124 C 0.45213 0.77102 0.11842 0.0
C125 C 0.44948 0.7775 0.05546 0.0
C126 C 0.44335 0.76097 0.01089 0.0
C127 C 0.44057 0.73809 0.02843 0.0
C128 C 0.44247 0.73199 0.0915 0.0
C129 C 0.44093 0.72013 0.98062 0.0
C130 C 0.42469 0.71924 0.93148 0.0
C131 C 0.45886 0.70424 0.98289 0.0
C132 C 0.46077 0.68791 0.9368 0.0
C133 C 0.44468 0.68692 0.88765 0.0
C134 C 0.45633 0.80065 0.03405 0.0
C135 C 0.44648 0.82009 0.06009 0.0
C136 C 0.47255 0.80319 0.98523 0.0
C137 C 0.47808 0.82463 0.96086 0.0
C138 C 0.46752 0.8441 0.98462 0.0
C139 C 0.45188 0.84171 0.03513 0.0
C140 C 0.42638 0.70247 0.88549 0.0
H141 H 0.43355 0.70268 0.30682 0.0
H142 H 0.42076 0.72867 0.22497 0.0
H143 H 0.49241 0.74675 0.18319 0.0
H144 H 0.50547 0.72067 0.26524 0.0
H145 H 0.45812 0.78335 0.15244 0.0
H146 H 0.44112 0.71415 0.10491 0.0
H147 H 0.44249 0.76566 0.96183 0.0
H148 H 0.41082 0.73147 0.92873 0.0
H149 H 0.47184 0.70481 0.01966 0.0
H150 H 0.475 0.67606 0.93928 0.0
H151 H 0.43402 0.81848 0.09808 0.0
H152 H 0.48065 0.78848 0.965 0.0
H153 H 0.41386 0.70198 0.84766 0.0
H154 H 0.44355 0.85645 0.05445 0.0
H155 H 0.4899 0.82578 0.92135 0.0
C156 C 0.21735 0.41572 0.3322 0.0
C157 C 0.19439 0.40737 0.32599 0.0
C158 C 0.23456 0.4091 0.29055 0.0
C159 C 0.22918 0.39382 0.24213 0.0
C160 C 0.20702 0.38307 0.24175 0.0
C161 C 0.1897 0.38991 0.28314 0.0
C162 C 0.24457 0.39336 0.18612 0.0
C163 C 0.26872 0.39667 0.19238 0.0
C164 C 0.28228 0.40462 0.14195 0.0
C165 C 0.27194 0.4076 0.08296 0.0
C166 C 0.24804 0.40235 0.07451 0.0
C167 C 0.23461 0.39525 0.12644 0.0
C168 C 0.23563 0.40768 0.01528 0.0
C169 C 0.23849 0.42914 0.98653 0.0
C170 C 0.21792 0.39287 0.99351 0.0
C171 C 0.20211 0.40008 0.94808 0.0
C172 C 0.20368 0.42228 0.92322 0.0
C173 C 0.30557 0.41419 0.15654 0.0
C174 C 0.30739 0.43711 0.17373 0.0
C175 C 0.32429 0.39976 0.16833 0.0
C176 C 0.34415 0.40794 0.19964 0.0
C177 C 0.34541 0.43058 0.22039 0.0
C178 C 0.3271 0.44525 0.20532 0.0
C179 C 0.2227 0.43635 0.94093 0.0
H180 H 0.22152 0.42918 0.36477 0.0
H181 H 0.2513 0.41791 0.2926 0.0
H182 H 0.2025 0.37076 0.20623 0.0
H183 H 0.17221 0.38279 0.2785 0.0
H184 H 0.27667 0.39537 0.23819 0.0
H185 H 0.21584 0.39362 0.12133 0.0
H186 H 0.28224 0.41466 0.04466 0.0
H187 H 0.25188 0.44099 0.00237 0.0
H188 H 0.21541 0.37615 0.01448 0.0
H189 H 0.18774 0.38876 0.9358 0.0
H190 H 0.29279 0.44831 0.16687 0.0
H191 H 0.32297 0.38191 0.15653 0.0
H192 H 0.22476 0.45338 0.92172 0.0
H193 H 0.32727 0.46264 0.22155 0.0
H194 H 0.35809 0.39631 0.20991 0.0
C195 C 0.98179 0.21464 0.29899 0.0
C196 C -0.00276 0.1964 0.29617 0.0
C197 C 0.98344 0.23249 0.25537 0.0
C198 C 0.00057 0.23235 0.20826 0.0
C199 C 0.01686 0.21486 0.20799 0.0
C200 C 0.01514 0.19705 0.25108 0.0
C201 C 0.00036 0.24916 0.15627 0.0
C202 C 0.99658 0.27219 0.16709 0.0
C203 C 0.99577 0.28792 0.11716 0.0
C204 C -0.00107 0.28038 0.05548 0.0
C205 C 0.00277 0.25724 0.04451 0.0
C206 C 0.00338 0.24187 0.09486 0.0
C207 C 0.00548 0.2478 0.98145 0.0
C208 C 0.98561 0.24361 0.94469 0.0
C209 C 0.02632 0.2368 0.96721 0.0
C210 C 0.0266 0.21997 0.92182 0.0
C211 C 0.00609 0.21399 0.88967 0.0
C212 C 0.99212 0.31211 0.13176 0.0
C213 C 0.97448 0.31771 0.17405 0.0
C214 C 0.00823 0.32904 0.11221 0.0
C215 C 0.00791 0.3507 0.13901 0.0
C216 C 0.99145 0.35567 0.18562 0.0
C217 C 0.9742 0.33915 0.20088 0.0
C218 C 0.98594 0.2268 0.8987 0.0
H219 H 0.96805 0.21483 0.33377 0.0
H220 H 0.97065 0.2458 0.25674 0.0
H221 H 0.03052 0.21452 0.17297 0.0
H222 H 0.02723 0.18322 0.24681 0.0
H223 H 0.99471 0.27798 0.21473 0.0
H224 H 0.00565 0.22393 0.08574 0.0
H225 H -0.00173 0.29231 0.01664 0.0
H226 H 0.96925 0.2516 0.95579 0.0
H227 H 0.04173 0.23958 0.99561 0.0
H228 H 0.04235 0.21035 0.91535 0.0
H229 H 0.96175 0.30497 0.1895 0.0
H230 H 0.022 0.32509 0.07957 0.0
H231 H 0.96989 0.22237 0.8746 0.0
H232 H 0.96137 0.34207 0.23697 0.0
H233 H 0.02118 0.36315 0.12534 0.0
C234 C 0.27978 0.06538 0.31801 0.0
C235 C 0.3015 0.07681 0.31375 0.0
C236 C 0.26203 0.07029 0.27571 0.0
C237 C 0.26563 0.08691 0.22878 0.0
C238 C 0.28635 0.10007 0.22914 0.0
C239 C 0.30418 0.09498 0.27088 0.0
C240 C 0.24985 0.08764 0.17404 0.0
C241 C 0.22576 0.08446 0.18114 0.0
C242 C 0.21148 0.08026 0.12926 0.0
C243 C 0.22137 0.07979 0.06891 0.0
C244 C 0.24553 0.08414 0.06082 0.0
C245 C 0.25944 0.08796 0.1138 0.0
C246 C 0.25761 0.08221 -0.00057 0.0
C247 C 0.25413 0.06293 0.96215 0.0
C248 C 0.27596 0.09753 0.98402 0.0
C249 C 0.29198 0.09248 0.93714 0.0
C250 C 0.2899 0.07209 0.90356 0.0
C251 C 0.18689 0.07385 0.14193 0.0
C252 C 0.18091 0.0508 0.15098 0.0
C253 C 0.17135 0.09048 0.16166 0.0
C254 C 0.15082 0.0842 0.19348 0.0
C255 C 0.1456 0.06115 0.20668 0.0
C256 C 0.16043 0.04449 0.18292 0.0
C257 C 0.27004 0.05798 0.91451 0.0
H258 H 0.27693 0.05173 0.35168 0.0
H259 H 0.24626 0.05983 0.27686 0.0
H260 H 0.28941 0.11329 0.19431 0.0
H261 H 0.32064 0.10421 0.26612 0.0
H262 H 0.21818 0.08402 0.22762 0.0
H263 H 0.27823 0.08939 0.10835 0.0
H264 H 0.21046 0.07585 0.02902 0.0
H265 H 0.24016 0.05081 0.97269 0.0
H266 H 0.27893 0.11271 0.01143 0.0
H267 H 0.30689 0.10385 0.93062 0.0
H268 H 0.19302 0.03773 0.13787 0.0
H269 H 0.17589 0.10838 0.15622 0.0
H270 H 0.26734 0.04249 0.88835 0.0
H271 H 0.15712 0.02662 0.19294 0.0
H272 H 0.1396 0.09742 0.21042 0.0
C273 C 0.51098 0.26806 0.9125 0.0
C274 C 0.52815 0.2832 0.88831 0.0
C275 C 0.51605 0.25375 0.9632 0.0
C276 C 0.5383 0.25451 0.99047 0.0
C277 C 0.55595 0.26812 0.96295 0.0
C278 C 0.55097 0.28225 0.9122 0.0
C279 C 0.54166 0.24577 0.05457 0.0
C280 C 0.54026 0.22244 0.06948 0.0
C281 C 0.54313 0.21521 0.13184 0.0
C282 C 0.54609 0.23148 0.17904 0.0
C283 C 0.54705 0.25469 0.16452 0.0
C284 C 0.54527 0.26169 0.10216 0.0
C285 C 0.54796 0.27185 0.21444 0.0
C286 C 0.53095 0.27141 0.26172 0.0
C287 C 0.56427 0.28998 0.21159 0.0
C288 C 0.56282 0.30802 0.25335 0.0
C289 C 0.54479 0.30835 0.29779 0.0
C290 C 0.54249 0.19091 0.15018 0.0
C291 C 0.52279 0.17706 0.13783 0.0
C292 C 0.56001 0.18268 0.18969 0.0
C293 C 0.55682 0.16209 0.22146 0.0
C294 C 0.53613 0.14927 0.21399 0.0
C295 C 0.51964 0.15626 0.16961 0.0
C296 C 0.52927 0.2896 0.30281 0.0
H297 H 0.49331 0.26821 0.89459 0.0
H298 H 0.50213 0.24353 0.98422 0.0
H299 H 0.57316 0.26911 0.98378 0.0
H300 H 0.56458 0.29379 0.89526 0.0
H301 H 0.5374 0.21007 0.03293 0.0
H302 H 0.54556 0.27973 0.09083 0.0
H303 H 0.54736 0.22607 0.22749 0.0
H304 H 0.51812 0.25764 0.2646 0.0
H305 H 0.57759 0.29057 0.17561 0.0
H306 H 0.57489 0.32234 0.24834 0.0
H307 H 0.50905 0.18312 0.1076 0.0
H308 H 0.57548 0.19296 0.19929 0.0
H309 H 0.51527 0.28945 0.3369 0.0
H310 H 0.50356 0.14656 0.16316 0.0
H311 H 0.56991 0.15683 0.25482 0.0
Zn312 Zn -0.00026 0.02169 0.62007 0.0
Zn313 Zn 0.98808 0.97509 0.55594 0.0
C314 C 0.99077 0.06298 0.67991 0.0
O315 O 0.97062 0.05837 0.65329 0.0
C316 C 0.99673 0.93448 0.49609 0.0
O317 O 0.01749 0.94047 0.51696 0.0
O318 O 0.98271 0.03662 0.54822 0.0
O319 O 0.02943 0.00971 0.58031 0.0
O320 O 0.0087 -0.00456 0.50302 0.0
C321 C 0.99693 0.05118 0.52436 0.0
O322 O 0.018 0.05331 0.54791 0.0
O323 O 0.00715 0.04869 0.67602 0.0
C324 C 0.01971 0.95572 0.67072 0.0
O325 O 0.03514 0.97048 0.69228 0.0
O326 O 0.0065 0.96144 0.62603 0.0
O327 O 0.9587 0.98681 0.59393 0.0
O328 O 0.97928 0.0005 0.6718 0.0
O329 O 0.9798 0.94781 0.50384 0.0
C330 C 0.02757 0.00455 0.52278 0.0
C331 C 0.96081 0.99074 0.65189 0.0
Zn332 Zn 0.47232 0.01002 0.61217 0.0
Zn333 Zn 0.5229 0.98107 0.56147 0.0
C334 C 0.43167 0.01538 0.67873 0.0
O335 O 0.43023 -0.00508 0.65467 0.0
C336 C 0.56121 0.97853 0.48335 0.0
O337 O 0.55876 0.00047 0.49176 0.0
O338 O 0.45192 0.00697 0.53648 0.0
O339 O 0.50069 0.02863 0.58273 0.0
O340 O 0.50617 0.00365 0.50879 0.0
C341 C 0.44786 0.02679 0.51535 0.0
O342 O 0.4584 0.04437 0.54118 0.0
O343 O 0.45038 0.02712 0.66979 0.0
C344 C 0.54558 0.99302 0.67767 0.0
O345 O 0.52564 0.98811 0.70533 0.0
O346 O 0.54585 -0.00364 0.61907 0.0
O347 O 0.50432 0.95832 0.6122 0.0
O348 O 0.47735 0.97988 0.65478 0.0
O349 O 0.5457 0.9649 0.50567 0.0
C350 C 0.50659 0.02414 0.52685 0.0
C351 C 0.48811 0.96124 0.65181 0.0
Zn352 Zn 0.49273 0.47387 0.62911 0.0
Zn353 Zn 0.50077 0.52025 0.55842 0.0
C354 C 0.50878 0.43583 0.69254 0.0
O355 O 0.5281 0.4457 0.67168 0.0
C356 C 0.48777 0.55603 0.48533 0.0
O357 O 0.46816 0.54683 0.50647 0.0
O358 O 0.51158 0.46142 0.55744 0.0
O359 O 0.46126 0.48162 0.59268 0.0
O360 O 0.47902 0.49874 0.51337 0.0
C361 C 0.50011 0.44514 0.53253 0.0
O362 O 0.47909 0.44003 0.55347 0.0
O363 O 0.48954 0.44594 0.68473 0.0
C364 C 0.49703 0.55462 0.64222 0.0
O365 O 0.51836 0.55624 0.61971 0.0
O366 O 0.48425 0.53767 0.62643 0.0
O367 O 0.53106 0.50909 0.59614 0.0
O368 O 0.51062 0.49764 0.67786 0.0
O369 O 0.50681 0.54595 0.4964 0.0
C370 C 0.4615 0.48779 0.53554 0.0
C371 C 0.52933 0.50613 0.65491 0.0
Zn372 Zn 0.03344 0.49513 0.60119 0.0
Zn373 Zn 0.95841 0.50195 0.57752 0.0
C374 C 0.06598 0.48529 0.69304 0.0
O375 O 0.06628 0.50762 0.68941 0.0
C376 C 0.92597 0.51195 0.48725 0.0
O377 O 0.92604 0.48963 0.49118 0.0
O378 O 0.05814 0.50459 0.54003 0.0
O379 O 0.00722 0.4798 0.55276 0.0
O380 O 0.97014 0.47632 0.52754 0.0
C381 C 0.06346 0.48677 0.51079 0.0
O382 O 0.05227 0.4676 0.52371 0.0
O383 O 0.05121 0.47424 0.66013 0.0
C384 C 0.93035 0.49704 0.68628 0.0
O385 O 0.9491 0.50426 0.71532 0.0
O386 O 0.93249 0.48984 0.63125 0.0
O387 O 0.98454 0.51752 0.62655 0.0
O388 O 0.02189 0.52146 0.65059 0.0
O389 O 0.94076 0.52322 0.51955 0.0
C390 C 0.99103 0.46999 0.52199 0.0
C391 C 0.00082 0.52729 0.65728 0.0
H392 H 0.13376 0.08148 0.31665 0.0
H393 H 0.03102 0.99234 0.4006 0.0
H394 H 0.11406 0.02546 0.19782 0.0
H395 H 0.0645 0.03481 0.53876 0.0
H396 H 0.05833 0.00725 0.32209 0.0
H397 H 0.10482 0.06815 0.39362 0.0
C398 C 0.12311 0.06657 0.30627 0.0
C399 C 0.12638 0.05455 0.25058 0.0
C400 C 0.05978 0.01325 0.36961 0.0
C401 C 0.09348 0.03901 0.33912 0.0
C402 C 0.0442 0.00473 0.4146 0.0
C403 C 0.04546 0.01228 0.47658 0.0
C404 C 0.0767 0.02966 0.38626 0.0
C405 C 0.06294 0.02839 0.49171 0.0
C406 C 0.10679 0.05883 0.35061 0.0
C407 C 0.11231 0.03513 0.24028 0.0
N408 N 0.07779 0.03665 0.44677 0.0
N409 N 0.0965 0.02797 0.28409 0.0
H410 H 0.53571 0.15223 0.33974 0.0
H411 H 0.5126 0.01982 0.40098 0.0
H412 H 0.52358 0.1047 0.19068 0.0
H413 H 0.50878 0.07031 0.54561 0.0
H414 H 0.51834 0.05013 0.32362 0.0
H415 H 0.52744 0.122 0.41591 0.0
C416 C 0.53138 0.13531 0.32321 0.0
C417 C 0.53056 0.13078 0.25908 0.0
C418 C 0.51615 0.05458 0.37221 0.0
C419 C 0.52106 0.09609 0.34588 0.0
C420 C 0.51295 0.03729 0.41657 0.0
C421 C 0.51022 0.04253 0.48006 0.0
C422 C 0.51686 0.07731 0.39139 0.0
C423 C 0.51084 0.06548 0.49729 0.0
C424 C 0.52654 0.1181 0.36663 0.0
C425 C 0.52445 0.10876 0.23985 0.0
N426 N 0.51418 0.08202 0.45319 0.0
N427 N 0.52011 0.0921 0.28322 0.0
H428 H 0.36901 0.4717 0.21956 0.0
H429 H 0.4311 0.45114 0.5487 0.0
H430 H 0.36463 0.40755 0.31908 0.0
H431 H 0.45079 0.50575 0.42185 0.0
H432 H 0.404 0.43629 0.46962 0.0
H433 H 0.39692 0.48571 0.29711 0.0
C434 C 0.37404 0.4605 0.25747 0.0
C435 C 0.36442 0.43842 0.26278 0.0
C436 C 0.41422 0.45156 0.45931 0.0
C437 C 0.39626 0.45442 0.35209 0.0
C438 C 0.42952 0.46015 0.50459 0.0
C439 C 0.44322 0.47971 0.49182 0.0
C440 C 0.41232 0.46287 0.4014 0.0
C441 C 0.44062 0.49058 0.43362 0.0
C442 C 0.39001 0.46849 0.30167 0.0
C443 C 0.37176 0.4246 0.3127 0.0
N444 N 0.42545 0.48207 0.39073 0.0
N445 N 0.38709 0.43289 0.35572 0.0
H446 H 0.03158 0.37774 0.22563 0.0
H447 H 0.967 0.43061 0.50878 0.0
H448 H 0.95637 0.38111 0.23508 0.0
H449 H 0.02414 0.46996 0.42899 0.0
H450 H 0.96878 0.40465 0.42048 0.0
H451 H 0.03435 0.40661 0.30745 0.0
C452 C 0.01566 0.38483 0.24367 0.0
C453 C 0.99365 0.37653 0.22417 0.0
C454 C 0.98117 0.41878 0.4229 0.0
C455 C 0.99689 0.40867 0.31908 0.0
C456 C 0.98033 0.4334 0.47337 0.0
C457 C 0.99575 0.4521 0.47656 0.0
C458 C -0.00245 0.42289 0.37525 0.0
C459 C 0.01255 0.45521 0.42922 0.0
C460 C 0.01733 0.40112 0.29073 0.0
C461 C 0.9737 0.38633 0.24992 0.0
N462 N 0.01302 0.4407 0.38002 0.0
N463 N 0.97579 0.40148 0.29697 0.0
H464 H 0.84679 0.91605 0.82848 0.0
H465 H 0.96126 -0.00571 0.77921 0.0
H466 H 0.8858 0.94579 0.98065 0.0
H467 H 0.92161 0.96463 0.62806 0.0
H468 H 0.93439 0.9761 0.85379 0.0
H469 H 0.87519 0.9322 0.75511 0.0
C470 C 0.86156 0.92564 0.84672 0.0
C471 C 0.86389 0.92948 0.91111 0.0
C472 C 0.93153 0.9736 0.80433 0.0
C473 C 0.89626 0.94864 0.82662 0.0
C474 C 0.94682 0.98406 0.7616 0.0
C475 C 0.94367 0.98103 0.69713 0.0
C476 C 0.91292 0.95998 0.78257 0.0
C477 C 0.92469 0.96751 0.67724 0.0
C478 C 0.87766 0.9351 0.80455 0.0
C479 C 0.88314 0.94256 0.93147 0.0
N480 N 0.91006 0.95748 0.7198 0.0
N481 N 0.89854 0.95174 0.88935 0.0
H482 H 0.43489 0.87558 0.95215 0.0
H483 H 0.51684 0.92678 0.68616 0.0
H484 H 0.50863 0.86255 0.94048 0.0
H485 H 0.45172 0.95793 0.73494 0.0
H486 H 0.51295 0.90198 0.77759 0.0
H487 H 0.44006 0.90643 0.87542 0.0
C488 C 0.45226 0.87958 0.9347 0.0
C489 C 0.47128 0.86615 0.9516 0.0
C490 C 0.4995 0.91424 0.76832 0.0
C491 C 0.47713 0.90082 0.86265 0.0
C492 C 0.50153 0.92819 0.71556 0.0
C493 C 0.48444 0.9443 0.70245 0.0
C494 C 0.48011 0.91617 0.80796 0.0
C495 C 0.46522 0.94562 0.74305 0.0
C496 C 0.45516 0.89704 0.89046 0.0
C497 C 0.49338 0.87207 0.92736 0.0
N498 N 0.46349 0.93164 0.79387 0.0
N499 N 0.49563 0.88867 0.88323 0.0
H500 H 0.65273 0.52883 0.87802 0.0
H501 H 0.52213 0.53116 0.75887 0.0
H502 H 0.60857 0.58543 0.91838 0.0
H503 H 0.5768 0.50316 0.64634 0.0
H504 H 0.55177 0.54674 0.83013 0.0
H505 H 0.62298 0.51406 0.80592 0.0
C506 C 0.63665 0.53799 0.87222 0.0
C507 C 0.63301 0.55831 0.90437 0.0
C508 C 0.55724 0.53719 0.78983 0.0
C509 C 0.59908 0.54157 0.82212 0.0
C510 C 0.54041 0.52824 0.74944 0.0
C511 C 0.54715 0.51586 0.69695 0.0
C512 C 0.58091 0.53311 0.77864 0.0
C513 C 0.571 0.5127 0.68629 0.0
C514 C 0.61984 0.52969 0.83068 0.0
C515 C 0.61202 0.56971 0.89442 0.0
N516 N 0.58708 0.52102 0.72733 0.0
N517 N 0.59573 0.56109 0.85446 0.0
H518 H 0.02039 0.64207 0.89338 0.0
H519 H 0.98243 0.52068 0.77309 0.0
H520 H 0.96021 0.60737 0.97313 0.0
H521 H 0.01048 0.57255 0.64933 0.0
H522 H 0.97774 0.54927 0.85443 0.0
H523 H 0.022 0.61318 0.8121 0.0
C524 C 0.00777 0.62809 0.89425 0.0
C525 C 0.99025 0.62688 0.93996 0.0
C526 C 0.9844 0.55447 0.80899 0.0
C527 C 0.99187 0.59403 0.84726 0.0
C528 C 0.98662 0.53829 0.76226 0.0
C529 C 0.99563 0.54464 0.70362 0.0
C530 C 0.9922 0.57687 0.79751 0.0
C531 C 0.00286 0.56725 0.69358 0.0
C532 C 0.00852 0.61182 0.84758 0.0
C533 C 0.97401 0.60873 0.93859 0.0
N534 N 0.00112 0.58259 0.7403 0.0
N535 N 0.97529 0.59283 0.893 0.0
H536 H 0.95593 0.1754 0.33322 0.0
H537 H 0.02101 0.06255 0.42115 0.0
H538 H 0.0308 0.17003 0.34944 0.0
H539 H 0.95874 0.07848 0.52386 0.0
H540 H 0.01818 0.09856 0.36427 0.0
H541 H 0.95142 0.13776 0.38329 0.0
C542 C 0.97139 0.16655 0.34803 0.0
C543 C 0.99384 0.17574 0.33586 0.0
C544 C 0.00484 0.09396 0.39832 0.0
C545 C 0.98867 0.13261 0.39019 0.0
C546 C 0.00626 0.07335 0.42999 0.0
C547 C 0.9901 0.06777 0.47697 0.0
C548 C 0.98724 0.10909 0.41409 0.0
C549 C 0.97137 0.08227 0.48733 0.0
C550 C 0.96874 0.14503 0.37589 0.0
C551 C 0.01319 0.16338 0.35584 0.0
N552 N 0.9706 0.10266 0.45666 0.0
N553 N 0.01016 0.14233 0.38104 0.0
H554 H 0.31241 0.03234 0.33797 0.0
H555 H 0.44179 0.06423 0.44336 0.0
H556 H 0.33808 0.10119 0.36468 0.0
H557 H 0.40953 -0.00055 0.49184 0.0
H558 H 0.40567 0.07556 0.39301 0.0
H559 H 0.34894 0.01816 0.38042 0.0
C560 C 0.32549 0.04452 0.3537 0.0
C561 C 0.32213 0.06808 0.34744 0.0
C562 C 0.40654 0.0588 0.41423 0.0
C563 C 0.36424 0.05182 0.39351 0.0
C564 C 0.42717 0.05224 0.44244 0.0
C565 C 0.42843 0.03103 0.47249 0.0
C566 C 0.38704 0.04402 0.41606 0.0
C567 C 0.40917 0.01599 0.46922 0.0
C568 C 0.34644 0.03635 0.37716 0.0
C569 C 0.34001 0.08293 0.36743 0.0
N570 N 0.38904 0.02289 0.44207 0.0
N571 N 0.36037 0.07455 0.38903 0.0
H572 H 0.57556 0.33455 0.36644 0.0
H573 H 0.47905 0.42808 0.43072 0.0
H574 H 0.50383 0.33028 0.30616 0.0
H575 H 0.54381 0.42695 0.53277 0.0
H576 H 0.49182 0.39593 0.36932 0.0
H577 H 0.56735 0.37099 0.41717 0.0
C578 C 0.55812 0.34128 0.36413 0.0
C579 C 0.54027 0.32939 0.33266 0.0
C580 C 0.50343 0.4028 0.40459 0.0
C581 C 0.53097 0.37098 0.38868 0.0
C582 C 0.49623 0.42128 0.4391 0.0
C583 C 0.51045 0.43003 0.48652 0.0
C584 C 0.52486 0.39272 0.41832 0.0
C585 C 0.53252 0.42071 0.49594 0.0
C586 C 0.55347 0.36201 0.39281 0.0
C587 C 0.51798 0.33873 0.33079 0.0
N588 N 0.53898 0.40222 0.46263 0.0
N589 N 0.51402 0.35898 0.35811 0.0
H590 H 0.19126 0.42365 0.44567 0.0
H591 H 0.06753 0.4788 0.38753 0.0
H592 H 0.15446 0.42102 0.27004 0.0
H593 H 0.10735 0.48908 0.55565 0.0
H594 H 0.10148 0.46175 0.33888 0.0
H595 H 0.16184 0.44952 0.4854 0.0
C596 C 0.17687 0.42835 0.41576 0.0
C597 C 0.17514 0.41998 0.35476 0.0
C598 C 0.10308 0.46822 0.38588 0.0
C599 C 0.14181 0.44985 0.39916 0.0
C600 C 0.08382 0.47826 0.41312 0.0
C601 C 0.08497 0.48545 0.47504 0.0
C602 C 0.12323 0.46477 0.42184 0.0
C603 C 0.10612 0.48399 0.50726 0.0
C604 C 0.16024 0.44326 0.43816 0.0
C605 C 0.1562 0.42663 0.31784 0.0
N606 N 0.12438 0.47332 0.48069 0.0
N607 N 0.14031 0.44118 0.34061 0.0
H608 H 0.04981 0.82587 0.8415 0.0
H609 H 0.9858 0.92325 0.64899 0.0
H610 H 0.97493 0.8261 0.81832 0.0
H611 H 0.05058 0.93432 0.74802 0.0
H612 H 0.98387 0.88425 0.69044 0.0
H613 H 0.05263 0.8621 0.78495 0.0
C614 C 0.03395 0.83344 0.82431 0.0
C615 C 0.01204 0.82309 0.83605 0.0
C616 C -0.00151 0.89525 0.70291 0.0
C617 C 0.01528 0.86441 0.77022 0.0
C618 C -0.00036 0.91749 0.67936 0.0
C619 C 0.01833 0.93214 0.69549 0.0
C620 C 0.01632 0.8875 0.74204 0.0
C621 C 0.03578 0.9237 0.73476 0.0
C622 C 0.03562 0.85409 0.79192 0.0
C623 C 0.9922 0.83338 0.81055 0.0
N624 N 0.03438 0.90192 0.75656 0.0
N625 N 0.99428 0.85358 0.77921 0.0
H626 H 0.68635 0.94867 0.75448 0.0
H627 H 0.55123 0.97504 0.79475 0.0
H628 H 0.64169 0.9171 0.89366 0.0
H629 H 0.58976 -0.00621 0.62772 0.0
H630 H 0.58563 0.95608 0.83455 0.0
H631 H 0.65189 0.96568 0.70571 0.0
C632 C 0.66916 0.94478 0.77335 0.0
C633 C 0.66657 0.93139 0.82743 0.0
C634 C 0.5866 0.96442 0.78926 0.0
C635 C 0.62759 0.95142 0.77448 0.0
C636 C 0.56703 0.97553 0.76686 0.0
C637 C 0.56752 0.98596 0.70769 0.0
C638 C 0.6069 0.96382 0.7525 0.0
C639 C 0.58856 0.98596 0.67364 0.0
C640 C 0.64959 0.95467 0.74619 0.0
C641 C 0.64417 0.92718 0.85146 0.0
N642 N 0.6074 0.97493 0.69642 0.0
N643 N 0.62553 0.9374 0.82526 0.0
H644 H 0.41605 0.65085 0.85634 0.0
H645 H 0.52085 0.59251 0.6782 0.0
H646 H 0.48167 0.684 0.8102 0.0
H647 H 0.45202 0.56124 0.68486 0.0
H648 H 0.50571 0.62596 0.72761 0.0
H649 H 0.42705 0.61834 0.79137 0.0
C650 C 0.43247 0.65148 0.83112 0.0
C651 C 0.4481 0.6699 0.83855 0.0
C652 C 0.49378 0.61187 0.71834 0.0
C653 C 0.46094 0.63297 0.76604 0.0
C654 C 0.50249 0.5926 0.69038 0.0
C655 C 0.4877 0.57396 0.67739 0.0
C656 C 0.47005 0.61265 0.7343 0.0
C657 C 0.46406 0.5752 0.6944 0.0
C658 C 0.43881 0.63292 0.7946 0.0
C659 C 0.46925 0.66997 0.80577 0.0
N660 N 0.45593 0.59425 0.72227 0.0
N661 N 0.47513 0.6517 0.77152 0.0
H662 H 0.7986 0.5395 0.82904 0.0
H663 H 0.91894 0.53807 0.6421 0.0
H664 H 0.83723 0.60046 0.77736 0.0
H665 H 0.89314 0.48261 0.75764 0.0
H666 H 0.88357 0.55927 0.66499 0.0
H667 H 0.82715 0.51678 0.77341 0.0
C668 C 0.81276 0.54808 0.80409 0.0
C669 C 0.81581 0.57173 0.80761 0.0
C670 C 0.88557 0.54243 0.68498 0.0
C671 C 0.84859 0.54604 0.74563 0.0
C672 C 0.90565 0.53042 0.6722 0.0
C673 C 0.90879 0.50888 0.69904 0.0
C674 C 0.86855 0.53267 0.72456 0.0
C675 C 0.89125 0.49934 0.73689 0.0
C676 C 0.82909 0.53515 0.77302 0.0
C677 C 0.83438 0.58222 0.77525 0.0
N678 N 0.87179 0.51142 0.74892 0.0
N679 N 0.85037 0.56921 0.74612 0.0
H680 H 0.01466 0.17241 0.93799 0.0
H681 H 0.97565 0.10342 0.63577 0.0
H682 H 0.99378 0.20578 0.76748 0.0
H683 H 0.01461 0.07364 0.78688 0.0
H684 H 0.98024 0.14079 0.68427 0.0
H685 H 0.01202 0.13572 0.88564 0.0
C686 C 0.00983 0.17196 0.88909 0.0
C687 C 0.00476 0.19207 0.85654 0.0
C688 C 0.98782 0.12612 0.70682 0.0
C689 C 0.00166 0.15017 0.79632 0.0
C690 C 0.98515 0.10481 0.67936 0.0
C691 C 0.99467 0.08551 0.70779 0.0
C692 C -0.00032 0.12804 0.76386 0.0
C693 C 0.00709 0.08818 0.76356 0.0
C694 C 0.0083 0.15104 0.85929 0.0
C695 C -0.00209 0.19059 0.79391 0.0
N696 N 0.00902 0.10904 0.79022 0.0
N697 N 0.99661 0.16994 0.76564 0.0
H698 H 0.32058 0.0981 0.8303 0.0
H699 H 0.39364 0.99132 0.71976 0.0
H700 H 0.30494 0.02853 0.88547 0.0
H701 H 0.42236 0.05973 0.71227 0.0
H702 H 0.35866 0.00549 0.76912 0.0
H703 H 0.3554 0.0851 0.77563 0.0
C704 C 0.32429 0.08012 0.83092 0.0
C705 C 0.30958 0.06446 0.86312 0.0
C706 C 0.3726 0.01746 0.75703 0.0
C707 C 0.3494 0.04952 0.79959 0.0
C708 C 0.39266 0.00938 0.72875 0.0
C709 C 0.41111 0.02433 0.71209 0.0
C710 C 0.37066 0.04079 0.7686 0.0
C711 C 0.40867 0.04757 0.72485 0.0
C712 C 0.34421 0.07275 0.79952 0.0
C713 C 0.31528 0.04132 0.86074 0.0
N714 N 0.38875 0.05512 0.7522 0.0
N715 N 0.33464 0.03463 0.82976 0.0
H716 H 0.55288 0.30056 0.78795 0.0
H717 H 0.4745 0.41152 0.75597 0.0
H718 H 0.48944 0.30976 0.89295 0.0
H719 H 0.54445 0.40619 0.68303 0.0
H720 H 0.47651 0.37203 0.79384 0.0
H721 H 0.54629 0.33665 0.73384 0.0
C722 C 0.53739 0.31001 0.79899 0.0
C723 C 0.52187 0.30223 0.84566 0.0
C724 C 0.49136 0.37954 0.76937 0.0
C725 C 0.51428 0.34367 0.78423 0.0
C726 C 0.49025 0.40207 0.74796 0.0
C727 C 0.50944 0.41225 0.71706 0.0
C728 C 0.5117 0.3671 0.75907 0.0
C729 C 0.52935 0.39918 0.70748 0.0
C730 C 0.53366 0.33064 0.76821 0.0
C731 C 0.50185 0.31501 0.85719 0.0
N732 N 0.52995 0.37733 0.72838 0.0
N733 N 0.49878 0.33523 0.82727 0.0
H734 H 0.18494 0.46458 0.92961 0.0
H735 H 0.0826 0.44171 0.68127 0.0
H736 H 0.17719 0.40099 0.8319 0.0
H737 H 0.09175 0.50328 0.78724 0.0
H738 H 0.11657 0.42575 0.73532 0.0
H739 H 0.15106 0.4788 0.87485 0.0
C740 C 0.17637 0.45368 0.89583 0.0
C741 C 0.18415 0.43155 0.88525 0.0
C742 C 0.11098 0.44268 0.74697 0.0
C743 C 0.14457 0.44766 0.82303 0.0
C744 C 0.0915 0.45171 0.71653 0.0
C745 C 0.08435 0.47388 0.72975 0.0
C746 C 0.12325 0.45592 0.79095 0.0
C747 C 0.09669 0.48619 0.77523 0.0
C748 C 0.15675 0.46175 0.865 0.0
C749 C 0.17176 0.4181 0.84197 0.0
N750 N 0.11548 0.47709 0.8039 0.0
N751 N 0.15257 0.42635 0.81248 0.0
H752 H 0.01312 0.79367 0.40104 0.0
H753 H 0.96344 0.92016 0.41226 0.0
H754 H 0.95941 0.81781 0.27757 0.0
H755 H 0.02146 0.89677 0.52208 0.0
H756 H 0.95865 0.88173 0.36942 0.0
H757 H 0.01284 0.83016 0.45517 0.0
C758 C 0.00105 0.80658 0.386 0.0
C759 C 0.98623 0.80277 0.33503 0.0
C760 C 0.97233 0.88501 0.40318 0.0
C761 C 0.98612 0.84465 0.3955 0.0
C762 C 0.97505 0.90689 0.42752 0.0
C763 C 0.99302 0.9116 0.4701 0.0
C764 C 0.9875 0.86777 0.42241 0.0
C765 C 0.00763 0.89391 0.48847 0.0
C766 C 0.00094 0.82741 0.41662 0.0
C767 C 0.97089 0.81999 0.31727 0.0
N768 N 0.00454 0.87279 0.46456 0.0
N769 N 0.9714 0.84029 0.34704 0.0
H770 H 0.67039 0.90214 0.30491 0.0
H771 H 0.59927 0.00387 0.44748 0.0
H772 H 0.70135 0.96762 0.34894 0.0
H773 H 0.57354 0.93439 0.45752 0.0
H774 H 0.63624 0.99057 0.40746 0.0
H775 H 0.63504 0.91275 0.36052 0.0
C776 C 0.67004 0.91857 0.32729 0.0
C777 C 0.68894 0.93411 0.32133 0.0
C778 C 0.62258 0.97817 0.41854 0.0
C779 C 0.64805 0.94657 0.38345 0.0
C780 C 0.60132 0.98577 0.44099 0.0
C781 C 0.58315 0.97023 0.45566 0.0
C782 C 0.6258 0.95482 0.40985 0.0
C783 C 0.58702 0.94697 0.44652 0.0
C784 C 0.64969 0.92467 0.35857 0.0
C785 C 0.68711 0.95526 0.35079 0.0
N786 N 0.6079 0.93996 0.42384 0.0
N787 N 0.66696 0.96095 0.37975 0.0
H788 H 0.50407 0.67865 0.26236 0.0
H789 H 0.45581 0.58805 0.50917 0.0
H790 H 0.45354 0.69401 0.40483 0.0
H791 H 0.51947 0.57754 0.40635 0.0
H792 H 0.45497 0.62692 0.46977 0.0
H793 H 0.51105 0.64217 0.31413 0.0
C794 C 0.49488 0.67463 0.30545 0.0
C795 C 0.47808 0.68939 0.32916 0.0
C796 C 0.46919 0.61622 0.45578 0.0
C797 C 0.4856 0.6474 0.3876 0.0
C798 C 0.46957 0.59391 0.4778 0.0
C799 C 0.48759 0.57948 0.46028 0.0
C800 C 0.48677 0.62419 0.415 0.0
C801 C 0.50522 0.58814 0.42065 0.0
C802 C 0.49876 0.6537 0.33465 0.0
C803 C 0.46639 0.68303 0.38442 0.0
N804 N 0.50424 0.60994 0.39865 0.0
N805 N 0.47018 0.66243 0.41132 0.0
H806 H 0.8237 0.59893 0.30575 0.0
H807 H 0.89631 0.49187 0.4051 0.0
H808 H 0.79422 0.53076 0.31769 0.0
H809 H 0.91197 0.55687 0.48904 0.0
H810 H 0.86195 0.5079 0.35659 0.0
H811 H 0.85803 0.58587 0.36281 0.0
C812 C 0.82413 0.58134 0.32098 0.0
C813 C 0.80596 0.56588 0.3055 0.0
C814 C 0.87287 0.51869 0.38565 0.0
C815 C 0.84574 0.55081 0.36881 0.0
C816 C 0.89262 0.5096 0.41313 0.0
C817 C 0.90699 0.52297 0.45176 0.0
C818 C 0.86735 0.54145 0.39611 0.0
C819 C 0.90138 0.54596 0.45955 0.0
C820 C 0.8439 0.57391 0.35313 0.0
C821 C 0.80794 0.54324 0.32631 0.0
N822 N 0.88191 0.55453 0.43196 0.0
N823 N 0.82756 0.53637 0.35586 0.0
loop_
_geom_bond_atom_site_label_1
_geom_bond_atom_site_label_2
_geom_bond_distance
_geom_bond_site_symmetry_2
_ccdc_geom_bond_type
C0 C1 1.386 . S
C0 C2 1.397 . S
C0 H24 0.931 . S
C1 C0 1.386 . S
C1 C5 1.397 . S
C2 C0 1.397 . S
C2 C3 1.384 . S
C2 H25 0.930 . S
C3 C2 1.384 . S
C3 C4 1.377 . S
C3 C6 1.481 . S
C4 C3 1.377 . S
C4 C5 1.389 . S
C4 H26 0.929 . S
C5 C1 1.397 . S
C5 C4 1.389 . S
C5 H27 0.931 . S
C6 C3 1.481 . S
C6 C7 1.387 . S
C6 C11 1.390 1_556 S
C7 C6 1.387 . S
C7 C8 1.401 . S
C7 H28 0.930 . S
C8 C7 1.401 . S
C8 C9 1.376 1_556 S
C8 C17 1.511 . S
C9 C8 1.376 1_554 S
C9 C10 1.392 . S
C9 H30 0.931 . S
C10 C9 1.392 . S
C10 C11 1.361 . S
C10 C12 1.500 . S
C11 C6 1.390 1_554 S
C11 C10 1.361 . S
C11 H29 0.931 . S
C12 C10 1.500 . S
C12 C13 1.371 . S
C12 C14 1.365 . S
C13 C12 1.371 . S
C13 C23 1.386 . S
C13 H31 0.931 . S
C14 C12 1.365 . S
C14 C15 1.409 . S
C14 H32 0.929 . S
C15 C14 1.409 . S
C15 C16 1.380 . S
C15 H33 0.930 . S
C16 C15 1.380 . S
C16 C23 1.357 . S
C17 C8 1.511 . S
C17 C18 1.341 . S
C17 C19 1.371 1_556 S
C18 C17 1.341 . S
C18 C22 1.394 . S
C18 H34 0.930 . S
C19 C17 1.371 1_554 S
C19 C20 1.392 . S
C19 H35 0.931 . S
C20 C19 1.392 . S
C20 C21 1.331 1_554 S
C20 H38 0.932 . S
C21 C20 1.331 1_556 S
C21 C22 1.336 . S
C22 C18 1.394 . S
C22 C21 1.336 . S
C22 H37 0.929 . S
C23 C13 1.386 . S
C23 C16 1.357 . S
C23 H36 0.928 . S
H24 C0 0.931 . S
H25 C2 0.930 . S
H26 C4 0.929 . S
H27 C5 0.931 . S
H28 C7 0.930 . S
H29 C11 0.931 . S
H30 C9 0.931 . S
H31 C13 0.931 . S
H32 C14 0.929 . S
H33 C15 0.930 . S
H34 C18 0.930 . S
H35 C19 0.931 . S
H36 C23 0.928 . S
H37 C22 0.929 . S
H38 C20 0.932 . S
C39 C40 1.394 . S
C39 C41 1.397 . S
C39 H63 0.931 . S
C40 C39 1.394 . S
C40 C44 1.389 1_655 S
C41 C39 1.397 . S
C41 C42 1.389 . S
C41 H64 0.930 . S
C42 C41 1.389 . S
C42 C43 1.373 1_655 S
C42 C45 1.481 . S
C43 C42 1.373 1_455 S
C43 C44 1.389 . S
C43 H65 0.929 . S
C44 C40 1.389 1_455 S
C44 C43 1.389 . S
C44 H66 0.931 . S
C45 C42 1.481 . S
C45 C46 1.388 . S
C45 C50 1.390 1_556 S
C46 C45 1.388 . S
C46 C47 1.403 1_556 S
C46 H67 0.930 . S
C47 C46 1.403 1_554 S
C47 C48 1.376 . S
C47 C56 1.512 . S
C48 C47 1.376 . S
C48 C49 1.392 . S
C48 H69 0.934 . S
C49 C48 1.392 . S
C49 C50 1.361 . S
C49 C51 1.499 1_655 S
C50 C45 1.390 1_554 S
C50 C49 1.361 . S
C50 H68 0.931 . S
C51 C49 1.499 1_455 S
C51 C52 1.362 1_455 S
C51 C53 1.374 . S
C52 C51 1.362 1_655 S
C52 C62 1.386 . S
C52 H70 0.931 . S
C53 C51 1.374 . S
C53 C54 1.409 . S
C53 H71 0.929 . S
C54 C53 1.409 . S
C54 C55 1.379 . S
C54 H72 0.930 . S
C55 C54 1.379 . S
C55 C62 1.358 1_455 S
C56 C47 1.512 . S
C56 C57 1.341 1_554 S
C56 C58 1.371 1_655 S
C57 C56 1.341 1_556 S
C57 C61 1.394 . S
C57 H73 0.930 . S
C58 C56 1.371 1_455 S
C58 C59 1.392 . S
C58 H74 0.931 . S
C59 C58 1.392 . S
C59 C60 1.322 1_454 S
C59 H77 0.932 . S
C60 C59 1.322 1_656 S
C60 C61 1.346 . S
C61 C57 1.394 . S
C61 C60 1.346 . S
C61 H76 0.929 . S
C62 C52 1.386 . S
C62 C55 1.358 1_655 S
C62 H75 0.928 . S
H63 C39 0.931 . S
H64 C41 0.930 . S
H65 C43 0.929 . S
H66 C44 0.931 . S
H67 C46 0.930 . S
H68 C50 0.931 . S
H69 C48 0.934 . S
H70 C52 0.931 . S
H71 C53 0.929 . S
H72 C54 0.930 . S
H73 C57 0.930 . S
H74 C58 0.931 . S
H75 C62 0.928 . S
H76 C61 0.929 . S
H77 C59 0.932 . S
C78 C79 1.386 . S
C78 C80 1.397 . S
C78 H102 0.931 . S
C79 C78 1.386 . S
C79 C83 1.397 . S
C80 C78 1.397 . S
C80 C81 1.384 . S
C80 H103 0.930 . S
C81 C80 1.384 . S
C81 C82 1.377 . S
C81 C84 1.481 . S
C82 C81 1.377 . S
C82 C83 1.389 . S
C82 H104 0.929 . S
C83 C79 1.397 . S
C83 C82 1.389 . S
C83 H105 0.931 . S
C84 C81 1.481 . S
C84 C85 1.387 . S
C84 C89 1.390 1_556 S
C85 C84 1.387 . S
C85 C86 1.401 1_556 S
C85 H106 0.930 . S
C86 C85 1.401 1_554 S
C86 C87 1.376 . S
C86 C95 1.511 . S
C87 C86 1.376 . S
C87 C88 1.392 . S
C87 H108 0.931 . S
C88 C87 1.392 . S
C88 C89 1.361 . S
C88 C90 1.500 . S
C89 C84 1.390 1_554 S
C89 C88 1.361 . S
C89 H107 0.931 . S
C90 C88 1.500 . S
C90 C91 1.371 . S
C90 C92 1.365 . S
C91 C90 1.371 . S
C91 C101 1.386 . S
C91 H109 0.931 . S
C92 C90 1.365 . S
C92 C93 1.409 . S
C92 H110 0.929 . S
C93 C92 1.409 . S
C93 C94 1.380 . S
C93 H111 0.930 . S
C94 C93 1.380 . S
C94 C101 1.357 . S
C95 C86 1.511 . S
C95 C96 1.341 1_554 S
C95 C97 1.371 . S
C96 C95 1.341 1_556 S
C96 C100 1.394 . S
C96 H112 0.930 . S
C97 C95 1.371 . S
C97 C98 1.392 . S
C97 H113 0.931 . S
C98 C97 1.392 . S
C98 C99 1.331 1_554 S
C98 H116 0.932 . S
C99 C98 1.331 1_556 S
C99 C100 1.336 . S
C100 C96 1.394 . S
C100 C99 1.336 . S
C100 H115 0.929 . S
C101 C91 1.386 . S
C101 C94 1.357 . S
C101 H114 0.928 . S
H102 C78 0.931 . S
H103 C80 0.930 . S
H104 C82 0.929 . S
H105 C83 0.931 . S
H106 C85 0.930 . S
H107 C89 0.931 . S
H108 C87 0.931 . S
H109 C91 0.931 . S
H110 C92 0.929 . S
H111 C93 0.930 . S
H112 C96 0.930 . S
H113 C97 0.931 . S
H114 C101 0.928 . S
H115 C100 0.929 . S
H116 C98 0.932 . S
C117 C118 1.386 . S
C117 C119 1.397 . S
C117 H141 0.931 . S
C118 C117 1.386 . S
C118 C122 1.397 . S
C119 C117 1.397 . S
C119 C120 1.384 . S
C119 H142 0.930 . S
C120 C119 1.384 . S
C120 C121 1.377 . S
C120 C123 1.481 . S
C121 C120 1.377 . S
C121 C122 1.389 . S
C121 H143 0.929 . S
C122 C118 1.397 . S
C122 C121 1.389 . S
C122 H144 0.931 . S
C123 C120 1.481 . S
C123 C124 1.387 . S
C123 C128 1.390 . S
C124 C123 1.387 . S
C124 C125 1.401 . S
C124 H145 0.930 . S
C125 C124 1.401 . S
C125 C126 1.376 1_554 S
C125 C134 1.511 . S
C126 C125 1.376 1_556 S
C126 C127 1.392 . S
C126 H147 0.931 . S
C127 C126 1.392 . S
C127 C128 1.361 1_556 S
C127 C129 1.500 . S
C128 C123 1.390 . S
C128 C127 1.361 1_554 S
C128 H146 0.931 . S
C129 C127 1.500 . S
C129 C130 1.371 . S
C129 C131 1.365 . S
C130 C129 1.371 . S
C130 C140 1.386 . S
C130 H148 0.931 . S
C131 C129 1.365 . S
C131 C132 1.409 . S
C131 H149 0.929 . S
C132 C131 1.409 . S
C132 C133 1.380 . S
C132 H150 0.930 . S
C133 C132 1.380 . S
C133 C140 1.357 . S
C134 C125 1.511 . S
C134 C135 1.341 . S
C134 C136 1.371 1_554 S
C135 C134 1.341 . S
C135 C139 1.394 . S
C135 H151 0.930 . S
C136 C134 1.371 1_556 S
C136 C137 1.392 . S
C136 H152 0.931 . S
C137 C136 1.392 . S
C137 C138 1.331 . S
C137 H155 0.932 . S
C138 C137 1.331 . S
C138 C139 1.336 1_556 S
C139 C135 1.394 . S
C139 C138 1.336 1_554 S
C139 H154 0.929 . S
C140 C130 1.386 . S
C140 C133 1.357 . S
C140 H153 0.928 . S
H141 C117 0.931 . S
H142 C119 0.930 . S
H143 C121 0.929 . S
H144 C122 0.931 . S
H145 C124 0.930 . S
H146 C128 0.931 . S
H147 C126 0.931 . S
H148 C130 0.931 . S
H149 C131 0.929 . S
H150 C132 0.930 . S
H151 C135 0.930 . S
H152 C136 0.931 . S
H153 C140 0.928 . S
H154 C139 0.929 . S
H155 C137 0.932 . S
C156 C157 1.386 . S
C156 C158 1.397 . S
C156 H180 0.931 . S
C157 C156 1.386 . S
C157 C161 1.397 . S
C158 C156 1.397 . S
C158 C159 1.384 . S
C158 H181 0.930 . S
C159 C158 1.384 . S
C159 C160 1.377 . S
C159 C162 1.481 . S
C160 C159 1.377 . S
C160 C161 1.389 . S
C160 H182 0.929 . S
C161 C157 1.397 . S
C161 C160 1.389 . S
C161 H183 0.931 . S
C162 C159 1.481 . S
C162 C163 1.387 . S
C162 C167 1.390 . S
C163 C162 1.387 . S
C163 C164 1.401 . S
C163 H184 0.930 . S
C164 C163 1.401 . S
C164 C165 1.376 . S
C164 C173 1.511 . S
C165 C164 1.376 . S
C165 C166 1.392 . S
C165 H186 0.931 . S
C166 C165 1.392 . S
C166 C167 1.361 . S
C166 C168 1.500 . S
C167 C162 1.390 . S
C167 C166 1.361 . S
C167 H185 0.931 . S
C168 C166 1.500 . S
C168 C169 1.371 1_554 S
C168 C170 1.365 . S
C169 C168 1.371 1_556 S
C169 C179 1.386 . S
C169 H187 0.931 1_556 S
C170 C168 1.365 . S
C170 C171 1.409 1_554 S
C170 H188 0.929 . S
C171 C170 1.409 1_556 S
C171 C172 1.380 . S
C171 H189 0.930 . S
C172 C171 1.380 . S
C172 C179 1.357 . S
C173 C164 1.511 . S
C173 C174 1.341 . S
C173 C175 1.371 . S
C174 C173 1.341 . S
C174 C178 1.394 . S
C174 H190 0.930 . S
C175 C173 1.371 . S
C175 C176 1.392 . S
C175 H191 0.931 . S
C176 C175 1.392 . S
C176 C177 1.331 . S
C176 H194 0.932 . S
C177 C176 1.331 . S
C177 C178 1.336 . S
C178 C174 1.394 . S
C178 C177 1.336 . S
C178 H193 0.929 . S
C179 C169 1.386 . S
C179 C172 1.357 . S
C179 H192 0.928 . S
H180 C156 0.931 . S
H181 C158 0.930 . S
H182 C160 0.929 . S
H183 C161 0.931 . S
H184 C163 0.930 . S
H185 C167 0.931 . S
H186 C165 0.931 . S
H187 C169 0.931 1_554 S
H188 C170 0.929 . S
H189 C171 0.930 . S
H190 C174 0.930 . S
H191 C175 0.931 . S
H192 C179 0.928 . S
H193 C178 0.929 . S
H194 C176 0.932 . S
C195 C196 1.388 . S
C195 C197 1.397 . S
C195 H219 0.931 . S
C196 C195 1.388 . S
C196 C200 1.396 1_655 S
C197 C195 1.397 . S
C197 C198 1.382 . S
C197 H220 0.930 . S
C198 C197 1.382 . S
C198 C199 1.379 1_655 S
C198 C201 1.480 . S
C199 C198 1.379 1_455 S
C199 C200 1.389 . S
C199 H221 0.929 . S
C200 C196 1.396 1_455 S
C200 C199 1.389 . S
C200 H222 0.931 . S
C201 C198 1.480 . S
C201 C202 1.388 . S
C201 C206 1.390 . S
C202 C201 1.388 . S
C202 C203 1.401 . S
C202 H223 0.930 . S
C203 C202 1.401 . S
C203 C204 1.376 . S
C203 C212 1.512 . S
C204 C203 1.376 . S
C204 C205 1.391 1_655 S
C204 H225 0.934 . S
C205 C204 1.391 1_455 S
C205 C206 1.361 1_455 S
C205 C207 1.499 . S
C206 C201 1.390 . S
C206 C205 1.361 1_655 S
C206 H224 0.931 . S
C207 C205 1.499 . S
C207 C208 1.357 1_454 S
C207 C209 1.381 . S
C208 C207 1.357 1_656 S
C208 C218 1.386 . S
C208 H226 0.931 . S
C209 C207 1.381 . S
C209 C210 1.407 1_554 S
C209 H227 0.931 . S
C210 C209 1.407 1_556 S
C210 C211 1.384 . S
C210 H228 0.930 . S
C211 C210 1.384 . S
C211 C218 1.353 1_455 S
C212 C203 1.512 . S
C212 C213 1.341 . S
C212 C214 1.371 1_655 S
C213 C212 1.341 . S
C213 C217 1.394 . S
C213 H229 0.930 . S
C214 C212 1.371 1_455 S
C214 C215 1.392 . S
C214 H230 0.931 . S
C215 C214 1.392 . S
C215 C216 1.325 1_455 S
C215 H233 0.932 . S
C216 C215 1.325 1_655 S
C216 C217 1.341 . S
C217 C213 1.394 . S
C217 C216 1.341 . S
C217 H232 0.929 . S
C218 C208 1.386 . S
C218 C211 1.353 1_655 S
C218 H231 0.928 . S
H219 C195 0.931 . S
H220 C197 0.930 . S
H221 C199 0.929 . S
H222 C200 0.931 . S
H223 C202 0.930 . S
H224 C206 0.931 . S
H225 C204 0.934 . S
H226 C208 0.931 . S
H227 C209 0.931 . S
H228 C210 0.930 . S
H229 C213 0.930 . S
H230 C214 0.931 . S
H231 C218 0.928 . S
H232 C217 0.929 . S
H233 C215 0.932 . S
C234 C235 1.386 . S
C234 C236 1.397 . S
C234 H258 0.931 . S
C235 C234 1.386 . S
C235 C239 1.397 . S
C236 C234 1.397 . S
C236 C237 1.384 . S
C236 H259 0.930 . S
C237 C236 1.384 . S
C237 C238 1.377 . S
C237 C240 1.481 . S
C238 C237 1.377 . S
C238 C239 1.389 . S
C238 H260 0.929 . S
C239 C235 1.397 . S
C239 C238 1.389 . S
C239 H261 0.931 . S
C240 C237 1.481 . S
C240 C241 1.387 . S
C240 C245 1.390 . S
C241 C240 1.387 . S
C241 C242 1.401 . S
C241 H262 0.930 . S
C242 C241 1.401 . S
C242 C243 1.376 . S
C242 C251 1.511 . S
C243 C242 1.376 . S
C243 C244 1.392 . S
C243 H264 0.931 . S
C244 C243 1.392 . S
C244 C245 1.361 . S
C244 C246 1.500 . S
C245 C240 1.390 . S
C245 C244 1.361 . S
C245 H263 0.931 . S
C246 C244 1.500 . S
C246 C247 1.371 1_554 S
C246 C248 1.365 . S
C247 C246 1.371 1_556 S
C247 C257 1.386 . S
C247 H265 0.931 . S
C248 C246 1.365 . S
C248 C249 1.409 1_554 S
C248 H266 0.929 . S
C249 C248 1.409 1_556 S
C249 C250 1.380 . S
C249 H267 0.930 . S
C250 C249 1.380 . S
C250 C257 1.357 . S
C251 C242 1.511 . S
C251 C252 1.341 . S
C251 C253 1.371 . S
C252 C251 1.341 . S
C252 C256 1.394 . S
C252 H268 0.930 . S
C253 C251 1.371 . S
C253 C254 1.392 . S
C253 H269 0.931 . S
C254 C253 1.392 . S
C254 C255 1.331 . S
C254 H272 0.932 . S
C255 C254 1.331 . S
C255 C256 1.336 . S
C256 C252 1.394 . S
C256 C255 1.336 . S
C256 H271 0.929 . S
C257 C247 1.386 . S
C257 C250 1.357 . S
C257 H270 0.928 . S
H258 C234 0.931 . S
H259 C236 0.930 . S
H260 C238 0.929 . S
H261 C239 0.931 . S
H262 C241 0.930 . S
H263 C245 0.931 . S
H264 C243 0.931 . S
H265 C247 0.931 . S
H266 C248 0.929 . S
H267 C249 0.930 . S
H268 C252 0.930 . S
H269 C253 0.931 . S
H270 C257 0.928 . S
H271 C256 0.929 . S
H272 C254 0.932 . S
C273 C274 1.386 . S
C273 C275 1.397 . S
C273 H297 0.931 . S
C274 C273 1.386 . S
C274 C278 1.397 . S
C275 C273 1.397 . S
C275 C276 1.384 1_556 S
C275 H298 0.930 . S
C276 C275 1.384 1_554 S
C276 C277 1.373 1_554 S
C276 C279 1.481 . S
C277 C276 1.373 1_556 S
C277 C278 1.403 . S
C277 H299 0.920 1_556 S
C278 C274 1.397 . S
C278 C277 1.403 . S
C278 H300 0.931 . S
C279 C276 1.481 . S
C279 C280 1.387 . S
C279 C284 1.390 . S
C280 C279 1.387 . S
C280 C281 1.401 . S
C280 H301 0.930 . S
C281 C280 1.401 . S
C281 C282 1.376 . S
C281 C290 1.511 . S
C282 C281 1.376 . S
C282 C283 1.392 . S
C282 H303 0.931 . S
C283 C282 1.392 . S
C283 C284 1.361 . S
C283 C285 1.500 . S
C284 C279 1.390 . S
C284 C283 1.361 . S
C284 H302 0.931 . S
C285 C283 1.500 . S
C285 C286 1.371 . S
C285 C287 1.365 . S
C286 C285 1.371 . S
C286 C296 1.386 . S
C286 H304 0.931 . S
C287 C285 1.365 . S
C287 C288 1.409 . S
C287 H305 0.929 . S
C288 C287 1.409 . S
C288 C289 1.380 . S
C288 H306 0.930 . S
C289 C288 1.380 . S
C289 C296 1.357 . S
C290 C281 1.511 . S
C290 C291 1.341 . S
C290 C292 1.371 . S
C291 C290 1.341 . S
C291 C295 1.394 . S
C291 H307 0.930 . S
C292 C290 1.371 . S
C292 C293 1.392 . S
C292 H308 0.931 . S
C293 C292 1.392 . S
C293 C294 1.331 . S
C293 H311 0.932 . S
C294 C293 1.331 . S
C294 C295 1.336 . S
C295 C291 1.394 . S
C295 C294 1.336 . S
C295 H310 0.929 . S
C296 C286 1.386 . S
C296 C289 1.357 . S
C296 H309 0.928 . S
H297 C273 0.931 . S
H298 C275 0.930 . S
H299 C277 0.920 1_554 S
H300 C278 0.931 . S
H301 C280 0.930 . S
H302 C284 0.931 . S
H303 C282 0.931 . S
H304 C286 0.931 . S
H305 C287 0.929 . S
H306 C288 0.930 . S
H307 C291 0.930 . S
H308 C292 0.931 . S
H309 C296 0.928 . S
H310 C295 0.929 . S
H311 C293 0.932 . S
Zn312 O318 1.969 . S
Zn312 O319 1.965 1_655 S
Zn312 O323 2.024 1_655 S
Zn312 O328 1.969 . S
Zn313 O320 1.969 . S
Zn313 O326 1.969 . S
Zn313 O327 1.965 1_455 S
Zn313 O329 2.024 1_455 S
C314 O315 1.229 1_455 S
C314 O323 1.058 . S
O315 C314 1.229 1_655 S
C316 O317 1.229 1_655 S
C316 O329 1.058 . S
O317 C316 1.229 1_455 S
O318 Zn312 1.969 . S
O318 C321 1.267 . S
O319 Zn312 1.965 1_455 S
O319 C330 1.260 . S
O320 Zn313 1.969 . S
O320 C330 1.258 1_565 S
C321 O318 1.267 . S
C321 O322 1.228 1_655 S
O322 C321 1.228 1_455 S
O323 Zn312 2.024 1_455 S
O323 C314 1.058 . S
C324 O325 1.228 1_455 S
C324 O326 1.267 . S
O325 C324 1.228 1_655 S
O326 Zn313 1.969 . S
O326 C324 1.267 . S
O327 Zn313 1.965 1_655 S
O327 C331 1.260 1_565 S
O328 Zn312 1.969 . S
O328 C331 1.258 . S
O329 Zn313 2.024 1_655 S
O329 C316 1.058 . S
C330 O319 1.260 . S
C330 O320 1.258 1_545 S
C331 O327 1.260 1_545 S
C331 O328 1.258 . S
Zn332 O338 1.982 . S
Zn332 O339 1.965 . S
Zn332 O343 2.024 . S
Zn332 O348 1.969 1_545 S
Zn333 O340 1.969 1_565 S
Zn333 O346 1.969 1_565 S
Zn333 O347 1.965 . S
Zn333 O349 2.024 . S
C334 O335 1.229 . S
C334 O343 1.058 . S
O335 C334 1.229 . S
C336 O337 1.229 . S
C336 O349 1.058 . S
O337 C336 1.229 . S
O338 Zn332 1.982 . S
O338 C341 1.298 . S
O339 Zn332 1.965 . S
O339 C350 1.260 . S
O340 Zn333 1.969 1_545 S
O340 C350 1.258 . S
C341 O338 1.298 . S
C341 O342 1.228 . S
O342 C341 1.228 . S
O343 Zn332 2.024 . S
O343 C334 1.058 . S
C344 O345 1.228 . S
C344 O346 1.267 1_565 S
O345 C344 1.228 . S
O346 Zn333 1.969 1_545 S
O346 C344 1.267 1_545 S
O347 Zn333 1.965 . S
O347 C351 1.260 . S
O348 Zn332 1.969 1_565 S
O348 C351 1.258 . S
O349 Zn333 2.024 . S
O349 C336 1.058 . S
C350 O339 1.260 . S
C350 O340 1.258 . S
C351 O347 1.260 . S
C351 O348 1.258 . S
Zn352 O358 1.969 . S
Zn352 O359 1.965 . S
Zn352 O363 2.024 . S
Zn352 O368 1.969 . S
Zn353 O360 1.969 . S
Zn353 O366 1.969 . S
Zn353 O367 1.965 . S
Zn353 O369 2.024 . S
C354 O355 1.229 . S
C354 O363 1.058 . S
O355 C354 1.229 . S
C356 O357 1.229 . S
C356 O369 1.058 . S
O357 C356 1.229 . S
O358 Zn352 1.969 . S
O358 C361 1.267 . S
O359 Zn352 1.965 . S
O359 C370 1.260 . S
O360 Zn353 1.969 . S
O360 C370 1.258 . S
C361 O358 1.267 . S
C361 O362 1.228 . S
O362 C361 1.228 . S
O363 Zn352 2.024 . S
O363 C354 1.058 . S
C364 O365 1.228 . S
C364 O366 1.267 . S
O365 C364 1.228 . S
O366 Zn353 1.969 . S
O366 C364 1.267 . S
O367 Zn353 1.965 . S
O367 C371 1.260 . S
O368 Zn352 1.969 . S
O368 C371 1.258 . S
O369 Zn353 2.024 . S
O369 C356 1.058 . S
C370 O359 1.260 . S
C370 O360 1.258 . S
C371 O367 1.260 . S
C371 O368 1.258 . S
Zn372 O378 1.969 . S
Zn372 O379 1.965 . S
Zn372 O383 2.024 . S
Zn372 O388 1.969 . S
Zn373 O380 1.969 . S
Zn373 O386 1.969 . S
Zn373 O387 1.965 . S
Zn373 O389 2.024 . S
C374 O375 1.229 . S
C374 O383 1.058 . S
O375 C374 1.229 . S
C376 O377 1.229 . S
C376 O389 1.058 . S
O377 C376 1.229 . S
O378 Zn372 1.969 . S
O378 C381 1.267 . S
O379 Zn372 1.965 . S
O379 C390 1.260 1_455 S
O380 Zn373 1.969 . S
O380 C390 1.258 . S
C381 O378 1.267 . S
C381 O382 1.228 . S
O382 C381 1.228 . S
O383 Zn372 2.024 . S
O383 C374 1.058 . S
C384 O385 1.228 . S
C384 O386 1.267 . S
O385 C384 1.228 . S
O386 Zn373 1.969 . S
O386 C384 1.267 . S
O387 Zn373 1.965 . S
O387 C391 1.260 1_655 S
O388 Zn372 1.969 . S
O388 C391 1.258 . S
O389 Zn373 2.024 . S
O389 C376 1.058 . S
C390 O379 1.260 1_655 S
C390 O380 1.258 . S
C391 O387 1.260 1_455 S
C391 O388 1.258 . S
H392 C398 0.930 . S
H393 C402 0.905 1_565 S
H394 C407 0.929 . S
H395 C405 0.929 . S
H396 C400 0.929 . S
H397 C406 0.929 . S
C398 H392 0.930 . S
C398 C399 1.367 . S
C398 C406 1.378 . S
C399 C398 1.367 . S
C399 C407 1.433 . S
C400 H396 0.929 . S
C400 C402 1.378 . S
C400 C404 1.350 . S
C401 C404 1.463 . S
C401 C406 1.350 . S
C401 N409 1.427 . S
C402 H393 0.905 1_545 S
C402 C400 1.378 . S
C402 C403 1.367 . S
C403 C402 1.367 . S
C403 C405 1.433 . S
C404 C400 1.350 . S
C404 C401 1.463 . S
C404 N408 1.427 . S
C405 H395 0.929 . S
C405 C403 1.433 . S
C405 N408 1.384 . S
C406 H397 0.929 . S
C406 C398 1.378 . S
C406 C401 1.350 . S
C407 H394 0.929 . S
C407 C399 1.433 . S
C407 N409 1.384 . S
N408 C404 1.427 . S
N408 C405 1.384 . S
N409 C401 1.427 . S
N409 C407 1.384 . S
H410 C416 0.930 . S
H411 C420 0.930 . S
H412 C425 0.929 . S
H413 C423 0.929 . S
H414 C418 0.929 . S
H415 C424 0.929 . S
C416 H410 0.930 . S
C416 C417 1.367 . S
C416 C424 1.378 . S
C417 C416 1.367 . S
C417 C425 1.433 . S
C418 H414 0.929 . S
C418 C420 1.378 . S
C418 C422 1.350 . S
C419 C422 1.463 . S
C419 C424 1.350 . S
C419 N427 1.427 . S
C420 H411 0.930 . S
C420 C418 1.378 . S
C420 C421 1.367 . S
C421 C420 1.367 . S
C421 C423 1.433 . S
C422 C418 1.350 . S
C422 C419 1.463 . S
C422 N426 1.427 . S
C423 H413 0.929 . S
C423 C421 1.433 . S
C423 N426 1.384 . S
C424 H415 0.929 . S
C424 C416 1.378 . S
C424 C419 1.350 . S
C425 H412 0.929 . S
C425 C417 1.433 . S
C425 N427 1.384 . S
N426 C422 1.427 . S
N426 C423 1.384 . S
N427 C419 1.427 . S
N427 C425 1.384 . S
H428 C434 0.930 . S
H429 C438 0.930 . S
H430 C443 0.929 . S
H431 C441 0.929 . S
H432 C436 0.929 . S
H433 C442 0.929 . S
C434 H428 0.930 . S
C434 C435 1.367 . S
C434 C442 1.378 . S
C435 C434 1.367 . S
C435 C443 1.433 . S
C436 H432 0.929 . S
C436 C438 1.378 . S
C436 C440 1.350 . S
C437 C440 1.463 . S
C437 C442 1.350 . S
C437 N445 1.427 . S
C438 H429 0.930 . S
C438 C436 1.378 . S
C438 C439 1.367 . S
C439 C438 1.367 . S
C439 C441 1.433 . S
C440 C436 1.350 . S
C440 C437 1.463 . S
C440 N444 1.427 . S
C441 H431 0.929 . S
C441 C439 1.433 . S
C441 N444 1.384 . S
C442 H433 0.929 . S
C442 C434 1.378 . S
C442 C437 1.350 . S
C443 H430 0.929 . S
C443 C435 1.433 . S
C443 N445 1.384 . S
N444 C440 1.427 . S
N444 C441 1.384 . S
N445 C437 1.427 . S
N445 C443 1.384 . S
H446 C452 0.930 . S
H447 C456 0.930 . S
H448 C461 0.929 . S
H449 C459 0.929 . S
H450 C454 0.929 . S
H451 C460 0.929 . S
C452 H446 0.930 . S
C452 C453 1.367 1_455 S
C452 C460 1.378 . S
C453 C452 1.367 1_655 S
C453 C461 1.433 . S
C454 H450 0.929 . S
C454 C456 1.378 . S
C454 C458 1.350 . S
C455 C458 1.463 . S
C455 C460 1.350 1_655 S
C455 N463 1.427 . S
C456 H447 0.930 . S
C456 C454 1.378 . S
C456 C457 1.367 . S
C457 C456 1.367 . S
C457 C459 1.433 1_655 S
C458 C454 1.350 . S
C458 C455 1.463 . S
C458 N462 1.427 1_655 S
C459 H449 0.929 . S
C459 C457 1.433 1_455 S
C459 N462 1.384 . S
C460 H451 0.929 . S
C460 C452 1.378 . S
C460 C455 1.350 1_455 S
C461 H448 0.929 . S
C461 C453 1.433 . S
C461 N463 1.384 . S
N462 C458 1.427 1_455 S
N462 C459 1.384 . S
N463 C455 1.427 . S
N463 C461 1.384 . S
H464 C470 0.930 . S
H465 C474 0.930 . S
H466 C479 0.929 . S
H467 C477 0.929 . S
H468 C472 0.929 . S
H469 C478 0.929 . S
C470 H464 0.930 . S
C470 C471 1.367 . S
C470 C478 1.378 . S
C471 C470 1.367 . S
C471 C479 1.433 . S
C472 H468 0.929 . S
C472 C474 1.378 . S
C472 C476 1.350 . S
C473 C476 1.463 . S
C473 C478 1.350 . S
C473 N481 1.427 . S
C474 H465 0.930 . S
C474 C472 1.378 . S
C474 C475 1.367 . S
C475 C474 1.367 . S
C475 C477 1.433 . S
C476 C472 1.350 . S
C476 C473 1.463 . S
C476 N480 1.427 . S
C477 H467 0.929 . S
C477 C475 1.433 . S
C477 N480 1.384 . S
C478 H469 0.929 . S
C478 C470 1.378 . S
C478 C473 1.350 . S
C479 H466 0.929 . S
C479 C471 1.433 . S
C479 N481 1.384 . S
N480 C476 1.427 . S
N480 C477 1.384 . S
N481 C473 1.427 . S
N481 C479 1.384 . S
H482 C488 0.930 . S
H483 C492 0.930 . S
H484 C497 0.929 . S
H485 C495 0.929 . S
H486 C490 0.929 . S
H487 C496 0.929 . S
C488 H482 0.930 . S
C488 C489 1.367 . S
C488 C496 1.378 . S
C489 C488 1.367 . S
C489 C497 1.433 . S
C490 H486 0.929 . S
C490 C492 1.378 . S
C490 C494 1.350 . S
C491 C494 1.463 . S
C491 C496 1.350 . S
C491 N499 1.427 . S
C492 H483 0.930 . S
C492 C490 1.378 . S
C492 C493 1.367 . S
C493 C492 1.367 . S
C493 C495 1.433 . S
C494 C490 1.350 . S
C494 C491 1.463 . S
C494 N498 1.427 . S
C495 H485 0.929 . S
C495 C493 1.433 . S
C495 N498 1.384 . S
C496 H487 0.929 . S
C496 C488 1.378 . S
C496 C491 1.350 . S
C497 H484 0.929 . S
C497 C489 1.433 . S
C497 N499 1.384 . S
N498 C494 1.427 . S
N498 C495 1.384 . S
N499 C491 1.427 . S
N499 C497 1.384 . S
H500 C506 0.930 . S
H501 C510 0.930 . S
H502 C515 0.929 . S
H503 C513 0.929 . S
H504 C508 0.929 . S
H505 C514 0.929 . S
C506 H500 0.930 . S
C506 C507 1.367 . S
C506 C514 1.378 . S
C507 C506 1.367 . S
C507 C515 1.433 . S
C508 H504 0.929 . S
C508 C510 1.378 . S
C508 C512 1.350 . S
C509 C512 1.463 . S
C509 C514 1.350 . S
C509 N517 1.427 . S
C510 H501 0.930 . S
C510 C508 1.378 . S
C510 C511 1.367 . S
C511 C510 1.367 . S
C511 C513 1.433 . S
C512 C508 1.350 . S
C512 C509 1.463 . S
C512 N516 1.427 . S
C513 H503 0.929 . S
C513 C511 1.433 . S
C513 N516 1.384 . S
C514 H505 0.929 . S
C514 C506 1.378 . S
C514 C509 1.350 . S
C515 H502 0.929 . S
C515 C507 1.433 . S
C515 N517 1.384 . S
N516 C512 1.427 . S
N516 C513 1.384 . S
N517 C509 1.427 . S
N517 C515 1.384 . S
H518 C524 0.930 . S
H519 C528 0.930 . S
H520 C533 0.929 . S
H521 C531 0.929 . S
H522 C526 0.929 . S
H523 C532 0.929 . S
C524 H518 0.930 . S
C524 C525 1.380 . S
C524 C532 1.378 . S
C525 C524 1.380 . S
C525 C533 1.421 1_455 S
C526 H522 0.929 . S
C526 C528 1.378 . S
C526 C530 1.350 1_655 S
C527 C530 1.463 . S
C527 C532 1.350 . S
C527 N535 1.427 1_455 S
C528 H519 0.930 . S
C528 C526 1.378 . S
C528 C529 1.367 1_655 S
C529 C528 1.367 1_455 S
C529 C531 1.433 . S
C530 C526 1.350 1_455 S
C530 C527 1.463 . S
C530 N534 1.427 . S
C531 H521 0.929 . S
C531 C529 1.433 . S
C531 N534 1.384 . S
C532 H523 0.929 . S
C532 C524 1.378 . S
C532 C527 1.350 . S
C533 H520 0.929 . S
C533 C525 1.421 1_655 S
C533 N535 1.384 . S
N534 C530 1.427 . S
N534 C531 1.384 . S
N535 C527 1.427 1_655 S
N535 C533 1.384 . S
H536 C542 0.930 . S
H537 C546 0.930 . S
H538 C551 0.929 . S
H539 C549 0.929 . S
H540 C544 0.929 . S
H541 C550 0.929 . S
C542 H536 0.930 . S
C542 C543 1.366 1_655 S
C542 C550 1.378 . S
C543 C542 1.366 1_455 S
C543 C551 1.434 . S
C544 H540 0.929 . S
C544 C546 1.378 . S
C544 C548 1.350 1_455 S
C545 C548 1.463 . S
C545 C550 1.350 . S
C545 N553 1.427 1_655 S
C546 H537 0.930 . S
C546 C544 1.378 . S
C546 C547 1.367 1_455 S
C547 C546 1.367 1_655 S
C547 C549 1.433 . S
C548 C544 1.350 1_655 S
C548 C545 1.463 . S
C548 N552 1.427 . S
C549 H539 0.929 . S
C549 C547 1.433 . S
C549 N552 1.384 . S
C550 H541 0.929 . S
C550 C542 1.378 . S
C550 C545 1.350 . S
C551 H538 0.929 . S
C551 C543 1.434 . S
C551 N553 1.384 . S
N552 C548 1.427 . S
N552 C549 1.384 . S
N553 C545 1.427 1_455 S
N553 C551 1.384 . S
H554 C560 0.930 . S
H555 C564 0.930 . S
H556 C569 0.929 . S
H557 C567 0.929 1_565 S
H558 C562 0.929 . S
H559 C568 0.929 . S
C560 H554 0.930 . S
C560 C561 1.367 . S
C560 C568 1.378 . S
C561 C560 1.367 . S
C561 C569 1.433 . S
C562 H558 0.929 . S
C562 C564 1.378 . S
C562 C566 1.350 . S
C563 C566 1.463 . S
C563 C568 1.350 . S
C563 N571 1.427 . S
C564 H555 0.930 . S
C564 C562 1.378 . S
C564 C565 1.367 . S
C565 C564 1.367 . S
C565 C567 1.433 . S
C566 C562 1.350 . S
C566 C563 1.463 . S
C566 N570 1.427 . S
C567 H557 0.929 1_545 S
C567 C565 1.433 . S
C567 N570 1.384 . S
C568 H559 0.929 . S
C568 C560 1.378 . S
C568 C563 1.350 . S
C569 H556 0.929 . S
C569 C561 1.433 . S
C569 N571 1.384 . S
N570 C566 1.427 . S
N570 C567 1.384 . S
N571 C563 1.427 . S
N571 C569 1.384 . S
H572 C578 0.930 . S
H573 C582 0.930 . S
H574 C587 0.929 . S
H575 C585 0.929 . S
H576 C580 0.929 . S
H577 C586 0.929 . S
C578 H572 0.930 . S
C578 C579 1.367 . S
C578 C586 1.378 . S
C579 C578 1.367 . S
C579 C587 1.433 . S
C580 H576 0.929 . S
C580 C582 1.378 . S
C580 C584 1.350 . S
C581 C584 1.463 . S
C581 C586 1.350 . S
C581 N589 1.427 . S
C582 H573 0.930 . S
C582 C580 1.378 . S
C582 C583 1.367 . S
C583 C582 1.367 . S
C583 C585 1.433 . S
C584 C580 1.350 . S
C584 C581 1.463 . S
C584 N588 1.427 . S
C585 H575 0.929 . S
C585 C583 1.433 . S
C585 N588 1.384 . S
C586 H577 0.929 . S
C586 C578 1.378 . S
C586 C581 1.350 . S
C587 H574 0.929 . S
C587 C579 1.433 . S
C587 N589 1.384 . S
N588 C584 1.427 . S
N588 C585 1.384 . S
N589 C581 1.427 . S
N589 C587 1.384 . S
H590 C596 0.930 . S
H591 C600 0.930 . S
H592 C605 0.929 . S
H593 C603 0.929 . S
H594 C598 0.929 . S
H595 C604 0.929 . S
C596 H590 0.930 . S
C596 C597 1.367 . S
C596 C604 1.378 . S
C597 C596 1.367 . S
C597 C605 1.433 . S
C598 H594 0.929 . S
C598 C600 1.378 . S
C598 C602 1.350 . S
C599 C602 1.463 . S
C599 C604 1.350 . S
C599 N607 1.427 . S
C600 H591 0.930 . S
C600 C598 1.378 . S
C600 C601 1.367 . S
C601 C600 1.367 . S
C601 C603 1.433 . S
C602 C598 1.350 . S
C602 C599 1.463 . S
C602 N606 1.427 . S
C603 H593 0.929 . S
C603 C601 1.433 . S
C603 N606 1.384 . S
C604 H595 0.929 . S
C604 C596 1.378 . S
C604 C599 1.350 . S
C605 H592 0.929 . S
C605 C597 1.433 . S
C605 N607 1.384 . S
N606 C602 1.427 . S
N606 C603 1.384 . S
N607 C599 1.427 . S
N607 C605 1.384 . S
H608 C614 0.930 . S
H609 C618 0.921 1_655 S
H610 C623 0.929 . S
H611 C621 0.929 . S
H612 C616 0.929 . S
H613 C622 0.929 . S
C614 H608 0.930 . S
C614 C615 1.363 1_455 S
C614 C622 1.378 . S
C615 C614 1.363 1_655 S
C615 C623 1.437 . S
C616 H612 0.929 . S
C616 C618 1.376 1_655 S
C616 C620 1.350 1_655 S
C617 C620 1.463 . S
C617 C622 1.350 . S
C617 N625 1.427 1_455 S
C618 H609 0.921 1_455 S
C618 C616 1.376 1_455 S
C618 C619 1.378 . S
C619 C618 1.378 . S
C619 C621 1.433 . S
C620 C616 1.350 1_455 S
C620 C617 1.463 . S
C620 N624 1.427 . S
C621 H611 0.929 . S
C621 C619 1.433 . S
C621 N624 1.384 . S
C622 H613 0.929 . S
C622 C614 1.378 . S
C622 C617 1.350 . S
C623 H610 0.929 . S
C623 C615 1.437 . S
C623 N625 1.384 . S
N624 C620 1.427 . S
N624 C621 1.384 . S
N625 C617 1.427 1_655 S
N625 C623 1.384 . S
H626 C632 0.930 . S
H627 C636 0.930 . S
H628 C641 0.929 . S
H629 C639 0.929 . S
H630 C634 0.929 . S
H631 C640 0.929 . S
C632 H626 0.930 . S
C632 C633 1.367 . S
C632 C640 1.378 . S
C633 C632 1.367 . S
C633 C641 1.433 . S
C634 H630 0.929 . S
C634 C636 1.378 . S
C634 C638 1.350 . S
C635 C638 1.463 . S
C635 C640 1.350 . S
C635 N643 1.427 . S
C636 H627 0.930 . S
C636 C634 1.378 . S
C636 C637 1.367 . S
C637 C636 1.367 . S
C637 C639 1.433 . S
C638 C634 1.350 . S
C638 C635 1.463 . S
C638 N642 1.427 . S
C639 H629 0.929 . S
C639 C637 1.433 . S
C639 N642 1.384 . S
C640 H631 0.929 . S
C640 C632 1.378 . S
C640 C635 1.350 . S
C641 H628 0.929 . S
C641 C633 1.433 . S
C641 N643 1.384 . S
N642 C638 1.427 . S
N642 C639 1.384 . S
N643 C635 1.427 . S
N643 C641 1.384 . S
H644 C650 0.930 . S
H645 C654 0.930 . S
H646 C659 0.929 . S
H647 C657 0.929 . S
H648 C652 0.929 . S
H649 C658 0.929 . S
C650 H644 0.930 . S
C650 C651 1.367 . S
C650 C658 1.378 . S
C651 C650 1.367 . S
C651 C659 1.433 . S
C652 H648 0.929 . S
C652 C654 1.378 . S
C652 C656 1.350 . S
C653 C656 1.463 . S
C653 C658 1.350 . S
C653 N661 1.427 . S
C654 H645 0.930 . S
C654 C652 1.378 . S
C654 C655 1.367 . S
C655 C654 1.367 . S
C655 C657 1.433 . S
C656 C652 1.350 . S
C656 C653 1.463 . S
C656 N660 1.427 . S
C657 H647 0.929 . S
C657 C655 1.433 . S
C657 N660 1.384 . S
C658 H649 0.929 . S
C658 C650 1.378 . S
C658 C653 1.350 . S
C659 H646 0.929 . S
C659 C651 1.433 . S
C659 N661 1.384 . S
N660 C656 1.427 . S
N660 C657 1.384 . S
N661 C653 1.427 . S
N661 C659 1.384 . S
H662 C668 0.930 . S
H663 C672 0.930 . S
H664 C677 0.929 . S
H665 C675 0.929 . S
H666 C670 0.929 . S
H667 C676 0.929 . S
C668 H662 0.930 . S
C668 C669 1.367 . S
C668 C676 1.378 . S
C669 C668 1.367 . S
C669 C677 1.433 . S
C670 H666 0.929 . S
C670 C672 1.378 . S
C670 C674 1.350 . S
C671 C674 1.463 . S
C671 C676 1.350 . S
C671 N679 1.427 . S
C672 H663 0.930 . S
C672 C670 1.378 . S
C672 C673 1.367 . S
C673 C672 1.367 . S
C673 C675 1.433 . S
C674 C670 1.350 . S
C674 C671 1.463 . S
C674 N678 1.427 . S
C675 H665 0.929 . S
C675 C673 1.433 . S
C675 N678 1.384 . S
C676 H667 0.929 . S
C676 C668 1.378 . S
C676 C671 1.350 . S
C677 H664 0.929 . S
C677 C669 1.433 . S
C677 N679 1.384 . S
N678 C674 1.427 . S
N678 C675 1.384 . S
N679 C671 1.427 . S
N679 C677 1.384 . S
H680 C686 0.930 . S
H681 C690 0.930 . S
H682 C695 0.927 1_655 S
H683 C693 0.929 . S
H684 C688 0.929 . S
H685 C694 0.929 . S
C686 H680 0.930 . S
C686 C687 1.367 . S
C686 C694 1.378 . S
C687 C686 1.367 . S
C687 C695 1.435 . S
C688 H684 0.929 . S
C688 C690 1.378 . S
C688 C692 1.350 . S
C689 C692 1.463 . S
C689 C694 1.350 . S
C689 N697 1.427 . S
C690 H681 0.930 . S
C690 C688 1.378 . S
C690 C691 1.367 . S
C691 C690 1.367 . S
C691 C693 1.433 . S
C692 C688 1.350 . S
C692 C689 1.463 . S
C692 N696 1.427 . S
C693 H683 0.929 . S
C693 C691 1.433 . S
C693 N696 1.384 . S
C694 H685 0.929 . S
C694 C686 1.378 . S
C694 C689 1.350 . S
C695 H682 0.927 1_455 S
C695 C687 1.435 . S
C695 N697 1.387 . S
N696 C692 1.427 . S
N696 C693 1.384 . S
N697 C689 1.427 . S
N697 C695 1.387 . S
H698 C704 0.930 . S
H699 C708 0.930 . S
H700 C713 0.929 . S
H701 C711 0.929 . S
H702 C706 0.929 . S
H703 C712 0.929 . S
C704 H698 0.930 . S
C704 C705 1.367 . S
C704 C712 1.378 . S
C705 C704 1.367 . S
C705 C713 1.433 . S
C706 H702 0.929 . S
C706 C708 1.378 . S
C706 C710 1.350 . S
C707 C710 1.463 . S
C707 C712 1.350 . S
C707 N715 1.427 . S
C708 H699 0.930 . S
C708 C706 1.378 . S
C708 C709 1.367 . S
C709 C708 1.367 . S
C709 C711 1.433 . S
C710 C706 1.350 . S
C710 C707 1.463 . S
C710 N714 1.427 . S
C711 H701 0.929 . S
C711 C709 1.433 . S
C711 N714 1.384 . S
C712 H703 0.929 . S
C712 C704 1.378 . S
C712 C707 1.350 . S
C713 H700 0.929 . S
C713 C705 1.433 . S
C713 N715 1.384 . S
N714 C710 1.427 . S
N714 C711 1.384 . S
N715 C707 1.427 . S
N715 C713 1.384 . S
H716 C722 0.930 . S
H717 C726 0.930 . S
H718 C731 0.929 . S
H719 C729 0.929 . S
H720 C724 0.929 . S
H721 C730 0.929 . S
C722 H716 0.930 . S
C722 C723 1.367 . S
C722 C730 1.378 . S
C723 C722 1.367 . S
C723 C731 1.433 . S
C724 H720 0.929 . S
C724 C726 1.378 . S
C724 C728 1.350 . S
C725 C728 1.463 . S
C725 C730 1.350 . S
C725 N733 1.427 . S
C726 H717 0.930 . S
C726 C724 1.378 . S
C726 C727 1.367 . S
C727 C726 1.367 . S
C727 C729 1.433 . S
C728 C724 1.350 . S
C728 C725 1.463 . S
C728 N732 1.427 . S
C729 H719 0.929 . S
C729 C727 1.433 . S
C729 N732 1.384 . S
C730 H721 0.929 . S
C730 C722 1.378 . S
C730 C725 1.350 . S
C731 H718 0.929 . S
C731 C723 1.433 . S
C731 N733 1.384 . S
N732 C728 1.427 . S
N732 C729 1.384 . S
N733 C725 1.427 . S
N733 C731 1.384 . S
H734 C740 0.930 . S
H735 C744 0.930 . S
H736 C749 0.929 . S
H737 C747 0.929 . S
H738 C742 0.929 . S
H739 C748 0.929 . S
C740 H734 0.930 . S
C740 C741 1.367 . S
C740 C748 1.378 . S
C741 C740 1.367 . S
C741 C749 1.433 . S
C742 H738 0.929 . S
C742 C744 1.378 . S
C742 C746 1.350 . S
C743 C746 1.463 . S
C743 C748 1.350 . S
C743 N751 1.427 . S
C744 H735 0.930 . S
C744 C742 1.378 . S
C744 C745 1.367 . S
C745 C744 1.367 . S
C745 C747 1.433 . S
C746 C742 1.350 . S
C746 C743 1.463 . S
C746 N750 1.427 . S
C747 H737 0.929 . S
C747 C745 1.433 . S
C747 N750 1.384 . S
C748 H739 0.929 . S
C748 C740 1.378 . S
C748 C743 1.350 . S
C749 H736 0.929 . S
C749 C741 1.433 . S
C749 N751 1.384 . S
N750 C746 1.427 . S
N750 C747 1.384 . S
N751 C743 1.427 . S
N751 C749 1.384 . S
H752 C758 0.927 1_455 S
H753 C762 0.930 . S
H754 C767 0.929 . S
H755 C765 0.929 . S
H756 C760 0.929 . S
H757 C766 0.929 . S
C758 H752 0.927 1_655 S
C758 C759 1.368 . S
C758 C766 1.379 . S
C759 C758 1.368 . S
C759 C767 1.433 . S
C760 H756 0.929 . S
C760 C762 1.378 . S
C760 C764 1.350 . S
C761 C764 1.463 . S
C761 C766 1.350 . S
C761 N769 1.427 . S
C762 H753 0.930 . S
C762 C760 1.378 . S
C762 C763 1.367 . S
C763 C762 1.367 . S
C763 C765 1.433 . S
C764 C760 1.350 . S
C764 C761 1.463 . S
C764 N768 1.427 . S
C765 H755 0.929 . S
C765 C763 1.433 . S
C765 N768 1.384 . S
C766 H757 0.929 . S
C766 C758 1.379 . S
C766 C761 1.350 . S
C767 H754 0.929 . S
C767 C759 1.433 . S
C767 N769 1.384 . S
N768 C764 1.427 . S
N768 C765 1.384 . S
N769 C761 1.427 . S
N769 C767 1.384 . S
H770 C776 0.930 . S
H771 C780 0.930 1_545 S
H772 C785 0.929 . S
H773 C783 0.929 . S
H774 C778 0.929 . S
H775 C784 0.929 . S
C776 H770 0.930 . S
C776 C777 1.367 . S
C776 C784 1.378 . S
C777 C776 1.367 . S
C777 C785 1.433 . S
C778 H774 0.929 . S
C778 C780 1.378 . S
C778 C782 1.350 . S
C779 C782 1.463 . S
C779 C784 1.350 . S
C779 N787 1.427 . S
C780 H771 0.930 1_565 S
C780 C778 1.378 . S
C780 C781 1.367 . S
C781 C780 1.367 . S
C781 C783 1.433 . S
C782 C778 1.350 . S
C782 C779 1.463 . S
C782 N786 1.427 . S
C783 H773 0.929 . S
C783 C781 1.433 . S
C783 N786 1.384 . S
C784 H775 0.929 . S
C784 C776 1.378 . S
C784 C779 1.350 . S
C785 H772 0.929 . S
C785 C777 1.433 . S
C785 N787 1.384 . S
N786 C782 1.427 . S
N786 C783 1.384 . S
N787 C779 1.427 . S
N787 C785 1.384 . S
H788 C794 0.930 . S
H789 C798 0.930 . S
H790 C803 0.929 . S
H791 C801 0.929 . S
H792 C796 0.929 . S
H793 C802 0.929 . S
C794 H788 0.930 . S
C794 C795 1.367 . S
C794 C802 1.378 . S
C795 C794 1.367 . S
C795 C803 1.433 . S
C796 H792 0.929 . S
C796 C798 1.378 . S
C796 C800 1.350 . S
C797 C800 1.463 . S
C797 C802 1.350 . S
C797 N805 1.427 . S
C798 H789 0.930 . S
C798 C796 1.378 . S
C798 C799 1.367 . S
C799 C798 1.367 . S
C799 C801 1.433 . S
C800 C796 1.350 . S
C800 C797 1.463 . S
C800 N804 1.427 . S
C801 H791 0.929 . S
C801 C799 1.433 . S
C801 N804 1.384 . S
C802 H793 0.929 . S
C802 C794 1.378 . S
C802 C797 1.350 . S
C803 H790 0.929 . S
C803 C795 1.433 . S
C803 N805 1.384 . S
N804 C800 1.427 . S
N804 C801 1.384 . S
N805 C797 1.427 . S
N805 C803 1.384 . S
H806 C812 0.930 . S
H807 C816 0.930 . S
H808 C821 0.929 . S
H809 C819 0.929 . S
H810 C814 0.929 . S
H811 C820 0.929 . S
C812 H806 0.930 . S
C812 C813 1.367 . S
C812 C820 1.378 . S
C813 C812 1.367 . S
C813 C821 1.433 . S
C814 H810 0.929 . S
C814 C816 1.378 . S
C814 C818 1.350 . S
C815 C818 1.463 . S
C815 C820 1.350 . S
C815 N823 1.427 . S
C816 H807 0.930 . S
C816 C814 1.378 . S
C816 C817 1.367 . S
C817 C816 1.367 . S
C817 C819 1.433 . S
C818 C814 1.350 . S
C818 C815 1.463 . S
C818 N822 1.427 . S
C819 H809 0.929 . S
C819 C817 1.433 . S
C819 N822 1.384 . S
C820 H811 0.929 . S
C820 C812 1.378 . S
C820 C815 1.350 . S
C821 H808 0.929 . S
C821 C813 1.433 . S
C821 N823 1.384 . S
N822 C818 1.427 . S
N822 C819 1.384 . S
N823 C815 1.427 . S
N823 C821 1.384 . S
C399 C255 1.827 . S
C403 C330 1.866 . S
C421 C350 1.564 . S
C417 C294 1.569 . S
C439 C370 1.835 . S
C435 C177 1.783 . S
C457 C390 1.558 . S
C453 C216 1.577 . S
C475 C331 1.867 1_565 S
C471 C99 1.843 . S
C489 C138 1.593 . S
C493 C351 1.582 . S
C507 C21 1.798 . S
C511 C371 1.833 . S
C525 C60 1.563 1_455 S
C529 C391 1.547 . S
C547 C321 0.631 . S
C543 C196 0.597 1_455 S
C565 C341 0.788 . S
C561 C235 0.803 . S
C583 C361 0.670 . S
C579 C289 0.660 . S
C597 C157 0.815 . S
C601 C381 0.804 . S
C615 C40 0.579 . S
C619 C324 0.607 . S
C637 C344 0.821 . S
C633 C79 0.831 . S
C655 C364 0.645 . S
C651 C133 0.643 . S
C669 C1 0.782 . S
C673 C384 0.770 . S
C687 C211 2.029 . S
C691 C314 2.003 . S
C705 C250 2.076 . S
C709 C334 2.052 . S
C727 C354 1.944 . S
C723 C274 1.979 . S
C745 C374 2.144 . S
C741 C172 2.156 . S
C759 C55 2.046 1_655 S
C763 C316 2.020 . S
C781 C336 2.055 . S
C777 C94 2.075 . S
C799 C356 1.925 . S
C795 C118 1.967 . S
C813 C16 2.169 . S
C817 C376 2.153 . S
