# Generated by pormake.
# Topology tsx, (6,3)-cn, num edge types: 1
# Building blocks:
#     Node 0, Type 0, BuildingBlock: MIDCAF_clean_sbu_0, # of connection points: 6
#     Node 1, Type 0, BuildingBlock: MIDCAF_clean_sbu_0, # of connection points: 6
#     Node 2, Type 1, BuildingBlock: ESEHIV_clean_linker_0, # of connection points: 3
#     Node 3, Type 1, BuildingBlock: ESEHIV_clean_linker_0, # of connection points: 3
#     Node 4, Type 1, BuildingBlock: ESEHIV_clean_linker_0, # of connection points: 3
#     Node 5, Type 1, BuildingBlock: ESEHIV_clean_linker_0, # of connection points: 3
#     Edge 6, Type (0, 1), BuildingBlock: MIFKUJ_clean_linker_0, # of connection points: 2
#     Edge 7, Type (0, 1), BuildingBlock: MIFKUJ_clean_linker_0, # of connection points: 2
#     Edge 8, Type (0, 1), BuildingBlock: MIFKUJ_clean_linker_0, # of connection points: 2
#     Edge 9, Type (0, 1), BuildingBlock: MIFKUJ_clean_linker_0, # of connection points: 2
#     Edge 10, Type (0, 1), BuildingBlock: MIFKUJ_clean_linker_0, # of connection points: 2
#     Edge 11, Type (0, 1), BuildingBlock: MIFKUJ_clean_linker_0, # of connection points: 2
#     Edge 12, Type (0, 1), BuildingBlock: MIFKUJ_clean_linker_0, # of connection points: 2
#     Edge 13, Type (0, 1), BuildingBlock: MIFKUJ_clean_linker_0, # of connection points: 2
#     Edge 14, Type (0, 1), BuildingBlock: MIFKUJ_clean_linker_0, # of connection points: 2
#     Edge 15, Type (0, 1), BuildingBlock: MIFKUJ_clean_linker_0, # of connection points: 2
#     Edge 16, Type (0, 1), BuildingBlock: MIFKUJ_clean_linker_0, # of connection points: 2
#     Edge 17, Type (0, 1), BuildingBlock: MIFKUJ_clean_linker_0, # of connection points: 2
# Relax obj value: 0.119
# Max RMSD: 0.182
# Mean RMSD: 0.113
data_MOF--net-tsx--node1-MIDCAF_clean_sbu_0--node2-ESEHIV_clean_linker_0--edge1-MIFKUJ_clean_linker_0
_symmetry_space_group_name_H-M    P1
_symmetry_Int_Tables_number       1
_symmetry_cell_setting            triclinic
loop_
_symmetry_equiv_pos_as_xyz
'x, y, z'
_cell_length_a     24.161425
_cell_length_b     24.931765
_cell_length_c     47.376633
_cell_angle_alpha  90.721944
_cell_angle_beta   94.0803
_cell_angle_gamma 90.071931
loop_
_atom_site_label
_atom_site_type_symbol
_atom_site_fract_x
_atom_site_fract_y
_atom_site_fract_z
_atom_type_partial_charge
Zn0 Zn 0.9697 0.01028 0.97463 0.0
Zn1 Zn 0.13944 0.00992 0.05088 0.0
Zn2 Zn 0.05342 0.01071 0.01334 0.0
C3 C 0.11396 0.11718 0.04122 0.0
C4 C 0.17394 0.95622 0.00404 0.0
O5 O 0.98321 0.96571 0.02998 0.0
O6 O 0.91491 0.97378 0.99663 0.0
C7 C 0.99424 0.11739 0.98728 0.0
O8 O 0.07736 0.09526 0.02356 0.0
O9 O 0.14597 0.0884 0.05682 0.0
O10 O 0.19354 0.97328 0.02788 0.0
O11 O 0.12312 0.96621 0.99554 0.0
O12 O 0.96405 0.08899 0.97014 0.0
O13 O 0.02945 0.09515 0.00517 0.0
O14 O 0.08038 0.97226 0.9741 0.0
O15 O 0.0044 0.96837 0.94512 0.0
C16 C 0.05531 0.95863 0.95016 0.0
O17 O 0.02642 0.97108 0.05163 0.0
O18 O 0.10346 0.96837 0.07975 0.0
C19 C 0.93274 0.95621 0.02042 0.0
C20 C 0.05236 0.95821 0.07529 0.0
Zn21 Zn 0.6259 0.53324 0.55266 0.0
Zn22 Zn 0.4371 0.5156 0.49085 0.0
Zn23 Zn 0.53211 0.52505 0.52054 0.0
C24 C 0.51965 0.47796 0.45697 0.0
C25 C 0.45008 0.62429 0.50385 0.0
O26 O 0.52032 0.48584 0.56159 0.0
O27 O 0.60136 0.49545 0.58597 0.0
C28 C 0.65028 0.47457 0.50459 0.0
O29 O 0.55057 0.4881 0.47969 0.0
O30 O 0.46823 0.48749 0.45605 0.0
O31 O 0.4143 0.59137 0.49345 0.0
O32 O 0.49817 0.60772 0.51362 0.0
O33 O 0.67358 0.49363 0.52723 0.0
O34 O 0.59821 0.48318 0.49834 0.0
O35 O 0.55181 0.61205 0.52663 0.0
O36 O 0.62986 0.61239 0.55418 0.0
C37 C 0.59188 0.63758 0.54036 0.0
O38 O 0.47461 0.47221 0.54298 0.0
O39 O 0.39916 0.46465 0.51388 0.0
C40 C 0.55185 0.47886 0.5844 0.0
C41 C 0.42589 0.45218 0.53665 0.0
H42 H 0.94587 0.05933 0.3589 0.0
H43 H 0.07827 0.9444 0.36642 0.0
H44 H 0.04777 0.04834 0.43679 0.0
C45 C 0.97926 0.04002 0.37141 0.0
C46 C 0.99204 0.05761 0.39941 0.0
C47 C 0.01 0.99924 0.35917 0.0
C48 C 0.05446 0.97625 0.37547 0.0
C49 C 0.06897 0.994 0.40334 0.0
C50 C 0.03771 0.03513 0.41515 0.0
H51 H 0.96955 0.94348 0.65022 0.0
H52 H 0.12934 0.01854 0.65998 0.0
H53 H 0.03115 0.0303 0.58073 0.0
C54 C 1.00164 0.96696 0.64127 0.0
C55 C 0.99428 0.98493 0.61321 0.0
C56 C 0.05059 0.97831 0.65791 0.0
C57 C 0.0926 0.00801 0.64655 0.0
C58 C 0.08587 0.02753 0.61885 0.0
C59 C 0.03674 0.01533 0.60212 0.0
H60 H 0.47421 0.53557 0.86889 0.0
H61 H 0.60352 0.41774 0.87927 0.0
H62 H 0.58445 0.53814 0.94392 0.0
C63 C 0.50852 0.51777 0.88142 0.0
C64 C 0.52479 0.54022 0.90802 0.0
C65 C 0.53686 0.47376 0.87066 0.0
C66 C 0.58221 0.45249 0.88708 0.0
C67 C 0.60061 0.4758 0.91335 0.0
C68 C 0.57072 0.51914 0.92394 0.0
H69 H 0.45654 0.47689 0.15846 0.0
H70 H 0.585 0.59676 0.16552 0.0
H71 H 0.49388 0.56802 0.08546 0.0
C72 C 0.48099 0.50722 0.14882 0.0
C73 C 0.46999 0.51918 0.12001 0.0
C74 C 0.52195 0.53549 0.16548 0.0
C75 C 0.55238 0.57556 0.15299 0.0
C76 C 0.54273 0.58717 0.1242 0.0
C77 C 0.50134 0.55909 0.10774 0.0
H78 H 0.1382 0.17834 0.08785 0.0
H79 H 0.17785 0.26829 0.08953 0.0
H80 H 0.15394 0.27736 0.99858 0.0
H81 H 0.11346 0.18663 0.99689 0.0
H82 H 0.26256 0.29225 0.0183 0.0
H83 H 0.09057 0.36568 0.03701 0.0
H84 H 1.00103 0.37404 0.05846 0.0
H85 H 0.0861 0.40115 0.14007 0.0
H86 H 0.1762 0.39193 0.11924 0.0
H87 H 0.3843 0.56104 0.08635 0.0
H88 H 0.30709 0.51174 0.06111 0.0
H89 H 0.37875 0.36234 0.09039 0.0
H90 H 0.45521 0.4112 0.11575 0.0
H91 H 0.23117 0.44109 0.08578 0.0
H92 H 0.36229 0.27243 0.03681 0.0
H93 H 0.45221 0.26382 0.0156 0.0
H94 H 0.44529 0.42962 0.99221 0.0
H95 H 0.355 0.43909 0.01293 0.0
C96 C 0.13961 0.20024 0.06829 0.0
C97 C 0.12304 0.17565 0.04225 0.0
C98 C 0.16213 0.25175 0.06926 0.0
C99 C 0.169 0.27955 0.04418 0.0
C100 C 0.14891 0.25657 0.01818 0.0
C101 C 0.12548 0.20502 0.01725 0.0
C102 C 0.20467 0.32816 0.04545 0.0
C103 C 0.25521 0.3254 0.03259 0.0
C104 C 0.19458 0.37197 0.06368 0.0
C105 C 0.14039 0.37824 0.07644 0.0
C106 C 0.09029 0.37329 0.05953 0.0
C107 C 0.03937 0.37813 0.0716 0.0
C108 C 0.03789 0.38823 0.1006 0.0
C109 C 0.08733 0.39348 0.11758 0.0
C110 C 0.13838 0.38854 0.10563 0.0
C111 C 0.38372 0.51764 0.08706 0.0
C112 C 0.42555 0.48982 0.10301 0.0
C113 C 0.33959 0.48964 0.07278 0.0
C114 C 0.33745 0.43345 0.07376 0.0
C115 C 0.3799 0.40569 0.08915 0.0
C116 C 0.42338 0.43358 0.10373 0.0
C117 C 0.28992 0.40293 0.06003 0.0
C118 C 0.23753 0.40899 0.0707 0.0
C119 C 0.29807 0.36231 0.03967 0.0
C120 C 0.35184 0.35648 0.02653 0.0
C121 C 0.37969 0.30695 0.02694 0.0
C122 C 0.43082 0.30195 0.01506 0.0
C123 C 0.45449 0.34615 0.0026 0.0
C124 C 0.42699 0.39543 0.00193 0.0
C125 C 0.37587 0.40065 0.01378 0.0
H126 H 0.49412 0.3422 0.99347 0.0
H127 H 0.99843 0.39194 0.10991 0.0
H128 H 0.28495 0.96439 0.00028 0.0
H129 H 0.34627 0.89848 0.98032 0.0
H130 H 0.20424 0.80103 0.95271 0.0
H131 H 0.14266 0.86829 0.97171 0.0
H132 H 0.36568 0.80469 0.99722 0.0
H133 H 0.23474 0.71407 0.90064 0.0
H134 H 0.17014 0.74182 0.86084 0.0
H135 H 0.23514 0.90219 0.8678 0.0
H136 H 0.3002 0.87537 0.90743 0.0
H137 H 0.47686 0.55154 0.95819 0.0
H138 H 0.41909 0.6262 0.97301 0.0
H139 H 0.44822 0.70934 0.89601 0.0
H140 H 0.5041 0.63403 0.88084 0.0
H141 H 0.34494 0.71386 0.90341 0.0
H142 H 0.50979 0.74935 0.96307 0.0
H143 H 0.58684 0.72923 0.99832 0.0
H144 H 0.47034 0.69385 0.05988 0.0
H145 H 0.39249 0.71342 0.02491 0.0
C146 C 0.2668 0.92952 0.98928 0.0
C147 C 0.20913 0.92145 0.98741 0.0
C148 C 0.30187 0.89167 0.97806 0.0
C149 C 0.28013 0.84446 0.96511 0.0
C150 C 0.22218 0.8374 0.96217 0.0
C151 C 0.18692 0.8759 0.97299 0.0
C152 C 0.31846 0.80125 0.95679 0.0
C153 C 0.36113 0.78505 0.97663 0.0
C154 C 0.31308 0.77551 0.92995 0.0
C155 C 0.27202 0.79278 0.90714 0.0
C156 C 0.23506 0.7553 0.89371 0.0
C157 C 0.19841 0.77084 0.87116 0.0
C158 C 0.19863 0.82366 0.86171 0.0
C159 C 0.23492 0.86128 0.87508 0.0
C160 C 0.27156 0.84599 0.89768 0.0
C161 C 0.47131 0.58615 0.94469 0.0
C162 C 0.49458 0.58719 0.91839 0.0
C163 C 0.43847 0.62881 0.95315 0.0
C164 C 0.42946 0.67363 0.93568 0.0
C165 C 0.45418 0.67512 0.90976 0.0
C166 C 0.48619 0.63224 0.90114 0.0
C167 C 0.39238 0.71798 0.94364 0.0
C168 C 0.34952 0.7338 0.92394 0.0
C169 C 0.39869 0.7445 0.97025 0.0
C170 C 0.44532 0.73244 0.9913 0.0
C171 C 0.50059 0.73694 0.98406 0.0
C172 C 0.54439 0.72576 0.004 0.0
C173 C 0.53342 0.71027 0.03129 0.0
C174 C 0.47869 0.70591 0.03872 0.0
C175 C 0.43472 0.71713 0.01887 0.0
H176 H 0.56732 0.70182 0.04669 0.0
H177 H 0.17075 0.83527 0.84398 0.0
H178 H 0.95966 0.87148 0.0551 0.0
H179 H 0.89492 0.80833 0.07478 0.0
H180 H 0.75669 0.90008 0.03877 0.0
H181 H 0.82084 0.96334 0.01948 0.0
H182 H 0.80865 0.81649 0.11056 0.0
H183 H 0.66072 0.81076 0.00833 0.0
H184 H 0.66499 0.82279 0.95694 0.0
H185 H 0.83771 0.78084 0.96341 0.0
H186 H 0.83421 0.76752 0.01472 0.0
H187 H 0.55707 0.69186 0.13962 0.0
H188 H 0.62486 0.75498 0.12282 0.0
H189 H 0.67906 0.63378 0.06506 0.0
H190 H 0.60945 0.5715 0.08104 0.0
H191 H 0.67639 0.72589 0.04037 0.0
H192 H 0.75068 0.66277 0.1303 0.0
H193 H 0.75058 0.64443 0.18133 0.0
H194 H 0.73479 0.81281 0.19908 0.0
H195 H 0.73384 0.8321 0.14811 0.0
C196 C 0.91551 0.8789 0.0521 0.0
C197 C 0.89524 0.92241 0.03592 0.0
C198 C 0.87861 0.84269 0.06318 0.0
C199 C 0.82108 0.84915 0.05782 0.0
C200 C 0.80093 0.89395 0.04278 0.0
C201 C 0.83763 0.93009 0.03184 0.0
C202 C 0.7818 0.80781 0.06646 0.0
C203 C 0.77973 0.79658 0.09527 0.0
C204 C 0.74484 0.78117 0.04637 0.0
C205 C 0.74732 0.7888 0.01546 0.0
C206 C 0.69956 0.80394 0.99878 0.0
C207 C 0.70184 0.81096 0.96965 0.0
C208 C 0.75165 0.80281 0.95693 0.0
C209 C 0.79922 0.78738 0.9733 0.0
C210 C 0.79711 0.78014 0.00242 0.0
C211 C 0.58297 0.67921 0.12302 0.0
C212 C 0.5783 0.6271 0.11153 0.0
C213 C 0.622 0.71497 0.11365 0.0
C214 C 0.65803 0.69869 0.09319 0.0
C215 C 0.65198 0.64712 0.081 0.0
C216 C 0.61214 0.61169 0.08999 0.0
C217 C 0.70221 0.73525 0.08462 0.0
C218 C 0.70524 0.74565 0.05575 0.0
C219 C 0.74068 0.76031 0.10464 0.0
C220 C 0.74172 0.74881 0.13534 0.0
C221 C 0.74681 0.69585 0.14507 0.0
C222 C 0.74697 0.68529 0.17398 0.0
C223 C 0.74257 0.72741 0.19343 0.0
C224 C 0.73814 0.78021 0.18399 0.0
C225 C 0.73781 0.79098 0.15509 0.0
H226 H 0.7427 0.71916 0.2158 0.0
H227 H 0.75335 0.80832 0.93439 0.0
H228 H 0.97568 0.18253 0.94255 0.0
H229 H 0.93023 0.26969 0.94284 0.0
H230 H 0.9386 0.26919 0.03411 0.0
H231 H 0.98542 0.18164 0.03384 0.0
H232 H 0.83094 0.27237 0.00853 0.0
H233 H 0.99672 0.37101 0.00372 0.0
H234 H 0.08874 0.39321 0.98753 0.0
H235 H 0.01596 0.41854 0.9035 0.0
H236 H 0.92373 0.39558 0.91893 0.0
H237 H 0.62397 0.46632 0.97099 0.0
H238 H 0.70866 0.43131 0.99548 0.0
H239 H 0.77814 0.40413 0.9151 0.0
H240 H 0.69596 0.44251 0.89078 0.0
H241 H 0.85714 0.4347 0.95152 0.0
H242 H 0.70565 0.30404 0.95201 0.0
H243 H 0.61278 0.27476 0.96419 0.0
H244 H 0.65907 0.30275 0.05235 0.0
H245 H 0.75206 0.33278 0.0406 0.0
C246 C 0.96993 0.20206 0.96269 0.0
C247 C 0.98362 0.17547 0.98814 0.0
C248 C 0.94409 0.25196 0.96287 0.0
C249 C 0.93082 0.27586 0.9885 0.0
C250 C 0.94863 0.25143 0.01413 0.0
C251 C 0.97557 0.20168 0.01396 0.0
C252 C 0.88976 0.32006 0.9876 0.0
C253 C 0.83714 0.3089 0.99692 0.0
C254 C 0.89764 0.36706 0.97198 0.0
C255 C 0.9531 0.38157 0.96256 0.0
C256 C 1.00031 0.38107 0.98176 0.0
C257 C 0.05254 0.39378 0.97272 0.0
C258 C 0.05814 0.4073 0.94455 0.0
C259 C 0.01153 0.40817 0.92534 0.0
C260 C 0.95923 0.39541 0.93425 0.0
C261 C 0.65771 0.45386 0.95856 0.0
C262 C 0.65249 0.45629 0.9288 0.0
C263 C 0.70602 0.43346 0.97261 0.0
C264 C 0.74955 0.41412 0.95715 0.0
C265 C 0.74523 0.41859 0.92758 0.0
C266 C 0.69756 0.43969 0.91361 0.0
C267 C 0.79782 0.38519 0.97099 0.0
C268 C 0.85155 0.39931 0.96411 0.0
C269 C 0.79089 0.34014 0.98834 0.0
C270 C 0.73543 0.32127 0.99542 0.0
C271 C 0.69587 0.30416 0.97397 0.0
C272 C 0.64325 0.28744 0.98079 0.0
C273 C 0.62995 0.2871 0.00902 0.0
C274 C 0.66938 0.3032 0.03049 0.0
C275 C 0.72203 0.32006 0.02377 0.0
H276 H 0.58916 0.27425 0.01426 0.0
H277 H 0.09861 0.41711 0.93759 0.0
H278 H 0.61132 0.69176 0.49295 0.0
H279 H 0.66286 0.77652 0.49256 0.0
H280 H 0.64529 0.7973 0.58193 0.0
H281 H 0.59526 0.71199 0.58248 0.0
H282 H 0.65434 0.89987 0.54647 0.0
H283 H 0.74409 0.72493 0.57086 0.0
H284 H 0.76026 0.62998 0.55866 0.0
H285 H 0.82033 0.67668 0.4794 0.0
H286 H 0.80359 0.77192 0.49101 0.0
H287 H 0.88793 0.98821 0.62939 0.0
H288 H 0.80475 0.95193 0.60401 0.0
H289 H 0.89854 0.91566 0.53198 0.0
H290 H 0.98276 0.95028 0.55787 0.0
H291 H 0.84689 0.83115 0.54511 0.0
H292 H 0.78711 0.0067 0.52712 0.0
H293 H 0.76665 0.10245 0.53469 0.0
H294 H 0.64942 0.06105 0.59486 0.0
H295 H 0.66947 0.96504 0.58788 0.0
C296 C 0.61569 0.71605 0.51211 0.0
C297 C 0.59923 0.69577 0.53773 0.0
C298 C 0.64531 0.76434 0.5119 0.0
C299 C 0.65817 0.79295 0.53726 0.0
C300 C 0.63542 0.77608 0.56211 0.0
C301 C 0.60679 0.72737 0.56242 0.0
C302 C 0.70545 0.83108 0.53968 0.0
C303 C 0.69655 0.8853 0.54611 0.0
C304 C 0.76033 0.81222 0.53818 0.0
C305 C 0.77214 0.7553 0.53166 0.0
C306 C 0.76051 0.71485 0.55079 0.0
C307 C 0.76975 0.66103 0.54398 0.0
C308 C 0.79118 0.64728 0.51824 0.0
C309 C 0.80364 0.68738 0.49931 0.0
C310 C 0.7943 0.74126 0.50599 0.0
C311 C 0.8908 0.97302 0.60802 0.0
C312 C 0.94221 0.9713 0.59584 0.0
C313 C 0.84288 0.95299 0.59331 0.0
C314 C 0.84499 0.93121 0.56592 0.0
C315 C 0.8957 0.9323 0.55306 0.0
C316 C 0.94382 0.95231 0.56783 0.0
C317 C 0.79652 0.90058 0.5528 0.0
C318 C 0.80506 0.84705 0.54462 0.0
C319 C 0.74151 0.9207 0.55216 0.0
C320 C 0.7301 0.97852 0.55708 0.0
C321 C 0.75736 0.01797 0.54219 0.0
C322 C 0.74571 0.07233 0.54631 0.0
C323 C 0.70685 0.08782 0.56528 0.0
C324 C 0.67952 0.04898 0.58016 0.0
C325 C 0.69091 0.99455 0.57608 0.0
H326 H 0.69786 0.1299 0.56842 0.0
H327 H 0.79822 0.60559 0.51298 0.0
H328 H 0.61244 0.39107 0.47008 0.0
H329 H 0.66884 0.32124 0.44927 0.0
H330 H 0.81787 0.40397 0.48101 0.0
H331 H 0.76196 0.47411 0.50122 0.0
H332 H 0.83082 0.36218 0.42988 0.0
H333 H 0.76408 0.30179 0.51735 0.0
H334 H 0.6946 0.27845 0.55088 0.0
H335 H 0.62371 0.16046 0.49215 0.0
H336 H 0.69226 0.1837 0.45805 0.0
H337 H 0.02496 0.14772 0.43012 0.0
H338 H 0.9656 0.21986 0.44656 0.0
H339 H 0.82038 0.134 0.4123 0.0
H340 H 0.87918 0.06164 0.39642 0.0
H341 H 0.80401 0.17687 0.46345 0.0
H342 H 0.87314 0.23683 0.37635 0.0
H343 H 0.94556 0.25855 0.34414 0.0
H344 H 0.01428 0.37637 0.40362 0.0
H345 H 0.94269 0.3548 0.43638 0.0
C346 C 0.65716 0.39519 0.47184 0.0
C347 C 0.68277 0.43806 0.48729 0.0
C348 C 0.68938 0.3549 0.46027 0.0
C349 C 0.74762 0.35683 0.46408 0.0
C350 C 0.77307 0.40141 0.47793 0.0
C351 C 0.74102 0.44147 0.48951 0.0
C352 C 0.78238 0.31138 0.45515 0.0
C353 C 0.82518 0.32175 0.43739 0.0
C354 C 0.77469 0.25841 0.46468 0.0
C355 C 0.73282 0.24506 0.48497 0.0
C356 C 0.73327 0.27131 0.51144 0.0
C357 C 0.69414 0.258 0.53058 0.0
C358 C 0.65462 0.21815 0.5236 0.0
C359 C 0.65423 0.19145 0.49749 0.0
C360 C 0.6932 0.20469 0.47824 0.0
C361 C 0.98035 0.14398 0.42649 0.0
C362 C 0.95674 0.09932 0.41174 0.0
C363 C 0.94652 0.18537 0.43565 0.0
C364 C 0.88857 0.18271 0.43023 0.0
C365 C 0.86493 0.13711 0.41656 0.0
C366 C 0.89862 0.09594 0.40735 0.0
C367 C 0.85235 0.22773 0.43821 0.0
C368 C 0.80937 0.21727 0.45581 0.0
C369 C 0.86 0.28061 0.42865 0.0
C370 C 0.90289 0.29382 0.40893 0.0
C371 C 0.90395 0.26708 0.38266 0.0
C372 C 0.9448 0.27941 0.36429 0.0
C373 C 0.98458 0.31872 0.37186 0.0
C374 C 0.98349 0.34588 0.3978 0.0
C375 C 0.94276 0.33365 0.41626 0.0
H376 H 0.01618 0.32821 0.35761 0.0
H377 H 0.62443 0.20782 0.53847 0.0
H378 H 0.47739 0.37052 0.5667 0.0
H379 H 0.43134 0.29426 0.58783 0.0
H380 H 0.27191 0.36629 0.56601 0.0
H381 H 0.31749 0.44227 0.54565 0.0
H382 H 0.2715 0.31838 0.61583 0.0
H383 H 0.33216 0.27399 0.52193 0.0
H384 H 0.40366 0.26153 0.48775 0.0
H385 H 0.48542 0.14442 0.54169 0.0
H386 H 0.41464 0.15666 0.57634 0.0
H387 H 0.06848 0.12222 0.59131 0.0
H388 H 0.13775 0.19001 0.58188 0.0
H389 H 0.2682 0.08598 0.61539 0.0
H390 H 0.19907 0.0175 0.62457 0.0
H391 H 0.29676 0.14323 0.56746 0.0
H392 H 0.22699 0.1774 0.65761 0.0
H393 H 0.15478 0.18936 0.69137 0.0
H394 H 0.0909 0.32561 0.64513 0.0
H395 H 0.1622 0.31392 0.6108 0.0
C396 C 0.43266 0.37064 0.56729 0.0
C397 C 0.40088 0.41211 0.55455 0.0
C398 C 0.40638 0.32691 0.57908 0.0
C399 C 0.34808 0.32413 0.57805 0.0
C400 C 0.31685 0.36739 0.56702 0.0
C401 C 0.34293 0.41077 0.5553 0.0
C402 C 0.31843 0.275 0.58606 0.0
C403 C 0.2771 0.2801 0.60527 0.0
C404 C 0.3266 0.22458 0.57284 0.0
C405 C 0.36857 0.2167 0.55184 0.0
C406 C 0.36557 0.24581 0.52655 0.0
C407 C 0.40592 0.23876 0.5071 0.0
C408 C 0.44916 0.20234 0.51259 0.0
C409 C 0.45197 0.1727 0.5375 0.0
C410 C 0.41175 0.17966 0.55704 0.0
C411 C 0.11196 0.11318 0.59603 0.0
C412 C 0.12826 0.06471 0.60892 0.0
C413 C 0.15147 0.15213 0.59086 0.0
C414 C 0.20796 0.14334 0.59845 0.0
C415 C 0.22478 0.0937 0.60962 0.0
C416 C 0.18523 0.05481 0.61498 0.0
C417 C 0.24861 0.18747 0.59637 0.0
C418 C 0.29193 0.18124 0.57841 0.0
C419 C 0.24234 0.23694 0.61074 0.0
C420 C 0.19973 0.24453 0.63152 0.0
C421 C 0.19731 0.20969 0.65452 0.0
C422 C 0.15657 0.21644 0.67378 0.0
C423 C 0.11822 0.25817 0.67037 0.0
C424 C 0.12062 0.2933 0.64774 0.0
C425 C 0.16123 0.28665 0.62839 0.0
H426 H 0.0867 0.26334 0.6853 0.0
H427 H 0.48042 0.19699 0.49753 0.0
H428 H 0.35965 0.6631 0.52665 0.0
H429 H 0.31579 0.74955 0.51722 0.0
H430 H 0.4573 0.79973 0.47343 0.0
H431 H 0.50135 0.71213 0.48284 0.0
H432 H 0.3288 0.85791 0.52204 0.0
H433 H 0.40465 0.85259 0.41149 0.0
H434 H 0.44802 0.79065 0.37847 0.0
H435 H 0.36695 0.65714 0.41458 0.0
H436 H 0.32284 0.71827 0.44746 0.0
H437 H 0.15317 0.0429 0.43652 0.0
H438 H 0.23588 1.00009 0.45962 0.0
H439 H 0.17487 0.84537 0.42978 0.0
H440 H 0.09261 0.88744 0.40712 0.0
H441 H 0.2825 0.86061 0.41835 0.0
H442 H 0.16729 0.88319 0.4984 0.0
H443 H 0.11439 0.93991 0.52994 0.0
H444 H 0.2616 0.03053 0.55457 0.0
H445 H 0.3153 0.97451 0.52294 0.0
C446 C 0.38233 0.69338 0.51595 0.0
C447 C 0.43366 0.6811 0.50535 0.0
C448 C 0.35734 0.74295 0.51068 0.0
C449 C 0.38278 0.781 0.49428 0.0
C450 C 0.43675 0.77086 0.48603 0.0
C451 C 0.46208 0.72101 0.49152 0.0
C452 C 0.34794 0.82492 0.48158 0.0
C453 C 0.31964 0.85948 0.49932 0.0
C454 C 0.33529 0.82679 0.45196 0.0
C455 C 0.36113 0.78984 0.43208 0.0
C456 C 0.39613 0.80999 0.41228 0.0
C457 C 0.42081 0.77503 0.3936 0.0
C458 C 0.41043 0.71992 0.39445 0.0
C459 C 0.37516 0.69971 0.41393 0.0
C460 C 0.35031 0.73448 0.43259 0.0
C461 C 0.15717 0.99969 0.43526 0.0
C462 C 0.11663 0.9686 0.41972 0.0
C463 C 0.20453 0.97535 0.44833 0.0
C464 C 0.21185 0.91957 0.44615 0.0
C465 C 0.17057 0.88854 0.43138 0.0
C466 C 0.12351 0.91267 0.41843 0.0
C467 C 0.26228 0.89243 0.45881 0.0
C468 C 0.29334 0.86094 0.44098 0.0
C469 C 0.27668 0.89293 0.48829 0.0
C470 C 0.2451 0.92511 0.50812 0.0
C471 C 0.18832 0.91529 0.51051 0.0
C472 C 0.15822 0.94727 0.52838 0.0
C473 C 0.18458 0.98892 0.54412 0.0
C474 C 0.24125 0.99831 0.54229 0.0
C475 C 0.27155 0.96641 0.52443 0.0
H476 H 0.16099 0.01394 0.55764 0.0
H477 H 0.42957 0.69295 0.37997 0.0
H478 H 0.94515 0.97837 0.0877 0.0
H479 H 0.90658 0.96472 0.13351 0.0
H480 H 0.057 0.88397 0.16351 0.0
H481 H 0.09393 0.89463 0.11751 0.0
H482 H 0.97635 0.84662 0.19061 0.0
H483 H 0.04146 0.02482 0.16718 0.0
H484 H 0.03994 0.10713 0.13874 0.0
H485 H 0.87005 0.13425 0.156 0.0
H486 H 0.87047 0.05166 0.18427 0.0
H487 H 0.0821 0.96766 0.31985 0.0
H488 H 0.06029 0.9418 0.27057 0.0
H489 H 0.88651 0.96885 0.28005 0.0
H490 H 0.90713 0.99133 0.33014 0.0
H491 H 0.94801 0.02674 0.23291 0.0
H492 H 0.90148 0.85526 0.26935 0.0
H493 H 0.91664 0.7762 0.29965 0.0
H494 H 0.06647 0.73988 0.25975 0.0
H495 H 0.05267 0.81922 0.2295 0.0
C496 C 0.96872 0.95539 0.10363 0.0
C497 C 0.02268 0.93785 0.09915 0.0
C498 C 0.94693 0.94814 0.12992 0.0
C499 C 0.97955 0.92473 0.15225 0.0
C500 C 0.03106 0.90245 0.14676 0.0
C501 C 0.05236 0.90889 0.12046 0.0
C502 C 0.96544 0.93083 0.18215 0.0
C503 C 0.96951 0.88592 0.1998 0.0
C504 C 0.95596 0.98206 0.19424 0.0
C505 C 0.95576 0.03183 0.17748 0.0
C506 C 0.00373 0.04824 0.16477 0.0
C507 C 0.00306 0.0949 0.14869 0.0
C508 C 0.95486 0.1258 0.14548 0.0
C509 C 0.90729 0.11019 0.15843 0.0
C510 C 0.9077 0.06346 0.17447 0.0
C511 C 0.03899 0.96672 0.31189 0.0
C512 C 0.99646 0.98168 0.32923 0.0
C513 C 0.0267 0.95223 0.28359 0.0
C514 C 0.97184 0.95322 0.27185 0.0
C515 C 0.9291 0.96778 0.28887 0.0
C516 C 0.94118 0.98117 0.31741 0.0
C517 C 0.96066 0.94288 0.24122 0.0
C518 C 0.95237 0.98715 0.22354 0.0
C519 C 0.96784 0.89141 0.22926 0.0
C520 C 0.97616 0.8434 0.24726 0.0
C521 C 0.9379 0.83067 0.26719 0.0
C522 C 0.9462 0.78575 0.28432 0.0
C523 C 0.99253 0.75308 0.28165 0.0
C524 C 0.03059 0.76522 0.26179 0.0
C525 C 0.02249 0.81012 0.24461 0.0
H526 H 0.9989 0.71832 0.29495 0.0
H527 H 0.95442 0.16192 0.13303 0.0
H528 H 0.12717 0.01723 0.9226 0.0
H529 H 0.14177 0.00564 0.87243 0.0
H530 H 0.0665 0.84855 0.87309 0.0
H531 H 0.04804 0.86225 0.92281 0.0
H532 H 0.18052 0.95208 0.83285 0.0
H533 H 0.97565 0.83034 0.81802 0.0
H534 H 0.8914 0.8146 0.84337 0.0
H535 H 0.91287 0.96751 0.8855 0.0
H536 H 0.99668 0.98443 0.8601 0.0
H537 H 0.13098 0.91624 0.68425 0.0
H538 H 0.14408 0.89696 0.73495 0.0
H539 H 0.99867 0.99101 0.74978 0.0
H540 H 0.98396 0.00733 0.69905 0.0
H541 H 0.99835 0.91246 0.78186 0.0
H542 H 0.13935 0.03858 0.76047 0.0
H543 H 0.21907 0.07198 0.73601 0.0
H544 H 0.31782 0.93964 0.76751 0.0
H545 H 0.23838 0.90505 0.79185 0.0
C546 C 0.11603 0.9793 0.91228 0.0
C547 C 0.0861 0.9408 0.92625 0.0
C548 C 0.12406 0.97276 0.88353 0.0
C549 C 0.10298 0.9272 0.86864 0.0
C550 C 0.08112 0.88499 0.88387 0.0
C551 C 0.07141 0.89233 0.91237 0.0
C552 C 0.096 0.92775 0.83717 0.0
C553 C 0.14092 0.94264 0.82171 0.0
C554 C 0.04372 0.91767 0.82248 0.0
C555 C 0.99274 0.90828 0.83742 0.0
C556 C 0.96221 0.86064 0.83261 0.0
C557 C 0.91457 0.85153 0.84699 0.0
C558 C 0.89691 0.88994 0.86611 0.0
C559 C 0.92666 0.93772 0.87076 0.0
C560 C 0.9742 0.94709 0.85637 0.0
C561 C 0.10156 0.93199 0.69845 0.0
C562 C 0.05644 0.96307 0.68797 0.0
C563 C 0.10925 0.92141 0.72738 0.0
C564 C 0.07299 0.94334 0.74638 0.0
C565 C 0.02718 0.97344 0.73566 0.0
C566 C 0.01875 0.98285 0.7067 0.0
C567 C 0.08302 0.93641 0.77748 0.0
C568 C 0.03843 0.92058 0.79291 0.0
C569 C 0.13493 0.94801 0.79217 0.0
C570 C 0.18275 0.96888 0.77766 0.0
C571 C 0.17795 0.01641 0.762 0.0
C572 C 0.22309 0.03557 0.74818 0.0
C573 C 0.27342 0.00785 0.75013 0.0
C574 C 0.27876 0.96099 0.76596 0.0
C575 C 0.23371 0.94159 0.77977 0.0
H576 H 0.30832 0.02276 0.73942 0.0
H577 H 0.86011 0.88274 0.87727 0.0
H578 H 0.44535 0.47973 0.60125 0.0
H579 H 0.4158 0.45323 0.64752 0.0
H580 H 0.58259 0.40121 0.67179 0.0
H581 H 0.61123 0.42471 0.62535 0.0
H582 H 0.51266 0.34086 0.69689 0.0
H583 H 0.53657 0.53369 0.68291 0.0
H584 H 0.51391 0.61934 0.65926 0.0
H585 H 0.3445 0.60476 0.68012 0.0
H586 H 0.36614 0.51866 0.70364 0.0
H587 H 0.60663 0.43787 0.83137 0.0
H588 H 0.58316 0.41407 0.78202 0.0
H589 H 0.41005 0.44199 0.79327 0.0
H590 H 0.4327 0.46353 0.84331 0.0
H591 H 0.45244 0.50119 0.7496 0.0
H592 H 0.44403 0.31976 0.77745 0.0
H593 H 0.47435 0.23766 0.80248 0.0
H594 H 0.62198 0.2332 0.75715 0.0
H595 H 0.59302 0.31574 0.73213 0.0
C596 C 0.47503 0.46063 0.61607 0.0
C597 C 0.53062 0.45443 0.60975 0.0
C598 C 0.45827 0.446 0.64261 0.0
C599 C 0.49725 0.42626 0.66339 0.0
C600 C 0.55169 0.41641 0.65622 0.0
C601 C 0.56819 0.43034 0.62971 0.0
C602 C 0.48469 0.42268 0.69356 0.0
C603 C 0.49912 0.37575 0.70843 0.0
C604 C 0.46567 0.46775 0.70857 0.0
C605 C 0.45277 0.51957 0.69468 0.0
C606 C 0.49444 0.54868 0.68231 0.0
C607 C 0.4818 0.59726 0.66894 0.0
C608 C 0.42775 0.61738 0.66811 0.0
C609 C 0.38629 0.58904 0.68072 0.0
C610 C 0.39871 0.54037 0.69406 0.0
C611 C 0.5633 0.43725 0.82378 0.0
C612 C 0.52165 0.453 0.84147 0.0
C613 C 0.54997 0.42374 0.79543 0.0
C614 C 0.49484 0.42605 0.78403 0.0
C615 C 0.45284 0.43991 0.80171 0.0
C616 C 0.46602 0.45268 0.83024 0.0
C617 C 0.48284 0.42021 0.75305 0.0
C618 C 0.46393 0.46552 0.73804 0.0
C619 C 0.49871 0.37399 0.73805 0.0
C620 C 0.51637 0.32415 0.75296 0.0
C621 C 0.48316 0.30151 0.77294 0.0
C622 C 0.50008 0.25483 0.78712 0.0
C623 C 0.55008 0.23025 0.78143 0.0
C624 C 0.58323 0.25226 0.76152 0.0
C625 C 0.56652 0.29896 0.74729 0.0
H626 H 0.56311 0.19411 0.79243 0.0
H627 H 0.41803 0.655 0.65775 0.0
H628 H 0.61704 0.51013 0.43636 0.0
H629 H 0.63713 0.50627 0.38629 0.0
H630 H 0.49479 0.40389 0.36806 0.0
H631 H 0.47401 0.40852 0.41767 0.0
H632 H 0.64213 0.42908 0.33629 0.0
H633 H 0.41088 0.4761 0.3229 0.0
H634 H 0.33615 0.50601 0.3523 0.0
H635 H 0.45394 0.59722 0.40551 0.0
H636 H 0.5289 0.56929 0.37588 0.0
H637 H 0.53398 0.43734 0.19053 0.0
H638 H 0.55118 0.41883 0.24116 0.0
H639 H 0.55233 0.58869 0.25964 0.0
H640 H 0.53477 0.60738 0.20927 0.0
H641 H 0.48392 0.5326 0.29208 0.0
H642 H 0.67075 0.52239 0.26483 0.0
H643 H 0.74643 0.49027 0.23676 0.0
H644 H 0.72128 0.32952 0.26479 0.0
H645 H 0.64481 0.36055 0.29271 0.0
C646 C 0.59166 0.48484 0.42186 0.0
C647 C 0.54336 0.46052 0.43059 0.0
C648 C 0.60325 0.48253 0.3933 0.0
C649 C 0.56674 0.45564 0.37349 0.0
C650 C 0.52313 0.42519 0.38303 0.0
C651 C 0.51118 0.42804 0.41134 0.0
C652 C 0.56549 0.46944 0.34316 0.0
C653 C 0.60767 0.45162 0.32651 0.0
C654 C 0.5209 0.49973 0.33064 0.0
C655 C 0.47553 0.5201 0.34736 0.0
C656 C 0.42066 0.50306 0.34067 0.0
C657 C 0.37827 0.51967 0.35737 0.0
C658 C 0.39029 0.55337 0.3808 0.0
C659 C 0.44463 0.57112 0.38736 0.0
C660 C 0.48706 0.55501 0.37058 0.0
C661 C 0.53787 0.47065 0.20544 0.0
C662 C 0.53292 0.52379 0.19599 0.0
C663 C 0.54825 0.46006 0.23426 0.0
C664 C 0.55351 0.50243 0.25407 0.0
C665 C 0.54872 0.55546 0.24466 0.0
C666 C 0.53883 0.56606 0.2159 0.0
C667 C 0.56019 0.49168 0.28481 0.0
C668 C 0.51868 0.51016 0.30167 0.0
C669 C 0.60563 0.46249 0.29736 0.0
C670 C 0.65167 0.44373 0.28065 0.0
C671 C 0.681 0.4801 0.26482 0.0
C672 C 0.72412 0.46211 0.24897 0.0
C673 C 0.73856 0.40786 0.24894 0.0
C674 C 0.71 0.37152 0.26481 0.0
C675 C 0.66679 0.3893 0.28067 0.0
H676 H 0.77197 0.39401 0.23666 0.0
H677 H 0.35748 0.56565 0.39385 0.0
loop_
_geom_bond_atom_site_label_1
_geom_bond_atom_site_label_2
_geom_bond_distance
_geom_bond_site_symmetry_2
_ccdc_geom_bond_type
Zn0 O6 1.912 1_546 S
Zn0 O12 1.898 . S
Zn0 O15 1.905 1_545 S
Zn1 O9 1.905 . S
Zn1 O10 1.898 1_545 S
Zn1 O18 1.920 1_545 S
Zn2 O5 2.080 1_445 S
Zn2 O8 2.114 . S
Zn2 O11 2.120 1_545 S
Zn2 O13 2.120 1_455 S
Zn2 O14 2.114 1_554 S
Zn2 O17 2.080 . S
C3 O8 1.166 . S
C3 O9 1.182 . S
C4 O10 1.167 . S
C4 O11 1.299 . S
O5 Zn2 2.080 1_665 S
O5 C19 1.305 . S
O6 Zn0 1.912 1_564 S
O6 C19 1.240 . S
C7 O12 1.176 . S
C7 O13 1.291 1_556 S
O8 Zn2 2.114 . S
O8 C3 1.166 . S
O9 Zn1 1.905 . S
O9 C3 1.182 . S
O10 Zn1 1.898 1_565 S
O10 C4 1.167 . S
O11 Zn2 2.120 1_565 S
O11 C4 1.299 . S
O12 Zn0 1.898 . S
O12 C7 1.176 . S
O13 Zn2 2.120 1_655 S
O13 C7 1.291 1_554 S
O14 Zn2 2.114 1_556 S
O14 C16 1.166 1_545 S
O15 Zn0 1.905 1_565 S
O15 C16 1.182 1_655 S
C16 O14 1.166 1_565 S
C16 O15 1.182 1_455 S
O17 Zn2 2.080 . S
O17 C20 1.305 1_545 S
O18 Zn1 1.920 1_565 S
O18 C20 1.234 . S
C19 O5 1.305 . S
C19 O6 1.240 . S
C20 O17 1.305 1_565 S
C20 O18 1.234 . S
Zn21 O27 1.920 . S
Zn21 O33 1.898 . S
Zn21 O36 1.905 . S
Zn22 O30 1.905 . S
Zn22 O31 1.898 . S
Zn22 O39 1.920 . S
Zn23 O26 2.080 . S
Zn23 O29 2.114 . S
Zn23 O32 2.120 . S
Zn23 O34 2.120 . S
Zn23 O35 2.114 . S
Zn23 O38 2.080 . S
C24 O29 1.166 . S
C24 O30 1.182 . S
C25 O31 1.167 . S
C25 O32 1.299 . S
O26 Zn23 2.080 . S
O26 C40 1.305 . S
O27 Zn21 1.920 . S
O27 C40 1.234 . S
C28 O33 1.167 . S
C28 O34 1.299 . S
O29 Zn23 2.114 . S
O29 C24 1.166 . S
O30 Zn22 1.905 . S
O30 C24 1.182 . S
O31 Zn22 1.898 . S
O31 C25 1.167 . S
O32 Zn23 2.120 . S
O32 C25 1.299 . S
O33 Zn21 1.898 . S
O33 C28 1.167 . S
O34 Zn23 2.120 . S
O34 C28 1.299 . S
O35 Zn23 2.114 . S
O35 C37 1.166 . S
O36 Zn21 1.905 . S
O36 C37 1.182 . S
C37 O35 1.166 . S
C37 O36 1.182 . S
O38 Zn23 2.080 . S
O38 C41 1.305 . S
O39 Zn22 1.920 . S
O39 C41 1.234 . S
C40 O26 1.305 . S
C40 O27 1.234 . S
C41 O38 1.305 . S
C41 O39 1.234 . S
H42 C45 0.931 . S
H43 C48 0.928 . S
H44 C50 0.930 . S
C45 H42 0.931 . S
C45 C46 1.413 . S
C45 C47 1.360 . S
C46 C45 1.413 . S
C46 C50 1.429 . S
C47 C45 1.360 . S
C47 C48 1.372 1_545 S
C48 H43 0.928 . S
C48 C47 1.372 1_565 S
C48 C49 1.404 . S
C49 C48 1.404 . S
C49 C50 1.391 1_565 S
C50 H44 0.930 . S
C50 C46 1.429 . S
C50 C49 1.391 1_545 S
H51 C54 0.931 . S
H52 C57 0.928 . S
H53 C59 0.930 . S
C54 H51 0.931 . S
C54 C55 1.413 . S
C54 C56 1.360 1_665 S
C55 C54 1.413 . S
C55 C59 1.421 1_665 S
C56 C54 1.360 1_445 S
C56 C57 1.372 . S
C57 H52 0.928 . S
C57 C56 1.372 . S
C57 C58 1.404 . S
C58 C57 1.404 . S
C58 C59 1.398 . S
C59 H53 0.930 . S
C59 C55 1.421 1_445 S
C59 C58 1.398 . S
H60 C63 0.931 . S
H61 C66 0.928 . S
H62 C68 0.930 . S
C63 H60 0.931 . S
C63 C64 1.413 . S
C63 C65 1.360 . S
C64 C63 1.413 . S
C64 C68 1.429 . S
C65 C63 1.360 . S
C65 C66 1.372 . S
C66 H61 0.928 . S
C66 C65 1.372 . S
C66 C67 1.404 . S
C67 C66 1.404 . S
C67 C68 1.391 . S
C68 H62 0.930 . S
C68 C64 1.429 . S
C68 C67 1.391 . S
H69 C72 0.931 . S
H70 C75 0.928 . S
H71 C77 0.930 . S
C72 H69 0.931 . S
C72 C73 1.413 . S
C72 C74 1.360 . S
C73 C72 1.413 . S
C73 C77 1.429 . S
C74 C72 1.360 . S
C74 C75 1.372 . S
C75 H70 0.928 . S
C75 C74 1.372 . S
C75 C76 1.404 . S
C76 C75 1.404 . S
C76 C77 1.391 . S
C77 H71 0.930 . S
C77 C73 1.429 . S
C77 C76 1.391 . S
H78 C96 0.951 . S
H79 C98 0.951 . S
H80 C100 0.950 . S
H81 C101 0.950 1_556 S
H82 C103 0.950 . S
H83 C106 0.950 . S
H84 C107 0.950 . S
H85 C109 0.950 . S
H86 C110 0.950 . S
H87 C111 0.951 . S
H88 C113 0.951 . S
H89 C115 0.950 . S
H90 C116 0.950 . S
H91 C118 0.950 . S
H92 C121 0.950 . S
H93 C122 0.950 . S
H94 C124 0.950 . S
H95 C125 0.950 1_556 S
C96 H78 0.951 . S
C96 C97 1.366 . S
C96 C98 1.388 . S
C97 C96 1.366 . S
C97 C101 1.385 . S
C98 H79 0.951 . S
C98 C96 1.388 . S
C98 C99 1.366 . S
C99 C98 1.366 . S
C99 C100 1.414 . S
C99 C102 1.499 . S
C100 H80 0.950 . S
C100 C99 1.414 . S
C100 C101 1.374 . S
C101 H81 0.950 1_554 S
C101 C97 1.385 . S
C101 C100 1.374 . S
C102 C99 1.499 . S
C102 C103 1.373 . S
C102 C104 1.389 . S
C103 H82 0.950 . S
C103 C102 1.373 . S
C103 C119 1.377 . S
C104 C102 1.389 . S
C104 C105 1.524 . S
C104 C118 1.377 . S
C105 C104 1.524 . S
C105 C106 1.397 . S
C105 C110 1.363 . S
C106 H83 0.950 . S
C106 C105 1.397 . S
C106 C107 1.334 . S
C107 H84 0.950 . S
C107 C106 1.334 . S
C107 C108 1.287 . S
C108 C107 1.287 . S
C108 C109 1.524 . S
C108 H127 0.913 . S
C109 H85 0.950 . S
C109 C108 1.524 . S
C109 C110 1.415 . S
C110 H86 0.950 . S
C110 C105 1.363 . S
C110 C109 1.415 . S
C111 H87 0.951 . S
C111 C112 1.366 . S
C111 C113 1.388 . S
C112 C111 1.366 . S
C112 C116 1.385 . S
C113 H88 0.951 . S
C113 C111 1.388 . S
C113 C114 1.366 . S
C114 C113 1.366 . S
C114 C115 1.414 . S
C114 C117 1.499 . S
C115 H89 0.950 . S
C115 C114 1.414 . S
C115 C116 1.374 . S
C116 H90 0.950 . S
C116 C112 1.385 . S
C116 C115 1.374 . S
C117 C114 1.499 . S
C117 C118 1.373 . S
C117 C119 1.389 . S
C118 H91 0.950 . S
C118 C104 1.377 . S
C118 C117 1.373 . S
C119 C103 1.377 . S
C119 C117 1.389 . S
C119 C120 1.524 . S
C120 C119 1.524 . S
C120 C121 1.397 . S
C120 C125 1.363 . S
C121 H92 0.950 . S
C121 C120 1.397 . S
C121 C122 1.334 . S
C122 H93 0.950 . S
C122 C121 1.334 . S
C122 C123 1.287 . S
C123 C122 1.287 . S
C123 C124 1.524 1_554 S
C123 H126 0.999 . S
C124 H94 0.950 . S
C124 C123 1.524 1_556 S
C124 C125 1.415 1_556 S
C125 H95 0.950 1_554 S
C125 C120 1.363 . S
C125 C124 1.415 1_554 S
H126 C123 0.999 . S
H127 C108 0.913 . S
H128 C146 0.951 . S
H129 C148 0.951 . S
H130 C150 0.961 . S
H131 C151 0.950 . S
H132 C153 0.950 1_554 S
H133 C156 0.950 . S
H134 C157 0.950 . S
H135 C159 0.950 . S
H136 C160 0.950 . S
H137 C161 0.951 . S
H138 C163 0.951 . S
H139 C165 0.950 . S
H140 C166 0.950 . S
H141 C168 0.950 . S
H142 C171 0.950 1_556 S
H143 C172 0.950 . S
H144 C174 0.950 . S
H145 C175 0.950 . S
C146 H128 0.951 . S
C146 C147 1.366 . S
C146 C148 1.388 . S
C147 C146 1.366 . S
C147 C151 1.385 1_556 S
C148 H129 0.951 . S
C148 C146 1.388 . S
C148 C149 1.366 . S
C149 C148 1.366 . S
C149 C150 1.395 1_556 S
C149 C152 1.499 . S
C150 H130 0.961 . S
C150 C149 1.395 1_554 S
C150 C151 1.382 . S
C151 H131 0.950 . S
C151 C147 1.385 1_554 S
C151 C150 1.382 . S
C152 C149 1.499 . S
C152 C153 1.373 . S
C152 C154 1.389 . S
C153 H132 0.950 1_556 S
C153 C152 1.373 . S
C153 C169 1.377 . S
C154 C152 1.389 . S
C154 C155 1.524 . S
C154 C168 1.377 . S
C155 C154 1.524 . S
C155 C156 1.397 . S
C155 C160 1.363 . S
C156 H133 0.950 . S
C156 C155 1.397 . S
C156 C157 1.334 . S
C157 H134 0.950 . S
C157 C156 1.334 . S
C157 C158 1.287 . S
C158 C157 1.287 . S
C158 C159 1.524 . S
C158 H177 0.913 . S
C159 H135 0.950 . S
C159 C158 1.524 . S
C159 C160 1.415 . S
C160 H136 0.950 . S
C160 C155 1.363 . S
C160 C159 1.415 . S
C161 H137 0.951 . S
C161 C162 1.366 . S
C161 C163 1.388 . S
C162 C161 1.366 . S
C162 C166 1.385 . S
C163 H138 0.951 . S
C163 C161 1.388 . S
C163 C164 1.366 . S
C164 C163 1.366 . S
C164 C165 1.414 . S
C164 C167 1.499 . S
C165 H139 0.950 . S
C165 C164 1.414 . S
C165 C166 1.374 . S
C166 H140 0.950 . S
C166 C162 1.385 . S
C166 C165 1.374 . S
C167 C164 1.499 . S
C167 C168 1.373 . S
C167 C169 1.389 . S
C168 H141 0.950 . S
C168 C154 1.377 . S
C168 C167 1.373 . S
C169 C153 1.377 . S
C169 C167 1.389 . S
C169 C170 1.524 1_556 S
C170 C169 1.524 1_554 S
C170 C171 1.397 . S
C170 C175 1.363 . S
C171 H142 0.950 1_554 S
C171 C170 1.397 . S
C171 C172 1.334 . S
C172 H143 0.950 . S
C172 C171 1.334 . S
C172 C173 1.287 . S
C173 C172 1.287 . S
C173 C174 1.524 . S
C173 H176 0.999 . S
C174 H144 0.950 . S
C174 C173 1.524 . S
C174 C175 1.415 . S
C175 H145 0.950 . S
C175 C170 1.363 . S
C175 C174 1.415 . S
H176 C173 0.999 . S
H177 C158 0.913 . S
H178 C196 0.951 . S
H179 C198 0.951 . S
H180 C200 0.950 . S
H181 C201 0.950 . S
H182 C203 0.950 . S
H183 C206 0.964 . S
H184 C207 0.950 . S
H185 C209 0.950 . S
H186 C210 0.950 1_554 S
H187 C211 0.951 . S
H188 C213 0.951 . S
H189 C215 0.950 . S
H190 C216 0.950 . S
H191 C218 0.950 . S
H192 C221 0.950 . S
H193 C222 0.950 . S
H194 C224 0.950 . S
H195 C225 0.950 . S
C196 H178 0.951 . S
C196 C197 1.366 . S
C196 C198 1.388 . S
C197 C196 1.366 . S
C197 C201 1.385 . S
C198 H179 0.951 . S
C198 C196 1.388 . S
C198 C199 1.366 . S
C199 C198 1.366 . S
C199 C200 1.414 . S
C199 C202 1.499 . S
C200 H180 0.950 . S
C200 C199 1.414 . S
C200 C201 1.374 . S
C201 H181 0.950 . S
C201 C197 1.385 . S
C201 C200 1.374 . S
C202 C199 1.499 . S
C202 C203 1.373 . S
C202 C204 1.389 . S
C203 H182 0.950 . S
C203 C202 1.373 . S
C203 C219 1.377 . S
C204 C202 1.389 . S
C204 C205 1.524 . S
C204 C218 1.377 . S
C205 C204 1.524 . S
C205 C206 1.397 1_554 S
C205 C210 1.363 1_554 S
C206 H183 0.964 . S
C206 C205 1.397 1_556 S
C206 C207 1.334 . S
C207 H184 0.950 . S
C207 C206 1.334 . S
C207 C208 1.287 . S
C208 C207 1.287 . S
C208 C209 1.524 . S
C208 H227 0.913 . S
C209 H185 0.950 . S
C209 C208 1.524 . S
C209 C210 1.415 . S
C210 H186 0.950 1_556 S
C210 C205 1.363 1_556 S
C210 C209 1.415 . S
C211 H187 0.951 . S
C211 C212 1.366 . S
C211 C213 1.388 . S
C212 C211 1.366 . S
C212 C216 1.385 . S
C213 H188 0.951 . S
C213 C211 1.388 . S
C213 C214 1.366 . S
C214 C213 1.366 . S
C214 C215 1.414 . S
C214 C217 1.499 . S
C215 H189 0.950 . S
C215 C214 1.414 . S
C215 C216 1.374 . S
C216 H190 0.950 . S
C216 C212 1.385 . S
C216 C215 1.374 . S
C217 C214 1.499 . S
C217 C218 1.373 . S
C217 C219 1.389 . S
C218 H191 0.950 . S
C218 C204 1.377 . S
C218 C217 1.373 . S
C219 C203 1.377 . S
C219 C217 1.389 . S
C219 C220 1.524 . S
C220 C219 1.524 . S
C220 C221 1.397 . S
C220 C225 1.363 . S
C221 H192 0.950 . S
C221 C220 1.397 . S
C221 C222 1.334 . S
C222 H193 0.950 . S
C222 C221 1.334 . S
C222 C223 1.287 . S
C223 C222 1.287 . S
C223 C224 1.524 . S
C223 H226 0.999 . S
C224 H194 0.950 . S
C224 C223 1.524 . S
C224 C225 1.415 . S
C225 H195 0.950 . S
C225 C220 1.363 . S
C225 C224 1.415 . S
H226 C223 0.999 . S
H227 C208 0.913 . S
H228 C246 0.951 . S
H229 C248 0.951 . S
H230 C250 0.950 . S
H231 C251 0.950 . S
H232 C253 0.950 . S
H233 C256 0.950 1_554 S
H234 C257 0.950 . S
H235 C259 0.950 1_455 S
H236 C260 0.950 . S
H237 C261 0.951 . S
H238 C263 0.951 . S
H239 C265 0.950 . S
H240 C266 0.950 . S
H241 C268 0.950 . S
H242 C271 0.950 . S
H243 C272 0.950 . S
H244 C274 0.950 . S
H245 C275 0.928 1_554 S
C246 H228 0.951 . S
C246 C247 1.366 1_556 S
C246 C248 1.388 . S
C247 C246 1.366 1_554 S
C247 C251 1.385 . S
C248 H229 0.951 . S
C248 C246 1.388 . S
C248 C249 1.366 . S
C249 C248 1.366 . S
C249 C250 1.414 1_556 S
C249 C252 1.499 . S
C250 H230 0.950 . S
C250 C249 1.414 1_554 S
C250 C251 1.374 . S
C251 H231 0.950 . S
C251 C247 1.385 . S
C251 C250 1.374 . S
C252 C249 1.499 . S
C252 C253 1.373 . S
C252 C254 1.389 . S
C253 H232 0.950 . S
C253 C252 1.373 . S
C253 C269 1.377 . S
C254 C252 1.389 . S
C254 C255 1.524 . S
C254 C268 1.377 . S
C255 C254 1.524 . S
C255 C256 1.397 . S
C255 C260 1.363 . S
C256 H233 0.950 1_556 S
C256 C255 1.397 . S
C256 C257 1.334 1_556 S
C257 H234 0.950 . S
C257 C256 1.334 1_554 S
C257 C258 1.287 1_654 S
C258 C257 1.287 1_456 S
C258 C259 1.524 1_455 S
C258 H277 0.913 . S
C259 H235 0.950 1_655 S
C259 C258 1.524 1_655 S
C259 C260 1.415 . S
C260 H236 0.950 . S
C260 C255 1.363 . S
C260 C259 1.415 . S
C261 H237 0.951 . S
C261 C262 1.366 . S
C261 C263 1.388 . S
C262 C261 1.366 . S
C262 C266 1.385 . S
C263 H238 0.951 . S
C263 C261 1.388 . S
C263 C264 1.366 . S
C264 C263 1.366 . S
C264 C265 1.414 . S
C264 C267 1.499 . S
C265 H239 0.950 . S
C265 C264 1.414 . S
C265 C266 1.374 . S
C266 H240 0.950 . S
C266 C262 1.385 . S
C266 C265 1.374 . S
C267 C264 1.499 . S
C267 C268 1.373 . S
C267 C269 1.389 . S
C268 H241 0.950 . S
C268 C254 1.377 . S
C268 C267 1.373 . S
C269 C253 1.377 . S
C269 C267 1.389 . S
C269 C270 1.524 . S
C270 C269 1.524 . S
C270 C271 1.397 . S
C270 C275 1.363 . S
C271 H242 0.950 . S
C271 C270 1.397 . S
C271 C272 1.334 . S
C272 H243 0.950 . S
C272 C271 1.334 . S
C272 C273 1.287 . S
C273 C272 1.287 . S
C273 C274 1.524 . S
C273 H276 0.999 . S
C274 H244 0.950 . S
C274 C273 1.524 . S
C274 C275 1.415 . S
C275 H245 0.928 1_556 S
C275 C270 1.363 . S
C275 C274 1.415 . S
H276 C273 0.999 . S
H277 C258 0.913 . S
H278 C296 0.951 . S
H279 C298 0.951 . S
H280 C300 0.950 . S
H281 C301 0.950 . S
H282 C303 0.950 . S
H283 C306 0.950 . S
H284 C307 0.950 . S
H285 C309 0.950 . S
H286 C310 0.950 . S
H287 C311 0.951 . S
H288 C313 0.951 . S
H289 C315 0.950 . S
H290 C316 0.950 . S
H291 C318 0.950 . S
H292 C321 0.950 . S
H293 C322 0.950 1_545 S
H294 C324 0.950 . S
H295 C325 0.950 . S
C296 H278 0.951 . S
C296 C297 1.366 . S
C296 C298 1.388 . S
C297 C296 1.366 . S
C297 C301 1.385 . S
C298 H279 0.951 . S
C298 C296 1.388 . S
C298 C299 1.366 . S
C299 C298 1.366 . S
C299 C300 1.414 . S
C299 C302 1.499 . S
C300 H280 0.950 . S
C300 C299 1.414 . S
C300 C301 1.374 . S
C301 H281 0.950 . S
C301 C297 1.385 . S
C301 C300 1.374 . S
C302 C299 1.499 . S
C302 C303 1.373 . S
C302 C304 1.389 . S
C303 H282 0.950 . S
C303 C302 1.373 . S
C303 C319 1.377 . S
C304 C302 1.389 . S
C304 C305 1.524 . S
C304 C318 1.377 . S
C305 C304 1.524 . S
C305 C306 1.397 . S
C305 C310 1.363 . S
C306 H283 0.950 . S
C306 C305 1.397 . S
C306 C307 1.334 . S
C307 H284 0.950 . S
C307 C306 1.334 . S
C307 C308 1.287 . S
C308 C307 1.287 . S
C308 C309 1.524 . S
C308 H327 0.913 . S
C309 H285 0.950 . S
C309 C308 1.524 . S
C309 C310 1.415 . S
C310 H286 0.950 . S
C310 C305 1.363 . S
C310 C309 1.415 . S
C311 H287 0.951 . S
C311 C312 1.366 . S
C311 C313 1.388 . S
C312 C311 1.366 . S
C312 C316 1.385 . S
C313 H288 0.951 . S
C313 C311 1.388 . S
C313 C314 1.366 . S
C314 C313 1.366 . S
C314 C315 1.414 . S
C314 C317 1.499 . S
C315 H289 0.950 . S
C315 C314 1.414 . S
C315 C316 1.374 . S
C316 H290 0.950 . S
C316 C312 1.385 . S
C316 C315 1.374 . S
C317 C314 1.499 . S
C317 C318 1.373 . S
C317 C319 1.389 . S
C318 H291 0.950 . S
C318 C304 1.377 . S
C318 C317 1.373 . S
C319 C303 1.377 . S
C319 C317 1.389 . S
C319 C320 1.524 . S
C320 C319 1.524 . S
C320 C321 1.397 . S
C320 C325 1.363 . S
C321 H292 0.950 . S
C321 C320 1.397 . S
C321 C322 1.334 . S
C322 H293 0.950 1_565 S
C322 C321 1.334 . S
C322 C323 1.287 . S
C323 C322 1.287 . S
C323 C324 1.524 . S
C323 H326 0.999 1_565 S
C324 H294 0.950 . S
C324 C323 1.524 . S
C324 C325 1.415 . S
C325 H295 0.950 . S
C325 C320 1.363 . S
C325 C324 1.415 . S
H326 C323 0.999 1_545 S
H327 C308 0.913 . S
H328 C346 0.951 . S
H329 C348 0.951 . S
H330 C350 0.950 . S
H331 C351 0.950 . S
H332 C353 0.950 . S
H333 C356 0.950 . S
H334 C357 0.950 . S
H335 C359 0.950 . S
H336 C360 0.950 . S
H337 C361 0.950 1_455 S
H338 C363 0.951 . S
H339 C365 0.950 . S
H340 C366 0.950 . S
H341 C368 0.950 . S
H342 C371 0.950 . S
H343 C372 0.950 . S
H344 C374 0.950 . S
H345 C375 0.950 . S
C346 H328 0.951 . S
C346 C347 1.366 . S
C346 C348 1.388 . S
C347 C346 1.366 . S
C347 C351 1.385 . S
C348 H329 0.951 . S
C348 C346 1.388 . S
C348 C349 1.366 . S
C349 C348 1.366 . S
C349 C350 1.414 . S
C349 C352 1.499 . S
C350 H330 0.950 . S
C350 C349 1.414 . S
C350 C351 1.374 . S
C351 H331 0.950 . S
C351 C347 1.385 . S
C351 C350 1.374 . S
C352 C349 1.499 . S
C352 C353 1.373 . S
C352 C354 1.389 . S
C353 H332 0.950 . S
C353 C352 1.373 . S
C353 C369 1.377 . S
C354 C352 1.389 . S
C354 C355 1.524 . S
C354 C368 1.377 . S
C355 C354 1.524 . S
C355 C356 1.397 . S
C355 C360 1.363 . S
C356 H333 0.950 . S
C356 C355 1.397 . S
C356 C357 1.334 . S
C357 H334 0.950 . S
C357 C356 1.334 . S
C357 C358 1.287 . S
C358 C357 1.287 . S
C358 C359 1.524 . S
C358 H377 0.913 . S
C359 H335 0.950 . S
C359 C358 1.524 . S
C359 C360 1.415 . S
C360 H336 0.950 . S
C360 C355 1.363 . S
C360 C359 1.415 . S
C361 H337 0.950 1_655 S
C361 C362 1.366 . S
C361 C363 1.388 . S
C362 C361 1.366 . S
C362 C366 1.385 . S
C363 H338 0.951 . S
C363 C361 1.388 . S
C363 C364 1.366 . S
C364 C363 1.366 . S
C364 C365 1.414 . S
C364 C367 1.499 . S
C365 H339 0.950 . S
C365 C364 1.414 . S
C365 C366 1.374 . S
C366 H340 0.950 . S
C366 C362 1.385 . S
C366 C365 1.374 . S
C367 C364 1.499 . S
C367 C368 1.373 . S
C367 C369 1.389 . S
C368 H341 0.950 . S
C368 C354 1.377 . S
C368 C367 1.373 . S
C369 C353 1.377 . S
C369 C367 1.389 . S
C369 C370 1.524 . S
C370 C369 1.524 . S
C370 C371 1.397 . S
C370 C375 1.363 . S
C371 H342 0.950 . S
C371 C370 1.397 . S
C371 C372 1.334 1_655 S
C372 H343 0.950 . S
C372 C371 1.334 1_455 S
C372 C373 1.287 . S
C373 C372 1.287 . S
C373 C374 1.524 . S
C373 H376 0.999 . S
C374 H344 0.950 . S
C374 C373 1.524 . S
C374 C375 1.415 1_455 S
C375 H345 0.950 . S
C375 C370 1.363 . S
C375 C374 1.415 1_655 S
H376 C373 0.999 . S
H377 C358 0.913 . S
H378 C396 0.951 . S
H379 C398 0.951 . S
H380 C400 0.950 . S
H381 C401 0.950 . S
H382 C403 0.950 . S
H383 C406 0.950 . S
H384 C407 0.950 . S
H385 C409 0.950 . S
H386 C410 0.950 . S
H387 C411 0.951 . S
H388 C413 0.951 . S
H389 C415 0.950 . S
H390 C416 0.950 . S
H391 C418 0.950 . S
H392 C421 0.950 . S
H393 C422 0.950 . S
H394 C424 0.950 . S
H395 C425 0.950 . S
C396 H378 0.951 . S
C396 C397 1.366 . S
C396 C398 1.388 . S
C397 C396 1.366 . S
C397 C401 1.385 . S
C398 H379 0.951 . S
C398 C396 1.388 . S
C398 C399 1.366 . S
C399 C398 1.366 . S
C399 C400 1.414 . S
C399 C402 1.499 . S
C400 H380 0.950 . S
C400 C399 1.414 . S
C400 C401 1.374 . S
C401 H381 0.950 . S
C401 C397 1.385 . S
C401 C400 1.374 . S
C402 C399 1.499 . S
C402 C403 1.373 . S
C402 C404 1.389 . S
C403 H382 0.950 . S
C403 C402 1.373 . S
C403 C419 1.377 . S
C404 C402 1.389 . S
C404 C405 1.524 . S
C404 C418 1.377 . S
C405 C404 1.524 . S
C405 C406 1.397 . S
C405 C410 1.363 . S
C406 H383 0.950 . S
C406 C405 1.397 . S
C406 C407 1.334 . S
C407 H384 0.950 . S
C407 C406 1.334 . S
C407 C408 1.287 . S
C408 C407 1.287 . S
C408 C409 1.524 . S
C408 H427 0.913 . S
C409 H385 0.950 . S
C409 C408 1.524 . S
C409 C410 1.415 . S
C410 H386 0.950 . S
C410 C405 1.363 . S
C410 C409 1.415 . S
C411 H387 0.951 . S
C411 C412 1.366 . S
C411 C413 1.388 . S
C412 C411 1.366 . S
C412 C416 1.385 . S
C413 H388 0.951 . S
C413 C411 1.388 . S
C413 C414 1.366 . S
C414 C413 1.366 . S
C414 C415 1.414 . S
C414 C417 1.499 . S
C415 H389 0.950 . S
C415 C414 1.414 . S
C415 C416 1.374 . S
C416 H390 0.950 . S
C416 C412 1.385 . S
C416 C415 1.374 . S
C417 C414 1.499 . S
C417 C418 1.373 . S
C417 C419 1.389 . S
C418 H391 0.950 . S
C418 C404 1.377 . S
C418 C417 1.373 . S
C419 C403 1.377 . S
C419 C417 1.389 . S
C419 C420 1.524 . S
C420 C419 1.524 . S
C420 C421 1.397 . S
C420 C425 1.363 . S
C421 H392 0.950 . S
C421 C420 1.397 . S
C421 C422 1.334 . S
C422 H393 0.950 . S
C422 C421 1.334 . S
C422 C423 1.287 . S
C423 C422 1.287 . S
C423 C424 1.524 . S
C423 H426 0.999 . S
C424 H394 0.950 . S
C424 C423 1.524 . S
C424 C425 1.415 . S
C425 H395 0.950 . S
C425 C420 1.363 . S
C425 C424 1.415 . S
H426 C423 0.999 . S
H427 C408 0.913 . S
H428 C446 0.951 . S
H429 C448 0.951 . S
H430 C450 0.950 . S
H431 C451 0.950 . S
H432 C453 0.950 . S
H433 C456 0.950 . S
H434 C457 0.950 . S
H435 C459 0.950 . S
H436 C460 0.950 . S
H437 C461 0.951 1_545 S
H438 C463 0.951 . S
H439 C465 0.950 . S
H440 C466 0.950 . S
H441 C468 0.950 . S
H442 C471 0.950 . S
H443 C472 0.950 . S
H444 C474 0.950 . S
H445 C475 0.950 . S
C446 H428 0.951 . S
C446 C447 1.366 . S
C446 C448 1.388 . S
C447 C446 1.366 . S
C447 C451 1.385 . S
C448 H429 0.951 . S
C448 C446 1.388 . S
C448 C449 1.366 . S
C449 C448 1.366 . S
C449 C450 1.414 . S
C449 C452 1.499 . S
C450 H430 0.950 . S
C450 C449 1.414 . S
C450 C451 1.374 . S
C451 H431 0.950 . S
C451 C447 1.385 . S
C451 C450 1.374 . S
C452 C449 1.499 . S
C452 C453 1.373 . S
C452 C454 1.389 . S
C453 H432 0.950 . S
C453 C452 1.373 . S
C453 C469 1.377 . S
C454 C452 1.389 . S
C454 C455 1.524 . S
C454 C468 1.377 . S
C455 C454 1.524 . S
C455 C456 1.397 . S
C455 C460 1.363 . S
C456 H433 0.950 . S
C456 C455 1.397 . S
C456 C457 1.334 . S
C457 H434 0.950 . S
C457 C456 1.334 . S
C457 C458 1.287 . S
C458 C457 1.287 . S
C458 C459 1.524 . S
C458 H477 0.913 . S
C459 H435 0.950 . S
C459 C458 1.524 . S
C459 C460 1.415 . S
C460 H436 0.950 . S
C460 C455 1.363 . S
C460 C459 1.415 . S
C461 H437 0.951 1_565 S
C461 C462 1.366 . S
C461 C463 1.388 . S
C462 C461 1.366 . S
C462 C466 1.385 . S
C463 H438 0.951 . S
C463 C461 1.388 . S
C463 C464 1.366 . S
C464 C463 1.366 . S
C464 C465 1.414 . S
C464 C467 1.499 . S
C465 H439 0.950 . S
C465 C464 1.414 . S
C465 C466 1.374 . S
C466 H440 0.950 . S
C466 C462 1.385 . S
C466 C465 1.374 . S
C467 C464 1.499 . S
C467 C468 1.373 . S
C467 C469 1.389 . S
C468 H441 0.950 . S
C468 C454 1.377 . S
C468 C467 1.373 . S
C469 C453 1.377 . S
C469 C467 1.389 . S
C469 C470 1.524 . S
C470 C469 1.524 . S
C470 C471 1.397 . S
C470 C475 1.363 . S
C471 H442 0.950 . S
C471 C470 1.397 . S
C471 C472 1.334 . S
C472 H443 0.950 . S
C472 C471 1.334 . S
C472 C473 1.287 . S
C473 C472 1.287 . S
C473 C474 1.524 . S
C473 H476 0.999 . S
C474 H444 0.950 . S
C474 C473 1.524 . S
C474 C475 1.415 . S
C475 H445 0.950 . S
C475 C470 1.363 . S
C475 C474 1.415 . S
H476 C473 0.999 . S
H477 C458 0.913 . S
H478 C496 0.951 1_655 S
H479 C498 0.951 1_655 S
H480 C500 0.950 . S
H481 C501 0.950 . S
H482 C503 0.950 . S
H483 C506 0.950 . S
H484 C507 0.950 . S
H485 C509 0.950 1_655 S
H486 C510 0.950 1_655 S
H487 C511 0.950 . S
H488 C513 0.951 . S
H489 C515 0.950 1_655 S
H490 C516 0.950 . S
H491 C518 0.950 . S
H492 C521 0.950 1_655 S
H493 C522 0.950 1_655 S
H494 C524 0.950 . S
H495 C525 0.950 . S
C496 H478 0.951 1_455 S
C496 C497 1.366 1_545 S
C496 C498 1.388 . S
C497 C496 1.366 1_565 S
C497 C501 1.385 . S
C498 H479 0.951 1_455 S
C498 C496 1.388 . S
C498 C499 1.366 1_545 S
C499 C498 1.366 1_565 S
C499 C500 1.414 . S
C499 C502 1.499 1_565 S
C500 H480 0.950 . S
C500 C499 1.414 . S
C500 C501 1.374 . S
C501 H481 0.950 . S
C501 C497 1.385 . S
C501 C500 1.374 . S
C502 C499 1.499 1_545 S
C502 C503 1.373 1_545 S
C502 C504 1.389 . S
C503 H482 0.950 . S
C503 C502 1.373 1_565 S
C503 C519 1.377 . S
C504 C502 1.389 . S
C504 C505 1.524 . S
C504 C518 1.377 . S
C505 C504 1.524 . S
C505 C506 1.397 . S
C505 C510 1.363 . S
C506 H483 0.950 . S
C506 C505 1.397 . S
C506 C507 1.334 . S
C507 H484 0.950 . S
C507 C506 1.334 . S
C507 C508 1.287 . S
C508 C507 1.287 . S
C508 C509 1.524 . S
C508 H527 0.913 . S
C509 H485 0.950 1_455 S
C509 C508 1.524 . S
C509 C510 1.415 . S
C510 H486 0.950 1_455 S
C510 C505 1.363 . S
C510 C509 1.415 . S
C511 H487 0.950 . S
C511 C512 1.367 1_565 S
C511 C513 1.388 . S
C512 C511 1.367 1_545 S
C512 C516 1.385 . S
C513 H488 0.951 . S
C513 C511 1.388 . S
C513 C514 1.366 1_565 S
C514 C513 1.366 1_545 S
C514 C515 1.414 . S
C514 C517 1.499 . S
C515 H489 0.950 1_455 S
C515 C514 1.414 . S
C515 C516 1.374 . S
C516 H490 0.950 . S
C516 C512 1.385 . S
C516 C515 1.374 . S
C517 C514 1.499 . S
C517 C518 1.373 . S
C517 C519 1.389 1_545 S
C518 H491 0.950 . S
C518 C504 1.377 . S
C518 C517 1.373 . S
C519 C503 1.377 . S
C519 C517 1.389 1_565 S
C519 C520 1.524 . S
C520 C519 1.524 . S
C520 C521 1.397 . S
C520 C525 1.363 . S
C521 H492 0.950 1_455 S
C521 C520 1.397 . S
C521 C522 1.334 . S
C522 H493 0.950 1_455 S
C522 C521 1.334 . S
C522 C523 1.287 . S
C523 C522 1.287 . S
C523 C524 1.524 . S
C523 H526 0.999 . S
C524 H494 0.950 . S
C524 C523 1.524 . S
C524 C525 1.415 . S
C525 H495 0.950 . S
C525 C520 1.363 . S
C525 C524 1.415 . S
H526 C523 0.999 . S
H527 C508 0.913 . S
H528 C546 0.951 . S
H529 C548 0.951 . S
H530 C550 0.950 . S
H531 C551 0.950 . S
H532 C553 0.950 . S
H533 C556 0.950 . S
H534 C557 0.950 . S
H535 C559 0.950 . S
H536 C560 0.950 . S
H537 C561 0.951 . S
H538 C563 0.951 . S
H539 C565 0.950 . S
H540 C566 0.950 . S
H541 C568 0.950 . S
H542 C571 0.950 . S
H543 C572 0.950 . S
H544 C574 0.950 . S
H545 C575 0.950 . S
C546 H528 0.951 . S
C546 C547 1.366 1_645 S
C546 C548 1.388 . S
C547 C546 1.366 1_465 S
C547 C551 1.385 . S
C548 H529 0.951 . S
C548 C546 1.388 . S
C548 C549 1.366 1_645 S
C549 C548 1.366 1_465 S
C549 C550 1.414 . S
C549 C552 1.499 . S
C550 H530 0.950 . S
C550 C549 1.414 . S
C550 C551 1.374 . S
C551 H531 0.950 . S
C551 C547 1.385 . S
C551 C550 1.374 . S
C552 C549 1.499 . S
C552 C553 1.373 . S
C552 C554 1.389 1_465 S
C553 H532 0.950 . S
C553 C552 1.373 . S
C553 C569 1.377 1_565 S
C554 C552 1.389 1_645 S
C554 C555 1.524 1_545 S
C554 C568 1.377 . S
C555 C554 1.524 1_565 S
C555 C556 1.397 . S
C555 C560 1.363 1_565 S
C556 H533 0.950 . S
C556 C555 1.397 . S
C556 C557 1.334 . S
C557 H534 0.950 . S
C557 C556 1.334 . S
C557 C558 1.287 . S
C558 C557 1.287 . S
C558 C559 1.524 1_565 S
C558 H577 0.913 . S
C559 H535 0.950 . S
C559 C558 1.524 1_545 S
C559 C560 1.415 . S
C560 H536 0.950 . S
C560 C555 1.363 1_545 S
C560 C559 1.415 . S
C561 H537 0.951 . S
C561 C562 1.366 1_565 S
C561 C563 1.388 . S
C562 C561 1.366 1_545 S
C562 C566 1.385 1_455 S
C563 H538 0.951 . S
C563 C561 1.388 . S
C563 C564 1.366 1_565 S
C564 C563 1.366 1_545 S
C564 C565 1.414 1_455 S
C564 C567 1.499 . S
C565 H539 0.950 . S
C565 C564 1.414 1_655 S
C565 C566 1.374 . S
C566 H540 0.950 . S
C566 C562 1.385 1_655 S
C566 C565 1.374 . S
C567 C564 1.499 . S
C567 C568 1.373 1_455 S
C567 C569 1.389 . S
C568 H541 0.950 . S
C568 C554 1.377 . S
C568 C567 1.373 1_655 S
C569 C553 1.377 1_545 S
C569 C567 1.389 . S
C569 C570 1.524 . S
C570 C569 1.524 . S
C570 C571 1.397 . S
C570 C575 1.363 1_545 S
C571 H542 0.950 . S
C571 C570 1.397 . S
C571 C572 1.334 . S
C572 H543 0.950 . S
C572 C571 1.334 . S
C572 C573 1.287 . S
C573 C572 1.287 . S
C573 C574 1.524 1_545 S
C573 H576 0.999 . S
C574 H544 0.950 . S
C574 C573 1.524 1_565 S
C574 C575 1.415 . S
C575 H545 0.950 . S
C575 C570 1.363 1_565 S
C575 C574 1.415 . S
H576 C573 0.999 . S
H577 C558 0.913 . S
H578 C596 0.951 . S
H579 C598 0.951 . S
H580 C600 0.950 . S
H581 C601 0.950 . S
H582 C603 0.950 . S
H583 C606 0.950 . S
H584 C607 0.950 . S
H585 C609 0.950 . S
H586 C610 0.950 . S
H587 C611 0.951 . S
H588 C613 0.951 . S
H589 C615 0.950 . S
H590 C616 0.950 . S
H591 C618 0.950 . S
H592 C621 0.950 . S
H593 C622 0.950 . S
H594 C624 0.950 . S
H595 C625 0.950 . S
C596 H578 0.951 . S
C596 C597 1.366 . S
C596 C598 1.388 . S
C597 C596 1.366 . S
C597 C601 1.385 . S
C598 H579 0.951 . S
C598 C596 1.388 . S
C598 C599 1.366 . S
C599 C598 1.366 . S
C599 C600 1.414 . S
C599 C602 1.499 . S
C600 H580 0.950 . S
C600 C599 1.414 . S
C600 C601 1.374 . S
C601 H581 0.950 . S
C601 C597 1.385 . S
C601 C600 1.374 . S
C602 C599 1.499 . S
C602 C603 1.373 . S
C602 C604 1.389 . S
C603 H582 0.950 . S
C603 C602 1.373 . S
C603 C619 1.377 . S
C604 C602 1.389 . S
C604 C605 1.524 . S
C604 C618 1.377 . S
C605 C604 1.524 . S
C605 C606 1.397 . S
C605 C610 1.363 . S
C606 H583 0.950 . S
C606 C605 1.397 . S
C606 C607 1.334 . S
C607 H584 0.950 . S
C607 C606 1.334 . S
C607 C608 1.287 . S
C608 C607 1.287 . S
C608 C609 1.524 . S
C608 H627 0.913 . S
C609 H585 0.950 . S
C609 C608 1.524 . S
C609 C610 1.415 . S
C610 H586 0.950 . S
C610 C605 1.363 . S
C610 C609 1.415 . S
C611 H587 0.951 . S
C611 C612 1.366 . S
C611 C613 1.388 . S
C612 C611 1.366 . S
C612 C616 1.385 . S
C613 H588 0.951 . S
C613 C611 1.388 . S
C613 C614 1.366 . S
C614 C613 1.366 . S
C614 C615 1.414 . S
C614 C617 1.499 . S
C615 H589 0.950 . S
C615 C614 1.414 . S
C615 C616 1.374 . S
C616 H590 0.950 . S
C616 C612 1.385 . S
C616 C615 1.374 . S
C617 C614 1.499 . S
C617 C618 1.373 . S
C617 C619 1.389 . S
C618 H591 0.950 . S
C618 C604 1.377 . S
C618 C617 1.373 . S
C619 C603 1.377 . S
C619 C617 1.389 . S
C619 C620 1.524 . S
C620 C619 1.524 . S
C620 C621 1.397 . S
C620 C625 1.363 . S
C621 H592 0.950 . S
C621 C620 1.397 . S
C621 C622 1.334 . S
C622 H593 0.950 . S
C622 C621 1.334 . S
C622 C623 1.287 . S
C623 C622 1.287 . S
C623 C624 1.524 . S
C623 H626 0.999 . S
C624 H594 0.950 . S
C624 C623 1.524 . S
C624 C625 1.415 . S
C625 H595 0.950 . S
C625 C620 1.363 . S
C625 C624 1.415 . S
H626 C623 0.999 . S
H627 C608 0.913 . S
H628 C646 0.951 . S
H629 C648 0.951 . S
H630 C650 0.950 . S
H631 C651 0.950 . S
H632 C653 0.950 . S
H633 C656 0.950 . S
H634 C657 0.950 . S
H635 C659 0.950 . S
H636 C660 0.950 . S
H637 C661 0.951 . S
H638 C663 0.951 . S
H639 C665 0.950 . S
H640 C666 0.950 . S
H641 C668 0.950 . S
H642 C671 0.950 . S
H643 C672 0.950 . S
H644 C674 0.950 . S
H645 C675 0.950 . S
C646 H628 0.951 . S
C646 C647 1.366 . S
C646 C648 1.388 . S
C647 C646 1.366 . S
C647 C651 1.385 . S
C648 H629 0.951 . S
C648 C646 1.388 . S
C648 C649 1.366 . S
C649 C648 1.366 . S
C649 C650 1.414 . S
C649 C652 1.499 . S
C650 H630 0.950 . S
C650 C649 1.414 . S
C650 C651 1.374 . S
C651 H631 0.950 . S
C651 C647 1.385 . S
C651 C650 1.374 . S
C652 C649 1.499 . S
C652 C653 1.373 . S
C652 C654 1.389 . S
C653 H632 0.950 . S
C653 C652 1.373 . S
C653 C669 1.377 . S
C654 C652 1.389 . S
C654 C655 1.524 . S
C654 C668 1.377 . S
C655 C654 1.524 . S
C655 C656 1.397 . S
C655 C660 1.363 . S
C656 H633 0.950 . S
C656 C655 1.397 . S
C656 C657 1.334 . S
C657 H634 0.950 . S
C657 C656 1.334 . S
C657 C658 1.287 . S
C658 C657 1.287 . S
C658 C659 1.524 . S
C658 H677 0.913 . S
C659 H635 0.950 . S
C659 C658 1.524 . S
C659 C660 1.415 . S
C660 H636 0.950 . S
C660 C655 1.363 . S
C660 C659 1.415 . S
C661 H637 0.951 . S
C661 C662 1.366 . S
C661 C663 1.388 . S
C662 C661 1.366 . S
C662 C666 1.385 . S
C663 H638 0.951 . S
C663 C661 1.388 . S
C663 C664 1.366 . S
C664 C663 1.366 . S
C664 C665 1.414 . S
C664 C667 1.499 . S
C665 H639 0.950 . S
C665 C664 1.414 . S
C665 C666 1.374 . S
C666 H640 0.950 . S
C666 C662 1.385 . S
C666 C665 1.374 . S
C667 C664 1.499 . S
C667 C668 1.373 . S
C667 C669 1.389 . S
C668 H641 0.950 . S
C668 C654 1.377 . S
C668 C667 1.373 . S
C669 C653 1.377 . S
C669 C667 1.389 . S
C669 C670 1.524 . S
C670 C669 1.524 . S
C670 C671 1.397 . S
C670 C675 1.363 . S
C671 H642 0.950 . S
C671 C670 1.397 . S
C671 C672 1.334 . S
C672 H643 0.950 . S
C672 C671 1.334 . S
C672 C673 1.287 . S
C673 C672 1.287 . S
C673 C674 1.524 . S
C673 H676 0.999 . S
C674 H644 0.950 . S
C674 C673 1.524 . S
C674 C675 1.415 . S
C675 H645 0.950 . S
C675 C670 1.363 . S
C675 C674 1.415 . S
H676 C673 0.999 . S
H677 C658 0.913 . S
C112 C73 1.156 . S
C97 C3 1.033 . S
C147 C4 1.460 1_556 S
C162 C64 1.548 . S
C197 C19 1.487 . S
C212 C76 1.565 . S
C247 C7 1.028 1_554 S
C262 C67 1.157 . S
C297 C37 1.035 . S
C312 C55 1.156 . S
C347 C28 1.460 . S
C362 C46 1.548 1_655 S
C412 C58 1.565 . S
C397 C41 1.487 . S
C462 C49 1.157 . S
C447 C25 1.031 . S
C497 C20 1.287 . S
C512 C47 1.434 . S
C547 C16 1.339 . S
C562 C56 1.489 . S
C612 C65 1.434 . S
C597 C40 1.287 . S
C647 C24 1.339 . S
C662 C74 1.489 . S
