# Generated by pormake.
# Topology ptr, (4,4)-cn, num edge types: 1
# Building blocks:
#     Node 0, Type 0, BuildingBlock: NAHDIM_clean_sbu_0, # of connection points: 4
#     Node 1, Type 0, BuildingBlock: NAHDIM_clean_sbu_0, # of connection points: 4
#     Node 2, Type 0, BuildingBlock: NAHDIM_clean_sbu_0, # of connection points: 4
#     Node 3, Type 0, BuildingBlock: NAHDIM_clean_sbu_0, # of connection points: 4
#     Node 4, Type 0, BuildingBlock: NAHDIM_clean_sbu_0, # of connection points: 4
#     Node 5, Type 0, BuildingBlock: NAHDIM_clean_sbu_0, # of connection points: 4
#     Node 6, Type 0, BuildingBlock: NAHDIM_clean_sbu_0, # of connection points: 4
#     Node 7, Type 0, BuildingBlock: NAHDIM_clean_sbu_0, # of connection points: 4
#     Node 8, Type 0, BuildingBlock: NAHDIM_clean_sbu_0, # of connection points: 4
#     Node 9, Type 0, BuildingBlock: NAHDIM_clean_sbu_0, # of connection points: 4
#     Node 10, Type 0, BuildingBlock: NAHDIM_clean_sbu_0, # of connection points: 4
#     Node 11, Type 0, BuildingBlock: NAHDIM_clean_sbu_0, # of connection points: 4
#     Node 12, Type 0, BuildingBlock: NAHDIM_clean_sbu_0, # of connection points: 4
#     Node 13, Type 0, BuildingBlock: NAHDIM_clean_sbu_0, # of connection points: 4
#     Node 14, Type 0, BuildingBlock: NAHDIM_clean_sbu_0, # of connection points: 4
#     Node 15, Type 0, BuildingBlock: NAHDIM_clean_sbu_0, # of connection points: 4
#     Node 16, Type 0, BuildingBlock: NAHDIM_clean_sbu_0, # of connection points: 4
#     Node 17, Type 0, BuildingBlock: NAHDIM_clean_sbu_0, # of connection points: 4
#     Node 18, Type 1, BuildingBlock: GIZVER_clean_linker_0, # of connection points: 4
#     Node 19, Type 1, BuildingBlock: GIZVER_clean_linker_0, # of connection points: 4
#     Node 20, Type 1, BuildingBlock: GIZVER_clean_linker_0, # of connection points: 4
#     Node 21, Type 1, BuildingBlock: GIZVER_clean_linker_0, # of connection points: 4
#     Node 22, Type 1, BuildingBlock: GIZVER_clean_linker_0, # of connection points: 4
#     Node 23, Type 1, BuildingBlock: GIZVER_clean_linker_0, # of connection points: 4
#     Node 24, Type 1, BuildingBlock: GIZVER_clean_linker_0, # of connection points: 4
#     Node 25, Type 1, BuildingBlock: GIZVER_clean_linker_0, # of connection points: 4
#     Node 26, Type 1, BuildingBlock: GIZVER_clean_linker_0, # of connection points: 4
#     Node 27, Type 1, BuildingBlock: GIZVER_clean_linker_0, # of connection points: 4
#     Node 28, Type 1, BuildingBlock: GIZVER_clean_linker_0, # of connection points: 4
#     Node 29, Type 1, BuildingBlock: GIZVER_clean_linker_0, # of connection points: 4
#     Node 30, Type 1, BuildingBlock: GIZVER_clean_linker_0, # of connection points: 4
#     Node 31, Type 1, BuildingBlock: GIZVER_clean_linker_0, # of connection points: 4
#     Node 32, Type 1, BuildingBlock: GIZVER_clean_linker_0, # of connection points: 4
#     Node 33, Type 1, BuildingBlock: GIZVER_clean_linker_0, # of connection points: 4
#     Node 34, Type 1, BuildingBlock: GIZVER_clean_linker_0, # of connection points: 4
#     Node 35, Type 1, BuildingBlock: GIZVER_clean_linker_0, # of connection points: 4
#     Edge 36, Type (0, 1), BuildingBlock: TEMPAE_clean_linker_10, # of connection points: 2
#     Edge 37, Type (0, 1), BuildingBlock: TEMPAE_clean_linker_10, # of connection points: 2
#     Edge 38, Type (0, 1), BuildingBlock: TEMPAE_clean_linker_10, # of connection points: 2
#     Edge 39, Type (0, 1), BuildingBlock: TEMPAE_clean_linker_10, # of connection points: 2
#     Edge 40, Type (0, 1), BuildingBlock: TEMPAE_clean_linker_10, # of connection points: 2
#     Edge 41, Type (0, 1), BuildingBlock: TEMPAE_clean_linker_10, # of connection points: 2
#     Edge 42, Type (0, 1), BuildingBlock: TEMPAE_clean_linker_10, # of connection points: 2
#     Edge 43, Type (0, 1), BuildingBlock: TEMPAE_clean_linker_10, # of connection points: 2
#     Edge 44, Type (0, 1), BuildingBlock: TEMPAE_clean_linker_10, # of connection points: 2
#     Edge 45, Type (0, 1), BuildingBlock: TEMPAE_clean_linker_10, # of connection points: 2
#     Edge 46, Type (0, 1), BuildingBlock: TEMPAE_clean_linker_10, # of connection points: 2
#     Edge 47, Type (0, 1), BuildingBlock: TEMPAE_clean_linker_10, # of connection points: 2
#     Edge 48, Type (0, 1), BuildingBlock: TEMPAE_clean_linker_10, # of connection points: 2
#     Edge 49, Type (0, 1), BuildingBlock: TEMPAE_clean_linker_10, # of connection points: 2
#     Edge 50, Type (0, 1), BuildingBlock: TEMPAE_clean_linker_10, # of connection points: 2
#     Edge 51, Type (0, 1), BuildingBlock: TEMPAE_clean_linker_10, # of connection points: 2
#     Edge 52, Type (0, 1), BuildingBlock: TEMPAE_clean_linker_10, # of connection points: 2
#     Edge 53, Type (0, 1), BuildingBlock: TEMPAE_clean_linker_10, # of connection points: 2
#     Edge 54, Type (0, 1), BuildingBlock: TEMPAE_clean_linker_10, # of connection points: 2
#     Edge 55, Type (0, 1), BuildingBlock: TEMPAE_clean_linker_10, # of connection points: 2
#     Edge 56, Type (0, 1), BuildingBlock: TEMPAE_clean_linker_10, # of connection points: 2
#     Edge 57, Type (0, 1), BuildingBlock: TEMPAE_clean_linker_10, # of connection points: 2
#     Edge 58, Type (0, 1), BuildingBlock: TEMPAE_clean_linker_10, # of connection points: 2
#     Edge 59, Type (0, 1), BuildingBlock: TEMPAE_clean_linker_10, # of connection points: 2
#     Edge 60, Type (0, 1), BuildingBlock: TEMPAE_clean_linker_10, # of connection points: 2
#     Edge 61, Type (0, 1), BuildingBlock: TEMPAE_clean_linker_10, # of connection points: 2
#     Edge 62, Type (0, 1), BuildingBlock: TEMPAE_clean_linker_10, # of connection points: 2
#     Edge 63, Type (0, 1), BuildingBlock: TEMPAE_clean_linker_10, # of connection points: 2
#     Edge 64, Type (0, 1), BuildingBlock: TEMPAE_clean_linker_10, # of connection points: 2
#     Edge 65, Type (0, 1), BuildingBlock: TEMPAE_clean_linker_10, # of connection points: 2
#     Edge 66, Type (0, 1), BuildingBlock: TEMPAE_clean_linker_10, # of connection points: 2
#     Edge 67, Type (0, 1), BuildingBlock: TEMPAE_clean_linker_10, # of connection points: 2
#     Edge 68, Type (0, 1), BuildingBlock: TEMPAE_clean_linker_10, # of connection points: 2
#     Edge 69, Type (0, 1), BuildingBlock: TEMPAE_clean_linker_10, # of connection points: 2
#     Edge 70, Type (0, 1), BuildingBlock: TEMPAE_clean_linker_10, # of connection points: 2
#     Edge 71, Type (0, 1), BuildingBlock: TEMPAE_clean_linker_10, # of connection points: 2
#     Edge 72, Type (0, 1), BuildingBlock: TEMPAE_clean_linker_10, # of connection points: 2
#     Edge 73, Type (0, 1), BuildingBlock: TEMPAE_clean_linker_10, # of connection points: 2
#     Edge 74, Type (0, 1), BuildingBlock: TEMPAE_clean_linker_10, # of connection points: 2
#     Edge 75, Type (0, 1), BuildingBlock: TEMPAE_clean_linker_10, # of connection points: 2
#     Edge 76, Type (0, 1), BuildingBlock: TEMPAE_clean_linker_10, # of connection points: 2
#     Edge 77, Type (0, 1), BuildingBlock: TEMPAE_clean_linker_10, # of connection points: 2
#     Edge 78, Type (0, 1), BuildingBlock: TEMPAE_clean_linker_10, # of connection points: 2
#     Edge 79, Type (0, 1), BuildingBlock: TEMPAE_clean_linker_10, # of connection points: 2
#     Edge 80, Type (0, 1), BuildingBlock: TEMPAE_clean_linker_10, # of connection points: 2
#     Edge 81, Type (0, 1), BuildingBlock: TEMPAE_clean_linker_10, # of connection points: 2
#     Edge 82, Type (0, 1), BuildingBlock: TEMPAE_clean_linker_10, # of connection points: 2
#     Edge 83, Type (0, 1), BuildingBlock: TEMPAE_clean_linker_10, # of connection points: 2
#     Edge 84, Type (0, 1), BuildingBlock: TEMPAE_clean_linker_10, # of connection points: 2
#     Edge 85, Type (0, 1), BuildingBlock: TEMPAE_clean_linker_10, # of connection points: 2
#     Edge 86, Type (0, 1), BuildingBlock: TEMPAE_clean_linker_10, # of connection points: 2
#     Edge 87, Type (0, 1), BuildingBlock: TEMPAE_clean_linker_10, # of connection points: 2
#     Edge 88, Type (0, 1), BuildingBlock: TEMPAE_clean_linker_10, # of connection points: 2
#     Edge 89, Type (0, 1), BuildingBlock: TEMPAE_clean_linker_10, # of connection points: 2
#     Edge 90, Type (0, 1), BuildingBlock: TEMPAE_clean_linker_10, # of connection points: 2
#     Edge 91, Type (0, 1), BuildingBlock: TEMPAE_clean_linker_10, # of connection points: 2
#     Edge 92, Type (0, 1), BuildingBlock: TEMPAE_clean_linker_10, # of connection points: 2
#     Edge 93, Type (0, 1), BuildingBlock: TEMPAE_clean_linker_10, # of connection points: 2
#     Edge 94, Type (0, 1), BuildingBlock: TEMPAE_clean_linker_10, # of connection points: 2
#     Edge 95, Type (0, 1), BuildingBlock: TEMPAE_clean_linker_10, # of connection points: 2
#     Edge 96, Type (0, 1), BuildingBlock: TEMPAE_clean_linker_10, # of connection points: 2
#     Edge 97, Type (0, 1), BuildingBlock: TEMPAE_clean_linker_10, # of connection points: 2
#     Edge 98, Type (0, 1), BuildingBlock: TEMPAE_clean_linker_10, # of connection points: 2
#     Edge 99, Type (0, 1), BuildingBlock: TEMPAE_clean_linker_10, # of connection points: 2
#     Edge 100, Type (0, 1), BuildingBlock: TEMPAE_clean_linker_10, # of connection points: 2
#     Edge 101, Type (0, 1), BuildingBlock: TEMPAE_clean_linker_10, # of connection points: 2
#     Edge 102, Type (0, 1), BuildingBlock: TEMPAE_clean_linker_10, # of connection points: 2
#     Edge 103, Type (0, 1), BuildingBlock: TEMPAE_clean_linker_10, # of connection points: 2
#     Edge 104, Type (0, 1), BuildingBlock: TEMPAE_clean_linker_10, # of connection points: 2
#     Edge 105, Type (0, 1), BuildingBlock: TEMPAE_clean_linker_10, # of connection points: 2
#     Edge 106, Type (0, 1), BuildingBlock: TEMPAE_clean_linker_10, # of connection points: 2
#     Edge 107, Type (0, 1), BuildingBlock: TEMPAE_clean_linker_10, # of connection points: 2
# Relax obj value: 0.076
# Max RMSD: 0.210
# Mean RMSD: 0.115
data_MOF--net-ptr--node1-NAHDIM_clean_sbu_0--node2-GIZVER_clean_linker_0--edge1-TEMPAE_clean_linker_10
_symmetry_space_group_name_H-M    P1
_symmetry_Int_Tables_number       1
_symmetry_cell_setting            triclinic
loop_
_symmetry_equiv_pos_as_xyz
'x, y, z'
_cell_length_a     82.126036
_cell_length_b     80.662147
_cell_length_c     47.513363
_cell_angle_alpha  92.144629
_cell_angle_beta   89.418758
_cell_angle_gamma 121.71918
loop_
_atom_site_label
_atom_site_type_symbol
_atom_site_fract_x
_atom_site_fract_y
_atom_site_fract_z
_atom_type_partial_charge
C0 C 0.03017 0.376 0.03211 0.0
O1 O 0.01702 0.36903 0.05168 0.0
O2 O 0.98103 0.36051 0.00914 0.0
Zn3 Zn 0.00507 0.38748 0.01252 0.0
O4 O 0.00583 0.40259 0.0477 0.0
C5 C 0.00745 0.39921 0.95474 0.0
O6 O 0.00894 0.38404 0.94869 0.0
O7 O 0.02832 0.38491 0.01206 0.0
C8 C 0.99206 0.4046 0.0553 0.0
O9 O 0.9759 0.39547 0.04089 0.0
C10 C 0.97009 0.35069 0.02906 0.0
O11 O 0.974 0.35815 0.05492 0.0
O12 O 0.00581 0.40327 0.98028 0.0
C13 C 0.65872 0.63102 0.02884 0.0
O14 O 0.65863 0.6469 0.03558 0.0
O15 O 0.62086 0.64028 0.01925 0.0
Zn16 Zn 0.61739 0.6135 0.02069 0.0
O17 O 0.60353 0.5979 0.98565 0.0
C18 C 0.60719 0.59844 0.07713 0.0
O19 O 0.62575 0.60861 0.08189 0.0
O20 O 0.643 0.61536 0.02245 0.0
C21 C 0.59072 0.59965 0.97385 0.0
O22 O 0.58671 0.61238 0.98435 0.0
C23 C 0.6232 0.65043 0.04166 0.0
O24 O 0.6234 0.64336 0.06602 0.0
O25 O 0.60076 0.59872 0.05307 0.0
C26 C 0.38029 0.04389 0.98627 0.0
O27 O 0.37923 0.03473 0.96226 0.0
O28 O 0.35678 0.9892 0.00597 0.0
Zn29 Zn 0.38379 0.01301 0.00653 0.0
O30 O 0.39738 0.01267 0.97108 0.0
C31 C 0.39402 0.01177 0.06497 0.0
O32 O 0.3778 0.01058 0.0711 0.0
O33 O 0.38238 0.03731 0.00894 0.0
C34 C 0.41551 0.02088 0.97097 0.0
O35 O 0.42529 0.02981 0.99413 0.0
C36 C 0.35254 0.97403 0.01919 0.0
O37 O 0.36601 0.9735 0.03302 0.0
O38 O 0.39909 0.01297 0.03942 0.0
C39 C 0.96633 0.62875 0.9872 0.0
O40 O 0.97448 0.62762 0.96387 0.0
O41 O 0.02054 0.65227 0.01576 0.0
Zn42 Zn 0.99652 0.62552 0.01142 0.0
O43 O 0.9973 0.61121 0.97598 0.0
C44 C 0.00838 0.60648 0.04813 0.0
O45 O 0.02253 0.6134 0.03018 0.0
O46 O 0.97326 0.62815 0.01069 0.0
C47 C 0.01271 0.61419 0.96478 0.0
O48 O 0.02925 0.62771 0.97585 0.0
C49 C 0.02758 0.66485 0.99676 0.0
O50 O 0.01897 0.66064 0.97207 0.0
O51 O 0.99506 0.60985 0.0447 0.0
C52 C 0.34006 0.38033 0.02187 0.0
O53 O 0.34595 0.37443 0.04268 0.0
O54 O 0.37415 0.36463 0.00048 0.0
Zn55 Zn 0.37737 0.39137 0.00338 0.0
O56 O 0.39028 0.40544 0.04019 0.0
C57 C 0.40808 0.40563 0.96389 0.0
O58 O 0.41133 0.39375 0.97746 0.0
O59 O 0.35128 0.38842 0.00141 0.0
C60 C 0.40506 0.40622 0.04987 0.0
O61 O 0.41229 0.3973 0.03578 0.0
C62 C 0.37226 0.35395 0.02084 0.0
O63 O 0.37204 0.36007 0.04678 0.0
O64 O 0.3939 0.40711 0.971 0.0
C65 C 0.62163 0.95392 0.98435 0.0
O66 O 0.61005 0.95104 0.96332 0.0
O67 O 0.6495 0.01685 0.99171 0.0
Zn68 Zn 0.62396 0.99168 0.99627 0.0
O69 O 0.61117 0.99322 0.03177 0.0
C70 C 0.61085 0.99093 0.93874 0.0
O71 O 0.62856 0.99687 0.93171 0.0
O72 O 0.6286 0.96953 -0.0004 0.0
C73 C 0.60165 0.00157 0.03223 0.0
O74 O 0.60086 0.0099 0.00947 0.0
C75 C 0.65798 0.02966 0.01151 0.0
O76 O 0.64982 0.02686 0.03623 0.0
O77 O 0.60594 0.9873 0.96428 0.0
C78 C 0.69341 0.70151 0.33073 0.0
O79 O 0.67982 0.69019 0.31243 0.0
O80 O 0.64406 0.69065 0.34711 0.0
Zn81 Zn 0.66878 0.71706 0.34614 0.0
O82 O 0.67037 0.73239 0.38154 0.0
C83 C 0.67595 0.73328 0.28924 0.0
O84 O 0.68375 0.72292 0.28365 0.0
O85 O 0.69168 0.71373 0.34617 0.0
C86 C 0.66166 0.74158 0.3834 0.0
O87 O 0.65117 0.74066 0.362 0.0
C88 C 0.63573 0.68061 0.3248 0.0
O89 O 0.64322 0.68763 0.30027 0.0
O90 O 0.66897 0.73264 0.31345 0.0
C91 C 0.32845 0.95767 0.33325 0.0
O92 O 0.31967 0.95921 0.31146 0.0
O93 O 0.29735 0.97726 0.36078 0.0
Zn94 Zn 0.29406 0.95054 0.35873 0.0
O95 O 0.27864 0.9346 0.32456 0.0
C96 C 0.26793 0.91805 0.39263 0.0
O97 O 0.26385 0.90816 0.36847 0.0
O98 O 0.32018 0.95387 0.35694 0.0
C99 C 0.26364 0.93367 0.31561 0.0
O100 O 0.25757 0.94411 0.32845 0.0
C101 C 0.29808 0.98699 0.33981 0.0
O102 O 0.29635 0.97952 0.31418 0.0
O103 O 0.28051 0.9362 0.39352 0.0
C104 C 0.0463 0.37738 0.3292 0.0
O105 O 0.04426 0.36727 0.30575 0.0
O106 O 0.02821 0.32466 0.35505 0.0
Zn107 Zn 0.05406 0.3494 0.35112 0.0
O108 O 0.06679 0.34801 0.31501 0.0
C109 C 0.06386 0.3452 0.40766 0.0
O110 O 0.04534 0.33692 0.41144 0.0
O111 O 0.05067 0.37253 0.35174 0.0
C112 C 0.08067 0.34522 0.31551 0.0
O113 O 0.08661 0.34294 0.33979 0.0
C114 C 0.01656 0.31501 0.33489 0.0
O115 O 0.02126 0.32108 0.3091 0.0
O116 O 0.07082 0.35215 0.3839 0.0
C117 C 0.63709 0.96232 0.31492 0.0
O118 O 0.64608 0.96169 0.29226 0.0
O119 O 0.69063 0.98732 0.34233 0.0
Zn120 Zn 0.66721 0.96012 0.34045 0.0
O121 O 0.66779 0.94483 0.30624 0.0
C122 C 0.68205 0.94633 0.38122 0.0
O123 O 0.69716 0.95578 0.36527 0.0
O124 O 0.64347 0.96177 0.33892 0.0
C125 C 0.68303 0.94696 0.29564 0.0
O126 O 0.69967 0.9601 0.30685 0.0
C127 C 0.69727 0.9988 0.32194 0.0
O128 O 0.68865 0.99299 0.29724 0.0
O129 O 0.66695 0.94618 0.37504 0.0
C130 C 0.00418 0.71303 0.35646 0.0
O131 O 0.00955 0.70628 0.37681 0.0
O132 O 0.03809 0.69719 0.33516 0.0
Zn133 Zn 0.04152 0.72397 0.33827 0.0
O134 O 0.05508 0.73808 0.37457 0.0
C135 C 0.07506 0.74318 0.30518 0.0
O136 O 0.0813 0.73727 0.32554 0.0
O137 O 0.01573 0.72156 0.33652 0.0
C138 C 0.06477 0.75662 0.3763 0.0
O139 O 0.06563 0.76641 0.35427 0.0
C140 C 0.03754 0.68715 0.35559 0.0
O141 O 0.03901 0.69408 0.38152 0.0
O142 O 0.0579 0.73924 0.30589 0.0
C143 C 0.28147 0.28299 0.3226 0.0
O144 O 0.2717 0.28133 0.29983 0.0
O145 O 0.30856 0.34498 0.33399 0.0
Zn146 Zn 0.28261 0.3199 0.33554 0.0
O147 O 0.26716 0.32015 0.3686 0.0
C148 C 0.26858 0.33165 0.29082 0.0
O149 O 0.28051 0.34873 0.30299 0.0
O150 O 0.287 0.29764 0.3395 0.0
C151 C 0.26687 0.33501 0.37776 0.0
O152 O 0.27778 0.35187 0.36611 0.0
C153 C 0.31868 0.35513 0.35525 0.0
O154 O 0.3122 0.34953 0.38072 0.0
O155 O 0.26719 0.3165 0.30059 0.0
C156 C 0.36577 0.03923 0.65949 0.0
O157 O 0.35655 0.03276 0.63528 0.0
O158 O 0.31313 0.02313 0.67059 0.0
Zn159 Zn 0.33727 0.04995 0.6733 0.0
O160 O 0.33696 0.06577 0.70704 0.0
C161 C 0.33065 0.07359 0.63728 0.0
O162 O 0.32087 0.07368 0.65928 0.0
O163 O 0.36019 0.04706 0.67779 0.0
C164 C 0.35036 0.08361 0.70928 0.0
O165 O 0.3636 0.09069 0.68985 0.0
C166 C 0.29788 0.01779 0.68439 0.0
O167 O 0.29728 0.03022 0.70239 0.0
O168 O 0.33916 0.06421 0.63808 0.0
C169 C 0.99221 0.29573 0.66074 0.0
O170 O 0.98558 0.29989 0.63878 0.0
O171 O 0.96081 0.31525 0.68587 0.0
Zn172 Zn 0.95655 0.28824 0.68152 0.0
O173 O 0.94355 0.27535 0.64453 0.0
C174 C 0.94528 0.27598 0.73827 0.0
O175 O 0.96242 0.29113 0.74416 0.0
O176 O 0.98213 0.29023 0.68284 0.0
C177 C 0.92546 0.26575 0.6414 0.0
O178 O 0.91468 0.26436 0.66292 0.0
C179 C 0.95671 0.32344 0.6672 0.0
O180 O 0.94912 0.31405 0.64311 0.0
O181 O 0.93975 0.27182 0.71273 0.0
C182 C 0.71553 0.70924 0.65639 0.0
O183 O 0.71303 0.69845 0.63351 0.0
O184 O 0.69563 0.65623 0.67682 0.0
Zn185 Zn 0.72211 0.68091 0.67809 0.0
O186 O 0.73603 0.68095 0.64302 0.0
C187 C 0.73755 0.68792 0.73569 0.0
O188 O 0.72617 0.69447 0.74127 0.0
O189 O 0.71965 0.7046 0.67935 0.0
C190 C 0.74199 0.66928 0.6403 0.0
O191 O 0.73876 0.65726 0.66052 0.0
C192 C 0.68661 0.64838 0.69915 0.0
O193 O 0.6947 0.6564 0.72365 0.0
O194 O 0.73789 0.68162 0.71094 0.0
C195 C 0.30319 0.29663 0.6529 0.0
O196 O 0.31129 0.29652 0.62895 0.0
O197 O 0.35708 0.31874 0.67699 0.0
Zn198 Zn 0.33308 0.29195 0.67421 0.0
O199 O 0.33256 0.27719 0.63854 0.0
C200 C 0.34715 0.27554 0.71216 0.0
O201 O 0.36207 0.28448 0.69574 0.0
O202 O 0.30999 0.29474 0.67562 0.0
C203 C 0.34759 0.27924 0.62727 0.0
O204 O 0.36439 0.292 0.63844 0.0
C205 C 0.3639 0.33075 0.65725 0.0
O206 O 0.35513 0.3258 0.63263 0.0
O207 O 0.33261 0.27673 0.70729 0.0
C208 C 0.67551 0.04812 0.68948 0.0
O209 O 0.68153 0.04204 0.70989 0.0
O210 O 0.70792 0.0308 0.66712 0.0
Zn211 Zn 0.71206 0.0579 0.66893 0.0
O212 O 0.72652 0.07274 0.70442 0.0
C213 C 0.74062 0.06946 0.62624 0.0
O214 O 0.74316 0.05672 0.6387 0.0
O215 O 0.68635 0.05584 0.66853 0.0
C216 C 0.74209 0.07422 0.71184 0.0
O217 O 0.74893 0.06552 0.69627 0.0
C218 C 0.70661 0.02073 0.68798 0.0
O219 O 0.70768 0.02781 0.71371 0.0
O220 O 0.72766 0.07241 0.63519 0.0
C221 C 0.95677 0.62762 0.68274 0.0
O222 O 0.96476 0.64202 0.70173 0.0
O223 O 0.97047 0.67598 0.66731 0.0
Zn224 Zn 0.94391 0.65178 0.66602 0.0
O225 O 0.93026 0.65096 0.70177 0.0
C226 C 0.93272 0.65209 0.60785 0.0
O227 O 0.94847 0.65245 0.60126 0.0
O228 O 0.94639 0.62817 0.6636 0.0
C229 C 0.92019 0.65869 0.70357 0.0
O230 O 0.91908 0.66769 0.68187 0.0
C231 C 0.97452 0.69201 0.65698 0.0
O232 O 0.96093 0.69321 0.64472 0.0
O233 O 0.92824 0.65164 0.63358 0.0
H234 H 0.15293 0.33163 0.13151 0.0
H235 H 0.14478 0.34482 0.04755 0.0
H236 H 0.12619 0.36427 0.11942 0.0
H237 H 0.15017 0.31095 0.0839 0.0
H238 H 0.1573 0.32444 0.05263 0.0
H239 H 0.17302 0.32017 0.12418 0.0
H240 H 0.23265 0.35322 0.10369 0.0
H241 H 0.19104 0.34811 0.04441 0.0
C242 C 0.1487 0.33899 0.11748 0.0
C243 C 0.14014 0.34885 0.1288 0.0
C244 C 0.15112 0.33801 0.08817 0.0
C245 C 0.144 0.34638 0.0702 0.0
C246 C 0.13512 0.35603 0.08139 0.0
C247 C 0.13375 0.35759 0.11068 0.0
C248 C 0.15892 0.32596 0.07597 0.0
C249 C 0.17966 0.33417 0.08409 0.0
C250 C 0.1843 0.32962 0.11006 0.0
C251 C 0.20339 0.33637 0.11719 0.0
C252 C 0.21785 0.34796 0.09837 0.0
C253 C 0.21355 0.35206 0.0721 0.0
C254 C 0.19443 0.34525 0.06496 0.0
H255 H 0.67908 0.82753 0.12775 0.0
H256 H 0.66266 0.80461 0.04236 0.0
H257 H 0.6454 0.76576 0.11067 0.0
H258 H 0.69737 0.84642 0.08271 0.0
H259 H 0.68457 0.83868 0.05003 0.0
H260 H 0.68619 0.85882 0.12286 0.0
H261 H 0.6536 0.88395 0.09984 0.0
H262 H 0.66145 0.84778 0.0395 0.0
C263 C 0.67112 0.81533 0.11298 0.0
C264 C 0.66151 0.79629 0.12288 0.0
C265 C 0.67109 0.81858 0.08399 0.0
C266 C 0.66188 0.80242 0.06482 0.0
C267 C 0.65236 0.78339 0.07458 0.0
C268 C 0.65192 0.78052 0.10349 0.0
C269 C 0.68275 0.83904 0.07324 0.0
C270 C 0.67399 0.85106 0.08081 0.0
C271 C 0.67727 0.86025 0.10773 0.0
C272 C 0.66999 0.87215 0.1147 0.0
C273 C 0.65915 0.87464 0.09463 0.0
C274 C 0.65616 0.86611 0.06746 0.0
C275 C 0.66351 0.8542 0.0606 0.0
H276 H 0.17521 0.80689 0.13811 0.0
H277 H 0.16639 0.79731 0.04821 0.0
H278 H 0.11836 0.77355 0.10399 0.0
H279 H 0.20076 0.80927 0.10367 0.0
H280 H 0.19798 0.81136 0.06709 0.0
H281 H 0.20231 0.83556 0.1386 0.0
H282 H 0.23556 0.89303 0.10724 0.0
H283 H 0.21315 0.84324 0.04981 0.0
C284 C 0.16578 0.80172 0.11992 0.0
C285 C 0.14597 0.79062 0.12407 0.0
C286 C 0.17337 0.8048 0.09255 0.0
C287 C 0.16074 0.79601 0.06927 0.0
C288 C 0.14084 0.78472 0.07331 0.0
C289 C 0.13367 0.7826 0.10068 0.0
C290 C 0.1948 0.81495 0.08849 0.0
C291 C 0.20507 0.83688 0.09336 0.0
C292 C 0.2077 0.845 0.12093 0.0
C293 C 0.21859 0.86526 0.12608 0.0
C294 C 0.22685 0.87741 0.10324 0.0
C295 C 0.22555 0.86971 0.07578 0.0
C296 C 0.21417 0.84938 0.07087 0.0
H297 H 0.37735 0.21359 0.88039 0.0
H298 H 0.38119 0.22517 0.97008 0.0
H299 H 0.35174 0.24356 0.91755 0.0
H300 H 0.40327 0.21491 0.91222 0.0
H301 H 0.39943 0.21284 0.94921 0.0
H302 H 0.3797 0.18698 0.87867 0.0
H303 H 0.35786 0.13055 0.91197 0.0
H304 H 0.38284 0.18111 0.96799 0.0
C305 C 0.3732 0.21851 0.89904 0.0
C306 C 0.36329 0.22816 0.89595 0.0
C307 C 0.37919 0.21674 0.92583 0.0
C308 C 0.37557 0.22529 0.94959 0.0
C309 C 0.36565 0.235 0.94668 0.0
C310 C 0.35901 0.2357 0.91997 0.0
C311 C 0.39191 0.20848 0.92842 0.0
C312 C 0.38105 0.1865 0.92411 0.0
C313 C 0.37599 0.17791 0.8967 0.0
C314 C 0.36765 0.15773 0.89225 0.0
C315 C 0.36387 0.14609 0.91545 0.0
C316 C 0.36953 0.15438 0.94269 0.0
C317 C 0.37794 0.17459 0.94705 0.0
H318 H 0.85171 0.18044 0.89834 0.0
H319 H 0.85295 0.19848 0.98528 0.0
H320 H 0.88005 0.24115 0.92197 0.0
H321 H 0.84717 0.15889 0.94112 0.0
H322 H 0.84032 0.16478 0.97389 0.0
H323 H 0.82578 0.15084 0.89743 0.0
H324 H 0.7659 0.12075 0.91546 0.0
H325 H 0.80693 0.15164 0.98231 0.0
C326 C 0.85509 0.19172 0.91428 0.0
C327 C 0.8656 0.21127 0.90666 0.0
C328 C 0.8497 0.18683 0.94245 0.0
C329 C 0.85592 0.20194 0.96329 0.0
C330 C 0.86674 0.22156 0.95585 0.0
C331 C 0.87101 0.22601 0.92751 0.0
C332 C 0.83955 0.16571 0.95068 0.0
C333 C 0.81887 0.15392 0.94068 0.0
C334 C 0.81446 0.14751 0.91221 0.0
C335 C 0.7954 0.13563 0.90302 0.0
C336 C 0.78067 0.13021 0.92241 0.0
C337 C 0.78467 0.13569 0.95098 0.0
C338 C 0.8038 0.14769 0.9601 0.0
H339 H 0.82306 0.62964 0.87411 0.0
H340 H 0.83264 0.6288 0.96289 0.0
H341 H 0.87975 0.65175 0.9055 0.0
H342 H 0.79637 0.60839 0.90766 0.0
H343 H 0.80052 0.61272 0.94478 0.0
H344 H 0.80663 0.64338 0.88101 0.0
H345 H 0.77184 0.66336 0.91625 0.0
H346 H 0.78079 0.62377 0.96204 0.0
C347 C 0.83275 0.63378 0.89187 0.0
C348 C 0.8524 0.64255 0.8869 0.0
C349 C 0.82553 0.6299 0.91944 0.0
C350 C 0.83814 0.63309 0.94186 0.0
C351 C 0.85773 0.64089 0.93682 0.0
C352 C 0.86475 0.64621 0.90954 0.0
C353 C 0.80414 0.62003 0.92427 0.0
C354 C 0.79668 0.63373 0.92329 0.0
C355 C 0.799 0.64427 0.89897 0.0
C356 C 0.79031 0.65516 0.89669 0.0
C357 C 0.77904 0.65542 0.91864 0.0
C358 C 0.77483 0.64351 0.94171 0.0
C359 C 0.78424 0.63325 0.9445 0.0
H360 H 0.81204 0.65514 0.4549 0.0
H361 H 0.80305 0.66527 0.36934 0.0
H362 H 0.77285 0.67322 0.43763 0.0
H363 H 0.81582 0.63746 0.40707 0.0
H364 H 0.82227 0.65184 0.37681 0.0
H365 H 0.83623 0.6508 0.45167 0.0
H366 H 0.89581 0.69051 0.43727 0.0
H367 H 0.85495 0.6777 0.37142 0.0
C368 C 0.80586 0.66004 0.43989 0.0
C369 C 0.79245 0.66462 0.4495 0.0
C370 C 0.81016 0.66054 0.41098 0.0
C371 C 0.80059 0.66562 0.39175 0.0
C372 C 0.78683 0.66981 0.40132 0.0
C373 C 0.78327 0.66972 0.43018 0.0
C374 C 0.82242 0.65271 0.40024 0.0
C375 C 0.84292 0.66427 0.41114 0.0
C376 C 0.84739 0.66135 0.43841 0.0
C377 C 0.86638 0.67137 0.44827 0.0
C378 C 0.88103 0.6838 0.43033 0.0
C379 C 0.87712 0.68585 0.4025 0.0
C380 C 0.858 0.67638 0.39308 0.0
H381 H 0.34153 0.15882 0.45906 0.0
H382 H 0.33163 0.13782 0.37233 0.0
H383 H 0.31322 0.09747 0.43888 0.0
H384 H 0.36237 0.17923 0.41517 0.0
H385 H 0.35032 0.17198 0.38193 0.0
H386 H 0.35058 0.19093 0.45488 0.0
H387 H 0.31561 0.21346 0.43226 0.0
H388 H 0.32542 0.17885 0.37167 0.0
C389 C 0.33539 0.14689 0.44353 0.0
C390 C 0.32656 0.12766 0.45253 0.0
C391 C 0.33686 0.15076 0.41461 0.0
C392 C 0.3298 0.13507 0.39464 0.0
C393 C 0.32099 0.11583 0.40346 0.0
C394 C 0.31919 0.11229 0.43227 0.0
C395 C 0.34794 0.17157 0.40506 0.0
C396 C 0.33822 0.18264 0.41292 0.0
C397 C 0.34124 0.19177 0.43986 0.0
C398 C 0.33316 0.20295 0.44693 0.0
C399 C 0.32176 0.20469 0.427 0.0
C400 C 0.31906 0.19627 0.39982 0.0
C401 C 0.32721 0.18512 0.39282 0.0
H402 H 0.83978 0.13728 0.46113 0.0
H403 H 0.83384 0.13379 0.37082 0.0
H404 H 0.78398 0.10827 0.42294 0.0
H405 H 0.86665 0.14324 0.42857 0.0
H406 H 0.86466 0.14569 0.39179 0.0
H407 H 0.86214 0.16872 0.46185 0.0
H408 H 0.90184 0.22661 0.43596 0.0
H409 H 0.88396 0.17808 0.37735 0.0
C410 C 0.83088 0.13366 0.44252 0.0
C411 C 0.8109 0.12301 0.4453 0.0
C412 C 0.83937 0.13851 0.41576 0.0
C413 C 0.82752 0.1314 0.39154 0.0
C414 C 0.8075 0.12023 0.39408 0.0
C415 C 0.79942 0.11692 0.42096 0.0
C416 C 0.86092 0.14893 0.41301 0.0
C417 C 0.87086 0.17081 0.41841 0.0
C418 C 0.87036 0.17841 0.44533 0.0
C419 C 0.8812 0.19853 0.45166 0.0
C420 C 0.8926 0.21117 0.43069 0.0
C421 C 0.89377 0.20397 0.4039 0.0
C422 C 0.88275 0.18375 0.39779 0.0
H423 H 0.03611 0.54171 0.21662 0.0
H424 H 0.04098 0.5546 0.30609 0.0
H425 H 0.01438 0.57568 0.25268 0.0
H426 H 0.06008 0.54002 0.24747 0.0
H427 H 0.05837 0.5411 0.28484 0.0
H428 H 0.0313 0.5113 0.21964 0.0
H429 H 0.00854 0.45703 0.26069 0.0
H430 H 0.04392 0.511 0.30715 0.0
C431 C 0.03268 0.54751 0.23509 0.0
C432 C 0.02405 0.55839 0.23163 0.0
C433 C 0.03833 0.5455 0.26203 0.0
C434 C 0.03563 0.55499 0.28552 0.0
C435 C 0.02692 0.56587 0.28221 0.0
C436 C 0.02066 0.56691 0.25539 0.0
C437 C 0.04972 0.53576 0.26502 0.0
C438 C 0.0372 0.5137 0.26424 0.0
C439 C 0.02879 0.50336 0.23864 0.0
C440 C 0.01863 0.48285 0.23698 0.0
C441 C 0.01636 0.47283 0.26163 0.0
C442 C 0.02604 0.48277 0.28661 0.0
C443 C 0.03611 0.50324 0.28803 0.0
H444 H 0.51093 0.5062 0.23784 0.0
H445 H 0.5129 0.52667 0.32366 0.0
H446 H 0.5403 0.56741 0.25816 0.0
H447 H 0.5053 0.48531 0.28117 0.0
H448 H 0.49974 0.49256 0.31398 0.0
H449 H 0.48316 0.47909 0.2378 0.0
H450 H 0.42386 0.44934 0.25926 0.0
H451 H 0.46668 0.47826 0.3244 0.0
C452 C 0.51447 0.51791 0.25307 0.0
C453 C 0.52521 0.5372 0.24435 0.0
C454 C 0.50908 0.51382 0.28144 0.0
C455 C 0.51573 0.52949 0.30147 0.0
C456 C 0.52685 0.54882 0.29291 0.0
C457 C 0.53099 0.55246 0.26439 0.0
C458 C 0.49844 0.49291 0.29075 0.0
C459 C 0.4775 0.48158 0.28186 0.0
C460 C 0.4723 0.47572 0.25338 0.0
C461 C 0.45301 0.46423 0.24505 0.0
C462 C 0.43881 0.45852 0.26546 0.0
C463 C 0.44361 0.46324 0.29405 0.0
C464 C 0.46296 0.47494 0.30223 0.0
H465 H 0.49754 0.96891 0.19337 0.0
H466 H 0.50353 0.95892 0.28005 0.0
H467 H 0.55319 0.98978 0.22831 0.0
H468 H 0.47033 0.94181 0.22112 0.0
H469 H 0.47234 0.94229 0.25851 0.0
H470 H 0.47155 0.97109 0.198 0.0
H471 H 0.44085 0.99205 0.245 0.0
H472 H 0.45917 0.95775 0.28551 0.0
C473 C 0.50649 0.97131 0.21147 0.0
C474 C 0.52641 0.98117 0.2082 0.0
C475 C 0.49809 0.96378 0.23758 0.0
C476 C 0.50989 0.96559 0.2603 0.0
C477 C 0.52983 0.97513 0.25709 0.0
C478 C 0.53792 0.98327 0.23125 0.0
C479 C 0.47652 0.95175 0.24005 0.0
C480 C 0.4678 0.96427 0.24212 0.0
C481 C 0.46629 0.97305 0.21802 0.0
C482 C 0.45703 0.98352 0.2192 0.0
C483 C 0.44912 0.98508 0.24462 0.0
C484 C 0.4495 0.97556 0.26847 0.0
C485 C 0.45919 0.96547 0.26731 0.0
H486 H 0.48959 0.00388 0.79337 0.0
H487 H 0.47527 0.00332 0.706 0.0
H488 H 0.45294 0.02433 0.77044 0.0
H489 H 0.48641 0.97785 0.74926 0.0
H490 H 0.49415 0.99006 0.71704 0.0
H491 H 0.50777 0.98932 0.79146 0.0
H492 H 0.56787 0.02578 0.77625 0.0
H493 H 0.5275 0.01601 0.71117 0.0
C494 C 0.48285 0.00739 0.77719 0.0
C495 C 0.47175 0.01531 0.78523 0.0
C496 C 0.48467 0.00339 0.74857 0.0
C497 C 0.47483 0.00715 0.72799 0.0
C498 C 0.46346 0.01476 0.73598 0.0
C499 C 0.46225 0.01904 0.76442 0.0
C500 C 0.49463 0.99257 0.74028 0.0
C501 C 0.51517 0.00264 0.75079 0.0
C502 C 0.51929 0.99917 0.77795 0.0
C503 C 0.53829 0.00799 0.78743 0.0
C504 C 0.55318 0.0199 0.76945 0.0
C505 C 0.54948 0.02259 0.74184 0.0
C506 C 0.53043 0.0142 0.73265 0.0
H507 H 0.01376 0.49538 0.79453 0.0
H508 H 0.99647 0.47532 0.70835 0.0
H509 H 0.97979 0.43411 0.77357 0.0
H510 H 0.03126 0.5162 0.75154 0.0
H511 H 0.01905 0.50922 0.71833 0.0
H512 H 0.01927 0.52721 0.79203 0.0
H513 H 0.98369 0.54935 0.77104 0.0
H514 H 0.994 0.51594 0.70896 0.0
C515 C 0.00574 0.48362 0.77909 0.0
C516 C 0.99614 0.46426 0.78756 0.0
C517 C 0.0055 0.48781 0.75062 0.0
C518 C 0.99602 0.47232 0.73048 0.0
C519 C 0.98652 0.45291 0.7388 0.0
C520 C 0.98635 0.44909 0.76734 0.0
C521 C 0.0168 0.50866 0.74149 0.0
C522 C 0.00704 0.51955 0.74995 0.0
C523 C 0.00993 0.52823 0.77721 0.0
C524 C 1.00166 0.53915 0.78484 0.0
C525 C 0.98999 0.5408 0.76531 0.0
C526 C 0.98727 0.53265 0.73795 0.0
C527 C 0.99577 0.52195 0.73028 0.0
H528 H 0.50788 0.47224 0.79834 0.0
H529 H 0.50101 0.4647 0.70812 0.0
H530 H 0.45168 0.44101 0.76127 0.0
H531 H 0.5344 0.47655 0.76612 0.0
H532 H 0.53201 0.47723 0.72895 0.0
H533 H 0.53249 0.5033 0.7972 0.0
H534 H 0.56716 0.5599 0.76322 0.0
H535 H 0.54978 0.50875 0.71056 0.0
C536 C 0.49878 0.4676 0.77979 0.0
C537 C 0.47883 0.45683 0.783 0.0
C538 C 0.50697 0.4712 0.75278 0.0
C539 C 0.49488 0.46309 0.72889 0.0
C540 C 0.4749 0.45204 0.73189 0.0
C541 C 0.46709 0.44968 0.75888 0.0
C542 C 0.52848 0.48144 0.74964 0.0
C543 C 0.53831 0.50342 0.75278 0.0
C544 C 0.53901 0.51225 0.77924 0.0
C545 C 0.54948 0.53262 0.78324 0.0
C546 C 0.55887 0.54416 0.76021 0.0
C547 C 0.55952 0.53575 0.73421 0.0
C548 C 0.54898 0.51533 0.73043 0.0
H549 H 0.7102 0.88148 0.54873 0.0
H550 H 0.7096 0.88803 0.63904 0.0
H551 H 0.6851 0.91179 0.58657 0.0
H552 H 0.73169 0.87689 0.58046 0.0
H553 H 0.72824 0.87601 0.61764 0.0
H554 H 0.69924 0.84968 0.55086 0.0
H555 H 0.68243 0.79352 0.5807 0.0
H556 H 0.71645 0.84453 0.6339 0.0
C557 C 0.7054 0.88573 0.5674 0.0
C558 C 0.69642 0.89632 0.56449 0.0
C559 C 0.70944 0.88182 0.59426 0.0
C560 C 0.70532 0.88968 0.61834 0.0
C561 C 0.69666 0.90064 0.61558 0.0
C562 C 0.6916 0.90316 0.58872 0.0
C563 C 0.72055 0.87177 0.59699 0.0
C564 C 0.7081 0.84973 0.59362 0.0
C565 C 0.69858 0.84085 0.56787 0.0
C566 C 0.68901 0.82056 0.56322 0.0
C567 C 0.68882 0.80906 0.58475 0.0
C568 C 0.69872 0.81756 0.61018 0.0
C569 C 0.70826 0.8379 0.61462 0.0
H570 H 0.17968 0.84042 0.56997 0.0
H571 H 0.17544 0.86746 0.6475 0.0
H572 H 0.21109 0.90266 0.5805 0.0
H573 H 0.16627 0.82176 0.61479 0.0
H574 H 0.16051 0.83264 0.64363 0.0
H575 H 0.14836 0.83148 0.56547 0.0
H576 H 0.08913 0.78925 0.57661 0.0
H577 H 0.12763 0.8072 0.64715 0.0
C578 C 0.18314 0.85337 0.58258 0.0
C579 C 0.1954 0.87177 0.57172 0.0
C580 C 0.17477 0.85161 0.6092 0.0
C581 C 0.18077 0.86862 0.62626 0.0
C582 C 0.19411 0.88711 0.61612 0.0
C583 C 0.20076 0.88849 0.58851 0.0
C584 C 0.16089 0.83156 0.62025 0.0
C585 C 0.14058 0.82176 0.60837 0.0
C586 C 0.13696 0.8225 0.57953 0.0
C587 C 0.11842 0.81104 0.56807 0.0
C588 C 0.10338 0.79872 0.58552 0.0
C589 C 0.1066 0.79721 0.61387 0.0
C590 C 0.12511 0.80889 0.62539 0.0
H591 H 0.1662 0.30141 0.54115 0.0
H592 H 0.17018 0.29666 0.63038 0.0
H593 H 0.2212 0.32658 0.58132 0.0
H594 H 0.13816 0.27771 0.56918 0.0
H595 H 0.13959 0.27861 0.60672 0.0
H596 H 0.14392 0.31011 0.54604 0.0
H597 H 0.1088 0.32834 0.58658 0.0
H598 H 0.12283 0.29157 0.62963 0.0
C599 C 0.17483 0.30542 0.56014 0.0
C600 C 0.19485 0.31514 0.55805 0.0
C601 C 0.16581 0.29956 0.5864 0.0
C602 C 0.17702 0.30253 0.61051 0.0
C603 C 0.19703 0.31206 0.60859 0.0
C604 C 0.20576 0.31922 0.58269 0.0
C605 C 0.14418 0.28784 0.58795 0.0
C606 C 0.13573 0.30062 0.58866 0.0
C607 C 0.13667 0.31087 0.56471 0.0
C608 C 0.12728 0.3212 0.56405 0.0
C609 C 0.11706 0.3214 0.58768 0.0
C610 C 0.11521 0.31063 0.61123 0.0
C611 C 0.12472 0.30039 0.61179 0.0
C612 C 0.97885 0.41355 0.09675 0.0
C613 C 0.99448 0.41749 0.07985 0.0
C614 C 0.98136 0.42501 0.12125 0.0
C615 C 0.99984 0.44107 0.12844 0.0
C616 C 0.01543 0.44574 0.11046 0.0
C617 C 0.01261 0.4337 0.08663 0.0
C618 C 0.9645 0.41923 0.14026 0.0
C619 C 0.03526 0.46301 0.11699 0.0
C620 C 0.00634 0.47789 0.18681 0.0
C621 C 0.01278 0.47185 0.20923 0.0
C622 C 1.00188 0.46797 0.16033 0.0
C623 C 0.00348 0.45138 0.15642 0.0
C624 C 0.00955 0.44499 0.17908 0.0
C625 C 0.01451 0.4555 0.20485 0.0
C626 C 0.99594 0.47551 0.13638 0.0
C627 C 0.01124 0.42722 0.17601 0.0
H628 H 0.96481 0.40101 0.09149 0.0
H629 H 0.02466 0.43696 0.0733 0.0
H630 H 0.96667 0.41381 0.16014 0.0
H631 H 0.96333 0.43203 0.14591 0.0
H632 H 0.95079 0.40761 0.13038 0.0
H633 H 0.04514 0.4662 0.09905 0.0
H634 H 0.03467 0.47619 0.12237 0.0
H635 H 0.0413 0.46004 0.13554 0.0
H636 H 0.00489 0.49044 0.18987 0.0
H637 H 0.02021 0.45104 0.22141 0.0
H638 H 0.98182 0.46388 0.12775 0.0
H639 H 0.0064 0.47971 0.11905 0.0
H640 H 0.99503 0.48836 0.14298 0.0
H641 H 0.01448 0.42317 0.19638 0.0
H642 H 0.02281 0.43006 0.16106 0.0
H643 H 0.99774 0.41457 0.16727 0.0
C644 C 0.57465 0.5728 0.09305 0.0
C645 C 0.59375 0.58713 0.09965 0.0
C646 C 0.5616 0.56231 0.11426 0.0
C647 C 0.56774 0.56648 0.14274 0.0
C648 C 0.58705 0.58079 0.14951 0.0
C649 C 0.59987 0.59082 0.12785 0.0
C650 C 0.54121 0.54694 0.10625 0.0
C651 C 0.59407 0.58583 0.17971 0.0
C652 C 0.53337 0.5576 0.20213 0.0
C653 C 0.53263 0.54193 0.21526 0.0
C654 C 0.54402 0.56517 0.17764 0.0
C655 C 0.5539 0.55663 0.16573 0.0
C656 C 0.55191 0.5398 0.17753 0.0
C657 C 0.54137 0.5327 0.20231 0.0
C658 C 0.54577 0.58313 0.16573 0.0
C659 C 0.56193 0.53007 0.16509 0.0
H660 H 0.56988 0.56976 0.07124 0.0
H661 H 0.61458 0.6019 0.13307 0.0
H662 H 0.53717 0.53289 0.11558 0.0
H663 H 0.53134 0.55131 0.11484 0.0
H664 H 0.53903 0.54461 0.08306 0.0
H665 H 0.60958 0.59709 0.18137 0.0
H666 H 0.58599 0.59132 0.19146 0.0
H667 H 0.59147 0.57259 0.19018 0.0
H668 H 0.52637 0.56458 0.21184 0.0
H669 H 0.54098 0.52068 0.21242 0.0
H670 H 0.54281 0.581 0.14273 0.0
H671 H 0.56065 0.59569 0.16889 0.0
H672 H 0.53586 0.58693 0.17591 0.0
H673 H 0.55981 0.52806 0.1419 0.0
H674 H 0.55676 0.51565 0.17418 0.0
H675 H 0.57755 0.53951 0.16926 0.0
C676 C 0.42429 0.01475 0.08156 0.0
C677 C 0.40554 0.01006 0.08712 0.0
C678 C 0.43503 0.01215 0.10179 0.0
C679 C 0.4267 0.0044 0.128 0.0
C680 C 0.40789 0.99994 0.13389 0.0
C681 C 0.39759 0.00297 0.11345 0.0
C682 C 0.45515 0.01739 0.09495 0.0
C683 C 0.39844 0.99148 0.16153 0.0
C684 C 0.44311 0.97695 0.17075 0.0
C685 C 0.45269 0.99024 0.19332 0.0
C686 C 0.43527 0.9817 0.14863 0.0
C687 C 0.43727 1.00025 0.14902 0.0
C688 C 0.44804 0.01418 0.17082 0.0
C689 C 0.4555 0.00894 0.19287 0.0
C690 C 0.42377 0.96639 0.12587 0.0
C691 C 0.45081 0.03423 0.17169 0.0
H692 H 0.43058 0.02037 0.0613 0.0
H693 H 0.3831 0.99925 0.11784 0.0
H694 H 0.46526 0.02749 0.11157 0.0
H695 H 0.45595 0.00408 0.09447 0.0
H696 H 0.45994 0.02436 0.0743 0.0
H697 H 0.38384 0.98906 0.16298 0.0
H698 H 0.3974 0.97733 0.16411 0.0
H699 H 0.40724 1.00137 0.17934 0.0
H700 H 0.44069 0.96239 0.17128 0.0
H701 H 0.46293 0.01921 0.21035 0.0
H702 H 0.42861 0.97246 0.10474 0.0
H703 H 0.40847 0.96176 0.12763 0.0
H704 H 0.4249 0.95331 0.12735 0.0
H705 H 0.45555 0.04095 0.1509 0.0
H706 H 0.46148 0.04408 0.18799 0.0
H707 H 0.43698 0.03304 0.1764 0.0
C708 C 0.4453 0.02801 0.94562 0.0
C709 C 0.42549 0.02035 0.94511 0.0
C710 C 0.45495 0.02772 0.92121 0.0
C711 C 0.44455 0.01967 0.89567 0.0
C712 C 0.42455 0.01181 0.89506 0.0
C713 C 0.41526 0.01221 0.91979 0.0
C714 C 0.47627 0.03614 0.92268 0.0
C715 C 0.41297 0.00317 0.86819 0.0
C716 C 0.468 0.03455 0.82444 0.0
C717 C 0.46817 0.01791 0.81529 0.0
C718 C 0.46122 0.03573 0.85118 0.0
C719 C 0.45453 0.01991 0.86925 0.0
C720 C 0.45586 0.00363 0.86087 0.0
C721 C 0.46265 0.00281 0.83393 0.0
C722 C 0.46015 0.05341 0.85937 0.0
C723 C 0.44902 0.98655 0.87966 0.0
H724 H 0.45331 0.03426 0.96513 0.0
H725 H 0.39997 0.00627 0.91919 0.0
H726 H 0.47956 0.02502 0.91525 0.0
H727 H 0.48373 0.04858 0.90852 0.0
H728 H 0.48216 0.04129 0.94435 0.0
H729 H 0.39749 0.99738 0.87136 0.0
H730 H 0.41833 0.01443 0.85204 0.0
H731 H 0.41464 0.99116 0.85966 0.0
H732 H 0.47249 0.04637 0.8102 0.0
H733 H 0.4626 0.98984 0.82689 0.0
H734 H 0.46661 0.05928 0.88056 0.0
H735 H 0.44494 0.04916 0.86045 0.0
H736 H 0.46756 0.06519 0.8441 0.0
H737 H 0.45493 0.99167 0.9013 0.0
H738 H 0.45315 0.97618 0.87157 0.0
H739 H 0.43319 0.9786 0.88113 0.0
C740 C 0.0052 0.42721 0.93872 0.0
C741 C 0.00702 0.41114 0.9321 0.0
C742 C 0.00404 0.43819 0.91746 0.0
C743 C 0.00468 0.43296 0.88891 0.0
C744 C 0.00687 0.41699 0.8821 0.0
C745 C 0.00802 0.40628 0.90377 0.0
C746 C 1.00176 0.45514 0.92553 0.0
C747 C 0.00762 0.41096 0.85186 0.0
C748 C 0.98186 0.44455 0.83014 0.0
C749 C 0.99798 0.4593 0.81661 0.0
C750 C 0.98377 0.43658 0.8547 0.0
C751 C 1.00225 0.44355 0.86596 0.0
C752 C 0.01846 0.4594 0.85354 0.0
C753 C 0.01613 0.46712 0.82896 0.0
C754 C 0.9661 0.41983 0.86745 0.0
C755 C 0.03839 0.46732 0.86505 0.0
H756 H 0.00447 0.43112 0.96057 0.0
H757 H 0.00947 0.39394 0.89845 0.0
H758 H 0.01306 0.46856 0.91554 0.0
H759 H 0.98777 0.45217 0.91764 0.0
H760 H 0.00251 0.45795 0.94869 0.0
H761 H 0.01 0.39861 0.85012 0.0
H762 H 0.99399 0.40655 0.84086 0.0
H763 H 0.01928 0.42346 0.84067 0.0
H764 H 0.96781 0.43861 0.82072 0.0
H765 H 0.02864 0.47841 0.81842 0.0
H766 H 0.96591 0.42243 0.89051 0.0
H767 H 0.96626 0.40623 0.86412 0.0
H768 H 0.95271 0.41752 0.85799 0.0
H769 H 0.03881 0.46985 0.88821 0.0
H770 H 0.04911 0.48119 0.85534 0.0
H771 H 0.04261 0.45647 0.86081 0.0
C772 C 0.57181 0.59383 0.92971 0.0
C773 C 0.581 0.58794 0.94795 0.0
C774 C 0.56413 0.58383 0.9038 0.0
C775 C 0.56542 0.56742 0.89624 0.0
C776 C 0.57361 0.56071 0.91537 0.0
C777 C 0.58147 0.57117 0.94088 0.0
C778 C 0.55562 0.59149 0.88385 0.0
C779 C 0.57493 0.54305 0.9083 0.0
C780 C 0.53837 0.53487 0.83216 0.0
C781 C 0.55292 0.54189 0.81201 0.0
C782 C 0.54205 0.54319 0.85967 0.0
C783 C 0.56067 0.5589 0.86705 0.0
C784 C 0.57528 0.56621 0.84668 0.0
C785 C 0.5713 0.55748 0.81964 0.0
C786 C 0.52617 0.5348 0.88095 0.0
C787 C 0.59531 0.58304 0.85359 0.0
H788 H 0.57134 0.60674 0.93513 0.0
H789 H 0.58828 0.56637 0.95512 0.0
H790 H 0.56508 0.59759 0.86539 0.0
H791 H 0.54147 0.57949 0.87584 0.0
H792 H 0.55387 0.60309 0.89397 0.0
H793 H 0.57955 0.53836 0.92671 0.0
H794 H 0.56088 0.53069 0.90058 0.0
H795 H 0.58538 0.54643 0.89116 0.0
H796 H 0.52414 0.52285 0.82647 0.0
H797 H 0.58284 0.56264 0.80461 0.0
H798 H 0.52571 0.54657 0.89305 0.0
H799 H 0.5289 0.52643 0.89622 0.0
H800 H 0.51196 0.52488 0.87086 0.0
H801 H 0.59484 0.5957 0.86245 0.0
H802 H 0.60469 0.58775 0.83484 0.0
H803 H 0.60192 0.57877 0.8698 0.0
C804 C 0.02879 0.6037 0.92963 0.0
C805 C 0.01201 0.60227 0.93979 0.0
C806 C 0.02837 0.59271 0.90571 0.0
C807 C 0.01077 0.58014 0.89148 0.0
C808 C 0.99373 0.57835 0.90193 0.0
C809 C 0.99454 0.58939 0.92601 0.0
C810 C 0.04681 0.59491 0.89528 0.0
C811 C 0.97469 0.56521 0.88719 0.0
C812 C 0.01044 0.5694 0.81321 0.0
C813 C 0.00594 0.55003 0.81236 0.0
C814 C 0.01253 0.57949 0.83884 0.0
C815 C 0.01031 0.57006 0.86437 0.0
C816 C 0.00669 0.55082 0.86374 0.0
C817 C 0.00453 0.54099 0.83766 0.0
C818 C 0.01646 0.6 0.83853 0.0
C819 C 0.00442 0.5404 0.89057 0.0
H820 H 0.04233 0.6135 0.94029 0.0
H821 H 0.9815 0.58816 0.93374 0.0
H822 H 0.04516 0.58039 0.89235 0.0
H823 H 0.05035 0.60171 0.87446 0.0
H824 H 0.05901 0.60407 0.90997 0.0
H825 H 0.96264 0.56467 0.89884 0.0
H826 H 0.9751 0.57049 0.86581 0.0
H827 H 0.97183 0.55018 0.88459 0.0
H828 H 0.01197 0.5766 0.79366 0.0
H829 H 1.00107 0.52603 0.83705 0.0
H830 H 0.02942 0.61008 0.85132 0.0
H831 H 0.0043 0.60043 0.84813 0.0
H832 H 0.01854 0.60549 0.81688 0.0
H833 H 0.0167 0.54962 0.90506 0.0
H834 H 0.00335 0.5262 0.88656 0.0
H835 H 0.99129 0.53771 0.90152 0.0
C836 C 0.41508 0.42606 0.92165 0.0
C837 C 0.42037 0.41638 0.93992 0.0
C838 C 0.42585 0.43479 0.89754 0.0
C839 C 0.44234 0.43393 0.89171 0.0
C840 C 0.44828 0.42506 0.91086 0.0
C841 C 0.43719 0.41633 0.93465 0.0
C842 C 0.41902 0.44406 0.87756 0.0
C843 C 0.46587 0.42398 0.90556 0.0
C844 C 0.45488 0.43204 0.81522 0.0
C845 C 0.47001 0.45123 0.81126 0.0
C846 C 0.44573 0.42638 0.84119 0.0
C847 C 0.45204 0.44014 0.86409 0.0
C848 C 0.46759 0.45945 0.86054 0.0
C849 C 0.4764 0.4648 0.8341 0.0
C850 C 0.42928 0.4056 0.84406 0.0
C851 C 0.47481 0.47446 0.88458 0.0
H852 H 0.40215 0.42624 0.92564 0.0
H853 H 0.44153 0.4091 0.94884 0.0
H854 H 0.43095 0.45882 0.87231 0.0
H855 H 0.41398 0.43517 0.85758 0.0
H856 H 0.4071 0.44527 0.88643 0.0
H857 H 0.46974 0.41856 0.92394 0.0
H858 H 0.46327 0.41401 0.88711 0.0
H859 H 0.47825 0.43854 0.90052 0.0
H860 H 0.45019 0.42132 0.79792 0.0
H861 H 0.48807 0.47965 0.83116 0.0
H862 H 0.41627 0.40546 0.851 0.0
H863 H 0.43277 0.39843 0.86037 0.0
H864 H 0.4259 0.39683 0.82401 0.0
H865 H 0.46346 0.47735 0.89094 0.0
H866 H 0.48778 0.48844 0.87889 0.0
H867 H 0.47822 0.46887 0.90317 0.0
C868 C 0.57948 0.98733 0.92646 0.0
C869 C 0.5972 0.99028 0.91782 0.0
C870 C 0.56717 0.98845 0.90737 0.0
C871 C 0.57264 0.9925 0.87892 0.0
C872 C 0.59016 0.99473 0.86985 0.0
C873 C 0.60224 0.99365 0.88941 0.0
C874 C 0.54866 0.98604 0.91787 0.0
C875 C 0.59645 0.9989 0.83961 0.0
C876 C 0.5381 0.98414 0.81963 0.0
C877 C 0.54332 0.00332 0.81462 0.0
C878 C 0.54676 0.98016 0.84159 0.0
C879 C 0.56083 0.99576 0.85892 0.0
C880 C 0.565 0.01495 0.8552 0.0
C881 C 0.55627 0.0185 0.83298 0.0
C882 C 0.5419 0.95951 0.84486 0.0
C883 C 0.57969 0.03196 0.87344 0.0
H884 H 0.57544 0.98471 0.94837 0.0
H885 H 0.61583 0.99583 0.8825 0.0
H886 H 0.54931 1.00009 0.91666 0.0
H887 H 0.53648 0.97517 0.90434 0.0
H888 H 0.54572 0.98136 0.93999 0.0
H889 H 0.60986 0.99902 0.83555 0.0
H890 H 0.58507 0.9878 0.8252 0.0
H891 H 0.59886 0.01331 0.83432 0.0
H892 H 0.52826 0.97243 0.80518 0.0
H893 H 0.56031 0.03334 0.829 0.0
H894 H 0.53956 0.95565 0.86731 0.0
H895 H 0.55408 0.95824 0.8375 0.0
H896 H 0.52893 0.94879 0.83249 0.0
H897 H 0.57699 0.02857 0.89604 0.0
H898 H 0.57969 0.0455 0.86992 0.0
H899 H 0.59416 0.03475 0.86868 0.0
C900 C 0.57869 0.00843 0.05729 0.0
C901 C 0.59068 1.00088 0.05756 0.0
C902 C 0.56745 0.0069 0.0807 0.0
C903 C 0.56827 0.99765 0.10489 0.0
C904 C 0.58062 0.99036 0.10548 0.0
C905 C 0.59166 0.99206 0.08182 0.0
C906 C 0.55447 0.01488 0.07937 0.0
C907 C 0.58195 0.98045 0.13096 0.0
C908 C 0.55264 0.00484 0.17726 0.0
C909 C 0.53529 0.98705 0.18009 0.0
C910 C 0.56306 0.00902 0.15222 0.0
C911 C 0.55594 0.99506 0.12952 0.0
C912 C 0.53782 0.97766 0.13159 0.0
C913 C 0.52771 0.97385 0.15689 0.0
C914 C 0.58224 0.02781 0.15075 0.0
C915 C 0.5297 0.96245 0.10779 0.0
H916 H 0.57784 0.01528 0.03863 0.0
H917 H 0.60093 0.98625 0.08226 0.0
H918 H 0.53933 0.00282 0.08112 0.0
H919 H 0.55754 0.02531 0.09737 0.0
H920 H 0.55609 0.02238 0.05947 0.0
H921 H 0.59258 0.97598 0.12827 0.0
H922 H 0.58602 0.99038 0.14987 0.0
H923 H 0.56778 0.9673 0.13508 0.0
H924 H 0.55843 0.01517 0.19507 0.0
H925 H 0.51441 0.95999 0.15903 0.0
H926 H 0.58346 0.0351 0.13082 0.0
H927 H 0.59381 0.02458 0.15099 0.0
H928 H 0.58465 0.03809 0.16873 0.0
H929 H 0.53046 0.96927 0.08758 0.0
H930 H 0.51458 0.95083 0.11146 0.0
H931 H 0.53834 0.95557 0.1055 0.0
C932 C 0.99398 0.58884 0.09263 0.0
C933 C 0.00867 0.59587 0.07273 0.0
C934 C 0.99504 0.58021 0.11714 0.0
C935 C 0.01119 0.57868 0.1219 0.0
C936 C 0.02558 0.58489 0.10125 0.0
C937 C 0.02413 0.59337 0.07692 0.0
C938 C 0.97934 0.57365 0.13862 0.0
C939 C 0.04307 0.58359 0.10555 0.0
C940 C 0.0271 0.58258 0.19758 0.0
C941 C 0.02075 0.56316 0.2032 0.0
C942 C 0.02398 0.5877 0.17127 0.0
C943 C 0.01429 0.57305 0.14987 0.0
C944 C 0.00802 0.5534 0.1552 0.0
C945 C 0.01141 0.54868 0.18186 0.0
C946 C 0.03113 0.60887 0.1664 0.0
C947 C 0.99765 0.53741 0.13286 0.0
H948 H 0.9819 0.59053 0.08945 0.0
H949 H 0.03548 0.59859 0.06156 0.0
H950 H 0.97461 0.55877 0.14536 0.0
H951 H 0.98489 0.58356 0.1576 0.0
H952 H 0.96674 0.57366 0.13035 0.0
H953 H 0.05186 0.587 0.08625 0.0
H954 H 0.0521 0.59403 0.12275 0.0
H955 H 0.03886 0.56878 0.112 0.0
H956 H 0.03473 0.59389 0.21381 0.0
H957 H 0.00651 0.53366 0.18618 0.0
H958 H 0.01901 0.61044 0.16036 0.0
H959 H 0.04141 0.61409 0.14876 0.0
H960 H 0.03832 0.61843 0.18535 0.0
H961 H 0.98434 0.53667 0.12634 0.0
H962 H 0.99386 0.52292 0.14027 0.0
H963 H 0.00668 0.54068 0.11388 0.0
C964 C 0.40572 0.42566 0.09267 0.0
C965 C 0.41368 0.41654 0.07717 0.0
C966 C 0.41324 0.43473 0.11913 0.0
C967 C 0.4291 0.43466 0.13038 0.0
C968 C 0.43754 0.42596 0.11452 0.0
C969 C 0.42973 0.41699 0.0881 0.0
C970 C 0.40385 0.44387 0.13543 0.0
C971 C 0.45446 0.42558 0.12582 0.0
C972 C 0.45605 0.46911 0.19289 0.0
C973 C 0.44752 0.45675 0.21547 0.0
C974 C 0.45036 0.46212 0.16496 0.0
C975 C 0.43587 0.44232 0.15961 0.0
C976 C 0.42751 0.42973 0.18233 0.0
C977 C 0.43347 0.43708 0.20993 0.0
C978 C 0.45962 0.47595 0.14123 0.0
C979 C 0.41212 0.4085 0.17753 0.0
H980 H 0.39337 0.42547 0.08434 0.0
H981 H 0.43605 0.41007 0.07623 0.0
H982 H 0.39739 0.43575 0.15485 0.0
H983 H 0.41468 0.45912 0.14206 0.0
H984 H 0.39247 0.44385 0.12297 0.0
H985 H 0.46021 0.41949 0.11006 0.0
H986 H 0.46609 0.44052 0.13245 0.0
H987 H 0.45015 0.41659 0.14473 0.0
H988 H 0.46689 0.48432 0.19711 0.0
H989 H 0.42714 0.42736 0.22727 0.0
H990 H 0.44867 0.47732 0.12986 0.0
H991 H 0.46576 0.4701 0.12581 0.0
H992 H 0.47115 0.49071 0.14885 0.0
H993 H 0.39957 0.40727 0.1668 0.0
H994 H 0.40727 0.40061 0.19749 0.0
H995 H 0.41751 0.40113 0.16354 0.0
C996 C 0.65546 0.765 0.41038 0.0
C997 C 0.6638 0.75362 0.40905 0.0
C998 C 0.65784 0.77687 0.43433 0.0
C999 C 0.66878 0.7773 0.45748 0.0
C1000 C 0.67707 0.7657 0.45637 0.0
C1001 C 0.67449 0.75403 0.43218 0.0
C1002 C 0.64883 0.78906 0.43478 0.0
C1003 C 0.68879 0.76572 0.48068 0.0
C1004 C 0.69319 0.81942 0.51109 0.0
C1005 C 0.68171 0.81136 0.53478 0.0
C1006 C 0.68846 0.80898 0.48514 0.0
C1007 C 0.6719 0.79 0.4829 0.0
C1008 C 0.65953 0.78239 0.50617 0.0
C1009 C 0.66458 0.79319 0.53184 0.0
C1010 C 0.70194 0.81767 0.46075 0.0
C1011 C 0.64166 0.76229 0.50459 0.0
H1012 H 0.64718 0.76479 0.3926 0.0
H1013 H 0.68096 0.74527 0.43139 0.0
H1014 H 0.63924 0.78548 0.45314 0.0
H1015 H 0.66011 0.80474 0.43718 0.0
H1016 H 0.64043 0.78678 0.41529 0.0
H1017 H 0.69405 0.75567 0.47661 0.0
H1018 H 0.70131 0.78065 0.48482 0.0
H1019 H 0.6801 0.76132 0.50009 0.0
H1020 H 0.70655 0.83337 0.51323 0.0
H1021 H 0.65554 0.78701 0.55002 0.0
H1022 H 0.69389 0.8159 0.44113 0.0
H1023 H 0.70964 0.80988 0.45718 0.0
H1024 H 0.7127 0.83342 0.46467 0.0
H1025 H 0.63327 0.76027 0.48524 0.0
H1026 H 0.63238 0.75955 0.52318 0.0
H1027 H 0.64573 0.75116 0.50351 0.0
C1028 C 0.26355 0.91794 0.44474 0.0
C1029 C 0.2572 0.90845 0.41825 0.0
C1030 C 0.2529 0.90962 0.46901 0.0
C1031 C 0.23535 0.89147 0.46667 0.0
C1032 C 0.22912 0.88153 0.44012 0.0
C1033 C 0.24019 0.8901 0.41621 0.0
C1034 C 0.26014 0.92057 0.49703 0.0
C1035 C 0.2104 0.86225 0.43679 0.0
C1036 C 0.21488 0.86666 0.53569 0.0
C1037 C 0.20324 0.874 0.54308 0.0
C1038 C 0.22489 0.87153 0.51019 0.0
C1039 C 0.22293 0.8838 0.49173 0.0
C1040 C 0.21024 0.89021 0.49845 0.0
C1041 C 0.20066 0.88535 0.52418 0.0
C1042 C 0.23837 0.86453 0.5038 0.0
C1043 C 0.20752 0.90305 0.47916 0.0
H1044 H 0.27677 0.93204 0.44651 0.0
H1045 H 0.23518 0.88268 0.39579 0.0
H1046 H 0.2503 0.92518 0.50488 0.0
H1047 H 0.26043 0.91094 0.51285 0.0
H1048 H 0.27473 0.93374 0.4956 0.0
H1049 H 0.20836 0.85564 0.4152 0.0
H1050 H 0.20964 0.85182 0.45209 0.0
H1051 H 0.19834 0.86441 0.44137 0.0
H1052 H 0.21692 0.85799 0.55051 0.0
H1053 H 0.19154 0.8909 0.52999 0.0
H1054 H 0.25336 0.87708 0.50525 0.0
H1055 H 0.23601 0.8582 0.48201 0.0
H1056 H 0.23668 0.85343 0.51866 0.0
H1057 H 0.22093 0.91756 0.47853 0.0
H1058 H 0.19575 0.90515 0.48615 0.0
H1059 H 0.20432 0.89665 0.45736 0.0
C1060 C 0.0682 0.33577 0.45523 0.0
C1061 C 0.07622 0.34492 0.42991 0.0
C1062 C 0.07937 0.33405 0.47567 0.0
C1063 C 0.09908 0.34173 0.47074 0.0
C1064 C 0.10741 0.35148 0.44561 0.0
C1065 C 0.09587 0.35293 0.42544 0.0
C1066 C 0.06994 0.32356 0.50227 0.0
C1067 C 0.12839 0.35999 0.43976 0.0
C1068 C 0.12608 0.34685 0.53777 0.0
C1069 C 0.12494 0.32887 0.53748 0.0
C1070 C 0.11904 0.352 0.51508 0.0
C1071 C 0.11059 0.33878 0.49167 0.0
C1072 C 0.11094 0.32141 0.49023 0.0
C1073 C 0.11816 0.31666 0.51318 0.0
C1074 C 0.11922 0.37081 0.51724 0.0
C1075 C 0.10215 0.30696 0.4656 0.0
H1076 H 0.05306 0.32958 0.45891 0.0
H1077 H 0.1022 0.36007 0.40595 0.0
H1078 H 0.07105 0.31048 0.50365 0.0
H1079 H 0.07739 0.33318 0.52103 0.0
H1080 H 0.05457 0.31885 0.50317 0.0
H1081 H 0.13294 0.36827 0.42012 0.0
H1082 H 0.13724 0.36984 0.45758 0.0
H1083 H 0.13141 0.34811 0.43779 0.0
H1084 H 0.13147 0.35638 0.55648 0.0
H1085 H 0.11707 0.30267 0.51294 0.0
H1086 H 0.10456 0.36754 0.52178 0.0
H1087 H 0.12364 0.3784 0.49704 0.0
H1088 H 0.12899 0.38082 0.53428 0.0
H1089 H 0.08633 0.29968 0.46631 0.0
H1090 H 0.10588 0.29557 0.46587 0.0
H1091 H 0.1069 0.31449 0.44538 0.0
C1092 C 0.10774 0.34549 0.29037 0.0
C1093 C 0.09042 0.34501 0.2892 0.0
C1094 C 0.11745 0.34582 0.2657 0.0
C1095 C 0.10954 0.34545 0.2392 0.0
C1096 C 0.0919 0.34464 0.23785 0.0
C1097 C 0.08261 0.34454 0.26287 0.0
C1098 C 0.13631 0.3469 0.26799 0.0
C1099 C 0.08291 0.34403 0.20995 0.0
C1100 C 0.13987 0.36538 0.17408 0.0
C1101 C 0.13546 0.34821 0.15907 0.0
C1102 C 0.13233 0.36474 0.20092 0.0
C1103 C 0.11988 0.34646 0.2128 0.0
C1104 C 0.1162 0.32912 0.19834 0.0
C1105 C 0.12415 0.33022 0.17165 0.0
C1106 C 0.13688 0.38358 0.21585 0.0
C1107 C 0.10292 0.30934 0.21023 0.0
H1108 H 0.11391 0.34591 0.31064 0.0
H1109 H 0.06919 0.34407 0.26177 0.0
H1110 H 0.13562 0.33451 0.25589 0.0
H1111 H 0.14782 0.3605 0.25865 0.0
H1112 H 0.14031 0.34663 0.29016 0.0
H1113 H 0.06882 0.34271 0.21249 0.0
H1114 H 0.09255 0.35749 0.19855 0.0
H1115 H 0.08092 0.33151 0.19656 0.0
H1116 H 0.14865 0.37929 0.1643 0.0
H1117 H 0.12054 0.31692 0.15987 0.0
H1118 H 0.14145 0.38408 0.23792 0.0
H1119 H 0.12384 0.38444 0.21658 0.0
H1120 H 0.14834 0.39658 0.20518 0.0
H1121 H 0.10693 0.30905 0.23234 0.0
H1122 H 0.10302 0.29747 0.19776 0.0
H1123 H 0.08808 0.30633 0.21035 0.0
C1124 C 0.67076 0.75972 0.2746 0.0
C1125 C 0.67478 0.74522 0.26731 0.0
C1126 C 0.66917 0.7708 0.25388 0.0
C1127 C 0.6713 0.76702 0.22519 0.0
C1128 C 0.67555 0.75253 0.21776 0.0
C1129 C 0.6774 0.74193 0.23892 0.0
C1130 C 0.66499 0.78637 0.26265 0.0
C1131 C 0.67767 0.74785 0.18735 0.0
C1132 C 0.64747 0.77686 0.16587 0.0
C1133 C 0.6633 0.79219 0.15258 0.0
C1134 C 0.6497 0.76925 0.19056 0.0
C1135 C 0.66819 0.77741 0.20259 0.0
C1136 C 0.68393 0.79409 0.19082 0.0
C1137 C 0.68132 0.80124 0.16581 0.0
C1138 C 0.63252 0.75145 0.20237 0.0
C1139 C 0.70378 0.80349 0.2034 0.0
H1140 H 0.66888 0.76245 0.29655 0.0
H1141 H 0.68046 0.73072 0.23313 0.0
H1142 H 0.67575 0.80047 0.25361 0.0
H1143 H 0.65078 0.78241 0.25429 0.0
H1144 H 0.66505 0.78842 0.28591 0.0
H1145 H 0.68122 0.73635 0.18514 0.0
H1146 H 0.66415 0.74285 0.17559 0.0
H1147 H 0.6891 0.76114 0.17728 0.0
H1148 H 0.63345 0.77002 0.15594 0.0
H1149 H 0.69364 0.81304 0.15565 0.0
H1150 H 0.63167 0.75341 0.22544 0.0
H1151 H 0.63398 0.73862 0.19867 0.0
H1152 H 0.6189 0.74818 0.19245 0.0
H1153 H 0.7034 0.80511 0.22664 0.0
H1154 H 0.7137 0.81806 0.19478 0.0
H1155 H 0.70963 0.79405 0.19867 0.0
C1156 C 0.25512 0.90523 0.2831 0.0
C1157 C 0.25358 0.92135 0.29034 0.0
C1158 C 0.24697 0.89423 0.25804 0.0
C1159 C 0.23749 0.89982 0.23944 0.0
C1160 C 0.23524 0.91564 0.24718 0.0
C1161 C 0.24314 0.9261 0.27275 0.0
C1162 C 0.24928 0.87719 0.25088 0.0
C1163 C 0.22555 0.92227 0.22767 0.0
C1164 C 0.24156 0.88965 0.16214 0.0
C1165 C 0.2231 0.87385 0.15538 0.0
C1166 C 0.24618 0.89841 0.1892 0.0
C1167 C 0.23223 0.8908 0.21052 0.0
C1168 C 0.2137 0.87453 0.20422 0.0
C1169 C 0.20928 0.86635 0.17662 0.0
C1170 C 0.2661 0.91581 0.19494 0.0
C1171 C 0.19861 0.86576 0.22662 0.0
H1172 H 0.26294 0.90135 0.2969 0.0
H1173 H 0.24194 0.93857 0.27832 0.0
H1174 H 0.23544 0.8643 0.2436 0.0
H1175 H 0.25959 0.88097 0.23342 0.0
H1176 H 0.25464 0.87312 0.26914 0.0
H1177 H 0.22331 0.93353 0.23789 0.0
H1178 H 0.23449 0.92849 0.20875 0.0
H1179 H 0.2115 0.90974 0.22035 0.0
H1180 H 0.25259 0.89516 0.14628 0.0
H1181 H 0.19498 0.85418 0.17163 0.0
H1182 H 0.27352 0.91219 0.2107 0.0
H1183 H 0.26528 0.92825 0.20392 0.0
H1184 H 0.27493 0.92057 0.17564 0.0
H1185 H 0.20417 0.86202 0.24495 0.0
H1186 H 0.18532 0.85241 0.21872 0.0
H1187 H 0.19496 0.87656 0.23429 0.0
C1188 C 0.66445 0.92264 0.25664 0.0
C1189 C 0.68198 0.93489 0.27067 0.0
C1190 C 0.66331 0.91165 0.23235 0.0
C1191 C 0.68008 0.91282 0.22192 0.0
C1192 C 0.69772 0.9247 0.23642 0.0
C1193 C 0.69848 0.93567 0.26058 0.0
C1194 C 0.64425 0.89925 0.21734 0.0
C1195 C 0.71587 0.92621 0.22602 0.0
C1196 C 0.67238 0.8735 0.16749 0.0
C1197 C 0.67431 0.88289 0.14234 0.0
C1198 C 0.67486 0.88326 0.19371 0.0
C1199 C 0.67932 0.90279 0.19465 0.0
C1200 C 0.68202 0.91254 0.16929 0.0
C1201 C 0.67959 0.90251 0.14349 0.0
C1202 C 0.67206 0.87247 0.22035 0.0
C1203 C 0.68684 0.93338 0.16936 0.0
H1204 H 0.65162 0.92192 0.2643 0.0
H1205 H 0.71205 0.94498 0.27143 0.0
H1206 H 0.64502 0.90487 0.19609 0.0
H1207 H 0.6408 0.88402 0.2144 0.0
H1208 H 0.63239 0.89913 0.22898 0.0
H1209 H 0.72807 0.93483 0.24092 0.0
H1210 H 0.71362 0.91145 0.22273 0.0
H1211 H 0.71977 0.93325 0.20539 0.0
H1212 H 0.6683 0.85833 0.16668 0.0
H1213 H 0.68155 0.90997 0.12408 0.0
H1214 H 0.65909 0.87024 0.23129 0.0
H1215 H 0.68439 0.8812 0.23495 0.0
H1216 H 0.67038 0.85801 0.21609 0.0
H1217 H 0.67497 0.93435 0.17896 0.0
H1218 H 0.68927 0.9391 0.14782 0.0
H1219 H 0.69987 0.94295 0.18234 0.0
C1220 C 0.08107 0.76006 0.25965 0.0
C1221 C 0.08754 0.75337 0.28112 0.0
C1222 C 0.09213 0.76831 0.23565 0.0
C1223 C 0.11005 0.76982 0.23299 0.0
C1224 C 0.11705 0.76392 0.25515 0.0
C1225 C 0.10572 0.75579 0.27898 0.0
C1226 C 0.08424 0.77457 0.21254 0.0
C1227 C 0.13606 0.76525 0.25307 0.0
C1228 C 0.12459 0.766 0.15835 0.0
C1229 C 0.13791 0.78554 0.15271 0.0
C1230 C 0.11575 0.76074 0.18457 0.0
C1231 C 0.12032 0.77539 0.20576 0.0
C1232 C 0.13413 0.79513 0.20048 0.0
C1233 C 0.14291 0.79997 0.17399 0.0
C1234 C 0.10125 0.7395 0.18939 0.0
C1235 C 0.13937 0.81111 0.22262 0.0
H1236 H 0.06712 0.75843 0.26125 0.0
H1237 H 0.1109 0.75079 0.29554 0.0
H1238 H 0.0951 0.78952 0.20621 0.0
H1239 H 0.08079 0.76468 0.1937 0.0
H1240 H 0.07107 0.77429 0.21903 0.0
H1241 H 0.14039 0.76206 0.27326 0.0
H1242 H 0.13513 0.75467 0.23658 0.0
H1243 H 0.14743 0.78 0.24675 0.0
H1244 H 0.12099 0.75478 0.14206 0.0
H1245 H 0.15326 0.81507 0.16963 0.0
H1246 H 0.08703 0.73753 0.19367 0.0
H1247 H 0.10541 0.73469 0.20811 0.0
H1248 H 0.09979 0.72988 0.171 0.0
H1249 H 0.12632 0.81073 0.23001 0.0
H1250 H 0.14958 0.82581 0.21466 0.0
H1251 H 0.14593 0.80876 0.24114 0.0
C1252 C 0.26137 0.34702 0.2522 0.0
C1253 C 0.25674 0.33021 0.26648 0.0
C1254 C 0.25051 0.34608 0.22894 0.0
C1255 C 0.23441 0.32791 0.21996 0.0
C1256 C 0.22935 0.31093 0.23468 0.0
C1257 C 0.24069 0.31225 0.25765 0.0
C1258 C 0.25659 0.36448 0.21353 0.0
C1259 C 0.21212 0.29138 0.22596 0.0
C1260 C 0.20159 0.33281 0.16967 0.0
C1261 C 0.2087 0.33094 0.14359 0.0
C1262 C 0.20898 0.33063 0.19492 0.0
C1263 C 0.22388 0.32668 0.19389 0.0
C1264 C 0.23019 0.32355 0.16753 0.0
C1265 C 0.22238 0.32552 0.14276 0.0
C1266 C 0.20162 0.33368 0.22264 0.0
C1267 C 0.24608 0.31938 0.16541 0.0
H1268 H 0.27375 0.36094 0.25888 0.0
H1269 H 0.23691 0.29923 0.26879 0.0
H1270 H 0.2603 0.36284 0.1915 0.0
H1271 H 0.24461 0.36706 0.21265 0.0
H1272 H 0.26915 0.37752 0.22367 0.0
H1273 H 0.20925 0.27989 0.2409 0.0
H1274 H 0.19924 0.29247 0.22455 0.0
H1275 H 0.21439 0.28677 0.20474 0.0
H1276 H 0.19096 0.33692 0.17041 0.0
H1277 H 0.22757 0.32356 0.12259 0.0
H1278 H 0.2126 0.34786 0.23264 0.0
H1279 H 0.1989 0.32212 0.2373 0.0
H1280 H 0.18823 0.33374 0.21995 0.0
H1281 H 0.25966 0.33233 0.17337 0.0
H1282 H 0.24829 0.31585 0.14341 0.0
H1283 H 0.24296 0.30704 0.17867 0.0
C1284 C 0.2594 0.34944 0.41966 0.0
C1285 C 0.25458 0.33325 0.40179 0.0
C1286 C 0.24869 0.3475 0.44391 0.0
C1287 C 0.23256 0.32902 0.44997 0.0
C1288 C 0.22703 0.31289 0.43108 0.0
C1289 C 0.23825 0.31515 0.40741 0.0
C1290 C 0.25528 0.36494 0.46384 0.0
C1291 C 0.20969 0.29305 0.43646 0.0
C1292 C 0.2197 0.3161 0.52602 0.0
C1293 C 0.20441 0.31903 0.53015 0.0
C1294 C 0.22921 0.31981 0.5003 0.0
C1295 C 0.2229 0.32596 0.4776 0.0
C1296 C 0.20725 0.32858 0.48125 0.0
C1297 C 0.19826 0.32524 0.5076 0.0
C1298 C 0.24595 0.31697 0.49743 0.0
C1299 C 0.19989 0.33472 0.45728 0.0
H1300 H 0.27203 0.36346 0.41537 0.0
H1301 H 0.23433 0.30266 0.39338 0.0
H1302 H 0.24319 0.36686 0.46926 0.0
H1303 H 0.26055 0.3625 0.48376 0.0
H1304 H 0.26698 0.37862 0.45487 0.0
H1305 H 0.20593 0.28274 0.41805 0.0
H1306 H 0.21254 0.28679 0.45481 0.0
H1307 H 0.19716 0.29429 0.44166 0.0
H1308 H 0.22418 0.31062 0.54286 0.0
H1309 H 0.18649 0.32756 0.51055 0.0
H1310 H 0.25868 0.33042 0.48978 0.0
H1311 H 0.24247 0.30504 0.48166 0.0
H1312 H 0.24978 0.31331 0.51765 0.0
H1313 H 0.21145 0.34897 0.44965 0.0
H1314 H 0.18751 0.33601 0.46349 0.0
H1315 H 0.19546 0.32395 0.43935 0.0
C1316 C 0.6675 0.92766 0.42489 0.0
C1317 C 0.68296 0.9365 0.40636 0.0
C1318 C 0.66875 0.91932 0.44958 0.0
C1319 C 0.68583 0.91983 0.45583 0.0
C1320 C 0.7012 0.9281 0.43669 0.0
C1321 C 0.69959 0.93634 0.41222 0.0
C1322 C 0.65206 0.91065 0.46952 0.0
C1323 C 0.71965 0.9289 0.44258 0.0
C1324 C 0.69873 0.92135 0.53255 0.0
C1325 C 0.69376 0.90208 0.53638 0.0
C1326 C 0.69606 0.92719 0.50652 0.0
C1327 C 0.68837 0.91349 0.48356 0.0
C1328 C 0.68352 0.89404 0.4871 0.0
C1329 C 0.6863 0.88855 0.51352 0.0
C1330 C 0.70155 0.94811 0.50361 0.0
C1331 C 0.67535 0.87906 0.46302 0.0
H1332 H 0.65456 0.92763 0.42045 0.0
H1333 H 0.71155 0.94299 0.39792 0.0
H1334 H 0.64819 0.89576 0.47497 0.0
H1335 H 0.65618 0.91965 0.48942 0.0
H1336 H 0.63924 0.90987 0.4605 0.0
H1337 H 0.72958 0.93429 0.42449 0.0
H1338 H 0.72696 0.93873 0.46122 0.0
H1339 H 0.71665 0.91424 0.44762 0.0
H1340 H 0.70493 0.93199 0.54995 0.0
H1341 H 0.68241 0.87364 0.51643 0.0
H1342 H 0.68898 0.94858 0.49649 0.0
H1343 H 0.71275 0.9551 0.48739 0.0
H1344 H 0.70704 0.95684 0.52369 0.0
H1345 H 0.66183 0.87737 0.4553 0.0
H1346 H 0.6724 0.86459 0.46919 0.0
H1347 H 0.68546 0.88405 0.44517 0.0
C1348 C 0.08708 0.78746 0.40395 0.0
C1349 C 0.07486 0.76708 0.40284 0.0
C1350 C 0.09644 0.79756 0.42913 0.0
C1351 C 0.09339 0.78704 0.45379 0.0
C1352 C 0.08126 0.76645 0.4527 0.0
C1353 C 0.07221 0.75673 0.42724 0.0
C1354 C 0.1094 0.81949 0.42946 0.0
C1355 C 0.07758 0.75469 0.4786 0.0
C1356 C 0.12576 0.80599 0.51838 0.0
C1357 C 0.11469 0.80964 0.53731 0.0
C1358 C 0.1197 0.79993 0.49033 0.0
C1359 C 0.10214 0.79739 0.48116 0.0
C1360 C 0.09177 0.80263 0.49956 0.0
C1361 C 0.09822 0.80876 0.52739 0.0
C1362 C 0.13131 0.79478 0.47122 0.0
C1363 C 0.07305 0.80027 0.49059 0.0
H1364 H 0.08931 0.79557 0.38514 0.0
H1365 H 0.06282 0.74099 0.42657 0.0
H1366 H 0.10354 0.82624 0.44374 0.0
H1367 H 0.12377 0.82393 0.43775 0.0
H1368 H 0.11103 0.82541 0.40819 0.0
H1369 H 0.06807 0.73876 0.47408 0.0
H1370 H 0.0913 0.75753 0.48745 0.0
H1371 H 0.07083 0.75919 0.49505 0.0
H1372 H 0.13844 0.80654 0.52597 0.0
H1373 H 0.08977 0.81182 0.54191 0.0
H1374 H 0.13255 0.80059 0.45 0.0
H1375 H 0.12398 0.77868 0.46865 0.0
H1376 H 0.14593 0.8005 0.47985 0.0
H1377 H 0.07449 0.80676 0.46985 0.0
H1378 H 0.06796 0.80713 0.50614 0.0
H1379 H 0.06196 0.78451 0.48822 0.0
C1380 C 0.36702 0.11539 0.73688 0.0
C1381 C 0.35145 0.09611 0.73375 0.0
C1382 C 0.36908 0.12698 0.76096 0.0
C1383 C 0.35522 0.11914 0.78241 0.0
C1384 C 0.33899 0.10003 0.77876 0.0
C1385 C 0.33732 0.08873 0.75449 0.0
C1386 C 0.38661 0.14726 0.76407 0.0
C1387 C 0.32386 0.09118 0.80112 0.0
C1388 C 0.37191 0.1364 0.85765 0.0
C1389 C 0.36507 0.14883 0.86347 0.0
C1390 C 0.36893 0.12687 0.83129 0.0
C1391 C 0.3589 0.12988 0.81004 0.0
C1392 C 0.35237 0.14283 0.81547 0.0
C1393 C 0.3556 0.15224 0.84219 0.0
C1394 C 0.37634 0.11337 0.82635 0.0
C1395 C 0.34167 0.14641 0.79328 0.0
H1396 H 0.37794 0.12129 0.72087 0.0
H1397 H 0.32514 0.07392 0.75213 0.0
H1398 H 0.38251 0.15793 0.77052 0.0
H1399 H 0.39609 0.14762 0.78086 0.0
H1400 H 0.39488 0.15201 0.74426 0.0
H1401 H 0.31116 0.07706 0.7938 0.0
H1402 H 0.32996 0.08865 0.82005 0.0
H1403 H 0.31912 0.10133 0.80763 0.0
H1404 H 0.37963 0.13408 0.87387 0.0
H1405 H 0.35034 0.16189 0.84667 0.0
H1406 H 0.38616 0.11814 0.80815 0.0
H1407 H 0.36425 0.09837 0.82114 0.0
H1408 H 0.3841 0.11288 0.84501 0.0
H1409 H 0.35011 0.1511 0.77365 0.0
H1410 H 0.33847 0.15768 0.8003 0.0
H1411 H 0.32798 0.13265 0.78801 0.0
C1412 C 0.93835 0.26907 0.78931 0.0
C1413 C 0.93231 0.2643 0.7611 0.0
C1414 C 0.92603 0.25861 0.81123 0.0
C1415 C 0.90719 0.24298 0.80481 0.0
C1416 C 0.90108 0.23786 0.77638 0.0
C1417 C 0.91372 0.24858 0.75484 0.0
C1418 C 0.9331 0.2645 0.84132 0.0
C1419 C 0.88111 0.22127 0.76875 0.0
C1420 C 0.88296 0.20872 0.86473 0.0
C1421 C 0.87314 0.21676 0.87778 0.0
C1422 C 0.89331 0.21643 0.83998 0.0
C1423 C 0.89381 0.23253 0.82808 0.0
C1424 C 0.88288 0.23984 0.84016 0.0
C1425 C 0.87268 0.23186 0.86488 0.0
C1426 C 0.90471 0.20818 0.82764 0.0
C1427 C 0.88288 0.25687 0.82798 0.0
H1428 H 0.95269 0.28115 0.79434 0.0
H1429 H 0.90893 0.24476 0.73309 0.0
H1430 H 0.92424 0.26915 0.85283 0.0
H1431 H 0.93161 0.25187 0.85224 0.0
H1432 H 0.94831 0.27664 0.84272 0.0
H1433 H 0.87883 0.21862 0.74561 0.0
H1434 H 0.87827 0.20767 0.77832 0.0
H1435 H 0.87045 0.22454 0.77738 0.0
H1436 H 0.88351 0.19717 0.87477 0.0
H1437 H 0.86493 0.23797 0.87481 0.0
H1438 H 0.92021 0.21883 0.8313 0.0
H1439 H 0.90234 0.20564 0.80454 0.0
H1440 H 0.90095 0.19425 0.8372 0.0
H1441 H 0.89725 0.27026 0.83099 0.0
H1442 H 0.87214 0.25948 0.8381 0.0
H1443 H 0.87989 0.25437 0.805 0.0
C1444 C 0.74149 0.68249 0.7858 0.0
C1445 C 0.74867 0.68626 0.75841 0.0
C1446 C 0.75094 0.67897 0.80702 0.0
C1447 C 0.76832 0.67988 0.80088 0.0
C1448 C 0.77612 0.68465 0.77357 0.0
C1449 C 0.76601 0.68743 0.75249 0.0
C1450 C 0.74188 0.67346 0.83568 0.0
C1451 C 0.79492 0.68642 0.7665 0.0
C1452 C 0.79502 0.68224 0.86704 0.0
C1453 C 0.78904 0.66259 0.86939 0.0
C1454 C 0.78966 0.68845 0.84355 0.0
C1455 C 0.77747 0.6745 0.82263 0.0
C1456 C 0.77228 0.65482 0.82428 0.0
C1457 C 0.77835 0.64916 0.84753 0.0
C1458 C 0.79604 0.70968 0.84204 0.0
C1459 C 0.75898 0.63939 0.80281 0.0
H1460 H 0.72802 0.68145 0.79034 0.0
H1461 H 0.77165 0.69052 0.73133 0.0
H1462 H 0.73868 0.65867 0.84045 0.0
H1463 H 0.75196 0.68372 0.85219 0.0
H1464 H 0.7284 0.67351 0.83707 0.0
H1465 H 0.80004 0.69231 0.7453 0.0
H1466 H 0.80602 0.69607 0.78239 0.0
H1467 H 0.79331 0.67189 0.76705 0.0
H1468 H 0.80316 0.69256 0.88415 0.0
H1469 H 0.77346 0.63389 0.84971 0.0
H1470 H 0.78389 0.71154 0.84729 0.0
H1471 H 0.80065 0.71483 0.8204 0.0
H1472 H 0.80801 0.71904 0.85698 0.0
H1473 H 0.74457 0.63743 0.8044 0.0
H1474 H 0.75753 0.62509 0.80595 0.0
H1475 H 0.76414 0.64396 0.78117 0.0
C1476 C 0.75668 0.65458 0.60996 0.0
C1477 C 0.75188 0.66881 0.61432 0.0
C1478 C 0.76503 0.6533 0.58468 0.0
C1479 C 0.76871 0.66658 0.56335 0.0
C1480 C 0.76455 0.68141 0.56806 0.0
C1481 C 0.75615 0.68231 0.59345 0.0
C1482 C 0.76923 0.63727 0.58039 0.0
C1483 C 0.76833 0.69591 0.54584 0.0
C1484 C 0.80058 0.67333 0.50075 0.0
C1485 C 0.78686 0.66302 0.47944 0.0
C1486 C 0.79496 0.674 0.52862 0.0
C1487 C 0.77521 0.66401 0.53512 0.0
C1488 C 0.76141 0.65265 0.5139 0.0
C1489 C 0.76742 0.65234 0.48632 0.0
C1490 C 0.81008 0.68621 0.55072 0.0
C1491 C 0.74023 0.64158 0.51998 0.0
H1492 H 0.75351 0.64413 0.62603 0.0
H1493 H 0.75264 0.69345 0.59672 0.0
H1494 H 0.75954 0.62667 0.56382 0.0
H1495 H 0.78411 0.64335 0.57302 0.0
H1496 H 0.76727 0.62932 0.59995 0.0
H1497 H 0.76563 0.70741 0.55358 0.0
H1498 H 0.78337 0.703 0.53872 0.0
H1499 H 0.75897 0.68821 0.5272 0.0
H1500 H 0.81562 0.68159 0.49537 0.0
H1501 H 0.75683 0.64413 0.46985 0.0
H1502 H 0.80748 0.67787 0.57001 0.0
H1503 H 0.80935 0.69923 0.55672 0.0
H1504 H 0.82473 0.69119 0.54312 0.0
H1505 H 0.7371 0.63226 0.5383 0.0
H1506 H 0.73149 0.63222 0.50169 0.0
H1507 H 0.73568 0.65204 0.52549 0.0
C1508 C 0.33741 0.08012 0.58606 0.0
C1509 C 0.33127 0.08392 0.61178 0.0
C1510 C 0.33701 0.08901 0.56144 0.0
C1511 C 0.33056 0.10223 0.56267 0.0
C1512 C 0.32494 0.10661 0.58875 0.0
C1513 C 0.32522 0.09729 0.61296 0.0
C1514 C 0.34295 0.08381 0.53395 0.0
C1515 C 0.31828 0.12085 0.59098 0.0
C1516 C 0.34331 0.13398 0.49919 0.0
C1517 C 0.3266 0.1233 0.48267 0.0
C1518 C 0.34452 0.12785 0.52597 0.0
C1519 C 0.32873 0.11055 0.5363 0.0
C1520 C 0.31149 0.10035 0.52039 0.0
C1521 C 0.31059 0.10694 0.4939 0.0
C1522 C 0.36304 0.13931 0.54254 0.0
C1523 C 0.2943 0.08185 0.53063 0.0
H1524 H 0.34208 0.0698 0.58499 0.0
H1525 H 0.32062 0.10045 0.63283 0.0
H1526 H 0.33064 0.07679 0.51899 0.0
H1527 H 0.35448 0.0972 0.5242 0.0
H1528 H 0.34814 0.07372 0.53671 0.0
H1529 H 0.31574 0.12375 0.61313 0.0
H1530 H 0.32906 0.13488 0.58177 0.0
H1531 H 0.30479 0.11501 0.57877 0.0
H1532 H 0.3558 0.14655 0.49061 0.0
H1533 H 0.29753 0.09882 0.48144 0.0
H1534 H 0.37016 0.13084 0.54292 0.0
H1535 H 0.36022 0.14183 0.56469 0.0
H1536 H 0.37305 0.15363 0.5333 0.0
H1537 H 0.29781 0.07036 0.53177 0.0
H1538 H 0.28161 0.07635 0.51658 0.0
H1539 H 0.29046 0.08432 0.55216 0.0
C1540 C 0.9284 0.25788 0.591 0.0
C1541 C 0.91671 0.25577 0.614 0.0
C1542 C 0.9205 0.248 0.56516 0.0
C1543 C 0.90038 0.23568 0.5622 0.0
C1544 C 0.88844 0.2337 0.58515 0.0
C1545 C 0.89676 0.2438 0.61082 0.0
C1546 C 0.93372 0.25054 0.54113 0.0
C1547 C 0.86694 0.22069 0.58271 0.0
C1548 C 0.88338 0.22391 0.48618 0.0
C1549 C 0.88273 0.20634 0.48097 0.0
C1550 C 0.88802 0.23313 0.51305 0.0
C1551 C 0.89209 0.22454 0.53518 0.0
C1552 C 0.89024 0.20618 0.53049 0.0
C1553 C 0.88562 0.19732 0.50342 0.0
C1554 C 0.88971 0.25262 0.51728 0.0
C1555 C 0.89438 0.19651 0.55359 0.0
H1556 H 0.94383 0.26715 0.59321 0.0
H1557 H 0.88762 0.2421 0.62849 0.0
H1558 H 0.93196 0.23628 0.53491 0.0
H1559 H 0.92999 0.25581 0.52248 0.0
H1560 H 0.94901 0.26101 0.54669 0.0
H1561 H 0.85963 0.22134 0.60215 0.0
H1562 H 0.86158 0.22495 0.56473 0.0
H1563 H 0.8629 0.20537 0.57842 0.0
H1564 H 0.8809 0.2308 0.46897 0.0
H1565 H 0.88536 0.18386 0.49952 0.0
H1566 H 0.905 0.26425 0.52016 0.0
H1567 H 0.8821 0.25285 0.53657 0.0
H1568 H 0.88384 0.25616 0.49906 0.0
H1569 H 0.90994 0.20496 0.55856 0.0
H1570 H 0.8901 0.1813 0.54749 0.0
H1571 H 0.88677 0.19631 0.57312 0.0
C1572 C 0.32842 0.25468 0.58873 0.0
C1573 C 0.34618 0.26718 0.60205 0.0
C1574 C 0.32693 0.24345 0.56451 0.0
C1575 C 0.34358 0.24468 0.55339 0.0
C1576 C 0.36147 0.25691 0.56709 0.0
C1577 C 0.36257 0.26806 0.59121 0.0
C1578 C 0.30761 0.23067 0.55038 0.0
C1579 C 0.37951 0.25854 0.5559 0.0
C1580 C 0.33596 0.20493 0.49973 0.0
C1581 C 0.33738 0.21391 0.47437 0.0
C1582 C 0.33844 0.21492 0.52575 0.0
C1583 C 0.34242 0.23429 0.52627 0.0
C1584 C 0.34454 0.24362 0.50068 0.0
C1585 C 0.34208 0.23335 0.47509 0.0
C1586 C 0.33623 0.20458 0.55265 0.0
C1587 C 0.34887 0.26428 0.50029 0.0
H1588 H 0.31568 0.25386 0.597 0.0
H1589 H 0.37632 0.27757 0.60148 0.0
H1590 H 0.30785 0.23592 0.52903 0.0
H1591 H 0.3043 0.21547 0.54775 0.0
H1592 H 0.29592 0.23056 0.56249 0.0
H1593 H 0.39204 0.26762 0.57009 0.0
H1594 H 0.37747 0.24385 0.55304 0.0
H1595 H 0.38279 0.26512 0.53493 0.0
H1596 H 0.33233 0.18991 0.49923 0.0
H1597 H 0.34362 0.2405 0.45551 0.0
H1598 H 0.32347 0.20248 0.5641 0.0
H1599 H 0.34884 0.21357 0.56667 0.0
H1600 H 0.33455 0.19009 0.54866 0.0
H1601 H 0.33704 0.2651 0.51035 0.0
H1602 H 0.35071 0.26962 0.47858 0.0
H1603 H 0.36211 0.27424 0.51262 0.0
C1604 C 0.76861 0.07877 0.59509 0.0
C1605 C 0.75247 0.0798 0.60175 0.0
C1606 C 0.77946 0.08751 0.57113 0.0
C1607 C 0.77394 0.09736 0.55318 0.0
C1608 C 0.75803 0.09901 0.56024 0.0
C1609 C 0.74753 0.09029 0.58454 0.0
C1610 C 0.79643 0.08558 0.56448 0.0
C1611 C 0.75162 0.10927 0.5415 0.0
C1612 C 0.80852 0.12943 0.49701 0.0
C1613 C 0.80183 0.11663 0.47328 0.0
C1614 C 0.79962 0.12342 0.52326 0.0
C1615 C 0.78364 0.10422 0.52572 0.0
C1616 C 0.77695 0.09123 0.50188 0.0
C1617 C 0.78622 0.09753 0.47609 0.0
C1618 C 0.80726 0.1376 0.54832 0.0
C1619 C 0.75999 0.07061 0.50357 0.0
H1620 H 0.77266 0.07088 0.60844 0.0
H1621 H 0.73512 0.0912 0.58959 0.0
H1622 H 0.79334 0.07617 0.54518 0.0
H1623 H 0.80921 0.10005 0.5602 0.0
H1624 H 0.79993 0.07912 0.58189 0.0
H1625 H 0.73996 0.11065 0.55105 0.0
H1626 H 0.76383 0.12405 0.53698 0.0
H1627 H 0.7464 0.10102 0.52104 0.0
H1628 H 0.82054 0.14422 0.49496 0.0
H1629 H 0.78127 0.08736 0.45808 0.0
H1630 H 0.81123 0.13141 0.56552 0.0
H1631 H 0.79598 0.14006 0.55656 0.0
H1632 H 0.81999 0.15189 0.54303 0.0
H1633 H 0.7631 0.06251 0.5188 0.0
H1634 H 0.75628 0.06253 0.48288 0.0
H1635 H 0.7473 0.0708 0.51135 0.0
C1636 C 0.90395 0.65291 0.59309 0.0
C1637 C 0.92068 0.65313 0.58578 0.0
C1638 C 0.89285 0.65476 0.57261 0.0
C1639 C 0.89864 0.65693 0.54417 0.0
C1640 C 0.91529 0.65677 0.53657 0.0
C1641 C 0.92609 0.65485 0.55746 0.0
C1642 C 0.87518 0.65482 0.5815 0.0
C1643 C 0.92194 0.65907 0.50641 0.0
C1644 C 0.86524 0.64825 0.48308 0.0
C1645 C 0.87167 0.66742 0.47589 0.0
C1646 C 0.87322 0.64453 0.50622 0.0
C1647 C 0.88793 0.66037 0.52242 0.0
C1648 C 0.89355 0.6797 0.51631 0.0
C1649 C 0.88534 0.68298 0.49312 0.0
C1650 C 0.86676 0.62371 0.51221 0.0
C1651 C 0.90906 0.69699 0.53319 0.0
H1652 H 0.89961 0.65152 0.61492 0.0
H1653 H 0.93896 0.655 0.5516 0.0
H1654 H 0.8771 0.6692 0.57746 0.0
H1655 H 0.8626 0.64369 0.56887 0.0
H1656 H 0.87202 0.65187 0.60419 0.0
H1657 H 0.93476 0.65791 0.50382 0.0
H1658 H 0.91031 0.64778 0.49252 0.0
H1659 H 0.92546 0.6735 0.49912 0.0
H1660 H 0.85482 0.6362 0.46964 0.0
H1661 H 0.89021 0.69781 0.48767 0.0
H1662 H 0.86383 0.62105 0.53497 0.0
H1663 H 0.87834 0.62099 0.50669 0.0
H1664 H 0.85369 0.61307 0.49996 0.0
H1665 H 0.90606 0.69506 0.55604 0.0
H1666 H 0.91051 0.71091 0.52736 0.0
H1667 H 0.92298 0.69811 0.5296 0.0
C1668 C 0.91153 0.64847 0.75323 0.0
C1669 C 0.90946 0.65712 0.72958 0.0
C1670 C 0.90132 0.64666 0.77792 0.0
C1671 C 0.88867 0.65361 0.77897 0.0
C1672 C 0.88649 0.66234 0.7552 0.0
C1673 C 0.89695 0.66404 0.73078 0.0
C1674 C 0.90412 0.63735 0.80294 0.0
C1675 C 0.87309 0.66986 0.75557 0.0
C1676 C 0.85139 0.63215 0.83625 0.0
C1677 C 0.86016 0.64646 0.85795 0.0
C1678 C 0.86009 0.63468 0.80987 0.0
C1679 C 0.87799 0.65188 0.80522 0.0
C1680 C 0.88641 0.66678 0.82658 0.0
C1681 C 0.87737 0.6639 0.85267 0.0
C1682 C 0.85063 0.61852 0.78752 0.0
C1683 C 0.90544 0.68535 0.82239 0.0
H1684 H 0.92118 0.64311 0.75251 0.0
H1685 H 0.89523 0.6707 0.71257 0.0
H1686 H 0.9094 0.64779 0.82135 0.0
H1687 H 0.89023 0.62444 0.80888 0.0
H1688 H 0.91445 0.63265 0.79865 0.0
H1689 H 0.87289 0.67613 0.73524 0.0
H1690 H 0.85833 0.65787 0.76019 0.0
H1691 H 0.87742 0.68126 0.77258 0.0
H1692 H 0.83819 0.61858 0.84029 0.0
H1693 H 0.88405 0.67509 0.86931 0.0
H1694 H 0.85924 0.61168 0.78421 0.0
H1695 H 0.84998 0.62445 0.76716 0.0
H1696 H 0.83589 0.60703 0.79337 0.0
H1697 H 0.91687 0.68195 0.82041 0.0
H1698 H 0.90924 0.69615 0.84017 0.0
H1699 H 0.90522 0.69212 0.80261 0.0
C1700 C 0.3323 0.25627 0.75524 0.0
C1701 C 0.34777 0.2651 0.73673 0.0
C1702 C 0.33345 0.24776 0.77979 0.0
C1703 C 0.35048 0.24815 0.78597 0.0
C1704 C 0.36577 0.25619 0.76668 0.0
C1705 C 0.36422 0.26455 0.74229 0.0
C1706 C 0.31682 0.23926 0.79983 0.0
C1707 C 0.38418 0.25691 0.77252 0.0
C1708 C 0.36427 0.25184 0.86269 0.0
C1709 C 0.35963 0.2328 0.86763 0.0
C1710 C 0.36114 0.25686 0.83631 0.0
C1711 C 0.3533 0.24254 0.81412 0.0
C1712 C 0.34868 0.22329 0.81881 0.0
C1713 C 0.35196 0.21865 0.84558 0.0
C1714 C 0.36645 0.27761 0.83216 0.0
C1715 C 0.34031 0.20768 0.79559 0.0
H1716 H 0.31947 0.25647 0.75097 0.0
H1717 H 0.37619 0.27117 0.72799 0.0
H1718 H 0.31325 0.22462 0.80615 0.0
H1719 H 0.32083 0.24872 0.81925 0.0
H1720 H 0.30385 0.23798 0.79047 0.0
H1721 H 0.39382 0.26166 0.75407 0.0
H1722 H 0.39185 0.26728 0.79053 0.0
H1723 H 0.38114 0.2424 0.77851 0.0
H1724 H 0.37067 0.26297 0.87944 0.0
H1725 H 0.34837 0.20393 0.84935 0.0
H1726 H 0.35375 0.27779 0.8249 0.0
H1727 H 0.37747 0.28421 0.81562 0.0
H1728 H 0.3721 0.28688 0.85177 0.0
H1729 H 0.32669 0.20571 0.78781 0.0
H1730 H 0.33751 0.19343 0.80266 0.0
H1731 H 0.35023 0.21218 0.77752 0.0
C1732 C 0.76896 0.08627 0.74679 0.0
C1733 C 0.7521 0.08515 0.73817 0.0
C1734 C 0.77808 0.09577 0.77237 0.0
C1735 C 0.77014 0.10434 0.78972 0.0
C1736 C 0.75349 0.10381 0.78071 0.0
C1737 C 0.74466 0.09421 0.75506 0.0
C1738 C 0.79581 0.09604 0.78128 0.0
C1739 C 0.74459 0.11278 0.79865 0.0
C1740 C 0.77717 0.10764 0.86876 0.0
C1741 C 0.79054 0.12757 0.87367 0.0
C1742 C 0.77087 0.09985 0.84145 0.0
C1743 C 0.77815 0.11228 0.8184 0.0
C1744 C 0.79225 0.1323 0.82306 0.0
C1745 C 0.79834 0.13973 0.85074 0.0
C1746 C 0.75595 0.07839 0.83739 0.0
C1747 C 0.80037 0.14596 0.79896 0.0
H1748 H 0.77488 0.07941 0.7338 0.0
H1749 H 0.73171 0.09353 0.74849 0.0
H1750 H 0.8074 0.11111 0.78741 0.0
H1751 H 0.79263 0.08705 0.80002 0.0
H1752 H 0.80113 0.09026 0.76434 0.0
H1753 H 0.73248 0.11237 0.78774 0.0
H1754 H 0.73924 0.10482 0.81846 0.0
H1755 H 0.75548 0.12817 0.80457 0.0
H1756 H 0.77141 0.09815 0.88646 0.0
H1757 H 0.80867 0.15514 0.85454 0.0
H1758 H 0.76101 0.0714 0.82207 0.0
H1759 H 0.74261 0.07656 0.82858 0.0
H1760 H 0.75246 0.07056 0.8574 0.0
H1761 H 0.8056 0.13995 0.78229 0.0
H1762 H 0.81234 0.1607 0.80585 0.0
H1763 H 0.78895 0.14744 0.78939 0.0
C1764 C 0.04904 0.36474 0.05713 0.0
C1765 C 0.04695 0.37376 0.03395 0.0
C1766 C 0.06496 0.36285 0.0599 0.0
C1767 C 0.07922 0.37007 0.03891 0.0
C1768 C 0.0771 0.37892 0.01519 0.0
C1769 C 0.061 0.38071 0.01301 0.0
C1770 C 0.06665 0.35334 0.08562 0.0
C1771 C 0.09193 0.38669 0.99233 0.0
C1772 C 0.12602 0.37997 0.06914 0.0
C1773 C 0.12455 0.36205 0.06342 0.0
C1774 C 0.11219 0.38354 0.05905 0.0
C1775 C 0.09654 0.36883 0.0428 0.0
C1776 C 0.09612 0.35155 0.03447 0.0
C1777 C 0.11017 0.34835 0.04492 0.0
C1778 C 0.11334 0.40225 0.06825 0.0
C1779 C 0.07984 0.33559 0.01687 0.0
H1780 H 0.03829 0.35929 0.07341 0.0
H1781 H 0.05948 0.38764 0.99496 0.0
H1782 H 0.06791 0.34071 0.07915 0.0
H1783 H 0.0798 0.36385 0.09776 0.0
H1784 H 0.05416 0.34818 0.09975 0.0
H1785 H 0.08768 0.3922 0.97451 0.0
H1786 H 0.10578 0.39875 0.00114 0.0
H1787 H 0.09436 0.3751 0.98415 0.0
H1788 H 0.13724 0.39065 0.08328 0.0
H1789 H 0.1089 0.33442 0.04055 0.0
H1790 H 0.10265 0.39916 0.08494 0.0
H1791 H 0.10989 0.40845 0.05046 0.0
H1792 H 0.12774 0.41336 0.07678 0.0
H1793 H 0.067 0.32762 0.03021 0.0
H1794 H 0.08338 0.32497 0.00785 0.0
H1795 H 0.07605 0.34177 -0.00057 0.0
C1796 C 0.63287 0.68273 0.06446 0.0
C1797 C 0.6264 0.67027 0.04041 0.0
C1798 C 0.63619 0.70162 0.06387 0.0
C1799 C 0.63276 0.70821 0.03866 0.0
C1800 C 0.62615 0.69571 0.01429 0.0
C1801 C 0.62316 0.67689 0.01539 0.0
C1802 C 0.64342 0.71454 0.09034 0.0
C1803 C 0.62212 0.70215 0.98719 0.0
C1804 C 0.62668 0.75041 0.05747 0.0
C1805 C 0.64559 0.76609 0.05547 0.0
C1806 C 0.62167 0.73146 0.04884 0.0
C1807 C 0.63603 0.7282 0.0385 0.0
C1808 C 0.65461 0.74434 0.03346 0.0
C1809 C 0.65915 0.76319 0.04192 0.0
C1810 C 0.60158 0.71475 0.05398 0.0
C1811 C 0.67036 0.74157 0.02248 0.0
H1812 H 0.63551 0.67778 0.08382 0.0
H1813 H 0.61809 0.6673 0.99673 0.0
H1814 H 0.65709 0.72826 0.0861 0.0
H1815 H 0.63296 0.71859 0.0972 0.0
H1816 H 0.64581 0.70737 0.10797 0.0
H1817 H 0.61725 0.69077 0.97 0.0
H1818 H 0.61092 0.70575 0.99067 0.0
H1819 H 0.63516 0.7156 0.98026 0.0
H1820 H 0.61624 0.75269 0.06814 0.0
H1821 H 0.67384 0.77531 0.04072 0.0
H1822 H 0.60142 0.70761 0.07359 0.0
H1823 H 0.59653 0.70361 0.03648 0.0
H1824 H 0.59138 0.7198 0.05643 0.0
H1825 H 0.67563 0.73664 0.03975 0.0
H1826 H 0.68263 0.75534 0.01463 0.0
H1827 H 0.66502 0.73022 0.00525 0.0
C1828 C 0.31939 0.95304 -0.00115 0.0
C1829 C 0.33242 0.95781 0.02107 0.0
C1830 C 0.30019 0.93769 0.00091 0.0
C1831 C 0.29381 0.92744 0.02619 0.0
C1832 C 0.30697 0.93235 0.04871 0.0
C1833 C 0.32615 0.94723 0.04566 0.0
C1834 C 0.28677 0.93242 0.97613 0.0
C1835 C 0.30072 0.92216 0.07633 0.0
C1836 C 0.24338 0.90226 0.05361 0.0
C1837 C 0.23901 0.88294 0.05429 0.0
C1838 C 0.26059 0.91689 0.04213 0.0
C1839 C 0.27336 0.91193 0.03 0.0
C1840 C 0.26761 0.89204 0.02675 0.0
C1841 C 0.25058 0.87777 0.03923 0.0
C1842 C 0.26609 0.93787 0.04629 0.0
C1843 C 0.28041 0.88602 0.01282 0.0
H1844 H 0.32428 0.96114 0.97972 0.0
H1845 H 0.33617 0.951 0.06295 0.0
H1846 H 0.27966 0.9166 0.97063 0.0
H1847 H 0.27535 0.93535 0.98171 0.0
H1848 H 0.29431 0.94077 0.95728 0.0
H1849 H 0.31259 0.92822 0.09206 0.0
H1850 H 0.28893 0.92349 0.08536 0.0
H1851 H 0.29518 0.90638 0.07281 0.0
H1852 H 0.2342 0.90627 0.06449 0.0
H1853 H 0.24735 0.8629 0.03939 0.0
H1854 H 0.27301 0.94624 0.02727 0.0
H1855 H 0.27659 0.94478 0.06395 0.0
H1856 H 0.25352 0.93908 0.05143 0.0
H1857 H 0.28751 0.89483 0.99417 0.0
H1858 H 0.27228 0.87033 0.00615 0.0
H1859 H 0.29177 0.88851 0.02792 0.0
C1860 C 0.37906 0.06986 0.96126 0.0
C1861 C 0.37887 0.06148 0.98667 0.0
C1862 C 0.37742 0.08628 0.96084 0.0
C1863 C 0.37539 0.09454 0.98649 0.0
C1864 C 0.37529 0.08626 0.01229 0.0
C1865 C 0.37709 0.06984 0.01209 0.0
C1866 C 0.37774 0.09471 0.93279 0.0
C1867 C 0.37299 0.09456 0.03999 0.0
C1868 C 0.38773 0.14569 0.97382 0.0
C1869 C 0.36995 0.14197 0.96447 0.0
C1870 C 0.38952 0.13067 0.98431 0.0
C1871 C 0.37309 0.11164 0.98559 0.0
C1872 C 0.3548 0.10858 0.97988 0.0
C1873 C 0.35345 0.12381 0.96923 0.0
C1874 C 0.40928 0.13464 0.99043 0.0
C1875 C 0.33686 0.08866 0.98152 0.0
H1876 H 0.38052 0.06358 0.94153 0.0
H1877 H 0.37688 0.06341 0.03183 0.0
H1878 H 0.36407 0.09406 0.92934 0.0
H1879 H 0.38942 0.11028 0.93268 0.0
H1880 H 0.37986 0.08683 0.91485 0.0
H1881 H 0.37431 0.08716 0.0583 0.0
H1882 H 0.3839 0.11038 0.04219 0.0
H1883 H 0.35875 0.09301 0.04058 0.0
H1884 H 0.40052 0.15969 0.96997 0.0
H1885 H 0.3397 0.12097 0.962 0.0
H1886 H 0.41414 0.12951 0.97206 0.0
H1887 H 0.40922 0.12665 0.00896 0.0
H1888 H 0.41979 0.15046 0.99429 0.0
H1889 H 0.33582 0.07964 0.9626 0.0
H1890 H 0.3238 0.08953 0.98229 0.0
H1891 H 0.33724 0.0811 0.00031 0.0
C1892 C 0.93903 0.32123 0.04331 0.0
C1893 C 0.9532 0.33088 0.02298 0.0
C1894 C 0.92289 0.30255 0.03746 0.0
C1895 C 0.92099 0.29324 0.01078 0.0
C1896 C 0.93536 0.30284 0.99034 0.0
C1897 C 0.95119 0.32155 0.99662 0.0
C1898 C 0.90776 0.29287 0.05963 0.0
C1899 C 0.93402 0.29338 0.96169 0.0
C1900 C 0.89078 0.23885 0.99436 0.0
C1901 C 0.8765 0.23778 0.97714 0.0
C1902 C 0.90462 0.25662 0.00758 0.0
C1903 C 0.90396 0.27359 0.00361 0.0
C1904 C 0.88834 0.27203 0.98869 0.0
C1905 C 0.87487 0.25415 0.97541 0.0
C1906 C 0.92102 0.25761 0.02325 0.0
C1907 C 0.88684 0.28963 0.98438 0.0
H1908 H 0.94044 0.32837 0.06371 0.0
H1909 H 0.96209 0.32882 0.98084 0.0
H1910 H 0.89387 0.29011 0.05161 0.0
H1911 H 0.90567 0.27852 0.06438 0.0
H1912 H 0.91151 0.3019 0.0795 0.0
H1913 H 0.94666 0.30257 0.94847 0.0
H1914 H 0.93274 0.27911 0.96406 0.0
H1915 H 0.92099 0.29053 0.95037 0.0
H1916 H 0.8922 0.22625 0.99539 0.0
H1917 H 0.86384 0.25331 0.96197 0.0
H1918 H 0.92445 0.26668 0.04297 0.0
H1919 H 0.93397 0.26454 0.00993 0.0
H1920 H 0.91783 0.2429 0.02852 0.0
H1921 H 0.89012 0.29855 0.00423 0.0
H1922 H 0.87237 0.28543 0.97677 0.0
H1923 H 0.89746 0.29893 0.96853 0.0
C1924 C 0.67749 0.61482 0.02112 0.0
C1925 C 0.67712 0.63195 0.025 0.0
C1926 C 0.69438 0.61557 0.01318 0.0
C1927 C 0.71116 0.63384 0.00843 0.0
C1928 C 0.71121 0.65121 0.0144 0.0
C1929 C 0.69423 0.65005 0.02283 0.0
C1930 C 0.69385 0.59673 0.00777 0.0
C1931 C 0.72871 0.671 0.00938 0.0
C1932 C 0.75908 0.63953 0.98912 0.0
C1933 C 0.75831 0.63962 0.95966 0.0
C1934 C 0.74358 0.63702 0.00554 0.0
C1935 C 0.72715 0.63475 0.99207 0.0
C1936 C 0.72613 0.63413 0.96232 0.0
C1937 C 0.74154 0.63629 0.9466 0.0
C1938 C 0.74497 0.63729 0.0372 0.0
C1939 C 0.70894 0.63175 0.94695 0.0
H1940 H 0.6644 0.60077 0.02326 0.0
H1941 H 0.69412 0.66337 0.026 0.0
H1942 H 0.69302 0.5935 0.98474 0.0
H1943 H 0.70708 0.59795 0.01586 0.0
H1944 H 0.68126 0.58427 0.01769 0.0
H1945 H 0.72731 0.68303 0.01867 0.0
H1946 H 0.74169 0.67214 0.01835 0.0
H1947 H 0.73089 0.673 0.98637 0.0
H1948 H 0.77193 0.6419 -0.0007 0.0
H1949 H 0.74055 0.63563 0.9238 0.0
H1950 H 0.73171 0.6249 0.04585 0.0
H1951 H 0.74649 0.65091 0.04628 0.0
H1952 H 0.75742 0.63654 0.04422 0.0
H1953 H 0.69583 0.61793 0.95263 0.0
H1954 H 0.71049 0.63164 0.9237 0.0
H1955 H 0.70681 0.64385 0.95332 0.0
C1956 C 0.94098 0.62951 0.95972 0.0
C1957 C 0.94935 0.6307 0.98588 0.0
C1958 C 0.92507 0.6315 0.9577 0.0
C1959 C 0.91729 0.63486 0.98245 0.0
C1960 C 0.92557 0.636 0.00899 0.0
C1961 C 0.94149 0.63385 0.01041 0.0
C1962 C 0.91666 0.6301 0.92892 0.0
C1963 C 0.91776 0.63969 0.03578 0.0
C1964 C 0.88897 0.65742 0.9626 0.0
C1965 C 0.87075 0.64073 0.958 0.0
C1966 C 0.90399 0.65605 0.97361 0.0
C1967 C 0.90071 0.6375 0.97988 0.0
C1968 C 0.88182 0.62098 0.97833 0.0
C1969 C 0.86701 0.62281 0.96745 0.0
C1970 C 0.9238 0.67411 0.9754 0.0
C1971 C 0.87762 0.60096 0.98497 0.0
H1972 H 0.94686 0.62702 0.94066 0.0
H1973 H 0.94788 0.63482 0.03073 0.0
H1974 H 0.9013 0.61836 0.92821 0.0
H1975 H 0.91752 0.64397 0.92462 0.0
H1976 H 0.92415 0.62703 0.91182 0.0
H1977 H 0.92538 0.6395 0.05483 0.0
H1978 H 0.91906 0.65408 0.03524 0.0
H1979 H 0.90231 0.62852 0.03761 0.0
H1980 H 0.89186 0.67128 0.95527 0.0
H1981 H 0.85298 0.60985 0.96368 0.0
H1982 H 0.93225 0.67402 0.95709 0.0
H1983 H 0.9314 0.67446 0.99478 0.0
H1984 H 0.92336 0.68764 0.97516 0.0
H1985 H 0.88241 0.59526 0.96723 0.0
H1986 H 0.86208 0.59055 0.98806 0.0
H1987 H 0.88552 0.60156 0.00415 0.0
C1988 C 0.36784 0.32255 0.03721 0.0
C1989 C 0.37069 0.33494 0.0152 0.0
C1990 C 0.36643 0.30456 0.03189 0.0
C1991 C 0.36798 0.29887 0.00393 0.0
C1992 C 0.37089 0.31134 0.98167 0.0
C1993 C 0.37218 0.32916 0.98757 0.0
C1994 C 0.36325 0.29162 0.0561 0.0
C1995 C 0.37265 0.30587 0.95151 0.0
C1996 C 0.38241 0.26299 0.98127 0.0
C1997 C 0.36514 0.24771 0.9696 0.0
C1998 C 0.38328 0.27914 0.99511 0.0
C1999 C 0.36646 0.2799 0.99736 0.0
C2000 C 0.34865 0.26346 0.98851 0.0
C2001 C 0.34822 0.24756 0.97466 0.0
C2002 C 0.40254 0.29625 0.00446 0.0
C2003 C 0.33033 0.2635 0.99086 0.0
H2004 H 0.36666 0.32688 0.05863 0.0
H2005 H 0.37444 0.33861 0.97042 0.0
H2006 H 0.34975 0.27732 0.05267 0.0
H2007 H 0.37503 0.28873 0.0572 0.0
H2008 H 0.36247 0.29819 0.07664 0.0
H2009 H 0.37505 0.31726 0.9367 0.0
H2010 H 0.38474 0.30346 0.94967 0.0
H2011 H 0.35944 0.29201 0.94487 0.0
H2012 H 0.39555 0.26324 0.97722 0.0
H2013 H 0.33484 0.23569 0.96574 0.0
H2014 H 0.40153 0.30251 0.02511 0.0
H2015 H 0.40757 0.30785 0.9889 0.0
H2016 H 0.41342 0.2921 0.00612 0.0
H2017 H 0.32949 0.26976 0.01161 0.0
H2018 H 0.31749 0.24858 0.98797 0.0
H2019 H 0.33 0.27272 0.97439 0.0
C2020 C 0.68582 0.0623 0.02782 0.0
C2021 C 0.67712 0.04729 0.00696 0.0
C2022 C 0.70403 0.07896 0.02377 0.0
C2023 C 0.71381 0.08057 -0.00164 0.0
C2024 C 0.70511 0.06544 0.97728 0.0
C2025 C 0.68688 0.04905 0.98179 0.0
C2026 C 0.71276 0.09485 0.04659 0.0
C2027 C 0.71509 0.06652 0.94989 0.0
C2028 C 0.75234 0.12737 0.96677 0.0
C2029 C 0.76855 0.12615 0.97078 0.0
C2030 C 0.7346 0.11357 0.97799 0.0
C2031 C 0.73306 0.09806 0.99324 0.0
C2032 C 0.7498 0.0979 -0.00036 0.0
C2033 C 0.76742 0.11205 0.98839 0.0
C2034 C 0.71722 0.11451 0.97108 0.0
C2035 C 0.74883 0.08167 0.01585 0.0
H2036 H 0.67838 0.06109 0.04733 0.0
H2037 H 0.68032 0.03753 0.96559 0.0
H2038 H 0.7267 0.09721 0.05357 0.0
H2039 H 0.71564 0.10879 0.03819 0.0
H2040 H 0.70333 0.09137 0.06517 0.0
H2041 H 0.70652 0.05338 0.93588 0.0
H2042 H 0.71795 0.07954 0.93849 0.0
H2043 H 0.72911 0.06813 0.95419 0.0
H2044 H 0.75323 0.13824 0.95299 0.0
H2045 H 0.7799 0.11095 0.99116 0.0
H2046 H 0.70794 0.11128 0.98976 0.0
H2047 H 0.70866 0.10335 0.95431 0.0
H2048 H 0.72122 0.12904 0.9635 0.0
H2049 H 0.73947 0.07835 0.03444 0.0
H2050 H 0.76322 0.08534 0.02304 0.0
H2051 H 0.74255 0.06825 0.00211 0.0
C2052 C 0.63815 0.94207 0.01407 0.0
C2053 C 0.62603 0.93885 0.9912 0.0
C2054 C 0.64185 0.92776 0.02189 0.0
C2055 C 0.63327 0.9097 0.00646 0.0
C2056 C 0.62139 0.90648 0.98291 0.0
C2057 C 0.61788 0.92109 0.97558 0.0
C2058 C 0.65464 0.93185 0.04716 0.0
C2059 C 0.61208 0.88747 0.96589 0.0
C2060 C 0.6579 0.88251 0.02308 0.0
C2061 C 0.64722 0.87194 0.04616 0.0
C2062 C 0.65254 0.89361 0.008 0.0
C2063 C 0.63614 0.89406 0.01629 0.0
C2064 C 0.62425 0.88174 0.03764 0.0
C2065 C 0.62997 0.87085 0.05235 0.0
C2066 C 0.6655 0.90635 0.98516 0.0
C2067 C 0.60655 0.88157 0.047 0.0
H2068 H 0.6446 0.95574 0.02623 0.0
H2069 H 0.60854 0.91847 0.95782 0.0
H2070 H 0.64641 0.92132 0.06371 0.0
H2071 H 0.66665 0.92991 0.04116 0.0
H2072 H 0.66069 0.94685 0.05633 0.0
H2073 H 0.60454 0.88784 0.94686 0.0
H2074 H 0.62296 0.88396 0.95925 0.0
H2075 H 0.60157 0.87546 0.97907 0.0
H2076 H 0.67133 0.88349 0.0184 0.0
H2077 H 0.62169 0.86262 0.07019 0.0
H2078 H 0.67427 0.92162 0.99356 0.0
H2079 H 0.65703 0.90623 0.96703 0.0
H2080 H 0.67533 0.90163 0.97757 0.0
H2081 H 0.61085 0.89527 0.05927 0.0
H2082 H 0.59734 0.86907 0.06047 0.0
H2083 H 0.598 0.88088 0.02858 0.0
C2084 C 0.05404 0.69771 0.98149 0.0
C2085 C 0.04536 0.68403 0.00261 0.0
C2086 C 0.07082 0.71596 0.98712 0.0
C2087 C 0.079 0.72064 0.01453 0.0
C2088 C 0.07035 0.70683 0.03583 0.0
C2089 C 0.05371 0.68873 0.0296 0.0
C2090 C 0.07969 0.73027 0.96388 0.0
C2091 C 0.07856 0.71123 0.06541 0.0
C2092 C 0.13 0.75858 0.03566 0.0
C2093 C 0.12729 0.77233 0.05035 0.0
C2094 C 0.11468 0.74243 0.02126 0.0
C2095 C 0.09632 0.74007 0.02168 0.0
C2096 C 0.09413 0.7551 0.03371 0.0
C2097 C 0.10968 0.77109 0.04787 0.0
C2098 C 0.11772 0.72691 0.00829 0.0
C2099 C 0.07489 0.75332 0.03443 0.0
H2100 H 0.04773 0.69419 0.96055 0.0
H2101 H 0.04715 0.67829 0.04606 0.0
H2102 H 0.07954 0.74365 0.96956 0.0
H2103 H 0.09488 0.73472 0.9612 0.0
H2104 H 0.07203 0.72411 0.94343 0.0
H2105 H 0.0702 0.69885 0.07945 0.0
H2106 H 0.09355 0.71472 0.06497 0.0
H2107 H 0.07881 0.72421 0.07465 0.0
H2108 H 0.14356 0.75943 0.03762 0.0
H2109 H 0.10762 0.78181 0.05905 0.0
H2110 H 0.10987 0.72116 0.98794 0.0
H2111 H 0.11206 0.71455 0.02263 0.0
H2112 H 0.13313 0.73252 0.00476 0.0
H2113 H 0.06737 0.74776 0.01382 0.0
H2114 H 0.07623 0.7675 0.03997 0.0
H2115 H 0.06583 0.74273 0.05045 0.0
C2116 C 0.31467 0.38547 0.00229 0.0
C2117 C 0.32076 0.37772 0.02279 0.0
C2118 C 0.29653 0.38337 0.00381 0.0
C2119 C 0.28424 0.37327 0.02632 0.0
C2120 C 0.29024 0.36519 0.0468 0.0
C2121 C 0.30837 0.36754 0.04479 0.0
C2122 C 0.29066 0.39222 0.98167 0.0
C2123 C 0.27758 0.35421 0.07115 0.0
C2124 C 0.24561 0.37932 0.05884 0.0
C2125 C 0.22935 0.36113 0.05173 0.0
C2126 C 0.26358 0.38466 0.04783 0.0
C2127 C 0.26525 0.37137 0.02952 0.0
C2128 C 0.24845 0.35414 0.01949 0.0
C2129 C 0.23063 0.34922 0.03074 0.0
C2130 C 0.28101 0.40334 0.05874 0.0
C2131 C 0.2495 0.33964 -0.00024 0.0
H2132 H 0.32416 0.39337 0.98522 0.0
H2133 H 0.31285 0.36141 0.06067 0.0
H2134 H 0.27649 0.38112 0.97251 0.0
H2135 H 0.28919 0.40406 0.99146 0.0
H2136 H 0.30122 0.39834 0.9644 0.0
H2137 H 0.28421 0.34845 0.08489 0.0
H2138 H 0.27454 0.36395 0.08421 0.0
H2139 H 0.26366 0.3418 0.06314 0.0
H2140 H 0.24461 0.38846 0.07524 0.0
H2141 H 0.21808 0.33505 0.02547 0.0
H2142 H 0.29155 0.41054 0.04176 0.0
H2143 H 0.28805 0.39997 0.07548 0.0
H2144 H 0.27718 0.41373 0.06785 0.0
H2145 H 0.26044 0.34716 0.98336 0.0
H2146 H 0.23547 0.32944 0.98933 0.0
H2147 H 0.25371 0.33096 0.0119 0.0
C2148 C 0.72147 0.70707 0.35916 0.0
C2149 C 0.7098 0.69889 0.33505 0.0
C2150 C 0.73562 0.7029 0.36527 0.0
C2151 C 0.73838 0.69049 0.34662 0.0
C2152 C 0.72748 0.6832 0.32136 0.0
C2153 C 0.71319 0.68734 0.31599 0.0
C2154 C 0.74679 0.71086 0.39259 0.0
C2155 C 0.73026 0.67026 0.30066 0.0
C2156 C 0.78259 0.68869 0.36422 0.0
C2157 C 0.77467 0.67284 0.38192 0.0
C2158 C 0.7708 0.69397 0.35085 0.0
C2159 C 0.75078 0.68319 0.35562 0.0
C2160 C 0.74271 0.66633 0.37184 0.0
C2161 C 0.75474 0.66132 0.38462 0.0
C2162 C 0.7799 0.71177 0.33319 0.0
C2163 C 0.72149 0.65437 0.37753 0.0
H2164 H 0.71902 0.71606 0.37396 0.0
H2165 H 0.7044 0.68116 0.29711 0.0
H2166 H 0.74285 0.69866 0.40671 0.0
H2167 H 0.76237 0.71813 0.38864 0.0
H2168 H 0.744 0.72146 0.40372 0.0
H2169 H 0.72299 0.66841 0.28016 0.0
H2170 H 0.74572 0.67635 0.2969 0.0
H2171 H 0.72434 0.65566 0.30949 0.0
H2172 H 0.79801 0.69761 0.36219 0.0
H2173 H 0.74863 0.64895 0.39816 0.0
H2174 H 0.78023 0.72401 0.34519 0.0
H2175 H 0.7714 0.70898 0.31366 0.0
H2176 H 0.7948 0.71638 0.32739 0.0
H2177 H 0.71735 0.64089 0.38877 0.0
H2178 H 0.71318 0.65019 0.35753 0.0
H2179 H 0.71731 0.66321 0.39059 0.0
C2180 C 0.30689 0.01622 0.37097 0.0
C2181 C 0.30101 0.00668 0.34443 0.0
C2182 C 0.30974 0.03482 0.37592 0.0
C2183 C 0.3064 0.04407 0.35388 0.0
C2184 C 0.30048 0.03455 0.327 0.0
C2185 C 0.29797 0.016 0.32253 0.0
C2186 C 0.31627 0.04454 0.40486 0.0
C2187 C 0.29656 0.04386 0.30313 0.0
C2188 C 0.29743 0.08254 0.38403 0.0
C2189 C 0.31585 0.09923 0.38351 0.0
C2190 C 0.29367 0.06471 0.37197 0.0
C2191 C 0.30881 0.06353 0.35962 0.0
C2192 C 0.32704 0.08074 0.35693 0.0
C2193 C 0.33032 0.09847 0.36883 0.0
C2194 C 0.27394 0.04682 0.37481 0.0
C2195 C 0.3436 0.08014 0.34405 0.0
H2196 H 0.3094 0.0092 0.38796 0.0
H2197 H 0.29337 0.00869 0.30197 0.0
H2198 H 0.32969 0.05896 0.40327 0.0
H2199 H 0.30531 0.0471 0.41422 0.0
H2200 H 0.31882 0.03565 0.41941 0.0
H2201 H 0.29245 0.03475 0.28332 0.0
H2202 H 0.28484 0.04628 0.30897 0.0
H2203 H 0.30941 0.05834 0.29916 0.0
H2204 H 0.28627 0.08318 0.39551 0.0
H2205 H 0.34463 0.11134 0.36878 0.0
H2206 H 0.2742 0.03775 0.39159 0.0
H2207 H 0.26938 0.03779 0.35494 0.0
H2208 H 0.26312 0.05066 0.38041 0.0
H2209 H 0.3487 0.07351 0.35894 0.0
H2210 H 0.35577 0.09494 0.33939 0.0
H2211 H 0.3391 0.07097 0.32432 0.0
C2212 C 0.98432 0.28691 0.31895 0.0
C2213 C 0.99771 0.29734 0.34072 0.0
C2214 C 0.96625 0.27046 0.32456 0.0
C2215 C 0.96149 0.26434 0.35258 0.0
C2216 C 0.97506 0.27467 0.37454 0.0
C2217 C 0.99295 0.291 0.36835 0.0
C2218 C 0.95218 0.25981 0.30062 0.0
C2219 C 0.97057 0.26864 0.40474 0.0
C2220 C 0.91097 0.23594 0.38037 0.0
C2221 C 0.90861 0.21766 0.38434 0.0
C2222 C 0.92758 0.25093 0.36803 0.0
C2223 C 0.94219 0.24754 0.35949 0.0
C2224 C 0.93914 0.22862 0.36124 0.0
C2225 C 0.92235 0.21387 0.37366 0.0
C2226 C 0.93013 0.27081 0.36632 0.0
C2227 C 0.95429 0.22435 0.35219 0.0
H2228 H 0.98786 0.29167 0.29753 0.0
H2229 H 0.00319 0.29891 0.38532 0.0
H2230 H 0.94741 0.24413 0.30003 0.0
H2231 H 0.93926 0.26069 0.30397 0.0
H2232 H 0.95835 0.2659 0.27987 0.0
H2233 H 0.98284 0.27795 0.41925 0.0
H2234 H 0.95812 0.26949 0.4119 0.0
H2235 H 0.96662 0.25327 0.40637 0.0
H2236 H 0.90027 0.23885 0.38841 0.0
H2237 H 0.92067 0.19981 0.37687 0.0
H2238 H 0.93564 0.27694 0.3454 0.0
H2239 H 0.94083 0.28091 0.38237 0.0
H2240 H 0.91654 0.27037 0.37013 0.0
H2241 H 0.96023 0.23063 0.33149 0.0
H2242 H 0.94862 0.20844 0.35074 0.0
H2243 H 0.96627 0.23123 0.36774 0.0
C2244 C 0.04386 0.40397 0.35446 0.0
C2245 C 0.0435 0.39412 0.32922 0.0
C2246 C 0.04107 0.41976 0.35445 0.0
C2247 C 0.03798 0.4259 0.32859 0.0
C2248 C 0.03764 0.41602 0.30308 0.0
C2249 C 0.04034 0.40027 0.30373 0.0
C2250 C 0.04138 0.42983 0.38203 0.0
C2251 C 0.03444 0.42212 0.27496 0.0
C2252 C 0.01354 0.45365 0.31626 0.0
C2253 C 0.02906 0.47149 0.30767 0.0
C2254 C 0.01636 0.43917 0.32626 0.0
C2255 C 0.03515 0.44267 0.32756 0.0
C2256 C 0.05096 0.46153 0.32236 0.0
C2257 C 0.04772 0.47578 0.31255 0.0
C2258 C 0.99909 0.41943 0.33216 0.0
C2259 C 0.07124 0.46599 0.32371 0.0
H2260 H 0.04622 0.39928 0.37427 0.0
H2261 H 0.04006 0.3928 0.28413 0.0
H2262 H 0.05276 0.44551 0.38182 0.0
H2263 H 0.02757 0.42904 0.38494 0.0
H2264 H 0.04391 0.42327 0.40033 0.0
H2265 H 0.03471 0.413 0.25708 0.0
H2266 H 0.02042 0.42105 0.27471 0.0
H2267 H 0.04566 0.43756 0.27158 0.0
H2268 H 0.99909 0.45034 0.31262 0.0
H2269 H 0.05978 0.48949 0.30579 0.0
H2270 H 1.00167 0.41313 0.35071 0.0
H2271 H 0.99621 0.40933 0.31376 0.0
H2272 H 0.98613 0.4202 0.33591 0.0
H2273 H 0.07346 0.45949 0.34233 0.0
H2274 H 0.08184 0.48194 0.32456 0.0
H2275 H 0.07405 0.45954 0.30465 0.0
C2276 C 0.61139 0.64849 0.30234 0.0
C2277 C 0.61812 0.66098 0.32635 0.0
C2278 C 0.59496 0.62975 0.30328 0.0
C2279 C 0.58479 0.62334 0.32882 0.0
C2280 C 0.59139 0.63591 0.35314 0.0
C2281 C 0.60807 0.65455 0.35167 0.0
C2282 C 0.58854 0.61676 0.27685 0.0
C2283 C 0.58079 0.6297 0.38059 0.0
C2284 C 0.53487 0.58144 0.31147 0.0
C2285 C 0.53741 0.56563 0.31297 0.0
C2286 C 0.54957 0.60035 0.31985 0.0
C2287 C 0.56726 0.60344 0.32946 0.0
C2288 C 0.56897 0.58717 0.33419 0.0
C2289 C 0.55391 0.56837 0.326 0.0
C2290 C 0.54693 0.61719 0.3151 0.0
C2291 C 0.58753 0.58974 0.34441 0.0
H2292 H 0.6191 0.65327 0.28274 0.0
H2293 H 0.61314 0.66415 0.37031 0.0
H2294 H 0.58785 0.60294 0.28084 0.0
H2295 H 0.57395 0.61293 0.27061 0.0
H2296 H 0.59828 0.62379 0.25889 0.0
H2297 H 0.58778 0.64118 0.3976 0.0
H2298 H 0.5659 0.62617 0.37763 0.0
H2299 H 0.5799 0.61626 0.38749 0.0
H2300 H 0.52216 0.5793 0.30112 0.0
H2301 H 0.55598 0.55618 0.32676 0.0
H2302 H 0.55401 0.62415 0.2952 0.0
H2303 H 0.55363 0.62843 0.33242 0.0
H2304 H 0.53155 0.61231 0.31338 0.0
H2305 H 0.5978 0.59448 0.32675 0.0
H2306 H 0.58544 0.57593 0.35216 0.0
H2307 H 0.59408 0.60115 0.36152 0.0
C2308 C 0.35799 0.96032 0.35333 0.0
C2309 C 0.34759 0.9602 0.32995 0.0
C2310 C 0.3762 0.96281 0.35008 0.0
C2311 C 0.38406 0.96512 0.32283 0.0
C2312 C 0.37358 0.96495 0.2992 0.0
C2313 C 0.35554 0.96256 0.30308 0.0
C2314 C 0.38704 0.96307 0.37572 0.0
C2315 C 0.38139 0.9673 0.2697 0.0
C2316 C 0.43583 0.98924 0.30244 0.0
C2317 C 0.43633 0.97309 0.29169 0.0
C2318 C 0.41946 0.9868 0.31587 0.0
C2319 C 0.40324 0.96776 0.31835 0.0
C2320 C 0.40463 0.9514 0.31075 0.0
C2321 C 0.42124 0.95427 0.29754 0.0
C2322 C 0.41876 0.00465 0.32419 0.0
C2323 C 0.38776 0.93085 0.31322 0.0
H2324 H 0.35196 0.95856 0.37419 0.0
H2325 H 0.34762 0.96245 0.28489 0.0
H2326 H 0.39039 0.95145 0.37342 0.0
H2327 H 0.40088 0.97719 0.37771 0.0
H2328 H 0.37887 0.96093 0.39542 0.0
H2329 H 0.37132 0.96662 0.25359 0.0
H2330 H 0.39509 0.98151 0.26836 0.0
H2331 H 0.38442 0.95567 0.26441 0.0
H2332 H 0.44757 0.00381 0.29804 0.0
H2333 H 0.42154 0.94175 0.28914 0.0
H2334 H 0.41098 0.00259 0.34423 0.0
H2335 H 0.41097 0.00721 0.30764 0.0
H2336 H 0.43334 0.01786 0.32656 0.0
H2337 H 0.38013 0.92921 0.33329 0.0
H2338 H 0.3922 0.92 0.31195 0.0
H2339 H 0.37748 0.92748 0.29574 0.0
C2340 C 0.61085 0.96593 0.33612 0.0
C2341 C 0.61996 0.96387 0.31225 0.0
C2342 C 0.59484 0.9678 0.33341 0.0
C2343 C 0.58781 0.96758 0.30622 0.0
C2344 C 0.59685 0.96529 0.28212 0.0
C2345 C 0.61278 0.96349 0.28544 0.0
C2346 C 0.58559 0.97026 0.35954 0.0
C2347 C 0.58982 0.96493 0.25268 0.0
C2348 C 0.53828 0.9557 0.28642 0.0
C2349 C 0.5423 0.974 0.27829 0.0
C2350 C 0.55261 0.95357 0.29839 0.0
C2351 C 0.5713 0.97014 0.30232 0.0
C2352 C 0.57474 0.9889 0.29721 0.0
C2353 C 0.56018 0.9906 0.28518 0.0
C2354 C 0.54827 0.93332 0.3038 0.0
C2355 C 0.59435 0.00699 0.30145 0.0
H2356 H 0.61631 0.96625 0.35693 0.0
H2357 H 0.61966 0.96185 0.26687 0.0
H2358 H 0.58684 0.98464 0.35978 0.0
H2359 H 0.5701 0.95895 0.35947 0.0
H2360 H 0.59224 0.96927 0.37915 0.0
H2361 H 0.59824 0.96268 0.2362 0.0
H2362 H 0.57458 0.95306 0.2502 0.0
H2363 H 0.59069 0.97887 0.24901 0.0
H2364 H 0.5245 0.94283 0.28099 0.0
H2365 H 0.56325 0.00478 0.27906 0.0
H2366 H 0.55522 0.93319 0.32361 0.0
H2367 H 0.55403 0.92844 0.28634 0.0
H2368 H 0.53262 0.92267 0.30508 0.0
H2369 H 0.60097 0.00664 0.32148 0.0
H2370 H 0.59383 0.02048 0.3016 0.0
H2371 H 0.60378 0.00768 0.28404 0.0
C2372 C 0.03301 0.6557 0.37207 0.0
C2373 C 0.03557 0.66793 0.34997 0.0
C2374 C 0.03113 0.63748 0.36674 0.0
C2375 C 0.03196 0.63143 0.33869 0.0
C2376 C 0.03464 0.64376 0.31635 0.0
C2377 C 0.03635 0.66178 0.32225 0.0
C2378 C 0.02814 0.62467 0.39104 0.0
C2379 C 0.03571 0.63793 0.2861 0.0
C2380 C 0.04481 0.5943 0.31574 0.0
C2381 C 0.02719 0.57916 0.30485 0.0
C2382 C 0.04636 0.61087 0.3293 0.0
C2383 C 0.02987 0.61217 0.33211 0.0
C2384 C 0.01173 0.59593 0.32397 0.0
C2385 C 0.01063 0.57963 0.31029 0.0
C2386 C 0.06596 0.62779 0.33778 0.0
C2387 C 0.99373 0.59652 0.32698 0.0
H2388 H 0.03236 0.66031 0.39355 0.0
H2389 H 0.03839 0.67111 0.30503 0.0
H2390 H 0.01436 0.61057 0.38821 0.0
H2391 H 0.03964 0.62135 0.39151 0.0
H2392 H 0.02802 0.63157 0.41165 0.0
H2393 H 0.03816 0.64932 0.27125 0.0
H2394 H 0.04749 0.63508 0.28377 0.0
H2395 H 0.0222 0.62423 0.27993 0.0
H2396 H 0.05766 0.59406 0.31132 0.0
H2397 H 0.99699 0.5679 0.30187 0.0
H2398 H 0.06553 0.63437 0.35847 0.0
H2399 H 0.07088 0.63924 0.32201 0.0
H2400 H 0.07662 0.62332 0.33894 0.0
H2401 H 0.99342 0.60306 0.34778 0.0
H2402 H 0.98064 0.58175 0.32452 0.0
H2403 H 0.99341 0.60578 0.31056 0.0
C2404 C 0.34723 0.38664 0.37341 0.0
C2405 C 0.33774 0.37291 0.35117 0.0
C2406 C 0.3653 0.40355 0.36954 0.0
C2407 C 0.37418 0.40661 0.34295 0.0
C2408 C 0.3647 0.3927 0.32053 0.0
C2409 C 0.34657 0.37615 0.32485 0.0
C2410 C 0.37481 0.41821 0.39376 0.0
C2411 C 0.37374 0.39526 0.29189 0.0
C2412 C 0.41201 0.45467 0.31365 0.0
C2413 C 0.42814 0.45301 0.31464 0.0
C2414 C 0.39464 0.44058 0.3255 0.0
C2415 C 0.39335 0.42427 0.33803 0.0
C2416 C 0.41009 0.42356 0.34139 0.0
C2417 C 0.42737 0.43805 0.32976 0.0
C2418 C 0.37727 0.44217 0.32204 0.0
C2419 C 0.40937 0.40641 0.35445 0.0
H2420 H 0.34045 0.38429 0.39378 0.0
H2421 H 0.3394 0.36557 0.3076 0.0
H2422 H 0.38893 0.42019 0.39864 0.0
H2423 H 0.37748 0.4326 0.38782 0.0
H2424 H 0.36601 0.41371 0.4131 0.0
H2425 H 0.36471 0.38285 0.27693 0.0
H2426 H 0.37623 0.40885 0.28274 0.0
H2427 H 0.38788 0.39667 0.29393 0.0
H2428 H 0.41262 0.4662 0.30176 0.0
H2429 H 0.43978 0.43663 0.33014 0.0
H2430 H 0.36862 0.438 0.34149 0.0
H2431 H 0.36809 0.43201 0.3047 0.0
H2432 H 0.38129 0.45717 0.31686 0.0
H2433 H 0.40066 0.40224 0.37382 0.0
H2434 H 0.4239 0.40955 0.35975 0.0
H2435 H 0.4025 0.39367 0.33936 0.0
C2436 C 0.27904 0.25098 0.31155 0.0
C2437 C 0.28594 0.26789 0.32891 0.0
C2438 C 0.28293 0.23648 0.31793 0.0
C2439 C 0.29398 0.23898 0.34219 0.0
C2440 C 0.3012 0.25615 0.35951 0.0
C2441 C 0.29708 0.27033 0.35269 0.0
C2442 C 0.275 0.21839 0.299 0.0
C2443 C 0.31311 0.25946 0.38557 0.0
C2444 C 0.29183 0.19912 0.38426 0.0
C2445 C 0.30979 0.20173 0.3786 0.0
C2446 C 0.28554 0.20982 0.37032 0.0
C2447 C 0.29763 0.22357 0.35048 0.0
C2448 C 0.31488 0.22471 0.3426 0.0
C2449 C 0.32075 0.2137 0.35677 0.0
C2450 C 0.26693 0.2079 0.37911 0.0
C2451 C 0.32814 0.23907 0.32144 0.0
H2452 H 0.27044 0.24897 0.29311 0.0
H2453 H 0.30256 0.28335 0.36618 0.0
H2454 H 0.28669 0.21622 0.29196 0.0
H2455 H 0.26475 0.20541 0.31087 0.0
H2456 H 0.26753 0.2191 0.28015 0.0
H2457 H 0.31806 0.27382 0.39636 0.0
H2458 H 0.30462 0.24785 0.40066 0.0
H2459 H 0.32584 0.25868 0.37993 0.0
H2460 H 0.28339 0.18987 0.40122 0.0
H2461 H 0.33474 0.21587 0.35259 0.0
H2462 H 0.25882 0.2078 0.36052 0.0
H2463 H 0.27002 0.22062 0.393 0.0
H2464 H 0.25776 0.19441 0.3908 0.0
H2465 H 0.31998 0.23931 0.30316 0.0
H2466 H 0.33889 0.23562 0.31373 0.0
H2467 H 0.33588 0.25394 0.33149 0.0
C2468 C 0.72242 0.03142 0.30405 0.0
C2469 C 0.71456 0.01855 0.32628 0.0
C2470 C 0.73874 0.05022 0.3083 0.0
C2471 C 0.74731 0.05624 0.33541 0.0
C2472 C 0.73947 0.04327 0.35786 0.0
C2473 C 0.72325 0.02463 0.353 0.0
C2474 C 0.74673 0.06364 0.28391 0.0
C2475 C 0.74814 0.04909 0.38717 0.0
C2476 C 0.79793 0.09515 0.35538 0.0
C2477 C 0.79477 0.10861 0.36998 0.0
C2478 C 0.78289 0.07885 0.34087 0.0
C2479 C 0.76437 0.0761 0.34105 0.0
C2480 C 0.76184 0.09106 0.35242 0.0
C2481 C 0.77713 0.1072 0.36675 0.0
C2482 C 0.78631 0.06343 0.32859 0.0
C2483 C 0.74244 0.08891 0.35271 0.0
H2484 H 0.7158 0.02684 0.28332 0.0
H2485 H 0.71733 0.01482 0.37032 0.0
H2486 H 0.74607 0.07686 0.28851 0.0
H2487 H 0.76201 0.06856 0.2809 0.0
H2488 H 0.73879 0.05652 0.26392 0.0
H2489 H 0.74033 0.03724 0.40224 0.0
H2490 H 0.76328 0.05306 0.38662 0.0
H2491 H 0.74803 0.06211 0.39527 0.0
H2492 H 0.81154 0.09615 0.35784 0.0
H2493 H 0.77474 0.11773 0.37782 0.0
H2494 H 0.77819 0.05697 0.30859 0.0
H2495 H 0.78128 0.05152 0.34363 0.0
H2496 H 0.80175 0.06941 0.32464 0.0
H2497 H 0.7347 0.08239 0.33246 0.0
H2498 H 0.74361 0.10315 0.3568 0.0
H2499 H 0.73371 0.07901 0.36963 0.0
C2500 C 0.97245 0.70077 0.37902 0.0
C2501 C 0.98505 0.7108 0.35715 0.0
C2502 C 0.95441 0.69865 0.3806 0.0
C2503 C 0.94872 0.7068 0.35978 0.0
C2504 C 0.96126 0.71682 0.33748 0.0
C2505 C 0.9793 0.71871 0.33641 0.0
C2506 C 0.94149 0.6878 0.40478 0.0
C2507 C 0.9557 0.72572 0.31498 0.0
C2508 C 0.89506 0.68285 0.36235 0.0
C2509 C 0.8935 0.6948 0.38299 0.0
C2510 C 0.91305 0.68771 0.35187 0.0
C2511 C 0.92971 0.70492 0.36227 0.0
C2512 C 0.92782 0.71826 0.38011 0.0
C2513 C 0.90969 0.71301 0.39032 0.0
C2514 C 0.91435 0.67318 0.33256 0.0
C2515 C 0.94512 0.73693 0.39136 0.0
H2516 H 0.9767 0.69456 0.3951 0.0
H2517 H 0.98895 0.7265 0.31943 0.0
H2518 H 0.93832 0.69759 0.41743 0.0
H2519 H 0.92765 0.67536 0.39657 0.0
H2520 H 0.94796 0.68209 0.41895 0.0
H2521 H 0.96664 0.73216 0.29826 0.0
H2522 H 0.94181 0.71453 0.30514 0.0
H2523 H 0.95375 0.7373 0.32459 0.0
H2524 H 0.88258 0.66871 0.35677 0.0
H2525 H 0.90846 0.72225 0.40629 0.0
H2526 H 0.91838 0.66452 0.34511 0.0
H2527 H 0.92551 0.68066 0.31644 0.0
H2528 H 0.90046 0.66295 0.32178 0.0
H2529 H 0.95185 0.73354 0.40855 0.0
H2530 H 0.9412 0.74736 0.39998 0.0
H2531 H 0.95595 0.74407 0.37472 0.0
C2532 C 0.39089 0.04248 0.69269 0.0
C2533 C 0.38182 0.03646 0.66618 0.0
C2534 C 0.40525 0.03891 0.70012 0.0
C2535 C 0.41081 0.02914 0.68056 0.0
C2536 C 0.40216 0.02356 0.65346 0.0
C2537 C 0.38774 0.02724 0.6466 0.0
C2538 C 0.41406 0.04509 0.72929 0.0
C2539 C 0.40776 0.01323 0.63199 0.0
C2540 C 0.45757 0.03327 0.70069 0.0
C2541 C 0.45081 0.01634 0.71583 0.0
C2542 C 0.44472 0.03707 0.68728 0.0
C2543 C 0.42472 0.02371 0.68947 0.0
C2544 C 0.41799 0.00601 0.70328 0.0
C2545 C 0.43113 0.00257 0.71632 0.0
C2546 C 0.45249 0.056 0.67254 0.0
C2547 C 0.39685 0.99136 0.7062 0.0
H2548 H 0.38651 0.04967 0.70795 0.0
H2549 H 0.38089 0.0226 0.62603 0.0
H2550 H 0.41071 0.03204 0.74102 0.0
H2551 H 0.42987 0.05439 0.72792 0.0
H2552 H 0.40877 0.05329 0.74157 0.0
H2553 H 0.4009 0.01132 0.61112 0.0
H2554 H 0.42353 0.02148 0.62941 0.0
H2555 H 0.40352 0.99863 0.63945 0.0
H2556 H 0.47279 0.04403 0.70076 0.0
H2557 H 0.42598 0.98962 0.72844 0.0
H2558 H 0.44983 0.06602 0.68559 0.0
H2559 H 0.44509 0.05348 0.652 0.0
H2560 H 0.46813 0.0633 0.66892 0.0
H2561 H 0.39049 0.99756 0.72058 0.0
H2562 H 0.39402 0.97747 0.71479 0.0
H2563 H 0.38942 0.98812 0.68553 0.0
C2564 C 0.96957 0.35369 0.69784 0.0
C2565 C 0.96032 0.34332 0.67283 0.0
C2566 C 0.97285 0.37235 0.70389 0.0
C2567 C 0.96668 0.38091 0.68449 0.0
C2568 C 0.95749 0.37064 0.65905 0.0
C2569 C 0.95444 0.35195 0.65349 0.0
C2570 C 0.98278 0.38284 0.73125 0.0
C2571 C 0.95066 0.37927 0.63796 0.0
C2572 C 0.96098 0.41963 0.72189 0.0
C2573 C 0.97912 0.43627 0.71812 0.0
C2574 C 0.95596 0.40168 0.70876 0.0
C2575 C 0.9695 0.40038 0.69166 0.0
C2576 C 0.98708 0.41756 0.68552 0.0
C2577 C 0.99167 0.43538 0.69882 0.0
C2578 C 0.93695 0.38379 0.71555 0.0
C2579 C 1.00186 0.41685 0.66729 0.0
H2580 H 0.97423 0.3472 0.71287 0.0
H2581 H 0.94727 0.34405 0.63409 0.0
H2582 H 0.99574 0.39718 0.72696 0.0
H2583 H 0.97313 0.38567 0.74427 0.0
H2584 H 0.98711 0.37437 0.74371 0.0
H2585 H 0.94449 0.36977 0.61865 0.0
H2586 H 0.93961 0.38156 0.64763 0.0
H2587 H 0.96268 0.39375 0.63185 0.0
H2588 H 0.95126 0.42037 0.73678 0.0
H2589 H 0.00577 0.44821 0.69606 0.0
H2590 H 0.93926 0.37511 0.7308 0.0
H2591 H 0.93021 0.37438 0.69637 0.0
H2592 H 0.92689 0.38766 0.72498 0.0
H2593 H 0.00893 0.41079 0.67939 0.0
H2594 H 0.01305 0.43157 0.66047 0.0
H2595 H 0.99509 0.40717 0.64835 0.0
C2596 C 0.65749 0.62231 0.72278 0.0
C2597 C 0.66712 0.63058 0.69779 0.0
C2598 C 0.63898 0.60568 0.72226 0.0
C2599 C 0.62978 0.59697 0.69607 0.0
C2600 C 0.63942 0.60512 0.6707 0.0
C2601 C 0.658 0.62186 0.67185 0.0
C2602 C 0.62924 0.59749 0.74988 0.0
C2603 C 0.63007 0.59625 0.64243 0.0
C2604 C 0.58933 0.54544 0.70774 0.0
C2605 C 0.57444 0.5486 0.71411 0.0
C2606 C 0.60712 0.56073 0.69866 0.0
C2607 C 0.60996 0.5795 0.69589 0.0
C2608 C 0.59419 0.582 0.69871 0.0
C2609 C 0.57658 0.56648 0.7078 0.0
C2610 C 0.62344 0.55732 0.69546 0.0
C2611 C 0.59645 0.60165 0.69555 0.0
H2612 H 0.66437 0.62889 0.74292 0.0
H2613 H 0.66534 0.62814 0.65243 0.0
H2614 H 0.61578 0.59757 0.75128 0.0
H2615 H 0.62534 0.58212 0.75107 0.0
H2616 H 0.63842 0.6059 0.7684 0.0
H2617 H 0.63972 0.60394 0.62466 0.0
H2618 H 0.62568 0.58067 0.64084 0.0
H2619 H 0.61691 0.59675 0.64021 0.0
H2620 H 0.58778 0.53168 0.7127 0.0
H2621 H 0.56502 0.56889 0.71256 0.0
H2622 H 0.63256 0.56296 0.71475 0.0
H2623 H 0.63255 0.5652 0.67738 0.0
H2624 H 0.6182 0.54155 0.69248 0.0
H2625 H 0.60354 0.61094 0.71474 0.0
H2626 H 0.5824 0.60036 0.69282 0.0
H2627 H 0.60559 0.60919 0.67733 0.0
C2628 C 0.71139 0.73257 0.62892 0.0
C2629 C 0.71363 0.7265 0.6551 0.0
C2630 C 0.70942 0.74872 0.62694 0.0
C2631 C 0.70955 0.75907 0.65178 0.0
C2632 C 0.71185 0.75309 0.67832 0.0
C2633 C 0.71393 0.73689 0.67968 0.0
C2634 C 0.7071 0.75464 0.59815 0.0
C2635 C 0.71191 0.76368 0.70523 0.0
C2636 C 0.72003 0.80913 0.63446 0.0
C2637 C 0.7015 0.8051 0.62925 0.0
C2638 C 0.72295 0.7947 0.64443 0.0
C2639 C 0.70694 0.7759 0.64941 0.0
C2640 C 0.68823 0.77251 0.64711 0.0
C2641 C 0.68574 0.78714 0.63691 0.0
C2642 C 0.74313 0.79898 0.64668 0.0
C2643 C 0.67077 0.75281 0.65263 0.0
H2644 H 0.71121 0.7247 0.60981 0.0
H2645 H 0.71562 0.73227 0.7 0.0
H2646 H 0.69317 0.75372 0.59668 0.0
H2647 H 0.71852 0.77001 0.59479 0.0
H2648 H 0.70771 0.7453 0.5809 0.0
H2649 H 0.71433 0.75752 0.72414 0.0
H2650 H 0.72324 0.77935 0.70455 0.0
H2651 H 0.69803 0.76283 0.70743 0.0
H2652 H 0.73224 0.82295 0.62833 0.0
H2653 H 0.6714 0.78405 0.63296 0.0
H2654 H 0.74608 0.79215 0.6282 0.0
H2655 H 0.74501 0.7927 0.66585 0.0
H2656 H 0.75386 0.8149 0.64717 0.0
H2657 H 0.66846 0.74252 0.63475 0.0
H2658 H 0.65768 0.75355 0.65492 0.0
H2659 H 0.67278 0.74675 0.67194 0.0
C2660 C 0.26375 0.99183 0.69412 0.0
C2661 C 0.28076 0.99796 0.67928 0.0
C2662 C 0.24727 0.97334 0.6885 0.0
C2663 C 0.24782 0.96074 0.66746 0.0
C2664 C 0.26506 0.96672 0.65283 0.0
C2665 C 0.28128 0.98519 0.65894 0.0
C2666 C 0.22921 0.96744 0.70463 0.0
C2667 C 0.26628 0.95375 0.6302 0.0
C2668 C 0.21329 0.90612 0.65873 0.0
C2669 C 0.20317 0.90507 0.63448 0.0
C2670 C 0.22686 0.92426 0.6714 0.0
C2671 C 0.23029 0.94165 0.65946 0.0
C2672 C 0.21867 0.94051 0.63674 0.0
C2673 C 0.20525 0.92222 0.62453 0.0
C2674 C 0.23876 0.9248 0.69581 0.0
C2675 C 0.22168 0.95863 0.6235 0.0
H2676 H 0.26321 0.00155 0.70995 0.0
H2677 H 0.29434 0.98972 0.6474 0.0
H2678 H 0.21797 0.96585 0.69006 0.0
H2679 H 0.22369 0.95306 0.71401 0.0
H2680 H 0.2315 0.97828 0.7217 0.0
H2681 H 0.28089 0.96033 0.62137 0.0
H2682 H 0.26211 0.93947 0.63884 0.0
H2683 H 0.25613 0.95089 0.61277 0.0
H2684 H 0.21182 0.8929 0.66636 0.0
H2685 H 0.19735 0.9214 0.60584 0.0
H2686 H 0.24081 0.93604 0.71199 0.0
H2687 H 0.25313 0.92874 0.68816 0.0
H2688 H 0.23213 0.91046 0.70581 0.0
H2689 H 0.22315 0.9695 0.63989 0.0
H2690 H 0.20973 0.95534 0.609 0.0
H2691 H 0.23514 0.96543 0.61131 0.0
C2692 C 0.01945 0.29513 0.68342 0.0
C2693 C 0.011 0.29724 0.65936 0.0
C2694 C 0.03735 0.29671 0.682 0.0
C2695 C 0.04687 0.30031 0.65589 0.0
C2696 C 0.03831 0.30232 0.63155 0.0
C2697 C 0.02057 0.30084 0.63362 0.0
C2698 C 0.04612 0.29467 0.7084 0.0
C2699 C 0.04792 0.30608 0.60319 0.0
C2700 C 0.09975 0.32337 0.64337 0.0
C2701 C 0.10027 0.30739 0.63189 0.0
C2702 C 0.08275 0.32099 0.65431 0.0
C2703 C 0.06588 0.30221 0.65343 0.0
C2704 C 0.06691 0.28578 0.64484 0.0
C2705 C 0.08418 0.28857 0.63423 0.0
C2706 C 0.0824 0.33887 0.66378 0.0
C2707 C 0.04932 0.26549 0.64365 0.0
H2708 H 0.01217 0.2924 0.70342 0.0
H2709 H 0.01414 0.30242 0.6149 0.0
H2710 H 0.04895 0.28271 0.70531 0.0
H2711 H 0.06009 0.30827 0.71295 0.0
H2712 H 0.03676 0.29161 0.72698 0.0
H2713 H 0.03919 0.30694 0.58625 0.0
H2714 H 0.062 0.31998 0.6043 0.0
H2715 H 0.05059 0.29428 0.59727 0.0
H2716 H 0.11223 0.33792 0.64157 0.0
H2717 H 0.08449 0.27621 0.62515 0.0
H2718 H 0.07345 0.336 0.68276 0.0
H2719 H 0.07603 0.34285 0.64681 0.0
H2720 H 0.09703 0.35153 0.66852 0.0
H2721 H 0.04043 0.26291 0.66262 0.0
H2722 H 0.05308 0.25413 0.64179 0.0
H2723 H 0.04046 0.26385 0.62503 0.0
C2724 C 0.27849 0.29982 0.62773 0.0
C2725 C 0.28648 0.29905 0.65321 0.0
C2726 C 0.2628 0.30223 0.62731 0.0
C2727 C 0.25485 0.304 0.65304 0.0
C2728 C 0.2628 0.30323 0.67889 0.0
C2729 C 0.27853 0.30072 0.67868 0.0
C2730 C 0.25474 0.30291 0.59919 0.0
C2731 C 0.25479 0.30518 0.70669 0.0
C2732 C 0.22675 0.32748 0.63804 0.0
C2733 C 0.20888 0.31095 0.63086 0.0
C2734 C 0.24152 0.32557 0.64875 0.0
C2735 C 0.23826 0.3067 0.65221 0.0
C2736 C 0.21949 0.29019 0.64874 0.0
C2737 C 0.20495 0.29254 0.63816 0.0
C2738 C 0.26119 0.34361 0.65276 0.0
C2739 C 0.21529 0.26982 0.65252 0.0
H2740 H 0.28449 0.29851 0.60796 0.0
H2741 H 0.28464 0.30019 0.69848 0.0
H2742 H 0.2394 0.2912 0.59739 0.0
H2743 H 0.25561 0.31704 0.5975 0.0
H2744 H 0.26246 0.30113 0.58114 0.0
H2745 H 0.2623 0.3038 0.72494 0.0
H2746 H 0.25605 0.31956 0.70855 0.0
H2747 H 0.23934 0.29387 0.70776 0.0
H2748 H 0.22976 0.34174 0.63252 0.0
H2749 H 0.19118 0.27971 0.63254 0.0
H2750 H 0.26998 0.34509 0.63402 0.0
H2751 H 0.26857 0.34258 0.67142 0.0
H2752 H 0.26052 0.35699 0.65526 0.0
H2753 H 0.22024 0.26518 0.6337 0.0
H2754 H 0.19972 0.25921 0.65493 0.0
H2755 H 0.22302 0.26929 0.67113 0.0
C2756 C 0.7057 0.99507 0.65574 0.0
C2757 C 0.70429 1.00132 0.68309 0.0
C2758 C 0.70375 0.9769 0.65051 0.0
C2759 C 0.70016 0.9645 0.67316 0.0
C2760 C 0.69863 0.97064 0.70084 0.0
C2761 C 0.70079 0.98903 0.70551 0.0
C2762 C 0.70558 0.97098 0.62063 0.0
C2763 C 0.69466 0.95776 0.72543 0.0
C2764 C 0.67932 0.91315 0.64378 0.0
C2765 C 0.69602 0.91278 0.63921 0.0
C2766 C 0.68008 0.92915 0.65783 0.0
C2767 C 0.69799 0.94517 0.66725 0.0
C2768 C 0.71446 0.94376 0.66567 0.0
C2769 C 0.71326 0.92749 0.65171 0.0
C2770 C 0.66209 0.92985 0.65957 0.0
C2771 C 0.73382 0.96042 0.67559 0.0
H2772 H 0.70848 0.00447 0.63829 0.0
H2773 H 0.69963 0.99372 0.72671 0.0
H2774 H 0.71726 0.96793 0.61944 0.0
H2775 H 0.69214 0.95738 0.6139 0.0
H2776 H 0.70863 0.98241 0.60548 0.0
H2777 H 0.69397 0.96469 0.74568 0.0
H2778 H 0.68088 0.94374 0.72195 0.0
H2779 H 0.70598 0.95425 0.72718 0.0
H2780 H 0.66597 0.90173 0.63415 0.0
H2781 H 0.72622 0.92731 0.64803 0.0
H2782 H 0.66219 0.93907 0.64273 0.0
H2783 H 0.66132 0.93642 0.68008 0.0
H2784 H 0.64902 0.91509 0.65675 0.0
H2785 H 0.73954 0.97201 0.65993 0.0
H2786 H 0.74422 0.95569 0.67798 0.0
H2787 H 0.73274 0.96691 0.69598 0.0
C2788 C 1.00022 0.72382 0.63852 0.0
C2789 C 0.99459 0.7087 0.65714 0.0
C2790 C 0.01949 0.73881 0.63649 0.0
C2791 C 0.03345 0.7389 0.65389 0.0
C2792 C 0.02771 0.72427 0.67384 0.0
C2793 C 0.00837 0.70921 0.67502 0.0
C2794 C 0.02502 0.75399 0.61466 0.0
C2795 C 0.04209 0.72409 0.69317 0.0
C2796 C 0.08179 0.76243 0.61918 0.0
C2797 C 0.09051 0.78173 0.62969 0.0
C2798 C 0.06368 0.74802 0.62831 0.0
C2799 C 0.05413 0.753 0.64871 0.0
C2800 C 0.06363 0.77209 0.66125 0.0
C2801 C 0.08177 0.78635 0.65143 0.0
C2802 C 0.05414 0.7279 0.61429 0.0
C2803 C 0.0541 0.77783 0.68352 0.0
H2804 H 0.98967 0.72354 0.62466 0.0
H2805 H 0.00408 0.69768 0.68971 0.0
H2806 H 0.03351 0.76885 0.62456 0.0
H2807 H 0.03416 0.75262 0.59854 0.0
H2808 H 0.01235 0.75251 0.60389 0.0
H2809 H 0.03506 0.71351 0.71012 0.0
H2810 H 0.05114 0.72008 0.68084 0.0
H2811 H 0.05173 0.73882 0.70296 0.0
H2812 H 0.08864 0.75894 0.60233 0.0
H2813 H 0.08851 0.80132 0.65941 0.0
H2814 H 0.042 0.72548 0.60096 0.0
H2815 H 0.04823 0.71655 0.63028 0.0
H2816 H 0.06416 0.72592 0.60078 0.0
H2817 H 0.04297 0.77958 0.67351 0.0
H2818 H 0.0645 0.79181 0.69469 0.0
H2819 H 0.04689 0.76631 0.69916 0.0
C2820 C 0.95126 0.59535 0.66431 0.0
C2821 C 0.95962 0.61098 0.68427 0.0
C2822 C 0.95367 0.57939 0.66636 0.0
C2823 C 0.96457 0.57906 0.68897 0.0
C2824 C 0.97323 0.59493 0.70891 0.0
C2825 C 0.97068 0.61065 0.70627 0.0
C2826 C 0.94429 0.56278 0.64468 0.0
C2827 C 0.98501 0.59522 0.73342 0.0
C2828 C 0.96003 0.53577 0.72366 0.0
C2829 C 0.97783 0.53822 0.71722 0.0
C2830 C 0.95424 0.54752 0.7117 0.0
C2831 C 0.96664 0.56203 0.69298 0.0
C2832 C 0.98335 0.56263 0.68348 0.0
C2833 C 0.98878 0.55065 0.69579 0.0
C2834 C 0.93616 0.54614 0.72211 0.0
C2835 C 0.99679 0.57761 0.66314 0.0
H2836 H 0.94272 0.5955 0.6472 0.0
H2837 H 0.97724 0.62265 0.72175 0.0
H2838 H 0.95478 0.55917 0.63638 0.0
H2839 H 0.93267 0.54956 0.65465 0.0
H2840 H 0.93808 0.5662 0.62678 0.0
H2841 H 0.99102 0.60882 0.74677 0.0
H2842 H 0.97604 0.58263 0.74682 0.0
H2843 H 0.99702 0.59383 0.72558 0.0
H2844 H 0.95155 0.52608 0.74021 0.0
H2845 H 0.00259 0.5526 0.69086 0.0
H2846 H 0.92847 0.54807 0.70474 0.0
H2847 H 0.93994 0.55793 0.7383 0.0
H2848 H 0.92636 0.53192 0.73177 0.0
H2849 H 0.98874 0.57964 0.64641 0.0
H2850 H 0.00648 0.57344 0.65316 0.0
H2851 H 0.00571 0.59184 0.67468 0.0
C2852 C 0.38978 0.36344 0.64056 0.0
C2853 C 0.38145 0.35023 0.66231 0.0
C2854 C 0.40627 0.38202 0.64552 0.0
C2855 C 0.4145 0.3875 0.67288 0.0
C2856 C 0.4062 0.37416 0.69483 0.0
C2857 C 0.38986 0.35572 0.68925 0.0
C2858 C 0.41478 0.39582 0.62161 0.0
C2859 C 0.41447 0.37942 0.72439 0.0
C2860 C 0.46506 0.42625 0.69404 0.0
C2861 C 0.4619 0.43982 0.70832 0.0
C2862 C 0.45005 0.40994 0.67947 0.0
C2863 C 0.43155 0.40723 0.67933 0.0
C2864 C 0.42898 0.42217 0.69067 0.0
C2865 C 0.44424 0.43834 0.705 0.0
C2866 C 0.45352 0.39454 0.66721 0.0
C2867 C 0.40959 0.42004 0.69071 0.0
H2868 H 0.38341 0.3593 0.61965 0.0
H2869 H 0.38356 0.34565 0.7062 0.0
H2870 H 0.41412 0.40901 0.6264 0.0
H2871 H 0.4301 0.40072 0.61918 0.0
H2872 H 0.4072 0.38903 0.60129 0.0
H2873 H 0.40636 0.36733 0.739 0.0
H2874 H 0.42957 0.38324 0.72417 0.0
H2875 H 0.41442 0.3924 0.73283 0.0
H2876 H 0.47868 0.42729 0.69659 0.0
H2877 H 0.44184 0.44895 0.71581 0.0
H2878 H 0.44567 0.38833 0.64695 0.0
H2879 H 0.44818 0.38246 0.68201 0.0
H2880 H 0.46899 0.40045 0.66372 0.0
H2881 H 0.40211 0.4139 0.67019 0.0
H2882 H 0.41069 0.43421 0.6953 0.0
H2883 H 0.40062 0.4098 0.70715 0.0
C2884 C 0.64428 0.03596 0.71352 0.0
C2885 C 0.65646 0.04603 0.69128 0.0
C2886 C 0.62634 0.034 0.71623 0.0
C2887 C 0.62035 0.04238 0.69624 0.0
C2888 C 0.63246 0.05244 0.67355 0.0
C2889 C 0.65039 0.05412 0.6713 0.0
C2890 C 0.61386 0.02306 0.74074 0.0
C2891 C 0.6266 0.06163 0.65195 0.0
C2892 C 0.56682 0.01925 0.70108 0.0
C2893 C 0.56582 0.03123 0.72226 0.0
C2894 C 0.58455 0.02381 0.68985 0.0
C2895 C 0.60153 0.04077 0.70003 0.0
C2896 C 0.60022 0.05414 0.71866 0.0
C2897 C 0.58235 0.04915 0.72967 0.0
C2898 C 0.58523 0.00923 0.66982 0.0
C2899 C 0.61788 0.07255 0.72971 0.0
H2900 H 0.64876 0.02959 0.72901 0.0
H2901 H 0.65972 0.06195 0.65405 0.0
H2902 H 0.61117 0.0329 0.75418 0.0
H2903 H 0.59978 0.01083 0.73291 0.0
H2904 H 0.62046 0.01705 0.75406 0.0
H2905 H 0.63718 0.06805 0.63476 0.0
H2906 H 0.61246 0.05064 0.64261 0.0
H2907 H 0.62507 0.0733 0.66227 0.0
H2908 H 0.55408 0.00531 0.69549 0.0
H2909 H 0.58155 0.0584 0.74609 0.0
H2910 H 0.58937 1.00038 0.68168 0.0
H2911 H 0.59608 0.01668 0.65329 0.0
H2912 H 0.5711 0.99919 0.65955 0.0
H2913 H 0.62483 0.06883 0.74613 0.0
H2914 H 0.61435 0.08306 0.73924 0.0
H2915 H 0.62839 0.07974 0.71269 0.0
loop_
_geom_bond_atom_site_label_1
_geom_bond_atom_site_label_2
_geom_bond_distance
_geom_bond_site_symmetry_2
_ccdc_geom_bond_type
C0 O1 1.160 . S
C0 O7 1.185 . S
O1 C0 1.160 . S
O2 Zn3 1.899 1_656 S
O2 C10 1.273 1_556 S
Zn3 O2 1.899 1_454 S
Zn3 O4 2.032 . S
Zn3 O7 2.086 . S
Zn3 O12 1.977 1_554 S
O4 Zn3 2.032 . S
O4 C8 1.278 1_455 S
C5 O6 1.203 1_455 S
C5 O12 1.267 . S
O6 C5 1.203 1_655 S
O7 C0 1.185 . S
O7 Zn3 2.086 . S
C8 O4 1.278 1_655 S
C8 O9 1.211 . S
O9 C8 1.211 . S
C10 O2 1.273 1_554 S
C10 O11 1.294 . S
O11 C10 1.294 . S
O12 Zn3 1.977 1_556 S
O12 C5 1.267 . S
C13 O14 1.160 . S
C13 O20 1.185 1_556 S
O14 C13 1.160 . S
O15 Zn16 1.899 . S
O15 C23 1.284 . S
Zn16 O15 1.899 . S
Zn16 O17 2.032 1_554 S
Zn16 O20 2.086 . S
Zn16 O25 1.977 . S
O17 Zn16 2.032 1_556 S
O17 C21 1.278 . S
C18 O19 1.203 . S
C18 O25 1.267 . S
O19 C18 1.203 . S
O20 C13 1.185 1_554 S
O20 Zn16 2.086 . S
C21 O17 1.278 . S
C21 O22 1.211 . S
O22 C21 1.211 . S
C23 O15 1.284 . S
C23 O24 1.273 . S
O24 C23 1.273 . S
O25 Zn16 1.977 . S
O25 C18 1.267 . S
C26 O27 1.152 1_554 S
C26 O33 1.198 . S
O27 C26 1.152 1_556 S
O28 Zn29 1.899 1_565 S
O28 C36 1.284 . S
Zn29 O28 1.899 1_545 S
Zn29 O30 2.032 1_554 S
Zn29 O33 2.086 . S
Zn29 O38 1.977 . S
O30 Zn29 2.032 1_556 S
O30 C34 1.241 1_545 S
C31 O32 1.203 1_545 S
C31 O38 1.267 . S
O32 C31 1.203 1_565 S
O33 C26 1.198 . S
O33 Zn29 2.086 . S
C34 O30 1.241 1_565 S
C34 O35 1.241 . S
O35 C34 1.241 . S
C36 O28 1.284 . S
C36 O37 1.273 . S
O37 C36 1.273 . S
O38 Zn29 1.977 . S
O38 C31 1.267 . S
C39 O40 1.160 . S
C39 O46 1.185 1_556 S
O40 C39 1.160 . S
O41 Zn42 1.899 1_455 S
O41 C49 1.284 . S
Zn42 O41 1.899 1_655 S
Zn42 O43 2.032 1_554 S
Zn42 O46 2.086 . S
Zn42 O51 1.977 . S
O43 Zn42 2.032 1_556 S
O43 C47 1.278 1_655 S
C44 O45 1.203 1_655 S
C44 O51 1.267 . S
O45 C44 1.203 1_455 S
O46 C39 1.185 1_554 S
O46 Zn42 2.086 . S
C47 O43 1.278 1_455 S
C47 O48 1.211 . S
O48 C47 1.211 . S
C49 O41 1.284 . S
C49 O50 1.273 . S
O50 C49 1.273 . S
O51 Zn42 1.977 . S
O51 C44 1.267 . S
C52 O53 1.160 . S
C52 O59 1.185 . S
O53 C52 1.160 . S
O54 Zn55 1.899 1_556 S
O54 C62 1.284 . S
Zn55 O54 1.899 1_554 S
Zn55 O56 2.032 . S
Zn55 O59 2.086 . S
Zn55 O64 1.977 1_554 S
O56 Zn55 2.032 . S
O56 C60 1.278 . S
C57 O58 1.203 . S
C57 O64 1.267 . S
O58 C57 1.203 . S
O59 C52 1.185 . S
O59 Zn55 2.086 . S
C60 O56 1.278 . S
C60 O61 1.211 . S
O61 C60 1.211 . S
C62 O54 1.284 . S
C62 O63 1.273 1_556 S
O63 C62 1.273 1_554 S
O64 Zn55 1.977 1_556 S
O64 C57 1.267 . S
C65 O66 1.160 . S
C65 O72 1.185 . S
O66 C65 1.160 . S
O67 Zn68 1.899 1_546 S
O67 C75 1.284 . S
Zn68 O67 1.899 1_564 S
Zn68 O69 2.032 . S
Zn68 O72 2.086 . S
Zn68 O77 1.977 1_554 S
O69 Zn68 2.032 . S
O69 C73 1.278 1_565 S
C70 O71 1.203 1_565 S
C70 O77 1.267 . S
O71 C70 1.203 1_545 S
O72 C65 1.185 . S
O72 Zn68 2.086 . S
C73 O69 1.278 1_545 S
C73 O74 1.211 . S
O74 C73 1.211 . S
C75 O67 1.284 . S
C75 O76 1.273 1_556 S
O76 C75 1.273 1_554 S
O77 Zn68 1.977 1_556 S
O77 C70 1.267 . S
C78 O79 1.160 . S
C78 O85 1.185 . S
O79 C78 1.160 . S
O80 Zn81 1.899 . S
O80 C88 1.284 . S
Zn81 O80 1.899 . S
Zn81 O82 2.032 . S
Zn81 O85 2.086 . S
Zn81 O90 1.977 . S
O82 Zn81 2.032 . S
O82 C86 1.278 . S
C83 O84 1.203 . S
C83 O90 1.267 . S
O84 C83 1.203 . S
O85 C78 1.185 . S
O85 Zn81 2.086 . S
C86 O82 1.278 . S
C86 O87 1.211 . S
O87 C86 1.211 . S
C88 O80 1.284 . S
C88 O89 1.273 . S
O89 C88 1.273 . S
O90 Zn81 1.977 . S
O90 C83 1.267 . S
C91 O92 1.160 1_565 S
C91 O98 1.185 . S
O92 C91 1.160 1_545 S
O93 Zn94 1.899 1_545 S
O93 C101 1.284 . S
Zn94 O93 1.899 1_565 S
Zn94 O95 2.032 . S
Zn94 O98 2.086 . S
Zn94 O103 1.977 . S
O95 Zn94 2.032 . S
O95 C99 1.278 . S
C96 O97 1.203 . S
C96 O103 1.267 . S
O97 C96 1.203 . S
O98 C91 1.185 . S
O98 Zn94 2.086 . S
C99 O95 1.278 . S
C99 O100 1.211 . S
O100 C99 1.211 . S
C101 O93 1.284 . S
C101 O102 1.273 . S
O102 C101 1.273 . S
O103 Zn94 1.977 . S
O103 C96 1.267 . S
C104 O105 1.160 . S
C104 O111 1.185 . S
O105 C104 1.160 . S
O106 Zn107 1.888 1_655 S
O106 C114 1.283 . S
Zn107 O106 1.888 1_455 S
Zn107 O108 2.032 . S
Zn107 O111 2.086 . S
Zn107 O116 1.977 . S
O108 Zn107 2.032 . S
O108 C112 1.278 . S
C109 O110 1.203 . S
C109 O116 1.267 . S
O110 C109 1.203 . S
O111 C104 1.185 . S
O111 Zn107 2.086 . S
C112 O108 1.278 . S
C112 O113 1.211 . S
O113 C112 1.211 . S
C114 O106 1.283 . S
C114 O115 1.259 1_655 S
O115 C114 1.259 1_455 S
O116 Zn107 1.977 . S
O116 C109 1.267 . S
C117 O118 1.160 1_565 S
C117 O124 1.185 . S
O118 C117 1.160 1_545 S
O119 Zn120 1.899 1_545 S
O119 C127 1.284 . S
Zn120 O119 1.899 1_565 S
Zn120 O121 2.032 . S
Zn120 O124 2.086 . S
Zn120 O129 1.977 . S
O121 Zn120 2.032 . S
O121 C125 1.278 . S
C122 O123 1.203 . S
C122 O129 1.267 . S
O123 C122 1.203 . S
O124 C117 1.185 . S
O124 Zn120 2.086 . S
C125 O121 1.278 . S
C125 O126 1.211 . S
O126 C125 1.211 . S
C127 O119 1.284 . S
C127 O128 1.273 . S
O128 C127 1.273 . S
O129 Zn120 1.977 . S
O129 C122 1.267 . S
C130 O131 1.160 . S
C130 O137 1.185 . S
O131 C130 1.160 . S
O132 Zn133 1.899 . S
O132 C140 1.284 . S
Zn133 O132 1.899 . S
Zn133 O134 2.032 . S
Zn133 O137 2.086 1_455 S
Zn133 O142 1.977 . S
O134 Zn133 2.032 . S
O134 C138 1.278 . S
C135 O136 1.203 . S
C135 O142 1.267 . S
O136 C135 1.203 . S
O137 C130 1.185 . S
O137 Zn133 2.086 1_655 S
C138 O134 1.278 . S
C138 O139 1.211 . S
O139 C138 1.211 . S
C140 O132 1.284 . S
C140 O141 1.273 . S
O141 C140 1.273 . S
O142 Zn133 1.977 . S
O142 C135 1.267 . S
C143 O144 1.160 . S
C143 O150 1.185 . S
O144 C143 1.160 . S
O145 Zn146 1.899 . S
O145 C153 1.284 . S
Zn146 O145 1.899 . S
Zn146 O147 2.032 . S
Zn146 O150 2.086 . S
Zn146 O155 1.977 . S
O147 Zn146 2.032 . S
O147 C151 1.278 . S
C148 O149 1.203 . S
C148 O155 1.267 . S
O149 C148 1.203 . S
O150 C143 1.185 . S
O150 Zn146 2.086 . S
C151 O147 1.278 . S
C151 O152 1.211 . S
O152 C151 1.211 . S
C153 O145 1.284 . S
C153 O154 1.273 . S
O154 C153 1.273 . S
O155 Zn146 1.977 . S
O155 C148 1.267 . S
C156 O157 1.147 1_545 S
C156 O163 1.185 . S
O157 C156 1.147 1_565 S
O158 Zn159 1.899 1_565 S
O158 C166 1.284 . S
Zn159 O158 1.899 1_545 S
Zn159 O160 2.032 . S
Zn159 O163 2.086 . S
Zn159 O168 1.977 . S
O160 Zn159 2.032 . S
O160 C164 1.278 . S
C161 O162 1.203 . S
C161 O168 1.267 . S
O162 C161 1.203 . S
O163 C156 1.185 . S
O163 Zn159 2.086 . S
C164 O160 1.278 . S
C164 O165 1.211 . S
O165 C164 1.211 . S
C166 O158 1.284 . S
C166 O167 1.273 . S
O167 C166 1.273 . S
O168 Zn159 1.977 . S
O168 C161 1.267 . S
C169 O170 1.160 . S
C169 O176 1.185 . S
O170 C169 1.160 . S
O171 Zn172 1.899 . S
O171 C179 1.284 . S
Zn172 O171 1.899 . S
Zn172 O173 2.032 . S
Zn172 O176 2.086 1_655 S
Zn172 O181 1.977 . S
O173 Zn172 2.032 . S
O173 C177 1.278 . S
C174 O175 1.203 . S
C174 O181 1.267 . S
O175 C174 1.203 . S
O176 C169 1.185 . S
O176 Zn172 2.086 1_455 S
C177 O173 1.278 . S
C177 O178 1.211 . S
O178 C177 1.211 . S
C179 O171 1.284 . S
C179 O180 1.273 . S
O180 C179 1.273 . S
O181 Zn172 1.977 . S
O181 C174 1.267 . S
C182 O183 1.160 . S
C182 O189 1.185 . S
O183 C182 1.160 . S
O184 Zn185 1.899 . S
O184 C192 1.284 . S
Zn185 O184 1.899 . S
Zn185 O186 2.032 . S
Zn185 O189 2.086 . S
Zn185 O194 1.977 . S
O186 Zn185 2.032 . S
O186 C190 1.278 . S
C187 O188 1.203 . S
C187 O194 1.267 . S
O188 C187 1.203 . S
O189 C182 1.185 . S
O189 Zn185 2.086 . S
C190 O186 1.278 . S
C190 O191 1.211 . S
O191 C190 1.211 . S
C192 O184 1.284 . S
C192 O193 1.273 . S
O193 C192 1.273 . S
O194 Zn185 1.977 . S
O194 C187 1.267 . S
C195 O196 1.160 . S
C195 O202 1.185 . S
O196 C195 1.160 . S
O197 Zn198 1.899 . S
O197 C205 1.284 . S
Zn198 O197 1.899 . S
Zn198 O199 2.032 . S
Zn198 O202 2.086 . S
Zn198 O207 1.977 . S
O199 Zn198 2.032 . S
O199 C203 1.278 . S
C200 O201 1.203 . S
C200 O207 1.267 . S
O201 C200 1.203 . S
O202 C195 1.185 . S
O202 Zn198 2.086 . S
C203 O199 1.278 . S
C203 O204 1.211 . S
O204 C203 1.211 . S
C205 O197 1.284 . S
C205 O206 1.273 . S
O206 C205 1.273 . S
O207 Zn198 1.977 . S
O207 C200 1.267 . S
C208 O209 1.144 1_545 S
C208 O215 1.185 . S
O209 C208 1.144 1_565 S
O210 Zn211 1.899 1_565 S
O210 C218 1.284 . S
Zn211 O210 1.899 1_545 S
Zn211 O212 2.032 . S
Zn211 O215 2.086 . S
Zn211 O220 1.977 . S
O212 Zn211 2.032 . S
O212 C216 1.278 . S
C213 O214 1.203 . S
C213 O220 1.267 . S
O214 C213 1.203 . S
O215 C208 1.185 . S
O215 Zn211 2.086 . S
C216 O212 1.278 . S
C216 O217 1.211 . S
O217 C216 1.211 . S
C218 O210 1.284 . S
C218 O219 1.276 . S
O219 C218 1.276 . S
O220 Zn211 1.977 . S
O220 C213 1.267 . S
C221 O222 1.160 . S
C221 O228 1.185 . S
O222 C221 1.160 . S
O223 Zn224 1.900 1_455 S
O223 C231 1.284 . S
Zn224 O223 1.900 1_655 S
Zn224 O225 2.032 . S
Zn224 O228 2.086 . S
Zn224 O233 1.977 . S
O225 Zn224 2.032 . S
O225 C229 1.278 . S
C226 O227 1.203 . S
C226 O233 1.267 . S
O227 C226 1.203 . S
O228 C221 1.185 . S
O228 Zn224 2.086 . S
C229 O225 1.278 . S
C229 O230 1.211 . S
O230 C229 1.211 . S
C231 O223 1.284 . S
C231 O232 1.241 1_455 S
O232 C231 1.241 1_655 S
O233 Zn224 1.977 . S
O233 C226 1.267 . S
H234 C242 0.930 . S
H235 C245 0.930 . S
H236 C247 0.930 . S
H237 C248 0.970 . S
H238 C248 0.970 . S
H239 C250 0.930 . S
H240 C252 0.930 . S
H241 C254 0.930 . S
C242 H234 0.930 . S
C242 C243 1.382 . S
C242 C244 1.426 . S
C243 C242 1.382 . S
C243 C247 1.389 . S
C244 C242 1.426 . S
C244 C245 1.375 . S
C244 C248 1.532 . S
C245 H235 0.930 . S
C245 C244 1.375 . S
C245 C246 1.416 . S
C246 C245 1.416 . S
C246 C247 1.371 . S
C247 H236 0.930 . S
C247 C243 1.389 . S
C247 C246 1.371 . S
C248 H237 0.970 . S
C248 H238 0.970 . S
C248 C244 1.532 . S
C248 C249 1.499 . S
C249 C248 1.499 . S
C249 C250 1.370 . S
C249 C254 1.415 . S
C250 H239 0.930 . S
C250 C249 1.370 . S
C250 C251 1.407 . S
C251 C250 1.407 . S
C251 C252 1.365 . S
C252 H240 0.930 . S
C252 C251 1.365 . S
C252 C253 1.393 . S
C253 C252 1.393 . S
C253 C254 1.387 . S
C254 H241 0.930 . S
C254 C249 1.415 . S
C254 C253 1.387 . S
H255 C263 0.930 . S
H256 C266 0.930 . S
H257 C268 0.930 . S
H258 C269 0.970 . S
H259 C269 0.970 . S
H260 C271 0.930 . S
H261 C273 0.930 . S
H262 C275 0.930 . S
C263 H255 0.930 . S
C263 C264 1.382 . S
C263 C265 1.426 . S
C264 C263 1.382 . S
C264 C268 1.389 . S
C265 C263 1.426 . S
C265 C266 1.375 . S
C265 C269 1.532 . S
C266 H256 0.930 . S
C266 C265 1.375 . S
C266 C267 1.416 . S
C267 C266 1.416 . S
C267 C268 1.371 . S
C268 H257 0.930 . S
C268 C264 1.389 . S
C268 C267 1.371 . S
C269 H258 0.970 . S
C269 H259 0.970 . S
C269 C265 1.532 . S
C269 C270 1.499 . S
C270 C269 1.499 . S
C270 C271 1.370 . S
C270 C275 1.415 . S
C271 H260 0.930 . S
C271 C270 1.370 . S
C271 C272 1.407 . S
C272 C271 1.407 . S
C272 C273 1.365 . S
C273 H261 0.930 . S
C273 C272 1.365 . S
C273 C274 1.393 . S
C274 C273 1.393 . S
C274 C275 1.387 . S
C275 H262 0.930 . S
C275 C270 1.415 . S
C275 C274 1.387 . S
H276 C284 0.930 . S
H277 C287 0.930 . S
H278 C289 0.930 . S
H279 C290 0.970 . S
H280 C290 0.970 . S
H281 C292 0.930 . S
H282 C294 0.930 . S
H283 C296 0.930 . S
C284 H276 0.930 . S
C284 C285 1.382 . S
C284 C286 1.426 . S
C285 C284 1.382 . S
C285 C289 1.389 . S
C286 C284 1.426 . S
C286 C287 1.375 . S
C286 C290 1.532 . S
C287 H277 0.930 . S
C287 C286 1.375 . S
C287 C288 1.416 . S
C288 C287 1.416 . S
C288 C289 1.371 . S
C289 H278 0.930 . S
C289 C285 1.389 . S
C289 C288 1.371 . S
C290 H279 0.970 . S
C290 H280 0.970 . S
C290 C286 1.532 . S
C290 C291 1.499 . S
C291 C290 1.499 . S
C291 C292 1.370 . S
C291 C296 1.415 . S
C292 H281 0.930 . S
C292 C291 1.370 . S
C292 C293 1.407 . S
C293 C292 1.407 . S
C293 C294 1.365 . S
C294 H282 0.930 . S
C294 C293 1.365 . S
C294 C295 1.393 . S
C295 C294 1.393 . S
C295 C296 1.387 . S
C296 H283 0.930 . S
C296 C291 1.415 . S
C296 C295 1.387 . S
H297 C305 0.930 . S
H298 C308 0.930 . S
H299 C310 0.930 . S
H300 C311 0.970 . S
H301 C311 0.970 . S
H302 C313 0.930 . S
H303 C315 0.930 . S
H304 C317 0.930 . S
C305 H297 0.930 . S
C305 C306 1.382 . S
C305 C307 1.426 . S
C306 C305 1.382 . S
C306 C310 1.389 . S
C307 C305 1.426 . S
C307 C308 1.375 . S
C307 C311 1.532 . S
C308 H298 0.930 . S
C308 C307 1.375 . S
C308 C309 1.416 . S
C309 C308 1.416 . S
C309 C310 1.371 . S
C310 H299 0.930 . S
C310 C306 1.389 . S
C310 C309 1.371 . S
C311 H300 0.970 . S
C311 H301 0.970 . S
C311 C307 1.532 . S
C311 C312 1.499 . S
C312 C311 1.499 . S
C312 C313 1.370 . S
C312 C317 1.415 . S
C313 H302 0.930 . S
C313 C312 1.370 . S
C313 C314 1.407 . S
C314 C313 1.407 . S
C314 C315 1.365 . S
C315 H303 0.930 . S
C315 C314 1.365 . S
C315 C316 1.393 . S
C316 C315 1.393 . S
C316 C317 1.387 . S
C317 H304 0.930 . S
C317 C312 1.415 . S
C317 C316 1.387 . S
H318 C326 0.930 . S
H319 C329 0.930 . S
H320 C331 0.930 . S
H321 C332 0.970 . S
H322 C332 0.970 . S
H323 C334 0.930 . S
H324 C336 0.930 . S
H325 C338 0.930 . S
C326 H318 0.930 . S
C326 C327 1.382 . S
C326 C328 1.426 . S
C327 C326 1.382 . S
C327 C331 1.389 . S
C328 C326 1.426 . S
C328 C329 1.375 . S
C328 C332 1.532 . S
C329 H319 0.930 . S
C329 C328 1.375 . S
C329 C330 1.416 . S
C330 C329 1.416 . S
C330 C331 1.371 . S
C331 H320 0.930 . S
C331 C327 1.389 . S
C331 C330 1.371 . S
C332 H321 0.970 . S
C332 H322 0.970 . S
C332 C328 1.532 . S
C332 C333 1.499 . S
C333 C332 1.499 . S
C333 C334 1.370 . S
C333 C338 1.415 . S
C334 H323 0.930 . S
C334 C333 1.370 . S
C334 C335 1.407 . S
C335 C334 1.407 . S
C335 C336 1.365 . S
C336 H324 0.930 . S
C336 C335 1.365 . S
C336 C337 1.393 . S
C337 C336 1.393 . S
C337 C338 1.387 . S
C338 H325 0.930 . S
C338 C333 1.415 . S
C338 C337 1.387 . S
H339 C347 0.930 . S
H340 C350 0.930 . S
H341 C352 0.930 . S
H342 C353 0.970 . S
H343 C353 0.970 . S
H344 C355 0.930 . S
H345 C357 0.930 . S
H346 C359 0.930 . S
C347 H339 0.930 . S
C347 C348 1.382 . S
C347 C349 1.426 . S
C348 C347 1.382 . S
C348 C352 1.389 . S
C349 C347 1.426 . S
C349 C350 1.375 . S
C349 C353 1.532 . S
C350 H340 0.930 . S
C350 C349 1.375 . S
C350 C351 1.416 . S
C351 C350 1.416 . S
C351 C352 1.371 . S
C352 H341 0.930 . S
C352 C348 1.389 . S
C352 C351 1.371 . S
C353 H342 0.970 . S
C353 H343 0.970 . S
C353 C349 1.532 . S
C353 C354 1.499 . S
C354 C353 1.499 . S
C354 C355 1.370 . S
C354 C359 1.415 . S
C355 H344 0.930 . S
C355 C354 1.370 . S
C355 C356 1.407 . S
C356 C355 1.407 . S
C356 C357 1.365 . S
C357 H345 0.930 . S
C357 C356 1.365 . S
C357 C358 1.393 . S
C358 C357 1.393 . S
C358 C359 1.387 . S
C359 H346 0.930 . S
C359 C354 1.415 . S
C359 C358 1.387 . S
H360 C368 0.930 . S
H361 C371 0.930 . S
H362 C373 0.930 . S
H363 C374 0.970 . S
H364 C374 0.970 . S
H365 C376 0.930 . S
H366 C378 0.930 . S
H367 C380 0.930 . S
C368 H360 0.930 . S
C368 C369 1.382 . S
C368 C370 1.426 . S
C369 C368 1.382 . S
C369 C373 1.389 . S
C370 C368 1.426 . S
C370 C371 1.375 . S
C370 C374 1.532 . S
C371 H361 0.930 . S
C371 C370 1.375 . S
C371 C372 1.416 . S
C372 C371 1.416 . S
C372 C373 1.371 . S
C373 H362 0.930 . S
C373 C369 1.389 . S
C373 C372 1.371 . S
C374 H363 0.970 . S
C374 H364 0.970 . S
C374 C370 1.532 . S
C374 C375 1.499 . S
C375 C374 1.499 . S
C375 C376 1.370 . S
C375 C380 1.415 . S
C376 H365 0.930 . S
C376 C375 1.370 . S
C376 C377 1.407 . S
C377 C376 1.407 . S
C377 C378 1.365 . S
C378 H366 0.930 . S
C378 C377 1.365 . S
C378 C379 1.393 . S
C379 C378 1.393 . S
C379 C380 1.387 . S
C380 H367 0.930 . S
C380 C375 1.415 . S
C380 C379 1.387 . S
H381 C389 0.930 . S
H382 C392 0.930 . S
H383 C394 0.930 . S
H384 C395 0.970 . S
H385 C395 0.970 . S
H386 C397 0.930 . S
H387 C399 0.930 . S
H388 C401 0.930 . S
C389 H381 0.930 . S
C389 C390 1.382 . S
C389 C391 1.426 . S
C390 C389 1.382 . S
C390 C394 1.389 . S
C391 C389 1.426 . S
C391 C392 1.375 . S
C391 C395 1.532 . S
C392 H382 0.930 . S
C392 C391 1.375 . S
C392 C393 1.416 . S
C393 C392 1.416 . S
C393 C394 1.371 . S
C394 H383 0.930 . S
C394 C390 1.389 . S
C394 C393 1.371 . S
C395 H384 0.970 . S
C395 H385 0.970 . S
C395 C391 1.532 . S
C395 C396 1.499 . S
C396 C395 1.499 . S
C396 C397 1.370 . S
C396 C401 1.415 . S
C397 H386 0.930 . S
C397 C396 1.370 . S
C397 C398 1.407 . S
C398 C397 1.407 . S
C398 C399 1.365 . S
C399 H387 0.930 . S
C399 C398 1.365 . S
C399 C400 1.393 . S
C400 C399 1.393 . S
C400 C401 1.387 . S
C401 H388 0.930 . S
C401 C396 1.415 . S
C401 C400 1.387 . S
H402 C410 0.930 . S
H403 C413 0.930 . S
H404 C415 0.930 . S
H405 C416 0.970 . S
H406 C416 0.970 . S
H407 C418 0.930 . S
H408 C420 0.930 . S
H409 C422 0.930 . S
C410 H402 0.930 . S
C410 C411 1.382 . S
C410 C412 1.426 . S
C411 C410 1.382 . S
C411 C415 1.389 . S
C412 C410 1.426 . S
C412 C413 1.375 . S
C412 C416 1.532 . S
C413 H403 0.930 . S
C413 C412 1.375 . S
C413 C414 1.416 . S
C414 C413 1.416 . S
C414 C415 1.371 . S
C415 H404 0.930 . S
C415 C411 1.389 . S
C415 C414 1.371 . S
C416 H405 0.970 . S
C416 H406 0.970 . S
C416 C412 1.532 . S
C416 C417 1.499 . S
C417 C416 1.499 . S
C417 C418 1.370 . S
C417 C422 1.415 . S
C418 H407 0.930 . S
C418 C417 1.370 . S
C418 C419 1.407 . S
C419 C418 1.407 . S
C419 C420 1.365 . S
C420 H408 0.930 . S
C420 C419 1.365 . S
C420 C421 1.393 . S
C421 C420 1.393 . S
C421 C422 1.387 . S
C422 H409 0.930 . S
C422 C417 1.415 . S
C422 C421 1.387 . S
H423 C431 0.930 . S
H424 C434 0.930 . S
H425 C436 0.930 . S
H426 C437 0.970 . S
H427 C437 0.970 . S
H428 C439 0.930 . S
H429 C441 0.930 . S
H430 C443 0.930 . S
C431 H423 0.930 . S
C431 C432 1.382 . S
C431 C433 1.426 . S
C432 C431 1.382 . S
C432 C436 1.389 1_455 S
C433 C431 1.426 . S
C433 C434 1.375 . S
C433 C437 1.532 . S
C434 H424 0.930 . S
C434 C433 1.375 . S
C434 C435 1.416 . S
C435 C434 1.416 . S
C435 C436 1.371 1_455 S
C436 H425 0.930 . S
C436 C432 1.389 1_655 S
C436 C435 1.371 1_655 S
C437 H426 0.970 . S
C437 H427 0.970 . S
C437 C433 1.532 . S
C437 C438 1.499 . S
C438 C437 1.499 . S
C438 C439 1.370 . S
C438 C443 1.415 . S
C439 H428 0.930 . S
C439 C438 1.370 . S
C439 C440 1.407 . S
C440 C439 1.407 . S
C440 C441 1.365 1_455 S
C441 H429 0.930 . S
C441 C440 1.365 1_655 S
C441 C442 1.393 1_655 S
C442 C441 1.393 1_455 S
C442 C443 1.387 . S
C443 H430 0.930 . S
C443 C438 1.415 . S
C443 C442 1.387 . S
H444 C452 0.930 . S
H445 C455 0.930 . S
H446 C457 0.930 . S
H447 C458 0.970 . S
H448 C458 0.970 . S
H449 C460 0.930 . S
H450 C462 0.930 . S
H451 C464 0.930 . S
C452 H444 0.930 . S
C452 C453 1.382 . S
C452 C454 1.426 . S
C453 C452 1.382 . S
C453 C457 1.389 . S
C454 C452 1.426 . S
C454 C455 1.375 . S
C454 C458 1.532 . S
C455 H445 0.930 . S
C455 C454 1.375 . S
C455 C456 1.416 . S
C456 C455 1.416 . S
C456 C457 1.371 . S
C457 H446 0.930 . S
C457 C453 1.389 . S
C457 C456 1.371 . S
C458 H447 0.970 . S
C458 H448 0.970 . S
C458 C454 1.532 . S
C458 C459 1.499 . S
C459 C458 1.499 . S
C459 C460 1.370 . S
C459 C464 1.415 . S
C460 H449 0.930 . S
C460 C459 1.370 . S
C460 C461 1.407 . S
C461 C460 1.407 . S
C461 C462 1.365 . S
C462 H450 0.930 . S
C462 C461 1.365 . S
C462 C463 1.393 . S
C463 C462 1.393 . S
C463 C464 1.387 . S
C464 H451 0.930 . S
C464 C459 1.415 . S
C464 C463 1.387 . S
H465 C473 0.930 . S
H466 C476 0.930 . S
H467 C478 0.930 . S
H468 C479 0.970 . S
H469 C479 0.970 . S
H470 C481 0.930 . S
H471 C483 0.930 . S
H472 C485 0.930 . S
C473 H465 0.930 . S
C473 C474 1.382 . S
C473 C475 1.426 . S
C474 C473 1.382 . S
C474 C478 1.389 1_565 S
C475 C473 1.426 . S
C475 C476 1.375 . S
C475 C479 1.532 . S
C476 H466 0.930 . S
C476 C475 1.375 . S
C476 C477 1.416 . S
C477 C476 1.416 . S
C477 C478 1.371 1_565 S
C478 H467 0.930 . S
C478 C474 1.389 1_545 S
C478 C477 1.371 1_545 S
C479 H468 0.970 . S
C479 H469 0.970 . S
C479 C475 1.532 . S
C479 C480 1.499 . S
C480 C479 1.499 . S
C480 C481 1.370 . S
C480 C485 1.415 . S
C481 H470 0.930 . S
C481 C480 1.370 . S
C481 C482 1.406 . S
C482 C481 1.406 . S
C482 C483 1.365 1_565 S
C483 H471 0.930 . S
C483 C482 1.365 1_545 S
C483 C484 1.393 1_545 S
C484 C483 1.393 1_565 S
C484 C485 1.387 . S
C485 H472 0.930 . S
C485 C480 1.415 . S
C485 C484 1.387 . S
H486 C494 0.930 . S
H487 C497 0.930 . S
H488 C499 0.930 . S
H489 C500 0.970 . S
H490 C500 0.970 . S
H491 C502 0.930 . S
H492 C504 0.930 . S
H493 C506 0.930 . S
C494 H486 0.930 . S
C494 C495 1.382 . S
C494 C496 1.426 . S
C495 C494 1.382 . S
C495 C499 1.389 1_565 S
C496 C494 1.426 . S
C496 C497 1.375 . S
C496 C500 1.532 . S
C497 H487 0.930 . S
C497 C496 1.375 . S
C497 C498 1.468 . S
C498 C497 1.468 . S
C498 C499 1.353 1_565 S
C499 H488 0.930 . S
C499 C495 1.389 1_545 S
C499 C498 1.353 1_545 S
C500 H489 0.970 . S
C500 H490 0.970 . S
C500 C496 1.532 . S
C500 C501 1.499 . S
C501 C500 1.499 . S
C501 C502 1.370 . S
C501 C506 1.415 . S
C502 H491 0.930 . S
C502 C501 1.370 . S
C502 C503 1.407 . S
C503 C502 1.407 . S
C503 C504 1.365 1_565 S
C504 H492 0.930 . S
C504 C503 1.365 1_545 S
C504 C505 1.393 1_545 S
C505 C504 1.393 1_565 S
C505 C506 1.387 . S
C506 H493 0.930 . S
C506 C501 1.415 . S
C506 C505 1.387 . S
H507 C515 0.930 . S
H508 C518 0.930 . S
H509 C520 0.930 . S
H510 C521 0.970 . S
H511 C521 0.970 . S
H512 C523 0.930 . S
H513 C525 0.930 . S
H514 C527 0.930 . S
C515 H507 0.930 . S
C515 C516 1.382 . S
C515 C517 1.426 . S
C516 C515 1.382 . S
C516 C520 1.389 1_455 S
C517 C515 1.426 . S
C517 C518 1.375 . S
C517 C521 1.532 . S
C518 H508 0.930 . S
C518 C517 1.375 . S
C518 C519 1.416 . S
C519 C518 1.416 . S
C519 C520 1.371 1_455 S
C520 H509 0.930 . S
C520 C516 1.389 1_655 S
C520 C519 1.371 1_655 S
C521 H510 0.970 . S
C521 H511 0.970 . S
C521 C517 1.532 . S
C521 C522 1.499 . S
C522 C521 1.499 . S
C522 C523 1.370 . S
C522 C527 1.415 . S
C523 H512 0.930 . S
C523 C522 1.370 . S
C523 C524 1.407 . S
C524 C523 1.407 . S
C524 C525 1.365 1_455 S
C525 H513 0.930 . S
C525 C524 1.365 1_655 S
C525 C526 1.393 1_655 S
C526 C525 1.393 1_455 S
C526 C527 1.387 . S
C527 H514 0.930 . S
C527 C522 1.415 . S
C527 C526 1.387 . S
H528 C536 0.930 . S
H529 C539 0.930 . S
H530 C541 0.930 . S
H531 C542 0.970 . S
H532 C542 0.970 . S
H533 C544 0.930 . S
H534 C546 0.930 . S
H535 C548 0.930 . S
C536 H528 0.930 . S
C536 C537 1.382 . S
C536 C538 1.426 . S
C537 C536 1.382 . S
C537 C541 1.389 . S
C538 C536 1.426 . S
C538 C539 1.375 . S
C538 C542 1.532 . S
C539 H529 0.930 . S
C539 C538 1.375 . S
C539 C540 1.416 . S
C540 C539 1.416 . S
C540 C541 1.371 . S
C541 H530 0.930 . S
C541 C537 1.389 . S
C541 C540 1.371 . S
C542 H531 0.970 . S
C542 H532 0.970 . S
C542 C538 1.532 . S
C542 C543 1.499 . S
C543 C542 1.499 . S
C543 C544 1.370 . S
C543 C548 1.415 . S
C544 H533 0.930 . S
C544 C543 1.370 . S
C544 C545 1.407 . S
C545 C544 1.407 . S
C545 C546 1.365 . S
C546 H534 0.930 . S
C546 C545 1.365 . S
C546 C547 1.393 . S
C547 C546 1.393 . S
C547 C548 1.387 . S
C548 H535 0.930 . S
C548 C543 1.415 . S
C548 C547 1.387 . S
H549 C557 0.930 . S
H550 C560 0.930 . S
H551 C562 0.930 . S
H552 C563 0.970 . S
H553 C563 0.970 . S
H554 C565 0.930 . S
H555 C567 0.930 . S
H556 C569 0.930 . S
C557 H549 0.930 . S
C557 C558 1.382 . S
C557 C559 1.426 . S
C558 C557 1.382 . S
C558 C562 1.389 . S
C559 C557 1.426 . S
C559 C560 1.375 . S
C559 C563 1.532 . S
C560 H550 0.930 . S
C560 C559 1.375 . S
C560 C561 1.416 . S
C561 C560 1.416 . S
C561 C562 1.371 . S
C562 H551 0.930 . S
C562 C558 1.389 . S
C562 C561 1.371 . S
C563 H552 0.970 . S
C563 H553 0.970 . S
C563 C559 1.532 . S
C563 C564 1.499 . S
C564 C563 1.499 . S
C564 C565 1.370 . S
C564 C569 1.415 . S
C565 H554 0.930 . S
C565 C564 1.370 . S
C565 C566 1.407 . S
C566 C565 1.407 . S
C566 C567 1.365 . S
C567 H555 0.930 . S
C567 C566 1.365 . S
C567 C568 1.393 . S
C568 C567 1.393 . S
C568 C569 1.387 . S
C569 H556 0.930 . S
C569 C564 1.415 . S
C569 C568 1.387 . S
H570 C578 0.930 . S
H571 C581 0.930 . S
H572 C583 0.930 . S
H573 C584 0.970 . S
H574 C584 0.970 . S
H575 C586 0.930 . S
H576 C588 0.930 . S
H577 C590 0.930 . S
C578 H570 0.930 . S
C578 C579 1.382 . S
C578 C580 1.426 . S
C579 C578 1.382 . S
C579 C583 1.389 . S
C580 C578 1.426 . S
C580 C581 1.375 . S
C580 C584 1.532 . S
C581 H571 0.930 . S
C581 C580 1.375 . S
C581 C582 1.416 . S
C582 C581 1.416 . S
C582 C583 1.371 . S
C583 H572 0.930 . S
C583 C579 1.389 . S
C583 C582 1.371 . S
C584 H573 0.970 . S
C584 H574 0.970 . S
C584 C580 1.532 . S
C584 C585 1.499 . S
C585 C584 1.499 . S
C585 C586 1.370 . S
C585 C590 1.415 . S
C586 H575 0.930 . S
C586 C585 1.370 . S
C586 C587 1.407 . S
C587 C586 1.407 . S
C587 C588 1.365 . S
C588 H576 0.930 . S
C588 C587 1.365 . S
C588 C589 1.393 . S
C589 C588 1.393 . S
C589 C590 1.387 . S
C590 H577 0.930 . S
C590 C585 1.415 . S
C590 C589 1.387 . S
H591 C599 0.930 . S
H592 C602 0.930 . S
H593 C604 0.930 . S
H594 C605 0.970 . S
H595 C605 0.970 . S
H596 C607 0.930 . S
H597 C609 0.930 . S
H598 C611 0.930 . S
C599 H591 0.930 . S
C599 C600 1.382 . S
C599 C601 1.426 . S
C600 C599 1.382 . S
C600 C604 1.389 . S
C601 C599 1.426 . S
C601 C602 1.375 . S
C601 C605 1.532 . S
C602 H592 0.930 . S
C602 C601 1.375 . S
C602 C603 1.416 . S
C603 C602 1.416 . S
C603 C604 1.371 . S
C604 H593 0.930 . S
C604 C600 1.389 . S
C604 C603 1.371 . S
C605 H594 0.970 . S
C605 H595 0.970 . S
C605 C601 1.532 . S
C605 C606 1.499 . S
C606 C605 1.499 . S
C606 C607 1.370 . S
C606 C611 1.415 . S
C607 H596 0.930 . S
C607 C606 1.370 . S
C607 C608 1.407 . S
C608 C607 1.407 . S
C608 C609 1.365 . S
C609 H597 0.930 . S
C609 C608 1.365 . S
C609 C610 1.393 . S
C610 C609 1.393 . S
C610 C611 1.387 . S
C611 H598 0.930 . S
C611 C606 1.415 . S
C611 C610 1.387 . S
C612 C613 1.391 . S
C612 C614 1.394 . S
C612 H628 0.931 . S
C613 C612 1.391 . S
C613 C617 1.376 1_655 S
C614 C612 1.394 . S
C614 C615 1.369 . S
C614 C618 1.531 . S
C615 C614 1.369 . S
C615 C616 1.410 1_655 S
C615 C623 1.503 . S
C616 C615 1.410 1_455 S
C616 C617 1.392 . S
C616 C619 1.511 . S
C617 C613 1.376 1_455 S
C617 C616 1.392 . S
C617 H629 0.929 . S
C618 C614 1.531 . S
C618 H630 0.960 . S
C618 H631 0.962 . S
C618 H632 0.960 . S
C619 C616 1.511 . S
C619 H633 0.961 . S
C619 H634 0.961 . S
C619 H635 0.961 . S
C620 C621 1.370 . S
C620 C622 1.363 . S
C620 H636 0.931 . S
C621 C620 1.370 . S
C621 C625 1.408 . S
C622 C620 1.363 . S
C622 C623 1.370 . S
C622 C626 1.524 . S
C623 C615 1.503 . S
C623 C622 1.370 . S
C623 C624 1.403 . S
C624 C623 1.403 . S
C624 C625 1.404 . S
C624 C627 1.539 . S
C625 C621 1.408 . S
C625 C624 1.404 . S
C625 H637 0.930 . S
C626 C622 1.524 . S
C626 H638 0.956 . S
C626 H639 0.961 1_655 S
C626 H640 0.961 1_655 S
C627 C624 1.539 . S
C627 H641 0.958 . S
C627 H642 0.991 . S
C627 H643 0.960 . S
H628 C612 0.931 . S
H629 C617 0.929 . S
H630 C618 0.960 . S
H631 C618 0.962 . S
H632 C618 0.960 . S
H633 C619 0.961 . S
H634 C619 0.961 . S
H635 C619 0.961 . S
H636 C620 0.931 . S
H637 C625 0.930 . S
H638 C626 0.956 . S
H639 C626 0.961 1_455 S
H640 C626 0.961 1_455 S
H641 C627 0.958 . S
H642 C627 0.991 . S
H643 C627 0.960 . S
C644 C645 1.391 . S
C644 C646 1.394 . S
C644 H660 0.931 . S
C645 C644 1.391 . S
C645 C649 1.376 . S
C646 C644 1.394 . S
C646 C647 1.369 . S
C646 C650 1.531 . S
C647 C646 1.369 . S
C647 C648 1.410 . S
C647 C655 1.503 . S
C648 C647 1.410 . S
C648 C649 1.392 . S
C648 C651 1.511 . S
C649 C645 1.376 . S
C649 C648 1.392 . S
C649 H661 0.929 . S
C650 C646 1.531 . S
C650 H662 0.960 . S
C650 H663 0.962 . S
C650 H664 0.960 . S
C651 C648 1.511 . S
C651 H665 0.961 . S
C651 H666 0.961 . S
C651 H667 0.961 . S
C652 C653 1.370 . S
C652 C654 1.363 . S
C652 H668 0.931 . S
C653 C652 1.370 . S
C653 C657 1.408 . S
C654 C652 1.363 . S
C654 C655 1.370 . S
C654 C658 1.524 . S
C655 C647 1.503 . S
C655 C654 1.370 . S
C655 C656 1.403 . S
C656 C655 1.403 . S
C656 C657 1.404 . S
C656 C659 1.539 . S
C657 C653 1.408 . S
C657 C656 1.404 . S
C657 H669 0.930 . S
C658 C654 1.524 . S
C658 H670 0.956 . S
C658 H671 0.961 . S
C658 H672 0.961 . S
C659 C656 1.539 . S
C659 H673 0.958 . S
C659 H674 0.961 . S
C659 H675 0.960 . S
H660 C644 0.931 . S
H661 C649 0.929 . S
H662 C650 0.960 . S
H663 C650 0.962 . S
H664 C650 0.960 . S
H665 C651 0.961 . S
H666 C651 0.961 . S
H667 C651 0.961 . S
H668 C652 0.931 . S
H669 C657 0.930 . S
H670 C658 0.956 . S
H671 C658 0.961 . S
H672 C658 0.961 . S
H673 C659 0.958 . S
H674 C659 0.961 . S
H675 C659 0.960 . S
C676 C677 1.391 . S
C676 C678 1.394 . S
C676 H692 0.931 . S
C677 C676 1.391 . S
C677 C681 1.376 . S
C678 C676 1.394 . S
C678 C679 1.369 . S
C678 C682 1.531 . S
C679 C678 1.369 . S
C679 C680 1.410 . S
C679 C687 1.503 . S
C680 C679 1.410 . S
C680 C681 1.392 . S
C680 C683 1.511 1_545 S
C681 C677 1.376 . S
C681 C680 1.392 . S
C681 H693 0.929 . S
C682 C678 1.531 . S
C682 H694 0.960 . S
C682 H695 0.962 . S
C682 H696 0.960 . S
C683 C680 1.511 1_565 S
C683 H697 0.961 . S
C683 H698 0.961 . S
C683 H699 0.961 1_565 S
C684 C685 1.370 1_565 S
C684 C686 1.363 . S
C684 H700 0.931 . S
C685 C684 1.370 1_545 S
C685 C689 1.408 . S
C686 C684 1.363 . S
C686 C687 1.370 1_565 S
C686 C690 1.524 . S
C687 C679 1.503 . S
C687 C686 1.370 1_545 S
C687 C688 1.403 . S
C688 C687 1.403 . S
C688 C689 1.404 . S
C688 C691 1.539 . S
C689 C685 1.408 . S
C689 C688 1.404 . S
C689 H701 0.930 . S
C690 C686 1.524 . S
C690 H702 0.956 . S
C690 H703 0.961 . S
C690 H704 0.961 . S
C691 C688 1.539 . S
C691 H705 0.958 . S
C691 H706 0.961 . S
C691 H707 0.960 . S
H692 C676 0.931 . S
H693 C681 0.929 . S
H694 C682 0.960 . S
H695 C682 0.962 . S
H696 C682 0.960 . S
H697 C683 0.961 . S
H698 C683 0.961 . S
H699 C683 0.961 1_545 S
H700 C684 0.931 . S
H701 C689 0.930 . S
H702 C690 0.956 . S
H703 C690 0.961 . S
H704 C690 0.961 . S
H705 C691 0.958 . S
H706 C691 0.961 . S
H707 C691 0.960 . S
C708 C709 1.391 . S
C708 C710 1.394 . S
C708 H724 0.931 . S
C709 C708 1.391 . S
C709 C713 1.376 1_565 S
C710 C708 1.394 . S
C710 C711 1.369 . S
C710 C714 1.531 . S
C711 C710 1.369 . S
C711 C712 1.410 1_565 S
C711 C719 1.503 . S
C712 C711 1.410 1_545 S
C712 C713 1.392 . S
C712 C715 1.511 . S
C713 C709 1.376 1_545 S
C713 C712 1.392 . S
C713 H725 0.929 . S
C714 C710 1.531 . S
C714 H726 0.960 . S
C714 H727 0.962 . S
C714 H728 0.960 . S
C715 C712 1.511 . S
C715 H729 0.961 . S
C715 H730 0.961 . S
C715 H731 0.937 1_545 S
C716 C717 1.370 1_545 S
C716 C718 1.363 . S
C716 H732 0.931 . S
C717 C716 1.370 1_565 S
C717 C721 1.408 . S
C718 C716 1.363 . S
C718 C719 1.370 1_545 S
C718 C722 1.524 . S
C719 C711 1.503 . S
C719 C718 1.370 1_565 S
C719 C720 1.403 . S
C720 C719 1.403 . S
C720 C721 1.404 . S
C720 C723 1.539 . S
C721 C717 1.408 . S
C721 C720 1.404 . S
C721 H733 0.930 . S
C722 C718 1.524 . S
C722 H734 0.956 . S
C722 H735 0.961 . S
C722 H736 0.961 . S
C723 C720 1.539 . S
C723 H737 0.958 . S
C723 H738 0.961 . S
C723 H739 0.960 . S
H724 C708 0.931 . S
H725 C713 0.929 . S
H726 C714 0.960 . S
H727 C714 0.962 . S
H728 C714 0.960 . S
H729 C715 0.961 . S
H730 C715 0.961 . S
H731 C715 0.937 1_565 S
H732 C716 0.931 . S
H733 C721 0.930 . S
H734 C722 0.956 . S
H735 C722 0.961 . S
H736 C722 0.961 . S
H737 C723 0.958 . S
H738 C723 0.961 . S
H739 C723 0.960 . S
C740 C741 1.391 . S
C740 C742 1.394 . S
C740 H756 0.931 . S
C741 C740 1.391 . S
C741 C745 1.376 . S
C742 C740 1.394 . S
C742 C743 1.369 . S
C742 C746 1.531 . S
C743 C742 1.369 . S
C743 C744 1.410 . S
C743 C751 1.503 . S
C744 C743 1.410 . S
C744 C745 1.392 . S
C744 C747 1.511 . S
C745 C741 1.376 . S
C745 C744 1.392 . S
C745 H757 0.929 . S
C746 C742 1.531 . S
C746 H758 0.960 . S
C746 H759 0.962 1_455 S
C746 H760 0.960 . S
C747 C744 1.511 . S
C747 H761 0.961 . S
C747 H762 0.961 . S
C747 H763 0.961 . S
C748 C749 1.370 1_655 S
C748 C750 1.363 . S
C748 H764 0.931 . S
C749 C748 1.370 1_455 S
C749 C753 1.408 . S
C750 C748 1.363 . S
C750 C751 1.370 1_655 S
C750 C754 1.524 . S
C751 C743 1.503 . S
C751 C750 1.370 1_455 S
C751 C752 1.403 . S
C752 C751 1.403 . S
C752 C753 1.404 . S
C752 C755 1.539 . S
C753 C749 1.408 . S
C753 C752 1.404 . S
C753 H765 0.930 . S
C754 C750 1.524 . S
C754 H766 0.956 . S
C754 H767 0.961 . S
C754 H768 0.961 . S
C755 C752 1.539 . S
C755 H769 0.958 . S
C755 H770 0.961 . S
C755 H771 0.960 . S
H756 C740 0.931 . S
H757 C745 0.929 . S
H758 C746 0.960 . S
H759 C746 0.962 1_655 S
H760 C746 0.960 . S
H761 C747 0.961 . S
H762 C747 0.961 . S
H763 C747 0.961 . S
H764 C748 0.931 . S
H765 C753 0.930 . S
H766 C754 0.956 . S
H767 C754 0.961 . S
H768 C754 0.961 . S
H769 C755 0.958 . S
H770 C755 0.961 . S
H771 C755 0.960 . S
C772 C773 1.391 . S
C772 C774 1.394 . S
C772 H788 0.931 . S
C773 C772 1.391 . S
C773 C777 1.376 . S
C774 C772 1.394 . S
C774 C775 1.369 . S
C774 C778 1.531 . S
C775 C774 1.369 . S
C775 C776 1.410 . S
C775 C783 1.503 . S
C776 C775 1.410 . S
C776 C777 1.392 . S
C776 C779 1.511 . S
C777 C773 1.376 . S
C777 C776 1.392 . S
C777 H789 0.929 . S
C778 C774 1.531 . S
C778 H790 0.960 . S
C778 H791 0.962 . S
C778 H792 0.960 . S
C779 C776 1.511 . S
C779 H793 0.961 . S
C779 H794 0.961 . S
C779 H795 0.961 . S
C780 C781 1.370 . S
C780 C782 1.363 . S
C780 H796 0.931 . S
C781 C780 1.370 . S
C781 C785 1.408 . S
C782 C780 1.363 . S
C782 C783 1.370 . S
C782 C786 1.524 . S
C783 C775 1.503 . S
C783 C782 1.370 . S
C783 C784 1.403 . S
C784 C783 1.403 . S
C784 C785 1.404 . S
C784 C787 1.539 . S
C785 C781 1.408 . S
C785 C784 1.404 . S
C785 H797 0.930 . S
C786 C782 1.524 . S
C786 H798 0.956 . S
C786 H799 0.961 . S
C786 H800 0.961 . S
C787 C784 1.539 . S
C787 H801 0.958 . S
C787 H802 0.961 . S
C787 H803 0.960 . S
H788 C772 0.931 . S
H789 C777 0.929 . S
H790 C778 0.960 . S
H791 C778 0.962 . S
H792 C778 0.960 . S
H793 C779 0.961 . S
H794 C779 0.961 . S
H795 C779 0.961 . S
H796 C780 0.931 . S
H797 C785 0.930 . S
H798 C786 0.956 . S
H799 C786 0.961 . S
H800 C786 0.961 . S
H801 C787 0.958 . S
H802 C787 0.961 . S
H803 C787 0.960 . S
C804 C805 1.391 . S
C804 C806 1.394 . S
C804 H820 0.931 . S
C805 C804 1.391 . S
C805 C809 1.376 1_455 S
C806 C804 1.394 . S
C806 C807 1.369 . S
C806 C810 1.531 . S
C807 C806 1.369 . S
C807 C808 1.410 1_455 S
C807 C815 1.503 . S
C808 C807 1.410 1_655 S
C808 C809 1.392 . S
C808 C811 1.511 . S
C809 C805 1.376 1_655 S
C809 C808 1.392 . S
C809 H821 0.929 . S
C810 C806 1.531 . S
C810 H822 0.960 . S
C810 H823 0.962 . S
C810 H824 0.960 . S
C811 C808 1.511 . S
C811 H825 0.961 . S
C811 H826 0.961 . S
C811 H827 0.961 . S
C812 C813 1.374 . S
C812 C814 1.363 . S
C812 H828 0.931 . S
C813 C812 1.374 . S
C813 C817 1.395 1_455 S
C814 C812 1.363 . S
C814 C815 1.370 . S
C814 C818 1.524 . S
C815 C807 1.503 . S
C815 C814 1.370 . S
C815 C816 1.403 1_455 S
C816 C815 1.403 1_655 S
C816 C817 1.404 . S
C816 C819 1.539 . S
C817 C813 1.395 1_655 S
C817 C816 1.404 . S
C817 H829 0.930 . S
C818 C814 1.524 . S
C818 H830 0.956 . S
C818 H831 0.961 . S
C818 H832 0.961 . S
C819 C816 1.539 . S
C819 H833 0.958 . S
C819 H834 0.961 . S
C819 H835 0.960 . S
H820 C804 0.931 . S
H821 C809 0.929 . S
H822 C810 0.960 . S
H823 C810 0.962 . S
H824 C810 0.960 . S
H825 C811 0.961 . S
H826 C811 0.961 . S
H827 C811 0.961 . S
H828 C812 0.931 . S
H829 C817 0.930 . S
H830 C818 0.956 . S
H831 C818 0.961 . S
H832 C818 0.961 . S
H833 C819 0.958 . S
H834 C819 0.961 . S
H835 C819 0.960 . S
C836 C837 1.391 . S
C836 C838 1.394 . S
C836 H852 0.931 . S
C837 C836 1.391 . S
C837 C841 1.376 . S
C838 C836 1.394 . S
C838 C839 1.369 . S
C838 C842 1.531 . S
C839 C838 1.369 . S
C839 C840 1.410 . S
C839 C847 1.503 . S
C840 C839 1.410 . S
C840 C841 1.392 . S
C840 C843 1.511 . S
C841 C837 1.376 . S
C841 C840 1.392 . S
C841 H853 0.929 . S
C842 C838 1.531 . S
C842 H854 0.960 . S
C842 H855 0.962 . S
C842 H856 0.960 . S
C843 C840 1.511 . S
C843 H857 0.961 . S
C843 H858 0.961 . S
C843 H859 0.961 . S
C844 C845 1.370 . S
C844 C846 1.363 . S
C844 H860 0.931 . S
C845 C844 1.370 . S
C845 C849 1.408 . S
C846 C844 1.363 . S
C846 C847 1.370 . S
C846 C850 1.524 . S
C847 C839 1.503 . S
C847 C846 1.370 . S
C847 C848 1.403 . S
C848 C847 1.403 . S
C848 C849 1.404 . S
C848 C851 1.539 . S
C849 C845 1.408 . S
C849 C848 1.404 . S
C849 H861 0.930 . S
C850 C846 1.524 . S
C850 H862 0.956 . S
C850 H863 0.961 . S
C850 H864 0.961 . S
C851 C848 1.539 . S
C851 H865 0.958 . S
C851 H866 0.961 . S
C851 H867 0.960 . S
H852 C836 0.931 . S
H853 C841 0.929 . S
H854 C842 0.960 . S
H855 C842 0.962 . S
H856 C842 0.960 . S
H857 C843 0.961 . S
H858 C843 0.961 . S
H859 C843 0.961 . S
H860 C844 0.931 . S
H861 C849 0.930 . S
H862 C850 0.956 . S
H863 C850 0.961 . S
H864 C850 0.961 . S
H865 C851 0.958 . S
H866 C851 0.961 . S
H867 C851 0.960 . S
C868 C869 1.391 1_545 S
C868 C870 1.394 . S
C868 H884 0.931 . S
C869 C868 1.391 1_565 S
C869 C873 1.376 . S
C870 C868 1.394 . S
C870 C871 1.364 1_545 S
C870 C874 1.531 . S
C871 C870 1.364 1_565 S
C871 C872 1.422 . S
C871 C879 1.509 . S
C872 C871 1.422 . S
C872 C873 1.392 . S
C872 C875 1.511 . S
C873 C869 1.376 . S
C873 C872 1.392 . S
C873 H885 0.929 . S
C874 C870 1.531 . S
C874 H886 0.960 . S
C874 H887 0.962 . S
C874 H888 0.960 . S
C875 C872 1.511 . S
C875 H889 0.961 . S
C875 H890 0.961 . S
C875 H891 0.961 . S
C876 C877 1.420 . S
C876 C878 1.363 . S
C876 H892 0.931 . S
C877 C876 1.420 . S
C877 C881 1.389 1_565 S
C878 C876 1.363 . S
C878 C879 1.378 . S
C878 C882 1.524 . S
C879 C871 1.509 . S
C879 C878 1.378 . S
C879 C880 1.383 1_565 S
C880 C879 1.383 1_545 S
C880 C881 1.404 . S
C880 C883 1.539 . S
C881 C877 1.389 1_545 S
C881 C880 1.404 . S
C881 H893 0.930 . S
C882 C878 1.524 . S
C882 H894 0.956 . S
C882 H895 0.961 . S
C882 H896 0.961 . S
C883 C880 1.539 . S
C883 H897 0.958 . S
C883 H898 0.961 . S
C883 H899 0.960 . S
H884 C868 0.931 . S
H885 C873 0.929 . S
H886 C874 0.960 . S
H887 C874 0.962 . S
H888 C874 0.960 . S
H889 C875 0.961 . S
H890 C875 0.961 . S
H891 C875 0.961 . S
H892 C876 0.931 . S
H893 C881 0.930 . S
H894 C882 0.956 . S
H895 C882 0.961 . S
H896 C882 0.961 . S
H897 C883 0.958 . S
H898 C883 0.961 . S
H899 C883 0.960 . S
C900 C901 1.391 . S
C900 C902 1.394 . S
C900 H916 0.931 . S
C901 C900 1.391 . S
C901 C905 1.376 . S
C902 C900 1.394 . S
C902 C903 1.385 . S
C902 C906 1.531 . S
C903 C902 1.385 . S
C903 C904 1.350 1_545 S
C903 C911 1.508 . S
C904 C903 1.350 1_565 S
C904 C905 1.407 1_565 S
C904 C907 1.529 . S
C905 C901 1.376 . S
C905 C904 1.407 1_545 S
C905 H917 0.929 . S
C906 C902 1.531 . S
C906 H918 0.960 1_545 S
C906 H919 0.962 . S
C906 H920 0.960 . S
C907 C904 1.529 . S
C907 H921 0.962 1_565 S
C907 H922 0.948 1_565 S
C907 H923 0.961 . S
C908 C909 1.392 . S
C908 C910 1.363 . S
C908 H924 0.931 . S
C909 C908 1.392 . S
C909 C913 1.371 1_545 S
C910 C908 1.363 . S
C910 C911 1.409 . S
C910 C914 1.524 . S
C911 C903 1.508 . S
C911 C910 1.409 . S
C911 C912 1.381 1_545 S
C912 C911 1.381 1_565 S
C912 C913 1.404 . S
C912 C915 1.539 . S
C913 C909 1.371 1_565 S
C913 C912 1.404 . S
C913 H925 0.930 . S
C914 C910 1.524 . S
C914 H926 0.956 . S
C914 H927 0.961 . S
C914 H928 0.961 . S
C915 C912 1.539 . S
C915 H929 0.958 . S
C915 H930 0.961 . S
C915 H931 0.960 . S
H916 C900 0.931 . S
H917 C905 0.929 . S
H918 C906 0.960 1_565 S
H919 C906 0.962 . S
H920 C906 0.960 . S
H921 C907 0.962 1_545 S
H922 C907 0.948 1_545 S
H923 C907 0.961 . S
H924 C908 0.931 . S
H925 C913 0.930 . S
H926 C914 0.956 . S
H927 C914 0.961 . S
H928 C914 0.961 . S
H929 C915 0.958 . S
H930 C915 0.961 . S
H931 C915 0.960 . S
C932 C933 1.391 . S
C932 C934 1.394 . S
C932 H948 0.931 . S
C933 C932 1.391 . S
C933 C937 1.376 1_655 S
C934 C932 1.394 . S
C934 C935 1.369 . S
C934 C938 1.531 . S
C935 C934 1.369 . S
C935 C936 1.410 1_655 S
C935 C943 1.503 . S
C936 C935 1.410 1_455 S
C936 C937 1.392 . S
C936 C939 1.511 . S
C937 C933 1.376 1_455 S
C937 C936 1.392 . S
C937 H949 0.929 . S
C938 C934 1.531 . S
C938 H950 0.960 . S
C938 H951 0.962 . S
C938 H952 0.960 . S
C939 C936 1.511 . S
C939 H953 0.961 . S
C939 H954 0.961 . S
C939 H955 0.961 . S
C940 C941 1.370 1_455 S
C940 C942 1.363 . S
C940 H956 0.931 . S
C941 C940 1.370 1_655 S
C941 C945 1.408 . S
C942 C940 1.363 . S
C942 C943 1.370 1_455 S
C942 C946 1.524 . S
C943 C935 1.503 . S
C943 C942 1.370 1_655 S
C943 C944 1.403 . S
C944 C943 1.403 . S
C944 C945 1.404 . S
C944 C947 1.539 . S
C945 C941 1.408 . S
C945 C944 1.404 . S
C945 H957 0.930 . S
C946 C942 1.524 . S
C946 H958 0.956 1_455 S
C946 H959 0.961 . S
C946 H960 0.961 . S
C947 C944 1.539 . S
C947 H961 0.958 . S
C947 H962 0.961 . S
C947 H963 0.960 . S
H948 C932 0.931 . S
H949 C937 0.929 . S
H950 C938 0.960 . S
H951 C938 0.962 . S
H952 C938 0.960 . S
H953 C939 0.961 . S
H954 C939 0.961 . S
H955 C939 0.961 . S
H956 C940 0.931 . S
H957 C945 0.930 . S
H958 C946 0.956 1_655 S
H959 C946 0.961 . S
H960 C946 0.961 . S
H961 C947 0.958 . S
H962 C947 0.961 . S
H963 C947 0.960 . S
C964 C965 1.391 . S
C964 C966 1.394 . S
C964 H980 0.931 . S
C965 C964 1.391 . S
C965 C969 1.376 . S
C966 C964 1.394 . S
C966 C967 1.369 . S
C966 C970 1.531 . S
C967 C966 1.369 . S
C967 C968 1.410 . S
C967 C975 1.503 . S
C968 C967 1.410 . S
C968 C969 1.392 . S
C968 C971 1.511 . S
C969 C965 1.376 . S
C969 C968 1.392 . S
C969 H981 0.929 . S
C970 C966 1.531 . S
C970 H982 0.960 . S
C970 H983 0.962 . S
C970 H984 0.960 . S
C971 C968 1.511 . S
C971 H985 0.961 . S
C971 H986 0.961 . S
C971 H987 0.961 . S
C972 C973 1.370 . S
C972 C974 1.363 . S
C972 H988 0.931 . S
C973 C972 1.370 . S
C973 C977 1.408 . S
C974 C972 1.363 . S
C974 C975 1.370 . S
C974 C978 1.524 . S
C975 C967 1.503 . S
C975 C974 1.370 . S
C975 C976 1.403 . S
C976 C975 1.403 . S
C976 C977 1.404 . S
C976 C979 1.539 . S
C977 C973 1.408 . S
C977 C976 1.404 . S
C977 H989 0.930 . S
C978 C974 1.524 . S
C978 H990 0.956 . S
C978 H991 0.961 . S
C978 H992 0.961 . S
C979 C976 1.539 . S
C979 H993 0.958 . S
C979 H994 0.961 . S
C979 H995 0.960 . S
H980 C964 0.931 . S
H981 C969 0.929 . S
H982 C970 0.960 . S
H983 C970 0.962 . S
H984 C970 0.960 . S
H985 C971 0.961 . S
H986 C971 0.961 . S
H987 C971 0.961 . S
H988 C972 0.931 . S
H989 C977 0.930 . S
H990 C978 0.956 . S
H991 C978 0.961 . S
H992 C978 0.961 . S
H993 C979 0.958 . S
H994 C979 0.961 . S
H995 C979 0.960 . S
C996 C997 1.391 . S
C996 C998 1.394 . S
C996 H1012 0.931 . S
C997 C996 1.391 . S
C997 C1001 1.376 . S
C998 C996 1.394 . S
C998 C999 1.369 . S
C998 C1002 1.531 . S
C999 C998 1.369 . S
C999 C1000 1.410 . S
C999 C1007 1.503 . S
C1000 C999 1.410 . S
C1000 C1001 1.392 . S
C1000 C1003 1.511 . S
C1001 C997 1.376 . S
C1001 C1000 1.392 . S
C1001 H1013 0.929 . S
C1002 C998 1.531 . S
C1002 H1014 0.960 . S
C1002 H1015 0.962 . S
C1002 H1016 0.960 . S
C1003 C1000 1.511 . S
C1003 H1017 0.961 . S
C1003 H1018 0.961 . S
C1003 H1019 0.961 . S
C1004 C1005 1.370 . S
C1004 C1006 1.363 . S
C1004 H1020 0.931 . S
C1005 C1004 1.370 . S
C1005 C1009 1.408 . S
C1006 C1004 1.363 . S
C1006 C1007 1.370 . S
C1006 C1010 1.524 . S
C1007 C999 1.503 . S
C1007 C1006 1.370 . S
C1007 C1008 1.403 . S
C1008 C1007 1.403 . S
C1008 C1009 1.404 . S
C1008 C1011 1.539 . S
C1009 C1005 1.408 . S
C1009 C1008 1.404 . S
C1009 H1021 0.930 . S
C1010 C1006 1.524 . S
C1010 H1022 0.956 . S
C1010 H1023 0.961 . S
C1010 H1024 0.961 . S
C1011 C1008 1.539 . S
C1011 H1025 0.958 . S
C1011 H1026 0.961 . S
C1011 H1027 0.960 . S
H1012 C996 0.931 . S
H1013 C1001 0.929 . S
H1014 C1002 0.960 . S
H1015 C1002 0.962 . S
H1016 C1002 0.960 . S
H1017 C1003 0.961 . S
H1018 C1003 0.961 . S
H1019 C1003 0.961 . S
H1020 C1004 0.931 . S
H1021 C1009 0.930 . S
H1022 C1010 0.956 . S
H1023 C1010 0.961 . S
H1024 C1010 0.961 . S
H1025 C1011 0.958 . S
H1026 C1011 0.961 . S
H1027 C1011 0.960 . S
C1028 C1029 1.391 . S
C1028 C1030 1.394 . S
C1028 H1044 0.931 . S
C1029 C1028 1.391 . S
C1029 C1033 1.376 . S
C1030 C1028 1.394 . S
C1030 C1031 1.369 . S
C1030 C1034 1.531 . S
C1031 C1030 1.369 . S
C1031 C1032 1.410 . S
C1031 C1039 1.503 . S
C1032 C1031 1.410 . S
C1032 C1033 1.392 . S
C1032 C1035 1.511 . S
C1033 C1029 1.376 . S
C1033 C1032 1.392 . S
C1033 H1045 0.929 . S
C1034 C1030 1.531 . S
C1034 H1046 0.960 . S
C1034 H1047 0.962 . S
C1034 H1048 0.960 . S
C1035 C1032 1.511 . S
C1035 H1049 0.961 . S
C1035 H1050 0.961 . S
C1035 H1051 0.961 . S
C1036 C1037 1.370 . S
C1036 C1038 1.363 . S
C1036 H1052 0.931 . S
C1037 C1036 1.370 . S
C1037 C1041 1.408 . S
C1038 C1036 1.363 . S
C1038 C1039 1.370 . S
C1038 C1042 1.524 . S
C1039 C1031 1.503 . S
C1039 C1038 1.370 . S
C1039 C1040 1.403 . S
C1040 C1039 1.403 . S
C1040 C1041 1.404 . S
C1040 C1043 1.539 . S
C1041 C1037 1.408 . S
C1041 C1040 1.404 . S
C1041 H1053 0.930 . S
C1042 C1038 1.524 . S
C1042 H1054 0.956 . S
C1042 H1055 0.961 . S
C1042 H1056 0.961 . S
C1043 C1040 1.539 . S
C1043 H1057 0.958 . S
C1043 H1058 0.961 . S
C1043 H1059 0.960 . S
H1044 C1028 0.931 . S
H1045 C1033 0.929 . S
H1046 C1034 0.960 . S
H1047 C1034 0.962 . S
H1048 C1034 0.960 . S
H1049 C1035 0.961 . S
H1050 C1035 0.961 . S
H1051 C1035 0.961 . S
H1052 C1036 0.931 . S
H1053 C1041 0.930 . S
H1054 C1042 0.956 . S
H1055 C1042 0.961 . S
H1056 C1042 0.961 . S
H1057 C1043 0.958 . S
H1058 C1043 0.961 . S
H1059 C1043 0.960 . S
C1060 C1061 1.391 . S
C1060 C1062 1.394 . S
C1060 H1076 0.931 . S
C1061 C1060 1.391 . S
C1061 C1065 1.376 . S
C1062 C1060 1.394 . S
C1062 C1063 1.369 . S
C1062 C1066 1.531 . S
C1063 C1062 1.369 . S
C1063 C1064 1.410 . S
C1063 C1071 1.503 . S
C1064 C1063 1.410 . S
C1064 C1065 1.392 . S
C1064 C1067 1.511 . S
C1065 C1061 1.376 . S
C1065 C1064 1.392 . S
C1065 H1077 0.929 . S
C1066 C1062 1.531 . S
C1066 H1078 0.960 . S
C1066 H1079 0.962 . S
C1066 H1080 0.960 . S
C1067 C1064 1.511 . S
C1067 H1081 0.961 . S
C1067 H1082 0.961 . S
C1067 H1083 0.961 . S
C1068 C1069 1.370 . S
C1068 C1070 1.363 . S
C1068 H1084 0.931 . S
C1069 C1068 1.370 . S
C1069 C1073 1.408 . S
C1070 C1068 1.363 . S
C1070 C1071 1.370 . S
C1070 C1074 1.524 . S
C1071 C1063 1.503 . S
C1071 C1070 1.370 . S
C1071 C1072 1.403 . S
C1072 C1071 1.403 . S
C1072 C1073 1.404 . S
C1072 C1075 1.539 . S
C1073 C1069 1.408 . S
C1073 C1072 1.404 . S
C1073 H1085 0.930 . S
C1074 C1070 1.524 . S
C1074 H1086 0.956 . S
C1074 H1087 0.961 . S
C1074 H1088 0.961 . S
C1075 C1072 1.539 . S
C1075 H1089 0.958 . S
C1075 H1090 0.961 . S
C1075 H1091 0.960 . S
H1076 C1060 0.931 . S
H1077 C1065 0.929 . S
H1078 C1066 0.960 . S
H1079 C1066 0.962 . S
H1080 C1066 0.960 . S
H1081 C1067 0.961 . S
H1082 C1067 0.961 . S
H1083 C1067 0.961 . S
H1084 C1068 0.931 . S
H1085 C1073 0.930 . S
H1086 C1074 0.956 . S
H1087 C1074 0.961 . S
H1088 C1074 0.961 . S
H1089 C1075 0.958 . S
H1090 C1075 0.961 . S
H1091 C1075 0.960 . S
C1092 C1093 1.391 . S
C1092 C1094 1.394 . S
C1092 H1108 0.931 . S
C1093 C1092 1.391 . S
C1093 C1097 1.376 . S
C1094 C1092 1.394 . S
C1094 C1095 1.369 . S
C1094 C1098 1.531 . S
C1095 C1094 1.369 . S
C1095 C1096 1.410 . S
C1095 C1103 1.503 . S
C1096 C1095 1.410 . S
C1096 C1097 1.392 . S
C1096 C1099 1.511 . S
C1097 C1093 1.376 . S
C1097 C1096 1.392 . S
C1097 H1109 0.929 . S
C1098 C1094 1.531 . S
C1098 H1110 0.960 . S
C1098 H1111 0.962 . S
C1098 H1112 0.960 . S
C1099 C1096 1.511 . S
C1099 H1113 0.961 . S
C1099 H1114 0.961 . S
C1099 H1115 0.961 . S
C1100 C1101 1.370 . S
C1100 C1102 1.363 . S
C1100 H1116 0.931 . S
C1101 C1100 1.370 . S
C1101 C1105 1.408 . S
C1102 C1100 1.363 . S
C1102 C1103 1.370 . S
C1102 C1106 1.524 . S
C1103 C1095 1.503 . S
C1103 C1102 1.370 . S
C1103 C1104 1.403 . S
C1104 C1103 1.403 . S
C1104 C1105 1.404 . S
C1104 C1107 1.539 . S
C1105 C1101 1.408 . S
C1105 C1104 1.404 . S
C1105 H1117 0.930 . S
C1106 C1102 1.524 . S
C1106 H1118 0.956 . S
C1106 H1119 0.961 . S
C1106 H1120 0.961 . S
C1107 C1104 1.539 . S
C1107 H1121 0.958 . S
C1107 H1122 0.961 . S
C1107 H1123 0.960 . S
H1108 C1092 0.931 . S
H1109 C1097 0.929 . S
H1110 C1098 0.960 . S
H1111 C1098 0.962 . S
H1112 C1098 0.960 . S
H1113 C1099 0.961 . S
H1114 C1099 0.961 . S
H1115 C1099 0.961 . S
H1116 C1100 0.931 . S
H1117 C1105 0.930 . S
H1118 C1106 0.956 . S
H1119 C1106 0.961 . S
H1120 C1106 0.961 . S
H1121 C1107 0.958 . S
H1122 C1107 0.961 . S
H1123 C1107 0.960 . S
C1124 C1125 1.391 . S
C1124 C1126 1.394 . S
C1124 H1140 0.931 . S
C1125 C1124 1.391 . S
C1125 C1129 1.376 . S
C1126 C1124 1.394 . S
C1126 C1127 1.369 . S
C1126 C1130 1.531 . S
C1127 C1126 1.369 . S
C1127 C1128 1.410 . S
C1127 C1135 1.503 . S
C1128 C1127 1.410 . S
C1128 C1129 1.392 . S
C1128 C1131 1.511 . S
C1129 C1125 1.376 . S
C1129 C1128 1.392 . S
C1129 H1141 0.929 . S
C1130 C1126 1.531 . S
C1130 H1142 0.960 . S
C1130 H1143 0.962 . S
C1130 H1144 0.960 . S
C1131 C1128 1.511 . S
C1131 H1145 0.961 . S
C1131 H1146 0.961 . S
C1131 H1147 0.961 . S
C1132 C1133 1.370 . S
C1132 C1134 1.363 . S
C1132 H1148 0.931 . S
C1133 C1132 1.370 . S
C1133 C1137 1.408 . S
C1134 C1132 1.363 . S
C1134 C1135 1.370 . S
C1134 C1138 1.524 . S
C1135 C1127 1.503 . S
C1135 C1134 1.370 . S
C1135 C1136 1.403 . S
C1136 C1135 1.403 . S
C1136 C1137 1.404 . S
C1136 C1139 1.539 . S
C1137 C1133 1.408 . S
C1137 C1136 1.404 . S
C1137 H1149 0.930 . S
C1138 C1134 1.524 . S
C1138 H1150 0.956 . S
C1138 H1151 0.961 . S
C1138 H1152 0.961 . S
C1139 C1136 1.539 . S
C1139 H1153 0.958 . S
C1139 H1154 0.961 . S
C1139 H1155 0.960 . S
H1140 C1124 0.931 . S
H1141 C1129 0.929 . S
H1142 C1130 0.960 . S
H1143 C1130 0.962 . S
H1144 C1130 0.960 . S
H1145 C1131 0.961 . S
H1146 C1131 0.961 . S
H1147 C1131 0.961 . S
H1148 C1132 0.931 . S
H1149 C1137 0.930 . S
H1150 C1138 0.956 . S
H1151 C1138 0.961 . S
H1152 C1138 0.961 . S
H1153 C1139 0.958 . S
H1154 C1139 0.961 . S
H1155 C1139 0.960 . S
C1156 C1157 1.391 . S
C1156 C1158 1.394 . S
C1156 H1172 0.931 . S
C1157 C1156 1.391 . S
C1157 C1161 1.376 . S
C1158 C1156 1.394 . S
C1158 C1159 1.369 . S
C1158 C1162 1.531 . S
C1159 C1158 1.369 . S
C1159 C1160 1.410 . S
C1159 C1167 1.503 . S
C1160 C1159 1.410 . S
C1160 C1161 1.392 . S
C1160 C1163 1.511 . S
C1161 C1157 1.376 . S
C1161 C1160 1.392 . S
C1161 H1173 0.929 . S
C1162 C1158 1.531 . S
C1162 H1174 0.960 . S
C1162 H1175 0.962 . S
C1162 H1176 0.960 . S
C1163 C1160 1.511 . S
C1163 H1177 0.961 . S
C1163 H1178 0.961 . S
C1163 H1179 0.961 . S
C1164 C1165 1.370 . S
C1164 C1166 1.363 . S
C1164 H1180 0.931 . S
C1165 C1164 1.370 . S
C1165 C1169 1.408 . S
C1166 C1164 1.363 . S
C1166 C1167 1.370 . S
C1166 C1170 1.524 . S
C1167 C1159 1.503 . S
C1167 C1166 1.370 . S
C1167 C1168 1.403 . S
C1168 C1167 1.403 . S
C1168 C1169 1.404 . S
C1168 C1171 1.539 . S
C1169 C1165 1.408 . S
C1169 C1168 1.404 . S
C1169 H1181 0.930 . S
C1170 C1166 1.524 . S
C1170 H1182 0.956 . S
C1170 H1183 0.961 . S
C1170 H1184 0.961 . S
C1171 C1168 1.539 . S
C1171 H1185 0.958 . S
C1171 H1186 0.961 . S
C1171 H1187 0.960 . S
H1172 C1156 0.931 . S
H1173 C1161 0.929 . S
H1174 C1162 0.960 . S
H1175 C1162 0.962 . S
H1176 C1162 0.960 . S
H1177 C1163 0.961 . S
H1178 C1163 0.961 . S
H1179 C1163 0.961 . S
H1180 C1164 0.931 . S
H1181 C1169 0.930 . S
H1182 C1170 0.956 . S
H1183 C1170 0.961 . S
H1184 C1170 0.961 . S
H1185 C1171 0.958 . S
H1186 C1171 0.961 . S
H1187 C1171 0.960 . S
C1188 C1189 1.391 . S
C1188 C1190 1.394 . S
C1188 H1204 0.931 . S
C1189 C1188 1.391 . S
C1189 C1193 1.376 . S
C1190 C1188 1.394 . S
C1190 C1191 1.369 . S
C1190 C1194 1.531 . S
C1191 C1190 1.369 . S
C1191 C1192 1.410 . S
C1191 C1199 1.503 . S
C1192 C1191 1.410 . S
C1192 C1193 1.392 . S
C1192 C1195 1.511 . S
C1193 C1189 1.376 . S
C1193 C1192 1.392 . S
C1193 H1205 0.929 . S
C1194 C1190 1.531 . S
C1194 H1206 0.960 . S
C1194 H1207 0.962 . S
C1194 H1208 0.960 . S
C1195 C1192 1.511 . S
C1195 H1209 0.961 . S
C1195 H1210 0.961 . S
C1195 H1211 0.961 . S
C1196 C1197 1.370 . S
C1196 C1198 1.363 . S
C1196 H1212 0.931 . S
C1197 C1196 1.370 . S
C1197 C1201 1.408 . S
C1198 C1196 1.363 . S
C1198 C1199 1.370 . S
C1198 C1202 1.524 . S
C1199 C1191 1.503 . S
C1199 C1198 1.370 . S
C1199 C1200 1.403 . S
C1200 C1199 1.403 . S
C1200 C1201 1.404 . S
C1200 C1203 1.539 . S
C1201 C1197 1.408 . S
C1201 C1200 1.404 . S
C1201 H1213 0.930 . S
C1202 C1198 1.524 . S
C1202 H1214 0.956 . S
C1202 H1215 0.961 . S
C1202 H1216 0.961 . S
C1203 C1200 1.539 . S
C1203 H1217 0.958 . S
C1203 H1218 0.961 . S
C1203 H1219 0.960 . S
H1204 C1188 0.931 . S
H1205 C1193 0.929 . S
H1206 C1194 0.960 . S
H1207 C1194 0.962 . S
H1208 C1194 0.960 . S
H1209 C1195 0.961 . S
H1210 C1195 0.961 . S
H1211 C1195 0.961 . S
H1212 C1196 0.931 . S
H1213 C1201 0.930 . S
H1214 C1202 0.956 . S
H1215 C1202 0.961 . S
H1216 C1202 0.961 . S
H1217 C1203 0.958 . S
H1218 C1203 0.961 . S
H1219 C1203 0.960 . S
C1220 C1221 1.391 . S
C1220 C1222 1.394 . S
C1220 H1236 0.931 . S
C1221 C1220 1.391 . S
C1221 C1225 1.376 . S
C1222 C1220 1.394 . S
C1222 C1223 1.369 . S
C1222 C1226 1.531 . S
C1223 C1222 1.369 . S
C1223 C1224 1.410 . S
C1223 C1231 1.503 . S
C1224 C1223 1.410 . S
C1224 C1225 1.392 . S
C1224 C1227 1.511 . S
C1225 C1221 1.376 . S
C1225 C1224 1.392 . S
C1225 H1237 0.929 . S
C1226 C1222 1.531 . S
C1226 H1238 0.960 . S
C1226 H1239 0.962 . S
C1226 H1240 0.960 . S
C1227 C1224 1.511 . S
C1227 H1241 0.961 . S
C1227 H1242 0.961 . S
C1227 H1243 0.961 . S
C1228 C1229 1.370 . S
C1228 C1230 1.363 . S
C1228 H1244 0.931 . S
C1229 C1228 1.370 . S
C1229 C1233 1.408 . S
C1230 C1228 1.363 . S
C1230 C1231 1.370 . S
C1230 C1234 1.524 . S
C1231 C1223 1.503 . S
C1231 C1230 1.370 . S
C1231 C1232 1.403 . S
C1232 C1231 1.403 . S
C1232 C1233 1.404 . S
C1232 C1235 1.539 . S
C1233 C1229 1.408 . S
C1233 C1232 1.404 . S
C1233 H1245 0.930 . S
C1234 C1230 1.524 . S
C1234 H1246 0.956 . S
C1234 H1247 0.961 . S
C1234 H1248 0.961 . S
C1235 C1232 1.539 . S
C1235 H1249 0.958 . S
C1235 H1250 0.961 . S
C1235 H1251 0.960 . S
H1236 C1220 0.931 . S
H1237 C1225 0.929 . S
H1238 C1226 0.960 . S
H1239 C1226 0.962 . S
H1240 C1226 0.960 . S
H1241 C1227 0.961 . S
H1242 C1227 0.961 . S
H1243 C1227 0.961 . S
H1244 C1228 0.931 . S
H1245 C1233 0.930 . S
H1246 C1234 0.956 . S
H1247 C1234 0.961 . S
H1248 C1234 0.961 . S
H1249 C1235 0.958 . S
H1250 C1235 0.961 . S
H1251 C1235 0.960 . S
C1252 C1253 1.391 . S
C1252 C1254 1.394 . S
C1252 H1268 0.931 . S
C1253 C1252 1.391 . S
C1253 C1257 1.376 . S
C1254 C1252 1.394 . S
C1254 C1255 1.369 . S
C1254 C1258 1.531 . S
C1255 C1254 1.369 . S
C1255 C1256 1.410 . S
C1255 C1263 1.503 . S
C1256 C1255 1.410 . S
C1256 C1257 1.392 . S
C1256 C1259 1.511 . S
C1257 C1253 1.376 . S
C1257 C1256 1.392 . S
C1257 H1269 0.929 . S
C1258 C1254 1.531 . S
C1258 H1270 0.960 . S
C1258 H1271 0.962 . S
C1258 H1272 0.960 . S
C1259 C1256 1.511 . S
C1259 H1273 0.961 . S
C1259 H1274 0.961 . S
C1259 H1275 0.961 . S
C1260 C1261 1.370 . S
C1260 C1262 1.363 . S
C1260 H1276 0.931 . S
C1261 C1260 1.370 . S
C1261 C1265 1.408 . S
C1262 C1260 1.363 . S
C1262 C1263 1.370 . S
C1262 C1266 1.524 . S
C1263 C1255 1.503 . S
C1263 C1262 1.370 . S
C1263 C1264 1.403 . S
C1264 C1263 1.403 . S
C1264 C1265 1.404 . S
C1264 C1267 1.539 . S
C1265 C1261 1.408 . S
C1265 C1264 1.404 . S
C1265 H1277 0.930 . S
C1266 C1262 1.524 . S
C1266 H1278 0.956 . S
C1266 H1279 0.961 . S
C1266 H1280 0.961 . S
C1267 C1264 1.539 . S
C1267 H1281 0.958 . S
C1267 H1282 0.961 . S
C1267 H1283 0.960 . S
H1268 C1252 0.931 . S
H1269 C1257 0.929 . S
H1270 C1258 0.960 . S
H1271 C1258 0.962 . S
H1272 C1258 0.960 . S
H1273 C1259 0.961 . S
H1274 C1259 0.961 . S
H1275 C1259 0.961 . S
H1276 C1260 0.931 . S
H1277 C1265 0.930 . S
H1278 C1266 0.956 . S
H1279 C1266 0.961 . S
H1280 C1266 0.961 . S
H1281 C1267 0.958 . S
H1282 C1267 0.961 . S
H1283 C1267 0.960 . S
C1284 C1285 1.391 . S
C1284 C1286 1.394 . S
C1284 H1300 0.931 . S
C1285 C1284 1.391 . S
C1285 C1289 1.376 . S
C1286 C1284 1.394 . S
C1286 C1287 1.369 . S
C1286 C1290 1.531 . S
C1287 C1286 1.369 . S
C1287 C1288 1.410 . S
C1287 C1295 1.503 . S
C1288 C1287 1.410 . S
C1288 C1289 1.392 . S
C1288 C1291 1.511 . S
C1289 C1285 1.376 . S
C1289 C1288 1.392 . S
C1289 H1301 0.929 . S
C1290 C1286 1.531 . S
C1290 H1302 0.960 . S
C1290 H1303 0.962 . S
C1290 H1304 0.960 . S
C1291 C1288 1.511 . S
C1291 H1305 0.961 . S
C1291 H1306 0.961 . S
C1291 H1307 0.961 . S
C1292 C1293 1.370 . S
C1292 C1294 1.363 . S
C1292 H1308 0.931 . S
C1293 C1292 1.370 . S
C1293 C1297 1.408 . S
C1294 C1292 1.363 . S
C1294 C1295 1.370 . S
C1294 C1298 1.524 . S
C1295 C1287 1.503 . S
C1295 C1294 1.370 . S
C1295 C1296 1.403 . S
C1296 C1295 1.403 . S
C1296 C1297 1.404 . S
C1296 C1299 1.539 . S
C1297 C1293 1.408 . S
C1297 C1296 1.404 . S
C1297 H1309 0.930 . S
C1298 C1294 1.524 . S
C1298 H1310 0.956 . S
C1298 H1311 0.961 . S
C1298 H1312 0.961 . S
C1299 C1296 1.539 . S
C1299 H1313 0.958 . S
C1299 H1314 0.961 . S
C1299 H1315 0.960 . S
H1300 C1284 0.931 . S
H1301 C1289 0.929 . S
H1302 C1290 0.960 . S
H1303 C1290 0.962 . S
H1304 C1290 0.960 . S
H1305 C1291 0.961 . S
H1306 C1291 0.961 . S
H1307 C1291 0.961 . S
H1308 C1292 0.931 . S
H1309 C1297 0.930 . S
H1310 C1298 0.956 . S
H1311 C1298 0.961 . S
H1312 C1298 0.961 . S
H1313 C1299 0.958 . S
H1314 C1299 0.961 . S
H1315 C1299 0.960 . S
C1316 C1317 1.391 . S
C1316 C1318 1.394 . S
C1316 H1332 0.931 . S
C1317 C1316 1.391 . S
C1317 C1321 1.376 . S
C1318 C1316 1.394 . S
C1318 C1319 1.369 . S
C1318 C1322 1.531 . S
C1319 C1318 1.369 . S
C1319 C1320 1.410 . S
C1319 C1327 1.503 . S
C1320 C1319 1.410 . S
C1320 C1321 1.392 . S
C1320 C1323 1.511 . S
C1321 C1317 1.376 . S
C1321 C1320 1.392 . S
C1321 H1333 0.929 . S
C1322 C1318 1.531 . S
C1322 H1334 0.960 . S
C1322 H1335 0.962 . S
C1322 H1336 0.960 . S
C1323 C1320 1.511 . S
C1323 H1337 0.961 . S
C1323 H1338 0.961 . S
C1323 H1339 0.961 . S
C1324 C1325 1.370 . S
C1324 C1326 1.363 . S
C1324 H1340 0.931 . S
C1325 C1324 1.370 . S
C1325 C1329 1.408 . S
C1326 C1324 1.363 . S
C1326 C1327 1.370 . S
C1326 C1330 1.524 . S
C1327 C1319 1.503 . S
C1327 C1326 1.370 . S
C1327 C1328 1.403 . S
C1328 C1327 1.403 . S
C1328 C1329 1.404 . S
C1328 C1331 1.539 . S
C1329 C1325 1.408 . S
C1329 C1328 1.404 . S
C1329 H1341 0.930 . S
C1330 C1326 1.524 . S
C1330 H1342 0.956 . S
C1330 H1343 0.961 . S
C1330 H1344 0.961 . S
C1331 C1328 1.539 . S
C1331 H1345 0.958 . S
C1331 H1346 0.961 . S
C1331 H1347 0.960 . S
H1332 C1316 0.931 . S
H1333 C1321 0.929 . S
H1334 C1322 0.960 . S
H1335 C1322 0.962 . S
H1336 C1322 0.960 . S
H1337 C1323 0.961 . S
H1338 C1323 0.961 . S
H1339 C1323 0.961 . S
H1340 C1324 0.931 . S
H1341 C1329 0.930 . S
H1342 C1330 0.956 . S
H1343 C1330 0.961 . S
H1344 C1330 0.961 . S
H1345 C1331 0.958 . S
H1346 C1331 0.961 . S
H1347 C1331 0.960 . S
C1348 C1349 1.391 . S
C1348 C1350 1.394 . S
C1348 H1364 0.931 . S
C1349 C1348 1.391 . S
C1349 C1353 1.376 . S
C1350 C1348 1.394 . S
C1350 C1351 1.369 . S
C1350 C1354 1.531 . S
C1351 C1350 1.369 . S
C1351 C1352 1.410 . S
C1351 C1359 1.503 . S
C1352 C1351 1.410 . S
C1352 C1353 1.392 . S
C1352 C1355 1.511 . S
C1353 C1349 1.376 . S
C1353 C1352 1.392 . S
C1353 H1365 0.929 . S
C1354 C1350 1.531 . S
C1354 H1366 0.960 . S
C1354 H1367 0.962 . S
C1354 H1368 0.960 . S
C1355 C1352 1.511 . S
C1355 H1369 0.961 . S
C1355 H1370 0.961 . S
C1355 H1371 0.961 . S
C1356 C1357 1.370 . S
C1356 C1358 1.363 . S
C1356 H1372 0.931 . S
C1357 C1356 1.370 . S
C1357 C1361 1.408 . S
C1358 C1356 1.363 . S
C1358 C1359 1.370 . S
C1358 C1362 1.524 . S
C1359 C1351 1.503 . S
C1359 C1358 1.370 . S
C1359 C1360 1.403 . S
C1360 C1359 1.403 . S
C1360 C1361 1.404 . S
C1360 C1363 1.539 . S
C1361 C1357 1.408 . S
C1361 C1360 1.404 . S
C1361 H1373 0.930 . S
C1362 C1358 1.524 . S
C1362 H1374 0.956 . S
C1362 H1375 0.961 . S
C1362 H1376 0.961 . S
C1363 C1360 1.539 . S
C1363 H1377 0.958 . S
C1363 H1378 0.961 . S
C1363 H1379 0.960 . S
H1364 C1348 0.931 . S
H1365 C1353 0.929 . S
H1366 C1354 0.960 . S
H1367 C1354 0.962 . S
H1368 C1354 0.960 . S
H1369 C1355 0.961 . S
H1370 C1355 0.961 . S
H1371 C1355 0.961 . S
H1372 C1356 0.931 . S
H1373 C1361 0.930 . S
H1374 C1362 0.956 . S
H1375 C1362 0.961 . S
H1376 C1362 0.961 . S
H1377 C1363 0.958 . S
H1378 C1363 0.961 . S
H1379 C1363 0.960 . S
C1380 C1381 1.391 . S
C1380 C1382 1.394 . S
C1380 H1396 0.931 . S
C1381 C1380 1.391 . S
C1381 C1385 1.376 . S
C1382 C1380 1.394 . S
C1382 C1383 1.369 . S
C1382 C1386 1.531 . S
C1383 C1382 1.369 . S
C1383 C1384 1.410 . S
C1383 C1391 1.503 . S
C1384 C1383 1.410 . S
C1384 C1385 1.392 . S
C1384 C1387 1.511 . S
C1385 C1381 1.376 . S
C1385 C1384 1.392 . S
C1385 H1397 0.929 . S
C1386 C1382 1.531 . S
C1386 H1398 0.960 . S
C1386 H1399 0.962 . S
C1386 H1400 0.960 . S
C1387 C1384 1.511 . S
C1387 H1401 0.961 . S
C1387 H1402 0.961 . S
C1387 H1403 0.961 . S
C1388 C1389 1.370 . S
C1388 C1390 1.363 . S
C1388 H1404 0.931 . S
C1389 C1388 1.370 . S
C1389 C1393 1.408 . S
C1390 C1388 1.363 . S
C1390 C1391 1.370 . S
C1390 C1394 1.524 . S
C1391 C1383 1.503 . S
C1391 C1390 1.370 . S
C1391 C1392 1.403 . S
C1392 C1391 1.403 . S
C1392 C1393 1.404 . S
C1392 C1395 1.539 . S
C1393 C1389 1.408 . S
C1393 C1392 1.404 . S
C1393 H1405 0.930 . S
C1394 C1390 1.524 . S
C1394 H1406 0.956 . S
C1394 H1407 0.961 . S
C1394 H1408 0.961 . S
C1395 C1392 1.539 . S
C1395 H1409 0.958 . S
C1395 H1410 0.961 . S
C1395 H1411 0.960 . S
H1396 C1380 0.931 . S
H1397 C1385 0.929 . S
H1398 C1386 0.960 . S
H1399 C1386 0.962 . S
H1400 C1386 0.960 . S
H1401 C1387 0.961 . S
H1402 C1387 0.961 . S
H1403 C1387 0.961 . S
H1404 C1388 0.931 . S
H1405 C1393 0.930 . S
H1406 C1394 0.956 . S
H1407 C1394 0.961 . S
H1408 C1394 0.961 . S
H1409 C1395 0.958 . S
H1410 C1395 0.961 . S
H1411 C1395 0.960 . S
C1412 C1413 1.391 . S
C1412 C1414 1.394 . S
C1412 H1428 0.931 . S
C1413 C1412 1.391 . S
C1413 C1417 1.376 . S
C1414 C1412 1.394 . S
C1414 C1415 1.369 . S
C1414 C1418 1.531 . S
C1415 C1414 1.369 . S
C1415 C1416 1.410 . S
C1415 C1423 1.503 . S
C1416 C1415 1.410 . S
C1416 C1417 1.392 . S
C1416 C1419 1.511 . S
C1417 C1413 1.376 . S
C1417 C1416 1.392 . S
C1417 H1429 0.929 . S
C1418 C1414 1.531 . S
C1418 H1430 0.960 . S
C1418 H1431 0.962 . S
C1418 H1432 0.960 . S
C1419 C1416 1.511 . S
C1419 H1433 0.961 . S
C1419 H1434 0.961 . S
C1419 H1435 0.961 . S
C1420 C1421 1.370 . S
C1420 C1422 1.363 . S
C1420 H1436 0.931 . S
C1421 C1420 1.370 . S
C1421 C1425 1.408 . S
C1422 C1420 1.363 . S
C1422 C1423 1.370 . S
C1422 C1426 1.524 . S
C1423 C1415 1.503 . S
C1423 C1422 1.370 . S
C1423 C1424 1.403 . S
C1424 C1423 1.403 . S
C1424 C1425 1.404 . S
C1424 C1427 1.539 . S
C1425 C1421 1.408 . S
C1425 C1424 1.404 . S
C1425 H1437 0.930 . S
C1426 C1422 1.524 . S
C1426 H1438 0.956 . S
C1426 H1439 0.961 . S
C1426 H1440 0.961 . S
C1427 C1424 1.539 . S
C1427 H1441 0.958 . S
C1427 H1442 0.961 . S
C1427 H1443 0.960 . S
H1428 C1412 0.931 . S
H1429 C1417 0.929 . S
H1430 C1418 0.960 . S
H1431 C1418 0.962 . S
H1432 C1418 0.960 . S
H1433 C1419 0.961 . S
H1434 C1419 0.961 . S
H1435 C1419 0.961 . S
H1436 C1420 0.931 . S
H1437 C1425 0.930 . S
H1438 C1426 0.956 . S
H1439 C1426 0.961 . S
H1440 C1426 0.961 . S
H1441 C1427 0.958 . S
H1442 C1427 0.961 . S
H1443 C1427 0.960 . S
C1444 C1445 1.391 . S
C1444 C1446 1.394 . S
C1444 H1460 0.931 . S
C1445 C1444 1.391 . S
C1445 C1449 1.376 . S
C1446 C1444 1.394 . S
C1446 C1447 1.369 . S
C1446 C1450 1.531 . S
C1447 C1446 1.369 . S
C1447 C1448 1.410 . S
C1447 C1455 1.503 . S
C1448 C1447 1.410 . S
C1448 C1449 1.392 . S
C1448 C1451 1.511 . S
C1449 C1445 1.376 . S
C1449 C1448 1.392 . S
C1449 H1461 0.929 . S
C1450 C1446 1.531 . S
C1450 H1462 0.960 . S
C1450 H1463 0.962 . S
C1450 H1464 0.960 . S
C1451 C1448 1.511 . S
C1451 H1465 0.961 . S
C1451 H1466 0.961 . S
C1451 H1467 0.961 . S
C1452 C1453 1.370 . S
C1452 C1454 1.363 . S
C1452 H1468 0.931 . S
C1453 C1452 1.370 . S
C1453 C1457 1.408 . S
C1454 C1452 1.363 . S
C1454 C1455 1.370 . S
C1454 C1458 1.524 . S
C1455 C1447 1.503 . S
C1455 C1454 1.370 . S
C1455 C1456 1.403 . S
C1456 C1455 1.403 . S
C1456 C1457 1.404 . S
C1456 C1459 1.539 . S
C1457 C1453 1.408 . S
C1457 C1456 1.404 . S
C1457 H1469 0.930 . S
C1458 C1454 1.524 . S
C1458 H1470 0.956 . S
C1458 H1471 0.961 . S
C1458 H1472 0.961 . S
C1459 C1456 1.539 . S
C1459 H1473 0.958 . S
C1459 H1474 0.961 . S
C1459 H1475 0.960 . S
H1460 C1444 0.931 . S
H1461 C1449 0.929 . S
H1462 C1450 0.960 . S
H1463 C1450 0.962 . S
H1464 C1450 0.960 . S
H1465 C1451 0.961 . S
H1466 C1451 0.961 . S
H1467 C1451 0.961 . S
H1468 C1452 0.931 . S
H1469 C1457 0.930 . S
H1470 C1458 0.956 . S
H1471 C1458 0.961 . S
H1472 C1458 0.961 . S
H1473 C1459 0.958 . S
H1474 C1459 0.961 . S
H1475 C1459 0.960 . S
C1476 C1477 1.391 . S
C1476 C1478 1.394 . S
C1476 H1492 0.931 . S
C1477 C1476 1.391 . S
C1477 C1481 1.376 . S
C1478 C1476 1.394 . S
C1478 C1479 1.369 . S
C1478 C1482 1.531 . S
C1479 C1478 1.369 . S
C1479 C1480 1.410 . S
C1479 C1487 1.503 . S
C1480 C1479 1.410 . S
C1480 C1481 1.392 . S
C1480 C1483 1.511 . S
C1481 C1477 1.376 . S
C1481 C1480 1.392 . S
C1481 H1493 0.929 . S
C1482 C1478 1.531 . S
C1482 H1494 0.960 . S
C1482 H1495 0.962 . S
C1482 H1496 0.960 . S
C1483 C1480 1.511 . S
C1483 H1497 0.961 . S
C1483 H1498 0.961 . S
C1483 H1499 0.961 . S
C1484 C1485 1.370 . S
C1484 C1486 1.363 . S
C1484 H1500 0.931 . S
C1485 C1484 1.370 . S
C1485 C1489 1.408 . S
C1486 C1484 1.363 . S
C1486 C1487 1.370 . S
C1486 C1490 1.524 . S
C1487 C1479 1.503 . S
C1487 C1486 1.370 . S
C1487 C1488 1.403 . S
C1488 C1487 1.403 . S
C1488 C1489 1.404 . S
C1488 C1491 1.539 . S
C1489 C1485 1.408 . S
C1489 C1488 1.404 . S
C1489 H1501 0.930 . S
C1490 C1486 1.524 . S
C1490 H1502 0.956 . S
C1490 H1503 0.961 . S
C1490 H1504 0.961 . S
C1491 C1488 1.539 . S
C1491 H1505 0.958 . S
C1491 H1506 0.961 . S
C1491 H1507 0.960 . S
H1492 C1476 0.931 . S
H1493 C1481 0.929 . S
H1494 C1482 0.960 . S
H1495 C1482 0.962 . S
H1496 C1482 0.960 . S
H1497 C1483 0.961 . S
H1498 C1483 0.961 . S
H1499 C1483 0.961 . S
H1500 C1484 0.931 . S
H1501 C1489 0.930 . S
H1502 C1490 0.956 . S
H1503 C1490 0.961 . S
H1504 C1490 0.961 . S
H1505 C1491 0.958 . S
H1506 C1491 0.961 . S
H1507 C1491 0.960 . S
C1508 C1509 1.391 . S
C1508 C1510 1.394 . S
C1508 H1524 0.931 . S
C1509 C1508 1.391 . S
C1509 C1513 1.376 . S
C1510 C1508 1.394 . S
C1510 C1511 1.369 . S
C1510 C1514 1.531 . S
C1511 C1510 1.369 . S
C1511 C1512 1.410 . S
C1511 C1519 1.503 . S
C1512 C1511 1.410 . S
C1512 C1513 1.392 . S
C1512 C1515 1.511 . S
C1513 C1509 1.376 . S
C1513 C1512 1.392 . S
C1513 H1525 0.929 . S
C1514 C1510 1.531 . S
C1514 H1526 0.960 . S
C1514 H1527 0.962 . S
C1514 H1528 0.960 . S
C1515 C1512 1.511 . S
C1515 H1529 0.961 . S
C1515 H1530 0.961 . S
C1515 H1531 0.961 . S
C1516 C1517 1.370 . S
C1516 C1518 1.363 . S
C1516 H1532 0.931 . S
C1517 C1516 1.370 . S
C1517 C1521 1.408 . S
C1518 C1516 1.363 . S
C1518 C1519 1.370 . S
C1518 C1522 1.524 . S
C1519 C1511 1.503 . S
C1519 C1518 1.370 . S
C1519 C1520 1.403 . S
C1520 C1519 1.403 . S
C1520 C1521 1.404 . S
C1520 C1523 1.539 . S
C1521 C1517 1.408 . S
C1521 C1520 1.404 . S
C1521 H1533 0.930 . S
C1522 C1518 1.524 . S
C1522 H1534 0.956 . S
C1522 H1535 0.961 . S
C1522 H1536 0.961 . S
C1523 C1520 1.539 . S
C1523 H1537 0.958 . S
C1523 H1538 0.961 . S
C1523 H1539 0.960 . S
H1524 C1508 0.931 . S
H1525 C1513 0.929 . S
H1526 C1514 0.960 . S
H1527 C1514 0.962 . S
H1528 C1514 0.960 . S
H1529 C1515 0.961 . S
H1530 C1515 0.961 . S
H1531 C1515 0.961 . S
H1532 C1516 0.931 . S
H1533 C1521 0.930 . S
H1534 C1522 0.956 . S
H1535 C1522 0.961 . S
H1536 C1522 0.961 . S
H1537 C1523 0.958 . S
H1538 C1523 0.961 . S
H1539 C1523 0.960 . S
C1540 C1541 1.391 . S
C1540 C1542 1.394 . S
C1540 H1556 0.931 . S
C1541 C1540 1.391 . S
C1541 C1545 1.376 . S
C1542 C1540 1.394 . S
C1542 C1543 1.369 . S
C1542 C1546 1.531 . S
C1543 C1542 1.369 . S
C1543 C1544 1.410 . S
C1543 C1551 1.503 . S
C1544 C1543 1.410 . S
C1544 C1545 1.392 . S
C1544 C1547 1.511 . S
C1545 C1541 1.376 . S
C1545 C1544 1.392 . S
C1545 H1557 0.929 . S
C1546 C1542 1.531 . S
C1546 H1558 0.960 . S
C1546 H1559 0.962 . S
C1546 H1560 0.960 . S
C1547 C1544 1.511 . S
C1547 H1561 0.961 . S
C1547 H1562 0.961 . S
C1547 H1563 0.961 . S
C1548 C1549 1.370 . S
C1548 C1550 1.363 . S
C1548 H1564 0.931 . S
C1549 C1548 1.370 . S
C1549 C1553 1.408 . S
C1550 C1548 1.363 . S
C1550 C1551 1.370 . S
C1550 C1554 1.524 . S
C1551 C1543 1.503 . S
C1551 C1550 1.370 . S
C1551 C1552 1.403 . S
C1552 C1551 1.403 . S
C1552 C1553 1.404 . S
C1552 C1555 1.539 . S
C1553 C1549 1.408 . S
C1553 C1552 1.404 . S
C1553 H1565 0.930 . S
C1554 C1550 1.524 . S
C1554 H1566 0.956 . S
C1554 H1567 0.961 . S
C1554 H1568 0.961 . S
C1555 C1552 1.539 . S
C1555 H1569 0.958 . S
C1555 H1570 0.961 . S
C1555 H1571 0.960 . S
H1556 C1540 0.931 . S
H1557 C1545 0.929 . S
H1558 C1546 0.960 . S
H1559 C1546 0.962 . S
H1560 C1546 0.960 . S
H1561 C1547 0.961 . S
H1562 C1547 0.961 . S
H1563 C1547 0.961 . S
H1564 C1548 0.931 . S
H1565 C1553 0.930 . S
H1566 C1554 0.956 . S
H1567 C1554 0.961 . S
H1568 C1554 0.961 . S
H1569 C1555 0.958 . S
H1570 C1555 0.961 . S
H1571 C1555 0.960 . S
C1572 C1573 1.391 . S
C1572 C1574 1.394 . S
C1572 H1588 0.931 . S
C1573 C1572 1.391 . S
C1573 C1577 1.376 . S
C1574 C1572 1.394 . S
C1574 C1575 1.369 . S
C1574 C1578 1.531 . S
C1575 C1574 1.369 . S
C1575 C1576 1.410 . S
C1575 C1583 1.503 . S
C1576 C1575 1.410 . S
C1576 C1577 1.392 . S
C1576 C1579 1.511 . S
C1577 C1573 1.376 . S
C1577 C1576 1.392 . S
C1577 H1589 0.929 . S
C1578 C1574 1.531 . S
C1578 H1590 0.960 . S
C1578 H1591 0.962 . S
C1578 H1592 0.960 . S
C1579 C1576 1.511 . S
C1579 H1593 0.961 . S
C1579 H1594 0.961 . S
C1579 H1595 0.961 . S
C1580 C1581 1.370 . S
C1580 C1582 1.363 . S
C1580 H1596 0.931 . S
C1581 C1580 1.370 . S
C1581 C1585 1.408 . S
C1582 C1580 1.363 . S
C1582 C1583 1.370 . S
C1582 C1586 1.524 . S
C1583 C1575 1.503 . S
C1583 C1582 1.370 . S
C1583 C1584 1.403 . S
C1584 C1583 1.403 . S
C1584 C1585 1.404 . S
C1584 C1587 1.539 . S
C1585 C1581 1.408 . S
C1585 C1584 1.404 . S
C1585 H1597 0.930 . S
C1586 C1582 1.524 . S
C1586 H1598 0.956 . S
C1586 H1599 0.961 . S
C1586 H1600 0.961 . S
C1587 C1584 1.539 . S
C1587 H1601 0.958 . S
C1587 H1602 0.961 . S
C1587 H1603 0.960 . S
H1588 C1572 0.931 . S
H1589 C1577 0.929 . S
H1590 C1578 0.960 . S
H1591 C1578 0.962 . S
H1592 C1578 0.960 . S
H1593 C1579 0.961 . S
H1594 C1579 0.961 . S
H1595 C1579 0.961 . S
H1596 C1580 0.931 . S
H1597 C1585 0.930 . S
H1598 C1586 0.956 . S
H1599 C1586 0.961 . S
H1600 C1586 0.961 . S
H1601 C1587 0.958 . S
H1602 C1587 0.961 . S
H1603 C1587 0.960 . S
C1604 C1605 1.391 . S
C1604 C1606 1.394 . S
C1604 H1620 0.931 . S
C1605 C1604 1.391 . S
C1605 C1609 1.376 . S
C1606 C1604 1.394 . S
C1606 C1607 1.369 . S
C1606 C1610 1.531 . S
C1607 C1606 1.369 . S
C1607 C1608 1.410 . S
C1607 C1615 1.503 . S
C1608 C1607 1.410 . S
C1608 C1609 1.392 . S
C1608 C1611 1.511 . S
C1609 C1605 1.376 . S
C1609 C1608 1.392 . S
C1609 H1621 0.929 . S
C1610 C1606 1.531 . S
C1610 H1622 0.960 . S
C1610 H1623 0.962 . S
C1610 H1624 0.960 . S
C1611 C1608 1.511 . S
C1611 H1625 0.961 . S
C1611 H1626 0.961 . S
C1611 H1627 0.961 . S
C1612 C1613 1.370 . S
C1612 C1614 1.363 . S
C1612 H1628 0.931 . S
C1613 C1612 1.370 . S
C1613 C1617 1.408 . S
C1614 C1612 1.363 . S
C1614 C1615 1.370 . S
C1614 C1618 1.524 . S
C1615 C1607 1.503 . S
C1615 C1614 1.370 . S
C1615 C1616 1.403 . S
C1616 C1615 1.403 . S
C1616 C1617 1.404 . S
C1616 C1619 1.539 . S
C1617 C1613 1.408 . S
C1617 C1616 1.404 . S
C1617 H1629 0.930 . S
C1618 C1614 1.524 . S
C1618 H1630 0.956 . S
C1618 H1631 0.961 . S
C1618 H1632 0.961 . S
C1619 C1616 1.539 . S
C1619 H1633 0.958 . S
C1619 H1634 0.961 . S
C1619 H1635 0.960 . S
H1620 C1604 0.931 . S
H1621 C1609 0.929 . S
H1622 C1610 0.960 . S
H1623 C1610 0.962 . S
H1624 C1610 0.960 . S
H1625 C1611 0.961 . S
H1626 C1611 0.961 . S
H1627 C1611 0.961 . S
H1628 C1612 0.931 . S
H1629 C1617 0.930 . S
H1630 C1618 0.956 . S
H1631 C1618 0.961 . S
H1632 C1618 0.961 . S
H1633 C1619 0.958 . S
H1634 C1619 0.961 . S
H1635 C1619 0.960 . S
C1636 C1637 1.391 . S
C1636 C1638 1.394 . S
C1636 H1652 0.931 . S
C1637 C1636 1.391 . S
C1637 C1641 1.376 . S
C1638 C1636 1.394 . S
C1638 C1639 1.369 . S
C1638 C1642 1.531 . S
C1639 C1638 1.369 . S
C1639 C1640 1.410 . S
C1639 C1647 1.503 . S
C1640 C1639 1.410 . S
C1640 C1641 1.392 . S
C1640 C1643 1.511 . S
C1641 C1637 1.376 . S
C1641 C1640 1.392 . S
C1641 H1653 0.929 . S
C1642 C1638 1.531 . S
C1642 H1654 0.960 . S
C1642 H1655 0.962 . S
C1642 H1656 0.960 . S
C1643 C1640 1.511 . S
C1643 H1657 0.961 . S
C1643 H1658 0.961 . S
C1643 H1659 0.961 . S
C1644 C1645 1.370 . S
C1644 C1646 1.363 . S
C1644 H1660 0.931 . S
C1645 C1644 1.370 . S
C1645 C1649 1.408 . S
C1646 C1644 1.363 . S
C1646 C1647 1.370 . S
C1646 C1650 1.524 . S
C1647 C1639 1.503 . S
C1647 C1646 1.370 . S
C1647 C1648 1.403 . S
C1648 C1647 1.403 . S
C1648 C1649 1.404 . S
C1648 C1651 1.539 . S
C1649 C1645 1.408 . S
C1649 C1648 1.404 . S
C1649 H1661 0.930 . S
C1650 C1646 1.524 . S
C1650 H1662 0.956 . S
C1650 H1663 0.961 . S
C1650 H1664 0.961 . S
C1651 C1648 1.539 . S
C1651 H1665 0.958 . S
C1651 H1666 0.961 . S
C1651 H1667 0.960 . S
H1652 C1636 0.931 . S
H1653 C1641 0.929 . S
H1654 C1642 0.960 . S
H1655 C1642 0.962 . S
H1656 C1642 0.960 . S
H1657 C1643 0.961 . S
H1658 C1643 0.961 . S
H1659 C1643 0.961 . S
H1660 C1644 0.931 . S
H1661 C1649 0.930 . S
H1662 C1650 0.956 . S
H1663 C1650 0.961 . S
H1664 C1650 0.961 . S
H1665 C1651 0.958 . S
H1666 C1651 0.961 . S
H1667 C1651 0.960 . S
C1668 C1669 1.391 . S
C1668 C1670 1.394 . S
C1668 H1684 0.931 . S
C1669 C1668 1.391 . S
C1669 C1673 1.376 . S
C1670 C1668 1.394 . S
C1670 C1671 1.369 . S
C1670 C1674 1.531 . S
C1671 C1670 1.369 . S
C1671 C1672 1.410 . S
C1671 C1679 1.503 . S
C1672 C1671 1.410 . S
C1672 C1673 1.392 . S
C1672 C1675 1.511 . S
C1673 C1669 1.376 . S
C1673 C1672 1.392 . S
C1673 H1685 0.929 . S
C1674 C1670 1.531 . S
C1674 H1686 0.960 . S
C1674 H1687 0.962 . S
C1674 H1688 0.960 . S
C1675 C1672 1.511 . S
C1675 H1689 0.961 . S
C1675 H1690 0.961 . S
C1675 H1691 0.961 . S
C1676 C1677 1.370 . S
C1676 C1678 1.363 . S
C1676 H1692 0.931 . S
C1677 C1676 1.370 . S
C1677 C1681 1.408 . S
C1678 C1676 1.363 . S
C1678 C1679 1.370 . S
C1678 C1682 1.524 . S
C1679 C1671 1.503 . S
C1679 C1678 1.370 . S
C1679 C1680 1.403 . S
C1680 C1679 1.403 . S
C1680 C1681 1.404 . S
C1680 C1683 1.539 . S
C1681 C1677 1.408 . S
C1681 C1680 1.404 . S
C1681 H1693 0.930 . S
C1682 C1678 1.524 . S
C1682 H1694 0.956 . S
C1682 H1695 0.961 . S
C1682 H1696 0.961 . S
C1683 C1680 1.539 . S
C1683 H1697 0.958 . S
C1683 H1698 0.961 . S
C1683 H1699 0.960 . S
H1684 C1668 0.931 . S
H1685 C1673 0.929 . S
H1686 C1674 0.960 . S
H1687 C1674 0.962 . S
H1688 C1674 0.960 . S
H1689 C1675 0.961 . S
H1690 C1675 0.961 . S
H1691 C1675 0.961 . S
H1692 C1676 0.931 . S
H1693 C1681 0.930 . S
H1694 C1682 0.956 . S
H1695 C1682 0.961 . S
H1696 C1682 0.961 . S
H1697 C1683 0.958 . S
H1698 C1683 0.961 . S
H1699 C1683 0.960 . S
C1700 C1701 1.391 . S
C1700 C1702 1.394 . S
C1700 H1716 0.931 . S
C1701 C1700 1.391 . S
C1701 C1705 1.376 . S
C1702 C1700 1.394 . S
C1702 C1703 1.369 . S
C1702 C1706 1.531 . S
C1703 C1702 1.369 . S
C1703 C1704 1.410 . S
C1703 C1711 1.503 . S
C1704 C1703 1.410 . S
C1704 C1705 1.392 . S
C1704 C1707 1.511 . S
C1705 C1701 1.376 . S
C1705 C1704 1.392 . S
C1705 H1717 0.929 . S
C1706 C1702 1.531 . S
C1706 H1718 0.960 . S
C1706 H1719 0.962 . S
C1706 H1720 0.960 . S
C1707 C1704 1.511 . S
C1707 H1721 0.961 . S
C1707 H1722 0.961 . S
C1707 H1723 0.961 . S
C1708 C1709 1.370 . S
C1708 C1710 1.363 . S
C1708 H1724 0.931 . S
C1709 C1708 1.370 . S
C1709 C1713 1.408 . S
C1710 C1708 1.363 . S
C1710 C1711 1.370 . S
C1710 C1714 1.524 . S
C1711 C1703 1.503 . S
C1711 C1710 1.370 . S
C1711 C1712 1.403 . S
C1712 C1711 1.403 . S
C1712 C1713 1.404 . S
C1712 C1715 1.539 . S
C1713 C1709 1.408 . S
C1713 C1712 1.404 . S
C1713 H1725 0.930 . S
C1714 C1710 1.524 . S
C1714 H1726 0.956 . S
C1714 H1727 0.961 . S
C1714 H1728 0.961 . S
C1715 C1712 1.539 . S
C1715 H1729 0.958 . S
C1715 H1730 0.961 . S
C1715 H1731 0.960 . S
H1716 C1700 0.931 . S
H1717 C1705 0.929 . S
H1718 C1706 0.960 . S
H1719 C1706 0.962 . S
H1720 C1706 0.960 . S
H1721 C1707 0.961 . S
H1722 C1707 0.961 . S
H1723 C1707 0.961 . S
H1724 C1708 0.931 . S
H1725 C1713 0.930 . S
H1726 C1714 0.956 . S
H1727 C1714 0.961 . S
H1728 C1714 0.961 . S
H1729 C1715 0.958 . S
H1730 C1715 0.961 . S
H1731 C1715 0.960 . S
C1732 C1733 1.391 . S
C1732 C1734 1.394 . S
C1732 H1748 0.931 . S
C1733 C1732 1.391 . S
C1733 C1737 1.376 . S
C1734 C1732 1.394 . S
C1734 C1735 1.369 . S
C1734 C1738 1.531 . S
C1735 C1734 1.369 . S
C1735 C1736 1.410 . S
C1735 C1743 1.503 . S
C1736 C1735 1.410 . S
C1736 C1737 1.392 . S
C1736 C1739 1.511 . S
C1737 C1733 1.376 . S
C1737 C1736 1.392 . S
C1737 H1749 0.929 . S
C1738 C1734 1.531 . S
C1738 H1750 0.960 . S
C1738 H1751 0.962 . S
C1738 H1752 0.960 . S
C1739 C1736 1.511 . S
C1739 H1753 0.961 . S
C1739 H1754 0.961 . S
C1739 H1755 0.961 . S
C1740 C1741 1.370 . S
C1740 C1742 1.363 . S
C1740 H1756 0.931 . S
C1741 C1740 1.370 . S
C1741 C1745 1.408 . S
C1742 C1740 1.363 . S
C1742 C1743 1.370 . S
C1742 C1746 1.524 . S
C1743 C1735 1.503 . S
C1743 C1742 1.370 . S
C1743 C1744 1.403 . S
C1744 C1743 1.403 . S
C1744 C1745 1.404 . S
C1744 C1747 1.539 . S
C1745 C1741 1.408 . S
C1745 C1744 1.404 . S
C1745 H1757 0.930 . S
C1746 C1742 1.524 . S
C1746 H1758 0.956 . S
C1746 H1759 0.961 . S
C1746 H1760 0.961 . S
C1747 C1744 1.539 . S
C1747 H1761 0.958 . S
C1747 H1762 0.961 . S
C1747 H1763 0.960 . S
H1748 C1732 0.931 . S
H1749 C1737 0.929 . S
H1750 C1738 0.960 . S
H1751 C1738 0.962 . S
H1752 C1738 0.960 . S
H1753 C1739 0.961 . S
H1754 C1739 0.961 . S
H1755 C1739 0.961 . S
H1756 C1740 0.931 . S
H1757 C1745 0.930 . S
H1758 C1746 0.956 . S
H1759 C1746 0.961 . S
H1760 C1746 0.961 . S
H1761 C1747 0.958 . S
H1762 C1747 0.961 . S
H1763 C1747 0.960 . S
C1764 C1765 1.391 . S
C1764 C1766 1.394 . S
C1764 H1780 0.931 . S
C1765 C1764 1.391 . S
C1765 C1769 1.376 . S
C1766 C1764 1.394 . S
C1766 C1767 1.369 . S
C1766 C1770 1.531 . S
C1767 C1766 1.369 . S
C1767 C1768 1.410 . S
C1767 C1775 1.503 . S
C1768 C1767 1.410 . S
C1768 C1769 1.392 . S
C1768 C1771 1.511 . S
C1769 C1765 1.376 . S
C1769 C1768 1.392 . S
C1769 H1781 0.929 . S
C1770 C1766 1.531 . S
C1770 H1782 0.960 . S
C1770 H1783 0.962 . S
C1770 H1784 0.960 . S
C1771 C1768 1.511 . S
C1771 H1785 0.961 . S
C1771 H1786 0.961 . S
C1771 H1787 0.961 . S
C1772 C1773 1.370 . S
C1772 C1774 1.363 . S
C1772 H1788 0.931 . S
C1773 C1772 1.370 . S
C1773 C1777 1.408 . S
C1774 C1772 1.363 . S
C1774 C1775 1.370 . S
C1774 C1778 1.524 . S
C1775 C1767 1.503 . S
C1775 C1774 1.370 . S
C1775 C1776 1.403 . S
C1776 C1775 1.403 . S
C1776 C1777 1.404 . S
C1776 C1779 1.539 . S
C1777 C1773 1.408 . S
C1777 C1776 1.404 . S
C1777 H1789 0.930 . S
C1778 C1774 1.524 . S
C1778 H1790 0.956 . S
C1778 H1791 0.961 . S
C1778 H1792 0.961 . S
C1779 C1776 1.539 . S
C1779 H1793 0.958 . S
C1779 H1794 0.961 . S
C1779 H1795 0.960 . S
H1780 C1764 0.931 . S
H1781 C1769 0.929 . S
H1782 C1770 0.960 . S
H1783 C1770 0.962 . S
H1784 C1770 0.960 . S
H1785 C1771 0.961 . S
H1786 C1771 0.961 . S
H1787 C1771 0.961 . S
H1788 C1772 0.931 . S
H1789 C1777 0.930 . S
H1790 C1778 0.956 . S
H1791 C1778 0.961 . S
H1792 C1778 0.961 . S
H1793 C1779 0.958 . S
H1794 C1779 0.961 . S
H1795 C1779 0.960 . S
C1796 C1797 1.391 . S
C1796 C1798 1.394 . S
C1796 H1812 0.931 . S
C1797 C1796 1.391 . S
C1797 C1801 1.376 . S
C1798 C1796 1.394 . S
C1798 C1799 1.369 . S
C1798 C1802 1.531 . S
C1799 C1798 1.369 . S
C1799 C1800 1.410 . S
C1799 C1807 1.503 . S
C1800 C1799 1.410 . S
C1800 C1801 1.392 . S
C1800 C1803 1.511 . S
C1801 C1797 1.376 . S
C1801 C1800 1.392 . S
C1801 H1813 0.929 . S
C1802 C1798 1.531 . S
C1802 H1814 0.960 . S
C1802 H1815 0.962 . S
C1802 H1816 0.960 . S
C1803 C1800 1.511 . S
C1803 H1817 0.961 . S
C1803 H1818 0.961 . S
C1803 H1819 0.961 . S
C1804 C1805 1.370 . S
C1804 C1806 1.363 . S
C1804 H1820 0.931 . S
C1805 C1804 1.370 . S
C1805 C1809 1.408 . S
C1806 C1804 1.363 . S
C1806 C1807 1.370 . S
C1806 C1810 1.524 . S
C1807 C1799 1.503 . S
C1807 C1806 1.370 . S
C1807 C1808 1.403 . S
C1808 C1807 1.403 . S
C1808 C1809 1.404 . S
C1808 C1811 1.539 . S
C1809 C1805 1.408 . S
C1809 C1808 1.404 . S
C1809 H1821 0.930 . S
C1810 C1806 1.524 . S
C1810 H1822 0.956 . S
C1810 H1823 0.961 . S
C1810 H1824 0.961 . S
C1811 C1808 1.539 . S
C1811 H1825 0.958 . S
C1811 H1826 0.961 . S
C1811 H1827 0.960 . S
H1812 C1796 0.931 . S
H1813 C1801 0.929 . S
H1814 C1802 0.960 . S
H1815 C1802 0.962 . S
H1816 C1802 0.960 . S
H1817 C1803 0.961 . S
H1818 C1803 0.961 . S
H1819 C1803 0.961 . S
H1820 C1804 0.931 . S
H1821 C1809 0.930 . S
H1822 C1810 0.956 . S
H1823 C1810 0.961 . S
H1824 C1810 0.961 . S
H1825 C1811 0.958 . S
H1826 C1811 0.961 . S
H1827 C1811 0.960 . S
C1828 C1829 1.391 . S
C1828 C1830 1.394 . S
C1828 H1844 0.931 . S
C1829 C1828 1.391 . S
C1829 C1833 1.376 . S
C1830 C1828 1.394 . S
C1830 C1831 1.369 . S
C1830 C1834 1.531 . S
C1831 C1830 1.369 . S
C1831 C1832 1.410 . S
C1831 C1839 1.503 . S
C1832 C1831 1.410 . S
C1832 C1833 1.392 . S
C1832 C1835 1.511 . S
C1833 C1829 1.376 . S
C1833 C1832 1.392 . S
C1833 H1845 0.929 . S
C1834 C1830 1.531 . S
C1834 H1846 0.960 . S
C1834 H1847 0.962 . S
C1834 H1848 0.960 1_554 S
C1835 C1832 1.511 . S
C1835 H1849 0.961 . S
C1835 H1850 0.961 . S
C1835 H1851 0.961 . S
C1836 C1837 1.370 . S
C1836 C1838 1.363 . S
C1836 H1852 0.931 . S
C1837 C1836 1.370 . S
C1837 C1841 1.408 . S
C1838 C1836 1.363 . S
C1838 C1839 1.370 . S
C1838 C1842 1.524 . S
C1839 C1831 1.503 . S
C1839 C1838 1.370 . S
C1839 C1840 1.403 . S
C1840 C1839 1.403 . S
C1840 C1841 1.404 . S
C1840 C1843 1.539 . S
C1841 C1837 1.408 . S
C1841 C1840 1.404 . S
C1841 H1853 0.930 . S
C1842 C1838 1.524 . S
C1842 H1854 0.956 . S
C1842 H1855 0.961 . S
C1842 H1856 0.961 . S
C1843 C1840 1.539 . S
C1843 H1857 0.958 . S
C1843 H1858 0.961 . S
C1843 H1859 0.960 . S
H1844 C1828 0.931 . S
H1845 C1833 0.929 . S
H1846 C1834 0.960 . S
H1847 C1834 0.962 . S
H1848 C1834 0.960 1_556 S
H1849 C1835 0.961 . S
H1850 C1835 0.961 . S
H1851 C1835 0.961 . S
H1852 C1836 0.931 . S
H1853 C1841 0.930 . S
H1854 C1842 0.956 . S
H1855 C1842 0.961 . S
H1856 C1842 0.961 . S
H1857 C1843 0.958 . S
H1858 C1843 0.961 . S
H1859 C1843 0.960 . S
C1860 C1861 1.391 . S
C1860 C1862 1.394 . S
C1860 H1876 0.931 . S
C1861 C1860 1.391 . S
C1861 C1865 1.376 1_556 S
C1862 C1860 1.394 . S
C1862 C1863 1.369 . S
C1862 C1866 1.531 . S
C1863 C1862 1.369 . S
C1863 C1864 1.410 . S
C1863 C1871 1.503 . S
C1864 C1863 1.410 . S
C1864 C1865 1.392 1_556 S
C1864 C1867 1.511 1_556 S
C1865 C1861 1.376 1_554 S
C1865 C1864 1.392 1_554 S
C1865 H1877 0.929 . S
C1866 C1862 1.531 . S
C1866 H1878 0.960 . S
C1866 H1879 0.962 . S
C1866 H1880 0.960 . S
C1867 C1864 1.511 1_554 S
C1867 H1881 0.961 . S
C1867 H1882 0.961 . S
C1867 H1883 0.961 . S
C1868 C1869 1.370 . S
C1868 C1870 1.363 . S
C1868 H1884 0.931 . S
C1869 C1868 1.370 . S
C1869 C1873 1.408 . S
C1870 C1868 1.363 . S
C1870 C1871 1.370 . S
C1870 C1874 1.524 . S
C1871 C1863 1.503 . S
C1871 C1870 1.370 . S
C1871 C1872 1.403 . S
C1872 C1871 1.403 . S
C1872 C1873 1.404 . S
C1872 C1875 1.539 . S
C1873 C1869 1.408 . S
C1873 C1872 1.404 . S
C1873 H1885 0.930 . S
C1874 C1870 1.524 . S
C1874 H1886 0.956 . S
C1874 H1887 0.961 . S
C1874 H1888 0.961 . S
C1875 C1872 1.539 . S
C1875 H1889 0.958 . S
C1875 H1890 0.961 . S
C1875 H1891 0.960 . S
H1876 C1860 0.931 . S
H1877 C1865 0.929 . S
H1878 C1866 0.960 . S
H1879 C1866 0.962 . S
H1880 C1866 0.960 . S
H1881 C1867 0.961 . S
H1882 C1867 0.961 . S
H1883 C1867 0.961 . S
H1884 C1868 0.931 . S
H1885 C1873 0.930 . S
H1886 C1874 0.956 . S
H1887 C1874 0.961 . S
H1888 C1874 0.961 . S
H1889 C1875 0.958 . S
H1890 C1875 0.961 . S
H1891 C1875 0.960 . S
C1892 C1893 1.390 1_554 S
C1892 C1894 1.393 1_554 S
C1892 H1908 0.932 . S
C1893 C1892 1.390 1_556 S
C1893 C1897 1.376 . S
C1894 C1892 1.393 1_556 S
C1894 C1895 1.369 . S
C1894 C1898 1.531 1_556 S
C1895 C1894 1.369 . S
C1895 C1896 1.410 . S
C1895 C1903 1.503 . S
C1896 C1895 1.410 . S
C1896 C1897 1.392 . S
C1896 C1899 1.511 . S
C1897 C1893 1.376 . S
C1897 C1896 1.392 . S
C1897 H1909 0.929 . S
C1898 C1894 1.531 1_554 S
C1898 H1910 0.960 1_554 S
C1898 H1911 0.962 . S
C1898 H1912 0.960 . S
C1899 C1896 1.511 . S
C1899 H1913 0.961 . S
C1899 H1914 0.961 . S
C1899 H1915 0.961 . S
C1900 C1901 1.370 . S
C1900 C1902 1.363 . S
C1900 H1916 0.931 . S
C1901 C1900 1.370 . S
C1901 C1905 1.408 . S
C1902 C1900 1.363 . S
C1902 C1903 1.370 . S
C1902 C1906 1.524 . S
C1903 C1895 1.503 . S
C1903 C1902 1.370 . S
C1903 C1904 1.403 . S
C1904 C1903 1.403 . S
C1904 C1905 1.404 . S
C1904 C1907 1.539 . S
C1905 C1901 1.408 . S
C1905 C1904 1.404 . S
C1905 H1917 0.930 . S
C1906 C1902 1.524 . S
C1906 H1918 0.956 1_556 S
C1906 H1919 0.961 . S
C1906 H1920 0.961 . S
C1907 C1904 1.539 . S
C1907 H1921 0.958 . S
C1907 H1922 0.961 . S
C1907 H1923 0.960 . S
H1908 C1892 0.932 . S
H1909 C1897 0.929 . S
H1910 C1898 0.960 1_556 S
H1911 C1898 0.962 . S
H1912 C1898 0.960 . S
H1913 C1899 0.961 . S
H1914 C1899 0.961 . S
H1915 C1899 0.961 . S
H1916 C1900 0.931 . S
H1917 C1905 0.930 . S
H1918 C1906 0.956 1_554 S
H1919 C1906 0.961 . S
H1920 C1906 0.961 . S
H1921 C1907 0.958 . S
H1922 C1907 0.961 . S
H1923 C1907 0.960 . S
C1924 C1925 1.391 . S
C1924 C1926 1.394 . S
C1924 H1940 0.931 . S
C1925 C1924 1.391 . S
C1925 C1929 1.376 . S
C1926 C1924 1.394 . S
C1926 C1927 1.369 . S
C1926 C1930 1.531 . S
C1927 C1926 1.369 . S
C1927 C1928 1.410 . S
C1927 C1935 1.503 . S
C1928 C1927 1.410 . S
C1928 C1929 1.392 . S
C1928 C1931 1.511 . S
C1929 C1925 1.376 . S
C1929 C1928 1.392 . S
C1929 H1941 0.929 . S
C1930 C1926 1.531 . S
C1930 H1942 0.960 . S
C1930 H1943 0.962 . S
C1930 H1944 0.960 . S
C1931 C1928 1.511 . S
C1931 H1945 0.961 . S
C1931 H1946 0.961 . S
C1931 H1947 0.961 . S
C1932 C1933 1.370 . S
C1932 C1934 1.363 . S
C1932 H1948 0.931 . S
C1933 C1932 1.370 . S
C1933 C1937 1.408 . S
C1934 C1932 1.363 . S
C1934 C1935 1.370 . S
C1934 C1938 1.524 1_556 S
C1935 C1927 1.503 . S
C1935 C1934 1.370 . S
C1935 C1936 1.403 . S
C1936 C1935 1.403 . S
C1936 C1937 1.404 . S
C1936 C1939 1.539 . S
C1937 C1933 1.408 . S
C1937 C1936 1.404 . S
C1937 H1949 0.930 . S
C1938 C1934 1.524 1_554 S
C1938 H1950 0.956 . S
C1938 H1951 0.961 . S
C1938 H1952 0.961 . S
C1939 C1936 1.539 . S
C1939 H1953 0.958 . S
C1939 H1954 0.961 . S
C1939 H1955 0.960 . S
H1940 C1924 0.931 . S
H1941 C1929 0.929 . S
H1942 C1930 0.960 . S
H1943 C1930 0.962 . S
H1944 C1930 0.960 . S
H1945 C1931 0.961 . S
H1946 C1931 0.961 . S
H1947 C1931 0.961 . S
H1948 C1932 0.931 . S
H1949 C1937 0.930 . S
H1950 C1938 0.956 . S
H1951 C1938 0.961 . S
H1952 C1938 0.961 . S
H1953 C1939 0.958 . S
H1954 C1939 0.961 . S
H1955 C1939 0.960 . S
C1956 C1957 1.391 . S
C1956 C1958 1.394 . S
C1956 H1972 0.931 . S
C1957 C1956 1.391 . S
C1957 C1961 1.376 . S
C1958 C1956 1.394 . S
C1958 C1959 1.369 . S
C1958 C1962 1.531 . S
C1959 C1958 1.369 . S
C1959 C1960 1.410 . S
C1959 C1967 1.503 . S
C1960 C1959 1.410 . S
C1960 C1961 1.392 . S
C1960 C1963 1.511 1_556 S
C1961 C1957 1.376 . S
C1961 C1960 1.392 . S
C1961 H1973 0.929 1_556 S
C1962 C1958 1.531 . S
C1962 H1974 0.960 . S
C1962 H1975 0.962 . S
C1962 H1976 0.960 . S
C1963 C1960 1.511 1_554 S
C1963 H1977 0.961 . S
C1963 H1978 0.961 1_554 S
C1963 H1979 0.961 1_554 S
C1964 C1965 1.370 . S
C1964 C1966 1.363 . S
C1964 H1980 0.931 . S
C1965 C1964 1.370 . S
C1965 C1969 1.408 . S
C1966 C1964 1.363 . S
C1966 C1967 1.370 . S
C1966 C1970 1.524 . S
C1967 C1959 1.503 . S
C1967 C1966 1.370 . S
C1967 C1968 1.403 . S
C1968 C1967 1.403 . S
C1968 C1969 1.404 . S
C1968 C1971 1.539 . S
C1969 C1965 1.408 . S
C1969 C1968 1.404 . S
C1969 H1981 0.930 . S
C1970 C1966 1.524 . S
C1970 H1982 0.956 . S
C1970 H1983 0.961 . S
C1970 H1984 0.961 . S
C1971 C1968 1.539 . S
C1971 H1985 0.958 . S
C1971 H1986 0.961 . S
C1971 H1987 0.960 . S
H1972 C1956 0.931 . S
H1973 C1961 0.929 1_554 S
H1974 C1962 0.960 . S
H1975 C1962 0.962 . S
H1976 C1962 0.960 . S
H1977 C1963 0.961 . S
H1978 C1963 0.961 1_556 S
H1979 C1963 0.961 1_556 S
H1980 C1964 0.931 . S
H1981 C1969 0.930 . S
H1982 C1970 0.956 . S
H1983 C1970 0.961 . S
H1984 C1970 0.961 . S
H1985 C1971 0.958 . S
H1986 C1971 0.961 . S
H1987 C1971 0.960 . S
C1988 C1989 1.391 . S
C1988 C1990 1.394 . S
C1988 H2004 0.931 1_556 S
C1989 C1988 1.391 . S
C1989 C1993 1.376 . S
C1990 C1988 1.394 . S
C1990 C1991 1.369 . S
C1990 C1994 1.531 1_556 S
C1991 C1990 1.369 . S
C1991 C1992 1.410 . S
C1991 C1999 1.503 . S
C1992 C1991 1.410 . S
C1992 C1993 1.392 . S
C1992 C1995 1.511 . S
C1993 C1989 1.376 . S
C1993 C1992 1.392 . S
C1993 H2005 0.929 . S
C1994 C1990 1.531 1_554 S
C1994 H2006 0.960 . S
C1994 H2007 0.962 1_554 S
C1994 H2008 0.960 . S
C1995 C1992 1.511 . S
C1995 H2009 0.961 . S
C1995 H2010 0.961 . S
C1995 H2011 0.961 . S
C1996 C1997 1.370 . S
C1996 C1998 1.363 . S
C1996 H2012 0.931 . S
C1997 C1996 1.370 . S
C1997 C2001 1.408 . S
C1998 C1996 1.363 . S
C1998 C1999 1.370 . S
C1998 C2002 1.524 . S
C1999 C1991 1.503 . S
C1999 C1998 1.370 . S
C1999 C2000 1.403 . S
C2000 C1999 1.403 . S
C2000 C2001 1.404 . S
C2000 C2003 1.539 . S
C2001 C1997 1.408 . S
C2001 C2000 1.404 . S
C2001 H2013 0.930 . S
C2002 C1998 1.524 . S
C2002 H2014 0.956 . S
C2002 H2015 0.961 . S
C2002 H2016 0.961 . S
C2003 C2000 1.539 . S
C2003 H2017 0.958 1_556 S
C2003 H2018 0.961 . S
C2003 H2019 0.960 . S
H2004 C1988 0.931 1_554 S
H2005 C1993 0.929 . S
H2006 C1994 0.960 . S
H2007 C1994 0.962 1_556 S
H2008 C1994 0.960 . S
H2009 C1995 0.961 . S
H2010 C1995 0.961 . S
H2011 C1995 0.961 . S
H2012 C1996 0.931 . S
H2013 C2001 0.930 . S
H2014 C2002 0.956 . S
H2015 C2002 0.961 . S
H2016 C2002 0.961 . S
H2017 C2003 0.958 1_554 S
H2018 C2003 0.961 . S
H2019 C2003 0.960 . S
C2020 C2021 1.387 1_554 S
C2020 C2022 1.390 1_554 S
C2020 H2036 0.939 . S
C2021 C2020 1.387 1_556 S
C2021 C2025 1.376 . S
C2022 C2020 1.390 1_556 S
C2022 C2023 1.369 . S
C2022 C2026 1.531 1_556 S
C2023 C2022 1.369 . S
C2023 C2024 1.410 . S
C2023 C2031 1.503 . S
C2024 C2023 1.410 . S
C2024 C2025 1.392 . S
C2024 C2027 1.511 . S
C2025 C2021 1.376 . S
C2025 C2024 1.392 . S
C2025 H2037 0.929 . S
C2026 C2022 1.531 1_554 S
C2026 H2038 0.960 . S
C2026 H2039 0.962 1_554 S
C2026 H2040 0.960 . S
C2027 C2024 1.511 . S
C2027 H2041 0.961 . S
C2027 H2042 0.961 . S
C2027 H2043 0.961 . S
C2028 C2029 1.370 . S
C2028 C2030 1.363 . S
C2028 H2044 0.931 . S
C2029 C2028 1.370 . S
C2029 C2033 1.408 . S
C2030 C2028 1.363 . S
C2030 C2031 1.370 . S
C2030 C2034 1.524 . S
C2031 C2023 1.503 . S
C2031 C2030 1.370 . S
C2031 C2032 1.403 . S
C2032 C2031 1.403 . S
C2032 C2033 1.404 . S
C2032 C2035 1.539 . S
C2033 C2029 1.408 . S
C2033 C2032 1.404 . S
C2033 H2045 0.930 . S
C2034 C2030 1.524 . S
C2034 H2046 0.956 . S
C2034 H2047 0.961 . S
C2034 H2048 0.961 . S
C2035 C2032 1.539 . S
C2035 H2049 0.958 1_556 S
C2035 H2050 0.961 . S
C2035 H2051 0.960 . S
H2036 C2020 0.939 . S
H2037 C2025 0.929 . S
H2038 C2026 0.960 . S
H2039 C2026 0.962 1_556 S
H2040 C2026 0.960 . S
H2041 C2027 0.961 . S
H2042 C2027 0.961 . S
H2043 C2027 0.961 . S
H2044 C2028 0.931 . S
H2045 C2033 0.930 . S
H2046 C2034 0.956 . S
H2047 C2034 0.961 . S
H2048 C2034 0.961 . S
H2049 C2035 0.958 1_554 S
H2050 C2035 0.961 . S
H2051 C2035 0.960 . S
C2052 C2053 1.391 . S
C2052 C2054 1.394 . S
C2052 H2068 0.931 . S
C2053 C2052 1.391 . S
C2053 C2057 1.376 . S
C2054 C2052 1.394 . S
C2054 C2055 1.369 . S
C2054 C2058 1.531 . S
C2055 C2054 1.369 . S
C2055 C2056 1.410 . S
C2055 C2063 1.503 . S
C2056 C2055 1.410 . S
C2056 C2057 1.392 . S
C2056 C2059 1.511 . S
C2057 C2053 1.376 . S
C2057 C2056 1.392 . S
C2057 H2069 0.929 . S
C2058 C2054 1.531 . S
C2058 H2070 0.960 . S
C2058 H2071 0.962 . S
C2058 H2072 0.960 . S
C2059 C2056 1.511 . S
C2059 H2073 0.961 . S
C2059 H2074 0.961 . S
C2059 H2075 0.961 . S
C2060 C2061 1.370 . S
C2060 C2062 1.363 . S
C2060 H2076 0.931 . S
C2061 C2060 1.370 . S
C2061 C2065 1.408 . S
C2062 C2060 1.363 . S
C2062 C2063 1.370 . S
C2062 C2066 1.524 . S
C2063 C2055 1.503 . S
C2063 C2062 1.370 . S
C2063 C2064 1.403 . S
C2064 C2063 1.403 . S
C2064 C2065 1.404 . S
C2064 C2067 1.539 . S
C2065 C2061 1.408 . S
C2065 C2064 1.404 . S
C2065 H2077 0.930 . S
C2066 C2062 1.524 . S
C2066 H2078 0.956 . S
C2066 H2079 0.961 . S
C2066 H2080 0.961 . S
C2067 C2064 1.539 . S
C2067 H2081 0.958 . S
C2067 H2082 0.961 . S
C2067 H2083 0.960 . S
H2068 C2052 0.931 . S
H2069 C2057 0.929 . S
H2070 C2058 0.960 . S
H2071 C2058 0.962 . S
H2072 C2058 0.960 . S
H2073 C2059 0.961 . S
H2074 C2059 0.961 . S
H2075 C2059 0.961 . S
H2076 C2060 0.931 . S
H2077 C2065 0.930 . S
H2078 C2066 0.956 . S
H2079 C2066 0.961 . S
H2080 C2066 0.961 . S
H2081 C2067 0.958 . S
H2082 C2067 0.961 . S
H2083 C2067 0.960 . S
C2084 C2085 1.391 . S
C2084 C2086 1.394 . S
C2084 H2100 0.931 . S
C2085 C2084 1.391 . S
C2085 C2089 1.376 . S
C2086 C2084 1.394 . S
C2086 C2087 1.369 . S
C2086 C2090 1.531 . S
C2087 C2086 1.369 . S
C2087 C2088 1.410 . S
C2087 C2095 1.503 . S
C2088 C2087 1.410 . S
C2088 C2089 1.392 . S
C2088 C2091 1.511 . S
C2089 C2085 1.376 . S
C2089 C2088 1.392 . S
C2089 H2101 0.929 . S
C2090 C2086 1.531 . S
C2090 H2102 0.960 . S
C2090 H2103 0.962 . S
C2090 H2104 0.960 . S
C2091 C2088 1.511 . S
C2091 H2105 0.961 . S
C2091 H2106 0.961 . S
C2091 H2107 0.961 . S
C2092 C2093 1.370 . S
C2092 C2094 1.363 . S
C2092 H2108 0.931 . S
C2093 C2092 1.370 . S
C2093 C2097 1.408 . S
C2094 C2092 1.363 . S
C2094 C2095 1.370 . S
C2094 C2098 1.524 . S
C2095 C2087 1.503 . S
C2095 C2094 1.370 . S
C2095 C2096 1.403 . S
C2096 C2095 1.403 . S
C2096 C2097 1.404 . S
C2096 C2099 1.539 . S
C2097 C2093 1.408 . S
C2097 C2096 1.404 . S
C2097 H2109 0.930 . S
C2098 C2094 1.524 . S
C2098 H2110 0.956 . S
C2098 H2111 0.961 . S
C2098 H2112 0.961 . S
C2099 C2096 1.539 . S
C2099 H2113 0.953 1_554 S
C2099 H2114 0.961 . S
C2099 H2115 0.960 . S
H2100 C2084 0.931 . S
H2101 C2089 0.929 . S
H2102 C2090 0.960 . S
H2103 C2090 0.962 . S
H2104 C2090 0.960 . S
H2105 C2091 0.961 . S
H2106 C2091 0.961 . S
H2107 C2091 0.961 . S
H2108 C2092 0.931 . S
H2109 C2097 0.930 . S
H2110 C2098 0.956 . S
H2111 C2098 0.961 . S
H2112 C2098 0.961 . S
H2113 C2099 0.953 1_556 S
H2114 C2099 0.961 . S
H2115 C2099 0.960 . S
C2116 C2117 1.391 . S
C2116 C2118 1.394 . S
C2116 H2132 0.931 1_554 S
C2117 C2116 1.391 . S
C2117 C2121 1.376 . S
C2118 C2116 1.394 . S
C2118 C2119 1.369 . S
C2118 C2122 1.531 . S
C2119 C2118 1.369 . S
C2119 C2120 1.410 . S
C2119 C2127 1.503 . S
C2120 C2119 1.410 . S
C2120 C2121 1.392 . S
C2120 C2123 1.511 . S
C2121 C2117 1.376 . S
C2121 C2120 1.392 . S
C2121 H2133 0.929 . S
C2122 C2118 1.531 . S
C2122 H2134 0.960 . S
C2122 H2135 0.962 1_554 S
C2122 H2136 0.960 1_554 S
C2123 C2120 1.511 . S
C2123 H2137 0.961 . S
C2123 H2138 0.961 . S
C2123 H2139 0.961 . S
C2124 C2125 1.370 . S
C2124 C2126 1.363 . S
C2124 H2140 0.931 . S
C2125 C2124 1.370 . S
C2125 C2129 1.408 . S
C2126 C2124 1.363 . S
C2126 C2127 1.370 . S
C2126 C2130 1.524 . S
C2127 C2119 1.503 . S
C2127 C2126 1.370 . S
C2127 C2128 1.403 . S
C2128 C2127 1.403 . S
C2128 C2129 1.404 . S
C2128 C2131 1.539 . S
C2129 C2125 1.408 . S
C2129 C2128 1.404 . S
C2129 H2141 0.930 . S
C2130 C2126 1.524 . S
C2130 H2142 0.956 . S
C2130 H2143 0.961 . S
C2130 H2144 0.961 . S
C2131 C2128 1.539 . S
C2131 H2145 0.958 . S
C2131 H2146 0.961 . S
C2131 H2147 0.960 . S
H2132 C2116 0.931 1_556 S
H2133 C2121 0.929 . S
H2134 C2122 0.960 . S
H2135 C2122 0.962 1_556 S
H2136 C2122 0.960 1_556 S
H2137 C2123 0.961 . S
H2138 C2123 0.961 . S
H2139 C2123 0.961 . S
H2140 C2124 0.931 . S
H2141 C2129 0.930 . S
H2142 C2130 0.956 . S
H2143 C2130 0.961 . S
H2144 C2130 0.961 . S
H2145 C2131 0.958 . S
H2146 C2131 0.961 . S
H2147 C2131 0.960 . S
C2148 C2149 1.391 . S
C2148 C2150 1.394 . S
C2148 H2164 0.931 . S
C2149 C2148 1.391 . S
C2149 C2153 1.376 . S
C2150 C2148 1.394 . S
C2150 C2151 1.369 . S
C2150 C2154 1.531 . S
C2151 C2150 1.369 . S
C2151 C2152 1.410 . S
C2151 C2159 1.503 . S
C2152 C2151 1.410 . S
C2152 C2153 1.392 . S
C2152 C2155 1.511 . S
C2153 C2149 1.376 . S
C2153 C2152 1.392 . S
C2153 H2165 0.929 . S
C2154 C2150 1.531 . S
C2154 H2166 0.960 . S
C2154 H2167 0.962 . S
C2154 H2168 0.960 . S
C2155 C2152 1.511 . S
C2155 H2169 0.961 . S
C2155 H2170 0.961 . S
C2155 H2171 0.961 . S
C2156 C2157 1.370 . S
C2156 C2158 1.363 . S
C2156 H2172 0.931 . S
C2157 C2156 1.370 . S
C2157 C2161 1.408 . S
C2158 C2156 1.363 . S
C2158 C2159 1.370 . S
C2158 C2162 1.524 . S
C2159 C2151 1.503 . S
C2159 C2158 1.370 . S
C2159 C2160 1.403 . S
C2160 C2159 1.403 . S
C2160 C2161 1.404 . S
C2160 C2163 1.539 . S
C2161 C2157 1.408 . S
C2161 C2160 1.404 . S
C2161 H2173 0.930 . S
C2162 C2158 1.524 . S
C2162 H2174 0.956 . S
C2162 H2175 0.961 . S
C2162 H2176 0.961 . S
C2163 C2160 1.539 . S
C2163 H2177 0.958 . S
C2163 H2178 0.961 . S
C2163 H2179 0.960 . S
H2164 C2148 0.931 . S
H2165 C2153 0.929 . S
H2166 C2154 0.960 . S
H2167 C2154 0.962 . S
H2168 C2154 0.960 . S
H2169 C2155 0.961 . S
H2170 C2155 0.961 . S
H2171 C2155 0.961 . S
H2172 C2156 0.931 . S
H2173 C2161 0.930 . S
H2174 C2162 0.956 . S
H2175 C2162 0.961 . S
H2176 C2162 0.961 . S
H2177 C2163 0.958 . S
H2178 C2163 0.961 . S
H2179 C2163 0.960 . S
C2180 C2181 1.391 . S
C2180 C2182 1.394 . S
C2180 H2196 0.931 . S
C2181 C2180 1.391 . S
C2181 C2185 1.376 . S
C2182 C2180 1.394 . S
C2182 C2183 1.369 . S
C2182 C2186 1.531 . S
C2183 C2182 1.369 . S
C2183 C2184 1.410 . S
C2183 C2191 1.503 . S
C2184 C2183 1.410 . S
C2184 C2185 1.392 . S
C2184 C2187 1.511 . S
C2185 C2181 1.376 . S
C2185 C2184 1.392 . S
C2185 H2197 0.929 . S
C2186 C2182 1.531 . S
C2186 H2198 0.960 . S
C2186 H2199 0.962 . S
C2186 H2200 0.960 . S
C2187 C2184 1.511 . S
C2187 H2201 0.961 . S
C2187 H2202 0.961 . S
C2187 H2203 0.961 . S
C2188 C2189 1.370 . S
C2188 C2190 1.363 . S
C2188 H2204 0.931 . S
C2189 C2188 1.370 . S
C2189 C2193 1.408 . S
C2190 C2188 1.363 . S
C2190 C2191 1.370 . S
C2190 C2194 1.524 . S
C2191 C2183 1.503 . S
C2191 C2190 1.370 . S
C2191 C2192 1.403 . S
C2192 C2191 1.403 . S
C2192 C2193 1.404 . S
C2192 C2195 1.539 . S
C2193 C2189 1.408 . S
C2193 C2192 1.404 . S
C2193 H2205 0.930 . S
C2194 C2190 1.524 . S
C2194 H2206 0.956 . S
C2194 H2207 0.961 . S
C2194 H2208 0.961 . S
C2195 C2192 1.539 . S
C2195 H2209 0.958 . S
C2195 H2210 0.961 . S
C2195 H2211 0.960 . S
H2196 C2180 0.931 . S
H2197 C2185 0.929 . S
H2198 C2186 0.960 . S
H2199 C2186 0.962 . S
H2200 C2186 0.960 . S
H2201 C2187 0.961 . S
H2202 C2187 0.961 . S
H2203 C2187 0.961 . S
H2204 C2188 0.931 . S
H2205 C2193 0.930 . S
H2206 C2194 0.956 . S
H2207 C2194 0.961 . S
H2208 C2194 0.961 . S
H2209 C2195 0.958 . S
H2210 C2195 0.961 . S
H2211 C2195 0.960 . S
C2212 C2213 1.391 . S
C2212 C2214 1.394 . S
C2212 H2228 0.931 . S
C2213 C2212 1.391 . S
C2213 C2217 1.376 . S
C2214 C2212 1.394 . S
C2214 C2215 1.369 . S
C2214 C2218 1.531 . S
C2215 C2214 1.369 . S
C2215 C2216 1.410 . S
C2215 C2223 1.503 . S
C2216 C2215 1.410 . S
C2216 C2217 1.392 . S
C2216 C2219 1.511 . S
C2217 C2213 1.376 . S
C2217 C2216 1.392 . S
C2217 H2229 0.929 . S
C2218 C2214 1.531 . S
C2218 H2230 0.960 . S
C2218 H2231 0.962 . S
C2218 H2232 0.960 . S
C2219 C2216 1.511 . S
C2219 H2233 0.961 . S
C2219 H2234 0.961 . S
C2219 H2235 0.961 . S
C2220 C2221 1.370 . S
C2220 C2222 1.363 . S
C2220 H2236 0.931 . S
C2221 C2220 1.370 . S
C2221 C2225 1.408 . S
C2222 C2220 1.363 . S
C2222 C2223 1.370 . S
C2222 C2226 1.524 . S
C2223 C2215 1.503 . S
C2223 C2222 1.370 . S
C2223 C2224 1.403 . S
C2224 C2223 1.403 . S
C2224 C2225 1.404 . S
C2224 C2227 1.539 . S
C2225 C2221 1.408 . S
C2225 C2224 1.404 . S
C2225 H2237 0.930 . S
C2226 C2222 1.524 . S
C2226 H2238 0.956 . S
C2226 H2239 0.961 . S
C2226 H2240 0.961 . S
C2227 C2224 1.539 . S
C2227 H2241 0.958 . S
C2227 H2242 0.961 . S
C2227 H2243 0.960 . S
H2228 C2212 0.931 . S
H2229 C2217 0.929 . S
H2230 C2218 0.960 . S
H2231 C2218 0.962 . S
H2232 C2218 0.960 . S
H2233 C2219 0.961 . S
H2234 C2219 0.961 . S
H2235 C2219 0.961 . S
H2236 C2220 0.931 . S
H2237 C2225 0.930 . S
H2238 C2226 0.956 . S
H2239 C2226 0.961 . S
H2240 C2226 0.961 . S
H2241 C2227 0.958 . S
H2242 C2227 0.961 . S
H2243 C2227 0.960 . S
C2244 C2245 1.391 . S
C2244 C2246 1.394 . S
C2244 H2260 0.931 . S
C2245 C2244 1.391 . S
C2245 C2249 1.376 . S
C2246 C2244 1.394 . S
C2246 C2247 1.369 . S
C2246 C2250 1.531 . S
C2247 C2246 1.369 . S
C2247 C2248 1.410 . S
C2247 C2255 1.503 . S
C2248 C2247 1.410 . S
C2248 C2249 1.392 . S
C2248 C2251 1.511 . S
C2249 C2245 1.376 . S
C2249 C2248 1.392 . S
C2249 H2261 0.929 . S
C2250 C2246 1.531 . S
C2250 H2262 0.960 . S
C2250 H2263 0.962 . S
C2250 H2264 0.960 . S
C2251 C2248 1.511 . S
C2251 H2265 0.961 1_455 S
C2251 H2266 1.008 . S
C2251 H2267 0.961 . S
C2252 C2253 1.370 1_655 S
C2252 C2254 1.363 . S
C2252 H2268 0.931 . S
C2253 C2252 1.370 1_455 S
C2253 C2257 1.408 . S
C2254 C2252 1.363 . S
C2254 C2255 1.370 1_655 S
C2254 C2258 1.524 . S
C2255 C2247 1.503 . S
C2255 C2254 1.370 1_455 S
C2255 C2256 1.403 . S
C2256 C2255 1.403 . S
C2256 C2257 1.404 . S
C2256 C2259 1.539 . S
C2257 C2253 1.408 . S
C2257 C2256 1.404 . S
C2257 H2269 0.930 . S
C2258 C2254 1.524 . S
C2258 H2270 0.956 . S
C2258 H2271 0.961 . S
C2258 H2272 0.961 . S
C2259 C2256 1.539 . S
C2259 H2273 0.958 . S
C2259 H2274 0.961 . S
C2259 H2275 0.960 . S
H2260 C2244 0.931 . S
H2261 C2249 0.929 . S
H2262 C2250 0.960 . S
H2263 C2250 0.962 . S
H2264 C2250 0.960 . S
H2265 C2251 0.961 1_655 S
H2266 C2251 1.008 . S
H2267 C2251 0.961 . S
H2268 C2252 0.931 . S
H2269 C2257 0.930 . S
H2270 C2258 0.956 . S
H2271 C2258 0.961 . S
H2272 C2258 0.961 . S
H2273 C2259 0.958 . S
H2274 C2259 0.961 . S
H2275 C2259 0.960 . S
C2276 C2277 1.391 . S
C2276 C2278 1.394 . S
C2276 H2292 0.931 . S
C2277 C2276 1.391 . S
C2277 C2281 1.376 . S
C2278 C2276 1.394 . S
C2278 C2279 1.369 . S
C2278 C2282 1.531 . S
C2279 C2278 1.369 . S
C2279 C2280 1.410 . S
C2279 C2287 1.503 . S
C2280 C2279 1.410 . S
C2280 C2281 1.392 . S
C2280 C2283 1.511 . S
C2281 C2277 1.376 . S
C2281 C2280 1.392 . S
C2281 H2293 0.929 . S
C2282 C2278 1.531 . S
C2282 H2294 0.960 . S
C2282 H2295 0.962 . S
C2282 H2296 0.960 . S
C2283 C2280 1.511 . S
C2283 H2297 0.961 . S
C2283 H2298 0.961 . S
C2283 H2299 0.961 . S
C2284 C2285 1.370 . S
C2284 C2286 1.363 . S
C2284 H2300 0.931 . S
C2285 C2284 1.370 . S
C2285 C2289 1.408 . S
C2286 C2284 1.363 . S
C2286 C2287 1.370 . S
C2286 C2290 1.524 . S
C2287 C2279 1.503 . S
C2287 C2286 1.370 . S
C2287 C2288 1.403 . S
C2288 C2287 1.403 . S
C2288 C2289 1.404 . S
C2288 C2291 1.539 . S
C2289 C2285 1.408 . S
C2289 C2288 1.404 . S
C2289 H2301 0.930 . S
C2290 C2286 1.524 . S
C2290 H2302 0.956 . S
C2290 H2303 0.961 . S
C2290 H2304 0.961 . S
C2291 C2288 1.539 . S
C2291 H2305 0.958 . S
C2291 H2306 0.961 . S
C2291 H2307 0.960 . S
H2292 C2276 0.931 . S
H2293 C2281 0.929 . S
H2294 C2282 0.960 . S
H2295 C2282 0.962 . S
H2296 C2282 0.960 . S
H2297 C2283 0.961 . S
H2298 C2283 0.961 . S
H2299 C2283 0.961 . S
H2300 C2284 0.931 . S
H2301 C2289 0.930 . S
H2302 C2290 0.956 . S
H2303 C2290 0.961 . S
H2304 C2290 0.961 . S
H2305 C2291 0.958 . S
H2306 C2291 0.961 . S
H2307 C2291 0.960 . S
C2308 C2309 1.391 . S
C2308 C2310 1.394 . S
C2308 H2324 0.931 . S
C2309 C2308 1.391 . S
C2309 C2313 1.376 . S
C2310 C2308 1.394 . S
C2310 C2311 1.369 . S
C2310 C2314 1.531 . S
C2311 C2310 1.369 . S
C2311 C2312 1.410 . S
C2311 C2319 1.503 . S
C2312 C2311 1.410 . S
C2312 C2313 1.392 . S
C2312 C2315 1.513 . S
C2313 C2309 1.376 . S
C2313 C2312 1.392 . S
C2313 H2325 0.929 . S
C2314 C2310 1.531 . S
C2314 H2326 0.960 . S
C2314 H2327 0.962 . S
C2314 H2328 0.960 . S
C2315 C2312 1.513 . S
C2315 H2329 0.953 1_565 S
C2315 H2330 0.962 1_565 S
C2315 H2331 0.966 . S
C2316 C2317 1.370 1_545 S
C2316 C2318 1.363 . S
C2316 H2332 0.931 . S
C2317 C2316 1.370 1_565 S
C2317 C2321 1.408 . S
C2318 C2316 1.363 . S
C2318 C2319 1.370 1_545 S
C2318 C2322 1.524 . S
C2319 C2311 1.503 . S
C2319 C2318 1.370 1_565 S
C2319 C2320 1.403 . S
C2320 C2319 1.403 . S
C2320 C2321 1.404 . S
C2320 C2323 1.539 . S
C2321 C2317 1.408 . S
C2321 C2320 1.404 . S
C2321 H2333 0.930 . S
C2322 C2318 1.524 . S
C2322 H2334 0.956 . S
C2322 H2335 0.961 . S
C2322 H2336 0.961 . S
C2323 C2320 1.539 . S
C2323 H2337 0.958 . S
C2323 H2338 0.961 . S
C2323 H2339 0.960 . S
H2324 C2308 0.931 . S
H2325 C2313 0.929 . S
H2326 C2314 0.960 . S
H2327 C2314 0.962 . S
H2328 C2314 0.960 . S
H2329 C2315 0.953 1_545 S
H2330 C2315 0.962 1_545 S
H2331 C2315 0.966 . S
H2332 C2316 0.931 . S
H2333 C2321 0.930 . S
H2334 C2322 0.956 . S
H2335 C2322 0.961 . S
H2336 C2322 0.961 . S
H2337 C2323 0.958 . S
H2338 C2323 0.961 . S
H2339 C2323 0.960 . S
C2340 C2341 1.391 . S
C2340 C2342 1.394 . S
C2340 H2356 0.931 . S
C2341 C2340 1.391 . S
C2341 C2345 1.376 1_565 S
C2342 C2340 1.394 . S
C2342 C2343 1.369 . S
C2342 C2346 1.531 . S
C2343 C2342 1.369 . S
C2343 C2344 1.410 1_565 S
C2343 C2351 1.503 . S
C2344 C2343 1.410 1_545 S
C2344 C2345 1.392 . S
C2344 C2347 1.511 . S
C2345 C2341 1.376 1_545 S
C2345 C2344 1.392 . S
C2345 H2357 0.929 . S
C2346 C2342 1.531 . S
C2346 H2358 0.960 . S
C2346 H2359 0.962 . S
C2346 H2360 0.960 . S
C2347 C2344 1.511 . S
C2347 H2361 0.961 . S
C2347 H2362 0.961 . S
C2347 H2363 0.961 . S
C2348 C2349 1.370 . S
C2348 C2350 1.363 . S
C2348 H2364 0.931 . S
C2349 C2348 1.370 . S
C2349 C2353 1.408 1_565 S
C2350 C2348 1.363 . S
C2350 C2351 1.370 . S
C2350 C2354 1.524 . S
C2351 C2343 1.503 . S
C2351 C2350 1.370 . S
C2351 C2352 1.403 1_565 S
C2352 C2351 1.403 1_545 S
C2352 C2353 1.404 . S
C2352 C2355 1.539 . S
C2353 C2349 1.408 1_545 S
C2353 C2352 1.404 . S
C2353 H2365 0.930 . S
C2354 C2350 1.524 . S
C2354 H2366 0.956 . S
C2354 H2367 0.961 . S
C2354 H2368 0.961 . S
C2355 C2352 1.539 . S
C2355 H2369 0.958 . S
C2355 H2370 0.961 . S
C2355 H2371 0.960 . S
H2356 C2340 0.931 . S
H2357 C2345 0.929 . S
H2358 C2346 0.960 . S
H2359 C2346 0.962 . S
H2360 C2346 0.960 . S
H2361 C2347 0.961 . S
H2362 C2347 0.961 . S
H2363 C2347 0.961 . S
H2364 C2348 0.931 . S
H2365 C2353 0.930 . S
H2366 C2354 0.956 . S
H2367 C2354 0.961 . S
H2368 C2354 0.961 . S
H2369 C2355 0.958 . S
H2370 C2355 0.961 . S
H2371 C2355 0.960 . S
C2372 C2373 1.391 . S
C2372 C2374 1.394 . S
C2372 H2388 0.931 . S
C2373 C2372 1.391 . S
C2373 C2377 1.376 . S
C2374 C2372 1.394 . S
C2374 C2375 1.369 . S
C2374 C2378 1.531 . S
C2375 C2374 1.369 . S
C2375 C2376 1.371 1_455 S
C2375 C2383 1.503 . S
C2376 C2375 1.371 1_655 S
C2376 C2377 1.418 1_655 S
C2376 C2379 1.529 . S
C2377 C2373 1.376 . S
C2377 C2376 1.418 1_455 S
C2377 H2389 0.933 . S
C2378 C2374 1.531 . S
C2378 H2390 0.960 . S
C2378 H2391 0.962 . S
C2378 H2392 0.960 . S
C2379 C2376 1.529 . S
C2379 H2393 0.961 . S
C2379 H2394 0.961 . S
C2379 H2395 0.961 . S
C2380 C2381 1.377 . S
C2380 C2382 1.363 . S
C2380 H2396 0.931 . S
C2381 C2380 1.377 . S
C2381 C2385 1.395 1_455 S
C2382 C2380 1.363 . S
C2382 C2383 1.370 . S
C2382 C2386 1.524 . S
C2383 C2375 1.503 . S
C2383 C2382 1.370 . S
C2383 C2384 1.403 1_455 S
C2384 C2383 1.403 1_655 S
C2384 C2385 1.404 . S
C2384 C2387 1.539 . S
C2385 C2381 1.395 1_655 S
C2385 C2384 1.404 . S
C2385 H2397 0.930 . S
C2386 C2382 1.524 . S
C2386 H2398 0.956 . S
C2386 H2399 0.961 . S
C2386 H2400 0.961 . S
C2387 C2384 1.539 . S
C2387 H2401 0.958 . S
C2387 H2402 0.961 . S
C2387 H2403 0.960 . S
H2388 C2372 0.931 . S
H2389 C2377 0.933 . S
H2390 C2378 0.960 . S
H2391 C2378 0.962 . S
H2392 C2378 0.960 . S
H2393 C2379 0.961 . S
H2394 C2379 0.961 . S
H2395 C2379 0.961 . S
H2396 C2380 0.931 . S
H2397 C2385 0.930 . S
H2398 C2386 0.956 . S
H2399 C2386 0.961 . S
H2400 C2386 0.961 . S
H2401 C2387 0.958 . S
H2402 C2387 0.961 . S
H2403 C2387 0.960 . S
C2404 C2405 1.391 . S
C2404 C2406 1.394 . S
C2404 H2420 0.931 . S
C2405 C2404 1.391 . S
C2405 C2409 1.376 . S
C2406 C2404 1.394 . S
C2406 C2407 1.369 . S
C2406 C2410 1.531 . S
C2407 C2406 1.369 . S
C2407 C2408 1.410 . S
C2407 C2415 1.503 . S
C2408 C2407 1.410 . S
C2408 C2409 1.392 . S
C2408 C2411 1.511 . S
C2409 C2405 1.376 . S
C2409 C2408 1.392 . S
C2409 H2421 0.929 . S
C2410 C2406 1.531 . S
C2410 H2422 0.960 . S
C2410 H2423 0.962 . S
C2410 H2424 0.960 . S
C2411 C2408 1.511 . S
C2411 H2425 0.961 . S
C2411 H2426 0.961 . S
C2411 H2427 0.961 . S
C2412 C2413 1.370 . S
C2412 C2414 1.363 . S
C2412 H2428 0.931 . S
C2413 C2412 1.370 . S
C2413 C2417 1.408 . S
C2414 C2412 1.363 . S
C2414 C2415 1.370 . S
C2414 C2418 1.524 . S
C2415 C2407 1.503 . S
C2415 C2414 1.370 . S
C2415 C2416 1.403 . S
C2416 C2415 1.403 . S
C2416 C2417 1.404 . S
C2416 C2419 1.539 . S
C2417 C2413 1.408 . S
C2417 C2416 1.404 . S
C2417 H2429 0.930 . S
C2418 C2414 1.524 . S
C2418 H2430 0.956 . S
C2418 H2431 0.961 . S
C2418 H2432 0.961 . S
C2419 C2416 1.539 . S
C2419 H2433 0.958 . S
C2419 H2434 0.961 . S
C2419 H2435 0.960 . S
H2420 C2404 0.931 . S
H2421 C2409 0.929 . S
H2422 C2410 0.960 . S
H2423 C2410 0.962 . S
H2424 C2410 0.960 . S
H2425 C2411 0.961 . S
H2426 C2411 0.961 . S
H2427 C2411 0.961 . S
H2428 C2412 0.931 . S
H2429 C2417 0.930 . S
H2430 C2418 0.956 . S
H2431 C2418 0.961 . S
H2432 C2418 0.961 . S
H2433 C2419 0.958 . S
H2434 C2419 0.961 . S
H2435 C2419 0.960 . S
C2436 C2437 1.391 . S
C2436 C2438 1.394 . S
C2436 H2452 0.931 . S
C2437 C2436 1.391 . S
C2437 C2441 1.376 . S
C2438 C2436 1.394 . S
C2438 C2439 1.369 . S
C2438 C2442 1.531 . S
C2439 C2438 1.369 . S
C2439 C2440 1.410 . S
C2439 C2447 1.503 . S
C2440 C2439 1.410 . S
C2440 C2441 1.392 . S
C2440 C2443 1.511 . S
C2441 C2437 1.376 . S
C2441 C2440 1.392 . S
C2441 H2453 0.929 . S
C2442 C2438 1.531 . S
C2442 H2454 0.960 . S
C2442 H2455 0.962 . S
C2442 H2456 0.960 . S
C2443 C2440 1.511 . S
C2443 H2457 0.961 . S
C2443 H2458 0.961 . S
C2443 H2459 0.961 . S
C2444 C2445 1.370 . S
C2444 C2446 1.363 . S
C2444 H2460 0.931 . S
C2445 C2444 1.370 . S
C2445 C2449 1.408 . S
C2446 C2444 1.363 . S
C2446 C2447 1.370 . S
C2446 C2450 1.524 . S
C2447 C2439 1.503 . S
C2447 C2446 1.370 . S
C2447 C2448 1.403 . S
C2448 C2447 1.403 . S
C2448 C2449 1.404 . S
C2448 C2451 1.539 . S
C2449 C2445 1.408 . S
C2449 C2448 1.404 . S
C2449 H2461 0.930 . S
C2450 C2446 1.524 . S
C2450 H2462 0.956 . S
C2450 H2463 0.961 . S
C2450 H2464 0.961 . S
C2451 C2448 1.539 . S
C2451 H2465 0.958 . S
C2451 H2466 0.961 . S
C2451 H2467 0.960 . S
H2452 C2436 0.931 . S
H2453 C2441 0.929 . S
H2454 C2442 0.960 . S
H2455 C2442 0.962 . S
H2456 C2442 0.960 . S
H2457 C2443 0.961 . S
H2458 C2443 0.961 . S
H2459 C2443 0.961 . S
H2460 C2444 0.931 . S
H2461 C2449 0.930 . S
H2462 C2450 0.956 . S
H2463 C2450 0.961 . S
H2464 C2450 0.961 . S
H2465 C2451 0.958 . S
H2466 C2451 0.961 . S
H2467 C2451 0.960 . S
C2468 C2469 1.391 . S
C2468 C2470 1.394 . S
C2468 H2484 0.931 . S
C2469 C2468 1.391 . S
C2469 C2473 1.376 . S
C2470 C2468 1.394 . S
C2470 C2471 1.369 . S
C2470 C2474 1.531 . S
C2471 C2470 1.369 . S
C2471 C2472 1.410 . S
C2471 C2479 1.503 . S
C2472 C2471 1.410 . S
C2472 C2473 1.392 . S
C2472 C2475 1.511 . S
C2473 C2469 1.376 . S
C2473 C2472 1.392 . S
C2473 H2485 0.929 . S
C2474 C2470 1.531 . S
C2474 H2486 0.960 . S
C2474 H2487 0.962 . S
C2474 H2488 0.960 . S
C2475 C2472 1.511 . S
C2475 H2489 0.961 . S
C2475 H2490 0.961 . S
C2475 H2491 0.961 . S
C2476 C2477 1.370 . S
C2476 C2478 1.363 . S
C2476 H2492 0.931 . S
C2477 C2476 1.370 . S
C2477 C2481 1.408 . S
C2478 C2476 1.363 . S
C2478 C2479 1.370 . S
C2478 C2482 1.524 . S
C2479 C2471 1.503 . S
C2479 C2478 1.370 . S
C2479 C2480 1.403 . S
C2480 C2479 1.403 . S
C2480 C2481 1.404 . S
C2480 C2483 1.539 . S
C2481 C2477 1.408 . S
C2481 C2480 1.404 . S
C2481 H2493 0.930 . S
C2482 C2478 1.524 . S
C2482 H2494 0.956 . S
C2482 H2495 0.961 . S
C2482 H2496 0.961 . S
C2483 C2480 1.539 . S
C2483 H2497 0.958 . S
C2483 H2498 0.961 . S
C2483 H2499 0.960 . S
H2484 C2468 0.931 . S
H2485 C2473 0.929 . S
H2486 C2474 0.960 . S
H2487 C2474 0.962 . S
H2488 C2474 0.960 . S
H2489 C2475 0.961 . S
H2490 C2475 0.961 . S
H2491 C2475 0.961 . S
H2492 C2476 0.931 . S
H2493 C2481 0.930 . S
H2494 C2482 0.956 . S
H2495 C2482 0.961 . S
H2496 C2482 0.961 . S
H2497 C2483 0.958 . S
H2498 C2483 0.961 . S
H2499 C2483 0.960 . S
C2500 C2501 1.391 . S
C2500 C2502 1.394 . S
C2500 H2516 0.931 . S
C2501 C2500 1.391 . S
C2501 C2505 1.376 . S
C2502 C2500 1.394 . S
C2502 C2503 1.369 . S
C2502 C2506 1.531 . S
C2503 C2502 1.369 . S
C2503 C2504 1.410 . S
C2503 C2511 1.503 . S
C2504 C2503 1.410 . S
C2504 C2505 1.392 . S
C2504 C2507 1.511 . S
C2505 C2501 1.376 . S
C2505 C2504 1.392 . S
C2505 H2517 0.929 . S
C2506 C2502 1.531 . S
C2506 H2518 0.960 . S
C2506 H2519 0.962 . S
C2506 H2520 0.960 . S
C2507 C2504 1.511 . S
C2507 H2521 0.961 . S
C2507 H2522 0.961 . S
C2507 H2523 0.961 . S
C2508 C2509 1.370 . S
C2508 C2510 1.363 . S
C2508 H2524 0.931 . S
C2509 C2508 1.370 . S
C2509 C2513 1.408 . S
C2510 C2508 1.363 . S
C2510 C2511 1.370 . S
C2510 C2514 1.524 . S
C2511 C2503 1.503 . S
C2511 C2510 1.370 . S
C2511 C2512 1.403 . S
C2512 C2511 1.403 . S
C2512 C2513 1.404 . S
C2512 C2515 1.539 . S
C2513 C2509 1.408 . S
C2513 C2512 1.404 . S
C2513 H2525 0.930 . S
C2514 C2510 1.524 . S
C2514 H2526 0.956 . S
C2514 H2527 0.961 . S
C2514 H2528 0.961 . S
C2515 C2512 1.539 . S
C2515 H2529 0.958 . S
C2515 H2530 0.961 . S
C2515 H2531 0.960 . S
H2516 C2500 0.931 . S
H2517 C2505 0.929 . S
H2518 C2506 0.960 . S
H2519 C2506 0.962 . S
H2520 C2506 0.960 . S
H2521 C2507 0.961 . S
H2522 C2507 0.961 . S
H2523 C2507 0.961 . S
H2524 C2508 0.931 . S
H2525 C2513 0.930 . S
H2526 C2514 0.956 . S
H2527 C2514 0.961 . S
H2528 C2514 0.961 . S
H2529 C2515 0.958 . S
H2530 C2515 0.961 . S
H2531 C2515 0.960 . S
C2532 C2533 1.391 . S
C2532 C2534 1.394 . S
C2532 H2548 0.931 . S
C2533 C2532 1.391 . S
C2533 C2537 1.376 1_545 S
C2534 C2532 1.394 . S
C2534 C2535 1.369 . S
C2534 C2538 1.531 . S
C2535 C2534 1.369 . S
C2535 C2536 1.410 1_545 S
C2535 C2543 1.503 . S
C2536 C2535 1.410 1_565 S
C2536 C2537 1.392 . S
C2536 C2539 1.511 . S
C2537 C2533 1.376 1_565 S
C2537 C2536 1.392 . S
C2537 H2549 0.929 . S
C2538 C2534 1.531 . S
C2538 H2550 0.960 . S
C2538 H2551 0.962 . S
C2538 H2552 0.960 . S
C2539 C2536 1.511 . S
C2539 H2553 0.961 . S
C2539 H2554 0.961 . S
C2539 H2555 0.961 . S
C2540 C2541 1.370 . S
C2540 C2542 1.363 . S
C2540 H2556 0.931 . S
C2541 C2540 1.370 . S
C2541 C2545 1.408 . S
C2542 C2540 1.363 . S
C2542 C2543 1.370 . S
C2542 C2546 1.524 . S
C2543 C2535 1.503 . S
C2543 C2542 1.370 . S
C2543 C2544 1.403 . S
C2544 C2543 1.403 . S
C2544 C2545 1.404 . S
C2544 C2547 1.539 . S
C2545 C2541 1.408 . S
C2545 C2544 1.404 . S
C2545 H2557 0.930 . S
C2546 C2542 1.524 . S
C2546 H2558 0.956 . S
C2546 H2559 0.967 . S
C2546 H2560 0.961 . S
C2547 C2544 1.539 . S
C2547 H2561 0.958 . S
C2547 H2562 0.928 1_545 S
C2547 H2563 0.960 . S
H2548 C2532 0.931 . S
H2549 C2537 0.929 . S
H2550 C2538 0.960 . S
H2551 C2538 0.962 . S
H2552 C2538 0.960 . S
H2553 C2539 0.961 . S
H2554 C2539 0.961 . S
H2555 C2539 0.961 . S
H2556 C2540 0.931 . S
H2557 C2545 0.930 . S
H2558 C2546 0.956 . S
H2559 C2546 0.967 . S
H2560 C2546 0.961 . S
H2561 C2547 0.958 . S
H2562 C2547 0.928 1_565 S
H2563 C2547 0.960 . S
C2564 C2565 1.391 . S
C2564 C2566 1.394 . S
C2564 H2580 0.931 . S
C2565 C2564 1.391 . S
C2565 C2569 1.376 1_655 S
C2566 C2564 1.394 . S
C2566 C2567 1.369 . S
C2566 C2570 1.531 . S
C2567 C2566 1.369 . S
C2567 C2568 1.410 1_655 S
C2567 C2575 1.503 . S
C2568 C2567 1.410 1_455 S
C2568 C2569 1.392 . S
C2568 C2571 1.511 . S
C2569 C2565 1.376 1_455 S
C2569 C2568 1.392 . S
C2569 H2581 0.929 . S
C2570 C2566 1.531 . S
C2570 H2582 0.960 . S
C2570 H2583 0.962 . S
C2570 H2584 0.960 . S
C2571 C2568 1.511 . S
C2571 H2585 0.961 . S
C2571 H2586 0.961 . S
C2571 H2587 0.961 . S
C2572 C2573 1.370 . S
C2572 C2574 1.363 . S
C2572 H2588 0.931 . S
C2573 C2572 1.370 . S
C2573 C2577 1.408 1_655 S
C2574 C2572 1.363 . S
C2574 C2575 1.370 . S
C2574 C2578 1.524 . S
C2575 C2567 1.503 . S
C2575 C2574 1.370 . S
C2575 C2576 1.403 1_655 S
C2576 C2575 1.403 1_455 S
C2576 C2577 1.404 . S
C2576 C2579 1.539 . S
C2577 C2573 1.408 1_455 S
C2577 C2576 1.404 . S
C2577 H2589 0.930 . S
C2578 C2574 1.524 . S
C2578 H2590 0.956 . S
C2578 H2591 0.961 . S
C2578 H2592 0.961 . S
C2579 C2576 1.539 . S
C2579 H2593 0.958 . S
C2579 H2594 0.961 . S
C2579 H2595 0.960 . S
H2580 C2564 0.931 . S
H2581 C2569 0.929 . S
H2582 C2570 0.960 . S
H2583 C2570 0.962 . S
H2584 C2570 0.960 . S
H2585 C2571 0.961 . S
H2586 C2571 0.961 . S
H2587 C2571 0.961 . S
H2588 C2572 0.931 . S
H2589 C2577 0.930 . S
H2590 C2578 0.956 . S
H2591 C2578 0.961 . S
H2592 C2578 0.961 . S
H2593 C2579 0.958 . S
H2594 C2579 0.961 . S
H2595 C2579 0.960 . S
C2596 C2597 1.391 . S
C2596 C2598 1.394 . S
C2596 H2612 0.931 . S
C2597 C2596 1.391 . S
C2597 C2601 1.376 . S
C2598 C2596 1.394 . S
C2598 C2599 1.369 . S
C2598 C2602 1.531 . S
C2599 C2598 1.369 . S
C2599 C2600 1.410 . S
C2599 C2607 1.503 . S
C2600 C2599 1.410 . S
C2600 C2601 1.392 . S
C2600 C2603 1.511 . S
C2601 C2597 1.376 . S
C2601 C2600 1.392 . S
C2601 H2613 0.929 . S
C2602 C2598 1.531 . S
C2602 H2614 0.960 . S
C2602 H2615 0.962 . S
C2602 H2616 0.960 . S
C2603 C2600 1.511 . S
C2603 H2617 0.961 . S
C2603 H2618 0.961 . S
C2603 H2619 0.961 . S
C2604 C2605 1.370 . S
C2604 C2606 1.363 . S
C2604 H2620 0.931 . S
C2605 C2604 1.370 . S
C2605 C2609 1.408 . S
C2606 C2604 1.363 . S
C2606 C2607 1.370 . S
C2606 C2610 1.524 . S
C2607 C2599 1.503 . S
C2607 C2606 1.370 . S
C2607 C2608 1.403 . S
C2608 C2607 1.403 . S
C2608 C2609 1.404 . S
C2608 C2611 1.539 . S
C2609 C2605 1.408 . S
C2609 C2608 1.404 . S
C2609 H2621 0.930 . S
C2610 C2606 1.524 . S
C2610 H2622 0.956 . S
C2610 H2623 0.961 . S
C2610 H2624 0.961 . S
C2611 C2608 1.539 . S
C2611 H2625 0.958 . S
C2611 H2626 0.961 . S
C2611 H2627 0.960 . S
H2612 C2596 0.931 . S
H2613 C2601 0.929 . S
H2614 C2602 0.960 . S
H2615 C2602 0.962 . S
H2616 C2602 0.960 . S
H2617 C2603 0.961 . S
H2618 C2603 0.961 . S
H2619 C2603 0.961 . S
H2620 C2604 0.931 . S
H2621 C2609 0.930 . S
H2622 C2610 0.956 . S
H2623 C2610 0.961 . S
H2624 C2610 0.961 . S
H2625 C2611 0.958 . S
H2626 C2611 0.961 . S
H2627 C2611 0.960 . S
C2628 C2629 1.391 . S
C2628 C2630 1.394 . S
C2628 H2644 0.931 . S
C2629 C2628 1.391 . S
C2629 C2633 1.376 . S
C2630 C2628 1.394 . S
C2630 C2631 1.369 . S
C2630 C2634 1.531 . S
C2631 C2630 1.369 . S
C2631 C2632 1.410 . S
C2631 C2639 1.503 . S
C2632 C2631 1.410 . S
C2632 C2633 1.392 . S
C2632 C2635 1.511 . S
C2633 C2629 1.376 . S
C2633 C2632 1.392 . S
C2633 H2645 0.929 . S
C2634 C2630 1.531 . S
C2634 H2646 0.960 . S
C2634 H2647 0.962 . S
C2634 H2648 0.960 . S
C2635 C2632 1.511 . S
C2635 H2649 0.961 . S
C2635 H2650 0.961 . S
C2635 H2651 0.961 . S
C2636 C2637 1.370 . S
C2636 C2638 1.363 . S
C2636 H2652 0.931 . S
C2637 C2636 1.370 . S
C2637 C2641 1.408 . S
C2638 C2636 1.363 . S
C2638 C2639 1.370 . S
C2638 C2642 1.524 . S
C2639 C2631 1.503 . S
C2639 C2638 1.370 . S
C2639 C2640 1.403 . S
C2640 C2639 1.403 . S
C2640 C2641 1.404 . S
C2640 C2643 1.539 . S
C2641 C2637 1.408 . S
C2641 C2640 1.404 . S
C2641 H2653 0.930 . S
C2642 C2638 1.524 . S
C2642 H2654 0.956 . S
C2642 H2655 0.961 . S
C2642 H2656 0.961 . S
C2643 C2640 1.539 . S
C2643 H2657 0.958 . S
C2643 H2658 0.961 . S
C2643 H2659 0.960 . S
H2644 C2628 0.931 . S
H2645 C2633 0.929 . S
H2646 C2634 0.960 . S
H2647 C2634 0.962 . S
H2648 C2634 0.960 . S
H2649 C2635 0.961 . S
H2650 C2635 0.961 . S
H2651 C2635 0.961 . S
H2652 C2636 0.931 . S
H2653 C2641 0.930 . S
H2654 C2642 0.956 . S
H2655 C2642 0.961 . S
H2656 C2642 0.961 . S
H2657 C2643 0.958 . S
H2658 C2643 0.961 . S
H2659 C2643 0.960 . S
C2660 C2661 1.391 . S
C2660 C2662 1.394 . S
C2660 H2676 0.931 . S
C2661 C2660 1.391 . S
C2661 C2665 1.376 . S
C2662 C2660 1.394 . S
C2662 C2663 1.369 . S
C2662 C2666 1.531 . S
C2663 C2662 1.369 . S
C2663 C2664 1.410 . S
C2663 C2671 1.503 . S
C2664 C2663 1.410 . S
C2664 C2665 1.392 . S
C2664 C2667 1.511 . S
C2665 C2661 1.376 . S
C2665 C2664 1.392 . S
C2665 H2677 0.929 . S
C2666 C2662 1.531 . S
C2666 H2678 0.960 . S
C2666 H2679 0.962 . S
C2666 H2680 0.960 . S
C2667 C2664 1.511 . S
C2667 H2681 0.961 . S
C2667 H2682 0.961 . S
C2667 H2683 0.961 . S
C2668 C2669 1.370 . S
C2668 C2670 1.363 . S
C2668 H2684 0.931 . S
C2669 C2668 1.370 . S
C2669 C2673 1.408 . S
C2670 C2668 1.363 . S
C2670 C2671 1.370 . S
C2670 C2674 1.524 . S
C2671 C2663 1.503 . S
C2671 C2670 1.370 . S
C2671 C2672 1.403 . S
C2672 C2671 1.403 . S
C2672 C2673 1.404 . S
C2672 C2675 1.539 . S
C2673 C2669 1.408 . S
C2673 C2672 1.404 . S
C2673 H2685 0.930 . S
C2674 C2670 1.524 . S
C2674 H2686 0.956 . S
C2674 H2687 0.961 . S
C2674 H2688 0.961 . S
C2675 C2672 1.539 . S
C2675 H2689 0.958 . S
C2675 H2690 0.961 . S
C2675 H2691 0.960 . S
H2676 C2660 0.931 . S
H2677 C2665 0.929 . S
H2678 C2666 0.960 . S
H2679 C2666 0.962 . S
H2680 C2666 0.960 . S
H2681 C2667 0.961 . S
H2682 C2667 0.961 . S
H2683 C2667 0.961 . S
H2684 C2668 0.931 . S
H2685 C2673 0.930 . S
H2686 C2674 0.956 . S
H2687 C2674 0.961 . S
H2688 C2674 0.961 . S
H2689 C2675 0.958 . S
H2690 C2675 0.961 . S
H2691 C2675 0.960 . S
C2692 C2693 1.391 . S
C2692 C2694 1.394 . S
C2692 H2708 0.931 . S
C2693 C2692 1.391 . S
C2693 C2697 1.376 . S
C2694 C2692 1.394 . S
C2694 C2695 1.369 . S
C2694 C2698 1.531 . S
C2695 C2694 1.369 . S
C2695 C2696 1.410 . S
C2695 C2703 1.503 . S
C2696 C2695 1.410 . S
C2696 C2697 1.392 . S
C2696 C2699 1.511 . S
C2697 C2693 1.376 . S
C2697 C2696 1.392 . S
C2697 H2709 0.929 . S
C2698 C2694 1.531 . S
C2698 H2710 0.960 . S
C2698 H2711 0.962 . S
C2698 H2712 0.960 . S
C2699 C2696 1.511 . S
C2699 H2713 0.961 . S
C2699 H2714 0.961 . S
C2699 H2715 0.961 . S
C2700 C2701 1.370 . S
C2700 C2702 1.363 . S
C2700 H2716 0.931 . S
C2701 C2700 1.370 . S
C2701 C2705 1.408 . S
C2702 C2700 1.363 . S
C2702 C2703 1.370 . S
C2702 C2706 1.524 . S
C2703 C2695 1.503 . S
C2703 C2702 1.370 . S
C2703 C2704 1.403 . S
C2704 C2703 1.403 . S
C2704 C2705 1.404 . S
C2704 C2707 1.539 . S
C2705 C2701 1.408 . S
C2705 C2704 1.404 . S
C2705 H2717 0.930 . S
C2706 C2702 1.524 . S
C2706 H2718 0.956 . S
C2706 H2719 0.961 . S
C2706 H2720 0.961 . S
C2707 C2704 1.539 . S
C2707 H2721 0.958 . S
C2707 H2722 0.961 . S
C2707 H2723 0.960 . S
H2708 C2692 0.931 . S
H2709 C2697 0.929 . S
H2710 C2698 0.960 . S
H2711 C2698 0.962 . S
H2712 C2698 0.960 . S
H2713 C2699 0.961 . S
H2714 C2699 0.961 . S
H2715 C2699 0.961 . S
H2716 C2700 0.931 . S
H2717 C2705 0.930 . S
H2718 C2706 0.956 . S
H2719 C2706 0.961 . S
H2720 C2706 0.961 . S
H2721 C2707 0.958 . S
H2722 C2707 0.961 . S
H2723 C2707 0.960 . S
C2724 C2725 1.391 . S
C2724 C2726 1.394 . S
C2724 H2740 0.931 . S
C2725 C2724 1.391 . S
C2725 C2729 1.376 . S
C2726 C2724 1.394 . S
C2726 C2727 1.369 . S
C2726 C2730 1.531 . S
C2727 C2726 1.369 . S
C2727 C2728 1.410 . S
C2727 C2735 1.503 . S
C2728 C2727 1.410 . S
C2728 C2729 1.392 . S
C2728 C2731 1.511 . S
C2729 C2725 1.376 . S
C2729 C2728 1.392 . S
C2729 H2741 0.929 . S
C2730 C2726 1.531 . S
C2730 H2742 0.960 . S
C2730 H2743 0.962 . S
C2730 H2744 0.960 . S
C2731 C2728 1.511 . S
C2731 H2745 0.961 . S
C2731 H2746 0.961 . S
C2731 H2747 0.961 . S
C2732 C2733 1.370 . S
C2732 C2734 1.363 . S
C2732 H2748 0.931 . S
C2733 C2732 1.370 . S
C2733 C2737 1.408 . S
C2734 C2732 1.363 . S
C2734 C2735 1.370 . S
C2734 C2738 1.524 . S
C2735 C2727 1.503 . S
C2735 C2734 1.370 . S
C2735 C2736 1.403 . S
C2736 C2735 1.403 . S
C2736 C2737 1.404 . S
C2736 C2739 1.539 . S
C2737 C2733 1.408 . S
C2737 C2736 1.404 . S
C2737 H2749 0.930 . S
C2738 C2734 1.524 . S
C2738 H2750 0.956 . S
C2738 H2751 0.961 . S
C2738 H2752 0.961 . S
C2739 C2736 1.539 . S
C2739 H2753 0.958 . S
C2739 H2754 0.961 . S
C2739 H2755 0.960 . S
H2740 C2724 0.931 . S
H2741 C2729 0.929 . S
H2742 C2730 0.960 . S
H2743 C2730 0.962 . S
H2744 C2730 0.960 . S
H2745 C2731 0.961 . S
H2746 C2731 0.961 . S
H2747 C2731 0.961 . S
H2748 C2732 0.931 . S
H2749 C2737 0.930 . S
H2750 C2738 0.956 . S
H2751 C2738 0.961 . S
H2752 C2738 0.961 . S
H2753 C2739 0.958 . S
H2754 C2739 0.961 . S
H2755 C2739 0.960 . S
C2756 C2757 1.391 . S
C2756 C2758 1.394 . S
C2756 H2772 0.931 . S
C2757 C2756 1.391 . S
C2757 C2761 1.376 . S
C2758 C2756 1.394 . S
C2758 C2759 1.369 . S
C2758 C2762 1.531 . S
C2759 C2758 1.369 . S
C2759 C2760 1.410 . S
C2759 C2767 1.503 . S
C2760 C2759 1.410 . S
C2760 C2761 1.392 . S
C2760 C2763 1.511 . S
C2761 C2757 1.376 . S
C2761 C2760 1.392 . S
C2761 H2773 0.929 . S
C2762 C2758 1.531 . S
C2762 H2774 0.960 . S
C2762 H2775 0.962 . S
C2762 H2776 0.960 . S
C2763 C2760 1.511 . S
C2763 H2777 0.961 . S
C2763 H2778 0.961 . S
C2763 H2779 0.961 . S
C2764 C2765 1.370 . S
C2764 C2766 1.363 . S
C2764 H2780 0.931 . S
C2765 C2764 1.370 . S
C2765 C2769 1.408 . S
C2766 C2764 1.363 . S
C2766 C2767 1.370 . S
C2766 C2770 1.524 . S
C2767 C2759 1.503 . S
C2767 C2766 1.370 . S
C2767 C2768 1.403 . S
C2768 C2767 1.403 . S
C2768 C2769 1.404 . S
C2768 C2771 1.539 . S
C2769 C2765 1.408 . S
C2769 C2768 1.404 . S
C2769 H2781 0.930 . S
C2770 C2766 1.524 . S
C2770 H2782 0.956 . S
C2770 H2783 0.961 . S
C2770 H2784 0.961 . S
C2771 C2768 1.539 . S
C2771 H2785 0.958 . S
C2771 H2786 0.961 . S
C2771 H2787 0.960 . S
H2772 C2756 0.931 . S
H2773 C2761 0.929 . S
H2774 C2762 0.960 . S
H2775 C2762 0.962 . S
H2776 C2762 0.960 . S
H2777 C2763 0.961 . S
H2778 C2763 0.961 . S
H2779 C2763 0.961 . S
H2780 C2764 0.931 . S
H2781 C2769 0.930 . S
H2782 C2770 0.956 . S
H2783 C2770 0.961 . S
H2784 C2770 0.961 . S
H2785 C2771 0.958 . S
H2786 C2771 0.961 . S
H2787 C2771 0.960 . S
C2788 C2789 1.391 . S
C2788 C2790 1.394 . S
C2788 H2804 0.931 . S
C2789 C2788 1.391 . S
C2789 C2793 1.376 . S
C2790 C2788 1.394 . S
C2790 C2791 1.369 . S
C2790 C2794 1.531 . S
C2791 C2790 1.369 . S
C2791 C2792 1.410 . S
C2791 C2799 1.503 . S
C2792 C2791 1.410 . S
C2792 C2793 1.392 . S
C2792 C2795 1.511 . S
C2793 C2789 1.376 . S
C2793 C2792 1.392 . S
C2793 H2805 0.929 . S
C2794 C2790 1.531 . S
C2794 H2806 0.960 . S
C2794 H2807 0.962 . S
C2794 H2808 0.960 . S
C2795 C2792 1.511 . S
C2795 H2809 0.961 . S
C2795 H2810 0.961 . S
C2795 H2811 0.961 . S
C2796 C2797 1.370 . S
C2796 C2798 1.363 . S
C2796 H2812 0.931 . S
C2797 C2796 1.370 . S
C2797 C2801 1.408 . S
C2798 C2796 1.363 . S
C2798 C2799 1.370 . S
C2798 C2802 1.524 . S
C2799 C2791 1.503 . S
C2799 C2798 1.370 . S
C2799 C2800 1.403 . S
C2800 C2799 1.403 . S
C2800 C2801 1.404 . S
C2800 C2803 1.539 . S
C2801 C2797 1.408 . S
C2801 C2800 1.404 . S
C2801 H2813 0.930 . S
C2802 C2798 1.524 . S
C2802 H2814 0.956 . S
C2802 H2815 0.961 . S
C2802 H2816 0.961 . S
C2803 C2800 1.539 . S
C2803 H2817 0.958 . S
C2803 H2818 0.961 . S
C2803 H2819 0.960 . S
H2804 C2788 0.931 . S
H2805 C2793 0.929 . S
H2806 C2794 0.960 . S
H2807 C2794 0.962 . S
H2808 C2794 0.960 . S
H2809 C2795 0.961 . S
H2810 C2795 0.961 . S
H2811 C2795 0.961 . S
H2812 C2796 0.931 . S
H2813 C2801 0.930 . S
H2814 C2802 0.956 . S
H2815 C2802 0.961 . S
H2816 C2802 0.961 . S
H2817 C2803 0.958 . S
H2818 C2803 0.961 . S
H2819 C2803 0.960 . S
C2820 C2821 1.391 . S
C2820 C2822 1.394 . S
C2820 H2836 0.931 . S
C2821 C2820 1.391 . S
C2821 C2825 1.427 . S
C2822 C2820 1.394 . S
C2822 C2823 1.369 . S
C2822 C2826 1.531 . S
C2823 C2822 1.369 . S
C2823 C2824 1.410 1_655 S
C2823 C2831 1.503 . S
C2824 C2823 1.410 1_455 S
C2824 C2825 1.351 1_455 S
C2824 C2827 1.511 . S
C2825 C2821 1.427 . S
C2825 C2824 1.351 1_655 S
C2825 H2837 0.923 1_655 S
C2826 C2822 1.531 . S
C2826 H2838 0.960 . S
C2826 H2839 0.962 . S
C2826 H2840 0.960 . S
C2827 C2824 1.511 . S
C2827 H2841 0.961 . S
C2827 H2842 0.961 . S
C2827 H2843 0.961 . S
C2828 C2829 1.370 . S
C2828 C2830 1.363 . S
C2828 H2844 0.931 . S
C2829 C2828 1.370 . S
C2829 C2833 1.408 1_655 S
C2830 C2828 1.363 . S
C2830 C2831 1.370 . S
C2830 C2834 1.524 . S
C2831 C2823 1.503 . S
C2831 C2830 1.370 . S
C2831 C2832 1.403 1_655 S
C2832 C2831 1.403 1_455 S
C2832 C2833 1.404 . S
C2832 C2835 1.539 . S
C2833 C2829 1.408 1_455 S
C2833 C2832 1.404 . S
C2833 H2845 0.930 . S
C2834 C2830 1.524 . S
C2834 H2846 0.956 . S
C2834 H2847 0.961 . S
C2834 H2848 0.961 . S
C2835 C2832 1.539 . S
C2835 H2849 0.958 . S
C2835 H2850 0.961 . S
C2835 H2851 0.960 . S
H2836 C2820 0.931 . S
H2837 C2825 0.923 1_455 S
H2838 C2826 0.960 . S
H2839 C2826 0.962 . S
H2840 C2826 0.960 . S
H2841 C2827 0.961 . S
H2842 C2827 0.961 . S
H2843 C2827 0.961 . S
H2844 C2828 0.931 . S
H2845 C2833 0.930 . S
H2846 C2834 0.956 . S
H2847 C2834 0.961 . S
H2848 C2834 0.961 . S
H2849 C2835 0.958 . S
H2850 C2835 0.961 . S
H2851 C2835 0.960 . S
C2852 C2853 1.391 . S
C2852 C2854 1.394 . S
C2852 H2868 0.931 . S
C2853 C2852 1.391 . S
C2853 C2857 1.376 . S
C2854 C2852 1.394 . S
C2854 C2855 1.369 . S
C2854 C2858 1.531 . S
C2855 C2854 1.369 . S
C2855 C2856 1.410 . S
C2855 C2863 1.503 . S
C2856 C2855 1.410 . S
C2856 C2857 1.392 . S
C2856 C2859 1.511 . S
C2857 C2853 1.376 . S
C2857 C2856 1.392 . S
C2857 H2869 0.929 . S
C2858 C2854 1.531 . S
C2858 H2870 0.960 . S
C2858 H2871 0.962 . S
C2858 H2872 0.960 . S
C2859 C2856 1.511 . S
C2859 H2873 0.961 . S
C2859 H2874 0.961 . S
C2859 H2875 0.961 . S
C2860 C2861 1.370 . S
C2860 C2862 1.363 . S
C2860 H2876 0.931 . S
C2861 C2860 1.370 . S
C2861 C2865 1.408 . S
C2862 C2860 1.363 . S
C2862 C2863 1.370 . S
C2862 C2866 1.524 . S
C2863 C2855 1.503 . S
C2863 C2862 1.370 . S
C2863 C2864 1.403 . S
C2864 C2863 1.403 . S
C2864 C2865 1.404 . S
C2864 C2867 1.539 . S
C2865 C2861 1.408 . S
C2865 C2864 1.404 . S
C2865 H2877 0.930 . S
C2866 C2862 1.524 . S
C2866 H2878 0.956 . S
C2866 H2879 0.961 . S
C2866 H2880 0.961 . S
C2867 C2864 1.539 . S
C2867 H2881 0.958 . S
C2867 H2882 0.961 . S
C2867 H2883 0.960 . S
H2868 C2852 0.931 . S
H2869 C2857 0.929 . S
H2870 C2858 0.960 . S
H2871 C2858 0.962 . S
H2872 C2858 0.960 . S
H2873 C2859 0.961 . S
H2874 C2859 0.961 . S
H2875 C2859 0.961 . S
H2876 C2860 0.931 . S
H2877 C2865 0.930 . S
H2878 C2866 0.956 . S
H2879 C2866 0.961 . S
H2880 C2866 0.961 . S
H2881 C2867 0.958 . S
H2882 C2867 0.961 . S
H2883 C2867 0.960 . S
C2884 C2885 1.391 . S
C2884 C2886 1.394 . S
C2884 H2900 0.931 1_545 S
C2885 C2884 1.391 . S
C2885 C2889 1.376 . S
C2886 C2884 1.394 . S
C2886 C2887 1.369 . S
C2886 C2890 1.531 1_545 S
C2887 C2886 1.369 . S
C2887 C2888 1.410 . S
C2887 C2895 1.503 . S
C2888 C2887 1.410 . S
C2888 C2889 1.392 . S
C2888 C2891 1.511 . S
C2889 C2885 1.376 . S
C2889 C2888 1.392 . S
C2889 H2901 0.929 . S
C2890 C2886 1.531 1_565 S
C2890 H2902 0.960 . S
C2890 H2903 0.962 . S
C2890 H2904 0.960 . S
C2891 C2888 1.511 . S
C2891 H2905 0.961 . S
C2891 H2906 0.961 . S
C2891 H2907 0.961 . S
C2892 C2893 1.370 1_565 S
C2892 C2894 1.363 . S
C2892 H2908 0.931 . S
C2893 C2892 1.370 1_545 S
C2893 C2897 1.408 . S
C2894 C2892 1.363 . S
C2894 C2895 1.370 1_565 S
C2894 C2898 1.524 . S
C2895 C2887 1.503 . S
C2895 C2894 1.370 1_545 S
C2895 C2896 1.403 . S
C2896 C2895 1.403 . S
C2896 C2897 1.404 . S
C2896 C2899 1.539 . S
C2897 C2893 1.408 . S
C2897 C2896 1.404 . S
C2897 H2909 0.930 . S
C2898 C2894 1.524 . S
C2898 H2910 0.956 . S
C2898 H2911 0.961 . S
C2898 H2912 0.961 . S
C2899 C2896 1.539 . S
C2899 H2913 0.958 . S
C2899 H2914 0.961 . S
C2899 H2915 0.960 . S
H2900 C2884 0.931 1_565 S
H2901 C2889 0.929 . S
H2902 C2890 0.960 . S
H2903 C2890 0.962 . S
H2904 C2890 0.960 . S
H2905 C2891 0.961 . S
H2906 C2891 0.961 . S
H2907 C2891 0.961 . S
H2908 C2892 0.931 . S
H2909 C2897 0.930 . S
H2910 C2898 0.956 . S
H2911 C2898 0.961 . S
H2912 C2898 0.961 . S
H2913 C2899 0.958 . S
H2914 C2899 0.961 . S
H2915 C2899 0.960 . S
C613 C8 1.537 . S
C621 C440 1.508 1_655 S
C645 C18 1.546 . S
C653 C453 1.525 . S
C685 C482 1.519 1_545 S
C677 C31 1.550 . S
C709 C34 1.544 . S
C717 C495 1.527 . S
C741 C5 1.552 . S
C749 C516 1.534 . S
C773 C21 1.543 . S
C781 C545 1.502 . S
C805 C47 1.464 . S
C813 C524 1.538 . S
C845 C537 1.523 . S
C837 C57 1.503 . S
C877 C503 1.509 . S
C869 C70 1.508 . S
C901 C73 1.470 . S
C909 C474 1.519 1_545 S
C941 C432 1.542 1_655 S
C933 C44 1.523 . S
C965 C60 1.531 . S
C973 C461 1.514 . S
C997 C86 1.530 . S
C1005 C566 1.562 . S
C1029 C96 1.521 . S
C1037 C579 1.548 . S
C1069 C608 1.530 . S
C1061 C109 1.557 . S
C1093 C112 1.549 . S
C1101 C243 1.604 . S
C1125 C83 1.600 . S
C1133 C264 1.593 . S
C1157 C99 1.502 . S
C1165 C293 1.537 . S
C1189 C125 1.542 . S
C1197 C272 1.530 . S
C1221 C135 1.537 . S
C1229 C285 1.541 . S
C1261 C251 1.548 . S
C1253 C148 1.572 . S
C1293 C600 1.567 . S
C1285 C151 1.530 . S
C1325 C558 1.535 . S
C1317 C122 1.539 . S
C1357 C587 1.566 . S
C1349 C138 1.512 . S
C1381 C164 1.512 . S
C1389 C314 1.543 . S
C1413 C174 1.523 . S
C1421 C327 1.546 . S
C1445 C187 1.550 . S
C1453 C356 1.524 . S
C1477 C190 1.610 . S
C1485 C369 1.610 . S
C1517 C390 1.581 . S
C1509 C161 1.573 . S
C1549 C419 1.534 . S
C1541 C177 1.543 . S
C1581 C398 1.561 . S
C1573 C203 1.572 . S
C1613 C411 1.522 . S
C1605 C213 1.549 . S
C1637 C226 1.532 . S
C1645 C377 1.561 . S
C1677 C348 1.553 . S
C1669 C229 1.535 . S
C1701 C200 1.543 . S
C1709 C306 1.550 . S
C1741 C335 1.564 . S
C1733 C216 1.497 . S
C1773 C246 1.284 . S
C1765 C0 1.328 . S
C1797 C23 1.344 . S
C1805 C267 1.215 . S
C1837 C295 1.287 . S
C1829 C36 1.384 . S
C1869 C316 1.312 . S
C1861 C26 1.325 1_556 S
C1901 C330 1.245 . S
C1893 C10 1.341 1_556 S
C1933 C358 1.224 . S
C1925 C13 1.318 . S
C1957 C39 1.400 . S
C1965 C351 1.247 . S
C1989 C62 1.349 . S
C1997 C309 1.221 . S
C2021 C75 1.380 . S
C2029 C337 1.307 . S
C2053 C65 1.412 . S
C2061 C274 1.388 . S
C2093 C288 1.237 . S
C2085 C49 1.368 . S
C2117 C52 1.310 . S
C2125 C253 1.296 . S
C2157 C372 1.275 . S
C2149 C78 1.347 . S
C2181 C101 1.400 . S
C2189 C393 1.280 . S
C2213 C114 1.425 . S
C2221 C421 1.287 . S
C2253 C442 1.231 . S
C2245 C104 1.340 . S
C2277 C88 1.362 . S
C2285 C456 1.225 . S
C2309 C91 1.289 . S
C2317 C484 1.185 . S
C2341 C117 1.288 . S
C2349 C477 1.226 . S
C2373 C140 1.316 . S
C2381 C435 1.209 . S
C2413 C463 1.291 . S
C2405 C153 1.402 . S
C2437 C143 1.378 . S
C2445 C400 1.318 . S
C2469 C127 1.429 . S
C2477 C414 1.269 . S
C2509 C379 1.341 . S
C2501 C130 1.407 . S
C2541 C498 1.170 1_545 S
C2533 C156 1.308 . S
C2565 C179 1.311 . S
C2573 C519 1.172 1_655 S
C2597 C192 1.386 . S
C2605 C547 1.270 . S
C2637 C568 1.289 . S
C2629 C182 1.319 . S
C2669 C582 1.278 . S
C2661 C166 1.414 . S
C2693 C169 1.385 . S
C2701 C610 1.261 . S
C2725 C195 1.399 . S
C2733 C603 1.235 . S
C2757 C218 1.415 . S
C2765 C561 1.225 . S
C2797 C589 1.348 . S
C2789 C231 1.410 . S
C2829 C526 1.271 1_655 S
C2821 C221 1.294 . S
C2861 C540 1.212 . S
C2853 C205 1.381 . S
C2885 C208 1.299 . S
C2893 C505 1.225 1_545 S
