# Generated by pormake.
# Topology pth, (4,4)-cn, num edge types: 1
# Building blocks:
#     Node 0, Type 0, BuildingBlock: KUFVIS_clean_sbu_0, # of connection points: 4
#     Node 1, Type 0, BuildingBlock: KUFVIS_clean_sbu_0, # of connection points: 4
#     Node 2, Type 0, BuildingBlock: KUFVIS_clean_sbu_0, # of connection points: 4
#     Node 3, Type 1, BuildingBlock: MUDLON_clean_linker_0, # of connection points: 4
#     Node 4, Type 1, BuildingBlock: MUDLON_clean_linker_0, # of connection points: 4
#     Node 5, Type 1, BuildingBlock: MUDLON_clean_linker_0, # of connection points: 4
#     Edge 6, Type (0, 1), BuildingBlock: ZUJKAS_clean_linker_0, # of connection points: 2
#     Edge 7, Type (0, 1), BuildingBlock: ZUJKAS_clean_linker_0, # of connection points: 2
#     Edge 8, Type (0, 1), BuildingBlock: ZUJKAS_clean_linker_0, # of connection points: 2
#     Edge 9, Type (0, 1), BuildingBlock: ZUJKAS_clean_linker_0, # of connection points: 2
#     Edge 10, Type (0, 1), BuildingBlock: ZUJKAS_clean_linker_0, # of connection points: 2
#     Edge 11, Type (0, 1), BuildingBlock: ZUJKAS_clean_linker_0, # of connection points: 2
#     Edge 12, Type (0, 1), BuildingBlock: ZUJKAS_clean_linker_0, # of connection points: 2
#     Edge 13, Type (0, 1), BuildingBlock: ZUJKAS_clean_linker_0, # of connection points: 2
#     Edge 14, Type (0, 1), BuildingBlock: ZUJKAS_clean_linker_0, # of connection points: 2
#     Edge 15, Type (0, 1), BuildingBlock: ZUJKAS_clean_linker_0, # of connection points: 2
#     Edge 16, Type (0, 1), BuildingBlock: ZUJKAS_clean_linker_0, # of connection points: 2
#     Edge 17, Type (0, 1), BuildingBlock: ZUJKAS_clean_linker_0, # of connection points: 2
# Relax obj value: 0.036
# Max RMSD: 0.104
# Mean RMSD: 0.093
data_MOF--net-pth--node1-KUFVIS_clean_sbu_0--node2-MUDLON_clean_linker_0--edge1-ZUJKAS_clean_linker_0
_symmetry_space_group_name_H-M    P1
_symmetry_Int_Tables_number       1
_symmetry_cell_setting            triclinic
loop_
_symmetry_equiv_pos_as_xyz
'x, y, z'
_cell_length_a     40.743357
_cell_length_b     40.832422
_cell_length_c     84.209513
_cell_angle_alpha  90.389809
_cell_angle_beta   91.626419
_cell_angle_gamma 120.18379
loop_
_atom_site_label
_atom_site_type_symbol
_atom_site_fract_x
_atom_site_fract_y
_atom_site_fract_z
_atom_type_partial_charge
Mn0 Mn 0.03107 0.02564 0.04145 0.0
Mn1 Mn 0.97971 0.05299 0.01881 0.0
C2 C 0.9958 0.98901 0.01955 0.0
C3 C 0.03736 0.9933 0.06299 0.0
C4 C 0.06494 0.08812 0.0168 0.0
O5 O 0.02861 0.06465 0.05582 0.0
O6 O 0.99315 0.07967 0.03985 0.0
C7 C 0.91076 0.01987 0.03789 0.0
N8 N 0.92732 0.02334 0.0237 0.0
C9 C 0.86673 0.98264 0.01049 0.0
C10 C 0.84898 0.97879 0.02494 0.0
C11 C 0.87112 0.99739 0.03871 0.0
C12 C 0.90633 0.0054 0.01041 0.0
H13 H 0.92769 0.03415 0.04849 0.0
C14 C 0.01158 0.08312 0.05293 0.0
O15 O 0.06682 0.02119 0.05672 0.0
O16 O 0.00426 0.98511 0.05709 0.0
N17 N 0.96419 0.02965 0.99811 0.0
C18 C 0.98588 0.03472 0.98532 0.0
C19 C 0.96811 0.01791 0.97059 0.0
C20 C 0.92829 0.99633 0.96915 0.0
C21 C 0.90659 0.99122 0.9825 0.0
C22 C 0.92584 0.00911 0.9968 0.0
H23 H 0.01648 0.05168 0.98634 0.0
O24 O 0.02427 0.98651 0.02535 0.0
O25 O 0.98852 0.01281 0.0268 0.0
O26 O 0.06876 0.068 0.02741 0.0
O27 O 0.03292 0.08467 0.01267 0.0
C28 C 0.86666 0.9688 0.9822 0.0
C29 C 0.84675 0.96435 0.99621 0.0
H30 H 0.81842 0.96142 0.02562 0.0
H31 H 0.85765 0.99443 0.04992 0.0
H32 H 0.98504 0.02175 0.96035 0.0
H33 H 0.91465 0.98359 0.95775 0.0
H34 H 0.85102 0.95447 0.97132 0.0
H35 H 0.8161 0.9466 0.99589 0.0
Mn36 Mn 0.01196 0.02309 0.37474 0.0
Mn37 Mn 0.05971 0.10539 0.39594 0.0
C38 C 0.05055 0.0279 0.39639 0.0
C39 C 0.00745 0.98313 0.35385 0.0
C40 C 0.97596 0.04982 0.39944 0.0
O41 O 0.00923 0.06069 0.35981 0.0
O42 O 0.04205 0.11381 0.37493 0.0
C43 C 0.12594 0.14373 0.37543 0.0
N44 N 0.11156 0.13152 0.39001 0.0
C45 C 0.17426 0.15803 0.40208 0.0
C46 C 0.18977 0.17109 0.38721 0.0
C47 C 0.16549 0.16378 0.37382 0.0
C48 C 0.13464 0.13817 0.40294 0.0
H49 H 0.10737 0.1382 0.36512 0.0
C50 C 0.02341 0.09626 0.36216 0.0
O51 O 0.97734 0.9794 0.36042 0.0
O52 O 0.04001 0.01086 0.35903 0.0
N53 N 0.07901 0.10235 0.41651 0.0
C54 C 0.05949 0.08624 0.42982 0.0
C55 C 0.07959 0.09092 0.44427 0.0
C56 C 0.11947 0.11229 0.4449 0.0
C57 C 0.13894 0.12827 0.43103 0.0
C58 C 0.11739 0.12313 0.41702 0.0
H59 H 0.02883 0.07011 0.42942 0.0
O60 O 0.0234 0.99512 0.39122 0.0
O61 O 0.0547 0.0572 0.38865 0.0
O62 O 0.97336 0.02575 0.389 0.0
O63 O 0.00696 0.08032 0.4031 0.0
C64 C 0.17888 0.14881 0.43052 0.0
C65 C 0.19653 0.16351 0.41603 0.0
H66 H 0.22026 0.18652 0.38591 0.0
H67 H 0.17723 0.17363 0.36229 0.0
H68 H 0.06439 0.07826 0.45492 0.0
H69 H 0.1349 0.11605 0.45609 0.0
H70 H 0.19629 0.15308 0.44116 0.0
H71 H 0.22726 0.17881 0.41574 0.0
Mn72 Mn 0.03175 0.03606 0.70912 0.0
Mn73 Mn 0.99458 0.08181 0.72846 0.0
C74 C 0.06283 0.07266 0.73165 0.0
C75 C 0.06979 0.03419 0.68933 0.0
C76 C 0.96494 0.99754 0.73125 0.0
O77 O 0.99294 0.03449 0.6929 0.0
O78 O 0.97224 0.06787 0.70648 0.0
C79 C 0.02684 0.15144 0.70958 0.0
N80 N 0.02207 0.13449 0.72387 0.0
C81 C 0.05527 0.19482 0.73775 0.0
C82 C 0.06045 0.21298 0.72319 0.0
C83 C 0.04635 0.19118 0.70904 0.0
C84 C 0.03596 0.15517 0.73753 0.0
H85 H 0.01572 0.13474 0.69871 0.0
C86 C 0.97223 0.04959 0.69405 0.0
O87 O 0.04263 0.00329 0.69511 0.0
O88 O 0.07406 0.06596 0.69475 0.0
N89 N 0.01345 0.09728 0.74985 0.0
C90 C 0.00772 0.07538 0.76278 0.0
C91 C 0.0208 0.0928 0.77786 0.0
C92 C 0.03898 0.13244 0.77952 0.0
C93 C 0.04448 0.15436 0.76604 0.0
C94 C 0.03111 0.13544 0.75131 0.0
H95 H 0.99317 0.04487 0.76159 0.0
O96 O 0.06935 0.04626 0.72685 0.0
O97 O 0.0386 0.0773 0.72297 0.0
O98 O 0.98872 0.99591 0.7222 0.0
O99 O 0.9647 0.02812 0.73421 0.0
C100 C 0.06268 0.19423 0.76662 0.0
C101 C 0.06849 0.21447 0.75248 0.0
H102 H 0.0753 0.24361 0.72273 0.0
H103 H 0.0503 0.20497 0.69775 0.0
H104 H 0.01652 0.0757 0.7882 0.0
H105 H 0.04869 0.14573 0.7912 0.0
H106 H 0.07273 0.20965 0.77788 0.0
H107 H 0.08317 0.24515 0.75306 0.0
H108 H 0.99108 0.67039 0.21162 0.0
N109 N 0.05718 0.66801 0.21053 0.0
H110 H 0.97495 0.70169 0.23217 0.0
H111 H 0.09214 0.69379 0.23884 0.0
H112 H 0.07559 0.72473 0.25972 0.0
H113 H 0.11739 0.73246 0.20251 0.0
H114 H 0.12116 0.77386 0.18092 0.0
H115 H 0.00393 0.64933 0.18629 0.0
H116 H 0.00679 0.69098 0.16502 0.0
H117 H 0.98431 0.60778 0.21272 0.0
H118 H 0.09984 0.6378 0.20425 0.0
H119 H 0.96492 0.54091 0.21131 0.0
H120 H 0.08039 0.57072 0.20189 0.0
H121 H 0.92429 0.35512 0.22892 0.0
H122 H 0.93116 0.31911 0.25066 0.0
H123 H 0.04577 0.35592 0.23694 0.0
H124 H 0.03841 0.39089 0.21521 0.0
H125 H 0.03639 0.41491 0.18851 0.0
H126 H 0.04404 0.37818 0.16732 0.0
H127 H 0.92615 0.29148 0.17056 0.0
H128 H 0.91902 0.32809 0.19193 0.0
H129 H 0.93423 0.42243 0.19518 0.0
H130 H 0.95396 0.48971 0.19478 0.0
H131 H 0.06186 0.51706 0.21721 0.0
N132 N 0.97315 0.39089 0.20623 0.0
H133 H 0.04274 0.4504 0.21672 0.0
C134 C 0.04325 0.68008 0.22361 0.0
C135 C 0.00953 0.68162 0.22212 0.0
C136 C 1.00031 0.69963 0.23387 0.0
C137 C 0.02423 0.71595 0.24743 0.0
C138 C 0.05658 0.71225 0.2494 0.0
C139 C 0.06605 0.69462 0.23752 0.0
C140 C 0.06049 0.68802 0.19607 0.0
C141 C 0.09357 0.72291 0.19409 0.0
C142 C 0.09545 0.74667 0.18187 0.0
C143 C 0.06401 0.73607 0.17139 0.0
C144 C 0.03159 0.7 0.17281 0.0
C145 C 0.02986 0.67613 0.18501 0.0
C146 C 0.04387 0.628 0.20886 0.0
C147 C 0.00556 0.60008 0.21045 0.0
C148 C 0.99439 0.5616 0.20946 0.0
C149 C 0.02108 0.55011 0.20659 0.0
C150 C 0.05912 0.57826 0.20449 0.0
C151 C 0.07031 0.61667 0.2057 0.0
C152 C 0.98067 0.37583 0.22046 0.0
C153 C 0.95113 0.35604 0.23087 0.0
C154 C 0.95513 0.33548 0.24326 0.0
C155 C 0.98888 0.33429 0.24541 0.0
C156 C 0.01916 0.35569 0.23543 0.0
C157 C 0.01511 0.37614 0.22307 0.0
C158 C 0.977 0.37408 0.19181 0.0
C159 C 0.01202 0.3884 0.18443 0.0
C160 C 0.01636 0.36736 0.17231 0.0
C161 C 0.98584 0.33165 0.16744 0.0
C162 C 0.95039 0.31853 0.17427 0.0
C163 C 0.94611 0.33955 0.18632 0.0
C164 C 0.98655 0.43105 0.20612 0.0
C165 C 0.9622 0.44309 0.19992 0.0
C166 C 0.97348 0.48158 0.19984 0.0
C167 C 0.00947 0.50908 0.20609 0.0
C168 C 0.03412 0.49693 0.2121 0.0
C169 C 0.02297 0.45844 0.21199 0.0
H170 H 0.67245 0.04034 0.54419 0.0
N171 N 0.6053 0.97418 0.53823 0.0
H172 H 0.72036 0.05149 0.56483 0.0
H173 H 0.59892 0.92885 0.56198 0.0
H174 H 0.64704 0.9397 0.58274 0.0
H175 H 0.61246 0.91943 0.52466 0.0
H176 H 0.65072 0.92456 0.5019 0.0
H177 H 0.63779 0.03436 0.51831 0.0
H178 H 0.67636 0.03984 0.49556 0.0
H179 H 0.61288 0.03701 0.5547 0.0
H180 H 0.53832 0.94417 0.52278 0.0
H181 H 0.56581 0.05617 0.55614 0.0
H182 H 0.49177 0.96497 0.52329 0.0
H183 H 0.4054 0.11349 0.55674 0.0
H184 H 0.36507 0.10809 0.57863 0.0
H185 H 0.33739 0.99204 0.58482 0.0
H186 H 0.37649 0.99732 0.56262 0.0
H187 H 0.3461 0.9943 0.53509 0.0
H188 H 0.30255 0.98667 0.51303 0.0
H189 H 0.3822 0.09937 0.49768 0.0
H190 H 0.42543 0.10695 0.52006 0.0
H191 H 0.48775 0.10294 0.54535 0.0
H192 H 0.5358 0.08427 0.54329 0.0
H193 H 0.44665 0.96678 0.53871 0.0
N194 N 0.41289 0.05893 0.54331 0.0
H195 H 0.39928 0.98618 0.53957 0.0
C196 C 0.63199 0.98356 0.55152 0.0
C197 C 0.66646 0.01833 0.55262 0.0
C198 C 0.69396 0.02461 0.56439 0.0
C199 C 0.68767 0.99633 0.57531 0.0
C200 C 0.65264 0.96216 0.57457 0.0
C201 C 0.62513 0.95588 0.56275 0.0
C202 C 0.62228 0.97636 0.52318 0.0
C203 C 0.62561 0.94546 0.51811 0.0
C204 C 0.6477 0.94857 0.50522 0.0
C205 C 0.66687 0.98275 0.49708 0.0
C206 C 0.66176 0.0131 0.50156 0.0
C207 C 0.63976 0.01001 0.51456 0.0
C208 C 0.57926 0.98859 0.53865 0.0
C209 C 0.58669 0.02082 0.54778 0.0
C210 C 0.55956 0.03214 0.54851 0.0
C211 C 0.52463 0.01215 0.5399 0.0
C212 C 0.5178 0.98065 0.53043 0.0
C213 C 0.54462 0.9689 0.52995 0.0
C214 C 0.3943 0.0561 0.558 0.0
C215 C 0.39122 0.08716 0.56307 0.0
C216 C 0.36816 0.08398 0.57561 0.0
C217 C 0.34768 0.0495 0.58348 0.0
C218 C 0.35219 0.01882 0.57887 0.0
C219 C 0.37505 0.02198 0.56621 0.0
C220 C 0.38907 0.05138 0.52922 0.0
C221 C 0.35459 0.01708 0.52682 0.0
C222 C 0.32968 0.01272 0.51415 0.0
C223 C 0.33875 0.04254 0.50367 0.0
C224 C 0.37411 0.07609 0.50569 0.0
C225 C 0.39895 0.08039 0.51836 0.0
C226 C 0.44 0.04612 0.5429 0.0
C227 C 0.47876 0.07318 0.54394 0.0
C228 C 0.50617 0.06233 0.54286 0.0
C229 C 0.49537 0.02387 0.54091 0.0
C230 C 0.45629 0.99671 0.53995 0.0
C231 C 0.42894 0.00772 0.54073 0.0
H232 H 0.64963 0.72297 0.88591 0.0
N233 N 0.63712 0.66033 0.87083 0.0
H234 H 0.69516 0.75685 0.90795 0.0
H235 H 0.68017 0.6361 0.88695 0.0
H236 H 0.72561 0.66963 0.90903 0.0
H237 H 0.69917 0.65829 0.86017 0.0
H238 H 0.73481 0.68956 0.83687 0.0
H239 H 0.61743 0.69247 0.84807 0.0
H240 H 0.65247 0.72309 0.82432 0.0
H241 H 0.56807 0.63368 0.88163 0.0
H242 H 0.64226 0.59791 0.86242 0.0
H243 H 0.51861 0.56744 0.88436 0.0
H244 H 0.59276 0.53178 0.8646 0.0
H245 H 0.39708 0.41548 0.89579 0.0
H246 H 0.35762 0.38681 0.91863 0.0
H247 H 0.39109 0.30179 0.91946 0.0
H248 H 0.43072 0.3309 0.89667 0.0
H249 H 0.44471 0.34358 0.85893 0.0
H250 H 0.40167 0.30651 0.83649 0.0
H251 H 0.32972 0.35278 0.84697 0.0
H252 H 0.37191 0.3887 0.86943 0.0
H253 H 0.42561 0.44694 0.8712 0.0
H254 H 0.47495 0.51266 0.86875 0.0
H255 H 0.55963 0.48426 0.88398 0.0
N256 N 0.43588 0.38754 0.87971 0.0
H257 H 0.50977 0.4178 0.8859 0.0
C258 C 0.66149 0.67718 0.88478 0.0
C259 C 0.66578 0.71098 0.89108 0.0
C260 C 0.69168 0.73016 0.90369 0.0
C261 C 0.71403 0.71592 0.91021 0.0
C262 C 0.70906 0.68148 0.90414 0.0
C263 C 0.68294 0.66219 0.89157 0.0
C264 C 0.65562 0.67331 0.85595 0.0
C265 C 0.68835 0.6718 0.85232 0.0
C266 C 0.7087 0.6896 0.83889 0.0
C267 C 0.69675 0.7092 0.82879 0.0
C268 C 0.66287 0.70886 0.832 0.0
C269 C 0.64262 0.69113 0.84546 0.0
C270 C 0.60865 0.62085 0.87173 0.0
C271 C 0.57348 0.61146 0.87786 0.0
C272 C 0.54524 0.57361 0.87933 0.0
C273 C 0.5516 0.54419 0.87464 0.0
C274 C 0.58702 0.55367 0.8685 0.0
C275 C 0.61534 0.59161 0.8671 0.0
C276 C 0.41687 0.37518 0.8945 0.0
C277 C 0.39648 0.3911 0.90103 0.0
C278 C 0.37372 0.37453 0.91405 0.0
C279 C 0.37101 0.34187 0.92081 0.0
C280 C 0.39284 0.32716 0.91468 0.0
C281 C 0.41543 0.34365 0.90165 0.0
C282 C 0.41201 0.36932 0.86574 0.0
C283 C 0.41992 0.34606 0.8562 0.0
C284 C 0.3953 0.32485 0.84349 0.0
C285 C 0.36251 0.32696 0.83999 0.0
C286 C 0.35512 0.35108 0.84926 0.0
C287 C 0.3794 0.37179 0.86211 0.0
C288 C 0.464 0.42714 0.87866 0.0
C289 C 0.45463 0.45453 0.874 0.0
C290 C 0.48303 0.49242 0.8727 0.0
C291 C 0.52137 0.50385 0.87613 0.0
C292 C 0.53052 0.47642 0.88098 0.0
C293 C 0.50209 0.43851 0.88221 0.0
H294 H 0.98487 0.13219 0.04984 0.0
H295 H 0.98478 0.17539 0.06982 0.0
H296 H 0.03935 0.13819 0.10393 0.0
H297 H 0.04023 0.09496 0.08381 0.0
H298 H 0.94916 0.15672 0.09802 0.0
H299 H 0.1044 0.25376 0.10805 0.0
H300 H 0.08469 0.22115 0.09122 0.0
H301 H 0.08863 0.20439 0.11045 0.0
C302 C 0.99713 0.13319 0.06154 0.0
C303 C 0.0126 0.10998 0.06518 0.0
C304 C 0.99704 0.15801 0.07296 0.0
C305 C 0.0124 0.16033 0.08831 0.0
C306 C 0.02801 0.13739 0.09205 0.0
H307 H 0.95998 0.25598 0.16952 0.0
H308 H 0.96754 0.21478 0.15065 0.0
C309 C 0.02828 0.11253 0.08057 0.0
C310 C 0.0102 0.1856 0.10044 0.0
H311 H 0.06375 0.26282 0.12488 0.0
C312 C 0.97422 0.1799 0.1039 0.0
C313 C 0.04297 0.2161 0.10795 0.0
C314 C 0.08242 0.22456 0.10417 0.0
C315 C 0.97004 0.20377 0.11467 0.0
C316 C 0.00271 0.23375 0.12246 0.0
C317 C 0.03876 0.23965 0.11896 0.0
C318 C 0.99981 0.25927 0.13422 0.0
C319 C 0.9307 0.19717 0.11734 0.0
C320 C 0.01647 0.29822 0.13148 0.0
C321 C 0.01222 0.32194 0.14228 0.0
C322 C 0.99123 0.30704 0.15599 0.0
C323 C 0.97547 0.26816 0.15887 0.0
C324 C 0.97985 0.24458 0.14812 0.0
H325 H 0.9103 0.17986 0.10754 0.0
H326 H 0.92017 0.18168 0.12854 0.0
H327 H 0.931 0.22443 0.11843 0.0
H328 H 0.03212 0.31012 0.12083 0.0
H329 H 0.02468 0.35175 0.13974 0.0
H330 H 0.90169 0.99937 0.39077 0.0
H331 H 0.84475 0.9879 0.4044 0.0
H332 H 0.91492 0.07033 0.44085 0.0
H333 H 0.97175 0.08293 0.42706 0.0
H334 H 0.82067 0.96113 0.43262 0.0
H335 H 0.84139 0.10547 0.43072 0.0
H336 H 0.86927 0.09146 0.41927 0.0
H337 H 0.88197 0.10607 0.43984 0.0
C338 C 0.905 0.01521 0.40165 0.0
C339 C 0.94132 0.04225 0.40776 0.0
C340 C 0.8724 0.00866 0.40941 0.0
C341 C 0.87546 0.02886 0.42347 0.0
C342 C 0.91171 0.0553 0.42975 0.0
H343 H 0.72127 0.96293 0.49924 0.0
H344 H 0.76858 0.97258 0.47991 0.0
C345 C 0.94426 0.06222 0.4219 0.0
C346 C 0.84094 0.02105 0.43203 0.0
H347 H 0.79812 0.06424 0.45004 0.0
C348 C 0.81549 0.98363 0.43624 0.0
C349 C 0.83356 0.0502 0.43646 0.0
C350 C 0.85779 0.09045 0.43118 0.0
C351 C 0.78396 0.97484 0.44539 0.0
C352 C 0.77836 0.00445 0.45091 0.0
C353 C 0.80272 0.04159 0.44605 0.0
C354 C 0.74871 0.99782 0.46238 0.0
C355 C 0.75699 0.93386 0.44902 0.0
C356 C 0.72251 0.01 0.45924 0.0
C357 C 0.69565 0.00498 0.47043 0.0
C358 C 0.69447 0.98753 0.4849 0.0
C359 C 0.72087 0.9756 0.48802 0.0
C360 C 0.74787 0.98098 0.47695 0.0
H361 H 0.75716 0.91462 0.43967 0.0
H362 H 0.76617 0.92697 0.46043 0.0
H363 H 0.72745 0.9281 0.45005 0.0
H364 H 0.72286 0.0234 0.44814 0.0
H365 H 0.67568 0.0145 0.46773 0.0
H366 H 0.95739 0.92656 0.73041 0.0
H367 H 0.90958 0.86945 0.74343 0.0
H368 H 0.85989 0.93226 0.76241 0.0
H369 H 0.90696 0.98905 0.74953 0.0
H370 H 0.89559 0.86043 0.77655 0.0
H371 H 0.7683 0.83772 0.74167 0.0
H372 H 0.81601 0.86724 0.73497 0.0
H373 H 0.79687 0.88543 0.74929 0.0
C374 C 0.93613 0.92816 0.73726 0.0
C375 C 0.93602 0.96247 0.73884 0.0
C376 C 0.90886 0.8955 0.74469 0.0
C377 C 0.88082 0.89651 0.75363 0.0
C378 C 0.88076 0.93065 0.75527 0.0
H379 H 0.71209 0.77972 0.82011 0.0
H380 H 0.75562 0.82005 0.80018 0.0
C381 C 0.90795 0.96322 0.74795 0.0
C382 C 0.8525 0.86263 0.762 0.0
H383 H 0.7571 0.80752 0.76692 0.0
C384 C 0.86529 0.84826 0.77427 0.0
C385 C 0.81303 0.84685 0.75895 0.0
C386 C 0.79768 0.85984 0.7454 0.0
C387 C 0.8396 0.8201 0.78423 0.0
C388 C 0.80015 0.80564 0.78166 0.0
C389 C 0.78736 0.81877 0.76891 0.0
C390 C 0.77197 0.77952 0.7929 0.0
C391 C 0.8549 0.80756 0.79798 0.0
C392 C 0.76609 0.74296 0.79517 0.0
C393 C 0.74093 0.71961 0.80653 0.0
C394 C 0.7211 0.73239 0.81576 0.0
C395 C 0.72636 0.76867 0.81307 0.0
C396 C 0.75144 0.7919 0.80174 0.0
H397 H 0.8861 0.82615 0.79991 0.0
H398 H 0.84079 0.80737 0.80909 0.0
H399 H 0.84889 0.77828 0.79553 0.0
H400 H 0.78119 0.73263 0.78826 0.0
H401 H 0.73714 0.69164 0.80814 0.0
H402 H 0.98066 0.93155 0.07715 0.0
H403 H 0.98718 0.88994 0.09611 0.0
H404 H 0.10915 0.96031 0.09599 0.0
H405 H 0.10291 0.00188 0.07682 0.0
H406 H 0.08422 0.8838 0.0918 0.0
H407 H 0.01663 0.90777 0.1434 0.0
H408 H 0.98766 0.89431 0.12542 0.0
H409 H 0.0318 0.93863 0.12661 0.0
C410 C 0.00888 0.93848 0.0813 0.0
C411 C 0.04128 0.9701 0.07552 0.0
C412 C 0.01254 0.91472 0.09219 0.0
C413 C 0.04863 0.92226 0.0976 0.0
C414 C 0.08103 0.95406 0.092 0.0
H415 H 0.09251 0.81202 0.17627 0.0
H416 H 0.09079 0.85717 0.15794 0.0
C417 C 0.0774 0.97785 0.0811 0.0
C418 C 0.05257 0.896 0.10854 0.0
H419 H 0.02779 0.85595 0.1449 0.0
C420 C 0.07207 0.87784 0.10345 0.0
C421 C 0.037 0.88854 0.12378 0.0
C422 C 0.01741 0.90859 0.13022 0.0
C423 C 0.07586 0.85191 0.11309 0.0
C424 C 0.05917 0.84349 0.12812 0.0
C425 C 0.04024 0.86215 0.13331 0.0
C426 C 0.06162 0.81601 0.13882 0.0
C427 C 0.0982 0.83422 0.10721 0.0
C428 C 0.04578 0.77777 0.13415 0.0
C429 C 0.04708 0.75183 0.14457 0.0
C430 C 0.06409 0.76364 0.15989 0.0
C431 C 0.07992 0.80203 0.16447 0.0
C432 C 0.07865 0.82787 0.15405 0.0
H433 H 0.11723 0.85081 0.09757 0.0
H434 H 0.11564 0.83187 0.11702 0.0
H435 H 0.0782 0.80528 0.1024 0.0
H436 H 0.03187 0.76784 0.12255 0.0
H437 H 0.03473 0.72255 0.14064 0.0
H438 H 0.03777 0.98695 0.4231 0.0
H439 H 0.08518 0.98506 0.44103 0.0
H440 H 0.17481 0.06985 0.41333 0.0
H441 H 0.12724 0.06865 0.39459 0.0
H442 H 0.19178 0.01985 0.42041 0.0
H443 H 0.14578 0.05551 0.47588 0.0
H444 H 0.11047 0.00974 0.46817 0.0
H445 H 0.12172 0.05133 0.45711 0.0
C446 C 0.06767 0.00542 0.42101 0.0
C447 C 0.07908 0.02957 0.40801 0.0
C448 C 0.09475 0.00455 0.4313 0.0
C449 C 0.13377 0.02834 0.42894 0.0
C450 C 0.14499 0.05167 0.41564 0.0
H451 H 0.32124 0.09689 0.49595 0.0
H452 H 0.27205 0.0916 0.47711 0.0
C453 C 0.11788 0.05165 0.4051 0.0
C454 C 0.16305 0.02803 0.43984 0.0
H455 H 0.19331 0.03766 0.47877 0.0
C456 C 0.19211 0.02394 0.43316 0.0
C457 C 0.1635 0.03297 0.45656 0.0
C458 C 0.13385 0.03797 0.4648 0.0
C459 C 0.22176 0.02534 0.44262 0.0
C460 C 0.22209 0.03039 0.45924 0.0
C461 C 0.1929 0.03386 0.46598 0.0
C462 C 0.25326 0.03373 0.46986 0.0
C463 C 0.253 0.02239 0.43474 0.0
C464 C 0.25908 0.00293 0.47196 0.0
C465 C 0.2874 0.00592 0.48268 0.0
C466 C 0.31033 0.03978 0.49147 0.0
C467 C 0.30459 0.07065 0.48916 0.0
C468 C 0.27628 0.0676 0.4785 0.0
H469 H 0.25261 0.0262 0.4217 0.0
H470 H 0.28126 0.0439 0.43987 0.0
H471 H 0.24933 0.99396 0.43685 0.0
H472 H 0.24125 0.97637 0.46554 0.0
H473 H 0.29121 0.9817 0.48415 0.0
H474 H 0.08594 0.05785 0.75981 0.0
H475 H 0.13693 0.10346 0.77804 0.0
H476 H 0.15076 0.19515 0.74853 0.0
H477 H 0.1006 0.14948 0.73006 0.0
H478 H 0.21472 0.15682 0.76641 0.0
H479 H 0.14616 0.2282 0.79599 0.0
H480 H 0.11917 0.18145 0.78691 0.0
H481 H 0.14095 0.22246 0.77468 0.0
C482 C 0.09936 0.08784 0.75745 0.0
C483 C 0.08857 0.10039 0.74387 0.0
C484 C 0.12846 0.11378 0.7678 0.0
C485 C 0.14731 0.15264 0.7647 0.0
C486 C 0.13611 0.16533 0.75128 0.0
H487 H 0.32949 0.34762 0.81646 0.0
H488 H 0.28001 0.30608 0.79685 0.0
C489 C 0.10722 0.13932 0.74084 0.0
C490 C 0.18059 0.17949 0.77481 0.0
H491 H 0.21086 0.25168 0.80221 0.0
C492 C 0.21398 0.17759 0.77427 0.0
C493 C 0.17964 0.20682 0.78483 0.0
C494 C 0.14453 0.20996 0.78579 0.0
C495 C 0.24658 0.20249 0.78349 0.0
C496 C 0.24527 0.22917 0.79389 0.0
C497 C 0.21191 0.23124 0.79427 0.0
C498 C 0.27763 0.25463 0.80482 0.0
C499 C 0.28225 0.20044 0.78169 0.0
C500 C 0.2929 0.23961 0.81578 0.0
C501 C 0.32149 0.26336 0.82682 0.0
C502 C 0.33477 0.30247 0.82733 0.0
C503 C 0.31967 0.31754 0.81632 0.0
C504 C 0.29146 0.29385 0.80513 0.0
H505 H 0.28256 0.18837 0.76986 0.0
H506 H 0.30811 0.22883 0.7832 0.0
H507 H 0.28345 0.18161 0.79084 0.0
H508 H 0.28192 0.20937 0.81613 0.0
H509 H 0.33217 0.25094 0.83536 0.0
H510 H 0.92489 0.07879 0.69192 0.0
H511 H 0.8789 0.06894 0.67066 0.0
H512 H 0.9136 0.00136 0.64421 0.0
H513 H 0.95956 0.01045 0.66565 0.0
H514 H 0.8892 0.08723 0.63905 0.0
H515 H 0.7983 0.93174 0.64605 0.0
H516 H 0.83442 0.96188 0.66071 0.0
H517 H 0.84747 0.94798 0.64275 0.0
C518 C 0.9229 0.06178 0.68162 0.0
C519 C 0.94582 0.04513 0.6806 0.0
C520 C 0.89656 0.05626 0.66944 0.0
C521 C 0.89242 0.03396 0.65598 0.0
C522 C 0.91583 0.01805 0.65466 0.0
H523 H 0.76331 0.02669 0.57018 0.0
H524 H 0.81363 0.03578 0.5893 0.0
C525 C 0.94225 0.0235 0.66689 0.0
C526 C 0.86341 0.02757 0.64343 0.0
H527 H 0.7811 0.95905 0.62511 0.0
C528 C 0.86563 0.0592 0.63594 0.0
C529 C 0.83244 0.99101 0.63958 0.0
C530 C 0.82765 0.95618 0.64776 0.0
C531 C 0.83765 0.05531 0.62474 0.0
C532 C 0.80698 0.0187 0.62072 0.0
C533 C 0.80478 0.98704 0.62817 0.0
C534 C 0.77642 0.01276 0.60906 0.0
C535 C 0.84061 0.09053 0.61767 0.0
C536 C 0.73864 0.99593 0.61373 0.0
C537 C 0.70975 0.9906 0.60281 0.0
C538 C 0.71817 0.00198 0.58701 0.0
C539 C 0.75602 0.01838 0.58235 0.0
C540 C 0.78482 0.02356 0.59325 0.0
H541 H 0.86004 0.11636 0.6249 0.0
H542 H 0.85201 0.09414 0.6056 0.0
H543 H 0.81229 0.08824 0.61661 0.0
H544 H 0.73156 0.9873 0.62588 0.0
H545 H 0.68094 0.97806 0.60678 0.0
H546 H 0.0131 0.96108 0.99371 0.0
H547 H 0.96886 0.90925 0.97565 0.0
H548 H 0.87452 0.89966 0.00154 0.0
H549 H 0.91906 0.94826 0.02054 0.0
H550 H 0.86072 0.83407 0.99486 0.0
H551 H 0.91033 0.91344 0.93924 0.0
H552 H 0.94563 0.90482 0.94818 0.0
H553 H 0.93206 0.9349 0.95822 0.0
C554 C 0.98284 0.94798 0.99538 0.0
C555 C 0.96918 0.96009 0.0079 0.0
C556 C 0.95754 0.91859 0.98499 0.0
C557 C 0.91808 0.9014 0.98674 0.0
C558 C 0.90469 0.91278 -0.00034 0.0
H559 H 0.7082 0.75259 0.93635 0.0
H560 H 0.75889 0.79405 0.95548 0.0
C561 C 0.93005 0.94118 0.01033 0.0
C562 C 0.89047 0.8707 0.9756 0.0
H563 H 0.86314 0.8482 0.93642 0.0
C564 C 0.8613 0.8374 0.98209 0.0
C565 C 0.89143 0.87434 0.95884 0.0
C566 C 0.92137 0.90895 0.95074 0.0
C567 C 0.83268 0.8084 0.97242 0.0
C568 C 0.83306 0.81277 0.9558 0.0
C569 C 0.86288 0.84513 0.94921 0.0
C570 C 0.80179 0.78514 0.94504 0.0
C571 C 0.80226 0.77331 0.98007 0.0
C572 C 0.80919 0.76661 0.93277 0.0
C573 C 0.78034 0.74309 0.92176 0.0
C574 C 0.74366 0.73803 0.92274 0.0
C575 C 0.73621 0.75611 0.93523 0.0
C576 C 0.76503 0.77949 0.94626 0.0
H577 H 0.81165 0.76951 0.99209 0.0
H578 H 0.77664 0.77591 0.98135 0.0
H579 H 0.79413 0.74758 0.97264 0.0
H580 H 0.83748 0.7709 0.93155 0.0
H581 H 0.7871 0.72996 0.91215 0.0
H582 H 0.94796 0.91184 0.34734 0.0
H583 H 0.94716 0.86327 0.32987 0.0
H584 H 0.0604 0.94327 0.31559 0.0
H585 H 0.06197 0.99135 0.33356 0.0
H586 H 0.95202 0.85586 0.29927 0.0
H587 H 0.07575 0.85858 0.32937 0.0
H588 H 0.05338 0.88323 0.3374 0.0
H589 H 0.08776 0.90434 0.32219 0.0
C590 C 0.9726 0.91911 0.3404 0.0
C591 C 0.00518 0.95526 0.34193 0.0
C592 C 0.97214 0.8913 0.33045 0.0
C593 C 0.00412 0.89924 0.32174 0.0
C594 C 0.0359 0.93601 0.32261 0.0
H595 H 0.01 0.7726 0.24048 0.0
H596 H 0.00247 0.81445 0.25896 0.0
C597 C 0.03663 0.9636 0.33277 0.0
C598 C 0.00428 0.86911 0.31177 0.0
H599 H 0.05614 0.82658 0.30403 0.0
C600 C 0.97463 0.84924 0.30041 0.0
C601 C 0.03321 0.85967 0.3135 0.0
C602 C 0.06405 0.87728 0.3264 0.0
C603 C 0.97377 0.82114 0.29039 0.0
C604 C 0.00412 0.81361 0.29138 0.0
C605 C 0.03311 0.83263 0.30309 0.0
C606 C 0.00707 0.78701 0.28015 0.0
C607 C 0.93999 0.79948 0.27906 0.0
C608 C 0.01346 0.7583 0.28584 0.0
C609 C 0.01863 0.73483 0.27526 0.0
C610 C 0.01713 0.73941 0.25879 0.0
C611 C 0.01048 0.76792 0.25311 0.0
C612 C 0.00595 0.79174 0.26368 0.0
H613 H 0.91425 0.79869 0.28359 0.0
H614 H 0.9461 0.8139 0.26749 0.0
H615 H 0.93359 0.76992 0.27703 0.0
H616 H 0.01471 0.75423 0.2985 0.0
H617 H 0.02377 0.71309 0.27993 0.0
H618 H 0.13401 0.09451 0.67848 0.0
H619 H 0.17991 0.09345 0.66069 0.0
H620 H 0.11179 0.97177 0.65633 0.0
H621 H 0.06566 0.97243 0.67427 0.0
H622 H 0.21792 0.04603 0.66651 0.0
H623 H 0.13461 0.01594 0.60929 0.0
H624 H 0.12617 0.03781 0.62622 0.0
H625 H 0.11087 0.98827 0.62623 0.0
C626 C 0.12856 0.0675 0.67365 0.0
C627 C 0.09615 0.03353 0.67777 0.0
C628 C 0.15489 0.06698 0.66353 0.0
C629 C 0.1491 0.03258 0.65719 0.0
C630 C 0.11655 0.99862 0.66105 0.0
H631 H 0.27751 0.98766 0.58815 0.0
H632 H 0.2305 0.98156 0.60703 0.0
C633 C 0.09029 0.99907 0.6713 0.0
C634 C 0.1778 0.03232 0.6469 0.0
H635 H 0.19479 0.02133 0.60835 0.0
C636 C 0.21294 0.04055 0.6538 0.0
C637 C 0.17096 0.02488 0.63038 0.0
C638 C 0.13373 0.01637 0.62247 0.0
C639 C 0.24157 0.04148 0.64457 0.0
C640 C 0.23518 0.03505 0.62793 0.0
C641 C 0.19973 0.02631 0.62109 0.0
C642 C 0.26502 0.03799 0.61731 0.0
C643 C 0.27807 0.04868 0.6528 0.0
C644 C 0.30023 0.07169 0.61683 0.0
C645 C 0.32752 0.07505 0.60624 0.0
C646 C 0.31997 0.04497 0.59569 0.0
C647 C 0.28471 0.01116 0.59628 0.0
C648 C 0.25758 0.00774 0.60697 0.0
H649 H 0.27386 0.04093 0.66551 0.0
H650 H 0.28972 0.03245 0.64694 0.0
H651 H 0.29941 0.07931 0.65236 0.0
H652 H 0.30637 0.09575 0.62443 0.0
H653 H 0.35441 0.10139 0.60622 0.0
H654 H 0.13903 0.10551 0.02176 0.0
H655 H 0.19501 0.15275 0.00813 0.0
H656 H 0.12449 0.18252 0.97981 0.0
H657 H 0.06855 0.13584 0.99336 0.0
H658 H 0.20767 0.15576 0.97551 0.0
H659 H 0.20988 0.28566 0.99676 0.0
H660 H 0.18286 0.24052 0.00615 0.0
H661 H 0.16473 0.25041 0.98821 0.0
C662 C 0.1354 0.12225 0.0127 0.0
C663 C 0.09919 0.1169 0.00873 0.0
C664 C 0.16746 0.14925 0.00494 0.0
C665 C 0.16398 0.17159 0.99317 0.0
C666 C 0.12795 0.16621 0.98912 0.0
H667 H 0.29802 0.32744 0.92236 0.0
H668 H 0.25047 0.28801 0.94133 0.0
C669 C 0.09592 0.13926 0.99683 0.0
C670 C 0.19762 0.19926 0.98452 0.0
H671 H 0.2483 0.29246 0.97471 0.0
C672 C 0.21693 0.18574 0.97548 0.0
C673 C 0.20952 0.23833 0.9845 0.0
C674 C 0.19092 0.25472 0.99454 0.0
C675 C 0.24689 0.20998 0.96591 0.0
C676 C 0.25826 0.24892 0.96563 0.0
C677 C 0.2395 0.2626 0.97494 0.0
C678 C 0.28827 0.27544 0.95509 0.0
C679 C 0.26505 0.19341 0.95569 0.0
C680 C 0.32561 0.28239 0.95684 0.0
C681 C 0.35292 0.30502 0.94603 0.0
C682 C 0.34344 0.32136 0.93335 0.0
C683 C 0.30641 0.31565 0.93207 0.0
C684 C 0.27912 0.29295 0.94286 0.0
H685 H 0.24756 0.16203 0.95462 0.0
H686 H 0.26959 0.2052 0.94358 0.0
H687 H 0.29316 0.20078 0.96109 0.0
H688 H 0.33347 0.26981 0.96642 0.0
H689 H 0.38135 0.30937 0.94748 0.0
H690 H 0.04893 0.17226 0.3631 0.0
H691 H 0.04079 0.21001 0.34283 0.0
H692 H 0.97933 0.11062 0.31238 0.0
H693 H 0.98678 0.0721 0.33279 0.0
H694 H 0.06574 0.22172 0.3122 0.0
H695 H 0.90863 0.15505 0.31274 0.0
H696 H 0.93579 0.14788 0.32822 0.0
H697 H 0.92575 0.12277 0.30948 0.0
C698 C 0.03348 0.15817 0.35215 0.0
C699 C 0.01836 0.11896 0.34964 0.0
C700 C 0.02892 0.17992 0.34055 0.0
C701 C 0.00907 0.16308 0.32619 0.0
C702 C 0.99413 0.12405 0.32352 0.0
H703 H 0.0193 0.2886 0.24167 0.0
H704 H 0.02399 0.24686 0.26109 0.0
C705 C 0.99863 0.10213 0.33517 0.0
C706 C 0.00512 0.18694 0.31396 0.0
H707 H 0.94023 0.20138 0.29335 0.0
C708 C 0.0383 0.21724 0.30806 0.0
C709 C 0.9693 0.18131 0.30874 0.0
C710 C 0.93279 0.15022 0.31519 0.0
C711 C 0.03668 0.24205 0.29704 0.0
C712 C 1.00085 0.23598 0.29157 0.0
C713 C 0.96764 0.20579 0.29751 0.0
C714 C 0.99738 0.26089 0.27974 0.0
C715 C 0.07336 0.27504 0.29162 0.0
C716 C 0.98003 0.28197 0.28367 0.0
C717 C 0.97732 0.30595 0.27258 0.0
C718 C 0.99185 0.30918 0.25735 0.0
C719 C 0.00867 0.28751 0.25342 0.0
C720 C 0.01129 0.26353 0.26448 0.0
H721 H 0.09768 0.28128 0.29988 0.0
H722 H 0.07965 0.26809 0.27974 0.0
H723 H 0.07113 0.30096 0.29063 0.0
H724 H 0.96902 0.28021 0.29538 0.0
H725 H 0.96431 0.32233 0.27599 0.0
loop_
_geom_bond_atom_site_label_1
_geom_bond_atom_site_label_2
_geom_bond_distance
_geom_bond_site_symmetry_2
_ccdc_geom_bond_type
Mn0 O5 2.095 . S
Mn0 O15 2.162 1_545 S
Mn0 O16 2.297 1_545 S
Mn0 O24 2.385 1_545 S
Mn0 O25 2.209 1_455 S
Mn0 O26 2.094 . S
Mn1 O6 2.121 . S
Mn1 N8 2.257 1_455 S
Mn1 N17 2.282 1_454 S
Mn1 O25 2.215 1_455 S
Mn1 O27 2.117 . S
C2 O24 1.234 1_655 S
C2 O25 1.283 1_565 S
C3 O15 1.281 . S
C3 O16 1.236 . S
C4 O26 1.240 . S
C4 O27 1.264 . S
O5 Mn0 2.095 . S
O5 C14 1.250 . S
O6 Mn1 2.121 . S
O6 C14 1.258 . S
C7 N8 1.326 . S
C7 C11 1.460 . S
C7 H13 0.929 . S
N8 Mn1 2.257 1_655 S
N8 C7 1.326 . S
N8 C12 1.362 . S
C9 C10 1.258 . S
C9 C12 1.431 . S
C9 C29 1.449 1_554 S
C10 C9 1.258 . S
C10 C11 1.477 . S
C10 H30 0.931 . S
C11 C7 1.460 . S
C11 C10 1.477 . S
C11 H31 0.930 . S
C12 N8 1.362 . S
C12 C9 1.431 . S
C12 C22 1.476 1_554 S
H13 C7 0.929 . S
C14 O5 1.250 . S
C14 O6 1.258 . S
O15 Mn0 2.162 1_565 S
O15 C3 1.281 . S
O16 Mn0 2.297 1_565 S
O16 C3 1.236 . S
N17 Mn1 2.282 1_656 S
N17 C18 1.328 1_655 S
N17 C22 1.318 . S
C18 N17 1.328 1_455 S
C18 C19 1.457 1_455 S
C18 H23 0.929 . S
C19 C18 1.457 1_655 S
C19 C20 1.291 . S
C19 H32 0.924 1_655 S
C20 C19 1.291 . S
C20 C21 1.373 . S
C20 H33 0.921 1_545 S
C21 C20 1.373 . S
C21 C22 1.396 . S
C21 C28 1.403 . S
C22 C12 1.476 1_556 S
C22 N17 1.318 . S
C22 C21 1.396 . S
H23 C18 0.929 . S
O24 Mn0 2.385 1_565 S
O24 C2 1.234 1_455 S
O25 Mn0 2.209 1_655 S
O25 Mn1 2.215 1_655 S
O25 C2 1.283 1_545 S
O26 Mn0 2.094 . S
O26 C4 1.240 . S
O27 Mn1 2.117 . S
O27 C4 1.264 . S
C28 C21 1.403 . S
C28 C29 1.399 . S
C28 H34 0.929 1_545 S
C29 C9 1.449 1_556 S
C29 C28 1.399 . S
C29 H35 0.930 . S
H30 C10 0.931 . S
H31 C11 0.930 . S
H32 C19 0.924 1_455 S
H33 C20 0.921 1_565 S
H34 C28 0.929 1_565 S
H35 C29 0.930 . S
Mn36 O41 2.095 . S
Mn36 O51 2.162 1_545 S
Mn36 O52 2.297 1_645 S
Mn36 O60 2.385 1_645 S
Mn36 O61 2.209 1_655 S
Mn36 O62 2.094 1_545 S
Mn37 O42 2.121 . S
Mn37 N44 2.257 . S
Mn37 N53 2.282 . S
Mn37 O61 2.215 . S
Mn37 O63 2.117 1_455 S
C38 O60 1.234 1_545 S
C38 O61 1.283 . S
C39 O51 1.281 1_455 S
C39 O52 1.236 . S
C40 O62 1.240 1_545 S
C40 O63 1.264 . S
O41 Mn36 2.095 . S
O41 C50 1.250 1_655 S
O42 Mn37 2.121 . S
O42 C50 1.258 . S
C43 N44 1.326 . S
C43 C47 1.460 . S
C43 H49 0.929 . S
N44 Mn37 2.257 . S
N44 C43 1.326 . S
N44 C48 1.362 . S
C45 C46 1.258 . S
C45 C48 1.431 . S
C45 C65 1.449 . S
C46 C45 1.258 . S
C46 C47 1.477 . S
C46 H66 0.931 . S
C47 C43 1.460 . S
C47 C46 1.477 . S
C47 H67 0.930 . S
C48 N44 1.362 . S
C48 C45 1.431 . S
C48 C58 1.476 . S
H49 C43 0.929 . S
C50 O41 1.250 1_455 S
C50 O42 1.258 . S
O51 Mn36 2.162 1_565 S
O51 C39 1.281 1_655 S
O52 Mn36 2.297 1_465 S
O52 C39 1.236 . S
N53 Mn37 2.282 . S
N53 C54 1.328 . S
N53 C58 1.318 . S
C54 N53 1.328 . S
C54 C55 1.457 . S
C54 H59 0.929 . S
C55 C54 1.457 . S
C55 C56 1.291 . S
C55 H68 0.931 . S
C56 C55 1.291 . S
C56 C57 1.373 . S
C56 H69 0.929 . S
C57 C56 1.373 . S
C57 C58 1.396 . S
C57 C64 1.403 . S
C58 C48 1.476 . S
C58 N53 1.318 . S
C58 C57 1.396 . S
H59 C54 0.929 . S
O60 Mn36 2.385 1_465 S
O60 C38 1.234 1_565 S
O61 Mn36 2.209 1_455 S
O61 Mn37 2.215 . S
O61 C38 1.283 . S
O62 Mn36 2.094 1_565 S
O62 C40 1.240 1_565 S
O63 Mn37 2.117 1_655 S
O63 C40 1.264 . S
C64 C57 1.403 . S
C64 C65 1.399 . S
C64 H70 0.929 . S
C65 C45 1.449 . S
C65 C64 1.399 . S
C65 H71 0.930 . S
H66 C46 0.931 . S
H67 C47 0.930 . S
H68 C55 0.931 . S
H69 C56 0.929 . S
H70 C64 0.929 . S
H71 C65 0.930 . S
Mn72 O77 2.095 1_455 S
Mn72 O87 2.162 1_545 S
Mn72 O88 2.297 . S
Mn72 O96 2.385 . S
Mn72 O97 2.209 . S
Mn72 O98 2.094 1_445 S
Mn73 O78 2.121 . S
Mn73 N80 2.257 . S
Mn73 N89 2.282 1_655 S
Mn73 O97 2.215 1_655 S
Mn73 O99 2.117 1_545 S
C74 O96 1.234 . S
C74 O97 1.283 . S
C75 O87 1.281 1_545 S
C75 O88 1.236 . S
C76 O98 1.240 . S
C76 O99 1.264 . S
O77 Mn72 2.095 1_655 S
O77 C86 1.250 . S
O78 Mn73 2.121 . S
O78 C86 1.258 . S
C79 N80 1.326 . S
C79 C83 1.460 1_655 S
C79 H85 0.929 . S
N80 Mn73 2.257 . S
N80 C79 1.326 . S
N80 C84 1.362 1_655 S
C81 C82 1.258 . S
C81 C84 1.431 . S
C81 C101 1.449 . S
C82 C81 1.258 . S
C82 C83 1.477 . S
C82 H102 0.931 . S
C83 C79 1.460 1_455 S
C83 C82 1.477 . S
C83 H103 0.929 1_455 S
C84 N80 1.362 1_455 S
C84 C81 1.431 . S
C84 C94 1.476 . S
H85 C79 0.929 . S
C86 O77 1.250 . S
C86 O78 1.258 . S
O87 Mn72 2.162 1_565 S
O87 C75 1.281 1_565 S
O88 Mn72 2.297 . S
O88 C75 1.236 . S
N89 Mn73 2.282 1_455 S
N89 C90 1.328 . S
N89 C94 1.318 . S
C90 N89 1.328 . S
C90 C91 1.457 . S
C90 H95 0.931 1_455 S
C91 C90 1.457 . S
C91 C92 1.291 . S
C91 H104 0.931 . S
C92 C91 1.291 . S
C92 C93 1.373 . S
C92 H105 0.929 . S
C93 C92 1.373 . S
C93 C94 1.396 . S
C93 C100 1.403 . S
C94 C84 1.476 . S
C94 N89 1.318 . S
C94 C93 1.396 . S
H95 C90 0.931 1_655 S
O96 Mn72 2.385 . S
O96 C74 1.234 . S
O97 Mn72 2.209 . S
O97 Mn73 2.215 1_455 S
O97 C74 1.283 . S
O98 Mn72 2.094 1_665 S
O98 C76 1.240 . S
O99 Mn73 2.117 1_565 S
O99 C76 1.264 . S
C100 C93 1.403 . S
C100 C101 1.399 . S
C100 H106 0.929 . S
C101 C81 1.449 . S
C101 C100 1.399 . S
C101 H107 0.930 . S
H102 C82 0.931 . S
H103 C83 0.929 1_655 S
H104 C91 0.931 . S
H105 C92 0.929 . S
H106 C100 0.929 . S
H107 C101 0.930 . S
H108 C135 0.929 . S
N109 C134 1.433 . S
N109 C140 1.435 . S
N109 C146 1.423 1_455 S
H110 C136 0.930 . S
H111 C139 0.931 . S
H112 C138 0.929 . S
H113 C141 0.930 . S
H114 C142 0.932 . S
H115 C145 0.929 . S
H116 C144 0.931 . S
H117 C147 0.929 . S
H118 C151 0.932 . S
H119 C148 0.931 . S
H120 C150 0.929 . S
H121 C153 0.929 . S
H122 C154 0.930 . S
H123 C156 0.929 . S
H124 C157 0.931 . S
H125 C159 0.930 . S
H126 C160 0.932 . S
H127 C162 0.931 . S
H128 C163 0.929 . S
H129 C165 0.929 . S
H130 C166 0.931 . S
H131 C168 0.929 . S
N132 C152 1.433 . S
N132 C158 1.435 . S
N132 C164 1.423 1_455 S
H133 C169 0.932 . S
C134 N109 1.433 . S
C134 C135 1.363 1_455 S
C134 C139 1.370 . S
C135 H108 0.929 . S
C135 C134 1.363 1_655 S
C135 C136 1.385 . S
C136 H110 0.930 . S
C136 C135 1.385 . S
C136 C137 1.357 1_655 S
C137 C136 1.357 1_455 S
C137 C138 1.406 . S
C138 H112 0.929 . S
C138 C137 1.406 . S
C138 C139 1.391 . S
C139 H111 0.931 . S
C139 C134 1.370 . S
C139 C138 1.391 . S
C140 N109 1.435 . S
C140 C141 1.358 . S
C140 C145 1.371 1_455 S
C141 H113 0.930 . S
C141 C140 1.358 . S
C141 C142 1.405 . S
C142 H114 0.932 . S
C142 C141 1.405 . S
C142 C143 1.383 . S
C143 C142 1.383 . S
C143 C144 1.393 1_455 S
C144 H116 0.931 . S
C144 C143 1.393 1_655 S
C144 C145 1.382 . S
C145 H115 0.929 . S
C145 C140 1.371 1_655 S
C145 C144 1.382 . S
C146 N109 1.423 1_655 S
C146 C147 1.362 . S
C146 C151 1.388 1_655 S
C147 H117 0.929 . S
C147 C146 1.362 . S
C147 C148 1.376 . S
C148 H119 0.931 . S
C148 C147 1.376 . S
C148 C149 1.396 . S
C149 C148 1.396 . S
C149 C150 1.348 1_655 S
C149 C167 1.472 . S
C150 H120 0.929 . S
C150 C149 1.348 1_455 S
C150 C151 1.443 . S
C151 H118 0.932 . S
C151 C146 1.388 1_455 S
C151 C150 1.443 . S
C152 N132 1.433 . S
C152 C153 1.363 1_455 S
C152 C157 1.370 . S
C153 H121 0.929 . S
C153 C152 1.363 1_655 S
C153 C154 1.385 . S
C154 H122 0.930 . S
C154 C153 1.385 . S
C154 C155 1.357 1_655 S
C155 C154 1.357 1_455 S
C155 C156 1.406 . S
C156 H123 0.929 . S
C156 C155 1.406 . S
C156 C157 1.391 . S
C157 H124 0.931 . S
C157 C152 1.370 . S
C157 C156 1.391 . S
C158 N132 1.435 . S
C158 C159 1.358 . S
C158 C163 1.371 1_455 S
C159 H125 0.930 . S
C159 C158 1.358 . S
C159 C160 1.405 . S
C160 H126 0.932 . S
C160 C159 1.405 . S
C160 C161 1.383 . S
C161 C160 1.383 . S
C161 C162 1.393 1_455 S
C162 H127 0.931 . S
C162 C161 1.393 1_655 S
C162 C163 1.382 . S
C163 H128 0.929 . S
C163 C158 1.371 1_655 S
C163 C162 1.382 . S
C164 N132 1.423 1_655 S
C164 C165 1.362 . S
C164 C169 1.388 1_655 S
C165 H129 0.929 . S
C165 C164 1.362 . S
C165 C166 1.376 . S
C166 H130 0.931 . S
C166 C165 1.376 . S
C166 C167 1.396 . S
C167 C149 1.472 . S
C167 C166 1.396 . S
C167 C168 1.348 1_655 S
C168 H131 0.929 . S
C168 C167 1.348 1_455 S
C168 C169 1.443 . S
C169 H133 0.932 . S
C169 C164 1.388 1_455 S
C169 C168 1.443 . S
H170 C197 0.929 . S
N171 C196 1.433 . S
N171 C202 1.435 . S
N171 C208 1.423 . S
H172 C198 0.930 . S
H173 C201 0.931 . S
H174 C200 0.929 . S
H175 C203 0.930 . S
H176 C204 0.932 . S
H177 C207 0.929 . S
H178 C206 0.931 . S
H179 C209 0.929 . S
H180 C213 0.932 . S
H181 C210 0.931 . S
H182 C212 0.929 . S
H183 C215 0.929 . S
H184 C216 0.930 . S
H185 C218 0.929 . S
H186 C219 0.931 . S
H187 C221 0.930 . S
H188 C222 0.932 . S
H189 C224 0.931 . S
H190 C225 0.929 . S
H191 C227 0.929 . S
H192 C228 0.931 . S
H193 C230 0.929 . S
N194 C214 1.433 . S
N194 C220 1.435 . S
N194 C226 1.423 . S
H195 C231 0.932 . S
C196 N171 1.433 . S
C196 C197 1.363 . S
C196 C201 1.370 . S
C197 H170 0.929 . S
C197 C196 1.363 . S
C197 C198 1.385 . S
C198 H172 0.930 . S
C198 C197 1.385 . S
C198 C199 1.357 . S
C199 C198 1.357 . S
C199 C200 1.406 . S
C200 H174 0.929 . S
C200 C199 1.406 . S
C200 C201 1.391 . S
C201 H173 0.931 . S
C201 C196 1.370 . S
C201 C200 1.391 . S
C202 N171 1.435 . S
C202 C203 1.358 . S
C202 C207 1.371 . S
C203 H175 0.930 . S
C203 C202 1.358 . S
C203 C204 1.405 . S
C204 H176 0.932 . S
C204 C203 1.405 . S
C204 C205 1.383 . S
C205 C204 1.383 . S
C205 C206 1.393 . S
C206 H178 0.931 . S
C206 C205 1.393 . S
C206 C207 1.382 . S
C207 H177 0.929 . S
C207 C202 1.371 . S
C207 C206 1.382 . S
C208 N171 1.423 . S
C208 C209 1.362 . S
C208 C213 1.388 . S
C209 H179 0.929 . S
C209 C208 1.362 . S
C209 C210 1.376 . S
C210 H181 0.931 . S
C210 C209 1.376 . S
C210 C211 1.396 . S
C211 C210 1.396 . S
C211 C212 1.348 . S
C211 C229 1.472 . S
C212 H182 0.929 . S
C212 C211 1.348 . S
C212 C213 1.443 . S
C213 H180 0.932 . S
C213 C208 1.388 . S
C213 C212 1.443 . S
C214 N194 1.433 . S
C214 C215 1.363 . S
C214 C219 1.370 . S
C215 H183 0.929 . S
C215 C214 1.363 . S
C215 C216 1.385 . S
C216 H184 0.930 . S
C216 C215 1.385 . S
C216 C217 1.357 . S
C217 C216 1.357 . S
C217 C218 1.406 . S
C218 H185 0.929 . S
C218 C217 1.406 . S
C218 C219 1.391 . S
C219 H186 0.931 . S
C219 C214 1.370 . S
C219 C218 1.391 . S
C220 N194 1.435 . S
C220 C221 1.358 . S
C220 C225 1.371 . S
C221 H187 0.930 . S
C221 C220 1.358 . S
C221 C222 1.405 . S
C222 H188 0.932 . S
C222 C221 1.405 . S
C222 C223 1.383 . S
C223 C222 1.383 . S
C223 C224 1.393 . S
C224 H189 0.931 . S
C224 C223 1.393 . S
C224 C225 1.382 . S
C225 H190 0.929 . S
C225 C220 1.371 . S
C225 C224 1.382 . S
C226 N194 1.423 . S
C226 C227 1.362 . S
C226 C231 1.388 . S
C227 H191 0.929 . S
C227 C226 1.362 . S
C227 C228 1.376 . S
C228 H192 0.931 . S
C228 C227 1.376 . S
C228 C229 1.396 . S
C229 C211 1.472 . S
C229 C228 1.396 . S
C229 C230 1.348 . S
C230 H193 0.929 . S
C230 C229 1.348 . S
C230 C231 1.443 . S
C231 H195 0.932 . S
C231 C226 1.388 . S
C231 C230 1.443 . S
H232 C259 0.929 . S
N233 C258 1.433 . S
N233 C264 1.435 . S
N233 C270 1.423 . S
H234 C260 0.930 . S
H235 C263 0.931 . S
H236 C262 0.929 . S
H237 C265 0.930 . S
H238 C266 0.932 . S
H239 C269 0.929 . S
H240 C268 0.931 . S
H241 C271 0.929 . S
H242 C275 0.932 . S
H243 C272 0.931 . S
H244 C274 0.929 . S
H245 C277 0.929 . S
H246 C278 0.930 . S
H247 C280 0.929 . S
H248 C281 0.931 . S
H249 C283 0.930 . S
H250 C284 0.932 . S
H251 C286 0.931 . S
H252 C287 0.929 . S
H253 C289 0.929 . S
H254 C290 0.931 . S
H255 C292 0.929 . S
N256 C276 1.433 . S
N256 C282 1.435 . S
N256 C288 1.423 . S
H257 C293 0.932 . S
C258 N233 1.433 . S
C258 C259 1.363 . S
C258 C263 1.370 . S
C259 H232 0.929 . S
C259 C258 1.363 . S
C259 C260 1.385 . S
C260 H234 0.930 . S
C260 C259 1.385 . S
C260 C261 1.357 . S
C261 C260 1.357 . S
C261 C262 1.406 . S
C262 H236 0.929 . S
C262 C261 1.406 . S
C262 C263 1.391 . S
C263 H235 0.931 . S
C263 C258 1.370 . S
C263 C262 1.391 . S
C264 N233 1.435 . S
C264 C265 1.358 . S
C264 C269 1.371 . S
C265 H237 0.930 . S
C265 C264 1.358 . S
C265 C266 1.405 . S
C266 H238 0.932 . S
C266 C265 1.405 . S
C266 C267 1.383 . S
C267 C266 1.383 . S
C267 C268 1.393 . S
C268 H240 0.931 . S
C268 C267 1.393 . S
C268 C269 1.382 . S
C269 H239 0.929 . S
C269 C264 1.371 . S
C269 C268 1.382 . S
C270 N233 1.423 . S
C270 C271 1.362 . S
C270 C275 1.388 . S
C271 H241 0.929 . S
C271 C270 1.362 . S
C271 C272 1.376 . S
C272 H243 0.931 . S
C272 C271 1.376 . S
C272 C273 1.396 . S
C273 C272 1.396 . S
C273 C274 1.348 . S
C273 C291 1.472 . S
C274 H244 0.929 . S
C274 C273 1.348 . S
C274 C275 1.443 . S
C275 H242 0.932 . S
C275 C270 1.388 . S
C275 C274 1.443 . S
C276 N256 1.433 . S
C276 C277 1.363 . S
C276 C281 1.370 . S
C277 H245 0.929 . S
C277 C276 1.363 . S
C277 C278 1.385 . S
C278 H246 0.930 . S
C278 C277 1.385 . S
C278 C279 1.357 . S
C279 C278 1.357 . S
C279 C280 1.406 . S
C280 H247 0.929 . S
C280 C279 1.406 . S
C280 C281 1.391 . S
C281 H248 0.931 . S
C281 C276 1.370 . S
C281 C280 1.391 . S
C282 N256 1.435 . S
C282 C283 1.358 . S
C282 C287 1.371 . S
C283 H249 0.930 . S
C283 C282 1.358 . S
C283 C284 1.405 . S
C284 H250 0.932 . S
C284 C283 1.405 . S
C284 C285 1.383 . S
C285 C284 1.383 . S
C285 C286 1.393 . S
C286 H251 0.931 . S
C286 C285 1.393 . S
C286 C287 1.382 . S
C287 H252 0.929 . S
C287 C282 1.371 . S
C287 C286 1.382 . S
C288 N256 1.423 . S
C288 C289 1.362 . S
C288 C293 1.388 . S
C289 H253 0.929 . S
C289 C288 1.362 . S
C289 C290 1.376 . S
C290 H254 0.931 . S
C290 C289 1.376 . S
C290 C291 1.396 . S
C291 C273 1.472 . S
C291 C290 1.396 . S
C291 C292 1.348 . S
C292 H255 0.929 . S
C292 C291 1.348 . S
C292 C293 1.443 . S
C293 H257 0.932 . S
C293 C288 1.388 . S
C293 C292 1.443 . S
H294 C302 0.929 . S
H295 C304 0.930 . S
H296 C306 0.930 . S
H297 C309 0.929 . S
H298 C312 0.930 1_655 S
H299 C314 0.960 . S
H300 C314 0.960 . S
H301 C314 0.960 . S
C302 H294 0.929 . S
C302 C303 1.377 . S
C302 C304 1.384 . S
C303 C302 1.377 . S
C303 C309 1.390 . S
C304 H295 0.930 . S
C304 C302 1.384 . S
C304 C305 1.372 . S
C305 C304 1.372 . S
C305 C306 1.400 . S
C305 C310 1.490 . S
C306 H296 0.930 . S
C306 C305 1.400 . S
C306 C309 1.386 . S
H307 C323 0.930 1_655 S
H308 C324 0.931 1_655 S
C309 H297 0.929 . S
C309 C303 1.390 . S
C309 C306 1.386 . S
C310 C305 1.490 . S
C310 C312 1.395 . S
C310 C313 1.403 . S
H311 C317 0.930 . S
C312 H298 0.930 1_455 S
C312 C310 1.395 . S
C312 C315 1.403 . S
C313 C310 1.403 . S
C313 C314 1.524 . S
C313 C317 1.400 . S
C314 H299 0.960 . S
C314 H300 0.960 . S
C314 H301 0.960 . S
C314 C313 1.524 . S
C315 C312 1.403 . S
C315 C316 1.392 . S
C315 C319 1.495 1_455 S
C316 C315 1.392 . S
C316 C317 1.385 . S
C316 C318 1.478 . S
C317 H311 0.930 . S
C317 C313 1.400 . S
C317 C316 1.385 . S
C318 C316 1.478 . S
C318 C320 1.381 . S
C318 C324 1.383 . S
C319 C315 1.495 1_655 S
C319 H325 0.959 . S
C319 H326 0.961 . S
C319 H327 0.960 . S
C320 C318 1.381 . S
C320 C321 1.394 . S
C320 H328 0.930 . S
C321 C320 1.394 . S
C321 C322 1.383 . S
C321 H329 0.929 . S
C322 C321 1.383 . S
C322 C323 1.377 . S
C323 H307 0.930 1_455 S
C323 C322 1.377 . S
C323 C324 1.379 . S
C324 H308 0.931 1_455 S
C324 C318 1.383 . S
C324 C323 1.379 . S
H325 C319 0.959 . S
H326 C319 0.961 . S
H327 C319 0.960 . S
H328 C320 0.930 . S
H329 C321 0.929 . S
H330 C338 0.929 . S
H331 C340 0.930 . S
H332 C342 0.930 . S
H333 C345 0.929 . S
H334 C348 0.930 . S
H335 C350 0.960 . S
H336 C350 0.960 . S
H337 C350 0.960 . S
C338 H330 0.929 . S
C338 C339 1.377 . S
C338 C340 1.384 . S
C339 C338 1.377 . S
C339 C345 1.390 . S
C340 H331 0.930 . S
C340 C338 1.384 . S
C340 C341 1.372 . S
C341 C340 1.372 . S
C341 C342 1.400 . S
C341 C346 1.490 . S
C342 H332 0.930 . S
C342 C341 1.400 . S
C342 C345 1.386 . S
H343 C359 0.930 . S
H344 C360 0.931 . S
C345 H333 0.929 . S
C345 C339 1.390 . S
C345 C342 1.386 . S
C346 C341 1.490 . S
C346 C348 1.395 1_545 S
C346 C349 1.403 . S
H347 C353 0.930 . S
C348 H334 0.930 . S
C348 C346 1.395 1_565 S
C348 C351 1.403 . S
C349 C346 1.403 . S
C349 C350 1.524 . S
C349 C353 1.400 . S
C350 H335 0.960 . S
C350 H336 0.960 . S
C350 H337 0.960 . S
C350 C349 1.524 . S
C351 C348 1.403 . S
C351 C352 1.392 1_565 S
C351 C355 1.495 . S
C352 C351 1.392 1_545 S
C352 C353 1.385 . S
C352 C354 1.478 . S
C353 H347 0.930 . S
C353 C349 1.400 . S
C353 C352 1.385 . S
C354 C352 1.478 . S
C354 C356 1.381 . S
C354 C360 1.383 . S
C355 C351 1.495 . S
C355 H361 0.959 . S
C355 H362 0.961 . S
C355 H363 0.960 . S
C356 C354 1.381 . S
C356 C357 1.394 . S
C356 H364 0.930 . S
C357 C356 1.394 . S
C357 C358 1.383 . S
C357 H365 0.929 . S
C358 C357 1.383 . S
C358 C359 1.377 . S
C359 H343 0.930 . S
C359 C358 1.377 . S
C359 C360 1.379 . S
C360 H344 0.931 . S
C360 C354 1.383 . S
C360 C359 1.379 . S
H361 C355 0.959 . S
H362 C355 0.961 . S
H363 C355 0.960 . S
H364 C356 0.930 . S
H365 C357 0.929 . S
H366 C374 0.929 . S
H367 C376 0.930 . S
H368 C378 0.930 . S
H369 C381 0.929 . S
H370 C384 0.930 . S
H371 C386 0.960 . S
H372 C386 0.960 . S
H373 C386 0.960 . S
C374 H366 0.929 . S
C374 C375 1.377 . S
C374 C376 1.384 . S
C375 C374 1.377 . S
C375 C381 1.390 . S
C376 H367 0.930 . S
C376 C374 1.384 . S
C376 C377 1.372 . S
C377 C376 1.372 . S
C377 C378 1.400 . S
C377 C382 1.490 . S
C378 H368 0.930 . S
C378 C377 1.400 . S
C378 C381 1.386 . S
H379 C395 0.930 . S
H380 C396 0.931 . S
C381 H369 0.929 . S
C381 C375 1.390 . S
C381 C378 1.386 . S
C382 C377 1.490 . S
C382 C384 1.395 . S
C382 C385 1.403 . S
H383 C389 0.930 . S
C384 H370 0.930 . S
C384 C382 1.395 . S
C384 C387 1.403 . S
C385 C382 1.403 . S
C385 C386 1.524 . S
C385 C389 1.400 . S
C386 H371 0.960 . S
C386 H372 0.960 . S
C386 H373 0.960 . S
C386 C385 1.524 . S
C387 C384 1.403 . S
C387 C388 1.392 . S
C387 C391 1.495 . S
C388 C387 1.392 . S
C388 C389 1.385 . S
C388 C390 1.478 . S
C389 H383 0.930 . S
C389 C385 1.400 . S
C389 C388 1.385 . S
C390 C388 1.478 . S
C390 C392 1.381 . S
C390 C396 1.383 . S
C391 C387 1.495 . S
C391 H397 0.959 . S
C391 H398 0.961 . S
C391 H399 0.960 . S
C392 C390 1.381 . S
C392 C393 1.394 . S
C392 H400 0.930 . S
C393 C392 1.394 . S
C393 C394 1.383 . S
C393 H401 0.929 . S
C394 C393 1.383 . S
C394 C395 1.377 . S
C395 H379 0.930 . S
C395 C394 1.377 . S
C395 C396 1.379 . S
C396 H380 0.931 . S
C396 C390 1.383 . S
C396 C395 1.379 . S
H397 C391 0.959 . S
H398 C391 0.961 . S
H399 C391 0.960 . S
H400 C392 0.930 . S
H401 C393 0.929 . S
H402 C410 0.929 . S
H403 C412 0.930 1_655 S
H404 C414 0.930 . S
H405 C417 0.929 . S
H406 C420 0.930 . S
H407 C422 0.960 1_655 S
H408 C422 0.960 1_655 S
H409 C422 0.960 . S
C410 H402 0.929 . S
C410 C411 1.377 . S
C410 C412 1.384 . S
C411 C410 1.377 . S
C411 C417 1.390 . S
C412 H403 0.930 1_455 S
C412 C410 1.384 . S
C412 C413 1.372 . S
C413 C412 1.372 . S
C413 C414 1.400 . S
C413 C418 1.490 . S
C414 H404 0.930 . S
C414 C413 1.400 . S
C414 C417 1.386 . S
H415 C431 0.930 . S
H416 C432 0.931 . S
C417 H405 0.929 . S
C417 C411 1.390 . S
C417 C414 1.386 . S
C418 C413 1.490 . S
C418 C420 1.395 . S
C418 C421 1.403 . S
H419 C425 0.930 . S
C420 H406 0.930 . S
C420 C418 1.395 . S
C420 C423 1.403 . S
C421 C418 1.403 . S
C421 C422 1.524 . S
C421 C425 1.400 . S
C422 H407 0.960 1_455 S
C422 H408 0.960 1_455 S
C422 H409 0.960 . S
C422 C421 1.524 . S
C423 C420 1.403 . S
C423 C424 1.392 . S
C423 C427 1.495 . S
C424 C423 1.392 . S
C424 C425 1.385 . S
C424 C426 1.478 . S
C425 H419 0.930 . S
C425 C421 1.400 . S
C425 C424 1.385 . S
C426 C424 1.478 . S
C426 C428 1.381 . S
C426 C432 1.383 . S
C427 C423 1.495 . S
C427 H433 0.959 . S
C427 H434 0.961 . S
C427 H435 0.960 . S
C428 C426 1.381 . S
C428 C429 1.394 . S
C428 H436 0.930 1_455 S
C429 C428 1.394 . S
C429 C430 1.383 . S
C429 H437 0.929 1_455 S
C430 C429 1.383 . S
C430 C431 1.377 . S
C431 H415 0.930 . S
C431 C430 1.377 . S
C431 C432 1.379 . S
C432 H416 0.931 . S
C432 C426 1.383 . S
C432 C431 1.379 . S
H433 C427 0.959 . S
H434 C427 0.961 . S
H435 C427 0.960 . S
H436 C428 0.930 1_655 S
H437 C429 0.929 1_655 S
H438 C446 0.929 . S
H439 C448 0.930 . S
H440 C450 0.930 . S
H441 C453 0.929 . S
H442 C456 0.930 . S
H443 C458 0.960 . S
H444 C458 0.960 . S
H445 C458 0.960 . S
C446 H438 0.929 . S
C446 C447 1.377 1_565 S
C446 C448 1.384 . S
C447 C446 1.377 1_545 S
C447 C453 1.390 . S
C448 H439 0.930 . S
C448 C446 1.384 . S
C448 C449 1.372 1_565 S
C449 C448 1.372 1_545 S
C449 C450 1.400 . S
C449 C454 1.490 . S
C450 H440 0.930 . S
C450 C449 1.400 . S
C450 C453 1.386 . S
H451 C467 0.930 . S
H452 C468 0.931 . S
C453 H441 0.929 . S
C453 C447 1.390 . S
C453 C450 1.386 . S
C454 C449 1.490 . S
C454 C456 1.395 . S
C454 C457 1.403 . S
H455 C461 0.930 . S
C456 H442 0.930 . S
C456 C454 1.395 . S
C456 C459 1.403 . S
C457 C454 1.403 . S
C457 C458 1.524 . S
C457 C461 1.400 . S
C458 H443 0.960 . S
C458 H444 0.960 . S
C458 H445 0.960 . S
C458 C457 1.524 . S
C459 C456 1.403 . S
C459 C460 1.392 . S
C459 C463 1.495 . S
C460 C459 1.392 . S
C460 C461 1.385 . S
C460 C462 1.478 . S
C461 H455 0.930 . S
C461 C457 1.400 . S
C461 C460 1.385 . S
C462 C460 1.478 . S
C462 C464 1.381 . S
C462 C468 1.383 . S
C463 C459 1.495 . S
C463 H469 0.959 . S
C463 H470 0.961 . S
C463 H471 0.960 . S
C464 C462 1.381 . S
C464 C465 1.394 . S
C464 H472 0.930 1_545 S
C465 C464 1.394 . S
C465 C466 1.383 . S
C465 H473 0.929 1_545 S
C466 C465 1.383 . S
C466 C467 1.377 . S
C467 H451 0.930 . S
C467 C466 1.377 . S
C467 C468 1.379 . S
C468 H452 0.931 . S
C468 C462 1.383 . S
C468 C467 1.379 . S
H469 C463 0.959 . S
H470 C463 0.961 . S
H471 C463 0.960 . S
H472 C464 0.930 1_565 S
H473 C465 0.929 1_565 S
H474 C482 0.929 . S
H475 C484 0.930 . S
H476 C486 0.930 . S
H477 C489 0.929 . S
H478 C492 0.930 . S
H479 C494 0.960 . S
H480 C494 0.960 . S
H481 C494 0.960 . S
C482 H474 0.929 . S
C482 C483 1.377 . S
C482 C484 1.384 . S
C483 C482 1.377 . S
C483 C489 1.390 . S
C484 H475 0.930 . S
C484 C482 1.384 . S
C484 C485 1.372 . S
C485 C484 1.372 . S
C485 C486 1.400 . S
C485 C490 1.490 . S
C486 H476 0.930 . S
C486 C485 1.400 . S
C486 C489 1.386 . S
H487 C503 0.930 . S
H488 C504 0.931 . S
C489 H477 0.929 . S
C489 C483 1.390 . S
C489 C486 1.386 . S
C490 C485 1.490 . S
C490 C492 1.395 . S
C490 C493 1.403 . S
H491 C497 0.930 . S
C492 H478 0.930 . S
C492 C490 1.395 . S
C492 C495 1.403 . S
C493 C490 1.403 . S
C493 C494 1.524 . S
C493 C497 1.400 . S
C494 H479 0.960 . S
C494 H480 0.960 . S
C494 H481 0.960 . S
C494 C493 1.524 . S
C495 C492 1.403 . S
C495 C496 1.392 . S
C495 C499 1.495 . S
C496 C495 1.392 . S
C496 C497 1.385 . S
C496 C498 1.478 . S
C497 H491 0.930 . S
C497 C493 1.400 . S
C497 C496 1.385 . S
C498 C496 1.478 . S
C498 C500 1.381 . S
C498 C504 1.383 . S
C499 C495 1.495 . S
C499 H505 0.959 . S
C499 H506 0.961 . S
C499 H507 0.960 . S
C500 C498 1.381 . S
C500 C501 1.394 . S
C500 H508 0.930 . S
C501 C500 1.394 . S
C501 C502 1.383 . S
C501 H509 0.929 . S
C502 C501 1.383 . S
C502 C503 1.377 . S
C503 H487 0.930 . S
C503 C502 1.377 . S
C503 C504 1.379 . S
C504 H488 0.931 . S
C504 C498 1.383 . S
C504 C503 1.379 . S
H505 C499 0.959 . S
H506 C499 0.961 . S
H507 C499 0.960 . S
H508 C500 0.930 . S
H509 C501 0.929 . S
H510 C518 0.929 . S
H511 C520 0.930 . S
H512 C522 0.930 . S
H513 C525 0.929 . S
H514 C528 0.930 . S
H515 C530 0.960 . S
H516 C530 0.960 . S
H517 C530 0.960 1_545 S
C518 H510 0.929 . S
C518 C519 1.377 . S
C518 C520 1.384 . S
C519 C518 1.377 . S
C519 C525 1.390 . S
C520 H511 0.930 . S
C520 C518 1.384 . S
C520 C521 1.372 . S
C521 C520 1.372 . S
C521 C522 1.400 . S
C521 C526 1.490 . S
C522 H512 0.930 . S
C522 C521 1.400 . S
C522 C525 1.386 . S
H523 C539 0.930 . S
H524 C540 0.931 . S
C525 H513 0.929 . S
C525 C519 1.390 . S
C525 C522 1.386 . S
C526 C521 1.490 . S
C526 C528 1.395 . S
C526 C529 1.403 . S
H527 C533 0.930 . S
C528 H514 0.930 . S
C528 C526 1.395 . S
C528 C531 1.403 . S
C529 C526 1.403 . S
C529 C530 1.524 1_545 S
C529 C533 1.400 . S
C530 H515 0.960 . S
C530 H516 0.960 . S
C530 H517 0.960 1_565 S
C530 C529 1.524 1_565 S
C531 C528 1.403 . S
C531 C532 1.392 . S
C531 C535 1.495 . S
C532 C531 1.392 . S
C532 C533 1.385 . S
C532 C534 1.478 . S
C533 H527 0.930 . S
C533 C529 1.400 . S
C533 C532 1.385 . S
C534 C532 1.478 . S
C534 C536 1.381 . S
C534 C540 1.383 . S
C535 C531 1.495 . S
C535 H541 0.959 . S
C535 H542 0.961 . S
C535 H543 0.960 . S
C536 C534 1.381 . S
C536 C537 1.394 . S
C536 H544 0.930 . S
C537 C536 1.394 . S
C537 C538 1.383 . S
C537 H545 0.929 . S
C538 C537 1.383 . S
C538 C539 1.377 . S
C539 H523 0.930 . S
C539 C538 1.377 . S
C539 C540 1.379 . S
C540 H524 0.931 . S
C540 C534 1.383 . S
C540 C539 1.379 . S
H541 C535 0.959 . S
H542 C535 0.961 . S
H543 C535 0.960 . S
H544 C536 0.930 . S
H545 C537 0.929 . S
H546 C554 0.929 . S
H547 C556 0.930 . S
H548 C558 0.930 . S
H549 C561 0.940 . S
H550 C564 0.930 1_554 S
H551 C566 0.960 . S
H552 C566 0.960 . S
H553 C566 0.960 . S
C554 H546 0.929 . S
C554 C555 1.377 . S
C554 C556 1.384 . S
C555 C554 1.377 . S
C555 C561 1.353 1_554 S
C556 H547 0.930 . S
C556 C554 1.384 . S
C556 C557 1.372 1_554 S
C557 C556 1.372 1_556 S
C557 C558 1.400 . S
C557 C562 1.490 . S
C558 H548 0.930 . S
C558 C557 1.400 . S
C558 C561 1.415 . S
H559 C575 0.930 . S
H560 C576 0.931 . S
C561 H549 0.940 . S
C561 C555 1.353 1_556 S
C561 C558 1.415 . S
C562 C557 1.490 . S
C562 C564 1.395 . S
C562 C565 1.403 . S
H563 C569 0.930 . S
C564 H550 0.930 1_556 S
C564 C562 1.395 . S
C564 C567 1.403 . S
C565 C562 1.403 . S
C565 C566 1.524 . S
C565 C569 1.400 . S
C566 H551 0.960 . S
C566 H552 0.960 . S
C566 H553 0.960 . S
C566 C565 1.524 . S
C567 C564 1.403 . S
C567 C568 1.392 . S
C567 C571 1.495 . S
C568 C567 1.392 . S
C568 C569 1.385 . S
C568 C570 1.478 . S
C569 H563 0.930 . S
C569 C565 1.400 . S
C569 C568 1.385 . S
C570 C568 1.478 . S
C570 C572 1.381 . S
C570 C576 1.383 . S
C571 C567 1.495 . S
C571 H577 0.959 1_556 S
C571 H578 0.961 . S
C571 H579 0.960 . S
C572 C570 1.381 . S
C572 C573 1.394 . S
C572 H580 0.930 . S
C573 C572 1.394 . S
C573 C574 1.383 . S
C573 H581 0.929 . S
C574 C573 1.383 . S
C574 C575 1.377 . S
C575 H559 0.930 . S
C575 C574 1.377 . S
C575 C576 1.379 . S
C576 H560 0.931 . S
C576 C570 1.383 . S
C576 C575 1.379 . S
H577 C571 0.959 1_554 S
H578 C571 0.961 . S
H579 C571 0.960 . S
H580 C572 0.930 . S
H581 C573 0.929 . S
H582 C590 0.929 . S
H583 C592 0.930 . S
H584 C594 0.930 . S
H585 C597 0.929 . S
H586 C600 0.930 . S
H587 C602 0.960 . S
H588 C602 0.960 . S
H589 C602 0.960 . S
C590 H582 0.929 . S
C590 C591 1.377 . S
C590 C592 1.384 . S
C591 C590 1.377 . S
C591 C597 1.390 . S
C592 H583 0.930 . S
C592 C590 1.384 . S
C592 C593 1.372 . S
C593 C592 1.372 . S
C593 C594 1.400 . S
C593 C598 1.490 . S
C594 H584 0.930 . S
C594 C593 1.400 . S
C594 C597 1.386 . S
H595 C611 0.930 . S
H596 C612 0.931 1_655 S
C597 H585 0.929 . S
C597 C591 1.390 . S
C597 C594 1.386 . S
C598 C593 1.490 . S
C598 C600 1.395 1_455 S
C598 C601 1.403 . S
H599 C605 0.930 . S
C600 H586 0.930 . S
C600 C598 1.395 1_655 S
C600 C603 1.403 . S
C601 C598 1.403 . S
C601 C602 1.524 . S
C601 C605 1.400 . S
C602 H587 0.960 . S
C602 H588 0.960 . S
C602 H589 0.960 . S
C602 C601 1.524 . S
C603 C600 1.403 . S
C603 C604 1.392 1_655 S
C603 C607 1.495 . S
C604 C603 1.392 1_455 S
C604 C605 1.385 . S
C604 C606 1.478 . S
C605 H599 0.930 . S
C605 C601 1.400 . S
C605 C604 1.385 . S
C606 C604 1.478 . S
C606 C608 1.381 . S
C606 C612 1.383 . S
C607 C603 1.495 . S
C607 H613 0.959 . S
C607 H614 0.961 . S
C607 H615 0.960 . S
C608 C606 1.381 . S
C608 C609 1.394 . S
C608 H616 0.930 . S
C609 C608 1.394 . S
C609 C610 1.383 . S
C609 H617 0.929 . S
C610 C609 1.383 . S
C610 C611 1.377 . S
C611 H595 0.930 . S
C611 C610 1.377 . S
C611 C612 1.379 . S
C612 H596 0.931 1_455 S
C612 C606 1.383 . S
C612 C611 1.379 . S
H613 C607 0.959 . S
H614 C607 0.961 . S
H615 C607 0.960 . S
H616 C608 0.930 . S
H617 C609 0.929 . S
H618 C626 0.929 . S
H619 C628 0.930 . S
H620 C630 0.930 . S
H621 C633 0.929 . S
H622 C636 0.930 . S
H623 C638 0.960 . S
H624 C638 0.960 . S
H625 C638 0.960 1_565 S
C626 H618 0.929 . S
C626 C627 1.377 . S
C626 C628 1.384 . S
C627 C626 1.377 . S
C627 C633 1.390 1_545 S
C628 H619 0.930 . S
C628 C626 1.384 . S
C628 C629 1.372 . S
C629 C628 1.372 . S
C629 C630 1.400 1_545 S
C629 C634 1.490 . S
C630 H620 0.930 . S
C630 C629 1.400 1_565 S
C630 C633 1.386 . S
H631 C647 0.930 1_565 S
H632 C648 0.931 1_565 S
C633 H621 0.929 . S
C633 C627 1.390 1_565 S
C633 C630 1.386 . S
C634 C629 1.490 . S
C634 C636 1.395 . S
C634 C637 1.403 . S
H635 C641 0.930 . S
C636 H622 0.930 . S
C636 C634 1.395 . S
C636 C639 1.403 . S
C637 C634 1.403 . S
C637 C638 1.524 . S
C637 C641 1.400 . S
C638 H623 0.960 . S
C638 H624 0.960 . S
C638 H625 0.960 1_545 S
C638 C637 1.524 . S
C639 C636 1.403 . S
C639 C640 1.392 . S
C639 C643 1.495 . S
C640 C639 1.392 . S
C640 C641 1.385 . S
C640 C642 1.478 . S
C641 H635 0.930 . S
C641 C637 1.400 . S
C641 C640 1.385 . S
C642 C640 1.478 . S
C642 C644 1.381 . S
C642 C648 1.383 . S
C643 C639 1.495 . S
C643 H649 0.959 . S
C643 H650 0.961 . S
C643 H651 0.960 . S
C644 C642 1.381 . S
C644 C645 1.394 . S
C644 H652 0.930 . S
C645 C644 1.394 . S
C645 C646 1.383 . S
C645 H653 0.929 . S
C646 C645 1.383 . S
C646 C647 1.377 . S
C647 H631 0.930 1_545 S
C647 C646 1.377 . S
C647 C648 1.379 . S
C648 H632 0.931 1_545 S
C648 C642 1.383 . S
C648 C647 1.379 . S
H649 C643 0.959 . S
H650 C643 0.961 . S
H651 C643 0.960 . S
H652 C644 0.930 . S
H653 C645 0.929 . S
H654 C662 0.929 . S
H655 C664 0.930 . S
H656 C666 0.930 . S
H657 C669 0.929 . S
H658 C672 0.930 . S
H659 C674 0.960 . S
H660 C674 0.960 . S
H661 C674 0.960 . S
C662 H654 0.929 . S
C662 C663 1.377 . S
C662 C664 1.384 . S
C663 C662 1.377 . S
C663 C669 1.390 1_554 S
C664 H655 0.930 . S
C664 C662 1.384 . S
C664 C665 1.372 1_554 S
C665 C664 1.372 1_556 S
C665 C666 1.400 . S
C665 C670 1.490 . S
C666 H656 0.930 . S
C666 C665 1.400 . S
C666 C669 1.386 . S
H667 C683 0.930 . S
H668 C684 0.931 . S
C669 H657 0.929 . S
C669 C663 1.390 1_556 S
C669 C666 1.386 . S
C670 C665 1.490 . S
C670 C672 1.395 . S
C670 C673 1.403 . S
H671 C677 0.930 . S
C672 H658 0.930 . S
C672 C670 1.395 . S
C672 C675 1.403 . S
C673 C670 1.403 . S
C673 C674 1.524 . S
C673 C677 1.400 . S
C674 H659 0.960 . S
C674 H660 0.960 . S
C674 H661 0.960 . S
C674 C673 1.524 . S
C675 C672 1.403 . S
C675 C676 1.392 . S
C675 C679 1.495 . S
C676 C675 1.392 . S
C676 C677 1.385 . S
C676 C678 1.478 . S
C677 H671 0.930 . S
C677 C673 1.400 . S
C677 C676 1.385 . S
C678 C676 1.478 . S
C678 C680 1.381 . S
C678 C684 1.383 . S
C679 C675 1.495 . S
C679 H685 0.959 . S
C679 H686 0.961 . S
C679 H687 0.960 . S
C680 C678 1.381 . S
C680 C681 1.394 . S
C680 H688 0.930 . S
C681 C680 1.394 . S
C681 C682 1.383 . S
C681 H689 0.929 . S
C682 C681 1.383 . S
C682 C683 1.377 . S
C683 H667 0.930 . S
C683 C682 1.377 . S
C683 C684 1.379 . S
C684 H668 0.931 . S
C684 C678 1.383 . S
C684 C683 1.379 . S
H685 C679 0.959 . S
H686 C679 0.961 . S
H687 C679 0.960 . S
H688 C680 0.930 . S
H689 C681 0.929 . S
H690 C698 0.920 1_655 S
H691 C700 0.911 1_655 S
H692 C702 0.930 . S
H693 C705 0.929 . S
H694 C708 0.930 . S
H695 C710 0.960 . S
H696 C710 0.960 . S
H697 C710 0.960 . S
C698 H690 0.920 1_455 S
C698 C699 1.397 . S
C698 C700 1.384 . S
C699 C698 1.397 . S
C699 C705 1.390 . S
C700 H691 0.911 1_455 S
C700 C698 1.384 . S
C700 C701 1.381 . S
C701 C700 1.381 . S
C701 C702 1.400 . S
C701 C706 1.490 . S
C702 H692 0.930 . S
C702 C701 1.400 . S
C702 C705 1.386 . S
H703 C719 0.930 . S
H704 C720 0.931 . S
C705 H693 0.929 . S
C705 C699 1.390 . S
C705 C702 1.386 . S
C706 C701 1.490 . S
C706 C708 1.395 . S
C706 C709 1.403 1_455 S
H707 C713 0.930 1_655 S
C708 H694 0.930 . S
C708 C706 1.395 . S
C708 C711 1.403 . S
C709 C706 1.403 1_655 S
C709 C710 1.524 . S
C709 C713 1.400 1_655 S
C710 H695 0.960 . S
C710 H696 0.960 . S
C710 H697 0.960 . S
C710 C709 1.524 . S
C711 C708 1.403 . S
C711 C712 1.392 . S
C711 C715 1.495 . S
C712 C711 1.392 . S
C712 C713 1.385 . S
C712 C714 1.478 . S
C713 H707 0.930 1_455 S
C713 C709 1.400 1_455 S
C713 C712 1.385 . S
C714 C712 1.478 . S
C714 C716 1.381 . S
C714 C720 1.383 . S
C715 C711 1.495 . S
C715 H721 0.959 . S
C715 H722 0.961 . S
C715 H723 0.960 . S
C716 C714 1.381 . S
C716 C717 1.394 . S
C716 H724 0.930 1_455 S
C717 C716 1.394 . S
C717 C718 1.383 . S
C717 H725 0.929 1_455 S
C718 C717 1.383 . S
C718 C719 1.377 . S
C719 H703 0.930 . S
C719 C718 1.377 . S
C719 C720 1.379 . S
C720 H704 0.931 . S
C720 C714 1.383 . S
C720 C719 1.379 . S
H721 C715 0.959 . S
H722 C715 0.961 . S
H723 C715 0.960 . S
H724 C716 0.930 1_655 S
H725 C717 0.929 1_655 S
C322 C161 1.344 . S
C303 C14 1.311 . S
C339 C40 1.381 . S
C358 C205 1.385 . S
C375 C76 1.365 . S
C394 C267 1.361 . S
C411 C3 1.352 . S
C430 C143 1.352 . S
C466 C223 1.389 . S
C447 C38 1.373 . S
C483 C74 1.345 . S
C502 C285 1.352 . S
C538 C199 1.604 . S
C519 C86 1.615 . S
C555 C2 1.691 . S
C574 C261 1.634 . S
C610 C137 1.605 . S
C591 C39 1.708 . S
C646 C217 1.625 . S
C627 C75 1.696 . S
C682 C279 1.630 . S
C663 C4 1.708 . S
C699 C50 1.628 . S
C718 C155 1.627 . S
