# Generated by pormake.
# Topology tbo, (3,4)-cn, num edge types: 1
# Building blocks:
#     Node 0, Type 0, BuildingBlock: PAMTOO_clean_linker_0, # of connection points: 3
#     Node 1, Type 0, BuildingBlock: PAMTOO_clean_linker_0, # of connection points: 3
#     Node 2, Type 0, BuildingBlock: PAMTOO_clean_linker_0, # of connection points: 3
#     Node 3, Type 0, BuildingBlock: PAMTOO_clean_linker_0, # of connection points: 3
#     Node 4, Type 0, BuildingBlock: PAMTOO_clean_linker_0, # of connection points: 3
#     Node 5, Type 0, BuildingBlock: PAMTOO_clean_linker_0, # of connection points: 3
#     Node 6, Type 0, BuildingBlock: PAMTOO_clean_linker_0, # of connection points: 3
#     Node 7, Type 0, BuildingBlock: PAMTOO_clean_linker_0, # of connection points: 3
#     Node 8, Type 0, BuildingBlock: PAMTOO_clean_linker_0, # of connection points: 3
#     Node 9, Type 0, BuildingBlock: PAMTOO_clean_linker_0, # of connection points: 3
#     Node 10, Type 0, BuildingBlock: PAMTOO_clean_linker_0, # of connection points: 3
#     Node 11, Type 0, BuildingBlock: PAMTOO_clean_linker_0, # of connection points: 3
#     Node 12, Type 0, BuildingBlock: PAMTOO_clean_linker_0, # of connection points: 3
#     Node 13, Type 0, BuildingBlock: PAMTOO_clean_linker_0, # of connection points: 3
#     Node 14, Type 0, BuildingBlock: PAMTOO_clean_linker_0, # of connection points: 3
#     Node 15, Type 0, BuildingBlock: PAMTOO_clean_linker_0, # of connection points: 3
#     Node 16, Type 0, BuildingBlock: PAMTOO_clean_linker_0, # of connection points: 3
#     Node 17, Type 0, BuildingBlock: PAMTOO_clean_linker_0, # of connection points: 3
#     Node 18, Type 0, BuildingBlock: PAMTOO_clean_linker_0, # of connection points: 3
#     Node 19, Type 0, BuildingBlock: PAMTOO_clean_linker_0, # of connection points: 3
#     Node 20, Type 0, BuildingBlock: PAMTOO_clean_linker_0, # of connection points: 3
#     Node 21, Type 0, BuildingBlock: PAMTOO_clean_linker_0, # of connection points: 3
#     Node 22, Type 0, BuildingBlock: PAMTOO_clean_linker_0, # of connection points: 3
#     Node 23, Type 0, BuildingBlock: PAMTOO_clean_linker_0, # of connection points: 3
#     Node 24, Type 0, BuildingBlock: PAMTOO_clean_linker_0, # of connection points: 3
#     Node 25, Type 0, BuildingBlock: PAMTOO_clean_linker_0, # of connection points: 3
#     Node 26, Type 0, BuildingBlock: PAMTOO_clean_linker_0, # of connection points: 3
#     Node 27, Type 0, BuildingBlock: PAMTOO_clean_linker_0, # of connection points: 3
#     Node 28, Type 0, BuildingBlock: PAMTOO_clean_linker_0, # of connection points: 3
#     Node 29, Type 0, BuildingBlock: PAMTOO_clean_linker_0, # of connection points: 3
#     Node 30, Type 0, BuildingBlock: PAMTOO_clean_linker_0, # of connection points: 3
#     Node 31, Type 0, BuildingBlock: PAMTOO_clean_linker_0, # of connection points: 3
#     Node 32, Type 1, BuildingBlock: ESEHIV_clean_sbu_0, # of connection points: 4
#     Node 33, Type 1, BuildingBlock: ESEHIV_clean_sbu_0, # of connection points: 4
#     Node 34, Type 1, BuildingBlock: ESEHIV_clean_sbu_0, # of connection points: 4
#     Node 35, Type 1, BuildingBlock: ESEHIV_clean_sbu_0, # of connection points: 4
#     Node 36, Type 1, BuildingBlock: ESEHIV_clean_sbu_0, # of connection points: 4
#     Node 37, Type 1, BuildingBlock: ESEHIV_clean_sbu_0, # of connection points: 4
#     Node 38, Type 1, BuildingBlock: ESEHIV_clean_sbu_0, # of connection points: 4
#     Node 39, Type 1, BuildingBlock: ESEHIV_clean_sbu_0, # of connection points: 4
#     Node 40, Type 1, BuildingBlock: ESEHIV_clean_sbu_0, # of connection points: 4
#     Node 41, Type 1, BuildingBlock: ESEHIV_clean_sbu_0, # of connection points: 4
#     Node 42, Type 1, BuildingBlock: ESEHIV_clean_sbu_0, # of connection points: 4
#     Node 43, Type 1, BuildingBlock: ESEHIV_clean_sbu_0, # of connection points: 4
#     Node 44, Type 1, BuildingBlock: ESEHIV_clean_sbu_0, # of connection points: 4
#     Node 45, Type 1, BuildingBlock: ESEHIV_clean_sbu_0, # of connection points: 4
#     Node 46, Type 1, BuildingBlock: ESEHIV_clean_sbu_0, # of connection points: 4
#     Node 47, Type 1, BuildingBlock: ESEHIV_clean_sbu_0, # of connection points: 4
#     Node 48, Type 1, BuildingBlock: ESEHIV_clean_sbu_0, # of connection points: 4
#     Node 49, Type 1, BuildingBlock: ESEHIV_clean_sbu_0, # of connection points: 4
#     Node 50, Type 1, BuildingBlock: ESEHIV_clean_sbu_0, # of connection points: 4
#     Node 51, Type 1, BuildingBlock: ESEHIV_clean_sbu_0, # of connection points: 4
#     Node 52, Type 1, BuildingBlock: ESEHIV_clean_sbu_0, # of connection points: 4
#     Node 53, Type 1, BuildingBlock: ESEHIV_clean_sbu_0, # of connection points: 4
#     Node 54, Type 1, BuildingBlock: ESEHIV_clean_sbu_0, # of connection points: 4
#     Node 55, Type 1, BuildingBlock: ESEHIV_clean_sbu_0, # of connection points: 4
#     Edge 56, Type (0, 1), BuildingBlock: AJUNOK_clean_linker_0, # of connection points: 2
#     Edge 57, Type (0, 1), BuildingBlock: AJUNOK_clean_linker_0, # of connection points: 2
#     Edge 58, Type (0, 1), BuildingBlock: AJUNOK_clean_linker_0, # of connection points: 2
#     Edge 59, Type (0, 1), BuildingBlock: AJUNOK_clean_linker_0, # of connection points: 2
#     Edge 60, Type (0, 1), BuildingBlock: AJUNOK_clean_linker_0, # of connection points: 2
#     Edge 61, Type (0, 1), BuildingBlock: AJUNOK_clean_linker_0, # of connection points: 2
#     Edge 62, Type (0, 1), BuildingBlock: AJUNOK_clean_linker_0, # of connection points: 2
#     Edge 63, Type (0, 1), BuildingBlock: AJUNOK_clean_linker_0, # of connection points: 2
#     Edge 64, Type (0, 1), BuildingBlock: AJUNOK_clean_linker_0, # of connection points: 2
#     Edge 65, Type (0, 1), BuildingBlock: AJUNOK_clean_linker_0, # of connection points: 2
#     Edge 66, Type (0, 1), BuildingBlock: AJUNOK_clean_linker_0, # of connection points: 2
#     Edge 67, Type (0, 1), BuildingBlock: AJUNOK_clean_linker_0, # of connection points: 2
#     Edge 68, Type (0, 1), BuildingBlock: AJUNOK_clean_linker_0, # of connection points: 2
#     Edge 69, Type (0, 1), BuildingBlock: AJUNOK_clean_linker_0, # of connection points: 2
#     Edge 70, Type (0, 1), BuildingBlock: AJUNOK_clean_linker_0, # of connection points: 2
#     Edge 71, Type (0, 1), BuildingBlock: AJUNOK_clean_linker_0, # of connection points: 2
#     Edge 72, Type (0, 1), BuildingBlock: AJUNOK_clean_linker_0, # of connection points: 2
#     Edge 73, Type (0, 1), BuildingBlock: AJUNOK_clean_linker_0, # of connection points: 2
#     Edge 74, Type (0, 1), BuildingBlock: AJUNOK_clean_linker_0, # of connection points: 2
#     Edge 75, Type (0, 1), BuildingBlock: AJUNOK_clean_linker_0, # of connection points: 2
#     Edge 76, Type (0, 1), BuildingBlock: AJUNOK_clean_linker_0, # of connection points: 2
#     Edge 77, Type (0, 1), BuildingBlock: AJUNOK_clean_linker_0, # of connection points: 2
#     Edge 78, Type (0, 1), BuildingBlock: AJUNOK_clean_linker_0, # of connection points: 2
#     Edge 79, Type (0, 1), BuildingBlock: AJUNOK_clean_linker_0, # of connection points: 2
#     Edge 80, Type (0, 1), BuildingBlock: AJUNOK_clean_linker_0, # of connection points: 2
#     Edge 81, Type (0, 1), BuildingBlock: AJUNOK_clean_linker_0, # of connection points: 2
#     Edge 82, Type (0, 1), BuildingBlock: AJUNOK_clean_linker_0, # of connection points: 2
#     Edge 83, Type (0, 1), BuildingBlock: AJUNOK_clean_linker_0, # of connection points: 2
#     Edge 84, Type (0, 1), BuildingBlock: AJUNOK_clean_linker_0, # of connection points: 2
#     Edge 85, Type (0, 1), BuildingBlock: AJUNOK_clean_linker_0, # of connection points: 2
#     Edge 86, Type (0, 1), BuildingBlock: AJUNOK_clean_linker_0, # of connection points: 2
#     Edge 87, Type (0, 1), BuildingBlock: AJUNOK_clean_linker_0, # of connection points: 2
#     Edge 88, Type (0, 1), BuildingBlock: AJUNOK_clean_linker_0, # of connection points: 2
#     Edge 89, Type (0, 1), BuildingBlock: AJUNOK_clean_linker_0, # of connection points: 2
#     Edge 90, Type (0, 1), BuildingBlock: AJUNOK_clean_linker_0, # of connection points: 2
#     Edge 91, Type (0, 1), BuildingBlock: AJUNOK_clean_linker_0, # of connection points: 2
#     Edge 92, Type (0, 1), BuildingBlock: AJUNOK_clean_linker_0, # of connection points: 2
#     Edge 93, Type (0, 1), BuildingBlock: AJUNOK_clean_linker_0, # of connection points: 2
#     Edge 94, Type (0, 1), BuildingBlock: AJUNOK_clean_linker_0, # of connection points: 2
#     Edge 95, Type (0, 1), BuildingBlock: AJUNOK_clean_linker_0, # of connection points: 2
#     Edge 96, Type (0, 1), BuildingBlock: AJUNOK_clean_linker_0, # of connection points: 2
#     Edge 97, Type (0, 1), BuildingBlock: AJUNOK_clean_linker_0, # of connection points: 2
#     Edge 98, Type (0, 1), BuildingBlock: AJUNOK_clean_linker_0, # of connection points: 2
#     Edge 99, Type (0, 1), BuildingBlock: AJUNOK_clean_linker_0, # of connection points: 2
#     Edge 100, Type (0, 1), BuildingBlock: AJUNOK_clean_linker_0, # of connection points: 2
#     Edge 101, Type (0, 1), BuildingBlock: AJUNOK_clean_linker_0, # of connection points: 2
#     Edge 102, Type (0, 1), BuildingBlock: AJUNOK_clean_linker_0, # of connection points: 2
#     Edge 103, Type (0, 1), BuildingBlock: AJUNOK_clean_linker_0, # of connection points: 2
#     Edge 104, Type (0, 1), BuildingBlock: AJUNOK_clean_linker_0, # of connection points: 2
#     Edge 105, Type (0, 1), BuildingBlock: AJUNOK_clean_linker_0, # of connection points: 2
#     Edge 106, Type (0, 1), BuildingBlock: AJUNOK_clean_linker_0, # of connection points: 2
#     Edge 107, Type (0, 1), BuildingBlock: AJUNOK_clean_linker_0, # of connection points: 2
#     Edge 108, Type (0, 1), BuildingBlock: AJUNOK_clean_linker_0, # of connection points: 2
#     Edge 109, Type (0, 1), BuildingBlock: AJUNOK_clean_linker_0, # of connection points: 2
#     Edge 110, Type (0, 1), BuildingBlock: AJUNOK_clean_linker_0, # of connection points: 2
#     Edge 111, Type (0, 1), BuildingBlock: AJUNOK_clean_linker_0, # of connection points: 2
#     Edge 112, Type (0, 1), BuildingBlock: AJUNOK_clean_linker_0, # of connection points: 2
#     Edge 113, Type (0, 1), BuildingBlock: AJUNOK_clean_linker_0, # of connection points: 2
#     Edge 114, Type (0, 1), BuildingBlock: AJUNOK_clean_linker_0, # of connection points: 2
#     Edge 115, Type (0, 1), BuildingBlock: AJUNOK_clean_linker_0, # of connection points: 2
#     Edge 116, Type (0, 1), BuildingBlock: AJUNOK_clean_linker_0, # of connection points: 2
#     Edge 117, Type (0, 1), BuildingBlock: AJUNOK_clean_linker_0, # of connection points: 2
#     Edge 118, Type (0, 1), BuildingBlock: AJUNOK_clean_linker_0, # of connection points: 2
#     Edge 119, Type (0, 1), BuildingBlock: AJUNOK_clean_linker_0, # of connection points: 2
#     Edge 120, Type (0, 1), BuildingBlock: AJUNOK_clean_linker_0, # of connection points: 2
#     Edge 121, Type (0, 1), BuildingBlock: AJUNOK_clean_linker_0, # of connection points: 2
#     Edge 122, Type (0, 1), BuildingBlock: AJUNOK_clean_linker_0, # of connection points: 2
#     Edge 123, Type (0, 1), BuildingBlock: AJUNOK_clean_linker_0, # of connection points: 2
#     Edge 124, Type (0, 1), BuildingBlock: AJUNOK_clean_linker_0, # of connection points: 2
#     Edge 125, Type (0, 1), BuildingBlock: AJUNOK_clean_linker_0, # of connection points: 2
#     Edge 126, Type (0, 1), BuildingBlock: AJUNOK_clean_linker_0, # of connection points: 2
#     Edge 127, Type (0, 1), BuildingBlock: AJUNOK_clean_linker_0, # of connection points: 2
#     Edge 128, Type (0, 1), BuildingBlock: AJUNOK_clean_linker_0, # of connection points: 2
#     Edge 129, Type (0, 1), BuildingBlock: AJUNOK_clean_linker_0, # of connection points: 2
#     Edge 130, Type (0, 1), BuildingBlock: AJUNOK_clean_linker_0, # of connection points: 2
#     Edge 131, Type (0, 1), BuildingBlock: AJUNOK_clean_linker_0, # of connection points: 2
#     Edge 132, Type (0, 1), BuildingBlock: AJUNOK_clean_linker_0, # of connection points: 2
#     Edge 133, Type (0, 1), BuildingBlock: AJUNOK_clean_linker_0, # of connection points: 2
#     Edge 134, Type (0, 1), BuildingBlock: AJUNOK_clean_linker_0, # of connection points: 2
#     Edge 135, Type (0, 1), BuildingBlock: AJUNOK_clean_linker_0, # of connection points: 2
#     Edge 136, Type (0, 1), BuildingBlock: AJUNOK_clean_linker_0, # of connection points: 2
#     Edge 137, Type (0, 1), BuildingBlock: AJUNOK_clean_linker_0, # of connection points: 2
#     Edge 138, Type (0, 1), BuildingBlock: AJUNOK_clean_linker_0, # of connection points: 2
#     Edge 139, Type (0, 1), BuildingBlock: AJUNOK_clean_linker_0, # of connection points: 2
#     Edge 140, Type (0, 1), BuildingBlock: AJUNOK_clean_linker_0, # of connection points: 2
#     Edge 141, Type (0, 1), BuildingBlock: AJUNOK_clean_linker_0, # of connection points: 2
#     Edge 142, Type (0, 1), BuildingBlock: AJUNOK_clean_linker_0, # of connection points: 2
#     Edge 143, Type (0, 1), BuildingBlock: AJUNOK_clean_linker_0, # of connection points: 2
#     Edge 144, Type (0, 1), BuildingBlock: AJUNOK_clean_linker_0, # of connection points: 2
#     Edge 145, Type (0, 1), BuildingBlock: AJUNOK_clean_linker_0, # of connection points: 2
#     Edge 146, Type (0, 1), BuildingBlock: AJUNOK_clean_linker_0, # of connection points: 2
#     Edge 147, Type (0, 1), BuildingBlock: AJUNOK_clean_linker_0, # of connection points: 2
#     Edge 148, Type (0, 1), BuildingBlock: AJUNOK_clean_linker_0, # of connection points: 2
#     Edge 149, Type (0, 1), BuildingBlock: AJUNOK_clean_linker_0, # of connection points: 2
#     Edge 150, Type (0, 1), BuildingBlock: AJUNOK_clean_linker_0, # of connection points: 2
#     Edge 151, Type (0, 1), BuildingBlock: AJUNOK_clean_linker_0, # of connection points: 2
# Relax obj value: 0.022
# Max RMSD: 0.193
# Mean RMSD: 0.111
data_MOF--net-tbo--node1-ESEHIV_clean_sbu_0--node2-PAMTOO_clean_linker_0--edge1-AJUNOK_clean_linker_0
_symmetry_space_group_name_H-M    P1
_symmetry_Int_Tables_number       1
_symmetry_cell_setting            triclinic
loop_
_symmetry_equiv_pos_as_xyz
'x, y, z'
_cell_length_a     52.050896
_cell_length_b     54.297426
_cell_length_c     53.762967
_cell_angle_alpha  90.807476
_cell_angle_beta   94.458649
_cell_angle_gamma 97.629521
loop_
_atom_site_label
_atom_site_type_symbol
_atom_site_fract_x
_atom_site_fract_y
_atom_site_fract_z
_atom_type_partial_charge
H0 H 0.14611 0.24086 0.22299 0.0
H1 H 0.15165 0.18028 0.27328 0.0
H2 H 0.20274 0.19074 0.21452 0.0
H3 H 0.18598 0.13855 0.2231 0.0
C4 C 0.18203 0.13939 0.24312 0.0
O5 O 0.18988 0.16336 0.25242 0.0
H6 H 0.16071 0.13447 0.24424 0.0
C7 C 0.15502 0.22477 0.22894 0.0
C8 C 0.17495 0.21715 0.21545 0.0
C9 C 0.14665 0.21205 0.2502 0.0
C10 C 0.15813 0.19086 0.25747 0.0
C11 C 0.17814 0.1831 0.24447 0.0
C12 C 0.18668 0.19644 0.22379 0.0
H13 H 0.88411 0.20361 0.23606 0.0
H14 H 0.83323 0.20367 0.16915 0.0
H15 H 0.89551 0.26333 0.18423 0.0
H16 H 0.83881 0.27565 0.16136 0.0
C17 C 0.8345 0.25787 0.15039 0.0
O18 O 0.85573 0.24504 0.15293 0.0
H19 H 0.8174 0.24663 0.15771 0.0
C20 C 0.87844 0.21237 0.21886 0.0
C21 C 0.893 0.23462 0.2119 0.0
C22 C 0.85685 0.2011 0.20359 0.0
C23 C 0.84975 0.21221 0.18123 0.0
C24 C 0.8632 0.23482 0.17461 0.0
C25 C 0.88476 0.24614 0.18992 0.0
H26 H 0.89288 0.84859 0.2032 0.0
H27 H 0.84049 0.904 0.20122 0.0
H28 H 0.90077 0.90653 0.26025 0.0
H29 H 0.8568 0.92596 0.27728 0.0
C30 C 0.84649 0.93023 0.2593 0.0
O31 O 0.86317 0.92915 0.24059 0.0
H32 H 0.82906 0.91604 0.25557 0.0
C33 C 0.88625 0.86475 0.21135 0.0
C34 C 0.89966 0.87624 0.23327 0.0
C35 C 0.86504 0.8748 0.19926 0.0
C36 C 0.85687 0.89606 0.20995 0.0
C37 C 0.8699 0.90755 0.23171 0.0
C38 C 0.89106 0.89755 0.2433 0.0
H39 H 0.13693 0.86972 0.22659 0.0
H40 H 0.14361 0.81509 0.16964 0.0
H41 H 0.20115 0.87985 0.18025 0.0
H42 H 0.19005 0.86469 0.12621 0.0
C43 C 0.17949 0.8459 0.12917 0.0
O44 O 0.18583 0.83888 0.15322 0.0
H45 H 0.15831 0.84729 0.12615 0.0
C46 C 0.14722 0.8634 0.21143 0.0
C47 C 0.1701 0.87767 0.205 0.0
C48 C 0.13755 0.84091 0.19881 0.0
C49 C 0.15105 0.83236 0.17963 0.0
C50 C 0.17381 0.84655 0.17276 0.0
C51 C 0.18356 0.86899 0.18568 0.0
H52 H 0.15339 0.91832 0.82918 0.0
H53 H 0.16643 0.86024 0.8806 0.0
H54 H 0.2279 0.91926 0.87035 0.0
H55 H 0.24607 0.86997 0.87764 0.0
C56 C 0.22999 0.86082 0.88815 0.0
O57 O 0.21464 0.87846 0.89454 0.0
H58 H 0.21833 0.8461 0.87584 0.0
C59 C 0.16608 0.90997 0.8426 0.0
C60 C 0.19173 0.92133 0.84818 0.0
C61 C 0.15663 0.88801 0.85419 0.0
C62 C 0.17325 0.87737 0.87164 0.0
C63 C 0.19894 0.88857 0.87738 0.0
C64 C 0.20813 0.91052 0.86563 0.0
H65 H 0.19272 0.25133 0.94114 0.0
H66 H 0.19533 0.21133 0.87166 0.0
H67 H 0.24211 0.19424 0.93705 0.0
H68 H 0.26877 0.19099 0.89426 0.0
C69 C 0.25295 0.18502 0.87946 0.0
O70 O 0.2291 0.18266 0.88967 0.0
H71 H 0.25326 0.19962 0.86512 0.0
C72 C 0.20029 0.23738 0.93022 0.0
C73 C 0.21836 0.22339 0.94203 0.0
C74 C 0.19158 0.23342 0.90484 0.0
C75 C 0.20215 0.21537 0.89101 0.0
C76 C 0.22061 0.20139 0.90252 0.0
C77 C 0.22856 0.20548 0.92804 0.0
H78 H 0.8278 0.20258 0.90334 0.0
H79 H 0.89648 0.24879 0.88225 0.0
H80 H 0.87011 0.17978 0.84326 0.0
H81 H 0.92457 0.1889 0.83757 0.0
C82 C 0.927 0.20499 0.85095 0.0
O83 O 0.90592 0.21789 0.84723 0.0
H84 H 0.92821 0.19723 0.87005 0.0
C85 C 0.84387 0.20607 0.89164 0.0
C86 C 0.84682 0.1885 0.87291 0.0
C87 C 0.86161 0.22814 0.89522 0.0
C88 C 0.88266 0.23198 0.88011 0.0
C89 C 0.88555 0.21449 0.86149 0.0
C90 C 0.86743 0.1932 0.85764 0.0
H91 H 0.79193 0.91263 0.91786 0.0
H92 H 0.84797 0.86121 0.92542 0.0
H93 H 0.84718 0.90907 0.86252 0.0
H94 H 0.85262 0.85473 0.85189 0.0
C95 C 0.86522 0.85152 0.86887 0.0
O96 O 0.86925 0.87293 0.88375 0.0
H97 H 0.85462 0.83616 0.87906 0.0
C98 C 0.80845 0.90516 0.9111 0.0
C99 C 0.81861 0.91406 0.88884 0.0
C100 C 0.81915 0.88653 0.92479 0.0
C101 C 0.83945 0.87557 0.91518 0.0
C102 C 0.84925 0.88338 0.89253 0.0
C103 C 0.83894 0.90269 0.87956 0.0
H104 H 0.15262 0.76292 0.69225 0.0
H105 H 0.14976 0.69991 0.74081 0.0
H106 H 0.205 0.70827 0.68573 0.0
H107 H 0.18198 0.65527 0.69239 0.0
C108 C 0.17612 0.65721 0.71171 0.0
O109 O 0.18675 0.68034 0.7215 0.0
H110 H 0.1545 0.65542 0.71054 0.0
C111 C 0.15962 0.7459 0.69831 0.0
C112 C 0.18037 0.73742 0.6866 0.0
C113 C 0.14824 0.73245 0.71806 0.0
C114 C 0.15775 0.71035 0.7255 0.0
C115 C 0.17785 0.70156 0.71373 0.0
C116 C 0.18916 0.71511 0.69448 0.0
H117 H 0.88221 0.71542 0.72639 0.0
H118 H 0.82828 0.71444 0.66118 0.0
H119 H 0.89545 0.76979 0.66979 0.0
H120 H 0.85735 0.79135 0.64787 0.0
C121 C 0.84262 0.77566 0.64062 0.0
O122 O 0.85337 0.75374 0.64171 0.0
H123 H 0.82591 0.77436 0.65249 0.0
C124 C 0.87635 0.72291 0.70858 0.0
C125 C 0.89149 0.74396 0.69987 0.0
C126 C 0.85376 0.71158 0.69462 0.0
C127 C 0.84565 0.72263 0.67229 0.0
C128 C 0.8606 0.74373 0.6636 0.0
C129 C 0.88367 0.75399 0.67712 0.0
H130 H 0.9025 0.35509 0.72732 0.0
H131 H 0.84609 0.40634 0.71715 0.0
H132 H 0.90814 0.42043 0.77494 0.0
H133 H 0.8556 0.42903 0.78805 0.0
C134 C 0.84902 0.43818 0.77074 0.0
O135 O 0.86728 0.4373 0.7534 0.0
H136 H 0.83021 0.42755 0.76324 0.0
C137 C 0.89521 0.37204 0.73261 0.0
C138 C 0.90826 0.38681 0.75277 0.0
C139 C 0.87288 0.37885 0.71921 0.0
C140 C 0.86346 0.40084 0.72668 0.0
C141 C 0.87608 0.41576 0.74681 0.0
C142 C 0.89837 0.40866 0.75969 0.0
H143 H 0.16922 0.40507 0.73658 0.0
H144 H 0.14295 0.34227 0.68709 0.0
H145 H 0.20086 0.40012 0.66534 0.0
H146 H 0.15724 0.37189 0.62221 0.0
C147 C 0.15524 0.35444 0.6329 0.0
O148 O 0.17396 0.35666 0.65274 0.0
H149 H 0.13539 0.35141 0.6396 0.0
C150 C 0.16979 0.39528 0.71895 0.0
C151 C 0.18697 0.40529 0.70169 0.0
C152 C 0.15325 0.37292 0.7136 0.0
C153 C 0.15513 0.35985 0.69132 0.0
C154 C 0.17199 0.36979 0.67384 0.0
C155 C 0.18763 0.39269 0.67882 0.0
H156 H 0.16566 0.41994 0.3364 0.0
H157 H 0.15268 0.3553 0.38175 0.0
H158 H 0.22645 0.40112 0.3892 0.0
H159 H 0.22844 0.34903 0.38643 0.0
C160 C 0.21272 0.34223 0.39853 0.0
O161 O 0.19944 0.36154 0.40464 0.0
H162 H 0.19917 0.32751 0.38792 0.0
C163 C 0.17266 0.40788 0.35054 0.0
C164 C 0.19824 0.41326 0.36199 0.0
C165 C 0.15603 0.38702 0.35777 0.0
C166 C 0.1652 0.37149 0.37612 0.0
C167 C 0.19054 0.37665 0.38725 0.0
C168 C 0.2068 0.39755 0.38045 0.0
H169 H 0.18829 0.73769 0.40744 0.0
H170 H 0.17741 0.68887 0.3428 0.0
H171 H 0.23392 0.67727 0.40291 0.0
H172 H 0.24766 0.67272 0.34653 0.0
C173 C 0.22885 0.66159 0.33977 0.0
O174 O 0.21199 0.66018 0.35869 0.0
H175 H 0.22022 0.67138 0.32381 0.0
C176 C 0.19381 0.72207 0.39727 0.0
C177 C 0.21307 0.70878 0.40813 0.0
C178 C 0.18115 0.71542 0.37365 0.0
C179 C 0.18721 0.69436 0.36093 0.0
C180 C 0.20644 0.68064 0.37124 0.0
C181 C 0.21923 0.68787 0.39492 0.0
H182 H 0.81351 0.65841 0.38817 0.0
H183 H 0.87767 0.71733 0.40227 0.0
H184 H 0.87919 0.66299 0.34405 0.0
H185 H 0.92669 0.675 0.36736 0.0
C186 C 0.92687 0.69443 0.37434 0.0
O187 O 0.90394 0.70301 0.36636 0.0
H188 H 0.9291 0.6943 0.39509 0.0
C189 C 0.83236 0.66779 0.38405 0.0
C190 C 0.84542 0.6579 0.36519 0.0
C191 C 0.84334 0.68965 0.39738 0.0
C192 C 0.86804 0.70115 0.39169 0.0
C193 C 0.88064 0.69168 0.37224 0.0
C194 C 0.8691 0.67037 0.35878 0.0
H195 H 0.78829 0.38977 0.44829 0.0
H196 H 0.85081 0.34503 0.45216 0.0
H197 H 0.84516 0.39732 0.39369 0.0
H198 H 0.85764 0.34847 0.37662 0.0
C199 C 0.8686 0.34308 0.39383 0.0
O200 O 0.87092 0.36216 0.41159 0.0
H201 H 0.85707 0.32623 0.40087 0.0
C202 C 0.80605 0.38501 0.4414 0.0
C203 C 0.81557 0.3967 0.42006 0.0
C204 C 0.81877 0.36671 0.45359 0.0
C205 C 0.84068 0.35914 0.44323 0.0
C206 C 0.84985 0.36978 0.42139 0.0
C207 C 0.83748 0.38873 0.41011 0.0
H208 H 0.65557 0.25328 0.70611 0.0
H209 H 0.66074 0.19662 0.76121 0.0
H210 H 0.71002 0.20037 0.70088 0.0
H211 H 0.69201 0.14945 0.71382 0.0
C212 C 0.68807 0.15224 0.73364 0.0
O213 O 0.69739 0.17649 0.74115 0.0
H214 H 0.66661 0.1488 0.73462 0.0
C215 C 0.66413 0.23741 0.71328 0.0
C216 C 0.68358 0.22809 0.70041 0.0
C217 C 0.65562 0.22616 0.73533 0.0
C218 C 0.66707 0.20561 0.74445 0.0
C219 C 0.68646 0.19623 0.73197 0.0
C220 C 0.69475 0.20758 0.71018 0.0
H221 H 0.38155 0.20397 0.72689 0.0
H222 H 0.32423 0.21494 0.66718 0.0
H223 H 0.39531 0.26495 0.67726 0.0
H224 H 0.35662 0.29287 0.65892 0.0
C225 C 0.3404 0.2774 0.65554 0.0
O226 O 0.3505 0.25549 0.65164 0.0
H227 H 0.32898 0.27583 0.67227 0.0
C228 C 0.3754 0.21406 0.71072 0.0
C229 C 0.39164 0.23503 0.70336 0.0
C230 C 0.35099 0.20639 0.69784 0.0
C231 C 0.34273 0.22051 0.67771 0.0
C232 C 0.35864 0.24173 0.67065 0.0
C233 C 0.38311 0.24869 0.68317 0.0
H234 H 0.39648 0.85066 0.71744 0.0
H235 H 0.34212 0.90355 0.70503 0.0
H236 H 0.39796 0.9128 0.76861 0.0
H237 H 0.34279 0.92046 0.77578 0.0
C238 C 0.34024 0.93287 0.75974 0.0
O239 O 0.36029 0.93209 0.74436 0.0
H240 H 0.32153 0.92546 0.74917 0.0
C241 C 0.38879 0.86728 0.72308 0.0
C242 C 0.40017 0.88076 0.74472 0.0
C243 C 0.36782 0.87525 0.70845 0.0
C244 C 0.35796 0.8969 0.71612 0.0
C245 C 0.36895 0.9105 0.73774 0.0
C246 C 0.38984 0.90229 0.75191 0.0
H247 H 0.6562 0.88078 0.74187 0.0
H248 H 0.64101 0.81924 0.68938 0.0
H249 H 0.70698 0.87472 0.68308 0.0
H250 H 0.66947 0.85906 0.63609 0.0
C251 C 0.66623 0.83884 0.63997 0.0
O252 O 0.67941 0.83456 0.66246 0.0
H253 H 0.64498 0.8333 0.64097 0.0
C254 C 0.66187 0.8708 0.72604 0.0
C255 C 0.68428 0.88017 0.7144 0.0
C256 C 0.64626 0.84883 0.71728 0.0
C257 C 0.65303 0.83609 0.69648 0.0
C258 C 0.6745 0.84582 0.68384 0.0
C259 C 0.69023 0.86764 0.69288 0.0
H260 H 0.64237 0.90704 0.31836 0.0
H261 H 0.66216 0.86281 0.38119 0.0
H262 H 0.71692 0.92322 0.36007 0.0
H263 H 0.74484 0.88263 0.37771 0.0
C264 C 0.72785 0.87088 0.38466 0.0
O265 O 0.70937 0.88584 0.38995 0.0
H266 H 0.72007 0.85689 0.36966 0.0
C267 C 0.6558 0.90323 0.33382 0.0
C268 C 0.68005 0.91802 0.33774 0.0
C269 C 0.64908 0.88312 0.34924 0.0
C270 C 0.66709 0.87785 0.36869 0.0
C271 C 0.69166 0.89195 0.37215 0.0
C272 C 0.69799 0.91217 0.35693 0.0
H273 H 0.66884 0.24653 0.42146 0.0
H274 H 0.66914 0.20146 0.35456 0.0
H275 H 0.72152 0.19194 0.41809 0.0
H276 H 0.74528 0.18724 0.37489 0.0
C277 C 0.72898 0.18037 0.36087 0.0
O278 O 0.7061 0.17653 0.37264 0.0
H279 H 0.72758 0.19488 0.34661 0.0
C280 C 0.67634 0.23206 0.41127 0.0
C281 C 0.69621 0.21989 0.4231 0.0
C282 C 0.66594 0.2254 0.3865 0.0
C283 C 0.67672 0.20703 0.37343 0.0
C284 C 0.69667 0.19503 0.38489 0.0
C285 C 0.7061 0.20137 0.40957 0.0
H286 H 0.31332 0.16017 0.40272 0.0
H287 H 0.36582 0.22504 0.42889 0.0
H288 H 0.38535 0.17947 0.36909 0.0
H289 H 0.42825 0.20035 0.40914 0.0
C290 C 0.42263 0.21937 0.41052 0.0
O291 O 0.39965 0.22045 0.39615 0.0
H292 H 0.41989 0.22325 0.43045 0.0
C293 C 0.33152 0.1723 0.40192 0.0
C294 C 0.3487 0.16705 0.38437 0.0
C295 C 0.33769 0.19269 0.41862 0.0
C296 C 0.36081 0.20893 0.41648 0.0
C297 C 0.3779 0.20425 0.39857 0.0
C298 C 0.37201 0.18311 0.38278 0.0
H299 H 0.2799 0.89861 0.42981 0.0
H300 H 0.34049 0.85126 0.43386 0.0
H301 H 0.33393 0.8996 0.37261 0.0
H302 H 0.34826 0.8532 0.35662 0.0
C303 C 0.35551 0.84616 0.37482 0.0
O304 O 0.35933 0.86543 0.39237 0.0
H305 H 0.34022 0.83135 0.38028 0.0
C306 C 0.29646 0.89201 0.42225 0.0
C307 C 0.30555 0.90198 0.39976 0.0
C308 C 0.30862 0.87331 0.4348 0.0
C309 C 0.3303 0.86513 0.42458 0.0
C310 C 0.33913 0.87443 0.40224 0.0
C311 C 0.32693 0.89283 0.39005 0.0
H312 H 0.64323 0.75466 0.2129 0.0
H313 H 0.64843 0.69467 0.2639 0.0
H314 H 0.69973 0.70418 0.20516 0.0
H315 H 0.68029 0.64856 0.21783 0.0
C316 C 0.67514 0.65297 0.23694 0.0
O317 O 0.68607 0.67708 0.24339 0.0
H318 H 0.65356 0.65115 0.23666 0.0
C319 C 0.65219 0.73868 0.21915 0.0
C320 C 0.67275 0.73126 0.2064 0.0
C321 C 0.64309 0.72552 0.23989 0.0
C322 C 0.65493 0.7049 0.24787 0.0
C323 C 0.67511 0.69713 0.23531 0.0
C324 C 0.68407 0.71035 0.21473 0.0
H325 H 0.40228 0.69777 0.23035 0.0
H326 H 0.34218 0.67641 0.17143 0.0
H327 H 0.39231 0.7459 0.16861 0.0
H328 H 0.34097 0.74996 0.15212 0.0
C329 C 0.33384 0.73137 0.14334 0.0
O330 O 0.3536 0.71666 0.14526 0.0
H331 H 0.31723 0.72278 0.1535 0.0
C332 C 0.39223 0.70138 0.2126 0.0
C333 C 0.39982 0.7236 0.20058 0.0
C334 C 0.37147 0.68415 0.20249 0.0
C335 C 0.3581 0.68953 0.17978 0.0
C336 C 0.36572 0.71179 0.16751 0.0
C337 C 0.38652 0.72878 0.17803 0.0
H338 H 0.32649 0.40515 0.19511 0.0
H339 H 0.3787 0.35009 0.20426 0.0
H340 H 0.3873 0.41282 0.25509 0.0
H341 H 0.43867 0.39274 0.23478 0.0
C342 C 0.43028 0.37282 0.2351 0.0
O343 O 0.4056 0.37105 0.24366 0.0
H344 H 0.42873 0.36543 0.21558 0.0
C345 C 0.34264 0.39819 0.20539 0.0
C346 C 0.35531 0.41183 0.22639 0.0
C347 C 0.35073 0.37582 0.1972 0.0
C348 C 0.37194 0.36702 0.2104 0.0
C349 C 0.38537 0.38037 0.23104 0.0
C350 C 0.37709 0.40279 0.23891 0.0
H351 H 0.70302 0.41697 0.25501 0.0
H352 H 0.68656 0.35176 0.20679 0.0
H353 H 0.74941 0.40887 0.19358 0.0
H354 H 0.70664 0.38882 0.1523 0.0
C355 C 0.71462 0.37075 0.15314 0.0
O356 O 0.72398 0.36636 0.17726 0.0
H357 H 0.69835 0.35596 0.14725 0.0
C358 C 0.70725 0.40611 0.23911 0.0
C359 C 0.72772 0.41543 0.22502 0.0
C360 C 0.69258 0.38289 0.2333 0.0
C361 C 0.69779 0.36961 0.21188 0.0
C362 C 0.71824 0.37915 0.19745 0.0
C363 C 0.73343 0.40181 0.20441 0.0
H364 H 0.63961 0.43039 0.82366 0.0
H365 H 0.64652 0.37492 0.87933 0.0
H366 H 0.71132 0.43052 0.86972 0.0
H367 H 0.72101 0.37452 0.87777 0.0
C368 C 0.70624 0.37057 0.89158 0.0
O369 O 0.6942 0.39139 0.89518 0.0
H370 H 0.69157 0.35501 0.88392 0.0
C371 C 0.65103 0.42238 0.83839 0.0
C372 C 0.67667 0.4333 0.84537 0.0
C373 C 0.64004 0.40125 0.85045 0.0
C374 C 0.65476 0.3912 0.86978 0.0
C375 C 0.68047 0.40144 0.87645 0.0
C376 C 0.69152 0.42239 0.86415 0.0
H377 H 0.68937 0.75709 0.93798 0.0
H378 H 0.68887 0.71193 0.87133 0.0
H379 H 0.74342 0.70403 0.93419 0.0
H380 H 0.76617 0.69736 0.89021 0.0
C381 C 0.74949 0.69016 0.87673 0.0
O382 O 0.72673 0.68741 0.88882 0.0
H383 H 0.74787 0.70396 0.86178 0.0
C384 C 0.6971 0.74283 0.92764 0.0
C385 C 0.71772 0.7316 0.93897 0.0
C386 C 0.6861 0.7358 0.90341 0.0
C387 C 0.69713 0.71787 0.8899 0.0
C388 C 0.71793 0.70645 0.90093 0.0
C389 C 0.72802 0.71334 0.92548 0.0
H390 H 0.30916 0.64404 0.87302 0.0
H391 H 0.36605 0.70829 0.89134 0.0
H392 H 0.38037 0.65463 0.83657 0.0
H393 H 0.42543 0.67199 0.86532 0.0
C394 C 0.422 0.69092 0.87125 0.0
O395 O 0.39879 0.69633 0.85998 0.0
H396 H 0.42126 0.69111 0.89189 0.0
C397 C 0.32759 0.65512 0.87028 0.0
C398 C 0.34388 0.64667 0.85329 0.0
C399 C 0.33529 0.6774 0.88418 0.0
C400 C 0.35972 0.69102 0.88096 0.0
C401 C 0.37582 0.68277 0.86376 0.0
C402 C 0.36784 0.66075 0.84992 0.0
H403 H 0.28813 0.40021 0.92293 0.0
H404 H 0.34224 0.34664 0.92929 0.0
H405 H 0.34411 0.39718 0.86845 0.0
H406 H 0.35503 0.34773 0.85366 0.0
C407 C 0.36284 0.34122 0.87188 0.0
O408 O 0.36577 0.36056 0.88937 0.0
H409 H 0.3485 0.32583 0.87789 0.0
C410 C 0.30423 0.39208 0.91607 0.0
C411 C 0.31502 0.4013 0.89433 0.0
C412 C 0.31366 0.37228 0.92884 0.0
C413 C 0.33426 0.36154 0.91945 0.0
C414 C 0.34519 0.37039 0.89763 0.0
C415 C 0.33544 0.39019 0.88508 0.0
Cu416 Cu 0.25784 0.29546 0.07766 0.0
N417 N 0.25569 0.32034 0.05379 0.0
N418 N 0.26544 0.34084 0.01908 0.0
C419 C 0.26907 0.32106 0.03323 0.0
C420 C 0.24922 0.35322 0.0313 0.0
C421 C 0.2431 0.34049 0.0526 0.0
O422 O 0.25839 0.2661 0.05617 0.0
C423 C 0.28897 0.32782 0.11061 0.0
O424 O 0.27061 0.34111 0.10328 0.0
H425 H 0.28192 0.30766 0.0292 0.0
H426 H 0.23094 0.34606 0.06645 0.0
N427 N 0.2298 0.28974 0.09807 0.0
N428 N 0.20724 0.27401 0.12948 0.0
C429 C 0.22732 0.27195 0.1154 0.0
C430 C 0.21051 0.30345 0.10132 0.0
C431 C 0.19669 0.29387 0.12071 0.0
C432 C 0.23649 0.2586 0.04424 0.0
O433 O 0.2161 0.26858 0.05027 0.0
H434 H 0.24077 0.25849 0.11841 0.0
H435 H 0.20709 0.3197 0.09093 0.0
O436 O 0.28832 0.30604 0.10104 0.0
H437 H 0.24239 0.37034 0.02534 0.0
H438 H 0.18036 0.30115 0.12806 0.0
Cu439 Cu 0.79401 0.32196 1.0164 0.0
N440 N 0.79643 0.34772 0.0404 0.0
N441 N 0.78499 0.36488 0.07532 0.0
C442 C 0.78261 0.34439 0.0605 0.0
C443 C 0.80084 0.38215 0.06391 0.0
C444 C 0.80814 0.37141 0.04241 0.0
O445 O 0.7936 0.29322 0.03767 0.0
C446 C 0.76726 0.34543 0.98136 0.0
O447 O 0.78847 0.36102 0.98723 0.0
H448 H 0.77 0.32737 0.0636 0.0
H449 H 0.82042 0.38042 0.02896 0.0
N450 N 0.82145 0.32046 0.99606 0.0
N451 N 0.84287 0.30282 0.96759 0.0
C452 C 0.82117 0.30125 0.97991 0.0
C453 C 0.84415 0.33503 0.99384 0.0
C454 C 0.85748 0.32411 0.97624 0.0
C455 C 0.81561 0.2938 0.05012 0.0
O456 O 0.8347 0.31062 0.0445 0.0
H457 H 0.80539 0.28605 0.97764 0.0
H458 H 0.85061 0.35214 1.00436 0.0
O459 O 0.76409 0.32512 0.99313 0.0
H460 H 0.8064 0.40121 0.07044 0.0
H461 H 0.87625 0.33142 0.97012 0.0
Cu462 Cu 0.76782 0.80766 0.07465 0.0
N463 N 0.76821 0.83457 0.05279 0.0
N464 N 0.77809 0.85712 0.01925 0.0
C465 C 0.78097 0.83612 0.0318 0.0
C466 C 0.76264 0.86916 0.03285 0.0
C467 C 0.75668 0.85531 0.05349 0.0
O468 O 0.76618 0.77925 0.05117 0.0
C469 C 0.79968 0.83531 0.11111 0.0
O470 O 0.78142 0.84942 0.10606 0.0
H471 H 0.79239 0.82212 0.02595 0.0
H472 H 0.74483 0.86017 0.06796 0.0
N473 N 0.73858 0.80296 0.09376 0.0
N474 N 0.71213 0.78745 0.12257 0.0
C475 C 0.73517 0.78686 0.11259 0.0
C476 C 0.71703 0.81425 0.09194 0.0
C477 C 0.70081 0.80485 0.10966 0.0
C478 C 0.74426 0.77405 0.03847 0.0
O479 O 0.7249 0.78567 0.0443 0.0
H480 H 0.74922 0.77473 0.11864 0.0
H481 H 0.71315 0.82819 0.07854 0.0
O482 O 0.79835 0.81464 0.09906 0.0
H483 H 0.75564 0.88651 0.02804 0.0
H484 H 0.68232 0.81079 0.113 0.0
Cu485 Cu 0.258 0.76505 1.00648 0.0
N486 N 0.22848 0.76409 0.02419 0.0
N487 N 0.20512 0.77812 0.05327 0.0
C488 C 0.22909 0.77521 0.0468 0.0
C489 C 0.18869 0.76827 0.03392 0.0
C490 C 0.20317 0.7598 1.01592 0.0
O491 O 0.28644 0.76347 0.03211 0.0
C492 C 0.27012 0.80134 0.96858 0.0
O493 O 0.28876 0.78868 0.96293 0.0
H494 H 0.24698 0.78286 0.05739 0.0
H495 H 0.19593 0.7533 0.99727 0.0
N496 N 0.25659 0.7382 0.9838 0.0
N497 N 0.26921 0.71354 0.95465 0.0
C498 C 0.27649 0.73273 0.97104 0.0
C499 C 0.23613 0.72148 0.97562 0.0
C500 C 0.24385 0.70624 0.95766 0.0
C501 C 0.28541 0.74268 0.04307 0.0
O502 O 0.26722 0.72465 0.03488 0.0
H503 H 0.29582 0.74307 0.97326 0.0
H504 H 0.21688 0.72048 0.98206 0.0
O505 O 0.25777 0.79549 0.98762 0.0
H506 H 0.16801 0.7693 0.03184 0.0
H507 H 0.23173 0.69094 0.94768 0.0
Cu508 Cu 1.01729 0.30024 0.31377 0.0
N509 N 0.03725 0.27362 0.31536 0.0
N510 N 0.06699 0.24967 0.30498 0.0
C511 C 0.05473 0.26948 0.29897 0.0
C512 C 0.05662 0.24082 0.32586 0.0
C513 C 0.0383 0.25557 0.33219 0.0
O514 O 0.04367 0.32938 0.31188 0.0
C515 C 0.97983 0.27214 0.28279 0.0
O516 O 0.98397 0.25655 0.30066 0.0
H517 H 0.05871 0.2811 0.28315 0.0
H518 H 0.02651 0.25316 0.34789 0.0
N519 N 0.99756 0.30293 0.3416 0.0
N520 N 0.96609 0.31285 0.36487 0.0
C521 C 0.97476 0.31236 0.34174 0.0
C522 C 1.00346 0.29723 0.36547 0.0
C523 C 0.9841 0.30315 0.37975 0.0
C524 C 0.04953 0.34559 0.32952 0.0
O525 O 0.03394 0.34595 0.34754 0.0
H526 H 0.96467 0.31854 0.3251 0.0
H527 H 0.02093 0.28982 0.37216 0.0
O528 O 0.99257 0.29393 0.28434 0.0
H529 H 0.06162 0.22462 0.33565 0.0
H530 H 0.9836 0.30095 0.3997 0.0
Cu531 Cu 0.77095 0.05854 0.27706 0.0
N532 N 0.77701 0.07808 0.24949 0.0
N533 N 0.79417 0.11033 0.22829 0.0
C534 C 0.79401 0.09901 0.25041 0.0
C535 C 0.7768 0.09573 0.21269 0.0
C536 C 0.76607 0.07584 0.22591 0.0
O537 O 0.76775 0.08184 0.30462 0.0
C538 C 0.79911 0.02242 0.26182 0.0
O539 O 0.78445 0.02585 0.24149 0.0
H540 H 0.8062 0.1056 0.26702 0.0
H541 H 0.75136 0.06091 0.21887 0.0
N542 N 0.74002 0.03701 0.27273 0.0
N543 N 0.71247 1.00357 0.28047 0.0
C544 C 0.73643 0.016 0.28552 0.0
C545 C 0.71751 0.03797 0.25883 0.0
C546 C 0.7003 0.01724 0.2637 0.0
C547 C 0.74898 0.09472 0.30096 0.0
O548 O 0.73395 0.09077 0.28013 0.0
H549 H 0.75101 1.01027 0.29888 0.0
H550 H 0.71372 0.05278 0.24639 0.0
O551 O 0.79779 0.03629 0.28099 0.0
H552 H 0.77194 0.0994 0.19327 0.0
H553 H 0.68052 0.01261 0.25559 0.0
Cu554 Cu 0.03633 0.78707 0.29865 0.0
N555 N 1.01665 0.81388 0.2997 0.0
N556 N 0.98652 0.83805 0.28732 0.0
C557 C 0.99693 0.81713 0.28269 0.0
C558 C 0.99989 0.84819 0.30833 0.0
C559 C 0.01836 0.83322 0.31598 0.0
O560 O 1.01351 0.75885 0.30942 0.0
C561 C 0.0558 0.80599 0.25637 0.0
O562 O 0.05468 0.82621 0.2697 0.0
H563 H 0.99071 0.8046 0.26688 0.0
H564 H 0.03184 0.83621 0.33237 0.0
N565 N 0.06713 0.78945 0.31989 0.0
N566 N 0.10344 0.7773 0.33845 0.0
C567 C 0.08179 0.77079 0.32293 0.0
C568 C 0.07991 0.80853 0.33402 0.0
C569 C 0.10211 0.80104 0.34563 0.0
C570 C 1.0082 0.76162 0.33196 0.0
O571 O 0.01964 0.78146 0.34464 0.0
H572 H 0.07683 0.75285 0.31349 0.0
H573 H 0.07377 0.82666 0.3357 0.0
O574 O 0.04778 0.78495 0.26518 0.0
H575 H 0.99632 0.86504 0.3177 0.0
H576 H 0.11589 0.81222 0.35869 0.0
Cu577 Cu 0.25718 0.01791 0.30501 0.0
N578 N 0.28847 0.04045 0.31647 0.0
N579 N 0.31548 0.0734 0.33205 0.0
C580 C 0.29064 0.06196 0.32972 0.0
C581 C 0.32926 0.05853 0.31966 0.0
C582 C 0.31255 0.03823 0.31011 0.0
O583 O 0.24256 0.04651 0.28625 0.0
C584 C 0.25937 0.97856 0.34201 0.0
O585 O 0.23696 0.98511 0.34724 0.0
H586 H 0.27441 0.06925 0.33722 0.0
H587 H 0.3174 0.02325 0.29865 0.0
N588 N 0.22685 0.99485 0.29194 0.0
N589 N 0.20254 0.96462 0.26877 0.0
C590 C 0.2266 0.97717 0.27406 0.0
C591 C 0.20227 0.99349 0.29836 0.0
C592 C 0.18724 0.97473 0.28418 0.0
C593 C 0.22863 0.06034 0.29717 0.0
O594 O 0.22362 0.05547 0.3203 0.0
H595 H 0.24366 0.97374 0.26496 0.0
H596 H 0.19582 1.00513 0.31247 0.0
O597 O 0.27149 0.9897 0.32473 0.0
H598 H 0.34973 0.0625 0.31679 0.0
H599 H 0.16675 0.96866 0.28558 0.0
Cu600 Cu 1.01721 0.80442 0.79944 0.0
N601 N 0.03882 0.77945 0.79668 0.0
N602 N 0.06891 0.75993 0.77971 0.0
C603 C 0.05697 0.78054 0.77994 0.0
C604 C 0.05774 0.7452 0.79703 0.0
C605 C 0.0393 0.75733 0.80758 0.0
O606 O 0.04192 0.83429 0.80587 0.0
C607 C 0.98189 0.78011 0.76603 0.0
O608 O 0.98601 0.76358 0.78297 0.0
H609 H 0.06056 0.79583 0.76742 0.0
H610 H 0.02665 0.75017 0.82158 0.0
N611 N 0.99373 0.80231 0.82463 0.0
N612 N 0.95942 0.81159 0.84417 0.0
C613 C 0.97454 0.81675 0.82504 0.0
C614 C 0.99085 0.7875 0.84437 0.0
C615 C 0.96981 0.79328 0.85651 0.0
C616 C 0.05374 0.83475 0.8276 0.0
O617 O 0.04644 0.81705 0.84297 0.0
H618 H 0.97195 0.83097 0.81153 0.0
H619 H 1.00302 0.77344 0.84952 0.0
O620 O 0.99467 0.80184 0.76872 0.0
H621 H 0.06238 0.72686 0.80157 0.0
H622 H 0.9624 0.78431 0.87284 0.0
Cu623 Cu 0.28285 0.06724 0.78621 0.0
N624 N 0.28066 0.08648 0.75781 0.0
N625 N 0.29104 0.11775 0.73235 0.0
C626 C 0.29844 0.10578 0.75294 0.0
C627 C 0.26776 0.10545 0.72374 0.0
C628 C 0.26142 0.08605 0.73948 0.0
O629 O 0.28834 0.09196 0.81409 0.0
C630 C 0.31804 0.03 0.79608 0.0
O631 O 0.31432 0.03261 0.81981 0.0
H632 H 0.31614 0.11141 0.76473 0.0
H633 H 0.24389 0.07282 0.7378 0.0
N634 N 0.25171 0.0464 0.78898 0.0
N635 N 0.2254 0.01303 0.79983 0.0
C636 C 0.25017 0.02363 0.79869 0.0
C637 C 0.22695 0.05061 0.78397 0.0
C638 C 0.21064 0.03001 0.79069 0.0
C639 C 0.27359 0.09175 0.83208 0.0
O640 O 0.2575 0.07158 0.83558 0.0
H641 H 0.26691 0.0155 0.80601 0.0
H642 H 0.22117 0.06769 0.7767 0.0
O643 O 0.30881 0.04476 0.78055 0.0
H644 H 0.25622 0.11013 0.70729 0.0
H645 H 0.1896 0.02787 0.78934 0.0
Cu646 Cu 0.05381 0.31044 0.81954 0.0
N647 N 0.03215 0.33571 0.82109 0.0
N648 N 0.99935 0.35704 0.80876 0.0
C649 C 1.01258 0.33801 0.80357 0.0
C650 C 1.01099 0.36703 0.8306 0.0
C651 C 0.03126 0.35397 0.83808 0.0
O652 O 0.02991 0.27999 0.81892 0.0
C653 C 0.0837 0.33806 0.78853 0.0
O654 O 0.08248 0.35393 0.80694 0.0
H655 H 1.00779 0.32545 0.78758 0.0
H656 H 0.0443 0.35761 0.85473 0.0
N657 N 0.07934 0.30839 0.84617 0.0
N658 N 0.11152 0.29284 0.8686 0.0
C659 C 0.09794 0.29315 0.84612 0.0
C660 C 0.08132 0.3181 0.86952 0.0
C661 C 0.10103 0.30851 0.88335 0.0
C662 C 0.0182 0.27706 0.83881 0.0
O663 O 0.02453 0.29355 0.85713 0.0
H664 H 0.10046 0.28146 0.83025 0.0
H665 H 0.06858 0.33031 0.87645 0.0
O666 O 0.07216 0.31599 0.78976 0.0
H667 H 1.00539 0.3828 0.84038 0.0
H668 H 0.10675 0.31228 0.90297 0.0
Cu669 Cu 0.76256 0.03367 0.80282 0.0
N670 N 0.77361 0.05603 0.83176 0.0
N671 N 0.78961 0.09078 0.85356 0.0
C672 C 0.78911 0.07795 0.83175 0.0
C673 C 0.7737 0.07638 0.86774 0.0
C674 C 0.76379 0.05502 0.85422 0.0
O675 O 0.74679 0.06224 0.78492 0.0
C676 C 0.76982 0.99244 0.83721 0.0
O677 O 0.74686 0.99597 0.84396 0.0
H678 H 0.799 0.08475 0.81571 0.0
H679 H 0.74918 0.04062 0.85984 0.0
N680 N 0.7511 1.0115 0.7736 0.0
N681 N 0.73526 0.97751 0.75001 0.0
C682 C 0.7449 0.98655 0.77305 0.0
C683 C 0.74561 0.0186 0.75017 0.0
C684 C 0.73581 0.99788 0.73573 0.0
C685 C 0.72935 0.0739 0.79321 0.0
O686 O 0.71973 0.06703 0.81429 0.0
H687 H 0.74756 0.97557 0.78932 0.0
H688 H 0.7479 0.03759 0.74405 0.0
O689 O 0.77998 1.00575 0.82023 0.0
H690 H 0.76832 0.08155 0.88594 0.0
H691 H 0.72881 0.99816 0.71629 0.0
Cu692 Cu 0.26501 0.79528 0.56506 0.0
N693 N 0.29592 0.80167 0.58663 0.0
N694 N 0.32385 0.81812 0.61857 0.0
C695 C 0.30031 0.81841 0.60593 0.0
C696 C 0.33447 0.80022 0.60683 0.0
C697 C 0.31734 0.79023 0.58723 0.0
O698 O 0.23656 0.7904 0.58777 0.0
C699 C 0.28511 0.82308 0.5275 0.0
O700 O 0.30228 0.80787 0.53286 0.0
H701 H 0.28642 0.83054 0.61065 0.0
H702 H 0.32018 0.77538 0.57454 0.0
N703 N 0.26293 0.76649 0.54404 0.0
N704 N 0.25411 0.74258 0.5089 0.0
C705 C 0.25166 0.76446 0.5204 0.0
C706 C 0.27257 0.74492 0.54781 0.0
C707 C 0.26709 0.73017 0.52631 0.0
C708 C 0.24013 0.77489 0.60503 0.0
O709 O 0.26054 0.76306 0.60486 0.0
H710 H 0.2417 0.77886 0.51191 0.0
H711 H 0.28314 0.7403 0.56485 0.0
O712 O 0.26576 0.82247 0.54091 0.0
H713 H 0.35301 0.79417 0.61239 0.0
H714 H 0.27279 0.71194 0.52353 0.0
Cu715 Cu 0.75419 0.78017 0.50986 0.0
N716 N 0.76358 0.7507 0.49749 0.0
N717 N 0.78458 0.72658 0.47428 0.0
C718 C 0.77381 0.74788 0.47556 0.0
C719 C 0.78021 0.71539 0.49616 0.0
C720 C 0.76737 0.73032 0.51043 0.0
O721 O 0.74518 0.80114 0.48263 0.0
C722 C 0.80368 0.7883 0.53763 0.0
O723 O 0.81201 0.77454 0.52049 0.0
H724 H 0.77396 0.76171 0.46132 0.0
H725 H 0.76276 0.72741 0.52953 0.0
N726 N 0.72579 0.77465 0.52888 0.0
N727 N 0.70064 0.78285 0.55893 0.0
C728 C 0.72183 0.79077 0.5469 0.0
C729 C 0.70639 0.75568 0.52932 0.0
C730 C 0.69072 0.76073 0.54792 0.0
C731 C 0.76123 0.81623 0.47184 0.0
O732 O 0.78599 0.81872 0.47971 0.0
H733 H 0.73463 0.80792 0.55136 0.0
H734 H 0.70387 0.7394 0.51709 0.0
O735 O 0.78152 0.7956 0.53381 0.0
H736 H 0.78715 0.69832 0.5021 0.0
H737 H 0.67322 0.74925 0.5526 0.0
Cu738 Cu 0.76578 0.29288 0.58182 0.0
N739 N 0.7608 0.26546 0.55883 0.0
N740 N 0.74552 0.24428 0.52322 0.0
C741 C 0.74517 0.26497 0.53743 0.0
C742 C 0.76226 0.23126 0.53619 0.0
C743 C 0.77163 0.24431 0.55804 0.0
O744 O 0.76984 0.32057 0.55861 0.0
C745 C 0.73554 0.26707 0.61468 0.0
O746 O 0.75242 0.25209 0.60976 0.0
H747 H 0.73387 0.27973 0.53229 0.0
H748 H 0.78564 0.23885 0.57205 0.0
N749 N 0.79601 0.29696 0.60434 0.0
N750 N 0.82358 0.31406 0.63623 0.0
C751 C 0.80276 0.31675 0.62024 0.0
C752 C 0.8132 0.28118 0.61054 0.0
C753 C 0.83011 0.29161 0.63016 0.0
C754 C 0.78909 0.31863 0.54556 0.0
O755 O 0.80402 0.30156 0.5515 0.0
H756 H 0.79178 0.33231 0.62077 0.0
H757 H 0.81308 0.26304 0.602 0.0
O758 O 0.7368 0.28796 0.60374 0.0
H759 H 0.76804 0.2139 0.53 0.0
H760 H 0.84583 0.28317 0.63945 0.0
Cu761 Cu 0.23845 0.26371 0.5296 0.0
N762 N 0.20911 0.26065 0.5475 0.0
N763 N 0.18045 0.27433 0.57136 0.0
C764 C 0.19814 0.28031 0.55468 0.0
C765 C 0.1796 0.24952 0.57409 0.0
C766 C 0.19742 0.24113 0.55936 0.0
O767 O 0.26856 0.27469 0.55231 0.0
C768 C 0.2501 0.29618 0.48951 0.0
O769 O 0.27439 0.2925 0.4945 0.0
H770 H 0.20457 0.29909 0.54922 0.0
H771 H 0.20246 0.22247 0.55842 0.0
N772 N 0.24477 0.2336 0.5163 0.0
N773 N 0.26665 0.21086 0.4926 0.0
C774 C 0.2539 0.23089 0.49385 0.0
C775 C 0.25147 0.2144 0.52968 0.0
C776 C 0.26494 0.20033 0.51515 0.0
C777 C 0.26999 0.29174 0.56897 0.0
O778 O 0.2515 0.30595 0.56921 0.0
H779 H 0.25334 0.24467 0.47958 0.0
H780 H 0.24956 0.21251 0.54948 0.0
O781 O 0.23281 0.28621 0.50299 0.0
H782 H 0.16772 0.23831 0.58645 0.0
H783 H 0.27515 0.1853 0.52178 0.0
Cu784 Cu 0.78245 0.57225 0.785 0.0
N785 N 0.78312 0.59147 0.75631 0.0
N786 N 0.79582 0.62235 0.73099 0.0
C787 C 0.80097 0.61122 0.75278 0.0
C788 C 0.77382 0.60917 0.72038 0.0
C789 C 0.76613 0.59 0.73595 0.0
O790 O 0.78689 0.59715 0.81274 0.0
C791 C 0.81562 0.53386 0.79785 0.0
O792 O 0.8096 0.5363 0.82096 0.0
H793 H 0.81708 0.61769 0.76627 0.0
H794 H 0.74924 0.57612 0.7327 0.0
N795 N 0.75005 0.55278 0.78611 0.0
N796 N 0.72009 0.52231 0.79719 0.0
C797 C 0.74569 0.53074 0.79732 0.0
C798 C 0.72636 0.55844 0.77841 0.0
C799 C 0.70785 0.53959 0.78503 0.0
C800 C 0.77173 0.59689 0.8304 0.0
O801 O 0.7557 0.57665 0.83374 0.0
H802 H 0.76091 0.52156 0.80641 0.0
H803 H 0.72275 0.57538 0.76925 0.0
O804 O 0.80801 0.5488 0.78162 0.0
H805 H 0.76411 0.61306 0.70261 0.0
H806 H 0.68704 0.53882 0.78126 0.0
Cu807 Cu 0.25588 0.52518 0.78732 0.0
N808 N 0.2563 0.50799 0.81733 0.0
N809 N 0.26794 0.48127 0.84618 0.0
C810 C 0.26924 0.48843 0.82229 0.0
C811 C 0.25303 0.49663 0.85644 0.0
C812 C 0.246 0.51313 0.83866 0.0
O813 O 0.25377 0.49996 0.761 0.0
C814 C 0.30517 0.55184 0.80456 0.0
O815 O 0.30911 0.53213 0.81741 0.0
H816 H 0.28037 0.48032 0.80888 0.0
H817 H 0.23458 0.52809 0.84122 0.0
N818 N 0.2277 0.54335 0.78296 0.0
N819 N 0.20542 0.5739 0.7696 0.0
C820 C 0.22839 0.56482 0.77056 0.0
C821 C 0.2034 0.53858 0.79016 0.0
C822 C 0.18958 0.55739 0.78191 0.0
C823 C 0.23976 0.49983 0.7405 0.0
O824 O 0.22925 0.51979 0.73431 0.0
H825 H 0.24545 0.57349 0.76214 0.0
H826 H 0.19613 0.52237 0.80027 0.0
O827 O 0.28588 0.55055 0.78833 0.0
H828 H 0.24749 0.49602 0.87543 0.0
H829 H 0.16922 0.5583 0.78403 0.0
Cu830 Cu 0.29896 0.54087 0.28473 0.0
N831 N 0.29672 0.5225 0.3136 0.0
N832 N 0.27635 0.49241 0.33559 0.0
C833 C 0.27478 0.50689 0.31564 0.0
C834 C 0.30025 0.49956 0.3471 0.0
C835 C 0.31299 0.51812 0.33326 0.0
O836 O 0.30207 0.51402 0.25991 0.0
C837 C 0.27263 0.57399 0.30711 0.0
O838 O 0.29294 0.57195 0.32265 0.0
H839 H 0.25805 0.50591 0.30221 0.0
H840 H 0.33282 0.52702 0.33677 0.0
N841 N 0.32721 0.5655 0.28189 0.0
N842 N 0.34768 0.59926 0.26493 0.0
C843 C 0.3266 0.58184 0.26334 0.0
C844 C 0.34963 0.57265 0.29584 0.0
C845 C 0.36246 0.59343 0.28523 0.0
C846 C 0.32393 0.50539 0.26321 0.0
O847 O 0.34136 0.5165 0.28012 0.0
H848 H 0.31079 0.58088 0.24889 0.0
H849 H 0.35599 0.5637 0.31264 0.0
O850 O 0.2699 0.5611 0.28657 0.0
H851 H 0.30826 0.49129 0.36366 0.0
H852 H 0.38087 0.60381 0.29223 0.0
Cu853 Cu 0.75413 0.5271 0.32311 0.0
N854 N 0.75047 0.5026 0.34738 0.0
N855 N 0.7608 0.47233 0.37261 0.0
C856 C 0.76821 0.48734 0.35393 0.0
C857 C 0.73743 0.47818 0.37796 0.0
C858 C 0.73102 0.49675 0.36227 0.0
O859 O 0.75368 0.5109 0.29105 0.0
C860 C 0.79441 0.56608 0.31823 0.0
O861 O 0.78391 0.56683 0.29527 0.0
H862 H 0.78649 0.48759 0.34556 0.0
H863 H 0.71341 0.5053 0.36181 0.0
N864 N 0.7279 0.54773 0.32097 0.0
N865 N 0.70638 0.57821 0.30589 0.0
C866 C 0.72291 0.56182 0.30116 0.0
C867 C 0.71388 0.55531 0.3389 0.0
C868 C 0.70035 0.57386 0.32958 0.0
C869 C 0.77182 0.49989 0.28362 0.0
O870 O 0.79369 0.50062 0.29773 0.0
H871 H 0.73239 0.56097 0.28401 0.0
H872 H 0.71434 0.54873 0.35778 0.0
O873 O 0.78585 0.54865 0.33208 0.0
H874 H 0.72576 0.46949 0.39206 0.0
H875 H 0.68738 0.5835 0.3397 0.0
Cu876 Cu 0.51493 0.29621 0.80354 0.0
N877 N 0.49162 0.29342 0.82885 0.0
N878 N 0.45799 0.30172 0.84996 0.0
C879 C 0.47311 0.30838 0.83114 0.0
C880 C 0.46728 0.28154 0.85969 0.0
C881 C 0.48794 0.27646 0.84668 0.0
O882 O 0.49326 0.28933 0.77277 0.0
C883 C 0.54364 0.3371 0.82732 0.0
O884 O 0.53664 0.32406 0.84666 0.0
H885 H 0.4702 0.32322 0.81844 0.0
H886 H 0.49895 0.2611 0.84964 0.0
N887 N 0.54032 0.27444 0.80473 0.0
N888 N 0.57376 0.2564 0.79221 0.0
C889 C 0.55523 0.27098 0.78583 0.0
C890 C 0.54991 0.26188 0.82391 0.0
C891 C 0.57041 0.2507 0.81624 0.0
C892 C 0.48444 0.26655 0.76837 0.0
O893 O 0.49179 0.24985 0.78387 0.0
H894 H 0.55324 0.28005 0.76813 0.0
H895 H 0.5432 0.26157 0.84243 0.0
O896 O 0.5346 0.32911 0.8056 0.0
H897 H 0.4595 0.27095 0.87496 0.0
H898 H 0.58221 0.23953 0.82764 0.0
Cu899 Cu 0.53822 0.79782 0.81855 0.0
N900 N 0.56508 0.79866 0.84446 0.0
N901 N 0.59889 0.78623 0.86728 0.0
C902 C 0.58451 0.7843 0.84509 0.0
C903 C 0.58828 0.80267 0.88102 0.0
C904 C 0.56748 0.81022 0.867 0.0
O905 O 0.55525 0.79898 0.78767 0.0
C906 C 0.50286 0.76819 0.84291 0.0
O907 O 0.50865 0.78767 0.85806 0.0
H908 H 0.58721 0.7717 0.83002 0.0
H909 H 0.55437 0.82239 0.8733 0.0
N910 N 0.51783 0.82429 0.81803 0.0
N911 N 0.48743 0.84769 0.80398 0.0
C912 C 0.49736 0.82607 0.80133 0.0
C913 C 0.52078 0.84546 0.8319 0.0
C914 C 0.50207 0.85984 0.82335 0.0
C915 C 0.56647 0.82057 0.78318 0.0
O916 O 0.56554 0.83885 0.79919 0.0
H917 H 0.49039 0.81206 0.78699 0.0
H918 H 0.53581 0.85047 0.84678 0.0
O919 O 0.51423 0.76797 0.82277 0.0
H920 H 0.59473 0.80841 0.9001 0.0
H921 H 0.49947 0.87784 0.83089 0.0
Cu922 Cu 0.50596 0.79728 0.30863 0.0
N923 N 0.48306 0.79563 0.33408 0.0
N924 N 0.44968 0.80427 0.3552 0.0
C925 C 0.46178 0.80738 0.33387 0.0
C926 C 0.46411 0.79006 0.36944 0.0
C927 C 0.48461 0.78473 0.35636 0.0
O928 O 0.48558 0.79622 0.27685 0.0
C929 C 0.54782 0.82353 0.33343 0.0
O930 O 0.54299 0.80436 0.34777 0.0
H931 H 0.45539 0.81813 0.31833 0.0
H932 H 0.49992 0.77421 0.36293 0.0
N933 N 0.52566 0.77086 0.30679 0.0
N934 N 0.55719 0.75073 0.2937 0.0
C935 C 0.54553 0.77147 0.29209 0.0
C936 C 0.52442 0.74881 0.31805 0.0
C937 C 0.54381 0.73628 0.30989 0.0
C938 C 0.47101 0.77555 0.27337 0.0
O939 O 0.47057 0.7592 0.29115 0.0
H940 H 0.55094 0.78678 0.28006 0.0
H941 H 0.51041 0.74226 0.33111 0.0
O942 O 0.53203 0.82602 0.31462 0.0
H943 H 0.46075 0.78461 0.38831 0.0
H944 H 0.54788 0.71806 0.31557 0.0
Cu945 Cu 0.55078 0.30881 0.32054 0.0
N946 N 0.53342 0.30794 0.34989 0.0
N947 N 0.50427 0.2913 0.37554 0.0
C948 C 0.51459 0.28915 0.35352 0.0
C949 C 0.51726 0.31242 0.38639 0.0
C950 C 0.53528 0.32268 0.37048 0.0
O951 O 0.52264 0.31244 0.29417 0.0
C952 C 0.58584 0.28165 0.34366 0.0
O953 O 0.58654 0.3012 0.35848 0.0
H954 H 0.50846 0.27415 0.33999 0.0
H955 H 0.54882 0.33947 0.3739 0.0
N956 N 0.57682 0.33547 0.31658 0.0
N957 N 0.61124 0.35559 0.29947 0.0
C958 C 0.59215 0.33613 0.29743 0.0
C959 C 0.58636 0.35543 0.3312 0.0
C960 C 0.60762 0.36789 0.32066 0.0
C961 C 0.51166 0.33184 0.29807 0.0
O962 O 0.52087 0.34625 0.31743 0.0
H963 H 0.58997 0.32196 0.28277 0.0
H964 H 0.57889 0.3603 0.34853 0.0
O965 O 0.57046 0.27994 0.32363 0.0
H966 H 0.51447 0.31962 0.40471 0.0
H967 H 0.6196 0.38459 0.32811 0.0
C968 C 0.1865 0.25752 0.19352 0.0
C969 C 0.1838 0.2313 0.19313 0.0
C970 C 0.19413 0.27128 0.17274 0.0
C971 C 0.19981 0.25949 0.15075 0.0
H972 H 0.18286 0.26761 0.21012 0.0
H973 H 0.1959 0.29136 0.17396 0.0
S974 S 0.19456 0.19153 0.13906 0.0
N975 N 0.18631 0.19419 0.16793 0.0
N976 N 0.20152 0.2202 0.12939 0.0
C977 C 0.19737 0.23341 0.15 0.0
C978 C 0.18919 0.21931 0.17101 0.0
C979 C 0.84934 0.27382 0.10961 0.0
C980 C 0.8288 0.26364 0.12329 0.0
C981 C 0.84476 0.28165 0.08524 0.0
C982 C 0.81935 0.28025 0.07361 0.0
H983 H 0.86913 0.27636 0.11806 0.0
H984 H 0.86137 0.28991 0.07586 0.0
S985 S 0.75882 0.25352 0.10091 0.0
N986 N 0.78213 0.25108 0.12306 0.0
N987 N 0.77342 0.26652 0.07723 0.0
C988 C 0.79863 0.26921 0.08669 0.0
C989 C 0.80336 0.26092 0.11159 0.0
C990 C 0.84249 0.83821 0.17235 0.0
C991 C 0.85171 0.86384 0.1751 0.0
C992 C 0.82709 0.82841 0.15072 0.0
C993 C 0.8204 0.84394 0.13116 0.0
H994 H 0.84613 0.82586 0.18748 0.0
H995 H 0.81917 0.80891 0.14997 0.0
S996 S 0.84322 0.91137 0.12726 0.0
N997 N 0.85578 0.90371 0.15476 0.0
N998 N 0.8266 0.88555 0.11478 0.0
C999 C 0.83088 0.8692 0.13308 0.0
C1000 C 0.84659 0.87908 0.15483 0.0
C1001 C 0.20971 0.83216 0.09878 0.0
C1002 C 0.18649 0.82729 0.1106 0.0
C1003 C 0.2159 0.81577 0.08048 0.0
C1004 C 0.19916 0.7938 0.07336 0.0
H1005 H 0.22292 0.84904 0.10334 0.0
H1006 H 0.23357 0.82076 0.0713 0.0
S1007 S 0.13734 0.77133 0.10069 0.0
N1008 N 0.14763 0.79819 0.11536 0.0
N1009 N 0.15931 0.76726 0.08096 0.0
C1010 C 0.17634 0.78831 0.08571 0.0
C1011 C 0.17006 0.805 0.10441 0.0
C1012 C 0.26658 0.84298 0.91239 0.0
C1013 C 0.24082 0.84846 0.91106 0.0
C1014 C 0.27625 0.82872 0.93168 0.0
C1015 C 0.26057 0.8193 0.9505 0.0
H1016 H 0.27918 0.84916 0.89795 0.0
H1017 H 0.29599 0.82449 0.93143 0.0
S1018 S 0.19151 0.82821 0.95541 0.0
N1019 N 0.19971 0.84317 0.93008 0.0
N1020 N 0.21784 0.81686 0.96661 0.0
C1021 C 0.23491 0.82519 0.94972 0.0
C1022 C 0.22502 0.8395 0.9299 0.0
C1023 C 0.24979 0.2376 0.97918 0.0
C1024 C 0.22485 0.22694 0.96942 0.0
C1025 C 0.25436 0.24598 1.00433 0.0
C1026 C 0.23412 0.24375 0.02047 0.0
H1027 H 0.2654 0.24091 0.96695 0.0
H1028 H 0.2733 0.25581 1.01058 0.0
S1029 S 0.16665 0.21286 1.00489 0.0
N1030 N 0.18075 0.21165 0.97852 0.0
N1031 N 0.18923 0.22683 0.02555 0.0
C1032 C 0.20978 0.23105 1.01133 0.0
C1033 C 0.20516 0.22279 0.98587 0.0
C1034 C 0.83273 0.25484 0.91523 0.0
C1035 C 0.85755 0.24751 0.91401 0.0
C1036 C 0.82828 0.27316 0.93245 0.0
C1037 C 0.84846 0.28504 0.94915 0.0
H1038 H 0.81659 0.24652 0.90259 0.0
H1039 H 0.80885 0.2782 0.93261 0.0
S1040 S 0.91668 0.27167 0.95474 0.0
N1041 N 0.90242 0.25294 0.93181 0.0
N1042 N 0.89401 0.28749 0.96402 0.0
C1043 C 0.87338 0.27793 0.94819 0.0
C1044 C 0.87792 0.25916 0.93069 0.0
C1045 C 0.80212 0.85394 0.95474 0.0
C1046 C 0.80937 0.87913 0.94942 0.0
C1047 C 0.79207 0.84688 0.97756 0.0
C1048 C 0.78892 0.86471 0.99605 0.0
H1049 H 0.80375 0.83961 0.94096 0.0
H1050 H 0.78625 0.82733 0.98056 0.0
S1051 S 0.80794 0.93287 0.99249 0.0
N1052 N 0.81455 0.92175 0.96533 0.0
N1053 N 0.79601 0.90856 1.00808 0.0
C1054 C 0.79682 0.88989 0.99119 0.0
C1055 C 0.80695 0.89705 0.96798 0.0
C1056 C 0.10395 0.22922 0.25229 0.0
C1057 C 0.12612 0.22119 0.26476 0.0
C1058 C 0.08483 0.23856 0.26549 0.0
C1059 C 0.08686 0.24002 0.29174 0.0
H1060 H 0.10121 0.22815 0.23211 0.0
H1061 H 0.06812 0.24438 0.25508 0.0
S1062 S 0.1418 0.22346 0.33345 0.0
N1063 N 0.14953 0.21694 0.30511 0.0
N1064 N 0.11337 0.23385 0.32971 0.0
C1065 C 0.1089 0.23222 0.30447 0.0
C1066 C 0.12852 0.22297 0.29107 0.0
C1067 C 0.83598 0.15756 0.19351 0.0
C1068 C 0.84149 0.17769 0.21073 0.0
C1069 C 0.82042 0.13565 0.19933 0.0
C1070 C 0.80985 0.1331 0.22257 0.0
H1071 H 0.84382 0.15875 0.17541 0.0
H1072 H 0.81688 0.12049 0.18568 0.0
S1073 S 0.81676 0.18113 0.27333 0.0
N1074 N 0.83419 0.19416 0.25145 0.0
N1075 N 0.80478 0.15305 0.26236 0.0
C1076 C 0.815 0.15318 0.23986 0.0
C1077 C 0.83089 0.17546 0.23395 0.0
C1078 C 0.92216 0.84085 0.25046 0.0
C1079 C 0.92285 0.8664 0.24572 0.0
C1080 C 0.94317 0.83162 0.26368 0.0
C1081 C 0.96557 0.84758 0.27284 0.0
H1082 H 0.905 0.82798 0.24448 0.0
H1083 H 0.94162 0.81194 0.26736 0.0
S1084 S 0.9788 0.91527 0.26247 0.0
N1085 N 0.94923 0.90699 0.24903 0.0
N1086 N 0.98818 0.88967 0.27422 0.0
C1087 C 0.96689 0.87294 0.26749 0.0
C1088 C 0.94571 0.88232 0.25385 0.0
C1089 C 0.20434 0.90551 0.2315 0.0
C1090 C 0.17943 0.9015 0.21882 0.0
C1091 C 0.21201 0.92647 0.24736 0.0
C1092 C 0.19504 0.94414 0.25108 0.0
H1093 H 0.21759 0.89188 0.22994 0.0
H1094 H 0.23102 0.92838 0.25746 0.0
S1095 S 0.12912 0.94385 0.21926 0.0
N1096 N 0.13879 0.91803 0.2091 0.0
N1097 N 0.15324 0.95743 0.23855 0.0
C1098 C 0.17057 0.94088 0.2375 0.0
C1099 C 0.16278 0.91959 0.22145 0.0
C1100 C 0.11992 0.87217 0.82251 0.0
C1101 C 0.12946 0.8762 0.8477 0.0
C1102 C 0.09469 0.86006 0.81595 0.0
C1103 C 0.07817 0.85153 0.83439 0.0
H1104 H 0.13234 0.8777 0.80774 0.0
H1105 H 0.0886 0.85634 0.79638 0.0
S1106 S 0.0926 0.86047 0.9029 0.0
N1107 N 0.11949 0.87295 0.89101 0.0
N1108 N 0.07227 0.85 0.87882 0.0
C1109 C 0.08706 0.85652 0.8596 0.0
C1110 C 0.11267 0.86884 0.86623 0.0
C1111 C 0.27056 0.16059 0.84539 0.0
C1112 C 0.25823 0.16055 0.86784 0.0
C1113 C 0.27658 0.13849 0.83455 0.0
C1114 C 0.27057 0.11532 0.8457 0.0
H1115 H 0.27543 0.17788 0.83596 0.0
H1116 H 0.28528 0.13954 0.81687 0.0
S1117 S 0.24117 0.10536 0.90617 0.0
N1118 N 0.24258 0.13559 0.90206 0.0
N1119 N 0.25325 0.0941 0.88157 0.0
C1120 C 0.25913 0.11516 0.86865 0.0
C1121 C 0.25324 0.13771 0.87978 0.0
C1122 C 0.96468 0.23586 0.86777 0.0
C1123 C 0.95151 0.22203 0.84731 0.0
C1124 C 0.98673 0.25293 0.86481 0.0
C1125 C 0.99634 0.25705 0.84121 0.0
H1126 H 0.95766 0.23365 0.88617 0.0
H1127 H 0.99604 0.26328 0.88119 0.0
S1128 S 0.96815 0.22579 0.78156 0.0
N1129 N 0.9491 0.2136 0.80265 0.0
N1130 N 0.9907 0.24582 0.79693 0.0
C1131 C 0.98339 0.24317 0.82057 0.0
C1132 C 0.96084 0.22574 0.82363 0.0
C1133 C 0.80332 0.93482 0.84932 0.0
C1134 C 0.80787 0.9352 0.8756 0.0
C1135 C 0.79177 0.95377 0.83682 0.0
C1136 C 0.78396 0.97364 0.85013 0.0
H1137 H 0.80807 0.91942 0.83834 0.0
H1138 H 0.78813 0.95244 0.8167 0.0
S1139 S 0.79425 0.98548 0.91842 0.0
N1140 N 0.80613 0.95919 0.91396 0.0
N1141 N 0.7832 0.99367 0.89056 0.0
C1142 C 0.78899 0.97469 0.87616 0.0
C1143 C 0.80124 0.95581 0.88885 0.0
C1144 C 0.21042 0.10456 0.24578 0.0
C1145 C 0.19583 0.12057 0.25783 0.0
C1146 C 0.22127 0.08548 0.25865 0.0
C1147 C 0.21789 0.08145 0.28411 0.0
H1148 H 0.2131 0.1065 0.2261 0.0
H1149 H 0.23203 0.07353 0.24838 0.0
S1150 S 0.18191 0.11896 0.32436 0.0
N1151 N 0.17905 0.13154 0.29668 0.0
N1152 N 0.19935 0.09603 0.321 0.0
C1153 C 0.20371 0.09774 0.29645 0.0
C1154 C 0.19272 0.11714 0.2833 0.0
C1155 C 0.18665 0.9649 0.83644 0.0
C1156 C 0.20097 0.94471 0.83582 0.0
C1157 C 0.1945 0.987 0.82433 0.0
C1158 C 0.21689 0.98968 0.81103 0.0
H1159 H 0.16937 0.96369 0.84662 0.0
H1160 H 0.18324 1.00226 0.82583 0.0
S1161 S 0.25978 0.94132 0.8019 0.0
N1162 N 0.23777 0.92821 0.81987 0.0
N1163 N 0.25229 0.96949 0.7966 0.0
C1164 C 0.23107 0.96936 0.80983 0.0
C1165 C 0.22318 0.94695 0.82237 0.0
C1166 C 0.14944 0.25102 0.9081 0.0
C1167 C 0.17042 0.24741 0.8939 0.0
C1168 C 0.13035 0.26563 0.89963 0.0
C1169 C 0.13096 0.27707 0.87635 0.0
H1170 H 0.14777 0.24255 0.92613 0.0
H1171 H 0.11484 0.26792 0.91142 0.0
S1172 S 0.18124 0.27377 0.83161 0.0
N1173 N 0.19044 0.25684 0.85514 0.0
N1174 N 0.1541 0.28372 0.83901 0.0
C1175 C 0.15131 0.27319 0.86157 0.0
C1176 C 0.17106 0.2585 0.87034 0.0
C1177 C 0.81779 0.15734 0.84536 0.0
C1178 C 0.82932 0.16462 0.86933 0.0
C1179 C 0.80449 0.13339 0.84048 0.0
C1180 C 0.80228 0.11571 0.85936 0.0
H1181 H 0.81959 0.17014 0.83012 0.0
H1182 H 0.79602 0.12861 0.82173 0.0
S1183 S 0.82932 0.12547 0.92523 0.0
N1184 N 0.83761 0.15241 0.91216 0.0
N1185 N 0.81279 0.10724 0.90301 0.0
C1186 C 0.81321 0.12295 0.88357 0.0
C1187 C 0.82668 0.14743 0.88855 0.0
C1188 C 0.90852 0.8362 0.88082 0.0
C1189 C 0.8908 0.84343 0.86206 0.0
C1190 C 0.93094 0.82607 0.87488 0.0
C1191 C 0.93664 0.82277 0.84993 0.0
H1192 H 0.90471 0.83792 0.90024 0.0
H1193 H 0.9439 0.82071 0.88997 0.0
S1194 S 0.89602 0.83792 0.79376 0.0
N1195 N 0.88041 0.84628 0.81742 0.0
N1196 N 0.92207 0.82704 0.80631 0.0
C1197 C 0.91912 0.83008 0.831 0.0
C1198 C 0.89635 0.8404 0.83705 0.0
C1199 C 0.82887 0.96686 0.23869 0.0
C1200 C 0.83735 0.95565 0.26068 0.0
C1201 C 0.81776 0.98901 0.23943 0.0
C1202 C 0.81427 1.00089 0.26222 0.0
H1203 H 0.83027 0.9581 0.2207 0.0
H1204 H 0.81121 0.99651 0.22185 0.0
S1205 S 0.83288 0.97894 0.32529 0.0
N1206 N 0.84146 0.95806 0.30605 0.0
N1207 N 0.82047 0.99964 0.30744 0.0
C1208 C 0.82305 0.99012 0.28441 0.0
C1209 C 0.83444 0.96748 0.28363 0.0
C1210 C 0.11373 0.80488 0.21953 0.0
C1211 C 0.11315 0.82693 0.2062 0.0
C1212 C 0.09297 0.79575 0.23356 0.0
C1213 C 0.07129 0.80859 0.2346 0.0
H1214 H 0.13123 0.79601 0.22099 0.0
H1215 H 0.09516 0.78025 0.24565 0.0
S1216 S 0.05859 0.86425 0.19903 0.0
N1217 N 0.08768 0.85901 0.19177 0.0
N1218 N 0.04879 0.84201 0.21816 0.0
C1219 C 0.06938 0.82896 0.21909 0.0
C1220 C 0.09036 0.83815 0.20488 0.0
C1221 C 0.92112 0.27028 0.23553 0.0
C1222 C 0.91704 0.24514 0.22745 0.0
C1223 C 0.94239 0.27954 0.25245 0.0
C1224 C 0.96014 0.26389 0.26191 0.0
H1225 H 0.90721 0.28259 0.22955 0.0
H1226 H 0.94419 0.29866 0.25911 0.0
S1227 S 0.96067 0.1979 0.24339 0.0
N1228 N 0.93459 0.20581 0.22772 0.0
N1229 N 0.97392 0.22295 0.25978 0.0
C1230 C 0.95708 0.23919 0.25284 0.0
C1231 C 0.93572 0.22988 0.23555 0.0
C1232 C 0.18195 0.75463 0.64293 0.0
C1233 C 0.1942 0.75185 0.6669 0.0
C1234 C 0.1964 0.76399 0.623 0.0
C1235 C 0.22356 0.7708 0.62646 0.0
H1236 H 0.16138 0.74824 0.63921 0.0
H1237 H 0.18656 0.76439 0.60454 0.0
S1238 S 0.26406 0.77051 0.68639 0.0
N1239 N 0.23451 0.75926 0.69335 0.0
N1240 N 0.26142 0.77662 0.65637 0.0
C1241 C 0.23554 0.76962 0.65073 0.0
C1242 C 0.22095 0.76021 0.67081 0.0
C1243 C 0.80931 0.78808 0.60827 0.0
C1244 C 0.83395 0.7808 0.61397 0.0
C1245 C 0.80037 0.79205 0.58361 0.0
C1246 C 0.8157 0.7888 0.56361 0.0
H1247 H 0.79656 0.79016 0.62294 0.0
H1248 H 0.78078 0.79661 0.58019 0.0
S1249 S 0.88325 0.77348 0.56915 0.0
N1250 N 0.87481 0.77342 0.59814 0.0
N1251 N 0.8578 0.78027 0.55158 0.0
C1252 C 0.84098 0.7829 0.56924 0.0
C1253 C 0.85018 0.77912 0.59445 0.0
C1254 C 0.85578 0.33658 0.69954 0.0
C1255 C 0.85949 0.36271 0.69769 0.0
C1256 C 0.84408 0.32095 0.67952 0.0
C1257 C 0.83529 0.33063 0.65671 0.0
H1258 H 0.86183 0.32806 0.71673 0.0
H1259 H 0.84163 0.30105 0.68204 0.0
S1260 S 0.84165 0.39744 0.64124 0.0
N1261 N 0.85433 0.39735 0.67037 0.0
N1262 N 0.832 0.36802 0.63312 0.0
C1263 C 0.83881 0.35665 0.65451 0.0
C1264 C 0.85094 0.37262 0.67484 0.0
C1265 C 0.15963 0.33476 0.59086 0.0
C1266 C 0.15855 0.33234 0.61673 0.0
C1267 C 0.16505 0.31504 0.57592 0.0
C1268 C 0.16976 0.2922 0.58628 0.0
H1269 H 0.15704 0.35224 0.5822 0.0
H1270 H 0.16648 0.31799 0.55618 0.0
S1271 S 0.16641 0.27582 0.65291 0.0
N1272 N 0.15983 0.30472 0.65182 0.0
N1273 N 0.17123 0.26798 0.62403 0.0
C1274 C 0.16723 0.28912 0.61198 0.0
C1275 C 0.16133 0.30912 0.62711 0.0
C1276 C 0.20635 0.32237 0.43979 0.0
C1277 C 0.2235 0.33139 0.42211 0.0
C1278 C 0.21535 0.31171 0.46175 0.0
C1279 C 0.24189 0.30938 0.46687 0.0
H1280 H 0.18573 0.32345 0.4365 0.0
H1281 H 0.20118 0.3049 0.47462 0.0
S1282 S 0.29483 0.33035 0.42639 0.0
N1283 N 0.26827 0.33767 0.41106 0.0
N1284 N 0.2853 0.31734 0.4523 0.0
C1285 C 0.25933 0.31855 0.44937 0.0
C1286 C 0.25011 0.32956 0.42698 0.0
C1287 C 0.22785 0.70044 0.45303 0.0
C1288 C 0.22614 0.71717 0.43335 0.0
C1289 C 0.23724 0.70878 0.4775 0.0
C1290 C 0.2452 0.73423 0.48341 0.0
H1291 H 0.22107 0.68085 0.4497 0.0
H1292 H 0.23756 0.69523 0.49205 0.0
S1293 S 0.24769 0.7852 0.43786 0.0
N1294 N 0.23568 0.76008 0.42103 0.0
N1295 N 0.25265 0.77568 0.46664 0.0
C1296 C 0.24441 0.75096 0.46363 0.0
C1297 C 0.23513 0.74246 0.43878 0.0
C1298 C 0.81538 0.68368 0.43347 0.0
C1299 C 0.82896 0.6999 0.41728 0.0
C1300 C 0.80085 0.69255 0.4517 0.0
C1301 C 0.79945 0.7181 0.45491 0.0
H1302 H 0.816 0.66385 0.43215 0.0
H1303 H 0.79046 0.67914 0.46327 0.0
S1304 S 0.8322 0.76865 0.41786 0.0
N1305 N 0.8398 0.74288 0.40546 0.0
N1306 N 0.81416 0.75973 0.44085 0.0
C1307 C 0.81336 0.73466 0.43914 0.0
C1308 C 0.82776 0.72553 0.42018 0.0
C1309 C 0.80755 0.32918 0.47945 0.0
C1310 C 0.8089 0.35504 0.47676 0.0
C1311 C 0.7999 0.31774 0.5014 0.0
C1312 C 0.79298 0.33151 0.52167 0.0
H1313 H 0.8127 0.31762 0.46453 0.0
H1314 H 0.79982 0.29783 0.50265 0.0
S1315 S 0.79261 0.39962 0.52437 0.0
N1316 N 0.80228 0.39415 0.49651 0.0
N1317 N 0.78733 0.37228 0.53754 0.0
C1318 C 0.79325 0.35721 0.51906 0.0
C1319 C 0.80135 0.36903 0.4967 0.0
C1320 C 0.10563 0.7235 0.7376 0.0
C1321 C 0.12677 0.74095 0.73172 0.0
C1322 C 0.08685 0.72986 0.75308 0.0
C1323 C 0.08811 0.75405 0.7632 0.0
H1324 H 0.10377 0.70454 0.73046 0.0
H1325 H 0.07116 0.7157 0.75716 0.0
S1326 S 0.13937 0.80679 0.75403 0.0
N1327 N 0.14776 0.7836 0.73761 0.0
N1328 N 0.11221 0.79562 0.76629 0.0
C1329 C 0.10871 0.7719 0.75706 0.0
C1330 C 0.12802 0.76536 0.74142 0.0
C1331 C 0.81166 0.68507 0.70253 0.0
C1332 C 0.83904 0.68813 0.70328 0.0
C1333 C 0.79761 0.66342 0.71129 0.0
C1334 C 0.81041 0.64413 0.72138 0.0
H1335 H 0.801 0.69971 0.69555 0.0
H1336 H 0.77662 0.66195 0.7107 0.0
S1337 S 0.88133 0.64139 0.72499 0.0
N1338 N 0.87808 0.66868 0.71286 0.0
N1339 N 0.85165 0.62856 0.72996 0.0
C1340 C 0.83761 0.64664 0.72175 0.0
C1341 C 0.85191 0.66846 0.71255 0.0
C1342 C 0.93463 0.38012 0.79308 0.0
C1343 C 0.93207 0.37937 0.76675 0.0
C1344 C 0.95662 0.37297 0.80661 0.0
C1345 C 0.97703 0.36466 0.79446 0.0
H1346 H 0.91929 0.38593 0.80337 0.0
H1347 H 0.95745 0.37355 0.8268 0.0
S1348 S 0.98137 0.36168 0.72592 0.0
N1349 N 0.953 0.37132 0.72914 0.0
N1350 N 0.99402 0.3578 0.75449 0.0
C1351 C 0.97498 0.36427 0.76817 0.0
C1352 C 0.95265 0.37162 0.75438 0.0
C1353 C 0.22097 0.43045 0.73005 0.0
C1354 C 0.20409 0.42887 0.70824 0.0
C1355 C 0.23404 0.45335 0.73928 0.0
C1356 C 0.23037 0.47568 0.72727 0.0
H1357 H 0.22326 0.41393 0.74063 0.0
H1358 H 0.2459 0.45359 0.75678 0.0
S1359 S 0.19019 0.481 0.66788 0.0
N1360 N 0.18604 0.45097 0.67358 0.0
N1361 N 0.21036 0.49425 0.69094 0.0
C1362 C 0.21474 0.4741 0.70452 0.0
C1363 C 0.20164 0.45064 0.69501 0.0
C1364 C 0.10843 0.38655 0.36071 0.0
C1365 C 0.12882 0.38105 0.34688 0.0
C1366 C 0.08257 0.37646 0.35378 0.0
C1367 C 0.07609 0.36014 0.3329 0.0
H1368 H 0.11266 0.39775 0.37775 0.0
H1369 H 0.06776 0.38048 0.36573 0.0
S1370 S 0.1227 0.34159 0.28945 0.0
N1371 N 0.14104 0.35981 0.31057 0.0
N1372 N 0.09255 0.34063 0.29737 0.0
C1373 C 0.09632 0.35571 0.31807 0.0
C1374 C 0.12266 0.36614 0.32517 0.0
C1375 C 0.23754 0.63149 0.30535 0.0
C1376 C 0.23456 0.63608 0.3309 0.0
C1377 C 0.24759 0.6101 0.29707 0.0
C1378 C 0.25536 0.59254 0.31408 0.0
H1379 H 0.23324 0.64519 0.29173 0.0
H1380 H 0.25098 0.60825 0.27754 0.0
S1381 S 0.25008 0.5947 0.38262 0.0
N1382 N 0.23919 0.62035 0.37277 0.0
N1383 N 0.25761 0.58034 0.35746 0.0
C1384 C 0.25125 0.59631 0.33944 0.0
C1385 C 0.24111 0.618 0.34781 0.0
C1386 C 0.95804 0.70556 0.34128 0.0
C1387 C 0.94906 0.711 0.36448 0.0
C1388 C 0.97747 0.72179 0.33099 0.0
C1389 C 0.98843 0.74413 0.34348 0.0
H1390 H 0.94977 0.68875 0.3309 0.0
H1391 H 0.98373 0.7169 0.31303 0.0
S1392 S 0.97032 0.76726 0.40436 0.0
N1393 N 0.95166 0.74037 0.39923 0.0
N1394 N 0.98817 0.77094 0.38028 0.0
C1395 C 0.9794 0.74974 0.36673 0.0
C1396 C 0.95964 0.73322 0.37708 0.0
C1397 C 0.79811 0.41778 0.38186 0.0
C1398 C 0.80232 0.41695 0.40808 0.0
C1399 C 0.78491 0.43614 0.37035 0.0
C1400 C 0.77504 0.45412 0.38459 0.0
H1401 H 0.80461 0.40385 0.37012 0.0
H1402 H 0.78183 0.43595 0.35019 0.0
S1403 S 0.78314 0.46221 0.45338 0.0
N1404 N 0.7975 0.43762 0.44765 0.0
N1405 N 0.77179 0.47119 0.42592 0.0
C1406 C 0.77949 0.4539 0.41064 0.0
C1407 C 0.79332 0.43557 0.42239 0.0
C1408 C 0.20255 0.62162 0.71945 0.0
C1409 C 0.18486 0.63672 0.72786 0.0
C1410 C 0.20942 0.60142 0.73334 0.0
C1411 C 0.19884 0.59545 0.75619 0.0
H1412 H 0.21078 0.62514 0.70174 0.0
H1413 H 0.22261 0.58997 0.72579 0.0
S1414 S 0.1536 0.63073 0.7875 0.0
N1415 N 0.15821 0.64538 0.76116 0.0
N1416 N 0.1712 0.60755 0.78739 0.0
C1417 C 0.18175 0.6109 0.76516 0.0
C1418 C 0.17483 0.63153 0.75103 0.0
C1419 C 0.23129 0.45059 0.373 0.0
C1420 C 0.2168 0.43459 0.35457 0.0
C1421 C 0.25095 0.46924 0.36678 0.0
C1422 C 0.2568 0.47261 0.3419 0.0
H1423 H 0.22749 0.44854 0.39245 0.0
H1424 H 0.26147 0.48128 0.38145 0.0
S1425 S 0.22609 0.43442 0.28695 0.0
N1426 N 0.21059 0.42264 0.31063 0.0
N1427 N 0.24754 0.45753 0.29888 0.0
C1428 C 0.24261 0.45662 0.32332 0.0
C1429 C 0.22258 0.4377 0.32966 0.0
C1430 C 0.13594 0.7208 0.35588 0.0
C1431 C 0.16185 0.73106 0.36259 0.0
C1432 C 0.11707 0.73593 0.34776 0.0
C1433 C 0.12339 0.76192 0.3459 0.0
H1434 H 0.13003 0.70105 0.35768 0.0
H1435 H 0.09723 0.72726 0.34354 0.0
S1436 S 0.18946 0.79729 0.35825 0.0
N1437 N 0.19334 0.76839 0.36501 0.0
N1438 N 0.15831 0.79665 0.34924 0.0
C1439 C 0.14955 0.77217 0.35162 0.0
C1440 C 0.16863 0.7568 0.36004 0.0
C1441 C 0.8282 0.6322 0.32715 0.0
C1442 C 0.83482 0.63385 0.35298 0.0
C1443 C 0.81644 0.60973 0.3157 0.0
C1444 C 0.81117 0.58815 0.32971 0.0
H1445 H 0.83128 0.64858 0.31592 0.0
H1446 H 0.81058 0.60957 0.29592 0.0
S1447 S 0.82864 0.58249 0.3976 0.0
N1448 N 0.83789 0.61199 0.39189 0.0
N1449 N 0.81626 0.56956 0.37057 0.0
C1450 C 0.81936 0.58937 0.35539 0.0
C1451 C 0.83101 0.6123 0.36699 0.0
C1452 C 0.90553 0.31671 0.39862 0.0
C1453 C 0.89506 0.33687 0.38744 0.0
C1454 C 0.92875 0.30916 0.3913 0.0
C1455 C 0.94252 0.32142 0.37244 0.0
H1456 H 0.89536 0.30629 0.41276 0.0
H1457 H 0.93564 0.29319 0.40008 0.0
S1458 S 0.92481 0.37704 0.33926 0.0
N1459 N 0.90125 0.37011 0.3579 0.0
N1460 N 0.94485 0.35612 0.34424 0.0
C1461 C 0.93271 0.34217 0.36175 0.0
C1462 C 0.90911 0.3499 0.3693 0.0
C1463 C 0.84476 0.4728 0.80194 0.0
C1464 C 0.84438 0.46472 0.77686 0.0
C1465 C 0.83662 0.4956 0.80841 0.0
C1466 C 0.8276 0.51149 0.79013 0.0
H1467 H 0.85057 0.46097 0.81683 0.0
H1468 H 0.83666 0.50041 0.82803 0.0
S1469 S 0.82358 0.49935 0.72156 0.0
N1470 N 0.83486 0.47471 0.7336 0.0
N1471 N 0.81985 0.51759 0.74549 0.0
C1472 C 0.82801 0.50401 0.76487 0.0
C1473 C 0.83622 0.48067 0.75834 0.0
C1474 C 0.13135 0.3386 0.7386 0.0
C1475 C 0.13383 0.36354 0.7312 0.0
C1476 C 0.11415 0.32998 0.75643 0.0
C1477 C 0.09908 0.34611 0.7675 0.0
H1478 H 0.14336 0.32588 0.73116 0.0
H1479 H 0.11345 0.31092 0.76232 0.0
S1480 S 0.09546 0.41191 0.75179 0.0
N1481 N 0.11745 0.40331 0.73416 0.0
N1482 N 0.08574 0.38732 0.76804 0.0
C1483 C 0.10051 0.3707 0.75941 0.0
C1484 C 0.11774 0.37937 0.74117 0.0
C1485 C 0.93389 0.73887 0.72266 0.0
C1486 C 0.91598 0.7547 0.71427 0.0
C1487 C 0.95606 0.74783 0.73813 0.0
C1488 C 0.96129 0.773 0.74581 0.0
H1489 H 0.93045 0.71923 0.71765 0.0
H1490 H 0.96883 0.73469 0.7448 0.0
S1491 S 0.92101 0.82237 0.7283 0.0
N1492 N 0.90529 0.79699 0.71403 0.0
N1493 N 0.94728 0.81387 0.7432 0.0
C1494 C 0.94422 0.78934 0.73668 0.0
C1495 C 0.92146 0.78016 0.7209 0.0
C1496 C 0.7019 0.26481 0.67539 0.0
C1497 C 0.69243 0.23928 0.67665 0.0
C1498 C 0.71401 0.27457 0.65428 0.0
C1499 C 0.71696 0.2591 0.63371 0.0
H1500 H 0.70127 0.27704 0.69136 0.0
H1501 H 0.72259 0.29388 0.65478 0.0
S1502 S 0.69165 0.19201 0.626 0.0
N1503 N 0.68395 0.19964 0.65404 0.0
N1504 N 0.70671 0.21771 0.61488 0.0
C1505 C 0.7059 0.23402 0.63413 0.0
C1506 C 0.69364 0.22418 0.65542 0.0
C1507 C 0.32816 0.27549 0.60892 0.0
C1508 C 0.32326 0.28317 0.633 0.0
C1509 C 0.31148 0.27948 0.5881 0.0
C1510 C 0.28964 0.29184 0.59044 0.0
H1511 H 0.34455 0.26567 0.60616 0.0
H1512 H 0.31539 0.27223 0.5701 0.0
S1513 S 0.27073 0.3191 0.64896 0.0
N1514 N 0.29686 0.30616 0.65768 0.0
N1515 N 0.26556 0.31394 0.61853 0.0
C1516 C 0.28565 0.30125 0.61416 0.0
C1517 C 0.30251 0.29692 0.63542 0.0
C1518 C 0.32966 0.85392 0.68038 0.0
C1519 C 0.35668 0.8612 0.6849 0.0
C1520 C 0.31904 0.84011 0.65866 0.0
C1521 C 0.33497 0.83306 0.64045 0.0
H1522 H 0.31664 0.85851 0.69398 0.0
H1523 H 0.29824 0.83447 0.65637 0.0
S1524 S 0.40661 0.85014 0.64186 0.0
N1525 N 0.39884 0.86192 0.6683 0.0
N1526 N 0.37905 0.83643 0.62765 0.0
C1527 C 0.36193 0.8409 0.64444 0.0
C1528 C 0.37271 0.85483 0.66656 0.0
C1529 C 0.68614 0.83588 0.59888 0.0
C1530 C 0.67513 0.82384 0.61924 0.0
C1531 C 0.69396 0.82229 0.57915 0.0
C1532 C 0.69108 0.79612 0.57895 0.0
H1533 H 0.68868 0.85598 0.59813 0.0
H1534 H 0.70223 0.8324 0.56381 0.0
S1535 S 0.66359 0.75583 0.62819 0.0
N1536 N 0.66159 0.78438 0.63816 0.0
N1537 N 0.67678 0.75874 0.60123 0.0
C1538 C 0.67998 0.78384 0.59919 0.0
C1539 C 0.67195 0.79773 0.6193 0.0
C1540 C 0.7612 0.86251 0.41929 0.0
C1541 C 0.73587 0.85728 0.40765 0.0
C1542 C 0.76917 0.84925 0.44008 0.0
C1543 C 0.75206 0.83038 0.45015 0.0
H1544 H 0.77506 0.87678 0.4121 0.0
H1545 H 0.78895 0.85384 0.44826 0.0
S1546 S 0.68337 0.80995 0.42637 0.0
N1547 N 0.69368 0.83226 0.40755 0.0
N1548 N 0.70827 0.80743 0.44672 0.0
C1549 C 0.72649 0.82525 0.43877 0.0
C1550 C 0.7185 0.83868 0.41754 0.0
C1551 C 0.71603 0.25093 0.45724 0.0
C1552 C 0.70694 0.22618 0.44952 0.0
C1553 C 0.72825 0.25677 0.48138 0.0
C1554 C 0.73191 0.2381 0.49882 0.0
H1555 H 0.71439 0.26585 0.44429 0.0
H1556 H 0.73554 0.27599 0.48618 0.0
S1557 S 0.70855 0.17079 0.48906 0.0
N1558 N 0.7004 0.18317 0.4622 0.0
N1559 N 0.72317 0.19408 0.50723 0.0
C1560 C 0.72204 0.21342 0.49161 0.0
C1561 C 0.70962 0.2075 0.46712 0.0
C1562 C 0.31337 0.2209 0.44236 0.0
C1563 C 0.31974 0.19695 0.43803 0.0
C1564 C 0.29585 0.22523 0.45992 0.0
C1565 C 0.28376 0.20573 0.47379 0.0
H1566 H 0.32178 0.23646 0.43192 0.0
H1567 H 0.29219 0.24415 0.46286 0.0
S1568 S 0.29406 0.1395 0.46969 0.0
N1569 N 0.31338 0.15355 0.4498 0.0
N1570 N 0.27919 0.16143 0.48156 0.0
C1571 C 0.28988 0.18164 0.46954 0.0
C1572 C 0.3081 0.17731 0.45198 0.0
C1573 C 0.29952 0.83543 0.46062 0.0
C1574 C 0.2988 0.86112 0.45791 0.0
C1575 C 0.29424 0.82358 0.48294 0.0
C1576 C 0.28671 0.83637 0.50349 0.0
H1577 H 0.30497 0.82429 0.44552 0.0
H1578 H 0.29663 0.80411 0.48427 0.0
S1579 S 0.28005 0.90341 0.50637 0.0
N1580 N 0.28931 0.89898 0.47811 0.0
N1581 N 0.27767 0.876 0.51962 0.0
C1582 C 0.28433 0.86171 0.50086 0.0
C1583 C 0.29061 0.87418 0.47818 0.0
C1584 C 0.63852 0.23971 0.77513 0.0
C1585 C 0.63476 0.23545 0.74911 0.0
C1586 C 0.61869 0.24674 0.78892 0.0
C1587 C 0.5941 0.24977 0.77737 0.0
H1588 H 0.65702 0.23751 0.78497 0.0
H1589 H 0.62275 0.24993 0.80884 0.0
S1590 S 0.57372 0.23959 0.70984 0.0
N1591 N 0.60429 0.23418 0.7124 0.0
N1592 N 0.56695 0.24709 0.73825 0.0
C1593 C 0.59007 0.24564 0.75132 0.0
C1594 C 0.61037 0.23857 0.73724 0.0
C1595 C 0.34638 0.16214 0.71158 0.0
C1596 C 0.33465 0.18346 0.70547 0.0
C1597 C 0.33194 0.14069 0.72005 0.0
C1598 C 0.30512 0.13951 0.72235 0.0
H1599 H 0.36696 0.16202 0.70988 0.0
H1600 H 0.34177 0.12483 0.72481 0.0
S1601 S 0.26505 0.19016 0.70986 0.0
N1602 N 0.29453 0.20212 0.70328 0.0
N1603 N 0.26736 0.1614 0.71845 0.0
C1604 C 0.29299 0.16042 0.71604 0.0
C1605 C 0.30774 0.18247 0.70775 0.0
C1606 C 0.42293 0.8474 0.76608 0.0
C1607 C 0.42299 0.87252 0.75965 0.0
C1608 C 0.44403 0.8394 0.78035 0.0
C1609 C 0.46608 0.85616 0.78891 0.0
H1610 H 0.40624 0.83385 0.76036 0.0
H1611 H 0.44289 0.82 0.78512 0.0
S1612 S 0.47745 0.92327 0.77478 0.0
N1613 N 0.44816 0.91364 0.76135 0.0
N1614 N 0.48748 0.89868 0.78815 0.0
C1615 C 0.46667 0.88117 0.78213 0.0
C1616 C 0.44527 0.88931 0.76754 0.0
C1617 C 0.70865 0.92239 0.70745 0.0
C1618 C 0.70023 0.90382 0.72404 0.0
C1619 C 0.72092 0.94583 0.71616 0.0
C1620 C 0.72496 0.95213 0.74191 0.0
H1621 H 0.70497 0.91915 0.68749 0.0
H1622 H 0.72685 0.9592 0.70232 0.0
S1623 S 0.70936 0.90853 0.79322 0.0
N1624 N 0.69979 0.89197 0.76744 0.0
N1625 N 0.72091 0.93635 0.78394 0.0
C1626 C 0.71762 0.93318 0.75875 0.0
C1627 C 0.70569 0.90905 0.74979 0.0
C1628 C 0.60067 0.87886 0.3395 0.0
C1629 C 0.62335 0.86759 0.34472 0.0
C1630 C 0.57616 0.86456 0.33525 0.0
C1631 C 0.57354 0.83859 0.33659 0.0
H1632 H 0.60181 0.89892 0.33902 0.0
H1633 H 0.55915 0.87387 0.33155 0.0
S1634 S 0.62676 0.79979 0.3469 0.0
N1635 N 0.64157 0.82866 0.34855 0.0
N1636 N 0.59546 0.80195 0.3418 0.0
C1637 C 0.59598 0.82704 0.3413 0.0
C1638 C 0.62091 0.8415 0.34511 0.0
C1639 C 0.71514 0.14468 0.33004 0.0
C1640 C 0.734 0.15664 0.34786 0.0
C1641 C 0.72001 0.12421 0.31578 0.0
C1642 C 0.74405 0.11477 0.31856 0.0
H1643 H 0.69662 0.1516 0.32668 0.0
H1644 H 0.70484 0.11603 0.30204 0.0
S1645 S 0.80002 0.13927 0.36297 0.0
N1646 N 0.77769 0.15738 0.36784 0.0
N1647 N 0.78682 0.11888 0.341 0.0
C1648 C 0.76293 0.12619 0.33675 0.0
C1649 C 0.75796 0.14716 0.3513 0.0
C1650 C 0.46323 0.23086 0.3879 0.0
C1651 C 0.44384 0.23839 0.40195 0.0
C1652 C 0.48303 0.24822 0.37973 0.0
C1653 C 0.48421 0.27384 0.38515 0.0
H1654 H 0.46313 0.21138 0.38323 0.0
H1655 H 0.49766 0.24149 0.36916 0.0
S1656 S 0.43711 0.30317 0.42019 0.0
N1657 N 0.42645 0.27313 0.42032 0.0
N1658 N 0.46352 0.30585 0.40472 0.0
C1659 C 0.46479 0.28162 0.39904 0.0
C1660 C 0.4446 0.2639 0.40737 0.0
C1661 C 0.30865 0.94143 0.37512 0.0
C1662 C 0.29304 0.92173 0.38587 0.0
C1663 C 0.29769 0.95942 0.3607 0.0
C1664 C 0.2706 0.95884 0.35671 0.0
H1665 H 0.32964 0.94305 0.37789 0.0
H1666 H 0.3106 0.97414 0.35296 0.0
S1667 S 0.22084 0.91076 0.37938 0.0
N1668 N 0.24881 0.90229 0.39022 0.0
N1669 N 0.22831 0.93656 0.36409 0.0
C1670 C 0.2547 0.9394 0.36739 0.0
C1671 C 0.26586 0.92082 0.38174 0.0
C1672 C 0.71719 0.11836 0.74028 0.0
C1673 C 0.70041 0.13369 0.75005 0.0
C1674 C 0.72674 0.09943 0.75445 0.0
C1675 C 0.71986 0.09492 0.779 0.0
H1676 H 0.72255 0.12064 0.7213 0.0
H1677 H 0.73922 0.08792 0.74583 0.0
S1678 S 0.6779 0.13127 0.81378 0.0
N1679 N 0.67839 0.14404 0.7861 0.0
N1680 N 0.69619 0.10869 0.81283 0.0
C1681 C 0.70368 0.11071 0.78921 0.0
C1682 C 0.69406 0.13001 0.77475 0.0
C1683 C 0.711 0.94196 0.31091 0.0
C1684 C 0.68694 0.93923 0.32144 0.0
C1685 C 0.71865 0.96253 0.29657 0.0
C1686 C 0.7025 0.98107 0.29215 0.0
H1687 H 0.72415 0.92822 0.314 0.0
H1688 H 0.73758 0.96425 0.28923 0.0
S1689 S 0.6377 0.9828 0.31562 0.0
N1690 N 0.64694 0.95677 0.32646 0.0
N1691 N 0.66141 0.99546 0.29928 0.0
C1692 C 0.67811 0.97828 0.30196 0.0
C1693 C 0.67031 0.95736 0.31669 0.0
C1694 C 0.64395 0.24559 0.34957 0.0
C1695 C 0.64363 0.23722 0.37438 0.0
C1696 C 0.62393 0.25813 0.33855 0.0
C1697 C 0.60269 0.26262 0.35182 0.0
H1698 H 0.66037 0.24339 0.33894 0.0
H1699 H 0.62589 0.26562 0.32012 0.0
S1700 S 0.59053 0.24191 0.41582 0.0
N1701 N 0.61846 0.23225 0.41066 0.0
N1702 N 0.58155 0.25612 0.39027 0.0
C1703 C 0.6015 0.2533 0.37605 0.0
C1704 C 0.62171 0.24055 0.38723 0.0
C1705 C 0.31752 0.13936 0.35517 0.0
C1706 C 0.34205 0.14415 0.36856 0.0
C1707 C 0.30913 0.11636 0.34304 0.0
C1708 C 0.32493 0.09723 0.34389 0.0
H1709 H 0.30449 0.15337 0.3545 0.0
H1710 H 0.29007 0.11348 0.33302 0.0
S1711 S 0.39057 0.10024 0.3771 0.0
N1712 N 0.38196 0.12796 0.38215 0.0
N1713 N 0.36619 0.08459 0.35956 0.0
C1714 C 0.3497 0.10195 0.35689 0.0
C1715 C 0.35827 0.12544 0.36916 0.0
C1716 C 0.39949 0.84837 0.35731 0.0
C1717 C 0.38066 0.83566 0.37158 0.0
C1718 C 0.42203 0.83815 0.35229 0.0
C1719 C 0.42679 0.81484 0.36148 0.0
H1720 H 0.39648 0.86617 0.34956 0.0
H1721 H 0.43586 0.84861 0.3411 0.0
S1722 S 0.38368 0.77434 0.4004 0.0
N1723 N 0.36857 0.79893 0.39554 0.0
N1724 N 0.41057 0.77948 0.38579 0.0
C1725 C 0.40833 0.80221 0.37629 0.0
C1726 C 0.38541 0.81268 0.38143 0.0
C1727 C 0.32863 0.97643 0.75255 0.0
C1728 C 0.33854 0.95932 0.76889 0.0
C1729 C 0.32342 0.99975 0.76124 0.0
C1730 C 0.32777 1.00699 0.78673 0.0
H1731 H 0.32393 0.97134 0.73301 0.0
H1732 H 0.31483 1.01172 0.74795 0.0
S1733 S 0.35626 0.96994 0.83678 0.0
N1734 N 0.3546 0.95209 0.81143 0.0
N1735 N 0.34472 0.99557 0.82779 0.0
C1736 C 0.33894 0.99048 0.80302 0.0
C1737 C 0.34436 0.96681 0.79412 0.0
C1738 C 0.61965 0.81581 0.74001 0.0
C1739 C 0.62271 0.83973 0.72996 0.0
C1740 C 0.59986 0.80867 0.75586 0.0
C1741 C 0.58273 0.82533 0.76208 0.0
H1742 H 0.63354 0.80314 0.73681 0.0
H1743 H 0.59912 0.79076 0.76459 0.0
S1744 S 0.57965 0.88815 0.73681 0.0
N1745 N 0.60471 0.87852 0.7244 0.0
N1746 N 0.56786 0.86531 0.75438 0.0
C1747 C 0.58437 0.84846 0.75054 0.0
C1748 C 0.6043 0.85563 0.7344 0.0
C1749 C 0.4234 0.26826 0.72568 0.0
C1750 C 0.41699 0.2433 0.71751 0.0
C1751 C 0.44611 0.27605 0.74105 0.0
C1752 C 0.46313 0.2591 0.74887 0.0
H1753 H 0.41024 0.28168 0.72101 0.0
H1754 H 0.44967 0.29519 0.7478 0.0
S1755 S 0.45718 0.19257 0.72948 0.0
N1756 N 0.43096 0.20238 0.71594 0.0
N1757 N 0.47346 0.21686 0.74513 0.0
C1758 C 0.45766 0.23441 0.7397 0.0
C1759 C 0.43462 0.22654 0.72397 0.0
C1760 C 0.7093 0.75296 0.18321 0.0
C1761 C 0.68248 0.74534 0.18448 0.0
C1762 C 0.71885 0.76648 0.16292 0.0
C1763 C 0.70199 0.77293 0.14299 0.0
H1764 H 0.72303 0.74879 0.19824 0.0
H1765 H 0.73957 0.77233 0.16307 0.0
S1766 S 0.63035 0.75495 0.13591 0.0
N1767 N 0.63942 0.74373 0.1631 0.0
N1768 N 0.65723 0.7688 0.12503 0.0
C1769 C 0.67518 0.76486 0.14375 0.0
C1770 C 0.66548 0.75118 0.16444 0.0
C1771 C 0.32391 0.75764 0.10589 0.0
C1772 C 0.3244 0.73399 0.11626 0.0
C1773 C 0.31258 0.76037 0.08162 0.0
C1774 C 0.30116 0.73955 0.06688 0.0
H1775 H 0.33164 0.77421 0.11689 0.0
H1776 H 0.31177 0.77896 0.07484 0.0
S1777 S 0.29944 0.67347 0.08478 0.0
N1778 N 0.31391 0.68944 0.10951 0.0
N1779 N 0.29294 0.69431 0.06397 0.0
C1780 C 0.30261 0.71576 0.07672 0.0
C1781 C 0.31409 0.71305 0.10138 0.0
C1782 C 0.33099 0.37569 0.15305 0.0
C1783 C 0.33733 0.36224 0.17434 0.0
C1784 C 0.31664 0.36399 0.132 0.0
C1785 C 0.30833 0.33823 0.13105 0.0
H1786 H 0.33674 0.3956 0.15278 0.0
H1787 H 0.31141 0.37538 0.1165 0.0
S1788 S 0.32007 0.29418 0.18136 0.0
N1789 N 0.33428 0.3214 0.19292 0.0
N1790 N 0.3079 0.29942 0.15292 0.0
C1791 C 0.3154 0.32427 0.15166 0.0
C1792 C 0.32976 0.33626 0.17338 0.0
C1793 C 0.74063 0.39006 0.11852 0.0
C1794 C 0.73572 0.37049 0.13521 0.0
C1795 C 0.7579 0.3888 0.0998 0.0
C1796 C 0.77066 0.3678 0.09689 0.0
H1797 H 0.73045 0.40615 0.11945 0.0
H1798 H 0.7603 0.40378 0.08676 0.0
S1799 S 0.76665 0.3128 0.13728 0.0
N1800 N 0.74645 0.33032 0.14858 0.0
N1801 N 0.77901 0.32805 0.11365 0.0
C1802 C 0.7668 0.34864 0.11413 0.0
C1803 C 0.74929 0.34994 0.13316 0.0
C1804 C 0.73879 0.38129 0.92835 0.0
C1805 C 0.71978 0.36371 0.9159 0.0
C1806 C 0.75315 0.37529 0.94998 0.0
C1807 C 0.74931 0.35135 0.96006 0.0
H1808 H 0.74291 0.39976 0.92102 0.0
H1809 H 0.76782 0.38955 0.95855 0.0
S1810 S 0.70115 0.29868 0.93481 0.0
N1811 N 0.69717 0.32149 0.91547 0.0
N1812 N 0.72439 0.31011 0.95615 0.0
C1813 C 0.72986 0.3337 0.94813 0.0
C1814 C 0.71512 0.33987 0.92601 0.0
C1815 C 0.70858 0.73668 0.98355 0.0
C1816 C 0.72686 0.73826 0.96552 0.0
C1817 C 0.71521 0.74652 1.00779 0.0
C1818 C 0.74043 0.75841 1.01516 0.0
H1819 H 0.68862 0.72866 0.97856 0.0
H1820 H 0.70002 0.74587 0.02055 0.0
S1821 S 0.79594 0.76623 0.9754 0.0
N1822 N 0.77169 0.75143 0.957 0.0
N1823 N 0.7842 0.77006 1.00268 0.0
C1824 C 0.75937 0.75885 0.99778 0.0
C1825 C 0.75256 0.74876 0.97293 0.0
C1826 C 0.3277 0.69409 0.92646 0.0
C1827 C 0.31789 0.68641 0.90205 0.0
C1828 C 0.31165 0.70269 0.94357 0.0
C1829 C 0.28515 0.70392 0.93697 0.0
H1830 H 0.3479 0.69323 0.93248 0.0
H1831 H 0.31999 0.70824 0.96221 0.0
S1832 S 0.25047 0.6881 0.87469 0.0
N1833 N 0.28032 0.68193 0.87172 0.0
N1834 N 0.25024 0.69808 0.90381 0.0
C1835 C 0.27516 0.69656 0.91253 0.0
C1836 C 0.2915 0.68782 0.89511 0.0
C1837 C 0.29799 0.38087 0.97076 0.0
C1838 C 0.30206 0.3635 0.95223 0.0
C1839 C 0.28601 0.37334 0.99243 0.0
C1840 C 0.27767 0.34812 0.99657 0.0
H1841 H 0.3042 0.40051 0.96853 0.0
H1842 H 0.28351 0.38737 1.00622 0.0
S1843 S 0.282 0.2954 0.9531 0.0
N1844 N 0.29567 0.32 0.939 0.0
N1845 N 0.27324 0.30586 0.97974 0.0
C1846 C 0.28151 0.33054 0.97818 0.0
C1847 C 0.29368 0.33822 0.95605 0.0
C1848 C 0.60037 0.71451 0.25854 0.0
C1849 C 0.62098 0.73274 0.2532 0.0
C1850 C 0.57974 0.72048 0.27182 0.0
C1851 C 0.57879 0.74495 0.28029 0.0
H1852 H 0.6001 0.69542 0.25226 0.0
H1853 H 0.56421 0.70588 0.27521 0.0
S1854 S 0.6289 0.79923 0.27294 0.0
N1855 N 0.63975 0.77608 0.25856 0.0
N1856 N 0.60104 0.78733 0.28343 0.0
C1857 C 0.59938 0.76335 0.27527 0.0
C1858 C 0.62041 0.75724 0.26175 0.0
C1859 C 0.38378 0.64713 0.22578 0.0
C1860 C 0.36422 0.66098 0.21639 0.0
C1861 C 0.37826 0.62705 0.24156 0.0
C1862 C 0.35293 0.61986 0.24849 0.0
H1863 H 0.40367 0.6521 0.22116 0.0
H1864 H 0.39391 0.61701 0.24836 0.0
S1865 S 0.29494 0.65057 0.23003 0.0
N1866 N 0.31861 0.66638 0.21577 0.0
N1867 N 0.30818 0.62864 0.24533 0.0
C1868 C 0.33311 0.63336 0.23907 0.0
C1869 C 0.33876 0.65386 0.22302 0.0
C1870 C 0.45599 0.3678 0.27629 0.0
C1871 C 0.4487 0.35915 0.2517 0.0
C1872 C 0.47562 0.35813 0.29105 0.0
C1873 C 0.4891 0.33928 0.28203 0.0
H1874 H 0.447 0.38281 0.28393 0.0
H1875 H 0.48061 0.36604 0.30968 0.0
S1876 S 0.4763 0.30895 0.21925 0.0
N1877 N 0.45566 0.3296 0.21923 0.0
N1878 N 0.4925 0.31147 0.24704 0.0
C1879 C 0.48129 0.32971 0.25777 0.0
C1880 C 0.46121 0.33964 0.24263 0.0
C1881 C 0.76666 0.43894 0.24808 0.0
C1882 C 0.74335 0.43913 0.23313 0.0
C1883 C 0.77761 0.4599 0.26265 0.0
C1884 C 0.76531 0.48149 0.2628 0.0
H1885 H 0.77525 0.42188 0.25012 0.0
H1886 H 0.7944 0.45833 0.27546 0.0
S1887 S 0.70663 0.49244 0.22293 0.0
N1888 N 0.71039 0.46336 0.21646 0.0
N1889 N 0.73095 0.50298 0.24353 0.0
C1890 C 0.74352 0.48262 0.24583 0.0
C1891 C 0.73245 0.4613 0.2311 0.0
C1892 C 0.59581 0.38315 0.86103 0.0
C1893 C 0.61341 0.38899 0.8428 0.0
C1894 C 0.57226 0.36781 0.85527 0.0
C1895 C 0.56543 0.35763 0.83106 0.0
H1896 H 0.60078 0.38968 0.88016 0.0
H1897 H 0.55989 0.36296 0.87025 0.0
S1898 S 0.60393 0.36912 0.77609 0.0
N1899 N 0.62178 0.38499 0.79919 0.0
N1900 N 0.57736 0.35615 0.78822 0.0
C1901 C 0.58207 0.36471 0.81223 0.0
C1902 C 0.60613 0.38039 0.81815 0.0
C1903 C 0.76758 0.66563 0.84311 0.0
C1904 C 0.75511 0.66561 0.86549 0.0
C1905 C 0.774 0.64359 0.83249 0.0
C1906 C 0.76827 0.62046 0.8438 0.0
H1907 H 0.77225 0.68288 0.83356 0.0
H1908 H 0.78279 0.64463 0.81486 0.0
S1909 S 0.7388 0.61053 0.90424 0.0
N1910 N 0.73978 0.64067 0.8999 0.0
N1911 N 0.75113 0.59929 0.87976 0.0
C1912 C 0.75672 0.62031 0.8667 0.0
C1913 C 0.75045 0.64281 0.87763 0.0
C1914 C 0.45333 0.73006 0.8799 0.0
C1915 C 0.44372 0.70982 0.86381 0.0
C1916 C 0.47267 0.7485 0.87297 0.0
C1917 C 0.48304 0.7476 0.84955 0.0
H1918 H 0.44572 0.73175 0.89795 0.0
H1919 H 0.47936 0.76371 0.88614 0.0
S1920 S 0.46352 0.69861 0.80032 0.0
N1921 N 0.44529 0.68996 0.82332 0.0
N1922 N 0.48177 0.72469 0.81012 0.0
C1923 C 0.47348 0.72741 0.83322 0.0
C1924 C 0.45372 0.70857 0.84035 0.0
C1925 C 0.29551 0.42084 0.85634 0.0
C1926 C 0.30473 0.42267 0.88169 0.0
C1927 C 0.2837 0.44009 0.84482 0.0
C1928 C 0.28069 0.46192 0.85821 0.0
H1929 H 0.29676 0.40412 0.84552 0.0
H1930 H 0.27632 0.43762 0.82544 0.0
S1931 S 0.30483 0.47711 0.92418 0.0
N1932 N 0.3121 0.44886 0.91923 0.0
N1933 N 0.29036 0.48504 0.89763 0.0
C1934 C 0.29077 0.4643 0.88333 0.0
C1935 C 0.30268 0.44471 0.89502 0.0
C1936 C 0.68941 0.61118 0.24671 0.0
C1937 C 0.68446 0.63452 0.2554 0.0
C1938 C 0.69643 0.59299 0.26328 0.0
C1939 C 0.69857 0.59722 0.28932 0.0
H1940 H 0.68765 0.60683 0.22687 0.0
H1941 H 0.69984 0.57529 0.25559 0.0
S1942 S 0.68736 0.65534 0.3217 0.0
N1943 N 0.68147 0.6607 0.29179 0.0
N1944 N 0.69555 0.627 0.32292 0.0
C1945 C 0.69354 0.62051 0.29829 0.0
C1946 C 0.68621 0.63898 0.28136 0.0
C1947 C 0.71121 0.45738 0.82197 0.0
C1948 C 0.68763 0.45632 0.83324 0.0
C1949 C 0.72151 0.47888 0.81001 0.0
C1950 C 0.70869 0.50018 0.80899 0.0
H1951 H 0.72159 0.44134 0.8221 0.0
H1952 H 0.73956 0.47875 0.80129 0.0
S1953 S 0.6476 0.50756 0.83795 0.0
N1954 N 0.65247 0.47873 0.84393 0.0
N1955 N 0.67199 0.51925 0.82194 0.0
C1956 C 0.68531 0.49945 0.82065 0.0
C1957 C 0.67478 0.47752 0.83267 0.0
C1958 C 0.66117 0.75688 0.86913 0.0
C1959 C 0.66252 0.74675 0.89315 0.0
C1960 C 0.64006 0.76925 0.86046 0.0
C1961 C 0.61962 0.77211 0.87555 0.0
H1962 H 0.67691 0.75593 0.85726 0.0
H1963 H 0.6401 0.77732 0.84216 0.0
S1964 S 0.61166 0.74562 0.93812 0.0
N1965 N 0.63973 0.73794 0.93052 0.0
N1966 N 0.60075 0.76144 0.91447 0.0
C1967 C 0.62019 0.76111 0.89906 0.0
C1968 C 0.64141 0.74838 0.90776 0.0
C1969 C 0.31279 0.62 0.82335 0.0
C1970 C 0.33585 0.62305 0.83908 0.0
C1971 C 0.304 0.59731 0.81081 0.0
C1972 C 0.31769 0.57668 0.81396 0.0
H1973 H 0.30127 0.63515 0.82105 0.0
H1974 H 0.28563 0.59565 0.79956 0.0
S1975 S 0.38003 0.57581 0.85217 0.0
N1976 N 0.37302 0.60432 0.85618 0.0
N1977 N 0.35622 0.56136 0.83305 0.0
C1978 C 0.34126 0.57983 0.82904 0.0
C1979 C 0.35041 0.6031 0.84149 0.0
C1980 C 0.3911 0.30651 0.87093 0.0
C1981 C 0.38864 0.33188 0.86828 0.0
C1982 C 0.41389 0.29696 0.86539 0.0
C1983 C 0.43522 0.31231 0.85677 0.0
H1984 H 0.37503 0.29377 0.87685 0.0
H1985 H 0.41447 0.27721 0.86718 0.0
S1986 S 0.43922 0.38044 0.84809 0.0
N1987 N 0.40978 0.37234 0.85726 0.0
N1988 N 0.45278 0.35464 0.84732 0.0
C1989 C 0.43323 0.33786 0.8546 0.0
C1990 C 0.40996 0.34756 0.86023 0.0
C1991 C 0.36444 0.45688 0.24105 0.0
C1992 C 0.34621 0.43579 0.23458 0.0
C1993 C 0.35669 0.47944 0.24889 0.0
C1994 C 0.33028 0.48228 0.25065 0.0
H1995 H 0.385 0.45601 0.24006 0.0
H1996 H 0.37176 0.49479 0.25408 0.0
S1997 S 0.27453 0.4328 0.23659 0.0
N1998 N 0.30017 0.41928 0.23095 0.0
N1999 N 0.28583 0.46174 0.24539 0.0
C2000 C 0.31172 0.46156 0.24384 0.0
C2001 C 0.31961 0.4384 0.23594 0.0
C2002 C 0.64654 0.36507 0.24079 0.0
C2003 C 0.67233 0.37311 0.25021 0.0
C2004 C 0.6267 0.35901 0.25697 0.0
C2005 C 0.63192 0.361 0.2831 0.0
H2006 H 0.64148 0.3643 0.22084 0.0
H2007 H 0.607 0.35344 0.24901 0.0
S2008 S 0.69678 0.37751 0.31713 0.0
N2009 N 0.70238 0.37994 0.2874 0.0
N2010 N 0.66515 0.36906 0.31751 0.0
C2011 C 0.65777 0.36795 0.29268 0.0
C2012 C 0.67793 0.37383 0.27632 0.0
C2013 C 0.41579 0.7635 0.22378 0.0
C2014 C 0.42122 0.74131 0.21274 0.0
C2015 C 0.43358 0.77663 0.24187 0.0
C2016 C 0.45716 0.76786 0.24916 0.0
H2017 H 0.39685 0.76948 0.22006 0.0
H2018 H 0.42789 0.79234 0.25171 0.0
S2019 S 0.48195 0.71298 0.22303 0.0
N2020 N 0.45298 0.71297 0.20811 0.0
N2021 N 0.4863 0.73757 0.24209 0.0
C2022 C 0.46371 0.74707 0.23657 0.0
C2023 C 0.44573 0.73379 0.21829 0.0
loop_
_geom_bond_atom_site_label_1
_geom_bond_atom_site_label_2
_geom_bond_distance
_geom_bond_site_symmetry_2
_ccdc_geom_bond_type
H0 C7 0.929 . S
H1 C10 0.930 . S
H2 C12 0.929 . S
H3 C4 0.969 . S
C4 H3 0.969 . S
C4 O5 1.550 . S
C4 H6 0.973 . S
O5 C4 1.550 . S
O5 C11 1.412 . S
H6 C4 0.973 . S
C7 H0 0.929 . S
C7 C8 1.400 . S
C7 C9 1.364 . S
C8 C7 1.400 . S
C8 C12 1.377 . S
C9 C7 1.364 . S
C9 C10 1.374 . S
C10 H1 0.930 . S
C10 C9 1.374 . S
C10 C11 1.383 . S
C11 O5 1.412 . S
C11 C10 1.383 . S
C11 C12 1.394 . S
C12 H2 0.929 . S
C12 C8 1.377 . S
C12 C11 1.394 . S
H13 C20 0.929 . S
H14 C23 0.930 . S
H15 C25 0.929 . S
H16 C17 0.969 . S
C17 H16 0.969 . S
C17 O18 1.550 . S
C17 H19 0.973 . S
O18 C17 1.550 . S
O18 C24 1.412 . S
H19 C17 0.973 . S
C20 H13 0.929 . S
C20 C21 1.400 . S
C20 C22 1.364 . S
C21 C20 1.400 . S
C21 C25 1.377 . S
C22 C20 1.364 . S
C22 C23 1.374 . S
C23 H14 0.930 . S
C23 C22 1.374 . S
C23 C24 1.383 . S
C24 O18 1.412 . S
C24 C23 1.383 . S
C24 C25 1.394 . S
C25 H15 0.929 . S
C25 C21 1.377 . S
C25 C24 1.394 . S
H26 C33 0.929 . S
H27 C36 0.930 . S
H28 C38 0.929 . S
H29 C30 0.969 . S
C30 H29 0.969 . S
C30 O31 1.550 . S
C30 H32 0.973 . S
O31 C30 1.550 . S
O31 C37 1.412 . S
H32 C30 0.973 . S
C33 H26 0.929 . S
C33 C34 1.400 . S
C33 C35 1.364 . S
C34 C33 1.400 . S
C34 C38 1.377 . S
C35 C33 1.364 . S
C35 C36 1.374 . S
C36 H27 0.930 . S
C36 C35 1.374 . S
C36 C37 1.383 . S
C37 O31 1.412 . S
C37 C36 1.383 . S
C37 C38 1.394 . S
C38 H28 0.929 . S
C38 C34 1.377 . S
C38 C37 1.394 . S
H39 C46 0.929 . S
H40 C49 0.930 . S
H41 C51 0.929 . S
H42 C43 0.969 . S
C43 H42 0.969 . S
C43 O44 1.550 . S
C43 H45 0.973 . S
O44 C43 1.550 . S
O44 C50 1.412 . S
H45 C43 0.973 . S
C46 H39 0.929 . S
C46 C47 1.400 . S
C46 C48 1.364 . S
C47 C46 1.400 . S
C47 C51 1.377 . S
C48 C46 1.364 . S
C48 C49 1.374 . S
C49 H40 0.930 . S
C49 C48 1.374 . S
C49 C50 1.383 . S
C50 O44 1.412 . S
C50 C49 1.383 . S
C50 C51 1.394 . S
C51 H41 0.929 . S
C51 C47 1.377 . S
C51 C50 1.394 . S
H52 C59 0.929 . S
H53 C62 0.930 . S
H54 C64 0.929 . S
H55 C56 0.969 . S
C56 H55 0.969 . S
C56 O57 1.550 . S
C56 H58 0.973 . S
O57 C56 1.550 . S
O57 C63 1.412 . S
H58 C56 0.973 . S
C59 H52 0.929 . S
C59 C60 1.400 . S
C59 C61 1.364 . S
C60 C59 1.400 . S
C60 C64 1.377 . S
C61 C59 1.364 . S
C61 C62 1.374 . S
C62 H53 0.930 . S
C62 C61 1.374 . S
C62 C63 1.383 . S
C63 O57 1.412 . S
C63 C62 1.383 . S
C63 C64 1.394 . S
C64 H54 0.929 . S
C64 C60 1.377 . S
C64 C63 1.394 . S
H65 C72 0.929 . S
H66 C75 0.930 . S
H67 C77 0.929 . S
H68 C69 0.969 . S
C69 H68 0.969 . S
C69 O70 1.550 . S
C69 H71 0.973 . S
O70 C69 1.550 . S
O70 C76 1.412 . S
H71 C69 0.973 . S
C72 H65 0.929 . S
C72 C73 1.400 . S
C72 C74 1.364 . S
C73 C72 1.400 . S
C73 C77 1.377 . S
C74 C72 1.364 . S
C74 C75 1.374 . S
C75 H66 0.930 . S
C75 C74 1.374 . S
C75 C76 1.383 . S
C76 O70 1.412 . S
C76 C75 1.383 . S
C76 C77 1.394 . S
C77 H67 0.929 . S
C77 C73 1.377 . S
C77 C76 1.394 . S
H78 C85 0.929 . S
H79 C88 0.930 . S
H80 C90 0.929 . S
H81 C82 0.969 . S
C82 H81 0.969 . S
C82 O83 1.550 . S
C82 H84 0.973 . S
O83 C82 1.550 . S
O83 C89 1.412 . S
H84 C82 0.973 . S
C85 H78 0.929 . S
C85 C86 1.400 . S
C85 C87 1.364 . S
C86 C85 1.400 . S
C86 C90 1.377 . S
C87 C85 1.364 . S
C87 C88 1.374 . S
C88 H79 0.930 . S
C88 C87 1.374 . S
C88 C89 1.383 . S
C89 O83 1.412 . S
C89 C88 1.383 . S
C89 C90 1.394 . S
C90 H80 0.929 . S
C90 C86 1.377 . S
C90 C89 1.394 . S
H91 C98 0.929 . S
H92 C101 0.930 . S
H93 C103 0.929 . S
H94 C95 0.969 . S
C95 H94 0.969 . S
C95 O96 1.550 . S
C95 H97 0.973 . S
O96 C95 1.550 . S
O96 C102 1.412 . S
H97 C95 0.973 . S
C98 H91 0.929 . S
C98 C99 1.400 . S
C98 C100 1.364 . S
C99 C98 1.400 . S
C99 C103 1.377 . S
C100 C98 1.364 . S
C100 C101 1.374 . S
C101 H92 0.930 . S
C101 C100 1.374 . S
C101 C102 1.383 . S
C102 O96 1.412 . S
C102 C101 1.383 . S
C102 C103 1.394 . S
C103 H93 0.929 . S
C103 C99 1.377 . S
C103 C102 1.394 . S
H104 C111 0.929 . S
H105 C114 0.930 . S
H106 C116 0.929 . S
H107 C108 0.969 . S
C108 H107 0.969 . S
C108 O109 1.550 . S
C108 H110 0.973 . S
O109 C108 1.550 . S
O109 C115 1.412 . S
H110 C108 0.973 . S
C111 H104 0.929 . S
C111 C112 1.400 . S
C111 C113 1.364 . S
C112 C111 1.400 . S
C112 C116 1.377 . S
C113 C111 1.364 . S
C113 C114 1.374 . S
C114 H105 0.930 . S
C114 C113 1.374 . S
C114 C115 1.383 . S
C115 O109 1.412 . S
C115 C114 1.383 . S
C115 C116 1.394 . S
C116 H106 0.929 . S
C116 C112 1.377 . S
C116 C115 1.394 . S
H117 C124 0.929 . S
H118 C127 0.930 . S
H119 C129 0.929 . S
H120 C121 0.969 . S
C121 H120 0.969 . S
C121 O122 1.550 . S
C121 H123 0.973 . S
O122 C121 1.550 . S
O122 C128 1.412 . S
H123 C121 0.973 . S
C124 H117 0.929 . S
C124 C125 1.400 . S
C124 C126 1.364 . S
C125 C124 1.400 . S
C125 C129 1.377 . S
C126 C124 1.364 . S
C126 C127 1.374 . S
C127 H118 0.930 . S
C127 C126 1.374 . S
C127 C128 1.383 . S
C128 O122 1.412 . S
C128 C127 1.383 . S
C128 C129 1.394 . S
C129 H119 0.929 . S
C129 C125 1.377 . S
C129 C128 1.394 . S
H130 C137 0.929 . S
H131 C140 0.930 . S
H132 C142 0.929 . S
H133 C134 0.969 . S
C134 H133 0.969 . S
C134 O135 1.550 . S
C134 H136 0.973 . S
O135 C134 1.550 . S
O135 C141 1.412 . S
H136 C134 0.973 . S
C137 H130 0.929 . S
C137 C138 1.400 . S
C137 C139 1.364 . S
C138 C137 1.400 . S
C138 C142 1.377 . S
C139 C137 1.364 . S
C139 C140 1.374 . S
C140 H131 0.930 . S
C140 C139 1.374 . S
C140 C141 1.383 . S
C141 O135 1.412 . S
C141 C140 1.383 . S
C141 C142 1.394 . S
C142 H132 0.929 . S
C142 C138 1.377 . S
C142 C141 1.394 . S
H143 C150 0.929 . S
H144 C153 0.930 . S
H145 C155 0.929 . S
H146 C147 0.969 . S
C147 H146 0.969 . S
C147 O148 1.550 . S
C147 H149 0.973 . S
O148 C147 1.550 . S
O148 C154 1.412 . S
H149 C147 0.973 . S
C150 H143 0.929 . S
C150 C151 1.400 . S
C150 C152 1.364 . S
C151 C150 1.400 . S
C151 C155 1.377 . S
C152 C150 1.364 . S
C152 C153 1.374 . S
C153 H144 0.930 . S
C153 C152 1.374 . S
C153 C154 1.383 . S
C154 O148 1.412 . S
C154 C153 1.383 . S
C154 C155 1.394 . S
C155 H145 0.929 . S
C155 C151 1.377 . S
C155 C154 1.394 . S
H156 C163 0.929 . S
H157 C166 0.930 . S
H158 C168 0.929 . S
H159 C160 0.969 . S
C160 H159 0.969 . S
C160 O161 1.550 . S
C160 H162 0.973 . S
O161 C160 1.550 . S
O161 C167 1.412 . S
H162 C160 0.973 . S
C163 H156 0.929 . S
C163 C164 1.400 . S
C163 C165 1.364 . S
C164 C163 1.400 . S
C164 C168 1.377 . S
C165 C163 1.364 . S
C165 C166 1.374 . S
C166 H157 0.930 . S
C166 C165 1.374 . S
C166 C167 1.383 . S
C167 O161 1.412 . S
C167 C166 1.383 . S
C167 C168 1.394 . S
C168 H158 0.929 . S
C168 C164 1.377 . S
C168 C167 1.394 . S
H169 C176 0.929 . S
H170 C179 0.930 . S
H171 C181 0.929 . S
H172 C173 0.969 . S
C173 H172 0.969 . S
C173 O174 1.550 . S
C173 H175 0.973 . S
O174 C173 1.550 . S
O174 C180 1.412 . S
H175 C173 0.973 . S
C176 H169 0.929 . S
C176 C177 1.400 . S
C176 C178 1.364 . S
C177 C176 1.400 . S
C177 C181 1.377 . S
C178 C176 1.364 . S
C178 C179 1.374 . S
C179 H170 0.930 . S
C179 C178 1.374 . S
C179 C180 1.383 . S
C180 O174 1.412 . S
C180 C179 1.383 . S
C180 C181 1.394 . S
C181 H171 0.929 . S
C181 C177 1.377 . S
C181 C180 1.394 . S
H182 C189 0.929 . S
H183 C192 0.930 . S
H184 C194 0.929 . S
H185 C186 0.969 . S
C186 H185 0.969 . S
C186 O187 1.550 . S
C186 H188 0.973 . S
O187 C186 1.550 . S
O187 C193 1.412 . S
H188 C186 0.973 . S
C189 H182 0.929 . S
C189 C190 1.400 . S
C189 C191 1.364 . S
C190 C189 1.400 . S
C190 C194 1.377 . S
C191 C189 1.364 . S
C191 C192 1.374 . S
C192 H183 0.930 . S
C192 C191 1.374 . S
C192 C193 1.383 . S
C193 O187 1.412 . S
C193 C192 1.383 . S
C193 C194 1.394 . S
C194 H184 0.929 . S
C194 C190 1.377 . S
C194 C193 1.394 . S
H195 C202 0.929 . S
H196 C205 0.930 . S
H197 C207 0.929 . S
H198 C199 0.969 . S
C199 H198 0.969 . S
C199 O200 1.550 . S
C199 H201 0.973 . S
O200 C199 1.550 . S
O200 C206 1.412 . S
H201 C199 0.973 . S
C202 H195 0.929 . S
C202 C203 1.400 . S
C202 C204 1.364 . S
C203 C202 1.400 . S
C203 C207 1.377 . S
C204 C202 1.364 . S
C204 C205 1.374 . S
C205 H196 0.930 . S
C205 C204 1.374 . S
C205 C206 1.383 . S
C206 O200 1.412 . S
C206 C205 1.383 . S
C206 C207 1.394 . S
C207 H197 0.929 . S
C207 C203 1.377 . S
C207 C206 1.394 . S
H208 C215 0.929 . S
H209 C218 0.930 . S
H210 C220 0.929 . S
H211 C212 0.969 . S
C212 H211 0.969 . S
C212 O213 1.550 . S
C212 H214 0.973 . S
O213 C212 1.550 . S
O213 C219 1.412 . S
H214 C212 0.973 . S
C215 H208 0.929 . S
C215 C216 1.400 . S
C215 C217 1.364 . S
C216 C215 1.400 . S
C216 C220 1.377 . S
C217 C215 1.364 . S
C217 C218 1.374 . S
C218 H209 0.930 . S
C218 C217 1.374 . S
C218 C219 1.383 . S
C219 O213 1.412 . S
C219 C218 1.383 . S
C219 C220 1.394 . S
C220 H210 0.929 . S
C220 C216 1.377 . S
C220 C219 1.394 . S
H221 C228 0.929 . S
H222 C231 0.930 . S
H223 C233 0.929 . S
H224 C225 0.969 . S
C225 H224 0.969 . S
C225 O226 1.550 . S
C225 H227 0.973 . S
O226 C225 1.550 . S
O226 C232 1.412 . S
H227 C225 0.973 . S
C228 H221 0.929 . S
C228 C229 1.400 . S
C228 C230 1.364 . S
C229 C228 1.400 . S
C229 C233 1.377 . S
C230 C228 1.364 . S
C230 C231 1.374 . S
C231 H222 0.930 . S
C231 C230 1.374 . S
C231 C232 1.383 . S
C232 O226 1.412 . S
C232 C231 1.383 . S
C232 C233 1.394 . S
C233 H223 0.929 . S
C233 C229 1.377 . S
C233 C232 1.394 . S
H234 C241 0.929 . S
H235 C244 0.930 . S
H236 C246 0.929 . S
H237 C238 0.969 . S
C238 H237 0.969 . S
C238 O239 1.550 . S
C238 H240 0.973 . S
O239 C238 1.550 . S
O239 C245 1.412 . S
H240 C238 0.973 . S
C241 H234 0.929 . S
C241 C242 1.400 . S
C241 C243 1.364 . S
C242 C241 1.400 . S
C242 C246 1.377 . S
C243 C241 1.364 . S
C243 C244 1.374 . S
C244 H235 0.930 . S
C244 C243 1.374 . S
C244 C245 1.383 . S
C245 O239 1.412 . S
C245 C244 1.383 . S
C245 C246 1.394 . S
C246 H236 0.929 . S
C246 C242 1.377 . S
C246 C245 1.394 . S
H247 C254 0.929 . S
H248 C257 0.930 . S
H249 C259 0.929 . S
H250 C251 0.969 . S
C251 H250 0.969 . S
C251 O252 1.550 . S
C251 H253 0.973 . S
O252 C251 1.550 . S
O252 C258 1.412 . S
H253 C251 0.973 . S
C254 H247 0.929 . S
C254 C255 1.400 . S
C254 C256 1.364 . S
C255 C254 1.400 . S
C255 C259 1.377 . S
C256 C254 1.364 . S
C256 C257 1.374 . S
C257 H248 0.930 . S
C257 C256 1.374 . S
C257 C258 1.383 . S
C258 O252 1.412 . S
C258 C257 1.383 . S
C258 C259 1.394 . S
C259 H249 0.929 . S
C259 C255 1.377 . S
C259 C258 1.394 . S
H260 C267 0.929 . S
H261 C270 0.930 . S
H262 C272 0.929 . S
H263 C264 0.969 . S
C264 H263 0.969 . S
C264 O265 1.550 . S
C264 H266 0.973 . S
O265 C264 1.550 . S
O265 C271 1.412 . S
H266 C264 0.973 . S
C267 H260 0.929 . S
C267 C268 1.400 . S
C267 C269 1.364 . S
C268 C267 1.400 . S
C268 C272 1.377 . S
C269 C267 1.364 . S
C269 C270 1.374 . S
C270 H261 0.930 . S
C270 C269 1.374 . S
C270 C271 1.383 . S
C271 O265 1.412 . S
C271 C270 1.383 . S
C271 C272 1.394 . S
C272 H262 0.929 . S
C272 C268 1.377 . S
C272 C271 1.394 . S
H273 C280 0.929 . S
H274 C283 0.930 . S
H275 C285 0.929 . S
H276 C277 0.969 . S
C277 H276 0.969 . S
C277 O278 1.550 . S
C277 H279 0.973 . S
O278 C277 1.550 . S
O278 C284 1.412 . S
H279 C277 0.973 . S
C280 H273 0.929 . S
C280 C281 1.400 . S
C280 C282 1.364 . S
C281 C280 1.400 . S
C281 C285 1.377 . S
C282 C280 1.364 . S
C282 C283 1.374 . S
C283 H274 0.930 . S
C283 C282 1.374 . S
C283 C284 1.383 . S
C284 O278 1.412 . S
C284 C283 1.383 . S
C284 C285 1.394 . S
C285 H275 0.929 . S
C285 C281 1.377 . S
C285 C284 1.394 . S
H286 C293 0.929 . S
H287 C296 0.930 . S
H288 C298 0.929 . S
H289 C290 0.969 . S
C290 H289 0.969 . S
C290 O291 1.550 . S
C290 H292 0.973 . S
O291 C290 1.550 . S
O291 C297 1.412 . S
H292 C290 0.973 . S
C293 H286 0.929 . S
C293 C294 1.400 . S
C293 C295 1.364 . S
C294 C293 1.400 . S
C294 C298 1.377 . S
C295 C293 1.364 . S
C295 C296 1.374 . S
C296 H287 0.930 . S
C296 C295 1.374 . S
C296 C297 1.383 . S
C297 O291 1.412 . S
C297 C296 1.383 . S
C297 C298 1.394 . S
C298 H288 0.929 . S
C298 C294 1.377 . S
C298 C297 1.394 . S
H299 C306 0.929 . S
H300 C309 0.930 . S
H301 C311 0.929 . S
H302 C303 0.969 . S
C303 H302 0.969 . S
C303 O304 1.550 . S
C303 H305 0.973 . S
O304 C303 1.550 . S
O304 C310 1.412 . S
H305 C303 0.973 . S
C306 H299 0.929 . S
C306 C307 1.400 . S
C306 C308 1.364 . S
C307 C306 1.400 . S
C307 C311 1.377 . S
C308 C306 1.364 . S
C308 C309 1.374 . S
C309 H300 0.930 . S
C309 C308 1.374 . S
C309 C310 1.383 . S
C310 O304 1.412 . S
C310 C309 1.383 . S
C310 C311 1.394 . S
C311 H301 0.929 . S
C311 C307 1.377 . S
C311 C310 1.394 . S
H312 C319 0.929 . S
H313 C322 0.930 . S
H314 C324 0.929 . S
H315 C316 0.969 . S
C316 H315 0.969 . S
C316 O317 1.550 . S
C316 H318 0.973 . S
O317 C316 1.550 . S
O317 C323 1.412 . S
H318 C316 0.973 . S
C319 H312 0.929 . S
C319 C320 1.400 . S
C319 C321 1.364 . S
C320 C319 1.400 . S
C320 C324 1.377 . S
C321 C319 1.364 . S
C321 C322 1.374 . S
C322 H313 0.930 . S
C322 C321 1.374 . S
C322 C323 1.383 . S
C323 O317 1.412 . S
C323 C322 1.383 . S
C323 C324 1.394 . S
C324 H314 0.929 . S
C324 C320 1.377 . S
C324 C323 1.394 . S
H325 C332 0.929 . S
H326 C335 0.930 . S
H327 C337 0.929 . S
H328 C329 0.969 . S
C329 H328 0.969 . S
C329 O330 1.550 . S
C329 H331 0.973 . S
O330 C329 1.550 . S
O330 C336 1.412 . S
H331 C329 0.973 . S
C332 H325 0.929 . S
C332 C333 1.400 . S
C332 C334 1.364 . S
C333 C332 1.400 . S
C333 C337 1.377 . S
C334 C332 1.364 . S
C334 C335 1.374 . S
C335 H326 0.930 . S
C335 C334 1.374 . S
C335 C336 1.383 . S
C336 O330 1.412 . S
C336 C335 1.383 . S
C336 C337 1.394 . S
C337 H327 0.929 . S
C337 C333 1.377 . S
C337 C336 1.394 . S
H338 C345 0.929 . S
H339 C348 0.930 . S
H340 C350 0.929 . S
H341 C342 0.969 . S
C342 H341 0.969 . S
C342 O343 1.550 . S
C342 H344 0.973 . S
O343 C342 1.550 . S
O343 C349 1.412 . S
H344 C342 0.973 . S
C345 H338 0.929 . S
C345 C346 1.400 . S
C345 C347 1.364 . S
C346 C345 1.400 . S
C346 C350 1.377 . S
C347 C345 1.364 . S
C347 C348 1.374 . S
C348 H339 0.930 . S
C348 C347 1.374 . S
C348 C349 1.383 . S
C349 O343 1.412 . S
C349 C348 1.383 . S
C349 C350 1.394 . S
C350 H340 0.929 . S
C350 C346 1.377 . S
C350 C349 1.394 . S
H351 C358 0.929 . S
H352 C361 0.930 . S
H353 C363 0.929 . S
H354 C355 0.969 . S
C355 H354 0.969 . S
C355 O356 1.550 . S
C355 H357 0.973 . S
O356 C355 1.550 . S
O356 C362 1.412 . S
H357 C355 0.973 . S
C358 H351 0.929 . S
C358 C359 1.400 . S
C358 C360 1.364 . S
C359 C358 1.400 . S
C359 C363 1.377 . S
C360 C358 1.364 . S
C360 C361 1.374 . S
C361 H352 0.930 . S
C361 C360 1.374 . S
C361 C362 1.383 . S
C362 O356 1.412 . S
C362 C361 1.383 . S
C362 C363 1.394 . S
C363 H353 0.929 . S
C363 C359 1.377 . S
C363 C362 1.394 . S
H364 C371 0.929 . S
H365 C374 0.930 . S
H366 C376 0.929 . S
H367 C368 0.969 . S
C368 H367 0.969 . S
C368 O369 1.550 . S
C368 H370 0.973 . S
O369 C368 1.550 . S
O369 C375 1.412 . S
H370 C368 0.973 . S
C371 H364 0.929 . S
C371 C372 1.400 . S
C371 C373 1.364 . S
C372 C371 1.400 . S
C372 C376 1.377 . S
C373 C371 1.364 . S
C373 C374 1.374 . S
C374 H365 0.930 . S
C374 C373 1.374 . S
C374 C375 1.383 . S
C375 O369 1.412 . S
C375 C374 1.383 . S
C375 C376 1.394 . S
C376 H366 0.929 . S
C376 C372 1.377 . S
C376 C375 1.394 . S
H377 C384 0.929 . S
H378 C387 0.930 . S
H379 C389 0.929 . S
H380 C381 0.969 . S
C381 H380 0.969 . S
C381 O382 1.550 . S
C381 H383 0.973 . S
O382 C381 1.550 . S
O382 C388 1.412 . S
H383 C381 0.973 . S
C384 H377 0.929 . S
C384 C385 1.400 . S
C384 C386 1.364 . S
C385 C384 1.400 . S
C385 C389 1.377 . S
C386 C384 1.364 . S
C386 C387 1.374 . S
C387 H378 0.930 . S
C387 C386 1.374 . S
C387 C388 1.383 . S
C388 O382 1.412 . S
C388 C387 1.383 . S
C388 C389 1.394 . S
C389 H379 0.929 . S
C389 C385 1.377 . S
C389 C388 1.394 . S
H390 C397 0.929 . S
H391 C400 0.930 . S
H392 C402 0.929 . S
H393 C394 0.969 . S
C394 H393 0.969 . S
C394 O395 1.550 . S
C394 H396 0.973 . S
O395 C394 1.550 . S
O395 C401 1.412 . S
H396 C394 0.973 . S
C397 H390 0.929 . S
C397 C398 1.400 . S
C397 C399 1.364 . S
C398 C397 1.400 . S
C398 C402 1.377 . S
C399 C397 1.364 . S
C399 C400 1.374 . S
C400 H391 0.930 . S
C400 C399 1.374 . S
C400 C401 1.383 . S
C401 O395 1.412 . S
C401 C400 1.383 . S
C401 C402 1.394 . S
C402 H392 0.929 . S
C402 C398 1.377 . S
C402 C401 1.394 . S
H403 C410 0.929 . S
H404 C413 0.930 . S
H405 C415 0.929 . S
H406 C407 0.969 . S
C407 H406 0.969 . S
C407 O408 1.550 . S
C407 H409 0.973 . S
O408 C407 1.550 . S
O408 C414 1.412 . S
H409 C407 0.973 . S
C410 H403 0.929 . S
C410 C411 1.400 . S
C410 C412 1.364 . S
C411 C410 1.400 . S
C411 C415 1.377 . S
C412 C410 1.364 . S
C412 C413 1.374 . S
C413 H404 0.930 . S
C413 C412 1.374 . S
C413 C414 1.383 . S
C414 O408 1.412 . S
C414 C413 1.383 . S
C414 C415 1.394 . S
C415 H405 0.929 . S
C415 C411 1.377 . S
C415 C414 1.394 . S
Cu416 N417 1.999 . S
Cu416 O422 1.974 . S
Cu416 N427 1.985 . S
Cu416 O436 1.959 . S
N417 Cu416 1.999 . S
N417 C419 1.263 . S
N417 C421 1.389 . S
N418 C419 1.358 . S
N418 C420 1.400 . S
C419 N417 1.263 . S
C419 N418 1.358 . S
C419 H425 0.930 . S
C420 N418 1.400 . S
C420 C421 1.351 . S
C420 H437 0.930 . S
C421 N417 1.389 . S
C421 C420 1.351 . S
C421 H426 0.930 . S
O422 Cu416 1.974 . S
O422 C432 1.282 . S
C423 O424 1.261 . S
C423 O436 1.251 . S
O424 C423 1.261 . S
H425 C419 0.930 . S
H426 C421 0.930 . S
N427 Cu416 1.985 . S
N427 C429 1.335 . S
N427 C430 1.390 . S
N428 C429 1.345 . S
N428 C431 1.336 . S
C429 N427 1.335 . S
C429 N428 1.345 . S
C429 H434 0.930 . S
C430 N427 1.390 . S
C430 C431 1.346 . S
C430 H435 0.930 . S
C431 N428 1.336 . S
C431 C430 1.346 . S
C431 H438 0.929 . S
C432 O422 1.282 . S
C432 O433 1.216 . S
O433 C432 1.216 . S
H434 C429 0.930 . S
H435 C430 0.930 . S
O436 Cu416 1.959 . S
O436 C423 1.251 . S
H437 C420 0.930 . S
H438 C431 0.929 . S
Cu439 N440 1.999 . S
Cu439 O445 1.974 . S
Cu439 N450 1.985 1_554 S
Cu439 O459 1.959 1_554 S
N440 Cu439 1.999 . S
N440 C442 1.263 . S
N440 C444 1.389 . S
N441 C442 1.358 . S
N441 C443 1.400 . S
C442 N440 1.263 . S
C442 N441 1.358 . S
C442 H448 0.930 . S
C443 N441 1.400 . S
C443 C444 1.351 . S
C443 H460 0.930 . S
C444 N440 1.389 . S
C444 C443 1.351 . S
C444 H449 0.930 . S
O445 Cu439 1.974 . S
O445 C455 1.282 . S
C446 O447 1.284 . S
C446 O459 1.251 . S
O447 C446 1.284 . S
H448 C442 0.930 . S
H449 C444 0.930 . S
N450 Cu439 1.985 1_556 S
N450 C452 1.335 . S
N450 C453 1.390 1_556 S
N451 C452 1.345 . S
N451 C454 1.336 . S
C452 N450 1.335 . S
C452 N451 1.345 . S
C452 H457 0.930 . S
C453 N450 1.390 1_554 S
C453 C454 1.346 1_554 S
C453 H458 0.930 . S
C454 N451 1.336 . S
C454 C453 1.346 1_556 S
C454 H461 0.929 . S
C455 O445 1.282 . S
C455 O456 1.216 . S
O456 C455 1.216 . S
H457 C452 0.930 . S
H458 C453 0.930 . S
O459 Cu439 1.959 1_556 S
O459 C446 1.251 . S
H460 C443 0.930 . S
H461 C454 0.929 . S
Cu462 N463 1.999 . S
Cu462 O468 1.974 . S
Cu462 N473 1.985 . S
Cu462 O482 1.959 . S
N463 Cu462 1.999 . S
N463 C465 1.263 1_554 S
N463 C467 1.389 . S
N464 C465 1.358 . S
N464 C466 1.400 1_556 S
C465 N463 1.263 1_556 S
C465 N464 1.358 . S
C465 H471 0.930 . S
C466 N464 1.400 1_554 S
C466 C467 1.351 . S
C466 H483 0.931 . S
C467 N463 1.389 . S
C467 C466 1.351 . S
C467 H472 0.930 . S
O468 Cu462 1.974 . S
O468 C478 1.282 1_554 S
C469 O470 1.261 . S
C469 O482 1.251 . S
O470 C469 1.261 . S
H471 C465 0.930 . S
H472 C467 0.930 . S
N473 Cu462 1.985 . S
N473 C475 1.335 . S
N473 C476 1.390 . S
N474 C475 1.345 . S
N474 C477 1.336 . S
C475 N473 1.335 . S
C475 N474 1.345 . S
C475 H480 0.930 . S
C476 N473 1.390 . S
C476 C477 1.346 . S
C476 H481 0.930 . S
C477 N474 1.336 . S
C477 C476 1.346 . S
C477 H484 0.929 . S
C478 O468 1.282 1_556 S
C478 O479 1.216 . S
O479 C478 1.216 . S
H480 C475 0.930 . S
H481 C476 0.930 . S
O482 Cu462 1.959 . S
O482 C469 1.251 . S
H483 C466 0.931 . S
H484 C477 0.929 . S
Cu485 N486 1.999 1_556 S
Cu485 O491 1.974 1_556 S
Cu485 N496 1.985 . S
Cu485 O505 1.959 . S
N486 Cu485 1.999 1_554 S
N486 C488 1.263 . S
N486 C490 1.389 . S
N487 C488 1.358 . S
N487 C489 1.400 . S
C488 N486 1.263 . S
C488 N487 1.358 . S
C488 H494 0.930 . S
C489 N487 1.400 . S
C489 C490 1.351 . S
C489 H506 0.930 . S
C490 N486 1.389 . S
C490 C489 1.351 . S
C490 H495 0.900 1_554 S
O491 Cu485 1.974 1_554 S
O491 C501 1.282 . S
C492 O493 1.261 . S
C492 O505 1.251 . S
O493 C492 1.261 . S
H494 C488 0.930 . S
H495 C490 0.900 1_556 S
N496 Cu485 1.985 . S
N496 C498 1.335 . S
N496 C499 1.390 . S
N497 C498 1.345 . S
N497 C500 1.336 . S
C498 N496 1.335 . S
C498 N497 1.345 . S
C498 H503 0.930 . S
C499 N496 1.390 . S
C499 C500 1.346 . S
C499 H504 0.946 . S
C500 N497 1.336 . S
C500 C499 1.346 . S
C500 H507 0.929 . S
C501 O491 1.282 . S
C501 O502 1.216 . S
O502 C501 1.216 . S
H503 C498 0.930 . S
H504 C499 0.946 . S
O505 Cu485 1.959 . S
O505 C492 1.251 . S
H506 C489 0.930 . S
H507 C500 0.929 . S
Cu508 N509 1.999 . S
Cu508 O514 1.974 . S
Cu508 N519 1.985 1_455 S
Cu508 O528 1.959 1_455 S
N509 Cu508 1.999 . S
N509 C511 1.263 . S
N509 C513 1.389 . S
N510 C511 1.358 . S
N510 C512 1.400 . S
C511 N509 1.263 . S
C511 N510 1.358 . S
C511 H517 0.930 . S
C512 N510 1.400 . S
C512 C513 1.351 . S
C512 H529 0.930 . S
C513 N509 1.389 . S
C513 C512 1.351 . S
C513 H518 0.930 . S
O514 Cu508 1.974 . S
O514 C524 1.282 . S
C515 O516 1.261 . S
C515 O528 1.251 . S
O516 C515 1.261 . S
H517 C511 0.930 . S
H518 C513 0.930 . S
N519 Cu508 1.985 1_655 S
N519 C521 1.335 . S
N519 C522 1.390 1_655 S
N520 C521 1.345 . S
N520 C523 1.336 . S
C521 N519 1.335 . S
C521 N520 1.345 . S
C521 H526 0.930 . S
C522 N519 1.390 1_455 S
C522 C523 1.346 1_455 S
C522 H527 0.930 . S
C523 N520 1.336 . S
C523 C522 1.346 1_655 S
C523 H530 0.929 . S
C524 O514 1.282 . S
C524 O525 1.216 . S
O525 C524 1.216 . S
H526 C521 0.930 . S
H527 C522 0.930 . S
O528 Cu508 1.959 1_655 S
O528 C515 1.251 . S
H529 C512 0.930 . S
H530 C523 0.929 . S
Cu531 N532 1.999 . S
Cu531 O537 1.974 . S
Cu531 N542 1.985 . S
Cu531 O551 1.959 . S
N532 Cu531 1.999 . S
N532 C534 1.263 . S
N532 C536 1.389 . S
N533 C534 1.358 . S
N533 C535 1.400 . S
C534 N532 1.263 . S
C534 N533 1.358 . S
C534 H540 0.930 . S
C535 N533 1.400 . S
C535 C536 1.351 . S
C535 H552 0.930 . S
C536 N532 1.389 . S
C536 C535 1.351 . S
C536 H541 0.930 . S
O537 Cu531 1.974 . S
O537 C547 1.282 . S
C538 O539 1.261 . S
C538 O551 1.251 . S
O539 C538 1.261 . S
H540 C534 0.930 . S
H541 C536 0.930 . S
N542 Cu531 1.985 . S
N542 C544 1.335 1_545 S
N542 C545 1.390 . S
N543 C544 1.345 . S
N543 C546 1.336 . S
C544 N542 1.335 1_565 S
C544 N543 1.345 . S
C544 H549 0.930 . S
C545 N542 1.390 . S
C545 C546 1.346 1_545 S
C545 H550 0.930 . S
C546 N543 1.336 . S
C546 C545 1.346 1_565 S
C546 H553 0.929 . S
C547 O537 1.282 . S
C547 O548 1.216 . S
O548 C547 1.216 . S
H549 C544 0.930 . S
H550 C545 0.930 . S
O551 Cu531 1.959 . S
O551 C538 1.251 . S
H552 C535 0.930 . S
H553 C546 0.929 . S
Cu554 N555 1.999 . S
Cu554 O560 1.974 . S
Cu554 N565 1.985 1_655 S
Cu554 O574 1.959 1_655 S
N555 Cu554 1.999 . S
N555 C557 1.263 . S
N555 C559 1.389 . S
N556 C557 1.358 . S
N556 C558 1.400 . S
C557 N555 1.263 . S
C557 N556 1.358 . S
C557 H563 0.930 . S
C558 N556 1.400 . S
C558 C559 1.351 . S
C558 H575 0.930 . S
C559 N555 1.389 . S
C559 C558 1.351 . S
C559 H564 0.930 . S
O560 Cu554 1.974 . S
O560 C570 1.282 . S
C561 O562 1.261 . S
C561 O574 1.251 . S
O562 C561 1.261 . S
H563 C557 0.930 . S
H564 C559 0.930 . S
N565 Cu554 1.985 1_455 S
N565 C567 1.335 . S
N565 C568 1.390 . S
N566 C567 1.345 . S
N566 C569 1.336 . S
C567 N565 1.335 . S
C567 N566 1.345 . S
C567 H572 0.930 . S
C568 N565 1.390 . S
C568 C569 1.346 . S
C568 H573 0.930 . S
C569 N566 1.336 . S
C569 C568 1.346 . S
C569 H576 0.929 . S
C570 O560 1.282 . S
C570 O571 1.216 . S
O571 C570 1.216 . S
H572 C567 0.930 . S
H573 C568 0.930 . S
O574 Cu554 1.959 1_455 S
O574 C561 1.251 . S
H575 C558 0.930 . S
H576 C569 0.929 . S
Cu577 N578 1.999 . S
Cu577 O583 1.974 . S
Cu577 N588 1.985 1_545 S
Cu577 O597 1.959 1_545 S
N578 Cu577 1.999 . S
N578 C580 1.263 . S
N578 C582 1.389 . S
N579 C580 1.358 . S
N579 C581 1.400 . S
C580 N578 1.263 . S
C580 N579 1.358 . S
C580 H586 0.930 . S
C581 N579 1.400 . S
C581 C582 1.351 . S
C581 H598 0.930 . S
C582 N578 1.389 . S
C582 C581 1.351 . S
C582 H587 0.930 . S
O583 Cu577 1.974 . S
O583 C593 1.282 . S
C584 O585 1.261 . S
C584 O597 1.251 . S
O585 C584 1.261 . S
H586 C580 0.930 . S
H587 C582 0.930 . S
N588 Cu577 1.985 1_565 S
N588 C590 1.335 . S
N588 C591 1.390 . S
N589 C590 1.345 . S
N589 C592 1.336 . S
C590 N588 1.335 . S
C590 N589 1.345 . S
C590 H595 0.930 . S
C591 N588 1.390 . S
C591 C592 1.346 . S
C591 H596 0.930 . S
C592 N589 1.336 . S
C592 C591 1.346 . S
C592 H599 0.929 . S
C593 O583 1.282 . S
C593 O594 1.216 . S
O594 C593 1.216 . S
H595 C590 0.930 . S
H596 C591 0.930 . S
O597 Cu577 1.959 1_565 S
O597 C584 1.251 . S
H598 C581 0.930 . S
H599 C592 0.929 . S
Cu600 N601 1.999 . S
Cu600 O606 1.974 . S
Cu600 N611 1.964 1_455 S
Cu600 O620 1.959 1_455 S
N601 Cu600 1.999 . S
N601 C603 1.263 . S
N601 C605 1.389 . S
N602 C603 1.358 . S
N602 C604 1.400 . S
C603 N601 1.263 . S
C603 N602 1.358 . S
C603 H609 0.930 . S
C604 N602 1.400 . S
C604 C605 1.351 . S
C604 H621 0.930 . S
C605 N601 1.389 . S
C605 C604 1.351 . S
C605 H610 0.930 . S
O606 Cu600 1.974 . S
O606 C616 1.282 . S
C607 O608 1.261 . S
C607 O620 1.251 . S
O608 C607 1.261 . S
H609 C603 0.930 . S
H610 C605 0.930 . S
N611 Cu600 1.964 1_655 S
N611 C613 1.365 . S
N611 C614 1.385 1_655 S
N612 C613 1.345 . S
N612 C615 1.336 . S
C613 N611 1.365 . S
C613 N612 1.345 . S
C613 H618 0.930 . S
C614 N611 1.385 1_455 S
C614 C615 1.346 1_455 S
C614 H619 0.930 . S
C615 N612 1.336 . S
C615 C614 1.346 1_655 S
C615 H622 0.929 . S
C616 O606 1.282 . S
C616 O617 1.216 . S
O617 C616 1.216 . S
H618 C613 0.930 . S
H619 C614 0.930 . S
O620 Cu600 1.959 1_655 S
O620 C607 1.251 . S
H621 C604 0.930 . S
H622 C615 0.929 . S
Cu623 N624 1.999 . S
Cu623 O629 1.974 . S
Cu623 N634 1.985 . S
Cu623 O643 1.959 . S
N624 Cu623 1.999 . S
N624 C626 1.263 . S
N624 C628 1.389 . S
N625 C626 1.358 . S
N625 C627 1.400 . S
C626 N624 1.263 . S
C626 N625 1.358 . S
C626 H632 0.930 . S
C627 N625 1.400 . S
C627 C628 1.351 . S
C627 H644 0.930 . S
C628 N624 1.389 . S
C628 C627 1.351 . S
C628 H633 0.930 . S
O629 Cu623 1.974 . S
O629 C639 1.282 . S
C630 O631 1.261 . S
C630 O643 1.251 . S
O631 C630 1.261 . S
H632 C626 0.930 . S
H633 C628 0.930 . S
N634 Cu623 1.985 . S
N634 C636 1.335 . S
N634 C637 1.390 . S
N635 C636 1.345 1_565 S
N635 C638 1.336 1_565 S
C636 N634 1.335 . S
C636 N635 1.345 1_545 S
C636 H641 0.930 1_545 S
C637 N634 1.390 . S
C637 C638 1.346 . S
C637 H642 0.930 . S
C638 N635 1.336 1_545 S
C638 C637 1.346 . S
C638 H645 0.929 . S
C639 O629 1.282 . S
C639 O640 1.216 . S
O640 C639 1.216 . S
H641 C636 0.930 1_565 S
H642 C637 0.930 . S
O643 Cu623 1.959 . S
O643 C630 1.251 . S
H644 C627 0.930 . S
H645 C638 0.929 . S
Cu646 N647 1.999 . S
Cu646 O652 1.979 . S
Cu646 N657 1.985 . S
Cu646 O666 1.959 . S
N647 Cu646 1.999 . S
N647 C649 1.263 1_455 S
N647 C651 1.389 . S
N648 C649 1.358 . S
N648 C650 1.400 . S
C649 N647 1.263 1_655 S
C649 N648 1.358 . S
C649 H655 0.930 . S
C650 N648 1.400 . S
C650 C651 1.351 1_655 S
C650 H667 0.930 . S
C651 N647 1.389 . S
C651 C650 1.351 1_455 S
C651 H656 0.930 . S
O652 Cu646 1.979 . S
O652 C662 1.279 1_455 S
C653 O654 1.261 . S
C653 O666 1.251 . S
O654 C653 1.261 . S
H655 C649 0.930 . S
H656 C651 0.930 . S
N657 Cu646 1.985 . S
N657 C659 1.335 . S
N657 C660 1.390 . S
N658 C659 1.345 . S
N658 C661 1.336 . S
C659 N657 1.335 . S
C659 N658 1.345 . S
C659 H664 0.930 . S
C660 N657 1.390 . S
C660 C661 1.346 . S
C660 H665 0.930 . S
C661 N658 1.336 . S
C661 C660 1.346 . S
C661 H668 0.929 . S
C662 O652 1.279 1_655 S
C662 O663 1.216 1_655 S
O663 C662 1.216 1_455 S
H664 C659 0.930 . S
H665 C660 0.930 . S
O666 Cu646 1.959 . S
O666 C653 1.251 . S
H667 C650 0.930 . S
H668 C661 0.929 . S
Cu669 N670 1.999 . S
Cu669 O675 1.974 . S
Cu669 N680 1.959 1_545 S
Cu669 O689 1.959 . S
N670 Cu669 1.999 . S
N670 C672 1.263 . S
N670 C674 1.389 . S
N671 C672 1.358 . S
N671 C673 1.400 . S
C672 N670 1.263 . S
C672 N671 1.358 . S
C672 H678 0.930 . S
C673 N671 1.400 . S
C673 C674 1.351 . S
C673 H690 0.930 . S
C674 N670 1.389 . S
C674 C673 1.351 . S
C674 H679 0.930 . S
O675 Cu669 1.974 . S
O675 C685 1.282 . S
C676 O677 1.251 1_565 S
C676 O689 1.251 1_565 S
O677 C676 1.251 1_545 S
H678 C672 0.930 . S
H679 C674 0.930 . S
N680 Cu669 1.959 1_565 S
N680 C682 1.377 . S
N680 C683 1.375 1_565 S
N681 C682 1.345 . S
N681 C684 1.336 . S
C682 N680 1.377 . S
C682 N681 1.345 . S
C682 H687 0.930 . S
C683 N680 1.375 1_545 S
C683 C684 1.323 1_545 S
C683 H688 0.956 . S
C684 N681 1.336 . S
C684 C683 1.323 1_565 S
C684 H691 0.929 . S
C685 O675 1.282 . S
C685 O686 1.216 . S
O686 C685 1.216 . S
H687 C682 0.930 . S
H688 C683 0.956 . S
O689 Cu669 1.959 . S
O689 C676 1.251 1_545 S
H690 C673 0.930 . S
H691 C684 0.929 . S
Cu692 N693 1.999 . S
Cu692 O698 1.974 . S
Cu692 N703 1.985 . S
Cu692 O712 1.959 . S
N693 Cu692 1.999 . S
N693 C695 1.263 . S
N693 C697 1.389 . S
N694 C695 1.358 . S
N694 C696 1.400 . S
C695 N693 1.263 . S
C695 N694 1.358 . S
C695 H701 0.930 . S
C696 N694 1.400 . S
C696 C697 1.351 . S
C696 H713 0.930 . S
C697 N693 1.389 . S
C697 C696 1.351 . S
C697 H702 0.930 . S
O698 Cu692 1.974 . S
O698 C708 1.282 . S
C699 O700 1.261 . S
C699 O712 1.251 . S
O700 C699 1.261 . S
H701 C695 0.930 . S
H702 C697 0.930 . S
N703 Cu692 1.985 . S
N703 C705 1.335 . S
N703 C706 1.390 . S
N704 C705 1.345 . S
N704 C707 1.336 . S
C705 N703 1.335 . S
C705 N704 1.345 . S
C705 H710 0.930 . S
C706 N703 1.390 . S
C706 C707 1.346 . S
C706 H711 0.930 . S
C707 N704 1.336 . S
C707 C706 1.346 . S
C707 H714 0.929 . S
C708 O698 1.282 . S
C708 O709 1.216 . S
O709 C708 1.216 . S
H710 C705 0.930 . S
H711 C706 0.930 . S
O712 Cu692 1.959 . S
O712 C699 1.251 . S
H713 C696 0.930 . S
H714 C707 0.929 . S
Cu715 N716 1.999 . S
Cu715 O721 1.974 . S
Cu715 N726 1.985 . S
Cu715 O735 1.959 . S
N716 Cu715 1.999 . S
N716 C718 1.263 . S
N716 C720 1.389 . S
N717 C718 1.358 . S
N717 C719 1.400 . S
C718 N716 1.263 . S
C718 N717 1.358 . S
C718 H724 0.930 . S
C719 N717 1.400 . S
C719 C720 1.351 . S
C719 H736 0.930 . S
C720 N716 1.389 . S
C720 C719 1.351 . S
C720 H725 0.930 . S
O721 Cu715 1.974 . S
O721 C731 1.282 . S
C722 O723 1.261 . S
C722 O735 1.251 . S
O723 C722 1.261 . S
H724 C718 0.930 . S
H725 C720 0.930 . S
N726 Cu715 1.985 . S
N726 C728 1.335 . S
N726 C729 1.390 . S
N727 C728 1.345 . S
N727 C730 1.336 . S
C728 N726 1.335 . S
C728 N727 1.345 . S
C728 H733 0.930 . S
C729 N726 1.390 . S
C729 C730 1.346 . S
C729 H734 0.930 . S
C730 N727 1.336 . S
C730 C729 1.346 . S
C730 H737 0.929 . S
C731 O721 1.282 . S
C731 O732 1.216 . S
O732 C731 1.216 . S
H733 C728 0.930 . S
H734 C729 0.930 . S
O735 Cu715 1.959 . S
O735 C722 1.251 . S
H736 C719 0.930 . S
H737 C730 0.929 . S
Cu738 N739 1.999 . S
Cu738 O744 1.974 . S
Cu738 N749 1.985 . S
Cu738 O758 1.959 . S
N739 Cu738 1.999 . S
N739 C741 1.263 . S
N739 C743 1.389 . S
N740 C741 1.358 . S
N740 C742 1.400 . S
C741 N739 1.263 . S
C741 N740 1.358 . S
C741 H747 0.930 . S
C742 N740 1.400 . S
C742 C743 1.351 . S
C742 H759 0.930 . S
C743 N739 1.389 . S
C743 C742 1.351 . S
C743 H748 0.930 . S
O744 Cu738 1.974 . S
O744 C754 1.282 . S
C745 O746 1.261 . S
C745 O758 1.251 . S
O746 C745 1.261 . S
H747 C741 0.930 . S
H748 C743 0.930 . S
N749 Cu738 1.985 . S
N749 C751 1.335 . S
N749 C752 1.390 . S
N750 C751 1.345 . S
N750 C753 1.336 . S
C751 N749 1.335 . S
C751 N750 1.345 . S
C751 H756 0.930 . S
C752 N749 1.390 . S
C752 C753 1.346 . S
C752 H757 0.930 . S
C753 N750 1.336 . S
C753 C752 1.346 . S
C753 H760 0.929 . S
C754 O744 1.282 . S
C754 O755 1.216 . S
O755 C754 1.216 . S
H756 C751 0.930 . S
H757 C752 0.930 . S
O758 Cu738 1.959 . S
O758 C745 1.251 . S
H759 C742 0.930 . S
H760 C753 0.929 . S
Cu761 N762 1.999 . S
Cu761 O767 1.974 . S
Cu761 N772 1.985 . S
Cu761 O781 1.959 . S
N762 Cu761 1.999 . S
N762 C764 1.263 . S
N762 C766 1.389 . S
N763 C764 1.358 . S
N763 C765 1.400 . S
C764 N762 1.263 . S
C764 N763 1.358 . S
C764 H770 0.930 . S
C765 N763 1.400 . S
C765 C766 1.351 . S
C765 H782 0.930 . S
C766 N762 1.389 . S
C766 C765 1.351 . S
C766 H771 0.930 . S
O767 Cu761 1.974 . S
O767 C777 1.282 . S
C768 O769 1.261 . S
C768 O781 1.251 . S
O769 C768 1.261 . S
H770 C764 0.930 . S
H771 C766 0.930 . S
N772 Cu761 1.985 . S
N772 C774 1.335 . S
N772 C775 1.390 . S
N773 C774 1.345 . S
N773 C776 1.336 . S
C774 N772 1.335 . S
C774 N773 1.345 . S
C774 H779 0.930 . S
C775 N772 1.390 . S
C775 C776 1.346 . S
C775 H780 0.930 . S
C776 N773 1.336 . S
C776 C775 1.346 . S
C776 H783 0.929 . S
C777 O767 1.282 . S
C777 O778 1.216 . S
O778 C777 1.216 . S
H779 C774 0.930 . S
H780 C775 0.930 . S
O781 Cu761 1.959 . S
O781 C768 1.251 . S
H782 C765 0.930 . S
H783 C776 0.929 . S
Cu784 N785 1.999 . S
Cu784 O790 1.974 . S
Cu784 N795 1.985 . S
Cu784 O804 1.959 . S
N785 Cu784 1.999 . S
N785 C787 1.263 . S
N785 C789 1.389 . S
N786 C787 1.358 . S
N786 C788 1.400 . S
C787 N785 1.263 . S
C787 N786 1.358 . S
C787 H793 0.930 . S
C788 N786 1.400 . S
C788 C789 1.351 . S
C788 H805 0.930 . S
C789 N785 1.389 . S
C789 C788 1.351 . S
C789 H794 0.930 . S
O790 Cu784 1.974 . S
O790 C800 1.282 . S
C791 O792 1.261 . S
C791 O804 1.251 . S
O792 C791 1.261 . S
H793 C787 0.930 . S
H794 C789 0.930 . S
N795 Cu784 1.985 . S
N795 C797 1.335 . S
N795 C798 1.390 . S
N796 C797 1.345 . S
N796 C799 1.336 . S
C797 N795 1.335 . S
C797 N796 1.345 . S
C797 H802 0.930 . S
C798 N795 1.390 . S
C798 C799 1.346 . S
C798 H803 0.930 . S
C799 N796 1.336 . S
C799 C798 1.346 . S
C799 H806 0.929 . S
C800 O790 1.282 . S
C800 O801 1.216 . S
O801 C800 1.216 . S
H802 C797 0.930 . S
H803 C798 0.930 . S
O804 Cu784 1.959 . S
O804 C791 1.251 . S
H805 C788 0.930 . S
H806 C799 0.929 . S
Cu807 N808 1.999 . S
Cu807 O813 1.974 . S
Cu807 N818 1.985 . S
Cu807 O827 1.959 . S
N808 Cu807 1.999 . S
N808 C810 1.263 . S
N808 C812 1.389 . S
N809 C810 1.358 . S
N809 C811 1.400 . S
C810 N808 1.263 . S
C810 N809 1.358 . S
C810 H816 0.930 . S
C811 N809 1.400 . S
C811 C812 1.351 . S
C811 H828 0.930 . S
C812 N808 1.389 . S
C812 C811 1.351 . S
C812 H817 0.930 . S
O813 Cu807 1.974 . S
O813 C823 1.282 . S
C814 O815 1.261 . S
C814 O827 1.251 . S
O815 C814 1.261 . S
H816 C810 0.930 . S
H817 C812 0.930 . S
N818 Cu807 1.985 . S
N818 C820 1.335 . S
N818 C821 1.390 . S
N819 C820 1.345 . S
N819 C822 1.336 . S
C820 N818 1.335 . S
C820 N819 1.345 . S
C820 H825 0.930 . S
C821 N818 1.390 . S
C821 C822 1.346 . S
C821 H826 0.930 . S
C822 N819 1.336 . S
C822 C821 1.346 . S
C822 H829 0.929 . S
C823 O813 1.282 . S
C823 O824 1.216 . S
O824 C823 1.216 . S
H825 C820 0.930 . S
H826 C821 0.930 . S
O827 Cu807 1.959 . S
O827 C814 1.251 . S
H828 C811 0.930 . S
H829 C822 0.929 . S
Cu830 N831 1.999 . S
Cu830 O836 1.974 . S
Cu830 N841 1.985 . S
Cu830 O850 1.959 . S
N831 Cu830 1.999 . S
N831 C833 1.263 . S
N831 C835 1.389 . S
N832 C833 1.358 . S
N832 C834 1.400 . S
C833 N831 1.263 . S
C833 N832 1.358 . S
C833 H839 0.930 . S
C834 N832 1.400 . S
C834 C835 1.351 . S
C834 H851 0.930 . S
C835 N831 1.389 . S
C835 C834 1.351 . S
C835 H840 0.930 . S
O836 Cu830 1.974 . S
O836 C846 1.282 . S
C837 O838 1.261 . S
C837 O850 1.251 . S
O838 C837 1.261 . S
H839 C833 0.930 . S
H840 C835 0.930 . S
N841 Cu830 1.985 . S
N841 C843 1.335 . S
N841 C844 1.390 . S
N842 C843 1.345 . S
N842 C845 1.336 . S
C843 N841 1.335 . S
C843 N842 1.345 . S
C843 H848 0.930 . S
C844 N841 1.390 . S
C844 C845 1.346 . S
C844 H849 0.930 . S
C845 N842 1.336 . S
C845 C844 1.346 . S
C845 H852 0.929 . S
C846 O836 1.282 . S
C846 O847 1.216 . S
O847 C846 1.216 . S
H848 C843 0.930 . S
H849 C844 0.930 . S
O850 Cu830 1.959 . S
O850 C837 1.251 . S
H851 C834 0.930 . S
H852 C845 0.929 . S
Cu853 N854 1.999 . S
Cu853 O859 1.974 . S
Cu853 N864 1.985 . S
Cu853 O873 1.959 . S
N854 Cu853 1.999 . S
N854 C856 1.263 . S
N854 C858 1.389 . S
N855 C856 1.358 . S
N855 C857 1.400 . S
C856 N854 1.263 . S
C856 N855 1.358 . S
C856 H862 0.930 . S
C857 N855 1.400 . S
C857 C858 1.351 . S
C857 H874 0.930 . S
C858 N854 1.389 . S
C858 C857 1.351 . S
C858 H863 0.930 . S
O859 Cu853 1.974 . S
O859 C869 1.282 . S
C860 O861 1.261 . S
C860 O873 1.251 . S
O861 C860 1.261 . S
H862 C856 0.930 . S
H863 C858 0.930 . S
N864 Cu853 1.985 . S
N864 C866 1.335 . S
N864 C867 1.390 . S
N865 C866 1.345 . S
N865 C868 1.336 . S
C866 N864 1.335 . S
C866 N865 1.345 . S
C866 H871 0.930 . S
C867 N864 1.390 . S
C867 C868 1.346 . S
C867 H872 0.930 . S
C868 N865 1.336 . S
C868 C867 1.346 . S
C868 H875 0.929 . S
C869 O859 1.282 . S
C869 O870 1.216 . S
O870 C869 1.216 . S
H871 C866 0.930 . S
H872 C867 0.930 . S
O873 Cu853 1.959 . S
O873 C860 1.251 . S
H874 C857 0.930 . S
H875 C868 0.929 . S
Cu876 N877 1.999 . S
Cu876 O882 1.974 . S
Cu876 N887 1.985 . S
Cu876 O896 1.959 . S
N877 Cu876 1.999 . S
N877 C879 1.263 . S
N877 C881 1.389 . S
N878 C879 1.358 . S
N878 C880 1.400 . S
C879 N877 1.263 . S
C879 N878 1.358 . S
C879 H885 0.930 . S
C880 N878 1.400 . S
C880 C881 1.351 . S
C880 H897 0.930 . S
C881 N877 1.389 . S
C881 C880 1.351 . S
C881 H886 0.930 . S
O882 Cu876 1.974 . S
O882 C892 1.282 . S
C883 O884 1.261 . S
C883 O896 1.251 . S
O884 C883 1.261 . S
H885 C879 0.930 . S
H886 C881 0.930 . S
N887 Cu876 1.985 . S
N887 C889 1.335 . S
N887 C890 1.390 . S
N888 C889 1.345 . S
N888 C891 1.336 . S
C889 N887 1.335 . S
C889 N888 1.345 . S
C889 H894 0.930 . S
C890 N887 1.390 . S
C890 C891 1.346 . S
C890 H895 0.930 . S
C891 N888 1.336 . S
C891 C890 1.346 . S
C891 H898 0.929 . S
C892 O882 1.282 . S
C892 O893 1.216 . S
O893 C892 1.216 . S
H894 C889 0.930 . S
H895 C890 0.930 . S
O896 Cu876 1.959 . S
O896 C883 1.251 . S
H897 C880 0.930 . S
H898 C891 0.929 . S
Cu899 N900 1.999 . S
Cu899 O905 1.974 . S
Cu899 N910 1.985 . S
Cu899 O919 1.959 . S
N900 Cu899 1.999 . S
N900 C902 1.263 . S
N900 C904 1.389 . S
N901 C902 1.358 . S
N901 C903 1.400 . S
C902 N900 1.263 . S
C902 N901 1.358 . S
C902 H908 0.930 . S
C903 N901 1.400 . S
C903 C904 1.351 . S
C903 H920 0.930 . S
C904 N900 1.389 . S
C904 C903 1.351 . S
C904 H909 0.930 . S
O905 Cu899 1.974 . S
O905 C915 1.282 . S
C906 O907 1.261 . S
C906 O919 1.251 . S
O907 C906 1.261 . S
H908 C902 0.930 . S
H909 C904 0.930 . S
N910 Cu899 1.985 . S
N910 C912 1.335 . S
N910 C913 1.390 . S
N911 C912 1.345 . S
N911 C914 1.336 . S
C912 N910 1.335 . S
C912 N911 1.345 . S
C912 H917 0.930 . S
C913 N910 1.390 . S
C913 C914 1.346 . S
C913 H918 0.930 . S
C914 N911 1.336 . S
C914 C913 1.346 . S
C914 H921 0.929 . S
C915 O905 1.282 . S
C915 O916 1.216 . S
O916 C915 1.216 . S
H917 C912 0.930 . S
H918 C913 0.930 . S
O919 Cu899 1.959 . S
O919 C906 1.251 . S
H920 C903 0.930 . S
H921 C914 0.929 . S
Cu922 N923 1.999 . S
Cu922 O928 1.974 . S
Cu922 N933 1.985 . S
Cu922 O942 1.959 . S
N923 Cu922 1.999 . S
N923 C925 1.263 . S
N923 C927 1.389 . S
N924 C925 1.358 . S
N924 C926 1.400 . S
C925 N923 1.263 . S
C925 N924 1.358 . S
C925 H931 0.930 . S
C926 N924 1.400 . S
C926 C927 1.351 . S
C926 H943 0.930 . S
C927 N923 1.389 . S
C927 C926 1.351 . S
C927 H932 0.930 . S
O928 Cu922 1.974 . S
O928 C938 1.282 . S
C929 O930 1.261 . S
C929 O942 1.251 . S
O930 C929 1.261 . S
H931 C925 0.930 . S
H932 C927 0.930 . S
N933 Cu922 1.985 . S
N933 C935 1.335 . S
N933 C936 1.390 . S
N934 C935 1.345 . S
N934 C937 1.336 . S
C935 N933 1.335 . S
C935 N934 1.345 . S
C935 H940 0.930 . S
C936 N933 1.390 . S
C936 C937 1.346 . S
C936 H941 0.930 . S
C937 N934 1.336 . S
C937 C936 1.346 . S
C937 H944 0.929 . S
C938 O928 1.282 . S
C938 O939 1.216 . S
O939 C938 1.216 . S
H940 C935 0.930 . S
H941 C936 0.930 . S
O942 Cu922 1.959 . S
O942 C929 1.251 . S
H943 C926 0.930 . S
H944 C937 0.929 . S
Cu945 N946 1.999 . S
Cu945 O951 1.974 . S
Cu945 N956 1.985 . S
Cu945 O965 1.959 . S
N946 Cu945 1.999 . S
N946 C948 1.263 . S
N946 C950 1.389 . S
N947 C948 1.358 . S
N947 C949 1.400 . S
C948 N946 1.263 . S
C948 N947 1.358 . S
C948 H954 0.930 . S
C949 N947 1.400 . S
C949 C950 1.351 . S
C949 H966 0.930 . S
C950 N946 1.389 . S
C950 C949 1.351 . S
C950 H955 0.930 . S
O951 Cu945 1.974 . S
O951 C961 1.282 . S
C952 O953 1.261 . S
C952 O965 1.251 . S
O953 C952 1.261 . S
H954 C948 0.930 . S
H955 C950 0.930 . S
N956 Cu945 1.985 . S
N956 C958 1.335 . S
N956 C959 1.390 . S
N957 C958 1.345 . S
N957 C960 1.336 . S
C958 N956 1.335 . S
C958 N957 1.345 . S
C958 H963 0.930 . S
C959 N956 1.390 . S
C959 C960 1.346 . S
C959 H964 0.930 . S
C960 N957 1.336 . S
C960 C959 1.346 . S
C960 H967 0.929 . S
C961 O951 1.282 . S
C961 O962 1.216 . S
O962 C961 1.216 . S
H963 C958 0.930 . S
H964 C959 0.930 . S
O965 Cu945 1.959 . S
O965 C952 1.251 . S
H966 C949 0.930 . S
H967 C960 0.929 . S
C968 C969 1.369 . S
C968 C970 1.419 . S
C968 H972 0.930 . S
C969 C968 1.369 . S
C969 C978 1.429 . S
C970 C968 1.419 . S
C970 C971 1.363 . S
C970 H973 0.929 . S
C971 C970 1.363 . S
C971 C977 1.428 . S
H972 C968 0.930 . S
H973 C970 0.929 . S
S974 N975 1.613 . S
S974 N976 1.610 . S
N975 S974 1.613 . S
N975 C978 1.350 . S
N976 S974 1.610 . S
N976 C977 1.351 . S
C977 C971 1.428 . S
C977 N976 1.351 . S
C977 C978 1.434 . S
C978 C969 1.429 . S
C978 N975 1.350 . S
C978 C977 1.434 . S
C979 C980 1.369 . S
C979 C981 1.419 . S
C979 H983 0.930 . S
C980 C979 1.369 . S
C980 C989 1.429 . S
C981 C979 1.419 . S
C981 C982 1.363 . S
C981 H984 0.929 . S
C982 C981 1.363 . S
C982 C988 1.428 . S
H983 C979 0.930 . S
H984 C981 0.929 . S
S985 N986 1.613 . S
S985 N987 1.610 . S
N986 S985 1.613 . S
N986 C989 1.350 . S
N987 S985 1.610 . S
N987 C988 1.351 . S
C988 C982 1.428 . S
C988 N987 1.351 . S
C988 C989 1.434 . S
C989 C980 1.429 . S
C989 N986 1.350 . S
C989 C988 1.434 . S
C990 C991 1.369 . S
C990 C992 1.419 . S
C990 H994 0.930 . S
C991 C990 1.369 . S
C991 C1000 1.429 . S
C992 C990 1.419 . S
C992 C993 1.363 . S
C992 H995 0.929 . S
C993 C992 1.363 . S
C993 C999 1.428 . S
H994 C990 0.930 . S
H995 C992 0.929 . S
S996 N997 1.613 . S
S996 N998 1.610 . S
N997 S996 1.613 . S
N997 C1000 1.350 . S
N998 S996 1.610 . S
N998 C999 1.351 . S
C999 C993 1.428 . S
C999 N998 1.351 . S
C999 C1000 1.434 . S
C1000 C991 1.429 . S
C1000 N997 1.350 . S
C1000 C999 1.434 . S
C1001 C1002 1.369 . S
C1001 C1003 1.419 . S
C1001 H1005 0.930 . S
C1002 C1001 1.369 . S
C1002 C1011 1.429 . S
C1003 C1001 1.419 . S
C1003 C1004 1.363 . S
C1003 H1006 0.929 . S
C1004 C1003 1.363 . S
C1004 C1010 1.428 . S
H1005 C1001 0.930 . S
H1006 C1003 0.929 . S
S1007 N1008 1.613 . S
S1007 N1009 1.610 . S
N1008 S1007 1.613 . S
N1008 C1011 1.350 . S
N1009 S1007 1.610 . S
N1009 C1010 1.351 . S
C1010 C1004 1.428 . S
C1010 N1009 1.351 . S
C1010 C1011 1.434 . S
C1011 C1002 1.429 . S
C1011 N1008 1.350 . S
C1011 C1010 1.434 . S
C1012 C1013 1.369 . S
C1012 C1014 1.419 . S
C1012 H1016 0.930 . S
C1013 C1012 1.369 . S
C1013 C1022 1.429 . S
C1014 C1012 1.419 . S
C1014 C1015 1.363 . S
C1014 H1017 0.929 . S
C1015 C1014 1.363 . S
C1015 C1021 1.428 . S
H1016 C1012 0.930 . S
H1017 C1014 0.929 . S
S1018 N1019 1.613 . S
S1018 N1020 1.610 . S
N1019 S1018 1.613 . S
N1019 C1022 1.350 . S
N1020 S1018 1.610 . S
N1020 C1021 1.351 . S
C1021 C1015 1.428 . S
C1021 N1020 1.351 . S
C1021 C1022 1.434 . S
C1022 C1013 1.429 . S
C1022 N1019 1.350 . S
C1022 C1021 1.434 . S
C1023 C1024 1.369 . S
C1023 C1025 1.419 . S
C1023 H1027 0.930 . S
C1024 C1023 1.369 . S
C1024 C1033 1.429 . S
C1025 C1023 1.419 . S
C1025 C1026 1.363 . S
C1025 H1028 0.929 . S
C1026 C1025 1.363 . S
C1026 C1032 1.428 . S
H1027 C1023 0.930 . S
H1028 C1025 0.929 . S
S1029 N1030 1.613 . S
S1029 N1031 1.610 1_556 S
N1030 S1029 1.613 . S
N1030 C1033 1.350 . S
N1031 S1029 1.610 1_554 S
N1031 C1032 1.351 1_554 S
C1032 C1026 1.428 . S
C1032 N1031 1.351 1_556 S
C1032 C1033 1.434 . S
C1033 C1024 1.429 . S
C1033 N1030 1.350 . S
C1033 C1032 1.434 . S
C1034 C1035 1.369 . S
C1034 C1036 1.419 . S
C1034 H1038 0.930 . S
C1035 C1034 1.369 . S
C1035 C1044 1.429 . S
C1036 C1034 1.419 . S
C1036 C1037 1.363 . S
C1036 H1039 0.929 . S
C1037 C1036 1.363 . S
C1037 C1043 1.428 . S
H1038 C1034 0.930 . S
H1039 C1036 0.929 . S
S1040 N1041 1.613 . S
S1040 N1042 1.610 . S
N1041 S1040 1.613 . S
N1041 C1044 1.350 . S
N1042 S1040 1.610 . S
N1042 C1043 1.351 . S
C1043 C1037 1.428 . S
C1043 N1042 1.351 . S
C1043 C1044 1.434 . S
C1044 C1035 1.429 . S
C1044 N1041 1.350 . S
C1044 C1043 1.434 . S
C1045 C1046 1.369 . S
C1045 C1047 1.419 . S
C1045 H1049 0.930 . S
C1046 C1045 1.369 . S
C1046 C1055 1.429 . S
C1047 C1045 1.419 . S
C1047 C1048 1.363 . S
C1047 H1050 0.929 . S
C1048 C1047 1.363 . S
C1048 C1054 1.428 . S
H1049 C1045 0.930 . S
H1050 C1047 0.929 . S
S1051 N1052 1.613 . S
S1051 N1053 1.610 . S
N1052 S1051 1.613 . S
N1052 C1055 1.350 . S
N1053 S1051 1.610 . S
N1053 C1054 1.351 . S
C1054 C1048 1.428 . S
C1054 N1053 1.351 . S
C1054 C1055 1.434 . S
C1055 C1046 1.429 . S
C1055 N1052 1.350 . S
C1055 C1054 1.434 . S
C1056 C1057 1.369 . S
C1056 C1058 1.419 . S
C1056 H1060 0.930 . S
C1057 C1056 1.369 . S
C1057 C1066 1.429 . S
C1058 C1056 1.419 . S
C1058 C1059 1.363 . S
C1058 H1061 0.929 . S
C1059 C1058 1.363 . S
C1059 C1065 1.428 . S
H1060 C1056 0.930 . S
H1061 C1058 0.929 . S
S1062 N1063 1.613 . S
S1062 N1064 1.610 . S
N1063 S1062 1.613 . S
N1063 C1066 1.350 . S
N1064 S1062 1.610 . S
N1064 C1065 1.351 . S
C1065 C1059 1.428 . S
C1065 N1064 1.351 . S
C1065 C1066 1.434 . S
C1066 C1057 1.429 . S
C1066 N1063 1.350 . S
C1066 C1065 1.434 . S
C1067 C1068 1.369 . S
C1067 C1069 1.419 . S
C1067 H1071 0.930 . S
C1068 C1067 1.369 . S
C1068 C1077 1.429 . S
C1069 C1067 1.419 . S
C1069 C1070 1.363 . S
C1069 H1072 0.929 . S
C1070 C1069 1.363 . S
C1070 C1076 1.428 . S
H1071 C1067 0.930 . S
H1072 C1069 0.929 . S
S1073 N1074 1.613 . S
S1073 N1075 1.610 . S
N1074 S1073 1.613 . S
N1074 C1077 1.350 . S
N1075 S1073 1.610 . S
N1075 C1076 1.351 . S
C1076 C1070 1.428 . S
C1076 N1075 1.351 . S
C1076 C1077 1.434 . S
C1077 C1068 1.429 . S
C1077 N1074 1.350 . S
C1077 C1076 1.434 . S
C1078 C1079 1.369 . S
C1078 C1080 1.419 . S
C1078 H1082 0.930 . S
C1079 C1078 1.369 . S
C1079 C1088 1.429 . S
C1080 C1078 1.419 . S
C1080 C1081 1.363 . S
C1080 H1083 0.929 . S
C1081 C1080 1.363 . S
C1081 C1087 1.428 . S
H1082 C1078 0.930 . S
H1083 C1080 0.929 . S
S1084 N1085 1.613 . S
S1084 N1086 1.610 . S
N1085 S1084 1.613 . S
N1085 C1088 1.350 . S
N1086 S1084 1.610 . S
N1086 C1087 1.351 . S
C1087 C1081 1.428 . S
C1087 N1086 1.351 . S
C1087 C1088 1.434 . S
C1088 C1079 1.429 . S
C1088 N1085 1.350 . S
C1088 C1087 1.434 . S
C1089 C1090 1.369 . S
C1089 C1091 1.419 . S
C1089 H1093 0.930 . S
C1090 C1089 1.369 . S
C1090 C1099 1.429 . S
C1091 C1089 1.419 . S
C1091 C1092 1.363 . S
C1091 H1094 0.929 . S
C1092 C1091 1.363 . S
C1092 C1098 1.428 . S
H1093 C1089 0.930 . S
H1094 C1091 0.929 . S
S1095 N1096 1.613 . S
S1095 N1097 1.610 . S
N1096 S1095 1.613 . S
N1096 C1099 1.350 . S
N1097 S1095 1.610 . S
N1097 C1098 1.351 . S
C1098 C1092 1.428 . S
C1098 N1097 1.351 . S
C1098 C1099 1.434 . S
C1099 C1090 1.429 . S
C1099 N1096 1.350 . S
C1099 C1098 1.434 . S
C1100 C1101 1.369 . S
C1100 C1102 1.419 . S
C1100 H1104 0.930 . S
C1101 C1100 1.369 . S
C1101 C1110 1.429 . S
C1102 C1100 1.419 . S
C1102 C1103 1.363 . S
C1102 H1105 0.929 . S
C1103 C1102 1.363 . S
C1103 C1109 1.428 . S
H1104 C1100 0.930 . S
H1105 C1102 0.929 . S
S1106 N1107 1.613 . S
S1106 N1108 1.610 . S
N1107 S1106 1.613 . S
N1107 C1110 1.350 . S
N1108 S1106 1.610 . S
N1108 C1109 1.351 . S
C1109 C1103 1.428 . S
C1109 N1108 1.351 . S
C1109 C1110 1.434 . S
C1110 C1101 1.429 . S
C1110 N1107 1.350 . S
C1110 C1109 1.434 . S
C1111 C1112 1.369 . S
C1111 C1113 1.419 . S
C1111 H1115 0.930 . S
C1112 C1111 1.369 . S
C1112 C1121 1.429 . S
C1113 C1111 1.419 . S
C1113 C1114 1.363 . S
C1113 H1116 0.929 . S
C1114 C1113 1.363 . S
C1114 C1120 1.428 . S
H1115 C1111 0.930 . S
H1116 C1113 0.929 . S
S1117 N1118 1.613 . S
S1117 N1119 1.610 . S
N1118 S1117 1.613 . S
N1118 C1121 1.350 . S
N1119 S1117 1.610 . S
N1119 C1120 1.351 . S
C1120 C1114 1.428 . S
C1120 N1119 1.351 . S
C1120 C1121 1.434 . S
C1121 C1112 1.429 . S
C1121 N1118 1.350 . S
C1121 C1120 1.434 . S
C1122 C1123 1.369 . S
C1122 C1124 1.419 . S
C1122 H1126 0.930 . S
C1123 C1122 1.369 . S
C1123 C1132 1.429 . S
C1124 C1122 1.419 . S
C1124 C1125 1.363 . S
C1124 H1127 0.929 . S
C1125 C1124 1.363 . S
C1125 C1131 1.428 . S
H1126 C1122 0.930 . S
H1127 C1124 0.929 . S
S1128 N1129 1.613 . S
S1128 N1130 1.610 . S
N1129 S1128 1.613 . S
N1129 C1132 1.350 . S
N1130 S1128 1.610 . S
N1130 C1131 1.351 . S
C1131 C1125 1.428 . S
C1131 N1130 1.351 . S
C1131 C1132 1.434 . S
C1132 C1123 1.429 . S
C1132 N1129 1.350 . S
C1132 C1131 1.434 . S
C1133 C1134 1.369 . S
C1133 C1135 1.419 . S
C1133 H1137 0.930 . S
C1134 C1133 1.369 . S
C1134 C1143 1.429 . S
C1135 C1133 1.419 . S
C1135 C1136 1.363 . S
C1135 H1138 0.929 . S
C1136 C1135 1.363 . S
C1136 C1142 1.428 . S
H1137 C1133 0.930 . S
H1138 C1135 0.929 . S
S1139 N1140 1.613 1_545 S
S1139 N1141 1.610 . S
N1140 S1139 1.613 1_565 S
N1140 C1143 1.350 . S
N1141 S1139 1.610 . S
N1141 C1142 1.351 1_545 S
C1142 C1136 1.428 . S
C1142 N1141 1.351 1_565 S
C1142 C1143 1.434 . S
C1143 C1134 1.429 . S
C1143 N1140 1.350 . S
C1143 C1142 1.434 . S
C1144 C1145 1.369 . S
C1144 C1146 1.419 . S
C1144 H1148 0.930 . S
C1145 C1144 1.369 . S
C1145 C1154 1.429 . S
C1146 C1144 1.419 . S
C1146 C1147 1.363 . S
C1146 H1149 0.929 . S
C1147 C1146 1.363 . S
C1147 C1153 1.428 . S
H1148 C1144 0.930 . S
H1149 C1146 0.929 . S
S1150 N1151 1.613 . S
S1150 N1152 1.610 . S
N1151 S1150 1.613 . S
N1151 C1154 1.350 . S
N1152 S1150 1.610 . S
N1152 C1153 1.351 . S
C1153 C1147 1.428 . S
C1153 N1152 1.351 . S
C1153 C1154 1.434 . S
C1154 C1145 1.429 . S
C1154 N1151 1.350 . S
C1154 C1153 1.434 . S
C1155 C1156 1.369 . S
C1155 C1157 1.419 . S
C1155 H1159 0.930 . S
C1156 C1155 1.369 . S
C1156 C1165 1.429 . S
C1157 C1155 1.419 . S
C1157 C1158 1.363 . S
C1157 H1160 0.929 . S
C1158 C1157 1.363 . S
C1158 C1164 1.428 . S
H1159 C1155 0.930 . S
H1160 C1157 0.929 . S
S1161 N1162 1.613 . S
S1161 N1163 1.610 . S
N1162 S1161 1.613 . S
N1162 C1165 1.350 . S
N1163 S1161 1.610 . S
N1163 C1164 1.351 . S
C1164 C1158 1.428 . S
C1164 N1163 1.351 . S
C1164 C1165 1.434 . S
C1165 C1156 1.429 . S
C1165 N1162 1.350 . S
C1165 C1164 1.434 . S
C1166 C1167 1.369 . S
C1166 C1168 1.419 . S
C1166 H1170 0.930 . S
C1167 C1166 1.369 . S
C1167 C1176 1.429 . S
C1168 C1166 1.419 . S
C1168 C1169 1.363 . S
C1168 H1171 0.929 . S
C1169 C1168 1.363 . S
C1169 C1175 1.428 . S
H1170 C1166 0.930 . S
H1171 C1168 0.929 . S
S1172 N1173 1.613 . S
S1172 N1174 1.610 . S
N1173 S1172 1.613 . S
N1173 C1176 1.350 . S
N1174 S1172 1.610 . S
N1174 C1175 1.351 . S
C1175 C1169 1.428 . S
C1175 N1174 1.351 . S
C1175 C1176 1.434 . S
C1176 C1167 1.429 . S
C1176 N1173 1.350 . S
C1176 C1175 1.434 . S
C1177 C1178 1.369 . S
C1177 C1179 1.419 . S
C1177 H1181 0.930 . S
C1178 C1177 1.369 . S
C1178 C1187 1.429 . S
C1179 C1177 1.419 . S
C1179 C1180 1.363 . S
C1179 H1182 0.929 . S
C1180 C1179 1.363 . S
C1180 C1186 1.428 . S
H1181 C1177 0.930 . S
H1182 C1179 0.929 . S
S1183 N1184 1.613 . S
S1183 N1185 1.610 . S
N1184 S1183 1.613 . S
N1184 C1187 1.350 . S
N1185 S1183 1.610 . S
N1185 C1186 1.351 . S
C1186 C1180 1.428 . S
C1186 N1185 1.351 . S
C1186 C1187 1.434 . S
C1187 C1178 1.429 . S
C1187 N1184 1.350 . S
C1187 C1186 1.434 . S
C1188 C1189 1.369 . S
C1188 C1190 1.419 . S
C1188 H1192 0.930 . S
C1189 C1188 1.369 . S
C1189 C1198 1.429 . S
C1190 C1188 1.419 . S
C1190 C1191 1.363 . S
C1190 H1193 0.929 . S
C1191 C1190 1.363 . S
C1191 C1197 1.428 . S
H1192 C1188 0.930 . S
H1193 C1190 0.929 . S
S1194 N1195 1.613 . S
S1194 N1196 1.610 . S
N1195 S1194 1.613 . S
N1195 C1198 1.350 . S
N1196 S1194 1.610 . S
N1196 C1197 1.351 . S
C1197 C1191 1.428 . S
C1197 N1196 1.351 . S
C1197 C1198 1.434 . S
C1198 C1189 1.429 . S
C1198 N1195 1.350 . S
C1198 C1197 1.434 . S
C1199 C1200 1.369 . S
C1199 C1201 1.419 . S
C1199 H1203 0.930 . S
C1200 C1199 1.369 . S
C1200 C1209 1.429 . S
C1201 C1199 1.419 . S
C1201 C1202 1.363 . S
C1201 H1204 0.929 1_565 S
C1202 C1201 1.363 . S
C1202 C1208 1.428 . S
H1203 C1199 0.930 . S
H1204 C1201 0.929 1_545 S
S1205 N1206 1.613 . S
S1205 N1207 1.610 . S
N1206 S1205 1.613 . S
N1206 C1209 1.350 . S
N1207 S1205 1.610 . S
N1207 C1208 1.351 . S
C1208 C1202 1.428 . S
C1208 N1207 1.351 . S
C1208 C1209 1.434 . S
C1209 C1200 1.429 . S
C1209 N1206 1.350 . S
C1209 C1208 1.434 . S
C1210 C1211 1.369 . S
C1210 C1212 1.419 . S
C1210 H1214 0.930 . S
C1211 C1210 1.369 . S
C1211 C1220 1.429 . S
C1212 C1210 1.419 . S
C1212 C1213 1.363 . S
C1212 H1215 0.929 . S
C1213 C1212 1.363 . S
C1213 C1219 1.428 . S
H1214 C1210 0.930 . S
H1215 C1212 0.929 . S
S1216 N1217 1.613 . S
S1216 N1218 1.610 . S
N1217 S1216 1.613 . S
N1217 C1220 1.350 . S
N1218 S1216 1.610 . S
N1218 C1219 1.351 . S
C1219 C1213 1.428 . S
C1219 N1218 1.351 . S
C1219 C1220 1.434 . S
C1220 C1211 1.429 . S
C1220 N1217 1.350 . S
C1220 C1219 1.434 . S
C1221 C1222 1.369 . S
C1221 C1223 1.419 . S
C1221 H1225 0.930 . S
C1222 C1221 1.369 . S
C1222 C1231 1.429 . S
C1223 C1221 1.419 . S
C1223 C1224 1.363 . S
C1223 H1226 0.929 . S
C1224 C1223 1.363 . S
C1224 C1230 1.428 . S
H1225 C1221 0.930 . S
H1226 C1223 0.929 . S
S1227 N1228 1.613 . S
S1227 N1229 1.610 . S
N1228 S1227 1.613 . S
N1228 C1231 1.350 . S
N1229 S1227 1.610 . S
N1229 C1230 1.351 . S
C1230 C1224 1.428 . S
C1230 N1229 1.351 . S
C1230 C1231 1.434 . S
C1231 C1222 1.429 . S
C1231 N1228 1.350 . S
C1231 C1230 1.434 . S
C1232 C1233 1.369 . S
C1232 C1234 1.419 . S
C1232 H1236 0.930 . S
C1233 C1232 1.369 . S
C1233 C1242 1.429 . S
C1234 C1232 1.419 . S
C1234 C1235 1.363 . S
C1234 H1237 0.929 . S
C1235 C1234 1.363 . S
C1235 C1241 1.428 . S
H1236 C1232 0.930 . S
H1237 C1234 0.929 . S
S1238 N1239 1.613 . S
S1238 N1240 1.610 . S
N1239 S1238 1.613 . S
N1239 C1242 1.350 . S
N1240 S1238 1.610 . S
N1240 C1241 1.351 . S
C1241 C1235 1.428 . S
C1241 N1240 1.351 . S
C1241 C1242 1.434 . S
C1242 C1233 1.429 . S
C1242 N1239 1.350 . S
C1242 C1241 1.434 . S
C1243 C1244 1.369 . S
C1243 C1245 1.419 . S
C1243 H1247 0.930 . S
C1244 C1243 1.369 . S
C1244 C1253 1.429 . S
C1245 C1243 1.419 . S
C1245 C1246 1.363 . S
C1245 H1248 0.929 . S
C1246 C1245 1.363 . S
C1246 C1252 1.428 . S
H1247 C1243 0.930 . S
H1248 C1245 0.929 . S
S1249 N1250 1.613 . S
S1249 N1251 1.610 . S
N1250 S1249 1.613 . S
N1250 C1253 1.350 . S
N1251 S1249 1.610 . S
N1251 C1252 1.351 . S
C1252 C1246 1.428 . S
C1252 N1251 1.351 . S
C1252 C1253 1.434 . S
C1253 C1244 1.429 . S
C1253 N1250 1.350 . S
C1253 C1252 1.434 . S
C1254 C1255 1.369 . S
C1254 C1256 1.419 . S
C1254 H1258 0.930 . S
C1255 C1254 1.369 . S
C1255 C1264 1.429 . S
C1256 C1254 1.419 . S
C1256 C1257 1.363 . S
C1256 H1259 0.929 . S
C1257 C1256 1.363 . S
C1257 C1263 1.428 . S
H1258 C1254 0.930 . S
H1259 C1256 0.929 . S
S1260 N1261 1.613 . S
S1260 N1262 1.610 . S
N1261 S1260 1.613 . S
N1261 C1264 1.350 . S
N1262 S1260 1.610 . S
N1262 C1263 1.351 . S
C1263 C1257 1.428 . S
C1263 N1262 1.351 . S
C1263 C1264 1.434 . S
C1264 C1255 1.429 . S
C1264 N1261 1.350 . S
C1264 C1263 1.434 . S
C1265 C1266 1.369 . S
C1265 C1267 1.419 . S
C1265 H1269 0.930 . S
C1266 C1265 1.369 . S
C1266 C1275 1.429 . S
C1267 C1265 1.419 . S
C1267 C1268 1.363 . S
C1267 H1270 0.929 . S
C1268 C1267 1.363 . S
C1268 C1274 1.428 . S
H1269 C1265 0.930 . S
H1270 C1267 0.929 . S
S1271 N1272 1.613 . S
S1271 N1273 1.610 . S
N1272 S1271 1.613 . S
N1272 C1275 1.350 . S
N1273 S1271 1.610 . S
N1273 C1274 1.351 . S
C1274 C1268 1.428 . S
C1274 N1273 1.351 . S
C1274 C1275 1.434 . S
C1275 C1266 1.429 . S
C1275 N1272 1.350 . S
C1275 C1274 1.434 . S
C1276 C1277 1.369 . S
C1276 C1278 1.419 . S
C1276 H1280 0.930 . S
C1277 C1276 1.369 . S
C1277 C1286 1.429 . S
C1278 C1276 1.419 . S
C1278 C1279 1.363 . S
C1278 H1281 0.929 . S
C1279 C1278 1.363 . S
C1279 C1285 1.428 . S
H1280 C1276 0.930 . S
H1281 C1278 0.929 . S
S1282 N1283 1.613 . S
S1282 N1284 1.610 . S
N1283 S1282 1.613 . S
N1283 C1286 1.350 . S
N1284 S1282 1.610 . S
N1284 C1285 1.351 . S
C1285 C1279 1.428 . S
C1285 N1284 1.351 . S
C1285 C1286 1.434 . S
C1286 C1277 1.429 . S
C1286 N1283 1.350 . S
C1286 C1285 1.434 . S
C1287 C1288 1.369 . S
C1287 C1289 1.419 . S
C1287 H1291 0.930 . S
C1288 C1287 1.369 . S
C1288 C1297 1.429 . S
C1289 C1287 1.419 . S
C1289 C1290 1.363 . S
C1289 H1292 0.929 . S
C1290 C1289 1.363 . S
C1290 C1296 1.428 . S
H1291 C1287 0.930 . S
H1292 C1289 0.929 . S
S1293 N1294 1.613 . S
S1293 N1295 1.610 . S
N1294 S1293 1.613 . S
N1294 C1297 1.350 . S
N1295 S1293 1.610 . S
N1295 C1296 1.351 . S
C1296 C1290 1.428 . S
C1296 N1295 1.351 . S
C1296 C1297 1.434 . S
C1297 C1288 1.429 . S
C1297 N1294 1.350 . S
C1297 C1296 1.434 . S
C1298 C1299 1.369 . S
C1298 C1300 1.419 . S
C1298 H1302 0.930 . S
C1299 C1298 1.369 . S
C1299 C1308 1.429 . S
C1300 C1298 1.419 . S
C1300 C1301 1.363 . S
C1300 H1303 0.929 . S
C1301 C1300 1.363 . S
C1301 C1307 1.428 . S
H1302 C1298 0.930 . S
H1303 C1300 0.929 . S
S1304 N1305 1.613 . S
S1304 N1306 1.610 . S
N1305 S1304 1.613 . S
N1305 C1308 1.350 . S
N1306 S1304 1.610 . S
N1306 C1307 1.351 . S
C1307 C1301 1.428 . S
C1307 N1306 1.351 . S
C1307 C1308 1.434 . S
C1308 C1299 1.429 . S
C1308 N1305 1.350 . S
C1308 C1307 1.434 . S
C1309 C1310 1.369 . S
C1309 C1311 1.419 . S
C1309 H1313 0.930 . S
C1310 C1309 1.369 . S
C1310 C1319 1.429 . S
C1311 C1309 1.419 . S
C1311 C1312 1.363 . S
C1311 H1314 0.929 . S
C1312 C1311 1.363 . S
C1312 C1318 1.428 . S
H1313 C1309 0.930 . S
H1314 C1311 0.929 . S
S1315 N1316 1.613 . S
S1315 N1317 1.610 . S
N1316 S1315 1.613 . S
N1316 C1319 1.350 . S
N1317 S1315 1.610 . S
N1317 C1318 1.351 . S
C1318 C1312 1.428 . S
C1318 N1317 1.351 . S
C1318 C1319 1.434 . S
C1319 C1310 1.429 . S
C1319 N1316 1.350 . S
C1319 C1318 1.434 . S
C1320 C1321 1.369 . S
C1320 C1322 1.419 . S
C1320 H1324 0.930 . S
C1321 C1320 1.369 . S
C1321 C1330 1.429 . S
C1322 C1320 1.419 . S
C1322 C1323 1.363 . S
C1322 H1325 0.929 . S
C1323 C1322 1.363 . S
C1323 C1329 1.428 . S
H1324 C1320 0.930 . S
H1325 C1322 0.929 . S
S1326 N1327 1.613 . S
S1326 N1328 1.610 . S
N1327 S1326 1.613 . S
N1327 C1330 1.350 . S
N1328 S1326 1.610 . S
N1328 C1329 1.351 . S
C1329 C1323 1.428 . S
C1329 N1328 1.351 . S
C1329 C1330 1.434 . S
C1330 C1321 1.429 . S
C1330 N1327 1.350 . S
C1330 C1329 1.434 . S
C1331 C1332 1.369 . S
C1331 C1333 1.419 . S
C1331 H1335 0.930 . S
C1332 C1331 1.369 . S
C1332 C1341 1.429 . S
C1333 C1331 1.419 . S
C1333 C1334 1.363 . S
C1333 H1336 0.929 . S
C1334 C1333 1.363 . S
C1334 C1340 1.428 . S
H1335 C1331 0.930 . S
H1336 C1333 0.929 . S
S1337 N1338 1.613 . S
S1337 N1339 1.610 . S
N1338 S1337 1.613 . S
N1338 C1341 1.350 . S
N1339 S1337 1.610 . S
N1339 C1340 1.351 . S
C1340 C1334 1.428 . S
C1340 N1339 1.351 . S
C1340 C1341 1.434 . S
C1341 C1332 1.429 . S
C1341 N1338 1.350 . S
C1341 C1340 1.434 . S
C1342 C1343 1.369 . S
C1342 C1344 1.419 . S
C1342 H1346 0.930 . S
C1343 C1342 1.369 . S
C1343 C1352 1.429 . S
C1344 C1342 1.419 . S
C1344 C1345 1.363 . S
C1344 H1347 0.929 . S
C1345 C1344 1.363 . S
C1345 C1351 1.428 . S
H1346 C1342 0.930 . S
H1347 C1344 0.929 . S
S1348 N1349 1.613 . S
S1348 N1350 1.610 . S
N1349 S1348 1.613 . S
N1349 C1352 1.350 . S
N1350 S1348 1.610 . S
N1350 C1351 1.351 . S
C1351 C1345 1.428 . S
C1351 N1350 1.351 . S
C1351 C1352 1.434 . S
C1352 C1343 1.429 . S
C1352 N1349 1.350 . S
C1352 C1351 1.434 . S
C1353 C1354 1.369 . S
C1353 C1355 1.419 . S
C1353 H1357 0.930 . S
C1354 C1353 1.369 . S
C1354 C1363 1.429 . S
C1355 C1353 1.419 . S
C1355 C1356 1.363 . S
C1355 H1358 0.929 . S
C1356 C1355 1.363 . S
C1356 C1362 1.428 . S
H1357 C1353 0.930 . S
H1358 C1355 0.929 . S
S1359 N1360 1.613 . S
S1359 N1361 1.610 . S
N1360 S1359 1.613 . S
N1360 C1363 1.350 . S
N1361 S1359 1.610 . S
N1361 C1362 1.351 . S
C1362 C1356 1.428 . S
C1362 N1361 1.351 . S
C1362 C1363 1.434 . S
C1363 C1354 1.429 . S
C1363 N1360 1.350 . S
C1363 C1362 1.434 . S
C1364 C1365 1.369 . S
C1364 C1366 1.419 . S
C1364 H1368 0.930 . S
C1365 C1364 1.369 . S
C1365 C1374 1.429 . S
C1366 C1364 1.419 . S
C1366 C1367 1.363 . S
C1366 H1369 0.929 . S
C1367 C1366 1.363 . S
C1367 C1373 1.428 . S
H1368 C1364 0.930 . S
H1369 C1366 0.929 . S
S1370 N1371 1.613 . S
S1370 N1372 1.610 . S
N1371 S1370 1.613 . S
N1371 C1374 1.350 . S
N1372 S1370 1.610 . S
N1372 C1373 1.351 . S
C1373 C1367 1.428 . S
C1373 N1372 1.351 . S
C1373 C1374 1.434 . S
C1374 C1365 1.429 . S
C1374 N1371 1.350 . S
C1374 C1373 1.434 . S
C1375 C1376 1.369 . S
C1375 C1377 1.419 . S
C1375 H1379 0.930 . S
C1376 C1375 1.369 . S
C1376 C1385 1.429 . S
C1377 C1375 1.419 . S
C1377 C1378 1.363 . S
C1377 H1380 0.929 . S
C1378 C1377 1.363 . S
C1378 C1384 1.428 . S
H1379 C1375 0.930 . S
H1380 C1377 0.929 . S
S1381 N1382 1.613 . S
S1381 N1383 1.610 . S
N1382 S1381 1.613 . S
N1382 C1385 1.350 . S
N1383 S1381 1.610 . S
N1383 C1384 1.351 . S
C1384 C1378 1.428 . S
C1384 N1383 1.351 . S
C1384 C1385 1.434 . S
C1385 C1376 1.429 . S
C1385 N1382 1.350 . S
C1385 C1384 1.434 . S
C1386 C1387 1.369 . S
C1386 C1388 1.419 . S
C1386 H1390 0.930 . S
C1387 C1386 1.369 . S
C1387 C1396 1.429 . S
C1388 C1386 1.419 . S
C1388 C1389 1.363 . S
C1388 H1391 0.929 . S
C1389 C1388 1.363 . S
C1389 C1395 1.428 . S
H1390 C1386 0.930 . S
H1391 C1388 0.929 . S
S1392 N1393 1.613 . S
S1392 N1394 1.610 . S
N1393 S1392 1.613 . S
N1393 C1396 1.350 . S
N1394 S1392 1.610 . S
N1394 C1395 1.351 . S
C1395 C1389 1.428 . S
C1395 N1394 1.351 . S
C1395 C1396 1.434 . S
C1396 C1387 1.429 . S
C1396 N1393 1.350 . S
C1396 C1395 1.434 . S
C1397 C1398 1.369 . S
C1397 C1399 1.419 . S
C1397 H1401 0.930 . S
C1398 C1397 1.369 . S
C1398 C1407 1.429 . S
C1399 C1397 1.419 . S
C1399 C1400 1.363 . S
C1399 H1402 0.929 . S
C1400 C1399 1.363 . S
C1400 C1406 1.428 . S
H1401 C1397 0.930 . S
H1402 C1399 0.929 . S
S1403 N1404 1.613 . S
S1403 N1405 1.610 . S
N1404 S1403 1.613 . S
N1404 C1407 1.350 . S
N1405 S1403 1.610 . S
N1405 C1406 1.351 . S
C1406 C1400 1.428 . S
C1406 N1405 1.351 . S
C1406 C1407 1.434 . S
C1407 C1398 1.429 . S
C1407 N1404 1.350 . S
C1407 C1406 1.434 . S
C1408 C1409 1.369 . S
C1408 C1410 1.419 . S
C1408 H1412 0.930 . S
C1409 C1408 1.369 . S
C1409 C1418 1.429 . S
C1410 C1408 1.419 . S
C1410 C1411 1.363 . S
C1410 H1413 0.929 . S
C1411 C1410 1.363 . S
C1411 C1417 1.428 . S
H1412 C1408 0.930 . S
H1413 C1410 0.929 . S
S1414 N1415 1.613 . S
S1414 N1416 1.610 . S
N1415 S1414 1.613 . S
N1415 C1418 1.350 . S
N1416 S1414 1.610 . S
N1416 C1417 1.351 . S
C1417 C1411 1.428 . S
C1417 N1416 1.351 . S
C1417 C1418 1.434 . S
C1418 C1409 1.429 . S
C1418 N1415 1.350 . S
C1418 C1417 1.434 . S
C1419 C1420 1.369 . S
C1419 C1421 1.419 . S
C1419 H1423 0.930 . S
C1420 C1419 1.369 . S
C1420 C1429 1.429 . S
C1421 C1419 1.419 . S
C1421 C1422 1.363 . S
C1421 H1424 0.929 . S
C1422 C1421 1.363 . S
C1422 C1428 1.428 . S
H1423 C1419 0.930 . S
H1424 C1421 0.929 . S
S1425 N1426 1.613 . S
S1425 N1427 1.610 . S
N1426 S1425 1.613 . S
N1426 C1429 1.350 . S
N1427 S1425 1.610 . S
N1427 C1428 1.351 . S
C1428 C1422 1.428 . S
C1428 N1427 1.351 . S
C1428 C1429 1.434 . S
C1429 C1420 1.429 . S
C1429 N1426 1.350 . S
C1429 C1428 1.434 . S
C1430 C1431 1.369 . S
C1430 C1432 1.419 . S
C1430 H1434 0.930 . S
C1431 C1430 1.369 . S
C1431 C1440 1.429 . S
C1432 C1430 1.419 . S
C1432 C1433 1.363 . S
C1432 H1435 0.929 . S
C1433 C1432 1.363 . S
C1433 C1439 1.428 . S
H1434 C1430 0.930 . S
H1435 C1432 0.929 . S
S1436 N1437 1.613 . S
S1436 N1438 1.610 . S
N1437 S1436 1.613 . S
N1437 C1440 1.350 . S
N1438 S1436 1.610 . S
N1438 C1439 1.351 . S
C1439 C1433 1.428 . S
C1439 N1438 1.351 . S
C1439 C1440 1.434 . S
C1440 C1431 1.429 . S
C1440 N1437 1.350 . S
C1440 C1439 1.434 . S
C1441 C1442 1.369 . S
C1441 C1443 1.419 . S
C1441 H1445 0.930 . S
C1442 C1441 1.369 . S
C1442 C1451 1.429 . S
C1443 C1441 1.419 . S
C1443 C1444 1.363 . S
C1443 H1446 0.929 . S
C1444 C1443 1.363 . S
C1444 C1450 1.428 . S
H1445 C1441 0.930 . S
H1446 C1443 0.929 . S
S1447 N1448 1.613 . S
S1447 N1449 1.610 . S
N1448 S1447 1.613 . S
N1448 C1451 1.350 . S
N1449 S1447 1.610 . S
N1449 C1450 1.351 . S
C1450 C1444 1.428 . S
C1450 N1449 1.351 . S
C1450 C1451 1.434 . S
C1451 C1442 1.429 . S
C1451 N1448 1.350 . S
C1451 C1450 1.434 . S
C1452 C1453 1.369 . S
C1452 C1454 1.419 . S
C1452 H1456 0.930 . S
C1453 C1452 1.369 . S
C1453 C1462 1.429 . S
C1454 C1452 1.419 . S
C1454 C1455 1.363 . S
C1454 H1457 0.929 . S
C1455 C1454 1.363 . S
C1455 C1461 1.428 . S
H1456 C1452 0.930 . S
H1457 C1454 0.929 . S
S1458 N1459 1.613 . S
S1458 N1460 1.610 . S
N1459 S1458 1.613 . S
N1459 C1462 1.350 . S
N1460 S1458 1.610 . S
N1460 C1461 1.351 . S
C1461 C1455 1.428 . S
C1461 N1460 1.351 . S
C1461 C1462 1.434 . S
C1462 C1453 1.429 . S
C1462 N1459 1.350 . S
C1462 C1461 1.434 . S
C1463 C1464 1.369 . S
C1463 C1465 1.419 . S
C1463 H1467 0.930 . S
C1464 C1463 1.369 . S
C1464 C1473 1.429 . S
C1465 C1463 1.419 . S
C1465 C1466 1.363 . S
C1465 H1468 0.929 . S
C1466 C1465 1.363 . S
C1466 C1472 1.428 . S
H1467 C1463 0.930 . S
H1468 C1465 0.929 . S
S1469 N1470 1.613 . S
S1469 N1471 1.610 . S
N1470 S1469 1.613 . S
N1470 C1473 1.350 . S
N1471 S1469 1.610 . S
N1471 C1472 1.351 . S
C1472 C1466 1.428 . S
C1472 N1471 1.351 . S
C1472 C1473 1.434 . S
C1473 C1464 1.429 . S
C1473 N1470 1.350 . S
C1473 C1472 1.434 . S
C1474 C1475 1.369 . S
C1474 C1476 1.419 . S
C1474 H1478 0.930 . S
C1475 C1474 1.369 . S
C1475 C1484 1.429 . S
C1476 C1474 1.419 . S
C1476 C1477 1.363 . S
C1476 H1479 0.929 . S
C1477 C1476 1.363 . S
C1477 C1483 1.428 . S
H1478 C1474 0.930 . S
H1479 C1476 0.929 . S
S1480 N1481 1.613 . S
S1480 N1482 1.610 . S
N1481 S1480 1.613 . S
N1481 C1484 1.350 . S
N1482 S1480 1.610 . S
N1482 C1483 1.351 . S
C1483 C1477 1.428 . S
C1483 N1482 1.351 . S
C1483 C1484 1.434 . S
C1484 C1475 1.429 . S
C1484 N1481 1.350 . S
C1484 C1483 1.434 . S
C1485 C1486 1.369 . S
C1485 C1487 1.419 . S
C1485 H1489 0.930 . S
C1486 C1485 1.369 . S
C1486 C1495 1.429 . S
C1487 C1485 1.419 . S
C1487 C1488 1.363 . S
C1487 H1490 0.929 . S
C1488 C1487 1.363 . S
C1488 C1494 1.428 . S
H1489 C1485 0.930 . S
H1490 C1487 0.929 . S
S1491 N1492 1.613 . S
S1491 N1493 1.610 . S
N1492 S1491 1.613 . S
N1492 C1495 1.350 . S
N1493 S1491 1.610 . S
N1493 C1494 1.351 . S
C1494 C1488 1.428 . S
C1494 N1493 1.351 . S
C1494 C1495 1.434 . S
C1495 C1486 1.429 . S
C1495 N1492 1.350 . S
C1495 C1494 1.434 . S
C1496 C1497 1.369 . S
C1496 C1498 1.419 . S
C1496 H1500 0.930 . S
C1497 C1496 1.369 . S
C1497 C1506 1.429 . S
C1498 C1496 1.419 . S
C1498 C1499 1.363 . S
C1498 H1501 0.929 . S
C1499 C1498 1.363 . S
C1499 C1505 1.428 . S
H1500 C1496 0.930 . S
H1501 C1498 0.929 . S
S1502 N1503 1.613 . S
S1502 N1504 1.610 . S
N1503 S1502 1.613 . S
N1503 C1506 1.350 . S
N1504 S1502 1.610 . S
N1504 C1505 1.351 . S
C1505 C1499 1.428 . S
C1505 N1504 1.351 . S
C1505 C1506 1.434 . S
C1506 C1497 1.429 . S
C1506 N1503 1.350 . S
C1506 C1505 1.434 . S
C1507 C1508 1.369 . S
C1507 C1509 1.419 . S
C1507 H1511 0.930 . S
C1508 C1507 1.369 . S
C1508 C1517 1.429 . S
C1509 C1507 1.419 . S
C1509 C1510 1.363 . S
C1509 H1512 0.929 . S
C1510 C1509 1.363 . S
C1510 C1516 1.428 . S
H1511 C1507 0.930 . S
H1512 C1509 0.929 . S
S1513 N1514 1.613 . S
S1513 N1515 1.610 . S
N1514 S1513 1.613 . S
N1514 C1517 1.350 . S
N1515 S1513 1.610 . S
N1515 C1516 1.351 . S
C1516 C1510 1.428 . S
C1516 N1515 1.351 . S
C1516 C1517 1.434 . S
C1517 C1508 1.429 . S
C1517 N1514 1.350 . S
C1517 C1516 1.434 . S
C1518 C1519 1.369 . S
C1518 C1520 1.419 . S
C1518 H1522 0.930 . S
C1519 C1518 1.369 . S
C1519 C1528 1.429 . S
C1520 C1518 1.419 . S
C1520 C1521 1.363 . S
C1520 H1523 0.929 . S
C1521 C1520 1.363 . S
C1521 C1527 1.428 . S
H1522 C1518 0.930 . S
H1523 C1520 0.929 . S
S1524 N1525 1.613 . S
S1524 N1526 1.610 . S
N1525 S1524 1.613 . S
N1525 C1528 1.350 . S
N1526 S1524 1.610 . S
N1526 C1527 1.351 . S
C1527 C1521 1.428 . S
C1527 N1526 1.351 . S
C1527 C1528 1.434 . S
C1528 C1519 1.429 . S
C1528 N1525 1.350 . S
C1528 C1527 1.434 . S
C1529 C1530 1.369 . S
C1529 C1531 1.419 . S
C1529 H1533 0.930 . S
C1530 C1529 1.369 . S
C1530 C1539 1.429 . S
C1531 C1529 1.419 . S
C1531 C1532 1.363 . S
C1531 H1534 0.929 . S
C1532 C1531 1.363 . S
C1532 C1538 1.428 . S
H1533 C1529 0.930 . S
H1534 C1531 0.929 . S
S1535 N1536 1.613 . S
S1535 N1537 1.610 . S
N1536 S1535 1.613 . S
N1536 C1539 1.350 . S
N1537 S1535 1.610 . S
N1537 C1538 1.351 . S
C1538 C1532 1.428 . S
C1538 N1537 1.351 . S
C1538 C1539 1.434 . S
C1539 C1530 1.429 . S
C1539 N1536 1.350 . S
C1539 C1538 1.434 . S
C1540 C1541 1.369 . S
C1540 C1542 1.419 . S
C1540 H1544 0.930 . S
C1541 C1540 1.369 . S
C1541 C1550 1.429 . S
C1542 C1540 1.419 . S
C1542 C1543 1.363 . S
C1542 H1545 0.929 . S
C1543 C1542 1.363 . S
C1543 C1549 1.428 . S
H1544 C1540 0.930 . S
H1545 C1542 0.929 . S
S1546 N1547 1.613 . S
S1546 N1548 1.610 . S
N1547 S1546 1.613 . S
N1547 C1550 1.350 . S
N1548 S1546 1.610 . S
N1548 C1549 1.351 . S
C1549 C1543 1.428 . S
C1549 N1548 1.351 . S
C1549 C1550 1.434 . S
C1550 C1541 1.429 . S
C1550 N1547 1.350 . S
C1550 C1549 1.434 . S
C1551 C1552 1.369 . S
C1551 C1553 1.419 . S
C1551 H1555 0.930 . S
C1552 C1551 1.369 . S
C1552 C1561 1.429 . S
C1553 C1551 1.419 . S
C1553 C1554 1.363 . S
C1553 H1556 0.929 . S
C1554 C1553 1.363 . S
C1554 C1560 1.428 . S
H1555 C1551 0.930 . S
H1556 C1553 0.929 . S
S1557 N1558 1.613 . S
S1557 N1559 1.610 . S
N1558 S1557 1.613 . S
N1558 C1561 1.350 . S
N1559 S1557 1.610 . S
N1559 C1560 1.351 . S
C1560 C1554 1.428 . S
C1560 N1559 1.351 . S
C1560 C1561 1.434 . S
C1561 C1552 1.429 . S
C1561 N1558 1.350 . S
C1561 C1560 1.434 . S
C1562 C1563 1.369 . S
C1562 C1564 1.419 . S
C1562 H1566 0.930 . S
C1563 C1562 1.369 . S
C1563 C1572 1.429 . S
C1564 C1562 1.419 . S
C1564 C1565 1.363 . S
C1564 H1567 0.929 . S
C1565 C1564 1.363 . S
C1565 C1571 1.428 . S
H1566 C1562 0.930 . S
H1567 C1564 0.929 . S
S1568 N1569 1.613 . S
S1568 N1570 1.610 . S
N1569 S1568 1.613 . S
N1569 C1572 1.350 . S
N1570 S1568 1.610 . S
N1570 C1571 1.351 . S
C1571 C1565 1.428 . S
C1571 N1570 1.351 . S
C1571 C1572 1.434 . S
C1572 C1563 1.429 . S
C1572 N1569 1.350 . S
C1572 C1571 1.434 . S
C1573 C1574 1.369 . S
C1573 C1575 1.419 . S
C1573 H1577 0.930 . S
C1574 C1573 1.369 . S
C1574 C1583 1.429 . S
C1575 C1573 1.419 . S
C1575 C1576 1.363 . S
C1575 H1578 0.929 . S
C1576 C1575 1.363 . S
C1576 C1582 1.428 . S
H1577 C1573 0.930 . S
H1578 C1575 0.929 . S
S1579 N1580 1.613 . S
S1579 N1581 1.610 . S
N1580 S1579 1.613 . S
N1580 C1583 1.350 . S
N1581 S1579 1.610 . S
N1581 C1582 1.351 . S
C1582 C1576 1.428 . S
C1582 N1581 1.351 . S
C1582 C1583 1.434 . S
C1583 C1574 1.429 . S
C1583 N1580 1.350 . S
C1583 C1582 1.434 . S
C1584 C1585 1.369 . S
C1584 C1586 1.419 . S
C1584 H1588 0.930 . S
C1585 C1584 1.369 . S
C1585 C1594 1.429 . S
C1586 C1584 1.419 . S
C1586 C1587 1.363 . S
C1586 H1589 0.929 . S
C1587 C1586 1.363 . S
C1587 C1593 1.428 . S
H1588 C1584 0.930 . S
H1589 C1586 0.929 . S
S1590 N1591 1.613 . S
S1590 N1592 1.610 . S
N1591 S1590 1.613 . S
N1591 C1594 1.350 . S
N1592 S1590 1.610 . S
N1592 C1593 1.351 . S
C1593 C1587 1.428 . S
C1593 N1592 1.351 . S
C1593 C1594 1.434 . S
C1594 C1585 1.429 . S
C1594 N1591 1.350 . S
C1594 C1593 1.434 . S
C1595 C1596 1.369 . S
C1595 C1597 1.419 . S
C1595 H1599 0.930 . S
C1596 C1595 1.369 . S
C1596 C1605 1.429 . S
C1597 C1595 1.419 . S
C1597 C1598 1.363 . S
C1597 H1600 0.929 . S
C1598 C1597 1.363 . S
C1598 C1604 1.428 . S
H1599 C1595 0.930 . S
H1600 C1597 0.929 . S
S1601 N1602 1.613 . S
S1601 N1603 1.610 . S
N1602 S1601 1.613 . S
N1602 C1605 1.350 . S
N1603 S1601 1.610 . S
N1603 C1604 1.351 . S
C1604 C1598 1.428 . S
C1604 N1603 1.351 . S
C1604 C1605 1.434 . S
C1605 C1596 1.429 . S
C1605 N1602 1.350 . S
C1605 C1604 1.434 . S
C1606 C1607 1.369 . S
C1606 C1608 1.419 . S
C1606 H1610 0.930 . S
C1607 C1606 1.369 . S
C1607 C1616 1.429 . S
C1608 C1606 1.419 . S
C1608 C1609 1.363 . S
C1608 H1611 0.929 . S
C1609 C1608 1.363 . S
C1609 C1615 1.428 . S
H1610 C1606 0.930 . S
H1611 C1608 0.929 . S
S1612 N1613 1.613 . S
S1612 N1614 1.610 . S
N1613 S1612 1.613 . S
N1613 C1616 1.350 . S
N1614 S1612 1.610 . S
N1614 C1615 1.351 . S
C1615 C1609 1.428 . S
C1615 N1614 1.351 . S
C1615 C1616 1.434 . S
C1616 C1607 1.429 . S
C1616 N1613 1.350 . S
C1616 C1615 1.434 . S
C1617 C1618 1.369 . S
C1617 C1619 1.419 . S
C1617 H1621 0.930 . S
C1618 C1617 1.369 . S
C1618 C1627 1.429 . S
C1619 C1617 1.419 . S
C1619 C1620 1.363 . S
C1619 H1622 0.929 . S
C1620 C1619 1.363 . S
C1620 C1626 1.428 . S
H1621 C1617 0.930 . S
H1622 C1619 0.929 . S
S1623 N1624 1.613 . S
S1623 N1625 1.610 . S
N1624 S1623 1.613 . S
N1624 C1627 1.350 . S
N1625 S1623 1.610 . S
N1625 C1626 1.351 . S
C1626 C1620 1.428 . S
C1626 N1625 1.351 . S
C1626 C1627 1.434 . S
C1627 C1618 1.429 . S
C1627 N1624 1.350 . S
C1627 C1626 1.434 . S
C1628 C1629 1.369 . S
C1628 C1630 1.419 . S
C1628 H1632 0.930 . S
C1629 C1628 1.369 . S
C1629 C1638 1.429 . S
C1630 C1628 1.419 . S
C1630 C1631 1.363 . S
C1630 H1633 0.929 . S
C1631 C1630 1.363 . S
C1631 C1637 1.428 . S
H1632 C1628 0.930 . S
H1633 C1630 0.929 . S
S1634 N1635 1.613 . S
S1634 N1636 1.610 . S
N1635 S1634 1.613 . S
N1635 C1638 1.350 . S
N1636 S1634 1.610 . S
N1636 C1637 1.351 . S
C1637 C1631 1.428 . S
C1637 N1636 1.351 . S
C1637 C1638 1.434 . S
C1638 C1629 1.429 . S
C1638 N1635 1.350 . S
C1638 C1637 1.434 . S
C1639 C1640 1.369 . S
C1639 C1641 1.419 . S
C1639 H1643 0.930 . S
C1640 C1639 1.369 . S
C1640 C1649 1.429 . S
C1641 C1639 1.419 . S
C1641 C1642 1.363 . S
C1641 H1644 0.929 . S
C1642 C1641 1.363 . S
C1642 C1648 1.428 . S
H1643 C1639 0.930 . S
H1644 C1641 0.929 . S
S1645 N1646 1.613 . S
S1645 N1647 1.610 . S
N1646 S1645 1.613 . S
N1646 C1649 1.350 . S
N1647 S1645 1.610 . S
N1647 C1648 1.351 . S
C1648 C1642 1.428 . S
C1648 N1647 1.351 . S
C1648 C1649 1.434 . S
C1649 C1640 1.429 . S
C1649 N1646 1.350 . S
C1649 C1648 1.434 . S
C1650 C1651 1.369 . S
C1650 C1652 1.419 . S
C1650 H1654 0.930 . S
C1651 C1650 1.369 . S
C1651 C1660 1.429 . S
C1652 C1650 1.419 . S
C1652 C1653 1.363 . S
C1652 H1655 0.929 . S
C1653 C1652 1.363 . S
C1653 C1659 1.428 . S
H1654 C1650 0.930 . S
H1655 C1652 0.929 . S
S1656 N1657 1.613 . S
S1656 N1658 1.610 . S
N1657 S1656 1.613 . S
N1657 C1660 1.350 . S
N1658 S1656 1.610 . S
N1658 C1659 1.351 . S
C1659 C1653 1.428 . S
C1659 N1658 1.351 . S
C1659 C1660 1.434 . S
C1660 C1651 1.429 . S
C1660 N1657 1.350 . S
C1660 C1659 1.434 . S
C1661 C1662 1.369 . S
C1661 C1663 1.419 . S
C1661 H1665 0.930 . S
C1662 C1661 1.369 . S
C1662 C1671 1.429 . S
C1663 C1661 1.419 . S
C1663 C1664 1.363 . S
C1663 H1666 0.929 . S
C1664 C1663 1.363 . S
C1664 C1670 1.428 . S
H1665 C1661 0.930 . S
H1666 C1663 0.929 . S
S1667 N1668 1.613 . S
S1667 N1669 1.610 . S
N1668 S1667 1.613 . S
N1668 C1671 1.350 . S
N1669 S1667 1.610 . S
N1669 C1670 1.351 . S
C1670 C1664 1.428 . S
C1670 N1669 1.351 . S
C1670 C1671 1.434 . S
C1671 C1662 1.429 . S
C1671 N1668 1.350 . S
C1671 C1670 1.434 . S
C1672 C1673 1.369 . S
C1672 C1674 1.419 . S
C1672 H1676 0.930 . S
C1673 C1672 1.369 . S
C1673 C1682 1.429 . S
C1674 C1672 1.419 . S
C1674 C1675 1.363 . S
C1674 H1677 0.929 . S
C1675 C1674 1.363 . S
C1675 C1681 1.428 . S
H1676 C1672 0.930 . S
H1677 C1674 0.929 . S
S1678 N1679 1.613 . S
S1678 N1680 1.610 . S
N1679 S1678 1.613 . S
N1679 C1682 1.350 . S
N1680 S1678 1.610 . S
N1680 C1681 1.351 . S
C1681 C1675 1.428 . S
C1681 N1680 1.351 . S
C1681 C1682 1.434 . S
C1682 C1673 1.429 . S
C1682 N1679 1.350 . S
C1682 C1681 1.434 . S
C1683 C1684 1.369 . S
C1683 C1685 1.419 . S
C1683 H1687 0.930 . S
C1684 C1683 1.369 . S
C1684 C1693 1.429 . S
C1685 C1683 1.419 . S
C1685 C1686 1.363 . S
C1685 H1688 0.929 . S
C1686 C1685 1.363 . S
C1686 C1692 1.428 . S
H1687 C1683 0.930 . S
H1688 C1685 0.929 . S
S1689 N1690 1.613 . S
S1689 N1691 1.610 . S
N1690 S1689 1.613 . S
N1690 C1693 1.350 . S
N1691 S1689 1.610 . S
N1691 C1692 1.351 . S
C1692 C1686 1.428 . S
C1692 N1691 1.351 . S
C1692 C1693 1.434 . S
C1693 C1684 1.429 . S
C1693 N1690 1.350 . S
C1693 C1692 1.434 . S
C1694 C1695 1.369 . S
C1694 C1696 1.419 . S
C1694 H1698 0.930 . S
C1695 C1694 1.369 . S
C1695 C1704 1.429 . S
C1696 C1694 1.419 . S
C1696 C1697 1.363 . S
C1696 H1699 0.929 . S
C1697 C1696 1.363 . S
C1697 C1703 1.428 . S
H1698 C1694 0.930 . S
H1699 C1696 0.929 . S
S1700 N1701 1.613 . S
S1700 N1702 1.610 . S
N1701 S1700 1.613 . S
N1701 C1704 1.350 . S
N1702 S1700 1.610 . S
N1702 C1703 1.351 . S
C1703 C1697 1.428 . S
C1703 N1702 1.351 . S
C1703 C1704 1.434 . S
C1704 C1695 1.429 . S
C1704 N1701 1.350 . S
C1704 C1703 1.434 . S
C1705 C1706 1.369 . S
C1705 C1707 1.419 . S
C1705 H1709 0.930 . S
C1706 C1705 1.369 . S
C1706 C1715 1.429 . S
C1707 C1705 1.419 . S
C1707 C1708 1.363 . S
C1707 H1710 0.929 . S
C1708 C1707 1.363 . S
C1708 C1714 1.428 . S
H1709 C1705 0.930 . S
H1710 C1707 0.929 . S
S1711 N1712 1.613 . S
S1711 N1713 1.610 . S
N1712 S1711 1.613 . S
N1712 C1715 1.350 . S
N1713 S1711 1.610 . S
N1713 C1714 1.351 . S
C1714 C1708 1.428 . S
C1714 N1713 1.351 . S
C1714 C1715 1.434 . S
C1715 C1706 1.429 . S
C1715 N1712 1.350 . S
C1715 C1714 1.434 . S
C1716 C1717 1.369 . S
C1716 C1718 1.419 . S
C1716 H1720 0.930 . S
C1717 C1716 1.369 . S
C1717 C1726 1.429 . S
C1718 C1716 1.419 . S
C1718 C1719 1.363 . S
C1718 H1721 0.929 . S
C1719 C1718 1.363 . S
C1719 C1725 1.428 . S
H1720 C1716 0.930 . S
H1721 C1718 0.929 . S
S1722 N1723 1.613 . S
S1722 N1724 1.610 . S
N1723 S1722 1.613 . S
N1723 C1726 1.350 . S
N1724 S1722 1.610 . S
N1724 C1725 1.351 . S
C1725 C1719 1.428 . S
C1725 N1724 1.351 . S
C1725 C1726 1.434 . S
C1726 C1717 1.429 . S
C1726 N1723 1.350 . S
C1726 C1725 1.434 . S
C1727 C1728 1.369 . S
C1727 C1729 1.419 1_565 S
C1727 H1731 0.930 . S
C1728 C1727 1.369 . S
C1728 C1737 1.429 . S
C1729 C1727 1.419 1_545 S
C1729 C1730 1.363 . S
C1729 H1732 0.929 . S
C1730 C1729 1.363 . S
C1730 C1736 1.428 1_545 S
H1731 C1727 0.930 . S
H1732 C1729 0.929 . S
S1733 N1734 1.613 . S
S1733 N1735 1.610 . S
N1734 S1733 1.613 . S
N1734 C1737 1.350 . S
N1735 S1733 1.610 . S
N1735 C1736 1.351 . S
C1736 C1730 1.428 1_565 S
C1736 N1735 1.351 . S
C1736 C1737 1.434 . S
C1737 C1728 1.429 . S
C1737 N1734 1.350 . S
C1737 C1736 1.434 . S
C1738 C1739 1.369 . S
C1738 C1740 1.419 . S
C1738 H1742 0.930 . S
C1739 C1738 1.369 . S
C1739 C1748 1.429 . S
C1740 C1738 1.419 . S
C1740 C1741 1.363 . S
C1740 H1743 0.929 . S
C1741 C1740 1.363 . S
C1741 C1747 1.428 . S
H1742 C1738 0.930 . S
H1743 C1740 0.929 . S
S1744 N1745 1.613 . S
S1744 N1746 1.610 . S
N1745 S1744 1.613 . S
N1745 C1748 1.350 . S
N1746 S1744 1.610 . S
N1746 C1747 1.351 . S
C1747 C1741 1.428 . S
C1747 N1746 1.351 . S
C1747 C1748 1.434 . S
C1748 C1739 1.429 . S
C1748 N1745 1.350 . S
C1748 C1747 1.434 . S
C1749 C1750 1.369 . S
C1749 C1751 1.419 . S
C1749 H1753 0.930 . S
C1750 C1749 1.369 . S
C1750 C1759 1.429 . S
C1751 C1749 1.419 . S
C1751 C1752 1.363 . S
C1751 H1754 0.929 . S
C1752 C1751 1.363 . S
C1752 C1758 1.428 . S
H1753 C1749 0.930 . S
H1754 C1751 0.929 . S
S1755 N1756 1.613 . S
S1755 N1757 1.610 . S
N1756 S1755 1.613 . S
N1756 C1759 1.350 . S
N1757 S1755 1.610 . S
N1757 C1758 1.351 . S
C1758 C1752 1.428 . S
C1758 N1757 1.351 . S
C1758 C1759 1.434 . S
C1759 C1750 1.429 . S
C1759 N1756 1.350 . S
C1759 C1758 1.434 . S
C1760 C1761 1.369 . S
C1760 C1762 1.419 . S
C1760 H1764 0.930 . S
C1761 C1760 1.369 . S
C1761 C1770 1.429 . S
C1762 C1760 1.419 . S
C1762 C1763 1.363 . S
C1762 H1765 0.929 . S
C1763 C1762 1.363 . S
C1763 C1769 1.428 . S
H1764 C1760 0.930 . S
H1765 C1762 0.929 . S
S1766 N1767 1.613 . S
S1766 N1768 1.610 . S
N1767 S1766 1.613 . S
N1767 C1770 1.350 . S
N1768 S1766 1.610 . S
N1768 C1769 1.351 . S
C1769 C1763 1.428 . S
C1769 N1768 1.351 . S
C1769 C1770 1.434 . S
C1770 C1761 1.429 . S
C1770 N1767 1.350 . S
C1770 C1769 1.434 . S
C1771 C1772 1.369 . S
C1771 C1773 1.419 . S
C1771 H1775 0.930 . S
C1772 C1771 1.369 . S
C1772 C1781 1.429 . S
C1773 C1771 1.419 . S
C1773 C1774 1.363 . S
C1773 H1776 0.929 . S
C1774 C1773 1.363 . S
C1774 C1780 1.428 . S
H1775 C1771 0.930 . S
H1776 C1773 0.929 . S
S1777 N1778 1.613 . S
S1777 N1779 1.610 . S
N1778 S1777 1.613 . S
N1778 C1781 1.350 . S
N1779 S1777 1.610 . S
N1779 C1780 1.351 . S
C1780 C1774 1.428 . S
C1780 N1779 1.351 . S
C1780 C1781 1.434 . S
C1781 C1772 1.429 . S
C1781 N1778 1.350 . S
C1781 C1780 1.434 . S
C1782 C1783 1.369 . S
C1782 C1784 1.419 . S
C1782 H1786 0.930 . S
C1783 C1782 1.369 . S
C1783 C1792 1.429 . S
C1784 C1782 1.419 . S
C1784 C1785 1.363 . S
C1784 H1787 0.929 . S
C1785 C1784 1.363 . S
C1785 C1791 1.428 . S
H1786 C1782 0.930 . S
H1787 C1784 0.929 . S
S1788 N1789 1.613 . S
S1788 N1790 1.610 . S
N1789 S1788 1.613 . S
N1789 C1792 1.350 . S
N1790 S1788 1.610 . S
N1790 C1791 1.351 . S
C1791 C1785 1.428 . S
C1791 N1790 1.351 . S
C1791 C1792 1.434 . S
C1792 C1783 1.429 . S
C1792 N1789 1.350 . S
C1792 C1791 1.434 . S
C1793 C1794 1.369 . S
C1793 C1795 1.419 . S
C1793 H1797 0.930 . S
C1794 C1793 1.369 . S
C1794 C1803 1.429 . S
C1795 C1793 1.419 . S
C1795 C1796 1.363 . S
C1795 H1798 0.929 . S
C1796 C1795 1.363 . S
C1796 C1802 1.428 . S
H1797 C1793 0.930 . S
H1798 C1795 0.929 . S
S1799 N1800 1.613 . S
S1799 N1801 1.610 . S
N1800 S1799 1.613 . S
N1800 C1803 1.350 . S
N1801 S1799 1.610 . S
N1801 C1802 1.351 . S
C1802 C1796 1.428 . S
C1802 N1801 1.351 . S
C1802 C1803 1.434 . S
C1803 C1794 1.429 . S
C1803 N1800 1.350 . S
C1803 C1802 1.434 . S
C1804 C1805 1.369 . S
C1804 C1806 1.419 . S
C1804 H1808 0.930 . S
C1805 C1804 1.369 . S
C1805 C1814 1.429 . S
C1806 C1804 1.419 . S
C1806 C1807 1.363 . S
C1806 H1809 0.929 . S
C1807 C1806 1.363 . S
C1807 C1813 1.428 . S
H1808 C1804 0.930 . S
H1809 C1806 0.929 . S
S1810 N1811 1.613 . S
S1810 N1812 1.610 . S
N1811 S1810 1.613 . S
N1811 C1814 1.350 . S
N1812 S1810 1.610 . S
N1812 C1813 1.351 . S
C1813 C1807 1.428 . S
C1813 N1812 1.351 . S
C1813 C1814 1.434 . S
C1814 C1805 1.429 . S
C1814 N1811 1.350 . S
C1814 C1813 1.434 . S
C1815 C1816 1.369 . S
C1815 C1817 1.419 . S
C1815 H1819 0.930 . S
C1816 C1815 1.369 . S
C1816 C1825 1.429 . S
C1817 C1815 1.419 . S
C1817 C1818 1.363 . S
C1817 H1820 0.929 . S
C1818 C1817 1.363 . S
C1818 C1824 1.428 . S
H1819 C1815 0.930 . S
H1820 C1817 0.929 . S
S1821 N1822 1.613 . S
S1821 N1823 1.610 . S
N1822 S1821 1.613 . S
N1822 C1825 1.350 . S
N1823 S1821 1.610 . S
N1823 C1824 1.351 . S
C1824 C1818 1.428 . S
C1824 N1823 1.351 . S
C1824 C1825 1.434 . S
C1825 C1816 1.429 . S
C1825 N1822 1.350 . S
C1825 C1824 1.434 . S
C1826 C1827 1.369 . S
C1826 C1828 1.419 . S
C1826 H1830 0.930 . S
C1827 C1826 1.369 . S
C1827 C1836 1.429 . S
C1828 C1826 1.419 . S
C1828 C1829 1.363 . S
C1828 H1831 0.929 . S
C1829 C1828 1.363 . S
C1829 C1835 1.428 . S
H1830 C1826 0.930 . S
H1831 C1828 0.929 . S
S1832 N1833 1.613 . S
S1832 N1834 1.610 . S
N1833 S1832 1.613 . S
N1833 C1836 1.350 . S
N1834 S1832 1.610 . S
N1834 C1835 1.351 . S
C1835 C1829 1.428 . S
C1835 N1834 1.351 . S
C1835 C1836 1.434 . S
C1836 C1827 1.429 . S
C1836 N1833 1.350 . S
C1836 C1835 1.434 . S
C1837 C1838 1.369 . S
C1837 C1839 1.419 . S
C1837 H1841 0.930 . S
C1838 C1837 1.369 . S
C1838 C1847 1.429 . S
C1839 C1837 1.419 . S
C1839 C1840 1.363 . S
C1839 H1842 0.929 . S
C1840 C1839 1.363 . S
C1840 C1846 1.428 . S
H1841 C1837 0.930 . S
H1842 C1839 0.929 . S
S1843 N1844 1.613 . S
S1843 N1845 1.610 . S
N1844 S1843 1.613 . S
N1844 C1847 1.350 . S
N1845 S1843 1.610 . S
N1845 C1846 1.351 . S
C1846 C1840 1.428 . S
C1846 N1845 1.351 . S
C1846 C1847 1.434 . S
C1847 C1838 1.429 . S
C1847 N1844 1.350 . S
C1847 C1846 1.434 . S
C1848 C1849 1.369 . S
C1848 C1850 1.419 . S
C1848 H1852 0.930 . S
C1849 C1848 1.369 . S
C1849 C1858 1.429 . S
C1850 C1848 1.419 . S
C1850 C1851 1.363 . S
C1850 H1853 0.929 . S
C1851 C1850 1.363 . S
C1851 C1857 1.428 . S
H1852 C1848 0.930 . S
H1853 C1850 0.929 . S
S1854 N1855 1.613 . S
S1854 N1856 1.610 . S
N1855 S1854 1.613 . S
N1855 C1858 1.350 . S
N1856 S1854 1.610 . S
N1856 C1857 1.351 . S
C1857 C1851 1.428 . S
C1857 N1856 1.351 . S
C1857 C1858 1.434 . S
C1858 C1849 1.429 . S
C1858 N1855 1.350 . S
C1858 C1857 1.434 . S
C1859 C1860 1.369 . S
C1859 C1861 1.419 . S
C1859 H1863 0.930 . S
C1860 C1859 1.369 . S
C1860 C1869 1.429 . S
C1861 C1859 1.419 . S
C1861 C1862 1.363 . S
C1861 H1864 0.929 . S
C1862 C1861 1.363 . S
C1862 C1868 1.428 . S
H1863 C1859 0.930 . S
H1864 C1861 0.929 . S
S1865 N1866 1.613 . S
S1865 N1867 1.610 . S
N1866 S1865 1.613 . S
N1866 C1869 1.350 . S
N1867 S1865 1.610 . S
N1867 C1868 1.351 . S
C1868 C1862 1.428 . S
C1868 N1867 1.351 . S
C1868 C1869 1.434 . S
C1869 C1860 1.429 . S
C1869 N1866 1.350 . S
C1869 C1868 1.434 . S
C1870 C1871 1.369 . S
C1870 C1872 1.419 . S
C1870 H1874 0.930 . S
C1871 C1870 1.369 . S
C1871 C1880 1.429 . S
C1872 C1870 1.419 . S
C1872 C1873 1.363 . S
C1872 H1875 0.929 . S
C1873 C1872 1.363 . S
C1873 C1879 1.428 . S
H1874 C1870 0.930 . S
H1875 C1872 0.929 . S
S1876 N1877 1.613 . S
S1876 N1878 1.610 . S
N1877 S1876 1.613 . S
N1877 C1880 1.350 . S
N1878 S1876 1.610 . S
N1878 C1879 1.351 . S
C1879 C1873 1.428 . S
C1879 N1878 1.351 . S
C1879 C1880 1.434 . S
C1880 C1871 1.429 . S
C1880 N1877 1.350 . S
C1880 C1879 1.434 . S
C1881 C1882 1.369 . S
C1881 C1883 1.419 . S
C1881 H1885 0.930 . S
C1882 C1881 1.369 . S
C1882 C1891 1.429 . S
C1883 C1881 1.419 . S
C1883 C1884 1.363 . S
C1883 H1886 0.929 . S
C1884 C1883 1.363 . S
C1884 C1890 1.428 . S
H1885 C1881 0.930 . S
H1886 C1883 0.929 . S
S1887 N1888 1.613 . S
S1887 N1889 1.610 . S
N1888 S1887 1.613 . S
N1888 C1891 1.350 . S
N1889 S1887 1.610 . S
N1889 C1890 1.351 . S
C1890 C1884 1.428 . S
C1890 N1889 1.351 . S
C1890 C1891 1.434 . S
C1891 C1882 1.429 . S
C1891 N1888 1.350 . S
C1891 C1890 1.434 . S
C1892 C1893 1.369 . S
C1892 C1894 1.419 . S
C1892 H1896 0.930 . S
C1893 C1892 1.369 . S
C1893 C1902 1.429 . S
C1894 C1892 1.419 . S
C1894 C1895 1.363 . S
C1894 H1897 0.929 . S
C1895 C1894 1.363 . S
C1895 C1901 1.428 . S
H1896 C1892 0.930 . S
H1897 C1894 0.929 . S
S1898 N1899 1.613 . S
S1898 N1900 1.610 . S
N1899 S1898 1.613 . S
N1899 C1902 1.350 . S
N1900 S1898 1.610 . S
N1900 C1901 1.351 . S
C1901 C1895 1.428 . S
C1901 N1900 1.351 . S
C1901 C1902 1.434 . S
C1902 C1893 1.429 . S
C1902 N1899 1.350 . S
C1902 C1901 1.434 . S
C1903 C1904 1.369 . S
C1903 C1905 1.419 . S
C1903 H1907 0.930 . S
C1904 C1903 1.369 . S
C1904 C1913 1.429 . S
C1905 C1903 1.419 . S
C1905 C1906 1.363 . S
C1905 H1908 0.929 . S
C1906 C1905 1.363 . S
C1906 C1912 1.428 . S
H1907 C1903 0.930 . S
H1908 C1905 0.929 . S
S1909 N1910 1.613 . S
S1909 N1911 1.610 . S
N1910 S1909 1.613 . S
N1910 C1913 1.350 . S
N1911 S1909 1.610 . S
N1911 C1912 1.351 . S
C1912 C1906 1.428 . S
C1912 N1911 1.351 . S
C1912 C1913 1.434 . S
C1913 C1904 1.429 . S
C1913 N1910 1.350 . S
C1913 C1912 1.434 . S
C1914 C1915 1.369 . S
C1914 C1916 1.419 . S
C1914 H1918 0.930 . S
C1915 C1914 1.369 . S
C1915 C1924 1.429 . S
C1916 C1914 1.419 . S
C1916 C1917 1.363 . S
C1916 H1919 0.929 . S
C1917 C1916 1.363 . S
C1917 C1923 1.428 . S
H1918 C1914 0.930 . S
H1919 C1916 0.929 . S
S1920 N1921 1.613 . S
S1920 N1922 1.610 . S
N1921 S1920 1.613 . S
N1921 C1924 1.350 . S
N1922 S1920 1.610 . S
N1922 C1923 1.351 . S
C1923 C1917 1.428 . S
C1923 N1922 1.351 . S
C1923 C1924 1.434 . S
C1924 C1915 1.429 . S
C1924 N1921 1.350 . S
C1924 C1923 1.434 . S
C1925 C1926 1.369 . S
C1925 C1927 1.419 . S
C1925 H1929 0.930 . S
C1926 C1925 1.369 . S
C1926 C1935 1.429 . S
C1927 C1925 1.419 . S
C1927 C1928 1.363 . S
C1927 H1930 0.929 . S
C1928 C1927 1.363 . S
C1928 C1934 1.428 . S
H1929 C1925 0.930 . S
H1930 C1927 0.929 . S
S1931 N1932 1.613 . S
S1931 N1933 1.610 . S
N1932 S1931 1.613 . S
N1932 C1935 1.350 . S
N1933 S1931 1.610 . S
N1933 C1934 1.351 . S
C1934 C1928 1.428 . S
C1934 N1933 1.351 . S
C1934 C1935 1.434 . S
C1935 C1926 1.429 . S
C1935 N1932 1.350 . S
C1935 C1934 1.434 . S
C1936 C1937 1.369 . S
C1936 C1938 1.419 . S
C1936 H1940 0.930 . S
C1937 C1936 1.369 . S
C1937 C1946 1.429 . S
C1938 C1936 1.419 . S
C1938 C1939 1.363 . S
C1938 H1941 0.929 . S
C1939 C1938 1.363 . S
C1939 C1945 1.428 . S
H1940 C1936 0.930 . S
H1941 C1938 0.929 . S
S1942 N1943 1.613 . S
S1942 N1944 1.610 . S
N1943 S1942 1.613 . S
N1943 C1946 1.350 . S
N1944 S1942 1.610 . S
N1944 C1945 1.351 . S
C1945 C1939 1.428 . S
C1945 N1944 1.351 . S
C1945 C1946 1.434 . S
C1946 C1937 1.429 . S
C1946 N1943 1.350 . S
C1946 C1945 1.434 . S
C1947 C1948 1.369 . S
C1947 C1949 1.419 . S
C1947 H1951 0.930 . S
C1948 C1947 1.369 . S
C1948 C1957 1.429 . S
C1949 C1947 1.419 . S
C1949 C1950 1.363 . S
C1949 H1952 0.929 . S
C1950 C1949 1.363 . S
C1950 C1956 1.428 . S
H1951 C1947 0.930 . S
H1952 C1949 0.929 . S
S1953 N1954 1.613 . S
S1953 N1955 1.610 . S
N1954 S1953 1.613 . S
N1954 C1957 1.350 . S
N1955 S1953 1.610 . S
N1955 C1956 1.351 . S
C1956 C1950 1.428 . S
C1956 N1955 1.351 . S
C1956 C1957 1.434 . S
C1957 C1948 1.429 . S
C1957 N1954 1.350 . S
C1957 C1956 1.434 . S
C1958 C1959 1.369 . S
C1958 C1960 1.419 . S
C1958 H1962 0.930 . S
C1959 C1958 1.369 . S
C1959 C1968 1.429 . S
C1960 C1958 1.419 . S
C1960 C1961 1.363 . S
C1960 H1963 0.929 . S
C1961 C1960 1.363 . S
C1961 C1967 1.428 . S
H1962 C1958 0.930 . S
H1963 C1960 0.929 . S
S1964 N1965 1.613 . S
S1964 N1966 1.610 . S
N1965 S1964 1.613 . S
N1965 C1968 1.350 . S
N1966 S1964 1.610 . S
N1966 C1967 1.351 . S
C1967 C1961 1.428 . S
C1967 N1966 1.351 . S
C1967 C1968 1.434 . S
C1968 C1959 1.429 . S
C1968 N1965 1.350 . S
C1968 C1967 1.434 . S
C1969 C1970 1.369 . S
C1969 C1971 1.419 . S
C1969 H1973 0.930 . S
C1970 C1969 1.369 . S
C1970 C1979 1.429 . S
C1971 C1969 1.419 . S
C1971 C1972 1.363 . S
C1971 H1974 0.929 . S
C1972 C1971 1.363 . S
C1972 C1978 1.428 . S
H1973 C1969 0.930 . S
H1974 C1971 0.929 . S
S1975 N1976 1.613 . S
S1975 N1977 1.610 . S
N1976 S1975 1.613 . S
N1976 C1979 1.350 . S
N1977 S1975 1.610 . S
N1977 C1978 1.351 . S
C1978 C1972 1.428 . S
C1978 N1977 1.351 . S
C1978 C1979 1.434 . S
C1979 C1970 1.429 . S
C1979 N1976 1.350 . S
C1979 C1978 1.434 . S
C1980 C1981 1.369 . S
C1980 C1982 1.419 . S
C1980 H1984 0.930 . S
C1981 C1980 1.369 . S
C1981 C1990 1.429 . S
C1982 C1980 1.419 . S
C1982 C1983 1.363 . S
C1982 H1985 0.929 . S
C1983 C1982 1.363 . S
C1983 C1989 1.428 . S
H1984 C1980 0.930 . S
H1985 C1982 0.929 . S
S1986 N1987 1.613 . S
S1986 N1988 1.610 . S
N1987 S1986 1.613 . S
N1987 C1990 1.350 . S
N1988 S1986 1.610 . S
N1988 C1989 1.351 . S
C1989 C1983 1.428 . S
C1989 N1988 1.351 . S
C1989 C1990 1.434 . S
C1990 C1981 1.429 . S
C1990 N1987 1.350 . S
C1990 C1989 1.434 . S
C1991 C1992 1.369 . S
C1991 C1993 1.419 . S
C1991 H1995 0.930 . S
C1992 C1991 1.369 . S
C1992 C2001 1.429 . S
C1993 C1991 1.419 . S
C1993 C1994 1.363 . S
C1993 H1996 0.929 . S
C1994 C1993 1.363 . S
C1994 C2000 1.428 . S
H1995 C1991 0.930 . S
H1996 C1993 0.929 . S
S1997 N1998 1.613 . S
S1997 N1999 1.610 . S
N1998 S1997 1.613 . S
N1998 C2001 1.350 . S
N1999 S1997 1.610 . S
N1999 C2000 1.351 . S
C2000 C1994 1.428 . S
C2000 N1999 1.351 . S
C2000 C2001 1.434 . S
C2001 C1992 1.429 . S
C2001 N1998 1.350 . S
C2001 C2000 1.434 . S
C2002 C2003 1.369 . S
C2002 C2004 1.419 . S
C2002 H2006 0.930 . S
C2003 C2002 1.369 . S
C2003 C2012 1.429 . S
C2004 C2002 1.419 . S
C2004 C2005 1.363 . S
C2004 H2007 0.929 . S
C2005 C2004 1.363 . S
C2005 C2011 1.428 . S
H2006 C2002 0.930 . S
H2007 C2004 0.929 . S
S2008 N2009 1.613 . S
S2008 N2010 1.610 . S
N2009 S2008 1.613 . S
N2009 C2012 1.350 . S
N2010 S2008 1.610 . S
N2010 C2011 1.351 . S
C2011 C2005 1.428 . S
C2011 N2010 1.351 . S
C2011 C2012 1.434 . S
C2012 C2003 1.429 . S
C2012 N2009 1.350 . S
C2012 C2011 1.434 . S
C2013 C2014 1.369 . S
C2013 C2015 1.419 . S
C2013 H2017 0.930 . S
C2014 C2013 1.369 . S
C2014 C2023 1.429 . S
C2015 C2013 1.419 . S
C2015 C2016 1.363 . S
C2015 H2018 0.929 . S
C2016 C2015 1.363 . S
C2016 C2022 1.428 . S
H2017 C2013 0.930 . S
H2018 C2015 0.929 . S
S2019 N2020 1.613 . S
S2019 N2021 1.610 . S
N2020 S2019 1.613 . S
N2020 C2023 1.350 . S
N2021 S2019 1.610 . S
N2021 C2022 1.351 . S
C2022 C2016 1.428 . S
C2022 N2021 1.351 . S
C2022 C2023 1.434 . S
C2023 C2014 1.429 . S
C2023 N2020 1.350 . S
C2023 C2022 1.434 . S
C971 N428 1.735 . S
C969 C8 1.791 . S
C982 C455 1.153 . S
C980 C17 1.126 . S
C991 C35 1.862 . S
C993 C469 1.837 . S
C1004 N487 1.498 . S
C1002 C43 1.382 . S
C1013 C56 1.256 . S
C1015 C492 1.319 . S
C1024 C73 1.731 . S
C1026 C432 1.736 1_556 S
C1035 C87 1.487 . S
C1037 N451 1.440 . S
C1048 N464 1.648 . S
C1046 C100 1.679 . S
C1059 N510 1.650 . S
C1057 C9 1.636 . S
C1068 C22 1.464 . S
C1070 N533 1.429 . S
C1079 C34 1.786 . S
C1081 N556 1.745 . S
C1092 N589 1.524 . S
C1090 C47 1.559 . S
C1101 C61 1.444 . S
C1103 C616 1.419 . S
C1114 C639 1.612 . S
C1112 C69 1.571 . S
C1123 C82 1.268 . S
C1125 C662 1.333 . S
C1136 C676 1.818 . S
C1134 C99 1.843 . S
C1145 C4 1.689 . S
C1147 C593 1.815 . S
C1156 C60 1.531 . S
C1158 N635 1.518 . S
C1169 N658 1.628 . S
C1167 C74 1.694 . S
C1178 C86 1.430 . S
C1180 N671 1.338 . S
C1191 N612 1.705 . S
C1189 C95 1.781 . S
C1202 C538 1.504 1_565 S
C1200 C30 1.423 . S
C1211 C48 1.259 . S
C1213 C561 1.288 . S
C1224 C515 1.481 . S
C1222 C21 1.483 . S
C1235 C708 1.764 . S
C1233 C112 1.773 . S
C1244 C121 1.237 . S
C1246 C722 1.270 . S
C1255 C139 1.683 . S
C1257 N750 1.601 . S
C1268 N763 1.542 . S
C1266 C147 1.401 . S
C1277 C160 1.225 . S
C1279 C768 1.290 . S
C1288 C177 1.677 . S
C1290 N704 1.633 . S
C1299 C191 1.514 . S
C1301 N717 1.539 . S
C1310 C204 1.719 . S
C1312 C754 1.725 . S
C1323 N602 1.791 . S
C1321 C113 1.778 . S
C1332 C126 1.503 . S
C1334 N786 1.438 . S
C1345 N648 1.612 . S
C1343 C138 1.645 . S
C1354 C151 1.517 . S
C1356 C823 1.466 . S
C1365 C165 1.343 . S
C1367 C524 1.344 . S
C1378 C837 1.679 . S
C1376 C173 1.620 . S
C1387 C186 1.331 . S
C1389 C570 1.369 . S
C1400 N855 1.756 . S
C1398 C203 1.758 . S
C1409 C108 1.637 . S
C1411 N819 1.675 . S
C1422 N832 1.428 . S
C1420 C164 1.460 . S
C1431 C178 1.783 . S
C1433 N566 1.718 . S
C1444 C860 1.431 . S
C1442 C190 1.454 . S
C1453 C199 1.696 . S
C1455 N520 1.630 . S
C1464 C134 1.356 . S
C1466 C791 1.401 . S
C1475 C152 1.336 . S
C1477 C653 1.352 . S
C1486 C125 1.576 . S
C1488 C607 1.559 . S
C1497 C216 1.856 . S
C1499 C745 1.850 . S
C1510 C777 1.198 . S
C1508 C225 1.180 . S
C1519 C243 1.846 . S
C1521 N694 1.819 . S
C1530 C251 1.371 . S
C1532 N727 1.429 . S
C1541 C264 1.274 . S
C1543 C731 1.300 . S
C1552 C281 1.559 . S
C1554 N740 1.538 . S
C1565 N773 1.408 . S
C1563 C295 1.460 . S
C1574 C308 1.719 . S
C1576 C699 1.733 . S
C1587 N888 1.713 . S
C1585 C217 1.773 . S
C1596 C230 1.436 . S
C1598 N625 1.378 . S
C1609 N911 1.636 . S
C1607 C242 1.704 . S
C1618 C255 1.545 . S
C1620 N681 1.528 . S
C1629 C269 1.410 . S
C1631 C929 1.413 . S
C1640 C277 1.563 . S
C1642 C547 1.610 . S
C1653 N947 1.330 . S
C1651 C290 1.261 . S
C1662 C307 1.853 . S
C1664 C584 1.837 . S
C1675 C685 1.815 . S
C1673 C212 1.697 . S
C1686 N543 1.473 . S
C1684 C268 1.490 . S
C1695 C282 1.737 . S
C1697 C952 1.751 . S
C1706 C294 1.441 . S
C1708 N579 1.348 . S
C1719 N924 1.783 . S
C1717 C303 1.790 . S
C1730 C630 1.527 . S
C1728 C238 1.490 . S
C1741 C915 1.345 . S
C1739 C256 1.307 . S
C1752 C892 1.483 . S
C1750 C229 1.507 . S
C1761 C320 1.690 . S
C1763 N474 1.640 . S
C1772 C329 1.219 . S
C1774 C501 1.241 . S
C1785 C423 1.913 . S
C1783 C347 1.906 . S
C1796 N441 1.536 . S
C1794 C355 1.367 . S
C1807 C446 1.256 . S
C1805 C368 1.197 . S
C1818 C478 1.622 . S
C1816 C385 1.620 . S
C1829 N497 1.467 . S
C1827 C399 1.494 . S
C1838 C412 1.716 . S
C1840 N418 1.676 1_556 S
C1849 C321 1.675 . S
C1851 N934 1.626 . S
C1862 N842 1.455 . S
C1860 C334 1.487 . S
C1873 C961 1.712 . S
C1871 C342 1.692 . S
C1884 C869 1.407 . S
C1882 C359 1.453 . S
C1893 C373 1.447 . S
C1895 C883 1.447 . S
C1906 C800 1.551 . S
C1904 C381 1.511 . S
C1917 C906 1.423 . S
C1915 C394 1.357 . S
C1926 C411 1.804 . S
C1928 N809 1.785 . S
C1939 N865 1.607 . S
C1937 C316 1.574 . S
C1950 N796 1.503 . S
C1948 C372 1.522 . S
C1961 N901 1.726 . S
C1959 C386 1.750 . S
C1970 C398 1.397 . S
C1972 C814 1.382 . S
C1981 C407 1.750 . S
C1983 N878 1.759 . S
C1992 C346 1.707 . S
C1994 C846 1.699 . S
C2003 C360 1.274 . S
C2005 N957 1.258 . S
C2016 C938 1.530 . S
C2014 C333 1.567 . S
