# Generated by pormake.
# Topology dag, (6,3)-cn, num edge types: 1
# Building blocks:
#     Node 0, Type 0, BuildingBlock: OJICUG_clean_sbu_0, # of connection points: 6
#     Node 1, Type 0, BuildingBlock: OJICUG_clean_sbu_0, # of connection points: 6
#     Node 2, Type 0, BuildingBlock: OJICUG_clean_sbu_0, # of connection points: 6
#     Node 3, Type 0, BuildingBlock: OJICUG_clean_sbu_0, # of connection points: 6
#     Node 4, Type 1, BuildingBlock: PAMTOO_clean_linker_0, # of connection points: 3
#     Node 5, Type 1, BuildingBlock: PAMTOO_clean_linker_0, # of connection points: 3
#     Node 6, Type 1, BuildingBlock: PAMTOO_clean_linker_0, # of connection points: 3
#     Node 7, Type 1, BuildingBlock: PAMTOO_clean_linker_0, # of connection points: 3
#     Node 8, Type 1, BuildingBlock: PAMTOO_clean_linker_0, # of connection points: 3
#     Node 9, Type 1, BuildingBlock: PAMTOO_clean_linker_0, # of connection points: 3
#     Node 10, Type 1, BuildingBlock: PAMTOO_clean_linker_0, # of connection points: 3
#     Node 11, Type 1, BuildingBlock: PAMTOO_clean_linker_0, # of connection points: 3
#     Edge 12, Type (0, 1), BuildingBlock: EZIPEK_clean_linker_0, # of connection points: 2
#     Edge 13, Type (0, 1), BuildingBlock: EZIPEK_clean_linker_0, # of connection points: 2
#     Edge 14, Type (0, 1), BuildingBlock: EZIPEK_clean_linker_0, # of connection points: 2
#     Edge 15, Type (0, 1), BuildingBlock: EZIPEK_clean_linker_0, # of connection points: 2
#     Edge 16, Type (0, 1), BuildingBlock: EZIPEK_clean_linker_0, # of connection points: 2
#     Edge 17, Type (0, 1), BuildingBlock: EZIPEK_clean_linker_0, # of connection points: 2
#     Edge 18, Type (0, 1), BuildingBlock: EZIPEK_clean_linker_0, # of connection points: 2
#     Edge 19, Type (0, 1), BuildingBlock: EZIPEK_clean_linker_0, # of connection points: 2
#     Edge 20, Type (0, 1), BuildingBlock: EZIPEK_clean_linker_0, # of connection points: 2
#     Edge 21, Type (0, 1), BuildingBlock: EZIPEK_clean_linker_0, # of connection points: 2
#     Edge 22, Type (0, 1), BuildingBlock: EZIPEK_clean_linker_0, # of connection points: 2
#     Edge 23, Type (0, 1), BuildingBlock: EZIPEK_clean_linker_0, # of connection points: 2
#     Edge 24, Type (0, 1), BuildingBlock: EZIPEK_clean_linker_0, # of connection points: 2
#     Edge 25, Type (0, 1), BuildingBlock: EZIPEK_clean_linker_0, # of connection points: 2
#     Edge 26, Type (0, 1), BuildingBlock: EZIPEK_clean_linker_0, # of connection points: 2
#     Edge 27, Type (0, 1), BuildingBlock: EZIPEK_clean_linker_0, # of connection points: 2
#     Edge 28, Type (0, 1), BuildingBlock: EZIPEK_clean_linker_0, # of connection points: 2
#     Edge 29, Type (0, 1), BuildingBlock: EZIPEK_clean_linker_0, # of connection points: 2
#     Edge 30, Type (0, 1), BuildingBlock: EZIPEK_clean_linker_0, # of connection points: 2
#     Edge 31, Type (0, 1), BuildingBlock: EZIPEK_clean_linker_0, # of connection points: 2
#     Edge 32, Type (0, 1), BuildingBlock: EZIPEK_clean_linker_0, # of connection points: 2
#     Edge 33, Type (0, 1), BuildingBlock: EZIPEK_clean_linker_0, # of connection points: 2
#     Edge 34, Type (0, 1), BuildingBlock: EZIPEK_clean_linker_0, # of connection points: 2
#     Edge 35, Type (0, 1), BuildingBlock: EZIPEK_clean_linker_0, # of connection points: 2
# Relax obj value: 0.094
# Max RMSD: 0.122
# Mean RMSD: 0.099
data_MOF--net-dag--node1-OJICUG_clean_sbu_0--node2-PAMTOO_clean_linker_0--edge1-EZIPEK_clean_linker_0
_symmetry_space_group_name_H-M    P1
_symmetry_Int_Tables_number       1
_symmetry_cell_setting            triclinic
loop_
_symmetry_equiv_pos_as_xyz
'x, y, z'
_cell_length_a     27.414462
_cell_length_b     28.390722
_cell_length_c     28.94905
_cell_angle_alpha  89.901666
_cell_angle_beta   94.481494
_cell_angle_gamma 89.883814
loop_
_atom_site_label
_atom_site_type_symbol
_atom_site_fract_x
_atom_site_fract_y
_atom_site_fract_z
_atom_type_partial_charge
Sc0 Sc 0.13081 0.91593 0.01431 0.0
Sc1 Sc 0.14852 0.79911 0.98064 0.0
Sc2 Sc 0.25003 0.8698 0.01811 0.0
O3 O 0.17654 0.86153 0.00453 0.0
C4 C 0.21865 0.9679 0.97077 0.0
C5 C 0.08245 0.87048 0.92028 0.0
C6 C 0.24666 0.80751 0.92778 0.0
C7 C 0.06898 0.83186 0.05 0.0
C8 C 0.21003 0.92572 0.10139 0.0
C9 C 0.22987 0.76583 0.0565 0.0
O10 O 0.17338 0.96295 0.9759 0.0
O11 O 0.10708 0.83251 0.92333 0.0
O12 O 0.26527 0.84102 0.95213 0.0
O13 O 0.08403 0.87401 0.05355 0.0
O14 O 0.24275 0.89991 0.08565 0.0
O15 O 0.18809 0.76032 0.03501 0.0
O16 O 0.16977 0.9357 0.07871 0.0
O17 O 0.08655 0.80172 0.02324 0.0
O18 O 0.25687 0.80165 0.0514 0.0
O19 O 0.08562 0.90222 0.95134 0.0
O20 O 0.25133 0.93882 0.9862 0.0
O21 O 0.20657 0.78776 0.93575 0.0
Sc22 Sc 0.74156 0.61835 0.52289 0.0
Sc23 Sc 0.651 0.70007 0.48206 0.0
Sc24 Sc 0.61894 0.5902 0.51938 0.0
O25 O 0.67059 0.63636 0.50709 0.0
C26 C 0.70167 0.52756 0.47657 0.0
C27 C 0.74501 0.68122 0.4312 0.0
C28 C 0.57657 0.63023 0.42473 0.0
C29 C 0.73713 0.72074 0.56097 0.0
C30 C 0.68833 0.56824 0.60402 0.0
C31 C 0.56795 0.68585 0.5483 0.0
O32 O 0.7345 0.55909 0.47734 0.0
O33 O 0.70017 0.69268 0.42921 0.0
O34 O 0.58662 0.59444 0.45007 0.0
O35 O 0.75037 0.67809 0.568 0.0
O36 O 0.6486 0.58771 0.58934 0.0
O37 O 0.59975 0.71304 0.53324 0.0
O38 O 0.72635 0.5715 0.58145 0.0
O39 O 0.70635 0.734 0.52811 0.0
O40 O 0.56825 0.64161 0.5421 0.0
O41 O 0.76676 0.65998 0.46584 0.0
O42 O 0.66253 0.53167 0.49727 0.0
O43 O 0.59349 0.67136 0.43387 0.0
Sc44 Sc 0.85375 0.20257 0.04628 0.0
Sc45 Sc 0.75015 0.13119 0.01614 0.0
Sc46 Sc 0.86844 0.08567 0.01715 0.0
O47 O 0.82346 0.13975 0.02734 0.0
C48 C 0.9277 0.16355 0.97478 0.0
C49 C 0.77312 0.22814 0.96482 0.0
C50 C 0.78485 0.06475 0.93778 0.0
C51 C 0.75576 0.20301 0.10032 0.0
C52 C 0.92393 0.13704 0.10494 0.0
C53 C 0.78783 0.03954 0.07474 0.0
O54 O 0.91708 0.19297 0.00568 0.0
O55 O 0.74489 0.19407 0.97359 0.0
O56 O 0.82551 0.0563 0.95978 0.0
O57 O 0.79735 0.21936 0.09199 0.0
O58 O 0.9214 0.10649 0.07277 0.0
O59 O 0.75318 0.06666 0.05833 0.0
O60 O 0.89517 0.17218 0.1052 0.0
O61 O 0.73494 0.1701 0.07673 0.0
O62 O 0.83213 0.04348 0.065 0.0
O63 O 0.81411 0.23612 0.98745 0.0
O64 O 0.90351 0.12609 0.96734 0.0
O65 O 0.75365 0.09293 0.95219 0.0
Sc66 Sc 0.37238 0.40804 0.52565 0.0
Sc67 Sc 0.25069 0.37362 0.52915 0.0
Sc68 Sc 0.34819 0.29388 0.56037 0.0
O69 O 0.32325 0.35806 0.53754 0.0
C70 C 0.42539 0.31544 0.48991 0.0
C71 C 0.2953 0.4196 0.43986 0.0
C72 C 0.25274 0.26741 0.49435 0.0
C73 C 0.29054 0.47155 0.56689 0.0
C74 C 0.41901 0.3647 0.61892 0.0
C75 C 0.26178 0.31672 0.62438 0.0
O76 O 0.42298 0.35935 0.49775 0.0
O77 O 0.259 0.40617 0.46178 0.0
O78 O 0.29332 0.25723 0.51651 0.0
O79 O 0.33194 0.46524 0.55153 0.0
O80 O 0.40761 0.32277 0.60676 0.0
O81 O 0.23809 0.34358 0.59538 0.0
O82 O 0.4038 0.39988 0.59493 0.0
O83 O 0.25741 0.44045 0.5645 0.0
O84 O 0.3021 0.2968 0.61712 0.0
O85 O 0.33945 0.41942 0.45714 0.0
O86 O 0.39626 0.28587 0.50565 0.0
O87 O 0.23339 0.30806 0.49513 0.0
H88 H 0.10551 0.04222 0.18223 0.0
H89 H 0.08724 0.14787 0.28542 0.0
H90 H 0.21199 0.05518 0.2989 0.0
H91 H 0.15667 0.0864 0.3896 0.0
C92 C 0.15263 0.12331 0.37806 0.0
O93 O 0.16942 0.12784 0.33459 0.0
H94 H 0.11255 0.12999 0.37647 0.0
C95 C 0.11791 0.05893 0.21472 0.0
C96 C 0.16169 0.04419 0.23865 0.0
C97 C 0.09076 0.09596 0.23165 0.0
C98 C 0.10759 0.11848 0.27283 0.0
C99 C 0.15104 0.10344 0.29731 0.0
C100 C 0.17776 0.06586 0.28059 0.0
H101 H 0.38177 0.64352 0.59482 0.0
H102 H 0.27508 0.66854 0.69282 0.0
H103 H 0.39745 0.76231 0.68658 0.0
H104 H 0.38149 0.7355 0.77577 0.0
C105 C 0.34266 0.72438 0.77442 0.0
O106 O 0.32175 0.74047 0.73228 0.0
H107 H 0.341 0.68524 0.77623 0.0
C108 C 0.36709 0.66593 0.62075 0.0
C109 C 0.39329 0.70571 0.63675 0.0
C110 C 0.32437 0.65259 0.64073 0.0
C111 C 0.30681 0.68013 0.67594 0.0
C112 C 0.33329 0.71962 0.69264 0.0
C113 C 0.37599 0.73299 0.67235 0.0
H114 H 0.88084 0.88234 0.11268 0.0
H115 H 0.78884 0.85407 0.2227 0.0
H116 H 0.91161 0.76352 0.2029 0.0
H117 H 0.81404 0.7168 0.23429 0.0
C118 C 0.80536 0.74661 0.25698 0.0
O119 O 0.84043 0.78119 0.25572 0.0
H120 H 0.7694 0.76002 0.24188 0.0
C121 C 0.87125 0.86019 0.14117 0.0
C122 C 0.9007 0.82137 0.15453 0.0
C123 C 0.83067 0.87182 0.16535 0.0
C124 C 0.81939 0.84428 0.20325 0.0
C125 C 0.84854 0.80512 0.21672 0.0
C126 C 0.88862 0.79318 0.19184 0.0
H127 H 0.57109 0.47326 0.77065 0.0
H128 H 0.5853 0.32472 0.74817 0.0
H129 H 0.71058 0.41117 0.75386 0.0
H130 H 0.67551 0.25542 0.78068 0.0
C131 C 0.67293 0.28981 0.79858 0.0
O132 O 0.67972 0.32532 0.76665 0.0
H133 H 0.63488 0.28938 0.80943 0.0
C134 C 0.59217 0.44313 0.76317 0.0
C135 C 0.64163 0.44946 0.75434 0.0
C136 C 0.56906 0.39902 0.7568 0.0
C137 C 0.59997 0.35952 0.755 0.0
C138 C 0.65096 0.36424 0.76201 0.0
C139 C 0.67184 0.40906 0.75827 0.0
H140 H 0.60396 0.36397 0.43111 0.0
H141 H 0.58891 0.2466 0.3374 0.0
H142 H 0.71109 0.34098 0.33256 0.0
H143 H 0.64101 0.31662 0.24456 0.0
C144 C 0.64723 0.27817 0.24929 0.0
O145 O 0.66646 0.26795 0.29367 0.0
H146 H 0.60995 0.26293 0.24352 0.0
C147 C 0.61769 0.34319 0.40347 0.0
C148 C 0.6609 0.35663 0.3844 0.0
C149 C 0.59159 0.30365 0.38683 0.0
C150 C 0.60917 0.27696 0.35091 0.0
C151 C 0.65176 0.29109 0.3308 0.0
C152 C 0.67812 0.33035 0.34808 0.0
H153 H 0.13545 0.12297 0.93442 0.0
H154 H 0.09526 0.23152 0.83459 0.0
H155 H 0.23643 0.1652 0.83608 0.0
H156 H 0.23267 0.27132 0.82967 0.0
C157 C 0.19948 0.2756 0.80551 0.0
O158 O 0.17962 0.23139 0.79834 0.0
H159 H 0.17313 0.29911 0.82163 0.0
C160 C 0.14474 0.14607 0.90652 0.0
C161 C 0.18919 0.13952 0.88678 0.0
C162 C 0.11003 0.17856 0.8876 0.0
C163 C 0.1219 0.20701 0.85051 0.0
C164 C 0.16827 0.20359 0.83357 0.0
C165 C 0.20184 0.16959 0.85131 0.0
H166 H 0.40293 0.52717 0.34935 0.0
H167 H 0.42654 0.61919 0.23542 0.0
H168 H 0.29281 0.54039 0.23581 0.0
H169 H 0.35596 0.67522 0.20939 0.0
C170 C 0.3239 0.65205 0.2006 0.0
O171 O 0.33962 0.60653 0.19394 0.0
H172 H 0.30215 0.65425 0.2314 0.0
C173 C 0.39132 0.54081 0.31521 0.0
C174 C 0.34563 0.52798 0.29391 0.0
C175 C 0.4206 0.57361 0.29425 0.0
C176 C 0.40495 0.59233 0.2509 0.0
C177 C 0.35849 0.58099 0.23033 0.0
C178 C 0.32915 0.54817 0.25131 0.0
H179 H 0.90268 0.96726 0.84686 0.0
H180 H 0.9326 0.88174 0.73 0.0
H181 H 0.79299 0.95012 0.73371 0.0
H182 H 0.79975 0.84459 0.72856 0.0
C183 C 0.82626 0.84268 0.70138 0.0
O184 O 0.84347 0.88698 0.69162 0.0
H185 H 0.85649 0.82033 0.71726 0.0
C186 C 0.89195 0.95408 0.8124 0.0
C187 C 0.84532 0.96455 0.79154 0.0
C188 C 0.92364 0.92436 0.79034 0.0
C189 C 0.90917 0.90644 0.74634 0.0
C190 C 0.86154 0.91452 0.72674 0.0
C191 C 0.83012 0.94478 0.74853 0.0
C192 C 0.19029 0.92882 0.18348 0.0
C193 C 0.21794 0.94629 0.14814 0.0
C194 C 0.22684 0.02235 0.18681 0.0
C195 C 0.19125 0.00784 0.21699 0.0
N196 N 0.14446 0.94651 0.24997 0.0
N197 N 0.27868 0.00033 0.12574 0.0
C198 C 0.17572 0.96026 0.218 0.0
C199 C 0.2419 0.99008 0.15324 0.0
N200 N 0.17853 0.88215 0.18351 0.0
N201 N 0.24306 0.06785 0.18796 0.0
H202 H 0.29068 0.97588 0.10223 0.0
H203 H 0.30011 0.03052 0.12903 0.0
H204 H 0.23366 0.09189 0.21298 0.0
H205 H 0.26449 0.08237 0.16349 0.0
H206 H 0.16139 0.86561 0.20991 0.0
H207 H 0.19021 0.85914 0.15848 0.0
H208 H 0.12738 0.91383 0.24997 0.0
H209 H 0.13498 0.96875 0.27654 0.0
C210 C 0.52797 0.68745 0.62213 0.0
C211 C 0.52976 0.7049 0.57647 0.0
C212 C 0.44783 0.73893 0.57951 0.0
C213 C 0.44272 0.7133 0.62085 0.0
N214 N 0.47734 0.66406 0.68312 0.0
N215 N 0.49403 0.75068 0.51218 0.0
C216 C 0.48299 0.68858 0.64318 0.0
C217 C 0.49087 0.73267 0.55565 0.0
N218 N 0.56959 0.66992 0.64511 0.0
N219 N 0.41118 0.76865 0.56309 0.0
H220 H 0.52577 0.74852 0.49469 0.0
H221 H 0.46486 0.76618 0.49257 0.0
H222 H 0.37927 0.7733 0.58001 0.0
H223 H 0.41379 0.79138 0.53516 0.0
H224 H 0.57204 0.65997 0.67983 0.0
H225 H 0.60319 0.66966 0.63042 0.0
H226 H 0.50316 0.64039 0.69781 0.0
H227 H 0.44548 0.66553 0.70056 0.0
C228 C 0.80142 0.00132 0.1518 0.0
C229 C 0.77795 0.00027 0.10649 0.0
C230 C 0.76973 0.91458 0.11185 0.0
C231 C 0.80281 0.91524 0.15198 0.0
N232 N 0.84673 0.95823 0.21366 0.0
N233 N 0.7318 0.95815 0.046 0.0
C234 C 0.81643 0.9584 0.17383 0.0
C235 C 0.75849 0.95756 0.08782 0.0
N236 N 0.81035 0.04371 0.17288 0.0
N237 N 0.75014 0.87264 0.09666 0.0
H238 H 0.72054 0.98956 0.02977 0.0
H239 H 0.72103 0.92818 0.02732 0.0
H240 H 0.75808 0.84103 0.11417 0.0
H241 H 0.72363 0.86933 0.06914 0.0
H242 H 0.82298 0.04754 0.20751 0.0
H243 H 0.8023 0.07544 0.15583 0.0
H244 H 0.86266 0.98832 0.22866 0.0
H245 H 0.85753 0.92736 0.23118 0.0
C246 C 0.4542 0.34267 0.70153 0.0
C247 C 0.45102 0.37422 0.66251 0.0
C248 C 0.4943 0.43135 0.71258 0.0
C249 C 0.51499 0.3955 0.74129 0.0
N250 N 0.50039 0.31953 0.77369 0.0
N251 N 0.47985 0.44924 0.63255 0.0
C252 C 0.4903 0.35157 0.73914 0.0
C253 C 0.47443 0.41891 0.66835 0.0
N254 N 0.42158 0.3067 0.70441 0.0
N255 N 0.48776 0.47553 0.72898 0.0
H256 H 0.47614 0.43908 0.5979 0.0
H257 H 0.49535 0.48246 0.63808 0.0
H258 H 0.49375 0.48308 0.76425 0.0
H259 H 0.46995 0.5017 0.70857 0.0
H260 H 0.4206 0.28509 0.73341 0.0
H261 H 0.39153 0.30185 0.68072 0.0
H262 H 0.48812 0.28483 0.77218 0.0
H263 H 0.52283 0.32818 0.8033 0.0
C264 C 0.71564 0.44082 0.4737 0.0
C265 C 0.70763 0.48407 0.44986 0.0
C266 C 0.68105 0.44256 0.37844 0.0
C267 C 0.68653 0.39928 0.4029 0.0
N268 N 0.72175 0.35564 0.46861 0.0
N269 N 0.69781 0.52635 0.37751 0.0
C270 C 0.70845 0.39799 0.44888 0.0
C271 C 0.69587 0.48493 0.40136 0.0
N272 N 0.72814 0.44093 0.52035 0.0
N273 N 0.65825 0.44365 0.33472 0.0
H274 H 0.70718 0.55825 0.39359 0.0
H275 H 0.69448 0.5284 0.34148 0.0
H276 H 0.64724 0.41339 0.31647 0.0
H277 H 0.64746 0.47466 0.31756 0.0
H278 H 0.72878 0.41084 0.54099 0.0
H279 H 0.73613 0.47187 0.53883 0.0
H280 H 0.74126 0.35224 0.50076 0.0
H281 H 0.71693 0.32388 0.45073 0.0
C282 C 0.99002 0.21484 0.93759 0.0
C283 C 0.97286 0.16958 0.94992 0.0
C284 C 0.03633 0.1338 0.90704 0.0
C285 C 0.05989 0.17784 0.90398 0.0
N286 N 0.06201 0.26055 0.92435 0.0
N287 N 0.99367 0.0864 0.95899 0.0
C288 C 0.03753 0.21872 0.92128 0.0
C289 C -0.00032 0.12895 0.93804 0.0
N290 N 0.96095 0.25373 0.93977 0.0
N291 N 0.04934 0.09636 0.88107 0.0
H292 H 0.97312 0.08203 0.98748 0.0
H293 H 0.01521 0.05714 0.95259 0.0
H294 H 0.07477 0.0992 0.85619 0.0
H295 H 0.03065 0.06436 0.88082 0.0
H296 H 0.971 0.28663 0.92764 0.0
H297 H 0.92477 0.25208 0.94831 0.0
H298 H 0.04851 0.28998 0.94073 0.0
H299 H 0.09762 0.26454 0.91479 0.0
C300 C 0.27278 0.48993 0.3911 0.0
C301 C 0.28679 0.44182 0.39374 0.0
C302 C 0.32265 0.4475 0.31924 0.0
C303 C 0.31417 0.49669 0.31962 0.0
N304 N 0.26894 0.56259 0.34641 0.0
N305 N 0.30944 0.37153 0.35489 0.0
C306 C 0.28445 0.51704 0.35218 0.0
C307 C 0.30617 0.41946 0.35555 0.0
N308 N 0.25189 0.51032 0.42747 0.0
N309 N 0.34912 0.42843 0.2858 0.0
H310 H 0.29833 0.35096 0.382 0.0
H311 H 0.3196 0.35225 0.32664 0.0
H312 H 0.35974 0.44816 0.25784 0.0
H313 H 0.36176 0.39383 0.28636 0.0
H314 H 0.24653 0.5464 0.43086 0.0
H315 H 0.241 0.49081 0.45535 0.0
H316 H 0.2441 0.57869 0.36678 0.0
H317 H 0.2779 0.5833 0.31853 0.0
C318 C 0.00703 0.84762 0.87002 0.0
C319 C 0.04735 0.87857 0.87931 0.0
C320 C 0.00976 0.9366 0.82442 0.0
C321 C 0.96856 0.90669 0.81678 0.0
N322 N 0.93036 0.8309 0.82567 0.0
N323 N 0.09351 0.94585 0.85728 0.0
C324 C 0.96825 0.86111 0.83715 0.0
C325 C 0.05063 0.92109 0.85387 0.0
N326 N 0.00402 0.8068 0.89481 0.0
N327 N 0.00913 0.98026 0.80432 0.0
H328 H 0.12438 0.93434 0.87757 0.0
H329 H 0.10021 0.97522 0.83722 0.0
H330 H 0.98089 0.99162 0.78064 0.0
H331 H 0.03531 0.00605 0.81236 0.0
H332 H 0.97249 0.78652 0.89521 0.0
H333 H 0.03229 0.79366 0.91723 0.0
H334 H 0.93117 0.79515 0.83367 0.0
H335 H 0.89864 0.84059 0.80578 0.0
C336 C 0.76793 0.99431 0.88874 0.0
C337 C 0.77707 0.04322 0.89152 0.0
C338 C 0.81385 0.04205 0.81736 0.0
C339 C 0.81133 0.99222 0.81815 0.0
N340 N 0.77524 0.92135 0.84584 0.0
N341 N 0.79326 0.11609 0.85357 0.0
C342 C 0.78406 0.96853 0.85075 0.0
C343 C 0.79431 0.06798 0.85363 0.0
N344 N 0.74615 0.97279 0.92396 0.0
N345 N 0.83755 0.06395 0.78351 0.0
H346 H 0.77883 0.13521 0.8801 0.0
H347 H 0.80278 0.13691 0.82609 0.0
H348 H 0.85047 0.04558 0.75573 0.0
H349 H 0.84544 0.09976 0.78321 0.0
H350 H 0.74222 0.93656 0.92742 0.0
H351 H 0.73176 0.99228 0.95024 0.0
H352 H 0.75382 0.90193 0.86701 0.0
H353 H 0.78714 0.90184 0.81836 0.0
C354 C 0.50448 0.27424 0.47778 0.0
C355 C 0.46274 0.29946 0.45905 0.0
C356 C 0.50068 0.31065 0.38579 0.0
C357 C 0.54499 0.29236 0.40719 0.0
N358 N 0.58965 0.25287 0.47073 0.0
N359 N 0.41793 0.33789 0.39483 0.0
C360 C 0.54669 0.27205 0.4521 0.0
C361 C 0.45966 0.3158 0.41253 0.0
N362 N 0.50403 0.25355 0.52045 0.0
N363 N 0.49834 0.32372 0.34016 0.0
H364 H 0.38623 0.33903 0.41252 0.0
H365 H 0.4147 0.35611 0.36355 0.0
H366 H 0.52815 0.32131 0.32004 0.0
H367 H 0.46638 0.33394 0.32103 0.0
H368 H 0.53153 0.23157 0.53489 0.0
H369 H 0.47441 0.25601 0.54079 0.0
H370 H 0.59592 0.24204 0.50501 0.0
H371 H 0.62013 0.24872 0.45164 0.0
C372 C 0.22089 0.01098 0.89668 0.0
C373 C 0.23275 0.00993 0.945 0.0
C374 C 0.24178 0.09556 0.94578 0.0
C375 C 0.21813 0.09699 0.90061 0.0
N376 N 0.18776 0.0567 0.83083 0.0
N377 N 0.26039 0.04934 0.0156 0.0
C378 C 0.20986 0.05488 0.87477 0.0
C379 C 0.24633 0.05168 0.96939 0.0
N380 N 0.21913 0.96975 0.87237 0.0
N381 N 0.25808 0.13654 0.96615 0.0
H382 H 0.2656 0.01725 0.03279 0.0
H383 H 0.26553 0.07864 0.03696 0.0
H384 H 0.25464 0.1688 0.9488 0.0
H385 H 0.27834 0.13814 0.99804 0.0
H386 H 0.21426 0.96803 0.83639 0.0
H387 H 0.22704 0.93732 0.88838 0.0
H388 H 0.17502 0.02712 0.81247 0.0
H389 H 0.18022 0.08823 0.81321 0.0
C390 C 0.54986 0.59512 0.34792 0.0
C391 C 0.53911 0.62388 0.38581 0.0
C392 C 0.45356 0.62926 0.35526 0.0
C393 C 0.46277 0.59451 0.32188 0.0
N394 N 0.51856 0.54269 0.28641 0.0
N395 N 0.47999 0.66463 0.42886 0.0
C396 C 0.51077 0.57727 0.31781 0.0
C397 C 0.49089 0.64064 0.39005 0.0
N398 N 0.59749 0.5855 0.34065 0.0
N399 N 0.40901 0.65123 0.35374 0.0
H400 H 0.50618 0.67329 0.45546 0.0
H401 H 0.44444 0.67269 0.43653 0.0
H402 H 0.38038 0.64329 0.32913 0.0
H403 H 0.40185 0.68023 0.37415 0.0
H404 H 0.60824 0.568 0.31154 0.0
H405 H 0.62664 0.59906 0.36188 0.0
H406 H 0.55162 0.52479 0.28528 0.0
H407 H 0.49083 0.52993 0.26302 0.0
C408 C 0.31522 0.52025 0.63587 0.0
C409 C 0.28487 0.51481 0.59426 0.0
C410 C 0.26976 0.59971 0.5903 0.0
C411 C 0.30346 0.60553 0.62958 0.0
N412 N 0.34933 0.57236 0.69641 0.0
N413 N 0.22233 0.54553 0.53966 0.0
C414 C 0.3229 0.56595 0.65482 0.0
C415 C 0.2582 0.55341 0.57419 0.0
N416 N 0.33839 0.48169 0.65579 0.0
N417 N 0.25073 0.63855 0.56742 0.0
H418 H 0.21282 0.51165 0.52843 0.0
H419 H 0.19917 0.57158 0.52515 0.0
H420 H 0.25713 0.67271 0.57966 0.0
H421 H 0.23024 0.63729 0.53564 0.0
H422 H 0.36602 0.48321 0.6825 0.0
H423 H 0.33067 0.44748 0.64435 0.0
H424 H 0.3612 0.54506 0.71853 0.0
H425 H 0.35679 0.6055 0.71068 0.0
C426 C 0.98119 0.80785 0.05559 0.0
C427 C 0.0279 0.81848 0.07774 0.0
C428 C 0.99224 0.82463 0.15246 0.0
C429 C 0.94576 0.81296 0.13044 0.0
N430 N 0.89838 0.78123 0.06425 0.0
N431 N 0.08006 0.82385 0.14833 0.0
C432 C 0.94119 0.8002 0.08302 0.0
C433 C 0.03408 0.82242 0.12662 0.0
N434 N 0.97412 0.80851 0.00839 0.0
N435 N 0.99617 0.84088 0.19703 0.0
H436 H 0.1114 0.82265 0.13016 0.0
H437 H 0.0869 0.82135 0.18416 0.0
H438 H 0.96652 0.84355 0.21731 0.0
H439 H 0.02825 0.85524 0.21271 0.0
H440 H 0.93978 0.80621 0.99041 0.0
H441 H 0.00217 0.8156 0.98723 0.0
H442 H 0.89424 0.76733 0.03089 0.0
H443 H 0.86851 0.77522 0.08373 0.0
C444 C 0.71839 0.53391 0.6844 0.0
C445 C 0.68474 0.53541 0.64416 0.0
C446 C 0.62215 0.50647 0.69004 0.0
C447 C 0.65598 0.49203 0.72651 0.0
N448 N 0.73865 0.49859 0.7607 0.0
N449 N 0.60946 0.50275 0.60791 0.0
C450 C 0.70537 0.50738 0.72428 0.0
C451 C 0.63896 0.51329 0.64655 0.0
N452 N 0.76098 0.5587 0.68541 0.0
N453 N 0.57734 0.52377 0.698 0.0
H454 H 0.62152 0.50523 0.57468 0.0
H455 H 0.57531 0.48712 0.61027 0.0
H456 H 0.56916 0.53404 0.73105 0.0
H457 H 0.5536 0.53702 0.67107 0.0
H458 H 0.78464 0.56224 0.71513 0.0
H459 H 0.77113 0.57802 0.65709 0.0
H460 H 0.77602 0.50464 0.75965 0.0
H461 H 0.72815 0.48433 0.79168 0.0
C462 C 0.96324 0.0908 0.17177 0.0
C463 C 0.96323 0.13118 0.1427 0.0
C464 C 0.04601 0.15122 0.17512 0.0
C465 C 0.04524 0.11149 0.20486 0.0
N466 N 0.00026 0.04956 0.23915 0.0
N467 N 0.00114 0.2039 0.12107 0.0
C468 C 0.00282 0.08324 0.2056 0.0
C469 C 0.00333 0.163 0.14618 0.0
N470 N 0.92615 0.05877 0.16599 0.0
N471 N 0.08848 0.17601 0.17259 0.0
H472 H 0.97221 0.21247 0.09703 0.0
H473 H 0.02653 0.23098 0.12612 0.0
H474 H 0.12025 0.1689 0.19367 0.0
H475 H 0.0935 0.20159 0.14763 0.0
H476 H 0.92727 0.02565 0.18152 0.0
H477 H 0.89541 0.06407 0.1431 0.0
H478 H 0.96852 0.03092 0.24456 0.0
H479 H 0.02877 0.04313 0.26442 0.0
C480 C 0.29615 0.70908 0.08161 0.0
C481 C 0.24937 0.72811 0.08803 0.0
C482 C 0.24511 0.67892 0.15685 0.0
C483 C 0.29613 0.67067 0.15722 0.0
N484 N 0.37061 0.67521 0.11773 0.0
N485 N 0.17921 0.73253 0.13372 0.0
C486 C 0.32175 0.68444 0.11861 0.0
C487 C 0.22331 0.7129 0.12579 0.0
N488 N 0.31515 0.71326 0.03958 0.0
N489 N 0.21743 0.65377 0.18536 0.0
H490 H 0.16206 0.7581 0.11233 0.0
H491 H 0.16164 0.72616 0.16377 0.0
H492 H 0.23181 0.62609 0.20595 0.0
H493 H 0.1794 0.65623 0.18392 0.0
H494 H 0.34743 0.69687 0.0315 0.0
H495 H 0.29536 0.72846 0.01111 0.0
H496 H 0.39211 0.68973 0.09324 0.0
H497 H 0.39035 0.65488 0.14274 0.0
C498 C 0.81059 0.76539 0.59288 0.0
C499 C 0.75952 0.75712 0.59201 0.0
C500 C 0.75194 0.81905 0.64947 0.0
C501 C 0.80353 0.81951 0.65791 0.0
N502 N 0.88308 0.79829 0.63405 0.0
N503 N 0.68127 0.77363 0.62164 0.0
C504 C 0.83328 0.7946 0.62812 0.0
C505 C 0.72989 0.78372 0.62043 0.0
N506 N 0.83691 0.74651 0.55915 0.0
N507 N 0.72421 0.85288 0.66845 0.0
H508 H 0.66377 0.74724 0.60165 0.0
H509 H 0.6593 0.78861 0.6455 0.0
H510 H 0.73965 0.88091 0.6877 0.0
H511 H 0.68668 0.8564 0.66037 0.0
H512 H 0.87331 0.75472 0.55511 0.0
H513 H 0.8211 0.72561 0.53243 0.0
H514 H 0.90698 0.77626 0.61799 0.0
H515 H 0.9008 0.82287 0.65618 0.0
C516 C 0.70996 0.19058 0.1717 0.0
C517 C 0.73082 0.22201 0.14032 0.0
C518 C 0.70964 0.28819 0.18914 0.0
C519 C 0.68017 0.25799 0.2144 0.0
N520 N 0.65205 0.17912 0.22954 0.0
N521 N 0.74151 0.30244 0.11506 0.0
C522 C 0.68031 0.20876 0.20565 0.0
C523 C 0.72841 0.27134 0.14796 0.0
N524 N 0.72044 0.14353 0.17083 0.0
N525 N 0.72129 0.33234 0.20505 0.0
H526 H 0.7526 0.29201 0.08301 0.0
H527 H 0.73593 0.33865 0.11758 0.0
H528 H 0.71201 0.34467 0.23712 0.0
H529 H 0.7458 0.35409 0.18939 0.0
H530 H 0.71087 0.11989 0.19613 0.0
H531 H 0.74319 0.12875 0.1477 0.0
H532 H 0.64541 0.14423 0.2199 0.0
H533 H 0.6331 0.18966 0.2576 0.0
C534 C 0.27133 0.32994 0.7099 0.0
C535 C 0.24343 0.31157 0.6706 0.0
C536 C 0.17899 0.28856 0.71952 0.0
C537 C 0.21154 0.2963 0.75933 0.0
N538 N 0.28411 0.33464 0.79363 0.0
N539 N 0.1715 0.27128 0.63756 0.0
C540 C 0.25633 0.32042 0.75493 0.0
C541 C 0.19714 0.29083 0.67514 0.0
N542 N 0.31074 0.35819 0.70389 0.0
N543 N 0.13058 0.28014 0.72422 0.0
H544 H 0.18389 0.27157 0.6044 0.0
H545 H 0.14003 0.25123 0.64009 0.0
H546 H 0.1157 0.28094 0.7563 0.0
H547 H 0.10445 0.27805 0.69617 0.0
H548 H 0.33018 0.37635 0.73052 0.0
H549 H 0.32221 0.36648 0.67136 0.0
H550 H 0.32035 0.34545 0.79349 0.0
H551 H 0.27063 0.33598 0.82629 0.0
C552 C 0.76972 0.74768 0.38277 0.0
C553 C 0.77306 0.69903 0.39322 0.0
C554 C 0.81572 0.68662 0.32315 0.0
C555 C 0.80034 0.73206 0.30701 0.0
N556 N 0.76331 0.80728 0.32324 0.0
N557 N 0.7987 0.62092 0.37286 0.0
C558 C 0.77811 0.76329 0.33759 0.0
C559 C 0.79656 0.66809 0.36366 0.0
N560 N 0.75905 0.77894 0.41643 0.0
N561 N 0.8496 0.66184 0.30091 0.0
H562 H 0.78588 0.60615 0.40257 0.0
H563 H 0.81026 0.59625 0.34941 0.0
H564 H 0.86771 0.67595 0.27374 0.0
H565 H 0.86441 0.63002 0.31339 0.0
H566 H 0.7605 0.81534 0.41223 0.0
H567 H 0.75413 0.76838 0.45032 0.0
H568 H 0.74127 0.82879 0.34205 0.0
H569 H 0.77042 0.82147 0.29137 0.0
C570 C 0.71631 0.28764 0.92576 0.0
C571 C 0.75781 0.25805 0.92419 0.0
C572 C 0.75507 0.26709 0.83965 0.0
C573 C 0.70964 0.29093 0.84092 0.0
N574 N 0.65833 0.34034 0.88422 0.0
N575 N 0.82458 0.22938 0.8824 0.0
C576 C 0.69417 0.30691 0.88384 0.0
C577 C 0.7802 0.25155 0.88197 0.0
N578 N 0.69703 0.2956 0.9672 0.0
N579 N 0.77247 0.25732 0.79773 0.0
H580 H 0.84293 0.21602 0.91248 0.0
H581 H 0.84486 0.22622 0.85368 0.0
H582 H 0.75641 0.27121 0.76678 0.0
H583 H 0.80217 0.23547 0.79312 0.0
H584 H 0.66345 0.31196 0.97037 0.0
H585 H 0.71414 0.28407 -0.00131 0.0
H586 H 0.64771 0.35623 0.91422 0.0
H587 H 0.64259 0.35572 0.85393 0.0
C588 C 0.20499 0.24168 0.42087 0.0
C589 C 0.22691 0.2304 0.46554 0.0
C590 C 0.2068 0.14733 0.45144 0.0
C591 C 0.1783 0.15985 0.40983 0.0
N592 N 0.141 0.22293 0.36229 0.0
N593 N 0.2348 0.17379 0.52823 0.0
C594 C 0.17426 0.20828 0.39702 0.0
C595 C 0.22377 0.18361 0.48237 0.0
N596 N 0.21525 0.28321 0.39981 0.0
N597 N 0.21958 0.10167 0.46138 0.0
H598 H 0.24412 0.19969 0.55282 0.0
H599 H 0.22869 0.14083 0.54262 0.0
H600 H 0.21157 0.07336 0.43942 0.0
H601 H 0.24385 0.0926 0.48954 0.0
H602 H 0.20373 0.29065 0.36538 0.0
H603 H 0.23994 0.30771 0.41452 0.0
H604 H 0.13396 0.25844 0.35525 0.0
H605 H 0.1169 0.20044 0.34369 0.0
C606 C 0.24669 0.783 0.84508 0.0
C607 C 0.27303 0.7894 0.88864 0.0
C608 C 0.34518 0.75219 0.8586 0.0
C609 C 0.31762 0.74428 0.81545 0.0
N610 N 0.23645 0.73308 0.77803 0.0
N611 N 0.34511 0.77281 0.93978 0.0
C612 C 0.26665 0.75409 0.81157 0.0
C613 C 0.3219 0.77247 0.89617 0.0
N614 N 0.20283 0.80524 0.83522 0.0
N615 N 0.39335 0.73922 0.86437 0.0
H616 H 0.33033 0.78777 0.96834 0.0
H617 H 0.37781 0.7552 0.94881 0.0
H618 H 0.40976 0.71609 0.84234 0.0
H619 H 0.41744 0.75168 0.89115 0.0
H620 H 0.18439 0.80478 0.80232 0.0
H621 H 0.18776 0.82833 0.85827 0.0
H622 H 0.19849 0.73664 0.77615 0.0
H623 H 0.24848 0.70665 0.75678 0.0
loop_
_geom_bond_atom_site_label_1
_geom_bond_atom_site_label_2
_geom_bond_distance
_geom_bond_site_symmetry_2
_ccdc_geom_bond_type
Sc0 O3 2.025 . S
Sc0 O10 2.105 1_554 S
Sc0 O13 2.105 . S
Sc0 O16 2.105 . S
Sc0 O19 2.105 1_554 S
Sc1 O3 2.025 1_556 S
Sc1 O11 2.105 . S
Sc1 O15 2.105 1_556 S
Sc1 O17 2.105 1_556 S
Sc1 O21 2.105 . S
Sc2 O3 2.025 . S
Sc2 O12 2.105 1_554 S
Sc2 O14 2.105 . S
Sc2 O18 2.105 . S
Sc2 O20 2.105 1_554 S
O3 Sc0 2.025 . S
O3 Sc1 2.025 1_554 S
O3 Sc2 2.025 . S
C4 O10 1.268 . S
C4 O20 1.268 . S
C5 O11 1.268 . S
C5 O19 1.268 . S
C6 O12 1.268 . S
C6 O21 1.268 . S
C7 O13 1.268 . S
C7 O17 1.268 . S
C8 O14 1.268 . S
C8 O16 1.268 . S
C9 O15 1.268 . S
C9 O18 1.268 . S
O10 Sc0 2.105 1_556 S
O10 C4 1.268 . S
O11 Sc1 2.105 . S
O11 C5 1.268 . S
O12 Sc2 2.105 1_556 S
O12 C6 1.268 . S
O13 Sc0 2.105 . S
O13 C7 1.268 . S
O14 Sc2 2.105 . S
O14 C8 1.268 . S
O15 Sc1 2.105 1_554 S
O15 C9 1.268 . S
O16 Sc0 2.105 . S
O16 C8 1.268 . S
O17 Sc1 2.105 1_554 S
O17 C7 1.268 . S
O18 Sc2 2.105 . S
O18 C9 1.268 . S
O19 Sc0 2.105 1_556 S
O19 C5 1.268 . S
O20 Sc2 2.105 1_556 S
O20 C4 1.268 . S
O21 Sc1 2.105 . S
O21 C6 1.268 . S
Sc22 O25 2.025 . S
Sc22 O32 2.105 . S
Sc22 O35 2.105 . S
Sc22 O38 2.105 . S
Sc22 O41 2.105 . S
Sc23 O25 2.025 . S
Sc23 O33 2.105 . S
Sc23 O37 2.105 . S
Sc23 O39 2.105 . S
Sc23 O43 2.105 . S
Sc24 O25 2.025 . S
Sc24 O34 2.105 . S
Sc24 O36 2.105 . S
Sc24 O40 2.105 . S
Sc24 O42 2.105 . S
O25 Sc22 2.025 . S
O25 Sc23 2.025 . S
O25 Sc24 2.025 . S
C26 O32 1.268 . S
C26 O42 1.268 . S
C27 O33 1.268 . S
C27 O41 1.268 . S
C28 O34 1.268 . S
C28 O43 1.268 . S
C29 O35 1.268 . S
C29 O39 1.268 . S
C30 O36 1.268 . S
C30 O38 1.268 . S
C31 O37 1.268 . S
C31 O40 1.268 . S
O32 Sc22 2.105 . S
O32 C26 1.268 . S
O33 Sc23 2.105 . S
O33 C27 1.268 . S
O34 Sc24 2.105 . S
O34 C28 1.268 . S
O35 Sc22 2.105 . S
O35 C29 1.268 . S
O36 Sc24 2.105 . S
O36 C30 1.268 . S
O37 Sc23 2.105 . S
O37 C31 1.268 . S
O38 Sc22 2.105 . S
O38 C30 1.268 . S
O39 Sc23 2.105 . S
O39 C29 1.268 . S
O40 Sc24 2.105 . S
O40 C31 1.268 . S
O41 Sc22 2.105 . S
O41 C27 1.268 . S
O42 Sc24 2.105 . S
O42 C26 1.268 . S
O43 Sc23 2.105 . S
O43 C28 1.268 . S
Sc44 O47 2.025 . S
Sc44 O54 2.105 . S
Sc44 O57 2.105 . S
Sc44 O60 2.105 . S
Sc44 O63 2.105 . S
Sc45 O47 2.025 . S
Sc45 O55 2.105 1_554 S
Sc45 O59 2.105 . S
Sc45 O61 2.105 . S
Sc45 O65 2.105 1_554 S
Sc46 O47 2.025 . S
Sc46 O56 2.105 1_554 S
Sc46 O58 2.105 . S
Sc46 O62 2.105 . S
Sc46 O64 2.105 1_554 S
O47 Sc44 2.025 . S
O47 Sc45 2.025 . S
O47 Sc46 2.025 . S
C48 O54 1.268 1_556 S
C48 O64 1.268 . S
C49 O55 1.268 . S
C49 O63 1.268 1_556 S
C50 O56 1.268 . S
C50 O65 1.268 . S
C51 O57 1.268 . S
C51 O61 1.268 . S
C52 O58 1.268 . S
C52 O60 1.268 . S
C53 O59 1.268 . S
C53 O62 1.268 . S
O54 Sc44 2.105 . S
O54 C48 1.268 1_554 S
O55 Sc45 2.105 1_556 S
O55 C49 1.268 . S
O56 Sc46 2.105 1_556 S
O56 C50 1.268 . S
O57 Sc44 2.105 . S
O57 C51 1.268 . S
O58 Sc46 2.105 . S
O58 C52 1.268 . S
O59 Sc45 2.105 . S
O59 C53 1.268 . S
O60 Sc44 2.105 . S
O60 C52 1.268 . S
O61 Sc45 2.105 . S
O61 C51 1.268 . S
O62 Sc46 2.105 . S
O62 C53 1.268 . S
O63 Sc44 2.105 . S
O63 C49 1.268 1_554 S
O64 Sc46 2.105 1_556 S
O64 C48 1.268 . S
O65 Sc45 2.105 1_556 S
O65 C50 1.268 . S
Sc66 O69 2.025 . S
Sc66 O76 2.105 . S
Sc66 O79 2.105 . S
Sc66 O82 2.105 . S
Sc66 O85 2.105 . S
Sc67 O69 2.025 . S
Sc67 O77 2.105 . S
Sc67 O81 2.105 . S
Sc67 O83 2.105 . S
Sc67 O87 2.105 . S
Sc68 O69 2.025 . S
Sc68 O78 2.105 . S
Sc68 O80 2.105 . S
Sc68 O84 2.105 . S
Sc68 O86 2.105 . S
O69 Sc66 2.025 . S
O69 Sc67 2.025 . S
O69 Sc68 2.025 . S
C70 O76 1.268 . S
C70 O86 1.268 . S
C71 O77 1.268 . S
C71 O85 1.268 . S
C72 O78 1.268 . S
C72 O87 1.268 . S
C73 O79 1.268 . S
C73 O83 1.268 . S
C74 O80 1.268 . S
C74 O82 1.268 . S
C75 O81 1.268 . S
C75 O84 1.268 . S
O76 Sc66 2.105 . S
O76 C70 1.268 . S
O77 Sc67 2.105 . S
O77 C71 1.268 . S
O78 Sc68 2.105 . S
O78 C72 1.268 . S
O79 Sc66 2.105 . S
O79 C73 1.268 . S
O80 Sc68 2.105 . S
O80 C74 1.268 . S
O81 Sc67 2.105 . S
O81 C75 1.268 . S
O82 Sc66 2.105 . S
O82 C74 1.268 . S
O83 Sc67 2.105 . S
O83 C73 1.268 . S
O84 Sc68 2.105 . S
O84 C75 1.268 . S
O85 Sc66 2.105 . S
O85 C71 1.268 . S
O86 Sc68 2.105 . S
O86 C70 1.268 . S
O87 Sc67 2.105 . S
O87 C72 1.268 . S
H88 C95 0.929 . S
H89 C98 0.930 . S
H90 C100 0.929 . S
H91 C92 0.969 . S
C92 H91 0.969 . S
C92 O93 1.550 . S
C92 H94 0.973 . S
O93 C92 1.550 . S
O93 C99 1.412 . S
H94 C92 0.973 . S
C95 H88 0.929 . S
C95 C96 1.400 . S
C95 C97 1.364 . S
C96 C95 1.400 . S
C96 C100 1.377 . S
C97 C95 1.364 . S
C97 C98 1.374 . S
C98 H89 0.930 . S
C98 C97 1.374 . S
C98 C99 1.383 . S
C99 O93 1.412 . S
C99 C98 1.383 . S
C99 C100 1.394 . S
C100 H90 0.929 . S
C100 C96 1.377 . S
C100 C99 1.394 . S
H101 C108 0.929 . S
H102 C111 0.930 . S
H103 C113 0.929 . S
H104 C105 0.969 . S
C105 H104 0.969 . S
C105 O106 1.550 . S
C105 H107 0.973 . S
O106 C105 1.550 . S
O106 C112 1.412 . S
H107 C105 0.973 . S
C108 H101 0.929 . S
C108 C109 1.400 . S
C108 C110 1.364 . S
C109 C108 1.400 . S
C109 C113 1.377 . S
C110 C108 1.364 . S
C110 C111 1.374 . S
C111 H102 0.930 . S
C111 C110 1.374 . S
C111 C112 1.383 . S
C112 O106 1.412 . S
C112 C111 1.383 . S
C112 C113 1.394 . S
C113 H103 0.929 . S
C113 C109 1.377 . S
C113 C112 1.394 . S
H114 C121 0.929 . S
H115 C124 0.930 . S
H116 C126 0.929 . S
H117 C118 0.969 . S
C118 H117 0.969 . S
C118 O119 1.550 . S
C118 H120 0.973 . S
O119 C118 1.550 . S
O119 C125 1.412 . S
H120 C118 0.973 . S
C121 H114 0.929 . S
C121 C122 1.400 . S
C121 C123 1.364 . S
C122 C121 1.400 . S
C122 C126 1.377 . S
C123 C121 1.364 . S
C123 C124 1.374 . S
C124 H115 0.930 . S
C124 C123 1.374 . S
C124 C125 1.383 . S
C125 O119 1.412 . S
C125 C124 1.383 . S
C125 C126 1.394 . S
C126 H116 0.929 . S
C126 C122 1.377 . S
C126 C125 1.394 . S
H127 C134 0.929 . S
H128 C137 0.930 . S
H129 C139 0.929 . S
H130 C131 0.969 . S
C131 H130 0.969 . S
C131 O132 1.550 . S
C131 H133 0.973 . S
O132 C131 1.550 . S
O132 C138 1.412 . S
H133 C131 0.973 . S
C134 H127 0.929 . S
C134 C135 1.400 . S
C134 C136 1.364 . S
C135 C134 1.400 . S
C135 C139 1.377 . S
C136 C134 1.364 . S
C136 C137 1.374 . S
C137 H128 0.930 . S
C137 C136 1.374 . S
C137 C138 1.383 . S
C138 O132 1.412 . S
C138 C137 1.383 . S
C138 C139 1.394 . S
C139 H129 0.929 . S
C139 C135 1.377 . S
C139 C138 1.394 . S
H140 C147 0.929 . S
H141 C150 0.930 . S
H142 C152 0.929 . S
H143 C144 0.969 . S
C144 H143 0.969 . S
C144 O145 1.550 . S
C144 H146 0.973 . S
O145 C144 1.550 . S
O145 C151 1.412 . S
H146 C144 0.973 . S
C147 H140 0.929 . S
C147 C148 1.400 . S
C147 C149 1.364 . S
C148 C147 1.400 . S
C148 C152 1.377 . S
C149 C147 1.364 . S
C149 C150 1.374 . S
C150 H141 0.930 . S
C150 C149 1.374 . S
C150 C151 1.383 . S
C151 O145 1.412 . S
C151 C150 1.383 . S
C151 C152 1.394 . S
C152 H142 0.929 . S
C152 C148 1.377 . S
C152 C151 1.394 . S
H153 C160 0.929 . S
H154 C163 0.930 . S
H155 C165 0.929 . S
H156 C157 0.969 . S
C157 H156 0.969 . S
C157 O158 1.550 . S
C157 H159 0.973 . S
O158 C157 1.550 . S
O158 C164 1.412 . S
H159 C157 0.973 . S
C160 H153 0.929 . S
C160 C161 1.400 . S
C160 C162 1.364 . S
C161 C160 1.400 . S
C161 C165 1.377 . S
C162 C160 1.364 . S
C162 C163 1.374 . S
C163 H154 0.930 . S
C163 C162 1.374 . S
C163 C164 1.383 . S
C164 O158 1.412 . S
C164 C163 1.383 . S
C164 C165 1.394 . S
C165 H155 0.929 . S
C165 C161 1.377 . S
C165 C164 1.394 . S
H166 C173 0.929 . S
H167 C176 0.930 . S
H168 C178 0.929 . S
H169 C170 0.969 . S
C170 H169 0.969 . S
C170 O171 1.550 . S
C170 H172 0.973 . S
O171 C170 1.550 . S
O171 C177 1.412 . S
H172 C170 0.973 . S
C173 H166 0.929 . S
C173 C174 1.400 . S
C173 C175 1.364 . S
C174 C173 1.400 . S
C174 C178 1.377 . S
C175 C173 1.364 . S
C175 C176 1.374 . S
C176 H167 0.930 . S
C176 C175 1.374 . S
C176 C177 1.383 . S
C177 O171 1.412 . S
C177 C176 1.383 . S
C177 C178 1.394 . S
C178 H168 0.929 . S
C178 C174 1.377 . S
C178 C177 1.394 . S
H179 C186 0.929 . S
H180 C189 0.930 . S
H181 C191 0.929 . S
H182 C183 0.969 . S
C183 H182 0.969 . S
C183 O184 1.550 . S
C183 H185 0.973 . S
O184 C183 1.550 . S
O184 C190 1.412 . S
H185 C183 0.973 . S
C186 H179 0.929 . S
C186 C187 1.400 . S
C186 C188 1.364 . S
C187 C186 1.400 . S
C187 C191 1.377 . S
C188 C186 1.364 . S
C188 C189 1.374 . S
C189 H180 0.930 . S
C189 C188 1.374 . S
C189 C190 1.383 . S
C190 O184 1.412 . S
C190 C189 1.383 . S
C190 C191 1.394 . S
C191 H181 0.929 . S
C191 C187 1.377 . S
C191 C190 1.394 . S
C192 C193 1.363 . S
C192 C198 1.379 . S
C192 N200 1.356 . S
C193 C192 1.363 . S
C193 C199 1.363 . S
C194 C195 1.363 1_545 S
C194 C199 1.379 1_545 S
C194 N201 1.356 . S
C195 C194 1.363 1_565 S
C195 C198 1.363 . S
N196 C198 1.356 . S
N196 H208 0.984 . S
N196 H209 0.985 . S
N197 C199 1.356 1_545 S
N197 H202 0.984 1_545 S
N197 H203 0.985 . S
C198 C192 1.379 . S
C198 C195 1.363 . S
C198 N196 1.356 . S
C199 C193 1.363 . S
C199 C194 1.379 1_565 S
C199 N197 1.356 1_565 S
N200 C192 1.356 . S
N200 H206 0.984 . S
N200 H207 0.984 . S
N201 C194 1.356 . S
N201 H204 0.984 . S
N201 H205 0.985 . S
H202 N197 0.984 1_565 S
H203 N197 0.985 . S
H204 N201 0.984 . S
H205 N201 0.985 . S
H206 N200 0.984 . S
H207 N200 0.984 . S
H208 N196 0.984 . S
H209 N196 0.985 . S
C210 C211 1.363 . S
C210 C216 1.379 . S
C210 N218 1.356 . S
C211 C210 1.363 . S
C211 C217 1.363 . S
C212 C213 1.363 . S
C212 C217 1.379 . S
C212 N219 1.356 . S
C213 C212 1.363 . S
C213 C216 1.363 . S
N214 C216 1.356 . S
N214 H226 0.984 . S
N214 H227 0.985 . S
N215 C217 1.356 . S
N215 H220 0.984 . S
N215 H221 0.985 . S
C216 C210 1.379 . S
C216 C213 1.363 . S
C216 N214 1.356 . S
C217 C211 1.363 . S
C217 C212 1.379 . S
C217 N215 1.356 . S
N218 C210 1.356 . S
N218 H224 0.984 . S
N218 H225 0.984 . S
N219 C212 1.356 . S
N219 H222 0.984 . S
N219 H223 0.985 . S
H220 N215 0.984 . S
H221 N215 0.985 . S
H222 N219 0.984 . S
H223 N219 0.985 . S
H224 N218 0.984 . S
H225 N218 0.984 . S
H226 N214 0.984 . S
H227 N214 0.985 . S
C228 C229 1.363 . S
C228 C234 1.379 . S
C228 N236 1.356 1_565 S
C229 C228 1.363 . S
C229 C235 1.363 . S
C230 C231 1.363 . S
C230 C235 1.379 . S
C230 N237 1.356 . S
C231 C230 1.363 . S
C231 C234 1.363 . S
N232 C234 1.356 . S
N232 H244 0.984 . S
N232 H245 0.985 . S
N233 C235 1.356 . S
N233 H238 0.984 1_565 S
N233 H239 0.985 . S
C234 C228 1.379 . S
C234 C231 1.363 . S
C234 N232 1.356 . S
C235 C229 1.363 . S
C235 C230 1.379 . S
C235 N233 1.356 . S
N236 C228 1.356 1_545 S
N236 H242 0.984 . S
N236 H243 0.984 . S
N237 C230 1.356 . S
N237 H240 0.984 . S
N237 H241 0.985 . S
H238 N233 0.984 1_545 S
H239 N233 0.985 . S
H240 N237 0.984 . S
H241 N237 0.985 . S
H242 N236 0.984 . S
H243 N236 0.984 . S
H244 N232 0.984 . S
H245 N232 0.985 . S
C246 C247 1.363 . S
C246 C252 1.379 . S
C246 N254 1.356 . S
C247 C246 1.363 . S
C247 C253 1.363 . S
C248 C249 1.363 . S
C248 C253 1.379 . S
C248 N255 1.356 . S
C249 C248 1.363 . S
C249 C252 1.363 . S
N250 C252 1.356 . S
N250 H262 0.984 . S
N250 H263 0.985 . S
N251 C253 1.356 . S
N251 H256 0.984 . S
N251 H257 0.985 . S
C252 C246 1.379 . S
C252 C249 1.363 . S
C252 N250 1.356 . S
C253 C247 1.363 . S
C253 C248 1.379 . S
C253 N251 1.356 . S
N254 C246 1.356 . S
N254 H260 0.984 . S
N254 H261 0.984 . S
N255 C248 1.356 . S
N255 H258 0.984 . S
N255 H259 0.985 . S
H256 N251 0.984 . S
H257 N251 0.985 . S
H258 N255 0.984 . S
H259 N255 0.985 . S
H260 N254 0.984 . S
H261 N254 0.984 . S
H262 N250 0.984 . S
H263 N250 0.985 . S
C264 C265 1.363 . S
C264 C270 1.379 . S
C264 N272 1.356 . S
C265 C264 1.363 . S
C265 C271 1.363 . S
C266 C267 1.363 . S
C266 C271 1.379 . S
C266 N273 1.356 . S
C267 C266 1.363 . S
C267 C270 1.363 . S
N268 C270 1.356 . S
N268 H280 0.984 . S
N268 H281 0.985 . S
N269 C271 1.356 . S
N269 H274 0.984 . S
N269 H275 0.985 . S
C270 C264 1.379 . S
C270 C267 1.363 . S
C270 N268 1.356 . S
C271 C265 1.363 . S
C271 C266 1.379 . S
C271 N269 1.356 . S
N272 C264 1.356 . S
N272 H278 0.984 . S
N272 H279 0.984 . S
N273 C266 1.356 . S
N273 H276 0.984 . S
N273 H277 0.985 . S
H274 N269 0.984 . S
H275 N269 0.985 . S
H276 N273 0.984 . S
H277 N273 0.985 . S
H278 N272 0.984 . S
H279 N272 0.984 . S
H280 N268 0.984 . S
H281 N268 0.985 . S
C282 C283 1.363 . S
C282 C288 1.379 . S
C282 N290 1.356 1_455 S
C283 C282 1.363 . S
C283 C289 1.363 . S
C284 C285 1.363 . S
C284 C289 1.379 . S
C284 N291 1.356 . S
C285 C284 1.363 . S
C285 C288 1.363 . S
N286 C288 1.356 . S
N286 H298 0.984 . S
N286 H299 0.985 . S
N287 C289 1.356 . S
N287 H292 0.984 1_455 S
N287 H293 0.985 . S
C288 C282 1.379 . S
C288 C285 1.363 . S
C288 N286 1.356 . S
C289 C283 1.363 . S
C289 C284 1.379 . S
C289 N287 1.356 . S
N290 C282 1.356 1_655 S
N290 H296 0.984 . S
N290 H297 0.984 . S
N291 C284 1.356 . S
N291 H294 0.984 . S
N291 H295 0.985 . S
H292 N287 0.984 1_655 S
H293 N287 0.985 . S
H294 N291 0.984 . S
H295 N291 0.985 . S
H296 N290 0.984 . S
H297 N290 0.984 . S
H298 N286 0.984 . S
H299 N286 0.985 . S
C300 C301 1.363 . S
C300 C306 1.379 . S
C300 N308 1.356 . S
C301 C300 1.363 . S
C301 C307 1.363 . S
C302 C303 1.363 . S
C302 C307 1.379 . S
C302 N309 1.356 . S
C303 C302 1.363 . S
C303 C306 1.363 . S
N304 C306 1.356 . S
N304 H316 0.984 . S
N304 H317 0.985 . S
N305 C307 1.356 . S
N305 H310 0.984 . S
N305 H311 0.985 . S
C306 C300 1.379 . S
C306 C303 1.363 . S
C306 N304 1.356 . S
C307 C301 1.363 . S
C307 C302 1.379 . S
C307 N305 1.356 . S
N308 C300 1.356 . S
N308 H314 0.984 . S
N308 H315 0.984 . S
N309 C302 1.356 . S
N309 H312 0.984 . S
N309 H313 0.985 . S
H310 N305 0.984 . S
H311 N305 0.985 . S
H312 N309 0.984 . S
H313 N309 0.985 . S
H314 N308 0.984 . S
H315 N308 0.984 . S
H316 N304 0.984 . S
H317 N304 0.985 . S
C318 C319 1.363 1_655 S
C318 C324 1.379 . S
C318 N326 1.356 1_655 S
C319 C318 1.363 1_455 S
C319 C325 1.363 1_455 S
C320 C321 1.363 . S
C320 C325 1.379 . S
C320 N327 1.356 . S
C321 C320 1.363 . S
C321 C324 1.363 . S
N322 C324 1.356 . S
N322 H334 0.984 . S
N322 H335 0.985 . S
N323 C325 1.356 1_455 S
N323 H328 0.984 . S
N323 H329 0.985 1_455 S
C324 C318 1.379 . S
C324 C321 1.363 . S
C324 N322 1.356 . S
C325 C319 1.363 1_655 S
C325 C320 1.379 . S
C325 N323 1.356 1_655 S
N326 C318 1.356 1_455 S
N326 H332 0.984 . S
N326 H333 0.984 . S
N327 C320 1.356 . S
N327 H330 0.984 . S
N327 H331 0.985 . S
H328 N323 0.984 . S
H329 N323 0.985 1_655 S
H330 N327 0.984 . S
H331 N327 0.985 . S
H332 N326 0.984 . S
H333 N326 0.984 . S
H334 N322 0.984 . S
H335 N322 0.985 . S
C336 C337 1.363 . S
C336 C342 1.379 1_545 S
C336 N344 1.356 . S
C337 C336 1.363 . S
C337 C343 1.363 . S
C338 C339 1.364 . S
C338 C343 1.379 . S
C338 N345 1.356 . S
C339 C338 1.364 . S
C339 C342 1.362 1_545 S
N340 C342 1.356 . S
N340 H352 0.984 . S
N340 H353 0.985 . S
N341 C343 1.356 . S
N341 H346 0.984 . S
N341 H347 0.985 . S
C342 C336 1.379 1_565 S
C342 C339 1.362 1_565 S
C342 N340 1.356 . S
C343 C337 1.363 . S
C343 C338 1.379 . S
C343 N341 1.356 . S
N344 C336 1.356 . S
N344 H350 0.984 1_545 S
N344 H351 0.984 . S
N345 C338 1.356 . S
N345 H348 0.984 . S
N345 H349 0.985 . S
H346 N341 0.984 . S
H347 N341 0.985 . S
H348 N345 0.984 . S
H349 N345 0.985 . S
H350 N344 0.984 1_565 S
H351 N344 0.984 . S
H352 N340 0.984 . S
H353 N340 0.985 . S
C354 C355 1.363 . S
C354 C360 1.379 . S
C354 N362 1.356 . S
C355 C354 1.363 . S
C355 C361 1.363 . S
C356 C357 1.363 . S
C356 C361 1.379 . S
C356 N363 1.356 . S
C357 C356 1.363 . S
C357 C360 1.363 . S
N358 C360 1.356 . S
N358 H370 0.984 . S
N358 H371 0.985 . S
N359 C361 1.356 . S
N359 H364 0.984 . S
N359 H365 0.985 . S
C360 C354 1.379 . S
C360 C357 1.363 . S
C360 N358 1.356 . S
C361 C355 1.363 . S
C361 C356 1.379 . S
C361 N359 1.356 . S
N362 C354 1.356 . S
N362 H368 0.984 . S
N362 H369 0.984 . S
N363 C356 1.356 . S
N363 H366 0.984 . S
N363 H367 0.985 . S
H364 N359 0.984 . S
H365 N359 0.985 . S
H366 N363 0.984 . S
H367 N363 0.985 . S
H368 N362 0.984 . S
H369 N362 0.984 . S
H370 N358 0.984 . S
H371 N358 0.985 . S
C372 C373 1.363 1_545 S
C372 C378 1.379 . S
C372 N380 1.356 1_545 S
C373 C372 1.363 1_565 S
C373 C379 1.363 1_565 S
C374 C375 1.363 . S
C374 C379 1.379 . S
C374 N381 1.356 . S
C375 C374 1.363 . S
C375 C378 1.363 . S
N376 C378 1.356 . S
N376 H388 0.984 . S
N376 H389 0.985 . S
N377 C379 1.356 . S
N377 H382 0.984 1_545 S
N377 H383 0.985 1_556 S
C378 C372 1.379 . S
C378 C375 1.363 . S
C378 N376 1.356 . S
C379 C373 1.363 1_545 S
C379 C374 1.379 . S
C379 N377 1.356 . S
N380 C372 1.356 1_565 S
N380 H386 0.984 . S
N380 H387 0.984 . S
N381 C374 1.356 . S
N381 H384 0.984 . S
N381 H385 0.985 . S
H382 N377 0.984 1_565 S
H383 N377 0.985 1_554 S
H384 N381 0.984 . S
H385 N381 0.985 . S
H386 N380 0.984 . S
H387 N380 0.984 . S
H388 N376 0.984 . S
H389 N376 0.985 . S
C390 C391 1.363 . S
C390 C396 1.379 . S
C390 N398 1.356 . S
C391 C390 1.363 . S
C391 C397 1.363 . S
C392 C393 1.363 . S
C392 C397 1.379 . S
C392 N399 1.356 . S
C393 C392 1.363 . S
C393 C396 1.363 . S
N394 C396 1.356 . S
N394 H406 0.984 . S
N394 H407 0.985 . S
N395 C397 1.356 . S
N395 H400 0.984 . S
N395 H401 0.985 . S
C396 C390 1.379 . S
C396 C393 1.363 . S
C396 N394 1.356 . S
C397 C391 1.363 . S
C397 C392 1.379 . S
C397 N395 1.356 . S
N398 C390 1.356 . S
N398 H404 0.984 . S
N398 H405 0.984 . S
N399 C392 1.356 . S
N399 H402 0.984 . S
N399 H403 0.985 . S
H400 N395 0.984 . S
H401 N395 0.985 . S
H402 N399 0.984 . S
H403 N399 0.985 . S
H404 N398 0.984 . S
H405 N398 0.984 . S
H406 N394 0.984 . S
H407 N394 0.985 . S
C408 C409 1.363 . S
C408 C414 1.379 . S
C408 N416 1.356 . S
C409 C408 1.363 . S
C409 C415 1.363 . S
C410 C411 1.363 . S
C410 C415 1.379 . S
C410 N417 1.356 . S
C411 C410 1.363 . S
C411 C414 1.363 . S
N412 C414 1.356 . S
N412 H424 0.984 . S
N412 H425 0.985 . S
N413 C415 1.356 . S
N413 H418 0.984 . S
N413 H419 0.985 . S
C414 C408 1.379 . S
C414 C411 1.363 . S
C414 N412 1.356 . S
C415 C409 1.363 . S
C415 C410 1.379 . S
C415 N413 1.356 . S
N416 C408 1.356 . S
N416 H422 0.984 . S
N416 H423 0.984 . S
N417 C410 1.356 . S
N417 H420 0.984 . S
N417 H421 0.985 . S
H418 N413 0.984 . S
H419 N413 0.985 . S
H420 N417 0.984 . S
H421 N417 0.985 . S
H422 N416 0.984 . S
H423 N416 0.984 . S
H424 N412 0.984 . S
H425 N412 0.985 . S
C426 C427 1.363 1_655 S
C426 C432 1.379 . S
C426 N434 1.356 . S
C427 C426 1.363 1_455 S
C427 C433 1.363 1_455 S
C428 C429 1.363 . S
C428 C433 1.378 . S
C428 N435 1.356 . S
C429 C428 1.363 . S
C429 C432 1.363 . S
N430 C432 1.356 . S
N430 H442 0.984 . S
N430 H443 0.985 . S
N431 C433 1.357 1_455 S
N431 H436 0.984 . S
N431 H437 0.985 . S
C432 C426 1.379 . S
C432 C429 1.363 . S
C432 N430 1.356 . S
C433 C427 1.363 1_655 S
C433 C428 1.378 . S
C433 N431 1.357 1_655 S
N434 C426 1.356 . S
N434 H440 0.984 1_554 S
N434 H441 0.984 1_655 S
N435 C428 1.356 . S
N435 H438 0.984 . S
N435 H439 0.985 . S
H436 N431 0.984 . S
H437 N431 0.985 . S
H438 N435 0.984 . S
H439 N435 0.985 . S
H440 N434 0.984 1_556 S
H441 N434 0.984 1_455 S
H442 N430 0.984 . S
H443 N430 0.985 . S
C444 C445 1.363 . S
C444 C450 1.379 . S
C444 N452 1.356 . S
C445 C444 1.363 . S
C445 C451 1.363 . S
C446 C447 1.363 . S
C446 C451 1.379 . S
C446 N453 1.356 . S
C447 C446 1.363 . S
C447 C450 1.363 . S
N448 C450 1.356 . S
N448 H460 0.984 . S
N448 H461 0.985 . S
N449 C451 1.356 . S
N449 H454 0.984 . S
N449 H455 0.985 . S
C450 C444 1.379 . S
C450 C447 1.363 . S
C450 N448 1.356 . S
C451 C445 1.363 . S
C451 C446 1.379 . S
C451 N449 1.356 . S
N452 C444 1.356 . S
N452 H458 0.984 . S
N452 H459 0.984 . S
N453 C446 1.356 . S
N453 H456 0.984 . S
N453 H457 0.985 . S
H454 N449 0.984 . S
H455 N449 0.985 . S
H456 N453 0.984 . S
H457 N453 0.985 . S
H458 N452 0.984 . S
H459 N452 0.984 . S
H460 N448 0.984 . S
H461 N448 0.985 . S
C462 C463 1.363 . S
C462 C468 1.379 1_655 S
C462 N470 1.356 . S
C463 C462 1.363 . S
C463 C469 1.363 1_655 S
C464 C465 1.363 . S
C464 C469 1.379 . S
C464 N471 1.356 . S
C465 C464 1.363 . S
C465 C468 1.363 . S
N466 C468 1.356 . S
N466 H478 0.984 . S
N466 H479 0.985 . S
N467 C469 1.356 . S
N467 H472 0.984 1_455 S
N467 H473 0.985 . S
C468 C462 1.379 1_455 S
C468 C465 1.363 . S
C468 N466 1.356 . S
C469 C463 1.363 1_455 S
C469 C464 1.379 . S
C469 N467 1.356 . S
N470 C462 1.356 . S
N470 H476 0.984 . S
N470 H477 0.984 . S
N471 C464 1.356 . S
N471 H474 0.984 . S
N471 H475 0.985 . S
H472 N467 0.984 1_655 S
H473 N467 0.985 . S
H474 N471 0.984 . S
H475 N471 0.985 . S
H476 N470 0.984 . S
H477 N470 0.984 . S
H478 N466 0.984 . S
H479 N466 0.985 . S
C480 C481 1.363 . S
C480 C486 1.379 . S
C480 N488 1.356 . S
C481 C480 1.363 . S
C481 C487 1.363 . S
C482 C483 1.363 . S
C482 C487 1.379 . S
C482 N489 1.356 . S
C483 C482 1.363 . S
C483 C486 1.363 . S
N484 C486 1.356 . S
N484 H496 0.984 . S
N484 H497 0.985 . S
N485 C487 1.356 . S
N485 H490 0.984 . S
N485 H491 0.985 . S
C486 C480 1.379 . S
C486 C483 1.363 . S
C486 N484 1.356 . S
C487 C481 1.363 . S
C487 C482 1.379 . S
C487 N485 1.356 . S
N488 C480 1.356 . S
N488 H494 0.984 . S
N488 H495 0.984 . S
N489 C482 1.356 . S
N489 H492 0.984 . S
N489 H493 0.985 . S
H490 N485 0.984 . S
H491 N485 0.985 . S
H492 N489 0.984 . S
H493 N489 0.985 . S
H494 N488 0.984 . S
H495 N488 0.984 . S
H496 N484 0.984 . S
H497 N484 0.985 . S
C498 C499 1.363 . S
C498 C504 1.379 . S
C498 N506 1.356 . S
C499 C498 1.363 . S
C499 C505 1.363 . S
C500 C501 1.363 . S
C500 C505 1.379 . S
C500 N507 1.356 . S
C501 C500 1.363 . S
C501 C504 1.363 . S
N502 C504 1.356 . S
N502 H514 0.984 . S
N502 H515 0.985 . S
N503 C505 1.356 . S
N503 H508 0.984 . S
N503 H509 0.985 . S
C504 C498 1.379 . S
C504 C501 1.363 . S
C504 N502 1.356 . S
C505 C499 1.363 . S
C505 C500 1.379 . S
C505 N503 1.356 . S
N506 C498 1.356 . S
N506 H512 0.984 . S
N506 H513 0.984 . S
N507 C500 1.356 . S
N507 H510 0.984 . S
N507 H511 0.985 . S
H508 N503 0.984 . S
H509 N503 0.985 . S
H510 N507 0.984 . S
H511 N507 0.985 . S
H512 N506 0.984 . S
H513 N506 0.984 . S
H514 N502 0.984 . S
H515 N502 0.985 . S
C516 C517 1.363 . S
C516 C522 1.379 . S
C516 N524 1.356 . S
C517 C516 1.363 . S
C517 C523 1.363 . S
C518 C519 1.363 . S
C518 C523 1.379 . S
C518 N525 1.356 . S
C519 C518 1.363 . S
C519 C522 1.363 . S
N520 C522 1.356 . S
N520 H532 0.984 . S
N520 H533 0.985 . S
N521 C523 1.356 . S
N521 H526 0.984 . S
N521 H527 0.985 . S
C522 C516 1.379 . S
C522 C519 1.363 . S
C522 N520 1.356 . S
C523 C517 1.363 . S
C523 C518 1.379 . S
C523 N521 1.356 . S
N524 C516 1.356 . S
N524 H530 0.984 . S
N524 H531 0.984 . S
N525 C518 1.356 . S
N525 H528 0.984 . S
N525 H529 0.985 . S
H526 N521 0.984 . S
H527 N521 0.985 . S
H528 N525 0.984 . S
H529 N525 0.985 . S
H530 N524 0.984 . S
H531 N524 0.984 . S
H532 N520 0.984 . S
H533 N520 0.985 . S
C534 C535 1.363 . S
C534 C540 1.379 . S
C534 N542 1.356 . S
C535 C534 1.363 . S
C535 C541 1.363 . S
C536 C537 1.363 . S
C536 C541 1.379 . S
C536 N543 1.356 . S
C537 C536 1.363 . S
C537 C540 1.363 . S
N538 C540 1.356 . S
N538 H550 0.984 . S
N538 H551 0.985 . S
N539 C541 1.356 . S
N539 H544 0.984 . S
N539 H545 0.985 . S
C540 C534 1.379 . S
C540 C537 1.363 . S
C540 N538 1.356 . S
C541 C535 1.363 . S
C541 C536 1.379 . S
C541 N539 1.356 . S
N542 C534 1.356 . S
N542 H548 0.984 . S
N542 H549 0.984 . S
N543 C536 1.356 . S
N543 H546 0.984 . S
N543 H547 0.985 . S
H544 N539 0.984 . S
H545 N539 0.985 . S
H546 N543 0.984 . S
H547 N543 0.985 . S
H548 N542 0.984 . S
H549 N542 0.984 . S
H550 N538 0.984 . S
H551 N538 0.985 . S
C552 C553 1.363 . S
C552 C558 1.379 . S
C552 N560 1.356 . S
C553 C552 1.363 . S
C553 C559 1.363 . S
C554 C555 1.363 . S
C554 C559 1.379 . S
C554 N561 1.356 . S
C555 C554 1.363 . S
C555 C558 1.363 . S
N556 C558 1.356 . S
N556 H568 0.984 . S
N556 H569 0.985 . S
N557 C559 1.356 . S
N557 H562 0.984 . S
N557 H563 0.985 . S
C558 C552 1.379 . S
C558 C555 1.363 . S
C558 N556 1.356 . S
C559 C553 1.363 . S
C559 C554 1.379 . S
C559 N557 1.356 . S
N560 C552 1.356 . S
N560 H566 0.984 . S
N560 H567 0.984 . S
N561 C554 1.356 . S
N561 H564 0.984 . S
N561 H565 0.985 . S
H562 N557 0.984 . S
H563 N557 0.985 . S
H564 N561 0.984 . S
H565 N561 0.985 . S
H566 N560 0.984 . S
H567 N560 0.984 . S
H568 N556 0.984 . S
H569 N556 0.985 . S
C570 C571 1.363 . S
C570 C576 1.379 . S
C570 N578 1.356 1_556 S
C571 C570 1.363 . S
C571 C577 1.363 . S
C572 C573 1.363 . S
C572 C577 1.379 . S
C572 N579 1.356 . S
C573 C572 1.363 . S
C573 C576 1.363 . S
N574 C576 1.356 . S
N574 H586 0.984 . S
N574 H587 0.985 . S
N575 C577 1.356 . S
N575 H580 0.984 . S
N575 H581 0.985 . S
C576 C570 1.379 . S
C576 C573 1.363 . S
C576 N574 1.356 . S
C577 C571 1.363 . S
C577 C572 1.379 . S
C577 N575 1.356 . S
N578 C570 1.356 1_554 S
N578 H584 0.984 . S
N578 H585 0.984 . S
N579 C572 1.356 . S
N579 H582 0.984 . S
N579 H583 0.985 . S
H580 N575 0.984 . S
H581 N575 0.985 . S
H582 N579 0.984 . S
H583 N579 0.985 . S
H584 N578 0.984 . S
H585 N578 0.984 . S
H586 N574 0.984 . S
H587 N574 0.985 . S
C588 C589 1.363 . S
C588 C594 1.379 . S
C588 N596 1.356 . S
C589 C588 1.363 . S
C589 C595 1.363 . S
C590 C591 1.363 . S
C590 C595 1.379 . S
C590 N597 1.356 . S
C591 C590 1.363 . S
C591 C594 1.363 . S
N592 C594 1.356 . S
N592 H604 0.984 . S
N592 H605 0.985 . S
N593 C595 1.356 . S
N593 H598 0.984 . S
N593 H599 0.985 . S
C594 C588 1.379 . S
C594 C591 1.363 . S
C594 N592 1.356 . S
C595 C589 1.363 . S
C595 C590 1.379 . S
C595 N593 1.356 . S
N596 C588 1.356 . S
N596 H602 0.984 . S
N596 H603 0.984 . S
N597 C590 1.356 . S
N597 H600 0.984 . S
N597 H601 0.985 . S
H598 N593 0.984 . S
H599 N593 0.985 . S
H600 N597 0.984 . S
H601 N597 0.985 . S
H602 N596 0.984 . S
H603 N596 0.984 . S
H604 N592 0.984 . S
H605 N592 0.985 . S
C606 C607 1.363 . S
C606 C612 1.379 . S
C606 N614 1.356 . S
C607 C606 1.363 . S
C607 C613 1.363 . S
C608 C609 1.363 . S
C608 C613 1.379 . S
C608 N615 1.356 . S
C609 C608 1.363 . S
C609 C612 1.363 . S
N610 C612 1.356 . S
N610 H622 0.984 . S
N610 H623 0.985 . S
N611 C613 1.356 . S
N611 H616 0.984 . S
N611 H617 0.985 . S
C612 C606 1.379 . S
C612 C609 1.363 . S
C612 N610 1.356 . S
C613 C607 1.363 . S
C613 C608 1.379 . S
C613 N611 1.356 . S
N614 C606 1.356 . S
N614 H620 0.984 . S
N614 H621 0.984 . S
N615 C608 1.356 . S
N615 H618 0.984 . S
N615 H619 0.985 . S
H616 N611 0.984 . S
H617 N611 0.985 . S
H618 N615 0.984 . S
H619 N615 0.985 . S
H620 N614 0.984 . S
H621 N614 0.984 . S
H622 N610 0.984 . S
H623 N610 0.985 . S
C193 C8 1.405 . S
C195 C96 1.352 1_565 S
C211 C31 1.284 . S
C213 C109 1.266 . S
C229 C53 1.466 1_565 S
C231 C123 1.450 . S
C249 C136 1.397 . S
C247 C74 1.430 . S
C267 C148 1.328 . S
C265 C26 1.311 . S
C283 C48 1.483 1_455 S
C285 C162 1.414 . S
C301 C71 1.368 . S
C303 C174 1.315 . S
C319 C5 1.432 . S
C321 C188 1.400 . S
C337 C50 1.368 . S
C339 C187 1.308 1_545 S
C357 C149 1.412 . S
C355 C70 1.483 . S
C375 C161 1.332 . S
C373 C4 1.311 . S
C391 C28 1.432 . S
C393 C175 1.404 . S
C411 C110 1.447 . S
C409 C73 1.466 . S
C427 C7 1.284 . S
C429 C122 1.270 . S
C447 C135 1.345 . S
C445 C30 1.405 . S
C465 C97 1.400 . S
C463 C52 1.430 . S
C483 C170 1.357 . S
C481 C9 1.398 . S
C501 C183 1.307 . S
C499 C29 1.398 . S
C517 C51 1.475 . S
C519 C144 1.407 . S
C537 C157 1.465 . S
C535 C75 1.475 . S
C555 C118 1.382 . S
C553 C27 1.419 . S
C571 C49 1.436 . S
C573 C131 1.340 . S
C591 C92 1.393 . S
C589 C72 1.436 . S
C609 C105 1.321 . S
C607 C6 1.419 . S
