# Generated by pormake.
# Topology pyr, (3,6)-cn, num edge types: 1
# Building blocks:
#     Node 0, Type 0, BuildingBlock: BETDIP_clean_linker_0, # of connection points: 3
#     Node 1, Type 0, BuildingBlock: BETDIP_clean_linker_0, # of connection points: 3
#     Node 2, Type 0, BuildingBlock: BETDIP_clean_linker_0, # of connection points: 3
#     Node 3, Type 0, BuildingBlock: BETDIP_clean_linker_0, # of connection points: 3
#     Node 4, Type 0, BuildingBlock: BETDIP_clean_linker_0, # of connection points: 3
#     Node 5, Type 0, BuildingBlock: BETDIP_clean_linker_0, # of connection points: 3
#     Node 6, Type 0, BuildingBlock: BETDIP_clean_linker_0, # of connection points: 3
#     Node 7, Type 0, BuildingBlock: BETDIP_clean_linker_0, # of connection points: 3
#     Node 8, Type 1, BuildingBlock: INOVEN_clean_sbu_0, # of connection points: 6
#     Node 9, Type 1, BuildingBlock: INOVEN_clean_sbu_0, # of connection points: 6
#     Node 10, Type 1, BuildingBlock: INOVEN_clean_sbu_0, # of connection points: 6
#     Node 11, Type 1, BuildingBlock: INOVEN_clean_sbu_0, # of connection points: 6
#     Edge 12, Type (0, 1), BuildingBlock: UVAHIK_clean_linker_0, # of connection points: 2
#     Edge 13, Type (0, 1), BuildingBlock: UVAHIK_clean_linker_0, # of connection points: 2
#     Edge 14, Type (0, 1), BuildingBlock: UVAHIK_clean_linker_0, # of connection points: 2
#     Edge 15, Type (0, 1), BuildingBlock: UVAHIK_clean_linker_0, # of connection points: 2
#     Edge 16, Type (0, 1), BuildingBlock: UVAHIK_clean_linker_0, # of connection points: 2
#     Edge 17, Type (0, 1), BuildingBlock: UVAHIK_clean_linker_0, # of connection points: 2
#     Edge 18, Type (0, 1), BuildingBlock: UVAHIK_clean_linker_0, # of connection points: 2
#     Edge 19, Type (0, 1), BuildingBlock: UVAHIK_clean_linker_0, # of connection points: 2
#     Edge 20, Type (0, 1), BuildingBlock: UVAHIK_clean_linker_0, # of connection points: 2
#     Edge 21, Type (0, 1), BuildingBlock: UVAHIK_clean_linker_0, # of connection points: 2
#     Edge 22, Type (0, 1), BuildingBlock: UVAHIK_clean_linker_0, # of connection points: 2
#     Edge 23, Type (0, 1), BuildingBlock: UVAHIK_clean_linker_0, # of connection points: 2
#     Edge 24, Type (0, 1), BuildingBlock: UVAHIK_clean_linker_0, # of connection points: 2
#     Edge 25, Type (0, 1), BuildingBlock: UVAHIK_clean_linker_0, # of connection points: 2
#     Edge 26, Type (0, 1), BuildingBlock: UVAHIK_clean_linker_0, # of connection points: 2
#     Edge 27, Type (0, 1), BuildingBlock: UVAHIK_clean_linker_0, # of connection points: 2
#     Edge 28, Type (0, 1), BuildingBlock: UVAHIK_clean_linker_0, # of connection points: 2
#     Edge 29, Type (0, 1), BuildingBlock: UVAHIK_clean_linker_0, # of connection points: 2
#     Edge 30, Type (0, 1), BuildingBlock: UVAHIK_clean_linker_0, # of connection points: 2
#     Edge 31, Type (0, 1), BuildingBlock: UVAHIK_clean_linker_0, # of connection points: 2
#     Edge 32, Type (0, 1), BuildingBlock: UVAHIK_clean_linker_0, # of connection points: 2
#     Edge 33, Type (0, 1), BuildingBlock: UVAHIK_clean_linker_0, # of connection points: 2
#     Edge 34, Type (0, 1), BuildingBlock: UVAHIK_clean_linker_0, # of connection points: 2
#     Edge 35, Type (0, 1), BuildingBlock: UVAHIK_clean_linker_0, # of connection points: 2
# Relax obj value: 0.098
# Max RMSD: 0.175
# Mean RMSD: 0.138
data_MOF--net-pyr--node1-INOVEN_clean_sbu_0--node2-BETDIP_clean_linker_0--edge1-UVAHIK_clean_linker_0
_symmetry_space_group_name_H-M    P1
_symmetry_Int_Tables_number       1
_symmetry_cell_setting            triclinic
loop_
_symmetry_equiv_pos_as_xyz
'x, y, z'
_cell_length_a     49.507017
_cell_length_b     50.976042
_cell_length_c     47.412119
_cell_angle_alpha  91.251559
_cell_angle_beta   87.715922
_cell_angle_gamma 105.96642
loop_
_atom_site_label
_atom_site_type_symbol
_atom_site_fract_x
_atom_site_fract_y
_atom_site_fract_z
_atom_type_partial_charge
H0 H 0.29756 0.30983 0.20984 0.0
H1 H 0.35576 0.28627 0.15184 0.0
H2 H 0.31905 0.23484 0.22213 0.0
H3 H 0.32989 0.35488 0.19453 0.0
C4 C 0.32342 0.34818 0.17331 0.0
C5 C 0.30952 0.29569 0.20347 0.0
C6 C 0.30613 0.27177 0.21893 0.0
C7 C 0.32751 0.30104 0.17935 0.0
C8 C 0.34242 0.28237 0.17084 0.0
C9 C 0.33979 0.25854 0.18638 0.0
C10 C 0.32156 0.25341 0.21038 0.0
N11 N 0.32907 0.32402 0.16229 0.0
H12 H 0.23583 0.85427 0.68269 0.0
H13 H 0.22506 0.79921 0.61151 0.0
H14 H 0.3043 0.82355 0.6522 0.0
H15 H 0.17938 0.79241 0.6212 0.0
C16 C 0.17728 0.81144 0.63046 0.0
C17 C 0.24435 0.84189 0.66783 0.0
C18 C 0.27231 0.8411 0.66953 0.0
C19 C 0.22692 0.82634 0.64759 0.0
C20 C 0.23787 0.8104 0.6281 0.0
C21 C 0.26583 0.80929 0.62955 0.0
C22 C 0.28286 0.8246 0.6505 0.0
N23 N 0.1989 0.82823 0.64686 0.0
H24 H 0.68778 0.40047 0.84149 0.0
H25 H 0.61828 0.32787 0.83984 0.0
H26 H 0.68193 0.3369 0.9013 0.0
H27 H 0.67659 0.40532 0.79726 0.0
C28 C 0.65413 0.39629 0.79564 0.0
C29 C 0.67708 0.38043 0.8494 0.0
C30 C 0.68793 0.37061 0.87282 0.0
C31 C 0.65202 0.36491 0.83715 0.0
C32 C 0.63778 0.33952 0.84887 0.0
C33 C 0.6482 0.32928 0.87226 0.0
C34 C 0.67334 0.34498 0.88386 0.0
N35 N 0.63996 0.37446 0.81383 0.0
H36 H 0.81249 0.64311 0.34095 0.0
H37 H 0.88145 0.7159 0.33367 0.0
H38 H 0.82049 0.7082 0.40202 0.0
H39 H 0.88826 0.70093 0.29106 0.0
C40 C 0.87842 0.67916 0.28961 0.0
C41 C 0.82342 0.66325 0.34868 0.0
C42 C 0.81364 0.6737 0.37349 0.0
C43 C 0.84755 0.67831 0.33383 0.0
C44 C 0.86226 0.70426 0.34416 0.0
C45 C 0.85273 0.71502 0.36898 0.0
C46 C 0.82836 0.69965 0.38334 0.0
N47 N 0.85668 0.6661 0.30927 0.0
H48 H 0.65568 0.78026 0.9058 0.0
H49 H 0.7171 0.77409 0.84146 0.0
H50 H 0.67568 0.83764 0.83759 0.0
H51 H 0.69405 0.72604 0.85215 0.0
C52 C 0.69903 0.73008 0.87424 0.0
C53 C 0.66716 0.78761 0.8863 0.0
C54 C 0.6631 0.81056 0.87295 0.0
C55 C 0.68582 0.77381 0.87443 0.0
C56 C 0.70133 0.78366 0.84955 0.0
C57 C 0.69798 0.80679 0.83615 0.0
C58 C 0.67839 0.81975 0.84775 0.0
N59 N 0.69033 0.75124 0.88873 0.0
H60 H 0.78186 0.21247 0.38868 0.0
H61 H 0.77679 0.2551 0.46695 0.0
H62 H 0.71878 0.25565 0.40219 0.0
H63 H 0.79002 0.21741 0.48275 0.0
C64 C 0.806 0.21568 0.46698 0.0
C65 C 0.77186 0.22504 0.40178 0.0
C66 C 0.74893 0.23297 0.39193 0.0
C67 C 0.78149 0.23232 0.42894 0.0
C68 C 0.76899 0.24877 0.44616 0.0
C69 C 0.74683 0.25776 0.43622 0.0
C70 C 0.73678 0.24968 0.40922 0.0
N71 N 0.80345 0.22226 0.43847 0.0
H72 H 0.3185 0.65971 0.21315 0.0
H73 H 0.38751 0.73248 0.21849 0.0
H74 H 0.32477 0.7254 0.15621 0.0
H75 H 0.33295 0.64758 0.25193 0.0
C76 C 0.35365 0.66013 0.25714 0.0
C77 C 0.32944 0.68 0.20617 0.0
C78 C 0.31889 0.69068 0.18316 0.0
C79 C 0.35419 0.69513 0.21924 0.0
C80 C 0.36827 0.72112 0.20879 0.0
C81 C 0.35812 0.7323 0.18581 0.0
C82 C 0.33333 0.71682 0.17332 0.0
N83 N 0.36598 0.68495 0.2424 0.0
H84 H 0.12658 0.33095 0.71498 0.0
H85 H 0.19059 0.40753 0.70835 0.0
H86 H 0.18747 0.34512 0.64563 0.0
H87 H 0.18391 0.40897 0.75479 0.0
C88 C 0.16149 0.40013 0.75851 0.0
C89 C 0.14479 0.34398 0.70398 0.0
C90 C 0.1551 0.33499 0.67852 0.0
C91 C 0.15778 0.36985 0.71536 0.0
C92 C 0.18104 0.38707 0.70069 0.0
C93 C 0.19171 0.37833 0.67541 0.0
C94 C 0.17869 0.35228 0.66462 0.0
N95 N 0.14655 0.37827 0.74107 0.0
Gd96 Gd 0.02909 0.03223 0.49363 0.0
Gd97 Gd 0.00551 1.01132 0.55193 0.0
C98 C 0.05165 0.06982 0.54855 0.0
C99 C 0.04971 0.05707 0.44749 0.0
C100 C 0.06762 0.08338 0.43706 0.0
C101 C 0.09265 0.08333 0.42219 0.0
C102 C 0.06072 0.10818 0.44145 0.0
C103 C 0.10412 0.13238 0.41649 0.0
C104 C 0.07882 0.13255 0.43102 0.0
C105 C 0.11074 0.10751 0.41216 0.0
C106 C 0.04916 0.99298 0.51503 0.0
C107 C 0.98184 0.97607 0.49691 0.0
C108 C 0.99347 0.99122 0.60171 0.0
C109 C 0.96782 0.97442 0.61604 0.0
C110 C 0.94168 0.97952 0.61255 0.0
C111 C 0.96935 0.95279 0.6331 0.0
C112 C 0.91905 0.94211 0.64385 0.0
C113 C 0.94513 0.93667 0.64683 0.0
C114 C 0.91755 0.96361 0.62648 0.0
C115 C 0.97241 0.03485 0.52331 0.0
O116 O 0.05094 0.06814 0.52069 0.0
O117 O 0.03764 0.04958 0.56487 0.0
O118 O 0.06263 0.04315 0.46225 0.0
O119 O 0.02406 0.05542 0.45712 0.0
O120 O 0.04313 0.99382 0.48885 0.0
O121 O 0.04473 1.013 0.52844 0.0
O122 O 0.98869 0.97504 0.52349 0.0
O123 O 0.99089 0.99873 0.4821 0.0
O124 O 0.99346 1.01617 0.59555 0.0
O125 O 0.00435 0.97905 0.58139 0.0
O126 O 0.96289 1.01444 0.54015 0.0
O127 O 0.99878 0.0428 0.52387 0.0
H128 H 0.09828 0.06443 0.41832 0.0
H129 H 0.0415 0.10874 0.45288 0.0
H130 H 0.07323 0.1515 0.43449 0.0
H131 H 0.12975 0.10665 0.40049 0.0
H132 H 0.93986 0.99584 0.59914 0.0
H133 H 0.9893 0.94845 0.6359 0.0
H134 H 0.94688 0.92033 0.66025 0.0
H135 H 0.89766 0.96802 0.62355 0.0
Gd136 Gd 0.53107 0.04503 0.04528 0.0
Gd137 Gd 0.47413 0.02234 0.0244 0.0
C138 C 0.47916 0.06433 0.07426 0.0
C139 C 0.57889 0.07533 0.06187 0.0
C140 C 0.59094 0.08932 0.08775 0.0
C141 C 0.61799 0.08869 0.09464 0.0
C142 C 0.57579 0.10268 0.10593 0.0
C143 C 0.61476 0.11443 0.13779 0.0
C144 C 0.5877 0.1153 0.13072 0.0
C145 C 0.62979 0.10107 0.11946 0.0
C146 C 0.50232 0.99745 0.07027 0.0
C147 C 0.52577 1.00202 0.99636 0.0
C148 C 0.4271 0.99235 1.00584 0.0
C149 C 0.41766 0.98192 0.97784 0.0
C150 C 0.43191 0.99454 0.95343 0.0
C151 C 0.39439 0.95916 0.97537 0.0
C152 C 0.39897 0.96216 0.92411 0.0
C153 C 0.38513 0.94929 0.94872 0.0
C154 C 0.42257 0.98483 0.92679 0.0
C155 C 0.50321 0.06971 0.99918 0.0
O156 O 0.50633 0.07129 0.06753 0.0
O157 O 0.46237 0.0417 0.06405 0.0
O158 O 0.57185 0.04871 0.06243 0.0
O159 O 0.56057 0.08497 0.04944 0.0
O160 O 0.52904 1.00426 0.06431 0.0
O161 O 0.49223 1.01682 0.0646 0.0
O162 O 0.49861 0.99547 1.00297 0.0
O163 O 0.54273 0.02466 1.0063 0.0
O164 O 0.43266 1.01877 1.00929 0.0
O165 O 0.44596 0.98223 1.01649 0.0
O166 O 0.47658 0.06323 1.00544 0.0
O167 O 0.51302 0.05018 1.00485 0.0
H168 H 0.62996 0.07847 0.08084 0.0
H169 H 0.55474 0.10321 0.10112 0.0
H170 H 0.57559 0.12528 0.1446 0.0
H171 H 0.6508 0.10037 0.12422 0.0
H172 H 0.45009 1.01207 0.95501 0.0
H173 H 0.38337 0.94904 0.99404 0.0
H174 H 0.36723 0.93148 0.94741 0.0
H175 H 0.43352 0.9954 0.90833 0.0
Gd176 Gd 0.50626 0.50687 0.5072 0.0
Gd177 Gd 0.5 0.55109 0.5476 0.0
C178 C 0.52569 0.50662 0.57282 0.0
C179 C 0.52453 0.47099 0.47923 0.0
C180 C 0.54109 0.45237 0.48719 0.0
C181 C 0.5276 0.42475 0.49238 0.0
C182 C 0.57023 0.46209 0.49065 0.0
C183 C 0.57203 0.41693 0.50444 0.0
C184 C 0.58551 0.44456 0.49916 0.0
C185 C 0.54288 0.40725 0.50104 0.0
C186 C 0.45446 0.49912 0.53092 0.0
C187 C 0.48127 0.55143 0.48171 0.0
C188 C 0.48124 0.58607 0.57671 0.0
C189 C 0.46181 0.60217 0.57063 0.0
C190 C 0.4648 0.62752 0.58393 0.0
C191 C 0.44081 0.59279 0.55087 0.0
C192 C 0.42569 0.634 0.55802 0.0
C193 C 0.42291 0.60859 0.54459 0.0
C194 C 0.44685 0.64331 0.57774 0.0
C195 C 0.55178 0.55891 0.52366 0.0
O196 O 0.5281 0.49871 0.54623 0.0
O197 O 0.51263 0.52536 0.57956 0.0
O198 O 0.49901 0.46583 0.4903 0.0
O199 O 0.53759 0.4971 0.47897 0.0
O200 O 0.45913 0.49295 0.50481 0.0
O201 O 0.47724 0.50791 0.54342 0.0
O202 O 0.4779 0.55871 0.50838 0.0
O203 O 0.49507 0.53324 0.47509 0.0
O204 O 0.5052 0.59265 0.56236 0.0
O205 O 0.47011 0.55967 0.57839 0.0
O206 O 0.54724 0.56529 0.54975 0.0
O207 O 0.52891 0.55008 0.51137 0.0
H208 H 0.50516 0.41669 0.4899 0.0
H209 H 0.58134 0.48324 0.48676 0.0
H210 H 0.60803 0.45258 0.50095 0.0
H211 H 0.53182 0.38612 0.50512 0.0
H212 H 0.48097 0.63506 0.59916 0.0
H213 H 0.43824 0.57327 0.54028 0.0
H214 H 0.407 0.60098 0.52914 0.0
H215 H 0.44922 0.66259 0.5888 0.0
Gd216 Gd 0.00784 0.50275 0.03223 0.0
Gd217 Gd 0.00577 0.5584 1.012 0.0
C218 C 0.0602 0.55709 0.04458 0.0
C219 C 0.02187 0.45847 0.04163 0.0
C220 C 0.0464 0.45124 0.05206 0.0
C221 C 0.0486 0.4246 0.04818 0.0
C222 C 0.068 0.47083 0.06518 0.0
C223 C 0.09413 0.43715 0.07018 0.0
C224 C 0.0917 0.46389 0.07408 0.0
C225 C 0.07219 0.41756 0.05723 0.0
C226 C 0.98075 0.52976 0.06774 0.0
C227 C 0.95291 0.50443 1.00074 0.0
C228 C 0.99164 0.60228 1.0013 0.0
C229 C 0.96666 0.60978 0.99179 0.0
C230 C 0.96766 0.62196 0.96537 0.0
C231 C 0.94213 0.60581 1.00906 0.0
C232 C 0.92027 0.62655 0.97377 0.0
C233 C 0.91922 0.61413 1.00015 0.0
C234 C 0.9447 0.63013 0.95639 0.0
C235 C 0.03327 0.53132 0.97703 0.0
O236 O 0.05164 0.53017 0.04135 0.0
O237 O 0.04438 0.57279 0.03744 0.0
O238 O 0.0078 0.46957 0.06002 0.0
O239 O 0.02558 0.47045 1.0171 0.0
O240 O 0.97284 0.50345 0.06415 0.0
O241 O 0.00312 0.54001 0.05366 0.0
O242 O 0.9617 0.53135 1.00385 0.0
O243 O 0.96877 0.48862 1.00746 0.0
O244 O 0.00456 0.59017 0.98274 0.0
O245 O 0.99007 0.59208 0.02661 0.0
O246 O 0.04155 0.55755 0.98116 0.0
O247 O 0.01053 0.52114 0.99056 0.0
H248 H 0.03207 0.40922 0.03811 0.0
H249 H 0.06659 0.49148 0.06844 0.0
H250 H 0.10829 0.47959 0.08365 0.0
H251 H 0.0731 0.39669 0.05431 0.0
H252 H 0.98631 0.62532 0.95167 0.0
H253 H 0.94068 0.59658 0.02963 0.0
H254 H 0.90092 0.61136 1.01424 0.0
H255 H 0.94611 0.6392 0.93576 0.0
C256 C 0.25879 0.26993 0.24114 0.0
C257 C 0.2854 0.26535 0.24309 0.0
C258 C 0.23869 0.26267 0.26317 0.0
C259 C 0.22877 0.24296 0.33861 0.0
H260 H 0.15438 0.20219 0.31604 0.0
C261 C 0.15255 0.16271 0.40757 0.0
C262 C 0.12344 0.15752 0.40453 0.0
C263 C 0.17139 0.18286 0.39168 0.0
C264 C 0.17479 0.2141 0.32283 0.0
H265 H 0.31205 0.25037 0.27013 0.0
H266 H 0.2767 0.23703 0.30834 0.0
H267 H 0.18951 0.22376 0.28033 0.0
H268 H 0.0911 0.17077 0.38427 0.0
H269 H 0.12411 0.20642 0.3566 0.0
H270 H 0.2142 0.23237 0.38111 0.0
C271 C 0.27151 0.2466 0.28991 0.0
C272 C 0.19501 0.22642 0.3023 0.0
C273 C 0.29165 0.25389 0.26786 0.0
C274 C 0.11345 0.17436 0.387 0.0
C275 C 0.13234 0.19456 0.37098 0.0
C276 C 0.2085 0.23064 0.3592 0.0
C277 C 0.24467 0.25057 0.28765 0.0
C278 C 0.22244 0.2404 0.30987 0.0
C279 C 0.16152 0.1983 0.37237 0.0
C280 C 0.18149 0.21545 0.35146 0.0
H281 H 0.25316 0.27846 0.22224 0.0
H282 H 0.21831 0.26623 0.26087 0.0
H283 H 0.24957 0.25402 0.34516 0.0
H284 H 0.16079 0.15018 0.42121 0.0
H285 H 0.19367 0.18503 0.3932 0.0
C286 C 0.29135 0.88431 0.69691 0.0
C287 C 0.29009 0.85677 0.69187 0.0
C288 C 0.30662 0.8986 0.71923 0.0
C289 C 0.35934 0.89509 0.77199 0.0
H290 H 0.3231 0.94165 0.81599 0.0
C291 C 0.40742 0.95179 0.87294 0.0
C292 C 0.38855 0.95224 0.8958 0.0
C293 C 0.39748 0.94259 0.84631 0.0
C294 C 0.33343 0.9286 0.80404 0.0
H295 H 0.30409 0.82264 0.70575 0.0
H296 H 0.33015 0.84726 0.74519 0.0
H297 H 0.30257 0.92084 0.77248 0.0
H298 H 0.3444 0.94376 0.9084 0.0
H299 H 0.32711 0.92674 0.86242 0.0
H300 H 0.38935 0.90171 0.80445 0.0
C301 C 0.31998 0.85813 0.73157 0.0
C302 C 0.3219 0.91699 0.77881 0.0
C303 C 0.30496 0.84395 0.70906 0.0
C304 C 0.35953 0.94333 0.89139 0.0
C305 C 0.34961 0.93398 0.86486 0.0
C306 C 0.37076 0.90654 0.79739 0.0
C307 C 0.32067 0.88552 0.73718 0.0
C308 C 0.33446 0.89976 0.76267 0.0
C309 C 0.36845 0.93353 0.84198 0.0
C310 C 0.35766 0.92306 0.81394 0.0
H311 H 0.28035 0.89474 0.68367 0.0
H312 H 0.30717 0.91981 0.72258 0.0
H313 H 0.36981 0.88227 0.75987 0.0
H314 H 0.42991 0.95826 0.87566 0.0
H315 H 0.41257 0.94274 0.8291 0.0
C316 C 0.61052 0.39561 0.76889 0.0
C317 C 0.63955 0.40606 0.77277 0.0
C318 C 0.59749 0.40541 0.74716 0.0
C319 C 0.61335 0.44274 0.6789 0.0
H320 H 0.53995 0.45482 0.69226 0.0
C321 C 0.55274 0.4746 0.58898 0.0
C322 C 0.53804 0.49412 0.59552 0.0
C323 C 0.56443 0.46297 0.61032 0.0
C324 C 0.56053 0.45173 0.68816 0.0
H325 H 0.67754 0.43501 0.757 0.0
H326 H 0.65499 0.45215 0.71942 0.0
H327 H 0.56156 0.43655 0.72984 0.0
H328 H 0.52417 0.51654 0.62997 0.0
H329 H 0.54465 0.49649 0.66699 0.0
H330 H 0.61264 0.45843 0.63746 0.0
C331 C 0.64222 0.43616 0.73278 0.0
C332 C 0.57281 0.44091 0.70967 0.0
C333 C 0.65516 0.42646 0.75449 0.0
C334 C 0.53527 0.50156 0.62404 0.0
C335 C 0.5469 0.48988 0.64538 0.0
C336 C 0.60105 0.45346 0.65737 0.0
C337 C 0.61318 0.4258 0.72872 0.0
C338 C 0.59952 0.43643 0.70545 0.0
C339 C 0.56171 0.47044 0.63887 0.0
C340 C 0.57451 0.45829 0.6617 0.0
H341 H 0.59784 0.37988 0.78259 0.0
H342 H 0.57516 0.39672 0.74459 0.0
H343 H 0.63376 0.43929 0.67464 0.0
H344 H 0.55528 0.46824 0.56732 0.0
H345 H 0.57534 0.44784 0.60442 0.0
C346 C 0.87466 0.63546 0.26233 0.0
C347 C 0.88763 0.66344 0.2663 0.0
C348 C 0.88389 0.62091 0.24036 0.0
C349 C 0.94557 0.62278 0.19343 0.0
H350 H 0.89216 0.57052 0.14808 0.0
C351 C 0.98128 0.57287 0.09398 0.0
C352 C 0.96852 0.54501 0.0892 0.0
C353 C 0.97057 0.58724 0.11501 0.0
C354 C 0.90736 0.5848 0.16075 0.0
H355 H 0.92015 0.69815 0.25042 0.0
H356 H 0.93627 0.67279 0.212 0.0
H357 H 0.87513 0.59565 0.18604 0.0
H358 H 0.93442 0.51034 0.10242 0.0
H359 H 0.91589 0.53531 0.13959 0.0
H360 H 0.9778 0.61185 0.16846 0.0
C361 C 0.91916 0.66202 0.22598 0.0
C362 C 0.89759 0.59923 0.18248 0.0
C363 C 0.90986 0.67658 0.24785 0.0
C364 C 0.94462 0.53184 0.10564 0.0
C365 C 0.93394 0.5462 0.12681 0.0
C366 C 0.95533 0.60831 0.17181 0.0
C367 C 0.90634 0.634 0.22201 0.0
C368 C 0.91659 0.61846 0.19901 0.0
C369 C 0.94695 0.57405 0.13191 0.0
C370 C 0.93637 0.58922 0.15509 0.0
H371 H 0.85747 0.62471 0.27621 0.0
H372 H 0.87375 0.59929 0.23805 0.0
H373 H 0.96077 0.63709 0.20608 0.0
H374 H 0.9998 0.58356 0.0817 0.0
H375 H 0.98085 0.60874 0.118 0.0
C376 C 0.38415 0.24761 0.16923 0.0
C377 C 0.3555 0.23867 0.17722 0.0
C378 C 0.39895 0.22885 0.16078 0.0
C379 C 0.39525 0.15491 0.16281 0.0
H380 H 0.44986 0.17324 0.10041 0.0
C381 C 0.43848 0.07553 0.10011 0.0
C382 C 0.4671 0.08311 0.09167 0.0
C383 C 0.42632 0.09439 0.11358 0.0
C384 C 0.43496 0.16795 0.11812 0.0
H385 H 0.31974 0.20308 0.18213 0.0
H386 H 0.34531 0.1704 0.16689 0.0
H387 H 0.42564 0.20645 0.11731 0.0
H388 H 0.50563 0.11618 0.09178 0.0
H389 H 0.48434 0.14904 0.11526 0.0
H390 H 0.40412 0.11605 0.16297 0.0
C391 C 0.35663 0.19183 0.16784 0.0
C392 C 0.42107 0.18702 0.12786 0.0
C393 C 0.34192 0.21057 0.17648 0.0
C394 C 0.48351 0.10965 0.09796 0.0
C395 C 0.4713 0.12857 0.11123 0.0
C396 C 0.409 0.13576 0.15292 0.0
C397 C 0.38536 0.2007 0.15989 0.0
C398 C 0.40089 0.1807 0.15022 0.0
C399 C 0.44246 0.12129 0.11873 0.0
C400 C 0.4289 0.14202 0.13036 0.0
H401 H 0.39525 0.26912 0.16991 0.0
H402 H 0.42113 0.23643 0.15525 0.0
H403 H 0.38024 0.14949 0.18041 0.0
H404 H 0.42524 0.05525 0.09561 0.0
H405 H 0.40401 0.08821 0.11894 0.0
C406 C 0.14865 0.84469 0.63664 0.0
C407 C 0.1535 0.82168 0.62283 0.0
C408 C 0.12882 0.85672 0.62675 0.0
C409 C 0.10054 0.86712 0.56026 0.0
H410 H 0.05617 0.9043 0.60698 0.0
C411 C 0.05067 0.94461 0.51283 0.0
C412 C 0.05446 0.96913 0.52815 0.0
C413 C 0.05592 0.92196 0.5251 0.0
C414 C 0.06848 0.89405 0.59367 0.0
H415 H 0.14028 0.79203 0.58923 0.0
H416 H 0.10554 0.8133 0.57164 0.0
H417 H 0.07655 0.87119 0.6282 0.0
H418 H 0.06604 0.9893 0.56831 0.0
H419 H 0.07608 0.95 0.58959 0.0
H420 H 0.09388 0.89088 0.52606 0.0
C421 C 0.11722 0.82206 0.59001 0.0
C422 C 0.08 0.87503 0.60578 0.0
C423 C 0.13697 0.80987 0.60008 0.0
C424 C 0.06304 0.97057 0.55609 0.0
C425 C 0.06848 0.94797 0.56832 0.0
C426 C 0.08916 0.88621 0.54819 0.0
C427 C 0.11356 0.84605 0.60279 0.0
C428 C 0.09683 0.86199 0.58933 0.0
C429 C 0.06527 0.9235 0.55285 0.0
C430 C 0.07371 0.90047 0.56492 0.0
H431 H 0.1609 0.85408 0.65445 0.0
H432 H 0.12667 0.87533 0.63688 0.0
H433 H 0.11375 0.8577 0.54713 0.0
H434 H 0.04366 0.94291 0.49134 0.0
H435 H 0.05286 0.90329 0.51277 0.0
C436 C 0.73794 0.40088 0.86936 0.0
C437 C 0.71442 0.3869 0.88602 0.0
C438 C 0.7632 0.4148 0.88188 0.0
C439 C 0.8018 0.41688 0.94798 0.0
H440 H 0.84892 0.48537 0.91875 0.0
C441 C 0.91538 0.46327 0.98459 0.0
C442 C 0.92499 0.49174 0.98841 0.0
C443 C 0.88951 0.45126 0.97236 0.0
C444 C 0.83593 0.46636 0.92735 0.0
H445 H 0.69888 0.37784 0.92913 0.0
H446 H 0.74264 0.40201 0.95084 0.0
H447 H 0.80413 0.46375 0.89715 0.0
H448 H 0.91456 0.52985 0.98235 0.0
H449 H 0.86935 0.50883 0.96128 0.0
H450 H 0.83329 0.41961 0.97841 0.0
C451 C 0.74186 0.40173 0.92804 0.0
C452 C 0.81034 0.45378 0.91473 0.0
C453 C 0.71668 0.38784 0.91555 0.0
C454 C 0.90791 0.50785 0.97975 0.0
C455 C 0.88201 0.49581 0.96745 0.0
C456 C 0.82736 0.42941 0.96054 0.0
C457 C 0.76563 0.41515 0.91141 0.0
C458 C 0.79289 0.42883 0.92486 0.0
C459 C 0.87244 0.46731 0.96356 0.0
C460 C 0.84487 0.4543 0.95039 0.0
H461 H 0.7371 0.40041 0.84656 0.0
H462 H 0.78108 0.42464 0.86833 0.0
H463 H 0.78918 0.39755 0.95621 0.0
H464 H 0.92791 0.45017 0.99084 0.0
H465 H 0.88313 0.42931 0.96938 0.0
C466 C 0.76382 0.64386 0.37486 0.0
C467 C 0.78801 0.65776 0.38922 0.0
C468 C 0.7392 0.63035 0.38988 0.0
C469 C 0.7036 0.63135 0.45936 0.0
H470 H 0.65499 0.56183 0.43499 0.0
C471 C 0.60397 0.57725 0.52427 0.0
C472 C 0.57964 0.56619 0.50905 0.0
C473 C 0.6302 0.58592 0.51023 0.0
C474 C 0.66825 0.58134 0.44194 0.0
H475 H 0.80572 0.66721 0.43055 0.0
H476 H 0.76282 0.64371 0.4567 0.0
H477 H 0.69941 0.5816 0.40916 0.0
H478 H 0.56359 0.55471 0.46738 0.0
H479 H 0.60931 0.57014 0.44276 0.0
H480 H 0.6724 0.63144 0.49179 0.0
C481 C 0.7627 0.64369 0.43386 0.0
C482 C 0.69369 0.59266 0.42714 0.0
C483 C 0.78727 0.65716 0.41887 0.0
C484 C 0.58205 0.56316 0.47963 0.0
C485 C 0.60827 0.57187 0.46556 0.0
C486 C 0.67821 0.62009 0.47409 0.0
C487 C 0.73825 0.63046 0.41957 0.0
C488 C 0.7116 0.61785 0.43564 0.0
C489 C 0.63261 0.58375 0.48065 0.0
C490 C 0.66015 0.59501 0.46552 0.0
H491 H 0.76364 0.64415 0.35203 0.0
H492 H 0.72064 0.62059 0.37824 0.0
H493 H 0.71666 0.65102 0.46616 0.0
H494 H 0.60271 0.57959 0.54701 0.0
H495 H 0.64858 0.59451 0.52254 0.0
C496 C 0.29146 0.35031 0.13399 0.0
C497 C 0.3034 0.36038 0.1598 0.0
C498 C 0.27047 0.36037 0.12306 0.0
C499 C 0.21578 0.39309 0.14646 0.0
H500 H 0.21205 0.40724 0.0669 0.0
C501 C 0.13185 0.44018 0.10509 0.0
C502 C 0.11934 0.42968 0.07962 0.0
C503 C 0.15527 0.43286 0.11415 0.0
C504 C 0.21262 0.4031 0.08914 0.0
H505 H 0.30362 0.38936 0.1939 0.0
H506 H 0.26714 0.40709 0.17477 0.0
H507 H 0.25163 0.3927 0.08362 0.0
H508 H 0.12215 0.40363 0.04343 0.0
H509 H 0.16242 0.39022 0.05965 0.0
H510 H 0.17666 0.40299 0.15205 0.0
C511 C 0.27367 0.39121 0.16315 0.0
C512 C 0.23533 0.39482 0.0987 0.0
C513 C 0.29467 0.38122 0.17399 0.0
C514 C 0.13099 0.41182 0.06335 0.0
C515 C 0.15435 0.40442 0.07247 0.0
C516 C 0.19305 0.40123 0.1369 0.0
C517 C 0.26099 0.38058 0.1378 0.0
C518 C 0.23718 0.38977 0.12748 0.0
C519 C 0.16673 0.41476 0.09804 0.0
C520 C 0.19116 0.40635 0.10813 0.0
H521 H 0.29776 0.3342 0.12258 0.0
H522 H 0.26098 0.35164 0.10358 0.0
H523 H 0.21631 0.38886 0.16869 0.0
H524 H 0.1233 0.45376 0.11832 0.0
H525 H 0.16447 0.4415 0.13377 0.0
C526 C 0.62154 0.27937 0.86776 0.0
C527 C 0.63295 0.30235 0.88489 0.0
C528 C 0.60809 0.25399 0.87983 0.0
C529 C 0.57276 0.2226 0.94626 0.0
H530 H 0.5854 0.15596 0.9147 0.0
C531 C 0.50536 0.11615 0.98167 0.0
C532 C 0.51897 0.09576 0.98572 0.0
C533 C 0.51976 0.14101 0.96932 0.0
C534 C 0.58178 0.17439 0.9239 0.0
H535 H 0.63851 0.31656 0.92828 0.0
H536 H 0.61527 0.2725 0.94922 0.0
H537 H 0.60933 0.19986 0.89323 0.0
H538 H 0.55845 0.08547 0.97992 0.0
H539 H 0.58377 0.12902 0.95813 0.0
H540 H 0.5454 0.19729 0.97699 0.0
C541 C 0.61665 0.27403 0.92643 0.0
C542 C 0.59526 0.19955 0.91139 0.0
C543 C 0.63024 0.2993 0.91439 0.0
C544 C 0.54738 0.10077 0.97699 0.0
C545 C 0.56182 0.12567 0.96441 0.0
C546 C 0.55916 0.19748 0.95861 0.0
C547 C 0.60545 0.25097 0.90936 0.0
C548 C 0.59095 0.22402 0.92242 0.0
C549 C 0.54821 0.14619 0.96054 0.0
C550 C 0.5634 0.17299 0.9476 0.0
H551 H 0.62341 0.28089 0.84498 0.0
H552 H 0.59949 0.23677 0.86601 0.0
H553 H 0.5687 0.24092 0.95522 0.0
H554 H 0.48347 0.11295 0.98814 0.0
H555 H 0.50845 0.1561 0.96636 0.0
C556 C 0.87261 0.74587 0.40939 0.0
C557 C 0.86812 0.74222 0.38031 0.0
C558 C 0.88572 0.7716 0.4205 0.0
C559 C 0.90023 0.84494 0.40621 0.0
H560 H 0.95341 0.85203 0.46567 0.0
C561 C 0.96233 0.94941 0.45353 0.0
C562 C 0.96623 0.95046 0.4828 0.0
C563 C 0.95015 0.92452 0.43996 0.0
C564 C 0.93835 0.85038 0.44931 0.0
H565 H 0.87419 0.76269 0.34003 0.0
H566 H 0.89743 0.8078 0.35947 0.0
H567 H 0.93385 0.80768 0.44353 0.0
H568 H 0.95931 0.92628 0.52089 0.0
H569 H 0.93779 0.8832 0.49738 0.0
H570 H 0.90463 0.88769 0.41222 0.0
C571 C 0.89054 0.7907 0.37366 0.0
C572 C 0.9272 0.82495 0.43656 0.0
C573 C 0.87751 0.76485 0.3625 0.0
C574 C 0.95683 0.92625 0.4983 0.0
C575 C 0.94467 0.90145 0.48477 0.0
C576 C 0.91139 0.87044 0.41901 0.0
C577 C 0.89467 0.79438 0.40283 0.0
C578 C 0.90777 0.82183 0.41508 0.0
C579 C 0.94164 0.90017 0.45537 0.0
C580 C 0.93034 0.87338 0.44095 0.0
H581 H 0.86588 0.72879 0.42363 0.0
H582 H 0.8883 0.77374 0.44309 0.0
H583 H 0.88508 0.84316 0.38992 0.0
H584 H 0.9694 0.96765 0.44093 0.0
H585 H 0.94825 0.92423 0.41727 0.0
C586 C 0.26056 0.76484 0.60368 0.0
C587 C 0.27702 0.79133 0.61005 0.0
C588 C 0.27217 0.74677 0.58817 0.0
C589 C 0.33561 0.74119 0.54594 0.0
H590 H 0.32104 0.67197 0.58416 0.0
C591 C 0.41552 0.67883 0.55065 0.0
C592 C 0.40588 0.65028 0.55253 0.0
C593 C 0.39648 0.69441 0.54895 0.0
C594 C 0.32492 0.69087 0.57269 0.0
H595 H 0.31787 0.82034 0.60323 0.0
H596 H 0.33846 0.78854 0.57714 0.0
H597 H 0.29288 0.70276 0.5968 0.0
H598 H 0.36884 0.61557 0.55241 0.0
H599 H 0.33564 0.6428 0.54899 0.0
H600 H 0.36874 0.72965 0.52287 0.0
C601 C 0.31649 0.78176 0.5838 0.0
C602 C 0.30872 0.70858 0.57995 0.0
C603 C 0.30482 0.79987 0.59916 0.0
C604 C 0.37694 0.63753 0.55094 0.0
C605 C 0.3579 0.65313 0.5492 0.0
C606 C 0.35191 0.72344 0.5387 0.0
C607 C 0.30054 0.75475 0.57887 0.0
C608 C 0.31443 0.7343 0.5673 0.0
C609 C 0.36742 0.68176 0.54907 0.0
C610 C 0.34727 0.69846 0.55265 0.0
H611 H 0.23908 0.75759 0.6118 0.0
H612 H 0.25923 0.72621 0.58436 0.0
H613 H 0.34021 0.76069 0.53549 0.0
H614 H 0.43775 0.68918 0.55131 0.0
H615 H 0.4045 0.71644 0.5491 0.0
C616 C 0.72699 0.84697 0.80858 0.0
C617 C 0.71639 0.81851 0.81132 0.0
C618 C 0.74576 0.85808 0.78643 0.0
C619 C 0.80059 0.84364 0.74127 0.0
H620 H 0.79412 0.90547 0.69849 0.0
C621 C 0.88693 0.89735 0.65984 0.0
C622 C 0.89359 0.92595 0.6594 0.0
C623 C 0.8631 0.88228 0.67499 0.0
C624 C 0.79639 0.88837 0.71042 0.0
H625 H 0.71667 0.7795 0.79213 0.0
H626 H 0.75034 0.79908 0.75394 0.0
H627 H 0.75595 0.88268 0.73113 0.0
H628 H 0.88084 0.96127 0.67462 0.0
H629 H 0.83982 0.93521 0.70164 0.0
H630 H 0.8415 0.84999 0.72176 0.0
C631 C 0.74389 0.81264 0.76904 0.0
C632 C 0.77445 0.87525 0.72896 0.0
C633 C 0.72474 0.80148 0.79098 0.0
C634 C 0.87597 0.93921 0.67429 0.0
C635 C 0.85237 0.92421 0.68966 0.0
C636 C 0.8227 0.85697 0.723 0.0
C637 C 0.75472 0.84104 0.76672 0.0
C638 C 0.77654 0.85305 0.74488 0.0
C639 C 0.84563 0.89555 0.69027 0.0
C640 C 0.8211 0.87981 0.70771 0.0
H641 H 0.72161 0.86077 0.8241 0.0
H642 H 0.75413 0.88005 0.78536 0.0
H643 H 0.80283 0.82673 0.75354 0.0
H644 H 0.90003 0.88662 0.64828 0.0
H645 H 0.85835 0.86024 0.67464 0.0
C646 C 0.73407 0.19522 0.35625 0.0
C647 C 0.7366 0.22244 0.36447 0.0
C648 C 0.72143 0.1848 0.3311 0.0
C649 C 0.67102 0.19429 0.2807 0.0
H650 H 0.70482 0.14953 0.23136 0.0
C651 C 0.62653 0.1537 0.17213 0.0
C652 C 0.62739 0.12722 0.16424 0.0
C653 C 0.63976 0.16616 0.19639 0.0
C654 C 0.69491 0.16169 0.24507 0.0
H655 H 0.72816 0.26016 0.35237 0.0
H656 H 0.70563 0.24171 0.30852 0.0
H657 H 0.72867 0.17005 0.27367 0.0
H658 H 0.64162 0.09254 0.17609 0.0
H659 H 0.66424 0.114 0.21863 0.0
H660 H 0.63697 0.18553 0.25239 0.0
C661 C 0.71338 0.2285 0.32174 0.0
C662 C 0.70864 0.17352 0.26924 0.0
C663 C 0.72625 0.23902 0.34684 0.0
C664 C 0.64107 0.11317 0.18141 0.0
C665 C 0.6541 0.12551 0.20572 0.0
C666 C 0.65715 0.18229 0.25658 0.0
C667 C 0.71081 0.20127 0.31367 0.0
C668 C 0.69676 0.18978 0.28739 0.0
C669 C 0.65393 0.15228 0.21332 0.0
C670 C 0.66885 0.16568 0.2386 0.0
H671 H 0.74122 0.18168 0.36959 0.0
H672 H 0.71935 0.16361 0.32562 0.0
H673 H 0.66124 0.2065 0.29451 0.0
H674 H 0.61631 0.16506 0.15913 0.0
H675 H 0.63946 0.18689 0.20149 0.0
C676 C 0.35539 0.62517 0.29264 0.0
C677 C 0.36813 0.65057 0.28023 0.0
C678 C 0.36832 0.61536 0.31426 0.0
C679 C 0.4217 0.63678 0.3692 0.0
H680 H 0.4181 0.55983 0.36891 0.0
C681 C 0.45484 0.58373 0.4647 0.0
C682 C 0.46915 0.56378 0.45873 0.0
C683 C 0.44334 0.59511 0.44298 0.0
C684 C 0.41953 0.58142 0.36929 0.0
H685 H 0.40456 0.68577 0.28109 0.0
H686 H 0.42726 0.66864 0.31896 0.0
H687 H 0.39741 0.57826 0.33091 0.0
H688 H 0.48269 0.54049 0.42487 0.0
H689 H 0.46289 0.56029 0.38723 0.0
H690 H 0.4441 0.6399 0.40754 0.0
C691 C 0.40709 0.65633 0.312 0.0
C692 C 0.40735 0.59197 0.34758 0.0
C693 C 0.39416 0.6661 0.29016 0.0
C694 C 0.47174 0.55567 0.43041 0.0
C695 C 0.4602 0.56696 0.40875 0.0
C696 C 0.43379 0.62618 0.39106 0.0
C697 C 0.3944 0.63071 0.32425 0.0
C698 C 0.40815 0.61979 0.34721 0.0
C699 C 0.44573 0.58678 0.41467 0.0
C700 C 0.43289 0.59831 0.39143 0.0
H701 H 0.33529 0.61277 0.28555 0.0
H702 H 0.35764 0.59579 0.32338 0.0
H703 H 0.42257 0.65825 0.3698 0.0
H704 H 0.4524 0.59056 0.4862 0.0
H705 H 0.43213 0.61009 0.44847 0.0
C706 C 0.16245 0.43516 0.79602 0.0
C707 C 0.14743 0.41139 0.78208 0.0
C708 C 0.14976 0.44661 0.81806 0.0
C709 C 0.07985 0.44678 0.84966 0.0
H710 H 0.12461 0.48265 0.912 0.0
C711 C 0.03229 0.48934 0.94832 0.0
C712 C 0.04652 0.51608 0.95647 0.0
C713 C 0.04435 0.47528 0.928 0.0
C714 C 0.11189 0.47282 0.89466 0.0
H715 H 0.10734 0.38064 0.78045 0.0
H716 H 0.08527 0.40016 0.81953 0.0
H717 H 0.14577 0.45985 0.87513 0.0
H718 H 0.08464 0.54892 0.95028 0.0
H719 H 0.10593 0.52423 0.91501 0.0
H720 H 0.04586 0.45954 0.86961 0.0
C721 C 0.10674 0.41039 0.81304 0.0
C722 C 0.12402 0.45982 0.87342 0.0
C723 C 0.11942 0.39907 0.79074 0.0
C724 C 0.07322 0.52833 0.94434 0.0
C725 C 0.08544 0.51416 0.92428 0.0
C726 C 0.06764 0.45953 0.8711 0.0
C727 C 0.12174 0.43438 0.82698 0.0
C728 C 0.10829 0.44691 0.85041 0.0
C729 C 0.07103 0.48757 0.91571 0.0
C730 C 0.08362 0.47295 0.89365 0.0
H731 H 0.18403 0.44515 0.78963 0.0
H732 H 0.16186 0.46536 0.82778 0.0
H733 H 0.06714 0.43745 0.83214 0.0
H734 H 0.01165 0.4794 0.95735 0.0
H735 H 0.03287 0.45474 0.92199 0.0
C736 C 0.64468 0.8321 0.91498 0.0
C737 C 0.64432 0.82618 0.88589 0.0
C738 C 0.62956 0.84946 0.92656 0.0
C739 C 0.57347 0.88274 0.91197 0.0
H740 H 0.61218 0.93592 0.96687 0.0
C741 C 0.5208 0.95636 0.97318 0.0
C742 C 0.53761 0.98273 0.97953 0.0
C743 C 0.5327 0.93699 0.96039 0.0
C744 C 0.60117 0.92141 0.95134 0.0
H745 H 0.62645 0.83261 0.84645 0.0
H746 H 0.6007 0.86338 0.86646 0.0
H747 H 0.63413 0.90175 0.94812 0.0
H748 H 0.57986 1.00985 0.97608 0.0
H749 H 0.60048 0.97632 0.9532 0.0
H750 H 0.54085 0.90301 0.91464 0.0
C751 C 0.61249 0.8545 0.88043 0.0
C752 C 0.61357 0.90149 0.94092 0.0
C753 C 0.62752 0.83708 0.86888 0.0
C754 C 0.56634 0.98966 0.97168 0.0
C755 C 0.57821 0.97035 0.95877 0.0
C756 C 0.56107 0.90276 0.92235 0.0
C757 C 0.61378 0.86136 0.90932 0.0
C758 C 0.59992 0.8819 0.92108 0.0
C759 C 0.56168 0.94359 0.95353 0.0
C760 C 0.57483 0.92241 0.9421 0.0
H761 H 0.65752 0.82418 0.92866 0.0
H762 H 0.63062 0.85391 0.949 0.0
H763 H 0.56224 0.86784 0.89689 0.0
H764 H 0.49859 0.95031 0.97902 0.0
H765 H 0.51936 0.91655 0.95688 0.0
C766 C 0.81938 0.18198 0.49665 0.0
C767 C 0.82551 0.1997 0.47363 0.0
C768 C 0.83602 0.16448 0.50126 0.0
C769 C 0.90503 0.15434 0.48966 0.0
H770 H 0.86675 0.07696 0.4908 0.0
C771 C 0.96699 0.07444 0.49638 0.0
C772 C 0.95507 0.05181 0.5135 0.0
C773 C 0.95114 0.09202 0.48932 0.0
C774 C 0.87777 0.09848 0.49095 0.0
H775 H 0.85451 0.21432 0.43824 0.0
H776 H 0.88416 0.1842 0.44689 0.0
H777 H 0.83981 0.10986 0.48517 0.0
H778 H 0.91724 0.02932 0.53624 0.0
H779 H 0.88996 0.06043 0.52503 0.0
H780 H 0.94282 0.14333 0.49658 0.0
C781 C 0.86624 0.18357 0.46101 0.0
C782 C 0.86231 0.11725 0.48763 0.0
C783 C 0.84928 0.20067 0.45605 0.0
C784 C 0.92689 0.04659 0.52287 0.0
C785 C 0.9112 0.06438 0.51626 0.0
C786 C 0.92046 0.13561 0.49354 0.0
C787 C 0.85937 0.16496 0.48328 0.0
C788 C 0.87583 0.14529 0.48702 0.0
C789 C 0.92322 0.08753 0.49968 0.0
C790 C 0.90701 0.10741 0.4943 0.0
H791 H 0.80113 0.18094 0.51043 0.0
H792 H 0.83052 0.15038 0.51869 0.0
H793 H 0.91581 0.17594 0.48933 0.0
H794 H 0.98869 0.07885 0.48886 0.0
H795 H 0.96092 0.10927 0.47601 0.0
C796 C 0.26868 0.66107 0.18535 0.0
C797 C 0.29272 0.67472 0.16924 0.0
C798 C 0.24381 0.64714 0.17219 0.0
C799 C 0.21596 0.61589 0.10406 0.0
H800 H 0.14525 0.62566 0.13384 0.0
C801 C 0.10721 0.55503 0.0618 0.0
C802 C 0.08751 0.56988 0.05802 0.0
C803 C 0.13244 0.56697 0.07535 0.0
C804 C 0.16482 0.62276 0.12518 0.0
H805 H 0.30958 0.68365 0.12654 0.0
H806 H 0.26633 0.65938 0.10364 0.0
H807 H 0.18875 0.64766 0.15751 0.0
H808 H 0.0792 0.60912 0.06554 0.0
H809 H 0.12297 0.6298 0.08911 0.0
H810 H 0.19201 0.59117 0.07157 0.0
C811 C 0.26665 0.65945 0.12647 0.0
C812 C 0.18975 0.63517 0.13894 0.0
C813 C 0.2914 0.67359 0.13962 0.0
C814 C 0.09382 0.59702 0.068 0.0
C815 C 0.11887 0.60885 0.08175 0.0
C816 C 0.19097 0.60324 0.09046 0.0
C817 C 0.24242 0.64622 0.14256 0.0
C818 C 0.21571 0.63209 0.12846 0.0
C819 C 0.1385 0.59399 0.08573 0.0
C820 C 0.16508 0.6067 0.10069 0.0
H821 H 0.26888 0.66165 0.20819 0.0
H822 H 0.22565 0.63699 0.18525 0.0
H823 H 0.23552 0.61286 0.09553 0.0
H824 H 0.10319 0.53415 0.05428 0.0
H825 H 0.14698 0.55486 0.07817 0.0
C826 C 0.21787 0.39778 0.63085 0.0
C827 C 0.21689 0.39598 0.66042 0.0
C828 C 0.24236 0.41239 0.61647 0.0
C829 C 0.31104 0.46371 0.62529 0.0
H830 H 0.33345 0.42701 0.55963 0.0
C831 C 0.42361 0.49422 0.57465 0.0
C832 C 0.42643 0.49196 0.54518 0.0
C833 C 0.39715 0.48541 0.58826 0.0
C834 C 0.32733 0.4378 0.57762 0.0
H835 H 0.24059 0.40877 0.69816 0.0
H836 H 0.28347 0.43425 0.67302 0.0
H837 H 0.28882 0.40663 0.58419 0.0
H838 H 0.40386 0.47999 0.50668 0.0
H839 H 0.35763 0.46495 0.53033 0.0
H840 H 0.34988 0.49473 0.61882 0.0
C841 C 0.26518 0.42459 0.66097 0.0
C842 C 0.30171 0.42609 0.59173 0.0
C843 C 0.24063 0.40998 0.67538 0.0
C844 C 0.40229 0.4817 0.52946 0.0
C845 C 0.37585 0.47297 0.54303 0.0
C846 C 0.33673 0.47548 0.61111 0.0
C847 C 0.26649 0.42552 0.63131 0.0
C848 C 0.29329 0.43881 0.6158 0.0
C849 C 0.37301 0.47423 0.57264 0.0
C850 C 0.34523 0.46257 0.58717 0.0
H851 H 0.19974 0.38764 0.61877 0.0
H852 H 0.24249 0.41317 0.59365 0.0
H853 H 0.30501 0.47416 0.6436 0.0
H854 H 0.44193 0.50207 0.58727 0.0
H855 H 0.39576 0.48646 0.61109 0.0
C856 C 0.72922 0.69841 0.87009 0.0
C857 C 0.71839 0.71645 0.88681 0.0
C858 C 0.7495 0.68712 0.88044 0.0
C859 C 0.78148 0.67305 0.9454 0.0
H860 H 0.84571 0.6749 0.8951 0.0
C861 C 0.86829 0.62107 0.97053 0.0
C862 C 0.89624 0.63622 0.96459 0.0
C863 C 0.84583 0.63025 0.96182 0.0
C864 C 0.82798 0.67434 0.90944 0.0
H865 H 0.71952 0.73619 0.9279 0.0
H866 H 0.75503 0.7164 0.9461 0.0
H867 H 0.80743 0.69159 0.87887 0.0
H868 H 0.92233 0.67334 0.94542 0.0
H869 H 0.88321 0.68903 0.92986 0.0
H870 H 0.80231 0.65603 0.97608 0.0
C871 C 0.74775 0.71091 0.92496 0.0
C872 C 0.80591 0.68363 0.90005 0.0
C873 C 0.7275 0.72233 0.91452 0.0
C874 C 0.90113 0.66083 0.94985 0.0
C875 C 0.8787 0.66989 0.94099 0.0
C876 C 0.80351 0.66354 0.95474 0.0
C877 C 0.75933 0.69357 0.90783 0.0
C878 C 0.78243 0.68316 0.91792 0.0
C879 C 0.8508 0.65469 0.94681 0.0
C880 C 0.82707 0.66423 0.93689 0.0
H881 H 0.72246 0.6935 0.84868 0.0
H882 H 0.75769 0.67351 0.86689 0.0
H883 H 0.76359 0.67229 0.9596 0.0
H884 H 0.86373 0.60185 0.9815 0.0
H885 H 0.82455 0.61794 0.96634 0.0
C886 C 0.37475 0.76534 0.14561 0.0
C887 C 0.37316 0.76007 0.17477 0.0
C888 C 0.38801 0.79143 0.13523 0.0
C889 C 0.43989 0.85668 0.15337 0.0
H890 H 0.40706 0.88522 0.09215 0.0
C891 C 0.5011 0.95239 0.09099 0.0
C892 C 0.48662 0.97118 0.08337 0.0
C893 C 0.4867 0.92735 0.10299 0.0
C894 C 0.41642 0.87769 0.1094 0.0
H895 H 0.38453 0.77864 0.21577 0.0
H896 H 0.40795 0.82399 0.19763 0.0
H897 H 0.38311 0.8405 0.11157 0.0
H898 H 0.44554 0.97832 0.08222 0.0
H899 H 0.42022 0.93443 0.10319 0.0
H900 H 0.47315 0.89388 0.15127 0.0
C901 C 0.39903 0.80779 0.18276 0.0
C902 C 0.40283 0.85187 0.12035 0.0
C903 C 0.38562 0.78169 0.19318 0.0
C904 C 0.45729 0.9643 0.08794 0.0
C905 C 0.44279 0.93908 0.09981 0.0
C906 C 0.45356 0.88241 0.1423 0.0
C907 C 0.40028 0.81307 0.15363 0.0
C908 C 0.41444 0.84092 0.14241 0.0
C909 C 0.45733 0.92027 0.10756 0.0
C910 C 0.44212 0.89324 0.12005 0.0
H911 H 0.36597 0.74919 0.13064 0.0
H912 H 0.389 0.79453 0.11264 0.0
H913 H 0.4496 0.84891 0.17018 0.0
H914 H 0.52368 0.957 0.08759 0.0
H915 H 0.49858 0.91329 0.10823 0.0
C916 C 0.13887 0.30405 0.63705 0.0
C917 C 0.14202 0.30745 0.66637 0.0
C918 C 0.12935 0.27804 0.62503 0.0
C919 C 0.0918 0.20639 0.6406 0.0
H920 H 0.1315 0.19142 0.5726 0.0
C921 C 0.06823 0.09821 0.59165 0.0
C922 C 0.06638 0.09611 0.56211 0.0
C923 C 0.07896 0.12356 0.60481 0.0
C924 C 0.11999 0.1953 0.59141 0.0
H925 H 0.1367 0.28613 0.70613 0.0
H926 H 0.11976 0.24056 0.68511 0.0
H927 H 0.14577 0.23643 0.59485 0.0
H928 H 0.07525 0.11906 0.52322 0.0
H929 H 0.09368 0.16324 0.54616 0.0
H930 H 0.06579 0.16538 0.637 0.0
C931 C 0.12467 0.25813 0.67145 0.0
C932 C 0.12817 0.22113 0.60417 0.0
C933 C 0.1343 0.28423 0.68351 0.0
C934 C 0.07648 0.11986 0.546 0.0
C935 C 0.08712 0.14525 0.55918 0.0
C936 C 0.08354 0.18057 0.62777 0.0
C937 C 0.1226 0.25473 0.642 0.0
C938 C 0.11408 0.22704 0.62883 0.0
C939 C 0.08804 0.14748 0.58879 0.0
C940 C 0.09746 0.17472 0.60294 0.0
H941 H 0.14409 0.32155 0.62329 0.0
H942 H 0.12738 0.27619 0.60235 0.0
H943 H 0.08032 0.21036 0.65939 0.0
H944 H 0.06081 0.08034 0.60475 0.0
H945 H 0.07989 0.12442 0.6276 0.0
C946 C 0.7232 0.26719 0.48147 0.0
C947 C 0.73364 0.27519 0.45408 0.0
C948 C 0.70846 0.2826 0.49724 0.0
C949 C 0.65892 0.30715 0.51012 0.0
H950 H 0.68138 0.38626 0.50883 0.0
C951 C 0.58304 0.37198 0.49904 0.0
C952 C 0.58874 0.39805 0.5116 0.0
C953 C 0.60102 0.35559 0.5025 0.0
C954 C 0.67497 0.3642 0.51005 0.0
H955 H 0.73823 0.30596 0.42213 0.0
H956 H 0.7128 0.33307 0.44971 0.0
H957 H 0.71541 0.3613 0.49504 0.0
H958 H 0.61646 0.42641 0.53965 0.0
H959 H 0.64832 0.39791 0.54512 0.0
H960 H 0.61799 0.31004 0.52355 0.0
C961 C 0.71593 0.31496 0.45904 0.0
C962 C 0.6944 0.34994 0.50193 0.0
C963 C 0.73022 0.29937 0.44317 0.0
C964 C 0.61187 0.40667 0.52916 0.0
C965 C 0.62999 0.39032 0.53246 0.0
C966 C 0.6394 0.32142 0.51805 0.0
C967 C 0.70448 0.30648 0.48601 0.0
C968 C 0.68621 0.32132 0.50077 0.0
C969 C 0.62516 0.36497 0.51848 0.0
C970 C 0.64695 0.35005 0.51696 0.0
H971 H 0.72554 0.24851 0.49022 0.0
H972 H 0.69976 0.27566 0.51796 0.0
H973 H 0.65207 0.28506 0.50934 0.0
H974 H 0.56562 0.3648 0.48514 0.0
H975 H 0.59697 0.33633 0.4911 0.0
loop_
_geom_bond_atom_site_label_1
_geom_bond_atom_site_label_2
_geom_bond_distance
_geom_bond_site_symmetry_2
_ccdc_geom_bond_type
H0 C5 0.930 . S
H1 C8 0.930 . S
H2 C10 0.930 . S
H3 C4 1.016 . S
C4 H3 1.016 . S
C4 N11 1.286 . S
C5 H0 0.930 . S
C5 C6 1.397 . S
C5 C7 1.361 . S
C6 C5 1.397 . S
C6 C10 1.390 . S
C7 C5 1.361 . S
C7 C8 1.393 . S
C7 N11 1.413 . S
C8 H1 0.930 . S
C8 C7 1.393 . S
C8 C9 1.399 . S
C9 C8 1.399 . S
C9 C10 1.381 . S
C10 H2 0.930 . S
C10 C6 1.390 . S
C10 C9 1.381 . S
N11 C4 1.286 . S
N11 C7 1.413 . S
H12 C17 0.930 . S
H13 C20 0.930 . S
H14 C22 0.930 . S
H15 C16 1.016 . S
C16 H15 1.016 . S
C16 N23 1.286 . S
C17 H12 0.930 . S
C17 C18 1.397 . S
C17 C19 1.361 . S
C18 C17 1.397 . S
C18 C22 1.390 . S
C19 C17 1.361 . S
C19 C20 1.393 . S
C19 N23 1.413 . S
C20 H13 0.930 . S
C20 C19 1.393 . S
C20 C21 1.399 . S
C21 C20 1.399 . S
C21 C22 1.381 . S
C22 H14 0.930 . S
C22 C18 1.390 . S
C22 C21 1.381 . S
N23 C16 1.286 . S
N23 C19 1.413 . S
H24 C29 0.930 . S
H25 C32 0.930 . S
H26 C34 0.930 . S
H27 C28 1.016 . S
C28 H27 1.016 . S
C28 N35 1.286 . S
C29 H24 0.930 . S
C29 C30 1.397 . S
C29 C31 1.361 . S
C30 C29 1.397 . S
C30 C34 1.390 . S
C31 C29 1.361 . S
C31 C32 1.393 . S
C31 N35 1.413 . S
C32 H25 0.930 . S
C32 C31 1.393 . S
C32 C33 1.399 . S
C33 C32 1.399 . S
C33 C34 1.381 . S
C34 H26 0.930 . S
C34 C30 1.390 . S
C34 C33 1.381 . S
N35 C28 1.286 . S
N35 C31 1.413 . S
H36 C41 0.930 . S
H37 C44 0.930 . S
H38 C46 0.930 . S
H39 C40 1.016 . S
C40 H39 1.016 . S
C40 N47 1.286 . S
C41 H36 0.930 . S
C41 C42 1.397 . S
C41 C43 1.361 . S
C42 C41 1.397 . S
C42 C46 1.390 . S
C43 C41 1.361 . S
C43 C44 1.393 . S
C43 N47 1.413 . S
C44 H37 0.930 . S
C44 C43 1.393 . S
C44 C45 1.399 . S
C45 C44 1.399 . S
C45 C46 1.381 . S
C46 H38 0.930 . S
C46 C42 1.390 . S
C46 C45 1.381 . S
N47 C40 1.286 . S
N47 C43 1.413 . S
H48 C53 0.930 . S
H49 C56 0.930 . S
H50 C58 0.930 . S
H51 C52 1.016 . S
C52 H51 1.016 . S
C52 N59 1.286 . S
C53 H48 0.930 . S
C53 C54 1.397 . S
C53 C55 1.361 . S
C54 C53 1.397 . S
C54 C58 1.390 . S
C55 C53 1.361 . S
C55 C56 1.393 . S
C55 N59 1.413 . S
C56 H49 0.930 . S
C56 C55 1.393 . S
C56 C57 1.399 . S
C57 C56 1.399 . S
C57 C58 1.381 . S
C58 H50 0.930 . S
C58 C54 1.390 . S
C58 C57 1.381 . S
N59 C52 1.286 . S
N59 C55 1.413 . S
H60 C65 0.930 . S
H61 C68 0.930 . S
H62 C70 0.930 . S
H63 C64 1.016 . S
C64 H63 1.016 . S
C64 N71 1.286 . S
C65 H60 0.930 . S
C65 C66 1.397 . S
C65 C67 1.361 . S
C66 C65 1.397 . S
C66 C70 1.390 . S
C67 C65 1.361 . S
C67 C68 1.393 . S
C67 N71 1.413 . S
C68 H61 0.930 . S
C68 C67 1.393 . S
C68 C69 1.399 . S
C69 C68 1.399 . S
C69 C70 1.381 . S
C70 H62 0.930 . S
C70 C66 1.390 . S
C70 C69 1.381 . S
N71 C64 1.286 . S
N71 C67 1.413 . S
H72 C77 0.930 . S
H73 C80 0.930 . S
H74 C82 0.930 . S
H75 C76 1.016 . S
C76 H75 1.016 . S
C76 N83 1.286 . S
C77 H72 0.930 . S
C77 C78 1.397 . S
C77 C79 1.361 . S
C78 C77 1.397 . S
C78 C82 1.390 . S
C79 C77 1.361 . S
C79 C80 1.393 . S
C79 N83 1.413 . S
C80 H73 0.930 . S
C80 C79 1.393 . S
C80 C81 1.399 . S
C81 C80 1.399 . S
C81 C82 1.381 . S
C82 H74 0.930 . S
C82 C78 1.390 . S
C82 C81 1.381 . S
N83 C76 1.286 . S
N83 C79 1.413 . S
H84 C89 0.930 . S
H85 C92 0.930 . S
H86 C94 0.930 . S
H87 C88 1.016 . S
C88 H87 1.016 . S
C88 N95 1.286 . S
C89 H84 0.930 . S
C89 C90 1.397 . S
C89 C91 1.361 . S
C90 C89 1.397 . S
C90 C94 1.390 . S
C91 C89 1.361 . S
C91 C92 1.393 . S
C91 N95 1.413 . S
C92 H85 0.930 . S
C92 C91 1.393 . S
C92 C93 1.399 . S
C93 C92 1.399 . S
C93 C94 1.381 . S
C94 H86 0.930 . S
C94 C90 1.390 . S
C94 C93 1.381 . S
N95 C88 1.286 . S
N95 C91 1.413 . S
Gd96 C99 2.818 . S
Gd96 O116 2.377 . S
Gd96 O118 2.448 . S
Gd96 O119 2.506 . S
Gd96 O120 2.435 1_545 S
Gd96 O121 2.717 1_545 S
Gd96 O123 2.395 1_445 S
Gd96 O127 2.327 1_455 S
Gd97 C108 2.818 . S
Gd97 O117 2.395 1_665 S
Gd97 O121 2.327 1_655 S
Gd97 O122 2.377 . S
Gd97 O124 2.448 . S
Gd97 O125 2.506 . S
Gd97 O126 2.435 1_565 S
Gd97 O127 2.717 1_565 S
C98 O116 1.240 . S
C98 O117 1.240 . S
C99 Gd96 2.818 . S
C99 C100 1.510 . S
C99 O118 1.249 . S
C99 O119 1.252 . S
C100 C99 1.510 . S
C100 C101 1.404 . S
C100 C102 1.352 . S
C101 C100 1.404 . S
C101 C105 1.389 . S
C101 H128 0.930 . S
C102 C100 1.352 . S
C102 C104 1.374 . S
C102 H129 0.931 . S
C103 C104 1.359 . S
C103 C105 1.364 . S
C104 C102 1.374 . S
C104 C103 1.359 . S
C104 H130 0.931 . S
C105 C101 1.389 . S
C105 C103 1.364 . S
C105 H131 0.931 . S
C106 O120 1.256 . S
C106 O121 1.257 . S
C107 O122 1.240 . S
C107 O123 1.240 . S
C108 Gd97 2.818 . S
C108 C109 1.510 . S
C108 O124 1.249 . S
C108 O125 1.252 . S
C109 C108 1.510 . S
C109 C110 1.404 . S
C109 C111 1.352 . S
C110 C109 1.404 . S
C110 C114 1.389 . S
C110 H132 0.930 . S
C111 C109 1.352 . S
C111 C113 1.374 . S
C111 H133 0.931 . S
C112 C113 1.359 . S
C112 C114 1.364 . S
C113 C111 1.374 . S
C113 C112 1.359 . S
C113 H134 0.931 . S
C114 C110 1.389 . S
C114 C112 1.364 . S
C114 H135 0.931 . S
C115 O126 1.256 . S
C115 O127 1.257 . S
O116 Gd96 2.377 . S
O116 C98 1.240 . S
O117 Gd97 2.395 1_445 S
O117 C98 1.240 . S
O118 Gd96 2.448 . S
O118 C99 1.249 . S
O119 Gd96 2.506 . S
O119 C99 1.252 . S
O120 Gd96 2.435 1_565 S
O120 C106 1.256 . S
O121 Gd96 2.717 1_565 S
O121 Gd97 2.327 1_455 S
O121 C106 1.257 . S
O122 Gd97 2.377 . S
O122 C107 1.240 . S
O123 Gd96 2.395 1_665 S
O123 C107 1.240 . S
O124 Gd97 2.448 . S
O124 C108 1.249 . S
O125 Gd97 2.506 . S
O125 C108 1.252 . S
O126 Gd97 2.435 1_545 S
O126 C115 1.256 . S
O127 Gd96 2.327 1_655 S
O127 Gd97 2.717 1_545 S
O127 C115 1.257 . S
H128 C101 0.930 . S
H129 C102 0.931 . S
H130 C104 0.931 . S
H131 C105 0.931 . S
H132 C110 0.930 . S
H133 C111 0.931 . S
H134 C113 0.931 . S
H135 C114 0.931 . S
Gd136 C139 2.818 . S
Gd136 O156 2.377 . S
Gd136 O158 2.448 . S
Gd136 O159 2.506 . S
Gd136 O160 2.435 1_545 S
Gd136 O161 2.717 1_545 S
Gd136 O163 2.395 1_544 S
Gd136 O167 2.327 1_554 S
Gd137 C148 2.818 1_545 S
Gd137 O157 2.395 1_556 S
Gd137 O161 2.327 1_546 S
Gd137 O162 2.377 1_545 S
Gd137 O164 2.448 1_545 S
Gd137 O165 2.506 1_545 S
Gd137 O166 2.435 . S
Gd137 O167 2.717 . S
C138 O156 1.240 . S
C138 O157 1.240 . S
C139 Gd136 2.818 . S
C139 C140 1.510 . S
C139 O158 1.249 . S
C139 O159 1.252 . S
C140 C139 1.510 . S
C140 C141 1.404 . S
C140 C142 1.352 . S
C141 C140 1.404 . S
C141 C145 1.389 . S
C141 H168 0.930 . S
C142 C140 1.352 . S
C142 C144 1.374 . S
C142 H169 0.931 . S
C143 C144 1.359 . S
C143 C145 1.364 . S
C144 C142 1.374 . S
C144 C143 1.359 . S
C144 H170 0.931 . S
C145 C141 1.389 . S
C145 C143 1.364 . S
C145 H171 0.931 . S
C146 O160 1.256 . S
C146 O161 1.257 . S
C147 O162 1.240 . S
C147 O163 1.240 . S
C148 Gd137 2.818 1_565 S
C148 C149 1.510 . S
C148 O164 1.249 . S
C148 O165 1.252 . S
C149 C148 1.510 . S
C149 C150 1.404 . S
C149 C151 1.352 . S
C150 C149 1.404 . S
C150 C154 1.389 . S
C150 H172 0.930 . S
C151 C149 1.352 . S
C151 C153 1.374 . S
C151 H173 0.931 . S
C152 C153 1.359 . S
C152 C154 1.364 . S
C153 C151 1.374 . S
C153 C152 1.359 . S
C153 H174 0.931 . S
C154 C150 1.389 . S
C154 C152 1.364 . S
C154 H175 0.931 . S
C155 O166 1.256 . S
C155 O167 1.257 . S
O156 Gd136 2.377 . S
O156 C138 1.240 . S
O157 Gd137 2.395 1_554 S
O157 C138 1.240 . S
O158 Gd136 2.448 . S
O158 C139 1.249 . S
O159 Gd136 2.506 . S
O159 C139 1.252 . S
O160 Gd136 2.435 1_565 S
O160 C146 1.256 . S
O161 Gd136 2.717 1_565 S
O161 Gd137 2.327 1_564 S
O161 C146 1.257 . S
O162 Gd137 2.377 1_565 S
O162 C147 1.240 . S
O163 Gd136 2.395 1_566 S
O163 C147 1.240 . S
O164 Gd137 2.448 1_565 S
O164 C148 1.249 . S
O165 Gd137 2.506 1_565 S
O165 C148 1.252 . S
O166 Gd137 2.435 . S
O166 C155 1.256 . S
O167 Gd136 2.327 1_556 S
O167 Gd137 2.717 . S
O167 C155 1.257 . S
H168 C141 0.930 . S
H169 C142 0.931 . S
H170 C144 0.931 . S
H171 C145 0.931 . S
H172 C150 0.930 . S
H173 C151 0.931 . S
H174 C153 0.931 . S
H175 C154 0.931 . S
Gd176 C179 2.818 . S
Gd176 O196 2.377 . S
Gd176 O198 2.448 . S
Gd176 O199 2.506 . S
Gd176 O200 2.435 . S
Gd176 O201 2.717 . S
Gd176 O203 2.395 . S
Gd176 O207 2.327 . S
Gd177 C188 2.818 . S
Gd177 O197 2.395 . S
Gd177 O201 2.327 . S
Gd177 O202 2.377 . S
Gd177 O204 2.448 . S
Gd177 O205 2.506 . S
Gd177 O206 2.435 . S
Gd177 O207 2.717 . S
C178 O196 1.240 . S
C178 O197 1.240 . S
C179 Gd176 2.818 . S
C179 C180 1.510 . S
C179 O198 1.249 . S
C179 O199 1.252 . S
C180 C179 1.510 . S
C180 C181 1.404 . S
C180 C182 1.352 . S
C181 C180 1.404 . S
C181 C185 1.389 . S
C181 H208 0.930 . S
C182 C180 1.352 . S
C182 C184 1.374 . S
C182 H209 0.931 . S
C183 C184 1.359 . S
C183 C185 1.364 . S
C184 C182 1.374 . S
C184 C183 1.359 . S
C184 H210 0.931 . S
C185 C181 1.389 . S
C185 C183 1.364 . S
C185 H211 0.931 . S
C186 O200 1.256 . S
C186 O201 1.257 . S
C187 O202 1.240 . S
C187 O203 1.240 . S
C188 Gd177 2.818 . S
C188 C189 1.510 . S
C188 O204 1.249 . S
C188 O205 1.252 . S
C189 C188 1.510 . S
C189 C190 1.404 . S
C189 C191 1.352 . S
C190 C189 1.404 . S
C190 C194 1.389 . S
C190 H212 0.930 . S
C191 C189 1.352 . S
C191 C193 1.374 . S
C191 H213 0.931 . S
C192 C193 1.359 . S
C192 C194 1.364 . S
C193 C191 1.374 . S
C193 C192 1.359 . S
C193 H214 0.931 . S
C194 C190 1.389 . S
C194 C192 1.364 . S
C194 H215 0.931 . S
C195 O206 1.256 . S
C195 O207 1.257 . S
O196 Gd176 2.377 . S
O196 C178 1.240 . S
O197 Gd177 2.395 . S
O197 C178 1.240 . S
O198 Gd176 2.448 . S
O198 C179 1.249 . S
O199 Gd176 2.506 . S
O199 C179 1.252 . S
O200 Gd176 2.435 . S
O200 C186 1.256 . S
O201 Gd176 2.717 . S
O201 Gd177 2.327 . S
O201 C186 1.257 . S
O202 Gd177 2.377 . S
O202 C187 1.240 . S
O203 Gd176 2.395 . S
O203 C187 1.240 . S
O204 Gd177 2.448 . S
O204 C188 1.249 . S
O205 Gd177 2.506 . S
O205 C188 1.252 . S
O206 Gd177 2.435 . S
O206 C195 1.256 . S
O207 Gd176 2.327 . S
O207 Gd177 2.717 . S
O207 C195 1.257 . S
H208 C181 0.930 . S
H209 C182 0.931 . S
H210 C184 0.931 . S
H211 C185 0.931 . S
H212 C190 0.930 . S
H213 C191 0.931 . S
H214 C193 0.931 . S
H215 C194 0.931 . S
Gd216 C219 2.818 . S
Gd216 O236 2.377 . S
Gd216 O238 2.448 . S
Gd216 O239 2.506 . S
Gd216 O240 2.435 1_455 S
Gd216 O241 2.717 1_455 S
Gd216 O243 2.395 1_454 S
Gd216 O247 2.327 1_554 S
Gd217 C228 2.818 1_455 S
Gd217 O237 2.395 1_556 S
Gd217 O241 2.327 1_456 S
Gd217 O242 2.377 1_455 S
Gd217 O244 2.448 1_455 S
Gd217 O245 2.506 1_455 S
Gd217 O246 2.435 . S
Gd217 O247 2.717 . S
C218 O236 1.240 . S
C218 O237 1.240 . S
C219 Gd216 2.818 . S
C219 C220 1.510 . S
C219 O238 1.249 . S
C219 O239 1.252 . S
C220 C219 1.510 . S
C220 C221 1.404 . S
C220 C222 1.352 . S
C221 C220 1.404 . S
C221 C225 1.389 . S
C221 H248 0.930 . S
C222 C220 1.352 . S
C222 C224 1.374 . S
C222 H249 0.931 . S
C223 C224 1.359 . S
C223 C225 1.364 . S
C224 C222 1.374 . S
C224 C223 1.359 . S
C224 H250 0.931 . S
C225 C221 1.389 . S
C225 C223 1.364 . S
C225 H251 0.931 . S
C226 O240 1.256 . S
C226 O241 1.257 . S
C227 O242 1.240 . S
C227 O243 1.240 . S
C228 Gd217 2.818 1_655 S
C228 C229 1.510 . S
C228 O244 1.249 . S
C228 O245 1.252 . S
C229 C228 1.510 . S
C229 C230 1.404 . S
C229 C231 1.352 . S
C230 C229 1.404 . S
C230 C234 1.389 . S
C230 H252 0.930 . S
C231 C229 1.352 . S
C231 C233 1.374 . S
C231 H253 0.931 . S
C232 C233 1.359 . S
C232 C234 1.364 . S
C233 C231 1.374 . S
C233 C232 1.359 . S
C233 H254 0.931 . S
C234 C230 1.389 . S
C234 C232 1.364 . S
C234 H255 0.931 . S
C235 O246 1.256 . S
C235 O247 1.257 . S
O236 Gd216 2.377 . S
O236 C218 1.240 . S
O237 Gd217 2.395 1_554 S
O237 C218 1.240 . S
O238 Gd216 2.448 . S
O238 C219 1.249 . S
O239 Gd216 2.506 . S
O239 C219 1.252 . S
O240 Gd216 2.435 1_655 S
O240 C226 1.256 . S
O241 Gd216 2.717 1_655 S
O241 Gd217 2.327 1_654 S
O241 C226 1.257 . S
O242 Gd217 2.377 1_655 S
O242 C227 1.240 . S
O243 Gd216 2.395 1_656 S
O243 C227 1.240 . S
O244 Gd217 2.448 1_655 S
O244 C228 1.249 . S
O245 Gd217 2.506 1_655 S
O245 C228 1.252 . S
O246 Gd217 2.435 . S
O246 C235 1.256 . S
O247 Gd216 2.327 1_556 S
O247 Gd217 2.717 . S
O247 C235 1.257 . S
H248 C221 0.930 . S
H249 C222 0.931 . S
H250 C224 0.931 . S
H251 C225 0.931 . S
H252 C230 0.930 . S
H253 C231 0.931 . S
H254 C233 0.931 . S
H255 C234 0.931 . S
C256 C257 1.349 . S
C256 C258 1.327 . S
C256 H281 0.950 . S
C257 C256 1.349 . S
C257 C273 1.349 . S
C258 C256 1.327 . S
C258 C277 1.429 . S
C258 H282 0.950 . S
C259 C276 1.574 . S
C259 C278 1.368 . S
C259 H283 0.949 . S
H260 C264 0.949 . S
C261 C262 1.349 . S
C261 C263 1.327 . S
C261 H284 0.950 . S
C262 C261 1.349 . S
C262 C274 1.349 . S
C263 C261 1.327 . S
C263 C279 1.429 . S
C263 H285 0.950 . S
C264 H260 0.949 . S
C264 C272 1.574 . S
C264 C280 1.368 . S
H265 C273 0.950 . S
H266 C271 0.950 . S
H267 C272 0.949 . S
H268 C274 0.950 . S
H269 C275 0.950 . S
H270 C276 0.949 . S
C271 H266 0.950 . S
C271 C273 1.327 . S
C271 C277 1.429 . S
C272 C264 1.574 . S
C272 H267 0.949 . S
C272 C278 1.368 . S
C273 C257 1.349 . S
C273 H265 0.950 . S
C273 C271 1.327 . S
C274 C262 1.349 . S
C274 H268 0.950 . S
C274 C275 1.327 . S
C275 H269 0.950 . S
C275 C274 1.327 . S
C275 C279 1.429 . S
C276 C259 1.574 . S
C276 H270 0.949 . S
C276 C280 1.368 . S
C277 C258 1.429 . S
C277 C271 1.429 . S
C277 C278 1.523 . S
C278 C259 1.368 . S
C278 C272 1.368 . S
C278 C277 1.523 . S
C279 C263 1.429 . S
C279 C275 1.429 . S
C279 C280 1.523 . S
C280 C264 1.368 . S
C280 C276 1.368 . S
C280 C279 1.523 . S
H281 C256 0.950 . S
H282 C258 0.950 . S
H283 C259 0.949 . S
H284 C261 0.950 . S
H285 C263 0.950 . S
C286 C287 1.349 . S
C286 C288 1.327 . S
C286 H311 0.950 . S
C287 C286 1.349 . S
C287 C303 1.349 . S
C288 C286 1.327 . S
C288 C307 1.429 . S
C288 H312 0.950 . S
C289 C306 1.574 . S
C289 C308 1.368 . S
C289 H313 0.949 . S
H290 C294 0.949 . S
C291 C292 1.349 . S
C291 C293 1.327 . S
C291 H314 0.950 . S
C292 C291 1.349 . S
C292 C304 1.349 . S
C293 C291 1.327 . S
C293 C309 1.429 . S
C293 H315 0.950 . S
C294 H290 0.949 . S
C294 C302 1.574 . S
C294 C310 1.368 . S
H295 C303 0.950 . S
H296 C301 0.950 . S
H297 C302 0.949 . S
H298 C304 0.950 . S
H299 C305 0.950 . S
H300 C306 0.949 . S
C301 H296 0.950 . S
C301 C303 1.327 . S
C301 C307 1.429 . S
C302 C294 1.574 . S
C302 H297 0.949 . S
C302 C308 1.368 . S
C303 C287 1.349 . S
C303 H295 0.950 . S
C303 C301 1.327 . S
C304 C292 1.349 . S
C304 H298 0.950 . S
C304 C305 1.327 . S
C305 H299 0.950 . S
C305 C304 1.327 . S
C305 C309 1.429 . S
C306 C289 1.574 . S
C306 H300 0.949 . S
C306 C310 1.368 . S
C307 C288 1.429 . S
C307 C301 1.429 . S
C307 C308 1.523 . S
C308 C289 1.368 . S
C308 C302 1.368 . S
C308 C307 1.523 . S
C309 C293 1.429 . S
C309 C305 1.429 . S
C309 C310 1.523 . S
C310 C294 1.368 . S
C310 C306 1.368 . S
C310 C309 1.523 . S
H311 C286 0.950 . S
H312 C288 0.950 . S
H313 C289 0.949 . S
H314 C291 0.950 . S
H315 C293 0.950 . S
C316 C317 1.349 . S
C316 C318 1.327 . S
C316 H341 0.950 . S
C317 C316 1.349 . S
C317 C333 1.349 . S
C318 C316 1.327 . S
C318 C337 1.429 . S
C318 H342 0.950 . S
C319 C336 1.574 . S
C319 C338 1.368 . S
C319 H343 0.949 . S
H320 C324 0.949 . S
C321 C322 1.349 . S
C321 C323 1.327 . S
C321 H344 0.950 . S
C322 C321 1.349 . S
C322 C334 1.349 . S
C323 C321 1.327 . S
C323 C339 1.429 . S
C323 H345 0.950 . S
C324 H320 0.949 . S
C324 C332 1.574 . S
C324 C340 1.368 . S
H325 C333 0.950 . S
H326 C331 0.950 . S
H327 C332 0.949 . S
H328 C334 0.950 . S
H329 C335 0.950 . S
H330 C336 0.949 . S
C331 H326 0.950 . S
C331 C333 1.327 . S
C331 C337 1.429 . S
C332 C324 1.574 . S
C332 H327 0.949 . S
C332 C338 1.368 . S
C333 C317 1.349 . S
C333 H325 0.950 . S
C333 C331 1.327 . S
C334 C322 1.349 . S
C334 H328 0.950 . S
C334 C335 1.327 . S
C335 H329 0.950 . S
C335 C334 1.327 . S
C335 C339 1.429 . S
C336 C319 1.574 . S
C336 H330 0.949 . S
C336 C340 1.368 . S
C337 C318 1.429 . S
C337 C331 1.429 . S
C337 C338 1.523 . S
C338 C319 1.368 . S
C338 C332 1.368 . S
C338 C337 1.523 . S
C339 C323 1.429 . S
C339 C335 1.429 . S
C339 C340 1.523 . S
C340 C324 1.368 . S
C340 C336 1.368 . S
C340 C339 1.523 . S
H341 C316 0.950 . S
H342 C318 0.950 . S
H343 C319 0.949 . S
H344 C321 0.950 . S
H345 C323 0.950 . S
C346 C347 1.349 . S
C346 C348 1.327 . S
C346 H371 0.950 . S
C347 C346 1.349 . S
C347 C363 1.349 . S
C348 C346 1.327 . S
C348 C367 1.429 . S
C348 H372 0.950 . S
C349 C366 1.574 . S
C349 C368 1.368 . S
C349 H373 0.949 . S
H350 C354 0.949 . S
C351 C352 1.349 . S
C351 C353 1.327 . S
C351 H374 0.950 . S
C352 C351 1.349 . S
C352 C364 1.349 . S
C353 C351 1.327 . S
C353 C369 1.429 . S
C353 H375 0.950 . S
C354 H350 0.949 . S
C354 C362 1.574 . S
C354 C370 1.368 . S
H355 C363 0.950 . S
H356 C361 0.950 . S
H357 C362 0.949 . S
H358 C364 0.950 . S
H359 C365 0.950 . S
H360 C366 0.949 . S
C361 H356 0.950 . S
C361 C363 1.327 . S
C361 C367 1.429 . S
C362 C354 1.574 . S
C362 H357 0.949 . S
C362 C368 1.368 . S
C363 C347 1.349 . S
C363 H355 0.950 . S
C363 C361 1.327 . S
C364 C352 1.349 . S
C364 H358 0.950 . S
C364 C365 1.327 . S
C365 H359 0.950 . S
C365 C364 1.327 . S
C365 C369 1.429 . S
C366 C349 1.574 . S
C366 H360 0.949 . S
C366 C370 1.368 . S
C367 C348 1.429 . S
C367 C361 1.429 . S
C367 C368 1.523 . S
C368 C349 1.368 . S
C368 C362 1.368 . S
C368 C367 1.523 . S
C369 C353 1.429 . S
C369 C365 1.429 . S
C369 C370 1.523 . S
C370 C354 1.368 . S
C370 C366 1.368 . S
C370 C369 1.523 . S
H371 C346 0.950 . S
H372 C348 0.950 . S
H373 C349 0.949 . S
H374 C351 0.950 . S
H375 C353 0.950 . S
C376 C377 1.349 . S
C376 C378 1.327 . S
C376 H401 0.950 . S
C377 C376 1.349 . S
C377 C393 1.349 . S
C378 C376 1.327 . S
C378 C397 1.429 . S
C378 H402 0.950 . S
C379 C396 1.574 . S
C379 C398 1.368 . S
C379 H403 0.949 . S
H380 C384 0.949 . S
C381 C382 1.349 . S
C381 C383 1.327 . S
C381 H404 0.950 . S
C382 C381 1.349 . S
C382 C394 1.349 . S
C383 C381 1.327 . S
C383 C399 1.429 . S
C383 H405 0.950 . S
C384 H380 0.949 . S
C384 C392 1.574 . S
C384 C400 1.368 . S
H385 C393 0.950 . S
H386 C391 0.950 . S
H387 C392 0.949 . S
H388 C394 0.950 . S
H389 C395 0.950 . S
H390 C396 0.949 . S
C391 H386 0.950 . S
C391 C393 1.327 . S
C391 C397 1.429 . S
C392 C384 1.574 . S
C392 H387 0.949 . S
C392 C398 1.368 . S
C393 C377 1.349 . S
C393 H385 0.950 . S
C393 C391 1.327 . S
C394 C382 1.349 . S
C394 H388 0.950 . S
C394 C395 1.327 . S
C395 H389 0.950 . S
C395 C394 1.327 . S
C395 C399 1.429 . S
C396 C379 1.574 . S
C396 H390 0.949 . S
C396 C400 1.368 . S
C397 C378 1.429 . S
C397 C391 1.429 . S
C397 C398 1.523 . S
C398 C379 1.368 . S
C398 C392 1.368 . S
C398 C397 1.523 . S
C399 C383 1.429 . S
C399 C395 1.429 . S
C399 C400 1.523 . S
C400 C384 1.368 . S
C400 C396 1.368 . S
C400 C399 1.523 . S
H401 C376 0.950 . S
H402 C378 0.950 . S
H403 C379 0.949 . S
H404 C381 0.950 . S
H405 C383 0.950 . S
C406 C407 1.349 . S
C406 C408 1.327 . S
C406 H431 0.950 . S
C407 C406 1.349 . S
C407 C423 1.349 . S
C408 C406 1.327 . S
C408 C427 1.429 . S
C408 H432 0.950 . S
C409 C426 1.574 . S
C409 C428 1.368 . S
C409 H433 0.949 . S
H410 C414 0.949 . S
C411 C412 1.349 . S
C411 C413 1.327 . S
C411 H434 0.950 . S
C412 C411 1.349 . S
C412 C424 1.349 . S
C413 C411 1.327 . S
C413 C429 1.429 . S
C413 H435 0.950 . S
C414 H410 0.949 . S
C414 C422 1.574 . S
C414 C430 1.368 . S
H415 C423 0.950 . S
H416 C421 0.950 . S
H417 C422 0.949 . S
H418 C424 0.950 1_545 S
H419 C425 0.950 . S
H420 C426 0.949 . S
C421 H416 0.950 . S
C421 C423 1.327 . S
C421 C427 1.429 . S
C422 C414 1.574 . S
C422 H417 0.949 . S
C422 C428 1.368 . S
C423 C407 1.349 . S
C423 H415 0.950 . S
C423 C421 1.327 . S
C424 C412 1.349 . S
C424 H418 0.950 1_565 S
C424 C425 1.327 . S
C425 H419 0.950 . S
C425 C424 1.327 . S
C425 C429 1.429 . S
C426 C409 1.574 . S
C426 H420 0.949 . S
C426 C430 1.368 . S
C427 C408 1.429 . S
C427 C421 1.429 . S
C427 C428 1.523 . S
C428 C409 1.368 . S
C428 C422 1.368 . S
C428 C427 1.523 . S
C429 C413 1.429 . S
C429 C425 1.429 . S
C429 C430 1.523 . S
C430 C414 1.368 . S
C430 C426 1.368 . S
C430 C429 1.523 . S
H431 C406 0.950 . S
H432 C408 0.950 . S
H433 C409 0.949 . S
H434 C411 0.950 . S
H435 C413 0.950 . S
C436 C437 1.349 . S
C436 C438 1.327 . S
C436 H461 0.950 . S
C437 C436 1.349 . S
C437 C453 1.349 . S
C438 C436 1.327 . S
C438 C457 1.429 . S
C438 H462 0.950 . S
C439 C456 1.574 . S
C439 C458 1.368 . S
C439 H463 0.949 . S
H440 C444 0.949 . S
C441 C442 1.349 . S
C441 C443 1.327 . S
C441 H464 0.950 . S
C442 C441 1.349 . S
C442 C454 1.349 . S
C443 C441 1.327 . S
C443 C459 1.429 . S
C443 H465 0.950 . S
C444 H440 0.949 . S
C444 C452 1.574 . S
C444 C460 1.368 . S
H445 C453 0.950 . S
H446 C451 0.950 . S
H447 C452 0.949 . S
H448 C454 0.950 . S
H449 C455 0.950 . S
H450 C456 0.949 . S
C451 H446 0.950 . S
C451 C453 1.327 . S
C451 C457 1.429 . S
C452 C444 1.574 . S
C452 H447 0.949 . S
C452 C458 1.368 . S
C453 C437 1.349 . S
C453 H445 0.950 . S
C453 C451 1.327 . S
C454 C442 1.349 . S
C454 H448 0.950 . S
C454 C455 1.327 . S
C455 H449 0.950 . S
C455 C454 1.327 . S
C455 C459 1.429 . S
C456 C439 1.574 . S
C456 H450 0.949 . S
C456 C460 1.368 . S
C457 C438 1.429 . S
C457 C451 1.429 . S
C457 C458 1.523 . S
C458 C439 1.368 . S
C458 C452 1.368 . S
C458 C457 1.523 . S
C459 C443 1.429 . S
C459 C455 1.429 . S
C459 C460 1.523 . S
C460 C444 1.368 . S
C460 C456 1.368 . S
C460 C459 1.523 . S
H461 C436 0.950 . S
H462 C438 0.950 . S
H463 C439 0.949 . S
H464 C441 0.950 . S
H465 C443 0.950 . S
C466 C467 1.349 . S
C466 C468 1.327 . S
C466 H491 0.950 . S
C467 C466 1.349 . S
C467 C483 1.349 . S
C468 C466 1.327 . S
C468 C487 1.429 . S
C468 H492 0.950 . S
C469 C486 1.574 . S
C469 C488 1.368 . S
C469 H493 0.949 . S
H470 C474 0.949 . S
C471 C472 1.349 . S
C471 C473 1.327 . S
C471 H494 0.950 . S
C472 C471 1.349 . S
C472 C484 1.349 . S
C473 C471 1.327 . S
C473 C489 1.429 . S
C473 H495 0.950 . S
C474 H470 0.949 . S
C474 C482 1.574 . S
C474 C490 1.368 . S
H475 C483 0.950 . S
H476 C481 0.950 . S
H477 C482 0.949 . S
H478 C484 0.950 . S
H479 C485 0.950 . S
H480 C486 0.949 . S
C481 H476 0.950 . S
C481 C483 1.327 . S
C481 C487 1.429 . S
C482 C474 1.574 . S
C482 H477 0.949 . S
C482 C488 1.368 . S
C483 C467 1.349 . S
C483 H475 0.950 . S
C483 C481 1.327 . S
C484 C472 1.349 . S
C484 H478 0.950 . S
C484 C485 1.327 . S
C485 H479 0.950 . S
C485 C484 1.327 . S
C485 C489 1.429 . S
C486 C469 1.574 . S
C486 H480 0.949 . S
C486 C490 1.368 . S
C487 C468 1.429 . S
C487 C481 1.429 . S
C487 C488 1.523 . S
C488 C469 1.368 . S
C488 C482 1.368 . S
C488 C487 1.523 . S
C489 C473 1.429 . S
C489 C485 1.429 . S
C489 C490 1.523 . S
C490 C474 1.368 . S
C490 C486 1.368 . S
C490 C489 1.523 . S
H491 C466 0.950 . S
H492 C468 0.950 . S
H493 C469 0.949 . S
H494 C471 0.950 . S
H495 C473 0.950 . S
C496 C497 1.349 . S
C496 C498 1.327 . S
C496 H521 0.950 . S
C497 C496 1.349 . S
C497 C513 1.349 . S
C498 C496 1.327 . S
C498 C517 1.429 . S
C498 H522 0.950 . S
C499 C516 1.574 . S
C499 C518 1.368 . S
C499 H523 0.949 . S
H500 C504 0.949 . S
C501 C502 1.349 . S
C501 C503 1.327 . S
C501 H524 0.950 . S
C502 C501 1.349 . S
C502 C514 1.349 . S
C503 C501 1.327 . S
C503 C519 1.429 . S
C503 H525 0.950 . S
C504 H500 0.949 . S
C504 C512 1.574 . S
C504 C520 1.368 . S
H505 C513 0.950 . S
H506 C511 0.950 . S
H507 C512 0.949 . S
H508 C514 0.950 . S
H509 C515 0.950 . S
H510 C516 0.949 . S
C511 H506 0.950 . S
C511 C513 1.327 . S
C511 C517 1.429 . S
C512 C504 1.574 . S
C512 H507 0.949 . S
C512 C518 1.368 . S
C513 C497 1.349 . S
C513 H505 0.950 . S
C513 C511 1.327 . S
C514 C502 1.349 . S
C514 H508 0.950 . S
C514 C515 1.327 . S
C515 H509 0.950 . S
C515 C514 1.327 . S
C515 C519 1.429 . S
C516 C499 1.574 . S
C516 H510 0.949 . S
C516 C520 1.368 . S
C517 C498 1.429 . S
C517 C511 1.429 . S
C517 C518 1.523 . S
C518 C499 1.368 . S
C518 C512 1.368 . S
C518 C517 1.523 . S
C519 C503 1.429 . S
C519 C515 1.429 . S
C519 C520 1.523 . S
C520 C504 1.368 . S
C520 C516 1.368 . S
C520 C519 1.523 . S
H521 C496 0.950 . S
H522 C498 0.950 . S
H523 C499 0.949 . S
H524 C501 0.950 . S
H525 C503 0.950 . S
C526 C527 1.349 . S
C526 C528 1.327 . S
C526 H551 0.950 . S
C527 C526 1.349 . S
C527 C543 1.349 . S
C528 C526 1.327 . S
C528 C547 1.429 . S
C528 H552 0.950 . S
C529 C546 1.574 . S
C529 C548 1.368 . S
C529 H553 0.949 . S
H530 C534 0.949 . S
C531 C532 1.349 . S
C531 C533 1.327 . S
C531 H554 0.950 . S
C532 C531 1.349 . S
C532 C544 1.349 . S
C533 C531 1.327 . S
C533 C549 1.429 . S
C533 H555 0.950 . S
C534 H530 0.949 . S
C534 C542 1.574 . S
C534 C550 1.368 . S
H535 C543 0.950 . S
H536 C541 0.950 . S
H537 C542 0.949 . S
H538 C544 0.950 . S
H539 C545 0.950 . S
H540 C546 0.949 . S
C541 H536 0.950 . S
C541 C543 1.327 . S
C541 C547 1.429 . S
C542 C534 1.574 . S
C542 H537 0.949 . S
C542 C548 1.368 . S
C543 C527 1.349 . S
C543 H535 0.950 . S
C543 C541 1.327 . S
C544 C532 1.349 . S
C544 H538 0.950 . S
C544 C545 1.327 . S
C545 H539 0.950 . S
C545 C544 1.327 . S
C545 C549 1.429 . S
C546 C529 1.574 . S
C546 H540 0.949 . S
C546 C550 1.368 . S
C547 C528 1.429 . S
C547 C541 1.429 . S
C547 C548 1.523 . S
C548 C529 1.368 . S
C548 C542 1.368 . S
C548 C547 1.523 . S
C549 C533 1.429 . S
C549 C545 1.429 . S
C549 C550 1.523 . S
C550 C534 1.368 . S
C550 C546 1.368 . S
C550 C549 1.523 . S
H551 C526 0.950 . S
H552 C528 0.950 . S
H553 C529 0.949 . S
H554 C531 0.950 . S
H555 C533 0.950 . S
C556 C557 1.349 . S
C556 C558 1.327 . S
C556 H581 0.950 . S
C557 C556 1.349 . S
C557 C573 1.349 . S
C558 C556 1.327 . S
C558 C577 1.429 . S
C558 H582 0.950 . S
C559 C576 1.574 . S
C559 C578 1.368 . S
C559 H583 0.949 . S
H560 C564 0.949 . S
C561 C562 1.349 . S
C561 C563 1.327 . S
C561 H584 0.950 . S
C562 C561 1.349 . S
C562 C574 1.349 . S
C563 C561 1.327 . S
C563 C579 1.429 . S
C563 H585 0.950 . S
C564 H560 0.949 . S
C564 C572 1.574 . S
C564 C580 1.368 . S
H565 C573 0.950 . S
H566 C571 0.950 . S
H567 C572 0.949 . S
H568 C574 0.950 . S
H569 C575 0.950 . S
H570 C576 0.949 . S
C571 H566 0.950 . S
C571 C573 1.327 . S
C571 C577 1.429 . S
C572 C564 1.574 . S
C572 H567 0.949 . S
C572 C578 1.368 . S
C573 C557 1.349 . S
C573 H565 0.950 . S
C573 C571 1.327 . S
C574 C562 1.349 . S
C574 H568 0.950 . S
C574 C575 1.327 . S
C575 H569 0.950 . S
C575 C574 1.327 . S
C575 C579 1.429 . S
C576 C559 1.574 . S
C576 H570 0.949 . S
C576 C580 1.368 . S
C577 C558 1.429 . S
C577 C571 1.429 . S
C577 C578 1.523 . S
C578 C559 1.368 . S
C578 C572 1.368 . S
C578 C577 1.523 . S
C579 C563 1.429 . S
C579 C575 1.429 . S
C579 C580 1.523 . S
C580 C564 1.368 . S
C580 C576 1.368 . S
C580 C579 1.523 . S
H581 C556 0.950 . S
H582 C558 0.950 . S
H583 C559 0.949 . S
H584 C561 0.950 . S
H585 C563 0.950 . S
C586 C587 1.349 . S
C586 C588 1.327 . S
C586 H611 0.950 . S
C587 C586 1.349 . S
C587 C603 1.349 . S
C588 C586 1.327 . S
C588 C607 1.429 . S
C588 H612 0.950 . S
C589 C606 1.574 . S
C589 C608 1.368 . S
C589 H613 0.949 . S
H590 C594 0.949 . S
C591 C592 1.349 . S
C591 C593 1.327 . S
C591 H614 0.950 . S
C592 C591 1.349 . S
C592 C604 1.349 . S
C593 C591 1.327 . S
C593 C609 1.429 . S
C593 H615 0.950 . S
C594 H590 0.949 . S
C594 C602 1.574 . S
C594 C610 1.368 . S
H595 C603 0.950 . S
H596 C601 0.950 . S
H597 C602 0.949 . S
H598 C604 0.950 . S
H599 C605 0.950 . S
H600 C606 0.949 . S
C601 H596 0.950 . S
C601 C603 1.327 . S
C601 C607 1.429 . S
C602 C594 1.574 . S
C602 H597 0.949 . S
C602 C608 1.368 . S
C603 C587 1.349 . S
C603 H595 0.950 . S
C603 C601 1.327 . S
C604 C592 1.349 . S
C604 H598 0.950 . S
C604 C605 1.327 . S
C605 H599 0.950 . S
C605 C604 1.327 . S
C605 C609 1.429 . S
C606 C589 1.574 . S
C606 H600 0.949 . S
C606 C610 1.368 . S
C607 C588 1.429 . S
C607 C601 1.429 . S
C607 C608 1.523 . S
C608 C589 1.368 . S
C608 C602 1.368 . S
C608 C607 1.523 . S
C609 C593 1.429 . S
C609 C605 1.429 . S
C609 C610 1.523 . S
C610 C594 1.368 . S
C610 C606 1.368 . S
C610 C609 1.523 . S
H611 C586 0.950 . S
H612 C588 0.950 . S
H613 C589 0.949 . S
H614 C591 0.950 . S
H615 C593 0.950 . S
C616 C617 1.349 . S
C616 C618 1.327 . S
C616 H641 0.950 . S
C617 C616 1.349 . S
C617 C633 1.349 . S
C618 C616 1.327 . S
C618 C637 1.429 . S
C618 H642 0.950 . S
C619 C636 1.574 . S
C619 C638 1.368 . S
C619 H643 0.949 . S
H620 C624 0.949 . S
C621 C622 1.349 . S
C621 C623 1.327 . S
C621 H644 0.950 . S
C622 C621 1.349 . S
C622 C634 1.349 . S
C623 C621 1.327 . S
C623 C639 1.429 . S
C623 H645 0.950 . S
C624 H620 0.949 . S
C624 C632 1.574 . S
C624 C640 1.368 . S
H625 C633 0.950 . S
H626 C631 0.950 . S
H627 C632 0.949 . S
H628 C634 0.950 . S
H629 C635 0.950 . S
H630 C636 0.949 . S
C631 H626 0.950 . S
C631 C633 1.327 . S
C631 C637 1.429 . S
C632 C624 1.574 . S
C632 H627 0.949 . S
C632 C638 1.368 . S
C633 C617 1.349 . S
C633 H625 0.950 . S
C633 C631 1.327 . S
C634 C622 1.349 . S
C634 H628 0.950 . S
C634 C635 1.327 . S
C635 H629 0.950 . S
C635 C634 1.327 . S
C635 C639 1.429 . S
C636 C619 1.574 . S
C636 H630 0.949 . S
C636 C640 1.368 . S
C637 C618 1.429 . S
C637 C631 1.429 . S
C637 C638 1.523 . S
C638 C619 1.368 . S
C638 C632 1.368 . S
C638 C637 1.523 . S
C639 C623 1.429 . S
C639 C635 1.429 . S
C639 C640 1.523 . S
C640 C624 1.368 . S
C640 C636 1.368 . S
C640 C639 1.523 . S
H641 C616 0.950 . S
H642 C618 0.950 . S
H643 C619 0.949 . S
H644 C621 0.950 . S
H645 C623 0.950 . S
C646 C647 1.349 . S
C646 C648 1.327 . S
C646 H671 0.950 . S
C647 C646 1.349 . S
C647 C663 1.349 . S
C648 C646 1.327 . S
C648 C667 1.429 . S
C648 H672 0.950 . S
C649 C666 1.574 . S
C649 C668 1.368 . S
C649 H673 0.949 . S
H650 C654 0.949 . S
C651 C652 1.349 . S
C651 C653 1.327 . S
C651 H674 0.950 . S
C652 C651 1.349 . S
C652 C664 1.349 . S
C653 C651 1.327 . S
C653 C669 1.429 . S
C653 H675 0.950 . S
C654 H650 0.949 . S
C654 C662 1.574 . S
C654 C670 1.368 . S
H655 C663 0.950 . S
H656 C661 0.950 . S
H657 C662 0.949 . S
H658 C664 0.950 . S
H659 C665 0.950 . S
H660 C666 0.949 . S
C661 H656 0.950 . S
C661 C663 1.327 . S
C661 C667 1.429 . S
C662 C654 1.574 . S
C662 H657 0.949 . S
C662 C668 1.368 . S
C663 C647 1.349 . S
C663 H655 0.950 . S
C663 C661 1.327 . S
C664 C652 1.349 . S
C664 H658 0.950 . S
C664 C665 1.327 . S
C665 H659 0.950 . S
C665 C664 1.327 . S
C665 C669 1.429 . S
C666 C649 1.574 . S
C666 H660 0.949 . S
C666 C670 1.368 . S
C667 C648 1.429 . S
C667 C661 1.429 . S
C667 C668 1.523 . S
C668 C649 1.368 . S
C668 C662 1.368 . S
C668 C667 1.523 . S
C669 C653 1.429 . S
C669 C665 1.429 . S
C669 C670 1.523 . S
C670 C654 1.368 . S
C670 C666 1.368 . S
C670 C669 1.523 . S
H671 C646 0.950 . S
H672 C648 0.950 . S
H673 C649 0.949 . S
H674 C651 0.950 . S
H675 C653 0.950 . S
C676 C677 1.349 . S
C676 C678 1.327 . S
C676 H701 0.950 . S
C677 C676 1.349 . S
C677 C693 1.349 . S
C678 C676 1.327 . S
C678 C697 1.429 . S
C678 H702 0.950 . S
C679 C696 1.574 . S
C679 C698 1.368 . S
C679 H703 0.949 . S
H680 C684 0.949 . S
C681 C682 1.349 . S
C681 C683 1.327 . S
C681 H704 0.950 . S
C682 C681 1.349 . S
C682 C694 1.349 . S
C683 C681 1.327 . S
C683 C699 1.429 . S
C683 H705 0.950 . S
C684 H680 0.949 . S
C684 C692 1.574 . S
C684 C700 1.368 . S
H685 C693 0.950 . S
H686 C691 0.950 . S
H687 C692 0.949 . S
H688 C694 0.950 . S
H689 C695 0.950 . S
H690 C696 0.949 . S
C691 H686 0.950 . S
C691 C693 1.327 . S
C691 C697 1.429 . S
C692 C684 1.574 . S
C692 H687 0.949 . S
C692 C698 1.368 . S
C693 C677 1.349 . S
C693 H685 0.950 . S
C693 C691 1.327 . S
C694 C682 1.349 . S
C694 H688 0.950 . S
C694 C695 1.327 . S
C695 H689 0.950 . S
C695 C694 1.327 . S
C695 C699 1.429 . S
C696 C679 1.574 . S
C696 H690 0.949 . S
C696 C700 1.368 . S
C697 C678 1.429 . S
C697 C691 1.429 . S
C697 C698 1.523 . S
C698 C679 1.368 . S
C698 C692 1.368 . S
C698 C697 1.523 . S
C699 C683 1.429 . S
C699 C695 1.429 . S
C699 C700 1.523 . S
C700 C684 1.368 . S
C700 C696 1.368 . S
C700 C699 1.523 . S
H701 C676 0.950 . S
H702 C678 0.950 . S
H703 C679 0.949 . S
H704 C681 0.950 . S
H705 C683 0.950 . S
C706 C707 1.349 . S
C706 C708 1.327 . S
C706 H731 0.950 . S
C707 C706 1.349 . S
C707 C723 1.349 . S
C708 C706 1.327 . S
C708 C727 1.429 . S
C708 H732 0.950 . S
C709 C726 1.574 . S
C709 C728 1.368 . S
C709 H733 0.949 . S
H710 C714 0.949 . S
C711 C712 1.349 . S
C711 C713 1.327 . S
C711 H734 0.950 . S
C712 C711 1.349 . S
C712 C724 1.349 . S
C713 C711 1.327 . S
C713 C729 1.429 . S
C713 H735 0.950 . S
C714 H710 0.949 . S
C714 C722 1.574 . S
C714 C730 1.368 . S
H715 C723 0.950 . S
H716 C721 0.950 . S
H717 C722 0.949 . S
H718 C724 0.950 . S
H719 C725 0.950 . S
H720 C726 0.949 . S
C721 H716 0.950 . S
C721 C723 1.327 . S
C721 C727 1.429 . S
C722 C714 1.574 . S
C722 H717 0.949 . S
C722 C728 1.368 . S
C723 C707 1.349 . S
C723 H715 0.950 . S
C723 C721 1.327 . S
C724 C712 1.349 . S
C724 H718 0.950 . S
C724 C725 1.327 . S
C725 H719 0.950 . S
C725 C724 1.327 . S
C725 C729 1.429 . S
C726 C709 1.574 . S
C726 H720 0.949 . S
C726 C730 1.368 . S
C727 C708 1.429 . S
C727 C721 1.429 . S
C727 C728 1.523 . S
C728 C709 1.368 . S
C728 C722 1.368 . S
C728 C727 1.523 . S
C729 C713 1.429 . S
C729 C725 1.429 . S
C729 C730 1.523 . S
C730 C714 1.368 . S
C730 C726 1.368 . S
C730 C729 1.523 . S
H731 C706 0.950 . S
H732 C708 0.950 . S
H733 C709 0.949 . S
H734 C711 0.950 . S
H735 C713 0.950 . S
C736 C737 1.349 . S
C736 C738 1.327 . S
C736 H761 0.950 . S
C737 C736 1.349 . S
C737 C753 1.349 . S
C738 C736 1.327 . S
C738 C757 1.429 . S
C738 H762 0.950 . S
C739 C756 1.574 . S
C739 C758 1.368 . S
C739 H763 0.949 . S
H740 C744 0.949 . S
C741 C742 1.349 . S
C741 C743 1.327 . S
C741 H764 0.950 . S
C742 C741 1.349 . S
C742 C754 1.349 . S
C743 C741 1.327 . S
C743 C759 1.429 . S
C743 H765 0.950 . S
C744 H740 0.949 . S
C744 C752 1.574 . S
C744 C760 1.368 . S
H745 C753 0.950 . S
H746 C751 0.950 . S
H747 C752 0.949 . S
H748 C754 0.950 . S
H749 C755 0.950 . S
H750 C756 0.949 . S
C751 H746 0.950 . S
C751 C753 1.327 . S
C751 C757 1.429 . S
C752 C744 1.574 . S
C752 H747 0.949 . S
C752 C758 1.368 . S
C753 C737 1.349 . S
C753 H745 0.950 . S
C753 C751 1.327 . S
C754 C742 1.349 . S
C754 H748 0.950 . S
C754 C755 1.327 . S
C755 H749 0.950 . S
C755 C754 1.327 . S
C755 C759 1.429 . S
C756 C739 1.574 . S
C756 H750 0.949 . S
C756 C760 1.368 . S
C757 C738 1.429 . S
C757 C751 1.429 . S
C757 C758 1.523 . S
C758 C739 1.368 . S
C758 C752 1.368 . S
C758 C757 1.523 . S
C759 C743 1.429 . S
C759 C755 1.429 . S
C759 C760 1.523 . S
C760 C744 1.368 . S
C760 C756 1.368 . S
C760 C759 1.523 . S
H761 C736 0.950 . S
H762 C738 0.950 . S
H763 C739 0.949 . S
H764 C741 0.950 . S
H765 C743 0.950 . S
C766 C767 1.349 . S
C766 C768 1.327 . S
C766 H791 0.950 . S
C767 C766 1.349 . S
C767 C783 1.349 . S
C768 C766 1.327 . S
C768 C787 1.429 . S
C768 H792 0.950 . S
C769 C786 1.574 . S
C769 C788 1.368 . S
C769 H793 0.949 . S
H770 C774 0.949 . S
C771 C772 1.349 . S
C771 C773 1.327 . S
C771 H794 0.950 . S
C772 C771 1.349 . S
C772 C784 1.349 . S
C773 C771 1.327 . S
C773 C789 1.429 . S
C773 H795 0.950 . S
C774 H770 0.949 . S
C774 C782 1.574 . S
C774 C790 1.368 . S
H775 C783 0.950 . S
H776 C781 0.950 . S
H777 C782 0.949 . S
H778 C784 0.950 . S
H779 C785 0.950 . S
H780 C786 0.949 . S
C781 H776 0.950 . S
C781 C783 1.327 . S
C781 C787 1.429 . S
C782 C774 1.574 . S
C782 H777 0.949 . S
C782 C788 1.368 . S
C783 C767 1.349 . S
C783 H775 0.950 . S
C783 C781 1.327 . S
C784 C772 1.349 . S
C784 H778 0.950 . S
C784 C785 1.327 . S
C785 H779 0.950 . S
C785 C784 1.327 . S
C785 C789 1.429 . S
C786 C769 1.574 . S
C786 H780 0.949 . S
C786 C790 1.368 . S
C787 C768 1.429 . S
C787 C781 1.429 . S
C787 C788 1.523 . S
C788 C769 1.368 . S
C788 C782 1.368 . S
C788 C787 1.523 . S
C789 C773 1.429 . S
C789 C785 1.429 . S
C789 C790 1.523 . S
C790 C774 1.368 . S
C790 C786 1.368 . S
C790 C789 1.523 . S
H791 C766 0.950 . S
H792 C768 0.950 . S
H793 C769 0.949 . S
H794 C771 0.950 . S
H795 C773 0.950 . S
C796 C797 1.349 . S
C796 C798 1.327 . S
C796 H821 0.950 . S
C797 C796 1.349 . S
C797 C813 1.349 . S
C798 C796 1.327 . S
C798 C817 1.429 . S
C798 H822 0.950 . S
C799 C816 1.574 . S
C799 C818 1.368 . S
C799 H823 0.949 . S
H800 C804 0.949 . S
C801 C802 1.349 . S
C801 C803 1.327 . S
C801 H824 0.950 . S
C802 C801 1.349 . S
C802 C814 1.349 . S
C803 C801 1.327 . S
C803 C819 1.429 . S
C803 H825 0.950 . S
C804 H800 0.949 . S
C804 C812 1.574 . S
C804 C820 1.368 . S
H805 C813 0.950 . S
H806 C811 0.950 . S
H807 C812 0.949 . S
H808 C814 0.950 . S
H809 C815 0.950 . S
H810 C816 0.949 . S
C811 H806 0.950 . S
C811 C813 1.327 . S
C811 C817 1.429 . S
C812 C804 1.574 . S
C812 H807 0.949 . S
C812 C818 1.368 . S
C813 C797 1.349 . S
C813 H805 0.950 . S
C813 C811 1.327 . S
C814 C802 1.349 . S
C814 H808 0.950 . S
C814 C815 1.327 . S
C815 H809 0.950 . S
C815 C814 1.327 . S
C815 C819 1.429 . S
C816 C799 1.574 . S
C816 H810 0.949 . S
C816 C820 1.368 . S
C817 C798 1.429 . S
C817 C811 1.429 . S
C817 C818 1.523 . S
C818 C799 1.368 . S
C818 C812 1.368 . S
C818 C817 1.523 . S
C819 C803 1.429 . S
C819 C815 1.429 . S
C819 C820 1.523 . S
C820 C804 1.368 . S
C820 C816 1.368 . S
C820 C819 1.523 . S
H821 C796 0.950 . S
H822 C798 0.950 . S
H823 C799 0.949 . S
H824 C801 0.950 . S
H825 C803 0.950 . S
C826 C827 1.349 . S
C826 C828 1.327 . S
C826 H851 0.950 . S
C827 C826 1.349 . S
C827 C843 1.349 . S
C828 C826 1.327 . S
C828 C847 1.429 . S
C828 H852 0.950 . S
C829 C846 1.574 . S
C829 C848 1.368 . S
C829 H853 0.949 . S
H830 C834 0.949 . S
C831 C832 1.349 . S
C831 C833 1.327 . S
C831 H854 0.950 . S
C832 C831 1.349 . S
C832 C844 1.349 . S
C833 C831 1.327 . S
C833 C849 1.429 . S
C833 H855 0.950 . S
C834 H830 0.949 . S
C834 C842 1.574 . S
C834 C850 1.368 . S
H835 C843 0.950 . S
H836 C841 0.950 . S
H837 C842 0.949 . S
H838 C844 0.950 . S
H839 C845 0.950 . S
H840 C846 0.949 . S
C841 H836 0.950 . S
C841 C843 1.327 . S
C841 C847 1.429 . S
C842 C834 1.574 . S
C842 H837 0.949 . S
C842 C848 1.368 . S
C843 C827 1.349 . S
C843 H835 0.950 . S
C843 C841 1.327 . S
C844 C832 1.349 . S
C844 H838 0.950 . S
C844 C845 1.327 . S
C845 H839 0.950 . S
C845 C844 1.327 . S
C845 C849 1.429 . S
C846 C829 1.574 . S
C846 H840 0.949 . S
C846 C850 1.368 . S
C847 C828 1.429 . S
C847 C841 1.429 . S
C847 C848 1.523 . S
C848 C829 1.368 . S
C848 C842 1.368 . S
C848 C847 1.523 . S
C849 C833 1.429 . S
C849 C845 1.429 . S
C849 C850 1.523 . S
C850 C834 1.368 . S
C850 C846 1.368 . S
C850 C849 1.523 . S
H851 C826 0.950 . S
H852 C828 0.950 . S
H853 C829 0.949 . S
H854 C831 0.950 . S
H855 C833 0.950 . S
C856 C857 1.349 . S
C856 C858 1.327 . S
C856 H881 0.950 . S
C857 C856 1.349 . S
C857 C873 1.349 . S
C858 C856 1.327 . S
C858 C877 1.429 . S
C858 H882 0.950 . S
C859 C876 1.574 . S
C859 C878 1.368 . S
C859 H883 0.949 . S
H860 C864 0.949 . S
C861 C862 1.349 . S
C861 C863 1.327 . S
C861 H884 0.950 . S
C862 C861 1.349 . S
C862 C874 1.349 . S
C863 C861 1.327 . S
C863 C879 1.429 . S
C863 H885 0.950 . S
C864 H860 0.949 . S
C864 C872 1.574 . S
C864 C880 1.368 . S
H865 C873 0.950 . S
H866 C871 0.950 . S
H867 C872 0.949 . S
H868 C874 0.950 . S
H869 C875 0.950 . S
H870 C876 0.949 . S
C871 H866 0.950 . S
C871 C873 1.327 . S
C871 C877 1.429 . S
C872 C864 1.574 . S
C872 H867 0.949 . S
C872 C878 1.368 . S
C873 C857 1.349 . S
C873 H865 0.950 . S
C873 C871 1.327 . S
C874 C862 1.349 . S
C874 H868 0.950 . S
C874 C875 1.327 . S
C875 H869 0.950 . S
C875 C874 1.327 . S
C875 C879 1.429 . S
C876 C859 1.574 . S
C876 H870 0.949 . S
C876 C880 1.368 . S
C877 C858 1.429 . S
C877 C871 1.429 . S
C877 C878 1.523 . S
C878 C859 1.368 . S
C878 C872 1.368 . S
C878 C877 1.523 . S
C879 C863 1.429 . S
C879 C875 1.429 . S
C879 C880 1.523 . S
C880 C864 1.368 . S
C880 C876 1.368 . S
C880 C879 1.523 . S
H881 C856 0.950 . S
H882 C858 0.950 . S
H883 C859 0.949 . S
H884 C861 0.950 . S
H885 C863 0.950 . S
C886 C887 1.349 . S
C886 C888 1.327 . S
C886 H911 0.950 . S
C887 C886 1.349 . S
C887 C903 1.349 . S
C888 C886 1.327 . S
C888 C907 1.429 . S
C888 H912 0.950 . S
C889 C906 1.574 . S
C889 C908 1.368 . S
C889 H913 0.949 . S
H890 C894 0.949 . S
C891 C892 1.349 . S
C891 C893 1.327 . S
C891 H914 0.950 . S
C892 C891 1.349 . S
C892 C904 1.349 . S
C893 C891 1.327 . S
C893 C909 1.429 . S
C893 H915 0.950 . S
C894 H890 0.949 . S
C894 C902 1.574 . S
C894 C910 1.368 . S
H895 C903 0.950 . S
H896 C901 0.950 . S
H897 C902 0.949 . S
H898 C904 0.950 . S
H899 C905 0.950 . S
H900 C906 0.949 . S
C901 H896 0.950 . S
C901 C903 1.327 . S
C901 C907 1.429 . S
C902 C894 1.574 . S
C902 H897 0.949 . S
C902 C908 1.368 . S
C903 C887 1.349 . S
C903 H895 0.950 . S
C903 C901 1.327 . S
C904 C892 1.349 . S
C904 H898 0.950 . S
C904 C905 1.327 . S
C905 H899 0.950 . S
C905 C904 1.327 . S
C905 C909 1.429 . S
C906 C889 1.574 . S
C906 H900 0.949 . S
C906 C910 1.368 . S
C907 C888 1.429 . S
C907 C901 1.429 . S
C907 C908 1.523 . S
C908 C889 1.368 . S
C908 C902 1.368 . S
C908 C907 1.523 . S
C909 C893 1.429 . S
C909 C905 1.429 . S
C909 C910 1.523 . S
C910 C894 1.368 . S
C910 C906 1.368 . S
C910 C909 1.523 . S
H911 C886 0.950 . S
H912 C888 0.950 . S
H913 C889 0.949 . S
H914 C891 0.950 . S
H915 C893 0.950 . S
C916 C917 1.349 . S
C916 C918 1.327 . S
C916 H941 0.950 . S
C917 C916 1.349 . S
C917 C933 1.349 . S
C918 C916 1.327 . S
C918 C937 1.429 . S
C918 H942 0.950 . S
C919 C936 1.574 . S
C919 C938 1.368 . S
C919 H943 0.949 . S
H920 C924 0.949 . S
C921 C922 1.349 . S
C921 C923 1.327 . S
C921 H944 0.950 . S
C922 C921 1.349 . S
C922 C934 1.349 . S
C923 C921 1.327 . S
C923 C939 1.429 . S
C923 H945 0.950 . S
C924 H920 0.949 . S
C924 C932 1.574 . S
C924 C940 1.368 . S
H925 C933 0.950 . S
H926 C931 0.950 . S
H927 C932 0.949 . S
H928 C934 0.950 . S
H929 C935 0.950 . S
H930 C936 0.949 . S
C931 H926 0.950 . S
C931 C933 1.327 . S
C931 C937 1.429 . S
C932 C924 1.574 . S
C932 H927 0.949 . S
C932 C938 1.368 . S
C933 C917 1.349 . S
C933 H925 0.950 . S
C933 C931 1.327 . S
C934 C922 1.349 . S
C934 H928 0.950 . S
C934 C935 1.327 . S
C935 H929 0.950 . S
C935 C934 1.327 . S
C935 C939 1.429 . S
C936 C919 1.574 . S
C936 H930 0.949 . S
C936 C940 1.368 . S
C937 C918 1.429 . S
C937 C931 1.429 . S
C937 C938 1.523 . S
C938 C919 1.368 . S
C938 C932 1.368 . S
C938 C937 1.523 . S
C939 C923 1.429 . S
C939 C935 1.429 . S
C939 C940 1.523 . S
C940 C924 1.368 . S
C940 C936 1.368 . S
C940 C939 1.523 . S
H941 C916 0.950 . S
H942 C918 0.950 . S
H943 C919 0.949 . S
H944 C921 0.950 . S
H945 C923 0.950 . S
C946 C947 1.349 . S
C946 C948 1.327 . S
C946 H971 0.950 . S
C947 C946 1.349 . S
C947 C963 1.349 . S
C948 C946 1.327 . S
C948 C967 1.429 . S
C948 H972 0.950 . S
C949 C966 1.574 . S
C949 C968 1.368 . S
C949 H973 0.949 . S
H950 C954 0.949 . S
C951 C952 1.349 . S
C951 C953 1.327 . S
C951 H974 0.950 . S
C952 C951 1.349 . S
C952 C964 1.349 . S
C953 C951 1.327 . S
C953 C969 1.429 . S
C953 H975 0.950 . S
C954 H950 0.949 . S
C954 C962 1.574 . S
C954 C970 1.368 . S
H955 C963 0.950 . S
H956 C961 0.950 . S
H957 C962 0.949 . S
H958 C964 0.950 . S
H959 C965 0.950 . S
H960 C966 0.949 . S
C961 H956 0.950 . S
C961 C963 1.327 . S
C961 C967 1.429 . S
C962 C954 1.574 . S
C962 H957 0.949 . S
C962 C968 1.368 . S
C963 C947 1.349 . S
C963 H955 0.950 . S
C963 C961 1.327 . S
C964 C952 1.349 . S
C964 H958 0.950 . S
C964 C965 1.327 . S
C965 H959 0.950 . S
C965 C964 1.327 . S
C965 C969 1.429 . S
C966 C949 1.574 . S
C966 H960 0.949 . S
C966 C970 1.368 . S
C967 C948 1.429 . S
C967 C961 1.429 . S
C967 C968 1.523 . S
C968 C949 1.368 . S
C968 C962 1.368 . S
C968 C967 1.523 . S
C969 C953 1.429 . S
C969 C965 1.429 . S
C969 C970 1.523 . S
C970 C954 1.368 . S
C970 C966 1.368 . S
C970 C969 1.523 . S
H971 C946 0.950 . S
H972 C948 0.950 . S
H973 C949 0.949 . S
H974 C951 0.950 . S
H975 C953 0.950 . S
C257 C6 1.100 . S
C262 C103 1.125 . S
C287 C18 1.311 . S
C292 C152 1.301 . S
C322 C178 2.537 . S
C317 C28 2.562 . S
C347 C40 1.604 . S
C352 C226 1.566 . S
C382 C138 2.494 . S
C377 C9 2.414 . S
C412 C106 0.919 . S
C407 C16 0.936 . S
C442 C227 1.825 . S
C437 C30 1.842 . S
C472 C195 1.097 . S
C467 C42 1.115 . S
C497 C4 1.543 . S
C502 C223 1.566 . S
C532 C155 2.509 . S
C527 C33 2.576 . S
C557 C45 2.038 . S
C562 C107 2.031 . S
C587 C21 0.982 . S
C592 C192 0.992 . S
C622 C112 1.144 . S
C617 C57 1.128 . S
C647 C66 1.324 . S
C652 C143 1.311 . S
C677 C76 2.615 . S
C682 C187 2.587 . S
C707 C88 1.529 . S
C712 C235 1.497 . S
C737 C54 2.396 . S
C742 C147 2.472 . S
C772 C115 1.031 . S
C767 C64 1.057 . S
C802 C218 1.717 . S
C797 C78 1.742 . S
C832 C186 1.132 . S
C827 C93 1.151 . S
C857 C52 1.497 . S
C862 C232 1.551 . S
C892 C146 2.495 . S
C887 C81 2.564 . S
C922 C98 2.004 . S
C917 C90 2.009 . S
C947 C69 0.993 . S
C952 C183 1.008 . S
