# Generated by pormake.
# Topology zzz, (3,6)-cn, num edge types: 1
# Building blocks:
#     Node 0, Type 0, BuildingBlock: PAMTOO_clean_linker_0, # of connection points: 3
#     Node 1, Type 0, BuildingBlock: PAMTOO_clean_linker_0, # of connection points: 3
#     Node 2, Type 0, BuildingBlock: PAMTOO_clean_linker_0, # of connection points: 3
#     Node 3, Type 0, BuildingBlock: PAMTOO_clean_linker_0, # of connection points: 3
#     Node 4, Type 0, BuildingBlock: PAMTOO_clean_linker_0, # of connection points: 3
#     Node 5, Type 0, BuildingBlock: PAMTOO_clean_linker_0, # of connection points: 3
#     Node 6, Type 0, BuildingBlock: PAMTOO_clean_linker_0, # of connection points: 3
#     Node 7, Type 0, BuildingBlock: PAMTOO_clean_linker_0, # of connection points: 3
#     Node 8, Type 1, BuildingBlock: KUMBUR_clean_sbu_0, # of connection points: 6
#     Node 9, Type 1, BuildingBlock: KUMBUR_clean_sbu_0, # of connection points: 6
#     Node 10, Type 1, BuildingBlock: KUMBUR_clean_sbu_0, # of connection points: 6
#     Node 11, Type 1, BuildingBlock: KUMBUR_clean_sbu_0, # of connection points: 6
#     Edge 12, Type (0, 1), BuildingBlock: CIFDUS_clean_linker_0, # of connection points: 2
#     Edge 13, Type (0, 1), BuildingBlock: CIFDUS_clean_linker_0, # of connection points: 2
#     Edge 14, Type (0, 1), BuildingBlock: CIFDUS_clean_linker_0, # of connection points: 2
#     Edge 15, Type (0, 1), BuildingBlock: CIFDUS_clean_linker_0, # of connection points: 2
#     Edge 16, Type (0, 1), BuildingBlock: CIFDUS_clean_linker_0, # of connection points: 2
#     Edge 17, Type (0, 1), BuildingBlock: CIFDUS_clean_linker_0, # of connection points: 2
#     Edge 18, Type (0, 1), BuildingBlock: CIFDUS_clean_linker_0, # of connection points: 2
#     Edge 19, Type (0, 1), BuildingBlock: CIFDUS_clean_linker_0, # of connection points: 2
#     Edge 20, Type (0, 1), BuildingBlock: CIFDUS_clean_linker_0, # of connection points: 2
#     Edge 21, Type (0, 1), BuildingBlock: CIFDUS_clean_linker_0, # of connection points: 2
#     Edge 22, Type (0, 1), BuildingBlock: CIFDUS_clean_linker_0, # of connection points: 2
#     Edge 23, Type (0, 1), BuildingBlock: CIFDUS_clean_linker_0, # of connection points: 2
#     Edge 24, Type (0, 1), BuildingBlock: CIFDUS_clean_linker_0, # of connection points: 2
#     Edge 25, Type (0, 1), BuildingBlock: CIFDUS_clean_linker_0, # of connection points: 2
#     Edge 26, Type (0, 1), BuildingBlock: CIFDUS_clean_linker_0, # of connection points: 2
#     Edge 27, Type (0, 1), BuildingBlock: CIFDUS_clean_linker_0, # of connection points: 2
#     Edge 28, Type (0, 1), BuildingBlock: CIFDUS_clean_linker_0, # of connection points: 2
#     Edge 29, Type (0, 1), BuildingBlock: CIFDUS_clean_linker_0, # of connection points: 2
#     Edge 30, Type (0, 1), BuildingBlock: CIFDUS_clean_linker_0, # of connection points: 2
#     Edge 31, Type (0, 1), BuildingBlock: CIFDUS_clean_linker_0, # of connection points: 2
#     Edge 32, Type (0, 1), BuildingBlock: CIFDUS_clean_linker_0, # of connection points: 2
#     Edge 33, Type (0, 1), BuildingBlock: CIFDUS_clean_linker_0, # of connection points: 2
#     Edge 34, Type (0, 1), BuildingBlock: CIFDUS_clean_linker_0, # of connection points: 2
#     Edge 35, Type (0, 1), BuildingBlock: CIFDUS_clean_linker_0, # of connection points: 2
# Relax obj value: 0.194
# Max RMSD: 0.172
# Mean RMSD: 0.116
data_MOF--net-zzz--node1-KUMBUR_clean_sbu_0--node2-PAMTOO_clean_linker_0--edge1-CIFDUS_clean_linker_0
_symmetry_space_group_name_H-M    P1
_symmetry_Int_Tables_number       1
_symmetry_cell_setting            triclinic
loop_
_symmetry_equiv_pos_as_xyz
'x, y, z'
_cell_length_a     43.724847
_cell_length_b     43.825951
_cell_length_c     12.919728
_cell_angle_alpha  91.096543
_cell_angle_beta   89.967322
_cell_angle_gamma 89.93127
loop_
_atom_site_label
_atom_site_type_symbol
_atom_site_fract_x
_atom_site_fract_y
_atom_site_fract_z
_atom_type_partial_charge
H0 H 0.84118 0.59075 0.22122 0.0
H1 H 0.75084 0.59024 0.09414 0.0
H2 H 0.76956 0.5412 0.37401 0.0
H3 H 0.70766 0.515 0.2175 0.0
C4 C 0.71194 0.53552 0.17043 0.0
O5 O 0.72545 0.5577 0.23517 0.0
H6 H 0.72809 0.5284 0.10785 0.0
C7 C 0.81729 0.58459 0.229 0.0
C8 C 0.80853 0.566 0.3112 0.0
C9 C 0.79681 0.59321 0.151 0.0
C10 C 0.76637 0.58386 0.15526 0.0
C11 C 0.75602 0.56513 0.2344 0.0
C12 C 0.77733 0.55572 0.31251 0.0
H13 H 0.9745 0.84602 0.24739 0.0
H14 H 0.97049 0.75243 0.14161 0.0
H15 H 0.04031 0.78131 0.3567 0.0
H16 H 0.05878 0.72811 0.15525 0.0
C17 C 0.03387 0.72465 0.14299 0.0
O18 O 1.01852 0.73397 0.23402 0.0
H19 H 0.0275 0.73979 0.0782 0.0
C20 C 0.98203 0.82253 0.25289 0.0
C21 C 1.00655 0.8163 0.31942 0.0
C22 C 0.97062 0.80032 0.18251 0.0
C23 C 0.98017 0.76995 0.19207 0.0
C24 C 1.00633 0.76282 0.24854 0.0
C25 C 1.01989 0.7863 0.31283 0.0
H26 H 0.71393 0.98591 0.26188 0.0
H27 H 0.80771 0.97986 0.16201 0.0
H28 H 0.78531 0.02556 0.44959 0.0
H29 H 0.85313 0.05055 0.32299 0.0
C30 C 0.84439 0.0341 0.26363 0.0
O31 O 0.83085 1.00975 0.31482 0.0
H32 H 0.82685 0.04684 0.21918 0.0
C33 C 0.7381 0.98894 0.27775 0.0
C34 C 0.74666 1.00442 0.36945 0.0
C35 C 0.75973 0.98134 0.20046 0.0
C36 C 0.79086 0.98607 0.22032 0.0
C37 C 0.80042 1.00256 0.30762 0.0
C38 C 0.77819 1.01214 0.38265 0.0
H39 H 0.58581 0.71333 0.30358 0.0
H40 H 0.58624 0.79892 0.15004 0.0
H41 H 0.56794 0.79596 0.47904 0.0
H42 H 0.54003 0.86143 0.35133 0.0
C43 C 0.54994 0.84999 0.28154 0.0
O44 O 0.57532 0.83304 0.31286 0.0
H45 H 0.5318 0.83458 0.25024 0.0
C46 C 0.58405 0.73805 0.30816 0.0
C47 C 0.57699 0.75192 0.40319 0.0
C48 C 0.58723 0.75471 0.2176 0.0
C49 C 0.58383 0.78635 0.22067 0.0
C50 C 0.57673 0.80175 0.31378 0.0
C51 C 0.57306 0.78437 0.40634 0.0
H52 H 0.21693 0.46766 0.12636 0.0
H53 H 0.30606 0.47057 0.26389 0.0
H54 H 0.28447 0.53 1.01157 0.0
H55 H 0.32203 0.52653 0.30339 0.0
C56 C 0.33685 0.53128 0.23547 0.0
O57 O 0.3282 0.51297 0.1504 0.0
H58 H 0.3326 0.55552 0.21618 0.0
C59 C 0.24029 0.47589 0.12457 0.0
C60 C 0.24798 0.49847 0.05328 0.0
C61 C 0.26071 0.46616 0.20132 0.0
C62 C 0.29039 0.47786 0.20418 0.0
C63 C 0.29925 0.50122 0.13822 0.0
C64 C 0.27782 0.51189 0.06272 0.0
H65 H 0.04644 0.20635 0.17229 0.0
H66 H 0.04225 0.29747 0.29955 0.0
H67 H 0.03612 0.28293 0.96989 0.0
H68 H 0.06829 0.35689 0.08628 0.0
C69 C 0.05792 0.34795 0.158 0.0
O70 O 0.03623 0.32563 0.12949 0.0
H71 H 0.07702 0.33733 0.20152 0.0
C72 C 0.04635 0.23077 0.15989 0.0
C73 C 0.04283 0.24139 0.05865 0.0
C74 C 0.04551 0.25079 0.2463 0.0
C75 C 0.04349 0.28225 0.23247 0.0
C76 C 0.04116 0.29457 0.13432 0.0
C77 C 0.04014 0.27393 0.04612 0.0
H78 H 0.35856 0.07837 0.19102 0.0
H79 H 0.26553 0.07761 0.30045 0.0
H80 H 0.28926 0.03053 0.01728 0.0
H81 H 0.20603 0.04868 0.07933 0.0
C82 C 0.21701 0.0563 0.15282 0.0
O83 O 0.24496 0.04096 0.16164 0.0
H84 H 0.22093 0.08132 0.14717 0.0
C85 C 0.33457 0.07343 0.17802 0.0
C86 C 0.32657 0.0562 0.0892 0.0
C87 C 0.31312 0.07999 0.25706 0.0
C88 C 0.28233 0.07241 0.24092 0.0
C89 C 0.2733 0.0543 0.15668 0.0
C90 C 0.29558 0.04597 0.08006 0.0
H91 H 0.46466 0.33659 0.09172 0.0
H92 H 0.4788 0.25482 0.26169 0.0
H93 H 0.53885 0.27614 1.00877 0.0
H94 H 0.52802 0.19522 0.07492 0.0
C95 C 0.51506 0.2052 0.1414 0.0
O96 O 0.52525 0.23517 0.15763 0.0
H97 H 0.49046 0.20505 0.11937 0.0
C98 C 0.477 0.31542 0.10166 0.0
C99 C 0.50298 0.30976 0.03986 0.0
C100 C 0.46899 0.29672 0.18471 0.0
C101 C 0.48449 0.2691 0.19699 0.0
C102 C 0.50893 0.26075 0.13245 0.0
C103 C 0.51855 0.28135 0.05374 0.0
Tb104 Tb 0.04967 1.01686 0.7723 0.0
C105 C 0.97849 0.98502 0.44214 0.0
C106 C 1.00765 0.98638 0.28286 0.0
C107 C 0.97184 0.94514 0.30963 0.0
C108 C 1.00025 0.99892 0.38161 0.0
C109 C 0.96324 0.95855 0.40474 0.0
C110 C 0.99421 0.9589 0.24916 0.0
C111 C 0.93146 0.96058 0.55666 0.0
N112 N 0.9716 0.9978 0.53613 0.0
C113 C 0.94763 0.98623 0.59191 0.0
C114 C 0.93952 0.94643 0.46334 0.0
Tb115 Tb 0.99832 0.04166 0.58229 0.0
N116 N 1.01219 0.02595 0.41529 0.0
C117 C 0.02743 0.04364 0.34505 0.0
C118 C 0.02707 1.00262 0.21828 0.0
C119 C 0.03645 0.0317 0.24879 0.0
H120 H 0.94001 0.99642 0.66344 0.0
H121 H 0.05021 0.04519 0.19746 0.0
H122 H 0.99994 0.94884 0.17433 0.0
H123 H 0.9128 0.95165 0.60206 0.0
H124 H 0.03313 0.06714 0.36255 0.0
H125 H 1.0156 0.09736 0.08315 0.0
H126 H 0.03344 0.99372 0.14242 0.0
H127 H 0.11945 0.99418 0.69899 0.0
H128 H 1.00645 0.06171 0.94409 0.0
H129 H 0.17295 1.00708 0.73727 0.0
H130 H 0.96083 0.9245 0.2811 0.0
H131 H 0.06806 0.11255 0.13008 0.0
H132 H 0.12389 0.10815 0.09789 0.0
H133 H 0.92716 0.92633 0.43691 0.0
H134 H 0.16659 0.08451 1.00239 0.0
N135 N 0.05389 0.05324 0.90687 0.0
C136 C 0.02994 0.0659 0.96238 0.0
C137 C 0.06441 0.09586 0.06834 0.0
C138 C 0.08891 0.0829 0.01426 0.0
C139 C 0.03484 0.08727 0.04226 0.0
C140 C 0.08297 0.0613 0.93377 0.0
H141 H 0.18507 0.04685 0.86897 0.0
N142 N 0.10064 0.02746 0.80401 0.0
C143 C 0.15468 1.01907 0.77743 0.0
C144 C 0.10702 0.04834 0.87957 0.0
C145 C 0.1242 1.01199 0.75562 0.0
C146 C 0.16141 0.04148 0.85171 0.0
C147 C 0.13754 0.05613 0.90479 0.0
O148 O 0.07609 0.98587 0.85816 0.0
O149 O 1.01782 1.00114 0.65112 0.0
O150 O 0.97073 0.03485 0.72108 0.0
O151 O 1.00402 1.01844 0.84896 0.0
O152 O 0.06169 0.98515 0.64481 0.0
O153 O 0.02796 0.97956 0.84179 0.0
O154 O 0.95204 0.05161 0.55378 0.0
O155 O 0.03122 0.05745 0.7002 0.0
O156 O 0.07861 0.02885 0.63753 0.0
O157 O 0.04512 0.05543 0.53295 0.0
O158 O 0.99269 0.08216 0.68391 0.0
O159 O 0.98773 0.07822 0.48587 0.0
C160 C 0.0351 0.98178 0.60359 0.0
C161 C 0.05826 0.93582 0.82039 0.0
C162 C 0.03539 0.88629 0.77568 0.0
C163 C 0.0356 0.91377 0.83467 0.0
C164 C 0.05898 0.88129 0.70288 0.0
C165 C 0.08244 0.92939 0.75162 0.0
C166 C 0.08258 0.90241 0.69276 0.0
C167 C 0.97614 0.02578 0.81635 0.0
C168 C 0.0537 0.96673 0.86562 0.0
C169 C 0.14338 0.07795 0.98304 0.0
C170 C 0.1191 0.09131 0.03762 0.0
C171 C 1.01775 0.08155 0.73471 0.0
C172 C 0.94517 0.105 0.556 0.0
C173 C 0.96084 0.13259 0.54718 0.0
C174 C 0.95362 0.15797 0.61051 0.0
C175 C 0.92851 0.15641 0.67777 0.0
C176 C 0.91998 0.1037 0.62367 0.0
C177 C 0.9116 0.12939 0.6834 0.0
C178 C 0.07298 0.04497 0.55398 0.0
C179 C 0.95866 0.077 0.50853 0.0
H180 H 1.01812 0.91858 0.892 0.0
H181 H 0.05941 0.86116 0.65319 0.0
H182 H 0.10055 0.9457 0.73974 0.0
H183 H 0.10071 0.89815 0.63726 0.0
H184 H 0.97957 0.13398 0.49246 0.0
H185 H 0.92215 0.17586 0.72608 0.0
H186 H 0.90739 0.08266 0.63285 0.0
H187 H 0.89237 0.12812 0.73592 0.0
Tb188 Tb 0.54837 0.0629 0.80771 0.0
C189 C 0.55694 0.93714 0.59626 0.0
C190 C 0.59061 0.94415 0.44989 0.0
C191 C 0.58569 0.89401 0.52459 0.0
C192 C 0.5696 0.95616 0.5235 0.0
C193 C 0.56436 0.90573 0.59609 0.0
C194 C 0.59886 0.9132 0.45189 0.0
C195 C 0.52708 0.89894 0.73134 0.0
N196 N 0.5361 0.949 0.66367 0.0
C197 C 0.52036 0.93008 0.72847 0.0
C198 C 0.54945 0.88676 0.66575 0.0
Tb199 Tb 0.52575 1.00027 0.65084 0.0
N200 N 0.56084 0.98605 0.52301 0.0
C201 C 0.57196 1.00452 0.44677 0.0
C202 C 0.6024 0.96336 0.37492 0.0
C203 C 0.59291 0.9936 0.37319 0.0
H204 H 0.50305 0.93916 0.78009 0.0
H205 H 0.60188 1.0087 0.31523 0.0
H206 H 0.61492 0.90373 0.39596 0.0
H207 H 0.51503 0.88438 0.78439 0.0
H208 H 0.56659 0.0283 0.44291 0.0
H209 H 0.47204 0.05326 0.14189 0.0
H210 H 0.61855 0.95501 0.31735 0.0
H211 H 0.57175 0.12508 0.68597 0.0
H212 H 0.50988 0.03508 0.02007 0.0
H213 H 0.55775 0.17943 0.67881 0.0
H214 H 0.5917 0.87001 0.52351 0.0
H215 H 0.45126 0.10539 0.13055 0.0
H216 H 0.45197 0.15598 0.04576 0.0
H217 H 0.55454 0.86257 0.66783 0.0
H218 H 0.47492 0.19026 0.91925 0.0
N219 N 0.51241 0.07641 0.93335 0.0
C220 C 0.50243 0.05815 1.01186 0.0
C221 C 0.46841 0.09763 0.07548 0.0
C222 C 0.47945 0.11686 0.99927 0.0
C223 C 0.48018 0.06828 0.08231 0.0
C224 C 0.50185 0.10564 0.92913 0.0
H225 H 0.51477 0.19942 0.78447 0.0
N226 N 0.53684 0.11393 0.79434 0.0
C227 C 0.54524 0.16436 0.72894 0.0
C228 C 0.51441 0.12494 0.85718 0.0
C229 C 0.55317 0.13352 0.73362 0.0
C230 C 0.52091 0.1755 0.78826 0.0
C231 C 0.50548 0.15592 0.85463 0.0
O232 O 0.58702 0.04815 0.89026 0.0
O233 O 0.56475 0.02636 0.70526 0.0
O234 O 0.54829 0.98116 0.789 0.0
O235 O 0.54665 0.02191 0.90678 0.0
O236 O 0.5824 0.06866 0.68377 0.0
O237 O 0.57587 0.09549 0.88626 0.0
O238 O 0.49715 0.96807 0.57535 0.0
O239 O 0.50927 0.03678 0.75382 0.0
O240 O 0.52834 0.08215 0.66482 0.0
O241 O 0.52805 0.04063 0.54985 0.0
O242 O 0.4925 0.99431 0.77719 0.0
O243 O 0.48709 1.01569 0.56973 0.0
C244 C 0.58495 0.04059 0.65429 0.0
C245 C 0.62757 0.08161 0.85611 0.0
C246 C 0.67694 0.0606 0.80006 0.0
C247 C 0.65004 0.0589 0.85996 0.0
C248 C 0.68112 0.08604 0.73677 0.0
C249 C 0.63291 0.10742 0.79572 0.0
C250 C 0.6594 0.10941 0.73583 0.0
C251 C 0.55027 0.99225 0.88506 0.0
C252 C 0.59727 0.07574 0.90296 0.0
C253 C 0.48228 0.16666 0.92091 0.0
C254 C 0.46926 0.14715 0.99302 0.0
C255 C 0.4895 0.02235 0.8061 0.0
C256 C 0.44595 0.98327 0.60716 0.0
C257 C 0.42386 1.00631 0.60223 0.0
C258 C 0.39715 1.00552 0.66336 0.0
C259 C 0.39274 0.98055 0.72867 0.0
C260 C 0.44041 0.958 0.66994 0.0
C261 C 0.41407 0.95684 0.73073 0.0
C262 C 0.52583 0.07051 0.56952 0.0
C263 C 0.47617 0.98828 0.55871 0.0
H264 H 0.64628 0.03995 0.91095 0.0
H265 H 0.70124 0.08812 0.68866 0.0
H266 H 0.61633 0.12568 0.79227 0.0
H267 H 0.66298 0.12904 0.68771 0.0
H268 H 0.42781 0.02479 0.54947 0.0
H269 H 0.37281 0.97912 0.77794 0.0
H270 H 0.45679 0.93959 0.67475 0.0
H271 H 0.41033 0.93765 0.78069 0.0
Tb272 Tb 0.55798 0.52331 0.61199 0.0
C273 C 0.42428 0.53456 0.73289 0.0
C274 C 0.40836 0.57396 0.61616 0.0
C275 C 0.37038 0.54035 0.68912 0.0
C276 C 0.43158 0.55926 0.67331 0.0
C277 C 0.39359 0.52469 0.74097 0.0
C278 C 0.37777 0.5649 0.62657 0.0
C279 C 0.41082 0.48394 0.8487 0.0
N280 N 0.44741 0.51918 0.77861 0.0
C281 C 0.44078 0.49448 0.83846 0.0
C282 C 0.38709 0.49908 0.79968 0.0
Tb283 Tb 0.49525 0.54131 0.77486 0.0
N284 N 0.46165 0.56664 0.66253 0.0
C285 C 0.4695 0.58579 0.58338 0.0
C286 C 0.41663 0.5961 0.54542 0.0
C287 C 0.44741 0.60144 0.52708 0.0
H288 H 0.45832 0.48299 0.88146 0.0
H289 H 0.45426 0.61681 0.46671 0.0
H290 H 0.35977 0.57609 0.58384 0.0
H291 H 0.40603 0.46435 0.89581 0.0
H292 H 0.49265 0.58813 0.55731 0.0
H293 H 0.65093 0.48245 0.8493 0.0
H294 H 0.39956 0.6077 0.49981 0.0
H295 H 0.55956 0.57235 0.41796 0.0
H296 H 0.60006 0.4809 0.77084 0.0
H297 H 0.59476 0.61093 0.34801 0.0
H298 H 0.34675 0.53315 0.69478 0.0
H299 H 0.68652 0.52447 0.81035 0.0
H300 H 0.69808 0.57089 0.70622 0.0
H301 H 0.36386 0.49087 0.80778 0.0
H302 H 0.68295 0.60569 0.56783 0.0
N303 N 0.60543 0.52251 0.68928 0.0
C304 C 0.61488 0.49962 0.75247 0.0
C305 C 0.664 0.52402 0.77536 0.0
C306 C 0.65514 0.54619 0.70511 0.0
C307 C 0.64401 0.50026 0.79732 0.0
C308 C 0.6255 0.54456 0.66209 0.0
H309 H 0.64471 0.62029 0.432 0.0
N310 N 0.58897 0.56044 0.54244 0.0
C311 C 0.60124 0.598 0.41506 0.0
C312 C 0.61711 0.56404 0.58494 0.0
C313 C 0.58146 0.57601 0.45455 0.0
C314 C 0.62941 0.60328 0.46283 0.0
C315 C 0.6379 0.58585 0.54775 0.0
O316 O 0.56738 0.51182 0.45736 0.0
O317 O 0.50852 0.52002 0.63098 0.0
O318 O 0.49923 0.49081 0.76221 0.0
O319 O 0.54947 0.48265 0.71175 0.0
O320 O 0.52366 0.53141 0.48904 0.0
O321 O 0.57506 0.4793 0.57625 0.0
O322 O 0.4958 0.52407 0.9252 0.0
O323 O 0.5437 0.52963 0.7694 0.0
O324 O 0.55632 0.57447 0.63658 0.0
O325 O 0.51165 0.58681 0.72922 0.0
O326 O 0.53219 0.56528 0.86216 0.0
O327 O 0.46771 0.56271 0.88817 0.0
C328 C 0.49947 0.52517 0.54005 0.0
C329 C 0.55583 0.46186 0.41427 0.0
C330 C 0.51443 0.42527 0.39355 0.0
C331 C 0.53301 0.44347 0.45784 0.0
C332 C 0.51885 0.42575 0.28564 0.0
C333 C 0.55997 0.46188 0.30667 0.0
C334 C 0.54149 0.44394 0.2427 0.0
C335 C 0.52363 0.47277 0.75463 0.0
C336 C 0.5734 0.48366 0.47723 0.0
C337 C 0.66678 0.58883 0.59432 0.0
C338 C 0.67538 0.56904 0.67314 0.0
C339 C 0.55504 0.54863 0.8338 0.0
C340 C 0.49308 0.56316 0.04942 0.0
C341 C 0.50084 0.59391 0.03794 0.0
C342 C 0.521 0.60821 0.10677 0.0
C343 C 0.53201 0.59222 0.19226 0.0
C344 C 0.50382 0.54738 0.1357 0.0
C345 C 0.52305 0.56201 0.20726 0.0
C346 C 0.53651 0.59485 0.6762 0.0
C347 C 0.47916 0.54634 0.96217 0.0
H348 H 0.52963 0.44327 0.54086 0.0
H349 H 0.50554 0.41101 0.23489 0.0
H350 H 0.57722 0.47623 0.27203 0.0
H351 H 0.54502 0.44396 0.15986 0.0
H352 H 0.49328 0.60619 0.97048 0.0
H353 H 0.54744 0.6031 0.24698 0.0
H354 H 0.49837 0.52349 0.14531 0.0
H355 H 0.53168 0.54959 0.27267 0.0
Tb356 Tb 0.04489 0.55788 0.58559 0.0
C357 C 0.03568 0.43669 0.79997 0.0
C358 C 1.01006 0.40355 0.67621 0.0
C359 C 0.04599 0.3821 0.79824 0.0
C360 C 1.01559 0.433 0.71869 0.0
C361 C 0.0507 0.41124 0.84214 0.0
C362 C 0.02574 0.37827 0.71521 0.0
C363 C 0.07245 0.44489 0.97221 0.0
N364 N 0.03968 0.46514 0.8403 0.0
C365 C 0.05693 0.46934 0.92834 0.0
C366 C 0.0696 0.41575 0.9283 0.0
Tb367 Tb 1.01457 0.50437 0.7595 0.0
N368 N 1.0009 0.45806 0.68303 0.0
C369 C 0.9787 0.45442 0.60867 0.0
C370 C 0.9886 0.40027 0.59685 0.0
C371 C 0.97261 0.42576 0.56392 0.0
H372 H 0.05956 0.49193 0.96222 0.0
H373 H 0.95562 0.42343 0.50339 0.0
H374 H 0.02194 0.35558 0.68294 0.0
H375 H 0.08684 0.44855 0.03911 0.0
H376 H 0.96591 0.47324 0.57926 0.0
H377 H 0.10354 0.64051 0.83777 0.0
H378 H 0.98384 0.37812 0.56181 0.0
H379 H 0.99989 0.56865 0.38228 0.0
H380 H 0.09077 0.59007 0.7743 0.0
H381 H 0.97655 0.61184 0.29131 0.0
H382 H 0.05748 0.36232 0.82907 0.0
H383 H 0.08011 0.68598 0.76083 0.0
H384 H 0.0456 0.708 0.62764 0.0
H385 H 0.08173 0.39687 0.96232 0.0
H386 H 1.01114 0.70029 0.4792 0.0
N387 N 0.05944 0.60478 0.6569 0.0
C388 C 0.08026 0.60878 0.73568 0.0
C389 C 0.07434 0.66347 0.73071 0.0
C390 C 0.05393 0.65972 0.64851 0.0
C391 C 0.08765 0.63789 0.774 0.0
C392 C 0.04694 0.62983 0.6127 0.0
H393 H 0.98553 0.66462 0.35306 0.0
N394 N 1.02142 0.59669 0.49756 0.0
C395 C 0.99068 0.616 0.35854 0.0
C396 C 0.02726 0.62561 0.53048 0.0
C397 C 1.00395 0.59165 0.41052 0.0
C398 C 0.99573 0.64578 0.39388 0.0
C399 C 1.01438 0.65094 0.48024 0.0
O400 O 0.06073 0.56558 0.43493 0.0
O401 O 0.03667 0.5097 0.61241 0.0
O402 O 0.0648 0.49806 0.75352 0.0
O403 O 0.08176 0.54488 0.69655 0.0
O404 O 0.0265 0.52441 0.47004 0.0
O405 O 0.09132 0.54941 0.55116 0.0
O406 O 1.00013 0.49595 0.91097 0.0
O407 O 0.02243 0.55262 0.73281 0.0
O408 O 0.99477 0.5652 0.59175 0.0
O409 O 0.97711 0.519 0.65266 0.0
O410 O 0.03146 0.53799 0.87673 0.0
O411 O 0.9677 0.50882 0.79498 0.0
C412 C 0.02806 0.50016 0.52387 0.0
C413 C 0.09286 0.52491 0.38573 0.0
C414 C 0.11537 0.474 0.36035 0.0
C415 C 0.10999 0.50022 0.42293 0.0
C416 C 0.10075 0.47213 0.26292 0.0
C417 C 0.07954 0.5226 0.28703 0.0
C418 C 0.0829 0.4961 0.2274 0.0
C419 C 0.08675 0.51876 0.74471 0.0
C420 C 0.08651 0.552 0.45233 0.0
C421 C 1.02091 0.6806 0.5165 0.0
C422 C 0.04056 0.68497 0.60078 0.0
C423 C 0.03028 0.56217 0.82236 0.0
C424 C 0.96461 0.53327 0.96036 0.0
C425 C 0.94832 0.55814 0.92048 0.0
C426 C 0.94104 0.58361 0.98397 0.0
C427 C 0.95266 0.58467 0.08593 0.0
C428 C 0.97514 0.53472 0.06296 0.0
C429 C 0.96969 0.56052 0.12441 0.0
C430 C 0.97235 0.54514 0.60419 0.0
C431 C 0.9731 0.50689 0.89383 0.0
H432 H 0.11936 0.50174 0.50027 0.0
H433 H 0.1042 0.45293 0.21072 0.0
H434 H 0.06591 0.54106 0.25667 0.0
H435 H 0.07221 0.49444 0.15207 0.0
H436 H 0.94065 0.55733 0.84081 0.0
H437 H 0.94706 0.60323 0.13889 0.0
H438 H 0.98804 0.51604 0.09527 0.0
H439 H 0.9779 0.56133 0.20333 0.0
H440 H 0.1672 0.09052 0.21057 0.0
H441 H 0.21435 1.00826 0.29359 0.0
H442 H 0.1754 0.99835 0.42572 0.0
H443 H 0.12632 1.01213 0.5149 0.0
H444 H 0.07867 0.09367 0.42525 0.0
H445 H 0.11868 0.10437 0.29916 0.0
C446 C 0.1691 0.07049 0.258 0.0
C447 C 0.19431 0.05056 0.24235 0.0
C448 C 0.1461 0.06459 0.33277 0.0
C449 C 0.19584 0.02445 0.30415 0.0
C450 C 0.17333 1.01867 0.37979 0.0
C451 C 0.12482 0.03246 0.46878 0.0
C452 C 0.09904 0.052 0.48069 0.0
C453 C 0.14817 0.03848 0.39472 0.0
C454 C 0.0977 0.07793 0.41811 0.0
C455 C 0.12079 0.08417 0.34573 0.0
H456 H 0.52538 0.14338 0.14421 0.0
H457 H 0.51079 0.21988 0.35269 0.0
H458 H 0.51112 0.18551 0.50022 0.0
H459 H 0.51424 0.13308 0.57064 0.0
H460 H 0.52924 0.05693 0.36051 0.0
H461 H 0.52949 0.09138 0.21494 0.0
C462 C 0.52265 0.15265 0.22204 0.0
C463 C 0.5187 0.18458 0.23626 0.0
C464 C 0.52261 0.13256 0.30705 0.0
C465 C 0.51443 0.19576 0.33823 0.0
C466 C 0.51445 0.17594 0.42306 0.0
C467 C 0.51828 0.12397 0.49363 0.0
C468 C 0.52298 0.09209 0.47923 0.0
C469 C 0.51842 0.14421 0.40865 0.0
C470 C 0.5263 0.08106 0.37651 0.0
C471 C 0.52631 0.1009 0.29219 0.0
H472 H 0.36184 0.49733 0.39556 0.0
H473 H 0.3879 0.55829 0.15321 0.0
H474 H 0.43981 0.5613 0.22395 0.0
H475 H 0.47703 0.54995 0.36299 0.0
H476 H 0.45272 0.48659 0.59933 0.0
H477 H 0.40136 0.48127 0.5241 0.0
C478 C 0.37905 0.51075 0.35681 0.0
C479 C 0.37061 0.52763 0.26842 0.0
C480 C 0.40918 0.51247 0.39865 0.0
C481 C 0.39348 0.54496 0.22037 0.0
C482 C 0.42324 0.54686 0.26155 0.0
C483 C 0.4606 0.53476 0.3977 0.0
C484 C 0.46846 0.51993 0.49054 0.0
C485 C 0.43123 0.53128 0.35194 0.0
C486 C 0.44698 0.49964 0.53182 0.0
C487 C 0.41761 0.49631 0.48767 0.0
H488 H 0.07454 0.3691 0.35531 0.0
H489 H 1.01448 0.39078 0.10305 0.0
H490 H 0.99987 0.43861 0.19228 0.0
H491 H 1.00553 0.4759 0.34018 0.0
H492 H 0.06687 0.45464 0.58941 0.0
H493 H 0.07926 0.40568 0.50476 0.0
C494 C 0.05766 0.38388 0.32065 0.0
C495 C 0.04507 0.37545 0.22257 0.0
C496 C 0.04963 0.41185 0.37243 0.0
C497 C 0.02399 0.39582 0.17885 0.0
C498 C 1.01584 0.42349 0.22984 0.0
C499 C 1.02136 0.4604 0.37675 0.0
C500 C 0.03453 0.46907 0.47358 0.0
C501 C 0.02865 0.43198 0.32642 0.0
C502 C 0.05556 0.44865 0.51734 0.0
C503 C 0.06284 0.42053 0.46815 0.0
H504 H 0.84797 0.03773 0.05141 0.0
H505 H 0.90195 1.0118 0.314 0.0
H506 H 0.94723 1.00625 0.20223 0.0
H507 H 0.97267 1.01166 0.02841 0.0
H508 H 0.91687 0.03947 0.77055 0.0
H509 H 0.87215 0.04118 0.88058 0.0
C510 C 0.86948 0.03023 0.08414 0.0
C511 C 0.87116 0.02489 0.19154 0.0
C512 C 0.89566 0.02767 0.01953 0.0
C513 C 0.8996 1.01563 0.2318 0.0
C514 C 0.9257 1.0127 0.16765 0.0
C515 C 0.95073 1.01791 0.99596 0.0
C516 C 0.94885 0.02536 0.88944 0.0
C517 C 0.92425 1.01914 0.06115 0.0
C518 C 0.91979 0.03349 0.85085 0.0
C519 C 0.8938 0.03452 0.91422 0.0
H520 H 0.54706 0.9133 0.29676 0.0
H521 H 0.56635 0.84084 0.07648 0.0
H522 H 0.5707 0.87786 0.93832 0.0
H523 H 0.56602 0.93087 0.87644 0.0
H524 H 0.54483 1.00322 0.09575 0.0
H525 H 0.54461 0.96673 0.23577 0.0
C526 C 0.55297 0.90561 0.21907 0.0
C527 C 0.55725 0.87395 0.19886 0.0
C528 C 0.55467 0.92724 0.13847 0.0
C529 C 0.56398 0.86476 0.09631 0.0
C530 C 0.56606 0.88608 0.01642 0.0
C531 C 0.56098 0.93875 0.95445 0.0
C532 C 0.55414 0.97004 0.97298 0.0
C533 C 0.56094 0.91737 0.03596 0.0
C534 C 0.54932 0.97952 0.0767 0.0
C535 C 0.54937 0.9585 0.1578 0.0
H536 H 0.65866 0.50268 0.14213 0.0
H537 H 0.69776 0.59006 0.07259 0.0
H538 H 0.65326 0.60205 0.96536 0.0
H539 H 0.60372 0.58654 0.88212 0.0
H540 H 0.56522 0.49895 0.95248 0.0
H541 H 0.60803 0.48863 0.06913 0.0
C542 C 0.65723 0.52469 0.10554 0.0
C543 C 0.68178 0.54561 0.11808 0.0
C544 C 0.63143 0.53135 0.04278 0.0
C545 C 0.67943 0.57361 0.06683 0.0
C546 C 0.65385 0.58043 1.00461 0.0
C547 C 0.60478 0.56519 0.923 0.0
C548 C 0.5816 0.5431 0.90548 0.0
C549 C 0.62985 0.55931 0.99041 0.0
C550 C 0.58301 0.51596 0.96175 0.0
C551 C 0.60754 0.51012 0.02903 0.0
H552 H 1.00557 0.70143 0.96432 0.0
H553 H 0.05249 0.6716 0.23754 0.0
H554 H 0.05521 0.61954 0.16439 0.0
H555 H 0.04857 0.58306 0.01505 0.0
H556 H 0.99853 0.61189 0.74712 0.0
H557 H 0.99308 0.66319 0.82436 0.0
C558 C 1.0158 0.68344 1.00921 0.0
C559 C 0.02875 0.69092 0.10762 0.0
C560 C 1.01754 0.65328 0.96565 0.0
C561 C 0.04208 0.66691 0.16286 0.0
C562 C 0.04394 0.63704 0.12013 0.0
C563 C 0.03648 0.60056 0.97321 0.0
C564 C 0.02547 0.59366 0.87184 0.0
C565 C 0.03256 0.63006 0.02026 0.0
C566 C 1.00871 0.61657 0.82209 0.0
C567 C 1.00524 0.64599 0.86726 0.0
H568 H 0.99947 0.26658 0.37372 0.0
H569 H 0.07773 0.20692 0.34836 0.0
H570 H 0.05937 0.17794 0.49628 0.0
H571 H 1.01521 0.16258 0.59869 0.0
H572 H 0.93266 0.21644 0.59341 0.0
H573 H 0.95926 0.25616 0.49904 0.0
C574 C 1.01311 0.24796 0.40318 0.0
C575 C 0.03968 0.23854 0.35008 0.0
C576 C 1.00146 0.23045 0.48334 0.0
C577 C 0.05703 0.21422 0.3878 0.0
C578 C 0.04651 0.19772 0.47205 0.0
C579 C 1.00335 0.18347 0.5791 0.0
C580 C 0.97176 0.18611 0.59839 0.0
C581 C 1.01781 0.2045 0.51563 0.0
C582 C 0.95683 0.21365 0.57744 0.0
C583 C 0.97192 0.23611 0.52188 0.0
H584 H 0.29029 0.05523 0.4316 0.0
H585 H 0.36129 0.1159 0.32762 0.0
H586 H 0.39126 0.10471 0.48209 0.0
H587 H 0.40307 0.06593 0.61113 0.0
H588 H 0.33478 0.99812 0.68175 0.0
H589 H 0.29719 0.02593 0.58478 0.0
C590 C 0.3116 0.06736 0.44388 0.0
C591 C 0.32412 0.08533 0.36509 0.0
C592 C 0.32948 0.05918 0.52835 0.0
C593 C 0.35163 0.101 0.38498 0.0
C594 C 0.36882 0.0945 0.47322 0.0
C595 C 0.37991 0.05726 0.60576 0.0
C596 C 0.37261 0.02859 0.64717 0.0
C597 C 0.35909 0.0715 0.53982 0.0
C598 C 0.34179 1.01939 0.648 0.0
C599 C 0.32014 0.03516 0.59088 0.0
H600 H 0.48479 0.29635 0.38779 0.0
H601 H 0.41526 0.33052 0.18476 0.0
H602 H 0.41664 0.37985 0.27473 0.0
H603 H 0.45451 0.41588 0.34848 0.0
H604 H 0.52884 0.3816 0.53141 0.0
H605 H 0.50829 0.33017 0.51659 0.0
C606 C 0.46854 0.31392 0.36699 0.0
C607 C 0.45219 0.31108 0.27344 0.0
C608 C 0.4714 0.34286 0.41394 0.0
C609 C 0.42959 0.33302 0.25279 0.0
C610 C 0.43081 0.36151 0.3031 0.0
C611 C 0.46509 0.39733 0.38994 0.0
C612 C 0.49384 0.40195 0.43626 0.0
C613 C 0.45434 0.36748 0.37439 0.0
C614 C 0.50704 0.37833 0.49302 0.0
C615 C 0.4955 0.34875 0.48313 0.0
H616 H 0.22617 0.41409 0.20601 0.0
H617 H 0.26524 0.4842 0.40285 0.0
H618 H 0.21981 0.48457 0.51054 0.0
H619 H 0.16472 0.4822 0.49248 0.0
H620 H 0.12356 0.41345 0.29327 0.0
H621 H 0.17413 0.39488 0.24473 0.0
C622 C 0.22543 0.42799 0.27638 0.0
C623 C 0.24779 0.45066 0.2924 0.0
C624 C 0.19826 0.42956 0.334 0.0
C625 C 0.24762 0.46745 0.38622 0.0
C626 C 0.22129 0.46808 0.44709 0.0
C627 C 0.16616 0.46233 0.44178 0.0
C628 C 0.14039 0.4519 0.38574 0.0
C629 C 0.19534 0.45203 0.41325 0.0
C630 C 0.1433 0.4243 0.32857 0.0
C631 C 0.17229 0.41337 0.3013 0.0
H632 H 0.985 0.7764 0.99336 0.0
H633 H 0.93085 0.84793 0.13704 0.0
H634 H 0.93949 0.88 0.9872 0.0
H635 H 0.97656 0.89294 0.85195 0.0
H636 H 0.0407 0.82383 0.74553 0.0
H637 H 1.0127 0.78559 0.83704 0.0
C638 C 0.97383 0.79846 0.99122 0.0
C639 C 0.95914 0.81058 0.08011 0.0
C640 C 0.98155 0.81775 0.9106 0.0
C641 C 0.94365 0.83861 0.07193 0.0
C642 C 0.94891 0.85711 0.98663 0.0
C643 C 0.98467 0.86958 0.84899 0.0
C644 C 1.01232 0.86211 0.79777 0.0
C645 C 0.97047 0.84798 0.91154 0.0
C646 C 1.02031 0.83106 0.78646 0.0
C647 C 1.00437 0.8089 0.84014 0.0
H648 H 0.78324 1.00914 0.03429 0.0
H649 H 0.71209 0.94653 0.1221 0.0
H650 H 0.68308 0.95945 0.96706 0.0
H651 H 0.67174 0.99963 0.84307 0.0
H652 H 0.73917 0.06968 0.79021 0.0
H653 H 0.77661 0.04117 0.88621 0.0
C654 C 0.7621 0.99709 0.01758 0.0
C655 C 0.7493 0.97768 0.09157 0.0
C656 C 0.7446 1.00642 0.93352 0.0
C657 C 0.72199 0.9622 0.0676 0.0
C658 C 0.70534 0.96975 0.97929 0.0
C659 C 0.69472 1.00858 0.85189 0.0
C660 C 0.70181 0.03789 0.81563 0.0
C661 C 0.71526 0.9938 0.91738 0.0
C662 C 0.73241 0.04776 0.81973 0.0
C663 C 0.75392 0.0316 0.8763 0.0
H664 H 0.54071 0.74802 0.08668 0.0
H665 H 0.6336 0.71974 0.13548 0.0
H666 H 0.62033 0.66718 0.08845 0.0
H667 H 0.5793 0.62851 0.09317 0.0
H668 H 0.48528 0.65718 0.06725 0.0
H669 H 0.50141 0.71011 0.04886 0.0
C670 C 0.55835 0.73061 0.08049 0.0
C671 C 0.58752 0.73699 0.11994 0.0
C672 C 0.54971 0.70015 0.06489 0.0
C673 C 0.61068 0.71491 0.10797 0.0
C674 C 0.60284 0.68467 0.08459 0.0
C675 C 0.5625 0.64643 0.08254 0.0
C676 C 0.5312 0.63946 0.08559 0.0
C677 C 0.57192 0.6768 0.07346 0.0
C678 C 0.5095 0.66239 0.06766 0.0
C679 C 0.5187 0.69254 0.0564 0.0
H680 H 0.83112 0.64466 0.13264 0.0
H681 H 0.79229 0.57009 0.95552 0.0
H682 H 0.8369 0.56872 0.84332 0.0
H683 H 0.89214 0.57276 0.85528 0.0
H684 H 0.93317 0.64457 0.04125 0.0
H685 H 0.88254 0.6637 0.08755 0.0
C686 C 0.8317 0.62948 0.0653 0.0
C687 C 0.80966 0.60627 0.05572 0.0
C688 C 0.85846 0.62741 1.00581 0.0
C689 C 0.80965 0.58748 0.96645 0.0
C690 C 0.83549 0.58635 0.90316 0.0
C691 C 0.89045 0.59354 0.90163 0.0
C692 C 0.91627 0.60524 0.95418 0.0
C693 C 0.86127 0.60366 0.93083 0.0
C694 C 0.91335 0.63348 1.0072 0.0
C695 C 0.88435 0.64448 0.03382 0.0
H696 H 0.08138 0.19662 0.97068 0.0
H697 H 0.98827 0.22884 0.96556 0.0
H698 H 0.97275 0.18254 0.87046 0.0
H699 H 0.98435 0.13065 0.80159 0.0
H700 H 0.07802 0.10138 0.77574 0.0
H701 H 0.09446 0.14788 0.87062 0.0
C702 C 0.05784 0.19403 0.9459 0.0
C703 C 0.03616 0.21709 0.97501 0.0
C704 C 0.04899 0.16709 0.88851 0.0
C705 C 1.0057 0.21242 0.94313 0.0
C706 C 0.9967 0.1855 0.8897 0.0
C707 C 1.0085 0.13428 0.8162 0.0
C708 C 0.02966 0.11089 0.78712 0.0
C709 C 1.01793 0.1623 0.86419 0.0
C710 C 0.06086 0.1174 0.80309 0.0
C711 C 0.0703 0.14452 0.85587 0.0
H712 H 0.36557 0.08821 0.96048 0.0
H713 H 0.3485 0.99811 0.07451 0.0
H714 H 0.39745 0.98046 1.00288 0.0
H715 H 0.44687 0.99106 0.91647 0.0
H716 H 0.46167 0.07887 0.78168 0.0
H717 H 0.41254 0.09693 0.85236 0.0
C718 C 0.37215 0.06448 0.96708 0.0
C719 C 0.35272 0.04442 0.02208 0.0
C720 C 0.40052 0.05425 0.9239 0.0
C721 C 0.36227 1.01393 0.03109 0.0
C722 C 0.39063 1.00393 0.99126 0.0
C723 C 0.43944 1.01423 0.90254 0.0
C724 C 0.45901 0.03396 0.84736 0.0
C725 C 0.41026 0.02397 0.9392 0.0
C726 C 0.4481 0.06351 0.82746 0.0
C727 C 0.41965 0.07372 0.86699 0.0
H728 H 0.50397 0.37068 0.08906 0.0
H729 H 0.52713 0.30908 0.83722 0.0
H730 H 0.53783 0.35325 0.72676 0.0
H731 H 0.53692 0.41092 0.69875 0.0
H732 H 0.50841 0.46897 0.95448 0.0
H733 H 0.50114 0.42504 0.06113 0.0
C734 C 0.51095 0.36647 1.00954 0.0
C735 C 0.51399 0.33594 0.9723 0.0
C736 C 0.51565 0.39185 0.9455 0.0
C737 C 0.52446 0.3319 0.86954 0.0
C738 C 0.53034 0.35737 0.80574 0.0
C739 C 0.52961 0.41391 0.77835 0.0
C740 C 0.52296 0.44388 0.8173 0.0
C741 C 0.52555 0.3877 0.84224 0.0
C742 C 0.51334 0.44676 0.9208 0.0
C743 C 0.50961 0.42141 0.98326 0.0
H744 H 0.20668 0.4621 0.94765 0.0
H745 H 0.23109 0.55675 0.98981 0.0
H746 H 0.18491 0.57168 0.89426 0.0
H747 H 0.13456 0.55779 0.8099 0.0
H748 H 0.11075 0.46251 0.77877 0.0
H749 H 0.15876 0.44834 0.85991 0.0
C750 C 0.20218 0.48613 0.93609 0.0
C751 C 0.22287 0.50815 0.97791 0.0
C752 C 0.17497 0.49458 0.88381 0.0
C753 C 0.21626 0.53904 0.95884 0.0
C754 C 0.18944 0.54763 0.90484 0.0
C755 C 0.13992 0.53391 0.81997 0.0
C756 C 0.1182 0.51136 0.78834 0.0
C757 C 0.16813 0.52564 0.8686 0.0
C758 C 0.1262 0.48058 0.80296 0.0
C759 C 0.15398 0.47234 0.84932 0.0
H760 H 0.98087 0.84932 0.48269 0.0
H761 H 0.06005 0.84721 0.2846 0.0
H762 H 0.07491 0.89811 0.34934 0.0
H763 H 0.064 0.94524 0.4563 0.0
H764 H 0.98844 0.94453 0.6694 0.0
H765 H 0.97359 0.89368 0.60528 0.0
C766 C 1.0019 0.85956 0.45574 0.0
C767 C 1.01962 0.84359 0.37973 0.0
C768 C 1.01044 0.88916 0.49401 0.0
C769 C 0.04635 0.85807 0.34471 0.0
C770 C 0.05462 0.8876 0.38085 0.0
C771 C 0.04407 0.9341 0.48806 0.0
C772 C 0.02607 0.95013 0.56307 0.0
C773 C 0.03657 0.90374 0.45415 0.0
C774 C 1.00143 0.93418 0.60667 0.0
C775 C 0.99326 0.90462 0.57109 0.0
H776 H 0.70618 0.97211 0.49079 0.0
H777 H 0.72766 0.06327 0.39573 0.0
H778 H 0.6795 0.08193 0.47075 0.0
H779 H 0.62938 0.07199 0.55312 0.0
H780 H 0.61028 0.98262 0.66948 0.0
H781 H 0.65873 0.96362 0.59632 0.0
C782 C 0.70072 0.99623 0.48911 0.0
C783 C 0.72108 1.01632 0.43839 0.0
C784 C 0.67284 1.00698 0.53408 0.0
C785 C 0.71308 0.04737 0.43572 0.0
C786 C 0.6852 0.05799 0.47753 0.0
C787 C 0.63575 0.0483 0.56266 0.0
C788 C 0.61513 0.02846 0.61281 0.0
C789 C 0.66457 0.03794 0.52504 0.0
C790 C 0.62467 0.99815 0.62727 0.0
C791 C 0.65273 0.98737 0.58643 0.0
H792 H 0.5257 0.73017 0.50489 0.0
H793 H 0.62364 0.72111 0.491 0.0
H794 H 0.62063 0.67172 0.57498 0.0
H795 H 0.58954 0.62761 0.63328 0.0
H796 H 0.49212 0.63915 0.6657 0.0
H797 H 0.4956 0.69026 0.59602 0.0
C798 C 0.54651 0.7182 0.52497 0.0
C799 C 0.57498 0.73011 0.49251 0.0
C800 C 0.54464 0.68936 0.57413 0.0
C801 C 0.60148 0.71325 0.51692 0.0
C802 C 0.59973 0.68453 0.56347 0.0
C803 C 0.56906 0.64129 0.62561 0.0
C804 C 0.54038 0.62835 0.65071 0.0
C805 C 0.57134 0.67173 0.58909 0.0
C806 C 0.51446 0.64747 0.64409 0.0
C807 C 0.51641 0.6771 0.60447 0.0
H808 H 0.85312 0.60266 0.39799 0.0
H809 H 0.82245 0.50928 0.39472 0.0
H810 H 0.86901 0.49442 0.48854 0.0
H811 H 0.92139 0.50746 0.55971 0.0
H812 H 0.95095 0.60138 0.55365 0.0
H813 H 0.90283 0.61593 0.47453 0.0
C814 C 0.85628 0.57896 0.41816 0.0
C815 C 0.83371 0.55722 0.38765 0.0
C816 C 0.88366 0.57044 0.4695 0.0
C817 C 0.83873 0.52679 0.41706 0.0
C818 C 0.86577 0.5182 0.46997 0.0
C819 C 0.9173 0.53116 0.54187 0.0
C820 C 0.94074 0.55309 0.56228 0.0
C821 C 0.88889 0.5397 0.49483 0.0
C822 C 0.93424 0.58366 0.53808 0.0
C823 C 0.90637 0.59216 0.49289 0.0
loop_
_geom_bond_atom_site_label_1
_geom_bond_atom_site_label_2
_geom_bond_distance
_geom_bond_site_symmetry_2
_ccdc_geom_bond_type
H0 C7 0.929 . S
H1 C10 0.930 . S
H2 C12 0.929 . S
H3 C4 0.969 . S
C4 H3 0.969 . S
C4 O5 1.550 . S
C4 H6 0.973 . S
O5 C4 1.550 . S
O5 C11 1.412 . S
H6 C4 0.973 . S
C7 H0 0.929 . S
C7 C8 1.400 . S
C7 C9 1.364 . S
C8 C7 1.400 . S
C8 C12 1.377 . S
C9 C7 1.364 . S
C9 C10 1.374 . S
C10 H1 0.930 . S
C10 C9 1.374 . S
C10 C11 1.383 . S
C11 O5 1.412 . S
C11 C10 1.383 . S
C11 C12 1.394 . S
C12 H2 0.929 . S
C12 C8 1.377 . S
C12 C11 1.394 . S
H13 C20 0.929 . S
H14 C23 0.930 . S
H15 C25 0.929 . S
H16 C17 0.969 . S
C17 H16 0.969 . S
C17 O18 1.550 . S
C17 H19 0.973 . S
O18 C17 1.550 . S
O18 C24 1.412 . S
H19 C17 0.973 . S
C20 H13 0.929 . S
C20 C21 1.400 . S
C20 C22 1.364 . S
C21 C20 1.400 . S
C21 C25 1.377 . S
C22 C20 1.364 . S
C22 C23 1.374 . S
C23 H14 0.930 . S
C23 C22 1.374 . S
C23 C24 1.383 . S
C24 O18 1.412 . S
C24 C23 1.383 . S
C24 C25 1.394 . S
C25 H15 0.929 . S
C25 C21 1.377 . S
C25 C24 1.394 . S
H26 C33 0.929 . S
H27 C36 0.930 . S
H28 C38 0.929 . S
H29 C30 0.969 . S
C30 H29 0.969 . S
C30 O31 1.550 . S
C30 H32 0.973 . S
O31 C30 1.550 . S
O31 C37 1.412 . S
H32 C30 0.973 . S
C33 H26 0.929 . S
C33 C34 1.400 . S
C33 C35 1.364 . S
C34 C33 1.400 . S
C34 C38 1.377 . S
C35 C33 1.364 . S
C35 C36 1.374 . S
C36 H27 0.930 . S
C36 C35 1.374 . S
C36 C37 1.383 . S
C37 O31 1.412 . S
C37 C36 1.383 . S
C37 C38 1.394 . S
C38 H28 0.929 . S
C38 C34 1.377 . S
C38 C37 1.394 . S
H39 C46 0.929 . S
H40 C49 0.930 . S
H41 C51 0.929 . S
H42 C43 0.969 . S
C43 H42 0.969 . S
C43 O44 1.550 . S
C43 H45 0.973 . S
O44 C43 1.550 . S
O44 C50 1.412 . S
H45 C43 0.973 . S
C46 H39 0.929 . S
C46 C47 1.400 . S
C46 C48 1.364 . S
C47 C46 1.400 . S
C47 C51 1.377 . S
C48 C46 1.364 . S
C48 C49 1.374 . S
C49 H40 0.930 . S
C49 C48 1.374 . S
C49 C50 1.383 . S
C50 O44 1.412 . S
C50 C49 1.383 . S
C50 C51 1.394 . S
C51 H41 0.929 . S
C51 C47 1.377 . S
C51 C50 1.394 . S
H52 C59 0.929 . S
H53 C62 0.930 . S
H54 C64 0.929 . S
H55 C56 0.969 . S
C56 H55 0.969 . S
C56 O57 1.550 . S
C56 H58 0.973 . S
O57 C56 1.550 . S
O57 C63 1.412 . S
H58 C56 0.973 . S
C59 H52 0.929 . S
C59 C60 1.400 . S
C59 C61 1.364 1_556 S
C60 C59 1.400 . S
C60 C64 1.377 . S
C61 C59 1.364 1_554 S
C61 C62 1.374 . S
C62 H53 0.930 . S
C62 C61 1.374 . S
C62 C63 1.383 . S
C63 O57 1.412 . S
C63 C62 1.383 . S
C63 C64 1.394 1_554 S
C64 H54 0.929 . S
C64 C60 1.377 . S
C64 C63 1.394 1_556 S
H65 C72 0.929 . S
H66 C75 0.930 . S
H67 C77 0.929 . S
H68 C69 0.969 . S
C69 H68 0.969 . S
C69 O70 1.550 . S
C69 H71 0.973 . S
O70 C69 1.550 . S
O70 C76 1.412 . S
H71 C69 0.973 . S
C72 H65 0.929 . S
C72 C73 1.400 . S
C72 C74 1.364 1_556 S
C73 C72 1.400 . S
C73 C77 1.377 . S
C74 C72 1.364 1_554 S
C74 C75 1.374 . S
C75 H66 0.930 . S
C75 C74 1.374 . S
C75 C76 1.383 . S
C76 O70 1.412 . S
C76 C75 1.383 . S
C76 C77 1.394 1_554 S
C77 H67 0.929 . S
C77 C73 1.377 . S
C77 C76 1.394 1_556 S
H78 C85 0.929 . S
H79 C88 0.930 . S
H80 C90 0.929 . S
H81 C82 0.969 . S
C82 H81 0.969 . S
C82 O83 1.553 . S
C82 H84 0.973 . S
O83 C82 1.553 . S
O83 C89 1.412 . S
H84 C82 0.973 . S
C85 H78 0.929 . S
C85 C86 1.400 . S
C85 C87 1.364 1_556 S
C86 C85 1.400 . S
C86 C90 1.377 . S
C87 C85 1.364 1_554 S
C87 C88 1.374 . S
C88 H79 0.930 . S
C88 C87 1.374 . S
C88 C89 1.383 . S
C89 O83 1.412 . S
C89 C88 1.383 . S
C89 C90 1.395 1_554 S
C90 H80 0.929 . S
C90 C86 1.377 . S
C90 C89 1.395 1_556 S
H91 C98 0.929 . S
H92 C101 0.930 . S
H93 C103 0.929 . S
H94 C95 0.969 . S
C95 H94 0.969 . S
C95 O96 1.550 . S
C95 H97 0.973 . S
O96 C95 1.550 . S
O96 C102 1.412 . S
H97 C95 0.973 . S
C98 H91 0.929 . S
C98 C99 1.400 . S
C98 C100 1.364 1_556 S
C99 C98 1.400 . S
C99 C103 1.377 . S
C100 C98 1.364 1_554 S
C100 C101 1.374 . S
C101 H92 0.930 . S
C101 C100 1.374 . S
C101 C102 1.383 . S
C102 O96 1.412 . S
C102 C101 1.383 . S
C102 C103 1.394 1_554 S
C103 H93 0.929 . S
C103 C99 1.377 . S
C103 C102 1.394 1_556 S
Tb104 N135 2.660 1_565 S
Tb104 N142 2.600 1_565 S
Tb104 O148 2.546 . S
Tb104 O149 2.610 1_455 S
Tb104 O151 2.320 1_455 S
Tb104 O152 2.552 . S
Tb104 O153 2.413 . S
Tb104 O155 2.362 1_565 S
Tb104 O156 2.421 . S
Tb104 C168 2.833 . S
C105 C108 1.432 1_545 S
C105 C109 1.414 1_545 S
C105 N112 1.359 . S
C106 C108 1.417 . S
C106 C110 1.432 . S
C106 C118 1.410 . S
C107 C109 1.444 . S
C107 C110 1.317 . S
C107 H130 0.929 . S
C108 C105 1.432 1_565 S
C108 C106 1.417 . S
C108 N116 1.360 . S
C109 C105 1.414 1_565 S
C109 C107 1.444 . S
C109 C114 1.385 1_565 S
C110 C106 1.432 . S
C110 C107 1.317 . S
C110 H122 0.930 . S
C111 C113 1.392 . S
C111 C114 1.370 . S
C111 H123 0.931 . S
N112 C105 1.359 . S
N112 C113 1.327 . S
N112 Tb115 2.600 . S
C113 C111 1.392 . S
C113 N112 1.327 . S
C113 H120 0.930 . S
C114 C109 1.385 1_545 S
C114 C111 1.370 . S
C114 H133 0.930 . S
Tb115 N112 2.600 . S
Tb115 N116 2.660 1_545 S
Tb115 O149 2.362 1_545 S
Tb115 O150 2.421 . S
Tb115 O154 2.546 . S
Tb115 O155 2.610 1_655 S
Tb115 O157 2.320 1_655 S
Tb115 O158 2.552 1_655 S
Tb115 O159 2.413 . S
Tb115 C179 2.833 . S
N116 C108 1.360 . S
N116 Tb115 2.660 1_565 S
N116 C117 1.305 1_655 S
C117 N116 1.305 1_455 S
C117 C119 1.407 . S
C117 H124 0.930 . S
C118 C106 1.410 . S
C118 C119 1.345 1_655 S
C118 H126 0.930 . S
C119 C117 1.407 . S
C119 C118 1.345 1_455 S
C119 H121 0.930 . S
H120 C113 0.930 . S
H121 C119 0.930 . S
H122 C110 0.930 . S
H123 C111 0.931 . S
H124 C117 0.930 . S
H125 C139 0.930 1_655 S
H126 C118 0.930 . S
H127 C145 0.930 . S
H128 C136 0.930 1_655 S
H129 C143 0.931 . S
H130 C107 0.929 . S
H131 C137 0.930 . S
H132 C170 0.930 . S
H133 C114 0.930 . S
H134 C169 0.929 . S
N135 Tb104 2.660 1_545 S
N135 C136 1.305 . S
N135 C140 1.360 . S
C136 H128 0.930 1_455 S
C136 N135 1.305 . S
C136 C139 1.407 1_556 S
C137 H131 0.930 . S
C137 C138 1.410 . S
C137 C139 1.345 . S
C138 C137 1.410 . S
C138 C140 1.417 1_554 S
C138 C170 1.432 . S
C139 H125 0.930 1_455 S
C139 C136 1.407 1_554 S
C139 C137 1.345 . S
C140 N135 1.360 . S
C140 C138 1.417 1_556 S
C140 C144 1.432 . S
H141 C146 0.930 . S
N142 Tb104 2.600 1_545 S
N142 C144 1.359 . S
N142 C145 1.327 1_545 S
C143 H129 0.931 . S
C143 C145 1.392 . S
C143 C146 1.370 1_565 S
C144 C140 1.432 . S
C144 N142 1.359 . S
C144 C147 1.414 . S
C145 H127 0.930 . S
C145 N142 1.327 1_565 S
C145 C143 1.392 . S
C146 H141 0.930 . S
C146 C143 1.370 1_545 S
C146 C147 1.385 . S
C147 C144 1.414 . S
C147 C146 1.385 . S
C147 C169 1.444 1_556 S
O148 Tb104 2.546 . S
O148 C168 1.251 . S
O149 Tb104 2.610 1_655 S
O149 Tb115 2.362 1_565 S
O149 C160 1.283 . S
O150 Tb115 2.421 . S
O150 C167 1.262 . S
O151 Tb104 2.320 1_655 S
O151 C167 1.260 1_565 S
O152 Tb104 2.552 . S
O152 C160 1.243 1_455 S
O153 Tb104 2.413 . S
O153 C168 1.256 . S
O154 Tb115 2.546 . S
O154 C179 1.251 . S
O155 Tb104 2.362 1_545 S
O155 Tb115 2.610 1_455 S
O155 C171 1.283 . S
O156 Tb104 2.421 . S
O156 C178 1.262 1_565 S
O157 Tb115 2.320 1_455 S
O157 C178 1.260 . S
O158 Tb115 2.552 1_455 S
O158 C171 1.243 . S
O159 Tb115 2.413 . S
O159 C179 1.256 . S
C160 O149 1.283 . S
C160 O152 1.243 1_655 S
C161 C163 1.382 1_556 S
C161 C165 1.393 . S
C161 C168 1.500 . S
C162 C163 1.400 . S
C162 C164 1.384 . S
C163 C161 1.382 1_554 S
C163 C162 1.400 . S
C163 H180 0.930 1_554 S
C164 C162 1.384 . S
C164 C166 1.392 . S
C164 H181 0.931 . S
C165 C161 1.393 . S
C165 C166 1.401 1_556 S
C165 H182 0.930 . S
C166 C164 1.392 . S
C166 C165 1.401 1_554 S
C166 H183 0.930 . S
C167 O150 1.262 . S
C167 O151 1.260 1_545 S
C168 Tb104 2.833 . S
C168 O148 1.251 . S
C168 O153 1.256 . S
C168 C161 1.500 . S
C169 H134 0.929 . S
C169 C147 1.444 1_554 S
C169 C170 1.317 . S
C170 H132 0.930 . S
C170 C138 1.432 . S
C170 C169 1.317 . S
C171 O155 1.283 . S
C171 O158 1.243 . S
C172 C173 1.382 . S
C172 C176 1.393 . S
C172 C179 1.500 . S
C173 C172 1.382 . S
C173 C174 1.400 . S
C173 H184 0.930 1_655 S
C174 C173 1.400 . S
C174 C175 1.384 . S
C175 C174 1.384 . S
C175 C177 1.392 . S
C175 H185 0.931 . S
C176 C172 1.393 . S
C176 C177 1.401 . S
C176 H186 0.930 . S
C177 C175 1.392 . S
C177 C176 1.401 . S
C177 H187 0.930 . S
C178 O156 1.262 1_545 S
C178 O157 1.260 . S
C179 Tb115 2.833 . S
C179 O154 1.251 . S
C179 O159 1.256 . S
C179 C172 1.500 . S
H180 C163 0.930 1_556 S
H181 C164 0.931 . S
H182 C165 0.930 . S
H183 C166 0.930 . S
H184 C173 0.930 1_455 S
H185 C175 0.931 . S
H186 C176 0.930 . S
H187 C177 0.930 . S
Tb188 N219 2.660 . S
Tb188 N226 2.600 . S
Tb188 O232 2.546 . S
Tb188 O233 2.610 1_545 S
Tb188 O235 2.320 1_545 S
Tb188 O236 2.552 . S
Tb188 O237 2.413 . S
Tb188 O239 2.362 . S
Tb188 O240 2.421 . S
Tb188 C252 2.833 . S
C189 C192 1.432 . S
C189 C193 1.414 . S
C189 N196 1.359 . S
C190 C192 1.417 . S
C190 C194 1.432 . S
C190 C202 1.410 . S
C191 C193 1.444 . S
C191 C194 1.317 . S
C191 H214 0.929 . S
C192 C189 1.432 . S
C192 C190 1.417 . S
C192 N200 1.360 . S
C193 C189 1.414 . S
C193 C191 1.444 . S
C193 C198 1.385 . S
C194 C190 1.432 . S
C194 C191 1.317 . S
C194 H206 0.930 . S
C195 C197 1.392 . S
C195 C198 1.370 . S
C195 H207 0.931 . S
N196 C189 1.359 . S
N196 C197 1.327 . S
N196 Tb199 2.600 . S
C197 C195 1.392 . S
C197 N196 1.327 . S
C197 H204 0.930 . S
C198 C193 1.385 . S
C198 C195 1.370 . S
C198 H217 0.930 . S
Tb199 N196 2.600 . S
Tb199 N200 2.660 . S
Tb199 O233 2.362 . S
Tb199 O234 2.421 . S
Tb199 O238 2.546 . S
Tb199 O239 2.610 1_565 S
Tb199 O241 2.320 1_565 S
Tb199 O242 2.552 1_565 S
Tb199 O243 2.413 . S
Tb199 C263 2.833 . S
N200 C192 1.360 . S
N200 Tb199 2.660 . S
N200 C201 1.305 1_565 S
C201 N200 1.305 1_545 S
C201 C203 1.407 . S
C201 H208 0.930 . S
C202 C190 1.410 . S
C202 C203 1.345 1_565 S
C202 H210 0.930 . S
C203 C201 1.407 . S
C203 C202 1.345 1_545 S
C203 H205 0.930 . S
H204 C197 0.930 . S
H205 C203 0.930 . S
H206 C194 0.930 . S
H207 C195 0.931 . S
H208 C201 0.930 . S
H209 C223 0.930 1_565 S
H210 C202 0.930 . S
H211 C229 0.930 . S
H212 C220 0.930 1_565 S
H213 C227 0.931 . S
H214 C191 0.929 . S
H215 C221 0.930 . S
H216 C254 0.930 . S
H217 C198 0.930 . S
H218 C253 0.929 . S
N219 Tb188 2.660 . S
N219 C220 1.305 . S
N219 C224 1.360 . S
C220 H212 0.930 1_545 S
C220 N219 1.305 . S
C220 C223 1.407 1_556 S
C221 H215 0.930 . S
C221 C222 1.410 . S
C221 C223 1.345 . S
C222 C221 1.410 . S
C222 C224 1.417 1_554 S
C222 C254 1.432 . S
C223 H209 0.930 1_545 S
C223 C220 1.407 1_554 S
C223 C221 1.345 . S
C224 N219 1.360 . S
C224 C222 1.417 1_556 S
C224 C228 1.432 . S
H225 C230 0.930 . S
N226 Tb188 2.600 . S
N226 C228 1.359 . S
N226 C229 1.327 . S
C227 H213 0.931 . S
C227 C229 1.392 . S
C227 C230 1.370 . S
C228 C224 1.432 . S
C228 N226 1.359 . S
C228 C231 1.414 . S
C229 H211 0.930 . S
C229 N226 1.327 . S
C229 C227 1.392 . S
C230 H225 0.930 . S
C230 C227 1.370 . S
C230 C231 1.385 . S
C231 C228 1.414 . S
C231 C230 1.385 . S
C231 C253 1.444 1_556 S
O232 Tb188 2.546 . S
O232 C252 1.251 . S
O233 Tb188 2.610 1_565 S
O233 Tb199 2.362 . S
O233 C244 1.283 . S
O234 Tb199 2.421 . S
O234 C251 1.262 . S
O235 Tb188 2.320 1_565 S
O235 C251 1.260 . S
O236 Tb188 2.552 . S
O236 C244 1.243 1_545 S
O237 Tb188 2.413 . S
O237 C252 1.256 . S
O238 Tb199 2.546 . S
O238 C263 1.251 . S
O239 Tb188 2.362 . S
O239 Tb199 2.610 1_545 S
O239 C255 1.283 . S
O240 Tb188 2.421 . S
O240 C262 1.262 . S
O241 Tb199 2.320 1_545 S
O241 C262 1.260 . S
O242 Tb199 2.552 1_545 S
O242 C255 1.243 . S
O243 Tb199 2.413 . S
O243 C263 1.256 . S
C244 O233 1.283 . S
C244 O236 1.243 1_565 S
C245 C247 1.382 1_556 S
C245 C249 1.393 . S
C245 C252 1.500 . S
C246 C247 1.400 . S
C246 C248 1.384 . S
C247 C245 1.382 1_554 S
C247 C246 1.400 . S
C247 H264 0.930 1_554 S
C248 C246 1.384 . S
C248 C250 1.392 . S
C248 H265 0.931 . S
C249 C245 1.393 . S
C249 C250 1.401 1_556 S
C249 H266 0.930 . S
C250 C248 1.392 . S
C250 C249 1.401 1_554 S
C250 H267 0.930 . S
C251 O234 1.262 . S
C251 O235 1.260 . S
C252 Tb188 2.833 . S
C252 O232 1.251 . S
C252 O237 1.256 . S
C252 C245 1.500 . S
C253 H218 0.929 . S
C253 C231 1.444 1_554 S
C253 C254 1.317 . S
C254 H216 0.930 . S
C254 C222 1.432 . S
C254 C253 1.317 . S
C255 O239 1.283 . S
C255 O242 1.243 . S
C256 C257 1.382 . S
C256 C260 1.393 . S
C256 C263 1.500 . S
C257 C256 1.382 . S
C257 C258 1.400 . S
C257 H268 0.930 1_565 S
C258 C257 1.400 . S
C258 C259 1.384 . S
C259 C258 1.384 . S
C259 C261 1.392 . S
C259 H269 0.931 . S
C260 C256 1.393 . S
C260 C261 1.401 . S
C260 H270 0.930 . S
C261 C259 1.392 . S
C261 C260 1.401 . S
C261 H271 0.930 . S
C262 O240 1.262 . S
C262 O241 1.260 . S
C263 Tb199 2.833 . S
C263 O238 1.251 . S
C263 O243 1.256 . S
C263 C256 1.500 . S
H264 C247 0.930 1_556 S
H265 C248 0.931 . S
H266 C249 0.930 . S
H267 C250 0.930 . S
H268 C257 0.930 1_545 S
H269 C259 0.931 . S
H270 C260 0.930 . S
H271 C261 0.930 . S
Tb272 N303 2.660 . S
Tb272 N310 2.600 . S
Tb272 O316 2.546 . S
Tb272 O317 2.610 . S
Tb272 O319 2.320 . S
Tb272 O320 2.552 . S
Tb272 O321 2.413 . S
Tb272 O323 2.362 . S
Tb272 O324 2.421 . S
Tb272 C336 2.833 . S
C273 C276 1.432 . S
C273 C277 1.414 . S
C273 N280 1.359 . S
C274 C276 1.417 . S
C274 C278 1.432 . S
C274 C286 1.410 . S
C275 C277 1.444 . S
C275 C278 1.317 . S
C275 H298 0.929 . S
C276 C273 1.432 . S
C276 C274 1.417 . S
C276 N284 1.360 . S
C277 C273 1.414 . S
C277 C275 1.444 . S
C277 C282 1.385 . S
C278 C274 1.432 . S
C278 C275 1.317 . S
C278 H290 0.930 . S
C279 C281 1.392 . S
C279 C282 1.370 . S
C279 H291 0.931 1_556 S
N280 C273 1.359 . S
N280 C281 1.327 . S
N280 Tb283 2.600 . S
C281 C279 1.392 . S
C281 N280 1.327 . S
C281 H288 0.930 . S
C282 C277 1.385 . S
C282 C279 1.370 . S
C282 H301 0.930 . S
Tb283 N280 2.600 . S
Tb283 N284 2.660 . S
Tb283 O317 2.362 . S
Tb283 O318 2.421 . S
Tb283 O322 2.546 . S
Tb283 O323 2.610 . S
Tb283 O325 2.320 . S
Tb283 O326 2.552 . S
Tb283 O327 2.413 . S
Tb283 C347 2.833 . S
N284 C276 1.360 . S
N284 Tb283 2.660 . S
N284 C285 1.305 . S
C285 N284 1.305 . S
C285 C287 1.407 . S
C285 H292 0.930 . S
C286 C274 1.410 . S
C286 C287 1.345 . S
C286 H294 0.930 . S
C287 C285 1.407 . S
C287 C286 1.345 . S
C287 H289 0.930 . S
H288 C281 0.930 . S
H289 C287 0.930 . S
H290 C278 0.930 . S
H291 C279 0.931 1_554 S
H292 C285 0.930 . S
H293 C307 0.930 . S
H294 C286 0.930 . S
H295 C313 0.930 . S
H296 C304 0.930 . S
H297 C311 0.931 . S
H298 C275 0.929 . S
H299 C305 0.930 . S
H300 C338 0.930 . S
H301 C282 0.930 . S
H302 C337 0.929 . S
N303 Tb272 2.660 . S
N303 C304 1.305 . S
N303 C308 1.360 . S
C304 H296 0.930 . S
C304 N303 1.305 . S
C304 C307 1.407 . S
C305 H299 0.930 . S
C305 C306 1.410 . S
C305 C307 1.345 . S
C306 C305 1.410 . S
C306 C308 1.417 . S
C306 C338 1.432 . S
C307 H293 0.930 . S
C307 C304 1.407 . S
C307 C305 1.345 . S
C308 N303 1.360 . S
C308 C306 1.417 . S
C308 C312 1.432 . S
H309 C314 0.930 . S
N310 Tb272 2.600 . S
N310 C312 1.359 . S
N310 C313 1.327 . S
C311 H297 0.931 . S
C311 C313 1.392 . S
C311 C314 1.370 . S
C312 C308 1.432 . S
C312 N310 1.359 . S
C312 C315 1.414 . S
C313 H295 0.930 . S
C313 N310 1.327 . S
C313 C311 1.392 . S
C314 H309 0.930 . S
C314 C311 1.370 . S
C314 C315 1.385 . S
C315 C312 1.414 . S
C315 C314 1.385 . S
C315 C337 1.444 . S
O316 Tb272 2.546 . S
O316 C336 1.251 . S
O317 Tb272 2.610 . S
O317 Tb283 2.362 . S
O317 C328 1.283 . S
O318 Tb283 2.421 . S
O318 C335 1.262 . S
O319 Tb272 2.320 . S
O319 C335 1.260 . S
O320 Tb272 2.552 . S
O320 C328 1.243 . S
O321 Tb272 2.413 . S
O321 C336 1.256 . S
O322 Tb283 2.546 . S
O322 C347 1.251 . S
O323 Tb272 2.362 . S
O323 Tb283 2.610 . S
O323 C339 1.283 . S
O324 Tb272 2.421 . S
O324 C346 1.262 . S
O325 Tb283 2.320 . S
O325 C346 1.260 . S
O326 Tb283 2.552 . S
O326 C339 1.243 . S
O327 Tb283 2.413 . S
O327 C347 1.256 . S
C328 O317 1.283 . S
C328 O320 1.243 . S
C329 C331 1.382 . S
C329 C333 1.393 . S
C329 C336 1.500 . S
C330 C331 1.400 . S
C330 C332 1.384 . S
C331 C329 1.382 . S
C331 C330 1.400 . S
C331 H348 0.930 . S
C332 C330 1.384 . S
C332 C334 1.392 . S
C332 H349 0.931 . S
C333 C329 1.393 . S
C333 C334 1.401 . S
C333 H350 0.930 . S
C334 C332 1.392 . S
C334 C333 1.401 . S
C334 H351 0.930 . S
C335 O318 1.262 . S
C335 O319 1.260 . S
C336 Tb272 2.833 . S
C336 O316 1.251 . S
C336 O321 1.256 . S
C336 C329 1.500 . S
C337 H302 0.929 . S
C337 C315 1.444 . S
C337 C338 1.317 . S
C338 H300 0.930 . S
C338 C306 1.432 . S
C338 C337 1.317 . S
C339 O323 1.283 . S
C339 O326 1.243 . S
C340 C341 1.382 . S
C340 C344 1.393 . S
C340 C347 1.500 1_554 S
C341 C340 1.382 . S
C341 C342 1.400 . S
C341 H352 0.930 1_554 S
C342 C341 1.400 . S
C342 C343 1.384 . S
C343 C342 1.384 . S
C343 C345 1.392 . S
C343 H353 0.931 . S
C344 C340 1.393 . S
C344 C345 1.401 . S
C344 H354 0.930 . S
C345 C343 1.392 . S
C345 C344 1.401 . S
C345 H355 0.930 . S
C346 O324 1.262 . S
C346 O325 1.260 . S
C347 Tb283 2.833 . S
C347 O322 1.251 . S
C347 O327 1.256 . S
C347 C340 1.500 1_556 S
H348 C331 0.930 . S
H349 C332 0.931 . S
H350 C333 0.930 . S
H351 C334 0.930 . S
H352 C341 0.930 1_556 S
H353 C343 0.931 . S
H354 C344 0.930 . S
H355 C345 0.930 . S
Tb356 N387 2.660 . S
Tb356 N394 2.600 . S
Tb356 O400 2.546 . S
Tb356 O401 2.610 . S
Tb356 O403 2.320 . S
Tb356 O404 2.552 . S
Tb356 O405 2.413 . S
Tb356 O407 2.362 . S
Tb356 O408 2.421 1_455 S
Tb356 C420 2.833 . S
C357 C360 1.432 . S
C357 C361 1.414 . S
C357 N364 1.359 . S
C358 C360 1.417 . S
C358 C362 1.432 . S
C358 C370 1.410 . S
C359 C361 1.444 . S
C359 C362 1.317 . S
C359 H382 0.929 . S
C360 C357 1.432 . S
C360 C358 1.417 . S
C360 N368 1.360 . S
C361 C357 1.414 . S
C361 C359 1.444 . S
C361 C366 1.385 1_655 S
C362 C358 1.432 . S
C362 C359 1.317 . S
C362 H374 0.930 . S
C363 C365 1.392 . S
C363 C366 1.370 . S
C363 H375 0.931 1_556 S
N364 C357 1.359 . S
N364 C365 1.327 1_655 S
N364 Tb367 2.600 . S
C365 C363 1.392 . S
C365 N364 1.327 1_455 S
C365 H372 0.930 . S
C366 C361 1.385 1_455 S
C366 C363 1.370 . S
C366 H385 0.930 . S
Tb367 N364 2.600 . S
Tb367 N368 2.660 . S
Tb367 O401 2.362 1_655 S
Tb367 O402 2.421 1_655 S
Tb367 O406 2.546 . S
Tb367 O407 2.610 1_655 S
Tb367 O409 2.320 . S
Tb367 O410 2.552 . S
Tb367 O411 2.413 . S
Tb367 C431 2.833 . S
N368 C360 1.360 . S
N368 Tb367 2.660 . S
N368 C369 1.305 . S
C369 N368 1.305 . S
C369 C371 1.407 . S
C369 H376 0.930 . S
C370 C358 1.410 . S
C370 C371 1.345 . S
C370 H378 0.930 . S
C371 C369 1.407 . S
C371 C370 1.345 . S
C371 H373 0.930 . S
H372 C365 0.930 . S
H373 C371 0.930 . S
H374 C362 0.930 . S
H375 C363 0.931 1_554 S
H376 C369 0.930 . S
H377 C391 0.930 . S
H378 C370 0.930 . S
H379 C397 0.930 . S
H380 C388 0.930 . S
H381 C395 0.931 . S
H382 C359 0.929 . S
H383 C389 0.930 . S
H384 C422 0.930 . S
H385 C366 0.930 . S
H386 C421 0.929 . S
N387 Tb356 2.660 . S
N387 C388 1.305 . S
N387 C392 1.360 . S
C388 H380 0.930 . S
C388 N387 1.305 . S
C388 C391 1.407 . S
C389 H383 0.930 . S
C389 C390 1.410 . S
C389 C391 1.345 . S
C390 C389 1.410 . S
C390 C392 1.417 . S
C390 C422 1.432 . S
C391 H377 0.930 . S
C391 C388 1.407 . S
C391 C389 1.345 . S
C392 N387 1.360 . S
C392 C390 1.417 . S
C392 C396 1.432 . S
H393 C398 0.930 . S
N394 Tb356 2.600 . S
N394 C396 1.359 . S
N394 C397 1.327 1_455 S
C395 H381 0.931 . S
C395 C397 1.392 . S
C395 C398 1.370 1_655 S
C396 C392 1.432 . S
C396 N394 1.359 . S
C396 C399 1.414 . S
C397 H379 0.930 . S
C397 N394 1.327 1_655 S
C397 C395 1.392 . S
C398 H393 0.930 . S
C398 C395 1.370 1_455 S
C398 C399 1.385 . S
C399 C396 1.414 . S
C399 C398 1.385 . S
C399 C421 1.444 . S
O400 Tb356 2.546 . S
O400 C420 1.251 . S
O401 Tb356 2.610 . S
O401 Tb367 2.362 1_455 S
O401 C412 1.283 . S
O402 Tb367 2.421 1_455 S
O402 C419 1.262 . S
O403 Tb356 2.320 . S
O403 C419 1.260 . S
O404 Tb356 2.552 . S
O404 C412 1.243 . S
O405 Tb356 2.413 . S
O405 C420 1.256 . S
O406 Tb367 2.546 . S
O406 C431 1.251 . S
O407 Tb356 2.362 . S
O407 Tb367 2.610 1_455 S
O407 C423 1.283 1_455 S
O408 Tb356 2.421 1_655 S
O408 C430 1.262 . S
O409 Tb367 2.320 . S
O409 C430 1.260 . S
O410 Tb367 2.552 . S
O410 C423 1.243 . S
O411 Tb367 2.413 . S
O411 C431 1.256 . S
C412 O401 1.283 . S
C412 O404 1.243 . S
C413 C415 1.382 . S
C413 C417 1.393 . S
C413 C420 1.500 . S
C414 C415 1.400 . S
C414 C416 1.384 . S
C415 C413 1.382 . S
C415 C414 1.400 . S
C415 H432 0.930 . S
C416 C414 1.384 . S
C416 C418 1.392 . S
C416 H433 0.931 . S
C417 C413 1.393 . S
C417 C418 1.401 . S
C417 H434 0.930 . S
C418 C416 1.392 . S
C418 C417 1.401 . S
C418 H435 0.930 . S
C419 O402 1.262 . S
C419 O403 1.260 . S
C420 Tb356 2.833 . S
C420 O400 1.251 . S
C420 O405 1.256 . S
C420 C413 1.500 . S
C421 H386 0.929 . S
C421 C399 1.444 . S
C421 C422 1.317 . S
C422 H384 0.930 . S
C422 C390 1.432 . S
C422 C421 1.317 . S
C423 O407 1.283 1_655 S
C423 O410 1.243 . S
C424 C425 1.382 . S
C424 C428 1.393 . S
C424 C431 1.500 1_554 S
C425 C424 1.382 . S
C425 C426 1.400 . S
C425 H436 0.930 1_554 S
C426 C425 1.400 . S
C426 C427 1.384 . S
C427 C426 1.384 . S
C427 C429 1.392 . S
C427 H437 0.931 . S
C428 C424 1.393 . S
C428 C429 1.401 . S
C428 H438 0.930 . S
C429 C427 1.392 . S
C429 C428 1.401 . S
C429 H439 0.930 . S
C430 O408 1.262 . S
C430 O409 1.260 . S
C431 Tb367 2.833 . S
C431 O406 1.251 . S
C431 O411 1.256 . S
C431 C424 1.500 1_556 S
H432 C415 0.930 . S
H433 C416 0.931 . S
H434 C417 0.930 . S
H435 C418 0.930 . S
H436 C425 0.930 1_556 S
H437 C427 0.931 . S
H438 C428 0.930 . S
H439 C429 0.930 . S
H440 C446 0.930 . S
H441 C449 0.930 . S
H442 C450 0.930 . S
H443 C451 0.930 . S
H444 C454 0.930 . S
H445 C455 0.930 . S
C446 H440 0.930 . S
C446 C447 1.355 . S
C446 C448 1.415 . S
C447 C446 1.355 . S
C447 C449 1.419 . S
C448 C446 1.415 . S
C448 C453 1.425 . S
C448 C455 1.409 . S
C449 H441 0.930 . S
C449 C447 1.419 . S
C449 C450 1.362 . S
C450 H442 0.930 . S
C450 C449 1.362 . S
C450 C453 1.409 . S
C451 H443 0.930 . S
C451 C452 1.355 . S
C451 C453 1.415 . S
C452 C451 1.355 . S
C452 C454 1.419 . S
C453 C448 1.425 . S
C453 C450 1.409 . S
C453 C451 1.415 . S
C454 H444 0.930 . S
C454 C452 1.419 . S
C454 C455 1.362 . S
C455 H445 0.930 . S
C455 C448 1.409 . S
C455 C454 1.362 . S
H456 C462 0.930 . S
H457 C465 0.930 . S
H458 C466 0.930 . S
H459 C467 0.930 . S
H460 C470 0.930 . S
H461 C471 0.930 . S
C462 H456 0.930 . S
C462 C463 1.355 . S
C462 C464 1.415 . S
C463 C462 1.355 . S
C463 C465 1.419 . S
C464 C462 1.415 . S
C464 C469 1.425 . S
C464 C471 1.409 . S
C465 H457 0.930 . S
C465 C463 1.419 . S
C465 C466 1.362 . S
C466 H458 0.930 . S
C466 C465 1.362 . S
C466 C469 1.409 . S
C467 H459 0.930 . S
C467 C468 1.355 . S
C467 C469 1.415 . S
C468 C467 1.355 . S
C468 C470 1.419 . S
C469 C464 1.425 . S
C469 C466 1.409 . S
C469 C467 1.415 . S
C470 H460 0.930 . S
C470 C468 1.419 . S
C470 C471 1.362 . S
C471 H461 0.930 . S
C471 C464 1.409 . S
C471 C470 1.362 . S
H472 C478 0.930 . S
H473 C481 0.930 . S
H474 C482 0.930 . S
H475 C483 0.930 . S
H476 C486 0.930 . S
H477 C487 0.930 . S
C478 H472 0.930 . S
C478 C479 1.355 . S
C478 C480 1.415 . S
C479 C478 1.355 . S
C479 C481 1.419 . S
C480 C478 1.415 . S
C480 C485 1.425 . S
C480 C487 1.409 . S
C481 H473 0.930 . S
C481 C479 1.419 . S
C481 C482 1.362 . S
C482 H474 0.930 . S
C482 C481 1.362 . S
C482 C485 1.409 . S
C483 H475 0.930 . S
C483 C484 1.355 . S
C483 C485 1.415 . S
C484 C483 1.355 . S
C484 C486 1.419 . S
C485 C480 1.425 . S
C485 C482 1.409 . S
C485 C483 1.415 . S
C486 H476 0.930 . S
C486 C484 1.419 . S
C486 C487 1.362 . S
C487 H477 0.930 . S
C487 C480 1.409 . S
C487 C486 1.362 . S
H488 C494 0.930 . S
H489 C497 0.930 . S
H490 C498 0.930 1_655 S
H491 C499 0.930 1_655 S
H492 C502 0.930 . S
H493 C503 0.930 . S
C494 H488 0.930 . S
C494 C495 1.355 . S
C494 C496 1.415 . S
C495 C494 1.355 . S
C495 C497 1.419 . S
C496 C494 1.415 . S
C496 C501 1.425 . S
C496 C503 1.409 . S
C497 H489 0.930 . S
C497 C495 1.419 . S
C497 C498 1.362 . S
C498 H490 0.930 1_455 S
C498 C497 1.362 . S
C498 C501 1.409 . S
C499 H491 0.930 1_455 S
C499 C500 1.355 . S
C499 C501 1.415 . S
C500 C499 1.355 . S
C500 C502 1.419 . S
C501 C496 1.425 . S
C501 C498 1.409 . S
C501 C499 1.415 . S
C502 H492 0.930 . S
C502 C500 1.419 . S
C502 C503 1.362 . S
C503 H493 0.930 . S
C503 C496 1.409 . S
C503 C502 1.362 . S
H504 C510 0.930 . S
H505 C513 0.930 . S
H506 C514 0.930 . S
H507 C515 0.930 . S
H508 C518 0.930 . S
H509 C519 0.930 . S
C510 H504 0.930 . S
C510 C511 1.355 . S
C510 C512 1.415 . S
C511 C510 1.355 . S
C511 C513 1.419 . S
C512 C510 1.415 . S
C512 C517 1.425 . S
C512 C519 1.409 1_564 S
C513 H505 0.930 . S
C513 C511 1.419 . S
C513 C514 1.362 . S
C514 H506 0.930 . S
C514 C513 1.362 . S
C514 C517 1.409 . S
C515 H507 0.930 . S
C515 C516 1.355 . S
C515 C517 1.415 1_556 S
C516 C515 1.355 . S
C516 C518 1.419 1_565 S
C517 C512 1.425 . S
C517 C514 1.409 . S
C517 C515 1.415 1_554 S
C518 H508 0.930 . S
C518 C516 1.419 1_545 S
C518 C519 1.362 . S
C519 H509 0.930 . S
C519 C512 1.409 1_546 S
C519 C518 1.362 . S
H520 C526 0.930 . S
H521 C529 0.930 . S
H522 C530 0.930 1_556 S
H523 C531 0.930 . S
H524 C534 0.930 . S
H525 C535 0.930 . S
C526 H520 0.930 . S
C526 C527 1.355 . S
C526 C528 1.415 . S
C527 C526 1.355 . S
C527 C529 1.419 . S
C528 C526 1.415 . S
C528 C533 1.425 1_554 S
C528 C535 1.409 . S
C529 H521 0.930 . S
C529 C527 1.419 . S
C529 C530 1.362 . S
C530 H522 0.930 1_554 S
C530 C529 1.362 . S
C530 C533 1.409 1_554 S
C531 H523 0.930 . S
C531 C532 1.355 . S
C531 C533 1.415 . S
C532 C531 1.355 . S
C532 C534 1.419 . S
C533 C528 1.425 1_556 S
C533 C530 1.409 1_556 S
C533 C531 1.415 . S
C534 H524 0.930 . S
C534 C532 1.419 . S
C534 C535 1.362 1_556 S
C535 H525 0.930 . S
C535 C528 1.409 . S
C535 C534 1.362 1_554 S
H536 C542 0.930 . S
H537 C545 0.930 . S
H538 C546 0.930 1_556 S
H539 C547 0.930 . S
H540 C550 0.930 . S
H541 C551 0.930 . S
C542 H536 0.930 . S
C542 C543 1.355 . S
C542 C544 1.415 . S
C543 C542 1.355 . S
C543 C545 1.419 . S
C544 C542 1.415 . S
C544 C549 1.425 1_554 S
C544 C551 1.409 . S
C545 H537 0.930 . S
C545 C543 1.419 . S
C545 C546 1.362 . S
C546 H538 0.930 1_554 S
C546 C545 1.362 . S
C546 C549 1.409 1_554 S
C547 H539 0.930 . S
C547 C548 1.355 . S
C547 C549 1.415 . S
C548 C547 1.355 . S
C548 C550 1.419 . S
C549 C544 1.425 1_556 S
C549 C546 1.409 1_556 S
C549 C547 1.415 . S
C550 H540 0.930 . S
C550 C548 1.419 . S
C550 C551 1.362 1_556 S
C551 H541 0.930 . S
C551 C544 1.409 . S
C551 C550 1.362 1_554 S
H552 C558 0.930 . S
H553 C561 0.930 . S
H554 C562 0.930 1_455 S
H555 C563 0.930 1_455 S
H556 C566 0.930 . S
H557 C567 0.930 . S
C558 H552 0.930 . S
C558 C559 1.355 . S
C558 C560 1.415 . S
C559 C558 1.355 . S
C559 C561 1.419 . S
C560 C558 1.415 . S
C560 C565 1.425 . S
C560 C567 1.409 1_554 S
C561 H553 0.930 . S
C561 C559 1.419 . S
C561 C562 1.362 . S
C562 H554 0.930 1_655 S
C562 C561 1.362 . S
C562 C565 1.409 . S
C563 H555 0.930 1_655 S
C563 C564 1.355 . S
C563 C565 1.415 1_556 S
C564 C563 1.355 . S
C564 C566 1.419 . S
C565 C560 1.425 . S
C565 C562 1.409 . S
C565 C563 1.415 1_554 S
C566 H556 0.930 . S
C566 C564 1.419 . S
C566 C567 1.362 . S
C567 H557 0.930 . S
C567 C560 1.409 1_556 S
C567 C566 1.362 . S
H568 C574 0.930 . S
H569 C577 0.930 . S
H570 C578 0.930 . S
H571 C579 0.930 . S
H572 C582 0.930 . S
H573 C583 0.930 . S
C574 H568 0.930 . S
C574 C575 1.355 . S
C574 C576 1.415 . S
C575 C574 1.355 . S
C575 C577 1.419 . S
C576 C574 1.415 . S
C576 C581 1.425 . S
C576 C583 1.409 1_455 S
C577 H569 0.930 . S
C577 C575 1.419 . S
C577 C578 1.362 . S
C578 H570 0.930 . S
C578 C577 1.362 . S
C578 C581 1.409 . S
C579 H571 0.930 . S
C579 C580 1.353 1_455 S
C579 C581 1.415 . S
C580 C579 1.353 1_655 S
C580 C582 1.420 . S
C581 C576 1.425 . S
C581 C578 1.409 . S
C581 C579 1.415 . S
C582 H572 0.930 . S
C582 C580 1.420 . S
C582 C583 1.362 . S
C583 H573 0.930 . S
C583 C576 1.409 1_655 S
C583 C582 1.362 . S
H584 C590 0.930 . S
H585 C593 0.927 1_556 S
H586 C594 0.930 . S
H587 C595 0.930 . S
H588 C598 0.930 . S
H589 C599 0.930 . S
C590 H584 0.930 . S
C590 C591 1.355 . S
C590 C592 1.415 . S
C591 C590 1.355 . S
C591 C593 1.419 . S
C592 C590 1.415 . S
C592 C597 1.425 . S
C592 C599 1.409 . S
C593 H585 0.927 1_554 S
C593 C591 1.419 . S
C593 C594 1.362 . S
C594 H586 0.930 . S
C594 C593 1.362 . S
C594 C597 1.409 . S
C595 H587 0.930 . S
C595 C596 1.355 . S
C595 C597 1.415 . S
C596 C595 1.355 . S
C596 C598 1.419 1_545 S
C597 C592 1.425 . S
C597 C594 1.409 . S
C597 C595 1.415 . S
C598 H588 0.930 . S
C598 C596 1.419 1_565 S
C598 C599 1.362 1_565 S
C599 H589 0.930 . S
C599 C592 1.409 . S
C599 C598 1.362 1_545 S
H600 C606 0.930 . S
H601 C609 0.930 . S
H602 C610 0.930 . S
H603 C611 0.930 . S
H604 C614 0.930 . S
H605 C615 0.930 . S
C606 H600 0.930 . S
C606 C607 1.355 . S
C606 C608 1.415 . S
C607 C606 1.355 . S
C607 C609 1.419 . S
C608 C606 1.415 . S
C608 C613 1.425 . S
C608 C615 1.409 . S
C609 H601 0.930 . S
C609 C607 1.419 . S
C609 C610 1.362 . S
C610 H602 0.930 . S
C610 C609 1.362 . S
C610 C613 1.409 . S
C611 H603 0.930 . S
C611 C612 1.355 . S
C611 C613 1.415 . S
C612 C611 1.355 . S
C612 C614 1.419 . S
C613 C608 1.425 . S
C613 C610 1.409 . S
C613 C611 1.415 . S
C614 H604 0.930 . S
C614 C612 1.419 . S
C614 C615 1.362 . S
C615 H605 0.930 . S
C615 C608 1.409 . S
C615 C614 1.362 . S
H616 C622 0.930 . S
H617 C625 0.930 . S
H618 C626 0.930 . S
H619 C627 0.930 . S
H620 C630 0.930 . S
H621 C631 0.930 . S
C622 H616 0.930 . S
C622 C623 1.355 . S
C622 C624 1.415 . S
C623 C622 1.355 . S
C623 C625 1.419 . S
C624 C622 1.415 . S
C624 C629 1.425 . S
C624 C631 1.409 . S
C625 H617 0.930 . S
C625 C623 1.419 . S
C625 C626 1.362 . S
C626 H618 0.930 . S
C626 C625 1.362 . S
C626 C629 1.409 . S
C627 H619 0.930 . S
C627 C628 1.355 . S
C627 C629 1.415 . S
C628 C627 1.355 . S
C628 C630 1.419 . S
C629 C624 1.425 . S
C629 C626 1.409 . S
C629 C627 1.415 . S
C630 H620 0.930 . S
C630 C628 1.419 . S
C630 C631 1.362 . S
C631 H621 0.930 . S
C631 C624 1.409 . S
C631 C630 1.362 . S
H632 C638 0.930 . S
H633 C641 0.930 . S
H634 C642 0.930 . S
H635 C643 0.930 . S
H636 C646 0.930 . S
H637 C647 0.930 . S
C638 H632 0.930 . S
C638 C639 1.355 . S
C638 C640 1.415 . S
C639 C638 1.355 . S
C639 C641 1.419 . S
C640 C638 1.415 . S
C640 C645 1.425 . S
C640 C647 1.409 1_655 S
C641 H633 0.930 . S
C641 C639 1.419 . S
C641 C642 1.362 . S
C642 H634 0.930 . S
C642 C641 1.362 . S
C642 C645 1.409 . S
C643 H635 0.930 . S
C643 C644 1.355 1_655 S
C643 C645 1.415 . S
C644 C643 1.355 1_455 S
C644 C646 1.419 . S
C645 C640 1.425 . S
C645 C642 1.409 . S
C645 C643 1.415 . S
C646 H636 0.930 . S
C646 C644 1.419 . S
C646 C647 1.362 . S
C647 H637 0.930 . S
C647 C640 1.409 1_455 S
C647 C646 1.362 . S
H648 C654 0.930 . S
H649 C657 0.930 . S
H650 C658 0.930 . S
H651 C659 0.930 1_566 S
H652 C662 0.930 . S
H653 C663 0.930 . S
C654 H648 0.930 . S
C654 C655 1.355 . S
C654 C656 1.415 . S
C655 C654 1.355 . S
C655 C657 1.419 . S
C656 C654 1.415 . S
C656 C661 1.425 . S
C656 C663 1.409 1_565 S
C657 H649 0.930 . S
C657 C655 1.419 . S
C657 C658 1.362 . S
C658 H650 0.930 . S
C658 C657 1.362 . S
C658 C661 1.409 . S
C659 H651 0.930 1_544 S
C659 C660 1.355 . S
C659 C661 1.415 1_545 S
C660 C659 1.355 . S
C660 C662 1.419 . S
C661 C656 1.425 . S
C661 C658 1.409 . S
C661 C659 1.415 1_565 S
C662 H652 0.930 . S
C662 C660 1.419 . S
C662 C663 1.362 . S
C663 H653 0.930 . S
C663 C656 1.409 1_545 S
C663 C662 1.362 . S
H664 C670 0.930 . S
H665 C673 0.930 . S
H666 C674 0.930 . S
H667 C675 0.930 1_556 S
H668 C678 0.930 . S
H669 C679 0.930 . S
C670 H664 0.930 . S
C670 C671 1.355 . S
C670 C672 1.415 . S
C671 C670 1.355 . S
C671 C673 1.419 . S
C672 C670 1.415 . S
C672 C677 1.425 . S
C672 C679 1.409 . S
C673 H665 0.930 . S
C673 C671 1.419 . S
C673 C674 1.362 . S
C674 H666 0.930 . S
C674 C673 1.362 . S
C674 C677 1.409 . S
C675 H667 0.930 1_554 S
C675 C676 1.355 . S
C675 C677 1.415 . S
C676 C675 1.355 . S
C676 C678 1.419 . S
C677 C672 1.425 . S
C677 C674 1.409 . S
C677 C675 1.415 . S
C678 H668 0.930 . S
C678 C676 1.419 . S
C678 C679 1.362 . S
C679 H669 0.930 . S
C679 C672 1.409 . S
C679 C678 1.362 . S
H680 C686 0.930 . S
H681 C689 0.930 . S
H682 C690 0.930 . S
H683 C691 0.930 . S
H684 C694 0.930 . S
H685 C695 0.930 . S
C686 H680 0.930 . S
C686 C687 1.355 . S
C686 C688 1.415 . S
C687 C686 1.355 . S
C687 C689 1.419 . S
C688 C686 1.415 . S
C688 C693 1.425 . S
C688 C695 1.409 . S
C689 H681 0.930 . S
C689 C687 1.419 . S
C689 C690 1.362 . S
C690 H682 0.930 . S
C690 C689 1.362 . S
C690 C693 1.409 . S
C691 H683 0.930 . S
C691 C692 1.355 . S
C691 C693 1.415 . S
C692 C691 1.355 . S
C692 C694 1.419 . S
C693 C688 1.425 . S
C693 C690 1.409 . S
C693 C691 1.415 . S
C694 H684 0.930 . S
C694 C692 1.419 . S
C694 C695 1.362 . S
C695 H685 0.930 . S
C695 C688 1.409 . S
C695 C694 1.362 . S
H696 C702 0.930 . S
H697 C705 0.930 . S
H698 C706 0.930 . S
H699 C707 0.930 . S
H700 C710 0.930 . S
H701 C711 0.930 . S
C702 H696 0.930 . S
C702 C703 1.355 . S
C702 C704 1.415 . S
C703 C702 1.355 . S
C703 C705 1.419 . S
C704 C702 1.415 . S
C704 C709 1.425 . S
C704 C711 1.409 . S
C705 H697 0.930 . S
C705 C703 1.419 . S
C705 C706 1.362 . S
C706 H698 0.930 . S
C706 C705 1.362 . S
C706 C709 1.409 . S
C707 H699 0.930 . S
C707 C708 1.355 . S
C707 C709 1.415 . S
C708 C707 1.355 . S
C708 C710 1.419 . S
C709 C704 1.425 . S
C709 C706 1.409 . S
C709 C707 1.415 . S
C710 H700 0.930 . S
C710 C708 1.419 . S
C710 C711 1.362 . S
C711 H701 0.930 . S
C711 C704 1.409 . S
C711 C710 1.362 . S
H712 C718 0.930 . S
H713 C721 0.930 . S
H714 C722 0.930 . S
H715 C723 0.930 . S
H716 C726 0.930 . S
H717 C727 0.930 . S
C718 H712 0.930 . S
C718 C719 1.355 . S
C718 C720 1.415 . S
C719 C718 1.355 . S
C719 C721 1.419 . S
C720 C718 1.415 . S
C720 C725 1.425 . S
C720 C727 1.409 . S
C721 H713 0.930 . S
C721 C719 1.419 . S
C721 C722 1.362 . S
C722 H714 0.930 . S
C722 C721 1.362 . S
C722 C725 1.409 . S
C723 H715 0.930 . S
C723 C724 1.355 . S
C723 C725 1.415 . S
C724 C723 1.355 . S
C724 C726 1.419 . S
C725 C720 1.425 . S
C725 C722 1.409 . S
C725 C723 1.415 . S
C726 H716 0.930 . S
C726 C724 1.419 . S
C726 C727 1.362 . S
C727 H717 0.930 . S
C727 C720 1.409 . S
C727 C726 1.362 . S
H728 C734 0.930 . S
H729 C737 0.930 . S
H730 C738 0.930 . S
H731 C739 0.930 . S
H732 C742 0.930 . S
H733 C743 0.930 . S
C734 H728 0.930 . S
C734 C735 1.355 . S
C734 C736 1.415 . S
C735 C734 1.355 . S
C735 C737 1.419 . S
C736 C734 1.415 . S
C736 C741 1.425 . S
C736 C743 1.409 . S
C737 H729 0.930 . S
C737 C735 1.419 . S
C737 C738 1.362 . S
C738 H730 0.930 . S
C738 C737 1.362 . S
C738 C741 1.409 . S
C739 H731 0.930 . S
C739 C740 1.355 . S
C739 C741 1.415 . S
C740 C739 1.355 . S
C740 C742 1.419 . S
C741 C736 1.425 . S
C741 C738 1.409 . S
C741 C739 1.415 . S
C742 H732 0.930 . S
C742 C740 1.419 . S
C742 C743 1.362 . S
C743 H733 0.930 . S
C743 C736 1.409 . S
C743 C742 1.362 . S
H744 C750 0.930 . S
H745 C753 0.925 1_554 S
H746 C754 0.930 1_554 S
H747 C755 0.930 . S
H748 C758 0.930 . S
H749 C759 0.930 . S
C750 H744 0.930 . S
C750 C751 1.355 . S
C750 C752 1.415 . S
C751 C750 1.355 . S
C751 C753 1.419 . S
C752 C750 1.415 . S
C752 C757 1.425 . S
C752 C759 1.409 . S
C753 H745 0.925 1_556 S
C753 C751 1.419 . S
C753 C754 1.362 . S
C754 H746 0.930 1_556 S
C754 C753 1.362 . S
C754 C757 1.409 . S
C755 H747 0.930 . S
C755 C756 1.355 . S
C755 C757 1.415 . S
C756 C755 1.355 . S
C756 C758 1.419 . S
C757 C752 1.425 . S
C757 C754 1.409 . S
C757 C755 1.415 . S
C758 H748 0.930 . S
C758 C756 1.419 . S
C758 C759 1.362 . S
C759 H749 0.930 . S
C759 C752 1.409 . S
C759 C758 1.362 . S
H760 C766 0.930 . S
H761 C769 0.930 . S
H762 C770 0.930 . S
H763 C771 0.930 . S
H764 C774 0.930 . S
H765 C775 0.930 . S
C766 H760 0.930 . S
C766 C767 1.355 . S
C766 C768 1.415 . S
C767 C766 1.355 . S
C767 C769 1.419 . S
C768 C766 1.415 . S
C768 C773 1.425 . S
C768 C775 1.409 . S
C769 H761 0.930 . S
C769 C767 1.419 . S
C769 C770 1.362 . S
C770 H762 0.930 . S
C770 C769 1.362 . S
C770 C773 1.409 . S
C771 H763 0.930 . S
C771 C772 1.355 . S
C771 C773 1.415 . S
C772 C771 1.355 . S
C772 C774 1.419 . S
C773 C768 1.425 . S
C773 C770 1.409 . S
C773 C771 1.415 . S
C774 H764 0.930 . S
C774 C772 1.419 . S
C774 C775 1.362 . S
C775 H765 0.930 . S
C775 C768 1.409 . S
C775 C774 1.362 . S
H776 C782 0.930 . S
H777 C785 0.930 . S
H778 C786 0.930 . S
H779 C787 0.930 . S
H780 C790 0.930 . S
H781 C791 0.930 . S
C782 H776 0.930 . S
C782 C783 1.355 . S
C782 C784 1.415 . S
C783 C782 1.355 . S
C783 C785 1.419 . S
C784 C782 1.415 . S
C784 C789 1.425 . S
C784 C791 1.409 . S
C785 H777 0.930 . S
C785 C783 1.419 . S
C785 C786 1.362 . S
C786 H778 0.930 . S
C786 C785 1.362 . S
C786 C789 1.409 . S
C787 H779 0.930 . S
C787 C788 1.355 . S
C787 C789 1.415 . S
C788 C787 1.355 . S
C788 C790 1.419 . S
C789 C784 1.425 . S
C789 C786 1.409 . S
C789 C787 1.415 . S
C790 H780 0.930 . S
C790 C788 1.419 . S
C790 C791 1.362 . S
C791 H781 0.930 . S
C791 C784 1.409 . S
C791 C790 1.362 . S
H792 C798 0.930 . S
H793 C801 0.930 . S
H794 C802 0.930 . S
H795 C803 0.930 . S
H796 C806 0.930 . S
H797 C807 0.930 . S
C798 H792 0.930 . S
C798 C799 1.355 . S
C798 C800 1.415 . S
C799 C798 1.355 . S
C799 C801 1.419 . S
C800 C798 1.415 . S
C800 C805 1.425 . S
C800 C807 1.409 . S
C801 H793 0.930 . S
C801 C799 1.419 . S
C801 C802 1.362 . S
C802 H794 0.930 . S
C802 C801 1.362 . S
C802 C805 1.409 . S
C803 H795 0.930 . S
C803 C804 1.355 . S
C803 C805 1.415 . S
C804 C803 1.355 . S
C804 C806 1.419 . S
C805 C800 1.425 . S
C805 C802 1.409 . S
C805 C803 1.415 . S
C806 H796 0.930 . S
C806 C804 1.419 . S
C806 C807 1.362 . S
C807 H797 0.930 . S
C807 C800 1.409 . S
C807 C806 1.362 . S
H808 C814 0.930 . S
H809 C817 0.930 . S
H810 C818 0.930 . S
H811 C819 0.930 . S
H812 C822 0.930 . S
H813 C823 0.930 . S
C814 H808 0.930 . S
C814 C815 1.355 . S
C814 C816 1.415 . S
C815 C814 1.355 . S
C815 C817 1.419 . S
C816 C814 1.415 . S
C816 C821 1.425 . S
C816 C823 1.409 . S
C817 H809 0.930 . S
C817 C815 1.419 . S
C817 C818 1.362 . S
C818 H810 0.930 . S
C818 C817 1.362 . S
C818 C821 1.409 . S
C819 H811 0.930 . S
C819 C820 1.355 . S
C819 C821 1.415 . S
C820 C819 1.355 . S
C820 C822 1.419 . S
C821 C816 1.425 . S
C821 C818 1.409 . S
C821 C819 1.415 . S
C822 H812 0.930 . S
C822 C820 1.419 . S
C822 C823 1.362 . S
C823 H813 0.930 . S
C823 C816 1.409 . S
C823 C822 1.362 . S
C447 C82 1.722 . S
C452 C178 1.967 . S
C468 C262 1.983 . S
C463 C95 1.743 . S
C484 C328 1.986 . S
C479 C56 1.911 . S
C500 C412 1.900 . S
C495 C69 1.829 . S
C516 C167 1.974 1_565 S
C511 C30 1.747 . S
C527 C43 1.667 . S
C532 C251 1.968 . S
C543 C4 1.751 . S
C548 C339 1.903 . S
C559 C17 1.827 . S
C564 C423 1.971 . S
C580 C174 0.691 . S
C575 C74 0.813 . S
C596 C258 0.680 1_545 S
C591 C87 0.721 . S
C612 C330 0.658 . S
C607 C100 0.761 . S
C623 C61 0.728 . S
C628 C414 0.698 . S
C639 C22 0.794 . S
C644 C162 0.694 . S
C660 C246 0.670 . S
C655 C35 0.801 . S
C676 C342 0.625 . S
C671 C48 0.788 . S
C687 C9 0.724 . S
C692 C426 0.699 . S
C703 C73 2.083 . S
C708 C171 2.146 . S
C719 C86 2.060 . S
C724 C255 2.112 . S
C740 C335 2.120 . S
C735 C99 1.945 . S
C756 C419 2.173 . S
C751 C60 1.912 . S
C767 C21 2.063 . S
C772 C160 2.151 . S
C788 C244 2.056 . S
C783 C34 1.974 . S
C804 C346 2.121 . S
C799 C47 1.938 . S
C815 C8 1.937 . S
C820 C430 2.184 . S
