# Generated by pormake.
# Topology apo, (3,6)-cn, num edge types: 1
# Building blocks:
#     Node 0, Type 0, BuildingBlock: BELTOD_clean_linker_0, # of connection points: 3
#     Node 1, Type 0, BuildingBlock: BELTOD_clean_linker_0, # of connection points: 3
#     Node 2, Type 0, BuildingBlock: BELTOD_clean_linker_0, # of connection points: 3
#     Node 3, Type 0, BuildingBlock: BELTOD_clean_linker_0, # of connection points: 3
#     Node 4, Type 0, BuildingBlock: BELTOD_clean_linker_0, # of connection points: 3
#     Node 5, Type 0, BuildingBlock: BELTOD_clean_linker_0, # of connection points: 3
#     Node 6, Type 0, BuildingBlock: BELTOD_clean_linker_0, # of connection points: 3
#     Node 7, Type 0, BuildingBlock: BELTOD_clean_linker_0, # of connection points: 3
#     Node 8, Type 1, BuildingBlock: KUMJIN_clean_sbu_1, # of connection points: 6
#     Node 9, Type 1, BuildingBlock: KUMJIN_clean_sbu_1, # of connection points: 6
#     Node 10, Type 1, BuildingBlock: KUMJIN_clean_sbu_1, # of connection points: 6
#     Node 11, Type 1, BuildingBlock: KUMJIN_clean_sbu_1, # of connection points: 6
#     Edge 12, Type (0, 1), BuildingBlock: EZIPEK_clean_linker_0, # of connection points: 2
#     Edge 13, Type (0, 1), BuildingBlock: EZIPEK_clean_linker_0, # of connection points: 2
#     Edge 14, Type (0, 1), BuildingBlock: EZIPEK_clean_linker_0, # of connection points: 2
#     Edge 15, Type (0, 1), BuildingBlock: EZIPEK_clean_linker_0, # of connection points: 2
#     Edge 16, Type (0, 1), BuildingBlock: EZIPEK_clean_linker_0, # of connection points: 2
#     Edge 17, Type (0, 1), BuildingBlock: EZIPEK_clean_linker_0, # of connection points: 2
#     Edge 18, Type (0, 1), BuildingBlock: EZIPEK_clean_linker_0, # of connection points: 2
#     Edge 19, Type (0, 1), BuildingBlock: EZIPEK_clean_linker_0, # of connection points: 2
#     Edge 20, Type (0, 1), BuildingBlock: EZIPEK_clean_linker_0, # of connection points: 2
#     Edge 21, Type (0, 1), BuildingBlock: EZIPEK_clean_linker_0, # of connection points: 2
#     Edge 22, Type (0, 1), BuildingBlock: EZIPEK_clean_linker_0, # of connection points: 2
#     Edge 23, Type (0, 1), BuildingBlock: EZIPEK_clean_linker_0, # of connection points: 2
#     Edge 24, Type (0, 1), BuildingBlock: EZIPEK_clean_linker_0, # of connection points: 2
#     Edge 25, Type (0, 1), BuildingBlock: EZIPEK_clean_linker_0, # of connection points: 2
#     Edge 26, Type (0, 1), BuildingBlock: EZIPEK_clean_linker_0, # of connection points: 2
#     Edge 27, Type (0, 1), BuildingBlock: EZIPEK_clean_linker_0, # of connection points: 2
#     Edge 28, Type (0, 1), BuildingBlock: EZIPEK_clean_linker_0, # of connection points: 2
#     Edge 29, Type (0, 1), BuildingBlock: EZIPEK_clean_linker_0, # of connection points: 2
#     Edge 30, Type (0, 1), BuildingBlock: EZIPEK_clean_linker_0, # of connection points: 2
#     Edge 31, Type (0, 1), BuildingBlock: EZIPEK_clean_linker_0, # of connection points: 2
#     Edge 32, Type (0, 1), BuildingBlock: EZIPEK_clean_linker_0, # of connection points: 2
#     Edge 33, Type (0, 1), BuildingBlock: EZIPEK_clean_linker_0, # of connection points: 2
#     Edge 34, Type (0, 1), BuildingBlock: EZIPEK_clean_linker_0, # of connection points: 2
#     Edge 35, Type (0, 1), BuildingBlock: EZIPEK_clean_linker_0, # of connection points: 2
# Relax obj value: 0.007
# Max RMSD: 0.128
# Mean RMSD: 0.093
data_MOF--net-apo--node1-KUMJIN_clean_sbu_1--node2-BELTOD_clean_linker_0--edge1-EZIPEK_clean_linker_0
_symmetry_space_group_name_H-M    P1
_symmetry_Int_Tables_number       1
_symmetry_cell_setting            triclinic
loop_
_symmetry_equiv_pos_as_xyz
'x, y, z'
_cell_length_a     21.172227
_cell_length_b     36.685218
_cell_length_c     47.730261
_cell_angle_alpha  89.654023
_cell_angle_beta   90.068581
_cell_angle_gamma 90.049902
loop_
_atom_site_label
_atom_site_type_symbol
_atom_site_fract_x
_atom_site_fract_y
_atom_site_fract_z
_atom_type_partial_charge
P0 P 0.34787 0.33493 0.39293 0.0
H1 H 0.44565 0.33303 0.43602 0.0
H2 H 0.44389 0.34352 0.48675 0.0
H3 H 0.24333 0.36319 0.48279 0.0
H4 H 0.24494 0.35242 0.43192 0.0
H5 H 0.28023 0.27038 0.41206 0.0
H6 H 0.19985 0.23201 0.3897 0.0
H7 H 0.18468 0.30947 0.32177 0.0
H8 H 0.26301 0.3484 0.34442 0.0
H9 H 0.34184 0.41219 0.41029 0.0
H10 H 0.38697 0.35124 0.33589 0.0
O11 O 0.40859 0.30746 0.38603 0.0
H12 H 0.36508 0.46923 0.38523 0.0
H13 H 0.40745 0.40837 0.31054 0.0
C14 C 0.34519 0.34127 0.43034 0.0
C15 C 0.40113 0.33919 0.44606 0.0
C16 C 0.40025 0.34524 0.47495 0.0
C17 C 0.34348 0.35396 0.48845 0.0
C18 C 0.2875 0.35629 0.4727 0.0
C19 C 0.2884 0.3501 0.44378 0.0
C20 C 0.27809 0.31222 0.37996 0.0
C21 C 0.25824 0.27971 0.39281 0.0
C22 C 0.21254 0.25779 0.38006 0.0
C23 C 0.18686 0.26782 0.35398 0.0
C24 C 0.20406 0.30129 0.34186 0.0
C25 C 0.24921 0.32341 0.35481 0.0
C26 C 0.36275 0.37742 0.37492 0.0
C27 C 0.35635 0.41099 0.38859 0.0
C28 C 0.36946 0.44356 0.3743 0.0
C29 C 0.38787 0.44298 0.34603 0.0
C30 C 0.3934 0.40938 0.33234 0.0
C31 C 0.38169 0.37687 0.34678 0.0
P32 P 0.31658 0.08946 0.90504 0.0
H33 H 0.33317 0.05015 0.85293 0.0
H34 H 0.26402 0.00997 0.82567 0.0
H35 H 0.11434 0.02642 0.88542 0.0
H36 H 0.18364 0.06671 0.91283 0.0
H37 H 0.40604 0.14841 0.91409 0.0
H38 H 0.43061 0.20371 0.88689 0.0
H39 H 0.27001 0.18339 0.83361 0.0
H40 H 0.24526 0.12822 0.86074 0.0
H41 H 0.3522 0.04551 0.9535 0.0
H42 H 0.23283 0.13836 0.9368 0.0
O43 O 0.38793 0.07025 0.9035 0.0
H44 H 0.32877 0.05004 1.00358 0.0
H45 H 0.20835 0.14251 0.98721 0.0
C46 C 0.26393 0.06079 0.88518 0.0
C47 C 0.28554 0.04508 0.86024 0.0
C48 C 0.24617 0.0223 0.84464 0.0
C49 C 0.18436 0.01514 0.85366 0.0
C50 C 0.16204 0.03159 0.87824 0.0
C51 C 0.20159 0.05442 0.89388 0.0
C52 C 0.32442 0.13397 0.88921 0.0
C53 C 0.37515 0.15636 0.89702 0.0
C54 C 0.38908 0.1879 0.8816 0.0
C55 C 0.3521 0.1975 0.8583 0.0
C56 C 0.2988 0.17645 0.85165 0.0
C57 C 0.28494 0.14487 0.86706 0.0
C58 C 0.29521 0.09204 0.94154 0.0
C59 C 0.32086 0.06685 0.96059 0.0
C60 C 0.30744 0.06935 0.98916 0.0
C61 C 0.2674 0.09682 0.99912 0.0
C62 C 0.2398 0.12132 0.97992 0.0
C63 C 0.25374 0.11896 0.95126 0.0
P64 P 0.88556 0.15388 0.61626 0.0
H65 H 0.90366 0.20377 0.56944 0.0
H66 H 0.89043 0.19731 0.51853 0.0
H67 H 0.82565 0.08688 0.53059 0.0
H68 H 0.8389 0.09321 0.58143 0.0
H69 H 0.89085 0.19932 0.66581 0.0
H70 H 0.81253 0.23768 0.68932 0.0
H71 H 0.67602 0.21234 0.62522 0.0
H72 H 0.75464 0.17383 0.60154 0.0
H73 H 0.98355 0.10129 0.632 0.0
H74 H 0.78139 0.11129 0.64035 0.0
O75 O 0.95726 0.17192 0.62063 0.0
H76 H 0.98062 0.04411 0.65913 0.0
H77 H 0.77866 0.05417 0.66744 0.0
C78 C 0.87281 0.14891 0.57916 0.0
C79 C 0.88656 0.17818 0.56113 0.0
C80 C 0.8791 0.17453 0.53217 0.0
C81 C 0.85744 0.14157 0.52091 0.0
C82 C 0.84271 0.11244 0.53897 0.0
C83 C 0.85023 0.1161 0.56795 0.0
C84 C 0.82893 0.18438 0.63166 0.0
C85 C 0.84446 0.20245 0.65653 0.0
C86 C 0.79986 0.22423 0.66996 0.0
C87 C 0.73889 0.228 0.65883 0.0
C88 C 0.72314 0.20997 0.6339 0.0
C89 C 0.76795 0.18815 0.62042 0.0
C90 C 0.88284 0.11086 0.63465 0.0
C91 C 0.93862 0.0912 0.6396 0.0
C92 C 0.93702 0.05862 0.65498 0.0
C93 C 0.87948 0.04522 0.66533 0.0
C94 C 0.82346 0.06429 0.65966 0.0
C95 C 0.8251 0.09686 0.6443 0.0
P96 P 0.80884 0.40681 0.10176 0.0
H97 H 0.85092 0.45813 0.14389 0.0
H98 H 0.79501 0.49938 0.17544 0.0
H99 H 0.61734 0.46657 0.13919 0.0
H100 H 0.67369 0.4252 0.10724 0.0
H101 H 0.88413 0.34205 0.09156 0.0
H102 H 0.90799 0.28812 0.12048 0.0
H103 H 0.77661 0.32505 0.1831 0.0
H104 H 0.75237 0.37873 0.15434 0.0
H105 H 0.82562 0.44584 0.04903 0.0
H106 H 0.72101 0.35219 0.0783 0.0
O107 O 0.88186 0.42301 0.09727 0.0
H108 H 0.79694 0.43133 1.0006 0.0
H109 H 0.69133 0.33795 0.02964 0.0
C110 C 0.76654 0.43943 0.12267 0.0
C111 C 0.80001 0.46013 0.14237 0.0
C112 C 0.76817 0.48335 0.1606 0.0
C113 C 0.70215 0.48588 0.15971 0.0
C114 C 0.66837 0.46488 0.14019 0.0
C115 C 0.70043 0.44164 0.12182 0.0
C116 C 0.81701 0.36457 0.12085 0.0
C117 C 0.85963 0.33823 0.11127 0.0
C118 C 0.87325 0.30757 0.12771 0.0
C119 C 0.84428 0.30293 0.1539 0.0
C120 C 0.79942 0.32836 0.16293 0.0
C121 C 0.78575 0.359 0.14647 0.0
C122 C 0.77637 0.39974 0.06721 0.0
C123 C 0.79559 0.42251 0.04509 0.0
C124 C 0.77926 0.41425 0.01746 0.0
C125 C 0.74278 0.38329 0.01149 0.0
C126 C 0.71996 0.3618 0.0338 0.0
C127 C 0.73681 0.36994 0.06152 0.0
P128 P 0.80991 0.59436 0.6076 0.0
H129 H 0.85126 0.64198 0.56209 0.0
H130 H 0.82412 0.64424 0.51205 0.0
H131 H 0.67426 0.56672 0.52624 0.0
H132 H 0.70201 0.56395 0.57614 0.0
H133 H 0.91315 0.61137 0.64558 0.0
H134 H 0.9389 0.66471 0.6739 0.0
H135 H 0.77188 0.71916 0.64332 0.0
H136 H 0.74654 0.66561 0.61428 0.0
H137 H 0.81813 0.51736 0.62356 0.0
H138 H 0.69091 0.60716 0.63785 0.0
O139 O 0.8777 0.57226 0.60229 0.0
H140 H 0.75221 0.47796 0.653 0.0
H141 H 0.62449 0.56734 0.66738 0.0
C142 C 0.77818 0.60324 0.57302 0.0
C143 C 0.81141 0.62625 0.55462 0.0
C144 C 0.79617 0.6274 0.52604 0.0
C145 C 0.74736 0.60552 0.51536 0.0
C146 C 0.71204 0.58385 0.53402 0.0
C147 C 0.7277 0.58246 0.56257 0.0
C148 C 0.8287 0.63485 0.6273 0.0
C149 C 0.8823 0.63487 0.64461 0.0
C150 C 0.89685 0.66521 0.66095 0.0
C151 C 0.85749 0.69594 0.66066 0.0
C152 C 0.80301 0.69575 0.64373 0.0
C153 C 0.78873 0.66535 0.62712 0.0
C154 C 0.75978 0.56535 0.62871 0.0
C155 C 0.77621 0.52871 0.63308 0.0
C156 C 0.73873 0.50619 0.64993 0.0
C157 C 0.68401 0.51988 0.66261 0.0
C158 C 0.667 0.55645 0.65802 0.0
C159 C 0.70471 0.57906 0.64114 0.0
P160 P 0.80246 0.85646 0.10633 0.0
H161 H 0.86758 0.86914 0.15861 0.0
H162 H 0.8921 0.92415 0.18523 0.0
H163 H 0.78902 0.98908 0.12505 0.0
H164 H 0.76155 0.93357 0.09906 0.0
H165 H 0.83172 0.8018 0.14849 0.0
H166 H 0.76689 0.76217 0.17799 0.0
H167 H 0.59823 0.80637 0.14016 0.0
H168 H 0.66367 0.84758 0.11118 0.0
H169 H 0.84207 0.90917 0.0639 0.0
H170 H 0.71476 0.81748 0.0687 0.0
O171 O 0.87291 0.83639 0.10381 0.0
H172 H 0.82212 0.91421 0.01344 0.0
H173 H 0.69458 0.82278 0.01825 0.0
C174 C 0.8143 0.89736 0.12642 0.0
C175 C 0.84944 0.8951 0.15128 0.0
C176 C 0.86333 0.92643 0.16652 0.0
C177 C 0.84284 0.96069 0.15698 0.0
C178 C 0.80539 0.96288 0.13269 0.0
C179 C 0.79036 0.93126 0.11771 0.0
C180 C 0.7526 0.82671 0.12687 0.0
C181 C 0.78085 0.80301 0.14633 0.0
C182 C 0.7439 0.78051 0.16331 0.0
C183 C 0.67784 0.78108 0.16108 0.0
C184 C 0.64918 0.80541 0.14207 0.0
C185 C 0.68644 0.82858 0.12538 0.0
C186 C 0.77752 0.86412 0.07052 0.0
C187 C 0.80804 0.89098 0.05438 0.0
C188 C 0.79718 0.89368 0.02554 0.0
C189 C 0.75643 0.8691 0.0122 0.0
C190 C 0.72553 0.84231 0.02826 0.0
C191 C 0.73657 0.83958 0.05714 0.0
P192 P 0.29882 0.89911 0.40193 0.0
H193 H 0.35906 0.88231 0.45512 0.0
H194 H 0.32039 0.88044 0.50345 0.0
H195 H 0.13004 0.897 0.47384 0.0
H196 H 0.16883 0.89964 0.42539 0.0
H197 H 0.40553 0.87384 0.36881 0.0
H198 H 0.42139 0.82046 0.3393 0.0
H199 H 0.2366 0.78054 0.36199 0.0
H200 H 0.22198 0.83327 0.39292 0.0
H201 H 0.31243 0.97476 0.38303 0.0
H202 H 0.17687 0.88773 0.37336 0.0
O203 O 0.36834 0.91995 0.40608 0.0
H204 H 0.24773 0.01399 0.3529 0.0
H205 H 0.11179 0.92733 0.34355 0.0
C206 C 0.26713 0.89185 0.43663 0.0
C207 C 0.30891 0.88526 0.45891 0.0
C208 C 0.2869 0.88414 0.48649 0.0
C209 C 0.22251 0.88911 0.49224 0.0
C210 C 0.17999 0.89344 0.46982 0.0
C211 C 0.20222 0.89494 0.44217 0.0
C212 C 0.31278 0.85737 0.3833 0.0
C213 C 0.36888 0.85328 0.36805 0.0
C214 C 0.37786 0.82293 0.35104 0.0
C215 C 0.33029 0.79651 0.34851 0.0
C216 C 0.27404 0.80053 0.36381 0.0
C217 C 0.2657 0.83057 0.38139 0.0
C218 C 0.24973 0.92817 0.38045 0.0
C219 C 0.26898 0.96397 0.37445 0.0
C220 C 0.23227 0.98635 0.35717 0.0
C221 C 0.17549 0.97334 0.34578 0.0
C222 C 0.15591 0.93763 0.35188 0.0
C223 C 0.19297 0.91513 0.36899 0.0
P224 P 0.37452 0.65519 0.88708 0.0
H225 H 0.45511 0.62682 0.84292 0.0
H226 H 0.46047 0.56785 0.81936 0.0
H227 H 0.30686 0.52804 0.87036 0.0
H228 H 0.3027 0.58704 0.89468 0.0
H229 H 0.36912 0.73133 0.86893 0.0
H230 H 0.28869 0.76709 0.844 0.0
H231 H 0.16629 0.67318 0.84208 0.0
H232 H 0.24638 0.63736 0.86728 0.0
H233 H 0.41659 0.60312 0.92988 0.0
H234 H 0.31085 0.70353 0.92672 0.0
O235 O 0.4437 0.67618 0.88234 0.0
H236 H 0.41632 0.60538 0.98129 0.0
H237 H 0.31116 0.70588 0.97808 0.0
C238 C 0.37935 0.61103 0.87093 0.0
C239 C 0.42306 0.60534 0.84936 0.0
C240 C 0.42587 0.57182 0.83577 0.0
C241 C 0.38426 0.54361 0.84321 0.0
C242 C 0.33957 0.54946 0.86446 0.0
C243 C 0.33736 0.58297 0.87834 0.0
C244 C 0.31425 0.68148 0.86955 0.0
C245 C 0.32519 0.7183 0.86308 0.0
C246 C 0.27949 0.73868 0.84882 0.0
C247 C 0.22221 0.72252 0.84089 0.0
C248 C 0.2107 0.68587 0.84772 0.0
C249 C 0.25636 0.66552 0.86213 0.0
C250 C 0.36235 0.65266 0.92443 0.0
C251 C 0.39177 0.62506 0.94019 0.0
C252 C 0.39199 0.62643 0.9695 0.0
C253 C 0.36367 0.65578 0.98343 0.0
C254 C 0.33289 0.68291 0.9677 0.0
C255 C 0.33249 0.68144 0.9384 0.0
Eu256 Eu 0.06595 0.13238 0.2213 0.0
C257 C 0.76706 0.12723 0.25566 0.0
N258 N 0.8122 0.15341 0.25798 0.0
C259 C 0.73961 0.19826 0.24031 0.0
C260 C 0.70696 0.13539 0.24447 0.0
C261 C 0.79812 0.18894 0.2519 0.0
C262 C 0.69409 0.17128 0.23621 0.0
C263 C 0.73412 0.06465 0.2638 0.0
C264 C 0.78046 0.09224 0.26506 0.0
C265 C 0.67482 0.07246 0.25203 0.0
C266 C 0.66132 0.10772 0.24233 0.0
Eu267 Eu 0.91026 0.13446 0.27726 0.0
N268 N 0.83841 0.08531 0.27598 0.0
C269 C 0.74848 0.03016 0.2748 0.0
C270 C 0.85146 0.05242 0.28827 0.0
C271 C 0.80715 0.02417 0.28742 0.0
H272 H 0.8314 0.21046 0.25632 0.0
H273 H 0.81816 0.99787 0.29658 0.0
H274 H 0.19133 0.09813 0.25356 0.0
H275 H 0.04855 0.2636 0.16598 0.0
H276 H 0.8966 0.04789 0.29829 0.0
H277 H 0.71417 0.00825 0.27419 0.0
H278 H 0.0234 0.19917 0.17543 0.0
H279 H 0.72934 0.22634 0.23494 0.0
H280 H 0.63881 0.05154 0.25065 0.0
H281 H 0.61507 0.11346 0.23363 0.0
H282 H 0.29426 0.11888 0.27251 0.0
H283 H 0.64858 0.17864 0.22745 0.0
H284 H 0.13552 0.29367 0.19167 0.0
N285 N 0.16411 0.15097 0.23979 0.0
C286 C 0.18069 0.18641 0.23662 0.0
C287 C 0.26261 0.1382 0.2626 0.0
C288 C 0.23819 0.19963 0.24745 0.0
C289 C 0.20457 0.12654 0.25186 0.0
C290 C 0.27917 0.17502 0.2607 0.0
N291 N 0.08974 0.19385 0.2088 0.0
C292 C 0.05926 0.21236 0.18787 0.0
C293 C 0.1594 0.24521 0.21553 0.0
C294 C 0.14163 0.20877 0.22099 0.0
C295 C 0.12349 0.26561 0.19648 0.0
C296 C 0.07437 0.24874 0.18196 0.0
H297 H 0.32408 0.18403 0.26909 0.0
H298 H 0.2974 0.2474 0.25233 0.0
H299 H 0.22835 0.28741 0.22426 0.0
O300 O 0.09492 0.13157 0.17737 0.0
O301 O 0.08336 0.15058 0.266 0.0
O302 O 0.98895 0.17581 0.27317 0.0
O303 O 0.12242 0.08746 0.20444 0.0
O304 O 0.97232 0.15859 0.20848 0.0
O305 O 0.93214 0.1829 0.24912 0.0
O306 O 0.93189 0.13016 0.32209 0.0
O307 O 0.91641 0.08642 0.24683 0.0
O308 O 0.96984 0.11004 0.20887 0.0
O309 O 0.85065 0.16057 0.30863 0.0
O310 O 0.9863 0.09428 0.28867 0.0
O311 O 0.06349 0.08569 0.25368 0.0
C312 C 0.04597 0.16928 0.28233 0.0
C313 C 0.18721 0.10002 0.1646 0.0
C314 C 0.24455 0.09941 0.1202 0.0
C315 C 0.30158 0.09604 0.13503 0.0
C316 C 0.24469 0.09662 0.17908 0.0
C317 C 0.30153 0.09477 0.1643 0.0
C318 C 0.18751 0.10164 0.13513 0.0
C319 C 0.93819 0.18306 0.22171 0.0
C320 C 0.12616 0.10133 0.17939 0.0
C321 C 0.25387 0.23655 0.24379 0.0
C322 C 0.21443 0.25935 0.22789 0.0
C323 C 0.93727 0.08383 0.22089 0.0
C324 C 0.84344 0.13008 0.35218 0.0
C325 C 0.82108 0.12044 0.40179 0.0
C326 C 0.7705 0.09758 0.39461 0.0
C327 C 0.79213 0.10747 0.34541 0.0
C328 C 0.85777 0.13655 0.38049 0.0
C329 C 0.75619 0.09116 0.36653 0.0
C330 C 0.03693 0.07837 0.27839 0.0
C331 C 0.8815 0.14744 0.32996 0.0
H332 H 0.34603 0.0943 0.1239 0.0
H333 H 0.24578 0.09517 0.2017 0.0
H334 H 0.34569 0.09212 0.17557 0.0
H335 H 0.14334 0.10421 0.12375 0.0
H336 H 0.74181 0.085 0.41079 0.0
H337 H 0.77933 0.10267 0.32385 0.0
H338 H 0.89683 0.15428 0.38597 0.0
H339 H 0.7168 0.07373 0.36111 0.0
Eu340 Eu 0.42963 0.35546 0.7274 0.0
C341 C 0.70636 0.40288 0.77114 0.0
N342 N 0.67841 0.37036 0.76564 0.0
C343 C 0.76849 0.3519 0.73887 0.0
C344 C 0.76567 0.41181 0.75954 0.0
C345 C 0.70988 0.34425 0.75101 0.0
C346 C 0.79605 0.38608 0.74274 0.0
C347 C 0.70584 0.4599 0.79653 0.0
C348 C 0.67655 0.42668 0.78928 0.0
C349 C 0.76366 0.46957 0.78414 0.0
C350 C 0.79345 0.44561 0.76564 0.0
Eu351 Eu 0.57702 0.36063 0.785 0.0
N352 N 0.62044 0.41666 0.80082 0.0
C353 C 0.67685 0.48207 0.81648 0.0
C354 C 0.59435 0.43709 0.8217 0.0
C355 C 0.62138 0.47031 0.82944 0.0
H356 H 0.69048 0.31726 0.74905 0.0
H357 H 0.59967 0.48666 0.84559 0.0
H358 H 0.30812 0.39191 0.76604 0.0
H359 H 0.4439 0.22244 0.67773 0.0
H360 H 0.55281 0.42778 0.8327 0.0
H361 H 0.69784 0.50777 0.82259 0.0
H362 H 0.47585 0.28588 0.68737 0.0
H363 H 0.79263 0.33129 0.72679 0.0
H364 H 0.78639 0.49518 0.78918 0.0
H365 H 0.83869 0.4531 0.75671 0.0
H366 H 0.21266 0.37041 0.78972 0.0
H367 H 0.84166 0.39189 0.73345 0.0
H368 H 0.34929 0.19645 0.70079 0.0
N369 N 0.33334 0.33952 0.75013 0.0
C370 C 0.31314 0.30466 0.74588 0.0
C371 C 0.241 0.35149 0.7778 0.0
C372 C 0.25753 0.2915 0.75873 0.0
C373 C 0.29629 0.36342 0.76463 0.0
C374 C 0.22211 0.31525 0.77526 0.0
N375 N 0.40128 0.29518 0.71623 0.0
C376 C 0.43491 0.27467 0.69777 0.0
C377 C 0.32758 0.24599 0.72328 0.0
C378 C 0.34749 0.28208 0.72818 0.0
C379 C 0.3631 0.2243 0.7051 0.0
C380 C 0.41666 0.23883 0.69211 0.0
H381 H 0.17915 0.30617 0.78547 0.0
H382 H 0.196 0.24475 0.76422 0.0
H383 H 0.25742 0.20491 0.73328 0.0
O384 O 0.42557 0.35791 0.68093 0.0
O385 O 0.44945 0.30787 0.75616 0.0
O386 O 0.48064 0.33661 0.79577 0.0
O387 O 0.35101 0.38195 0.7064 0.0
O388 O 0.52775 0.33708 0.7136 0.0
O389 O 0.57308 0.31387 0.75414 0.0
O390 O 0.58518 0.3564 0.8305 0.0
O391 O 0.58983 0.39235 0.7442 0.0
O392 O 0.4891 0.40696 0.7282 0.0
O393 O 0.63596 0.31849 0.80466 0.0
O394 O 0.49986 0.40109 0.79294 0.0
O395 O 0.4164 0.39895 0.76085 0.0
C396 C 0.45398 0.30865 0.7834 0.0
C397 C 0.33765 0.38843 0.65626 0.0
C398 C 0.31921 0.38917 0.60573 0.0
C399 C 0.26936 0.41378 0.60953 0.0
C400 C 0.2873 0.41306 0.65951 0.0
C401 C 0.25357 0.42563 0.63629 0.0
C402 C 0.35368 0.37655 0.62915 0.0
C403 C 0.56824 0.31531 0.72657 0.0
C404 C 0.37236 0.37567 0.68139 0.0
C405 C 0.23831 0.25533 0.75433 0.0
C406 C 0.27319 0.23266 0.73664 0.0
C407 C 0.55061 0.41188 0.72875 0.0
C408 C 0.68483 0.33849 0.84702 0.0
C409 C 0.73138 0.35258 0.89263 0.0
C410 C 0.79024 0.35752 0.87964 0.0
C411 C 0.74421 0.34364 0.83447 0.0
C412 C 0.67879 0.34277 0.87623 0.0
C413 C 0.79653 0.35298 0.85075 0.0
C414 C 0.44535 0.41244 0.78306 0.0
C415 C 0.62809 0.33119 0.82988 0.0
H416 H 0.24259 0.42375 0.59171 0.0
H417 H 0.27398 0.4228 0.68005 0.0
H418 H 0.21501 0.44462 0.63905 0.0
H419 H 0.39227 0.35757 0.6262 0.0
H420 H 0.83128 0.36502 0.8919 0.0
H421 H 0.7502 0.34086 0.81207 0.0
H422 H 0.63314 0.33915 0.88614 0.0
H423 H 0.84205 0.357 0.8409 0.0
Eu424 Eu 0.05133 0.87953 0.72858 0.0
C425 C 0.78826 0.81335 0.76991 0.0
N426 N 0.81123 0.84721 0.76433 0.0
C427 C 0.7216 0.86021 0.73521 0.0
C428 C 0.73185 0.80108 0.75735 0.0
C429 C 0.7777 0.87115 0.74815 0.0
C430 C 0.69895 0.82486 0.73955 0.0
C431 C 0.7975 0.75612 0.79524 0.0
C432 C 0.82086 0.79116 0.78857 0.0
C433 C 0.74235 0.74338 0.78216 0.0
C434 C 0.70962 0.7658 0.76326 0.0
Eu435 Eu 0.90735 0.86314 0.78629 0.0
N436 N 0.87439 0.8041 0.80075 0.0
C437 C 0.82977 0.73508 0.81516 0.0
C438 C 0.90409 0.78436 0.82128 0.0
C439 C 0.88283 0.74946 0.82848 0.0
H440 H 0.79391 0.89876 0.74527 0.0
H441 H 0.90714 0.73379 0.84446 0.0
H442 H 0.17959 0.82844 0.74687 0.0
H443 H 0.04151 0.02639 0.71065 0.0
H444 H 0.94401 0.79551 0.83245 0.0
H445 H 0.81333 0.70805 0.82083 0.0
H446 H 0.00848 0.96204 0.70531 0.0
H447 H 0.69567 0.8791 0.72204 0.0
H448 H 0.72411 0.71642 0.78683 0.0
H449 H 0.66662 0.7558 0.75365 0.0
H450 H 0.28221 0.83745 0.77011 0.0
H451 H 0.65539 0.81647 0.72953 0.0
H452 H 0.13867 0.04104 0.73731 0.0
N453 N 0.15499 0.88481 0.7475 0.0
C454 C 0.17604 0.91931 0.75208 0.0
C455 C 0.25246 0.8607 0.76548 0.0
C456 C 0.23501 0.92575 0.76492 0.0
C457 C 0.19372 0.85571 0.75262 0.0
C458 C 0.27271 0.89583 0.77214 0.0
N459 N 0.084 0.94117 0.7298 0.0
C460 C 0.05035 0.96842 0.71718 0.0
C461 C 0.16085 0.98451 0.74618 0.0
C462 C 0.13979 0.94837 0.74272 0.0
C463 C 0.12419 0.01288 0.73503 0.0
C464 C 0.06927 0.00474 0.72002 0.0
H465 H 0.31828 0.89961 0.78206 0.0
H466 H 0.29968 0.96719 0.77984 0.0
H467 H 0.23452 0.01867 0.76355 0.0
O468 O 0.03977 0.89076 0.68362 0.0
O469 O 0.0276 0.92111 0.76161 0.0
O470 O 0.0008 0.88797 0.80034 0.0
O471 O 0.11756 0.85796 0.69788 0.0
O472 O 0.94975 0.89483 0.71839 0.0
O473 O 0.90817 0.91469 0.75985 0.0
O474 O 0.88823 0.86325 0.83119 0.0
O475 O 0.8992 0.83625 0.74331 0.0
O476 O 0.00191 0.82471 0.72919 0.0
O477 O 0.84368 0.9035 0.80475 0.0
O478 O 0.99373 0.82881 0.7949 0.0
O479 O 0.07054 0.83332 0.75976 0.0
C480 C 0.03231 0.91468 0.78845 0.0
C481 C 0.13486 0.89402 0.65772 0.0
C482 C 0.17758 0.90502 0.61092 0.0
C483 C 0.22201 0.92911 0.62246 0.0
C484 C 0.17972 0.91819 0.66878 0.0
C485 C 0.22281 0.93573 0.6512 0.0
C486 C 0.13345 0.88773 0.62866 0.0
C487 C 0.91302 0.91715 0.73246 0.0
C488 C 0.09154 0.87417 0.67653 0.0
C489 C 0.25501 0.96174 0.76958 0.0
C490 C 0.21797 0.99107 0.76026 0.0
C491 C 0.94109 0.81753 0.72893 0.0
C492 C 0.78843 0.88344 0.84562 0.0
C493 C 0.73623 0.8754 0.89084 0.0
C494 C 0.67898 0.86871 0.87693 0.0
C495 C 0.73087 0.87652 0.83199 0.0
C496 C 0.79074 0.88293 0.87506 0.0
C497 C 0.67642 0.86936 0.84765 0.0
C498 C 0.04813 0.81978 0.78357 0.0
C499 C 0.84735 0.88951 0.82986 0.0
H500 H 0.25623 0.94272 0.60915 0.0
H501 H 0.18207 0.92312 0.69104 0.0
H502 H 0.25736 0.95425 0.65993 0.0
H503 H 0.09909 0.86903 0.61993 0.0
H504 H 0.63655 0.86272 0.88876 0.0
H505 H 0.72806 0.87637 0.80933 0.0
H506 H 0.83517 0.88781 0.88574 0.0
H507 H 0.63219 0.86399 0.83705 0.0
Eu508 Eu 0.41662 0.62292 0.22692 0.0
C509 C 0.63986 0.70577 0.28397 0.0
N510 N 0.6406 0.66931 0.27975 0.0
C511 C 0.74372 0.67372 0.25926 0.0
C512 C 0.69011 0.72808 0.2749 0.0
C513 C 0.6928 0.65276 0.26883 0.0
C514 C 0.74186 0.71165 0.26182 0.0
C515 C 0.59061 0.75737 0.3063 0.0
C516 C 0.59044 0.7202 0.299 0.0
C517 C 0.6383 0.78036 0.29582 0.0
C518 C 0.68792 0.76574 0.28002 0.0
Eu519 Eu 0.54766 0.63649 0.29142 0.0
N520 N 0.54535 0.69711 0.30871 0.0
C521 C 0.54493 0.76977 0.32512 0.0
C522 C 0.50502 0.7082 0.32923 0.0
C523 C 0.50336 0.74478 0.33738 0.0
H524 H 0.6937 0.6235 0.26631 0.0
H525 H 0.47053 0.75362 0.35329 0.0
H526 H 0.31075 0.69089 0.23875 0.0
H527 H 0.36031 0.47867 0.21504 0.0
H528 H 0.47399 0.68875 0.3393 0.0
H529 H 0.54364 0.79806 0.33149 0.0
H530 H 0.42037 0.53582 0.20685 0.0
H531 H 0.78411 0.66066 0.24976 0.0
H532 H 0.6386 0.80915 0.30073 0.0
H533 H 0.72554 0.7835 0.27284 0.0
H534 H 0.20878 0.69894 0.26267 0.0
H535 H 0.78136 0.72784 0.25444 0.0
H536 H 0.26269 0.47978 0.24353 0.0
N537 N 0.31447 0.63361 0.24606 0.0
C538 C 0.28018 0.60359 0.25298 0.0
C539 C 0.22881 0.67196 0.2606 0.0
C540 C 0.22043 0.60668 0.26582 0.0
C541 C 0.28735 0.66734 0.24756 0.0
C542 C 0.19588 0.64152 0.27045 0.0
N543 N 0.35832 0.56811 0.23131 0.0
C544 C 0.37748 0.53634 0.21914 0.0
C545 C 0.26679 0.53805 0.25036 0.0
C546 C 0.30277 0.56977 0.24528 0.0
C547 C 0.28883 0.50479 0.23999 0.0
C548 C 0.34382 0.50405 0.22383 0.0
H549 H 0.15023 0.6451 0.28028 0.0
H550 H 0.14057 0.57684 0.28277 0.0
H551 H 0.18137 0.51663 0.2693 0.0
O552 O 0.44357 0.61915 0.18287 0.0
O553 O 0.44182 0.57561 0.25623 0.0
O554 O 0.45535 0.60628 0.29691 0.0
O555 O 0.34857 0.63334 0.19319 0.0
O556 O 0.505 0.5893 0.22087 0.0
O557 O 0.58123 0.59881 0.25587 0.0
O558 O 0.57808 0.63733 0.33508 0.0
O559 O 0.57394 0.65525 0.24773 0.0
O560 O 0.48078 0.67337 0.2267 0.0
O561 O 0.5916 0.58848 0.31116 0.0
O562 O 0.44505 0.65454 0.29543 0.0
O563 O 0.41771 0.67542 0.25207 0.0
C564 C 0.4443 0.57589 0.28365 0.0
C565 C 0.39138 0.6591 0.15209 0.0
C566 C 0.38711 0.67867 0.10321 0.0
C567 C 0.39664 0.71485 0.11169 0.0
C568 C 0.40115 0.69537 0.16024 0.0
C569 C 0.40368 0.72309 0.14007 0.0
C570 C 0.38458 0.65079 0.12354 0.0
C571 C 0.56166 0.58422 0.23188 0.0
C572 C 0.38947 0.62978 0.17319 0.0
C573 C 0.18608 0.57502 0.27251 0.0
C574 C 0.20924 0.54075 0.2648 0.0
C575 C 0.5429 0.67485 0.22929 0.0
C576 C 0.66136 0.59964 0.34979 0.0
C577 C 0.72042 0.59853 0.39394 0.0
C578 C 0.77662 0.59424 0.37872 0.0
C579 C 0.71801 0.59521 0.335 0.0
C580 C 0.66279 0.60108 0.37931 0.0
C581 C 0.77528 0.59249 0.34946 0.0
C582 C 0.416 0.67861 0.27941 0.0
C583 C 0.6005 0.60448 0.33515 0.0
H584 H 0.39896 0.73663 0.0963 0.0
H585 H 0.40687 0.70221 0.18215 0.0
H586 H 0.41129 0.75101 0.14645 0.0
H587 H 0.37765 0.62277 0.1171 0.0
H588 H 0.8215 0.59218 0.38953 0.0
H589 H 0.71806 0.59406 0.31235 0.0
H590 H 0.61921 0.60454 0.39091 0.0
H591 H 0.81887 0.58915 0.33793 0.0
C592 C 0.12625 0.99265 0.29987 0.0
C593 C 0.13482 0.99819 0.32898 0.0
C594 C 0.07743 0.05593 0.32578 0.0
C595 C 0.06658 0.04977 0.29661 0.0
N596 N 0.05863 0.00496 0.26017 0.0
N597 N 0.10204 0.029 0.37096 0.0
C598 C 0.08482 0.01601 0.28479 0.0
C599 C 0.10506 0.0279 0.34235 0.0
N600 N 0.15827 0.9656 0.28645 0.0
N601 N 0.06449 0.08886 0.33771 0.0
H602 H 0.12137 0.00877 0.38381 0.0
H603 H 0.07472 0.04782 0.38182 0.0
H604 H 0.04617 0.11105 0.32687 0.0
H605 H 0.07857 0.09568 0.35794 0.0
H606 H 0.15805 0.96286 0.26473 0.0
H607 H 0.18913 0.94789 0.29678 0.0
H608 H 0.06686 0.97942 0.25145 0.0
H609 H 0.02141 0.01923 0.25097 0.0
C610 C 0.41184 0.47686 0.84286 0.0
C611 C 0.38862 0.50802 0.82858 0.0
C612 C 0.39624 0.47586 0.78385 0.0
C613 C 0.41671 0.44383 0.79828 0.0
N614 N 0.42499 0.41156 0.84251 0.0
N615 N 0.34151 0.5337 0.78701 0.0
C616 C 0.41806 0.4436 0.82812 0.0
C617 C 0.37494 0.50626 0.79957 0.0
N618 N 0.43157 0.47934 0.87007 0.0
N619 N 0.40135 0.47876 0.75539 0.0
H620 H 0.32495 0.55625 0.79801 0.0
H621 H 0.32475 0.53219 0.76651 0.0
H622 H 0.41822 0.45816 0.74265 0.0
H623 H 0.39424 0.50315 0.74455 0.0
H624 H 0.45599 0.4585 0.88031 0.0
H625 H 0.42874 0.50326 0.88167 0.0
H626 H 0.4198 0.40947 0.86417 0.0
H627 H 0.42998 0.38654 0.83264 0.0
C628 C 0.60677 0.46816 0.66575 0.0
C629 C 0.64335 0.49503 0.67955 0.0
C630 C 0.60434 0.47274 0.72487 0.0
C631 C 0.57745 0.44207 0.71147 0.0
N632 N 0.55366 0.40991 0.66874 0.0
N633 N 0.68158 0.52137 0.72257 0.0
C634 C 0.57821 0.43977 0.68174 0.0
C635 C 0.64316 0.49707 0.70923 0.0
N636 N 0.59829 0.47028 0.63737 0.0
N637 N 0.59006 0.47963 0.75221 0.0
H638 H 0.71036 0.53984 0.71186 0.0
H639 H 0.68837 0.52126 0.7442 0.0
H640 H 0.55917 0.46322 0.76372 0.0
H641 H 0.6032 0.50351 0.76238 0.0
H642 H 0.56676 0.45388 0.6264 0.0
H643 H 0.61842 0.49078 0.62503 0.0
H644 H 0.55977 0.40441 0.64754 0.0
H645 H 0.531 0.3891 0.67958 0.0
C646 C 0.93126 0.00207 0.17134 0.0
C647 C 0.86571 0.99417 0.1713 0.0
C648 C 0.84686 0.04993 0.19787 0.0
C649 C 0.91262 0.05372 0.20279 0.0
N650 N 0.01772 0.03035 0.19579 0.0
N651 N 0.76091 0.00861 0.18774 0.0
C652 C 0.95496 0.02907 0.18976 0.0
C653 C 0.82329 0.01756 0.18543 0.0
N654 N 0.97075 0.98442 0.1533 0.0
N655 N 0.80729 0.07826 0.20312 0.0
H656 H 0.74182 0.98496 0.17914 0.0
H657 H 0.72959 0.02314 0.20028 0.0
H658 H 0.82411 0.10314 0.21029 0.0
H659 H 0.75981 0.07833 0.19731 0.0
H660 H 0.0179 0.99172 0.15048 0.0
H661 H 0.95486 0.9651 0.13897 0.0
H662 H 0.0501 0.01081 0.18926 0.0
H663 H 0.03573 0.04883 0.21001 0.0
C664 C 0.87934 0.01496 0.71257 0.0
C665 C 0.87798 0.01177 0.68298 0.0
C666 C 0.87381 0.94518 0.68749 0.0
C667 C 0.88374 0.94849 0.71675 0.0
N668 N 0.85805 0.98548 0.7569 0.0
N669 N 0.8729 0.97441 0.64168 0.0
C670 C 0.87542 0.98304 0.72945 0.0
C671 C 0.87404 0.97698 0.67024 0.0
N672 N 0.88661 0.04842 0.72462 0.0
N673 N 0.85967 0.91172 0.67675 0.0
H674 H 0.87095 0.99717 0.6285 0.0
H675 H 0.87741 0.94996 0.63093 0.0
H676 H 0.85268 0.88902 0.68969 0.0
H677 H 0.84759 0.90714 0.65593 0.0
H678 H 0.89616 0.05183 0.74587 0.0
H679 H 0.88825 0.07264 0.71308 0.0
H680 H 0.84745 0.01005 0.76664 0.0
H681 H 0.84387 0.96296 0.76865 0.0
C682 C 0.64414 0.5446 0.16715 0.0
C683 C 0.66906 0.51195 0.17845 0.0
C684 C 0.64268 0.53281 0.22584 0.0
C685 C 0.60671 0.56217 0.21428 0.0
N686 N 0.57635 0.59661 0.17272 0.0
N687 N 0.68495 0.4723 0.21821 0.0
C688 C 0.60833 0.56811 0.18457 0.0
C689 C 0.66644 0.50535 0.2077 0.0
N690 N 0.65719 0.55412 0.13999 0.0
N691 N 0.65684 0.53137 0.25374 0.0
H692 H 0.70245 0.45146 0.20563 0.0
H693 H 0.67722 0.46439 0.23894 0.0
H694 H 0.64447 0.55135 0.26797 0.0
H695 H 0.68789 0.5123 0.26231 0.0
H696 H 0.64719 0.57967 0.13147 0.0
H697 H 0.68338 0.53774 0.12652 0.0
H698 H 0.56642 0.59849 0.15137 0.0
H699 H 0.55892 0.61835 0.18419 0.0
C700 C 0.46401 0.48375 0.32034 0.0
C701 C 0.40221 0.47745 0.33068 0.0
C702 C 0.36955 0.53726 0.31273 0.0
C703 C 0.42934 0.54181 0.29968 0.0
N704 N 0.52828 0.51481 0.28607 0.0
N705 N 0.29241 0.49497 0.33155 0.0
C706 C 0.47498 0.51364 0.30197 0.0
C707 C 0.35386 0.50337 0.32554 0.0
N708 N 0.51287 0.46198 0.32884 0.0
N709 N 0.32751 0.56528 0.31293 0.0
H710 H 0.27868 0.47008 0.34028 0.0
H711 H 0.25446 0.51123 0.32541 0.0
H712 H 0.33603 0.58936 0.30217 0.0
H713 H 0.28642 0.5653 0.32492 0.0
H714 H 0.55994 0.46766 0.32417 0.0
H715 H 0.50715 0.44038 0.34292 0.0
H716 H 0.55992 0.49316 0.28463 0.0
H717 H 0.53712 0.53597 0.27214 0.0
C718 C 0.15455 0.95144 0.84001 0.0
C719 C 0.14385 0.98947 0.83764 0.0
C720 C 0.05518 0.97811 0.80575 0.0
C721 C 0.0697 0.94028 0.80603 0.0
N722 N 0.14307 0.89252 0.81831 0.0
N723 N 0.09166 0.03968 0.81454 0.0
C724 C 0.12189 0.92729 0.8219 0.0
C725 C 0.09632 0.00304 0.81942 0.0
N726 N 0.19534 0.93827 0.85984 0.0
N727 N 0.0009 0.99013 0.79326 0.0
H728 H 0.12046 0.05877 0.82445 0.0
H729 H 0.06302 0.05089 0.79897 0.0
H730 H 0.96878 0.97262 0.78375 0.0
H731 H 0.98468 0.01685 0.79464 0.0
H732 H 0.19979 0.91062 0.86453 0.0
H733 H 0.2207 0.95511 0.87334 0.0
H734 H 0.18491 0.88269 0.82701 0.0
H735 H 0.12247 0.87467 0.80414 0.0
C736 C 0.28272 0.12869 0.04536 0.0
C737 C 0.25553 0.09974 0.02981 0.0
C738 C 0.2211 0.07031 0.07353 0.0
C739 C 0.24497 0.10033 0.08895 0.0
N740 N 0.28531 0.16181 0.08916 0.0
N741 N 0.1867 0.04743 0.02845 0.0
C742 C 0.27171 0.13071 0.07471 0.0
C743 C 0.22086 0.07192 0.04374 0.0
N744 N 0.32152 0.15333 0.03238 0.0
N745 N 0.20138 0.03954 0.08727 0.0
H746 H 0.18503 0.04805 0.0066 0.0
H747 H 0.15539 0.02881 0.0374 0.0
H748 H 0.20138 0.03703 0.10904 0.0
H749 H 0.19014 0.01536 0.07708 0.0
H750 H 0.34833 0.17247 0.0432 0.0
H751 H 0.33118 0.15279 0.01097 0.0
H752 H 0.29879 0.18611 0.07947 0.0
H753 H 0.2773 0.16437 0.11062 0.0
C754 C 0.31742 0.33491 0.53781 0.0
C755 C 0.34281 0.3613 0.51908 0.0
C756 C 0.36718 0.40129 0.55869 0.0
C757 C 0.33423 0.37715 0.57681 0.0
N758 N 0.2735 0.32224 0.58379 0.0
N759 N 0.38629 0.42125 0.51093 0.0
C760 C 0.30854 0.34411 0.56647 0.0
C761 C 0.36672 0.39486 0.52933 0.0
N762 N 0.303 0.30084 0.52827 0.0
N763 N 0.39938 0.43019 0.56969 0.0
H764 H 0.38665 0.41764 0.48928 0.0
H765 H 0.39751 0.44774 0.51689 0.0
H766 H 0.40046 0.4356 0.59113 0.0
H767 H 0.42954 0.44678 0.55803 0.0
H768 H 0.2905 0.27921 0.54136 0.0
H769 H 0.30866 0.29325 0.50739 0.0
H770 H 0.24706 0.30016 0.57678 0.0
H771 H 0.26757 0.32751 0.60508 0.0
C772 C 0.76466 0.34196 0.97052 0.0
C773 C 0.73235 0.37254 0.98169 0.0
C774 C 0.69584 0.3893 0.93443 0.0
C775 C 0.7259 0.35782 0.92353 0.0
N776 N 0.77524 0.29965 0.93198 0.0
N777 N 0.65585 0.42048 0.97548 0.0
C778 C 0.75588 0.33268 0.94189 0.0
C779 C 0.69425 0.39467 0.96398 0.0
N780 N 0.80653 0.32291 0.98679 0.0
N781 N 0.6715 0.41496 0.91656 0.0
H782 H 0.65338 0.42489 0.99703 0.0
H783 H 0.62234 0.43506 0.96403 0.0
H784 H 0.67161 0.41209 0.89484 0.0
H785 H 0.65551 0.44035 0.9231 0.0
H786 H 0.83674 0.3031 0.97888 0.0
H787 H 0.81522 0.32893 0.00776 0.0
H788 H 0.79159 0.27868 0.94488 0.0
H789 H 0.76914 0.2919 0.91115 0.0
C790 C 0.89527 0.11731 0.47472 0.0
C791 C 0.85006 0.13755 0.49009 0.0
C792 C 0.79287 0.15164 0.44666 0.0
C793 C 0.83389 0.12806 0.43182 0.0
N794 N 0.92 0.08509 0.43186 0.0
N795 N 0.7514 0.17028 0.49167 0.0
C796 C 0.88422 0.11007 0.44586 0.0
C797 C 0.79771 0.15385 0.47631 0.0
N798 N 0.94951 0.10578 0.48757 0.0
N799 N 0.75021 0.17256 0.43226 0.0
H800 H 0.75337 0.1726 0.51342 0.0
H801 H 0.70865 0.17901 0.48319 0.0
H802 H 0.74543 0.17168 0.41051 0.0
H803 H 0.72355 0.19308 0.44148 0.0
H804 H 0.98737 0.09434 0.47687 0.0
H805 H 0.95901 0.1104 0.5087 0.0
H806 H 0.95258 0.06801 0.44165 0.0
H807 H 0.91398 0.07949 0.41062 0.0
C808 C 0.71385 0.89843 0.96821 0.0
C809 C 0.74934 0.87014 0.98113 0.0
C810 C 0.76985 0.84319 0.93506 0.0
C811 C 0.73975 0.8734 0.922 0.0
N812 N 0.69099 0.93255 0.92569 0.0
N813 N 0.82 0.81889 0.97683 0.0
C814 C 0.71375 0.90179 0.93846 0.0
C815 C 0.77973 0.84335 0.96455 0.0
N816 N 0.6789 0.9215 0.98437 0.0
N817 N 0.7874 0.81383 0.91937 0.0
H818 H 0.82867 0.81809 0.99834 0.0
H819 H 0.84899 0.80144 0.96551 0.0
H820 H 0.78096 0.81265 0.89772 0.0
H821 H 0.80321 0.78937 0.92805 0.0
H822 H 0.64677 0.94019 0.97616 0.0
H823 H 0.67801 0.91988 0.0062 0.0
H824 H 0.67785 0.95586 0.93656 0.0
H825 H 0.69003 0.93597 0.90398 0.0
C826 C 0.71194 0.63365 0.46944 0.0
C827 C 0.73666 0.60327 0.48441 0.0
C828 C 0.73975 0.56822 0.44068 0.0
C829 C 0.72253 0.59991 0.42527 0.0
N830 N 0.70057 0.66444 0.42457 0.0
N831 N 0.78452 0.54355 0.48346 0.0
C832 C 0.7106 0.63309 0.43955 0.0
C833 C 0.75321 0.57099 0.46981 0.0
N834 N 0.68833 0.6627 0.48382 0.0
N835 N 0.74172 0.5352 0.42759 0.0
H836 H 0.7964 0.54461 0.50465 0.0
H837 H 0.80395 0.52122 0.47322 0.0
H838 H 0.73148 0.53201 0.40636 0.0
H839 H 0.74744 0.51059 0.43828 0.0
H840 H 0.66371 0.68399 0.47428 0.0
H841 H 0.68835 0.66395 0.50565 0.0
H842 H 0.69857 0.69013 0.43368 0.0
H843 H 0.69946 0.66523 0.40274 0.0
C844 C 0.31715 0.6535 0.03198 0.0
C845 C 0.37011 0.65959 0.01436 0.0
C846 C 0.43587 0.67219 0.05559 0.0
C847 C 0.38144 0.67019 0.07283 0.0
N848 N 0.2686 0.66337 0.07733 0.0
N849 N 0.47773 0.68016 0.00874 0.0
C850 C 0.32156 0.66188 0.06102 0.0
C851 C 0.42902 0.6703 0.02599 0.0
N852 N 0.26312 0.63891 0.02104 0.0
N853 N 0.49436 0.67505 0.06756 0.0
H854 H 0.47472 0.67933 0.98694 0.0
H855 H 0.51927 0.69214 0.01591 0.0
H856 H 0.50124 0.67639 0.08918 0.0
H857 H 0.53627 0.67272 0.05632 0.0
H858 H 0.22518 0.63022 0.03323 0.0
H859 H 0.25826 0.63258 0.99986 0.0
H860 H 0.22292 0.66165 0.06934 0.0
H861 H 0.26996 0.66914 0.09869 0.0
C862 C 0.20512 0.8605 0.53966 0.0
C863 C 0.20102 0.89159 0.52192 0.0
C864 C 0.16391 0.92785 0.56167 0.0
C865 C 0.17829 0.89853 0.58009 0.0
N866 N 0.21882 0.83762 0.58701 0.0
N867 N 0.18398 0.95643 0.51675 0.0
C868 C 0.19993 0.86482 0.5692 0.0
C869 C 0.18175 0.92567 0.53303 0.0
N870 N 0.2133 0.82679 0.5282 0.0
N871 N 0.13266 0.95769 0.57157 0.0
H872 H 0.19774 0.95635 0.49579 0.0
H873 H 0.17748 0.98255 0.52467 0.0
H874 H 0.11832 0.95992 0.5924 0.0
H875 H 0.11546 0.97841 0.55864 0.0
H876 H 0.21052 0.80267 0.53976 0.0
H877 H 0.2168 0.82275 0.50663 0.0
H878 H 0.24174 0.81413 0.58031 0.0
H879 H 0.21614 0.83966 0.60874 0.0
C880 C 0.17634 0.2097 0.32721 0.0
C881 C 0.14763 0.24144 0.33794 0.0
C882 C 0.04602 0.22284 0.31737 0.0
C883 C 0.07561 0.19115 0.3058 0.0
N884 N 0.16129 0.14792 0.31233 0.0
N885 N 0.0532 0.27471 0.34884 0.0
C886 C 0.13839 0.18256 0.31457 0.0
C887 C 0.0819 0.2471 0.33453 0.0
N888 N 0.24058 0.20581 0.3282 0.0
N889 N 0.98366 0.22987 0.31258 0.0
H890 H 0.07806 0.29283 0.36151 0.0
H891 H 0.00449 0.27815 0.34998 0.0
H892 H 0.95083 0.20967 0.30814 0.0
H893 H 0.96371 0.25565 0.31464 0.0
H894 H 0.26448 0.18449 0.3186 0.0
H895 H 0.27078 0.22551 0.33643 0.0
H896 H 0.20353 0.13953 0.32155 0.0
H897 H 0.13546 0.12635 0.30424 0.0
C898 C 0.36109 0.26331 0.84312 0.0
C899 C 0.37452 0.22605 0.83839 0.0
C900 C 0.42924 0.2418 0.79466 0.0
C901 C 0.42136 0.27968 0.80057 0.0
N902 N 0.36029 0.32504 0.82478 0.0
N903 N 0.42913 0.17978 0.81228 0.0
C904 C 0.38215 0.29007 0.82342 0.0
C905 C 0.41029 0.21532 0.8148 0.0
N906 N 0.32972 0.27314 0.86693 0.0
N907 N 0.45143 0.23044 0.76932 0.0
H908 H 0.41527 0.1591 0.82605 0.0
H909 H 0.46315 0.17122 0.79801 0.0
H910 H 0.46462 0.24766 0.75317 0.0
H911 H 0.44975 0.20344 0.76276 0.0
H912 H 0.32514 0.29995 0.87363 0.0
H913 H 0.31156 0.25413 0.88114 0.0
H914 H 0.3268 0.33394 0.83912 0.0
H915 H 0.37015 0.34443 0.80941 0.0
C916 C 0.65634 0.23251 0.69617 0.0
C917 C 0.69116 0.24951 0.67445 0.0
C918 C 0.6472 0.30898 0.6871 0.0
C919 C 0.61158 0.29224 0.70908 0.0
N920 N 0.59409 0.23856 0.73814 0.0
N921 N 0.71181 0.30194 0.64547 0.0
C922 C 0.61916 0.25411 0.71457 0.0
C923 C 0.68404 0.28715 0.66878 0.0
N924 N 0.65714 0.1953 0.69856 0.0
N925 N 0.65118 0.34611 0.68552 0.0
H926 H 0.7406 0.28697 0.63207 0.0
H927 H 0.70219 0.32807 0.638 0.0
H928 H 0.63006 0.36319 0.69999 0.0
H929 H 0.68143 0.36015 0.67209 0.0
H930 H 0.62638 0.18048 0.71125 0.0
H931 H 0.68489 0.17867 0.6859 0.0
H932 H 0.60485 0.21237 0.7451 0.0
H933 H 0.56706 0.25245 0.7526 0.0
C934 C 0.91033 0.27949 0.19371 0.0
C935 C 0.86453 0.27273 0.17267 0.0
C936 C 0.86754 0.20735 0.18335 0.0
C937 C 0.91141 0.21412 0.20534 0.0
N938 N 0.96969 0.2573 0.23361 0.0
N939 N 0.79055 0.23217 0.15067 0.0
C940 C 0.93054 0.25046 0.21144 0.0
C941 C 0.84047 0.23719 0.16845 0.0
N942 N 0.93728 0.31331 0.19568 0.0
N943 N 0.8523 0.17236 0.17638 0.0
H944 H 0.77011 0.25344 0.13923 0.0
H945 H 0.76588 0.20773 0.14895 0.0
H946 H 0.86862 0.1498 0.18745 0.0
H947 H 0.82683 0.16543 0.15852 0.0
H948 H 0.97675 0.31894 0.20794 0.0
H949 H 0.92322 0.3355 0.18342 0.0
H950 H 0.97734 0.28326 0.24163 0.0
H951 H 0.99355 0.23707 0.24471 0.0
C952 C 0.87377 0.72539 0.70763 0.0
C953 C 0.87465 0.72825 0.67796 0.0
C954 C 0.91402 0.79107 0.68173 0.0
C955 C 0.9187 0.7868 0.71127 0.0
N956 N 0.91869 0.74649 0.75126 0.0
N957 N 0.90587 0.76164 0.63651 0.0
C958 C 0.90273 0.75304 0.72397 0.0
C959 C 0.8973 0.7606 0.6649 0.0
N960 N 0.84416 0.69657 0.72027 0.0
N961 N 0.92504 0.82433 0.66971 0.0
H962 H 0.89462 0.73991 0.62343 0.0
H963 H 0.929 0.78282 0.62613 0.0
H964 H 0.94023 0.84671 0.68115 0.0
H965 H 0.91497 0.83038 0.64884 0.0
H966 H 0.83656 0.69503 0.74181 0.0
H967 H 0.82178 0.67599 0.70897 0.0
H968 H 0.91397 0.72105 0.76085 0.0
H969 H 0.9427 0.76552 0.76342 0.0
C970 C 0.64872 0.71704 0.17358 0.0
C971 C 0.64 0.75478 0.17806 0.0
C972 C 0.56838 0.74059 0.21719 0.0
C973 C 0.5796 0.70277 0.21314 0.0
N974 N 0.65407 0.65824 0.1957 0.0
N975 N 0.60182 0.80295 0.20766 0.0
C976 C 0.62671 0.6918 0.19381 0.0
C977 C 0.60232 0.76682 0.20081 0.0
N978 N 0.67736 0.70504 0.14971 0.0
N979 N 0.52776 0.75142 0.23766 0.0
H980 H 0.62644 0.82271 0.19628 0.0
H981 H 0.5811 0.81321 0.22572 0.0
H982 H 0.50902 0.73325 0.2523 0.0
H983 H 0.51207 0.77809 0.23997 0.0
H984 H 0.67939 0.67753 0.1444 0.0
H985 H 0.69295 0.72265 0.13391 0.0
H986 H 0.69286 0.65069 0.18362 0.0
H987 H 0.64319 0.63948 0.21133 0.0
C988 C 0.34686 0.77231 0.29988 0.0
C989 C 0.33935 0.76545 0.32898 0.0
C990 C 0.35151 0.70055 0.32009 0.0
C991 C 0.37706 0.70807 0.29318 0.0
N992 N 0.38855 0.75267 0.25545 0.0
N993 N 0.33916 0.72215 0.36733 0.0
C994 C 0.37097 0.7443 0.28223 0.0
C995 C 0.34203 0.72926 0.33924 0.0
N996 N 0.3289 0.80531 0.28904 0.0
N997 N 0.33422 0.66593 0.32699 0.0
H998 H 0.33444 0.74245 0.38237 0.0
H999 H 0.34757 0.69631 0.37575 0.0
H1000 H 0.33449 0.64555 0.31202 0.0
H1001 H 0.3113 0.65914 0.34563 0.0
H1002 H 0.3265 0.81093 0.26766 0.0
H1003 H 0.30988 0.82598 0.30135 0.0
H1004 H 0.39454 0.77932 0.24831 0.0
H1005 H 0.39847 0.73361 0.24015 0.0
C1006 C 0.16593 0.743 0.79708 0.0
C1007 C 0.17325 0.74475 0.82652 0.0
C1008 C 0.0979 0.7952 0.82853 0.0
C1009 C 0.08777 0.79244 0.79897 0.0
N1010 N 0.09801 0.75549 0.75745 0.0
N1011 N 0.1348 0.76564 0.87104 0.0
C1012 C 0.11778 0.76395 0.78388 0.0
C1013 C 0.13543 0.76861 0.84246 0.0
N1014 N 0.20572 0.72186 0.78159 0.0
N1015 N 0.07524 0.82414 0.84336 0.0
H1016 H 0.16245 0.74684 0.88203 0.0
H1017 H 0.10248 0.77928 0.88364 0.0
H1018 H 0.04811 0.84493 0.83486 0.0
H1019 H 0.08865 0.82958 0.86392 0.0
H1020 H 0.20723 0.72281 0.75978 0.0
H1021 H 0.24061 0.70546 0.79058 0.0
H1022 H 0.11431 0.7329 0.7465 0.0
H1023 H 0.05982 0.76828 0.74779 0.0
loop_
_geom_bond_atom_site_label_1
_geom_bond_atom_site_label_2
_geom_bond_distance
_geom_bond_site_symmetry_2
_ccdc_geom_bond_type
P0 O11 1.490 . S
P0 C14 1.812 . S
P0 C20 1.803 . S
P0 C26 1.819 . S
H1 C15 0.941 . S
H2 C16 0.939 . S
H3 C18 0.940 . S
H4 C19 0.940 . S
H5 C21 0.939 . S
H6 C22 0.942 . S
H7 C24 0.940 . S
H8 C25 0.939 . S
H9 C27 0.941 . S
H10 C31 0.939 . S
O11 P0 1.490 . S
H12 C28 0.939 . S
H13 C30 0.940 . S
C14 P0 1.812 . S
C14 C15 1.389 . S
C14 C19 1.391 . S
C15 H1 0.941 . S
C15 C14 1.389 . S
C15 C16 1.397 . S
C16 H2 0.939 . S
C16 C15 1.397 . S
C16 C17 1.378 . S
C17 C16 1.378 . S
C17 C18 1.378 . S
C18 H3 0.940 . S
C18 C17 1.378 . S
C18 C19 1.396 . S
C19 H4 0.940 . S
C19 C14 1.391 . S
C19 C18 1.396 . S
C20 P0 1.803 . S
C20 C21 1.378 . S
C20 C25 1.400 . S
C21 H5 0.939 . S
C21 C20 1.378 . S
C21 C22 1.361 . S
C22 H6 0.942 . S
C22 C21 1.361 . S
C22 C23 1.369 . S
C23 C22 1.369 . S
C23 C24 1.404 . S
C24 H7 0.940 . S
C24 C23 1.404 . S
C24 C25 1.389 . S
C25 H8 0.939 . S
C25 C20 1.400 . S
C25 C24 1.389 . S
C26 P0 1.819 . S
C26 C27 1.391 . S
C26 C31 1.391 . S
C27 H9 0.941 . S
C27 C26 1.391 . S
C27 C28 1.396 . S
C28 H12 0.939 . S
C28 C27 1.396 . S
C28 C29 1.397 . S
C29 C28 1.397 . S
C29 C30 1.385 . S
C30 H13 0.940 . S
C30 C29 1.385 . S
C30 C31 1.388 . S
C31 H10 0.939 . S
C31 C26 1.391 . S
C31 C30 1.388 . S
P32 O43 1.490 . S
P32 C46 1.812 . S
P32 C52 1.803 . S
P32 C58 1.819 . S
H33 C47 0.941 . S
H34 C48 0.939 1_565 S
H35 C50 0.940 . S
H36 C51 0.940 . S
H37 C53 0.939 . S
H38 C54 0.942 . S
H39 C56 0.940 . S
H40 C57 0.939 . S
H41 C59 0.941 . S
H42 C63 0.939 . S
O43 P32 1.490 . S
H44 C60 0.939 . S
H45 C62 0.940 . S
C46 P32 1.812 . S
C46 C47 1.389 . S
C46 C51 1.391 . S
C47 H33 0.941 . S
C47 C46 1.389 . S
C47 C48 1.397 . S
C48 H34 0.939 1_545 S
C48 C47 1.397 . S
C48 C49 1.378 . S
C49 C48 1.378 . S
C49 C50 1.378 . S
C50 H35 0.940 . S
C50 C49 1.378 . S
C50 C51 1.396 . S
C51 H36 0.940 . S
C51 C46 1.391 . S
C51 C50 1.396 . S
C52 P32 1.803 . S
C52 C53 1.378 . S
C52 C57 1.400 . S
C53 H37 0.939 . S
C53 C52 1.378 . S
C53 C54 1.361 . S
C54 H38 0.942 . S
C54 C53 1.361 . S
C54 C55 1.369 . S
C55 C54 1.369 . S
C55 C56 1.404 . S
C56 H39 0.940 . S
C56 C55 1.404 . S
C56 C57 1.389 . S
C57 H40 0.939 . S
C57 C52 1.400 . S
C57 C56 1.389 . S
C58 P32 1.819 . S
C58 C59 1.391 . S
C58 C63 1.391 . S
C59 H41 0.941 . S
C59 C58 1.391 . S
C59 C60 1.396 . S
C60 H44 0.939 . S
C60 C59 1.396 . S
C60 C61 1.397 . S
C61 C60 1.397 . S
C61 C62 1.385 . S
C62 H45 0.940 . S
C62 C61 1.385 . S
C62 C63 1.388 . S
C63 H42 0.939 . S
C63 C58 1.391 . S
C63 C62 1.388 . S
P64 O75 1.490 . S
P64 C78 1.812 . S
P64 C84 1.803 . S
P64 C90 1.819 . S
H65 C79 0.941 . S
H66 C80 0.939 . S
H67 C82 0.940 . S
H68 C83 0.940 . S
H69 C85 0.939 . S
H70 C86 0.942 . S
H71 C88 0.940 . S
H72 C89 0.939 . S
H73 C91 0.941 . S
H74 C95 0.939 . S
O75 P64 1.490 . S
H76 C92 0.939 . S
H77 C94 0.940 . S
C78 P64 1.812 . S
C78 C79 1.389 . S
C78 C83 1.391 . S
C79 H65 0.941 . S
C79 C78 1.389 . S
C79 C80 1.397 . S
C80 H66 0.939 . S
C80 C79 1.397 . S
C80 C81 1.378 . S
C81 C80 1.378 . S
C81 C82 1.378 . S
C82 H67 0.940 . S
C82 C81 1.378 . S
C82 C83 1.396 . S
C83 H68 0.940 . S
C83 C78 1.391 . S
C83 C82 1.396 . S
C84 P64 1.803 . S
C84 C85 1.378 . S
C84 C89 1.400 . S
C85 H69 0.939 . S
C85 C84 1.378 . S
C85 C86 1.361 . S
C86 H70 0.942 . S
C86 C85 1.361 . S
C86 C87 1.369 . S
C87 C86 1.369 . S
C87 C88 1.404 . S
C88 H71 0.940 . S
C88 C87 1.404 . S
C88 C89 1.389 . S
C89 H72 0.939 . S
C89 C84 1.400 . S
C89 C88 1.389 . S
C90 P64 1.819 . S
C90 C91 1.391 . S
C90 C95 1.391 . S
C91 H73 0.941 . S
C91 C90 1.391 . S
C91 C92 1.396 . S
C92 H76 0.939 . S
C92 C91 1.396 . S
C92 C93 1.397 . S
C93 C92 1.397 . S
C93 C94 1.385 . S
C94 H77 0.940 . S
C94 C93 1.385 . S
C94 C95 1.388 . S
C95 H74 0.939 . S
C95 C90 1.391 . S
C95 C94 1.388 . S
P96 O107 1.490 . S
P96 C110 1.812 . S
P96 C116 1.803 . S
P96 C122 1.819 . S
H97 C111 0.941 . S
H98 C112 0.939 . S
H99 C114 0.940 . S
H100 C115 0.940 . S
H101 C117 0.939 . S
H102 C118 0.942 . S
H103 C120 0.940 . S
H104 C121 0.939 . S
H105 C123 0.941 . S
H106 C127 0.939 . S
O107 P96 1.490 . S
H108 C124 0.939 . S
H109 C126 0.940 . S
C110 P96 1.812 . S
C110 C111 1.389 . S
C110 C115 1.391 . S
C111 H97 0.941 . S
C111 C110 1.389 . S
C111 C112 1.397 . S
C112 H98 0.939 . S
C112 C111 1.397 . S
C112 C113 1.378 . S
C113 C112 1.378 . S
C113 C114 1.378 . S
C114 H99 0.940 . S
C114 C113 1.378 . S
C114 C115 1.396 . S
C115 H100 0.940 . S
C115 C110 1.391 . S
C115 C114 1.396 . S
C116 P96 1.803 . S
C116 C117 1.378 . S
C116 C121 1.400 . S
C117 H101 0.939 . S
C117 C116 1.378 . S
C117 C118 1.361 . S
C118 H102 0.942 . S
C118 C117 1.361 . S
C118 C119 1.369 . S
C119 C118 1.369 . S
C119 C120 1.404 . S
C120 H103 0.940 . S
C120 C119 1.404 . S
C120 C121 1.389 . S
C121 H104 0.939 . S
C121 C116 1.400 . S
C121 C120 1.389 . S
C122 P96 1.819 . S
C122 C123 1.391 . S
C122 C127 1.391 . S
C123 H105 0.941 . S
C123 C122 1.391 . S
C123 C124 1.396 . S
C124 H108 0.939 . S
C124 C123 1.396 . S
C124 C125 1.397 . S
C125 C124 1.397 . S
C125 C126 1.385 . S
C126 H109 0.940 . S
C126 C125 1.385 . S
C126 C127 1.388 . S
C127 H106 0.939 . S
C127 C122 1.391 . S
C127 C126 1.388 . S
P128 O139 1.490 . S
P128 C142 1.812 . S
P128 C148 1.803 . S
P128 C154 1.819 . S
H129 C143 0.941 . S
H130 C144 0.939 . S
H131 C146 0.940 . S
H132 C147 0.940 . S
H133 C149 0.939 . S
H134 C150 0.942 . S
H135 C152 0.940 . S
H136 C153 0.939 . S
H137 C155 0.941 . S
H138 C159 0.939 . S
O139 P128 1.490 . S
H140 C156 0.939 . S
H141 C158 0.940 . S
C142 P128 1.812 . S
C142 C143 1.389 . S
C142 C147 1.391 . S
C143 H129 0.941 . S
C143 C142 1.389 . S
C143 C144 1.397 . S
C144 H130 0.939 . S
C144 C143 1.397 . S
C144 C145 1.378 . S
C145 C144 1.378 . S
C145 C146 1.378 . S
C146 H131 0.940 . S
C146 C145 1.378 . S
C146 C147 1.396 . S
C147 H132 0.940 . S
C147 C142 1.391 . S
C147 C146 1.396 . S
C148 P128 1.803 . S
C148 C149 1.378 . S
C148 C153 1.400 . S
C149 H133 0.939 . S
C149 C148 1.378 . S
C149 C150 1.361 . S
C150 H134 0.942 . S
C150 C149 1.361 . S
C150 C151 1.369 . S
C151 C150 1.369 . S
C151 C152 1.404 . S
C152 H135 0.940 . S
C152 C151 1.404 . S
C152 C153 1.389 . S
C153 H136 0.939 . S
C153 C148 1.400 . S
C153 C152 1.389 . S
C154 P128 1.819 . S
C154 C155 1.391 . S
C154 C159 1.391 . S
C155 H137 0.941 . S
C155 C154 1.391 . S
C155 C156 1.396 . S
C156 H140 0.939 . S
C156 C155 1.396 . S
C156 C157 1.397 . S
C157 C156 1.397 . S
C157 C158 1.385 . S
C158 H141 0.940 . S
C158 C157 1.385 . S
C158 C159 1.388 . S
C159 H138 0.939 . S
C159 C154 1.391 . S
C159 C158 1.388 . S
P160 O171 1.490 . S
P160 C174 1.812 . S
P160 C180 1.803 . S
P160 C186 1.819 . S
H161 C175 0.941 . S
H162 C176 0.939 . S
H163 C178 0.940 . S
H164 C179 0.940 . S
H165 C181 0.939 . S
H166 C182 0.942 . S
H167 C184 0.940 . S
H168 C185 0.939 . S
H169 C187 0.941 . S
H170 C191 0.939 . S
O171 P160 1.490 . S
H172 C188 0.939 . S
H173 C190 0.940 . S
C174 P160 1.812 . S
C174 C175 1.389 . S
C174 C179 1.391 . S
C175 H161 0.941 . S
C175 C174 1.389 . S
C175 C176 1.397 . S
C176 H162 0.939 . S
C176 C175 1.397 . S
C176 C177 1.378 . S
C177 C176 1.378 . S
C177 C178 1.378 . S
C178 H163 0.940 . S
C178 C177 1.378 . S
C178 C179 1.396 . S
C179 H164 0.940 . S
C179 C174 1.391 . S
C179 C178 1.396 . S
C180 P160 1.803 . S
C180 C181 1.378 . S
C180 C185 1.400 . S
C181 H165 0.939 . S
C181 C180 1.378 . S
C181 C182 1.361 . S
C182 H166 0.942 . S
C182 C181 1.361 . S
C182 C183 1.369 . S
C183 C182 1.369 . S
C183 C184 1.404 . S
C184 H167 0.940 . S
C184 C183 1.404 . S
C184 C185 1.389 . S
C185 H168 0.939 . S
C185 C180 1.400 . S
C185 C184 1.389 . S
C186 P160 1.819 . S
C186 C187 1.391 . S
C186 C191 1.391 . S
C187 H169 0.941 . S
C187 C186 1.391 . S
C187 C188 1.396 . S
C188 H172 0.939 . S
C188 C187 1.396 . S
C188 C189 1.397 . S
C189 C188 1.397 . S
C189 C190 1.385 . S
C190 H173 0.940 . S
C190 C189 1.385 . S
C190 C191 1.388 . S
C191 H170 0.939 . S
C191 C186 1.391 . S
C191 C190 1.388 . S
P192 O203 1.490 . S
P192 C206 1.812 . S
P192 C212 1.803 . S
P192 C218 1.819 . S
H193 C207 0.941 . S
H194 C208 0.939 . S
H195 C210 0.940 . S
H196 C211 0.940 . S
H197 C213 0.939 . S
H198 C214 0.942 . S
H199 C216 0.940 . S
H200 C217 0.939 . S
H201 C219 0.941 . S
H202 C223 0.939 . S
O203 P192 1.490 . S
H204 C220 0.939 1_545 S
H205 C222 0.940 . S
C206 P192 1.812 . S
C206 C207 1.389 . S
C206 C211 1.391 . S
C207 H193 0.941 . S
C207 C206 1.389 . S
C207 C208 1.397 . S
C208 H194 0.939 . S
C208 C207 1.397 . S
C208 C209 1.378 . S
C209 C208 1.378 . S
C209 C210 1.378 . S
C210 H195 0.940 . S
C210 C209 1.378 . S
C210 C211 1.396 . S
C211 H196 0.940 . S
C211 C206 1.391 . S
C211 C210 1.396 . S
C212 P192 1.803 . S
C212 C213 1.378 . S
C212 C217 1.400 . S
C213 H197 0.939 . S
C213 C212 1.378 . S
C213 C214 1.361 . S
C214 H198 0.942 . S
C214 C213 1.361 . S
C214 C215 1.369 . S
C215 C214 1.369 . S
C215 C216 1.404 . S
C216 H199 0.940 . S
C216 C215 1.404 . S
C216 C217 1.389 . S
C217 H200 0.939 . S
C217 C212 1.400 . S
C217 C216 1.389 . S
C218 P192 1.819 . S
C218 C219 1.391 . S
C218 C223 1.391 . S
C219 H201 0.941 . S
C219 C218 1.391 . S
C219 C220 1.396 . S
C220 H204 0.939 1_565 S
C220 C219 1.396 . S
C220 C221 1.397 . S
C221 C220 1.397 . S
C221 C222 1.385 . S
C222 H205 0.940 . S
C222 C221 1.385 . S
C222 C223 1.388 . S
C223 H202 0.939 . S
C223 C218 1.391 . S
C223 C222 1.388 . S
P224 O235 1.490 . S
P224 C238 1.812 . S
P224 C244 1.803 . S
P224 C250 1.819 . S
H225 C239 0.941 . S
H226 C240 0.939 . S
H227 C242 0.940 . S
H228 C243 0.940 . S
H229 C245 0.939 . S
H230 C246 0.942 . S
H231 C248 0.940 . S
H232 C249 0.939 . S
H233 C251 0.941 . S
H234 C255 0.939 . S
O235 P224 1.490 . S
H236 C252 0.939 . S
H237 C254 0.940 . S
C238 P224 1.812 . S
C238 C239 1.389 . S
C238 C243 1.391 . S
C239 H225 0.941 . S
C239 C238 1.389 . S
C239 C240 1.397 . S
C240 H226 0.939 . S
C240 C239 1.397 . S
C240 C241 1.378 . S
C241 C240 1.378 . S
C241 C242 1.378 . S
C242 H227 0.940 . S
C242 C241 1.378 . S
C242 C243 1.396 . S
C243 H228 0.940 . S
C243 C238 1.391 . S
C243 C242 1.396 . S
C244 P224 1.803 . S
C244 C245 1.378 . S
C244 C249 1.400 . S
C245 H229 0.939 . S
C245 C244 1.378 . S
C245 C246 1.361 . S
C246 H230 0.942 . S
C246 C245 1.361 . S
C246 C247 1.369 . S
C247 C246 1.369 . S
C247 C248 1.404 . S
C248 H231 0.940 . S
C248 C247 1.404 . S
C248 C249 1.389 . S
C249 H232 0.939 . S
C249 C244 1.400 . S
C249 C248 1.389 . S
C250 P224 1.819 . S
C250 C251 1.391 . S
C250 C255 1.391 . S
C251 H233 0.941 . S
C251 C250 1.391 . S
C251 C252 1.396 . S
C252 H236 0.939 . S
C252 C251 1.396 . S
C252 C253 1.397 . S
C253 C252 1.397 . S
C253 C254 1.385 . S
C254 H237 0.940 . S
C254 C253 1.385 . S
C254 C255 1.388 . S
C255 H234 0.939 . S
C255 C250 1.391 . S
C255 C254 1.388 . S
Eu256 N285 2.600 . S
Eu256 N291 2.562 . S
Eu256 O300 2.462 . S
Eu256 O301 2.373 . S
Eu256 O303 2.432 . S
Eu256 O304 2.291 . S
Eu256 O308 2.335 . S
Eu256 O311 2.372 . S
Eu256 C320 2.787 . S
C257 N258 1.365 . S
C257 C260 1.405 . S
C257 C264 1.448 . S
N258 C257 1.365 . S
N258 C261 1.319 . S
N258 Eu267 2.600 . S
C259 C261 1.397 . S
C259 C262 1.367 . S
C259 H279 0.931 . S
C260 C257 1.405 . S
C260 C262 1.403 . S
C260 C266 1.439 . S
C261 N258 1.319 . S
C261 C259 1.397 . S
C261 H272 0.930 . S
C262 C259 1.367 . S
C262 C260 1.403 . S
C262 H283 0.929 . S
C263 C264 1.430 . S
C263 C265 1.387 . S
C263 C269 1.404 . S
C264 C257 1.448 . S
C264 C263 1.430 . S
C264 N268 1.351 . S
C265 C263 1.387 . S
C265 C266 1.374 . S
C265 H280 0.931 . S
C266 C260 1.439 . S
C266 C265 1.374 . S
C266 H281 0.931 . S
Eu267 N258 2.600 . S
Eu267 N268 2.562 . S
Eu267 O302 2.335 1_655 S
Eu267 O305 2.372 . S
Eu267 O306 2.462 . S
Eu267 O307 2.373 . S
Eu267 O309 2.432 . S
Eu267 O310 2.291 1_655 S
Eu267 C331 2.787 . S
N268 C264 1.351 . S
N268 Eu267 2.562 . S
N268 C270 1.325 . S
C269 C263 1.404 . S
C269 C271 1.366 . S
C269 H277 0.930 1_545 S
C270 N268 1.325 . S
C270 C271 1.416 . S
C270 H276 0.929 . S
C271 C269 1.366 . S
C271 C270 1.416 . S
C271 H273 0.930 1_545 S
H272 C261 0.930 . S
H273 C271 0.930 1_565 S
H274 C289 0.930 . S
H275 C296 0.930 . S
H276 C270 0.929 . S
H277 C269 0.930 1_565 S
H278 C292 0.929 . S
H279 C259 0.931 . S
H280 C265 0.931 . S
H281 C266 0.931 . S
H282 C287 0.931 . S
H283 C262 0.929 . S
H284 C295 0.930 . S
N285 Eu256 2.600 . S
N285 C286 1.365 . S
N285 C289 1.319 . S
C286 N285 1.365 . S
C286 C288 1.405 . S
C286 C294 1.448 . S
C287 H282 0.931 . S
C287 C289 1.397 . S
C287 C290 1.367 . S
C288 C286 1.405 . S
C288 C290 1.403 . S
C288 C321 1.439 . S
C289 H274 0.930 . S
C289 N285 1.319 . S
C289 C287 1.397 . S
C290 C287 1.367 . S
C290 C288 1.403 . S
C290 H297 0.929 . S
N291 Eu256 2.562 . S
N291 C292 1.325 . S
N291 C294 1.351 . S
C292 H278 0.929 . S
C292 N291 1.325 . S
C292 C296 1.416 . S
C293 C294 1.430 . S
C293 C295 1.404 . S
C293 C322 1.387 . S
C294 C286 1.448 . S
C294 N291 1.351 . S
C294 C293 1.430 . S
C295 H284 0.930 . S
C295 C293 1.404 . S
C295 C296 1.366 . S
C296 H275 0.930 . S
C296 C292 1.416 . S
C296 C295 1.366 . S
H297 C290 0.929 . S
H298 C321 0.931 . S
H299 C322 0.931 . S
O300 Eu256 2.462 . S
O300 C320 1.252 . S
O301 Eu256 2.373 . S
O301 C312 1.249 . S
O302 Eu267 2.335 1_455 S
O302 C312 1.264 . S
O303 Eu256 2.432 . S
O303 C320 1.268 . S
O304 Eu256 2.291 . S
O304 C319 1.255 1_455 S
O305 Eu267 2.372 . S
O305 C319 1.257 . S
O306 Eu267 2.462 . S
O306 C331 1.252 . S
O307 Eu267 2.373 . S
O307 C323 1.249 . S
O308 Eu256 2.335 . S
O308 C323 1.264 1_455 S
O309 Eu267 2.432 . S
O309 C331 1.268 . S
O310 Eu267 2.291 1_455 S
O310 C330 1.255 . S
O311 Eu256 2.372 . S
O311 C330 1.257 . S
C312 O301 1.249 . S
C312 O302 1.264 . S
C313 C316 1.382 . S
C313 C318 1.390 . S
C313 C320 1.506 . S
C314 C315 1.398 . S
C314 C318 1.392 . S
C315 C314 1.398 . S
C315 C317 1.372 . S
C315 H332 0.931 . S
C316 C313 1.382 . S
C316 C317 1.390 . S
C316 H333 0.931 . S
C317 C315 1.372 . S
C317 C316 1.390 . S
C317 H334 0.929 . S
C318 C313 1.390 . S
C318 C314 1.392 . S
C318 H335 0.930 . S
C319 O304 1.255 1_655 S
C319 O305 1.257 . S
C320 Eu256 2.787 . S
C320 O300 1.252 . S
C320 O303 1.268 . S
C320 C313 1.506 . S
C321 C288 1.439 . S
C321 H298 0.931 . S
C321 C322 1.374 . S
C322 C293 1.387 . S
C322 H299 0.931 . S
C322 C321 1.374 . S
C323 O307 1.249 . S
C323 O308 1.264 1_655 S
C324 C327 1.382 . S
C324 C328 1.390 . S
C324 C331 1.506 . S
C325 C326 1.398 . S
C325 C328 1.392 . S
C326 C325 1.398 . S
C326 C329 1.372 . S
C326 H336 0.931 . S
C327 C324 1.382 . S
C327 C329 1.390 . S
C327 H337 0.931 . S
C328 C324 1.390 . S
C328 C325 1.392 . S
C328 H338 0.930 . S
C329 C326 1.372 . S
C329 C327 1.390 . S
C329 H339 0.929 . S
C330 O310 1.255 . S
C330 O311 1.257 . S
C331 Eu267 2.787 . S
C331 O306 1.252 . S
C331 O309 1.268 . S
C331 C324 1.506 . S
H332 C315 0.931 . S
H333 C316 0.931 . S
H334 C317 0.929 . S
H335 C318 0.930 . S
H336 C326 0.931 . S
H337 C327 0.931 . S
H338 C328 0.930 . S
H339 C329 0.929 . S
Eu340 N369 2.600 . S
Eu340 N375 2.562 . S
Eu340 O384 2.462 . S
Eu340 O385 2.373 . S
Eu340 O387 2.432 . S
Eu340 O388 2.291 . S
Eu340 O392 2.335 . S
Eu340 O395 2.372 . S
Eu340 C404 2.787 . S
C341 N342 1.365 . S
C341 C344 1.405 . S
C341 C348 1.448 . S
N342 C341 1.365 . S
N342 C345 1.319 . S
N342 Eu351 2.600 . S
C343 C345 1.397 . S
C343 C346 1.367 . S
C343 H363 0.931 . S
C344 C341 1.405 . S
C344 C346 1.403 . S
C344 C350 1.439 . S
C345 N342 1.319 . S
C345 C343 1.397 . S
C345 H356 0.930 . S
C346 C343 1.367 . S
C346 C344 1.403 . S
C346 H367 0.929 . S
C347 C348 1.430 . S
C347 C349 1.387 . S
C347 C353 1.404 . S
C348 C341 1.448 . S
C348 C347 1.430 . S
C348 N352 1.351 . S
C349 C347 1.387 . S
C349 C350 1.374 . S
C349 H364 0.931 . S
C350 C344 1.439 . S
C350 C349 1.374 . S
C350 H365 0.931 . S
Eu351 N342 2.600 . S
Eu351 N352 2.562 . S
Eu351 O386 2.335 . S
Eu351 O389 2.372 . S
Eu351 O390 2.462 . S
Eu351 O391 2.373 . S
Eu351 O393 2.432 . S
Eu351 O394 2.291 . S
Eu351 C415 2.787 . S
N352 C348 1.351 . S
N352 Eu351 2.562 . S
N352 C354 1.325 . S
C353 C347 1.404 . S
C353 C355 1.366 . S
C353 H361 0.930 . S
C354 N352 1.325 . S
C354 C355 1.416 . S
C354 H360 0.929 . S
C355 C353 1.366 . S
C355 C354 1.416 . S
C355 H357 0.930 . S
H356 C345 0.930 . S
H357 C355 0.930 . S
H358 C373 0.930 . S
H359 C380 0.930 . S
H360 C354 0.929 . S
H361 C353 0.930 . S
H362 C376 0.929 . S
H363 C343 0.931 . S
H364 C349 0.931 . S
H365 C350 0.931 . S
H366 C371 0.931 . S
H367 C346 0.929 . S
H368 C379 0.930 . S
N369 Eu340 2.600 . S
N369 C370 1.365 . S
N369 C373 1.319 . S
C370 N369 1.365 . S
C370 C372 1.405 . S
C370 C378 1.448 . S
C371 H366 0.931 . S
C371 C373 1.397 . S
C371 C374 1.367 . S
C372 C370 1.405 . S
C372 C374 1.403 . S
C372 C405 1.439 . S
C373 H358 0.930 . S
C373 N369 1.319 . S
C373 C371 1.397 . S
C374 C371 1.367 . S
C374 C372 1.403 . S
C374 H381 0.929 . S
N375 Eu340 2.562 . S
N375 C376 1.325 . S
N375 C378 1.351 . S
C376 H362 0.929 . S
C376 N375 1.325 . S
C376 C380 1.416 . S
C377 C378 1.430 . S
C377 C379 1.404 . S
C377 C406 1.387 . S
C378 C370 1.448 . S
C378 N375 1.351 . S
C378 C377 1.430 . S
C379 H368 0.930 . S
C379 C377 1.404 . S
C379 C380 1.366 . S
C380 H359 0.930 . S
C380 C376 1.416 . S
C380 C379 1.366 . S
H381 C374 0.929 . S
H382 C405 0.931 . S
H383 C406 0.931 . S
O384 Eu340 2.462 . S
O384 C404 1.252 . S
O385 Eu340 2.373 . S
O385 C396 1.249 . S
O386 Eu351 2.335 . S
O386 C396 1.264 . S
O387 Eu340 2.432 . S
O387 C404 1.268 . S
O388 Eu340 2.291 . S
O388 C403 1.255 . S
O389 Eu351 2.372 . S
O389 C403 1.257 . S
O390 Eu351 2.462 . S
O390 C415 1.252 . S
O391 Eu351 2.373 . S
O391 C407 1.249 . S
O392 Eu340 2.335 . S
O392 C407 1.264 . S
O393 Eu351 2.432 . S
O393 C415 1.268 . S
O394 Eu351 2.291 . S
O394 C414 1.255 . S
O395 Eu340 2.372 . S
O395 C414 1.257 . S
C396 O385 1.249 . S
C396 O386 1.264 . S
C397 C400 1.382 . S
C397 C402 1.390 . S
C397 C404 1.506 . S
C398 C399 1.398 . S
C398 C402 1.392 . S
C399 C398 1.398 . S
C399 C401 1.372 . S
C399 H416 0.931 . S
C400 C397 1.382 . S
C400 C401 1.390 . S
C400 H417 0.931 . S
C401 C399 1.372 . S
C401 C400 1.390 . S
C401 H418 0.929 . S
C402 C397 1.390 . S
C402 C398 1.392 . S
C402 H419 0.930 . S
C403 O388 1.255 . S
C403 O389 1.257 . S
C404 Eu340 2.787 . S
C404 O384 1.252 . S
C404 O387 1.268 . S
C404 C397 1.506 . S
C405 C372 1.439 . S
C405 H382 0.931 . S
C405 C406 1.374 . S
C406 C377 1.387 . S
C406 H383 0.931 . S
C406 C405 1.374 . S
C407 O391 1.249 . S
C407 O392 1.264 . S
C408 C411 1.382 . S
C408 C412 1.390 . S
C408 C415 1.506 . S
C409 C410 1.398 . S
C409 C412 1.392 . S
C410 C409 1.398 . S
C410 C413 1.372 . S
C410 H420 0.931 . S
C411 C408 1.382 . S
C411 C413 1.390 . S
C411 H421 0.931 . S
C412 C408 1.390 . S
C412 C409 1.392 . S
C412 H422 0.930 . S
C413 C410 1.372 . S
C413 C411 1.390 . S
C413 H423 0.929 . S
C414 O394 1.255 . S
C414 O395 1.257 . S
C415 Eu351 2.787 . S
C415 O390 1.252 . S
C415 O393 1.268 . S
C415 C408 1.506 . S
H416 C399 0.931 . S
H417 C400 0.931 . S
H418 C401 0.929 . S
H419 C402 0.930 . S
H420 C410 0.931 . S
H421 C411 0.931 . S
H422 C412 0.930 . S
H423 C413 0.929 . S
Eu424 N453 2.600 . S
Eu424 N459 2.562 . S
Eu424 O468 2.462 . S
Eu424 O469 2.373 . S
Eu424 O471 2.432 . S
Eu424 O472 2.300 . S
Eu424 O476 2.335 1_455 S
Eu424 O479 2.372 . S
Eu424 C488 2.787 . S
C425 N426 1.365 . S
C425 C428 1.405 . S
C425 C432 1.448 . S
N426 C425 1.365 . S
N426 C429 1.319 . S
N426 Eu435 2.600 . S
C427 C429 1.397 . S
C427 C430 1.367 . S
C427 H447 0.931 . S
C428 C425 1.405 . S
C428 C430 1.403 . S
C428 C434 1.439 . S
C429 N426 1.319 . S
C429 C427 1.397 . S
C429 H440 0.930 . S
C430 C427 1.367 . S
C430 C428 1.403 . S
C430 H451 0.929 . S
C431 C432 1.430 . S
C431 C433 1.387 . S
C431 C437 1.404 . S
C432 C425 1.448 . S
C432 C431 1.430 . S
C432 N436 1.351 . S
C433 C431 1.387 . S
C433 C434 1.374 . S
C433 H448 0.931 . S
C434 C428 1.439 . S
C434 C433 1.374 . S
C434 H449 0.931 . S
Eu435 N426 2.600 . S
Eu435 N436 2.562 . S
Eu435 O470 2.335 1_655 S
Eu435 O473 2.372 . S
Eu435 O474 2.462 . S
Eu435 O475 2.373 . S
Eu435 O477 2.432 . S
Eu435 O478 2.291 1_655 S
Eu435 C499 2.787 . S
N436 C432 1.351 . S
N436 Eu435 2.562 . S
N436 C438 1.325 . S
C437 C431 1.404 . S
C437 C439 1.366 . S
C437 H445 0.930 . S
C438 N436 1.325 . S
C438 C439 1.416 . S
C438 H444 0.929 . S
C439 C437 1.366 . S
C439 C438 1.416 . S
C439 H441 0.930 . S
H440 C429 0.930 . S
H441 C439 0.930 . S
H442 C457 0.930 . S
H443 C464 0.930 1_545 S
H444 C438 0.929 . S
H445 C437 0.930 . S
H446 C460 0.929 . S
H447 C427 0.931 . S
H448 C433 0.931 . S
H449 C434 0.931 . S
H450 C455 0.931 . S
H451 C430 0.929 . S
H452 C463 0.930 1_545 S
N453 Eu424 2.600 . S
N453 C454 1.365 . S
N453 C457 1.319 . S
C454 N453 1.365 . S
C454 C456 1.405 . S
C454 C462 1.448 . S
C455 H450 0.931 . S
C455 C457 1.397 . S
C455 C458 1.367 . S
C456 C454 1.405 . S
C456 C458 1.403 . S
C456 C489 1.439 . S
C457 H442 0.930 . S
C457 N453 1.319 . S
C457 C455 1.397 . S
C458 C455 1.367 . S
C458 C456 1.403 . S
C458 H465 0.929 . S
N459 Eu424 2.562 . S
N459 C460 1.325 . S
N459 C462 1.351 . S
C460 H446 0.929 . S
C460 N459 1.325 . S
C460 C464 1.416 . S
C461 C462 1.430 . S
C461 C463 1.404 . S
C461 C490 1.387 . S
C462 C454 1.448 . S
C462 N459 1.351 . S
C462 C461 1.430 . S
C463 H452 0.930 1_565 S
C463 C461 1.404 . S
C463 C464 1.366 . S
C464 H443 0.930 1_565 S
C464 C460 1.416 . S
C464 C463 1.366 . S
H465 C458 0.929 . S
H466 C489 0.931 . S
H467 C490 0.931 . S
O468 Eu424 2.462 . S
O468 C488 1.252 . S
O469 Eu424 2.373 . S
O469 C480 1.249 . S
O470 Eu435 2.335 1_455 S
O470 C480 1.264 . S
O471 Eu424 2.432 . S
O471 C488 1.268 . S
O472 Eu424 2.300 . S
O472 C487 1.244 1_455 S
O473 Eu435 2.372 . S
O473 C487 1.257 . S
O474 Eu435 2.462 . S
O474 C499 1.252 . S
O475 Eu435 2.373 . S
O475 C491 1.249 . S
O476 Eu424 2.335 1_655 S
O476 C491 1.264 . S
O477 Eu435 2.432 . S
O477 C499 1.268 . S
O478 Eu435 2.291 1_455 S
O478 C498 1.255 . S
O479 Eu424 2.372 . S
O479 C498 1.257 . S
C480 O469 1.249 . S
C480 O470 1.264 . S
C481 C484 1.382 . S
C481 C486 1.390 . S
C481 C488 1.506 . S
C482 C483 1.398 . S
C482 C486 1.392 . S
C483 C482 1.398 . S
C483 C485 1.372 . S
C483 H500 0.931 . S
C484 C481 1.382 . S
C484 C485 1.390 . S
C484 H501 0.931 . S
C485 C483 1.372 . S
C485 C484 1.390 . S
C485 H502 0.929 . S
C486 C481 1.390 . S
C486 C482 1.392 . S
C486 H503 0.930 . S
C487 O472 1.244 1_655 S
C487 O473 1.257 . S
C488 Eu424 2.787 . S
C488 O468 1.252 . S
C488 O471 1.268 . S
C488 C481 1.506 . S
C489 C456 1.439 . S
C489 H466 0.931 . S
C489 C490 1.374 . S
C490 C461 1.387 . S
C490 H467 0.931 . S
C490 C489 1.374 . S
C491 O475 1.249 . S
C491 O476 1.264 . S
C492 C495 1.382 . S
C492 C496 1.390 . S
C492 C499 1.506 . S
C493 C494 1.398 . S
C493 C496 1.392 . S
C494 C493 1.398 . S
C494 C497 1.372 . S
C494 H504 0.931 . S
C495 C492 1.382 . S
C495 C497 1.390 . S
C495 H505 0.931 . S
C496 C492 1.390 . S
C496 C493 1.392 . S
C496 H506 0.930 . S
C497 C494 1.372 . S
C497 C495 1.390 . S
C497 H507 0.929 . S
C498 O478 1.255 . S
C498 O479 1.257 . S
C499 Eu435 2.787 . S
C499 O474 1.252 . S
C499 O477 1.268 . S
C499 C492 1.506 . S
H500 C483 0.931 . S
H501 C484 0.931 . S
H502 C485 0.929 . S
H503 C486 0.930 . S
H504 C494 0.931 . S
H505 C495 0.931 . S
H506 C496 0.930 . S
H507 C497 0.929 . S
Eu508 N537 2.600 . S
Eu508 N543 2.562 . S
Eu508 O552 2.462 . S
Eu508 O553 2.373 . S
Eu508 O555 2.432 . S
Eu508 O556 2.291 . S
Eu508 O560 2.335 . S
Eu508 O563 2.372 . S
Eu508 C572 2.787 . S
C509 N510 1.365 . S
C509 C512 1.405 . S
C509 C516 1.448 . S
N510 C509 1.365 . S
N510 C513 1.319 . S
N510 Eu519 2.600 . S
C511 C513 1.397 . S
C511 C514 1.367 . S
C511 H531 0.931 . S
C512 C509 1.405 . S
C512 C514 1.403 . S
C512 C518 1.439 . S
C513 N510 1.319 . S
C513 C511 1.397 . S
C513 H524 0.930 . S
C514 C511 1.367 . S
C514 C512 1.403 . S
C514 H535 0.929 . S
C515 C516 1.430 . S
C515 C517 1.387 . S
C515 C521 1.404 . S
C516 C509 1.448 . S
C516 C515 1.430 . S
C516 N520 1.351 . S
C517 C515 1.387 . S
C517 C518 1.374 . S
C517 H532 0.931 . S
C518 C512 1.439 . S
C518 C517 1.374 . S
C518 H533 0.931 . S
Eu519 N510 2.600 . S
Eu519 N520 2.562 . S
Eu519 O554 2.335 . S
Eu519 O557 2.372 . S
Eu519 O558 2.462 . S
Eu519 O559 2.373 . S
Eu519 O561 2.432 . S
Eu519 O562 2.291 . S
Eu519 C583 2.787 . S
N520 C516 1.351 . S
N520 Eu519 2.562 . S
N520 C522 1.325 . S
C521 C515 1.404 . S
C521 C523 1.366 . S
C521 H529 0.930 . S
C522 N520 1.325 . S
C522 C523 1.416 . S
C522 H528 0.929 . S
C523 C521 1.366 . S
C523 C522 1.416 . S
C523 H525 0.930 . S
H524 C513 0.930 . S
H525 C523 0.930 . S
H526 C541 0.930 . S
H527 C548 0.930 . S
H528 C522 0.929 . S
H529 C521 0.930 . S
H530 C544 0.929 . S
H531 C511 0.931 . S
H532 C517 0.931 . S
H533 C518 0.931 . S
H534 C539 0.931 . S
H535 C514 0.929 . S
H536 C547 0.930 . S
N537 Eu508 2.600 . S
N537 C538 1.365 . S
N537 C541 1.319 . S
C538 N537 1.365 . S
C538 C540 1.405 . S
C538 C546 1.448 . S
C539 H534 0.931 . S
C539 C541 1.397 . S
C539 C542 1.367 . S
C540 C538 1.405 . S
C540 C542 1.403 . S
C540 C573 1.439 . S
C541 H526 0.930 . S
C541 N537 1.319 . S
C541 C539 1.397 . S
C542 C539 1.367 . S
C542 C540 1.403 . S
C542 H549 0.929 . S
N543 Eu508 2.562 . S
N543 C544 1.325 . S
N543 C546 1.351 . S
C544 H530 0.929 . S
C544 N543 1.325 . S
C544 C548 1.416 . S
C545 C546 1.430 . S
C545 C547 1.404 . S
C545 C574 1.387 . S
C546 C538 1.448 . S
C546 N543 1.351 . S
C546 C545 1.430 . S
C547 H536 0.930 . S
C547 C545 1.404 . S
C547 C548 1.366 . S
C548 H527 0.930 . S
C548 C544 1.416 . S
C548 C547 1.366 . S
H549 C542 0.929 . S
H550 C573 0.931 . S
H551 C574 0.931 . S
O552 Eu508 2.462 . S
O552 C572 1.252 . S
O553 Eu508 2.373 . S
O553 C564 1.249 . S
O554 Eu519 2.335 . S
O554 C564 1.264 . S
O555 Eu508 2.432 . S
O555 C572 1.268 . S
O556 Eu508 2.291 . S
O556 C571 1.255 . S
O557 Eu519 2.372 . S
O557 C571 1.257 . S
O558 Eu519 2.462 . S
O558 C583 1.252 . S
O559 Eu519 2.373 . S
O559 C575 1.249 . S
O560 Eu508 2.335 . S
O560 C575 1.264 . S
O561 Eu519 2.432 . S
O561 C583 1.268 . S
O562 Eu519 2.291 . S
O562 C582 1.255 . S
O563 Eu508 2.372 . S
O563 C582 1.257 . S
C564 O553 1.249 . S
C564 O554 1.264 . S
C565 C568 1.382 . S
C565 C570 1.390 . S
C565 C572 1.506 . S
C566 C567 1.398 . S
C566 C570 1.392 . S
C567 C566 1.398 . S
C567 C569 1.372 . S
C567 H584 0.931 . S
C568 C565 1.382 . S
C568 C569 1.390 . S
C568 H585 0.931 . S
C569 C567 1.372 . S
C569 C568 1.390 . S
C569 H586 0.929 . S
C570 C565 1.390 . S
C570 C566 1.392 . S
C570 H587 0.930 . S
C571 O556 1.255 . S
C571 O557 1.257 . S
C572 Eu508 2.787 . S
C572 O552 1.252 . S
C572 O555 1.268 . S
C572 C565 1.506 . S
C573 C540 1.439 . S
C573 H550 0.931 . S
C573 C574 1.374 . S
C574 C545 1.387 . S
C574 H551 0.931 . S
C574 C573 1.374 . S
C575 O559 1.249 . S
C575 O560 1.264 . S
C576 C579 1.382 . S
C576 C580 1.390 . S
C576 C583 1.506 . S
C577 C578 1.398 . S
C577 C580 1.392 . S
C578 C577 1.398 . S
C578 C581 1.372 . S
C578 H588 0.931 . S
C579 C576 1.382 . S
C579 C581 1.390 . S
C579 H589 0.931 . S
C580 C576 1.390 . S
C580 C577 1.392 . S
C580 H590 0.930 . S
C581 C578 1.372 . S
C581 C579 1.390 . S
C581 H591 0.929 . S
C582 O562 1.255 . S
C582 O563 1.257 . S
C583 Eu519 2.787 . S
C583 O558 1.252 . S
C583 O561 1.268 . S
C583 C576 1.506 . S
H584 C567 0.931 . S
H585 C568 0.931 . S
H586 C569 0.929 . S
H587 C570 0.930 . S
H588 C578 0.931 . S
H589 C579 0.931 . S
H590 C580 0.930 . S
H591 C581 0.929 . S
C592 C593 1.364 . S
C592 C598 1.379 . S
C592 N600 1.356 1_545 S
C593 C592 1.364 . S
C593 C599 1.378 . S
C594 C595 1.363 . S
C594 C599 1.379 . S
C594 N601 1.356 . S
C595 C594 1.363 . S
C595 C598 1.363 . S
N596 C598 1.356 . S
N596 H608 0.984 . S
N596 H609 0.985 . S
N597 C599 1.356 . S
N597 H602 0.984 1_545 S
N597 H603 0.985 . S
C598 C592 1.379 . S
C598 C595 1.363 . S
C598 N596 1.356 . S
C599 C593 1.378 . S
C599 C594 1.379 . S
C599 N597 1.356 . S
N600 C592 1.356 1_565 S
N600 H606 0.984 . S
N600 H607 0.984 . S
N601 C594 1.356 . S
N601 H604 0.984 . S
N601 H605 0.985 . S
H602 N597 0.984 1_565 S
H603 N597 0.985 . S
H604 N601 0.984 . S
H605 N601 0.985 . S
H606 N600 0.984 . S
H607 N600 0.984 . S
H608 N596 0.984 . S
H609 N596 0.985 . S
C610 C611 1.363 . S
C610 C616 1.379 . S
C610 N618 1.356 . S
C611 C610 1.363 . S
C611 C617 1.363 . S
C612 C613 1.363 . S
C612 C617 1.379 . S
C612 N619 1.356 . S
C613 C612 1.363 . S
C613 C616 1.363 . S
N614 C616 1.356 . S
N614 H626 0.984 . S
N614 H627 0.985 . S
N615 C617 1.356 . S
N615 H620 0.984 . S
N615 H621 0.985 . S
C616 C610 1.379 . S
C616 C613 1.363 . S
C616 N614 1.356 . S
C617 C611 1.363 . S
C617 C612 1.379 . S
C617 N615 1.356 . S
N618 C610 1.356 . S
N618 H624 0.984 . S
N618 H625 0.984 . S
N619 C612 1.356 . S
N619 H622 0.984 . S
N619 H623 0.985 . S
H620 N615 0.984 . S
H621 N615 0.985 . S
H622 N619 0.984 . S
H623 N619 0.985 . S
H624 N618 0.984 . S
H625 N618 0.984 . S
H626 N614 0.984 . S
H627 N614 0.985 . S
C628 C629 1.363 . S
C628 C634 1.379 . S
C628 N636 1.356 . S
C629 C628 1.363 . S
C629 C635 1.363 . S
C630 C631 1.363 . S
C630 C635 1.379 . S
C630 N637 1.356 . S
C631 C630 1.363 . S
C631 C634 1.363 . S
N632 C634 1.356 . S
N632 H644 0.984 . S
N632 H645 0.985 . S
N633 C635 1.356 . S
N633 H638 0.984 . S
N633 H639 0.985 . S
C634 C628 1.379 . S
C634 C631 1.363 . S
C634 N632 1.356 . S
C635 C629 1.363 . S
C635 C630 1.379 . S
C635 N633 1.356 . S
N636 C628 1.356 . S
N636 H642 0.984 . S
N636 H643 0.984 . S
N637 C630 1.356 . S
N637 H640 0.984 . S
N637 H641 0.985 . S
H638 N633 0.984 . S
H639 N633 0.985 . S
H640 N637 0.984 . S
H641 N637 0.985 . S
H642 N636 0.984 . S
H643 N636 0.984 . S
H644 N632 0.984 . S
H645 N632 0.985 . S
C646 C647 1.363 . S
C646 C652 1.379 . S
C646 N654 1.356 1_545 S
C647 C646 1.363 . S
C647 C653 1.363 . S
C648 C649 1.363 . S
C648 C653 1.379 . S
C648 N655 1.356 . S
C649 C648 1.363 . S
C649 C652 1.363 . S
N650 C652 1.356 1_455 S
N650 H662 0.984 . S
N650 H663 0.985 . S
N651 C653 1.356 . S
N651 H656 0.978 1_545 S
N651 H657 0.985 . S
C652 C646 1.379 . S
C652 C649 1.363 . S
C652 N650 1.356 1_655 S
C653 C647 1.363 . S
C653 C648 1.379 . S
C653 N651 1.356 . S
N654 C646 1.356 1_565 S
N654 H660 0.984 . S
N654 H661 0.984 . S
N655 C648 1.356 . S
N655 H658 0.984 . S
N655 H659 0.985 . S
H656 N651 0.978 1_565 S
H657 N651 0.985 . S
H658 N655 0.984 . S
H659 N655 0.985 . S
H660 N654 0.984 . S
H661 N654 0.984 . S
H662 N650 0.984 . S
H663 N650 0.985 . S
C664 C665 1.360 1_545 S
C664 C670 1.379 1_545 S
C664 N672 1.356 . S
C665 C664 1.360 1_565 S
C665 C671 1.383 . S
C666 C667 1.363 . S
C666 C671 1.379 . S
C666 N673 1.356 . S
C667 C666 1.363 . S
C667 C670 1.363 . S
N668 C670 1.366 . S
N668 H680 0.977 1_655 S
N668 H681 0.983 1_655 S
N669 C671 1.356 . S
N669 H674 0.984 . S
N669 H675 0.985 . S
C670 C664 1.379 1_565 S
C670 C667 1.363 . S
C670 N668 1.366 . S
C671 C665 1.383 . S
C671 C666 1.379 . S
C671 N669 1.356 . S
N672 C664 1.356 . S
N672 H678 0.984 . S
N672 H679 0.984 . S
N673 C666 1.356 . S
N673 H676 0.984 . S
N673 H677 0.985 . S
H674 N669 0.984 . S
H675 N669 0.985 . S
H676 N673 0.984 . S
H677 N673 0.985 . S
H678 N672 0.984 . S
H679 N672 0.984 . S
H680 N668 0.977 1_455 S
H681 N668 0.983 1_455 S
C682 C683 1.363 . S
C682 C688 1.379 . S
C682 N690 1.356 . S
C683 C682 1.363 . S
C683 C689 1.363 . S
C684 C685 1.363 . S
C684 C689 1.379 . S
C684 N691 1.356 . S
C685 C684 1.363 . S
C685 C688 1.363 . S
N686 C688 1.356 . S
N686 H698 0.984 . S
N686 H699 0.985 . S
N687 C689 1.356 . S
N687 H692 0.984 . S
N687 H693 0.985 . S
C688 C682 1.379 . S
C688 C685 1.363 . S
C688 N686 1.356 . S
C689 C683 1.363 . S
C689 C684 1.379 . S
C689 N687 1.356 . S
N690 C682 1.356 . S
N690 H696 0.984 . S
N690 H697 0.984 . S
N691 C684 1.356 . S
N691 H694 0.984 . S
N691 H695 0.985 . S
H692 N687 0.984 . S
H693 N687 0.985 . S
H694 N691 0.984 . S
H695 N691 0.985 . S
H696 N690 0.984 . S
H697 N690 0.984 . S
H698 N686 0.984 . S
H699 N686 0.985 . S
C700 C701 1.363 . S
C700 C706 1.379 . S
C700 N708 1.356 . S
C701 C700 1.363 . S
C701 C707 1.363 . S
C702 C703 1.363 . S
C702 C707 1.379 . S
C702 N709 1.356 . S
C703 C702 1.363 . S
C703 C706 1.363 . S
N704 C706 1.356 . S
N704 H716 0.984 . S
N704 H717 0.985 . S
N705 C707 1.356 . S
N705 H710 0.984 . S
N705 H711 0.985 . S
C706 C700 1.379 . S
C706 C703 1.363 . S
C706 N704 1.356 . S
C707 C701 1.363 . S
C707 C702 1.379 . S
C707 N705 1.356 . S
N708 C700 1.356 . S
N708 H714 0.984 . S
N708 H715 0.984 . S
N709 C702 1.356 . S
N709 H712 0.984 . S
N709 H713 0.985 . S
H710 N705 0.984 . S
H711 N705 0.985 . S
H712 N709 0.984 . S
H713 N709 0.985 . S
H714 N708 0.984 . S
H715 N708 0.984 . S
H716 N704 0.984 . S
H717 N704 0.985 . S
C718 C719 1.363 . S
C718 C724 1.379 . S
C718 N726 1.356 . S
C719 C718 1.363 . S
C719 C725 1.363 1_565 S
C720 C721 1.363 . S
C720 C725 1.379 1_565 S
C720 N727 1.356 . S
C721 C720 1.363 . S
C721 C724 1.363 . S
N722 C724 1.356 . S
N722 H734 0.984 . S
N722 H735 0.985 . S
N723 C725 1.356 . S
N723 H728 0.984 . S
N723 H729 0.985 . S
C724 C718 1.379 . S
C724 C721 1.363 . S
C724 N722 1.356 . S
C725 C719 1.363 1_545 S
C725 C720 1.379 1_545 S
C725 N723 1.356 . S
N726 C718 1.356 . S
N726 H732 0.984 . S
N726 H733 0.984 . S
N727 C720 1.356 . S
N727 H730 0.984 . S
N727 H731 0.985 . S
H728 N723 0.984 . S
H729 N723 0.985 . S
H730 N727 0.984 . S
H731 N727 0.985 . S
H732 N726 0.984 . S
H733 N726 0.984 . S
H734 N722 0.984 . S
H735 N722 0.985 . S
C736 C737 1.363 . S
C736 C742 1.379 . S
C736 N744 1.356 . S
C737 C736 1.363 . S
C737 C743 1.363 . S
C738 C739 1.363 . S
C738 C743 1.379 . S
C738 N745 1.356 . S
C739 C738 1.363 . S
C739 C742 1.363 . S
N740 C742 1.356 . S
N740 H752 0.984 . S
N740 H753 0.985 . S
N741 C743 1.334 1_556 S
N741 H746 1.009 . S
N741 H747 0.983 1_556 S
C742 C736 1.379 . S
C742 C739 1.363 . S
C742 N740 1.356 . S
C743 C737 1.363 . S
C743 C738 1.379 . S
C743 N741 1.334 1_554 S
N744 C736 1.356 . S
N744 H750 0.984 . S
N744 H751 0.984 1_554 S
N745 C738 1.356 . S
N745 H748 0.984 . S
N745 H749 0.985 . S
H746 N741 1.009 . S
H747 N741 0.983 1_554 S
H748 N745 0.984 . S
H749 N745 0.985 . S
H750 N744 0.984 . S
H751 N744 0.984 1_556 S
H752 N740 0.984 . S
H753 N740 0.985 . S
C754 C755 1.363 . S
C754 C760 1.379 . S
C754 N762 1.356 . S
C755 C754 1.363 . S
C755 C761 1.363 . S
C756 C757 1.363 . S
C756 C761 1.379 . S
C756 N763 1.356 . S
C757 C756 1.363 . S
C757 C760 1.363 . S
N758 C760 1.356 . S
N758 H770 0.984 . S
N758 H771 0.985 . S
N759 C761 1.356 . S
N759 H764 0.984 . S
N759 H765 0.985 . S
C760 C754 1.379 . S
C760 C757 1.363 . S
C760 N758 1.356 . S
C761 C755 1.363 . S
C761 C756 1.379 . S
C761 N759 1.356 . S
N762 C754 1.356 . S
N762 H768 0.984 . S
N762 H769 0.984 . S
N763 C756 1.356 . S
N763 H766 0.984 . S
N763 H767 0.985 . S
H764 N759 0.984 . S
H765 N759 0.985 . S
H766 N763 0.984 . S
H767 N763 0.985 . S
H768 N762 0.984 . S
H769 N762 0.984 . S
H770 N758 0.984 . S
H771 N758 0.985 . S
C772 C773 1.363 . S
C772 C778 1.379 . S
C772 N780 1.356 . S
C773 C772 1.363 . S
C773 C779 1.363 . S
C774 C775 1.363 . S
C774 C779 1.379 . S
C774 N781 1.356 . S
C775 C774 1.363 . S
C775 C778 1.363 . S
N776 C778 1.356 . S
N776 H788 0.984 . S
N776 H789 0.985 . S
N777 C779 1.331 1_554 S
N777 H782 1.014 . S
N777 H783 0.981 1_554 S
C778 C772 1.379 . S
C778 C775 1.363 . S
C778 N776 1.356 . S
C779 C773 1.363 . S
C779 C774 1.379 . S
C779 N777 1.331 1_556 S
N780 C772 1.356 . S
N780 H786 0.984 . S
N780 H787 0.984 1_556 S
N781 C774 1.356 . S
N781 H784 0.984 . S
N781 H785 0.985 . S
H782 N777 1.014 . S
H783 N777 0.981 1_556 S
H784 N781 0.984 . S
H785 N781 0.985 . S
H786 N780 0.984 . S
H787 N780 0.984 1_554 S
H788 N776 0.984 . S
H789 N776 0.985 . S
C790 C791 1.363 . S
C790 C796 1.379 . S
C790 N798 1.356 . S
C791 C790 1.363 . S
C791 C797 1.363 . S
C792 C793 1.363 . S
C792 C797 1.379 . S
C792 N799 1.356 . S
C793 C792 1.363 . S
C793 C796 1.363 . S
N794 C796 1.356 . S
N794 H806 0.984 . S
N794 H807 0.985 . S
N795 C797 1.356 . S
N795 H800 0.984 . S
N795 H801 0.985 . S
C796 C790 1.379 . S
C796 C793 1.363 . S
C796 N794 1.356 . S
C797 C791 1.363 . S
C797 C792 1.379 . S
C797 N795 1.356 . S
N798 C790 1.356 . S
N798 H804 0.984 . S
N798 H805 0.984 . S
N799 C792 1.356 . S
N799 H802 0.984 . S
N799 H803 0.985 . S
H800 N795 0.984 . S
H801 N795 0.985 . S
H802 N799 0.984 . S
H803 N799 0.985 . S
H804 N798 0.984 . S
H805 N798 0.984 . S
H806 N794 0.984 . S
H807 N794 0.985 . S
C808 C809 1.363 . S
C808 C814 1.379 . S
C808 N816 1.356 . S
C809 C808 1.363 . S
C809 C815 1.363 . S
C810 C811 1.363 . S
C810 C815 1.379 . S
C810 N817 1.356 . S
C811 C810 1.363 . S
C811 C814 1.363 . S
N812 C814 1.356 . S
N812 H824 0.984 . S
N812 H825 0.985 . S
N813 C815 1.356 1_554 S
N813 H818 0.984 . S
N813 H819 0.985 . S
C814 C808 1.379 . S
C814 C811 1.363 . S
C814 N812 1.356 . S
C815 C809 1.363 . S
C815 C810 1.379 . S
C815 N813 1.356 1_556 S
N816 C808 1.356 . S
N816 H822 0.984 . S
N816 H823 0.984 1_556 S
N817 C810 1.356 . S
N817 H820 0.984 . S
N817 H821 0.985 . S
H818 N813 0.984 . S
H819 N813 0.985 . S
H820 N817 0.984 . S
H821 N817 0.985 . S
H822 N816 0.984 . S
H823 N816 0.984 1_554 S
H824 N812 0.984 . S
H825 N812 0.985 . S
C826 C827 1.363 . S
C826 C832 1.379 . S
C826 N834 1.356 . S
C827 C826 1.363 . S
C827 C833 1.363 . S
C828 C829 1.363 . S
C828 C833 1.379 . S
C828 N835 1.356 . S
C829 C828 1.363 . S
C829 C832 1.363 . S
N830 C832 1.356 . S
N830 H842 0.984 . S
N830 H843 0.985 . S
N831 C833 1.356 . S
N831 H836 0.984 . S
N831 H837 0.985 . S
C832 C826 1.379 . S
C832 C829 1.363 . S
C832 N830 1.356 . S
C833 C827 1.363 . S
C833 C828 1.379 . S
C833 N831 1.356 . S
N834 C826 1.356 . S
N834 H840 0.984 . S
N834 H841 0.984 . S
N835 C828 1.356 . S
N835 H838 0.984 . S
N835 H839 0.985 . S
H836 N831 0.984 . S
H837 N831 0.985 . S
H838 N835 0.984 . S
H839 N835 0.985 . S
H840 N834 0.984 . S
H841 N834 0.984 . S
H842 N830 0.984 . S
H843 N830 0.985 . S
C844 C845 1.363 . S
C844 C850 1.379 . S
C844 N852 1.356 . S
C845 C844 1.363 . S
C845 C851 1.363 . S
C846 C847 1.363 . S
C846 C851 1.379 . S
C846 N853 1.356 . S
C847 C846 1.363 . S
C847 C850 1.363 . S
N848 C850 1.356 . S
N848 H860 0.984 . S
N848 H861 0.985 . S
N849 C851 1.356 1_556 S
N849 H854 0.984 . S
N849 H855 0.985 . S
C850 C844 1.379 . S
C850 C847 1.363 . S
C850 N848 1.356 . S
C851 C845 1.363 . S
C851 C846 1.379 . S
C851 N849 1.356 1_554 S
N852 C844 1.356 . S
N852 H858 0.984 . S
N852 H859 0.984 1_554 S
N853 C846 1.356 . S
N853 H856 0.984 . S
N853 H857 0.985 . S
H854 N849 0.984 . S
H855 N849 0.985 . S
H856 N853 0.984 . S
H857 N853 0.985 . S
H858 N852 0.984 . S
H859 N852 0.984 1_556 S
H860 N848 0.984 . S
H861 N848 0.985 . S
C862 C863 1.363 . S
C862 C868 1.379 . S
C862 N870 1.356 . S
C863 C862 1.363 . S
C863 C869 1.363 . S
C864 C865 1.363 . S
C864 C869 1.379 . S
C864 N871 1.356 . S
C865 C864 1.363 . S
C865 C868 1.363 . S
N866 C868 1.356 . S
N866 H878 0.984 . S
N866 H879 0.985 . S
N867 C869 1.356 . S
N867 H872 0.984 . S
N867 H873 0.985 . S
C868 C862 1.379 . S
C868 C865 1.363 . S
C868 N866 1.356 . S
C869 C863 1.363 . S
C869 C864 1.379 . S
C869 N867 1.356 . S
N870 C862 1.356 . S
N870 H876 0.984 . S
N870 H877 0.984 . S
N871 C864 1.356 . S
N871 H874 0.984 . S
N871 H875 0.985 . S
H872 N867 0.984 . S
H873 N867 0.985 . S
H874 N871 0.984 . S
H875 N871 0.985 . S
H876 N870 0.984 . S
H877 N870 0.984 . S
H878 N866 0.984 . S
H879 N866 0.985 . S
C880 C881 1.363 . S
C880 C886 1.379 . S
C880 N888 1.356 . S
C881 C880 1.363 . S
C881 C887 1.363 . S
C882 C883 1.363 . S
C882 C887 1.379 . S
C882 N889 1.342 1_455 S
C883 C882 1.363 . S
C883 C886 1.363 . S
N884 C886 1.356 . S
N884 H896 0.984 . S
N884 H897 0.985 . S
N885 C887 1.356 . S
N885 H890 0.984 . S
N885 H891 0.985 . S
C886 C880 1.379 . S
C886 C883 1.363 . S
C886 N884 1.356 . S
C887 C881 1.363 . S
C887 C882 1.379 . S
C887 N885 1.356 . S
N888 C880 1.356 . S
N888 H894 0.984 . S
N888 H895 0.984 . S
N889 C882 1.342 1_655 S
N889 H892 0.985 . S
N889 H893 0.998 . S
H890 N885 0.984 . S
H891 N885 0.985 . S
H892 N889 0.985 . S
H893 N889 0.998 . S
H894 N888 0.984 . S
H895 N888 0.984 . S
H896 N884 0.984 . S
H897 N884 0.985 . S
C898 C899 1.363 . S
C898 C904 1.379 . S
C898 N906 1.356 . S
C899 C898 1.363 . S
C899 C905 1.363 . S
C900 C901 1.363 . S
C900 C905 1.379 . S
C900 N907 1.356 . S
C901 C900 1.363 . S
C901 C904 1.363 . S
N902 C904 1.356 . S
N902 H914 0.984 . S
N902 H915 0.985 . S
N903 C905 1.356 . S
N903 H908 0.984 . S
N903 H909 0.985 . S
C904 C898 1.379 . S
C904 C901 1.363 . S
C904 N902 1.356 . S
C905 C899 1.363 . S
C905 C900 1.379 . S
C905 N903 1.356 . S
N906 C898 1.356 . S
N906 H912 0.984 . S
N906 H913 0.984 . S
N907 C900 1.356 . S
N907 H910 0.984 . S
N907 H911 0.985 . S
H908 N903 0.984 . S
H909 N903 0.985 . S
H910 N907 0.984 . S
H911 N907 0.985 . S
H912 N906 0.984 . S
H913 N906 0.984 . S
H914 N902 0.984 . S
H915 N902 0.985 . S
C916 C917 1.363 . S
C916 C922 1.379 . S
C916 N924 1.356 . S
C917 C916 1.363 . S
C917 C923 1.363 . S
C918 C919 1.363 . S
C918 C923 1.379 . S
C918 N925 1.356 . S
C919 C918 1.363 . S
C919 C922 1.363 . S
N920 C922 1.356 . S
N920 H932 0.984 . S
N920 H933 0.985 . S
N921 C923 1.356 . S
N921 H926 0.984 . S
N921 H927 0.985 . S
C922 C916 1.379 . S
C922 C919 1.363 . S
C922 N920 1.356 . S
C923 C917 1.363 . S
C923 C918 1.379 . S
C923 N921 1.356 . S
N924 C916 1.356 . S
N924 H930 0.984 . S
N924 H931 0.984 . S
N925 C918 1.356 . S
N925 H928 0.984 . S
N925 H929 0.985 . S
H926 N921 0.984 . S
H927 N921 0.985 . S
H928 N925 0.984 . S
H929 N925 0.985 . S
H930 N924 0.984 . S
H931 N924 0.984 . S
H932 N920 0.984 . S
H933 N920 0.985 . S
C934 C935 1.363 . S
C934 C940 1.379 . S
C934 N942 1.356 . S
C935 C934 1.363 . S
C935 C941 1.363 . S
C936 C937 1.363 . S
C936 C941 1.379 . S
C936 N943 1.356 . S
C937 C936 1.363 . S
C937 C940 1.363 . S
N938 C940 1.356 1_455 S
N938 H950 0.984 . S
N938 H951 0.985 . S
N939 C941 1.356 . S
N939 H944 0.984 . S
N939 H945 0.985 . S
C940 C934 1.379 . S
C940 C937 1.363 . S
C940 N938 1.356 1_655 S
C941 C935 1.363 . S
C941 C936 1.379 . S
C941 N939 1.356 . S
N942 C934 1.356 . S
N942 H948 0.984 1_655 S
N942 H949 0.984 . S
N943 C936 1.356 . S
N943 H946 0.984 . S
N943 H947 0.985 . S
H944 N939 0.984 . S
H945 N939 0.985 . S
H946 N943 0.984 . S
H947 N943 0.985 . S
H948 N942 0.984 1_455 S
H949 N942 0.984 . S
H950 N938 0.984 . S
H951 N938 0.985 . S
C952 C953 1.363 . S
C952 C958 1.379 . S
C952 N960 1.356 . S
C953 C952 1.363 . S
C953 C959 1.363 . S
C954 C955 1.363 . S
C954 C959 1.379 . S
C954 N961 1.356 . S
C955 C954 1.363 . S
C955 C958 1.363 . S
N956 C958 1.356 . S
N956 H968 0.984 . S
N956 H969 0.985 . S
N957 C959 1.356 . S
N957 H962 0.984 . S
N957 H963 0.985 . S
C958 C952 1.379 . S
C958 C955 1.363 . S
C958 N956 1.356 . S
C959 C953 1.363 . S
C959 C954 1.379 . S
C959 N957 1.356 . S
N960 C952 1.356 . S
N960 H966 0.984 . S
N960 H967 0.984 . S
N961 C954 1.356 . S
N961 H964 0.984 . S
N961 H965 0.985 . S
H962 N957 0.984 . S
H963 N957 0.985 . S
H964 N961 0.984 . S
H965 N961 0.985 . S
H966 N960 0.984 . S
H967 N960 0.984 . S
H968 N956 0.984 . S
H969 N956 0.985 . S
C970 C971 1.363 . S
C970 C976 1.379 . S
C970 N978 1.356 . S
C971 C970 1.363 . S
C971 C977 1.363 . S
C972 C973 1.363 . S
C972 C977 1.379 . S
C972 N979 1.356 . S
C973 C972 1.363 . S
C973 C976 1.363 . S
N974 C976 1.356 . S
N974 H986 0.984 . S
N974 H987 0.985 . S
N975 C977 1.356 . S
N975 H980 0.984 . S
N975 H981 0.985 . S
C976 C970 1.379 . S
C976 C973 1.363 . S
C976 N974 1.356 . S
C977 C971 1.363 . S
C977 C972 1.379 . S
C977 N975 1.356 . S
N978 C970 1.356 . S
N978 H984 0.984 . S
N978 H985 0.984 . S
N979 C972 1.356 . S
N979 H982 0.984 . S
N979 H983 0.985 . S
H980 N975 0.984 . S
H981 N975 0.985 . S
H982 N979 0.984 . S
H983 N979 0.985 . S
H984 N978 0.984 . S
H985 N978 0.984 . S
H986 N974 0.984 . S
H987 N974 0.985 . S
C988 C989 1.363 . S
C988 C994 1.379 . S
C988 N996 1.356 . S
C989 C988 1.363 . S
C989 C995 1.363 . S
C990 C991 1.363 . S
C990 C995 1.379 . S
C990 N997 1.356 . S
C991 C990 1.363 . S
C991 C994 1.363 . S
N992 C994 1.356 . S
N992 H1004 0.984 . S
N992 H1005 0.985 . S
N993 C995 1.356 . S
N993 H998 0.984 . S
N993 H999 0.985 . S
C994 C988 1.379 . S
C994 C991 1.363 . S
C994 N992 1.356 . S
C995 C989 1.363 . S
C995 C990 1.379 . S
C995 N993 1.356 . S
N996 C988 1.356 . S
N996 H1002 0.984 . S
N996 H1003 0.984 . S
N997 C990 1.356 . S
N997 H1000 0.984 . S
N997 H1001 0.985 . S
H998 N993 0.984 . S
H999 N993 0.985 . S
H1000 N997 0.984 . S
H1001 N997 0.985 . S
H1002 N996 0.984 . S
H1003 N996 0.984 . S
H1004 N992 0.984 . S
H1005 N992 0.985 . S
C1006 C1007 1.363 . S
C1006 C1012 1.379 . S
C1006 N1014 1.356 . S
C1007 C1006 1.363 . S
C1007 C1013 1.363 . S
C1008 C1009 1.363 . S
C1008 C1013 1.379 . S
C1008 N1015 1.356 . S
C1009 C1008 1.363 . S
C1009 C1012 1.363 . S
N1010 C1012 1.356 . S
N1010 H1022 0.984 . S
N1010 H1023 0.985 . S
N1011 C1013 1.356 . S
N1011 H1016 0.984 . S
N1011 H1017 0.985 . S
C1012 C1006 1.379 . S
C1012 C1009 1.363 . S
C1012 N1010 1.356 . S
C1013 C1007 1.363 . S
C1013 C1008 1.379 . S
C1013 N1011 1.356 . S
N1014 C1006 1.356 . S
N1014 H1020 0.984 . S
N1014 H1021 0.984 . S
N1015 C1008 1.356 . S
N1015 H1018 0.984 . S
N1015 H1019 0.985 . S
H1016 N1011 0.984 . S
H1017 N1011 0.985 . S
H1018 N1015 0.984 . S
H1019 N1015 0.985 . S
H1020 N1014 0.984 . S
H1021 N1014 0.984 . S
H1022 N1010 0.984 . S
H1023 N1010 0.985 . S
C593 C221 1.466 1_545 S
C595 C330 1.480 . S
C613 C414 1.486 . S
C611 C241 1.449 . S
C631 C407 1.486 . S
C629 C157 1.477 . S
C647 C177 1.440 1_545 S
C649 C323 1.490 . S
C667 C487 1.480 . S
C665 C93 1.425 1_565 S
C685 C571 1.486 . S
C683 C113 1.492 . S
C701 C29 1.431 . S
C703 C564 1.486 . S
C719 C49 1.490 1_565 S
C721 C480 1.490 . S
C739 C314 1.321 . S
C737 C61 1.516 1_554 S
C757 C398 1.325 . S
C755 C17 1.464 . S
C775 C409 1.393 . S
C773 C125 1.524 1_556 S
C793 C325 1.393 . S
C791 C81 1.481 . S
C811 C493 1.321 . S
C809 C189 1.450 1_556 S
C827 C145 1.510 . S
C829 C577 1.325 . S
C847 C566 1.393 . S
C845 C253 1.468 1_554 S
C863 C209 1.520 . S
C865 C482 1.393 . S
C883 C312 1.549 . S
C881 C23 1.493 . S
C901 C396 1.562 . S
C899 C55 1.551 . S
C917 C87 1.492 . S
C919 C403 1.535 . S
C937 C319 1.547 . S
C935 C119 1.541 . S
C955 C491 1.549 . S
C953 C151 1.547 . S
C971 C183 1.490 . S
C973 C575 1.562 . S
C989 C215 1.538 . S
C991 C582 1.535 . S
C1007 C247 1.488 . S
C1009 C498 1.547 . S
