# Generated by pormake.
# Topology zzz, (3,6)-cn, num edge types: 1
# Building blocks:
#     Node 0, Type 0, BuildingBlock: PAMTOO_clean_linker_0, # of connection points: 3
#     Node 1, Type 0, BuildingBlock: PAMTOO_clean_linker_0, # of connection points: 3
#     Node 2, Type 0, BuildingBlock: PAMTOO_clean_linker_0, # of connection points: 3
#     Node 3, Type 0, BuildingBlock: PAMTOO_clean_linker_0, # of connection points: 3
#     Node 4, Type 0, BuildingBlock: PAMTOO_clean_linker_0, # of connection points: 3
#     Node 5, Type 0, BuildingBlock: PAMTOO_clean_linker_0, # of connection points: 3
#     Node 6, Type 0, BuildingBlock: PAMTOO_clean_linker_0, # of connection points: 3
#     Node 7, Type 0, BuildingBlock: PAMTOO_clean_linker_0, # of connection points: 3
#     Node 8, Type 1, BuildingBlock: BETGAK_clean_sbu_0, # of connection points: 6
#     Node 9, Type 1, BuildingBlock: BETGAK_clean_sbu_0, # of connection points: 6
#     Node 10, Type 1, BuildingBlock: BETGAK_clean_sbu_0, # of connection points: 6
#     Node 11, Type 1, BuildingBlock: BETGAK_clean_sbu_0, # of connection points: 6
#     Edge 12, Type (0, 1), None
#     Edge 13, Type (0, 1), None
#     Edge 14, Type (0, 1), None
#     Edge 15, Type (0, 1), None
#     Edge 16, Type (0, 1), None
#     Edge 17, Type (0, 1), None
#     Edge 18, Type (0, 1), None
#     Edge 19, Type (0, 1), None
#     Edge 20, Type (0, 1), None
#     Edge 21, Type (0, 1), None
#     Edge 22, Type (0, 1), None
#     Edge 23, Type (0, 1), None
#     Edge 24, Type (0, 1), None
#     Edge 25, Type (0, 1), None
#     Edge 26, Type (0, 1), None
#     Edge 27, Type (0, 1), None
#     Edge 28, Type (0, 1), None
#     Edge 29, Type (0, 1), None
#     Edge 30, Type (0, 1), None
#     Edge 31, Type (0, 1), None
#     Edge 32, Type (0, 1), None
#     Edge 33, Type (0, 1), None
#     Edge 34, Type (0, 1), None
#     Edge 35, Type (0, 1), None
# Relax obj value: 0.670
# Max RMSD: 0.261
# Mean RMSD: 0.148
data_MOF--net-zzz--node1-BETGAK_clean_sbu_0--node2-PAMTOO_clean_linker_0--edge1-none
_symmetry_space_group_name_H-M    P1
_symmetry_Int_Tables_number       1
_symmetry_cell_setting            triclinic
loop_
_symmetry_equiv_pos_as_xyz
'x, y, z'
_cell_length_a     22.525671
_cell_length_b     22.576345
_cell_length_c     6.9518201
_cell_angle_alpha  89.388019
_cell_angle_beta   89.910333
_cell_angle_gamma 89.922647
loop_
_atom_site_label
_atom_site_type_symbol
_atom_site_fract_x
_atom_site_fract_y
_atom_site_fract_z
_atom_type_partial_charge
H0 H 0.89859 0.52053 0.48766 0.0
H1 H 0.77617 0.51577 0.11411 0.0
H2 H 0.82919 0.62828 0.58395 0.0
H3 H 0.66782 0.59202 0.44893 0.0
C4 C 0.68571 0.57961 0.3108 0.0
O5 O 0.74333 0.6047 0.29732 0.0
H6 H 0.68918 0.53055 0.31573 0.0
C7 C 0.89472 0.49208 0.41013 0.0
C8 C 0.89133 0.54857 0.53712 0.0
C9 C 0.85146 0.48388 0.26746 0.0
C10 C 0.8064 0.52465 0.23136 0.0
C11 C 0.79467 0.57367 0.34619 0.0
C12 C 0.8361 0.58886 0.49971 0.0
H13 H 0.08746 0.90249 0.46649 0.0
H14 H 0.09656 0.77745 0.10789 0.0
H15 H 0.98157 0.83129 0.575 0.0
H16 H 1.02179 0.66876 0.44532 0.0
C17 C 1.03455 0.68683 0.30675 0.0
O18 O 1.00772 0.74391 0.29227 0.0
H19 H 0.08352 0.69162 0.31354 0.0
C20 C 0.11644 0.89855 0.3895 0.0
C21 C 1.05957 0.89548 0.51729 0.0
C22 C 0.1262 0.85401 0.25401 0.0
C23 C 0.08638 0.80829 0.22179 0.0
C24 C 1.03716 0.79637 0.33737 0.0
C25 C 1.0206 0.83878 0.48734 0.0
H26 H 0.72623 0.08948 0.49203 0.0
H27 H 0.86533 0.10666 0.1875 0.0
H28 H 0.80216 0.99363 0.65251 0.0
H29 H 0.90172 0.98644 0.14699 0.0
C30 C 0.93224 0.99722 0.26711 0.0
O31 O 0.89947 1.02588 0.4154 0.0
H32 H 0.94839 0.95413 0.32484 0.0
C33 C 0.72982 0.11604 0.40553 0.0
C34 C 0.73409 0.06414 0.55418 0.0
C35 C 0.77798 0.1272 0.28254 0.0
C36 C 0.83002 0.09348 0.28418 0.0
C37 C 0.84074 1.0461 0.41108 0.0
C38 C 0.79421 1.02902 0.54966 0.0
H39 H 0.52177 0.72272 0.49038 0.0
H40 H 0.51866 0.84602 0.11546 0.0
H41 H 0.63074 0.79008 0.5887 0.0
H42 H 0.59377 0.95245 0.45347 0.0
C43 C 0.58116 0.9345 0.31616 0.0
O44 O 0.60707 0.87742 0.3041 0.0
H45 H 0.53208 0.9306 0.32147 0.0
C46 C 0.49312 0.72764 0.41268 0.0
C47 C 0.55029 0.72942 0.53957 0.0
C48 C 0.48556 0.77132 0.26924 0.0
C49 C 0.52709 0.81545 0.23362 0.0
C50 C 0.57611 0.82608 0.35027 0.0
C51 C 0.59112 0.78401 0.50352 0.0
H52 H 0.22136 0.59837 0.29077 0.0
H53 H 0.34318 0.60243 0.66623 0.0
H54 H 0.29155 0.49146 0.1907 0.0
H55 H 0.45319 0.5304 0.32992 0.0
C56 C 0.43452 0.5412 0.46846 0.0
O57 O 0.37735 0.51485 0.4777 0.0
H58 H 0.42984 0.59019 0.47002 0.0
C59 C 0.2251 0.62668 0.36886 0.0
C60 C 0.22876 0.57049 0.24057 0.0
C61 C 0.2682 0.63466 0.51213 0.0
C62 C 0.31322 0.59381 0.548 0.0
C63 C 0.32554 0.54542 0.43083 0.0
C64 C 0.28429 0.53049 0.27653 0.0
H65 H 1.03362 0.21661 0.31134 0.0
H66 H 1.02537 0.34097 0.67237 0.0
H67 H 0.13831 0.28886 0.19786 0.0
H68 H 1.03505 0.4264 0.47308 0.0
C69 C 0.08394 0.43263 0.4717 0.0
O70 O 0.11237 0.37618 0.48106 0.0
H71 H 0.09445 0.45147 0.33224 0.0
C72 C 1.00481 0.22041 0.38911 0.0
C73 C 0.06129 0.22383 0.2596 0.0
C74 C 0.9953 0.26479 0.52526 0.0
C75 C 1.0352 0.31046 0.55718 0.0
C76 C 0.08358 0.32312 0.43853 0.0
C77 C 0.09981 0.28093 0.28757 0.0
H78 H 0.395 1.03027 0.28886 0.0
H79 H 0.25582 1.01316 0.59309 0.0
H80 H 0.31879 0.12556 0.12623 0.0
H81 H 0.17179 0.1651 0.45077 0.0
C82 C 0.18826 0.12225 0.5094 0.0
O83 O 0.22149 0.09323 0.363 0.0
H84 H 0.21853 0.13417 0.62901 0.0
C85 C 0.39143 1.00381 0.37573 0.0
C86 C 0.38708 1.05549 0.22626 0.0
C87 C 0.34325 0.99271 0.49868 0.0
C88 C 0.29115 1.02631 0.49645 0.0
C89 C 0.28032 0.07341 0.36857 0.0
C90 C 0.32684 0.0904 0.22986 0.0
H91 H 0.59804 0.39697 0.28888 0.0
H92 H 0.60062 0.27436 0.66585 0.0
H93 H 0.49006 0.32859 0.18671 0.0
H94 H 0.53043 0.16604 0.32638 0.0
C95 C 0.54121 0.18476 0.46419 0.0
O96 O 0.51381 0.24129 0.47169 0.0
H97 H 0.59022 0.19 0.4656 0.0
C98 C 0.62658 0.39221 0.36705 0.0
C99 C 0.56968 0.39009 0.239 0.0
C100 C 0.63401 0.34869 0.51101 0.0
C101 C 0.59244 0.30461 0.54661 0.0
C102 C 0.54412 0.29323 0.42755 0.0
C103 C 0.52927 0.3351 0.27352 0.0
La104 La 0.10864 1.04006 0.94683 0.0
La105 La 1.0121 0.07912 0.8312 0.0
C106 C 0.2087 1.00419 0.05955 0.0
C107 C 0.2396 0.95083 0.99186 0.0
C108 C 0.20649 0.91696 0.8626 0.0
C109 C 0.17315 0.87056 0.94097 0.0
C110 C 0.18018 0.85745 0.13729 0.0
C111 C 0.2334 0.87427 0.2266 0.0
C112 C 0.26645 0.91919 0.14014 0.0
C113 C 0.13378 0.08786 0.59996 0.0
C114 C 1.04416 0.9488 0.68199 0.0
C115 C 0.91195 0.11519 0.72016 0.0
C116 C 0.88133 0.16865 0.78851 0.0
C117 C 0.91473 0.20239 0.91741 0.0
C118 C 0.94828 0.24859 0.83866 0.0
C119 C 0.94135 0.26148 0.64217 0.0
C120 C 0.888 0.24491 0.55312 0.0
C121 C 0.85456 0.20046 0.64052 0.0
C122 C 0.98722 1.0314 0.1788 0.0
C123 C 0.07673 0.17047 0.09508 0.0
O124 O 0.20209 1.04601 0.93339 0.0
O125 O 0.15941 0.99495 0.15463 0.0
O126 O 0.14057 1.0332 0.64839 0.0
O127 O 0.10028 0.11016 0.73159 0.0
O128 O 0.07882 0.95265 0.83414 0.0
O129 O 1.01945 1.00022 0.63141 0.0
O130 O 0.91866 0.07335 0.84615 0.0
O131 O 0.96109 0.12426 0.62406 0.0
O132 O 0.98052 0.08603 0.12995 0.0
O133 O 1.02045 1.00912 0.04635 0.0
O134 O 1.04219 0.16658 0.94268 0.0
O135 O 0.10122 0.11901 0.14622 0.0
H136 H 0.19346 0.93516 0.72467 0.0
H137 H 0.13495 0.85475 0.86264 0.0
H138 H 0.24296 0.86217 0.37414 0.0
H139 H 0.30232 0.93885 0.21552 0.0
H140 H 0.92767 0.18423 0.05549 0.0
H141 H 0.98645 0.26446 0.917 0.0
H142 H 0.87846 0.25685 0.40545 0.0
H143 H 0.81836 0.18111 0.566 0.0
La144 La 0.57458 0.10777 0.96638 0.0
La145 La 0.54662 1.01152 0.8143 0.0
C146 C 0.62232 0.20112 0.0877 0.0
C147 C 0.67446 0.23282 1.01113 0.0
C148 C 0.70858 0.19954 0.88269 0.0
C149 C 0.75589 0.16736 0.96219 0.0
C150 C 0.77234 0.17859 0.15286 0.0
C151 C 0.75452 0.23272 0.23357 0.0
C152 C 0.7059 0.26189 0.15359 0.0
C153 C 0.52816 0.13898 0.62747 0.0
C154 C 0.67661 1.04753 0.70553 0.0
C155 C 0.49885 0.91812 0.69355 0.0
C156 C 0.44652 0.88673 0.77017 0.0
C157 C 0.41255 0.92019 0.89852 0.0
C158 C 0.3653 0.9525 0.81909 0.0
C159 C 0.34883 0.94133 0.6284 0.0
C160 C 0.36646 0.88716 0.54768 0.0
C161 C 0.4149 0.85777 0.62788 0.0
C162 C 0.59326 0.98055 0.15264 0.0
C163 C 0.44454 0.07206 0.07485 0.0
O164 O 0.5754 0.20129 0.98059 0.0
O165 O 0.63308 0.14809 0.15715 0.0
O166 O 0.51021 0.15724 0.79206 0.0
O167 O 0.56343 0.09514 0.65965 0.0
O168 O 0.66626 0.07881 0.86273 0.0
O169 O 0.62815 1.02392 0.63502 0.0
O170 O 0.54569 0.91798 0.80103 0.0
O171 O 0.4883 0.97109 0.62335 0.0
O172 O 0.61173 0.96271 0.98812 0.0
O173 O 0.55752 1.02402 0.12045 0.0
O174 O 0.45497 1.04066 0.91794 0.0
O175 O 0.49292 0.09581 0.14532 0.0
H176 H 0.68907 0.18471 0.74945 0.0
H177 H 0.7711 0.12772 0.89112 0.0
H178 H 0.76836 0.24546 0.37575 0.0
H179 H 0.68445 0.29574 0.23436 0.0
H180 H 0.43211 0.93495 0.03178 0.0
H181 H 0.3501 0.99212 0.89026 0.0
H182 H 0.3526 0.87448 0.40547 0.0
H183 H 0.4361 0.82368 0.54761 0.0
La184 La 0.51111 0.57299 0.96611 0.0
La185 La 0.60911 0.54668 0.81335 0.0
C186 C 0.41641 0.61909 0.08705 0.0
C187 C 0.38215 0.66907 1.00589 0.0
C188 C 0.41398 0.70407 0.87419 0.0
C189 C 0.44403 0.75282 0.94967 0.0
C190 C 0.43356 0.76721 0.14333 0.0
C191 C 0.37986 0.74876 0.22661 0.0
C192 C 0.35172 0.70015 0.14658 0.0
C193 C 0.4807 0.52686 0.62941 0.0
C194 C 0.5688 0.67413 0.69486 0.0
C195 C 0.70397 0.50071 0.69326 0.0
C196 C 0.73797 0.45059 0.77468 0.0
C197 C 0.70591 0.4157 0.90623 0.0
C198 C 0.6757 0.36705 0.83069 0.0
C199 C 0.68603 0.35276 0.63689 0.0
C200 C 0.7398 0.37101 0.5536 0.0
C201 C 0.76827 0.41933 0.63416 0.0
C202 C 0.6392 0.59303 0.1497 0.0
C203 C 0.5511 0.44537 0.08369 0.0
O204 O 0.41747 0.57099 0.98737 0.0
O205 O 0.46938 0.63234 0.15075 0.0
O206 O 0.46244 0.50851 0.79472 0.0
O207 O 0.52481 0.56177 0.65981 0.0
O208 O 0.53724 0.66406 0.85298 0.0
O209 O 0.59501 0.62661 0.62871 0.0
O210 O 0.70279 0.54874 0.79327 0.0
O211 O 0.65108 0.48758 0.62865 0.0
O212 O 0.657 0.61196 0.98448 0.0
O213 O 0.59553 0.5576 0.11908 0.0
O214 O 0.58283 0.4556 0.926 0.0
O215 O 0.52472 0.49278 0.14995 0.0
H216 H 0.42951 0.68495 0.74125 0.0
H217 H 0.48264 0.76963 0.87426 0.0
H218 H 0.36743 0.76217 0.37008 0.0
H219 H 0.31751 0.67854 0.22491 0.0
H220 H 0.69049 0.43484 0.03926 0.0
H221 H 0.63715 0.3502 0.90631 0.0
H222 H 0.7522 0.35763 0.41011 0.0
H223 H 0.80282 0.44063 0.55658 0.0
La224 La 1.04764 0.5114 0.96649 0.0
La225 La 0.07232 0.6081 0.81193 0.0
C226 C 1.00481 0.41566 0.09368 0.0
C227 C 0.95593 0.37991 1.01674 0.0
C228 C 0.92079 0.41003 0.88118 0.0
C229 C 0.8712 0.43994 0.9532 0.0
C230 C 0.85614 0.43089 0.14763 0.0
C231 C 0.87524 0.37814 0.23715 0.0
C232 C 0.92511 0.35029 0.16176 0.0
C233 C 0.09593 0.4799 0.63127 0.0
C234 C 0.94601 0.56685 0.69304 0.0
C235 C 0.11514 0.70394 0.6857 0.0
C236 C 0.16422 0.73935 0.76321 0.0
C237 C 0.19918 0.70892 0.8986 0.0
C238 C 0.24864 0.67877 0.82653 0.0
C239 C 0.26361 0.68766 0.63198 0.0
C240 C 0.2448 0.74052 0.54249 0.0
C241 C 0.1953 0.76884 0.61855 0.0
C242 C 1.02377 0.63934 0.14658 0.0
C243 C 0.1741 0.55224 0.08459 0.0
O244 O 1.05268 0.41809 0.99103 0.0
O245 O 0.98981 0.46816 0.15542 0.0
O246 O 0.11408 0.46314 0.7983 0.0
O247 O 1.05993 0.52358 0.65863 0.0
O248 O 0.95594 0.53534 0.85202 0.0
O249 O 0.99377 0.59288 0.62626 0.0
O250 O 0.06729 0.70145 0.78842 0.0
O251 O 0.12997 0.65151 0.62302 0.0
O252 O 1.00508 0.65563 0.97965 0.0
O253 O 1.06028 0.59608 0.11919 0.0
O254 O 0.164 0.58395 0.92609 0.0
O255 O 0.12646 0.52603 0.15141 0.0
H256 H 0.94028 0.42513 0.74697 0.0
H257 H 0.85453 0.478 0.87435 0.0
H258 H 0.86177 0.367 0.38247 0.0
H259 H 0.94794 0.31821 0.24736 0.0
H260 H 0.17964 0.69395 0.0329 0.0
H261 H 0.26535 0.64078 0.9056 0.0
H262 H 0.25822 0.75162 0.39712 0.0
H263 H 0.17285 0.80138 0.53384 0.0
loop_
_geom_bond_atom_site_label_1
_geom_bond_atom_site_label_2
_geom_bond_distance
_geom_bond_site_symmetry_2
_ccdc_geom_bond_type
H0 C7 0.929 . S
H1 C10 0.930 . S
H2 C12 0.929 . S
H3 C4 0.969 . S
C4 H3 0.969 . S
C4 O5 1.550 . S
C4 H6 0.973 . S
O5 C4 1.550 . S
O5 C11 1.412 . S
H6 C4 0.973 . S
C7 H0 0.929 . S
C7 C8 1.400 . S
C7 C9 1.364 . S
C8 C7 1.400 . S
C8 C12 1.377 . S
C9 C7 1.364 . S
C9 C10 1.374 . S
C10 H1 0.930 . S
C10 C9 1.374 . S
C10 C11 1.383 . S
C11 O5 1.412 . S
C11 C10 1.383 . S
C11 C12 1.394 . S
C12 H2 0.929 . S
C12 C8 1.377 . S
C12 C11 1.394 . S
H13 C20 0.928 1_655 S
H14 C23 0.931 . S
H15 C25 0.929 1_655 S
H16 C17 0.969 . S
C17 H16 0.969 . S
C17 O18 1.550 1_455 S
C17 H19 0.973 1_455 S
O18 C17 1.550 1_655 S
O18 C24 1.412 1_655 S
H19 C17 0.973 1_655 S
C20 H13 0.928 1_455 S
C20 C21 1.399 . S
C20 C22 1.364 . S
C21 C20 1.399 . S
C21 C25 1.377 . S
C22 C20 1.364 . S
C22 C23 1.374 1_455 S
C23 H14 0.931 . S
C23 C22 1.374 1_655 S
C23 C24 1.383 1_655 S
C24 O18 1.412 1_455 S
C24 C23 1.383 1_455 S
C24 C25 1.394 . S
C25 H15 0.929 1_455 S
C25 C21 1.377 . S
C25 C24 1.394 . S
H26 C33 0.928 1_565 S
H27 C36 0.931 . S
H28 C38 0.929 1_565 S
H29 C30 0.969 . S
C30 H29 0.969 . S
C30 O31 1.550 1_545 S
C30 H32 0.973 1_545 S
O31 C30 1.550 1_565 S
O31 C37 1.412 1_565 S
H32 C30 0.973 1_565 S
C33 H26 0.928 1_545 S
C33 C34 1.399 . S
C33 C35 1.364 . S
C34 C33 1.399 . S
C34 C38 1.377 . S
C35 C33 1.364 . S
C35 C36 1.374 1_545 S
C36 H27 0.931 . S
C36 C35 1.374 1_565 S
C36 C37 1.383 1_565 S
C37 O31 1.412 1_545 S
C37 C36 1.383 1_545 S
C37 C38 1.394 . S
C38 H28 0.929 1_545 S
C38 C34 1.377 . S
C38 C37 1.394 . S
H39 C46 0.929 . S
H40 C49 0.930 . S
H41 C51 0.929 . S
H42 C43 0.969 . S
C43 H42 0.969 . S
C43 O44 1.550 . S
C43 H45 0.973 . S
O44 C43 1.550 . S
O44 C50 1.412 . S
H45 C43 0.973 . S
C46 H39 0.929 . S
C46 C47 1.400 . S
C46 C48 1.364 . S
C47 C46 1.400 . S
C47 C51 1.377 . S
C48 C46 1.364 . S
C48 C49 1.374 . S
C49 H40 0.930 . S
C49 C48 1.374 . S
C49 C50 1.383 . S
C50 O44 1.412 . S
C50 C49 1.383 . S
C50 C51 1.394 . S
C51 H41 0.929 . S
C51 C47 1.377 . S
C51 C50 1.394 . S
H52 C59 0.929 . S
H53 C62 0.930 . S
H54 C64 0.929 . S
H55 C56 0.969 . S
C56 H55 0.969 . S
C56 O57 1.550 . S
C56 H58 0.973 . S
O57 C56 1.550 . S
O57 C63 1.412 . S
H58 C56 0.973 . S
C59 H52 0.929 . S
C59 C60 1.400 . S
C59 C61 1.364 1_556 S
C60 C59 1.400 . S
C60 C64 1.377 . S
C61 C59 1.364 1_554 S
C61 C62 1.374 . S
C62 H53 0.930 . S
C62 C61 1.374 . S
C62 C63 1.383 . S
C63 O57 1.412 . S
C63 C62 1.383 . S
C63 C64 1.394 1_554 S
C64 H54 0.929 . S
C64 C60 1.377 . S
C64 C63 1.394 1_556 S
H65 C72 0.928 1_656 S
H66 C75 0.931 . S
H67 C77 0.928 1_655 S
H68 C69 0.969 . S
C69 H68 0.969 . S
C69 O70 1.550 1_455 S
C69 H71 0.973 1_455 S
O70 C69 1.550 1_655 S
O70 C76 1.412 1_655 S
H71 C69 0.973 1_655 S
C72 H65 0.928 1_454 S
C72 C73 1.400 1_554 S
C72 C74 1.364 . S
C73 C72 1.400 1_556 S
C73 C77 1.377 . S
C74 C72 1.364 . S
C74 C75 1.374 1_455 S
C75 H66 0.931 . S
C75 C74 1.374 1_655 S
C75 C76 1.383 1_655 S
C76 O70 1.412 1_455 S
C76 C75 1.383 1_455 S
C76 C77 1.395 1_554 S
C77 H67 0.928 1_455 S
C77 C73 1.377 . S
C77 C76 1.395 1_556 S
H78 C85 0.928 1_565 S
H79 C88 0.931 . S
H80 C90 0.928 1_565 S
H81 C82 0.969 . S
C82 H81 0.969 . S
C82 O83 1.550 1_545 S
C82 H84 0.973 1_545 S
O83 C82 1.550 1_565 S
O83 C89 1.412 1_565 S
H84 C82 0.973 1_565 S
C85 H78 0.928 1_545 S
C85 C86 1.400 . S
C85 C87 1.364 1_556 S
C86 C85 1.400 . S
C86 C90 1.377 . S
C87 C85 1.364 1_554 S
C87 C88 1.374 1_545 S
C88 H79 0.931 . S
C88 C87 1.374 1_565 S
C88 C89 1.383 1_565 S
C89 O83 1.412 1_545 S
C89 C88 1.383 1_545 S
C89 C90 1.395 1_554 S
C90 H80 0.928 1_545 S
C90 C86 1.377 . S
C90 C89 1.395 1_556 S
H91 C98 0.929 . S
H92 C101 0.930 . S
H93 C103 0.929 . S
H94 C95 0.969 . S
C95 H94 0.969 . S
C95 O96 1.550 . S
C95 H97 0.973 . S
O96 C95 1.550 . S
O96 C102 1.412 . S
H97 C95 0.973 . S
C98 H91 0.929 . S
C98 C99 1.400 . S
C98 C100 1.364 1_556 S
C99 C98 1.400 . S
C99 C103 1.377 . S
C100 C98 1.364 1_554 S
C100 C101 1.374 . S
C101 H92 0.930 . S
C101 C100 1.374 . S
C101 C102 1.383 . S
C102 O96 1.412 . S
C102 C101 1.383 . S
C102 C103 1.394 1_554 S
C103 H93 0.929 . S
C103 C99 1.377 . S
C103 C102 1.394 1_556 S
La104 C106 2.928 . S
La104 O124 2.521 . S
La104 O125 2.628 . S
La104 O126 2.554 1_554 S
La104 O127 2.757 1_564 S
La104 O128 2.470 1_554 S
La104 O133 2.482 1_455 S
La104 O135 2.503 1_565 S
La105 C115 2.928 . S
La105 O127 2.482 1_655 S
La105 O129 2.503 1_545 S
La105 O130 2.521 . S
La105 O131 2.628 . S
La105 O132 2.554 . S
La105 O133 2.757 1_546 S
La105 O134 2.470 . S
C106 La104 2.928 . S
C106 C107 1.503 . S
C106 O124 1.261 . S
C106 O125 1.243 . S
C107 C106 1.503 . S
C107 C108 1.394 . S
C107 C112 1.373 . S
C108 C107 1.394 . S
C108 C109 1.380 . S
C108 H136 0.930 . S
C109 C108 1.380 . S
C109 C110 1.376 . S
C109 H137 0.930 . S
C110 C109 1.376 . S
C110 C111 1.370 . S
C111 C110 1.370 . S
C111 C112 1.396 . S
C111 H138 0.929 . S
C112 C107 1.373 . S
C112 C111 1.396 . S
C112 H139 0.929 . S
C113 O126 1.240 . S
C113 O127 1.289 1_565 S
C114 O128 1.258 1_655 S
C114 O129 1.256 . S
C115 La105 2.928 . S
C115 C116 1.503 . S
C115 O130 1.261 . S
C115 O131 1.243 . S
C116 C115 1.503 . S
C116 C117 1.394 . S
C116 C121 1.373 . S
C117 C116 1.394 . S
C117 C118 1.380 . S
C117 H140 0.930 . S
C118 C117 1.380 . S
C118 C119 1.376 . S
C118 H141 0.930 . S
C119 C118 1.376 . S
C119 C120 1.370 . S
C120 C119 1.370 . S
C120 C121 1.396 . S
C120 H142 0.929 . S
C121 C116 1.373 . S
C121 C120 1.396 . S
C121 H143 0.929 . S
C122 O132 1.240 1_554 S
C122 O133 1.289 1_545 S
C123 O134 1.258 1_455 S
C123 O135 1.256 1_556 S
O124 La104 2.521 . S
O124 C106 1.261 . S
O125 La104 2.628 . S
O125 C106 1.243 . S
O126 La104 2.554 1_556 S
O126 C113 1.240 . S
O127 La104 2.757 1_546 S
O127 La105 2.482 1_455 S
O127 C113 1.289 1_545 S
O128 La104 2.470 1_556 S
O128 C114 1.258 1_455 S
O129 La105 2.503 1_565 S
O129 C114 1.256 . S
O130 La105 2.521 . S
O130 C115 1.261 . S
O131 La105 2.628 . S
O131 C115 1.243 . S
O132 La105 2.554 . S
O132 C122 1.240 1_556 S
O133 La104 2.482 1_655 S
O133 La105 2.757 1_564 S
O133 C122 1.289 1_565 S
O134 La105 2.470 . S
O134 C123 1.258 1_655 S
O135 La104 2.503 1_545 S
O135 C123 1.256 1_554 S
H136 C108 0.930 . S
H137 C109 0.930 . S
H138 C111 0.929 . S
H139 C112 0.929 . S
H140 C117 0.930 . S
H141 C118 0.930 . S
H142 C120 0.929 . S
H143 C121 0.929 . S
La144 C146 2.928 . S
La144 O164 2.521 . S
La144 O165 2.628 . S
La144 O166 2.554 1_554 S
La144 O167 2.757 1_554 S
La144 O168 2.470 1_554 S
La144 O173 2.482 1_545 S
La144 O175 2.503 . S
La145 C155 2.928 . S
La145 O167 2.482 1_565 S
La145 O169 2.503 . S
La145 O170 2.521 . S
La145 O171 2.628 . S
La145 O172 2.554 . S
La145 O173 2.757 1_556 S
La145 O174 2.470 . S
C146 La144 2.928 . S
C146 C147 1.503 . S
C146 O164 1.261 . S
C146 O165 1.243 . S
C147 C146 1.503 . S
C147 C148 1.394 . S
C147 C152 1.373 . S
C148 C147 1.394 . S
C148 C149 1.380 . S
C148 H176 0.930 . S
C149 C148 1.380 . S
C149 C150 1.376 . S
C149 H177 0.930 . S
C150 C149 1.376 . S
C150 C151 1.370 . S
C151 C150 1.370 . S
C151 C152 1.396 . S
C151 H178 0.929 . S
C152 C147 1.373 . S
C152 C151 1.396 . S
C152 H179 0.929 . S
C153 O166 1.240 . S
C153 O167 1.289 . S
C154 O168 1.258 1_565 S
C154 O169 1.256 . S
C155 La145 2.928 . S
C155 C156 1.503 . S
C155 O170 1.261 . S
C155 O171 1.243 . S
C156 C155 1.503 . S
C156 C157 1.394 . S
C156 C161 1.373 . S
C157 C156 1.394 . S
C157 C158 1.380 . S
C157 H180 0.930 . S
C158 C157 1.380 . S
C158 C159 1.376 . S
C158 H181 0.930 . S
C159 C158 1.376 . S
C159 C160 1.370 . S
C160 C159 1.370 . S
C160 C161 1.396 . S
C160 H182 0.929 . S
C161 C156 1.373 . S
C161 C160 1.396 . S
C161 H183 0.929 . S
C162 O172 1.240 1_554 S
C162 O173 1.289 . S
C163 O174 1.258 1_545 S
C163 O175 1.256 1_556 S
O164 La144 2.521 . S
O164 C146 1.261 . S
O165 La144 2.628 . S
O165 C146 1.243 . S
O166 La144 2.554 1_556 S
O166 C153 1.240 . S
O167 La144 2.757 1_556 S
O167 La145 2.482 1_545 S
O167 C153 1.289 . S
O168 La144 2.470 1_556 S
O168 C154 1.258 1_545 S
O169 La145 2.503 . S
O169 C154 1.256 . S
O170 La145 2.521 . S
O170 C155 1.261 . S
O171 La145 2.628 . S
O171 C155 1.243 . S
O172 La145 2.554 . S
O172 C162 1.240 1_556 S
O173 La144 2.482 1_565 S
O173 La145 2.757 1_554 S
O173 C162 1.289 . S
O174 La145 2.470 . S
O174 C163 1.258 1_565 S
O175 La144 2.503 . S
O175 C163 1.256 1_554 S
H176 C148 0.930 . S
H177 C149 0.930 . S
H178 C151 0.929 . S
H179 C152 0.929 . S
H180 C157 0.930 . S
H181 C158 0.930 . S
H182 C160 0.929 . S
H183 C161 0.929 . S
La184 C186 2.928 . S
La184 O204 2.521 . S
La184 O205 2.628 . S
La184 O206 2.554 1_554 S
La184 O207 2.757 1_554 S
La184 O208 2.470 1_554 S
La184 O213 2.482 . S
La184 O215 2.503 . S
La185 C195 2.928 . S
La185 O207 2.482 . S
La185 O209 2.503 . S
La185 O210 2.521 . S
La185 O211 2.628 . S
La185 O212 2.554 . S
La185 O213 2.757 1_556 S
La185 O214 2.470 . S
C186 La184 2.928 . S
C186 C187 1.503 . S
C186 O204 1.261 . S
C186 O205 1.243 . S
C187 C186 1.503 . S
C187 C188 1.394 . S
C187 C192 1.373 . S
C188 C187 1.394 . S
C188 C189 1.380 . S
C188 H216 0.930 . S
C189 C188 1.380 . S
C189 C190 1.376 . S
C189 H217 0.930 . S
C190 C189 1.376 . S
C190 C191 1.370 . S
C191 C190 1.370 . S
C191 C192 1.396 . S
C191 H218 0.929 . S
C192 C187 1.373 . S
C192 C191 1.396 . S
C192 H219 0.929 . S
C193 O206 1.240 . S
C193 O207 1.289 . S
C194 O208 1.258 . S
C194 O209 1.256 . S
C195 La185 2.928 . S
C195 C196 1.503 . S
C195 O210 1.261 . S
C195 O211 1.243 . S
C196 C195 1.503 . S
C196 C197 1.394 . S
C196 C201 1.373 . S
C197 C196 1.394 . S
C197 C198 1.380 . S
C197 H220 0.930 . S
C198 C197 1.380 . S
C198 C199 1.376 . S
C198 H221 0.930 . S
C199 C198 1.376 . S
C199 C200 1.370 . S
C200 C199 1.370 . S
C200 C201 1.396 . S
C200 H222 0.929 . S
C201 C196 1.373 . S
C201 C200 1.396 . S
C201 H223 0.929 . S
C202 O212 1.240 1_554 S
C202 O213 1.289 . S
C203 O214 1.258 . S
C203 O215 1.256 1_556 S
O204 La184 2.521 . S
O204 C186 1.261 . S
O205 La184 2.628 . S
O205 C186 1.243 . S
O206 La184 2.554 1_556 S
O206 C193 1.240 . S
O207 La184 2.757 1_556 S
O207 La185 2.482 . S
O207 C193 1.289 . S
O208 La184 2.470 1_556 S
O208 C194 1.258 . S
O209 La185 2.503 . S
O209 C194 1.256 . S
O210 La185 2.521 . S
O210 C195 1.261 . S
O211 La185 2.628 . S
O211 C195 1.243 . S
O212 La185 2.554 . S
O212 C202 1.240 1_556 S
O213 La184 2.482 . S
O213 La185 2.757 1_554 S
O213 C202 1.289 . S
O214 La185 2.470 . S
O214 C203 1.258 . S
O215 La184 2.503 . S
O215 C203 1.256 1_554 S
H216 C188 0.930 . S
H217 C189 0.930 . S
H218 C191 0.929 . S
H219 C192 0.929 . S
H220 C197 0.930 . S
H221 C198 0.930 . S
H222 C200 0.929 . S
H223 C201 0.929 . S
La224 C226 2.928 . S
La224 O244 2.521 . S
La224 O245 2.628 . S
La224 O246 2.554 1_554 S
La224 O247 2.757 1_654 S
La224 O248 2.470 1_554 S
La224 O253 2.482 . S
La224 O255 2.503 1_655 S
La225 C235 2.928 . S
La225 O247 2.482 . S
La225 O249 2.503 1_455 S
La225 O250 2.521 . S
La225 O251 2.628 . S
La225 O252 2.554 . S
La225 O253 2.757 1_456 S
La225 O254 2.470 . S
C226 La224 2.928 . S
C226 C227 1.503 . S
C226 O244 1.261 . S
C226 O245 1.243 . S
C227 C226 1.503 . S
C227 C228 1.394 . S
C227 C232 1.373 . S
C228 C227 1.394 . S
C228 C229 1.380 . S
C228 H256 0.930 . S
C229 C228 1.380 . S
C229 C230 1.376 . S
C229 H257 0.930 . S
C230 C229 1.376 . S
C230 C231 1.370 . S
C231 C230 1.370 . S
C231 C232 1.396 . S
C231 H258 0.929 . S
C232 C227 1.373 . S
C232 C231 1.396 . S
C232 H259 0.929 . S
C233 O246 1.241 . S
C233 O247 1.289 1_655 S
C234 O248 1.258 . S
C234 O249 1.256 . S
C235 La225 2.928 . S
C235 C236 1.503 . S
C235 O250 1.261 . S
C235 O251 1.243 . S
C236 C235 1.503 . S
C236 C237 1.394 . S
C236 C241 1.373 . S
C237 C236 1.394 . S
C237 C238 1.380 . S
C237 H260 0.930 . S
C238 C237 1.380 . S
C238 C239 1.376 . S
C238 H261 0.930 . S
C239 C238 1.376 . S
C239 C240 1.370 . S
C240 C239 1.370 . S
C240 C241 1.396 . S
C240 H262 0.929 . S
C241 C236 1.373 . S
C241 C240 1.396 . S
C241 H263 0.929 . S
C242 O252 1.243 1_554 S
C242 O253 1.288 1_455 S
C243 O254 1.258 . S
C243 O255 1.256 1_556 S
O244 La224 2.521 . S
O244 C226 1.261 . S
O245 La224 2.628 . S
O245 C226 1.243 . S
O246 La224 2.554 1_556 S
O246 C233 1.241 . S
O247 La224 2.757 1_456 S
O247 La225 2.482 . S
O247 C233 1.289 1_455 S
O248 La224 2.470 1_556 S
O248 C234 1.258 . S
O249 La225 2.503 1_655 S
O249 C234 1.256 . S
O250 La225 2.521 . S
O250 C235 1.261 . S
O251 La225 2.628 . S
O251 C235 1.243 . S
O252 La225 2.554 . S
O252 C242 1.243 1_556 S
O253 La224 2.482 . S
O253 La225 2.757 1_654 S
O253 C242 1.288 1_655 S
O254 La225 2.470 . S
O254 C243 1.258 . S
O255 La224 2.503 1_455 S
O255 C243 1.256 1_554 S
H256 C228 0.930 . S
H257 C229 0.930 . S
H258 C231 0.929 . S
H259 C232 0.929 . S
H260 C237 0.930 . S
H261 C238 0.930 . S
H262 C240 0.929 . S
H263 C241 0.929 . S
C82 C113 3.441 1_545 S
C153 C95 3.439 . S
C193 C56 3.461 . S
C233 C69 3.449 1_655 S
C122 C30 3.424 . S
C43 C162 3.488 . S
C4 C202 3.526 . S
C17 C242 3.449 . S
C119 C74 2.644 1_655 S
C159 C87 2.474 1_565 S
C199 C100 2.343 . S
C61 C239 2.485 . S
C22 C110 2.643 . S
C150 C35 2.474 . S
C190 C48 2.322 . S
C9 C230 2.464 . S
C73 C123 4.028 . S
C86 C163 3.949 . S
C203 C99 3.951 . S
C243 C60 4.026 . S
C21 C114 4.033 1_455 S
C154 C34 3.949 1_565 S
C194 C47 3.963 . S
C8 C234 4.042 . S
