# Generated by pormake.
# Topology sqc, (4,8)-cn, num edge types: 1
# Building blocks:
#     Node 0, Type 0, BuildingBlock: NAWXER_clean_linker_0, # of connection points: 4
#     Node 1, Type 0, BuildingBlock: NAWXER_clean_linker_0, # of connection points: 4
#     Node 2, Type 0, BuildingBlock: NAWXER_clean_linker_0, # of connection points: 4
#     Node 3, Type 0, BuildingBlock: NAWXER_clean_linker_0, # of connection points: 4
#     Node 4, Type 0, BuildingBlock: NAWXER_clean_linker_0, # of connection points: 4
#     Node 5, Type 0, BuildingBlock: NAWXER_clean_linker_0, # of connection points: 4
#     Node 6, Type 0, BuildingBlock: NAWXER_clean_linker_0, # of connection points: 4
#     Node 7, Type 0, BuildingBlock: NAWXER_clean_linker_0, # of connection points: 4
#     Node 8, Type 1, BuildingBlock: TAGTUT_clean_sbu_3, # of connection points: 8
#     Node 9, Type 1, BuildingBlock: TAGTUT_clean_sbu_3, # of connection points: 8
#     Node 10, Type 1, BuildingBlock: TAGTUT_clean_sbu_3, # of connection points: 8
#     Node 11, Type 1, BuildingBlock: TAGTUT_clean_sbu_3, # of connection points: 8
#     Edge 12, Type (0, 1), BuildingBlock: EZIPEK_clean_linker_0, # of connection points: 2
#     Edge 13, Type (0, 1), BuildingBlock: EZIPEK_clean_linker_0, # of connection points: 2
#     Edge 14, Type (0, 1), BuildingBlock: EZIPEK_clean_linker_0, # of connection points: 2
#     Edge 15, Type (0, 1), BuildingBlock: EZIPEK_clean_linker_0, # of connection points: 2
#     Edge 16, Type (0, 1), BuildingBlock: EZIPEK_clean_linker_0, # of connection points: 2
#     Edge 17, Type (0, 1), BuildingBlock: EZIPEK_clean_linker_0, # of connection points: 2
#     Edge 18, Type (0, 1), BuildingBlock: EZIPEK_clean_linker_0, # of connection points: 2
#     Edge 19, Type (0, 1), BuildingBlock: EZIPEK_clean_linker_0, # of connection points: 2
#     Edge 20, Type (0, 1), BuildingBlock: EZIPEK_clean_linker_0, # of connection points: 2
#     Edge 21, Type (0, 1), BuildingBlock: EZIPEK_clean_linker_0, # of connection points: 2
#     Edge 22, Type (0, 1), BuildingBlock: EZIPEK_clean_linker_0, # of connection points: 2
#     Edge 23, Type (0, 1), BuildingBlock: EZIPEK_clean_linker_0, # of connection points: 2
#     Edge 24, Type (0, 1), BuildingBlock: EZIPEK_clean_linker_0, # of connection points: 2
#     Edge 25, Type (0, 1), BuildingBlock: EZIPEK_clean_linker_0, # of connection points: 2
#     Edge 26, Type (0, 1), BuildingBlock: EZIPEK_clean_linker_0, # of connection points: 2
#     Edge 27, Type (0, 1), BuildingBlock: EZIPEK_clean_linker_0, # of connection points: 2
#     Edge 28, Type (0, 1), BuildingBlock: EZIPEK_clean_linker_0, # of connection points: 2
#     Edge 29, Type (0, 1), BuildingBlock: EZIPEK_clean_linker_0, # of connection points: 2
#     Edge 30, Type (0, 1), BuildingBlock: EZIPEK_clean_linker_0, # of connection points: 2
#     Edge 31, Type (0, 1), BuildingBlock: EZIPEK_clean_linker_0, # of connection points: 2
#     Edge 32, Type (0, 1), BuildingBlock: EZIPEK_clean_linker_0, # of connection points: 2
#     Edge 33, Type (0, 1), BuildingBlock: EZIPEK_clean_linker_0, # of connection points: 2
#     Edge 34, Type (0, 1), BuildingBlock: EZIPEK_clean_linker_0, # of connection points: 2
#     Edge 35, Type (0, 1), BuildingBlock: EZIPEK_clean_linker_0, # of connection points: 2
#     Edge 36, Type (0, 1), BuildingBlock: EZIPEK_clean_linker_0, # of connection points: 2
#     Edge 37, Type (0, 1), BuildingBlock: EZIPEK_clean_linker_0, # of connection points: 2
#     Edge 38, Type (0, 1), BuildingBlock: EZIPEK_clean_linker_0, # of connection points: 2
#     Edge 39, Type (0, 1), BuildingBlock: EZIPEK_clean_linker_0, # of connection points: 2
#     Edge 40, Type (0, 1), BuildingBlock: EZIPEK_clean_linker_0, # of connection points: 2
#     Edge 41, Type (0, 1), BuildingBlock: EZIPEK_clean_linker_0, # of connection points: 2
#     Edge 42, Type (0, 1), BuildingBlock: EZIPEK_clean_linker_0, # of connection points: 2
#     Edge 43, Type (0, 1), BuildingBlock: EZIPEK_clean_linker_0, # of connection points: 2
# Relax obj value: 0.133
# Max RMSD: 0.254
# Mean RMSD: 0.158
data_MOF--net-sqc--node1-TAGTUT_clean_sbu_3--node2-NAWXER_clean_linker_0--edge1-EZIPEK_clean_linker_0
_symmetry_space_group_name_H-M    P1
_symmetry_Int_Tables_number       1
_symmetry_cell_setting            triclinic
loop_
_symmetry_equiv_pos_as_xyz
'x, y, z'
_cell_length_a     22.216961
_cell_length_b     22.201902
_cell_length_c     68.111657
_cell_angle_alpha  91.431644
_cell_angle_beta   89.898195
_cell_angle_gamma 89.986254
loop_
_atom_site_label
_atom_site_type_symbol
_atom_site_fract_x
_atom_site_fract_y
_atom_site_fract_z
_atom_type_partial_charge
C0 C 0.26992 0.99084 0.47014 0.0
C1 C 0.27722 0.93479 0.46046 0.0
C2 C 0.21561 0.00526 0.47944 0.0
C3 C 0.1689 0.96257 0.48022 0.0
C4 C 0.23019 0.89263 0.46078 0.0
C5 C 0.17656 0.90632 0.47066 0.0
C6 C 0.11155 0.97649 0.49056 0.0
C7 C 0.26013 0.99145 0.53422 0.0
C8 C 0.26844 0.04997 0.54197 0.0
C9 C 0.20747 0.97658 0.52406 0.0
C10 C 0.16312 0.02052 0.52095 0.0
C11 C 0.2236 0.09356 0.53933 0.0
C12 C 0.17122 0.0789 0.52891 0.0
C13 C 0.10882 0.00602 0.50916 0.0
C14 C 0.84976 0.98767 0.53286 0.0
C15 C 0.84303 0.04504 0.54169 0.0
C16 C 0.90041 0.97458 0.52124 0.0
C17 C 0.94449 0.01894 0.5182 0.0
C18 C 0.88631 0.08956 0.53835 0.0
C19 C 0.93677 0.07653 0.52679 0.0
C20 C 0.00139 0.00467 0.50775 0.0
C21 C 0.85668 0.98212 0.46123 0.0
C22 C 0.85427 0.924 0.45268 0.0
C23 C 0.90458 -0.0015 0.4736 0.0
C24 C 0.95035 0.95677 0.47764 0.0
C25 C 0.89949 0.88226 0.45686 0.0
C26 C 0.94729 0.8986 0.46914 0.0
C27 C 0.00409 0.97419 0.4893 0.0
H28 H 0.30546 0.02422 0.46982 0.0
H29 H 0.21018 0.04995 0.48592 0.0
H30 H 0.23486 0.84937 0.45321 0.0
H31 H 0.14105 0.8729 0.47084 0.0
H32 H 0.29392 0.95707 0.53639 0.0
H33 H 0.20158 0.93083 0.5185 0.0
H34 H 0.22908 0.13874 0.54545 0.0
H35 H 0.13743 0.11333 0.52681 0.0
H36 H 0.81685 0.95275 0.53544 0.0
H37 H 0.90608 0.92934 0.51521 0.0
H38 H 0.88177 0.13401 0.54513 0.0
H39 H 0.97033 0.11127 0.52479 0.0
H40 H 0.82225 0.01496 0.458 0.0
H41 H 0.90669 0.04414 0.47956 0.0
H42 H 0.89835 0.83731 0.4503 0.0
H43 H 0.98226 0.86586 0.47189 0.0
N44 N 0.05909 0.96123 0.48148 0.0
N45 N 0.05391 0.01954 0.51691 0.0
C46 C 0.41475 0.51614 0.71732 0.0
C47 C 0.39432 0.50746 0.69773 0.0
C48 C 0.3921 0.56265 0.72943 0.0
C49 C 0.35059 0.60373 0.72207 0.0
C50 C 0.3609 0.55553 0.6899 0.0
C51 C 0.33787 0.6017 0.70196 0.0
C52 C 0.32451 0.65244 0.7346 0.0
C53 C 0.25967 0.47962 0.76093 0.0
C54 C 0.26252 0.47727 0.78147 0.0
C55 C 0.27176 0.53363 0.75157 0.0
C56 C 0.29125 0.58471 0.7625 0.0
C57 C 0.28304 0.52767 0.79231 0.0
C58 C 0.29778 0.5806 0.78291 0.0
C59 C 0.29948 0.64423 0.75347 0.0
C60 C 0.20916 0.89702 0.77384 0.0
C61 C 0.22909 0.90188 0.79333 0.0
C62 C 0.22579 0.84727 0.76204 0.0
C63 C 0.26309 0.80204 0.76953 0.0
C64 C 0.26477 0.85598 0.80101 0.0
C65 C 0.28135 0.80626 0.78923 0.0
C66 C 0.28363 0.75056 0.75695 0.0
C67 C 0.39327 0.8975 0.727 0.0
C68 C 0.36926 0.91075 0.70858 0.0
C69 C 0.36885 0.85082 0.73775 0.0
C70 C 0.32104 0.81673 0.72996 0.0
C71 C 0.3182 0.87991 0.70161 0.0
C72 C 0.29472 0.83241 0.71215 0.0
C73 C 0.30765 0.75799 0.73809 0.0
H74 H 0.44906 0.48814 0.72357 0.0
H75 H 0.40737 0.56669 0.7445 0.0
H76 H 0.3525 0.55916 0.67439 0.0
H77 H 0.30983 0.6359 0.69552 0.0
H78 H 0.244 0.44102 0.75234 0.0
H79 H 0.26351 0.53571 0.73596 0.0
H80 H 0.2858 0.52667 0.80818 0.0
H81 H 0.31252 0.61908 0.79175 0.0
H82 H 0.18127 0.93193 0.76775 0.0
H83 H 0.20956 0.84424 0.74707 0.0
H84 H 0.28037 0.8591 0.81606 0.0
H85 H 0.30971 0.77181 0.79538 0.0
H86 H 0.43288 0.92086 0.73246 0.0
H87 H 0.39015 0.83835 0.75136 0.0
H88 H 0.29939 0.88977 0.68738 0.0
H89 H 0.25828 0.8058 0.70591 0.0
N90 N 0.32707 0.70901 0.72767 0.0
N91 N 0.28047 0.69387 0.76395 0.0
C92 C 0.46452 0.04775 0.96224 0.0
C93 C 0.46189 0.10832 0.95707 0.0
C94 C 0.50905 0.02826 0.97494 0.0
C95 C 0.55094 0.06938 0.98298 0.0
C96 C 0.50309 0.14977 0.96515 0.0
C97 C 0.5474 0.13036 0.97805 0.0
C98 C 0.60314 0.04756 0.99414 0.0
C99 C 0.45302 0.00176 0.0353 0.0
C100 C 0.44588 0.94026 0.03878 0.0
C101 C 0.50145 0.02135 0.02409 0.0
C102 C 0.54302 0.97949 0.01626 0.0
C103 C 0.48574 0.89819 0.03033 0.0
C104 C 0.5343 0.91775 0.0192 0.0
C105 C 0.59966 0.00013 0.00743 0.0
C106 C 0.84779 0.96228 0.03702 0.0
C107 C 0.84375 0.89941 0.03823 0.0
C108 C 0.80543 0.99396 0.0262 0.0
C109 C 0.75899 0.96282 0.01637 0.0
C110 C 0.79912 0.86803 0.02776 0.0
C111 C 0.75707 0.89956 0.01688 0.0
C112 C 0.70668 0.99491 0.00842 0.0
C113 C 0.84991 0.06424 0.96638 0.0
C114 C 0.85604 0.12713 0.96716 0.0
C115 C 0.80535 0.03646 0.97742 0.0
C116 C 0.76648 0.07153 0.98922 0.0
C117 C 0.82014 0.16182 0.98002 0.0
C118 C 0.77505 0.13414 0.99084 0.0
C119 C 0.71011 0.04573 -0.00352 0.0
H120 H 0.43326 0.01525 0.95591 0.0
H121 H 0.51217 0.98058 0.97772 0.0
H122 H 0.50162 0.19667 0.96115 0.0
H123 H 0.57982 0.16267 0.9838 0.0
H124 H 0.42258 0.03458 0.04192 0.0
H125 H 0.5081 0.06928 0.02243 0.0
H126 H 0.48062 0.85057 0.03302 0.0
H127 H 0.56614 0.88485 0.0134 0.0
H128 H 0.88194 0.98694 0.04522 0.0
H129 H 0.80692 0.04272 0.02655 0.0
H130 H 0.79551 0.8195 0.02865 0.0
H131 H 0.72134 0.87466 0.00952 0.0
H132 H 0.87768 0.03708 0.95652 0.0
H133 H 0.7986 0.9883 0.97567 0.0
H134 H 0.8247 0.21041 0.98077 0.0
H135 H 0.74488 0.16188 -0.00028 0.0
N136 N 0.65824 0.0693 0.9895 0.0
N137 N 0.65147 0.97503 0.01375 0.0
C138 C 0.33078 0.08659 0.20888 0.0
C139 C 0.26972 0.08465 0.20372 0.0
C140 C 0.35437 0.13716 0.21875 0.0
C141 C 0.31712 0.18647 0.22372 0.0
C142 C 0.23215 0.13325 0.20894 0.0
C143 C 0.25577 0.18394 0.21879 0.0
C144 C 0.34229 0.24174 0.23319 0.0
C145 C 0.36192 0.10753 0.28174 0.0
C146 C 0.42172 0.09678 0.28712 0.0
C147 C 0.34887 0.15188 0.26826 0.0
C148 C 0.39561 0.18575 0.26012 0.0
C149 C 0.46861 0.12869 0.27838 0.0
C150 C 0.45555 0.17341 0.26505 0.0
C151 C 0.38185 0.2404 0.24933 0.0
C152 C 0.37379 0.4837 0.28372 0.0
C153 C 0.43389 0.4924 0.28932 0.0
C154 C 0.35886 0.43826 0.27011 0.0
C155 C 0.40389 0.4008 0.26204 0.0
C156 C 0.47924 0.45611 0.28092 0.0
C157 C 0.46416 0.4099 0.26754 0.0
C158 C 0.38709 0.34735 0.25008 0.0
C159 C 0.35497 0.50523 0.21197 0.0
C160 C 0.29651 0.51027 0.20448 0.0
C161 C 0.37224 0.45307 0.22156 0.0
C162 C 0.33065 0.40614 0.22435 0.0
C163 C 0.25486 0.46391 0.20739 0.0
C164 C 0.27178 0.41227 0.21723 0.0
C165 C 0.3486 0.34924 0.23365 0.0
H166 H 0.36057 0.04991 0.20459 0.0
H167 H 0.40211 0.13849 0.22191 0.0
H168 H 0.18513 0.1328 0.20474 0.0
H169 H 0.22626 0.2215 0.22237 0.0
H170 H 0.32545 0.08308 0.28849 0.0
H171 H 0.30226 0.16191 0.26503 0.0
H172 H 0.51496 0.12062 0.28249 0.0
H173 H 0.492 0.19982 0.25911 0.0
H174 H 0.33846 0.51157 0.29012 0.0
H175 H 0.31195 0.43092 0.26645 0.0
H176 H 0.52583 0.46262 0.28511 0.0
H177 H 0.49931 0.38072 0.26169 0.0
H178 H 0.38769 0.54056 0.20971 0.0
H179 H 0.41853 0.4489 0.22626 0.0
H180 H 0.20954 0.46719 0.20166 0.0
H181 H 0.23892 0.37681 0.21911 0.0
N182 N 0.32734 0.29624 0.22589 0.0
N183 N 0.40256 0.29309 0.25713 0.0
C184 C 0.917 0.01793 0.22248 0.0
C185 C 0.90208 -0.00195 0.20338 0.0
C186 C 0.87998 0.05936 0.23246 0.0
C187 C 0.82841 0.08185 0.22328 0.0
C188 C 0.85067 0.02083 0.19424 0.0
C189 C 0.81445 0.06303 0.20405 0.0
C190 C 0.79247 0.12969 0.23282 0.0
C191 C 0.7483 0.95741 0.26288 0.0
C192 C 0.74671 0.9599 0.28348 0.0
C193 C 0.75292 0.01044 0.2523 0.0
C194 C 0.7601 0.06674 0.26209 0.0
C195 C 0.75349 0.01582 0.29329 0.0
C196 C 0.7605 0.0685 0.28274 0.0
C197 C 0.76401 0.12436 0.2513 0.0
C198 C 0.65571 0.37307 0.26437 0.0
C199 C 0.68039 0.38753 0.28285 0.0
C200 C 0.67537 0.32157 0.25392 0.0
C201 C 0.71879 0.28343 0.26206 0.0
C202 C 0.72393 0.34938 0.29085 0.0
C203 C 0.74251 0.29751 0.28063 0.0
C204 C 0.74129 0.22974 0.25116 0.0
C205 C 0.85493 0.37372 0.2215 0.0
C206 C 0.83298 0.38663 0.20277 0.0
C207 C 0.82992 0.32688 0.23205 0.0
C208 C 0.78339 0.29183 0.22386 0.0
C209 C 0.78367 0.35411 0.19515 0.0
C210 C 0.75966 0.30621 0.20552 0.0
C211 C 0.76865 0.23404 0.23266 0.0
H212 H 0.95684 0.00099 0.22964 0.0
H213 H 0.8921 0.07472 0.24715 0.0
H214 H 0.83878 0.00603 0.17947 0.0
H215 H 0.77539 0.08091 0.19667 0.0
H216 H 0.74294 0.91473 0.25502 0.0
H217 H 0.74896 0.00703 0.2365 0.0
H218 H 0.75249 0.01879 0.30919 0.0
H219 H 0.76558 0.11087 0.2908 0.0
H220 H 0.62128 0.40136 0.25816 0.0
H221 H 0.6563 0.3111 0.23961 0.0
H222 H 0.74299 0.35948 0.30519 0.0
H223 H 0.77618 0.26882 0.2871 0.0
H224 H 0.89303 0.39825 0.22756 0.0
H225 H 0.84946 0.3155 0.24605 0.0
H226 H 0.76618 0.36362 0.18072 0.0
H227 H 0.72438 0.27886 0.1989 0.0
N228 N 0.79322 0.18402 0.22421 0.0
N229 N 0.73985 0.17514 0.25983 0.0
C230 C 0.77093 0.0377 0.72789 0.0
C231 C 0.78913 0.05112 0.70855 0.0
C232 C 0.77987 0.98035 0.73549 0.0
C233 C 0.80735 0.9347 0.72408 0.0
C234 C 0.81223 0.00278 0.69684 0.0
C235 C 0.82165 0.94586 0.70452 0.0
C236 C 0.82248 0.8756 0.73235 0.0
C237 C 0.92396 0.01893 0.76756 0.0
C238 C 0.92298 0.01042 0.78793 0.0
C239 C 0.90512 0.97275 0.75466 0.0
C240 C 0.8812 0.91919 0.76206 0.0
C241 C 0.90344 0.95536 0.79519 0.0
C242 C 0.88168 0.91081 0.78245 0.0
C243 C 0.8585 0.86919 0.74932 0.0
C244 C 0.9338 0.64409 0.77317 0.0
C245 C 0.88645 0.6117 0.78147 0.0
C246 C 0.92155 0.69084 0.76051 0.0
C247 C 0.86191 0.70502 0.75573 0.0
C248 C 0.82686 0.62383 0.77604 0.0
C249 C 0.81462 0.67025 0.76314 0.0
C250 C 0.84946 0.7625 0.74625 0.0
C251 C 0.70882 0.66157 0.70225 0.0
C252 C 0.7486 0.61545 0.69638 0.0
C253 C 0.73015 0.7116 0.713 0.0
C254 C 0.79121 0.71548 0.71815 0.0
C255 C 0.80949 0.61923 0.70154 0.0
C256 C 0.8307 0.66894 0.71232 0.0
C257 C 0.81392 0.76839 0.72937 0.0
H258 H 0.7499 0.07007 0.73761 0.0
H259 H 0.76635 0.97199 0.75047 0.0
H260 H 0.823 0.00837 0.68149 0.0
H261 H 0.8413 0.91073 0.69521 0.0
H262 H 0.93972 0.06101 0.7617 0.0
H263 H 0.90914 0.97926 0.73902 0.0
H264 H 0.90311 0.94766 0.81084 0.0
H265 H 0.86467 0.8697 0.78867 0.0
H266 H 0.97996 0.63518 0.7773 0.0
H267 H 0.95847 0.71773 0.75512 0.0
H268 H 0.78995 0.59916 0.78244 0.0
H269 H 0.76825 0.68141 0.75994 0.0
H270 H 0.66181 0.65947 0.69809 0.0
H271 H 0.69908 0.74718 0.71731 0.0
H272 H 0.84079 0.58435 0.6968 0.0
H273 H 0.87822 0.6716 0.71577 0.0
N274 N 0.80191 0.82475 0.72292 0.0
N275 N 0.87029 0.81284 0.75542 0.0
C276 C 0.75171 0.50478 0.96759 0.0
C277 C 0.7591 0.44801 0.95839 0.0
C278 C 0.6987 0.5185 0.97781 0.0
C279 C 0.65302 0.47505 0.97944 0.0
C280 C 0.71373 0.40451 0.96004 0.0
C281 C 0.66101 0.41798 0.97046 0.0
C282 C 0.59596 0.48924 0.98984 0.0
C283 C 0.74472 0.5033 0.03415 0.0
C284 C 0.75156 0.56161 0.04224 0.0
C285 C 0.69318 0.48824 0.02339 0.0
C286 C 0.64827 0.53161 0.02031 0.0
C287 C 0.7067 0.60487 0.03929 0.0
C288 C 0.65527 0.58989 0.02845 0.0
C289 C 0.59373 0.51659 0.00877 0.0
C290 C 0.33347 0.48905 0.03108 0.0
C291 C 0.32567 0.54315 0.04185 0.0
C292 C 0.38524 0.48008 0.01963 0.0
C293 C 0.42943 0.5254 0.01865 0.0
C294 C 0.36942 0.58847 0.04077 0.0
C295 C 0.42102 0.57956 0.02936 0.0
C296 C 0.48633 0.51528 0.00768 0.0
C297 C 0.34121 0.51581 0.96177 0.0
C298 C 0.33504 0.46112 0.95124 0.0
C299 C 0.39081 0.52527 0.97409 0.0
C300 C 0.43442 0.47985 0.97618 0.0
C301 C 0.37846 0.41586 0.95328 0.0
C302 C 0.42797 0.42528 0.96556 0.0
C303 C 0.48859 0.49006 0.98845 0.0
H304 H 0.78594 0.53915 0.96617 0.0
H305 H 0.69298 0.56343 0.98409 0.0
H306 H 0.71851 0.36075 0.9528 0.0
H307 H 0.62624 0.38396 0.97141 0.0
H308 H 0.77856 0.46918 0.0366 0.0
H309 H 0.68815 0.44261 0.01762 0.0
H310 H 0.71104 0.64983 0.04569 0.0
H311 H 0.62103 0.62387 0.02634 0.0
H312 H 0.30029 0.45347 0.03192 0.0
H313 H 0.3914 0.4372 0.01197 0.0
H314 H 0.36409 0.63037 0.0491 0.0
H315 H 0.4546 0.61489 0.02897 0.0
H316 H 0.30814 0.55124 0.96024 0.0
H317 H 0.39561 0.5684 0.98171 0.0
H318 H 0.37425 0.37339 0.9452 0.0
H319 H 0.46123 0.38988 0.9668 0.0
N320 N 0.5433 0.47717 0.9804 0.0
N321 N 0.53904 0.52844 0.01697 0.0
C322 C 0.94964 0.44144 0.51282 0.0
C323 C 0.94088 0.39011 0.52401 0.0
C324 C -0.00239 0.44365 0.49962 0.0
C325 C 0.03687 0.39425 0.49734 0.0
C326 C 0.97831 0.33983 0.5212 0.0
C327 C 0.02626 0.34201 0.508 0.0
C328 C 0.09469 0.4012 0.48702 0.0
C329 C 0.95317 0.41394 0.441 0.0
C330 C 0.94891 0.47162 0.43322 0.0
C331 C 0.00295 0.39891 0.45236 0.0
C332 C 0.04857 0.44158 0.45599 0.0
C333 C 0.99518 0.51349 0.43632 0.0
C334 C 0.04493 0.49844 0.44754 0.0
C335 C 0.1004 0.42786 0.46853 0.0
C336 C 0.32627 0.50348 0.44196 0.0
C337 C 0.34639 0.55134 0.4541 0.0
C338 C 0.2832 0.4633 0.44874 0.0
C339 C 0.26067 0.46971 0.4679 0.0
C340 C 0.32483 0.55715 0.47341 0.0
C341 C 0.28254 0.51621 0.48033 0.0
C342 C 0.20599 0.43692 0.47342 0.0
C343 C 0.3376 0.32591 0.50968 0.0
C344 C 0.34244 0.35201 0.52859 0.0
C345 C 0.29313 0.34568 0.49689 0.0
C346 C 0.25242 0.39045 0.50316 0.0
C347 C 0.30213 0.39741 0.53467 0.0
C348 C 0.25685 0.41597 0.5221 0.0
C349 C 0.20078 0.40537 0.49094 0.0
H350 H 0.92101 0.48058 0.51495 0.0
H351 H 0.00601 0.48526 0.49212 0.0
H352 H 0.97183 0.29992 0.52979 0.0
H353 H 0.05656 0.30387 0.5067 0.0
H354 H 0.91752 0.38131 0.43862 0.0
H355 H 0.00563 0.35432 0.4584 0.0
H356 H 0.99216 0.55818 0.43036 0.0
H357 H 0.07977 0.53187 0.45009 0.0
H358 H 0.34231 0.49864 0.42696 0.0
H359 H 0.26581 0.42861 0.43883 0.0
H360 H 0.33946 0.59425 0.48287 0.0
H361 H 0.26412 0.52317 0.49494 0.0
H362 H 0.36824 0.29051 0.50488 0.0
H363 H 0.28921 0.32479 0.48241 0.0
H364 H 0.30533 0.41785 0.54924 0.0
H365 H 0.225 0.44993 0.52717 0.0
N366 N 0.14536 0.38954 0.4973 0.0
N367 N 0.15576 0.44589 0.46261 0.0
C368 C 0.1728 0.6507 0.15188 0.0
C369 C 0.95339 0.5599 0.15426 0.0
C370 C 0.93953 0.63029 0.09645 0.0
Mg371 Mg 0.22371 0.76227 0.12693 0.0
Mg372 Mg 0.1366 0.8695 0.10989 0.0
O373 O 0.15016 0.78727 0.11241 0.0
Mg374 Mg 0.09031 0.73321 0.12464 0.0
O375 O 0.03542 0.67416 0.13698 0.0
Mg376 Mg 0.0646 0.59887 0.1233 0.0
Mg377 Mg 0.95259 0.68763 0.13683 0.0
C378 C 0.01401 0.81731 0.09368 0.0
O379 O 0.05191 0.80505 0.14626 0.0
O380 O 0.27747 0.81914 0.10499 0.0
O381 O 0.95538 0.77593 0.15072 0.0
O382 O 0.21896 0.84631 0.14848 0.0
O383 O 0.21441 0.88784 0.09247 0.0
O384 O 0.14842 0.91035 0.1382 0.0
O385 O 0.12431 0.65842 0.10377 0.0
O386 O 0.22211 0.68266 0.10497 0.0
C387 C 0.17919 0.64896 0.09866 0.0
C388 C 0.26592 0.86225 0.09337 0.0
O389 O 0.02153 0.76645 0.10195 0.0
O390 O 0.00248 0.54782 0.14491 0.0
O391 O 0.04987 0.86217 0.09593 0.0
O392 O 0.98596 0.59853 0.10043 0.0
O393 O 0.92651 0.61073 0.15319 0.0
O394 O 0.92167 0.67356 0.10761 0.0
O395 O 0.16208 0.70453 0.14642 0.0
O396 O 0.14101 0.60569 0.14586 0.0
C397 C 0.18799 0.89485 0.15061 0.0
C398 C -0.00089 0.81283 0.15363 0.0
C399 C 0.70145 0.80893 0.39599 0.0
C400 C 0.75265 0.57643 0.39187 0.0
C401 C 0.64428 0.5777 0.34025 0.0
Mg402 Mg 0.58573 0.87743 0.3774 0.0
Mg403 Mg 0.45749 0.80637 0.36598 0.0
O404 O 0.54142 0.80837 0.36488 0.0
Mg405 Mg 0.59177 0.74179 0.3742 0.0
O406 O 0.6477 0.67854 0.38315 0.0
Mg407 Mg 0.71566 0.69385 0.36448 0.0
Mg408 Mg 0.61874 0.59994 0.38287 0.0
C409 C 0.48319 0.67773 0.34765 0.0
O410 O 0.52714 0.71515 0.39944 0.0
O411 O 0.52629 0.93759 0.35783 0.0
O412 O 0.54231 0.61491 0.40142 0.0
O413 O 0.51537 0.88559 0.40287 0.0
O414 O 0.44373 0.88432 0.34898 0.0
O415 O 0.43508 0.82781 0.39571 0.0
O416 O 0.65645 0.76342 0.34903 0.0
O417 O 0.65095 0.86386 0.35195 0.0
C418 C 0.67225 0.8161 0.34364 0.0
C419 C 0.47714 0.93109 0.34808 0.0
O420 O 0.53736 0.67935 0.35401 0.0
O421 O 0.76743 0.62293 0.3821 0.0
O422 O 0.44416 0.71891 0.35159 0.0
O423 O 0.68788 0.61531 0.34228 0.0
O424 O 0.69828 0.55868 0.39396 0.0
O425 O 0.60382 0.57296 0.35332 0.0
O426 O 0.64402 0.80774 0.39377 0.0
O427 O 0.73625 0.77085 0.38705 0.0
C428 C 0.46368 0.86379 0.4072 0.0
C429 C 0.51492 0.66349 0.4066 0.0
C430 C 0.68469 0.17548 0.65104 0.0
C431 C 0.47702 0.06982 0.65339 0.0
C432 C 0.45992 0.12476 0.59342 0.0
Mg433 Mg 0.73116 0.28393 0.6237 0.0
Mg434 Mg 0.63874 0.38125 0.60307 0.0
O435 O 0.65689 0.30146 0.60839 0.0
Mg436 Mg 0.5999 0.24605 0.62103 0.0
O437 O 0.54851 0.18523 0.63373 0.0
Mg438 Mg 0.58513 0.11018 0.62189 0.0
Mg439 Mg 0.4651 0.19123 0.63264 0.0
C440 C 0.52138 0.31677 0.58736 0.0
O441 O 0.55212 0.31935 0.64064 0.0
O442 O 0.7821 0.33717 0.60004 0.0
O443 O 0.45794 0.28208 0.64395 0.0
O444 O 0.7196 0.37172 0.64291 0.0
O445 O 0.71516 0.39611 0.58469 0.0
O446 O 0.64794 0.43 0.6301 0.0
O447 O 0.64166 0.17041 0.60195 0.0
O448 O 0.73776 0.19969 0.604 0.0
C449 C 0.69741 0.16307 0.59768 0.0
C450 C 0.76793 0.37391 0.58653 0.0
O451 O 0.53221 0.26855 0.59676 0.0
O452 O 0.52652 0.05929 0.64415 0.0
O453 O 0.55297 0.36494 0.58919 0.0
O454 O 0.50911 0.09847 0.59811 0.0
O455 O 0.44587 0.11763 0.65112 0.0
O456 O 0.43729 0.16738 0.60382 0.0
O457 O 0.67112 0.2274 0.64442 0.0
O458 O 0.65755 0.12734 0.64523 0.0
C459 C 0.68656 0.41909 0.64336 0.0
C460 C 0.49739 0.32347 0.64679 0.0
C461 C 0.18415 0.35698 0.89416 0.0
C462 C 0.27526 0.15716 0.90166 0.0
C463 C 0.1831 0.10017 0.84824 0.0
Mg464 Mg 0.065 0.40703 0.8731 0.0
Mg465 Mg 0.94623 0.3236 0.86155 0.0
O466 O 0.02956 0.33147 0.86166 0.0
Mg467 Mg 0.0866 0.27149 0.87242 0.0
O468 O 0.15005 0.21773 0.88267 0.0
Mg469 Mg 0.21876 0.24093 0.86565 0.0
Mg470 Mg 0.14334 0.13806 0.89017 0.0
C471 C 0.98667 0.19534 0.84518 0.0
O472 O 0.02645 0.24198 0.89807 0.0
O473 O 0.00246 0.45914 0.85195 0.0
O474 O 0.05919 0.14889 0.9059 0.0
O475 O 0.99126 0.41173 0.89785 0.0
O476 O 0.92526 0.39837 0.84346 0.0
O477 O 0.91928 0.34351 0.89097 0.0
O478 O 0.15063 0.2951 0.8475 0.0
O479 O 0.1337 0.39467 0.84843 0.0
C480 C 0.16071 0.34808 0.84126 0.0
C481 C 0.9544 0.44777 0.84208 0.0
O482 O 0.0395 0.19971 0.85278 0.0
O483 O 0.28178 0.19123 0.88688 0.0
O484 O 0.94521 0.23491 0.84796 0.0
O485 O 0.20616 0.15284 0.84634 0.0
O486 O 0.22483 0.13415 0.90651 0.0
O487 O 0.15557 0.08523 0.86385 0.0
O488 O 0.12795 0.34709 0.89134 0.0
O489 O 0.22476 0.32402 0.88596 0.0
C490 C 0.94259 0.38381 0.90224 0.0
C491 C 0.0227 0.1935 0.90795 0.0
C492 C 0.37059 0.87314 0.45379 0.0
C493 C 0.33236 0.92171 0.44875 0.0
C494 C 0.39836 0.94433 0.42114 0.0
C495 C 0.42945 0.88956 0.42398 0.0
N496 N 0.44611 0.80074 0.44268 0.0
N497 N 0.30462 -0.00217 0.4256 0.0
C498 C 0.41614 0.85377 0.44034 0.0
C499 C 0.34522 0.95642 0.43203 0.0
N500 N 0.36394 0.84644 0.47152 0.0
N501 N 0.41881 0.98424 0.40772 0.0
H502 H 0.26341 0.0063 0.43245 0.0
H503 H 0.30893 0.01943 0.41227 0.0
H504 H 0.45764 0.97681 0.39943 0.0
H505 H 0.40104 0.02737 0.40637 0.0
H506 H 0.39358 0.81422 0.47672 0.0
H507 H 0.33171 0.86045 0.48182 0.0
H508 H 0.43365 0.76881 0.45287 0.0
H509 H 0.48227 0.78776 0.43373 0.0
C510 C 0.40603 0.01338 0.69977 0.0
C511 C 0.40206 0.95092 0.69537 0.0
C512 C 0.44956 0.96509 0.66344 0.0
C513 C 0.45627 0.02727 0.66823 0.0
N514 N 0.45864 0.10609 0.69338 0.0
N515 N 0.43628 0.86502 0.67591 0.0
C516 C 0.43989 0.05015 0.68717 0.0
C517 C 0.42898 0.92599 0.67809 0.0
N518 N 0.37592 0.03795 0.71555 0.0
N519 N 0.45976 0.94354 0.64476 0.0
H520 H 0.4232 0.8348 0.6866 0.0
H521 H 0.46099 0.84505 0.66448 0.0
H522 H 0.47459 0.97026 0.63339 0.0
H523 H 0.4485 0.89991 0.64012 0.0
H524 H 0.37232 0.08426 0.71816 0.0
H525 H 0.35018 0.01239 0.72508 0.0
H526 H 0.45242 0.1226 0.7077 0.0
H527 H 0.48641 0.13318 0.68494 0.0
C528 C 0.366 0.16052 0.94841 0.0
C529 C 0.41745 0.12717 0.94236 0.0
C530 C 0.37693 0.11521 0.9091 0.0
C531 C 0.32635 0.14991 0.91505 0.0
N532 N 0.27972 0.2189 0.93844 0.0
N533 N 0.47923 0.08504 0.91628 0.0
C534 C 0.32302 0.17674 0.93414 0.0
C535 C 0.42524 0.10836 0.92244 0.0
N536 N 0.35689 0.17444 0.96786 0.0
N537 N 0.37767 0.08686 0.89104 0.0
H538 H 0.51579 0.07988 0.92569 0.0
H539 H 0.48965 0.07597 0.90159 0.0
H540 H 0.34317 0.09139 0.88082 0.0
H541 H 0.41022 0.05547 0.88672 0.0
H542 H 0.31687 0.19263 0.97335 0.0
H543 H 0.38756 0.16361 0.97879 0.0
H544 H 0.27898 0.24462 0.95144 0.0
H545 H 0.24777 0.23247 0.92824 0.0
C546 C 0.21631 0.98541 0.19806 0.0
C547 C 0.24736 0.03566 0.19043 0.0
C548 C 0.24331 0.99044 0.15734 0.0
C549 C 0.2089 0.94198 0.1647 0.0
N550 N 0.15519 0.89638 0.19118 0.0
N551 N 0.2813 0.0917 0.1626 0.0
C552 C 0.19332 0.94018 0.18485 0.0
C553 C 0.25828 0.03976 0.17 0.0
N554 N 0.21007 0.98046 0.21792 0.0
N555 N 0.26317 0.98854 0.1383 0.0
H556 H 0.29382 0.12876 0.17137 0.0
H557 H 0.28341 0.10024 0.14765 0.0
H558 H 0.25197 0.95415 0.12827 0.0
H559 H 0.29468 0.01845 0.13278 0.0
H560 H 0.19335 0.94222 0.22458 0.0
H561 H 0.22536 0.01342 0.2279 0.0
H562 H 0.13682 0.89599 0.20524 0.0
H563 H 0.1385 0.86236 0.18184 0.0
C564 C 0.32718 0.03991 0.57306 0.0
C565 C 0.32226 0.06444 0.5541 0.0
C566 C 0.41464 0.12316 0.55969 0.0
C567 C 0.42014 0.09717 0.57838 0.0
N568 N 0.38985 0.02197 0.60134 0.0
N569 N 0.36584 0.12065 0.52777 0.0
C570 C 0.37925 0.05226 0.58446 0.0
C571 C 0.36751 0.10347 0.5469 0.0
N572 N 0.28034 0.00801 0.58072 0.0
N573 N 0.45369 0.16752 0.55445 0.0
H574 H 0.33207 0.10672 0.51805 0.0
H575 H 0.40002 0.14482 0.52109 0.0
H576 H 0.49052 0.18014 0.56311 0.0
H577 H 0.4483 0.19351 0.54207 0.0
H578 H 0.27833 0.99508 0.59529 0.0
H579 H 0.24062 -0.00113 0.57308 0.0
H580 H 0.36554 0.9842 0.60545 0.0
H581 H 0.42644 0.03131 0.61045 0.0
C582 C 0.15759 0.96123 0.81503 0.0
C583 C 0.21449 0.95594 0.8057 0.0
C584 C 0.25141 0.04355 0.82453 0.0
C585 C 0.19291 0.05271 0.83267 0.0
N586 N 0.08763 0.02486 0.83333 0.0
N587 N 0.31071 -0.00046 0.79801 0.0
C588 C 0.14512 0.01285 0.82721 0.0
C589 C 0.25966 -0.00023 0.80925 0.0
N590 N 0.11614 0.91611 0.81266 0.0
N591 N 0.30033 0.0725 0.83246 0.0
H592 H 0.31861 0.96775 0.78676 0.0
H593 H 0.34227 0.03427 0.79861 0.0
H594 H 0.29821 0.10095 0.84483 0.0
H595 H 0.34442 0.06251 0.82828 0.0
H596 H 0.07658 0.91358 0.82081 0.0
H597 H 0.12322 0.87847 0.80348 0.0
H598 H 0.05029 -5e-05 0.82879 0.0
H599 H 0.07594 0.06339 0.8415 0.0
C600 C 0.34394 0.89832 0.04563 0.0
C601 C 0.3998 0.9202 0.05275 0.0
C602 C 0.36729 0.90632 0.08668 0.0
C603 C 0.31287 0.8808 0.07951 0.0
N604 N 0.25415 0.84062 0.05239 0.0
N605 N 0.46952 0.93673 0.07949 0.0
C606 C 0.30236 0.87357 0.05902 0.0
C607 C 0.41294 0.92181 0.07314 0.0
N608 N 0.33028 0.90225 0.02614 0.0
N609 N 0.3745 0.91774 0.10636 0.0
H610 H 0.50392 0.94974 0.07005 0.0
H611 H 0.48389 0.93192 0.0939 0.0
H612 H 0.3428 0.90565 0.11684 0.0
H613 H 0.40987 0.94305 0.11225 0.0
H614 H 0.28768 0.89329 0.02042 0.0
H615 H 0.36031 0.91905 0.01583 0.0
H616 H 0.24766 0.82847 0.03768 0.0
H617 H 0.22338 0.82038 0.06174 0.0
C618 C 0.44442 0.99282 0.29793 0.0
C619 C 0.43521 0.05444 0.30281 0.0
C620 C 0.4499 0.03508 0.33771 0.0
C621 C 0.46352 0.97433 0.33267 0.0
N622 N 0.48504 0.89722 0.30793 0.0
N623 N 0.43565 0.13694 0.32658 0.0
C624 C 0.46373 0.95356 0.31275 0.0
C625 C 0.43991 0.07643 0.3225 0.0
N626 N 0.43429 0.97191 0.27916 0.0
N627 N 0.44414 0.05256 0.35701 0.0
H628 H 0.42585 0.16846 0.31594 0.0
H629 H 0.44566 0.15652 0.34023 0.0
H630 H 0.45151 0.02333 0.36848 0.0
H631 H 0.42772 0.09444 0.36167 0.0
H632 H 0.43335 0.92638 0.27514 0.0
H633 H 0.42226 -7e-05 0.26774 0.0
H634 H 0.49021 0.88095 0.29358 0.0
H635 H 0.50266 0.86798 0.31821 0.0
C636 C 0.79983 0.04666 0.57574 0.0
C637 C 0.79293 0.05886 0.55552 0.0
C638 C 0.70739 0.12522 0.56291 0.0
C639 C 0.71703 0.11626 0.58324 0.0
N640 N 0.75895 0.0568 0.60878 0.0
N641 N 0.73139 0.09467 0.52927 0.0
C642 C 0.75865 0.07254 0.58952 0.0
C643 C 0.7433 0.09286 0.54892 0.0
N644 N 0.84781 0.01341 0.58182 0.0
N645 N 0.66722 0.16783 0.55706 0.0
H646 H 0.75754 0.07153 0.51881 0.0
H647 H 0.69301 0.11437 0.52349 0.0
H648 H 0.6388 0.19106 0.56681 0.0
H649 H 0.66376 0.18225 0.54269 0.0
H650 H 0.85968 0.00891 0.59648 0.0
H651 H 0.87784 0.99233 0.57207 0.0
H652 H 0.78488 0.02199 0.61425 0.0
H653 H 0.72866 0.07535 0.61897 0.0
C654 C 0.77914 0.88684 0.30896 0.0
C655 C 0.73531 0.90508 0.29515 0.0
C656 C 0.66534 0.83046 0.30806 0.0
C657 C 0.70276 0.82493 0.32466 0.0
N658 N 0.79798 0.84058 0.34036 0.0
N659 N 0.63496 0.89439 0.28163 0.0
C660 C 0.7612 0.84991 0.32471 0.0
C661 C 0.67839 0.87572 0.2943 0.0
N662 N 0.83741 0.90536 0.307 0.0
N663 N 0.61587 0.79435 0.30612 0.0
H664 H 0.6409 0.92949 0.27197 0.0
H665 H 0.59109 0.8781 0.28165 0.0
H666 H 0.60587 0.76129 0.31625 0.0
H667 H 0.58888 0.79277 0.29363 0.0
H668 H 0.87243 0.89039 0.31576 0.0
H669 H 0.85149 0.93173 0.29537 0.0
H670 H 0.83852 0.86314 0.34268 0.0
H671 H 0.78623 0.8109 0.35139 0.0
C672 C 0.93816 0.84248 0.04506 0.0
C673 C 0.88305 0.86721 0.05194 0.0
C674 C 0.90712 0.83925 0.0856 0.0
C675 C 0.96572 0.82366 0.07916 0.0
N676 N 0.03784 0.80592 0.0532 0.0
N677 N 0.81229 0.88785 0.07817 0.0
C678 C 0.9812 0.82314 0.05894 0.0
C679 C 0.86628 0.86436 0.07203 0.0
N680 N 0.94895 0.83753 0.02531 0.0
N681 N 0.89106 0.83027 0.10469 0.0
H682 H 0.78021 0.90433 0.06851 0.0
H683 H 0.79995 0.89359 0.09283 0.0
H684 H 0.92071 0.81255 0.1149 0.0
H685 H 0.84756 0.83574 0.11012 0.0
H686 H 0.98566 0.81488 0.01916 0.0
H687 H 0.91866 0.85261 0.01483 0.0
H688 H 0.05489 0.811 0.03911 0.0
H689 H 0.06906 0.78792 0.06287 0.0
C690 C -0.00136 0.08457 0.80174 0.0
C691 C 0.94003 0.05934 0.80201 0.0
C692 C 0.91824 0.11416 0.83269 0.0
C693 C 0.97353 0.14539 0.8311 0.0
N694 N 0.06008 0.17015 0.81104 0.0
N695 N 0.83853 0.06362 0.81486 0.0
C696 C 0.01206 0.13363 0.81473 0.0
C697 C 0.89807 0.07818 0.81664 0.0
N698 N 0.04235 0.06018 0.78984 0.0
N699 N 0.8857 0.11738 0.84972 0.0
H700 H 0.82122 0.04 0.8027 0.0
H701 H 0.80555 0.08089 0.82434 0.0
H702 H 0.90064 0.14102 0.86218 0.0
H703 H 0.84765 0.09108 0.85211 0.0
H704 H 0.08729 0.07349 0.79062 0.0
H705 H 0.03527 0.02237 0.78076 0.0
H706 H 0.08566 0.16626 0.79823 0.0
H707 H 0.07086 0.20803 0.81963 0.0
C708 C 0.81375 0.91775 0.41831 0.0
C709 C 0.80612 0.90649 0.43857 0.0
C710 C 0.72082 0.83978 0.43117 0.0
C711 C 0.72919 0.85014 0.41084 0.0
N712 N 0.77198 0.9101 0.38543 0.0
N713 N 0.74442 0.87016 0.4648 0.0
C714 C 0.77195 0.89295 0.40456 0.0
C715 C 0.75669 0.87207 0.44515 0.0
N716 N 0.86253 0.94979 0.41215 0.0
N717 N 0.68166 0.79625 0.43706 0.0
H718 H 0.77044 0.89294 0.47535 0.0
H719 H 0.70572 0.85072 0.47051 0.0
H720 H 0.65405 0.77191 0.42739 0.0
H721 H 0.67911 0.78138 0.45142 0.0
H722 H 0.8748 0.95331 0.39746 0.0
H723 H 0.89302 0.97027 0.42183 0.0
H724 H 0.7984 0.94486 0.38014 0.0
H725 H 0.74103 0.89316 0.37522 0.0
C726 C 0.93891 0.89186 0.19865 0.0
C727 C 0.9393 0.95263 0.19273 0.0
C728 C 0.98938 0.92337 0.1619 0.0
C729 C 0.98859 0.86273 0.16786 0.0
N730 N 0.98201 0.79233 0.19413 0.0
N731 N 0.97996 0.02863 0.17181 0.0
C732 C 0.9699 0.84811 0.18705 0.0
C733 C 0.96981 0.96919 0.17535 0.0
N734 N 0.90582 0.87507 0.21455 0.0
N735 N 0.00519 0.9368 0.14312 0.0
H736 H 0.96648 0.06306 0.18156 0.0
H737 H 0.00662 0.0433 0.16027 0.0
H738 H 0.01983 0.9043 0.13289 0.0
H739 H -1e-05 0.97941 0.13729 0.0
H740 H 0.89859 0.83025 0.21807 0.0
H741 H 0.88136 0.90537 0.22335 0.0
H742 H 0.97427 0.78093 0.20867 0.0
H743 H 0.0057 0.75959 0.18601 0.0
C744 C 0.87444 0.17475 0.93486 0.0
C745 C 0.89705 0.15647 0.95327 0.0
C746 C -0.00088 0.18265 0.94331 0.0
C747 C 0.978 0.19008 0.92388 0.0
N748 N 0.89622 0.19571 0.9008 0.0
N749 N 0.97969 0.14348 0.97561 0.0
C750 C 0.91564 0.18814 0.9196 0.0
C751 C 0.95904 0.16125 0.95776 0.0
N752 N 0.81368 0.17881 0.93198 0.0
N753 N 0.0572 0.1976 0.94794 0.0
H754 H 0.95106 0.13028 0.98688 0.0
H755 H 0.02515 0.13883 0.97893 0.0
H756 H 0.08722 0.2148 0.93769 0.0
H757 H 0.07397 0.1986 0.9622 0.0
H758 H 0.79432 0.19795 0.91971 0.0
H759 H 0.78213 0.1672 0.94258 0.0
H760 H 0.85231 0.18753 0.89616 0.0
H761 H 0.92492 0.20743 0.8894 0.0
C762 C 0.72807 0.1471 0.70332 0.0
C763 C 0.77995 0.11198 0.69931 0.0
C764 C 0.78433 0.15338 0.66636 0.0
C765 C 0.72317 0.17042 0.66854 0.0
N766 N 0.63797 0.19048 0.68979 0.0
N767 N 0.87413 0.11441 0.68219 0.0
C768 C 0.69562 0.17038 0.68733 0.0
C769 C 0.81395 0.12646 0.68245 0.0
N770 N 0.71536 0.16595 0.72203 0.0
N771 N 0.81223 0.15924 0.64866 0.0
H772 H 0.89543 0.09628 0.69438 0.0
H773 H 0.90302 0.12665 0.67093 0.0
H774 H 0.79171 0.18113 0.63707 0.0
H775 H 0.85455 0.14158 0.64535 0.0
H776 H 0.67955 0.19459 0.72556 0.0
H777 H 0.74733 0.1625 0.73314 0.0
H778 H 0.61394 0.18506 0.70279 0.0
H779 H 0.61359 0.20991 0.6785 0.0
C780 C 0.81233 0.46375 0.92656 0.0
C781 C 0.81111 0.43633 0.94515 0.0
C782 C 0.90238 0.37879 0.93668 0.0
C783 C 0.90415 0.40756 0.91836 0.0
N784 N 0.86938 0.48608 0.89736 0.0
N785 N 0.85916 0.37577 0.96947 0.0
C786 C 0.86203 0.45317 0.91389 0.0
C787 C 0.85758 0.39623 0.95071 0.0
N788 N 0.76416 0.49687 0.92047 0.0
N789 N 0.9427 0.33404 0.94038 0.0
H790 H 0.82693 0.38785 0.98002 0.0
H791 H 0.89439 0.35052 0.97504 0.0
H792 H 0.97795 0.32309 0.93079 0.0
H793 H 0.93996 0.30627 0.95244 0.0
H794 H 0.75927 0.51185 0.9062 0.0
H795 H 0.72615 0.5052 0.92911 0.0
H796 H 0.84433 0.52443 0.8944 0.0
H797 H 0.90421 0.4781 0.88739 0.0
C798 C 0.8688 0.49192 0.1967 0.0
C799 C 0.86502 0.43067 0.19049 0.0
C800 C 0.91719 0.454 0.15993 0.0
C801 C 0.92636 0.51401 0.16702 0.0
N802 N 0.92527 0.58452 0.19469 0.0
N803 N 0.90032 0.35059 0.16867 0.0
C804 C 0.90635 0.53143 0.18617 0.0
C805 C 0.89363 0.41077 0.17284 0.0
N806 N 0.83527 0.5129 0.21226 0.0
N807 N 0.92801 0.43852 0.1407 0.0
H808 H 0.88565 0.3172 0.17806 0.0
H809 H 0.92614 0.33403 0.15694 0.0
H810 H 0.94361 0.46872 0.13041 0.0
H811 H 0.91568 0.39695 0.13449 0.0
H812 H 0.83204 0.5585 0.21612 0.0
H813 H 0.80608 0.48557 0.22009 0.0
H814 H 0.9162 0.59658 0.20928 0.0
H815 H 0.95579 0.61318 0.18796 0.0
C816 C 0.89234 0.48484 0.40193 0.0
C817 C 0.89451 0.49042 0.4227 0.0
C818 C 0.80299 0.55134 0.4232 0.0
C819 C 0.79992 0.54458 0.40247 0.0
N820 N 0.83344 0.49649 0.37228 0.0
N821 N 0.84711 0.51769 0.45353 0.0
C822 C 0.84219 0.50872 0.39185 0.0
C823 C 0.84806 0.51992 0.43348 0.0
N824 N 0.9391 0.45833 0.39189 0.0
N825 N 0.76483 0.59024 0.43295 0.0
H826 H 0.88027 0.49611 0.4616 0.0
H827 H 0.81106 0.53274 0.46212 0.0
H828 H 0.73106 0.61429 0.42596 0.0
H829 H 0.7694 0.60246 0.44772 0.0
H830 H 0.94375 0.45909 0.37669 0.0
H831 H 0.97534 0.43814 0.3989 0.0
H832 H 0.85925 0.46581 0.3641 0.0
H833 H 0.79708 0.51357 0.36449 0.0
C834 C 0.73579 0.57248 0.66257 0.0
C835 C 0.72843 0.56593 0.68306 0.0
C836 C 0.68908 0.46363 0.67765 0.0
C837 C 0.70146 0.4686 0.65733 0.0
N838 N 0.74728 0.52272 0.63082 0.0
N839 N 0.70363 0.50487 0.71069 0.0
C840 C 0.72754 0.52175 0.64986 0.0
C841 C 0.70647 0.51135 0.6908 0.0
N842 N 0.74996 0.6275 0.65521 0.0
N843 N 0.65943 0.41408 0.68421 0.0
H844 H 0.71421 0.53968 0.72066 0.0
H845 H 0.69424 0.46423 0.71734 0.0
H846 H 0.64738 0.37799 0.67493 0.0
H847 H 0.64331 0.41028 0.69848 0.0
H848 H 0.74896 0.63664 0.6403 0.0
H849 H 0.75778 0.66568 0.66407 0.0
H850 H 0.77285 0.55765 0.62521 0.0
H851 H 0.74323 0.48616 0.621 0.0
C852 C 0.80147 0.55519 0.07497 0.0
C853 C 0.80291 0.57584 0.05544 0.0
C854 C 0.89697 0.63053 0.06228 0.0
C855 C 0.89664 0.60761 0.0815 0.0
N856 N 0.85522 0.54035 0.10533 0.0
N857 N 0.85518 0.62525 0.02932 0.0
C858 C 0.85104 0.56725 0.08753 0.0
C859 C 0.85172 0.61123 0.04872 0.0
N860 N 0.75129 0.52674 0.08183 0.0
N861 N 0.93966 0.6717 0.05723 0.0
H862 H 0.82255 0.61199 0.01909 0.0
H863 H 0.89218 0.64612 0.02303 0.0
H864 H 0.97471 0.68451 0.06663 0.0
H865 H 0.93879 0.6954 0.04425 0.0
H866 H 0.74446 0.51718 0.09655 0.0
H867 H 0.71381 0.51686 0.07314 0.0
H868 H 0.82757 0.50512 0.10959 0.0
H869 H 0.88946 0.54991 0.11537 0.0
C870 C 0.67306 0.4997 0.29057 0.0
C871 C 0.65823 0.43935 0.29504 0.0
C872 C 0.63428 0.46982 0.32864 0.0
C873 C 0.64563 0.53117 0.32418 0.0
N874 N 0.65911 0.60549 0.29928 0.0
N875 N 0.60327 0.37243 0.31576 0.0
C876 C 0.6597 0.54659 0.30459 0.0
C877 C 0.63088 0.4266 0.31316 0.0
N878 N 0.70223 0.51202 0.27348 0.0
N879 N 0.63265 0.45111 0.34762 0.0
H880 H 0.59982 0.33991 0.30447 0.0
H881 H 0.57834 0.36307 0.32831 0.0
H882 H 0.64323 0.47875 0.3597 0.0
H883 H 0.62913 0.40585 0.35119 0.0
H884 H 0.71979 0.55435 0.2705 0.0
H885 H 0.71247 0.47896 0.26286 0.0
H886 H 0.66404 0.61872 0.2848 0.0
H887 H 0.64741 0.64054 0.30905 0.0
C888 C 0.90747 0.41781 0.5582 0.0
C889 C 0.89478 0.39002 0.53965 0.0
C890 C 0.8 0.35061 0.55217 0.0
C891 C 0.81079 0.38162 0.57033 0.0
N892 N 0.86907 0.45162 0.59 0.0
N893 N 0.82535 0.33955 0.51765 0.0
C894 C 0.86291 0.41734 0.57317 0.0
C895 C 0.83982 0.35937 0.53622 0.0
N896 N 0.96288 0.44265 0.5617 0.0
N897 N 0.75334 0.31055 0.55045 0.0
H898 H 0.85391 0.34475 0.50563 0.0
H899 H 0.78313 0.32267 0.51382 0.0
H900 H 0.72298 0.30243 0.56178 0.0
H901 H 0.74755 0.28149 0.53836 0.0
H902 H 0.97724 0.45753 0.57552 0.0
H903 H -0.00353 0.44462 0.55101 0.0
H904 H 0.90287 0.48357 0.59213 0.0
H905 H 0.83743 0.45145 0.60134 0.0
C906 C 0.91021 0.50769 0.79233 0.0
C907 C 0.89964 0.56905 0.79722 0.0
C908 C 0.9202 0.55047 0.83191 0.0
C909 C 0.93569 0.49009 0.82677 0.0
N910 N 0.95701 0.41429 0.80158 0.0
N911 N 0.89967 0.65152 0.82097 0.0
C912 C 0.93349 0.46934 0.80684 0.0
C913 C 0.90597 0.59121 0.81684 0.0
N914 N 0.89762 0.48602 0.77381 0.0
N915 N 0.91723 0.56836 0.85123 0.0
H916 H 0.88628 0.68242 0.81054 0.0
H917 H 0.91115 0.67174 0.83439 0.0
H918 H 0.92916 0.54046 0.86264 0.0
H919 H 0.89915 0.60933 0.85611 0.0
H920 H 0.89784 0.44034 0.76995 0.0
H921 H 0.88204 0.5133 0.76265 0.0
H922 H 0.96276 0.39959 0.78706 0.0
H923 H 0.97638 0.38532 0.81158 0.0
C924 C 0.22444 0.58782 0.04903 0.0
C925 C 0.2736 0.55243 0.05524 0.0
C926 C 0.23546 0.55703 0.08896 0.0
C927 C 0.19525 0.60299 0.08349 0.0
N928 N 0.14591 0.65918 0.05838 0.0
N929 N 0.32477 0.49887 0.08065 0.0
C930 C 0.18678 0.61626 0.06342 0.0
C931 C 0.27795 0.53443 0.07502 0.0
N932 N 0.21484 0.59483 0.02941 0.0
N933 N 0.23331 0.53637 0.10765 0.0
H934 H 0.35561 0.48011 0.07068 0.0
H935 H 0.33473 0.48991 0.09521 0.0
H936 H 0.20158 0.55247 0.11779 0.0
H937 H 0.2585 0.50017 0.11252 0.0
H938 H 0.17727 0.61621 0.02371 0.0
H939 H 0.24232 0.57453 0.0187 0.0
H940 H 0.14261 0.67676 0.0444 0.0
H941 H 0.11602 0.67871 0.06849 0.0
C942 C 0.27923 0.39603 0.80553 0.0
C943 C 0.23985 0.42469 0.79228 0.0
C944 C 0.15533 0.37003 0.80622 0.0
C945 C 0.19173 0.35589 0.82241 0.0
N946 N 0.28927 0.35059 0.83741 0.0
N947 N 0.13787 0.44107 0.78074 0.0
C948 C 0.25441 0.36613 0.82186 0.0
C949 C 0.17732 0.41093 0.79234 0.0
N950 N 0.33997 0.39888 0.80263 0.0
N951 N 0.09874 0.34646 0.80473 0.0
H952 H 0.15073 0.47367 0.77086 0.0
H953 H 0.0913 0.43738 0.78212 0.0
H954 H 0.08138 0.31752 0.81518 0.0
H955 H 0.07217 0.35058 0.79224 0.0
H956 H 0.37096 0.37548 0.811 0.0
H957 H 0.35868 0.4203 0.79059 0.0
H958 H 0.33419 0.3632 0.83896 0.0
H959 H 0.27196 0.32686 0.84916 0.0
C960 C 0.45088 0.34543 0.53844 0.0
C961 C 0.3896 0.3325 0.54231 0.0
C962 C 0.41464 0.30371 0.57572 0.0
C963 C 0.47603 0.31517 0.57163 0.0
N964 N 0.55423 0.32611 0.5473 0.0
N965 N 0.3161 0.28203 0.56215 0.0
C966 C 0.49471 0.32925 0.55237 0.0
C967 C 0.37242 0.30583 0.56018 0.0
N968 N 0.46713 0.37618 0.52212 0.0
N969 N 0.39609 0.29416 0.59451 0.0
H970 H 0.28455 0.28203 0.55082 0.0
H971 H 0.30313 0.25699 0.57419 0.0
H972 H 0.42574 0.29301 0.60632 0.0
H973 H 0.35092 0.29197 0.59856 0.0
H974 H 0.51059 0.39226 0.51987 0.0
H975 H 0.4364 0.39043 0.51167 0.0
H976 H 0.56947 0.3306 0.53294 0.0
H977 H 0.58754 0.31237 0.55701 0.0
C978 C 0.45641 0.52376 0.32411 0.0
C979 C 0.44879 0.53961 0.3042 0.0
C980 C 0.46625 0.64579 0.31281 0.0
C981 C 0.46832 0.63056 0.33292 0.0
N982 N 0.45896 0.55757 0.35828 0.0
N983 N 0.44128 0.61502 0.27943 0.0
C984 C 0.46188 0.57014 0.33874 0.0
C985 C 0.45219 0.60049 0.2985 0.0
N986 N 0.45906 0.46442 0.32897 0.0
N987 N 0.48033 0.70301 0.30733 0.0
H988 H 0.43448 0.58281 0.26824 0.0
H989 H 0.43546 0.65901 0.27484 0.0
H990 H 0.49001 0.73794 0.31735 0.0
H991 H 0.48688 0.71512 0.29282 0.0
H992 H 0.47174 0.44989 0.34277 0.0
H993 H 0.45275 0.42912 0.31879 0.0
H994 H 0.44833 0.51532 0.36359 0.0
H995 H 0.46255 0.59078 0.36933 0.0
C996 C 0.23509 0.41453 0.94395 0.0
C997 C 0.28384 0.45033 0.93767 0.0
C998 C 0.24532 0.44582 0.90402 0.0
C999 C 0.20478 0.40013 0.90958 0.0
N1000 N 0.15922 0.34071 0.93488 0.0
N1001 N 0.33523 0.50323 0.91212 0.0
C1002 C 0.19783 0.38554 0.92966 0.0
C1003 C 0.28819 0.46806 0.91786 0.0
N1004 N 0.22521 0.40777 0.96358 0.0
N1005 N 0.24304 0.46682 0.88535 0.0
H1006 H 0.36641 0.5216 0.92201 0.0
H1007 H 0.34512 0.51201 0.89753 0.0
H1008 H 0.2115 0.45089 0.87513 0.0
H1009 H 0.26812 0.50323 0.88056 0.0
H1010 H 0.18732 0.38675 0.96925 0.0
H1011 H 0.25239 0.42825 0.97431 0.0
H1012 H 0.15834 0.32226 0.94878 0.0
H1013 H 0.12972 0.31955 0.92505 0.0
C1014 C 0.39606 0.44656 0.66503 0.0
C1015 C 0.41299 0.45282 0.6851 0.0
C1016 C 0.48661 0.37168 0.67984 0.0
C1017 C 0.47798 0.37501 0.65929 0.0
N1018 N 0.42715 0.41921 0.63199 0.0
N1019 N 0.43715 0.38534 0.71107 0.0
C1020 C 0.43387 0.41405 0.65179 0.0
C1021 C 0.44863 0.40567 0.6927 0.0
N1022 N 0.33885 0.46034 0.65946 0.0
N1023 N 0.52974 0.33466 0.68716 0.0
H1024 H 0.40013 0.40073 0.71923 0.0
H1025 H 0.45778 0.34744 0.71679 0.0
H1026 H 0.55754 0.30799 0.67817 0.0
H1027 H 0.54119 0.33482 0.702 0.0
H1028 H 0.32245 0.45154 0.64535 0.0
H1029 H 0.30559 0.47145 0.66979 0.0
H1030 H 0.39828 0.45067 0.62587 0.0
H1031 H 0.45467 0.39611 0.6219 0.0
C1032 C 0.44887 0.59847 0.45118 0.0
C1033 C 0.38726 0.59694 0.44582 0.0
C1034 C 0.40748 0.66002 0.41761 0.0
C1035 C 0.46948 0.65773 0.42221 0.0
N1036 N 0.54644 0.64522 0.44646 0.0
N1037 N 0.30511 0.64235 0.42852 0.0
C1038 C 0.489 0.63422 0.44022 0.0
C1039 C 0.36561 0.63361 0.43059 0.0
N1040 N 0.46978 0.56266 0.46571 0.0
N1041 N 0.38915 0.68346 0.40026 0.0
H1042 H 0.27368 0.62359 0.438 0.0
H1043 H 0.28664 0.67252 0.41873 0.0
H1044 H 0.41873 0.7044 0.39071 0.0
H1045 H 0.34538 0.67968 0.39494 0.0
H1046 H 0.51534 0.5568 0.46867 0.0
H1047 H 0.44182 0.53562 0.47406 0.0
H1048 H 0.56234 0.63342 0.46021 0.0
H1049 H 0.57617 0.67174 0.4385 0.0
C1050 C 0.23526 0.60345 0.2001 0.0
C1051 C 0.27866 0.56213 0.19251 0.0
C1052 C 0.27182 0.60849 0.16046 0.0
C1053 C 0.21904 0.63852 0.16678 0.0
N1054 N 0.15225 0.67055 0.19279 0.0
N1055 N 0.33879 0.52439 0.16522 0.0
C1056 C 0.2021 0.63901 0.18682 0.0
C1057 C 0.29828 0.56526 0.17272 0.0
N1058 N 0.22554 0.60773 0.21989 0.0
N1059 N 0.29595 0.6213 0.14265 0.0
H1060 H 0.35931 0.49167 0.17363 0.0
H1061 H 0.34901 0.52025 0.15032 0.0
H1062 H 0.27798 0.65518 0.13415 0.0
H1063 H 0.33685 0.60405 0.13755 0.0
H1064 H 0.19774 0.64 0.22656 0.0
H1065 H 0.24967 0.58203 0.22982 0.0
H1066 H 0.13291 0.66722 0.20665 0.0
H1067 H 0.12903 0.69894 0.18344 0.0
loop_
_geom_bond_atom_site_label_1
_geom_bond_atom_site_label_2
_geom_bond_distance
_geom_bond_site_symmetry_2
_ccdc_geom_bond_type
C0 C1 1.384 . S
C0 C2 1.384 . S
C0 H28 0.931 1_565 S
C1 C0 1.384 . S
C1 C4 1.382 . S
C2 C0 1.384 . S
C2 C3 1.381 . S
C2 H29 0.930 1_565 S
C3 C2 1.381 . S
C3 C5 1.381 . S
C3 C6 1.487 . S
C4 C1 1.382 . S
C4 C5 1.387 . S
C4 H30 0.930 . S
C5 C3 1.381 . S
C5 C4 1.387 . S
C5 H31 0.931 . S
C6 C3 1.487 . S
C6 C13 1.399 1_565 S
C6 N44 1.343 . S
C7 C8 1.384 . S
C7 C9 1.384 . S
C7 H32 0.931 1_545 S
C8 C7 1.384 . S
C8 C11 1.382 . S
C9 C7 1.384 . S
C9 C10 1.381 . S
C9 H33 0.930 1_545 S
C10 C9 1.381 . S
C10 C12 1.381 . S
C10 C13 1.487 . S
C11 C8 1.382 . S
C11 C12 1.387 . S
C11 H34 0.930 . S
C12 C10 1.381 . S
C12 C11 1.387 . S
C12 H35 0.931 . S
C13 C6 1.399 1_545 S
C13 C10 1.487 . S
C13 N45 1.343 . S
C14 C15 1.384 . S
C14 C16 1.384 . S
C14 H36 0.931 1_545 S
C15 C14 1.384 . S
C15 C18 1.382 . S
C16 C14 1.384 . S
C16 C17 1.381 . S
C16 H37 0.930 1_545 S
C17 C16 1.381 . S
C17 C19 1.381 . S
C17 C20 1.487 . S
C18 C15 1.382 . S
C18 C19 1.387 . S
C18 H38 0.930 . S
C19 C17 1.381 . S
C19 C18 1.387 . S
C19 H39 0.931 . S
C20 C17 1.487 . S
C20 C27 1.399 1_545 S
C20 N45 1.343 1_655 S
C21 C22 1.384 . S
C21 C23 1.384 . S
C21 H40 0.931 1_565 S
C22 C21 1.384 . S
C22 C25 1.382 . S
C23 C21 1.384 . S
C23 C24 1.381 . S
C23 H41 0.930 1_565 S
C24 C23 1.381 . S
C24 C26 1.381 . S
C24 C27 1.487 . S
C25 C22 1.382 . S
C25 C26 1.387 . S
C25 H42 0.930 . S
C26 C24 1.381 . S
C26 C25 1.387 . S
C26 H43 0.931 . S
C27 C20 1.399 1_565 S
C27 C24 1.487 . S
C27 N44 1.343 1_655 S
H28 C0 0.931 1_545 S
H29 C2 0.930 1_545 S
H30 C4 0.930 . S
H31 C5 0.931 . S
H32 C7 0.931 1_565 S
H33 C9 0.930 1_565 S
H34 C11 0.930 . S
H35 C12 0.931 . S
H36 C14 0.931 1_565 S
H37 C16 0.930 1_565 S
H38 C18 0.930 . S
H39 C19 0.931 . S
H40 C21 0.931 1_545 S
H41 C23 0.930 1_545 S
H42 C25 0.930 . S
H43 C26 0.931 . S
N44 C6 1.343 . S
N44 C27 1.343 1_455 S
N45 C13 1.343 . S
N45 C20 1.343 1_455 S
C46 C47 1.384 . S
C46 C48 1.384 . S
C46 H74 0.931 . S
C47 C46 1.384 . S
C47 C50 1.382 . S
C48 C46 1.384 . S
C48 C49 1.381 . S
C48 H75 0.930 . S
C49 C48 1.381 . S
C49 C51 1.381 . S
C49 C52 1.487 . S
C50 C47 1.382 . S
C50 C51 1.387 . S
C50 H76 0.930 . S
C51 C49 1.381 . S
C51 C50 1.387 . S
C51 H77 0.931 . S
C52 C49 1.487 . S
C52 C59 1.399 . S
C52 N90 1.343 . S
C53 C54 1.384 . S
C53 C55 1.384 . S
C53 H78 0.931 . S
C54 C53 1.384 . S
C54 C57 1.382 . S
C55 C53 1.384 . S
C55 C56 1.381 . S
C55 H79 0.930 . S
C56 C55 1.381 . S
C56 C58 1.381 . S
C56 C59 1.487 . S
C57 C54 1.382 . S
C57 C58 1.387 . S
C57 H80 0.930 . S
C58 C56 1.381 . S
C58 C57 1.387 . S
C58 H81 0.931 . S
C59 C52 1.399 . S
C59 C56 1.487 . S
C59 N91 1.343 . S
C60 C61 1.384 . S
C60 C62 1.384 . S
C60 H82 0.931 . S
C61 C60 1.384 . S
C61 C64 1.382 . S
C62 C60 1.384 . S
C62 C63 1.381 . S
C62 H83 0.930 . S
C63 C62 1.381 . S
C63 C65 1.381 . S
C63 C66 1.487 . S
C64 C61 1.382 . S
C64 C65 1.387 . S
C64 H84 0.930 . S
C65 C63 1.381 . S
C65 C64 1.387 . S
C65 H85 0.931 . S
C66 C63 1.487 . S
C66 C73 1.399 . S
C66 N91 1.343 . S
C67 C68 1.384 . S
C67 C69 1.384 . S
C67 H86 0.931 . S
C68 C67 1.384 . S
C68 C71 1.382 . S
C69 C67 1.384 . S
C69 C70 1.381 . S
C69 H87 0.930 . S
C70 C69 1.381 . S
C70 C72 1.381 . S
C70 C73 1.487 . S
C71 C68 1.382 . S
C71 C72 1.387 . S
C71 H88 0.930 . S
C72 C70 1.381 . S
C72 C71 1.387 . S
C72 H89 0.931 . S
C73 C66 1.399 . S
C73 C70 1.487 . S
C73 N90 1.343 . S
H74 C46 0.931 . S
H75 C48 0.930 . S
H76 C50 0.930 . S
H77 C51 0.931 . S
H78 C53 0.931 . S
H79 C55 0.930 . S
H80 C57 0.930 . S
H81 C58 0.931 . S
H82 C60 0.931 . S
H83 C62 0.930 . S
H84 C64 0.930 . S
H85 C65 0.931 . S
H86 C67 0.931 . S
H87 C69 0.930 . S
H88 C71 0.930 . S
H89 C72 0.931 . S
N90 C52 1.343 . S
N90 C73 1.343 . S
N91 C59 1.343 . S
N91 C66 1.343 . S
C92 C93 1.384 . S
C92 C94 1.384 . S
C92 H120 0.931 1_545 S
C93 C92 1.384 . S
C93 C96 1.382 . S
C94 C92 1.384 . S
C94 C95 1.381 . S
C94 H121 0.930 1_545 S
C95 C94 1.381 . S
C95 C97 1.381 . S
C95 C98 1.487 . S
C96 C93 1.382 . S
C96 C97 1.387 . S
C96 H122 0.930 . S
C97 C95 1.381 . S
C97 C96 1.387 . S
C97 H123 0.931 . S
C98 C95 1.487 . S
C98 C105 1.399 1_546 S
C98 N136 1.343 . S
C99 C100 1.384 . S
C99 C101 1.384 . S
C99 H124 0.931 1_565 S
C100 C99 1.384 . S
C100 C103 1.382 . S
C101 C99 1.384 . S
C101 C102 1.381 . S
C101 H125 0.930 1_565 S
C102 C101 1.381 . S
C102 C104 1.381 . S
C102 C105 1.487 . S
C103 C100 1.382 . S
C103 C104 1.387 . S
C103 H126 0.930 . S
C104 C102 1.381 . S
C104 C103 1.387 . S
C104 H127 0.931 . S
C105 C98 1.399 1_564 S
C105 C102 1.487 . S
C105 N137 1.343 . S
C106 C107 1.384 . S
C106 C108 1.384 . S
C106 H128 0.931 1_565 S
C107 C106 1.384 . S
C107 C110 1.382 . S
C108 C106 1.384 . S
C108 C109 1.381 . S
C108 H129 0.930 1_565 S
C109 C108 1.381 . S
C109 C111 1.381 . S
C109 C112 1.487 . S
C110 C107 1.382 . S
C110 C111 1.387 . S
C110 H130 0.930 . S
C111 C109 1.381 . S
C111 C110 1.387 . S
C111 H131 0.931 . S
C112 C109 1.487 . S
C112 C119 1.399 1_564 S
C112 N137 1.343 . S
C113 C114 1.384 . S
C113 C115 1.384 . S
C113 H132 0.931 1_545 S
C114 C113 1.384 . S
C114 C117 1.382 . S
C115 C113 1.384 . S
C115 C116 1.381 . S
C115 H133 0.930 1_545 S
C116 C115 1.381 . S
C116 C118 1.381 . S
C116 C119 1.487 . S
C117 C114 1.382 . S
C117 C118 1.387 . S
C117 H134 0.930 . S
C118 C116 1.381 . S
C118 C117 1.387 . S
C118 H135 0.931 . S
C119 C112 1.399 1_546 S
C119 C116 1.487 . S
C119 N136 1.343 . S
H120 C92 0.931 1_565 S
H121 C94 0.930 1_565 S
H122 C96 0.930 . S
H123 C97 0.931 . S
H124 C99 0.931 1_545 S
H125 C101 0.930 1_545 S
H126 C103 0.930 . S
H127 C104 0.931 . S
H128 C106 0.931 1_545 S
H129 C108 0.930 1_545 S
H130 C110 0.930 . S
H131 C111 0.931 . S
H132 C113 0.931 1_565 S
H133 C115 0.930 1_565 S
H134 C117 0.930 . S
H135 C118 0.931 . S
N136 C98 1.343 . S
N136 C119 1.343 . S
N137 C105 1.343 . S
N137 C112 1.343 . S
C138 C139 1.384 . S
C138 C140 1.384 . S
C138 H166 0.931 . S
C139 C138 1.384 . S
C139 C142 1.382 . S
C140 C138 1.384 . S
C140 C141 1.381 . S
C140 H167 0.930 . S
C141 C140 1.381 . S
C141 C143 1.381 . S
C141 C144 1.487 . S
C142 C139 1.382 . S
C142 C143 1.387 . S
C142 H168 0.930 . S
C143 C141 1.381 . S
C143 C142 1.387 . S
C143 H169 0.931 . S
C144 C141 1.487 . S
C144 C151 1.399 . S
C144 N182 1.343 . S
C145 C146 1.384 . S
C145 C147 1.384 . S
C145 H170 0.931 . S
C146 C145 1.384 . S
C146 C149 1.382 . S
C147 C145 1.384 . S
C147 C148 1.381 . S
C147 H171 0.930 . S
C148 C147 1.381 . S
C148 C150 1.381 . S
C148 C151 1.487 . S
C149 C146 1.382 . S
C149 C150 1.387 . S
C149 H172 0.930 . S
C150 C148 1.381 . S
C150 C149 1.387 . S
C150 H173 0.931 . S
C151 C144 1.399 . S
C151 C148 1.487 . S
C151 N183 1.343 . S
C152 C153 1.384 . S
C152 C154 1.384 . S
C152 H174 0.931 . S
C153 C152 1.384 . S
C153 C156 1.382 . S
C154 C152 1.384 . S
C154 C155 1.381 . S
C154 H175 0.930 . S
C155 C154 1.381 . S
C155 C157 1.381 . S
C155 C158 1.487 . S
C156 C153 1.382 . S
C156 C157 1.387 . S
C156 H176 0.930 . S
C157 C155 1.381 . S
C157 C156 1.387 . S
C157 H177 0.931 . S
C158 C155 1.487 . S
C158 C165 1.399 . S
C158 N183 1.343 . S
C159 C160 1.384 . S
C159 C161 1.384 . S
C159 H178 0.931 . S
C160 C159 1.384 . S
C160 C163 1.382 . S
C161 C159 1.384 . S
C161 C162 1.381 . S
C161 H179 0.930 . S
C162 C161 1.381 . S
C162 C164 1.381 . S
C162 C165 1.487 . S
C163 C160 1.382 . S
C163 C164 1.387 . S
C163 H180 0.930 . S
C164 C162 1.381 . S
C164 C163 1.387 . S
C164 H181 0.931 . S
C165 C158 1.399 . S
C165 C162 1.487 . S
C165 N182 1.343 . S
H166 C138 0.931 . S
H167 C140 0.930 . S
H168 C142 0.930 . S
H169 C143 0.931 . S
H170 C145 0.931 . S
H171 C147 0.930 . S
H172 C149 0.930 . S
H173 C150 0.931 . S
H174 C152 0.931 . S
H175 C154 0.930 . S
H176 C156 0.930 . S
H177 C157 0.931 . S
H178 C159 0.931 . S
H179 C161 0.930 . S
H180 C163 0.930 . S
H181 C164 0.931 . S
N182 C144 1.343 . S
N182 C165 1.343 . S
N183 C151 1.343 . S
N183 C158 1.343 . S
C184 C185 1.384 . S
C184 C186 1.384 1_565 S
C184 H212 0.931 . S
C185 C184 1.384 . S
C185 C188 1.382 1_565 S
C186 C184 1.384 1_545 S
C186 C187 1.381 . S
C186 H213 0.930 . S
C187 C186 1.381 . S
C187 C189 1.381 . S
C187 C190 1.487 . S
C188 C185 1.382 1_545 S
C188 C189 1.387 . S
C188 H214 0.930 . S
C189 C187 1.381 . S
C189 C188 1.387 . S
C189 H215 0.931 . S
C190 C187 1.487 . S
C190 C197 1.399 . S
C190 N228 1.343 . S
C191 C192 1.384 . S
C191 C193 1.384 1_565 S
C191 H216 0.931 . S
C192 C191 1.384 . S
C192 C195 1.382 1_565 S
C193 C191 1.384 1_545 S
C193 C194 1.381 . S
C193 H217 0.930 . S
C194 C193 1.381 . S
C194 C196 1.381 . S
C194 C197 1.487 . S
C195 C192 1.382 1_545 S
C195 C196 1.387 . S
C195 H218 0.930 . S
C196 C194 1.381 . S
C196 C195 1.387 . S
C196 H219 0.931 . S
C197 C190 1.399 . S
C197 C194 1.487 . S
C197 N229 1.343 . S
C198 C199 1.384 . S
C198 C200 1.384 . S
C198 H220 0.931 . S
C199 C198 1.384 . S
C199 C202 1.382 . S
C200 C198 1.384 . S
C200 C201 1.381 . S
C200 H221 0.930 . S
C201 C200 1.381 . S
C201 C203 1.381 . S
C201 C204 1.487 . S
C202 C199 1.382 . S
C202 C203 1.387 . S
C202 H222 0.930 . S
C203 C201 1.381 . S
C203 C202 1.387 . S
C203 H223 0.931 . S
C204 C201 1.487 . S
C204 C211 1.399 . S
C204 N229 1.343 . S
C205 C206 1.384 . S
C205 C207 1.384 . S
C205 H224 0.931 . S
C206 C205 1.384 . S
C206 C209 1.382 . S
C207 C205 1.384 . S
C207 C208 1.381 . S
C207 H225 0.930 . S
C208 C207 1.381 . S
C208 C210 1.381 . S
C208 C211 1.487 . S
C209 C206 1.382 . S
C209 C210 1.387 . S
C209 H226 0.930 . S
C210 C208 1.381 . S
C210 C209 1.387 . S
C210 H227 0.931 . S
C211 C204 1.399 . S
C211 C208 1.487 . S
C211 N228 1.343 . S
H212 C184 0.931 . S
H213 C186 0.930 . S
H214 C188 0.930 . S
H215 C189 0.931 . S
H216 C191 0.931 . S
H217 C193 0.930 . S
H218 C195 0.930 . S
H219 C196 0.931 . S
H220 C198 0.931 . S
H221 C200 0.930 . S
H222 C202 0.930 . S
H223 C203 0.931 . S
H224 C205 0.931 . S
H225 C207 0.930 . S
H226 C209 0.930 . S
H227 C210 0.931 . S
N228 C190 1.343 . S
N228 C211 1.343 . S
N229 C197 1.343 . S
N229 C204 1.343 . S
C230 C231 1.384 . S
C230 C232 1.384 1_545 S
C230 H258 0.931 . S
C231 C230 1.384 . S
C231 C234 1.382 1_545 S
C232 C230 1.384 1_565 S
C232 C233 1.381 . S
C232 H259 0.930 . S
C233 C232 1.381 . S
C233 C235 1.381 . S
C233 C236 1.487 . S
C234 C231 1.382 1_565 S
C234 C235 1.387 . S
C234 H260 0.930 . S
C235 C233 1.381 . S
C235 C234 1.387 . S
C235 H261 0.931 . S
C236 C233 1.487 . S
C236 C243 1.399 . S
C236 N274 1.343 . S
C237 C238 1.384 . S
C237 C239 1.384 1_545 S
C237 H262 0.931 . S
C238 C237 1.384 . S
C238 C241 1.382 1_545 S
C239 C237 1.384 1_565 S
C239 C240 1.381 . S
C239 H263 0.930 . S
C240 C239 1.381 . S
C240 C242 1.381 . S
C240 C243 1.487 . S
C241 C238 1.382 1_565 S
C241 C242 1.387 . S
C241 H264 0.930 . S
C242 C240 1.381 . S
C242 C241 1.387 . S
C242 H265 0.931 . S
C243 C236 1.399 . S
C243 C240 1.487 . S
C243 N275 1.343 . S
C244 C245 1.384 . S
C244 C246 1.384 . S
C244 H266 0.931 . S
C245 C244 1.384 . S
C245 C248 1.382 . S
C246 C244 1.384 . S
C246 C247 1.381 . S
C246 H267 0.930 . S
C247 C246 1.381 . S
C247 C249 1.381 . S
C247 C250 1.487 . S
C248 C245 1.382 . S
C248 C249 1.387 . S
C248 H268 0.930 . S
C249 C247 1.381 . S
C249 C248 1.387 . S
C249 H269 0.931 . S
C250 C247 1.487 . S
C250 C257 1.399 . S
C250 N275 1.343 . S
C251 C252 1.384 . S
C251 C253 1.384 . S
C251 H270 0.931 . S
C252 C251 1.384 . S
C252 C255 1.382 . S
C253 C251 1.384 . S
C253 C254 1.381 . S
C253 H271 0.930 . S
C254 C253 1.381 . S
C254 C256 1.381 . S
C254 C257 1.487 . S
C255 C252 1.382 . S
C255 C256 1.387 . S
C255 H272 0.930 . S
C256 C254 1.381 . S
C256 C255 1.387 . S
C256 H273 0.931 . S
C257 C250 1.399 . S
C257 C254 1.487 . S
C257 N274 1.343 . S
H258 C230 0.931 . S
H259 C232 0.930 . S
H260 C234 0.930 . S
H261 C235 0.931 . S
H262 C237 0.931 . S
H263 C239 0.930 . S
H264 C241 0.930 . S
H265 C242 0.931 . S
H266 C244 0.931 . S
H267 C246 0.930 . S
H268 C248 0.930 . S
H269 C249 0.931 . S
H270 C251 0.931 . S
H271 C253 0.930 . S
H272 C255 0.930 . S
H273 C256 0.931 . S
N274 C236 1.343 . S
N274 C257 1.343 . S
N275 C243 1.343 . S
N275 C250 1.343 . S
C276 C277 1.384 . S
C276 C278 1.384 . S
C276 H304 0.931 . S
C277 C276 1.384 . S
C277 C280 1.382 . S
C278 C276 1.384 . S
C278 C279 1.381 . S
C278 H305 0.930 . S
C279 C278 1.381 . S
C279 C281 1.381 . S
C279 C282 1.487 . S
C280 C277 1.382 . S
C280 C281 1.387 . S
C280 H306 0.930 . S
C281 C279 1.381 . S
C281 C280 1.387 . S
C281 H307 0.931 . S
C282 C279 1.487 . S
C282 C289 1.399 1_556 S
C282 N320 1.343 . S
C283 C284 1.384 . S
C283 C285 1.384 . S
C283 H308 0.931 . S
C284 C283 1.384 . S
C284 C287 1.382 . S
C285 C283 1.384 . S
C285 C286 1.381 . S
C285 H309 0.930 . S
C286 C285 1.381 . S
C286 C288 1.381 . S
C286 C289 1.487 . S
C287 C284 1.382 . S
C287 C288 1.387 . S
C287 H310 0.930 . S
C288 C286 1.381 . S
C288 C287 1.387 . S
C288 H311 0.931 . S
C289 C282 1.399 1_554 S
C289 C286 1.487 . S
C289 N321 1.343 . S
C290 C291 1.384 . S
C290 C292 1.384 . S
C290 H312 0.931 . S
C291 C290 1.384 . S
C291 C294 1.382 . S
C292 C290 1.384 . S
C292 C293 1.381 . S
C292 H313 0.930 . S
C293 C292 1.381 . S
C293 C295 1.381 . S
C293 C296 1.487 . S
C294 C291 1.382 . S
C294 C295 1.387 . S
C294 H314 0.930 . S
C295 C293 1.381 . S
C295 C294 1.387 . S
C295 H315 0.931 . S
C296 C293 1.487 . S
C296 C303 1.399 1_554 S
C296 N321 1.343 . S
C297 C298 1.384 . S
C297 C299 1.384 . S
C297 H316 0.931 . S
C298 C297 1.384 . S
C298 C301 1.382 . S
C299 C297 1.384 . S
C299 C300 1.381 . S
C299 H317 0.930 . S
C300 C299 1.381 . S
C300 C302 1.381 . S
C300 C303 1.487 . S
C301 C298 1.382 . S
C301 C302 1.387 . S
C301 H318 0.930 . S
C302 C300 1.381 . S
C302 C301 1.387 . S
C302 H319 0.931 . S
C303 C296 1.399 1_556 S
C303 C300 1.487 . S
C303 N320 1.343 . S
H304 C276 0.931 . S
H305 C278 0.930 . S
H306 C280 0.930 . S
H307 C281 0.931 . S
H308 C283 0.931 . S
H309 C285 0.930 . S
H310 C287 0.930 . S
H311 C288 0.931 . S
H312 C290 0.931 . S
H313 C292 0.930 . S
H314 C294 0.930 . S
H315 C295 0.931 . S
H316 C297 0.931 . S
H317 C299 0.930 . S
H318 C301 0.930 . S
H319 C302 0.931 . S
N320 C282 1.343 . S
N320 C303 1.343 . S
N321 C289 1.343 . S
N321 C296 1.343 . S
C322 C323 1.384 . S
C322 C324 1.384 1_655 S
C322 H350 0.931 . S
C323 C322 1.384 . S
C323 C326 1.382 1_655 S
C324 C322 1.384 1_455 S
C324 C325 1.381 . S
C324 H351 0.930 . S
C325 C324 1.381 . S
C325 C327 1.381 . S
C325 C328 1.487 . S
C326 C323 1.382 1_455 S
C326 C327 1.387 . S
C326 H352 0.930 . S
C327 C325 1.381 . S
C327 C326 1.387 . S
C327 H353 0.931 . S
C328 C325 1.487 . S
C328 C335 1.399 . S
C328 N366 1.343 . S
C329 C330 1.384 . S
C329 C331 1.384 1_655 S
C329 H354 0.931 . S
C330 C329 1.384 . S
C330 C333 1.382 1_655 S
C331 C329 1.384 1_455 S
C331 C332 1.381 . S
C331 H355 0.930 . S
C332 C331 1.381 . S
C332 C334 1.381 . S
C332 C335 1.487 . S
C333 C330 1.382 1_455 S
C333 C334 1.387 . S
C333 H356 0.930 . S
C334 C332 1.381 . S
C334 C333 1.387 . S
C334 H357 0.931 . S
C335 C328 1.399 . S
C335 C332 1.487 . S
C335 N367 1.343 . S
C336 C337 1.384 . S
C336 C338 1.384 . S
C336 H358 0.931 . S
C337 C336 1.384 . S
C337 C340 1.382 . S
C338 C336 1.384 . S
C338 C339 1.381 . S
C338 H359 0.930 . S
C339 C338 1.381 . S
C339 C341 1.381 . S
C339 C342 1.487 . S
C340 C337 1.382 . S
C340 C341 1.387 . S
C340 H360 0.930 . S
C341 C339 1.381 . S
C341 C340 1.387 . S
C341 H361 0.931 . S
C342 C339 1.487 . S
C342 C349 1.399 . S
C342 N367 1.343 . S
C343 C344 1.384 . S
C343 C345 1.384 . S
C343 H362 0.931 . S
C344 C343 1.384 . S
C344 C347 1.382 . S
C345 C343 1.384 . S
C345 C346 1.381 . S
C345 H363 0.930 . S
C346 C345 1.381 . S
C346 C348 1.381 . S
C346 C349 1.487 . S
C347 C344 1.382 . S
C347 C348 1.387 . S
C347 H364 0.930 . S
C348 C346 1.381 . S
C348 C347 1.387 . S
C348 H365 0.931 . S
C349 C342 1.399 . S
C349 C346 1.487 . S
C349 N366 1.343 . S
H350 C322 0.931 . S
H351 C324 0.930 . S
H352 C326 0.930 . S
H353 C327 0.931 . S
H354 C329 0.931 . S
H355 C331 0.930 . S
H356 C333 0.930 . S
H357 C334 0.931 . S
H358 C336 0.931 . S
H359 C338 0.930 . S
H360 C340 0.930 . S
H361 C341 0.931 . S
H362 C343 0.931 . S
H363 C345 0.930 . S
H364 C347 0.930 . S
H365 C348 0.931 . S
N366 C328 1.343 . S
N366 C349 1.343 . S
N367 C335 1.343 . S
N367 C342 1.343 . S
C368 O395 1.312 . S
C368 O396 1.208 . S
C369 O390 1.331 1_655 S
C369 O393 1.244 . S
C370 O392 1.264 1_655 S
C370 O394 1.273 . S
Mg371 O373 1.936 . S
Mg371 O380 2.081 . S
Mg371 O382 2.023 . S
Mg371 O386 2.031 . S
Mg371 O395 2.291 . S
Mg372 O373 1.963 . S
Mg372 O383 1.942 . S
Mg372 O384 1.955 . S
Mg372 O391 1.986 . S
O373 Mg371 1.936 . S
O373 Mg372 1.963 . S
O373 Mg374 1.915 . S
Mg374 O373 1.915 . S
Mg374 O375 1.915 . S
Mg374 O379 2.013 . S
Mg374 O385 2.114 . S
Mg374 O389 2.013 . S
Mg374 O395 2.114 . S
O375 Mg374 1.915 . S
O375 Mg376 1.936 . S
O375 Mg377 1.963 1_455 S
Mg376 O375 1.936 . S
Mg376 O385 2.291 . S
Mg376 O390 2.081 . S
Mg376 O392 2.023 . S
Mg376 O396 2.031 . S
Mg377 O375 1.963 1_655 S
Mg377 O381 1.986 . S
Mg377 O393 1.942 . S
Mg377 O394 1.955 . S
C378 O389 1.191 . S
C378 O391 1.307 . S
O379 Mg374 2.013 . S
O379 C398 1.191 . S
O380 Mg371 2.081 . S
O380 C388 1.331 . S
O381 Mg377 1.986 . S
O381 C398 1.307 1_655 S
O382 Mg371 2.023 . S
O382 C397 1.264 . S
O383 Mg372 1.942 . S
O383 C388 1.244 . S
O384 Mg372 1.955 . S
O384 C397 1.273 . S
O385 Mg374 2.114 . S
O385 Mg376 2.291 . S
O385 C387 1.312 . S
O386 Mg371 2.031 . S
O386 C387 1.208 . S
C387 O385 1.312 . S
C387 O386 1.208 . S
C388 O380 1.331 . S
C388 O383 1.244 . S
O389 Mg374 2.013 . S
O389 C378 1.191 . S
O390 C369 1.331 1_455 S
O390 Mg376 2.081 . S
O391 Mg372 1.986 . S
O391 C378 1.307 . S
O392 C370 1.264 1_455 S
O392 Mg376 2.023 . S
O393 C369 1.244 . S
O393 Mg377 1.942 . S
O394 C370 1.273 . S
O394 Mg377 1.955 . S
O395 C368 1.312 . S
O395 Mg371 2.291 . S
O395 Mg374 2.114 . S
O396 C368 1.208 . S
O396 Mg376 2.031 . S
C397 O382 1.264 . S
C397 O384 1.273 . S
C398 O379 1.191 . S
C398 O381 1.307 1_455 S
C399 O426 1.312 . S
C399 O427 1.208 . S
C400 O421 1.331 . S
C400 O424 1.244 . S
C401 O423 1.264 . S
C401 O425 1.273 . S
Mg402 O404 1.936 . S
Mg402 O411 2.081 . S
Mg402 O413 2.023 . S
Mg402 O417 2.031 . S
Mg402 O426 2.291 . S
Mg403 O404 1.963 . S
Mg403 O414 1.942 . S
Mg403 O415 1.955 . S
Mg403 O422 1.986 . S
O404 Mg402 1.936 . S
O404 Mg403 1.963 . S
O404 Mg405 1.915 . S
Mg405 O404 1.915 . S
Mg405 O406 1.915 . S
Mg405 O410 2.013 . S
Mg405 O416 2.114 . S
Mg405 O420 2.013 . S
Mg405 O426 2.114 . S
O406 Mg405 1.915 . S
O406 Mg407 1.936 . S
O406 Mg408 1.963 . S
Mg407 O406 1.936 . S
Mg407 O416 2.291 . S
Mg407 O421 2.081 . S
Mg407 O423 2.023 . S
Mg407 O427 2.031 . S
Mg408 O406 1.963 . S
Mg408 O412 1.986 . S
Mg408 O424 1.942 . S
Mg408 O425 1.955 . S
C409 O420 1.191 . S
C409 O422 1.307 . S
O410 Mg405 2.013 . S
O410 C429 1.191 . S
O411 Mg402 2.081 . S
O411 C419 1.331 . S
O412 Mg408 1.986 . S
O412 C429 1.307 . S
O413 Mg402 2.023 . S
O413 C428 1.264 . S
O414 Mg403 1.942 . S
O414 C419 1.244 . S
O415 Mg403 1.955 . S
O415 C428 1.273 . S
O416 Mg405 2.114 . S
O416 Mg407 2.291 . S
O416 C418 1.312 . S
O417 Mg402 2.031 . S
O417 C418 1.208 . S
C418 O416 1.312 . S
C418 O417 1.208 . S
C419 O411 1.331 . S
C419 O414 1.244 . S
O420 Mg405 2.013 . S
O420 C409 1.191 . S
O421 C400 1.331 . S
O421 Mg407 2.081 . S
O422 Mg403 1.986 . S
O422 C409 1.307 . S
O423 C401 1.264 . S
O423 Mg407 2.023 . S
O424 C400 1.244 . S
O424 Mg408 1.942 . S
O425 C401 1.273 . S
O425 Mg408 1.955 . S
O426 C399 1.312 . S
O426 Mg402 2.291 . S
O426 Mg405 2.114 . S
O427 C399 1.208 . S
O427 Mg407 2.031 . S
C428 O413 1.264 . S
C428 O415 1.273 . S
C429 O410 1.191 . S
C429 O412 1.307 . S
C430 O457 1.312 . S
C430 O458 1.208 . S
C431 O452 1.331 . S
C431 O455 1.244 . S
C432 O454 1.264 . S
C432 O456 1.273 . S
Mg433 O435 1.936 . S
Mg433 O442 2.081 . S
Mg433 O444 2.023 . S
Mg433 O448 2.031 . S
Mg433 O457 2.291 . S
Mg434 O435 1.963 . S
Mg434 O445 1.942 . S
Mg434 O446 1.955 . S
Mg434 O453 1.986 . S
O435 Mg433 1.936 . S
O435 Mg434 1.963 . S
O435 Mg436 1.915 . S
Mg436 O435 1.915 . S
Mg436 O437 1.915 . S
Mg436 O441 2.013 . S
Mg436 O447 2.114 . S
Mg436 O451 2.013 . S
Mg436 O457 2.114 . S
O437 Mg436 1.915 . S
O437 Mg438 1.936 . S
O437 Mg439 1.963 . S
Mg438 O437 1.936 . S
Mg438 O447 2.291 . S
Mg438 O452 2.081 . S
Mg438 O454 2.023 . S
Mg438 O458 2.031 . S
Mg439 O437 1.963 . S
Mg439 O443 1.986 . S
Mg439 O455 1.942 . S
Mg439 O456 1.955 . S
C440 O451 1.191 . S
C440 O453 1.307 . S
O441 Mg436 2.013 . S
O441 C460 1.191 . S
O442 Mg433 2.081 . S
O442 C450 1.331 . S
O443 Mg439 1.986 . S
O443 C460 1.307 . S
O444 Mg433 2.023 . S
O444 C459 1.264 . S
O445 Mg434 1.942 . S
O445 C450 1.244 . S
O446 Mg434 1.955 . S
O446 C459 1.273 . S
O447 Mg436 2.114 . S
O447 Mg438 2.291 . S
O447 C449 1.312 . S
O448 Mg433 2.031 . S
O448 C449 1.208 . S
C449 O447 1.312 . S
C449 O448 1.208 . S
C450 O442 1.331 . S
C450 O445 1.244 . S
O451 Mg436 2.013 . S
O451 C440 1.191 . S
O452 C431 1.331 . S
O452 Mg438 2.081 . S
O453 Mg434 1.986 . S
O453 C440 1.307 . S
O454 C432 1.264 . S
O454 Mg438 2.023 . S
O455 C431 1.244 . S
O455 Mg439 1.942 . S
O456 C432 1.273 . S
O456 Mg439 1.955 . S
O457 C430 1.312 . S
O457 Mg433 2.291 . S
O457 Mg436 2.114 . S
O458 C430 1.208 . S
O458 Mg438 2.031 . S
C459 O444 1.264 . S
C459 O446 1.273 . S
C460 O441 1.191 . S
C460 O443 1.307 . S
C461 O488 1.312 . S
C461 O489 1.208 . S
C462 O483 1.331 . S
C462 O486 1.244 . S
C463 O485 1.264 . S
C463 O487 1.273 . S
Mg464 O466 1.936 . S
Mg464 O473 2.081 . S
Mg464 O475 2.023 . S
Mg464 O479 2.031 . S
Mg464 O488 2.291 . S
Mg465 O466 1.963 1_655 S
Mg465 O476 1.942 . S
Mg465 O477 1.955 . S
Mg465 O484 1.986 . S
O466 Mg464 1.936 . S
O466 Mg465 1.963 1_455 S
O466 Mg467 1.915 . S
Mg467 O466 1.915 . S
Mg467 O468 1.915 . S
Mg467 O472 2.013 . S
Mg467 O478 2.114 . S
Mg467 O482 2.013 . S
Mg467 O488 2.114 . S
O468 Mg467 1.915 . S
O468 Mg469 1.936 . S
O468 Mg470 1.963 . S
Mg469 O468 1.936 . S
Mg469 O478 2.291 . S
Mg469 O483 2.081 . S
Mg469 O485 2.023 . S
Mg469 O489 2.031 . S
Mg470 O468 1.963 . S
Mg470 O474 1.986 . S
Mg470 O486 1.942 . S
Mg470 O487 1.955 . S
C471 O482 1.191 . S
C471 O484 1.307 1_455 S
O472 Mg467 2.013 . S
O472 C491 1.191 . S
O473 Mg464 2.081 . S
O473 C481 1.331 1_455 S
O474 Mg470 1.986 . S
O474 C491 1.307 . S
O475 Mg464 2.023 . S
O475 C490 1.264 1_455 S
O476 Mg465 1.942 . S
O476 C481 1.244 . S
O477 Mg465 1.955 . S
O477 C490 1.273 . S
O478 Mg467 2.114 . S
O478 Mg469 2.291 . S
O478 C480 1.312 . S
O479 Mg464 2.031 . S
O479 C480 1.208 . S
C480 O478 1.312 . S
C480 O479 1.208 . S
C481 O473 1.331 1_655 S
C481 O476 1.244 . S
O482 Mg467 2.013 . S
O482 C471 1.191 . S
O483 C462 1.331 . S
O483 Mg469 2.081 . S
O484 Mg465 1.986 . S
O484 C471 1.307 1_655 S
O485 C463 1.264 . S
O485 Mg469 2.023 . S
O486 C462 1.244 . S
O486 Mg470 1.942 . S
O487 C463 1.273 . S
O487 Mg470 1.955 . S
O488 C461 1.312 . S
O488 Mg464 2.291 . S
O488 Mg467 2.114 . S
O489 C461 1.208 . S
O489 Mg469 2.031 . S
C490 O475 1.264 1_655 S
C490 O477 1.273 . S
C491 O472 1.191 . S
C491 O474 1.307 . S
C492 C493 1.363 . S
C492 C498 1.379 . S
C492 N500 1.356 . S
C493 C492 1.363 . S
C493 C499 1.363 . S
C494 C495 1.363 . S
C494 C499 1.379 . S
C494 N501 1.356 . S
C495 C494 1.363 . S
C495 C498 1.363 . S
N496 C498 1.356 . S
N496 H508 0.984 . S
N496 H509 0.985 . S
N497 C499 1.356 . S
N497 H502 0.984 . S
N497 H503 0.985 . S
C498 C492 1.379 . S
C498 C495 1.363 . S
C498 N496 1.356 . S
C499 C493 1.363 . S
C499 C494 1.379 . S
C499 N497 1.356 . S
N500 C492 1.356 . S
N500 H506 0.984 . S
N500 H507 0.984 . S
N501 C494 1.356 . S
N501 H504 0.984 . S
N501 H505 0.985 . S
H502 N497 0.984 . S
H503 N497 0.985 . S
H504 N501 0.984 . S
H505 N501 0.985 . S
H506 N500 0.984 . S
H507 N500 0.984 . S
H508 N496 0.984 . S
H509 N496 0.985 . S
C510 C511 1.363 . S
C510 C516 1.379 1_565 S
C510 N518 1.356 . S
C511 C510 1.363 . S
C511 C517 1.363 . S
C512 C513 1.363 1_565 S
C512 C517 1.379 . S
C512 N519 1.356 1_565 S
C513 C512 1.363 1_545 S
C513 C516 1.363 . S
N514 C516 1.356 . S
N514 H526 0.984 . S
N514 H527 0.985 . S
N515 C517 1.356 . S
N515 H520 0.984 . S
N515 H521 0.985 . S
C516 C510 1.379 1_545 S
C516 C513 1.363 . S
C516 N514 1.356 . S
C517 C511 1.363 . S
C517 C512 1.379 . S
C517 N515 1.356 . S
N518 C510 1.356 . S
N518 H524 0.984 1_565 S
N518 H525 0.984 . S
N519 C512 1.356 1_545 S
N519 H522 0.984 . S
N519 H523 0.985 1_545 S
H520 N515 0.984 . S
H521 N515 0.985 . S
H522 N519 0.984 . S
H523 N519 0.985 1_565 S
H524 N518 0.984 1_545 S
H525 N518 0.984 . S
H526 N514 0.984 . S
H527 N514 0.985 . S
C528 C529 1.363 . S
C528 C534 1.379 . S
C528 N536 1.356 . S
C529 C528 1.363 . S
C529 C535 1.363 . S
C530 C531 1.363 . S
C530 C535 1.379 . S
C530 N537 1.356 . S
C531 C530 1.363 . S
C531 C534 1.363 . S
N532 C534 1.356 . S
N532 H544 0.984 . S
N532 H545 0.985 . S
N533 C535 1.356 . S
N533 H538 0.984 . S
N533 H539 0.985 1_545 S
C534 C528 1.379 . S
C534 C531 1.363 . S
C534 N532 1.356 . S
C535 C529 1.363 . S
C535 C530 1.379 . S
C535 N533 1.356 . S
N536 C528 1.356 . S
N536 H542 0.984 . S
N536 H543 0.984 . S
N537 C530 1.356 . S
N537 H540 0.984 . S
N537 H541 0.985 1_545 S
H538 N533 0.984 . S
H539 N533 0.985 1_565 S
H540 N537 0.984 . S
H541 N537 0.985 1_565 S
H542 N536 0.984 . S
H543 N536 0.984 . S
H544 N532 0.984 . S
H545 N532 0.985 . S
C546 C547 1.363 1_565 S
C546 C552 1.379 . S
C546 N554 1.356 1_565 S
C547 C546 1.363 1_545 S
C547 C553 1.363 . S
C548 C549 1.363 . S
C548 C553 1.379 1_565 S
C548 N555 1.356 . S
C549 C548 1.363 . S
C549 C552 1.363 . S
N550 C552 1.356 . S
N550 H562 0.984 . S
N550 H563 0.985 . S
N551 C553 1.356 . S
N551 H556 0.984 . S
N551 H557 0.985 . S
C552 C546 1.379 . S
C552 C549 1.363 . S
C552 N550 1.356 . S
C553 C547 1.363 . S
C553 C548 1.379 1_545 S
C553 N551 1.356 . S
N554 C546 1.356 1_545 S
N554 H560 0.984 1_545 S
N554 H561 0.984 . S
N555 C548 1.356 . S
N555 H558 0.984 . S
N555 H559 0.985 1_565 S
H556 N551 0.984 . S
H557 N551 0.985 . S
H558 N555 0.984 . S
H559 N555 0.985 1_545 S
H560 N554 0.984 1_565 S
H561 N554 0.984 . S
H562 N550 0.984 . S
H563 N550 0.985 . S
C564 C565 1.363 . S
C564 C570 1.379 . S
C564 N572 1.356 . S
C565 C564 1.363 . S
C565 C571 1.363 . S
C566 C567 1.363 . S
C566 C571 1.379 . S
C566 N573 1.356 . S
C567 C566 1.363 . S
C567 C570 1.363 . S
N568 C570 1.356 . S
N568 H580 0.984 . S
N568 H581 0.985 . S
N569 C571 1.356 . S
N569 H574 0.984 . S
N569 H575 0.985 . S
C570 C564 1.379 . S
C570 C567 1.363 . S
C570 N568 1.356 . S
C571 C565 1.363 . S
C571 C566 1.379 . S
C571 N569 1.356 . S
N572 C564 1.356 . S
N572 H578 0.984 . S
N572 H579 0.984 . S
N573 C566 1.356 . S
N573 H576 0.984 . S
N573 H577 0.985 . S
H574 N569 0.984 . S
H575 N569 0.985 . S
H576 N573 0.984 . S
H577 N573 0.985 . S
H578 N572 0.984 . S
H579 N572 0.984 . S
H580 N568 0.984 . S
H581 N568 0.985 . S
C582 C583 1.363 . S
C582 C588 1.379 1_565 S
C582 N590 1.356 . S
C583 C582 1.363 . S
C583 C589 1.363 . S
C584 C585 1.363 . S
C584 C589 1.379 1_545 S
C584 N591 1.356 . S
C585 C584 1.363 . S
C585 C588 1.363 . S
N586 C588 1.356 . S
N586 H598 0.984 . S
N586 H599 0.985 . S
N587 C589 1.356 . S
N587 H592 0.984 . S
N587 H593 0.985 . S
C588 C582 1.379 1_545 S
C588 C585 1.363 . S
C588 N586 1.356 . S
C589 C583 1.363 . S
C589 C584 1.379 1_565 S
C589 N587 1.356 . S
N590 C582 1.356 . S
N590 H596 0.984 . S
N590 H597 0.984 . S
N591 C584 1.356 . S
N591 H594 0.984 . S
N591 H595 0.985 . S
H592 N587 0.984 . S
H593 N587 0.985 . S
H594 N591 0.984 . S
H595 N591 0.985 . S
H596 N590 0.984 . S
H597 N590 0.984 . S
H598 N586 0.984 . S
H599 N586 0.985 . S
C600 C601 1.363 . S
C600 C606 1.379 . S
C600 N608 1.356 . S
C601 C600 1.363 . S
C601 C607 1.363 . S
C602 C603 1.363 . S
C602 C607 1.379 . S
C602 N609 1.356 . S
C603 C602 1.363 . S
C603 C606 1.363 . S
N604 C606 1.356 . S
N604 H616 0.984 . S
N604 H617 0.985 . S
N605 C607 1.356 . S
N605 H610 0.984 . S
N605 H611 0.985 . S
C606 C600 1.379 . S
C606 C603 1.363 . S
C606 N604 1.356 . S
C607 C601 1.363 . S
C607 C602 1.379 . S
C607 N605 1.356 . S
N608 C600 1.356 . S
N608 H614 0.984 . S
N608 H615 0.984 . S
N609 C602 1.356 . S
N609 H612 0.984 . S
N609 H613 0.985 . S
H610 N605 0.984 . S
H611 N605 0.985 . S
H612 N609 0.984 . S
H613 N609 0.985 . S
H614 N608 0.984 . S
H615 N608 0.984 . S
H616 N604 0.984 . S
H617 N604 0.985 . S
C618 C619 1.363 . S
C618 C624 1.379 1_545 S
C618 N626 1.356 . S
C619 C618 1.363 . S
C619 C625 1.363 . S
C620 C621 1.363 . S
C620 C625 1.379 1_565 S
C620 N627 1.356 . S
C621 C620 1.363 . S
C621 C624 1.363 . S
N622 C624 1.356 . S
N622 H634 0.984 . S
N622 H635 0.985 . S
N623 C625 1.356 . S
N623 H628 0.984 . S
N623 H629 0.985 . S
C624 C618 1.379 1_565 S
C624 C621 1.363 . S
C624 N622 1.356 . S
C625 C619 1.363 . S
C625 C620 1.379 1_545 S
C625 N623 1.356 . S
N626 C618 1.356 . S
N626 H632 0.984 . S
N626 H633 0.984 . S
N627 C620 1.356 . S
N627 H630 0.984 . S
N627 H631 0.985 . S
H628 N623 0.984 . S
H629 N623 0.985 . S
H630 N627 0.984 . S
H631 N627 0.985 . S
H632 N626 0.984 . S
H633 N626 0.984 . S
H634 N622 0.984 . S
H635 N622 0.985 . S
C636 C637 1.363 . S
C636 C642 1.379 . S
C636 N644 1.356 . S
C637 C636 1.363 . S
C637 C643 1.363 . S
C638 C639 1.363 . S
C638 C643 1.379 . S
C638 N645 1.356 . S
C639 C638 1.363 . S
C639 C642 1.363 . S
N640 C642 1.356 . S
N640 H652 0.984 . S
N640 H653 0.985 . S
N641 C643 1.356 . S
N641 H646 0.984 . S
N641 H647 0.985 . S
C642 C636 1.379 . S
C642 C639 1.363 . S
C642 N640 1.356 . S
C643 C637 1.363 . S
C643 C638 1.379 . S
C643 N641 1.356 . S
N644 C636 1.356 . S
N644 H650 0.984 1_545 S
N644 H651 0.984 . S
N645 C638 1.356 . S
N645 H648 0.984 . S
N645 H649 0.985 . S
H646 N641 0.984 . S
H647 N641 0.985 . S
H648 N645 0.984 . S
H649 N645 0.985 . S
H650 N644 0.984 1_565 S
H651 N644 0.984 . S
H652 N640 0.984 . S
H653 N640 0.985 . S
C654 C655 1.363 . S
C654 C660 1.379 . S
C654 N662 1.356 . S
C655 C654 1.363 . S
C655 C661 1.363 . S
C656 C657 1.363 . S
C656 C661 1.379 . S
C656 N663 1.356 . S
C657 C656 1.363 . S
C657 C660 1.363 . S
N658 C660 1.356 . S
N658 H670 0.984 . S
N658 H671 0.985 . S
N659 C661 1.356 . S
N659 H664 0.984 . S
N659 H665 0.985 . S
C660 C654 1.379 . S
C660 C657 1.363 . S
C660 N658 1.356 . S
C661 C655 1.363 . S
C661 C656 1.379 . S
C661 N659 1.356 . S
N662 C654 1.356 . S
N662 H668 0.984 . S
N662 H669 0.984 . S
N663 C656 1.356 . S
N663 H666 0.984 . S
N663 H667 0.985 . S
H664 N659 0.984 . S
H665 N659 0.985 . S
H666 N663 0.984 . S
H667 N663 0.985 . S
H668 N662 0.984 . S
H669 N662 0.984 . S
H670 N658 0.984 . S
H671 N658 0.985 . S
C672 C673 1.363 . S
C672 C678 1.379 . S
C672 N680 1.356 . S
C673 C672 1.363 . S
C673 C679 1.363 . S
C674 C675 1.363 . S
C674 C679 1.379 . S
C674 N681 1.356 . S
C675 C674 1.363 . S
C675 C678 1.363 . S
N676 C678 1.356 1_455 S
N676 H688 0.984 . S
N676 H689 0.985 . S
N677 C679 1.356 . S
N677 H682 0.984 . S
N677 H683 0.985 1_565 S
C678 C672 1.379 . S
C678 C675 1.363 . S
C678 N676 1.356 1_655 S
C679 C673 1.363 . S
C679 C674 1.379 . S
C679 N677 1.356 . S
N680 C672 1.356 . S
N680 H686 0.984 . S
N680 H687 0.984 . S
N681 C674 1.356 . S
N681 H684 0.984 1_655 S
N681 H685 0.985 . S
H682 N677 0.984 . S
H683 N677 0.985 1_545 S
H684 N681 0.984 1_455 S
H685 N681 0.985 . S
H686 N680 0.984 . S
H687 N680 0.984 . S
H688 N676 0.984 . S
H689 N676 0.985 . S
C690 C691 1.377 . S
C690 C696 1.372 1_655 S
C690 N698 1.352 1_655 S
C691 C690 1.377 . S
C691 C697 1.363 . S
C692 C693 1.363 . S
C692 C697 1.379 . S
C692 N699 1.356 . S
C693 C692 1.363 . S
C693 C696 1.363 1_655 S
N694 C696 1.356 . S
N694 H706 0.984 . S
N694 H707 0.985 . S
N695 C697 1.356 . S
N695 H700 0.984 . S
N695 H701 0.985 . S
C696 C690 1.372 1_455 S
C696 C693 1.363 1_455 S
C696 N694 1.356 . S
C697 C691 1.363 . S
C697 C692 1.379 . S
C697 N695 1.356 . S
N698 C690 1.352 1_455 S
N698 H704 0.984 . S
N698 H705 0.984 1_455 S
N699 C692 1.356 . S
N699 H702 0.984 . S
N699 H703 0.985 . S
H700 N695 0.984 . S
H701 N695 0.985 . S
H702 N699 0.984 . S
H703 N699 0.985 . S
H704 N698 0.984 . S
H705 N698 0.984 1_655 S
H706 N694 0.984 . S
H707 N694 0.985 . S
C708 C709 1.363 . S
C708 C714 1.379 . S
C708 N716 1.356 . S
C709 C708 1.363 . S
C709 C715 1.363 . S
C710 C711 1.363 . S
C710 C715 1.379 . S
C710 N717 1.356 . S
C711 C710 1.363 . S
C711 C714 1.363 . S
N712 C714 1.356 . S
N712 H724 0.984 . S
N712 H725 0.985 . S
N713 C715 1.356 . S
N713 H718 0.984 . S
N713 H719 0.985 . S
C714 C708 1.379 . S
C714 C711 1.363 . S
C714 N712 1.356 . S
C715 C709 1.363 . S
C715 C710 1.379 . S
C715 N713 1.356 . S
N716 C708 1.356 . S
N716 H722 0.984 1_565 S
N716 H723 0.984 . S
N717 C710 1.356 . S
N717 H720 0.984 . S
N717 H721 0.985 . S
H718 N713 0.984 . S
H719 N713 0.985 . S
H720 N717 0.984 . S
H721 N717 0.985 . S
H722 N716 0.984 1_545 S
H723 N716 0.984 . S
H724 N712 0.984 . S
H725 N712 0.985 . S
C726 C727 1.363 . S
C726 C732 1.379 . S
C726 N734 1.356 . S
C727 C726 1.363 . S
C727 C733 1.363 . S
C728 C729 1.363 1_455 S
C728 C733 1.379 1_455 S
C728 N735 1.356 . S
C729 C728 1.363 1_655 S
C729 C732 1.363 . S
N730 C732 1.356 . S
N730 H742 0.984 . S
N730 H743 0.985 . S
N731 C733 1.349 1_545 S
N731 H736 0.995 . S
N731 H737 0.981 1_655 S
C732 C726 1.379 . S
C732 C729 1.363 . S
C732 N730 1.356 . S
C733 C727 1.363 . S
C733 C728 1.379 1_655 S
C733 N731 1.349 1_565 S
N734 C726 1.356 . S
N734 H740 0.984 . S
N734 H741 0.984 . S
N735 C728 1.356 . S
N735 H738 0.984 . S
N735 H739 0.985 . S
H736 N731 0.995 . S
H737 N731 0.981 1_455 S
H738 N735 0.984 . S
H739 N735 0.985 . S
H740 N734 0.984 . S
H741 N734 0.984 . S
H742 N730 0.984 . S
H743 N730 0.985 . S
C744 C745 1.363 . S
C744 C750 1.379 . S
C744 N752 1.356 . S
C745 C744 1.363 . S
C745 C751 1.363 . S
C746 C747 1.363 1_455 S
C746 C751 1.379 1_455 S
C746 N753 1.356 . S
C747 C746 1.363 1_655 S
C747 C750 1.363 . S
N748 C750 1.356 . S
N748 H760 0.984 . S
N748 H761 0.985 . S
N749 C751 1.356 . S
N749 H754 0.984 . S
N749 H755 0.985 1_645 S
C750 C744 1.379 . S
C750 C747 1.363 . S
C750 N748 1.356 . S
C751 C745 1.363 . S
C751 C746 1.379 1_655 S
C751 N749 1.356 . S
N752 C744 1.356 . S
N752 H758 0.984 . S
N752 H759 0.984 . S
N753 C746 1.356 . S
N753 H756 0.984 . S
N753 H757 0.985 . S
H754 N749 0.984 . S
H755 N749 0.985 1_465 S
H756 N753 0.984 . S
H757 N753 0.985 . S
H758 N752 0.984 . S
H759 N752 0.984 . S
H760 N748 0.984 . S
H761 N748 0.985 . S
C762 C763 1.363 . S
C762 C768 1.379 . S
C762 N770 1.356 . S
C763 C762 1.363 . S
C763 C769 1.363 . S
C764 C765 1.363 . S
C764 C769 1.379 . S
C764 N771 1.356 . S
C765 C764 1.363 . S
C765 C768 1.363 . S
N766 C768 1.356 . S
N766 H778 0.984 . S
N766 H779 0.985 . S
N767 C769 1.356 . S
N767 H772 0.984 1_545 S
N767 H773 0.990 . S
C768 C762 1.379 . S
C768 C765 1.363 . S
C768 N766 1.356 . S
C769 C763 1.363 . S
C769 C764 1.379 . S
C769 N767 1.356 . S
N770 C762 1.356 . S
N770 H776 0.984 . S
N770 H777 0.984 . S
N771 C764 1.356 . S
N771 H774 0.984 . S
N771 H775 0.985 . S
H772 N767 0.984 1_565 S
H773 N767 0.990 . S
H774 N771 0.984 . S
H775 N771 0.985 . S
H776 N770 0.984 . S
H777 N770 0.984 . S
H778 N766 0.984 . S
H779 N766 0.985 . S
C780 C781 1.363 . S
C780 C786 1.379 . S
C780 N788 1.356 . S
C781 C780 1.363 . S
C781 C787 1.363 . S
C782 C783 1.363 . S
C782 C787 1.379 . S
C782 N789 1.356 . S
C783 C782 1.363 . S
C783 C786 1.363 . S
N784 C786 1.356 . S
N784 H796 0.984 . S
N784 H797 0.985 . S
N785 C787 1.356 . S
N785 H790 0.984 . S
N785 H791 0.985 . S
C786 C780 1.379 . S
C786 C783 1.363 . S
C786 N784 1.356 . S
C787 C781 1.363 . S
C787 C782 1.379 . S
C787 N785 1.356 . S
N788 C780 1.356 . S
N788 H794 0.984 . S
N788 H795 0.984 . S
N789 C782 1.356 . S
N789 H792 0.984 . S
N789 H793 0.985 . S
H790 N785 0.984 . S
H791 N785 0.985 . S
H792 N789 0.984 . S
H793 N789 0.985 . S
H794 N788 0.984 . S
H795 N788 0.984 . S
H796 N784 0.984 . S
H797 N784 0.985 . S
C798 C799 1.363 . S
C798 C804 1.379 . S
C798 N806 1.356 . S
C799 C798 1.363 . S
C799 C805 1.363 . S
C800 C801 1.363 . S
C800 C805 1.379 . S
C800 N807 1.356 1_655 S
C801 C800 1.363 . S
C801 C804 1.363 . S
N802 C804 1.356 . S
N802 H814 0.984 . S
N802 H815 0.985 . S
N803 C805 1.356 . S
N803 H808 0.984 . S
N803 H809 0.985 1_655 S
C804 C798 1.379 . S
C804 C801 1.363 . S
C804 N802 1.356 . S
C805 C799 1.363 . S
C805 C800 1.379 . S
C805 N803 1.356 . S
N806 C798 1.356 . S
N806 H812 0.984 . S
N806 H813 0.984 . S
N807 C800 1.356 1_455 S
N807 H810 0.984 1_455 S
N807 H811 0.985 . S
H808 N803 0.984 . S
H809 N803 0.985 1_455 S
H810 N807 0.984 1_655 S
H811 N807 0.985 . S
H812 N806 0.984 . S
H813 N806 0.984 . S
H814 N802 0.984 . S
H815 N802 0.985 . S
C816 C817 1.363 . S
C816 C822 1.379 . S
C816 N824 1.356 . S
C817 C816 1.363 . S
C817 C823 1.363 . S
C818 C819 1.363 . S
C818 C823 1.379 . S
C818 N825 1.356 . S
C819 C818 1.363 . S
C819 C822 1.363 . S
N820 C822 1.356 . S
N820 H832 0.984 . S
N820 H833 0.985 . S
N821 C823 1.356 . S
N821 H826 0.984 . S
N821 H827 0.985 . S
C822 C816 1.379 . S
C822 C819 1.363 . S
C822 N820 1.356 . S
C823 C817 1.363 . S
C823 C818 1.379 . S
C823 N821 1.356 . S
N824 C816 1.356 . S
N824 H830 0.984 . S
N824 H831 0.984 . S
N825 C818 1.356 . S
N825 H828 0.984 . S
N825 H829 0.985 . S
H826 N821 0.984 . S
H827 N821 0.985 . S
H828 N825 0.984 . S
H829 N825 0.985 . S
H830 N824 0.984 . S
H831 N824 0.984 . S
H832 N820 0.984 . S
H833 N820 0.985 . S
C834 C835 1.363 . S
C834 C840 1.379 . S
C834 N842 1.356 . S
C835 C834 1.363 . S
C835 C841 1.363 . S
C836 C837 1.363 . S
C836 C841 1.379 . S
C836 N843 1.356 . S
C837 C836 1.363 . S
C837 C840 1.363 . S
N838 C840 1.356 . S
N838 H850 0.984 . S
N838 H851 0.985 . S
N839 C841 1.356 . S
N839 H844 0.984 . S
N839 H845 0.985 . S
C840 C834 1.379 . S
C840 C837 1.363 . S
C840 N838 1.356 . S
C841 C835 1.363 . S
C841 C836 1.379 . S
C841 N839 1.356 . S
N842 C834 1.356 . S
N842 H848 0.984 . S
N842 H849 0.984 . S
N843 C836 1.356 . S
N843 H846 0.984 . S
N843 H847 0.985 . S
H844 N839 0.984 . S
H845 N839 0.985 . S
H846 N843 0.984 . S
H847 N843 0.985 . S
H848 N842 0.984 . S
H849 N842 0.984 . S
H850 N838 0.984 . S
H851 N838 0.985 . S
C852 C853 1.363 . S
C852 C858 1.379 . S
C852 N860 1.356 . S
C853 C852 1.363 . S
C853 C859 1.363 . S
C854 C855 1.363 . S
C854 C859 1.379 . S
C854 N861 1.356 . S
C855 C854 1.363 . S
C855 C858 1.363 . S
N856 C858 1.356 . S
N856 H868 0.984 . S
N856 H869 0.985 . S
N857 C859 1.356 . S
N857 H862 0.984 . S
N857 H863 0.985 . S
C858 C852 1.379 . S
C858 C855 1.363 . S
C858 N856 1.356 . S
C859 C853 1.363 . S
C859 C854 1.379 . S
C859 N857 1.356 . S
N860 C852 1.356 . S
N860 H866 0.984 . S
N860 H867 0.984 . S
N861 C854 1.356 . S
N861 H864 0.984 . S
N861 H865 0.985 . S
H862 N857 0.984 . S
H863 N857 0.985 . S
H864 N861 0.984 . S
H865 N861 0.985 . S
H866 N860 0.984 . S
H867 N860 0.984 . S
H868 N856 0.984 . S
H869 N856 0.985 . S
C870 C871 1.363 . S
C870 C876 1.379 . S
C870 N878 1.356 . S
C871 C870 1.363 . S
C871 C877 1.363 . S
C872 C873 1.363 . S
C872 C877 1.379 . S
C872 N879 1.356 . S
C873 C872 1.363 . S
C873 C876 1.363 . S
N874 C876 1.356 . S
N874 H886 0.984 . S
N874 H887 0.985 . S
N875 C877 1.356 . S
N875 H880 0.984 . S
N875 H881 0.985 . S
C876 C870 1.379 . S
C876 C873 1.363 . S
C876 N874 1.356 . S
C877 C871 1.363 . S
C877 C872 1.379 . S
C877 N875 1.356 . S
N878 C870 1.356 . S
N878 H884 0.984 . S
N878 H885 0.984 . S
N879 C872 1.356 . S
N879 H882 0.984 . S
N879 H883 0.985 . S
H880 N875 0.984 . S
H881 N875 0.985 . S
H882 N879 0.984 . S
H883 N879 0.985 . S
H884 N878 0.984 . S
H885 N878 0.984 . S
H886 N874 0.984 . S
H887 N874 0.985 . S
C888 C889 1.363 . S
C888 C894 1.379 . S
C888 N896 1.356 . S
C889 C888 1.363 . S
C889 C895 1.363 . S
C890 C891 1.363 . S
C890 C895 1.379 . S
C890 N897 1.356 . S
C891 C890 1.363 . S
C891 C894 1.363 . S
N892 C894 1.356 . S
N892 H904 0.984 . S
N892 H905 0.985 . S
N893 C895 1.356 . S
N893 H898 0.984 . S
N893 H899 0.985 . S
C894 C888 1.379 . S
C894 C891 1.363 . S
C894 N892 1.356 . S
C895 C889 1.363 . S
C895 C890 1.379 . S
C895 N893 1.356 . S
N896 C888 1.356 . S
N896 H902 0.984 . S
N896 H903 0.984 . S
N897 C890 1.356 . S
N897 H900 0.984 . S
N897 H901 0.985 . S
H898 N893 0.984 . S
H899 N893 0.985 . S
H900 N897 0.984 . S
H901 N897 0.985 . S
H902 N896 0.984 . S
H903 N896 0.984 . S
H904 N892 0.984 . S
H905 N892 0.985 . S
C906 C907 1.363 . S
C906 C912 1.379 . S
C906 N914 1.356 . S
C907 C906 1.363 . S
C907 C913 1.363 . S
C908 C909 1.363 . S
C908 C913 1.379 . S
C908 N915 1.356 1_655 S
C909 C908 1.363 . S
C909 C912 1.363 . S
N910 C912 1.356 . S
N910 H922 0.984 . S
N910 H923 0.985 . S
N911 C913 1.356 . S
N911 H916 0.984 . S
N911 H917 0.985 1_655 S
C912 C906 1.379 . S
C912 C909 1.363 . S
C912 N910 1.356 . S
C913 C907 1.363 . S
C913 C908 1.379 . S
C913 N911 1.356 . S
N914 C906 1.356 . S
N914 H920 0.984 . S
N914 H921 0.984 . S
N915 C908 1.356 1_455 S
N915 H918 0.984 . S
N915 H919 0.985 . S
H916 N911 0.984 . S
H917 N911 0.985 1_455 S
H918 N915 0.984 . S
H919 N915 0.985 . S
H920 N914 0.984 . S
H921 N914 0.984 . S
H922 N910 0.984 . S
H923 N910 0.985 . S
C924 C925 1.363 . S
C924 C930 1.379 . S
C924 N932 1.356 . S
C925 C924 1.363 . S
C925 C931 1.363 . S
C926 C927 1.363 . S
C926 C931 1.379 . S
C926 N933 1.356 . S
C927 C926 1.363 . S
C927 C930 1.363 . S
N928 C930 1.356 . S
N928 H940 0.984 . S
N928 H941 0.985 . S
N929 C931 1.356 . S
N929 H934 0.984 . S
N929 H935 0.985 . S
C930 C924 1.379 . S
C930 C927 1.363 . S
C930 N928 1.356 . S
C931 C925 1.363 . S
C931 C926 1.379 . S
C931 N929 1.356 . S
N932 C924 1.356 . S
N932 H938 0.984 . S
N932 H939 0.984 . S
N933 C926 1.356 . S
N933 H936 0.984 . S
N933 H937 0.985 . S
H934 N929 0.984 . S
H935 N929 0.985 . S
H936 N933 0.984 . S
H937 N933 0.985 . S
H938 N932 0.984 . S
H939 N932 0.984 . S
H940 N928 0.984 . S
H941 N928 0.985 . S
C942 C943 1.363 . S
C942 C948 1.379 . S
C942 N950 1.356 . S
C943 C942 1.363 . S
C943 C949 1.363 . S
C944 C945 1.363 . S
C944 C949 1.379 . S
C944 N951 1.356 . S
C945 C944 1.363 . S
C945 C948 1.363 . S
N946 C948 1.356 . S
N946 H958 0.984 . S
N946 H959 0.985 . S
N947 C949 1.356 . S
N947 H952 0.984 . S
N947 H953 0.985 . S
C948 C942 1.379 . S
C948 C945 1.363 . S
C948 N946 1.356 . S
C949 C943 1.363 . S
C949 C944 1.379 . S
C949 N947 1.356 . S
N950 C942 1.356 . S
N950 H956 0.984 . S
N950 H957 0.984 . S
N951 C944 1.356 . S
N951 H954 0.984 . S
N951 H955 0.985 . S
H952 N947 0.984 . S
H953 N947 0.985 . S
H954 N951 0.984 . S
H955 N951 0.985 . S
H956 N950 0.984 . S
H957 N950 0.984 . S
H958 N946 0.984 . S
H959 N946 0.985 . S
C960 C961 1.363 . S
C960 C966 1.379 . S
C960 N968 1.356 . S
C961 C960 1.363 . S
C961 C967 1.363 . S
C962 C963 1.363 . S
C962 C967 1.379 . S
C962 N969 1.356 . S
C963 C962 1.363 . S
C963 C966 1.363 . S
N964 C966 1.356 . S
N964 H976 0.984 . S
N964 H977 0.985 . S
N965 C967 1.356 . S
N965 H970 0.984 . S
N965 H971 0.985 . S
C966 C960 1.379 . S
C966 C963 1.363 . S
C966 N964 1.356 . S
C967 C961 1.363 . S
C967 C962 1.379 . S
C967 N965 1.356 . S
N968 C960 1.356 . S
N968 H974 0.984 . S
N968 H975 0.984 . S
N969 C962 1.356 . S
N969 H972 0.984 . S
N969 H973 0.985 . S
H970 N965 0.984 . S
H971 N965 0.985 . S
H972 N969 0.984 . S
H973 N969 0.985 . S
H974 N968 0.984 . S
H975 N968 0.984 . S
H976 N964 0.984 . S
H977 N964 0.985 . S
C978 C979 1.363 . S
C978 C984 1.379 . S
C978 N986 1.356 . S
C979 C978 1.363 . S
C979 C985 1.363 . S
C980 C981 1.363 . S
C980 C985 1.379 . S
C980 N987 1.356 . S
C981 C980 1.363 . S
C981 C984 1.363 . S
N982 C984 1.356 . S
N982 H994 0.984 . S
N982 H995 0.985 . S
N983 C985 1.356 . S
N983 H988 0.984 . S
N983 H989 0.985 . S
C984 C978 1.379 . S
C984 C981 1.363 . S
C984 N982 1.356 . S
C985 C979 1.363 . S
C985 C980 1.379 . S
C985 N983 1.356 . S
N986 C978 1.356 . S
N986 H992 0.984 . S
N986 H993 0.984 . S
N987 C980 1.356 . S
N987 H990 0.984 . S
N987 H991 0.985 . S
H988 N983 0.984 . S
H989 N983 0.985 . S
H990 N987 0.984 . S
H991 N987 0.985 . S
H992 N986 0.984 . S
H993 N986 0.984 . S
H994 N982 0.984 . S
H995 N982 0.985 . S
C996 C997 1.363 . S
C996 C1002 1.379 . S
C996 N1004 1.356 . S
C997 C996 1.363 . S
C997 C1003 1.363 . S
C998 C999 1.363 . S
C998 C1003 1.379 . S
C998 N1005 1.356 . S
C999 C998 1.363 . S
C999 C1002 1.363 . S
N1000 C1002 1.356 . S
N1000 H1012 0.984 . S
N1000 H1013 0.985 . S
N1001 C1003 1.356 . S
N1001 H1006 0.984 . S
N1001 H1007 0.985 . S
C1002 C996 1.379 . S
C1002 C999 1.363 . S
C1002 N1000 1.356 . S
C1003 C997 1.363 . S
C1003 C998 1.379 . S
C1003 N1001 1.356 . S
N1004 C996 1.356 . S
N1004 H1010 0.984 . S
N1004 H1011 0.984 . S
N1005 C998 1.356 . S
N1005 H1008 0.984 . S
N1005 H1009 0.985 . S
H1006 N1001 0.984 . S
H1007 N1001 0.985 . S
H1008 N1005 0.984 . S
H1009 N1005 0.985 . S
H1010 N1004 0.984 . S
H1011 N1004 0.984 . S
H1012 N1000 0.984 . S
H1013 N1000 0.985 . S
C1014 C1015 1.363 . S
C1014 C1020 1.379 . S
C1014 N1022 1.356 . S
C1015 C1014 1.363 . S
C1015 C1021 1.363 . S
C1016 C1017 1.363 . S
C1016 C1021 1.379 . S
C1016 N1023 1.356 . S
C1017 C1016 1.363 . S
C1017 C1020 1.363 . S
N1018 C1020 1.356 . S
N1018 H1030 0.984 . S
N1018 H1031 0.985 . S
N1019 C1021 1.356 . S
N1019 H1024 0.984 . S
N1019 H1025 0.985 . S
C1020 C1014 1.379 . S
C1020 C1017 1.363 . S
C1020 N1018 1.356 . S
C1021 C1015 1.363 . S
C1021 C1016 1.379 . S
C1021 N1019 1.356 . S
N1022 C1014 1.356 . S
N1022 H1028 0.984 . S
N1022 H1029 0.984 . S
N1023 C1016 1.356 . S
N1023 H1026 0.984 . S
N1023 H1027 0.985 . S
H1024 N1019 0.984 . S
H1025 N1019 0.985 . S
H1026 N1023 0.984 . S
H1027 N1023 0.985 . S
H1028 N1022 0.984 . S
H1029 N1022 0.984 . S
H1030 N1018 0.984 . S
H1031 N1018 0.985 . S
C1032 C1033 1.363 . S
C1032 C1038 1.379 . S
C1032 N1040 1.356 . S
C1033 C1032 1.363 . S
C1033 C1039 1.363 . S
C1034 C1035 1.363 . S
C1034 C1039 1.379 . S
C1034 N1041 1.356 . S
C1035 C1034 1.363 . S
C1035 C1038 1.363 . S
N1036 C1038 1.356 . S
N1036 H1048 0.984 . S
N1036 H1049 0.985 . S
N1037 C1039 1.356 . S
N1037 H1042 0.984 . S
N1037 H1043 0.985 . S
C1038 C1032 1.379 . S
C1038 C1035 1.363 . S
C1038 N1036 1.356 . S
C1039 C1033 1.363 . S
C1039 C1034 1.379 . S
C1039 N1037 1.356 . S
N1040 C1032 1.356 . S
N1040 H1046 0.984 . S
N1040 H1047 0.984 . S
N1041 C1034 1.356 . S
N1041 H1044 0.984 . S
N1041 H1045 0.985 . S
H1042 N1037 0.984 . S
H1043 N1037 0.985 . S
H1044 N1041 0.984 . S
H1045 N1041 0.985 . S
H1046 N1040 0.984 . S
H1047 N1040 0.984 . S
H1048 N1036 0.984 . S
H1049 N1036 0.985 . S
C1050 C1051 1.363 . S
C1050 C1056 1.379 . S
C1050 N1058 1.356 . S
C1051 C1050 1.363 . S
C1051 C1057 1.363 . S
C1052 C1053 1.363 . S
C1052 C1057 1.379 . S
C1052 N1059 1.356 . S
C1053 C1052 1.363 . S
C1053 C1056 1.363 . S
N1054 C1056 1.356 . S
N1054 H1066 0.984 . S
N1054 H1067 0.985 . S
N1055 C1057 1.356 . S
N1055 H1060 0.984 . S
N1055 H1061 0.985 . S
C1056 C1050 1.379 . S
C1056 C1053 1.363 . S
C1056 N1054 1.356 . S
C1057 C1051 1.363 . S
C1057 C1052 1.379 . S
C1057 N1055 1.356 . S
N1058 C1050 1.356 . S
N1058 H1064 0.984 . S
N1058 H1065 0.984 . S
N1059 C1052 1.356 . S
N1059 H1062 0.984 . S
N1059 H1063 0.985 . S
H1060 N1055 0.984 . S
H1061 N1055 0.985 . S
H1062 N1059 0.984 . S
H1063 N1059 0.985 . S
H1064 N1058 0.984 . S
H1065 N1058 0.984 . S
H1066 N1054 0.984 . S
H1067 N1054 0.985 . S
C495 C428 1.757 . S
C493 C1 1.821 . S
C511 C68 1.733 . S
C513 C431 1.704 . S
C529 C93 1.722 . S
C531 C462 1.682 . S
C549 C397 1.732 . S
C547 C139 1.799 . S
C567 C432 1.757 . S
C565 C8 1.820 . S
C585 C463 1.732 . S
C583 C61 1.790 . S
C603 C388 1.680 . S
C601 C100 1.720 . S
C621 C419 1.704 . S
C619 C146 1.742 . S
C637 C15 1.397 . S
C639 C449 1.325 . S
C655 C192 1.382 . S
C657 C418 1.315 . S
C673 C107 1.319 . S
C675 C378 1.311 1_655 S
C693 C471 1.326 1_655 S
C691 C238 1.332 . S
C711 C399 1.326 . S
C709 C22 1.398 . S
C727 C185 1.332 . S
C729 C398 1.326 1_655 S
C745 C114 1.319 . S
C747 C491 1.315 1_655 S
C765 C430 1.315 . S
C763 C231 1.382 . S
C781 C277 1.821 . S
C783 C490 1.759 . S
C799 C206 1.733 . S
C801 C369 1.704 . S
C817 C330 1.722 . S
C819 C400 1.680 . S
C835 C252 1.790 . S
C837 C459 1.732 . S
C855 C370 1.757 . S
C853 C284 1.819 . S
C871 C199 1.790 . S
C873 C401 1.732 . S
C889 C323 1.722 . S
C891 C450 1.680 . S
C909 C481 1.704 . S
C907 C245 1.733 . S
C925 C291 1.397 . S
C927 C387 1.322 . S
C943 C54 1.382 . S
C945 C480 1.315 . S
C961 C344 1.319 . S
C963 C440 1.313 . S
C981 C409 1.326 . S
C979 C153 1.333 . S
C999 C461 1.325 . S
C997 C298 1.399 . S
C1017 C460 1.326 . S
C1015 C47 1.332 . S
C1035 C429 1.313 . S
C1033 C337 1.319 . S
C1053 C368 1.315 . S
C1051 C160 1.384 . S
