# Generated by pormake.
# Topology apo, (3,6)-cn, num edge types: 1
# Building blocks:
#     Node 0, Type 0, BuildingBlock: MIDCAF_clean_linker_0, # of connection points: 3
#     Node 1, Type 0, BuildingBlock: MIDCAF_clean_linker_0, # of connection points: 3
#     Node 2, Type 0, BuildingBlock: MIDCAF_clean_linker_0, # of connection points: 3
#     Node 3, Type 0, BuildingBlock: MIDCAF_clean_linker_0, # of connection points: 3
#     Node 4, Type 0, BuildingBlock: MIDCAF_clean_linker_0, # of connection points: 3
#     Node 5, Type 0, BuildingBlock: MIDCAF_clean_linker_0, # of connection points: 3
#     Node 6, Type 0, BuildingBlock: MIDCAF_clean_linker_0, # of connection points: 3
#     Node 7, Type 0, BuildingBlock: MIDCAF_clean_linker_0, # of connection points: 3
#     Node 8, Type 1, BuildingBlock: KUMBUR_clean_sbu_1, # of connection points: 6
#     Node 9, Type 1, BuildingBlock: KUMBUR_clean_sbu_1, # of connection points: 6
#     Node 10, Type 1, BuildingBlock: KUMBUR_clean_sbu_1, # of connection points: 6
#     Node 11, Type 1, BuildingBlock: KUMBUR_clean_sbu_1, # of connection points: 6
#     Edge 12, Type (0, 1), BuildingBlock: XIVTED_clean_linker_0, # of connection points: 2
#     Edge 13, Type (0, 1), BuildingBlock: XIVTED_clean_linker_0, # of connection points: 2
#     Edge 14, Type (0, 1), BuildingBlock: XIVTED_clean_linker_0, # of connection points: 2
#     Edge 15, Type (0, 1), BuildingBlock: XIVTED_clean_linker_0, # of connection points: 2
#     Edge 16, Type (0, 1), BuildingBlock: XIVTED_clean_linker_0, # of connection points: 2
#     Edge 17, Type (0, 1), BuildingBlock: XIVTED_clean_linker_0, # of connection points: 2
#     Edge 18, Type (0, 1), BuildingBlock: XIVTED_clean_linker_0, # of connection points: 2
#     Edge 19, Type (0, 1), BuildingBlock: XIVTED_clean_linker_0, # of connection points: 2
#     Edge 20, Type (0, 1), BuildingBlock: XIVTED_clean_linker_0, # of connection points: 2
#     Edge 21, Type (0, 1), BuildingBlock: XIVTED_clean_linker_0, # of connection points: 2
#     Edge 22, Type (0, 1), BuildingBlock: XIVTED_clean_linker_0, # of connection points: 2
#     Edge 23, Type (0, 1), BuildingBlock: XIVTED_clean_linker_0, # of connection points: 2
#     Edge 24, Type (0, 1), BuildingBlock: XIVTED_clean_linker_0, # of connection points: 2
#     Edge 25, Type (0, 1), BuildingBlock: XIVTED_clean_linker_0, # of connection points: 2
#     Edge 26, Type (0, 1), BuildingBlock: XIVTED_clean_linker_0, # of connection points: 2
#     Edge 27, Type (0, 1), BuildingBlock: XIVTED_clean_linker_0, # of connection points: 2
#     Edge 28, Type (0, 1), BuildingBlock: XIVTED_clean_linker_0, # of connection points: 2
#     Edge 29, Type (0, 1), BuildingBlock: XIVTED_clean_linker_0, # of connection points: 2
#     Edge 30, Type (0, 1), BuildingBlock: XIVTED_clean_linker_0, # of connection points: 2
#     Edge 31, Type (0, 1), BuildingBlock: XIVTED_clean_linker_0, # of connection points: 2
#     Edge 32, Type (0, 1), BuildingBlock: XIVTED_clean_linker_0, # of connection points: 2
#     Edge 33, Type (0, 1), BuildingBlock: XIVTED_clean_linker_0, # of connection points: 2
#     Edge 34, Type (0, 1), BuildingBlock: XIVTED_clean_linker_0, # of connection points: 2
#     Edge 35, Type (0, 1), BuildingBlock: XIVTED_clean_linker_0, # of connection points: 2
# Relax obj value: 0.009
# Max RMSD: 0.094
# Mean RMSD: 0.075
data_MOF--net-apo--node1-KUMBUR_clean_sbu_1--node2-MIDCAF_clean_linker_0--edge1-XIVTED_clean_linker_0
_symmetry_space_group_name_H-M    P1
_symmetry_Int_Tables_number       1
_symmetry_cell_setting            triclinic
loop_
_symmetry_equiv_pos_as_xyz
'x, y, z'
_cell_length_a     29.080603
_cell_length_b     52.568518
_cell_length_c     64.333951
_cell_angle_alpha  90.079827
_cell_angle_beta   90.063868
_cell_angle_gamma 90.443057
loop_
_atom_site_label
_atom_site_type_symbol
_atom_site_fract_x
_atom_site_fract_y
_atom_site_fract_z
_atom_type_partial_charge
C0 C 0.32942 0.39387 0.48307 0.0
C1 C 0.32149 0.37159 0.49458 0.0
C2 C 0.29839 0.35109 0.48494 0.0
C3 C 0.28362 0.35293 0.46424 0.0
H4 H 0.20001 0.31854 0.41634 0.0
H5 H 0.15917 0.28516 0.39702 0.0
H6 H 0.18921 0.32417 0.33951 0.0
H7 H 0.22878 0.35746 0.35854 0.0
H8 H 0.25721 0.41525 0.35986 0.0
H9 H 0.28718 0.45118 0.34002 0.0
H10 H 0.3697 0.47434 0.39269 0.0
H11 H 0.34018 0.43839 0.41256 0.0
H12 H 0.32154 0.41335 0.45438 0.0
H13 H 0.3478 0.40989 0.48977 0.0
H14 H 0.29128 0.33373 0.49344 0.0
H15 H 0.26614 0.33681 0.45722 0.0
N16 N 0.25375 0.35885 0.42083 0.0
N17 N 0.25616 0.38246 0.38987 0.0
N18 N 0.29106 0.39857 0.41985 0.0
C19 C 0.2427 0.36124 0.40033 0.0
C20 C 0.2803 0.40122 0.3995 0.0
C21 C 0.27797 0.3776 0.43069 0.0
C22 C 0.21758 0.34079 0.38905 0.0
C23 C 0.19776 0.31999 0.39958 0.0
C24 C 0.17449 0.30083 0.38852 0.0
C25 C 0.17064 0.3021 0.36674 0.0
C26 C 0.19061 0.32285 0.3563 0.0
C27 C 0.21362 0.34193 0.36728 0.0
C28 C 0.29645 0.4238 0.38778 0.0
C29 C 0.28158 0.42803 0.36727 0.0
C30 C 0.29851 0.44872 0.35593 0.0
C31 C 0.33089 0.46549 0.36479 0.0
C32 C 0.34516 0.46154 0.38539 0.0
C33 C 0.32801 0.44099 0.39679 0.0
C34 C 0.29171 0.37531 0.45281 0.0
C35 C 0.31458 0.39576 0.46258 0.0
C36 C 0.18662 0.10057 0.98573 0.0
C37 C 0.18901 0.12452 0.99535 0.0
C38 C 0.20311 0.14569 0.98365 0.0
C39 C 0.21556 0.14286 0.96273 0.0
H40 H 0.28919 0.17856 0.91381 0.0
H41 H 0.32664 0.212 0.89337 0.0
H42 H 0.33649 0.16052 0.84123 0.0
H43 H 0.29887 0.12741 0.86131 0.0
H44 H 0.25012 0.07602 0.86108 0.0
H45 H 0.22139 0.04001 0.84105 0.0
H46 H 0.13368 0.01814 0.8922 0.0
H47 H 0.16212 0.0544 0.91236 0.0
H48 H 0.19594 0.07902 0.95787 0.0
H49 H 0.17565 0.08398 0.99444 0.0
H50 H 0.20543 0.16432 0.9908 0.0
H51 H 0.2268 0.15949 0.95416 0.0
N52 N 0.25156 0.13374 0.92085 0.0
N53 N 0.24999 0.1091 0.89045 0.0
N54 N 0.21283 0.09432 0.92037 0.0
C55 C 0.26377 0.13051 0.90059 0.0
C56 C 0.22449 0.09095 0.90012 0.0
C57 C 0.22628 0.1156 0.93088 0.0
C58 C 0.29022 0.15035 0.88916 0.0
C59 C 0.29964 0.17432 0.89804 0.0
C60 C 0.32129 0.19347 0.88635 0.0
C61 C 0.33387 0.18905 0.86555 0.0
C62 C 0.32625 0.16476 0.85704 0.0
C63 C 0.30475 0.14571 0.86865 0.0
C64 C 0.20841 0.06822 0.88837 0.0
C65 C 0.22485 0.06354 0.86817 0.0
C66 C 0.20859 0.04278 0.85669 0.0
C67 C 0.1753 0.02623 0.86504 0.0
C68 C 0.15906 0.03071 0.88528 0.0
C69 C 0.17559 0.05141 0.89687 0.0
C70 C 0.21322 0.11885 0.95304 0.0
C71 C 0.19817 0.09779 0.96477 0.0
C72 C 0.82517 0.09743 0.52214 0.0
C73 C 0.82101 0.12019 0.51099 0.0
C74 C 0.80085 0.14132 0.52075 0.0
C75 C 0.78616 0.13987 0.54143 0.0
H76 H 0.70822 0.17719 0.58938 0.0
H77 H 0.67104 0.2117 0.60881 0.0
H78 H 0.69629 0.17216 0.66627 0.0
H79 H 0.73316 0.13786 0.64736 0.0
H80 H 0.75801 0.08039 0.64635 0.0
H81 H 0.78566 0.04486 0.66688 0.0
H82 H 0.87368 0.02217 0.61615 0.0
H83 H 0.8451 0.0573 0.59533 0.0
H84 H 0.81542 0.07821 0.55098 0.0
H85 H 0.84083 0.08089 0.5151 0.0
H86 H 0.79664 0.15904 0.51242 0.0
H87 H 0.77143 0.15659 0.54858 0.0
N88 N 0.75683 0.13522 0.58485 0.0
N89 N 0.76079 0.11296 0.61638 0.0
N90 N 0.7928 0.09541 0.5864 0.0
C91 C 0.74728 0.13375 0.60556 0.0
C92 C 0.78351 0.09376 0.60697 0.0
C93 C 0.77953 0.11593 0.57517 0.0
C94 C 0.72381 0.15469 0.61674 0.0
C95 C 0.70583 0.17582 0.60614 0.0
C96 C 0.68456 0.19552 0.61718 0.0
C97 C 0.68108 0.19433 0.6389 0.0
C98 C 0.69863 0.17331 0.64948 0.0
C99 C 0.71971 0.1537 0.63856 0.0
C100 C 0.79936 0.07172 0.61919 0.0
C101 C 0.78315 0.0678 0.63952 0.0
C102 C 0.79917 0.04749 0.65134 0.0
C103 C 0.832 0.03076 0.64318 0.0
C104 C 0.8479 0.03452 0.62278 0.0
C105 C 0.83164 0.05474 0.61089 0.0
C106 C 0.79166 0.1173 0.5528 0.0
C107 C 0.8108 0.09601 0.5428 0.0
C108 C 0.68088 0.39727 0.02257 0.0
C109 C 0.68383 0.37422 0.01167 0.0
C110 C 0.70135 0.35272 0.0219 0.0
C111 C 0.71515 0.35422 0.04272 0.0
H112 H 0.77861 0.31389 0.09239 0.0
H113 H 0.81555 0.27984 0.11195 0.0
H114 H 0.8327 0.33058 0.16433 0.0
H115 H 0.79505 0.36412 0.14523 0.0
H116 H 0.75141 0.41819 0.14555 0.0
H117 H 0.72241 0.45379 0.16611 0.0
H118 H 0.62341 0.47037 0.11815 0.0
H119 H 0.65272 0.43518 0.09724 0.0
H120 H 0.69095 0.41681 0.05129 0.0
H121 H 0.66721 0.41409 0.01516 0.0
H122 H 0.70449 0.33476 0.01377 0.0
H123 H 0.72814 0.33729 0.05022 0.0
N124 N 0.74728 0.36007 0.08573 0.0
N125 N 0.74462 0.38301 0.11704 0.0
N126 N 0.71005 0.39951 0.08722 0.0
C127 C 0.75816 0.36212 0.10628 0.0
C128 C 0.72047 0.40171 0.10766 0.0
C129 C 0.72345 0.3789 0.07608 0.0
C130 C 0.78334 0.3417 0.11727 0.0
C131 C 0.79045 0.31778 0.10805 0.0
C132 C 0.81181 0.29828 0.11924 0.0
C133 C 0.82659 0.30236 0.13983 0.0
C134 C 0.82074 0.32653 0.14872 0.0
C135 C 0.7993 0.34588 0.13765 0.0
C136 C 0.70433 0.42383 0.11977 0.0
C137 C 0.72369 0.42951 0.13929 0.0
C138 C 0.70734 0.44989 0.15102 0.0
C139 C 0.67086 0.46461 0.1436 0.0
C140 C 0.65159 0.45913 0.12411 0.0
C141 C 0.66848 0.43907 0.11218 0.0
C142 C 0.71123 0.37719 0.05375 0.0
C143 C 0.69425 0.39873 0.04336 0.0
C144 C 0.67556 0.60352 0.52279 0.0
C145 C 0.69649 0.62234 0.51043 0.0
C146 C 0.73191 0.63731 0.51906 0.0
C147 C 0.7456 0.63381 0.53972 0.0
H148 H 0.78624 0.67709 0.59381 0.0
H149 H 0.82051 0.711 0.61478 0.0
H150 H 0.85858 0.6559 0.66142 0.0
H151 H 0.82305 0.6223 0.64086 0.0
H152 H 0.74544 0.57884 0.64683 0.0
H153 H 0.71404 0.54401 0.66719 0.0
H154 H 0.65574 0.51058 0.61169 0.0
H155 H 0.6875 0.54556 0.59101 0.0
H156 H 0.67253 0.58516 0.55239 0.0
H157 H 0.6486 0.59144 0.51649 0.0
H158 H 0.74856 0.65202 0.50993 0.0
H159 H 0.77276 0.64582 0.54593 0.0
N160 N 0.76394 0.62967 0.58409 0.0
N161 N 0.7617 0.60563 0.61473 0.0
N162 N 0.72439 0.5905 0.58485 0.0
C163 C 0.77584 0.62677 0.6044 0.0
C164 C 0.736 0.5874 0.60515 0.0
C165 C 0.73842 0.61152 0.57416 0.0
C166 C 0.80132 0.64702 0.61577 0.0
C167 C 0.80232 0.6722 0.60845 0.0
C168 C 0.82213 0.69166 0.62048 0.0
C169 C 0.84176 0.68632 0.64001 0.0
C170 C 0.84266 0.6609 0.64677 0.0
C171 C 0.82251 0.64155 0.63488 0.0
C172 C 0.71882 0.5652 0.61722 0.0
C173 C 0.72617 0.56408 0.63882 0.0
C174 C 0.70792 0.54415 0.65058 0.0
C175 C 0.68204 0.52469 0.64108 0.0
C176 C 0.6757 0.52529 0.61942 0.0
C177 C 0.69374 0.5454 0.60761 0.0
C178 C 0.72455 0.61503 0.55213 0.0
C179 C 0.68957 0.59981 0.54335 0.0
C180 C 0.82383 0.89639 0.02206 0.0
C181 C 0.81507 0.87428 0.01039 0.0
C182 C 0.78963 0.85438 0.01956 0.0
C183 C 0.77353 0.85658 0.04 0.0
H184 H 0.70656 0.81696 0.08865 0.0
H185 H 0.66829 0.78262 0.10785 0.0
H186 H 0.66471 0.83016 0.16261 0.0
H187 H 0.70196 0.86427 0.1437 0.0
H188 H 0.78015 0.90725 0.14714 0.0
H189 H 0.81193 0.94223 0.16724 0.0
H190 H 0.82672 0.98666 0.11105 0.0
H191 H 0.79696 0.95096 0.09079 0.0
H192 H 0.81554 0.91599 0.05074 0.0
H193 H 0.84392 0.91193 0.01566 0.0
H194 H 0.7818 0.8372 0.01089 0.0
H195 H 0.7543 0.84087 0.04666 0.0
N196 N 0.74394 0.86207 0.08321 0.0
N197 N 0.74585 0.88515 0.11444 0.0
N198 N 0.78049 0.90203 0.08472 0.0
C199 C 0.73255 0.86411 0.10366 0.0
C200 C 0.76967 0.90419 0.10511 0.0
C201 C 0.76791 0.88107 0.07363 0.0
C202 C 0.70755 0.84341 0.1146 0.0
C203 C 0.69734 0.82011 0.10475 0.0
C204 C 0.67565 0.80041 0.11575 0.0
C205 C 0.66344 0.80374 0.13671 0.0
C206 C 0.67305 0.82712 0.1464 0.0
C207 C 0.69477 0.84666 0.13552 0.0
C208 C 0.78613 0.92628 0.11736 0.0
C209 C 0.78991 0.92453 0.13907 0.0
C210 C 0.80795 0.94474 0.15064 0.0
C211 C 0.82196 0.96744 0.14085 0.0
C212 C 0.81717 0.96936 0.11913 0.0
C213 C 0.79979 0.94894 0.1075 0.0
C214 C 0.78263 0.87873 0.05165 0.0
C215 C 0.8077 0.89863 0.04233 0.0
C216 C 0.17772 0.89648 0.48235 0.0
C217 C 0.18935 0.87514 0.49427 0.0
C218 C 0.21765 0.85644 0.4854 0.0
C219 C 0.23301 0.8587 0.46489 0.0
H220 H 0.2875 0.81567 0.41418 0.0
H221 H 0.32174 0.78106 0.39412 0.0
H222 H 0.34383 0.83247 0.34269 0.0
H223 H 0.3091 0.86656 0.3623 0.0
H224 H 0.24604 0.9122 0.35729 0.0
H225 H 0.21509 0.94601 0.33592 0.0
H226 H 0.14726 0.97771 0.38965 0.0
H227 H 0.17901 0.94413 0.41127 0.0
H228 H 0.18246 0.91523 0.45302 0.0
H229 H 0.15574 0.91111 0.48869 0.0
H230 H 0.22786 0.83997 0.49434 0.0
H231 H 0.25435 0.8438 0.45853 0.0
N232 N 0.25872 0.86273 0.42122 0.0
N233 N 0.25633 0.88506 0.38973 0.0
N234 N 0.22085 0.90199 0.41916 0.0
C235 C 0.27008 0.86449 0.40073 0.0
C236 C 0.23176 0.90386 0.39874 0.0
C237 C 0.23427 0.88161 0.43058 0.0
C238 C 0.29492 0.84385 0.3898 0.0
C239 C 0.3 0.81958 0.39865 0.0
C240 C 0.31972 0.79976 0.38717 0.0
C241 C 0.33483 0.80386 0.36664 0.0
C242 C 0.33143 0.82841 0.35821 0.0
C243 C 0.31169 0.84806 0.36958 0.0
C244 C 0.21488 0.92532 0.38603 0.0
C245 C 0.22476 0.92642 0.36465 0.0
C246 C 0.20674 0.94572 0.35232 0.0
C247 C 0.1784 0.96442 0.36104 0.0
C248 C 0.16928 0.96369 0.38249 0.0
C249 C 0.18734 0.94435 0.39486 0.0
C250 C 0.22033 0.87971 0.45274 0.0
C251 C 0.19294 0.89872 0.46183 0.0
C252 C 0.33282 0.59951 0.98136 0.0
C253 C 0.31692 0.61939 0.99395 0.0
C254 C 0.28499 0.6366 0.98557 0.0
C255 C 0.27018 0.63432 0.96491 0.0
H256 H 0.22824 0.67931 0.9098 0.0
H257 H 0.19397 0.71267 0.88846 0.0
H258 H 0.15126 0.65607 0.84349 0.0
H259 H 0.18655 0.62315 0.86433 0.0
H260 H 0.26428 0.58007 0.8569 0.0
H261 H 0.29468 0.54489 0.83673 0.0
H262 H 0.35669 0.51393 0.89217 0.0
H263 H 0.32552 0.54881 0.91252 0.0
H264 H 0.33183 0.58183 0.95151 0.0
H265 H 0.35777 0.5861 0.98722 0.0
H266 H 0.27146 0.6519 0.99499 0.0
H267 H 0.24582 0.64798 0.95894 0.0
N268 N 0.24795 0.63096 0.92038 0.0
N269 N 0.25033 0.60768 0.88921 0.0
N270 N 0.28649 0.59188 0.91889 0.0
C271 C 0.23634 0.62851 0.89991 0.0
C272 C 0.27545 0.58932 0.89853 0.0
C273 C 0.27289 0.61247 0.93 0.0
C274 C 0.21073 0.6486 0.88866 0.0
C275 C 0.2111 0.67402 0.89546 0.0
C276 C 0.19135 0.69314 0.88321 0.0
C277 C 0.17047 0.68719 0.86399 0.0
C278 C 0.1682 0.66155 0.85782 0.0
C279 C 0.18822 0.64259 0.86991 0.0
C280 C 0.29244 0.56735 0.88637 0.0
C281 C 0.28413 0.56571 0.86487 0.0
C282 C 0.30185 0.54561 0.85325 0.0
C283 C 0.32827 0.52666 0.86282 0.0
C284 C 0.33604 0.52807 0.88436 0.0
C285 C 0.31835 0.54819 0.896 0.0
C286 C 0.2869 0.61473 0.95218 0.0
C287 C 0.31803 0.5972 0.96077 0.0
Tb288 Tb 0.0615 0.13471 0.23341 0.0
C289 C 0.85277 0.11591 0.25763 0.0
N290 N 0.87869 0.13751 0.2566 0.0
C291 C 0.81476 0.15971 0.24161 0.0
C292 C 0.80722 0.11517 0.25005 0.0
C293 C 0.85944 0.15959 0.24966 0.0
C294 C 0.78871 0.13732 0.24154 0.0
C295 C 0.8443 0.07265 0.27023 0.0
C296 C 0.87082 0.09499 0.26768 0.0
C297 C 0.79955 0.0715 0.26205 0.0
C298 C 0.78103 0.09273 0.252 0.0
Tb299 Tb 0.95006 0.13516 0.27168 0.0
N300 N 0.91416 0.0968 0.27545 0.0
C301 C 0.86331 0.05235 0.28129 0.0
C302 C 0.9319 0.07762 0.28723 0.0
C303 C 0.90717 0.05494 0.28997 0.0
H304 H 0.87735 0.17746 0.25123 0.0
H305 H 0.9217 0.03961 0.299 0.0
H306 H 0.13182 0.09326 0.25564 0.0
H307 H 0.07669 0.23612 0.21884 0.0
H308 H 0.96494 0.07984 0.29464 0.0
H309 H 0.84408 0.03485 0.28358 0.0
H310 H 0.03838 0.19456 0.21751 0.0
H311 H 0.8 0.17726 0.23602 0.0
H312 H 0.77865 0.05448 0.26379 0.0
H313 H 0.74603 0.0918 0.24623 0.0
H314 H 0.2094 0.09387 0.27088 0.0
H315 H 0.75378 0.13759 0.23567 0.0
H316 H 0.1546 0.24022 0.23391 0.0
N317 N 0.13069 0.13313 0.24986 0.0
C318 C 0.1552 0.15526 0.24985 0.0
C319 C 0.19435 0.11133 0.26527 0.0
C320 C 0.20015 0.15635 0.25805 0.0
C321 C 0.14991 0.11116 0.25696 0.0
C322 C 0.21956 0.13403 0.26587 0.0
N323 N 0.09156 0.1751 0.23362 0.0
C324 C 0.07112 0.19594 0.2251 0.0
C325 C 0.15894 0.20034 0.24195 0.0
C326 C 0.13489 0.17695 0.24168 0.0
C327 C 0.13735 0.22187 0.23391 0.0
C328 C 0.0933 0.21964 0.22545 0.0
H329 H 0.25413 0.13405 0.27217 0.0
H330 H 0.25906 0.18073 0.26415 0.0
H331 H 0.22287 0.21928 0.25026 0.0
O332 O 0.09142 0.14286 0.2042 0.0
O333 O 0.06573 0.15174 0.26467 0.0
O334 O 0.99401 0.1686 0.26821 0.0
O335 O 0.0979 0.10596 0.21817 0.0
O336 O 1.00039 0.15344 0.2206 0.0
O337 O 0.95645 0.16642 0.249 0.0
O338 O 0.96104 0.13591 0.30474 0.0
O339 O 0.9577 0.10297 0.25023 0.0
O340 O 0.99632 0.11903 0.22166 0.0
O341 O 0.90007 0.15179 0.29016 0.0
O342 O 0.01406 0.11759 0.28211 0.0
O343 O 0.0486 0.10099 0.25256 0.0
C344 C 0.03782 0.16854 0.27275 0.0
C345 C 0.09764 0.10751 0.18126 0.0
C346 C 0.10511 0.10774 0.14337 0.0
C347 C 0.08701 0.08295 0.14271 0.0
C348 C 0.07953 0.08264 0.18011 0.0
C349 C 0.07445 0.07049 0.16097 0.0
C350 C 0.11075 0.11999 0.16272 0.0
C351 C 0.96691 0.16687 0.22898 0.0
C352 C 0.10592 0.1197 0.20173 0.0
C353 C 0.22438 0.17955 0.25803 0.0
C354 C 0.20376 0.2015 0.2501 0.0
C355 C 0.96736 0.10283 0.23026 0.0
C356 C 0.90328 0.15688 0.32711 0.0
C357 C 0.89165 0.15399 0.36456 0.0
C358 C 0.86384 0.17568 0.36371 0.0
C359 C 0.87527 0.17856 0.32671 0.0
C360 C 0.91141 0.14445 0.34617 0.0
C361 C 0.85569 0.18783 0.3449 0.0
C362 C 0.03984 0.10059 0.27268 0.0
C363 C 0.92173 0.14717 0.30732 0.0
H364 H 0.08335 0.07304 0.12801 0.0
H365 H 0.06975 0.07235 0.19401 0.0
H366 H 0.06109 0.05123 0.16029 0.0
H367 H 0.1256 0.13895 0.16333 0.0
H368 H 0.84802 0.18309 0.37769 0.0
H369 H 0.86832 0.18836 0.31225 0.0
H370 H 0.93254 0.12757 0.34669 0.0
H371 H 0.83398 0.20445 0.34441 0.0
Tb372 Tb 0.45301 0.36234 0.73311 0.0
C373 C 0.65947 0.3762 0.76066 0.0
N374 N 0.63488 0.35412 0.76013 0.0
C375 C 0.69973 0.33217 0.74601 0.0
C376 C 0.7054 0.37713 0.75375 0.0
C377 C 0.65413 0.33222 0.75289 0.0
C378 C 0.72553 0.3547 0.74648 0.0
C379 C 0.66171 0.42155 0.76762 0.0
C380 C 0.63769 0.39814 0.76743 0.0
C381 C 0.7077 0.42253 0.76097 0.0
C382 C 0.72949 0.40038 0.75408 0.0
Tb383 Tb 0.56205 0.35623 0.77288 0.0
N384 N 0.59282 0.39654 0.77347 0.0
C385 C 0.63888 0.44325 0.77459 0.0
C386 C 0.57147 0.41744 0.7814 0.0
C387 C 0.59371 0.44112 0.78168 0.0
H388 H 0.63466 0.31464 0.75283 0.0
H389 H 0.57623 0.45765 0.78775 0.0
H390 H 0.38559 0.40673 0.75302 0.0
H391 H 0.41707 0.26666 0.70658 0.0
H392 H 0.53808 0.4161 0.78824 0.0
H393 H 0.65609 0.4616 0.77496 0.0
H394 H 0.46341 0.30571 0.71043 0.0
H395 H 0.71499 0.31475 0.74042 0.0
H396 H 0.7267 0.44034 0.76107 0.0
H397 H 0.7649 0.40147 0.7489 0.0
H398 H 0.30718 0.40927 0.76748 0.0
H399 H 0.76082 0.35461 0.7411 0.0
H400 H 0.33779 0.26489 0.7205 0.0
N401 N 0.3799 0.3676 0.74519 0.0
C402 C 0.35159 0.34703 0.74369 0.0
C403 C 0.31938 0.39155 0.76101 0.0
C404 C 0.30622 0.34766 0.75132 0.0
C405 C 0.36409 0.38996 0.75313 0.0
C406 C 0.29043 0.37023 0.76029 0.0
N407 N 0.41293 0.32527 0.72799 0.0
C408 C 0.42986 0.30492 0.71738 0.0
C409 C 0.34017 0.30348 0.73228 0.0
C410 C 0.36845 0.32522 0.73449 0.0
C411 C 0.3583 0.28202 0.72247 0.0
C412 C 0.40316 0.28288 0.71475 0.0
H413 H 0.25581 0.37151 0.7664 0.0
H414 H 0.24335 0.32587 0.75562 0.0
H415 H 0.27303 0.28719 0.73885 0.0
O416 O 0.4588 0.36081 0.70038 0.0
O417 O 0.44022 0.33902 0.76115 0.0
O418 O 0.51167 0.3253 0.77271 0.0
O419 O 0.41801 0.3894 0.71546 0.0
O420 O 0.51264 0.33996 0.723 0.0
O421 O 0.5489 0.32354 0.75246 0.0
O422 O 0.56758 0.36252 0.8055 0.0
O423 O 0.57479 0.37273 0.74194 0.0
O424 O 0.50566 0.39125 0.73823 0.0
O425 O 0.60402 0.33181 0.79004 0.0
O426 O 0.49897 0.37427 0.7848 0.0
O427 O 0.46826 0.39231 0.75551 0.0
C428 C 0.46653 0.32547 0.77363 0.0
C429 C 0.39432 0.37666 0.68186 0.0
C430 C 0.37305 0.37313 0.64534 0.0
C431 C 0.32667 0.37593 0.65076 0.0
C432 C 0.34755 0.37916 0.68703 0.0
C433 C 0.31404 0.37889 0.67151 0.0
C434 C 0.40693 0.3736 0.66089 0.0
C435 C 0.53989 0.3236 0.73235 0.0
C436 C 0.43038 0.37959 0.69781 0.0
C437 C 0.27821 0.32584 0.74969 0.0
C438 C 0.2951 0.30382 0.74013 0.0
C439 C 0.54789 0.38838 0.73202 0.0
C440 C 0.61602 0.33504 0.82718 0.0
C441 C 0.62508 0.33822 0.86477 0.0
C442 C 0.65338 0.31673 0.86442 0.0
C443 C 0.64476 0.31365 0.82722 0.0
C444 C 0.60652 0.34754 0.8461 0.0
C445 C 0.6633 0.30462 0.84573 0.0
C446 C 0.46918 0.38945 0.77578 0.0
C447 C 0.59548 0.34341 0.80738 0.0
H448 H 0.30029 0.37614 0.63886 0.0
H449 H 0.33684 0.38183 0.703 0.0
H450 H 0.27821 0.38129 0.67554 0.0
H451 H 0.4429 0.37211 0.65666 0.0
H452 H 0.66811 0.30943 0.87867 0.0
H453 H 0.65275 0.3037 0.81294 0.0
H454 H 0.58447 0.36408 0.84637 0.0
H455 H 0.68531 0.28811 0.84561 0.0
Tb456 Tb 0.06127 0.85762 0.73086 0.0
C457 C 0.8548 0.84333 0.75974 0.0
N458 N 0.88163 0.86457 0.75902 0.0
C459 C 0.81829 0.88804 0.74486 0.0
C460 C 0.80924 0.84329 0.75222 0.0
C461 C 0.86315 0.88711 0.75268 0.0
C462 C 0.79142 0.86593 0.7443 0.0
C463 C 0.84538 0.79973 0.77121 0.0
C464 C 0.87225 0.82201 0.76923 0.0
C465 C 0.80065 0.79916 0.76296 0.0
C466 C 0.78255 0.82093 0.75351 0.0
Tb467 Tb 0.95476 0.86073 0.77214 0.0
N468 N 0.91565 0.82334 0.7769 0.0
C469 C 0.86412 0.77893 0.78172 0.0
C470 C 0.93326 0.8036 0.78808 0.0
C471 C 0.90809 0.78098 0.79038 0.0
H472 H 0.88225 0.90464 0.7542 0.0
H473 H 0.92254 0.7652 0.7989 0.0
H474 H 0.13365 0.81495 0.74961 0.0
H475 H 0.07857 0.95879 0.71567 0.0
H476 H 0.96683 0.80525 0.7951 0.0
H477 H 0.84465 0.76142 0.78355 0.0
H478 H 0.0384 0.91776 0.71559 0.0
H479 H 0.80419 0.90592 0.73963 0.0
H480 H 0.77948 0.78217 0.76418 0.0
H481 H 0.74759 0.82046 0.74767 0.0
H482 H 0.21348 0.81446 0.76245 0.0
H483 H 0.75651 0.86676 0.73846 0.0
H484 H 0.15871 0.96189 0.72832 0.0
N485 N 0.13365 0.85479 0.74389 0.0
C486 C 0.15897 0.87662 0.74319 0.0
C487 C 0.19841 0.83212 0.75728 0.0
C488 C 0.20491 0.87717 0.75018 0.0
C489 C 0.15289 0.83254 0.75028 0.0
C490 C 0.22448 0.85455 0.75734 0.0
N491 N 0.09338 0.8975 0.72968 0.0
C492 C 0.07241 0.91865 0.72199 0.0
C493 C 0.16291 0.92185 0.73583 0.0
C494 C 0.13814 0.89869 0.73601 0.0
C495 C 0.14089 0.94372 0.72868 0.0
C496 C 0.09557 0.94206 0.72163 0.0
H497 H 0.25973 0.85416 0.7628 0.0
H498 H 0.26503 0.901 0.75522 0.0
H499 H 0.22827 0.9401 0.74274 0.0
O500 O 0.08609 0.86563 0.70073 0.0
O501 O 0.07354 0.87492 0.76156 0.0
O502 O 0.00301 0.89159 0.76609 0.0
O503 O 0.08918 0.8272 0.71367 0.0
O504 O 0.9992 0.87726 0.71973 0.0
O505 O 0.96021 0.89146 0.74908 0.0
O506 O 0.96333 0.85825 0.80486 0.0
O507 O 0.9571 0.82784 0.75079 0.0
O508 O 0.99272 0.84433 0.72187 0.0
O509 O 0.919 0.88591 0.79112 0.0
O510 O 0.01929 0.84255 0.78118 0.0
O511 O 0.0509 0.82454 0.75148 0.0
C512 C 0.04626 0.89068 0.77123 0.0
C513 C 0.11993 0.83306 0.67872 0.0
C514 C 0.13204 0.83556 0.64122 0.0
C515 C 0.16165 0.81462 0.64254 0.0
C516 C 0.1495 0.81213 0.6796 0.0
C517 C 0.17048 0.80313 0.66161 0.0
C518 C 0.11171 0.84509 0.65946 0.0
C519 C 0.96734 0.89124 0.72882 0.0
C520 C 0.09826 0.84213 0.698 0.0
C521 C 0.22968 0.90019 0.7499 0.0
C522 C 0.20872 0.92247 0.74279 0.0
C523 C 0.96679 0.82706 0.73083 0.0
C524 C 0.89773 0.8714 0.8242 0.0
C525 C 0.87593 0.86911 0.86065 0.0
C526 C 0.82942 0.86922 0.85487 0.0
C527 C 0.85084 0.87104 0.81868 0.0
C528 C 0.91017 0.87035 0.84532 0.0
C529 C 0.817 0.87013 0.83398 0.0
C530 C 0.04289 0.82459 0.77174 0.0
C531 C 0.93328 0.87593 0.80832 0.0
H532 H 0.17813 0.8072 0.62873 0.0
H533 H 0.15672 0.80286 0.69426 0.0
H534 H 0.19351 0.78709 0.66242 0.0
H535 H 0.0888 0.86122 0.65857 0.0
H536 H 0.8027 0.86887 0.86661 0.0
H537 H 0.8402 0.87215 0.80257 0.0
H538 H 0.94612 0.87106 0.84981 0.0
H539 H 0.78103 0.87047 0.82965 0.0
Tb540 Tb 0.44823 0.63631 0.23348 0.0
C541 C 0.6564 0.65323 0.25621 0.0
N542 N 0.63109 0.63138 0.2568 0.0
C543 C 0.69452 0.60797 0.24291 0.0
C544 C 0.70209 0.65324 0.24895 0.0
C545 C 0.64944 0.60884 0.25039 0.0
C546 C 0.72102 0.63024 0.24223 0.0
C547 C 0.66125 0.69878 0.26225 0.0
C548 C 0.63606 0.67578 0.26269 0.0
C549 C 0.70703 0.6988 0.2553 0.0
C550 C 0.72736 0.67611 0.24865 0.0
Tb551 Tb 0.56009 0.63529 0.27125 0.0
N552 N 0.59137 0.67515 0.26911 0.0
C553 C 0.63979 0.72105 0.26898 0.0
C554 C 0.57098 0.69665 0.27643 0.0
C555 C 0.59455 0.71994 0.27617 0.0
H556 H 0.63002 0.59133 0.25172 0.0
H557 H 0.57805 0.73695 0.28189 0.0
H558 H 0.37498 0.67795 0.25341 0.0
H559 H 0.42878 0.53718 0.21244 0.0
H560 H 0.53723 0.69602 0.28307 0.0
H561 H 0.65803 0.7391 0.26896 0.0
H562 H 0.46797 0.57864 0.21376 0.0
H563 H 0.70904 0.59006 0.23796 0.0
H564 H 0.72702 0.71627 0.25499 0.0
H565 H 0.76266 0.67646 0.24327 0.0
H566 H 0.29586 0.67763 0.26704 0.0
H567 H 0.75606 0.62945 0.23658 0.0
H568 H 0.35043 0.53243 0.22692 0.0
N569 N 0.37557 0.63837 0.24675 0.0
C570 C 0.3507 0.61642 0.24603 0.0
C571 C 0.31102 0.6602 0.26138 0.0
C572 C 0.30498 0.61541 0.25326 0.0
C573 C 0.35624 0.66024 0.25402 0.0
C574 C 0.2853 0.63766 0.26108 0.0
N575 N 0.41579 0.5966 0.23145 0.0
C576 C 0.43552 0.57654 0.22149 0.0
C577 C 0.34677 0.57167 0.23698 0.0
C578 C 0.37148 0.59481 0.23814 0.0
C579 C 0.36825 0.55054 0.22817 0.0
C580 C 0.4126 0.5531 0.22013 0.0
H581 H 0.25021 0.63771 0.26673 0.0
H582 H 0.24527 0.59116 0.25788 0.0
H583 H 0.28178 0.55288 0.24354 0.0
O584 O 0.44953 0.63225 0.20027 0.0
O585 O 0.44022 0.61628 0.26329 0.0
O586 O 0.51281 0.60277 0.27353 0.0
O587 O 0.40231 0.65768 0.21603 0.0
O588 O 0.51146 0.61714 0.22312 0.0
O589 O 0.54675 0.60124 0.25276 0.0
O590 O 0.56409 0.644 0.30331 0.0
O591 O 0.56648 0.65304 0.24033 0.0
O592 O 0.4945 0.66891 0.2351 0.0
O593 O 0.61008 0.61721 0.28937 0.0
O594 O 0.49716 0.65308 0.28312 0.0
O595 O 0.4588 0.66882 0.25438 0.0
C596 C 0.46749 0.60194 0.27461 0.0
C597 C 0.39467 0.65676 0.1787 0.0
C598 C 0.38456 0.6549 0.14096 0.0
C599 C 0.35119 0.67399 0.14244 0.0
C600 C 0.36104 0.67585 0.17956 0.0
C601 C 0.33951 0.68431 0.16158 0.0
C602 C 0.40621 0.64603 0.15922 0.0
C603 C 0.539 0.60105 0.23262 0.0
C604 C 0.41588 0.64834 0.19846 0.0
C605 C 0.28045 0.59231 0.25241 0.0
C606 C 0.30128 0.5705 0.24428 0.0
C607 C 0.53821 0.6682 0.23052 0.0
C608 C 0.59538 0.61217 0.32524 0.0
C609 C 0.6048 0.60774 0.36277 0.0
C610 C 0.59656 0.58149 0.36087 0.0
C611 C 0.58791 0.58581 0.32366 0.0
C612 C 0.60426 0.62307 0.34487 0.0
C613 C 0.58837 0.57061 0.34142 0.0
C614 C 0.46622 0.66801 0.27461 0.0
C615 C 0.59767 0.62824 0.3065 0.0
H616 H 0.33371 0.68081 0.12866 0.0
H617 H 0.35108 0.68434 0.19421 0.0
H618 H 0.31357 0.69892 0.16249 0.0
H619 H 0.43176 0.63119 0.15822 0.0
H620 H 0.59748 0.56932 0.37445 0.0
H621 H 0.58262 0.57689 0.30867 0.0
H622 H 0.61107 0.64332 0.3462 0.0
H623 H 0.58293 0.55029 0.34008 0.0
H624 H 0.14183 0.95902 0.322 0.0
H625 H 0.06109 0.10336 0.31379 0.0
H626 H 0.16801 0.01515 0.36972 0.0
H627 H 0.06627 0.05284 0.26093 0.0
H628 H 0.09489 0.0702 0.33534 0.0
H629 H 0.10882 0.99216 0.30013 0.0
C630 C 0.14098 0.97835 0.32782 0.0
C631 C 0.15793 0.98434 0.3477 0.0
C632 C 0.08875 0.06635 0.31902 0.0
C633 C 0.11959 0.02225 0.32286 0.0
C634 C 0.06931 0.08522 0.30674 0.0
C635 C 0.06098 0.08076 0.28558 0.0
C636 C 0.09943 0.04274 0.31013 0.0
C637 C 0.07249 0.05704 0.27718 0.0
C638 C 0.12195 -0.00278 0.31536 0.0
C639 C 0.15492 0.0096 0.35461 0.0
N640 N 0.09099 0.03882 0.28952 0.0
N641 N 0.1361 0.02763 0.3422 0.0
H642 H 0.33489 0.47603 0.87288 0.0
H643 H 0.44934 0.43801 0.76447 0.0
H644 H 0.36774 0.52971 0.82428 0.0
H645 H 0.44049 0.38618 0.81629 0.0
H646 H 0.41429 0.47096 0.78561 0.0
H647 H 0.36901 0.44214 0.85199 0.0
C648 C 0.34945 0.48072 0.85787 0.0
C649 C 0.34837 0.50577 0.85032 0.0
C650 C 0.41987 0.4524 0.79241 0.0
C651 C 0.38696 0.46705 0.82628 0.0
C652 C 0.43962 0.4335 0.7803 0.0
C653 C 0.44727 0.40923 0.78861 0.0
C654 C 0.40766 0.4471 0.81306 0.0
C655 C 0.43495 0.40465 0.80932 0.0
C656 C 0.36874 0.46135 0.84593 0.0
C657 C 0.36712 0.51065 0.83061 0.0
N658 N 0.41553 0.42342 0.82087 0.0
N659 N 0.38559 0.49148 0.8193 0.0
H660 H 0.6363 0.5301 0.67782 0.0
H661 H 0.60697 0.38115 0.69967 0.0
H662 H 0.67925 0.47308 0.63377 0.0
H663 H 0.53505 0.43933 0.73354 0.0
H664 H 0.63865 0.4141 0.67645 0.0
H665 H 0.6039 0.49667 0.69972 0.0
C666 C 0.63904 0.51049 0.67278 0.0
C667 C 0.66082 0.50436 0.654 0.0
C668 C 0.61602 0.41962 0.68899 0.0
C669 C 0.62352 0.46589 0.67902 0.0
C670 C 0.59824 0.4009 0.70224 0.0
C671 C 0.56846 0.40771 0.71837 0.0
C672 C 0.60464 0.44527 0.69232 0.0
C673 C 0.55764 0.4334 0.7211 0.0
C674 C 0.62027 0.49142 0.68524 0.0
C675 C 0.6626 0.47864 0.6481 0.0
N676 N 0.57598 0.45127 0.70829 0.0
N677 N 0.64446 0.4603 0.66064 0.0
H678 H 0.89116 0.00087 0.12967 0.0
H679 H 0.91774 0.06091 0.2424 0.0
H680 H 0.79974 0.98262 0.18053 0.0
H681 H 0.97054 0.09841 0.1877 0.0
H682 H 0.88012 0.0294 0.22039 0.0
H683 H 0.92589 0.03443 0.15093 0.0
C684 C 0.87798 0.00399 0.14519 0.0
C685 C 0.8424 0.98866 0.15326 0.0
C686 C 0.89962 0.04464 0.21318 0.0
C687 C 0.88309 0.0267 0.17784 0.0
C688 C 0.92075 0.06286 0.22577 0.0
C689 C 0.94607 0.08293 0.21696 0.0
C690 C 0.90481 0.04602 0.19154 0.0
C691 C 0.95085 0.0835 0.19522 0.0
C692 C 0.89812 0.02308 0.15735 0.0
C693 C 0.82764 0.99345 0.1737 0.0
N694 N 0.93048 0.06526 0.18325 0.0
N695 N 0.84824 0.01189 0.18529 0.0
H696 H 0.8543 0.03194 0.6845 0.0
H697 H 0.94879 0.88961 0.68726 0.0
H698 H 0.85162 0.98186 0.63123 0.0
H699 H 0.93578 0.93747 0.74146 0.0
H700 H 0.91406 0.92316 0.66619 0.0
H701 H 0.88458 -0.00262 0.7055 0.0
C702 C 0.8597 0.0136 0.67725 0.0
C703 C 0.85025 0.00978 0.65607 0.0
C704 C 0.9185 0.92622 0.68272 0.0
C705 C 0.8857 0.97019 0.67999 0.0
C706 C 0.93837 0.90714 0.69471 0.0
C707 C 0.94469 0.91074 0.71612 0.0
C708 C 0.90536 0.94911 0.69223 0.0
C709 C 0.93075 0.93375 0.72505 0.0
C710 C 0.87725 0.9939 0.68923 0.0
C711 C 0.85891 0.98575 0.64743 0.0
N712 N 0.91183 0.9521 0.71305 0.0
N713 N 0.87622 0.96685 0.65943 0.0
H714 H 0.58427 0.46774 0.15904 0.0
H715 H 0.59952 0.60788 0.20098 0.0
H716 H 0.7144 0.5075 0.15751 0.0
H717 H 0.52862 0.54995 0.23611 0.0
H718 H 0.63423 0.57441 0.17931 0.0
H719 H 0.55347 0.50129 0.18163 0.0
C720 C 0.60613 0.48365 0.16341 0.0
C721 C 0.65178 0.48505 0.15657 0.0
C722 C 0.61106 0.56914 0.19178 0.0
C723 C 0.61695 0.52326 0.18191 0.0
C724 C 0.59127 0.58808 0.20399 0.0
C725 C 0.56122 0.58139 0.22009 0.0
C726 C 0.59917 0.5436 0.19535 0.0
C727 C 0.55176 0.55564 0.22376 0.0
C728 C 0.58875 0.50259 0.17632 0.0
C729 C 0.67904 0.50589 0.16261 0.0
N730 N 0.57006 0.53759 0.21119 0.0
N731 N 0.66104 0.52442 0.17484 0.0
H732 H 0.42113 0.47997 0.36221 0.0
H733 H 0.37596 0.59513 0.28408 0.0
H734 H 0.2863 0.49865 0.33898 0.0
H735 H 0.51028 0.56417 0.29631 0.0
H736 H 0.34204 0.56228 0.30612 0.0
H737 H 0.45407 0.51381 0.34079 0.0
C738 C 0.39842 0.49135 0.35271 0.0
C739 C 0.35092 0.4865 0.35234 0.0
C740 C 0.37897 0.56274 0.30399 0.0
C741 C 0.38841 0.5251 0.32765 0.0
C742 C 0.39839 0.58141 0.29127 0.0
C743 C 0.44616 0.5824 0.28815 0.0
C744 C 0.40758 0.54519 0.314 0.0
C745 C 0.47344 0.56437 0.29835 0.0
C746 C 0.41727 0.51053 0.34037 0.0
C747 C 0.32317 0.5016 0.33954 0.0
N748 N 0.45381 0.54659 0.31086 0.0
N749 N 0.34232 0.52027 0.32771 0.0
H750 H 0.22334 0.99298 0.84062 0.0
H751 H 0.99866 0.92543 0.79412 0.0
H752 H 0.08563 0.01066 0.86059 0.0
H753 H 0.13624 0.89837 0.78296 0.0
H754 H 0.02987 0.9573 0.81796 0.0
H755 H 0.19218 0.95898 0.81864 0.0
C756 C 0.18653 0.98969 0.84038 0.0
C757 C 0.15703 0.00472 0.85243 0.0
C758 C 0.05326 0.94438 0.81032 0.0
C759 C 0.12112 0.9658 0.82733 0.0
C760 C 0.03548 0.92618 0.79665 0.0
C761 C 0.06494 0.90935 0.7863 0.0
C762 C 0.10093 0.94595 0.81358 0.0
C763 C 0.11228 0.91112 0.79036 0.0
C764 C 0.16879 0.9702 0.82792 0.0
C765 C 0.10966 -0.0006 0.85171 0.0
N766 N 0.12884 0.92922 0.80357 0.0
N767 N 0.09316 0.98049 0.83927 0.0
H768 H 0.12493 0.15513 0.01387 0.0
H769 H 0.19264 0.11383 0.12931 0.0
H770 H 0.22871 0.09951 0.02759 0.0
H771 H 0.05139 0.12643 0.11226 0.0
H772 H 0.21558 0.12251 0.09321 0.0
H773 H 0.10597 0.15718 0.05123 0.0
C774 C 0.14398 0.1436 0.0248 0.0
C775 C 0.17827 0.12705 0.01776 0.0
C776 C 0.17969 0.12392 0.09752 0.0
C777 C 0.15775 0.12978 0.06017 0.0
C778 C 0.16672 0.11925 0.11809 0.0
C779 C 0.12017 0.11951 0.12364 0.0
C780 C 0.14588 0.12911 0.08254 0.0
C781 C 0.08766 0.1262 0.10849 0.0
C782 C 0.13315 0.14475 0.04599 0.0
C783 C 0.20189 0.11239 0.03243 0.0
N784 N 0.10107 0.13062 0.08854 0.0
N785 N 0.19136 0.11418 0.05295 0.0
H786 H 0.35816 0.33072 0.51565 0.0
H787 H 0.39792 0.41151 0.61956 0.0
H788 H 0.32051 0.40945 0.52381 0.0
H789 H 0.37199 0.33077 0.621 0.0
H790 H 0.39542 0.41022 0.58145 0.0
H791 H 0.38447 0.32986 0.55197 0.0
C792 C 0.35534 0.34778 0.525 0.0
C793 C 0.33716 0.37022 0.51657 0.0
C794 C 0.3913 0.39268 0.5901 0.0
C795 C 0.36852 0.3695 0.55771 0.0
C796 C 0.39319 0.3934 0.61175 0.0
C797 C 0.38495 0.37123 0.62319 0.0
C798 C 0.38092 0.36965 0.57998 0.0
C799 C 0.37845 0.34821 0.61253 0.0
C800 C 0.37079 0.3473 0.54561 0.0
C801 C 0.33511 0.39185 0.52938 0.0
N802 N 0.376 0.34801 0.59142 0.0
N803 N 0.35065 0.39094 0.54923 0.0
H804 H 0.69985 0.40786 0.97989 0.0
H805 H 0.57246 0.31993 0.89612 0.0
H806 H 0.63047 0.3371 0.99389 0.0
H807 H 0.66077 0.38281 0.87956 0.0
H808 H 0.57794 0.33258 0.93265 0.0
H809 H 0.67317 0.40444 0.94385 0.0
C810 C 0.67871 0.39171 0.9754 0.0
C811 C 0.6677 0.37259 0.98984 0.0
C812 C 0.5954 0.34398 0.92103 0.0
C813 C 0.63691 0.36865 0.94874 0.0
C814 C 0.5918 0.33692 0.90021 0.0
C815 C 0.61631 0.35036 0.885 0.0
C816 C 0.62435 0.36437 0.92666 0.0
C817 C 0.6413 0.37208 0.89094 0.0
C818 C 0.66352 0.38977 0.95485 0.0
C819 C 0.64044 0.35202 0.98318 0.0
N820 N 0.64538 0.3782 0.91142 0.0
N821 N 0.62612 0.35057 0.96312 0.0
H822 H 0.87232 0.15873 0.49437 0.0
H823 H 0.85682 0.10854 0.37826 0.0
H824 H 0.812 0.0859 0.47888 0.0
H825 H 0.93826 0.17319 0.39746 0.0
H826 H 0.84713 0.09655 0.41493 0.0
H827 H 0.90131 0.16226 0.45897 0.0
C828 C 0.86506 0.1435 0.48347 0.0
C829 C 0.83923 0.12215 0.48951 0.0
C830 C 0.86815 0.11297 0.4111 0.0
C831 C 0.8728 0.12589 0.44886 0.0
C832 C 0.87407 0.11962 0.39019 0.0
C833 C 0.89828 0.14188 0.385 0.0
C834 C 0.88614 0.12896 0.42673 0.0
C835 C 0.91934 0.1559 0.40094 0.0
C836 C 0.88207 0.14537 0.46329 0.0
C837 C 0.83176 0.10271 0.47484 0.0
N838 N 0.91218 0.14945 0.42109 0.0
N839 N 0.84802 0.10516 0.4551 0.0
H840 H 0.85168 0.83264 0.99046 0.0
H841 H 0.89602 0.90971 0.88517 0.0
H842 H 0.81823 0.91168 0.98091 0.0
H843 H 0.87789 0.82834 0.88646 0.0
H844 H 0.89125 0.91056 0.92324 0.0
H845 H 0.88073 0.8307 0.95468 0.0
C846 C 0.85035 0.84954 0.98088 0.0
C847 C 0.83248 0.87238 0.98875 0.0
C848 C 0.88935 0.89245 0.91522 0.0
C849 C 0.86675 0.87041 0.94817 0.0
C850 C 0.8926 0.89196 0.8936 0.0
C851 C 0.88722 0.86893 0.88292 0.0
C852 C 0.8804 0.86975 0.92606 0.0
C853 C 0.8822 0.84642 0.89434 0.0
C854 C 0.86735 0.84847 0.96058 0.0
C855 C 0.83239 0.89379 0.97572 0.0
N856 N 0.87833 0.84738 0.91538 0.0
N857 N 0.84922 0.89227 0.95612 0.0
H858 H 0.60853 0.62456 0.49546 0.0
H859 H 0.68538 0.62951 0.37595 0.0
H860 H 0.75006 0.62883 0.47569 0.0
H861 H 0.54927 0.60904 0.39667 0.0
H862 H 0.70721 0.63869 0.41215 0.0
H863 H 0.5842 0.6277 0.45917 0.0
C864 C 0.63448 0.62618 0.48346 0.0
C865 C 0.6814 0.62611 0.48858 0.0
C866 C 0.67234 0.63261 0.40873 0.0
C867 C 0.6538 0.6298 0.44697 0.0
C868 C 0.65984 0.62758 0.38811 0.0
C869 C 0.61561 0.61838 0.3835 0.0
C870 C 0.6402 0.62851 0.42473 0.0
C871 C 0.5838 0.61595 0.39972 0.0
C872 C 0.62058 0.62809 0.46276 0.0
C873 C 0.71354 0.62885 0.47243 0.0
N874 N 0.59678 0.6208 0.41963 0.0
N875 N 0.69917 0.63033 0.45233 0.0
H876 H 0.34232 0.66372 0.01309 0.0
H877 H 0.36993 0.60658 0.1259 0.0
H878 H 0.33365 0.58278 0.0237 0.0
H879 H 0.41866 0.681 0.10813 0.0
H880 H 0.36168 0.59546 0.08887 0.0
H881 H 0.37157 0.66942 0.04826 0.0
C882 C 0.34642 0.64712 0.02285 0.0
C883 C 0.33504 0.62278 0.01545 0.0
C884 C 0.37532 0.61398 0.09309 0.0
C885 C 0.36936 0.62912 0.05589 0.0
C886 C 0.38052 0.6202 0.11419 0.0
C887 C 0.39466 0.64479 0.11997 0.0
C888 C 0.38375 0.63268 0.0779 0.0
C889 C 0.4074 0.66189 0.10426 0.0
C890 C 0.36373 0.65034 0.04289 0.0
C891 C 0.34205 0.60191 0.02875 0.0
N892 N 0.4008 0.6557 0.08399 0.0
N893 N 0.3583 0.60558 0.04842 0.0
H894 H 0.15305 0.83209 0.5114 0.0
H895 H 0.15116 0.88385 0.62705 0.0
H896 H 0.18272 0.91075 0.52562 0.0
H897 H 0.09392 0.81163 0.60811 0.0
H898 H 0.15514 0.89669 0.59028 0.0
H899 H 0.126 0.82596 0.54681 0.0
C900 C 0.1539 0.8481 0.52202 0.0
C901 C 0.17085 0.87185 0.51563 0.0
C902 C 0.14075 0.87827 0.59422 0.0
C903 C 0.13945 0.86505 0.5564 0.0
C904 C 0.13819 0.87104 0.61517 0.0
C905 C 0.12289 0.84651 0.62045 0.0
C906 C 0.12825 0.86067 0.57865 0.0
C907 C 0.10657 0.83056 0.60458 0.0
C908 C 0.13797 0.84468 0.54223 0.0
C909 C 0.17008 0.89208 0.52995 0.0
N910 N 0.11036 0.83774 0.58442 0.0
N911 N 0.15524 0.88815 0.54978 0.0
H912 H 0.17431 0.25032 0.37239 0.0
H913 H 0.01678 0.2187 0.27326 0.0
H914 H 0.11285 0.30761 0.33344 0.0
H915 H 0.09985 0.16265 0.30411 0.0
H916 H 0.0462 0.25117 0.29726 0.0
H917 H 0.13995 0.21733 0.35023 0.0
C918 C 0.15325 0.25597 0.35932 0.0
C919 C 0.14689 0.28179 0.35464 0.0
C920 C 0.05788 0.23177 0.29888 0.0
C921 C 0.10808 0.24418 0.32909 0.0
C922 C 0.04106 0.21329 0.28523 0.0
C923 C 0.05607 0.18814 0.28684 0.0
C924 C 0.08926 0.22488 0.31449 0.0
C925 C 0.08788 0.18199 0.30236 0.0
C926 C 0.13402 0.23714 0.34657 0.0
C927 C 0.11946 0.28797 0.33741 0.0
N928 N 0.10325 0.20024 0.31573 0.0
N929 N 0.10125 0.26933 0.32524 0.0
H930 H 0.31171 0.19991 0.82527 0.0
H931 H 0.49268 0.3144 0.81309 0.0
H932 H 0.39857 0.22575 0.87559 0.0
H933 H 0.39313 0.29361 0.76642 0.0
H934 H 0.46004 0.2819 0.8362 0.0
H935 H 0.34291 0.23358 0.80334 0.0
C936 C 0.33761 0.21259 0.83169 0.0
C937 C 0.35274 0.20985 0.8523 0.0
C938 C 0.44509 0.28455 0.82094 0.0
C939 C 0.38834 0.24886 0.82721 0.0
C940 C 0.46369 0.30306 0.80776 0.0
C941 C 0.44504 0.30688 0.78788 0.0
C942 C 0.40804 0.26945 0.81404 0.0
C943 C 0.40767 0.29174 0.78171 0.0
C944 C 0.35517 0.23197 0.81917 0.0
C945 C 0.3857 0.22724 0.85985 0.0
N946 N 0.39058 0.27359 0.79467 0.0
N947 N 0.40255 0.24594 0.84728 0.0
H948 H 0.72333 0.23627 0.65476 0.0
H949 H 0.5155 0.2738 0.72832 0.0
H950 H 0.59196 0.19814 0.65115 0.0
H951 H 0.61344 0.32983 0.70703 0.0
H952 H 0.54906 0.24264 0.70426 0.0
H953 H 0.68947 0.2682 0.67805 0.0
C954 C 0.68714 0.23499 0.65864 0.0
C955 C 0.65999 0.215 0.65092 0.0
C956 C 0.56326 0.26174 0.70492 0.0
C957 C 0.62157 0.2507 0.67772 0.0
C958 C 0.54432 0.27938 0.71864 0.0
C959 C 0.56173 0.30425 0.71935 0.0
C960 C 0.60066 0.26895 0.69238 0.0
C961 C 0.59911 0.31075 0.7067 0.0
C962 C 0.66794 0.25304 0.67192 0.0
C963 C 0.61364 0.21355 0.6567 0.0
N964 N 0.61768 0.29312 0.69378 0.0
N965 N 0.59583 0.23113 0.66989 0.0
H966 H 0.88662 0.26507 0.12717 0.0
H967 H 0.9271 0.21138 0.24141 0.0
H968 H 0.81293 0.29191 0.18107 0.0
H969 H 0.9599 0.1678 0.18655 0.0
H970 H 0.89203 0.24366 0.21946 0.0
H971 H 0.92046 0.23152 0.14859 0.0
C972 C 0.87729 0.26385 0.14343 0.0
C973 C 0.84703 0.28149 0.15232 0.0
C974 C 0.90657 0.22694 0.21222 0.0
C975 C 0.88615 0.24343 0.1769 0.0
C976 C 0.92629 0.20839 0.22476 0.0
C977 C 0.9454 0.18653 0.21583 0.0
C978 C 0.90674 0.22391 0.19054 0.0
C979 C 0.94515 0.18426 0.19408 0.0
C980 C 0.89677 0.24476 0.15564 0.0
C981 C 0.83678 0.27914 0.17358 0.0
N982 N 0.92614 0.20275 0.18214 0.0
N983 N 0.85643 0.26057 0.18513 0.0
H984 H 0.83557 0.69034 0.68251 0.0
H985 H 0.96463 0.82519 0.68838 0.0
H986 H 0.88838 0.73011 0.6288 0.0
H987 H 0.92297 0.78271 0.74264 0.0
H988 H 0.93367 0.79141 0.66638 0.0
H989 H 0.86488 0.72446 0.70468 0.0
C990 C 0.85365 0.70612 0.67533 0.0
C991 C 0.85968 0.70714 0.65366 0.0
C992 C 0.93114 0.78946 0.6831 0.0
C993 C 0.8926 0.74672 0.67912 0.0
C994 C 0.94884 0.80878 0.69573 0.0
C995 C 0.94632 0.80688 0.71749 0.0
C996 C 0.91075 0.76792 0.6922 0.0
C997 C 0.92524 0.78516 0.726 0.0
C998 C 0.87008 0.72573 0.68805 0.0
C999 C 0.88243 0.7285 0.64535 0.0
N1000 N 0.90836 0.76651 0.71334 0.0
N1001 N 0.89804 0.74739 0.65807 0.0
H1002 H 0.59129 0.80702 0.16368 0.0
H1003 H 0.61693 0.66571 0.20736 0.0
H1004 H 0.68674 0.75323 0.13765 0.0
H1005 H 0.50224 0.71444 0.2213 0.0
H1006 H 0.64618 0.69798 0.18306 0.0
H1007 H 0.56079 0.77365 0.18617 0.0
C1008 C 0.6057 0.78812 0.16265 0.0
C1009 C 0.6418 0.78292 0.14887 0.0
C1010 C 0.61459 0.70154 0.19143 0.0
C1011 C 0.607 0.74455 0.17459 0.0
C1012 C 0.59807 0.68324 0.20534 0.0
C1013 C 0.55707 0.68744 0.21622 0.0
C1014 C 0.59027 0.7243 0.18874 0.0
C1015 C 0.53376 0.71035 0.21304 0.0
C1016 C 0.58817 0.76904 0.17544 0.0
C1017 C 0.65873 0.758 0.14798 0.0
N1018 N 0.55082 0.72797 0.19967 0.0
N1019 N 0.64143 0.73975 0.16081 0.0
H1020 H 0.39145 0.76457 0.37839 0.0
H1021 H 0.42479 0.71249 0.26288 0.0
H1022 H 0.31936 0.79477 0.32526 0.0
H1023 H 0.46074 0.66856 0.31709 0.0
H1024 H 0.39109 0.74465 0.28548 0.0
H1025 H 0.42215 0.7308 0.3562 0.0
C1026 C 0.3818 0.76404 0.36213 0.0
C1027 C 0.35301 0.78271 0.35369 0.0
C1028 C 0.40604 0.72788 0.29243 0.0
C1029 C 0.38849 0.74433 0.3282 0.0
C1030 C 0.42504 0.7094 0.27952 0.0
C1031 C 0.44484 0.68751 0.28807 0.0
C1032 C 0.40757 0.72474 0.31409 0.0
C1033 C 0.44557 0.68505 0.30981 0.0
C1034 C 0.39948 0.74481 0.34947 0.0
C1035 C 0.34219 0.78117 0.33241 0.0
N1036 N 0.42732 0.70347 0.32208 0.0
N1037 N 0.36008 0.76243 0.32042 0.0
H1038 H 0.17394 0.68949 0.8213 0.0
H1039 H 0.05269 0.82516 0.81393 0.0
H1040 H 0.12599 0.73153 0.87466 0.0
H1041 H 0.07934 0.7783 0.76017 0.0
H1042 H 0.08385 0.79208 0.83613 0.0
H1043 H 0.14342 0.72249 0.79864 0.0
C1044 C 0.15669 0.70553 0.82831 0.0
C1045 C 0.15236 0.70751 0.85004 0.0
C1046 C 0.08296 0.78897 0.81949 0.0
C1047 C 0.11805 0.74579 0.82398 0.0
C1048 C 0.06515 0.8079 0.80673 0.0
C1049 C 0.06335 0.80458 0.78506 0.0
C1050 C 0.09938 0.7664 0.81064 0.0
C1051 C 0.08032 0.7818 0.77675 0.0
C1052 C 0.13952 0.72448 0.8153 0.0
C1053 C 0.13066 0.72918 0.85808 0.0
N1054 N 0.09762 0.76357 0.78956 0.0
N1055 N 0.11437 0.74742 0.84507 0.0
loop_
_geom_bond_atom_site_label_1
_geom_bond_atom_site_label_2
_geom_bond_distance
_geom_bond_site_symmetry_2
_ccdc_geom_bond_type
C0 C1 1.384 . S
C0 H13 0.947 . S
C0 C35 1.382 . S
C1 C0 1.384 . S
C1 C2 1.378 . S
C2 C1 1.378 . S
C2 C3 1.378 . S
C2 H14 0.952 . S
C3 C2 1.378 . S
C3 H15 0.950 . S
C3 C34 1.383 . S
H4 C23 0.947 . S
H5 C24 0.946 . S
H6 C26 0.953 . S
H7 C27 0.945 . S
H8 C29 0.952 . S
H9 C30 0.949 . S
H10 C32 0.950 . S
H11 C33 0.948 . S
H12 C35 0.951 . S
H13 C0 0.947 . S
H14 C2 0.952 . S
H15 C3 0.950 . S
N16 C19 1.382 . S
N16 C21 1.363 . S
N17 C19 1.371 . S
N17 C20 1.372 . S
N18 C20 1.361 . S
N18 C21 1.377 . S
C19 N16 1.382 . S
C19 N17 1.371 . S
C19 C22 1.480 . S
C20 N17 1.372 . S
C20 N18 1.361 . S
C20 C28 1.457 . S
C21 N16 1.363 . S
C21 N18 1.377 . S
C21 C34 1.479 . S
C22 C19 1.480 . S
C22 C23 1.383 . S
C22 C27 1.385 . S
C23 H4 0.947 . S
C23 C22 1.383 . S
C23 C24 1.388 . S
C24 H5 0.946 . S
C24 C23 1.388 . S
C24 C25 1.384 . S
C25 C24 1.384 . S
C25 C26 1.377 . S
C26 H6 0.953 . S
C26 C25 1.377 . S
C26 C27 1.369 . S
C27 H7 0.945 . S
C27 C22 1.385 . S
C27 C26 1.369 . S
C28 C20 1.457 . S
C28 C29 1.372 . S
C28 C33 1.364 . S
C29 H8 0.952 . S
C29 C28 1.372 . S
C29 C30 1.389 . S
C30 H9 0.949 . S
C30 C29 1.389 . S
C30 C31 1.387 . S
C31 C30 1.387 . S
C31 C32 1.372 . S
C32 H10 0.950 . S
C32 C31 1.372 . S
C32 C33 1.379 . S
C33 H11 0.948 . S
C33 C28 1.364 . S
C33 C32 1.379 . S
C34 C3 1.383 . S
C34 C21 1.479 . S
C34 C35 1.398 . S
C35 C0 1.382 . S
C35 H12 0.951 . S
C35 C34 1.398 . S
C36 C37 1.384 . S
C36 H49 0.947 . S
C36 C71 1.382 . S
C37 C36 1.384 . S
C37 C38 1.378 . S
C38 C37 1.378 . S
C38 C39 1.378 . S
C38 H50 0.952 . S
C39 C38 1.378 . S
C39 H51 0.950 . S
C39 C70 1.383 . S
H40 C59 0.947 . S
H41 C60 0.946 . S
H42 C62 0.953 . S
H43 C63 0.945 . S
H44 C65 0.952 . S
H45 C66 0.949 . S
H46 C68 0.950 . S
H47 C69 0.948 . S
H48 C71 0.951 . S
H49 C36 0.947 . S
H50 C38 0.952 . S
H51 C39 0.950 . S
N52 C55 1.382 . S
N52 C57 1.363 . S
N53 C55 1.371 . S
N53 C56 1.372 . S
N54 C56 1.361 . S
N54 C57 1.377 . S
C55 N52 1.382 . S
C55 N53 1.371 . S
C55 C58 1.480 . S
C56 N53 1.372 . S
C56 N54 1.361 . S
C56 C64 1.457 . S
C57 N52 1.363 . S
C57 N54 1.377 . S
C57 C70 1.479 . S
C58 C55 1.480 . S
C58 C59 1.383 . S
C58 C63 1.385 . S
C59 H40 0.947 . S
C59 C58 1.383 . S
C59 C60 1.388 . S
C60 H41 0.946 . S
C60 C59 1.388 . S
C60 C61 1.384 . S
C61 C60 1.384 . S
C61 C62 1.377 . S
C62 H42 0.953 . S
C62 C61 1.377 . S
C62 C63 1.369 . S
C63 H43 0.945 . S
C63 C58 1.385 . S
C63 C62 1.369 . S
C64 C56 1.457 . S
C64 C65 1.372 . S
C64 C69 1.364 . S
C65 H44 0.952 . S
C65 C64 1.372 . S
C65 C66 1.389 . S
C66 H45 0.949 . S
C66 C65 1.389 . S
C66 C67 1.387 . S
C67 C66 1.387 . S
C67 C68 1.372 . S
C68 H46 0.950 . S
C68 C67 1.372 . S
C68 C69 1.379 . S
C69 H47 0.948 . S
C69 C64 1.364 . S
C69 C68 1.379 . S
C70 C39 1.383 . S
C70 C57 1.479 . S
C70 C71 1.398 . S
C71 C36 1.382 . S
C71 H48 0.951 . S
C71 C70 1.398 . S
C72 C73 1.384 . S
C72 H85 0.947 . S
C72 C107 1.382 . S
C73 C72 1.384 . S
C73 C74 1.378 . S
C74 C73 1.378 . S
C74 C75 1.378 . S
C74 H86 0.952 . S
C75 C74 1.378 . S
C75 H87 0.950 . S
C75 C106 1.383 . S
H76 C95 0.947 . S
H77 C96 0.946 . S
H78 C98 0.953 . S
H79 C99 0.945 . S
H80 C101 0.952 . S
H81 C102 0.949 . S
H82 C104 0.950 . S
H83 C105 0.948 . S
H84 C107 0.951 . S
H85 C72 0.947 . S
H86 C74 0.952 . S
H87 C75 0.950 . S
N88 C91 1.382 . S
N88 C93 1.363 . S
N89 C91 1.371 . S
N89 C92 1.372 . S
N90 C92 1.361 . S
N90 C93 1.377 . S
C91 N88 1.382 . S
C91 N89 1.371 . S
C91 C94 1.480 . S
C92 N89 1.372 . S
C92 N90 1.361 . S
C92 C100 1.457 . S
C93 N88 1.363 . S
C93 N90 1.377 . S
C93 C106 1.479 . S
C94 C91 1.480 . S
C94 C95 1.383 . S
C94 C99 1.385 . S
C95 H76 0.947 . S
C95 C94 1.383 . S
C95 C96 1.388 . S
C96 H77 0.946 . S
C96 C95 1.388 . S
C96 C97 1.384 . S
C97 C96 1.384 . S
C97 C98 1.377 . S
C98 H78 0.953 . S
C98 C97 1.377 . S
C98 C99 1.369 . S
C99 H79 0.945 . S
C99 C94 1.385 . S
C99 C98 1.369 . S
C100 C92 1.457 . S
C100 C101 1.372 . S
C100 C105 1.364 . S
C101 H80 0.952 . S
C101 C100 1.372 . S
C101 C102 1.389 . S
C102 H81 0.949 . S
C102 C101 1.389 . S
C102 C103 1.387 . S
C103 C102 1.387 . S
C103 C104 1.372 . S
C104 H82 0.950 . S
C104 C103 1.372 . S
C104 C105 1.379 . S
C105 H83 0.948 . S
C105 C100 1.364 . S
C105 C104 1.379 . S
C106 C75 1.383 . S
C106 C93 1.479 . S
C106 C107 1.398 . S
C107 C72 1.382 . S
C107 H84 0.951 . S
C107 C106 1.398 . S
C108 C109 1.384 . S
C108 H121 0.947 . S
C108 C143 1.382 . S
C109 C108 1.384 . S
C109 C110 1.378 . S
C110 C109 1.378 . S
C110 C111 1.378 . S
C110 H122 0.952 . S
C111 C110 1.378 . S
C111 H123 0.950 . S
C111 C142 1.383 . S
H112 C131 0.947 . S
H113 C132 0.946 . S
H114 C134 0.953 . S
H115 C135 0.945 . S
H116 C137 0.952 . S
H117 C138 0.949 . S
H118 C140 0.950 . S
H119 C141 0.948 . S
H120 C143 0.951 . S
H121 C108 0.947 . S
H122 C110 0.952 . S
H123 C111 0.950 . S
N124 C127 1.382 . S
N124 C129 1.363 . S
N125 C127 1.371 . S
N125 C128 1.372 . S
N126 C128 1.361 . S
N126 C129 1.377 . S
C127 N124 1.382 . S
C127 N125 1.371 . S
C127 C130 1.480 . S
C128 N125 1.372 . S
C128 N126 1.361 . S
C128 C136 1.457 . S
C129 N124 1.363 . S
C129 N126 1.377 . S
C129 C142 1.479 . S
C130 C127 1.480 . S
C130 C131 1.383 . S
C130 C135 1.385 . S
C131 H112 0.947 . S
C131 C130 1.383 . S
C131 C132 1.388 . S
C132 H113 0.946 . S
C132 C131 1.388 . S
C132 C133 1.384 . S
C133 C132 1.384 . S
C133 C134 1.377 . S
C134 H114 0.953 . S
C134 C133 1.377 . S
C134 C135 1.369 . S
C135 H115 0.945 . S
C135 C130 1.385 . S
C135 C134 1.369 . S
C136 C128 1.457 . S
C136 C137 1.372 . S
C136 C141 1.364 . S
C137 H116 0.952 . S
C137 C136 1.372 . S
C137 C138 1.389 . S
C138 H117 0.949 . S
C138 C137 1.389 . S
C138 C139 1.387 . S
C139 C138 1.387 . S
C139 C140 1.372 . S
C140 H118 0.950 . S
C140 C139 1.372 . S
C140 C141 1.379 . S
C141 H119 0.948 . S
C141 C136 1.364 . S
C141 C140 1.379 . S
C142 C111 1.383 . S
C142 C129 1.479 . S
C142 C143 1.398 . S
C143 C108 1.382 . S
C143 H120 0.951 . S
C143 C142 1.398 . S
C144 C145 1.384 . S
C144 H157 0.947 . S
C144 C179 1.382 . S
C145 C144 1.384 . S
C145 C146 1.378 . S
C146 C145 1.378 . S
C146 C147 1.378 . S
C146 H158 0.952 . S
C147 C146 1.378 . S
C147 H159 0.950 . S
C147 C178 1.383 . S
H148 C167 0.947 . S
H149 C168 0.946 . S
H150 C170 0.953 . S
H151 C171 0.945 . S
H152 C173 0.952 . S
H153 C174 0.949 . S
H154 C176 0.950 . S
H155 C177 0.948 . S
H156 C179 0.951 . S
H157 C144 0.947 . S
H158 C146 0.952 . S
H159 C147 0.950 . S
N160 C163 1.382 . S
N160 C165 1.363 . S
N161 C163 1.371 . S
N161 C164 1.372 . S
N162 C164 1.361 . S
N162 C165 1.377 . S
C163 N160 1.382 . S
C163 N161 1.371 . S
C163 C166 1.480 . S
C164 N161 1.372 . S
C164 N162 1.361 . S
C164 C172 1.457 . S
C165 N160 1.363 . S
C165 N162 1.377 . S
C165 C178 1.479 . S
C166 C163 1.480 . S
C166 C167 1.383 . S
C166 C171 1.385 . S
C167 H148 0.947 . S
C167 C166 1.383 . S
C167 C168 1.388 . S
C168 H149 0.946 . S
C168 C167 1.388 . S
C168 C169 1.384 . S
C169 C168 1.384 . S
C169 C170 1.377 . S
C170 H150 0.953 . S
C170 C169 1.377 . S
C170 C171 1.369 . S
C171 H151 0.945 . S
C171 C166 1.385 . S
C171 C170 1.369 . S
C172 C164 1.457 . S
C172 C173 1.372 . S
C172 C177 1.364 . S
C173 H152 0.952 . S
C173 C172 1.372 . S
C173 C174 1.389 . S
C174 H153 0.949 . S
C174 C173 1.389 . S
C174 C175 1.387 . S
C175 C174 1.387 . S
C175 C176 1.372 . S
C176 H154 0.950 . S
C176 C175 1.372 . S
C176 C177 1.379 . S
C177 H155 0.948 . S
C177 C172 1.364 . S
C177 C176 1.379 . S
C178 C147 1.383 . S
C178 C165 1.479 . S
C178 C179 1.398 . S
C179 C144 1.382 . S
C179 H156 0.951 . S
C179 C178 1.398 . S
C180 C181 1.384 . S
C180 H193 0.947 . S
C180 C215 1.382 . S
C181 C180 1.384 . S
C181 C182 1.378 . S
C182 C181 1.378 . S
C182 C183 1.378 . S
C182 H194 0.952 . S
C183 C182 1.378 . S
C183 H195 0.950 . S
C183 C214 1.383 . S
H184 C203 0.947 . S
H185 C204 0.946 . S
H186 C206 0.953 . S
H187 C207 0.945 . S
H188 C209 0.952 . S
H189 C210 0.949 . S
H190 C212 0.950 . S
H191 C213 0.948 . S
H192 C215 0.951 . S
H193 C180 0.947 . S
H194 C182 0.952 . S
H195 C183 0.950 . S
N196 C199 1.382 . S
N196 C201 1.363 . S
N197 C199 1.371 . S
N197 C200 1.372 . S
N198 C200 1.361 . S
N198 C201 1.377 . S
C199 N196 1.382 . S
C199 N197 1.371 . S
C199 C202 1.480 . S
C200 N197 1.372 . S
C200 N198 1.361 . S
C200 C208 1.457 . S
C201 N196 1.363 . S
C201 N198 1.377 . S
C201 C214 1.479 . S
C202 C199 1.480 . S
C202 C203 1.383 . S
C202 C207 1.385 . S
C203 H184 0.947 . S
C203 C202 1.383 . S
C203 C204 1.388 . S
C204 H185 0.946 . S
C204 C203 1.388 . S
C204 C205 1.384 . S
C205 C204 1.384 . S
C205 C206 1.377 . S
C206 H186 0.953 . S
C206 C205 1.377 . S
C206 C207 1.369 . S
C207 H187 0.945 . S
C207 C202 1.385 . S
C207 C206 1.369 . S
C208 C200 1.457 . S
C208 C209 1.372 . S
C208 C213 1.364 . S
C209 H188 0.952 . S
C209 C208 1.372 . S
C209 C210 1.389 . S
C210 H189 0.949 . S
C210 C209 1.389 . S
C210 C211 1.387 . S
C211 C210 1.387 . S
C211 C212 1.372 . S
C212 H190 0.950 . S
C212 C211 1.372 . S
C212 C213 1.379 . S
C213 H191 0.948 . S
C213 C208 1.364 . S
C213 C212 1.379 . S
C214 C183 1.383 . S
C214 C201 1.479 . S
C214 C215 1.398 . S
C215 C180 1.382 . S
C215 H192 0.951 . S
C215 C214 1.398 . S
C216 C217 1.384 . S
C216 H229 0.947 . S
C216 C251 1.382 . S
C217 C216 1.384 . S
C217 C218 1.378 . S
C218 C217 1.378 . S
C218 C219 1.378 . S
C218 H230 0.952 . S
C219 C218 1.378 . S
C219 H231 0.950 . S
C219 C250 1.383 . S
H220 C239 0.947 . S
H221 C240 0.946 . S
H222 C242 0.953 . S
H223 C243 0.945 . S
H224 C245 0.952 . S
H225 C246 0.949 . S
H226 C248 0.950 . S
H227 C249 0.948 . S
H228 C251 0.951 . S
H229 C216 0.947 . S
H230 C218 0.952 . S
H231 C219 0.950 . S
N232 C235 1.382 . S
N232 C237 1.363 . S
N233 C235 1.371 . S
N233 C236 1.372 . S
N234 C236 1.361 . S
N234 C237 1.377 . S
C235 N232 1.382 . S
C235 N233 1.371 . S
C235 C238 1.480 . S
C236 N233 1.372 . S
C236 N234 1.361 . S
C236 C244 1.457 . S
C237 N232 1.363 . S
C237 N234 1.377 . S
C237 C250 1.479 . S
C238 C235 1.480 . S
C238 C239 1.383 . S
C238 C243 1.385 . S
C239 H220 0.947 . S
C239 C238 1.383 . S
C239 C240 1.388 . S
C240 H221 0.946 . S
C240 C239 1.388 . S
C240 C241 1.384 . S
C241 C240 1.384 . S
C241 C242 1.377 . S
C242 H222 0.953 . S
C242 C241 1.377 . S
C242 C243 1.369 . S
C243 H223 0.945 . S
C243 C238 1.385 . S
C243 C242 1.369 . S
C244 C236 1.457 . S
C244 C245 1.372 . S
C244 C249 1.364 . S
C245 H224 0.952 . S
C245 C244 1.372 . S
C245 C246 1.389 . S
C246 H225 0.949 . S
C246 C245 1.389 . S
C246 C247 1.387 . S
C247 C246 1.387 . S
C247 C248 1.372 . S
C248 H226 0.950 . S
C248 C247 1.372 . S
C248 C249 1.379 . S
C249 H227 0.948 . S
C249 C244 1.364 . S
C249 C248 1.379 . S
C250 C219 1.383 . S
C250 C237 1.479 . S
C250 C251 1.398 . S
C251 C216 1.382 . S
C251 H228 0.951 . S
C251 C250 1.398 . S
C252 C253 1.384 . S
C252 H265 0.947 . S
C252 C287 1.382 . S
C253 C252 1.384 . S
C253 C254 1.378 . S
C254 C253 1.378 . S
C254 C255 1.378 . S
C254 H266 0.952 . S
C255 C254 1.378 . S
C255 H267 0.950 . S
C255 C286 1.383 . S
H256 C275 0.947 . S
H257 C276 0.946 . S
H258 C278 0.953 . S
H259 C279 0.945 . S
H260 C281 0.952 . S
H261 C282 0.949 . S
H262 C284 0.950 . S
H263 C285 0.948 . S
H264 C287 0.951 . S
H265 C252 0.947 . S
H266 C254 0.952 . S
H267 C255 0.950 . S
N268 C271 1.382 . S
N268 C273 1.363 . S
N269 C271 1.371 . S
N269 C272 1.372 . S
N270 C272 1.361 . S
N270 C273 1.377 . S
C271 N268 1.382 . S
C271 N269 1.371 . S
C271 C274 1.480 . S
C272 N269 1.372 . S
C272 N270 1.361 . S
C272 C280 1.457 . S
C273 N268 1.363 . S
C273 N270 1.377 . S
C273 C286 1.479 . S
C274 C271 1.480 . S
C274 C275 1.383 . S
C274 C279 1.385 . S
C275 H256 0.947 . S
C275 C274 1.383 . S
C275 C276 1.388 . S
C276 H257 0.946 . S
C276 C275 1.388 . S
C276 C277 1.384 . S
C277 C276 1.384 . S
C277 C278 1.377 . S
C278 H258 0.953 . S
C278 C277 1.377 . S
C278 C279 1.369 . S
C279 H259 0.945 . S
C279 C274 1.385 . S
C279 C278 1.369 . S
C280 C272 1.457 . S
C280 C281 1.372 . S
C280 C285 1.364 . S
C281 H260 0.952 . S
C281 C280 1.372 . S
C281 C282 1.389 . S
C282 H261 0.949 . S
C282 C281 1.389 . S
C282 C283 1.387 . S
C283 C282 1.387 . S
C283 C284 1.372 . S
C284 H262 0.950 . S
C284 C283 1.372 . S
C284 C285 1.379 . S
C285 H263 0.948 . S
C285 C280 1.364 . S
C285 C284 1.379 . S
C286 C255 1.383 . S
C286 C273 1.479 . S
C286 C287 1.398 . S
C287 C252 1.382 . S
C287 H264 0.951 . S
C287 C286 1.398 . S
Tb288 N317 2.617 . S
Tb288 N323 2.572 . S
Tb288 O332 2.465 . S
Tb288 O333 2.387 . S
Tb288 O335 2.428 . S
Tb288 O336 2.315 . S
Tb288 O340 2.349 . S
Tb288 O343 2.393 . S
Tb288 C352 2.802 . S
C289 N290 1.379 . S
C289 C292 1.416 . S
C289 C296 1.424 . S
N290 C289 1.379 . S
N290 C293 1.334 . S
N290 Tb299 2.617 . S
C291 C293 1.390 . S
C291 C294 1.339 . S
C291 H311 0.930 . S
C292 C289 1.416 . S
C292 C294 1.416 . S
C292 C298 1.448 . S
C293 N290 1.334 . S
C293 C291 1.390 . S
C293 H304 0.930 . S
C294 C291 1.339 . S
C294 C292 1.416 . S
C294 H315 0.930 . S
C295 C296 1.413 . S
C295 C297 1.427 . S
C295 C301 1.416 . S
C296 C289 1.424 . S
C296 C295 1.413 . S
C296 N300 1.361 . S
C297 C295 1.427 . S
C297 C298 1.328 . S
C297 H312 0.929 . S
C298 C292 1.448 . S
C298 C297 1.328 . S
C298 H313 0.930 . S
Tb299 N290 2.617 . S
Tb299 N300 2.572 . S
Tb299 O334 2.345 1_655 S
Tb299 O337 2.393 . S
Tb299 O338 2.465 . S
Tb299 O339 2.387 . S
Tb299 O341 2.428 . S
Tb299 O342 2.308 1_655 S
Tb299 C363 2.802 . S
N300 C296 1.361 . S
N300 Tb299 2.572 . S
N300 C302 1.340 . S
C301 C295 1.416 . S
C301 C303 1.332 . S
C301 H309 0.931 . S
C302 N300 1.340 . S
C302 C303 1.407 . S
C302 H308 0.930 . S
C303 C301 1.332 . S
C303 C302 1.407 . S
C303 H305 0.929 . S
H304 C293 0.930 . S
H305 C303 0.929 . S
H306 C321 0.930 . S
H307 C328 0.929 . S
H308 C302 0.930 . S
H309 C301 0.931 . S
H310 C324 0.930 . S
H311 C291 0.930 . S
H312 C297 0.929 . S
H313 C298 0.930 . S
H314 C319 0.930 . S
H315 C294 0.930 . S
H316 C327 0.931 . S
N317 Tb288 2.617 . S
N317 C318 1.379 . S
N317 C321 1.334 . S
C318 N317 1.379 . S
C318 C320 1.416 . S
C318 C326 1.424 . S
C319 H314 0.930 . S
C319 C321 1.390 . S
C319 C322 1.339 . S
C320 C318 1.416 . S
C320 C322 1.416 . S
C320 C353 1.448 . S
C321 H306 0.930 . S
C321 N317 1.334 . S
C321 C319 1.390 . S
C322 C319 1.339 . S
C322 C320 1.416 . S
C322 H329 0.930 . S
N323 Tb288 2.572 . S
N323 C324 1.340 . S
N323 C326 1.361 . S
C324 H310 0.930 . S
C324 N323 1.340 . S
C324 C328 1.407 . S
C325 C326 1.413 . S
C325 C327 1.416 . S
C325 C354 1.427 . S
C326 C318 1.424 . S
C326 N323 1.361 . S
C326 C325 1.413 . S
C327 H316 0.931 . S
C327 C325 1.416 . S
C327 C328 1.332 . S
C328 H307 0.929 . S
C328 C324 1.407 . S
C328 C327 1.332 . S
H329 C322 0.930 . S
H330 C353 0.930 . S
H331 C354 0.929 . S
O332 Tb288 2.465 . S
O332 C352 1.264 . S
O333 Tb288 2.387 . S
O333 C344 1.264 . S
O334 Tb299 2.345 1_455 S
O334 C344 1.248 . S
O335 Tb288 2.428 . S
O335 C352 1.256 . S
O336 Tb288 2.315 . S
O336 C351 1.258 1_455 S
O337 Tb299 2.393 . S
O337 C351 1.248 . S
O338 Tb299 2.465 . S
O338 C363 1.264 . S
O339 Tb299 2.387 . S
O339 C355 1.264 . S
O340 Tb288 2.349 . S
O340 C355 1.243 1_455 S
O341 Tb299 2.428 . S
O341 C363 1.256 . S
O342 Tb299 2.308 1_455 S
O342 C362 1.266 . S
O343 Tb288 2.393 . S
O343 C362 1.248 . S
C344 O333 1.264 . S
C344 O334 1.248 . S
C345 C348 1.399 . S
C345 C350 1.383 . S
C345 C352 1.496 . S
C346 C347 1.399 . S
C346 C350 1.389 . S
C347 C346 1.399 . S
C347 C349 1.380 . S
C347 H364 0.929 . S
C348 C345 1.399 . S
C348 C349 1.392 . S
C348 H365 0.929 . S
C349 C347 1.380 . S
C349 C348 1.392 . S
C349 H366 0.929 . S
C350 C345 1.383 . S
C350 C346 1.389 . S
C350 H367 0.931 . S
C351 O336 1.258 1_655 S
C351 O337 1.248 . S
C352 Tb288 2.802 . S
C352 O332 1.264 . S
C352 O335 1.256 . S
C352 C345 1.496 . S
C353 C320 1.448 . S
C353 H330 0.930 . S
C353 C354 1.328 . S
C354 C325 1.427 . S
C354 H331 0.929 . S
C354 C353 1.328 . S
C355 O339 1.264 . S
C355 O340 1.243 1_655 S
C356 C359 1.399 . S
C356 C360 1.383 . S
C356 C363 1.496 . S
C357 C358 1.399 . S
C357 C360 1.389 . S
C358 C357 1.399 . S
C358 C361 1.380 . S
C358 H368 0.929 . S
C359 C356 1.399 . S
C359 C361 1.392 . S
C359 H369 0.929 . S
C360 C356 1.383 . S
C360 C357 1.389 . S
C360 H370 0.931 . S
C361 C358 1.380 . S
C361 C359 1.392 . S
C361 H371 0.929 . S
C362 O342 1.266 . S
C362 O343 1.248 . S
C363 Tb299 2.802 . S
C363 O338 1.264 . S
C363 O341 1.256 . S
C363 C356 1.496 . S
H364 C347 0.929 . S
H365 C348 0.929 . S
H366 C349 0.929 . S
H367 C350 0.931 . S
H368 C358 0.929 . S
H369 C359 0.929 . S
H370 C360 0.931 . S
H371 C361 0.929 . S
Tb372 N401 2.617 . S
Tb372 N407 2.572 . S
Tb372 O416 2.465 . S
Tb372 O417 2.387 . S
Tb372 O419 2.428 . S
Tb372 O420 2.308 . S
Tb372 O424 2.349 . S
Tb372 O427 2.393 . S
Tb372 C436 2.802 . S
C373 N374 1.379 . S
C373 C376 1.416 . S
C373 C380 1.424 . S
N374 C373 1.379 . S
N374 C377 1.334 . S
N374 Tb383 2.617 . S
C375 C377 1.390 . S
C375 C378 1.339 . S
C375 H395 0.930 . S
C376 C373 1.416 . S
C376 C378 1.416 . S
C376 C382 1.448 . S
C377 N374 1.334 . S
C377 C375 1.390 . S
C377 H388 0.930 . S
C378 C375 1.339 . S
C378 C376 1.416 . S
C378 H399 0.930 . S
C379 C380 1.413 . S
C379 C381 1.427 . S
C379 C385 1.416 . S
C380 C373 1.424 . S
C380 C379 1.413 . S
C380 N384 1.361 . S
C381 C379 1.427 . S
C381 C382 1.328 . S
C381 H396 0.929 . S
C382 C376 1.448 . S
C382 C381 1.328 . S
C382 H397 0.930 . S
Tb383 N374 2.617 . S
Tb383 N384 2.572 . S
Tb383 O418 2.349 . S
Tb383 O421 2.393 . S
Tb383 O422 2.465 . S
Tb383 O423 2.387 . S
Tb383 O425 2.428 . S
Tb383 O426 2.308 . S
Tb383 C447 2.802 . S
N384 C380 1.361 . S
N384 Tb383 2.572 . S
N384 C386 1.340 . S
C385 C379 1.416 . S
C385 C387 1.332 . S
C385 H393 0.931 . S
C386 N384 1.340 . S
C386 C387 1.407 . S
C386 H392 0.930 . S
C387 C385 1.332 . S
C387 C386 1.407 . S
C387 H389 0.929 . S
H388 C377 0.930 . S
H389 C387 0.929 . S
H390 C405 0.930 . S
H391 C412 0.929 . S
H392 C386 0.930 . S
H393 C385 0.931 . S
H394 C408 0.930 . S
H395 C375 0.930 . S
H396 C381 0.929 . S
H397 C382 0.930 . S
H398 C403 0.930 . S
H399 C378 0.930 . S
H400 C411 0.931 . S
N401 Tb372 2.617 . S
N401 C402 1.379 . S
N401 C405 1.334 . S
C402 N401 1.379 . S
C402 C404 1.416 . S
C402 C410 1.424 . S
C403 H398 0.930 . S
C403 C405 1.390 . S
C403 C406 1.339 . S
C404 C402 1.416 . S
C404 C406 1.416 . S
C404 C437 1.448 . S
C405 H390 0.930 . S
C405 N401 1.334 . S
C405 C403 1.390 . S
C406 C403 1.339 . S
C406 C404 1.416 . S
C406 H413 0.930 . S
N407 Tb372 2.572 . S
N407 C408 1.340 . S
N407 C410 1.361 . S
C408 H394 0.930 . S
C408 N407 1.340 . S
C408 C412 1.407 . S
C409 C410 1.413 . S
C409 C411 1.416 . S
C409 C438 1.427 . S
C410 C402 1.424 . S
C410 N407 1.361 . S
C410 C409 1.413 . S
C411 H400 0.931 . S
C411 C409 1.416 . S
C411 C412 1.332 . S
C412 H391 0.929 . S
C412 C408 1.407 . S
C412 C411 1.332 . S
H413 C406 0.930 . S
H414 C437 0.930 . S
H415 C438 0.929 . S
O416 Tb372 2.465 . S
O416 C436 1.264 . S
O417 Tb372 2.387 . S
O417 C428 1.264 . S
O418 Tb383 2.349 . S
O418 C428 1.243 . S
O419 Tb372 2.428 . S
O419 C436 1.256 . S
O420 Tb372 2.308 . S
O420 C435 1.266 . S
O421 Tb383 2.393 . S
O421 C435 1.248 . S
O422 Tb383 2.465 . S
O422 C447 1.264 . S
O423 Tb383 2.387 . S
O423 C439 1.264 . S
O424 Tb372 2.349 . S
O424 C439 1.243 . S
O425 Tb383 2.428 . S
O425 C447 1.256 . S
O426 Tb383 2.308 . S
O426 C446 1.266 . S
O427 Tb372 2.393 . S
O427 C446 1.248 . S
C428 O417 1.264 . S
C428 O418 1.243 . S
C429 C432 1.399 . S
C429 C434 1.383 . S
C429 C436 1.496 . S
C430 C431 1.399 . S
C430 C434 1.389 . S
C431 C430 1.399 . S
C431 C433 1.380 . S
C431 H448 0.929 . S
C432 C429 1.399 . S
C432 C433 1.392 . S
C432 H449 0.929 . S
C433 C431 1.380 . S
C433 C432 1.392 . S
C433 H450 0.929 . S
C434 C429 1.383 . S
C434 C430 1.389 . S
C434 H451 0.931 . S
C435 O420 1.266 . S
C435 O421 1.248 . S
C436 Tb372 2.802 . S
C436 O416 1.264 . S
C436 O419 1.256 . S
C436 C429 1.496 . S
C437 C404 1.448 . S
C437 H414 0.930 . S
C437 C438 1.328 . S
C438 C409 1.427 . S
C438 H415 0.929 . S
C438 C437 1.328 . S
C439 O423 1.264 . S
C439 O424 1.243 . S
C440 C443 1.399 . S
C440 C444 1.383 . S
C440 C447 1.496 . S
C441 C442 1.399 . S
C441 C444 1.389 . S
C442 C441 1.399 . S
C442 C445 1.380 . S
C442 H452 0.929 . S
C443 C440 1.399 . S
C443 C445 1.392 . S
C443 H453 0.929 . S
C444 C440 1.383 . S
C444 C441 1.389 . S
C444 H454 0.931 . S
C445 C442 1.380 . S
C445 C443 1.392 . S
C445 H455 0.929 . S
C446 O426 1.266 . S
C446 O427 1.248 . S
C447 Tb383 2.802 . S
C447 O422 1.264 . S
C447 O425 1.256 . S
C447 C440 1.496 . S
H448 C431 0.929 . S
H449 C432 0.929 . S
H450 C433 0.929 . S
H451 C434 0.931 . S
H452 C442 0.929 . S
H453 C443 0.929 . S
H454 C444 0.931 . S
H455 C445 0.929 . S
Tb456 N485 2.617 . S
Tb456 N491 2.572 . S
Tb456 O500 2.465 . S
Tb456 O501 2.387 . S
Tb456 O503 2.428 . S
Tb456 O504 2.308 . S
Tb456 O508 2.349 . S
Tb456 O511 2.393 . S
Tb456 C520 2.802 . S
C457 N458 1.379 . S
C457 C460 1.416 . S
C457 C464 1.424 . S
N458 C457 1.379 . S
N458 C461 1.334 . S
N458 Tb467 2.617 . S
C459 C461 1.390 . S
C459 C462 1.339 . S
C459 H479 0.930 . S
C460 C457 1.416 . S
C460 C462 1.416 . S
C460 C466 1.448 . S
C461 N458 1.334 . S
C461 C459 1.390 . S
C461 H472 0.930 . S
C462 C459 1.339 . S
C462 C460 1.416 . S
C462 H483 0.930 . S
C463 C464 1.413 . S
C463 C465 1.427 . S
C463 C469 1.416 . S
C464 C457 1.424 . S
C464 C463 1.413 . S
C464 N468 1.361 . S
C465 C463 1.427 . S
C465 C466 1.328 . S
C465 H480 0.929 . S
C466 C460 1.448 . S
C466 C465 1.328 . S
C466 H481 0.930 . S
Tb467 N458 2.617 . S
Tb467 N468 2.572 . S
Tb467 O502 2.349 1_655 S
Tb467 O505 2.393 . S
Tb467 O506 2.465 . S
Tb467 O507 2.387 . S
Tb467 O509 2.428 . S
Tb467 O510 2.308 1_655 S
Tb467 C531 2.802 . S
N468 C464 1.361 . S
N468 Tb467 2.572 . S
N468 C470 1.340 . S
C469 C463 1.416 . S
C469 C471 1.332 . S
C469 H477 0.931 . S
C470 N468 1.340 . S
C470 C471 1.407 . S
C470 H476 0.930 . S
C471 C469 1.332 . S
C471 C470 1.407 . S
C471 H473 0.929 . S
H472 C461 0.930 . S
H473 C471 0.929 . S
H474 C489 0.930 . S
H475 C496 0.929 . S
H476 C470 0.930 . S
H477 C469 0.931 . S
H478 C492 0.930 . S
H479 C459 0.930 . S
H480 C465 0.929 . S
H481 C466 0.930 . S
H482 C487 0.930 . S
H483 C462 0.930 . S
H484 C495 0.931 . S
N485 Tb456 2.617 . S
N485 C486 1.379 . S
N485 C489 1.334 . S
C486 N485 1.379 . S
C486 C488 1.416 . S
C486 C494 1.424 . S
C487 H482 0.930 . S
C487 C489 1.390 . S
C487 C490 1.339 . S
C488 C486 1.416 . S
C488 C490 1.416 . S
C488 C521 1.448 . S
C489 H474 0.930 . S
C489 N485 1.334 . S
C489 C487 1.390 . S
C490 C487 1.339 . S
C490 C488 1.416 . S
C490 H497 0.930 . S
N491 Tb456 2.572 . S
N491 C492 1.340 . S
N491 C494 1.361 . S
C492 H478 0.930 . S
C492 N491 1.340 . S
C492 C496 1.407 . S
C493 C494 1.413 . S
C493 C495 1.416 . S
C493 C522 1.427 . S
C494 C486 1.424 . S
C494 N491 1.361 . S
C494 C493 1.413 . S
C495 H484 0.931 . S
C495 C493 1.416 . S
C495 C496 1.332 . S
C496 H475 0.929 . S
C496 C492 1.407 . S
C496 C495 1.332 . S
H497 C490 0.930 . S
H498 C521 0.930 . S
H499 C522 0.929 . S
O500 Tb456 2.465 . S
O500 C520 1.264 . S
O501 Tb456 2.387 . S
O501 C512 1.264 . S
O502 Tb467 2.349 1_455 S
O502 C512 1.243 . S
O503 Tb456 2.428 . S
O503 C520 1.256 . S
O504 Tb456 2.308 . S
O504 C519 1.266 1_455 S
O505 Tb467 2.393 . S
O505 C519 1.248 . S
O506 Tb467 2.465 . S
O506 C531 1.264 . S
O507 Tb467 2.387 . S
O507 C523 1.264 . S
O508 Tb456 2.349 . S
O508 C523 1.243 1_455 S
O509 Tb467 2.428 . S
O509 C531 1.256 . S
O510 Tb467 2.308 1_455 S
O510 C530 1.266 . S
O511 Tb456 2.393 . S
O511 C530 1.248 . S
C512 O501 1.264 . S
C512 O502 1.243 . S
C513 C516 1.399 . S
C513 C518 1.383 . S
C513 C520 1.496 . S
C514 C515 1.399 . S
C514 C518 1.389 . S
C515 C514 1.399 . S
C515 C517 1.380 . S
C515 H532 0.929 . S
C516 C513 1.399 . S
C516 C517 1.392 . S
C516 H533 0.929 . S
C517 C515 1.380 . S
C517 C516 1.392 . S
C517 H534 0.929 . S
C518 C513 1.383 . S
C518 C514 1.389 . S
C518 H535 0.931 . S
C519 O504 1.266 1_655 S
C519 O505 1.248 . S
C520 Tb456 2.802 . S
C520 O500 1.264 . S
C520 O503 1.256 . S
C520 C513 1.496 . S
C521 C488 1.448 . S
C521 H498 0.930 . S
C521 C522 1.328 . S
C522 C493 1.427 . S
C522 H499 0.929 . S
C522 C521 1.328 . S
C523 O507 1.264 . S
C523 O508 1.243 1_655 S
C524 C527 1.399 . S
C524 C528 1.383 . S
C524 C531 1.496 . S
C525 C526 1.399 . S
C525 C528 1.389 . S
C526 C525 1.399 . S
C526 C529 1.380 . S
C526 H536 0.929 . S
C527 C524 1.399 . S
C527 C529 1.392 . S
C527 H537 0.929 . S
C528 C524 1.383 . S
C528 C525 1.389 . S
C528 H538 0.931 . S
C529 C526 1.380 . S
C529 C527 1.392 . S
C529 H539 0.929 . S
C530 O510 1.266 . S
C530 O511 1.248 . S
C531 Tb467 2.802 . S
C531 O506 1.264 . S
C531 O509 1.256 . S
C531 C524 1.496 . S
H532 C515 0.929 . S
H533 C516 0.929 . S
H534 C517 0.929 . S
H535 C518 0.931 . S
H536 C526 0.929 . S
H537 C527 0.929 . S
H538 C528 0.931 . S
H539 C529 0.929 . S
Tb540 N569 2.617 . S
Tb540 N575 2.572 . S
Tb540 O584 2.465 . S
Tb540 O585 2.387 . S
Tb540 O587 2.428 . S
Tb540 O588 2.308 . S
Tb540 O592 2.349 . S
Tb540 O595 2.393 . S
Tb540 C604 2.802 . S
C541 N542 1.379 . S
C541 C544 1.416 . S
C541 C548 1.424 . S
N542 C541 1.379 . S
N542 C545 1.334 . S
N542 Tb551 2.617 . S
C543 C545 1.390 . S
C543 C546 1.339 . S
C543 H563 0.930 . S
C544 C541 1.416 . S
C544 C546 1.416 . S
C544 C550 1.448 . S
C545 N542 1.334 . S
C545 C543 1.390 . S
C545 H556 0.930 . S
C546 C543 1.339 . S
C546 C544 1.416 . S
C546 H567 0.930 . S
C547 C548 1.413 . S
C547 C549 1.427 . S
C547 C553 1.416 . S
C548 C541 1.424 . S
C548 C547 1.413 . S
C548 N552 1.361 . S
C549 C547 1.427 . S
C549 C550 1.328 . S
C549 H564 0.929 . S
C550 C544 1.448 . S
C550 C549 1.328 . S
C550 H565 0.930 . S
Tb551 N542 2.617 . S
Tb551 N552 2.572 . S
Tb551 O586 2.349 . S
Tb551 O589 2.393 . S
Tb551 O590 2.465 . S
Tb551 O591 2.387 . S
Tb551 O593 2.428 . S
Tb551 O594 2.308 . S
Tb551 C615 2.802 . S
N552 C548 1.361 . S
N552 Tb551 2.572 . S
N552 C554 1.340 . S
C553 C547 1.416 . S
C553 C555 1.332 . S
C553 H561 0.931 . S
C554 N552 1.340 . S
C554 C555 1.407 . S
C554 H560 0.930 . S
C555 C553 1.332 . S
C555 C554 1.407 . S
C555 H557 0.929 . S
H556 C545 0.930 . S
H557 C555 0.929 . S
H558 C573 0.930 . S
H559 C580 0.929 . S
H560 C554 0.930 . S
H561 C553 0.931 . S
H562 C576 0.930 . S
H563 C543 0.930 . S
H564 C549 0.929 . S
H565 C550 0.930 . S
H566 C571 0.930 . S
H567 C546 0.930 . S
H568 C579 0.931 . S
N569 Tb540 2.617 . S
N569 C570 1.379 . S
N569 C573 1.334 . S
C570 N569 1.379 . S
C570 C572 1.416 . S
C570 C578 1.424 . S
C571 H566 0.930 . S
C571 C573 1.390 . S
C571 C574 1.339 . S
C572 C570 1.416 . S
C572 C574 1.416 . S
C572 C605 1.448 . S
C573 H558 0.930 . S
C573 N569 1.334 . S
C573 C571 1.390 . S
C574 C571 1.339 . S
C574 C572 1.416 . S
C574 H581 0.930 . S
N575 Tb540 2.572 . S
N575 C576 1.340 . S
N575 C578 1.361 . S
C576 H562 0.930 . S
C576 N575 1.340 . S
C576 C580 1.407 . S
C577 C578 1.413 . S
C577 C579 1.416 . S
C577 C606 1.427 . S
C578 C570 1.424 . S
C578 N575 1.361 . S
C578 C577 1.413 . S
C579 H568 0.931 . S
C579 C577 1.416 . S
C579 C580 1.332 . S
C580 H559 0.929 . S
C580 C576 1.407 . S
C580 C579 1.332 . S
H581 C574 0.930 . S
H582 C605 0.930 . S
H583 C606 0.929 . S
O584 Tb540 2.465 . S
O584 C604 1.264 . S
O585 Tb540 2.387 . S
O585 C596 1.264 . S
O586 Tb551 2.349 . S
O586 C596 1.243 . S
O587 Tb540 2.428 . S
O587 C604 1.256 . S
O588 Tb540 2.308 . S
O588 C603 1.266 . S
O589 Tb551 2.393 . S
O589 C603 1.248 . S
O590 Tb551 2.465 . S
O590 C615 1.264 . S
O591 Tb551 2.387 . S
O591 C607 1.264 . S
O592 Tb540 2.349 . S
O592 C607 1.243 . S
O593 Tb551 2.428 . S
O593 C615 1.256 . S
O594 Tb551 2.308 . S
O594 C614 1.266 . S
O595 Tb540 2.393 . S
O595 C614 1.248 . S
C596 O585 1.264 . S
C596 O586 1.243 . S
C597 C600 1.399 . S
C597 C602 1.383 . S
C597 C604 1.496 . S
C598 C599 1.399 . S
C598 C602 1.389 . S
C599 C598 1.399 . S
C599 C601 1.380 . S
C599 H616 0.929 . S
C600 C597 1.399 . S
C600 C601 1.392 . S
C600 H617 0.929 . S
C601 C599 1.380 . S
C601 C600 1.392 . S
C601 H618 0.929 . S
C602 C597 1.383 . S
C602 C598 1.389 . S
C602 H619 0.931 . S
C603 O588 1.266 . S
C603 O589 1.248 . S
C604 Tb540 2.802 . S
C604 O584 1.264 . S
C604 O587 1.256 . S
C604 C597 1.496 . S
C605 C572 1.448 . S
C605 H582 0.930 . S
C605 C606 1.328 . S
C606 C577 1.427 . S
C606 H583 0.929 . S
C606 C605 1.328 . S
C607 O591 1.264 . S
C607 O592 1.243 . S
C608 C611 1.399 . S
C608 C612 1.383 . S
C608 C615 1.496 . S
C609 C610 1.399 . S
C609 C612 1.389 . S
C610 C609 1.399 . S
C610 C613 1.380 . S
C610 H620 0.929 . S
C611 C608 1.399 . S
C611 C613 1.392 . S
C611 H621 0.929 . S
C612 C608 1.383 . S
C612 C609 1.389 . S
C612 H622 0.931 . S
C613 C610 1.380 . S
C613 C611 1.392 . S
C613 H623 0.929 . S
C614 O594 1.266 . S
C614 O595 1.248 . S
C615 Tb551 2.802 . S
C615 O590 1.264 . S
C615 O593 1.256 . S
C615 C608 1.496 . S
H616 C599 0.929 . S
H617 C600 0.929 . S
H618 C601 0.929 . S
H619 C602 0.931 . S
H620 C610 0.929 . S
H621 C611 0.929 . S
H622 C612 0.931 . S
H623 C613 0.929 . S
H624 C630 0.930 . S
H625 C634 0.930 . S
H626 C639 0.929 . S
H627 C637 0.929 . S
H628 C632 0.929 . S
H629 C638 0.929 1_565 S
C630 H624 0.930 . S
C630 C631 1.367 . S
C630 C638 1.378 1_565 S
C631 C630 1.367 . S
C631 C639 1.433 1_565 S
C632 H628 0.929 . S
C632 C634 1.378 . S
C632 C636 1.350 . S
C633 C636 1.463 . S
C633 C638 1.350 . S
C633 N641 1.427 . S
C634 H625 0.930 . S
C634 C632 1.378 . S
C634 C635 1.367 . S
C635 C634 1.367 . S
C635 C637 1.433 . S
C636 C632 1.350 . S
C636 C633 1.463 . S
C636 N640 1.427 . S
C637 H627 0.929 . S
C637 C635 1.433 . S
C637 N640 1.384 . S
C638 H629 0.929 1_545 S
C638 C630 1.378 1_545 S
C638 C633 1.350 . S
C639 H626 0.929 . S
C639 C631 1.433 1_545 S
C639 N641 1.384 . S
N640 C636 1.427 . S
N640 C637 1.384 . S
N641 C633 1.427 . S
N641 C639 1.384 . S
H642 C648 0.930 . S
H643 C652 0.930 . S
H644 C657 0.929 . S
H645 C655 0.929 . S
H646 C650 0.929 . S
H647 C656 0.929 . S
C648 H642 0.930 . S
C648 C649 1.367 . S
C648 C656 1.378 . S
C649 C648 1.367 . S
C649 C657 1.433 . S
C650 H646 0.929 . S
C650 C652 1.378 . S
C650 C654 1.350 . S
C651 C654 1.463 . S
C651 C656 1.350 . S
C651 N659 1.427 . S
C652 H643 0.930 . S
C652 C650 1.378 . S
C652 C653 1.367 . S
C653 C652 1.367 . S
C653 C655 1.433 . S
C654 C650 1.350 . S
C654 C651 1.463 . S
C654 N658 1.427 . S
C655 H645 0.929 . S
C655 C653 1.433 . S
C655 N658 1.384 . S
C656 H647 0.929 . S
C656 C648 1.378 . S
C656 C651 1.350 . S
C657 H644 0.929 . S
C657 C649 1.433 . S
C657 N659 1.384 . S
N658 C654 1.427 . S
N658 C655 1.384 . S
N659 C651 1.427 . S
N659 C657 1.384 . S
H660 C666 0.930 . S
H661 C670 0.930 . S
H662 C675 0.929 . S
H663 C673 0.929 . S
H664 C668 0.929 . S
H665 C674 0.929 . S
C666 H660 0.930 . S
C666 C667 1.367 . S
C666 C674 1.378 . S
C667 C666 1.367 . S
C667 C675 1.433 . S
C668 H664 0.929 . S
C668 C670 1.378 . S
C668 C672 1.350 . S
C669 C672 1.463 . S
C669 C674 1.350 . S
C669 N677 1.427 . S
C670 H661 0.930 . S
C670 C668 1.378 . S
C670 C671 1.367 . S
C671 C670 1.367 . S
C671 C673 1.433 . S
C672 C668 1.350 . S
C672 C669 1.463 . S
C672 N676 1.427 . S
C673 H663 0.929 . S
C673 C671 1.433 . S
C673 N676 1.384 . S
C674 H665 0.929 . S
C674 C666 1.378 . S
C674 C669 1.350 . S
C675 H662 0.929 . S
C675 C667 1.433 . S
C675 N677 1.384 . S
N676 C672 1.427 . S
N676 C673 1.384 . S
N677 C669 1.427 . S
N677 C675 1.384 . S
H678 C684 0.930 . S
H679 C688 0.930 . S
H680 C693 0.929 . S
H681 C691 0.929 . S
H682 C686 0.929 . S
H683 C692 0.929 . S
C684 H678 0.930 . S
C684 C685 1.367 1_545 S
C684 C692 1.378 . S
C685 C684 1.367 1_565 S
C685 C693 1.433 . S
C686 H682 0.929 . S
C686 C688 1.378 . S
C686 C690 1.350 . S
C687 C690 1.463 . S
C687 C692 1.350 . S
C687 N695 1.427 . S
C688 H679 0.930 . S
C688 C686 1.378 . S
C688 C689 1.367 . S
C689 C688 1.367 . S
C689 C691 1.433 . S
C690 C686 1.350 . S
C690 C687 1.463 . S
C690 N694 1.427 . S
C691 H681 0.929 . S
C691 C689 1.433 . S
C691 N694 1.384 . S
C692 H683 0.929 . S
C692 C684 1.378 . S
C692 C687 1.350 . S
C693 H680 0.929 . S
C693 C685 1.433 . S
C693 N695 1.384 1_565 S
N694 C690 1.427 . S
N694 C691 1.384 . S
N695 C687 1.427 . S
N695 C693 1.384 1_545 S
H696 C702 0.930 . S
H697 C706 0.930 . S
H698 C711 0.929 . S
H699 C709 0.929 . S
H700 C704 0.929 . S
H701 C710 0.930 . S
C702 H696 0.930 . S
C702 C703 1.367 . S
C702 C710 1.378 1_545 S
C703 C702 1.367 . S
C703 C711 1.433 1_545 S
C704 H700 0.929 . S
C704 C706 1.378 . S
C704 C708 1.350 . S
C705 C708 1.463 . S
C705 C710 1.350 . S
C705 N713 1.427 . S
C706 H697 0.930 . S
C706 C704 1.378 . S
C706 C707 1.367 . S
C707 C706 1.367 . S
C707 C709 1.433 . S
C708 C704 1.350 . S
C708 C705 1.463 . S
C708 N712 1.427 . S
C709 H699 0.929 . S
C709 C707 1.433 . S
C709 N712 1.384 . S
C710 H701 0.930 . S
C710 C702 1.378 1_565 S
C710 C705 1.350 . S
C711 H698 0.929 . S
C711 C703 1.433 1_565 S
C711 N713 1.384 . S
N712 C708 1.427 . S
N712 C709 1.384 . S
N713 C705 1.427 . S
N713 C711 1.384 . S
H714 C720 0.930 . S
H715 C724 0.930 . S
H716 C729 0.929 . S
H717 C727 0.929 . S
H718 C722 0.929 . S
H719 C728 0.929 . S
C720 H714 0.930 . S
C720 C721 1.367 . S
C720 C728 1.378 . S
C721 C720 1.367 . S
C721 C729 1.433 . S
C722 H718 0.929 . S
C722 C724 1.378 . S
C722 C726 1.350 . S
C723 C726 1.463 . S
C723 C728 1.350 . S
C723 N731 1.427 . S
C724 H715 0.930 . S
C724 C722 1.378 . S
C724 C725 1.367 . S
C725 C724 1.367 . S
C725 C727 1.433 . S
C726 C722 1.350 . S
C726 C723 1.463 . S
C726 N730 1.427 . S
C727 H717 0.929 . S
C727 C725 1.433 . S
C727 N730 1.384 . S
C728 H719 0.929 . S
C728 C720 1.378 . S
C728 C723 1.350 . S
C729 H716 0.929 . S
C729 C721 1.433 . S
C729 N731 1.384 . S
N730 C726 1.427 . S
N730 C727 1.384 . S
N731 C723 1.427 . S
N731 C729 1.384 . S
H732 C738 0.930 . S
H733 C742 0.930 . S
H734 C747 0.929 . S
H735 C745 0.929 . S
H736 C740 0.929 . S
H737 C746 0.929 . S
C738 H732 0.930 . S
C738 C739 1.367 . S
C738 C746 1.378 . S
C739 C738 1.367 . S
C739 C747 1.433 . S
C740 H736 0.929 . S
C740 C742 1.378 . S
C740 C744 1.350 . S
C741 C744 1.463 . S
C741 C746 1.350 . S
C741 N749 1.427 . S
C742 H733 0.930 . S
C742 C740 1.378 . S
C742 C743 1.367 . S
C743 C742 1.367 . S
C743 C745 1.433 . S
C744 C740 1.350 . S
C744 C741 1.463 . S
C744 N748 1.427 . S
C745 H735 0.929 . S
C745 C743 1.433 . S
C745 N748 1.384 . S
C746 H737 0.929 . S
C746 C738 1.378 . S
C746 C741 1.350 . S
C747 H734 0.929 . S
C747 C739 1.433 . S
C747 N749 1.384 . S
N748 C744 1.427 . S
N748 C745 1.384 . S
N749 C741 1.427 . S
N749 C747 1.384 . S
H750 C756 0.930 . S
H751 C760 0.930 . S
H752 C765 0.929 . S
H753 C763 0.929 . S
H754 C758 0.929 . S
H755 C764 0.929 . S
C756 H750 0.930 . S
C756 C757 1.367 1_565 S
C756 C764 1.378 . S
C757 C756 1.367 1_545 S
C757 C765 1.433 . S
C758 H754 0.929 . S
C758 C760 1.378 . S
C758 C762 1.350 . S
C759 C762 1.463 . S
C759 C764 1.350 . S
C759 N767 1.427 . S
C760 H751 0.930 . S
C760 C758 1.378 . S
C760 C761 1.367 . S
C761 C760 1.367 . S
C761 C763 1.433 . S
C762 C758 1.350 . S
C762 C759 1.463 . S
C762 N766 1.427 . S
C763 H753 0.929 . S
C763 C761 1.433 . S
C763 N766 1.384 . S
C764 H755 0.929 . S
C764 C756 1.378 . S
C764 C759 1.350 . S
C765 H752 0.929 . S
C765 C757 1.433 . S
C765 N767 1.384 1_545 S
N766 C762 1.427 . S
N766 C763 1.384 . S
N767 C759 1.427 . S
N767 C765 1.384 1_565 S
H768 C774 0.930 . S
H769 C778 0.930 . S
H770 C783 0.929 . S
H771 C781 0.929 . S
H772 C776 0.929 . S
H773 C782 0.929 . S
C774 H768 0.930 . S
C774 C775 1.367 . S
C774 C782 1.378 . S
C775 C774 1.367 . S
C775 C783 1.433 . S
C776 H772 0.929 . S
C776 C778 1.378 . S
C776 C780 1.350 . S
C777 C780 1.463 . S
C777 C782 1.350 . S
C777 N785 1.427 . S
C778 H769 0.930 . S
C778 C776 1.378 . S
C778 C779 1.367 . S
C779 C778 1.367 . S
C779 C781 1.433 . S
C780 C776 1.350 . S
C780 C777 1.463 . S
C780 N784 1.427 . S
C781 H771 0.929 . S
C781 C779 1.433 . S
C781 N784 1.384 . S
C782 H773 0.929 . S
C782 C774 1.378 . S
C782 C777 1.350 . S
C783 H770 0.929 . S
C783 C775 1.433 . S
C783 N785 1.384 . S
N784 C780 1.427 . S
N784 C781 1.384 . S
N785 C777 1.427 . S
N785 C783 1.384 . S
H786 C792 0.930 . S
H787 C796 0.930 . S
H788 C801 0.929 . S
H789 C799 0.929 . S
H790 C794 0.929 . S
H791 C800 0.929 . S
C792 H786 0.930 . S
C792 C793 1.367 . S
C792 C800 1.378 . S
C793 C792 1.367 . S
C793 C801 1.433 . S
C794 H790 0.929 . S
C794 C796 1.378 . S
C794 C798 1.350 . S
C795 C798 1.463 . S
C795 C800 1.350 . S
C795 N803 1.427 . S
C796 H787 0.930 . S
C796 C794 1.378 . S
C796 C797 1.367 . S
C797 C796 1.367 . S
C797 C799 1.433 . S
C798 C794 1.350 . S
C798 C795 1.463 . S
C798 N802 1.427 . S
C799 H789 0.929 . S
C799 C797 1.433 . S
C799 N802 1.384 . S
C800 H791 0.929 . S
C800 C792 1.378 . S
C800 C795 1.350 . S
C801 H788 0.929 . S
C801 C793 1.433 . S
C801 N803 1.384 . S
N802 C798 1.427 . S
N802 C799 1.384 . S
N803 C795 1.427 . S
N803 C801 1.384 . S
H804 C810 0.930 . S
H805 C814 0.930 . S
H806 C819 0.929 . S
H807 C817 0.929 . S
H808 C812 0.929 . S
H809 C818 0.929 . S
C810 H804 0.930 . S
C810 C811 1.367 . S
C810 C818 1.378 . S
C811 C810 1.367 . S
C811 C819 1.433 . S
C812 H808 0.929 . S
C812 C814 1.378 . S
C812 C816 1.350 . S
C813 C816 1.463 . S
C813 C818 1.350 . S
C813 N821 1.427 . S
C814 H805 0.930 . S
C814 C812 1.378 . S
C814 C815 1.367 . S
C815 C814 1.367 . S
C815 C817 1.433 . S
C816 C812 1.350 . S
C816 C813 1.463 . S
C816 N820 1.427 . S
C817 H807 0.929 . S
C817 C815 1.433 . S
C817 N820 1.384 . S
C818 H809 0.929 . S
C818 C810 1.378 . S
C818 C813 1.350 . S
C819 H806 0.929 . S
C819 C811 1.433 . S
C819 N821 1.384 . S
N820 C816 1.427 . S
N820 C817 1.384 . S
N821 C813 1.427 . S
N821 C819 1.384 . S
H822 C828 0.930 . S
H823 C832 0.930 . S
H824 C837 0.929 . S
H825 C835 0.929 . S
H826 C830 0.929 . S
H827 C836 0.929 . S
C828 H822 0.930 . S
C828 C829 1.367 . S
C828 C836 1.378 . S
C829 C828 1.367 . S
C829 C837 1.433 . S
C830 H826 0.929 . S
C830 C832 1.378 . S
C830 C834 1.350 . S
C831 C834 1.463 . S
C831 C836 1.350 . S
C831 N839 1.427 . S
C832 H823 0.930 . S
C832 C830 1.378 . S
C832 C833 1.367 . S
C833 C832 1.367 . S
C833 C835 1.433 . S
C834 C830 1.350 . S
C834 C831 1.463 . S
C834 N838 1.427 . S
C835 H825 0.929 . S
C835 C833 1.433 . S
C835 N838 1.384 . S
C836 H827 0.929 . S
C836 C828 1.378 . S
C836 C831 1.350 . S
C837 H824 0.929 . S
C837 C829 1.433 . S
C837 N839 1.384 . S
N838 C834 1.427 . S
N838 C835 1.384 . S
N839 C831 1.427 . S
N839 C837 1.384 . S
H840 C846 0.930 . S
H841 C850 0.930 . S
H842 C855 0.929 . S
H843 C853 0.929 . S
H844 C848 0.929 . S
H845 C854 0.929 . S
C846 H840 0.930 . S
C846 C847 1.367 . S
C846 C854 1.378 . S
C847 C846 1.367 . S
C847 C855 1.433 . S
C848 H844 0.929 . S
C848 C850 1.378 . S
C848 C852 1.350 . S
C849 C852 1.463 . S
C849 C854 1.350 . S
C849 N857 1.427 . S
C850 H841 0.930 . S
C850 C848 1.378 . S
C850 C851 1.367 . S
C851 C850 1.367 . S
C851 C853 1.433 . S
C852 C848 1.350 . S
C852 C849 1.463 . S
C852 N856 1.427 . S
C853 H843 0.929 . S
C853 C851 1.433 . S
C853 N856 1.384 . S
C854 H845 0.929 . S
C854 C846 1.378 . S
C854 C849 1.350 . S
C855 H842 0.929 . S
C855 C847 1.433 . S
C855 N857 1.384 . S
N856 C852 1.427 . S
N856 C853 1.384 . S
N857 C849 1.427 . S
N857 C855 1.384 . S
H858 C864 0.930 . S
H859 C868 0.930 . S
H860 C873 0.929 . S
H861 C871 0.929 . S
H862 C866 0.929 . S
H863 C872 0.929 . S
C864 H858 0.930 . S
C864 C865 1.367 . S
C864 C872 1.378 . S
C865 C864 1.367 . S
C865 C873 1.433 . S
C866 H862 0.929 . S
C866 C868 1.378 . S
C866 C870 1.350 . S
C867 C870 1.463 . S
C867 C872 1.350 . S
C867 N875 1.427 . S
C868 H859 0.930 . S
C868 C866 1.378 . S
C868 C869 1.367 . S
C869 C868 1.367 . S
C869 C871 1.433 . S
C870 C866 1.350 . S
C870 C867 1.463 . S
C870 N874 1.427 . S
C871 H861 0.929 . S
C871 C869 1.433 . S
C871 N874 1.384 . S
C872 H863 0.929 . S
C872 C864 1.378 . S
C872 C867 1.350 . S
C873 H860 0.929 . S
C873 C865 1.433 . S
C873 N875 1.384 . S
N874 C870 1.427 . S
N874 C871 1.384 . S
N875 C867 1.427 . S
N875 C873 1.384 . S
H876 C882 0.930 . S
H877 C886 0.930 . S
H878 C891 0.929 . S
H879 C889 0.929 . S
H880 C884 0.929 . S
H881 C890 0.929 . S
C882 H876 0.930 . S
C882 C883 1.367 . S
C882 C890 1.378 . S
C883 C882 1.367 . S
C883 C891 1.433 . S
C884 H880 0.929 . S
C884 C886 1.378 . S
C884 C888 1.350 . S
C885 C888 1.463 . S
C885 C890 1.350 . S
C885 N893 1.427 . S
C886 H877 0.930 . S
C886 C884 1.378 . S
C886 C887 1.367 . S
C887 C886 1.367 . S
C887 C889 1.433 . S
C888 C884 1.350 . S
C888 C885 1.463 . S
C888 N892 1.427 . S
C889 H879 0.929 . S
C889 C887 1.433 . S
C889 N892 1.384 . S
C890 H881 0.929 . S
C890 C882 1.378 . S
C890 C885 1.350 . S
C891 H878 0.929 . S
C891 C883 1.433 . S
C891 N893 1.384 . S
N892 C888 1.427 . S
N892 C889 1.384 . S
N893 C885 1.427 . S
N893 C891 1.384 . S
H894 C900 0.930 . S
H895 C904 0.930 . S
H896 C909 0.929 . S
H897 C907 0.929 . S
H898 C902 0.929 . S
H899 C908 0.929 . S
C900 H894 0.930 . S
C900 C901 1.367 . S
C900 C908 1.378 . S
C901 C900 1.367 . S
C901 C909 1.433 . S
C902 H898 0.929 . S
C902 C904 1.378 . S
C902 C906 1.350 . S
C903 C906 1.463 . S
C903 C908 1.350 . S
C903 N911 1.427 . S
C904 H895 0.930 . S
C904 C902 1.378 . S
C904 C905 1.367 . S
C905 C904 1.367 . S
C905 C907 1.433 . S
C906 C902 1.350 . S
C906 C903 1.463 . S
C906 N910 1.427 . S
C907 H897 0.929 . S
C907 C905 1.433 . S
C907 N910 1.384 . S
C908 H899 0.929 . S
C908 C900 1.378 . S
C908 C903 1.350 . S
C909 H896 0.929 . S
C909 C901 1.433 . S
C909 N911 1.384 . S
N910 C906 1.427 . S
N910 C907 1.384 . S
N911 C903 1.427 . S
N911 C909 1.384 . S
H912 C918 0.930 . S
H913 C922 0.930 . S
H914 C927 0.929 . S
H915 C925 0.929 . S
H916 C920 0.929 . S
H917 C926 0.929 . S
C918 H912 0.930 . S
C918 C919 1.367 . S
C918 C926 1.378 . S
C919 C918 1.367 . S
C919 C927 1.433 . S
C920 H916 0.929 . S
C920 C922 1.378 . S
C920 C924 1.350 . S
C921 C924 1.463 . S
C921 C926 1.350 . S
C921 N929 1.427 . S
C922 H913 0.930 . S
C922 C920 1.378 . S
C922 C923 1.367 . S
C923 C922 1.367 . S
C923 C925 1.433 . S
C924 C920 1.350 . S
C924 C921 1.463 . S
C924 N928 1.427 . S
C925 H915 0.929 . S
C925 C923 1.433 . S
C925 N928 1.384 . S
C926 H917 0.929 . S
C926 C918 1.378 . S
C926 C921 1.350 . S
C927 H914 0.929 . S
C927 C919 1.433 . S
C927 N929 1.384 . S
N928 C924 1.427 . S
N928 C925 1.384 . S
N929 C921 1.427 . S
N929 C927 1.384 . S
H930 C936 0.930 . S
H931 C940 0.930 . S
H932 C945 0.929 . S
H933 C943 0.929 . S
H934 C938 0.929 . S
H935 C944 0.929 . S
C936 H930 0.930 . S
C936 C937 1.367 . S
C936 C944 1.378 . S
C937 C936 1.367 . S
C937 C945 1.433 . S
C938 H934 0.929 . S
C938 C940 1.378 . S
C938 C942 1.350 . S
C939 C942 1.463 . S
C939 C944 1.350 . S
C939 N947 1.427 . S
C940 H931 0.930 . S
C940 C938 1.378 . S
C940 C941 1.367 . S
C941 C940 1.367 . S
C941 C943 1.433 . S
C942 C938 1.350 . S
C942 C939 1.463 . S
C942 N946 1.427 . S
C943 H933 0.929 . S
C943 C941 1.433 . S
C943 N946 1.384 . S
C944 H935 0.929 . S
C944 C936 1.378 . S
C944 C939 1.350 . S
C945 H932 0.929 . S
C945 C937 1.433 . S
C945 N947 1.384 . S
N946 C942 1.427 . S
N946 C943 1.384 . S
N947 C939 1.427 . S
N947 C945 1.384 . S
H948 C954 0.930 . S
H949 C958 0.930 . S
H950 C963 0.929 . S
H951 C961 0.929 . S
H952 C956 0.929 . S
H953 C962 0.929 . S
C954 H948 0.930 . S
C954 C955 1.367 . S
C954 C962 1.378 . S
C955 C954 1.367 . S
C955 C963 1.433 . S
C956 H952 0.929 . S
C956 C958 1.378 . S
C956 C960 1.350 . S
C957 C960 1.463 . S
C957 C962 1.350 . S
C957 N965 1.427 . S
C958 H949 0.930 . S
C958 C956 1.378 . S
C958 C959 1.367 . S
C959 C958 1.367 . S
C959 C961 1.433 . S
C960 C956 1.350 . S
C960 C957 1.463 . S
C960 N964 1.427 . S
C961 H951 0.929 . S
C961 C959 1.433 . S
C961 N964 1.384 . S
C962 H953 0.929 . S
C962 C954 1.378 . S
C962 C957 1.350 . S
C963 H950 0.929 . S
C963 C955 1.433 . S
C963 N965 1.384 . S
N964 C960 1.427 . S
N964 C961 1.384 . S
N965 C957 1.427 . S
N965 C963 1.384 . S
H966 C972 0.930 . S
H967 C976 0.930 . S
H968 C981 0.929 . S
H969 C979 0.929 . S
H970 C974 0.929 . S
H971 C980 0.929 . S
C972 H966 0.930 . S
C972 C973 1.367 . S
C972 C980 1.378 . S
C973 C972 1.367 . S
C973 C981 1.433 . S
C974 H970 0.929 . S
C974 C976 1.378 . S
C974 C978 1.350 . S
C975 C978 1.463 . S
C975 C980 1.350 . S
C975 N983 1.427 . S
C976 H967 0.930 . S
C976 C974 1.378 . S
C976 C977 1.367 . S
C977 C976 1.367 . S
C977 C979 1.433 . S
C978 C974 1.350 . S
C978 C975 1.463 . S
C978 N982 1.427 . S
C979 H969 0.929 . S
C979 C977 1.433 . S
C979 N982 1.384 . S
C980 H971 0.929 . S
C980 C972 1.378 . S
C980 C975 1.350 . S
C981 H968 0.929 . S
C981 C973 1.433 . S
C981 N983 1.384 . S
N982 C978 1.427 . S
N982 C979 1.384 . S
N983 C975 1.427 . S
N983 C981 1.384 . S
H984 C990 0.930 . S
H985 C994 0.930 . S
H986 C999 0.929 . S
H987 C997 0.929 . S
H988 C992 0.929 . S
H989 C998 0.929 . S
C990 H984 0.930 . S
C990 C991 1.367 . S
C990 C998 1.378 . S
C991 C990 1.367 . S
C991 C999 1.433 . S
C992 H988 0.929 . S
C992 C994 1.378 . S
C992 C996 1.350 . S
C993 C996 1.463 . S
C993 C998 1.350 . S
C993 N1001 1.427 . S
C994 H985 0.930 . S
C994 C992 1.378 . S
C994 C995 1.367 . S
C995 C994 1.367 . S
C995 C997 1.433 . S
C996 C992 1.350 . S
C996 C993 1.463 . S
C996 N1000 1.427 . S
C997 H987 0.929 . S
C997 C995 1.433 . S
C997 N1000 1.384 . S
C998 H989 0.929 . S
C998 C990 1.378 . S
C998 C993 1.350 . S
C999 H986 0.929 . S
C999 C991 1.433 . S
C999 N1001 1.384 . S
N1000 C996 1.427 . S
N1000 C997 1.384 . S
N1001 C993 1.427 . S
N1001 C999 1.384 . S
H1002 C1008 0.930 . S
H1003 C1012 0.930 . S
H1004 C1017 0.929 . S
H1005 C1015 0.929 . S
H1006 C1010 0.929 . S
H1007 C1016 0.929 . S
C1008 H1002 0.930 . S
C1008 C1009 1.367 . S
C1008 C1016 1.378 . S
C1009 C1008 1.367 . S
C1009 C1017 1.433 . S
C1010 H1006 0.929 . S
C1010 C1012 1.378 . S
C1010 C1014 1.350 . S
C1011 C1014 1.463 . S
C1011 C1016 1.350 . S
C1011 N1019 1.427 . S
C1012 H1003 0.930 . S
C1012 C1010 1.378 . S
C1012 C1013 1.367 . S
C1013 C1012 1.367 . S
C1013 C1015 1.433 . S
C1014 C1010 1.350 . S
C1014 C1011 1.463 . S
C1014 N1018 1.427 . S
C1015 H1005 0.929 . S
C1015 C1013 1.433 . S
C1015 N1018 1.384 . S
C1016 H1007 0.929 . S
C1016 C1008 1.378 . S
C1016 C1011 1.350 . S
C1017 H1004 0.929 . S
C1017 C1009 1.433 . S
C1017 N1019 1.384 . S
N1018 C1014 1.427 . S
N1018 C1015 1.384 . S
N1019 C1011 1.427 . S
N1019 C1017 1.384 . S
H1020 C1026 0.930 . S
H1021 C1030 0.930 . S
H1022 C1035 0.929 . S
H1023 C1033 0.929 . S
H1024 C1028 0.929 . S
H1025 C1034 0.929 . S
C1026 H1020 0.930 . S
C1026 C1027 1.367 . S
C1026 C1034 1.378 . S
C1027 C1026 1.367 . S
C1027 C1035 1.433 . S
C1028 H1024 0.929 . S
C1028 C1030 1.378 . S
C1028 C1032 1.350 . S
C1029 C1032 1.463 . S
C1029 C1034 1.350 . S
C1029 N1037 1.427 . S
C1030 H1021 0.930 . S
C1030 C1028 1.378 . S
C1030 C1031 1.367 . S
C1031 C1030 1.367 . S
C1031 C1033 1.433 . S
C1032 C1028 1.350 . S
C1032 C1029 1.463 . S
C1032 N1036 1.427 . S
C1033 H1023 0.929 . S
C1033 C1031 1.433 . S
C1033 N1036 1.384 . S
C1034 H1025 0.929 . S
C1034 C1026 1.378 . S
C1034 C1029 1.350 . S
C1035 H1022 0.929 . S
C1035 C1027 1.433 . S
C1035 N1037 1.384 . S
N1036 C1032 1.427 . S
N1036 C1033 1.384 . S
N1037 C1029 1.427 . S
N1037 C1035 1.384 . S
H1038 C1044 0.930 . S
H1039 C1048 0.930 . S
H1040 C1053 0.929 . S
H1041 C1051 0.929 . S
H1042 C1046 0.929 . S
H1043 C1052 0.929 . S
C1044 H1038 0.930 . S
C1044 C1045 1.367 . S
C1044 C1052 1.378 . S
C1045 C1044 1.367 . S
C1045 C1053 1.433 . S
C1046 H1042 0.929 . S
C1046 C1048 1.378 . S
C1046 C1050 1.350 . S
C1047 C1050 1.463 . S
C1047 C1052 1.350 . S
C1047 N1055 1.427 . S
C1048 H1039 0.930 . S
C1048 C1046 1.378 . S
C1048 C1049 1.367 . S
C1049 C1048 1.367 . S
C1049 C1051 1.433 . S
C1050 C1046 1.350 . S
C1050 C1047 1.463 . S
C1050 N1054 1.427 . S
C1051 H1041 0.929 . S
C1051 C1049 1.433 . S
C1051 N1054 1.384 . S
C1052 H1043 0.929 . S
C1052 C1044 1.378 . S
C1052 C1047 1.350 . S
C1053 H1040 0.929 . S
C1053 C1045 1.433 . S
C1053 N1055 1.384 . S
N1054 C1050 1.427 . S
N1054 C1051 1.384 . S
N1055 C1047 1.427 . S
N1055 C1053 1.384 . S
C631 C247 1.480 . S
C635 C362 1.465 . S
C653 C446 1.456 . S
C649 C283 1.480 . S
C671 C439 1.466 . S
C667 C175 1.473 . S
C685 C211 1.474 . S
C689 C355 1.470 . S
C707 C519 1.465 . S
C703 C103 1.466 . S
C725 C603 1.461 . S
C721 C139 1.463 . S
C739 C31 1.454 . S
C743 C596 1.468 . S
C757 C67 1.461 . S
C761 C512 1.469 . S
C779 C346 1.324 . S
C775 C37 1.504 1_554 S
C797 C430 1.324 . S
C793 C1 1.505 . S
C815 C441 1.403 . S
C811 C109 1.533 1_556 S
C833 C357 1.405 . S
C829 C73 1.527 . S
C851 C525 1.324 . S
C847 C181 1.520 1_556 S
C865 C145 1.521 . S
C869 C609 1.324 . S
C887 C598 1.412 . S
C883 C253 1.541 1_554 S
C901 C217 1.541 . S
C905 C514 1.409 . S
C923 C344 1.582 . S
C919 C25 1.556 . S
C941 C428 1.577 . S
C937 C61 1.550 . S
C955 C97 1.541 . S
C959 C435 1.557 . S
C977 C351 1.552 . S
C973 C133 1.549 . S
C995 C523 1.577 . S
C991 C169 1.571 . S
C1009 C205 1.571 . S
C1013 C607 1.577 . S
C1027 C241 1.565 . S
C1031 C614 1.553 . S
C1045 C277 1.558 . S
C1049 C530 1.560 . S
