# Generated by pormake.
# Topology ssa, (4,4)-cn, num edge types: 1
# Building blocks:
#     Node 0, Type 0, BuildingBlock: NAWXER_clean_sbu_0, # of connection points: 4
#     Node 1, Type 0, BuildingBlock: NAWXER_clean_sbu_0, # of connection points: 4
#     Node 2, Type 0, BuildingBlock: NAWXER_clean_sbu_0, # of connection points: 4
#     Node 3, Type 0, BuildingBlock: NAWXER_clean_sbu_0, # of connection points: 4
#     Node 4, Type 0, BuildingBlock: NAWXER_clean_sbu_0, # of connection points: 4
#     Node 5, Type 0, BuildingBlock: NAWXER_clean_sbu_0, # of connection points: 4
#     Node 6, Type 1, BuildingBlock: MUDLON_clean_linker_0, # of connection points: 4
#     Node 7, Type 1, BuildingBlock: MUDLON_clean_linker_0, # of connection points: 4
#     Node 8, Type 1, BuildingBlock: MUDLON_clean_linker_0, # of connection points: 4
#     Node 9, Type 1, BuildingBlock: MUDLON_clean_linker_0, # of connection points: 4
#     Node 10, Type 1, BuildingBlock: MUDLON_clean_linker_0, # of connection points: 4
#     Node 11, Type 1, BuildingBlock: MUDLON_clean_linker_0, # of connection points: 4
#     Edge 12, Type (0, 1), BuildingBlock: EZIPEK_clean_linker_0, # of connection points: 2
#     Edge 13, Type (0, 1), BuildingBlock: EZIPEK_clean_linker_0, # of connection points: 2
#     Edge 14, Type (0, 1), BuildingBlock: EZIPEK_clean_linker_0, # of connection points: 2
#     Edge 15, Type (0, 1), BuildingBlock: EZIPEK_clean_linker_0, # of connection points: 2
#     Edge 16, Type (0, 1), BuildingBlock: EZIPEK_clean_linker_0, # of connection points: 2
#     Edge 17, Type (0, 1), BuildingBlock: EZIPEK_clean_linker_0, # of connection points: 2
#     Edge 18, Type (0, 1), BuildingBlock: EZIPEK_clean_linker_0, # of connection points: 2
#     Edge 19, Type (0, 1), BuildingBlock: EZIPEK_clean_linker_0, # of connection points: 2
#     Edge 20, Type (0, 1), BuildingBlock: EZIPEK_clean_linker_0, # of connection points: 2
#     Edge 21, Type (0, 1), BuildingBlock: EZIPEK_clean_linker_0, # of connection points: 2
#     Edge 22, Type (0, 1), BuildingBlock: EZIPEK_clean_linker_0, # of connection points: 2
#     Edge 23, Type (0, 1), BuildingBlock: EZIPEK_clean_linker_0, # of connection points: 2
#     Edge 24, Type (0, 1), BuildingBlock: EZIPEK_clean_linker_0, # of connection points: 2
#     Edge 25, Type (0, 1), BuildingBlock: EZIPEK_clean_linker_0, # of connection points: 2
#     Edge 26, Type (0, 1), BuildingBlock: EZIPEK_clean_linker_0, # of connection points: 2
#     Edge 27, Type (0, 1), BuildingBlock: EZIPEK_clean_linker_0, # of connection points: 2
#     Edge 28, Type (0, 1), BuildingBlock: EZIPEK_clean_linker_0, # of connection points: 2
#     Edge 29, Type (0, 1), BuildingBlock: EZIPEK_clean_linker_0, # of connection points: 2
#     Edge 30, Type (0, 1), BuildingBlock: EZIPEK_clean_linker_0, # of connection points: 2
#     Edge 31, Type (0, 1), BuildingBlock: EZIPEK_clean_linker_0, # of connection points: 2
#     Edge 32, Type (0, 1), BuildingBlock: EZIPEK_clean_linker_0, # of connection points: 2
#     Edge 33, Type (0, 1), BuildingBlock: EZIPEK_clean_linker_0, # of connection points: 2
#     Edge 34, Type (0, 1), BuildingBlock: EZIPEK_clean_linker_0, # of connection points: 2
#     Edge 35, Type (0, 1), BuildingBlock: EZIPEK_clean_linker_0, # of connection points: 2
# Relax obj value: 0.011
# Max RMSD: 0.048
# Mean RMSD: 0.035
data_MOF--net-ssa--node1-NAWXER_clean_sbu_0--node2-MUDLON_clean_linker_0--edge1-EZIPEK_clean_linker_0
_symmetry_space_group_name_H-M    P1
_symmetry_Int_Tables_number       1
_symmetry_cell_setting            triclinic
loop_
_symmetry_equiv_pos_as_xyz
'x, y, z'
_cell_length_a     54.80925
_cell_length_b     54.893404
_cell_length_c     30.174905
_cell_angle_alpha  90.008253
_cell_angle_beta   89.877925
_cell_angle_gamma 120.00336
loop_
_atom_site_label
_atom_site_type_symbol
_atom_site_fract_x
_atom_site_fract_y
_atom_site_fract_z
_atom_type_partial_charge
C0 C 0.06165 0.54675 0.05367 0.0
C1 C 0.00931 0.45866 0.97245 0.0
O2 O 0.03879 0.52902 0.07342 0.0
Zn3 Zn 0.00443 0.48656 0.0628 0.0
O4 O 0.06865 0.54011 0.01738 0.0
Zn5 Zn 0.03662 0.50262 0.01406 0.0
O6 O 0.00266 0.51114 0.00358 0.0
O7 O 0.97263 0.49262 0.05947 0.0
O8 O 0.03361 0.47932 0.96405 0.0
O9 O 0.99634 0.4589 0.00767 0.0
O10 O 0.00735 0.466 0.11279 0.0
O11 O 0.04468 0.48321 0.06926 0.0
C12 C 0.97993 0.50638 0.02331 0.0
C13 C 0.03184 0.47003 0.10453 0.0
C14 C 0.53391 0.04692 0.51327 0.0
C15 C 0.56214 0.98218 0.45202 0.0
O16 O 0.52706 0.02526 0.53757 0.0
Zn17 Zn 0.52997 0.98766 0.53637 0.0
O18 O 0.54617 0.04969 0.4762 0.0
Zn19 Zn 0.54724 0.01498 0.4804 0.0
O20 O 0.50402 0.98437 0.47427 0.0
O21 O 0.49084 0.9574 0.53376 0.0
O22 O 0.56404 0.00394 0.43377 0.0
O23 O 0.5508 0.97485 0.49036 0.0
O24 O 0.5522 0.99301 0.58865 0.0
O25 O 0.57508 0.02435 0.53584 0.0
C26 C 0.48498 0.96355 0.49614 0.0
C27 C 0.57438 0.01473 0.57483 0.0
C28 C 0.51675 0.44864 0.00345 0.0
C29 C 0.56339 0.53979 0.07939 0.0
O30 O 0.51488 0.46813 0.98303 0.0
Zn31 Zn 0.5266 0.51125 0.99276 0.0
O32 O 0.52822 0.45349 0.04151 0.0
Zn33 Zn 0.5393 0.49308 0.04435 0.0
O34 O 0.50032 0.49209 0.0558 0.0
O35 O 0.49076 0.51037 0.99762 0.0
O36 O 0.56302 0.51744 0.09191 0.0
O37 O 0.55004 0.53939 0.04449 0.0
O38 O 0.55228 0.53009 0.94393 0.0
O39 O 0.56787 0.50982 0.98999 0.0
C40 C 0.48414 0.49911 0.03585 0.0
C41 C 0.57121 0.52427 0.95498 0.0
C42 C 0.05113 0.56556 0.46926 0.0
C43 C 0.99968 0.47911 0.55451 0.0
O44 O 0.06249 0.56726 0.50715 0.0
Zn45 Zn 0.0541 0.54042 0.56427 0.0
O46 O 0.02853 0.54338 0.45849 0.0
Zn47 Zn 0.02433 0.52291 0.51198 0.0
O48 O 0.01496 0.54592 0.55933 0.0
O49 O 0.04662 0.55917 0.61216 0.0
O50 O 0.99265 0.48494 0.51763 0.0
O51 O 0.02183 0.49777 0.57429 0.0
O52 O 0.08733 0.53653 0.56608 0.0
O53 O 0.05973 0.51632 0.5082 0.0
C54 C 0.02439 0.55779 0.59681 0.0
C55 C 0.08204 0.52249 0.53034 0.0
C56 C 0.54192 0.97327 0.03971 0.0
C57 C 0.50054 0.01665 0.94655 0.0
O58 O 0.54432 0.99588 0.05621 0.0
Zn59 Zn 0.53392 0.02752 0.03819 0.0
O60 O 0.52965 0.96437 0.00259 0.0
Zn61 Zn 0.52012 0.99355 0.99249 0.0
O62 O 0.56067 0.02931 0.9781 0.0
O63 O 0.57086 0.06089 0.03092 0.0
O64 O 0.49842 0.99269 0.94084 0.0
O65 O 0.51313 0.03109 0.98095 0.0
O66 O 0.50872 0.0248 0.08582 0.0
O67 O 0.49146 0.9861 0.0458 0.0
C68 C 0.57748 0.05338 0.99506 0.0
C69 C 0.48928 0.99962 0.07872 0.0
C70 C 0.56572 0.52991 0.56989 0.0
C71 C 0.47158 0.49121 0.50653 0.0
O72 O 0.5456 0.53267 0.58534 0.0
Zn73 Zn 0.51797 0.51024 0.54111 0.0
O74 O 0.56208 0.5154 0.53473 0.0
Zn75 Zn 0.52942 0.49171 0.48791 0.0
O76 O 0.54514 0.51272 0.43358 0.0
O77 O 0.5358 0.53608 0.48414 0.0
O78 O 0.48791 0.48515 0.48477 0.0
O79 O 0.47999 0.50485 0.54265 0.0
O80 O 0.51149 0.46937 0.55442 0.0
O81 O 0.52351 0.45396 0.49522 0.0
C82 C 0.54515 0.53494 0.44573 0.0
C83 C 0.51419 0.4502 0.53474 0.0
H84 H 0.38797 0.49159 0.28193 0.0
N85 N 0.33606 0.44531 0.2637 0.0
H86 H 0.41499 0.50007 0.34979 0.0
H87 H 0.31961 0.41602 0.33911 0.0
H88 H 0.34621 0.42582 0.40873 0.0
H89 H 0.35614 0.41628 0.22255 0.0
H90 H 0.38956 0.43186 0.1603 0.0
H91 H 0.35393 0.49358 0.2151 0.0
H92 H 0.38709 0.50901 0.15236 0.0
H93 H 0.33064 0.48843 0.29876 0.0
H94 H 0.28624 0.40954 0.22927 0.0
H95 H 0.28666 0.48886 0.30865 0.0
H96 H 0.24239 0.41062 0.23607 0.0
H97 H 0.16079 0.49449 0.31916 0.0
H98 H 0.14836 0.51459 0.38142 0.0
H99 H 0.13862 0.44667 0.46533 0.0
H100 H 0.14925 0.42538 0.40182 0.0
H101 H 0.09923 0.40819 0.31377 0.0
H102 H 0.0663 0.41134 0.26195 0.0
H103 H 0.13642 0.47725 0.19052 0.0
H104 H 0.16918 0.47451 0.2421 0.0
H105 H 0.20463 0.49002 0.3 0.0
H106 H 0.24927 0.49301 0.27984 0.0
H107 H 0.20979 0.40251 0.29158 0.0
N108 N 0.15473 0.44176 0.31753 0.0
H109 H 0.16507 0.39985 0.30898 0.0
C110 C 0.35189 0.45248 0.30468 0.0
C111 C 0.37858 0.47681 0.30893 0.0
C112 C 0.39402 0.48186 0.34796 0.0
C113 C 0.38281 0.46331 0.38403 0.0
C114 C 0.3554 0.44015 0.38103 0.0
C115 C 0.34031 0.43456 0.34142 0.0
C116 C 0.3525 0.45363 0.22337 0.0
C117 C 0.36237 0.43628 0.2068 0.0
C118 C 0.38136 0.44514 0.1714 0.0
C119 C 0.39076 0.47156 0.15191 0.0
C120 C 0.37993 0.4885 0.16695 0.0
C121 C 0.361 0.47967 0.20262 0.0
C122 C 0.31148 0.4485 0.26417 0.0
C123 C 0.31145 0.47143 0.28492 0.0
C124 C 0.28623 0.47174 0.29019 0.0
C125 C 0.26069 0.44947 0.27394 0.0
C126 C 0.26137 0.42767 0.25036 0.0
C127 C 0.28645 0.42712 0.24591 0.0
C128 C 0.15492 0.45779 0.35555 0.0
C129 C 0.15637 0.48401 0.35095 0.0
C130 C 0.14945 0.49562 0.38659 0.0
C131 C 0.1419 0.48171 0.42762 0.0
C132 C 0.144 0.45746 0.4337 0.0
C133 C 0.15006 0.44536 0.39762 0.0
C134 C 0.13669 0.44083 0.2819 0.0
C135 C 0.1075 0.42281 0.28627 0.0
C136 C 0.08878 0.4247 0.25701 0.0
C137 C 0.09907 0.44457 0.22268 0.0
C138 C 0.12821 0.46175 0.21685 0.0
C139 C 0.14693 0.46002 0.24628 0.0
C140 C 0.18146 0.44456 0.30551 0.0
C141 C 0.20559 0.47085 0.2976 0.0
C142 C 0.23119 0.47251 0.28645 0.0
C143 C 0.23328 0.44799 0.28373 0.0
C144 C 0.20901 0.42183 0.29209 0.0
C145 C 0.18343 0.4202 0.30252 0.0
H146 H 0.70195 0.08156 0.81701 0.0
N147 N 0.73308 0.13088 0.77853 0.0
H148 H 0.66633 0.06939 0.87424 0.0
H149 H 0.72543 0.16898 0.82821 0.0
H150 H 0.69151 0.15706 0.88924 0.0
H151 H 0.69611 0.14455 0.74148 0.0
H152 H 0.65992 0.1164 0.68697 0.0
H153 H 0.72976 0.08865 0.73108 0.0
H154 H 0.69222 0.05922 0.67863 0.0
H155 H 0.78338 0.14081 0.80435 0.0
H156 H 0.7414 0.18064 0.74269 0.0
H157 H 0.82872 0.18432 0.79583 0.0
H158 H 0.78644 0.22393 0.73386 0.0
H159 H 0.96987 0.32747 0.77742 0.0
H160 H 0.99175 0.36328 0.83586 0.0
H161 H 0.91511 0.36658 0.84853 0.0
H162 H 0.89308 0.33055 0.79086 0.0
H163 H 0.8883 0.33232 0.7132 0.0
H164 H 0.90435 0.37117 0.66024 0.0
H165 H 0.97804 0.36475 0.6317 0.0
H166 H 0.96174 0.32547 0.68427 0.0
H167 H 0.89912 0.27547 0.81421 0.0
H168 H 0.85359 0.23326 0.8243 0.0
H169 H 0.83121 0.24009 0.68978 0.0
N170 N 0.91922 0.30836 0.74119 0.0
H171 H 0.8766 0.28207 0.67912 0.0
C172 C 0.71643 0.12606 0.81812 0.0
C173 C 0.69997 0.09824 0.83273 0.0
C174 C 0.67958 0.09132 0.86527 0.0
C175 C 0.67592 0.11226 0.88568 0.0
C176 C 0.69364 0.14051 0.87338 0.0
C177 C 0.71326 0.14733 0.83891 0.0
C178 C 0.71619 0.11909 0.73941 0.0
C179 C 0.69656 0.12701 0.72598 0.0
C180 C 0.67557 0.11063 0.69549 0.0
C181 C 0.67331 0.08564 0.67909 0.0
C182 C 0.6937 0.07849 0.69079 0.0
C183 C 0.71517 0.09531 0.72035 0.0
C184 C 0.75904 0.15725 0.77388 0.0
C185 C 0.78396 0.15896 0.7891 0.0
C186 C 0.80976 0.18381 0.78435 0.0
C187 C 0.81112 0.20749 0.76401 0.0
C188 C 0.78607 0.20588 0.74911 0.0
C189 C 0.76023 0.18105 0.7542 0.0
C190 C 0.92995 0.32634 0.77973 0.0
C191 C 0.95765 0.33552 0.79344 0.0
C192 C 0.97011 0.35595 0.82645 0.0
C193 C 0.95501 0.36755 0.84603 0.0
C194 C 0.92702 0.35784 0.83351 0.0
C195 C 0.91451 0.33733 0.80067 0.0
C196 C 0.92391 0.32591 0.70272 0.0
C197 C 0.90742 0.33857 0.69455 0.0
C198 C 0.91651 0.36069 0.66429 0.0
C199 C 0.94244 0.37086 0.64244 0.0
C200 C 0.95792 0.35707 0.64819 0.0
C201 C 0.94862 0.33468 0.678 0.0
C202 C 0.89121 0.28384 0.74692 0.0
C203 C 0.88429 0.26854 0.78701 0.0
C204 C 0.8583 0.24406 0.7927 0.0
C205 C 0.8386 0.23371 0.75813 0.0
C206 C 0.84565 0.24811 0.7175 0.0
C207 C 0.87177 0.27249 0.71162 0.0
H208 H 0.56848 0.87274 0.2599 0.0
N209 N 0.62204 0.88596 0.23792 0.0
H210 H 0.55601 0.89507 0.31895 0.0
H211 H 0.65407 0.91341 0.3073 0.0
H212 H 0.64127 0.935 0.36783 0.0
H213 H 0.63645 0.93882 0.22165 0.0
H214 H 0.61475 0.95592 0.16957 0.0
H215 H 0.58757 0.85517 0.16722 0.0
H216 H 0.56831 0.87325 0.11134 0.0
H217 H 0.576 0.8333 0.24834 0.0
H218 H 0.66547 0.87835 0.22427 0.0
H219 H 0.57633 0.78893 0.25081 0.0
H220 H 0.66628 0.83428 0.22769 0.0
H221 H 0.57453 0.67311 0.26946 0.0
H222 H 0.55223 0.62981 0.31296 0.0
H223 H 0.62951 0.65798 0.38547 0.0
H224 H 0.65267 0.70031 0.33884 0.0
H225 H 0.66429 0.6871 0.24842 0.0
H226 H 0.65177 0.6463 0.2006 0.0
H227 H 0.58174 0.65221 0.14868 0.0
H228 H 0.59407 0.69281 0.19618 0.0
H229 H 0.59674 0.72397 0.31102 0.0
H230 H 0.59299 0.76551 0.29957 0.0
H231 H 0.65236 0.7907 0.19122 0.0
N232 N 0.63163 0.70921 0.26509 0.0
H233 H 0.6569 0.74928 0.20341 0.0
C234 C 0.61237 0.89169 0.27904 0.0
C235 C 0.5843 0.88552 0.2841 0.0
C236 C 0.57725 0.89848 0.31752 0.0
C237 C 0.59791 0.9172 0.34698 0.0
C238 C 0.62518 0.92095 0.34491 0.0
C239 C 0.6324 0.90846 0.31081 0.0
C240 C 0.61345 0.89565 0.19947 0.0
C241 C 0.62171 0.92429 0.19759 0.0
C242 C 0.60921 0.93403 0.16788 0.0
C243 C 0.5894 0.91578 0.13692 0.0
C244 C 0.58301 0.88757 0.13562 0.0
C245 C 0.59432 0.87734 0.16742 0.0
C246 C 0.62083 0.85915 0.23609 0.0
C247 C 0.5957 0.83362 0.24342 0.0
C248 C 0.59597 0.80828 0.24504 0.0
C249 C 0.62135 0.80799 0.23957 0.0
C250 C 0.64627 0.83357 0.23134 0.0
C251 C 0.64593 0.85881 0.22957 0.0
C252 C 0.61561 0.68973 0.30022 0.0
C253 C 0.58663 0.6703 0.29516 0.0
C254 C 0.57386 0.64555 0.31998 0.0
C255 C 0.5894 0.64046 0.35181 0.0
C256 C 0.6173 0.6614 0.36062 0.0
C257 C 0.63039 0.68569 0.33456 0.0
C258 C 0.6301 0.69296 0.22631 0.0
C259 C 0.64702 0.6804 0.22529 0.0
C260 C 0.6397 0.65697 0.19856 0.0
C261 C 0.61553 0.64609 0.1721 0.0
C262 C 0.60029 0.66028 0.1694 0.0
C263 C 0.60757 0.68366 0.19615 0.0
C264 C 0.62657 0.73247 0.25702 0.0
C265 C 0.60864 0.73779 0.28402 0.0
C266 C 0.60639 0.76181 0.27747 0.0
C267 C 0.6222 0.78141 0.24428 0.0
C268 C 0.63999 0.77616 0.2173 0.0
C269 C 0.64236 0.75225 0.22395 0.0
H270 H 0.96125 0.62391 0.8753 0.0
N271 N 0.91798 0.6033 0.81991 0.0
H272 H 0.97042 0.59781 0.93251 0.0
H273 H 0.87827 0.55239 0.85531 0.0
H274 H 0.88732 0.52654 0.91312 0.0
H275 H 0.91542 0.55381 0.7954 0.0
H276 H 0.94322 0.54789 0.73813 0.0
H277 H 0.95264 0.64171 0.76142 0.0
H278 H 0.97948 0.63517 0.7014 0.0
H279 H 0.89741 0.63416 0.853 0.0
H280 H 0.87705 0.56552 0.76319 0.0
H281 H 0.85304 0.63207 0.83493 0.0
H282 H 0.83395 0.56471 0.74224 0.0
H283 H 0.71264 0.62578 0.78263 0.0
H284 H 0.67254 0.60775 0.83416 0.0
H285 H 0.67729 0.53243 0.85319 0.0
H286 H 0.71654 0.54982 0.80113 0.0
H287 H 0.70385 0.54386 0.7186 0.0
H288 H 0.66496 0.52946 0.66711 0.0
H289 H 0.69109 0.61638 0.64157 0.0
H290 H 0.73099 0.63096 0.69219 0.0
H291 H 0.78604 0.64195 0.76647 0.0
H292 H 0.8304 0.64322 0.78128 0.0
H293 H 0.78885 0.55316 0.76164 0.0
N294 N 0.73626 0.59763 0.75 0.0
H295 H 0.74562 0.55265 0.74347 0.0
C296 C 0.91925 0.59023 0.8608 0.0
C297 C 0.94464 0.60304 0.88447 0.0
C298 C 0.9499 0.58814 0.9169 0.0
C299 C 0.92967 0.56019 0.92648 0.0
C300 C 0.90318 0.54811 0.90598 0.0
C301 C 0.898 0.56296 0.87315 0.0
C302 C 0.9324 0.59855 0.78356 0.0
C303 C 0.92955 0.57192 0.77577 0.0
C304 C 0.94538 0.56845 0.74285 0.0
C305 C 0.96375 0.5912 0.71604 0.0
C306 C 0.96575 0.61749 0.72229 0.0
C307 C 0.95038 0.62117 0.75618 0.0
C308 C 0.89096 0.60045 0.80919 0.0
C309 C 0.88346 0.61882 0.82907 0.0
C310 C 0.85819 0.61778 0.81817 0.0
C311 C 0.83988 0.59854 0.78638 0.0
C312 C 0.84721 0.57969 0.76709 0.0
C313 C 0.87222 0.58036 0.77876 0.0
C314 C 0.71793 0.58947 0.78812 0.0
C315 C 0.70555 0.60574 0.79887 0.0
C316 C 0.68257 0.59538 0.82773 0.0
C317 C 0.67196 0.56871 0.84683 0.0
C318 C 0.68527 0.55304 0.83844 0.0
C319 C 0.70794 0.5632 0.80898 0.0
C320 C 0.7208 0.58871 0.70903 0.0
C321 C 0.70262 0.55998 0.69993 0.0
C322 C 0.67998 0.55167 0.67096 0.0
C323 C 0.67498 0.57187 0.65111 0.0
C324 C 0.69464 0.6005 0.65661 0.0
C325 C 0.71754 0.6088 0.68508 0.0
C326 C 0.76233 0.59733 0.75434 0.0
C327 C 0.78674 0.6226 0.7647 0.0
C328 C 0.812 0.62315 0.77381 0.0
C329 C 0.81334 0.59819 0.77364 0.0
C330 C 0.78894 0.57291 0.76186 0.0
C331 C 0.76383 0.57253 0.75179 0.0
H332 H 0.09336 0.69696 0.27375 0.0
N333 N 0.14511 0.71697 0.24118 0.0
H334 H 0.0704 0.66113 0.33196 0.0
H335 H 0.17084 0.69631 0.29481 0.0
H336 H 0.14789 0.66053 0.35282 0.0
H337 H 0.10408 0.70081 0.1822 0.0
H338 H 0.08764 0.66104 0.13082 0.0
H339 H 0.17534 0.69154 0.21654 0.0
H340 H 0.15931 0.65228 0.16427 0.0
H341 H 0.19039 0.7419 0.18263 0.0
H342 H 0.16192 0.75144 0.31195 0.0
H343 H 0.23484 0.78488 0.19432 0.0
H344 H 0.20654 0.79431 0.3234 0.0
H345 H 0.33794 0.85818 0.33365 0.0
H346 H 0.37142 0.86944 0.39431 0.0
H347 H 0.38131 0.95224 0.40423 0.0
H348 H 0.3476 0.94095 0.3436 0.0
H349 H 0.33481 0.938 0.2372 0.0
H350 H 0.37363 0.96422 0.18428 0.0
H351 H 0.40664 0.9094 0.21385 0.0
H352 H 0.36832 0.88349 0.26655 0.0
H353 H 0.32204 0.84802 0.25326 0.0
H354 H 0.27801 0.80435 0.24051 0.0
H355 H 0.23166 0.84205 0.29482 0.0
N356 N 0.32783 0.89652 0.29085 0.0
H357 H 0.27599 0.88573 0.30799 0.0
C358 C 0.1337 0.69929 0.27994 0.0
C359 C 0.10551 0.68951 0.29154 0.0
C360 C 0.09245 0.66911 0.32448 0.0
C361 C 0.10751 0.65825 0.34634 0.0
C362 C 0.13603 0.66875 0.33616 0.0
C363 C 0.14907 0.68911 0.30313 0.0
C364 C 0.1409 0.69928 0.20311 0.0
C365 C 0.11676 0.69095 0.17731 0.0
C366 C 0.10732 0.66821 0.14827 0.0
C367 C 0.12212 0.65359 0.1442 0.0
C368 C 0.14758 0.66328 0.16715 0.0
C369 C 0.15675 0.68572 0.19685 0.0
C370 C 0.17277 0.7418 0.2476 0.0
C371 C 0.19369 0.75241 0.21418 0.0
C372 C 0.2193 0.77734 0.22066 0.0
C373 C 0.2244 0.79285 0.26 0.0
C374 C 0.20334 0.78288 0.29269 0.0
C375 C 0.17786 0.758 0.28634 0.0
C376 C 0.34046 0.89896 0.33371 0.0
C377 C 0.34628 0.87833 0.34992 0.0
C378 C 0.36536 0.88469 0.38467 0.0
C379 C 0.3789 0.91172 0.40335 0.0
C380 C 0.37095 0.93125 0.39028 0.0
C381 C 0.35179 0.92484 0.35575 0.0
C382 C 0.34832 0.9086 0.25551 0.0
C383 C 0.3501 0.93132 0.23155 0.0
C384 C 0.37227 0.94635 0.20176 0.0
C385 C 0.39298 0.93876 0.19551 0.0
C386 C 0.39084 0.91554 0.21836 0.0
C387 C 0.36875 0.90059 0.24817 0.0
C388 C 0.30236 0.87038 0.28161 0.0
C389 C 0.30253 0.84711 0.26228 0.0
C390 C 0.27723 0.82205 0.25481 0.0
C391 C 0.25131 0.81967 0.26673 0.0
C392 C 0.25126 0.84302 0.2858 0.0
C393 C 0.27652 0.86804 0.29313 0.0
H394 H 0.43091 0.07804 0.66728 0.0
N395 N 0.45403 0.12183 0.72141 0.0
H396 H 0.45449 0.06753 0.60739 0.0
H397 H 0.50469 0.15977 0.68384 0.0
H398 H 0.52805 0.14955 0.62289 0.0
H399 H 0.50538 0.13302 0.75327 0.0
H400 H 0.51386 0.10522 0.80807 0.0
H401 H 0.41572 0.0788 0.76916 0.0
H402 H 0.42428 0.05064 0.82395 0.0
H403 H 0.42515 0.14182 0.67999 0.0
H404 H 0.48776 0.16325 0.78195 0.0
H405 H 0.42658 0.18642 0.69194 0.0
H406 H 0.48796 0.20676 0.79596 0.0
H407 H 0.42886 0.3278 0.73372 0.0
H408 H 0.44341 0.36063 0.67073 0.0
H409 H 0.5157 0.3506 0.64977 0.0
H410 H 0.50168 0.31845 0.71275 0.0
H411 H 0.50869 0.34973 0.78507 0.0
H412 H 0.52136 0.38068 0.84945 0.0
H413 H 0.44108 0.32436 0.90981 0.0
H414 H 0.42756 0.29415 0.8437 0.0
H415 H 0.41287 0.25392 0.74986 0.0
H416 H 0.41238 0.20949 0.74093 0.0
H417 H 0.50158 0.25187 0.77012 0.0
N418 N 0.45644 0.30399 0.76836 0.0
H419 H 0.50117 0.29572 0.78185 0.0
C420 C 0.466 0.1195 0.68012 0.0
C421 C 0.45179 0.09406 0.65687 0.0
C422 C 0.46523 0.08809 0.62285 0.0
C423 C 0.49309 0.10764 0.61124 0.0
C424 C 0.50656 0.13421 0.63161 0.0
C425 C 0.49321 0.14002 0.66627 0.0
C426 C 0.45977 0.10818 0.75755 0.0
C427 C 0.48751 0.1154 0.76897 0.0
C428 C 0.49238 0.09946 0.8 0.0
C429 C 0.46969 0.07588 0.81979 0.0
C430 C 0.44202 0.06881 0.80895 0.0
C431 C 0.43716 0.08493 0.77812 0.0
C432 C 0.45603 0.14873 0.72995 0.0
C433 C 0.43902 0.15601 0.7052 0.0
C434 C 0.43969 0.18146 0.71247 0.0
C435 C 0.45714 0.20023 0.74541 0.0
C436 C 0.47446 0.19308 0.76999 0.0
C437 C 0.47415 0.1678 0.76213 0.0
C438 C 0.46392 0.32046 0.72806 0.0
C439 C 0.44756 0.3323 0.71504 0.0
C440 C 0.4558 0.35092 0.67921 0.0
C441 C 0.48058 0.35791 0.65574 0.0
C442 C 0.49643 0.34526 0.66742 0.0
C443 C 0.48831 0.32682 0.70345 0.0
C444 C 0.46669 0.31992 0.80892 0.0
C445 C 0.49373 0.34386 0.81198 0.0
C446 C 0.50107 0.36151 0.84892 0.0
C447 C 0.48194 0.35513 0.88404 0.0
C448 C 0.45598 0.32989 0.88279 0.0
C449 C 0.44831 0.31266 0.84524 0.0
C450 C 0.45698 0.27805 0.76604 0.0
C451 C 0.43219 0.25342 0.75477 0.0
C452 C 0.4321 0.22813 0.74916 0.0
C453 C 0.45707 0.227 0.754 0.0
C454 C 0.48188 0.25173 0.76642 0.0
C455 C 0.48178 0.27695 0.77281 0.0
C456 C 0.056 0.44252 0.12286 0.0
C457 C 0.04664 0.46133 0.13653 0.0
C458 C 0.07115 0.46849 0.20765 0.0
C459 C 0.07943 0.44887 0.19442 0.0
N460 N 0.07595 0.41342 0.14381 0.0
N461 N 0.04293 0.49036 0.19348 0.0
C462 C 0.07064 0.4347 0.15333 0.0
C463 C 0.05327 0.47353 0.1796 0.0
N464 N 0.05157 0.43267 0.08033 0.0
N465 N 0.08145 0.48322 0.24624 0.0
H466 H 0.03217 0.49702 0.17292 0.0
H467 H 0.04383 0.49683 0.22615 0.0
H468 H 0.09377 0.47943 0.26839 0.0
H469 H 0.07935 0.50037 0.25532 0.0
H470 H 0.06084 0.42183 0.0667 0.0
H471 H 0.04009 0.43694 0.05736 0.0
H472 H 0.0674 0.40004 0.11674 0.0
H473 H 0.08712 0.40756 0.16505 0.0
C474 C 0.59668 0.03912 0.64654 0.0
C475 C 0.59939 0.0301 0.60364 0.0
C476 C 0.6508 0.05878 0.60899 0.0
C477 C 0.64805 0.06569 0.6533 0.0
N478 N 0.61847 0.05572 0.71806 0.0
N479 N 0.62911 0.02578 0.54869 0.0
C480 C 0.621 0.05373 0.67331 0.0
C481 C 0.62651 0.03823 0.58626 0.0
N482 N 0.57138 0.03544 0.66091 0.0
N483 N 0.67628 0.07261 0.58792 0.0
H484 H 0.61181 0.00983 0.53208 0.0
H485 H 0.64841 0.02911 0.53683 0.0
H486 H 0.69447 0.08826 0.60312 0.0
H487 H 0.67878 0.07041 0.55419 0.0
H488 H 0.56924 0.04443 0.69003 0.0
H489 H 0.55313 0.02609 0.6418 0.0
H490 H 0.59922 0.04507 0.73464 0.0
H491 H 0.63579 0.06544 0.73919 0.0
C492 C 0.57134 0.56763 0.14943 0.0
C493 C 0.57884 0.56655 0.1046 0.0
C494 C 0.61265 0.61751 0.10578 0.0
C495 C 0.60456 0.61852 0.1499 0.0
N496 N 0.58063 0.59484 0.2171 0.0
N497 N 0.60393 0.59107 0.03794 0.0
C498 C 0.58525 0.59362 0.17276 0.0
C499 C 0.59892 0.59163 0.08226 0.0
N500 N 0.54922 0.54443 0.16844 0.0
N501 N 0.63416 0.64126 0.08689 0.0
H502 H 0.59528 0.57279 0.0192 0.0
H503 H 0.61523 0.60894 0.01848 0.0
H504 H 0.64421 0.66069 0.10292 0.0
H505 H 0.64371 0.64152 0.05693 0.0
H506 H 0.54039 0.54466 0.19888 0.0
H507 H 0.5378 0.52517 0.1523 0.0
H508 H 0.5696 0.57719 0.23715 0.0
H509 H 0.58967 0.61361 0.23498 0.0
C510 C 0.02408 0.59357 0.64885 0.0
C511 C 0.00882 0.5689 0.62274 0.0
C512 C 0.9649 0.56623 0.64764 0.0
C513 C 0.97991 0.58654 0.68067 0.0
N514 N 0.02434 0.61737 0.7164 0.0
N515 N 0.96296 0.52875 0.60397 0.0
C516 C 0.00971 0.59981 0.68222 0.0
C517 C 0.97872 0.5545 0.62342 0.0
N518 N 0.052 0.61165 0.6408 0.0
N519 N 0.93735 0.55806 0.63942 0.0
H520 H 0.97124 0.51783 0.58772 0.0
H521 H 0.94122 0.51657 0.60826 0.0
H522 H 0.92673 0.56666 0.65616 0.0
H523 H 0.92619 0.54522 0.6128 0.0
H524 H 0.06338 0.631 0.65672 0.0
H525 H 0.0628 0.60903 0.61442 0.0
H526 H 0.04582 0.62517 0.72117 0.0
H527 H 0.01468 0.62211 0.74211 0.0
C528 C 0.46836 0.98542 0.15545 0.0
C529 C 0.46444 0.98517 0.10884 0.0
C530 C 0.41364 0.95272 0.1191 0.0
C531 C 0.41735 0.95542 0.16562 0.0
N532 N 0.44728 0.97842 0.22839 0.0
N533 N 0.43227 0.97203 0.04685 0.0
C534 C 0.44443 0.97309 0.18388 0.0
C535 C 0.43676 0.96977 0.0908 0.0
N536 N 0.49478 0.99565 0.1726 0.0
N537 N 0.38827 0.93309 0.10185 0.0
H538 H 0.44838 0.98383 0.02451 0.0
H539 H 0.41229 0.96411 0.03315 0.0
H540 H 0.37074 0.9203 0.12144 0.0
H541 H 0.38524 0.92776 0.06838 0.0
H542 H 0.49849 0.99361 0.20587 0.0
H543 H 0.51287 0.0034 0.1531 0.0
H544 H 0.46606 0.99348 0.24288 0.0
H545 H 0.43025 0.96967 0.25033 0.0
C546 C 0.48503 0.39828 0.55046 0.0
C547 C 0.50851 0.42498 0.56052 0.0
C548 C 0.51417 0.40747 0.63213 0.0
C549 C 0.49124 0.38047 0.62168 0.0
N550 N 0.45849 0.34842 0.56789 0.0
N551 N 0.5498 0.45308 0.60478 0.0
C552 C 0.47783 0.37531 0.57977 0.0
C553 C 0.52449 0.42891 0.59944 0.0
N554 N 0.46883 0.39523 0.51422 0.0
N555 N 0.52519 0.41312 0.67398 0.0
H556 H 0.55822 0.46898 0.58093 0.0
H557 H 0.56371 0.45614 0.63046 0.0
H558 H 0.51815 0.39813 0.69923 0.0
H559 H 0.53966 0.43327 0.68487 0.0
H560 H 0.44953 0.37725 0.50803 0.0
H561 H 0.47383 0.41143 0.4916 0.0
H562 H 0.44996 0.34286 0.53622 0.0
H563 H 0.45271 0.3312 0.58874 0.0
C564 C 0.55832 0.93529 0.43165 0.0
C565 C 0.57302 0.96534 0.42926 0.0
C566 C 0.60442 0.96375 0.37292 0.0
C567 C 0.59114 0.93411 0.37782 0.0
N568 N 0.561 0.89294 0.42103 0.0
N569 N 0.61636 0.00747 0.40926 0.0
C570 C 0.56991 0.92031 0.41025 0.0
C571 C 0.59801 0.9794 0.40343 0.0
N572 N 0.5326 0.92061 0.45186 0.0
N573 N 0.62218 0.97699 0.33811 0.0
H574 H 0.61371 0.0193 0.43386 0.0
H575 H 0.63595 0.01802 0.39361 0.0
H576 H 0.62678 0.96636 0.31385 0.0
H577 H 0.63007 0.99822 0.33099 0.0
H578 H 0.51998 0.89884 0.44934 0.0
H579 H 0.5223 0.92974 0.46756 0.0
H580 H 0.54763 0.8827 0.44769 0.0
H581 H 0.56935 0.88147 0.40634 0.0
C582 C 0.62436 0.5496 0.94766 0.0
C583 C 0.59716 0.53406 0.92774 0.0
C584 C 0.61961 0.53843 0.85523 0.0
C585 C 0.64621 0.55669 0.87454 0.0
N586 N 0.67406 0.58276 0.93731 0.0
N587 N 0.56873 0.51271 0.86266 0.0
C588 C 0.6486 0.56314 0.9202 0.0
C589 C 0.59476 0.52831 0.88145 0.0
N590 N 0.62753 0.55093 0.99272 0.0
N591 N 0.61825 0.53016 0.81209 0.0
H592 H 0.55026 0.50168 0.8811 0.0
H593 H 0.5652 0.51115 0.82864 0.0
H594 H 0.63592 0.53771 0.79162 0.0
H595 H 0.60006 0.5145 0.7971 0.0
H596 H 0.64699 0.5588 0.00822 0.0
H597 H 0.61107 0.54215 0.01537 0.0
H598 H 0.6764 0.59133 0.96888 0.0
H599 H 0.69265 0.59226 0.91881 0.0
C600 C 0.06976 0.61623 0.44956 0.0
C601 C 0.06507 0.58921 0.4376 0.0
C602 C 0.08574 0.60701 0.36441 0.0
C603 C 0.09286 0.63454 0.37792 0.0
N604 N 0.09564 0.66643 0.4352 0.0
N605 N 0.07358 0.56001 0.38729 0.0
C606 C 0.086 0.63948 0.42107 0.0
C607 C 0.07435 0.58485 0.39595 0.0
N608 N 0.0578 0.61946 0.4873 0.0
N609 N 0.08917 0.60188 0.32114 0.0
H610 H 0.066 0.54341 0.40986 0.0
H611 H 0.08291 0.55682 0.35946 0.0
H612 H 0.09751 0.61756 0.29695 0.0
H613 H 0.08147 0.58171 0.30837 0.0
H614 H 0.05801 0.638 0.49541 0.0
H615 H 0.04542 0.60285 0.5087 0.0
H616 H 0.09397 0.67157 0.46786 0.0
H617 H 0.10741 0.68396 0.41508 0.0
C618 C 0.47469 0.0424 0.92746 0.0
C619 C 0.48998 0.02912 0.9131 0.0
C620 C 0.48692 0.04222 0.83638 0.0
C621 C 0.47514 0.05854 0.85169 0.0
N622 N 0.46183 0.07787 0.91269 0.0
N623 N 0.516 0.02203 0.85437 0.0
C624 C 0.47 0.05956 0.89747 0.0
C625 C 0.49736 0.0303 0.86759 0.0
N626 N 0.46403 0.03816 0.9695 0.0
N627 N 0.48791 0.03788 0.79197 0.0
H628 H 0.52562 0.0147 0.87611 0.0
H629 H 0.52431 0.02533 0.82242 0.0
H630 H 0.48041 0.04626 0.76812 0.0
H631 H 0.49364 0.02381 0.77916 0.0
H632 H 0.45005 0.04463 0.98004 0.0
H633 H 0.46699 0.02593 0.99278 0.0
H634 H 0.46104 0.08195 0.94622 0.0
H635 H 0.45822 0.09091 0.89189 0.0
C636 C 0.43495 0.50198 0.47616 0.0
C637 C 0.44337 0.48215 0.48751 0.0
C638 C 0.4092 0.44821 0.43533 0.0
C639 C 0.40061 0.46789 0.4239 0.0
N640 N 0.39886 0.50955 0.44351 0.0
N641 N 0.43163 0.43368 0.4901 0.0
C642 C 0.4113 0.49346 0.44788 0.0
C643 C 0.42792 0.45425 0.47135 0.0
N644 N 0.45047 0.52934 0.48953 0.0
N645 N 0.40143 0.42484 0.40994 0.0
H646 H 0.44499 0.43763 0.5171 0.0
H647 H 0.41929 0.41245 0.48209 0.0
H648 H 0.38887 0.42004 0.38182 0.0
H649 H 0.40971 0.41156 0.41434 0.0
H650 H 0.44725 0.54527 0.47737 0.0
H651 H 0.46782 0.53665 0.51039 0.0
H652 H 0.40415 0.52714 0.46308 0.0
H653 H 0.38126 0.50358 0.42346 0.0
C654 C 0.99201 0.44107 0.89555 0.0
C655 C 0.99509 0.43512 0.94037 0.0
C656 C 0.96912 0.38446 0.92403 0.0
C657 C 0.96887 0.39074 0.87856 0.0
N658 N 0.98316 0.42478 0.81948 0.0
N659 N 0.98902 0.40121 0.99672 0.0
C660 C 0.98128 0.419 0.86385 0.0
C661 C 0.98417 0.4068 0.95455 0.0
N662 N 0.99773 0.46747 0.8837 0.0
N663 N 0.95438 0.35714 0.93817 0.0
H664 H 0.99913 0.41672 0.02058 0.0
H665 H 0.98479 0.38143 0.00733 0.0
H666 H 0.94374 0.34019 0.91659 0.0
H667 H 0.95088 0.35133 0.97143 0.0
H668 H 0.99294 0.47227 0.85269 0.0
H669 H 0.00451 0.48404 0.90614 0.0
H670 H 0.99484 0.44502 0.80652 0.0
H671 H 0.97489 0.40916 0.79523 0.0
C672 C 0.95739 0.53677 0.02312 0.0
C673 C 0.96209 0.51631 0.00216 0.0
C674 C 0.94348 0.52302 0.93243 0.0
C675 C 0.93789 0.54284 0.95361 0.0
N676 N 0.93346 0.56391 0.02088 0.0
N677 N 0.95236 0.4843 0.94135 0.0
C678 C 0.94282 0.54813 -0.00033 0.0
C679 C 0.95273 0.5076 0.95822 0.0
N680 N 0.96827 0.5466 0.06425 0.0
N681 N 0.94161 0.52007 0.88735 0.0
H682 H 0.95846 0.47216 0.95979 0.0
H683 H 0.94331 0.47537 0.91097 0.0
H684 H 0.93533 0.53118 0.86679 0.0
H685 H 0.94864 0.50838 0.86988 0.0
H686 H 0.96836 0.5638 0.07899 0.0
H687 H 0.97911 0.53891 0.08249 0.0
H688 H 0.934 0.56633 0.05516 0.0
H689 H 0.92275 0.57248 0.00444 0.0
C690 C 0.43185 0.94157 0.49767 0.0
C691 C 0.45682 0.94642 0.47547 0.0
C692 C 0.43034 0.92811 0.40648 0.0
C693 C 0.40513 0.92159 0.42925 0.0
N694 N 0.38066 0.91706 0.49775 0.0
N695 N 0.47821 0.93767 0.4118 0.0
C696 C 0.4055 0.92662 0.47537 0.0
C697 C 0.45551 0.93755 0.43085 0.0
N698 N 0.43342 0.95278 0.53872 0.0
N699 N 0.4307 0.92679 0.36119 0.0
H700 H 0.49719 0.94449 0.42826 0.0
H701 H 0.47733 0.92844 0.38122 0.0
H702 H 0.41287 0.92022 0.34152 0.0
H703 H 0.44921 0.93468 0.34273 0.0
H704 H 0.41634 0.95256 0.5543 0.0
H705 H 0.45227 0.96447 0.55583 0.0
H706 H 0.37936 0.91757 0.53214 0.0
H707 H 0.36112 0.90635 0.48206 0.0
C708 C 0.52317 0.409 0.97353 0.0
C709 C 0.50574 0.42098 0.98105 0.0
C710 C 0.47201 0.38899 0.9263 0.0
C711 C 0.48859 0.37594 0.92043 0.0
N712 N 0.52567 0.36849 0.94762 0.0
N713 N 0.45971 0.41621 0.97509 0.0
C714 C 0.51276 0.38428 0.94718 0.0
C715 C 0.47883 0.40884 0.96092 0.0
N716 N 0.55026 0.42208 0.9887 0.0
N717 N 0.45094 0.38401 0.89719 0.0
H718 H 0.46379 0.43006 0.00141 0.0
H719 H 0.4389 0.40623 0.96414 0.0
H720 H 0.44595 0.37075 0.86988 0.0
H721 H 0.4403 0.3953 0.89756 0.0
H722 H 0.5647 0.41587 0.97965 0.0
H723 H 0.55922 0.44059 0.00711 0.0
H724 H 0.54179 0.37211 0.96958 0.0
H725 H 0.5183 0.35004 0.92919 0.0
C726 C 0.12874 0.52949 0.50274 0.0
C727 C 0.10009 0.51132 0.51437 0.0
C728 C 0.09953 0.473 0.47248 0.0
C729 C 0.12846 0.49074 0.46177 0.0
N730 N 0.17234 0.53319 0.47627 0.0
N731 N 0.06172 0.46385 0.52331 0.0
C732 C 0.14368 0.51813 0.48024 0.0
C733 C 0.08675 0.48237 0.50369 0.0
N734 N 0.14119 0.55772 0.51049 0.0
N735 N 0.08356 0.44817 0.45057 0.0
H736 H 0.05217 0.47007 0.54725 0.0
H737 H 0.05221 0.44211 0.51951 0.0
H738 H 0.09136 0.44089 0.42548 0.0
H739 H 0.06175 0.43613 0.45411 0.0
H740 H 0.16093 0.57229 0.498 0.0
H741 H 0.13103 0.56692 0.52676 0.0
H742 H 0.18483 0.55225 0.49239 0.0
H743 H 0.18378 0.52523 0.46028 0.0
C744 C 0.62708 0.067 0.97457 0.0
C745 C 0.60432 0.07221 0.97179 0.0
C746 C 0.62968 0.10713 0.91362 0.0
C747 C 0.65342 0.10351 0.92 0.0
N748 N 0.67737 0.087 0.96771 0.0
N749 N 0.5859 0.10102 0.94415 0.0
C750 C 0.65307 0.0861 0.95482 0.0
C751 C 0.60645 0.09387 0.94358 0.0
N752 N 0.6233 0.04255 0.99231 0.0
N753 N 0.62813 0.12116 0.87733 0.0
H754 H 0.56808 0.0909 0.96435 0.0
H755 H 0.58771 0.11841 0.92726 0.0
H756 H 0.64401 0.13031 0.8536 0.0
H757 H 0.60998 0.12164 0.86871 0.0
H758 H 0.63896 0.03704 0.99231 0.0
H759 H 0.60336 0.02614 0.00029 0.0
H760 H 0.67825 0.07577 0.99496 0.0
H761 H 0.69693 0.10124 0.95404 0.0
C762 C 0.53906 0.57355 0.4141 0.0
C763 C 0.55512 0.55976 0.41626 0.0
C764 C 0.59045 0.59599 0.36784 0.0
C765 C 0.57717 0.61238 0.37331 0.0
N766 N 0.54087 0.6183 0.40871 0.0
N767 N 0.59915 0.56104 0.40098 0.0
C768 C 0.55196 0.60158 0.39834 0.0
C769 C 0.58162 0.57168 0.39449 0.0
N770 N 0.51125 0.55961 0.4259 0.0
N771 N 0.61087 0.60305 0.33636 0.0
H772 H 0.59426 0.54401 0.42168 0.0
H773 H 0.61982 0.57099 0.38921 0.0
H774 H 0.61709 0.61997 0.31471 0.0
H775 H 0.61929 0.59024 0.32856 0.0
H776 H 0.4981 0.56805 0.42144 0.0
H777 H 0.5006 0.53843 0.43504 0.0
H778 H 0.52394 0.612 0.43044 0.0
H779 H 0.55031 0.63938 0.39937 0.0
C780 C 0.54159 0.08086 0.57306 0.0
C781 C 0.5293 0.0693 0.53153 0.0
C782 C 0.50069 0.09203 0.53683 0.0
C783 C 0.50877 0.09848 0.58187 0.0
N784 N 0.535 0.09622 0.64473 0.0
N785 N 0.49672 0.06318 0.47325 0.0
C786 C 0.52911 0.09262 0.60039 0.0
C787 C 0.50909 0.07513 0.51271 0.0
N788 N 0.56518 0.08039 0.58635 0.0
N789 N 0.4849 0.10199 0.51742 0.0
H790 H 0.50272 0.05111 0.45443 0.0
H791 H 0.47947 0.0639 0.46041 0.0
H792 H 0.4786 0.11447 0.53449 0.0
H793 H 0.48031 0.10009 0.4837 0.0
H794 H 0.57656 0.09063 0.61465 0.0
H795 H 0.57504 0.0723 0.56643 0.0
H796 H 0.5471 0.08906 0.66061 0.0
H797 H 0.52594 0.10411 0.66664 0.0
C798 C 0.46402 0.51119 0.10045 0.0
C799 C 0.45932 0.4962 0.06019 0.0
C800 C 0.40853 0.4706 0.07533 0.0
C801 C 0.41391 0.48224 0.11864 0.0
N802 N 0.44725 0.51162 0.17448 0.0
N803 N 0.42751 0.46077 0.00925 0.0
C804 C 0.44176 0.50228 0.13164 0.0
C805 C 0.43161 0.47592 0.04721 0.0
N806 N 0.48981 0.53423 0.10855 0.0
N807 N 0.38135 0.45465 0.06115 0.0
H808 H 0.44384 0.4646 0.98744 0.0
H809 H 0.40829 0.44337 0.00065 0.0
H810 H 0.36409 0.45043 0.0811 0.0
H811 H 0.37594 0.44767 0.02865 0.0
H812 H 0.49387 0.54764 0.13541 0.0
H813 H 0.50639 0.54162 0.08586 0.0
H814 H 0.46755 0.52355 0.18709 0.0
H815 H 0.43165 0.50563 0.19864 0.0
C816 C 0.97562 0.44933 0.62107 0.0
C817 C 0.98276 0.451 0.57543 0.0
C818 C 0.95927 0.39945 0.57227 0.0
C819 C 0.95536 0.39825 0.61882 0.0
N820 N 0.96534 0.42263 0.68899 0.0
N821 N 0.98632 0.42768 0.5097 0.0
C822 C 0.965 0.42334 0.64367 0.0
C823 C 0.97576 0.42606 0.55137 0.0
N824 N 0.97827 0.47238 0.6428 0.0
N825 N 0.94701 0.37521 0.54798 0.0
H826 H 0.99949 0.44666 0.49372 0.0
H827 H 0.98436 0.41027 0.49271 0.0
H828 H 0.93491 0.35539 0.56235 0.0
H829 H 0.94675 0.37499 0.51346 0.0
H830 H 0.97042 0.47144 0.67463 0.0
H831 H 0.98577 0.49188 0.6277 0.0
H832 H 0.97513 0.44069 0.70848 0.0
H833 H 0.95838 0.40416 0.70718 0.0
C834 C 0.53487 0.92966 0.07975 0.0
C835 C 0.55317 0.95749 0.06433 0.0
C836 C 0.59357 0.95266 0.0843 0.0
C837 C 0.57589 0.92713 0.10667 0.0
N838 N 0.52891 0.89413 0.13312 0.0
N839 N 0.59983 0.99835 0.07044 0.0
C840 C 0.54618 0.91606 0.10611 0.0
C841 C 0.58253 0.96993 0.07172 0.0
N842 N 0.50667 0.91667 0.07111 0.0
N843 N 0.62109 0.96079 0.07587 0.0
H844 H 0.59222 0.01226 0.06844 0.0
H845 H 0.62119 0.00801 0.07835 0.0
H846 H 0.62965 0.94805 0.08341 0.0
H847 H 0.63416 0.97862 0.0571 0.0
H848 H 0.49301 0.8954 0.07749 0.0
H849 H 0.4972 0.92673 0.05535 0.0
H850 H 0.50755 0.88729 0.13716 0.0
H851 H 0.53623 0.88455 0.15492 0.0
C852 C 0.59576 0.53786 0.6373 0.0
C853 C 0.5936 0.5431 0.59186 0.0
C854 C 0.64505 0.56647 0.58435 0.0
C855 C 0.6472 0.56306 0.63045 0.0
N856 N 0.62508 0.55285 0.70263 0.0
N857 N 0.61647 0.56842 0.52486 0.0
C858 C 0.62269 0.55103 0.65752 0.0
C859 C 0.61837 0.55923 0.56613 0.0
N860 N 0.57248 0.51911 0.66068 0.0
N861 N 0.66824 0.57577 0.55777 0.0
H862 H 0.59741 0.56454 0.51113 0.0
H863 H 0.63398 0.58234 0.50624 0.0
H864 H 0.68812 0.58124 0.57001 0.0
H865 H 0.66728 0.57579 0.5233 0.0
H866 H 0.57362 0.51238 0.69252 0.0
H867 H 0.55239 0.50806 0.64694 0.0
H868 H 0.60788 0.54694 0.7236 0.0
H869 H 0.64446 0.56306 0.71883 0.0
C870 C 0.08786 0.59989 0.05161 0.0
C871 C 0.08007 0.57446 0.07468 0.0
C872 C 0.09945 0.60087 0.14334 0.0
C873 C 0.10923 0.62647 0.11966 0.0
N874 N 0.11809 0.6506 0.04963 0.0
N875 N 0.08554 0.55163 0.13917 0.0
C876 C 0.10515 0.62605 0.07319 0.0
C877 C 0.08807 0.57524 0.11955 0.0
N878 N 0.07753 0.59917 0.01015 0.0
N879 N 0.0996 0.60075 0.18867 0.0
H880 H 0.07837 0.53271 0.12221 0.0
H881 H 0.09347 0.5517 0.17056 0.0
H882 H 0.10687 0.61889 0.20776 0.0
H883 H 0.08991 0.58232 0.20738 0.0
H884 H 0.08006 0.61702 0.99388 0.0
H885 H 0.06426 0.58052 0.9935 0.0
H886 H 0.11814 0.65132 0.01513 0.0
H887 H 0.13104 0.67008 0.06443 0.0
loop_
_geom_bond_atom_site_label_1
_geom_bond_atom_site_label_2
_geom_bond_distance
_geom_bond_site_symmetry_2
_ccdc_geom_bond_type
C0 O2 1.247 . S
C0 O4 1.258 . S
C1 O8 1.247 . S
C1 O9 1.258 . S
O2 C0 1.247 . S
O2 Zn3 2.028 1_455 S
Zn3 O2 2.028 1_655 S
Zn3 O7 2.035 . S
Zn3 O9 2.035 . S
Zn3 O10 2.028 1_655 S
O4 C0 1.258 . S
O4 Zn5 2.035 . S
Zn5 O4 2.035 . S
Zn5 O6 2.028 1_455 S
Zn5 O8 2.028 1_455 S
Zn5 O11 2.035 . S
O6 Zn5 2.028 1_655 S
O6 C12 1.247 . S
O7 Zn3 2.035 . S
O7 C12 1.258 . S
O8 C1 1.247 . S
O8 Zn5 2.028 1_655 S
O9 C1 1.258 . S
O9 Zn3 2.035 . S
O10 Zn3 2.028 1_455 S
O10 C13 1.247 . S
O11 Zn5 2.035 . S
O11 C13 1.258 . S
C12 O6 1.247 . S
C12 O7 1.258 . S
C13 O10 1.247 . S
C13 O11 1.258 . S
C14 O16 1.247 . S
C14 O18 1.258 . S
C15 O22 1.247 . S
C15 O23 1.258 . S
O16 C14 1.247 . S
O16 Zn17 2.028 1_545 S
Zn17 O16 2.028 1_565 S
Zn17 O21 2.035 . S
Zn17 O23 2.035 . S
Zn17 O24 2.028 1_565 S
O18 C14 1.258 . S
O18 Zn19 2.035 . S
Zn19 O18 2.035 . S
Zn19 O20 2.028 1_545 S
Zn19 O22 2.028 1_545 S
Zn19 O25 2.035 . S
O20 Zn19 2.028 1_565 S
O20 C26 1.247 . S
O21 Zn17 2.035 . S
O21 C26 1.258 . S
O22 C15 1.247 . S
O22 Zn19 2.028 1_565 S
O23 C15 1.258 . S
O23 Zn17 2.035 . S
O24 Zn17 2.028 1_545 S
O24 C27 1.247 . S
O25 Zn19 2.035 . S
O25 C27 1.258 . S
C26 O20 1.247 . S
C26 O21 1.258 . S
C27 O24 1.247 . S
C27 O25 1.258 . S
C28 O30 1.247 . S
C28 O32 1.258 1_556 S
C29 O36 1.247 . S
C29 O37 1.258 . S
O30 C28 1.247 . S
O30 Zn31 2.028 . S
Zn31 O30 2.028 . S
Zn31 O35 2.035 1_556 S
Zn31 O37 2.035 1_556 S
Zn31 O38 2.028 . S
O32 C28 1.258 1_554 S
O32 Zn33 2.035 . S
Zn33 O32 2.035 . S
Zn33 O34 2.028 . S
Zn33 O36 2.028 . S
Zn33 O39 2.035 . S
O34 Zn33 2.028 . S
O34 C40 1.247 . S
O35 Zn31 2.035 1_554 S
O35 C40 1.258 . S
O36 C29 1.247 . S
O36 Zn33 2.028 . S
O37 C29 1.258 . S
O37 Zn31 2.035 1_554 S
O38 Zn31 2.028 . S
O38 C41 1.247 . S
O39 Zn33 2.035 . S
O39 C41 1.258 1_554 S
C40 O34 1.247 . S
C40 O35 1.258 . S
C41 O38 1.247 . S
C41 O39 1.258 1_556 S
C42 O44 1.247 . S
C42 O46 1.258 . S
C43 O50 1.247 . S
C43 O51 1.258 . S
O44 C42 1.247 . S
O44 Zn45 2.028 . S
Zn45 O44 2.028 . S
Zn45 O49 2.035 . S
Zn45 O51 2.035 . S
Zn45 O52 2.028 . S
O46 C42 1.258 . S
O46 Zn47 2.035 . S
Zn47 O46 2.035 . S
Zn47 O48 2.028 . S
Zn47 O50 2.028 . S
Zn47 O53 2.035 . S
O48 Zn47 2.028 . S
O48 C54 1.247 . S
O49 Zn45 2.035 . S
O49 C54 1.258 . S
O50 C43 1.247 . S
O50 Zn47 2.028 . S
O51 C43 1.258 . S
O51 Zn45 2.035 . S
O52 Zn45 2.028 . S
O52 C55 1.247 . S
O53 Zn47 2.035 . S
O53 C55 1.258 . S
C54 O48 1.247 . S
C54 O49 1.258 . S
C55 O52 1.247 . S
C55 O53 1.258 . S
C56 O58 1.247 1_565 S
C56 O60 1.258 . S
C57 O64 1.247 . S
C57 O65 1.258 1_556 S
O58 C56 1.247 1_545 S
O58 Zn59 2.028 . S
Zn59 O58 2.028 . S
Zn59 O63 2.035 . S
Zn59 O65 2.035 . S
Zn59 O66 2.028 . S
O60 C56 1.258 . S
O60 Zn61 2.035 1_554 S
Zn61 O60 2.035 1_556 S
Zn61 O62 2.028 1_565 S
Zn61 O64 2.028 1_565 S
Zn61 O67 2.035 1_556 S
O62 Zn61 2.028 1_545 S
O62 C68 1.247 . S
O63 Zn59 2.035 . S
O63 C68 1.258 1_554 S
O64 C57 1.247 . S
O64 Zn61 2.028 1_545 S
O65 C57 1.258 1_554 S
O65 Zn59 2.035 . S
O66 Zn59 2.028 . S
O66 C69 1.247 1_545 S
O67 Zn61 2.035 1_554 S
O67 C69 1.258 . S
C68 O62 1.247 . S
C68 O63 1.258 1_556 S
C69 O66 1.247 1_565 S
C69 O67 1.258 . S
C70 O72 1.247 . S
C70 O74 1.258 . S
C71 O78 1.247 . S
C71 O79 1.258 . S
O72 C70 1.247 . S
O72 Zn73 2.028 . S
Zn73 O72 2.028 . S
Zn73 O77 2.035 . S
Zn73 O79 2.035 . S
Zn73 O80 2.028 . S
O74 C70 1.258 . S
O74 Zn75 2.035 . S
Zn75 O74 2.035 . S
Zn75 O76 2.028 . S
Zn75 O78 2.028 . S
Zn75 O81 2.035 . S
O76 Zn75 2.028 . S
O76 C82 1.247 . S
O77 Zn73 2.035 . S
O77 C82 1.258 . S
O78 C71 1.247 . S
O78 Zn75 2.028 . S
O79 C71 1.258 . S
O79 Zn73 2.035 . S
O80 Zn73 2.028 . S
O80 C83 1.247 . S
O81 Zn75 2.035 . S
O81 C83 1.258 . S
C82 O76 1.247 . S
C82 O77 1.258 . S
C83 O80 1.247 . S
C83 O81 1.258 . S
H84 C111 0.929 . S
N85 C110 1.433 . S
N85 C116 1.435 . S
N85 C122 1.423 . S
H86 C112 0.930 . S
H87 C115 0.931 . S
H88 C114 0.929 . S
H89 C117 0.930 . S
H90 C118 0.932 . S
H91 C121 0.929 . S
H92 C120 0.931 . S
H93 C123 0.929 . S
H94 C127 0.932 . S
H95 C124 0.931 . S
H96 C126 0.929 . S
H97 C129 0.929 . S
H98 C130 0.930 . S
H99 C132 0.929 . S
H100 C133 0.931 . S
H101 C135 0.930 . S
H102 C136 0.932 . S
H103 C138 0.931 . S
H104 C139 0.929 . S
H105 C141 0.929 . S
H106 C142 0.931 . S
H107 C144 0.929 . S
N108 C128 1.433 . S
N108 C134 1.435 . S
N108 C140 1.423 . S
H109 C145 0.932 . S
C110 N85 1.433 . S
C110 C111 1.363 . S
C110 C115 1.370 . S
C111 H84 0.929 . S
C111 C110 1.363 . S
C111 C112 1.385 . S
C112 H86 0.930 . S
C112 C111 1.385 . S
C112 C113 1.357 . S
C113 C112 1.357 . S
C113 C114 1.406 . S
C114 H88 0.929 . S
C114 C113 1.406 . S
C114 C115 1.391 . S
C115 H87 0.931 . S
C115 C110 1.370 . S
C115 C114 1.391 . S
C116 N85 1.435 . S
C116 C117 1.358 . S
C116 C121 1.371 . S
C117 H89 0.930 . S
C117 C116 1.358 . S
C117 C118 1.405 . S
C118 H90 0.932 . S
C118 C117 1.405 . S
C118 C119 1.383 . S
C119 C118 1.383 . S
C119 C120 1.393 . S
C120 H92 0.931 . S
C120 C119 1.393 . S
C120 C121 1.382 . S
C121 H91 0.929 . S
C121 C116 1.371 . S
C121 C120 1.382 . S
C122 N85 1.423 . S
C122 C123 1.362 . S
C122 C127 1.388 . S
C123 H93 0.929 . S
C123 C122 1.362 . S
C123 C124 1.376 . S
C124 H95 0.931 . S
C124 C123 1.376 . S
C124 C125 1.396 . S
C125 C124 1.396 . S
C125 C126 1.348 . S
C125 C143 1.472 . S
C126 H96 0.929 . S
C126 C125 1.348 . S
C126 C127 1.443 . S
C127 H94 0.932 . S
C127 C122 1.388 . S
C127 C126 1.443 . S
C128 N108 1.433 . S
C128 C129 1.363 . S
C128 C133 1.370 . S
C129 H97 0.929 . S
C129 C128 1.363 . S
C129 C130 1.385 . S
C130 H98 0.930 . S
C130 C129 1.385 . S
C130 C131 1.357 . S
C131 C130 1.357 . S
C131 C132 1.406 . S
C132 H99 0.929 . S
C132 C131 1.406 . S
C132 C133 1.391 . S
C133 H100 0.931 . S
C133 C128 1.370 . S
C133 C132 1.391 . S
C134 N108 1.435 . S
C134 C135 1.358 . S
C134 C139 1.371 . S
C135 H101 0.930 . S
C135 C134 1.358 . S
C135 C136 1.405 . S
C136 H102 0.932 . S
C136 C135 1.405 . S
C136 C137 1.383 . S
C137 C136 1.383 . S
C137 C138 1.393 . S
C138 H103 0.931 . S
C138 C137 1.393 . S
C138 C139 1.382 . S
C139 H104 0.929 . S
C139 C134 1.371 . S
C139 C138 1.382 . S
C140 N108 1.423 . S
C140 C141 1.362 . S
C140 C145 1.388 . S
C141 H105 0.929 . S
C141 C140 1.362 . S
C141 C142 1.376 . S
C142 H106 0.931 . S
C142 C141 1.376 . S
C142 C143 1.396 . S
C143 C125 1.472 . S
C143 C142 1.396 . S
C143 C144 1.348 . S
C144 H107 0.929 . S
C144 C143 1.348 . S
C144 C145 1.443 . S
C145 H109 0.932 . S
C145 C140 1.388 . S
C145 C144 1.443 . S
H146 C173 0.929 . S
N147 C172 1.433 . S
N147 C178 1.435 . S
N147 C184 1.423 . S
H148 C174 0.930 . S
H149 C177 0.931 . S
H150 C176 0.929 . S
H151 C179 0.930 . S
H152 C180 0.932 . S
H153 C183 0.929 . S
H154 C182 0.931 . S
H155 C185 0.929 . S
H156 C189 0.932 . S
H157 C186 0.931 . S
H158 C188 0.929 . S
H159 C191 0.929 . S
H160 C192 0.930 . S
H161 C194 0.929 . S
H162 C195 0.931 . S
H163 C197 0.930 . S
H164 C198 0.932 . S
H165 C200 0.931 . S
H166 C201 0.929 . S
H167 C203 0.929 . S
H168 C204 0.931 . S
H169 C206 0.929 . S
N170 C190 1.433 . S
N170 C196 1.435 . S
N170 C202 1.423 . S
H171 C207 0.932 . S
C172 N147 1.433 . S
C172 C173 1.363 . S
C172 C177 1.370 . S
C173 H146 0.929 . S
C173 C172 1.363 . S
C173 C174 1.385 . S
C174 H148 0.930 . S
C174 C173 1.385 . S
C174 C175 1.357 . S
C175 C174 1.357 . S
C175 C176 1.406 . S
C176 H150 0.929 . S
C176 C175 1.406 . S
C176 C177 1.391 . S
C177 H149 0.931 . S
C177 C172 1.370 . S
C177 C176 1.391 . S
C178 N147 1.435 . S
C178 C179 1.358 . S
C178 C183 1.371 . S
C179 H151 0.930 . S
C179 C178 1.358 . S
C179 C180 1.405 . S
C180 H152 0.932 . S
C180 C179 1.405 . S
C180 C181 1.383 . S
C181 C180 1.383 . S
C181 C182 1.393 . S
C182 H154 0.931 . S
C182 C181 1.393 . S
C182 C183 1.382 . S
C183 H153 0.929 . S
C183 C178 1.371 . S
C183 C182 1.382 . S
C184 N147 1.423 . S
C184 C185 1.362 . S
C184 C189 1.388 . S
C185 H155 0.929 . S
C185 C184 1.362 . S
C185 C186 1.376 . S
C186 H157 0.931 . S
C186 C185 1.376 . S
C186 C187 1.396 . S
C187 C186 1.396 . S
C187 C188 1.348 . S
C187 C205 1.472 . S
C188 H158 0.929 . S
C188 C187 1.348 . S
C188 C189 1.443 . S
C189 H156 0.932 . S
C189 C184 1.388 . S
C189 C188 1.443 . S
C190 N170 1.433 . S
C190 C191 1.363 . S
C190 C195 1.370 . S
C191 H159 0.929 . S
C191 C190 1.363 . S
C191 C192 1.385 . S
C192 H160 0.930 . S
C192 C191 1.385 . S
C192 C193 1.357 . S
C193 C192 1.357 . S
C193 C194 1.406 . S
C194 H161 0.929 . S
C194 C193 1.406 . S
C194 C195 1.391 . S
C195 H162 0.931 . S
C195 C190 1.370 . S
C195 C194 1.391 . S
C196 N170 1.435 . S
C196 C197 1.358 . S
C196 C201 1.371 . S
C197 H163 0.930 . S
C197 C196 1.358 . S
C197 C198 1.405 . S
C198 H164 0.932 . S
C198 C197 1.405 . S
C198 C199 1.383 . S
C199 C198 1.383 . S
C199 C200 1.393 . S
C200 H165 0.931 . S
C200 C199 1.393 . S
C200 C201 1.382 . S
C201 H166 0.929 . S
C201 C196 1.371 . S
C201 C200 1.382 . S
C202 N170 1.423 . S
C202 C203 1.362 . S
C202 C207 1.388 . S
C203 H167 0.929 . S
C203 C202 1.362 . S
C203 C204 1.376 . S
C204 H168 0.931 . S
C204 C203 1.376 . S
C204 C205 1.396 . S
C205 C187 1.472 . S
C205 C204 1.396 . S
C205 C206 1.348 . S
C206 H169 0.929 . S
C206 C205 1.348 . S
C206 C207 1.443 . S
C207 H171 0.932 . S
C207 C202 1.388 . S
C207 C206 1.443 . S
H208 C235 0.929 . S
N209 C234 1.433 . S
N209 C240 1.435 . S
N209 C246 1.423 . S
H210 C236 0.930 . S
H211 C239 0.931 . S
H212 C238 0.929 . S
H213 C241 0.930 . S
H214 C242 0.932 . S
H215 C245 0.929 . S
H216 C244 0.931 . S
H217 C247 0.929 . S
H218 C251 0.932 . S
H219 C248 0.931 . S
H220 C250 0.929 . S
H221 C253 0.929 . S
H222 C254 0.930 . S
H223 C256 0.929 . S
H224 C257 0.931 . S
H225 C259 0.930 . S
H226 C260 0.932 . S
H227 C262 0.931 . S
H228 C263 0.929 . S
H229 C265 0.929 . S
H230 C266 0.931 . S
H231 C268 0.929 . S
N232 C252 1.433 . S
N232 C258 1.435 . S
N232 C264 1.423 . S
H233 C269 0.932 . S
C234 N209 1.433 . S
C234 C235 1.363 . S
C234 C239 1.370 . S
C235 H208 0.929 . S
C235 C234 1.363 . S
C235 C236 1.385 . S
C236 H210 0.930 . S
C236 C235 1.385 . S
C236 C237 1.357 . S
C237 C236 1.357 . S
C237 C238 1.406 . S
C238 H212 0.929 . S
C238 C237 1.406 . S
C238 C239 1.391 . S
C239 H211 0.931 . S
C239 C234 1.370 . S
C239 C238 1.391 . S
C240 N209 1.435 . S
C240 C241 1.358 . S
C240 C245 1.371 . S
C241 H213 0.930 . S
C241 C240 1.358 . S
C241 C242 1.405 . S
C242 H214 0.932 . S
C242 C241 1.405 . S
C242 C243 1.383 . S
C243 C242 1.383 . S
C243 C244 1.393 . S
C244 H216 0.931 . S
C244 C243 1.393 . S
C244 C245 1.382 . S
C245 H215 0.929 . S
C245 C240 1.371 . S
C245 C244 1.382 . S
C246 N209 1.423 . S
C246 C247 1.362 . S
C246 C251 1.388 . S
C247 H217 0.929 . S
C247 C246 1.362 . S
C247 C248 1.376 . S
C248 H219 0.931 . S
C248 C247 1.376 . S
C248 C249 1.396 . S
C249 C248 1.396 . S
C249 C250 1.348 . S
C249 C267 1.472 . S
C250 H220 0.929 . S
C250 C249 1.348 . S
C250 C251 1.443 . S
C251 H218 0.932 . S
C251 C246 1.388 . S
C251 C250 1.443 . S
C252 N232 1.433 . S
C252 C253 1.363 . S
C252 C257 1.370 . S
C253 H221 0.929 . S
C253 C252 1.363 . S
C253 C254 1.385 . S
C254 H222 0.930 . S
C254 C253 1.385 . S
C254 C255 1.357 . S
C255 C254 1.357 . S
C255 C256 1.406 . S
C256 H223 0.929 . S
C256 C255 1.406 . S
C256 C257 1.391 . S
C257 H224 0.931 . S
C257 C252 1.370 . S
C257 C256 1.391 . S
C258 N232 1.435 . S
C258 C259 1.358 . S
C258 C263 1.371 . S
C259 H225 0.930 . S
C259 C258 1.358 . S
C259 C260 1.405 . S
C260 H226 0.932 . S
C260 C259 1.405 . S
C260 C261 1.383 . S
C261 C260 1.383 . S
C261 C262 1.393 . S
C262 H227 0.931 . S
C262 C261 1.393 . S
C262 C263 1.382 . S
C263 H228 0.929 . S
C263 C258 1.371 . S
C263 C262 1.382 . S
C264 N232 1.423 . S
C264 C265 1.362 . S
C264 C269 1.388 . S
C265 H229 0.929 . S
C265 C264 1.362 . S
C265 C266 1.376 . S
C266 H230 0.931 . S
C266 C265 1.376 . S
C266 C267 1.396 . S
C267 C249 1.472 . S
C267 C266 1.396 . S
C267 C268 1.348 . S
C268 H231 0.929 . S
C268 C267 1.348 . S
C268 C269 1.443 . S
C269 H233 0.932 . S
C269 C264 1.388 . S
C269 C268 1.443 . S
H270 C297 0.929 . S
N271 C296 1.433 . S
N271 C302 1.435 . S
N271 C308 1.423 . S
H272 C298 0.930 . S
H273 C301 0.931 . S
H274 C300 0.929 . S
H275 C303 0.930 . S
H276 C304 0.932 . S
H277 C307 0.929 . S
H278 C306 0.931 . S
H279 C309 0.929 . S
H280 C313 0.932 . S
H281 C310 0.931 . S
H282 C312 0.929 . S
H283 C315 0.929 . S
H284 C316 0.930 . S
H285 C318 0.929 . S
H286 C319 0.931 . S
H287 C321 0.930 . S
H288 C322 0.932 . S
H289 C324 0.931 . S
H290 C325 0.929 . S
H291 C327 0.929 . S
H292 C328 0.931 . S
H293 C330 0.929 . S
N294 C314 1.433 . S
N294 C320 1.435 . S
N294 C326 1.423 . S
H295 C331 0.932 . S
C296 N271 1.433 . S
C296 C297 1.363 . S
C296 C301 1.370 . S
C297 H270 0.929 . S
C297 C296 1.363 . S
C297 C298 1.385 . S
C298 H272 0.930 . S
C298 C297 1.385 . S
C298 C299 1.357 . S
C299 C298 1.357 . S
C299 C300 1.406 . S
C300 H274 0.929 . S
C300 C299 1.406 . S
C300 C301 1.391 . S
C301 H273 0.931 . S
C301 C296 1.370 . S
C301 C300 1.391 . S
C302 N271 1.435 . S
C302 C303 1.358 . S
C302 C307 1.371 . S
C303 H275 0.930 . S
C303 C302 1.358 . S
C303 C304 1.405 . S
C304 H276 0.932 . S
C304 C303 1.405 . S
C304 C305 1.383 . S
C305 C304 1.383 . S
C305 C306 1.393 . S
C306 H278 0.931 . S
C306 C305 1.393 . S
C306 C307 1.382 . S
C307 H277 0.929 . S
C307 C302 1.371 . S
C307 C306 1.382 . S
C308 N271 1.423 . S
C308 C309 1.362 . S
C308 C313 1.388 . S
C309 H279 0.929 . S
C309 C308 1.362 . S
C309 C310 1.376 . S
C310 H281 0.931 . S
C310 C309 1.376 . S
C310 C311 1.396 . S
C311 C310 1.396 . S
C311 C312 1.348 . S
C311 C329 1.472 . S
C312 H282 0.929 . S
C312 C311 1.348 . S
C312 C313 1.443 . S
C313 H280 0.932 . S
C313 C308 1.388 . S
C313 C312 1.443 . S
C314 N294 1.433 . S
C314 C315 1.363 . S
C314 C319 1.370 . S
C315 H283 0.929 . S
C315 C314 1.363 . S
C315 C316 1.385 . S
C316 H284 0.930 . S
C316 C315 1.385 . S
C316 C317 1.357 . S
C317 C316 1.357 . S
C317 C318 1.406 . S
C318 H285 0.929 . S
C318 C317 1.406 . S
C318 C319 1.391 . S
C319 H286 0.931 . S
C319 C314 1.370 . S
C319 C318 1.391 . S
C320 N294 1.435 . S
C320 C321 1.358 . S
C320 C325 1.371 . S
C321 H287 0.930 . S
C321 C320 1.358 . S
C321 C322 1.405 . S
C322 H288 0.932 . S
C322 C321 1.405 . S
C322 C323 1.383 . S
C323 C322 1.383 . S
C323 C324 1.393 . S
C324 H289 0.931 . S
C324 C323 1.393 . S
C324 C325 1.382 . S
C325 H290 0.929 . S
C325 C320 1.371 . S
C325 C324 1.382 . S
C326 N294 1.423 . S
C326 C327 1.362 . S
C326 C331 1.388 . S
C327 H291 0.929 . S
C327 C326 1.362 . S
C327 C328 1.376 . S
C328 H292 0.931 . S
C328 C327 1.376 . S
C328 C329 1.396 . S
C329 C311 1.472 . S
C329 C328 1.396 . S
C329 C330 1.348 . S
C330 H293 0.929 . S
C330 C329 1.348 . S
C330 C331 1.443 . S
C331 H295 0.932 . S
C331 C326 1.388 . S
C331 C330 1.443 . S
H332 C359 0.929 . S
N333 C358 1.433 . S
N333 C364 1.435 . S
N333 C370 1.423 . S
H334 C360 0.930 . S
H335 C363 0.931 . S
H336 C362 0.929 . S
H337 C365 0.930 . S
H338 C366 0.932 . S
H339 C369 0.929 . S
H340 C368 0.931 . S
H341 C371 0.929 . S
H342 C375 0.932 . S
H343 C372 0.931 . S
H344 C374 0.929 . S
H345 C377 0.929 . S
H346 C378 0.930 . S
H347 C380 0.929 . S
H348 C381 0.931 . S
H349 C383 0.930 . S
H350 C384 0.932 . S
H351 C386 0.931 . S
H352 C387 0.929 . S
H353 C389 0.929 . S
H354 C390 0.931 . S
H355 C392 0.929 . S
N356 C376 1.433 . S
N356 C382 1.435 . S
N356 C388 1.423 . S
H357 C393 0.932 . S
C358 N333 1.433 . S
C358 C359 1.363 . S
C358 C363 1.370 . S
C359 H332 0.929 . S
C359 C358 1.363 . S
C359 C360 1.385 . S
C360 H334 0.930 . S
C360 C359 1.385 . S
C360 C361 1.357 . S
C361 C360 1.357 . S
C361 C362 1.406 . S
C362 H336 0.929 . S
C362 C361 1.406 . S
C362 C363 1.391 . S
C363 H335 0.931 . S
C363 C358 1.370 . S
C363 C362 1.391 . S
C364 N333 1.435 . S
C364 C365 1.358 . S
C364 C369 1.371 . S
C365 H337 0.930 . S
C365 C364 1.358 . S
C365 C366 1.405 . S
C366 H338 0.932 . S
C366 C365 1.405 . S
C366 C367 1.383 . S
C367 C366 1.383 . S
C367 C368 1.393 . S
C368 H340 0.931 . S
C368 C367 1.393 . S
C368 C369 1.382 . S
C369 H339 0.929 . S
C369 C364 1.371 . S
C369 C368 1.382 . S
C370 N333 1.423 . S
C370 C371 1.362 . S
C370 C375 1.388 . S
C371 H341 0.929 . S
C371 C370 1.362 . S
C371 C372 1.376 . S
C372 H343 0.931 . S
C372 C371 1.376 . S
C372 C373 1.396 . S
C373 C372 1.396 . S
C373 C374 1.348 . S
C373 C391 1.472 . S
C374 H344 0.929 . S
C374 C373 1.348 . S
C374 C375 1.443 . S
C375 H342 0.932 . S
C375 C370 1.388 . S
C375 C374 1.443 . S
C376 N356 1.433 . S
C376 C377 1.363 . S
C376 C381 1.370 . S
C377 H345 0.929 . S
C377 C376 1.363 . S
C377 C378 1.385 . S
C378 H346 0.930 . S
C378 C377 1.385 . S
C378 C379 1.357 . S
C379 C378 1.357 . S
C379 C380 1.406 . S
C380 H347 0.929 . S
C380 C379 1.406 . S
C380 C381 1.391 . S
C381 H348 0.931 . S
C381 C376 1.370 . S
C381 C380 1.391 . S
C382 N356 1.435 . S
C382 C383 1.358 . S
C382 C387 1.371 . S
C383 H349 0.930 . S
C383 C382 1.358 . S
C383 C384 1.405 . S
C384 H350 0.932 . S
C384 C383 1.405 . S
C384 C385 1.383 . S
C385 C384 1.383 . S
C385 C386 1.393 . S
C386 H351 0.931 . S
C386 C385 1.393 . S
C386 C387 1.382 . S
C387 H352 0.929 . S
C387 C382 1.371 . S
C387 C386 1.382 . S
C388 N356 1.423 . S
C388 C389 1.362 . S
C388 C393 1.388 . S
C389 H353 0.929 . S
C389 C388 1.362 . S
C389 C390 1.376 . S
C390 H354 0.931 . S
C390 C389 1.376 . S
C390 C391 1.396 . S
C391 C373 1.472 . S
C391 C390 1.396 . S
C391 C392 1.348 . S
C392 H355 0.929 . S
C392 C391 1.348 . S
C392 C393 1.443 . S
C393 H357 0.932 . S
C393 C388 1.388 . S
C393 C392 1.443 . S
H394 C421 0.929 . S
N395 C420 1.433 . S
N395 C426 1.435 . S
N395 C432 1.423 . S
H396 C422 0.930 . S
H397 C425 0.931 . S
H398 C424 0.929 . S
H399 C427 0.930 . S
H400 C428 0.932 . S
H401 C431 0.929 . S
H402 C430 0.931 . S
H403 C433 0.929 . S
H404 C437 0.932 . S
H405 C434 0.931 . S
H406 C436 0.929 . S
H407 C439 0.929 . S
H408 C440 0.930 . S
H409 C442 0.929 . S
H410 C443 0.931 . S
H411 C445 0.930 . S
H412 C446 0.932 . S
H413 C448 0.931 . S
H414 C449 0.929 . S
H415 C451 0.929 . S
H416 C452 0.931 . S
H417 C454 0.929 . S
N418 C438 1.433 . S
N418 C444 1.435 . S
N418 C450 1.423 . S
H419 C455 0.932 . S
C420 N395 1.433 . S
C420 C421 1.363 . S
C420 C425 1.370 . S
C421 H394 0.929 . S
C421 C420 1.363 . S
C421 C422 1.385 . S
C422 H396 0.930 . S
C422 C421 1.385 . S
C422 C423 1.357 . S
C423 C422 1.357 . S
C423 C424 1.406 . S
C424 H398 0.929 . S
C424 C423 1.406 . S
C424 C425 1.391 . S
C425 H397 0.931 . S
C425 C420 1.370 . S
C425 C424 1.391 . S
C426 N395 1.435 . S
C426 C427 1.358 . S
C426 C431 1.371 . S
C427 H399 0.930 . S
C427 C426 1.358 . S
C427 C428 1.405 . S
C428 H400 0.932 . S
C428 C427 1.405 . S
C428 C429 1.383 . S
C429 C428 1.383 . S
C429 C430 1.393 . S
C430 H402 0.931 . S
C430 C429 1.393 . S
C430 C431 1.382 . S
C431 H401 0.929 . S
C431 C426 1.371 . S
C431 C430 1.382 . S
C432 N395 1.423 . S
C432 C433 1.362 . S
C432 C437 1.388 . S
C433 H403 0.929 . S
C433 C432 1.362 . S
C433 C434 1.376 . S
C434 H405 0.931 . S
C434 C433 1.376 . S
C434 C435 1.396 . S
C435 C434 1.396 . S
C435 C436 1.348 . S
C435 C453 1.472 . S
C436 H406 0.929 . S
C436 C435 1.348 . S
C436 C437 1.443 . S
C437 H404 0.932 . S
C437 C432 1.388 . S
C437 C436 1.443 . S
C438 N418 1.433 . S
C438 C439 1.363 . S
C438 C443 1.370 . S
C439 H407 0.929 . S
C439 C438 1.363 . S
C439 C440 1.385 . S
C440 H408 0.930 . S
C440 C439 1.385 . S
C440 C441 1.357 . S
C441 C440 1.357 . S
C441 C442 1.406 . S
C442 H409 0.929 . S
C442 C441 1.406 . S
C442 C443 1.391 . S
C443 H410 0.931 . S
C443 C438 1.370 . S
C443 C442 1.391 . S
C444 N418 1.435 . S
C444 C445 1.358 . S
C444 C449 1.371 . S
C445 H411 0.930 . S
C445 C444 1.358 . S
C445 C446 1.405 . S
C446 H412 0.932 . S
C446 C445 1.405 . S
C446 C447 1.383 . S
C447 C446 1.383 . S
C447 C448 1.393 . S
C448 H413 0.931 . S
C448 C447 1.393 . S
C448 C449 1.382 . S
C449 H414 0.929 . S
C449 C444 1.371 . S
C449 C448 1.382 . S
C450 N418 1.423 . S
C450 C451 1.362 . S
C450 C455 1.388 . S
C451 H415 0.929 . S
C451 C450 1.362 . S
C451 C452 1.376 . S
C452 H416 0.931 . S
C452 C451 1.376 . S
C452 C453 1.396 . S
C453 C435 1.472 . S
C453 C452 1.396 . S
C453 C454 1.348 . S
C454 H417 0.929 . S
C454 C453 1.348 . S
C454 C455 1.443 . S
C455 H419 0.932 . S
C455 C450 1.388 . S
C455 C454 1.443 . S
C456 C457 1.363 . S
C456 C462 1.379 . S
C456 N464 1.356 . S
C457 C456 1.363 . S
C457 C463 1.363 . S
C458 C459 1.363 . S
C458 C463 1.379 . S
C458 N465 1.356 . S
C459 C458 1.363 . S
C459 C462 1.363 . S
N460 C462 1.356 . S
N460 H472 0.984 . S
N460 H473 0.985 . S
N461 C463 1.356 . S
N461 H466 0.984 . S
N461 H467 0.985 . S
C462 C456 1.379 . S
C462 C459 1.363 . S
C462 N460 1.356 . S
C463 C457 1.363 . S
C463 C458 1.379 . S
C463 N461 1.356 . S
N464 C456 1.356 . S
N464 H470 0.984 . S
N464 H471 0.984 . S
N465 C458 1.356 . S
N465 H468 0.984 . S
N465 H469 0.985 . S
H466 N461 0.984 . S
H467 N461 0.985 . S
H468 N465 0.984 . S
H469 N465 0.985 . S
H470 N464 0.984 . S
H471 N464 0.984 . S
H472 N460 0.984 . S
H473 N460 0.985 . S
C474 C475 1.363 . S
C474 C480 1.379 . S
C474 N482 1.356 . S
C475 C474 1.363 . S
C475 C481 1.363 . S
C476 C477 1.363 . S
C476 C481 1.379 . S
C476 N483 1.356 . S
C477 C476 1.363 . S
C477 C480 1.363 . S
N478 C480 1.356 . S
N478 H490 0.984 . S
N478 H491 0.985 . S
N479 C481 1.356 . S
N479 H484 0.984 . S
N479 H485 0.985 . S
C480 C474 1.379 . S
C480 C477 1.363 . S
C480 N478 1.356 . S
C481 C475 1.363 . S
C481 C476 1.379 . S
C481 N479 1.356 . S
N482 C474 1.356 . S
N482 H488 0.984 . S
N482 H489 0.984 . S
N483 C476 1.356 . S
N483 H486 0.984 . S
N483 H487 0.985 . S
H484 N479 0.984 . S
H485 N479 0.985 . S
H486 N483 0.984 . S
H487 N483 0.985 . S
H488 N482 0.984 . S
H489 N482 0.984 . S
H490 N478 0.984 . S
H491 N478 0.985 . S
C492 C493 1.363 . S
C492 C498 1.379 . S
C492 N500 1.356 . S
C493 C492 1.363 . S
C493 C499 1.363 . S
C494 C495 1.363 . S
C494 C499 1.379 . S
C494 N501 1.356 . S
C495 C494 1.363 . S
C495 C498 1.363 . S
N496 C498 1.356 . S
N496 H508 0.984 . S
N496 H509 0.985 . S
N497 C499 1.356 . S
N497 H502 0.984 . S
N497 H503 0.985 1_554 S
C498 C492 1.379 . S
C498 C495 1.363 . S
C498 N496 1.356 . S
C499 C493 1.363 . S
C499 C494 1.379 . S
C499 N497 1.356 . S
N500 C492 1.356 . S
N500 H506 0.984 . S
N500 H507 0.984 . S
N501 C494 1.356 . S
N501 H504 0.984 . S
N501 H505 0.985 . S
H502 N497 0.984 . S
H503 N497 0.985 1_556 S
H504 N501 0.984 . S
H505 N501 0.985 . S
H506 N500 0.984 . S
H507 N500 0.984 . S
H508 N496 0.984 . S
H509 N496 0.985 . S
C510 C511 1.363 . S
C510 C516 1.379 . S
C510 N518 1.356 . S
C511 C510 1.363 . S
C511 C517 1.363 1_455 S
C512 C513 1.363 . S
C512 C517 1.379 . S
C512 N519 1.356 . S
C513 C512 1.363 . S
C513 C516 1.363 1_655 S
N514 C516 1.356 . S
N514 H526 0.984 . S
N514 H527 0.985 . S
N515 C517 1.356 . S
N515 H520 0.984 . S
N515 H521 0.985 . S
C516 C510 1.379 . S
C516 C513 1.363 1_455 S
C516 N514 1.356 . S
C517 C511 1.363 1_655 S
C517 C512 1.379 . S
C517 N515 1.356 . S
N518 C510 1.356 . S
N518 H524 0.984 . S
N518 H525 0.984 . S
N519 C512 1.356 . S
N519 H522 0.984 . S
N519 H523 0.985 . S
H520 N515 0.984 . S
H521 N515 0.985 . S
H522 N519 0.984 . S
H523 N519 0.985 . S
H524 N518 0.984 . S
H525 N518 0.984 . S
H526 N514 0.984 . S
H527 N514 0.985 . S
C528 C529 1.363 . S
C528 C534 1.379 . S
C528 N536 1.356 . S
C529 C528 1.363 . S
C529 C535 1.363 . S
C530 C531 1.363 . S
C530 C535 1.379 . S
C530 N537 1.356 . S
C531 C530 1.363 . S
C531 C534 1.363 . S
N532 C534 1.356 . S
N532 H544 0.984 . S
N532 H545 0.985 . S
N533 C535 1.356 . S
N533 H538 0.984 . S
N533 H539 0.985 1_554 S
C534 C528 1.379 . S
C534 C531 1.363 . S
C534 N532 1.356 . S
C535 C529 1.363 . S
C535 C530 1.379 . S
C535 N533 1.356 . S
N536 C528 1.356 . S
N536 H542 0.984 . S
N536 H543 0.984 . S
N537 C530 1.356 . S
N537 H540 0.984 . S
N537 H541 0.985 . S
H538 N533 0.984 . S
H539 N533 0.985 1_556 S
H540 N537 0.984 . S
H541 N537 0.985 . S
H542 N536 0.984 . S
H543 N536 0.984 . S
H544 N532 0.984 . S
H545 N532 0.985 . S
C546 C547 1.363 . S
C546 C552 1.379 . S
C546 N554 1.356 . S
C547 C546 1.363 . S
C547 C553 1.363 . S
C548 C549 1.363 . S
C548 C553 1.379 . S
C548 N555 1.356 . S
C549 C548 1.363 . S
C549 C552 1.363 . S
N550 C552 1.356 . S
N550 H562 0.984 . S
N550 H563 0.985 . S
N551 C553 1.356 . S
N551 H556 0.984 . S
N551 H557 0.985 . S
C552 C546 1.379 . S
C552 C549 1.363 . S
C552 N550 1.356 . S
C553 C547 1.363 . S
C553 C548 1.379 . S
C553 N551 1.356 . S
N554 C546 1.356 . S
N554 H560 0.984 . S
N554 H561 0.984 . S
N555 C548 1.356 . S
N555 H558 0.984 . S
N555 H559 0.985 . S
H556 N551 0.984 . S
H557 N551 0.985 . S
H558 N555 0.984 . S
H559 N555 0.985 . S
H560 N554 0.984 . S
H561 N554 0.984 . S
H562 N550 0.984 . S
H563 N550 0.985 . S
C564 C565 1.363 . S
C564 C570 1.379 . S
C564 N572 1.356 . S
C565 C564 1.363 . S
C565 C571 1.363 . S
C566 C567 1.363 . S
C566 C571 1.379 . S
C566 N573 1.356 . S
C567 C566 1.363 . S
C567 C570 1.363 . S
N568 C570 1.356 . S
N568 H580 0.984 . S
N568 H581 0.985 . S
N569 C571 1.356 . S
N569 H574 0.984 . S
N569 H575 0.985 . S
C570 C564 1.379 . S
C570 C567 1.363 . S
C570 N568 1.356 . S
C571 C565 1.363 . S
C571 C566 1.379 . S
C571 N569 1.356 . S
N572 C564 1.356 . S
N572 H578 0.984 . S
N572 H579 0.984 . S
N573 C566 1.356 . S
N573 H576 0.984 . S
N573 H577 0.985 . S
H574 N569 0.984 . S
H575 N569 0.985 . S
H576 N573 0.984 . S
H577 N573 0.985 . S
H578 N572 0.984 . S
H579 N572 0.984 . S
H580 N568 0.984 . S
H581 N568 0.985 . S
C582 C583 1.363 . S
C582 C588 1.379 . S
C582 N590 1.356 1_556 S
C583 C582 1.363 . S
C583 C589 1.363 . S
C584 C585 1.363 . S
C584 C589 1.379 . S
C584 N591 1.356 . S
C585 C584 1.363 . S
C585 C588 1.363 . S
N586 C588 1.356 . S
N586 H598 0.984 1_556 S
N586 H599 0.985 . S
N587 C589 1.356 . S
N587 H592 0.984 . S
N587 H593 0.985 . S
C588 C582 1.379 . S
C588 C585 1.363 . S
C588 N586 1.356 . S
C589 C583 1.363 . S
C589 C584 1.379 . S
C589 N587 1.356 . S
N590 C582 1.356 1_554 S
N590 H596 0.984 . S
N590 H597 0.984 . S
N591 C584 1.356 . S
N591 H594 0.984 . S
N591 H595 0.985 . S
H592 N587 0.984 . S
H593 N587 0.985 . S
H594 N591 0.984 . S
H595 N591 0.985 . S
H596 N590 0.984 . S
H597 N590 0.984 . S
H598 N586 0.984 1_554 S
H599 N586 0.985 . S
C600 C601 1.363 . S
C600 C606 1.379 . S
C600 N608 1.356 . S
C601 C600 1.363 . S
C601 C607 1.363 . S
C602 C603 1.363 . S
C602 C607 1.379 . S
C602 N609 1.356 . S
C603 C602 1.363 . S
C603 C606 1.363 . S
N604 C606 1.356 . S
N604 H616 0.984 . S
N604 H617 0.985 . S
N605 C607 1.356 . S
N605 H610 0.984 . S
N605 H611 0.985 . S
C606 C600 1.379 . S
C606 C603 1.363 . S
C606 N604 1.356 . S
C607 C601 1.363 . S
C607 C602 1.379 . S
C607 N605 1.356 . S
N608 C600 1.356 . S
N608 H614 0.984 . S
N608 H615 0.984 . S
N609 C602 1.356 . S
N609 H612 0.984 . S
N609 H613 0.985 . S
H610 N605 0.984 . S
H611 N605 0.985 . S
H612 N609 0.984 . S
H613 N609 0.985 . S
H614 N608 0.984 . S
H615 N608 0.984 . S
H616 N604 0.984 . S
H617 N604 0.985 . S
C618 C619 1.363 . S
C618 C624 1.379 . S
C618 N626 1.356 . S
C619 C618 1.363 . S
C619 C625 1.363 . S
C620 C621 1.363 . S
C620 C625 1.379 . S
C620 N627 1.356 . S
C621 C620 1.363 . S
C621 C624 1.363 . S
N622 C624 1.356 . S
N622 H634 0.984 . S
N622 H635 0.985 . S
N623 C625 1.356 . S
N623 H628 0.984 . S
N623 H629 0.985 . S
C624 C618 1.379 . S
C624 C621 1.363 . S
C624 N622 1.356 . S
C625 C619 1.363 . S
C625 C620 1.379 . S
C625 N623 1.356 . S
N626 C618 1.356 . S
N626 H632 0.984 1_556 S
N626 H633 0.981 1_556 S
N627 C620 1.356 . S
N627 H630 0.984 . S
N627 H631 0.985 . S
H628 N623 0.984 . S
H629 N623 0.985 . S
H630 N627 0.984 . S
H631 N627 0.985 . S
H632 N626 0.984 1_554 S
H633 N626 0.981 1_554 S
H634 N622 0.984 . S
H635 N622 0.985 . S
C636 C637 1.363 . S
C636 C642 1.379 . S
C636 N644 1.356 . S
C637 C636 1.363 . S
C637 C643 1.363 . S
C638 C639 1.363 . S
C638 C643 1.379 . S
C638 N645 1.356 . S
C639 C638 1.363 . S
C639 C642 1.363 . S
N640 C642 1.356 . S
N640 H652 0.984 . S
N640 H653 0.985 . S
N641 C643 1.356 . S
N641 H646 0.984 . S
N641 H647 0.985 . S
C642 C636 1.379 . S
C642 C639 1.363 . S
C642 N640 1.356 . S
C643 C637 1.363 . S
C643 C638 1.379 . S
C643 N641 1.356 . S
N644 C636 1.356 . S
N644 H650 0.984 . S
N644 H651 0.984 . S
N645 C638 1.356 . S
N645 H648 0.984 . S
N645 H649 0.985 . S
H646 N641 0.984 . S
H647 N641 0.985 . S
H648 N645 0.984 . S
H649 N645 0.985 . S
H650 N644 0.984 . S
H651 N644 0.984 . S
H652 N640 0.984 . S
H653 N640 0.985 . S
C654 C655 1.363 . S
C654 C660 1.379 . S
C654 N662 1.356 . S
C655 C654 1.363 . S
C655 C661 1.363 1_556 S
C656 C657 1.363 . S
C656 C661 1.379 1_556 S
C656 N663 1.356 . S
C657 C656 1.363 . S
C657 C660 1.363 . S
N658 C660 1.356 . S
N658 H670 0.984 . S
N658 H671 0.985 . S
N659 C661 1.356 . S
N659 H664 0.984 . S
N659 H665 0.985 . S
C660 C654 1.379 . S
C660 C657 1.363 . S
C660 N658 1.356 . S
C661 C655 1.363 1_554 S
C661 C656 1.379 1_554 S
C661 N659 1.356 . S
N662 C654 1.356 . S
N662 H668 0.984 . S
N662 H669 0.984 . S
N663 C656 1.356 . S
N663 H666 0.984 . S
N663 H667 0.985 1_556 S
H664 N659 0.984 . S
H665 N659 0.985 . S
H666 N663 0.984 . S
H667 N663 0.985 1_554 S
H668 N662 0.984 . S
H669 N662 0.984 . S
H670 N658 0.984 . S
H671 N658 0.985 . S
C672 C673 1.363 1_554 S
C672 C678 1.379 1_554 S
C672 N680 1.356 . S
C673 C672 1.363 1_556 S
C673 C679 1.363 . S
C674 C675 1.363 . S
C674 C679 1.379 . S
C674 N681 1.356 . S
C675 C674 1.363 . S
C675 C678 1.363 . S
N676 C678 1.356 1_554 S
N676 H688 0.984 . S
N676 H689 0.985 1_554 S
N677 C679 1.356 . S
N677 H682 0.984 . S
N677 H683 0.985 . S
C678 C672 1.379 1_556 S
C678 C675 1.363 . S
C678 N676 1.356 1_556 S
C679 C673 1.363 . S
C679 C674 1.379 . S
C679 N677 1.356 . S
N680 C672 1.356 . S
N680 H686 0.984 . S
N680 H687 0.984 . S
N681 C674 1.356 . S
N681 H684 0.984 . S
N681 H685 0.985 . S
H682 N677 0.984 . S
H683 N677 0.985 . S
H684 N681 0.984 . S
H685 N681 0.985 . S
H686 N680 0.984 . S
H687 N680 0.984 . S
H688 N676 0.984 . S
H689 N676 0.985 1_556 S
C690 C691 1.363 . S
C690 C696 1.379 . S
C690 N698 1.356 . S
C691 C690 1.363 . S
C691 C697 1.363 . S
C692 C693 1.363 . S
C692 C697 1.379 . S
C692 N699 1.356 . S
C693 C692 1.363 . S
C693 C696 1.363 . S
N694 C696 1.356 . S
N694 H706 0.984 . S
N694 H707 0.985 . S
N695 C697 1.356 . S
N695 H700 0.984 . S
N695 H701 0.985 1_565 S
C696 C690 1.379 . S
C696 C693 1.363 . S
C696 N694 1.356 . S
C697 C691 1.363 . S
C697 C692 1.379 . S
C697 N695 1.356 . S
N698 C690 1.356 . S
N698 H704 0.984 . S
N698 H705 0.984 . S
N699 C692 1.356 . S
N699 H702 0.984 . S
N699 H703 0.985 . S
H700 N695 0.984 . S
H701 N695 0.985 1_545 S
H702 N699 0.984 . S
H703 N699 0.985 . S
H704 N698 0.984 . S
H705 N698 0.984 . S
H706 N694 0.984 . S
H707 N694 0.985 . S
C708 C709 1.363 . S
C708 C714 1.379 . S
C708 N716 1.356 . S
C709 C708 1.363 . S
C709 C715 1.363 . S
C710 C711 1.363 . S
C710 C715 1.379 . S
C710 N717 1.356 . S
C711 C710 1.363 . S
C711 C714 1.363 . S
N712 C714 1.356 . S
N712 H724 0.984 . S
N712 H725 0.985 . S
N713 C715 1.356 . S
N713 H718 0.984 . S
N713 H719 0.985 . S
C714 C708 1.379 . S
C714 C711 1.363 . S
C714 N712 1.356 . S
C715 C709 1.363 . S
C715 C710 1.379 . S
C715 N713 1.356 . S
N716 C708 1.356 . S
N716 H722 0.984 . S
N716 H723 0.984 . S
N717 C710 1.356 . S
N717 H720 0.984 . S
N717 H721 0.985 . S
H718 N713 0.984 . S
H719 N713 0.985 . S
H720 N717 0.984 . S
H721 N717 0.985 . S
H722 N716 0.984 . S
H723 N716 0.984 . S
H724 N712 0.984 . S
H725 N712 0.985 . S
C726 C727 1.363 . S
C726 C732 1.379 . S
C726 N734 1.356 . S
C727 C726 1.363 . S
C727 C733 1.363 . S
C728 C729 1.363 . S
C728 C733 1.379 . S
C728 N735 1.356 . S
C729 C728 1.363 . S
C729 C732 1.363 . S
N730 C732 1.356 . S
N730 H742 0.984 . S
N730 H743 0.985 . S
N731 C733 1.356 . S
N731 H736 0.984 . S
N731 H737 0.985 . S
C732 C726 1.379 . S
C732 C729 1.363 . S
C732 N730 1.356 . S
C733 C727 1.363 . S
C733 C728 1.379 . S
C733 N731 1.356 . S
N734 C726 1.356 . S
N734 H740 0.984 . S
N734 H741 0.984 . S
N735 C728 1.356 . S
N735 H738 0.984 . S
N735 H739 0.985 . S
H736 N731 0.984 . S
H737 N731 0.985 . S
H738 N735 0.984 . S
H739 N735 0.985 . S
H740 N734 0.984 . S
H741 N734 0.984 . S
H742 N730 0.984 . S
H743 N730 0.985 . S
C744 C745 1.363 . S
C744 C750 1.379 . S
C744 N752 1.356 . S
C745 C744 1.363 . S
C745 C751 1.363 . S
C746 C747 1.363 . S
C746 C751 1.379 . S
C746 N753 1.356 . S
C747 C746 1.363 . S
C747 C750 1.363 . S
N748 C750 1.356 . S
N748 H760 0.984 . S
N748 H761 0.985 . S
N749 C751 1.356 . S
N749 H754 0.984 . S
N749 H755 0.985 . S
C750 C744 1.379 . S
C750 C747 1.363 . S
C750 N748 1.356 . S
C751 C745 1.363 . S
C751 C746 1.379 . S
C751 N749 1.356 . S
N752 C744 1.356 . S
N752 H758 0.975 1_556 S
N752 H759 0.984 . S
N753 C746 1.356 . S
N753 H756 0.984 . S
N753 H757 0.985 . S
H754 N749 0.984 . S
H755 N749 0.985 . S
H756 N753 0.984 . S
H757 N753 0.985 . S
H758 N752 0.975 1_554 S
H759 N752 0.984 . S
H760 N748 0.984 . S
H761 N748 0.985 . S
C762 C763 1.363 . S
C762 C768 1.379 . S
C762 N770 1.356 . S
C763 C762 1.363 . S
C763 C769 1.363 . S
C764 C765 1.363 . S
C764 C769 1.379 . S
C764 N771 1.356 . S
C765 C764 1.363 . S
C765 C768 1.363 . S
N766 C768 1.356 . S
N766 H778 0.984 . S
N766 H779 0.985 . S
N767 C769 1.356 . S
N767 H772 0.984 . S
N767 H773 0.985 . S
C768 C762 1.379 . S
C768 C765 1.363 . S
C768 N766 1.356 . S
C769 C763 1.363 . S
C769 C764 1.379 . S
C769 N767 1.356 . S
N770 C762 1.356 . S
N770 H776 0.984 . S
N770 H777 0.984 . S
N771 C764 1.356 . S
N771 H774 0.984 . S
N771 H775 0.985 . S
H772 N767 0.984 . S
H773 N767 0.985 . S
H774 N771 0.984 . S
H775 N771 0.985 . S
H776 N770 0.984 . S
H777 N770 0.984 . S
H778 N766 0.984 . S
H779 N766 0.985 . S
C780 C781 1.363 . S
C780 C786 1.379 . S
C780 N788 1.356 . S
C781 C780 1.363 . S
C781 C787 1.363 . S
C782 C783 1.363 . S
C782 C787 1.379 . S
C782 N789 1.356 . S
C783 C782 1.363 . S
C783 C786 1.363 . S
N784 C786 1.356 . S
N784 H796 0.984 . S
N784 H797 0.985 . S
N785 C787 1.356 . S
N785 H790 0.984 . S
N785 H791 0.985 . S
C786 C780 1.379 . S
C786 C783 1.363 . S
C786 N784 1.356 . S
C787 C781 1.363 . S
C787 C782 1.379 . S
C787 N785 1.356 . S
N788 C780 1.356 . S
N788 H794 0.984 . S
N788 H795 0.984 . S
N789 C782 1.356 . S
N789 H792 0.984 . S
N789 H793 0.985 . S
H790 N785 0.984 . S
H791 N785 0.985 . S
H792 N789 0.984 . S
H793 N789 0.985 . S
H794 N788 0.984 . S
H795 N788 0.984 . S
H796 N784 0.984 . S
H797 N784 0.985 . S
C798 C799 1.363 . S
C798 C804 1.379 . S
C798 N806 1.356 . S
C799 C798 1.363 . S
C799 C805 1.363 . S
C800 C801 1.363 . S
C800 C805 1.379 . S
C800 N807 1.356 . S
C801 C800 1.363 . S
C801 C804 1.363 . S
N802 C804 1.356 . S
N802 H814 0.984 . S
N802 H815 0.985 . S
N803 C805 1.356 . S
N803 H808 0.984 . S
N803 H809 0.985 1_554 S
C804 C798 1.379 . S
C804 C801 1.363 . S
C804 N802 1.356 . S
C805 C799 1.363 . S
C805 C800 1.379 . S
C805 N803 1.356 . S
N806 C798 1.356 . S
N806 H812 0.984 . S
N806 H813 0.984 . S
N807 C800 1.356 . S
N807 H810 0.984 . S
N807 H811 0.985 . S
H808 N803 0.984 . S
H809 N803 0.985 1_556 S
H810 N807 0.984 . S
H811 N807 0.985 . S
H812 N806 0.984 . S
H813 N806 0.984 . S
H814 N802 0.984 . S
H815 N802 0.985 . S
C816 C817 1.363 . S
C816 C822 1.379 . S
C816 N824 1.356 . S
C817 C816 1.363 . S
C817 C823 1.363 1_455 S
C818 C819 1.363 . S
C818 C823 1.379 . S
C818 N825 1.356 . S
C819 C818 1.363 . S
C819 C822 1.363 1_655 S
N820 C822 1.356 . S
N820 H832 0.984 . S
N820 H833 0.984 1_455 S
N821 C823 1.356 . S
N821 H826 0.984 . S
N821 H827 0.985 . S
C822 C816 1.379 . S
C822 C819 1.363 1_455 S
C822 N820 1.356 . S
C823 C817 1.363 1_655 S
C823 C818 1.379 . S
C823 N821 1.356 . S
N824 C816 1.356 . S
N824 H830 0.984 . S
N824 H831 0.984 . S
N825 C818 1.356 . S
N825 H828 0.984 . S
N825 H829 0.985 . S
H826 N821 0.984 . S
H827 N821 0.985 . S
H828 N825 0.984 . S
H829 N825 0.985 . S
H830 N824 0.984 . S
H831 N824 0.984 . S
H832 N820 0.984 . S
H833 N820 0.984 1_655 S
C834 C835 1.363 . S
C834 C840 1.379 . S
C834 N842 1.356 . S
C835 C834 1.363 . S
C835 C841 1.363 . S
C836 C837 1.363 . S
C836 C841 1.379 . S
C836 N843 1.356 . S
C837 C836 1.363 . S
C837 C840 1.363 . S
N838 C840 1.356 . S
N838 H850 0.984 . S
N838 H851 0.985 . S
N839 C841 1.356 1_545 S
N839 H844 0.984 . S
N839 H845 0.985 . S
C840 C834 1.379 . S
C840 C837 1.363 . S
C840 N838 1.356 . S
C841 C835 1.363 . S
C841 C836 1.379 . S
C841 N839 1.356 1_565 S
N842 C834 1.356 . S
N842 H848 0.984 . S
N842 H849 0.984 . S
N843 C836 1.356 . S
N843 H846 0.984 . S
N843 H847 0.985 1_565 S
H844 N839 0.984 . S
H845 N839 0.985 . S
H846 N843 0.984 . S
H847 N843 0.985 1_545 S
H848 N842 0.984 . S
H849 N842 0.984 . S
H850 N838 0.984 . S
H851 N838 0.985 . S
C852 C853 1.363 . S
C852 C858 1.379 . S
C852 N860 1.356 . S
C853 C852 1.363 . S
C853 C859 1.363 . S
C854 C855 1.363 . S
C854 C859 1.379 . S
C854 N861 1.356 . S
C855 C854 1.363 . S
C855 C858 1.363 . S
N856 C858 1.356 . S
N856 H868 0.984 . S
N856 H869 0.985 . S
N857 C859 1.356 . S
N857 H862 0.984 . S
N857 H863 0.985 . S
C858 C852 1.379 . S
C858 C855 1.363 . S
C858 N856 1.356 . S
C859 C853 1.363 . S
C859 C854 1.379 . S
C859 N857 1.356 . S
N860 C852 1.356 . S
N860 H866 0.984 . S
N860 H867 0.984 . S
N861 C854 1.356 . S
N861 H864 0.984 . S
N861 H865 0.985 . S
H862 N857 0.984 . S
H863 N857 0.985 . S
H864 N861 0.984 . S
H865 N861 0.985 . S
H866 N860 0.984 . S
H867 N860 0.984 . S
H868 N856 0.984 . S
H869 N856 0.985 . S
C870 C871 1.363 . S
C870 C876 1.379 . S
C870 N878 1.356 . S
C871 C870 1.363 . S
C871 C877 1.363 . S
C872 C873 1.363 . S
C872 C877 1.379 . S
C872 N879 1.356 . S
C873 C872 1.363 . S
C873 C876 1.363 . S
N874 C876 1.356 . S
N874 H886 0.984 . S
N874 H887 0.985 . S
N875 C877 1.356 . S
N875 H880 0.984 . S
N875 H881 0.985 . S
C876 C870 1.379 . S
C876 C873 1.363 . S
C876 N874 1.356 . S
C877 C871 1.363 . S
C877 C872 1.379 . S
C877 N875 1.356 . S
N878 C870 1.356 . S
N878 H884 0.984 . S
N878 H885 0.984 . S
N879 C872 1.356 . S
N879 H882 0.984 . S
N879 H883 0.985 . S
H880 N875 0.984 . S
H881 N875 0.985 . S
H882 N879 0.984 . S
H883 N879 0.985 . S
H884 N878 0.984 . S
H885 N878 0.984 . S
H886 N874 0.984 . S
H887 N874 0.985 . S
C457 C13 1.755 . S
C459 C137 1.632 . S
C475 C27 1.927 . S
C477 C181 1.851 . S
C495 C261 1.630 . S
C493 C29 1.726 . S
C513 C305 1.673 . S
C511 C54 1.748 . S
C531 C385 1.760 . S
C529 C69 1.900 . S
C549 C441 1.806 . S
C547 C83 1.988 . S
C565 C15 2.023 . S
C567 C237 1.743 . S
C583 C41 1.774 . S
C585 C317 1.659 . S
C603 C361 1.797 . S
C601 C42 1.999 . S
C621 C429 1.733 . S
C619 C57 1.765 . S
C637 C71 1.810 . S
C639 C113 1.600 . S
C657 C193 1.913 . S
C655 C1 1.994 1_556 S
C675 C299 1.914 . S
C673 C12 1.994 1_556 S
C691 C26 1.810 . S
C693 C379 1.600 . S
C711 C447 1.733 . S
C709 C28 1.766 . S
C727 C55 1.998 . S
C729 C131 1.797 . S
C745 C68 1.774 . S
C747 C175 1.658 . S
C763 C82 2.024 . S
C765 C255 1.744 . S
C781 C14 1.989 . S
C783 C423 1.807 . S
C801 C119 1.759 . S
C799 C40 1.900 . S
C817 C43 1.748 . S
C819 C199 1.673 . S
C835 C56 1.727 . S
C837 C243 1.631 . S
C853 C70 1.927 . S
C855 C323 1.851 . S
C871 C0 1.755 . S
C873 C367 1.631 . S
