# Generated by pormake.
# Topology ctn, (3,4)-cn, num edge types: 1
# Building blocks:
#     Node 0, Type 0, BuildingBlock: KAKCAD_clean_linker_0, # of connection points: 3
#     Node 1, Type 0, BuildingBlock: KAKCAD_clean_linker_0, # of connection points: 3
#     Node 2, Type 0, BuildingBlock: KAKCAD_clean_linker_0, # of connection points: 3
#     Node 3, Type 0, BuildingBlock: KAKCAD_clean_linker_0, # of connection points: 3
#     Node 4, Type 0, BuildingBlock: KAKCAD_clean_linker_0, # of connection points: 3
#     Node 5, Type 0, BuildingBlock: KAKCAD_clean_linker_0, # of connection points: 3
#     Node 6, Type 0, BuildingBlock: KAKCAD_clean_linker_0, # of connection points: 3
#     Node 7, Type 0, BuildingBlock: KAKCAD_clean_linker_0, # of connection points: 3
#     Node 8, Type 0, BuildingBlock: KAKCAD_clean_linker_0, # of connection points: 3
#     Node 9, Type 0, BuildingBlock: KAKCAD_clean_linker_0, # of connection points: 3
#     Node 10, Type 0, BuildingBlock: KAKCAD_clean_linker_0, # of connection points: 3
#     Node 11, Type 0, BuildingBlock: KAKCAD_clean_linker_0, # of connection points: 3
#     Node 12, Type 0, BuildingBlock: KAKCAD_clean_linker_0, # of connection points: 3
#     Node 13, Type 0, BuildingBlock: KAKCAD_clean_linker_0, # of connection points: 3
#     Node 14, Type 0, BuildingBlock: KAKCAD_clean_linker_0, # of connection points: 3
#     Node 15, Type 0, BuildingBlock: KAKCAD_clean_linker_0, # of connection points: 3
#     Node 16, Type 1, BuildingBlock: QUQFOY_clean_sbu_1, # of connection points: 4
#     Node 17, Type 1, BuildingBlock: QUQFOY_clean_sbu_1, # of connection points: 4
#     Node 18, Type 1, BuildingBlock: QUQFOY_clean_sbu_1, # of connection points: 4
#     Node 19, Type 1, BuildingBlock: QUQFOY_clean_sbu_1, # of connection points: 4
#     Node 20, Type 1, BuildingBlock: QUQFOY_clean_sbu_1, # of connection points: 4
#     Node 21, Type 1, BuildingBlock: QUQFOY_clean_sbu_1, # of connection points: 4
#     Node 22, Type 1, BuildingBlock: QUQFOY_clean_sbu_1, # of connection points: 4
#     Node 23, Type 1, BuildingBlock: QUQFOY_clean_sbu_1, # of connection points: 4
#     Node 24, Type 1, BuildingBlock: QUQFOY_clean_sbu_1, # of connection points: 4
#     Node 25, Type 1, BuildingBlock: QUQFOY_clean_sbu_1, # of connection points: 4
#     Node 26, Type 1, BuildingBlock: QUQFOY_clean_sbu_1, # of connection points: 4
#     Node 27, Type 1, BuildingBlock: QUQFOY_clean_sbu_1, # of connection points: 4
#     Edge 28, Type (0, 1), BuildingBlock: CIFDUS_clean_linker_0, # of connection points: 2
#     Edge 29, Type (0, 1), BuildingBlock: CIFDUS_clean_linker_0, # of connection points: 2
#     Edge 30, Type (0, 1), BuildingBlock: CIFDUS_clean_linker_0, # of connection points: 2
#     Edge 31, Type (0, 1), BuildingBlock: CIFDUS_clean_linker_0, # of connection points: 2
#     Edge 32, Type (0, 1), BuildingBlock: CIFDUS_clean_linker_0, # of connection points: 2
#     Edge 33, Type (0, 1), BuildingBlock: CIFDUS_clean_linker_0, # of connection points: 2
#     Edge 34, Type (0, 1), BuildingBlock: CIFDUS_clean_linker_0, # of connection points: 2
#     Edge 35, Type (0, 1), BuildingBlock: CIFDUS_clean_linker_0, # of connection points: 2
#     Edge 36, Type (0, 1), BuildingBlock: CIFDUS_clean_linker_0, # of connection points: 2
#     Edge 37, Type (0, 1), BuildingBlock: CIFDUS_clean_linker_0, # of connection points: 2
#     Edge 38, Type (0, 1), BuildingBlock: CIFDUS_clean_linker_0, # of connection points: 2
#     Edge 39, Type (0, 1), BuildingBlock: CIFDUS_clean_linker_0, # of connection points: 2
#     Edge 40, Type (0, 1), BuildingBlock: CIFDUS_clean_linker_0, # of connection points: 2
#     Edge 41, Type (0, 1), BuildingBlock: CIFDUS_clean_linker_0, # of connection points: 2
#     Edge 42, Type (0, 1), BuildingBlock: CIFDUS_clean_linker_0, # of connection points: 2
#     Edge 43, Type (0, 1), BuildingBlock: CIFDUS_clean_linker_0, # of connection points: 2
#     Edge 44, Type (0, 1), BuildingBlock: CIFDUS_clean_linker_0, # of connection points: 2
#     Edge 45, Type (0, 1), BuildingBlock: CIFDUS_clean_linker_0, # of connection points: 2
#     Edge 46, Type (0, 1), BuildingBlock: CIFDUS_clean_linker_0, # of connection points: 2
#     Edge 47, Type (0, 1), BuildingBlock: CIFDUS_clean_linker_0, # of connection points: 2
#     Edge 48, Type (0, 1), BuildingBlock: CIFDUS_clean_linker_0, # of connection points: 2
#     Edge 49, Type (0, 1), BuildingBlock: CIFDUS_clean_linker_0, # of connection points: 2
#     Edge 50, Type (0, 1), BuildingBlock: CIFDUS_clean_linker_0, # of connection points: 2
#     Edge 51, Type (0, 1), BuildingBlock: CIFDUS_clean_linker_0, # of connection points: 2
#     Edge 52, Type (0, 1), BuildingBlock: CIFDUS_clean_linker_0, # of connection points: 2
#     Edge 53, Type (0, 1), BuildingBlock: CIFDUS_clean_linker_0, # of connection points: 2
#     Edge 54, Type (0, 1), BuildingBlock: CIFDUS_clean_linker_0, # of connection points: 2
#     Edge 55, Type (0, 1), BuildingBlock: CIFDUS_clean_linker_0, # of connection points: 2
#     Edge 56, Type (0, 1), BuildingBlock: CIFDUS_clean_linker_0, # of connection points: 2
#     Edge 57, Type (0, 1), BuildingBlock: CIFDUS_clean_linker_0, # of connection points: 2
#     Edge 58, Type (0, 1), BuildingBlock: CIFDUS_clean_linker_0, # of connection points: 2
#     Edge 59, Type (0, 1), BuildingBlock: CIFDUS_clean_linker_0, # of connection points: 2
#     Edge 60, Type (0, 1), BuildingBlock: CIFDUS_clean_linker_0, # of connection points: 2
#     Edge 61, Type (0, 1), BuildingBlock: CIFDUS_clean_linker_0, # of connection points: 2
#     Edge 62, Type (0, 1), BuildingBlock: CIFDUS_clean_linker_0, # of connection points: 2
#     Edge 63, Type (0, 1), BuildingBlock: CIFDUS_clean_linker_0, # of connection points: 2
#     Edge 64, Type (0, 1), BuildingBlock: CIFDUS_clean_linker_0, # of connection points: 2
#     Edge 65, Type (0, 1), BuildingBlock: CIFDUS_clean_linker_0, # of connection points: 2
#     Edge 66, Type (0, 1), BuildingBlock: CIFDUS_clean_linker_0, # of connection points: 2
#     Edge 67, Type (0, 1), BuildingBlock: CIFDUS_clean_linker_0, # of connection points: 2
#     Edge 68, Type (0, 1), BuildingBlock: CIFDUS_clean_linker_0, # of connection points: 2
#     Edge 69, Type (0, 1), BuildingBlock: CIFDUS_clean_linker_0, # of connection points: 2
#     Edge 70, Type (0, 1), BuildingBlock: CIFDUS_clean_linker_0, # of connection points: 2
#     Edge 71, Type (0, 1), BuildingBlock: CIFDUS_clean_linker_0, # of connection points: 2
#     Edge 72, Type (0, 1), BuildingBlock: CIFDUS_clean_linker_0, # of connection points: 2
#     Edge 73, Type (0, 1), BuildingBlock: CIFDUS_clean_linker_0, # of connection points: 2
#     Edge 74, Type (0, 1), BuildingBlock: CIFDUS_clean_linker_0, # of connection points: 2
#     Edge 75, Type (0, 1), BuildingBlock: CIFDUS_clean_linker_0, # of connection points: 2
# Relax obj value: 0.036
# Max RMSD: 0.145
# Mean RMSD: 0.065
data_MOF--net-ctn--node1-QUQFOY_clean_sbu_1--node2-KAKCAD_clean_linker_0--edge1-CIFDUS_clean_linker_0
_symmetry_space_group_name_H-M    P1
_symmetry_Int_Tables_number       1
_symmetry_cell_setting            triclinic
loop_
_symmetry_equiv_pos_as_xyz
'x, y, z'
_cell_length_a     60.912762
_cell_length_b     60.856855
_cell_length_c     60.959668
_cell_angle_alpha  92.89368
_cell_angle_beta   90.478721
_cell_angle_gamma 94.716213
loop_
_atom_site_label
_atom_site_type_symbol
_atom_site_fract_x
_atom_site_fract_y
_atom_site_fract_z
_atom_type_partial_charge
C0 C 0.02883 0.12818 -0.00054 0.0
C1 C 0.02456 0.14844 0.00992 0.0
C2 C 0.03284 0.11017 0.01183 0.0
C3 C 0.03286 0.11212 0.03494 0.0
C4 C 0.02965 0.13276 0.04533 0.0
C5 C 0.02543 0.15068 0.03296 0.0
C6 C 0.03467 0.09238 0.0481 0.0
C7 C 0.04882 0.07617 0.04172 0.0
C8 C 0.0491 0.05649 0.05293 0.0
C9 C 0.03551 0.05372 0.07133 0.0
C10 C 0.02176 0.07008 0.07838 0.0
C11 C 0.02129 0.08919 0.0665 0.0
C12 C 0.00755 0.06711 0.09792 0.0
C13 C 0.99657 0.04644 0.10169 0.0
C14 C 0.00488 0.08497 0.11297 0.0
C15 C 0.9917 0.08217 0.13145 0.0
C16 C 0.98103 0.06142 0.13535 0.0
C17 C 0.06296 0.0386 0.04497 0.0
C18 C 0.06684 0.03506 0.0224 0.0
C19 C 0.07202 0.02457 0.05968 0.0
C20 C 0.08422 0.00731 0.052 0.0
C21 C 0.08819 0.00389 0.02942 0.0
C22 C 0.07951 0.01823 0.0148 0.0
C23 C 0.98352 0.04362 0.12022 0.0
H24 H 0.02807 0.12596 0.98171 0.0
H25 H 0.03498 0.09448 0.00327 0.0
H26 H 0.03002 0.13499 0.06307 0.0
H27 H 0.02253 0.16623 0.04143 0.0
H28 H 0.05969 0.079 0.02801 0.0
H29 H 0.00983 0.10125 0.07117 0.0
H30 H 0.03541 0.03871 0.08013 0.0
H31 H 0.99788 0.03245 0.09021 0.0
H32 H 0.01332 0.10105 0.11071 0.0
H33 H 0.99028 0.09612 0.14296 0.0
H34 H 0.05989 0.04511 0.01039 0.0
H35 H 0.06982 0.02689 0.07722 0.0
H36 H 0.97522 0.0275 0.12265 0.0
H37 H 0.08255 0.01664 0.99735 0.0
H38 H 0.09031 0.99657 0.06386 0.0
C39 C 0.34994 0.79001 0.25529 0.0
C40 C 0.35665 0.77367 0.26888 0.0
C41 C 0.33039 0.78654 0.24287 0.0
C42 C 0.31728 0.76641 0.24326 0.0
C43 C 0.32437 0.74992 0.25642 0.0
C44 C 0.3434 0.75365 0.26933 0.0
C45 C 0.29649 0.76218 0.22994 0.0
C46 C 0.29409 0.77149 0.20945 0.0
C47 C 0.27527 0.76568 0.19625 0.0
C48 C 0.25904 0.74995 0.20327 0.0
C49 C 0.26094 0.74069 0.22375 0.0
C50 C 0.27923 0.74767 0.23726 0.0
C51 C 0.24472 0.72273 0.23055 0.0
C52 C 0.22221 0.72251 0.22512 0.0
C53 C 0.25193 0.70515 0.24207 0.0
C54 C 0.23711 0.68789 0.24804 0.0
C55 C 0.21469 0.68737 0.24223 0.0
C56 C 0.27268 0.77561 0.17482 0.0
C57 C 0.27443 0.79865 0.17343 0.0
C58 C 0.26771 0.76211 0.15578 0.0
C59 C 0.2645 0.77148 0.13567 0.0
C60 C 0.26587 0.79452 0.13433 0.0
C61 C 0.27085 0.80804 0.15337 0.0
C62 C 0.20738 0.70497 0.2308 0.0
H63 H 0.35976 0.80554 0.25409 0.0
H64 H 0.32554 0.79976 0.23315 0.0
H65 H 0.31531 0.73389 0.2568 0.0
H66 H 0.34746 0.74074 0.27985 0.0
H67 H 0.30711 0.78262 0.20326 0.0
H68 H 0.28009 0.74148 0.25355 0.0
H69 H 0.24506 0.74479 0.19259 0.0
H70 H 0.21599 0.73587 0.21648 0.0
H71 H 0.26917 0.70444 0.24621 0.0
H72 H 0.24334 0.67492 0.25725 0.0
H73 H 0.27812 0.80938 0.18794 0.0
H74 H 0.26637 0.74429 0.15644 0.0
H75 H 0.19026 0.70507 0.2259 0.0
H76 H 0.27216 0.82585 0.15269 0.0
H77 H 0.2606 0.76071 0.12122 0.0
C78 C 0.9853 0.50753 0.1479 0.0
C79 C 0.00764 0.50315 0.14761 0.0
C80 C 0.9724 0.50464 0.1287 0.0
C81 C 0.98156 0.49724 0.10886 0.0
C82 C 0.00395 0.49319 0.10854 0.0
C83 C 0.01682 0.49611 0.12766 0.0
C84 C 0.9679 0.49317 0.08856 0.0
C85 C 0.95321 0.50842 0.08217 0.0
C86 C 0.94139 0.50491 0.06222 0.0
C87 C 0.94392 0.48572 0.04898 0.0
C88 C 0.95824 0.47023 0.05531 0.0
C89 C 0.97013 0.47407 0.0751 0.0
C90 C 0.96118 0.45026 0.04102 0.0
C91 C 0.94287 0.43771 0.03141 0.0
C92 C 0.9824 0.44371 0.0368 0.0
C93 C 0.98526 0.42507 0.02315 0.0
C94 C 0.96696 0.41251 0.01353 0.0
C95 C 0.92683 0.5214 0.05459 0.0
C96 C 0.91046 0.52939 0.06821 0.0
C97 C 0.92852 0.52831 0.033 0.0
C98 C 0.91361 0.54218 0.02486 0.0
C99 C 0.89645 0.54931 0.03804 0.0
C100 C 0.89534 0.54316 0.05999 0.0
C101 C 0.94573 0.41897 0.01787 0.0
H102 H 0.97769 0.51282 0.16305 0.0
H103 H 0.95515 0.50772 0.12947 0.0
H104 H 0.01161 0.48789 0.09342 0.0
H105 H 0.03407 0.49309 0.12673 0.0
H106 H 0.95163 0.5234 0.09223 0.0
H107 H 0.98099 0.46198 0.08018 0.0
H108 H 0.93487 0.48298 0.03356 0.0
H109 H 0.92632 0.44228 0.03451 0.0
H110 H 0.99682 0.45318 0.04382 0.0
H111 H 0.0018 0.42038 0.02026 0.0
H112 H 0.9088 0.52424 0.08492 0.0
H113 H 0.94125 0.52272 0.02228 0.0
H114 H 0.93134 0.4097 0.01053 0.0
H115 H 0.88226 0.54823 0.07054 0.0
H116 H 0.91532 0.54705 0.00808 0.0
C117 C 0.72193 0.74168 0.17113 0.0
C118 C 0.74355 0.73843 0.16456 0.0
C119 C 0.71808 0.75351 0.19071 0.0
C120 C 0.73574 0.76228 0.20429 0.0
C121 C 0.75734 0.75844 0.19809 0.0
C122 C 0.76121 0.7466 0.17842 0.0
C123 C 0.7316 0.77633 0.22423 0.0
C124 C 0.71345 0.77102 0.23758 0.0
C125 C 0.70844 0.78519 0.25536 0.0
C126 C 0.72229 0.8044 0.26032 0.0
C127 C 0.74021 0.81041 0.24684 0.0
C128 C 0.74475 0.79611 0.22888 0.0
C129 C 0.753 0.83234 0.2504 0.0
C130 C 0.74268 0.85085 0.25864 0.0
C131 C 0.77539 0.83522 0.24483 0.0
C132 C 0.78692 0.85605 0.24693 0.0
C133 C 0.7766 0.87453 0.25529 0.0
C134 C 0.68722 0.78168 0.2669 0.0
C135 C 0.66756 0.77771 0.25459 0.0
C136 C 0.68612 0.78473 0.28986 0.0
C137 C 0.6657 0.78476 0.30021 0.0
C138 C 0.64611 0.78206 0.2877 0.0
C139 C 0.64721 0.77801 0.26488 0.0
C140 C 0.75438 0.87151 0.26137 0.0
H141 H 0.70795 0.73529 0.16096 0.0
H142 H 0.70125 0.75636 0.19483 0.0
H143 H 0.77128 0.7648 0.20833 0.0
H144 H 0.77805 0.74444 0.17377 0.0
H145 H 0.70288 0.75605 0.23392 0.0
H146 H 0.75778 0.80091 0.21768 0.0
H147 H 0.71839 0.81519 0.27416 0.0
H148 H 0.72537 0.84963 0.26268 0.0
H149 H 0.7841 0.8214 0.23873 0.0
H150 H 0.80388 0.85759 0.24168 0.0
H151 H 0.66789 0.77555 0.23685 0.0
H152 H 0.70104 0.78776 0.29972 0.0
H153 H 0.74585 0.88509 0.26832 0.0
H154 H 0.63231 0.77573 0.25491 0.0
H155 H 0.66524 0.78798 0.31783 0.0
C156 C 0.99033 0.98556 0.42752 0.0
C157 C 0.99508 0.98694 0.40504 0.0
C158 C 0.00406 0.97499 0.44139 0.0
C159 C 0.02292 0.96587 0.43309 0.0
C160 C 0.02744 0.96677 0.41064 0.0
C161 C 0.01357 0.97696 0.39673 0.0
C162 C 0.03891 0.95708 0.44802 0.0
C163 C 0.03238 0.94031 0.46214 0.0
C164 C 0.0477 0.93259 0.47673 0.0
C165 C 0.0695 0.94225 0.47731 0.0
C166 C 0.07609 0.95925 0.46347 0.0
C167 C 0.06077 0.96629 0.44862 0.0
C168 C 0.09825 0.97121 0.46589 0.0
C169 C 0.10658 0.97809 0.4869 0.0
C170 C 0.11023 0.97766 0.44734 0.0
C171 C 0.12955 0.99169 0.44974 0.0
C172 C 0.13709 -0.00039 0.47072 0.0
C173 C 0.04096 0.915 0.49194 0.0
C174 C 0.02075 0.91498 0.5029 0.0
C175 C 0.05509 0.89851 0.49621 0.0
C176 C 0.04934 0.88266 0.51139 0.0
C177 C 0.02928 0.88284 0.52256 0.0
C178 C 0.01496 0.89906 0.51802 0.0
C179 C 0.12579 0.99217 0.48928 0.0
H180 H 0.97639 0.99319 0.43458 0.0
H181 H 0.00043 0.97467 0.45874 0.0
H182 H 0.04185 0.95971 0.40389 0.0
H183 H 0.01744 0.97704 0.37943 0.0
H184 H 0.0155 0.93311 0.46151 0.0
H185 H 0.06552 0.97982 0.43826 0.0
H186 H 0.08126 0.93694 0.48895 0.0
H187 H 0.09764 0.97356 0.50151 0.0
H188 H 0.10429 0.97241 0.43095 0.0
H189 H 0.13793 0.99723 0.43516 0.0
H190 H 0.00964 0.92763 0.50024 0.0
H191 H 0.07061 0.89783 0.48776 0.0
H192 H 0.1314 -0.00212 0.50566 0.0
H193 H -0.00051 0.89976 0.52656 0.0
H194 H 0.06055 0.87015 0.51428 0.0
C195 C 0.16244 0.73928 0.71026 0.0
C196 C 0.15654 0.76067 0.70675 0.0
C197 C 0.18237 0.73616 0.72067 0.0
C198 C 0.19662 0.7544 0.728 0.0
C199 C 0.19125 0.77576 0.72344 0.0
C200 C 0.17142 0.77886 0.71274 0.0
C201 C 0.21549 0.75124 0.74268 0.0
C202 C 0.22994 0.73491 0.73765 0.0
C203 C 0.24644 0.73059 0.75274 0.0
C204 C 0.24819 0.74263 0.77305 0.0
C205 C 0.23353 0.75863 0.77851 0.0
C206 C 0.21751 0.76309 0.76304 0.0
C207 C 0.2335 0.76927 0.80099 0.0
C208 C 0.23566 0.75667 0.81949 0.0
C209 C 0.22999 0.79174 0.80416 0.0
C210 C 0.2283 0.80131 0.82533 0.0
C211 C 0.2301 0.78862 0.84381 0.0
C212 C 0.26063 0.71222 0.74833 0.0
C213 C 0.25118 0.69121 0.74121 0.0
C214 C 0.28337 0.71508 0.75292 0.0
C215 C 0.29627 0.69709 0.7512 0.0
C216 C 0.28659 0.67589 0.74513 0.0
C217 C 0.26402 0.6732 0.73974 0.0
C218 C 0.234 0.76625 0.84066 0.0
H219 H 0.15123 0.725 0.70567 0.0
H220 H 0.18601 0.71954 0.72413 0.0
H221 H 0.20203 0.79008 0.72888 0.0
H222 H 0.16718 0.79551 0.71027 0.0
H223 H 0.22822 0.72544 0.7221 0.0
H224 H 0.20561 0.77482 0.7674 0.0
H225 H 0.26049 0.73894 0.78498 0.0
H226 H 0.23795 0.73922 0.81762 0.0
H227 H 0.2285 0.80193 0.79025 0.0
H228 H 0.22571 0.81869 0.82724 0.0
H229 H 0.23368 0.68849 0.73773 0.0
H230 H 0.29108 0.73114 0.75833 0.0
H231 H 0.23524 0.75599 0.85456 0.0
H232 H 0.25619 0.65704 0.73487 0.0
H233 H 0.3136 0.6996 0.75555 0.0
C234 C 0.98305 0.60579 0.54263 0.0
C235 C 0.97771 0.60676 0.56501 0.0
C236 C 0.98693 0.58575 0.53187 0.0
C237 C 0.98573 0.56618 0.54326 0.0
C238 C 0.98077 0.56717 0.56576 0.0
C239 C 0.97682 0.58727 0.57653 0.0
C240 C 0.98814 0.54471 0.53121 0.0
C241 C 0.00361 0.54318 0.51433 0.0
C242 C 0.00345 0.52414 0.50033 0.0
C243 C 0.98841 0.50605 0.50413 0.0
C244 C 0.97268 0.50735 0.52072 0.0
C245 C 0.97293 0.52658 0.53447 0.0
C246 C 0.95365 0.49055 0.52106 0.0
C247 C 0.94277 0.48336 0.50124 0.0
C248 C 0.94477 0.48348 0.54098 0.0
C249 C 0.92485 0.47026 0.54108 0.0
C250 C 0.91347 0.46418 0.52129 0.0
C251 C 0.01626 0.5246 0.47974 0.0
C252 C 0.00589 0.51701 0.45977 0.0
C253 C 0.03798 0.53438 0.47945 0.0
C254 C 0.04884 0.53709 0.45951 0.0
C255 C 0.03809 0.53019 0.43954 0.0
C256 C 0.0167 0.51974 0.43993 0.0
C257 C 0.9229 0.47034 0.50137 0.0
H258 H 0.98423 0.62055 0.53335 0.0
H259 H 0.99028 0.58555 0.51445 0.0
H260 H 0.97977 0.55237 0.57498 0.0
H261 H 0.97263 0.58747 0.59377 0.0
H262 H 0.01486 0.55738 0.5112 0.0
H263 H 0.96004 0.52816 0.54646 0.0
H264 H 0.98812 0.49133 0.49331 0.0
H265 H 0.94897 0.48876 0.48563 0.0
H266 H 0.95287 0.48874 0.55647 0.0
H267 H 0.91783 0.46572 0.55665 0.0
H268 H 0.98905 0.50974 0.45934 0.0
H269 H 0.04639 0.54032 0.49459 0.0
H270 H 0.91449 0.46568 0.48589 0.0
H271 H 0.00813 0.51396 0.42482 0.0
H272 H 0.06533 0.54524 0.45968 0.0
C273 C 0.78785 0.77919 0.868 0.0
C274 C 0.76675 0.77231 0.87539 0.0
C275 C 0.79045 0.79349 0.85085 0.0
C276 C 0.77199 0.80121 0.84062 0.0
C277 C 0.75086 0.79444 0.84808 0.0
C278 C 0.74826 0.78014 0.8653 0.0
C279 C 0.775 0.81632 0.82229 0.0
C280 C 0.79097 0.81275 0.80632 0.0
C281 C 0.79545 0.82776 0.78984 0.0
C282 C 0.78318 0.8463 0.78913 0.0
C283 C 0.76666 0.84981 0.80459 0.0
C284 C 0.76266 0.83474 0.82111 0.0
C285 C 0.75419 0.86969 0.804 0.0
C286 C 0.76531 0.89058 0.80166 0.0
C287 C 0.73116 0.868 0.80611 0.0
C288 C 0.7195 0.88685 0.80597 0.0
C289 C 0.73069 0.90777 0.80401 0.0
C290 C 0.81321 0.82415 0.77374 0.0
C291 C 0.83263 0.81523 0.78039 0.0
C292 C 0.81086 0.82923 0.75163 0.0
C293 C 0.82739 0.82521 0.73653 0.0
C294 C 0.84657 0.81577 0.7431 0.0
C295 C 0.84896 0.8109 0.76526 0.0
C296 C 0.7537 0.90943 0.80176 0.0
H297 H 0.80243 0.77379 0.8757 0.0
H298 H 0.80698 0.79874 0.84581 0.0
H299 H 0.73632 0.79993 0.8404 0.0
H300 H 0.73177 0.77494 0.8705 0.0
H301 H 0.79985 0.79806 0.80668 0.0
H302 H 0.75055 0.83787 0.83356 0.0
H303 H 0.78657 0.85815 0.77667 0.0
H304 H 0.78307 0.89239 0.80018 0.0
H305 H 0.72217 0.85207 0.8078 0.0
H306 H 0.70178 0.88513 0.80788 0.0
H307 H 0.83527 0.81152 0.79734 0.0
H308 H 0.79607 0.83595 0.74586 0.0
H309 H 0.76272 0.92533 0.80006 0.0
H310 H 0.86327 0.8033 0.77095 0.0
H311 H 0.82509 0.82948 0.71968 0.0
C312 C 0.29043 0.26327 0.37534 0.0
C313 C 0.26907 0.26001 0.38382 0.0
C314 C 0.29572 0.27986 0.36086 0.0
C315 C 0.27961 0.29318 0.35348 0.0
C316 C 0.25807 0.28961 0.36153 0.0
C317 C 0.25298 0.27353 0.37673 0.0
C318 C 0.28551 0.31081 0.33777 0.0
C319 C 0.30285 0.30852 0.32292 0.0
C320 C 0.31028 0.32575 0.30963 0.0
C321 C 0.29893 0.34494 0.31004 0.0
C322 C 0.28065 0.34707 0.32365 0.0
C323 C 0.27439 0.33022 0.33782 0.0
C324 C 0.26801 0.36687 0.32281 0.0
C325 C 0.27898 0.38803 0.3219 0.0
C326 C 0.24486 0.36463 0.32205 0.0
C327 C 0.23294 0.38313 0.3201 0.0
C328 C 0.24393 0.40427 0.319 0.0
C329 C 0.33006 0.3237 0.29564 0.0
C330 C 0.34767 0.31215 0.30281 0.0
C331 C 0.33165 0.33328 0.27514 0.0
C332 C 0.35025 0.33131 0.26218 0.0
C333 C 0.36757 0.3192 0.26906 0.0
C334 C 0.36601 0.30971 0.28961 0.0
C335 C 0.26708 0.40652 0.32003 0.0
H336 H 0.3033 0.253 0.37972 0.0
H337 H 0.31266 0.28225 0.35571 0.0
H338 H 0.24499 0.29912 0.35611 0.0
H339 H 0.2364 0.27198 0.38302 0.0
H340 H 0.3106 0.29316 0.32152 0.0
H341 H 0.26118 0.33263 0.34923 0.0
H342 H 0.30422 0.35828 0.29971 0.0
H343 H 0.2968 0.39032 0.32265 0.0
H344 H 0.23595 0.34851 0.32252 0.0
H345 H 0.21511 0.3809 0.31961 0.0
H346 H 0.34739 0.30496 0.3187 0.0
H347 H 0.31841 0.3421 0.26887 0.0
H348 H 0.27604 0.42256 0.31905 0.0
H349 H 0.37876 0.3 0.29544 0.0
H350 H 0.35096 0.3393 0.24671 0.0
C351 C 0.47864 0.99007 0.64835 0.0
C352 C 0.50075 0.98507 0.64725 0.0
C353 C 0.46441 0.98516 0.63035 0.0
C354 C 0.47202 0.97522 0.61086 0.0
C355 C 0.49408 0.96997 0.60993 0.0
C356 C 0.50824 0.97476 0.62795 0.0
C357 C 0.45733 0.97084 0.59127 0.0
C358 C 0.4429 0.98645 0.58514 0.0
C359 C 0.43055 0.98313 0.56554 0.0
C360 C 0.43234 0.96388 0.55224 0.0
C361 C 0.44642 0.94804 0.55824 0.0
C362 C 0.45869 0.95154 0.57785 0.0
C363 C 0.44934 0.92852 0.54333 0.0
C364 C 0.43107 0.91646 0.5331 0.0
C365 C 0.47059 0.9224 0.53857 0.0
C366 C 0.47356 0.9049 0.5235 0.0
C367 C 0.45533 0.89309 0.51294 0.0
C368 C 0.41657 0.00018 0.55817 0.0
C369 C 0.4003 0.00826 0.57183 0.0
C370 C 0.41895 0.0078 0.53692 0.0
C371 C 0.40488 0.0227 0.52916 0.0
C372 C 0.38784 0.03007 0.54236 0.0
C373 C 0.38596 0.02299 0.56395 0.0
C374 C 0.43403 0.89884 0.5181 0.0
H375 H 0.47237 0.99783 0.66314 0.0
H376 H 0.44745 0.98914 0.6317 0.0
H377 H 0.50063 0.9627 0.59504 0.0
H378 H 0.52528 0.97104 0.6265 0.0
H379 H 0.44205 0.00168 0.595 0.0
H380 H 0.4694 0.9392 0.58263 0.0
H381 H 0.4231 0.96149 0.5369 0.0
H382 H 0.41449 0.92073 0.5366 0.0
H383 H 0.48499 0.93153 0.54604 0.0
H384 H 0.49015 0.90068 0.51999 0.0
H385 H 0.39816 0.00256 0.58829 0.0
H386 H 0.43165 0.00209 0.52622 0.0
H387 H 0.4197 0.8901 0.51011 0.0
H388 H 0.37294 0.02816 0.57451 0.0
H389 H 0.40722 0.02823 0.51267 0.0
C390 C 0.20221 0.23811 0.67355 0.0
C391 C 0.22159 0.23636 0.66143 0.0
C392 C 0.2022 0.25202 0.69248 0.0
C393 C 0.2216 0.2644 0.69982 0.0
C394 C 0.2412 0.26188 0.68825 0.0
C395 C 0.24118 0.24807 0.66924 0.0
C396 C 0.22111 0.28091 0.71859 0.0
C397 C 0.20827 0.2764 0.73712 0.0
C398 C 0.20657 0.2926 0.75416 0.0
C399 C 0.21868 0.31318 0.75282 0.0
C400 C 0.23163 0.31806 0.73443 0.0
C401 C 0.23254 0.30181 0.71733 0.0
C402 C 0.24373 0.34027 0.73285 0.0
C403 C 0.23504 0.35934 0.74204 0.0
C404 C 0.26417 0.3426 0.72228 0.0
C405 C 0.27568 0.36333 0.72116 0.0
C406 C 0.2674 0.38228 0.73111 0.0
C407 C 0.1907 0.28898 0.77236 0.0
C408 C 0.16977 0.27793 0.76805 0.0
C409 C 0.19536 0.29852 0.79358 0.0
C410 C 0.17899 0.29857 0.80949 0.0
C411 C 0.15778 0.28864 0.80467 0.0
C412 C 0.15353 0.27764 0.7841 0.0
C413 C 0.24683 0.37996 0.74146 0.0
H414 H 0.18691 0.22904 0.66816 0.0
H415 H 0.18678 0.25367 0.70089 0.0
H416 H 0.2565 0.27095 0.69365 0.0
H417 H 0.25637 0.24723 0.66024 0.0
H418 H 0.19947 0.2603 0.73822 0.0
H419 H 0.24149 0.3057 0.70256 0.0
H420 H 0.21758 0.32566 0.76594 0.0
H421 H 0.2191 0.35845 0.74979 0.0
H422 H 0.27158 0.32838 0.71516 0.0
H423 H 0.29118 0.36437 0.71257 0.0
H424 H 0.16542 0.27061 0.75187 0.0
H425 H 0.21145 0.30667 0.7977 0.0
H426 H 0.23991 0.39398 0.74959 0.0
H427 H 0.13722 0.27004 0.77995 0.0
H428 H 0.18267 0.30698 0.82534 0.0
C429 C 0.86376 0.2879 0.76502 0.0
C430 C 0.87601 0.27023 0.77029 0.0
C431 C 0.84407 0.28402 0.75293 0.0
C432 C 0.83629 0.2624 0.74592 0.0
C433 C 0.84916 0.24493 0.75021 0.0
C434 C 0.86878 0.2488 0.76226 0.0
C435 C 0.81417 0.25772 0.73554 0.0
C436 C 0.80694 0.2707 0.71891 0.0
C437 C 0.786 0.26585 0.70905 0.0
C438 C 0.77221 0.24808 0.71633 0.0
C439 C 0.77921 0.235 0.73291 0.0
C440 C 0.80014 0.24 0.74246 0.0
C441 C 0.76486 0.21585 0.74003 0.0
C442 C 0.74224 0.21754 0.74328 0.0
C443 C 0.77371 0.19568 0.74349 0.0
C444 C 0.76022 0.17755 0.74998 0.0
C445 C 0.73759 0.1792 0.75313 0.0
C446 C 0.77877 0.27866 0.69055 0.0
C447 C 0.78294 0.30174 0.69086 0.0
C448 C 0.76772 0.26772 0.67227 0.0
C449 C 0.7612 0.2795 0.65464 0.0
C450 C 0.76566 0.30253 0.65475 0.0
C451 C 0.77642 0.31357 0.67315 0.0
C452 C 0.72875 0.19941 0.74977 0.0
H453 H 0.86887 0.30459 0.77109 0.0
H454 H 0.83444 0.29778 0.74994 0.0
H455 H 0.84383 0.22815 0.7446 0.0
H456 H 0.8781 0.23492 0.76567 0.0
H457 H 0.81791 0.28405 0.71314 0.0
H458 H 0.80538 0.23029 0.75568 0.0
H459 H 0.75605 0.24422 0.70887 0.0
H460 H 0.73501 0.23296 0.74104 0.0
H461 H 0.79102 0.19377 0.7408 0.0
H462 H 0.76746 0.16211 0.75213 0.0
H463 H 0.79123 0.31068 0.7048 0.0
H464 H 0.76447 0.24993 0.67136 0.0
H465 H 0.71142 0.20128 0.75239 0.0
H466 H 0.78029 0.33128 0.67364 0.0
H467 H 0.75274 0.27053 0.64083 0.0
C468 C 0.53605 0.62799 0.48566 0.0
C469 C 0.52719 0.64683 0.49502 0.0
C470 C 0.5435 0.61207 0.49904 0.0
C471 C 0.54244 0.61477 0.52206 0.0
C472 C 0.53422 0.63402 0.53137 0.0
C473 C 0.52658 0.6498 0.518 0.0
C474 C 0.54898 0.59717 0.53629 0.0
C475 C 0.56714 0.58516 0.53097 0.0
C476 C 0.57266 0.56775 0.54372 0.0
C477 C 0.55999 0.56267 0.56221 0.0
C478 C 0.54187 0.57454 0.56788 0.0
C479 C 0.53649 0.59173 0.55484 0.0
C480 C 0.52806 0.56845 0.58695 0.0
C481 C 0.52206 0.54615 0.59056 0.0
C482 C 0.52068 0.5848 0.60156 0.0
C483 C 0.50774 0.57895 0.61954 0.0
C484 C 0.50192 0.55662 0.62325 0.0
C485 C 0.59109 0.55428 0.53728 0.0
C486 C 0.5941 0.54785 0.51511 0.0
C487 C 0.60534 0.54715 0.55324 0.0
C488 C 0.62206 0.53371 0.54718 0.0
C489 C 0.62495 0.52719 0.52502 0.0
C490 C 0.61084 0.53449 0.50905 0.0
C491 C 0.50914 0.54031 0.60848 0.0
H492 H 0.53653 0.6252 0.46799 0.0
H493 H 0.54943 0.59733 0.49128 0.0
H494 H 0.53357 0.63686 0.54902 0.0
H495 H 0.52015 0.66436 0.52564 0.0
H496 H 0.57714 0.58949 0.51696 0.0
H497 H 0.52199 0.60031 0.55868 0.0
H498 H 0.56402 0.54919 0.57205 0.0
H499 H 0.5271 0.53318 0.57935 0.0
H500 H 0.5252 0.60212 0.5993 0.0
H501 H 0.50263 0.59188 0.63075 0.0
H502 H 0.58318 0.55271 0.50244 0.0
H503 H 0.60365 0.55206 0.57043 0.0
H504 H 0.50458 0.52298 0.61063 0.0
H505 H 0.61245 0.52949 0.49187 0.0
H506 H 0.63286 0.52861 0.55982 0.0
C507 C 0.47022 0.4949 0.91507 0.0
C508 C 0.48085 0.50012 0.89539 0.0
C509 C 0.48248 0.49224 0.93413 0.0
C510 C 0.50563 0.49479 0.93389 0.0
C511 C 0.51622 0.49978 0.91415 0.0
C512 C 0.504 0.50248 0.89517 0.0
C513 C 0.51876 0.49294 0.95427 0.0
C514 C 0.51316 0.47625 0.96884 0.0
C515 C 0.52537 0.47476 0.98839 0.0
C516 C 0.54355 0.4902 0.99296 0.0
C517 C 0.54975 0.5065 0.97821 0.0
C518 C 0.53708 0.50794 0.95913 0.0
C519 C 0.56982 0.52171 0.98234 0.0
C520 C 0.57458 0.53165 0.00334 0.0
C521 C 0.58448 0.52625 0.96516 0.0
C522 C 0.60343 0.54049 0.96884 0.0
C523 C 0.60818 0.5505 0.9898 0.0
C524 C 0.5193 0.45706 0.00389 0.0
C525 C 0.49719 0.44906 0.0064 0.0
C526 C 0.53554 0.44806 0.01646 0.0
C527 C 0.5298 0.43197 0.0314 0.0
C528 C 0.50769 0.42385 0.0338 0.0
C529 C 0.49151 0.43249 0.02086 0.0
C530 C 0.59355 0.54594 0.00702 0.0
H531 H 0.45241 0.49272 0.91573 0.0
H532 H 0.47383 0.48857 0.94913 0.0
H533 H 0.53403 0.50159 0.91333 0.0
H534 H 0.51272 0.50672 0.88036 0.0
H535 H 0.4996 0.46412 0.96457 0.0
H536 H 0.54134 0.52107 0.94816 0.0
H537 H 0.55311 0.4895 0.00791 0.0
H538 H 0.56351 0.52857 0.01686 0.0
H539 H 0.58139 0.51864 0.94886 0.0
H540 H 0.61422 0.54388 0.95518 0.0
H541 H 0.48408 0.45569 0.99737 0.0
H542 H 0.55283 0.45331 0.01475 0.0
H543 H 0.59687 0.55329 0.02339 0.0
H544 H 0.47435 0.42644 0.02172 0.0
H545 H 0.54279 0.42611 0.04121 0.0
C546 C 0.65182 0.21949 0.23134 0.0
C547 C 0.64393 0.24019 0.22802 0.0
C548 C 0.67185 0.218 0.24234 0.0
C549 C 0.68444 0.23719 0.25024 0.0
C550 C 0.67713 0.25788 0.24586 0.0
C551 C 0.65711 0.25937 0.23494 0.0
C552 C 0.7041 0.2358 0.26458 0.0
C553 C 0.71936 0.2201 0.26008 0.0
C554 C 0.7375 0.21865 0.27422 0.0
C555 C 0.74038 0.23326 0.29283 0.0
C556 C 0.72492 0.2486 0.29798 0.0
C557 C 0.70687 0.24967 0.28369 0.0
C558 C 0.72673 0.26262 0.31884 0.0
C559 C 0.73503 0.25448 0.33817 0.0
C560 C 0.71923 0.28391 0.31986 0.0
C561 C 0.71929 0.29636 0.33975 0.0
C562 C 0.72742 0.28815 0.35913 0.0
C563 C 0.75254 0.20082 0.27075 0.0
C564 C 0.74388 0.17884 0.26693 0.0
C565 C 0.77548 0.20533 0.27317 0.0
C566 C 0.78938 0.18811 0.27259 0.0
C567 C 0.78058 0.16606 0.26985 0.0
C568 C 0.75774 0.16163 0.26659 0.0
C569 C 0.7356 0.26716 0.35795 0.0
H570 H 0.64225 0.20439 0.22588 0.0
H571 H 0.67696 0.20182 0.2455 0.0
H572 H 0.68663 0.27299 0.25145 0.0
H573 H 0.65153 0.27558 0.23281 0.0
H574 H 0.7172 0.20904 0.24559 0.0
H575 H 0.69429 0.26068 0.28791 0.0
H576 H 0.75437 0.23214 0.30368 0.0
H577 H 0.74066 0.23808 0.33825 0.0
H578 H 0.7131 0.291 0.30531 0.0
H579 H 0.71256 0.31227 0.33989 0.0
H580 H 0.72627 0.17485 0.26518 0.0
H581 H 0.78261 0.22214 0.27601 0.0
H582 H 0.74247 0.26038 0.37232 0.0
H583 H 0.75054 0.14479 0.26425 0.0
H584 H 0.80691 0.192 0.27522 0.0
C585 C 0.44251 0.14674 0.01143 0.0
C586 C 0.43965 0.14502 0.03415 0.0
C587 C 0.44088 0.12789 0.99735 0.0
C588 C 0.43645 0.10688 0.00565 0.0
C589 C 0.43316 0.10517 0.02831 0.0
C590 C 0.43475 0.12405 0.04242 0.0
C591 C 0.43571 0.08684 0.99071 0.0
C592 C 0.4513 0.08517 0.97402 0.0
C593 C 0.45056 0.06653 0.95945 0.0
C594 C 0.43411 0.04931 0.96178 0.0
C595 C 0.41842 0.0507 0.97843 0.0
C596 C 0.41937 0.06947 0.99288 0.0
C597 C 0.40055 0.03292 0.9803 0.0
C598 C 0.38867 0.02422 0.96154 0.0
C599 C 0.3949 0.02492 0.0009 0.0
C600 C 0.37758 0.00862 0.00272 0.0
C601 C 0.36549 0.00017 0.984 0.0
C602 C 0.46676 0.06537 0.94156 0.0
C603 C 0.47163 0.08369 0.9288 0.0
C604 C 0.47747 0.04608 0.93714 0.0
C605 C 0.49284 0.04517 0.92031 0.0
C606 C 0.4976 0.06347 0.90748 0.0
C607 C 0.48686 0.08273 0.9119 0.0
C608 C 0.37126 0.00805 0.96339 0.0
H609 H 0.44653 0.16262 0.00457 0.0
H610 H 0.44317 0.12977 0.97992 0.0
H611 H 0.42983 0.08919 0.03521 0.0
H612 H 0.43222 0.12223 0.05982 0.0
H613 H 0.46429 0.09827 0.97254 0.0
H614 H 0.40693 0.07088 0.00537 0.0
H615 H 0.43338 0.03491 0.95049 0.0
H616 H 0.39256 0.03023 0.94549 0.0
H617 H 0.40389 0.03125 0.01559 0.0
H618 H 0.37338 0.00293 0.01883 0.0
H619 H 0.46347 0.0987 0.93174 0.0
H620 H 0.47411 0.03178 0.94685 0.0
H621 H 0.36232 0.00167 0.94867 0.0
H622 H 0.49035 0.09714 0.90238 0.0
H623 H 0.50078 0.03006 0.91712 0.0
O624 O 0.22591 0.85803 0.96796 0.0
Cd625 Cd 0.23446 0.87717 0.99607 0.0
Cd626 Cd 0.20685 0.90427 0.97819 0.0
O627 O 0.20126 0.87863 0.95487 0.0
O628 O 0.25046 0.85719 0.0141 0.0
O629 O 0.22029 0.87196 0.02534 0.0
C630 C 0.23603 0.85962 0.02915 0.0
C631 C 0.17783 0.92056 0.99528 0.0
C632 C 0.21184 0.86149 0.9533 0.0
C633 C 0.25401 0.92155 0.98329 0.0
O634 O 0.23526 0.9247 0.97533 0.0
O635 O 0.25683 0.90397 0.99295 0.0
O636 O 0.1821 0.92323 0.97486 0.0
O637 O 0.18965 0.9079 0.00597 0.0
O638 O 0.15898 0.55808 0.28301 0.0
Cd639 Cd 0.14478 0.53069 0.29772 0.0
Cd640 Cd 0.10592 0.55077 0.28268 0.0
O641 O 0.12952 0.57556 0.27592 0.0
O642 O 0.17111 0.51714 0.30863 0.0
O643 O 0.14768 0.49989 0.2845 0.0
C644 C 0.16519 0.49969 0.29655 0.0
C645 C 0.07969 0.54115 0.25503 0.0
C646 C 0.15028 0.57477 0.27613 0.0
C647 C 0.10831 0.53998 0.33009 0.0
O648 O 0.09681 0.54654 0.31462 0.0
O649 O 0.12751 0.53401 0.32652 0.0
O650 O 0.07894 0.55884 0.26746 0.0
O651 O 0.09532 0.52858 0.25855 0.0
O652 O 0.75392 0.68564 0.98085 0.0
Cd653 Cd 0.7453 0.66767 0.00762 0.0
Cd654 Cd 0.77094 0.63862 0.98692 0.0
O655 O 0.77566 0.66286 0.96447 0.0
O656 O 0.73014 0.68914 0.02637 0.0
O657 O 0.76005 0.67434 0.03727 0.0
C658 C 0.74473 0.68736 0.04142 0.0
C659 C 0.8012 0.62377 0.00236 0.0
C660 C 0.76651 0.68091 0.9651 0.0
C661 C 0.72365 0.62297 0.99346 0.0
O662 O 0.74194 0.6185 0.98519 0.0
O663 O 0.72179 0.64156 0.00338 0.0
O664 O 0.79471 0.61844 0.98247 0.0
O665 O 0.79071 0.63813 0.0135 0.0
O666 O 0.91358 0.02165 0.30508 0.0
Cd667 Cd 0.89818 0.01574 0.27507 0.0
Cd668 Cd 0.86273 0.02849 0.29903 0.0
O669 O 0.88433 0.02674 0.32526 0.0
O670 O 0.92311 0.00825 0.25604 0.0
O671 O 0.90349 0.03632 0.25021 0.0
C672 C 0.91935 0.02456 0.24434 0.0
C673 C 0.8431 0.05959 0.29582 0.0
C674 C 0.90484 0.02445 0.32374 0.0
C675 C 0.85755 0.98393 0.27604 0.0
O676 O 0.84781 -0.001 0.28614 0.0
O677 O 0.87769 0.9871 0.271 0.0
O678 O 0.83801 0.04518 0.31012 0.0
O679 O 0.85988 0.05663 0.28349 0.0
O680 O 0.24455 0.17092 0.48706 0.0
Cd681 Cd 0.23709 0.15146 0.51305 0.0
Cd682 Cd 0.26677 0.12608 0.49444 0.0
O683 O 0.27287 0.15322 0.47558 0.0
O684 O 0.2222 0.17029 0.53477 0.0
O685 O 0.25396 0.15653 0.54156 0.0
C686 C 0.23825 0.16818 0.54822 0.0
C687 C 0.29648 0.11009 0.50958 0.0
C688 C 0.26082 0.16921 0.4744 0.0
C689 C 0.21994 0.10643 0.49654 0.0
O690 O 0.23894 0.10453 0.48855 0.0
O691 O 0.21602 0.12377 0.50775 0.0
O692 O 0.29148 0.10729 0.48899 0.0
O693 O 0.28488 0.12268 0.52167 0.0
O694 O 0.40921 0.51983 0.77863 0.0
Cd695 Cd 0.39507 0.51792 0.7479 0.0
Cd696 Cd 0.36043 0.53258 0.77055 0.0
O697 O 0.38125 0.53133 0.79748 0.0
O698 O 0.42036 0.51373 0.72825 0.0
O699 O 0.40036 0.54234 0.72689 0.0
C700 C 0.41663 0.53191 0.71952 0.0
C701 C 0.34165 0.56409 0.76662 0.0
C702 C 0.40075 0.52533 0.79685 0.0
C703 C 0.3535 0.48824 0.74609 0.0
O704 O 0.34495 0.5032 0.75764 0.0
O705 O 0.37352 0.49077 0.74044 0.0
O706 O 0.33577 0.54978 0.78078 0.0
O707 O 0.35865 0.56072 0.75476 0.0
O708 O 0.74372 0.36474 0.47932 0.0
Cd709 Cd 0.75583 0.37846 0.50916 0.0
Cd710 Cd 0.74018 0.41601 0.4912 0.0
O711 O 0.73449 0.39483 0.464 0.0
O712 O 0.76587 0.35199 0.52274 0.0
O713 O 0.7414 0.3724 0.53828 0.0
C714 C 0.75325 0.35581 0.53905 0.0
C715 C 0.71236 0.4378 0.5029 0.0
C716 C 0.73666 0.37423 0.46287 0.0
C717 C 0.78775 0.41881 0.50441 0.0
O718 O 0.772 0.42881 0.49701 0.0
O719 O 0.7846 0.3989 0.50971 0.0
O720 O 0.72368 0.44204 0.48563 0.0
O721 O 0.71669 0.42081 0.51356 0.0
O722 O 0.65306 0.06801 0.78874 0.0
Cd723 Cd 0.6362 0.03999 0.79983 0.0
Cd724 Cd 0.60288 0.05341 0.77272 0.0
O725 O 0.62749 0.07717 0.76588 0.0
O726 O 0.65921 0.02266 0.8121 0.0
O727 O 0.6381 0.01066 0.78352 0.0
C728 C 0.65379 0.00744 0.7971 0.0
C729 C 0.57908 0.04098 0.74367 0.0
C730 C 0.64659 0.08065 0.77448 0.0
C731 C 0.59413 0.04977 0.82147 0.0
O732 O 0.58773 0.05486 0.80266 0.0
O733 O 0.61313 0.04306 0.8241 0.0
O734 O 0.57869 0.06043 0.75289 0.0
O735 O 0.59344 0.02844 0.75072 0.0
O736 O 0.98633 0.30058 0.92797 0.0
Cd737 Cd 0.98792 0.27143 0.90951 0.0
Cd738 Cd 0.01076 0.29753 0.88253 0.0
O739 O 0.00841 0.32124 0.90756 0.0
O740 O 0.98028 0.24795 0.93037 0.0
O741 O 0.01276 0.25239 0.91446 0.0
C742 C -5e-05 0.2419 0.92789 0.0
C743 C 0.04526 0.29056 0.86924 0.0
C744 C 0.99661 0.31907 0.92451 0.0
C745 C 0.96807 0.27571 0.86491 0.0
O746 O 0.98392 0.29011 0.86179 0.0
O747 O 0.96711 0.26549 0.88262 0.0
O748 O 0.03614 0.30815 0.86452 0.0
O749 O 0.03478 0.27684 0.88173 0.0
O750 O 0.47653 0.79271 0.41443 0.0
Cd751 Cd 0.47991 0.76492 0.39413 0.0
Cd752 Cd 0.50103 0.79498 0.37001 0.0
O753 O 0.49855 0.81623 0.39689 0.0
O754 O 0.47339 0.73982 0.41346 0.0
O755 O 0.506 0.74743 0.39867 0.0
C756 C 0.49364 0.73544 0.41129 0.0
C757 C 0.53532 0.78904 0.35561 0.0
C758 C 0.48637 0.81185 0.41316 0.0
C759 C 0.45943 0.77236 0.35085 0.0
O760 O 0.47369 0.78871 0.34988 0.0
O761 O 0.45988 0.75937 0.3665 0.0
O762 O 0.5256 0.80644 0.35139 0.0
O763 O 0.52558 0.77505 0.36832 0.0
O764 O 0.96834 0.77489 0.68265 0.0
Cd765 Cd 0.99228 0.75833 0.66649 0.0
Cd766 Cd 0.96771 0.76876 0.63026 0.0
O767 O 0.9466 0.77876 0.6542 0.0
O768 O 0.01221 0.75152 0.69069 0.0
O769 O 0.02351 0.77179 0.66327 0.0
C770 C 0.02811 0.76223 0.68099 0.0
C771 C 0.97848 0.79376 0.60403 0.0
C772 C 0.95055 0.7809 0.67471 0.0
C773 C 0.97555 0.72141 0.63366 0.0
O774 O 0.96801 0.73572 0.62185 0.0
O775 O 0.9847 0.72716 0.65208 0.0
O776 O 0.95926 0.78312 0.60326 0.0
O777 O 0.99177 0.79009 0.61984 0.0
O778 O 0.46977 0.28275 0.18265 0.0
Cd779 Cd 0.49289 0.2685 0.16308 0.0
Cd780 Cd 0.47535 0.29213 0.13093 0.0
O781 O 0.45429 0.29931 0.15587 0.0
O782 O 0.51294 0.25501 0.18344 0.0
O783 O 0.52433 0.2815 0.16166 0.0
C784 C 0.52892 0.26768 0.17611 0.0
C785 C 0.48876 0.32139 0.11033 0.0
C786 C 0.4549 0.29428 0.1758 0.0
C787 C 0.47367 0.24337 0.1224 0.0
O788 O 0.46992 0.26177 0.11484 0.0
O789 O 0.48234 0.24257 0.14135 0.0
O790 O 0.46845 0.31365 0.10897 0.0
O791 O 0.50177 0.31241 0.12342 0.0
H792 H 0.20003 0.81662 0.85806 0.0
H793 H 0.25534 0.78317 0.88008 0.0
H794 H 0.2529 0.80095 0.91668 0.0
H795 H 0.23687 0.82795 0.94155 0.0
H796 H 0.18247 0.86262 0.9192 0.0
H797 H 0.18269 0.84229 0.88365 0.0
C798 C 0.21159 0.81329 0.87086 0.0
C799 C 0.22795 0.79873 0.86629 0.0
C800 C 0.21026 0.82376 0.8918 0.0
C801 C 0.24251 0.79421 0.88318 0.0
C802 C 0.2412 0.80444 0.90409 0.0
C803 C 0.22483 0.83087 0.92904 0.0
C804 C 0.20977 0.84692 0.93304 0.0
C805 C 0.22534 0.81948 0.90849 0.0
C806 C 0.19432 0.85044 0.91658 0.0
C807 C 0.19448 0.83889 0.89619 0.0
H808 H 0.08027 0.52395 0.42787 0.0
H809 H 0.01962 0.54616 0.40347 0.0
H810 H 0.0362 0.5518 0.3677 0.0
H811 H 0.06744 0.54941 0.34308 0.0
H812 H 0.12822 0.52706 0.36718 0.0
H813 H 0.11215 0.5228 0.40341 0.0
C814 C 0.0708 0.53024 0.41477 0.0
C815 C 0.04872 0.53444 0.41823 0.0
C816 C 0.08042 0.53342 0.3942 0.0
C817 C 0.03655 0.54243 0.40108 0.0
C818 C 0.04604 0.54577 0.38066 0.0
C819 C 0.07725 0.54371 0.35626 0.0
C820 C 0.09898 0.5385 0.35235 0.0
C821 C 0.06788 0.54112 0.37698 0.0
C822 C 0.11142 0.53116 0.36968 0.0
C823 C 0.10225 0.52868 0.39042 0.0
H824 H 0.78843 0.7357 0.88157 0.0
H825 H 0.73916 0.77495 0.91034 0.0
H826 H 0.73505 0.75031 0.94071 0.0
H827 H 0.74546 0.71782 0.95908 0.0
H828 H 0.79466 0.67836 0.93041 0.0
H829 H 0.79902 0.70316 0.90015 0.0
C830 C 0.77692 0.73896 0.89459 0.0
C831 C 0.76412 0.75714 0.89369 0.0
C832 C 0.77469 0.72477 0.91204 0.0
C833 C 0.74902 0.76093 0.91049 0.0
C834 C 0.74676 0.74693 0.92793 0.0
C835 C 0.75723 0.71465 0.94629 0.0
C836 C 0.76975 0.69625 0.94708 0.0
C837 C 0.75951 0.72883 0.92887 0.0
C838 C 0.78481 0.69238 0.93024 0.0
C839 C 0.7873 0.70654 0.91292 0.0
H840 H 0.95024 0.98889 0.40581 0.0
H841 H 0.00836 0.01216 0.37089 0.0
H842 H 0.9855 0.02787 0.34384 0.0
H843 H 0.94905 0.03194 0.32815 0.0
H844 H 0.89085 0.01026 0.3635 0.0
H845 H 0.91379 -0.00213 0.39284 0.0
C846 C 0.95799 0.99779 0.39258 0.0
C847 C 0.98104 -0.00128 0.39015 0.0
C848 C 0.94474 0.0072 0.37719 0.0
C849 C 0.99066 0.01039 0.3728 0.0
C850 C 0.97761 0.01961 0.3574 0.0
C851 C 0.94139 0.02488 0.34249 0.0
C852 C 0.91832 0.02177 0.34355 0.0
C853 C 0.95464 0.0176 0.35911 0.0
C854 C 0.9086 0.01287 0.36232 0.0
C855 C 0.92171 0.00557 0.37899 0.0
H856 H 0.25226 0.20978 0.64492 0.0
H857 H 0.18979 0.23452 0.62952 0.0
H858 H 0.18926 0.21508 0.59361 0.0
H859 H 0.20694 0.19226 0.5661 0.0
H860 H 0.26986 0.16808 0.5805 0.0
H861 H 0.26995 0.1864 0.61719 0.0
C862 C 0.23858 0.21098 0.63367 0.0
C863 C 0.22106 0.22355 0.64 0.0
C864 C 0.23852 0.20001 0.61282 0.0
C865 C 0.20331 0.22467 0.6253 0.0
C866 C 0.20307 0.21372 0.60465 0.0
C867 C 0.2207 0.19095 0.57724 0.0
C868 C 0.23841 0.17889 0.57054 0.0
C869 C 0.22065 0.2015 0.59819 0.0
C870 C 0.25604 0.17731 0.58523 0.0
C871 C 0.2561 0.18777 0.60621 0.0
H872 H 0.46581 0.57541 0.63957 0.0
H873 H 0.50816 0.52337 0.65034 0.0
H874 H 0.48558 0.5114 0.68101 0.0
H875 H 0.45363 0.51516 0.70428 0.0
H876 H 0.41125 0.56734 0.69445 0.0
H877 H 0.43424 0.58002 0.66405 0.0
C878 C 0.47022 0.56161 0.64879 0.0
C879 C 0.48855 0.55018 0.64252 0.0
C880 C 0.45718 0.55484 0.66654 0.0
C881 C 0.49393 0.5322 0.65454 0.0
C882 C 0.48109 0.52541 0.67216 0.0
C883 C 0.44938 0.52933 0.69554 0.0
C884 C 0.43068 0.54021 0.70155 0.0
C885 C 0.46261 0.53649 0.67818 0.0
C886 C 0.42554 0.55865 0.69012 0.0
C887 C 0.43867 0.56589 0.67273 0.0
H888 H 0.77128 0.29017 0.61203 0.0
H889 H 0.74776 0.34243 0.65368 0.0
H890 H 0.74009 0.36296 0.62133 0.0
H891 H 0.74172 0.36668 0.58113 0.0
H892 H 0.76623 0.31439 0.54019 0.0
H893 H 0.77128 0.29299 0.5723 0.0
C894 C 0.76412 0.30588 0.61405 0.0
C895 C 0.76007 0.31473 0.63523 0.0
C896 C 0.75986 0.31756 0.59547 0.0
C897 C 0.75124 0.33535 0.63755 0.0
C898 C 0.74675 0.34703 0.61906 0.0
C899 C 0.74783 0.35046 0.57926 0.0
C900 C 0.75362 0.34213 0.55834 0.0
C901 C 0.75119 0.33839 0.59792 0.0
C902 C 0.76175 0.32119 0.55614 0.0
C903 C 0.76469 0.30895 0.57449 0.0
H904 H 0.50516 0.02428 0.67044 0.0
H905 H 0.53148 0.96061 0.66511 0.0
H906 H 0.55829 0.97223 0.69441 0.0
H907 H 0.57443 0.00077 0.72135 0.0
H908 H 0.54776 0.06441 0.72614 0.0
H909 H 0.52087 0.05245 0.69736 0.0
C910 C 0.51657 0.01285 0.6759 0.0
C911 C 0.51629 0.99161 0.66572 0.0
C912 C 0.53196 0.01967 0.69259 0.0
C913 C 0.53148 0.97711 0.67264 0.0
C914 C 0.54677 0.98373 0.6894 0.0
C915 C 0.56275 0.01201 0.71607 0.0
C916 C 0.56316 0.03345 0.72589 0.0
C917 C 0.54724 0.00503 0.69943 0.0
C918 C 0.54787 0.04781 0.71887 0.0
C919 C 0.53243 0.041 0.70241 0.0
H920 H 0.88531 0.24593 0.8046 0.0
H921 H 0.90987 0.30282 0.77002 0.0
H922 H 0.941 0.30918 0.79589 0.0
H923 H 0.96071 0.29891 0.8288 0.0
H924 H 0.93537 0.24225 0.86348 0.0
H925 H 0.90522 0.2353 0.83686 0.0
C926 C 0.89765 0.25955 0.80253 0.0
C927 C 0.89537 0.27381 0.78536 0.0
C928 C 0.91533 0.26315 0.81748 0.0
C929 C 0.91121 0.29168 0.78319 0.0
C930 C 0.92903 0.29527 0.79792 0.0
C931 C 0.94867 0.28496 0.83047 0.0
C932 C 0.95032 0.27115 0.84816 0.0
C933 C 0.93118 0.28117 0.81521 0.0
C934 C 0.93449 0.25321 0.85011 0.0
C935 C 0.91722 0.2492 0.83488 0.0
H936 H 0.4845 0.89449 0.47968 0.0
H937 H 0.43333 0.85212 0.50819 0.0
H938 H 0.43856 0.8231 0.4799 0.0
H939 H 0.45763 0.80994 0.44707 0.0
H940 H 0.50851 0.85269 0.41838 0.0
H941 H 0.50356 0.88134 0.44692 0.0
C942 C 0.47465 0.87881 0.47982 0.0
C943 C 0.45863 0.87538 0.49602 0.0
C944 C 0.47769 0.86231 0.4635 0.0
C945 C 0.44568 0.85517 0.49578 0.0
C946 C 0.44872 0.83857 0.47968 0.0
C947 C 0.4677 0.82549 0.44708 0.0
C948 C 0.48344 0.82912 0.43061 0.0
C949 C 0.46466 0.84198 0.46344 0.0
C950 C 0.49625 0.84944 0.43082 0.0
C951 C 0.49345 0.86585 0.44715 0.0
H952 H 0.12834 0.25749 0.8207 0.0
H953 H 0.14599 0.32763 0.82205 0.0
H954 H 0.11306 0.33443 0.84309 0.0
H955 H 0.07791 0.32062 0.8586 0.0
H956 H 0.06072 0.25051 0.85911 0.0
H957 H 0.09486 0.2434 0.83998 0.0
C958 C 0.12503 0.2742 0.82589 0.0
C959 C 0.13943 0.29205 0.81984 0.0
C960 C 0.10613 0.27797 0.83814 0.0
C961 C 0.13517 0.31365 0.82671 0.0
C962 C 0.1163 0.31755 0.83859 0.0
C963 C 0.08175 0.30379 0.85466 0.0
C964 C 0.0668 0.28611 0.85994 0.0
C965 C 0.10146 0.29987 0.844 0.0
C966 C 0.07205 0.26437 0.85514 0.0
C967 C 0.09149 0.26031 0.84414 0.0
H968 H 0.54556 0.6654 0.45904 0.0
H969 H 0.48769 0.66425 0.49941 0.0
H970 H 0.47186 0.69082 0.47647 0.0
H971 H 0.47466 0.71474 0.44542 0.0
H972 H 0.53296 0.71724 0.4056 0.0
H973 H 0.54835 0.68958 0.42768 0.0
C974 C 0.52944 0.67091 0.46269 0.0
C975 C 0.51783 0.66295 0.48091 0.0
C976 C 0.52051 0.68634 0.44952 0.0
C977 C 0.49705 0.67035 0.48563 0.0
C978 C 0.48795 0.68544 0.47246 0.0
C979 C 0.49066 0.70912 0.44144 0.0
C980 C 0.5026 0.71795 0.42383 0.0
C981 C 0.49955 0.69359 0.45443 0.0
C982 C 0.52342 0.71068 0.41906 0.0
C983 C 0.53224 0.69489 0.4317 0.0
H984 H 0.89118 0.81863 0.74947 0.0
H985 H 0.84069 0.80045 0.70016 0.0
H986 H 0.8686 0.78973 0.67426 0.0
H987 H 0.90703 0.78335 0.66625 0.0
H988 H 0.95702 0.79844 0.71658 0.0
H989 H 0.92949 0.81203 0.7416 0.0
C990 C 0.88618 0.81212 0.73315 0.0
C991 C 0.86376 0.81034 0.72691 0.0
C992 C 0.90222 0.80523 0.71855 0.0
C993 C 0.85779 0.80238 0.70543 0.0
C994 C 0.87374 0.79601 0.69062 0.0
C995 C 0.91193 0.78976 0.68264 0.0
C996 C 0.93403 0.78988 0.68955 0.0
C997 C 0.89595 0.79711 0.69709 0.0
C998 C 0.94009 0.79806 0.7109 0.0
C999 C 0.92437 0.80587 0.7252 0.0
H1000 H 0.98981 0.8596 0.52748 0.0
H1001 H 0.0557 0.86904 0.55469 0.0
H1002 H 0.04595 0.84218 0.58223 0.0
H1003 H 0.01848 0.81638 0.5989 0.0
H1004 H 0.95262 0.80706 0.5714 0.0
H1005 H 0.96254 0.83363 0.54383 0.0
C1006 C 0.00198 0.85588 0.53953 0.0
C1007 C 0.02341 0.86632 0.53907 0.0
C1008 C 0.99627 0.84047 0.55531 0.0
C1009 C 0.03913 0.86106 0.55457 0.0
C1010 C 0.03355 0.8458 0.57039 0.0
C1011 C 0.00631 0.82017 0.58688 0.0
C1012 C 0.98484 0.80977 0.58727 0.0
C1013 C 0.01214 0.83544 0.57095 0.0
C1014 C 0.96928 0.8148 0.5715 0.0
C1015 C 0.97492 0.83002 0.55571 0.0
H1016 H 0.11868 0.7445 0.72427 0.0
H1017 H 0.14408 0.78484 0.67267 0.0
H1018 H 0.10636 0.78986 0.66044 0.0
H1019 H 0.06604 0.7816 0.66399 0.0
H1020 H 0.04156 0.74194 0.71676 0.0
H1021 H 0.07901 0.73797 0.72903 0.0
C1022 C 0.11592 0.75427 0.71025 0.0
C1023 C 0.13399 0.76399 0.69912 0.0
C1024 C 0.09436 0.75729 0.70361 0.0
C1025 C 0.13031 0.7771 0.68135 0.0
C1026 C 0.10879 0.77995 0.6744 0.0
C1027 C 0.06893 0.77227 0.67828 0.0
C1028 C 0.05097 0.762 0.68933 0.0
C1029 C 0.09066 0.77001 0.68535 0.0
C1030 C 0.05501 0.75 0.70787 0.0
C1031 C 0.07645 0.74764 0.71491 0.0
H1032 H 0.99128 0.62291 0.6058 0.0
H1033 H 0.95377 0.63863 0.54912 0.0
H1034 H 0.94873 0.67506 0.56592 0.0
H1035 H 0.95669 0.70314 0.59571 0.0
H1036 H 0.99391 0.68738 0.65261 0.0
H1037 H 0.99684 0.6501 0.63691 0.0
C1038 C 0.98169 0.63416 0.59728 0.0
C1039 C 0.97317 0.62815 0.57612 0.0
C1040 C 0.97879 0.65508 0.60705 0.0
C1041 C 0.96093 0.64302 0.56523 0.0
C1042 C 0.95792 0.66381 0.57487 0.0
C1043 C 0.96528 0.69151 0.60479 0.0
C1044 C 0.97522 0.69815 0.62522 0.0
C1045 C 0.96708 0.67015 0.59561 0.0
C1046 C 0.98616 0.68278 0.63681 0.0
C1047 C 0.98791 0.66144 0.62782 0.0
H1048 H 0.8205 0.88454 0.26458 0.0
H1049 H 0.76053 0.91514 0.25115 0.0
H1050 H 0.78004 0.95146 0.25704 0.0
H1051 H 0.81414 0.97477 0.26627 0.0
H1052 H 0.87473 0.94415 0.27533 0.0
H1053 H 0.85504 0.9076 0.27008 0.0
C1054 C 0.81166 0.89903 0.26244 0.0
C1055 C 0.78888 0.89681 0.25771 0.0
C1056 C 0.82314 0.91997 0.26495 0.0
C1057 C 0.77787 0.91608 0.25545 0.0
C1058 C 0.78907 0.93698 0.25858 0.0
C1059 C 0.82299 0.96006 0.26699 0.0
C1060 C 0.84576 0.96207 0.27131 0.0
C1061 C 0.81167 0.93912 0.26347 0.0
C1062 C 0.85717 0.94296 0.27194 0.0
C1063 C 0.84592 0.92208 0.26904 0.0
H1064 H 0.77339 0.13066 0.29462 0.0
H1065 H 0.82014 0.16057 0.25006 0.0
H1066 H 0.84386 0.13033 0.25413 0.0
H1067 H 0.85109 0.09514 0.27038 0.0
H1068 H 0.8043 0.06628 0.31573 0.0
H1069 H 0.78085 0.09629 0.31127 0.0
C1070 C 0.78867 0.13044 0.28563 0.0
C1071 C 0.79491 0.14767 0.27189 0.0
C1072 C 0.80226 0.11321 0.28826 0.0
C1073 C 0.815 0.14746 0.26074 0.0
C1074 C 0.82853 0.13017 0.26304 0.0
C1075 C 0.83578 0.09546 0.2793 0.0
C1076 C 0.82949 0.07843 0.29334 0.0
C1077 C 0.82233 0.11293 0.27678 0.0
C1078 C 0.80962 0.07915 0.30485 0.0
C1079 C 0.79613 0.0963 0.30228 0.0
H1080 H 0.3249 -3e-05 0.96539 0.0
H1081 H 0.36396 0.96299 0.00729 0.0
H1082 H 0.33283 0.93543 0.01082 0.0
H1083 H 0.29471 0.92187 0.00187 0.0
H1084 H 0.25544 0.95901 0.96018 0.0
H1085 H 0.28658 0.98647 0.95659 0.0
C1086 C 0.32662 0.98577 0.97514 0.0
C1087 C 0.34667 0.98343 0.98601 0.0
C1088 C 0.30866 0.97007 0.97714 0.0
C1089 C 0.34861 0.96519 -0.00109 0.0
C1090 C 0.33086 0.94941 0.00086 0.0
C1091 C 0.29292 0.93594 0.99197 0.0
C1092 C 0.27277 0.93833 0.98128 0.0
C1093 C 0.31083 0.9517 0.99005 0.0
C1094 C 0.27075 0.95676 0.96861 0.0
C1095 C 0.28855 0.97246 0.96652 0.0
H1096 H 0.20825 0.40849 0.2926 0.0
H1097 H 0.25145 0.44438 0.34089 0.0
H1098 H 0.23135 0.47709 0.33751 0.0
H1099 H 0.20137 0.49532 0.32141 0.0
H1100 H 0.15741 0.45978 0.27359 0.0
H1101 H 0.17791 0.42702 0.2763 0.0
C1102 C 0.21313 0.42343 0.3025 0.0
C1103 C 0.23136 0.42399 0.31696 0.0
C1104 C 0.20141 0.44221 0.30055 0.0
C1105 C 0.23768 0.44357 0.32945 0.0
C1106 C 0.22613 0.46226 0.3276 0.0
C1107 C 0.19626 0.48046 0.31149 0.0
C1108 C 0.17788 0.48001 0.29731 0.0
C1109 C 0.20799 0.46175 0.31323 0.0
C1110 C 0.17152 0.46057 0.28462 0.0
C1111 C 0.18321 0.44183 0.28619 0.0
H1112 H 0.13702 0.03742 0.49554 0.0
H1113 H 0.17749 0.0016 0.45106 0.0
H1114 H 0.2069 0.03165 0.45494 0.0
H1115 H 0.22091 0.06815 0.47121 0.0
H1116 H 0.17943 0.10374 0.51515 0.0
H1117 H 0.15063 0.07364 0.51129 0.0
C1118 C 0.1524 0.03608 0.48691 0.0
C1119 C 0.15526 0.01727 0.47328 0.0
C1120 C 0.16898 0.0534 0.48906 0.0
C1121 C 0.17499 0.01595 0.4617 0.0
C1122 C 0.19177 0.0331 0.46394 0.0
C1123 C 0.20556 0.06932 0.47991 0.0
C1124 C 0.2024 0.0882 0.49347 0.0
C1125 C 0.18892 0.05193 0.47757 0.0
C1126 C 0.18236 0.08947 0.50457 0.0
C1127 C 0.16585 0.07223 0.50243 0.0
H1128 H 0.69691 0.16517 0.73696 0.0
H1129 H 0.74607 0.14964 0.78382 0.0
H1130 H 0.72247 0.11753 0.79427 0.0
H1131 H 0.68771 0.09414 0.79036 0.0
H1132 H 0.63839 0.11019 0.74378 0.0
H1133 H 0.66216 0.14195 0.73316 0.0
C1134 C 0.70237 0.15489 0.74962 0.0
C1135 C 0.72318 0.15982 0.75962 0.0
C1136 C 0.68869 0.13655 0.75561 0.0
C1137 C 0.7302 0.14608 0.77571 0.0
C1138 C 0.71668 0.12778 0.78177 0.0
C1139 C 0.68215 0.10456 0.77786 0.0
C1140 C 0.66127 0.09975 0.76792 0.0
C1141 C 0.69589 0.12287 0.77183 0.0
C1142 C 0.65436 0.11347 0.75175 0.0
C1143 C 0.66794 0.13167 0.74564 0.0
H1144 H 0.36834 0.06456 0.56278 0.0
H1145 H 0.37009 0.02671 0.50099 0.0
H1146 H 0.34324 0.04901 0.48531 0.0
H1147 H 0.31838 0.07824 0.4892 0.0
H1148 H 0.31442 0.1151 0.55119 0.0
H1149 H 0.34284 0.09402 0.56677 0.0
C1150 C 0.36275 0.06109 0.54593 0.0
C1151 C 0.37148 0.04406 0.53308 0.0
C1152 C 0.34685 0.07375 0.53704 0.0
C1153 C 0.36413 0.04 0.51119 0.0
C1154 C 0.34859 0.05263 0.50221 0.0
C1155 C 0.3238 0.08182 0.50609 0.0
C1156 C 0.31433 0.09826 0.51899 0.0
C1157 C 0.3398 0.06946 0.51498 0.0
C1158 C 0.32146 0.10252 0.5409 0.0
C1159 C 0.33768 0.09046 0.54981 0.0
H1160 H 0.63649 0.49055 0.5448 0.0
H1161 H 0.65286 0.53143 0.49048 0.0
H1162 H 0.6811 0.50726 0.47886 0.0
H1163 H 0.70098 0.47461 0.48395 0.0
H1164 H 0.68514 0.43359 0.5383 0.0
H1165 H 0.65694 0.45786 0.5502 0.0
C1166 C 0.6464 0.49427 0.53055 0.0
C1167 C 0.64253 0.51274 0.51849 0.0
C1168 C 0.66265 0.48029 0.52395 0.0
C1169 C 0.65531 0.51718 0.49989 0.0
C1170 C 0.67152 0.50342 0.49328 0.0
C1171 C 0.69138 0.47092 0.49841 0.0
C1172 C 0.69515 0.45227 0.51019 0.0
C1173 C 0.67526 0.48491 0.50513 0.0
C1174 C 0.68256 0.44781 0.52891 0.0
C1175 C 0.66644 0.46169 0.53573 0.0
H1176 H 0.73295 0.33312 0.36608 0.0
H1177 H 0.72119 0.27297 0.40053 0.0
H1178 H 0.7227 0.29424 0.43546 0.0
H1179 H 0.72822 0.32984 0.45642 0.0
H1180 H 0.73682 0.39003 0.42182 0.0
H1181 H 0.73476 0.36876 0.38672 0.0
C1182 C 0.73025 0.32456 0.38111 0.0
C1183 C 0.72727 0.30132 0.38046 0.0
C1184 C 0.7304 0.33693 0.40119 0.0
C1185 C 0.72419 0.29074 0.40036 0.0
C1186 C 0.7248 0.30291 0.42042 0.0
C1187 C 0.72946 0.3383 0.44118 0.0
C1188 C 0.73282 0.36145 0.44173 0.0
C1189 C 0.72809 0.32599 0.42104 0.0
C1190 C 0.73416 0.37221 0.42186 0.0
C1191 C 0.73312 0.36006 0.40177 0.0
H1192 H 0.5382 0.04793 0.9083 0.0
H1193 H 0.49256 0.07684 0.86598 0.0
H1194 H 0.51866 0.07556 0.83587 0.0
H1195 H 0.55402 0.06593 0.82153 0.0
H1196 H 0.60004 0.03697 0.86349 0.0
H1197 H 0.57412 0.03854 0.89384 0.0
C1198 C 0.53396 0.0538 0.89243 0.0
C1199 C 0.51352 0.06246 0.88933 0.0
C1200 C 0.54906 0.05305 0.8752 0.0
C1201 C 0.5083 0.07031 0.8688 0.0
C1202 C 0.52316 0.0695 0.85158 0.0
C1203 C 0.55847 0.05996 0.8373 0.0
C1204 C 0.57894 0.0513 0.84019 0.0
C1205 C 0.54355 0.0609 0.8546 0.0
C1206 C 0.5844 0.04375 0.8608 0.0
C1207 C 0.56957 0.04459 0.87815 0.0
H1208 H 0.29674 0.24428 0.41407 0.0
H1209 H 0.22926 0.23617 0.39034 0.0
H1210 H 0.22061 0.20861 0.41713 0.0
H1211 H 0.23229 0.18599 0.44688 0.0
H1212 H 0.30074 0.19009 0.46634 0.0
H1213 H 0.30911 0.21948 0.44093 0.0
C1214 C 0.28022 0.23624 0.41419 0.0
C1215 C 0.26375 0.24268 0.4 0.0
C1216 C 0.27554 0.21948 0.42884 0.0
C1217 C 0.24229 0.23224 0.40127 0.0
C1218 C 0.23732 0.21618 0.41647 0.0
C1219 C 0.24902 0.19336 0.44546 0.0
C1220 C 0.26589 0.18615 0.45844 0.0
C1221 C 0.25381 0.20966 0.4303 0.0
C1222 C 0.28756 0.19546 0.45638 0.0
C1223 C 0.29231 0.21226 0.44195 0.0
H1224 H 0.44323 0.52126 0.89145 0.0
H1225 H 0.48959 0.48549 0.8536 0.0
H1226 H 0.46947 0.49114 0.81993 0.0
H1227 H 0.4387 0.50569 0.80126 0.0
H1228 H 0.39115 0.54021 0.83869 0.0
H1229 H 0.41171 0.53543 0.87257 0.0
C1230 C 0.4488 0.51451 0.87586 0.0
C1231 C 0.46799 0.50307 0.87508 0.0
C1232 C 0.43699 0.51762 0.8565 0.0
C1233 C 0.47511 0.49467 0.85468 0.0
C1234 C 0.46355 0.49779 0.8354 0.0
C1235 C 0.43284 0.51232 0.81678 0.0
C1236 C 0.41345 0.52339 0.8174 0.0
C1237 C 0.44453 0.50926 0.83613 0.0
C1238 C 0.40604 0.53165 0.83773 0.0
C1239 C 0.41778 0.52889 0.85711 0.0
H1240 H 0.72348 0.74492 0.12599 0.0
H1241 H 0.77276 0.70754 0.15431 0.0
H1242 H 0.77843 0.68909 0.1184 0.0
H1243 H 0.76819 0.68265 0.07911 0.0
H1244 H 0.71796 0.71972 0.05177 0.0
H1245 H 0.71374 0.73904 0.08719 0.0
C1246 C 0.73532 0.73257 0.12438 0.0
C1247 C 0.7475 0.72743 0.14283 0.0
C1248 C 0.7383 0.72195 0.10384 0.0
C1249 C 0.76321 0.71184 0.14033 0.0
C1250 C 0.76639 0.70122 0.11983 0.0
C1251 C 0.75643 0.69505 0.08091 0.0
C1252 C 0.74336 0.69966 0.06283 0.0
C1253 C 0.75389 0.70604 0.10148 0.0
C1254 C 0.72816 0.71575 0.06542 0.0
C1255 C 0.72571 0.72683 0.08568 0.0
H1256 H 0.98234 0.02813 0.16293 0.0
H1257 H 0.95036 0.08751 0.15289 0.0
H1258 H 0.92846 0.08164 0.18593 0.0
H1259 H 0.91805 0.05911 0.21743 0.0
H1260 H 0.95077 -6e-05 0.22705 0.0
H1261 H 0.97256 0.00619 0.19437 0.0
C1262 C 0.97044 0.03969 0.16788 0.0
C1263 C 0.96784 0.05811 0.15543 0.0
C1264 C 0.95802 0.03625 0.18683 0.0
C1265 C 0.95271 0.07323 0.16229 0.0
C1266 C 0.94014 0.06984 0.18111 0.0
C1267 C 0.92996 0.04762 0.21236 0.0
C1268 C 0.9327 0.02906 0.22466 0.0
C1269 C 0.94261 0.05135 0.19349 0.0
C1270 C 0.94829 0.01437 0.21793 0.0
C1271 C 0.96078 0.01789 0.1992 0.0
H1272 H 0.23854 0.82618 0.12558 0.0
H1273 H 0.28506 0.78467 0.09539 0.0
H1274 H 0.27955 0.80088 0.06009 0.0
H1275 H 0.26205 0.82719 0.03805 0.0
H1276 H 0.2146 0.86813 0.06759 0.0
H1277 H 0.21982 0.85174 0.10293 0.0
C1278 C 0.24749 0.8208 0.11124 0.0
C1279 C 0.26226 0.80437 0.11302 0.0
C1280 C 0.24403 0.83002 0.09095 0.0
C1281 C 0.27355 0.79724 0.09433 0.0
C1282 C 0.27044 0.80653 0.0742 0.0
C1283 C 0.2528 0.83252 0.0522 0.0
C1284 C 0.23805 0.84894 0.05024 0.0
C1285 C 0.25578 0.82296 0.07234 0.0
C1286 C 0.22603 0.85549 0.06867 0.0
C1287 C 0.22907 0.84618 0.08889 0.0
H1288 H 0.00829 0.53658 0.17908 0.0
H1289 H 0.03829 0.4764 0.16164 0.0
H1290 H 0.06285 0.48246 0.1936 0.0
H1291 H 0.07671 0.50555 0.22584 0.0
H1292 H 0.04627 0.56549 0.24338 0.0
H1293 H 0.02079 0.55859 0.2123 0.0
C1294 C 0.01996 0.52461 0.18245 0.0
C1295 C 0.02153 0.50616 0.16788 0.0
C1296 C 0.03402 0.52816 0.20088 0.0
C1297 C 0.03698 0.49096 0.17237 0.0
C1298 C 0.05097 0.49434 0.19071 0.0
C1299 C 0.06442 0.51703 0.22294 0.0
C1300 C 0.0635 0.53605 0.23687 0.0
C1301 C 0.04981 0.51302 0.20494 0.0
C1302 C 0.04742 0.55073 0.2329 0.0
C1303 C 0.03282 0.54683 0.21509 0.0
H1304 H 0.38417 0.74305 0.28178 0.0
H1305 H 0.37541 0.81292 0.28798 0.0
H1306 H 0.40766 0.81872 0.31198 0.0
H1307 H 0.43702 0.80378 0.33326 0.0
H1308 H 0.44205 0.73348 0.33154 0.0
H1309 H 0.41203 0.72793 0.30432 0.0
C1310 C 0.38889 0.75956 0.28862 0.0
C1311 C 0.37702 0.77745 0.28292 0.0
C1312 C 0.40674 0.76268 0.30344 0.0
C1313 C 0.38424 0.79877 0.29154 0.0
C1314 C 0.40261 0.80213 0.30555 0.0
C1315 C 0.43158 0.78728 0.32677 0.0
C1316 C 0.44171 0.76905 0.33417 0.0
C1317 C 0.4138 0.78418 0.31183 0.0
C1318 C 0.43439 0.74771 0.32602 0.0
C1319 C 0.4173 0.74457 0.31047 0.0
H1320 H 0.9966 0.40903 0.98079 0.0
H1321 H 0.94414 0.37197 0.01335 0.0
H1322 H 0.949 0.33964 0.98896 0.0
H1323 H 0.96795 0.32206 0.95828 0.0
H1324 H 0.02011 0.35935 0.92536 0.0
H1325 H 0.01572 0.39137 0.95021 0.0
C1326 C 0.98638 0.3938 0.98266 0.0
C1327 C 0.97006 0.39287 -0.00115 0.0
C1328 C 0.98922 0.37534 0.96857 0.0
C1329 C 0.95667 0.37315 0.00087 0.0
C1330 C 0.95951 0.35464 0.98701 0.0
C1331 C 0.97845 0.33715 0.95659 0.0
C1332 C 0.99436 0.33827 0.93998 0.0
C1333 C 0.9757 0.35557 0.97078 0.0
C1334 C 0.00771 0.35802 0.93796 0.0
C1335 C 0.00522 0.37635 0.95217 0.0
H1336 H 0.62854 0.76264 0.32362 0.0
H1337 H 0.61587 0.80914 0.27489 0.0
H1338 H 0.58072 0.81573 0.29189 0.0
H1339 H 0.55366 0.80839 0.32051 0.0
H1340 H 0.56501 0.76072 0.36851 0.0
H1341 H 0.60062 0.75447 0.35197 0.0
C1342 C 0.61802 0.7742 0.31681 0.0
C1343 C 0.62467 0.78535 0.29804 0.0
C1344 C 0.59767 0.77771 0.32654 0.0
C1345 C 0.61093 0.8002 0.2892 0.0
C1346 C 0.5909 0.80405 0.29896 0.0
C1347 C 0.56396 0.79669 0.32741 0.0
C1348 C 0.55681 0.78515 0.34577 0.0
C1349 C 0.58413 0.79292 0.31762 0.0
C1350 C 0.57019 0.76982 0.35436 0.0
C1351 C 0.59054 0.76626 0.34493 0.0
H1352 H 0.04387 0.16496 0.97334 0.0
H1353 H 0.98966 0.17267 0.01739 0.0
H1354 H 0.97714 0.20195 0.99568 0.0
H1355 H 0.98129 0.22506 0.96411 0.0
H1356 H 0.03605 0.21869 0.92047 0.0
H1357 H 0.04861 0.18908 0.94198 0.0
C1358 C 0.02932 0.17308 0.97811 0.0
C1359 C 0.01773 0.16672 0.99694 0.0
C1360 C 0.02227 0.19003 0.9656 0.0
C1361 C -0.001 0.17747 0.00311 0.0
C1362 C 0.99176 0.19411 0.99064 0.0
C1363 C 0.99593 0.21714 0.95923 0.0
C1364 C 0.00762 0.22392 0.94064 0.0
C1365 C 0.00321 0.20047 0.97184 0.0
C1366 C 0.02673 0.21372 0.93471 0.0
C1367 C 0.03391 0.1968 0.947 0.0
H1368 H 0.36781 0.31483 0.2243 0.0
H1369 H 0.41085 0.31593 0.28113 0.0
H1370 H 0.44155 0.30791 0.25747 0.0
H1371 H 0.45613 0.29997 0.22049 0.0
H1372 H 0.41352 0.30248 0.1639 0.0
H1373 H 0.38291 0.31043 0.18767 0.0
C1374 C 0.38395 0.31386 0.23163 0.0
C1375 C 0.38677 0.31584 0.2546 0.0
C1376 C 0.40172 0.30994 0.21793 0.0
C1377 C 0.40789 0.31398 0.26359 0.0
C1378 C 0.42558 0.30957 0.25004 0.0
C1379 C 0.44016 0.30237 0.21342 0.0
C1380 C 0.43706 0.30052 0.19051 0.0
C1381 C 0.42264 0.30733 0.22719 0.0
C1382 C 0.41636 0.30389 0.1815 0.0
C1383 C 0.3988 0.30835 0.19507 0.0
H1384 H 0.53178 0.39026 0.04653 0.0
H1385 H 0.46957 0.41836 0.05743 0.0
H1386 H 0.45834 0.38902 0.08151 0.0
H1387 H 0.46573 0.35506 0.09914 0.0
H1388 H 0.5292 0.3292 0.09195 0.0
H1389 H 0.54071 0.35856 0.06733 0.0
C1390 C 0.51593 0.39037 0.05445 0.0
C1391 C 0.50147 0.4065 0.04964 0.0
C1392 C 0.50983 0.37389 0.06908 0.0
C1393 C 0.48087 0.40589 0.06003 0.0
C1394 C 0.47446 0.38921 0.07409 0.0
C1395 C 0.48212 0.35595 0.09224 0.0
C1396 C 0.49656 0.33998 0.09709 0.0
C1397 C 0.48872 0.37305 0.07856 0.0
C1398 C 0.51786 0.34141 0.08841 0.0
C1399 C 0.52437 0.3581 0.07428 0.0
H1400 H 0.63051 0.26967 0.19923 0.0
H1401 H 0.60648 0.21461 0.23684 0.0
H1402 H 0.56908 0.21828 0.22399 0.0
H1403 H 0.543 0.23761 0.20308 0.0
H1404 H 0.56635 0.29308 0.16579 0.0
H1405 H 0.60416 0.28901 0.17789 0.0
C1406 C 0.61708 0.25852 0.20467 0.0
C1407 C 0.6214 0.24182 0.21893 0.0
C1408 C 0.59546 0.26092 0.19746 0.0
C1409 C 0.60379 0.22735 0.22557 0.0
C1410 C 0.58231 0.22956 0.2184 0.0
C1411 C 0.55632 0.24889 0.19762 0.0
C1412 C 0.55182 0.2657 0.18364 0.0
C1413 C 0.57795 0.24637 0.2045 0.0
C1414 C 0.56934 0.28004 0.17661 0.0
C1415 C 0.59097 0.27769 0.18349 0.0
H1416 H 0.4611 0.14931 0.07357 0.0
H1417 H 0.42512 0.18566 0.02828 0.0
H1418 H 0.43236 0.21925 0.05171 0.0
H1419 H 0.44973 0.23843 0.08445 0.0
H1420 H 0.48507 0.20193 0.13018 0.0
H1421 H 0.47691 0.16812 0.10729 0.0
C1422 C 0.45452 0.16449 0.069 0.0
C1423 C 0.44267 0.165 0.04916 0.0
C1424 C 0.45868 0.1837 0.08257 0.0
C1425 C 0.43457 0.1849 0.04331 0.0
C1426 C 0.43862 0.20409 0.05673 0.0
C1427 C 0.45564 0.22309 0.08945 0.0
C1428 C 0.46811 0.22275 0.10893 0.0
C1429 C 0.45086 0.20372 0.07627 0.0
C1430 C 0.47546 0.20267 0.11525 0.0
C1431 C 0.47083 0.18333 0.10217 0.0
H1432 H 0.31222 0.39052 0.73296 0.0
H1433 H 0.25222 0.42367 0.73013 0.0
H1434 H 0.2735 0.4593 0.73447 0.0
H1435 H 0.30913 0.48111 0.74052 0.0
H1436 H 0.36904 0.44789 0.73967 0.0
H1437 H 0.34774 0.41221 0.73448 0.0
C1438 C 0.30367 0.40543 0.7327 0.0
C1439 C 0.28049 0.40415 0.73153 0.0
C1440 C 0.31603 0.42594 0.73449 0.0
C1441 C 0.26996 0.42392 0.73166 0.0
C1442 C 0.28213 0.4444 0.73394 0.0
C1443 C 0.31748 0.46604 0.73902 0.0
C1444 C 0.34057 0.46707 0.74067 0.0
C1445 C 0.30515 0.44559 0.7357 0.0
C1446 C 0.35126 0.4475 0.73841 0.0
C1447 C 0.3391 0.4271 0.73555 0.0
H1448 H 0.27524 0.63818 0.76518 0.0
H1449 H 0.32721 0.6702 0.72777 0.0
H1450 H 0.34889 0.63821 0.73068 0.0
H1451 H 0.35309 0.60118 0.74438 0.0
H1452 H 0.30122 0.57035 0.78302 0.0
H1453 H 0.27947 0.60175 0.77901 0.0
C1454 C 0.29121 0.63803 0.75745 0.0
C1455 C 0.29955 0.65637 0.74611 0.0
C1456 C 0.30363 0.61983 0.75949 0.0
C1457 C 0.32048 0.65622 0.73659 0.0
C1458 C 0.33284 0.63795 0.73823 0.0
C1459 C 0.33701 0.60135 0.75187 0.0
C1460 C 0.32882 0.58343 0.76398 0.0
C1461 C 0.32461 0.61967 0.74973 0.0
C1462 C 0.308 0.58395 0.77369 0.0
C1463 C 0.29549 0.60189 0.77138 0.0
H1464 H 0.87775 0.47724 0.50111 0.0
H1465 H 0.89886 0.4268 0.54174 0.0
H1466 H 0.8615 0.40825 0.54035 0.0
H1467 H 0.82316 0.40612 0.52665 0.0
H1468 H 0.80237 0.45744 0.48667 0.0
H1469 H 0.83941 0.47594 0.48869 0.0
C1470 C 0.87415 0.46211 0.50956 0.0
C1471 C 0.89095 0.45316 0.52126 0.0
C1472 C 0.85278 0.45176 0.50878 0.0
C1473 C 0.8861 0.43389 0.5326 0.0
C1474 C 0.86481 0.4233 0.53174 0.0
C1475 C 0.82674 0.42136 0.51839 0.0
C1476 C 0.81005 0.43031 0.50641 0.0
C1477 C 0.84806 0.43203 0.51974 0.0
C1478 C 0.81488 0.45019 0.496 0.0
C1479 C 0.83607 0.46077 0.4971 0.0
H1480 H 0.69312 0.91493 0.78182 0.0
H1481 H 0.74118 0.9458 0.82849 0.0
H1482 H 0.72157 0.97922 0.83045 0.0
H1483 H 0.69088 -0.00039 0.81907 0.0
H1484 H 0.64297 0.96951 0.7718 0.0
H1485 H 0.66236 0.93579 0.76995 0.0
C1486 C 0.69918 0.92896 0.79248 0.0
C1487 C 0.71857 0.92794 0.80498 0.0
C1488 C 0.68788 0.94822 0.79341 0.0
C1489 C 0.72643 0.94629 0.81855 0.0
C1490 C 0.71518 0.96536 0.81975 0.0
C1491 C 0.68462 0.98568 0.80837 0.0
C1492 C 0.66546 0.98704 0.79565 0.0
C1493 C 0.69592 0.9665 0.80725 0.0
C1494 C 0.65769 0.96888 0.78175 0.0
C1495 C 0.66875 0.9496 0.78071 0.0
H1496 H 0.64943 0.54546 0.97471 0.0
H1497 H 0.61175 0.59013 0.01317 0.0
H1498 H 0.64432 0.61616 0.01818 0.0
H1499 H 0.68306 0.62671 0.01067 0.0
H1500 H 0.72072 0.58235 0.97169 0.0
H1501 H 0.68846 0.55581 0.96766 0.0
C1502 C 0.64833 0.56096 0.98409 0.0
C1503 C 0.62819 0.56589 0.99349 0.0
C1504 C 0.66705 0.57592 0.98673 0.0
C1505 C 0.62711 0.58584 0.00594 0.0
C1506 C 0.64568 0.60079 0.00869 0.0
C1507 C 0.68427 0.61123 0.0013 0.0
C1508 C 0.70429 0.6066 0.99142 0.0
C1509 C 0.66568 0.59607 -0.00097 0.0
C1510 C 0.70552 0.58639 0.97944 0.0
C1511 C 0.68708 0.57119 0.97711 0.0
H1512 H 0.22279 0.64405 0.242 0.0
H1513 H 0.17166 0.68785 0.25534 0.0
H1514 H 0.14683 0.65666 0.26576 0.0
H1515 H 0.14019 0.61717 0.27265 0.0
H1516 H 0.19255 0.57426 0.26209 0.0
H1517 H 0.21654 0.60507 0.24956 0.0
C1518 C 0.20633 0.64692 0.24748 0.0
C1519 C 0.19923 0.66837 0.24798 0.0
C1520 C 0.19239 0.62908 0.2541 0.0
C1521 C 0.17756 0.67153 0.25451 0.0
C1522 C 0.16338 0.65371 0.26067 0.0
C1523 C 0.15682 0.61457 0.26751 0.0
C1524 C 0.16458 0.59347 0.2683 0.0
C1525 C 0.17069 0.63245 0.2607 0.0
C1526 C 0.18622 0.59036 0.26176 0.0
C1527 C 0.19994 0.60795 0.25454 0.0
H1528 H 0.87624 0.58416 0.05683 0.0
H1529 H 0.87737 0.54246 0.99745 0.0
H1530 H 0.84899 0.56247 0.98106 0.0
H1531 H 0.82321 0.591 0.98366 0.0
H1532 H 0.82044 0.63216 0.04316 0.0
H1533 H 0.84995 0.61305 0.05946 0.0
C1534 C 0.87019 0.57939 0.04036 0.0
C1535 C 0.87915 0.56192 0.02836 0.0
C1536 C 0.85354 0.59083 0.03104 0.0
C1537 C 0.87119 0.55611 0.00694 0.0
C1538 C 0.8548 0.56744 0.99757 0.0
C1539 C 0.82909 0.59592 0.00017 0.0
C1540 C 0.81963 0.61301 0.01215 0.0
C1541 C 0.84584 0.58477 0.00947 0.0
C1542 C 0.82744 0.61906 0.03356 0.0
C1543 C 0.84429 0.60812 0.0429 0.0
H1544 H 0.12277 0.98638 0.04981 0.0
H1545 H 0.08344 0.97971 0.99008 0.0
H1546 H 0.10725 0.95297 0.97465 0.0
H1547 H 0.1405 0.93297 0.97712 0.0
H1548 H 0.17772 0.93661 0.03783 0.0
H1549 H 0.15288 0.96239 0.05417 0.0
C1550 C 0.11897 0.9788 0.03362 0.0
C1551 C 0.1015 0.98572 0.02103 0.0
C1552 C 0.13232 0.96274 0.02501 0.0
C1553 C 0.09719 0.97556 -4e-05 0.0
C1554 C 0.11068 0.95999 0.99114 0.0
C1555 C 0.14296 0.9392 0.99403 0.0
C1556 C 0.16096 0.93312 0.00622 0.0
C1557 C 0.12852 0.95377 0.00335 0.0
C1558 C 0.16389 0.94104 0.02817 0.0
C1559 C 0.1498 0.95589 0.03745 0.0
loop_
_geom_bond_atom_site_label_1
_geom_bond_atom_site_label_2
_geom_bond_distance
_geom_bond_site_symmetry_2
_ccdc_geom_bond_type
C0 C1 1.386 . S
C0 C2 1.397 . S
C0 H24 0.931 . S
C1 C0 1.386 . S
C1 C5 1.397 . S
C2 C0 1.397 . S
C2 C3 1.384 . S
C2 H25 0.930 . S
C3 C2 1.384 . S
C3 C4 1.377 . S
C3 C6 1.481 . S
C4 C3 1.377 . S
C4 C5 1.389 . S
C4 H26 0.929 . S
C5 C1 1.397 . S
C5 C4 1.389 . S
C5 H27 0.931 . S
C6 C3 1.481 . S
C6 C7 1.387 . S
C6 C11 1.390 . S
C7 C6 1.387 . S
C7 C8 1.401 . S
C7 H28 0.930 . S
C8 C7 1.401 . S
C8 C9 1.376 . S
C8 C17 1.511 . S
C9 C8 1.376 . S
C9 C10 1.392 . S
C9 H30 0.931 . S
C10 C9 1.392 . S
C10 C11 1.361 . S
C10 C12 1.500 . S
C11 C6 1.390 . S
C11 C10 1.361 . S
C11 H29 0.931 . S
C12 C10 1.500 . S
C12 C13 1.371 . S
C12 C14 1.365 . S
C13 C12 1.371 . S
C13 C23 1.386 . S
C13 H31 0.931 . S
C14 C12 1.365 . S
C14 C15 1.409 . S
C14 H32 0.929 . S
C15 C14 1.409 . S
C15 C16 1.380 . S
C15 H33 0.930 . S
C16 C15 1.380 . S
C16 C23 1.357 . S
C17 C8 1.511 . S
C17 C18 1.341 . S
C17 C19 1.371 . S
C18 C17 1.341 . S
C18 C22 1.394 . S
C18 H34 0.930 . S
C19 C17 1.371 . S
C19 C20 1.392 . S
C19 H35 0.931 . S
C20 C19 1.392 . S
C20 C21 1.331 . S
C20 H38 0.932 . S
C21 C20 1.331 . S
C21 C22 1.336 . S
C22 C18 1.394 . S
C22 C21 1.336 . S
C22 H37 0.929 . S
C23 C13 1.386 . S
C23 C16 1.357 . S
C23 H36 0.928 . S
H24 C0 0.931 . S
H25 C2 0.930 . S
H26 C4 0.929 . S
H27 C5 0.931 . S
H28 C7 0.930 . S
H29 C11 0.931 . S
H30 C9 0.931 . S
H31 C13 0.931 . S
H32 C14 0.929 . S
H33 C15 0.930 . S
H34 C18 0.930 . S
H35 C19 0.931 . S
H36 C23 0.928 . S
H37 C22 0.929 . S
H38 C20 0.932 . S
C39 C40 1.386 . S
C39 C41 1.397 . S
C39 H63 0.931 . S
C40 C39 1.386 . S
C40 C44 1.397 . S
C41 C39 1.397 . S
C41 C42 1.384 . S
C41 H64 0.930 . S
C42 C41 1.384 . S
C42 C43 1.377 . S
C42 C45 1.481 . S
C43 C42 1.377 . S
C43 C44 1.389 . S
C43 H65 0.929 . S
C44 C40 1.397 . S
C44 C43 1.389 . S
C44 H66 0.931 . S
C45 C42 1.481 . S
C45 C46 1.387 . S
C45 C50 1.390 . S
C46 C45 1.387 . S
C46 C47 1.401 . S
C46 H67 0.930 . S
C47 C46 1.401 . S
C47 C48 1.376 . S
C47 C56 1.511 . S
C48 C47 1.376 . S
C48 C49 1.392 . S
C48 H69 0.931 . S
C49 C48 1.392 . S
C49 C50 1.361 . S
C49 C51 1.500 . S
C50 C45 1.390 . S
C50 C49 1.361 . S
C50 H68 0.931 . S
C51 C49 1.500 . S
C51 C52 1.371 . S
C51 C53 1.365 . S
C52 C51 1.371 . S
C52 C62 1.386 . S
C52 H70 0.931 . S
C53 C51 1.365 . S
C53 C54 1.409 . S
C53 H71 0.929 . S
C54 C53 1.409 . S
C54 C55 1.380 . S
C54 H72 0.930 . S
C55 C54 1.380 . S
C55 C62 1.357 . S
C56 C47 1.511 . S
C56 C57 1.341 . S
C56 C58 1.371 . S
C57 C56 1.341 . S
C57 C61 1.394 . S
C57 H73 0.930 . S
C58 C56 1.371 . S
C58 C59 1.392 . S
C58 H74 0.931 . S
C59 C58 1.392 . S
C59 C60 1.331 . S
C59 H77 0.932 . S
C60 C59 1.331 . S
C60 C61 1.336 . S
C61 C57 1.394 . S
C61 C60 1.336 . S
C61 H76 0.929 . S
C62 C52 1.386 . S
C62 C55 1.357 . S
C62 H75 0.928 . S
H63 C39 0.931 . S
H64 C41 0.930 . S
H65 C43 0.929 . S
H66 C44 0.931 . S
H67 C46 0.930 . S
H68 C50 0.931 . S
H69 C48 0.931 . S
H70 C52 0.931 . S
H71 C53 0.929 . S
H72 C54 0.930 . S
H73 C57 0.930 . S
H74 C58 0.931 . S
H75 C62 0.928 . S
H76 C61 0.929 . S
H77 C59 0.932 . S
C78 C79 1.386 . S
C78 C80 1.397 . S
C78 H102 0.931 . S
C79 C78 1.386 . S
C79 C83 1.397 . S
C80 C78 1.397 . S
C80 C81 1.384 . S
C80 H103 0.930 . S
C81 C80 1.384 . S
C81 C82 1.377 . S
C81 C84 1.481 . S
C82 C81 1.377 . S
C82 C83 1.389 . S
C82 H104 0.929 . S
C83 C79 1.397 . S
C83 C82 1.389 . S
C83 H105 0.931 . S
C84 C81 1.481 . S
C84 C85 1.387 . S
C84 C89 1.390 . S
C85 C84 1.387 . S
C85 C86 1.401 . S
C85 H106 0.930 . S
C86 C85 1.401 . S
C86 C87 1.376 . S
C86 C95 1.511 . S
C87 C86 1.376 . S
C87 C88 1.392 . S
C87 H108 0.931 . S
C88 C87 1.392 . S
C88 C89 1.361 . S
C88 C90 1.500 . S
C89 C84 1.390 . S
C89 C88 1.361 . S
C89 H107 0.931 . S
C90 C88 1.500 . S
C90 C91 1.371 . S
C90 C92 1.365 . S
C91 C90 1.371 . S
C91 C101 1.386 . S
C91 H109 0.931 . S
C92 C90 1.365 . S
C92 C93 1.409 . S
C92 H110 0.929 . S
C93 C92 1.409 . S
C93 C94 1.380 . S
C93 H111 0.930 . S
C94 C93 1.380 . S
C94 C101 1.357 . S
C95 C86 1.511 . S
C95 C96 1.341 . S
C95 C97 1.371 . S
C96 C95 1.341 . S
C96 C100 1.394 . S
C96 H112 0.930 . S
C97 C95 1.371 . S
C97 C98 1.392 . S
C97 H113 0.931 . S
C98 C97 1.392 . S
C98 C99 1.331 . S
C98 H116 0.932 . S
C99 C98 1.331 . S
C99 C100 1.336 . S
C100 C96 1.394 . S
C100 C99 1.336 . S
C100 H115 0.929 . S
C101 C91 1.386 . S
C101 C94 1.357 . S
C101 H114 0.928 . S
H102 C78 0.931 . S
H103 C80 0.930 . S
H104 C82 0.929 . S
H105 C83 0.931 . S
H106 C85 0.930 . S
H107 C89 0.931 . S
H108 C87 0.931 . S
H109 C91 0.931 . S
H110 C92 0.929 . S
H111 C93 0.930 . S
H112 C96 0.930 . S
H113 C97 0.931 . S
H114 C101 0.928 . S
H115 C100 0.929 . S
H116 C98 0.932 . S
C117 C118 1.386 . S
C117 C119 1.397 . S
C117 H141 0.931 . S
C118 C117 1.386 . S
C118 C122 1.397 . S
C119 C117 1.397 . S
C119 C120 1.384 . S
C119 H142 0.930 . S
C120 C119 1.384 . S
C120 C121 1.377 . S
C120 C123 1.481 . S
C121 C120 1.377 . S
C121 C122 1.389 . S
C121 H143 0.929 . S
C122 C118 1.397 . S
C122 C121 1.389 . S
C122 H144 0.931 . S
C123 C120 1.481 . S
C123 C124 1.387 . S
C123 C128 1.390 . S
C124 C123 1.387 . S
C124 C125 1.401 . S
C124 H145 0.930 . S
C125 C124 1.401 . S
C125 C126 1.376 . S
C125 C134 1.511 . S
C126 C125 1.376 . S
C126 C127 1.392 . S
C126 H147 0.931 . S
C127 C126 1.392 . S
C127 C128 1.361 . S
C127 C129 1.500 . S
C128 C123 1.390 . S
C128 C127 1.361 . S
C128 H146 0.931 . S
C129 C127 1.500 . S
C129 C130 1.371 . S
C129 C131 1.365 . S
C130 C129 1.371 . S
C130 C140 1.386 . S
C130 H148 0.931 . S
C131 C129 1.365 . S
C131 C132 1.409 . S
C131 H149 0.929 . S
C132 C131 1.409 . S
C132 C133 1.380 . S
C132 H150 0.930 . S
C133 C132 1.380 . S
C133 C140 1.357 . S
C134 C125 1.511 . S
C134 C135 1.341 . S
C134 C136 1.371 . S
C135 C134 1.341 . S
C135 C139 1.394 . S
C135 H151 0.930 . S
C136 C134 1.371 . S
C136 C137 1.392 . S
C136 H152 0.931 . S
C137 C136 1.392 . S
C137 C138 1.331 . S
C137 H155 0.932 . S
C138 C137 1.331 . S
C138 C139 1.336 . S
C139 C135 1.394 . S
C139 C138 1.336 . S
C139 H154 0.929 . S
C140 C130 1.386 . S
C140 C133 1.357 . S
C140 H153 0.928 . S
H141 C117 0.931 . S
H142 C119 0.930 . S
H143 C121 0.929 . S
H144 C122 0.931 . S
H145 C124 0.930 . S
H146 C128 0.931 . S
H147 C126 0.931 . S
H148 C130 0.931 . S
H149 C131 0.929 . S
H150 C132 0.930 . S
H151 C135 0.930 . S
H152 C136 0.931 . S
H153 C140 0.928 . S
H154 C139 0.929 . S
H155 C137 0.932 . S
C156 C157 1.386 . S
C156 C158 1.397 . S
C156 H180 0.931 1_455 S
C157 C156 1.386 . S
C157 C161 1.397 . S
C158 C156 1.397 . S
C158 C159 1.384 . S
C158 H181 0.930 . S
C159 C158 1.384 . S
C159 C160 1.377 . S
C159 C162 1.481 . S
C160 C159 1.377 . S
C160 C161 1.389 . S
C160 H182 0.929 . S
C161 C157 1.397 . S
C161 C160 1.389 . S
C161 H183 0.931 . S
C162 C159 1.481 . S
C162 C163 1.387 . S
C162 C167 1.390 . S
C163 C162 1.387 . S
C163 C164 1.401 . S
C163 H184 0.930 . S
C164 C163 1.401 . S
C164 C165 1.376 . S
C164 C173 1.511 . S
C165 C164 1.376 . S
C165 C166 1.392 . S
C165 H186 0.931 . S
C166 C165 1.392 . S
C166 C167 1.361 . S
C166 C168 1.500 . S
C167 C162 1.390 . S
C167 C166 1.361 . S
C167 H185 0.931 . S
C168 C166 1.500 . S
C168 C169 1.371 . S
C168 C170 1.365 . S
C169 C168 1.371 . S
C169 C179 1.386 . S
C169 H187 0.931 . S
C170 C168 1.365 . S
C170 C171 1.409 1_565 S
C170 H188 0.929 . S
C171 C170 1.409 1_545 S
C171 C172 1.380 . S
C171 H189 0.930 . S
C172 C171 1.380 . S
C172 C179 1.357 1_545 S
C173 C164 1.511 . S
C173 C174 1.341 . S
C173 C175 1.371 . S
C174 C173 1.341 . S
C174 C178 1.394 . S
C174 H190 0.930 . S
C175 C173 1.371 . S
C175 C176 1.392 . S
C175 H191 0.931 . S
C176 C175 1.392 . S
C176 C177 1.331 . S
C176 H194 0.932 . S
C177 C176 1.331 . S
C177 C178 1.336 . S
C178 C174 1.394 . S
C178 C177 1.336 . S
C178 H193 0.929 . S
C179 C169 1.386 . S
C179 C172 1.357 1_565 S
C179 H192 0.928 1_565 S
H180 C156 0.931 1_655 S
H181 C158 0.930 . S
H182 C160 0.929 . S
H183 C161 0.931 . S
H184 C163 0.930 . S
H185 C167 0.931 . S
H186 C165 0.931 . S
H187 C169 0.931 . S
H188 C170 0.929 . S
H189 C171 0.930 . S
H190 C174 0.930 . S
H191 C175 0.931 . S
H192 C179 0.928 1_545 S
H193 C178 0.929 . S
H194 C176 0.932 . S
C195 C196 1.386 . S
C195 C197 1.397 . S
C195 H219 0.931 . S
C196 C195 1.386 . S
C196 C200 1.397 . S
C197 C195 1.397 . S
C197 C198 1.384 . S
C197 H220 0.930 . S
C198 C197 1.384 . S
C198 C199 1.377 . S
C198 C201 1.481 . S
C199 C198 1.377 . S
C199 C200 1.389 . S
C199 H221 0.929 . S
C200 C196 1.397 . S
C200 C199 1.389 . S
C200 H222 0.931 . S
C201 C198 1.481 . S
C201 C202 1.387 . S
C201 C206 1.390 . S
C202 C201 1.387 . S
C202 C203 1.401 . S
C202 H223 0.930 . S
C203 C202 1.401 . S
C203 C204 1.376 . S
C203 C212 1.511 . S
C204 C203 1.376 . S
C204 C205 1.392 . S
C204 H225 0.931 . S
C205 C204 1.392 . S
C205 C206 1.361 . S
C205 C207 1.500 . S
C206 C201 1.390 . S
C206 C205 1.361 . S
C206 H224 0.931 . S
C207 C205 1.500 . S
C207 C208 1.371 . S
C207 C209 1.365 . S
C208 C207 1.371 . S
C208 C218 1.386 . S
C208 H226 0.931 . S
C209 C207 1.365 . S
C209 C210 1.409 . S
C209 H227 0.929 . S
C210 C209 1.409 . S
C210 C211 1.380 . S
C210 H228 0.930 . S
C211 C210 1.380 . S
C211 C218 1.357 . S
C212 C203 1.511 . S
C212 C213 1.341 . S
C212 C214 1.371 . S
C213 C212 1.341 . S
C213 C217 1.394 . S
C213 H229 0.930 . S
C214 C212 1.371 . S
C214 C215 1.392 . S
C214 H230 0.931 . S
C215 C214 1.392 . S
C215 C216 1.331 . S
C215 H233 0.932 . S
C216 C215 1.331 . S
C216 C217 1.336 . S
C217 C213 1.394 . S
C217 C216 1.336 . S
C217 H232 0.929 . S
C218 C208 1.386 . S
C218 C211 1.357 . S
C218 H231 0.928 . S
H219 C195 0.931 . S
H220 C197 0.930 . S
H221 C199 0.929 . S
H222 C200 0.931 . S
H223 C202 0.930 . S
H224 C206 0.931 . S
H225 C204 0.931 . S
H226 C208 0.931 . S
H227 C209 0.929 . S
H228 C210 0.930 . S
H229 C213 0.930 . S
H230 C214 0.931 . S
H231 C218 0.928 . S
H232 C217 0.929 . S
H233 C215 0.932 . S
C234 C235 1.386 . S
C234 C236 1.397 . S
C234 H258 0.931 . S
C235 C234 1.386 . S
C235 C239 1.397 . S
C236 C234 1.397 . S
C236 C237 1.384 . S
C236 H259 0.930 . S
C237 C236 1.384 . S
C237 C238 1.377 . S
C237 C240 1.481 . S
C238 C237 1.377 . S
C238 C239 1.389 . S
C238 H260 0.929 . S
C239 C235 1.397 . S
C239 C238 1.389 . S
C239 H261 0.931 . S
C240 C237 1.481 . S
C240 C241 1.387 . S
C240 C245 1.390 . S
C241 C240 1.387 . S
C241 C242 1.401 . S
C241 H262 0.930 . S
C242 C241 1.401 . S
C242 C243 1.376 . S
C242 C251 1.511 . S
C243 C242 1.376 . S
C243 C244 1.392 . S
C243 H264 0.931 . S
C244 C243 1.392 . S
C244 C245 1.361 . S
C244 C246 1.500 . S
C245 C240 1.390 . S
C245 C244 1.361 . S
C245 H263 0.931 . S
C246 C244 1.500 . S
C246 C247 1.371 . S
C246 C248 1.365 . S
C247 C246 1.371 . S
C247 C257 1.386 . S
C247 H265 0.931 . S
C248 C246 1.365 . S
C248 C249 1.409 . S
C248 H266 0.929 . S
C249 C248 1.409 . S
C249 C250 1.380 . S
C249 H267 0.930 . S
C250 C249 1.380 . S
C250 C257 1.357 . S
C251 C242 1.511 . S
C251 C252 1.341 . S
C251 C253 1.371 . S
C252 C251 1.341 . S
C252 C256 1.394 . S
C252 H268 0.930 . S
C253 C251 1.371 . S
C253 C254 1.392 . S
C253 H269 0.931 . S
C254 C253 1.392 . S
C254 C255 1.331 . S
C254 H272 0.932 . S
C255 C254 1.331 . S
C255 C256 1.336 . S
C256 C252 1.394 . S
C256 C255 1.336 . S
C256 H271 0.929 . S
C257 C247 1.386 . S
C257 C250 1.357 . S
C257 H270 0.928 . S
H258 C234 0.931 . S
H259 C236 0.930 . S
H260 C238 0.929 . S
H261 C239 0.931 . S
H262 C241 0.930 . S
H263 C245 0.931 . S
H264 C243 0.931 . S
H265 C247 0.931 . S
H266 C248 0.929 . S
H267 C249 0.930 . S
H268 C252 0.930 . S
H269 C253 0.931 . S
H270 C257 0.928 . S
H271 C256 0.929 . S
H272 C254 0.932 . S
C273 C274 1.386 . S
C273 C275 1.397 . S
C273 H297 0.931 . S
C274 C273 1.386 . S
C274 C278 1.397 . S
C275 C273 1.397 . S
C275 C276 1.384 . S
C275 H298 0.930 . S
C276 C275 1.384 . S
C276 C277 1.377 . S
C276 C279 1.481 . S
C277 C276 1.377 . S
C277 C278 1.389 . S
C277 H299 0.929 . S
C278 C274 1.397 . S
C278 C277 1.389 . S
C278 H300 0.931 . S
C279 C276 1.481 . S
C279 C280 1.387 . S
C279 C284 1.390 . S
C280 C279 1.387 . S
C280 C281 1.401 . S
C280 H301 0.930 . S
C281 C280 1.401 . S
C281 C282 1.376 . S
C281 C290 1.511 . S
C282 C281 1.376 . S
C282 C283 1.392 . S
C282 H303 0.931 . S
C283 C282 1.392 . S
C283 C284 1.361 . S
C283 C285 1.500 . S
C284 C279 1.390 . S
C284 C283 1.361 . S
C284 H302 0.931 . S
C285 C283 1.500 . S
C285 C286 1.371 . S
C285 C287 1.365 . S
C286 C285 1.371 . S
C286 C296 1.386 . S
C286 H304 0.931 . S
C287 C285 1.365 . S
C287 C288 1.409 . S
C287 H305 0.929 . S
C288 C287 1.409 . S
C288 C289 1.380 . S
C288 H306 0.930 . S
C289 C288 1.380 . S
C289 C296 1.357 . S
C290 C281 1.511 . S
C290 C291 1.341 . S
C290 C292 1.371 . S
C291 C290 1.341 . S
C291 C295 1.394 . S
C291 H307 0.930 . S
C292 C290 1.371 . S
C292 C293 1.392 . S
C292 H308 0.931 . S
C293 C292 1.392 . S
C293 C294 1.331 . S
C293 H311 0.932 . S
C294 C293 1.331 . S
C294 C295 1.336 . S
C295 C291 1.394 . S
C295 C294 1.336 . S
C295 H310 0.929 . S
C296 C286 1.386 . S
C296 C289 1.357 . S
C296 H309 0.928 . S
H297 C273 0.931 . S
H298 C275 0.930 . S
H299 C277 0.929 . S
H300 C278 0.931 . S
H301 C280 0.930 . S
H302 C284 0.931 . S
H303 C282 0.931 . S
H304 C286 0.931 . S
H305 C287 0.929 . S
H306 C288 0.930 . S
H307 C291 0.930 . S
H308 C292 0.931 . S
H309 C296 0.928 . S
H310 C295 0.929 . S
H311 C293 0.932 . S
C312 C313 1.386 . S
C312 C314 1.397 . S
C312 H336 0.931 . S
C313 C312 1.386 . S
C313 C317 1.397 . S
C314 C312 1.397 . S
C314 C315 1.384 . S
C314 H337 0.930 . S
C315 C314 1.384 . S
C315 C316 1.377 . S
C315 C318 1.481 . S
C316 C315 1.377 . S
C316 C317 1.389 . S
C316 H338 0.929 . S
C317 C313 1.397 . S
C317 C316 1.389 . S
C317 H339 0.931 . S
C318 C315 1.481 . S
C318 C319 1.387 . S
C318 C323 1.390 . S
C319 C318 1.387 . S
C319 C320 1.401 . S
C319 H340 0.930 . S
C320 C319 1.401 . S
C320 C321 1.376 . S
C320 C329 1.511 . S
C321 C320 1.376 . S
C321 C322 1.392 . S
C321 H342 0.931 . S
C322 C321 1.392 . S
C322 C323 1.361 . S
C322 C324 1.500 . S
C323 C318 1.390 . S
C323 C322 1.361 . S
C323 H341 0.931 . S
C324 C322 1.500 . S
C324 C325 1.371 . S
C324 C326 1.365 . S
C325 C324 1.371 . S
C325 C335 1.386 . S
C325 H343 0.931 . S
C326 C324 1.365 . S
C326 C327 1.409 . S
C326 H344 0.929 . S
C327 C326 1.409 . S
C327 C328 1.380 . S
C327 H345 0.930 . S
C328 C327 1.380 . S
C328 C335 1.357 . S
C329 C320 1.511 . S
C329 C330 1.341 . S
C329 C331 1.371 . S
C330 C329 1.341 . S
C330 C334 1.394 . S
C330 H346 0.930 . S
C331 C329 1.371 . S
C331 C332 1.392 . S
C331 H347 0.931 . S
C332 C331 1.392 . S
C332 C333 1.331 . S
C332 H350 0.932 . S
C333 C332 1.331 . S
C333 C334 1.336 . S
C334 C330 1.394 . S
C334 C333 1.336 . S
C334 H349 0.929 . S
C335 C325 1.386 . S
C335 C328 1.357 . S
C335 H348 0.928 . S
H336 C312 0.931 . S
H337 C314 0.930 . S
H338 C316 0.929 . S
H339 C317 0.931 . S
H340 C319 0.930 . S
H341 C323 0.931 . S
H342 C321 0.931 . S
H343 C325 0.931 . S
H344 C326 0.929 . S
H345 C327 0.930 . S
H346 C330 0.930 . S
H347 C331 0.931 . S
H348 C335 0.928 . S
H349 C334 0.929 . S
H350 C332 0.932 . S
C351 C352 1.386 . S
C351 C353 1.397 . S
C351 H375 0.931 . S
C352 C351 1.386 . S
C352 C356 1.397 . S
C353 C351 1.397 . S
C353 C354 1.384 . S
C353 H376 0.930 . S
C354 C353 1.384 . S
C354 C355 1.377 . S
C354 C357 1.481 . S
C355 C354 1.377 . S
C355 C356 1.389 . S
C355 H377 0.929 . S
C356 C352 1.397 . S
C356 C355 1.389 . S
C356 H378 0.931 . S
C357 C354 1.481 . S
C357 C358 1.387 . S
C357 C362 1.390 . S
C358 C357 1.387 . S
C358 C359 1.401 . S
C358 H379 0.930 . S
C359 C358 1.401 . S
C359 C360 1.376 . S
C359 C368 1.511 . S
C360 C359 1.376 . S
C360 C361 1.392 . S
C360 H381 0.931 . S
C361 C360 1.392 . S
C361 C362 1.361 . S
C361 C363 1.500 . S
C362 C357 1.390 . S
C362 C361 1.361 . S
C362 H380 0.931 . S
C363 C361 1.500 . S
C363 C364 1.371 . S
C363 C365 1.365 . S
C364 C363 1.371 . S
C364 C374 1.386 . S
C364 H382 0.931 . S
C365 C363 1.365 . S
C365 C366 1.409 . S
C365 H383 0.929 . S
C366 C365 1.409 . S
C366 C367 1.380 . S
C366 H384 0.930 . S
C367 C366 1.380 . S
C367 C374 1.357 . S
C368 C359 1.511 . S
C368 C369 1.341 . S
C368 C370 1.371 . S
C369 C368 1.341 . S
C369 C373 1.394 . S
C369 H385 0.930 . S
C370 C368 1.371 . S
C370 C371 1.392 . S
C370 H386 0.931 . S
C371 C370 1.392 . S
C371 C372 1.331 . S
C371 H389 0.932 . S
C372 C371 1.331 . S
C372 C373 1.336 . S
C373 C369 1.394 . S
C373 C372 1.336 . S
C373 H388 0.929 . S
C374 C364 1.386 . S
C374 C367 1.357 . S
C374 H387 0.928 . S
H375 C351 0.931 . S
H376 C353 0.930 . S
H377 C355 0.929 . S
H378 C356 0.931 . S
H379 C358 0.930 . S
H380 C362 0.931 . S
H381 C360 0.931 . S
H382 C364 0.931 . S
H383 C365 0.929 . S
H384 C366 0.930 . S
H385 C369 0.930 . S
H386 C370 0.931 . S
H387 C374 0.928 . S
H388 C373 0.929 . S
H389 C371 0.932 . S
C390 C391 1.386 . S
C390 C392 1.397 . S
C390 H414 0.931 . S
C391 C390 1.386 . S
C391 C395 1.397 . S
C392 C390 1.397 . S
C392 C393 1.384 . S
C392 H415 0.930 . S
C393 C392 1.384 . S
C393 C394 1.377 . S
C393 C396 1.481 . S
C394 C393 1.377 . S
C394 C395 1.389 . S
C394 H416 0.929 . S
C395 C391 1.397 . S
C395 C394 1.389 . S
C395 H417 0.931 . S
C396 C393 1.481 . S
C396 C397 1.387 . S
C396 C401 1.390 . S
C397 C396 1.387 . S
C397 C398 1.401 . S
C397 H418 0.930 . S
C398 C397 1.401 . S
C398 C399 1.376 . S
C398 C407 1.511 . S
C399 C398 1.376 . S
C399 C400 1.392 . S
C399 H420 0.931 . S
C400 C399 1.392 . S
C400 C401 1.361 . S
C400 C402 1.500 . S
C401 C396 1.390 . S
C401 C400 1.361 . S
C401 H419 0.931 . S
C402 C400 1.500 . S
C402 C403 1.371 . S
C402 C404 1.365 . S
C403 C402 1.371 . S
C403 C413 1.386 . S
C403 H421 0.931 . S
C404 C402 1.365 . S
C404 C405 1.409 . S
C404 H422 0.929 . S
C405 C404 1.409 . S
C405 C406 1.380 . S
C405 H423 0.930 . S
C406 C405 1.380 . S
C406 C413 1.357 . S
C407 C398 1.511 . S
C407 C408 1.341 . S
C407 C409 1.371 . S
C408 C407 1.341 . S
C408 C412 1.394 . S
C408 H424 0.930 . S
C409 C407 1.371 . S
C409 C410 1.392 . S
C409 H425 0.931 . S
C410 C409 1.392 . S
C410 C411 1.331 . S
C410 H428 0.932 . S
C411 C410 1.331 . S
C411 C412 1.336 . S
C412 C408 1.394 . S
C412 C411 1.336 . S
C412 H427 0.929 . S
C413 C403 1.386 . S
C413 C406 1.357 . S
C413 H426 0.928 . S
H414 C390 0.931 . S
H415 C392 0.930 . S
H416 C394 0.929 . S
H417 C395 0.931 . S
H418 C397 0.930 . S
H419 C401 0.931 . S
H420 C399 0.931 . S
H421 C403 0.931 . S
H422 C404 0.929 . S
H423 C405 0.930 . S
H424 C408 0.930 . S
H425 C409 0.931 . S
H426 C413 0.928 . S
H427 C412 0.929 . S
H428 C410 0.932 . S
C429 C430 1.386 . S
C429 C431 1.397 . S
C429 H453 0.931 . S
C430 C429 1.386 . S
C430 C434 1.397 . S
C431 C429 1.397 . S
C431 C432 1.384 . S
C431 H454 0.930 . S
C432 C431 1.384 . S
C432 C433 1.377 . S
C432 C435 1.481 . S
C433 C432 1.377 . S
C433 C434 1.389 . S
C433 H455 0.929 . S
C434 C430 1.397 . S
C434 C433 1.389 . S
C434 H456 0.931 . S
C435 C432 1.481 . S
C435 C436 1.387 . S
C435 C440 1.390 . S
C436 C435 1.387 . S
C436 C437 1.401 . S
C436 H457 0.930 . S
C437 C436 1.401 . S
C437 C438 1.376 . S
C437 C446 1.511 . S
C438 C437 1.376 . S
C438 C439 1.392 . S
C438 H459 0.931 . S
C439 C438 1.392 . S
C439 C440 1.361 . S
C439 C441 1.500 . S
C440 C435 1.390 . S
C440 C439 1.361 . S
C440 H458 0.931 . S
C441 C439 1.500 . S
C441 C442 1.371 . S
C441 C443 1.365 . S
C442 C441 1.371 . S
C442 C452 1.386 . S
C442 H460 0.931 . S
C443 C441 1.365 . S
C443 C444 1.409 . S
C443 H461 0.929 . S
C444 C443 1.409 . S
C444 C445 1.380 . S
C444 H462 0.930 . S
C445 C444 1.380 . S
C445 C452 1.357 . S
C446 C437 1.511 . S
C446 C447 1.341 . S
C446 C448 1.371 . S
C447 C446 1.341 . S
C447 C451 1.394 . S
C447 H463 0.930 . S
C448 C446 1.371 . S
C448 C449 1.392 . S
C448 H464 0.931 . S
C449 C448 1.392 . S
C449 C450 1.331 . S
C449 H467 0.932 . S
C450 C449 1.331 . S
C450 C451 1.336 . S
C451 C447 1.394 . S
C451 C450 1.336 . S
C451 H466 0.929 . S
C452 C442 1.386 . S
C452 C445 1.357 . S
C452 H465 0.928 . S
H453 C429 0.931 . S
H454 C431 0.930 . S
H455 C433 0.929 . S
H456 C434 0.931 . S
H457 C436 0.930 . S
H458 C440 0.931 . S
H459 C438 0.931 . S
H460 C442 0.931 . S
H461 C443 0.929 . S
H462 C444 0.930 . S
H463 C447 0.930 . S
H464 C448 0.931 . S
H465 C452 0.928 . S
H466 C451 0.929 . S
H467 C449 0.932 . S
C468 C469 1.386 . S
C468 C470 1.397 . S
C468 H492 0.931 . S
C469 C468 1.386 . S
C469 C473 1.397 . S
C470 C468 1.397 . S
C470 C471 1.384 . S
C470 H493 0.930 . S
C471 C470 1.384 . S
C471 C472 1.377 . S
C471 C474 1.481 . S
C472 C471 1.377 . S
C472 C473 1.389 . S
C472 H494 0.929 . S
C473 C469 1.397 . S
C473 C472 1.389 . S
C473 H495 0.931 . S
C474 C471 1.481 . S
C474 C475 1.387 . S
C474 C479 1.390 . S
C475 C474 1.387 . S
C475 C476 1.401 . S
C475 H496 0.930 . S
C476 C475 1.401 . S
C476 C477 1.376 . S
C476 C485 1.511 . S
C477 C476 1.376 . S
C477 C478 1.392 . S
C477 H498 0.931 . S
C478 C477 1.392 . S
C478 C479 1.361 . S
C478 C480 1.500 . S
C479 C474 1.390 . S
C479 C478 1.361 . S
C479 H497 0.931 . S
C480 C478 1.500 . S
C480 C481 1.371 . S
C480 C482 1.365 . S
C481 C480 1.371 . S
C481 C491 1.386 . S
C481 H499 0.931 . S
C482 C480 1.365 . S
C482 C483 1.409 . S
C482 H500 0.929 . S
C483 C482 1.409 . S
C483 C484 1.380 . S
C483 H501 0.930 . S
C484 C483 1.380 . S
C484 C491 1.357 . S
C485 C476 1.511 . S
C485 C486 1.341 . S
C485 C487 1.371 . S
C486 C485 1.341 . S
C486 C490 1.394 . S
C486 H502 0.930 . S
C487 C485 1.371 . S
C487 C488 1.392 . S
C487 H503 0.931 . S
C488 C487 1.392 . S
C488 C489 1.331 . S
C488 H506 0.932 . S
C489 C488 1.331 . S
C489 C490 1.336 . S
C490 C486 1.394 . S
C490 C489 1.336 . S
C490 H505 0.929 . S
C491 C481 1.386 . S
C491 C484 1.357 . S
C491 H504 0.928 . S
H492 C468 0.931 . S
H493 C470 0.930 . S
H494 C472 0.929 . S
H495 C473 0.931 . S
H496 C475 0.930 . S
H497 C479 0.931 . S
H498 C477 0.931 . S
H499 C481 0.931 . S
H500 C482 0.929 . S
H501 C483 0.930 . S
H502 C486 0.930 . S
H503 C487 0.931 . S
H504 C491 0.928 . S
H505 C490 0.929 . S
H506 C488 0.932 . S
C507 C508 1.386 . S
C507 C509 1.397 . S
C507 H531 0.931 . S
C508 C507 1.386 . S
C508 C512 1.397 . S
C509 C507 1.397 . S
C509 C510 1.384 . S
C509 H532 0.930 . S
C510 C509 1.384 . S
C510 C511 1.377 . S
C510 C513 1.481 . S
C511 C510 1.377 . S
C511 C512 1.389 . S
C511 H533 0.929 . S
C512 C508 1.397 . S
C512 C511 1.389 . S
C512 H534 0.931 . S
C513 C510 1.481 . S
C513 C514 1.387 . S
C513 C518 1.390 . S
C514 C513 1.387 . S
C514 C515 1.401 . S
C514 H535 0.930 . S
C515 C514 1.401 . S
C515 C516 1.376 . S
C515 C524 1.511 . S
C516 C515 1.376 . S
C516 C517 1.392 . S
C516 H537 0.931 . S
C517 C516 1.392 . S
C517 C518 1.361 . S
C517 C519 1.500 . S
C518 C513 1.390 . S
C518 C517 1.361 . S
C518 H536 0.931 . S
C519 C517 1.500 . S
C519 C520 1.371 . S
C519 C521 1.365 . S
C520 C519 1.371 . S
C520 C530 1.386 . S
C520 H538 0.931 . S
C521 C519 1.365 . S
C521 C522 1.409 . S
C521 H539 0.929 . S
C522 C521 1.409 . S
C522 C523 1.380 . S
C522 H540 0.930 . S
C523 C522 1.380 . S
C523 C530 1.357 . S
C524 C515 1.511 . S
C524 C525 1.341 . S
C524 C526 1.371 . S
C525 C524 1.341 . S
C525 C529 1.394 . S
C525 H541 0.930 . S
C526 C524 1.371 . S
C526 C527 1.392 . S
C526 H542 0.931 . S
C527 C526 1.392 . S
C527 C528 1.331 . S
C527 H545 0.932 . S
C528 C527 1.331 . S
C528 C529 1.336 . S
C529 C525 1.394 . S
C529 C528 1.336 . S
C529 H544 0.929 . S
C530 C520 1.386 . S
C530 C523 1.357 . S
C530 H543 0.928 . S
H531 C507 0.931 . S
H532 C509 0.930 . S
H533 C511 0.929 . S
H534 C512 0.931 . S
H535 C514 0.930 . S
H536 C518 0.931 . S
H537 C516 0.931 . S
H538 C520 0.931 . S
H539 C521 0.929 . S
H540 C522 0.930 . S
H541 C525 0.930 . S
H542 C526 0.931 . S
H543 C530 0.928 . S
H544 C529 0.929 . S
H545 C527 0.932 . S
C546 C547 1.386 . S
C546 C548 1.397 . S
C546 H570 0.931 . S
C547 C546 1.386 . S
C547 C551 1.397 . S
C548 C546 1.397 . S
C548 C549 1.384 . S
C548 H571 0.930 . S
C549 C548 1.384 . S
C549 C550 1.377 . S
C549 C552 1.481 . S
C550 C549 1.377 . S
C550 C551 1.389 . S
C550 H572 0.929 . S
C551 C547 1.397 . S
C551 C550 1.389 . S
C551 H573 0.931 . S
C552 C549 1.481 . S
C552 C553 1.387 . S
C552 C557 1.390 . S
C553 C552 1.387 . S
C553 C554 1.401 . S
C553 H574 0.930 . S
C554 C553 1.401 . S
C554 C555 1.376 . S
C554 C563 1.511 . S
C555 C554 1.376 . S
C555 C556 1.392 . S
C555 H576 0.931 . S
C556 C555 1.392 . S
C556 C557 1.361 . S
C556 C558 1.500 . S
C557 C552 1.390 . S
C557 C556 1.361 . S
C557 H575 0.931 . S
C558 C556 1.500 . S
C558 C559 1.371 . S
C558 C560 1.365 . S
C559 C558 1.371 . S
C559 C569 1.386 . S
C559 H577 0.931 . S
C560 C558 1.365 . S
C560 C561 1.409 . S
C560 H578 0.929 . S
C561 C560 1.409 . S
C561 C562 1.380 . S
C561 H579 0.930 . S
C562 C561 1.380 . S
C562 C569 1.357 . S
C563 C554 1.511 . S
C563 C564 1.341 . S
C563 C565 1.371 . S
C564 C563 1.341 . S
C564 C568 1.394 . S
C564 H580 0.930 . S
C565 C563 1.371 . S
C565 C566 1.392 . S
C565 H581 0.931 . S
C566 C565 1.392 . S
C566 C567 1.331 . S
C566 H584 0.932 . S
C567 C566 1.331 . S
C567 C568 1.336 . S
C568 C564 1.394 . S
C568 C567 1.336 . S
C568 H583 0.929 . S
C569 C559 1.386 . S
C569 C562 1.357 . S
C569 H582 0.928 . S
H570 C546 0.931 . S
H571 C548 0.930 . S
H572 C550 0.929 . S
H573 C551 0.931 . S
H574 C553 0.930 . S
H575 C557 0.931 . S
H576 C555 0.931 . S
H577 C559 0.931 . S
H578 C560 0.929 . S
H579 C561 0.930 . S
H580 C564 0.930 . S
H581 C565 0.931 . S
H582 C569 0.928 . S
H583 C568 0.929 . S
H584 C566 0.932 . S
C585 C586 1.386 . S
C585 C587 1.397 . S
C585 H609 0.931 . S
C586 C585 1.386 . S
C586 C590 1.397 1_556 S
C587 C585 1.397 . S
C587 C588 1.384 . S
C587 H610 0.930 . S
C588 C587 1.384 . S
C588 C589 1.377 . S
C588 C591 1.481 . S
C589 C588 1.377 . S
C589 C590 1.389 1_556 S
C589 H611 0.929 . S
C590 C586 1.397 1_554 S
C590 C589 1.389 1_554 S
C590 H612 0.931 . S
C591 C588 1.481 . S
C591 C592 1.387 . S
C591 C596 1.390 . S
C592 C591 1.387 . S
C592 C593 1.401 . S
C592 H613 0.930 . S
C593 C592 1.401 . S
C593 C594 1.376 . S
C593 C602 1.511 . S
C594 C593 1.376 . S
C594 C595 1.392 . S
C594 H615 0.931 . S
C595 C594 1.392 . S
C595 C596 1.361 . S
C595 C597 1.500 . S
C596 C591 1.390 . S
C596 C595 1.361 . S
C596 H614 0.931 . S
C597 C595 1.500 . S
C597 C598 1.371 . S
C597 C599 1.365 . S
C598 C597 1.371 . S
C598 C608 1.386 . S
C598 H616 0.931 . S
C599 C597 1.365 . S
C599 C600 1.409 . S
C599 H617 0.929 . S
C600 C599 1.409 . S
C600 C601 1.380 . S
C600 H618 0.930 . S
C601 C600 1.380 . S
C601 C608 1.357 . S
C602 C593 1.511 . S
C602 C603 1.341 . S
C602 C604 1.371 . S
C603 C602 1.341 . S
C603 C607 1.394 . S
C603 H619 0.930 . S
C604 C602 1.371 . S
C604 C605 1.392 . S
C604 H620 0.931 . S
C605 C604 1.392 . S
C605 C606 1.331 . S
C605 H623 0.932 . S
C606 C605 1.331 . S
C606 C607 1.336 . S
C607 C603 1.394 . S
C607 C606 1.336 . S
C607 H622 0.929 . S
C608 C598 1.386 . S
C608 C601 1.357 . S
C608 H621 0.928 . S
H609 C585 0.931 . S
H610 C587 0.930 . S
H611 C589 0.929 . S
H612 C590 0.931 . S
H613 C592 0.930 . S
H614 C596 0.931 . S
H615 C594 0.931 . S
H616 C598 0.931 . S
H617 C599 0.929 . S
H618 C600 0.930 . S
H619 C603 0.930 . S
H620 C604 0.931 . S
H621 C608 0.928 . S
H622 C607 0.929 . S
H623 C605 0.932 . S
O624 Cd625 2.223 . S
O624 C632 1.315 . S
Cd625 O624 2.223 . S
Cd625 O628 2.297 . S
Cd625 O629 2.439 . S
Cd625 O635 2.240 . S
Cd626 O627 2.240 . S
Cd626 O634 2.223 . S
Cd626 O636 2.297 . S
Cd626 O637 2.439 . S
O627 Cd626 2.240 . S
O627 C632 1.279 . S
O628 Cd625 2.297 . S
O628 C630 1.247 . S
O629 Cd625 2.439 . S
O629 C630 1.208 . S
C630 O628 1.247 . S
C630 O629 1.208 . S
C631 O636 1.247 . S
C631 O637 1.208 . S
C632 O624 1.315 . S
C632 O627 1.279 . S
C633 O634 1.315 . S
C633 O635 1.279 . S
O634 Cd626 2.223 . S
O634 C633 1.315 . S
O635 Cd625 2.240 . S
O635 C633 1.279 . S
O636 Cd626 2.297 . S
O636 C631 1.247 . S
O637 Cd626 2.439 . S
O637 C631 1.208 . S
O638 Cd639 2.223 . S
O638 C646 1.315 . S
Cd639 O638 2.223 . S
Cd639 O642 2.297 . S
Cd639 O643 2.439 . S
Cd639 O649 2.240 . S
Cd640 O641 2.240 . S
Cd640 O648 2.223 . S
Cd640 O650 2.297 . S
Cd640 O651 2.439 . S
O641 Cd640 2.240 . S
O641 C646 1.279 . S
O642 Cd639 2.297 . S
O642 C644 1.247 . S
O643 Cd639 2.439 . S
O643 C644 1.208 . S
C644 O642 1.247 . S
C644 O643 1.208 . S
C645 O650 1.247 . S
C645 O651 1.208 . S
C646 O638 1.315 . S
C646 O641 1.279 . S
C647 O648 1.315 . S
C647 O649 1.279 . S
O648 Cd640 2.223 . S
O648 C647 1.315 . S
O649 Cd639 2.240 . S
O649 C647 1.279 . S
O650 Cd640 2.297 . S
O650 C645 1.247 . S
O651 Cd640 2.439 . S
O651 C645 1.208 . S
O652 Cd653 2.223 1_556 S
O652 C660 1.315 . S
Cd653 O652 2.223 1_554 S
Cd653 O656 2.297 . S
Cd653 O657 2.439 . S
Cd653 O663 2.240 . S
Cd654 O655 2.240 . S
Cd654 O662 2.223 . S
Cd654 O664 2.282 1_556 S
Cd654 O665 2.439 1_556 S
O655 Cd654 2.240 . S
O655 C660 1.279 . S
O656 Cd653 2.297 . S
O656 C658 1.247 . S
O657 Cd653 2.439 . S
O657 C658 1.208 . S
C658 O656 1.247 . S
C658 O657 1.208 . S
C659 O664 1.290 . S
C659 O665 1.208 . S
C660 O652 1.315 . S
C660 O655 1.279 . S
C661 O662 1.315 . S
C661 O663 1.279 1_556 S
O662 Cd654 2.223 . S
O662 C661 1.315 . S
O663 Cd653 2.240 . S
O663 C661 1.279 1_554 S
O664 Cd654 2.282 1_554 S
O664 C659 1.290 . S
O665 Cd654 2.439 1_554 S
O665 C659 1.208 . S
O666 Cd667 2.223 . S
O666 C674 1.315 . S
Cd667 O666 2.223 . S
Cd667 O670 2.297 . S
Cd667 O671 2.439 . S
Cd667 O677 2.240 . S
Cd668 O669 2.240 . S
Cd668 O676 2.223 . S
Cd668 O678 2.297 . S
Cd668 O679 2.439 . S
O669 Cd668 2.240 . S
O669 C674 1.279 . S
O670 Cd667 2.297 . S
O670 C672 1.247 . S
O671 Cd667 2.439 . S
O671 C672 1.208 . S
C672 O670 1.247 . S
C672 O671 1.208 . S
C673 O678 1.247 . S
C673 O679 1.208 . S
C674 O666 1.315 . S
C674 O669 1.279 . S
C675 O676 1.315 . S
C675 O677 1.279 . S
O676 Cd668 2.223 . S
O676 C675 1.315 . S
O677 Cd667 2.240 . S
O677 C675 1.279 . S
O678 Cd668 2.297 . S
O678 C673 1.247 . S
O679 Cd668 2.439 . S
O679 C673 1.208 . S
O680 Cd681 2.223 . S
O680 C688 1.315 . S
Cd681 O680 2.223 . S
Cd681 O684 2.297 . S
Cd681 O685 2.439 . S
Cd681 O691 2.240 . S
Cd682 O683 2.240 . S
Cd682 O690 2.223 . S
Cd682 O692 2.297 . S
Cd682 O693 2.439 . S
O683 Cd682 2.240 . S
O683 C688 1.279 . S
O684 Cd681 2.297 . S
O684 C686 1.247 . S
O685 Cd681 2.439 . S
O685 C686 1.208 . S
C686 O684 1.247 . S
C686 O685 1.208 . S
C687 O692 1.247 . S
C687 O693 1.208 . S
C688 O680 1.315 . S
C688 O683 1.279 . S
C689 O690 1.315 . S
C689 O691 1.279 . S
O690 Cd682 2.223 . S
O690 C689 1.315 . S
O691 Cd681 2.240 . S
O691 C689 1.279 . S
O692 Cd682 2.297 . S
O692 C687 1.247 . S
O693 Cd682 2.439 . S
O693 C687 1.208 . S
O694 Cd695 2.223 . S
O694 C702 1.315 . S
Cd695 O694 2.223 . S
Cd695 O698 2.297 . S
Cd695 O699 2.439 . S
Cd695 O705 2.240 . S
Cd696 O697 2.240 . S
Cd696 O704 2.223 . S
Cd696 O706 2.297 . S
Cd696 O707 2.439 . S
O697 Cd696 2.240 . S
O697 C702 1.279 . S
O698 Cd695 2.297 . S
O698 C700 1.247 . S
O699 Cd695 2.439 . S
O699 C700 1.208 . S
C700 O698 1.247 . S
C700 O699 1.208 . S
C701 O706 1.247 . S
C701 O707 1.208 . S
C702 O694 1.315 . S
C702 O697 1.279 . S
C703 O704 1.315 . S
C703 O705 1.279 . S
O704 Cd696 2.223 . S
O704 C703 1.315 . S
O705 Cd695 2.240 . S
O705 C703 1.279 . S
O706 Cd696 2.297 . S
O706 C701 1.247 . S
O707 Cd696 2.439 . S
O707 C701 1.208 . S
O708 Cd709 2.223 . S
O708 C716 1.315 . S
Cd709 O708 2.223 . S
Cd709 O712 2.297 . S
Cd709 O713 2.439 . S
Cd709 O719 2.240 . S
Cd710 O711 2.240 . S
Cd710 O718 2.223 . S
Cd710 O720 2.297 . S
Cd710 O721 2.439 . S
O711 Cd710 2.240 . S
O711 C716 1.279 . S
O712 Cd709 2.297 . S
O712 C714 1.247 . S
O713 Cd709 2.439 . S
O713 C714 1.208 . S
C714 O712 1.247 . S
C714 O713 1.208 . S
C715 O720 1.247 . S
C715 O721 1.208 . S
C716 O708 1.315 . S
C716 O711 1.279 . S
C717 O718 1.315 . S
C717 O719 1.279 . S
O718 Cd710 2.223 . S
O718 C717 1.315 . S
O719 Cd709 2.240 . S
O719 C717 1.279 . S
O720 Cd710 2.297 . S
O720 C715 1.247 . S
O721 Cd710 2.439 . S
O721 C715 1.208 . S
O722 Cd723 2.223 1_545 S
O722 C730 1.315 . S
Cd723 O722 2.223 1_565 S
Cd723 O726 2.297 . S
Cd723 O727 2.439 . S
Cd723 O733 2.240 1_565 S
Cd724 O725 2.240 . S
Cd724 O732 2.223 . S
Cd724 O734 2.297 . S
Cd724 O735 2.439 1_545 S
O725 Cd724 2.240 . S
O725 C730 1.279 . S
O726 Cd723 2.297 . S
O726 C728 1.247 . S
O727 Cd723 2.439 . S
O727 C728 1.208 . S
C728 O726 1.247 . S
C728 O727 1.208 . S
C729 O734 1.247 1_565 S
C729 O735 1.208 . S
C730 O722 1.315 . S
C730 O725 1.279 . S
C731 O732 1.315 . S
C731 O733 1.279 . S
O732 Cd724 2.223 . S
O732 C731 1.315 . S
O733 Cd723 2.240 1_545 S
O733 C731 1.279 . S
O734 Cd724 2.297 . S
O734 C729 1.247 1_545 S
O735 Cd724 2.439 1_565 S
O735 C729 1.208 . S
O736 Cd737 2.223 . S
O736 C744 1.315 . S
Cd737 O736 2.223 . S
Cd737 O740 2.297 1_655 S
Cd737 O741 2.439 1_655 S
Cd737 O747 2.240 . S
Cd738 O739 2.240 . S
Cd738 O746 2.223 1_455 S
Cd738 O748 2.297 . S
Cd738 O749 2.439 . S
O739 Cd738 2.240 . S
O739 C744 1.279 1_455 S
O740 Cd737 2.297 1_455 S
O740 C742 1.247 . S
O741 Cd737 2.439 1_455 S
O741 C742 1.208 . S
C742 O740 1.247 . S
C742 O741 1.208 . S
C743 O748 1.247 . S
C743 O749 1.208 . S
C744 O736 1.315 . S
C744 O739 1.279 1_655 S
C745 O746 1.315 . S
C745 O747 1.279 . S
O746 Cd738 2.223 1_655 S
O746 C745 1.315 . S
O747 Cd737 2.240 . S
O747 C745 1.279 . S
O748 Cd738 2.297 . S
O748 C743 1.247 . S
O749 Cd738 2.439 . S
O749 C743 1.208 . S
O750 Cd751 2.223 . S
O750 C758 1.315 . S
Cd751 O750 2.223 . S
Cd751 O754 2.297 . S
Cd751 O755 2.439 . S
Cd751 O761 2.240 . S
Cd752 O753 2.240 . S
Cd752 O760 2.223 . S
Cd752 O762 2.297 . S
Cd752 O763 2.439 . S
O753 Cd752 2.240 . S
O753 C758 1.279 . S
O754 Cd751 2.297 . S
O754 C756 1.247 . S
O755 Cd751 2.439 . S
O755 C756 1.208 . S
C756 O754 1.247 . S
C756 O755 1.208 . S
C757 O762 1.247 . S
C757 O763 1.208 . S
C758 O750 1.315 . S
C758 O753 1.279 . S
C759 O760 1.315 . S
C759 O761 1.279 . S
O760 Cd752 2.223 . S
O760 C759 1.315 . S
O761 Cd751 2.240 . S
O761 C759 1.279 . S
O762 Cd752 2.297 . S
O762 C757 1.247 . S
O763 Cd752 2.439 . S
O763 C757 1.208 . S
O764 Cd765 2.223 1_655 S
O764 C772 1.315 . S
Cd765 O764 2.223 1_455 S
Cd765 O768 2.297 . S
Cd765 O769 2.439 . S
Cd765 O775 2.240 . S
Cd766 O767 2.240 . S
Cd766 O774 2.223 . S
Cd766 O776 2.297 1_655 S
Cd766 O777 2.439 1_655 S
O767 Cd766 2.240 . S
O767 C772 1.279 . S
O768 Cd765 2.297 . S
O768 C770 1.247 . S
O769 Cd765 2.439 . S
O769 C770 1.208 . S
C770 O768 1.247 . S
C770 O769 1.208 . S
C771 O776 1.247 . S
C771 O777 1.208 . S
C772 O764 1.315 . S
C772 O767 1.279 . S
C773 O774 1.315 . S
C773 O775 1.279 1_655 S
O774 Cd766 2.223 . S
O774 C773 1.315 . S
O775 Cd765 2.240 . S
O775 C773 1.279 1_455 S
O776 Cd766 2.297 1_455 S
O776 C771 1.247 . S
O777 Cd766 2.439 1_455 S
O777 C771 1.208 . S
O778 Cd779 2.223 . S
O778 C786 1.315 . S
Cd779 O778 2.223 . S
Cd779 O782 2.297 . S
Cd779 O783 2.439 . S
Cd779 O789 2.240 . S
Cd780 O781 2.240 . S
Cd780 O788 2.223 . S
Cd780 O790 2.297 . S
Cd780 O791 2.439 . S
O781 Cd780 2.240 . S
O781 C786 1.279 . S
O782 Cd779 2.297 . S
O782 C784 1.247 . S
O783 Cd779 2.439 . S
O783 C784 1.208 . S
C784 O782 1.247 . S
C784 O783 1.208 . S
C785 O790 1.247 . S
C785 O791 1.208 . S
C786 O778 1.315 . S
C786 O781 1.279 . S
C787 O788 1.315 . S
C787 O789 1.279 . S
O788 Cd780 2.223 . S
O788 C787 1.315 . S
O789 Cd779 2.240 . S
O789 C787 1.279 . S
O790 Cd780 2.297 . S
O790 C785 1.247 . S
O791 Cd780 2.439 . S
O791 C785 1.208 . S
H792 C798 0.930 . S
H793 C801 0.930 . S
H794 C802 0.930 . S
H795 C803 0.930 . S
H796 C806 0.930 . S
H797 C807 0.930 . S
C798 H792 0.930 . S
C798 C799 1.355 . S
C798 C800 1.415 . S
C799 C798 1.355 . S
C799 C801 1.419 . S
C800 C798 1.415 . S
C800 C805 1.425 . S
C800 C807 1.409 . S
C801 H793 0.930 . S
C801 C799 1.419 . S
C801 C802 1.362 . S
C802 H794 0.930 . S
C802 C801 1.362 . S
C802 C805 1.409 . S
C803 H795 0.930 . S
C803 C804 1.355 . S
C803 C805 1.415 . S
C804 C803 1.355 . S
C804 C806 1.419 . S
C805 C800 1.425 . S
C805 C802 1.409 . S
C805 C803 1.415 . S
C806 H796 0.930 . S
C806 C804 1.419 . S
C806 C807 1.362 . S
C807 H797 0.930 . S
C807 C800 1.409 . S
C807 C806 1.362 . S
H808 C814 0.930 1_655 S
H809 C817 0.930 . S
H810 C818 0.930 . S
H811 C819 0.930 . S
H812 C822 0.930 . S
H813 C823 0.930 . S
C814 H808 0.930 1_455 S
C814 C815 1.355 1_455 S
C814 C816 1.415 . S
C815 C814 1.355 1_655 S
C815 C817 1.419 1_655 S
C816 C814 1.415 . S
C816 C821 1.425 . S
C816 C823 1.409 . S
C817 H809 0.930 . S
C817 C815 1.419 1_455 S
C817 C818 1.362 . S
C818 H810 0.930 . S
C818 C817 1.362 . S
C818 C821 1.409 . S
C819 H811 0.930 . S
C819 C820 1.355 . S
C819 C821 1.415 . S
C820 C819 1.355 . S
C820 C822 1.419 . S
C821 C816 1.425 . S
C821 C818 1.409 . S
C821 C819 1.415 . S
C822 H812 0.930 . S
C822 C820 1.419 . S
C822 C823 1.362 . S
C823 H813 0.930 . S
C823 C816 1.409 . S
C823 C822 1.362 . S
H824 C830 0.930 . S
H825 C833 0.930 . S
H826 C834 0.930 . S
H827 C835 0.930 . S
H828 C838 0.930 . S
H829 C839 0.930 . S
C830 H824 0.930 . S
C830 C831 1.355 . S
C830 C832 1.415 . S
C831 C830 1.355 . S
C831 C833 1.419 . S
C832 C830 1.415 . S
C832 C837 1.425 . S
C832 C839 1.409 . S
C833 H825 0.930 . S
C833 C831 1.419 . S
C833 C834 1.362 . S
C834 H826 0.930 . S
C834 C833 1.362 . S
C834 C837 1.409 . S
C835 H827 0.930 . S
C835 C836 1.355 . S
C835 C837 1.415 . S
C836 C835 1.355 . S
C836 C838 1.419 . S
C837 C832 1.425 . S
C837 C834 1.409 . S
C837 C835 1.415 . S
C838 H828 0.930 . S
C838 C836 1.419 . S
C838 C839 1.362 . S
C839 H829 0.930 . S
C839 C832 1.409 . S
C839 C838 1.362 . S
H840 C846 0.930 . S
H841 C849 0.930 1_545 S
H842 C850 0.930 . S
H843 C851 0.930 . S
H844 C854 0.927 1_565 S
H845 C855 0.930 . S
C846 H840 0.930 . S
C846 C847 1.370 . S
C846 C848 1.415 . S
C847 C846 1.370 . S
C847 C849 1.415 1_655 S
C848 C846 1.415 . S
C848 C853 1.425 1_565 S
C848 C855 1.409 . S
C849 H841 0.930 1_565 S
C849 C847 1.415 1_455 S
C849 C850 1.362 1_465 S
C850 H842 0.930 . S
C850 C849 1.362 1_645 S
C850 C853 1.409 . S
C851 H843 0.930 . S
C851 C852 1.355 . S
C851 C853 1.415 . S
C852 C851 1.355 . S
C852 C854 1.456 . S
C853 C848 1.425 1_545 S
C853 C850 1.409 . S
C853 C851 1.415 . S
C854 H844 0.927 1_545 S
C854 C852 1.456 . S
C854 C855 1.331 1_545 S
C855 H845 0.930 . S
C855 C848 1.409 . S
C855 C854 1.331 1_565 S
H856 C862 0.930 . S
H857 C865 0.930 . S
H858 C866 0.930 . S
H859 C867 0.930 . S
H860 C870 0.930 . S
H861 C871 0.930 . S
C862 H856 0.930 . S
C862 C863 1.355 . S
C862 C864 1.415 . S
C863 C862 1.355 . S
C863 C865 1.419 . S
C864 C862 1.415 . S
C864 C869 1.425 . S
C864 C871 1.409 . S
C865 H857 0.930 . S
C865 C863 1.419 . S
C865 C866 1.362 . S
C866 H858 0.930 . S
C866 C865 1.362 . S
C866 C869 1.409 . S
C867 H859 0.930 . S
C867 C868 1.355 . S
C867 C869 1.415 . S
C868 C867 1.355 . S
C868 C870 1.419 . S
C869 C864 1.425 . S
C869 C866 1.409 . S
C869 C867 1.415 . S
C870 H860 0.930 . S
C870 C868 1.419 . S
C870 C871 1.362 . S
C871 H861 0.930 . S
C871 C864 1.409 . S
C871 C870 1.362 . S
H872 C878 0.930 . S
H873 C881 0.930 . S
H874 C882 0.930 . S
H875 C883 0.930 . S
H876 C886 0.930 . S
H877 C887 0.930 . S
C878 H872 0.930 . S
C878 C879 1.355 . S
C878 C880 1.415 . S
C879 C878 1.355 . S
C879 C881 1.419 . S
C880 C878 1.415 . S
C880 C885 1.425 . S
C880 C887 1.409 . S
C881 H873 0.930 . S
C881 C879 1.419 . S
C881 C882 1.362 . S
C882 H874 0.930 . S
C882 C881 1.362 . S
C882 C885 1.409 . S
C883 H875 0.930 . S
C883 C884 1.355 . S
C883 C885 1.415 . S
C884 C883 1.355 . S
C884 C886 1.419 . S
C885 C880 1.425 . S
C885 C882 1.409 . S
C885 C883 1.415 . S
C886 H876 0.930 . S
C886 C884 1.419 . S
C886 C887 1.362 . S
C887 H877 0.930 . S
C887 C880 1.409 . S
C887 C886 1.362 . S
H888 C894 0.930 . S
H889 C897 0.930 . S
H890 C898 0.930 . S
H891 C899 0.930 . S
H892 C902 0.930 . S
H893 C903 0.930 . S
C894 H888 0.930 . S
C894 C895 1.355 . S
C894 C896 1.415 . S
C895 C894 1.355 . S
C895 C897 1.419 . S
C896 C894 1.415 . S
C896 C901 1.425 . S
C896 C903 1.409 . S
C897 H889 0.930 . S
C897 C895 1.419 . S
C897 C898 1.362 . S
C898 H890 0.930 . S
C898 C897 1.362 . S
C898 C901 1.409 . S
C899 H891 0.930 . S
C899 C900 1.355 . S
C899 C901 1.415 . S
C900 C899 1.355 . S
C900 C902 1.419 . S
C901 C896 1.425 . S
C901 C898 1.409 . S
C901 C899 1.415 . S
C902 H892 0.930 . S
C902 C900 1.419 . S
C902 C903 1.362 . S
C903 H893 0.930 . S
C903 C896 1.409 . S
C903 C902 1.362 . S
H904 C910 0.930 . S
H905 C913 0.930 . S
H906 C914 0.930 . S
H907 C915 0.930 . S
H908 C918 0.930 1_545 S
H909 C919 0.930 1_545 S
C910 H904 0.930 . S
C910 C911 1.355 . S
C910 C912 1.415 . S
C911 C910 1.355 . S
C911 C913 1.419 . S
C912 C910 1.415 . S
C912 C917 1.425 . S
C912 C919 1.409 . S
C913 H905 0.930 . S
C913 C911 1.419 . S
C913 C914 1.362 . S
C914 H906 0.930 . S
C914 C913 1.362 . S
C914 C917 1.409 . S
C915 H907 0.930 . S
C915 C916 1.355 . S
C915 C917 1.415 . S
C916 C915 1.355 . S
C916 C918 1.419 . S
C917 C912 1.425 . S
C917 C914 1.409 . S
C917 C915 1.415 . S
C918 H908 0.930 1_565 S
C918 C916 1.419 . S
C918 C919 1.362 . S
C919 H909 0.930 1_565 S
C919 C912 1.409 . S
C919 C918 1.362 . S
H920 C926 0.930 . S
H921 C929 0.930 . S
H922 C930 0.930 . S
H923 C931 0.930 . S
H924 C934 0.930 . S
H925 C935 0.930 . S
C926 H920 0.930 . S
C926 C927 1.355 . S
C926 C928 1.415 . S
C927 C926 1.355 . S
C927 C929 1.419 . S
C928 C926 1.415 . S
C928 C933 1.425 . S
C928 C935 1.409 . S
C929 H921 0.930 . S
C929 C927 1.419 . S
C929 C930 1.362 . S
C930 H922 0.930 . S
C930 C929 1.362 . S
C930 C933 1.409 . S
C931 H923 0.930 . S
C931 C932 1.355 . S
C931 C933 1.415 . S
C932 C931 1.355 . S
C932 C934 1.419 . S
C933 C928 1.425 . S
C933 C930 1.409 . S
C933 C931 1.415 . S
C934 H924 0.930 . S
C934 C932 1.419 . S
C934 C935 1.362 . S
C935 H925 0.930 . S
C935 C928 1.409 . S
C935 C934 1.362 . S
H936 C942 0.930 . S
H937 C945 0.930 . S
H938 C946 0.930 . S
H939 C947 0.930 . S
H940 C950 0.930 . S
H941 C951 0.930 . S
C942 H936 0.930 . S
C942 C943 1.355 . S
C942 C944 1.415 . S
C943 C942 1.355 . S
C943 C945 1.419 . S
C944 C942 1.415 . S
C944 C949 1.425 . S
C944 C951 1.409 . S
C945 H937 0.930 . S
C945 C943 1.419 . S
C945 C946 1.362 . S
C946 H938 0.930 . S
C946 C945 1.362 . S
C946 C949 1.409 . S
C947 H939 0.930 . S
C947 C948 1.355 . S
C947 C949 1.415 . S
C948 C947 1.355 . S
C948 C950 1.419 . S
C949 C944 1.425 . S
C949 C946 1.409 . S
C949 C947 1.415 . S
C950 H940 0.930 . S
C950 C948 1.419 . S
C950 C951 1.362 . S
C951 H941 0.930 . S
C951 C944 1.409 . S
C951 C950 1.362 . S
H952 C958 0.930 . S
H953 C961 0.930 . S
H954 C962 0.930 . S
H955 C963 0.930 . S
H956 C966 0.930 . S
H957 C967 0.930 . S
C958 H952 0.930 . S
C958 C959 1.355 . S
C958 C960 1.415 . S
C959 C958 1.355 . S
C959 C961 1.419 . S
C960 C958 1.415 . S
C960 C965 1.425 . S
C960 C967 1.409 . S
C961 H953 0.930 . S
C961 C959 1.419 . S
C961 C962 1.362 . S
C962 H954 0.930 . S
C962 C961 1.362 . S
C962 C965 1.409 . S
C963 H955 0.930 . S
C963 C964 1.355 . S
C963 C965 1.415 . S
C964 C963 1.355 . S
C964 C966 1.419 . S
C965 C960 1.425 . S
C965 C962 1.409 . S
C965 C963 1.415 . S
C966 H956 0.930 . S
C966 C964 1.419 . S
C966 C967 1.362 . S
C967 H957 0.930 . S
C967 C960 1.409 . S
C967 C966 1.362 . S
H968 C974 0.930 . S
H969 C977 0.930 . S
H970 C978 0.930 . S
H971 C979 0.930 . S
H972 C982 0.930 . S
H973 C983 0.930 . S
C974 H968 0.930 . S
C974 C975 1.355 . S
C974 C976 1.415 . S
C975 C974 1.355 . S
C975 C977 1.419 . S
C976 C974 1.415 . S
C976 C981 1.425 . S
C976 C983 1.409 . S
C977 H969 0.930 . S
C977 C975 1.419 . S
C977 C978 1.362 . S
C978 H970 0.930 . S
C978 C977 1.362 . S
C978 C981 1.409 . S
C979 H971 0.930 . S
C979 C980 1.355 . S
C979 C981 1.415 . S
C980 C979 1.355 . S
C980 C982 1.419 . S
C981 C976 1.425 . S
C981 C978 1.409 . S
C981 C979 1.415 . S
C982 H972 0.930 . S
C982 C980 1.419 . S
C982 C983 1.362 . S
C983 H973 0.930 . S
C983 C976 1.409 . S
C983 C982 1.362 . S
H984 C990 0.930 . S
H985 C993 0.930 . S
H986 C994 0.930 . S
H987 C995 0.930 . S
H988 C998 0.930 . S
H989 C999 0.930 . S
C990 H984 0.930 . S
C990 C991 1.355 . S
C990 C992 1.415 . S
C991 C990 1.355 . S
C991 C993 1.419 . S
C992 C990 1.415 . S
C992 C997 1.425 . S
C992 C999 1.409 . S
C993 H985 0.930 . S
C993 C991 1.419 . S
C993 C994 1.362 . S
C994 H986 0.930 . S
C994 C993 1.362 . S
C994 C997 1.409 . S
C995 H987 0.930 . S
C995 C996 1.355 . S
C995 C997 1.415 . S
C996 C995 1.355 . S
C996 C998 1.419 . S
C997 C992 1.425 . S
C997 C994 1.409 . S
C997 C995 1.415 . S
C998 H988 0.930 . S
C998 C996 1.419 . S
C998 C999 1.362 . S
C999 H989 0.930 . S
C999 C992 1.409 . S
C999 C998 1.362 . S
H1000 C1006 0.930 . S
H1001 C1009 0.930 . S
H1002 C1010 0.930 . S
H1003 C1011 0.930 . S
H1004 C1014 0.930 1_655 S
H1005 C1015 0.889 1_655 S
C1006 H1000 0.930 . S
C1006 C1007 1.355 . S
C1006 C1008 1.415 . S
C1007 C1006 1.355 . S
C1007 C1009 1.419 . S
C1008 C1006 1.415 . S
C1008 C1013 1.425 . S
C1008 C1015 1.409 . S
C1009 H1001 0.930 . S
C1009 C1007 1.419 . S
C1009 C1010 1.362 . S
C1010 H1002 0.930 . S
C1010 C1009 1.362 . S
C1010 C1013 1.409 . S
C1011 H1003 0.930 . S
C1011 C1012 1.355 . S
C1011 C1013 1.415 . S
C1012 C1011 1.355 . S
C1012 C1014 1.419 . S
C1013 C1008 1.425 . S
C1013 C1010 1.409 . S
C1013 C1011 1.415 . S
C1014 H1004 0.930 1_455 S
C1014 C1012 1.419 . S
C1014 C1015 1.362 . S
C1015 H1005 0.889 1_455 S
C1015 C1008 1.409 . S
C1015 C1014 1.362 . S
H1016 C1022 0.930 . S
H1017 C1025 0.930 . S
H1018 C1026 0.930 . S
H1019 C1027 0.930 . S
H1020 C1030 0.930 . S
H1021 C1031 0.930 . S
C1022 H1016 0.930 . S
C1022 C1023 1.355 . S
C1022 C1024 1.415 . S
C1023 C1022 1.355 . S
C1023 C1025 1.419 . S
C1024 C1022 1.415 . S
C1024 C1029 1.425 . S
C1024 C1031 1.409 . S
C1025 H1017 0.930 . S
C1025 C1023 1.419 . S
C1025 C1026 1.362 . S
C1026 H1018 0.930 . S
C1026 C1025 1.362 . S
C1026 C1029 1.409 . S
C1027 H1019 0.930 . S
C1027 C1028 1.355 . S
C1027 C1029 1.415 . S
C1028 C1027 1.355 . S
C1028 C1030 1.419 . S
C1029 C1024 1.425 . S
C1029 C1026 1.409 . S
C1029 C1027 1.415 . S
C1030 H1020 0.930 . S
C1030 C1028 1.419 . S
C1030 C1031 1.362 . S
C1031 H1021 0.930 . S
C1031 C1024 1.409 . S
C1031 C1030 1.362 . S
H1032 C1038 0.930 . S
H1033 C1041 0.930 . S
H1034 C1042 0.930 . S
H1035 C1043 0.930 . S
H1036 C1046 0.930 . S
H1037 C1047 0.930 . S
C1038 H1032 0.930 . S
C1038 C1039 1.355 . S
C1038 C1040 1.415 . S
C1039 C1038 1.355 . S
C1039 C1041 1.419 . S
C1040 C1038 1.415 . S
C1040 C1045 1.425 . S
C1040 C1047 1.409 . S
C1041 H1033 0.930 . S
C1041 C1039 1.419 . S
C1041 C1042 1.362 . S
C1042 H1034 0.930 . S
C1042 C1041 1.362 . S
C1042 C1045 1.409 . S
C1043 H1035 0.930 . S
C1043 C1044 1.355 . S
C1043 C1045 1.415 . S
C1044 C1043 1.355 . S
C1044 C1046 1.419 . S
C1045 C1040 1.425 . S
C1045 C1042 1.409 . S
C1045 C1043 1.415 . S
C1046 H1036 0.930 . S
C1046 C1044 1.419 . S
C1046 C1047 1.362 . S
C1047 H1037 0.930 . S
C1047 C1040 1.409 . S
C1047 C1046 1.362 . S
H1048 C1054 0.930 . S
H1049 C1057 0.930 . S
H1050 C1058 0.930 . S
H1051 C1059 0.930 1_545 S
H1052 C1062 0.930 . S
H1053 C1063 0.930 . S
C1054 H1048 0.930 . S
C1054 C1055 1.355 . S
C1054 C1056 1.415 . S
C1055 C1054 1.355 . S
C1055 C1057 1.419 . S
C1056 C1054 1.415 . S
C1056 C1061 1.425 . S
C1056 C1063 1.409 . S
C1057 H1049 0.930 . S
C1057 C1055 1.419 . S
C1057 C1058 1.362 . S
C1058 H1050 0.930 . S
C1058 C1057 1.362 . S
C1058 C1061 1.409 . S
C1059 H1051 0.930 1_565 S
C1059 C1060 1.355 . S
C1059 C1061 1.415 . S
C1060 C1059 1.355 . S
C1060 C1062 1.419 . S
C1061 C1056 1.425 . S
C1061 C1058 1.409 . S
C1061 C1059 1.415 . S
C1062 H1052 0.930 . S
C1062 C1060 1.419 . S
C1062 C1063 1.362 . S
C1063 H1053 0.930 . S
C1063 C1056 1.409 . S
C1063 C1062 1.362 . S
H1064 C1070 0.930 . S
H1065 C1073 0.930 . S
H1066 C1074 0.930 . S
H1067 C1075 0.930 . S
H1068 C1078 0.930 . S
H1069 C1079 0.930 . S
C1070 H1064 0.930 . S
C1070 C1071 1.355 . S
C1070 C1072 1.415 . S
C1071 C1070 1.355 . S
C1071 C1073 1.419 . S
C1072 C1070 1.415 . S
C1072 C1077 1.425 . S
C1072 C1079 1.409 . S
C1073 H1065 0.930 . S
C1073 C1071 1.419 . S
C1073 C1074 1.362 . S
C1074 H1066 0.930 . S
C1074 C1073 1.362 . S
C1074 C1077 1.409 . S
C1075 H1067 0.930 . S
C1075 C1076 1.355 . S
C1075 C1077 1.415 . S
C1076 C1075 1.355 . S
C1076 C1078 1.419 . S
C1077 C1072 1.425 . S
C1077 C1074 1.409 . S
C1077 C1075 1.415 . S
C1078 H1068 0.930 . S
C1078 C1076 1.419 . S
C1078 C1079 1.362 . S
C1079 H1069 0.930 . S
C1079 C1072 1.409 . S
C1079 C1078 1.362 . S
H1080 C1086 0.930 . S
H1081 C1089 0.930 . S
H1082 C1090 0.946 . S
H1083 C1091 0.930 . S
H1084 C1094 0.930 . S
H1085 C1095 0.930 . S
C1086 H1080 0.930 . S
C1086 C1087 1.355 . S
C1086 C1088 1.415 1_545 S
C1087 C1086 1.355 . S
C1087 C1089 1.419 . S
C1088 C1086 1.415 1_565 S
C1088 C1093 1.403 1_556 S
C1088 C1095 1.409 . S
C1089 H1081 0.930 . S
C1089 C1087 1.419 . S
C1089 C1090 1.329 1_546 S
C1090 H1082 0.946 . S
C1090 C1089 1.329 1_564 S
C1090 C1093 1.434 . S
C1091 H1083 0.930 . S
C1091 C1092 1.355 . S
C1091 C1093 1.432 . S
C1092 C1091 1.355 . S
C1092 C1094 1.419 1_554 S
C1093 C1088 1.403 1_554 S
C1093 C1090 1.434 . S
C1093 C1091 1.432 . S
C1094 H1084 0.930 . S
C1094 C1092 1.419 1_556 S
C1094 C1095 1.362 . S
C1095 H1085 0.930 . S
C1095 C1088 1.409 . S
C1095 C1094 1.362 . S
H1096 C1102 0.930 . S
H1097 C1105 0.930 . S
H1098 C1106 0.930 . S
H1099 C1107 0.930 . S
H1100 C1110 0.930 . S
H1101 C1111 0.930 . S
C1102 H1096 0.930 . S
C1102 C1103 1.355 . S
C1102 C1104 1.415 . S
C1103 C1102 1.355 . S
C1103 C1105 1.419 . S
C1104 C1102 1.415 . S
C1104 C1109 1.425 . S
C1104 C1111 1.409 . S
C1105 H1097 0.930 . S
C1105 C1103 1.419 . S
C1105 C1106 1.362 . S
C1106 H1098 0.930 . S
C1106 C1105 1.362 . S
C1106 C1109 1.409 . S
C1107 H1099 0.930 . S
C1107 C1108 1.355 . S
C1107 C1109 1.415 . S
C1108 C1107 1.355 . S
C1108 C1110 1.419 . S
C1109 C1104 1.425 . S
C1109 C1106 1.409 . S
C1109 C1107 1.415 . S
C1110 H1100 0.930 . S
C1110 C1108 1.419 . S
C1110 C1111 1.362 . S
C1111 H1101 0.930 . S
C1111 C1104 1.409 . S
C1111 C1110 1.362 . S
H1112 C1118 0.930 . S
H1113 C1121 0.930 . S
H1114 C1122 0.930 . S
H1115 C1123 0.930 . S
H1116 C1126 0.930 . S
H1117 C1127 0.930 . S
C1118 H1112 0.930 . S
C1118 C1119 1.355 . S
C1118 C1120 1.415 . S
C1119 C1118 1.355 . S
C1119 C1121 1.419 . S
C1120 C1118 1.415 . S
C1120 C1125 1.425 . S
C1120 C1127 1.409 . S
C1121 H1113 0.930 . S
C1121 C1119 1.419 . S
C1121 C1122 1.362 . S
C1122 H1114 0.930 . S
C1122 C1121 1.362 . S
C1122 C1125 1.409 . S
C1123 H1115 0.930 . S
C1123 C1124 1.355 . S
C1123 C1125 1.415 . S
C1124 C1123 1.355 . S
C1124 C1126 1.419 . S
C1125 C1120 1.425 . S
C1125 C1122 1.409 . S
C1125 C1123 1.415 . S
C1126 H1116 0.930 . S
C1126 C1124 1.419 . S
C1126 C1127 1.362 . S
C1127 H1117 0.930 . S
C1127 C1120 1.409 . S
C1127 C1126 1.362 . S
H1128 C1134 0.930 . S
H1129 C1137 0.930 . S
H1130 C1138 0.930 . S
H1131 C1139 0.930 . S
H1132 C1142 0.930 . S
H1133 C1143 0.930 . S
C1134 H1128 0.930 . S
C1134 C1135 1.355 . S
C1134 C1136 1.415 . S
C1135 C1134 1.355 . S
C1135 C1137 1.419 . S
C1136 C1134 1.415 . S
C1136 C1141 1.425 . S
C1136 C1143 1.409 . S
C1137 H1129 0.930 . S
C1137 C1135 1.419 . S
C1137 C1138 1.362 . S
C1138 H1130 0.930 . S
C1138 C1137 1.362 . S
C1138 C1141 1.409 . S
C1139 H1131 0.930 . S
C1139 C1140 1.355 . S
C1139 C1141 1.415 . S
C1140 C1139 1.355 . S
C1140 C1142 1.419 . S
C1141 C1136 1.425 . S
C1141 C1138 1.409 . S
C1141 C1139 1.415 . S
C1142 H1132 0.930 . S
C1142 C1140 1.419 . S
C1142 C1143 1.362 . S
C1143 H1133 0.930 . S
C1143 C1136 1.409 . S
C1143 C1142 1.362 . S
H1144 C1150 0.930 . S
H1145 C1153 0.897 1_565 S
H1146 C1154 0.930 . S
H1147 C1155 0.930 . S
H1148 C1158 0.930 . S
H1149 C1159 0.930 . S
C1150 H1144 0.930 . S
C1150 C1151 1.355 . S
C1150 C1152 1.415 . S
C1151 C1150 1.355 . S
C1151 C1153 1.421 . S
C1152 C1150 1.415 . S
C1152 C1157 1.425 . S
C1152 C1159 1.409 . S
C1153 H1145 0.897 1_545 S
C1153 C1151 1.421 . S
C1153 C1154 1.394 . S
C1154 H1146 0.930 . S
C1154 C1153 1.394 . S
C1154 C1157 1.409 . S
C1155 H1147 0.930 . S
C1155 C1156 1.355 . S
C1155 C1157 1.415 . S
C1156 C1155 1.355 . S
C1156 C1158 1.419 . S
C1157 C1152 1.425 . S
C1157 C1154 1.409 . S
C1157 C1155 1.415 . S
C1158 H1148 0.930 . S
C1158 C1156 1.419 . S
C1158 C1159 1.362 . S
C1159 H1149 0.930 . S
C1159 C1152 1.409 . S
C1159 C1158 1.362 . S
H1160 C1166 0.930 . S
H1161 C1169 0.930 . S
H1162 C1170 0.930 . S
H1163 C1171 0.930 . S
H1164 C1174 0.930 . S
H1165 C1175 0.930 . S
C1166 H1160 0.930 . S
C1166 C1167 1.355 . S
C1166 C1168 1.415 . S
C1167 C1166 1.355 . S
C1167 C1169 1.419 . S
C1168 C1166 1.415 . S
C1168 C1173 1.425 . S
C1168 C1175 1.409 . S
C1169 H1161 0.930 . S
C1169 C1167 1.419 . S
C1169 C1170 1.362 . S
C1170 H1162 0.930 . S
C1170 C1169 1.362 . S
C1170 C1173 1.409 . S
C1171 H1163 0.930 . S
C1171 C1172 1.355 . S
C1171 C1173 1.415 . S
C1172 C1171 1.355 . S
C1172 C1174 1.419 . S
C1173 C1168 1.425 . S
C1173 C1170 1.409 . S
C1173 C1171 1.415 . S
C1174 H1164 0.930 . S
C1174 C1172 1.419 . S
C1174 C1175 1.362 . S
C1175 H1165 0.930 . S
C1175 C1168 1.409 . S
C1175 C1174 1.362 . S
H1176 C1182 0.930 . S
H1177 C1185 0.930 . S
H1178 C1186 0.930 . S
H1179 C1187 0.930 . S
H1180 C1190 0.930 . S
H1181 C1191 0.930 . S
C1182 H1176 0.930 . S
C1182 C1183 1.355 . S
C1182 C1184 1.415 . S
C1183 C1182 1.355 . S
C1183 C1185 1.419 . S
C1184 C1182 1.415 . S
C1184 C1189 1.425 . S
C1184 C1191 1.409 . S
C1185 H1177 0.930 . S
C1185 C1183 1.419 . S
C1185 C1186 1.362 . S
C1186 H1178 0.930 . S
C1186 C1185 1.362 . S
C1186 C1189 1.409 . S
C1187 H1179 0.930 . S
C1187 C1188 1.355 . S
C1187 C1189 1.415 . S
C1188 C1187 1.355 . S
C1188 C1190 1.419 . S
C1189 C1184 1.425 . S
C1189 C1186 1.409 . S
C1189 C1187 1.415 . S
C1190 H1180 0.930 . S
C1190 C1188 1.419 . S
C1190 C1191 1.362 . S
C1191 H1181 0.930 . S
C1191 C1184 1.409 . S
C1191 C1190 1.362 . S
H1192 C1198 0.930 . S
H1193 C1201 0.930 . S
H1194 C1202 0.930 . S
H1195 C1203 0.930 . S
H1196 C1206 0.930 . S
H1197 C1207 0.930 . S
C1198 H1192 0.930 . S
C1198 C1199 1.355 . S
C1198 C1200 1.415 . S
C1199 C1198 1.355 . S
C1199 C1201 1.419 . S
C1200 C1198 1.415 . S
C1200 C1205 1.425 . S
C1200 C1207 1.409 . S
C1201 H1193 0.930 . S
C1201 C1199 1.419 . S
C1201 C1202 1.362 . S
C1202 H1194 0.930 . S
C1202 C1201 1.362 . S
C1202 C1205 1.409 . S
C1203 H1195 0.930 . S
C1203 C1204 1.355 . S
C1203 C1205 1.415 . S
C1204 C1203 1.355 . S
C1204 C1206 1.419 . S
C1205 C1200 1.425 . S
C1205 C1202 1.409 . S
C1205 C1203 1.415 . S
C1206 H1196 0.930 . S
C1206 C1204 1.419 . S
C1206 C1207 1.362 . S
C1207 H1197 0.930 . S
C1207 C1200 1.409 . S
C1207 C1206 1.362 . S
H1208 C1214 0.930 . S
H1209 C1217 0.930 . S
H1210 C1218 0.930 . S
H1211 C1219 0.930 . S
H1212 C1222 0.930 . S
H1213 C1223 0.930 . S
C1214 H1208 0.930 . S
C1214 C1215 1.355 . S
C1214 C1216 1.415 . S
C1215 C1214 1.355 . S
C1215 C1217 1.419 . S
C1216 C1214 1.415 . S
C1216 C1221 1.425 . S
C1216 C1223 1.409 . S
C1217 H1209 0.930 . S
C1217 C1215 1.419 . S
C1217 C1218 1.362 . S
C1218 H1210 0.930 . S
C1218 C1217 1.362 . S
C1218 C1221 1.409 . S
C1219 H1211 0.930 . S
C1219 C1220 1.355 . S
C1219 C1221 1.415 . S
C1220 C1219 1.355 . S
C1220 C1222 1.419 . S
C1221 C1216 1.425 . S
C1221 C1218 1.409 . S
C1221 C1219 1.415 . S
C1222 H1212 0.930 . S
C1222 C1220 1.419 . S
C1222 C1223 1.362 . S
C1223 H1213 0.930 . S
C1223 C1216 1.409 . S
C1223 C1222 1.362 . S
H1224 C1230 0.930 . S
H1225 C1233 0.930 . S
H1226 C1234 0.930 . S
H1227 C1235 0.930 . S
H1228 C1238 0.930 . S
H1229 C1239 0.930 . S
C1230 H1224 0.930 . S
C1230 C1231 1.355 . S
C1230 C1232 1.415 . S
C1231 C1230 1.355 . S
C1231 C1233 1.419 . S
C1232 C1230 1.415 . S
C1232 C1237 1.425 . S
C1232 C1239 1.409 . S
C1233 H1225 0.930 . S
C1233 C1231 1.419 . S
C1233 C1234 1.362 . S
C1234 H1226 0.930 . S
C1234 C1233 1.362 . S
C1234 C1237 1.409 . S
C1235 H1227 0.930 . S
C1235 C1236 1.355 . S
C1235 C1237 1.415 . S
C1236 C1235 1.355 . S
C1236 C1238 1.419 . S
C1237 C1232 1.425 . S
C1237 C1234 1.409 . S
C1237 C1235 1.415 . S
C1238 H1228 0.930 . S
C1238 C1236 1.419 . S
C1238 C1239 1.362 . S
C1239 H1229 0.930 . S
C1239 C1232 1.409 . S
C1239 C1238 1.362 . S
H1240 C1246 0.930 . S
H1241 C1249 0.930 . S
H1242 C1250 0.930 . S
H1243 C1251 0.930 . S
H1244 C1254 0.930 . S
H1245 C1255 0.930 . S
C1246 H1240 0.930 . S
C1246 C1247 1.355 . S
C1246 C1248 1.415 . S
C1247 C1246 1.355 . S
C1247 C1249 1.419 . S
C1248 C1246 1.415 . S
C1248 C1253 1.425 . S
C1248 C1255 1.409 . S
C1249 H1241 0.930 . S
C1249 C1247 1.419 . S
C1249 C1250 1.362 . S
C1250 H1242 0.930 . S
C1250 C1249 1.362 . S
C1250 C1253 1.409 . S
C1251 H1243 0.930 . S
C1251 C1252 1.355 . S
C1251 C1253 1.415 . S
C1252 C1251 1.355 . S
C1252 C1254 1.419 . S
C1253 C1248 1.425 . S
C1253 C1250 1.409 . S
C1253 C1251 1.415 . S
C1254 H1244 0.930 . S
C1254 C1252 1.419 . S
C1254 C1255 1.362 . S
C1255 H1245 0.930 . S
C1255 C1248 1.409 . S
C1255 C1254 1.362 . S
H1256 C1262 0.930 . S
H1257 C1265 0.930 . S
H1258 C1266 0.930 . S
H1259 C1267 0.930 . S
H1260 C1270 0.930 . S
H1261 C1271 0.930 1_455 S
C1262 H1256 0.930 . S
C1262 C1263 1.355 . S
C1262 C1264 1.415 1_455 S
C1263 C1262 1.355 . S
C1263 C1265 1.419 . S
C1264 C1262 1.415 1_655 S
C1264 C1269 1.425 . S
C1264 C1271 1.409 . S
C1265 H1257 0.930 . S
C1265 C1263 1.419 . S
C1265 C1266 1.362 1_455 S
C1266 H1258 0.930 . S
C1266 C1265 1.362 1_655 S
C1266 C1269 1.409 . S
C1267 H1259 0.930 . S
C1267 C1268 1.355 . S
C1267 C1269 1.415 . S
C1268 C1267 1.355 . S
C1268 C1270 1.419 . S
C1269 C1264 1.425 . S
C1269 C1266 1.409 . S
C1269 C1267 1.415 . S
C1270 H1260 0.930 . S
C1270 C1268 1.419 . S
C1270 C1271 1.362 . S
C1271 H1261 0.930 1_655 S
C1271 C1264 1.409 . S
C1271 C1270 1.362 . S
H1272 C1278 0.930 . S
H1273 C1281 0.930 . S
H1274 C1282 0.930 . S
H1275 C1283 0.930 . S
H1276 C1286 0.930 . S
H1277 C1287 0.930 . S
C1278 H1272 0.930 . S
C1278 C1279 1.355 . S
C1278 C1280 1.415 . S
C1279 C1278 1.355 . S
C1279 C1281 1.419 . S
C1280 C1278 1.415 . S
C1280 C1285 1.425 . S
C1280 C1287 1.409 . S
C1281 H1273 0.930 . S
C1281 C1279 1.419 . S
C1281 C1282 1.362 . S
C1282 H1274 0.930 . S
C1282 C1281 1.362 . S
C1282 C1285 1.409 . S
C1283 H1275 0.930 . S
C1283 C1284 1.355 . S
C1283 C1285 1.415 . S
C1284 C1283 1.355 . S
C1284 C1286 1.419 . S
C1285 C1280 1.425 . S
C1285 C1282 1.409 . S
C1285 C1283 1.415 . S
C1286 H1276 0.930 . S
C1286 C1284 1.419 . S
C1286 C1287 1.362 . S
C1287 H1277 0.930 . S
C1287 C1280 1.409 . S
C1287 C1286 1.362 . S
H1288 C1294 0.930 . S
H1289 C1297 0.930 . S
H1290 C1298 0.930 . S
H1291 C1299 0.930 . S
H1292 C1302 0.930 . S
H1293 C1303 0.930 . S
C1294 H1288 0.930 . S
C1294 C1295 1.355 . S
C1294 C1296 1.415 1_655 S
C1295 C1294 1.355 . S
C1295 C1297 1.419 . S
C1296 C1294 1.415 1_455 S
C1296 C1301 1.425 . S
C1296 C1303 1.409 . S
C1297 H1289 0.930 . S
C1297 C1295 1.419 . S
C1297 C1298 1.362 . S
C1298 H1290 0.930 . S
C1298 C1297 1.362 . S
C1298 C1301 1.409 1_655 S
C1299 H1291 0.930 . S
C1299 C1300 1.355 . S
C1299 C1301 1.415 . S
C1300 C1299 1.355 . S
C1300 C1302 1.419 . S
C1301 C1296 1.425 . S
C1301 C1298 1.409 1_455 S
C1301 C1299 1.415 . S
C1302 H1292 0.930 . S
C1302 C1300 1.419 . S
C1302 C1303 1.362 . S
C1303 H1293 0.930 . S
C1303 C1296 1.409 . S
C1303 C1302 1.362 . S
H1304 C1310 0.930 . S
H1305 C1313 0.930 . S
H1306 C1314 0.930 . S
H1307 C1315 0.930 . S
H1308 C1318 0.930 . S
H1309 C1319 0.930 . S
C1310 H1304 0.930 . S
C1310 C1311 1.355 . S
C1310 C1312 1.415 . S
C1311 C1310 1.355 . S
C1311 C1313 1.419 . S
C1312 C1310 1.415 . S
C1312 C1317 1.425 . S
C1312 C1319 1.409 . S
C1313 H1305 0.930 . S
C1313 C1311 1.419 . S
C1313 C1314 1.362 . S
C1314 H1306 0.930 . S
C1314 C1313 1.362 . S
C1314 C1317 1.409 . S
C1315 H1307 0.930 . S
C1315 C1316 1.355 . S
C1315 C1317 1.415 . S
C1316 C1315 1.355 . S
C1316 C1318 1.419 . S
C1317 C1312 1.425 . S
C1317 C1314 1.409 . S
C1317 C1315 1.415 . S
C1318 H1308 0.930 . S
C1318 C1316 1.419 . S
C1318 C1319 1.362 . S
C1319 H1309 0.930 . S
C1319 C1312 1.409 . S
C1319 C1318 1.362 . S
H1320 C1326 0.930 . S
H1321 C1329 0.930 . S
H1322 C1330 0.930 . S
H1323 C1331 0.930 . S
H1324 C1334 0.930 1_455 S
H1325 C1335 0.930 . S
C1326 H1320 0.930 . S
C1326 C1327 1.355 . S
C1326 C1328 1.415 1_554 S
C1327 C1326 1.355 . S
C1327 C1329 1.419 1_554 S
C1328 C1326 1.415 1_556 S
C1328 C1333 1.425 . S
C1328 C1335 1.409 . S
C1329 H1321 0.930 . S
C1329 C1327 1.419 1_556 S
C1329 C1330 1.362 . S
C1330 H1322 0.930 . S
C1330 C1329 1.362 . S
C1330 C1333 1.409 . S
C1331 H1323 0.930 . S
C1331 C1332 1.355 . S
C1331 C1333 1.415 . S
C1332 C1331 1.355 . S
C1332 C1334 1.419 . S
C1333 C1328 1.425 . S
C1333 C1330 1.409 . S
C1333 C1331 1.415 . S
C1334 H1324 0.930 1_655 S
C1334 C1332 1.419 . S
C1334 C1335 1.362 . S
C1335 H1325 0.930 . S
C1335 C1328 1.409 . S
C1335 C1334 1.362 . S
H1336 C1342 0.930 . S
H1337 C1345 0.930 . S
H1338 C1346 0.930 . S
H1339 C1347 0.930 . S
H1340 C1350 0.930 . S
H1341 C1351 0.930 . S
C1342 H1336 0.930 . S
C1342 C1343 1.355 . S
C1342 C1344 1.415 . S
C1343 C1342 1.355 . S
C1343 C1345 1.419 . S
C1344 C1342 1.415 . S
C1344 C1349 1.425 . S
C1344 C1351 1.409 . S
C1345 H1337 0.930 . S
C1345 C1343 1.419 . S
C1345 C1346 1.362 . S
C1346 H1338 0.930 . S
C1346 C1345 1.362 . S
C1346 C1349 1.409 . S
C1347 H1339 0.930 . S
C1347 C1348 1.355 . S
C1347 C1349 1.415 . S
C1348 C1347 1.355 . S
C1348 C1350 1.419 . S
C1349 C1344 1.425 . S
C1349 C1346 1.409 . S
C1349 C1347 1.415 . S
C1350 H1340 0.930 . S
C1350 C1348 1.419 . S
C1350 C1351 1.362 . S
C1351 H1341 0.930 . S
C1351 C1344 1.409 . S
C1351 C1350 1.362 . S
H1352 C1358 0.930 . S
H1353 C1361 0.930 . S
H1354 C1362 0.930 . S
H1355 C1363 0.930 . S
H1356 C1366 0.930 . S
H1357 C1367 0.930 . S
C1358 H1352 0.930 . S
C1358 C1359 1.355 . S
C1358 C1360 1.415 1_554 S
C1359 C1358 1.355 . S
C1359 C1361 1.419 . S
C1360 C1358 1.415 1_556 S
C1360 C1365 1.425 1_556 S
C1360 C1367 1.409 . S
C1361 H1353 0.930 . S
C1361 C1359 1.419 . S
C1361 C1362 1.362 . S
C1362 H1354 0.930 . S
C1362 C1361 1.362 . S
C1362 C1365 1.409 . S
C1363 H1355 0.930 . S
C1363 C1364 1.355 . S
C1363 C1365 1.415 1_556 S
C1364 C1363 1.355 . S
C1364 C1366 1.419 . S
C1365 C1360 1.425 1_554 S
C1365 C1362 1.409 . S
C1365 C1363 1.415 1_554 S
C1366 H1356 0.930 . S
C1366 C1364 1.419 . S
C1366 C1367 1.362 . S
C1367 H1357 0.930 . S
C1367 C1360 1.409 . S
C1367 C1366 1.362 . S
H1368 C1374 0.930 . S
H1369 C1377 0.930 . S
H1370 C1378 0.930 . S
H1371 C1379 0.930 . S
H1372 C1382 0.930 . S
H1373 C1383 0.930 . S
C1374 H1368 0.930 . S
C1374 C1375 1.355 . S
C1374 C1376 1.415 . S
C1375 C1374 1.355 . S
C1375 C1377 1.419 . S
C1376 C1374 1.415 . S
C1376 C1381 1.425 . S
C1376 C1383 1.409 . S
C1377 H1369 0.930 . S
C1377 C1375 1.419 . S
C1377 C1378 1.362 . S
C1378 H1370 0.930 . S
C1378 C1377 1.362 . S
C1378 C1381 1.409 . S
C1379 H1371 0.930 . S
C1379 C1380 1.355 . S
C1379 C1381 1.415 . S
C1380 C1379 1.355 . S
C1380 C1382 1.419 . S
C1381 C1376 1.425 . S
C1381 C1378 1.409 . S
C1381 C1379 1.415 . S
C1382 H1372 0.930 . S
C1382 C1380 1.419 . S
C1382 C1383 1.362 . S
C1383 H1373 0.930 . S
C1383 C1376 1.409 . S
C1383 C1382 1.362 . S
H1384 C1390 0.935 . S
H1385 C1393 0.930 . S
H1386 C1394 0.930 . S
H1387 C1395 0.930 . S
H1388 C1398 0.930 . S
H1389 C1399 0.930 . S
C1390 H1384 0.935 . S
C1390 C1391 1.355 1_554 S
C1390 C1392 1.415 . S
C1391 C1390 1.355 1_556 S
C1391 C1393 1.419 . S
C1392 C1390 1.415 . S
C1392 C1397 1.425 . S
C1392 C1399 1.409 . S
C1393 H1385 0.930 . S
C1393 C1391 1.419 . S
C1393 C1394 1.362 1_556 S
C1394 H1386 0.930 . S
C1394 C1393 1.362 1_554 S
C1394 C1397 1.409 . S
C1395 H1387 0.930 . S
C1395 C1396 1.355 . S
C1395 C1397 1.415 . S
C1396 C1395 1.355 . S
C1396 C1398 1.419 . S
C1397 C1392 1.425 . S
C1397 C1394 1.409 . S
C1397 C1395 1.415 . S
C1398 H1388 0.930 . S
C1398 C1396 1.419 . S
C1398 C1399 1.362 . S
C1399 H1389 0.930 . S
C1399 C1392 1.409 . S
C1399 C1398 1.362 . S
H1400 C1406 0.930 . S
H1401 C1409 0.930 . S
H1402 C1410 0.930 . S
H1403 C1411 0.930 . S
H1404 C1414 0.930 . S
H1405 C1415 0.930 . S
C1406 H1400 0.930 . S
C1406 C1407 1.355 . S
C1406 C1408 1.415 . S
C1407 C1406 1.355 . S
C1407 C1409 1.419 . S
C1408 C1406 1.415 . S
C1408 C1413 1.425 . S
C1408 C1415 1.409 . S
C1409 H1401 0.930 . S
C1409 C1407 1.419 . S
C1409 C1410 1.362 . S
C1410 H1402 0.930 . S
C1410 C1409 1.362 . S
C1410 C1413 1.409 . S
C1411 H1403 0.930 . S
C1411 C1412 1.355 . S
C1411 C1413 1.415 . S
C1412 C1411 1.355 . S
C1412 C1414 1.419 . S
C1413 C1408 1.425 . S
C1413 C1410 1.409 . S
C1413 C1411 1.415 . S
C1414 H1404 0.930 . S
C1414 C1412 1.419 . S
C1414 C1415 1.362 . S
C1415 H1405 0.930 . S
C1415 C1408 1.409 . S
C1415 C1414 1.362 . S
H1416 C1422 0.930 . S
H1417 C1425 0.930 . S
H1418 C1426 0.930 . S
H1419 C1427 0.930 . S
H1420 C1430 0.930 . S
H1421 C1431 0.930 . S
C1422 H1416 0.930 . S
C1422 C1423 1.355 . S
C1422 C1424 1.415 . S
C1423 C1422 1.355 . S
C1423 C1425 1.419 . S
C1424 C1422 1.415 . S
C1424 C1429 1.425 . S
C1424 C1431 1.409 . S
C1425 H1417 0.930 . S
C1425 C1423 1.419 . S
C1425 C1426 1.362 . S
C1426 H1418 0.930 . S
C1426 C1425 1.362 . S
C1426 C1429 1.409 . S
C1427 H1419 0.930 . S
C1427 C1428 1.355 . S
C1427 C1429 1.415 . S
C1428 C1427 1.355 . S
C1428 C1430 1.419 . S
C1429 C1424 1.425 . S
C1429 C1426 1.409 . S
C1429 C1427 1.415 . S
C1430 H1420 0.930 . S
C1430 C1428 1.419 . S
C1430 C1431 1.362 . S
C1431 H1421 0.930 . S
C1431 C1424 1.409 . S
C1431 C1430 1.362 . S
H1432 C1438 0.930 . S
H1433 C1441 0.930 . S
H1434 C1442 0.930 . S
H1435 C1443 0.930 . S
H1436 C1446 0.930 . S
H1437 C1447 0.930 . S
C1438 H1432 0.930 . S
C1438 C1439 1.355 . S
C1438 C1440 1.415 . S
C1439 C1438 1.355 . S
C1439 C1441 1.419 . S
C1440 C1438 1.415 . S
C1440 C1445 1.425 . S
C1440 C1447 1.409 . S
C1441 H1433 0.930 . S
C1441 C1439 1.419 . S
C1441 C1442 1.362 . S
C1442 H1434 0.930 . S
C1442 C1441 1.362 . S
C1442 C1445 1.409 . S
C1443 H1435 0.930 . S
C1443 C1444 1.355 . S
C1443 C1445 1.415 . S
C1444 C1443 1.355 . S
C1444 C1446 1.419 . S
C1445 C1440 1.425 . S
C1445 C1442 1.409 . S
C1445 C1443 1.415 . S
C1446 H1436 0.930 . S
C1446 C1444 1.419 . S
C1446 C1447 1.362 . S
C1447 H1437 0.930 . S
C1447 C1440 1.409 . S
C1447 C1446 1.362 . S
H1448 C1454 0.930 . S
H1449 C1457 0.930 . S
H1450 C1458 0.930 . S
H1451 C1459 0.930 . S
H1452 C1462 0.930 . S
H1453 C1463 0.930 . S
C1454 H1448 0.930 . S
C1454 C1455 1.355 . S
C1454 C1456 1.415 . S
C1455 C1454 1.355 . S
C1455 C1457 1.419 . S
C1456 C1454 1.415 . S
C1456 C1461 1.425 . S
C1456 C1463 1.409 . S
C1457 H1449 0.930 . S
C1457 C1455 1.419 . S
C1457 C1458 1.362 . S
C1458 H1450 0.930 . S
C1458 C1457 1.362 . S
C1458 C1461 1.409 . S
C1459 H1451 0.930 . S
C1459 C1460 1.355 . S
C1459 C1461 1.415 . S
C1460 C1459 1.355 . S
C1460 C1462 1.419 . S
C1461 C1456 1.425 . S
C1461 C1458 1.409 . S
C1461 C1459 1.415 . S
C1462 H1452 0.930 . S
C1462 C1460 1.419 . S
C1462 C1463 1.362 . S
C1463 H1453 0.930 . S
C1463 C1456 1.409 . S
C1463 C1462 1.362 . S
H1464 C1470 0.930 . S
H1465 C1473 0.930 . S
H1466 C1474 0.930 . S
H1467 C1475 0.930 . S
H1468 C1478 0.930 . S
H1469 C1479 0.930 . S
C1470 H1464 0.930 . S
C1470 C1471 1.355 . S
C1470 C1472 1.415 . S
C1471 C1470 1.355 . S
C1471 C1473 1.419 . S
C1472 C1470 1.415 . S
C1472 C1477 1.425 . S
C1472 C1479 1.409 . S
C1473 H1465 0.930 . S
C1473 C1471 1.419 . S
C1473 C1474 1.362 . S
C1474 H1466 0.930 . S
C1474 C1473 1.362 . S
C1474 C1477 1.409 . S
C1475 H1467 0.930 . S
C1475 C1476 1.355 . S
C1475 C1477 1.415 . S
C1476 C1475 1.355 . S
C1476 C1478 1.419 . S
C1477 C1472 1.425 . S
C1477 C1474 1.409 . S
C1477 C1475 1.415 . S
C1478 H1468 0.930 . S
C1478 C1476 1.419 . S
C1478 C1479 1.362 . S
C1479 H1469 0.930 . S
C1479 C1472 1.409 . S
C1479 C1478 1.362 . S
H1480 C1486 0.930 . S
H1481 C1489 0.930 . S
H1482 C1490 0.930 . S
H1483 C1491 0.930 . S
H1484 C1494 0.930 . S
H1485 C1495 0.930 . S
C1486 H1480 0.930 . S
C1486 C1487 1.355 . S
C1486 C1488 1.415 . S
C1487 C1486 1.355 . S
C1487 C1489 1.419 . S
C1488 C1486 1.415 . S
C1488 C1493 1.425 . S
C1488 C1495 1.409 . S
C1489 H1481 0.930 . S
C1489 C1487 1.419 . S
C1489 C1490 1.362 . S
C1490 H1482 0.930 . S
C1490 C1489 1.362 . S
C1490 C1493 1.409 . S
C1491 H1483 0.930 . S
C1491 C1492 1.355 . S
C1491 C1493 1.415 . S
C1492 C1491 1.355 . S
C1492 C1494 1.419 . S
C1493 C1488 1.425 . S
C1493 C1490 1.409 . S
C1493 C1491 1.415 . S
C1494 H1484 0.930 . S
C1494 C1492 1.419 . S
C1494 C1495 1.362 . S
C1495 H1485 0.930 . S
C1495 C1488 1.409 . S
C1495 C1494 1.362 . S
H1496 C1502 0.930 . S
H1497 C1505 0.930 . S
H1498 C1506 0.930 . S
H1499 C1507 0.930 . S
H1500 C1510 0.930 . S
H1501 C1511 0.930 . S
C1502 H1496 0.930 . S
C1502 C1503 1.355 . S
C1502 C1504 1.415 . S
C1503 C1502 1.355 . S
C1503 C1505 1.419 . S
C1504 C1502 1.415 . S
C1504 C1509 1.425 . S
C1504 C1511 1.409 . S
C1505 H1497 0.930 . S
C1505 C1503 1.419 . S
C1505 C1506 1.362 . S
C1506 H1498 0.930 . S
C1506 C1505 1.362 . S
C1506 C1509 1.409 . S
C1507 H1499 0.930 . S
C1507 C1508 1.355 . S
C1507 C1509 1.415 . S
C1508 C1507 1.355 . S
C1508 C1510 1.419 . S
C1509 C1504 1.425 . S
C1509 C1506 1.409 . S
C1509 C1507 1.415 . S
C1510 H1500 0.930 . S
C1510 C1508 1.419 . S
C1510 C1511 1.362 . S
C1511 H1501 0.930 . S
C1511 C1504 1.409 . S
C1511 C1510 1.362 . S
H1512 C1518 0.930 . S
H1513 C1521 0.930 . S
H1514 C1522 0.930 . S
H1515 C1523 0.930 . S
H1516 C1526 0.930 . S
H1517 C1527 0.930 . S
C1518 H1512 0.930 . S
C1518 C1519 1.355 . S
C1518 C1520 1.415 . S
C1519 C1518 1.355 . S
C1519 C1521 1.419 . S
C1520 C1518 1.415 . S
C1520 C1525 1.425 . S
C1520 C1527 1.409 . S
C1521 H1513 0.930 . S
C1521 C1519 1.419 . S
C1521 C1522 1.362 . S
C1522 H1514 0.930 . S
C1522 C1521 1.362 . S
C1522 C1525 1.409 . S
C1523 H1515 0.930 . S
C1523 C1524 1.355 . S
C1523 C1525 1.415 . S
C1524 C1523 1.355 . S
C1524 C1526 1.419 . S
C1525 C1520 1.425 . S
C1525 C1522 1.409 . S
C1525 C1523 1.415 . S
C1526 H1516 0.930 . S
C1526 C1524 1.419 . S
C1526 C1527 1.362 . S
C1527 H1517 0.930 . S
C1527 C1520 1.409 . S
C1527 C1526 1.362 . S
H1528 C1534 0.930 . S
H1529 C1537 0.930 . S
H1530 C1538 0.930 . S
H1531 C1539 0.930 . S
H1532 C1542 0.930 . S
H1533 C1543 0.930 . S
C1534 H1528 0.930 . S
C1534 C1535 1.355 . S
C1534 C1536 1.415 . S
C1535 C1534 1.355 . S
C1535 C1537 1.419 . S
C1536 C1534 1.415 . S
C1536 C1541 1.425 . S
C1536 C1543 1.409 . S
C1537 H1529 0.930 . S
C1537 C1535 1.419 . S
C1537 C1538 1.362 . S
C1538 H1530 0.930 . S
C1538 C1537 1.362 . S
C1538 C1541 1.409 . S
C1539 H1531 0.930 . S
C1539 C1540 1.355 . S
C1539 C1541 1.415 . S
C1540 C1539 1.355 . S
C1540 C1542 1.419 . S
C1541 C1536 1.425 . S
C1541 C1538 1.409 . S
C1541 C1539 1.415 . S
C1542 H1532 0.930 . S
C1542 C1540 1.419 . S
C1542 C1543 1.362 . S
C1543 H1533 0.930 . S
C1543 C1536 1.409 . S
C1543 C1542 1.362 . S
H1544 C1550 0.930 . S
H1545 C1553 0.930 . S
H1546 C1554 0.930 . S
H1547 C1555 0.930 . S
H1548 C1558 0.930 . S
H1549 C1559 0.930 . S
C1550 H1544 0.930 . S
C1550 C1551 1.355 . S
C1550 C1552 1.415 . S
C1551 C1550 1.355 . S
C1551 C1553 1.419 . S
C1552 C1550 1.415 . S
C1552 C1557 1.425 . S
C1552 C1559 1.409 . S
C1553 H1545 0.930 . S
C1553 C1551 1.419 . S
C1553 C1554 1.362 . S
C1554 H1546 0.930 . S
C1554 C1553 1.362 . S
C1554 C1557 1.409 . S
C1555 H1547 0.930 . S
C1555 C1556 1.355 . S
C1555 C1557 1.415 1_565 S
C1556 C1555 1.355 . S
C1556 C1558 1.419 . S
C1557 C1552 1.425 . S
C1557 C1554 1.409 . S
C1557 C1555 1.415 1_545 S
C1558 H1548 0.930 . S
C1558 C1556 1.419 . S
C1558 C1559 1.362 1_565 S
C1559 H1549 0.930 . S
C1559 C1552 1.409 . S
C1559 C1558 1.362 1_545 S
C804 C632 1.611 1_556 S
C799 C211 1.596 . S
C820 C647 1.707 . S
C815 C255 1.767 . S
C831 C274 1.692 . S
C836 C660 1.702 . S
C852 C674 1.631 . S
C847 C157 1.640 1_655 S
C868 C686 1.600 . S
C863 C391 1.694 . S
C884 C700 1.462 . S
C879 C484 1.403 . S
C895 C450 1.745 . S
C900 C714 1.706 . S
C916 C729 1.529 . S
C911 C352 1.543 . S
C927 C430 1.643 . S
C932 C745 1.657 . S
C948 C758 1.608 . S
C943 C367 1.596 . S
C959 C411 1.603 . S
C964 C743 1.577 . S
C980 C756 1.637 . S
C975 C469 1.548 . S
C991 C294 1.820 . S
C996 C772 1.798 . S
C1007 C177 1.608 . S
C1012 C771 1.605 . S
C1023 C196 1.720 . S
C1028 C770 1.674 . S
C1039 C235 1.684 . S
C1044 C773 1.662 . S
C1055 C133 1.683 . S
C1060 C675 1.691 1_565 S
C1071 C567 1.498 . S
C1076 C673 1.449 . S
C1092 C633 1.548 . S
C1087 C601 1.569 . S
C1108 C644 1.717 . S
C1103 C328 1.748 . S
C1119 C172 1.670 . S
C1124 C689 1.643 . S
C1140 C730 1.856 . S
C1135 C445 1.860 . S
C1156 C687 1.641 . S
C1151 C372 1.619 1_545 S
C1172 C715 1.613 . S
C1167 C489 1.579 . S
C1188 C716 1.612 . S
C1183 C562 1.600 . S
C1199 C606 1.785 . S
C1204 C731 1.734 . S
C1215 C313 1.704 . S
C1220 C688 1.683 . S
C1236 C702 1.568 . S
C1231 C508 1.621 . S
C1247 C118 1.691 . S
C1252 C658 1.598 . S
C1268 C672 1.423 . S
C1263 C16 1.387 . S
C1284 C630 1.725 . S
C1279 C60 1.742 . S
C1300 C645 1.534 . S
C1295 C79 1.563 . S
C1311 C40 1.659 . S
C1316 C759 1.644 . S
C1327 C94 1.611 . S
C1332 C744 1.586 . S
C1343 C138 1.600 . S
C1348 C757 1.553 . S
C1359 C1 1.589 . S
C1364 C742 1.638 . S
C1380 C786 1.816 . S
C1375 C333 1.804 . S
C1396 C785 1.665 . S
C1391 C528 1.630 . S
C1412 C784 1.655 . S
C1407 C547 1.721 . S
C1423 C586 1.668 1_554 S
C1428 C787 1.633 . S
C1439 C406 1.678 . S
C1444 C703 1.689 . S
C1460 C701 1.487 . S
C1455 C216 1.497 . S
C1476 C717 1.536 . S
C1471 C250 1.564 . S
C1492 C728 1.730 . S
C1487 C289 1.743 . S
C1503 C523 1.624 . S
C1508 C661 1.609 . S
C1524 C646 1.846 . S
C1519 C55 1.863 . S
C1535 C99 1.633 . S
C1540 C659 1.627 . S
C1556 C631 1.601 . S
C1551 C21 1.521 . S
