# Generated by pormake.
# Topology anh, (6,3)-cn, num edge types: 1
# Building blocks:
#     Node 0, Type 0, BuildingBlock: BETFAJ_clean_sbu_0, # of connection points: 6
#     Node 1, Type 0, BuildingBlock: BETFAJ_clean_sbu_0, # of connection points: 6
#     Node 2, Type 0, BuildingBlock: BETFAJ_clean_sbu_0, # of connection points: 6
#     Node 3, Type 1, BuildingBlock: ESEHIV_clean_linker_0, # of connection points: 3
#     Node 4, Type 1, BuildingBlock: ESEHIV_clean_linker_0, # of connection points: 3
#     Node 5, Type 1, BuildingBlock: ESEHIV_clean_linker_0, # of connection points: 3
#     Node 6, Type 1, BuildingBlock: ESEHIV_clean_linker_0, # of connection points: 3
#     Node 7, Type 1, BuildingBlock: ESEHIV_clean_linker_0, # of connection points: 3
#     Node 8, Type 1, BuildingBlock: ESEHIV_clean_linker_0, # of connection points: 3
#     Edge 9, Type (0, 1), BuildingBlock: MIFKUJ_clean_linker_0, # of connection points: 2
#     Edge 10, Type (0, 1), BuildingBlock: MIFKUJ_clean_linker_0, # of connection points: 2
#     Edge 11, Type (0, 1), BuildingBlock: MIFKUJ_clean_linker_0, # of connection points: 2
#     Edge 12, Type (0, 1), BuildingBlock: MIFKUJ_clean_linker_0, # of connection points: 2
#     Edge 13, Type (0, 1), BuildingBlock: MIFKUJ_clean_linker_0, # of connection points: 2
#     Edge 14, Type (0, 1), BuildingBlock: MIFKUJ_clean_linker_0, # of connection points: 2
#     Edge 15, Type (0, 1), BuildingBlock: MIFKUJ_clean_linker_0, # of connection points: 2
#     Edge 16, Type (0, 1), BuildingBlock: MIFKUJ_clean_linker_0, # of connection points: 2
#     Edge 17, Type (0, 1), BuildingBlock: MIFKUJ_clean_linker_0, # of connection points: 2
#     Edge 18, Type (0, 1), BuildingBlock: MIFKUJ_clean_linker_0, # of connection points: 2
#     Edge 19, Type (0, 1), BuildingBlock: MIFKUJ_clean_linker_0, # of connection points: 2
#     Edge 20, Type (0, 1), BuildingBlock: MIFKUJ_clean_linker_0, # of connection points: 2
#     Edge 21, Type (0, 1), BuildingBlock: MIFKUJ_clean_linker_0, # of connection points: 2
#     Edge 22, Type (0, 1), BuildingBlock: MIFKUJ_clean_linker_0, # of connection points: 2
#     Edge 23, Type (0, 1), BuildingBlock: MIFKUJ_clean_linker_0, # of connection points: 2
#     Edge 24, Type (0, 1), BuildingBlock: MIFKUJ_clean_linker_0, # of connection points: 2
#     Edge 25, Type (0, 1), BuildingBlock: MIFKUJ_clean_linker_0, # of connection points: 2
#     Edge 26, Type (0, 1), BuildingBlock: MIFKUJ_clean_linker_0, # of connection points: 2
# Relax obj value: 0.182
# Max RMSD: 0.208
# Mean RMSD: 0.155
data_MOF--net-anh--node1-BETFAJ_clean_sbu_0--node2-ESEHIV_clean_linker_0--edge1-MIFKUJ_clean_linker_0
_symmetry_space_group_name_H-M    P1
_symmetry_Int_Tables_number       1
_symmetry_cell_setting            triclinic
loop_
_symmetry_equiv_pos_as_xyz
'x, y, z'
_cell_length_a     37.876924
_cell_length_b     44.297727
_cell_length_c     67.95372
_cell_angle_alpha  92.289783
_cell_angle_beta   89.389746
_cell_angle_gamma 128.24105
loop_
_atom_site_label
_atom_site_type_symbol
_atom_site_fract_x
_atom_site_fract_y
_atom_site_fract_z
_atom_type_partial_charge
Sm0 Sm 0.09137 0.48864 0.1562 0.0
Sm1 Sm 0.05199 0.52818 0.15987 0.0
C2 C 0.13981 0.46704 0.1484 0.0
C3 C 0.18713 0.49244 0.15396 0.0
C4 C 0.21857 0.50867 0.13899 0.0
C5 C 0.2627 0.54 0.14328 0.0
C6 C 0.2765 0.55533 0.16277 0.0
C7 C 0.24454 0.53989 0.17765 0.0
C8 C 0.20023 0.5085 0.17332 0.0
C9 C 0.07043 0.49455 0.19415 0.0
C10 C 0.15966 0.58398 0.15944 0.0
C11 C 1.01693 0.55726 0.17723 0.0
C12 C 0.96844 0.53493 0.17923 0.0
C13 C 0.94652 0.50751 0.19388 0.0
C14 C 0.90171 0.47552 0.19131 0.0
C15 C 0.87813 0.4711 0.17434 0.0
C16 C 0.89907 0.50036 0.16065 0.0
C17 C 0.94361 0.53218 0.1632 0.0
C18 C 0.05321 0.51538 0.11961 0.0
C19 C 0.98504 0.43394 0.15614 0.0
O20 O 0.12972 0.48086 0.13484 0.0
O21 O 0.11181 0.45285 0.16302 0.0
O22 O 0.09036 0.52129 0.18208 0.0
O23 O 0.05982 0.46285 0.18608 0.0
O24 O 0.15671 0.55259 0.15941 0.0
O25 O 0.12399 0.58225 0.15868 0.0
O26 O 1.0342 0.54439 0.18713 0.0
O27 O 1.03151 0.56532 0.15915 0.0
O28 O 0.06707 0.50567 0.13286 0.0
O29 O 1.03528 0.53011 0.12739 0.0
O30 O 0.98955 0.46413 0.16382 0.0
O31 O 1.01929 0.43829 0.14782 0.0
H32 H 0.2087 0.49772 0.12387 0.0
H33 H 0.28638 0.55047 0.13138 0.0
H34 H 0.25432 0.55087 0.19277 0.0
H35 H 0.17617 0.49749 0.18509 0.0
H36 H 0.96479 0.50926 0.20661 0.0
H37 H 0.88546 0.45426 0.2025 0.0
H38 H 0.8809 0.49904 0.148 0.0
H39 H 0.95936 0.55312 0.15183 0.0
Sm40 Sm 0.59114 1.0 0.4771 0.0
Sm41 Sm 0.53146 0.02642 0.47412 0.0
C42 C 0.62089 0.96073 0.48248 0.0
C43 C 0.59857 0.91944 0.48422 0.0
C44 C 0.57237 0.89945 0.5006 0.0
C45 C 0.55375 0.86097 0.50245 0.0
C46 C 0.56096 0.84182 0.48798 0.0
C47 C 0.58435 0.86098 0.47095 0.0
C48 C 0.60319 0.89953 0.46915 0.0
C49 C 0.58061 0.01733 0.44063 0.0
C50 C 0.47907 0.9351 0.47319 0.0
C51 C 0.5039 0.0634 0.46059 0.0
C52 C 0.51656 0.10143 0.46655 0.0
C53 C 0.53974 0.13156 0.45341 0.0
C54 C 0.55398 0.16826 0.45921 0.0
C55 C 0.54479 0.17523 0.47818 0.0
C56 C 0.52276 0.14543 0.49147 0.0
C57 C 0.50895 0.10894 0.48576 0.0
C58 C 0.54685 0.02391 0.51361 0.0
C59 C 0.64347 0.09061 0.47878 0.0
O60 O 0.61653 0.97853 0.49704 0.0
O61 O 0.61772 0.97063 0.46513 0.0
O62 O 0.54979 0.9982 0.45287 0.0
O63 O 0.61893 0.02805 0.44733 0.0
O64 O 0.51786 0.94344 0.47859 0.0
O65 O 0.47567 0.96196 0.46863 0.0
O66 O 0.53598 0.06438 0.4523 0.0
O67 O 0.48029 0.0357 0.47305 0.0
O68 O 0.56126 0.01638 0.499 0.0
O69 O 0.52245 0.03308 0.50743 0.0
O70 O 0.60478 0.08172 0.47294 0.0
O71 O 0.6469 0.06416 0.48418 0.0
H72 H 0.56724 0.91372 0.51225 0.0
H73 H 0.53536 0.84663 0.51562 0.0
H74 H 0.59063 0.84699 0.45962 0.0
H75 H 0.62259 0.91413 0.45621 0.0
H76 H 0.54679 0.12668 0.43863 0.0
H77 H 0.57081 0.19079 0.44868 0.0
H78 H 0.51582 0.15031 0.50627 0.0
H79 H 0.49229 0.0867 0.49644 0.0
Sm80 Sm 0.62644 0.5728 0.8261 0.0
Sm81 Sm 0.56693 0.48892 0.83204 0.0
C82 C 0.66036 0.64148 0.81395 0.0
C83 C 0.64458 0.66478 0.81478 0.0
C84 C 0.62207 0.6646 0.79843 0.0
C85 C 0.60847 0.6875 0.79877 0.0
C86 C 0.61724 0.71114 0.81541 0.0
C87 C 0.63782 0.71013 0.83212 0.0
C88 C 0.65161 0.68725 0.83179 0.0
C89 C 0.61573 0.55517 0.86441 0.0
C90 C 0.51479 0.52627 0.83354 0.0
C91 C 0.53096 0.41773 0.84109 0.0
C92 C 0.54125 0.39111 0.8362 0.0
C93 C 0.55831 0.38169 0.85092 0.0
C94 C 0.56898 0.35713 0.84654 0.0
C95 C 0.56259 0.34129 0.82735 0.0
C96 C 0.54596 0.35106 0.81257 0.0
C97 C 0.53543 0.37572 0.81693 0.0
C98 C 0.5785 0.5086 0.79332 0.0
C99 C 0.6794 0.5369 0.83251 0.0
O100 O 0.63764 0.6105 0.80229 0.0
O101 O 0.67222 0.63622 0.83068 0.0
O102 O 0.58492 0.5382 0.85156 0.0
O103 O 0.65369 0.58447 0.85774 0.0
O104 O 0.55257 0.55556 0.82528 0.0
O105 O 0.51358 0.49794 0.84037 0.0
O106 O 0.56053 0.44783 0.85236 0.0
O107 O 0.51528 0.42579 0.8269 0.0
O108 O 0.60949 0.52396 0.8061 0.0
O109 O 0.54022 0.48085 0.8004 0.0
O110 O 0.63913 0.50656 0.83812 0.0
O111 O 0.68323 0.56572 0.8245 0.0
H112 H 0.61572 0.64731 0.7852 0.0
H113 H 0.59223 0.68764 0.78578 0.0
H114 H 0.64514 0.72836 0.84507 0.0
H115 H 0.66858 0.68785 0.8447 0.0
H116 H 0.56346 0.3934 0.86585 0.0
H117 H 0.58228 0.35055 0.85818 0.0
H118 H 0.54007 0.33894 0.79769 0.0
H119 H 0.52256 0.38252 0.8052 0.0
H120 H 0.49854 0.96642 0.22848 0.0
H121 H 0.62583 0.07891 0.22738 0.0
H122 H 0.56715 0.00974 0.17368 0.0
C123 C 0.52785 0.98858 0.22049 0.0
C124 C 0.53027 0.98205 0.20032 0.0
C125 C 0.56332 0.02194 0.23077 0.0
C126 C 0.59817 0.05241 0.21992 0.0
C127 C 0.59834 0.04906 0.1993 0.0
C128 C 0.56527 0.01324 0.18943 0.0
H129 H 0.57634 0.57139 0.5808 0.0
H130 H 0.56342 0.46748 0.57842 0.0
H131 H 0.57797 0.52242 0.52527 0.0
C132 C 0.57446 0.54906 0.57256 0.0
C133 C 0.57553 0.54953 0.55184 0.0
C134 C 0.57102 0.5201 0.5826 0.0
C135 C 0.56768 0.49099 0.57135 0.0
C136 C 0.57087 0.49231 0.5508 0.0
C137 C 0.57517 0.52163 0.54117 0.0
H138 H 1.03838 0.53115 0.90479 0.0
H139 H 0.14053 0.51851 0.90498 0.0
H140 H 0.09513 0.52953 0.84932 0.0
C141 C 0.06048 0.52815 0.8963 0.0
C142 C 0.059 0.52751 0.87547 0.0
C143 C 0.08972 0.52514 0.9068 0.0
C144 C 0.1206 0.5234 0.89649 0.0
C145 C 0.12617 0.52732 0.87589 0.0
C146 C 0.09364 0.5283 0.8652 0.0
H147 H 0.99078 0.45227 0.40861 0.0
H148 H 0.11524 0.56797 0.4095 0.0
H149 H 0.05522 0.51283 0.46379 0.0
C150 C 1.01877 0.4779 0.41649 0.0
C151 C 1.02 0.4783 0.43719 0.0
C152 C 0.05289 0.51008 0.40609 0.0
C153 C 0.08779 0.54305 0.417 0.0
C154 C 0.0882 0.54488 0.43767 0.0
C155 C 0.0549 0.51193 0.44783 0.0
H156 H 0.55994 0.05252 0.72556 0.0
H157 H 0.55566 0.95338 0.72569 0.0
H158 H 0.56899 0.01204 0.78038 0.0
C159 C 0.56026 0.03205 0.73358 0.0
C160 C 0.564 0.03556 0.75429 0.0
C161 C 0.55797 1.00288 0.72309 0.0
C162 C 0.55831 0.97647 0.7336 0.0
C163 C 0.56197 0.97947 0.75424 0.0
C164 C 0.56458 0.00892 0.7645 0.0
H165 H 0.45642 0.42332 0.06331 0.0
H166 H 0.59294 0.46597 0.06445 0.0
H167 H 0.52042 0.43643 0.11822 0.0
C168 C 0.48373 0.42731 0.07134 0.0
C169 C 0.48451 0.42959 0.092 0.0
C170 C 0.52319 0.44059 0.06152 0.0
C171 C 0.56141 0.4525 0.07206 0.0
C172 C 0.56019 0.45065 0.09246 0.0
C173 C 0.52032 0.43579 0.10225 0.0
H174 H 0.35007 0.61718 0.14424 0.0
H175 H 0.40269 0.60563 0.13336 0.0
H176 H 0.36573 0.533 0.18241 0.0
H177 H 0.31258 0.54329 0.19281 0.0
H178 H 0.45998 0.58057 0.16837 0.0
H179 H 0.30096 0.47887 0.14752 0.0
H180 H 0.22807 0.44126 0.1296 0.0
H181 H 0.29586 0.49231 0.07565 0.0
H182 H 0.36901 0.53014 0.09325 0.0
H183 H 0.44045 0.41169 0.12701 0.0
H184 H 0.42982 0.45372 0.14634 0.0
H185 H 0.4854 0.53275 0.09916 0.0
H186 H 0.49538 0.49155 0.07988 0.0
H187 H 0.38704 0.48542 0.11201 0.0
H188 H 0.54534 0.5809 0.13187 0.0
H189 H 0.61757 0.60819 0.14858 0.0
H190 H 0.54939 0.56256 0.20318 0.0
H191 H 0.47689 0.53515 0.18675 0.0
C192 C 0.35544 0.60084 0.15341 0.0
C193 C 0.32435 0.57777 0.16796 0.0
C194 C 0.38437 0.59339 0.14683 0.0
C195 C 0.38516 0.56651 0.15647 0.0
C196 C 0.36369 0.55262 0.17444 0.0
C197 C 0.3342 0.55948 0.18065 0.0
C198 C 0.40502 0.55025 0.14731 0.0
C199 C 0.44427 0.55986 0.15597 0.0
C200 C 0.38396 0.52328 0.13117 0.0
C201 C 0.34042 0.50855 0.1219 0.0
C202 C 0.30021 0.48325 0.13202 0.0
C203 C 0.25887 0.46138 0.12183 0.0
C204 C 0.25729 0.46468 0.10155 0.0
C205 C 0.29701 0.49015 0.09141 0.0
C206 C 0.33838 0.51195 0.1015 0.0
C207 C 0.44931 0.43763 0.12073 0.0
C208 C 0.46673 0.44754 0.10169 0.0
C209 C 0.44495 0.46213 0.13197 0.0
C210 C 0.45858 0.49666 0.12426 0.0
C211 C 0.47615 0.50664 0.10541 0.0
C212 C 0.47995 0.48222 0.09415 0.0
C213 C 0.44226 0.51625 0.13283 0.0
C214 C 0.40325 0.50679 0.12415 0.0
C215 C 0.46344 0.54314 0.14881 0.0
C216 C 0.50577 0.55535 0.15802 0.0
C217 C 0.54572 0.57597 0.14732 0.0
C218 C 0.58672 0.59177 0.15679 0.0
C219 C 0.58804 0.58694 0.1769 0.0
C220 C 0.54833 0.56614 0.18758 0.0
C221 C 0.50732 0.55049 0.17822 0.0
H222 H 0.61986 0.59947 0.18424 0.0
H223 H 0.22534 0.44727 0.09365 0.0
H224 H 0.73282 0.12212 0.48318 0.0
H225 H 0.79869 0.1889 0.47798 0.0
H226 H 0.7115 0.21767 0.46553 0.0
H227 H 0.64609 0.15162 0.47046 0.0
H228 H 0.77638 0.24769 0.43916 0.0
H229 H 0.76771 0.24518 0.50973 0.0
H230 H 0.76166 0.21774 0.54163 0.0
H231 H 0.887 0.23831 0.53173 0.0
H232 H 0.89352 0.26555 0.49965 0.0
H233 H 0.9325 0.44857 0.44033 0.0
H234 H 0.86981 0.3842 0.45065 0.0
H235 H 0.96297 0.36265 0.46499 0.0
H236 H 1.02587 0.42786 0.45544 0.0
H237 H 0.89624 0.32794 0.49015 0.0
H238 H 0.90456 0.33361 0.41906 0.0
H239 H 0.90657 0.3589 0.38702 0.0
H240 H 0.77773 0.33112 0.39791 0.0
H241 H 0.77522 0.30611 0.43012 0.0
C242 C 0.72773 0.14278 0.47954 0.0
C243 C 0.68407 0.13139 0.47736 0.0
C244 C 0.76541 0.18094 0.47653 0.0
C245 C 0.76009 0.20843 0.47142 0.0
C246 C 0.71656 0.19707 0.46936 0.0
C247 C 0.67909 0.15915 0.47233 0.0
C248 C 0.79956 0.24914 0.46823 0.0
C249 C 0.80237 0.26534 0.45038 0.0
C250 C 0.83384 0.27208 0.48272 0.0
C251 C 0.83101 0.25721 0.50229 0.0
C252 C 0.79396 0.24381 0.51437 0.0
C253 C 0.79042 0.22828 0.53246 0.0
C254 C 0.82391 0.22625 0.53869 0.0
C255 C 0.86111 0.23993 0.52688 0.0
C256 C 0.8648 0.2555 0.50876 0.0
C257 C 0.93953 0.43038 0.44621 0.0
C258 C 0.98383 0.44302 0.44717 0.0
C259 C 0.90373 0.39345 0.45189 0.0
C260 C 0.91141 0.36799 0.45805 0.0
C261 C 0.95603 0.38154 0.46016 0.0
C262 C 0.99198 0.4188 0.45477 0.0
C263 C 0.87301 0.32673 0.46108 0.0
C264 C 0.8704 0.31035 0.47888 0.0
C265 C 0.83859 0.30362 0.44656 0.0
C266 C 0.83988 0.31825 0.42707 0.0
C267 C 0.87677 0.33306 0.41466 0.0
C268 C 0.87798 0.34733 0.39646 0.0
C269 C 0.84233 0.34667 0.39044 0.0
C270 C 0.80533 0.33163 0.40259 0.0
C271 C 0.80397 0.31737 0.42081 0.0
H272 H 0.84335 0.35775 0.37636 0.0
H273 H 0.82105 0.2141 0.55268 0.0
H274 H 0.64748 0.76277 0.78736 0.0
H275 H 0.63736 0.8117 0.78482 0.0
H276 H 0.56131 0.77453 0.83834 0.0
H277 H 0.57163 0.72503 0.841 0.0
H278 H 0.52041 0.78209 0.80559 0.0
H279 H 0.66157 0.86105 0.84171 0.0
H280 H 0.74009 0.88893 0.84959 0.0
H281 H 0.77955 0.9325 0.79152 0.0
H282 H 0.70132 0.90485 0.7833 0.0
H283 H 0.5189 0.94138 0.78779 0.0
H284 H 0.52577 0.89744 0.805 0.0
H285 H 0.62015 0.91443 0.76171 0.0
H286 H 0.61416 0.9586 0.7448 0.0
H287 H 0.6492 0.91986 0.79845 0.0
H288 H 0.51307 0.83553 0.75967 0.0
H289 H 0.43595 0.80605 0.74834 0.0
H290 H 0.38742 0.76897 0.80672 0.0
H291 H 0.46448 0.79885 0.81847 0.0
C292 C 0.62853 0.76497 0.79857 0.0
C293 C 0.61006 0.74013 0.81429 0.0
C294 C 0.62322 0.79316 0.79723 0.0
C295 C 0.59925 0.79704 0.81157 0.0
C296 C 0.58036 0.77213 0.82729 0.0
C297 C 0.5862 0.74401 0.82878 0.0
C298 C 0.59202 0.82575 0.809 0.0
C299 C 0.54831 0.81248 0.80463 0.0
C300 C 0.62872 0.86506 0.80717 0.0
C301 C 0.67558 0.88082 0.8119 0.0
C302 C 0.68695 0.87634 0.83059 0.0
C303 C 0.73143 0.89221 0.83513 0.0
C304 C 0.76479 0.91247 0.82107 0.0
C305 C 0.75372 0.91687 0.80242 0.0
C306 C 0.70935 0.90122 0.79783 0.0
C307 C 0.54124 0.9358 0.78207 0.0
C308 C 0.56573 0.95308 0.76489 0.0
C309 C 0.54491 0.91061 0.79182 0.0
C310 C 0.57327 0.90262 0.78454 0.0
C311 C 0.59808 0.92026 0.76755 0.0
C312 C 0.59433 0.9452 0.75781 0.0
C313 C 0.57776 0.87603 0.79441 0.0
C314 C 0.621 0.88975 0.80009 0.0
C315 C 0.54075 0.837 0.79695 0.0
C316 C 0.49467 0.82008 0.79004 0.0
C317 C 0.48608 0.82163 0.77016 0.0
C318 C 0.44235 0.80472 0.76365 0.0
C319 C 0.40684 0.78582 0.77682 0.0
C320 C 0.41499 0.78377 0.79655 0.0
C321 C 0.45869 0.80073 0.80315 0.0
H322 H 0.37297 0.77263 0.77174 0.0
H323 H 0.7992 0.92478 0.82463 0.0
H324 H 0.81862 0.45477 0.20236 0.0
H325 H 0.76204 0.46022 0.19205 0.0
H326 H 0.76967 0.42798 0.13227 0.0
H327 H 0.82699 0.42259 0.14277 0.0
H328 H 0.80121 0.50526 0.13725 0.0
H329 H 0.6752 0.3783 0.15236 0.0
H330 H 0.63647 0.32313 0.17388 0.0
H331 H 0.62583 0.38844 0.2185 0.0
H332 H 0.66565 0.44447 0.19738 0.0
H333 H 0.62487 0.44438 0.08412 0.0
H334 H 0.68872 0.46608 0.1046 0.0
H335 H 0.65379 0.51918 0.14665 0.0
H336 H 0.5896 0.49839 0.1255 0.0
H337 H 0.64923 0.45574 0.15927 0.0
H338 H 0.76044 0.57823 0.1335 0.0
H339 H 0.78441 0.61921 0.10499 0.0
H340 H 0.80822 0.54854 0.07238 0.0
H341 H 0.78429 0.50704 0.10065 0.0
C342 C 0.80588 0.4459 0.18733 0.0
C343 C 0.82938 0.44171 0.17289 0.0
C344 C 0.77428 0.45 0.18136 0.0
C345 C 0.76423 0.44678 0.16127 0.0
C346 C 0.77885 0.4321 0.14775 0.0
C347 C 0.81038 0.42782 0.15388 0.0
C348 C 0.74348 0.46335 0.15443 0.0
C349 C 0.76806 0.49468 0.14204 0.0
C350 C 0.70121 0.45019 0.16137 0.0
C351 C 0.67373 0.41567 0.17339 0.0
C352 C 0.66458 0.3809 0.16677 0.0
C353 C 0.64259 0.34953 0.17891 0.0
C354 C 0.62881 0.35232 0.19758 0.0
C355 C 0.63661 0.38638 0.20405 0.0
C356 C 0.65889 0.41797 0.192 0.0
C357 C 0.63159 0.46182 0.09733 0.0
C358 C 0.60185 0.46865 0.10363 0.0
C359 C 0.66836 0.47466 0.10892 0.0
C360 C 0.67582 0.49446 0.12696 0.0
C361 C 0.64831 0.50412 0.13266 0.0
C362 C 0.61148 0.49159 0.12082 0.0
C363 C 0.70542 0.4959 0.14105 0.0
C364 C 0.6834 0.46795 0.15529 0.0
C365 C 0.74925 0.51128 0.13517 0.0
C366 C 0.77128 0.53983 0.11941 0.0
C367 C 0.77174 0.57189 0.12041 0.0
C368 C 0.78498 0.59505 0.10422 0.0
C369 C 0.798 0.58656 0.08691 0.0
C370 C 0.79851 0.55527 0.08587 0.0
C371 C 0.78546 0.53208 0.10205 0.0
H372 H 0.8075 0.60412 0.07427 0.0
H373 H 0.61202 0.32806 0.20702 0.0
H374 H 0.46822 0.87277 0.4873 0.0
H375 H 0.40161 0.80529 0.48446 0.0
H376 H 0.3326 0.83679 0.45169 0.0
H377 H 0.39848 0.90441 0.45508 0.0
H378 H 0.27945 0.7891 0.47747 0.0
H379 H 0.37622 0.79122 0.43024 0.0
H380 H 0.44502 0.80244 0.41828 0.0
H381 H 0.42818 0.72372 0.4596 0.0
H382 H 0.35955 0.71237 0.47197 0.0
H383 H 0.10182 0.61134 0.43246 0.0
H384 H 0.16696 0.67611 0.44271 0.0
H385 H 0.21863 0.62938 0.47575 0.0
H386 H 0.15329 0.56386 0.46481 0.0
H387 H 0.2816 0.68325 0.45315 0.0
H388 H 0.18104 0.67958 0.49888 0.0
H389 H 0.11272 0.67013 0.51005 0.0
H390 H 0.13671 0.75283 0.46959 0.0
H391 H 0.20494 0.76257 0.45809 0.0
C392 C 0.43886 0.86535 0.47949 0.0
C393 C 0.43865 0.89408 0.4715 0.0
C394 C 0.40085 0.82663 0.47773 0.0
C395 C 0.36209 0.81569 0.46764 0.0
C396 C 0.36198 0.84438 0.45958 0.0
C397 C 0.39972 0.88312 0.46155 0.0
C398 C 0.32088 0.7747 0.46618 0.0
C399 C 0.27992 0.76604 0.47192 0.0
C400 C 0.32153 0.74429 0.45955 0.0
C401 C 0.36301 0.75132 0.4522 0.0
C402 C 0.3874 0.77658 0.4369 0.0
C403 C 0.42633 0.7829 0.43002 0.0
C404 C 0.44105 0.76392 0.43822 0.0
C405 C 0.4168 0.73848 0.45328 0.0
C406 C 0.37787 0.73207 0.46023 0.0
C407 C 0.12655 0.61485 0.4423 0.0
C408 C 0.12258 0.58266 0.44785 0.0
C409 C 0.16376 0.65196 0.44827 0.0
C410 C 0.19777 0.65789 0.46019 0.0
C411 C 0.19281 0.62559 0.46659 0.0
C412 C 0.15535 0.58819 0.46052 0.0
C413 C 0.24004 0.69776 0.46421 0.0
C414 C 0.28123 0.70626 0.4589 0.0
C415 C 0.23963 0.7282 0.47101 0.0
C416 C 0.19793 0.7216 0.47755 0.0
C417 C 0.17151 0.69548 0.49225 0.0
C418 C 0.13287 0.69016 0.49867 0.0
C419 C 0.12035 0.71082 0.49051 0.0
C420 C 0.14643 0.73685 0.4759 0.0
C421 C 0.18512 0.74233 0.46946 0.0
H422 H 0.09048 0.70671 0.49553 0.0
H423 H 0.47117 0.76883 0.43286 0.0
H424 H 0.54154 0.28238 0.84976 0.0
H425 H 0.5476 0.23183 0.84078 0.0
H426 H 0.60811 0.28558 0.78587 0.0
H427 H 0.60221 0.33629 0.79477 0.0
H428 H 0.53964 0.21214 0.77968 0.0
H429 H 0.66784 0.28462 0.82372 0.0
H430 H 0.70958 0.31701 0.85494 0.0
H431 H 0.62419 0.21026 0.88413 0.0
H432 H 0.58145 0.17733 0.85315 0.0
H433 H 0.61267 0.11019 0.7436 0.0
H434 H 0.6157 0.1619 0.75972 0.0
H435 H 0.5318 0.08707 0.80606 0.0
H436 H 0.52712 0.03437 0.78964 0.0
H437 H 0.6079 0.16707 0.81861 0.0
H438 H 0.48123 0.09478 0.77398 0.0
H439 H 0.44396 0.0623 0.74204 0.0
H440 H 0.52925 0.17006 0.71372 0.0
H441 H 0.56778 0.20307 0.74544 0.0
C442 C 0.55705 0.28392 0.83596 0.0
C443 C 0.57101 0.31316 0.82289 0.0
C444 C 0.56048 0.25497 0.83085 0.0
C445 C 0.57831 0.25491 0.81266 0.0
C446 C 0.59398 0.28494 0.79994 0.0
C447 C 0.59043 0.31381 0.80501 0.0
C448 C 0.57717 0.22199 0.80607 0.0
C449 C 0.55511 0.2027 0.78812 0.0
C450 C 0.59588 0.20869 0.81742 0.0
C451 C 0.62107 0.2286 0.83615 0.0
C452 C 0.65761 0.26813 0.83684 0.0
C453 C 0.68153 0.28657 0.85449 0.0
C454 C 0.66946 0.26573 0.87152 0.0
C455 C 0.63345 0.22639 0.87094 0.0
C456 C 0.60937 0.20782 0.85334 0.0
C457 C 0.59454 0.10449 0.75714 0.0
C458 C 0.56882 0.06783 0.76508 0.0
C459 C 0.59679 0.13424 0.76645 0.0
C460 C 0.57367 0.12809 0.78395 0.0
C461 C 0.54991 0.09227 0.79256 0.0
C462 C 0.54728 0.06225 0.78313 0.0
C463 C 0.5715 0.15829 0.79212 0.0
C464 C 0.59242 0.17668 0.81033 0.0
C465 C 0.55182 0.17092 0.78106 0.0
C466 C 0.52769 0.15135 0.76207 0.0
C467 C 0.49227 0.11152 0.76092 0.0
C468 C 0.47091 0.09301 0.74286 0.0
C469 C 0.4843 0.11408 0.72585 0.0
C470 C 0.51896 0.15376 0.7269 0.0
C471 C 0.54057 0.17239 0.74492 0.0
H472 H 0.46776 0.09969 0.71187 0.0
H473 H 0.68808 0.28005 0.88516 0.0
H474 H 0.52237 0.77717 0.46351 0.0
H475 H 0.52013 0.72147 0.46937 0.0
H476 H 0.5783 0.76947 0.52734 0.0
H477 H 0.58062 0.82448 0.52168 0.0
H478 H 0.62645 0.75362 0.50305 0.0
H479 H 0.47517 0.69681 0.52374 0.0
H480 H 0.3965 0.67167 0.52 0.0
H481 H 0.37342 0.58991 0.47512 0.0
H482 H 0.45235 0.61519 0.47828 0.0
H483 H 0.61837 0.62541 0.56282 0.0
H484 H 0.6127 0.67046 0.54699 0.0
H485 H 0.53131 0.58584 0.50015 0.0
H486 H 0.53288 0.53917 0.51696 0.0
H487 H 0.49547 0.61694 0.51092 0.0
H488 H 0.64692 0.67017 0.49386 0.0
H489 H 0.72428 0.6937 0.50058 0.0
H490 H 0.74628 0.78141 0.54076 0.0
H491 H 0.66902 0.75826 0.53441 0.0
C492 C 0.53378 0.77526 0.47761 0.0
C493 C 0.55151 0.805 0.49218 0.0
C494 C 0.53249 0.74359 0.48092 0.0
C495 C 0.54942 0.74176 0.49872 0.0
C496 C 0.56521 0.77055 0.5135 0.0
C497 C 0.56606 0.80175 0.51032 0.0
C498 C 0.55426 0.71175 0.50181 0.0
C499 C 0.59787 0.72364 0.50472 0.0
C500 C 0.51694 0.67263 0.50336 0.0
C501 C 0.46998 0.65846 0.50095 0.0
C502 C 0.45362 0.67399 0.5128 0.0
C503 C 0.40889 0.65959 0.51085 0.0
C504 C 0.38004 0.62936 0.49725 0.0
C505 C 0.39587 0.61347 0.48557 0.0
C506 C 0.44062 0.62787 0.48741 0.0
C507 C 0.59883 0.61611 0.54928 0.0
C508 C 0.57589 0.57846 0.54129 0.0
C509 C 0.59642 0.64227 0.53998 0.0
C510 C 0.57242 0.63186 0.52211 0.0
C511 C 0.55033 0.59463 0.51384 0.0
C512 C 0.55175 0.5681 0.52339 0.0
C513 C 0.56774 0.65899 0.51291 0.0
C514 C 0.52424 0.64661 0.5087 0.0
C515 C 0.6052 0.69781 0.51025 0.0
C516 C 0.65213 0.71241 0.51367 0.0
C517 C 0.66825 0.69444 0.50415 0.0
C518 C 0.71208 0.70772 0.50789 0.0
C519 C 0.74016 0.73901 0.52109 0.0
C520 C 0.72454 0.75722 0.53051 0.0
C521 C 0.68079 0.74411 0.52679 0.0
H522 H 0.77403 0.74916 0.52402 0.0
H523 H 0.34537 0.61812 0.49584 0.0
H524 H 0.69313 0.50136 0.86074 0.0
H525 H 0.75775 0.50225 0.86624 0.0
H526 H 0.82442 0.57486 0.81706 0.0
H527 H 0.76016 0.57501 0.81192 0.0
H528 H 0.83476 0.51795 0.81598 0.0
H529 H 0.85916 0.60956 0.86537 0.0
H530 H 0.8421 0.63431 0.89398 0.0
H531 H 0.82293 0.5474 0.92953 0.0
H532 H 0.8392 0.52172 0.90105 0.0
H533 H 0.05382 0.56096 0.84125 0.0
H534 H 0.99275 0.56352 0.83155 0.0
H535 H 0.91418 0.49402 0.88009 0.0
H536 H 0.9719 0.48875 0.88873 0.0
H537 H 0.91317 0.55399 0.88062 0.0
H538 H 0.88375 0.45982 0.83299 0.0
H539 H 0.89248 0.42832 0.80481 0.0
H540 H 0.91416 0.5131 0.7666 0.0
H541 H 0.90641 0.54559 0.79465 0.0
C542 C 0.72151 0.51775 0.85105 0.0
C543 C 0.72052 0.53816 0.83582 0.0
C544 C 0.75904 0.51837 0.8543 0.0
C545 C 0.79732 0.53876 0.84222 0.0
C546 C 0.79614 0.55879 0.82681 0.0
C547 C 0.75901 0.55899 0.82387 0.0
C548 C 0.8377 0.53867 0.84549 0.0
C549 C 0.8524 0.52669 0.83006 0.0
C550 C 0.86078 0.54863 0.86396 0.0
C551 C 0.8499 0.56343 0.88099 0.0
C552 C 0.85078 0.59542 0.87922 0.0
C553 C 0.84137 0.60969 0.89543 0.0
C554 C 0.83131 0.59237 0.91355 0.0
C555 C 0.83064 0.56074 0.91548 0.0
C556 C 0.83996 0.54632 0.89931 0.0
C557 C 1.02329 0.54552 0.84968 0.0
C558 C 1.01989 0.52562 0.86637 0.0
C559 C 0.98798 0.54724 0.84416 0.0
C560 C 0.948 0.5297 0.85525 0.0
C561 C 0.94415 0.50872 0.87127 0.0
C562 C 0.97825 0.50603 0.87635 0.0
C563 C 0.91057 0.53336 0.85105 0.0
C564 C 0.89612 0.54579 0.86641 0.0
C565 C 0.88733 0.52328 0.8326 0.0
C566 C 0.8955 0.50566 0.81603 0.0
C567 C 0.8914 0.47229 0.81868 0.0
C568 C 0.89589 0.45409 0.8027 0.0
C569 C 0.90413 0.46882 0.78395 0.0
C570 C 0.90804 0.50185 0.78115 0.0
C571 C 0.90369 0.52021 0.7971 0.0
H572 H 0.90727 0.45453 0.77157 0.0
H573 H 0.82415 0.60352 0.92609 0.0
H574 H 0.19656 0.62412 0.19403 0.0
H575 H 0.25857 0.69321 0.1987 0.0
H576 H 0.27755 0.70131 0.13583 0.0
H577 H 0.21619 0.63206 0.13133 0.0
H578 H 0.35467 0.74008 0.15321 0.0
H579 H 0.22384 0.73516 0.16413 0.0
H580 H 0.15481 0.71731 0.18015 0.0
H581 H 0.225 0.76172 0.2359 0.0
H582 H 0.29429 0.77959 0.22026 0.0
H583 H 0.48726 0.9554 0.16335 0.0
H584 H 0.42564 0.88788 0.15295 0.0
H585 H 0.43501 0.85053 0.20884 0.0
H586 H 0.49806 0.91595 0.21852 0.0
H587 H 0.34192 0.82946 0.1926 0.0
H588 H 0.46473 0.82368 0.18527 0.0
H589 H 0.53548 0.84036 0.17226 0.0
H590 H 0.48074 0.81243 0.11338 0.0
H591 H 0.40998 0.79668 0.12607 0.0
C592 C 0.21504 0.64061 0.18131 0.0
C593 C 0.20289 0.62271 0.16239 0.0
C594 C 0.24974 0.68026 0.18393 0.0
C595 C 0.27241 0.70291 0.16759 0.0
C596 C 0.26066 0.68466 0.14869 0.0
C597 C 0.22608 0.64501 0.14611 0.0
C598 C 0.30995 0.74512 0.17011 0.0
C599 C 0.35129 0.75963 0.16146 0.0
C600 C 0.30649 0.77078 0.18151 0.0
C601 C 0.26416 0.75833 0.19103 0.0
C602 C 0.2244 0.74068 0.17984 0.0
C603 C 0.18527 0.73071 0.18885 0.0
C604 C 0.18549 0.73827 0.20903 0.0
C605 C 0.22483 0.75581 0.22027 0.0
C606 C 0.26403 0.76589 0.21134 0.0
C607 C 0.47687 0.93269 0.17319 0.0
C608 C 0.49696 0.94159 0.19205 0.0
C609 C 0.44145 0.8942 0.16731 0.0
C610 C 0.42546 0.86433 0.18028 0.0
C611 C 0.44651 0.87308 0.19868 0.0
C612 C 0.48244 0.91083 0.20423 0.0
C613 C 0.38575 0.8239 0.17545 0.0
C614 C 0.34442 0.80981 0.18388 0.0
C615 C 0.38927 0.79832 0.16431 0.0
C616 C 0.43266 0.81023 0.15656 0.0
C617 C 0.46823 0.82221 0.16951 0.0
C618 C 0.50822 0.8312 0.16221 0.0
C619 C 0.51276 0.82777 0.14199 0.0
C620 C 0.47732 0.8154 0.12903 0.0
C621 C 0.43735 0.80659 0.13626 0.0
H622 H 0.54362 0.83444 0.13637 0.0
H623 H 0.15521 0.73065 0.21596 0.0
H624 H 0.62381 0.24856 0.47481 0.0
H625 H 0.63675 0.30933 0.48349 0.0
H626 H 0.49916 0.24502 0.50197 0.0
H627 H 0.48628 0.18492 0.49347 0.0
H628 H 0.52331 0.30217 0.4775 0.0
H629 H 0.58044 0.28271 0.53432 0.0
H630 H 0.62908 0.27651 0.55452 0.0
H631 H 0.74448 0.38937 0.53932 0.0
H632 H 0.69668 0.39588 0.51857 0.0
H633 H 0.50432 0.41511 0.5476 0.0
H634 H 0.50647 0.36724 0.52939 0.0
H635 H 0.64074 0.45764 0.51045 0.0
H636 H 0.63822 0.5056 0.52829 0.0
H637 H 0.62912 0.39579 0.53009 0.0
H638 H 0.56638 0.4166 0.47668 0.0
H639 H 0.51334 0.42245 0.46016 0.0
H640 H 0.40376 0.30556 0.47269 0.0
H641 H 0.45601 0.29916 0.48956 0.0
C642 C 0.59653 0.24765 0.48075 0.0
C643 C 0.55412 0.21221 0.48361 0.0
C644 C 0.60396 0.2822 0.48574 0.0
C645 C 0.56884 0.28151 0.49335 0.0
C646 C 0.52662 0.24612 0.49608 0.0
C647 C 0.5194 0.21184 0.49136 0.0
C648 C 0.57497 0.31727 0.49834 0.0
C649 C 0.5465 0.3227 0.48899 0.0
C650 C 0.60596 0.3444 0.51303 0.0
C651 C 0.63507 0.33939 0.52446 0.0
C652 C 0.61632 0.30585 0.53488 0.0
C653 C 0.64372 0.30237 0.54653 0.0
C654 C 0.68989 0.33242 0.54811 0.0
C655 C 0.70877 0.366 0.53798 0.0
C656 C 0.68155 0.36954 0.52622 0.0
C657 C 0.53399 0.42458 0.53937 0.0
C658 C 0.5712 0.46367 0.53931 0.0
C659 C 0.5351 0.39744 0.5289 0.0
C660 C 0.57367 0.40913 0.51852 0.0
C661 C 0.61065 0.44827 0.51828 0.0
C662 C 0.60922 0.47547 0.52844 0.0
C663 C 0.57676 0.38 0.50961 0.0
C664 C 0.60688 0.37582 0.51822 0.0
C665 C 0.54678 0.35366 0.49452 0.0
C666 C 0.51514 0.35752 0.48454 0.0
C667 C 0.53092 0.39226 0.4761 0.0
C668 C 0.50099 0.39564 0.46663 0.0
C669 C 0.4552 0.36443 0.46541 0.0
C670 C 0.43924 0.32974 0.47365 0.0
C671 C 0.46901 0.3262 0.48315 0.0
H672 H 0.4321 0.36709 0.45806 0.0
H673 H 0.71099 0.32978 0.55726 0.0
H674 H 0.4688 0.53527 0.80576 0.0
H675 H 0.40262 0.53244 0.8097 0.0
H676 H 0.4048 0.51852 0.87207 0.0
H677 H 0.46754 0.51657 0.86741 0.0
H678 H 0.32863 0.48646 0.86772 0.0
H679 H 0.43641 0.61064 0.84034 0.0
H680 H 0.49083 0.65666 0.81615 0.0
H681 H 0.3887 0.59692 0.77067 0.0
H682 H 0.33383 0.55045 0.79455 0.0
H683 H 0.20918 0.5598 0.89374 0.0
H684 H 0.26733 0.55472 0.8849 0.0
H685 H 0.20167 0.50142 0.82891 0.0
H686 H 0.13927 0.50281 0.83857 0.0
H687 H 0.30459 0.56415 0.8283 0.0
H688 H 0.19639 0.44402 0.86004 0.0
H689 H 0.14685 0.40169 0.8864 0.0
H690 H 0.25831 0.46359 0.92746 0.0
H691 H 0.30844 0.50642 0.90137 0.0
C692 C 0.45519 0.53159 0.82035 0.0
C693 C 0.47449 0.52637 0.83621 0.0
C694 C 0.41709 0.53066 0.82278 0.0
C695 C 0.39763 0.52676 0.84147 0.0
C696 C 0.41742 0.52162 0.85733 0.0
C697 C 0.45422 0.52078 0.8547 0.0
C698 C 0.35673 0.52693 0.84455 0.0
C699 C 0.32463 0.50429 0.85914 0.0
C700 C 0.34838 0.54893 0.83348 0.0
C701 C 0.38119 0.57691 0.81917 0.0
C702 C 0.42566 0.60729 0.82516 0.0
C703 C 0.45656 0.63344 0.81151 0.0
C704 C 0.44325 0.62965 0.79188 0.0
C705 C 0.39898 0.5998 0.78587 0.0
C706 C 0.36796 0.57359 0.79945 0.0
C707 C 0.20532 0.54569 0.87966 0.0
C708 C 0.16663 0.53003 0.86747 0.0
C709 C 0.23987 0.54332 0.87449 0.0
C710 C 0.23969 0.52693 0.85632 0.0
C711 C 0.20317 0.51375 0.84325 0.0
C712 C 0.16719 0.51486 0.84877 0.0
C713 C 0.27785 0.52433 0.85151 0.0
C714 C 0.30928 0.54661 0.83676 0.0
C715 C 0.28658 0.50315 0.86289 0.0
C716 C 0.25603 0.47866 0.87879 0.0
C717 C 0.21019 0.44892 0.87475 0.0
C718 C 0.18205 0.42472 0.88963 0.0
C719 C 0.19939 0.43001 0.90861 0.0
C720 C 0.2449 0.45955 0.91277 0.0
C721 C 0.27319 0.48375 0.89794 0.0
H722 H 0.17759 0.41115 0.92008 0.0
H723 H 0.46722 0.64989 0.78133 0.0
H724 H 0.97847 0.36931 0.15545 0.0
H725 H 0.91364 0.30399 0.16204 0.0
H726 H 0.83287 0.34145 0.17059 0.0
H727 H 0.8991 0.40807 0.16498 0.0
H728 H 0.81222 0.29241 0.19677 0.0
H729 H 0.83303 0.29175 0.12652 0.0
H730 H 0.87394 0.30035 0.09611 0.0
H731 H 0.89123 0.21855 0.1145 0.0
H732 H 0.85128 0.21007 0.14522 0.0
H733 H 0.5997 0.10898 0.19132 0.0
H734 H 0.66545 0.17386 0.1832 0.0
H735 H 0.74509 0.13471 0.17848 0.0
H736 H 0.67884 0.06954 0.18642 0.0
H737 H 0.76772 0.18383 0.15085 0.0
H738 H 0.74558 0.18203 0.22001 0.0
H739 H 0.70828 0.17435 0.25145 0.0
H740 H 0.69619 0.2608 0.2363 0.0
H741 H 0.73229 0.26831 0.20454 0.0
C742 C 0.94685 0.36379 0.1585 0.0
C743 C 0.94384 0.39397 0.15924 0.0
C744 C 0.90957 0.32614 0.16223 0.0
C745 C 0.86767 0.31717 0.16623 0.0
C746 C 0.86462 0.34737 0.16732 0.0
C747 C 0.90241 0.38545 0.16399 0.0
C748 C 0.82744 0.2765 0.16956 0.0
C749 C 0.80197 0.26879 0.1865 0.0
C750 C 0.81509 0.24515 0.15669 0.0
C751 C 0.8395 0.25057 0.13827 0.0
C752 C 0.84591 0.27586 0.12417 0.0
C753 C 0.86892 0.2807 0.10687 0.0
C754 C 0.88525 0.26008 0.1034 0.0
C755 C 0.87864 0.23458 0.11723 0.0
C756 C 0.85585 0.22977 0.13459 0.0
C757 C 0.63091 0.11402 0.18785 0.0
C758 C 0.63403 0.08414 0.18902 0.0
C759 C 0.66869 0.15124 0.18358 0.0
C760 C 0.71064 0.15955 0.18065 0.0
C761 C 0.71322 0.12918 0.18077 0.0
C762 C 0.6753 0.09183 0.18505 0.0
C763 C 0.75175 0.19993 0.17775 0.0
C764 C 0.77768 0.2075 0.16102 0.0
C765 C 0.76464 0.23108 0.19089 0.0
C766 C 0.74118 0.22536 0.20971 0.0
C767 C 0.73434 0.19898 0.22321 0.0
C768 C 0.7135 0.19473 0.24114 0.0
C769 C 0.69977 0.217 0.24585 0.0
C770 C 0.70671 0.24347 0.23262 0.0
C771 C 0.72727 0.24767 0.21463 0.0
H772 H 0.68389 0.21383 0.25978 0.0
H773 H 0.90294 0.26379 0.08997 0.0
H774 H 0.13062 0.54419 0.09968 0.0
H775 H 0.1404 0.54496 0.06376 0.0
H776 H 0.99755 0.48018 0.05494 0.0
H777 H 0.98808 0.48087 0.09078 0.0
H778 H 1.03633 0.45381 0.02994 0.0
H779 H 0.06278 0.57228 0.05037 0.0
H780 H 0.10081 0.63394 0.06927 0.0
H781 H 0.22677 0.67512 0.04358 0.0
H782 H 0.18965 0.6133 0.02487 0.0
H783 H 1.01528 0.48319 0.93014 0.0
H784 H 1.01266 0.48019 0.96608 0.0
H785 H 0.15745 0.56018 0.96951 0.0
H786 H 0.16021 0.56367 0.93355 0.0
H787 H 0.12315 0.57869 -0.0026 0.0
H788 H 0.10149 0.46562 0.976 0.0
H789 H 0.0683 0.40499 0.95682 0.0
H790 H 0.94088 0.35428 0.98385 0.0
H791 H 0.97303 0.41494 0.0029 0.0
C792 C 0.1013 0.52977 0.09005 0.0
C793 C 0.05855 0.51239 0.09802 0.0
C794 C 0.10691 0.53033 0.06951 0.0
C795 C 0.06973 0.5127 0.0565 0.0
C796 C 1.0268 0.49401 0.06456 0.0
C797 C 1.02138 0.49446 0.08505 0.0
C798 C 0.07554 0.51512 0.03457 0.0
C799 C 0.05493 0.48108 0.02282 0.0
C800 C 0.10121 0.55077 0.02517 0.0
C801 C 0.12354 0.58789 0.03647 0.0
C802 C 0.09869 0.59426 0.04895 0.0
C803 C 0.12007 0.62929 0.0596 0.0
C804 C 0.16622 0.65837 0.0577 0.0
C805 C 0.19106 0.65251 0.0451 0.0
C806 C 0.16987 0.61747 0.03449 0.0
C807 C 1.04658 0.50034 0.93853 0.0
C808 C 0.08796 0.52359 0.92887 0.0
C809 C 1.04507 0.49836 0.95913 0.0
C810 C 0.08487 0.51962 0.97067 0.0
C811 C 0.12621 0.54335 0.96106 0.0
C812 C 0.12776 0.54513 0.94044 0.0
C813 C 0.08323 0.51732 0.9927 0.0
C814 C 0.10471 0.55137 0.00447 0.0
C815 C 0.05912 0.48174 0.00212 0.0
C816 C 1.03958 0.44505 0.99075 0.0
C817 C 0.06626 0.44169 0.97773 0.0
C818 C 1.04765 0.40729 0.96689 0.0
C819 C 1.00248 0.37583 0.96907 0.0
C820 C 0.97585 0.37871 0.98214 0.0
C821 C 0.99426 0.41311 0.99297 0.0
H822 H 0.98813 0.3492 0.96068 0.0
H823 H 0.18269 0.68549 0.06593 0.0
H824 H 0.6312 0.07914 0.41803 0.0
H825 H 0.62298 0.08076 0.38235 0.0
H826 H 0.50584 0.96125 0.38099 0.0
H827 H 0.51288 0.96004 0.41681 0.0
H828 H 0.58045 0.98332 0.35475 0.0
H829 H 0.48457 0.01579 0.3725 0.0
H830 H 0.46391 0.05248 0.39006 0.0
H831 H 0.57327 0.15585 0.36337 0.0
H832 H 0.59506 0.11987 0.34589 0.0
H833 H 0.52758 0.9613 0.25491 0.0
H834 H 0.52596 0.96171 0.29025 0.0
H835 H 0.60736 0.08557 0.29282 0.0
H836 H 0.6032 0.08511 0.25704 0.0
H837 H 0.55017 0.06102 0.31921 0.0
H838 H 0.64763 0.02905 0.30161 0.0
H839 H 0.66851 0.99231 0.28423 0.0
H840 H 0.55895 0.88899 0.31086 0.0
H841 H 0.53709 0.92499 0.32822 0.0
C842 C 0.60328 0.05353 0.41009 0.0
C843 C 0.57265 0.01951 0.41991 0.0
C844 C 0.59857 0.05448 0.38983 0.0
C845 C 0.56388 0.02111 0.37918 0.0
C846 C 0.53266 0.98727 0.38908 0.0
C847 C 0.53659 0.98665 0.40943 0.0
C848 C 0.56261 0.02088 0.35751 0.0
C849 C 0.57331 0.99987 0.34687 0.0
C850 C 0.5546 0.04345 0.3475 0.0
C851 C 0.54179 0.06522 0.35809 0.0
C852 C 0.50455 0.04643 0.37056 0.0
C853 C 0.49256 0.06708 0.38046 0.0
C854 C 0.51736 0.1065 0.37789 0.0
C855 C 0.55415 0.12533 0.36538 0.0
C856 C 0.56633 0.10482 0.35547 0.0
C857 C 0.54396 0.98877 0.26275 0.0
C858 C 0.56472 0.02316 0.25275 0.0
C859 C 0.54416 0.98896 0.28319 0.0
C860 C 0.5677 0.02372 0.29433 0.0
C861 C 0.58916 0.0583 0.28455 0.0
C862 C 0.58725 0.05801 0.26399 0.0
C863 C 0.56848 0.02364 0.31616 0.0
C864 C 0.5577 0.0446 0.32693 0.0
C865 C 0.57691 1.00124 0.32633 0.0
C866 C 0.59058 0.97972 0.31613 0.0
C867 C 0.6279 0.99848 0.3037 0.0
C868 C 0.6399 0.97778 0.29386 0.0
C869 C 0.61503 0.93834 0.29642 0.0
C870 C 0.57819 0.91954 0.30889 0.0
C871 C 0.56603 0.94009 0.31876 0.0
H872 H 0.62434 0.92236 0.28876 0.0
H873 H 0.508 0.12243 0.38556 0.0
H874 H 0.56968 0.55647 0.77451 0.0
H875 H 0.57454 0.56617 0.73893 0.0
H876 H 0.60494 0.4875 0.72964 0.0
H877 H 0.60143 0.47888 0.76526 0.0
H878 H 0.65469 0.54746 0.70625 0.0
H879 H 0.49691 0.45943 0.72411 0.0
H880 H 0.4296 0.44105 0.74201 0.0
H881 H 0.44123 0.53479 0.71768 0.0
H882 H 0.50899 0.55403 0.69985 0.0
H883 H 0.60252 0.49227 0.60663 0.0
H884 H 0.60495 0.4938 0.64219 0.0
H885 H 0.55175 0.5563 0.64486 0.0
H886 H 0.54259 0.54976 0.60931 0.0
H887 H 0.51783 0.51196 0.6721 0.0
H888 H 0.67191 0.59926 0.65271 0.0
H889 H 0.73822 0.61813 0.63372 0.0
H890 H 0.73555 0.53038 0.66025 0.0
H891 H 0.66899 0.51076 0.67925 0.0
C892 C 0.57816 0.54188 0.76481 0.0
C893 C 0.58542 0.51711 0.77239 0.0
C894 C 0.58064 0.54719 0.74454 0.0
C895 C 0.58948 0.52712 0.73158 0.0
C896 C 0.59812 0.5033 0.73934 0.0
C897 C 0.59605 0.49829 0.75961 0.0
C898 C 0.58757 0.52921 0.70988 0.0
C899 C 0.62473 0.53958 0.69875 0.0
C900 C 0.549 0.52006 0.70011 0.0
C901 C 0.50828 0.50841 0.71084 0.0
C902 C 0.4853 0.47629 0.72271 0.0
C903 C 0.44705 0.4657 0.73282 0.0
C904 C 0.43123 0.48681 0.73103 0.0
C905 C 0.45357 0.51851 0.71909 0.0
C906 C 0.49189 0.52927 0.70898 0.0
C907 C 0.59 0.50543 0.61459 0.0
C908 C 0.5725 0.52104 0.60466 0.0
C909 C 0.59265 0.50723 0.63513 0.0
C910 C 0.58022 0.5265 0.64637 0.0
C911 C 0.56222 0.5417 0.63661 0.0
C912 C 0.55774 0.53848 0.61609 0.0
C913 C 0.58487 0.52991 0.66827 0.0
C914 C 0.5482 0.52053 0.6795 0.0
C915 C 0.6242 0.54062 0.67813 0.0
C916 C 0.66537 0.55346 0.66734 0.0
C917 C 0.68549 0.58401 0.65449 0.0
C918 C 0.72308 0.59481 0.64371 0.0
C919 C 0.74104 0.57543 0.64576 0.0
C920 C 0.72162 0.54538 0.65869 0.0
C921 C 0.68405 0.53448 0.66951 0.0
H922 H 0.77002 0.58373 0.63734 0.0
H923 H 0.40159 0.47855 0.73886 0.0
H924 H 0.50652 0.03098 0.54437 0.0
H925 H 0.51316 0.024 0.57916 0.0
H926 H 0.60458 0.9992 0.56566 0.0
H927 H 0.59729 0.00552 0.5303 0.0
H928 H 0.54149 0.95183 0.59487 0.0
H929 H 0.64778 0.08631 0.58372 0.0
H930 H 0.67412 0.14826 0.57079 0.0
H931 H 0.57646 0.14533 0.6053 0.0
H932 H 0.54913 0.08311 0.61822 0.0
H933 H 0.60378 0.98802 0.69846 0.0
H934 H 0.60535 0.98801 0.66247 0.0
H935 H 0.51346 0.01467 0.66215 0.0
H936 H 0.51093 0.01394 0.6981 0.0
H937 H 0.58768 0.06252 0.63959 0.0
H938 H 0.47785 0.92647 0.64886 0.0
H939 H 0.45158 0.86519 0.66265 0.0
H940 H 0.55608 0.87137 0.63262 0.0
H941 H 0.58347 0.9331 0.61889 0.0
C942 C 0.52805 0.02398 0.54872 0.0
C943 C 0.5517 0.01913 0.53461 0.0
C944 C 0.53181 0.02 0.56865 0.0
C945 C 0.55985 0.01162 0.57508 0.0
C946 C 0.58284 0.00578 0.56102 0.0
C947 C 0.57885 0.00958 0.54088 0.0
C948 C 0.56573 0.01057 0.5966 0.0
C949 C 0.55247 0.97625 0.60465 0.0
C950 C 0.57952 0.04226 0.60941 0.0
C951 C 0.59625 0.07993 0.60184 0.0
C952 C 0.63176 0.09877 0.58846 0.0
C953 C 0.64688 0.13395 0.58114 0.0
C954 C 0.62693 0.15068 0.58719 0.0
C955 C 0.59189 0.13233 0.60062 0.0
C956 C 0.57662 0.09714 0.60797 0.0
C957 C 0.58325 0.9932 0.69072 0.0
C958 C 0.55724 1.00104 0.70118 0.0
C959 C 0.58434 0.99332 0.67015 0.0
C960 C 0.55947 1.00127 0.65964 0.0
C961 C 0.53308 0.00864 0.67 0.0
C962 C 0.53181 0.00837 0.69055 0.0
C963 C 0.56214 0.00353 0.63789 0.0
C964 C 0.57726 0.03822 0.62982 0.0
C965 C 0.55014 0.97223 0.62519 0.0
C966 C 0.53299 0.93461 0.63299 0.0
C967 C 0.49542 0.9149 0.64528 0.0
C968 C 0.4803 0.88007 0.65309 0.0
C969 C 0.50222 0.86445 0.64855 0.0
C970 C 0.53918 0.88355 0.63614 0.0
C971 C 0.55449 0.91844 0.62832 0.0
H972 H 0.49051 0.8375 0.65463 0.0
H973 H 0.63865 0.1779 0.5815 0.0
H974 H 0.54988 0.48489 0.87718 0.0
H975 H 0.53783 0.46382 0.91072 0.0
H976 H 0.64913 0.57941 0.93087 0.0
H977 H 0.66487 0.59919 0.89674 0.0
H978 H 0.64972 0.53362 0.95079 0.0
H979 H 0.53308 0.53961 0.93153 0.0
H980 H 0.46996 0.5254 0.9116 0.0
H981 H 0.39158 0.40572 0.92389 0.0
H982 H 0.45458 0.41902 0.94347 0.0
H983 H 0.57187 0.51267 0.04916 0.0
H984 H 0.59099 0.53247 0.01507 0.0
H985 H 0.50755 0.41313 0.9948 0.0
H986 H 0.48837 0.39329 0.02901 0.0
H987 H 0.49435 0.46079 0.97564 0.0
H988 H 0.61673 0.46307 -0.00088 0.0
H989 H 0.68098 0.48509 0.02083 0.0
H990 H 0.75065 0.60089 0.00293 0.0
H991 H 0.68634 0.57987 0.98158 0.0
C992 C 0.5725 0.50542 0.88872 0.0
C993 C 0.60856 0.54338 0.88458 0.0
C994 C 0.56515 0.49358 0.90788 0.0
C995 C 0.59181 0.52034 0.92328 0.0
C996 C 0.62816 0.55836 0.91913 0.0
C997 C 0.63696 0.56969 0.89976 0.0
C998 C 0.58102 0.50885 0.94374 0.0
C999 C 0.61588 0.51818 0.95632 0.0
C1000 C 0.53665 0.48835 0.95076 0.0
C1001 C 0.49882 0.48029 0.9388 0.0
C1002 C 0.50256 0.51021 0.92982 0.0
C1003 C 0.46678 0.50231 0.91859 0.0
C1004 C 0.42684 0.46468 0.91644 0.0
C1005 C 0.42258 0.43485 0.92552 0.0
C1006 C 0.45834 0.44254 0.93666 0.0
C1007 C 0.55741 0.49086 0.0373 0.0
C1008 C 0.52887 0.4516 0.04125 0.0
C1009 C 0.56861 0.50211 0.01804 0.0
C1010 C 0.55135 0.4741 0.00276 0.0
C1011 C 0.52139 0.43487 0.00666 0.0
C1012 C 0.51019 0.42359 0.02596 0.0
C1013 C 0.56295 0.48569 0.98252 0.0
C1014 C 0.52815 0.4763 0.97001 0.0
C1015 C 0.60762 0.50745 0.97588 0.0
C1016 C 0.64625 0.51989 0.98889 0.0
C1017 C 0.64541 0.49332 -0.0 0.0
C1018 C 0.68194 0.50564 0.01223 0.0
C1019 C 0.71981 0.54437 0.01331 0.0
C1020 C 0.72125 0.5709 0.00214 0.0
C1021 C 0.68472 0.5588 0.99 0.0
H1022 H 0.74807 0.55382 0.02276 0.0
H1023 H 0.39915 0.45866 0.90778 0.0
H1024 H 0.11765 0.56095 0.21765 0.0
H1025 H 0.11289 0.56647 0.25361 0.0
H1026 H 1.00644 0.4442 0.25466 0.0
H1027 H 1.01172 0.43849 0.21895 0.0
H1028 H 0.98931 0.48537 0.27941 0.0
H1029 H 0.10775 0.47728 0.26627 0.0
H1030 H 0.17842 0.49487 0.25249 0.0
H1031 H 0.25213 0.60586 0.28244 0.0
H1032 H 0.18169 0.58921 0.29608 0.0
H1033 H 1.01666 0.44825 0.37933 0.0
H1034 H 1.01638 0.44874 0.34343 0.0
H1035 H 0.09023 0.5715 0.34636 0.0
H1036 H 0.08708 0.5713 0.38207 0.0
H1037 H 0.12383 0.53288 0.3202 0.0
H1038 H 1.00331 0.53914 0.33395 0.0
H1039 H 0.93344 0.51685 0.35073 0.0
H1040 H 0.86396 0.40565 0.32143 0.0
H1041 H 0.93386 0.42706 0.3048 0.0
C1042 C 0.09296 0.53537 0.22556 0.0
C1043 C 0.06525 0.49924 0.21551 0.0
C1044 C 0.09033 0.53851 0.2461 0.0
C1045 C 0.05945 0.50568 0.2569 0.0
C1046 C 1.03049 0.46992 0.24671 0.0
C1047 C 1.03368 0.46668 0.22629 0.0
C1048 C 0.05874 0.50804 0.27887 0.0
C1049 C 1.01874 0.4957 0.28827 0.0
C1050 C 0.09712 0.52168 0.2906 0.0
C1051 C 0.13931 0.53226 0.28189 0.0
C1052 C 0.13891 0.50568 0.26965 0.0
C1053 C 0.17896 0.51542 0.26192 0.0
C1054 C 0.21971 0.55154 0.2665 0.0
C1055 C 0.2205 0.57797 0.27883 0.0
C1056 C 0.18052 0.56841 0.28654 0.0
C1057 C 1.032 0.47537 0.37252 0.0
C1058 C 0.05221 0.50979 0.384 0.0
C1059 C 1.03222 0.47556 0.35191 0.0
C1060 C 0.05354 0.51019 0.34231 0.0
C1061 C 0.07392 0.54452 0.35353 0.0
C1062 C 0.07248 0.54427 0.37408 0.0
C1063 C 0.05483 0.51063 0.32051 0.0
C1064 C 0.09475 0.52319 0.31123 0.0
C1065 C 1.01648 0.49712 0.30896 0.0
C1066 C 0.97396 0.48457 0.3183 0.0
C1067 C 0.97326 0.50982 0.33121 0.0
C1068 C 0.93364 0.49737 0.34069 0.0
C1069 C 0.89431 0.45981 0.33719 0.0
C1070 C 0.89449 0.43472 0.32414 0.0
C1071 C 0.93411 0.44701 0.31468 0.0
H1072 H 0.86366 0.45019 0.34456 0.0
H1073 H 0.25071 0.55897 0.26056 0.0
loop_
_geom_bond_atom_site_label_1
_geom_bond_atom_site_label_2
_geom_bond_distance
_geom_bond_site_symmetry_2
_ccdc_geom_bond_type
Sm0 C2 2.846 . S
Sm0 O20 2.543 . S
Sm0 O21 2.450 . S
Sm0 O22 2.681 . S
Sm0 O23 2.464 . S
Sm0 O24 2.396 . S
Sm0 O28 2.386 . S
Sm0 O31 2.408 1_455 S
Sm1 C11 2.846 . S
Sm1 O22 2.386 1_655 S
Sm1 O25 2.408 1_655 S
Sm1 O26 2.543 . S
Sm1 O27 2.450 . S
Sm1 O28 2.681 1_655 S
Sm1 O29 2.464 . S
Sm1 O30 2.396 . S
C2 Sm0 2.846 . S
C2 C3 1.506 . S
C2 O20 1.261 . S
C2 O21 1.242 . S
C3 C2 1.506 . S
C3 C4 1.358 . S
C3 C8 1.382 . S
C4 C3 1.358 . S
C4 C5 1.385 . S
C4 H32 0.930 . S
C5 C4 1.385 . S
C5 C6 1.395 . S
C5 H33 0.929 . S
C6 C5 1.395 . S
C6 C7 1.335 . S
C7 C6 1.335 . S
C7 C8 1.398 . S
C7 H34 0.930 . S
C8 C3 1.382 . S
C8 C7 1.398 . S
C8 H35 0.929 . S
C9 O22 1.271 . S
C9 O23 1.251 . S
C10 O24 1.252 . S
C10 O25 1.272 . S
C11 Sm1 2.846 . S
C11 C12 1.506 . S
C11 O26 1.261 . S
C11 O27 1.242 . S
C12 C11 1.506 . S
C12 C13 1.358 . S
C12 C17 1.382 . S
C13 C12 1.358 . S
C13 C14 1.385 . S
C13 H36 0.930 . S
C14 C13 1.385 . S
C14 C15 1.395 . S
C14 H37 0.929 . S
C15 C14 1.395 . S
C15 C16 1.335 . S
C16 C15 1.335 . S
C16 C17 1.398 . S
C16 H38 0.930 . S
C17 C12 1.382 . S
C17 C16 1.398 . S
C17 H39 0.929 . S
C18 O28 1.271 . S
C18 O29 1.251 1_455 S
C19 O30 1.252 . S
C19 O31 1.272 . S
O20 Sm0 2.543 . S
O20 C2 1.261 . S
O21 Sm0 2.450 . S
O21 C2 1.242 . S
O22 Sm0 2.681 . S
O22 Sm1 2.386 1_455 S
O22 C9 1.271 . S
O23 Sm0 2.464 . S
O23 C9 1.251 . S
O24 Sm0 2.396 . S
O24 C10 1.252 . S
O25 Sm1 2.408 1_455 S
O25 C10 1.272 . S
O26 Sm1 2.543 . S
O26 C11 1.261 . S
O27 Sm1 2.450 . S
O27 C11 1.242 . S
O28 Sm0 2.386 . S
O28 Sm1 2.681 1_455 S
O28 C18 1.271 . S
O29 Sm1 2.464 . S
O29 C18 1.251 1_655 S
O30 Sm1 2.396 . S
O30 C19 1.252 . S
O31 Sm0 2.408 1_655 S
O31 C19 1.272 . S
H32 C4 0.930 . S
H33 C5 0.929 . S
H34 C7 0.930 . S
H35 C8 0.929 . S
H36 C13 0.930 . S
H37 C14 0.929 . S
H38 C16 0.930 . S
H39 C17 0.929 . S
Sm40 C42 2.846 . S
Sm40 O60 2.543 . S
Sm40 O61 2.450 . S
Sm40 O62 2.681 1_565 S
Sm40 O63 2.464 . S
Sm40 O64 2.396 . S
Sm40 O68 2.405 . S
Sm40 O71 2.408 1_565 S
Sm41 C51 2.846 . S
Sm41 O62 2.386 . S
Sm41 O65 2.408 1_545 S
Sm41 O66 2.543 . S
Sm41 O67 2.450 . S
Sm41 O68 2.652 1_545 S
Sm41 O69 2.464 . S
Sm41 O70 2.396 . S
C42 Sm40 2.846 . S
C42 C43 1.506 . S
C42 O60 1.261 . S
C42 O61 1.242 . S
C43 C42 1.506 . S
C43 C44 1.358 . S
C43 C48 1.382 . S
C44 C43 1.358 . S
C44 C45 1.385 . S
C44 H72 0.930 . S
C45 C44 1.385 . S
C45 C46 1.395 . S
C45 H73 0.929 . S
C46 C45 1.395 . S
C46 C47 1.335 . S
C47 C46 1.335 . S
C47 C48 1.398 . S
C47 H74 0.930 . S
C48 C43 1.382 . S
C48 C47 1.398 . S
C48 H75 0.929 . S
C49 O62 1.271 . S
C49 O63 1.251 1_545 S
C50 O64 1.252 . S
C50 O65 1.272 . S
C51 Sm41 2.846 . S
C51 C52 1.506 . S
C51 O66 1.261 . S
C51 O67 1.242 . S
C52 C51 1.506 . S
C52 C53 1.358 . S
C52 C57 1.382 . S
C53 C52 1.358 . S
C53 C54 1.385 . S
C53 H76 0.930 . S
C54 C53 1.385 . S
C54 C55 1.395 . S
C54 H77 0.929 . S
C55 C54 1.395 . S
C55 C56 1.335 . S
C56 C55 1.335 . S
C56 C57 1.398 . S
C56 H78 0.930 . S
C57 C52 1.382 . S
C57 C56 1.398 . S
C57 H79 0.929 . S
C58 O68 1.255 1_545 S
C58 O69 1.251 . S
C59 O70 1.252 . S
C59 O71 1.272 . S
O60 Sm40 2.543 . S
O60 C42 1.261 . S
O61 Sm40 2.450 . S
O61 C42 1.242 . S
O62 Sm40 2.681 1_545 S
O62 Sm41 2.386 . S
O62 C49 1.271 . S
O63 Sm40 2.464 . S
O63 C49 1.251 1_565 S
O64 Sm40 2.396 . S
O64 C50 1.252 . S
O65 Sm41 2.408 1_565 S
O65 C50 1.272 . S
O66 Sm41 2.543 . S
O66 C51 1.261 . S
O67 Sm41 2.450 . S
O67 C51 1.242 . S
O68 Sm40 2.405 . S
O68 Sm41 2.652 1_565 S
O68 C58 1.255 1_565 S
O69 Sm41 2.464 . S
O69 C58 1.251 . S
O70 Sm41 2.396 . S
O70 C59 1.252 . S
O71 Sm40 2.408 1_545 S
O71 C59 1.272 . S
H72 C44 0.930 . S
H73 C45 0.929 . S
H74 C47 0.930 . S
H75 C48 0.929 . S
H76 C53 0.930 . S
H77 C54 0.929 . S
H78 C56 0.930 . S
H79 C57 0.929 . S
Sm80 C82 2.846 . S
Sm80 O100 2.543 . S
Sm80 O101 2.450 . S
Sm80 O102 2.681 . S
Sm80 O103 2.464 . S
Sm80 O104 2.396 . S
Sm80 O108 2.386 . S
Sm80 O111 2.408 . S
Sm81 C91 2.846 . S
Sm81 O102 2.386 . S
Sm81 O105 2.408 . S
Sm81 O106 2.543 . S
Sm81 O107 2.450 . S
Sm81 O108 2.681 . S
Sm81 O109 2.464 . S
Sm81 O110 2.396 . S
C82 Sm80 2.846 . S
C82 C83 1.506 . S
C82 O100 1.261 . S
C82 O101 1.242 . S
C83 C82 1.506 . S
C83 C84 1.358 . S
C83 C88 1.382 . S
C84 C83 1.358 . S
C84 C85 1.385 . S
C84 H112 0.930 . S
C85 C84 1.385 . S
C85 C86 1.395 . S
C85 H113 0.929 . S
C86 C85 1.395 . S
C86 C87 1.335 . S
C87 C86 1.335 . S
C87 C88 1.398 . S
C87 H114 0.930 . S
C88 C83 1.382 . S
C88 C87 1.398 . S
C88 H115 0.929 . S
C89 O102 1.271 . S
C89 O103 1.251 . S
C90 O104 1.252 . S
C90 O105 1.272 . S
C91 Sm81 2.846 . S
C91 C92 1.506 . S
C91 O106 1.261 . S
C91 O107 1.242 . S
C92 C91 1.506 . S
C92 C93 1.358 . S
C92 C97 1.382 . S
C93 C92 1.358 . S
C93 C94 1.385 . S
C93 H116 0.930 . S
C94 C93 1.385 . S
C94 C95 1.395 . S
C94 H117 0.929 . S
C95 C94 1.395 . S
C95 C96 1.335 . S
C96 C95 1.335 . S
C96 C97 1.398 . S
C96 H118 0.930 . S
C97 C92 1.382 . S
C97 C96 1.398 . S
C97 H119 0.929 . S
C98 O108 1.271 . S
C98 O109 1.251 . S
C99 O110 1.252 . S
C99 O111 1.272 . S
O100 Sm80 2.543 . S
O100 C82 1.261 . S
O101 Sm80 2.450 . S
O101 C82 1.242 . S
O102 Sm80 2.681 . S
O102 Sm81 2.386 . S
O102 C89 1.271 . S
O103 Sm80 2.464 . S
O103 C89 1.251 . S
O104 Sm80 2.396 . S
O104 C90 1.252 . S
O105 Sm81 2.408 . S
O105 C90 1.272 . S
O106 Sm81 2.543 . S
O106 C91 1.261 . S
O107 Sm81 2.450 . S
O107 C91 1.242 . S
O108 Sm80 2.386 . S
O108 Sm81 2.681 . S
O108 C98 1.271 . S
O109 Sm81 2.464 . S
O109 C98 1.251 . S
O110 Sm81 2.396 . S
O110 C99 1.252 . S
O111 Sm80 2.408 . S
O111 C99 1.272 . S
H112 C84 0.930 . S
H113 C85 0.929 . S
H114 C87 0.930 . S
H115 C88 0.929 . S
H116 C93 0.930 . S
H117 C94 0.929 . S
H118 C96 0.930 . S
H119 C97 0.929 . S
H120 C123 0.931 . S
H121 C126 0.928 . S
H122 C128 0.930 . S
C123 H120 0.931 . S
C123 C124 1.413 . S
C123 C125 1.360 1_565 S
C124 C123 1.413 . S
C124 C128 1.429 1_565 S
C125 C123 1.360 1_545 S
C125 C126 1.372 . S
C126 H121 0.928 . S
C126 C125 1.372 . S
C126 C127 1.404 . S
C127 C126 1.404 . S
C127 C128 1.391 . S
C128 H122 0.930 . S
C128 C124 1.429 1_545 S
C128 C127 1.391 . S
H129 C132 0.931 . S
H130 C135 0.928 . S
H131 C137 0.930 . S
C132 H129 0.931 . S
C132 C133 1.413 . S
C132 C134 1.360 . S
C133 C132 1.413 . S
C133 C137 1.429 . S
C134 C132 1.360 . S
C134 C135 1.372 . S
C135 H130 0.928 . S
C135 C134 1.372 . S
C135 C136 1.404 . S
C136 C135 1.404 . S
C136 C137 1.391 . S
C137 H131 0.930 . S
C137 C133 1.429 . S
C137 C136 1.391 . S
H138 C141 0.931 1_655 S
H139 C144 0.928 . S
H140 C146 0.930 . S
C141 H138 0.931 1_455 S
C141 C142 1.413 . S
C141 C143 1.360 . S
C142 C141 1.413 . S
C142 C146 1.429 . S
C143 C141 1.360 . S
C143 C144 1.372 . S
C144 H139 0.928 . S
C144 C143 1.372 . S
C144 C145 1.404 . S
C145 C144 1.404 . S
C145 C146 1.391 . S
C146 H140 0.930 . S
C146 C142 1.429 . S
C146 C145 1.391 . S
H147 C150 0.931 . S
H148 C153 0.928 . S
H149 C155 0.930 . S
C150 H147 0.931 . S
C150 C151 1.413 . S
C150 C152 1.360 1_655 S
C151 C150 1.413 . S
C151 C155 1.429 1_655 S
C152 C150 1.360 1_455 S
C152 C153 1.371 . S
C153 H148 0.928 . S
C153 C152 1.371 . S
C153 C154 1.404 . S
C154 C153 1.404 . S
C154 C155 1.391 . S
C155 H149 0.930 . S
C155 C151 1.429 1_455 S
C155 C154 1.391 . S
H156 C159 0.931 . S
H157 C162 0.928 . S
H158 C164 0.930 . S
C159 H156 0.931 . S
C159 C160 1.413 . S
C159 C161 1.389 . S
C160 C159 1.413 . S
C160 C164 1.429 . S
C161 C159 1.389 . S
C161 C162 1.343 1_545 S
C162 H157 0.928 . S
C162 C161 1.343 1_565 S
C162 C163 1.404 . S
C163 C162 1.404 . S
C163 C164 1.391 1_565 S
C164 H158 0.930 . S
C164 C160 1.429 . S
C164 C163 1.391 1_545 S
H165 C168 0.931 . S
H166 C171 0.928 . S
H167 C173 0.930 . S
C168 H165 0.931 . S
C168 C169 1.413 . S
C168 C170 1.360 . S
C169 C168 1.413 . S
C169 C173 1.429 . S
C170 C168 1.360 . S
C170 C171 1.372 . S
C171 H166 0.928 . S
C171 C170 1.372 . S
C171 C172 1.404 . S
C172 C171 1.404 . S
C172 C173 1.391 . S
C173 H167 0.930 . S
C173 C169 1.429 . S
C173 C172 1.391 . S
H174 C192 0.951 . S
H175 C194 0.951 . S
H176 C196 0.950 . S
H177 C197 0.950 . S
H178 C199 0.950 . S
H179 C202 0.950 . S
H180 C203 0.950 . S
H181 C205 0.950 . S
H182 C206 0.950 . S
H183 C207 0.951 . S
H184 C209 0.951 . S
H185 C211 0.950 . S
H186 C212 0.950 . S
H187 C214 0.950 . S
H188 C217 0.950 . S
H189 C218 0.950 . S
H190 C220 0.950 . S
H191 C221 0.950 . S
C192 H174 0.951 . S
C192 C193 1.366 . S
C192 C194 1.388 . S
C193 C192 1.366 . S
C193 C197 1.385 . S
C194 H175 0.951 . S
C194 C192 1.388 . S
C194 C195 1.366 . S
C195 C194 1.366 . S
C195 C196 1.414 . S
C195 C198 1.499 . S
C196 H176 0.950 . S
C196 C195 1.414 . S
C196 C197 1.374 . S
C197 H177 0.950 . S
C197 C193 1.385 . S
C197 C196 1.374 . S
C198 C195 1.499 . S
C198 C199 1.373 . S
C198 C200 1.389 . S
C199 H178 0.950 . S
C199 C198 1.373 . S
C199 C215 1.377 . S
C200 C198 1.389 . S
C200 C201 1.524 . S
C200 C214 1.377 . S
C201 C200 1.524 . S
C201 C202 1.397 . S
C201 C206 1.363 . S
C202 H179 0.950 . S
C202 C201 1.397 . S
C202 C203 1.334 . S
C203 H180 0.950 . S
C203 C202 1.334 . S
C203 C204 1.287 . S
C204 C203 1.287 . S
C204 C205 1.524 . S
C204 H223 0.913 . S
C205 H181 0.950 . S
C205 C204 1.524 . S
C205 C206 1.415 . S
C206 H182 0.950 . S
C206 C201 1.363 . S
C206 C205 1.415 . S
C207 H183 0.951 . S
C207 C208 1.366 . S
C207 C209 1.388 . S
C208 C207 1.366 . S
C208 C212 1.385 . S
C209 H184 0.951 . S
C209 C207 1.388 . S
C209 C210 1.366 . S
C210 C209 1.366 . S
C210 C211 1.414 . S
C210 C213 1.499 . S
C211 H185 0.950 . S
C211 C210 1.414 . S
C211 C212 1.374 . S
C212 H186 0.950 . S
C212 C208 1.385 . S
C212 C211 1.374 . S
C213 C210 1.499 . S
C213 C214 1.373 . S
C213 C215 1.389 . S
C214 H187 0.950 . S
C214 C200 1.377 . S
C214 C213 1.373 . S
C215 C199 1.377 . S
C215 C213 1.389 . S
C215 C216 1.524 . S
C216 C215 1.524 . S
C216 C217 1.397 . S
C216 C221 1.363 . S
C217 H188 0.950 . S
C217 C216 1.397 . S
C217 C218 1.334 . S
C218 H189 0.950 . S
C218 C217 1.334 . S
C218 C219 1.287 . S
C219 C218 1.287 . S
C219 C220 1.524 . S
C219 H222 0.999 . S
C220 H190 0.950 . S
C220 C219 1.524 . S
C220 C221 1.415 . S
C221 H191 0.950 . S
C221 C216 1.363 . S
C221 C220 1.415 . S
H222 C219 0.999 . S
H223 C204 0.913 . S
H224 C242 0.951 . S
H225 C244 0.951 . S
H226 C246 0.950 . S
H227 C247 0.950 . S
H228 C249 0.950 . S
H229 C252 0.950 . S
H230 C253 0.950 . S
H231 C255 0.950 . S
H232 C256 0.950 . S
H233 C257 0.951 . S
H234 C259 0.951 . S
H235 C261 0.950 . S
H236 C262 0.950 . S
H237 C264 0.950 . S
H238 C267 0.950 . S
H239 C268 0.950 . S
H240 C270 0.950 . S
H241 C271 0.950 . S
C242 H224 0.951 . S
C242 C243 1.366 . S
C242 C244 1.388 . S
C243 C242 1.366 . S
C243 C247 1.385 . S
C244 H225 0.951 . S
C244 C242 1.388 . S
C244 C245 1.366 . S
C245 C244 1.366 . S
C245 C246 1.414 . S
C245 C248 1.499 . S
C246 H226 0.950 . S
C246 C245 1.414 . S
C246 C247 1.374 . S
C247 H227 0.950 . S
C247 C243 1.385 . S
C247 C246 1.374 . S
C248 C245 1.499 . S
C248 C249 1.373 . S
C248 C250 1.389 . S
C249 H228 0.950 . S
C249 C248 1.373 . S
C249 C265 1.377 . S
C250 C248 1.389 . S
C250 C251 1.524 . S
C250 C264 1.377 . S
C251 C250 1.524 . S
C251 C252 1.397 . S
C251 C256 1.363 . S
C252 H229 0.950 . S
C252 C251 1.397 . S
C252 C253 1.334 . S
C253 H230 0.950 . S
C253 C252 1.334 . S
C253 C254 1.287 . S
C254 C253 1.287 . S
C254 C255 1.524 . S
C254 H273 0.913 . S
C255 H231 0.950 . S
C255 C254 1.524 . S
C255 C256 1.415 . S
C256 H232 0.950 . S
C256 C251 1.363 . S
C256 C255 1.415 . S
C257 H233 0.951 . S
C257 C258 1.366 . S
C257 C259 1.388 . S
C258 C257 1.366 . S
C258 C262 1.385 . S
C259 H234 0.951 . S
C259 C257 1.388 . S
C259 C260 1.366 . S
C260 C259 1.366 . S
C260 C261 1.414 . S
C260 C263 1.499 . S
C261 H235 0.950 . S
C261 C260 1.414 . S
C261 C262 1.374 . S
C262 H236 0.950 . S
C262 C258 1.385 . S
C262 C261 1.374 . S
C263 C260 1.499 . S
C263 C264 1.373 . S
C263 C265 1.389 . S
C264 H237 0.950 . S
C264 C250 1.377 . S
C264 C263 1.373 . S
C265 C249 1.377 . S
C265 C263 1.389 . S
C265 C266 1.524 . S
C266 C265 1.524 . S
C266 C267 1.397 . S
C266 C271 1.363 . S
C267 H238 0.950 . S
C267 C266 1.397 . S
C267 C268 1.334 . S
C268 H239 0.950 . S
C268 C267 1.334 . S
C268 C269 1.287 . S
C269 C268 1.287 . S
C269 C270 1.524 . S
C269 H272 0.999 . S
C270 H240 0.950 . S
C270 C269 1.524 . S
C270 C271 1.415 . S
C271 H241 0.950 . S
C271 C266 1.363 . S
C271 C270 1.415 . S
H272 C269 0.999 . S
H273 C254 0.913 . S
H274 C292 0.951 . S
H275 C294 0.951 . S
H276 C296 0.950 . S
H277 C297 0.950 . S
H278 C299 0.950 . S
H279 C302 0.950 . S
H280 C303 0.950 . S
H281 C305 0.950 . S
H282 C306 0.950 . S
H283 C307 0.951 . S
H284 C309 0.951 . S
H285 C311 0.950 . S
H286 C312 0.950 . S
H287 C314 0.950 . S
H288 C317 0.950 . S
H289 C318 0.950 . S
H290 C320 0.950 . S
H291 C321 0.950 . S
C292 H274 0.951 . S
C292 C293 1.366 . S
C292 C294 1.388 . S
C293 C292 1.366 . S
C293 C297 1.385 . S
C294 H275 0.951 . S
C294 C292 1.388 . S
C294 C295 1.366 . S
C295 C294 1.366 . S
C295 C296 1.414 . S
C295 C298 1.499 . S
C296 H276 0.950 . S
C296 C295 1.414 . S
C296 C297 1.374 . S
C297 H277 0.950 . S
C297 C293 1.385 . S
C297 C296 1.374 . S
C298 C295 1.499 . S
C298 C299 1.373 . S
C298 C300 1.389 . S
C299 H278 0.950 . S
C299 C298 1.373 . S
C299 C315 1.377 . S
C300 C298 1.389 . S
C300 C301 1.524 . S
C300 C314 1.377 . S
C301 C300 1.524 . S
C301 C302 1.397 . S
C301 C306 1.363 . S
C302 H279 0.950 . S
C302 C301 1.397 . S
C302 C303 1.334 . S
C303 H280 0.950 . S
C303 C302 1.334 . S
C303 C304 1.287 . S
C304 C303 1.287 . S
C304 C305 1.524 . S
C304 H323 0.913 . S
C305 H281 0.950 . S
C305 C304 1.524 . S
C305 C306 1.415 . S
C306 H282 0.950 . S
C306 C301 1.363 . S
C306 C305 1.415 . S
C307 H283 0.951 . S
C307 C308 1.366 . S
C307 C309 1.388 . S
C308 C307 1.366 . S
C308 C312 1.385 . S
C309 H284 0.951 . S
C309 C307 1.388 . S
C309 C310 1.366 . S
C310 C309 1.366 . S
C310 C311 1.414 . S
C310 C313 1.499 . S
C311 H285 0.950 . S
C311 C310 1.414 . S
C311 C312 1.374 . S
C312 H286 0.950 . S
C312 C308 1.385 . S
C312 C311 1.374 . S
C313 C310 1.499 . S
C313 C314 1.373 . S
C313 C315 1.389 . S
C314 H287 0.950 . S
C314 C300 1.377 . S
C314 C313 1.373 . S
C315 C299 1.377 . S
C315 C313 1.389 . S
C315 C316 1.524 . S
C316 C315 1.524 . S
C316 C317 1.397 . S
C316 C321 1.363 . S
C317 H288 0.950 . S
C317 C316 1.397 . S
C317 C318 1.334 . S
C318 H289 0.950 . S
C318 C317 1.334 . S
C318 C319 1.287 . S
C319 C318 1.287 . S
C319 C320 1.524 . S
C319 H322 0.999 . S
C320 H290 0.950 . S
C320 C319 1.524 . S
C320 C321 1.415 . S
C321 H291 0.950 . S
C321 C316 1.363 . S
C321 C320 1.415 . S
H322 C319 0.999 . S
H323 C304 0.913 . S
H324 C342 0.951 . S
H325 C344 0.951 . S
H326 C346 0.950 . S
H327 C347 0.950 . S
H328 C349 0.950 . S
H329 C352 0.950 . S
H330 C353 0.950 . S
H331 C355 0.950 . S
H332 C356 0.950 . S
H333 C357 0.951 . S
H334 C359 0.951 . S
H335 C361 0.950 . S
H336 C362 0.950 . S
H337 C364 0.950 . S
H338 C367 0.950 . S
H339 C368 0.950 . S
H340 C370 0.950 . S
H341 C371 0.950 . S
C342 H324 0.951 . S
C342 C343 1.366 . S
C342 C344 1.388 . S
C343 C342 1.366 . S
C343 C347 1.385 . S
C344 H325 0.951 . S
C344 C342 1.388 . S
C344 C345 1.366 . S
C345 C344 1.366 . S
C345 C346 1.414 . S
C345 C348 1.499 . S
C346 H326 0.950 . S
C346 C345 1.414 . S
C346 C347 1.374 . S
C347 H327 0.950 . S
C347 C343 1.385 . S
C347 C346 1.374 . S
C348 C345 1.499 . S
C348 C349 1.373 . S
C348 C350 1.389 . S
C349 H328 0.950 . S
C349 C348 1.373 . S
C349 C365 1.377 . S
C350 C348 1.389 . S
C350 C351 1.524 . S
C350 C364 1.377 . S
C351 C350 1.524 . S
C351 C352 1.397 . S
C351 C356 1.363 . S
C352 H329 0.950 . S
C352 C351 1.397 . S
C352 C353 1.334 . S
C353 H330 0.950 . S
C353 C352 1.334 . S
C353 C354 1.287 . S
C354 C353 1.287 . S
C354 C355 1.524 . S
C354 H373 0.913 . S
C355 H331 0.950 . S
C355 C354 1.524 . S
C355 C356 1.415 . S
C356 H332 0.950 . S
C356 C351 1.363 . S
C356 C355 1.415 . S
C357 H333 0.951 . S
C357 C358 1.366 . S
C357 C359 1.388 . S
C358 C357 1.366 . S
C358 C362 1.385 . S
C359 H334 0.951 . S
C359 C357 1.388 . S
C359 C360 1.366 . S
C360 C359 1.366 . S
C360 C361 1.414 . S
C360 C363 1.499 . S
C361 H335 0.950 . S
C361 C360 1.414 . S
C361 C362 1.374 . S
C362 H336 0.950 . S
C362 C358 1.385 . S
C362 C361 1.374 . S
C363 C360 1.499 . S
C363 C364 1.373 . S
C363 C365 1.389 . S
C364 H337 0.950 . S
C364 C350 1.377 . S
C364 C363 1.373 . S
C365 C349 1.377 . S
C365 C363 1.389 . S
C365 C366 1.524 . S
C366 C365 1.524 . S
C366 C367 1.397 . S
C366 C371 1.363 . S
C367 H338 0.950 . S
C367 C366 1.397 . S
C367 C368 1.334 . S
C368 H339 0.950 . S
C368 C367 1.334 . S
C368 C369 1.287 . S
C369 C368 1.287 . S
C369 C370 1.524 . S
C369 H372 0.999 . S
C370 H340 0.950 . S
C370 C369 1.524 . S
C370 C371 1.415 . S
C371 H341 0.950 . S
C371 C366 1.363 . S
C371 C370 1.415 . S
H372 C369 0.999 . S
H373 C354 0.913 . S
H374 C392 0.951 . S
H375 C394 0.951 . S
H376 C396 0.950 . S
H377 C397 0.950 . S
H378 C399 0.950 . S
H379 C402 0.950 . S
H380 C403 0.950 . S
H381 C405 0.950 . S
H382 C406 0.950 . S
H383 C407 0.951 . S
H384 C409 0.951 . S
H385 C411 0.950 . S
H386 C412 0.950 . S
H387 C414 0.950 . S
H388 C417 0.950 . S
H389 C418 0.950 . S
H390 C420 0.950 . S
H391 C421 0.950 . S
C392 H374 0.951 . S
C392 C393 1.366 . S
C392 C394 1.388 . S
C393 C392 1.366 . S
C393 C397 1.385 . S
C394 H375 0.951 . S
C394 C392 1.388 . S
C394 C395 1.366 . S
C395 C394 1.366 . S
C395 C396 1.414 . S
C395 C398 1.499 . S
C396 H376 0.950 . S
C396 C395 1.414 . S
C396 C397 1.374 . S
C397 H377 0.950 . S
C397 C393 1.385 . S
C397 C396 1.374 . S
C398 C395 1.499 . S
C398 C399 1.373 . S
C398 C400 1.389 . S
C399 H378 0.950 . S
C399 C398 1.373 . S
C399 C415 1.377 . S
C400 C398 1.389 . S
C400 C401 1.524 . S
C400 C414 1.377 . S
C401 C400 1.524 . S
C401 C402 1.397 . S
C401 C406 1.363 . S
C402 H379 0.950 . S
C402 C401 1.397 . S
C402 C403 1.334 . S
C403 H380 0.950 . S
C403 C402 1.334 . S
C403 C404 1.287 . S
C404 C403 1.287 . S
C404 C405 1.524 . S
C404 H423 0.913 . S
C405 H381 0.950 . S
C405 C404 1.524 . S
C405 C406 1.415 . S
C406 H382 0.950 . S
C406 C401 1.363 . S
C406 C405 1.415 . S
C407 H383 0.951 . S
C407 C408 1.366 . S
C407 C409 1.388 . S
C408 C407 1.366 . S
C408 C412 1.385 . S
C409 H384 0.951 . S
C409 C407 1.388 . S
C409 C410 1.366 . S
C410 C409 1.366 . S
C410 C411 1.414 . S
C410 C413 1.499 . S
C411 H385 0.950 . S
C411 C410 1.414 . S
C411 C412 1.374 . S
C412 H386 0.950 . S
C412 C408 1.385 . S
C412 C411 1.374 . S
C413 C410 1.499 . S
C413 C414 1.373 . S
C413 C415 1.389 . S
C414 H387 0.950 . S
C414 C400 1.377 . S
C414 C413 1.373 . S
C415 C399 1.377 . S
C415 C413 1.389 . S
C415 C416 1.524 . S
C416 C415 1.524 . S
C416 C417 1.397 . S
C416 C421 1.363 . S
C417 H388 0.950 . S
C417 C416 1.397 . S
C417 C418 1.334 . S
C418 H389 0.950 . S
C418 C417 1.334 . S
C418 C419 1.287 . S
C419 C418 1.287 . S
C419 C420 1.524 . S
C419 H422 0.999 . S
C420 H390 0.950 . S
C420 C419 1.524 . S
C420 C421 1.415 . S
C421 H391 0.950 . S
C421 C416 1.363 . S
C421 C420 1.415 . S
H422 C419 0.999 . S
H423 C404 0.913 . S
H424 C442 0.951 . S
H425 C444 0.951 . S
H426 C446 0.950 . S
H427 C447 0.950 . S
H428 C449 0.950 . S
H429 C452 0.950 . S
H430 C453 0.950 . S
H431 C455 0.950 . S
H432 C456 0.950 . S
H433 C457 0.951 . S
H434 C459 0.951 . S
H435 C461 0.950 . S
H436 C462 0.950 . S
H437 C464 0.950 . S
H438 C467 0.950 . S
H439 C468 0.950 . S
H440 C470 0.950 . S
H441 C471 0.950 . S
C442 H424 0.951 . S
C442 C443 1.366 . S
C442 C444 1.388 . S
C443 C442 1.366 . S
C443 C447 1.385 . S
C444 H425 0.951 . S
C444 C442 1.388 . S
C444 C445 1.366 . S
C445 C444 1.366 . S
C445 C446 1.414 . S
C445 C448 1.499 . S
C446 H426 0.950 . S
C446 C445 1.414 . S
C446 C447 1.374 . S
C447 H427 0.950 . S
C447 C443 1.385 . S
C447 C446 1.374 . S
C448 C445 1.499 . S
C448 C449 1.373 . S
C448 C450 1.389 . S
C449 H428 0.950 . S
C449 C448 1.373 . S
C449 C465 1.377 . S
C450 C448 1.389 . S
C450 C451 1.524 . S
C450 C464 1.377 . S
C451 C450 1.524 . S
C451 C452 1.397 . S
C451 C456 1.363 . S
C452 H429 0.950 . S
C452 C451 1.397 . S
C452 C453 1.334 . S
C453 H430 0.950 . S
C453 C452 1.334 . S
C453 C454 1.287 . S
C454 C453 1.287 . S
C454 C455 1.524 . S
C454 H473 0.913 . S
C455 H431 0.950 . S
C455 C454 1.524 . S
C455 C456 1.415 . S
C456 H432 0.950 . S
C456 C451 1.363 . S
C456 C455 1.415 . S
C457 H433 0.951 . S
C457 C458 1.366 . S
C457 C459 1.388 . S
C458 C457 1.366 . S
C458 C462 1.385 . S
C459 H434 0.951 . S
C459 C457 1.388 . S
C459 C460 1.366 . S
C460 C459 1.366 . S
C460 C461 1.414 . S
C460 C463 1.499 . S
C461 H435 0.950 . S
C461 C460 1.414 . S
C461 C462 1.374 . S
C462 H436 0.950 . S
C462 C458 1.385 . S
C462 C461 1.374 . S
C463 C460 1.499 . S
C463 C464 1.373 . S
C463 C465 1.389 . S
C464 H437 0.950 . S
C464 C450 1.377 . S
C464 C463 1.373 . S
C465 C449 1.377 . S
C465 C463 1.389 . S
C465 C466 1.524 . S
C466 C465 1.524 . S
C466 C467 1.397 . S
C466 C471 1.363 . S
C467 H438 0.950 . S
C467 C466 1.397 . S
C467 C468 1.334 . S
C468 H439 0.950 . S
C468 C467 1.334 . S
C468 C469 1.287 . S
C469 C468 1.287 . S
C469 C470 1.524 . S
C469 H472 0.999 . S
C470 H440 0.950 . S
C470 C469 1.524 . S
C470 C471 1.415 . S
C471 H441 0.950 . S
C471 C466 1.363 . S
C471 C470 1.415 . S
H472 C469 0.999 . S
H473 C454 0.913 . S
H474 C492 0.951 . S
H475 C494 0.951 . S
H476 C496 0.950 . S
H477 C497 0.950 . S
H478 C499 0.950 . S
H479 C502 0.950 . S
H480 C503 0.950 . S
H481 C505 0.950 . S
H482 C506 0.950 . S
H483 C507 0.951 . S
H484 C509 0.951 . S
H485 C511 0.950 . S
H486 C512 0.950 . S
H487 C514 0.950 . S
H488 C517 0.950 . S
H489 C518 0.950 . S
H490 C520 0.950 . S
H491 C521 0.950 . S
C492 H474 0.951 . S
C492 C493 1.366 . S
C492 C494 1.388 . S
C493 C492 1.366 . S
C493 C497 1.385 . S
C494 H475 0.951 . S
C494 C492 1.388 . S
C494 C495 1.366 . S
C495 C494 1.366 . S
C495 C496 1.414 . S
C495 C498 1.499 . S
C496 H476 0.950 . S
C496 C495 1.414 . S
C496 C497 1.374 . S
C497 H477 0.950 . S
C497 C493 1.385 . S
C497 C496 1.374 . S
C498 C495 1.499 . S
C498 C499 1.373 . S
C498 C500 1.389 . S
C499 H478 0.950 . S
C499 C498 1.373 . S
C499 C515 1.377 . S
C500 C498 1.389 . S
C500 C501 1.524 . S
C500 C514 1.377 . S
C501 C500 1.524 . S
C501 C502 1.397 . S
C501 C506 1.363 . S
C502 H479 0.950 . S
C502 C501 1.397 . S
C502 C503 1.334 . S
C503 H480 0.950 . S
C503 C502 1.334 . S
C503 C504 1.287 . S
C504 C503 1.287 . S
C504 C505 1.524 . S
C504 H523 0.913 . S
C505 H481 0.950 . S
C505 C504 1.524 . S
C505 C506 1.415 . S
C506 H482 0.950 . S
C506 C501 1.363 . S
C506 C505 1.415 . S
C507 H483 0.951 . S
C507 C508 1.366 . S
C507 C509 1.388 . S
C508 C507 1.366 . S
C508 C512 1.385 . S
C509 H484 0.951 . S
C509 C507 1.388 . S
C509 C510 1.366 . S
C510 C509 1.366 . S
C510 C511 1.414 . S
C510 C513 1.499 . S
C511 H485 0.950 . S
C511 C510 1.414 . S
C511 C512 1.374 . S
C512 H486 0.950 . S
C512 C508 1.385 . S
C512 C511 1.374 . S
C513 C510 1.499 . S
C513 C514 1.373 . S
C513 C515 1.389 . S
C514 H487 0.950 . S
C514 C500 1.377 . S
C514 C513 1.373 . S
C515 C499 1.377 . S
C515 C513 1.389 . S
C515 C516 1.524 . S
C516 C515 1.524 . S
C516 C517 1.397 . S
C516 C521 1.363 . S
C517 H488 0.950 . S
C517 C516 1.397 . S
C517 C518 1.334 . S
C518 H489 0.950 . S
C518 C517 1.334 . S
C518 C519 1.287 . S
C519 C518 1.287 . S
C519 C520 1.524 . S
C519 H522 0.999 . S
C520 H490 0.950 . S
C520 C519 1.524 . S
C520 C521 1.415 . S
C521 H491 0.950 . S
C521 C516 1.363 . S
C521 C520 1.415 . S
H522 C519 0.999 . S
H523 C504 0.913 . S
H524 C542 0.951 . S
H525 C544 0.951 . S
H526 C546 0.950 . S
H527 C547 0.950 . S
H528 C549 0.950 . S
H529 C552 0.950 . S
H530 C553 0.950 . S
H531 C555 0.950 . S
H532 C556 0.950 . S
H533 C557 0.951 . S
H534 C559 0.951 . S
H535 C561 0.950 . S
H536 C562 0.950 . S
H537 C564 0.950 . S
H538 C567 0.950 . S
H539 C568 0.950 . S
H540 C570 0.950 . S
H541 C571 0.950 . S
C542 H524 0.951 . S
C542 C543 1.366 . S
C542 C544 1.388 . S
C543 C542 1.366 . S
C543 C547 1.385 . S
C544 H525 0.951 . S
C544 C542 1.388 . S
C544 C545 1.366 . S
C545 C544 1.366 . S
C545 C546 1.414 . S
C545 C548 1.499 . S
C546 H526 0.950 . S
C546 C545 1.414 . S
C546 C547 1.374 . S
C547 H527 0.950 . S
C547 C543 1.385 . S
C547 C546 1.374 . S
C548 C545 1.499 . S
C548 C549 1.373 . S
C548 C550 1.389 . S
C549 H528 0.950 . S
C549 C548 1.373 . S
C549 C565 1.377 . S
C550 C548 1.389 . S
C550 C551 1.524 . S
C550 C564 1.377 . S
C551 C550 1.524 . S
C551 C552 1.397 . S
C551 C556 1.363 . S
C552 H529 0.950 . S
C552 C551 1.397 . S
C552 C553 1.334 . S
C553 H530 0.950 . S
C553 C552 1.334 . S
C553 C554 1.287 . S
C554 C553 1.287 . S
C554 C555 1.524 . S
C554 H573 0.913 . S
C555 H531 0.950 . S
C555 C554 1.524 . S
C555 C556 1.415 . S
C556 H532 0.950 . S
C556 C551 1.363 . S
C556 C555 1.415 . S
C557 H533 0.951 . S
C557 C558 1.366 . S
C557 C559 1.388 . S
C558 C557 1.366 . S
C558 C562 1.385 . S
C559 H534 0.951 . S
C559 C557 1.388 . S
C559 C560 1.366 . S
C560 C559 1.366 . S
C560 C561 1.414 . S
C560 C563 1.499 . S
C561 H535 0.950 . S
C561 C560 1.414 . S
C561 C562 1.374 . S
C562 H536 0.950 . S
C562 C558 1.385 . S
C562 C561 1.374 . S
C563 C560 1.499 . S
C563 C564 1.373 . S
C563 C565 1.389 . S
C564 H537 0.950 . S
C564 C550 1.377 . S
C564 C563 1.373 . S
C565 C549 1.377 . S
C565 C563 1.389 . S
C565 C566 1.524 . S
C566 C565 1.524 . S
C566 C567 1.397 . S
C566 C571 1.363 . S
C567 H538 0.950 . S
C567 C566 1.397 . S
C567 C568 1.334 . S
C568 H539 0.950 . S
C568 C567 1.334 . S
C568 C569 1.287 . S
C569 C568 1.287 . S
C569 C570 1.524 . S
C569 H572 0.999 . S
C570 H540 0.950 . S
C570 C569 1.524 . S
C570 C571 1.415 . S
C571 H541 0.950 . S
C571 C566 1.363 . S
C571 C570 1.415 . S
H572 C569 0.999 . S
H573 C554 0.913 . S
H574 C592 0.951 . S
H575 C594 0.951 . S
H576 C596 0.950 . S
H577 C597 0.950 . S
H578 C599 0.950 . S
H579 C602 0.950 . S
H580 C603 0.950 . S
H581 C605 0.950 . S
H582 C606 0.950 . S
H583 C607 0.951 . S
H584 C609 0.951 . S
H585 C611 0.950 . S
H586 C612 0.950 . S
H587 C614 0.950 . S
H588 C617 0.950 . S
H589 C618 0.950 . S
H590 C620 0.950 . S
H591 C621 0.950 . S
C592 H574 0.951 . S
C592 C593 1.366 . S
C592 C594 1.388 . S
C593 C592 1.366 . S
C593 C597 1.385 . S
C594 H575 0.951 . S
C594 C592 1.388 . S
C594 C595 1.366 . S
C595 C594 1.366 . S
C595 C596 1.414 . S
C595 C598 1.499 . S
C596 H576 0.950 . S
C596 C595 1.414 . S
C596 C597 1.374 . S
C597 H577 0.950 . S
C597 C593 1.385 . S
C597 C596 1.374 . S
C598 C595 1.499 . S
C598 C599 1.373 . S
C598 C600 1.389 . S
C599 H578 0.950 . S
C599 C598 1.373 . S
C599 C615 1.377 . S
C600 C598 1.389 . S
C600 C601 1.524 . S
C600 C614 1.377 . S
C601 C600 1.524 . S
C601 C602 1.397 . S
C601 C606 1.363 . S
C602 H579 0.950 . S
C602 C601 1.397 . S
C602 C603 1.334 . S
C603 H580 0.950 . S
C603 C602 1.334 . S
C603 C604 1.287 . S
C604 C603 1.287 . S
C604 C605 1.524 . S
C604 H623 0.913 . S
C605 H581 0.950 . S
C605 C604 1.524 . S
C605 C606 1.415 . S
C606 H582 0.950 . S
C606 C601 1.363 . S
C606 C605 1.415 . S
C607 H583 0.951 . S
C607 C608 1.366 . S
C607 C609 1.388 . S
C608 C607 1.366 . S
C608 C612 1.385 . S
C609 H584 0.951 . S
C609 C607 1.388 . S
C609 C610 1.366 . S
C610 C609 1.366 . S
C610 C611 1.414 . S
C610 C613 1.499 . S
C611 H585 0.950 . S
C611 C610 1.414 . S
C611 C612 1.374 . S
C612 H586 0.950 . S
C612 C608 1.385 . S
C612 C611 1.374 . S
C613 C610 1.499 . S
C613 C614 1.373 . S
C613 C615 1.389 . S
C614 H587 0.950 . S
C614 C600 1.377 . S
C614 C613 1.373 . S
C615 C599 1.377 . S
C615 C613 1.389 . S
C615 C616 1.524 . S
C616 C615 1.524 . S
C616 C617 1.397 . S
C616 C621 1.363 . S
C617 H588 0.950 . S
C617 C616 1.397 . S
C617 C618 1.334 . S
C618 H589 0.950 . S
C618 C617 1.334 . S
C618 C619 1.287 . S
C619 C618 1.287 . S
C619 C620 1.524 . S
C619 H622 0.999 . S
C620 H590 0.950 . S
C620 C619 1.524 . S
C620 C621 1.415 . S
C621 H591 0.950 . S
C621 C616 1.363 . S
C621 C620 1.415 . S
H622 C619 0.999 . S
H623 C604 0.913 . S
H624 C642 0.951 . S
H625 C644 0.951 . S
H626 C646 0.950 . S
H627 C647 0.950 . S
H628 C649 0.950 . S
H629 C652 0.950 . S
H630 C653 0.950 . S
H631 C655 0.950 . S
H632 C656 0.950 . S
H633 C657 0.951 . S
H634 C659 0.951 . S
H635 C661 0.950 . S
H636 C662 0.950 . S
H637 C664 0.950 . S
H638 C667 0.950 . S
H639 C668 0.950 . S
H640 C670 0.950 . S
H641 C671 0.950 . S
C642 H624 0.951 . S
C642 C643 1.366 . S
C642 C644 1.388 . S
C643 C642 1.366 . S
C643 C647 1.385 . S
C644 H625 0.951 . S
C644 C642 1.388 . S
C644 C645 1.366 . S
C645 C644 1.366 . S
C645 C646 1.414 . S
C645 C648 1.499 . S
C646 H626 0.950 . S
C646 C645 1.414 . S
C646 C647 1.374 . S
C647 H627 0.950 . S
C647 C643 1.385 . S
C647 C646 1.374 . S
C648 C645 1.499 . S
C648 C649 1.373 . S
C648 C650 1.389 . S
C649 H628 0.950 . S
C649 C648 1.373 . S
C649 C665 1.377 . S
C650 C648 1.389 . S
C650 C651 1.524 . S
C650 C664 1.377 . S
C651 C650 1.524 . S
C651 C652 1.397 . S
C651 C656 1.363 . S
C652 H629 0.950 . S
C652 C651 1.397 . S
C652 C653 1.334 . S
C653 H630 0.950 . S
C653 C652 1.334 . S
C653 C654 1.287 . S
C654 C653 1.287 . S
C654 C655 1.524 . S
C654 H673 0.913 . S
C655 H631 0.950 . S
C655 C654 1.524 . S
C655 C656 1.415 . S
C656 H632 0.950 . S
C656 C651 1.363 . S
C656 C655 1.415 . S
C657 H633 0.951 . S
C657 C658 1.366 . S
C657 C659 1.388 . S
C658 C657 1.366 . S
C658 C662 1.385 . S
C659 H634 0.951 . S
C659 C657 1.388 . S
C659 C660 1.366 . S
C660 C659 1.366 . S
C660 C661 1.414 . S
C660 C663 1.499 . S
C661 H635 0.950 . S
C661 C660 1.414 . S
C661 C662 1.374 . S
C662 H636 0.950 . S
C662 C658 1.385 . S
C662 C661 1.374 . S
C663 C660 1.499 . S
C663 C664 1.373 . S
C663 C665 1.389 . S
C664 H637 0.950 . S
C664 C650 1.377 . S
C664 C663 1.373 . S
C665 C649 1.377 . S
C665 C663 1.389 . S
C665 C666 1.524 . S
C666 C665 1.524 . S
C666 C667 1.397 . S
C666 C671 1.363 . S
C667 H638 0.950 . S
C667 C666 1.397 . S
C667 C668 1.334 . S
C668 H639 0.950 . S
C668 C667 1.334 . S
C668 C669 1.287 . S
C669 C668 1.287 . S
C669 C670 1.524 . S
C669 H672 0.999 . S
C670 H640 0.950 . S
C670 C669 1.524 . S
C670 C671 1.415 . S
C671 H641 0.950 . S
C671 C666 1.363 . S
C671 C670 1.415 . S
H672 C669 0.999 . S
H673 C654 0.913 . S
H674 C692 0.951 . S
H675 C694 0.951 . S
H676 C696 0.950 . S
H677 C697 0.950 . S
H678 C699 0.950 . S
H679 C702 0.950 . S
H680 C703 0.950 . S
H681 C705 0.950 . S
H682 C706 0.950 . S
H683 C707 0.951 . S
H684 C709 0.951 . S
H685 C711 0.950 . S
H686 C712 0.950 . S
H687 C714 0.950 . S
H688 C717 0.950 . S
H689 C718 0.950 . S
H690 C720 0.950 . S
H691 C721 0.950 . S
C692 H674 0.951 . S
C692 C693 1.366 . S
C692 C694 1.388 . S
C693 C692 1.366 . S
C693 C697 1.385 . S
C694 H675 0.951 . S
C694 C692 1.388 . S
C694 C695 1.366 . S
C695 C694 1.366 . S
C695 C696 1.414 . S
C695 C698 1.499 . S
C696 H676 0.950 . S
C696 C695 1.414 . S
C696 C697 1.374 . S
C697 H677 0.950 . S
C697 C693 1.385 . S
C697 C696 1.374 . S
C698 C695 1.499 . S
C698 C699 1.373 . S
C698 C700 1.389 . S
C699 H678 0.950 . S
C699 C698 1.373 . S
C699 C715 1.377 . S
C700 C698 1.389 . S
C700 C701 1.524 . S
C700 C714 1.377 . S
C701 C700 1.524 . S
C701 C702 1.397 . S
C701 C706 1.363 . S
C702 H679 0.950 . S
C702 C701 1.397 . S
C702 C703 1.334 . S
C703 H680 0.950 . S
C703 C702 1.334 . S
C703 C704 1.287 . S
C704 C703 1.287 . S
C704 C705 1.524 . S
C704 H723 0.913 . S
C705 H681 0.950 . S
C705 C704 1.524 . S
C705 C706 1.415 . S
C706 H682 0.950 . S
C706 C701 1.363 . S
C706 C705 1.415 . S
C707 H683 0.951 . S
C707 C708 1.366 . S
C707 C709 1.388 . S
C708 C707 1.366 . S
C708 C712 1.385 . S
C709 H684 0.951 . S
C709 C707 1.388 . S
C709 C710 1.366 . S
C710 C709 1.366 . S
C710 C711 1.414 . S
C710 C713 1.499 . S
C711 H685 0.950 . S
C711 C710 1.414 . S
C711 C712 1.374 . S
C712 H686 0.950 . S
C712 C708 1.385 . S
C712 C711 1.374 . S
C713 C710 1.499 . S
C713 C714 1.373 . S
C713 C715 1.389 . S
C714 H687 0.950 . S
C714 C700 1.377 . S
C714 C713 1.373 . S
C715 C699 1.377 . S
C715 C713 1.389 . S
C715 C716 1.524 . S
C716 C715 1.524 . S
C716 C717 1.397 . S
C716 C721 1.363 . S
C717 H688 0.950 . S
C717 C716 1.397 . S
C717 C718 1.334 . S
C718 H689 0.950 . S
C718 C717 1.334 . S
C718 C719 1.287 . S
C719 C718 1.287 . S
C719 C720 1.524 . S
C719 H722 0.999 . S
C720 H690 0.950 . S
C720 C719 1.524 . S
C720 C721 1.415 . S
C721 H691 0.950 . S
C721 C716 1.363 . S
C721 C720 1.415 . S
H722 C719 0.999 . S
H723 C704 0.913 . S
H724 C742 0.951 . S
H725 C744 0.951 . S
H726 C746 0.950 . S
H727 C747 0.950 . S
H728 C749 0.950 . S
H729 C752 0.950 . S
H730 C753 0.950 . S
H731 C755 0.950 . S
H732 C756 0.950 . S
H733 C757 0.951 . S
H734 C759 0.951 . S
H735 C761 0.950 . S
H736 C762 0.950 . S
H737 C764 0.950 . S
H738 C767 0.950 . S
H739 C768 0.950 . S
H740 C770 0.950 . S
H741 C771 0.950 . S
C742 H724 0.951 . S
C742 C743 1.366 . S
C742 C744 1.388 . S
C743 C742 1.366 . S
C743 C747 1.385 . S
C744 H725 0.951 . S
C744 C742 1.388 . S
C744 C745 1.366 . S
C745 C744 1.366 . S
C745 C746 1.414 . S
C745 C748 1.499 . S
C746 H726 0.950 . S
C746 C745 1.414 . S
C746 C747 1.374 . S
C747 H727 0.950 . S
C747 C743 1.385 . S
C747 C746 1.374 . S
C748 C745 1.499 . S
C748 C749 1.373 . S
C748 C750 1.389 . S
C749 H728 0.950 . S
C749 C748 1.373 . S
C749 C765 1.377 . S
C750 C748 1.389 . S
C750 C751 1.524 . S
C750 C764 1.377 . S
C751 C750 1.524 . S
C751 C752 1.397 . S
C751 C756 1.363 . S
C752 H729 0.950 . S
C752 C751 1.397 . S
C752 C753 1.334 . S
C753 H730 0.950 . S
C753 C752 1.334 . S
C753 C754 1.287 . S
C754 C753 1.287 . S
C754 C755 1.524 . S
C754 H773 0.913 . S
C755 H731 0.950 . S
C755 C754 1.524 . S
C755 C756 1.415 . S
C756 H732 0.950 . S
C756 C751 1.363 . S
C756 C755 1.415 . S
C757 H733 0.951 . S
C757 C758 1.366 . S
C757 C759 1.388 . S
C758 C757 1.366 . S
C758 C762 1.385 . S
C759 H734 0.951 . S
C759 C757 1.388 . S
C759 C760 1.366 . S
C760 C759 1.366 . S
C760 C761 1.414 . S
C760 C763 1.499 . S
C761 H735 0.950 . S
C761 C760 1.414 . S
C761 C762 1.374 . S
C762 H736 0.950 . S
C762 C758 1.385 . S
C762 C761 1.374 . S
C763 C760 1.499 . S
C763 C764 1.373 . S
C763 C765 1.389 . S
C764 H737 0.950 . S
C764 C750 1.377 . S
C764 C763 1.373 . S
C765 C749 1.377 . S
C765 C763 1.389 . S
C765 C766 1.524 . S
C766 C765 1.524 . S
C766 C767 1.397 . S
C766 C771 1.363 . S
C767 H738 0.950 . S
C767 C766 1.397 . S
C767 C768 1.334 . S
C768 H739 0.950 . S
C768 C767 1.334 . S
C768 C769 1.287 . S
C769 C768 1.287 . S
C769 C770 1.524 . S
C769 H772 0.999 . S
C770 H740 0.950 . S
C770 C769 1.524 . S
C770 C771 1.415 . S
C771 H741 0.950 . S
C771 C766 1.363 . S
C771 C770 1.415 . S
H772 C769 0.999 . S
H773 C754 0.913 . S
H774 C792 0.951 . S
H775 C794 0.951 . S
H776 C796 0.950 . S
H777 C797 0.950 . S
H778 C799 0.950 1_655 S
H779 C802 0.950 . S
H780 C803 0.950 . S
H781 C805 0.950 . S
H782 C806 0.950 . S
H783 C807 0.951 1_655 S
H784 C809 0.951 1_655 S
H785 C811 0.950 . S
H786 C812 0.950 . S
H787 C814 0.950 . S
H788 C817 0.950 . S
H789 C818 0.950 1_455 S
H790 C820 0.950 . S
H791 C821 0.950 . S
C792 H774 0.951 . S
C792 C793 1.366 . S
C792 C794 1.388 . S
C793 C792 1.366 . S
C793 C797 1.385 1_455 S
C794 H775 0.951 . S
C794 C792 1.388 . S
C794 C795 1.366 . S
C795 C794 1.366 . S
C795 C796 1.414 1_455 S
C795 C798 1.499 . S
C796 H776 0.950 . S
C796 C795 1.414 1_655 S
C796 C797 1.374 . S
C797 H777 0.950 . S
C797 C793 1.385 1_655 S
C797 C796 1.374 . S
C798 C795 1.499 . S
C798 C799 1.373 . S
C798 C800 1.389 . S
C799 H778 0.950 1_455 S
C799 C798 1.373 . S
C799 C815 1.377 . S
C800 C798 1.389 . S
C800 C801 1.524 . S
C800 C814 1.377 . S
C801 C800 1.524 . S
C801 C802 1.397 . S
C801 C806 1.363 . S
C802 H779 0.950 . S
C802 C801 1.397 . S
C802 C803 1.334 . S
C803 H780 0.950 . S
C803 C802 1.334 . S
C803 C804 1.287 . S
C804 C803 1.287 . S
C804 C805 1.524 . S
C804 H823 0.913 . S
C805 H781 0.950 . S
C805 C804 1.524 . S
C805 C806 1.415 . S
C806 H782 0.950 . S
C806 C801 1.363 . S
C806 C805 1.415 . S
C807 H783 0.951 1_455 S
C807 C808 1.366 . S
C807 C809 1.388 . S
C808 C807 1.366 . S
C808 C812 1.385 . S
C809 H784 0.951 1_455 S
C809 C807 1.388 . S
C809 C810 1.366 . S
C810 C809 1.366 . S
C810 C811 1.414 . S
C810 C813 1.503 1_556 S
C811 H785 0.950 . S
C811 C810 1.414 . S
C811 C812 1.374 . S
C812 H786 0.950 . S
C812 C808 1.385 . S
C812 C811 1.374 . S
C813 C810 1.503 1_554 S
C813 C814 1.371 . S
C813 C815 1.387 . S
C814 H787 0.950 . S
C814 C800 1.377 . S
C814 C813 1.371 . S
C815 C799 1.377 . S
C815 C813 1.387 . S
C815 C816 1.524 1_454 S
C816 C815 1.524 1_656 S
C816 C817 1.397 1_655 S
C816 C821 1.363 1_556 S
C817 H788 0.950 . S
C817 C816 1.397 1_455 S
C817 C818 1.334 1_455 S
C818 H789 0.950 1_655 S
C818 C817 1.334 1_655 S
C818 C819 1.287 . S
C819 C818 1.287 . S
C819 C820 1.524 . S
C819 H822 0.999 . S
C820 H790 0.950 . S
C820 C819 1.524 . S
C820 C821 1.415 1_556 S
C821 H791 0.950 . S
C821 C816 1.363 1_554 S
C821 C820 1.415 1_554 S
H822 C819 0.999 . S
H823 C804 0.913 . S
H824 C842 0.951 . S
H825 C844 0.951 . S
H826 C846 0.950 . S
H827 C847 0.950 . S
H828 C849 0.950 . S
H829 C852 0.950 . S
H830 C853 0.950 . S
H831 C855 0.950 . S
H832 C856 0.950 . S
H833 C857 0.951 . S
H834 C859 0.951 . S
H835 C861 0.950 . S
H836 C862 0.950 . S
H837 C864 0.950 . S
H838 C867 0.950 1_545 S
H839 C868 0.950 . S
H840 C870 0.950 . S
H841 C871 0.950 . S
C842 H824 0.951 . S
C842 C843 1.366 . S
C842 C844 1.388 . S
C843 C842 1.366 . S
C843 C847 1.385 1_545 S
C844 H825 0.951 . S
C844 C842 1.388 . S
C844 C845 1.366 . S
C845 C844 1.366 . S
C845 C846 1.414 1_545 S
C845 C848 1.499 . S
C846 H826 0.950 . S
C846 C845 1.414 1_565 S
C846 C847 1.374 . S
C847 H827 0.950 . S
C847 C843 1.385 1_565 S
C847 C846 1.374 . S
C848 C845 1.499 . S
C848 C849 1.373 1_545 S
C848 C850 1.389 . S
C849 H828 0.950 . S
C849 C848 1.373 1_565 S
C849 C865 1.377 . S
C850 C848 1.389 . S
C850 C851 1.524 . S
C850 C864 1.377 . S
C851 C850 1.524 . S
C851 C852 1.397 . S
C851 C856 1.363 . S
C852 H829 0.950 . S
C852 C851 1.397 . S
C852 C853 1.334 . S
C853 H830 0.950 . S
C853 C852 1.334 . S
C853 C854 1.287 . S
C854 C853 1.287 . S
C854 C855 1.524 . S
C854 H873 0.913 . S
C855 H831 0.950 . S
C855 C854 1.524 . S
C855 C856 1.415 . S
C856 H832 0.950 . S
C856 C851 1.363 . S
C856 C855 1.415 . S
C857 H833 0.951 . S
C857 C858 1.366 1_565 S
C857 C859 1.388 . S
C858 C857 1.366 1_545 S
C858 C862 1.385 . S
C859 H834 0.951 . S
C859 C857 1.388 . S
C859 C860 1.366 1_565 S
C860 C859 1.366 1_545 S
C860 C861 1.414 . S
C860 C863 1.499 . S
C861 H835 0.950 . S
C861 C860 1.414 . S
C861 C862 1.374 . S
C862 H836 0.950 . S
C862 C858 1.385 . S
C862 C861 1.374 . S
C863 C860 1.499 . S
C863 C864 1.373 . S
C863 C865 1.389 1_545 S
C864 H837 0.950 . S
C864 C850 1.377 . S
C864 C863 1.373 . S
C865 C849 1.377 . S
C865 C863 1.389 1_565 S
C865 C866 1.524 . S
C866 C865 1.524 . S
C866 C867 1.397 . S
C866 C871 1.363 . S
C867 H838 0.950 1_565 S
C867 C866 1.397 . S
C867 C868 1.334 . S
C868 H839 0.950 . S
C868 C867 1.334 . S
C868 C869 1.287 . S
C869 C868 1.287 . S
C869 C870 1.524 . S
C869 H872 0.999 . S
C870 H840 0.950 . S
C870 C869 1.524 . S
C870 C871 1.415 . S
C871 H841 0.950 . S
C871 C866 1.363 . S
C871 C870 1.415 . S
H872 C869 0.999 . S
H873 C854 0.913 . S
H874 C892 0.951 . S
H875 C894 0.951 . S
H876 C896 0.950 . S
H877 C897 0.950 . S
H878 C899 0.950 . S
H879 C902 0.950 . S
H880 C903 0.950 . S
H881 C905 0.950 . S
H882 C906 0.950 . S
H883 C907 0.951 . S
H884 C909 0.951 . S
H885 C911 0.950 . S
H886 C912 0.950 . S
H887 C914 0.950 . S
H888 C917 0.950 . S
H889 C918 0.950 . S
H890 C920 0.950 . S
H891 C921 0.950 . S
C892 H874 0.951 . S
C892 C893 1.366 . S
C892 C894 1.388 . S
C893 C892 1.366 . S
C893 C897 1.385 . S
C894 H875 0.951 . S
C894 C892 1.388 . S
C894 C895 1.366 . S
C895 C894 1.366 . S
C895 C896 1.414 . S
C895 C898 1.499 . S
C896 H876 0.950 . S
C896 C895 1.414 . S
C896 C897 1.374 . S
C897 H877 0.950 . S
C897 C893 1.385 . S
C897 C896 1.374 . S
C898 C895 1.499 . S
C898 C899 1.373 . S
C898 C900 1.389 . S
C899 H878 0.950 . S
C899 C898 1.373 . S
C899 C915 1.377 . S
C900 C898 1.389 . S
C900 C901 1.524 . S
C900 C914 1.377 . S
C901 C900 1.524 . S
C901 C902 1.397 . S
C901 C906 1.363 . S
C902 H879 0.950 . S
C902 C901 1.397 . S
C902 C903 1.334 . S
C903 H880 0.950 . S
C903 C902 1.334 . S
C903 C904 1.287 . S
C904 C903 1.287 . S
C904 C905 1.524 . S
C904 H923 0.913 . S
C905 H881 0.950 . S
C905 C904 1.524 . S
C905 C906 1.415 . S
C906 H882 0.950 . S
C906 C901 1.363 . S
C906 C905 1.415 . S
C907 H883 0.951 . S
C907 C908 1.366 . S
C907 C909 1.388 . S
C908 C907 1.366 . S
C908 C912 1.385 . S
C909 H884 0.951 . S
C909 C907 1.388 . S
C909 C910 1.366 . S
C910 C909 1.366 . S
C910 C911 1.414 . S
C910 C913 1.499 . S
C911 H885 0.950 . S
C911 C910 1.414 . S
C911 C912 1.374 . S
C912 H886 0.950 . S
C912 C908 1.385 . S
C912 C911 1.374 . S
C913 C910 1.499 . S
C913 C914 1.373 . S
C913 C915 1.389 . S
C914 H887 0.950 . S
C914 C900 1.377 . S
C914 C913 1.373 . S
C915 C899 1.377 . S
C915 C913 1.389 . S
C915 C916 1.524 . S
C916 C915 1.524 . S
C916 C917 1.397 . S
C916 C921 1.363 . S
C917 H888 0.950 . S
C917 C916 1.397 . S
C917 C918 1.334 . S
C918 H889 0.950 . S
C918 C917 1.334 . S
C918 C919 1.287 . S
C919 C918 1.287 . S
C919 C920 1.524 . S
C919 H922 0.999 . S
C920 H890 0.950 . S
C920 C919 1.524 . S
C920 C921 1.415 . S
C921 H891 0.950 . S
C921 C916 1.363 . S
C921 C920 1.415 . S
H922 C919 0.999 . S
H923 C904 0.913 . S
H924 C942 0.951 . S
H925 C944 0.951 . S
H926 C946 0.950 . S
H927 C947 0.950 . S
H928 C949 0.950 . S
H929 C952 0.950 . S
H930 C953 0.950 . S
H931 C955 0.950 . S
H932 C956 0.950 . S
H933 C957 0.951 . S
H934 C959 0.951 . S
H935 C961 0.950 . S
H936 C962 0.950 . S
H937 C964 0.950 . S
H938 C967 0.950 . S
H939 C968 0.950 . S
H940 C970 0.950 . S
H941 C971 0.950 . S
C942 H924 0.951 . S
C942 C943 1.366 . S
C942 C944 1.388 . S
C943 C942 1.366 . S
C943 C947 1.385 1_545 S
C944 H925 0.951 . S
C944 C942 1.388 . S
C944 C945 1.366 . S
C945 C944 1.366 . S
C945 C946 1.414 1_545 S
C945 C948 1.499 . S
C946 H926 0.950 . S
C946 C945 1.414 1_565 S
C946 C947 1.374 . S
C947 H927 0.950 . S
C947 C943 1.385 1_565 S
C947 C946 1.374 . S
C948 C945 1.499 . S
C948 C949 1.373 1_545 S
C948 C950 1.389 . S
C949 H928 0.950 . S
C949 C948 1.373 1_565 S
C949 C965 1.377 . S
C950 C948 1.389 . S
C950 C951 1.524 . S
C950 C964 1.377 . S
C951 C950 1.524 . S
C951 C952 1.397 . S
C951 C956 1.363 . S
C952 H929 0.950 . S
C952 C951 1.397 . S
C952 C953 1.334 . S
C953 H930 0.950 . S
C953 C952 1.334 . S
C953 C954 1.287 . S
C954 C953 1.287 . S
C954 C955 1.524 . S
C954 H973 0.913 . S
C955 H931 0.950 . S
C955 C954 1.524 . S
C955 C956 1.415 . S
C956 H932 0.950 . S
C956 C951 1.363 . S
C956 C955 1.415 . S
C957 H933 0.951 . S
C957 C958 1.340 1_565 S
C957 C959 1.388 . S
C958 C957 1.340 1_545 S
C958 C962 1.413 . S
C959 H934 0.951 . S
C959 C957 1.388 . S
C959 C960 1.366 1_565 S
C960 C959 1.366 1_545 S
C960 C961 1.414 . S
C960 C963 1.496 . S
C961 H935 0.950 . S
C961 C960 1.414 . S
C961 C962 1.374 . S
C962 H936 0.950 . S
C962 C958 1.413 . S
C962 C961 1.374 . S
C963 C960 1.496 . S
C963 C964 1.404 . S
C963 C965 1.362 1_545 S
C964 H937 0.950 . S
C964 C950 1.377 . S
C964 C963 1.404 . S
C965 C949 1.377 . S
C965 C963 1.362 1_565 S
C965 C966 1.524 . S
C966 C965 1.524 . S
C966 C967 1.397 . S
C966 C971 1.363 . S
C967 H938 0.950 . S
C967 C966 1.397 . S
C967 C968 1.334 . S
C968 H939 0.950 . S
C968 C967 1.334 . S
C968 C969 1.287 . S
C969 C968 1.287 . S
C969 C970 1.524 . S
C969 H972 0.999 . S
C970 H940 0.950 . S
C970 C969 1.524 . S
C970 C971 1.415 . S
C971 H941 0.950 . S
C971 C966 1.363 . S
C971 C970 1.415 . S
H972 C969 0.999 . S
H973 C954 0.913 . S
H974 C992 0.951 . S
H975 C994 0.951 . S
H976 C996 0.950 . S
H977 C997 0.950 . S
H978 C999 0.950 . S
H979 C1002 0.950 . S
H980 C1003 0.950 . S
H981 C1005 0.950 . S
H982 C1006 0.950 . S
H983 C1007 0.951 . S
H984 C1009 0.951 . S
H985 C1011 0.950 . S
H986 C1012 0.950 . S
H987 C1014 0.950 . S
H988 C1017 0.950 . S
H989 C1018 0.950 . S
H990 C1020 0.949 . S
H991 C1021 0.950 . S
C992 H974 0.951 . S
C992 C993 1.366 . S
C992 C994 1.388 . S
C993 C992 1.366 . S
C993 C997 1.385 . S
C994 H975 0.951 . S
C994 C992 1.388 . S
C994 C995 1.366 . S
C995 C994 1.366 . S
C995 C996 1.414 . S
C995 C998 1.499 . S
C996 H976 0.950 . S
C996 C995 1.414 . S
C996 C997 1.374 . S
C997 H977 0.950 . S
C997 C993 1.385 . S
C997 C996 1.374 . S
C998 C995 1.499 . S
C998 C999 1.373 . S
C998 C1000 1.389 . S
C999 H978 0.950 . S
C999 C998 1.373 . S
C999 C1015 1.377 . S
C1000 C998 1.389 . S
C1000 C1001 1.524 . S
C1000 C1014 1.377 . S
C1001 C1000 1.524 . S
C1001 C1002 1.397 . S
C1001 C1006 1.363 . S
C1002 H979 0.950 . S
C1002 C1001 1.397 . S
C1002 C1003 1.334 . S
C1003 H980 0.950 . S
C1003 C1002 1.334 . S
C1003 C1004 1.287 . S
C1004 C1003 1.287 . S
C1004 C1005 1.524 . S
C1004 H1023 0.913 . S
C1005 H981 0.950 . S
C1005 C1004 1.524 . S
C1005 C1006 1.415 . S
C1006 H982 0.950 . S
C1006 C1001 1.363 . S
C1006 C1005 1.415 . S
C1007 H983 0.951 . S
C1007 C1008 1.366 . S
C1007 C1009 1.388 . S
C1008 C1007 1.366 . S
C1008 C1012 1.385 . S
C1009 H984 0.951 . S
C1009 C1007 1.388 . S
C1009 C1010 1.366 . S
C1010 C1009 1.366 . S
C1010 C1011 1.414 . S
C1010 C1013 1.499 1_554 S
C1011 H985 0.950 . S
C1011 C1010 1.414 . S
C1011 C1012 1.374 . S
C1012 H986 0.950 . S
C1012 C1008 1.385 . S
C1012 C1011 1.374 . S
C1013 C1010 1.499 1_556 S
C1013 C1014 1.373 . S
C1013 C1015 1.389 . S
C1014 H987 0.950 . S
C1014 C1000 1.377 . S
C1014 C1013 1.373 . S
C1015 C999 1.377 . S
C1015 C1013 1.389 . S
C1015 C1016 1.524 . S
C1016 C1015 1.524 . S
C1016 C1017 1.397 1_556 S
C1016 C1021 1.363 . S
C1017 H988 0.950 . S
C1017 C1016 1.397 1_554 S
C1017 C1018 1.334 . S
C1018 H989 0.950 . S
C1018 C1017 1.334 . S
C1018 C1019 1.287 . S
C1019 C1018 1.287 . S
C1019 C1020 1.536 . S
C1019 H1022 0.999 . S
C1020 H990 0.949 . S
C1020 C1019 1.536 . S
C1020 C1021 1.405 1_554 S
C1021 H991 0.950 . S
C1021 C1016 1.363 . S
C1021 C1020 1.405 1_556 S
H1022 C1019 0.999 . S
H1023 C1004 0.913 . S
H1024 C1042 0.951 . S
H1025 C1044 0.951 . S
H1026 C1046 0.950 . S
H1027 C1047 0.950 . S
H1028 C1049 0.950 . S
H1029 C1052 0.950 . S
H1030 C1053 0.950 . S
H1031 C1055 0.950 . S
H1032 C1056 0.950 . S
H1033 C1057 0.951 . S
H1034 C1059 0.951 . S
H1035 C1061 0.950 . S
H1036 C1062 0.950 . S
H1037 C1064 0.950 . S
H1038 C1067 0.950 . S
H1039 C1068 0.950 . S
H1040 C1070 0.950 . S
H1041 C1071 0.950 . S
C1042 H1024 0.951 . S
C1042 C1043 1.366 . S
C1042 C1044 1.388 . S
C1043 C1042 1.366 . S
C1043 C1047 1.385 1_455 S
C1044 H1025 0.951 . S
C1044 C1042 1.388 . S
C1044 C1045 1.366 . S
C1045 C1044 1.366 . S
C1045 C1046 1.414 1_455 S
C1045 C1048 1.499 . S
C1046 H1026 0.950 . S
C1046 C1045 1.414 1_655 S
C1046 C1047 1.374 . S
C1047 H1027 0.950 . S
C1047 C1043 1.385 1_655 S
C1047 C1046 1.374 . S
C1048 C1045 1.499 . S
C1048 C1049 1.373 1_455 S
C1048 C1050 1.389 . S
C1049 H1028 0.950 . S
C1049 C1048 1.373 1_655 S
C1049 C1065 1.377 . S
C1050 C1048 1.389 . S
C1050 C1051 1.524 . S
C1050 C1064 1.377 . S
C1051 C1050 1.524 . S
C1051 C1052 1.397 . S
C1051 C1056 1.363 . S
C1052 H1029 0.950 . S
C1052 C1051 1.397 . S
C1052 C1053 1.334 . S
C1053 H1030 0.950 . S
C1053 C1052 1.334 . S
C1053 C1054 1.287 . S
C1054 C1053 1.287 . S
C1054 C1055 1.524 . S
C1054 H1073 0.913 . S
C1055 H1031 0.950 . S
C1055 C1054 1.524 . S
C1055 C1056 1.415 . S
C1056 H1032 0.950 . S
C1056 C1051 1.363 . S
C1056 C1055 1.415 . S
C1057 H1033 0.951 . S
C1057 C1058 1.365 . S
C1057 C1059 1.388 . S
C1058 C1057 1.365 . S
C1058 C1062 1.385 1_655 S
C1059 H1034 0.951 . S
C1059 C1057 1.388 . S
C1059 C1060 1.366 1_655 S
C1060 C1059 1.366 1_455 S
C1060 C1061 1.414 . S
C1060 C1063 1.499 . S
C1061 H1035 0.950 . S
C1061 C1060 1.414 . S
C1061 C1062 1.374 . S
C1062 H1036 0.950 . S
C1062 C1058 1.385 1_455 S
C1062 C1061 1.374 . S
C1063 C1060 1.499 . S
C1063 C1064 1.373 . S
C1063 C1065 1.389 1_455 S
C1064 H1037 0.950 . S
C1064 C1050 1.377 . S
C1064 C1063 1.373 . S
C1065 C1049 1.377 . S
C1065 C1063 1.389 1_655 S
C1065 C1066 1.524 . S
C1066 C1065 1.524 . S
C1066 C1067 1.397 . S
C1066 C1071 1.363 . S
C1067 H1038 0.950 . S
C1067 C1066 1.397 . S
C1067 C1068 1.334 . S
C1068 H1039 0.950 . S
C1068 C1067 1.334 . S
C1068 C1069 1.287 . S
C1069 C1068 1.287 . S
C1069 C1070 1.524 . S
C1069 H1072 0.999 . S
C1070 H1040 0.950 . S
C1070 C1069 1.524 . S
C1070 C1071 1.415 . S
C1071 H1041 0.950 . S
C1071 C1066 1.363 . S
C1071 C1070 1.415 . S
H1072 C1069 0.999 . S
H1073 C1054 0.913 . S
C193 C6 0.492 . S
C208 C169 0.441 . S
C243 C59 1.771 . S
C258 C151 1.753 . S
C293 C86 1.177 . S
C308 C163 1.190 . S
C343 C15 0.431 . S
C358 C172 0.293 . S
C408 C154 1.788 . S
C393 C50 1.787 . S
C458 C160 1.283 . S
C443 C95 1.260 . S
C493 C46 1.179 . S
C508 C133 1.193 . S
C543 C99 2.945 . S
C558 C142 2.915 1_655 S
C593 C10 1.827 . S
C608 C124 1.844 . S
C658 C136 1.256 . S
C643 C55 1.231 . S
C708 C145 2.826 . S
C693 C90 2.816 . S
C743 C19 1.751 . S
C758 C127 1.735 . S
C808 C143 1.773 . S
C793 C18 1.705 . S
C843 C49 1.329 . S
C858 C125 1.377 . S
C893 C98 1.452 . S
C908 C134 1.509 . S
C958 C161 1.486 . S
C943 C58 1.439 . S
C1008 C170 1.090 . S
C993 C89 1.069 . S
C1043 C9 1.325 . S
C1058 C152 1.366 1_655 S
