# Generated by pormake.
# Topology pyr, (3,6)-cn, num edge types: 1
# Building blocks:
#     Node 0, Type 0, BuildingBlock: ESEHIV_clean_linker_0, # of connection points: 3
#     Node 1, Type 0, BuildingBlock: ESEHIV_clean_linker_0, # of connection points: 3
#     Node 2, Type 0, BuildingBlock: ESEHIV_clean_linker_0, # of connection points: 3
#     Node 3, Type 0, BuildingBlock: ESEHIV_clean_linker_0, # of connection points: 3
#     Node 4, Type 0, BuildingBlock: ESEHIV_clean_linker_0, # of connection points: 3
#     Node 5, Type 0, BuildingBlock: ESEHIV_clean_linker_0, # of connection points: 3
#     Node 6, Type 0, BuildingBlock: ESEHIV_clean_linker_0, # of connection points: 3
#     Node 7, Type 0, BuildingBlock: ESEHIV_clean_linker_0, # of connection points: 3
#     Node 8, Type 1, BuildingBlock: BETFEN_clean_sbu_0, # of connection points: 6
#     Node 9, Type 1, BuildingBlock: BETFEN_clean_sbu_0, # of connection points: 6
#     Node 10, Type 1, BuildingBlock: BETFEN_clean_sbu_0, # of connection points: 6
#     Node 11, Type 1, BuildingBlock: BETFEN_clean_sbu_0, # of connection points: 6
#     Edge 12, Type (0, 1), BuildingBlock: ZUJKAS_clean_linker_0, # of connection points: 2
#     Edge 13, Type (0, 1), BuildingBlock: ZUJKAS_clean_linker_0, # of connection points: 2
#     Edge 14, Type (0, 1), BuildingBlock: ZUJKAS_clean_linker_0, # of connection points: 2
#     Edge 15, Type (0, 1), BuildingBlock: ZUJKAS_clean_linker_0, # of connection points: 2
#     Edge 16, Type (0, 1), BuildingBlock: ZUJKAS_clean_linker_0, # of connection points: 2
#     Edge 17, Type (0, 1), BuildingBlock: ZUJKAS_clean_linker_0, # of connection points: 2
#     Edge 18, Type (0, 1), BuildingBlock: ZUJKAS_clean_linker_0, # of connection points: 2
#     Edge 19, Type (0, 1), BuildingBlock: ZUJKAS_clean_linker_0, # of connection points: 2
#     Edge 20, Type (0, 1), BuildingBlock: ZUJKAS_clean_linker_0, # of connection points: 2
#     Edge 21, Type (0, 1), BuildingBlock: ZUJKAS_clean_linker_0, # of connection points: 2
#     Edge 22, Type (0, 1), BuildingBlock: ZUJKAS_clean_linker_0, # of connection points: 2
#     Edge 23, Type (0, 1), BuildingBlock: ZUJKAS_clean_linker_0, # of connection points: 2
#     Edge 24, Type (0, 1), BuildingBlock: ZUJKAS_clean_linker_0, # of connection points: 2
#     Edge 25, Type (0, 1), BuildingBlock: ZUJKAS_clean_linker_0, # of connection points: 2
#     Edge 26, Type (0, 1), BuildingBlock: ZUJKAS_clean_linker_0, # of connection points: 2
#     Edge 27, Type (0, 1), BuildingBlock: ZUJKAS_clean_linker_0, # of connection points: 2
#     Edge 28, Type (0, 1), BuildingBlock: ZUJKAS_clean_linker_0, # of connection points: 2
#     Edge 29, Type (0, 1), BuildingBlock: ZUJKAS_clean_linker_0, # of connection points: 2
#     Edge 30, Type (0, 1), BuildingBlock: ZUJKAS_clean_linker_0, # of connection points: 2
#     Edge 31, Type (0, 1), BuildingBlock: ZUJKAS_clean_linker_0, # of connection points: 2
#     Edge 32, Type (0, 1), BuildingBlock: ZUJKAS_clean_linker_0, # of connection points: 2
#     Edge 33, Type (0, 1), BuildingBlock: ZUJKAS_clean_linker_0, # of connection points: 2
#     Edge 34, Type (0, 1), BuildingBlock: ZUJKAS_clean_linker_0, # of connection points: 2
#     Edge 35, Type (0, 1), BuildingBlock: ZUJKAS_clean_linker_0, # of connection points: 2
# Relax obj value: 0.130
# Max RMSD: 0.233
# Mean RMSD: 0.111
data_MOF--net-pyr--node1-BETFEN_clean_sbu_0--node2-ESEHIV_clean_linker_0--edge1-ZUJKAS_clean_linker_0
_symmetry_space_group_name_H-M    P1
_symmetry_Int_Tables_number       1
_symmetry_cell_setting            triclinic
loop_
_symmetry_equiv_pos_as_xyz
'x, y, z'
_cell_length_a     45.696558
_cell_length_b     50.132687
_cell_length_c     46.298299
_cell_angle_alpha  91.73799
_cell_angle_beta   97.489589
_cell_angle_gamma 108.7624
loop_
_atom_site_label
_atom_site_type_symbol
_atom_site_fract_x
_atom_site_fract_y
_atom_site_fract_z
_atom_type_partial_charge
H0 H 0.33674 0.36672 0.28365 0.0
H1 H 0.37591 0.30023 0.29835 0.0
H2 H 0.39786 0.35188 0.22667 0.0
C3 C 0.35241 0.35568 0.27831 0.0
C4 C 0.36714 0.36215 0.25339 0.0
C5 C 0.35517 0.33325 0.29466 0.0
C6 C 0.37487 0.31854 0.28697 0.0
C7 C 0.39057 0.32524 0.26264 0.0
C8 C 0.38671 0.34721 0.24605 0.0
H9 H 0.27844 0.864 0.71662 0.0
H10 H 0.34805 0.82527 0.70694 0.0
H11 H 0.28792 0.83394 0.63113 0.0
C12 C 0.28987 0.85411 0.70264 0.0
C13 C 0.28038 0.85084 0.67219 0.0
C14 C 0.31464 0.84556 0.71533 0.0
C15 C 0.32861 0.8317 0.69749 0.0
C16 C 0.31849 0.82686 0.66729 0.0
C17 C 0.29444 0.83648 0.65465 0.0
H18 H 0.65752 0.31353 0.87552 0.0
H19 H 0.66942 0.37232 0.8091 0.0
H20 H 0.5862 0.29919 0.8007 0.0
C21 C 0.64889 0.31998 0.85489 0.0
C22 C 0.61974 0.30335 0.83958 0.0
C23 C 0.66704 0.34475 0.84404 0.0
C24 C 0.65558 0.35305 0.81741 0.0
C25 C 0.62649 0.33688 0.80143 0.0
C26 C 0.60863 0.31187 0.81269 0.0
H27 H 0.84955 0.68345 0.38016 0.0
H28 H 0.91321 0.69474 0.31733 0.0
H29 H 0.84013 0.61475 0.31814 0.0
C30 C 0.85789 0.675 0.36228 0.0
C31 C 0.84226 0.64696 0.35107 0.0
C32 C 0.88356 0.6925 0.35054 0.0
C33 C 0.89314 0.68162 0.32628 0.0
C34 C 0.87778 0.65343 0.31435 0.0
C35 C 0.85221 0.63635 0.32697 0.0
H36 H 0.66867 0.74588 0.75623 0.0
H37 H 0.71656 0.68587 0.77289 0.0
H38 H 0.65489 0.6971 0.83122 0.0
C39 C 0.67213 0.7289 0.76867 0.0
C40 C 0.65848 0.72262 0.79424 0.0
C41 C 0.69297 0.71559 0.76078 0.0
C42 C 0.69946 0.69525 0.77829 0.0
C43 C 0.68616 0.68873 0.80396 0.0
C44 C 0.66507 0.70197 0.81135 0.0
H45 H 0.70022 0.21722 0.36736 0.0
H46 H 0.76107 0.169 0.357 0.0
H47 H 0.76372 0.2093 0.44121 0.0
C48 C 0.71829 0.20897 0.37664 0.0
C49 C 0.73032 0.2149 0.40649 0.0
C50 C 0.72942 0.19264 0.35859 0.0
C51 C 0.75328 0.18257 0.3706 0.0
C52 C 0.76594 0.18852 0.40034 0.0
C53 C 0.75438 0.20483 0.41818 0.0
H54 H 0.38754 0.72069 0.18537 0.0
H55 H 0.37743 0.65866 0.24838 0.0
H56 H 0.45847 0.73388 0.26038 0.0
C57 C 0.39667 0.71335 0.20524 0.0
C58 C 0.42545 0.73009 0.22117 0.0
C59 C 0.37902 0.68777 0.21505 0.0
C60 C 0.39049 0.67889 0.24131 0.0
C61 C 0.41895 0.69531 0.2581 0.0
C62 C 0.43644 0.72103 0.24781 0.0
H63 H 0.13274 0.34427 0.74472 0.0
H64 H 0.19736 0.35708 0.68267 0.0
H65 H 0.20434 0.42522 0.74446 0.0
C66 C 0.15275 0.35776 0.73596 0.0
C67 C 0.16741 0.38599 0.74798 0.0
C68 C 0.16293 0.34727 0.71185 0.0
C69 C 0.18853 0.36524 0.70038 0.0
C70 C 0.20345 0.39338 0.71164 0.0
C71 C 0.19285 0.40356 0.73558 0.0
Pr72 Pr 1.00196 1.00704 0.54877 0.0
Pr73 Pr 0.0468 0.0329 0.51228 0.0
C74 C 0.9621 0.97517 0.58221 0.0
C75 C 0.94584 0.94597 0.58848 0.0
C76 C 0.94428 0.93975 0.61764 0.0
C77 C 0.92563 0.91331 0.62434 0.0
C78 C 0.90807 0.89263 0.60194 0.0
C79 C 0.91078 0.89847 0.5727 0.0
C80 C 0.92962 0.92492 0.56601 0.0
C81 C 0.03123 0.06474 0.56717 0.0
C82 C 0.0695 0.99609 0.55944 0.0
C83 C 0.08649 0.06352 0.4781 0.0
C84 C 0.1005 0.09055 0.46573 0.0
C85 C 0.10363 0.09013 0.43605 0.0
C86 C 0.12137 0.11435 0.42442 0.0
C87 C 0.13641 0.13945 0.44232 0.0
C88 C 0.13174 0.14034 0.4717 0.0
C89 C 0.11395 0.116 0.48339 0.0
C90 C 1.01757 0.97503 0.49462 0.0
C91 C 0.97932 0.04286 0.50069 0.0
O92 O 0.95319 0.98331 0.55704 0.0
O93 O 0.99222 0.98552 0.59068 0.0
O94 O 0.04553 0.04848 0.5595 0.0
O95 O 1.00176 0.05123 0.56587 0.0
O96 O 0.08005 0.01918 0.54607 0.0
O97 O 0.03933 0.9844 0.55978 0.0
O98 O 0.09435 0.06174 0.50595 0.0
O99 O 0.05757 0.04854 0.46804 0.0
O100 O 1.00328 0.99147 0.50176 0.0
O101 O 0.04714 0.98839 0.49627 0.0
O102 O 0.96903 0.01882 0.5126 0.0
O103 O 1.00958 0.05567 0.50224 0.0
H104 H 0.95653 0.95575 0.63526 0.0
H105 H 0.92375 0.90961 0.64706 0.0
H106 H 0.89775 0.88283 0.55502 0.0
H107 H 0.93066 0.92919 0.54329 0.0
H108 H 0.09344 0.0707 0.42209 0.0
H109 H 0.1241 0.1132 0.40157 0.0
H110 H 0.1431 0.15942 0.48598 0.0
H111 H 0.1118 0.11681 0.5064 0.0
Pr112 Pr 0.49532 0.02134 0.04485 0.0
Pr113 Pr 0.55318 0.01851 1.02587 0.0
C114 C 0.4503 0.02515 0.07529 0.0
C115 C 0.44797 0.04611 0.09713 0.0
C116 C 0.42416 0.0581 0.09184 0.0
C117 C 0.42337 0.07999 0.11078 0.0
C118 C 0.44637 0.09028 0.13549 0.0
C119 C 0.46967 0.07763 0.14122 0.0
C120 C 0.47047 0.05577 0.12223 0.0
C121 C 0.51545 0.05872 1.00213 0.0
C122 C 0.56404 0.06132 0.08187 0.0
C123 C 0.59792 1.01523 0.99483 0.0
C124 C 0.59972 0.99425 0.97278 0.0
C125 C 0.6255 0.98468 0.97569 0.0
C126 C 0.62591 0.96251 0.95688 0.0
C127 C 0.60045 0.94948 0.93486 0.0
C128 C 0.57513 0.95981 0.93135 0.0
C129 C 0.57477 0.98198 0.95013 0.0
C130 C 0.53291 0.98097 0.06837 0.0
C131 C 0.48449 0.97744 0.98962 0.0
O132 O 0.46902 1.01087 0.08337 0.0
O133 O 0.45211 0.03321 0.04882 0.0
O134 O 0.53299 0.055 1.024 0.0
O135 O 0.48664 0.04301 1.00192 0.0
O136 O 0.57706 0.05722 0.0592 0.0
O137 O 0.53432 0.04756 0.08294 0.0
O138 O 0.57895 0.02937 0.9871 0.0
O139 O 0.59659 1.00712 1.02133 0.0
O140 O 0.51545 0.98485 0.04653 0.0
O141 O 0.56181 0.99653 0.06862 0.0
O142 O 0.47119 0.98242 1.01175 0.0
O143 O 0.51428 0.99088 0.98854 0.0
H144 H 0.40666 0.05106 0.07256 0.0
H145 H 0.40533 0.08949 0.1055 0.0
H146 H 0.48745 0.08477 0.16027 0.0
H147 H 0.48906 0.04684 0.12695 0.0
H148 H 0.64498 0.99387 0.99299 0.0
H149 H 0.64598 0.95533 0.95982 0.0
H150 H 0.55505 0.95007 0.9148 0.0
H151 H 0.55456 0.98897 0.9474 0.0
Pr152 Pr 0.534 0.55056 0.55001 0.0
Pr153 Pr 0.51265 0.48838 0.51755 0.0
C154 C 0.54861 0.60611 0.56488 0.0
C155 C 0.53021 0.62511 0.56708 0.0
C156 C 0.54206 0.64951 0.58624 0.0
C157 C 0.52404 0.66697 0.58946 0.0
C158 C 0.49385 0.66033 0.57349 0.0
C159 C 0.48226 0.63593 0.55404 0.0
C160 C 0.5002 0.6184 0.55099 0.0
C161 C 0.54722 0.50931 0.58348 0.0
C162 C 0.46576 0.50612 0.55843 0.0
C163 C 0.50333 0.43316 0.50585 0.0
C164 C 0.52159 0.41363 0.50657 0.0
C165 C 0.52083 0.39782 0.48081 0.0
C166 C 0.53915 0.38031 0.48039 0.0
C167 C 0.55868 0.3783 0.50575 0.0
C168 C 0.559 0.39373 0.53171 0.0
C169 C 0.54044 0.41109 0.53216 0.0
C170 C 0.4868 0.52366 0.48363 0.0
C171 C 0.58091 0.53437 0.50689 0.0
O172 O 0.54864 0.59598 0.53853 0.0
O173 O 0.54565 0.58723 0.58413 0.0
O174 O 0.55007 0.51144 0.55671 0.0
O175 O 0.53965 0.53005 0.59405 0.0
O176 O 0.4756 0.48573 0.54909 0.0
O177 O 0.48103 0.53308 0.55576 0.0
O178 O 0.49955 0.44354 0.53093 0.0
O179 O 0.50836 0.45157 0.48604 0.0
O180 O 0.50352 0.52944 0.50818 0.0
O181 O 0.48153 0.49726 0.47572 0.0
O182 O 0.57528 0.55391 0.52314 0.0
O183 O 0.5621 0.50779 0.50318 0.0
H184 H 0.56505 0.65482 0.59903 0.0
H185 H 0.5335 0.68531 0.605 0.0
H186 H 0.4593 0.63035 0.54115 0.0
H187 H 0.49052 0.59947 0.53626 0.0
H188 H 0.5064 0.39936 0.46084 0.0
H189 H 0.53865 0.3689 0.45998 0.0
H190 H 0.57353 0.39232 0.55167 0.0
H191 H 0.54104 0.42264 0.55244 0.0
Pr192 Pr 1.01922 0.54279 1.01238 0.0
Pr193 Pr 0.02478 0.49622 0.04943 0.0
C194 C 1.00096 0.58074 0.98146 0.0
C195 C 0.97284 0.58899 0.97717 0.0
C196 C 0.97309 0.61291 0.96231 0.0
C197 C 0.94578 0.61983 0.95632 0.0
C198 C 0.91778 0.60285 0.96508 0.0
C199 C 0.91789 0.57923 0.98066 0.0
C200 C 0.94526 0.57238 0.98671 0.0
C201 C 0.07924 0.55335 0.04294 0.0
C202 C 0.99393 0.53928 0.07749 0.0
C203 C 0.0446 0.45928 0.08064 0.0
C204 C 0.07403 0.45315 0.0855 0.0
C205 C 0.07563 0.42979 0.10056 0.0
C206 C 0.10408 0.42485 0.10686 0.0
C207 C 0.1314 0.44326 0.09819 0.0
C208 C 0.12949 0.4664 0.08254 0.0
C209 C 0.10098 0.47128 0.0762 0.0
C210 C 0.96475 0.48515 1.01878 0.0
C211 C 0.04964 0.49962 0.98406 0.0
O212 O 0.99748 0.55532 0.97072 0.0
O213 O 1.01768 0.58716 1.00739 0.0
O214 O 0.05414 0.54299 0.0532 0.0
O215 O 0.074 0.56011 1.0164 0.0
O216 O 1.00968 0.52188 0.0842 0.0
O217 O 0.99041 0.54693 0.05048 0.0
O218 O 0.04589 0.48401 0.0916 0.0
O219 O 0.02876 0.45262 0.05434 0.0
O220 O 0.98982 0.49593 1.00852 0.0
O221 O 0.97014 0.47795 0.04512 0.0
O222 O 0.03393 0.51707 0.97744 0.0
O223 O 0.05327 0.49196 1.01105 0.0
H224 H 0.99421 0.62586 0.95475 0.0
H225 H 0.94636 0.63791 0.9439 0.0
H226 H 0.89677 0.56591 0.9879 0.0
H227 H 0.94479 0.55382 0.99831 0.0
H228 H 0.05502 0.41571 0.10797 0.0
H229 H 0.10485 0.4071 0.11934 0.0
H230 H 0.15004 0.48082 0.07538 0.0
H231 H 0.10006 0.48945 0.06448 0.0
H232 H 0.29384 0.33008 0.29164 0.0
H233 H 0.25659 0.30586 0.32286 0.0
H234 H 0.3289 0.284 0.37629 0.0
H235 H 0.36715 0.31009 0.34627 0.0
H236 H 0.24059 0.25128 0.32596 0.0
H237 H 0.28258 0.30206 0.43814 0.0
H238 H 0.29741 0.31871 0.40656 0.0
H239 H 0.31232 0.29262 0.42286 0.0
C240 C 0.30236 0.32129 0.31074 0.0
C241 C 0.33371 0.32217 0.31638 0.0
C242 C 0.2808 0.30714 0.32845 0.0
C243 C 0.2899 0.29323 0.35203 0.0
C244 C 0.3214 0.29504 0.35858 0.0
H245 H 0.18131 0.13801 0.40986 0.0
H246 H 0.2174 0.17732 0.38928 0.0
C247 C 0.34317 0.30961 0.34109 0.0
C248 C 0.26573 0.2737 0.36692 0.0
H249 H 0.24581 0.25462 0.43375 0.0
C250 C 0.24153 0.25234 0.34952 0.0
C251 C 0.26673 0.27516 0.39763 0.0
C252 C 0.29099 0.29857 0.41735 0.0
C253 C 0.21901 0.23185 0.36196 0.0
C254 C 0.22115 0.23226 0.3927 0.0
C255 C 0.24451 0.25421 0.41017 0.0
C256 C 0.20034 0.20904 0.40684 0.0
C257 C 0.19325 0.20976 0.34203 0.0
C258 C 0.17952 0.21405 0.42438 0.0
C259 C 0.15879 0.19152 0.43627 0.0
C260 C 0.15867 0.16375 0.43069 0.0
C261 C 0.18029 0.15907 0.41388 0.0
C262 C 0.20098 0.1815 0.40219 0.0
H263 H 0.18946 0.21714 0.3199 0.0
H264 H 0.19984 0.19043 0.3396 0.0
H265 H 0.1709 0.20403 0.35112 0.0
H266 H 0.17886 0.23525 0.42832 0.0
H267 H 0.14244 0.1957 0.44923 0.0
H268 H 0.32393 0.89572 0.7458 0.0
H269 H 0.35094 0.91144 0.79533 0.0
H270 H 0.36463 0.8308 0.8048 0.0
H271 H 0.33635 0.8143 0.75537 0.0
H272 H 0.3485 0.85375 0.85567 0.0
H273 H 0.44657 0.93055 0.81197 0.0
H274 H 0.40927 0.93405 0.79914 0.0
H275 H 0.41694 0.90222 0.78925 0.0
C276 C 0.33193 0.88099 0.75858 0.0
C277 C 0.32808 0.85376 0.74655 0.0
C278 C 0.3477 0.89016 0.78678 0.0
C279 C 0.36026 0.87245 0.8034 0.0
C280 C 0.35528 0.84482 0.79213 0.0
H281 H 0.50579 0.94942 0.95037 0.0
H282 H 0.4757 0.9192 0.90708 0.0
C283 C 0.33933 0.83553 0.76387 0.0
C284 C 0.37991 0.88354 0.83188 0.0
H285 H 0.44544 0.9364 0.86302 0.0
C286 C 0.36988 0.87164 0.85738 0.0
C287 C 0.4081 0.90645 0.83388 0.0
C288 C 0.42107 0.91891 0.80709 0.0
C289 C 0.38673 0.88293 0.88505 0.0
C290 C 0.41387 0.907 0.8871 0.0
C291 C 0.42449 0.91809 0.86147 0.0
C292 C 0.43117 0.92193 0.9154 0.0
C293 C 0.37532 0.86896 0.91174 0.0
C294 C 0.41609 0.9332 0.93469 0.0
C295 C 0.43326 0.95038 0.95956 0.0
C296 C 0.46586 0.957 0.96518 0.0
C297 C 0.48077 0.94504 0.94632 0.0
C298 C 0.46358 0.92763 0.92168 0.0
H299 H 0.36128 0.84632 0.90635 0.0
H300 H 0.39509 0.87048 0.92913 0.0
H301 H 0.36009 0.8796 0.92047 0.0
H302 H 0.39125 0.92971 0.92991 0.0
H303 H 0.42119 0.95945 0.97365 0.0
H304 H 0.65954 0.35822 0.75729 0.0
H305 H 0.64395 0.38261 0.7161 0.0
H306 H 0.55224 0.36367 0.74094 0.0
H307 H 0.56783 0.33954 0.78271 0.0
H308 H 0.56394 0.3587 0.67164 0.0
H309 H 0.62236 0.46008 0.73999 0.0
H310 H 0.64172 0.43391 0.74025 0.0
H311 H 0.60651 0.42706 0.75608 0.0
C312 C 0.63591 0.35894 0.75387 0.0
C313 C 0.61506 0.3472 0.7736 0.0
C314 C 0.62701 0.37276 0.73018 0.0
C315 C 0.59701 0.37504 0.72551 0.0
C316 C 0.57548 0.36202 0.74409 0.0
H317 H 0.53087 0.49768 0.63694 0.0
H318 H 0.54232 0.46351 0.66905 0.0
C319 C 0.5844 0.34816 0.76791 0.0
C320 C 0.58942 0.39349 0.70318 0.0
H321 H 0.60048 0.46285 0.69189 0.0
C322 C 0.57189 0.38147 0.67596 0.0
C323 C 0.59986 0.42316 0.7089 0.0
C324 C 0.61858 0.43704 0.73788 0.0
C325 C 0.56439 0.39846 0.65436 0.0
C326 C 0.57488 0.42822 0.66013 0.0
C327 C 0.5925 0.44009 0.68738 0.0
C328 C 0.56649 0.44755 0.63913 0.0
C329 C 0.54471 0.38445 0.62583 0.0
C330 C 0.57616 0.45005 0.61138 0.0
C331 C 0.56954 0.46975 0.5928 0.0
C332 C 0.5533 0.4873 0.60176 0.0
C333 C 0.54349 0.48452 0.62938 0.0
C334 C 0.54999 0.46494 0.6478 0.0
H335 H 0.53297 0.36147 0.62718 0.0
H336 H 0.52665 0.3944 0.61912 0.0
H337 H 0.55987 0.38706 0.60853 0.0
H338 H 0.58942 0.43728 0.60434 0.0
H339 H 0.57767 0.47164 0.57176 0.0
H340 H 0.89589 0.67868 0.26456 0.0
H341 H 0.91362 0.65915 0.22361 0.0
H342 H 0.9038 0.58238 0.26671 0.0
H343 H 0.88539 0.60151 0.30726 0.0
H344 H 0.96233 0.64324 0.21892 0.0
H345 H 0.85772 0.5487 0.18844 0.0
H346 H 0.8584 0.57671 0.21414 0.0
H347 H 0.87463 0.54977 0.22579 0.0
C348 C 0.89743 0.6576 0.26531 0.0
C349 C 0.88884 0.64163 0.28922 0.0
C350 C 0.90755 0.64638 0.24177 0.0
C351 C 0.90948 0.6189 0.24146 0.0
C352 C 0.90157 0.60319 0.26566 0.0
H353 H 0.98827 0.52219 0.13295 0.0
H354 H 0.96746 0.54173 0.17162 0.0
C355 C 0.89113 0.61426 0.28902 0.0
C356 C 0.9206 0.60707 0.21634 0.0
H357 H 0.90296 0.54947 0.16726 0.0
C358 C 0.94911 0.62284 0.20752 0.0
C359 C 0.90352 0.58043 0.20109 0.0
C360 C 0.87173 0.56307 0.20763 0.0
C361 C 0.96119 0.61254 0.18467 0.0
C362 C 0.94447 0.58569 0.17002 0.0
C363 C 0.91592 0.56997 0.17858 0.0
C364 C 0.95648 0.57351 0.146 0.0
C365 C 0.99216 0.63015 0.17664 0.0
C366 C 0.9569 0.58454 0.11843 0.0
C367 C 0.96852 0.57319 0.09606 0.0
C368 C 0.98028 0.55066 0.1008 0.0
C369 C 0.97956 0.53955 0.12841 0.0
C370 C 0.96761 0.5507 0.15062 0.0
H371 H 1.00434 0.64862 0.19262 0.0
H372 H 1.00758 0.61711 0.17528 0.0
H373 H 0.98827 0.63802 0.1548 0.0
H374 H 0.94822 0.60198 0.1142 0.0
H375 H 0.96866 0.58236 0.07518 0.0
H376 H 0.4311 0.30363 0.29499 0.0
H377 H 0.45181 0.26725 0.27855 0.0
H378 H 0.4062 0.26701 0.19084 0.0
H379 H 0.38568 0.30323 0.20699 0.0
H380 H 0.41676 0.21482 0.25646 0.0
H381 H 0.49089 0.2666 0.17557 0.0
H382 H 0.47793 0.28629 0.20154 0.0
H383 H 0.45278 0.26992 0.16808 0.0
C384 C 0.42602 0.29615 0.2721 0.0
C385 C 0.40693 0.30641 0.25224 0.0
C386 C 0.43788 0.27544 0.26274 0.0
C387 C 0.43094 0.26472 0.23339 0.0
C388 C 0.41264 0.27553 0.21341 0.0
H389 H 0.39649 0.10145 0.15353 0.0
H390 H 0.3968 0.14391 0.18094 0.0
C391 C 0.40089 0.29627 0.22269 0.0
C392 C 0.43981 0.24021 0.22404 0.0
H393 H 0.47064 0.21545 0.17003 0.0
C394 C 0.42908 0.21509 0.23791 0.0
C395 C 0.45632 0.24065 0.20016 0.0
C396 C 0.47043 0.26743 0.18571 0.0
C397 C 0.43274 0.18999 0.2274 0.0
C398 C 0.44687 0.18992 0.202 0.0
C399 C 0.45935 0.21541 0.18925 0.0
C400 C 0.44711 0.16342 0.18713 0.0
C401 C 0.42102 0.16374 0.2434 0.0
C402 C 0.47524 0.16048 0.18101 0.0
C403 C 0.47508 0.13641 0.16486 0.0
C404 C 0.44674 0.11488 0.15442 0.0
C405 C 0.41867 0.11772 0.16102 0.0
C406 C 0.41885 0.14182 0.17706 0.0
H407 H 0.421 0.16915 0.26685 0.0
H408 H 0.3966 0.15174 0.23363 0.0
H409 H 0.43549 0.14985 0.24182 0.0
H410 H 0.49727 0.17703 0.18834 0.0
H411 H 0.49708 0.13511 0.15979 0.0
H412 H 0.27417 0.90078 0.69098 0.0
H413 H 0.2366 0.92263 0.67123 0.0
H414 H 0.20014 0.85653 0.60134 0.0
H415 H 0.23578 0.83266 0.62286 0.0
H416 H 0.23078 0.94524 0.6239 0.0
H417 H 0.12026 0.85729 0.62495 0.0
H418 H 0.1574 0.85602 0.6423 0.0
H419 H 0.14593 0.84798 0.60345 0.0
C420 C 0.25755 0.89018 0.67197 0.0
C421 C 0.25765 0.86441 0.65905 0.0
C422 C 0.2363 0.90306 0.66038 0.0
C423 C 0.21504 0.89104 0.63506 0.0
C424 C 0.21563 0.86582 0.62141 0.0
H425 H 0.12265 0.99617 0.5393 0.0
H426 H 0.15739 0.96995 0.55637 0.0
C427 C 0.23645 0.85243 0.63349 0.0
C428 C 0.19325 0.90578 0.62281 0.0
H429 H 0.11634 0.89737 0.60079 0.0
C430 C 0.20573 0.93475 0.619 0.0
C431 C 0.16049 0.89227 0.61676 0.0
C432 C 0.14518 0.86176 0.62236 0.0
C433 C 0.1865 0.95066 0.60979 0.0
C434 C 0.15386 0.93692 0.60257 0.0
C435 C 0.14136 0.90789 0.6061 0.0
C436 C 0.13226 0.95231 0.59167 0.0
C437 C 0.20143 0.98219 0.60907 0.0
C438 C 0.10563 0.95011 0.60487 0.0
C439 C 0.08513 0.96438 0.59447 0.0
C440 C 0.09127 0.9815 0.57108 0.0
C441 C 0.1178 0.98363 0.55784 0.0
C442 C 0.13777 0.96876 0.56769 0.0
H443 H 0.22375 0.99027 0.62439 0.0
H444 H 0.2069 0.98706 0.58677 0.0
H445 H 0.18573 0.99376 0.61489 0.0
H446 H 0.10075 0.93743 0.6233 0.0
H447 H 0.06469 0.96227 0.60489 0.0
H448 H 0.71209 0.32571 0.87224 0.0
H449 H 0.76196 0.3535 0.901 0.0
H450 H 0.74289 0.43031 0.88113 0.0
H451 H 0.69224 0.40257 0.85329 0.0
H452 H 0.81212 0.39329 0.88441 0.0
H453 H 0.76453 0.44033 0.9697 0.0
H454 H 0.74037 0.41127 0.9442 0.0
H455 H 0.75191 0.44671 0.93295 0.0
C456 C 0.71826 0.3485 0.87428 0.0
C457 C 0.69797 0.36187 0.86066 0.0
C458 C 0.74692 0.36438 0.89055 0.0
C459 C 0.75597 0.39397 0.89361 0.0
C460 C 0.73612 0.40747 0.87957 0.0
H461 H 0.94931 0.49657 0.96264 0.0
H462 H 0.89848 0.47719 0.93146 0.0
C463 C 0.70734 0.39159 0.86334 0.0
C464 C 0.7864 0.41047 0.91125 0.0
H465 H 0.81951 0.45589 0.97205 0.0
C466 C 0.81377 0.40707 0.90351 0.0
C467 C 0.78846 0.42822 0.93633 0.0
C468 C 0.75976 0.43173 0.94652 0.0
C469 C 0.84308 0.42069 0.92029 0.0
C470 C 0.8452 0.4387 0.94518 0.0
C471 C 0.81787 0.44229 0.9528 0.0
C472 C 0.87531 0.45258 0.96455 0.0
C473 C 0.87134 0.41484 0.91177 0.0
C474 C 0.8788 0.4462 0.99387 0.0
C475 C 0.90769 0.45747 1.01176 0.0
C476 C 0.93363 0.47527 1.00064 0.0
C477 C 0.9298 0.48259 0.97165 0.0
C478 C 0.90084 0.47143 0.95381 0.0
H479 H 0.86469 0.39558 0.89655 0.0
H480 H 0.88504 0.43297 0.90062 0.0
H481 H 0.88667 0.41214 0.93135 0.0
H482 H 0.8594 0.43186 1.00268 0.0
H483 H 0.9099 0.45163 0.03405 0.0
H484 H 0.78392 0.6127 0.32494 0.0
H485 H 0.73874 0.58875 0.34916 0.0
H486 H 0.79521 0.61821 0.43327 0.0
H487 H 0.8403 0.6416 0.40933 0.0
H488 H 0.75595 0.56226 0.43142 0.0
H489 H 0.6905 0.63248 0.3887 0.0
H490 H 0.70262 0.61361 0.36154 0.0
H491 H 0.7315 0.63997 0.38666 0.0
C492 C 0.78679 0.61365 0.34858 0.0
C493 C 0.81565 0.62933 0.36518 0.0
C494 C 0.76087 0.6002 0.36242 0.0
C495 C 0.76336 0.60212 0.3931 0.0
C496 C 0.79256 0.61657 0.40962 0.0
H497 H 0.62377 0.5873 0.50658 0.0
H498 H 0.66751 0.60183 0.47878 0.0
C499 C 0.81832 0.63004 0.39587 0.0
C500 C 0.73559 0.59012 0.40828 0.0
H501 H 0.66564 0.59741 0.41846 0.0
C502 C 0.73608 0.56978 0.42842 0.0
C503 C 0.70985 0.60024 0.40475 0.0
C504 C 0.70851 0.62294 0.38445 0.0
C505 C 0.7117 0.5594 0.44513 0.0
C506 C 0.68587 0.5694 0.44145 0.0
C507 C 0.68532 0.58963 0.42121 0.0
C508 C 0.65972 0.55997 0.45909 0.0
C509 C 0.7143 0.53851 0.46727 0.0
C510 C 0.64063 0.53154 0.45742 0.0
C511 C 0.61552 0.52309 0.4734 0.0
C512 C 0.60882 0.54291 0.49138 0.0
C513 C 0.62818 0.57135 0.49314 0.0
C514 C 0.65321 0.57976 0.47713 0.0
H515 H 0.73859 0.53809 0.47232 0.0
H516 H 0.70658 0.54358 0.48791 0.0
H517 H 0.699 0.51703 0.4584 0.0
H518 H 0.64476 0.51591 0.4433 0.0
H519 H 0.60109 0.50105 0.47126 0.0
H520 H 0.35907 0.41307 0.26518 0.0
H521 H 0.32752 0.43475 0.23319 0.0
H522 H 0.31957 0.37362 0.16261 0.0
H523 H 0.35055 0.35156 0.19438 0.0
H524 H 0.32297 0.43468 0.14784 0.0
H525 H 0.23313 0.37739 0.21505 0.0
H526 H 0.26969 0.4005 0.23441 0.0
H527 H 0.26866 0.36924 0.2138 0.0
C528 C 0.35141 0.4048 0.24258 0.0
C529 C 0.3569 0.38036 0.23244 0.0
C530 C 0.33353 0.41727 0.22434 0.0
C531 C 0.32104 0.40552 0.19574 0.0
C532 C 0.32917 0.383 0.18462 0.0
H533 H 0.14401 0.39352 0.09749 0.0
H534 H 0.19248 0.38588 0.11804 0.0
C535 C 0.34699 0.37048 0.20284 0.0
C536 C 0.29517 0.41302 0.17947 0.0
H537 H 0.21751 0.40285 0.17788 0.0
C538 C 0.29992 0.42795 0.1544 0.0
C539 C 0.2651 0.40366 0.18793 0.0
C540 C 0.25856 0.38663 0.21413 0.0
C541 C 0.27517 0.43399 0.13763 0.0
C542 C 0.2452 0.42481 0.14633 0.0
C543 C 0.24056 0.40984 0.17134 0.0
C544 C 0.21792 0.43016 0.12992 0.0
C545 C 0.28096 0.44956 0.11048 0.0
C546 C 0.21642 0.45764 0.12941 0.0
C547 C 0.18865 0.46206 0.1179 0.0
C548 C 0.16192 0.43901 0.10688 0.0
C549 C 0.16403 0.41164 0.10624 0.0
C550 C 0.19174 0.40726 0.11776 0.0
H551 H 0.30364 0.45033 0.10369 0.0
H552 H 0.2619 0.4394 0.09216 0.0
H553 H 0.28132 0.47156 0.11478 0.0
H554 H 0.23621 0.47552 0.13918 0.0
H555 H 0.18769 0.48337 0.119 0.0
H556 H 0.59321 0.24955 0.81297 0.0
H557 H 0.57091 0.20568 0.83655 0.0
H558 H 0.58527 0.25412 0.9188 0.0
H559 H 0.60691 0.2977 0.89538 0.0
H560 H 0.60166 0.18525 0.88217 0.0
H561 H 0.49613 0.20116 0.91551 0.0
H562 H 0.51713 0.22165 0.88878 0.0
H563 H 0.53088 0.23067 0.92718 0.0
C564 C 0.59083 0.25082 0.8359 0.0
C565 C 0.6018 0.2771 0.85229 0.0
C566 C 0.57834 0.22575 0.84942 0.0
C567 C 0.57615 0.22653 0.87947 0.0
C568 C 0.58616 0.25287 0.89556 0.0
H569 H 0.57301 0.0991 1.00365 0.0
H570 H 0.58744 0.13852 0.97237 0.0
C571 C 0.59872 0.27781 0.88215 0.0
C572 C 0.56539 0.19998 0.89461 0.0
H573 H 0.51357 0.16613 0.93939 0.0
C574 C 0.58219 0.18092 0.89443 0.0
C575 C 0.53981 0.19409 0.91045 0.0
C576 C 0.51974 0.21282 0.9103 0.0
C577 C 0.57476 0.15671 0.91035 0.0
C578 C 0.55013 0.15157 0.92734 0.0
C579 C 0.5327 0.17016 0.92673 0.0
C580 C 0.54191 0.12705 0.94583 0.0
C581 C 0.59322 0.13675 0.9086 0.0
C582 C 0.51139 0.10765 0.9418 0.0
C583 C 0.50307 0.08528 0.95981 0.0
C584 C 0.525 0.08183 0.9824 0.0
C585 C 0.55562 0.1011 0.98635 0.0
C586 C 0.56394 0.12356 0.96833 0.0
H587 H 0.60464 0.13905 0.88863 0.0
H588 H 0.61184 0.14159 0.92782 0.0
H589 H 0.57808 0.11444 0.90869 0.0
H590 H 0.49392 0.10987 0.92471 0.0
H591 H 0.47929 0.0708 0.95617 0.0
H592 H 0.90694 0.74208 0.32396 0.0
H593 H 0.93062 0.79027 0.34748 0.0
H594 H 0.91944 0.75757 0.43187 0.0
H595 H 0.89744 0.7097 0.40889 0.0
H596 H 0.90656 0.82138 0.3804 0.0
H597 H 1.00894 0.80687 0.44729 0.0
H598 H 0.98486 0.78118 0.41846 0.0
H599 H 0.97305 0.78164 0.45407 0.0
C600 C 0.91013 0.74512 0.34756 0.0
C601 C 0.90011 0.72186 0.36442 0.0
C602 C 0.92341 0.77274 0.36099 0.0
C603 C 0.92721 0.77769 0.39157 0.0
C604 C 0.91744 0.75446 0.40836 0.0
H605 H 0.95577 0.94083 0.48835 0.0
H606 H 0.93266 0.8931 0.46345 0.0
C607 C 0.90442 0.72699 0.39505 0.0
C608 C 0.94056 0.80703 0.40607 0.0
H609 H 0.99652 0.84796 0.46033 0.0
C610 C 0.92639 0.82726 0.39773 0.0
C611 C 0.96664 0.81495 0.42856 0.0
C612 C 0.98445 0.7951 0.43742 0.0
C613 C 0.93722 0.85489 0.41147 0.0
C614 C 0.96253 0.86243 0.43476 0.0
C615 C 0.97688 0.84226 0.4428 0.0
C616 C 0.97582 0.89148 0.45004 0.0
C617 C 0.92189 0.87587 0.40035 0.0
C618 C 1.0079 0.90629 0.45177 0.0
C619 C 0.02113 0.93318 0.4664 0.0
C620 C 1.00266 0.94623 0.47959 0.0
C621 C 0.97054 0.93147 0.47812 0.0
C622 C 0.95729 0.90426 0.46367 0.0
H623 H 0.90925 0.8694 0.37776 0.0
H624 H 0.90463 0.87717 0.41464 0.0
H625 H 0.93937 0.89725 0.40057 0.0
H626 H 0.02284 0.89706 0.44163 0.0
H627 H 0.04596 0.94385 0.46715 0.0
H628 H 0.38036 0.84323 0.66358 0.0
H629 H 0.40831 0.81625 0.64048 0.0
H630 H 0.32072 0.7509 0.60903 0.0
H631 H 0.29263 0.7784 0.63152 0.0
H632 H 0.4082 0.76544 0.65699 0.0
H633 H 0.36514 0.75649 0.53816 0.0
H634 H 0.35927 0.78179 0.56344 0.0
H635 H 0.33462 0.74543 0.56039 0.0
C636 C 0.36709 0.82342 0.6511 0.0
C637 C 0.33444 0.81277 0.64927 0.0
C638 C 0.38302 0.80802 0.63797 0.0
C639 C 0.36663 0.78162 0.62291 0.0
C640 C 0.33382 0.77148 0.62 0.0
H641 H 0.43093 0.64329 0.57597 0.0
H642 H 0.39934 0.67285 0.58564 0.0
C643 C 0.3178 0.7871 0.6329 0.0
C644 C 0.38423 0.76359 0.6133 0.0
H645 H 0.3952 0.72719 0.5543 0.0
C646 C 0.40548 0.75728 0.63448 0.0
C647 C 0.38048 0.75275 0.58397 0.0
C648 C 0.35886 0.75964 0.5601 0.0
C649 C 0.42303 0.74041 0.62719 0.0
C650 C 0.41931 0.72963 0.59794 0.0
C651 C 0.39791 0.73561 0.57671 0.0
C652 C 0.43774 0.71216 0.5893 0.0
C653 C 0.44528 0.73396 0.65081 0.0
C654 C 0.46963 0.72466 0.58774 0.0
C655 C 0.48772 0.70791 0.58197 0.0
C656 C 0.47424 0.67833 0.5778 0.0
C657 C 0.44202 0.666 0.5787 0.0
C658 C 0.42392 0.68281 0.58431 0.0
H659 H 0.4422 0.74058 0.67302 0.0
H660 H 0.44191 0.71098 0.6496 0.0
H661 H 0.46969 0.74527 0.64748 0.0
H662 H 0.48059 0.74736 0.59145 0.0
H663 H 0.51231 0.71814 0.58092 0.0
H664 H 0.75585 0.7288 0.76254 0.0
H665 H 0.78747 0.75111 0.72586 0.0
H666 H 0.70417 0.74909 0.66874 0.0
H667 H 0.67217 0.72685 0.70571 0.0
H668 H 0.78926 0.73663 0.66794 0.0
H669 H 0.75487 0.83293 0.67947 0.0
H670 H 0.7461 0.80544 0.70437 0.0
H671 H 0.72326 0.80054 0.66877 0.0
C672 C 0.74414 0.73252 0.74194 0.0
C673 C 0.7115 0.72609 0.73698 0.0
C674 C 0.76228 0.74537 0.72102 0.0
C675 C 0.74821 0.7521 0.69477 0.0
C676 C 0.71551 0.74454 0.68911 0.0
H677 H 0.84778 0.86794 0.57566 0.0
H678 H 0.80718 0.82919 0.5926 0.0
C679 C 0.69729 0.73181 0.71017 0.0
C680 C 0.76824 0.76871 0.67451 0.0
H681 H 0.79153 0.83392 0.64823 0.0
C682 C 0.78953 0.75778 0.66331 0.0
C683 C 0.76858 0.79633 0.6686 0.0
C684 C 0.7472 0.80969 0.68107 0.0
C685 C 0.8117 0.77403 0.64693 0.0
C686 C 0.81268 0.80194 0.64191 0.0
C687 C 0.79058 0.81243 0.65205 0.0
C688 C 0.83805 0.82168 0.62861 0.0
C689 C 0.83416 0.76138 0.63553 0.0
C690 C 0.86895 0.82989 0.64295 0.0
C691 C 0.8922 0.85198 0.63331 0.0
C692 C 0.88489 0.8663 0.60922 0.0
C693 C 0.85422 0.85709 0.59405 0.0
C694 C 0.83097 0.83506 0.60377 0.0
H695 H 0.82466 0.73792 0.63345 0.0
H696 H 0.83958 0.76896 0.61393 0.0
H697 H 0.85631 0.76779 0.65106 0.0
H698 H 0.8748 0.8202 0.66249 0.0
H699 H 0.91565 0.85851 0.64532 0.0
H700 H 0.75878 0.19148 0.31082 0.0
H701 H 0.73436 0.17574 0.26017 0.0
H702 H 0.64329 0.16011 0.28587 0.0
H703 H 0.66739 0.17557 0.3364 0.0
H704 H 0.69274 0.12255 0.24115 0.0
H705 H 0.63835 0.20444 0.21393 0.0
H706 H 0.6685 0.20908 0.24487 0.0
H707 H 0.62859 0.18881 0.24725 0.0
C708 C 0.73356 0.18482 0.30561 0.0
C709 C 0.71501 0.18486 0.32758 0.0
C710 C 0.71969 0.176 0.27669 0.0
C711 C 0.68708 0.16726 0.26922 0.0
C712 C 0.66854 0.16752 0.29103 0.0
H713 H 0.54453 0.07635 0.1313 0.0
H714 H 0.5768 0.10472 0.17478 0.0
C715 C 0.68236 0.17633 0.31991 0.0
C716 C 0.67215 0.15563 0.23918 0.0
H717 H 0.61923 0.16154 0.18262 0.0
C718 C 0.67707 0.13131 0.2281 0.0
C719 C 0.65168 0.16713 0.22233 0.0
C720 C 0.64667 0.19397 0.23256 0.0
C721 C 0.66092 0.11738 0.20114 0.0
C722 C 0.63973 0.1284 0.18469 0.0
C723 C 0.63549 0.15319 0.19536 0.0
C724 C 0.62029 0.11339 0.15729 0.0
C725 C 0.66557 0.09029 0.19112 0.0
C726 C 0.63402 0.10952 0.13281 0.0
C727 C 0.61564 0.09321 0.1079 0.0
C728 C 0.58321 0.08059 0.1071 0.0
C729 C 0.56943 0.08553 0.13127 0.0
C730 C 0.58782 0.10183 0.15612 0.0
H731 H 0.67794 0.0818 0.20892 0.0
H732 H 0.64277 0.07392 0.1828 0.0
H733 H 0.67976 0.09432 0.17302 0.0
H734 H 0.65902 0.11869 0.13318 0.0
H735 H 0.62696 0.08999 0.08957 0.0
H736 H 0.47837 0.69548 0.27925 0.0
H737 H 0.49393 0.6719 0.32139 0.0
H738 H 0.39959 0.6462 0.34102 0.0
H739 H 0.38434 0.6707 0.30004 0.0
H740 H 0.44039 0.66041 0.39036 0.0
H741 H 0.47324 0.58737 0.31852 0.0
H742 H 0.49495 0.62401 0.31687 0.0
H743 H 0.45359 0.61114 0.30418 0.0
C744 C 0.46112 0.68531 0.29291 0.0
C745 C 0.42996 0.6846 0.28587 0.0
C746 C 0.46994 0.67147 0.31679 0.0
C747 C 0.44774 0.65649 0.33399 0.0
C748 C 0.41713 0.65726 0.328 0.0
H749 H 0.44872 0.51234 0.43129 0.0
H750 H 0.43963 0.54596 0.39691 0.0
C751 C 0.40838 0.67116 0.30435 0.0
C752 C 0.4556 0.63892 0.35738 0.0
H753 H 0.48026 0.58203 0.36903 0.0
C754 C 0.44926 0.64335 0.38573 0.0
C755 C 0.46669 0.6163 0.35132 0.0
C756 C 0.47226 0.60916 0.32104 0.0
C757 C 0.45339 0.62575 0.40798 0.0
C758 C 0.46487 0.60337 0.402 0.0
C759 C 0.47157 0.59918 0.37375 0.0
C760 C 0.46897 0.58325 0.42416 0.0
C761 C 0.44424 0.63069 0.43734 0.0
C762 C 0.48825 0.59283 0.45122 0.0
C763 C 0.49309 0.57354 0.47111 0.0
C764 C 0.4792 0.54429 0.46421 0.0
C765 C 0.45968 0.53475 0.43732 0.0
C766 C 0.45459 0.55399 0.41757 0.0
H767 H 0.42791 0.64308 0.43587 0.0
H768 H 0.43301 0.6104 0.44666 0.0
H769 H 0.46548 0.64285 0.45267 0.0
H770 H 0.50026 0.61518 0.45668 0.0
H771 H 0.50853 0.58151 0.49145 0.0
H772 H 0.15857 0.43741 0.75508 0.0
H773 H 0.13947 0.45591 0.79576 0.0
H774 H 0.13031 0.37896 0.8382 0.0
H775 H 0.14948 0.36029 0.7976 0.0
H776 H 0.07911 0.42874 0.81783 0.0
H777 H 0.18336 0.44502 0.90169 0.0
H778 H 0.18513 0.44253 0.86297 0.0
H779 H 0.16782 0.4113 0.88088 0.0
C780 C 0.15278 0.42447 0.77317 0.0
C781 C 0.15576 0.39733 0.77298 0.0
C782 C 0.14168 0.43505 0.79639 0.0
C783 C 0.1337 0.41901 0.82028 0.0
C784 C 0.1366 0.39192 0.82022 0.0
H785 H 0.07294 0.45526 0.98529 0.0
H786 H 0.09241 0.43538 0.94579 0.0
C787 C 0.14737 0.38117 0.79684 0.0
C788 C 0.12171 0.4304 0.84487 0.0
H789 H 0.14017 0.45418 0.91723 0.0
C790 C 0.09248 0.43435 0.83956 0.0
C791 C 0.13894 0.43749 0.87334 0.0
C792 C 0.17067 0.4341 0.88024 0.0
C793 C 0.07986 0.44482 0.86188 0.0
C794 C 0.0974 0.45261 0.89031 0.0
C795 C 0.12661 0.44843 0.8956 0.0
C796 C 0.08595 0.46515 0.91471 0.0
C797 C 0.04735 0.44653 0.85482 0.0
C798 C 0.07635 0.489 0.911 0.0
C799 C 0.0648 0.50018 0.93347 0.0
C800 C 0.06313 0.48826 0.96062 0.0
C801 C 0.07378 0.46501 0.96472 0.0
C802 C 0.08496 0.45359 0.94206 0.0
H803 H 0.03354 0.43146 0.83605 0.0
H804 H 0.03451 0.44198 0.87383 0.0
H805 H 0.04897 0.46812 0.84864 0.0
H806 H 0.07781 0.4991 0.89066 0.0
H807 H 0.05725 0.5183 0.92953 0.0
H808 H 0.61629 0.74358 0.76302 0.0
H809 H 0.59499 0.7791 0.78074 0.0
H810 H 0.64129 0.77819 0.86781 0.0
H811 H 0.6632 0.74351 0.85043 0.0
H812 H 0.57643 0.77911 0.86282 0.0
H813 H 0.65583 0.86198 0.80491 0.0
H814 H 0.63117 0.8299 0.78412 0.0
H815 H 0.6623 0.82887 0.81152 0.0
C816 C 0.6217 0.75079 0.78599 0.0
C817 C 0.64151 0.7407 0.80527 0.0
C818 C 0.60947 0.771 0.79604 0.0
C819 C 0.61685 0.78134 0.82549 0.0
C820 C 0.63526 0.77033 0.84501 0.0
H821 H 0.6181 0.90482 0.95258 0.0
H822 H 0.61689 0.86338 0.92285 0.0
C823 C 0.64759 0.75031 0.83502 0.0
C824 C 0.6076 0.80513 0.83602 0.0
H825 H 0.62821 0.87695 0.83759 0.0
C826 C 0.58728 0.80047 0.85696 0.0
C827 C 0.62175 0.83289 0.82818 0.0
C828 C 0.64412 0.83897 0.80606 0.0
C829 C 0.58169 0.82306 0.87118 0.0
C830 C 0.59742 0.85099 0.86471 0.0
C831 C 0.61632 0.85551 0.84257 0.0
C832 C 0.59705 0.87584 0.88256 0.0
C833 C 0.55949 0.81685 0.89343 0.0
C834 C 0.5872 0.89703 0.86957 0.0
C835 C 0.58832 0.92104 0.88648 0.0
C836 C 0.59962 0.92434 0.91659 0.0
C837 C 0.60963 0.9031 0.9294 0.0
C838 C 0.60848 0.87917 0.91253 0.0
H839 H 0.54199 0.79534 0.88886 0.0
H840 H 0.57291 0.8178 0.91544 0.0
H841 H 0.54699 0.83251 0.89386 0.0
H842 H 0.57869 0.895 0.84638 0.0
H843 H 0.58073 0.93717 0.87593 0.0
H844 H 0.81629 0.18504 0.37632 0.0
H845 H 0.85251 0.16028 0.39404 0.0
H846 H 0.80658 0.13966 0.46998 0.0
H847 H 0.76978 0.16392 0.45217 0.0
H848 H 0.87534 0.1603 0.48033 0.0
H849 H 0.82396 0.07184 0.39406 0.0
H850 H 0.83428 0.10672 0.38129 0.0
H851 H 0.80366 0.09567 0.40342 0.0
C852 C 0.81386 0.17522 0.39679 0.0
C853 C 0.78997 0.17622 0.41271 0.0
C854 C 0.83457 0.16113 0.40687 0.0
C855 C 0.83183 0.14782 0.43304 0.0
C856 C 0.80892 0.14974 0.44965 0.0
H857 H 0.91545 0.0231 0.49495 0.0
H858 H 0.87935 0.04849 0.47866 0.0
C859 C 0.78807 0.16376 0.43953 0.0
C860 C 0.85248 0.13137 0.44268 0.0
H861 H 0.87051 0.07273 0.42404 0.0
C862 C 0.87429 0.14112 0.46812 0.0
C863 C 0.85067 0.10619 0.42683 0.0
C864 C 0.82673 0.09425 0.4 0.0
C865 C 0.89493 0.12662 0.4778 0.0
C866 C 0.89378 0.10192 0.46141 0.0
C867 C 0.87148 0.09183 0.43635 0.0
C868 C 0.91554 0.08623 0.47005 0.0
C869 C 0.91761 0.13764 0.5056 0.0
C870 C 0.9477 0.09884 0.46984 0.0
C871 C 0.96836 0.08439 0.479 0.0
C872 C 0.95718 0.05705 0.48851 0.0
C873 C 0.92481 0.04415 0.48783 0.0
C874 C 0.90416 0.05861 0.47857 0.0
H875 H 0.91073 0.15277 0.519 0.0
H876 H 0.91928 0.12002 0.51896 0.0
H877 H 0.94115 0.14879 0.50002 0.0
H878 H 0.95683 0.11997 0.46282 0.0
H879 H 0.99313 0.0949 0.47915 0.0
H880 H 0.36371 0.67674 0.15558 0.0
H881 H 0.31265 0.65026 0.12772 0.0
H882 H 0.27429 0.6322 0.208 0.0
H883 H 0.32488 0.65954 0.236 0.0
H884 H 0.27474 0.59392 0.12831 0.0
H885 H 0.21562 0.66801 0.16284 0.0
H886 H 0.25757 0.67681 0.16858 0.0
H887 H 0.23441 0.65428 0.19248 0.0
C888 C 0.34435 0.66737 0.16732 0.0
C889 C 0.34837 0.67052 0.19805 0.0
C890 C 0.31525 0.65203 0.15137 0.0
C891 C 0.28957 0.63961 0.16577 0.0
C892 C 0.29366 0.64203 0.19642 0.0
H893 H 0.09325 0.54848 0.10124 0.0
H894 H 0.14472 0.56654 0.13155 0.0
C895 C 0.32271 0.65742 0.2124 0.0
C896 C 0.2584 0.62457 0.14866 0.0
H897 H 0.18374 0.62618 0.13473 0.0
C898 C 0.25484 0.60096 0.12969 0.0
C899 C 0.23245 0.6338 0.15051 0.0
C900 C 0.23514 0.65975 0.16948 0.0
C901 C 0.22595 0.58627 0.11263 0.0
C902 C 0.20016 0.59565 0.11439 0.0
C903 C 0.20359 0.61901 0.13357 0.0
C904 C 0.16964 0.58233 0.09567 0.0
C905 C 0.22304 0.56067 0.09304 0.0
C906 C 0.16672 0.58511 0.06545 0.0
C907 C 0.13736 0.57506 0.04815 0.0
C908 C 0.11047 0.56208 0.0608 0.0
C909 C 0.11358 0.55853 0.09093 0.0
C910 C 0.14291 0.56877 0.10825 0.0
H911 H 0.24292 0.55266 0.09872 0.0
H912 H 0.20088 0.54342 0.09444 0.0
H913 H 0.22263 0.56638 0.07006 0.0
H914 H 0.18703 0.59584 0.05541 0.0
H915 H 0.13564 0.57799 1.02498 0.0
H916 H 0.2604 0.42985 0.7384 0.0
H917 H 0.30546 0.4556 0.71494 0.0
H918 H 0.25186 0.42272 0.63028 0.0
H919 H 0.20681 0.39778 0.65339 0.0
H920 H 0.33736 0.43303 0.68125 0.0
H921 H 0.29047 0.50484 0.61637 0.0
H922 H 0.27159 0.4864 0.64533 0.0
H923 H 0.26534 0.46883 0.60944 0.0
C924 C 0.25803 0.42866 0.71477 0.0
C925 C 0.22998 0.41164 0.69782 0.0
C926 C 0.28388 0.44325 0.70137 0.0
C927 C 0.28208 0.44143 0.67074 0.0
C928 C 0.25381 0.42503 0.65385 0.0
H929 H 0.42704 0.45303 0.5655 0.0
H930 H 0.38374 0.43969 0.59371 0.0
C931 C 0.2281 0.41047 0.66717 0.0
C932 C 0.31017 0.45477 0.65635 0.0
H933 H 0.33539 0.49635 0.60126 0.0
C934 C 0.33703 0.44716 0.66402 0.0
C935 C 0.3101 0.47356 0.63408 0.0
C936 C 0.28294 0.48413 0.62603 0.0
C937 C 0.36311 0.45675 0.64927 0.0
C938 C 0.36223 0.47404 0.62572 0.0
C939 C 0.33597 0.48274 0.61894 0.0
C940 C 0.38791 0.48256 0.60744 0.0
C941 C 0.39141 0.44822 0.6591 0.0
C942 C 0.40401 0.5112 0.60457 0.0
C943 C 0.42879 0.51899 0.58808 0.0
C944 C 0.43789 0.49827 0.57398 0.0
C945 C 0.42099 0.46963 0.57618 0.0
C946 C 0.39628 0.46191 0.59256 0.0
H947 H 0.39235 0.44277 0.68222 0.0
H948 H 0.39021 0.42924 0.64541 0.0
H949 H 0.41336 0.46535 0.65685 0.0
H950 H 0.39785 0.52755 0.6156 0.0
H951 H 0.44118 0.54123 0.5869 0.0
H952 H 0.70287 0.70049 0.86292 0.0
H953 H 0.73447 0.67974 0.89567 0.0
H954 H 0.73105 0.61954 0.82579 0.0
H955 H 0.69882 0.63983 0.79283 0.0
H956 H 0.73053 0.61906 0.91072 0.0
H957 H 0.82488 0.6766 0.84822 0.0
H958 H 0.78908 0.68473 0.84747 0.0
H959 H 0.78919 0.65368 0.82723 0.0
C960 C 0.70772 0.68211 0.85475 0.0
C961 C 0.6986 0.67196 0.82516 0.0
C962 C 0.72589 0.67036 0.87352 0.0
C963 C 0.73525 0.64838 0.86298 0.0
C964 C 0.72409 0.63663 0.83419 0.0
H965 H 0.86032 0.56512 0.94359 0.0
H966 H 0.81369 0.57571 0.92271 0.0
C967 C 0.70584 0.64832 0.8154 0.0
C968 C 0.76036 0.64084 0.88056 0.0
H969 H 0.83807 0.64983 0.88541 0.0
C970 C 0.75405 0.62564 0.90525 0.0
C971 C 0.79104 0.65001 0.87352 0.0
C972 C 0.79921 0.66734 0.84781 0.0
C973 C 0.77779 0.61897 0.92293 0.0
C974 C 0.80834 0.62772 0.91551 0.0
C975 C 0.81459 0.64317 0.891 0.0
C976 C 0.83442 0.62091 0.93241 0.0
C977 C 0.77022 0.60304 0.94958 0.0
C978 C 0.86139 0.64281 0.94502 0.0
C979 C 0.88806 0.63686 0.95692 0.0
C980 C 0.88829 0.60888 0.95623 0.0
C981 C 0.86076 0.58686 0.94478 0.0
C982 C 0.83406 0.59285 0.93287 0.0
H983 H 0.74783 0.60362 0.956 0.0
H984 H 0.7681 0.58062 0.94478 0.0
H985 H 0.78917 0.61188 0.96833 0.0
H986 H 0.8621 0.66462 0.94477 0.0
H987 H 0.90878 0.65422 0.96595 0.0
H988 H 0.43785 0.73828 0.16548 0.0
H989 H 0.46001 0.78295 0.14408 0.0
H990 H 0.47489 0.82797 0.22842 0.0
H991 H 0.45206 0.78302 0.24999 0.0
H992 H 0.44497 0.85086 0.18423 0.0
H993 H 0.54988 0.83504 0.14929 0.0
H994 H 0.51479 0.80621 0.13655 0.0
H995 H 0.52839 0.81358 0.17515 0.0
C996 C 0.44617 0.75765 0.17959 0.0
C997 C 0.44314 0.75707 0.20947 0.0
C998 C 0.45905 0.7832 0.16734 0.0
C999 C 0.46945 0.8089 0.18462 0.0
C1000 C 0.46718 0.80841 0.21464 0.0
H1001 H 0.56886 0.96749 0.11364 0.0
H1002 H 0.55376 0.92747 0.1439 0.0
C1003 C 0.45437 0.78272 0.22701 0.0
C1004 C 0.48084 0.83614 0.17078 0.0
H1005 H 0.53337 0.87143 0.12727 0.0
C1006 C 0.46452 0.8555 0.17204 0.0
C1007 C 0.50653 0.84243 0.15506 0.0
C1008 C 0.52612 0.82336 0.15413 0.0
C1009 C 0.4725 0.88041 0.15724 0.0
C1010 C 0.49719 0.88598 0.1403 0.0
C1011 C 0.51419 0.86709 0.1399 0.0
C1012 C 0.50575 0.91112 0.12271 0.0
C1013 C 0.45448 0.9006 0.16007 0.0
C1014 C 0.48386 0.9154 0.10059 0.0
C1015 C 0.49243 0.93837 0.08328 0.0
C1016 C 0.52318 0.95742 0.08755 0.0
C1017 C 0.54499 0.95322 0.10979 0.0
C1018 C 0.53639 0.9303 0.1271 0.0
H1019 H 0.44308 0.89772 0.18006 0.0
H1020 H 0.46994 0.92289 0.16072 0.0
H1021 H 0.43588 0.89656 0.14093 0.0
H1022 H 0.46026 0.90063 0.09627 0.0
H1023 H 0.47513 0.94094 0.06623 0.0
H1024 H 0.15011 0.33017 0.65346 0.0
H1025 H 0.12876 0.28234 0.63032 0.0
H1026 H 0.11686 0.2493 0.71447 0.0
H1027 H 0.13986 0.29745 0.73816 0.0
H1028 H 0.14159 0.21851 0.68168 0.0
H1029 H 0.0393 0.23269 0.61427 0.0
H1030 H 0.07523 0.25811 0.60785 0.0
H1031 H 0.06304 0.2583 0.64331 0.0
C1032 C 0.14314 0.31282 0.66722 0.0
C1033 C 0.14701 0.31786 0.69784 0.0
C1034 C 0.13049 0.28536 0.65381 0.0
C1035 C 0.12067 0.26204 0.67048 0.0
C1036 C 0.12411 0.2669 0.70104 0.0
H1037 H 1.00278 0.09572 0.59482 0.0
H1038 H 0.02574 0.1425 0.62035 0.0
C1039 C 0.137 0.2945 0.71457 0.0
C1040 C 0.10757 0.23273 0.65588 0.0
H1041 H 0.05191 0.19168 0.60147 0.0
C1042 C 0.12184 0.21258 0.66427 0.0
C1043 C 0.08158 0.22474 0.63329 0.0
C1044 C 0.0637 0.24451 0.62435 0.0
C1045 C 0.11118 0.18496 0.65051 0.0
C1046 C 0.08594 0.17734 0.62716 0.0
C1047 C 0.0715 0.19744 0.61904 0.0
C1048 C 0.07277 0.14827 0.61189 0.0
C1049 C 0.12661 0.16406 0.66167 0.0
C1050 C 0.09137 0.13559 0.59825 0.0
C1051 C 0.07821 0.10837 0.58376 0.0
C1052 C 0.04612 0.09351 0.5823 0.0
C1053 C 0.0276 0.10646 0.59556 0.0
C1054 C 0.04073 0.13335 0.61019 0.0
H1055 H 0.13926 0.17058 0.68426 0.0
H1056 H 0.10918 0.14266 0.66149 0.0
H1057 H 0.14387 0.16278 0.64737 0.0
H1058 H 0.11598 0.14683 0.59847 0.0
H1059 H 0.09303 0.09911 0.57349 0.0
H1060 H 0.66879 0.20736 0.40741 0.0
H1061 H 0.64623 0.23636 0.43461 0.0
H1062 H 0.73843 0.28727 0.47588 0.0
H1063 H 0.76137 0.25863 0.44798 0.0
H1064 H 0.65054 0.24923 0.49527 0.0
H1065 H 0.70192 0.3447 0.43642 0.0
H1066 H 0.70097 0.30998 0.4238 0.0
H1067 H 0.72863 0.32887 0.45473 0.0
C1068 C 0.6843 0.22477 0.42223 0.0
C1069 C 0.71687 0.23103 0.42523 0.0
C1070 C 0.67137 0.24116 0.43793 0.0
C1071 C 0.69069 0.26417 0.45692 0.0
C1072 C 0.72317 0.26983 0.46097 0.0
H1073 H 0.62048 0.39233 0.52849 0.0
H1074 H 0.65542 0.36485 0.52275 0.0
C1075 C 0.7362 0.25336 0.44523 0.0
C1076 C 0.67642 0.28271 0.47118 0.0
H1077 H 0.66705 0.34748 0.46835 0.0
C1078 C 0.65447 0.27086 0.48975 0.0
C1079 C 0.68167 0.31093 0.46397 0.0
C1080 C 0.7044 0.32446 0.4435 0.0
C1081 C 0.63678 0.28616 0.50046 0.0
C1082 C 0.64088 0.31384 0.49201 0.0
C1083 C 0.66399 0.32622 0.47473 0.0
C1084 C 0.61942 0.32923 0.49829 0.0
C1085 C 0.61338 0.27238 0.5202 0.0
C1086 C 0.58767 0.31823 0.48648 0.0
C1087 C 0.56775 0.33383 0.48966 0.0
C1088 C 0.57924 0.36078 0.50466 0.0
C1089 C 0.61091 0.37148 0.51711 0.0
C1090 C 0.6309 0.3559 0.51376 0.0
H1091 H 0.61974 0.25547 0.53176 0.0
H1092 H 0.6115 0.2881 0.53666 0.0
H1093 H 0.59007 0.26256 0.50685 0.0
H1094 H 0.57847 0.29793 0.47398 0.0
H1095 H 0.54343 0.32498 0.48001 0.0
loop_
_geom_bond_atom_site_label_1
_geom_bond_atom_site_label_2
_geom_bond_distance
_geom_bond_site_symmetry_2
_ccdc_geom_bond_type
H0 C3 0.931 . S
H1 C6 0.928 . S
H2 C8 0.930 . S
C3 H0 0.931 . S
C3 C4 1.413 . S
C3 C5 1.360 . S
C4 C3 1.413 . S
C4 C8 1.429 . S
C5 C3 1.360 . S
C5 C6 1.372 . S
C6 H1 0.928 . S
C6 C5 1.372 . S
C6 C7 1.404 . S
C7 C6 1.404 . S
C7 C8 1.391 . S
C8 H2 0.930 . S
C8 C4 1.429 . S
C8 C7 1.391 . S
H9 C12 0.931 . S
H10 C15 0.928 . S
H11 C17 0.930 . S
C12 H9 0.931 . S
C12 C13 1.413 . S
C12 C14 1.360 . S
C13 C12 1.413 . S
C13 C17 1.429 . S
C14 C12 1.360 . S
C14 C15 1.372 . S
C15 H10 0.928 . S
C15 C14 1.372 . S
C15 C16 1.404 . S
C16 C15 1.404 . S
C16 C17 1.391 . S
C17 H11 0.930 . S
C17 C13 1.429 . S
C17 C16 1.391 . S
H18 C21 0.931 . S
H19 C24 0.928 . S
H20 C26 0.930 . S
C21 H18 0.931 . S
C21 C22 1.413 . S
C21 C23 1.360 . S
C22 C21 1.413 . S
C22 C26 1.429 . S
C23 C21 1.360 . S
C23 C24 1.372 . S
C24 H19 0.928 . S
C24 C23 1.372 . S
C24 C25 1.404 . S
C25 C24 1.404 . S
C25 C26 1.391 . S
C26 H20 0.930 . S
C26 C22 1.429 . S
C26 C25 1.391 . S
H27 C30 0.931 . S
H28 C33 0.928 . S
H29 C35 0.930 . S
C30 H27 0.931 . S
C30 C31 1.413 . S
C30 C32 1.360 . S
C31 C30 1.413 . S
C31 C35 1.429 . S
C32 C30 1.360 . S
C32 C33 1.372 . S
C33 H28 0.928 . S
C33 C32 1.372 . S
C33 C34 1.404 . S
C34 C33 1.404 . S
C34 C35 1.391 . S
C35 H29 0.930 . S
C35 C31 1.429 . S
C35 C34 1.391 . S
H36 C39 0.931 . S
H37 C42 0.928 . S
H38 C44 0.930 . S
C39 H36 0.931 . S
C39 C40 1.413 . S
C39 C41 1.360 . S
C40 C39 1.413 . S
C40 C44 1.429 . S
C41 C39 1.360 . S
C41 C42 1.372 . S
C42 H37 0.928 . S
C42 C41 1.372 . S
C42 C43 1.404 . S
C43 C42 1.404 . S
C43 C44 1.391 . S
C44 H38 0.930 . S
C44 C40 1.429 . S
C44 C43 1.391 . S
H45 C48 0.931 . S
H46 C51 0.928 . S
H47 C53 0.930 . S
C48 H45 0.931 . S
C48 C49 1.413 . S
C48 C50 1.360 . S
C49 C48 1.413 . S
C49 C53 1.429 . S
C50 C48 1.360 . S
C50 C51 1.372 . S
C51 H46 0.928 . S
C51 C50 1.372 . S
C51 C52 1.404 . S
C52 C51 1.404 . S
C52 C53 1.391 . S
C53 H47 0.930 . S
C53 C49 1.429 . S
C53 C52 1.391 . S
H54 C57 0.931 . S
H55 C60 0.928 . S
H56 C62 0.930 . S
C57 H54 0.931 . S
C57 C58 1.413 . S
C57 C59 1.360 . S
C58 C57 1.413 . S
C58 C62 1.429 . S
C59 C57 1.360 . S
C59 C60 1.372 . S
C60 H55 0.928 . S
C60 C59 1.372 . S
C60 C61 1.404 . S
C61 C60 1.404 . S
C61 C62 1.391 . S
C62 H56 0.930 . S
C62 C58 1.429 . S
C62 C61 1.391 . S
H63 C66 0.931 . S
H64 C69 0.928 . S
H65 C71 0.930 . S
C66 H63 0.931 . S
C66 C67 1.413 . S
C66 C68 1.360 . S
C67 C66 1.413 . S
C67 C71 1.429 . S
C68 C66 1.360 . S
C68 C69 1.372 . S
C69 H64 0.928 . S
C69 C68 1.372 . S
C69 C70 1.404 . S
C70 C69 1.404 . S
C70 C71 1.391 . S
C71 H65 0.930 . S
C71 C67 1.429 . S
C71 C70 1.391 . S
Pr72 C74 2.880 . S
Pr72 O92 2.562 . S
Pr72 O93 2.490 . S
Pr72 O94 2.695 1_665 S
Pr72 O95 2.512 1_665 S
Pr72 O97 2.437 1_655 S
Pr72 O100 2.436 . S
Pr72 O102 2.438 1_565 S
Pr73 C83 2.880 . S
Pr73 O94 2.436 . S
Pr73 O96 2.438 1_545 S
Pr73 O98 2.562 . S
Pr73 O99 2.490 . S
Pr73 O100 2.695 1_445 S
Pr73 O101 2.519 1_545 S
Pr73 O103 2.437 1_455 S
C74 Pr72 2.880 . S
C74 C75 1.491 . S
C74 O92 1.254 . S
C74 O93 1.225 . S
C75 C74 1.491 . S
C75 C76 1.392 . S
C75 C80 1.356 . S
C76 C75 1.392 . S
C76 C77 1.368 . S
C76 H104 0.929 . S
C77 C76 1.368 . S
C77 C78 1.386 . S
C77 H105 0.929 . S
C78 C77 1.386 . S
C78 C79 1.373 . S
C79 C78 1.373 . S
C79 C80 1.409 . S
C79 H106 0.931 . S
C80 C75 1.356 . S
C80 C79 1.409 . S
C80 H107 0.930 . S
C81 O94 1.270 . S
C81 O95 1.248 . S
C82 O96 1.267 . S
C82 O97 1.278 . S
C83 Pr73 2.880 . S
C83 C84 1.491 . S
C83 O98 1.254 . S
C83 O99 1.225 . S
C84 C83 1.491 . S
C84 C85 1.392 . S
C84 C89 1.356 . S
C85 C84 1.392 . S
C85 C86 1.368 . S
C85 H108 0.929 . S
C86 C85 1.368 . S
C86 C87 1.386 . S
C86 H109 0.929 . S
C87 C86 1.386 . S
C87 C88 1.373 . S
C88 C87 1.373 . S
C88 C89 1.409 . S
C88 H110 0.931 . S
C89 C84 1.356 . S
C89 C88 1.409 . S
C89 H111 0.930 . S
C90 O100 1.270 . S
C90 O101 1.232 1_655 S
C91 O102 1.267 . S
C91 O103 1.278 . S
O92 Pr72 2.562 . S
O92 C74 1.254 . S
O93 Pr72 2.490 . S
O93 C74 1.225 . S
O94 Pr72 2.695 1_445 S
O94 Pr73 2.436 . S
O94 C81 1.270 . S
O95 Pr72 2.512 1_445 S
O95 C81 1.248 . S
O96 Pr73 2.438 1_565 S
O96 C82 1.267 . S
O97 Pr72 2.437 1_455 S
O97 C82 1.278 . S
O98 Pr73 2.562 . S
O98 C83 1.254 . S
O99 Pr73 2.490 . S
O99 C83 1.225 . S
O100 Pr72 2.436 . S
O100 Pr73 2.695 1_665 S
O100 C90 1.270 . S
O101 Pr73 2.519 1_565 S
O101 C90 1.232 1_455 S
O102 Pr72 2.438 1_545 S
O102 C91 1.267 . S
O103 Pr73 2.437 1_655 S
O103 C91 1.278 . S
H104 C76 0.929 . S
H105 C77 0.929 . S
H106 C79 0.931 . S
H107 C80 0.930 . S
H108 C85 0.929 . S
H109 C86 0.929 . S
H110 C88 0.931 . S
H111 C89 0.930 . S
Pr112 C114 2.894 . S
Pr112 O132 2.580 . S
Pr112 O133 2.497 . S
Pr112 O134 2.684 1_554 S
Pr112 O135 2.500 1_554 S
Pr112 O137 2.445 . S
Pr112 O140 2.443 1_545 S
Pr112 O142 2.425 1_544 S
Pr113 C123 2.880 1_554 S
Pr113 O134 2.436 1_564 S
Pr113 O136 2.438 1_565 S
Pr113 O138 2.562 1_554 S
Pr113 O139 2.490 1_554 S
Pr113 O140 2.695 . S
Pr113 O141 2.512 . S
Pr113 O143 2.437 1_554 S
C114 Pr112 2.894 . S
C114 C115 1.491 . S
C114 O132 1.254 . S
C114 O133 1.225 . S
C115 C114 1.491 . S
C115 C116 1.392 . S
C115 C120 1.356 . S
C116 C115 1.392 . S
C116 C117 1.368 . S
C116 H144 0.929 . S
C117 C116 1.368 . S
C117 C118 1.386 . S
C117 H145 0.929 . S
C118 C117 1.386 . S
C118 C119 1.373 . S
C119 C118 1.373 . S
C119 C120 1.409 . S
C119 H146 0.931 . S
C120 C115 1.356 . S
C120 C119 1.409 . S
C120 H147 0.930 . S
C121 O134 1.270 . S
C121 O135 1.248 . S
C122 O136 1.267 . S
C122 O137 1.278 . S
C123 Pr113 2.880 1_556 S
C123 C124 1.491 . S
C123 O138 1.254 . S
C123 O139 1.225 . S
C124 C123 1.491 . S
C124 C125 1.392 . S
C124 C129 1.356 . S
C125 C124 1.392 . S
C125 C126 1.368 . S
C125 H148 0.929 . S
C126 C125 1.368 . S
C126 C127 1.386 . S
C126 H149 0.929 . S
C127 C126 1.386 . S
C127 C128 1.373 . S
C128 C127 1.373 . S
C128 C129 1.409 . S
C128 H150 0.931 . S
C129 C124 1.356 . S
C129 C128 1.409 . S
C129 H151 0.930 . S
C130 O140 1.270 . S
C130 O141 1.248 . S
C131 O142 1.267 . S
C131 O143 1.278 . S
O132 Pr112 2.580 . S
O132 C114 1.254 . S
O133 Pr112 2.497 . S
O133 C114 1.225 . S
O134 Pr112 2.684 1_556 S
O134 Pr113 2.436 1_546 S
O134 C121 1.270 . S
O135 Pr112 2.500 1_556 S
O135 C121 1.248 . S
O136 Pr113 2.438 1_545 S
O136 C122 1.267 . S
O137 Pr112 2.445 . S
O137 C122 1.278 . S
O138 Pr113 2.562 1_556 S
O138 C123 1.254 . S
O139 Pr113 2.490 1_556 S
O139 C123 1.225 . S
O140 Pr112 2.443 1_565 S
O140 Pr113 2.695 . S
O140 C130 1.270 . S
O141 Pr113 2.512 . S
O141 C130 1.248 . S
O142 Pr112 2.425 1_566 S
O142 C131 1.267 . S
O143 Pr113 2.437 1_556 S
O143 C131 1.278 . S
H144 C116 0.929 . S
H145 C117 0.929 . S
H146 C119 0.931 . S
H147 C120 0.930 . S
H148 C125 0.929 . S
H149 C126 0.929 . S
H150 C128 0.931 . S
H151 C129 0.930 . S
Pr152 C154 2.880 . S
Pr152 O172 2.562 . S
Pr152 O173 2.490 . S
Pr152 O174 2.695 . S
Pr152 O175 2.512 . S
Pr152 O177 2.437 . S
Pr152 O180 2.436 . S
Pr152 O182 2.438 . S
Pr153 C163 2.880 . S
Pr153 O174 2.436 . S
Pr153 O176 2.438 . S
Pr153 O178 2.562 . S
Pr153 O179 2.490 . S
Pr153 O180 2.695 . S
Pr153 O181 2.512 . S
Pr153 O183 2.437 . S
C154 Pr152 2.880 . S
C154 C155 1.491 . S
C154 O172 1.254 . S
C154 O173 1.225 . S
C155 C154 1.491 . S
C155 C156 1.392 . S
C155 C160 1.356 . S
C156 C155 1.392 . S
C156 C157 1.368 . S
C156 H184 0.929 . S
C157 C156 1.368 . S
C157 C158 1.386 . S
C157 H185 0.929 . S
C158 C157 1.386 . S
C158 C159 1.373 . S
C159 C158 1.373 . S
C159 C160 1.409 . S
C159 H186 0.931 . S
C160 C155 1.356 . S
C160 C159 1.409 . S
C160 H187 0.930 . S
C161 O174 1.270 . S
C161 O175 1.248 . S
C162 O176 1.267 . S
C162 O177 1.278 . S
C163 Pr153 2.880 . S
C163 C164 1.491 . S
C163 O178 1.254 . S
C163 O179 1.225 . S
C164 C163 1.491 . S
C164 C165 1.392 . S
C164 C169 1.356 . S
C165 C164 1.392 . S
C165 C166 1.368 . S
C165 H188 0.929 . S
C166 C165 1.368 . S
C166 C167 1.386 . S
C166 H189 0.929 . S
C167 C166 1.386 . S
C167 C168 1.373 . S
C168 C167 1.373 . S
C168 C169 1.409 . S
C168 H190 0.931 . S
C169 C164 1.356 . S
C169 C168 1.409 . S
C169 H191 0.930 . S
C170 O180 1.270 . S
C170 O181 1.248 . S
C171 O182 1.267 . S
C171 O183 1.278 . S
O172 Pr152 2.562 . S
O172 C154 1.254 . S
O173 Pr152 2.490 . S
O173 C154 1.225 . S
O174 Pr152 2.695 . S
O174 Pr153 2.436 . S
O174 C161 1.270 . S
O175 Pr152 2.512 . S
O175 C161 1.248 . S
O176 Pr153 2.438 . S
O176 C162 1.267 . S
O177 Pr152 2.437 . S
O177 C162 1.278 . S
O178 Pr153 2.562 . S
O178 C163 1.254 . S
O179 Pr153 2.490 . S
O179 C163 1.225 . S
O180 Pr152 2.436 . S
O180 Pr153 2.695 . S
O180 C170 1.270 . S
O181 Pr153 2.512 . S
O181 C170 1.248 . S
O182 Pr152 2.438 . S
O182 C171 1.267 . S
O183 Pr153 2.437 . S
O183 C171 1.278 . S
H184 C156 0.929 . S
H185 C157 0.929 . S
H186 C159 0.931 . S
H187 C160 0.930 . S
H188 C165 0.929 . S
H189 C166 0.929 . S
H190 C168 0.931 . S
H191 C169 0.930 . S
Pr192 C194 2.894 . S
Pr192 O212 2.581 . S
Pr192 O213 2.498 . S
Pr192 O214 2.685 1_656 S
Pr192 O215 2.501 1_656 S
Pr192 O217 2.447 1_556 S
Pr192 O220 2.443 . S
Pr192 O222 2.423 1_655 S
Pr193 C203 2.880 . S
Pr193 O214 2.436 . S
Pr193 O216 2.438 1_455 S
Pr193 O218 2.562 . S
Pr193 O219 2.490 . S
Pr193 O220 2.695 1_454 S
Pr193 O221 2.512 1_454 S
Pr193 O223 2.437 1_554 S
C194 Pr192 2.894 . S
C194 C195 1.491 . S
C194 O212 1.254 . S
C194 O213 1.225 . S
C195 C194 1.491 . S
C195 C196 1.392 . S
C195 C200 1.356 . S
C196 C195 1.392 . S
C196 C197 1.368 . S
C196 H224 0.929 . S
C197 C196 1.368 . S
C197 C198 1.386 . S
C197 H225 0.929 . S
C198 C197 1.386 . S
C198 C199 1.373 . S
C199 C198 1.373 . S
C199 C200 1.409 . S
C199 H226 0.931 . S
C200 C195 1.356 . S
C200 C199 1.409 . S
C200 H227 0.930 . S
C201 O214 1.270 . S
C201 O215 1.248 . S
C202 O216 1.267 . S
C202 O217 1.278 . S
C203 Pr193 2.880 . S
C203 C204 1.491 . S
C203 O218 1.254 . S
C203 O219 1.225 . S
C204 C203 1.491 . S
C204 C205 1.392 . S
C204 C209 1.356 . S
C205 C204 1.392 . S
C205 C206 1.368 . S
C205 H228 0.929 . S
C206 C205 1.368 . S
C206 C207 1.386 . S
C206 H229 0.929 . S
C207 C206 1.386 . S
C207 C208 1.373 . S
C208 C207 1.373 . S
C208 C209 1.409 . S
C208 H230 0.931 . S
C209 C204 1.356 . S
C209 C208 1.409 . S
C209 H231 0.930 . S
C210 O220 1.270 . S
C210 O221 1.248 . S
C211 O222 1.267 . S
C211 O223 1.278 . S
O212 Pr192 2.581 . S
O212 C194 1.254 . S
O213 Pr192 2.498 . S
O213 C194 1.225 . S
O214 Pr192 2.685 1_454 S
O214 Pr193 2.436 . S
O214 C201 1.270 . S
O215 Pr192 2.501 1_454 S
O215 C201 1.248 . S
O216 Pr193 2.438 1_655 S
O216 C202 1.267 . S
O217 Pr192 2.447 1_554 S
O217 C202 1.278 . S
O218 Pr193 2.562 . S
O218 C203 1.254 . S
O219 Pr193 2.490 . S
O219 C203 1.225 . S
O220 Pr192 2.443 . S
O220 Pr193 2.695 1_656 S
O220 C210 1.270 . S
O221 Pr193 2.512 1_656 S
O221 C210 1.248 . S
O222 Pr192 2.423 1_455 S
O222 C211 1.267 . S
O223 Pr193 2.437 1_556 S
O223 C211 1.278 . S
H224 C196 0.929 . S
H225 C197 0.929 . S
H226 C199 0.931 . S
H227 C200 0.930 . S
H228 C205 0.929 . S
H229 C206 0.929 . S
H230 C208 0.931 . S
H231 C209 0.930 . S
H232 C240 0.929 . S
H233 C242 0.930 . S
H234 C244 0.930 . S
H235 C247 0.929 . S
H236 C250 0.930 . S
H237 C252 0.960 . S
H238 C252 0.960 . S
H239 C252 0.960 . S
C240 H232 0.929 . S
C240 C241 1.377 . S
C240 C242 1.384 . S
C241 C240 1.377 . S
C241 C247 1.390 . S
C242 H233 0.930 . S
C242 C240 1.384 . S
C242 C243 1.372 . S
C243 C242 1.372 . S
C243 C244 1.400 . S
C243 C248 1.490 . S
C244 H234 0.930 . S
C244 C243 1.400 . S
C244 C247 1.386 . S
H245 C261 0.930 . S
H246 C262 0.931 . S
C247 H235 0.929 . S
C247 C241 1.390 . S
C247 C244 1.386 . S
C248 C243 1.490 . S
C248 C250 1.395 . S
C248 C251 1.403 . S
H249 C255 0.930 . S
C250 H236 0.930 . S
C250 C248 1.395 . S
C250 C253 1.403 . S
C251 C248 1.403 . S
C251 C252 1.524 . S
C251 C255 1.400 . S
C252 H237 0.960 . S
C252 H238 0.960 . S
C252 H239 0.960 . S
C252 C251 1.524 . S
C253 C250 1.403 . S
C253 C254 1.392 . S
C253 C257 1.495 . S
C254 C253 1.392 . S
C254 C255 1.385 . S
C254 C256 1.478 . S
C255 H249 0.930 . S
C255 C251 1.400 . S
C255 C254 1.385 . S
C256 C254 1.478 . S
C256 C258 1.381 . S
C256 C262 1.383 . S
C257 C253 1.495 . S
C257 H263 0.959 . S
C257 H264 0.961 . S
C257 H265 0.960 . S
C258 C256 1.381 . S
C258 C259 1.394 . S
C258 H266 0.930 . S
C259 C258 1.394 . S
C259 C260 1.383 . S
C259 H267 0.929 . S
C260 C259 1.383 . S
C260 C261 1.377 . S
C261 H245 0.930 . S
C261 C260 1.377 . S
C261 C262 1.379 . S
C262 H246 0.931 . S
C262 C256 1.383 . S
C262 C261 1.379 . S
H263 C257 0.959 . S
H264 C257 0.961 . S
H265 C257 0.960 . S
H266 C258 0.930 . S
H267 C259 0.929 . S
H268 C276 0.929 . S
H269 C278 0.930 . S
H270 C280 0.930 . S
H271 C283 0.929 . S
H272 C286 0.930 . S
H273 C288 0.960 . S
H274 C288 0.960 . S
H275 C288 0.960 . S
C276 H268 0.929 . S
C276 C277 1.377 . S
C276 C278 1.384 . S
C277 C276 1.377 . S
C277 C283 1.390 . S
C278 H269 0.930 . S
C278 C276 1.384 . S
C278 C279 1.372 . S
C279 C278 1.372 . S
C279 C280 1.400 . S
C279 C284 1.490 . S
C280 H270 0.930 . S
C280 C279 1.400 . S
C280 C283 1.386 . S
H281 C297 0.930 . S
H282 C298 0.931 . S
C283 H271 0.929 . S
C283 C277 1.390 . S
C283 C280 1.386 . S
C284 C279 1.490 . S
C284 C286 1.395 . S
C284 C287 1.403 . S
H285 C291 0.930 . S
C286 H272 0.930 . S
C286 C284 1.395 . S
C286 C289 1.403 . S
C287 C284 1.403 . S
C287 C288 1.524 . S
C287 C291 1.400 . S
C288 H273 0.960 . S
C288 H274 0.960 . S
C288 H275 0.960 . S
C288 C287 1.524 . S
C289 C286 1.403 . S
C289 C290 1.392 . S
C289 C293 1.495 . S
C290 C289 1.392 . S
C290 C291 1.385 . S
C290 C292 1.478 . S
C291 H285 0.930 . S
C291 C287 1.400 . S
C291 C290 1.385 . S
C292 C290 1.478 . S
C292 C294 1.381 . S
C292 C298 1.383 . S
C293 C289 1.495 . S
C293 H299 0.959 . S
C293 H300 0.961 . S
C293 H301 0.960 . S
C294 C292 1.381 . S
C294 C295 1.394 . S
C294 H302 0.930 . S
C295 C294 1.394 . S
C295 C296 1.383 . S
C295 H303 0.929 . S
C296 C295 1.383 . S
C296 C297 1.377 . S
C297 H281 0.930 . S
C297 C296 1.377 . S
C297 C298 1.379 . S
C298 H282 0.931 . S
C298 C292 1.383 . S
C298 C297 1.379 . S
H299 C293 0.959 . S
H300 C293 0.961 . S
H301 C293 0.960 . S
H302 C294 0.930 . S
H303 C295 0.929 . S
H304 C312 0.929 . S
H305 C314 0.930 . S
H306 C316 0.930 . S
H307 C319 0.929 . S
H308 C322 0.930 . S
H309 C324 0.960 . S
H310 C324 0.960 . S
H311 C324 0.960 . S
C312 H304 0.929 . S
C312 C313 1.377 . S
C312 C314 1.384 . S
C313 C312 1.377 . S
C313 C319 1.390 . S
C314 H305 0.930 . S
C314 C312 1.384 . S
C314 C315 1.372 . S
C315 C314 1.372 . S
C315 C316 1.400 . S
C315 C320 1.490 . S
C316 H306 0.930 . S
C316 C315 1.400 . S
C316 C319 1.386 . S
H317 C333 0.930 . S
H318 C334 0.931 . S
C319 H307 0.929 . S
C319 C313 1.390 . S
C319 C316 1.386 . S
C320 C315 1.490 . S
C320 C322 1.395 . S
C320 C323 1.403 . S
H321 C327 0.930 . S
C322 H308 0.930 . S
C322 C320 1.395 . S
C322 C325 1.403 . S
C323 C320 1.403 . S
C323 C324 1.524 . S
C323 C327 1.400 . S
C324 H309 0.960 . S
C324 H310 0.960 . S
C324 H311 0.960 . S
C324 C323 1.524 . S
C325 C322 1.403 . S
C325 C326 1.392 . S
C325 C329 1.495 . S
C326 C325 1.392 . S
C326 C327 1.385 . S
C326 C328 1.478 . S
C327 H321 0.930 . S
C327 C323 1.400 . S
C327 C326 1.385 . S
C328 C326 1.478 . S
C328 C330 1.381 . S
C328 C334 1.383 . S
C329 C325 1.495 . S
C329 H335 0.959 . S
C329 H336 0.961 . S
C329 H337 0.960 . S
C330 C328 1.381 . S
C330 C331 1.394 . S
C330 H338 0.930 . S
C331 C330 1.394 . S
C331 C332 1.383 . S
C331 H339 0.929 . S
C332 C331 1.383 . S
C332 C333 1.377 . S
C333 H317 0.930 . S
C333 C332 1.377 . S
C333 C334 1.379 . S
C334 H318 0.931 . S
C334 C328 1.383 . S
C334 C333 1.379 . S
H335 C329 0.959 . S
H336 C329 0.961 . S
H337 C329 0.960 . S
H338 C330 0.930 . S
H339 C331 0.929 . S
H340 C348 0.929 . S
H341 C350 0.930 . S
H342 C352 0.930 . S
H343 C355 0.929 . S
H344 C358 0.930 . S
H345 C360 0.960 . S
H346 C360 0.960 . S
H347 C360 0.960 . S
C348 H340 0.929 . S
C348 C349 1.377 . S
C348 C350 1.384 . S
C349 C348 1.377 . S
C349 C355 1.390 . S
C350 H341 0.930 . S
C350 C348 1.384 . S
C350 C351 1.372 . S
C351 C350 1.372 . S
C351 C352 1.400 . S
C351 C356 1.490 . S
C352 H342 0.930 . S
C352 C351 1.400 . S
C352 C355 1.386 . S
H353 C369 0.930 . S
H354 C370 0.931 . S
C355 H343 0.929 . S
C355 C349 1.390 . S
C355 C352 1.386 . S
C356 C351 1.490 . S
C356 C358 1.395 . S
C356 C359 1.403 . S
H357 C363 0.930 . S
C358 H344 0.930 . S
C358 C356 1.395 . S
C358 C361 1.403 . S
C359 C356 1.403 . S
C359 C360 1.524 . S
C359 C363 1.400 . S
C360 H345 0.960 . S
C360 H346 0.960 . S
C360 H347 0.960 . S
C360 C359 1.524 . S
C361 C358 1.403 . S
C361 C362 1.392 . S
C361 C365 1.495 . S
C362 C361 1.392 . S
C362 C363 1.385 . S
C362 C364 1.478 . S
C363 H357 0.930 . S
C363 C359 1.400 . S
C363 C362 1.385 . S
C364 C362 1.478 . S
C364 C366 1.381 . S
C364 C370 1.383 . S
C365 C361 1.495 . S
C365 H371 0.959 . S
C365 H372 0.961 . S
C365 H373 0.960 . S
C366 C364 1.381 . S
C366 C367 1.394 . S
C366 H374 0.930 . S
C367 C366 1.394 . S
C367 C368 1.383 . S
C367 H375 0.929 . S
C368 C367 1.383 . S
C368 C369 1.377 . S
C369 H353 0.930 . S
C369 C368 1.377 . S
C369 C370 1.379 . S
C370 H354 0.931 . S
C370 C364 1.383 . S
C370 C369 1.379 . S
H371 C365 0.959 . S
H372 C365 0.961 . S
H373 C365 0.960 . S
H374 C366 0.930 . S
H375 C367 0.929 . S
H376 C384 0.929 . S
H377 C386 0.930 . S
H378 C388 0.930 . S
H379 C391 0.929 . S
H380 C394 0.930 . S
H381 C396 0.960 . S
H382 C396 0.960 . S
H383 C396 0.960 . S
C384 H376 0.929 . S
C384 C385 1.377 . S
C384 C386 1.384 . S
C385 C384 1.377 . S
C385 C391 1.390 . S
C386 H377 0.930 . S
C386 C384 1.384 . S
C386 C387 1.372 . S
C387 C386 1.372 . S
C387 C388 1.400 . S
C387 C392 1.490 . S
C388 H378 0.930 . S
C388 C387 1.400 . S
C388 C391 1.386 . S
H389 C405 0.930 . S
H390 C406 0.931 . S
C391 H379 0.929 . S
C391 C385 1.390 . S
C391 C388 1.386 . S
C392 C387 1.490 . S
C392 C394 1.395 . S
C392 C395 1.403 . S
H393 C399 0.930 . S
C394 H380 0.930 . S
C394 C392 1.395 . S
C394 C397 1.403 . S
C395 C392 1.403 . S
C395 C396 1.524 . S
C395 C399 1.400 . S
C396 H381 0.960 . S
C396 H382 0.960 . S
C396 H383 0.960 . S
C396 C395 1.524 . S
C397 C394 1.403 . S
C397 C398 1.392 . S
C397 C401 1.495 . S
C398 C397 1.392 . S
C398 C399 1.385 . S
C398 C400 1.478 . S
C399 H393 0.930 . S
C399 C395 1.400 . S
C399 C398 1.385 . S
C400 C398 1.478 . S
C400 C402 1.381 . S
C400 C406 1.383 . S
C401 C397 1.495 . S
C401 H407 0.959 . S
C401 H408 0.961 . S
C401 H409 0.960 . S
C402 C400 1.381 . S
C402 C403 1.394 . S
C402 H410 0.930 . S
C403 C402 1.394 . S
C403 C404 1.383 . S
C403 H411 0.929 . S
C404 C403 1.383 . S
C404 C405 1.377 . S
C405 H389 0.930 . S
C405 C404 1.377 . S
C405 C406 1.379 . S
C406 H390 0.931 . S
C406 C400 1.383 . S
C406 C405 1.379 . S
H407 C401 0.959 . S
H408 C401 0.961 . S
H409 C401 0.960 . S
H410 C402 0.930 . S
H411 C403 0.929 . S
H412 C420 0.929 . S
H413 C422 0.930 . S
H414 C424 0.930 . S
H415 C427 0.929 . S
H416 C430 0.930 . S
H417 C432 0.960 . S
H418 C432 0.960 . S
H419 C432 0.960 . S
C420 H412 0.929 . S
C420 C421 1.377 . S
C420 C422 1.384 . S
C421 C420 1.377 . S
C421 C427 1.390 . S
C422 H413 0.930 . S
C422 C420 1.384 . S
C422 C423 1.372 . S
C423 C422 1.372 . S
C423 C424 1.400 . S
C423 C428 1.490 . S
C424 H414 0.930 . S
C424 C423 1.400 . S
C424 C427 1.386 . S
H425 C441 0.930 . S
H426 C442 0.931 . S
C427 H415 0.929 . S
C427 C421 1.390 . S
C427 C424 1.386 . S
C428 C423 1.490 . S
C428 C430 1.395 . S
C428 C431 1.403 . S
H429 C435 0.930 . S
C430 H416 0.930 . S
C430 C428 1.395 . S
C430 C433 1.403 . S
C431 C428 1.403 . S
C431 C432 1.524 . S
C431 C435 1.400 . S
C432 H417 0.960 . S
C432 H418 0.960 . S
C432 H419 0.960 . S
C432 C431 1.524 . S
C433 C430 1.403 . S
C433 C434 1.392 . S
C433 C437 1.495 . S
C434 C433 1.392 . S
C434 C435 1.385 . S
C434 C436 1.478 . S
C435 H429 0.930 . S
C435 C431 1.400 . S
C435 C434 1.385 . S
C436 C434 1.478 . S
C436 C438 1.381 . S
C436 C442 1.383 . S
C437 C433 1.495 . S
C437 H443 0.959 . S
C437 H444 0.961 . S
C437 H445 0.960 . S
C438 C436 1.381 . S
C438 C439 1.394 . S
C438 H446 0.930 . S
C439 C438 1.394 . S
C439 C440 1.383 . S
C439 H447 0.929 . S
C440 C439 1.383 . S
C440 C441 1.377 . S
C441 H425 0.930 . S
C441 C440 1.377 . S
C441 C442 1.379 . S
C442 H426 0.931 . S
C442 C436 1.383 . S
C442 C441 1.379 . S
H443 C437 0.959 . S
H444 C437 0.961 . S
H445 C437 0.960 . S
H446 C438 0.930 . S
H447 C439 0.929 . S
H448 C456 0.929 . S
H449 C458 0.930 . S
H450 C460 0.930 . S
H451 C463 0.929 . S
H452 C466 0.930 . S
H453 C468 0.960 . S
H454 C468 0.960 . S
H455 C468 0.960 . S
C456 H448 0.929 . S
C456 C457 1.377 . S
C456 C458 1.384 . S
C457 C456 1.377 . S
C457 C463 1.390 . S
C458 H449 0.930 . S
C458 C456 1.384 . S
C458 C459 1.372 . S
C459 C458 1.372 . S
C459 C460 1.400 . S
C459 C464 1.490 . S
C460 H450 0.930 . S
C460 C459 1.400 . S
C460 C463 1.386 . S
H461 C477 0.930 . S
H462 C478 0.931 . S
C463 H451 0.929 . S
C463 C457 1.390 . S
C463 C460 1.386 . S
C464 C459 1.490 . S
C464 C466 1.395 . S
C464 C467 1.403 . S
H465 C471 0.930 . S
C466 H452 0.930 . S
C466 C464 1.395 . S
C466 C469 1.403 . S
C467 C464 1.403 . S
C467 C468 1.524 . S
C467 C471 1.400 . S
C468 H453 0.960 . S
C468 H454 0.960 . S
C468 H455 0.960 . S
C468 C467 1.524 . S
C469 C466 1.403 . S
C469 C470 1.392 . S
C469 C473 1.495 . S
C470 C469 1.392 . S
C470 C471 1.385 . S
C470 C472 1.478 . S
C471 H465 0.930 . S
C471 C467 1.400 . S
C471 C470 1.385 . S
C472 C470 1.478 . S
C472 C474 1.381 . S
C472 C478 1.383 . S
C473 C469 1.495 . S
C473 H479 0.959 . S
C473 H480 0.961 . S
C473 H481 0.960 . S
C474 C472 1.381 . S
C474 C475 1.394 . S
C474 H482 0.930 . S
C475 C474 1.394 . S
C475 C476 1.383 . S
C475 H483 0.929 . S
C476 C475 1.383 . S
C476 C477 1.377 . S
C477 H461 0.930 . S
C477 C476 1.377 . S
C477 C478 1.379 . S
C478 H462 0.931 . S
C478 C472 1.383 . S
C478 C477 1.379 . S
H479 C473 0.959 . S
H480 C473 0.961 . S
H481 C473 0.960 . S
H482 C474 0.930 . S
H483 C475 0.929 . S
H484 C492 0.929 . S
H485 C494 0.930 . S
H486 C496 0.930 . S
H487 C499 0.929 . S
H488 C502 0.930 . S
H489 C504 0.960 . S
H490 C504 0.960 . S
H491 C504 0.960 . S
C492 H484 0.929 . S
C492 C493 1.377 . S
C492 C494 1.384 . S
C493 C492 1.377 . S
C493 C499 1.390 . S
C494 H485 0.930 . S
C494 C492 1.384 . S
C494 C495 1.372 . S
C495 C494 1.372 . S
C495 C496 1.400 . S
C495 C500 1.490 . S
C496 H486 0.930 . S
C496 C495 1.400 . S
C496 C499 1.386 . S
H497 C513 0.930 . S
H498 C514 0.931 . S
C499 H487 0.929 . S
C499 C493 1.390 . S
C499 C496 1.386 . S
C500 C495 1.490 . S
C500 C502 1.395 . S
C500 C503 1.403 . S
H501 C507 0.930 . S
C502 H488 0.930 . S
C502 C500 1.395 . S
C502 C505 1.403 . S
C503 C500 1.403 . S
C503 C504 1.524 . S
C503 C507 1.400 . S
C504 H489 0.960 . S
C504 H490 0.960 . S
C504 H491 0.960 . S
C504 C503 1.524 . S
C505 C502 1.403 . S
C505 C506 1.392 . S
C505 C509 1.495 . S
C506 C505 1.392 . S
C506 C507 1.385 . S
C506 C508 1.478 . S
C507 H501 0.930 . S
C507 C503 1.400 . S
C507 C506 1.385 . S
C508 C506 1.478 . S
C508 C510 1.381 . S
C508 C514 1.383 . S
C509 C505 1.495 . S
C509 H515 0.959 . S
C509 H516 0.961 . S
C509 H517 0.960 . S
C510 C508 1.381 . S
C510 C511 1.394 . S
C510 H518 0.930 . S
C511 C510 1.394 . S
C511 C512 1.383 . S
C511 H519 0.929 . S
C512 C511 1.383 . S
C512 C513 1.377 . S
C513 H497 0.930 . S
C513 C512 1.377 . S
C513 C514 1.379 . S
C514 H498 0.931 . S
C514 C508 1.383 . S
C514 C513 1.379 . S
H515 C509 0.959 . S
H516 C509 0.961 . S
H517 C509 0.960 . S
H518 C510 0.930 . S
H519 C511 0.929 . S
H520 C528 0.929 . S
H521 C530 0.930 . S
H522 C532 0.930 . S
H523 C535 0.929 . S
H524 C538 0.930 . S
H525 C540 0.960 . S
H526 C540 0.960 . S
H527 C540 0.960 . S
C528 H520 0.929 . S
C528 C529 1.377 . S
C528 C530 1.384 . S
C529 C528 1.377 . S
C529 C535 1.390 . S
C530 H521 0.930 . S
C530 C528 1.384 . S
C530 C531 1.372 . S
C531 C530 1.372 . S
C531 C532 1.400 . S
C531 C536 1.490 . S
C532 H522 0.930 . S
C532 C531 1.400 . S
C532 C535 1.386 . S
H533 C549 0.930 . S
H534 C550 0.931 . S
C535 H523 0.929 . S
C535 C529 1.390 . S
C535 C532 1.386 . S
C536 C531 1.490 . S
C536 C538 1.395 . S
C536 C539 1.403 . S
H537 C543 0.930 . S
C538 H524 0.930 . S
C538 C536 1.395 . S
C538 C541 1.403 . S
C539 C536 1.403 . S
C539 C540 1.524 . S
C539 C543 1.400 . S
C540 H525 0.960 . S
C540 H526 0.960 . S
C540 H527 0.960 . S
C540 C539 1.524 . S
C541 C538 1.403 . S
C541 C542 1.392 . S
C541 C545 1.495 . S
C542 C541 1.392 . S
C542 C543 1.385 . S
C542 C544 1.478 . S
C543 H537 0.930 . S
C543 C539 1.400 . S
C543 C542 1.385 . S
C544 C542 1.478 . S
C544 C546 1.381 . S
C544 C550 1.383 . S
C545 C541 1.495 . S
C545 H551 0.959 . S
C545 H552 0.961 . S
C545 H553 0.960 . S
C546 C544 1.381 . S
C546 C547 1.394 . S
C546 H554 0.930 . S
C547 C546 1.394 . S
C547 C548 1.383 . S
C547 H555 0.929 . S
C548 C547 1.383 . S
C548 C549 1.377 . S
C549 H533 0.930 . S
C549 C548 1.377 . S
C549 C550 1.379 . S
C550 H534 0.931 . S
C550 C544 1.383 . S
C550 C549 1.379 . S
H551 C545 0.959 . S
H552 C545 0.961 . S
H553 C545 0.960 . S
H554 C546 0.930 . S
H555 C547 0.929 . S
H556 C564 0.929 . S
H557 C566 0.930 . S
H558 C568 0.930 . S
H559 C571 0.929 . S
H560 C574 0.930 . S
H561 C576 0.960 . S
H562 C576 0.960 . S
H563 C576 0.960 . S
C564 H556 0.929 . S
C564 C565 1.377 . S
C564 C566 1.384 . S
C565 C564 1.377 . S
C565 C571 1.390 . S
C566 H557 0.930 . S
C566 C564 1.384 . S
C566 C567 1.372 . S
C567 C566 1.372 . S
C567 C568 1.400 . S
C567 C572 1.490 . S
C568 H558 0.930 . S
C568 C567 1.400 . S
C568 C571 1.386 . S
H569 C585 0.930 . S
H570 C586 0.931 . S
C571 H559 0.929 . S
C571 C565 1.390 . S
C571 C568 1.386 . S
C572 C567 1.490 . S
C572 C574 1.395 . S
C572 C575 1.403 . S
H573 C579 0.930 . S
C574 H560 0.930 . S
C574 C572 1.395 . S
C574 C577 1.403 . S
C575 C572 1.403 . S
C575 C576 1.524 . S
C575 C579 1.400 . S
C576 H561 0.960 . S
C576 H562 0.960 . S
C576 H563 0.960 . S
C576 C575 1.524 . S
C577 C574 1.403 . S
C577 C578 1.392 . S
C577 C581 1.495 . S
C578 C577 1.392 . S
C578 C579 1.385 . S
C578 C580 1.478 . S
C579 H573 0.930 . S
C579 C575 1.400 . S
C579 C578 1.385 . S
C580 C578 1.478 . S
C580 C582 1.381 . S
C580 C586 1.383 . S
C581 C577 1.495 . S
C581 H587 0.959 . S
C581 H588 0.961 . S
C581 H589 0.960 . S
C582 C580 1.381 . S
C582 C583 1.394 . S
C582 H590 0.930 . S
C583 C582 1.394 . S
C583 C584 1.383 . S
C583 H591 0.929 . S
C584 C583 1.383 . S
C584 C585 1.377 . S
C585 H569 0.930 . S
C585 C584 1.377 . S
C585 C586 1.379 . S
C586 H570 0.931 . S
C586 C580 1.383 . S
C586 C585 1.379 . S
H587 C581 0.959 . S
H588 C581 0.961 . S
H589 C581 0.960 . S
H590 C582 0.930 . S
H591 C583 0.929 . S
H592 C600 0.929 . S
H593 C602 0.930 . S
H594 C604 0.930 . S
H595 C607 0.929 . S
H596 C610 0.930 . S
H597 C612 0.960 . S
H598 C612 0.960 . S
H599 C612 0.960 . S
C600 H592 0.929 . S
C600 C601 1.377 . S
C600 C602 1.384 . S
C601 C600 1.377 . S
C601 C607 1.390 . S
C602 H593 0.930 . S
C602 C600 1.384 . S
C602 C603 1.372 . S
C603 C602 1.372 . S
C603 C604 1.400 . S
C603 C608 1.490 . S
C604 H594 0.930 . S
C604 C603 1.400 . S
C604 C607 1.386 . S
H605 C621 0.930 . S
H606 C622 0.931 . S
C607 H595 0.929 . S
C607 C601 1.390 . S
C607 C604 1.386 . S
C608 C603 1.490 . S
C608 C610 1.395 . S
C608 C611 1.403 . S
H609 C615 0.930 . S
C610 H596 0.930 . S
C610 C608 1.395 . S
C610 C613 1.403 . S
C611 C608 1.403 . S
C611 C612 1.524 . S
C611 C615 1.400 . S
C612 H597 0.960 . S
C612 H598 0.960 . S
C612 H599 0.960 . S
C612 C611 1.524 . S
C613 C610 1.403 . S
C613 C614 1.392 . S
C613 C617 1.495 . S
C614 C613 1.392 . S
C614 C615 1.385 . S
C614 C616 1.478 . S
C615 H609 0.930 . S
C615 C611 1.400 . S
C615 C614 1.385 . S
C616 C614 1.478 . S
C616 C618 1.381 . S
C616 C622 1.383 . S
C617 C613 1.495 . S
C617 H623 0.959 . S
C617 H624 0.961 . S
C617 H625 0.960 . S
C618 C616 1.381 . S
C618 C619 1.394 . S
C618 H626 0.930 . S
C619 C618 1.394 . S
C619 C620 1.383 . S
C619 H627 0.929 . S
C620 C619 1.383 . S
C620 C621 1.377 . S
C621 H605 0.930 . S
C621 C620 1.377 . S
C621 C622 1.379 . S
C622 H606 0.931 . S
C622 C616 1.383 . S
C622 C621 1.379 . S
H623 C617 0.959 . S
H624 C617 0.961 . S
H625 C617 0.960 . S
H626 C618 0.930 . S
H627 C619 0.929 . S
H628 C636 0.929 . S
H629 C638 0.930 . S
H630 C640 0.930 . S
H631 C643 0.929 . S
H632 C646 0.930 . S
H633 C648 0.960 . S
H634 C648 0.960 . S
H635 C648 0.960 . S
C636 H628 0.929 . S
C636 C637 1.377 . S
C636 C638 1.384 . S
C637 C636 1.377 . S
C637 C643 1.390 . S
C638 H629 0.930 . S
C638 C636 1.384 . S
C638 C639 1.372 . S
C639 C638 1.372 . S
C639 C640 1.400 . S
C639 C644 1.490 . S
C640 H630 0.930 . S
C640 C639 1.400 . S
C640 C643 1.386 . S
H641 C657 0.930 . S
H642 C658 0.931 . S
C643 H631 0.929 . S
C643 C637 1.390 . S
C643 C640 1.386 . S
C644 C639 1.490 . S
C644 C646 1.395 . S
C644 C647 1.403 . S
H645 C651 0.930 . S
C646 H632 0.930 . S
C646 C644 1.395 . S
C646 C649 1.403 . S
C647 C644 1.403 . S
C647 C648 1.524 . S
C647 C651 1.400 . S
C648 H633 0.960 . S
C648 H634 0.960 . S
C648 H635 0.960 . S
C648 C647 1.524 . S
C649 C646 1.403 . S
C649 C650 1.392 . S
C649 C653 1.495 . S
C650 C649 1.392 . S
C650 C651 1.385 . S
C650 C652 1.478 . S
C651 H645 0.930 . S
C651 C647 1.400 . S
C651 C650 1.385 . S
C652 C650 1.478 . S
C652 C654 1.381 . S
C652 C658 1.383 . S
C653 C649 1.495 . S
C653 H659 0.959 . S
C653 H660 0.961 . S
C653 H661 0.960 . S
C654 C652 1.381 . S
C654 C655 1.394 . S
C654 H662 0.930 . S
C655 C654 1.394 . S
C655 C656 1.383 . S
C655 H663 0.929 . S
C656 C655 1.383 . S
C656 C657 1.377 . S
C657 H641 0.930 . S
C657 C656 1.377 . S
C657 C658 1.379 . S
C658 H642 0.931 . S
C658 C652 1.383 . S
C658 C657 1.379 . S
H659 C653 0.959 . S
H660 C653 0.961 . S
H661 C653 0.960 . S
H662 C654 0.930 . S
H663 C655 0.929 . S
H664 C672 0.929 . S
H665 C674 0.930 . S
H666 C676 0.930 . S
H667 C679 0.929 . S
H668 C682 0.930 . S
H669 C684 0.960 . S
H670 C684 0.960 . S
H671 C684 0.960 . S
C672 H664 0.929 . S
C672 C673 1.377 . S
C672 C674 1.384 . S
C673 C672 1.377 . S
C673 C679 1.390 . S
C674 H665 0.930 . S
C674 C672 1.384 . S
C674 C675 1.372 . S
C675 C674 1.372 . S
C675 C676 1.400 . S
C675 C680 1.490 . S
C676 H666 0.930 . S
C676 C675 1.400 . S
C676 C679 1.386 . S
H677 C693 0.930 . S
H678 C694 0.931 . S
C679 H667 0.929 . S
C679 C673 1.390 . S
C679 C676 1.386 . S
C680 C675 1.490 . S
C680 C682 1.395 . S
C680 C683 1.403 . S
H681 C687 0.930 . S
C682 H668 0.930 . S
C682 C680 1.395 . S
C682 C685 1.403 . S
C683 C680 1.403 . S
C683 C684 1.524 . S
C683 C687 1.400 . S
C684 H669 0.960 . S
C684 H670 0.960 . S
C684 H671 0.960 . S
C684 C683 1.524 . S
C685 C682 1.403 . S
C685 C686 1.392 . S
C685 C689 1.495 . S
C686 C685 1.392 . S
C686 C687 1.385 . S
C686 C688 1.478 . S
C687 H681 0.930 . S
C687 C683 1.400 . S
C687 C686 1.385 . S
C688 C686 1.478 . S
C688 C690 1.381 . S
C688 C694 1.383 . S
C689 C685 1.495 . S
C689 H695 0.959 . S
C689 H696 0.961 . S
C689 H697 0.960 . S
C690 C688 1.381 . S
C690 C691 1.394 . S
C690 H698 0.930 . S
C691 C690 1.394 . S
C691 C692 1.383 . S
C691 H699 0.929 . S
C692 C691 1.383 . S
C692 C693 1.377 . S
C693 H677 0.930 . S
C693 C692 1.377 . S
C693 C694 1.379 . S
C694 H678 0.931 . S
C694 C688 1.383 . S
C694 C693 1.379 . S
H695 C689 0.959 . S
H696 C689 0.961 . S
H697 C689 0.960 . S
H698 C690 0.930 . S
H699 C691 0.929 . S
H700 C708 0.929 . S
H701 C710 0.930 . S
H702 C712 0.930 . S
H703 C715 0.929 . S
H704 C718 0.930 . S
H705 C720 0.960 . S
H706 C720 0.960 . S
H707 C720 0.960 . S
C708 H700 0.929 . S
C708 C709 1.377 . S
C708 C710 1.384 . S
C709 C708 1.377 . S
C709 C715 1.390 . S
C710 H701 0.930 . S
C710 C708 1.384 . S
C710 C711 1.372 . S
C711 C710 1.372 . S
C711 C712 1.400 . S
C711 C716 1.490 . S
C712 H702 0.930 . S
C712 C711 1.400 . S
C712 C715 1.386 . S
H713 C729 0.930 . S
H714 C730 0.931 . S
C715 H703 0.929 . S
C715 C709 1.390 . S
C715 C712 1.386 . S
C716 C711 1.490 . S
C716 C718 1.395 . S
C716 C719 1.403 . S
H717 C723 0.930 . S
C718 H704 0.930 . S
C718 C716 1.395 . S
C718 C721 1.403 . S
C719 C716 1.403 . S
C719 C720 1.524 . S
C719 C723 1.400 . S
C720 H705 0.960 . S
C720 H706 0.960 . S
C720 H707 0.960 . S
C720 C719 1.524 . S
C721 C718 1.403 . S
C721 C722 1.392 . S
C721 C725 1.495 . S
C722 C721 1.392 . S
C722 C723 1.385 . S
C722 C724 1.478 . S
C723 H717 0.930 . S
C723 C719 1.400 . S
C723 C722 1.385 . S
C724 C722 1.478 . S
C724 C726 1.381 . S
C724 C730 1.383 . S
C725 C721 1.495 . S
C725 H731 0.959 . S
C725 H732 0.961 . S
C725 H733 0.960 . S
C726 C724 1.381 . S
C726 C727 1.394 . S
C726 H734 0.930 . S
C727 C726 1.394 . S
C727 C728 1.383 . S
C727 H735 0.929 . S
C728 C727 1.383 . S
C728 C729 1.377 . S
C729 H713 0.930 . S
C729 C728 1.377 . S
C729 C730 1.379 . S
C730 H714 0.931 . S
C730 C724 1.383 . S
C730 C729 1.379 . S
H731 C725 0.959 . S
H732 C725 0.961 . S
H733 C725 0.960 . S
H734 C726 0.930 . S
H735 C727 0.929 . S
H736 C744 0.929 . S
H737 C746 0.930 . S
H738 C748 0.930 . S
H739 C751 0.929 . S
H740 C754 0.930 . S
H741 C756 0.960 . S
H742 C756 0.960 . S
H743 C756 0.960 . S
C744 H736 0.929 . S
C744 C745 1.377 . S
C744 C746 1.384 . S
C745 C744 1.377 . S
C745 C751 1.390 . S
C746 H737 0.930 . S
C746 C744 1.384 . S
C746 C747 1.372 . S
C747 C746 1.372 . S
C747 C748 1.400 . S
C747 C752 1.490 . S
C748 H738 0.930 . S
C748 C747 1.400 . S
C748 C751 1.386 . S
H749 C765 0.930 . S
H750 C766 0.931 . S
C751 H739 0.929 . S
C751 C745 1.390 . S
C751 C748 1.386 . S
C752 C747 1.490 . S
C752 C754 1.395 . S
C752 C755 1.403 . S
H753 C759 0.930 . S
C754 H740 0.930 . S
C754 C752 1.395 . S
C754 C757 1.403 . S
C755 C752 1.403 . S
C755 C756 1.524 . S
C755 C759 1.400 . S
C756 H741 0.960 . S
C756 H742 0.960 . S
C756 H743 0.960 . S
C756 C755 1.524 . S
C757 C754 1.403 . S
C757 C758 1.392 . S
C757 C761 1.495 . S
C758 C757 1.392 . S
C758 C759 1.385 . S
C758 C760 1.478 . S
C759 H753 0.930 . S
C759 C755 1.400 . S
C759 C758 1.385 . S
C760 C758 1.478 . S
C760 C762 1.381 . S
C760 C766 1.383 . S
C761 C757 1.495 . S
C761 H767 0.959 . S
C761 H768 0.961 . S
C761 H769 0.960 . S
C762 C760 1.381 . S
C762 C763 1.394 . S
C762 H770 0.930 . S
C763 C762 1.394 . S
C763 C764 1.383 . S
C763 H771 0.929 . S
C764 C763 1.383 . S
C764 C765 1.377 . S
C765 H749 0.930 . S
C765 C764 1.377 . S
C765 C766 1.379 . S
C766 H750 0.931 . S
C766 C760 1.383 . S
C766 C765 1.379 . S
H767 C761 0.959 . S
H768 C761 0.961 . S
H769 C761 0.960 . S
H770 C762 0.930 . S
H771 C763 0.929 . S
H772 C780 0.929 . S
H773 C782 0.930 . S
H774 C784 0.930 . S
H775 C787 0.929 . S
H776 C790 0.930 . S
H777 C792 0.960 . S
H778 C792 0.960 . S
H779 C792 0.960 . S
C780 H772 0.929 . S
C780 C781 1.377 . S
C780 C782 1.384 . S
C781 C780 1.377 . S
C781 C787 1.390 . S
C782 H773 0.930 . S
C782 C780 1.384 . S
C782 C783 1.372 . S
C783 C782 1.372 . S
C783 C784 1.400 . S
C783 C788 1.490 . S
C784 H774 0.930 . S
C784 C783 1.400 . S
C784 C787 1.386 . S
H785 C801 0.930 . S
H786 C802 0.931 . S
C787 H775 0.929 . S
C787 C781 1.390 . S
C787 C784 1.386 . S
C788 C783 1.490 . S
C788 C790 1.395 . S
C788 C791 1.403 . S
H789 C795 0.930 . S
C790 H776 0.930 . S
C790 C788 1.395 . S
C790 C793 1.403 . S
C791 C788 1.403 . S
C791 C792 1.524 . S
C791 C795 1.400 . S
C792 H777 0.960 . S
C792 H778 0.960 . S
C792 H779 0.960 . S
C792 C791 1.524 . S
C793 C790 1.403 . S
C793 C794 1.392 . S
C793 C797 1.495 . S
C794 C793 1.392 . S
C794 C795 1.385 . S
C794 C796 1.478 . S
C795 H789 0.930 . S
C795 C791 1.400 . S
C795 C794 1.385 . S
C796 C794 1.478 . S
C796 C798 1.381 . S
C796 C802 1.383 . S
C797 C793 1.495 . S
C797 H803 0.959 . S
C797 H804 0.961 . S
C797 H805 0.960 . S
C798 C796 1.381 . S
C798 C799 1.394 . S
C798 H806 0.930 . S
C799 C798 1.394 . S
C799 C800 1.383 . S
C799 H807 0.929 . S
C800 C799 1.383 . S
C800 C801 1.377 . S
C801 H785 0.930 . S
C801 C800 1.377 . S
C801 C802 1.379 . S
C802 H786 0.931 . S
C802 C796 1.383 . S
C802 C801 1.379 . S
H803 C797 0.959 . S
H804 C797 0.961 . S
H805 C797 0.960 . S
H806 C798 0.930 . S
H807 C799 0.929 . S
H808 C816 0.929 . S
H809 C818 0.930 . S
H810 C820 0.930 . S
H811 C823 0.929 . S
H812 C826 0.930 . S
H813 C828 0.960 . S
H814 C828 0.960 . S
H815 C828 0.960 . S
C816 H808 0.929 . S
C816 C817 1.377 . S
C816 C818 1.384 . S
C817 C816 1.377 . S
C817 C823 1.390 . S
C818 H809 0.930 . S
C818 C816 1.384 . S
C818 C819 1.372 . S
C819 C818 1.372 . S
C819 C820 1.400 . S
C819 C824 1.490 . S
C820 H810 0.930 . S
C820 C819 1.400 . S
C820 C823 1.386 . S
H821 C837 0.930 . S
H822 C838 0.931 . S
C823 H811 0.929 . S
C823 C817 1.390 . S
C823 C820 1.386 . S
C824 C819 1.490 . S
C824 C826 1.395 . S
C824 C827 1.403 . S
H825 C831 0.930 . S
C826 H812 0.930 . S
C826 C824 1.395 . S
C826 C829 1.403 . S
C827 C824 1.403 . S
C827 C828 1.524 . S
C827 C831 1.400 . S
C828 H813 0.960 . S
C828 H814 0.960 . S
C828 H815 0.960 . S
C828 C827 1.524 . S
C829 C826 1.403 . S
C829 C830 1.392 . S
C829 C833 1.495 . S
C830 C829 1.392 . S
C830 C831 1.385 . S
C830 C832 1.478 . S
C831 H825 0.930 . S
C831 C827 1.400 . S
C831 C830 1.385 . S
C832 C830 1.478 . S
C832 C834 1.381 . S
C832 C838 1.383 . S
C833 C829 1.495 . S
C833 H839 0.959 . S
C833 H840 0.961 . S
C833 H841 0.960 . S
C834 C832 1.381 . S
C834 C835 1.394 . S
C834 H842 0.930 . S
C835 C834 1.394 . S
C835 C836 1.383 . S
C835 H843 0.929 . S
C836 C835 1.383 . S
C836 C837 1.377 . S
C837 H821 0.930 . S
C837 C836 1.377 . S
C837 C838 1.379 . S
C838 H822 0.931 . S
C838 C832 1.383 . S
C838 C837 1.379 . S
H839 C833 0.959 . S
H840 C833 0.961 . S
H841 C833 0.960 . S
H842 C834 0.930 . S
H843 C835 0.929 . S
H844 C852 0.929 . S
H845 C854 0.930 . S
H846 C856 0.930 . S
H847 C859 0.929 . S
H848 C862 0.930 . S
H849 C864 0.960 . S
H850 C864 0.960 . S
H851 C864 0.960 . S
C852 H844 0.929 . S
C852 C853 1.377 . S
C852 C854 1.384 . S
C853 C852 1.377 . S
C853 C859 1.390 . S
C854 H845 0.930 . S
C854 C852 1.384 . S
C854 C855 1.372 . S
C855 C854 1.372 . S
C855 C856 1.400 . S
C855 C860 1.490 . S
C856 H846 0.930 . S
C856 C855 1.400 . S
C856 C859 1.386 . S
H857 C873 0.930 . S
H858 C874 0.931 . S
C859 H847 0.929 . S
C859 C853 1.390 . S
C859 C856 1.386 . S
C860 C855 1.490 . S
C860 C862 1.395 . S
C860 C863 1.403 . S
H861 C867 0.930 . S
C862 H848 0.930 . S
C862 C860 1.395 . S
C862 C865 1.403 . S
C863 C860 1.403 . S
C863 C864 1.524 . S
C863 C867 1.400 . S
C864 H849 0.960 . S
C864 H850 0.960 . S
C864 H851 0.960 . S
C864 C863 1.524 . S
C865 C862 1.403 . S
C865 C866 1.392 . S
C865 C869 1.495 . S
C866 C865 1.392 . S
C866 C867 1.385 . S
C866 C868 1.478 . S
C867 H861 0.930 . S
C867 C863 1.400 . S
C867 C866 1.385 . S
C868 C866 1.478 . S
C868 C870 1.381 . S
C868 C874 1.383 . S
C869 C865 1.495 . S
C869 H875 0.959 . S
C869 H876 0.961 . S
C869 H877 0.960 . S
C870 C868 1.381 . S
C870 C871 1.394 . S
C870 H878 0.930 . S
C871 C870 1.394 . S
C871 C872 1.383 . S
C871 H879 0.929 . S
C872 C871 1.383 . S
C872 C873 1.377 . S
C873 H857 0.930 . S
C873 C872 1.377 . S
C873 C874 1.379 . S
C874 H858 0.931 . S
C874 C868 1.383 . S
C874 C873 1.379 . S
H875 C869 0.959 . S
H876 C869 0.961 . S
H877 C869 0.960 . S
H878 C870 0.930 . S
H879 C871 0.929 . S
H880 C888 0.929 . S
H881 C890 0.930 . S
H882 C892 0.930 . S
H883 C895 0.929 . S
H884 C898 0.930 . S
H885 C900 0.960 . S
H886 C900 0.960 . S
H887 C900 0.960 . S
C888 H880 0.929 . S
C888 C889 1.377 . S
C888 C890 1.384 . S
C889 C888 1.377 . S
C889 C895 1.390 . S
C890 H881 0.930 . S
C890 C888 1.384 . S
C890 C891 1.372 . S
C891 C890 1.372 . S
C891 C892 1.400 . S
C891 C896 1.490 . S
C892 H882 0.930 . S
C892 C891 1.400 . S
C892 C895 1.386 . S
H893 C909 0.930 . S
H894 C910 0.931 . S
C895 H883 0.929 . S
C895 C889 1.390 . S
C895 C892 1.386 . S
C896 C891 1.490 . S
C896 C898 1.395 . S
C896 C899 1.403 . S
H897 C903 0.930 . S
C898 H884 0.930 . S
C898 C896 1.395 . S
C898 C901 1.403 . S
C899 C896 1.403 . S
C899 C900 1.524 . S
C899 C903 1.400 . S
C900 H885 0.960 . S
C900 H886 0.960 . S
C900 H887 0.960 . S
C900 C899 1.524 . S
C901 C898 1.403 . S
C901 C902 1.392 . S
C901 C905 1.495 . S
C902 C901 1.392 . S
C902 C903 1.385 . S
C902 C904 1.478 . S
C903 H897 0.930 . S
C903 C899 1.400 . S
C903 C902 1.385 . S
C904 C902 1.478 . S
C904 C906 1.381 . S
C904 C910 1.383 . S
C905 C901 1.495 . S
C905 H911 0.959 . S
C905 H912 0.961 . S
C905 H913 0.960 . S
C906 C904 1.381 . S
C906 C907 1.394 . S
C906 H914 0.930 . S
C907 C906 1.394 . S
C907 C908 1.383 . S
C907 H915 0.929 . S
C908 C907 1.383 . S
C908 C909 1.377 . S
C909 H893 0.930 . S
C909 C908 1.377 . S
C909 C910 1.379 . S
C910 H894 0.931 . S
C910 C904 1.383 . S
C910 C909 1.379 . S
H911 C905 0.959 . S
H912 C905 0.961 . S
H913 C905 0.960 . S
H914 C906 0.930 . S
H915 C907 0.929 . S
H916 C924 0.929 . S
H917 C926 0.930 . S
H918 C928 0.930 . S
H919 C931 0.929 . S
H920 C934 0.930 . S
H921 C936 0.960 . S
H922 C936 0.960 . S
H923 C936 0.960 . S
C924 H916 0.929 . S
C924 C925 1.377 . S
C924 C926 1.384 . S
C925 C924 1.377 . S
C925 C931 1.390 . S
C926 H917 0.930 . S
C926 C924 1.384 . S
C926 C927 1.372 . S
C927 C926 1.372 . S
C927 C928 1.400 . S
C927 C932 1.490 . S
C928 H918 0.930 . S
C928 C927 1.400 . S
C928 C931 1.386 . S
H929 C945 0.930 . S
H930 C946 0.931 . S
C931 H919 0.929 . S
C931 C925 1.390 . S
C931 C928 1.386 . S
C932 C927 1.490 . S
C932 C934 1.395 . S
C932 C935 1.403 . S
H933 C939 0.930 . S
C934 H920 0.930 . S
C934 C932 1.395 . S
C934 C937 1.403 . S
C935 C932 1.403 . S
C935 C936 1.524 . S
C935 C939 1.400 . S
C936 H921 0.960 . S
C936 H922 0.960 . S
C936 H923 0.960 . S
C936 C935 1.524 . S
C937 C934 1.403 . S
C937 C938 1.392 . S
C937 C941 1.495 . S
C938 C937 1.392 . S
C938 C939 1.385 . S
C938 C940 1.478 . S
C939 H933 0.930 . S
C939 C935 1.400 . S
C939 C938 1.385 . S
C940 C938 1.478 . S
C940 C942 1.381 . S
C940 C946 1.383 . S
C941 C937 1.495 . S
C941 H947 0.959 . S
C941 H948 0.961 . S
C941 H949 0.960 . S
C942 C940 1.381 . S
C942 C943 1.394 . S
C942 H950 0.930 . S
C943 C942 1.394 . S
C943 C944 1.383 . S
C943 H951 0.929 . S
C944 C943 1.383 . S
C944 C945 1.377 . S
C945 H929 0.930 . S
C945 C944 1.377 . S
C945 C946 1.379 . S
C946 H930 0.931 . S
C946 C940 1.383 . S
C946 C945 1.379 . S
H947 C941 0.959 . S
H948 C941 0.961 . S
H949 C941 0.960 . S
H950 C942 0.930 . S
H951 C943 0.929 . S
H952 C960 0.929 . S
H953 C962 0.930 . S
H954 C964 0.930 . S
H955 C967 0.929 . S
H956 C970 0.930 . S
H957 C972 0.960 . S
H958 C972 0.960 . S
H959 C972 0.960 . S
C960 H952 0.929 . S
C960 C961 1.377 . S
C960 C962 1.384 . S
C961 C960 1.377 . S
C961 C967 1.390 . S
C962 H953 0.930 . S
C962 C960 1.384 . S
C962 C963 1.372 . S
C963 C962 1.372 . S
C963 C964 1.400 . S
C963 C968 1.490 . S
C964 H954 0.930 . S
C964 C963 1.400 . S
C964 C967 1.386 . S
H965 C981 0.930 . S
H966 C982 0.931 . S
C967 H955 0.929 . S
C967 C961 1.390 . S
C967 C964 1.386 . S
C968 C963 1.490 . S
C968 C970 1.395 . S
C968 C971 1.403 . S
H969 C975 0.930 . S
C970 H956 0.930 . S
C970 C968 1.395 . S
C970 C973 1.403 . S
C971 C968 1.403 . S
C971 C972 1.524 . S
C971 C975 1.400 . S
C972 H957 0.960 . S
C972 H958 0.960 . S
C972 H959 0.960 . S
C972 C971 1.524 . S
C973 C970 1.403 . S
C973 C974 1.392 . S
C973 C977 1.495 . S
C974 C973 1.392 . S
C974 C975 1.385 . S
C974 C976 1.478 . S
C975 H969 0.930 . S
C975 C971 1.400 . S
C975 C974 1.385 . S
C976 C974 1.478 . S
C976 C978 1.381 . S
C976 C982 1.383 . S
C977 C973 1.495 . S
C977 H983 0.959 . S
C977 H984 0.961 . S
C977 H985 0.960 . S
C978 C976 1.381 . S
C978 C979 1.394 . S
C978 H986 0.930 . S
C979 C978 1.394 . S
C979 C980 1.383 . S
C979 H987 0.929 . S
C980 C979 1.383 . S
C980 C981 1.377 . S
C981 H965 0.930 . S
C981 C980 1.377 . S
C981 C982 1.379 . S
C982 H966 0.931 . S
C982 C976 1.383 . S
C982 C981 1.379 . S
H983 C977 0.959 . S
H984 C977 0.961 . S
H985 C977 0.960 . S
H986 C978 0.930 . S
H987 C979 0.929 . S
H988 C996 0.929 . S
H989 C998 0.930 . S
H990 C1000 0.930 . S
H991 C1003 0.929 . S
H992 C1006 0.930 . S
H993 C1008 0.960 . S
H994 C1008 0.960 . S
H995 C1008 0.960 . S
C996 H988 0.929 . S
C996 C997 1.377 . S
C996 C998 1.384 . S
C997 C996 1.377 . S
C997 C1003 1.390 . S
C998 H989 0.930 . S
C998 C996 1.384 . S
C998 C999 1.372 . S
C999 C998 1.372 . S
C999 C1000 1.400 . S
C999 C1004 1.490 . S
C1000 H990 0.930 . S
C1000 C999 1.400 . S
C1000 C1003 1.386 . S
H1001 C1017 0.930 . S
H1002 C1018 0.931 . S
C1003 H991 0.929 . S
C1003 C997 1.390 . S
C1003 C1000 1.386 . S
C1004 C999 1.490 . S
C1004 C1006 1.395 . S
C1004 C1007 1.403 . S
H1005 C1011 0.930 . S
C1006 H992 0.930 . S
C1006 C1004 1.395 . S
C1006 C1009 1.403 . S
C1007 C1004 1.403 . S
C1007 C1008 1.524 . S
C1007 C1011 1.400 . S
C1008 H993 0.960 . S
C1008 H994 0.960 . S
C1008 H995 0.960 . S
C1008 C1007 1.524 . S
C1009 C1006 1.403 . S
C1009 C1010 1.392 . S
C1009 C1013 1.495 . S
C1010 C1009 1.392 . S
C1010 C1011 1.385 . S
C1010 C1012 1.478 . S
C1011 H1005 0.930 . S
C1011 C1007 1.400 . S
C1011 C1010 1.385 . S
C1012 C1010 1.478 . S
C1012 C1014 1.381 . S
C1012 C1018 1.383 . S
C1013 C1009 1.495 . S
C1013 H1019 0.959 . S
C1013 H1020 0.961 . S
C1013 H1021 0.960 . S
C1014 C1012 1.381 . S
C1014 C1015 1.394 . S
C1014 H1022 0.930 . S
C1015 C1014 1.394 . S
C1015 C1016 1.383 . S
C1015 H1023 0.929 . S
C1016 C1015 1.383 . S
C1016 C1017 1.377 . S
C1017 H1001 0.930 . S
C1017 C1016 1.377 . S
C1017 C1018 1.379 . S
C1018 H1002 0.931 . S
C1018 C1012 1.383 . S
C1018 C1017 1.379 . S
H1019 C1013 0.959 . S
H1020 C1013 0.961 . S
H1021 C1013 0.960 . S
H1022 C1014 0.930 . S
H1023 C1015 0.929 . S
H1024 C1032 0.929 . S
H1025 C1034 0.930 . S
H1026 C1036 0.930 . S
H1027 C1039 0.929 . S
H1028 C1042 0.930 . S
H1029 C1044 0.960 . S
H1030 C1044 0.960 . S
H1031 C1044 0.960 . S
C1032 H1024 0.929 . S
C1032 C1033 1.377 . S
C1032 C1034 1.384 . S
C1033 C1032 1.377 . S
C1033 C1039 1.390 . S
C1034 H1025 0.930 . S
C1034 C1032 1.384 . S
C1034 C1035 1.372 . S
C1035 C1034 1.372 . S
C1035 C1036 1.400 . S
C1035 C1040 1.490 . S
C1036 H1026 0.930 . S
C1036 C1035 1.400 . S
C1036 C1039 1.386 . S
H1037 C1053 0.930 . S
H1038 C1054 0.931 . S
C1039 H1027 0.929 . S
C1039 C1033 1.390 . S
C1039 C1036 1.386 . S
C1040 C1035 1.490 . S
C1040 C1042 1.395 . S
C1040 C1043 1.403 . S
H1041 C1047 0.930 . S
C1042 H1028 0.930 . S
C1042 C1040 1.395 . S
C1042 C1045 1.403 . S
C1043 C1040 1.403 . S
C1043 C1044 1.524 . S
C1043 C1047 1.400 . S
C1044 H1029 0.960 . S
C1044 H1030 0.960 . S
C1044 H1031 0.960 . S
C1044 C1043 1.524 . S
C1045 C1042 1.403 . S
C1045 C1046 1.392 . S
C1045 C1049 1.495 . S
C1046 C1045 1.392 . S
C1046 C1047 1.385 . S
C1046 C1048 1.478 . S
C1047 H1041 0.930 . S
C1047 C1043 1.400 . S
C1047 C1046 1.385 . S
C1048 C1046 1.478 . S
C1048 C1050 1.381 . S
C1048 C1054 1.383 . S
C1049 C1045 1.495 . S
C1049 H1055 0.959 . S
C1049 H1056 0.961 . S
C1049 H1057 0.960 . S
C1050 C1048 1.381 . S
C1050 C1051 1.394 . S
C1050 H1058 0.930 . S
C1051 C1050 1.394 . S
C1051 C1052 1.383 . S
C1051 H1059 0.929 . S
C1052 C1051 1.383 . S
C1052 C1053 1.377 . S
C1053 H1037 0.930 . S
C1053 C1052 1.377 . S
C1053 C1054 1.379 . S
C1054 H1038 0.931 . S
C1054 C1048 1.383 . S
C1054 C1053 1.379 . S
H1055 C1049 0.959 . S
H1056 C1049 0.961 . S
H1057 C1049 0.960 . S
H1058 C1050 0.930 . S
H1059 C1051 0.929 . S
H1060 C1068 0.929 . S
H1061 C1070 0.930 . S
H1062 C1072 0.930 . S
H1063 C1075 0.929 . S
H1064 C1078 0.930 . S
H1065 C1080 0.960 . S
H1066 C1080 0.960 . S
H1067 C1080 0.960 . S
C1068 H1060 0.929 . S
C1068 C1069 1.377 . S
C1068 C1070 1.384 . S
C1069 C1068 1.377 . S
C1069 C1075 1.390 . S
C1070 H1061 0.930 . S
C1070 C1068 1.384 . S
C1070 C1071 1.372 . S
C1071 C1070 1.372 . S
C1071 C1072 1.400 . S
C1071 C1076 1.490 . S
C1072 H1062 0.930 . S
C1072 C1071 1.400 . S
C1072 C1075 1.386 . S
H1073 C1089 0.930 . S
H1074 C1090 0.931 . S
C1075 H1063 0.929 . S
C1075 C1069 1.390 . S
C1075 C1072 1.386 . S
C1076 C1071 1.490 . S
C1076 C1078 1.395 . S
C1076 C1079 1.403 . S
H1077 C1083 0.930 . S
C1078 H1064 0.930 . S
C1078 C1076 1.395 . S
C1078 C1081 1.403 . S
C1079 C1076 1.403 . S
C1079 C1080 1.524 . S
C1079 C1083 1.400 . S
C1080 H1065 0.960 . S
C1080 H1066 0.960 . S
C1080 H1067 0.960 . S
C1080 C1079 1.524 . S
C1081 C1078 1.403 . S
C1081 C1082 1.392 . S
C1081 C1085 1.495 . S
C1082 C1081 1.392 . S
C1082 C1083 1.385 . S
C1082 C1084 1.478 . S
C1083 H1077 0.930 . S
C1083 C1079 1.400 . S
C1083 C1082 1.385 . S
C1084 C1082 1.478 . S
C1084 C1086 1.381 . S
C1084 C1090 1.383 . S
C1085 C1081 1.495 . S
C1085 H1091 0.959 . S
C1085 H1092 0.961 . S
C1085 H1093 0.960 . S
C1086 C1084 1.381 . S
C1086 C1087 1.394 . S
C1086 H1094 0.930 . S
C1087 C1086 1.394 . S
C1087 C1088 1.383 . S
C1087 H1095 0.929 . S
C1088 C1087 1.383 . S
C1088 C1089 1.377 . S
C1089 H1073 0.930 . S
C1089 C1088 1.377 . S
C1089 C1090 1.379 . S
C1090 H1074 0.931 . S
C1090 C1084 1.383 . S
C1090 C1089 1.379 . S
H1091 C1085 0.959 . S
H1092 C1085 0.961 . S
H1093 C1085 0.960 . S
H1094 C1086 0.930 . S
H1095 C1087 0.929 . S
C241 C5 0.845 . S
C260 C87 0.864 . S
C277 C14 1.412 . S
C296 C131 1.393 . S
C332 C161 2.052 . S
C313 C25 2.051 . S
C349 C34 2.778 . S
C368 C202 2.718 . S
C404 C118 0.652 . S
C385 C7 0.647 . S
C440 C82 2.394 . S
C421 C13 2.401 . S
C476 C210 1.090 . S
C457 C23 1.098 . S
C512 C171 2.101 . S
C493 C31 2.159 . S
C529 C4 0.700 . S
C548 C207 0.703 . S
C584 C121 1.960 . S
C565 C22 1.998 . S
C601 C32 2.064 . S
C620 C90 2.008 . S
C637 C16 1.790 . S
C656 C158 1.808 . S
C692 C78 0.842 . S
C673 C41 0.821 . S
C709 C50 1.433 . S
C728 C122 1.417 . S
C745 C61 2.050 . S
C764 C170 2.043 . S
C781 C67 2.791 . S
C800 C211 2.727 . S
C817 C40 0.654 . S
C836 C127 0.682 . S
C872 C91 2.386 . S
C853 C52 2.369 . S
C908 C201 1.096 . S
C889 C59 1.111 . S
C944 C162 2.089 . S
C925 C70 2.159 . S
C961 C43 0.676 . S
C980 C198 0.712 . S
C1016 C130 1.966 . S
C997 C58 2.016 . S
C1052 C81 2.006 . S
C1033 C68 2.040 . S
C1069 C49 1.803 . S
C1088 C167 1.802 . S
