# Generated by pormake.
# Topology pto, (3,4)-cn, num edge types: 1
# Building blocks:
#     Node 0, Type 0, BuildingBlock: KAKCAD_clean_linker_0, # of connection points: 3
#     Node 1, Type 0, BuildingBlock: KAKCAD_clean_linker_0, # of connection points: 3
#     Node 2, Type 0, BuildingBlock: KAKCAD_clean_linker_0, # of connection points: 3
#     Node 3, Type 0, BuildingBlock: KAKCAD_clean_linker_0, # of connection points: 3
#     Node 4, Type 0, BuildingBlock: KAKCAD_clean_linker_0, # of connection points: 3
#     Node 5, Type 0, BuildingBlock: KAKCAD_clean_linker_0, # of connection points: 3
#     Node 6, Type 0, BuildingBlock: KAKCAD_clean_linker_0, # of connection points: 3
#     Node 7, Type 0, BuildingBlock: KAKCAD_clean_linker_0, # of connection points: 3
#     Node 8, Type 1, BuildingBlock: NAWXER_clean_sbu_0, # of connection points: 4
#     Node 9, Type 1, BuildingBlock: NAWXER_clean_sbu_0, # of connection points: 4
#     Node 10, Type 1, BuildingBlock: NAWXER_clean_sbu_0, # of connection points: 4
#     Node 11, Type 1, BuildingBlock: NAWXER_clean_sbu_0, # of connection points: 4
#     Node 12, Type 1, BuildingBlock: NAWXER_clean_sbu_0, # of connection points: 4
#     Node 13, Type 1, BuildingBlock: NAWXER_clean_sbu_0, # of connection points: 4
#     Edge 14, Type (0, 1), BuildingBlock: UVAHIK_clean_linker_0, # of connection points: 2
#     Edge 15, Type (0, 1), BuildingBlock: UVAHIK_clean_linker_0, # of connection points: 2
#     Edge 16, Type (0, 1), BuildingBlock: UVAHIK_clean_linker_0, # of connection points: 2
#     Edge 17, Type (0, 1), BuildingBlock: UVAHIK_clean_linker_0, # of connection points: 2
#     Edge 18, Type (0, 1), BuildingBlock: UVAHIK_clean_linker_0, # of connection points: 2
#     Edge 19, Type (0, 1), BuildingBlock: UVAHIK_clean_linker_0, # of connection points: 2
#     Edge 20, Type (0, 1), BuildingBlock: UVAHIK_clean_linker_0, # of connection points: 2
#     Edge 21, Type (0, 1), BuildingBlock: UVAHIK_clean_linker_0, # of connection points: 2
#     Edge 22, Type (0, 1), BuildingBlock: UVAHIK_clean_linker_0, # of connection points: 2
#     Edge 23, Type (0, 1), BuildingBlock: UVAHIK_clean_linker_0, # of connection points: 2
#     Edge 24, Type (0, 1), BuildingBlock: UVAHIK_clean_linker_0, # of connection points: 2
#     Edge 25, Type (0, 1), BuildingBlock: UVAHIK_clean_linker_0, # of connection points: 2
#     Edge 26, Type (0, 1), BuildingBlock: UVAHIK_clean_linker_0, # of connection points: 2
#     Edge 27, Type (0, 1), BuildingBlock: UVAHIK_clean_linker_0, # of connection points: 2
#     Edge 28, Type (0, 1), BuildingBlock: UVAHIK_clean_linker_0, # of connection points: 2
#     Edge 29, Type (0, 1), BuildingBlock: UVAHIK_clean_linker_0, # of connection points: 2
#     Edge 30, Type (0, 1), BuildingBlock: UVAHIK_clean_linker_0, # of connection points: 2
#     Edge 31, Type (0, 1), BuildingBlock: UVAHIK_clean_linker_0, # of connection points: 2
#     Edge 32, Type (0, 1), BuildingBlock: UVAHIK_clean_linker_0, # of connection points: 2
#     Edge 33, Type (0, 1), BuildingBlock: UVAHIK_clean_linker_0, # of connection points: 2
#     Edge 34, Type (0, 1), BuildingBlock: UVAHIK_clean_linker_0, # of connection points: 2
#     Edge 35, Type (0, 1), BuildingBlock: UVAHIK_clean_linker_0, # of connection points: 2
#     Edge 36, Type (0, 1), BuildingBlock: UVAHIK_clean_linker_0, # of connection points: 2
#     Edge 37, Type (0, 1), BuildingBlock: UVAHIK_clean_linker_0, # of connection points: 2
# Relax obj value: 0.000
# Max RMSD: 0.004
# Mean RMSD: 0.002
data_MOF--net-pto--node1-NAWXER_clean_sbu_0--node2-KAKCAD_clean_linker_0--edge1-UVAHIK_clean_linker_0
_symmetry_space_group_name_H-M    P1
_symmetry_Int_Tables_number       1
_symmetry_cell_setting            triclinic
loop_
_symmetry_equiv_pos_as_xyz
'x, y, z'
_cell_length_a     67.598099
_cell_length_b     63.387737
_cell_length_c     59.107367
_cell_angle_alpha  90.400805
_cell_angle_beta   90.570743
_cell_angle_gamma 90.3163
loop_
_atom_site_label
_atom_site_type_symbol
_atom_site_fract_x
_atom_site_fract_y
_atom_site_fract_z
_atom_type_partial_charge
C0 C 0.24579 0.20216 0.30575 0.0
C1 C 0.22695 0.19273 0.30665 0.0
C2 C 0.24938 0.21887 0.29104 0.0
C3 C 0.23413 0.22661 0.27715 0.0
C4 C 0.21533 0.21709 0.27794 0.0
C5 C 0.2118 0.20023 0.29246 0.0
C6 C 0.23767 0.24489 0.26225 0.0
C7 C 0.25435 0.24562 0.24836 0.0
C8 C 0.25777 0.26296 0.23418 0.0
C9 C 0.24413 0.2797 0.23408 0.0
C10 C 0.22727 0.27911 0.24786 0.0
C11 C 0.2243 0.26167 0.26196 0.0
C12 C 0.21261 0.29652 0.24765 0.0
C13 C 0.21872 0.31775 0.24712 0.0
C14 C 0.19228 0.29192 0.2487 0.0
C15 C 0.17841 0.30809 0.24969 0.0
C16 C 0.18446 0.32934 0.24941 0.0
C17 C 0.27536 0.26324 0.21921 0.0
C18 C 0.2936 0.25523 0.22684 0.0
C19 C 0.27396 0.27096 0.19699 0.0
C20 C 0.29033 0.27049 0.18273 0.0
C21 C 0.30841 0.26212 0.19029 0.0
C22 C 0.30989 0.25456 0.21251 0.0
C23 C 0.20479 0.33399 0.24798 0.0
H24 H 0.25778 0.19654 0.31637 0.0
H25 H 0.26398 0.22601 0.29084 0.0
H26 H 0.20336 0.22267 0.26727 0.0
H27 H 0.19712 0.19332 0.29291 0.0
H28 H 0.26437 0.23233 0.24818 0.0
H29 H 0.2117 0.26131 0.27316 0.0
H30 H 0.24656 0.29314 0.22322 0.0
H31 H 0.23428 0.32184 0.2465 0.0
H32 H 0.18702 0.27575 0.24881 0.0
H33 H 0.16292 0.30388 0.25107 0.0
H34 H 0.29535 0.24953 0.24397 0.0
H35 H 0.26009 0.27693 0.1904 0.0
H36 H 0.20995 0.35017 0.24744 0.0
H37 H 0.32374 0.24834 0.2189 0.0
H38 H 0.28873 0.27625 0.1656 0.0
C39 C 0.2987 0.7613 0.80737 0.0
C40 C 0.30855 0.74255 0.81303 0.0
C41 C 0.28187 0.76083 0.7935 0.0
C42 C 0.27454 0.74164 0.78463 0.0
C43 C 0.28429 0.72286 0.79037 0.0
C44 C 0.30103 0.7233 0.80447 0.0
C45 C 0.25694 0.74138 0.76926 0.0
C46 C 0.25429 0.7576 0.7534 0.0
C47 C 0.23747 0.75811 0.73928 0.0
C48 C 0.22326 0.74202 0.741 0.0
C49 C 0.22581 0.72545 0.75632 0.0
C50 C 0.24267 0.72515 0.77039 0.0
C51 C 0.21071 0.7085 0.75729 0.0
C52 C 0.19062 0.71366 0.75917 0.0
C53 C 0.2161 0.68726 0.75477 0.0
C54 C 0.20155 0.6715 0.75333 0.0
C55 C 0.18142 0.67673 0.75476 0.0
C56 C 0.23478 0.77535 0.72267 0.0
C57 C 0.23958 0.7963 0.72853 0.0
C58 C 0.22733 0.77098 0.70084 0.0
C59 C 0.22477 0.78718 0.68521 0.0
C60 C 0.22969 0.80811 0.69101 0.0
C61 C 0.2371 0.81249 0.71286 0.0
C62 C 0.17613 0.69792 0.75805 0.0
H63 H 0.30414 0.77645 0.81338 0.0
H64 H 0.27457 0.77559 0.78978 0.0
H65 H 0.27919 0.7078 0.78372 0.0
H66 H 0.30802 0.7085 0.80873 0.0
H67 H 0.26558 0.76967 0.75167 0.0
H68 H 0.24432 0.7126 0.7826 0.0
H69 H 0.21014 0.74232 0.73031 0.0
H70 H 0.18612 0.72994 0.76119 0.0
H71 H 0.23151 0.68293 0.75315 0.0
H72 H 0.20601 0.65525 0.75095 0.0
H73 H 0.24514 0.80024 0.74529 0.0
H74 H 0.22369 0.75498 0.69569 0.0
H75 H 0.16072 0.70242 0.75904 0.0
H76 H 0.24127 0.8284 0.71779 0.0
H77 H 0.21883 0.78328 0.66861 0.0
C78 C 0.69063 0.71195 0.19876 0.0
C79 C 0.68654 0.73036 0.18636 0.0
C80 C 0.70577 0.71184 0.2151 0.0
C81 C 0.71693 0.73018 0.21949 0.0
C82 C 0.71325 0.74833 0.20668 0.0
C83 C 0.69832 0.74839 0.19024 0.0
C84 C 0.73165 0.731 0.23818 0.0
C85 C 0.7466 0.7158 0.2401 0.0
C86 C 0.76122 0.71773 0.25709 0.0
C87 C 0.76044 0.73469 0.2725 0.0
C88 C 0.74527 0.74968 0.27114 0.0
C89 C 0.73095 0.74765 0.2539 0.0
C90 C 0.74437 0.76754 0.28752 0.0
C91 C 0.74901 0.76455 0.31052 0.0
C92 C 0.7386 0.78772 0.2803 0.0
C93 C 0.73724 0.8044 0.29573 0.0
C94 C 0.74185 0.80136 0.31867 0.0
C95 C 0.7778 0.70259 0.2584 0.0
C96 C 0.77426 0.68073 0.25842 0.0
C97 C 0.79736 0.71006 0.26013 0.0
C98 C 0.81308 0.69598 0.26192 0.0
C99 C 0.80958 0.67413 0.26226 0.0
C100 C 0.79001 0.66661 0.26053 0.0
C101 C 0.74786 0.78132 0.32592 0.0
H102 H 0.68176 0.69783 0.19637 0.0
H103 H 0.70828 0.69769 0.22486 0.0
H104 H 0.72187 0.76258 0.20953 0.0
H105 H 0.69597 0.76266 0.18063 0.0
H106 H 0.74733 0.70302 0.22786 0.0
H107 H 0.71898 0.75892 0.25282 0.0
H108 H 0.77181 0.73627 0.28547 0.0
H109 H 0.75321 0.74916 0.31674 0.0
H110 H 0.73532 0.79073 0.26265 0.0
H111 H 0.73287 0.81979 0.28965 0.0
H112 H 0.75929 0.6746 0.25721 0.0
H113 H 0.80051 0.72684 0.25999 0.0
H114 H 0.75134 0.77853 0.34357 0.0
H115 H 0.78693 0.64982 0.26061 0.0
H116 H 0.828 0.70222 0.26338 0.0
C117 C 0.75172 0.21072 0.69566 0.0
C118 C 0.7328 0.20475 0.68772 0.0
C119 C 0.75404 0.22725 0.71123 0.0
C120 C 0.7375 0.23837 0.71907 0.0
C121 C 0.71865 0.23283 0.71061 0.0
C122 C 0.71631 0.21616 0.69523 0.0
C123 C 0.73982 0.2552 0.73658 0.0
C124 C 0.75611 0.26906 0.73641 0.0
C125 C 0.7585 0.28465 0.75324 0.0
C126 C 0.74439 0.28638 0.77045 0.0
C127 C 0.72802 0.27266 0.77081 0.0
C128 C 0.72588 0.25716 0.7539 0.0
C129 C 0.71314 0.27398 0.78894 0.0
C130 C 0.71888 0.27308 0.81181 0.0
C131 C 0.69293 0.2746 0.78331 0.0
C132 C 0.67867 0.27388 0.80018 0.0
C133 C 0.68433 0.27227 0.82304 0.0
C134 C 0.77577 0.29909 0.75262 0.0
C135 C 0.79491 0.29096 0.75012 0.0
C136 C 0.77318 0.32104 0.75368 0.0
C137 C 0.78944 0.33464 0.75176 0.0
C138 C 0.80858 0.32649 0.74916 0.0
C139 C 0.81119 0.30452 0.74859 0.0
C140 C 0.70457 0.27205 0.82873 0.0
H141 H 0.7648 0.20255 0.68995 0.0
H142 H 0.76876 0.23094 0.7175 0.0
H143 H 0.70561 0.24128 0.71597 0.0
H144 H 0.7015 0.21192 0.68966 0.0
H145 H 0.76679 0.26804 0.72289 0.0
H146 H 0.71356 0.24618 0.75469 0.0
H147 H 0.74615 0.29834 0.78354 0.0
H148 H 0.73439 0.27244 0.81653 0.0
H149 H 0.68817 0.27533 0.76577 0.0
H150 H 0.66318 0.27392 0.7953 0.0
H151 H 0.79728 0.27408 0.74935 0.0
H152 H 0.75854 0.32768 0.75546 0.0
H153 H 0.7093 0.27094 0.84625 0.0
H154 H 0.82578 0.29785 0.74647 0.0
H155 H 0.78708 0.35152 0.7524 0.0
C156 C 0.77814 0.78948 0.69415 0.0
C157 C 0.76837 0.80849 0.69892 0.0
C158 C 0.77674 0.77236 0.70887 0.0
C159 C 0.76559 0.77386 0.7288 0.0
C160 C 0.75593 0.79294 0.73362 0.0
C161 C 0.75727 0.81002 0.71886 0.0
C162 C 0.76403 0.75562 0.74449 0.0
C163 C 0.78059 0.74292 0.74904 0.0
C164 C 0.77926 0.72569 0.7638 0.0
C165 C 0.76112 0.72138 0.77427 0.0
C166 C 0.74433 0.73376 0.76996 0.0
C167 C 0.74594 0.7508 0.75494 0.0
C168 C 0.72522 0.7289 0.78128 0.0
C169 C 0.71946 0.70787 0.78529 0.0
C170 C 0.71282 0.74524 0.78877 0.0
C171 C 0.69533 0.74068 0.80024 0.0
C172 C 0.68994 0.7197 0.80474 0.0
C173 C 0.79657 0.71173 0.76785 0.0
C174 C 0.80867 0.70553 0.74981 0.0
C175 C 0.80056 0.70366 0.78952 0.0
C176 C 0.8158 0.68916 0.79291 0.0
C177 C 0.82749 0.68244 0.77471 0.0
C178 C 0.82396 0.69111 0.75321 0.0
C179 C 0.70212 0.70334 0.79705 0.0
H180 H 0.78658 0.78768 0.67878 0.0
H181 H 0.78413 0.75781 0.70443 0.0
H182 H 0.7475 0.7948 0.74899 0.0
H183 H 0.74981 0.82455 0.72322 0.0
H184 H 0.79467 0.7467 0.74143 0.0
H185 H 0.73297 0.76006 0.75094 0.0
H186 H 0.76007 0.7082 0.78577 0.0
H187 H 0.72833 0.69483 0.77934 0.0
H188 H 0.71687 0.76161 0.78633 0.0
H189 H 0.68631 0.75361 0.8062 0.0
H190 H 0.80596 0.71132 0.73287 0.0
H191 H 0.79173 0.70835 0.80388 0.0
H192 H 0.69817 0.68702 0.80005 0.0
H193 H 0.83288 0.68656 0.73888 0.0
H194 H 0.81801 0.68274 0.80967 0.0
C195 C 0.69219 0.27097 0.21876 0.0
C196 C 0.6932 0.27727 0.19604 0.0
C197 C 0.70948 0.26743 0.23135 0.0
C198 C 0.72818 0.26999 0.22146 0.0
C199 C 0.72913 0.27604 0.19863 0.0
C200 C 0.71186 0.27972 0.18612 0.0
C201 C 0.74667 0.26679 0.23493 0.0
C202 C 0.74815 0.25034 0.25072 0.0
C203 C 0.76562 0.24739 0.26347 0.0
C204 C 0.78171 0.26118 0.26024 0.0
C205 C 0.78052 0.27763 0.24449 0.0
C206 C 0.76297 0.28033 0.23201 0.0
C207 C 0.79748 0.29222 0.24117 0.0
C208 C 0.80753 0.30113 0.25984 0.0
C209 C 0.80344 0.29771 0.21926 0.0
C210 C 0.81906 0.3119 0.21609 0.0
C211 C 0.82901 0.32106 0.23476 0.0
C212 C 0.76712 0.22987 0.28005 0.0
C213 C 0.75126 0.22514 0.29439 0.0
C214 C 0.78446 0.21778 0.28172 0.0
C215 C 0.78588 0.20134 0.29732 0.0
C216 C 0.77002 0.19659 0.31166 0.0
C217 C 0.7527 0.20872 0.31002 0.0
C218 C 0.82305 0.31545 0.25669 0.0
H219 H 0.67802 0.26912 0.22692 0.0
H220 H 0.70819 0.26307 0.24896 0.0
H221 H 0.74324 0.27776 0.19031 0.0
H222 H 0.71312 0.28417 0.16853 0.0
H223 H 0.73588 0.23947 0.2527 0.0
H224 H 0.76184 0.29343 0.22038 0.0
H225 H 0.79521 0.25914 0.27002 0.0
H226 H 0.80309 0.29741 0.27692 0.0
H227 H 0.79611 0.29089 0.20454 0.0
H228 H 0.82344 0.31554 0.19898 0.0
H229 H 0.73781 0.23434 0.29379 0.0
H230 H 0.79684 0.2208 0.2707 0.0
H231 H 0.83009 0.32245 0.27148 0.0
H232 H 0.7403 0.20574 0.32104 0.0
H233 H 0.79931 0.19212 0.29785 0.0
C234 C 0.30511 0.28765 0.82236 0.0
C235 C 0.32464 0.28602 0.81466 0.0
C236 C 0.28915 0.2835 0.80776 0.0
C237 C 0.29232 0.2778 0.78503 0.0
C238 C 0.3119 0.27611 0.77738 0.0
C239 C 0.32786 0.28009 0.79205 0.0
C240 C 0.27529 0.27411 0.76927 0.0
C241 C 0.25841 0.28687 0.77054 0.0
C242 C 0.24235 0.28382 0.75564 0.0
C243 C 0.24338 0.268 0.73893 0.0
C244 C 0.26003 0.2548 0.73744 0.0
C245 C 0.27585 0.25797 0.75283 0.0
C246 C 0.26082 0.23752 0.72013 0.0
C247 C 0.24367 0.22611 0.71395 0.0
C248 C 0.27879 0.23207 0.70984 0.0
C249 C 0.27965 0.21549 0.69414 0.0
C250 C 0.2625 0.20404 0.688 0.0
C251 C 0.2245 0.2972 0.75778 0.0
C252 C 0.21614 0.30085 0.77911 0.0
C253 C 0.21591 0.30669 0.7387 0.0
C254 C 0.19949 0.31985 0.74097 0.0
C255 C 0.19116 0.32365 0.76236 0.0
C256 C 0.19963 0.31383 0.78137 0.0
C257 C 0.24447 0.20973 0.69801 0.0
H258 H 0.30217 0.29185 0.8398 0.0
H259 H 0.27431 0.28457 0.81438 0.0
H260 H 0.31491 0.2721 0.75991 0.0
H261 H 0.34276 0.2789 0.78558 0.0
H262 H 0.2579 0.2996 0.78285 0.0
H263 H 0.28846 0.24752 0.75241 0.0
H264 H 0.2311 0.26593 0.7272 0.0
H265 H 0.22958 0.22957 0.72166 0.0
H266 H 0.29229 0.24066 0.71383 0.0
H267 H 0.29387 0.21149 0.68709 0.0
H268 H 0.2223 0.2935 0.79408 0.0
H269 H 0.22217 0.30433 0.72208 0.0
H270 H 0.23085 0.2016 0.6935 0.0
H271 H 0.19342 0.316 0.79803 0.0
H272 H 0.19359 0.32738 0.72598 0.0
C273 C 0.2759 0.80362 0.28953 0.0
C274 C 0.26739 0.8019 0.31106 0.0
C275 C 0.27484 0.78684 0.27408 0.0
C276 C 0.26527 0.76787 0.27975 0.0
C277 C 0.25697 0.76603 0.30139 0.0
C278 C 0.25803 0.78283 0.31685 0.0
C279 C 0.26357 0.75032 0.26292 0.0
C280 C 0.27953 0.74539 0.24876 0.0
C281 C 0.27776 0.72963 0.23195 0.0
C282 C 0.25974 0.71863 0.2296 0.0
C283 C 0.24375 0.72302 0.24384 0.0
C284 C 0.24579 0.73886 0.26046 0.0
C285 C 0.2249 0.71109 0.24119 0.0
C286 C 0.21648 0.70765 0.21964 0.0
C287 C 0.21542 0.70268 0.26016 0.0
C288 C 0.19808 0.69074 0.25761 0.0
C289 C 0.18968 0.68712 0.23603 0.0
C290 C 0.2945 0.72501 0.21647 0.0
C291 C 0.30646 0.74144 0.20831 0.0
C292 C 0.29838 0.70424 0.20925 0.0
C293 C 0.3135 0.70009 0.19388 0.0
C294 C 0.32525 0.71659 0.18546 0.0
C295 C 0.32168 0.73728 0.19314 0.0
C296 C 0.19903 0.69587 0.21709 0.0
H297 H 0.28343 0.81796 0.28459 0.0
H298 H 0.28121 0.78891 0.2575 0.0
H299 H 0.24966 0.75158 0.3064 0.0
H300 H 0.25115 0.78102 0.33319 0.0
H301 H 0.29347 0.75368 0.25106 0.0
H302 H 0.23325 0.74272 0.27097 0.0
H303 H 0.25806 0.70662 0.21658 0.0
H304 H 0.22332 0.7142 0.20473 0.0
H305 H 0.2217 0.70488 0.27695 0.0
H306 H 0.19152 0.68397 0.27256 0.0
H307 H 0.30383 0.75766 0.21327 0.0
H308 H 0.2897 0.69112 0.21544 0.0
H309 H 0.19283 0.69377 0.20026 0.0
H310 H 0.33064 0.75036 0.1874 0.0
H311 H 0.31569 0.68399 0.18826 0.0
C312 C 0.97957 0.48195 0.22628 0.0
C313 C 0.02572 0.54171 0.2279 0.0
O314 O 0.98532 0.48727 0.24623 0.0
Zn315 Zn 0.00356 0.51044 0.2624 0.0
O316 O 0.98559 0.49238 0.20936 0.0
Zn317 Zn 0.00243 0.51218 0.22622 0.0
O318 O 0.02519 0.49257 0.23999 0.0
O319 O 0.02324 0.49307 0.27727 0.0
O320 O 0.01815 0.53295 0.21039 0.0
O321 O 0.02132 0.53487 0.24761 0.0
O322 O 0.98467 0.52612 0.28028 0.0
O323 O 0.98145 0.53142 0.24354 0.0
C324 C 0.03165 0.48662 0.25938 0.0
C325 C 0.97605 0.53527 0.26388 0.0
C326 C 0.97478 0.46793 0.74162 0.0
C327 C 0.02487 0.52363 0.74184 0.0
O328 O 0.98095 0.47285 0.76159 0.0
Zn329 Zn 0.00149 0.49471 0.7772 0.0
O330 O 0.9818 0.47738 0.72455 0.0
Zn331 Zn 0.99993 0.49555 0.74105 0.0
O332 O 0.02078 0.47371 0.75476 0.0
O333 O 0.02043 0.47625 0.79201 0.0
O334 O 0.01675 0.51494 0.72464 0.0
O335 O 0.0203 0.51748 0.76172 0.0
O336 O 0.98427 0.51262 0.7951 0.0
O337 O 0.97982 0.51595 0.75825 0.0
C338 C 0.02732 0.46788 0.77414 0.0
C339 C 0.9752 0.52105 0.77854 0.0
C340 C 0.22843 0.97683 0.52962 0.0
C341 C 0.22462 0.02802 0.46887 0.0
O342 O 0.21296 0.98443 0.52047 0.0
Zn343 Zn 0.22628 0.00269 0.49962 0.0
O344 O 0.24555 0.98285 0.52293 0.0
Zn345 Zn 0.25765 0.00391 0.49817 0.0
O346 O 0.27221 0.02444 0.51637 0.0
O347 O 0.24 0.02555 0.52181 0.0
O348 O 0.24249 0.02327 0.47413 0.0
O349 O 0.21041 0.01987 0.47973 0.0
O350 O 0.23962 0.98029 0.47687 0.0
O351 O 0.27199 0.98471 0.47875 0.0
C352 C 0.25748 0.03235 0.5265 0.0
C353 C 0.25703 0.975 0.47054 0.0
C354 C 0.52846 0.73267 0.02109 0.0
C355 C 0.47849 0.73699 0.96107 0.0
O356 O 0.52298 0.71463 0.01326 0.0
Zn357 Zn 0.50269 0.70179 0.98876 0.0
O358 O 0.52057 0.74934 0.01337 0.0
Zn359 Zn 0.5033 0.73567 0.9913 0.0
O360 O 0.48217 0.72045 0.01201 0.0
O361 O 0.48423 0.68594 0.00763 0.0
O362 O 0.48634 0.75236 0.97187 0.0
O363 O 0.48344 0.71802 0.96585 0.0
O364 O 0.5204 0.6875 0.96792 0.0
O365 O 0.52391 0.72217 0.96821 0.0
C366 C 0.47617 0.70186 0.01691 0.0
C367 C 0.52909 0.70399 0.96076 0.0
C368 C 0.76666 0.97761 0.53712 0.0
C369 C 0.76773 0.03078 0.47724 0.0
O370 O 0.74937 0.9824 0.52966 0.0
Zn371 Zn 0.73635 0.00285 0.50467 0.0
O372 O 0.78181 0.98658 0.52881 0.0
Zn373 Zn 0.76778 0.00424 0.50741 0.0
O374 O 0.75213 0.02526 0.52936 0.0
O375 O 0.72012 0.0214 0.52253 0.0
O376 O 0.78247 0.02341 0.48805 0.0
O377 O 0.75028 0.02428 0.48197 0.0
O378 O 0.72358 0.98313 0.48419 0.0
O379 O 0.75618 0.98113 0.48409 0.0
C380 C 0.73417 0.03034 0.53342 0.0
C381 C 0.73925 0.97463 0.47682 0.0
C382 C 0.52684 0.29433 0.04423 0.0
C383 C 0.47888 0.29692 0.98171 0.0
O384 O 0.52084 0.27611 0.03753 0.0
Zn385 Zn 0.50157 0.26269 0.01253 0.0
O386 O 0.52032 0.31078 0.03455 0.0
Zn387 Zn 0.50266 0.29649 0.01306 0.0
O388 O 0.48057 0.28257 0.03397 0.0
O389 O 0.48228 0.24792 0.03074 0.0
O390 O 0.48647 0.31264 0.99221 0.0
O391 O 0.48338 0.27812 0.98771 0.0
O392 O 0.51984 0.24692 0.99384 0.0
O393 O 0.52289 0.28148 0.99057 0.0
C394 C 0.4742 0.26418 0.03924 0.0
C395 C 0.5281 0.2628 0.9848 0.0
C396 C 0.15119 0.34432 0.23956 0.0
C397 C 0.16953 0.34646 0.25079 0.0
C398 C 0.13685 0.35997 0.2414 0.0
C399 C 0.12204 0.40599 0.27637 0.0
H400 H 0.08981 0.41837 0.22357 0.0
C401 C 0.05263 0.45976 0.27941 0.0
C402 C 0.04879 0.47226 0.26035 0.0
C403 C 0.06807 0.4451 0.27919 0.0
C404 C 0.0988 0.41533 0.23845 0.0
H405 H 0.18711 0.36688 0.27279 0.0
H406 H 0.16234 0.39459 0.27529 0.0
H407 H 0.11562 0.39212 0.2209 0.0
H408 H 0.05878 0.48009 0.22665 0.0
H409 H 0.08589 0.45521 0.22652 0.0
H410 H 0.10551 0.42981 0.29367 0.0
C411 C 0.15891 0.38057 0.26542 0.0
C412 C 0.11345 0.4 0.237 0.0
C413 C 0.17324 0.36481 0.26371 0.0
C414 C 0.06114 0.47044 0.24148 0.0
C415 C 0.07664 0.45605 0.24135 0.0
C416 C 0.10742 0.42151 0.27778 0.0
C417 C 0.14052 0.37832 0.25431 0.0
C418 C 0.12521 0.39504 0.25594 0.0
C419 C 0.08007 0.44285 0.25997 0.0
C420 C 0.09564 0.42638 0.2588 0.0
H421 H 0.14788 0.33056 0.22921 0.0
H422 H 0.12277 0.35753 0.23285 0.0
H423 H 0.13067 0.40242 0.29138 0.0
H424 H 0.04332 0.46083 0.29419 0.0
H425 H 0.07021 0.4351 0.29377 0.0
C426 C 0.14975 0.65983 0.7669 0.0
C427 C 0.16582 0.66036 0.75206 0.0
C428 C 0.13438 0.64531 0.76357 0.0
C429 C 0.12102 0.59546 0.73364 0.0
H430 H 0.06777 0.61351 0.74766 0.0
C431 C 0.05107 0.54264 0.71983 0.0
C432 C 0.03967 0.54067 0.73947 0.0
C433 C 0.06609 0.55793 0.71874 0.0
C434 C 0.08256 0.60829 0.74363 0.0
H435 H 0.17849 0.6461 0.72215 0.0
H436 H 0.15145 0.62093 0.71602 0.0
H437 H 0.09509 0.63859 0.75101 0.0
H438 H 0.03453 0.55359 0.77297 0.0
H439 H 0.06032 0.58041 0.77085 0.0
H440 H 0.10823 0.56511 0.72618 0.0
C441 C 0.15087 0.63145 0.7305 0.0
C442 C 0.09826 0.62258 0.74571 0.0
C443 C 0.16637 0.64586 0.734 0.0
C444 C 0.04312 0.55466 0.75764 0.0
C445 C 0.05781 0.5701 0.7564 0.0
C446 C 0.10523 0.58121 0.73131 0.0
C447 C 0.13458 0.63114 0.74513 0.0
C448 C 0.11776 0.61624 0.74125 0.0
C449 C 0.0696 0.57174 0.73708 0.0
C450 C 0.08593 0.58739 0.73675 0.0
H451 H 0.14909 0.67065 0.78113 0.0
H452 H 0.12235 0.64518 0.77553 0.0
H453 H 0.13583 0.58996 0.73023 0.0
H454 H 0.04876 0.532 0.70561 0.0
H455 H 0.07497 0.55894 0.70363 0.0
C456 C 0.84326 0.66203 0.25109 0.0
C457 C 0.82641 0.65936 0.26446 0.0
C458 C 0.8595 0.64874 0.25365 0.0
C459 C 0.87486 0.59709 0.27712 0.0
H460 H 0.92726 0.62085 0.26879 0.0
C461 C 0.94797 0.54932 0.28704 0.0
C462 C 0.95987 0.5504 0.26771 0.0
C463 C 0.93187 0.56296 0.28951 0.0
C464 C 0.91271 0.61403 0.27123 0.0
H465 H 0.81326 0.6407 0.29099 0.0
H466 H 0.84185 0.61766 0.29589 0.0
H467 H 0.89853 0.64386 0.26769 0.0
H468 H 0.9647 0.56697 0.23624 0.0
H469 H 0.93702 0.59099 0.24084 0.0
H470 H 0.88933 0.56722 0.28077 0.0
C471 C 0.84239 0.62977 0.28308 0.0
C472 C 0.89621 0.62715 0.27042 0.0
C473 C 0.82602 0.64297 0.28032 0.0
C474 C 0.95574 0.5657 0.25128 0.0
C475 C 0.93997 0.57953 0.25395 0.0
C476 C 0.89144 0.58399 0.27822 0.0
C477 C 0.85941 0.63259 0.26988 0.0
C478 C 0.87702 0.61879 0.27278 0.0
C479 C 0.92776 0.57817 0.27294 0.0
C480 C 0.91046 0.59229 0.27477 0.0
H481 H 0.84383 0.67435 0.23849 0.0
H482 H 0.87208 0.65105 0.24273 0.0
H483 H 0.86033 0.59004 0.27883 0.0
H484 H 0.95078 0.5376 0.29992 0.0
H485 H 0.92265 0.56166 0.30433 0.0
C486 C 0.84301 0.33773 0.75977 0.0
C487 C 0.82582 0.34079 0.74672 0.0
C488 C 0.85941 0.35097 0.75722 0.0
C489 C 0.87444 0.40303 0.73395 0.0
H490 H 0.9271 0.38014 0.74213 0.0
C491 C 0.94629 0.45171 0.72008 0.0
C492 C 0.95911 0.45174 0.73895 0.0
C493 C 0.93042 0.43744 0.71879 0.0
C494 C 0.91247 0.38671 0.73976 0.0
H495 H 0.81232 0.35983 0.72058 0.0
H496 H 0.84115 0.3826 0.71554 0.0
H497 H 0.89842 0.35675 0.74402 0.0
H498 H 0.96588 0.43642 0.77077 0.0
H499 H 0.93852 0.41123 0.7682 0.0
H500 H 0.88872 0.43297 0.72937 0.0
C501 C 0.84186 0.37037 0.72822 0.0
C502 C 0.896 0.37337 0.74103 0.0
C503 C 0.82534 0.35731 0.73103 0.0
C504 C 0.9562 0.4368 0.75606 0.0
C505 C 0.94061 0.42232 0.75455 0.0
C506 C 0.89095 0.4163 0.73233 0.0
C507 C 0.85913 0.36739 0.74129 0.0
C508 C 0.87673 0.38141 0.73855 0.0
C509 C 0.9274 0.42271 0.7361 0.0
C510 C 0.91008 0.40831 0.73559 0.0
H511 H 0.84367 0.32524 0.77216 0.0
H512 H 0.87222 0.34845 0.76799 0.0
H513 H 0.85988 0.4099 0.73226 0.0
H514 H 0.94815 0.46311 0.7067 0.0
H515 H 0.92045 0.43797 0.70435 0.0
C516 C 0.22947 0.1768 0.34516 0.0
C517 C 0.22307 0.17527 0.32253 0.0
C518 C 0.22606 0.16027 0.36012 0.0
C519 C 0.21928 0.10338 0.36139 0.0
H520 H 0.20259 0.11352 0.42312 0.0
C521 C 0.23592 0.04718 0.43466 0.0
C522 C 0.22093 0.04302 0.45034 0.0
C523 C 0.23309 0.06205 0.4177 0.0
C524 C 0.207 0.11042 0.40585 0.0
H525 H 0.20804 0.15535 0.29778 0.0
H526 H 0.20225 0.12626 0.32396 0.0
H527 H 0.20312 0.14267 0.39621 0.0
H528 H 0.1911 0.05094 0.46036 0.0
H529 H 0.18629 0.07742 0.43077 0.0
H530 H 0.22377 0.07128 0.37122 0.0
C531 C 0.20982 0.14031 0.33009 0.0
C532 C 0.20747 0.1271 0.39054 0.0
C533 C 0.21304 0.15696 0.31518 0.0
C534 C 0.20289 0.05381 0.44848 0.0
C535 C 0.20017 0.06898 0.43165 0.0
C536 C 0.21902 0.08676 0.37676 0.0
C537 C 0.21635 0.14179 0.35269 0.0
C538 C 0.21395 0.1238 0.36828 0.0
C539 C 0.2153 0.07329 0.41619 0.0
C540 C 0.21321 0.09021 0.39924 0.0
H541 H 0.23707 0.19083 0.35131 0.0
H542 H 0.23145 0.16174 0.37739 0.0
H543 H 0.22444 0.10042 0.34437 0.0
H544 H 0.24996 0.03904 0.43558 0.0
H545 H 0.24509 0.06522 0.40617 0.0
C546 C 0.34242 0.72927 0.8235 0.0
C547 C 0.32665 0.74314 0.82762 0.0
C548 C 0.35936 0.72974 0.83723 0.0
C549 C 0.38861 0.76327 0.87578 0.0
H550 H 0.40766 0.71021 0.89953 0.0
C551 C 0.45063 0.758 0.94436 0.0
C552 C 0.46311 0.74038 0.94359 0.0
C553 C 0.43455 0.75953 0.92931 0.0
C554 C 0.40281 0.72516 0.89275 0.0
H555 H 0.31646 0.76833 0.84964 0.0
H556 H 0.34629 0.76943 0.8732 0.0
H557 H 0.37865 0.71049 0.87493 0.0
H558 H 0.46944 0.71131 0.92561 0.0
H559 H 0.44211 0.71437 0.8989 0.0
H560 H 0.41299 0.77794 0.89329 0.0
C561 C 0.34546 0.75828 0.85925 0.0
C562 C 0.3861 0.72529 0.87873 0.0
C563 C 0.3284 0.75765 0.84569 0.0
C564 C 0.45987 0.72493 0.92681 0.0
C565 C 0.44408 0.72661 0.91161 0.0
C566 C 0.40553 0.76313 0.88963 0.0
C567 C 0.36104 0.74424 0.85523 0.0
C568 C 0.37883 0.74431 0.87009 0.0
C569 C 0.43085 0.7436 0.91304 0.0
C570 C 0.41289 0.74404 0.89824 0.0
H571 H 0.34182 0.71819 0.80948 0.0
H572 H 0.37126 0.7189 0.83361 0.0
H573 H 0.38336 0.77815 0.8692 0.0
H574 H 0.45275 0.7701 0.9572 0.0
H575 H 0.42462 0.77278 0.93103 0.0
C576 C 0.72382 0.8322 0.3351 0.0
C577 C 0.74056 0.81914 0.33493 0.0
C578 C 0.72277 0.84921 0.35019 0.0
C579 C 0.75405 0.88579 0.38249 0.0
H580 H 0.70782 0.89482 0.41961 0.0
C581 C 0.75534 0.94518 0.45592 0.0
C582 C 0.73833 0.95713 0.46019 0.0
C583 C 0.75483 0.92868 0.44023 0.0
C584 C 0.72071 0.89273 0.40911 0.0
H585 H 0.76929 0.81359 0.35026 0.0
H586 H 0.76753 0.84347 0.37653 0.0
H587 H 0.70833 0.86527 0.39284 0.0
H588 H 0.70738 0.96113 0.45135 0.0
H589 H 0.70658 0.93252 0.42339 0.0
H590 H 0.76639 0.9133 0.3983 0.0
C591 C 0.75524 0.8405 0.36502 0.0
C592 C 0.72101 0.87577 0.39387 0.0
C593 C 0.75618 0.82334 0.35015 0.0
C594 C 0.72072 0.95216 0.44845 0.0
C595 C 0.72025 0.93571 0.43252 0.0
C596 C 0.75368 0.90285 0.39751 0.0
C597 C 0.73855 0.85362 0.36514 0.0
C598 C 0.7378 0.872 0.38065 0.0
C599 C 0.73735 0.92383 0.42818 0.0
C600 C 0.73713 0.90636 0.41126 0.0
H601 H 0.71152 0.82918 0.32363 0.0
H602 H 0.70979 0.85915 0.34988 0.0
H603 H 0.76703 0.88345 0.37219 0.0
H604 H 0.76911 0.94843 0.46486 0.0
H605 H 0.76815 0.91958 0.43775 0.0
C606 C 0.65246 0.28331 0.84055 0.0
C607 C 0.66902 0.27007 0.84064 0.0
C608 C 0.63731 0.28038 0.85611 0.0
C609 C 0.62517 0.25452 0.91046 0.0
H610 H 0.57143 0.26476 0.88989 0.0
C611 C 0.55525 0.24215 0.9662 0.0
C612 C 0.54343 0.2603 0.96738 0.0
C613 C 0.57046 0.2408 0.9503 0.0
C614 C 0.58636 0.26178 0.89582 0.0
H615 H 0.68285 0.24347 0.85716 0.0
H616 H 0.6562 0.23804 0.88416 0.0
H617 H 0.59856 0.26748 0.86324 0.0
H618 H 0.53782 0.2909 0.95245 0.0
H619 H 0.56393 0.28831 0.92457 0.0
H620 H 0.6127 0.24874 0.94311 0.0
C621 C 0.65505 0.25096 0.87234 0.0
C622 C 0.60194 0.26351 0.88064 0.0
C623 C 0.67032 0.25405 0.85688 0.0
C624 C 0.54674 0.27675 0.95204 0.0
C625 C 0.56161 0.27524 0.93598 0.0
C626 C 0.6095 0.25255 0.92562 0.0
C627 C 0.63823 0.26395 0.87197 0.0
C628 C 0.6216 0.26042 0.88786 0.0
C629 C 0.57373 0.25737 0.93506 0.0
C630 C 0.59002 0.25663 0.91853 0.0
H631 H 0.65121 0.29596 0.82839 0.0
H632 H 0.62487 0.29106 0.85569 0.0
H633 H 0.64011 0.25216 0.91667 0.0
H634 H 0.55304 0.22928 0.97788 0.0
H635 H 0.57963 0.22685 0.94986 0.0
C636 C 0.22069 0.84528 0.68072 0.0
C637 C 0.22751 0.82525 0.67417 0.0
C638 C 0.21937 0.86159 0.66501 0.0
C639 C 0.20902 0.89059 0.62584 0.0
H640 H 0.25204 0.89604 0.58334 0.0
C641 C 0.20884 0.95081 0.55227 0.0
C642 C 0.22699 0.96062 0.54739 0.0
C643 C 0.20797 0.93453 0.5681 0.0
C644 C 0.23999 0.89486 0.59521 0.0
H645 H 0.23809 0.80663 0.64586 0.0
H646 H 0.23524 0.83485 0.61837 0.0
H647 H 0.25216 0.86719 0.61016 0.0
H648 H 0.25829 0.96165 0.55595 0.0
H649 H 0.25668 0.93366 0.58373 0.0
H650 H 0.19719 0.91872 0.61121 0.0
C651 C 0.2312 0.83806 0.63574 0.0
C652 C 0.23991 0.87813 0.61038 0.0
C653 C 0.2326 0.8218 0.65145 0.0
C654 C 0.2441 0.95427 0.55912 0.0
C655 C 0.24321 0.93812 0.57497 0.0
C656 C 0.20913 0.90741 0.61065 0.0
C657 C 0.22479 0.85821 0.64238 0.0
C658 C 0.22447 0.8758 0.62592 0.0
C659 C 0.22521 0.92782 0.57938 0.0
C660 C 0.22469 0.90979 0.59527 0.0
H661 H 0.2164 0.84839 0.69802 0.0
H662 H 0.21453 0.87697 0.67072 0.0
H663 H 0.19681 0.88912 0.63745 0.0
H664 H 0.1954 0.95535 0.54348 0.0
H665 H 0.1939 0.92681 0.57102 0.0
C666 C 0.66512 0.71352 0.15607 0.0
C667 C 0.66975 0.73104 0.1699 0.0
C668 C 0.6493 0.7143 0.14069 0.0
C669 C 0.61863 0.75109 0.1082 0.0
H670 H 0.58191 0.70401 0.10401 0.0
C671 C 0.54882 0.75249 0.05023 0.0
C672 C 0.54412 0.7336 0.03876 0.0
C673 C 0.56362 0.75288 0.06701 0.0
C674 C 0.59215 0.7172 0.10476 0.0
H675 H 0.66097 0.76297 0.17866 0.0
H676 H 0.6337 0.76439 0.15148 0.0
H677 H 0.60904 0.70306 0.13141 0.0
H678 H 0.55153 0.70042 0.03562 0.0
H679 H 0.57741 0.70124 0.06424 0.0
H680 H 0.60202 0.76506 0.08122 0.0
C681 C 0.64245 0.75016 0.15244 0.0
C682 C 0.60767 0.71664 0.1205 0.0
C683 C 0.65814 0.74933 0.16796 0.0
C684 C 0.55461 0.71522 0.04426 0.0
C685 C 0.56941 0.71565 0.06084 0.0
C686 C 0.60318 0.75158 0.0923 0.0
C687 C 0.63786 0.73265 0.13868 0.0
C688 C 0.62114 0.7335 0.12228 0.0
C689 C 0.57405 0.73442 0.07254 0.0
C690 C 0.58986 0.73455 0.09024 0.0
H691 H 0.6739 0.6993 0.15687 0.0
H692 H 0.64622 0.70064 0.13008 0.0
H693 H 0.6289 0.76425 0.10911 0.0
H694 H 0.54098 0.76691 0.04641 0.0
H695 H 0.56669 0.76758 0.07584 0.0
C696 C 0.74199 0.16828 0.67497 0.0
C697 C 0.73023 0.18632 0.67223 0.0
C698 C 0.73956 0.15087 0.66063 0.0
C699 C 0.71903 0.13505 0.60468 0.0
H700 H 0.72777 0.07886 0.62821 0.0
C701 C 0.71282 0.05873 0.54986 0.0
C702 C 0.73019 0.04666 0.55066 0.0
C703 C 0.70999 0.07515 0.56545 0.0
C704 C 0.7252 0.09447 0.62147 0.0
H705 H 0.70668 0.20012 0.65207 0.0
H706 H 0.70192 0.1694 0.6276 0.0
H707 H 0.72791 0.109 0.65407 0.0
H708 H 0.75781 0.0417 0.56881 0.0
H709 H 0.75263 0.06996 0.59623 0.0
H710 H 0.7163 0.12028 0.57204 0.0
C711 C 0.71329 0.16888 0.64062 0.0
C712 C 0.72543 0.11176 0.6362 0.0
C713 C 0.71586 0.18642 0.65485 0.0
C714 C 0.74432 0.05081 0.56772 0.0
C715 C 0.74132 0.06688 0.58349 0.0
C716 C 0.71854 0.11768 0.58998 0.0
C717 C 0.72513 0.15089 0.64332 0.0
C718 C 0.72287 0.13234 0.62793 0.0
C719 C 0.72427 0.07937 0.58234 0.0
C720 C 0.72209 0.09732 0.59819 0.0
H721 H 0.75299 0.16747 0.68837 0.0
H722 H 0.74921 0.13747 0.663 0.0
H723 H 0.7172 0.15066 0.59765 0.0
H724 H 0.70173 0.05588 0.53683 0.0
H725 H 0.69671 0.08458 0.56428 0.0
C726 C 0.33709 0.24281 0.17343 0.0
C727 C 0.32569 0.26124 0.17505 0.0
C728 C 0.35343 0.24203 0.15912 0.0
C729 C 0.38997 0.276 0.13188 0.0
H730 H 0.39735 0.22907 0.09042 0.0
C731 C 0.44652 0.28046 0.06063 0.0
C732 C 0.45738 0.26237 0.05498 0.0
C733 C 0.43082 0.27929 0.07567 0.0
C734 C 0.39569 0.24213 0.10214 0.0
H735 H 0.3225 0.2933 0.16311 0.0
H736 H 0.35112 0.29198 0.13822 0.0
H737 H 0.36922 0.22896 0.11611 0.0
H738 H 0.46017 0.22876 0.06062 0.0
H739 H 0.43286 0.22675 0.08744 0.0
H740 H 0.41643 0.28913 0.1183 0.0
C741 C 0.34741 0.27815 0.148 0.0
C742 C 0.37955 0.24208 0.11679 0.0
C743 C 0.33095 0.27886 0.16209 0.0
C744 C 0.45205 0.24297 0.06462 0.0
C745 C 0.43636 0.24182 0.0799 0.0
C746 C 0.40617 0.27596 0.11744 0.0
C747 C 0.35882 0.25974 0.14639 0.0
C748 C 0.37639 0.25918 0.13157 0.0
C749 C 0.42564 0.26003 0.08571 0.0
C750 C 0.40908 0.2592 0.10211 0.0
H751 H 0.33326 0.22894 0.18308 0.0
H752 H 0.36202 0.22768 0.15828 0.0
H753 H 0.38811 0.2892 0.1434 0.0
H754 H 0.45004 0.29563 0.05331 0.0
H755 H 0.42262 0.29353 0.07926 0.0
C756 C 0.84497 0.64987 0.76142 0.0
C757 C 0.84266 0.66574 0.7779 0.0
C758 C 0.85873 0.63379 0.7645 0.0
C759 C 0.90403 0.61966 0.79637 0.0
H760 H 0.89028 0.56344 0.775 0.0
C761 C 0.95704 0.54739 0.80273 0.0
C762 C 0.95918 0.53653 0.78208 0.0
C763 C 0.94222 0.56263 0.80521 0.0
C764 C 0.89433 0.57905 0.78107 0.0
H765 H 0.8533 0.6772 0.81051 0.0
H766 H 0.87712 0.6488 0.8161 0.0
H767 H 0.86558 0.59124 0.77373 0.0
H768 H 0.9472 0.53279 0.74807 0.0
H769 H 0.92142 0.55896 0.75249 0.0
H770 H 0.93291 0.6073 0.80352 0.0
C771 C 0.86835 0.64896 0.80067 0.0
C772 C 0.88022 0.59502 0.78024 0.0
C773 C 0.85457 0.66513 0.79756 0.0
C774 C 0.94602 0.5409 0.76419 0.0
C775 C 0.93113 0.55581 0.76675 0.0
C776 C 0.91815 0.60359 0.79734 0.0
C777 C 0.87051 0.63302 0.78422 0.0
C778 C 0.88503 0.61567 0.78732 0.0
C779 C 0.9291 0.56692 0.78721 0.0
C780 C 0.91356 0.58326 0.78916 0.0
H781 H 0.83589 0.64964 0.74622 0.0
H782 H 0.86021 0.62201 0.75128 0.0
H783 H 0.90827 0.6354 0.80186 0.0
H784 H 0.96701 0.5444 0.81679 0.0
H785 H 0.94093 0.57096 0.82118 0.0
C786 C 0.84436 0.35156 0.21399 0.0
C787 C 0.84533 0.3366 0.23147 0.0
C788 C 0.85936 0.36665 0.21149 0.0
C789 C 0.89719 0.39477 0.2446 0.0
H790 H 0.9207 0.4083 0.18685 0.0
C791 C 0.96484 0.44876 0.24087 0.0
C792 C 0.96577 0.46389 0.22367 0.0
C793 C 0.95071 0.43269 0.24006 0.0
C794 C 0.91411 0.4049 0.20305 0.0
H795 H 0.86336 0.32536 0.25943 0.0
H796 H 0.88922 0.35193 0.25536 0.0
H797 H 0.89472 0.38129 0.18873 0.0
H798 H 0.95305 0.47362 0.19165 0.0
H799 H 0.92781 0.44569 0.19046 0.0
H800 H 0.91605 0.41849 0.25899 0.0
C801 C 0.87674 0.35207 0.24373 0.0
C802 C 0.89929 0.3894 0.20412 0.0
C803 C 0.86186 0.33689 0.2461 0.0
C804 C 0.95268 0.46214 0.20513 0.0
C805 C 0.93827 0.44612 0.20445 0.0
C806 C 0.91181 0.41033 0.24352 0.0
C807 C 0.87556 0.36723 0.22654 0.0
C808 C 0.89087 0.38402 0.22498 0.0
C809 C 0.93686 0.43147 0.2222 0.0
C810 C 0.92069 0.41541 0.22281 0.0
H811 H 0.83174 0.35201 0.20257 0.0
H812 H 0.85798 0.37826 0.19822 0.0
H813 H 0.89068 0.39129 0.26084 0.0
H814 H 0.97494 0.44946 0.25521 0.0
H815 H 0.95052 0.42134 0.25366 0.0
C816 C 0.15879 0.33834 0.74827 0.0
C817 C 0.17384 0.33793 0.76487 0.0
C818 C 0.1428 0.35207 0.75037 0.0
C819 C 0.11429 0.383 0.79142 0.0
H820 H 0.09915 0.41562 0.73886 0.0
C821 C 0.05519 0.44945 0.7944 0.0
C822 C 0.04306 0.45176 0.77514 0.0
C823 C 0.07101 0.43524 0.79422 0.0
C824 C 0.10294 0.40642 0.75364 0.0
H825 H 0.18373 0.35182 0.79675 0.0
H826 H 0.15556 0.37542 0.80058 0.0
H827 H 0.12672 0.39127 0.73642 0.0
H828 H 0.03736 0.4402 0.74105 0.0
H829 H 0.06433 0.41514 0.74097 0.0
H830 H 0.09027 0.39792 0.80855 0.0
C831 C 0.15618 0.365 0.786 0.0
C832 C 0.11882 0.39251 0.75222 0.0
C833 C 0.17229 0.35142 0.7838 0.0
C834 C 0.04661 0.43904 0.75607 0.0
C835 C 0.0622 0.42474 0.75596 0.0
C836 C 0.09824 0.39681 0.79279 0.0
C837 C 0.14135 0.36559 0.76922 0.0
C838 C 0.12461 0.38056 0.77103 0.0
C839 C 0.07488 0.42293 0.77483 0.0
C840 C 0.09227 0.40859 0.77384 0.0
H841 H 0.15924 0.32792 0.73369 0.0
H842 H 0.13143 0.35196 0.73732 0.0
H843 H 0.11837 0.37389 0.80616 0.0
H844 H 0.05284 0.45908 0.80934 0.0
H845 H 0.08054 0.43436 0.80901 0.0
C846 C 0.1692 0.65999 0.2148 0.0
C847 C 0.17145 0.67395 0.2333 0.0
C848 C 0.15244 0.64705 0.21274 0.0
C849 C 0.11472 0.62173 0.24724 0.0
H850 H 0.08565 0.61412 0.19084 0.0
C851 C 0.04343 0.57273 0.24465 0.0
C852 C 0.04017 0.55919 0.22606 0.0
C853 C 0.05837 0.58796 0.24421 0.0
C854 C 0.09374 0.61587 0.20665 0.0
H855 H 0.15732 0.6857 0.26367 0.0
H856 H 0.12838 0.66276 0.26033 0.0
H857 H 0.114 0.63827 0.19251 0.0
H858 H 0.04962 0.55142 0.19211 0.0
H859 H 0.07625 0.5777 0.19154 0.0
H860 H 0.09507 0.59904 0.26136 0.0
C861 C 0.1397 0.66177 0.24752 0.0
C862 C 0.10993 0.62975 0.2076 0.0
C863 C 0.15634 0.67485 0.24947 0.0
C864 C 0.05176 0.5617 0.20666 0.0
C865 C 0.06698 0.57681 0.20633 0.0
C866 C 0.09873 0.60774 0.24625 0.0
C867 C 0.13765 0.64761 0.22925 0.0
C868 C 0.12049 0.63291 0.22796 0.0
C869 C 0.07073 0.58985 0.22532 0.0
C870 C 0.08789 0.60472 0.22601 0.0
H871 H 0.18063 0.65861 0.20218 0.0
H872 H 0.15134 0.63612 0.1986 0.0
H873 H 0.12282 0.62353 0.26305 0.0
H874 H 0.03455 0.57138 0.25974 0.0
H875 H 0.06039 0.5981 0.25888 0.0
C876 C 0.78757 0.83213 0.67291 0.0
C877 C 0.76956 0.82661 0.68309 0.0
C878 C 0.78862 0.84921 0.65806 0.0
C879 C 0.7616 0.89761 0.64112 0.0
H880 H 0.7928 0.89324 0.5866 0.0
C881 C 0.75167 0.95411 0.56619 0.0
C882 C 0.76862 0.96152 0.55511 0.0
C883 C 0.75312 0.93855 0.58272 0.0
C884 C 0.78424 0.89482 0.6019 0.0
H885 H 0.73846 0.83446 0.68522 0.0
H886 H 0.74022 0.86402 0.65922 0.0
H887 H 0.79266 0.86419 0.61351 0.0
H888 H 0.80047 0.9584 0.55283 0.0
H889 H 0.80299 0.93102 0.58177 0.0
H890 H 0.75286 0.92803 0.62927 0.0
C891 C 0.75366 0.8555 0.66309 0.0
C892 C 0.78415 0.87817 0.61735 0.0
C893 C 0.75263 0.83851 0.67798 0.0
C894 C 0.78713 0.95305 0.56107 0.0
C895 C 0.78856 0.9373 0.57754 0.0
C896 C 0.76162 0.91417 0.62564 0.0
C897 C 0.77167 0.86113 0.65296 0.0
C898 C 0.77263 0.87924 0.63703 0.0
C899 C 0.77154 0.92988 0.58854 0.0
C900 C 0.77274 0.91288 0.60572 0.0
H901 H 0.80094 0.82345 0.6767 0.0
H902 H 0.80279 0.85324 0.65082 0.0
H903 H 0.7529 0.89921 0.65632 0.0
H904 H 0.73717 0.96025 0.56206 0.0
H905 H 0.73969 0.933 0.59064 0.0
C906 C 0.67344 0.29851 0.16817 0.0
C907 C 0.6749 0.28099 0.18255 0.0
C908 C 0.65655 0.3015 0.15473 0.0
C909 C 0.61616 0.27162 0.1278 0.0
H910 H 0.59094 0.32601 0.12056 0.0
C911 C 0.54395 0.27843 0.0774 0.0
C912 C 0.54178 0.29556 0.06266 0.0
C913 C 0.55926 0.2781 0.09336 0.0
C914 C 0.59794 0.31077 0.12221 0.0
H915 H 0.65967 0.253 0.19428 0.0
H916 H 0.63019 0.25821 0.17081 0.0
H917 H 0.61958 0.32267 0.14593 0.0
H918 H 0.55354 0.32619 0.05363 0.0
H919 H 0.58078 0.32542 0.08126 0.0
H920 H 0.59504 0.25969 0.10383 0.0
C921 C 0.64215 0.2696 0.1699 0.0
C922 C 0.6143 0.30885 0.13678 0.0
C923 C 0.65895 0.26672 0.18348 0.0
C924 C 0.55483 0.3128 0.06482 0.0
C925 C 0.5704 0.31235 0.08068 0.0
C926 C 0.59997 0.27354 0.11316 0.0
C927 C 0.64084 0.28692 0.15522 0.0
C928 C 0.62348 0.28921 0.13983 0.0
C929 C 0.57305 0.29474 0.0948 0.0
C930 C 0.59051 0.29309 0.11028 0.0
H931 H 0.68541 0.3099 0.16727 0.0
H932 H 0.65602 0.31492 0.1435 0.0
H933 H 0.62317 0.25637 0.12942 0.0
H934 H 0.53394 0.26504 0.0764 0.0
H935 H 0.56044 0.26457 0.10437 0.0
C936 C 0.25122 0.16824 0.67394 0.0
C937 C 0.26344 0.18611 0.67148 0.0
C938 C 0.25199 0.15148 0.65849 0.0
C939 C 0.26965 0.13736 0.60071 0.0
H940 H 0.25947 0.08047 0.6215 0.0
C941 C 0.27709 0.06223 0.54399 0.0
C942 C 0.26014 0.04928 0.54367 0.0
C943 C 0.27894 0.07875 0.55978 0.0
C944 C 0.26234 0.09629 0.61548 0.0
H945 H 0.28607 0.20013 0.65045 0.0
H946 H 0.28816 0.17052 0.62429 0.0
H947 H 0.26031 0.10954 0.64869 0.0
H948 H 0.23209 0.04316 0.55998 0.0
H949 H 0.2356 0.07157 0.58779 0.0
H950 H 0.27207 0.12377 0.56749 0.0
C951 C 0.27757 0.16966 0.63789 0.0
C952 C 0.26267 0.11302 0.63101 0.0
C953 C 0.2766 0.18659 0.65317 0.0
C954 C 0.2453 0.0529 0.55973 0.0
C955 C 0.24734 0.06909 0.57573 0.0
C956 C 0.26964 0.12054 0.58523 0.0
C957 C 0.26524 0.15187 0.64028 0.0
C958 C 0.26601 0.13387 0.62382 0.0
C959 C 0.26408 0.08229 0.57582 0.0
C960 C 0.26568 0.0999 0.59242 0.0
H961 H 0.2411 0.16704 0.68797 0.0
H962 H 0.24198 0.13829 0.66078 0.0
H963 H 0.27198 0.15316 0.59438 0.0
H964 H 0.28873 0.05986 0.53179 0.0
H965 H 0.29203 0.08868 0.55956 0.0
C966 C 0.3443 0.72694 0.15096 0.0
C967 C 0.34089 0.71243 0.1684 0.0
C968 C 0.35928 0.72357 0.13531 0.0
C969 C 0.39002 0.68363 0.10831 0.0
H970 H 0.42456 0.7313 0.09679 0.0
C971 C 0.45719 0.68136 0.04619 0.0
C972 C 0.45993 0.69971 0.03335 0.0
C973 C 0.44289 0.68085 0.06329 0.0
C974 C 0.41494 0.71787 0.09961 0.0
H975 H 0.35049 0.68266 0.18265 0.0
H976 H 0.37647 0.67657 0.15482 0.0
H977 H 0.39912 0.73428 0.12539 0.0
H978 H 0.44898 0.73131 0.02728 0.0
H979 H 0.42403 0.73023 0.05631 0.0
H980 H 0.40561 0.66742 0.08196 0.0
C981 C 0.36747 0.6906 0.15347 0.0
C982 C 0.40041 0.71959 0.11606 0.0
C983 C 0.35256 0.6941 0.16935 0.0
C984 C 0.44753 0.71706 0.03715 0.0
C985 C 0.43327 0.71649 0.05394 0.0
C986 C 0.40454 0.68196 0.0916 0.0
C987 C 0.37114 0.70548 0.1365 0.0
C988 C 0.38754 0.70267 0.12028 0.0
C989 C 0.43109 0.69865 0.06766 0.0
C990 C 0.41686 0.69927 0.08672 0.0
H991 H 0.3353 0.74093 0.14925 0.0
H992 H 0.36155 0.73511 0.12215 0.0
H993 H 0.38026 0.67034 0.11126 0.0
H994 H 0.46653 0.66775 0.0436 0.0
H995 H 0.44154 0.66683 0.07355 0.0
C996 C 0.75512 0.16559 0.33183 0.0
C997 C 0.77144 0.17893 0.32813 0.0
C998 C 0.75641 0.14901 0.34723 0.0
C999 C 0.78514 0.13013 0.3967 0.0
H1000 H 0.7587 0.07716 0.3825 0.0
C1001 C 0.78851 0.05689 0.45569 0.0
C1002 C 0.77023 0.04682 0.4593 0.0
C1003 C 0.79031 0.07242 0.43902 0.0
C1004 C 0.76609 0.09189 0.38677 0.0
H1005 H 0.8019 0.18531 0.338 0.0
H1006 H 0.80425 0.15609 0.36455 0.0
H1007 H 0.75868 0.10539 0.35476 0.0
H1008 H 0.7396 0.04505 0.44799 0.0
H1009 H 0.74277 0.07189 0.41917 0.0
H1010 H 0.79242 0.11654 0.42884 0.0
C1011 C 0.79039 0.15861 0.35566 0.0
C1012 C 0.76603 0.10811 0.37089 0.0
C1013 C 0.7891 0.17523 0.34024 0.0
C1014 C 0.75392 0.05245 0.44572 0.0
C1015 C 0.75575 0.06777 0.42904 0.0
C1016 C 0.78525 0.11383 0.4126 0.0
C1017 C 0.77406 0.14526 0.35932 0.0
C1018 C 0.77526 0.12757 0.37577 0.0
C1019 C 0.77393 0.078 0.42549 0.0
C1020 C 0.77543 0.09466 0.40796 0.0
H1021 H 0.74136 0.16781 0.32264 0.0
H1022 H 0.74344 0.13925 0.34983 0.0
H1023 H 0.79225 0.14496 0.40113 0.0
H1024 H 0.80136 0.05294 0.46587 0.0
H1025 H 0.80455 0.07995 0.4366 0.0
C1026 C 0.34148 0.30792 0.84482 0.0
C1027 C 0.34157 0.29031 0.83025 0.0
C1028 C 0.35729 0.31173 0.85978 0.0
C1029 C 0.40958 0.29639 0.87138 0.0
H1030 H 0.39807 0.31526 0.93238 0.0
C1031 C 0.46184 0.28326 0.94699 0.0
C1032 C 0.46487 0.29981 0.96261 0.0
C1033 C 0.44796 0.2851 0.92953 0.0
C1034 C 0.40155 0.31032 0.9153 0.0
H1035 H 0.35821 0.26278 0.82005 0.0
H1036 H 0.38555 0.26908 0.84639 0.0
H1037 H 0.37135 0.31244 0.90445 0.0
H1038 H 0.4559 0.33142 0.972 0.0
H1039 H 0.43113 0.33449 0.9415 0.0
H1040 H 0.43965 0.2934 0.88263 0.0
C1041 C 0.37356 0.28033 0.84593 0.0
C1042 C 0.38624 0.30871 0.89926 0.0
C1043 C 0.35784 0.27664 0.83086 0.0
C1044 C 0.4539 0.31844 0.96017 0.0
C1045 C 0.4397 0.32015 0.94283 0.0
C1046 C 0.42481 0.29779 0.88748 0.0
C1047 C 0.37349 0.29791 0.86063 0.0
C1048 C 0.39 0.30134 0.87719 0.0
C1049 C 0.43657 0.30344 0.9274 0.0
C1050 C 0.42089 0.30442 0.9097 0.0
H1051 H 0.32925 0.31889 0.84452 0.0
H1052 H 0.35685 0.32559 0.87057 0.0
H1053 H 0.41314 0.29116 0.85443 0.0
H1054 H 0.47013 0.26873 0.94834 0.0
H1055 H 0.44573 0.27188 0.91805 0.0
C1056 C 0.27118 0.81696 0.35045 0.0
C1057 C 0.2679 0.82008 0.32718 0.0
C1058 C 0.2712 0.83405 0.36559 0.0
C1059 C 0.2528 0.88858 0.37133 0.0
H1060 H 0.28976 0.89172 0.42186 0.0
C1061 C 0.24252 0.94725 0.44491 0.0
C1062 C 0.25934 0.95761 0.45384 0.0
C1063 C 0.2444 0.93084 0.42923 0.0
C1064 C 0.27945 0.89118 0.40772 0.0
H1065 H 0.26202 0.84373 0.30165 0.0
H1066 H 0.26245 0.87349 0.32792 0.0
H1067 H 0.29189 0.86257 0.39475 0.0
H1068 H 0.2914 0.9587 0.45326 0.0
H1069 H 0.29468 0.93003 0.42565 0.0
H1070 H 0.2405 0.91726 0.38407 0.0
C1071 C 0.26482 0.8578 0.33453 0.0
C1072 C 0.28052 0.87434 0.39233 0.0
C1073 C 0.26481 0.84074 0.31941 0.0
C1074 C 0.27814 0.95107 0.44672 0.0
C1075 C 0.28002 0.93456 0.431 0.0
C1076 C 0.25172 0.90537 0.3867 0.0
C1077 C 0.26789 0.85467 0.35783 0.0
C1078 C 0.26715 0.87279 0.37399 0.0
C1079 C 0.26315 0.9243 0.42201 0.0
C1080 C 0.26493 0.90682 0.40519 0.0
H1081 H 0.27381 0.8013 0.357 0.0
H1082 H 0.27343 0.83103 0.38344 0.0
H1083 H 0.24213 0.8878 0.35755 0.0
H1084 H 0.22779 0.95177 0.45006 0.0
H1085 H 0.2311 0.92307 0.42297 0.0
C1086 C 0.65395 0.72481 0.81292 0.0
C1087 C 0.67198 0.71498 0.81805 0.0
C1088 C 0.63732 0.72125 0.82626 0.0
C1089 C 0.61728 0.68685 0.87206 0.0
H1090 H 0.58489 0.73588 0.88386 0.0
C1091 C 0.54815 0.68483 0.93048 0.0
C1092 C 0.54523 0.70282 0.94405 0.0
C1093 C 0.56288 0.68475 0.9139 0.0
C1094 C 0.59384 0.72203 0.88091 0.0
H1095 H 0.68674 0.69353 0.84097 0.0
H1096 H 0.65796 0.68783 0.86473 0.0
H1097 H 0.61181 0.73845 0.85732 0.0
H1098 H 0.55607 0.73441 0.95161 0.0
H1099 H 0.58185 0.73404 0.92351 0.0
H1100 H 0.59978 0.67082 0.89671 0.0
C1101 C 0.6564 0.69784 0.85006 0.0
C1102 C 0.60915 0.72341 0.86533 0.0
C1103 C 0.67296 0.70118 0.83651 0.0
C1104 C 0.55768 0.7204 0.94121 0.0
C1105 C 0.57243 0.72025 0.92492 0.0
C1106 C 0.60202 0.68554 0.88787 0.0
C1107 C 0.6384 0.70804 0.8453 0.0
C1108 C 0.62125 0.70593 0.86084 0.0
C1109 C 0.57503 0.70261 0.91075 0.0
C1110 C 0.59032 0.70324 0.89277 0.0
H1111 H 0.65273 0.73529 0.79858 0.0
H1112 H 0.62363 0.72901 0.8217 0.0
H1113 H 0.62606 0.67295 0.86879 0.0
H1114 H 0.53877 0.67105 0.93228 0.0
H1115 H 0.56443 0.67092 0.90324 0.0
loop_
_geom_bond_atom_site_label_1
_geom_bond_atom_site_label_2
_geom_bond_distance
_geom_bond_site_symmetry_2
_ccdc_geom_bond_type
C0 C1 1.386 . S
C0 C2 1.397 . S
C0 H24 0.931 . S
C1 C0 1.386 . S
C1 C5 1.397 . S
C2 C0 1.397 . S
C2 C3 1.384 . S
C2 H25 0.930 . S
C3 C2 1.384 . S
C3 C4 1.377 . S
C3 C6 1.481 . S
C4 C3 1.377 . S
C4 C5 1.389 . S
C4 H26 0.929 . S
C5 C1 1.397 . S
C5 C4 1.389 . S
C5 H27 0.931 . S
C6 C3 1.481 . S
C6 C7 1.387 . S
C6 C11 1.390 . S
C7 C6 1.387 . S
C7 C8 1.401 . S
C7 H28 0.930 . S
C8 C7 1.401 . S
C8 C9 1.376 . S
C8 C17 1.511 . S
C9 C8 1.376 . S
C9 C10 1.392 . S
C9 H30 0.931 . S
C10 C9 1.392 . S
C10 C11 1.361 . S
C10 C12 1.500 . S
C11 C6 1.390 . S
C11 C10 1.361 . S
C11 H29 0.931 . S
C12 C10 1.500 . S
C12 C13 1.371 . S
C12 C14 1.365 . S
C13 C12 1.371 . S
C13 C23 1.386 . S
C13 H31 0.931 . S
C14 C12 1.365 . S
C14 C15 1.409 . S
C14 H32 0.929 . S
C15 C14 1.409 . S
C15 C16 1.380 . S
C15 H33 0.930 . S
C16 C15 1.380 . S
C16 C23 1.357 . S
C17 C8 1.511 . S
C17 C18 1.341 . S
C17 C19 1.371 . S
C18 C17 1.341 . S
C18 C22 1.394 . S
C18 H34 0.930 . S
C19 C17 1.371 . S
C19 C20 1.392 . S
C19 H35 0.931 . S
C20 C19 1.392 . S
C20 C21 1.331 . S
C20 H38 0.932 . S
C21 C20 1.331 . S
C21 C22 1.336 . S
C22 C18 1.394 . S
C22 C21 1.336 . S
C22 H37 0.929 . S
C23 C13 1.386 . S
C23 C16 1.357 . S
C23 H36 0.928 . S
H24 C0 0.931 . S
H25 C2 0.930 . S
H26 C4 0.929 . S
H27 C5 0.931 . S
H28 C7 0.930 . S
H29 C11 0.931 . S
H30 C9 0.931 . S
H31 C13 0.931 . S
H32 C14 0.929 . S
H33 C15 0.930 . S
H34 C18 0.930 . S
H35 C19 0.931 . S
H36 C23 0.928 . S
H37 C22 0.929 . S
H38 C20 0.932 . S
C39 C40 1.386 . S
C39 C41 1.397 . S
C39 H63 0.931 . S
C40 C39 1.386 . S
C40 C44 1.397 . S
C41 C39 1.397 . S
C41 C42 1.384 . S
C41 H64 0.930 . S
C42 C41 1.384 . S
C42 C43 1.377 . S
C42 C45 1.481 . S
C43 C42 1.377 . S
C43 C44 1.389 . S
C43 H65 0.929 . S
C44 C40 1.397 . S
C44 C43 1.389 . S
C44 H66 0.931 . S
C45 C42 1.481 . S
C45 C46 1.387 . S
C45 C50 1.390 . S
C46 C45 1.387 . S
C46 C47 1.401 . S
C46 H67 0.930 . S
C47 C46 1.401 . S
C47 C48 1.376 . S
C47 C56 1.511 . S
C48 C47 1.376 . S
C48 C49 1.392 . S
C48 H69 0.931 . S
C49 C48 1.392 . S
C49 C50 1.361 . S
C49 C51 1.500 . S
C50 C45 1.390 . S
C50 C49 1.361 . S
C50 H68 0.931 . S
C51 C49 1.500 . S
C51 C52 1.371 . S
C51 C53 1.365 . S
C52 C51 1.371 . S
C52 C62 1.386 . S
C52 H70 0.931 . S
C53 C51 1.365 . S
C53 C54 1.409 . S
C53 H71 0.929 . S
C54 C53 1.409 . S
C54 C55 1.380 . S
C54 H72 0.930 . S
C55 C54 1.380 . S
C55 C62 1.357 . S
C56 C47 1.511 . S
C56 C57 1.341 . S
C56 C58 1.371 . S
C57 C56 1.341 . S
C57 C61 1.394 . S
C57 H73 0.930 . S
C58 C56 1.371 . S
C58 C59 1.392 . S
C58 H74 0.931 . S
C59 C58 1.392 . S
C59 C60 1.331 . S
C59 H77 0.932 . S
C60 C59 1.331 . S
C60 C61 1.336 . S
C61 C57 1.394 . S
C61 C60 1.336 . S
C61 H76 0.929 . S
C62 C52 1.386 . S
C62 C55 1.357 . S
C62 H75 0.928 . S
H63 C39 0.931 . S
H64 C41 0.930 . S
H65 C43 0.929 . S
H66 C44 0.931 . S
H67 C46 0.930 . S
H68 C50 0.931 . S
H69 C48 0.931 . S
H70 C52 0.931 . S
H71 C53 0.929 . S
H72 C54 0.930 . S
H73 C57 0.930 . S
H74 C58 0.931 . S
H75 C62 0.928 . S
H76 C61 0.929 . S
H77 C59 0.932 . S
C78 C79 1.386 . S
C78 C80 1.397 . S
C78 H102 0.931 . S
C79 C78 1.386 . S
C79 C83 1.397 . S
C80 C78 1.397 . S
C80 C81 1.384 . S
C80 H103 0.930 . S
C81 C80 1.384 . S
C81 C82 1.377 . S
C81 C84 1.481 . S
C82 C81 1.377 . S
C82 C83 1.389 . S
C82 H104 0.929 . S
C83 C79 1.397 . S
C83 C82 1.389 . S
C83 H105 0.931 . S
C84 C81 1.481 . S
C84 C85 1.387 . S
C84 C89 1.390 . S
C85 C84 1.387 . S
C85 C86 1.401 . S
C85 H106 0.930 . S
C86 C85 1.401 . S
C86 C87 1.376 . S
C86 C95 1.511 . S
C87 C86 1.376 . S
C87 C88 1.392 . S
C87 H108 0.931 . S
C88 C87 1.392 . S
C88 C89 1.361 . S
C88 C90 1.500 . S
C89 C84 1.390 . S
C89 C88 1.361 . S
C89 H107 0.931 . S
C90 C88 1.500 . S
C90 C91 1.371 . S
C90 C92 1.365 . S
C91 C90 1.371 . S
C91 C101 1.386 . S
C91 H109 0.931 . S
C92 C90 1.365 . S
C92 C93 1.409 . S
C92 H110 0.929 . S
C93 C92 1.409 . S
C93 C94 1.380 . S
C93 H111 0.930 . S
C94 C93 1.380 . S
C94 C101 1.357 . S
C95 C86 1.511 . S
C95 C96 1.341 . S
C95 C97 1.371 . S
C96 C95 1.341 . S
C96 C100 1.394 . S
C96 H112 0.930 . S
C97 C95 1.371 . S
C97 C98 1.392 . S
C97 H113 0.931 . S
C98 C97 1.392 . S
C98 C99 1.331 . S
C98 H116 0.932 . S
C99 C98 1.331 . S
C99 C100 1.336 . S
C100 C96 1.394 . S
C100 C99 1.336 . S
C100 H115 0.929 . S
C101 C91 1.386 . S
C101 C94 1.357 . S
C101 H114 0.928 . S
H102 C78 0.931 . S
H103 C80 0.930 . S
H104 C82 0.929 . S
H105 C83 0.931 . S
H106 C85 0.930 . S
H107 C89 0.931 . S
H108 C87 0.931 . S
H109 C91 0.931 . S
H110 C92 0.929 . S
H111 C93 0.930 . S
H112 C96 0.930 . S
H113 C97 0.931 . S
H114 C101 0.928 . S
H115 C100 0.929 . S
H116 C98 0.932 . S
C117 C118 1.386 . S
C117 C119 1.397 . S
C117 H141 0.931 . S
C118 C117 1.386 . S
C118 C122 1.397 . S
C119 C117 1.397 . S
C119 C120 1.384 . S
C119 H142 0.930 . S
C120 C119 1.384 . S
C120 C121 1.377 . S
C120 C123 1.481 . S
C121 C120 1.377 . S
C121 C122 1.389 . S
C121 H143 0.929 . S
C122 C118 1.397 . S
C122 C121 1.389 . S
C122 H144 0.931 . S
C123 C120 1.481 . S
C123 C124 1.387 . S
C123 C128 1.390 . S
C124 C123 1.387 . S
C124 C125 1.401 . S
C124 H145 0.930 . S
C125 C124 1.401 . S
C125 C126 1.376 . S
C125 C134 1.511 . S
C126 C125 1.376 . S
C126 C127 1.392 . S
C126 H147 0.931 . S
C127 C126 1.392 . S
C127 C128 1.361 . S
C127 C129 1.500 . S
C128 C123 1.390 . S
C128 C127 1.361 . S
C128 H146 0.931 . S
C129 C127 1.500 . S
C129 C130 1.371 . S
C129 C131 1.365 . S
C130 C129 1.371 . S
C130 C140 1.386 . S
C130 H148 0.931 . S
C131 C129 1.365 . S
C131 C132 1.409 . S
C131 H149 0.929 . S
C132 C131 1.409 . S
C132 C133 1.380 . S
C132 H150 0.930 . S
C133 C132 1.380 . S
C133 C140 1.357 . S
C134 C125 1.511 . S
C134 C135 1.341 . S
C134 C136 1.371 . S
C135 C134 1.341 . S
C135 C139 1.394 . S
C135 H151 0.930 . S
C136 C134 1.371 . S
C136 C137 1.392 . S
C136 H152 0.931 . S
C137 C136 1.392 . S
C137 C138 1.331 . S
C137 H155 0.932 . S
C138 C137 1.331 . S
C138 C139 1.336 . S
C139 C135 1.394 . S
C139 C138 1.336 . S
C139 H154 0.929 . S
C140 C130 1.386 . S
C140 C133 1.357 . S
C140 H153 0.928 . S
H141 C117 0.931 . S
H142 C119 0.930 . S
H143 C121 0.929 . S
H144 C122 0.931 . S
H145 C124 0.930 . S
H146 C128 0.931 . S
H147 C126 0.931 . S
H148 C130 0.931 . S
H149 C131 0.929 . S
H150 C132 0.930 . S
H151 C135 0.930 . S
H152 C136 0.931 . S
H153 C140 0.928 . S
H154 C139 0.929 . S
H155 C137 0.932 . S
C156 C157 1.386 . S
C156 C158 1.397 . S
C156 H180 0.931 . S
C157 C156 1.386 . S
C157 C161 1.397 . S
C158 C156 1.397 . S
C158 C159 1.384 . S
C158 H181 0.930 . S
C159 C158 1.384 . S
C159 C160 1.377 . S
C159 C162 1.481 . S
C160 C159 1.377 . S
C160 C161 1.389 . S
C160 H182 0.929 . S
C161 C157 1.397 . S
C161 C160 1.389 . S
C161 H183 0.931 . S
C162 C159 1.481 . S
C162 C163 1.387 . S
C162 C167 1.390 . S
C163 C162 1.387 . S
C163 C164 1.401 . S
C163 H184 0.930 . S
C164 C163 1.401 . S
C164 C165 1.376 . S
C164 C173 1.511 . S
C165 C164 1.376 . S
C165 C166 1.392 . S
C165 H186 0.931 . S
C166 C165 1.392 . S
C166 C167 1.361 . S
C166 C168 1.500 . S
C167 C162 1.390 . S
C167 C166 1.361 . S
C167 H185 0.931 . S
C168 C166 1.500 . S
C168 C169 1.371 . S
C168 C170 1.365 . S
C169 C168 1.371 . S
C169 C179 1.386 . S
C169 H187 0.931 . S
C170 C168 1.365 . S
C170 C171 1.409 . S
C170 H188 0.929 . S
C171 C170 1.409 . S
C171 C172 1.380 . S
C171 H189 0.930 . S
C172 C171 1.380 . S
C172 C179 1.357 . S
C173 C164 1.511 . S
C173 C174 1.341 . S
C173 C175 1.371 . S
C174 C173 1.341 . S
C174 C178 1.394 . S
C174 H190 0.930 . S
C175 C173 1.371 . S
C175 C176 1.392 . S
C175 H191 0.931 . S
C176 C175 1.392 . S
C176 C177 1.331 . S
C176 H194 0.932 . S
C177 C176 1.331 . S
C177 C178 1.336 . S
C178 C174 1.394 . S
C178 C177 1.336 . S
C178 H193 0.929 . S
C179 C169 1.386 . S
C179 C172 1.357 . S
C179 H192 0.928 . S
H180 C156 0.931 . S
H181 C158 0.930 . S
H182 C160 0.929 . S
H183 C161 0.931 . S
H184 C163 0.930 . S
H185 C167 0.931 . S
H186 C165 0.931 . S
H187 C169 0.931 . S
H188 C170 0.929 . S
H189 C171 0.930 . S
H190 C174 0.930 . S
H191 C175 0.931 . S
H192 C179 0.928 . S
H193 C178 0.929 . S
H194 C176 0.932 . S
C195 C196 1.386 . S
C195 C197 1.397 . S
C195 H219 0.931 . S
C196 C195 1.386 . S
C196 C200 1.397 . S
C197 C195 1.397 . S
C197 C198 1.384 . S
C197 H220 0.930 . S
C198 C197 1.384 . S
C198 C199 1.377 . S
C198 C201 1.481 . S
C199 C198 1.377 . S
C199 C200 1.389 . S
C199 H221 0.929 . S
C200 C196 1.397 . S
C200 C199 1.389 . S
C200 H222 0.931 . S
C201 C198 1.481 . S
C201 C202 1.387 . S
C201 C206 1.390 . S
C202 C201 1.387 . S
C202 C203 1.401 . S
C202 H223 0.930 . S
C203 C202 1.401 . S
C203 C204 1.376 . S
C203 C212 1.511 . S
C204 C203 1.376 . S
C204 C205 1.392 . S
C204 H225 0.931 . S
C205 C204 1.392 . S
C205 C206 1.361 . S
C205 C207 1.500 . S
C206 C201 1.390 . S
C206 C205 1.361 . S
C206 H224 0.931 . S
C207 C205 1.500 . S
C207 C208 1.371 . S
C207 C209 1.365 . S
C208 C207 1.371 . S
C208 C218 1.386 . S
C208 H226 0.931 . S
C209 C207 1.365 . S
C209 C210 1.409 . S
C209 H227 0.929 . S
C210 C209 1.409 . S
C210 C211 1.380 . S
C210 H228 0.930 . S
C211 C210 1.380 . S
C211 C218 1.357 . S
C212 C203 1.511 . S
C212 C213 1.341 . S
C212 C214 1.371 . S
C213 C212 1.341 . S
C213 C217 1.394 . S
C213 H229 0.930 . S
C214 C212 1.371 . S
C214 C215 1.392 . S
C214 H230 0.931 . S
C215 C214 1.392 . S
C215 C216 1.331 . S
C215 H233 0.932 . S
C216 C215 1.331 . S
C216 C217 1.336 . S
C217 C213 1.394 . S
C217 C216 1.336 . S
C217 H232 0.929 . S
C218 C208 1.386 . S
C218 C211 1.357 . S
C218 H231 0.928 . S
H219 C195 0.931 . S
H220 C197 0.930 . S
H221 C199 0.929 . S
H222 C200 0.931 . S
H223 C202 0.930 . S
H224 C206 0.931 . S
H225 C204 0.931 . S
H226 C208 0.931 . S
H227 C209 0.929 . S
H228 C210 0.930 . S
H229 C213 0.930 . S
H230 C214 0.931 . S
H231 C218 0.928 . S
H232 C217 0.929 . S
H233 C215 0.932 . S
C234 C235 1.386 . S
C234 C236 1.397 . S
C234 H258 0.931 . S
C235 C234 1.386 . S
C235 C239 1.397 . S
C236 C234 1.397 . S
C236 C237 1.384 . S
C236 H259 0.930 . S
C237 C236 1.384 . S
C237 C238 1.377 . S
C237 C240 1.481 . S
C238 C237 1.377 . S
C238 C239 1.389 . S
C238 H260 0.929 . S
C239 C235 1.397 . S
C239 C238 1.389 . S
C239 H261 0.931 . S
C240 C237 1.481 . S
C240 C241 1.387 . S
C240 C245 1.390 . S
C241 C240 1.387 . S
C241 C242 1.401 . S
C241 H262 0.930 . S
C242 C241 1.401 . S
C242 C243 1.376 . S
C242 C251 1.511 . S
C243 C242 1.376 . S
C243 C244 1.392 . S
C243 H264 0.931 . S
C244 C243 1.392 . S
C244 C245 1.361 . S
C244 C246 1.500 . S
C245 C240 1.390 . S
C245 C244 1.361 . S
C245 H263 0.931 . S
C246 C244 1.500 . S
C246 C247 1.371 . S
C246 C248 1.365 . S
C247 C246 1.371 . S
C247 C257 1.386 . S
C247 H265 0.931 . S
C248 C246 1.365 . S
C248 C249 1.409 . S
C248 H266 0.929 . S
C249 C248 1.409 . S
C249 C250 1.380 . S
C249 H267 0.930 . S
C250 C249 1.380 . S
C250 C257 1.357 . S
C251 C242 1.511 . S
C251 C252 1.341 . S
C251 C253 1.371 . S
C252 C251 1.341 . S
C252 C256 1.394 . S
C252 H268 0.930 . S
C253 C251 1.371 . S
C253 C254 1.392 . S
C253 H269 0.931 . S
C254 C253 1.392 . S
C254 C255 1.331 . S
C254 H272 0.932 . S
C255 C254 1.331 . S
C255 C256 1.336 . S
C256 C252 1.394 . S
C256 C255 1.336 . S
C256 H271 0.929 . S
C257 C247 1.386 . S
C257 C250 1.357 . S
C257 H270 0.928 . S
H258 C234 0.931 . S
H259 C236 0.930 . S
H260 C238 0.929 . S
H261 C239 0.931 . S
H262 C241 0.930 . S
H263 C245 0.931 . S
H264 C243 0.931 . S
H265 C247 0.931 . S
H266 C248 0.929 . S
H267 C249 0.930 . S
H268 C252 0.930 . S
H269 C253 0.931 . S
H270 C257 0.928 . S
H271 C256 0.929 . S
H272 C254 0.932 . S
C273 C274 1.386 . S
C273 C275 1.397 . S
C273 H297 0.931 . S
C274 C273 1.386 . S
C274 C278 1.397 . S
C275 C273 1.397 . S
C275 C276 1.384 . S
C275 H298 0.930 . S
C276 C275 1.384 . S
C276 C277 1.377 . S
C276 C279 1.481 . S
C277 C276 1.377 . S
C277 C278 1.389 . S
C277 H299 0.929 . S
C278 C274 1.397 . S
C278 C277 1.389 . S
C278 H300 0.931 . S
C279 C276 1.481 . S
C279 C280 1.387 . S
C279 C284 1.390 . S
C280 C279 1.387 . S
C280 C281 1.401 . S
C280 H301 0.930 . S
C281 C280 1.401 . S
C281 C282 1.376 . S
C281 C290 1.511 . S
C282 C281 1.376 . S
C282 C283 1.392 . S
C282 H303 0.931 . S
C283 C282 1.392 . S
C283 C284 1.361 . S
C283 C285 1.500 . S
C284 C279 1.390 . S
C284 C283 1.361 . S
C284 H302 0.931 . S
C285 C283 1.500 . S
C285 C286 1.371 . S
C285 C287 1.365 . S
C286 C285 1.371 . S
C286 C296 1.386 . S
C286 H304 0.931 . S
C287 C285 1.365 . S
C287 C288 1.409 . S
C287 H305 0.929 . S
C288 C287 1.409 . S
C288 C289 1.380 . S
C288 H306 0.930 . S
C289 C288 1.380 . S
C289 C296 1.357 . S
C290 C281 1.511 . S
C290 C291 1.341 . S
C290 C292 1.371 . S
C291 C290 1.341 . S
C291 C295 1.394 . S
C291 H307 0.930 . S
C292 C290 1.371 . S
C292 C293 1.392 . S
C292 H308 0.931 . S
C293 C292 1.392 . S
C293 C294 1.331 . S
C293 H311 0.932 . S
C294 C293 1.331 . S
C294 C295 1.336 . S
C295 C291 1.394 . S
C295 C294 1.336 . S
C295 H310 0.929 . S
C296 C286 1.386 . S
C296 C289 1.357 . S
C296 H309 0.928 . S
H297 C273 0.931 . S
H298 C275 0.930 . S
H299 C277 0.929 . S
H300 C278 0.931 . S
H301 C280 0.930 . S
H302 C284 0.931 . S
H303 C282 0.931 . S
H304 C286 0.931 . S
H305 C287 0.929 . S
H306 C288 0.930 . S
H307 C291 0.930 . S
H308 C292 0.931 . S
H309 C296 0.928 . S
H310 C295 0.929 . S
H311 C293 0.932 . S
C312 O314 1.247 . S
C312 O316 1.258 . S
C313 O320 1.247 . S
C313 O321 1.258 . S
O314 C312 1.247 . S
O314 Zn315 2.028 1_655 S
Zn315 O314 2.028 1_455 S
Zn315 O319 2.035 . S
Zn315 O321 2.035 . S
Zn315 O322 2.028 1_455 S
O316 C312 1.258 . S
O316 Zn317 2.000 1_655 S
Zn317 O316 2.000 1_455 S
Zn317 O318 2.064 . S
Zn317 O320 2.063 . S
Zn317 O323 2.000 1_455 S
O318 Zn317 2.064 . S
O318 C324 1.247 . S
O319 Zn315 2.035 . S
O319 C324 1.258 . S
O320 C313 1.247 . S
O320 Zn317 2.063 . S
O321 C313 1.258 . S
O321 Zn315 2.035 . S
O322 Zn315 2.028 1_655 S
O322 C325 1.247 . S
O323 Zn317 2.000 1_655 S
O323 C325 1.258 . S
C324 O318 1.247 . S
C324 O319 1.258 . S
C325 O322 1.247 . S
C325 O323 1.258 . S
C326 O328 1.247 . S
C326 O330 1.258 . S
C327 O334 1.247 . S
C327 O335 1.258 . S
O328 C326 1.247 . S
O328 Zn329 2.028 1_655 S
Zn329 O328 2.028 1_455 S
Zn329 O333 2.035 . S
Zn329 O335 2.035 . S
Zn329 O336 2.028 1_455 S
O330 C326 1.258 . S
O330 Zn331 2.035 1_655 S
Zn331 O330 2.035 1_455 S
Zn331 O332 2.028 . S
Zn331 O334 2.028 . S
Zn331 O337 2.035 1_455 S
O332 Zn331 2.028 . S
O332 C338 1.247 . S
O333 Zn329 2.035 . S
O333 C338 1.258 . S
O334 C327 1.247 . S
O334 Zn331 2.028 . S
O335 C327 1.258 . S
O335 Zn329 2.035 . S
O336 Zn329 2.028 1_655 S
O336 C339 1.247 . S
O337 Zn331 2.035 1_655 S
O337 C339 1.258 . S
C338 O332 1.247 . S
C338 O333 1.258 . S
C339 O336 1.247 . S
C339 O337 1.258 . S
C340 O342 1.247 . S
C340 O344 1.258 . S
C341 O348 1.247 . S
C341 O349 1.258 . S
O342 C340 1.247 . S
O342 Zn343 2.028 1_565 S
Zn343 O342 2.028 1_545 S
Zn343 O347 2.035 . S
Zn343 O349 2.035 . S
Zn343 O350 2.028 1_545 S
O344 C340 1.258 . S
O344 Zn345 2.035 1_565 S
Zn345 O344 2.035 1_545 S
Zn345 O346 2.028 . S
Zn345 O348 2.028 . S
Zn345 O351 2.035 1_545 S
O346 Zn345 2.028 . S
O346 C352 1.247 . S
O347 Zn343 2.035 . S
O347 C352 1.258 . S
O348 C341 1.247 . S
O348 Zn345 2.028 . S
O349 C341 1.258 . S
O349 Zn343 2.035 . S
O350 Zn343 2.028 1_565 S
O350 C353 1.247 . S
O351 Zn345 2.035 1_565 S
O351 C353 1.258 . S
C352 O346 1.247 . S
C352 O347 1.258 . S
C353 O350 1.247 . S
C353 O351 1.258 . S
C354 O356 1.247 . S
C354 O358 1.258 . S
C355 O362 1.247 . S
C355 O363 1.258 . S
O356 C354 1.247 . S
O356 Zn357 2.045 . S
Zn357 O356 2.045 . S
Zn357 O361 2.052 . S
Zn357 O363 2.018 1_554 S
Zn357 O364 2.011 1_554 S
O358 C354 1.258 . S
O358 Zn359 2.035 . S
Zn359 O358 2.035 . S
Zn359 O360 2.028 . S
Zn359 O362 2.028 1_554 S
Zn359 O365 2.035 1_554 S
O360 Zn359 2.028 . S
O360 C366 1.247 . S
O361 Zn357 2.052 . S
O361 C366 1.258 . S
O362 C355 1.247 . S
O362 Zn359 2.028 1_556 S
O363 C355 1.258 . S
O363 Zn357 2.018 1_556 S
O364 Zn357 2.011 1_556 S
O364 C367 1.247 . S
O365 Zn359 2.035 1_556 S
O365 C367 1.258 . S
C366 O360 1.247 . S
C366 O361 1.258 . S
C367 O364 1.247 . S
C367 O365 1.258 . S
C368 O370 1.247 . S
C368 O372 1.258 . S
C369 O376 1.247 . S
C369 O377 1.258 . S
O370 C368 1.247 . S
O370 Zn371 2.025 . S
Zn371 O370 2.025 . S
Zn371 O375 2.038 1_565 S
Zn371 O377 2.038 1_565 S
Zn371 O378 2.025 . S
O372 C368 1.258 . S
O372 Zn373 2.016 1_565 S
Zn373 O372 2.016 1_545 S
Zn373 O374 2.047 . S
Zn373 O376 2.047 . S
Zn373 O379 2.016 1_545 S
O374 Zn373 2.047 . S
O374 C380 1.247 . S
O375 Zn371 2.038 1_545 S
O375 C380 1.258 . S
O376 C369 1.247 . S
O376 Zn373 2.047 . S
O377 C369 1.258 . S
O377 Zn371 2.038 1_545 S
O378 Zn371 2.025 . S
O378 C381 1.247 . S
O379 Zn373 2.016 1_565 S
O379 C381 1.258 . S
C380 O374 1.247 . S
C380 O375 1.258 . S
C381 O378 1.247 . S
C381 O379 1.258 . S
C382 O384 1.247 . S
C382 O386 1.258 . S
C383 O390 1.247 . S
C383 O391 1.258 . S
O384 C382 1.247 . S
O384 Zn385 2.028 . S
Zn385 O384 2.028 . S
Zn385 O389 2.035 . S
Zn385 O391 2.035 1_554 S
Zn385 O392 2.028 1_554 S
O386 C382 1.258 . S
O386 Zn387 2.035 . S
Zn387 O386 2.035 . S
Zn387 O388 2.028 . S
Zn387 O390 2.028 1_554 S
Zn387 O393 2.035 1_554 S
O388 Zn387 2.028 . S
O388 C394 1.247 . S
O389 Zn385 2.035 . S
O389 C394 1.258 . S
O390 C383 1.247 . S
O390 Zn387 2.028 1_556 S
O391 C383 1.258 . S
O391 Zn385 2.035 1_556 S
O392 Zn385 2.028 1_556 S
O392 C395 1.247 . S
O393 Zn387 2.035 1_556 S
O393 C395 1.258 . S
C394 O388 1.247 . S
C394 O389 1.258 . S
C395 O392 1.247 . S
C395 O393 1.258 . S
C396 C397 1.349 . S
C396 C398 1.327 . S
C396 H421 0.950 . S
C397 C396 1.349 . S
C397 C413 1.349 . S
C398 C396 1.327 . S
C398 C417 1.429 . S
C398 H422 0.950 . S
C399 C416 1.574 . S
C399 C418 1.368 . S
C399 H423 0.949 . S
H400 C404 0.949 . S
C401 C402 1.349 . S
C401 C403 1.327 . S
C401 H424 0.950 . S
C402 C401 1.349 . S
C402 C414 1.349 . S
C403 C401 1.327 . S
C403 C419 1.429 . S
C403 H425 0.950 . S
C404 H400 0.949 . S
C404 C412 1.574 . S
C404 C420 1.368 . S
H405 C413 0.950 . S
H406 C411 0.950 . S
H407 C412 0.949 . S
H408 C414 0.950 . S
H409 C415 0.950 . S
H410 C416 0.949 . S
C411 H406 0.950 . S
C411 C413 1.327 . S
C411 C417 1.429 . S
C412 C404 1.574 . S
C412 H407 0.949 . S
C412 C418 1.368 . S
C413 C397 1.349 . S
C413 H405 0.950 . S
C413 C411 1.327 . S
C414 C402 1.349 . S
C414 H408 0.950 . S
C414 C415 1.327 . S
C415 H409 0.950 . S
C415 C414 1.327 . S
C415 C419 1.429 . S
C416 C399 1.574 . S
C416 H410 0.949 . S
C416 C420 1.368 . S
C417 C398 1.429 . S
C417 C411 1.429 . S
C417 C418 1.523 . S
C418 C399 1.368 . S
C418 C412 1.368 . S
C418 C417 1.523 . S
C419 C403 1.429 . S
C419 C415 1.429 . S
C419 C420 1.523 . S
C420 C404 1.368 . S
C420 C416 1.368 . S
C420 C419 1.523 . S
H421 C396 0.950 . S
H422 C398 0.950 . S
H423 C399 0.949 . S
H424 C401 0.950 . S
H425 C403 0.950 . S
C426 C427 1.349 . S
C426 C428 1.327 . S
C426 H451 0.950 . S
C427 C426 1.349 . S
C427 C443 1.349 . S
C428 C426 1.327 . S
C428 C447 1.429 . S
C428 H452 0.950 . S
C429 C446 1.574 . S
C429 C448 1.368 . S
C429 H453 0.949 . S
H430 C434 0.949 . S
C431 C432 1.349 . S
C431 C433 1.327 . S
C431 H454 0.950 . S
C432 C431 1.349 . S
C432 C444 1.349 . S
C433 C431 1.327 . S
C433 C449 1.429 . S
C433 H455 0.950 . S
C434 H430 0.949 . S
C434 C442 1.574 . S
C434 C450 1.368 . S
H435 C443 0.950 . S
H436 C441 0.950 . S
H437 C442 0.949 . S
H438 C444 0.950 . S
H439 C445 0.950 . S
H440 C446 0.949 . S
C441 H436 0.950 . S
C441 C443 1.327 . S
C441 C447 1.429 . S
C442 C434 1.574 . S
C442 H437 0.949 . S
C442 C448 1.368 . S
C443 C427 1.349 . S
C443 H435 0.950 . S
C443 C441 1.327 . S
C444 C432 1.349 . S
C444 H438 0.950 . S
C444 C445 1.327 . S
C445 H439 0.950 . S
C445 C444 1.327 . S
C445 C449 1.429 . S
C446 C429 1.574 . S
C446 H440 0.949 . S
C446 C450 1.368 . S
C447 C428 1.429 . S
C447 C441 1.429 . S
C447 C448 1.523 . S
C448 C429 1.368 . S
C448 C442 1.368 . S
C448 C447 1.523 . S
C449 C433 1.429 . S
C449 C445 1.429 . S
C449 C450 1.523 . S
C450 C434 1.368 . S
C450 C446 1.368 . S
C450 C449 1.523 . S
H451 C426 0.950 . S
H452 C428 0.950 . S
H453 C429 0.949 . S
H454 C431 0.950 . S
H455 C433 0.950 . S
C456 C457 1.349 . S
C456 C458 1.327 . S
C456 H481 0.950 . S
C457 C456 1.349 . S
C457 C473 1.349 . S
C458 C456 1.327 . S
C458 C477 1.429 . S
C458 H482 0.950 . S
C459 C476 1.574 . S
C459 C478 1.368 . S
C459 H483 0.949 . S
H460 C464 0.949 . S
C461 C462 1.349 . S
C461 C463 1.327 . S
C461 H484 0.950 . S
C462 C461 1.349 . S
C462 C474 1.349 . S
C463 C461 1.327 . S
C463 C479 1.429 . S
C463 H485 0.950 . S
C464 H460 0.949 . S
C464 C472 1.574 . S
C464 C480 1.368 . S
H465 C473 0.950 . S
H466 C471 0.950 . S
H467 C472 0.949 . S
H468 C474 0.950 . S
H469 C475 0.950 . S
H470 C476 0.949 . S
C471 H466 0.950 . S
C471 C473 1.327 . S
C471 C477 1.429 . S
C472 C464 1.574 . S
C472 H467 0.949 . S
C472 C478 1.368 . S
C473 C457 1.349 . S
C473 H465 0.950 . S
C473 C471 1.327 . S
C474 C462 1.349 . S
C474 H468 0.950 . S
C474 C475 1.327 . S
C475 H469 0.950 . S
C475 C474 1.327 . S
C475 C479 1.429 . S
C476 C459 1.574 . S
C476 H470 0.949 . S
C476 C480 1.368 . S
C477 C458 1.429 . S
C477 C471 1.429 . S
C477 C478 1.523 . S
C478 C459 1.368 . S
C478 C472 1.368 . S
C478 C477 1.523 . S
C479 C463 1.429 . S
C479 C475 1.429 . S
C479 C480 1.523 . S
C480 C464 1.368 . S
C480 C476 1.368 . S
C480 C479 1.523 . S
H481 C456 0.950 . S
H482 C458 0.950 . S
H483 C459 0.949 . S
H484 C461 0.950 . S
H485 C463 0.950 . S
C486 C487 1.349 . S
C486 C488 1.327 . S
C486 H511 0.950 . S
C487 C486 1.349 . S
C487 C503 1.349 . S
C488 C486 1.327 . S
C488 C507 1.429 . S
C488 H512 0.950 . S
C489 C506 1.574 . S
C489 C508 1.368 . S
C489 H513 0.949 . S
H490 C494 0.949 . S
C491 C492 1.349 . S
C491 C493 1.327 . S
C491 H514 0.950 . S
C492 C491 1.349 . S
C492 C504 1.349 . S
C493 C491 1.327 . S
C493 C509 1.429 . S
C493 H515 0.950 . S
C494 H490 0.949 . S
C494 C502 1.574 . S
C494 C510 1.368 . S
H495 C503 0.950 . S
H496 C501 0.950 . S
H497 C502 0.949 . S
H498 C504 0.950 . S
H499 C505 0.950 . S
H500 C506 0.949 . S
C501 H496 0.950 . S
C501 C503 1.327 . S
C501 C507 1.429 . S
C502 C494 1.574 . S
C502 H497 0.949 . S
C502 C508 1.368 . S
C503 C487 1.349 . S
C503 H495 0.950 . S
C503 C501 1.327 . S
C504 C492 1.349 . S
C504 H498 0.950 . S
C504 C505 1.327 . S
C505 H499 0.950 . S
C505 C504 1.327 . S
C505 C509 1.429 . S
C506 C489 1.574 . S
C506 H500 0.949 . S
C506 C510 1.368 . S
C507 C488 1.429 . S
C507 C501 1.429 . S
C507 C508 1.523 . S
C508 C489 1.368 . S
C508 C502 1.368 . S
C508 C507 1.523 . S
C509 C493 1.429 . S
C509 C505 1.429 . S
C509 C510 1.523 . S
C510 C494 1.368 . S
C510 C506 1.368 . S
C510 C509 1.523 . S
H511 C486 0.950 . S
H512 C488 0.950 . S
H513 C489 0.949 . S
H514 C491 0.950 . S
H515 C493 0.950 . S
C516 C517 1.349 . S
C516 C518 1.327 . S
C516 H541 0.950 . S
C517 C516 1.349 . S
C517 C533 1.349 . S
C518 C516 1.327 . S
C518 C537 1.429 . S
C518 H542 0.950 . S
C519 C536 1.574 . S
C519 C538 1.368 . S
C519 H543 0.949 . S
H520 C524 0.949 . S
C521 C522 1.349 . S
C521 C523 1.327 . S
C521 H544 0.950 . S
C522 C521 1.349 . S
C522 C534 1.349 . S
C523 C521 1.327 . S
C523 C539 1.429 . S
C523 H545 0.950 . S
C524 H520 0.949 . S
C524 C532 1.574 . S
C524 C540 1.368 . S
H525 C533 0.950 . S
H526 C531 0.950 . S
H527 C532 0.949 . S
H528 C534 0.950 . S
H529 C535 0.950 . S
H530 C536 0.949 . S
C531 H526 0.950 . S
C531 C533 1.327 . S
C531 C537 1.429 . S
C532 C524 1.574 . S
C532 H527 0.949 . S
C532 C538 1.368 . S
C533 C517 1.349 . S
C533 H525 0.950 . S
C533 C531 1.327 . S
C534 C522 1.349 . S
C534 H528 0.950 . S
C534 C535 1.327 . S
C535 H529 0.950 . S
C535 C534 1.327 . S
C535 C539 1.429 . S
C536 C519 1.574 . S
C536 H530 0.949 . S
C536 C540 1.368 . S
C537 C518 1.429 . S
C537 C531 1.429 . S
C537 C538 1.523 . S
C538 C519 1.368 . S
C538 C532 1.368 . S
C538 C537 1.523 . S
C539 C523 1.429 . S
C539 C535 1.429 . S
C539 C540 1.523 . S
C540 C524 1.368 . S
C540 C536 1.368 . S
C540 C539 1.523 . S
H541 C516 0.950 . S
H542 C518 0.950 . S
H543 C519 0.949 . S
H544 C521 0.950 . S
H545 C523 0.950 . S
C546 C547 1.349 . S
C546 C548 1.327 . S
C546 H571 0.950 . S
C547 C546 1.349 . S
C547 C563 1.349 . S
C548 C546 1.327 . S
C548 C567 1.429 . S
C548 H572 0.950 . S
C549 C566 1.574 . S
C549 C568 1.368 . S
C549 H573 0.949 . S
H550 C554 0.949 . S
C551 C552 1.349 . S
C551 C553 1.327 . S
C551 H574 0.950 . S
C552 C551 1.349 . S
C552 C564 1.349 . S
C553 C551 1.327 . S
C553 C569 1.429 . S
C553 H575 0.950 . S
C554 H550 0.949 . S
C554 C562 1.574 . S
C554 C570 1.368 . S
H555 C563 0.950 . S
H556 C561 0.950 . S
H557 C562 0.949 . S
H558 C564 0.950 . S
H559 C565 0.950 . S
H560 C566 0.949 . S
C561 H556 0.950 . S
C561 C563 1.327 . S
C561 C567 1.429 . S
C562 C554 1.574 . S
C562 H557 0.949 . S
C562 C568 1.368 . S
C563 C547 1.349 . S
C563 H555 0.950 . S
C563 C561 1.327 . S
C564 C552 1.349 . S
C564 H558 0.950 . S
C564 C565 1.327 . S
C565 H559 0.950 . S
C565 C564 1.327 . S
C565 C569 1.429 . S
C566 C549 1.574 . S
C566 H560 0.949 . S
C566 C570 1.368 . S
C567 C548 1.429 . S
C567 C561 1.429 . S
C567 C568 1.523 . S
C568 C549 1.368 . S
C568 C562 1.368 . S
C568 C567 1.523 . S
C569 C553 1.429 . S
C569 C565 1.429 . S
C569 C570 1.523 . S
C570 C554 1.368 . S
C570 C566 1.368 . S
C570 C569 1.523 . S
H571 C546 0.950 . S
H572 C548 0.950 . S
H573 C549 0.949 . S
H574 C551 0.950 . S
H575 C553 0.950 . S
C576 C577 1.349 . S
C576 C578 1.327 . S
C576 H601 0.950 . S
C577 C576 1.349 . S
C577 C593 1.349 . S
C578 C576 1.327 . S
C578 C597 1.429 . S
C578 H602 0.950 . S
C579 C596 1.574 . S
C579 C598 1.368 . S
C579 H603 0.949 . S
H580 C584 0.949 . S
C581 C582 1.349 . S
C581 C583 1.327 . S
C581 H604 0.950 . S
C582 C581 1.349 . S
C582 C594 1.349 . S
C583 C581 1.327 . S
C583 C599 1.429 . S
C583 H605 0.950 . S
C584 H580 0.949 . S
C584 C592 1.574 . S
C584 C600 1.368 . S
H585 C593 0.950 . S
H586 C591 0.950 . S
H587 C592 0.949 . S
H588 C594 0.950 . S
H589 C595 0.950 . S
H590 C596 0.949 . S
C591 H586 0.950 . S
C591 C593 1.327 . S
C591 C597 1.429 . S
C592 C584 1.574 . S
C592 H587 0.949 . S
C592 C598 1.368 . S
C593 C577 1.349 . S
C593 H585 0.950 . S
C593 C591 1.327 . S
C594 C582 1.349 . S
C594 H588 0.950 . S
C594 C595 1.327 . S
C595 H589 0.950 . S
C595 C594 1.327 . S
C595 C599 1.429 . S
C596 C579 1.574 . S
C596 H590 0.949 . S
C596 C600 1.368 . S
C597 C578 1.429 . S
C597 C591 1.429 . S
C597 C598 1.523 . S
C598 C579 1.368 . S
C598 C592 1.368 . S
C598 C597 1.523 . S
C599 C583 1.429 . S
C599 C595 1.429 . S
C599 C600 1.523 . S
C600 C584 1.368 . S
C600 C596 1.368 . S
C600 C599 1.523 . S
H601 C576 0.950 . S
H602 C578 0.950 . S
H603 C579 0.949 . S
H604 C581 0.950 . S
H605 C583 0.950 . S
C606 C607 1.349 . S
C606 C608 1.327 . S
C606 H631 0.950 . S
C607 C606 1.349 . S
C607 C623 1.349 . S
C608 C606 1.327 . S
C608 C627 1.429 . S
C608 H632 0.950 . S
C609 C626 1.574 . S
C609 C628 1.368 . S
C609 H633 0.949 . S
H610 C614 0.949 . S
C611 C612 1.349 . S
C611 C613 1.327 . S
C611 H634 0.950 . S
C612 C611 1.349 . S
C612 C624 1.349 . S
C613 C611 1.327 . S
C613 C629 1.429 . S
C613 H635 0.950 . S
C614 H610 0.949 . S
C614 C622 1.574 . S
C614 C630 1.368 . S
H615 C623 0.950 . S
H616 C621 0.950 . S
H617 C622 0.949 . S
H618 C624 0.950 . S
H619 C625 0.950 . S
H620 C626 0.949 . S
C621 H616 0.950 . S
C621 C623 1.327 . S
C621 C627 1.429 . S
C622 C614 1.574 . S
C622 H617 0.949 . S
C622 C628 1.368 . S
C623 C607 1.349 . S
C623 H615 0.950 . S
C623 C621 1.327 . S
C624 C612 1.349 . S
C624 H618 0.950 . S
C624 C625 1.327 . S
C625 H619 0.950 . S
C625 C624 1.327 . S
C625 C629 1.429 . S
C626 C609 1.574 . S
C626 H620 0.949 . S
C626 C630 1.368 . S
C627 C608 1.429 . S
C627 C621 1.429 . S
C627 C628 1.523 . S
C628 C609 1.368 . S
C628 C622 1.368 . S
C628 C627 1.523 . S
C629 C613 1.429 . S
C629 C625 1.429 . S
C629 C630 1.523 . S
C630 C614 1.368 . S
C630 C626 1.368 . S
C630 C629 1.523 . S
H631 C606 0.950 . S
H632 C608 0.950 . S
H633 C609 0.949 . S
H634 C611 0.950 . S
H635 C613 0.950 . S
C636 C637 1.349 . S
C636 C638 1.327 . S
C636 H661 0.950 . S
C637 C636 1.349 . S
C637 C653 1.349 . S
C638 C636 1.327 . S
C638 C657 1.429 . S
C638 H662 0.950 . S
C639 C656 1.574 . S
C639 C658 1.368 . S
C639 H663 0.949 . S
H640 C644 0.949 . S
C641 C642 1.349 . S
C641 C643 1.327 . S
C641 H664 0.950 . S
C642 C641 1.349 . S
C642 C654 1.349 . S
C643 C641 1.327 . S
C643 C659 1.429 . S
C643 H665 0.950 . S
C644 H640 0.949 . S
C644 C652 1.574 . S
C644 C660 1.368 . S
H645 C653 0.950 . S
H646 C651 0.950 . S
H647 C652 0.949 . S
H648 C654 0.950 . S
H649 C655 0.950 . S
H650 C656 0.949 . S
C651 H646 0.950 . S
C651 C653 1.327 . S
C651 C657 1.429 . S
C652 C644 1.574 . S
C652 H647 0.949 . S
C652 C658 1.368 . S
C653 C637 1.349 . S
C653 H645 0.950 . S
C653 C651 1.327 . S
C654 C642 1.349 . S
C654 H648 0.950 . S
C654 C655 1.327 . S
C655 H649 0.950 . S
C655 C654 1.327 . S
C655 C659 1.429 . S
C656 C639 1.574 . S
C656 H650 0.949 . S
C656 C660 1.368 . S
C657 C638 1.429 . S
C657 C651 1.429 . S
C657 C658 1.523 . S
C658 C639 1.368 . S
C658 C652 1.368 . S
C658 C657 1.523 . S
C659 C643 1.429 . S
C659 C655 1.429 . S
C659 C660 1.523 . S
C660 C644 1.368 . S
C660 C656 1.368 . S
C660 C659 1.523 . S
H661 C636 0.950 . S
H662 C638 0.950 . S
H663 C639 0.949 . S
H664 C641 0.950 . S
H665 C643 0.950 . S
C666 C667 1.349 . S
C666 C668 1.327 . S
C666 H691 0.950 . S
C667 C666 1.349 . S
C667 C683 1.349 . S
C668 C666 1.327 . S
C668 C687 1.429 . S
C668 H692 0.950 . S
C669 C686 1.574 . S
C669 C688 1.368 . S
C669 H693 0.949 . S
H670 C674 0.949 . S
C671 C672 1.349 . S
C671 C673 1.327 . S
C671 H694 0.950 . S
C672 C671 1.349 . S
C672 C684 1.349 . S
C673 C671 1.327 . S
C673 C689 1.429 . S
C673 H695 0.950 . S
C674 H670 0.949 . S
C674 C682 1.574 . S
C674 C690 1.368 . S
H675 C683 0.950 . S
H676 C681 0.950 . S
H677 C682 0.949 . S
H678 C684 0.950 . S
H679 C685 0.950 . S
H680 C686 0.949 . S
C681 H676 0.950 . S
C681 C683 1.327 . S
C681 C687 1.429 . S
C682 C674 1.574 . S
C682 H677 0.949 . S
C682 C688 1.368 . S
C683 C667 1.349 . S
C683 H675 0.950 . S
C683 C681 1.327 . S
C684 C672 1.349 . S
C684 H678 0.950 . S
C684 C685 1.327 . S
C685 H679 0.950 . S
C685 C684 1.327 . S
C685 C689 1.429 . S
C686 C669 1.574 . S
C686 H680 0.949 . S
C686 C690 1.368 . S
C687 C668 1.429 . S
C687 C681 1.429 . S
C687 C688 1.523 . S
C688 C669 1.368 . S
C688 C682 1.368 . S
C688 C687 1.523 . S
C689 C673 1.429 . S
C689 C685 1.429 . S
C689 C690 1.523 . S
C690 C674 1.368 . S
C690 C686 1.368 . S
C690 C689 1.523 . S
H691 C666 0.950 . S
H692 C668 0.950 . S
H693 C669 0.949 . S
H694 C671 0.950 . S
H695 C673 0.950 . S
C696 C697 1.349 . S
C696 C698 1.327 . S
C696 H721 0.950 . S
C697 C696 1.349 . S
C697 C713 1.349 . S
C698 C696 1.327 . S
C698 C717 1.429 . S
C698 H722 0.950 . S
C699 C716 1.574 . S
C699 C718 1.368 . S
C699 H723 0.949 . S
H700 C704 0.949 . S
C701 C702 1.349 . S
C701 C703 1.327 . S
C701 H724 0.950 . S
C702 C701 1.349 . S
C702 C714 1.349 . S
C703 C701 1.327 . S
C703 C719 1.429 . S
C703 H725 0.950 . S
C704 H700 0.949 . S
C704 C712 1.574 . S
C704 C720 1.368 . S
H705 C713 0.950 . S
H706 C711 0.950 . S
H707 C712 0.949 . S
H708 C714 0.950 . S
H709 C715 0.950 . S
H710 C716 0.949 . S
C711 H706 0.950 . S
C711 C713 1.327 . S
C711 C717 1.429 . S
C712 C704 1.574 . S
C712 H707 0.949 . S
C712 C718 1.368 . S
C713 C697 1.349 . S
C713 H705 0.950 . S
C713 C711 1.327 . S
C714 C702 1.349 . S
C714 H708 0.950 . S
C714 C715 1.327 . S
C715 H709 0.950 . S
C715 C714 1.327 . S
C715 C719 1.429 . S
C716 C699 1.574 . S
C716 H710 0.949 . S
C716 C720 1.368 . S
C717 C698 1.429 . S
C717 C711 1.429 . S
C717 C718 1.523 . S
C718 C699 1.368 . S
C718 C712 1.368 . S
C718 C717 1.523 . S
C719 C703 1.429 . S
C719 C715 1.429 . S
C719 C720 1.523 . S
C720 C704 1.368 . S
C720 C716 1.368 . S
C720 C719 1.523 . S
H721 C696 0.950 . S
H722 C698 0.950 . S
H723 C699 0.949 . S
H724 C701 0.950 . S
H725 C703 0.950 . S
C726 C727 1.349 . S
C726 C728 1.327 . S
C726 H751 0.950 . S
C727 C726 1.349 . S
C727 C743 1.349 . S
C728 C726 1.327 . S
C728 C747 1.429 . S
C728 H752 0.950 . S
C729 C746 1.574 . S
C729 C748 1.368 . S
C729 H753 0.949 . S
H730 C734 0.949 . S
C731 C732 1.349 . S
C731 C733 1.327 . S
C731 H754 0.950 . S
C732 C731 1.349 . S
C732 C744 1.349 . S
C733 C731 1.327 . S
C733 C749 1.429 . S
C733 H755 0.950 . S
C734 H730 0.949 . S
C734 C742 1.574 . S
C734 C750 1.368 . S
H735 C743 0.950 . S
H736 C741 0.950 . S
H737 C742 0.949 . S
H738 C744 0.950 . S
H739 C745 0.950 . S
H740 C746 0.949 . S
C741 H736 0.950 . S
C741 C743 1.327 . S
C741 C747 1.429 . S
C742 C734 1.574 . S
C742 H737 0.949 . S
C742 C748 1.368 . S
C743 C727 1.349 . S
C743 H735 0.950 . S
C743 C741 1.327 . S
C744 C732 1.349 . S
C744 H738 0.950 . S
C744 C745 1.327 . S
C745 H739 0.950 . S
C745 C744 1.327 . S
C745 C749 1.429 . S
C746 C729 1.574 . S
C746 H740 0.949 . S
C746 C750 1.368 . S
C747 C728 1.429 . S
C747 C741 1.429 . S
C747 C748 1.523 . S
C748 C729 1.368 . S
C748 C742 1.368 . S
C748 C747 1.523 . S
C749 C733 1.429 . S
C749 C745 1.429 . S
C749 C750 1.523 . S
C750 C734 1.368 . S
C750 C746 1.368 . S
C750 C749 1.523 . S
H751 C726 0.950 . S
H752 C728 0.950 . S
H753 C729 0.949 . S
H754 C731 0.950 . S
H755 C733 0.950 . S
C756 C757 1.349 . S
C756 C758 1.327 . S
C756 H781 0.950 . S
C757 C756 1.349 . S
C757 C773 1.349 . S
C758 C756 1.327 . S
C758 C777 1.429 . S
C758 H782 0.950 . S
C759 C776 1.574 . S
C759 C778 1.368 . S
C759 H783 0.949 . S
H760 C764 0.949 . S
C761 C762 1.349 . S
C761 C763 1.327 . S
C761 H784 0.950 . S
C762 C761 1.349 . S
C762 C774 1.349 . S
C763 C761 1.327 . S
C763 C779 1.429 . S
C763 H785 0.950 . S
C764 H760 0.949 . S
C764 C772 1.574 . S
C764 C780 1.368 . S
H765 C773 0.950 . S
H766 C771 0.950 . S
H767 C772 0.949 . S
H768 C774 0.950 . S
H769 C775 0.950 . S
H770 C776 0.949 . S
C771 H766 0.950 . S
C771 C773 1.327 . S
C771 C777 1.429 . S
C772 C764 1.574 . S
C772 H767 0.949 . S
C772 C778 1.368 . S
C773 C757 1.349 . S
C773 H765 0.950 . S
C773 C771 1.327 . S
C774 C762 1.349 . S
C774 H768 0.950 . S
C774 C775 1.327 . S
C775 H769 0.950 . S
C775 C774 1.327 . S
C775 C779 1.429 . S
C776 C759 1.574 . S
C776 H770 0.949 . S
C776 C780 1.368 . S
C777 C758 1.429 . S
C777 C771 1.429 . S
C777 C778 1.523 . S
C778 C759 1.368 . S
C778 C772 1.368 . S
C778 C777 1.523 . S
C779 C763 1.429 . S
C779 C775 1.429 . S
C779 C780 1.523 . S
C780 C764 1.368 . S
C780 C776 1.368 . S
C780 C779 1.523 . S
H781 C756 0.950 . S
H782 C758 0.950 . S
H783 C759 0.949 . S
H784 C761 0.950 . S
H785 C763 0.950 . S
C786 C787 1.349 . S
C786 C788 1.327 . S
C786 H811 0.950 . S
C787 C786 1.349 . S
C787 C803 1.349 . S
C788 C786 1.327 . S
C788 C807 1.429 . S
C788 H812 0.950 . S
C789 C806 1.574 . S
C789 C808 1.368 . S
C789 H813 0.949 . S
H790 C794 0.949 . S
C791 C792 1.349 . S
C791 C793 1.327 . S
C791 H814 0.950 . S
C792 C791 1.349 . S
C792 C804 1.349 . S
C793 C791 1.327 . S
C793 C809 1.429 . S
C793 H815 0.950 . S
C794 H790 0.949 . S
C794 C802 1.574 . S
C794 C810 1.368 . S
H795 C803 0.950 . S
H796 C801 0.950 . S
H797 C802 0.949 . S
H798 C804 0.950 . S
H799 C805 0.950 . S
H800 C806 0.949 . S
C801 H796 0.950 . S
C801 C803 1.327 . S
C801 C807 1.429 . S
C802 C794 1.574 . S
C802 H797 0.949 . S
C802 C808 1.368 . S
C803 C787 1.349 . S
C803 H795 0.950 . S
C803 C801 1.327 . S
C804 C792 1.349 . S
C804 H798 0.950 . S
C804 C805 1.327 . S
C805 H799 0.950 . S
C805 C804 1.327 . S
C805 C809 1.429 . S
C806 C789 1.574 . S
C806 H800 0.949 . S
C806 C810 1.368 . S
C807 C788 1.429 . S
C807 C801 1.429 . S
C807 C808 1.523 . S
C808 C789 1.368 . S
C808 C802 1.368 . S
C808 C807 1.523 . S
C809 C793 1.429 . S
C809 C805 1.429 . S
C809 C810 1.523 . S
C810 C794 1.368 . S
C810 C806 1.368 . S
C810 C809 1.523 . S
H811 C786 0.950 . S
H812 C788 0.950 . S
H813 C789 0.949 . S
H814 C791 0.950 . S
H815 C793 0.950 . S
C816 C817 1.349 . S
C816 C818 1.327 . S
C816 H841 0.950 . S
C817 C816 1.349 . S
C817 C833 1.349 . S
C818 C816 1.327 . S
C818 C837 1.429 . S
C818 H842 0.950 . S
C819 C836 1.574 . S
C819 C838 1.368 . S
C819 H843 0.949 . S
H820 C824 0.949 . S
C821 C822 1.349 . S
C821 C823 1.327 . S
C821 H844 0.950 . S
C822 C821 1.349 . S
C822 C834 1.349 . S
C823 C821 1.327 . S
C823 C839 1.429 . S
C823 H845 0.950 . S
C824 H820 0.949 . S
C824 C832 1.574 . S
C824 C840 1.368 . S
H825 C833 0.950 . S
H826 C831 0.950 . S
H827 C832 0.949 . S
H828 C834 0.950 . S
H829 C835 0.950 . S
H830 C836 0.949 . S
C831 H826 0.950 . S
C831 C833 1.327 . S
C831 C837 1.429 . S
C832 C824 1.574 . S
C832 H827 0.949 . S
C832 C838 1.368 . S
C833 C817 1.349 . S
C833 H825 0.950 . S
C833 C831 1.327 . S
C834 C822 1.349 . S
C834 H828 0.950 . S
C834 C835 1.327 . S
C835 H829 0.950 . S
C835 C834 1.327 . S
C835 C839 1.429 . S
C836 C819 1.574 . S
C836 H830 0.949 . S
C836 C840 1.368 . S
C837 C818 1.429 . S
C837 C831 1.429 . S
C837 C838 1.523 . S
C838 C819 1.368 . S
C838 C832 1.368 . S
C838 C837 1.523 . S
C839 C823 1.429 . S
C839 C835 1.429 . S
C839 C840 1.523 . S
C840 C824 1.368 . S
C840 C836 1.368 . S
C840 C839 1.523 . S
H841 C816 0.950 . S
H842 C818 0.950 . S
H843 C819 0.949 . S
H844 C821 0.950 . S
H845 C823 0.950 . S
C846 C847 1.349 . S
C846 C848 1.327 . S
C846 H871 0.950 . S
C847 C846 1.349 . S
C847 C863 1.349 . S
C848 C846 1.327 . S
C848 C867 1.429 . S
C848 H872 0.950 . S
C849 C866 1.574 . S
C849 C868 1.368 . S
C849 H873 0.949 . S
H850 C854 0.949 . S
C851 C852 1.349 . S
C851 C853 1.327 . S
C851 H874 0.950 . S
C852 C851 1.349 . S
C852 C864 1.349 . S
C853 C851 1.327 . S
C853 C869 1.429 . S
C853 H875 0.950 . S
C854 H850 0.949 . S
C854 C862 1.574 . S
C854 C870 1.368 . S
H855 C863 0.950 . S
H856 C861 0.950 . S
H857 C862 0.949 . S
H858 C864 0.950 . S
H859 C865 0.950 . S
H860 C866 0.949 . S
C861 H856 0.950 . S
C861 C863 1.327 . S
C861 C867 1.429 . S
C862 C854 1.574 . S
C862 H857 0.949 . S
C862 C868 1.368 . S
C863 C847 1.349 . S
C863 H855 0.950 . S
C863 C861 1.327 . S
C864 C852 1.349 . S
C864 H858 0.950 . S
C864 C865 1.327 . S
C865 H859 0.950 . S
C865 C864 1.327 . S
C865 C869 1.429 . S
C866 C849 1.574 . S
C866 H860 0.949 . S
C866 C870 1.368 . S
C867 C848 1.429 . S
C867 C861 1.429 . S
C867 C868 1.523 . S
C868 C849 1.368 . S
C868 C862 1.368 . S
C868 C867 1.523 . S
C869 C853 1.429 . S
C869 C865 1.429 . S
C869 C870 1.523 . S
C870 C854 1.368 . S
C870 C866 1.368 . S
C870 C869 1.523 . S
H871 C846 0.950 . S
H872 C848 0.950 . S
H873 C849 0.949 . S
H874 C851 0.950 . S
H875 C853 0.950 . S
C876 C877 1.349 . S
C876 C878 1.327 . S
C876 H901 0.950 . S
C877 C876 1.349 . S
C877 C893 1.349 . S
C878 C876 1.327 . S
C878 C897 1.429 . S
C878 H902 0.950 . S
C879 C896 1.574 . S
C879 C898 1.368 . S
C879 H903 0.949 . S
H880 C884 0.949 . S
C881 C882 1.349 . S
C881 C883 1.327 . S
C881 H904 0.950 . S
C882 C881 1.349 . S
C882 C894 1.349 . S
C883 C881 1.327 . S
C883 C899 1.429 . S
C883 H905 0.950 . S
C884 H880 0.949 . S
C884 C892 1.574 . S
C884 C900 1.368 . S
H885 C893 0.950 . S
H886 C891 0.950 . S
H887 C892 0.949 . S
H888 C894 0.950 . S
H889 C895 0.950 . S
H890 C896 0.949 . S
C891 H886 0.950 . S
C891 C893 1.327 . S
C891 C897 1.429 . S
C892 C884 1.574 . S
C892 H887 0.949 . S
C892 C898 1.368 . S
C893 C877 1.349 . S
C893 H885 0.950 . S
C893 C891 1.327 . S
C894 C882 1.349 . S
C894 H888 0.950 . S
C894 C895 1.327 . S
C895 H889 0.950 . S
C895 C894 1.327 . S
C895 C899 1.429 . S
C896 C879 1.574 . S
C896 H890 0.949 . S
C896 C900 1.368 . S
C897 C878 1.429 . S
C897 C891 1.429 . S
C897 C898 1.523 . S
C898 C879 1.368 . S
C898 C892 1.368 . S
C898 C897 1.523 . S
C899 C883 1.429 . S
C899 C895 1.429 . S
C899 C900 1.523 . S
C900 C884 1.368 . S
C900 C896 1.368 . S
C900 C899 1.523 . S
H901 C876 0.950 . S
H902 C878 0.950 . S
H903 C879 0.949 . S
H904 C881 0.950 . S
H905 C883 0.950 . S
C906 C907 1.349 . S
C906 C908 1.327 . S
C906 H931 0.950 . S
C907 C906 1.349 . S
C907 C923 1.349 . S
C908 C906 1.327 . S
C908 C927 1.429 . S
C908 H932 0.950 . S
C909 C926 1.574 . S
C909 C928 1.368 . S
C909 H933 0.949 . S
H910 C914 0.949 . S
C911 C912 1.349 . S
C911 C913 1.327 . S
C911 H934 0.950 . S
C912 C911 1.349 . S
C912 C924 1.349 . S
C913 C911 1.327 . S
C913 C929 1.429 . S
C913 H935 0.950 . S
C914 H910 0.949 . S
C914 C922 1.574 . S
C914 C930 1.368 . S
H915 C923 0.950 . S
H916 C921 0.950 . S
H917 C922 0.949 . S
H918 C924 0.950 . S
H919 C925 0.950 . S
H920 C926 0.949 . S
C921 H916 0.950 . S
C921 C923 1.327 . S
C921 C927 1.429 . S
C922 C914 1.574 . S
C922 H917 0.949 . S
C922 C928 1.368 . S
C923 C907 1.349 . S
C923 H915 0.950 . S
C923 C921 1.327 . S
C924 C912 1.349 . S
C924 H918 0.950 . S
C924 C925 1.327 . S
C925 H919 0.950 . S
C925 C924 1.327 . S
C925 C929 1.429 . S
C926 C909 1.574 . S
C926 H920 0.949 . S
C926 C930 1.368 . S
C927 C908 1.429 . S
C927 C921 1.429 . S
C927 C928 1.523 . S
C928 C909 1.368 . S
C928 C922 1.368 . S
C928 C927 1.523 . S
C929 C913 1.429 . S
C929 C925 1.429 . S
C929 C930 1.523 . S
C930 C914 1.368 . S
C930 C926 1.368 . S
C930 C929 1.523 . S
H931 C906 0.950 . S
H932 C908 0.950 . S
H933 C909 0.949 . S
H934 C911 0.950 . S
H935 C913 0.950 . S
C936 C937 1.349 . S
C936 C938 1.327 . S
C936 H961 0.950 . S
C937 C936 1.349 . S
C937 C953 1.349 . S
C938 C936 1.327 . S
C938 C957 1.429 . S
C938 H962 0.950 . S
C939 C956 1.574 . S
C939 C958 1.368 . S
C939 H963 0.949 . S
H940 C944 0.949 . S
C941 C942 1.349 . S
C941 C943 1.327 . S
C941 H964 0.950 . S
C942 C941 1.349 . S
C942 C954 1.349 . S
C943 C941 1.327 . S
C943 C959 1.429 . S
C943 H965 0.950 . S
C944 H940 0.949 . S
C944 C952 1.574 . S
C944 C960 1.368 . S
H945 C953 0.950 . S
H946 C951 0.950 . S
H947 C952 0.949 . S
H948 C954 0.950 . S
H949 C955 0.950 . S
H950 C956 0.949 . S
C951 H946 0.950 . S
C951 C953 1.327 . S
C951 C957 1.429 . S
C952 C944 1.574 . S
C952 H947 0.949 . S
C952 C958 1.368 . S
C953 C937 1.349 . S
C953 H945 0.950 . S
C953 C951 1.327 . S
C954 C942 1.349 . S
C954 H948 0.950 . S
C954 C955 1.327 . S
C955 H949 0.950 . S
C955 C954 1.327 . S
C955 C959 1.429 . S
C956 C939 1.574 . S
C956 H950 0.949 . S
C956 C960 1.368 . S
C957 C938 1.429 . S
C957 C951 1.429 . S
C957 C958 1.523 . S
C958 C939 1.368 . S
C958 C952 1.368 . S
C958 C957 1.523 . S
C959 C943 1.429 . S
C959 C955 1.429 . S
C959 C960 1.523 . S
C960 C944 1.368 . S
C960 C956 1.368 . S
C960 C959 1.523 . S
H961 C936 0.950 . S
H962 C938 0.950 . S
H963 C939 0.949 . S
H964 C941 0.950 . S
H965 C943 0.950 . S
C966 C967 1.349 . S
C966 C968 1.327 . S
C966 H991 0.950 . S
C967 C966 1.349 . S
C967 C983 1.349 . S
C968 C966 1.327 . S
C968 C987 1.429 . S
C968 H992 0.950 . S
C969 C986 1.574 . S
C969 C988 1.368 . S
C969 H993 0.949 . S
H970 C974 0.949 . S
C971 C972 1.349 . S
C971 C973 1.327 . S
C971 H994 0.950 . S
C972 C971 1.349 . S
C972 C984 1.349 . S
C973 C971 1.327 . S
C973 C989 1.429 . S
C973 H995 0.950 . S
C974 H970 0.949 . S
C974 C982 1.574 . S
C974 C990 1.368 . S
H975 C983 0.950 . S
H976 C981 0.950 . S
H977 C982 0.949 . S
H978 C984 0.950 . S
H979 C985 0.950 . S
H980 C986 0.949 . S
C981 H976 0.950 . S
C981 C983 1.327 . S
C981 C987 1.429 . S
C982 C974 1.574 . S
C982 H977 0.949 . S
C982 C988 1.368 . S
C983 C967 1.349 . S
C983 H975 0.950 . S
C983 C981 1.327 . S
C984 C972 1.349 . S
C984 H978 0.950 . S
C984 C985 1.327 . S
C985 H979 0.950 . S
C985 C984 1.327 . S
C985 C989 1.429 . S
C986 C969 1.574 . S
C986 H980 0.949 . S
C986 C990 1.368 . S
C987 C968 1.429 . S
C987 C981 1.429 . S
C987 C988 1.523 . S
C988 C969 1.368 . S
C988 C982 1.368 . S
C988 C987 1.523 . S
C989 C973 1.429 . S
C989 C985 1.429 . S
C989 C990 1.523 . S
C990 C974 1.368 . S
C990 C986 1.368 . S
C990 C989 1.523 . S
H991 C966 0.950 . S
H992 C968 0.950 . S
H993 C969 0.949 . S
H994 C971 0.950 . S
H995 C973 0.950 . S
C996 C997 1.349 . S
C996 C998 1.327 . S
C996 H1021 0.950 . S
C997 C996 1.349 . S
C997 C1013 1.349 . S
C998 C996 1.327 . S
C998 C1017 1.429 . S
C998 H1022 0.950 . S
C999 C1016 1.574 . S
C999 C1018 1.368 . S
C999 H1023 0.949 . S
H1000 C1004 0.949 . S
C1001 C1002 1.349 . S
C1001 C1003 1.327 . S
C1001 H1024 0.950 . S
C1002 C1001 1.349 . S
C1002 C1014 1.349 . S
C1003 C1001 1.327 . S
C1003 C1019 1.429 . S
C1003 H1025 0.950 . S
C1004 H1000 0.949 . S
C1004 C1012 1.574 . S
C1004 C1020 1.368 . S
H1005 C1013 0.950 . S
H1006 C1011 0.950 . S
H1007 C1012 0.949 . S
H1008 C1014 0.950 . S
H1009 C1015 0.950 . S
H1010 C1016 0.949 . S
C1011 H1006 0.950 . S
C1011 C1013 1.327 . S
C1011 C1017 1.429 . S
C1012 C1004 1.574 . S
C1012 H1007 0.949 . S
C1012 C1018 1.368 . S
C1013 C997 1.349 . S
C1013 H1005 0.950 . S
C1013 C1011 1.327 . S
C1014 C1002 1.349 . S
C1014 H1008 0.950 . S
C1014 C1015 1.327 . S
C1015 H1009 0.950 . S
C1015 C1014 1.327 . S
C1015 C1019 1.429 . S
C1016 C999 1.574 . S
C1016 H1010 0.949 . S
C1016 C1020 1.368 . S
C1017 C998 1.429 . S
C1017 C1011 1.429 . S
C1017 C1018 1.523 . S
C1018 C999 1.368 . S
C1018 C1012 1.368 . S
C1018 C1017 1.523 . S
C1019 C1003 1.429 . S
C1019 C1015 1.429 . S
C1019 C1020 1.523 . S
C1020 C1004 1.368 . S
C1020 C1016 1.368 . S
C1020 C1019 1.523 . S
H1021 C996 0.950 . S
H1022 C998 0.950 . S
H1023 C999 0.949 . S
H1024 C1001 0.950 . S
H1025 C1003 0.950 . S
C1026 C1027 1.349 . S
C1026 C1028 1.327 . S
C1026 H1051 0.950 . S
C1027 C1026 1.349 . S
C1027 C1043 1.349 . S
C1028 C1026 1.327 . S
C1028 C1047 1.429 . S
C1028 H1052 0.950 . S
C1029 C1046 1.574 . S
C1029 C1048 1.368 . S
C1029 H1053 0.949 . S
H1030 C1034 0.949 . S
C1031 C1032 1.349 . S
C1031 C1033 1.327 . S
C1031 H1054 0.950 . S
C1032 C1031 1.349 . S
C1032 C1044 1.349 . S
C1033 C1031 1.327 . S
C1033 C1049 1.429 . S
C1033 H1055 0.950 . S
C1034 H1030 0.949 . S
C1034 C1042 1.574 . S
C1034 C1050 1.368 . S
H1035 C1043 0.950 . S
H1036 C1041 0.950 . S
H1037 C1042 0.949 . S
H1038 C1044 0.950 . S
H1039 C1045 0.950 . S
H1040 C1046 0.949 . S
C1041 H1036 0.950 . S
C1041 C1043 1.327 . S
C1041 C1047 1.429 . S
C1042 C1034 1.574 . S
C1042 H1037 0.949 . S
C1042 C1048 1.368 . S
C1043 C1027 1.349 . S
C1043 H1035 0.950 . S
C1043 C1041 1.327 . S
C1044 C1032 1.349 . S
C1044 H1038 0.950 . S
C1044 C1045 1.327 . S
C1045 H1039 0.950 . S
C1045 C1044 1.327 . S
C1045 C1049 1.429 . S
C1046 C1029 1.574 . S
C1046 H1040 0.949 . S
C1046 C1050 1.368 . S
C1047 C1028 1.429 . S
C1047 C1041 1.429 . S
C1047 C1048 1.523 . S
C1048 C1029 1.368 . S
C1048 C1042 1.368 . S
C1048 C1047 1.523 . S
C1049 C1033 1.429 . S
C1049 C1045 1.429 . S
C1049 C1050 1.523 . S
C1050 C1034 1.368 . S
C1050 C1046 1.368 . S
C1050 C1049 1.523 . S
H1051 C1026 0.950 . S
H1052 C1028 0.950 . S
H1053 C1029 0.949 . S
H1054 C1031 0.950 . S
H1055 C1033 0.950 . S
C1056 C1057 1.349 . S
C1056 C1058 1.327 . S
C1056 H1081 0.950 . S
C1057 C1056 1.349 . S
C1057 C1073 1.349 . S
C1058 C1056 1.327 . S
C1058 C1077 1.429 . S
C1058 H1082 0.950 . S
C1059 C1076 1.574 . S
C1059 C1078 1.368 . S
C1059 H1083 0.949 . S
H1060 C1064 0.949 . S
C1061 C1062 1.349 . S
C1061 C1063 1.327 . S
C1061 H1084 0.950 . S
C1062 C1061 1.349 . S
C1062 C1074 1.349 . S
C1063 C1061 1.327 . S
C1063 C1079 1.429 . S
C1063 H1085 0.950 . S
C1064 H1060 0.949 . S
C1064 C1072 1.574 . S
C1064 C1080 1.368 . S
H1065 C1073 0.950 . S
H1066 C1071 0.950 . S
H1067 C1072 0.949 . S
H1068 C1074 0.950 . S
H1069 C1075 0.950 . S
H1070 C1076 0.949 . S
C1071 H1066 0.950 . S
C1071 C1073 1.327 . S
C1071 C1077 1.429 . S
C1072 C1064 1.574 . S
C1072 H1067 0.949 . S
C1072 C1078 1.368 . S
C1073 C1057 1.349 . S
C1073 H1065 0.950 . S
C1073 C1071 1.327 . S
C1074 C1062 1.349 . S
C1074 H1068 0.950 . S
C1074 C1075 1.327 . S
C1075 H1069 0.950 . S
C1075 C1074 1.327 . S
C1075 C1079 1.429 . S
C1076 C1059 1.574 . S
C1076 H1070 0.949 . S
C1076 C1080 1.368 . S
C1077 C1058 1.429 . S
C1077 C1071 1.429 . S
C1077 C1078 1.523 . S
C1078 C1059 1.368 . S
C1078 C1072 1.368 . S
C1078 C1077 1.523 . S
C1079 C1063 1.429 . S
C1079 C1075 1.429 . S
C1079 C1080 1.523 . S
C1080 C1064 1.368 . S
C1080 C1076 1.368 . S
C1080 C1079 1.523 . S
H1081 C1056 0.950 . S
H1082 C1058 0.950 . S
H1083 C1059 0.949 . S
H1084 C1061 0.950 . S
H1085 C1063 0.950 . S
C1086 C1087 1.349 . S
C1086 C1088 1.327 . S
C1086 H1111 0.950 . S
C1087 C1086 1.349 . S
C1087 C1103 1.349 . S
C1088 C1086 1.327 . S
C1088 C1107 1.429 . S
C1088 H1112 0.950 . S
C1089 C1106 1.574 . S
C1089 C1108 1.368 . S
C1089 H1113 0.949 . S
H1090 C1094 0.949 . S
C1091 C1092 1.349 . S
C1091 C1093 1.327 . S
C1091 H1114 0.950 . S
C1092 C1091 1.349 . S
C1092 C1104 1.349 . S
C1093 C1091 1.327 . S
C1093 C1109 1.429 . S
C1093 H1115 0.950 . S
C1094 H1090 0.949 . S
C1094 C1102 1.574 . S
C1094 C1110 1.368 . S
H1095 C1103 0.950 . S
H1096 C1101 0.950 . S
H1097 C1102 0.949 . S
H1098 C1104 0.950 . S
H1099 C1105 0.950 . S
H1100 C1106 0.949 . S
C1101 H1096 0.950 . S
C1101 C1103 1.327 . S
C1101 C1107 1.429 . S
C1102 C1094 1.574 . S
C1102 H1097 0.949 . S
C1102 C1108 1.368 . S
C1103 C1087 1.349 . S
C1103 H1095 0.950 . S
C1103 C1101 1.327 . S
C1104 C1092 1.349 . S
C1104 H1098 0.950 . S
C1104 C1105 1.327 . S
C1105 H1099 0.950 . S
C1105 C1104 1.327 . S
C1105 C1109 1.429 . S
C1106 C1089 1.574 . S
C1106 H1100 0.949 . S
C1106 C1110 1.368 . S
C1107 C1088 1.429 . S
C1107 C1101 1.429 . S
C1107 C1108 1.523 . S
C1108 C1089 1.368 . S
C1108 C1102 1.368 . S
C1108 C1107 1.523 . S
C1109 C1093 1.429 . S
C1109 C1105 1.429 . S
C1109 C1110 1.523 . S
C1110 C1094 1.368 . S
C1110 C1106 1.368 . S
C1110 C1109 1.523 . S
H1111 C1086 0.950 . S
H1112 C1088 0.950 . S
H1113 C1089 0.949 . S
H1114 C1091 0.950 . S
H1115 C1093 0.950 . S
C402 C324 1.518 . S
C397 C16 1.519 . S
C432 C327 1.501 . S
C427 C55 1.503 . S
C462 C325 1.510 . S
C457 C99 1.512 . S
C492 C326 1.499 . S
C487 C138 1.499 . S
C522 C341 1.511 . S
C517 C1 1.513 . S
C552 C355 1.503 . S
C547 C40 1.506 . S
C577 C94 1.507 . S
C582 C381 1.506 . S
C612 C395 1.503 . S
C607 C133 1.505 . S
C642 C340 1.500 . S
C637 C60 1.500 . S
C667 C79 1.514 . S
C672 C354 1.511 . S
C702 C380 1.499 . S
C697 C118 1.500 . S
C732 C394 1.511 . S
C727 C21 1.513 . S
C757 C177 1.503 . S
C762 C339 1.501 . S
C792 C312 1.511 . S
C787 C211 1.513 . S
C817 C255 1.501 . S
C822 C338 1.500 . S
C847 C289 1.517 . S
C852 C313 1.515 . S
C882 C368 1.500 . S
C877 C157 1.501 . S
C912 C382 1.510 . S
C907 C196 1.513 . S
C942 C352 1.503 . S
C937 C250 1.505 . S
C967 C294 1.509 . S
C972 C366 1.507 . S
C1002 C369 1.503 . S
C997 C216 1.504 . S
C1032 C383 1.504 . S
C1027 C235 1.506 . S
C1062 C353 1.510 . S
C1057 C274 1.511 . S
C1087 C172 1.509 . S
C1092 C367 1.507 . S
