# Generated by pormake.
# Topology apo, (3,6)-cn, num edge types: 1
# Building blocks:
#     Node 0, Type 0, BuildingBlock: CUQRIR_clean_linker_1, # of connection points: 3
#     Node 1, Type 0, BuildingBlock: CUQRIR_clean_linker_1, # of connection points: 3
#     Node 2, Type 0, BuildingBlock: CUQRIR_clean_linker_1, # of connection points: 3
#     Node 3, Type 0, BuildingBlock: CUQRIR_clean_linker_1, # of connection points: 3
#     Node 4, Type 0, BuildingBlock: CUQRIR_clean_linker_1, # of connection points: 3
#     Node 5, Type 0, BuildingBlock: CUQRIR_clean_linker_1, # of connection points: 3
#     Node 6, Type 0, BuildingBlock: CUQRIR_clean_linker_1, # of connection points: 3
#     Node 7, Type 0, BuildingBlock: CUQRIR_clean_linker_1, # of connection points: 3
#     Node 8, Type 1, BuildingBlock: KUMJIN_clean_sbu_1, # of connection points: 6
#     Node 9, Type 1, BuildingBlock: KUMJIN_clean_sbu_1, # of connection points: 6
#     Node 10, Type 1, BuildingBlock: KUMJIN_clean_sbu_1, # of connection points: 6
#     Node 11, Type 1, BuildingBlock: KUMJIN_clean_sbu_1, # of connection points: 6
#     Edge 12, Type (0, 1), BuildingBlock: CIFDUS_clean_linker_0, # of connection points: 2
#     Edge 13, Type (0, 1), BuildingBlock: CIFDUS_clean_linker_0, # of connection points: 2
#     Edge 14, Type (0, 1), BuildingBlock: CIFDUS_clean_linker_0, # of connection points: 2
#     Edge 15, Type (0, 1), BuildingBlock: CIFDUS_clean_linker_0, # of connection points: 2
#     Edge 16, Type (0, 1), BuildingBlock: CIFDUS_clean_linker_0, # of connection points: 2
#     Edge 17, Type (0, 1), BuildingBlock: CIFDUS_clean_linker_0, # of connection points: 2
#     Edge 18, Type (0, 1), BuildingBlock: CIFDUS_clean_linker_0, # of connection points: 2
#     Edge 19, Type (0, 1), BuildingBlock: CIFDUS_clean_linker_0, # of connection points: 2
#     Edge 20, Type (0, 1), BuildingBlock: CIFDUS_clean_linker_0, # of connection points: 2
#     Edge 21, Type (0, 1), BuildingBlock: CIFDUS_clean_linker_0, # of connection points: 2
#     Edge 22, Type (0, 1), BuildingBlock: CIFDUS_clean_linker_0, # of connection points: 2
#     Edge 23, Type (0, 1), BuildingBlock: CIFDUS_clean_linker_0, # of connection points: 2
#     Edge 24, Type (0, 1), BuildingBlock: CIFDUS_clean_linker_0, # of connection points: 2
#     Edge 25, Type (0, 1), BuildingBlock: CIFDUS_clean_linker_0, # of connection points: 2
#     Edge 26, Type (0, 1), BuildingBlock: CIFDUS_clean_linker_0, # of connection points: 2
#     Edge 27, Type (0, 1), BuildingBlock: CIFDUS_clean_linker_0, # of connection points: 2
#     Edge 28, Type (0, 1), BuildingBlock: CIFDUS_clean_linker_0, # of connection points: 2
#     Edge 29, Type (0, 1), BuildingBlock: CIFDUS_clean_linker_0, # of connection points: 2
#     Edge 30, Type (0, 1), BuildingBlock: CIFDUS_clean_linker_0, # of connection points: 2
#     Edge 31, Type (0, 1), BuildingBlock: CIFDUS_clean_linker_0, # of connection points: 2
#     Edge 32, Type (0, 1), BuildingBlock: CIFDUS_clean_linker_0, # of connection points: 2
#     Edge 33, Type (0, 1), BuildingBlock: CIFDUS_clean_linker_0, # of connection points: 2
#     Edge 34, Type (0, 1), BuildingBlock: CIFDUS_clean_linker_0, # of connection points: 2
#     Edge 35, Type (0, 1), BuildingBlock: CIFDUS_clean_linker_0, # of connection points: 2
# Relax obj value: 0.044
# Max RMSD: 0.235
# Mean RMSD: 0.183
data_MOF--net-apo--node1-KUMJIN_clean_sbu_1--node2-CUQRIR_clean_linker_1--edge1-CIFDUS_clean_linker_0
_symmetry_space_group_name_H-M    P1
_symmetry_Int_Tables_number       1
_symmetry_cell_setting            triclinic
loop_
_symmetry_equiv_pos_as_xyz
'x, y, z'
_cell_length_a     22.527234
_cell_length_b     34.112281
_cell_length_c     41.973355
_cell_angle_alpha  89.920602
_cell_angle_beta   90.24323
_cell_angle_gamma 90.337733
loop_
_atom_site_label
_atom_site_type_symbol
_atom_site_fract_x
_atom_site_fract_y
_atom_site_fract_z
_atom_type_partial_charge
C0 C 0.31023 0.31712 0.41466 0.0
N1 N 0.3433 0.35028 0.41849 0.0
N2 N 0.30272 0.30886 0.38331 0.0
C3 C 0.28966 0.29082 0.44126 0.0
C4 C 0.33232 0.33796 0.36818 0.0
N5 N 0.35732 0.36282 0.38943 0.0
C6 C 0.33521 0.34285 0.33254 0.0
H7 H 0.28589 0.25999 0.43307 0.0
H8 H 0.24517 0.30044 0.44922 0.0
H9 H 0.32068 0.29226 0.46183 0.0
H10 H 0.29525 0.33016 0.32085 0.0
H11 H 0.37492 0.32735 0.32356 0.0
H12 H 0.33928 0.37419 0.32578 0.0
C13 C 0.21154 0.17597 0.91888 0.0
N14 N 0.18107 0.1415 0.9181 0.0
N15 N 0.22498 0.18805 0.88894 0.0
C16 C 0.22954 0.19722 0.94885 0.0
C17 C 0.20118 0.15992 0.86997 0.0
N18 N 0.17413 0.13189 0.88762 0.0
C19 C 0.20601 0.15916 0.83423 0.0
H20 H 0.23748 0.22882 0.9446 0.0
H21 H 0.27145 0.18444 0.95801 0.0
H22 H 0.19499 0.19382 0.96743 0.0
H23 H 0.21229 0.18915 0.82448 0.0
H24 H 0.16588 0.14571 0.82333 0.0
H25 H 0.24482 0.14112 0.82754 0.0
C26 C 0.71889 0.1632 0.61931 0.0
N27 N 0.74938 0.12941 0.61524 0.0
N28 N 0.70326 0.16766 0.6502 0.0
C29 C 0.70445 0.19177 0.59302 0.0
C30 C 0.72467 0.13522 0.66478 0.0
N31 N 0.75203 0.1116 0.64345 0.0
C32 C 0.71889 0.12656 0.69989 0.0
H33 H 0.67021 0.21319 0.60002 0.0
H34 H 0.68925 0.17577 0.57144 0.0
H35 H 0.74517 0.20845 0.58675 0.0
H36 H 0.70696 0.15271 0.71396 0.0
H37 H 0.76098 0.11441 0.70942 0.0
H38 H 0.68329 0.10441 0.7034 0.0
C39 C 0.76611 0.33141 0.13023 0.0
N40 N 0.72408 0.35883 0.1244 0.0
N41 N 0.77921 0.32967 0.16177 0.0
C42 C 0.79385 0.30612 0.10508 0.0
C43 C 0.74315 0.35673 0.1749 0.0
N44 N 0.70959 0.37434 0.15229 0.0
C45 C 0.73763 0.36426 0.21012 0.0
H46 H 0.76492 0.28019 0.10088 0.0
H47 H 0.83841 0.29593 0.11266 0.0
H48 H 0.79799 0.32229 0.08227 0.0
H49 H 0.77029 0.38713 0.21722 0.0
H50 H 0.74677 0.33727 0.22404 0.0
H51 H 0.69257 0.37489 0.21609 0.0
C52 C 0.71405 0.67283 0.62847 0.0
N53 N 0.68218 0.63921 0.62469 0.0
N54 N 0.72512 0.6797 0.65975 0.0
C55 C 0.72943 0.7009 0.60204 0.0
C56 C 0.69906 0.6491 0.67486 0.0
N57 N 0.67284 0.62466 0.65369 0.0
C58 C 0.69891 0.64305 0.71041 0.0
H59 H 0.77321 0.69279 0.59208 0.0
H60 H 0.73246 0.73143 0.611 0.0
H61 H 0.69591 0.6995 0.58263 0.0
H62 H 0.65755 0.65553 0.72033 0.0
H63 H 0.73755 0.65779 0.72179 0.0
H64 H 0.69974 0.61137 0.7164 0.0
C65 C 0.79628 0.82395 0.12519 0.0
N66 N 0.8252 0.859 0.12433 0.0
N67 N 0.77915 0.81528 0.15531 0.0
C68 C 0.78494 0.79802 0.09684 0.0
C69 C 0.79898 0.84593 0.1728 0.0
N70 N 0.82725 0.87229 0.15409 0.0
C71 C 0.78972 0.85053 0.20807 0.0
H72 H 0.78084 0.76685 0.10402 0.0
H73 H 0.82111 0.80109 0.07913 0.0
H74 H 0.74258 0.8068 0.08538 0.0
H75 H 0.82924 0.86425 0.21941 0.0
H76 H 0.78042 0.82189 0.21964 0.0
H77 H 0.75134 0.87015 0.21199 0.0
C78 C 0.28099 0.83691 0.41622 0.0
N79 N 0.24826 0.86901 0.42348 0.0
N80 N 0.28285 0.83142 0.38421 0.0
C81 C 0.31611 0.81344 0.44002 0.0
C82 C 0.25005 0.86117 0.37236 0.0
N83 N 0.23004 0.88433 0.39603 0.0
C84 C 0.23434 0.8664 0.33767 0.0
H85 H 0.32814 0.83145 0.4611 0.0
H86 H 0.35726 0.80191 0.42915 0.0
H87 H 0.28876 0.78821 0.44812 0.0
H88 H 0.23558 0.83802 0.32481 0.0
H89 H 0.26662 0.88685 0.32651 0.0
H90 H 0.1894 0.87922 0.33507 0.0
C91 C 0.24851 0.67587 0.91434 0.0
N92 N 0.28573 0.64488 0.9169 0.0
N93 N 0.23437 0.68291 0.88341 0.0
C94 C 0.22743 0.69997 0.94211 0.0
C95 C 0.26453 0.65509 0.86717 0.0
N96 N 0.29615 0.63218 0.88749 0.0
C97 C 0.26574 0.65137 0.83132 0.0
H98 H 0.19399 0.72201 0.93501 0.0
H99 H 0.26601 0.71487 0.95344 0.0
H100 H 0.20677 0.68065 0.96022 0.0
H101 H 0.23039 0.66794 0.81914 0.0
H102 H 0.26201 0.62013 0.82423 0.0
H103 H 0.30856 0.6631 0.82239 0.0
Eu104 Eu 0.08758 0.11366 0.23466 0.0
C105 C 0.82628 0.08349 0.27426 0.0
N106 N 0.85949 0.116 0.28083 0.0
C107 C 0.77952 0.15727 0.26384 0.0
C108 C 0.769 0.08683 0.26086 0.0
C109 C 0.83593 0.15254 0.27725 0.0
C110 C 0.74624 0.1243 0.25517 0.0
C111 C 0.81518 0.01254 0.27559 0.0
C112 C 0.84873 0.04669 0.28193 0.0
C113 C 0.75892 0.0158 0.26134 0.0
C114 C 0.73585 0.05281 0.25407 0.0
Eu115 Eu 0.95508 0.10413 0.30219 0.0
N116 N 0.90394 0.04424 0.29506 0.0
C117 C 0.83934 0.97608 0.28361 0.0
C118 C 0.92706 0.00896 0.30379 0.0
C119 C 0.89533 0.97432 0.29797 0.0
H120 H 0.86037 0.17823 0.28483 0.0
H121 H 0.91422 0.94629 0.30438 0.0
H122 H 0.19746 0.04829 0.24156 0.0
H123 H 0.10123 0.27108 0.21137 0.0
H124 H 0.9705 0.00746 0.31454 0.0
H125 H 0.81507 0.94917 0.27894 0.0
H126 H 0.05269 0.20593 0.21411 0.0
H127 H 0.76161 0.18635 0.26039 0.0
H128 H 0.73268 0.98986 0.25607 0.0
H129 H 0.69199 0.05485 0.24352 0.0
H130 H 0.30642 0.04822 0.24959 0.0
H131 H 0.70245 0.12808 0.24488 0.0
H132 H 0.20826 0.2777 0.22402 0.0
N133 N 0.19154 0.11041 0.24081 0.0
C134 C 0.22131 0.14513 0.24061 0.0
C135 C 0.28299 0.07569 0.24732 0.0
C136 C 0.28343 0.14651 0.24481 0.0
C137 C 0.2214 0.07583 0.24297 0.0
C138 C 0.31408 0.11122 0.24865 0.0
N139 N 0.13028 0.17688 0.23025 0.0
C140 C 0.099 0.20883 0.22024 0.0
C141 C 0.2197 0.21572 0.23332 0.0
C142 C 0.18986 0.17933 0.235 0.0
C143 C 0.18697 0.2492 0.22554 0.0
C144 C 0.12653 0.2456 0.21844 0.0
H145 H 0.36181 0.11103 0.25194 0.0
H146 H 0.36068 0.18454 0.24785 0.0
H147 H 0.30487 0.24513 0.2378 0.0
O148 O 0.0511 0.12103 0.1868 0.0
O149 O 0.08485 0.16141 0.27195 0.0
O150 O 0.03988 0.13562 0.31715 0.0
O151 O 0.13566 0.0924 0.1928 0.0
O152 O 0.99223 0.13268 0.22862 0.0
O153 O 0.96401 0.1612 0.27504 0.0
O154 O 0.94221 0.08199 0.35047 0.0
O155 O 0.95274 0.07075 0.2548 0.0
O156 O 0.04885 0.05374 0.24324 0.0
O157 O 0.90581 0.1382 0.33744 0.0
O158 O 0.03596 0.06857 0.31472 0.0
O159 O 0.11056 0.07171 0.27565 0.0
C160 C 0.07886 0.15859 0.303 0.0
C161 C 0.08093 0.07795 0.14573 0.0
C162 C 0.09211 0.06274 0.08914 0.0
C163 C 0.04991 0.03247 0.0924 0.0
C164 C 0.0392 0.04755 0.14858 0.0
C165 C 0.02398 0.02482 0.12204 0.0
C166 C 0.10752 0.08522 0.11609 0.0
C167 C 0.96789 0.16183 0.24387 0.0
C168 C 0.09534 0.10394 0.17267 0.0
C169 C 0.31305 0.18287 0.24437 0.0
C170 C 0.28126 0.21739 0.23866 0.0
C171 C 0.99179 0.04624 0.24294 0.0
C172 C 0.85853 0.10285 0.37917 0.0
C173 C 0.8125 0.09921 0.43186 0.0
C174 C 0.76047 0.08442 0.41743 0.0
C175 C 0.80632 0.08808 0.36535 0.0
C176 C 0.86155 0.1082 0.41233 0.0
C177 C 0.75759 0.07888 0.38445 0.0
C178 C 0.08891 0.0599 0.30353 0.0
C179 C 0.91108 0.11182 0.35975 0.0
H180 H 0.03731 0.01462 0.07212 0.0
H181 H 0.01799 0.04181 0.17113 0.0
H182 H 0.99159 1.00142 0.12438 0.0
H183 H 0.13904 0.10921 0.11383 0.0
H184 H 0.72147 0.07787 0.4315 0.0
H185 H 0.80324 0.08362 0.33992 0.0
H186 H 0.90243 0.11907 0.4229 0.0
H187 H 0.71726 0.06763 0.37364 0.0
Eu188 Eu 0.42259 0.38548 0.74164 0.0
C189 C 0.63785 0.47308 0.80197 0.0
N190 N 0.63588 0.43395 0.79661 0.0
C191 C 0.73209 0.43668 0.77248 0.0
C192 C 0.68583 0.49613 0.79117 0.0
C193 C 0.68338 0.41514 0.78368 0.0
C194 C 0.73267 0.4775 0.77554 0.0
C195 C 0.59794 0.52892 0.8299 0.0
C196 C 0.59441 0.4892 0.82086 0.0
C197 C 0.64288 0.55291 0.8171 0.0
C198 C 0.68679 0.53651 0.7977 0.0
Eu199 Eu 0.54861 0.40041 0.81249 0.0
N200 N 0.55255 0.46494 0.83324 0.0
C201 C 0.55841 0.54264 0.85293 0.0
C202 C 0.51794 0.47709 0.85787 0.0
C203 C 0.51945 0.51631 0.86767 0.0
H204 H 0.68245 0.38368 0.78101 0.0
H205 H 0.49045 0.52621 0.88647 0.0
H206 H 0.32638 0.45894 0.75962 0.0
H207 H 0.37114 0.22953 0.73386 0.0
H208 H 0.48803 0.45667 0.86939 0.0
H209 H 0.55961 0.57296 0.8606 0.0
H210 H 0.42574 0.29111 0.72185 0.0
H211 H 0.76886 0.42185 0.76129 0.0
H212 H 0.6457 0.5837 0.82325 0.0
H213 H 0.72268 0.55493 0.7891 0.0
H214 H 0.23468 0.46755 0.79041 0.0
H215 H 0.7704 0.49414 0.76686 0.0
H216 H 0.2821 0.23128 0.76824 0.0
N217 N 0.32954 0.39707 0.76673 0.0
C218 C 0.29847 0.36488 0.77618 0.0
C219 C 0.25262 0.43849 0.78704 0.0
C220 C 0.24471 0.36829 0.79303 0.0
C221 C 0.30532 0.43349 0.77005 0.0
C222 C 0.22282 0.40579 0.79921 0.0
N223 N 0.36869 0.32655 0.74952 0.0
C224 C 0.38657 0.2919 0.73656 0.0
C225 C 0.28569 0.29428 0.77441 0.0
C226 C 0.3183 0.32845 0.7669 0.0
C227 C 0.30569 0.25824 0.76283 0.0
C228 C 0.35589 0.25713 0.74341 0.0
H229 H 0.18171 0.40971 0.81209 0.0
H230 H 0.17259 0.33629 0.81544 0.0
H231 H 0.20877 0.27135 0.79925 0.0
O232 O 0.4422 0.37252 0.69193 0.0
O233 O 0.44818 0.33904 0.77785 0.0
O234 O 0.45819 0.37425 0.82337 0.0
O235 O 0.35974 0.40024 0.70339 0.0
O236 O 0.50758 0.3519 0.73277 0.0
O237 O 0.57171 0.35203 0.7772 0.0
O238 O 0.59157 0.40161 0.85972 0.0
O239 O 0.57053 0.41747 0.76098 0.0
O240 O 0.48188 0.43915 0.74024 0.0
O241 O 0.57889 0.34602 0.83479 0.0
O242 O 0.45435 0.42314 0.81744 0.0
O243 O 0.42943 0.44425 0.7674 0.0
C244 C 0.44002 0.34269 0.8085 0.0
C245 C 0.40258 0.41456 0.65319 0.0
C246 C 0.39541 0.42587 0.59579 0.0
C247 C 0.42775 0.46093 0.59957 0.0
C248 C 0.43404 0.44991 0.65654 0.0
C249 C 0.44648 0.47297 0.62983 0.0
C250 C 0.38273 0.40285 0.62284 0.0
C251 C 0.55514 0.33977 0.7485 0.0
C252 C 0.3942 0.38828 0.68066 0.0
C253 C 0.21347 0.33427 0.80205 0.0
C254 C 0.23391 0.29731 0.79273 0.0
C255 C 0.54014 0.43957 0.7411 0.0
C256 C 0.62551 0.34255 0.88729 0.0
C257 C 0.65583 0.33896 0.94326 0.0
C258 C 0.66886 0.29908 0.93919 0.0
C259 C 0.63935 0.30268 0.88384 0.0
C260 C 0.63479 0.36085 0.9171 0.0
C261 C 0.66112 0.28121 0.90961 0.0
C262 C 0.43177 0.44971 0.79842 0.0
C263 C 0.59767 0.36376 0.86039 0.0
H264 H 0.438 0.47916 0.57914 0.0
H265 H 0.44961 0.4593 0.67972 0.0
H266 H 0.47117 0.5001 0.63257 0.0
H267 H 0.35897 0.37531 0.62015 0.0
H268 H 0.68542 0.2818 0.95897 0.0
H269 H 0.63271 0.28788 0.86127 0.0
H270 H 0.62395 0.39151 0.92026 0.0
H271 H 0.67147 0.25048 0.90672 0.0
Eu272 Eu 0.04967 0.9029 0.73692 0.0
C273 C 0.78646 0.86049 0.80251 0.0
N274 N 0.81828 0.8944 0.8035 0.0
C275 C 0.72871 0.93183 0.80135 0.0
C276 C 0.72407 0.86099 0.79983 0.0
C277 C 0.79053 0.92981 0.80413 0.0
C278 C 0.69538 0.89729 0.79872 0.0
C279 C 0.7842 0.78955 0.80708 0.0
C280 C 0.81611 0.82521 0.80607 0.0
C281 C 0.7223 0.78978 0.80293 0.0
C282 C 0.69231 0.82541 0.79929 0.0
Eu283 Eu 0.92226 0.88795 0.80607 0.0
N284 N 0.87598 0.82589 0.8099 0.0
C285 C 0.81533 0.75489 0.81315 0.0
C286 C 0.90573 0.79282 0.8186 0.0
C287 C 0.87623 0.75665 0.81957 0.0
H288 H 0.81634 0.95653 0.80632 0.0
H289 H 0.90031 0.73026 0.82553 0.0
H290 H 0.15181 0.83506 0.75876 0.0
H291 H 0.06893 0.06249 0.73287 0.0
H292 H 0.95219 0.79447 0.82455 0.0
H293 H 0.79247 0.72689 0.81407 0.0
H294 H 0.02123 0.99821 0.72357 0.0
H295 H 0.70684 0.95999 0.80122 0.0
H296 H 0.69708 0.76264 0.80324 0.0
H297 H 0.6444 0.82519 0.7969 0.0
H298 H 0.24977 0.8335 0.78477 0.0
H299 H 0.6475 0.89893 0.79668 0.0
H300 H 0.16782 0.06597 0.75859 0.0
N301 N 0.14504 0.89729 0.7602 0.0
C302 C 0.17404 0.93174 0.76589 0.0
C303 C 0.22867 0.86133 0.77994 0.0
C304 C 0.23087 0.93215 0.78014 0.0
C305 C 0.17249 0.86234 0.7657 0.0
C306 C 0.2577 0.89635 0.78756 0.0
N307 N 0.09219 0.96576 0.74356 0.0
C308 C 0.06449 0.99938 0.73443 0.0
C309 C 0.17599 1.00296 0.76302 0.0
C310 C 0.14717 0.96686 0.7571 0.0
C311 C 0.14729 0.03766 0.75425 0.0
C312 C 0.09143 0.03583 0.73976 0.0
H313 H 0.3013 0.89544 0.79852 0.0
H314 H 0.30286 0.96892 0.79742 0.0
H315 H 0.25459 0.03085 0.78273 0.0
O316 O 0.06141 0.92524 0.6886 0.0
O317 O 0.05061 0.9315 0.78647 0.0
O318 O 0.9556 0.94919 0.79825 0.0
O319 O 0.10428 0.87136 0.70237 0.0
O320 O 0.96467 0.93461 0.72512 0.0
O321 O 0.8953 0.93152 0.76686 0.0
O322 O 0.97105 0.8861 0.8511 0.0
O323 O 0.9212 0.84195 0.76742 0.0
O324 O 0.96657 0.86875 0.72244 0.0
O325 O 0.87726 0.89916 0.85136 0.0
O326 O 0.01671 0.86482 0.80784 0.0
O327 O 0.045 0.84266 0.75915 0.0
C328 C 0.01236 0.95725 0.79731 0.0
C329 C 0.1477 0.90817 0.66025 0.0
C330 C 0.19628 0.90895 0.60813 0.0
C331 C 0.24292 0.93121 0.62149 0.0
C332 C 0.19466 0.93025 0.67305 0.0
C333 C 0.24201 0.94168 0.65369 0.0
C334 C 0.14865 0.89761 0.62788 0.0
C335 C 0.91295 0.9429 0.73806 0.0
C336 C 0.09616 0.89699 0.67975 0.0
C337 C 0.2594 0.96809 0.78627 0.0
C338 C 0.232 0.00338 0.7778 0.0
C339 C 0.92861 0.84472 0.73643 0.0
C340 C 0.9341 0.92118 0.89573 0.0
C341 C 0.91781 0.93483 0.95225 0.0
C342 C 0.95537 0.96775 0.94977 0.0
C343 C 0.97099 0.95431 0.89366 0.0
C344 C 0.90729 0.91179 0.92495 0.0
C345 C 0.98141 0.97751 0.92057 0.0
C346 C 0.03749 0.83688 0.78973 0.0
C347 C 0.92502 0.89463 0.86845 0.0
H348 H 0.28067 0.93996 0.6072 0.0
H349 H 0.19459 0.93877 0.69784 0.0
H350 H 0.27826 0.95868 0.66371 0.0
H351 H 0.11176 0.88099 0.61802 0.0
H352 H 0.96411 0.98612 0.97032 0.0
H353 H 0.99215 0.96192 0.87143 0.0
H354 H 0.87942 0.88584 0.92662 0.0
H355 H 0.0101 1.003 0.91885 0.0
Eu356 Eu 0.44402 0.60843 0.23861 0.0
C357 C 0.69489 0.66744 0.28127 0.0
N358 N 0.67988 0.62916 0.28536 0.0
C359 C 0.77622 0.60934 0.2679 0.0
C360 C 0.75107 0.67813 0.26924 0.0
C361 C 0.71989 0.60021 0.27976 0.0
C362 C 0.79168 0.64846 0.26227 0.0
C363 C 0.66869 0.73602 0.28585 0.0
C364 C 0.65391 0.69597 0.28929 0.0
C365 C 0.72378 0.74678 0.27282 0.0
C366 C 0.76493 0.71792 0.26461 0.0
Eu367 Eu 0.58245 0.61581 0.30254 0.0
N368 N 0.60056 0.68462 0.30149 0.0
C369 C 0.62834 0.76405 0.2965 0.0
C370 C 0.56465 0.71177 0.31523 0.0
C371 C 0.57681 0.75184 0.31204 0.0
H372 H 0.70817 0.56995 0.28431 0.0
H373 H 0.54711 0.77322 0.32223 0.0
H374 H 0.3671 0.69199 0.24426 0.0
H375 H 0.36791 0.45652 0.24685 0.0
H376 H 0.52803 0.70285 0.32986 0.0
H377 H 0.63794 0.7951 0.29426 0.0
H378 H 0.43906 0.51024 0.23531 0.0
H379 H 0.80761 0.58622 0.26306 0.0
H380 H 0.73547 0.77739 0.26959 0.0
H381 H 0.80755 0.72668 0.25499 0.0
H382 H 0.26716 0.71324 0.26109 0.0
H383 H 0.83525 0.65546 0.25294 0.0
H384 H 0.26669 0.47209 0.26554 0.0
N385 N 0.34856 0.63147 0.25128 0.0
C386 C 0.30739 0.60376 0.25884 0.0
C387 C 0.27795 0.68238 0.26063 0.0
C388 C 0.24966 0.61446 0.26812 0.0
C389 C 0.33448 0.67031 0.2513 0.0
C390 C 0.23545 0.65435 0.26928 0.0
N391 N 0.37887 0.5552 0.24786 0.0
C392 C 0.39482 0.51711 0.24318 0.0
C393 C 0.28073 0.53493 0.26359 0.0
C394 C 0.32269 0.56449 0.25665 0.0
C395 C 0.29759 0.49567 0.26033 0.0
C396 C 0.35471 0.48675 0.24978 0.0
H397 H 0.19163 0.66379 0.27642 0.0
H398 H 0.16347 0.59277 0.28301 0.0
H399 H 0.19066 0.52316 0.27901 0.0
O400 O 0.46793 0.59246 0.18997 0.0
O401 O 0.43344 0.57502 0.28513 0.0
O402 O 0.527 0.5602 0.30507 0.0
O403 O 0.38828 0.62583 0.19822 0.0
O404 O 0.51883 0.56528 0.23028 0.0
O405 O 0.59602 0.56544 0.26829 0.0
O406 O 0.59654 0.63261 0.35232 0.0
O407 O 0.59511 0.63375 0.25054 0.0
O408 O 0.50542 0.66115 0.23834 0.0
O409 O 0.63903 0.58104 0.33427 0.0
O410 O 0.4897 0.6356 0.31642 0.0
O411 O 0.45957 0.66167 0.26909 0.0
C412 C 0.46922 0.5548 0.30366 0.0
C413 C 0.43491 0.63372 0.14828 0.0
C414 C 0.41847 0.64561 0.09132 0.0
C415 C 0.4574 0.67801 0.09327 0.0
C416 C 0.47333 0.66611 0.14959 0.0
C417 C 0.48456 0.68806 0.12216 0.0
C418 C 0.40765 0.62352 0.11919 0.0
C419 C 0.56975 0.55259 0.24196 0.0
C420 C 0.42277 0.61024 0.17697 0.0
C421 C 0.20798 0.58511 0.27568 0.0
C422 C 0.22345 0.54546 0.27338 0.0
C423 C 0.56321 0.6594 0.23471 0.0
C424 C 0.60967 0.58062 0.38846 0.0
C425 C 0.61223 0.57289 0.4465 0.0
C426 C 0.57008 0.54246 0.44385 0.0
C427 C 0.5677 0.5502 0.38656 0.0
C428 C 0.63203 0.59182 0.4185 0.0
C429 C 0.54815 0.5312 0.41407 0.0
C430 C 0.45358 0.65797 0.29995 0.0
C431 C 0.62795 0.60196 0.35943 0.0
H432 H 0.46592 0.69621 0.07261 0.0
H433 H 0.49443 0.67441 0.17179 0.0
H434 H 0.51408 0.71318 0.12335 0.0
H435 H 0.37829 0.59825 0.1183 0.0
H436 H 0.55449 0.52704 0.46482 0.0
H437 H 0.54989 0.54133 0.36381 0.0
H438 H 0.66378 0.61575 0.42008 0.0
H439 H 0.51576 0.50772 0.41228 0.0
H440 H 0.27488 0.94681 0.36721 0.0
H441 H 0.1175 0.90188 0.41208 0.0
H442 H 0.05906 0.95588 0.38923 0.0
H443 H 0.05157 0.00986 0.35038 0.0
H444 H 0.20945 0.05201 0.30335 0.0
H445 H 0.26926 0.00482 0.33267 0.0
C446 C 0.22808 0.94979 0.37262 0.0
C447 C 0.20008 0.92089 0.39113 0.0
C448 C 0.19489 0.97948 0.35813 0.0
C449 C 0.1396 0.92428 0.3981 0.0
C450 C 0.10632 0.95471 0.38464 0.0
C451 C 0.09903 0.00883 0.34649 0.0
C452 C 0.12559 0.03333 0.32341 0.0
C453 C 0.13314 0.98149 0.36354 0.0
C454 C 0.18742 0.03223 0.31957 0.0
C455 C 0.2218 0.00564 0.33677 0.0
H456 H 0.38017 0.6225 0.84252 0.0
H457 H 0.27968 0.56123 0.91413 0.0
H458 H 0.31428 0.49823 0.89333 0.0
H459 H 0.36548 0.46063 0.85133 0.0
H460 H 0.45531 0.52251 0.77587 0.0
H461 H 0.42958 0.58535 0.80018 0.0
C462 C 0.3654 0.59532 0.8533 0.0
C463 C 0.32629 0.59636 0.87929 0.0
C464 C 0.38204 0.55942 0.83983 0.0
C465 C 0.30981 0.56105 0.8941 0.0
C466 C 0.32879 0.5251 0.88189 0.0
C467 C 0.37896 0.48799 0.84023 0.0
C468 C 0.41191 0.48724 0.81188 0.0
C469 C 0.36335 0.52392 0.85415 0.0
C470 C 0.42921 0.52261 0.79749 0.0
C471 C 0.4151 0.55843 0.81157 0.0
H472 H 0.71091 0.55142 0.66285 0.0
H473 H 0.55718 0.62512 0.667 0.0
H474 H 0.50031 0.57264 0.69284 0.0
H475 H 0.49793 0.50853 0.71897 0.0
H476 H 0.65298 0.43513 0.71766 0.0
H477 H 0.70664 0.48481 0.68673 0.0
C478 C 0.66439 0.55515 0.66856 0.0
C479 C 0.63715 0.59122 0.66207 0.0
C480 C 0.63312 0.52543 0.68477 0.0
C481 C 0.57781 0.59689 0.67074 0.0
C482 C 0.54582 0.56718 0.68593 0.0
C483 C 0.54325 0.50317 0.7116 0.0
C484 C 0.57185 0.46849 0.72103 0.0
C485 C 0.57349 0.53171 0.69376 0.0
C486 C 0.6306 0.46207 0.71139 0.0
C487 C 0.66102 0.49027 0.69342 0.0
H488 H 0.93464 0.88263 0.17939 0.0
H489 H 0.77372 0.94226 0.1542 0.0
H490 H 0.81023 1.00246 0.1801 0.0
H491 H 0.88692 0.03674 0.21172 0.0
H492 H 0.04933 0.97704 0.23583 0.0
H493 H 0.01398 0.91814 0.20832 0.0
C494 C 0.90858 0.90926 0.17908 0.0
C495 C 0.85236 0.90879 0.16467 0.0
C496 C 0.92994 0.94333 0.19401 0.0
C497 C 0.81766 0.94271 0.16476 0.0
C498 C 0.83834 0.97679 0.17973 0.0
C499 C 0.91442 0.01076 0.21101 0.0
C500 C 0.97034 0.01096 0.22604 0.0
C501 C 0.89413 0.97725 0.1948 0.0
C502 C 0.00607 0.97745 0.22446 0.0
C503 C 0.98591 0.94382 0.20876 0.0
H504 H 0.71387 0.04819 0.67569 0.0
H505 H 0.86617 0.09779 0.62865 0.0
H506 H 0.92935 0.0465 0.65138 0.0
H507 H 0.94272 0.99295 0.68974 0.0
H508 H 0.79201 0.94809 0.74152 0.0
H509 H 0.72673 0.99273 0.71269 0.0
C510 C 0.7609 0.0476 0.67046 0.0
C511 C 0.78573 0.07699 0.65106 0.0
C512 C 0.79729 0.01962 0.68522 0.0
C513 C 0.84622 0.07532 0.64345 0.0
C514 C 0.88236 0.04636 0.65681 0.0
C515 C 0.89579 0.99309 0.69507 0.0
C516 C 0.87285 0.96838 0.71907 0.0
C517 C 0.85872 0.0193 0.67867 0.0
C518 C 0.81136 0.96806 0.72447 0.0
C519 C 0.77385 0.99322 0.70759 0.0
H520 H 0.74948 0.4437 0.17024 0.0
H521 H 0.58989 0.37926 0.14903 0.0
H522 H 0.5299 0.43116 0.17349 0.0
H523 H 0.52529 0.49105 0.20705 0.0
H524 H 0.68778 0.55158 0.23114 0.0
H525 H 0.74468 0.50494 0.20021 0.0
C526 C 0.70138 0.44189 0.17017 0.0
C527 C 0.67376 0.40837 0.15762 0.0
C528 C 0.66817 0.47043 0.18588 0.0
C529 C 0.61168 0.40538 0.15801 0.0
C530 C 0.5777 0.43468 0.1725 0.0
C531 C 0.57309 0.49392 0.20551 0.0
C532 C 0.6026 0.52389 0.22252 0.0
C533 C 0.60573 0.46665 0.18759 0.0
C534 C 0.66441 0.52773 0.21971 0.0
C535 C 0.69689 0.50144 0.20151 0.0
H536 H 0.31284 0.43434 0.38163 0.0
H537 H 0.47297 0.36713 0.37567 0.0
H538 H 0.52441 0.42236 0.35009 0.0
H539 H 0.52003 0.48723 0.32452 0.0
H540 H 0.35707 0.55289 0.32732 0.0
H541 H 0.30983 0.50084 0.35831 0.0
C542 C 0.35949 0.43261 0.37556 0.0
C543 C 0.39004 0.39761 0.38126 0.0
C544 C 0.38752 0.46376 0.35953 0.0
C545 C 0.44966 0.3945 0.37225 0.0
C546 C 0.47858 0.42578 0.35728 0.0
C547 C 0.47447 0.49034 0.33233 0.0
C548 C 0.44212 0.52381 0.32362 0.0
C549 C 0.44748 0.46019 0.35005 0.0
C550 C 0.3828 0.52723 0.33349 0.0
C551 C 0.35584 0.4976 0.35139 0.0
H552 H 0.06826 0.12176 0.86 0.0
H553 H 0.22779 0.06202 0.88757 0.0
H554 H 0.19243 1.00178 0.8613 0.0
H555 H 0.11673 0.96714 0.82921 0.0
H556 H 0.95558 0.02681 0.80282 0.0
H557 H 0.9903 0.08612 0.82998 0.0
C558 C 0.09444 0.09519 0.86054 0.0
C559 C 0.15001 0.09568 0.87568 0.0
C560 C 0.07367 0.061 0.84546 0.0
C561 C 0.18452 0.06166 0.87623 0.0
C562 C 0.16446 0.02752 0.8611 0.0
C563 C 0.08942 0.99321 0.82932 0.0
C564 C 0.03397 0.99284 0.81379 0.0
C565 C 0.10933 0.02699 0.84535 0.0
C566 C 0.99846 0.02651 0.8146 0.0
C567 C 0.01828 0.06039 0.83009 0.0
H568 H 0.24147 0.11734 0.96981 0.0
H569 H 0.06785 0.11798 0.92674 0.0
H570 H 0.02507 0.0893 0.97513 0.0
H571 H 0.03584 0.07092 0.03183 0.0
H572 H 0.20902 0.07532 0.07595 0.0
H573 H 0.25311 0.09607 0.02552 0.0
C574 C 0.19431 0.11116 0.97116 0.0
C575 C 0.15765 0.12009 0.945 0.0
C576 C 0.16992 0.09623 0.99947 0.0
C577 C 0.09686 0.11107 0.94656 0.0
C578 C 0.0724 0.09509 0.97433 0.0
C579 C 0.08334 0.07585 0.03024 0.0
C580 C 0.11907 0.07185 0.05766 0.0
C581 C 0.10827 0.08851 1.00125 0.0
C582 C 0.18049 0.07869 0.0553 0.0
C583 C 0.20575 0.09044 0.02645 0.0
H584 H 0.27339 0.36697 0.46838 0.0
H585 H 0.45426 0.37245 0.43594 0.0
H586 H 0.48591 0.39941 0.48723 0.0
H587 H 0.46291 0.41769 0.54271 0.0
H588 H 0.28373 0.40515 0.57701 0.0
H589 H 0.25072 0.38354 0.52416 0.0
C590 C 0.31973 0.37393 0.47268 0.0
C591 C 0.36132 0.36814 0.44825 0.0
C592 C 0.33793 0.38758 0.5028 0.0
C593 C 0.42114 0.37769 0.45396 0.0
C594 C 0.43936 0.39256 0.48349 0.0
C595 C 0.4166 0.41042 0.53847 0.0
C596 C 0.37571 0.41306 0.56362 0.0
C597 C 0.39826 0.3972 0.50822 0.0
C598 C 0.31598 0.40312 0.55802 0.0
C599 C 0.29711 0.39091 0.52781 0.0
H600 H 0.75951 0.39988 0.07323 0.0
H601 H 0.62092 0.32507 0.10907 0.0
H602 H 0.58126 0.31621 0.05509 0.0
H603 H 0.5966 0.32118 0.99718 0.0
H604 H 0.73616 0.39509 0.96062 0.0
H605 H 0.76494 0.41346 1.0151 0.0
C606 C 0.71934 0.38296 0.06909 0.0
C607 C 0.69249 0.3634 0.09481 0.0
C608 C 0.69793 0.3773 0.03783 0.0
C609 C 0.64127 0.34081 0.0895 0.0
C610 C 0.61924 0.33538 0.05865 0.0
C611 C 0.63229 0.34211 1.00125 0.0
C612 C 0.66451 0.35669 0.97515 0.0
C613 C 0.64867 0.35218 0.03254 0.0
C614 C 0.71071 0.38371 0.98046 0.0
C615 C 0.72733 0.39396 1.01158 0.0
H616 H 0.82234 0.16352 0.57305 0.0
H617 H 0.71726 0.06 0.58988 0.0
H618 H 0.73201 0.03907 0.53452 0.0
H619 H 0.76558 0.0544 0.47997 0.0
H620 H 0.86397 0.16135 0.46279 0.0
H621 H 0.8611 0.17686 0.51939 0.0
C622 C 0.80318 0.13626 0.56449 0.0
C623 C 0.7681 0.11352 0.58512 0.0
C624 C 0.81006 0.12537 0.53247 0.0
C625 C 0.74452 0.07779 0.57428 0.0
C626 C 0.75244 0.06614 0.5426 0.0
C627 C 0.78638 0.08112 0.48857 0.0
C628 C 0.81458 0.10676 0.4669 0.0
C629 C 0.78347 0.09039 0.5212 0.0
C630 C 0.84242 0.14082 0.47875 0.0
C631 C 0.84049 0.1499 0.51118 0.0
H632 H 0.76735 0.87531 0.06991 0.0
H633 H 0.93739 0.88558 0.11631 0.0
H634 H 0.9804 0.91363 0.0678 0.0
H635 H 0.97128 0.93004 1.01061 0.0
H636 H 0.80239 0.91485 0.9633 0.0
H637 H 0.75757 0.89299 1.01324 0.0
C638 C 0.81382 0.88367 0.06926 0.0
C639 C 0.8492 0.87843 0.09658 0.0
C640 C 0.83857 0.89831 0.04092 0.0
C641 C 0.9091 0.88995 0.09574 0.0
C642 C 0.93381 0.90555 0.06788 0.0
C643 C 0.92451 0.92239 1.01137 0.0
C644 C 0.89027 0.92391 0.98323 0.0
C645 C 0.89921 0.9092 0.04012 0.0
C646 C 0.82985 0.91351 0.98452 0.0
C647 C 0.80414 0.90113 1.01309 0.0
H648 H 0.74717 0.62239 0.57321 0.0
H649 H 0.56838 0.62232 0.60883 0.0
H650 H 0.53102 0.59993 0.55719 0.0
H651 H 0.54876 0.58398 0.50086 0.0
H652 H 0.72714 0.58824 0.46399 0.0
H653 H 0.76501 0.60668 0.51663 0.0
C654 C 0.70011 0.61721 0.56955 0.0
C655 C 0.66068 0.62313 0.59497 0.0
C656 C 0.67885 0.6059 0.53935 0.0
C657 C 0.59978 0.61659 0.59006 0.0
C658 C 0.57835 0.60443 0.56033 0.0
C659 C 0.59599 0.58863 0.5044 0.0
C660 C 0.63506 0.58471 0.47847 0.0
C661 C 0.61741 0.59939 0.5347 0.0
C662 C 0.69603 0.59148 0.4834 0.0
C663 C 0.71776 0.60176 0.51355 0.0
H664 H 0.24571 0.61936 0.97375 0.0
H665 H 0.40405 0.65052 0.92254 0.0
H666 H 0.46163 0.64977 0.97226 0.0
H667 H 0.46386 0.64819 0.03092 0.0
H668 H 0.30307 0.62185 0.08249 0.0
H669 H 0.24959 0.6128 0.03235 0.0
C670 C 0.29293 0.62563 0.97363 0.0
C671 C 0.32068 0.6356 0.94478 0.0
C672 C 0.32503 0.62653 1.00247 0.0
C673 C 0.38207 0.64268 0.94456 0.0
C674 C 0.41469 0.64269 0.97301 0.0
C675 C 0.41712 0.64044 0.03125 0.0
C676 C 0.38758 0.63619 0.06063 0.0
C677 C 0.38619 0.63605 1.00224 0.0
C678 C 0.32727 0.62515 0.06041 0.0
C679 C 0.29643 0.62018 0.03167 0.0
H680 H 0.20051 0.82909 0.47195 0.0
H681 H 0.2699 0.94221 0.44548 0.0
H682 H 0.25731 0.96562 0.50031 0.0
H683 H 0.23131 0.95241 0.55647 0.0
H684 H 0.16557 0.83781 0.58289 0.0
H685 H 0.17183 0.81644 0.52759 0.0
C686 C 0.21257 0.85889 0.47833 0.0
C687 C 0.23608 0.88395 0.45492 0.0
C688 C 0.20617 0.87173 0.50992 0.0
C689 C 0.25112 0.92263 0.46312 0.0
C690 C 0.24438 0.93582 0.49449 0.0
C691 C 0.21854 0.92271 0.55016 0.0
C692 C 0.1981 0.89678 0.57398 0.0
C693 C 0.22279 0.91042 0.51822 0.0
C694 C 0.18081 0.8586 0.56515 0.0
C695 C 0.1847 0.84623 0.5335 0.0
H696 H 0.18839 0.28938 0.39237 0.0
H697 H 0.3463 0.25666 0.34185 0.0
H698 H 0.29086 0.20587 0.31295 0.0
H699 H 0.19653 0.17266 0.30082 0.0
H700 H 0.03792 0.20477 0.35094 0.0
H701 H 0.09432 0.25332 0.38201 0.0
C702 C 0.21045 0.27065 0.37533 0.0
C703 C 0.27097 0.27667 0.36891 0.0
C704 C 0.1781 0.2417 0.35876 0.0
C705 C 0.29952 0.25258 0.34674 0.0
C706 C 0.26788 0.22368 0.33028 0.0
C707 C 0.17431 0.19078 0.31812 0.0
C708 C 0.11316 0.18607 0.32303 0.0
C709 C 0.20697 0.21845 0.3357 0.0
C710 C 0.08507 0.20822 0.34669 0.0
C711 C 0.11723 0.23598 0.36434 0.0
H712 H 0.32697 0.18477 0.85699 0.0
H713 H 0.20232 0.26476 0.8983 0.0
H714 H 0.26264 0.3208 0.88047 0.0
H715 H 0.34847 0.34678 0.85018 0.0
H716 H 0.46609 0.26598 0.80376 0.0
H717 H 0.41167 0.21043 0.82648 0.0
C718 C 0.31348 0.21455 0.86212 0.0
C719 C 0.26119 0.2209 0.87933 0.0
C720 C 0.34735 0.24633 0.85095 0.0
C721 C 0.24331 0.25943 0.88569 0.0
C722 C 0.2776 0.29133 0.87539 0.0
C723 C 0.36275 0.31696 0.84578 0.0
C724 C 0.41154 0.31021 0.82586 0.0
C725 C 0.32961 0.28515 0.85781 0.0
C726 C 0.42886 0.27162 0.81934 0.0
C727 C 0.39764 0.23993 0.83216 0.0
H728 H 0.74062 0.21782 0.69513 0.0
H729 H 0.59046 0.18652 0.63668 0.0
H730 H 0.53184 0.23905 0.66075 0.0
H731 H 0.52324 0.29245 0.69923 0.0
H732 H 0.66964 0.31864 0.76257 0.0
H733 H 0.72993 0.26929 0.73612 0.0
C734 C 0.69497 0.22264 0.68792 0.0
C735 C 0.6696 0.19885 0.66418 0.0
C736 C 0.6611 0.25173 0.70281 0.0
C737 C 0.6106 0.20498 0.65476 0.0
C738 C 0.57724 0.23476 0.66859 0.0
C739 C 0.56828 0.28748 0.70735 0.0
C740 C 0.59191 0.30964 0.73273 0.0
C741 C 0.60198 0.25816 0.69276 0.0
C742 C 0.65033 0.30236 0.74298 0.0
C743 C 0.68488 0.27405 0.72788 0.0
H744 H 0.78512 0.25135 0.15668 0.0
H745 H 0.86392 0.35088 0.20389 0.0
H746 H 0.92765 0.30744 0.23532 0.0
H747 H 0.96042 0.24063 0.2495 0.0
H748 H 0.88898 0.14185 0.19787 0.0
H749 H 0.82322 0.1852 0.16775 0.0
C750 C 0.81706 0.26342 0.17343 0.0
C751 C 0.81979 0.30409 0.17819 0.0
C752 C 0.85456 0.23834 0.19066 0.0
C753 C 0.86067 0.31953 0.20027 0.0
C754 C 0.89712 0.29476 0.21812 0.0
C755 C 0.93032 0.22884 0.23163 0.0
C756 C 0.92901 0.18837 0.22587 0.0
C757 C 0.89418 0.25407 0.21367 0.0
C758 C 0.8907 0.1731 0.20245 0.0
C759 C 0.85309 0.1978 0.18532 0.0
H760 H 0.83462 0.70774 0.64818 0.0
H761 H 0.67693 0.72739 0.70328 0.0
H762 H 0.72558 0.7818 0.73121 0.0
H763 H 0.81423 0.82203 0.74116 0.0
H764 H 0.9725 0.80336 0.68625 0.0
H765 H 0.92231 0.75108 0.65621 0.0
C766 C 0.81109 0.72435 0.66609 0.0
C767 C 0.7528 0.7135 0.67413 0.0
C768 C 0.83943 0.75563 0.68194 0.0
C769 C 0.72223 0.73501 0.69727 0.0
C770 C 0.74995 0.76607 0.71311 0.0
C771 C 0.83782 0.80616 0.72291 0.0
C772 C 0.89715 0.81578 0.71638 0.0
C773 C 0.8088 0.77622 0.706 0.0
C774 C 0.9267 0.79629 0.69169 0.0
C775 C 0.89814 0.76632 0.67467 0.0
H776 H 0.66699 0.81553 0.17534 0.0
H777 H 0.81798 0.74133 0.16095 0.0
H778 H 0.76333 0.68511 0.18324 0.0
H779 H 0.67322 0.65805 0.20835 0.0
H780 H 0.52237 0.73309 0.22325 0.0
H781 H 0.57554 0.78791 0.19887 0.0
C782 C 0.68724 0.78682 0.17688 0.0
C783 C 0.74574 0.782 0.16639 0.0
C784 C 0.65556 0.75498 0.18972 0.0
C785 C 0.77254 0.74513 0.16861 0.0
C786 C 0.7414 0.71322 0.18137 0.0
C787 C 0.65196 0.68637 0.20607 0.0
C788 C 0.59409 0.69154 0.2177 0.0
C789 C 0.68297 0.71788 0.19219 0.0
C790 C 0.56682 0.72828 0.21438 0.0
C791 C 0.59729 0.75973 0.20059 0.0
H792 H 0.28737 0.75305 0.39225 0.0
H793 H 0.35718 0.84844 0.33618 0.0
H794 H 0.41061 0.80239 0.3025 0.0
H795 H 0.43901 0.73514 0.28955 0.0
H796 H 0.38179 0.64002 0.34982 0.0
H797 H 0.32153 0.6854 0.3813 0.0
C798 C 0.31482 0.76355 0.37285 0.0
C799 C 0.31751 0.8039 0.36622 0.0
C800 C 0.34717 0.73692 0.35427 0.0
C801 C 0.35326 0.81738 0.3411 0.0
C802 C 0.38398 0.79112 0.32196 0.0
C803 C 0.41282 0.72443 0.30942 0.0
C804 C 0.41411 0.68453 0.31737 0.0
C805 C 0.38106 0.75085 0.32823 0.0
C806 C 0.38111 0.6708 0.34342 0.0
C807 C 0.34695 0.6967 0.3614 0.0
H808 H 0.14007 0.67872 0.84408 0.0
H809 H 0.25461 0.75971 0.89377 0.0
H810 H 0.19999 0.81516 0.87112 0.0
H811 H 0.12211 0.84038 0.83524 0.0
H812 H 0.02165 0.75963 0.77717 0.0
H813 H 0.06941 0.70398 0.80391 0.0
C814 C 0.15344 0.70857 0.84948 0.0
C815 C 0.20113 0.71529 0.87049 0.0
C816 C 0.12476 0.74011 0.83454 0.0
C817 C 0.21756 0.754 0.87789 0.0
C818 C 0.18673 0.78559 0.86476 0.0
C819 C 0.11086 0.81052 0.82856 0.0
C820 C 0.06809 0.80371 0.80477 0.0
C821 C 0.14063 0.77898 0.84282 0.0
C822 C 0.05451 0.76519 0.79557 0.0
C823 C 0.08156 0.73354 0.8109 0.0
loop_
_geom_bond_atom_site_label_1
_geom_bond_atom_site_label_2
_geom_bond_distance
_geom_bond_site_symmetry_2
_ccdc_geom_bond_type
C0 N1 1.317 . S
C0 N2 1.348 . S
C0 C3 1.485 . S
N1 C0 1.317 . S
N1 N5 1.370 . S
N2 C0 1.348 . S
N2 C4 1.346 . S
C3 C0 1.485 . S
C3 H7 0.960 . S
C3 H8 0.961 . S
C3 H9 0.960 . S
C4 N2 1.346 . S
C4 N5 1.307 . S
C4 C6 1.486 . S
N5 N1 1.370 . S
N5 C4 1.307 . S
C6 C4 1.486 . S
C6 H10 0.960 . S
C6 H11 0.960 . S
C6 H12 0.959 . S
H7 C3 0.960 . S
H8 C3 0.961 . S
H9 C3 0.960 . S
H10 C6 0.960 . S
H11 C6 0.960 . S
H12 C6 0.959 . S
C13 N14 1.317 . S
C13 N15 1.348 . S
C13 C16 1.485 . S
N14 C13 1.317 . S
N14 N18 1.370 . S
N15 C13 1.348 . S
N15 C17 1.346 . S
C16 C13 1.485 . S
C16 H20 0.960 . S
C16 H21 0.961 . S
C16 H22 0.960 . S
C17 N15 1.346 . S
C17 N18 1.307 . S
C17 C19 1.486 . S
N18 N14 1.370 . S
N18 C17 1.307 . S
C19 C17 1.486 . S
C19 H23 0.960 . S
C19 H24 0.960 . S
C19 H25 0.959 . S
H20 C16 0.960 . S
H21 C16 0.961 . S
H22 C16 0.960 . S
H23 C19 0.960 . S
H24 C19 0.960 . S
H25 C19 0.959 . S
C26 N27 1.317 . S
C26 N28 1.348 . S
C26 C29 1.485 . S
N27 C26 1.317 . S
N27 N31 1.370 . S
N28 C26 1.348 . S
N28 C30 1.346 . S
C29 C26 1.485 . S
C29 H33 0.960 . S
C29 H34 0.961 . S
C29 H35 0.960 . S
C30 N28 1.346 . S
C30 N31 1.307 . S
C30 C32 1.486 . S
N31 N27 1.370 . S
N31 C30 1.307 . S
C32 C30 1.486 . S
C32 H36 0.960 . S
C32 H37 0.960 . S
C32 H38 0.959 . S
H33 C29 0.960 . S
H34 C29 0.961 . S
H35 C29 0.960 . S
H36 C32 0.960 . S
H37 C32 0.960 . S
H38 C32 0.959 . S
C39 N40 1.317 . S
C39 N41 1.348 . S
C39 C42 1.485 . S
N40 C39 1.317 . S
N40 N44 1.370 . S
N41 C39 1.348 . S
N41 C43 1.346 . S
C42 C39 1.485 . S
C42 H46 0.960 . S
C42 H47 0.961 . S
C42 H48 0.960 . S
C43 N41 1.346 . S
C43 N44 1.307 . S
C43 C45 1.486 . S
N44 N40 1.370 . S
N44 C43 1.307 . S
C45 C43 1.486 . S
C45 H49 0.960 . S
C45 H50 0.960 . S
C45 H51 0.959 . S
H46 C42 0.960 . S
H47 C42 0.961 . S
H48 C42 0.960 . S
H49 C45 0.960 . S
H50 C45 0.960 . S
H51 C45 0.959 . S
C52 N53 1.317 . S
C52 N54 1.348 . S
C52 C55 1.485 . S
N53 C52 1.317 . S
N53 N57 1.370 . S
N54 C52 1.348 . S
N54 C56 1.346 . S
C55 C52 1.485 . S
C55 H59 0.960 . S
C55 H60 0.961 . S
C55 H61 0.960 . S
C56 N54 1.346 . S
C56 N57 1.307 . S
C56 C58 1.486 . S
N57 N53 1.370 . S
N57 C56 1.307 . S
C58 C56 1.486 . S
C58 H62 0.960 . S
C58 H63 0.960 . S
C58 H64 0.959 . S
H59 C55 0.960 . S
H60 C55 0.961 . S
H61 C55 0.960 . S
H62 C58 0.960 . S
H63 C58 0.960 . S
H64 C58 0.959 . S
C65 N66 1.317 . S
C65 N67 1.348 . S
C65 C68 1.485 . S
N66 C65 1.317 . S
N66 N70 1.370 . S
N67 C65 1.348 . S
N67 C69 1.346 . S
C68 C65 1.485 . S
C68 H72 0.960 . S
C68 H73 0.961 . S
C68 H74 0.960 . S
C69 N67 1.346 . S
C69 N70 1.307 . S
C69 C71 1.486 . S
N70 N66 1.370 . S
N70 C69 1.307 . S
C71 C69 1.486 . S
C71 H75 0.960 . S
C71 H76 0.960 . S
C71 H77 0.959 . S
H72 C68 0.960 . S
H73 C68 0.961 . S
H74 C68 0.960 . S
H75 C71 0.960 . S
H76 C71 0.960 . S
H77 C71 0.959 . S
C78 N79 1.317 . S
C78 N80 1.348 . S
C78 C81 1.485 . S
N79 C78 1.317 . S
N79 N83 1.370 . S
N80 C78 1.348 . S
N80 C82 1.346 . S
C81 C78 1.485 . S
C81 H85 0.960 . S
C81 H86 0.961 . S
C81 H87 0.960 . S
C82 N80 1.346 . S
C82 N83 1.307 . S
C82 C84 1.486 . S
N83 N79 1.370 . S
N83 C82 1.307 . S
C84 C82 1.486 . S
C84 H88 0.960 . S
C84 H89 0.960 . S
C84 H90 0.959 . S
H85 C81 0.960 . S
H86 C81 0.961 . S
H87 C81 0.960 . S
H88 C84 0.960 . S
H89 C84 0.960 . S
H90 C84 0.959 . S
C91 N92 1.317 . S
C91 N93 1.348 . S
C91 C94 1.485 . S
N92 C91 1.317 . S
N92 N96 1.370 . S
N93 C91 1.348 . S
N93 C95 1.346 . S
C94 C91 1.485 . S
C94 H98 0.960 . S
C94 H99 0.961 . S
C94 H100 0.960 . S
C95 N93 1.346 . S
C95 N96 1.307 . S
C95 C97 1.486 . S
N96 N92 1.370 . S
N96 C95 1.307 . S
C97 C95 1.486 . S
C97 H101 0.960 . S
C97 H102 0.960 . S
C97 H103 0.959 . S
H98 C94 0.960 . S
H99 C94 0.961 . S
H100 C94 0.960 . S
H101 C97 0.960 . S
H102 C97 0.960 . S
H103 C97 0.959 . S
Eu104 N133 2.600 . S
Eu104 N139 2.562 . S
Eu104 O148 2.462 . S
Eu104 O149 2.373 . S
Eu104 O151 2.432 . S
Eu104 O152 2.291 1_455 S
Eu104 O156 2.320 1_455 S
Eu104 O159 2.372 . S
Eu104 C168 2.787 . S
C105 N106 1.365 . S
C105 C108 1.405 . S
C105 C112 1.448 . S
N106 C105 1.365 . S
N106 C109 1.319 . S
N106 Eu115 2.600 . S
C107 C109 1.397 . S
C107 C110 1.367 . S
C107 H127 0.931 . S
C108 C105 1.405 . S
C108 C110 1.403 . S
C108 C114 1.439 . S
C109 N106 1.319 . S
C109 C107 1.397 . S
C109 H120 0.930 . S
C110 C107 1.367 . S
C110 C108 1.403 . S
C110 H131 0.929 . S
C111 C112 1.430 . S
C111 C113 1.387 1_545 S
C111 C117 1.404 1_545 S
C112 C105 1.448 . S
C112 C111 1.430 . S
C112 N116 1.351 . S
C113 C111 1.387 1_565 S
C113 C114 1.366 1_565 S
C113 H128 0.939 . S
C114 C108 1.439 . S
C114 C113 1.366 1_545 S
C114 H129 0.931 . S
Eu115 N106 2.600 . S
Eu115 N116 2.562 . S
Eu115 O150 2.335 1_655 S
Eu115 O153 2.372 . S
Eu115 O154 2.462 . S
Eu115 O155 2.373 . S
Eu115 O157 2.432 . S
Eu115 O158 2.291 1_655 S
Eu115 C179 2.787 . S
N116 C112 1.351 . S
N116 Eu115 2.562 . S
N116 C118 1.325 . S
C117 C111 1.404 1_565 S
C117 C119 1.366 . S
C117 H125 0.930 . S
C118 N116 1.325 . S
C118 C119 1.416 1_545 S
C118 H124 0.929 . S
C119 C117 1.366 . S
C119 C118 1.416 1_565 S
C119 H121 0.930 . S
H120 C109 0.930 . S
H121 C119 0.930 . S
H122 C137 0.930 . S
H123 C144 0.930 . S
H124 C118 0.929 . S
H125 C117 0.930 . S
H126 C140 0.929 . S
H127 C107 0.931 . S
H128 C113 0.939 . S
H129 C114 0.931 . S
H130 C135 0.931 . S
H131 C110 0.929 . S
H132 C143 0.930 . S
N133 Eu104 2.600 . S
N133 C134 1.365 . S
N133 C137 1.319 . S
C134 N133 1.365 . S
C134 C136 1.405 . S
C134 C142 1.448 . S
C135 H130 0.931 . S
C135 C137 1.397 . S
C135 C138 1.367 . S
C136 C134 1.405 . S
C136 C138 1.403 . S
C136 C169 1.439 . S
C137 H122 0.930 . S
C137 N133 1.319 . S
C137 C135 1.397 . S
C138 C135 1.367 . S
C138 C136 1.403 . S
C138 H145 0.929 . S
N139 Eu104 2.562 . S
N139 C140 1.325 . S
N139 C142 1.351 . S
C140 H126 0.929 . S
C140 N139 1.325 . S
C140 C144 1.416 . S
C141 C142 1.430 . S
C141 C143 1.404 . S
C141 C170 1.387 . S
C142 C134 1.448 . S
C142 N139 1.351 . S
C142 C141 1.430 . S
C143 H132 0.930 . S
C143 C141 1.404 . S
C143 C144 1.366 . S
C144 H123 0.930 . S
C144 C140 1.416 . S
C144 C143 1.366 . S
H145 C138 0.929 . S
H146 C169 0.931 . S
H147 C170 0.931 . S
O148 Eu104 2.462 . S
O148 C168 1.252 . S
O149 Eu104 2.373 . S
O149 C160 1.249 . S
O150 Eu115 2.335 1_455 S
O150 C160 1.264 . S
O151 Eu104 2.432 . S
O151 C168 1.268 . S
O152 Eu104 2.291 1_655 S
O152 C167 1.255 . S
O153 Eu115 2.372 . S
O153 C167 1.257 . S
O154 Eu115 2.462 . S
O154 C179 1.252 . S
O155 Eu115 2.373 . S
O155 C171 1.249 . S
O156 Eu104 2.320 1_655 S
O156 C171 1.283 . S
O157 Eu115 2.432 . S
O157 C179 1.268 . S
O158 Eu115 2.291 1_455 S
O158 C178 1.255 . S
O159 Eu104 2.372 . S
O159 C178 1.257 . S
C160 O149 1.249 . S
C160 O150 1.264 . S
C161 C164 1.382 . S
C161 C166 1.390 . S
C161 C168 1.506 . S
C162 C163 1.398 . S
C162 C166 1.392 . S
C163 C162 1.398 . S
C163 C165 1.372 . S
C163 H180 0.931 . S
C164 C161 1.382 . S
C164 C165 1.390 . S
C164 H181 0.931 . S
C165 C163 1.372 . S
C165 C164 1.390 . S
C165 H182 0.929 . S
C166 C161 1.390 . S
C166 C162 1.392 . S
C166 H183 0.930 . S
C167 O152 1.255 . S
C167 O153 1.257 . S
C168 Eu104 2.787 . S
C168 O148 1.252 . S
C168 O151 1.268 . S
C168 C161 1.506 . S
C169 C136 1.439 . S
C169 H146 0.931 . S
C169 C170 1.374 . S
C170 C141 1.387 . S
C170 H147 0.931 . S
C170 C169 1.374 . S
C171 O155 1.249 . S
C171 O156 1.283 . S
C172 C175 1.382 . S
C172 C176 1.390 . S
C172 C179 1.506 . S
C173 C174 1.398 . S
C173 C176 1.392 . S
C174 C173 1.398 . S
C174 C177 1.372 . S
C174 H184 0.931 . S
C175 C172 1.382 . S
C175 C177 1.390 . S
C175 H185 0.931 . S
C176 C172 1.390 . S
C176 C173 1.392 . S
C176 H186 0.930 . S
C177 C174 1.372 . S
C177 C175 1.390 . S
C177 H187 0.929 . S
C178 O158 1.255 . S
C178 O159 1.257 . S
C179 Eu115 2.787 . S
C179 O154 1.252 . S
C179 O157 1.268 . S
C179 C172 1.506 . S
H180 C163 0.931 . S
H181 C164 0.931 . S
H182 C165 0.929 . S
H183 C166 0.930 . S
H184 C174 0.931 . S
H185 C175 0.931 . S
H186 C176 0.930 . S
H187 C177 0.929 . S
Eu188 N217 2.600 . S
Eu188 N223 2.562 . S
Eu188 O232 2.462 . S
Eu188 O233 2.373 . S
Eu188 O235 2.432 . S
Eu188 O236 2.291 . S
Eu188 O240 2.335 . S
Eu188 O243 2.372 . S
Eu188 C252 2.787 . S
C189 N190 1.365 . S
C189 C192 1.405 . S
C189 C196 1.448 . S
N190 C189 1.365 . S
N190 C193 1.319 . S
N190 Eu199 2.600 . S
C191 C193 1.397 . S
C191 C194 1.367 . S
C191 H211 0.931 . S
C192 C189 1.405 . S
C192 C194 1.403 . S
C192 C198 1.439 . S
C193 N190 1.319 . S
C193 C191 1.397 . S
C193 H204 0.930 . S
C194 C191 1.367 . S
C194 C192 1.403 . S
C194 H215 0.929 . S
C195 C196 1.430 . S
C195 C197 1.387 . S
C195 C201 1.404 . S
C196 C189 1.448 . S
C196 C195 1.430 . S
C196 N200 1.351 . S
C197 C195 1.387 . S
C197 C198 1.374 . S
C197 H212 0.931 . S
C198 C192 1.439 . S
C198 C197 1.374 . S
C198 H213 0.931 . S
Eu199 N190 2.600 . S
Eu199 N200 2.562 . S
Eu199 O234 2.335 . S
Eu199 O237 2.372 . S
Eu199 O238 2.462 . S
Eu199 O239 2.373 . S
Eu199 O241 2.432 . S
Eu199 O242 2.291 . S
Eu199 C263 2.787 . S
N200 C196 1.351 . S
N200 Eu199 2.562 . S
N200 C202 1.325 . S
C201 C195 1.404 . S
C201 C203 1.366 . S
C201 H209 0.930 . S
C202 N200 1.325 . S
C202 C203 1.416 . S
C202 H208 0.929 . S
C203 C201 1.366 . S
C203 C202 1.416 . S
C203 H205 0.930 . S
H204 C193 0.930 . S
H205 C203 0.930 . S
H206 C221 0.930 . S
H207 C228 0.930 . S
H208 C202 0.929 . S
H209 C201 0.930 . S
H210 C224 0.929 . S
H211 C191 0.931 . S
H212 C197 0.931 . S
H213 C198 0.931 . S
H214 C219 0.931 . S
H215 C194 0.929 . S
H216 C227 0.930 . S
N217 Eu188 2.600 . S
N217 C218 1.365 . S
N217 C221 1.319 . S
C218 N217 1.365 . S
C218 C220 1.405 . S
C218 C226 1.448 . S
C219 H214 0.931 . S
C219 C221 1.397 . S
C219 C222 1.367 . S
C220 C218 1.405 . S
C220 C222 1.403 . S
C220 C253 1.439 . S
C221 H206 0.930 . S
C221 N217 1.319 . S
C221 C219 1.397 . S
C222 C219 1.367 . S
C222 C220 1.403 . S
C222 H229 0.929 . S
N223 Eu188 2.562 . S
N223 C224 1.325 . S
N223 C226 1.351 . S
C224 H210 0.929 . S
C224 N223 1.325 . S
C224 C228 1.416 . S
C225 C226 1.430 . S
C225 C227 1.404 . S
C225 C254 1.387 . S
C226 C218 1.448 . S
C226 N223 1.351 . S
C226 C225 1.430 . S
C227 H216 0.930 . S
C227 C225 1.404 . S
C227 C228 1.366 . S
C228 H207 0.930 . S
C228 C224 1.416 . S
C228 C227 1.366 . S
H229 C222 0.929 . S
H230 C253 0.931 . S
H231 C254 0.931 . S
O232 Eu188 2.462 . S
O232 C252 1.252 . S
O233 Eu188 2.373 . S
O233 C244 1.249 . S
O234 Eu199 2.335 . S
O234 C244 1.264 . S
O235 Eu188 2.432 . S
O235 C252 1.268 . S
O236 Eu188 2.291 . S
O236 C251 1.255 . S
O237 Eu199 2.372 . S
O237 C251 1.257 . S
O238 Eu199 2.462 . S
O238 C263 1.252 . S
O239 Eu199 2.373 . S
O239 C255 1.249 . S
O240 Eu188 2.335 . S
O240 C255 1.264 . S
O241 Eu199 2.432 . S
O241 C263 1.268 . S
O242 Eu199 2.291 . S
O242 C262 1.255 . S
O243 Eu188 2.372 . S
O243 C262 1.257 . S
C244 O233 1.249 . S
C244 O234 1.264 . S
C245 C248 1.382 . S
C245 C250 1.390 . S
C245 C252 1.506 . S
C246 C247 1.398 . S
C246 C250 1.392 . S
C247 C246 1.398 . S
C247 C249 1.372 . S
C247 H264 0.931 . S
C248 C245 1.382 . S
C248 C249 1.390 . S
C248 H265 0.931 . S
C249 C247 1.372 . S
C249 C248 1.390 . S
C249 H266 0.929 . S
C250 C245 1.390 . S
C250 C246 1.392 . S
C250 H267 0.930 . S
C251 O236 1.255 . S
C251 O237 1.257 . S
C252 Eu188 2.787 . S
C252 O232 1.252 . S
C252 O235 1.268 . S
C252 C245 1.506 . S
C253 C220 1.439 . S
C253 H230 0.931 . S
C253 C254 1.374 . S
C254 C225 1.387 . S
C254 H231 0.931 . S
C254 C253 1.374 . S
C255 O239 1.249 . S
C255 O240 1.264 . S
C256 C259 1.382 . S
C256 C260 1.390 . S
C256 C263 1.506 . S
C257 C258 1.398 . S
C257 C260 1.392 . S
C258 C257 1.398 . S
C258 C261 1.372 . S
C258 H268 0.931 . S
C259 C256 1.382 . S
C259 C261 1.390 . S
C259 H269 0.931 . S
C260 C256 1.390 . S
C260 C257 1.392 . S
C260 H270 0.930 . S
C261 C258 1.372 . S
C261 C259 1.390 . S
C261 H271 0.929 . S
C262 O242 1.255 . S
C262 O243 1.257 . S
C263 Eu199 2.787 . S
C263 O238 1.252 . S
C263 O241 1.268 . S
C263 C256 1.506 . S
H264 C247 0.931 . S
H265 C248 0.931 . S
H266 C249 0.929 . S
H267 C250 0.930 . S
H268 C258 0.931 . S
H269 C259 0.931 . S
H270 C260 0.930 . S
H271 C261 0.929 . S
Eu272 N301 2.600 . S
Eu272 N307 2.562 . S
Eu272 O316 2.462 . S
Eu272 O317 2.373 . S
Eu272 O319 2.432 . S
Eu272 O320 2.301 . S
Eu272 O324 2.335 . S
Eu272 O327 2.372 . S
Eu272 C336 2.787 . S
C273 N274 1.365 . S
C273 C276 1.405 . S
C273 C280 1.448 . S
N274 C273 1.365 . S
N274 C277 1.319 . S
N274 Eu283 2.600 . S
C275 C277 1.397 . S
C275 C278 1.367 . S
C275 H295 0.931 . S
C276 C273 1.405 . S
C276 C278 1.403 . S
C276 C282 1.439 . S
C277 N274 1.319 . S
C277 C275 1.397 . S
C277 H288 0.930 . S
C278 C275 1.367 . S
C278 C276 1.403 . S
C278 H299 0.929 . S
C279 C280 1.430 . S
C279 C281 1.387 . S
C279 C285 1.404 . S
C280 C273 1.448 . S
C280 C279 1.430 . S
C280 N284 1.351 . S
C281 C279 1.387 . S
C281 C282 1.374 . S
C281 H296 0.931 . S
C282 C276 1.439 . S
C282 C281 1.374 . S
C282 H297 0.931 . S
Eu283 N274 2.600 . S
Eu283 N284 2.562 . S
Eu283 O318 2.335 1_655 S
Eu283 O321 2.372 . S
Eu283 O322 2.462 . S
Eu283 O323 2.373 . S
Eu283 O325 2.432 . S
Eu283 O326 2.291 1_655 S
Eu283 C347 2.787 . S
N284 C280 1.351 . S
N284 Eu283 2.562 . S
N284 C286 1.325 . S
C285 C279 1.404 . S
C285 C287 1.366 . S
C285 H293 0.930 . S
C286 N284 1.325 . S
C286 C287 1.416 . S
C286 H292 0.929 . S
C287 C285 1.366 . S
C287 C286 1.416 . S
C287 H289 0.930 . S
H288 C277 0.930 . S
H289 C287 0.930 . S
H290 C305 0.930 . S
H291 C312 0.930 . S
H292 C286 0.929 . S
H293 C285 0.930 . S
H294 C308 0.929 . S
H295 C275 0.931 . S
H296 C281 0.931 . S
H297 C282 0.931 . S
H298 C303 0.931 . S
H299 C278 0.929 . S
H300 C311 0.930 . S
N301 Eu272 2.600 . S
N301 C302 1.365 . S
N301 C305 1.319 . S
C302 N301 1.365 . S
C302 C304 1.405 . S
C302 C310 1.448 . S
C303 H298 0.931 . S
C303 C305 1.397 . S
C303 C306 1.367 . S
C304 C302 1.405 . S
C304 C306 1.403 . S
C304 C337 1.439 . S
C305 H290 0.930 . S
C305 N301 1.319 . S
C305 C303 1.397 . S
C306 C303 1.367 . S
C306 C304 1.403 . S
C306 H313 0.929 . S
N307 Eu272 2.562 . S
N307 C308 1.325 . S
N307 C310 1.351 . S
C308 H294 0.929 . S
C308 N307 1.325 . S
C308 C312 1.416 1_565 S
C309 C310 1.430 . S
C309 C311 1.404 1_565 S
C309 C338 1.387 1_565 S
C310 C302 1.448 . S
C310 N307 1.351 . S
C310 C309 1.430 . S
C311 H300 0.930 . S
C311 C309 1.404 1_545 S
C311 C312 1.366 . S
C312 H291 0.930 . S
C312 C308 1.416 1_545 S
C312 C311 1.366 . S
H313 C306 0.929 . S
H314 C337 0.931 . S
H315 C338 0.939 . S
O316 Eu272 2.462 . S
O316 C336 1.252 . S
O317 Eu272 2.373 . S
O317 C328 1.249 . S
O318 Eu283 2.335 1_455 S
O318 C328 1.264 . S
O319 Eu272 2.432 . S
O319 C336 1.268 . S
O320 Eu272 2.301 . S
O320 C335 1.244 1_455 S
O321 Eu283 2.372 . S
O321 C335 1.257 . S
O322 Eu283 2.462 . S
O322 C347 1.252 . S
O323 Eu283 2.373 . S
O323 C339 1.249 . S
O324 Eu272 2.335 . S
O324 C339 1.264 1_455 S
O325 Eu283 2.432 . S
O325 C347 1.268 . S
O326 Eu283 2.291 1_455 S
O326 C346 1.255 . S
O327 Eu272 2.372 . S
O327 C346 1.257 . S
C328 O317 1.249 . S
C328 O318 1.264 . S
C329 C332 1.382 . S
C329 C334 1.390 . S
C329 C336 1.506 . S
C330 C331 1.398 . S
C330 C334 1.392 . S
C331 C330 1.398 . S
C331 C333 1.372 . S
C331 H348 0.931 . S
C332 C329 1.382 . S
C332 C333 1.390 . S
C332 H349 0.931 . S
C333 C331 1.372 . S
C333 C332 1.390 . S
C333 H350 0.929 . S
C334 C329 1.390 . S
C334 C330 1.392 . S
C334 H351 0.930 . S
C335 O320 1.244 1_655 S
C335 O321 1.257 . S
C336 Eu272 2.787 . S
C336 O316 1.252 . S
C336 O319 1.268 . S
C336 C329 1.506 . S
C337 C304 1.439 . S
C337 H314 0.931 . S
C337 C338 1.366 1_565 S
C338 C309 1.387 1_545 S
C338 H315 0.939 . S
C338 C337 1.366 1_545 S
C339 O323 1.249 . S
C339 O324 1.264 1_655 S
C340 C343 1.382 . S
C340 C344 1.390 . S
C340 C347 1.506 . S
C341 C342 1.398 . S
C341 C344 1.392 . S
C342 C341 1.398 . S
C342 C345 1.372 . S
C342 H352 0.931 . S
C343 C340 1.382 . S
C343 C345 1.390 . S
C343 H353 0.931 . S
C344 C340 1.390 . S
C344 C341 1.392 . S
C344 H354 0.930 . S
C345 C342 1.372 . S
C345 C343 1.390 . S
C345 H355 0.929 . S
C346 O326 1.255 . S
C346 O327 1.257 . S
C347 Eu283 2.787 . S
C347 O322 1.252 . S
C347 O325 1.268 . S
C347 C340 1.506 . S
H348 C331 0.931 . S
H349 C332 0.931 . S
H350 C333 0.929 . S
H351 C334 0.930 . S
H352 C342 0.931 . S
H353 C343 0.931 . S
H354 C344 0.930 . S
H355 C345 0.929 . S
Eu356 N385 2.600 . S
Eu356 N391 2.562 . S
Eu356 O400 2.462 . S
Eu356 O401 2.373 . S
Eu356 O403 2.432 . S
Eu356 O404 2.291 . S
Eu356 O408 2.335 . S
Eu356 O411 2.372 . S
Eu356 C420 2.787 . S
C357 N358 1.365 . S
C357 C360 1.405 . S
C357 C364 1.448 . S
N358 C357 1.365 . S
N358 C361 1.319 . S
N358 Eu367 2.600 . S
C359 C361 1.397 . S
C359 C362 1.367 . S
C359 H379 0.931 . S
C360 C357 1.405 . S
C360 C362 1.403 . S
C360 C366 1.439 . S
C361 N358 1.319 . S
C361 C359 1.397 . S
C361 H372 0.930 . S
C362 C359 1.367 . S
C362 C360 1.403 . S
C362 H383 0.929 . S
C363 C364 1.430 . S
C363 C365 1.387 . S
C363 C369 1.404 . S
C364 C357 1.448 . S
C364 C363 1.430 . S
C364 N368 1.351 . S
C365 C363 1.387 . S
C365 C366 1.374 . S
C365 H380 0.931 . S
C366 C360 1.439 . S
C366 C365 1.374 . S
C366 H381 0.931 . S
Eu367 N358 2.600 . S
Eu367 N368 2.562 . S
Eu367 O402 2.335 . S
Eu367 O405 2.372 . S
Eu367 O406 2.462 . S
Eu367 O407 2.373 . S
Eu367 O409 2.432 . S
Eu367 O410 2.291 . S
Eu367 C431 2.787 . S
N368 C364 1.351 . S
N368 Eu367 2.562 . S
N368 C370 1.325 . S
C369 C363 1.404 . S
C369 C371 1.366 . S
C369 H377 0.930 . S
C370 N368 1.325 . S
C370 C371 1.416 . S
C370 H376 0.929 . S
C371 C369 1.366 . S
C371 C370 1.416 . S
C371 H373 0.930 . S
H372 C361 0.930 . S
H373 C371 0.930 . S
H374 C389 0.930 . S
H375 C396 0.930 . S
H376 C370 0.929 . S
H377 C369 0.930 . S
H378 C392 0.929 . S
H379 C359 0.931 . S
H380 C365 0.931 . S
H381 C366 0.931 . S
H382 C387 0.931 . S
H383 C362 0.929 . S
H384 C395 0.930 . S
N385 Eu356 2.600 . S
N385 C386 1.365 . S
N385 C389 1.319 . S
C386 N385 1.365 . S
C386 C388 1.405 . S
C386 C394 1.448 . S
C387 H382 0.931 . S
C387 C389 1.397 . S
C387 C390 1.367 . S
C388 C386 1.405 . S
C388 C390 1.403 . S
C388 C421 1.439 . S
C389 H374 0.930 . S
C389 N385 1.319 . S
C389 C387 1.397 . S
C390 C387 1.367 . S
C390 C388 1.403 . S
C390 H397 0.929 . S
N391 Eu356 2.562 . S
N391 C392 1.325 . S
N391 C394 1.351 . S
C392 H378 0.929 . S
C392 N391 1.325 . S
C392 C396 1.416 . S
C393 C394 1.430 . S
C393 C395 1.404 . S
C393 C422 1.387 . S
C394 C386 1.448 . S
C394 N391 1.351 . S
C394 C393 1.430 . S
C395 H384 0.930 . S
C395 C393 1.404 . S
C395 C396 1.366 . S
C396 H375 0.930 . S
C396 C392 1.416 . S
C396 C395 1.366 . S
H397 C390 0.929 . S
H398 C421 0.931 . S
H399 C422 0.931 . S
O400 Eu356 2.462 . S
O400 C420 1.252 . S
O401 Eu356 2.373 . S
O401 C412 1.249 . S
O402 Eu367 2.335 . S
O402 C412 1.264 . S
O403 Eu356 2.432 . S
O403 C420 1.268 . S
O404 Eu356 2.291 . S
O404 C419 1.255 . S
O405 Eu367 2.372 . S
O405 C419 1.257 . S
O406 Eu367 2.462 . S
O406 C431 1.252 . S
O407 Eu367 2.373 . S
O407 C423 1.249 . S
O408 Eu356 2.335 . S
O408 C423 1.264 . S
O409 Eu367 2.432 . S
O409 C431 1.268 . S
O410 Eu367 2.291 . S
O410 C430 1.255 . S
O411 Eu356 2.372 . S
O411 C430 1.257 . S
C412 O401 1.249 . S
C412 O402 1.264 . S
C413 C416 1.382 . S
C413 C418 1.390 . S
C413 C420 1.506 . S
C414 C415 1.398 . S
C414 C418 1.392 . S
C415 C414 1.398 . S
C415 C417 1.372 . S
C415 H432 0.931 . S
C416 C413 1.382 . S
C416 C417 1.390 . S
C416 H433 0.931 . S
C417 C415 1.372 . S
C417 C416 1.390 . S
C417 H434 0.929 . S
C418 C413 1.390 . S
C418 C414 1.392 . S
C418 H435 0.930 . S
C419 O404 1.255 . S
C419 O405 1.257 . S
C420 Eu356 2.787 . S
C420 O400 1.252 . S
C420 O403 1.268 . S
C420 C413 1.506 . S
C421 C388 1.439 . S
C421 H398 0.931 . S
C421 C422 1.374 . S
C422 C393 1.387 . S
C422 H399 0.931 . S
C422 C421 1.374 . S
C423 O407 1.249 . S
C423 O408 1.264 . S
C424 C427 1.382 . S
C424 C428 1.390 . S
C424 C431 1.506 . S
C425 C426 1.398 . S
C425 C428 1.392 . S
C426 C425 1.398 . S
C426 C429 1.372 . S
C426 H436 0.931 . S
C427 C424 1.382 . S
C427 C429 1.390 . S
C427 H437 0.931 . S
C428 C424 1.390 . S
C428 C425 1.392 . S
C428 H438 0.930 . S
C429 C426 1.372 . S
C429 C427 1.390 . S
C429 H439 0.929 . S
C430 O410 1.255 . S
C430 O411 1.257 . S
C431 Eu367 2.787 . S
C431 O406 1.252 . S
C431 O409 1.268 . S
C431 C424 1.506 . S
H432 C415 0.931 . S
H433 C416 0.931 . S
H434 C417 0.929 . S
H435 C418 0.930 . S
H436 C426 0.931 . S
H437 C427 0.931 . S
H438 C428 0.930 . S
H439 C429 0.929 . S
H440 C446 0.930 . S
H441 C449 0.930 . S
H442 C450 0.930 . S
H443 C451 0.930 . S
H444 C454 0.930 . S
H445 C455 0.932 . S
C446 H440 0.930 . S
C446 C447 1.355 . S
C446 C448 1.415 . S
C447 C446 1.355 . S
C447 C449 1.419 . S
C448 C446 1.415 . S
C448 C453 1.425 . S
C448 C455 1.402 1_565 S
C449 H441 0.930 . S
C449 C447 1.419 . S
C449 C450 1.362 . S
C450 H442 0.930 . S
C450 C449 1.362 . S
C450 C453 1.409 . S
C451 H443 0.930 . S
C451 C452 1.355 1_565 S
C451 C453 1.415 . S
C452 C451 1.355 1_545 S
C452 C454 1.419 . S
C453 C448 1.425 . S
C453 C450 1.409 . S
C453 C451 1.415 . S
C454 H444 0.930 . S
C454 C452 1.419 . S
C454 C455 1.367 . S
C455 H445 0.932 . S
C455 C448 1.402 1_545 S
C455 C454 1.367 . S
H456 C462 0.930 . S
H457 C465 0.930 . S
H458 C466 0.930 . S
H459 C467 0.930 . S
H460 C470 0.930 . S
H461 C471 0.930 . S
C462 H456 0.930 . S
C462 C463 1.355 . S
C462 C464 1.415 . S
C463 C462 1.355 . S
C463 C465 1.419 . S
C464 C462 1.415 . S
C464 C469 1.425 . S
C464 C471 1.409 . S
C465 H457 0.930 . S
C465 C463 1.419 . S
C465 C466 1.362 . S
C466 H458 0.930 . S
C466 C465 1.362 . S
C466 C469 1.409 . S
C467 H459 0.930 . S
C467 C468 1.355 . S
C467 C469 1.415 . S
C468 C467 1.355 . S
C468 C470 1.419 . S
C469 C464 1.425 . S
C469 C466 1.409 . S
C469 C467 1.415 . S
C470 H460 0.930 . S
C470 C468 1.419 . S
C470 C471 1.362 . S
C471 H461 0.930 . S
C471 C464 1.409 . S
C471 C470 1.362 . S
H472 C478 0.930 . S
H473 C481 0.930 . S
H474 C482 0.930 . S
H475 C483 0.930 . S
H476 C486 0.930 . S
H477 C487 0.930 . S
C478 H472 0.930 . S
C478 C479 1.355 . S
C478 C480 1.415 . S
C479 C478 1.355 . S
C479 C481 1.419 . S
C480 C478 1.415 . S
C480 C485 1.425 . S
C480 C487 1.409 . S
C481 H473 0.930 . S
C481 C479 1.419 . S
C481 C482 1.362 . S
C482 H474 0.930 . S
C482 C481 1.362 . S
C482 C485 1.409 . S
C483 H475 0.930 . S
C483 C484 1.355 . S
C483 C485 1.415 . S
C484 C483 1.355 . S
C484 C486 1.419 . S
C485 C480 1.425 . S
C485 C482 1.409 . S
C485 C483 1.415 . S
C486 H476 0.930 . S
C486 C484 1.419 . S
C486 C487 1.362 . S
C487 H477 0.930 . S
C487 C480 1.409 . S
C487 C486 1.362 . S
H488 C494 0.930 . S
H489 C497 0.930 . S
H490 C498 0.930 1_545 S
H491 C499 0.930 . S
H492 C502 0.930 . S
H493 C503 0.930 . S
C494 H488 0.930 . S
C494 C495 1.355 . S
C494 C496 1.415 . S
C495 C494 1.355 . S
C495 C497 1.419 . S
C496 C494 1.415 . S
C496 C501 1.425 . S
C496 C503 1.409 . S
C497 H489 0.930 . S
C497 C495 1.419 . S
C497 C498 1.362 . S
C498 H490 0.930 1_565 S
C498 C497 1.362 . S
C498 C501 1.409 . S
C499 H491 0.930 . S
C499 C500 1.355 . S
C499 C501 1.415 1_545 S
C500 C499 1.355 . S
C500 C502 1.419 1_545 S
C501 C496 1.425 . S
C501 C498 1.409 . S
C501 C499 1.415 1_565 S
C502 H492 0.930 . S
C502 C500 1.419 1_565 S
C502 C503 1.362 . S
C503 H493 0.930 . S
C503 C496 1.409 . S
C503 C502 1.362 . S
H504 C510 0.930 . S
H505 C513 0.930 . S
H506 C514 0.930 . S
H507 C515 0.930 . S
H508 C518 0.930 . S
H509 C519 0.930 . S
C510 H504 0.930 . S
C510 C511 1.355 . S
C510 C512 1.415 . S
C511 C510 1.355 . S
C511 C513 1.419 . S
C512 C510 1.415 . S
C512 C517 1.425 . S
C512 C519 1.409 1_545 S
C513 H505 0.930 . S
C513 C511 1.419 . S
C513 C514 1.362 . S
C514 H506 0.930 . S
C514 C513 1.362 . S
C514 C517 1.409 . S
C515 H507 0.930 . S
C515 C516 1.355 1_545 S
C515 C517 1.415 . S
C516 C515 1.355 1_565 S
C516 C518 1.419 . S
C517 C512 1.425 . S
C517 C514 1.409 . S
C517 C515 1.415 . S
C518 H508 0.930 . S
C518 C516 1.419 . S
C518 C519 1.362 . S
C519 H509 0.930 . S
C519 C512 1.409 1_565 S
C519 C518 1.362 . S
H520 C526 0.930 . S
H521 C529 0.930 . S
H522 C530 0.930 . S
H523 C531 0.930 . S
H524 C534 0.930 . S
H525 C535 0.930 . S
C526 H520 0.930 . S
C526 C527 1.355 . S
C526 C528 1.415 . S
C527 C526 1.355 . S
C527 C529 1.419 . S
C528 C526 1.415 . S
C528 C533 1.425 . S
C528 C535 1.409 . S
C529 H521 0.930 . S
C529 C527 1.419 . S
C529 C530 1.362 . S
C530 H522 0.930 . S
C530 C529 1.362 . S
C530 C533 1.409 . S
C531 H523 0.930 . S
C531 C532 1.355 . S
C531 C533 1.415 . S
C532 C531 1.355 . S
C532 C534 1.419 . S
C533 C528 1.425 . S
C533 C530 1.409 . S
C533 C531 1.415 . S
C534 H524 0.930 . S
C534 C532 1.419 . S
C534 C535 1.362 . S
C535 H525 0.930 . S
C535 C528 1.409 . S
C535 C534 1.362 . S
H536 C542 0.930 . S
H537 C545 0.930 . S
H538 C546 0.930 . S
H539 C547 0.930 . S
H540 C550 0.930 . S
H541 C551 0.930 . S
C542 H536 0.930 . S
C542 C543 1.355 . S
C542 C544 1.415 . S
C543 C542 1.355 . S
C543 C545 1.419 . S
C544 C542 1.415 . S
C544 C549 1.425 . S
C544 C551 1.409 . S
C545 H537 0.930 . S
C545 C543 1.419 . S
C545 C546 1.362 . S
C546 H538 0.930 . S
C546 C545 1.362 . S
C546 C549 1.409 . S
C547 H539 0.930 . S
C547 C548 1.355 . S
C547 C549 1.415 . S
C548 C547 1.355 . S
C548 C550 1.419 . S
C549 C544 1.425 . S
C549 C546 1.409 . S
C549 C547 1.415 . S
C550 H540 0.930 . S
C550 C548 1.419 . S
C550 C551 1.362 . S
C551 H541 0.930 . S
C551 C544 1.409 . S
C551 C550 1.362 . S
H552 C558 0.930 . S
H553 C561 0.930 . S
H554 C562 0.930 . S
H555 C563 0.930 . S
H556 C566 0.930 . S
H557 C567 0.930 . S
C558 H552 0.930 . S
C558 C559 1.355 . S
C558 C560 1.415 . S
C559 C558 1.355 . S
C559 C561 1.419 . S
C560 C558 1.415 . S
C560 C565 1.425 . S
C560 C567 1.409 . S
C561 H553 0.930 . S
C561 C559 1.419 . S
C561 C562 1.362 . S
C562 H554 0.930 . S
C562 C561 1.362 . S
C562 C565 1.409 . S
C563 H555 0.930 . S
C563 C564 1.355 . S
C563 C565 1.415 1_565 S
C564 C563 1.355 . S
C564 C566 1.419 1_565 S
C565 C560 1.425 . S
C565 C562 1.409 . S
C565 C563 1.415 1_545 S
C566 H556 0.930 . S
C566 C564 1.419 1_545 S
C566 C567 1.362 . S
C567 H557 0.930 . S
C567 C560 1.409 . S
C567 C566 1.362 . S
H568 C574 0.930 . S
H569 C577 0.930 . S
H570 C578 0.930 . S
H571 C579 0.930 . S
H572 C582 0.930 . S
H573 C583 0.930 . S
C574 H568 0.930 . S
C574 C575 1.355 . S
C574 C576 1.415 . S
C575 C574 1.355 . S
C575 C577 1.419 . S
C576 C574 1.415 . S
C576 C581 1.425 . S
C576 C583 1.409 1_556 S
C577 H569 0.930 . S
C577 C575 1.419 . S
C577 C578 1.362 . S
C578 H570 0.930 . S
C578 C577 1.362 . S
C578 C581 1.409 . S
C579 H571 0.930 . S
C579 C580 1.355 . S
C579 C581 1.415 1_554 S
C580 C579 1.355 . S
C580 C582 1.419 . S
C581 C576 1.425 . S
C581 C578 1.409 . S
C581 C579 1.415 1_556 S
C582 H572 0.930 . S
C582 C580 1.419 . S
C582 C583 1.362 . S
C583 H573 0.930 . S
C583 C576 1.409 1_554 S
C583 C582 1.362 . S
H584 C590 0.930 . S
H585 C593 0.930 . S
H586 C594 0.930 . S
H587 C595 0.930 . S
H588 C598 0.930 . S
H589 C599 0.930 . S
C590 H584 0.930 . S
C590 C591 1.355 . S
C590 C592 1.415 . S
C591 C590 1.355 . S
C591 C593 1.419 . S
C592 C590 1.415 . S
C592 C597 1.425 . S
C592 C599 1.409 . S
C593 H585 0.930 . S
C593 C591 1.419 . S
C593 C594 1.362 . S
C594 H586 0.930 . S
C594 C593 1.362 . S
C594 C597 1.409 . S
C595 H587 0.930 . S
C595 C596 1.355 . S
C595 C597 1.415 . S
C596 C595 1.355 . S
C596 C598 1.419 . S
C597 C592 1.425 . S
C597 C594 1.409 . S
C597 C595 1.415 . S
C598 H588 0.930 . S
C598 C596 1.419 . S
C598 C599 1.362 . S
C599 H589 0.930 . S
C599 C592 1.409 . S
C599 C598 1.362 . S
H600 C606 0.930 . S
H601 C609 0.930 . S
H602 C610 0.930 . S
H603 C611 0.930 . S
H604 C614 0.930 . S
H605 C615 0.930 . S
C606 H600 0.930 . S
C606 C607 1.355 . S
C606 C608 1.415 . S
C607 C606 1.355 . S
C607 C609 1.419 . S
C608 C606 1.415 . S
C608 C613 1.425 . S
C608 C615 1.409 1_554 S
C609 H601 0.930 . S
C609 C607 1.419 . S
C609 C610 1.362 . S
C610 H602 0.930 . S
C610 C609 1.362 . S
C610 C613 1.409 . S
C611 H603 0.930 . S
C611 C612 1.355 . S
C611 C613 1.415 1_556 S
C612 C611 1.355 . S
C612 C614 1.419 . S
C613 C608 1.425 . S
C613 C610 1.409 . S
C613 C611 1.415 1_554 S
C614 H604 0.930 . S
C614 C612 1.419 . S
C614 C615 1.362 . S
C615 H605 0.930 . S
C615 C608 1.409 1_556 S
C615 C614 1.362 . S
H616 C622 0.930 . S
H617 C625 0.930 . S
H618 C626 0.930 . S
H619 C627 0.930 . S
H620 C630 0.930 . S
H621 C631 0.930 . S
C622 H616 0.930 . S
C622 C623 1.355 . S
C622 C624 1.415 . S
C623 C622 1.355 . S
C623 C625 1.419 . S
C624 C622 1.415 . S
C624 C629 1.425 . S
C624 C631 1.409 . S
C625 H617 0.930 . S
C625 C623 1.419 . S
C625 C626 1.362 . S
C626 H618 0.930 . S
C626 C625 1.362 . S
C626 C629 1.409 . S
C627 H619 0.930 . S
C627 C628 1.355 . S
C627 C629 1.415 . S
C628 C627 1.355 . S
C628 C630 1.419 . S
C629 C624 1.425 . S
C629 C626 1.409 . S
C629 C627 1.415 . S
C630 H620 0.930 . S
C630 C628 1.419 . S
C630 C631 1.362 . S
C631 H621 0.930 . S
C631 C624 1.409 . S
C631 C630 1.362 . S
H632 C638 0.930 . S
H633 C641 0.930 . S
H634 C642 0.930 . S
H635 C643 0.930 . S
H636 C646 0.930 . S
H637 C647 0.930 . S
C638 H632 0.930 . S
C638 C639 1.355 . S
C638 C640 1.415 . S
C639 C638 1.355 . S
C639 C641 1.419 . S
C640 C638 1.415 . S
C640 C645 1.425 . S
C640 C647 1.409 1_554 S
C641 H633 0.930 . S
C641 C639 1.419 . S
C641 C642 1.362 . S
C642 H634 0.930 . S
C642 C641 1.362 . S
C642 C645 1.409 . S
C643 H635 0.930 . S
C643 C644 1.355 . S
C643 C645 1.415 1_556 S
C644 C643 1.355 . S
C644 C646 1.419 . S
C645 C640 1.425 . S
C645 C642 1.409 . S
C645 C643 1.415 1_554 S
C646 H636 0.930 . S
C646 C644 1.419 . S
C646 C647 1.362 . S
C647 H637 0.930 . S
C647 C640 1.409 1_556 S
C647 C646 1.362 . S
H648 C654 0.930 . S
H649 C657 0.930 . S
H650 C658 0.930 . S
H651 C659 0.930 . S
H652 C662 0.930 . S
H653 C663 0.930 . S
C654 H648 0.930 . S
C654 C655 1.355 . S
C654 C656 1.415 . S
C655 C654 1.355 . S
C655 C657 1.419 . S
C656 C654 1.415 . S
C656 C661 1.425 . S
C656 C663 1.409 . S
C657 H649 0.930 . S
C657 C655 1.419 . S
C657 C658 1.362 . S
C658 H650 0.930 . S
C658 C657 1.362 . S
C658 C661 1.409 . S
C659 H651 0.930 . S
C659 C660 1.355 . S
C659 C661 1.415 . S
C660 C659 1.355 . S
C660 C662 1.419 . S
C661 C656 1.425 . S
C661 C658 1.409 . S
C661 C659 1.415 . S
C662 H652 0.930 . S
C662 C660 1.419 . S
C662 C663 1.362 . S
C663 H653 0.930 . S
C663 C656 1.409 . S
C663 C662 1.362 . S
H664 C670 0.930 . S
H665 C673 0.930 . S
H666 C674 0.930 . S
H667 C675 0.930 . S
H668 C678 0.930 . S
H669 C679 0.930 . S
C670 H664 0.930 . S
C670 C671 1.355 . S
C670 C672 1.415 . S
C671 C670 1.355 . S
C671 C673 1.419 . S
C672 C670 1.415 . S
C672 C677 1.425 . S
C672 C679 1.409 1_556 S
C673 H665 0.930 . S
C673 C671 1.419 . S
C673 C674 1.362 . S
C674 H666 0.930 . S
C674 C673 1.362 . S
C674 C677 1.409 . S
C675 H667 0.930 . S
C675 C676 1.355 . S
C675 C677 1.415 1_554 S
C676 C675 1.355 . S
C676 C678 1.419 . S
C677 C672 1.425 . S
C677 C674 1.409 . S
C677 C675 1.415 1_556 S
C678 H668 0.930 . S
C678 C676 1.419 . S
C678 C679 1.362 . S
C679 H669 0.930 . S
C679 C672 1.409 1_554 S
C679 C678 1.362 . S
H680 C686 0.930 . S
H681 C689 0.930 . S
H682 C690 0.930 . S
H683 C691 0.930 . S
H684 C694 0.930 . S
H685 C695 0.930 . S
C686 H680 0.930 . S
C686 C687 1.355 . S
C686 C688 1.415 . S
C687 C686 1.355 . S
C687 C689 1.419 . S
C688 C686 1.415 . S
C688 C693 1.425 . S
C688 C695 1.409 . S
C689 H681 0.930 . S
C689 C687 1.419 . S
C689 C690 1.362 . S
C690 H682 0.930 . S
C690 C689 1.362 . S
C690 C693 1.409 . S
C691 H683 0.930 . S
C691 C692 1.355 . S
C691 C693 1.415 . S
C692 C691 1.355 . S
C692 C694 1.419 . S
C693 C688 1.425 . S
C693 C690 1.409 . S
C693 C691 1.415 . S
C694 H684 0.930 . S
C694 C692 1.419 . S
C694 C695 1.362 . S
C695 H685 0.930 . S
C695 C688 1.409 . S
C695 C694 1.362 . S
H696 C702 0.930 . S
H697 C705 0.930 . S
H698 C706 0.930 . S
H699 C707 0.930 . S
H700 C710 0.930 . S
H701 C711 0.930 . S
C702 H696 0.930 . S
C702 C703 1.355 . S
C702 C704 1.415 . S
C703 C702 1.355 . S
C703 C705 1.419 . S
C704 C702 1.415 . S
C704 C709 1.425 . S
C704 C711 1.409 . S
C705 H697 0.930 . S
C705 C703 1.419 . S
C705 C706 1.362 . S
C706 H698 0.930 . S
C706 C705 1.362 . S
C706 C709 1.409 . S
C707 H699 0.930 . S
C707 C708 1.355 . S
C707 C709 1.415 . S
C708 C707 1.355 . S
C708 C710 1.419 . S
C709 C704 1.425 . S
C709 C706 1.409 . S
C709 C707 1.415 . S
C710 H700 0.930 . S
C710 C708 1.419 . S
C710 C711 1.362 . S
C711 H701 0.930 . S
C711 C704 1.409 . S
C711 C710 1.362 . S
H712 C718 0.930 . S
H713 C721 0.930 . S
H714 C722 0.930 . S
H715 C723 0.930 . S
H716 C726 0.930 . S
H717 C727 0.930 . S
C718 H712 0.930 . S
C718 C719 1.355 . S
C718 C720 1.415 . S
C719 C718 1.355 . S
C719 C721 1.419 . S
C720 C718 1.415 . S
C720 C725 1.425 . S
C720 C727 1.409 . S
C721 H713 0.930 . S
C721 C719 1.419 . S
C721 C722 1.362 . S
C722 H714 0.930 . S
C722 C721 1.362 . S
C722 C725 1.409 . S
C723 H715 0.930 . S
C723 C724 1.355 . S
C723 C725 1.415 . S
C724 C723 1.355 . S
C724 C726 1.419 . S
C725 C720 1.425 . S
C725 C722 1.409 . S
C725 C723 1.415 . S
C726 H716 0.930 . S
C726 C724 1.419 . S
C726 C727 1.362 . S
C727 H717 0.930 . S
C727 C720 1.409 . S
C727 C726 1.362 . S
H728 C734 0.930 . S
H729 C737 0.930 . S
H730 C738 0.930 . S
H731 C739 0.930 . S
H732 C742 0.930 . S
H733 C743 0.930 . S
C734 H728 0.930 . S
C734 C735 1.355 . S
C734 C736 1.415 . S
C735 C734 1.355 . S
C735 C737 1.419 . S
C736 C734 1.415 . S
C736 C741 1.425 . S
C736 C743 1.409 . S
C737 H729 0.930 . S
C737 C735 1.419 . S
C737 C738 1.362 . S
C738 H730 0.930 . S
C738 C737 1.362 . S
C738 C741 1.409 . S
C739 H731 0.930 . S
C739 C740 1.355 . S
C739 C741 1.415 . S
C740 C739 1.355 . S
C740 C742 1.419 . S
C741 C736 1.425 . S
C741 C738 1.409 . S
C741 C739 1.415 . S
C742 H732 0.930 . S
C742 C740 1.419 . S
C742 C743 1.362 . S
C743 H733 0.930 . S
C743 C736 1.409 . S
C743 C742 1.362 . S
H744 C750 0.930 . S
H745 C753 0.930 . S
H746 C754 0.930 . S
H747 C755 0.930 . S
H748 C758 0.930 . S
H749 C759 0.930 . S
C750 H744 0.930 . S
C750 C751 1.355 . S
C750 C752 1.415 . S
C751 C750 1.355 . S
C751 C753 1.419 . S
C752 C750 1.415 . S
C752 C757 1.425 . S
C752 C759 1.409 . S
C753 H745 0.930 . S
C753 C751 1.419 . S
C753 C754 1.362 . S
C754 H746 0.930 . S
C754 C753 1.362 . S
C754 C757 1.409 . S
C755 H747 0.930 . S
C755 C756 1.355 . S
C755 C757 1.415 . S
C756 C755 1.355 . S
C756 C758 1.419 . S
C757 C752 1.425 . S
C757 C754 1.409 . S
C757 C755 1.415 . S
C758 H748 0.930 . S
C758 C756 1.419 . S
C758 C759 1.362 . S
C759 H749 0.930 . S
C759 C752 1.409 . S
C759 C758 1.362 . S
H760 C766 0.930 . S
H761 C769 0.930 . S
H762 C770 0.930 . S
H763 C771 0.930 . S
H764 C774 0.930 . S
H765 C775 0.930 . S
C766 H760 0.930 . S
C766 C767 1.355 . S
C766 C768 1.415 . S
C767 C766 1.355 . S
C767 C769 1.419 . S
C768 C766 1.415 . S
C768 C773 1.425 . S
C768 C775 1.409 . S
C769 H761 0.930 . S
C769 C767 1.419 . S
C769 C770 1.362 . S
C770 H762 0.930 . S
C770 C769 1.362 . S
C770 C773 1.409 . S
C771 H763 0.930 . S
C771 C772 1.355 . S
C771 C773 1.415 . S
C772 C771 1.355 . S
C772 C774 1.419 . S
C773 C768 1.425 . S
C773 C770 1.409 . S
C773 C771 1.415 . S
C774 H764 0.930 . S
C774 C772 1.419 . S
C774 C775 1.362 . S
C775 H765 0.930 . S
C775 C768 1.409 . S
C775 C774 1.362 . S
H776 C782 0.930 . S
H777 C785 0.930 . S
H778 C786 0.930 . S
H779 C787 0.930 . S
H780 C790 0.930 . S
H781 C791 0.930 . S
C782 H776 0.930 . S
C782 C783 1.355 . S
C782 C784 1.415 . S
C783 C782 1.355 . S
C783 C785 1.419 . S
C784 C782 1.415 . S
C784 C789 1.425 . S
C784 C791 1.409 . S
C785 H777 0.930 . S
C785 C783 1.419 . S
C785 C786 1.362 . S
C786 H778 0.930 . S
C786 C785 1.362 . S
C786 C789 1.409 . S
C787 H779 0.930 . S
C787 C788 1.355 . S
C787 C789 1.415 . S
C788 C787 1.355 . S
C788 C790 1.419 . S
C789 C784 1.425 . S
C789 C786 1.409 . S
C789 C787 1.415 . S
C790 H780 0.930 . S
C790 C788 1.419 . S
C790 C791 1.362 . S
C791 H781 0.930 . S
C791 C784 1.409 . S
C791 C790 1.362 . S
H792 C798 0.930 . S
H793 C801 0.930 . S
H794 C802 0.930 . S
H795 C803 0.930 . S
H796 C806 0.930 . S
H797 C807 0.930 . S
C798 H792 0.930 . S
C798 C799 1.355 . S
C798 C800 1.415 . S
C799 C798 1.355 . S
C799 C801 1.419 . S
C800 C798 1.415 . S
C800 C805 1.425 . S
C800 C807 1.409 . S
C801 H793 0.930 . S
C801 C799 1.419 . S
C801 C802 1.362 . S
C802 H794 0.930 . S
C802 C801 1.362 . S
C802 C805 1.409 . S
C803 H795 0.930 . S
C803 C804 1.355 . S
C803 C805 1.415 . S
C804 C803 1.355 . S
C804 C806 1.419 . S
C805 C800 1.425 . S
C805 C802 1.409 . S
C805 C803 1.415 . S
C806 H796 0.930 . S
C806 C804 1.419 . S
C806 C807 1.362 . S
C807 H797 0.930 . S
C807 C800 1.409 . S
C807 C806 1.362 . S
H808 C814 0.930 . S
H809 C817 0.930 . S
H810 C818 0.930 . S
H811 C819 0.930 . S
H812 C822 0.930 . S
H813 C823 0.930 . S
C814 H808 0.930 . S
C814 C815 1.355 . S
C814 C816 1.415 . S
C815 C814 1.355 . S
C815 C817 1.419 . S
C816 C814 1.415 . S
C816 C821 1.425 . S
C816 C823 1.409 . S
C817 H809 0.930 . S
C817 C815 1.419 . S
C817 C818 1.362 . S
C818 H810 0.930 . S
C818 C817 1.362 . S
C818 C821 1.409 . S
C819 H811 0.930 . S
C819 C820 1.355 . S
C819 C821 1.415 . S
C820 C819 1.355 . S
C820 C822 1.419 . S
C821 C816 1.425 . S
C821 C818 1.409 . S
C821 C819 1.415 . S
C822 H812 0.930 . S
C822 C820 1.419 . S
C822 C823 1.362 . S
C823 H813 0.930 . S
C823 C816 1.409 . S
C823 C822 1.362 . S
C447 N83 1.632 . S
C452 C178 1.617 . S
C468 C262 1.606 . S
C463 N96 1.647 . S
C484 C255 1.626 . S
C479 N57 1.610 . S
C495 N70 1.636 . S
C500 C171 1.651 . S
C516 C335 1.647 . S
C511 N31 1.608 . S
C532 C419 1.623 . S
C527 N44 1.629 . S
C543 N5 1.613 . S
C548 C412 1.626 . S
C559 N18 1.641 . S
C564 C328 1.640 . S
C580 C162 1.388 . S
C575 N14 1.609 . S
C596 C246 1.408 . S
C591 N1 1.615 . S
C612 C257 1.304 . S
C607 N40 1.614 . S
C628 C173 1.427 . S
C623 N27 1.600 . S
C644 C341 1.388 . S
C639 N66 1.587 . S
C655 N53 1.588 . S
C660 C425 1.388 . S
C676 C414 1.306 . S
C671 N92 1.600 . S
C687 N79 1.612 . S
C692 C330 1.380 . S
C708 C160 1.528 . S
C703 N2 1.520 . S
C724 C244 1.532 . S
C719 N15 1.521 . S
C735 N28 1.530 . S
C740 C251 1.492 . S
C756 C167 1.525 . S
C751 N41 1.519 . S
C772 C339 1.523 . S
C767 N54 1.519 . S
C783 N67 1.519 . S
C788 C423 1.534 . S
C799 N80 1.533 . S
C804 C430 1.491 . S
C815 N93 1.525 . S
C820 C346 1.475 . S
