# Generated by pormake.
# Topology nom, (4,4)-cn, num edge types: 1
# Building blocks:
#     Node 0, Type 0, BuildingBlock: NAHDIM_clean_linker_0, # of connection points: 4
#     Node 1, Type 0, BuildingBlock: NAHDIM_clean_linker_0, # of connection points: 4
#     Node 2, Type 0, BuildingBlock: NAHDIM_clean_linker_0, # of connection points: 4
#     Node 3, Type 0, BuildingBlock: NAHDIM_clean_linker_0, # of connection points: 4
#     Node 4, Type 0, BuildingBlock: NAHDIM_clean_linker_0, # of connection points: 4
#     Node 5, Type 0, BuildingBlock: NAHDIM_clean_linker_0, # of connection points: 4
#     Node 6, Type 1, BuildingBlock: NAHDIM_clean_sbu_0, # of connection points: 4
#     Node 7, Type 1, BuildingBlock: NAHDIM_clean_sbu_0, # of connection points: 4
#     Node 8, Type 1, BuildingBlock: NAHDIM_clean_sbu_0, # of connection points: 4
#     Node 9, Type 1, BuildingBlock: NAHDIM_clean_sbu_0, # of connection points: 4
#     Node 10, Type 1, BuildingBlock: NAHDIM_clean_sbu_0, # of connection points: 4
#     Node 11, Type 1, BuildingBlock: NAHDIM_clean_sbu_0, # of connection points: 4
#     Edge 12, Type (0, 1), BuildingBlock: KIFKEQ_clean_linker_1, # of connection points: 2
#     Edge 13, Type (0, 1), BuildingBlock: KIFKEQ_clean_linker_1, # of connection points: 2
#     Edge 14, Type (0, 1), BuildingBlock: KIFKEQ_clean_linker_1, # of connection points: 2
#     Edge 15, Type (0, 1), BuildingBlock: KIFKEQ_clean_linker_1, # of connection points: 2
#     Edge 16, Type (0, 1), BuildingBlock: KIFKEQ_clean_linker_1, # of connection points: 2
#     Edge 17, Type (0, 1), BuildingBlock: KIFKEQ_clean_linker_1, # of connection points: 2
#     Edge 18, Type (0, 1), BuildingBlock: KIFKEQ_clean_linker_1, # of connection points: 2
#     Edge 19, Type (0, 1), BuildingBlock: KIFKEQ_clean_linker_1, # of connection points: 2
#     Edge 20, Type (0, 1), BuildingBlock: KIFKEQ_clean_linker_1, # of connection points: 2
#     Edge 21, Type (0, 1), BuildingBlock: KIFKEQ_clean_linker_1, # of connection points: 2
#     Edge 22, Type (0, 1), BuildingBlock: KIFKEQ_clean_linker_1, # of connection points: 2
#     Edge 23, Type (0, 1), BuildingBlock: KIFKEQ_clean_linker_1, # of connection points: 2
#     Edge 24, Type (0, 1), BuildingBlock: KIFKEQ_clean_linker_1, # of connection points: 2
#     Edge 25, Type (0, 1), BuildingBlock: KIFKEQ_clean_linker_1, # of connection points: 2
#     Edge 26, Type (0, 1), BuildingBlock: KIFKEQ_clean_linker_1, # of connection points: 2
#     Edge 27, Type (0, 1), BuildingBlock: KIFKEQ_clean_linker_1, # of connection points: 2
#     Edge 28, Type (0, 1), BuildingBlock: KIFKEQ_clean_linker_1, # of connection points: 2
#     Edge 29, Type (0, 1), BuildingBlock: KIFKEQ_clean_linker_1, # of connection points: 2
#     Edge 30, Type (0, 1), BuildingBlock: KIFKEQ_clean_linker_1, # of connection points: 2
#     Edge 31, Type (0, 1), BuildingBlock: KIFKEQ_clean_linker_1, # of connection points: 2
#     Edge 32, Type (0, 1), BuildingBlock: KIFKEQ_clean_linker_1, # of connection points: 2
#     Edge 33, Type (0, 1), BuildingBlock: KIFKEQ_clean_linker_1, # of connection points: 2
#     Edge 34, Type (0, 1), BuildingBlock: KIFKEQ_clean_linker_1, # of connection points: 2
#     Edge 35, Type (0, 1), BuildingBlock: KIFKEQ_clean_linker_1, # of connection points: 2
# Relax obj value: 0.064
# Max RMSD: 0.130
# Mean RMSD: 0.124
data_MOF--net-nom--node1-NAHDIM_clean_sbu_0--node2-NAHDIM_clean_linker_0--edge1-KIFKEQ_clean_linker_1
_symmetry_space_group_name_H-M    P1
_symmetry_Int_Tables_number       1
_symmetry_cell_setting            triclinic
loop_
_symmetry_equiv_pos_as_xyz
'x, y, z'
_cell_length_a     57.583588
_cell_length_b     59.381749
_cell_length_c     71.038663
_cell_angle_alpha  90.042871
_cell_angle_beta   90.729163
_cell_angle_gamma 121.02521
loop_
_atom_site_label
_atom_site_type_symbol
_atom_site_fract_x
_atom_site_fract_y
_atom_site_fract_z
_atom_type_partial_charge
C0 C 0.16689 0.58986 0.23323 0.0
C1 C 0.17376 0.60408 0.25233 0.0
C2 C 0.12853 0.58994 0.26474 0.0
C3 C 0.12154 0.56414 0.26928 0.0
C4 C 0.09567 0.54602 0.27596 0.0
C5 C 0.07634 0.55373 0.27798 0.0
C6 C 0.08338 0.57972 0.27364 0.0
C7 C 0.1095 0.59753 0.26722 0.0
C8 C 0.08886 0.5185 0.28065 0.0
C9 C 0.06317 0.58853 0.27549 0.0
C10 C 0.96459 0.41595 0.19475 0.0
C11 C 0.95386 0.43468 0.19634 0.0
C12 C 0.95578 0.44751 0.22864 0.0
C13 C 0.95965 0.4727 0.22999 0.0
C14 C 0.97457 0.48942 0.24509 0.0
C15 C 0.98609 0.48071 0.25888 0.0
C16 C 0.98196 0.45508 0.25753 0.0
C17 C 0.96643 0.43861 0.24251 0.0
C18 C 0.97829 0.51647 0.24619 0.0
C19 C 0.99443 0.44529 0.2717 0.0
C20 C 0.88358 0.43469 0.3564 0.0
C21 C 0.89205 0.46102 0.35265 0.0
C22 C 0.91969 0.48004 0.35152 0.0
C23 C 0.93913 0.47249 0.35417 0.0
C24 C 0.93067 0.4464 0.35935 0.0
C25 C 0.90289 0.42783 0.36056 0.0
C26 C 0.92811 0.50792 0.34659 0.0
C27 C 0.95093 0.43784 0.36257 0.0
C28 C 0.14007 0.62483 0.40649 0.0
C29 C 0.1201 0.59625 0.4117 0.0
C30 C 0.07325 0.57432 0.40017 0.0
C31 C 0.05509 0.58113 0.39287 0.0
C32 C 0.03463 0.56461 0.37998 0.0
C33 C 0.03211 0.54048 0.37462 0.0
C34 C 0.0492 0.53262 0.38304 0.0
C35 C 0.06965 0.54966 0.39575 0.0
C36 C 0.01642 0.57335 0.37152 0.0
C37 C 0.04639 0.5066 0.37814 0.0
C38 C 0.04838 0.53426 0.28378 0.0
C39 C 0.03028 0.51751 0.26991 0.0
C40 C 0.00353 0.49877 0.2742 0.0
C41 C 0.99429 0.49693 0.2928 0.0
C42 C 0.96725 0.47898 0.29746 0.0
C43 C 0.95849 0.477 0.31586 0.0
C44 C 0.97645 0.49288 0.33034 0.0
C45 C 0.96775 0.49089 0.34913 0.0
C46 C 0.9862 0.50656 0.36326 0.0
C47 C 0.01326 0.52458 0.35907 0.0
C48 C 0.02221 0.52728 0.34028 0.0
C49 C 0.04916 0.54563 0.3355 0.0
C50 C 0.05779 0.54801 0.31701 0.0
C51 C 0.03983 0.5321 0.30259 0.0
C52 C 0.01262 0.51345 0.30709 0.0
C53 C 0.00375 0.51122 0.32592 0.0
C54 C 0.82177 0.38797 0.334 0.0
C55 C 0.83759 0.4149 0.34368 0.0
O56 O 0.15308 0.60803 0.25777 0.0
O57 O 0.09404 0.59201 0.41131 0.0
O58 O 0.85707 0.41537 0.35562 0.0
O59 O 0.94214 0.43183 0.21375 0.0
H60 H 0.17673 0.59213 0.26307 0.0
H61 H 0.14826 0.57017 0.23416 0.0
H62 H 0.16347 0.60132 0.22234 0.0
H63 H 0.18369 0.58712 0.22874 0.0
H64 H 0.13594 0.55781 0.26756 0.0
H65 H 0.11507 0.61746 0.26375 0.0
H66 H 0.07327 0.50437 0.27054 0.0
H67 H 0.10684 0.51626 0.28005 0.0
H68 H 0.08018 0.51318 0.29496 0.0
H69 H 0.0715 0.60913 0.27085 0.0
H70 H 0.04467 0.57547 0.26698 0.0
H71 H 0.05698 0.58698 0.2904 0.0
H72 H 0.97132 0.45517 0.19478 0.0
H73 H 0.97394 0.41793 0.1808 0.0
H74 H 0.98033 0.42076 0.2058 0.0
H75 H 0.94792 0.39525 0.19657 0.0
H76 H 0.95111 0.47923 0.21913 0.0
H77 H 0.96315 0.41898 0.24124 0.0
H78 H 0.97337 0.52016 0.2605 0.0
H79 H -0.00018 0.53146 0.24357 0.0
H80 H 0.9654 0.51907 0.2357 0.0
H81 H 0.99152 0.42593 0.26759 0.0
H82 H 0.01649 0.45967 0.27331 0.0
H83 H 0.98509 0.44328 0.28563 0.0
H84 H 0.8473 0.42945 0.33217 0.0
H85 H 0.87711 0.46664 0.35024 0.0
H86 H 0.89609 0.40754 0.36382 0.0
H87 H 0.93641 0.51226 0.33215 0.0
H88 H 0.91088 0.51133 0.34712 0.0
H89 H 0.94439 0.5219 0.35639 0.0
H90 H 0.94123 0.41731 0.3677 0.0
H91 H 0.96136 0.43928 0.34919 0.0
H92 H 0.96661 0.45111 0.37298 0.0
H93 H 0.12237 0.58391 0.40092 0.0
H94 H 0.16114 0.62874 0.4067 0.0
H95 H 0.13532 0.62871 0.39208 0.0
H96 H 0.13876 0.63854 0.41647 0.0
H97 H 0.05771 0.59998 0.39672 0.0
H98 H 0.08289 0.54378 0.40211 0.0
H99 H 0.01911 0.57522 0.35603 0.0
H100 H 0.9949 0.55831 0.37412 0.0
H101 H 0.0207 0.59248 0.37741 0.0
H102 H 0.05914 0.50209 0.38741 0.0
H103 H 0.0249 0.49053 0.37927 0.0
H104 H 0.05252 0.50697 0.36334 0.0
H105 H 0.0372 0.51893 0.25558 0.0
H106 H 0.95254 0.46626 0.28692 0.0
H107 H 0.93744 0.46273 0.31857 0.0
H108 H 0.97941 0.50475 0.37766 0.0
H109 H 0.06392 0.55842 0.34598 0.0
H110 H 0.07876 0.56241 0.31418 0.0
H111 H 0.8059 0.3871 0.32442 0.0
H112 H 0.83575 0.38457 0.3255 0.0
H113 H 0.812 0.37202 0.34452 0.0
C114 C 0.43765 0.86029 0.57102 0.0
C115 C 0.42796 0.85433 0.55043 0.0
C116 C 0.43948 0.89757 0.53799 0.0
C117 C 0.46765 0.90811 0.53708 0.0
C118 C 0.48503 0.934 0.53114 0.0
C119 C 0.47414 0.9498 0.52618 0.0
C120 C 0.44586 0.93933 0.5271 0.0
C121 C 0.42891 0.91326 0.53286 0.0
C122 C 0.51511 0.94458 0.53028 0.0
C123 C 0.43359 0.95575 0.52218 0.0
C124 C 0.56005 0.12805 0.61315 0.0
C125 C 0.54875 0.11328 0.59518 0.0
C126 C 0.55013 0.08017 0.57569 0.0
C127 C 0.52685 0.07418 0.56502 0.0
C128 C 0.51726 0.05521 0.55063 0.0
C129 C 0.53143 0.0422 0.54659 0.0
C130 C 0.55477 0.04804 0.5573 0.0
C131 C 0.56377 0.06694 0.57179 0.0
C132 C 0.49202 0.04919 0.53967 0.0
C133 C 0.5703 0.0345 0.5533 0.0
C134 C 0.58875 0.13863 0.44627 0.0
C135 C 0.56084 0.12706 0.44917 0.0
C136 C 0.54423 0.09977 0.4511 0.0
C137 C 0.5558 0.0838 0.44994 0.0
C138 C 0.58357 0.09526 0.44572 0.0
C139 C 0.5997 0.12264 0.44379 0.0
C140 C 0.51453 0.08811 0.45509 0.0
C141 C 0.59641 0.07872 0.44412 0.0
C142 C 0.40369 0.88949 0.39666 0.0
C143 C 0.43311 0.90828 0.39113 0.0
C144 C 0.45648 0.95327 0.40338 0.0
C145 C 0.44962 0.97074 0.4109 0.0
C146 C 0.46675 0.99013 0.42394 0.0
C147 C 0.4917 0.99242 0.42915 0.0
C148 C 0.49963 0.97598 0.42055 0.0
C149 C 0.48185 0.95644 0.40775 0.0
C150 C 0.45787 0.00769 0.43252 0.0
C151 C 0.52654 0.97861 0.42528 0.0
C152 C 0.49249 0.97755 0.52063 0.0
C153 C 0.50476 0.99637 0.53497 0.0
C154 C 0.52192 0.02292 0.53084 0.0
C155 C 0.52761 0.03101 0.51191 0.0
C156 C 0.54539 0.05748 0.50732 0.0
C157 C 0.54974 0.0655 0.48867 0.0
C158 C 0.53631 0.04738 0.47387 0.0
C159 C 0.53942 0.05559 0.45491 0.0
C160 C 0.52547 0.03717 0.44056 0.0
C161 C 0.50828 0.01057 0.44466 0.0
C162 C 0.50515 0.00192 0.46352 0.0
C163 C 0.48808 0.97528 0.46814 0.0
C164 C 0.48442 0.96713 0.48679 0.0
C165 C 0.49717 0.98537 0.50158 0.0
C166 C 0.51478 0.01224 0.49723 0.0
C167 C 0.51899 0.02047 0.47818 0.0
C168 C 0.62921 0.19554 0.47105 0.0
C169 C 0.60409 0.18265 0.45814 0.0
O170 O 0.42182 0.87266 0.54383 0.0
O171 O 0.43821 0.93377 0.39189 0.0
O172 O 0.60563 0.16509 0.4461 0.0
O173 O 0.55986 0.09841 0.58981 0.0
H174 H 0.44421 0.85489 0.54178 0.0
H175 H 0.45648 0.87984 0.57229 0.0
H176 H 0.42198 0.86036 0.57995 0.0
H177 H 0.44208 0.84531 0.5764 0.0
H178 H 0.4764 0.89647 0.54107 0.0
H179 H 0.40721 0.90505 0.5336 0.0
H180 H 0.52587 0.96067 0.5408 0.0
H181 H 0.52021 0.92923 0.53316 0.0
H182 H 0.52276 0.95299 0.51617 0.0
H183 H 0.41144 0.9452 0.52472 0.0
H184 H 0.44358 0.97423 0.53061 0.0
H185 H 0.43707 0.96126 0.5071 0.0
H186 H 0.54749 0.125 0.58336 0.0
H187 H 0.52688 0.11085 0.63123 0.0
H188 H 0.5794 0.1282 0.61616 0.0
H189 H 0.57059 0.14938 0.60913 0.0
H190 H 0.51599 0.08419 0.56781 0.0
H191 H 0.58165 0.07161 0.5801 0.0
H192 H 0.49743 0.05589 0.52493 0.0
H193 H 0.47744 0.02766 0.53923 0.0
H194 H 0.48181 0.059 0.5458 0.0
H195 H 0.58861 0.04189 0.56247 0.0
H196 H 0.55698 0.01303 0.55547 0.0
H197 H 0.57658 0.03745 0.53835 0.0
H198 H 0.58641 0.17236 0.46762 0.0
H199 H 0.55209 0.13936 0.45018 0.0
H200 H 0.62119 0.13177 0.44116 0.0
H201 H 0.51017 0.07979 0.46948 0.0
H202 H 0.50823 0.10289 0.45405 0.0
H203 H 0.50209 0.07181 0.44504 0.0
H204 H 0.61795 0.09045 0.43987 0.0
H205 H 0.59535 0.06941 0.45788 0.0
H206 H 0.585 0.0627 0.43364 0.0
H207 H 0.44611 0.90544 0.40142 0.0
H208 H 0.39904 0.86885 0.39655 0.0
H209 H 0.40033 0.89434 0.41109 0.0
H210 H 0.38956 0.89119 0.38677 0.0
H211 H 0.43024 0.96845 0.40704 0.0
H212 H 0.48774 0.94368 0.40122 0.0
H213 H 0.45799 0.00642 0.44812 0.0
H214 H 0.47237 0.0284 0.42869 0.0
H215 H 0.43726 0.00249 0.42766 0.0
H216 H 0.53106 0.96648 0.41583 0.0
H217 H 0.54307 0.99949 0.42427 0.0
H218 H 0.52636 0.97231 0.44001 0.0
H219 H 0.50037 0.99036 0.54955 0.0
H220 H 0.55602 0.07235 0.51812 0.0
H221 H 0.5635 0.08618 0.48603 0.0
H222 H 0.5274 0.04371 0.4261 0.0
H223 H 0.47725 0.96039 0.4574 0.0
H224 H 0.47105 0.9464 0.48948 0.0
H225 H 0.62859 0.21001 0.48065 0.0
H226 H 0.62978 0.18029 0.47975 0.0
H227 H 0.64807 0.20569 0.46272 0.0
C228 C 0.60499 0.45888 0.7299 0.0
C229 C 0.5981 0.44536 0.71052 0.0
C230 C 0.56723 0.45823 0.69656 0.0
C231 C 0.58692 0.48476 0.69344 0.0
C232 C 0.5795 0.50229 0.68636 0.0
C233 C 0.55193 0.49314 0.68229 0.0
C234 C 0.53218 0.46636 0.68498 0.0
C235 C 0.54014 0.44928 0.69205 0.0
C236 C 0.60105 0.5307 0.68349 0.0
C237 C 0.50258 0.45591 0.68073 0.0
C238 C 0.45375 0.57463 0.7653 0.0
C239 C 0.45877 0.5644 0.74766 0.0
C240 C 0.4955 0.56668 0.72946 0.0
C241 C 0.47828 0.54448 0.71829 0.0
C242 C 0.48869 0.53582 0.70419 0.0
C243 C 0.51689 0.54982 0.70092 0.0
C244 C 0.53435 0.57209 0.71212 0.0
C245 C 0.52339 0.58019 0.72632 0.0
C246 C 0.46943 0.51169 0.69272 0.0
C247 C 0.56449 0.5874 0.70894 0.0
C248 C 0.48369 0.60992 0.59761 0.0
C249 C 0.4656 0.58408 0.60331 0.0
C250 C 0.47449 0.56631 0.60607 0.0
C251 C 0.50216 0.57481 0.60346 0.0
C252 C 0.52007 0.60045 0.59675 0.0
C253 C 0.51044 0.61758 0.59364 0.0
C254 C 0.45448 0.53874 0.61238 0.0
C255 C 0.54959 0.61006 0.59354 0.0
C256 C 0.55922 0.43937 0.55978 0.0
C257 C 0.56556 0.46295 0.54745 0.0
C258 C 0.53924 0.48182 0.5583 0.0
C259 C 0.51362 0.47205 0.56597 0.0
C260 C 0.5089 0.48692 0.57903 0.0
C261 C 0.53032 0.51231 0.58423 0.0
C262 C 0.55582 0.52295 0.57559 0.0
C263 C 0.56 0.5076 0.56263 0.0
C264 C 0.48131 0.47522 0.58774 0.0
C265 C 0.5788 0.55028 0.58042 0.0
C266 C 0.54353 0.51184 0.67619 0.0
C267 C 0.53705 0.52415 0.6902 0.0
C268 C 0.52773 0.54103 0.6856 0.0
C269 C 0.52557 0.54653 0.66652 0.0
C270 C 0.51725 0.56421 0.66147 0.0
C271 C 0.51368 0.56838 0.64267 0.0
C272 C 0.51783 0.55468 0.62821 0.0
C273 C 0.51272 0.55762 0.60909 0.0
C274 C 0.5171 0.54373 0.59508 0.0
C275 C 0.52661 0.52696 0.59965 0.0
C276 C 0.53187 0.52378 0.61867 0.0
C277 C 0.54145 0.50704 0.62374 0.0
C278 C 0.54576 0.50344 0.64255 0.0
C279 C 0.54044 0.51625 0.657 0.0
C280 C 0.53134 0.53363 0.65218 0.0
C281 C 0.52717 0.53749 0.63299 0.0
C282 C 0.47147 0.6589 0.61459 0.0
C283 C 0.45874 0.63018 0.60841 0.0
O284 O 0.57316 0.44067 0.70408 0.0
O285 O 0.54325 0.46599 0.54674 0.0
O286 O 0.47607 0.62801 0.59619 0.0
O287 O 0.48592 0.57545 0.74332 0.0
H288 H 0.61412 0.45816 0.70043 0.0
H289 H 0.60678 0.47836 0.72899 0.0
H290 H 0.58894 0.4468 0.74017 0.0
H291 H 0.62466 0.46196 0.73523 0.0
H292 H 0.60804 0.4921 0.69667 0.0
H293 H 0.52511 0.42879 0.6944 0.0
H294 H 0.59727 0.54338 0.69291 0.0
H295 H 0.62178 0.53453 0.68644 0.0
H296 H 0.60004 0.53647 0.66877 0.0
H297 H 0.48987 0.43437 0.68292 0.0
H298 H 0.49516 0.46591 0.68996 0.0
H299 H 0.49994 0.46027 0.66593 0.0
H300 H 0.44618 0.5635 0.73528 0.0
H301 H 0.43613 0.54179 0.7829 0.0
H302 H 0.47325 0.59334 0.76902 0.0
H303 H 0.44282 0.58489 0.76065 0.0
H304 H 0.45664 0.53371 0.72048 0.0
H305 H 0.53656 0.59723 0.73499 0.0
H306 H 0.46866 0.51744 0.67797 0.0
H307 H 0.47673 0.49766 0.69248 0.0
H308 H 0.44853 0.50147 0.69832 0.0
H309 H 0.57525 0.60486 0.71838 0.0
H310 H 0.57291 0.5745 0.71138 0.0
H311 H 0.56856 0.594 0.69408 0.0
H312 H 0.45637 0.6189 0.62152 0.0
H313 H 0.4446 0.57785 0.60575 0.0
H314 H 0.52409 0.63747 0.58894 0.0
H315 H 0.458 0.53681 0.62753 0.0
H316 H 0.43318 0.53381 0.61045 0.0
H317 H 0.45732 0.52423 0.60445 0.0
H318 H 0.5611 0.6309 0.58902 0.0
H319 H 0.55904 0.60808 0.60667 0.0
H320 H 0.55135 0.59775 0.58254 0.0
H321 H 0.5834 0.48039 0.55401 0.0
H322 H 0.5767 0.43631 0.56015 0.0
H323 H 0.55529 0.44305 0.5744 0.0
H324 H 0.54098 0.42119 0.5544 0.0
H325 H 0.49758 0.45232 0.5622 0.0
H326 H 0.57946 0.51577 0.55592 0.0
H327 H 0.483 0.4728 0.6031 0.0
H328 H 0.47352 0.48874 0.58588 0.0
H329 H 0.46642 0.45579 0.58148 0.0
H330 H 0.59696 0.55622 0.57174 0.0
H331 H 0.57214 0.56465 0.57832 0.0
H332 H 0.58456 0.55119 0.5955 0.0
H333 H 0.53836 0.5198 0.70488 0.0
H334 H 0.51331 0.57496 0.67201 0.0
H335 H 0.50721 0.5822 0.63967 0.0
H336 H 0.5129 0.54585 0.58047 0.0
H337 H 0.54557 0.49638 0.61324 0.0
H338 H 0.55297 0.4902 0.64563 0.0
H339 H 0.47546 0.67182 0.60225 0.0
H340 H 0.45784 0.66111 0.62436 0.0
H341 H 0.49102 0.66543 0.62207 0.0
C342 C 0.156 0.5518 0.90713 0.0
C343 C 0.17124 0.56293 0.88872 0.0
C344 C 0.13506 0.53665 0.8659 0.0
C345 C 0.12637 0.55436 0.86198 0.0
C346 C 0.10031 0.54543 0.85462 0.0
C347 C 0.0826 0.51827 0.85119 0.0
C348 C 0.09181 0.50057 0.85415 0.0
C349 C 0.11815 0.51011 0.86125 0.0
C350 C 0.09139 0.56492 0.85104 0.0
C351 C 0.07347 0.47149 0.85054 0.0
C352 C 0.91585 0.44486 0.94919 0.0
C353 C 0.9367 0.44871 0.9353 0.0
C354 C 0.96015 0.47546 0.90805 0.0
C355 C 0.96779 0.45805 0.90111 0.0
C356 C 0.98319 0.46383 0.8848 0.0
C357 C 0.99168 0.48776 0.87538 0.0
C358 C 0.98442 0.50555 0.88244 0.0
C359 C 0.96843 0.49898 0.89859 0.0
C360 C 0.99063 0.44439 0.87773 0.0
C361 C 0.99372 0.53154 0.87301 0.0
C362 C 0.88299 0.45167 0.77749 0.0
C363 C 0.88977 0.43246 0.78099 0.0
C364 C 0.91698 0.43927 0.78214 0.0
C365 C 0.93772 0.46584 0.77992 0.0
C366 C 0.93087 0.48491 0.77529 0.0
C367 C 0.90349 0.47745 0.77391 0.0
C368 C 0.92359 0.41829 0.7864 0.0
C369 C 0.95247 0.51334 0.77256 0.0
C370 C 0.12319 0.49893 0.72474 0.0
C371 C 0.10895 0.51222 0.71595 0.0
C372 C 0.06312 0.49229 0.7275 0.0
C373 C 0.04529 0.46775 0.73516 0.0
C374 C 0.02746 0.46511 0.74944 0.0
C375 C 0.02716 0.48756 0.75578 0.0
C376 C 0.04395 0.51216 0.74716 0.0
C377 C 0.0619 0.51428 0.73314 0.0
C378 C 0.00956 0.43854 0.75815 0.0
C379 C 0.04338 0.53626 0.7531 0.0
C380 C 0.05369 0.5082 0.84654 0.0
C381 C 0.0365 0.50389 0.86155 0.0
C382 C 0.00896 0.49434 0.85856 0.0
C383 C 0.99819 0.48949 0.84002 0.0
C384 C 0.97066 0.48039 0.83648 0.0
C385 C 0.96029 0.47576 0.81818 0.0
C386 C 0.97686 0.47929 0.80272 0.0
C387 C 0.96636 0.47413 0.78407 0.0
C388 C 0.98321 0.47717 0.76908 0.0
C389 C 0.01054 0.48559 0.77218 0.0
C390 C 0.02159 0.4915 0.79068 0.0
C391 C 0.04915 0.50054 0.79426 0.0
C392 C 0.05983 0.50638 0.81251 0.0
C393 C 0.04324 0.50286 0.82791 0.0
C394 C 0.01538 0.49361 0.82464 0.0
C395 C 0.00461 0.48818 0.806 0.0
C396 C 0.8225 0.44047 0.79868 0.0
C397 C 0.837 0.4279 0.78944 0.0
O398 O 0.15934 0.54435 0.87438 0.0
O399 O 0.08133 0.49426 0.71472 0.0
O400 O 0.857 0.44611 0.77781 0.0
O401 O 0.94485 0.47022 0.9237 0.0
H402 H 0.17049 0.58076 0.88519 0.0
H403 H 0.13487 0.54749 0.90557 0.0
H404 H 0.15534 0.53332 0.9109 0.0
H405 H 0.16602 0.56632 0.91878 0.0
H406 H 0.13971 0.57515 0.86464 0.0
H407 H 0.12522 0.49668 0.86402 0.0
H408 H 0.07577 0.56187 0.8614 0.0
H409 H 0.10848 0.58559 0.85226 0.0
H410 H 0.08206 0.56173 0.83677 0.0
H411 H 0.08387 0.46039 0.85322 0.0
H412 H 0.05552 0.46362 0.85973 0.0
H413 H 0.06599 0.46801 0.83573 0.0
H414 H 0.95415 0.4476 0.94118 0.0
H415 H 0.8818 0.40888 0.94095 0.0
H416 H 0.92611 0.44796 0.96335 0.0
H417 H 0.91576 0.46378 0.94971 0.0
H418 H 0.96179 0.43984 0.90831 0.0
H419 H 0.96254 0.51235 0.90404 0.0
H420 H 0.98601 0.44064 0.86242 0.0
H421 H 0.01274 0.45276 0.87977 0.0
H422 H 0.97972 0.42536 0.88524 0.0
H423 H 0.98801 0.544 0.88102 0.0
H424 H 0.01608 0.54244 0.87145 0.0
H425 H 0.98457 0.52807 0.85867 0.0
H426 H 0.84618 0.42252 0.80121 0.0
H427 H 0.87386 0.41223 0.78304 0.0
H428 H 0.89797 0.49199 0.77088 0.0
H429 H 0.93204 0.42118 0.80093 0.0
H430 H 0.90544 0.3982 0.78525 0.0
H431 H 0.93925 0.41983 0.77662 0.0
H432 H 0.94379 0.52574 0.76895 0.0
H433 H 0.96494 0.52122 0.78564 0.0
H434 H 0.96618 0.5149 0.76113 0.0
H435 H 0.11325 0.5291 0.72524 0.0
H436 H 0.14538 0.51304 0.72587 0.0
H437 H 0.11539 0.49207 0.73912 0.0
H438 H 0.11944 0.4817 0.71613 0.0
H439 H 0.04613 0.45083 0.73041 0.0
H440 H 0.07504 0.53309 0.7266 0.0
H441 H 0.01406 0.43961 0.77349 0.0
H442 H 0.98798 0.43273 0.75645 0.0
H443 H 0.01237 0.42306 0.75172 0.0
H444 H 0.0555 0.55319 0.74369 0.0
H445 H 0.02216 0.5319 0.75316 0.0
H446 H 0.05164 0.54196 0.76766 0.0
H447 H 0.0446 0.50758 0.87584 0.0
H448 H 0.95686 0.47696 0.84782 0.0
H449 H 0.93901 0.4691 0.81635 0.0
H450 H 0.97494 0.4729 0.75484 0.0
H451 H 0.06285 0.50333 0.783 0.0
H452 H 0.08119 0.51344 0.81443 0.0
H453 H 0.81343 0.44731 0.78788 0.0
H454 H 0.80624 0.42614 0.808 0.0
H455 H 0.83719 0.45766 0.80736 0.0
C456 C 0.45468 0.88229 0.89972 0.0
C457 C 0.44894 0.86973 0.91928 0.0
C458 C 0.46951 0.90995 0.93882 0.0
C459 C 0.44831 0.9151 0.93723 0.0
C460 C 0.45176 0.93903 0.94368 0.0
C461 C 0.47702 0.95834 0.95157 0.0
C462 C 0.49835 0.95311 0.95323 0.0
C463 C 0.49405 0.92876 0.94716 0.0
C464 C 0.42847 0.94376 0.94192 0.0
C465 C 0.52586 0.97325 0.96118 0.0
C466 C 0.56979 0.12953 0.86437 0.0
C467 C 0.56463 0.11531 0.88249 0.0
C468 C 0.52803 0.08558 0.90297 0.0
C469 C 0.54464 0.07978 0.91411 0.0
C470 C 0.53379 0.06129 0.92853 0.0
C471 C 0.50566 0.04815 0.93197 0.0
C472 C 0.48879 0.05386 0.92089 0.0
C473 C 0.50025 0.07263 0.90653 0.0
C474 C 0.55246 0.05564 0.94002 0.0
C475 C 0.45875 0.04016 0.92428 0.0
C476 C 0.53559 0.14304 0.03327 0.0
C477 C 0.55395 0.13561 0.02756 0.0
C478 C 0.54563 0.10901 0.02532 0.0
C479 C 0.51824 0.08953 0.02852 0.0
C480 C 0.50011 0.09694 0.03531 0.0
C481 C 0.50918 0.1237 0.03783 0.0
C482 C 0.56589 0.10183 0.01889 0.0
C483 C 0.47092 0.07667 0.03916 0.0
C484 C 0.49247 0.90562 0.07281 0.0
C485 C 0.48133 0.92021 0.08367 0.0
C486 C 0.49976 0.96524 0.0732 0.0
C487 C 0.52361 0.9842 0.06471 0.0
C488 C 0.52354 0.00238 0.05217 0.0
C489 C 0.49904 0.00181 0.04844 0.0
C490 C 0.47524 0.98387 0.05806 0.0
C491 C 0.47584 0.9657 0.07037 0.0
C492 C 0.54943 0.02158 0.04241 0.0
C493 C 0.44904 0.98336 0.05482 0.0
C494 C 0.48159 0.98444 0.95724 0.0
C495 C 0.48701 0.00271 0.94301 0.0
C496 C 0.49437 0.02855 0.94729 0.0
C497 C 0.49549 0.03631 0.96624 0.0
C498 C 0.50226 0.062 0.97098 0.0
C499 C 0.50543 0.0701 0.98969 0.0
C500 C 0.50262 0.053 0.00437 0.0
C501 C 0.50816 0.06172 0.02334 0.0
C502 C 0.50584 0.04438 0.03752 0.0
C503 C 0.49796 0.01838 0.03326 0.0
C504 C 0.49173 0.00915 0.01443 0.0
C505 C 0.48334 0.98298 0.0097 0.0
C506 C 0.4789 0.97453 0.99103 0.0
C507 C 0.48343 0.9921 0.97633 0.0
C508 C 0.49071 0.01823 0.98082 0.0
C509 C 0.49464 0.02669 -9e-05 0.0
C510 C 0.54694 0.20377 0.01543 0.0
C511 C 0.55973 0.18787 0.02169 0.0
O512 O 0.46742 0.88738 0.9324 0.0
O513 O 0.50053 0.94685 0.08403 0.0
O514 O 0.54257 0.16862 0.03411 0.0
O515 O 0.5381 0.10319 0.88864 0.0
H516 H 0.42801 0.8638 0.92346 0.0
H517 H 0.45253 0.89982 0.8998 0.0
H518 H 0.47561 0.88846 0.89541 0.0
H519 H 0.44007 0.86816 0.88912 0.0
H520 H 0.42904 0.90064 0.93101 0.0
H521 H 0.51022 0.92454 0.94841 0.0
H522 H 0.43323 0.95898 0.93111 0.0
H523 H 0.4092 0.92567 0.93778 0.0
H524 H 0.42554 0.95125 0.95547 0.0
H525 H 0.5415 0.96821 0.95797 0.0
H526 H 0.53255 0.99305 0.95551 0.0
H527 H 0.52467 0.97425 0.9767 0.0
H528 H 0.57977 0.12667 0.8939 0.0
H529 H 0.57985 0.10816 0.84611 0.0
H530 H 0.55198 0.13217 0.86175 0.0
H531 H 0.58432 0.15081 0.86802 0.0
H532 H 0.56618 0.08954 0.91165 0.0
H533 H 0.48753 0.07714 0.89791 0.0
H534 H 0.55118 0.0594 0.95517 0.0
H535 H 0.54604 0.03462 0.9384 0.0
H536 H 0.57394 0.06782 0.93572 0.0
H537 H 0.44834 0.04682 0.91448 0.0
H538 H 0.44958 0.01861 0.92257 0.0
H539 H 0.45518 0.0439 0.93897 0.0
H540 H 0.56184 0.17869 0.00862 0.0
H541 H 0.57472 0.15057 0.02468 0.0
H542 H 0.49532 0.12968 0.04254 0.0
H543 H 0.56179 0.09555 0.0039 0.0
H544 H 0.58707 0.11863 0.02022 0.0
H545 H 0.56395 0.08513 0.0272 0.0
H546 H 0.45931 0.08567 0.04419 0.0
H547 H 0.461 0.06516 0.02613 0.0
H548 H 0.46998 0.06272 0.04995 0.0
H549 H 0.46252 0.91624 0.0761 0.0
H550 H 0.47748 0.88416 0.07257 0.0
H551 H 0.49649 0.91264 0.05805 0.0
H552 H 0.51173 0.90914 0.07931 0.0
H553 H 0.54209 0.984 0.06736 0.0
H554 H 0.45763 0.95182 0.07769 0.0
H555 H 0.54662 0.01842 0.02694 0.0
H556 H 0.55446 0.04198 0.04538 0.0
H557 H 0.56682 0.01961 0.04699 0.0
H558 H 0.43305 0.97005 0.06472 0.0
H559 H 0.45249 0.00348 0.05641 0.0
H560 H 0.44163 0.97663 0.0402 0.0
H561 H 0.48699 0.99715 0.92845 0.0
H562 H 0.50539 0.0762 0.96025 0.0
H563 H 0.51078 0.09015 0.99245 0.0
H564 H 0.51099 0.05141 0.05195 0.0
H565 H 0.48032 0.96875 0.02037 0.0
H566 H 0.47258 0.95422 0.98823 0.0
H567 H 0.54302 0.21287 0.02771 0.0
H568 H 0.5605 0.21948 0.00556 0.0
H569 H 0.52734 0.19067 0.00804 0.0
C570 C 0.61566 0.48064 0.06251 0.0
C571 C 0.6135 0.4657 0.08061 0.0
C572 C 0.59618 0.48555 0.10198 0.0
C573 C 0.56881 0.46559 0.10286 0.0
C574 C 0.54903 0.47131 0.10824 0.0
C575 C 0.55681 0.49756 0.11263 0.0
C576 C 0.5845 0.51759 0.11219 0.0
C577 C 0.6039 0.51117 0.1072 0.0
C578 C 0.51978 0.44938 0.10902 0.0
C579 C 0.59353 0.54587 0.11648 0.0
C580 C 0.46463 0.49021 0.0074 0.0
C581 C 0.47067 0.51601 0.01664 0.0
C582 C 0.46564 0.51298 0.05055 0.0
C583 C 0.48969 0.53564 0.05642 0.0
C584 C 0.5012 0.53683 0.07418 0.0
C585 C 0.48833 0.51489 0.08623 0.0
C586 C 0.46319 0.49265 0.08076 0.0
C587 C 0.45196 0.49216 0.063 0.0
C588 C 0.52759 0.56114 0.07982 0.0
C589 C 0.44888 0.46894 0.09327 0.0
C590 C 0.42825 0.56608 0.18072 0.0
C591 C 0.45617 0.58354 0.17859 0.0
C592 C 0.47414 0.57425 0.17812 0.0
C593 C 0.46394 0.547 0.17989 0.0
C594 C 0.43607 0.52961 0.18327 0.0
C595 C 0.41858 0.53948 0.1838 0.0
C596 C 0.50391 0.59341 0.17513 0.0
C597 C 0.42466 0.50052 0.18556 0.0
C598 C 0.59975 0.49629 0.234 0.0
C599 C 0.57344 0.48414 0.24512 0.0
C600 C 0.55163 0.50791 0.23538 0.0
C601 C 0.562 0.53369 0.22935 0.0
C602 C 0.54886 0.5394 0.215 0.0
C603 C 0.52454 0.51879 0.2069 0.0
C604 C 0.51297 0.49297 0.21397 0.0
C605 C 0.52672 0.48779 0.22813 0.0
C606 C 0.56153 0.56717 0.20793 0.0
C607 C 0.48659 0.4707 0.20608 0.0
C608 C 0.53586 0.50433 0.11649 0.0
C609 C 0.52199 0.50665 0.10109 0.0
C610 C 0.50267 0.51391 0.10341 0.0
C611 C 0.49735 0.51964 0.1216 0.0
C612 C 0.4789 0.52809 0.12438 0.0
C613 C 0.47388 0.5337 0.14238 0.0
C614 C 0.48695 0.53086 0.1583 0.0
C615 C 0.48203 0.53653 0.17667 0.0
C616 C 0.49464 0.53265 0.19222 0.0
C617 C 0.51255 0.5236 0.18991 0.0
C618 C 0.51848 0.51871 0.17162 0.0
C619 C 0.53708 0.51039 0.16878 0.0
C620 C 0.54277 0.5056 0.15076 0.0
C621 C 0.53003 0.50888 0.13488 0.0
C622 C 0.51094 0.51688 0.13742 0.0
C623 C 0.50545 0.52215 0.15579 0.0
C624 C 0.38661 0.58332 0.15598 0.0
C625 C 0.41232 0.59405 0.16816 0.0
O626 O 0.61562 0.4808 0.09617 0.0
O627 O 0.56618 0.50281 0.24796 0.0
O628 O 0.4101 0.57414 0.1796 0.0
O629 O 0.45552 0.51053 0.03283 0.0
H630 H 0.59365 0.44694 0.08046 0.0
H631 H 0.59879 0.48456 0.0616 0.0
H632 H 0.63519 0.49971 0.06229 0.0
H633 H 0.61428 0.4688 0.04996 0.0
H634 H 0.56281 0.4455 0.09957 0.0
H635 H 0.62514 0.52635 0.10665 0.0
H636 H 0.50815 0.45169 0.09737 0.0
H637 H 0.5175 0.42969 0.10767 0.0
H638 H 0.51069 0.45035 0.12247 0.0
H639 H 0.61551 0.55935 0.11402 0.0
H640 H 0.5819 0.55217 0.1076 0.0
H641 H 0.58935 0.54782 0.13141 0.0
H642 H 0.49278 0.52723 0.02002 0.0
H643 H 0.47629 0.4942 0.99423 0.0
H644 H 0.47068 0.47944 0.01714 0.0
H645 H 0.44266 0.47746 0.00406 0.0
H646 H 0.49965 0.55221 0.047 0.0
H647 H 0.43313 0.47497 0.05839 0.0
H648 H 0.52635 0.56731 0.09435 0.0
H649 H 0.54408 0.55667 0.07972 0.0
H650 H 0.53303 0.57776 0.07012 0.0
H651 H 0.42936 0.4533 0.087 0.0
H652 H 0.46211 0.46071 0.09588 0.0
H653 H 0.44483 0.47481 0.10711 0.0
H654 H 0.4293 0.60057 0.15813 0.0
H655 H 0.46391 0.60437 0.17709 0.0
H656 H 0.39705 0.52627 0.18582 0.0
H657 H 0.50972 0.58974 0.16112 0.0
H658 H 0.50901 0.61417 0.1758 0.0
H659 H 0.5162 0.59045 0.18592 0.0
H660 H 0.40266 0.48972 0.18865 0.0
H661 H 0.42783 0.49229 0.17246 0.0
H662 H 0.43559 0.49713 0.19715 0.0
H663 H 0.55751 0.46721 0.23676 0.0
H664 H 0.60594 0.48161 0.23173 0.0
H665 H 0.59668 0.50279 0.22001 0.0
H666 H 0.61632 0.5136 0.24163 0.0
H667 H 0.58105 0.54913 0.23531 0.0
H668 H 0.51817 0.468 0.23342 0.0
H669 H 0.56672 0.56779 0.19286 0.0
H670 H 0.54678 0.57385 0.2089 0.0
H671 H 0.58019 0.58109 0.21599 0.0
H672 H 0.4787 0.45255 0.21456 0.0
H673 H 0.47109 0.47651 0.2055 0.0
H674 H 0.48968 0.46624 0.19147 0.0
H675 H 0.52631 0.50276 0.08703 0.0
H676 H 0.46826 0.53057 0.11265 0.0
H677 H 0.4595 0.54018 0.14365 0.0
H678 H 0.49046 0.53668 0.20627 0.0
H679 H 0.54758 0.5076 0.18045 0.0
H680 H 0.55724 0.49925 0.14942 0.0
H681 H 0.3878 0.59903 0.1468 0.0
H682 H 0.38439 0.56711 0.14685 0.0
H683 H 0.36833 0.57552 0.16486 0.0
C684 C 0.61646 0.34659 0.41018 0.0
O685 O 0.63585 0.36709 0.4193 0.0
O686 O 0.65881 0.40203 0.39021 0.0
Zn687 Zn 0.61924 0.38926 0.39384 0.0
O688 O 0.61221 0.40317 0.41756 0.0
C689 C 0.62005 0.42048 0.36344 0.0
O690 O 0.64439 0.43567 0.37073 0.0
O691 O 0.60299 0.35025 0.39747 0.0
C692 C 0.6173 0.42636 0.42066 0.0
O693 O 0.62903 0.44434 0.40765 0.0
C694 C 0.68087 0.42265 0.39499 0.0
O695 O 0.68052 0.44201 0.40366 0.0
O696 O 0.60442 0.39832 0.37097 0.0
C697 C 0.2734 0.66586 0.5492 0.0
O698 O 0.27084 0.65038 0.5351 0.0
O699 O 0.26818 0.60599 0.57066 0.0
Zn700 Zn 0.24022 0.61604 0.56574 0.0
O701 O 0.21956 0.60117 0.54129 0.0
C702 C 0.20484 0.57957 0.59244 0.0
O703 O 0.21057 0.56444 0.58249 0.0
O704 O 0.26087 0.65558 0.56435 0.0
C705 C 0.19494 0.59505 0.53987 0.0
O706 O 0.18283 0.59699 0.55479 0.0
C707 C 0.28203 0.60244 0.55852 0.0
O708 O 0.27729 0.60363 0.54052 0.0
O709 O 0.21504 0.60345 0.58775 0.0
C710 C 0.60343 0.27848 0.72332 0.0
O711 O 0.61311 0.27142 0.70934 0.0
O712 O 0.6531 0.26294 0.74434 0.0
Zn713 Zn 0.61261 0.2412 0.74064 0.0
O714 O 0.60079 0.21933 0.71695 0.0
C715 C 0.61137 0.20685 0.76798 0.0
O716 O 0.63327 0.21278 0.75856 0.0
O717 O 0.59988 0.26709 0.73909 0.0
C718 C 0.61117 0.20707 0.70964 0.0
O719 O 0.63265 0.20853 0.71754 0.0
C720 C 0.67136 0.27511 0.73219 0.0
O721 O 0.66458 0.27316 0.71428 0.0
O722 O 0.59746 0.21695 0.76293 0.0
C723 C 0.44767 0.69951 0.91095 0.0
O724 O 0.44394 0.68645 0.92664 0.0
O725 O 0.38532 0.63434 0.89465 0.0
Zn726 Zn 0.42546 0.64814 0.8941 0.0
O727 O 0.43662 0.63383 0.9159 0.0
C728 C 0.41521 0.61789 0.86019 0.0
O729 O 0.39021 0.60742 0.86603 0.0
O730 O 0.44294 0.68743 0.89529 0.0
C731 C 0.42855 0.60947 0.91537 0.0
O732 O 0.41377 0.59531 0.9009 0.0
C733 C 0.36834 0.61886 0.90657 0.0
O734 O 0.3766 0.61036 0.9207 0.0
O735 O 0.43433 0.63652 0.86973 0.0
C736 C 0.75686 0.41587 0.08013 0.0
O737 O 0.7661 0.41209 0.09608 0.0
O738 O 0.75433 0.35168 0.05772 0.0
Zn739 Zn 0.78232 0.38936 0.0633 0.0
O740 O 0.80332 0.39326 0.08723 0.0
C741 C 0.80093 0.40493 0.02518 0.0
O742 O 0.77582 0.39887 0.02197 0.0
O743 O 0.76225 0.40868 0.06478 0.0
C744 C 0.82412 0.39112 0.08623 0.0
O745 O 0.83039 0.38539 0.06992 0.0
C746 C 0.73818 0.33613 0.06999 0.0
O747 O 0.74093 0.34424 0.08754 0.0
O748 O 0.80816 0.40296 0.04176 0.0
C749 C 0.41147 0.74951 0.22096 0.0
O750 O 0.39186 0.75141 0.21297 0.0
O751 O 0.37481 0.77055 0.24321 0.0
Zn752 Zn 0.41459 0.79272 0.23753 0.0
O753 O 0.42045 0.81365 0.21396 0.0
C754 C 0.42137 0.83015 0.26355 0.0
O755 O 0.40239 0.82837 0.25208 0.0
O756 O 0.42699 0.76697 0.23291 0.0
C757 C 0.44033 0.83698 0.21218 0.0
O758 O 0.45752 0.84827 0.2263 0.0
C759 C 0.35542 0.76789 0.23281 0.0
O760 O 0.3608 0.78124 0.21711 0.0
O761 O 0.43201 0.81646 0.26001 0.0
H762 H 0.18163 0.65069 0.23808 0.0
H763 H 0.22482 0.616 0.26257 0.0
H764 H 0.22437 0.69242 0.23476 0.0
H765 H 0.26752 0.65734 0.25887 0.0
H766 H 0.33745 0.73965 0.26512 0.0
H767 H 0.29268 0.70191 0.27101 0.0
H768 H 0.2653 0.71076 0.21612 0.0
H769 H 0.31002 0.74898 0.21037 0.0
C770 C 0.20026 0.65211 0.24292 0.0
C771 C 0.19989 0.6303 0.25098 0.0
C772 C 0.22472 0.6759 0.24088 0.0
C773 C 0.24932 0.67827 0.2467 0.0
C774 C 0.24889 0.65637 0.25464 0.0
C775 C 0.22447 0.63265 0.2567 0.0
C776 C 0.3218 0.73376 0.25439 0.0
C777 C 0.32737 0.74715 0.23719 0.0
C778 C 0.29618 0.71202 0.25773 0.0
C779 C 0.27554 0.70309 0.24393 0.0
C780 C 0.28072 0.71723 0.22708 0.0
C781 C 0.30638 0.73909 0.22376 0.0
H782 H 0.63684 0.21353 0.42968 0.0
H783 H 0.56697 0.19827 0.46163 0.0
H784 H 0.63743 0.25094 0.41476 0.0
H785 H 0.5674 0.23554 0.44655 0.0
H786 H 0.57015 0.29807 0.40539 0.0
H787 H 0.56423 0.25519 0.4138 0.0
H788 H 0.64823 0.29387 0.43148 0.0
H789 H 0.65401 0.33621 0.42349 0.0
C790 C 0.62134 0.21791 0.43323 0.0
C791 C 0.60203 0.20321 0.44694 0.0
C792 C 0.62166 0.23924 0.42471 0.0
C793 C 0.60252 0.24612 0.42959 0.0
C794 C 0.58222 0.23049 0.44243 0.0
C795 C 0.58208 0.2093 0.45113 0.0
C796 C 0.5873 0.29724 0.41094 0.0
C797 C 0.61245 0.3204 0.41395 0.0
C798 C 0.58392 0.27282 0.41576 0.0
C799 C 0.60584 0.2713 0.42316 0.0
C800 C 0.63109 0.29444 0.42559 0.0
C801 C 0.63431 0.3187 0.42117 0.0
H802 H 0.40856 0.59483 0.62201 0.0
H803 H 0.4474 0.64397 0.57404 0.0
H804 H 0.36427 0.58268 0.60878 0.0
H805 H 0.4032 0.63274 0.56106 0.0
H806 H 0.31889 0.5984 0.53685 0.0
H807 H 0.36024 0.60007 0.5476 0.0
H808 H 0.33991 0.60477 0.60526 0.0
H809 H 0.2985 0.60227 0.59463 0.0
C810 C 0.40756 0.60283 0.60853 0.0
C811 C 0.43138 0.62044 0.59909 0.0
C812 C 0.38222 0.59603 0.601 0.0
C813 C 0.38013 0.60695 0.58395 0.0
C814 C 0.40397 0.62372 0.57411 0.0
C815 C 0.42932 0.63034 0.58159 0.0
C816 C 0.32308 0.59936 0.55183 0.0
C817 C 0.30548 0.6004 0.56486 0.0
C818 C 0.34686 0.6005 0.55799 0.0
C819 C 0.35354 0.60272 0.5773 0.0
C820 C 0.33532 0.60269 0.59031 0.0
C821 C 0.31159 0.60146 0.58418 0.0
H822 H 0.81037 0.42498 0.7563 0.0
H823 H 0.81853 0.37635 0.79777 0.0
H824 H 0.77366 0.38585 0.74082 0.0
H825 H 0.78253 0.33706 0.78195 0.0
H826 H 0.69139 0.28263 0.76805 0.0
H827 H 0.73467 0.31788 0.77987 0.0
H828 H 0.75858 0.34583 0.72315 0.0
H829 H 0.71458 0.31071 0.71128 0.0
C830 C 0.80465 0.40584 0.76183 0.0
C831 C 0.81708 0.40366 0.77831 0.0
C832 C 0.78378 0.38339 0.75289 0.0
C833 C 0.77497 0.35827 0.76021 0.0
C834 C 0.78848 0.35611 0.77613 0.0
C835 C 0.80919 0.37857 0.78514 0.0
C836 C 0.70596 0.29605 0.75802 0.0
C837 C 0.69935 0.29407 0.73874 0.0
C838 C 0.73096 0.3162 0.76481 0.0
C839 C 0.7501 0.33485 0.75248 0.0
C840 C 0.74411 0.33203 0.73305 0.0
C841 C 0.71897 0.31181 0.72623 0.0
H842 H 0.41022 0.821 0.90681 0.0
H843 H 0.49211 0.86329 0.92921 0.0
H844 H 0.4128 0.78126 0.90411 0.0
H845 H 0.49429 0.82333 0.92698 0.0
H846 H 0.46536 0.73373 0.94087 0.0
H847 H 0.46772 0.77605 0.94274 0.0
H848 H 0.44246 0.76814 0.88445 0.0
H849 H 0.44049 0.72616 0.8824 0.0
C850 C 0.42862 0.8217 0.91133 0.0
C851 C 0.45068 0.84512 0.91858 0.0
C852 C 0.43016 0.79907 0.90968 0.0
C853 C 0.45373 0.79931 0.91538 0.0
C854 C 0.47582 0.82264 0.92265 0.0
C855 C 0.47449 0.84544 0.92398 0.0
C856 C 0.46074 0.74123 0.92838 0.0
C857 C 0.45264 0.72656 0.91152 0.0
C858 C 0.46213 0.76543 0.92945 0.0
C859 C 0.45501 0.77513 0.91378 0.0
C860 C 0.44779 0.76091 0.89677 0.0
C861 C 0.44685 0.73698 0.8956 0.0
H862 H 0.66562 0.49523 0.09542 0.0
H863 H 0.61181 0.42223 0.0663 0.0
H864 H 0.70145 0.48467 0.09532 0.0
H865 H 0.64771 0.41184 0.06601 0.0
H866 H 0.72717 0.4174 0.05045 0.0
H867 H 0.69347 0.43052 0.05077 0.0
H868 H 0.70997 0.44996 0.10989 0.0
H869 H 0.74379 0.43674 0.10967 0.0
C870 C 0.66135 0.4768 0.08922 0.0
C871 C 0.63567 0.45919 0.08129 0.0
C872 C 0.68186 0.4708 0.08913 0.0
C873 C 0.6773 0.44742 0.08072 0.0
C874 C 0.65181 0.43007 0.07252 0.0
C875 C 0.63123 0.43589 0.0728 0.0
C876 C 0.72383 0.42467 0.0635 0.0
C877 C 0.73809 0.42592 0.08007 0.0
C878 C 0.7044 0.43203 0.06369 0.0
C879 C 0.69899 0.44105 0.08038 0.0
C880 C 0.71384 0.44315 0.09682 0.0
C881 C 0.73312 0.43551 0.09669 0.0
H882 H 0.42484 0.80957 0.53704 0.0
H883 H 0.37548 0.83749 0.56074 0.0
H884 H 0.38564 0.76502 0.53579 0.0
H885 H 0.33599 0.79275 0.55938 0.0
H886 H 0.28505 0.7037 0.57598 0.0
H887 H 0.32085 0.74998 0.57521 0.0
H888 H 0.34164 0.73896 0.51914 0.0
H889 H 0.30616 0.69277 0.51993 0.0
C890 C 0.40548 0.8062 0.54174 0.0
C891 C 0.40313 0.82705 0.54874 0.0
C892 C 0.38301 0.78072 0.54097 0.0
C893 C 0.35768 0.77541 0.54737 0.0
C894 C 0.35528 0.79623 0.55442 0.0
C895 C 0.37778 0.82181 0.55509 0.0
C896 C 0.29707 0.71122 0.56341 0.0
C897 C 0.29292 0.69448 0.54809 0.0
C898 C 0.31749 0.73776 0.56294 0.0
C899 C 0.33423 0.74803 0.54718 0.0
C900 C 0.32935 0.73151 0.5316 0.0
C901 C 0.3089 0.70506 0.53203 0.0
H902 H 0.63589 0.43377 0.69849 0.0
H903 H 0.55879 0.39903 0.72622 0.0
H904 H 0.63529 0.39253 0.70144 0.0
H905 H 0.55803 0.35758 0.72905 0.0
H906 H 0.58567 0.30009 0.74946 0.0
H907 H 0.58307 0.33973 0.7461 0.0
H908 H 0.60957 0.34735 0.68863 0.0
H909 H 0.61241 0.30808 0.69197 0.0
C910 C 0.61869 0.41721 0.70505 0.0
C911 C 0.59721 0.41948 0.71188 0.0
C912 C 0.61829 0.39358 0.70669 0.0
C913 C 0.59651 0.37175 0.71536 0.0
C914 C 0.57514 0.37409 0.72239 0.0
C915 C 0.57548 0.39771 0.72066 0.0
C916 C 0.5907 0.31011 0.73607 0.0
C917 C 0.59941 0.30101 0.72103 0.0
C918 C 0.58913 0.33275 0.73413 0.0
C919 C 0.59636 0.34678 0.71715 0.0
C920 C 0.6043 0.33722 0.70198 0.0
C921 C 0.60576 0.31459 0.70388 0.0
H922 H 0.21567 0.6126 0.89183 0.0
H923 H 0.19268 0.53096 0.89185 0.0
H924 H 0.26305 0.62565 0.8965 0.0
H925 H 0.24028 0.54404 0.89648 0.0
H926 H 0.32507 0.58008 0.92555 0.0
H927 H 0.27723 0.56601 0.92128 0.0
H928 H 0.29852 0.62405 0.87786 0.0
H929 H 0.34615 0.63818 0.88212 0.0
C930 C 0.22081 0.59747 0.8927 0.0
C931 C 0.20058 0.57079 0.89121 0.0
C932 C 0.24791 0.60493 0.89534 0.0
C933 C 0.25533 0.58586 0.89675 0.0
C934 C 0.23508 0.55914 0.89555 0.0
C935 C 0.20795 0.55167 0.89278 0.0
C936 C 0.31952 0.58986 0.91514 0.0
C937 C 0.33939 0.61029 0.90422 0.0
C938 C 0.29214 0.58169 0.91261 0.0
C939 C 0.28421 0.59399 0.89927 0.0
C940 C 0.30409 0.61441 0.88839 0.0
C941 C 0.33136 0.6224 0.89078 0.0
H942 H 0.60961 0.2009 0.00839 0.0
H943 H 0.57172 0.2148 0.05536 0.0
H944 H 0.65419 0.23273 0.02134 0.0
H945 H 0.61619 0.2476 0.06795 0.0
H946 H 0.70003 0.29721 0.0922 0.0
H947 H 0.65826 0.25769 0.08192 0.0
H948 H 0.6804 0.27891 0.02388 0.0
H949 H 0.72234 0.31759 0.03413 0.0
C950 C 0.61087 0.2107 0.02156 0.0
C951 C 0.58724 0.20558 0.0308 0.0
C952 C 0.63639 0.22908 0.02893 0.0
C953 C 0.63887 0.24304 0.04559 0.0
C954 C 0.61516 0.23708 0.05522 0.0
C955 C 0.58965 0.21846 0.04794 0.0
C956 C 0.69613 0.29317 0.07725 0.0
C957 C 0.71442 0.31066 0.06399 0.0
C958 C 0.6721 0.27061 0.07135 0.0
C959 C 0.66577 0.26516 0.05205 0.0
C960 C 0.68466 0.28217 0.03885 0.0
C961 C 0.70873 0.30454 0.04474 0.0
H962 H 0.38282 0.59346 0.19842 0.0
H963 H 0.45074 0.64632 0.16426 0.0
H964 H 0.38525 0.63108 0.21451 0.0
H965 H 0.4533 0.68396 0.18047 0.0
H966 H 0.45683 0.74528 0.22314 0.0
H967 H 0.46019 0.70724 0.21348 0.0
H968 H 0.37473 0.66427 0.19952 0.0
H969 H 0.37145 0.70193 0.20875 0.0
C970 C 0.39858 0.61312 0.19464 0.0
C971 C 0.41645 0.61702 0.18001 0.0
C972 C 0.39997 0.63459 0.20381 0.0
C973 C 0.41939 0.66036 0.19865 0.0
C974 C 0.4383 0.66428 0.18482 0.0
C975 C 0.43673 0.64279 0.17549 0.0
C976 C 0.4388 0.72757 0.21816 0.0
C977 C 0.41394 0.72656 0.21656 0.0
C978 C 0.44073 0.70592 0.21262 0.0
C979 C 0.41767 0.68282 0.20588 0.0
C980 C 0.39274 0.68168 0.20488 0.0
C981 C 0.39094 0.70335 0.21002 0.0
H982 H 0.81125 0.39221 0.3765 0.0
H983 H 0.82102 0.44958 0.33515 0.0
H984 H 0.77627 0.39702 0.39188 0.0
H985 H 0.78606 0.45444 0.35053 0.0
H986 H 0.73131 0.46667 0.39088 0.0
H987 H 0.77284 0.46807 0.38116 0.0
H988 H 0.72948 0.38323 0.37969 0.0
H989 H 0.68838 0.3818 0.38921 0.0
C990 C 0.80621 0.40617 0.37092 0.0
C991 C 0.8187 0.42043 0.3546 0.0
C992 C 0.78621 0.40889 0.37967 0.0
C993 C 0.77841 0.42602 0.37233 0.0
C994 C 0.79187 0.44129 0.35659 0.0
C995 C 0.81173 0.4384 0.34774 0.0
C996 C 0.73085 0.4484 0.38867 0.0
C997 C 0.70662 0.42416 0.39064 0.0
C998 C 0.75451 0.44919 0.38306 0.0
C999 C 0.75435 0.42575 0.37974 0.0
C1000 C 0.73031 0.4016 0.38237 0.0
C1001 C 0.70671 0.40081 0.38766 0.0
H1002 H 0.1101 0.61039 0.44613 0.0
H1003 H 0.14658 0.57024 0.42066 0.0
H1004 H 0.12576 0.60556 0.47708 0.0
H1005 H 0.16182 0.56482 0.45169 0.0
H1006 H 0.21667 0.5974 0.50538 0.0
H1007 H 0.19571 0.59345 0.47463 0.0
H1008 H 0.12098 0.57498 0.50135 0.0
H1009 H 0.14215 0.57955 0.53216 0.0
C1010 C 0.12097 0.60001 0.44725 0.0
C1011 C 0.12694 0.59049 0.43104 0.0
C1012 C 0.12986 0.59713 0.46497 0.0
C1013 C 0.14504 0.58477 0.46688 0.0
C1014 C 0.15041 0.57466 0.45069 0.0
C1015 C 0.14153 0.57758 0.43295 0.0
C1016 C 0.19565 0.59213 0.5047 0.0
C1017 C 0.18118 0.5891 0.52123 0.0
C1018 C 0.18357 0.58973 0.48705 0.0
C1019 C 0.15672 0.58414 0.48552 0.0
C1020 C 0.14185 0.5798 0.50204 0.0
C1021 C 0.15396 0.58228 0.5197 0.0
H1022 H 0.53824 0.06804 0.62282 0.0
H1023 H 0.5099 0.13244 0.59925 0.0
H1024 H 0.56589 0.10322 0.65432 0.0
H1025 H 0.53817 0.16597 0.63107 0.0
H1026 H 0.56734 0.20099 0.69003 0.0
H1027 H 0.54405 0.17207 0.66348 0.0
H1028 H 0.60199 0.14649 0.66409 0.0
H1029 H 0.6251 0.17512 0.69124 0.0
C1030 C 0.53742 0.08568 0.62482 0.0
C1031 C 0.52528 0.09905 0.60591 0.0
C1032 C 0.55569 0.10837 0.64383 0.0
C1033 C 0.55661 0.13924 0.64562 0.0
C1034 C 0.53789 0.14774 0.62938 0.0
C1035 C 0.51908 0.12641 0.60994 0.0
C1036 C 0.57526 0.18931 0.6845 0.0
C1037 C 0.59809 0.19035 0.6928 0.0
C1038 C 0.562 0.17285 0.6691 0.0
C1039 C 0.57125 0.15707 0.6616 0.0
C1040 C 0.59419 0.1582 0.66973 0.0
C1041 C 0.60755 0.17475 0.68518 0.0
H1042 H 0.49276 0.55363 0.77721 0.0
H1043 H 0.39893 0.52618 0.74918 0.0
H1044 H 0.48207 0.57896 0.80793 0.0
H1045 H 0.39056 0.55212 0.78026 0.0
H1046 H 0.37865 0.57691 0.83837 0.0
H1047 H 0.38735 0.5563 0.81224 0.0
H1048 H 0.47315 0.61276 0.81758 0.0
H1049 H 0.46447 0.63309 0.84441 0.0
C1050 C 0.47349 0.55257 0.77824 0.0
C1051 C 0.44872 0.5413 0.75818 0.0
C1052 C 0.46716 0.56941 0.79676 0.0
C1053 C 0.43596 0.56987 0.79697 0.0
C1054 C 0.40931 0.55215 0.77954 0.0
C1055 C 0.41372 0.53481 0.76052 0.0
C1056 C 0.3994 0.58511 0.83395 0.0
C1057 C 0.42086 0.60667 0.8435 0.0
C1058 C 0.40439 0.57339 0.81878 0.0
C1059 C 0.43095 0.58299 0.8127 0.0
C1060 C 0.45248 0.60472 0.82207 0.0
C1061 C 0.44749 0.61649 0.83735 0.0
H1062 H 0.92497 0.39641 0.94991 0.0
H1063 H 0.89098 0.44543 0.90906 0.0
H1064 H 0.89026 0.39446 0.97959 0.0
H1065 H 0.85741 0.44273 0.93997 0.0
H1066 H 0.79197 0.40923 0.98774 0.0
H1067 H 0.82182 0.41544 0.96164 0.0
H1068 H 0.88273 0.42179 0.001 0.0
H1069 H 0.85291 0.41526 0.02705 0.0
C1070 C 0.9115 0.40385 0.94776 0.0
C1071 C 0.9152 0.42532 0.92761 0.0
C1072 C 0.891 0.4041 0.96652 0.0
C1073 C 0.87145 0.4199 0.96359 0.0
C1074 C 0.8701 0.43433 0.94149 0.0
C1075 C 0.88997 0.4351 0.92185 0.0
C1076 C 0.81185 0.41223 0.99083 0.0
C1077 C 0.81993 0.41146 0.00946 0.0
C1078 C 0.82902 0.41596 0.97588 0.0
C1079 C 0.85448 0.41883 0.9793 0.0
C1080 C 0.86298 0.41908 0.99792 0.0
C1081 C 0.84593 0.4155 0.01286 0.0
H1082 H 0.43111 0.88919 0.09894 0.0
H1083 H 0.51641 0.92803 0.11293 0.0
H1084 H 0.42012 0.87091 0.13056 0.0
H1085 H 0.50558 0.90915 0.14437 0.0
H1086 H 0.47756 0.88826 0.20441 0.0
H1087 H 0.48642 0.91011 0.17404 0.0
H1088 H 0.4228 0.83811 0.14843 0.0
H1089 H 0.41341 0.81657 0.17883 0.0
C1090 C 0.44748 0.89389 0.10884 0.0
C1091 C 0.47459 0.91011 0.10355 0.0
C1092 C 0.44122 0.88329 0.1269 0.0
C1093 C 0.46196 0.8885 0.14 0.0
C1094 C 0.48909 0.90505 0.13475 0.0
C1095 C 0.49533 0.91574 0.11673 0.0
C1096 C 0.46535 0.87717 0.19231 0.0
C1097 C 0.44486 0.85066 0.19401 0.0
C1098 C 0.47052 0.88965 0.17489 0.0
C1099 C 0.45541 0.87584 0.15877 0.0
C1100 C 0.43457 0.84946 0.16059 0.0
C1101 C 0.4293 0.83704 0.17801 0.0
H1102 H 0.59709 0.51216 0.27779 0.0
H1103 H 0.55949 0.43392 0.25411 0.0
H1104 H 0.60605 0.49639 0.30713 0.0
H1105 H 0.56902 0.41819 0.28325 0.0
H1106 H 0.57128 0.39458 0.3443 0.0
H1107 H 0.55776 0.40982 0.31661 0.0
H1108 H 0.6361 0.48149 0.31716 0.0
H1109 H 0.64934 0.46663 0.34485 0.0
C1110 C 0.59045 0.49152 0.27898 0.0
C1111 C 0.57717 0.47415 0.26381 0.0
C1112 C 0.59578 0.48252 0.29569 0.0
C1113 C 0.58826 0.45602 0.29752 0.0
C1114 C 0.57468 0.43861 0.28242 0.0
C1115 C 0.56931 0.44761 0.26572 0.0
C1116 C 0.58553 0.41362 0.33853 0.0
C1117 C 0.61138 0.42937 0.34678 0.0
C1118 C 0.57784 0.4223 0.32264 0.0
C1119 C 0.59582 0.44692 0.31473 0.0
C1120 C 0.62158 0.46265 0.32308 0.0
C1121 C 0.62925 0.454 0.3389 0.0
H1122 H 0.42979 0.92909 0.35701 0.0
H1123 H 0.44557 0.87145 0.38108 0.0
H1124 H 0.43252 0.91455 0.32556 0.0
H1125 H 0.44685 0.85582 0.34958 0.0
H1126 H 0.46085 0.84021 0.29 0.0
H1127 H 0.46892 0.86335 0.32006 0.0
H1128 H 0.40404 0.87752 0.30683 0.0
H1129 H 0.39681 0.85552 0.27677 0.0
C1130 C 0.43425 0.91355 0.35558 0.0
C1131 C 0.43785 0.90162 0.37153 0.0
C1132 C 0.43551 0.90499 0.33753 0.0
C1133 C 0.43968 0.88384 0.33498 0.0
C1134 C 0.44403 0.87241 0.35095 0.0
C1135 C 0.44314 0.88123 0.36901 0.0
C1136 C 0.44861 0.84862 0.29346 0.0
C1137 C 0.42811 0.84592 0.28105 0.0
C1138 C 0.45311 0.86174 0.31072 0.0
C1139 C 0.43708 0.87226 0.31594 0.0
C1140 C 0.41714 0.87014 0.30322 0.0
C1141 C 0.41282 0.85728 0.28597 0.0
H1142 H 0.53199 0.4276 0.52039 0.0
H1143 H 0.615 0.48943 0.5303 0.0
H1144 H 0.54398 0.41971 0.48918 0.0
H1145 H 0.62699 0.48159 0.4991 0.0
H1146 H 0.631 0.47482 0.43455 0.0
H1147 H 0.61777 0.48476 0.4646 0.0
H1148 H 0.5725 0.40202 0.47754 0.0
H1149 H 0.58557 0.39203 0.44766 0.0
C1150 C 0.55275 0.43957 0.51582 0.0
C1151 C 0.57258 0.45908 0.52775 0.0
C1152 C 0.55962 0.43502 0.49803 0.0
C1153 C 0.58643 0.45001 0.49176 0.0
C1154 C 0.60613 0.46992 0.5035 0.0
C1155 C 0.5993 0.47432 0.52137 0.0
C1156 C 0.61819 0.45877 0.4438 0.0
C1157 C 0.60939 0.43266 0.43874 0.0
C1158 C 0.61071 0.46448 0.46101 0.0
C1159 C 0.59405 0.44415 0.47335 0.0
C1160 C 0.58509 0.41806 0.46821 0.0
C1161 C 0.59276 0.41238 0.45114 0.0
H1162 H 0.09603 0.48491 0.6823 0.0
H1163 H 0.14799 0.56215 0.70637 0.0
H1164 H 0.11652 0.50102 0.65161 0.0
H1165 H 0.16907 0.57817 0.67589 0.0
H1166 H 0.18735 0.60475 0.61539 0.0
H1167 H 0.16156 0.5883 0.64427 0.0
H1168 H 0.15925 0.51491 0.637 0.0
H1169 H 0.18433 0.53104 0.60796 0.0
C1170 C 0.11162 0.50541 0.68094 0.0
C1171 C 0.12009 0.52242 0.69662 0.0
C1172 C 0.12354 0.5146 0.66343 0.0
C1173 C 0.14442 0.54091 0.66127 0.0
C1174 C 0.15271 0.55793 0.67695 0.0
C1175 C 0.14073 0.54876 0.69443 0.0
C1176 C 0.18115 0.58503 0.6199 0.0
C1177 C 0.18799 0.56925 0.60942 0.0
C1178 C 0.16649 0.57566 0.6365 0.0
C1179 C 0.15842 0.55032 0.643 0.0
C1180 C 0.1648 0.53437 0.63228 0.0
C1181 C 0.17936 0.5437 0.61567 0.0
H1182 H 0.62131 0.12683 0.87741 0.0
H1183 H 0.52169 0.07117 0.8555 0.0
H1184 H 0.63167 0.1601 0.84531 0.0
H1185 H 0.53463 0.1061 0.82369 0.0
H1186 H 0.56364 0.18328 0.78756 0.0
H1187 H 0.55202 0.15375 0.81457 0.0
H1188 H 0.63039 0.16086 0.81177 0.0
H1189 H 0.64201 0.19012 0.78521 0.0
C1190 C 0.60557 0.12223 0.86699 0.0
C1191 C 0.56935 0.09834 0.87165 0.0
C1192 C 0.61145 0.14357 0.84746 0.0
C1193 C 0.58404 0.13786 0.83165 0.0
C1194 C 0.55018 0.10967 0.83398 0.0
C1195 C 0.54221 0.08705 0.85315 0.0
C1196 C 0.57836 0.17856 0.79281 0.0
C1197 C 0.60378 0.18911 0.7843 0.0
C1198 C 0.57165 0.16157 0.80817 0.0
C1199 C 0.59043 0.1553 0.81536 0.0
C1200 C 0.61572 0.16581 0.80683 0.0
C1201 C 0.62229 0.18243 0.79145 0.0
H1202 H 0.42053 0.50515 0.00415 0.0
H1203 H 0.50588 0.56194 0.99877 0.0
H1204 H 0.41003 0.52878 0.9806 0.0
H1205 H 0.49542 0.58558 0.97524 0.0
H1206 H 0.46257 0.63311 0.94575 0.0
H1207 H 0.47228 0.61166 0.97149 0.0
H1208 H 0.41784 0.5359 0.94601 0.0
H1209 H 0.40807 0.55714 0.92042 0.0
C1210 C 0.43698 0.52281 0.99803 0.0
C1211 C 0.464 0.53172 0.00324 0.0
C1212 C 0.43101 0.53625 0.98453 0.0
C1213 C 0.45193 0.55895 0.97606 0.0
C1214 C 0.47889 0.56828 0.98166 0.0
C1215 C 0.48487 0.55471 0.99506 0.0
C1216 C 0.45266 0.61188 0.94568 0.0
C1217 C 0.43459 0.59682 0.93104 0.0
C1218 C 0.45828 0.59963 0.96037 0.0
C1219 C 0.44572 0.57212 0.96078 0.0
C1220 C 0.42754 0.55711 0.9462 0.0
C1221 C 0.42211 0.56932 0.93147 0.0
H1222 H 0.89875 0.39855 0.19555 0.0
H1223 H 0.96332 0.4571 0.16161 0.0
H1224 H 0.86674 0.38796 0.1693 0.0
H1225 H 0.93139 0.44643 0.13535 0.0
H1226 H 0.87404 0.39646 0.08712 0.0
H1227 H 0.9046 0.40725 0.1141 0.0
H1228 H 0.84566 0.4092 0.14995 0.0
H1229 H 0.81489 0.39837 0.12288 0.0
C1230 C 0.90598 0.40943 0.18258 0.0
C1231 C 0.93342 0.42907 0.18073 0.0
C1232 C 0.88769 0.40335 0.16757 0.0
C1233 C 0.89659 0.4164 0.15032 0.0
C1234 C 0.92401 0.43595 0.14846 0.0
C1235 C 0.94222 0.44219 0.1635 0.0
C1236 C 0.8675 0.39907 0.10075 0.0
C1237 C 0.84205 0.39659 0.10285 0.0
C1238 C 0.8851 0.40543 0.11618 0.0
C1239 C 0.87756 0.40922 0.13409 0.0
C1240 C 0.85192 0.40626 0.13631 0.0
C1241 C 0.83438 0.40016 0.12081 0.0
loop_
_geom_bond_atom_site_label_1
_geom_bond_atom_site_label_2
_geom_bond_distance
_geom_bond_site_symmetry_2
_ccdc_geom_bond_type
C0 C1 1.560 . S
C0 H61 0.959 . S
C0 H62 0.959 . S
C0 H63 0.960 . S
C1 C0 1.560 . S
C1 O56 1.426 . S
C1 H60 0.980 . S
C2 C3 1.407 . S
C2 C7 1.418 . S
C2 O56 1.334 . S
C3 C2 1.407 . S
C3 C4 1.360 . S
C3 H64 0.929 . S
C4 C3 1.360 . S
C4 C5 1.401 . S
C4 C8 1.527 . S
C5 C4 1.401 . S
C5 C6 1.405 . S
C5 C38 1.587 . S
C6 C5 1.405 . S
C6 C7 1.332 . S
C6 C9 1.496 . S
C7 C2 1.418 . S
C7 C6 1.332 . S
C7 H65 0.929 . S
C8 C4 1.527 . S
C8 H66 0.959 . S
C8 H67 0.961 . S
C8 H68 0.961 . S
C9 C6 1.496 . S
C9 H69 0.960 . S
C9 H70 0.960 . S
C9 H71 0.961 . S
C10 C11 1.517 . S
C10 H73 0.961 . S
C10 H74 0.960 . S
C10 H75 0.959 . S
C11 C10 1.517 . S
C11 O59 1.468 . S
C11 H72 0.980 . S
C12 C13 1.349 . S
C12 C17 1.367 . S
C12 O59 1.408 . S
C13 C12 1.349 . S
C13 C14 1.407 . S
C13 H76 0.930 . S
C14 C13 1.407 . S
C14 C15 1.449 . S
C14 C18 1.535 . S
C15 C14 1.449 . S
C15 C16 1.384 . S
C15 C40 1.553 1_655 S
C16 C15 1.384 . S
C16 C17 1.364 . S
C16 C19 1.450 . S
C17 C12 1.367 . S
C17 C16 1.364 . S
C17 H77 0.931 . S
C18 C14 1.535 . S
C18 H78 0.959 1_655 S
C18 H79 0.961 1_655 S
C18 H80 0.959 . S
C19 C16 1.450 . S
C19 H81 0.960 . S
C19 H82 0.960 1_655 S
C19 H83 0.960 . S
C20 C21 1.309 . S
C20 C25 1.304 . S
C20 O58 1.435 . S
C21 C20 1.309 . S
C21 C22 1.476 . S
C21 H85 0.930 . S
C22 C21 1.476 . S
C22 C23 1.400 . S
C22 C26 1.567 . S
C23 C22 1.400 . S
C23 C24 1.373 . S
C23 C45 1.432 . S
C24 C23 1.373 . S
C24 C25 1.339 . S
C24 C27 1.530 . S
C25 C20 1.304 . S
C25 C24 1.339 . S
C25 H86 0.930 . S
C26 C22 1.567 . S
C26 H87 0.961 . S
C26 H88 0.960 . S
C26 H89 0.958 . S
C27 C24 1.530 . S
C27 H90 0.961 . S
C27 H91 0.960 . S
C27 H92 0.960 . S
C28 C29 1.530 . S
C28 H94 0.961 . S
C28 H95 0.961 . S
C28 H96 0.959 . S
C29 C28 1.530 . S
C29 O57 1.412 . S
C29 H93 0.980 . S
C30 C31 1.288 . S
C30 C35 1.377 . S
C30 O57 1.393 . S
C31 C30 1.288 . S
C31 C32 1.369 . S
C31 H97 0.932 . S
C32 C31 1.369 . S
C32 C33 1.398 . S
C32 C36 1.527 . S
C33 C32 1.398 . S
C33 C34 1.380 . S
C33 C47 1.497 . S
C34 C33 1.380 . S
C34 C35 1.383 . S
C34 C37 1.603 . S
C35 C30 1.377 . S
C35 C34 1.383 . S
C35 H98 0.929 . S
C36 C32 1.527 . S
C36 H99 0.961 . S
C36 H100 0.959 . S
C36 H101 0.959 . S
C37 C34 1.603 . S
C37 H102 0.960 . S
C37 H103 0.962 . S
C37 H104 0.961 . S
C38 C5 1.587 . S
C38 C39 1.360 . S
C38 C51 1.412 . S
C39 C38 1.360 . S
C39 C40 1.365 . S
C39 H105 0.929 . S
C40 C15 1.553 1_455 S
C40 C39 1.365 . S
C40 C41 1.404 . S
C41 C40 1.404 . S
C41 C42 1.395 1_455 S
C41 C52 1.451 . S
C42 C41 1.395 1_655 S
C42 C43 1.322 . S
C42 H106 0.930 . S
C43 C42 1.322 . S
C43 C44 1.459 . S
C43 H107 0.929 . S
C44 C43 1.459 . S
C44 C45 1.445 . S
C44 C53 1.395 1_655 S
C45 C23 1.432 . S
C45 C44 1.445 . S
C45 C46 1.370 . S
C46 C45 1.370 . S
C46 C47 1.438 1_655 S
C46 H108 0.930 . S
C47 C33 1.497 . S
C47 C46 1.438 1_455 S
C47 C48 1.360 . S
C48 C47 1.360 . S
C48 C49 1.401 . S
C48 C53 1.446 . S
C49 C48 1.401 . S
C49 C50 1.347 . S
C49 H109 0.929 . S
C50 C49 1.347 . S
C50 C51 1.455 . S
C50 H110 0.930 . S
C51 C38 1.412 . S
C51 C50 1.455 . S
C51 C52 1.331 . S
C52 C41 1.451 . S
C52 C51 1.331 . S
C52 C53 1.497 . S
C53 C44 1.395 1_455 S
C53 C48 1.446 . S
C53 C52 1.497 . S
C54 C55 1.582 . S
C54 H111 0.962 . S
C54 H112 0.959 . S
C54 H113 0.958 . S
C55 C54 1.582 . S
C55 O58 1.458 . S
C55 H84 0.980 . S
O56 C1 1.426 . S
O56 C2 1.334 . S
O57 C29 1.412 . S
O57 C30 1.393 . S
O58 C20 1.435 . S
O58 C55 1.458 . S
O59 C11 1.468 . S
O59 C12 1.408 . S
H60 C1 0.980 . S
H61 C0 0.959 . S
H62 C0 0.959 . S
H63 C0 0.960 . S
H64 C3 0.929 . S
H65 C7 0.929 . S
H66 C8 0.959 . S
H67 C8 0.961 . S
H68 C8 0.961 . S
H69 C9 0.960 . S
H70 C9 0.960 . S
H71 C9 0.961 . S
H72 C11 0.980 . S
H73 C10 0.961 . S
H74 C10 0.960 . S
H75 C10 0.959 . S
H76 C13 0.930 . S
H77 C17 0.931 . S
H78 C18 0.959 1_455 S
H79 C18 0.961 1_455 S
H80 C18 0.959 . S
H81 C19 0.960 . S
H82 C19 0.960 1_455 S
H83 C19 0.960 . S
H84 C55 0.980 . S
H85 C21 0.930 . S
H86 C25 0.930 . S
H87 C26 0.961 . S
H88 C26 0.960 . S
H89 C26 0.958 . S
H90 C27 0.961 . S
H91 C27 0.960 . S
H92 C27 0.960 . S
H93 C29 0.980 . S
H94 C28 0.961 . S
H95 C28 0.961 . S
H96 C28 0.959 . S
H97 C31 0.932 . S
H98 C35 0.929 . S
H99 C36 0.961 . S
H100 C36 0.959 . S
H101 C36 0.959 . S
H102 C37 0.960 . S
H103 C37 0.962 . S
H104 C37 0.961 . S
H105 C39 0.929 . S
H106 C42 0.930 . S
H107 C43 0.929 . S
H108 C46 0.930 . S
H109 C49 0.929 . S
H110 C50 0.930 . S
H111 C54 0.962 . S
H112 C54 0.959 . S
H113 C54 0.958 . S
C114 C115 1.560 . S
C114 H175 0.959 . S
C114 H176 0.959 . S
C114 H177 0.960 . S
C115 C114 1.560 . S
C115 O170 1.426 . S
C115 H174 0.980 . S
C116 C117 1.407 . S
C116 C121 1.418 . S
C116 O170 1.334 . S
C117 C116 1.407 . S
C117 C118 1.360 . S
C117 H178 0.929 . S
C118 C117 1.360 . S
C118 C119 1.401 . S
C118 C122 1.527 . S
C119 C118 1.401 . S
C119 C120 1.405 . S
C119 C152 1.587 . S
C120 C119 1.405 . S
C120 C121 1.332 . S
C120 C123 1.496 . S
C121 C116 1.418 . S
C121 C120 1.332 . S
C121 H179 0.929 . S
C122 C118 1.527 . S
C122 H180 0.959 . S
C122 H181 0.961 . S
C122 H182 0.961 . S
C123 C120 1.496 . S
C123 H183 0.960 . S
C123 H184 0.960 . S
C123 H185 0.961 . S
C124 C125 1.517 . S
C124 H187 0.961 . S
C124 H188 0.960 . S
C124 H189 0.959 . S
C125 C124 1.517 . S
C125 O173 1.468 . S
C125 H186 0.980 . S
C126 C127 1.349 . S
C126 C131 1.367 . S
C126 O173 1.408 . S
C127 C126 1.349 . S
C127 C128 1.407 . S
C127 H190 0.930 . S
C128 C127 1.407 . S
C128 C129 1.449 . S
C128 C132 1.535 . S
C129 C128 1.449 . S
C129 C130 1.384 . S
C129 C154 1.553 . S
C130 C129 1.384 . S
C130 C131 1.364 . S
C130 C133 1.450 . S
C131 C126 1.367 . S
C131 C130 1.364 . S
C131 H191 0.931 . S
C132 C128 1.535 . S
C132 H192 0.959 . S
C132 H193 0.961 . S
C132 H194 0.959 . S
C133 C130 1.450 . S
C133 H195 0.960 . S
C133 H196 0.960 . S
C133 H197 0.960 . S
C134 C135 1.309 . S
C134 C139 1.304 . S
C134 O172 1.435 . S
C135 C134 1.309 . S
C135 C136 1.476 . S
C135 H199 0.930 . S
C136 C135 1.476 . S
C136 C137 1.400 . S
C136 C140 1.567 . S
C137 C136 1.400 . S
C137 C138 1.373 . S
C137 C159 1.432 . S
C138 C137 1.373 . S
C138 C139 1.339 . S
C138 C141 1.530 . S
C139 C134 1.304 . S
C139 C138 1.339 . S
C139 H200 0.930 . S
C140 C136 1.567 . S
C140 H201 0.961 . S
C140 H202 0.960 . S
C140 H203 0.958 . S
C141 C138 1.530 . S
C141 H204 0.961 . S
C141 H205 0.960 . S
C141 H206 0.960 . S
C142 C143 1.530 . S
C142 H208 0.961 . S
C142 H209 0.961 . S
C142 H210 0.959 . S
C143 C142 1.530 . S
C143 O171 1.412 . S
C143 H207 0.980 . S
C144 C145 1.288 . S
C144 C149 1.377 . S
C144 O171 1.393 . S
C145 C144 1.288 . S
C145 C146 1.369 . S
C145 H211 0.932 . S
C146 C145 1.369 . S
C146 C147 1.398 . S
C146 C150 1.527 1_565 S
C147 C146 1.398 . S
C147 C148 1.380 . S
C147 C161 1.497 1_565 S
C148 C147 1.380 . S
C148 C149 1.383 . S
C148 C151 1.603 . S
C149 C144 1.377 . S
C149 C148 1.383 . S
C149 H212 0.929 . S
C150 C146 1.527 1_545 S
C150 H213 0.961 . S
C150 H214 0.959 . S
C150 H215 0.958 1_545 S
C151 C148 1.603 . S
C151 H216 0.960 . S
C151 H217 0.962 1_565 S
C151 H218 0.961 . S
C152 C119 1.587 . S
C152 C153 1.360 . S
C152 C165 1.412 . S
C153 C152 1.360 . S
C153 C154 1.365 1_565 S
C153 H219 0.929 . S
C154 C129 1.553 . S
C154 C153 1.365 1_545 S
C154 C155 1.404 . S
C155 C154 1.404 . S
C155 C156 1.395 . S
C155 C166 1.451 . S
C156 C155 1.395 . S
C156 C157 1.322 . S
C156 H220 0.930 . S
C157 C156 1.322 . S
C157 C158 1.459 . S
C157 H221 0.929 . S
C158 C157 1.459 . S
C158 C159 1.445 . S
C158 C167 1.395 . S
C159 C137 1.432 . S
C159 C158 1.445 . S
C159 C160 1.370 . S
C160 C159 1.370 . S
C160 C161 1.438 . S
C160 H222 0.930 . S
C161 C147 1.497 1_545 S
C161 C160 1.438 . S
C161 C162 1.360 . S
C162 C161 1.360 . S
C162 C163 1.401 1_545 S
C162 C167 1.446 . S
C163 C162 1.401 1_565 S
C163 C164 1.347 . S
C163 H223 0.929 . S
C164 C163 1.347 . S
C164 C165 1.455 . S
C164 H224 0.930 . S
C165 C152 1.412 . S
C165 C164 1.455 . S
C165 C166 1.331 1_565 S
C166 C155 1.451 . S
C166 C165 1.331 1_545 S
C166 C167 1.497 . S
C167 C158 1.395 . S
C167 C162 1.446 . S
C167 C166 1.497 . S
C168 C169 1.582 . S
C168 H225 0.962 . S
C168 H226 0.959 . S
C168 H227 0.958 . S
C169 C168 1.582 . S
C169 O172 1.458 . S
C169 H198 0.980 . S
O170 C115 1.426 . S
O170 C116 1.334 . S
O171 C143 1.412 . S
O171 C144 1.393 . S
O172 C134 1.435 . S
O172 C169 1.458 . S
O173 C125 1.468 . S
O173 C126 1.408 . S
H174 C115 0.980 . S
H175 C114 0.959 . S
H176 C114 0.959 . S
H177 C114 0.960 . S
H178 C117 0.929 . S
H179 C121 0.929 . S
H180 C122 0.959 . S
H181 C122 0.961 . S
H182 C122 0.961 . S
H183 C123 0.960 . S
H184 C123 0.960 . S
H185 C123 0.961 . S
H186 C125 0.980 . S
H187 C124 0.961 . S
H188 C124 0.960 . S
H189 C124 0.959 . S
H190 C127 0.930 . S
H191 C131 0.931 . S
H192 C132 0.959 . S
H193 C132 0.961 . S
H194 C132 0.959 . S
H195 C133 0.960 . S
H196 C133 0.960 . S
H197 C133 0.960 . S
H198 C169 0.980 . S
H199 C135 0.930 . S
H200 C139 0.930 . S
H201 C140 0.961 . S
H202 C140 0.960 . S
H203 C140 0.958 . S
H204 C141 0.961 . S
H205 C141 0.960 . S
H206 C141 0.960 . S
H207 C143 0.980 . S
H208 C142 0.961 . S
H209 C142 0.961 . S
H210 C142 0.959 . S
H211 C145 0.932 . S
H212 C149 0.929 . S
H213 C150 0.961 . S
H214 C150 0.959 . S
H215 C150 0.958 1_565 S
H216 C151 0.960 . S
H217 C151 0.962 1_545 S
H218 C151 0.961 . S
H219 C153 0.929 . S
H220 C156 0.930 . S
H221 C157 0.929 . S
H222 C160 0.930 . S
H223 C163 0.929 . S
H224 C164 0.930 . S
H225 C168 0.962 . S
H226 C168 0.959 . S
H227 C168 0.958 . S
C228 C229 1.560 . S
C228 H289 0.959 . S
C228 H290 0.959 . S
C228 H291 0.960 . S
C229 C228 1.560 . S
C229 O284 1.426 . S
C229 H288 0.980 . S
C230 C231 1.407 . S
C230 C235 1.418 . S
C230 O284 1.334 . S
C231 C230 1.407 . S
C231 C232 1.360 . S
C231 H292 0.929 . S
C232 C231 1.360 . S
C232 C233 1.401 . S
C232 C236 1.527 . S
C233 C232 1.401 . S
C233 C234 1.405 . S
C233 C266 1.587 . S
C234 C233 1.405 . S
C234 C235 1.332 . S
C234 C237 1.496 . S
C235 C230 1.418 . S
C235 C234 1.332 . S
C235 H293 0.929 . S
C236 C232 1.527 . S
C236 H294 0.959 . S
C236 H295 0.961 . S
C236 H296 0.961 . S
C237 C234 1.496 . S
C237 H297 0.960 . S
C237 H298 0.960 . S
C237 H299 0.961 . S
C238 C239 1.517 . S
C238 H301 0.961 . S
C238 H302 0.960 . S
C238 H303 0.959 . S
C239 C238 1.517 . S
C239 O287 1.468 . S
C239 H300 0.980 . S
C240 C241 1.349 . S
C240 C245 1.367 . S
C240 O287 1.408 . S
C241 C240 1.349 . S
C241 C242 1.407 . S
C241 H304 0.930 . S
C242 C241 1.407 . S
C242 C243 1.449 . S
C242 C246 1.535 . S
C243 C242 1.449 . S
C243 C244 1.384 . S
C243 C268 1.553 . S
C244 C243 1.384 . S
C244 C245 1.364 . S
C244 C247 1.450 . S
C245 C240 1.367 . S
C245 C244 1.364 . S
C245 H305 0.931 . S
C246 C242 1.535 . S
C246 H306 0.959 . S
C246 H307 0.961 . S
C246 H308 0.959 . S
C247 C244 1.450 . S
C247 H309 0.960 . S
C247 H310 0.960 . S
C247 H311 0.960 . S
C248 C249 1.309 . S
C248 C253 1.304 . S
C248 O286 1.435 . S
C249 C248 1.309 . S
C249 C250 1.476 . S
C249 H313 0.930 . S
C250 C249 1.476 . S
C250 C251 1.400 . S
C250 C254 1.567 . S
C251 C250 1.400 . S
C251 C252 1.373 . S
C251 C273 1.432 . S
C252 C251 1.373 . S
C252 C253 1.339 . S
C252 C255 1.530 . S
C253 C248 1.304 . S
C253 C252 1.339 . S
C253 H314 0.930 . S
C254 C250 1.567 . S
C254 H315 0.961 . S
C254 H316 0.960 . S
C254 H317 0.958 . S
C255 C252 1.530 . S
C255 H318 0.961 . S
C255 H319 0.960 . S
C255 H320 0.960 . S
C256 C257 1.530 . S
C256 H322 0.961 . S
C256 H323 0.961 . S
C256 H324 0.959 . S
C257 C256 1.530 . S
C257 O285 1.412 . S
C257 H321 0.980 . S
C258 C259 1.288 . S
C258 C263 1.377 . S
C258 O285 1.393 . S
C259 C258 1.288 . S
C259 C260 1.369 . S
C259 H325 0.932 . S
C260 C259 1.369 . S
C260 C261 1.398 . S
C260 C264 1.527 . S
C261 C260 1.398 . S
C261 C262 1.380 . S
C261 C275 1.497 . S
C262 C261 1.380 . S
C262 C263 1.383 . S
C262 C265 1.603 . S
C263 C258 1.377 . S
C263 C262 1.383 . S
C263 H326 0.929 . S
C264 C260 1.527 . S
C264 H327 0.961 . S
C264 H328 0.959 . S
C264 H329 0.959 . S
C265 C262 1.603 . S
C265 H330 0.960 . S
C265 H331 0.962 . S
C265 H332 0.961 . S
C266 C233 1.587 . S
C266 C267 1.360 . S
C266 C279 1.412 . S
C267 C266 1.360 . S
C267 C268 1.365 . S
C267 H333 0.929 . S
C268 C243 1.553 . S
C268 C267 1.365 . S
C268 C269 1.404 . S
C269 C268 1.404 . S
C269 C270 1.395 . S
C269 C280 1.451 . S
C270 C269 1.395 . S
C270 C271 1.322 . S
C270 H334 0.930 . S
C271 C270 1.322 . S
C271 C272 1.459 . S
C271 H335 0.929 . S
C272 C271 1.459 . S
C272 C273 1.445 . S
C272 C281 1.395 . S
C273 C251 1.432 . S
C273 C272 1.445 . S
C273 C274 1.370 . S
C274 C273 1.370 . S
C274 C275 1.438 . S
C274 H336 0.930 . S
C275 C261 1.497 . S
C275 C274 1.438 . S
C275 C276 1.360 . S
C276 C275 1.360 . S
C276 C277 1.401 . S
C276 C281 1.446 . S
C277 C276 1.401 . S
C277 C278 1.347 . S
C277 H337 0.929 . S
C278 C277 1.347 . S
C278 C279 1.455 . S
C278 H338 0.930 . S
C279 C266 1.412 . S
C279 C278 1.455 . S
C279 C280 1.331 . S
C280 C269 1.451 . S
C280 C279 1.331 . S
C280 C281 1.497 . S
C281 C272 1.395 . S
C281 C276 1.446 . S
C281 C280 1.497 . S
C282 C283 1.582 . S
C282 H339 0.962 . S
C282 H340 0.959 . S
C282 H341 0.958 . S
C283 C282 1.582 . S
C283 O286 1.458 . S
C283 H312 0.980 . S
O284 C229 1.426 . S
O284 C230 1.334 . S
O285 C257 1.412 . S
O285 C258 1.393 . S
O286 C248 1.435 . S
O286 C283 1.458 . S
O287 C239 1.468 . S
O287 C240 1.408 . S
H288 C229 0.980 . S
H289 C228 0.959 . S
H290 C228 0.959 . S
H291 C228 0.960 . S
H292 C231 0.929 . S
H293 C235 0.929 . S
H294 C236 0.959 . S
H295 C236 0.961 . S
H296 C236 0.961 . S
H297 C237 0.960 . S
H298 C237 0.960 . S
H299 C237 0.961 . S
H300 C239 0.980 . S
H301 C238 0.961 . S
H302 C238 0.960 . S
H303 C238 0.959 . S
H304 C241 0.930 . S
H305 C245 0.931 . S
H306 C246 0.959 . S
H307 C246 0.961 . S
H308 C246 0.959 . S
H309 C247 0.960 . S
H310 C247 0.960 . S
H311 C247 0.960 . S
H312 C283 0.980 . S
H313 C249 0.930 . S
H314 C253 0.930 . S
H315 C254 0.961 . S
H316 C254 0.960 . S
H317 C254 0.958 . S
H318 C255 0.961 . S
H319 C255 0.960 . S
H320 C255 0.960 . S
H321 C257 0.980 . S
H322 C256 0.961 . S
H323 C256 0.961 . S
H324 C256 0.959 . S
H325 C259 0.932 . S
H326 C263 0.929 . S
H327 C264 0.961 . S
H328 C264 0.959 . S
H329 C264 0.959 . S
H330 C265 0.960 . S
H331 C265 0.962 . S
H332 C265 0.961 . S
H333 C267 0.929 . S
H334 C270 0.930 . S
H335 C271 0.929 . S
H336 C274 0.930 . S
H337 C277 0.929 . S
H338 C278 0.930 . S
H339 C282 0.962 . S
H340 C282 0.959 . S
H341 C282 0.958 . S
C342 C343 1.560 . S
C342 H403 0.959 . S
C342 H404 0.959 . S
C342 H405 0.960 . S
C343 C342 1.560 . S
C343 O398 1.426 . S
C343 H402 0.980 . S
C344 C345 1.407 . S
C344 C349 1.418 . S
C344 O398 1.334 . S
C345 C344 1.407 . S
C345 C346 1.360 . S
C345 H406 0.929 . S
C346 C345 1.360 . S
C346 C347 1.401 . S
C346 C350 1.527 . S
C347 C346 1.401 . S
C347 C348 1.405 . S
C347 C380 1.587 . S
C348 C347 1.405 . S
C348 C349 1.332 . S
C348 C351 1.496 . S
C349 C344 1.418 . S
C349 C348 1.332 . S
C349 H407 0.929 . S
C350 C346 1.527 . S
C350 H408 0.959 . S
C350 H409 0.961 . S
C350 H410 0.961 . S
C351 C348 1.496 . S
C351 H411 0.960 . S
C351 H412 0.960 . S
C351 H413 0.961 . S
C352 C353 1.517 . S
C352 H415 0.961 . S
C352 H416 0.960 . S
C352 H417 0.959 . S
C353 C352 1.517 . S
C353 O401 1.468 . S
C353 H414 0.980 . S
C354 C355 1.349 . S
C354 C359 1.367 . S
C354 O401 1.408 . S
C355 C354 1.349 . S
C355 C356 1.407 . S
C355 H418 0.930 . S
C356 C355 1.407 . S
C356 C357 1.449 . S
C356 C360 1.534 . S
C357 C356 1.449 . S
C357 C358 1.384 . S
C357 C382 1.553 1_655 S
C358 C357 1.384 . S
C358 C359 1.364 . S
C358 C361 1.450 . S
C359 C354 1.367 . S
C359 C358 1.364 . S
C359 H419 0.931 . S
C360 C356 1.534 . S
C360 H420 0.960 1_655 S
C360 H421 0.962 1_655 S
C360 H422 0.958 . S
C361 C358 1.450 . S
C361 H423 0.960 . S
C361 H424 0.960 1_655 S
C361 H425 0.960 . S
C362 C363 1.309 . S
C362 C367 1.304 . S
C362 O400 1.435 . S
C363 C362 1.309 . S
C363 C364 1.476 . S
C363 H427 0.930 . S
C364 C363 1.476 . S
C364 C365 1.400 . S
C364 C368 1.567 . S
C365 C364 1.400 . S
C365 C366 1.373 . S
C365 C387 1.432 . S
C366 C365 1.373 . S
C366 C367 1.339 . S
C366 C369 1.530 . S
C367 C362 1.304 . S
C367 C366 1.339 . S
C367 H428 0.930 . S
C368 C364 1.567 . S
C368 H429 0.961 . S
C368 H430 0.960 . S
C368 H431 0.958 . S
C369 C366 1.530 . S
C369 H432 0.961 . S
C369 H433 0.960 . S
C369 H434 0.960 . S
C370 C371 1.530 . S
C370 H436 0.961 . S
C370 H437 0.961 . S
C370 H438 0.959 . S
C371 C370 1.530 . S
C371 O399 1.412 . S
C371 H435 0.980 . S
C372 C373 1.288 . S
C372 C377 1.377 . S
C372 O399 1.393 . S
C373 C372 1.288 . S
C373 C374 1.369 . S
C373 H439 0.932 . S
C374 C373 1.369 . S
C374 C375 1.398 . S
C374 C378 1.527 . S
C375 C374 1.398 . S
C375 C376 1.380 . S
C375 C389 1.497 . S
C376 C375 1.380 . S
C376 C377 1.383 . S
C376 C379 1.603 . S
C377 C372 1.377 . S
C377 C376 1.383 . S
C377 H440 0.929 . S
C378 C374 1.527 . S
C378 H441 0.961 . S
C378 H442 0.995 . S
C378 H443 0.959 . S
C379 C376 1.603 . S
C379 H444 0.960 . S
C379 H445 0.962 . S
C379 H446 0.961 . S
C380 C347 1.587 . S
C380 C381 1.360 . S
C380 C393 1.412 . S
C381 C380 1.360 . S
C381 C382 1.365 . S
C381 H447 0.929 . S
C382 C357 1.553 1_455 S
C382 C381 1.365 . S
C382 C383 1.404 . S
C383 C382 1.404 . S
C383 C384 1.395 1_455 S
C383 C394 1.451 . S
C384 C383 1.395 1_655 S
C384 C385 1.322 . S
C384 H448 0.930 . S
C385 C384 1.322 . S
C385 C386 1.459 . S
C385 H449 0.929 . S
C386 C385 1.459 . S
C386 C387 1.445 . S
C386 C395 1.395 1_655 S
C387 C365 1.432 . S
C387 C386 1.445 . S
C387 C388 1.370 . S
C388 C387 1.370 . S
C388 C389 1.438 1_655 S
C388 H450 0.930 . S
C389 C375 1.497 . S
C389 C388 1.438 1_455 S
C389 C390 1.360 . S
C390 C389 1.360 . S
C390 C391 1.401 . S
C390 C395 1.446 . S
C391 C390 1.401 . S
C391 C392 1.347 . S
C391 H451 0.929 . S
C392 C391 1.347 . S
C392 C393 1.455 . S
C392 H452 0.930 . S
C393 C380 1.412 . S
C393 C392 1.455 . S
C393 C394 1.331 . S
C394 C383 1.451 . S
C394 C393 1.331 . S
C394 C395 1.497 . S
C395 C386 1.395 1_455 S
C395 C390 1.446 . S
C395 C394 1.497 . S
C396 C397 1.582 . S
C396 H453 0.962 . S
C396 H454 0.959 . S
C396 H455 0.958 . S
C397 C396 1.582 . S
C397 O400 1.458 . S
C397 H426 0.980 . S
O398 C343 1.426 . S
O398 C344 1.334 . S
O399 C371 1.412 . S
O399 C372 1.393 . S
O400 C362 1.435 . S
O400 C397 1.458 . S
O401 C353 1.468 . S
O401 C354 1.408 . S
H402 C343 0.980 . S
H403 C342 0.959 . S
H404 C342 0.959 . S
H405 C342 0.960 . S
H406 C345 0.929 . S
H407 C349 0.929 . S
H408 C350 0.959 . S
H409 C350 0.961 . S
H410 C350 0.961 . S
H411 C351 0.960 . S
H412 C351 0.960 . S
H413 C351 0.961 . S
H414 C353 0.980 . S
H415 C352 0.961 . S
H416 C352 0.960 . S
H417 C352 0.959 . S
H418 C355 0.930 . S
H419 C359 0.931 . S
H420 C360 0.960 1_455 S
H421 C360 0.962 1_455 S
H422 C360 0.958 . S
H423 C361 0.960 . S
H424 C361 0.960 1_455 S
H425 C361 0.960 . S
H426 C397 0.980 . S
H427 C363 0.930 . S
H428 C367 0.930 . S
H429 C368 0.961 . S
H430 C368 0.960 . S
H431 C368 0.958 . S
H432 C369 0.961 . S
H433 C369 0.960 . S
H434 C369 0.960 . S
H435 C371 0.980 . S
H436 C370 0.961 . S
H437 C370 0.961 . S
H438 C370 0.959 . S
H439 C373 0.932 . S
H440 C377 0.929 . S
H441 C378 0.961 . S
H442 C378 0.995 . S
H443 C378 0.959 . S
H444 C379 0.960 . S
H445 C379 0.962 . S
H446 C379 0.961 . S
H447 C381 0.929 . S
H448 C384 0.930 . S
H449 C385 0.929 . S
H450 C388 0.930 . S
H451 C391 0.929 . S
H452 C392 0.930 . S
H453 C396 0.962 . S
H454 C396 0.959 . S
H455 C396 0.958 . S
C456 C457 1.560 . S
C456 H517 0.959 . S
C456 H518 0.959 . S
C456 H519 0.960 . S
C457 C456 1.560 . S
C457 O512 1.426 . S
C457 H516 0.980 . S
C458 C459 1.407 . S
C458 C463 1.418 . S
C458 O512 1.334 . S
C459 C458 1.407 . S
C459 C460 1.360 . S
C459 H520 0.929 . S
C460 C459 1.360 . S
C460 C461 1.401 . S
C460 C464 1.527 . S
C461 C460 1.401 . S
C461 C462 1.405 . S
C461 C494 1.587 . S
C462 C461 1.405 . S
C462 C463 1.332 . S
C462 C465 1.496 . S
C463 C458 1.418 . S
C463 C462 1.332 . S
C463 H521 0.929 . S
C464 C460 1.527 . S
C464 H522 0.959 . S
C464 H523 0.961 . S
C464 H524 0.961 . S
C465 C462 1.496 . S
C465 H525 0.960 . S
C465 H526 0.960 . S
C465 H527 0.961 . S
C466 C467 1.517 . S
C466 H529 0.961 . S
C466 H530 0.960 . S
C466 H531 0.959 . S
C467 C466 1.517 . S
C467 O515 1.468 . S
C467 H528 0.980 . S
C468 C469 1.349 . S
C468 C473 1.367 . S
C468 O515 1.408 . S
C469 C468 1.349 . S
C469 C470 1.407 . S
C469 H532 0.930 . S
C470 C469 1.407 . S
C470 C471 1.449 . S
C470 C474 1.535 . S
C471 C470 1.449 . S
C471 C472 1.384 . S
C471 C496 1.553 . S
C472 C471 1.384 . S
C472 C473 1.364 . S
C472 C475 1.450 . S
C473 C468 1.367 . S
C473 C472 1.364 . S
C473 H533 0.931 . S
C474 C470 1.535 . S
C474 H534 0.959 . S
C474 H535 0.961 . S
C474 H536 0.959 . S
C475 C472 1.450 . S
C475 H537 0.960 . S
C475 H538 0.960 . S
C475 H539 0.960 . S
C476 C477 1.309 . S
C476 C481 1.304 . S
C476 O514 1.435 . S
C477 C476 1.309 . S
C477 C478 1.476 . S
C477 H541 0.930 . S
C478 C477 1.476 . S
C478 C479 1.400 . S
C478 C482 1.567 . S
C479 C478 1.400 . S
C479 C480 1.373 . S
C479 C501 1.432 . S
C480 C479 1.373 . S
C480 C481 1.339 . S
C480 C483 1.530 . S
C481 C476 1.304 . S
C481 C480 1.339 . S
C481 H542 0.930 . S
C482 C478 1.567 . S
C482 H543 0.961 . S
C482 H544 0.960 . S
C482 H545 0.958 . S
C483 C480 1.530 . S
C483 H546 0.961 . S
C483 H547 0.960 . S
C483 H548 0.960 . S
C484 C485 1.530 . S
C484 H550 0.961 . S
C484 H551 0.961 . S
C484 H552 0.959 . S
C485 C484 1.530 . S
C485 O513 1.412 . S
C485 H549 0.980 . S
C486 C487 1.288 . S
C486 C491 1.377 . S
C486 O513 1.393 . S
C487 C486 1.288 . S
C487 C488 1.369 . S
C487 H553 0.932 . S
C488 C487 1.369 . S
C488 C489 1.398 . S
C488 C492 1.527 1_565 S
C489 C488 1.398 . S
C489 C490 1.380 . S
C489 C503 1.497 1_565 S
C490 C489 1.380 . S
C490 C491 1.383 . S
C490 C493 1.603 . S
C491 C486 1.377 . S
C491 C490 1.383 . S
C491 H554 0.929 . S
C492 C488 1.527 1_545 S
C492 H555 0.961 . S
C492 H556 0.959 . S
C492 H557 0.959 . S
C493 C490 1.603 . S
C493 H558 0.960 . S
C493 H559 0.962 . S
C493 H560 0.961 . S
C494 C461 1.587 . S
C494 C495 1.360 . S
C494 C507 1.412 . S
C495 C494 1.360 . S
C495 C496 1.365 1_565 S
C495 H561 0.929 . S
C496 C471 1.553 . S
C496 C495 1.365 1_545 S
C496 C497 1.404 . S
C497 C496 1.404 . S
C497 C498 1.395 . S
C497 C508 1.451 . S
C498 C497 1.395 . S
C498 C499 1.322 . S
C498 H562 0.930 . S
C499 C498 1.322 . S
C499 C500 1.459 . S
C499 H563 0.929 . S
C500 C499 1.459 . S
C500 C501 1.445 1_556 S
C500 C509 1.395 . S
C501 C479 1.432 . S
C501 C500 1.445 1_554 S
C501 C502 1.370 . S
C502 C501 1.370 . S
C502 C503 1.438 . S
C502 H564 0.930 . S
C503 C489 1.497 1_545 S
C503 C502 1.438 . S
C503 C504 1.360 . S
C504 C503 1.360 . S
C504 C505 1.401 1_545 S
C504 C509 1.446 1_554 S
C505 C504 1.401 1_565 S
C505 C506 1.347 1_554 S
C505 H565 0.929 . S
C506 C505 1.347 1_556 S
C506 C507 1.455 . S
C506 H566 0.930 . S
C507 C494 1.412 . S
C507 C506 1.455 . S
C507 C508 1.331 1_565 S
C508 C497 1.451 . S
C508 C507 1.331 1_545 S
C508 C509 1.497 . S
C509 C500 1.395 . S
C509 C504 1.446 1_556 S
C509 C508 1.497 . S
C510 C511 1.582 . S
C510 H567 0.962 . S
C510 H568 0.959 . S
C510 H569 0.958 . S
C511 C510 1.582 . S
C511 O514 1.458 . S
C511 H540 0.980 . S
O512 C457 1.426 . S
O512 C458 1.334 . S
O513 C485 1.412 . S
O513 C486 1.393 . S
O514 C476 1.435 . S
O514 C511 1.458 . S
O515 C467 1.468 . S
O515 C468 1.408 . S
H516 C457 0.980 . S
H517 C456 0.959 . S
H518 C456 0.959 . S
H519 C456 0.960 . S
H520 C459 0.929 . S
H521 C463 0.929 . S
H522 C464 0.959 . S
H523 C464 0.961 . S
H524 C464 0.961 . S
H525 C465 0.960 . S
H526 C465 0.960 . S
H527 C465 0.961 . S
H528 C467 0.980 . S
H529 C466 0.961 . S
H530 C466 0.960 . S
H531 C466 0.959 . S
H532 C469 0.930 . S
H533 C473 0.931 . S
H534 C474 0.959 . S
H535 C474 0.961 . S
H536 C474 0.959 . S
H537 C475 0.960 . S
H538 C475 0.960 . S
H539 C475 0.960 . S
H540 C511 0.980 . S
H541 C477 0.930 . S
H542 C481 0.930 . S
H543 C482 0.961 . S
H544 C482 0.960 . S
H545 C482 0.958 . S
H546 C483 0.961 . S
H547 C483 0.960 . S
H548 C483 0.960 . S
H549 C485 0.980 . S
H550 C484 0.961 . S
H551 C484 0.961 . S
H552 C484 0.959 . S
H553 C487 0.932 . S
H554 C491 0.929 . S
H555 C492 0.961 . S
H556 C492 0.959 . S
H557 C492 0.959 . S
H558 C493 0.960 . S
H559 C493 0.962 . S
H560 C493 0.961 . S
H561 C495 0.929 . S
H562 C498 0.930 . S
H563 C499 0.929 . S
H564 C502 0.930 . S
H565 C505 0.929 . S
H566 C506 0.930 . S
H567 C510 0.962 . S
H568 C510 0.959 . S
H569 C510 0.958 . S
C570 C571 1.560 . S
C570 H631 0.959 . S
C570 H632 0.959 . S
C570 H633 0.960 . S
C571 C570 1.560 . S
C571 O626 1.426 . S
C571 H630 0.980 . S
C572 C573 1.407 . S
C572 C577 1.418 . S
C572 O626 1.334 . S
C573 C572 1.407 . S
C573 C574 1.360 . S
C573 H634 0.929 . S
C574 C573 1.360 . S
C574 C575 1.401 . S
C574 C578 1.527 . S
C575 C574 1.401 . S
C575 C576 1.405 . S
C575 C608 1.587 . S
C576 C575 1.405 . S
C576 C577 1.332 . S
C576 C579 1.496 . S
C577 C572 1.418 . S
C577 C576 1.332 . S
C577 H635 0.929 . S
C578 C574 1.527 . S
C578 H636 0.959 . S
C578 H637 0.961 . S
C578 H638 0.961 . S
C579 C576 1.496 . S
C579 H639 0.960 . S
C579 H640 0.960 . S
C579 H641 0.961 . S
C580 C581 1.517 . S
C580 H643 0.961 . S
C580 H644 0.960 . S
C580 H645 0.959 . S
C581 C580 1.517 . S
C581 O629 1.468 . S
C581 H642 0.980 . S
C582 C583 1.349 . S
C582 C587 1.367 . S
C582 O629 1.408 . S
C583 C582 1.349 . S
C583 C584 1.407 . S
C583 H646 0.930 . S
C584 C583 1.407 . S
C584 C585 1.449 . S
C584 C588 1.535 . S
C585 C584 1.449 . S
C585 C586 1.384 . S
C585 C610 1.553 . S
C586 C585 1.384 . S
C586 C587 1.364 . S
C586 C589 1.450 . S
C587 C582 1.367 . S
C587 C586 1.364 . S
C587 H647 0.931 . S
C588 C584 1.535 . S
C588 H648 0.959 . S
C588 H649 0.961 . S
C588 H650 0.959 . S
C589 C586 1.450 . S
C589 H651 0.960 . S
C589 H652 0.960 . S
C589 H653 0.960 . S
C590 C591 1.309 . S
C590 C595 1.304 . S
C590 O628 1.435 . S
C591 C590 1.309 . S
C591 C592 1.476 . S
C591 H655 0.930 . S
C592 C591 1.476 . S
C592 C593 1.400 . S
C592 C596 1.567 . S
C593 C592 1.400 . S
C593 C594 1.373 . S
C593 C615 1.432 . S
C594 C593 1.373 . S
C594 C595 1.339 . S
C594 C597 1.530 . S
C595 C590 1.304 . S
C595 C594 1.339 . S
C595 H656 0.930 . S
C596 C592 1.567 . S
C596 H657 0.961 . S
C596 H658 0.960 . S
C596 H659 0.958 . S
C597 C594 1.530 . S
C597 H660 0.961 . S
C597 H661 0.960 . S
C597 H662 0.960 . S
C598 C599 1.530 . S
C598 H664 0.961 . S
C598 H665 0.961 . S
C598 H666 0.959 . S
C599 C598 1.530 . S
C599 O627 1.412 . S
C599 H663 0.980 . S
C600 C601 1.288 . S
C600 C605 1.377 . S
C600 O627 1.393 . S
C601 C600 1.288 . S
C601 C602 1.369 . S
C601 H667 0.932 . S
C602 C601 1.369 . S
C602 C603 1.398 . S
C602 C606 1.527 . S
C603 C602 1.398 . S
C603 C604 1.380 . S
C603 C617 1.497 . S
C604 C603 1.380 . S
C604 C605 1.383 . S
C604 C607 1.603 . S
C605 C600 1.377 . S
C605 C604 1.383 . S
C605 H668 0.929 . S
C606 C602 1.527 . S
C606 H669 0.961 . S
C606 H670 0.959 . S
C606 H671 0.959 . S
C607 C604 1.603 . S
C607 H672 0.960 . S
C607 H673 0.962 . S
C607 H674 0.961 . S
C608 C575 1.587 . S
C608 C609 1.360 . S
C608 C621 1.412 . S
C609 C608 1.360 . S
C609 C610 1.365 . S
C609 H675 0.929 . S
C610 C585 1.553 . S
C610 C609 1.365 . S
C610 C611 1.404 . S
C611 C610 1.404 . S
C611 C612 1.395 . S
C611 C622 1.451 . S
C612 C611 1.395 . S
C612 C613 1.322 . S
C612 H676 0.930 . S
C613 C612 1.322 . S
C613 C614 1.459 . S
C613 H677 0.929 . S
C614 C613 1.459 . S
C614 C615 1.445 . S
C614 C623 1.395 . S
C615 C593 1.432 . S
C615 C614 1.445 . S
C615 C616 1.370 . S
C616 C615 1.370 . S
C616 C617 1.438 . S
C616 H678 0.930 . S
C617 C603 1.497 . S
C617 C616 1.438 . S
C617 C618 1.360 . S
C618 C617 1.360 . S
C618 C619 1.401 . S
C618 C623 1.446 . S
C619 C618 1.401 . S
C619 C620 1.347 . S
C619 H679 0.929 . S
C620 C619 1.347 . S
C620 C621 1.455 . S
C620 H680 0.930 . S
C621 C608 1.412 . S
C621 C620 1.455 . S
C621 C622 1.331 . S
C622 C611 1.451 . S
C622 C621 1.331 . S
C622 C623 1.497 . S
C623 C614 1.395 . S
C623 C618 1.446 . S
C623 C622 1.497 . S
C624 C625 1.582 . S
C624 H681 0.962 . S
C624 H682 0.959 . S
C624 H683 0.958 . S
C625 C624 1.582 . S
C625 O628 1.458 . S
C625 H654 0.980 . S
O626 C571 1.426 . S
O626 C572 1.334 . S
O627 C599 1.412 . S
O627 C600 1.393 . S
O628 C590 1.435 . S
O628 C625 1.458 . S
O629 C581 1.468 . S
O629 C582 1.408 . S
H630 C571 0.980 . S
H631 C570 0.959 . S
H632 C570 0.959 . S
H633 C570 0.960 . S
H634 C573 0.929 . S
H635 C577 0.929 . S
H636 C578 0.959 . S
H637 C578 0.961 . S
H638 C578 0.961 . S
H639 C579 0.960 . S
H640 C579 0.960 . S
H641 C579 0.961 . S
H642 C581 0.980 . S
H643 C580 0.961 . S
H644 C580 0.960 . S
H645 C580 0.959 . S
H646 C583 0.930 . S
H647 C587 0.931 . S
H648 C588 0.959 . S
H649 C588 0.961 . S
H650 C588 0.959 . S
H651 C589 0.960 . S
H652 C589 0.960 . S
H653 C589 0.960 . S
H654 C625 0.980 . S
H655 C591 0.930 . S
H656 C595 0.930 . S
H657 C596 0.961 . S
H658 C596 0.960 . S
H659 C596 0.958 . S
H660 C597 0.961 . S
H661 C597 0.960 . S
H662 C597 0.960 . S
H663 C599 0.980 . S
H664 C598 0.961 . S
H665 C598 0.961 . S
H666 C598 0.959 . S
H667 C601 0.932 . S
H668 C605 0.929 . S
H669 C606 0.961 . S
H670 C606 0.959 . S
H671 C606 0.959 . S
H672 C607 0.960 . S
H673 C607 0.962 . S
H674 C607 0.961 . S
H675 C609 0.929 . S
H676 C612 0.930 . S
H677 C613 0.929 . S
H678 C616 0.930 . S
H679 C619 0.929 . S
H680 C620 0.930 . S
H681 C624 0.962 . S
H682 C624 0.959 . S
H683 C624 0.958 . S
C684 O685 1.160 . S
C684 O691 1.185 . S
O685 C684 1.160 . S
O686 Zn687 1.899 . S
O686 C694 1.284 . S
Zn687 O686 1.899 . S
Zn687 O688 2.032 . S
Zn687 O691 2.086 . S
Zn687 O696 1.977 . S
O688 Zn687 2.032 . S
O688 C692 1.278 . S
C689 O690 1.203 . S
C689 O696 1.267 . S
O690 C689 1.203 . S
O691 C684 1.185 . S
O691 Zn687 2.086 . S
C692 O688 1.278 . S
C692 O693 1.211 . S
O693 C692 1.211 . S
C694 O686 1.284 . S
C694 O695 1.273 . S
O695 C694 1.273 . S
O696 Zn687 1.977 . S
O696 C689 1.267 . S
C697 O698 1.160 . S
C697 O704 1.185 . S
O698 C697 1.160 . S
O699 Zn700 1.899 . S
O699 C707 1.284 . S
Zn700 O699 1.899 . S
Zn700 O701 2.032 . S
Zn700 O704 2.086 . S
Zn700 O709 1.977 . S
O701 Zn700 2.032 . S
O701 C705 1.278 . S
C702 O703 1.203 . S
C702 O709 1.267 . S
O703 C702 1.203 . S
O704 C697 1.185 . S
O704 Zn700 2.086 . S
C705 O701 1.278 . S
C705 O706 1.211 . S
O706 C705 1.211 . S
C707 O699 1.284 . S
C707 O708 1.273 . S
O708 C707 1.273 . S
O709 Zn700 1.977 . S
O709 C702 1.267 . S
C710 O711 1.160 . S
C710 O717 1.185 . S
O711 C710 1.160 . S
O712 Zn713 1.899 . S
O712 C720 1.284 . S
Zn713 O712 1.899 . S
Zn713 O714 2.032 . S
Zn713 O717 2.086 . S
Zn713 O722 1.977 . S
O714 Zn713 2.032 . S
O714 C718 1.278 . S
C715 O716 1.203 . S
C715 O722 1.267 . S
O716 C715 1.203 . S
O717 C710 1.185 . S
O717 Zn713 2.086 . S
C718 O714 1.278 . S
C718 O719 1.211 . S
O719 C718 1.211 . S
C720 O712 1.284 . S
C720 O721 1.273 . S
O721 C720 1.273 . S
O722 Zn713 1.977 . S
O722 C715 1.267 . S
C723 O724 1.160 . S
C723 O730 1.185 . S
O724 C723 1.160 . S
O725 Zn726 1.899 . S
O725 C733 1.284 . S
Zn726 O725 1.899 . S
Zn726 O727 2.032 . S
Zn726 O730 2.086 . S
Zn726 O735 1.977 . S
O727 Zn726 2.032 . S
O727 C731 1.278 . S
C728 O729 1.203 . S
C728 O735 1.267 . S
O729 C728 1.203 . S
O730 C723 1.185 . S
O730 Zn726 2.086 . S
C731 O727 1.278 . S
C731 O732 1.211 . S
O732 C731 1.211 . S
C733 O725 1.284 . S
C733 O734 1.273 . S
O734 C733 1.273 . S
O735 Zn726 1.977 . S
O735 C728 1.267 . S
C736 O737 1.160 . S
C736 O743 1.185 . S
O737 C736 1.160 . S
O738 Zn739 1.899 . S
O738 C746 1.284 . S
Zn739 O738 1.899 . S
Zn739 O740 2.032 . S
Zn739 O743 2.086 . S
Zn739 O748 1.977 . S
O740 Zn739 2.032 . S
O740 C744 1.278 . S
C741 O742 1.203 . S
C741 O748 1.267 . S
O742 C741 1.203 . S
O743 C736 1.185 . S
O743 Zn739 2.086 . S
C744 O740 1.278 . S
C744 O745 1.211 . S
O745 C744 1.211 . S
C746 O738 1.284 . S
C746 O747 1.273 . S
O747 C746 1.273 . S
O748 Zn739 1.977 . S
O748 C741 1.267 . S
C749 O750 1.160 . S
C749 O756 1.185 . S
O750 C749 1.160 . S
O751 Zn752 1.899 . S
O751 C759 1.284 . S
Zn752 O751 1.899 . S
Zn752 O753 2.032 . S
Zn752 O756 2.086 . S
Zn752 O761 1.977 . S
O753 Zn752 2.032 . S
O753 C757 1.278 . S
C754 O755 1.203 . S
C754 O761 1.267 . S
O755 C754 1.203 . S
O756 C749 1.185 . S
O756 Zn752 2.086 . S
C757 O753 1.278 . S
C757 O758 1.211 . S
O758 C757 1.211 . S
C759 O751 1.284 . S
C759 O760 1.273 . S
O760 C759 1.273 . S
O761 Zn752 1.977 . S
O761 C754 1.267 . S
H762 C770 0.950 . S
H763 C775 0.950 . S
H764 C772 0.950 . S
H765 C774 0.950 . S
H766 C776 0.950 . S
H767 C778 0.950 . S
H768 C780 0.950 . S
H769 C781 0.950 . S
C770 H762 0.950 . S
C770 C771 1.386 . S
C770 C772 1.391 . S
C771 C770 1.386 . S
C771 C775 1.393 . S
C772 H764 0.950 . S
C772 C770 1.391 . S
C772 C773 1.400 . S
C773 C772 1.400 . S
C773 C774 1.398 . S
C773 C779 1.491 . S
C774 H765 0.950 . S
C774 C773 1.398 . S
C774 C775 1.391 . S
C775 H763 0.950 . S
C775 C771 1.393 . S
C775 C774 1.391 . S
C776 H766 0.950 . S
C776 C777 1.386 . S
C776 C778 1.391 . S
C777 C776 1.386 . S
C777 C781 1.393 . S
C778 H767 0.950 . S
C778 C776 1.391 . S
C778 C779 1.400 . S
C779 C773 1.491 . S
C779 C778 1.400 . S
C779 C780 1.398 . S
C780 H768 0.950 . S
C780 C779 1.398 . S
C780 C781 1.391 . S
C781 H769 0.950 . S
C781 C777 1.393 . S
C781 C780 1.391 . S
H782 C790 0.950 . S
H783 C795 0.950 . S
H784 C792 0.950 . S
H785 C794 0.950 . S
H786 C796 0.950 . S
H787 C798 0.950 . S
H788 C800 0.950 . S
H789 C801 0.950 . S
C790 H782 0.950 . S
C790 C791 1.386 . S
C790 C792 1.391 . S
C791 C790 1.386 . S
C791 C795 1.393 . S
C792 H784 0.950 . S
C792 C790 1.391 . S
C792 C793 1.400 . S
C793 C792 1.400 . S
C793 C794 1.398 . S
C793 C799 1.491 . S
C794 H785 0.950 . S
C794 C793 1.398 . S
C794 C795 1.391 . S
C795 H783 0.950 . S
C795 C791 1.393 . S
C795 C794 1.391 . S
C796 H786 0.950 . S
C796 C797 1.386 . S
C796 C798 1.391 . S
C797 C796 1.386 . S
C797 C801 1.393 . S
C798 H787 0.950 . S
C798 C796 1.391 . S
C798 C799 1.400 . S
C799 C793 1.491 . S
C799 C798 1.400 . S
C799 C800 1.398 . S
C800 H788 0.950 . S
C800 C799 1.398 . S
C800 C801 1.391 . S
C801 H789 0.950 . S
C801 C797 1.393 . S
C801 C800 1.391 . S
H802 C810 0.950 . S
H803 C815 0.950 . S
H804 C812 0.950 . S
H805 C814 0.950 . S
H806 C816 0.950 . S
H807 C818 0.950 . S
H808 C820 0.950 . S
H809 C821 0.950 . S
C810 H802 0.950 . S
C810 C811 1.386 . S
C810 C812 1.391 . S
C811 C810 1.386 . S
C811 C815 1.393 . S
C812 H804 0.950 . S
C812 C810 1.391 . S
C812 C813 1.400 . S
C813 C812 1.400 . S
C813 C814 1.398 . S
C813 C819 1.491 . S
C814 H805 0.950 . S
C814 C813 1.398 . S
C814 C815 1.391 . S
C815 H803 0.950 . S
C815 C811 1.393 . S
C815 C814 1.391 . S
C816 H806 0.950 . S
C816 C817 1.386 . S
C816 C818 1.391 . S
C817 C816 1.386 . S
C817 C821 1.393 . S
C818 H807 0.950 . S
C818 C816 1.391 . S
C818 C819 1.400 . S
C819 C813 1.491 . S
C819 C818 1.400 . S
C819 C820 1.398 . S
C820 H808 0.950 . S
C820 C819 1.398 . S
C820 C821 1.391 . S
C821 H809 0.950 . S
C821 C817 1.393 . S
C821 C820 1.391 . S
H822 C830 0.950 . S
H823 C835 0.950 . S
H824 C832 0.950 . S
H825 C834 0.950 . S
H826 C836 0.950 . S
H827 C838 0.950 . S
H828 C840 0.950 . S
H829 C841 0.950 . S
C830 H822 0.950 . S
C830 C831 1.386 . S
C830 C832 1.391 . S
C831 C830 1.386 . S
C831 C835 1.393 . S
C832 H824 0.950 . S
C832 C830 1.391 . S
C832 C833 1.400 . S
C833 C832 1.400 . S
C833 C834 1.398 . S
C833 C839 1.491 . S
C834 H825 0.950 . S
C834 C833 1.398 . S
C834 C835 1.391 . S
C835 H823 0.950 . S
C835 C831 1.393 . S
C835 C834 1.391 . S
C836 H826 0.950 . S
C836 C837 1.386 . S
C836 C838 1.391 . S
C837 C836 1.386 . S
C837 C841 1.393 . S
C838 H827 0.950 . S
C838 C836 1.391 . S
C838 C839 1.400 . S
C839 C833 1.491 . S
C839 C838 1.400 . S
C839 C840 1.398 . S
C840 H828 0.950 . S
C840 C839 1.398 . S
C840 C841 1.391 . S
C841 H829 0.950 . S
C841 C837 1.393 . S
C841 C840 1.391 . S
H842 C850 0.950 . S
H843 C855 0.950 . S
H844 C852 0.950 . S
H845 C854 0.950 . S
H846 C856 0.950 . S
H847 C858 0.950 . S
H848 C860 0.950 . S
H849 C861 0.950 . S
C850 H842 0.950 . S
C850 C851 1.386 . S
C850 C852 1.391 . S
C851 C850 1.386 . S
C851 C855 1.393 . S
C852 H844 0.950 . S
C852 C850 1.391 . S
C852 C853 1.400 . S
C853 C852 1.400 . S
C853 C854 1.398 . S
C853 C859 1.491 . S
C854 H845 0.950 . S
C854 C853 1.398 . S
C854 C855 1.391 . S
C855 H843 0.950 . S
C855 C851 1.393 . S
C855 C854 1.391 . S
C856 H846 0.950 . S
C856 C857 1.386 . S
C856 C858 1.391 . S
C857 C856 1.386 . S
C857 C861 1.393 . S
C858 H847 0.950 . S
C858 C856 1.391 . S
C858 C859 1.400 . S
C859 C853 1.491 . S
C859 C858 1.400 . S
C859 C860 1.398 . S
C860 H848 0.950 . S
C860 C859 1.398 . S
C860 C861 1.391 . S
C861 H849 0.950 . S
C861 C857 1.393 . S
C861 C860 1.391 . S
H862 C870 0.950 . S
H863 C875 0.950 . S
H864 C872 0.950 . S
H865 C874 0.950 . S
H866 C876 0.950 . S
H867 C878 0.950 . S
H868 C880 0.950 . S
H869 C881 0.950 . S
C870 H862 0.950 . S
C870 C871 1.386 . S
C870 C872 1.391 . S
C871 C870 1.386 . S
C871 C875 1.393 . S
C872 H864 0.950 . S
C872 C870 1.391 . S
C872 C873 1.400 . S
C873 C872 1.400 . S
C873 C874 1.398 . S
C873 C879 1.491 . S
C874 H865 0.950 . S
C874 C873 1.398 . S
C874 C875 1.391 . S
C875 H863 0.950 . S
C875 C871 1.393 . S
C875 C874 1.391 . S
C876 H866 0.950 . S
C876 C877 1.386 . S
C876 C878 1.391 . S
C877 C876 1.386 . S
C877 C881 1.393 . S
C878 H867 0.950 . S
C878 C876 1.391 . S
C878 C879 1.400 . S
C879 C873 1.491 . S
C879 C878 1.400 . S
C879 C880 1.398 . S
C880 H868 0.950 . S
C880 C879 1.398 . S
C880 C881 1.391 . S
C881 H869 0.950 . S
C881 C877 1.393 . S
C881 C880 1.391 . S
H882 C890 0.950 . S
H883 C895 0.950 . S
H884 C892 0.950 . S
H885 C894 0.950 . S
H886 C896 0.950 . S
H887 C898 0.950 . S
H888 C900 0.950 . S
H889 C901 0.950 . S
C890 H882 0.950 . S
C890 C891 1.386 . S
C890 C892 1.391 . S
C891 C890 1.386 . S
C891 C895 1.393 . S
C892 H884 0.950 . S
C892 C890 1.391 . S
C892 C893 1.400 . S
C893 C892 1.400 . S
C893 C894 1.398 . S
C893 C899 1.491 . S
C894 H885 0.950 . S
C894 C893 1.398 . S
C894 C895 1.391 . S
C895 H883 0.950 . S
C895 C891 1.393 . S
C895 C894 1.391 . S
C896 H886 0.950 . S
C896 C897 1.386 . S
C896 C898 1.391 . S
C897 C896 1.386 . S
C897 C901 1.393 . S
C898 H887 0.950 . S
C898 C896 1.391 . S
C898 C899 1.400 . S
C899 C893 1.491 . S
C899 C898 1.400 . S
C899 C900 1.398 . S
C900 H888 0.950 . S
C900 C899 1.398 . S
C900 C901 1.391 . S
C901 H889 0.950 . S
C901 C897 1.393 . S
C901 C900 1.391 . S
H902 C910 0.950 . S
H903 C915 0.950 . S
H904 C912 0.950 . S
H905 C914 0.950 . S
H906 C916 0.950 . S
H907 C918 0.950 . S
H908 C920 0.950 . S
H909 C921 0.950 . S
C910 H902 0.950 . S
C910 C911 1.386 . S
C910 C912 1.391 . S
C911 C910 1.386 . S
C911 C915 1.393 . S
C912 H904 0.950 . S
C912 C910 1.391 . S
C912 C913 1.400 . S
C913 C912 1.400 . S
C913 C914 1.398 . S
C913 C919 1.491 . S
C914 H905 0.950 . S
C914 C913 1.398 . S
C914 C915 1.391 . S
C915 H903 0.950 . S
C915 C911 1.393 . S
C915 C914 1.391 . S
C916 H906 0.950 . S
C916 C917 1.386 . S
C916 C918 1.391 . S
C917 C916 1.386 . S
C917 C921 1.393 . S
C918 H907 0.950 . S
C918 C916 1.391 . S
C918 C919 1.400 . S
C919 C913 1.491 . S
C919 C918 1.400 . S
C919 C920 1.398 . S
C920 H908 0.950 . S
C920 C919 1.398 . S
C920 C921 1.391 . S
C921 H909 0.950 . S
C921 C917 1.393 . S
C921 C920 1.391 . S
H922 C930 0.950 . S
H923 C935 0.950 . S
H924 C932 0.950 . S
H925 C934 0.950 . S
H926 C936 0.950 . S
H927 C938 0.950 . S
H928 C940 0.950 . S
H929 C941 0.950 . S
C930 H922 0.950 . S
C930 C931 1.386 . S
C930 C932 1.391 . S
C931 C930 1.386 . S
C931 C935 1.393 . S
C932 H924 0.950 . S
C932 C930 1.391 . S
C932 C933 1.400 . S
C933 C932 1.400 . S
C933 C934 1.398 . S
C933 C939 1.491 . S
C934 H925 0.950 . S
C934 C933 1.398 . S
C934 C935 1.391 . S
C935 H923 0.950 . S
C935 C931 1.393 . S
C935 C934 1.391 . S
C936 H926 0.950 . S
C936 C937 1.386 . S
C936 C938 1.391 . S
C937 C936 1.386 . S
C937 C941 1.393 . S
C938 H927 0.950 . S
C938 C936 1.391 . S
C938 C939 1.400 . S
C939 C933 1.491 . S
C939 C938 1.400 . S
C939 C940 1.398 . S
C940 H928 0.950 . S
C940 C939 1.398 . S
C940 C941 1.391 . S
C941 H929 0.950 . S
C941 C937 1.393 . S
C941 C940 1.391 . S
H942 C950 0.950 . S
H943 C955 0.950 . S
H944 C952 0.950 . S
H945 C954 0.950 . S
H946 C956 0.950 . S
H947 C958 0.950 . S
H948 C960 0.950 . S
H949 C961 0.950 . S
C950 H942 0.950 . S
C950 C951 1.386 . S
C950 C952 1.391 . S
C951 C950 1.386 . S
C951 C955 1.393 . S
C952 H944 0.950 . S
C952 C950 1.391 . S
C952 C953 1.400 . S
C953 C952 1.400 . S
C953 C954 1.398 . S
C953 C959 1.491 . S
C954 H945 0.950 . S
C954 C953 1.398 . S
C954 C955 1.391 . S
C955 H943 0.950 . S
C955 C951 1.393 . S
C955 C954 1.391 . S
C956 H946 0.950 . S
C956 C957 1.386 . S
C956 C958 1.391 . S
C957 C956 1.386 . S
C957 C961 1.393 . S
C958 H947 0.950 . S
C958 C956 1.391 . S
C958 C959 1.400 . S
C959 C953 1.491 . S
C959 C958 1.400 . S
C959 C960 1.398 . S
C960 H948 0.950 . S
C960 C959 1.398 . S
C960 C961 1.391 . S
C961 H949 0.950 . S
C961 C957 1.393 . S
C961 C960 1.391 . S
H962 C970 0.950 . S
H963 C975 0.950 . S
H964 C972 0.950 . S
H965 C974 0.950 . S
H966 C976 0.950 . S
H967 C978 0.950 . S
H968 C980 0.950 . S
H969 C981 0.950 . S
C970 H962 0.950 . S
C970 C971 1.386 . S
C970 C972 1.391 . S
C971 C970 1.386 . S
C971 C975 1.393 . S
C972 H964 0.950 . S
C972 C970 1.391 . S
C972 C973 1.400 . S
C973 C972 1.400 . S
C973 C974 1.398 . S
C973 C979 1.491 . S
C974 H965 0.950 . S
C974 C973 1.398 . S
C974 C975 1.391 . S
C975 H963 0.950 . S
C975 C971 1.393 . S
C975 C974 1.391 . S
C976 H966 0.950 . S
C976 C977 1.386 . S
C976 C978 1.391 . S
C977 C976 1.386 . S
C977 C981 1.393 . S
C978 H967 0.950 . S
C978 C976 1.391 . S
C978 C979 1.400 . S
C979 C973 1.491 . S
C979 C978 1.400 . S
C979 C980 1.398 . S
C980 H968 0.950 . S
C980 C979 1.398 . S
C980 C981 1.391 . S
C981 H969 0.950 . S
C981 C977 1.393 . S
C981 C980 1.391 . S
H982 C990 0.950 . S
H983 C995 0.950 . S
H984 C992 0.950 . S
H985 C994 0.950 . S
H986 C996 0.950 . S
H987 C998 0.950 . S
H988 C1000 0.950 . S
H989 C1001 0.950 . S
C990 H982 0.950 . S
C990 C991 1.386 . S
C990 C992 1.391 . S
C991 C990 1.386 . S
C991 C995 1.393 . S
C992 H984 0.950 . S
C992 C990 1.391 . S
C992 C993 1.400 . S
C993 C992 1.400 . S
C993 C994 1.398 . S
C993 C999 1.491 . S
C994 H985 0.950 . S
C994 C993 1.398 . S
C994 C995 1.391 . S
C995 H983 0.950 . S
C995 C991 1.393 . S
C995 C994 1.391 . S
C996 H986 0.950 . S
C996 C997 1.386 . S
C996 C998 1.391 . S
C997 C996 1.386 . S
C997 C1001 1.393 . S
C998 H987 0.950 . S
C998 C996 1.391 . S
C998 C999 1.400 . S
C999 C993 1.491 . S
C999 C998 1.400 . S
C999 C1000 1.398 . S
C1000 H988 0.950 . S
C1000 C999 1.398 . S
C1000 C1001 1.391 . S
C1001 H989 0.950 . S
C1001 C997 1.393 . S
C1001 C1000 1.391 . S
H1002 C1010 0.950 . S
H1003 C1015 0.950 . S
H1004 C1012 0.950 . S
H1005 C1014 0.950 . S
H1006 C1016 0.950 . S
H1007 C1018 0.950 . S
H1008 C1020 0.950 . S
H1009 C1021 0.950 . S
C1010 H1002 0.950 . S
C1010 C1011 1.386 . S
C1010 C1012 1.391 . S
C1011 C1010 1.386 . S
C1011 C1015 1.393 . S
C1012 H1004 0.950 . S
C1012 C1010 1.391 . S
C1012 C1013 1.400 . S
C1013 C1012 1.400 . S
C1013 C1014 1.398 . S
C1013 C1019 1.491 . S
C1014 H1005 0.950 . S
C1014 C1013 1.398 . S
C1014 C1015 1.391 . S
C1015 H1003 0.950 . S
C1015 C1011 1.393 . S
C1015 C1014 1.391 . S
C1016 H1006 0.950 . S
C1016 C1017 1.386 . S
C1016 C1018 1.391 . S
C1017 C1016 1.386 . S
C1017 C1021 1.393 . S
C1018 H1007 0.950 . S
C1018 C1016 1.391 . S
C1018 C1019 1.400 . S
C1019 C1013 1.491 . S
C1019 C1018 1.400 . S
C1019 C1020 1.398 . S
C1020 H1008 0.950 . S
C1020 C1019 1.398 . S
C1020 C1021 1.391 . S
C1021 H1009 0.950 . S
C1021 C1017 1.393 . S
C1021 C1020 1.391 . S
H1022 C1030 0.950 . S
H1023 C1035 0.950 . S
H1024 C1032 0.950 . S
H1025 C1034 0.950 . S
H1026 C1036 0.950 . S
H1027 C1038 0.950 . S
H1028 C1040 0.950 . S
H1029 C1041 0.950 . S
C1030 H1022 0.950 . S
C1030 C1031 1.386 . S
C1030 C1032 1.391 . S
C1031 C1030 1.386 . S
C1031 C1035 1.393 . S
C1032 H1024 0.950 . S
C1032 C1030 1.391 . S
C1032 C1033 1.400 . S
C1033 C1032 1.400 . S
C1033 C1034 1.398 . S
C1033 C1039 1.491 . S
C1034 H1025 0.950 . S
C1034 C1033 1.398 . S
C1034 C1035 1.391 . S
C1035 H1023 0.950 . S
C1035 C1031 1.393 . S
C1035 C1034 1.391 . S
C1036 H1026 0.950 . S
C1036 C1037 1.386 . S
C1036 C1038 1.391 . S
C1037 C1036 1.386 . S
C1037 C1041 1.393 . S
C1038 H1027 0.950 . S
C1038 C1036 1.391 . S
C1038 C1039 1.400 . S
C1039 C1033 1.491 . S
C1039 C1038 1.400 . S
C1039 C1040 1.398 . S
C1040 H1028 0.950 . S
C1040 C1039 1.398 . S
C1040 C1041 1.391 . S
C1041 H1029 0.950 . S
C1041 C1037 1.393 . S
C1041 C1040 1.391 . S
H1042 C1050 0.950 . S
H1043 C1055 0.950 . S
H1044 C1052 0.950 . S
H1045 C1054 0.950 . S
H1046 C1056 0.950 . S
H1047 C1058 0.950 . S
H1048 C1060 0.950 . S
H1049 C1061 0.950 . S
C1050 H1042 0.950 . S
C1050 C1051 1.386 . S
C1050 C1052 1.391 . S
C1051 C1050 1.386 . S
C1051 C1055 1.393 . S
C1052 H1044 0.950 . S
C1052 C1050 1.391 . S
C1052 C1053 1.400 . S
C1053 C1052 1.400 . S
C1053 C1054 1.398 . S
C1053 C1059 1.491 . S
C1054 H1045 0.950 . S
C1054 C1053 1.398 . S
C1054 C1055 1.391 . S
C1055 H1043 0.950 . S
C1055 C1051 1.393 . S
C1055 C1054 1.391 . S
C1056 H1046 0.950 . S
C1056 C1057 1.386 . S
C1056 C1058 1.391 . S
C1057 C1056 1.386 . S
C1057 C1061 1.393 . S
C1058 H1047 0.950 . S
C1058 C1056 1.391 . S
C1058 C1059 1.400 . S
C1059 C1053 1.491 . S
C1059 C1058 1.400 . S
C1059 C1060 1.398 . S
C1060 H1048 0.950 . S
C1060 C1059 1.398 . S
C1060 C1061 1.391 . S
C1061 H1049 0.950 . S
C1061 C1057 1.393 . S
C1061 C1060 1.391 . S
H1062 C1070 0.950 . S
H1063 C1075 0.950 . S
H1064 C1072 0.950 . S
H1065 C1074 0.950 . S
H1066 C1076 0.950 . S
H1067 C1078 0.950 . S
H1068 C1080 0.950 . S
H1069 C1081 0.950 . S
C1070 H1062 0.950 . S
C1070 C1071 1.386 . S
C1070 C1072 1.391 . S
C1071 C1070 1.386 . S
C1071 C1075 1.393 . S
C1072 H1064 0.950 . S
C1072 C1070 1.391 . S
C1072 C1073 1.400 . S
C1073 C1072 1.400 . S
C1073 C1074 1.398 . S
C1073 C1079 1.491 . S
C1074 H1065 0.950 . S
C1074 C1073 1.398 . S
C1074 C1075 1.391 . S
C1075 H1063 0.950 . S
C1075 C1071 1.393 . S
C1075 C1074 1.391 . S
C1076 H1066 0.950 . S
C1076 C1077 1.439 . S
C1076 C1078 1.339 1_554 S
C1077 C1076 1.439 . S
C1077 C1081 1.393 . S
C1078 H1067 0.950 . S
C1078 C1076 1.339 1_556 S
C1078 C1079 1.400 . S
C1079 C1073 1.491 . S
C1079 C1078 1.400 . S
C1079 C1080 1.398 1_556 S
C1080 H1068 0.950 . S
C1080 C1079 1.398 1_554 S
C1080 C1081 1.391 . S
C1081 H1069 0.950 . S
C1081 C1077 1.393 . S
C1081 C1080 1.391 . S
H1082 C1090 0.950 . S
H1083 C1095 0.950 . S
H1084 C1092 0.950 . S
H1085 C1094 0.950 . S
H1086 C1096 0.950 . S
H1087 C1098 0.950 . S
H1088 C1100 0.950 . S
H1089 C1101 0.950 . S
C1090 H1082 0.950 . S
C1090 C1091 1.386 . S
C1090 C1092 1.391 . S
C1091 C1090 1.386 . S
C1091 C1095 1.393 . S
C1092 H1084 0.950 . S
C1092 C1090 1.391 . S
C1092 C1093 1.400 . S
C1093 C1092 1.400 . S
C1093 C1094 1.398 . S
C1093 C1099 1.491 . S
C1094 H1085 0.950 . S
C1094 C1093 1.398 . S
C1094 C1095 1.391 . S
C1095 H1083 0.950 . S
C1095 C1091 1.393 . S
C1095 C1094 1.391 . S
C1096 H1086 0.950 . S
C1096 C1097 1.386 . S
C1096 C1098 1.391 . S
C1097 C1096 1.386 . S
C1097 C1101 1.393 . S
C1098 H1087 0.950 . S
C1098 C1096 1.391 . S
C1098 C1099 1.400 . S
C1099 C1093 1.491 . S
C1099 C1098 1.400 . S
C1099 C1100 1.398 . S
C1100 H1088 0.950 . S
C1100 C1099 1.398 . S
C1100 C1101 1.391 . S
C1101 H1089 0.950 . S
C1101 C1097 1.393 . S
C1101 C1100 1.391 . S
H1102 C1110 0.950 . S
H1103 C1115 0.950 . S
H1104 C1112 0.950 . S
H1105 C1114 0.950 . S
H1106 C1116 0.950 . S
H1107 C1118 0.950 . S
H1108 C1120 0.950 . S
H1109 C1121 0.950 . S
C1110 H1102 0.950 . S
C1110 C1111 1.386 . S
C1110 C1112 1.391 . S
C1111 C1110 1.386 . S
C1111 C1115 1.393 . S
C1112 H1104 0.950 . S
C1112 C1110 1.391 . S
C1112 C1113 1.400 . S
C1113 C1112 1.400 . S
C1113 C1114 1.398 . S
C1113 C1119 1.491 . S
C1114 H1105 0.950 . S
C1114 C1113 1.398 . S
C1114 C1115 1.391 . S
C1115 H1103 0.950 . S
C1115 C1111 1.393 . S
C1115 C1114 1.391 . S
C1116 H1106 0.950 . S
C1116 C1117 1.386 . S
C1116 C1118 1.391 . S
C1117 C1116 1.386 . S
C1117 C1121 1.393 . S
C1118 H1107 0.950 . S
C1118 C1116 1.391 . S
C1118 C1119 1.400 . S
C1119 C1113 1.491 . S
C1119 C1118 1.400 . S
C1119 C1120 1.398 . S
C1120 H1108 0.950 . S
C1120 C1119 1.398 . S
C1120 C1121 1.391 . S
C1121 H1109 0.950 . S
C1121 C1117 1.393 . S
C1121 C1120 1.391 . S
H1122 C1130 0.950 . S
H1123 C1135 0.950 . S
H1124 C1132 0.950 . S
H1125 C1134 0.950 . S
H1126 C1136 0.950 . S
H1127 C1138 0.950 . S
H1128 C1140 0.950 . S
H1129 C1141 0.950 . S
C1130 H1122 0.950 . S
C1130 C1131 1.386 . S
C1130 C1132 1.391 . S
C1131 C1130 1.386 . S
C1131 C1135 1.393 . S
C1132 H1124 0.950 . S
C1132 C1130 1.391 . S
C1132 C1133 1.400 . S
C1133 C1132 1.400 . S
C1133 C1134 1.398 . S
C1133 C1139 1.491 . S
C1134 H1125 0.950 . S
C1134 C1133 1.398 . S
C1134 C1135 1.391 . S
C1135 H1123 0.950 . S
C1135 C1131 1.393 . S
C1135 C1134 1.391 . S
C1136 H1126 0.950 . S
C1136 C1137 1.386 . S
C1136 C1138 1.391 . S
C1137 C1136 1.386 . S
C1137 C1141 1.393 . S
C1138 H1127 0.950 . S
C1138 C1136 1.391 . S
C1138 C1139 1.400 . S
C1139 C1133 1.491 . S
C1139 C1138 1.400 . S
C1139 C1140 1.398 . S
C1140 H1128 0.950 . S
C1140 C1139 1.398 . S
C1140 C1141 1.391 . S
C1141 H1129 0.950 . S
C1141 C1137 1.393 . S
C1141 C1140 1.391 . S
H1142 C1150 0.950 . S
H1143 C1155 0.950 . S
H1144 C1152 0.950 . S
H1145 C1154 0.950 . S
H1146 C1156 0.950 . S
H1147 C1158 0.950 . S
H1148 C1160 0.950 . S
H1149 C1161 0.950 . S
C1150 H1142 0.950 . S
C1150 C1151 1.386 . S
C1150 C1152 1.391 . S
C1151 C1150 1.386 . S
C1151 C1155 1.393 . S
C1152 H1144 0.950 . S
C1152 C1150 1.391 . S
C1152 C1153 1.400 . S
C1153 C1152 1.400 . S
C1153 C1154 1.398 . S
C1153 C1159 1.491 . S
C1154 H1145 0.950 . S
C1154 C1153 1.398 . S
C1154 C1155 1.391 . S
C1155 H1143 0.950 . S
C1155 C1151 1.393 . S
C1155 C1154 1.391 . S
C1156 H1146 0.950 . S
C1156 C1157 1.386 . S
C1156 C1158 1.391 . S
C1157 C1156 1.386 . S
C1157 C1161 1.393 . S
C1158 H1147 0.950 . S
C1158 C1156 1.391 . S
C1158 C1159 1.400 . S
C1159 C1153 1.491 . S
C1159 C1158 1.400 . S
C1159 C1160 1.398 . S
C1160 H1148 0.950 . S
C1160 C1159 1.398 . S
C1160 C1161 1.391 . S
C1161 H1149 0.950 . S
C1161 C1157 1.393 . S
C1161 C1160 1.391 . S
H1162 C1170 0.950 . S
H1163 C1175 0.950 . S
H1164 C1172 0.950 . S
H1165 C1174 0.950 . S
H1166 C1176 0.950 . S
H1167 C1178 0.950 . S
H1168 C1180 0.950 . S
H1169 C1181 0.950 . S
C1170 H1162 0.950 . S
C1170 C1171 1.386 . S
C1170 C1172 1.391 . S
C1171 C1170 1.386 . S
C1171 C1175 1.393 . S
C1172 H1164 0.950 . S
C1172 C1170 1.391 . S
C1172 C1173 1.400 . S
C1173 C1172 1.400 . S
C1173 C1174 1.398 . S
C1173 C1179 1.491 . S
C1174 H1165 0.950 . S
C1174 C1173 1.398 . S
C1174 C1175 1.391 . S
C1175 H1163 0.950 . S
C1175 C1171 1.393 . S
C1175 C1174 1.391 . S
C1176 H1166 0.950 . S
C1176 C1177 1.386 . S
C1176 C1178 1.391 . S
C1177 C1176 1.386 . S
C1177 C1181 1.393 . S
C1178 H1167 0.950 . S
C1178 C1176 1.391 . S
C1178 C1179 1.400 . S
C1179 C1173 1.491 . S
C1179 C1178 1.400 . S
C1179 C1180 1.398 . S
C1180 H1168 0.950 . S
C1180 C1179 1.398 . S
C1180 C1181 1.391 . S
C1181 H1169 0.950 . S
C1181 C1177 1.393 . S
C1181 C1180 1.391 . S
H1182 C1190 0.950 . S
H1183 C1195 0.950 . S
H1184 C1192 0.950 . S
H1185 C1194 0.950 . S
H1186 C1196 0.950 . S
H1187 C1198 0.950 . S
H1188 C1200 0.950 . S
H1189 C1201 0.950 . S
C1190 H1182 0.950 . S
C1190 C1191 1.386 . S
C1190 C1192 1.391 . S
C1191 C1190 1.386 . S
C1191 C1195 1.393 . S
C1192 H1184 0.950 . S
C1192 C1190 1.391 . S
C1192 C1193 1.400 . S
C1193 C1192 1.400 . S
C1193 C1194 1.398 . S
C1193 C1199 1.491 . S
C1194 H1185 0.950 . S
C1194 C1193 1.398 . S
C1194 C1195 1.391 . S
C1195 H1183 0.950 . S
C1195 C1191 1.393 . S
C1195 C1194 1.391 . S
C1196 H1186 0.950 . S
C1196 C1197 1.386 . S
C1196 C1198 1.391 . S
C1197 C1196 1.386 . S
C1197 C1201 1.393 . S
C1198 H1187 0.950 . S
C1198 C1196 1.391 . S
C1198 C1199 1.400 . S
C1199 C1193 1.491 . S
C1199 C1198 1.400 . S
C1199 C1200 1.398 . S
C1200 H1188 0.950 . S
C1200 C1199 1.398 . S
C1200 C1201 1.391 . S
C1201 H1189 0.950 . S
C1201 C1197 1.393 . S
C1201 C1200 1.391 . S
H1202 C1210 0.950 . S
H1203 C1215 0.950 . S
H1204 C1212 0.950 . S
H1205 C1214 0.950 . S
H1206 C1216 0.950 . S
H1207 C1218 0.950 . S
H1208 C1220 0.950 . S
H1209 C1221 0.950 . S
C1210 H1202 0.950 . S
C1210 C1211 1.386 . S
C1210 C1212 1.391 . S
C1211 C1210 1.386 . S
C1211 C1215 1.393 . S
C1212 H1204 0.950 . S
C1212 C1210 1.391 . S
C1212 C1213 1.400 1_554 S
C1213 C1212 1.400 1_556 S
C1213 C1214 1.398 . S
C1213 C1219 1.491 . S
C1214 H1205 0.950 . S
C1214 C1213 1.398 . S
C1214 C1215 1.391 1_556 S
C1215 H1203 0.950 . S
C1215 C1211 1.393 . S
C1215 C1214 1.391 1_554 S
C1216 H1206 0.950 . S
C1216 C1217 1.386 . S
C1216 C1218 1.391 . S
C1217 C1216 1.386 . S
C1217 C1221 1.393 . S
C1218 H1207 0.950 . S
C1218 C1216 1.391 . S
C1218 C1219 1.400 . S
C1219 C1213 1.491 . S
C1219 C1218 1.400 . S
C1219 C1220 1.398 . S
C1220 H1208 0.950 . S
C1220 C1219 1.398 . S
C1220 C1221 1.391 . S
C1221 H1209 0.950 . S
C1221 C1217 1.393 . S
C1221 C1220 1.391 . S
H1222 C1230 0.950 . S
H1223 C1235 0.950 . S
H1224 C1232 0.950 . S
H1225 C1234 0.950 . S
H1226 C1236 0.950 . S
H1227 C1238 0.950 . S
H1228 C1240 0.950 . S
H1229 C1241 0.950 . S
C1230 H1222 0.950 . S
C1230 C1231 1.386 . S
C1230 C1232 1.391 . S
C1231 C1230 1.386 . S
C1231 C1235 1.393 . S
C1232 H1224 0.950 . S
C1232 C1230 1.391 . S
C1232 C1233 1.400 . S
C1233 C1232 1.400 . S
C1233 C1234 1.398 . S
C1233 C1239 1.491 . S
C1234 H1225 0.950 . S
C1234 C1233 1.398 . S
C1234 C1235 1.391 . S
C1235 H1223 0.950 . S
C1235 C1231 1.393 . S
C1235 C1234 1.391 . S
C1236 H1226 0.950 . S
C1236 C1237 1.386 . S
C1236 C1238 1.391 . S
C1237 C1236 1.386 . S
C1237 C1241 1.393 . S
C1238 H1227 0.950 . S
C1238 C1236 1.391 . S
C1238 C1239 1.400 . S
C1239 C1233 1.491 . S
C1239 C1238 1.400 . S
C1239 C1240 1.398 . S
C1240 H1228 0.950 . S
C1240 C1239 1.398 . S
C1240 C1241 1.391 . S
C1241 H1229 0.950 . S
C1241 C1237 1.393 . S
C1241 C1240 1.391 . S
C777 C759 1.726 . S
C771 C1 1.282 . S
C791 C169 1.519 . S
C797 C684 1.638 . S
C811 C283 1.602 . S
C817 C707 1.885 . S
C831 C397 1.144 . S
C837 C720 1.406 . S
C857 C723 1.488 . S
C851 C457 1.112 . S
C871 C571 1.071 . S
C877 C736 1.343 . S
C891 C115 1.105 . S
C897 C697 1.447 . S
C911 C229 1.139 . S
C917 C710 1.532 . S
C931 C343 0.954 . S
C937 C733 1.286 . S
C957 C746 1.757 . S
C951 C511 1.497 . S
C977 C749 1.599 . S
C971 C625 1.483 . S
C997 C694 1.866 . S
C991 C55 1.615 . S
C1011 C29 1.145 . S
C1017 C705 1.373 . S
C1031 C125 0.924 . S
C1037 C718 1.445 . S
C1057 C728 1.410 . S
C1051 C239 0.928 . S
C1071 C353 0.838 . S
C1077 C741 1.346 . S
C1097 C757 1.373 . S
C1091 C485 1.086 . S
C1117 C689 1.346 . S
C1111 C599 1.143 . S
C1137 C754 1.346 . S
C1131 C143 1.154 . S
C1151 C257 1.154 . S
C1157 C692 1.434 . S
C1177 C702 1.296 . S
C1171 C371 1.116 . S
C1191 C467 0.907 . S
C1197 C715 1.415 . S
C1211 C581 0.911 . S
C1217 C731 1.386 . S
C1231 C11 0.925 . S
C1237 C744 1.464 . S
