# Generated by pormake.
# Topology tsx, (6,3)-cn, num edge types: 1
# Building blocks:
#     Node 0, Type 0, BuildingBlock: JUFBIX_clean_sbu_0, # of connection points: 6
#     Node 1, Type 0, BuildingBlock: JUFBIX_clean_sbu_0, # of connection points: 6
#     Node 2, Type 1, BuildingBlock: CUQRIR_clean_linker_1, # of connection points: 3
#     Node 3, Type 1, BuildingBlock: CUQRIR_clean_linker_1, # of connection points: 3
#     Node 4, Type 1, BuildingBlock: CUQRIR_clean_linker_1, # of connection points: 3
#     Node 5, Type 1, BuildingBlock: CUQRIR_clean_linker_1, # of connection points: 3
#     Edge 6, Type (0, 1), BuildingBlock: ZUJKAS_clean_linker_0, # of connection points: 2
#     Edge 7, Type (0, 1), BuildingBlock: ZUJKAS_clean_linker_0, # of connection points: 2
#     Edge 8, Type (0, 1), BuildingBlock: ZUJKAS_clean_linker_0, # of connection points: 2
#     Edge 9, Type (0, 1), BuildingBlock: ZUJKAS_clean_linker_0, # of connection points: 2
#     Edge 10, Type (0, 1), BuildingBlock: ZUJKAS_clean_linker_0, # of connection points: 2
#     Edge 11, Type (0, 1), BuildingBlock: ZUJKAS_clean_linker_0, # of connection points: 2
#     Edge 12, Type (0, 1), BuildingBlock: ZUJKAS_clean_linker_0, # of connection points: 2
#     Edge 13, Type (0, 1), BuildingBlock: ZUJKAS_clean_linker_0, # of connection points: 2
#     Edge 14, Type (0, 1), BuildingBlock: ZUJKAS_clean_linker_0, # of connection points: 2
#     Edge 15, Type (0, 1), BuildingBlock: ZUJKAS_clean_linker_0, # of connection points: 2
#     Edge 16, Type (0, 1), BuildingBlock: ZUJKAS_clean_linker_0, # of connection points: 2
#     Edge 17, Type (0, 1), BuildingBlock: ZUJKAS_clean_linker_0, # of connection points: 2
# Relax obj value: 0.139
# Max RMSD: 0.157
# Mean RMSD: 0.146
data_MOF--net-tsx--node1-JUFBIX_clean_sbu_0--node2-CUQRIR_clean_linker_1--edge1-ZUJKAS_clean_linker_0
_symmetry_space_group_name_H-M    P1
_symmetry_Int_Tables_number       1
_symmetry_cell_setting            triclinic
loop_
_symmetry_equiv_pos_as_xyz
'x, y, z'
_cell_length_a     24.30919
_cell_length_b     28.665149
_cell_length_c     41.210561
_cell_angle_alpha  82.385904
_cell_angle_beta   90.238381
_cell_angle_gamma 97.544975
loop_
_atom_site_label
_atom_site_type_symbol
_atom_site_fract_x
_atom_site_fract_y
_atom_site_fract_z
_atom_type_partial_charge
Co0 Co 0.08221 0.01942 -0.00355 0.0
C1 C 0.03683 0.05992 0.93811 0.0
Co2 Co 0.0122 0.0604 0.00254 0.0
C3 C 0.14911 0.94113 -0.004 0.0
C4 C 0.18703 1.00675 0.96968 0.0
N5 N 0.14194 0.98737 0.988 0.0
N6 N 0.19702 0.93108 0.98342 0.0
C7 C 0.22076 0.97256 0.96689 0.0
H8 H 0.11946 0.9153 0.01049 0.0
H9 H 0.19424 0.04322 0.95817 0.0
C10 C 0.05945 0.02061 0.06078 0.0
N11 N 0.95181 0.09123 0.01085 0.0
C12 C 0.93317 0.13022 -0.00539 0.0
C13 C 0.91486 0.07612 0.03555 0.0
N14 N 0.8863 0.14002 0.00849 0.0
C15 C 0.87491 0.10591 0.03424 0.0
C16 C 0.97932 0.96408 -0.00057 0.0
O17 O 0.09139 1.00462 0.04188 0.0
O18 O 0.02255 0.04511 0.04852 0.0
O19 O 0.96343 1.00379 0.00219 0.0
O20 O 0.03102 0.96178 -0.0036 0.0
O21 O 1.00361 0.07519 0.9567 0.0
H22 H 0.91622 0.04473 0.05313 0.0
H23 H 0.95353 0.1509 0.97307 0.0
O24 O 0.07295 0.03493 0.95076 0.0
O25 O 0.13173 0.07823 -0.0028 0.0
O26 O 0.06097 0.11707 0.00278 0.0
C27 C 0.11304 0.11707 0.00021 0.0
H28 H 0.25889 0.97766 0.95266 0.0
H29 H 0.83922 0.10186 0.05047 0.0
Co30 Co 0.57591 0.49833 0.49438 0.0
C31 C 0.52963 0.54347 0.43814 0.0
Co32 Co 0.50816 0.53982 0.50323 0.0
C33 C 0.64451 0.42278 0.492 0.0
C34 C 0.67687 0.48819 0.46304 0.0
N35 N 0.63489 0.46817 0.48368 0.0
N36 N 0.6906 0.41374 0.47702 0.0
C37 C 0.71109 0.45496 0.45894 0.0
H38 H 0.61724 0.39652 0.50779 0.0
H39 H 0.68164 0.52447 0.4511 0.0
C40 C 0.55605 0.49555 0.55944 0.0
N41 N 0.44828 0.56963 0.5136 0.0
C42 C 0.42859 0.60859 0.49818 0.0
C43 C 0.41111 0.55233 0.53786 0.0
N44 N 0.3803 0.61576 0.51173 0.0
C45 C 0.36951 0.5805 0.53679 0.0
C46 C 0.47459 0.44369 0.49749 0.0
O47 O 0.58702 0.48049 0.5395 0.0
O48 O 0.51952 0.52123 0.54841 0.0
O49 O 0.45868 0.48304 0.50152 0.0
O50 O 0.52597 0.44187 0.49327 0.0
O51 O 0.49834 0.55839 0.45796 0.0
H52 H 0.41316 0.52029 0.55469 0.0
H53 H 0.44801 0.63005 0.47664 0.0
O54 O 0.56478 0.51652 0.44923 0.0
O55 O 0.62512 0.55507 0.49607 0.0
O56 O 0.55801 0.59617 0.50511 0.0
C57 C 0.60947 0.59406 0.50122 0.0
H58 H 0.74808 0.46068 0.44364 0.0
H59 H 0.3337 0.57509 0.55303 0.0
C60 C 0.99417 0.98989 0.44767 0.0
N61 N 0.02966 0.97532 0.42703 0.0
N62 N 0.97635 0.03074 0.43403 0.0
C63 C 0.97317 0.96302 0.47986 0.0
C64 C 1.00211 0.04046 0.40441 0.0
N65 N 0.03476 1.00698 0.40029 0.0
C66 C 0.99382 0.08173 0.37907 0.0
H67 H 0.92819 0.95089 0.47787 0.0
H68 H 0.97758 0.98701 0.49889 0.0
H69 H 0.99502 0.93197 0.48754 0.0
H70 H 0.98413 0.11241 0.3908 0.0
H71 H 0.95851 0.07079 0.36339 0.0
H72 H 0.03118 0.0929 0.3632 0.0
C73 C 0.05821 0.99829 0.56399 0.0
N74 N 0.07539 0.03319 0.58237 0.0
N75 N 1.01143 0.97158 0.57721 0.0
C76 C 0.08407 0.99354 0.53169 0.0
C77 C 1.00119 0.99132 0.60423 0.0
N78 N 0.03953 0.02905 0.60711 0.0
C79 C 0.95521 0.97214 0.62868 0.0
H80 H 0.07592 0.02381 0.51339 0.0
H81 H 0.06774 0.95984 0.52268 0.0
H82 H 0.12965 0.99498 0.53401 0.0
H83 H 0.94139 0.93394 0.62752 0.0
H84 H 0.9194 0.99207 0.62312 0.0
H85 H 0.96892 0.97673 0.65391 0.0
C86 C 0.47421 0.49388 0.94187 0.0
N87 N 0.50256 0.47291 0.92092 0.0
N88 N 0.44677 0.52781 0.92539 0.0
C89 C 0.47103 0.47927 0.97808 0.0
C90 C 0.45921 0.52635 0.89359 0.0
N91 N 0.49255 0.49276 0.8909 0.0
C92 C 0.43993 0.55839 0.86508 0.0
H93 H 0.43265 0.48878 0.98812 0.0
H94 H 0.47161 0.44041 0.98389 0.0
H95 H 0.50747 0.49743 0.98969 0.0
H96 H 0.42361 0.58954 0.87284 0.0
H97 H 0.40626 0.53803 0.85251 0.0
H98 H 0.47449 0.57062 0.84718 0.0
C99 C 0.48683 0.57697 0.05042 0.0
N100 N 0.51805 0.60157 0.07138 0.0
N101 N 0.45278 0.5403 0.06705 0.0
C102 C 0.49294 0.58652 0.01394 0.0
C103 C 0.46448 0.54362 0.09879 0.0
N104 N 0.50416 0.58052 0.10136 0.0
C105 C 0.43725 0.5105 0.12726 0.0
H106 H 0.4573 0.56775 0.00217 0.0
H107 H 0.53206 0.57468 0.00646 0.0
H108 H 0.49561 0.62514 0.0056 0.0
H109 H 0.46398 0.48252 0.13479 0.0
H110 H 0.39604 0.49319 0.12047 0.0
H111 H 0.43235 0.52988 0.14844 0.0
H112 H 0.08507 0.20669 -0.00424 0.0
H113 H 0.14499 0.28021 0.00153 0.0
H114 H 0.28598 0.20303 0.01529 0.0
H115 H 0.22622 0.12914 0.00858 0.0
H116 H 0.20138 0.30223 0.05374 0.0
H117 H 0.35008 0.31413 0.95047 0.0
H118 H 0.28665 0.27318 0.95414 0.0
H119 H 0.34656 0.25922 0.97739 0.0
C120 C 0.12897 0.2053 -0.00037 0.0
C121 C 0.15082 0.16191 0.00169 0.0
C122 C 0.16323 0.24749 0.00294 0.0
C123 C 0.22025 0.24751 0.00848 0.0
C124 C 0.24243 0.20431 0.01023 0.0
H125 H 0.47913 0.45201 0.07088 0.0
H126 H 0.42161 0.38197 0.05461 0.0
C127 C 0.20813 0.16197 0.00661 0.0
C128 C 0.25521 0.29227 0.01454 0.0
H129 H 0.3731 0.36746 0.98979 0.0
C130 C 0.23862 0.31664 0.03951 0.0
C131 C 0.30394 0.31126 -0.00397 0.0
C132 C 0.32264 0.28837 0.9678 0.0
C133 C 0.26977 0.35869 0.04688 0.0
C134 C 0.31873 0.37724 0.02869 0.0
C135 C 0.33541 0.35317 0.00365 0.0
C136 C 0.35443 0.42037 0.0365 0.0
C137 C 0.25092 0.38241 0.07468 0.0
C138 C 0.336 0.46527 0.0313 0.0
C139 C 0.36904 0.50523 0.04043 0.0
C140 C 0.42084 0.5007 0.05475 0.0
C141 C 0.43943 0.45601 0.05958 0.0
C142 C 0.40668 0.41622 0.05033 0.0
H143 H 0.21758 0.35942 0.08981 0.0
H144 H 0.2863 0.39196 0.09073 0.0
H145 H 0.23467 0.41568 0.06457 0.0
H146 H 0.29595 0.46928 0.02045 0.0
H147 H 0.35402 0.53944 0.03684 0.0
H148 H 0.30404 0.91581 0.97697 0.0
H149 H 0.33849 0.84038 0.97415 0.0
H150 H 0.17299 0.76656 0.99206 0.0
H151 H 0.13762 0.84251 -0.00637 0.0
H152 H 0.33854 0.75992 0.0175 0.0
H153 H 0.21527 0.71936 0.90835 0.0
H154 H 0.22156 0.7768 0.92235 0.0
H155 H 0.17527 0.72799 0.94308 0.0
C156 C 0.27467 0.8837 0.98007 0.0
C157 C 0.21774 0.88564 0.98496 0.0
C158 C 0.29463 0.84038 0.97872 0.0
C159 C 0.25833 0.79766 0.98224 0.0
C160 C 0.20176 0.79907 0.98852 0.0
H161 H 0.34476 0.51493 0.95363 0.0
H162 H 0.29525 0.57683 0.9721 0.0
C163 C 0.18163 0.84258 0.9898 0.0
C164 C 0.28021 0.7523 0.97845 0.0
H165 H 0.27363 0.66384 0.92975 0.0
C166 C 0.32397 0.73875 -0.00153 0.0
C167 C 0.26133 0.72444 0.95362 0.0
C168 C 0.21612 0.73793 0.9304 0.0
C169 C 0.34991 0.69893 -0.00607 0.0
C170 C 0.3321 0.67207 0.96852 0.0
C171 C 0.28711 0.68443 0.94928 0.0
C172 C 0.36264 0.63368 0.95967 0.0
C173 C 0.39669 0.68607 0.0161 0.0
C174 C 0.41672 0.64507 0.94659 0.0
C175 C 0.44454 0.60999 0.93599 0.0
C176 C 0.41895 0.56283 0.93838 0.0
C177 C 0.36518 0.55111 0.95183 0.0
C178 C 0.33706 0.58636 0.96226 0.0
H179 H 0.39677 0.70272 0.03897 0.0
H180 H 0.39386 0.64696 0.02264 0.0
H181 H 0.43683 0.69875 0.0031 0.0
H182 H 0.43699 0.68138 0.94389 0.0
H183 H 0.48591 0.61959 0.92552 0.0
H184 H 0.99331 0.86986 0.01511 0.0
H185 H 0.91957 0.80159 0.02416 0.0
H186 H 0.79646 0.89473 -0.00249 0.0
H187 H 0.86901 0.96245 0.98865 0.0
H188 H 0.82679 0.79597 0.07054 0.0
H189 H 0.75503 0.78265 0.94377 0.0
H190 H 0.82272 0.81203 0.95272 0.0
H191 H 0.7624 0.84173 0.95476 0.0
C192 C 0.95059 0.87551 0.01062 0.0
C193 C 0.93701 0.92153 0.0012 0.0
C194 C 0.90856 0.83659 0.01591 0.0
C195 C 0.85259 0.84308 0.0112 0.0
C196 C 0.83934 0.88876 0.00082 0.0
H197 H 0.52172 0.69108 0.0405 0.0
H198 H 0.60547 0.74837 0.02614 0.0
C199 C 0.88097 0.9275 -0.00407 0.0
C200 C 0.80714 0.80328 0.01933 0.0
H201 H 0.6941 0.74288 0.98688 0.0
C202 C 0.7982 0.78373 0.05224 0.0
C203 C 0.76957 0.7879 -0.00456 0.0
C204 C 0.77801 0.80682 0.95963 0.0
C205 C 0.75147 0.75054 0.06208 0.0
C206 C 0.71336 0.73561 0.03822 0.0
C207 C 0.7231 0.75441 0.00519 0.0
C208 C 0.66273 0.70104 0.04702 0.0
C209 C 0.74217 0.73341 0.09813 0.0
C210 C 0.667 0.65537 0.06322 0.0
C211 C 0.6193 0.62308 0.07149 0.0
C212 C 0.56664 0.63556 0.06326 0.0
C213 C 0.56213 0.68089 0.04682 0.0
C214 C 0.60984 0.71341 0.0387 0.0
H215 H 0.7659 0.75782 0.11354 0.0
H216 H 0.69751 0.72987 0.1049 0.0
H217 H 0.75642 0.69807 0.10395 0.0
H218 H 0.70724 0.64452 0.0692 0.0
H219 H 0.62337 0.58799 0.08391 0.0
H220 H 0.87375 0.1825 0.94629 0.0
H221 H 0.8103 0.24055 0.92841 0.0
H222 H 0.75953 0.23938 0.02868 0.0
H223 H 0.82254 0.18179 0.04658 0.0
H224 H 0.67081 0.22676 0.98725 0.0
H225 H 0.82168 0.38227 0.93745 0.0
H226 H 0.8282 0.32821 0.921 0.0
H227 H 0.84221 0.33188 0.96348 0.0
C228 C 0.84977 0.19527 0.96453 0.0
C229 C 0.85299 0.17726 -0.00215 0.0
C230 C 0.81349 0.22843 0.9543 0.0
C231 C 0.78027 0.24448 0.97724 0.0
C232 C 0.7845 0.22737 0.01052 0.0
H233 H 0.59099 0.48133 0.96022 0.0
H234 H 0.65744 0.42425 0.97303 0.0
C235 C 0.82047 0.19429 0.02071 0.0
C236 C 0.73918 0.27747 0.96684 0.0
H237 H 0.72641 0.38983 0.93067 0.0
C238 C 0.68293 0.26238 0.97477 0.0
C239 C 0.75512 0.32407 0.95085 0.0
C240 C 0.8151 0.34291 0.94289 0.0
C241 C 0.64227 0.29261 0.96735 0.0
C242 C 0.65809 0.33904 0.95104 0.0
C243 C 0.7143 0.35412 0.94297 0.0
C244 C 0.61726 0.37314 0.94335 0.0
C245 C 0.58297 0.27507 0.97795 0.0
C246 C 0.57266 0.36347 0.92237 0.0
C247 C 0.53439 0.39582 0.91543 0.0
C248 C 0.54031 0.43844 0.92916 0.0
C249 C 0.58507 0.44822 0.94992 0.0
C250 C 0.62323 0.41591 0.95693 0.0
H251 H 0.58002 0.24336 -0.00312 0.0
H252 H 0.56349 0.30325 0.98787 0.0
H253 H 0.55877 0.265 0.95648 0.0
H254 H 0.56773 0.3311 0.91116 0.0
H255 H 0.50025 0.38775 0.89926 0.0
H256 H 0.722 0.59783 0.4983 0.0
H257 H 0.79182 0.66377 0.50765 0.0
H258 H 0.66275 0.75017 0.51968 0.0
H259 H 0.59221 0.68382 0.51108 0.0
H260 H 0.81672 0.75456 0.47595 0.0
H261 H 0.74886 0.75616 0.60419 0.0
H262 H 0.72467 0.70844 0.58107 0.0
H263 H 0.69476 0.76305 0.57486 0.0
C264 C 0.70831 0.63088 0.50283 0.0
C265 C 0.65146 0.63544 0.50431 0.0
C266 C 0.74836 0.66856 0.50811 0.0
C267 C 0.73243 0.7115 0.51496 0.0
C268 C 0.67583 0.71689 0.51518 0.0
H269 H 0.90529 0.9756 0.56112 0.0
H270 H 0.83943 0.91191 0.54332 0.0
C271 C 0.63561 0.67907 0.51007 0.0
C272 C 0.77518 0.75016 0.52254 0.0
H273 H 0.81717 0.81888 0.58194 0.0
C274 C 0.81703 0.76854 0.49916 0.0
C275 C 0.77571 0.76792 0.55299 0.0
C276 C 0.73396 0.74761 0.57987 0.0
C277 C 0.85868 0.80508 0.50516 0.0
C278 C 0.8584 0.82342 0.5353 0.0
C279 C 0.81693 0.80479 0.55877 0.0
C280 C 0.89981 0.86285 0.54293 0.0
C281 C 0.90181 0.82476 0.47902 0.0
C282 C 0.95553 0.85628 0.5484 0.0
C283 C 0.993 0.89257 0.55877 0.0
C284 C 0.97506 0.9357 0.56365 0.0
C285 C 0.91965 0.94244 0.55753 0.0
C286 C 0.88229 0.90629 0.54731 0.0
H287 H 0.89219 0.81076 0.45548 0.0
H288 H 0.905 0.86407 0.47477 0.0
H289 H 0.94291 0.81528 0.48727 0.0
H290 H 0.96953 0.82265 0.54568 0.0
H291 H 0.03544 0.88665 0.56389 0.0
H292 H 0.74546 0.38366 0.42865 0.0
H293 H 0.78758 0.31073 0.4313 0.0
H294 H 0.72774 0.26922 0.53066 0.0
H295 H 0.68506 0.34276 0.5281 0.0
H296 H 0.86923 0.28505 0.47509 0.0
H297 H 0.6819 0.14924 0.48611 0.0
H298 H 0.67832 0.21133 0.47265 0.0
H299 H 0.68779 0.19121 0.51517 0.0
C300 C 0.74127 0.35914 0.45112 0.0
C301 C 0.71241 0.36918 0.47829 0.0
C302 C 0.76512 0.31733 0.45253 0.0
C303 C 0.76065 0.28451 0.48112 0.0
C304 C 0.73098 0.29379 0.5082 0.0
H305 H 0.99154 0.07176 0.4891 0.0
H306 H 0.93519 0.12798 0.50829 0.0
C307 C 0.70672 0.33577 0.50673 0.0
C308 C 0.78973 0.24203 0.48245 0.0
H309 H 0.76874 0.12161 0.48391 0.0
C310 C 0.84742 0.2492 0.47742 0.0
C311 C 0.76095 0.19547 0.48533 0.0
C312 C 0.69877 0.18603 0.4899 0.0
C313 C 0.87699 0.21137 0.47381 0.0
C314 C 0.84819 0.16476 0.4762 0.0
C315 C 0.7907 0.15731 0.48239 0.0
C316 C 0.87627 0.12443 0.46883 0.0
C317 C 0.93825 0.22213 0.46563 0.0
C318 C 0.85991 0.1017 0.44153 0.0
C319 C 0.89126 0.06886 0.43111 0.0
C320 C 0.93946 0.05839 0.44777 0.0
C321 C 0.9541 0.079 0.47616 0.0
C322 C 0.92237 0.11146 0.48684 0.0
H323 H 0.95121 0.26058 0.45774 0.0
H324 H 0.96235 0.21132 0.48764 0.0
H325 H 0.94932 0.20214 0.44582 0.0
H326 H 0.82442 0.11108 0.42732 0.0
H327 H 0.87932 0.05303 0.40926 0.0
H328 H 0.36194 0.43713 0.50253 0.0
H329 H 0.29577 0.36515 0.51478 0.0
H330 H 0.42865 0.27951 0.51317 0.0
H331 H 0.49539 0.35151 0.5004 0.0
H332 H 0.33028 0.24379 0.48219 0.0
H333 H 0.28702 0.28719 0.60612 0.0
H334 H 0.27707 0.33343 0.57359 0.0
H335 H 0.34537 0.31715 0.58127 0.0
C336 C 0.37714 0.40301 0.50441 0.0
C337 C 0.43403 0.40005 0.50079 0.0
C338 C 0.33926 0.36193 0.5116 0.0
C339 C 0.35755 0.31714 0.51562 0.0
C340 C 0.41385 0.31384 0.51043 0.0
H341 H 0.18524 0.03114 0.57509 0.0
H342 H 0.25616 0.09949 0.55814 0.0
C343 C 0.45186 0.35499 0.50309 0.0
C344 C 0.31806 0.27401 0.52631 0.0
H345 H 0.2285 0.22265 0.58839 0.0
C346 C 0.30826 0.23892 0.50548 0.0
C347 C 0.28966 0.26778 0.5568 0.0
C348 C 0.30059 0.30314 0.58091 0.0
C349 C 0.26942 0.19833 0.51395 0.0
C350 C 0.2404 0.19257 0.5442 0.0
C351 C 0.25074 0.22735 0.56517 0.0
C352 C 0.19819 0.15116 0.55432 0.0
C353 C 0.25857 0.16256 0.49015 0.0
C354 C 0.14264 0.15784 0.55853 0.0
C355 C 0.10249 0.119 0.56806 0.0
C356 C 0.11736 0.07302 0.57364 0.0
C357 C 0.17304 0.06636 0.57018 0.0
C358 C 0.21328 0.10521 0.56054 0.0
H359 H 0.27548 0.17699 0.46531 0.0
H360 H 0.27868 0.13076 0.49905 0.0
H361 H 0.21336 0.15102 0.48831 0.0
H362 H 0.13029 0.19308 0.55406 0.0
H363 H 0.05961 0.12459 0.57064 0.0
H364 H 0.41229 0.70577 0.4825 0.0
H365 H 0.35195 0.76715 0.46669 0.0
H366 H 0.20859 0.66713 0.49973 0.0
H367 H 0.26838 0.60627 0.51581 0.0
H368 H 0.26551 0.77112 0.42367 0.0
H369 H 0.18937 0.77634 0.54957 0.0
H370 H 0.24783 0.74664 0.54141 0.0
H371 H 0.17811 0.71795 0.5376 0.0
C372 C 0.3679 0.69696 0.48625 0.0
C373 C 0.34518 0.65144 0.50088 0.0
C374 C 0.33349 0.73201 0.47731 0.0
C375 C 0.27585 0.72205 0.48279 0.0
C376 C 0.25304 0.67611 0.49624 0.0
H377 H 0.99536 0.88121 0.44158 0.0
H378 H 0.05496 0.81805 0.4545 0.0
C379 C 0.28731 0.64131 0.50539 0.0
C380 C 0.23928 0.75938 0.47428 0.0
H381 H 0.14186 0.81694 0.5062 0.0
C382 C 0.23873 0.78134 0.44175 0.0
C383 C 0.20433 0.77273 0.49792 0.0
C384 C 0.20523 0.75255 0.53363 0.0
C385 C 0.20346 0.81564 0.43212 0.0
C386 C 0.16813 0.82842 0.45568 0.0
C387 C 0.16866 0.80661 0.48817 0.0
C388 C 0.13193 0.86584 0.44737 0.0
C389 C 0.2036 0.8376 0.39676 0.0
C390 C 0.15552 0.91331 0.43944 0.0
C391 C 0.12161 0.949 0.43269 0.0
C392 C 0.06368 0.93785 0.43386 0.0
C393 C 0.03996 0.89035 0.4413 0.0
C394 C 0.07389 0.85453 0.4484 0.0
H395 H 0.22437 0.81709 0.38051 0.0
H396 H 0.16056 0.84002 0.38821 0.0
H397 H 0.22617 0.87417 0.3944 0.0
H398 H 0.20017 0.92279 0.4389 0.0
H399 H 0.14046 0.98555 0.42693 0.0
H400 H 0.99018 0.03948 0.10779 0.0
H401 H 1.00475 0.03207 0.16674 0.0
H402 H 0.15977 0.97831 0.15402 0.0
H403 H 0.14489 0.98457 0.09483 0.0
H404 H 0.09975 0.92927 0.2068 0.0
H405 H 0.11361 0.12232 0.21098 0.0
H406 H 0.05057 0.10016 0.19222 0.0
H407 H 0.11639 0.09761 0.17304 0.0
C408 C 0.02731 0.02593 0.11748 0.0
C409 C 0.06665 0.01304 0.09662 0.0
C410 C 0.03575 0.022 0.15117 0.0
C411 C 0.08404 1.00583 0.16462 0.0
C412 C 0.12251 0.99134 0.14405 0.0
H413 H 0.12617 0.05468 0.3687 0.0
H414 H 0.15417 0.04961 0.31205 0.0
C415 C 0.1139 0.99491 0.11028 0.0
C416 C 0.09383 1.00427 0.2002 0.0
H417 H 0.09319 0.07194 0.26216 0.0
C418 C 0.09925 0.96056 0.21894 0.0
C419 C 0.09495 0.04536 0.2159 0.0
C420 C 0.09422 0.09408 0.19692 0.0
C421 C 0.1018 0.9563 0.25324 0.0
C422 C 0.09743 0.99658 0.26909 0.0
C423 C 0.0959 0.04085 0.25014 0.0
C424 C 0.08838 0.99323 0.30494 0.0
C425 C 0.10842 0.90857 0.27207 0.0
C426 C 0.04316 0.96252 0.31998 0.0
C427 C 0.02792 0.96518 0.3522 0.0
C428 C 0.0569 0.9991 0.3696 0.0
C429 C 0.1036 0.02833 0.35537 0.0
C430 C 0.11936 0.02538 0.32319 0.0
H431 H 0.13266 0.88811 0.25758 0.0
H432 H 0.12944 0.91219 0.29575 0.0
H433 H 0.06685 0.88771 0.27705 0.0
H434 H 0.01754 0.93844 0.30625 0.0
H435 H 0.99147 0.94277 0.36298 0.0
H436 H 0.96161 0.10748 0.9016 0.0
H437 H 0.95871 0.12449 0.84165 0.0
H438 H 0.10464 0.05573 0.83373 0.0
H439 H 0.10813 0.03879 0.89316 0.0
H440 H 0.10385 0.14664 0.79177 0.0
H441 H 0.91376 0.01688 0.7835 0.0
H442 H 0.91151 0.0614 0.81025 0.0
H443 H 0.95541 0.01597 0.81988 0.0
C444 C 0.99312 0.09611 0.88705 0.0
C445 C 0.03477 0.07138 0.90212 0.0
C446 C 0.99141 0.10588 0.85288 0.0
C447 C 0.03135 0.09113 0.8334 0.0
C448 C 0.07356 0.06748 0.84841 0.0
H449 H 0.12451 0.03793 0.64839 0.0
H450 H 0.12252 0.06764 0.7014 0.0
C451 C 0.07522 0.05758 0.88239 0.0
C452 C 0.02825 0.09769 0.79729 0.0
H453 H 0.95923 0.05076 0.73454 0.0
C454 C 0.07175 0.12638 0.7791 0.0
C455 C 0.98617 0.07139 0.78095 0.0
C456 C 0.93908 0.03941 0.79948 0.0
C457 C 0.07542 0.12797 0.74497 0.0
C458 C 0.03519 0.09934 0.72887 0.0
C459 C 0.99005 0.07275 0.74691 0.0
C460 C 0.04188 0.09171 0.6943 0.0
C461 C 0.12289 0.15957 0.72664 0.0
C462 C 0.99785 0.09613 0.67242 0.0
C463 C 0.99895 0.0787 0.64239 0.0
C464 C 0.04396 0.05657 0.63391 0.0
C465 C 0.08979 0.05538 0.65454 0.0
C466 C 0.08864 0.07252 0.68468 0.0
H467 H 0.13677 0.19085 0.73933 0.0
H468 H 0.1586 0.13933 0.72559 0.0
H469 H 0.11124 0.17222 0.70122 0.0
H470 H 0.96133 0.11064 0.67937 0.0
H471 H 0.96338 0.07997 0.62655 0.0
H472 H 0.6343 0.4472 0.59246 0.0
H473 H 0.64787 0.43489 0.65202 0.0
H474 H 0.50792 0.50856 0.66602 0.0
H475 H 0.49405 0.52107 0.60717 0.0
H476 H 0.61735 0.54007 0.69721 0.0
H477 H 0.53705 0.34737 0.72371 0.0
H478 H 0.58479 0.36902 0.69 0.0
H479 H 0.51511 0.38312 0.68778 0.0
C480 C 0.60624 0.46044 0.60831 0.0
C481 C 0.56321 0.48523 0.59513 0.0
C482 C 0.61407 0.45336 0.64221 0.0
C483 C 0.57889 0.47093 0.66316 0.0
C484 C 0.53555 0.49492 0.65009 0.0
H485 H 0.43391 0.46037 0.8416 0.0
H486 H 0.47001 0.44838 0.78834 0.0
C487 C 0.52768 0.50196 0.61645 0.0
C488 C 0.58682 0.46593 0.69885 0.0
H489 H 0.54644 0.39109 0.76835 0.0
C490 C 0.60349 0.50728 0.71299 0.0
C491 C 0.56856 0.423 0.719 0.0
C492 C 0.55025 0.37788 0.70459 0.0
C493 C 0.59797 0.50781 0.74676 0.0
C494 C 0.57594 0.46556 0.76676 0.0
C495 C 0.56346 0.42331 0.75287 0.0
C496 C 0.55625 0.46668 0.80047 0.0
C497 C 0.61116 0.55441 0.76028 0.0
C498 C 0.59289 0.4799 0.82508 0.0
C499 C 0.57206 0.48741 0.85528 0.0
C500 C 0.51459 0.48141 0.86111 0.0
C501 C 0.4783 0.46586 0.83715 0.0
C502 C 0.49894 0.45857 0.80702 0.0
H503 H 0.62116 0.58488 0.74066 0.0
H504 H 0.57555 0.56118 0.77497 0.0
H505 H 0.64747 0.55283 0.77659 0.0
H506 H 0.63728 0.48578 0.82058 0.0
H507 H 0.6005 0.49929 0.8737 0.0
H508 H 0.48158 0.61774 0.40637 0.0
H509 H 0.48542 0.64594 0.34745 0.0
H510 H 0.57751 0.53209 0.33122 0.0
H511 H 0.57531 0.5047 0.38978 0.0
H512 H 0.62302 0.61764 0.29823 0.0
H513 H 0.3953 0.58542 0.27743 0.0
H514 H 0.41723 0.62407 0.30728 0.0
H515 H 0.42626 0.56239 0.31502 0.0
C516 C 0.50218 0.59855 0.39014 0.0
C517 C 0.52789 0.55888 0.40261 0.0
C518 C 0.50434 0.61469 0.35654 0.0
C519 C 0.53141 0.59087 0.33498 0.0
C520 C 0.55664 0.5511 0.34746 0.0
H521 H 0.5633 0.53308 0.14632 0.0
H522 H 0.57983 0.55062 0.20247 0.0
C523 C 0.55506 0.53534 0.38092 0.0
C524 C 0.53354 0.60639 0.29927 0.0
H525 H 0.45282 0.61058 0.23135 0.0
C526 C 0.58578 0.61685 0.2836 0.0
C527 C 0.48489 0.60569 0.2803 0.0
C528 C 0.42769 0.59349 0.29571 0.0
C529 C 0.59067 0.62395 0.24937 0.0
C530 C 0.54214 0.62046 0.2305 0.0
C531 C 0.48993 0.61336 0.24607 0.0
C532 C 0.54397 0.61646 0.19521 0.0
C533 C 0.64763 0.63331 0.23363 0.0
C534 C 0.51962 0.64825 0.17247 0.0
C535 C 0.51068 0.63828 0.14044 0.0
C536 C 0.52502 0.5961 0.13119 0.0
C537 C 0.55237 0.56586 0.15327 0.0
C538 C 0.56193 0.57602 0.18511 0.0
H539 H 0.67905 0.64896 0.25015 0.0
H540 H 0.66012 0.59925 0.2282 0.0
H541 H 0.64781 0.65757 0.21026 0.0
H542 H 0.50499 0.67934 0.17999 0.0
H543 H 0.48907 0.6616 0.12355 0.0
loop_
_geom_bond_atom_site_label_1
_geom_bond_atom_site_label_2
_geom_bond_distance
_geom_bond_site_symmetry_2
_ccdc_geom_bond_type
Co0 N5 2.057 . S
Co0 O17 2.021 . S
Co0 O20 2.062 . S
Co0 O24 2.117 1_564 S
Co0 O25 2.020 1_565 S
C1 O21 1.259 1_455 S
C1 O24 1.258 . S
Co2 N11 2.057 . S
Co2 O18 2.117 1_655 S
Co2 O19 2.020 1_545 S
Co2 O21 2.021 1_554 S
Co2 O26 2.063 1_654 S
C3 N5 1.316 . S
C3 N6 1.347 . S
C3 H8 0.931 . S
C4 N5 1.375 1_556 S
C4 C7 1.350 . S
C4 H9 0.930 . S
N5 Co0 2.057 . S
N5 C3 1.316 . S
N5 C4 1.375 1_554 S
N6 C3 1.347 . S
N6 C7 1.373 1_554 S
C7 C4 1.350 . S
C7 N6 1.373 1_556 S
C7 H28 0.931 . S
H8 C3 0.931 . S
H9 C4 0.930 . S
C10 O17 1.259 1_545 S
C10 O18 1.258 . S
N11 Co2 2.057 . S
N11 C12 1.316 1_554 S
N11 C13 1.375 . S
C12 N11 1.316 1_556 S
C12 N14 1.347 1_556 S
C12 H23 0.931 . S
C13 N11 1.375 . S
C13 C15 1.350 . S
C13 H22 0.930 . S
N14 C12 1.347 1_554 S
N14 C15 1.373 . S
C15 C13 1.350 . S
C15 N14 1.373 . S
C15 H29 0.931 . S
C16 O19 1.256 . S
C16 O20 1.255 1_655 S
O17 Co0 2.021 . S
O17 C10 1.259 1_565 S
O18 Co2 2.117 1_455 S
O18 C10 1.258 . S
O19 Co2 2.020 1_565 S
O19 C16 1.256 . S
O20 Co0 2.062 . S
O20 C16 1.255 1_455 S
O21 C1 1.259 1_655 S
O21 Co2 2.021 1_556 S
H22 C13 0.930 . S
H23 C12 0.931 . S
O24 Co0 2.117 1_546 S
O24 C1 1.258 . S
O25 Co0 2.020 1_545 S
O25 C27 1.256 . S
O26 Co2 2.063 1_456 S
O26 C27 1.253 1_556 S
C27 O25 1.256 . S
C27 O26 1.253 1_554 S
H28 C7 0.931 . S
H29 C15 0.931 . S
Co30 N35 2.057 . S
Co30 O47 2.021 . S
Co30 O50 2.062 . S
Co30 O54 2.117 . S
Co30 O55 2.020 . S
C31 O51 1.259 . S
C31 O54 1.258 . S
Co32 N41 2.057 . S
Co32 O48 2.117 . S
Co32 O49 2.020 . S
Co32 O51 2.021 . S
Co32 O56 2.062 . S
C33 N35 1.316 . S
C33 N36 1.347 . S
C33 H38 0.931 . S
C34 N35 1.375 . S
C34 C37 1.350 . S
C34 H39 0.930 . S
N35 Co30 2.057 . S
N35 C33 1.316 . S
N35 C34 1.375 . S
N36 C33 1.347 . S
N36 C37 1.373 . S
C37 C34 1.350 . S
C37 N36 1.373 . S
C37 H58 0.931 . S
H38 C33 0.931 . S
H39 C34 0.930 . S
C40 O47 1.259 . S
C40 O48 1.258 . S
N41 Co32 2.057 . S
N41 C42 1.316 . S
N41 C43 1.375 . S
C42 N41 1.316 . S
C42 N44 1.347 . S
C42 H53 0.931 . S
C43 N41 1.375 . S
C43 C45 1.350 . S
C43 H52 0.930 . S
N44 C42 1.347 . S
N44 C45 1.373 . S
C45 C43 1.350 . S
C45 N44 1.373 . S
C45 H59 0.931 . S
C46 O49 1.256 . S
C46 O50 1.255 . S
O47 Co30 2.021 . S
O47 C40 1.259 . S
O48 Co32 2.117 . S
O48 C40 1.258 . S
O49 Co32 2.020 . S
O49 C46 1.256 . S
O50 Co30 2.062 . S
O50 C46 1.255 . S
O51 C31 1.259 . S
O51 Co32 2.021 . S
H52 C43 0.930 . S
H53 C42 0.931 . S
O54 Co30 2.117 . S
O54 C31 1.258 . S
O55 Co30 2.020 . S
O55 C57 1.256 . S
O56 Co32 2.062 . S
O56 C57 1.255 . S
C57 O55 1.256 . S
C57 O56 1.255 . S
H58 C37 0.931 . S
H59 C45 0.931 . S
C60 N61 1.317 1_545 S
C60 N62 1.348 1_455 S
C60 C63 1.485 1_545 S
N61 C60 1.317 1_565 S
N61 N65 1.370 1_565 S
N62 C60 1.348 1_655 S
N62 C64 1.346 . S
C63 C60 1.485 1_565 S
C63 H67 0.960 1_455 S
C63 H68 0.961 1_565 S
C63 H69 0.960 . S
C64 N62 1.346 . S
C64 N65 1.307 1_655 S
C64 C66 1.486 . S
N65 N61 1.370 1_545 S
N65 C64 1.307 1_455 S
C66 C64 1.486 . S
C66 H70 0.960 . S
C66 H71 0.960 . S
C66 H72 0.959 . S
H67 C63 0.960 1_655 S
H68 C63 0.961 1_545 S
H69 C63 0.960 . S
H70 C66 0.960 . S
H71 C66 0.960 . S
H72 C66 0.959 . S
C73 N74 1.317 . S
C73 N75 1.348 1_445 S
C73 C76 1.485 . S
N74 C73 1.317 . S
N74 N78 1.370 . S
N75 C73 1.348 1_665 S
N75 C77 1.350 . S
C76 C73 1.485 . S
C76 H80 0.960 1_455 S
C76 H81 0.961 . S
C76 H82 0.960 . S
C77 N75 1.350 . S
C77 N78 1.294 1_665 S
C77 C79 1.494 . S
N78 N74 1.370 . S
N78 C77 1.294 1_445 S
C79 C77 1.494 . S
C79 H83 0.960 . S
C79 H84 0.960 . S
C79 H85 0.959 . S
H80 C76 0.960 1_655 S
H81 C76 0.961 . S
H82 C76 0.960 . S
H83 C79 0.960 . S
H84 C79 0.960 . S
H85 C79 0.959 . S
C86 N87 1.317 . S
C86 N88 1.348 . S
C86 C89 1.485 1_556 S
N87 C86 1.317 . S
N87 N91 1.370 . S
N88 C86 1.348 . S
N88 C90 1.346 . S
C89 C86 1.485 1_554 S
C89 H93 0.960 . S
C89 H94 0.961 . S
C89 H95 0.960 . S
C90 N88 1.346 . S
C90 N91 1.307 . S
C90 C92 1.486 . S
N91 N87 1.370 . S
N91 C90 1.307 . S
C92 C90 1.486 . S
C92 H96 0.960 . S
C92 H97 0.960 . S
C92 H98 0.959 . S
H93 C89 0.960 . S
H94 C89 0.961 . S
H95 C89 0.960 . S
H96 C92 0.960 . S
H97 C92 0.960 . S
H98 C92 0.959 . S
C99 N100 1.317 . S
C99 N101 1.348 . S
C99 C102 1.469 1_554 S
N100 C99 1.317 . S
N100 N104 1.370 . S
N101 C99 1.348 . S
N101 C103 1.346 . S
C102 C99 1.469 1_556 S
C102 H106 0.967 . S
C102 H107 0.970 . S
C102 H108 0.960 . S
C103 N101 1.346 . S
C103 N104 1.307 . S
C103 C105 1.486 . S
N104 N100 1.370 . S
N104 C103 1.307 . S
C105 C103 1.486 . S
C105 H109 0.960 . S
C105 H110 0.960 . S
C105 H111 0.959 . S
H106 C102 0.967 . S
H107 C102 0.970 . S
H108 C102 0.960 . S
H109 C105 0.960 . S
H110 C105 0.960 . S
H111 C105 0.959 . S
H112 C120 0.929 . S
H113 C122 0.930 . S
H114 C124 0.930 . S
H115 C127 0.929 . S
H116 C130 0.930 . S
H117 C132 0.960 . S
H118 C132 0.960 . S
H119 C132 0.960 . S
C120 H112 0.929 . S
C120 C121 1.377 . S
C120 C122 1.384 . S
C121 C120 1.377 . S
C121 C127 1.390 1_554 S
C122 H113 0.930 . S
C122 C120 1.384 . S
C122 C123 1.372 . S
C123 C122 1.372 . S
C123 C124 1.400 1_554 S
C123 C128 1.490 . S
C124 H114 0.930 . S
C124 C123 1.400 1_556 S
C124 C127 1.386 . S
H125 C141 0.930 . S
H126 C142 0.931 . S
C127 H115 0.929 . S
C127 C121 1.390 1_556 S
C127 C124 1.386 . S
C128 C123 1.490 . S
C128 C130 1.395 . S
C128 C131 1.403 1_554 S
H129 C135 0.934 . S
C130 H116 0.930 . S
C130 C128 1.395 . S
C130 C133 1.403 . S
C131 C128 1.403 1_556 S
C131 C132 1.524 . S
C131 C135 1.402 . S
C132 H117 0.960 . S
C132 H118 0.960 . S
C132 H119 0.960 . S
C132 C131 1.524 . S
C133 C130 1.403 . S
C133 C134 1.392 . S
C133 C137 1.495 . S
C134 C133 1.392 . S
C134 C135 1.379 1_554 S
C134 C136 1.478 . S
C135 H129 0.934 . S
C135 C131 1.402 . S
C135 C134 1.379 1_556 S
C136 C134 1.478 . S
C136 C138 1.381 . S
C136 C142 1.383 . S
C137 C133 1.495 . S
C137 H143 0.959 . S
C137 H144 0.961 . S
C137 H145 0.960 . S
C138 C136 1.381 . S
C138 C139 1.394 . S
C138 H146 0.930 . S
C139 C138 1.394 . S
C139 C140 1.383 . S
C139 H147 0.929 . S
C140 C139 1.383 . S
C140 C141 1.377 . S
C141 H125 0.930 . S
C141 C140 1.377 . S
C141 C142 1.379 . S
C142 H126 0.931 . S
C142 C136 1.383 . S
C142 C141 1.379 . S
H143 C137 0.959 . S
H144 C137 0.961 . S
H145 C137 0.960 . S
H146 C138 0.930 . S
H147 C139 0.929 . S
H148 C156 0.929 . S
H149 C158 0.930 . S
H150 C160 0.930 . S
H151 C163 0.929 . S
H152 C166 0.930 . S
H153 C168 0.960 . S
H154 C168 0.960 . S
H155 C168 0.960 . S
C156 H148 0.929 . S
C156 C157 1.377 1_556 S
C156 C158 1.384 . S
C157 C156 1.377 1_554 S
C157 C163 1.390 . S
C158 H149 0.930 . S
C158 C156 1.384 . S
C158 C159 1.372 1_556 S
C159 C158 1.372 1_554 S
C159 C160 1.400 . S
C159 C164 1.490 1_554 S
C160 H150 0.930 . S
C160 C159 1.400 . S
C160 C163 1.386 . S
H161 C177 0.930 1_554 S
H162 C178 0.931 . S
C163 H151 0.929 . S
C163 C157 1.390 . S
C163 C160 1.386 . S
C164 C159 1.490 1_556 S
C164 C166 1.395 1_556 S
C164 C167 1.403 . S
H165 C171 0.930 . S
C166 H152 0.930 . S
C166 C164 1.395 1_554 S
C166 C169 1.403 1_554 S
C167 C164 1.403 . S
C167 C168 1.524 . S
C167 C171 1.400 . S
C168 H153 0.960 . S
C168 H154 0.960 . S
C168 H155 0.960 . S
C168 C167 1.524 . S
C169 C166 1.403 1_556 S
C169 C170 1.392 . S
C169 C173 1.495 1_556 S
C170 C169 1.392 . S
C170 C171 1.385 . S
C170 C172 1.478 . S
C171 H165 0.930 . S
C171 C167 1.400 . S
C171 C170 1.385 . S
C172 C170 1.478 . S
C172 C174 1.381 . S
C172 C178 1.383 1_556 S
C173 C169 1.495 1_554 S
C173 H179 0.959 . S
C173 H180 0.961 . S
C173 H181 0.960 1_554 S
C174 C172 1.381 . S
C174 C175 1.394 . S
C174 H182 0.930 . S
C175 C174 1.394 . S
C175 C176 1.383 . S
C175 H183 0.929 . S
C176 C175 1.383 . S
C176 C177 1.377 . S
C177 H161 0.930 1_556 S
C177 C176 1.377 . S
C177 C178 1.379 1_556 S
C178 H162 0.931 . S
C178 C172 1.383 1_554 S
C178 C177 1.379 1_554 S
H179 C173 0.959 . S
H180 C173 0.961 . S
H181 C173 0.960 1_556 S
H182 C174 0.930 . S
H183 C175 0.929 . S
H184 C192 0.929 1_556 S
H185 C194 0.930 . S
H186 C196 0.930 . S
H187 C199 0.929 . S
H188 C202 0.930 . S
H189 C204 0.960 . S
H190 C204 0.960 . S
H191 C204 0.960 . S
C192 H184 0.929 1_554 S
C192 C193 1.377 . S
C192 C194 1.384 . S
C193 C192 1.377 . S
C193 C199 1.390 . S
C194 H185 0.930 . S
C194 C192 1.384 . S
C194 C195 1.372 . S
C195 C194 1.372 . S
C195 C196 1.400 . S
C195 C200 1.490 . S
C196 H186 0.930 . S
C196 C195 1.400 . S
C196 C199 1.386 . S
H197 C213 0.930 . S
H198 C214 0.931 . S
C199 H187 0.929 . S
C199 C193 1.390 . S
C199 C196 1.386 . S
C200 C195 1.490 . S
C200 C202 1.395 . S
C200 C203 1.403 . S
H201 C207 0.930 . S
C202 H188 0.930 . S
C202 C200 1.395 . S
C202 C205 1.403 . S
C203 C200 1.403 . S
C203 C204 1.524 1_554 S
C203 C207 1.400 . S
C204 H189 0.960 . S
C204 H190 0.960 . S
C204 H191 0.960 . S
C204 C203 1.524 1_556 S
C205 C202 1.403 . S
C205 C206 1.392 . S
C205 C209 1.495 . S
C206 C205 1.392 . S
C206 C207 1.385 . S
C206 C208 1.478 . S
C207 H201 0.930 . S
C207 C203 1.400 . S
C207 C206 1.385 . S
C208 C206 1.478 . S
C208 C210 1.381 . S
C208 C214 1.383 . S
C209 C205 1.495 . S
C209 H215 0.959 . S
C209 H216 0.961 . S
C209 H217 0.960 . S
C210 C208 1.381 . S
C210 C211 1.394 . S
C210 H218 0.930 . S
C211 C210 1.394 . S
C211 C212 1.383 . S
C211 H219 0.929 . S
C212 C211 1.383 . S
C212 C213 1.377 . S
C213 H197 0.930 . S
C213 C212 1.377 . S
C213 C214 1.379 . S
C214 H198 0.931 . S
C214 C208 1.383 . S
C214 C213 1.379 . S
H215 C209 0.959 . S
H216 C209 0.961 . S
H217 C209 0.960 . S
H218 C210 0.930 . S
H219 C211 0.929 . S
H220 C228 0.929 . S
H221 C230 0.930 . S
H222 C232 0.930 . S
H223 C235 0.929 . S
H224 C238 0.930 . S
H225 C240 0.960 . S
H226 C240 0.960 . S
H227 C240 0.960 1_554 S
C228 H220 0.929 . S
C228 C229 1.377 . S
C228 C230 1.384 . S
C229 C228 1.377 . S
C229 C235 1.390 1_556 S
C230 H221 0.930 . S
C230 C228 1.384 . S
C230 C231 1.372 . S
C231 C230 1.372 . S
C231 C232 1.400 1_556 S
C231 C236 1.490 . S
C232 H222 0.930 . S
C232 C231 1.400 1_554 S
C232 C235 1.386 . S
H233 C249 0.930 1_554 S
H234 C250 0.931 1_554 S
C235 H223 0.929 . S
C235 C229 1.390 1_554 S
C235 C232 1.386 . S
C236 C231 1.490 . S
C236 C238 1.395 . S
C236 C239 1.403 . S
H237 C243 0.930 . S
C238 H224 0.930 . S
C238 C236 1.395 . S
C238 C241 1.403 . S
C239 C236 1.403 . S
C239 C240 1.524 . S
C239 C243 1.400 . S
C240 H225 0.960 . S
C240 H226 0.960 . S
C240 H227 0.960 1_556 S
C240 C239 1.524 . S
C241 C238 1.403 . S
C241 C242 1.392 . S
C241 C245 1.495 . S
C242 C241 1.392 . S
C242 C243 1.385 . S
C242 C244 1.478 . S
C243 H237 0.930 . S
C243 C239 1.400 . S
C243 C242 1.385 . S
C244 C242 1.478 . S
C244 C246 1.381 . S
C244 C250 1.383 . S
C245 C241 1.495 . S
C245 H251 0.959 . S
C245 H252 0.961 . S
C245 H253 0.960 . S
C246 C244 1.381 . S
C246 C247 1.394 . S
C246 H254 0.930 . S
C247 C246 1.394 . S
C247 C248 1.383 . S
C247 H255 0.929 . S
C248 C247 1.383 . S
C248 C249 1.377 . S
C249 H233 0.930 1_556 S
C249 C248 1.377 . S
C249 C250 1.379 . S
C250 H234 0.931 1_556 S
C250 C244 1.383 . S
C250 C249 1.379 . S
H251 C245 0.959 . S
H252 C245 0.961 . S
H253 C245 0.960 . S
H254 C246 0.930 . S
H255 C247 0.929 . S
H256 C264 0.929 . S
H257 C266 0.930 . S
H258 C268 0.930 . S
H259 C271 0.929 . S
H260 C274 0.930 . S
H261 C276 0.960 . S
H262 C276 0.960 . S
H263 C276 0.960 . S
C264 H256 0.929 . S
C264 C265 1.377 . S
C264 C266 1.384 . S
C265 C264 1.377 . S
C265 C271 1.390 . S
C266 H257 0.930 . S
C266 C264 1.384 . S
C266 C267 1.372 . S
C267 C266 1.372 . S
C267 C268 1.400 . S
C267 C272 1.490 . S
C268 H258 0.930 . S
C268 C267 1.400 . S
C268 C271 1.386 . S
H269 C285 0.930 . S
H270 C286 0.931 . S
C271 H259 0.929 . S
C271 C265 1.390 . S
C271 C268 1.386 . S
C272 C267 1.490 . S
C272 C274 1.395 . S
C272 C275 1.403 . S
H273 C279 0.930 . S
C274 H260 0.930 . S
C274 C272 1.395 . S
C274 C277 1.403 . S
C275 C272 1.403 . S
C275 C276 1.524 . S
C275 C279 1.400 . S
C276 H261 0.960 . S
C276 H262 0.960 . S
C276 H263 0.960 . S
C276 C275 1.524 . S
C277 C274 1.403 . S
C277 C278 1.392 . S
C277 C281 1.495 . S
C278 C277 1.392 . S
C278 C279 1.385 . S
C278 C280 1.478 . S
C279 H273 0.930 . S
C279 C275 1.400 . S
C279 C278 1.385 . S
C280 C278 1.478 . S
C280 C282 1.381 . S
C280 C286 1.383 . S
C281 C277 1.495 . S
C281 H287 0.959 . S
C281 H288 0.961 . S
C281 H289 0.960 . S
C282 C280 1.381 . S
C282 C283 1.394 . S
C282 H290 0.930 . S
C283 C282 1.394 . S
C283 C284 1.383 . S
C283 H291 0.929 . S
C284 C283 1.383 . S
C284 C285 1.377 . S
C285 H269 0.930 . S
C285 C284 1.377 . S
C285 C286 1.379 . S
C286 H270 0.931 . S
C286 C280 1.383 . S
C286 C285 1.379 . S
H287 C281 0.959 . S
H288 C281 0.961 . S
H289 C281 0.960 . S
H290 C282 0.930 . S
H291 C283 0.929 . S
H292 C300 0.929 . S
H293 C302 0.930 . S
H294 C304 0.930 . S
H295 C307 0.929 . S
H296 C310 0.930 . S
H297 C312 0.960 . S
H298 C312 0.960 . S
H299 C312 0.960 . S
C300 H292 0.929 . S
C300 C301 1.377 . S
C300 C302 1.384 . S
C301 C300 1.377 . S
C301 C307 1.390 . S
C302 H293 0.930 . S
C302 C300 1.384 . S
C302 C303 1.372 . S
C303 C302 1.372 . S
C303 C304 1.400 . S
C303 C308 1.490 . S
C304 H294 0.930 . S
C304 C303 1.400 . S
C304 C307 1.386 . S
H305 C321 0.930 . S
H306 C322 0.931 . S
C307 H295 0.929 . S
C307 C301 1.390 . S
C307 C304 1.386 . S
C308 C303 1.490 . S
C308 C310 1.395 . S
C308 C311 1.403 . S
H309 C315 0.930 . S
C310 H296 0.930 . S
C310 C308 1.395 . S
C310 C313 1.403 . S
C311 C308 1.403 . S
C311 C312 1.524 . S
C311 C315 1.400 . S
C312 H297 0.960 . S
C312 H298 0.960 . S
C312 H299 0.960 . S
C312 C311 1.524 . S
C313 C310 1.403 . S
C313 C314 1.392 . S
C313 C317 1.495 . S
C314 C313 1.392 . S
C314 C315 1.385 . S
C314 C316 1.478 . S
C315 H309 0.930 . S
C315 C311 1.400 . S
C315 C314 1.385 . S
C316 C314 1.478 . S
C316 C318 1.381 . S
C316 C322 1.383 . S
C317 C313 1.495 . S
C317 H323 0.959 . S
C317 H324 0.961 . S
C317 H325 0.960 . S
C318 C316 1.381 . S
C318 C319 1.394 . S
C318 H326 0.930 . S
C319 C318 1.394 . S
C319 C320 1.383 . S
C319 H327 0.929 . S
C320 C319 1.383 . S
C320 C321 1.377 . S
C321 H305 0.930 . S
C321 C320 1.377 . S
C321 C322 1.379 . S
C322 H306 0.931 . S
C322 C316 1.383 . S
C322 C321 1.379 . S
H323 C317 0.959 . S
H324 C317 0.961 . S
H325 C317 0.960 . S
H326 C318 0.930 . S
H327 C319 0.929 . S
H328 C336 0.929 . S
H329 C338 0.930 . S
H330 C340 0.930 . S
H331 C343 0.929 . S
H332 C346 0.930 . S
H333 C348 0.960 . S
H334 C348 0.960 . S
H335 C348 0.960 . S
C336 H328 0.929 . S
C336 C337 1.377 . S
C336 C338 1.384 . S
C337 C336 1.377 . S
C337 C343 1.390 . S
C338 H329 0.930 . S
C338 C336 1.384 . S
C338 C339 1.372 . S
C339 C338 1.372 . S
C339 C340 1.400 . S
C339 C344 1.490 . S
C340 H330 0.930 . S
C340 C339 1.400 . S
C340 C343 1.386 . S
H341 C357 0.930 . S
H342 C358 0.931 . S
C343 H331 0.929 . S
C343 C337 1.390 . S
C343 C340 1.386 . S
C344 C339 1.490 . S
C344 C346 1.395 . S
C344 C347 1.403 . S
H345 C351 0.930 . S
C346 H332 0.930 . S
C346 C344 1.395 . S
C346 C349 1.403 . S
C347 C344 1.403 . S
C347 C348 1.524 . S
C347 C351 1.400 . S
C348 H333 0.960 . S
C348 H334 0.960 . S
C348 H335 0.960 . S
C348 C347 1.524 . S
C349 C346 1.403 . S
C349 C350 1.392 . S
C349 C353 1.495 . S
C350 C349 1.392 . S
C350 C351 1.385 . S
C350 C352 1.478 . S
C351 H345 0.930 . S
C351 C347 1.400 . S
C351 C350 1.385 . S
C352 C350 1.478 . S
C352 C354 1.381 . S
C352 C358 1.383 . S
C353 C349 1.495 . S
C353 H359 0.959 . S
C353 H360 0.961 . S
C353 H361 0.960 . S
C354 C352 1.381 . S
C354 C355 1.394 . S
C354 H362 0.930 . S
C355 C354 1.394 . S
C355 C356 1.383 . S
C355 H363 0.929 . S
C356 C355 1.383 . S
C356 C357 1.377 . S
C357 H341 0.930 . S
C357 C356 1.377 . S
C357 C358 1.379 . S
C358 H342 0.931 . S
C358 C352 1.383 . S
C358 C357 1.379 . S
H359 C353 0.959 . S
H360 C353 0.961 . S
H361 C353 0.960 . S
H362 C354 0.930 . S
H363 C355 0.929 . S
H364 C372 0.929 . S
H365 C374 0.930 . S
H366 C376 0.930 . S
H367 C379 0.929 . S
H368 C382 0.930 . S
H369 C384 0.960 . S
H370 C384 0.960 . S
H371 C384 0.960 . S
C372 H364 0.929 . S
C372 C373 1.377 . S
C372 C374 1.384 . S
C373 C372 1.377 . S
C373 C379 1.390 . S
C374 H365 0.930 . S
C374 C372 1.384 . S
C374 C375 1.372 . S
C375 C374 1.372 . S
C375 C376 1.400 . S
C375 C380 1.490 . S
C376 H366 0.930 . S
C376 C375 1.400 . S
C376 C379 1.386 . S
H377 C393 0.930 . S
H378 C394 0.931 . S
C379 H367 0.929 . S
C379 C373 1.390 . S
C379 C376 1.386 . S
C380 C375 1.490 . S
C380 C382 1.395 . S
C380 C383 1.403 . S
H381 C387 0.930 . S
C382 H368 0.930 . S
C382 C380 1.395 . S
C382 C385 1.403 . S
C383 C380 1.403 . S
C383 C384 1.524 . S
C383 C387 1.400 . S
C384 H369 0.960 . S
C384 H370 0.960 . S
C384 H371 0.960 . S
C384 C383 1.524 . S
C385 C382 1.403 . S
C385 C386 1.392 . S
C385 C389 1.495 . S
C386 C385 1.392 . S
C386 C387 1.385 . S
C386 C388 1.478 . S
C387 H381 0.930 . S
C387 C383 1.400 . S
C387 C386 1.385 . S
C388 C386 1.478 . S
C388 C390 1.381 . S
C388 C394 1.383 . S
C389 C385 1.495 . S
C389 H395 0.959 . S
C389 H396 0.961 . S
C389 H397 0.960 . S
C390 C388 1.381 . S
C390 C391 1.394 . S
C390 H398 0.930 . S
C391 C390 1.394 . S
C391 C392 1.383 . S
C391 H399 0.929 . S
C392 C391 1.383 . S
C392 C393 1.377 . S
C393 H377 0.930 . S
C393 C392 1.377 . S
C393 C394 1.379 . S
C394 H378 0.931 . S
C394 C388 1.383 . S
C394 C393 1.379 . S
H395 C389 0.959 . S
H396 C389 0.961 . S
H397 C389 0.960 . S
H398 C390 0.930 . S
H399 C391 0.929 . S
H400 C408 0.929 . S
H401 C410 0.930 . S
H402 C412 0.930 . S
H403 C415 0.929 . S
H404 C418 0.930 . S
H405 C420 0.960 . S
H406 C420 0.960 . S
H407 C420 0.960 1_455 S
C408 H400 0.929 . S
C408 C409 1.377 1_665 S
C408 C410 1.384 . S
C409 C408 1.377 1_445 S
C409 C415 1.390 . S
C410 H401 0.930 . S
C410 C408 1.384 . S
C410 C411 1.372 1_665 S
C411 C410 1.372 1_445 S
C411 C412 1.400 . S
C411 C416 1.490 1_545 S
C412 H402 0.930 . S
C412 C411 1.400 . S
C412 C415 1.386 . S
H413 C429 0.930 . S
H414 C430 0.931 . S
C415 H403 0.929 . S
C415 C409 1.390 . S
C415 C412 1.386 . S
C416 C411 1.490 1_565 S
C416 C418 1.395 . S
C416 C419 1.403 1_565 S
H417 C423 0.930 1_655 S
C418 H404 0.930 . S
C418 C416 1.395 . S
C418 C421 1.403 . S
C419 C416 1.403 1_545 S
C419 C420 1.524 1_455 S
C419 C423 1.400 . S
C420 H405 0.960 . S
C420 H406 0.960 . S
C420 H407 0.960 1_655 S
C420 C419 1.524 1_655 S
C421 C418 1.403 . S
C421 C422 1.392 . S
C421 C425 1.495 . S
C422 C421 1.392 . S
C422 C423 1.385 1_565 S
C422 C424 1.478 . S
C423 H417 0.930 1_455 S
C423 C419 1.400 . S
C423 C422 1.385 1_545 S
C424 C422 1.478 . S
C424 C426 1.381 1_455 S
C424 C430 1.383 1_565 S
C425 C421 1.495 . S
C425 H431 0.959 . S
C425 H432 0.961 . S
C425 H433 0.960 . S
C426 C424 1.381 1_655 S
C426 C427 1.394 . S
C426 H434 0.930 . S
C427 C426 1.394 . S
C427 C428 1.383 1_655 S
C427 H435 0.929 . S
C428 C427 1.383 1_455 S
C428 C429 1.377 1_565 S
C429 H413 0.930 . S
C429 C428 1.377 1_545 S
C429 C430 1.379 . S
C430 H414 0.931 . S
C430 C424 1.383 1_545 S
C430 C429 1.379 . S
H431 C425 0.959 . S
H432 C425 0.961 . S
H433 C425 0.960 . S
H434 C426 0.930 . S
H435 C427 0.929 . S
H436 C444 0.926 1_565 S
H437 C446 0.930 . S
H438 C448 0.930 . S
H439 C451 0.929 . S
H440 C454 0.930 . S
H441 C456 0.960 . S
H442 C456 0.960 . S
H443 C456 0.960 1_545 S
C444 H436 0.926 1_545 S
C444 C445 1.377 1_655 S
C444 C446 1.384 . S
C445 C444 1.377 1_455 S
C445 C451 1.390 . S
C446 H437 0.930 . S
C446 C444 1.384 . S
C446 C447 1.372 1_655 S
C447 C446 1.372 1_455 S
C447 C448 1.400 . S
C447 C452 1.490 . S
C448 H438 0.930 . S
C448 C447 1.400 . S
C448 C451 1.386 . S
H449 C465 0.930 . S
H450 C466 0.931 . S
C451 H439 0.929 . S
C451 C445 1.390 . S
C451 C448 1.386 . S
C452 C447 1.490 . S
C452 C454 1.395 1_455 S
C452 C455 1.403 . S
H453 C459 0.930 . S
C454 H440 0.930 . S
C454 C452 1.395 1_655 S
C454 C457 1.403 . S
C455 C452 1.403 . S
C455 C456 1.524 1_545 S
C455 C459 1.400 . S
C456 H441 0.960 . S
C456 H442 0.960 . S
C456 H443 0.960 1_565 S
C456 C455 1.524 1_565 S
C457 C454 1.403 . S
C457 C458 1.392 1_655 S
C457 C461 1.495 . S
C458 C457 1.392 1_455 S
C458 C459 1.385 . S
C458 C460 1.478 . S
C459 H453 0.930 . S
C459 C455 1.400 . S
C459 C458 1.385 . S
C460 C458 1.478 . S
C460 C462 1.381 1_455 S
C460 C466 1.383 . S
C461 C457 1.495 . S
C461 H467 0.959 . S
C461 H468 0.961 . S
C461 H469 0.960 . S
C462 C460 1.381 1_655 S
C462 C463 1.394 . S
C462 H470 0.930 . S
C463 C462 1.394 . S
C463 C464 1.383 1_655 S
C463 H471 0.929 . S
C464 C463 1.383 1_455 S
C464 C465 1.377 . S
C465 H449 0.930 . S
C465 C464 1.377 . S
C465 C466 1.379 . S
C466 H450 0.931 . S
C466 C460 1.383 . S
C466 C465 1.379 . S
H467 C461 0.959 . S
H468 C461 0.961 . S
H469 C461 0.960 . S
H470 C462 0.930 . S
H471 C463 0.929 . S
H472 C480 0.929 . S
H473 C482 0.930 . S
H474 C484 0.930 . S
H475 C487 0.929 . S
H476 C490 0.930 . S
H477 C492 0.960 . S
H478 C492 0.960 . S
H479 C492 0.960 . S
C480 H472 0.929 . S
C480 C481 1.377 . S
C480 C482 1.384 . S
C481 C480 1.377 . S
C481 C487 1.390 . S
C482 H473 0.930 . S
C482 C480 1.384 . S
C482 C483 1.372 . S
C483 C482 1.372 . S
C483 C484 1.400 . S
C483 C488 1.490 . S
C484 H474 0.930 . S
C484 C483 1.400 . S
C484 C487 1.386 . S
H485 C501 0.930 . S
H486 C502 0.931 . S
C487 H475 0.929 . S
C487 C481 1.390 . S
C487 C484 1.386 . S
C488 C483 1.490 . S
C488 C490 1.395 . S
C488 C491 1.403 . S
H489 C495 0.930 . S
C490 H476 0.930 . S
C490 C488 1.395 . S
C490 C493 1.403 . S
C491 C488 1.403 . S
C491 C492 1.524 . S
C491 C495 1.400 . S
C492 H477 0.960 . S
C492 H478 0.960 . S
C492 H479 0.960 . S
C492 C491 1.524 . S
C493 C490 1.403 . S
C493 C494 1.392 . S
C493 C497 1.495 . S
C494 C493 1.392 . S
C494 C495 1.385 . S
C494 C496 1.478 . S
C495 H489 0.930 . S
C495 C491 1.400 . S
C495 C494 1.385 . S
C496 C494 1.478 . S
C496 C498 1.381 . S
C496 C502 1.383 . S
C497 C493 1.495 . S
C497 H503 0.959 . S
C497 H504 0.961 . S
C497 H505 0.960 . S
C498 C496 1.381 . S
C498 C499 1.394 . S
C498 H506 0.930 . S
C499 C498 1.394 . S
C499 C500 1.383 . S
C499 H507 0.929 . S
C500 C499 1.383 . S
C500 C501 1.377 . S
C501 H485 0.930 . S
C501 C500 1.377 . S
C501 C502 1.379 . S
C502 H486 0.931 . S
C502 C496 1.383 . S
C502 C501 1.379 . S
H503 C497 0.959 . S
H504 C497 0.961 . S
H505 C497 0.960 . S
H506 C498 0.930 . S
H507 C499 0.929 . S
H508 C516 0.929 . S
H509 C518 0.930 . S
H510 C520 0.930 . S
H511 C523 0.929 . S
H512 C526 0.930 . S
H513 C528 0.960 . S
H514 C528 0.960 . S
H515 C528 0.960 . S
C516 H508 0.929 . S
C516 C517 1.377 . S
C516 C518 1.384 . S
C517 C516 1.377 . S
C517 C523 1.390 . S
C518 H509 0.930 . S
C518 C516 1.384 . S
C518 C519 1.372 . S
C519 C518 1.372 . S
C519 C520 1.400 . S
C519 C524 1.490 . S
C520 H510 0.930 . S
C520 C519 1.400 . S
C520 C523 1.386 . S
H521 C537 0.930 . S
H522 C538 0.931 . S
C523 H511 0.929 . S
C523 C517 1.390 . S
C523 C520 1.386 . S
C524 C519 1.490 . S
C524 C526 1.395 . S
C524 C527 1.403 . S
H525 C531 0.930 . S
C526 H512 0.930 . S
C526 C524 1.395 . S
C526 C529 1.403 . S
C527 C524 1.403 . S
C527 C528 1.524 . S
C527 C531 1.400 . S
C528 H513 0.960 . S
C528 H514 0.960 . S
C528 H515 0.960 . S
C528 C527 1.524 . S
C529 C526 1.403 . S
C529 C530 1.392 . S
C529 C533 1.495 . S
C530 C529 1.392 . S
C530 C531 1.385 . S
C530 C532 1.478 . S
C531 H525 0.930 . S
C531 C527 1.400 . S
C531 C530 1.385 . S
C532 C530 1.478 . S
C532 C534 1.381 . S
C532 C538 1.383 . S
C533 C529 1.495 . S
C533 H539 0.959 . S
C533 H540 0.961 . S
C533 H541 0.960 . S
C534 C532 1.381 . S
C534 C535 1.394 . S
C534 H542 0.930 . S
C535 C534 1.394 . S
C535 C536 1.383 . S
C535 H543 0.929 . S
C536 C535 1.383 . S
C536 C537 1.377 . S
C537 H521 0.930 . S
C537 C536 1.377 . S
C537 C538 1.379 . S
C538 H522 0.931 . S
C538 C532 1.383 . S
C538 C537 1.379 . S
H539 C533 0.959 . S
H540 C533 0.961 . S
H541 C533 0.960 . S
H542 C534 0.930 . S
H543 C535 0.929 . S
C140 N101 1.304 . S
C121 C27 1.339 . S
C157 N6 1.270 . S
C176 N88 1.319 . S
C193 C16 1.469 . S
C212 N100 1.457 . S
C229 N14 1.417 1_556 S
C248 N87 1.444 . S
C265 C57 1.337 . S
C284 N75 1.318 . S
C301 N36 1.274 . S
C320 N62 1.304 . S
C356 N74 1.459 . S
C337 C46 1.468 . S
C392 N61 1.437 . S
C373 N44 1.415 . S
C409 C10 1.472 . S
C428 N65 1.466 1_565 S
C445 C1 1.553 . S
C464 N78 1.536 . S
C500 N91 1.446 . S
C481 C40 1.472 . S
C517 C31 1.553 . S
C536 N104 1.547 . S
