# Generated by pormake.
# Topology anh, (6,3)-cn, num edge types: 1
# Building blocks:
#     Node 0, Type 0, BuildingBlock: CUKXOW_clean_sbu_0, # of connection points: 6
#     Node 1, Type 0, BuildingBlock: CUKXOW_clean_sbu_0, # of connection points: 6
#     Node 2, Type 0, BuildingBlock: CUKXOW_clean_sbu_0, # of connection points: 6
#     Node 3, Type 1, BuildingBlock: QEWDON_clean_linker_0, # of connection points: 3
#     Node 4, Type 1, BuildingBlock: QEWDON_clean_linker_0, # of connection points: 3
#     Node 5, Type 1, BuildingBlock: QEWDON_clean_linker_0, # of connection points: 3
#     Node 6, Type 1, BuildingBlock: QEWDON_clean_linker_0, # of connection points: 3
#     Node 7, Type 1, BuildingBlock: QEWDON_clean_linker_0, # of connection points: 3
#     Node 8, Type 1, BuildingBlock: QEWDON_clean_linker_0, # of connection points: 3
#     Edge 9, Type (0, 1), BuildingBlock: XUDNAN_clean_linker_2, # of connection points: 2
#     Edge 10, Type (0, 1), BuildingBlock: XUDNAN_clean_linker_2, # of connection points: 2
#     Edge 11, Type (0, 1), BuildingBlock: XUDNAN_clean_linker_2, # of connection points: 2
#     Edge 12, Type (0, 1), BuildingBlock: XUDNAN_clean_linker_2, # of connection points: 2
#     Edge 13, Type (0, 1), BuildingBlock: XUDNAN_clean_linker_2, # of connection points: 2
#     Edge 14, Type (0, 1), BuildingBlock: XUDNAN_clean_linker_2, # of connection points: 2
#     Edge 15, Type (0, 1), BuildingBlock: XUDNAN_clean_linker_2, # of connection points: 2
#     Edge 16, Type (0, 1), BuildingBlock: XUDNAN_clean_linker_2, # of connection points: 2
#     Edge 17, Type (0, 1), BuildingBlock: XUDNAN_clean_linker_2, # of connection points: 2
#     Edge 18, Type (0, 1), BuildingBlock: XUDNAN_clean_linker_2, # of connection points: 2
#     Edge 19, Type (0, 1), BuildingBlock: XUDNAN_clean_linker_2, # of connection points: 2
#     Edge 20, Type (0, 1), BuildingBlock: XUDNAN_clean_linker_2, # of connection points: 2
#     Edge 21, Type (0, 1), BuildingBlock: XUDNAN_clean_linker_2, # of connection points: 2
#     Edge 22, Type (0, 1), BuildingBlock: XUDNAN_clean_linker_2, # of connection points: 2
#     Edge 23, Type (0, 1), BuildingBlock: XUDNAN_clean_linker_2, # of connection points: 2
#     Edge 24, Type (0, 1), BuildingBlock: XUDNAN_clean_linker_2, # of connection points: 2
#     Edge 25, Type (0, 1), BuildingBlock: XUDNAN_clean_linker_2, # of connection points: 2
#     Edge 26, Type (0, 1), BuildingBlock: XUDNAN_clean_linker_2, # of connection points: 2
# Relax obj value: 0.062
# Max RMSD: 0.137
# Mean RMSD: 0.109
data_MOF--net-anh--node1-CUKXOW_clean_sbu_0--node2-QEWDON_clean_linker_0--edge1-XUDNAN_clean_linker_2
_symmetry_space_group_name_H-M    P1
_symmetry_Int_Tables_number       1
_symmetry_cell_setting            triclinic
loop_
_symmetry_equiv_pos_as_xyz
'x, y, z'
_cell_length_a     30.961082
_cell_length_b     29.840513
_cell_length_c     47.543711
_cell_angle_alpha  100.2074
_cell_angle_beta   94.344675
_cell_angle_gamma 114.3117
loop_
_atom_site_label
_atom_site_type_symbol
_atom_site_fract_x
_atom_site_fract_y
_atom_site_fract_z
_atom_type_partial_charge
Tb0 Tb 0.07278 0.57827 0.15545 0.0
C1 C 0.04358 0.52747 0.2078 0.0
Tb2 Tb 1.01198 0.45809 0.14476 0.0
O3 O 1.00938 0.5955 0.14876 0.0
O4 O 1.00042 0.52384 0.1472 0.0
O5 O 0.07739 0.56434 0.19892 0.0
C6 C 0.93527 0.36962 0.138 0.0
O7 O 1.01014 0.48627 0.18984 0.0
C8 C 0.10776 0.48639 0.15236 0.0
C9 C 0.05194 0.50649 0.0926 0.0
O10 O 0.93784 0.40523 0.12495 0.0
O11 O 0.97634 0.38333 0.15421 0.0
O12 O 0.07487 0.43975 0.14655 0.0
O13 O 0.08434 0.51287 0.15431 0.0
O14 O 1.02146 0.46585 0.10059 0.0
O15 O 0.07601 0.55198 0.11031 0.0
C16 C 0.145 0.67104 0.16641 0.0
O17 O 0.13753 0.63461 0.14438 0.0
O18 O 0.11168 0.65527 0.18215 0.0
C19 C 0.97667 0.54943 0.14555 0.0
Tb20 Tb 0.55063 0.04647 0.49304 0.0
C21 C 0.60821 0.07511 0.44376 0.0
Tb22 Tb 0.65244 0.12207 0.51091 0.0
O23 O 0.53242 0.09679 0.47209 0.0
O24 O 0.58563 0.12705 0.50882 0.0
O25 O 0.57131 0.03854 0.45057 0.0
C26 C 0.73666 0.20253 0.51702 0.0
O27 O 0.641 0.1136 0.46378 0.0
C28 C 0.63738 0.02973 0.51406 0.0
C29 C 0.59532 0.08951 0.55997 0.0
O30 O 0.72981 0.15585 0.50973 0.0
O31 O 0.69631 0.20386 0.52131 0.0
O32 O 0.67064 0.07031 0.53119 0.0
O33 O 0.61714 0.04212 0.49477 0.0
O34 O 0.63162 0.12745 0.55367 0.0
O35 O 0.56369 0.05117 0.53947 0.0
C36 C 0.46299 0.97268 0.48876 0.0
O37 O 0.4769 0.01979 0.50094 0.0
O38 O 0.49843 0.96666 0.47848 0.0
C39 C 0.56487 0.1381 0.48893 0.0
Tb40 Tb 0.54671 0.59647 0.8263 0.0
C41 C 0.58042 0.60184 0.89057 0.0
Tb42 Tb 0.6473 0.61074 0.84276 0.0
O43 O 0.51703 0.52122 0.83549 0.0
O44 O 0.58269 0.54902 0.82071 0.0
O45 O 0.55037 0.61034 0.87322 0.0
C46 C 0.72178 0.59358 0.85906 0.0
O47 O 0.61732 0.59504 0.88184 0.0
C48 C 0.64069 0.69453 0.83881 0.0
C49 C 0.61303 0.6005 0.77755 0.0
O50 O 0.71238 0.62918 0.87294 0.0
O51 O 0.69004 0.56859 0.83596 0.0
O52 O 0.67804 0.68635 0.83449 0.0
O53 O 0.61154 0.65874 0.84842 0.0
O54 O 0.64647 0.60052 0.79659 0.0
O55 O 0.57226 0.60041 0.78453 0.0
C56 C 0.47091 0.61079 0.80796 0.0
O57 O 0.51478 0.64532 0.81512 0.0
O58 O 0.46946 0.56808 0.81138 0.0
C59 C 0.55416 0.51319 0.8304 0.0
H60 H 0.58333 0.07938 0.21772 0.0
C61 C 0.54754 0.04883 0.21265 0.0
C62 C 0.52755 0.02559 0.23489 0.0
C63 C 0.52111 0.03375 0.18433 0.0
H64 H 0.46297 0.97162 0.24583 0.0
C65 C 0.48001 0.98797 0.2287 0.0
C66 C 0.45321 0.97178 0.20082 0.0
C67 C 0.47433 0.99345 0.17854 0.0
C68 C 0.54067 0.06209 0.16147 0.0
H69 H 0.45334 0.97984 0.15699 0.0
C70 C 0.59075 0.088 0.16154 0.0
C71 C 0.60848 0.11696 0.1409 0.0
C72 C 0.50893 0.06555 0.13998 0.0
H73 H 0.47049 0.04846 0.13954 0.0
C74 C 0.52616 0.09239 0.11895 0.0
H75 H 0.61607 0.08643 0.17784 0.0
C76 C 0.57535 0.11775 0.11929 0.0
H77 H 0.58738 0.13811 0.10254 0.0
H78 H 0.50115 0.09415 0.10247 0.0
H79 H 0.58477 0.61195 0.56152 0.0
C80 C 0.58546 0.57702 0.55091 0.0
C81 C 0.59938 0.54979 0.5678 0.0
C82 C 0.57119 0.5587 0.52075 0.0
H83 H 0.60586 0.48164 0.56877 0.0
C84 C 0.59792 0.50318 0.55481 0.0
C85 C 0.58395 0.48327 0.52475 0.0
C86 C 0.57134 0.51207 0.5078 0.0
C87 C 0.55223 0.58622 0.50348 0.0
H88 H 0.56146 0.4983 0.48454 0.0
C89 C 0.57159 0.63976 0.51009 0.0
C90 C 0.54982 0.6653 0.49599 0.0
C91 C 0.51179 0.55861 0.48166 0.0
H92 H 0.49528 0.51771 0.47628 0.0
C93 C 0.49058 0.58324 0.46735 0.0
H94 H 0.60367 0.66129 0.52618 0.0
C95 C 0.50882 0.63577 0.47462 0.0
H96 H 0.48968 0.65283 0.46381 0.0
H97 H 0.45888 0.56131 0.45097 0.0
H98 H 0.14246 0.57807 0.8864 0.0
C99 C 0.10368 0.56351 0.8827 0.0
C100 C 0.07705 0.53233 0.90013 0.0
C101 C 0.08006 0.57753 0.86162 0.0
H102 H 1.00751 0.49586 0.91225 0.0
C103 C 0.02746 0.51695 0.8974 0.0
C104 C 1.00414 0.53289 0.87798 0.0
C105 C 0.02989 0.56059 0.85907 0.0
C106 C 0.10713 0.61221 0.84341 0.0
H107 H 1.01096 0.57146 0.84352 0.0
C108 C 0.14881 0.61121 0.83399 0.0
C109 C 0.173 0.64239 0.81569 0.0
C110 C 0.09087 0.64635 0.83496 0.0
H111 H 0.06043 0.65039 0.84275 0.0
C112 C 0.11378 0.67624 0.81633 0.0
H113 H 0.1625 0.58634 0.84106 0.0
C114 C 0.15413 0.67391 0.80645 0.0
H115 H 0.17062 0.69716 0.79166 0.0
H116 H 0.10026 0.70152 0.80959 0.0
H117 H 0.03154 0.55597 0.4348 0.0
C118 C 0.06577 0.58889 0.4415 0.0
C119 C 0.09374 0.60828 0.42058 0.0
C120 C 0.08084 0.61317 0.47108 0.0
H121 H 0.15843 0.66948 0.41443 0.0
C122 C 0.13764 0.65183 0.43002 0.0
C123 C 0.15372 0.6753 0.45948 0.0
C124 C 0.12552 0.65539 0.47983 0.0
C125 C 0.0487 0.59766 0.49277 0.0
H126 H 0.13807 0.67361 0.50264 0.0
C127 C 1.02103 0.54638 0.49235 0.0
C128 C 0.99011 0.53262 0.51276 0.0
C129 C 0.04497 0.6349 0.51389 0.0
H130 H 0.06488 0.67467 0.51444 0.0
C131 C 1.01488 0.62138 0.53431 0.0
H132 H 1.02323 0.5173 0.47609 0.0
C133 C 0.98762 0.57064 0.53381 0.0
H134 H 0.96464 0.56112 0.55 0.0
H135 H 1.01246 0.65038 0.55048 0.0
H136 H 0.58729 0.06507 0.77953 0.0
C137 C 0.5904 0.10232 0.78873 0.0
C138 C 0.5926 0.13482 0.77014 0.0
C139 C 0.59048 0.1168 0.81861 0.0
H140 H 0.59305 0.20603 0.76692 0.0
C141 C 0.59437 0.18242 0.78154 0.0
C142 C 0.5941 0.19822 0.81112 0.0
C143 C 0.59348 0.1657 0.82955 0.0
C144 C 0.58403 0.07991 0.83788 0.0
H145 H 0.59499 0.17876 0.85249 0.0
C146 C 0.59817 0.03981 0.83179 0.0
C147 C 0.58998 1.00453 0.84968 0.0
C148 C 0.56136 0.08341 0.86224 0.0
H149 H 0.54779 0.11146 0.86732 0.0
C150 C 0.55463 0.05003 0.88036 0.0
H151 H 0.61517 0.03573 0.8131 0.0
C152 C 0.56899 0.01135 0.87435 0.0
H153 H 0.56376 0.98697 0.88938 0.0
H154 H 0.53775 0.05397 0.89918 0.0
H155 H 0.52189 0.53341 0.0977 0.0
C156 C 0.55462 0.53122 0.10498 0.0
C157 C 0.58897 0.53781 0.08635 0.0
C158 C 0.56085 0.52015 0.1321 0.0
H159 H 0.65807 0.53903 0.08109 0.0
C160 C 0.63229 0.53565 0.09569 0.0
C161 C 0.64192 0.5264 0.12298 0.0
C162 C 0.6056 0.51834 0.14098 0.0
C163 C 0.51876 0.50645 0.1493 0.0
H164 H 0.61291 0.51132 0.16194 0.0
C165 C 0.47874 0.51919 0.14471 0.0
C166 C 0.43759 0.50014 0.15878 0.0
C167 C 0.51634 0.4761 0.16923 0.0
H168 H 0.54394 0.46366 0.17326 0.0
C169 C 0.4773 0.45919 0.18379 0.0
H170 H 0.47868 0.54299 0.13005 0.0
C171 C 0.43856 0.47066 0.17859 0.0
H172 H 0.40909 0.4564 0.19043 0.0
H173 H 0.47667 0.43598 0.19901 0.0
H174 H 0.15392 0.42499 0.15036 0.0
H175 H 0.18351 0.58148 0.15591 0.0
H176 H 0.27003 0.60262 0.15537 0.0
H177 H 0.26159 0.44919 0.19748 0.0
H178 H 0.26814 0.39593 0.1772 0.0
H179 H 0.20936 0.39431 0.1772 0.0
H180 H 0.19537 0.37565 0.12114 0.0
H181 H 0.25427 0.37755 0.12098 0.0
H182 H 0.23778 0.41798 0.10305 0.0
H183 H 0.35717 0.60492 0.15378 0.0
H184 H 0.43035 0.58949 0.15529 0.0
H185 H 0.34189 0.43154 0.15172 0.0
C186 C 0.17845 0.46385 0.15143 0.0
C187 C 0.16113 0.50148 0.15298 0.0
C188 C 0.19517 0.55177 0.15456 0.0
C189 C 0.24468 0.56405 0.15422 0.0
C190 C 0.26037 0.52578 0.15249 0.0
C191 C 0.22785 0.47667 0.15136 0.0
C192 C 0.25312 0.44223 0.15046 0.0
C193 C 0.24773 0.41906 0.17717 0.0
C194 C 0.23399 0.40091 0.12223 0.0
C195 C 0.30507 0.47917 0.15127 0.0
C196 C 0.30891 0.52726 0.15221 0.0
C197 C 0.35398 0.56722 0.15309 0.0
C198 C 0.39565 0.55806 0.1537 0.0
C199 C 0.39279 0.5093 0.15372 0.0
C200 C 0.34618 0.46951 0.15198 0.0
H201 H 0.74903 0.29925 0.52221 0.0
H202 H 0.82488 0.20512 0.51126 0.0
H203 H 0.89907 0.27949 0.50882 0.0
H204 H 0.80546 0.37478 0.47256 0.0
H205 H 0.80547 0.43113 0.49388 0.0
H206 H 0.76002 0.36994 0.49484 0.0
H207 H 0.78429 0.39277 0.55119 0.0
H208 H 0.83023 0.4533 0.54961 0.0
H209 H 0.84581 0.41136 0.56661 0.0
H210 H 0.96441 0.36478 0.50643 0.0
H211 H 1.01576 0.45388 0.50594 0.0
H212 H 0.89526 0.49008 0.51773 0.0
C213 C 0.78141 0.29447 0.51967 0.0
C214 C 0.7816 0.24683 0.5172 0.0
C215 C 0.82431 0.2416 0.51336 0.0
C216 C 0.86646 0.28352 0.5119 0.0
C217 C 0.86496 0.33008 0.51415 0.0
C218 C 0.82347 0.33567 0.51796 0.0
C219 C 0.8307 0.38925 0.5191 0.0
C220 C 0.79851 0.39141 0.49359 0.0
C221 C 0.82227 0.41307 0.54837 0.0
C222 C 0.88298 0.41328 0.51586 0.0
C223 C 0.90216 0.37862 0.51277 0.0
C224 C 0.94977 0.39225 0.5089 0.0
C225 C 0.97854 0.44276 0.50846 0.0
C226 C 0.95953 0.47885 0.51199 0.0
C227 C 0.91103 0.46354 0.51548 0.0
H228 H 0.57509 0.73047 0.85764 0.0
H229 H 0.70051 0.76782 0.81518 0.0
H230 H 0.7001 0.84917 0.81197 0.0
H231 H 0.51569 0.78793 0.81633 0.0
H232 H 0.49398 0.81122 0.84707 0.0
H233 H 0.50318 0.7551 0.84539 0.0
H234 H 0.55908 0.79575 0.89506 0.0
H235 H 0.55028 0.85214 0.89676 0.0
H236 H 0.6102 0.85611 0.90001 0.0
H237 H 0.6884 0.92874 0.81497 0.0
H238 H 0.66553 0.99936 0.82358 0.0
H239 H 0.54482 0.90933 0.8615 0.0
C240 C 0.60207 0.75556 0.84739 0.0
C241 C 0.63779 0.74251 0.83657 0.0
C242 C 0.67283 0.77683 0.82367 0.0
C243 C 0.67288 0.82324 0.82168 0.0
C244 C 0.63754 0.83522 0.83264 0.0
C245 C 0.60261 0.80236 0.84516 0.0
C246 C 0.56947 0.82531 0.85582 0.0
C247 C 0.51749 0.79292 0.84019 0.0
C248 C 0.57246 0.83277 0.88888 0.0
C249 C 0.59108 0.87578 0.84717 0.0
C250 C 0.63046 0.88087 0.83399 0.0
C251 C 0.65722 0.92489 0.82501 0.0
C252 C 0.6436 0.96486 0.82978 0.0
C253 C 0.60318 0.96079 0.84326 0.0
C254 C 0.57644 0.91489 0.85163 0.0
H255 H 0.9263 0.59959 0.12713 0.0
H256 H 0.90471 0.46545 0.15842 0.0
H257 H 0.81841 0.44598 0.15786 0.0
H258 H 0.84691 0.63501 0.16652 0.0
H259 H 0.82485 0.65571 0.13757 0.0
H260 H 0.88425 0.65839 0.14022 0.0
H261 H 0.86322 0.60424 0.08787 0.0
H262 H 0.80391 0.60182 0.08495 0.0
H263 H 0.81105 0.54409 0.07818 0.0
H264 H 0.73194 0.44422 0.15583 0.0
H265 H 0.65708 0.45531 0.14786 0.0
H266 H 0.73474 0.58854 0.11569 0.0
C267 C 0.90336 0.56571 0.13358 0.0
C268 C 0.9229 0.53385 0.14259 0.0
C269 C 0.8911 0.49012 0.15094 0.0
C270 C 0.84179 0.479 0.15089 0.0
C271 C 0.82388 0.51151 0.14211 0.0
C272 C 0.85388 0.55364 0.13317 0.0
C273 C 0.82605 0.5822 0.1241 0.0
C274 C 0.84676 0.63602 0.14324 0.0
C275 C 0.82606 0.58313 0.09186 0.0
C276 C 0.77571 0.55014 0.1295 0.0
C277 C 0.77508 0.50972 0.14019 0.0
C278 C 0.7325 0.47573 0.1473 0.0
C279 C 0.68988 0.48257 0.14292 0.0
C280 C 0.68905 0.52278 0.13108 0.0
C281 C 0.73329 0.55708 0.1246 0.0
H282 H 0.424 0.87275 0.45983 0.0
H283 H 0.39395 0.9834 0.51681 0.0
H284 H 0.31301 0.91816 0.517 0.0
H285 H 0.30657 0.80824 0.41653 0.0
H286 H 0.30489 0.74626 0.41212 0.0
H287 H 0.36164 0.801 0.41741 0.0
H288 H 0.39248 0.77604 0.46157 0.0
H289 H 0.33579 0.72119 0.45644 0.0
H290 H 0.35851 0.76617 0.4909 0.0
H291 H 0.23587 0.84287 0.51077 0.0
H292 H 0.1641 0.76109 0.49658 0.0
H293 H 0.24211 0.69825 0.44281 0.0
C294 C 0.4003 0.88297 0.47238 0.0
C295 C 0.41497 0.93289 0.48834 0.0
C296 C 0.3832 0.94526 0.50442 0.0
C297 C 0.33727 0.90851 0.50475 0.0
C298 C 0.32368 0.85966 0.48878 0.0
C299 C 0.35397 0.8467 0.47275 0.0
C300 C 0.32942 0.79166 0.45671 0.0
C301 C 0.32539 0.78651 0.42374 0.0
C302 C 0.35561 0.76202 0.46703 0.0
C303 C 0.28058 0.77606 0.4661 0.0
C304 C 0.27837 0.81586 0.48481 0.0
C305 C 0.23709 0.81123 0.49626 0.0
C306 C 0.19665 0.76462 0.48821 0.0
C307 C 0.19777 0.72339 0.4688 0.0
C308 C 0.24036 0.72924 0.45767 0.0
H309 H 0.61383 0.47423 0.80613 0.0
H310 H 0.50567 0.44727 0.862 0.0
H311 H 0.5098 0.36799 0.86665 0.0
H312 H 0.57012 0.34722 0.76732 0.0
H313 H 0.62836 0.34875 0.76423 0.0
H314 H 0.62063 0.40592 0.76748 0.0
H315 H 0.68833 0.4489 0.81207 0.0
H316 H 0.69613 0.3917 0.80922 0.0
H317 H 0.68424 0.42012 0.84264 0.0
H318 H 0.52184 0.28919 0.86318 0.0
H319 H 0.5378 0.21447 0.84983 0.0
H320 H 0.638 0.29052 0.79578 0.0
C321 C 0.59168 0.45199 0.81971 0.0
C322 C 0.55957 0.4671 0.83386 0.0
C323 C 0.53049 0.43648 0.85098 0.0
C324 C 0.53273 0.39144 0.85386 0.0
C325 C 0.56422 0.37716 0.83942 0.0
C326 C 0.59315 0.4064 0.82262 0.0
C327 C 0.62157 0.38056 0.80797 0.0
C328 C 0.60942 0.36999 0.77479 0.0
C329 C 0.67578 0.41222 0.81862 0.0
C330 C 0.60314 0.3318 0.81858 0.0
C331 C 0.57067 0.33108 0.83707 0.0
C332 C 0.54762 0.28956 0.84896 0.0
C333 C 0.55723 0.24728 0.84139 0.0
C334 C 0.58943 0.24626 0.82186 0.0
C335 C 0.61314 0.28974 0.81072 0.0
H336 H 0.58703 0.93986 0.47302 0.0
H337 H 0.66418 1.00182 0.56121 0.0
H338 H 0.64961 0.91612 0.56649 0.0
H339 H 0.49691 0.82254 0.48543 0.0
H340 H 0.4964 0.78486 0.45119 0.0
H341 H 0.51068 0.85077 0.45479 0.0
H342 H 0.59125 0.86556 0.43664 0.0
H343 H 0.57727 0.79974 0.43303 0.0
H344 H 0.63264 0.84756 0.45495 0.0
H345 H 0.62596 0.82328 0.56244 0.0
H346 H 0.59778 0.73121 0.54901 0.0
H347 H 0.54285 0.72985 0.46169 0.0
C348 C 0.6005 0.9352 0.49347 0.0
C349 C 0.6267 0.97752 0.51675 0.0
C350 C 0.64415 0.96999 0.54308 0.0
C351 C 0.63595 0.9214 0.54631 0.0
C352 C 0.61053 0.88049 0.52291 0.0
C353 C 0.59323 0.88682 0.49693 0.0
C354 C 0.56851 0.83658 0.4749 0.0
C355 C 0.51496 0.82288 0.46606 0.0
C356 C 0.59395 0.83743 0.44831 0.0
C357 C 0.57507 0.80124 0.49247 0.0
C358 C 0.5988 0.82725 0.52021 0.0
C359 C 0.60782 0.80258 0.54063 0.0
C360 C 0.59205 0.74995 0.53259 0.0
C361 C 0.56812 0.72203 0.50408 0.0
C362 C 0.56014 0.74886 0.48383 0.0
H363 H 0.7616 0.54373 0.82498 0.0
H364 H 0.76963 0.61651 0.91391 0.0
H365 H 0.83542 0.59486 0.92938 0.0
H366 H 0.79297 0.44283 0.83927 0.0
H367 H 0.83034 0.44797 0.81159 0.0
H368 H 0.77949 0.46234 0.80722 0.0
H369 H 0.83312 0.55123 0.80058 0.0
H370 H 0.88424 0.53726 0.80368 0.0
H371 H 0.88554 0.59232 0.82733 0.0
H372 H 0.90309 0.57143 0.93445 0.0
H373 H 0.97572 0.55865 0.92848 0.0
H374 H 0.92647 0.50458 0.83567 0.0
C375 C 0.77679 0.55427 0.84776 0.0
C376 C 0.76077 0.58129 0.86842 0.0
C377 C 0.78181 0.59573 0.89791 0.0
C378 C 0.81865 0.58312 0.90687 0.0
C379 C 0.83392 0.55654 0.88592 0.0
C380 C 0.81414 0.54291 0.85692 0.0
C381 C 0.84119 0.52063 0.83832 0.0
C382 C 0.80906 0.46512 0.82323 0.0
C383 C 0.86228 0.55227 0.81619 0.0
C384 C 0.88014 0.52513 0.86132 0.0
C385 C 0.87444 0.54464 0.88869 0.0
C386 C 0.90758 0.55539 0.91323 0.0
C387 C 0.94855 0.54768 0.90961 0.0
C388 C 0.95625 0.53006 0.88161 0.0
C389 C 0.92102 0.51747 0.85729 0.0
H390 H 0.22602 0.70353 0.14108 0.0
H391 H 0.15585 0.75266 0.20735 0.0
H392 H 0.22463 0.83713 0.2203 0.0
H393 H 0.34361 0.76672 0.18209 0.0
H394 H 0.37352 0.78336 0.15184 0.0
H395 H 0.3171 0.72808 0.14603 0.0
H396 H 0.28109 0.76226 0.10869 0.0
H397 H 0.33742 0.81778 0.11447 0.0
H398 H 0.28285 0.82415 0.11922 0.0
H399 H 0.30174 0.91405 0.2279 0.0
H400 H 0.38464 0.9786 0.23117 0.0
H401 H 0.40688 0.88076 0.16053 0.0
C402 C 0.22497 0.7324 0.15802 0.0
C403 C 0.18555 0.72188 0.17312 0.0
C404 C 0.18566 0.76012 0.19549 0.0
C405 C 0.22447 0.80821 0.20291 0.0
C406 C 0.26295 0.81739 0.1878 0.0
C407 C 0.2637 0.78063 0.16587 0.0
C408 C 0.3109 0.79968 0.15433 0.0
C409 C 0.33787 0.76755 0.15885 0.0
C410 C 0.30255 0.80105 0.12227 0.0
C411 C 0.33677 0.85263 0.17349 0.0
C412 C 0.30811 0.86203 0.19243 0.0
C413 C 0.32441 0.90729 0.21307 0.0
C414 C 0.37152 0.94364 0.21481 0.0
C415 C 0.402 0.93461 0.1961 0.0
C416 C 0.38406 0.88883 0.17481 0.0
H417 H 0.62005 0.23145 0.52718 0.0
H418 H 0.51231 0.15857 0.44941 0.0
H419 H 0.50847 0.23901 0.44849 0.0
H420 H 0.57062 0.31249 0.56024 0.0
H421 H 0.62767 0.3661 0.57461 0.0
H422 H 0.62355 0.30308 0.56885 0.0
H423 H 0.68956 0.32688 0.5369 0.0
H424 H 0.69389 0.38994 0.54202 0.0
H425 H 0.68165 0.35161 0.5059 0.0
H426 H 0.51082 0.32558 0.45806 0.0
H427 H 0.52232 0.41281 0.47621 0.0
H428 H 0.63517 0.43347 0.54457 0.0
C429 C 0.59614 0.23266 0.50981 0.0
C430 C 0.56635 0.18846 0.48842 0.0
C431 C 0.53537 0.19171 0.46613 0.0
C432 C 0.5329 0.23735 0.46536 0.0
C433 C 0.56208 0.28004 0.48686 0.0
C434 C 0.59353 0.27839 0.50851 0.0
C435 C 0.62049 0.33001 0.52907 0.0
C436 C 0.60994 0.32777 0.56002 0.0
C437 C 0.67467 0.35086 0.52843 0.0
C438 C 0.59877 0.36039 0.51579 0.0
C439 C 0.56496 0.33076 0.49157 0.0
C440 C 0.53794 0.34951 0.47673 0.0
C441 C 0.5452 0.39966 0.48711 0.0
C442 C 0.57981 0.4313 0.51199 0.0
C443 C 0.60762 0.41101 0.5259 0.0
H444 H 0.37616 0.54635 0.80326 0.0
H445 H 0.47191 0.69653 0.7959 0.0
H446 H 0.4033 0.71838 0.79138 0.0
H447 H 0.27006 0.53384 0.75208 0.0
H448 H 0.22822 0.49968 0.77362 0.0
H449 H 0.28364 0.49372 0.77188 0.0
H450 H 0.30451 0.52049 0.82792 0.0
H451 H 0.24965 0.5272 0.82985 0.0
H452 H 0.30641 0.57968 0.84642 0.0
H453 H 0.32845 0.72822 0.79668 0.0
H454 H 0.25082 0.72412 0.8073 0.0
H455 H 0.20052 0.5644 0.8061 0.0
C456 C 0.38229 0.58327 0.79981 0.0
C457 C 0.42911 0.62023 0.80034 0.0
C458 C 0.43619 0.66825 0.79607 0.0
C459 C 0.39746 0.68075 0.79322 0.0
C460 C 0.35183 0.6442 0.794 0.0
C461 C 0.34383 0.59607 0.79658 0.0
C462 C 0.29191 0.56513 0.79897 0.0
C463 C 0.26699 0.52045 0.77256 0.0
C464 C 0.28793 0.5471 0.82748 0.0
C465 C 0.27267 0.60422 0.79885 0.0
C466 C 0.30772 0.64939 0.79573 0.0
C467 C 0.30012 0.69261 0.79814 0.0
C468 C 0.25559 0.68973 0.80406 0.0
C469 C 0.2188 0.64373 0.80724 0.0
C470 C 0.22755 0.60029 0.80399 0.0
H471 H 0.84245 0.35446 0.12333 0.0
H472 H 0.9285 0.28357 0.15362 0.0
H473 H 0.85435 0.20988 0.15678 0.0
H474 H 0.75757 0.3172 0.17092 0.0
H475 H 0.70671 0.30739 0.14533 0.0
H476 H 0.76596 0.35253 0.1431 0.0
H477 H 0.75721 0.30749 0.08987 0.0
H478 H 0.69758 0.26235 0.09161 0.0
H479 H 0.74172 0.24083 0.08094 0.0
H480 H 0.77004 0.14418 0.15712 0.0
H481 H 0.68328 0.09308 0.15565 0.0
H482 H 0.6536 0.21072 0.12876 0.0
C483 C 0.84556 0.32297 0.13012 0.0
C484 C 0.89102 0.32413 0.1378 0.0
C485 C 0.89387 0.28301 0.14738 0.0
C486 C 0.852 0.2411 0.14927 0.0
C487 C 0.80762 0.24129 0.14187 0.0
C488 C 0.80419 0.28132 0.13262 0.0
C489 C 0.75245 0.27356 0.12747 0.0
C490 C 0.74527 0.31513 0.14794 0.0
C491 C 0.7363 0.27088 0.09557 0.0
C492 C 0.72726 0.22279 0.13504 0.0
C493 C 0.75956 0.20461 0.14315 0.0
C494 C 0.74445 0.1582 0.15091 0.0
C495 C 0.69502 0.12956 0.15024 0.0
C496 C 0.66116 0.14752 0.14205 0.0
C497 C 0.67805 0.1951 0.13459 0.0
H498 H 0.09457 0.58161 0.06437 0.0
H499 H 0.03345 0.41876 0.05319 0.0
H500 H 0.05415 0.41058 0.00393 0.0
H501 H 0.04801 0.58043 -0.00409 0.0
H502 H 0.09917 0.63557 0.99215 0.0
H503 H 0.08607 0.62772 0.02755 0.0
H504 H 0.17248 0.63707 0.04206 0.0
H505 H 0.18501 0.64325 0.00615 0.0
H506 H 0.19258 0.595 0.0211 0.0
H507 H 0.07212 0.41919 0.95443 0.0
H508 H 0.07274 0.44239 0.9071 0.0
H509 H 0.12361 0.59935 0.95044 0.0
C510 C 0.08619 0.5442 0.05178 0.0
C511 C 0.06253 0.50082 0.06269 0.0
C512 C 0.05139 0.45255 0.04526 0.0
C513 C 0.06367 0.44761 0.01742 0.0
C514 C 0.08731 0.49127 0.0074 0.0
C515 C 0.09794 0.53861 0.02399 0.0
C516 C 0.11754 0.57898 0.007 0.0
C517 C 0.08579 0.60728 0.00555 0.0
C518 C 0.17003 0.61574 0.01985 0.0
C519 C 0.11405 0.54672 0.97773 0.0
C520 C 0.09795 0.49635 0.97864 0.0
C521 C 0.08593 0.45855 0.95355 0.0
C522 C 0.08698 0.47206 0.92675 0.0
C523 C 0.09954 0.52277 0.92537 0.0
C524 C 0.11608 0.56078 0.95114 0.0
H525 H 0.56453 0.99557 0.39636 0.0
H526 H 0.65615 0.15681 0.42142 0.0
H527 H 0.65273 0.16062 0.36994 0.0
H528 H 0.61538 0.97171 0.32961 0.0
H529 H 0.55755 0.92474 0.31014 0.0
H530 H 0.57139 0.93394 0.34884 0.0
H531 H 0.49549 0.94877 0.35495 0.0
H532 H 0.4816 0.93997 0.31638 0.0
H533 H 0.48793 0.99725 0.34022 0.0
H534 H 0.62932 0.14897 0.31636 0.0
H535 H 0.59212 0.12173 0.2649 0.0
H536 H 0.52298 0.96664 0.2741 0.0
C537 C 0.58462 0.03147 0.39098 0.0
C538 C 0.61062 0.07585 0.41289 0.0
C539 C 0.63631 0.12219 0.405 0.0
C540 C 0.63455 0.12479 0.37579 0.0
C541 C 0.60778 0.08053 0.35471 0.0
C542 C 0.584 0.03457 0.36191 0.0
C543 C 0.55614 0.993 0.3352 0.0
C544 C 0.57634 0.95352 0.33068 0.0
C545 C 0.50211 0.96833 0.33679 0.0
C546 C 0.56629 0.02316 0.31203 0.0
C547 C 0.59624 0.07352 0.32365 0.0
C548 C 0.60686 0.10936 0.30684 0.0
C549 C 0.58572 0.09339 0.27747 0.0
C550 C 0.55452 0.04188 0.2651 0.0
C551 C 0.5461 1.0064 0.28269 0.0
H552 H 0.55209 0.59495 0.73024 0.0
H553 H 0.69353 0.60372 0.75624 0.0
H554 H 0.70787 0.59996 0.70593 0.0
H555 H 0.5238 0.50636 0.66392 0.0
H556 H 0.49283 0.53379 0.64422 0.0
H557 H 0.49489 0.5413 0.68277 0.0
H558 H 0.53175 0.63854 0.68939 0.0
H559 H 0.53001 0.63131 0.65081 0.0
H560 H 0.5859 0.67009 0.67519 0.0
H561 H 0.705 0.58836 0.65279 0.0
H562 H 0.68409 0.5686 0.59941 0.0
H563 H 0.54581 0.5693 0.60726 0.0
C564 C 0.58628 0.59664 0.72543 0.0
C565 C 0.62164 0.59965 0.74729 0.0
C566 C 0.66577 0.60138 0.73997 0.0
C567 C 0.67443 0.5995 0.71143 0.0
C568 C 0.6388 0.59621 0.69041 0.0
C569 C 0.59562 0.59487 0.69697 0.0
C570 C 0.56246 0.58857 0.66992 0.0
C571 C 0.51575 0.53959 0.66492 0.0
C572 C 0.55192 0.6349 0.67143 0.0
C573 C 0.59338 0.58538 0.64711 0.0
C574 C 0.63743 0.59028 0.6595 0.0
C575 C 0.67098 0.58527 0.64283 0.0
C576 C 0.65888 0.57409 0.61263 0.0
C577 C 0.6138 0.5683 0.59951 0.0
C578 C 0.58098 0.57486 0.61694 0.0
H579 H 0.64432 0.1641 0.6099 0.0
H580 H 0.53486 1.00944 0.57933 0.0
H581 H 0.52487 1.00381 0.62949 0.0
H582 H 0.69754 0.14532 0.67511 0.0
H583 H 0.70779 0.20578 0.69695 0.0
H584 H 0.70786 0.19787 0.65849 0.0
H585 H 0.64209 0.22982 0.65365 0.0
H586 H 0.64184 0.23784 0.69207 0.0
H587 H 0.58678 0.19907 0.66695 0.0
H588 H 0.52466 0.01446 0.68242 0.0
H589 H 0.5333 0.04203 0.73537 0.0
H590 H 0.64323 0.18936 0.73275 0.0
C591 C 0.61844 0.12902 0.61379 0.0
C592 C 0.59039 0.0873 0.59054 0.0
C593 C 0.55671 0.04213 0.59662 0.0
C594 C 0.55079 0.03838 0.62511 0.0
C595 C 0.57873 0.08008 0.64746 0.0
C596 C 0.61183 0.12461 0.64225 0.0
C597 C 0.6363 0.16405 0.67039 0.0
C598 C 0.6906 0.17913 0.67554 0.0
C599 C 0.62613 0.21043 0.67078 0.0
C600 C 0.61146 0.1347 0.69206 0.0
C601 C 0.5786 0.08626 0.6783 0.0
C602 C 0.55058 0.05218 0.69352 0.0
C603 C 0.55602 0.06809 0.72365 0.0
C604 C 0.58925 0.1177 0.73833 0.0
C605 C 0.61743 0.15124 0.72218 0.0
H606 H 0.64708 0.62861 0.93886 0.0
H607 H 0.49349 0.55933 0.90817 0.0
H608 H 0.47884 0.53697 0.95544 0.0
H609 H 0.65041 0.5414 0.97813 0.0
H610 H 0.69527 0.58689 0.00794 0.0
H611 H 0.69383 0.60044 0.97256 0.0
H612 H 0.68734 0.68324 0.99364 0.0
H613 H 0.68955 0.67039 0.02922 0.0
H614 H 0.64027 0.68105 0.01427 0.0
H615 H 0.48203 0.51189 0.00307 0.0
H616 H 0.50082 0.49723 0.05061 0.0
H617 H 0.65243 0.59249 0.05317 0.0
C618 C 0.61034 0.6096 0.94234 0.0
C619 C 0.5713 0.59571 0.91999 0.0
C620 C 0.52377 0.57079 0.92519 0.0
C621 C 0.51519 0.55765 0.95186 0.0
C622 C 0.55456 0.57078 0.97322 0.0
C623 C 0.60116 0.59734 0.96904 0.0
C624 C 0.63706 0.60687 0.99551 0.0
C625 C 0.67114 0.58243 0.98808 0.0
C626 C 0.66521 0.66377 0.00896 0.0
C627 C 0.60343 0.58031 0.01498 0.0
C628 C 0.55609 0.55935 0.00156 0.0
C629 C 0.51882 0.52962 0.01422 0.0
C630 C 0.53003 0.52195 0.04155 0.0
C631 C 0.57816 0.54498 0.05658 0.0
C632 C 0.61524 0.57435 0.04273 0.0
H633 H 0.1191 0.56903 0.25295 0.0
H634 H 0.96342 0.49731 0.23274 0.0
H635 H 0.9588 0.50659 0.28498 0.0
H636 H 0.12579 0.50899 0.3127 0.0
H637 H 0.17726 0.56371 0.33383 0.0
H638 H 0.16832 0.5517 0.29484 0.0
H639 H 0.17197 0.64071 0.2974 0.0
H640 H 0.18093 0.65297 0.33637 0.0
H641 H 0.13185 0.6588 0.317 0.0
H642 H 0.97138 0.53015 0.33931 0.0
H643 H 0.99977 0.56093 0.39178 0.0
H644 H 0.14721 0.60657 0.37661 0.0
C645 C 0.08413 0.55538 0.25962 0.0
C646 C 0.04159 0.5328 0.239 0.0
C647 C 0.99639 0.51465 0.24833 0.0
C648 C 0.99341 0.5198 0.2779 0.0
C649 C 0.03599 0.54216 0.29777 0.0
C650 C 0.08049 0.55898 0.28905 0.0
C651 C 0.12064 0.58062 0.31483 0.0
C652 C 0.14971 0.54938 0.31399 0.0
C653 C 0.15325 0.63659 0.31649 0.0
C654 C 0.09174 0.5745 0.33938 0.0
C655 C 0.04305 0.55255 0.32909 0.0
C656 C 1.00942 0.54636 0.34768 0.0
C657 C 0.02604 0.56359 0.37762 0.0
C658 C 0.07595 0.58605 0.38884 0.0
C659 C 0.10888 0.59035 0.36916 0.0
loop_
_geom_bond_atom_site_label_1
_geom_bond_atom_site_label_2
_geom_bond_distance
_geom_bond_site_symmetry_2
_ccdc_geom_bond_type
Tb0 O3 2.453 1_455 S
Tb0 O4 2.596 1_455 S
Tb0 O5 2.374 . S
Tb0 O13 2.343 . S
Tb0 O15 2.353 . S
Tb0 O17 2.427 . S
Tb0 O18 2.513 . S
C1 O5 1.251 . S
C1 O7 1.263 . S
Tb2 O4 2.343 1_455 S
Tb2 O7 2.353 . S
Tb2 O10 2.427 1_455 S
Tb2 O11 2.513 1_455 S
Tb2 O12 2.453 . S
Tb2 O13 2.596 . S
Tb2 O14 2.374 . S
O3 Tb0 2.453 1_655 S
O3 C19 1.245 . S
O4 Tb0 2.596 1_655 S
O4 Tb2 2.343 1_655 S
O4 C19 1.259 . S
O5 Tb0 2.374 . S
O5 C1 1.251 . S
C6 O10 1.275 . S
C6 O11 1.246 . S
O7 C1 1.263 . S
O7 Tb2 2.353 . S
C8 O12 1.245 . S
C8 O13 1.259 . S
C9 O14 1.250 . S
C9 O15 1.263 . S
O10 Tb2 2.427 1_655 S
O10 C6 1.275 . S
O11 Tb2 2.513 1_655 S
O11 C6 1.246 . S
O12 Tb2 2.453 . S
O12 C8 1.245 . S
O13 Tb0 2.343 . S
O13 Tb2 2.596 . S
O13 C8 1.259 . S
O14 Tb2 2.374 . S
O14 C9 1.250 . S
O15 Tb0 2.353 . S
O15 C9 1.263 . S
C16 O17 1.275 . S
C16 O18 1.246 . S
O17 Tb0 2.427 . S
O17 C16 1.275 . S
O18 Tb0 2.513 . S
O18 C16 1.246 . S
C19 O3 1.245 . S
C19 O4 1.259 . S
Tb20 O23 2.453 . S
Tb20 O24 2.596 . S
Tb20 O25 2.374 . S
Tb20 O33 2.343 . S
Tb20 O35 2.353 . S
Tb20 O37 2.427 1_545 S
Tb20 O38 2.513 1_545 S
C21 O25 1.251 . S
C21 O27 1.263 . S
Tb22 O24 2.343 . S
Tb22 O27 2.353 . S
Tb22 O30 2.427 . S
Tb22 O31 2.513 . S
Tb22 O32 2.453 . S
Tb22 O33 2.596 . S
Tb22 O34 2.374 . S
O23 Tb20 2.453 . S
O23 C39 1.245 . S
O24 Tb20 2.596 . S
O24 Tb22 2.343 . S
O24 C39 1.259 . S
O25 Tb20 2.374 . S
O25 C21 1.251 . S
C26 O30 1.275 . S
C26 O31 1.246 . S
O27 C21 1.263 . S
O27 Tb22 2.353 . S
C28 O32 1.245 1_565 S
C28 O33 1.259 1_565 S
C29 O34 1.250 . S
C29 O35 1.263 . S
O30 Tb22 2.427 . S
O30 C26 1.275 . S
O31 Tb22 2.513 . S
O31 C26 1.246 . S
O32 Tb22 2.453 . S
O32 C28 1.245 1_545 S
O33 Tb20 2.343 . S
O33 Tb22 2.596 . S
O33 C28 1.259 1_545 S
O34 Tb22 2.374 . S
O34 C29 1.250 . S
O35 Tb20 2.353 . S
O35 C29 1.263 . S
C36 O37 1.275 . S
C36 O38 1.246 . S
O37 Tb20 2.427 1_565 S
O37 C36 1.275 . S
O38 Tb20 2.513 1_565 S
O38 C36 1.246 . S
C39 O23 1.245 . S
C39 O24 1.259 . S
Tb40 O43 2.453 . S
Tb40 O44 2.596 . S
Tb40 O45 2.374 . S
Tb40 O53 2.343 . S
Tb40 O55 2.353 . S
Tb40 O57 2.427 . S
Tb40 O58 2.513 . S
C41 O45 1.251 . S
C41 O47 1.263 . S
Tb42 O44 2.343 . S
Tb42 O47 2.353 . S
Tb42 O50 2.427 . S
Tb42 O51 2.513 . S
Tb42 O52 2.453 . S
Tb42 O53 2.596 . S
Tb42 O54 2.374 . S
O43 Tb40 2.453 . S
O43 C59 1.245 . S
O44 Tb40 2.596 . S
O44 Tb42 2.343 . S
O44 C59 1.259 . S
O45 Tb40 2.374 . S
O45 C41 1.251 . S
C46 O50 1.275 . S
C46 O51 1.246 . S
O47 C41 1.263 . S
O47 Tb42 2.353 . S
C48 O52 1.245 . S
C48 O53 1.259 . S
C49 O54 1.250 . S
C49 O55 1.263 . S
O50 Tb42 2.427 . S
O50 C46 1.275 . S
O51 Tb42 2.513 . S
O51 C46 1.246 . S
O52 Tb42 2.453 . S
O52 C48 1.245 . S
O53 Tb40 2.343 . S
O53 Tb42 2.596 . S
O53 C48 1.259 . S
O54 Tb42 2.374 . S
O54 C49 1.250 . S
O55 Tb40 2.353 . S
O55 C49 1.263 . S
C56 O57 1.275 . S
C56 O58 1.246 . S
O57 Tb40 2.427 . S
O57 C56 1.275 . S
O58 Tb40 2.513 . S
O58 C56 1.246 . S
C59 O43 1.245 . S
C59 O44 1.259 . S
H60 C61 0.949 . S
C61 H60 0.949 . S
C61 C62 1.395 . S
C61 C63 1.391 . S
C62 C61 1.395 . S
C62 C65 1.390 . S
C63 C61 1.391 . S
C63 C67 1.387 . S
C63 C68 1.491 . S
H64 C65 0.950 . S
C65 C62 1.390 . S
C65 H64 0.950 . S
C65 C66 1.378 . S
C66 C65 1.378 . S
C66 C67 1.409 . S
C67 C63 1.387 . S
C67 C66 1.409 . S
C67 H69 0.951 . S
C68 C63 1.491 . S
C68 C70 1.382 . S
C68 C72 1.404 . S
H69 C67 0.951 . S
C70 C68 1.382 . S
C70 C71 1.390 . S
C70 H75 0.949 . S
C71 C70 1.390 . S
C71 C76 1.399 . S
C72 C68 1.404 . S
C72 H73 0.950 . S
C72 C74 1.375 . S
H73 C72 0.950 . S
C74 C72 1.375 . S
C74 C76 1.382 . S
C74 H78 0.950 . S
H75 C70 0.949 . S
C76 C71 1.399 . S
C76 C74 1.382 . S
C76 H77 0.952 . S
H77 C76 0.952 . S
H78 C74 0.950 . S
H79 C80 0.949 . S
C80 H79 0.949 . S
C80 C81 1.395 . S
C80 C82 1.391 . S
C81 C80 1.395 . S
C81 C84 1.390 . S
C82 C80 1.391 . S
C82 C86 1.387 . S
C82 C87 1.491 . S
H83 C84 0.950 . S
C84 C81 1.390 . S
C84 H83 0.950 . S
C84 C85 1.378 . S
C85 C84 1.378 . S
C85 C86 1.409 . S
C86 C82 1.387 . S
C86 C85 1.409 . S
C86 H88 0.951 . S
C87 C82 1.491 . S
C87 C89 1.382 . S
C87 C91 1.404 . S
H88 C86 0.951 . S
C89 C87 1.382 . S
C89 C90 1.390 . S
C89 H94 0.949 . S
C90 C89 1.390 . S
C90 C95 1.399 . S
C91 C87 1.404 . S
C91 H92 0.950 . S
C91 C93 1.375 . S
H92 C91 0.950 . S
C93 C91 1.375 . S
C93 C95 1.382 . S
C93 H97 0.950 . S
H94 C89 0.949 . S
C95 C90 1.399 . S
C95 C93 1.382 . S
C95 H96 0.952 . S
H96 C95 0.952 . S
H97 C93 0.950 . S
H98 C99 0.949 . S
C99 H98 0.949 . S
C99 C100 1.395 . S
C99 C101 1.391 . S
C100 C99 1.395 . S
C100 C103 1.390 . S
C101 C99 1.391 . S
C101 C105 1.387 . S
C101 C106 1.491 . S
H102 C103 0.936 1_655 S
C103 C100 1.390 . S
C103 H102 0.936 1_455 S
C103 C104 1.378 . S
C104 C103 1.378 . S
C104 C105 1.409 . S
C105 C101 1.387 . S
C105 C104 1.409 . S
C105 H107 0.951 . S
C106 C101 1.491 . S
C106 C108 1.382 . S
C106 C110 1.404 . S
H107 C105 0.951 . S
C108 C106 1.382 . S
C108 C109 1.390 . S
C108 H113 0.949 . S
C109 C108 1.390 . S
C109 C114 1.399 . S
C110 C106 1.404 . S
C110 H111 0.950 . S
C110 C112 1.375 . S
H111 C110 0.950 . S
C112 C110 1.375 . S
C112 C114 1.382 . S
C112 H116 0.950 . S
H113 C108 0.949 . S
C114 C109 1.399 . S
C114 C112 1.382 . S
C114 H115 0.952 . S
H115 C114 0.952 . S
H116 C112 0.950 . S
H117 C118 0.949 . S
C118 H117 0.949 . S
C118 C119 1.395 1_655 S
C118 C120 1.391 1_655 S
C119 C118 1.395 1_455 S
C119 C122 1.390 . S
C120 C118 1.391 1_455 S
C120 C124 1.390 . S
C120 C125 1.488 1_455 S
H121 C122 0.950 . S
C122 C119 1.390 . S
C122 H121 0.950 . S
C122 C123 1.378 . S
C123 C122 1.378 . S
C123 C124 1.409 . S
C124 C120 1.390 . S
C124 C123 1.409 . S
C124 H126 0.951 . S
C125 C120 1.488 1_655 S
C125 C127 1.382 . S
C125 C129 1.404 . S
H126 C124 0.951 . S
C127 C125 1.382 . S
C127 C128 1.390 . S
C127 H132 0.949 . S
C128 C127 1.390 . S
C128 C133 1.399 . S
C129 C125 1.404 . S
C129 H130 0.950 . S
C129 C131 1.375 . S
H130 C129 0.950 . S
C131 C129 1.375 . S
C131 C133 1.382 . S
C131 H135 0.950 . S
H132 C127 0.949 . S
C133 C128 1.399 . S
C133 C131 1.382 . S
C133 H134 0.952 . S
H134 C133 0.952 . S
H135 C131 0.950 . S
H136 C137 0.949 1_565 S
C137 H136 0.949 1_545 S
C137 C138 1.395 . S
C137 C139 1.391 . S
C138 C137 1.395 . S
C138 C141 1.390 . S
C139 C137 1.391 . S
C139 C143 1.387 . S
C139 C144 1.472 1_545 S
H140 C141 0.950 . S
C141 C138 1.390 . S
C141 H140 0.950 . S
C141 C142 1.378 . S
C142 C141 1.378 . S
C142 C143 1.409 . S
C143 C139 1.387 . S
C143 C142 1.409 . S
C143 H145 0.951 . S
C144 C139 1.472 1_565 S
C144 C146 1.401 . S
C144 C148 1.404 . S
H145 C143 0.951 . S
C146 C144 1.401 . S
C146 C147 1.390 . S
C146 H151 0.949 . S
C147 C146 1.390 . S
C147 C152 1.399 . S
C148 C144 1.404 . S
C148 H149 0.950 1_565 S
C148 C150 1.375 . S
H149 C148 0.950 1_545 S
C150 C148 1.375 . S
C150 C152 1.382 . S
C150 H154 0.950 . S
H151 C146 0.949 . S
C152 C147 1.399 . S
C152 C150 1.382 . S
C152 H153 0.952 . S
H153 C152 0.952 . S
H154 C150 0.950 . S
H155 C156 0.949 . S
C156 H155 0.949 . S
C156 C157 1.395 . S
C156 C158 1.391 . S
C157 C156 1.395 . S
C157 C160 1.390 . S
C158 C156 1.391 . S
C158 C162 1.387 . S
C158 C163 1.491 . S
H159 C160 0.950 . S
C160 C157 1.390 . S
C160 H159 0.950 . S
C160 C161 1.378 . S
C161 C160 1.378 . S
C161 C162 1.409 . S
C162 C158 1.387 . S
C162 C161 1.409 . S
C162 H164 0.951 . S
C163 C158 1.491 . S
C163 C165 1.382 . S
C163 C167 1.404 . S
H164 C162 0.951 . S
C165 C163 1.382 . S
C165 C166 1.390 . S
C165 H170 0.949 . S
C166 C165 1.390 . S
C166 C171 1.399 . S
C167 C163 1.404 . S
C167 H168 0.950 . S
C167 C169 1.375 . S
H168 C167 0.950 . S
C169 C167 1.375 . S
C169 C171 1.382 . S
C169 H173 0.950 . S
H170 C165 0.949 . S
C171 C166 1.399 . S
C171 C169 1.382 . S
C171 H172 0.952 . S
H172 C171 0.952 . S
H173 C169 0.950 . S
H174 C186 0.930 . S
H175 C188 0.930 . S
H176 C189 0.930 . S
H177 C193 0.959 . S
H178 C193 0.959 . S
H179 C193 0.961 . S
H180 C194 0.960 . S
H181 C194 0.961 . S
H182 C194 0.959 . S
H183 C197 0.929 . S
H184 C198 0.931 . S
H185 C200 0.930 . S
C186 H174 0.930 . S
C186 C187 1.399 . S
C186 C191 1.399 . S
C187 C186 1.399 . S
C187 C188 1.376 . S
C188 H175 0.930 . S
C188 C187 1.376 . S
C188 C189 1.388 . S
C189 H176 0.930 . S
C189 C188 1.388 . S
C189 C190 1.390 . S
C190 C189 1.390 . S
C190 C191 1.394 . S
C190 C196 1.465 . S
C191 C186 1.399 . S
C191 C190 1.394 . S
C191 C192 1.516 . S
C192 C191 1.516 . S
C192 C193 1.502 . S
C192 C194 1.561 . S
C192 C195 1.526 . S
C193 H177 0.959 . S
C193 H178 0.959 . S
C193 H179 0.961 . S
C193 C192 1.502 . S
C194 H180 0.960 . S
C194 H181 0.961 . S
C194 H182 0.959 . S
C194 C192 1.561 . S
C195 C192 1.526 . S
C195 C196 1.396 . S
C195 C200 1.390 . S
C196 C190 1.465 . S
C196 C195 1.396 . S
C196 C197 1.399 . S
C197 H183 0.929 . S
C197 C196 1.399 . S
C197 C198 1.385 . S
C198 H184 0.931 . S
C198 C197 1.385 . S
C198 C199 1.389 . S
C199 C198 1.389 . S
C199 C200 1.387 . S
C200 H185 0.930 . S
C200 C195 1.390 . S
C200 C199 1.387 . S
H201 C213 0.930 . S
H202 C215 0.930 . S
H203 C216 0.930 . S
H204 C220 0.959 . S
H205 C220 0.959 . S
H206 C220 0.961 . S
H207 C221 0.960 . S
H208 C221 0.961 . S
H209 C221 0.959 . S
H210 C224 0.929 . S
H211 C225 0.931 . S
H212 C227 0.930 . S
C213 H201 0.930 . S
C213 C214 1.399 . S
C213 C218 1.399 . S
C214 C213 1.399 . S
C214 C215 1.376 . S
C215 H202 0.930 . S
C215 C214 1.376 . S
C215 C216 1.388 . S
C216 H203 0.930 . S
C216 C215 1.388 . S
C216 C217 1.390 . S
C217 C216 1.390 . S
C217 C218 1.394 . S
C217 C223 1.465 . S
C218 C213 1.399 . S
C218 C217 1.394 . S
C218 C219 1.516 . S
C219 C218 1.516 . S
C219 C220 1.502 . S
C219 C221 1.561 . S
C219 C222 1.526 . S
C220 H204 0.959 . S
C220 H205 0.959 . S
C220 H206 0.961 . S
C220 C219 1.502 . S
C221 H207 0.960 . S
C221 H208 0.961 . S
C221 H209 0.959 . S
C221 C219 1.561 . S
C222 C219 1.526 . S
C222 C223 1.396 . S
C222 C227 1.390 . S
C223 C217 1.465 . S
C223 C222 1.396 . S
C223 C224 1.399 . S
C224 H210 0.929 . S
C224 C223 1.399 . S
C224 C225 1.385 . S
C225 H211 0.931 . S
C225 C224 1.385 . S
C225 C226 1.389 . S
C226 C225 1.389 . S
C226 C227 1.387 . S
C227 H212 0.930 . S
C227 C222 1.390 . S
C227 C226 1.387 . S
H228 C240 0.930 . S
H229 C242 0.930 . S
H230 C243 0.930 . S
H231 C247 0.959 . S
H232 C247 0.959 . S
H233 C247 0.961 . S
H234 C248 0.960 . S
H235 C248 0.961 . S
H236 C248 0.959 . S
H237 C251 0.929 . S
H238 C252 0.931 . S
H239 C254 0.930 . S
C240 H228 0.930 . S
C240 C241 1.399 . S
C240 C245 1.399 . S
C241 C240 1.399 . S
C241 C242 1.376 . S
C242 H229 0.930 . S
C242 C241 1.376 . S
C242 C243 1.388 . S
C243 H230 0.930 . S
C243 C242 1.388 . S
C243 C244 1.390 . S
C244 C243 1.390 . S
C244 C245 1.394 . S
C244 C250 1.465 . S
C245 C240 1.399 . S
C245 C244 1.394 . S
C245 C246 1.516 . S
C246 C245 1.516 . S
C246 C247 1.502 . S
C246 C248 1.561 . S
C246 C249 1.526 . S
C247 H231 0.959 . S
C247 H232 0.959 . S
C247 H233 0.961 . S
C247 C246 1.502 . S
C248 H234 0.960 . S
C248 H235 0.961 . S
C248 H236 0.959 . S
C248 C246 1.561 . S
C249 C246 1.526 . S
C249 C250 1.396 . S
C249 C254 1.390 . S
C250 C244 1.465 . S
C250 C249 1.396 . S
C250 C251 1.399 . S
C251 H237 0.929 . S
C251 C250 1.399 . S
C251 C252 1.385 . S
C252 H238 0.931 . S
C252 C251 1.385 . S
C252 C253 1.389 . S
C253 C252 1.389 . S
C253 C254 1.387 . S
C254 H239 0.930 . S
C254 C249 1.390 . S
C254 C253 1.387 . S
H255 C267 0.930 . S
H256 C269 0.930 . S
H257 C270 0.930 . S
H258 C274 0.959 . S
H259 C274 0.959 . S
H260 C274 0.961 . S
H261 C275 0.960 . S
H262 C275 0.961 . S
H263 C275 0.959 . S
H264 C278 0.929 . S
H265 C279 0.931 . S
H266 C281 0.930 . S
C267 H255 0.930 . S
C267 C268 1.399 . S
C267 C272 1.399 . S
C268 C267 1.399 . S
C268 C269 1.376 . S
C269 H256 0.930 . S
C269 C268 1.376 . S
C269 C270 1.388 . S
C270 H257 0.930 . S
C270 C269 1.388 . S
C270 C271 1.390 . S
C271 C270 1.390 . S
C271 C272 1.394 . S
C271 C277 1.465 . S
C272 C267 1.399 . S
C272 C271 1.394 . S
C272 C273 1.516 . S
C273 C272 1.516 . S
C273 C274 1.502 . S
C273 C275 1.561 . S
C273 C276 1.526 . S
C274 H258 0.959 . S
C274 H259 0.959 . S
C274 H260 0.961 . S
C274 C273 1.502 . S
C275 H261 0.960 . S
C275 H262 0.961 . S
C275 H263 0.959 . S
C275 C273 1.561 . S
C276 C273 1.526 . S
C276 C277 1.396 . S
C276 C281 1.390 . S
C277 C271 1.465 . S
C277 C276 1.396 . S
C277 C278 1.399 . S
C278 H264 0.929 . S
C278 C277 1.399 . S
C278 C279 1.385 . S
C279 H265 0.931 . S
C279 C278 1.385 . S
C279 C280 1.389 . S
C280 C279 1.389 . S
C280 C281 1.387 . S
C281 H266 0.930 . S
C281 C276 1.390 . S
C281 C280 1.387 . S
H282 C294 0.930 . S
H283 C296 0.930 . S
H284 C297 0.930 . S
H285 C301 0.959 . S
H286 C301 0.959 . S
H287 C301 0.961 . S
H288 C302 0.960 . S
H289 C302 0.961 . S
H290 C302 0.959 . S
H291 C305 0.929 . S
H292 C306 0.931 . S
H293 C308 0.930 . S
C294 H282 0.930 . S
C294 C295 1.399 . S
C294 C299 1.399 . S
C295 C294 1.399 . S
C295 C296 1.376 . S
C296 H283 0.930 . S
C296 C295 1.376 . S
C296 C297 1.388 . S
C297 H284 0.930 . S
C297 C296 1.388 . S
C297 C298 1.390 . S
C298 C297 1.390 . S
C298 C299 1.394 . S
C298 C304 1.465 . S
C299 C294 1.399 . S
C299 C298 1.394 . S
C299 C300 1.516 . S
C300 C299 1.516 . S
C300 C301 1.502 . S
C300 C302 1.561 . S
C300 C303 1.526 . S
C301 H285 0.959 . S
C301 H286 0.959 . S
C301 H287 0.961 . S
C301 C300 1.502 . S
C302 H288 0.960 . S
C302 H289 0.961 . S
C302 H290 0.959 . S
C302 C300 1.561 . S
C303 C300 1.526 . S
C303 C304 1.396 . S
C303 C308 1.390 . S
C304 C298 1.465 . S
C304 C303 1.396 . S
C304 C305 1.399 . S
C305 H291 0.929 . S
C305 C304 1.399 . S
C305 C306 1.385 . S
C306 H292 0.931 . S
C306 C305 1.385 . S
C306 C307 1.389 . S
C307 C306 1.389 . S
C307 C308 1.387 . S
C308 H293 0.930 . S
C308 C303 1.390 . S
C308 C307 1.387 . S
H309 C321 0.930 . S
H310 C323 0.930 . S
H311 C324 0.930 . S
H312 C328 0.959 . S
H313 C328 0.959 . S
H314 C328 0.961 . S
H315 C329 0.960 . S
H316 C329 0.961 . S
H317 C329 0.959 . S
H318 C332 0.929 . S
H319 C333 0.931 . S
H320 C335 0.930 . S
C321 H309 0.930 . S
C321 C322 1.399 . S
C321 C326 1.399 . S
C322 C321 1.399 . S
C322 C323 1.376 . S
C323 H310 0.930 . S
C323 C322 1.376 . S
C323 C324 1.388 . S
C324 H311 0.930 . S
C324 C323 1.388 . S
C324 C325 1.390 . S
C325 C324 1.390 . S
C325 C326 1.394 . S
C325 C331 1.465 . S
C326 C321 1.399 . S
C326 C325 1.394 . S
C326 C327 1.516 . S
C327 C326 1.516 . S
C327 C328 1.502 . S
C327 C329 1.561 . S
C327 C330 1.526 . S
C328 H312 0.959 . S
C328 H313 0.959 . S
C328 H314 0.961 . S
C328 C327 1.502 . S
C329 H315 0.960 . S
C329 H316 0.961 . S
C329 H317 0.959 . S
C329 C327 1.561 . S
C330 C327 1.526 . S
C330 C331 1.396 . S
C330 C335 1.390 . S
C331 C325 1.465 . S
C331 C330 1.396 . S
C331 C332 1.399 . S
C332 H318 0.929 . S
C332 C331 1.399 . S
C332 C333 1.385 . S
C333 H319 0.931 . S
C333 C332 1.385 . S
C333 C334 1.389 . S
C334 C333 1.389 . S
C334 C335 1.387 . S
C335 H320 0.930 . S
C335 C330 1.390 . S
C335 C334 1.387 . S
H336 C348 0.930 . S
H337 C350 0.930 . S
H338 C351 0.930 . S
H339 C355 0.959 . S
H340 C355 0.959 . S
H341 C355 0.961 . S
H342 C356 0.960 . S
H343 C356 0.961 . S
H344 C356 0.959 . S
H345 C359 0.929 . S
H346 C360 0.931 . S
H347 C362 0.930 . S
C348 H336 0.930 . S
C348 C349 1.399 . S
C348 C353 1.399 . S
C349 C348 1.399 . S
C349 C350 1.376 . S
C350 H337 0.930 . S
C350 C349 1.376 . S
C350 C351 1.388 . S
C351 H338 0.930 . S
C351 C350 1.388 . S
C351 C352 1.390 . S
C352 C351 1.390 . S
C352 C353 1.394 . S
C352 C358 1.465 . S
C353 C348 1.399 . S
C353 C352 1.394 . S
C353 C354 1.516 . S
C354 C353 1.516 . S
C354 C355 1.502 . S
C354 C356 1.561 . S
C354 C357 1.526 . S
C355 H339 0.959 . S
C355 H340 0.959 . S
C355 H341 0.961 . S
C355 C354 1.502 . S
C356 H342 0.960 . S
C356 H343 0.961 . S
C356 H344 0.959 . S
C356 C354 1.561 . S
C357 C354 1.526 . S
C357 C358 1.396 . S
C357 C362 1.390 . S
C358 C352 1.465 . S
C358 C357 1.396 . S
C358 C359 1.399 . S
C359 H345 0.929 . S
C359 C358 1.399 . S
C359 C360 1.385 . S
C360 H346 0.931 . S
C360 C359 1.385 . S
C360 C361 1.389 . S
C361 C360 1.389 . S
C361 C362 1.387 . S
C362 H347 0.930 . S
C362 C357 1.390 . S
C362 C361 1.387 . S
H363 C375 0.930 . S
H364 C377 0.930 . S
H365 C378 0.930 . S
H366 C382 0.959 . S
H367 C382 0.959 . S
H368 C382 0.961 . S
H369 C383 0.960 . S
H370 C383 0.961 . S
H371 C383 0.959 . S
H372 C386 0.929 . S
H373 C387 0.931 . S
H374 C389 0.930 . S
C375 H363 0.930 . S
C375 C376 1.399 . S
C375 C380 1.399 . S
C376 C375 1.399 . S
C376 C377 1.376 . S
C377 H364 0.930 . S
C377 C376 1.376 . S
C377 C378 1.388 . S
C378 H365 0.930 . S
C378 C377 1.388 . S
C378 C379 1.390 . S
C379 C378 1.390 . S
C379 C380 1.394 . S
C379 C385 1.465 . S
C380 C375 1.399 . S
C380 C379 1.394 . S
C380 C381 1.516 . S
C381 C380 1.516 . S
C381 C382 1.502 . S
C381 C383 1.561 . S
C381 C384 1.526 . S
C382 H366 0.959 . S
C382 H367 0.959 . S
C382 H368 0.961 . S
C382 C381 1.502 . S
C383 H369 0.960 . S
C383 H370 0.961 . S
C383 H371 0.959 . S
C383 C381 1.561 . S
C384 C381 1.526 . S
C384 C385 1.396 . S
C384 C389 1.390 . S
C385 C379 1.465 . S
C385 C384 1.396 . S
C385 C386 1.399 . S
C386 H372 0.929 . S
C386 C385 1.399 . S
C386 C387 1.385 . S
C387 H373 0.931 . S
C387 C386 1.385 . S
C387 C388 1.389 . S
C388 C387 1.389 . S
C388 C389 1.387 . S
C389 H374 0.930 . S
C389 C384 1.390 . S
C389 C388 1.387 . S
H390 C402 0.930 . S
H391 C404 0.930 . S
H392 C405 0.930 . S
H393 C409 0.959 . S
H394 C409 0.959 . S
H395 C409 0.961 . S
H396 C410 0.960 . S
H397 C410 0.961 . S
H398 C410 0.959 . S
H399 C413 0.929 . S
H400 C414 0.931 1_545 S
H401 C416 0.930 . S
C402 H390 0.930 . S
C402 C403 1.399 . S
C402 C407 1.399 . S
C403 C402 1.399 . S
C403 C404 1.376 . S
C404 H391 0.930 . S
C404 C403 1.376 . S
C404 C405 1.388 . S
C405 H392 0.930 . S
C405 C404 1.388 . S
C405 C406 1.390 . S
C406 C405 1.390 . S
C406 C407 1.394 . S
C406 C412 1.465 . S
C407 C402 1.399 . S
C407 C406 1.394 . S
C407 C408 1.516 . S
C408 C407 1.516 . S
C408 C409 1.502 . S
C408 C410 1.561 . S
C408 C411 1.526 . S
C409 H393 0.959 . S
C409 H394 0.959 . S
C409 H395 0.961 . S
C409 C408 1.502 . S
C410 H396 0.960 . S
C410 H397 0.961 . S
C410 H398 0.959 . S
C410 C408 1.561 . S
C411 C408 1.526 . S
C411 C412 1.396 . S
C411 C416 1.390 . S
C412 C406 1.465 . S
C412 C411 1.396 . S
C412 C413 1.399 . S
C413 H399 0.929 . S
C413 C412 1.399 . S
C413 C414 1.385 . S
C414 H400 0.931 1_565 S
C414 C413 1.385 . S
C414 C415 1.389 . S
C415 C414 1.389 . S
C415 C416 1.387 . S
C416 H401 0.930 . S
C416 C411 1.390 . S
C416 C415 1.387 . S
H417 C429 0.930 . S
H418 C431 0.930 . S
H419 C432 0.930 . S
H420 C436 0.959 . S
H421 C436 0.959 . S
H422 C436 0.961 . S
H423 C437 0.960 . S
H424 C437 0.961 . S
H425 C437 0.959 . S
H426 C440 0.929 . S
H427 C441 0.931 . S
H428 C443 0.930 . S
C429 H417 0.930 . S
C429 C430 1.399 . S
C429 C434 1.399 . S
C430 C429 1.399 . S
C430 C431 1.376 . S
C431 H418 0.930 . S
C431 C430 1.376 . S
C431 C432 1.388 . S
C432 H419 0.930 . S
C432 C431 1.388 . S
C432 C433 1.390 . S
C433 C432 1.390 . S
C433 C434 1.394 . S
C433 C439 1.465 . S
C434 C429 1.399 . S
C434 C433 1.394 . S
C434 C435 1.516 . S
C435 C434 1.516 . S
C435 C436 1.502 . S
C435 C437 1.561 . S
C435 C438 1.526 . S
C436 H420 0.959 . S
C436 H421 0.959 . S
C436 H422 0.961 . S
C436 C435 1.502 . S
C437 H423 0.960 . S
C437 H424 0.961 . S
C437 H425 0.959 . S
C437 C435 1.561 . S
C438 C435 1.526 . S
C438 C439 1.396 . S
C438 C443 1.390 . S
C439 C433 1.465 . S
C439 C438 1.396 . S
C439 C440 1.399 . S
C440 H426 0.929 . S
C440 C439 1.399 . S
C440 C441 1.385 . S
C441 H427 0.931 . S
C441 C440 1.385 . S
C441 C442 1.389 . S
C442 C441 1.389 . S
C442 C443 1.387 . S
C443 H428 0.930 . S
C443 C438 1.390 . S
C443 C442 1.387 . S
H444 C456 0.930 . S
H445 C458 0.930 . S
H446 C459 0.930 . S
H447 C463 0.959 . S
H448 C463 0.959 . S
H449 C463 0.961 . S
H450 C464 0.960 . S
H451 C464 0.961 . S
H452 C464 0.959 . S
H453 C467 0.929 . S
H454 C468 0.931 . S
H455 C470 0.930 . S
C456 H444 0.930 . S
C456 C457 1.399 . S
C456 C461 1.399 . S
C457 C456 1.399 . S
C457 C458 1.376 . S
C458 H445 0.930 . S
C458 C457 1.376 . S
C458 C459 1.388 . S
C459 H446 0.930 . S
C459 C458 1.388 . S
C459 C460 1.390 . S
C460 C459 1.390 . S
C460 C461 1.394 . S
C460 C466 1.465 . S
C461 C456 1.399 . S
C461 C460 1.394 . S
C461 C462 1.516 . S
C462 C461 1.516 . S
C462 C463 1.502 . S
C462 C464 1.561 . S
C462 C465 1.526 . S
C463 H447 0.959 . S
C463 H448 0.959 . S
C463 H449 0.961 . S
C463 C462 1.502 . S
C464 H450 0.960 . S
C464 H451 0.961 . S
C464 H452 0.959 . S
C464 C462 1.561 . S
C465 C462 1.526 . S
C465 C466 1.396 . S
C465 C470 1.390 . S
C466 C460 1.465 . S
C466 C465 1.396 . S
C466 C467 1.399 . S
C467 H453 0.929 . S
C467 C466 1.399 . S
C467 C468 1.385 . S
C468 H454 0.931 . S
C468 C467 1.385 . S
C468 C469 1.389 . S
C469 C468 1.389 . S
C469 C470 1.387 . S
C470 H455 0.930 . S
C470 C465 1.390 . S
C470 C469 1.387 . S
H471 C483 0.930 . S
H472 C485 0.930 . S
H473 C486 0.930 . S
H474 C490 0.959 . S
H475 C490 0.959 . S
H476 C490 0.961 . S
H477 C491 0.960 . S
H478 C491 0.961 . S
H479 C491 0.959 . S
H480 C494 0.929 . S
H481 C495 0.931 . S
H482 C497 0.930 . S
C483 H471 0.930 . S
C483 C484 1.399 . S
C483 C488 1.399 . S
C484 C483 1.399 . S
C484 C485 1.376 . S
C485 H472 0.930 . S
C485 C484 1.376 . S
C485 C486 1.388 . S
C486 H473 0.930 . S
C486 C485 1.388 . S
C486 C487 1.390 . S
C487 C486 1.390 . S
C487 C488 1.394 . S
C487 C493 1.465 . S
C488 C483 1.399 . S
C488 C487 1.394 . S
C488 C489 1.516 . S
C489 C488 1.516 . S
C489 C490 1.502 . S
C489 C491 1.561 . S
C489 C492 1.526 . S
C490 H474 0.959 . S
C490 H475 0.959 . S
C490 H476 0.961 . S
C490 C489 1.502 . S
C491 H477 0.960 . S
C491 H478 0.961 . S
C491 H479 0.959 . S
C491 C489 1.561 . S
C492 C489 1.526 . S
C492 C493 1.396 . S
C492 C497 1.390 . S
C493 C487 1.465 . S
C493 C492 1.396 . S
C493 C494 1.399 . S
C494 H480 0.929 . S
C494 C493 1.399 . S
C494 C495 1.385 . S
C495 H481 0.931 . S
C495 C494 1.385 . S
C495 C496 1.389 . S
C496 C495 1.389 . S
C496 C497 1.387 . S
C497 H482 0.930 . S
C497 C492 1.390 . S
C497 C496 1.387 . S
H498 C510 0.930 . S
H499 C512 0.930 . S
H500 C513 0.930 . S
H501 C517 0.959 1_556 S
H502 C517 0.959 1_556 S
H503 C517 0.961 . S
H504 C518 0.960 . S
H505 C518 0.931 1_556 S
H506 C518 0.959 . S
H507 C521 0.929 . S
H508 C522 0.931 . S
H509 C524 0.930 . S
C510 H498 0.930 . S
C510 C511 1.399 . S
C510 C515 1.399 . S
C511 C510 1.399 . S
C511 C512 1.376 . S
C512 H499 0.930 . S
C512 C511 1.376 . S
C512 C513 1.388 . S
C513 H500 0.930 . S
C513 C512 1.388 . S
C513 C514 1.390 . S
C514 C513 1.390 . S
C514 C515 1.394 . S
C514 C520 1.465 1_554 S
C515 C510 1.399 . S
C515 C514 1.394 . S
C515 C516 1.516 . S
C516 C515 1.516 . S
C516 C517 1.502 . S
C516 C518 1.561 . S
C516 C519 1.526 1_554 S
C517 H501 0.959 1_554 S
C517 H502 0.959 1_554 S
C517 H503 0.961 . S
C517 C516 1.502 . S
C518 H504 0.960 . S
C518 H505 0.931 1_554 S
C518 H506 0.959 . S
C518 C516 1.561 . S
C519 C516 1.526 1_556 S
C519 C520 1.396 . S
C519 C524 1.390 . S
C520 C514 1.465 1_556 S
C520 C519 1.396 . S
C520 C521 1.399 . S
C521 H507 0.929 . S
C521 C520 1.399 . S
C521 C522 1.385 . S
C522 H508 0.931 . S
C522 C521 1.385 . S
C522 C523 1.389 . S
C523 C522 1.389 . S
C523 C524 1.387 . S
C524 H509 0.930 . S
C524 C519 1.390 . S
C524 C523 1.387 . S
H525 C537 0.930 . S
H526 C539 0.930 . S
H527 C540 0.930 . S
H528 C544 0.959 1_545 S
H529 C544 0.959 . S
H530 C544 0.961 . S
H531 C545 0.960 . S
H532 C545 0.961 . S
H533 C545 0.959 . S
H534 C548 0.929 . S
H535 C549 0.931 . S
H536 C551 0.930 . S
C537 H525 0.930 . S
C537 C538 1.399 . S
C537 C542 1.399 . S
C538 C537 1.399 . S
C538 C539 1.376 . S
C539 H526 0.930 . S
C539 C538 1.376 . S
C539 C540 1.388 . S
C540 H527 0.930 . S
C540 C539 1.388 . S
C540 C541 1.390 . S
C541 C540 1.390 . S
C541 C542 1.394 . S
C541 C547 1.465 . S
C542 C537 1.399 . S
C542 C541 1.394 . S
C542 C543 1.516 . S
C543 C542 1.516 . S
C543 C544 1.502 1_545 S
C543 C545 1.561 1_545 S
C543 C546 1.526 . S
C544 H528 0.959 1_565 S
C544 H529 0.959 . S
C544 H530 0.961 . S
C544 C543 1.502 1_565 S
C545 H531 0.960 . S
C545 H532 0.961 . S
C545 H533 0.959 . S
C545 C543 1.561 1_565 S
C546 C543 1.526 . S
C546 C547 1.396 . S
C546 C551 1.390 . S
C547 C541 1.465 . S
C547 C546 1.396 . S
C547 C548 1.399 . S
C548 H534 0.929 . S
C548 C547 1.399 . S
C548 C549 1.385 . S
C549 H535 0.931 . S
C549 C548 1.385 . S
C549 C550 1.389 . S
C550 C549 1.389 . S
C550 C551 1.387 . S
C551 H536 0.930 . S
C551 C546 1.390 . S
C551 C550 1.387 . S
H552 C564 0.930 . S
H553 C566 0.930 . S
H554 C567 0.930 . S
H555 C571 0.959 . S
H556 C571 0.959 . S
H557 C571 0.961 . S
H558 C572 0.960 . S
H559 C572 0.961 . S
H560 C572 0.959 . S
H561 C575 0.929 . S
H562 C576 0.931 . S
H563 C578 0.930 . S
C564 H552 0.930 . S
C564 C565 1.399 . S
C564 C569 1.399 . S
C565 C564 1.399 . S
C565 C566 1.376 . S
C566 H553 0.930 . S
C566 C565 1.376 . S
C566 C567 1.388 . S
C567 H554 0.930 . S
C567 C566 1.388 . S
C567 C568 1.390 . S
C568 C567 1.390 . S
C568 C569 1.394 . S
C568 C574 1.465 . S
C569 C564 1.399 . S
C569 C568 1.394 . S
C569 C570 1.516 . S
C570 C569 1.516 . S
C570 C571 1.502 . S
C570 C572 1.561 . S
C570 C573 1.526 . S
C571 H555 0.959 . S
C571 H556 0.959 . S
C571 H557 0.961 . S
C571 C570 1.502 . S
C572 H558 0.960 . S
C572 H559 0.961 . S
C572 H560 0.959 . S
C572 C570 1.561 . S
C573 C570 1.526 . S
C573 C574 1.396 . S
C573 C578 1.390 . S
C574 C568 1.465 . S
C574 C573 1.396 . S
C574 C575 1.399 . S
C575 H561 0.929 . S
C575 C574 1.399 . S
C575 C576 1.385 . S
C576 H562 0.931 . S
C576 C575 1.385 . S
C576 C577 1.389 . S
C577 C576 1.389 . S
C577 C578 1.387 . S
C578 H563 0.930 . S
C578 C573 1.390 . S
C578 C577 1.387 . S
H579 C591 0.930 . S
H580 C593 0.930 1_565 S
H581 C594 0.930 1_565 S
H582 C598 0.959 . S
H583 C598 0.959 . S
H584 C598 0.961 . S
H585 C599 0.960 . S
H586 C599 0.961 . S
H587 C599 0.959 . S
H588 C602 0.936 . S
H589 C603 0.931 1_565 S
H590 C605 0.930 . S
C591 H579 0.930 . S
C591 C592 1.399 . S
C591 C596 1.399 . S
C592 C591 1.399 . S
C592 C593 1.376 . S
C593 H580 0.930 1_545 S
C593 C592 1.376 . S
C593 C594 1.388 . S
C594 H581 0.930 1_545 S
C594 C593 1.388 . S
C594 C595 1.390 . S
C595 C594 1.390 . S
C595 C596 1.394 . S
C595 C601 1.465 . S
C596 C591 1.399 . S
C596 C595 1.394 . S
C596 C597 1.516 . S
C597 C596 1.516 . S
C597 C598 1.502 . S
C597 C599 1.561 . S
C597 C600 1.526 . S
C598 H582 0.959 . S
C598 H583 0.959 . S
C598 H584 0.961 . S
C598 C597 1.502 . S
C599 H585 0.960 . S
C599 H586 0.961 . S
C599 H587 0.959 . S
C599 C597 1.561 . S
C600 C597 1.526 . S
C600 C601 1.396 . S
C600 C605 1.390 . S
C601 C595 1.465 . S
C601 C600 1.396 . S
C601 C602 1.389 1_545 S
C602 H588 0.936 . S
C602 C601 1.389 1_565 S
C602 C603 1.388 1_565 S
C603 H589 0.931 1_545 S
C603 C602 1.388 1_545 S
C603 C604 1.389 . S
C604 C603 1.389 . S
C604 C605 1.387 . S
C605 H590 0.930 . S
C605 C600 1.390 . S
C605 C604 1.387 . S
H606 C618 0.930 . S
H607 C620 0.930 . S
H608 C621 0.930 . S
H609 C625 0.959 . S
H610 C625 0.959 . S
H611 C625 0.991 . S
H612 C626 0.960 1_556 S
H613 C626 0.961 . S
H614 C626 0.959 . S
H615 C629 0.931 . S
H616 C630 0.931 . S
H617 C632 0.930 . S
C618 H606 0.930 . S
C618 C619 1.399 . S
C618 C623 1.399 . S
C619 C618 1.399 . S
C619 C620 1.376 . S
C620 H607 0.930 . S
C620 C619 1.376 . S
C620 C621 1.388 . S
C621 H608 0.930 . S
C621 C620 1.388 . S
C621 C622 1.390 . S
C622 C621 1.390 . S
C622 C623 1.394 . S
C622 C628 1.465 1_556 S
C623 C618 1.399 . S
C623 C622 1.394 . S
C623 C624 1.516 1_556 S
C624 C623 1.516 1_554 S
C624 C625 1.502 . S
C624 C626 1.561 . S
C624 C627 1.526 . S
C625 H609 0.959 . S
C625 H610 0.959 . S
C625 H611 0.991 . S
C625 C624 1.502 . S
C626 H612 0.960 1_554 S
C626 H613 0.961 . S
C626 H614 0.959 . S
C626 C624 1.561 . S
C627 C624 1.526 . S
C627 C628 1.396 . S
C627 C632 1.390 . S
C628 C622 1.465 1_554 S
C628 C627 1.396 . S
C628 C629 1.399 . S
C629 H615 0.931 . S
C629 C628 1.399 . S
C629 C630 1.385 . S
C630 H616 0.931 . S
C630 C629 1.385 . S
C630 C631 1.389 . S
C631 C630 1.389 . S
C631 C632 1.387 . S
C632 H617 0.930 . S
C632 C627 1.390 . S
C632 C631 1.387 . S
H633 C645 0.930 . S
H634 C647 0.930 . S
H635 C648 0.930 . S
H636 C652 0.959 . S
H637 C652 0.959 . S
H638 C652 0.961 . S
H639 C653 0.960 . S
H640 C653 0.961 . S
H641 C653 0.959 . S
H642 C656 0.929 . S
H643 C657 0.931 . S
H644 C659 0.930 . S
C645 H633 0.930 . S
C645 C646 1.399 . S
C645 C650 1.399 . S
C646 C645 1.399 . S
C646 C647 1.376 1_455 S
C647 H634 0.930 . S
C647 C646 1.376 1_655 S
C647 C648 1.388 . S
C648 H635 0.930 . S
C648 C647 1.388 . S
C648 C649 1.390 1_655 S
C649 C648 1.390 1_455 S
C649 C650 1.394 . S
C649 C655 1.465 . S
C650 C645 1.399 . S
C650 C649 1.394 . S
C650 C651 1.516 . S
C651 C650 1.516 . S
C651 C652 1.502 . S
C651 C653 1.561 . S
C651 C654 1.526 . S
C652 H636 0.959 . S
C652 H637 0.959 . S
C652 H638 0.961 . S
C652 C651 1.502 . S
C653 H639 0.960 . S
C653 H640 0.961 . S
C653 H641 0.959 . S
C653 C651 1.561 . S
C654 C651 1.526 . S
C654 C655 1.396 . S
C654 C659 1.390 . S
C655 C649 1.465 . S
C655 C654 1.396 . S
C655 C656 1.399 1_455 S
C656 H642 0.929 . S
C656 C655 1.399 1_655 S
C656 C657 1.385 . S
C657 H643 0.931 . S
C657 C656 1.385 . S
C657 C658 1.389 1_655 S
C658 C657 1.389 1_455 S
C658 C659 1.387 . S
C659 H644 0.930 . S
C659 C654 1.390 . S
C659 C658 1.387 . S
C187 C8 2.079 . S
C199 C166 2.137 . S
C214 C26 1.407 . S
C226 C128 1.428 . S
C241 C48 1.575 . S
C253 C147 1.641 . S
C268 C19 1.746 . S
C280 C161 1.763 . S
C307 C123 1.372 . S
C295 C36 1.330 . S
C334 C142 1.580 . S
C322 C59 1.534 . S
C349 C28 1.594 . S
C361 C90 1.644 . S
C376 C46 1.084 . S
C388 C104 1.062 1_655 S
C403 C16 1.331 . S
C415 C66 1.322 1_565 S
C442 C85 1.511 . S
C430 C39 1.466 . S
C469 C109 1.024 . S
C457 C56 1.152 . S
C484 C6 1.458 . S
C496 C71 1.393 . S
C523 C100 1.498 . S
C511 C9 1.499 . S
C538 C21 1.585 . S
C550 C62 1.572 . S
C565 C49 1.561 . S
C577 C81 1.557 . S
C604 C138 1.538 . S
C592 C29 1.557 . S
C631 C157 1.654 . S
C619 C41 1.586 . S
C646 C1 1.548 . S
C658 C119 1.539 . S
