# Generated by pormake.
# Topology anh, (6,3)-cn, num edge types: 1
# Building blocks:
#     Node 0, Type 0, BuildingBlock: GEDQOX_clean_sbu_0, # of connection points: 6
#     Node 1, Type 0, BuildingBlock: GEDQOX_clean_sbu_0, # of connection points: 6
#     Node 2, Type 0, BuildingBlock: GEDQOX_clean_sbu_0, # of connection points: 6
#     Node 3, Type 1, BuildingBlock: KAKCAD_clean_linker_0, # of connection points: 3
#     Node 4, Type 1, BuildingBlock: KAKCAD_clean_linker_0, # of connection points: 3
#     Node 5, Type 1, BuildingBlock: KAKCAD_clean_linker_0, # of connection points: 3
#     Node 6, Type 1, BuildingBlock: KAKCAD_clean_linker_0, # of connection points: 3
#     Node 7, Type 1, BuildingBlock: KAKCAD_clean_linker_0, # of connection points: 3
#     Node 8, Type 1, BuildingBlock: KAKCAD_clean_linker_0, # of connection points: 3
#     Edge 9, Type (0, 1), BuildingBlock: UVAHIK_clean_linker_0, # of connection points: 2
#     Edge 10, Type (0, 1), BuildingBlock: UVAHIK_clean_linker_0, # of connection points: 2
#     Edge 11, Type (0, 1), BuildingBlock: UVAHIK_clean_linker_0, # of connection points: 2
#     Edge 12, Type (0, 1), BuildingBlock: UVAHIK_clean_linker_0, # of connection points: 2
#     Edge 13, Type (0, 1), BuildingBlock: UVAHIK_clean_linker_0, # of connection points: 2
#     Edge 14, Type (0, 1), BuildingBlock: UVAHIK_clean_linker_0, # of connection points: 2
#     Edge 15, Type (0, 1), BuildingBlock: UVAHIK_clean_linker_0, # of connection points: 2
#     Edge 16, Type (0, 1), BuildingBlock: UVAHIK_clean_linker_0, # of connection points: 2
#     Edge 17, Type (0, 1), BuildingBlock: UVAHIK_clean_linker_0, # of connection points: 2
#     Edge 18, Type (0, 1), BuildingBlock: UVAHIK_clean_linker_0, # of connection points: 2
#     Edge 19, Type (0, 1), BuildingBlock: UVAHIK_clean_linker_0, # of connection points: 2
#     Edge 20, Type (0, 1), BuildingBlock: UVAHIK_clean_linker_0, # of connection points: 2
#     Edge 21, Type (0, 1), BuildingBlock: UVAHIK_clean_linker_0, # of connection points: 2
#     Edge 22, Type (0, 1), BuildingBlock: UVAHIK_clean_linker_0, # of connection points: 2
#     Edge 23, Type (0, 1), BuildingBlock: UVAHIK_clean_linker_0, # of connection points: 2
#     Edge 24, Type (0, 1), BuildingBlock: UVAHIK_clean_linker_0, # of connection points: 2
#     Edge 25, Type (0, 1), BuildingBlock: UVAHIK_clean_linker_0, # of connection points: 2
#     Edge 26, Type (0, 1), BuildingBlock: UVAHIK_clean_linker_0, # of connection points: 2
# Relax obj value: 0.161
# Max RMSD: 0.200
# Mean RMSD: 0.151
data_MOF--net-anh--node1-GEDQOX_clean_sbu_0--node2-KAKCAD_clean_linker_0--edge1-UVAHIK_clean_linker_0
_symmetry_space_group_name_H-M    P1
_symmetry_Int_Tables_number       1
_symmetry_cell_setting            triclinic
loop_
_symmetry_equiv_pos_as_xyz
'x, y, z'
_cell_length_a     45.556655
_cell_length_b     44.4984
_cell_length_c     82.734967
_cell_angle_alpha  93.287236
_cell_angle_beta   91.379333
_cell_angle_gamma 107.85399
loop_
_atom_site_label
_atom_site_type_symbol
_atom_site_fract_x
_atom_site_fract_y
_atom_site_fract_z
_atom_type_partial_charge
Nd0 Nd 0.07742 0.52547 0.15774 0.0
Nd1 Nd 0.05586 0.45571 0.16147 0.0
C2 C 0.10654 0.58317 0.14943 0.0
C3 C 0.13793 0.60607 0.15212 0.0
C4 C 0.15904 0.61058 0.1397 0.0
C5 C 0.1886 0.63239 0.14209 0.0
C6 C 0.19764 0.65046 0.15692 0.0
C7 C 0.17644 0.64582 0.16934 0.0
C8 C 0.14701 0.6239 0.16699 0.0
C9 C 0.06679 0.50985 0.18895 0.0
C10 C 0.12968 0.48629 0.15994 0.0
C11 C 1.02554 0.39781 0.16884 0.0
C12 C 0.99292 0.37768 0.16672 0.0
C13 C 0.97067 0.38126 0.17751 0.0
C14 C 0.94 0.36201 0.1754 0.0
C15 C 0.93088 0.33872 0.16247 0.0
C16 C 0.95301 0.33564 0.15148 0.0
C17 C 0.98369 0.35478 0.15363 0.0
C18 C 0.06424 0.47263 0.1305 0.0
C19 C 1.0034 0.49372 0.15616 0.0
O20 O 0.10392 0.55769 0.14004 0.0
O21 O 0.08924 0.57743 0.162 0.0
O22 O 0.06011 0.53315 0.18273 0.0
O23 O 0.08035 0.49644 0.1791 0.0
O24 O 0.12318 0.51222 0.15622 0.0
O25 O 0.10778 0.46131 0.16441 0.0
O26 O 1.03188 0.42235 0.17936 0.0
O27 O 1.04065 0.404 0.15558 0.0
O28 O 0.07293 0.44978 0.13586 0.0
O29 O 0.05123 0.48471 0.141 0.0
O30 O 1.00978 0.4692 0.16213 0.0
O31 O 1.02595 0.51754 0.15116 0.0
H32 H 0.15269 0.59726 0.12809 0.0
H33 H 0.20437 0.63499 0.13231 0.0
H34 H 0.18224 0.65967 0.18081 0.0
H35 H 0.13132 0.62121 0.17681 0.0
H36 H 0.97695 0.39868 0.18772 0.0
H37 H 0.92367 0.3647 0.18423 0.0
H38 H 0.94669 0.31821 0.14128 0.0
H39 H 1.00023 0.35152 0.14505 0.0
Nd40 Nd 0.51207 0.0058 0.5056 0.0
Nd41 Nd 0.58024 0.02755 0.5042 0.0
C42 C 0.45476 0.97396 0.5118 0.0
C43 C 0.43603 0.9402 0.51034 0.0
C44 C 0.42744 0.92388 0.52437 0.0
C45 C 0.40889 0.89228 0.52321 0.0
C46 C 0.39873 0.8764 0.50798 0.0
C47 C 0.40805 0.89235 0.49392 0.0
C48 C 0.42643 0.924 0.49508 0.0
C49 C 0.5328 0.01702 0.47502 0.0
C50 C 0.5501 0.95309 0.50291 0.0
C51 C 0.63799 0.05856 0.4984 0.0
C52 C 0.65743 0.09213 0.49967 0.0
C53 C 0.66117 0.11007 0.48601 0.0
C54 C 0.68028 0.14141 0.48696 0.0
C55 C 0.6963 0.15545 0.50157 0.0
C56 C 0.69208 0.13778 0.51534 0.0
C57 C 0.67284 0.10644 0.51441 0.0
C58 C 0.55963 0.01543 0.53457 0.0
C59 C 0.54176 0.08021 0.50736 0.0
O60 O 0.47727 0.98213 0.52287 0.0
O61 O 0.46237 0.98789 0.49834 0.0
O62 O 0.509 0.02388 0.48041 0.0
O63 O 0.54368 0.00282 0.48521 0.0
O64 O 0.52544 0.96016 0.50771 0.0
O65 O 0.57443 0.97517 0.49827 0.0
O66 O 0.61576 0.05033 0.48715 0.0
O67 O 0.62975 0.04523 0.51195 0.0
O68 O 0.58222 0.00692 0.52869 0.0
O69 O 0.54887 0.03042 0.52469 0.0
O70 O 0.56724 0.07392 0.50325 0.0
O71 O 0.51691 0.05772 0.51101 0.0
H72 H 0.4347 0.93571 0.53627 0.0
H73 H 0.40208 0.88035 0.5342 0.0
H74 H 0.40015 0.8807 0.48205 0.0
H75 H 0.43268 0.93582 0.484 0.0
H76 H 0.64974 0.09973 0.47446 0.0
H77 H 0.68342 0.15427 0.47608 0.0
H78 H 0.70396 0.14809 0.52679 0.0
H79 H 0.67042 0.09334 0.52519 0.0
Nd80 Nd 0.53312 0.4998 0.82694 0.0
Nd81 Nd 0.60059 0.52976 0.82957 0.0
C82 C 0.47834 0.48171 0.81259 0.0
C83 C 0.45864 0.50163 0.81064 0.0
C84 C 0.451 0.50821 0.795 0.0
C85 C 0.43833 0.53256 0.79287 0.0
C86 C 0.43287 0.55037 0.80639 0.0
C87 C 0.44046 0.54349 0.82202 0.0
C88 C 0.45335 0.51951 0.82412 0.0
C89 C 0.54757 0.50858 0.8598 0.0
C90 C 0.5614 0.57735 0.83292 0.0
C91 C 0.65953 0.54045 0.83332 0.0
C92 C 0.67386 0.51531 0.83107 0.0
C93 C 0.66636 0.48946 0.84091 0.0
C94 C 0.67995 0.46559 0.8386 0.0
C95 C 0.70137 0.46754 0.82654 0.0
C96 C 0.70529 0.49081 0.81528 0.0
C97 C 0.69199 0.51484 0.81769 0.0
C98 C 0.57568 0.528 0.79914 0.0
C99 C 0.57192 0.45136 0.82791 0.0
O100 O 0.5036 0.49087 0.80464 0.0
O101 O 0.48307 0.47464 0.82738 0.0
O102 O 0.51988 0.49554 0.85357 0.0
O103 O 0.56682 0.51627 0.84884 0.0
O104 O 0.53826 0.55314 0.82669 0.0
O105 O 0.58764 0.57347 0.83783 0.0
O106 O 0.64213 0.53904 0.84581 0.0
O107 O 0.64723 0.54686 0.82006 0.0
O108 O 0.59473 0.55321 0.80647 0.0
O109 O 0.56931 0.50505 0.80825 0.0
O110 O 0.59676 0.47642 0.82865 0.0
O111 O 0.54408 0.4539 0.82695 0.0
H112 H 0.4559 0.49527 0.78444 0.0
H113 H 0.43259 0.5373 0.7807 0.0
H114 H 0.43568 0.556 0.83276 0.0
H115 H 0.45983 0.51558 0.83633 0.0
H116 H 0.65093 0.48818 0.85078 0.0
H117 H 0.67641 0.44762 0.84728 0.0
H118 H 0.72164 0.49276 0.8058 0.0
H119 H 0.69679 0.53365 0.80944 0.0
C120 C 0.56265 0.05662 0.29439 0.0
C121 C 0.55836 0.02847 0.30227 0.0
C122 C 0.56244 0.05625 0.27744 0.0
C123 C 0.55781 0.02772 0.26803 0.0
C124 C 0.55433 -0.00021 0.27594 0.0
C125 C 0.55464 0.00016 0.29282 0.0
C126 C 0.55573 0.02661 0.25003 0.0
C127 C 0.5768 0.04935 0.24143 0.0
C128 C 0.5754 0.04745 0.22435 0.0
C129 C 0.55238 0.0224 0.21593 0.0
C130 C 0.53136 -0.00067 0.22438 0.0
C131 C 0.53298 0.00197 0.24139 0.0
C132 C 0.50824 0.97169 0.21568 0.0
C133 C 0.49074 0.97519 0.20208 0.0
C134 C 0.50288 0.94144 0.22142 0.0
C135 C 0.47968 0.91558 0.21425 0.0
C136 C 0.46122 0.9192 0.20112 0.0
C137 C 0.5989 0.07076 0.21538 0.0
C138 C 0.6098 0.10282 0.22102 0.0
C139 C 0.61145 0.06093 0.20142 0.0
C140 C 0.63473 0.08245 0.19352 0.0
C141 C 0.64628 0.11432 0.19944 0.0
C142 C 0.63327 0.1243 0.21319 0.0
C143 C 0.46741 0.94912 0.19484 0.0
H144 H 0.56533 0.07879 0.30128 0.0
H145 H 0.56501 0.07812 0.27169 0.0
H146 H 0.55139 0.97753 0.26905 0.0
H147 H 0.55203 0.97818 0.29846 0.0
H148 H 0.59504 0.0678 0.24807 0.0
H149 H 0.51624 0.98474 0.24798 0.0
H150 H 0.55112 0.02051 0.2028 0.0
H151 H 0.49435 -0.00179 0.19739 0.0
H152 H 0.51651 0.93777 0.23159 0.0
H153 H 0.47603 0.89267 0.2191 0.0
H154 H 0.60039 0.11133 0.2316 0.0
H155 H 0.60392 0.03638 0.19681 0.0
H156 H 0.45354 0.95261 0.18473 0.0
H157 H 0.64178 0.14855 0.21823 0.0
H158 H 0.64388 0.07399 0.18284 0.0
C159 C 0.52197 0.5324 0.61665 0.0
C160 C 0.54389 0.52187 0.62485 0.0
C161 C 0.52114 0.53228 0.59971 0.0
C162 C 0.54202 0.52125 0.59069 0.0
C163 C 0.56397 0.51076 0.599 0.0
C164 C 0.56498 0.51122 0.61593 0.0
C165 C 0.54071 0.52018 0.57266 0.0
C166 C 0.53788 0.54596 0.56448 0.0
C167 C 0.53667 0.54514 0.54739 0.0
C168 C 0.53888 0.51789 0.53852 0.0
C169 C 0.5423 0.49202 0.54658 0.0
C170 C 0.54269 0.49335 0.56361 0.0
C171 C 0.54578 0.4634 0.53757 0.0
C172 C 0.52722 0.44927 0.52365 0.0
C173 C 0.56668 0.44879 0.54362 0.0
C174 C 0.56776 0.41993 0.53663 0.0
C175 C 0.54834 0.40492 0.52314 0.0
C176 C 0.5339 0.57323 0.5391 0.0
C177 C 0.51657 0.59169 0.54589 0.0
C178 C 0.54968 0.58293 0.52494 0.0
C179 C 0.54907 0.61095 0.51817 0.0
C180 C 0.53294 0.63019 0.52548 0.0
C181 C 0.5164 0.61983 0.53932 0.0
C182 C 0.52847 0.4203 0.51652 0.0
H183 H 0.50554 0.54076 0.62337 0.0
H184 H 0.50385 0.54029 0.59364 0.0
H185 H 0.58055 0.50244 0.59242 0.0
H186 H 0.58212 0.50309 0.62207 0.0
H187 H 0.53754 0.56711 0.57155 0.0
H188 H 0.54411 0.47312 0.56992 0.0
H189 H 0.53817 0.51684 0.52541 0.0
H190 H 0.51089 0.45993 0.51866 0.0
H191 H 0.58179 0.45929 0.55412 0.0
H192 H 0.58307 0.40884 0.5423 0.0
H193 H 0.50344 0.58473 0.55653 0.0
H194 H 0.56337 0.56949 0.51935 0.0
H195 H 0.5135 0.40972 0.506 0.0
H196 H 0.50402 0.63394 0.54554 0.0
H197 H 0.56164 0.61771 0.50734 0.0
C198 C 0.10588 0.55576 0.95728 0.0
C199 C 0.07936 0.53872 0.96489 0.0
C200 C 0.10525 0.5568 0.94049 0.0
C201 C 0.07792 0.54135 0.93134 0.0
C202 C 0.05117 0.52517 0.93901 0.0
C203 C 0.05197 0.52361 0.95573 0.0
C204 C 0.07763 0.54088 0.9137 0.0
C205 C 0.09621 0.52611 0.90521 0.0
C206 C 0.09612 0.52548 0.88828 0.0
C207 C 0.07774 0.54022 0.88005 0.0
C208 C 0.05911 0.55492 0.88846 0.0
C209 C 0.05868 0.55483 0.90534 0.0
C210 C 1.0382 0.56738 0.87913 0.0
C211 C 0.04915 0.58614 0.8661 0.0
C212 C 1.00643 0.55524 0.88114 0.0
C213 C 0.98583 0.55948 0.86952 0.0
C214 C 0.9968 0.57591 0.85581 0.0
C215 C 0.11807 0.51369 0.8791 0.0
C216 C 0.14917 0.52349 0.8845 0.0
C217 C 0.10976 0.4994 0.86332 0.0
C218 C 0.13254 0.49994 0.8523 0.0
C219 C 0.16351 0.51376 0.85728 0.0
C220 C 0.1718 0.52343 0.8736 0.0
C221 C 1.02845 0.59011 0.85434 0.0
H222 H 0.12719 0.56737 0.96426 0.0
H223 H 0.12605 0.56937 0.93463 0.0
H224 H 1.03001 0.51303 0.93201 0.0
H225 H 1.03134 0.51037 0.96153 0.0
H226 H 0.11068 0.51519 0.91179 0.0
H227 H 0.04398 0.56586 0.91195 0.0
H228 H 0.07802 0.54053 0.86695 0.0
H229 H 0.0737 0.59574 0.86443 0.0
H230 H 0.99755 0.54018 0.89089 0.0
H231 H 0.96135 0.54783 0.87058 0.0
H232 H 0.15631 0.53462 0.89655 0.0
H233 H 0.08578 0.49091 0.85905 0.0
H234 H 1.0371 0.60261 0.84373 0.0
H235 H 0.19583 0.53414 0.87751 0.0
H236 H 0.12599 0.49229 0.8397 0.0
C237 C 1.01737 0.49228 0.36861 0.0
C238 C 0.04484 0.49381 0.36084 0.0
C239 C 1.01701 0.49453 0.3855 0.0
C240 C 0.04415 0.49857 0.39495 0.0
C241 C 0.0716 0.50004 0.38718 0.0
C242 C 0.07192 0.49757 0.37029 0.0
C243 C 0.04391 0.50172 0.41286 0.0
C244 C 1.02031 0.48126 0.42115 0.0
C245 C 1.01943 0.48456 0.43813 0.0
C246 C 1.04311 0.50847 0.44683 0.0
C247 C 0.06729 0.52874 0.43869 0.0
C248 C 0.06721 0.52539 0.4217 0.0
C249 C 0.09289 0.55351 0.44769 0.0
C250 C 0.08726 0.57234 0.46078 0.0
C251 C 0.12327 0.55932 0.44267 0.0
C252 C 0.14721 0.58426 0.45 0.0
C253 C 0.14144 0.60367 0.46267 0.0
C254 C 0.9937 0.46295 0.44661 0.0
C255 C 0.9637 0.45264 0.43942 0.0
C256 C 0.99884 0.45191 0.46169 0.0
C257 C 0.9746 0.43092 0.46931 0.0
C258 C 0.94472 0.42027 0.46195 0.0
C259 C 0.93967 0.43138 0.44689 0.0
C260 C 0.11144 0.59719 0.46828 0.0
H261 H 0.99612 0.48919 0.36162 0.0
H262 H 0.99559 0.49361 0.39117 0.0
H263 H 0.09281 0.50295 0.39418 0.0
H264 H 0.09348 0.49916 0.36463 0.0
H265 H 1.00292 0.4623 0.4143 0.0
H266 H 0.08506 0.5417 0.41526 0.0
H267 H 1.04282 0.51128 0.4599 0.0
H268 H 0.06407 0.56858 0.46486 0.0
H269 H 0.12854 0.54477 0.43291 0.0
H270 H 0.1703 0.58858 0.44566 0.0
H271 H 0.95865 0.46099 0.42796 0.0
H272 H 1.02169 0.45902 0.46751 0.0
H273 H 0.10656 0.612 0.47805 0.0
H274 H 0.91717 0.4233 0.44067 0.0
H275 H 0.9793 0.42312 0.48098 0.0
C276 C 0.52889 0.97726 0.71521 0.0
C277 C 0.54757 0.00291 0.70726 0.0
C278 C 0.53025 0.97747 0.73212 0.0
C279 C 0.55042 0.0033 0.74144 0.0
C280 C 0.5695 0.02867 0.73345 0.0
C281 C 0.56801 0.02853 0.71657 0.0
C282 C 0.55123 0.00417 0.75945 0.0
C283 C 0.54961 0.97702 0.7676 0.0
C284 C 0.55012 0.97766 0.78467 0.0
C285 C 0.55368 0.00668 0.79361 0.0
C286 C 0.55621 0.03435 0.78553 0.0
C287 C 0.55397 0.03245 0.76852 0.0
C288 C 0.56207 0.06588 0.79433 0.0
C289 C 0.54519 0.07042 0.80775 0.0
C290 C 0.58324 0.09241 0.78821 0.0
C291 C 0.5861 0.12282 0.79458 0.0
C292 C 0.56841 0.12778 0.80757 0.0
C293 C 0.54763 0.94785 0.79274 0.0
C294 C 0.5287 0.91872 0.78556 0.0
C295 C 0.56539 0.9477 0.80687 0.0
C296 C 0.56525 0.91902 0.81317 0.0
C297 C 0.54753 0.88982 0.8054 0.0
C298 C 0.52898 0.89024 0.79163 0.0
C299 C 0.54833 0.10113 0.81432 0.0
H300 H 0.51271 0.95731 0.70837 0.0
H301 H 0.51501 0.95772 0.73789 0.0
H302 H 0.58577 0.04864 0.74023 0.0
H303 H 0.58312 0.04837 0.71079 0.0
H304 H 0.5487 0.95543 0.76057 0.0
H305 H 0.55429 0.0533 0.76227 0.0
H306 H 0.55476 0.00785 0.80673 0.0
H307 H 0.52872 0.05042 0.81273 0.0
H308 H 0.59701 0.08973 0.77805 0.0
H309 H 0.6014 0.14249 0.78879 0.0
H310 H 0.51407 0.91779 0.77491 0.0
H311 H 0.58026 0.96962 0.81276 0.0
H312 H 0.53467 0.10399 0.82448 0.0
H313 H 0.51531 0.86851 0.78507 0.0
H314 H 0.57938 0.91979 0.82398 0.0
C315 C 0.57958 0.47567 0.04191 0.0
C316 C 0.56583 0.49569 0.03418 0.0
C317 C 0.57867 0.47346 0.05876 0.0
C318 C 0.56399 0.4912 0.0684 0.0
C319 C 0.5501 0.51108 0.06065 0.0
C320 C 0.55099 0.51327 0.04382 0.0
C321 C 0.56349 0.48937 0.08645 0.0
C322 C 0.58944 0.48749 0.09531 0.0
C323 C 0.58975 0.48591 0.11228 0.0
C324 C 0.56309 0.48733 0.12062 0.0
C325 C 0.53647 0.48958 0.1119 0.0
C326 C 0.53722 0.48989 0.09485 0.0
C327 C 0.5073 0.49163 0.11977 0.0
C328 C 0.49344 0.47235 0.1322 0.0
C329 C 0.49109 0.51108 0.11341 0.0
C330 C 0.46144 0.50966 0.1183 0.0
C331 C 0.44675 0.4892 0.13002 0.0
C332 C 0.61868 0.48276 0.1204 0.0
C333 C 0.63247 0.46098 0.11348 0.0
C334 C 0.63531 0.50401 0.13315 0.0
C335 C 0.66559 0.50471 0.13801 0.0
C336 C 0.68011 0.48427 0.13021 0.0
C337 C 0.66246 0.46172 0.11826 0.0
C338 C 0.46363 0.47127 0.13731 0.0
H339 H 0.59147 0.46195 0.03498 0.0
H340 H 0.58934 0.45761 0.06421 0.0
H341 H 0.53885 0.52539 0.06762 0.0
H342 H 0.53977 0.52863 0.03834 0.0
H343 H 0.61003 0.48786 0.08892 0.0
H344 H 0.5168 0.49003 0.08791 0.0
H345 H 0.56308 0.48666 0.13369 0.0
H346 H 0.50496 0.45703 0.13747 0.0
H347 H 0.50106 0.52705 0.1042 0.0
H348 H 0.44979 0.52453 0.11269 0.0
H349 H 0.62038 0.44395 0.10379 0.0
H350 H 0.62564 0.52125 0.13873 0.0
H351 H 0.45328 0.45535 0.14648 0.0
H352 H 0.67208 0.44484 0.11225 0.0
H353 H 0.67815 0.52235 0.14733 0.0
C354 C 0.16805 0.45677 0.15335 0.0
C355 C 0.16217 0.48513 0.15828 0.0
C356 C 0.19837 0.45618 0.15067 0.0
C357 C 0.28181 0.50101 0.16052 0.0
H358 H 0.2968 0.45098 0.12359 0.0
C359 C 0.40396 0.48601 0.14999 0.0
C360 C 0.4137 0.48623 0.13394 0.0
C361 C 0.37338 0.48497 0.15337 0.0
C362 C 0.29325 0.46525 0.13396 0.0
H363 H 0.18411 0.53511 0.16442 0.0
H364 H 0.23682 0.53396 0.16032 0.0
H365 H 0.24436 0.45153 0.12854 0.0
H366 H 0.3979 0.48431 0.10888 0.0
H367 H 0.34522 0.48241 0.11466 0.0
H368 H 0.33074 0.51502 0.16583 0.0
C369 C 0.21801 0.51207 0.15838 0.0
C370 C 0.26288 0.46529 0.13691 0.0
C371 C 0.18764 0.51278 0.16069 0.0
C372 C 0.39159 0.48456 0.12141 0.0
C373 C 0.36105 0.48315 0.12475 0.0
C374 C 0.31216 0.50075 0.15765 0.0
C375 C 0.22398 0.48382 0.15317 0.0
C376 C 0.25656 0.4833 0.1502 0.0
C377 C 0.35132 0.4836 0.14079 0.0
C378 C 0.31855 0.48302 0.14425 0.0
H379 H 0.14908 0.43507 0.15114 0.0
H380 H 0.20175 0.43389 0.14675 0.0
H381 H 0.27811 0.51499 0.17097 0.0
H382 H 0.42018 0.48736 0.16 0.0
H383 H 0.36699 0.48502 0.16588 0.0
C384 C 0.7488 0.19297 0.50917 0.0
C385 C 0.71921 0.18743 0.50197 0.0
C386 C 0.77196 0.22149 0.50748 0.0
C387 C 0.7926 0.2851 0.47932 0.0
H388 H 0.85985 0.32384 0.51092 0.0
C389 C 0.88868 0.39909 0.46807 0.0
C390 C 0.91888 0.39721 0.46966 0.0
C391 C 0.86389 0.37588 0.47391 0.0
C392 C 0.8412 0.31316 0.502 0.0
H393 H 0.68992 0.20834 0.4885 0.0
H394 H 0.73016 0.25844 0.4858 0.0
H395 H 0.81593 0.2799 0.51828 0.0
H396 H 0.94666 0.36989 0.47928 0.0
H397 H 0.90324 0.32982 0.48992 0.0
H398 H 0.81782 0.31839 0.46309 0.0
C399 C 0.73578 0.24037 0.49233 0.0
C400 C 0.8161 0.28801 0.50618 0.0
C401 C 0.71269 0.21175 0.49391 0.0
C402 C 0.92381 0.37232 0.47797 0.0
C403 C 0.89897 0.3493 0.48403 0.0
C404 C 0.81745 0.3104 0.47524 0.0
C405 C 0.76597 0.24519 0.49863 0.0
C406 C 0.7916 0.27351 0.49482 0.0
C407 C 0.86874 0.35054 0.48172 0.0
C408 C 0.84205 0.32451 0.48648 0.0
H409 H 0.75458 0.17459 0.51534 0.0
H410 H 0.79495 0.22421 0.51237 0.0
H411 H 0.77463 0.27405 0.47011 0.0
H412 H 0.88406 0.41833 0.46215 0.0
H413 H 0.84081 0.37757 0.47219 0.0
C414 C 0.53404 0.61537 0.82439 0.0
C415 C 0.55927 0.60994 0.83247 0.0
C416 C 0.5336 0.64624 0.82238 0.0
C417 C 0.56941 0.73005 0.83779 0.0
H418 H 0.53725 0.74714 0.79667 0.0
C419 C 0.5771 0.856 0.8174 0.0
C420 C 0.54925 0.85895 0.81096 0.0
C421 C 0.57932 0.82634 0.821 0.0
C422 C 0.54615 0.74265 0.80825 0.0
H423 H 0.60347 0.63287 0.84513 0.0
H424 H 0.60269 0.68661 0.8416 0.0
H425 H 0.53929 0.69402 0.80094 0.0
H426 H 0.50134 0.83275 0.80437 0.0
H427 H 0.50578 0.78126 0.80994 0.0
H428 H 0.57668 0.77908 0.8449 0.0
C429 C 0.58315 0.66702 0.83689 0.0
C430 C 0.54718 0.71219 0.81074 0.0
C431 C 0.58362 0.63614 0.83888 0.0
C432 C 0.52347 0.83154 0.8088 0.0
C433 C 0.5259 0.80194 0.81208 0.0
C434 C 0.56864 0.76066 0.83523 0.0
C435 C 0.55833 0.67249 0.82842 0.0
C436 C 0.55839 0.70533 0.82563 0.0
C437 C 0.55392 0.79895 0.81798 0.0
C438 C 0.55655 0.76711 0.82051 0.0
H439 H 0.51489 0.59581 0.81925 0.0
H440 H 0.51385 0.6495 0.81603 0.0
H441 H 0.57798 0.72561 0.84945 0.0
H442 H 0.59758 0.87635 0.81911 0.0
H443 H 0.60122 0.82467 0.82555 0.0
C444 C 0.94613 0.47088 0.16115 0.0
C445 C 0.97039 0.49369 0.15424 0.0
C446 C 0.91524 0.47081 0.15916 0.0
C447 C 0.86367 0.50245 0.13313 0.0
H448 H 0.80558 0.47464 0.16673 0.0
C449 C 0.73239 0.48237 0.12102 0.0
C450 C 0.71372 0.48698 0.1337 0.0
C451 C 0.76339 0.48399 0.12395 0.0
C452 C 0.82139 0.48284 0.15722 0.0
H453 H 0.9805 0.53435 0.13971 0.0
H454 H 0.92727 0.53443 0.13635 0.0
H455 H 0.85919 0.47638 0.1711 0.0
H456 H 0.71422 0.49749 0.15962 0.0
H457 H 0.76839 0.50104 0.16472 0.0
H458 H 0.82637 0.50995 0.11943 0.0
C459 C 0.93182 0.51624 0.14322 0.0
C460 C 0.85234 0.48339 0.15965 0.0
C461 C 0.96266 0.5164 0.14527 0.0
C462 C 0.7276 0.49386 0.14947 0.0
C463 C 0.7588 0.49552 0.15242 0.0
C464 C 0.83284 0.50207 0.13073 0.0
C465 C 0.9074 0.49342 0.15008 0.0
C466 C 0.87413 0.49308 0.14762 0.0
C467 C 0.77737 0.49057 0.1397 0.0
C468 C 0.8109 0.49202 0.14265 0.0
H469 H 0.95096 0.45296 0.16814 0.0
H470 H 0.89743 0.45252 0.16452 0.0
H471 H 0.8792 0.50974 0.12339 0.0
H472 H 0.72309 0.47761 0.10865 0.0
H473 H 0.77621 0.47952 0.11373 0.0
C474 C 0.38047 0.82021 0.49633 0.0
C475 C 0.37606 0.84437 0.50669 0.0
C476 C 0.35724 0.79114 0.49381 0.0
C477 C 0.27846 0.74534 0.50755 0.0
H478 H 0.2716 0.70553 0.4642 0.0
C479 C 0.17586 0.63479 0.48586 0.0
C480 C 0.16679 0.63133 0.46937 0.0
C481 C 0.20213 0.65927 0.49164 0.0
C482 C 0.27276 0.71661 0.47629 0.0
H483 H 0.3445 0.85709 0.52285 0.0
H484 H 0.30341 0.80758 0.51783 0.0
H485 H 0.31615 0.74998 0.47219 0.0
H486 H 0.17637 0.65147 0.44616 0.0
H487 H 0.22087 0.6951 0.45624 0.0
H488 H 0.23361 0.71354 0.51106 0.0
C489 C 0.32499 0.81002 0.51206 0.0
C490 C 0.29894 0.74183 0.48107 0.0
C491 C 0.34852 0.83868 0.51489 0.0
C492 C 0.1833 0.65349 0.45891 0.0
C493 C 0.20904 0.67826 0.46469 0.0
C494 C 0.2518 0.72067 0.50259 0.0
C495 C 0.32868 0.78597 0.50121 0.0
C496 C 0.30208 0.75695 0.49672 0.0
C497 C 0.21942 0.68104 0.48104 0.0
C498 C 0.24836 0.70627 0.48678 0.0
H499 H 0.40172 0.824 0.49 0.0
H500 H 0.3616 0.77305 0.48579 0.0
H501 H 0.28017 0.75555 0.51986 0.0
H502 H 0.16339 0.61784 0.49412 0.0
H503 H 0.20935 0.66042 0.50427 0.0
C504 C 0.60023 0.41186 0.8218 0.0
C505 C 0.57464 0.41916 0.82801 0.0
C506 C 0.60077 0.38047 0.82078 0.0
C507 C 0.56345 0.30178 0.83672 0.0
H508 H 0.59264 0.2697 0.79778 0.0
C509 C 0.5433 0.16825 0.81765 0.0
C510 C 0.56999 0.16076 0.81315 0.0
C511 C 0.54425 0.19984 0.82074 0.0
C512 C 0.58459 0.27846 0.80876 0.0
H513 H 0.53028 0.39981 0.83864 0.0
H514 H 0.53118 0.34553 0.83685 0.0
H515 H 0.59462 0.32526 0.80069 0.0
H516 H 0.61912 0.18084 0.80965 0.0
H517 H 0.62025 0.23565 0.81433 0.0
H518 H 0.55265 0.25458 0.84452 0.0
C519 C 0.55085 0.36371 0.83276 0.0
C520 C 0.58591 0.31028 0.81048 0.0
C521 C 0.55021 0.39484 0.83366 0.0
C522 C 0.59786 0.1856 0.81257 0.0
C523 C 0.59863 0.21705 0.81532 0.0
C524 C 0.5618 0.26987 0.8349 0.0
C525 C 0.57592 0.356 0.82615 0.0
C526 C 0.57546 0.32238 0.82451 0.0
C527 C 0.57177 0.22449 0.81915 0.0
C528 C 0.57253 0.258 0.82095 0.0
H529 H 0.6193 0.43016 0.8173 0.0
H530 H 0.6206 0.37536 0.81576 0.0
H531 H 0.55554 0.31037 0.84777 0.0
H532 H 0.52136 0.1499 0.8181 0.0
H533 H 0.52322 0.20507 0.82371 0.0
C534 C 0.52631 0.89811 0.51118 0.0
C535 C 0.55017 0.91985 0.50352 0.0
C536 C 0.52616 0.86694 0.51233 0.0
C537 C 0.55705 0.8052 0.49472 0.0
H538 H 0.53017 0.76646 0.53484 0.0
C539 C 0.56177 0.68099 0.51298 0.0
C540 C 0.53455 0.66172 0.51943 0.0
C541 C 0.56448 0.71207 0.50929 0.0
C542 C 0.53754 0.77691 0.52353 0.0
H543 H 0.59249 0.9256 0.49088 0.0
H544 H 0.59222 0.87074 0.49292 0.0
H545 H 0.53503 0.82203 0.53242 0.0
H546 H 0.4879 0.65968 0.52562 0.0
H547 H 0.49332 0.7141 0.51994 0.0
H548 H 0.55996 0.75974 0.48604 0.0
C549 C 0.57356 0.87801 0.49797 0.0
C550 C 0.54027 0.80873 0.52211 0.0
C551 C 0.5738 0.90946 0.49688 0.0
C552 C 0.50962 0.67393 0.52124 0.0
C553 C 0.51257 0.70509 0.51787 0.0
C554 C 0.55461 0.77328 0.49622 0.0
C555 C 0.54984 0.85646 0.50587 0.0
C556 C 0.54948 0.82319 0.50759 0.0
C557 C 0.54025 0.72469 0.51222 0.0
C558 C 0.5443 0.75874 0.51056 0.0
H559 H 0.5077 0.90516 0.51646 0.0
H560 H 0.50723 0.85093 0.51824 0.0
H561 H 0.56401 0.81552 0.48334 0.0
H562 H 0.58159 0.67271 0.51148 0.0
H563 H 0.58607 0.72673 0.50494 0.0
C564 C 0.74082 0.44419 0.81643 0.0
C565 C 0.72772 0.45604 0.82953 0.0
C566 C 0.77279 0.45091 0.81627 0.0
C567 C 0.83037 0.51754 0.8216 0.0
H568 H 0.89551 0.48272 0.83327 0.0
C569 C 0.95205 0.58761 0.84379 0.0
C570 C 0.97487 0.57274 0.8422 0.0
C571 C 0.92314 0.57369 0.8361 0.0
C572 C 0.87758 0.49244 0.82947 0.0
H573 H 0.73658 0.47902 0.85382 0.0
H574 H 0.79207 0.49082 0.85338 0.0
H575 H 0.84166 0.45043 0.83468 0.0
H576 H 0.98779 0.53491 0.82971 0.0
H577 H 0.93733 0.51076 0.81599 0.0
H578 H 0.866 0.56006 0.81708 0.0
C579 C 0.7779 0.47648 0.84333 0.0
C580 C 0.84694 0.47404 0.83047 0.0
C581 C 0.74607 0.46933 0.84361 0.0
C582 C 0.97037 0.54681 0.83093 0.0
C583 C 0.94144 0.5328 0.82327 0.0
C584 C 0.86099 0.53597 0.82058 0.0
C585 C 0.79132 0.46913 0.82924 0.0
C586 C 0.82338 0.48672 0.82675 0.0
C587 C 0.91699 0.54468 0.82692 0.0
C588 C 0.88489 0.52375 0.82475 0.0
H589 H 0.727 0.43394 0.80548 0.0
H590 H 0.78312 0.4451 0.80534 0.0
H591 H 0.81211 0.52761 0.81886 0.0
H592 H 0.95528 0.60752 0.85256 0.0
H593 H 0.90476 0.58348 0.83908 0.0
C594 C 0.24428 0.68072 0.17457 0.0
C595 C 0.22853 0.67486 0.15933 0.0
C596 C 0.27178 0.70555 0.1773 0.0
C597 C 0.31565 0.7814 0.16065 0.0
H598 H 0.37729 0.77823 0.19308 0.0
C599 C 0.42901 0.88476 0.17782 0.0
C600 C 0.43497 0.89183 0.19459 0.0
C601 C 0.40519 0.85774 0.17197 0.0
C602 C 0.36025 0.77943 0.18398 0.0
H603 H 0.23037 0.68994 0.13478 0.0
H604 H 0.27906 0.73212 0.1393 0.0
H605 H 0.33474 0.73066 0.18528 0.0
H606 H 0.41954 0.8772 0.21833 0.0
H607 H 0.37841 0.83015 0.20815 0.0
H608 H 0.34168 0.83031 0.15936 0.0
C609 C 0.26962 0.71816 0.14933 0.0
C610 C 0.33573 0.75221 0.17956 0.0
C611 C 0.24185 0.69357 0.14666 0.0
C612 C 0.41607 0.87195 0.20535 0.0
C613 C 0.39251 0.84501 0.19953 0.0
C614 C 0.34049 0.80854 0.16493 0.0
C615 C 0.28464 0.72494 0.16478 0.0
C616 C 0.31263 0.75298 0.16813 0.0
C617 C 0.38708 0.83735 0.18281 0.0
C618 C 0.36258 0.80799 0.17693 0.0
H619 H 0.23514 0.66643 0.18454 0.0
H620 H 0.28235 0.71008 0.18941 0.0
H621 H 0.29822 0.78314 0.15195 0.0
H622 H 0.44326 0.89961 0.16925 0.0
H623 H 0.40144 0.85234 0.15901 0.0
C624 C 0.51407 0.12035 0.50404 0.0
C625 C 0.54136 0.11332 0.50784 0.0
C626 C 0.51404 0.15183 0.50412 0.0
C627 C 0.55628 0.23133 0.52206 0.0
H628 H 0.51676 0.26175 0.48725 0.0
C629 C 0.57469 0.36349 0.51761 0.0
C630 C 0.54764 0.37246 0.51699 0.0
C631 C 0.57337 0.33188 0.51471 0.0
C632 C 0.52769 0.25347 0.49708 0.0
H633 H 0.58991 0.13348 0.51483 0.0
H634 H 0.58972 0.18835 0.5154 0.0
H635 H 0.51511 0.20599 0.48624 0.0
H636 H 0.49821 0.35512 0.51148 0.0
H637 H 0.49621 0.29998 0.50587 0.0
H638 H 0.569 0.27861 0.53288 0.0
C639 C 0.56839 0.16963 0.51222 0.0
C640 C 0.5267 0.22161 0.49654 0.0
C641 C 0.56855 0.13825 0.51183 0.0
C642 C 0.51956 0.34925 0.51205 0.0
C643 C 0.51834 0.31758 0.5089 0.0
C644 C 0.55737 0.26305 0.52257 0.0
C645 C 0.54117 0.17681 0.50834 0.0
C646 C 0.54121 0.21028 0.50898 0.0
C647 C 0.54507 0.30846 0.51081 0.0
C648 C 0.54334 0.27455 0.51004 0.0
H649 H 0.49285 0.10153 0.50076 0.0
H650 H 0.49269 0.15661 0.50113 0.0
H651 H 0.56711 0.2232 0.53199 0.0
H652 H 0.5969 0.38076 0.52085 0.0
H653 H 0.59445 0.32559 0.51593 0.0
C654 C 0.41893 0.59803 0.8161 0.0
C655 C 0.41441 0.57206 0.80475 0.0
C656 C 0.39411 0.60871 0.82004 0.0
C657 C 0.32964 0.57191 0.83275 0.0
H658 H 0.26635 0.59931 0.81151 0.0
C659 C 0.20439 0.50612 0.83996 0.0
C660 C 0.18686 0.52509 0.84549 0.0
C661 C 0.23273 0.52015 0.83332 0.0
C662 C 0.28395 0.59184 0.81763 0.0
H663 H 0.38283 0.54168 0.78618 0.0
H664 H 0.34048 0.56165 0.79239 0.0
H665 H 0.32 0.61923 0.80337 0.0
H666 H 0.1827 0.57236 0.84732 0.0
H667 H 0.23245 0.59701 0.83573 0.0
H668 H 0.29361 0.54259 0.84609 0.0
C669 C 0.36273 0.57311 0.79856 0.0
C670 C 0.31447 0.60356 0.81316 0.0
C671 C 0.3871 0.56166 0.795 0.0
C672 C 0.19614 0.5575 0.84293 0.0
C673 C 0.22449 0.57155 0.8364 0.0
C674 C 0.2992 0.55982 0.837 0.0
C675 C 0.36539 0.59458 0.81198 0.0
C676 C 0.33714 0.59273 0.8203 0.0
C677 C 0.24363 0.55319 0.83238 0.0
C678 C 0.27599 0.56868 0.82896 0.0
H679 H 0.44023 0.60708 0.82342 0.0
H680 H 0.39638 0.62523 0.83048 0.0
H681 H 0.34684 0.5628 0.83814 0.0
H682 H 0.19735 0.48109 0.84193 0.0
H683 H 0.24699 0.50552 0.82987 0.0
C684 C 0.87343 0.32612 0.16499 0.0
C685 C 0.89908 0.31609 0.16127 0.0
C686 C 0.84418 0.30402 0.16592 0.0
C687 C 0.81088 0.22205 0.17575 0.0
H688 H 0.73266 0.23145 0.1615 0.0
C689 C 0.69735 0.12645 0.18629 0.0
C690 C 0.67284 0.13667 0.19185 0.0
C691 C 0.72333 0.14777 0.18023 0.0
C692 C 0.75432 0.22864 0.16566 0.0
H693 H 0.9137 0.27508 0.15478 0.0
H694 H 0.86277 0.2368 0.15614 0.0
H695 H 0.78101 0.27027 0.15461 0.0
H696 H 0.65601 0.17723 0.19469 0.0
H697 H 0.7019 0.21468 0.18466 0.0
H698 H 0.78469 0.18124 0.18722 0.0
C699 C 0.86534 0.26169 0.15854 0.0
C700 C 0.78196 0.25081 0.16167 0.0
C701 C 0.89449 0.2837 0.15761 0.0
C702 C 0.67465 0.16863 0.19076 0.0
C703 C 0.7008 0.19004 0.18479 0.0
C704 C 0.78341 0.20011 0.17981 0.0
C705 C 0.84009 0.2715 0.1632 0.0
C706 C 0.81051 0.24768 0.16669 0.0
C707 C 0.7257 0.17995 0.17972 0.0
C708 C 0.75476 0.20307 0.17483 0.0
H709 H 0.87611 0.35097 0.16761 0.0
H710 H 0.82513 0.31228 0.16953 0.0
H711 H 0.8325 0.2194 0.18012 0.0
H712 H 0.69698 0.10214 0.18708 0.0
H713 H 0.74183 0.13905 0.17617 0.0
C714 C 0.09392 0.48668 0.10595 0.0
C715 C 0.06627 0.48167 0.11392 0.0
C716 C 0.09596 0.49702 0.09032 0.0
C717 C 0.0488 0.49133 0.05426 0.0
H718 H 0.11659 0.56071 0.0406 0.0
C719 C 0.07418 0.50483 0.98786 0.0
C720 C 0.08045 0.53516 0.98229 0.0
C721 C 0.07335 0.50084 0.00437 0.0
C722 C 0.09742 0.54149 0.04432 0.0
H723 H 1.01926 0.48332 0.11245 0.0
H724 H 1.02235 0.49999 0.08472 0.0
H725 H 0.11291 0.54985 0.06931 0.0
H726 H 0.09148 0.5852 0.98909 0.0
H727 H 0.0893 0.5782 0.01829 0.0
H728 H 1.03324 0.4827 0.02942 0.0
C729 C 1.04249 0.49653 0.09058 0.0
C730 C 0.09548 0.53518 0.06062 0.0
C731 C 1.04071 0.48699 0.10631 0.0
C732 C 0.08666 0.56164 0.99332 0.0
C733 C 0.0855 0.55763 0.0099 0.0
C734 C 0.05079 0.49751 0.038 0.0
C735 C 0.07012 0.50162 0.08251 0.0
C736 C 0.07136 0.50982 0.06561 0.0
C737 C 0.07837 0.52712 0.0155 0.0
C738 C 0.07538 0.52228 0.03287 0.0
H739 H 0.11395 0.48317 0.1119 0.0
H740 H 0.11742 0.50072 0.0842 0.0
H741 H 1.03008 0.47155 0.05789 0.0
H742 H 0.06977 0.48425 0.97941 0.0
H743 H 0.06856 0.47716 0.00842 0.0
C744 C 0.56102 0.0431 0.4517 0.0
C745 C 0.53951 0.0169 0.45779 0.0
C746 C 0.56502 0.04436 0.43499 0.0
C747 C 0.52254 0.0125 0.39624 0.0
H748 H 0.60236 0.04395 0.37734 0.0
C749 C 0.53567 0.00311 0.32735 0.0
C750 C 0.55701 0.02824 0.32024 0.0
C751 C 0.53448 0.00235 0.34417 0.0
C752 C 0.57986 0.0355 0.38244 0.0
H753 H 0.50584 0.97125 0.45166 0.0
H754 H 0.51292 0.97312 0.42244 0.0
H755 H 0.59939 0.0408 0.40669 0.0
H756 H 0.59382 0.0724 0.32537 0.0
H757 H 0.59119 0.07151 0.3548 0.0
H758 H 0.50287 0.00751 0.37215 0.0
C759 C 0.5265 0.99287 0.43044 0.0
C760 C 0.57819 0.03361 0.39925 0.0
C761 C 0.52259 0.99163 0.44712 0.0
C762 C 0.57695 0.0528 0.33042 0.0
C763 C 0.5757 0.05209 0.34731 0.0
C764 C 0.52419 0.01453 0.37949 0.0
C765 C 0.54735 0.0195 0.42415 0.0
C766 C 0.54949 0.02183 0.40632 0.0
C767 C 0.55444 0.02682 0.35439 0.0
C768 C 0.55286 0.0258 0.37233 0.0
H769 H 0.5741 0.06292 0.45981 0.0
H770 H 0.58108 0.06528 0.43053 0.0
H771 H 0.50002 0.00398 0.40132 0.0
H772 H 0.51962 0.98402 0.31991 0.0
H773 H 0.51807 0.98231 0.34915 0.0
C774 C 0.55053 0.49736 0.77307 0.0
C775 C 0.56881 0.52559 0.78139 0.0
C776 C 0.546 0.4956 0.75612 0.0
C777 C 0.58328 0.53183 0.72007 0.0
H778 H 0.50252 0.49938 0.69822 0.0
C779 C 0.56709 0.54622 0.65195 0.0
C780 C 0.54498 0.52202 0.64271 0.0
C781 C 0.56888 0.54589 0.66884 0.0
C782 C 0.52534 0.50807 0.70406 0.0
H783 H 0.59611 0.57421 0.77846 0.0
H784 H 0.58866 0.57091 0.74914 0.0
H785 H 0.50741 0.49889 0.72769 0.0
H786 H 0.50748 0.47849 0.64358 0.0
H787 H 0.51107 0.47712 0.67308 0.0
H788 H 0.60153 0.54042 0.69665 0.0
C789 C 0.57788 0.55014 0.75561 0.0
C790 C 0.52807 0.50783 0.72098 0.0
C791 C 0.58201 0.55202 0.77246 0.0
C792 C 0.52459 0.49749 0.65056 0.0
C793 C 0.52659 0.49689 0.66746 0.0
C794 C 0.58064 0.53168 0.70319 0.0
C795 C 0.56009 0.52188 0.7472 0.0
C796 C 0.55704 0.5201 0.72918 0.0
C797 C 0.54888 0.52103 0.67687 0.0
C798 C 0.5516 0.52019 0.69491 0.0
H799 H 0.54012 0.47658 0.7796 0.0
H800 H 0.5322 0.47347 0.74994 0.0
H801 H 0.606 0.54102 0.72603 0.0
H802 H 0.58296 0.56541 0.64607 0.0
H803 H 0.5859 0.56529 0.67559 0.0
C804 C 0.54386 0.03564 0.56075 0.0
C805 C 0.55117 0.01167 0.55153 0.0
C806 C 0.54022 0.03352 0.57746 0.0
C807 C 0.56156 0.99174 0.61142 0.0
H808 H 0.50823 0.029 0.63575 0.0
C809 C 0.54408 0.97574 0.67952 0.0
C810 C 0.54568 0.00309 0.68933 0.0
C811 C 0.54276 0.97608 0.66265 0.0
C812 C 0.52334 0.01863 0.6291 0.0
H813 H 0.55812 0.96578 0.55202 0.0
H814 H 0.5499 0.961 0.58084 0.0
H815 H 0.50789 0.02998 0.60627 0.0
H816 H 0.54653 0.05207 0.68912 0.0
H817 H 0.54448 0.05271 0.65962 0.0
H818 H 0.57671 0.9801 0.63423 0.0
C819 C 0.54851 0.98223 0.57554 0.0
C820 C 0.52323 0.01926 0.6122 0.0
C821 C 0.55293 0.98476 0.55899 0.0
C822 C 0.54562 0.0307 0.68188 0.0
C823 C 0.5441 0.03098 0.665 0.0
C824 C 0.56139 0.99081 0.62825 0.0
C825 C 0.54317 0.00704 0.58514 0.0
C826 C 0.54239 0.00584 0.60312 0.0
C827 C 0.54283 0.00372 0.6552 0.0
C828 C 0.54237 0.00431 0.63728 0.0
H829 H 0.54258 0.05671 0.55521 0.0
H830 H 0.53639 0.05323 0.58441 0.0
H831 H 0.57729 0.98192 0.60499 0.0
H832 H 0.54434 0.95418 0.6849 0.0
H833 H 0.54157 0.95464 0.65541 0.0
C834 C 0.56442 0.53813 0.88696 0.0
C835 C 0.55549 0.50951 0.87734 0.0
C836 C 0.56846 0.53821 0.90388 0.0
C837 C 0.58071 0.48906 0.93692 0.0
H838 H 0.54381 0.54066 0.96384 0.0
C839 C 0.56381 0.47159 0.00553 0.0
C840 C 0.56698 0.49833 0.01619 0.0
C841 C 0.56444 0.47404 0.98869 0.0
C842 C 0.55471 0.52642 0.95658 0.0
H843 H 0.54437 0.45872 0.87768 0.0
H844 H 0.55219 0.45877 0.90706 0.0
H845 H 0.54258 0.54369 0.93452 0.0
H846 H 0.57423 0.54892 0.01726 0.0
H847 H 0.57544 0.55322 0.98805 0.0
H848 H 0.5929 0.47178 0.95895 0.0
C849 C 0.55605 0.4812 0.90167 0.0
C850 C 0.55398 0.52818 0.93969 0.0
C851 C 0.55147 0.48111 0.88485 0.0
C852 C 0.57111 0.52766 0.00948 0.0
C853 C 0.5718 0.53013 0.99266 0.0
C854 C 0.58161 0.48743 0.95381 0.0
C855 C 0.56411 0.50969 0.91149 0.0
C856 C 0.56669 0.50929 0.92959 0.0
C857 C 0.56834 0.50334 0.98196 0.0
C858 C 0.56836 0.50586 0.96392 0.0
H859 H 0.56732 0.56031 0.88145 0.0
H860 H 0.57486 0.56061 0.91101 0.0
H861 H 0.59115 0.47449 0.92958 0.0
H862 H 0.56015 0.44851 0.01016 0.0
H863 H 0.56118 0.45274 0.98094 0.0
C864 C 0.07446 0.48174 0.21341 0.0
C865 C 0.06148 0.50255 0.20595 0.0
C866 C 0.07108 0.47744 0.23 0.0
C867 C 0.0582 0.52053 0.26691 0.0
H868 H 1.0411 0.44034 0.28664 0.0
C869 C 1.03068 0.50964 0.33393 0.0
C870 C 0.04538 0.49213 0.34292 0.0
C871 C 1.03189 0.50886 0.31708 0.0
C872 C 0.04617 0.46291 0.28128 0.0
H873 H 1.03308 0.53337 0.20953 0.0
H874 H 1.02693 0.52563 0.23821 0.0
H875 H 0.04415 0.44173 0.25714 0.0
H876 H 0.07227 0.45951 0.34134 0.0
H877 H 0.07463 0.45836 0.31182 0.0
H878 H 0.06032 0.54183 0.29088 0.0
C879 C 1.04038 0.5133 0.23149 0.0
C880 C 0.04791 0.46369 0.26443 0.0
C881 C 0.04384 0.51765 0.21505 0.0
C882 C 0.06097 0.47346 0.3347 0.0
C883 C 0.06205 0.47255 0.31782 0.0
C884 C 0.05645 0.51976 0.28367 0.0
C885 C 0.05465 0.49388 0.23925 0.0
C886 C 0.05363 0.49251 0.25709 0.0
C887 C 0.04777 0.49049 0.30886 0.0
C888 C 0.05015 0.49095 0.29104 0.0
H889 H 0.08796 0.46962 0.20658 0.0
H890 H 0.08229 0.46228 0.23568 0.0
H891 H 0.06336 0.5432 0.26164 0.0
H892 H 1.01873 0.52444 0.33994 0.0
H893 H 1.0204 0.52268 0.31048 0.0
loop_
_geom_bond_atom_site_label_1
_geom_bond_atom_site_label_2
_geom_bond_distance
_geom_bond_site_symmetry_2
_ccdc_geom_bond_type
Nd0 C2 2.836 . S
Nd0 O20 2.500 . S
Nd0 O21 2.492 . S
Nd0 O22 2.487 . S
Nd0 O23 2.682 . S
Nd0 O24 2.410 . S
Nd0 O29 2.414 . S
Nd0 O31 2.424 1_455 S
Nd1 C11 2.836 1_455 S
Nd1 O23 2.414 . S
Nd1 O25 2.424 . S
Nd1 O26 2.500 1_455 S
Nd1 O27 2.492 1_455 S
Nd1 O28 2.487 . S
Nd1 O29 2.682 . S
Nd1 O30 2.410 1_455 S
C2 Nd0 2.836 . S
C2 C3 1.498 . S
C2 O20 1.258 . S
C2 O21 1.239 . S
C3 C2 1.498 . S
C3 C4 1.366 . S
C3 C8 1.407 . S
C4 C3 1.366 . S
C4 C5 1.392 . S
C4 H32 0.930 . S
C5 C4 1.392 . S
C5 C6 1.398 . S
C5 H33 0.929 . S
C6 C5 1.398 . S
C6 C7 1.352 . S
C7 C6 1.352 . S
C7 C8 1.384 . S
C7 H34 0.930 . S
C8 C3 1.407 . S
C8 C7 1.384 . S
C8 H35 0.929 . S
C9 O22 1.241 . S
C9 O23 1.273 . S
C10 O24 1.251 . S
C10 O25 1.268 . S
C11 Nd1 2.836 1_655 S
C11 C12 1.498 . S
C11 O26 1.258 . S
C11 O27 1.239 . S
C12 C11 1.498 . S
C12 C13 1.366 . S
C12 C17 1.407 . S
C13 C12 1.366 . S
C13 C14 1.392 . S
C13 H36 0.930 . S
C14 C13 1.392 . S
C14 C15 1.398 . S
C14 H37 0.929 . S
C15 C14 1.398 . S
C15 C16 1.352 . S
C16 C15 1.352 . S
C16 C17 1.384 . S
C16 H38 0.930 . S
C17 C12 1.407 . S
C17 C16 1.384 . S
C17 H39 0.929 . S
C18 O28 1.241 . S
C18 O29 1.273 . S
C19 O30 1.251 . S
C19 O31 1.268 . S
O20 Nd0 2.500 . S
O20 C2 1.258 . S
O21 Nd0 2.492 . S
O21 C2 1.239 . S
O22 Nd0 2.487 . S
O22 C9 1.241 . S
O23 Nd0 2.682 . S
O23 Nd1 2.414 . S
O23 C9 1.273 . S
O24 Nd0 2.410 . S
O24 C10 1.251 . S
O25 Nd1 2.424 . S
O25 C10 1.268 . S
O26 Nd1 2.500 1_655 S
O26 C11 1.258 . S
O27 Nd1 2.492 1_655 S
O27 C11 1.239 . S
O28 Nd1 2.487 . S
O28 C18 1.241 . S
O29 Nd0 2.414 . S
O29 Nd1 2.682 . S
O29 C18 1.273 . S
O30 Nd1 2.410 1_655 S
O30 C19 1.251 . S
O31 Nd0 2.424 1_655 S
O31 C19 1.268 . S
H32 C4 0.930 . S
H33 C5 0.929 . S
H34 C7 0.930 . S
H35 C8 0.929 . S
H36 C13 0.930 . S
H37 C14 0.929 . S
H38 C16 0.930 . S
H39 C17 0.929 . S
Nd40 C42 2.836 1_545 S
Nd40 O60 2.500 1_545 S
Nd40 O61 2.492 1_545 S
Nd40 O62 2.487 . S
Nd40 O63 2.682 . S
Nd40 O64 2.410 1_545 S
Nd40 O69 2.414 . S
Nd40 O71 2.424 . S
Nd41 C51 2.836 . S
Nd41 O63 2.414 . S
Nd41 O65 2.424 1_545 S
Nd41 O66 2.500 . S
Nd41 O67 2.492 . S
Nd41 O68 2.487 . S
Nd41 O69 2.682 . S
Nd41 O70 2.410 . S
C42 Nd40 2.836 1_565 S
C42 C43 1.498 . S
C42 O60 1.258 . S
C42 O61 1.239 . S
C43 C42 1.498 . S
C43 C44 1.366 . S
C43 C48 1.407 . S
C44 C43 1.366 . S
C44 C45 1.392 . S
C44 H72 0.930 . S
C45 C44 1.392 . S
C45 C46 1.398 . S
C45 H73 0.929 . S
C46 C45 1.398 . S
C46 C47 1.352 . S
C47 C46 1.352 . S
C47 C48 1.384 . S
C47 H74 0.930 . S
C48 C43 1.407 . S
C48 C47 1.384 . S
C48 H75 0.929 . S
C49 O62 1.241 . S
C49 O63 1.273 . S
C50 O64 1.251 . S
C50 O65 1.268 . S
C51 Nd41 2.836 . S
C51 C52 1.498 . S
C51 O66 1.258 . S
C51 O67 1.239 . S
C52 C51 1.498 . S
C52 C53 1.366 . S
C52 C57 1.407 . S
C53 C52 1.366 . S
C53 C54 1.392 . S
C53 H76 0.930 . S
C54 C53 1.392 . S
C54 C55 1.398 . S
C54 H77 0.929 . S
C55 C54 1.398 . S
C55 C56 1.352 . S
C56 C55 1.352 . S
C56 C57 1.384 . S
C56 H78 0.930 . S
C57 C52 1.407 . S
C57 C56 1.384 . S
C57 H79 0.929 . S
C58 O68 1.241 . S
C58 O69 1.273 . S
C59 O70 1.251 . S
C59 O71 1.268 . S
O60 Nd40 2.500 1_565 S
O60 C42 1.258 . S
O61 Nd40 2.492 1_565 S
O61 C42 1.239 . S
O62 Nd40 2.487 . S
O62 C49 1.241 . S
O63 Nd40 2.682 . S
O63 Nd41 2.414 . S
O63 C49 1.273 . S
O64 Nd40 2.410 1_565 S
O64 C50 1.251 . S
O65 Nd41 2.424 1_565 S
O65 C50 1.268 . S
O66 Nd41 2.500 . S
O66 C51 1.258 . S
O67 Nd41 2.492 . S
O67 C51 1.239 . S
O68 Nd41 2.487 . S
O68 C58 1.241 . S
O69 Nd40 2.414 . S
O69 Nd41 2.682 . S
O69 C58 1.273 . S
O70 Nd41 2.410 . S
O70 C59 1.251 . S
O71 Nd40 2.424 . S
O71 C59 1.268 . S
H72 C44 0.930 . S
H73 C45 0.929 . S
H74 C47 0.930 . S
H75 C48 0.929 . S
H76 C53 0.930 . S
H77 C54 0.929 . S
H78 C56 0.930 . S
H79 C57 0.929 . S
Nd80 C82 2.836 . S
Nd80 O100 2.500 . S
Nd80 O101 2.492 . S
Nd80 O102 2.487 . S
Nd80 O103 2.682 . S
Nd80 O104 2.410 . S
Nd80 O109 2.414 . S
Nd80 O111 2.424 . S
Nd81 C91 2.836 . S
Nd81 O103 2.414 . S
Nd81 O105 2.424 . S
Nd81 O106 2.500 . S
Nd81 O107 2.492 . S
Nd81 O108 2.487 . S
Nd81 O109 2.682 . S
Nd81 O110 2.410 . S
C82 Nd80 2.836 . S
C82 C83 1.498 . S
C82 O100 1.258 . S
C82 O101 1.239 . S
C83 C82 1.498 . S
C83 C84 1.366 . S
C83 C88 1.407 . S
C84 C83 1.366 . S
C84 C85 1.392 . S
C84 H112 0.930 . S
C85 C84 1.392 . S
C85 C86 1.398 . S
C85 H113 0.929 . S
C86 C85 1.398 . S
C86 C87 1.352 . S
C87 C86 1.352 . S
C87 C88 1.384 . S
C87 H114 0.930 . S
C88 C83 1.407 . S
C88 C87 1.384 . S
C88 H115 0.929 . S
C89 O102 1.241 . S
C89 O103 1.273 . S
C90 O104 1.251 . S
C90 O105 1.268 . S
C91 Nd81 2.836 . S
C91 C92 1.498 . S
C91 O106 1.258 . S
C91 O107 1.239 . S
C92 C91 1.498 . S
C92 C93 1.366 . S
C92 C97 1.407 . S
C93 C92 1.366 . S
C93 C94 1.392 . S
C93 H116 0.930 . S
C94 C93 1.392 . S
C94 C95 1.398 . S
C94 H117 0.929 . S
C95 C94 1.398 . S
C95 C96 1.352 . S
C96 C95 1.352 . S
C96 C97 1.384 . S
C96 H118 0.930 . S
C97 C92 1.407 . S
C97 C96 1.384 . S
C97 H119 0.929 . S
C98 O108 1.241 . S
C98 O109 1.273 . S
C99 O110 1.251 . S
C99 O111 1.268 . S
O100 Nd80 2.500 . S
O100 C82 1.258 . S
O101 Nd80 2.492 . S
O101 C82 1.239 . S
O102 Nd80 2.487 . S
O102 C89 1.241 . S
O103 Nd80 2.682 . S
O103 Nd81 2.414 . S
O103 C89 1.273 . S
O104 Nd80 2.410 . S
O104 C90 1.251 . S
O105 Nd81 2.424 . S
O105 C90 1.268 . S
O106 Nd81 2.500 . S
O106 C91 1.258 . S
O107 Nd81 2.492 . S
O107 C91 1.239 . S
O108 Nd81 2.487 . S
O108 C98 1.241 . S
O109 Nd80 2.414 . S
O109 Nd81 2.682 . S
O109 C98 1.273 . S
O110 Nd81 2.410 . S
O110 C99 1.251 . S
O111 Nd80 2.424 . S
O111 C99 1.268 . S
H112 C84 0.930 . S
H113 C85 0.929 . S
H114 C87 0.930 . S
H115 C88 0.929 . S
H116 C93 0.930 . S
H117 C94 0.929 . S
H118 C96 0.930 . S
H119 C97 0.929 . S
C120 C121 1.386 . S
C120 C122 1.397 . S
C120 H144 0.931 . S
C121 C120 1.386 . S
C121 C125 1.397 . S
C122 C120 1.397 . S
C122 C123 1.384 . S
C122 H145 0.930 . S
C123 C122 1.384 . S
C123 C124 1.377 . S
C123 C126 1.481 . S
C124 C123 1.377 . S
C124 C125 1.389 . S
C124 H146 0.929 1_545 S
C125 C121 1.397 . S
C125 C124 1.389 . S
C125 H147 0.931 1_545 S
C126 C123 1.481 . S
C126 C127 1.387 . S
C126 C131 1.390 . S
C127 C126 1.387 . S
C127 C128 1.401 . S
C127 H148 0.930 . S
C128 C127 1.401 . S
C128 C129 1.376 . S
C128 C137 1.511 . S
C129 C128 1.376 . S
C129 C130 1.392 . S
C129 H150 0.931 . S
C130 C129 1.392 . S
C130 C131 1.361 . S
C130 C132 1.500 1_545 S
C131 C126 1.390 . S
C131 C130 1.361 . S
C131 H149 0.931 1_545 S
C132 C130 1.500 1_565 S
C132 C133 1.371 . S
C132 C134 1.365 . S
C133 C132 1.371 . S
C133 C143 1.386 . S
C133 H151 0.925 1_565 S
C134 C132 1.365 . S
C134 C135 1.409 . S
C134 H152 0.929 . S
C135 C134 1.409 . S
C135 C136 1.380 . S
C135 H153 0.930 . S
C136 C135 1.380 . S
C136 C143 1.357 . S
C137 C128 1.511 . S
C137 C138 1.341 . S
C137 C139 1.371 . S
C138 C137 1.341 . S
C138 C142 1.394 . S
C138 H154 0.930 . S
C139 C137 1.371 . S
C139 C140 1.392 . S
C139 H155 0.931 . S
C140 C139 1.392 . S
C140 C141 1.331 . S
C140 H158 0.932 . S
C141 C140 1.331 . S
C141 C142 1.336 . S
C142 C138 1.394 . S
C142 C141 1.336 . S
C142 H157 0.929 . S
C143 C133 1.386 . S
C143 C136 1.357 . S
C143 H156 0.928 . S
H144 C120 0.931 . S
H145 C122 0.930 . S
H146 C124 0.929 1_565 S
H147 C125 0.931 1_565 S
H148 C127 0.930 . S
H149 C131 0.931 1_565 S
H150 C129 0.931 . S
H151 C133 0.925 1_545 S
H152 C134 0.929 . S
H153 C135 0.930 . S
H154 C138 0.930 . S
H155 C139 0.931 . S
H156 C143 0.928 . S
H157 C142 0.929 . S
H158 C140 0.932 . S
C159 C160 1.386 . S
C159 C161 1.397 . S
C159 H183 0.931 . S
C160 C159 1.386 . S
C160 C164 1.397 . S
C161 C159 1.397 . S
C161 C162 1.384 . S
C161 H184 0.930 . S
C162 C161 1.384 . S
C162 C163 1.377 . S
C162 C165 1.481 . S
C163 C162 1.377 . S
C163 C164 1.389 . S
C163 H185 0.929 . S
C164 C160 1.397 . S
C164 C163 1.389 . S
C164 H186 0.931 . S
C165 C162 1.481 . S
C165 C166 1.387 . S
C165 C170 1.390 . S
C166 C165 1.387 . S
C166 C167 1.401 . S
C166 H187 0.930 . S
C167 C166 1.401 . S
C167 C168 1.376 . S
C167 C176 1.511 . S
C168 C167 1.376 . S
C168 C169 1.392 . S
C168 H189 0.931 . S
C169 C168 1.392 . S
C169 C170 1.361 . S
C169 C171 1.500 . S
C170 C165 1.390 . S
C170 C169 1.361 . S
C170 H188 0.931 . S
C171 C169 1.500 . S
C171 C172 1.371 . S
C171 C173 1.365 . S
C172 C171 1.371 . S
C172 C182 1.386 . S
C172 H190 0.931 . S
C173 C171 1.365 . S
C173 C174 1.409 . S
C173 H191 0.929 . S
C174 C173 1.409 . S
C174 C175 1.380 . S
C174 H192 0.930 . S
C175 C174 1.380 . S
C175 C182 1.357 . S
C176 C167 1.511 . S
C176 C177 1.341 . S
C176 C178 1.371 . S
C177 C176 1.341 . S
C177 C181 1.394 . S
C177 H193 0.930 . S
C178 C176 1.371 . S
C178 C179 1.392 . S
C178 H194 0.931 . S
C179 C178 1.392 . S
C179 C180 1.331 . S
C179 H197 0.932 . S
C180 C179 1.331 . S
C180 C181 1.336 . S
C181 C177 1.394 . S
C181 C180 1.336 . S
C181 H196 0.929 . S
C182 C172 1.386 . S
C182 C175 1.357 . S
C182 H195 0.928 . S
H183 C159 0.931 . S
H184 C161 0.930 . S
H185 C163 0.929 . S
H186 C164 0.931 . S
H187 C166 0.930 . S
H188 C170 0.931 . S
H189 C168 0.931 . S
H190 C172 0.931 . S
H191 C173 0.929 . S
H192 C174 0.930 . S
H193 C177 0.930 . S
H194 C178 0.931 . S
H195 C182 0.928 . S
H196 C181 0.929 . S
H197 C179 0.932 . S
C198 C199 1.386 . S
C198 C200 1.397 . S
C198 H222 0.931 . S
C199 C198 1.386 . S
C199 C203 1.397 . S
C200 C198 1.397 . S
C200 C201 1.384 . S
C200 H223 0.930 . S
C201 C200 1.384 . S
C201 C202 1.377 . S
C201 C204 1.481 . S
C202 C201 1.377 . S
C202 C203 1.389 . S
C202 H224 0.929 1_455 S
C203 C199 1.397 . S
C203 C202 1.389 . S
C203 H225 0.931 1_455 S
C204 C201 1.481 . S
C204 C205 1.387 . S
C204 C209 1.390 . S
C205 C204 1.387 . S
C205 C206 1.401 . S
C205 H226 0.930 . S
C206 C205 1.401 . S
C206 C207 1.376 . S
C206 C215 1.511 . S
C207 C206 1.376 . S
C207 C208 1.392 . S
C207 H228 0.931 . S
C208 C207 1.392 . S
C208 C209 1.361 . S
C208 C210 1.500 1_455 S
C209 C204 1.390 . S
C209 C208 1.361 . S
C209 H227 0.931 1_455 S
C210 C208 1.500 1_655 S
C210 C211 1.371 . S
C210 C212 1.365 . S
C211 C210 1.371 . S
C211 C221 1.386 . S
C211 H229 0.931 1_655 S
C212 C210 1.365 . S
C212 C213 1.409 . S
C212 H230 0.929 . S
C213 C212 1.409 . S
C213 C214 1.380 . S
C213 H231 0.930 . S
C214 C213 1.380 . S
C214 C221 1.357 . S
C215 C206 1.511 . S
C215 C216 1.341 . S
C215 C217 1.371 . S
C216 C215 1.341 . S
C216 C220 1.394 . S
C216 H232 0.930 . S
C217 C215 1.371 . S
C217 C218 1.392 . S
C217 H233 0.931 . S
C218 C217 1.392 . S
C218 C219 1.331 . S
C218 H236 0.932 . S
C219 C218 1.331 . S
C219 C220 1.336 . S
C220 C216 1.394 . S
C220 C219 1.336 . S
C220 H235 0.929 . S
C221 C211 1.386 . S
C221 C214 1.357 . S
C221 H234 0.928 . S
H222 C198 0.931 . S
H223 C200 0.930 . S
H224 C202 0.929 1_655 S
H225 C203 0.931 1_655 S
H226 C205 0.930 . S
H227 C209 0.931 1_655 S
H228 C207 0.931 . S
H229 C211 0.931 1_455 S
H230 C212 0.929 . S
H231 C213 0.930 . S
H232 C216 0.930 . S
H233 C217 0.931 . S
H234 C221 0.928 . S
H235 C220 0.929 . S
H236 C218 0.932 . S
C237 C238 1.376 1_655 S
C237 C239 1.397 . S
C237 H261 0.931 . S
C238 C237 1.376 1_455 S
C238 C242 1.407 . S
C239 C237 1.397 . S
C239 C240 1.415 . S
C239 H262 0.930 . S
C240 C239 1.415 . S
C240 C241 1.345 1_655 S
C240 C243 1.483 . S
C241 C240 1.345 1_455 S
C241 C242 1.389 . S
C241 H263 0.929 . S
C242 C238 1.407 . S
C242 C241 1.389 . S
C242 H264 0.931 . S
C243 C240 1.483 . S
C243 C244 1.387 . S
C243 C248 1.390 1_655 S
C244 C243 1.387 . S
C244 C245 1.401 . S
C244 H265 0.930 . S
C245 C244 1.401 . S
C245 C246 1.396 . S
C245 C254 1.511 . S
C246 C245 1.396 . S
C246 C247 1.372 1_655 S
C246 H267 0.931 . S
C247 C246 1.372 1_455 S
C247 C248 1.361 . S
C247 C249 1.500 . S
C248 C243 1.390 1_455 S
C248 C247 1.361 . S
C248 H266 0.931 . S
C249 C247 1.500 . S
C249 C250 1.371 . S
C249 C251 1.365 . S
C250 C249 1.371 . S
C250 C260 1.386 . S
C250 H268 0.931 . S
C251 C249 1.365 . S
C251 C252 1.409 . S
C251 H269 0.929 . S
C252 C251 1.409 . S
C252 C253 1.380 . S
C252 H270 0.930 . S
C253 C252 1.380 . S
C253 C260 1.357 . S
C254 C245 1.511 . S
C254 C255 1.341 . S
C254 C256 1.371 . S
C255 C254 1.341 . S
C255 C259 1.394 . S
C255 H271 0.930 . S
C256 C254 1.371 . S
C256 C257 1.392 . S
C256 H272 0.931 . S
C257 C256 1.392 . S
C257 C258 1.331 . S
C257 H275 0.932 . S
C258 C257 1.331 . S
C258 C259 1.336 . S
C259 C255 1.394 . S
C259 C258 1.336 . S
C259 H274 0.929 . S
C260 C250 1.386 . S
C260 C253 1.357 . S
C260 H273 0.928 . S
H261 C237 0.931 . S
H262 C239 0.930 . S
H263 C241 0.929 . S
H264 C242 0.931 . S
H265 C244 0.930 . S
H266 C248 0.931 . S
H267 C246 0.931 . S
H268 C250 0.931 . S
H269 C251 0.929 . S
H270 C252 0.930 . S
H271 C255 0.930 . S
H272 C256 0.931 . S
H273 C260 0.928 . S
H274 C259 0.929 . S
H275 C257 0.932 . S
C276 C277 1.386 1_565 S
C276 C278 1.397 . S
C276 H300 0.931 . S
C277 C276 1.386 1_545 S
C277 C281 1.397 . S
C278 C276 1.397 . S
C278 C279 1.384 1_565 S
C278 H301 0.930 . S
C279 C278 1.384 1_545 S
C279 C280 1.377 . S
C279 C282 1.481 . S
C280 C279 1.377 . S
C280 C281 1.389 . S
C280 H302 0.929 . S
C281 C277 1.397 . S
C281 C280 1.389 . S
C281 H303 0.931 . S
C282 C279 1.481 . S
C282 C283 1.387 1_545 S
C282 C287 1.390 . S
C283 C282 1.387 1_565 S
C283 C284 1.401 . S
C283 H304 0.930 . S
C284 C283 1.401 . S
C284 C285 1.376 1_565 S
C284 C293 1.511 . S
C285 C284 1.376 1_545 S
C285 C286 1.392 . S
C285 H306 0.931 . S
C286 C285 1.392 . S
C286 C287 1.361 . S
C286 C288 1.500 . S
C287 C282 1.390 . S
C287 C286 1.361 . S
C287 H305 0.931 . S
C288 C286 1.500 . S
C288 C289 1.371 . S
C288 C290 1.365 . S
C289 C288 1.371 . S
C289 C299 1.386 . S
C289 H307 0.931 . S
C290 C288 1.365 . S
C290 C291 1.409 . S
C290 H308 0.929 . S
C291 C290 1.409 . S
C291 C292 1.380 . S
C291 H309 0.930 . S
C292 C291 1.380 . S
C292 C299 1.357 . S
C293 C284 1.511 . S
C293 C294 1.341 . S
C293 C295 1.371 . S
C294 C293 1.341 . S
C294 C298 1.394 . S
C294 H310 0.930 . S
C295 C293 1.371 . S
C295 C296 1.392 . S
C295 H311 0.931 . S
C296 C295 1.392 . S
C296 C297 1.331 . S
C296 H314 0.932 . S
C297 C296 1.331 . S
C297 C298 1.336 . S
C298 C294 1.394 . S
C298 C297 1.336 . S
C298 H313 0.929 . S
C299 C289 1.386 . S
C299 C292 1.357 . S
C299 H312 0.928 . S
H300 C276 0.931 . S
H301 C278 0.930 . S
H302 C280 0.929 . S
H303 C281 0.931 . S
H304 C283 0.930 . S
H305 C287 0.931 . S
H306 C285 0.931 . S
H307 C289 0.931 . S
H308 C290 0.929 . S
H309 C291 0.930 . S
H310 C294 0.930 . S
H311 C295 0.931 . S
H312 C299 0.928 . S
H313 C298 0.929 . S
H314 C296 0.932 . S
C315 C316 1.386 . S
C315 C317 1.397 . S
C315 H339 0.931 . S
C316 C315 1.386 . S
C316 C320 1.397 . S
C317 C315 1.397 . S
C317 C318 1.384 . S
C317 H340 0.930 . S
C318 C317 1.384 . S
C318 C319 1.377 . S
C318 C321 1.481 . S
C319 C318 1.377 . S
C319 C320 1.389 . S
C319 H341 0.929 . S
C320 C316 1.397 . S
C320 C319 1.389 . S
C320 H342 0.931 . S
C321 C318 1.481 . S
C321 C322 1.387 . S
C321 C326 1.390 . S
C322 C321 1.387 . S
C322 C323 1.401 . S
C322 H343 0.930 . S
C323 C322 1.401 . S
C323 C324 1.376 . S
C323 C332 1.511 . S
C324 C323 1.376 . S
C324 C325 1.392 . S
C324 H345 0.931 . S
C325 C324 1.392 . S
C325 C326 1.361 . S
C325 C327 1.500 . S
C326 C321 1.390 . S
C326 C325 1.361 . S
C326 H344 0.931 . S
C327 C325 1.500 . S
C327 C328 1.371 . S
C327 C329 1.365 . S
C328 C327 1.371 . S
C328 C338 1.386 . S
C328 H346 0.931 . S
C329 C327 1.365 . S
C329 C330 1.409 . S
C329 H347 0.929 . S
C330 C329 1.409 . S
C330 C331 1.380 . S
C330 H348 0.930 . S
C331 C330 1.380 . S
C331 C338 1.357 . S
C332 C323 1.511 . S
C332 C333 1.341 . S
C332 C334 1.371 . S
C333 C332 1.341 . S
C333 C337 1.394 . S
C333 H349 0.930 . S
C334 C332 1.371 . S
C334 C335 1.392 . S
C334 H350 0.931 . S
C335 C334 1.392 . S
C335 C336 1.331 . S
C335 H353 0.932 . S
C336 C335 1.331 . S
C336 C337 1.336 . S
C337 C333 1.394 . S
C337 C336 1.336 . S
C337 H352 0.929 . S
C338 C328 1.386 . S
C338 C331 1.357 . S
C338 H351 0.928 . S
H339 C315 0.931 . S
H340 C317 0.930 . S
H341 C319 0.929 . S
H342 C320 0.931 . S
H343 C322 0.930 . S
H344 C326 0.931 . S
H345 C324 0.931 . S
H346 C328 0.931 . S
H347 C329 0.929 . S
H348 C330 0.930 . S
H349 C333 0.930 . S
H350 C334 0.931 . S
H351 C338 0.928 . S
H352 C337 0.929 . S
H353 C335 0.932 . S
C354 C355 1.349 . S
C354 C356 1.327 . S
C354 H379 0.950 . S
C355 C354 1.349 . S
C355 C371 1.349 . S
C356 C354 1.327 . S
C356 C375 1.429 . S
C356 H380 0.950 . S
C357 C374 1.574 . S
C357 C376 1.368 . S
C357 H381 0.949 . S
H358 C362 0.949 . S
C359 C360 1.349 . S
C359 C361 1.327 . S
C359 H382 0.950 . S
C360 C359 1.349 . S
C360 C372 1.349 . S
C361 C359 1.327 . S
C361 C377 1.429 . S
C361 H383 0.950 . S
C362 H358 0.949 . S
C362 C370 1.574 . S
C362 C378 1.368 . S
H363 C371 0.950 . S
H364 C369 0.950 . S
H365 C370 0.949 . S
H366 C372 0.950 . S
H367 C373 0.950 . S
H368 C374 0.949 . S
C369 H364 0.950 . S
C369 C371 1.327 . S
C369 C375 1.429 . S
C370 C362 1.574 . S
C370 H365 0.949 . S
C370 C376 1.368 . S
C371 C355 1.349 . S
C371 H363 0.950 . S
C371 C369 1.327 . S
C372 C360 1.349 . S
C372 H366 0.950 . S
C372 C373 1.327 . S
C373 H367 0.950 . S
C373 C372 1.327 . S
C373 C377 1.429 . S
C374 C357 1.574 . S
C374 H368 0.949 . S
C374 C378 1.368 . S
C375 C356 1.429 . S
C375 C369 1.429 . S
C375 C376 1.523 . S
C376 C357 1.368 . S
C376 C370 1.368 . S
C376 C375 1.523 . S
C377 C361 1.429 . S
C377 C373 1.429 . S
C377 C378 1.523 . S
C378 C362 1.368 . S
C378 C374 1.368 . S
C378 C377 1.523 . S
H379 C354 0.950 . S
H380 C356 0.950 . S
H381 C357 0.949 . S
H382 C359 0.950 . S
H383 C361 0.950 . S
C384 C385 1.349 . S
C384 C386 1.327 . S
C384 H409 0.950 . S
C385 C384 1.349 . S
C385 C401 1.349 . S
C386 C384 1.327 . S
C386 C405 1.429 . S
C386 H410 0.950 . S
C387 C404 1.574 . S
C387 C406 1.368 . S
C387 H411 0.949 . S
H388 C392 0.949 . S
C389 C390 1.349 . S
C389 C391 1.327 . S
C389 H412 0.950 . S
C390 C389 1.349 . S
C390 C402 1.349 . S
C391 C389 1.327 . S
C391 C407 1.429 . S
C391 H413 0.950 . S
C392 H388 0.949 . S
C392 C400 1.574 . S
C392 C408 1.368 . S
H393 C401 0.950 . S
H394 C399 0.950 . S
H395 C400 0.949 . S
H396 C402 0.950 . S
H397 C403 0.950 . S
H398 C404 0.949 . S
C399 H394 0.950 . S
C399 C401 1.327 . S
C399 C405 1.429 . S
C400 C392 1.574 . S
C400 H395 0.949 . S
C400 C406 1.368 . S
C401 C385 1.349 . S
C401 H393 0.950 . S
C401 C399 1.327 . S
C402 C390 1.349 . S
C402 H396 0.950 . S
C402 C403 1.327 . S
C403 H397 0.950 . S
C403 C402 1.327 . S
C403 C407 1.429 . S
C404 C387 1.574 . S
C404 H398 0.949 . S
C404 C408 1.368 . S
C405 C386 1.429 . S
C405 C399 1.429 . S
C405 C406 1.523 . S
C406 C387 1.368 . S
C406 C400 1.368 . S
C406 C405 1.523 . S
C407 C391 1.429 . S
C407 C403 1.429 . S
C407 C408 1.523 . S
C408 C392 1.368 . S
C408 C404 1.368 . S
C408 C407 1.523 . S
H409 C384 0.950 . S
H410 C386 0.950 . S
H411 C387 0.949 . S
H412 C389 0.950 . S
H413 C391 0.950 . S
C414 C415 1.349 . S
C414 C416 1.327 . S
C414 H439 0.950 . S
C415 C414 1.349 . S
C415 C431 1.349 . S
C416 C414 1.327 . S
C416 C435 1.429 . S
C416 H440 0.950 . S
C417 C434 1.574 . S
C417 C436 1.368 . S
C417 H441 0.949 . S
H418 C422 0.949 . S
C419 C420 1.349 . S
C419 C421 1.327 . S
C419 H442 0.950 . S
C420 C419 1.349 . S
C420 C432 1.349 . S
C421 C419 1.327 . S
C421 C437 1.429 . S
C421 H443 0.950 . S
C422 H418 0.949 . S
C422 C430 1.574 . S
C422 C438 1.368 . S
H423 C431 0.950 . S
H424 C429 0.950 . S
H425 C430 0.949 . S
H426 C432 0.950 . S
H427 C433 0.950 . S
H428 C434 0.949 . S
C429 H424 0.950 . S
C429 C431 1.327 . S
C429 C435 1.429 . S
C430 C422 1.574 . S
C430 H425 0.949 . S
C430 C436 1.368 . S
C431 C415 1.349 . S
C431 H423 0.950 . S
C431 C429 1.327 . S
C432 C420 1.349 . S
C432 H426 0.950 . S
C432 C433 1.327 . S
C433 H427 0.950 . S
C433 C432 1.327 . S
C433 C437 1.429 . S
C434 C417 1.574 . S
C434 H428 0.949 . S
C434 C438 1.368 . S
C435 C416 1.429 . S
C435 C429 1.429 . S
C435 C436 1.523 . S
C436 C417 1.368 . S
C436 C430 1.368 . S
C436 C435 1.523 . S
C437 C421 1.429 . S
C437 C433 1.429 . S
C437 C438 1.523 . S
C438 C422 1.368 . S
C438 C434 1.368 . S
C438 C437 1.523 . S
H439 C414 0.950 . S
H440 C416 0.950 . S
H441 C417 0.949 . S
H442 C419 0.950 . S
H443 C421 0.950 . S
C444 C445 1.349 . S
C444 C446 1.327 . S
C444 H469 0.950 . S
C445 C444 1.349 . S
C445 C461 1.349 . S
C446 C444 1.327 . S
C446 C465 1.429 . S
C446 H470 0.950 . S
C447 C464 1.574 . S
C447 C466 1.368 . S
C447 H471 0.949 . S
H448 C452 0.949 . S
C449 C450 1.349 . S
C449 C451 1.327 . S
C449 H472 0.950 . S
C450 C449 1.349 . S
C450 C462 1.349 . S
C451 C449 1.327 . S
C451 C467 1.429 . S
C451 H473 0.950 . S
C452 H448 0.949 . S
C452 C460 1.574 . S
C452 C468 1.368 . S
H453 C461 0.950 . S
H454 C459 0.950 . S
H455 C460 0.949 . S
H456 C462 0.950 . S
H457 C463 0.950 . S
H458 C464 0.949 . S
C459 H454 0.950 . S
C459 C461 1.327 . S
C459 C465 1.429 . S
C460 C452 1.574 . S
C460 H455 0.949 . S
C460 C466 1.368 . S
C461 C445 1.349 . S
C461 H453 0.950 . S
C461 C459 1.327 . S
C462 C450 1.349 . S
C462 H456 0.950 . S
C462 C463 1.327 . S
C463 H457 0.950 . S
C463 C462 1.327 . S
C463 C467 1.429 . S
C464 C447 1.574 . S
C464 H458 0.949 . S
C464 C468 1.368 . S
C465 C446 1.429 . S
C465 C459 1.429 . S
C465 C466 1.523 . S
C466 C447 1.368 . S
C466 C460 1.368 . S
C466 C465 1.523 . S
C467 C451 1.429 . S
C467 C463 1.429 . S
C467 C468 1.523 . S
C468 C452 1.368 . S
C468 C464 1.368 . S
C468 C467 1.523 . S
H469 C444 0.950 . S
H470 C446 0.950 . S
H471 C447 0.949 . S
H472 C449 0.950 . S
H473 C451 0.950 . S
C474 C475 1.349 . S
C474 C476 1.327 . S
C474 H499 0.950 . S
C475 C474 1.349 . S
C475 C491 1.349 . S
C476 C474 1.327 . S
C476 C495 1.429 . S
C476 H500 0.950 . S
C477 C494 1.574 . S
C477 C496 1.368 . S
C477 H501 0.949 . S
H478 C482 0.949 . S
C479 C480 1.349 . S
C479 C481 1.327 . S
C479 H502 0.950 . S
C480 C479 1.349 . S
C480 C492 1.349 . S
C481 C479 1.327 . S
C481 C497 1.429 . S
C481 H503 0.950 . S
C482 H478 0.949 . S
C482 C490 1.574 . S
C482 C498 1.368 . S
H483 C491 0.950 . S
H484 C489 0.950 . S
H485 C490 0.949 . S
H486 C492 0.950 . S
H487 C493 0.950 . S
H488 C494 0.949 . S
C489 H484 0.950 . S
C489 C491 1.327 . S
C489 C495 1.429 . S
C490 C482 1.574 . S
C490 H485 0.949 . S
C490 C496 1.368 . S
C491 C475 1.349 . S
C491 H483 0.950 . S
C491 C489 1.327 . S
C492 C480 1.349 . S
C492 H486 0.950 . S
C492 C493 1.327 . S
C493 H487 0.950 . S
C493 C492 1.327 . S
C493 C497 1.429 . S
C494 C477 1.574 . S
C494 H488 0.949 . S
C494 C498 1.368 . S
C495 C476 1.429 . S
C495 C489 1.429 . S
C495 C496 1.523 . S
C496 C477 1.368 . S
C496 C490 1.368 . S
C496 C495 1.523 . S
C497 C481 1.429 . S
C497 C493 1.429 . S
C497 C498 1.523 . S
C498 C482 1.368 . S
C498 C494 1.368 . S
C498 C497 1.523 . S
H499 C474 0.950 . S
H500 C476 0.950 . S
H501 C477 0.949 . S
H502 C479 0.950 . S
H503 C481 0.950 . S
C504 C505 1.349 . S
C504 C506 1.327 . S
C504 H529 0.950 . S
C505 C504 1.349 . S
C505 C521 1.349 . S
C506 C504 1.327 . S
C506 C525 1.429 . S
C506 H530 0.950 . S
C507 C524 1.574 . S
C507 C526 1.368 . S
C507 H531 0.949 . S
H508 C512 0.949 . S
C509 C510 1.349 . S
C509 C511 1.327 . S
C509 H532 0.950 . S
C510 C509 1.349 . S
C510 C522 1.349 . S
C511 C509 1.327 . S
C511 C527 1.429 . S
C511 H533 0.950 . S
C512 H508 0.949 . S
C512 C520 1.574 . S
C512 C528 1.368 . S
H513 C521 0.950 . S
H514 C519 0.950 . S
H515 C520 0.949 . S
H516 C522 0.950 . S
H517 C523 0.950 . S
H518 C524 0.949 . S
C519 H514 0.950 . S
C519 C521 1.327 . S
C519 C525 1.429 . S
C520 C512 1.574 . S
C520 H515 0.949 . S
C520 C526 1.368 . S
C521 C505 1.349 . S
C521 H513 0.950 . S
C521 C519 1.327 . S
C522 C510 1.349 . S
C522 H516 0.950 . S
C522 C523 1.327 . S
C523 H517 0.950 . S
C523 C522 1.327 . S
C523 C527 1.429 . S
C524 C507 1.574 . S
C524 H518 0.949 . S
C524 C528 1.368 . S
C525 C506 1.429 . S
C525 C519 1.429 . S
C525 C526 1.523 . S
C526 C507 1.368 . S
C526 C520 1.368 . S
C526 C525 1.523 . S
C527 C511 1.429 . S
C527 C523 1.429 . S
C527 C528 1.523 . S
C528 C512 1.368 . S
C528 C524 1.368 . S
C528 C527 1.523 . S
H529 C504 0.950 . S
H530 C506 0.950 . S
H531 C507 0.949 . S
H532 C509 0.950 . S
H533 C511 0.950 . S
C534 C535 1.349 . S
C534 C536 1.327 . S
C534 H559 0.950 . S
C535 C534 1.349 . S
C535 C551 1.349 . S
C536 C534 1.327 . S
C536 C555 1.429 . S
C536 H560 0.950 . S
C537 C554 1.574 . S
C537 C556 1.368 . S
C537 H561 0.949 . S
H538 C542 0.949 . S
C539 C540 1.349 . S
C539 C541 1.327 . S
C539 H562 0.950 . S
C540 C539 1.349 . S
C540 C552 1.349 . S
C541 C539 1.327 . S
C541 C557 1.429 . S
C541 H563 0.950 . S
C542 H538 0.949 . S
C542 C550 1.574 . S
C542 C558 1.368 . S
H543 C551 0.950 . S
H544 C549 0.950 . S
H545 C550 0.949 . S
H546 C552 0.950 . S
H547 C553 0.950 . S
H548 C554 0.949 . S
C549 H544 0.950 . S
C549 C551 1.327 . S
C549 C555 1.429 . S
C550 C542 1.574 . S
C550 H545 0.949 . S
C550 C556 1.368 . S
C551 C535 1.349 . S
C551 H543 0.950 . S
C551 C549 1.327 . S
C552 C540 1.349 . S
C552 H546 0.950 . S
C552 C553 1.327 . S
C553 H547 0.950 . S
C553 C552 1.327 . S
C553 C557 1.429 . S
C554 C537 1.574 . S
C554 H548 0.949 . S
C554 C558 1.368 . S
C555 C536 1.429 . S
C555 C549 1.429 . S
C555 C556 1.523 . S
C556 C537 1.368 . S
C556 C550 1.368 . S
C556 C555 1.523 . S
C557 C541 1.429 . S
C557 C553 1.429 . S
C557 C558 1.523 . S
C558 C542 1.368 . S
C558 C554 1.368 . S
C558 C557 1.523 . S
H559 C534 0.950 . S
H560 C536 0.950 . S
H561 C537 0.949 . S
H562 C539 0.950 . S
H563 C541 0.950 . S
C564 C565 1.349 . S
C564 C566 1.327 . S
C564 H589 0.950 . S
C565 C564 1.349 . S
C565 C581 1.349 . S
C566 C564 1.327 . S
C566 C585 1.429 . S
C566 H590 0.950 . S
C567 C584 1.574 . S
C567 C586 1.368 . S
C567 H591 0.949 . S
H568 C572 0.949 . S
C569 C570 1.349 . S
C569 C571 1.327 . S
C569 H592 0.950 . S
C570 C569 1.349 . S
C570 C582 1.349 . S
C571 C569 1.327 . S
C571 C587 1.429 . S
C571 H593 0.950 . S
C572 H568 0.949 . S
C572 C580 1.574 . S
C572 C588 1.368 . S
H573 C581 0.950 . S
H574 C579 0.950 . S
H575 C580 0.949 . S
H576 C582 0.950 . S
H577 C583 0.950 . S
H578 C584 0.949 . S
C579 H574 0.950 . S
C579 C581 1.327 . S
C579 C585 1.429 . S
C580 C572 1.574 . S
C580 H575 0.949 . S
C580 C586 1.368 . S
C581 C565 1.349 . S
C581 H573 0.950 . S
C581 C579 1.327 . S
C582 C570 1.349 . S
C582 H576 0.950 . S
C582 C583 1.327 . S
C583 H577 0.950 . S
C583 C582 1.327 . S
C583 C587 1.429 . S
C584 C567 1.574 . S
C584 H578 0.949 . S
C584 C588 1.368 . S
C585 C566 1.429 . S
C585 C579 1.429 . S
C585 C586 1.523 . S
C586 C567 1.368 . S
C586 C580 1.368 . S
C586 C585 1.523 . S
C587 C571 1.429 . S
C587 C583 1.429 . S
C587 C588 1.523 . S
C588 C572 1.368 . S
C588 C584 1.368 . S
C588 C587 1.523 . S
H589 C564 0.950 . S
H590 C566 0.950 . S
H591 C567 0.949 . S
H592 C569 0.950 . S
H593 C571 0.950 . S
C594 C595 1.349 . S
C594 C596 1.327 . S
C594 H619 0.950 . S
C595 C594 1.349 . S
C595 C611 1.349 . S
C596 C594 1.327 . S
C596 C615 1.429 . S
C596 H620 0.950 . S
C597 C614 1.574 . S
C597 C616 1.368 . S
C597 H621 0.949 . S
H598 C602 0.949 . S
C599 C600 1.349 . S
C599 C601 1.327 . S
C599 H622 0.950 . S
C600 C599 1.349 . S
C600 C612 1.349 . S
C601 C599 1.327 . S
C601 C617 1.429 . S
C601 H623 0.950 . S
C602 H598 0.949 . S
C602 C610 1.574 . S
C602 C618 1.368 . S
H603 C611 0.950 . S
H604 C609 0.950 . S
H605 C610 0.949 . S
H606 C612 0.950 . S
H607 C613 0.950 . S
H608 C614 0.949 . S
C609 H604 0.950 . S
C609 C611 1.327 . S
C609 C615 1.429 . S
C610 C602 1.574 . S
C610 H605 0.949 . S
C610 C616 1.368 . S
C611 C595 1.349 . S
C611 H603 0.950 . S
C611 C609 1.327 . S
C612 C600 1.349 . S
C612 H606 0.950 . S
C612 C613 1.327 . S
C613 H607 0.950 . S
C613 C612 1.327 . S
C613 C617 1.429 . S
C614 C597 1.574 . S
C614 H608 0.949 . S
C614 C618 1.368 . S
C615 C596 1.429 . S
C615 C609 1.429 . S
C615 C616 1.523 . S
C616 C597 1.368 . S
C616 C610 1.368 . S
C616 C615 1.523 . S
C617 C601 1.429 . S
C617 C613 1.429 . S
C617 C618 1.523 . S
C618 C602 1.368 . S
C618 C614 1.368 . S
C618 C617 1.523 . S
H619 C594 0.950 . S
H620 C596 0.950 . S
H621 C597 0.949 . S
H622 C599 0.950 . S
H623 C601 0.950 . S
C624 C625 1.349 . S
C624 C626 1.327 . S
C624 H649 0.950 . S
C625 C624 1.349 . S
C625 C641 1.349 . S
C626 C624 1.327 . S
C626 C645 1.429 . S
C626 H650 0.950 . S
C627 C644 1.574 . S
C627 C646 1.368 . S
C627 H651 0.949 . S
H628 C632 0.949 . S
C629 C630 1.349 . S
C629 C631 1.327 . S
C629 H652 0.950 . S
C630 C629 1.349 . S
C630 C642 1.349 . S
C631 C629 1.327 . S
C631 C647 1.429 . S
C631 H653 0.950 . S
C632 H628 0.949 . S
C632 C640 1.574 . S
C632 C648 1.368 . S
H633 C641 0.950 . S
H634 C639 0.950 . S
H635 C640 0.949 . S
H636 C642 0.950 . S
H637 C643 0.950 . S
H638 C644 0.949 . S
C639 H634 0.950 . S
C639 C641 1.327 . S
C639 C645 1.429 . S
C640 C632 1.574 . S
C640 H635 0.949 . S
C640 C646 1.368 . S
C641 C625 1.349 . S
C641 H633 0.950 . S
C641 C639 1.327 . S
C642 C630 1.349 . S
C642 H636 0.950 . S
C642 C643 1.327 . S
C643 H637 0.950 . S
C643 C642 1.327 . S
C643 C647 1.429 . S
C644 C627 1.574 . S
C644 H638 0.949 . S
C644 C648 1.368 . S
C645 C626 1.429 . S
C645 C639 1.429 . S
C645 C646 1.523 . S
C646 C627 1.368 . S
C646 C640 1.368 . S
C646 C645 1.523 . S
C647 C631 1.429 . S
C647 C643 1.429 . S
C647 C648 1.523 . S
C648 C632 1.368 . S
C648 C644 1.368 . S
C648 C647 1.523 . S
H649 C624 0.950 . S
H650 C626 0.950 . S
H651 C627 0.949 . S
H652 C629 0.950 . S
H653 C631 0.950 . S
C654 C655 1.349 . S
C654 C656 1.327 . S
C654 H679 0.950 . S
C655 C654 1.349 . S
C655 C671 1.349 . S
C656 C654 1.327 . S
C656 C675 1.429 . S
C656 H680 0.950 . S
C657 C674 1.574 . S
C657 C676 1.368 . S
C657 H681 0.949 . S
H658 C662 0.949 . S
C659 C660 1.349 . S
C659 C661 1.327 . S
C659 H682 0.950 . S
C660 C659 1.349 . S
C660 C672 1.349 . S
C661 C659 1.327 . S
C661 C677 1.429 . S
C661 H683 0.950 . S
C662 H658 0.949 . S
C662 C670 1.574 . S
C662 C678 1.368 . S
H663 C671 0.950 . S
H664 C669 0.950 . S
H665 C670 0.949 . S
H666 C672 0.950 . S
H667 C673 0.950 . S
H668 C674 0.949 . S
C669 H664 0.950 . S
C669 C671 1.327 . S
C669 C675 1.429 . S
C670 C662 1.574 . S
C670 H665 0.949 . S
C670 C676 1.368 . S
C671 C655 1.349 . S
C671 H663 0.950 . S
C671 C669 1.327 . S
C672 C660 1.349 . S
C672 H666 0.950 . S
C672 C673 1.327 . S
C673 H667 0.950 . S
C673 C672 1.327 . S
C673 C677 1.429 . S
C674 C657 1.574 . S
C674 H668 0.949 . S
C674 C678 1.368 . S
C675 C656 1.429 . S
C675 C669 1.429 . S
C675 C676 1.523 . S
C676 C657 1.368 . S
C676 C670 1.368 . S
C676 C675 1.523 . S
C677 C661 1.429 . S
C677 C673 1.429 . S
C677 C678 1.523 . S
C678 C662 1.368 . S
C678 C674 1.368 . S
C678 C677 1.523 . S
H679 C654 0.950 . S
H680 C656 0.950 . S
H681 C657 0.949 . S
H682 C659 0.950 . S
H683 C661 0.950 . S
C684 C685 1.349 . S
C684 C686 1.327 . S
C684 H709 0.950 . S
C685 C684 1.349 . S
C685 C701 1.349 . S
C686 C684 1.327 . S
C686 C705 1.429 . S
C686 H710 0.950 . S
C687 C704 1.574 . S
C687 C706 1.368 . S
C687 H711 0.949 . S
H688 C692 0.949 . S
C689 C690 1.349 . S
C689 C691 1.327 . S
C689 H712 0.950 . S
C690 C689 1.349 . S
C690 C702 1.349 . S
C691 C689 1.327 . S
C691 C707 1.429 . S
C691 H713 0.950 . S
C692 H688 0.949 . S
C692 C700 1.574 . S
C692 C708 1.368 . S
H693 C701 0.950 . S
H694 C699 0.950 . S
H695 C700 0.949 . S
H696 C702 0.950 . S
H697 C703 0.950 . S
H698 C704 0.949 . S
C699 H694 0.950 . S
C699 C701 1.327 . S
C699 C705 1.429 . S
C700 C692 1.574 . S
C700 H695 0.949 . S
C700 C706 1.368 . S
C701 C685 1.349 . S
C701 H693 0.950 . S
C701 C699 1.327 . S
C702 C690 1.349 . S
C702 H696 0.950 . S
C702 C703 1.327 . S
C703 H697 0.950 . S
C703 C702 1.327 . S
C703 C707 1.429 . S
C704 C687 1.574 . S
C704 H698 0.949 . S
C704 C708 1.368 . S
C705 C686 1.429 . S
C705 C699 1.429 . S
C705 C706 1.523 . S
C706 C687 1.368 . S
C706 C700 1.368 . S
C706 C705 1.523 . S
C707 C691 1.429 . S
C707 C703 1.429 . S
C707 C708 1.523 . S
C708 C692 1.368 . S
C708 C704 1.368 . S
C708 C707 1.523 . S
H709 C684 0.950 . S
H710 C686 0.950 . S
H711 C687 0.949 . S
H712 C689 0.950 . S
H713 C691 0.950 . S
C714 C715 1.349 . S
C714 C716 1.327 . S
C714 H739 0.950 . S
C715 C714 1.349 . S
C715 C731 1.349 . S
C716 C714 1.327 . S
C716 C735 1.429 . S
C716 H740 0.950 . S
C717 C734 1.574 . S
C717 C736 1.368 . S
C717 H741 0.949 1_455 S
H718 C722 0.949 . S
C719 C720 1.349 . S
C719 C721 1.327 1_556 S
C719 H742 0.944 1_455 S
C720 C719 1.349 . S
C720 C732 1.349 . S
C721 C719 1.327 1_554 S
C721 C737 1.429 . S
C721 H743 0.950 1_455 S
C722 H718 0.949 . S
C722 C730 1.574 . S
C722 C738 1.368 . S
H723 C731 0.950 1_655 S
H724 C729 0.950 1_655 S
H725 C730 0.949 . S
H726 C732 0.950 . S
H727 C733 0.950 . S
H728 C734 0.949 1_655 S
C729 H724 0.950 1_455 S
C729 C731 1.327 . S
C729 C735 1.429 . S
C730 C722 1.574 . S
C730 H725 0.949 . S
C730 C736 1.368 . S
C731 C715 1.349 . S
C731 H723 0.950 1_455 S
C731 C729 1.327 . S
C732 C720 1.349 . S
C732 H726 0.950 . S
C732 C733 1.327 1_556 S
C733 H727 0.950 . S
C733 C732 1.327 1_554 S
C733 C737 1.429 . S
C734 C717 1.574 . S
C734 H728 0.949 1_455 S
C734 C738 1.368 . S
C735 C716 1.429 . S
C735 C729 1.429 . S
C735 C736 1.523 . S
C736 C717 1.368 . S
C736 C730 1.368 . S
C736 C735 1.523 . S
C737 C721 1.429 . S
C737 C733 1.429 . S
C737 C738 1.523 . S
C738 C722 1.368 . S
C738 C734 1.368 . S
C738 C737 1.523 . S
H739 C714 0.950 . S
H740 C716 0.950 . S
H741 C717 0.949 1_655 S
H742 C719 0.944 1_655 S
H743 C721 0.950 1_655 S
C744 C745 1.349 . S
C744 C746 1.327 . S
C744 H769 0.950 . S
C745 C744 1.349 . S
C745 C761 1.349 . S
C746 C744 1.327 . S
C746 C765 1.429 . S
C746 H770 0.950 . S
C747 C764 1.574 . S
C747 C766 1.368 . S
C747 H771 0.949 1_545 S
H748 C752 0.949 . S
C749 C750 1.349 . S
C749 C751 1.327 . S
C749 H772 0.950 1_545 S
C750 C749 1.349 . S
C750 C762 1.349 . S
C751 C749 1.327 . S
C751 C767 1.429 . S
C751 H773 0.950 1_545 S
C752 H748 0.949 . S
C752 C760 1.574 . S
C752 C768 1.368 . S
H753 C761 0.950 1_565 S
H754 C759 0.950 1_565 S
H755 C760 0.949 . S
H756 C762 0.950 . S
H757 C763 0.950 . S
H758 C764 0.949 1_565 S
C759 H754 0.950 1_545 S
C759 C761 1.327 . S
C759 C765 1.429 . S
C760 C752 1.574 . S
C760 H755 0.949 . S
C760 C766 1.368 . S
C761 C745 1.349 . S
C761 H753 0.950 1_545 S
C761 C759 1.327 . S
C762 C750 1.349 . S
C762 H756 0.950 . S
C762 C763 1.327 . S
C763 H757 0.950 . S
C763 C762 1.327 . S
C763 C767 1.429 . S
C764 C747 1.574 . S
C764 H758 0.949 1_545 S
C764 C768 1.368 . S
C765 C746 1.429 . S
C765 C759 1.429 . S
C765 C766 1.523 . S
C766 C747 1.368 . S
C766 C760 1.368 . S
C766 C765 1.523 . S
C767 C751 1.429 . S
C767 C763 1.429 . S
C767 C768 1.523 . S
C768 C752 1.368 . S
C768 C764 1.368 . S
C768 C767 1.523 . S
H769 C744 0.950 . S
H770 C746 0.950 . S
H771 C747 0.949 1_565 S
H772 C749 0.950 1_565 S
H773 C751 0.950 1_565 S
C774 C775 1.349 . S
C774 C776 1.327 . S
C774 H799 0.950 . S
C775 C774 1.349 . S
C775 C791 1.349 . S
C776 C774 1.327 . S
C776 C795 1.429 . S
C776 H800 0.950 . S
C777 C794 1.574 . S
C777 C796 1.368 . S
C777 H801 0.949 . S
H778 C782 0.949 . S
C779 C780 1.349 . S
C779 C781 1.327 . S
C779 H802 0.950 . S
C780 C779 1.349 . S
C780 C792 1.349 . S
C781 C779 1.327 . S
C781 C797 1.429 . S
C781 H803 0.950 . S
C782 H778 0.949 . S
C782 C790 1.574 . S
C782 C798 1.368 . S
H783 C791 0.950 . S
H784 C789 0.950 . S
H785 C790 0.949 . S
H786 C792 0.950 . S
H787 C793 0.950 . S
H788 C794 0.949 . S
C789 H784 0.950 . S
C789 C791 1.327 . S
C789 C795 1.429 . S
C790 C782 1.574 . S
C790 H785 0.949 . S
C790 C796 1.368 . S
C791 C775 1.349 . S
C791 H783 0.950 . S
C791 C789 1.327 . S
C792 C780 1.349 . S
C792 H786 0.950 . S
C792 C793 1.327 . S
C793 H787 0.950 . S
C793 C792 1.327 . S
C793 C797 1.429 . S
C794 C777 1.574 . S
C794 H788 0.949 . S
C794 C798 1.368 . S
C795 C776 1.429 . S
C795 C789 1.429 . S
C795 C796 1.523 . S
C796 C777 1.368 . S
C796 C790 1.368 . S
C796 C795 1.523 . S
C797 C781 1.429 . S
C797 C793 1.429 . S
C797 C798 1.523 . S
C798 C782 1.368 . S
C798 C794 1.368 . S
C798 C797 1.523 . S
H799 C774 0.950 . S
H800 C776 0.950 . S
H801 C777 0.949 . S
H802 C779 0.950 . S
H803 C781 0.950 . S
C804 C805 1.349 . S
C804 C806 1.327 . S
C804 H829 0.950 . S
C805 C804 1.349 . S
C805 C821 1.349 1_545 S
C806 C804 1.327 . S
C806 C825 1.429 . S
C806 H830 0.950 . S
C807 C824 1.574 . S
C807 C826 1.368 1_565 S
C807 H831 0.949 . S
H808 C812 0.949 . S
C809 C810 1.349 1_565 S
C809 C811 1.327 . S
C809 H832 0.950 . S
C810 C809 1.349 1_545 S
C810 C822 1.349 . S
C811 C809 1.327 . S
C811 C827 1.429 1_565 S
C811 H833 0.950 . S
C812 H808 0.949 . S
C812 C820 1.574 . S
C812 C828 1.368 . S
H813 C821 0.950 . S
H814 C819 0.950 . S
H815 C820 0.949 . S
H816 C822 0.950 . S
H817 C823 0.950 . S
H818 C824 0.949 . S
C819 H814 0.950 . S
C819 C821 1.327 . S
C819 C825 1.429 1_565 S
C820 C812 1.574 . S
C820 H815 0.949 . S
C820 C826 1.368 . S
C821 C805 1.349 1_565 S
C821 H813 0.950 . S
C821 C819 1.327 . S
C822 C810 1.349 . S
C822 H816 0.950 . S
C822 C823 1.327 . S
C823 H817 0.950 . S
C823 C822 1.327 . S
C823 C827 1.429 . S
C824 C807 1.574 . S
C824 H818 0.949 . S
C824 C828 1.368 1_565 S
C825 C806 1.429 . S
C825 C819 1.429 1_545 S
C825 C826 1.523 . S
C826 C807 1.368 1_545 S
C826 C820 1.368 . S
C826 C825 1.523 . S
C827 C811 1.429 1_545 S
C827 C823 1.429 . S
C827 C828 1.523 . S
C828 C812 1.368 . S
C828 C824 1.368 1_545 S
C828 C827 1.523 . S
H829 C804 0.950 . S
H830 C806 0.950 . S
H831 C807 0.949 . S
H832 C809 0.950 . S
H833 C811 0.950 . S
C834 C835 1.349 . S
C834 C836 1.327 . S
C834 H859 0.950 . S
C835 C834 1.349 . S
C835 C851 1.349 . S
C836 C834 1.327 . S
C836 C855 1.429 . S
C836 H860 0.950 . S
C837 C854 1.574 . S
C837 C856 1.368 . S
C837 H861 0.949 . S
H838 C842 0.949 . S
C839 C840 1.349 . S
C839 C841 1.327 1_554 S
C839 H862 0.950 . S
C840 C839 1.349 . S
C840 C852 1.349 . S
C841 C839 1.327 1_556 S
C841 C857 1.429 . S
C841 H863 0.950 . S
C842 H838 0.949 . S
C842 C850 1.574 . S
C842 C858 1.368 . S
H843 C851 0.950 . S
H844 C849 0.950 . S
H845 C850 0.949 . S
H846 C852 0.950 . S
H847 C853 0.950 . S
H848 C854 0.949 . S
C849 H844 0.950 . S
C849 C851 1.327 . S
C849 C855 1.429 . S
C850 C842 1.574 . S
C850 H845 0.949 . S
C850 C856 1.368 . S
C851 C835 1.349 . S
C851 H843 0.950 . S
C851 C849 1.327 . S
C852 C840 1.349 . S
C852 H846 0.950 . S
C852 C853 1.327 1_554 S
C853 H847 0.950 . S
C853 C852 1.327 1_556 S
C853 C857 1.429 . S
C854 C837 1.574 . S
C854 H848 0.949 . S
C854 C858 1.368 . S
C855 C836 1.429 . S
C855 C849 1.429 . S
C855 C856 1.523 . S
C856 C837 1.368 . S
C856 C850 1.368 . S
C856 C855 1.523 . S
C857 C841 1.429 . S
C857 C853 1.429 . S
C857 C858 1.523 . S
C858 C842 1.368 . S
C858 C854 1.368 . S
C858 C857 1.523 . S
H859 C834 0.950 . S
H860 C836 0.950 . S
H861 C837 0.949 . S
H862 C839 0.950 . S
H863 C841 0.950 . S
C864 C865 1.349 . S
C864 C866 1.327 . S
C864 H889 0.950 . S
C865 C864 1.349 . S
C865 C881 1.349 . S
C866 C864 1.327 . S
C866 C885 1.429 . S
C866 H890 0.950 . S
C867 C884 1.574 . S
C867 C886 1.368 . S
C867 H891 0.949 . S
H868 C872 0.949 . S
C869 C870 1.349 1_655 S
C869 C871 1.327 . S
C869 H892 0.950 . S
C870 C869 1.349 1_455 S
C870 C882 1.349 . S
C871 C869 1.327 . S
C871 C887 1.427 1_655 S
C871 H893 0.951 . S
C872 H868 0.949 . S
C872 C880 1.574 . S
C872 C888 1.368 . S
H873 C881 0.950 . S
H874 C879 0.950 . S
H875 C880 0.949 . S
H876 C882 0.950 . S
H877 C883 0.950 . S
H878 C884 0.941 1_655 S
C879 H874 0.950 . S
C879 C881 1.327 . S
C879 C885 1.429 . S
C880 C872 1.574 . S
C880 H875 0.949 . S
C880 C886 1.368 . S
C881 C865 1.349 . S
C881 H873 0.950 . S
C881 C879 1.327 . S
C882 C870 1.349 . S
C882 H876 0.950 . S
C882 C883 1.327 . S
C883 H877 0.950 . S
C883 C882 1.327 . S
C883 C887 1.429 . S
C884 C867 1.574 . S
C884 H878 0.941 1_455 S
C884 C888 1.368 . S
C885 C866 1.429 . S
C885 C879 1.429 . S
C885 C886 1.523 . S
C886 C867 1.368 . S
C886 C880 1.368 . S
C886 C885 1.523 . S
C887 C871 1.427 1_455 S
C887 C883 1.429 . S
C887 C888 1.523 . S
C888 C872 1.368 . S
C888 C884 1.368 . S
C888 C887 1.523 . S
H889 C864 0.950 . S
H890 C866 0.950 . S
H891 C867 0.949 . S
H892 C869 0.950 . S
H893 C871 0.951 . S
C355 C10 3.089 . S
C360 C331 3.045 . S
C385 C55 1.155 . S
C390 C258 1.161 . S
C415 C90 1.850 . S
C420 C297 1.829 . S
C445 C19 2.906 . S
C450 C336 2.890 . S
C480 C253 1.259 . S
C475 C46 1.250 . S
C510 C292 1.985 . S
C505 C99 2.007 . S
C535 C50 1.862 . S
C540 C180 1.835 . S
C565 C95 0.489 . S
C570 C214 0.470 . S
C595 C6 1.288 . S
C600 C136 1.288 . S
C630 C175 1.947 . S
C625 C59 1.976 . S
C660 C219 0.228 . S
C655 C86 0.338 . S
C685 C15 1.175 . S
C690 C141 1.178 . S
C720 C199 1.128 . S
C715 C18 1.107 . S
C745 C49 1.451 . S
C750 C121 1.496 . S
C775 C98 1.339 . S
C780 C160 1.379 . S
C810 C277 1.385 . S
C805 C58 1.339 . S
C840 C316 1.765 . S
C835 C89 1.693 . S
C865 C9 1.455 . S
C870 C238 1.511 . S
