# Generated by pormake.
# Topology wbl, (4,4)-cn, num edge types: 1
# Building blocks:
#     Node 0, Type 0, BuildingBlock: MUDLON_clean_linker_0, # of connection points: 4
#     Node 1, Type 0, BuildingBlock: MUDLON_clean_linker_0, # of connection points: 4
#     Node 2, Type 0, BuildingBlock: MUDLON_clean_linker_0, # of connection points: 4
#     Node 3, Type 0, BuildingBlock: MUDLON_clean_linker_0, # of connection points: 4
#     Node 4, Type 0, BuildingBlock: MUDLON_clean_linker_0, # of connection points: 4
#     Node 5, Type 0, BuildingBlock: MUDLON_clean_linker_0, # of connection points: 4
#     Node 6, Type 0, BuildingBlock: MUDLON_clean_linker_0, # of connection points: 4
#     Node 7, Type 0, BuildingBlock: MUDLON_clean_linker_0, # of connection points: 4
#     Node 8, Type 1, BuildingBlock: GALJAG_clean_sbu_0, # of connection points: 4
#     Node 9, Type 1, BuildingBlock: GALJAG_clean_sbu_0, # of connection points: 4
#     Node 10, Type 1, BuildingBlock: GALJAG_clean_sbu_0, # of connection points: 4
#     Node 11, Type 1, BuildingBlock: GALJAG_clean_sbu_0, # of connection points: 4
#     Node 12, Type 1, BuildingBlock: GALJAG_clean_sbu_0, # of connection points: 4
#     Node 13, Type 1, BuildingBlock: GALJAG_clean_sbu_0, # of connection points: 4
#     Node 14, Type 1, BuildingBlock: GALJAG_clean_sbu_0, # of connection points: 4
#     Node 15, Type 1, BuildingBlock: GALJAG_clean_sbu_0, # of connection points: 4
#     Edge 16, Type (0, 1), BuildingBlock: ZUJKAS_clean_linker_0, # of connection points: 2
#     Edge 17, Type (0, 1), BuildingBlock: ZUJKAS_clean_linker_0, # of connection points: 2
#     Edge 18, Type (0, 1), BuildingBlock: ZUJKAS_clean_linker_0, # of connection points: 2
#     Edge 19, Type (0, 1), BuildingBlock: ZUJKAS_clean_linker_0, # of connection points: 2
#     Edge 20, Type (0, 1), BuildingBlock: ZUJKAS_clean_linker_0, # of connection points: 2
#     Edge 21, Type (0, 1), BuildingBlock: ZUJKAS_clean_linker_0, # of connection points: 2
#     Edge 22, Type (0, 1), BuildingBlock: ZUJKAS_clean_linker_0, # of connection points: 2
#     Edge 23, Type (0, 1), BuildingBlock: ZUJKAS_clean_linker_0, # of connection points: 2
#     Edge 24, Type (0, 1), BuildingBlock: ZUJKAS_clean_linker_0, # of connection points: 2
#     Edge 25, Type (0, 1), BuildingBlock: ZUJKAS_clean_linker_0, # of connection points: 2
#     Edge 26, Type (0, 1), BuildingBlock: ZUJKAS_clean_linker_0, # of connection points: 2
#     Edge 27, Type (0, 1), BuildingBlock: ZUJKAS_clean_linker_0, # of connection points: 2
#     Edge 28, Type (0, 1), BuildingBlock: ZUJKAS_clean_linker_0, # of connection points: 2
#     Edge 29, Type (0, 1), BuildingBlock: ZUJKAS_clean_linker_0, # of connection points: 2
#     Edge 30, Type (0, 1), BuildingBlock: ZUJKAS_clean_linker_0, # of connection points: 2
#     Edge 31, Type (0, 1), BuildingBlock: ZUJKAS_clean_linker_0, # of connection points: 2
#     Edge 32, Type (0, 1), BuildingBlock: ZUJKAS_clean_linker_0, # of connection points: 2
#     Edge 33, Type (0, 1), BuildingBlock: ZUJKAS_clean_linker_0, # of connection points: 2
#     Edge 34, Type (0, 1), BuildingBlock: ZUJKAS_clean_linker_0, # of connection points: 2
#     Edge 35, Type (0, 1), BuildingBlock: ZUJKAS_clean_linker_0, # of connection points: 2
#     Edge 36, Type (0, 1), BuildingBlock: ZUJKAS_clean_linker_0, # of connection points: 2
#     Edge 37, Type (0, 1), BuildingBlock: ZUJKAS_clean_linker_0, # of connection points: 2
#     Edge 38, Type (0, 1), BuildingBlock: ZUJKAS_clean_linker_0, # of connection points: 2
#     Edge 39, Type (0, 1), BuildingBlock: ZUJKAS_clean_linker_0, # of connection points: 2
#     Edge 40, Type (0, 1), BuildingBlock: ZUJKAS_clean_linker_0, # of connection points: 2
#     Edge 41, Type (0, 1), BuildingBlock: ZUJKAS_clean_linker_0, # of connection points: 2
#     Edge 42, Type (0, 1), BuildingBlock: ZUJKAS_clean_linker_0, # of connection points: 2
#     Edge 43, Type (0, 1), BuildingBlock: ZUJKAS_clean_linker_0, # of connection points: 2
#     Edge 44, Type (0, 1), BuildingBlock: ZUJKAS_clean_linker_0, # of connection points: 2
#     Edge 45, Type (0, 1), BuildingBlock: ZUJKAS_clean_linker_0, # of connection points: 2
#     Edge 46, Type (0, 1), BuildingBlock: ZUJKAS_clean_linker_0, # of connection points: 2
#     Edge 47, Type (0, 1), BuildingBlock: ZUJKAS_clean_linker_0, # of connection points: 2
# Relax obj value: 0.118
# Max RMSD: 0.150
# Mean RMSD: 0.137
data_MOF--net-wbl--node1-GALJAG_clean_sbu_0--node2-MUDLON_clean_linker_0--edge1-ZUJKAS_clean_linker_0
_symmetry_space_group_name_H-M    P1
_symmetry_Int_Tables_number       1
_symmetry_cell_setting            triclinic
loop_
_symmetry_equiv_pos_as_xyz
'x, y, z'
_cell_length_a     64.008798
_cell_length_b     64.148103
_cell_length_c     104.41671
_cell_angle_alpha  90.016329
_cell_angle_beta   90.007897
_cell_angle_gamma 90.04262
loop_
_atom_site_label
_atom_site_type_symbol
_atom_site_fract_x
_atom_site_fract_y
_atom_site_fract_z
_atom_type_partial_charge
H0 H 0.09113 0.99049 0.34669 0.0
N1 N 0.07505 0.97167 0.32626 0.0
H2 H 0.1011 0.97461 0.36716 0.0
H3 H 0.06976 0.93067 0.33314 0.0
H4 H 0.07918 0.91488 0.35347 0.0
H5 H 0.06224 0.93874 0.31141 0.0
H6 H 0.08349 0.92075 0.29528 0.0
H7 H 0.11118 0.98409 0.31665 0.0
H8 H 0.13229 0.96656 0.30038 0.0
H9 H 0.06386 0.00933 0.31839 0.0
H10 H 0.03847 0.95002 0.32997 0.0
H11 H 0.02856 0.02367 0.31694 0.0
H12 H 0.00343 0.9644 0.32938 0.0
H13 H 0.93645 0.06937 0.33644 0.0
H14 H 0.9276 0.08568 0.35673 0.0
H15 H 0.90619 0.02631 0.37123 0.0
H16 H 0.91553 0.00989 0.3508 0.0
H17 H 0.89271 0.01726 0.3217 0.0
H18 H 0.8707 0.03543 0.30617 0.0
H19 H 0.92071 0.07913 0.29893 0.0
H20 H 0.94275 0.06062 0.3144 0.0
H21 H 0.96735 0.04935 0.33315 0.0
H22 H 0.00214 0.03495 0.33069 0.0
H23 H 0.97539 0.97692 0.31734 0.0
N24 N 0.93022 0.02836 0.32986 0.0
H25 H 0.9404 0.99121 0.32066 0.0
C26 C 0.07977 0.96189 0.33836 0.0
C27 C 0.08843 0.974 0.34818 0.0
C28 C 0.09402 0.96491 0.35986 0.0
C29 C 0.09102 0.94345 0.36192 0.0
C30 C 0.08202 0.93138 0.35212 0.0
C31 C 0.07648 0.94048 0.34047 0.0
C32 C 0.08534 0.96265 0.31533 0.0
C33 C 0.0774 0.94502 0.30895 0.0
C34 C 0.08953 0.93476 0.29974 0.0
C35 C 0.10955 0.94224 0.2966 0.0
C36 C 0.11684 0.96056 0.30248 0.0
C37 C 0.10487 0.97057 0.31179 0.0
C38 C 0.05391 0.97879 0.32448 0.0
C39 C 0.05064 0.99942 0.32061 0.0
C40 C 0.03045 0.00761 0.31991 0.0
C41 C 0.01304 0.99534 0.32324 0.0
C42 C 0.01635 0.97434 0.32663 0.0
C43 C 0.03653 0.96609 0.32712 0.0
C44 C 0.9266 0.03828 0.34207 0.0
C45 C 0.93004 0.05973 0.34396 0.0
C46 C 0.92483 0.06913 0.35559 0.0
C47 C 0.91602 0.05734 0.36557 0.0
C48 C 0.91312 0.0358 0.36378 0.0
C49 C 0.91836 0.0264 0.35213 0.0
C50 C 0.91921 0.03762 0.31927 0.0
C51 C 0.89905 0.03046 0.31653 0.0
C52 C 0.88656 0.04083 0.30764 0.0
C53 C 0.89398 0.05876 0.30137 0.0
C54 C 0.91455 0.06545 0.30371 0.0
C55 C 0.92716 0.05487 0.31252 0.0
C56 C 0.95115 0.02114 0.32735 0.0
C57 C 0.96886 0.03353 0.32974 0.0
C58 C 0.9889 0.02529 0.32815 0.0
C59 C 0.99171 0.00464 0.3239 0.0
C60 C 0.97391 0.99268 0.32093 0.0
C61 C 0.95389 0.00085 0.32271 0.0
H62 H 0.99393 0.40492 0.59779 0.0
N63 N 0.97803 0.42775 0.57893 0.0
H64 H 0.97824 0.39784 0.61875 0.0
H65 H 0.94237 0.4452 0.58835 0.0
H66 H 0.92672 0.43854 0.60928 0.0
H67 H 0.94376 0.44163 0.56599 0.0
H68 H 0.92299 0.42126 0.55058 0.0
H69 H 0.988 0.3913 0.56875 0.0
H70 H 0.96785 0.37115 0.55314 0.0
H71 H 0.01652 0.42582 0.56966 0.0
H72 H 0.96916 0.46913 0.58184 0.0
H73 H 0.04097 0.45457 0.56646 0.0
H74 H 0.99382 0.49794 0.57955 0.0
H75 H 0.11752 0.54923 0.58588 0.0
H76 H 0.12448 0.56413 0.60701 0.0
H77 H 0.05808 0.57183 0.613 0.0
H78 H 0.05142 0.55761 0.59168 0.0
H79 H 0.0576 0.58002 0.57214 0.0
H80 H 0.06455 0.60882 0.55752 0.0
H81 H 0.11433 0.57332 0.54006 0.0
H82 H 0.10737 0.54455 0.55492 0.0
H83 H 0.08679 0.50446 0.57937 0.0
H84 H 0.06109 0.47645 0.57927 0.0
H85 H 0.01393 0.51988 0.56631 0.0
N86 N 0.08084 0.54439 0.57445 0.0
H87 H 0.03954 0.54796 0.56715 0.0
C88 C 0.96934 0.4255 0.59155 0.0
C89 C 0.97939 0.41246 0.60035 0.0
C90 C 0.97044 0.40853 0.61231 0.0
C91 C 0.95118 0.41758 0.61566 0.0
C92 C 0.94142 0.43111 0.60692 0.0
C93 C 0.95041 0.43504 0.59497 0.0
C94 C 0.96721 0.41772 0.56859 0.0
C95 C 0.94909 0.42631 0.56315 0.0
C96 C 0.93731 0.41472 0.55435 0.0
C97 C 0.94382 0.39464 0.55068 0.0
C98 C 0.96257 0.38666 0.55567 0.0
C99 C 0.97407 0.39807 0.56459 0.0
C100 C 0.99123 0.44529 0.57617 0.0
C101 C 0.01145 0.4416 0.57164 0.0
C102 C 0.02544 0.45806 0.56996 0.0
C103 C 0.0196 0.47863 0.573 0.0
C104 C 0.99892 0.48238 0.57704 0.0
C105 C 0.98479 0.46586 0.57849 0.0
C106 C 0.08405 0.55216 0.58725 0.0
C107 C 0.10452 0.55403 0.59183 0.0
C108 C 0.10842 0.56245 0.60392 0.0
C109 C 0.09183 0.56912 0.61175 0.0
C110 C 0.07123 0.56708 0.60717 0.0
C111 C 0.06737 0.55877 0.59502 0.0
C112 C 0.08203 0.56009 0.56461 0.0
C113 C 0.06967 0.5782 0.56499 0.0
C114 C 0.07364 0.59467 0.55658 0.0
C115 C 0.09011 0.59342 0.54769 0.0
C116 C 0.10171 0.57486 0.54691 0.0
C117 C 0.09767 0.55837 0.5553 0.0
C118 C 0.0653 0.52823 0.57316 0.0
C119 C 0.07093 0.50784 0.5764 0.0
C120 C 0.05619 0.49183 0.57624 0.0
C121 C 0.03536 0.49577 0.57266 0.0
C122 C 0.02974 0.51625 0.56924 0.0
C123 C 0.04451 0.53237 0.56958 0.0
H124 H 0.59467 0.48856 0.84333 0.0
N125 N 0.56814 0.47204 0.8266 0.0
H126 H 0.6046 0.47478 0.86436 0.0
H127 H 0.55157 0.4375 0.83843 0.0
H128 H 0.56076 0.42414 0.85939 0.0
H129 H 0.56099 0.43276 0.81706 0.0
H130 H 0.58352 0.41388 0.80226 0.0
H131 H 0.59996 0.48723 0.81341 0.0
H132 H 0.62285 0.46836 0.7987 0.0
H133 H 0.55841 0.51203 0.82458 0.0
H134 H 0.53137 0.45058 0.823 0.0
H135 H 0.52363 0.52741 0.8228 0.0
H136 H 0.49672 0.46547 0.82243 0.0
H137 H 0.42657 0.56843 0.83756 0.0
H138 H 0.41721 0.58327 0.8582 0.0
H139 H 0.40162 0.52179 0.87219 0.0
H140 H 0.41051 0.50706 0.8512 0.0
H141 H 0.38585 0.5151 0.82254 0.0
H142 H 0.36288 0.53252 0.80721 0.0
H143 H 0.41097 0.57831 0.79989 0.0
H144 H 0.43394 0.56057 0.81525 0.0
H145 H 0.45971 0.54678 0.838 0.0
H146 H 0.49474 0.5336 0.83513 0.0
H147 H 0.47049 0.4829 0.81214 0.0
N148 N 0.42317 0.52742 0.8304 0.0
H149 H 0.43506 0.49535 0.81608 0.0
C150 C 0.57233 0.46425 0.83929 0.0
C151 C 0.58713 0.47459 0.84687 0.0
C152 C 0.59269 0.46673 0.85888 0.0
C153 C 0.58351 0.4483 0.86354 0.0
C154 C 0.56837 0.43819 0.85601 0.0
C155 C 0.56291 0.446 0.844 0.0
C156 C 0.57883 0.46151 0.81636 0.0
C157 C 0.57413 0.44084 0.81291 0.0
C158 C 0.58716 0.42997 0.80448 0.0
C159 C 0.60509 0.43954 0.79936 0.0
C160 C 0.60906 0.46056 0.80233 0.0
C161 C 0.59605 0.47138 0.81075 0.0
C162 C 0.54757 0.48022 0.82421 0.0
C163 C 0.54494 0.50187 0.82387 0.0
C164 C 0.52498 0.51059 0.823 0.0
C165 C 0.50711 0.49778 0.82272 0.0
C166 C 0.50994 0.47599 0.82251 0.0
C167 C 0.52994 0.46732 0.82307 0.0
C168 C 0.41909 0.53654 0.84279 0.0
C169 C 0.42113 0.55809 0.84501 0.0
C170 C 0.41595 0.56657 0.85691 0.0
C171 C 0.40864 0.55373 0.86686 0.0
C172 C 0.40695 0.53215 0.86468 0.0
C173 C 0.41215 0.52368 0.85275 0.0
C174 C 0.41143 0.53658 0.82007 0.0
C175 C 0.39154 0.52864 0.81741 0.0
C176 C 0.37851 0.53858 0.80863 0.0
C177 C 0.38512 0.55682 0.80236 0.0
C178 C 0.40542 0.56437 0.80466 0.0
C179 C 0.41855 0.55425 0.81339 0.0
C180 C 0.4445 0.5217 0.82753 0.0
C181 C 0.46175 0.53279 0.83238 0.0
C182 C 0.48204 0.52531 0.83056 0.0
C183 C 0.48567 0.50692 0.82351 0.0
C184 C 0.46842 0.49671 0.81796 0.0
C185 C 0.44812 0.50391 0.82007 0.0
H186 H 0.48882 0.89527 0.09049 0.0
N187 N 0.48359 0.928 0.0754 0.0
H188 H 0.47067 0.88752 0.11056 0.0
H189 H 0.45605 0.95372 0.0877 0.0
H190 H 0.43751 0.946 0.10768 0.0
H191 H 0.44481 0.93926 0.06682 0.0
H192 H 0.42403 0.9205 0.05088 0.0
H193 H 0.49665 0.89796 0.05997 0.0
H194 H 0.47598 0.87887 0.04418 0.0
H195 H 0.52379 0.93132 0.08065 0.0
H196 H 0.47119 0.96635 0.06663 0.0
H197 H 0.54595 0.96214 0.07881 0.0
H198 H 0.49337 0.99727 0.06434 0.0
H199 H 0.61028 0.04125 0.0871 0.0
H200 H 0.61954 0.05438 0.10842 0.0
H201 H 0.56341 0.09175 0.10873 0.0
H202 H 0.55433 0.07858 0.08756 0.0
H203 H 0.54972 0.08174 0.06531 0.0
H204 H 0.55758 0.11142 0.05145 0.0
H205 H 0.61885 0.08579 0.04401 0.0
H206 H 0.61109 0.05672 0.05839 0.0
H207 H 0.58592 0.01392 0.06442 0.0
H208 H 0.56225 0.98404 0.06338 0.0
H209 H 0.51178 0.02287 0.07706 0.0
N210 N 0.57758 0.05185 0.0729 0.0
H211 H 0.53538 0.05277 0.0775 0.0
C212 C 0.47382 0.92499 0.08766 0.0
C213 C 0.4778 0.90648 0.0943 0.0
C214 C 0.46729 0.90203 0.10568 0.0
C215 C 0.4525 0.91607 0.11064 0.0
C216 C 0.4489 0.93494 0.10414 0.0
C217 C 0.45944 0.93935 0.09271 0.0
C218 C 0.4723 0.9199 0.06457 0.0
C219 C 0.45189 0.92645 0.06168 0.0
C220 C 0.43997 0.9156 0.05263 0.0
C221 C 0.44827 0.89807 0.04632 0.0
C222 C 0.46915 0.89243 0.04872 0.0
C223 C 0.48099 0.90326 0.05776 0.0
C224 C 0.49599 0.94649 0.07371 0.0
C225 C 0.51714 0.94567 0.07703 0.0
C226 C 0.52977 0.96328 0.07587 0.0
C227 C 0.52152 0.98219 0.07129 0.0
C228 C 0.5002 0.98301 0.06797 0.0
C229 C 0.48751 0.9653 0.06919 0.0
C230 C 0.58163 0.05878 0.08577 0.0
C231 C 0.59992 0.0521 0.09187 0.0
C232 C 0.60522 0.05971 0.10398 0.0
C233 C 0.59221 0.07414 0.11023 0.0
C234 C 0.57362 0.08046 0.10422 0.0
C235 C 0.56841 0.07293 0.09208 0.0
C236 C 0.58001 0.06721 0.063 0.0
C237 C 0.56473 0.08241 0.06059 0.0
C238 C 0.56922 0.09932 0.05257 0.0
C239 C 0.589 0.10119 0.04677 0.0
C240 C 0.60366 0.08513 0.04855 0.0
C241 C 0.59921 0.06839 0.05664 0.0
C242 C 0.56254 0.03544 0.07116 0.0
C243 C 0.56966 0.01598 0.06698 0.0
C244 C 0.55614 0.99892 0.06652 0.0
C245 C 0.53517 0.00094 0.07036 0.0
C246 C 0.5278 0.02075 0.07399 0.0
C247 C 0.54136 0.03789 0.07435 0.0
H248 H 0.11563 0.52747 0.91197 0.0
N249 N 0.08147 0.52514 0.92622 0.0
H250 H 0.12026 0.54601 0.89176 0.0
H251 H 0.05099 0.54599 0.91303 0.0
H252 H 0.05509 0.56377 0.89247 0.0
H253 H 0.06838 0.56428 0.93292 0.0
H254 H 0.08523 0.58713 0.94863 0.0
H255 H 0.11006 0.51438 0.94335 0.0
H256 H 0.12689 0.53701 0.95915 0.0
H257 H 0.07861 0.48636 0.91786 0.0
H258 H 0.0443 0.53348 0.93837 0.0
H259 H 0.04913 0.46255 0.91974 0.0
H260 H 0.01507 0.50936 0.94105 0.0
H261 H 0.96157 0.38792 0.9194 0.0
H262 H 0.94783 0.37833 0.89834 0.0
H263 H 0.93287 0.44297 0.89109 0.0
H264 H 0.94589 0.45219 0.91222 0.0
H265 H 0.92661 0.44936 0.93238 0.0
H266 H 0.89728 0.44289 0.94677 0.0
H267 H 0.93144 0.39225 0.96425 0.0
H268 H 0.96062 0.39867 0.9496 0.0
H269 H 0.00185 0.41688 0.93329 0.0
H270 H 0.031 0.44139 0.93394 0.0
H271 H 0.98754 0.49267 0.93026 0.0
N272 N 0.96176 0.42531 0.93024 0.0
H273 H 0.95854 0.46803 0.9306 0.0
C274 C 0.08301 0.53515 0.9139 0.0
C275 C 0.10236 0.53527 0.90768 0.0
C276 C 0.1049 0.54578 0.89609 0.0
C277 C 0.08801 0.55631 0.89039 0.0
C278 C 0.0685 0.55604 0.89663 0.0
C279 C 0.06605 0.54568 0.90832 0.0
C280 C 0.08821 0.53767 0.9369 0.0
C281 C 0.08086 0.55811 0.93878 0.0
C282 C 0.09053 0.57116 0.94773 0.0
C283 C 0.10747 0.56391 0.95505 0.0
C284 C 0.11375 0.54301 0.95375 0.0
C285 C 0.10422 0.53007 0.94473 0.0
C286 C 0.06382 0.51152 0.92808 0.0
C287 C 0.06478 0.4914 0.92296 0.0
C288 C 0.04793 0.47776 0.92417 0.0
C289 C 0.0297 0.48384 0.93072 0.0
C290 C 0.02874 0.50414 0.93586 0.0
C291 C 0.04557 0.51793 0.93446 0.0
C292 C 0.95493 0.4207 0.9174 0.0
C293 C 0.95547 0.39998 0.91319 0.0
C294 C 0.9477 0.39458 0.90113 0.0
C295 C 0.93923 0.40989 0.893 0.0
C296 C 0.93901 0.43075 0.89717 0.0
C297 C 0.94668 0.43609 0.90926 0.0
C298 C 0.94581 0.42439 0.93992 0.0
C299 C 0.92802 0.4372 0.93949 0.0
C300 C 0.91123 0.43349 0.94776 0.0
C301 C 0.91194 0.41691 0.95658 0.0
C302 C 0.93027 0.40493 0.95744 0.0
C303 C 0.94701 0.40866 0.94917 0.0
C304 C 0.97812 0.44052 0.93166 0.0
C305 C 0.99869 0.43344 0.93281 0.0
C306 C 0.01532 0.44751 0.93303 0.0
C307 C 0.01176 0.46909 0.93186 0.0
C308 C 0.99097 0.47622 0.93122 0.0
C309 C 0.97429 0.46208 0.93125 0.0
H310 H 0.5227 0.38947 0.16328 0.0
N311 N 0.52214 0.4237 0.17749 0.0
H312 H 0.54104 0.38387 0.14305 0.0
H313 H 0.54484 0.45289 0.16431 0.0
H314 H 0.56244 0.44783 0.14383 0.0
H315 H 0.56073 0.4376 0.18489 0.0
H316 H 0.58327 0.421 0.20089 0.0
H317 H 0.51104 0.39499 0.19435 0.0
H318 H 0.5333 0.37836 0.21037 0.0
H319 H 0.48152 0.42248 0.17312 0.0
H320 H 0.53095 0.46354 0.18529 0.0
H321 H 0.45664 0.4513 0.17403 0.0
H322 H 0.5063 0.4928 0.18584 0.0
H323 H 0.38236 0.54257 0.16575 0.0
H324 H 0.37457 0.55877 0.14503 0.0
H325 H 0.43955 0.57577 0.14097 0.0
H326 H 0.44721 0.55934 0.16161 0.0
H327 H 0.44887 0.57046 0.18308 0.0
H328 H 0.44419 0.6013 0.19648 0.0
H329 H 0.3825 0.57963 0.20689 0.0
H330 H 0.38765 0.5486 0.19372 0.0
H331 H 0.42429 0.50971 0.16111 0.0
H332 H 0.44993 0.48199 0.16166 0.0
H333 H 0.47515 0.50684 0.19684 0.0
N334 N 0.41894 0.54106 0.17777 0.0
H335 H 0.44981 0.53495 0.19623 0.0
C336 C 0.53219 0.42156 0.16522 0.0
C337 C 0.53127 0.40226 0.159 0.0
C338 C 0.54167 0.39917 0.14741 0.0
C339 C 0.55316 0.41544 0.14173 0.0
C340 C 0.55395 0.43488 0.14798 0.0
C341 C 0.54368 0.43789 0.15965 0.0
C342 C 0.53426 0.4173 0.18839 0.0
C343 C 0.55451 0.42501 0.19063 0.0
C344 C 0.56739 0.41546 0.19973 0.0
C345 C 0.56012 0.39828 0.20683 0.0
C346 C 0.53933 0.39169 0.20518 0.0
C347 C 0.52659 0.4011 0.19602 0.0
C348 C 0.50798 0.4409 0.17904 0.0
C349 C 0.48693 0.43777 0.17602 0.0
C350 C 0.47282 0.4543 0.17644 0.0
C351 C 0.47955 0.47445 0.17982 0.0
C352 C 0.50061 0.47746 0.18325 0.0
C353 C 0.51474 0.4608 0.18287 0.0
C354 C 0.41524 0.54985 0.16523 0.0
C355 C 0.3949 0.54966 0.16031 0.0
C356 C 0.39052 0.55885 0.14849 0.0
C357 C 0.40646 0.56857 0.14141 0.0
C358 C 0.42693 0.5686 0.14629 0.0
C359 C 0.43132 0.55924 0.15808 0.0
C360 C 0.41854 0.55717 0.18742 0.0
C361 C 0.43454 0.57215 0.18845 0.0
C362 C 0.43176 0.58985 0.19608 0.0
C363 C 0.41286 0.59311 0.20266 0.0
C364 C 0.39737 0.57757 0.20211 0.0
C365 C 0.40023 0.55981 0.19457 0.0
C366 C 0.43539 0.52541 0.1782 0.0
C367 C 0.43559 0.50964 0.16882 0.0
C368 C 0.45013 0.49352 0.16924 0.0
C369 C 0.46466 0.49221 0.17928 0.0
C370 C 0.46443 0.50765 0.18883 0.0
C371 C 0.44984 0.52392 0.18841 0.0
H372 H 0.43583 0.96702 0.40913 0.0
N373 N 0.45399 0.94196 0.42721 0.0
H374 H 0.42409 0.95629 0.38786 0.0
H375 H 0.46025 0.90543 0.41593 0.0
H376 H 0.44917 0.89467 0.39448 0.0
H377 H 0.45496 0.9145 0.44624 0.0
H378 H 0.42552 0.90224 0.45916 0.0
H379 H 0.41463 0.95892 0.42763 0.0
H380 H 0.38566 0.94787 0.44095 0.0
H381 H 0.44059 0.98115 0.43498 0.0
H382 H 0.49451 0.94599 0.42284 0.0
H383 H 0.46163 0.01241 0.43629 0.0
H384 H 0.51561 0.97767 0.42352 0.0
H385 H 0.5365 0.10981 0.41601 0.0
H386 H 0.54995 0.11991 0.39494 0.0
H387 H 0.57073 0.05667 0.38862 0.0
H388 H 0.55705 0.04669 0.40958 0.0
H389 H 0.57916 0.05671 0.42816 0.0
H390 H 0.60742 0.06798 0.4421 0.0
H391 H 0.56561 0.11094 0.46097 0.0
H392 H 0.53707 0.09938 0.44691 0.0
H393 H 0.49917 0.06878 0.42237 0.0
H394 H 0.47804 0.03711 0.42302 0.0
H395 H 0.53156 0.00264 0.43677 0.0
N396 N 0.53954 0.07291 0.42734 0.0
H397 H 0.55267 0.03388 0.43545 0.0
C398 C 0.44885 0.9369 0.41413 0.0
C399 C 0.43892 0.95125 0.40597 0.0
C400 C 0.43232 0.94512 0.39377 0.0
C401 C 0.43555 0.92456 0.38949 0.0
C402 C 0.4461 0.9105 0.39755 0.0
C403 C 0.45261 0.91663 0.40974 0.0
C404 C 0.43719 0.93773 0.43607 0.0
C405 C 0.43992 0.92204 0.44524 0.0
C406 C 0.42305 0.91511 0.45263 0.0
C407 C 0.40307 0.92391 0.45104 0.0
C408 C 0.40065 0.94037 0.44226 0.0
C409 C 0.4174 0.94699 0.43474 0.0
C410 C 0.46597 0.96089 0.42887 0.0
C411 C 0.45693 0.97997 0.4326 0.0
C412 C 0.46905 0.99808 0.43324 0.0
C413 C 0.49037 0.9977 0.42997 0.0
C414 C 0.49936 0.97859 0.42634 0.0
C415 C 0.48731 0.96045 0.42587 0.0
C416 C 0.54568 0.07759 0.41436 0.0
C417 C 0.54368 0.09811 0.40997 0.0
C418 C 0.55152 0.10385 0.398 0.0
C419 C 0.56153 0.08911 0.39016 0.0
C420 C 0.56294 0.06834 0.39439 0.0
C421 C 0.55515 0.06262 0.40639 0.0
C422 C 0.55581 0.07707 0.43658 0.0
C423 C 0.57582 0.06816 0.43548 0.0
C424 C 0.59203 0.07461 0.44348 0.0
C425 C 0.58872 0.09033 0.45264 0.0
C426 C 0.56861 0.09885 0.45396 0.0
C427 C 0.5523 0.09219 0.44603 0.0
C428 C 0.52748 0.054 0.4289 0.0
C429 C 0.50626 0.05439 0.4256 0.0
C430 C 0.49419 0.03626 0.42606 0.0
C431 C 0.50304 0.01722 0.42997 0.0
C432 C 0.52426 0.01691 0.43351 0.0
C433 C 0.53639 0.035 0.43288 0.0
H434 H 0.04688 0.9194 0.66858 0.0
N435 N 0.05583 0.9575 0.67922 0.0
H436 H 0.05785 0.90695 0.64763 0.0
H437 H 0.07626 0.97872 0.66129 0.0
H438 H 0.0869 0.96653 0.64002 0.0
H439 H 0.09368 0.95532 0.68941 0.0
H440 H 0.10739 0.92821 0.70353 0.0
H441 H 0.03241 0.92753 0.69168 0.0
H442 H 0.04578 0.90092 0.70603 0.0
H443 H 0.0173 0.94176 0.6727 0.0
H444 H 0.04885 0.99568 0.68799 0.0
H445 H 0.98413 0.9601 0.67366 0.0
H446 H 0.0157 0.01464 0.68848 0.0
H447 H 0.88358 0.03494 0.66631 0.0
H448 H 0.87356 0.04973 0.6456 0.0
H449 H 0.93741 0.06933 0.63942 0.0
H450 H 0.94709 0.05507 0.66022 0.0
H451 H 0.94497 0.07184 0.68051 0.0
H452 H 0.93585 0.10297 0.69275 0.0
H453 H 0.88039 0.07209 0.70676 0.0
H454 H 0.88962 0.04092 0.69438 0.0
H455 H 0.93435 0.00676 0.66169 0.0
H456 H 0.96657 0.98703 0.66276 0.0
H457 H 0.98213 0.01733 0.69846 0.0
N458 N 0.92077 0.03687 0.6777 0.0
H459 H 0.95035 0.03761 0.69723 0.0
C460 C 0.0609 0.95006 0.66655 0.0
C461 C 0.0555 0.92987 0.66242 0.0
C462 C 0.0617 0.92278 0.65036 0.0
C463 C 0.07332 0.93571 0.64214 0.0
C464 C 0.07825 0.95605 0.64619 0.0
C465 C 0.07208 0.96311 0.65828 0.0
C466 C 0.06209 0.94359 0.6894 0.0
C467 C 0.08307 0.94374 0.69325 0.0
C468 C 0.09085 0.92826 0.70135 0.0
C469 C 0.07772 0.91225 0.70582 0.0
C470 C 0.0564 0.91281 0.70257 0.0
C471 C 0.04866 0.92824 0.69441 0.0
C472 C 0.03566 0.96737 0.68035 0.0
C473 C 0.01713 0.95754 0.67633 0.0
C474 C 0.99811 0.96817 0.67677 0.0
C475 C 0.99719 0.98895 0.68105 0.0
C476 C 0.01571 0.99858 0.68528 0.0
C477 C 0.0347 0.98784 0.68496 0.0
C478 C 0.916 0.04381 0.66483 0.0
C479 C 0.89541 0.04222 0.66039 0.0
C480 C 0.88976 0.05063 0.64854 0.0
C481 C 0.90467 0.06081 0.64086 0.0
C482 C 0.92545 0.06193 0.64518 0.0
C483 C 0.93105 0.05364 0.65706 0.0
C484 C 0.91785 0.05404 0.68649 0.0
C485 C 0.93099 0.07165 0.68632 0.0
C486 C 0.92573 0.08946 0.6933 0.0
C487 C 0.90729 0.09003 0.7006 0.0
C488 C 0.89477 0.07206 0.70129 0.0
C489 C 0.89999 0.05427 0.69425 0.0
C490 C 0.94017 0.02504 0.67882 0.0
C491 C 0.94483 0.00961 0.66964 0.0
C492 C 0.96321 0.99799 0.67037 0.0
C493 C 0.9772 0.00081 0.68059 0.0
C494 C 0.97206 0.01525 0.69022 0.0
C495 C 0.95372 0.02703 0.68944 0.0
In496 In 0.32601 0.67957 0.00178 0.0
O497 O 0.32225 0.71438 0.00611 0.0
O498 O 0.35101 0.70415 0.99818 0.0
C499 C 0.28454 0.67124 0.0005 0.0
C500 C 0.34288 0.666 0.02394 0.0
C501 C 0.33894 0.659 0.98065 0.0
O502 O 0.29313 0.68486 0.99357 0.0
O503 O 0.29671 0.66231 0.0082 0.0
O504 O 0.33753 0.65045 0.99149 0.0
O505 O 0.33384 0.678 0.98044 0.0
C506 C 0.34036 0.71921 0.00237 0.0
O507 O 0.34903 0.65973 0.01313 0.0
O508 O 0.32833 0.67926 0.02358 0.0
In509 In 0.33456 0.83524 0.24834 0.0
O510 O 0.32728 0.80123 0.24331 0.0
O511 O 0.35844 0.80894 0.24841 0.0
C512 C 0.29395 0.84643 0.25052 0.0
C513 C 0.35116 0.85061 0.22656 0.0
C514 C 0.34935 0.85053 0.27071 0.0
O515 O 0.30112 0.83005 0.25555 0.0
O516 O 0.30716 0.8569 0.24429 0.0
O517 O 0.34887 0.86109 0.26054 0.0
O518 O 0.34232 0.83225 0.26963 0.0
C519 C 0.34579 0.79498 0.24494 0.0
O520 O 0.35958 0.85305 0.23738 0.0
O521 O 0.33427 0.84043 0.2267 0.0
In522 In 0.1694 0.83405 0.50298 0.0
O523 O 0.14412 0.85027 0.51464 0.0
O524 O 0.1715 0.84082 0.52448 0.0
C525 C 0.15575 0.84934 0.48041 0.0
C526 C 0.15728 0.79382 0.50525 0.0
C527 C 0.20987 0.84537 0.50034 0.0
O528 O 0.15287 0.85851 0.49094 0.0
O529 O 0.1654 0.83223 0.48123 0.0
O530 O 0.20393 0.82667 0.49943 0.0
O531 O 0.19551 0.85819 0.5028 0.0
C532 C 0.15383 0.84945 0.52512 0.0
O533 O 0.17514 0.80008 0.50862 0.0
O534 O 0.14567 0.80777 0.5006 0.0
In535 In 0.1653 0.67789 0.75398 0.0
O536 O 0.13969 0.6616 0.7654 0.0
O537 O 0.16554 0.6738 0.77573 0.0
C538 C 0.15137 0.66291 0.73134 0.0
C539 C 0.20386 0.66146 0.75666 0.0
C540 C 0.15722 0.71926 0.75203 0.0
O541 O 0.14208 0.65963 0.74179 0.0
O542 O 0.16772 0.6738 0.73227 0.0
O543 O 0.17447 0.71143 0.74879 0.0
O544 O 0.14427 0.70635 0.75642 0.0
C545 C 0.1484 0.6641 0.77612 0.0
O546 O 0.1998 0.68018 0.75947 0.0
O547 O 0.18853 0.65116 0.75244 0.0
In548 In 0.82626 0.17571 0.50133 0.0
O549 O 0.82177 0.20919 0.5086 0.0
O550 O 0.84865 0.20259 0.49746 0.0
C551 C 0.78579 0.16554 0.49749 0.0
C552 C 0.83965 0.16022 0.52395 0.0
C553 C 0.84186 0.15791 0.47995 0.0
O554 O 0.79259 0.18379 0.49567 0.0
O555 O 0.79931 0.1527 0.50132 0.0
O556 O 0.84458 0.15037 0.49099 0.0
O557 O 0.83136 0.17455 0.47969 0.0
C558 C 0.83844 0.21597 0.50368 0.0
O559 O 0.85141 0.16194 0.51433 0.0
O560 O 0.82121 0.16653 0.52223 0.0
In561 In 0.83155 0.32998 0.7515 0.0
O562 O 0.85984 0.3436 0.7411 0.0
O563 O 0.83195 0.33922 0.73042 0.0
C564 C 0.84739 0.34406 0.77384 0.0
C565 C 0.83894 0.28907 0.74717 0.0
C566 C 0.79155 0.34267 0.75462 0.0
O567 O 0.84695 0.35507 0.76383 0.0
O568 O 0.83974 0.32605 0.77259 0.0
O569 O 0.7981 0.32549 0.75891 0.0
O570 O 0.80505 0.3532 0.74869 0.0
C571 C 0.85071 0.34524 0.73044 0.0
O572 O 0.82333 0.29839 0.74252 0.0
O573 O 0.85051 0.30027 0.75409 0.0
In574 In 0.67087 0.34106 0.00313 0.0
O575 O 0.67613 0.30665 0.00774 0.0
O576 O 0.64665 0.31538 0.0001 0.0
C577 C 0.71172 0.35178 0.00153 0.0
C578 C 0.65738 0.35654 0.02573 0.0
C579 C 0.65471 0.35609 0.98109 0.0
O580 O 0.70499 0.3342 0.99803 0.0
O581 O 0.69796 0.36371 0.00607 0.0
O582 O 0.64626 0.35905 0.99184 0.0
O583 O 0.67113 0.34525 0.98142 0.0
C584 C 0.6581 0.30092 0.0043 0.0
O585 O 0.65663 0.36679 0.01544 0.0
O586 O 0.66517 0.33857 0.02467 0.0
In587 In 0.67388 0.17729 0.25229 0.0
O588 O 0.65423 0.15329 0.26296 0.0
O589 O 0.66927 0.17685 0.27394 0.0
C590 C 0.65871 0.16377 0.22962 0.0
C591 C 0.71348 0.16348 0.25524 0.0
C592 C 0.66362 0.21815 0.25073 0.0
O593 O 0.64826 0.16303 0.23985 0.0
O594 O 0.67672 0.17153 0.23079 0.0
O595 O 0.68012 0.21097 0.24581 0.0
O596 O 0.65262 0.20484 0.25649 0.0
C597 C 0.65759 0.16098 0.2739 0.0
O598 O 0.70817 0.18182 0.25817 0.0
O599 O 0.69894 0.1524 0.25077 0.0
H600 H 0.13373 0.95678 0.27699 0.0
H601 H 0.1616 0.93806 0.26581 0.0
H602 H 0.14602 0.88204 0.28658 0.0
H603 H 0.11794 0.90061 0.29762 0.0
H604 H 0.19451 0.92236 0.2786 0.0
H605 H 0.15656 0.85879 0.25115 0.0
H606 H 0.14218 0.8808 0.25736 0.0
H607 H 0.14898 0.85942 0.26769 0.0
C608 C 0.13596 0.94035 0.27894 0.0
C609 C 0.12372 0.93015 0.28818 0.0
C610 C 0.15184 0.92966 0.27254 0.0
C611 C 0.15582 0.90861 0.27528 0.0
C612 C 0.14295 0.89813 0.28407 0.0
H613 H 0.26362 0.82871 0.26545 0.0
H614 H 0.22905 0.84309 0.27042 0.0
C615 C 0.12693 0.90878 0.2904 0.0
C616 C 0.17502 0.89854 0.27029 0.0
H617 H 0.19358 0.85601 0.25418 0.0
C618 C 0.19426 0.90799 0.27312 0.0
C619 C 0.17469 0.87965 0.26328 0.0
C620 C 0.15448 0.86915 0.25958 0.0
C621 C 0.21319 0.89894 0.26934 0.0
C622 C 0.21289 0.88005 0.26237 0.0
C623 C 0.1937 0.87053 0.2595 0.0
C624 C 0.23253 0.87003 0.25815 0.0
C625 C 0.23341 0.90941 0.27313 0.0
C626 C 0.2456 0.88013 0.24933 0.0
C627 C 0.26532 0.87204 0.24653 0.0
C628 C 0.27226 0.85363 0.25245 0.0
C629 C 0.25871 0.84296 0.26078 0.0
C630 C 0.23897 0.85111 0.2636 0.0
H631 H 0.23107 0.92113 0.28083 0.0
H632 H 0.24501 0.89774 0.27645 0.0
H633 H 0.24005 0.91754 0.26468 0.0
H634 H 0.24077 0.89462 0.2449 0.0
H635 H 0.27533 0.88051 0.23998 0.0
H636 H 0.06474 0.62128 0.53522 0.0
H637 H 0.07513 0.65396 0.52485 0.0
H638 H 0.13973 0.64066 0.53326 0.0
H639 H 0.12953 0.60808 0.54353 0.0
H640 H 0.09452 0.68619 0.53667 0.0
H641 H 0.14363 0.65907 0.49636 0.0
H642 H 0.12638 0.64183 0.50503 0.0
H643 H 0.15171 0.64827 0.5114 0.0
C644 C 0.08118 0.62522 0.5347 0.0
C645 C 0.09632 0.61205 0.54015 0.0
C646 C 0.08709 0.64384 0.52875 0.0
C647 C 0.10824 0.64961 0.5281 0.0
C648 C 0.12339 0.63628 0.53331 0.0
H649 H 0.17948 0.76113 0.51502 0.0
H650 H 0.16674 0.72584 0.5195 0.0
C651 C 0.11751 0.61764 0.5392 0.0
C652 C 0.11434 0.67039 0.52312 0.0
H653 H 0.14743 0.69503 0.50237 0.0
C654 C 0.10584 0.68812 0.52903 0.0
C655 C 0.12921 0.67289 0.5132 0.0
C656 C 0.1381 0.65449 0.50604 0.0
C657 C 0.11234 0.70825 0.52561 0.0
C658 C 0.12756 0.71071 0.51592 0.0
C659 C 0.1358 0.69304 0.50983 0.0
C660 C 0.13556 0.73155 0.51232 0.0
C661 C 0.10342 0.72672 0.53271 0.0
C662 C 0.12234 0.74624 0.50656 0.0
C663 C 0.12956 0.76638 0.50399 0.0
C664 C 0.15014 0.77213 0.50713 0.0
C665 C 0.16353 0.75717 0.51254 0.0
C666 C 0.1563 0.73701 0.51507 0.0
H667 H 0.09499 0.72197 0.54154 0.0
H668 H 0.11599 0.73786 0.53536 0.0
H669 H 0.09223 0.73502 0.52639 0.0
H670 H 0.10636 0.74221 0.50422 0.0
H671 H 0.11891 0.77754 0.49976 0.0
H672 H 0.37793 0.59881 0.80248 0.0
H673 H 0.34935 0.61744 0.79191 0.0
H674 H 0.32959 0.56032 0.7738 0.0
H675 H 0.35811 0.54156 0.78434 0.0
H676 H 0.3357 0.6221 0.76578 0.0
H677 H 0.27916 0.5782 0.79588 0.0
H678 H 0.30683 0.57853 0.79916 0.0
H679 H 0.29659 0.56224 0.78663 0.0
C680 C 0.3678 0.59031 0.79601 0.0
C681 C 0.3701 0.56867 0.79435 0.0
C682 C 0.35145 0.60097 0.79002 0.0
C683 C 0.33716 0.59015 0.78229 0.0
C684 C 0.34023 0.56884 0.77994 0.0
H685 H 0.21598 0.62183 0.75094 0.0
H686 H 0.24941 0.60524 0.75584 0.0
C687 C 0.35651 0.55817 0.78596 0.0
C688 C 0.31816 0.60077 0.77752 0.0
H689 H 0.26505 0.60075 0.78031 0.0
C690 C 0.32023 0.61747 0.76892 0.0
C691 C 0.29804 0.59474 0.78173 0.0
C692 C 0.29492 0.57758 0.79144 0.0
C693 C 0.30259 0.62808 0.76424 0.0
C694 C 0.28248 0.62198 0.76845 0.0
C695 C 0.28048 0.6053 0.77704 0.0
C696 C 0.26319 0.63281 0.7643 0.0
C697 C 0.3056 0.64547 0.7547 0.0
C698 C 0.2599 0.65386 0.76737 0.0
C699 C 0.24079 0.6634 0.76456 0.0
C700 C 0.22462 0.65198 0.75874 0.0
C701 C 0.22813 0.63103 0.75544 0.0
C702 C 0.24722 0.62153 0.75822 0.0
H703 H 0.32109 0.64454 0.74994 0.0
H704 H 0.29322 0.64515 0.74725 0.0
H705 H 0.30467 0.66066 0.75976 0.0
H706 H 0.27184 0.66273 0.77231 0.0
H707 H 0.23849 0.67954 0.76726 0.0
H708 H 0.40806 0.88602 0.05116 0.0
H709 H 0.38802 0.85896 0.04017 0.0
H710 H 0.43793 0.85126 0.01287 0.0
H711 H 0.45805 0.87857 0.0237 0.0
H712 H 0.37532 0.85198 0.01306 0.0
H713 H 0.43216 0.79425 0.03229 0.0
H714 H 0.43027 0.82047 0.03845 0.0
H715 H 0.44299 0.8157 0.02341 0.0
C716 C 0.41456 0.87904 0.0426 0.0
C717 C 0.43477 0.88433 0.03838 0.0
C718 C 0.4031 0.86351 0.03636 0.0
C719 C 0.41165 0.85297 0.02584 0.0
C720 C 0.43121 0.85908 0.02109 0.0
H721 H 0.37703 0.73377 0.99263 0.0
H722 H 0.39328 0.76768 0.99652 0.0
C723 C 0.44269 0.87462 0.02731 0.0
C724 C 0.40102 0.83428 0.02068 0.0
H725 H 0.4048 0.78128 0.01963 0.0
C726 C 0.38176 0.8365 0.01441 0.0
C727 C 0.40948 0.81415 0.02253 0.0
C728 C 0.42978 0.81084 0.02961 0.0
C729 C 0.37078 0.81904 0.00982 0.0
C730 C 0.37911 0.79886 0.01185 0.0
C731 C 0.39848 0.79674 0.01802 0.0
C732 C 0.36788 0.77955 0.00809 0.0
C733 C 0.35052 0.82238 0.00273 0.0
C734 C 0.34805 0.77504 0.01316 0.0
C735 C 0.33865 0.7557 0.01085 0.0
C736 C 0.34907 0.74044 0.00361 0.0
C737 C 0.36865 0.7452 0.99827 0.0
C738 C 0.37794 0.76457 0.00048 0.0
H739 H 0.3497 0.83827 0.99853 0.0
H740 H 0.3485 0.81075 0.99495 0.0
H741 H 0.33731 0.8207 0.00953 0.0
H742 H 0.3402 0.78612 0.01932 0.0
H743 H 0.32361 0.75241 0.01516 0.0
H744 H 0.12117 0.60266 0.94837 0.0
H745 H 0.14721 0.62391 0.95946 0.0
H746 H 0.14887 0.57937 0.99037 0.0
H747 H 0.12294 0.55786 0.97924 0.0
H748 H 0.15145 0.64267 0.98368 0.0
H749 H 0.20851 0.57842 0.97644 0.0
H750 H 0.18331 0.57875 0.96872 0.0
H751 H 0.18554 0.57121 0.98525 0.0
C752 C 0.12667 0.59764 0.95769 0.0
C753 C 0.12018 0.57847 0.96288 0.0
C754 C 0.1416 0.60978 0.96399 0.0
C755 C 0.15027 0.60299 0.9756 0.0
C756 C 0.14269 0.58465 0.98128 0.0
H757 H 0.26322 0.6427 0.01469 0.0
H758 H 0.22867 0.62813 0.01027 0.0
C759 C 0.12788 0.57241 0.97493 0.0
C760 C 0.16853 0.61407 0.98107 0.0
H761 H 0.2205 0.60812 0.98736 0.0
C762 C 0.16653 0.63512 0.98457 0.0
C763 C 0.18824 0.60421 0.98209 0.0
C764 C 0.19167 0.58197 0.97783 0.0
C765 C 0.18375 0.64655 0.98913 0.0
C766 C 0.20344 0.63669 0.99006 0.0
C767 C 0.20533 0.61559 0.98672 0.0
C768 C 0.22265 0.64795 0.99393 0.0
C769 C 0.18074 0.66901 0.99297 0.0
C770 C 0.23056 0.66421 0.98634 0.0
C771 C 0.25033 0.67259 0.98885 0.0
C772 C 0.26255 0.6647 0.99893 0.0
C773 C 0.25419 0.64907 0.00684 0.0
C774 C 0.23445 0.64074 0.00434 0.0
H775 H 0.16408 0.67252 0.99502 0.0
H776 H 0.19023 0.6729 0.00155 0.0
H777 H 0.18587 0.67924 0.985 0.0
H778 H 0.2219 0.66972 0.97809 0.0
H779 H 0.25641 0.68457 0.98256 0.0
H780 H 0.42363 0.63212 0.19442 0.0
H781 H 0.41351 0.66555 0.20359 0.0
H782 H 0.38058 0.63383 0.2339 0.0
H783 H 0.3915 0.6002 0.22513 0.0
H784 H 0.37371 0.67908 0.206 0.0
H785 H 0.41228 0.67835 0.25359 0.0
H786 H 0.41922 0.66038 0.24098 0.0
H787 H 0.39627 0.6559 0.25052 0.0
C788 C 0.41478 0.63217 0.20325 0.0
C789 C 0.40846 0.6134 0.20905 0.0
C790 C 0.40882 0.65134 0.20841 0.0
C791 C 0.39641 0.65221 0.21947 0.0
C792 C 0.39045 0.63356 0.22548 0.0
H793 H 0.32126 0.76162 0.23858 0.0
H794 H 0.33277 0.72626 0.23321 0.0
C795 C 0.39651 0.61433 0.22036 0.0
C796 C 0.3885 0.67261 0.22409 0.0
H797 H 0.38774 0.70548 0.24982 0.0
C798 C 0.37681 0.68487 0.21558 0.0
C799 C 0.39268 0.68018 0.23655 0.0
C800 C 0.40596 0.66813 0.24592 0.0
C801 C 0.3692 0.70452 0.21916 0.0
C802 C 0.37295 0.71191 0.23172 0.0
C803 C 0.38468 0.69967 0.24024 0.0
C804 C 0.36567 0.73274 0.23595 0.0
C805 C 0.35773 0.71742 0.20932 0.0
C806 C 0.38025 0.74785 0.23977 0.0
C807 C 0.3737 0.76795 0.24298 0.0
C808 C 0.35243 0.77331 0.24242 0.0
C809 C 0.33776 0.75798 0.23899 0.0
C810 C 0.34433 0.73782 0.23586 0.0
H811 H 0.36083 0.7119 0.19942 0.0
H812 H 0.34067 0.71621 0.21106 0.0
H813 H 0.36225 0.7341 0.20999 0.0
H814 H 0.39678 0.74423 0.23996 0.0
H815 H 0.38536 0.77941 0.24563 0.0
H816 H 0.36339 0.91914 0.44173 0.0
H817 H 0.33305 0.90469 0.45253 0.0
H818 H 0.37042 0.8923 0.48605 0.0
H819 H 0.40073 0.90813 0.47559 0.0
H820 H 0.32664 0.86633 0.46089 0.0
H821 H 0.32109 0.92118 0.50191 0.0
H822 H 0.33792 0.92594 0.48837 0.0
H823 H 0.34569 0.90793 0.50068 0.0
C824 C 0.36515 0.91388 0.45152 0.0
C825 C 0.38455 0.91514 0.45782 0.0
C826 C 0.34778 0.90535 0.45764 0.0
C827 C 0.34934 0.89764 0.47017 0.0
C828 C 0.3687 0.89856 0.47648 0.0
H829 H 0.24457 0.82081 0.49789 0.0
H830 H 0.27999 0.83196 0.49215 0.0
C831 C 0.3861 0.90737 0.47041 0.0
C832 C 0.33068 0.88822 0.47633 0.0
H833 H 0.29712 0.89318 0.50157 0.0
C834 C 0.32023 0.87214 0.46982 0.0
C835 C 0.32227 0.89591 0.48794 0.0
C836 C 0.33218 0.91381 0.49509 0.0
C837 C 0.30129 0.86396 0.47436 0.0
C838 C 0.29291 0.87157 0.486 0.0
C839 C 0.30366 0.88726 0.4927 0.0
C840 C 0.27217 0.86473 0.4908 0.0
C841 C 0.29 0.848 0.46628 0.0
C842 C 0.25629 0.87952 0.4926 0.0
C843 C 0.23621 0.87324 0.49613 0.0
C844 C 0.23159 0.85201 0.49784 0.0
C845 C 0.24766 0.83726 0.4965 0.0
C846 C 0.26785 0.8436 0.49314 0.0
H847 H 0.2958 0.84784 0.45625 0.0
H848 H 0.29259 0.83226 0.47038 0.0
H849 H 0.27293 0.85105 0.46611 0.0
H850 H 0.25926 0.89592 0.49091 0.0
H851 H 0.22416 0.88497 0.49712 0.0
H852 H 0.108 0.9121 0.72453 0.0
H853 H 0.12484 0.88162 0.73425 0.0
H854 H 0.08419 0.84102 0.71273 0.0
H855 H 0.06782 0.87116 0.70268 0.0
H856 H 0.10831 0.84793 0.74869 0.0
H857 H 0.14314 0.82128 0.70296 0.0
H858 H 0.13245 0.8471 0.70503 0.0
H859 H 0.11544 0.82533 0.70194 0.0
C860 C 0.10267 0.89667 0.72186 0.0
C861 C 0.08661 0.89409 0.71278 0.0
C862 C 0.11223 0.87931 0.72747 0.0
C863 C 0.10599 0.8591 0.72402 0.0
C864 C 0.08947 0.85649 0.71535 0.0
H865 H 0.12018 0.73852 0.75696 0.0
H866 H 0.1102 0.77416 0.75152 0.0
C867 C 0.07995 0.87378 0.70974 0.0
C868 C 0.11685 0.84061 0.72926 0.0
H869 H 0.14266 0.79657 0.72008 0.0
C870 C 0.11604 0.83679 0.74248 0.0
C871 C 0.12732 0.82635 0.72117 0.0
C872 C 0.12986 0.83029 0.707 0.0
C873 C 0.12453 0.8185 0.74774 0.0
C874 C 0.13374 0.80357 0.73951 0.0
C875 C 0.13543 0.80792 0.72638 0.0
C876 C 0.14057 0.78278 0.74409 0.0
C877 C 0.12347 0.81532 0.76204 0.0
C878 C 0.16092 0.77567 0.7416 0.0
C879 C 0.16661 0.75519 0.74457 0.0
C880 C 0.15199 0.74145 0.75002 0.0
C881 C 0.13181 0.74878 0.75282 0.0
C882 C 0.12613 0.76921 0.74982 0.0
H883 H 0.12258 0.83045 0.76719 0.0
H884 H 0.10918 0.80631 0.7644 0.0
H885 H 0.13725 0.80655 0.7656 0.0
H886 H 0.17227 0.78585 0.7371 0.0
H887 H 0.18226 0.74996 0.7423 0.0
H888 H 0.62707 0.45156 0.77804 0.0
H889 H 0.65611 0.43309 0.76785 0.0
H890 H 0.64766 0.3816 0.79388 0.0
H891 H 0.61882 0.39997 0.80419 0.0
H892 H 0.69208 0.42186 0.78134 0.0
H893 H 0.65521 0.35228 0.75924 0.0
H894 H 0.64043 0.37506 0.76388 0.0
H895 H 0.64838 0.35637 0.77573 0.0
C896 C 0.63123 0.43619 0.78149 0.0
C897 C 0.62064 0.42726 0.79195 0.0
C898 C 0.64775 0.42563 0.77562 0.0
C899 C 0.65389 0.40589 0.78002 0.0
C900 C 0.64288 0.3966 0.79013 0.0
H901 H 0.76156 0.326 0.77023 0.0
H902 H 0.72748 0.34112 0.77557 0.0
C903 C 0.62637 0.40715 0.79602 0.0
C904 C 0.67318 0.39607 0.77502 0.0
H905 H 0.69239 0.35201 0.76092 0.0
C906 C 0.69213 0.40669 0.77674 0.0
C907 C 0.67319 0.37618 0.76917 0.0
C908 C 0.6532 0.36435 0.76678 0.0
C909 C 0.71119 0.39779 0.77304 0.0
C910 C 0.71125 0.37789 0.76718 0.0
C911 C 0.69228 0.36728 0.76538 0.0
C912 C 0.73098 0.36781 0.76307 0.0
C913 C 0.73115 0.4095 0.77585 0.0
C914 C 0.74393 0.37748 0.75401 0.0
C915 C 0.76342 0.36899 0.75104 0.0
C916 C 0.77019 0.35052 0.75695 0.0
C917 C 0.75677 0.34029 0.76556 0.0
C918 C 0.73731 0.34889 0.7686 0.0
H919 H 0.72883 0.42166 0.78329 0.0
H920 H 0.74365 0.39874 0.77911 0.0
H921 H 0.73659 0.41736 0.76699 0.0
H922 H 0.73914 0.39184 0.74942 0.0
H923 H 0.77333 0.37711 0.74426 0.0
H924 H 0.62636 0.12172 0.04773 0.0
H925 H 0.63591 0.15436 0.03734 0.0
H926 H 0.5749 0.15779 0.01999 0.0
H927 H 0.5652 0.12474 0.03023 0.0
H928 H 0.63589 0.16563 0.01068 0.0
H929 H 0.58122 0.21342 0.03999 0.0
H930 H 0.58828 0.18712 0.04433 0.0
H931 H 0.57013 0.19163 0.03153 0.0
C932 C 0.61504 0.12913 0.04152 0.0
C933 C 0.59499 0.12053 0.03979 0.0
C934 C 0.62052 0.14788 0.03564 0.0
C935 C 0.60606 0.15856 0.028 0.0
C936 C 0.58618 0.1499 0.02601 0.0
H937 H 0.61975 0.2853 0.99797 0.0
H938 H 0.60651 0.25004 0.00189 0.0
C939 C 0.58066 0.13105 0.03188 0.0
C940 C 0.61185 0.17904 0.0225 0.0
H941 H 0.60256 0.23123 0.02532 0.0
C942 C 0.6285 0.17998 0.01378 0.0
C943 C 0.60213 0.1977 0.02656 0.0
C944 C 0.58453 0.19759 0.03618 0.0
C945 C 0.63593 0.19915 0.00914 0.0
C946 C 0.62671 0.21785 0.01356 0.0
C947 C 0.60961 0.21686 0.02196 0.0
C948 C 0.63527 0.23864 0.01021 0.0
C949 C 0.65358 0.19918 -0.00043 0.0
C950 C 0.65584 0.24393 0.01359 0.0
C951 C 0.66345 0.26402 0.01134 0.0
C952 C 0.65057 0.27926 0.00578 0.0
C953 C 0.63007 0.27387 0.00225 0.0
C954 C 0.62247 0.25375 0.00448 0.0
H955 H 0.65436 0.18421 0.99423 0.0
H956 H 0.6519 0.21213 0.99259 0.0
H957 H 0.66861 0.20121 0.00472 0.0
H958 H 0.66584 0.23268 0.01829 0.0
H959 H 0.67927 0.26775 0.01425 0.0
H960 H 0.88817 0.10092 0.30188 0.0
H961 H 0.86011 0.12067 0.29154 0.0
H962 H 0.83884 0.0647 0.27273 0.0
H963 H 0.86677 0.04482 0.28308 0.0
H964 H 0.84614 0.12686 0.26567 0.0
H965 H 0.78916 0.08273 0.29526 0.0
H966 H 0.81689 0.08229 0.29837 0.0
H967 H 0.80603 0.06665 0.28572 0.0
C968 C 0.87783 0.09293 0.29529 0.0
C969 C 0.87949 0.07128 0.29339 0.0
C970 C 0.86178 0.10422 0.28943 0.0
C971 C 0.84719 0.09404 0.28159 0.0
C972 C 0.84972 0.07274 0.27896 0.0
H973 H 0.72787 0.12502 0.24882 0.0
H974 H 0.76163 0.10963 0.25417 0.0
C975 C 0.86566 0.06142 0.28486 0.0
C976 C 0.82836 0.10521 0.27706 0.0
H977 H 0.77522 0.10534 0.2796 0.0
C978 C 0.83062 0.12222 0.26871 0.0
C979 C 0.80817 0.09924 0.28118 0.0
C980 C 0.80484 0.08187 0.29072 0.0
C981 C 0.81308 0.13306 0.26407 0.0
C982 C 0.7929 0.1268 0.26804 0.0
C983 C 0.79072 0.10998 0.2765 0.0
C984 C 0.77364 0.13724 0.26352 0.0
C985 C 0.81619 0.15078 0.25478 0.0
C986 C 0.76929 0.15798 0.2669 0.0
C987 C 0.74994 0.16686 0.26385 0.0
C988 C 0.73464 0.15505 0.25746 0.0
C989 C 0.73932 0.1345 0.25378 0.0
C990 C 0.7586 0.12568 0.25681 0.0
H991 H 0.83212 0.1507 0.25056 0.0
H992 H 0.80452 0.15002 0.24692 0.0
H993 H 0.814 0.16579 0.25989 0.0
H994 H 0.78055 0.16704 0.2723 0.0
H995 H 0.74673 0.1827 0.26684 0.0
H996 H 0.90211 0.38691 0.55335 0.0
H997 H 0.8818 0.35955 0.54266 0.0
H998 H 0.93508 0.34444 0.51916 0.0
H999 H 0.95555 0.37151 0.52995 0.0
H1000 H 0.87115 0.34889 0.51709 0.0
H1001 H 0.9242 0.29078 0.53933 0.0
H1002 H 0.92408 0.31785 0.54398 0.0
H1003 H 0.93733 0.30979 0.52963 0.0
C1004 C 0.90932 0.37808 0.54569 0.0
C1005 C 0.93047 0.38112 0.54258 0.0
C1006 C 0.89772 0.36244 0.53962 0.0
C1007 C 0.9071 0.34969 0.53034 0.0
C1008 C 0.92771 0.35381 0.52651 0.0
H1009 H 0.87397 0.23328 0.49406 0.0
H1010 H 0.88906 0.26721 0.49935 0.0
C1011 C 0.93936 0.36929 0.53265 0.0
C1012 C 0.89605 0.33096 0.5255 0.0
H1013 H 0.8991 0.27786 0.52478 0.0
C1014 C 0.87722 0.33335 0.51876 0.0
C1015 C 0.9039 0.31069 0.52783 0.0
C1016 C 0.92337 0.30703 0.53569 0.0
C1017 C 0.86628 0.31594 0.51402 0.0
C1018 C 0.87435 0.29574 0.51621 0.0
C1019 C 0.89308 0.2934 0.52301 0.0
C1020 C 0.86365 0.2766 0.51173 0.0
C1021 C 0.84641 0.31926 0.50654 0.0
C1022 C 0.84422 0.27074 0.51683 0.0
C1023 C 0.83555 0.2513 0.51384 0.0
C1024 C 0.84626 0.23739 0.50576 0.0
C1025 C 0.86536 0.24363 0.50033 0.0
C1026 C 0.87399 0.26302 0.50332 0.0
H1027 H 0.84486 0.33564 0.5032 0.0
H1028 H 0.84578 0.30872 0.49811 0.0
H1029 H 0.83282 0.31564 0.51276 0.0
H1030 H 0.83618 0.28083 0.52352 0.0
H1031 H 0.82085 0.24688 0.51819 0.0
H1032 H 0.59869 0.13119 0.45675 0.0
H1033 H 0.63081 0.14504 0.46626 0.0
H1034 H 0.6514 0.08248 0.47453 0.0
H1035 H 0.61943 0.06852 0.46492 0.0
H1036 H 0.6502 0.14138 0.49021 0.0
H1037 H 0.6979 0.10533 0.45175 0.0
H1038 H 0.66981 0.10699 0.45088 0.0
H1039 H 0.68203 0.08701 0.46036 0.0
C1040 C 0.60989 0.12042 0.46081 0.0
C1041 C 0.60667 0.09877 0.45998 0.0
C1042 C 0.62825 0.12834 0.4662 0.0
C1043 C 0.64366 0.11476 0.47084 0.0
C1044 C 0.63992 0.0932 0.47071 0.0
H1045 H 0.76891 0.12683 0.49994 0.0
H1046 H 0.73359 0.11566 0.4943 0.0
C1047 C 0.62165 0.08526 0.46526 0.0
C1048 C 0.66409 0.12304 0.47518 0.0
H1049 H 0.7164 0.12075 0.46899 0.0
C1050 C 0.66469 0.13696 0.48556 0.0
C1051 C 0.68292 0.1174 0.46898 0.0
C1052 C 0.6832 0.10353 0.4573 0.0
C1053 C 0.68374 0.14492 0.49014 0.0
C1054 C 0.70255 0.1389 0.48409 0.0
C1055 C 0.70192 0.1252 0.47364 0.0
C1056 C 0.72322 0.14632 0.48851 0.0
C1057 C 0.68372 0.15932 0.50155 0.0
C1058 C 0.72903 0.16731 0.48715 0.0
C1059 C 0.74928 0.17376 0.49033 0.0
C1060 C 0.76399 0.15927 0.49488 0.0
C1061 C 0.75794 0.13836 0.49646 0.0
C1062 C 0.73777 0.13194 0.49325 0.0
H1063 H 0.66842 0.15933 0.50658 0.0
H1064 H 0.69612 0.15478 0.50845 0.0
H1065 H 0.68706 0.17546 0.4983 0.0
H1066 H 0.71809 0.17857 0.48331 0.0
H1067 H 0.75353 0.18995 0.48899 0.0
H1068 H 0.89148 0.09585 0.72476 0.0
H1069 H 0.87915 0.12857 0.73429 0.0
H1070 H 0.89463 0.16123 0.69944 0.0
H1071 H 0.90721 0.12878 0.68999 0.0
H1072 H 0.90782 0.18212 0.72019 0.0
H1073 H 0.82499 0.15864 0.72663 0.0
H1074 H 0.84339 0.14176 0.73442 0.0
H1075 H 0.84318 0.14358 0.71723 0.0
C1076 C 0.89218 0.11002 0.71915 0.0
C1077 C 0.90036 0.10978 0.70665 0.0
C1078 C 0.88504 0.12867 0.72457 0.0
C1079 C 0.88565 0.14729 0.7175 0.0
C1080 C 0.89399 0.14706 0.70507 0.0
H1081 H 0.82108 0.26401 0.72904 0.0
H1082 H 0.83224 0.22898 0.72267 0.0
C1083 C 0.90128 0.12852 0.69971 0.0
C1084 C 0.87803 0.1672 0.72301 0.0
H1085 H 0.83483 0.19152 0.73508 0.0
C1086 C 0.89187 0.18417 0.72347 0.0
C1087 C 0.85714 0.1699 0.72713 0.0
C1088 C 0.84123 0.15258 0.72623 0.0
C1089 C 0.88539 0.20379 0.72785 0.0
C1090 C 0.86464 0.20639 0.73225 0.0
C1091 C 0.85079 0.18942 0.73183 0.0
C1092 C 0.85685 0.22685 0.73683 0.0
C1093 C 0.90069 0.22171 0.72731 0.0
C1094 C 0.86656 0.23699 0.74715 0.0
C1095 C 0.86037 0.25705 0.7507 0.0
C1096 C 0.84411 0.26718 0.74414 0.0
C1097 C 0.83369 0.25659 0.73424 0.0
C1098 C 0.84004 0.23659 0.7306 0.0
H1099 H 0.91375 0.21851 0.72058 0.0
H1100 H 0.89284 0.23634 0.72429 0.0
H1101 H 0.90749 0.22419 0.73696 0.0
H1102 H 0.87919 0.22955 0.7523 0.0
H1103 H 0.86854 0.26475 0.75847 0.0
H1104 H 0.88413 0.44264 0.96889 0.0
H1105 H 0.85147 0.43263 0.97951 0.0
H1106 H 0.86411 0.36799 0.97123 0.0
H1107 H 0.89662 0.3778 0.96068 0.0
H1108 H 0.81848 0.41306 0.96832 0.0
H1109 H 0.84748 0.36492 0.00854 0.0
H1110 H 0.86432 0.38202 -0.00052 0.0
H1111 H 0.85767 0.35661 0.99338 0.0
C1112 C 0.88003 0.42628 0.96946 0.0
C1113 C 0.89305 0.41101 0.96402 0.0
C1114 C 0.86142 0.42059 0.97556 0.0
C1115 C 0.85553 0.39953 0.97637 0.0
C1116 C 0.86861 0.38426 0.97107 0.0
H1117 H 0.74403 0.3291 0.99161 0.0
H1118 H 0.77934 0.34148 0.98661 0.0
C1119 C 0.88721 0.38992 0.96502 0.0
C1120 C 0.83492 0.39358 0.98174 0.0
H1121 H 0.81119 0.36104 0.00319 0.0
C1122 C 0.81689 0.40193 0.97607 0.0
C1123 C 0.83287 0.37898 0.99183 0.0
C1124 C 0.85163 0.37027 0.99875 0.0
C1125 C 0.79688 0.39552 0.97989 0.0
C1126 C 0.79486 0.38054 0.98975 0.0
C1127 C 0.81284 0.37247 0.9956 0.0
C1128 C 0.77415 0.37268 0.9938 0.0
C1129 C 0.77804 0.40427 0.97306 0.0
C1130 C 0.75979 0.38601 -0.00022 0.0
C1131 C 0.73966 0.37898 0.00266 0.0
C1132 C 0.73358 0.35851 -0.00039 0.0
C1133 C 0.74826 0.34497 0.99404 0.0
C1134 C 0.76842 0.352 0.9912 0.0
H1135 H 0.78239 0.41255 0.9641 0.0
H1136 H 0.76681 0.39165 0.97067 0.0
H1137 H 0.76998 0.41551 0.97945 0.0
H1138 H 0.76404 0.40195 0.002 0.0
H1139 H 0.72872 0.38975 0.00699 0.0
H1140 H 0.59964 0.38582 0.2007 0.0
H1141 H 0.62046 0.35911 0.21146 0.0
H1142 H 0.57406 0.35465 0.24125 0.0
H1143 H 0.5531 0.38143 0.23056 0.0
H1144 H 0.63701 0.35236 0.23723 0.0
H1145 H 0.57419 0.29683 0.22328 0.0
H1146 H 0.576 0.32277 0.21669 0.0
H1147 H 0.5658 0.31889 0.23254 0.0
C1148 C 0.59416 0.37965 0.20976 0.0
C1149 C 0.5746 0.38555 0.21471 0.0
C1150 C 0.60606 0.36433 0.21586 0.0
C1151 C 0.59859 0.35468 0.22701 0.0
C1152 C 0.5799 0.36171 0.23254 0.0
H1153 H 0.63102 0.23726 0.26258 0.0
H1154 H 0.61708 0.27201 0.25834 0.0
C1155 C 0.56796 0.37697 0.22642 0.0
C1156 C 0.60906 0.33576 0.23195 0.0
H1157 H 0.60234 0.28325 0.23502 0.0
C1158 C 0.62945 0.33724 0.23683 0.0
C1159 C 0.59918 0.31606 0.23128 0.0
C1160 C 0.57766 0.31339 0.22557 0.0
C1161 C 0.64014 0.31947 0.24122 0.0
C1162 C 0.63025 0.29977 0.2405 0.0
C1163 C 0.60984 0.29839 0.23566 0.0
C1164 C 0.6407 0.28013 0.24437 0.0
C1165 C 0.66177 0.32197 0.24675 0.0
C1166 C 0.65883 0.27327 0.23808 0.0
C1167 C 0.66691 0.2534 0.24054 0.0
C1168 C 0.65681 0.24001 0.24921 0.0
C1169 C 0.6391 0.2472 0.25581 0.0
C1170 C 0.63113 0.26706 0.25341 0.0
H1171 H 0.66467 0.33823 0.24996 0.0
H1172 H 0.66421 0.31128 0.25497 0.0
H1173 H 0.67347 0.31814 0.23927 0.0
H1174 H 0.66621 0.2829 0.23086 0.0
H1175 H 0.68053 0.24822 0.23528 0.0
H1176 H 0.11062 0.90595 0.3652 0.0
H1177 H 0.12084 0.88938 0.38533 0.0
H1178 H 0.09723 0.9422 0.40637 0.0
H1179 H 0.08632 0.95862 0.3863 0.0
H1180 H 0.14839 0.90429 0.40398 0.0
H1181 H 0.06885 0.89257 0.42395 0.0
H1182 H 0.07337 0.89873 0.4073 0.0
H1183 H 0.07447 0.91891 0.41923 0.0
C1184 C 0.10733 0.91393 0.37412 0.0
C1185 C 0.09749 0.93354 0.37415 0.0
C1186 C 0.11331 0.9045 0.3856 0.0
C1187 C 0.10951 0.91442 0.39733 0.0
C1188 C 0.09996 0.93411 0.39742 0.0
H1189 H 0.13569 0.88624 0.4766 0.0
H1190 H 0.12485 0.90159 0.45623 0.0
C1191 C 0.09395 0.94357 0.38594 0.0
C1192 C 0.11597 0.90435 0.40945 0.0
H1193 H 0.09734 0.88564 0.43785 0.0
C1194 C 0.13725 0.9001 0.41137 0.0
C1195 C 0.10135 0.89891 0.41905 0.0
C1196 C 0.07821 0.90232 0.41728 0.0
C1197 C 0.14438 0.89096 0.42277 0.0
C1198 C 0.12977 0.88561 0.43238 0.0
C1199 C 0.10848 0.88977 0.43044 0.0
C1200 C 0.13629 0.87605 0.44465 0.0
C1201 C 0.16753 0.88759 0.42455 0.0
C1202 C 0.14605 0.85646 0.44489 0.0
C1203 C 0.1523 0.84766 0.45653 0.0
C1204 C 0.14875 0.85826 0.4681 0.0
C1205 C 0.13867 0.87771 0.46784 0.0
C1206 C 0.13246 0.8865 0.45621 0.0
H1207 H 0.1769 0.89707 0.41774 0.0
H1208 H 0.17239 0.89156 0.43447 0.0
H1209 H 0.17124 0.87093 0.42284 0.0
H1210 H 0.14877 0.84796 0.43609 0.0
H1211 H 0.15994 0.8326 0.45646 0.0
H1212 H 0.12139 0.55736 0.62932 0.0
H1213 H 0.1296 0.57393 0.64974 0.0
H1214 H 0.07978 0.61814 0.64386 0.0
H1215 H 0.07215 0.60234 0.62307 0.0
H1216 H 0.11491 0.63712 0.65175 0.0
H1217 H 0.09866 0.56958 0.6832 0.0
H1218 H 0.11732 0.56351 0.67095 0.0
H1219 H 0.09094 0.57018 0.66659 0.0
C1220 C 0.11223 0.57067 0.63231 0.0
C1221 C 0.09609 0.57849 0.62453 0.0
C1222 C 0.11676 0.57995 0.64409 0.0
C1223 C 0.10506 0.59704 0.64844 0.0
C1224 C 0.0889 0.60485 0.64073 0.0
H1225 H 0.11415 0.64371 0.72662 0.0
H1226 H 0.1019 0.629 0.70634 0.0
C1227 C 0.08444 0.59568 0.6289 0.0
C1228 C 0.11027 0.60727 0.66077 0.0
H1229 H 0.11768 0.5978 0.69261 0.0
C1230 C 0.11534 0.62857 0.66071 0.0
C1231 C 0.11052 0.59619 0.67249 0.0
C1232 C 0.10385 0.57366 0.67336 0.0
C1233 C 0.12119 0.63896 0.67199 0.0
C1234 C 0.12252 0.62761 0.68358 0.0
C1235 C 0.11691 0.60644 0.6837 0.0
C1236 C 0.12971 0.6373 0.6957 0.0
C1237 C 0.12559 0.66206 0.67138 0.0
C1238 C 0.14947 0.64677 0.69649 0.0
C1239 C 0.1564 0.65539 0.70803 0.0
C1240 C 0.14385 0.65437 0.71904 0.0
C1241 C 0.12416 0.64474 0.71828 0.0
C1242 C 0.11715 0.63632 0.70671 0.0
H1243 H 0.11771 0.66943 0.66305 0.0
H1244 H 0.1204 0.67008 0.68024 0.0
H1245 H 0.14265 0.66454 0.67026 0.0
H1246 H 0.15968 0.64722 0.68822 0.0
H1247 H 0.17173 0.66255 0.70837 0.0
H1248 H 0.42801 0.58494 0.88031 0.0
H1249 H 0.41617 0.60162 0.90006 0.0
H1250 H 0.36328 0.56001 0.90151 0.0
H1251 H 0.37458 0.54373 0.88149 0.0
H1252 H 0.35236 0.60101 0.90519 0.0
H1253 H 0.41883 0.57968 0.93662 0.0
H1254 H 0.42665 0.59248 0.9221 0.0
H1255 H 0.41429 0.56732 0.92133 0.0
C1256 C 0.41384 0.57934 0.88481 0.0
C1257 C 0.40225 0.56298 0.87931 0.0
C1258 C 0.40723 0.58873 0.89619 0.0
C1259 C 0.38901 0.58185 0.90235 0.0
C1260 C 0.37747 0.56545 0.89695 0.0
H1261 H 0.34909 0.61783 0.9788 0.0
H1262 H 0.36058 0.59887 0.95973 0.0
C1263 C 0.38405 0.55606 0.88556 0.0
C1264 C 0.38146 0.5924 0.91409 0.0
H1265 H 0.39531 0.60532 0.94466 0.0
C1266 C 0.36169 0.60186 0.91385 0.0
C1267 C 0.39357 0.59329 0.92542 0.0
C1268 C 0.41443 0.58248 0.92647 0.0
C1269 C 0.35386 0.61254 0.92455 0.0
C1270 C 0.36631 0.61411 0.93571 0.0
C1271 C 0.3859 0.60429 0.93604 0.0
C1272 C 0.35921 0.62569 0.94719 0.0
C1273 C 0.33221 0.62178 0.92387 0.0
C1274 C 0.35485 0.64711 0.94649 0.0
C1275 C 0.3482 0.65796 0.95736 0.0
C1276 C 0.34598 0.6476 0.96914 0.0
C1277 C 0.35061 0.62622 0.96985 0.0
C1278 C 0.3572 0.61537 0.95897 0.0
H1279 H 0.32273 0.61446 0.91617 0.0
H1280 H 0.32384 0.61991 0.93312 0.0
H1281 H 0.33344 0.63869 0.92176 0.0
H1282 H 0.35674 0.65547 0.93756 0.0
H1283 H 0.34488 0.67446 0.95655 0.0
H1284 H 0.43495 0.87858 0.1167 0.0
H1285 H 0.41641 0.86906 0.1363 0.0
H1286 H 0.42435 0.93159 0.15069 0.0
H1287 H 0.44303 0.94126 0.13107 0.0
H1288 H 0.43214 0.87053 0.16105 0.0
H1289 H 0.36172 0.92047 0.15608 0.0
H1290 H 0.37911 0.91512 0.14286 0.0
H1291 H 0.3862 0.93404 0.15478 0.0
C1292 C 0.43281 0.89031 0.12405 0.0
C1293 C 0.44055 0.91065 0.12237 0.0
C1294 C 0.42211 0.88487 0.1352 0.0
C1295 C 0.41883 0.89967 0.14488 0.0
C1296 C 0.42636 0.92005 0.14322 0.0
H1297 H 0.38803 0.87149 0.22401 0.0
H1298 H 0.40421 0.88402 0.20422 0.0
C1299 C 0.43705 0.92553 0.13203 0.0
C1300 C 0.40841 0.89334 0.15693 0.0
H1301 H 0.36574 0.9024 0.17576 0.0
C1302 C 0.41762 0.87749 0.16427 0.0
C1303 C 0.38937 0.90232 0.16102 0.0
C1304 C 0.37837 0.91881 0.15324 0.0
C1305 C 0.40839 0.87047 0.17565 0.0
C1306 C 0.3896 0.87975 0.17989 0.0
C1307 C 0.38025 0.89546 0.17251 0.0
C1308 C 0.37933 0.87307 0.1919 0.0
C1309 C 0.41861 0.85291 0.18295 0.0
C1310 C 0.35977 0.86322 0.19152 0.0
C1311 C 0.35048 0.85604 0.20281 0.0
C1312 C 0.36057 0.85876 0.21466 0.0
C1313 C 0.37994 0.86908 0.21502 0.0
C1314 C 0.38923 0.87619 0.20373 0.0
H1315 H 0.43022 0.84444 0.177 0.0
H1316 H 0.42685 0.85938 0.19142 0.0
H1317 H 0.40674 0.84161 0.18642 0.0
H1318 H 0.35189 0.86073 0.18247 0.0
H1319 H 0.33551 0.84821 0.20225 0.0
H1320 H 0.07077 0.59374 0.88317 0.0
H1321 H 0.07672 0.61303 0.86332 0.0
H1322 H 0.11912 0.56515 0.85048 0.0
H1323 H 0.11223 0.54514 0.86983 0.0
H1324 H 0.11141 0.62989 0.85459 0.0
H1325 H 0.08422 0.57201 0.81913 0.0
H1326 H 0.07917 0.56923 0.83604 0.0
H1327 H 0.10382 0.56109 0.82938 0.0
C1328 C 0.08095 0.58703 0.87599 0.0
C1329 C 0.09096 0.56781 0.87813 0.0
C1330 C 0.08449 0.59819 0.86469 0.0
C1331 C 0.09811 0.5904 0.85531 0.0
C1332 C 0.10813 0.57126 0.85742 0.0
H1333 H 0.1681 0.65938 0.79908 0.0
H1334 H 0.15435 0.64285 0.81841 0.0
C1335 C 0.10443 0.55998 0.86862 0.0
C1336 C 0.10277 0.60275 0.84363 0.0
H1337 H 0.1066 0.59917 0.81111 0.0
C1338 C 0.1101 0.62326 0.84507 0.0
C1339 C 0.1007 0.59429 0.83117 0.0
C1340 C 0.09132 0.57303 0.82883 0.0
C1341 C 0.11615 0.63524 0.83445 0.0
C1342 C 0.11549 0.62623 0.82208 0.0
C1343 C 0.10741 0.60601 0.8206 0.0
C1344 C 0.12352 0.6372 0.81056 0.0
C1345 C 0.12301 0.65748 0.83662 0.0
C1346 C 0.111 0.63906 0.79958 0.0
C1347 C 0.119 0.64808 0.78843 0.0
C1348 C 0.13963 0.65555 0.78809 0.0
C1349 C 0.15206 0.65397 0.79912 0.0
C1350 C 0.14416 0.64467 0.81021 0.0
H1351 H 0.11589 0.66403 0.84546 0.0
H1352 H 0.14022 0.6579 0.83786 0.0
H1353 H 0.11877 0.66762 0.82841 0.0
H1354 H 0.09507 0.63333 0.79959 0.0
H1355 H 0.10907 0.64909 0.78005 0.0
H1356 H 0.41932 0.607 0.13333 0.0
H1357 H 0.40967 0.62498 0.1135 0.0
H1358 H 0.37326 0.57162 0.10186 0.0
H1359 H 0.3826 0.55371 0.12173 0.0
H1360 H 0.41581 0.61545 0.08843 0.0
H1361 H 0.33104 0.61828 0.099 0.0
H1362 H 0.35019 0.61114 0.11089 0.0
H1363 H 0.34133 0.59228 0.09934 0.0
C1364 C 0.40937 0.59907 0.12649 0.0
C1365 C 0.40156 0.57903 0.12911 0.0
C1366 C 0.40382 0.60937 0.1152 0.0
C1367 C 0.3904 0.59981 0.10633 0.0
C1368 C 0.38316 0.57953 0.10873 0.0
H1369 H 0.36988 0.63354 0.02708 0.0
H1370 H 0.38232 0.61863 0.04723 0.0
C1371 C 0.38855 0.56929 0.12006 0.0
C1372 C 0.38399 0.61103 0.09456 0.0
H1373 H 0.34122 0.6271 0.07774 0.0
C1374 C 0.39951 0.61812 0.08612 0.0
C1375 C 0.36273 0.61486 0.09168 0.0
C1376 C 0.34537 0.60894 0.10077 0.0
C1377 C 0.39432 0.62846 0.0747 0.0
C1378 C 0.37302 0.63134 0.07152 0.0
C1379 C 0.35754 0.6247 0.08012 0.0
C1380 C 0.36634 0.64099 0.05928 0.0
C1381 C 0.41172 0.63644 0.06627 0.0
C1382 C 0.35285 0.65825 0.05934 0.0
C1383 C 0.34546 0.66659 0.04784 0.0
C1384 C 0.35145 0.65783 0.03607 0.0
C1385 C 0.36514 0.64072 0.03601 0.0
C1386 C 0.37238 0.63227 0.04752 0.0
H1387 H 0.42636 0.63887 0.0718 0.0
H1388 H 0.41502 0.62478 0.05868 0.0
H1389 H 0.40737 0.65137 0.0616 0.0
H1390 H 0.34791 0.66516 0.06831 0.0
H1391 H 0.33491 0.67978 0.04818 0.0
H1392 H 0.41649 0.88752 0.3839 0.0
H1393 H 0.40246 0.87597 0.36334 0.0
H1394 H 0.42054 0.93443 0.34622 0.0
H1395 H 0.43537 0.94584 0.36667 0.0
H1396 H 0.37086 0.89419 0.34912 0.0
H1397 H 0.4449 0.89165 0.3214 0.0
H1398 H 0.44439 0.89335 0.33866 0.0
H1399 H 0.4397 0.91615 0.32908 0.0
C1400 C 0.41785 0.89779 0.37572 0.0
C1401 C 0.42724 0.91754 0.37691 0.0
C1402 C 0.40965 0.89123 0.364 0.0
C1403 C 0.4107 0.90422 0.35322 0.0
C1404 C 0.41991 0.924 0.35436 0.0
H1405 H 0.36613 0.88902 0.27501 0.0
H1406 H 0.38036 0.90264 0.29512 0.0
C1407 C 0.42817 0.93058 0.36609 0.0
C1408 C 0.40158 0.8972 0.34091 0.0
H1409 H 0.4136 0.88593 0.30981 0.0
C1410 C 0.3802 0.89234 0.34053 0.0
C1411 C 0.41381 0.89487 0.32972 0.0
C1412 C 0.43701 0.89909 0.3297 0.0
C1413 C 0.37068 0.88532 0.32922 0.0
C1414 C 0.38294 0.88282 0.31806 0.0
C1415 C 0.40427 0.88789 0.3184 0.0
C1416 C 0.374 0.87464 0.30599 0.0
C1417 C 0.34752 0.88091 0.32925 0.0
C1418 C 0.36591 0.85432 0.30544 0.0
C1419 C 0.35778 0.8465 0.29398 0.0
C1420 C 0.35771 0.85885 0.28287 0.0
C1421 C 0.36592 0.87917 0.28343 0.0
C1422 C 0.37407 0.88696 0.29489 0.0
H1423 H 0.33953 0.88857 0.33744 0.0
H1424 H 0.34014 0.88626 0.3202 0.0
H1425 H 0.34498 0.86385 0.33008 0.0
H1426 H 0.36607 0.84444 0.31385 0.0
H1427 H 0.35166 0.83076 0.29381 0.0
H1428 H 0.11147 0.94207 0.63094 0.0
H1429 H 0.12423 0.92793 0.61066 0.0
H1430 H 0.06536 0.89664 0.60482 0.0
H1431 H 0.05228 0.91101 0.625 0.0
H1432 H 0.10169 0.87102 0.60154 0.0
H1433 H 0.10629 0.94488 0.57389 0.0
H1434 H 0.11888 0.94544 0.58928 0.0
H1435 H 0.09103 0.94236 0.58836 0.0
C1436 C 0.10108 0.93249 0.62525 0.0
C1437 C 0.08081 0.92774 0.62958 0.0
C1438 C 0.10843 0.92438 0.61368 0.0
C1439 C 0.09566 0.91142 0.60621 0.0
C1440 C 0.07544 0.90664 0.61047 0.0
H1441 H 0.11702 0.87013 0.52823 0.0
H1442 H 0.10266 0.88461 0.54804 0.0
C1443 C 0.06803 0.9148 0.62202 0.0
C1444 C 0.10366 0.90229 0.59416 0.0
H1445 H 0.1215 0.91493 0.56435 0.0
C1446 C 0.10598 0.88058 0.59338 0.0
C1447 C 0.10902 0.91484 0.58353 0.0
C1448 C 0.10604 0.93817 0.5837 0.0
C1449 C 0.11389 0.87108 0.58229 0.0
C1450 C 0.11979 0.88368 0.57179 0.0
C1451 C 0.11712 0.90536 0.57249 0.0
C1452 C 0.1285 0.87463 0.5599 0.0
C1453 C 0.11564 0.84763 0.58183 0.0
C1454 C 0.14786 0.86439 0.56002 0.0
C1455 C 0.15613 0.85613 0.54871 0.0
C1456 C 0.14516 0.85804 0.53711 0.0
C1457 C 0.12581 0.86838 0.53703 0.0
C1458 C 0.1176 0.87668 0.54832 0.0
H1459 H 0.10615 0.84005 0.58942 0.0
H1460 H 0.11054 0.84158 0.57236 0.0
H1461 H 0.1322 0.84309 0.58326 0.0
H1462 H 0.15666 0.86294 0.56884 0.0
H1463 H 0.17111 0.84831 0.54905 0.0
H1464 H 0.59012 0.40725 0.86931 0.0
H1465 H 0.60087 0.39233 0.88979 0.0
H1466 H 0.60314 0.45382 0.90642 0.0
H1467 H 0.59204 0.46894 0.88598 0.0
H1468 H 0.63886 0.42891 0.91132 0.0
H1469 H 0.56522 0.38699 0.92258 0.0
H1470 H 0.57556 0.38158 0.90693 0.0
H1471 H 0.56666 0.40742 0.91071 0.0
C1472 C 0.59258 0.41761 0.87736 0.0
C1473 C 0.59005 0.43929 0.87603 0.0
C1474 C 0.59876 0.40904 0.88905 0.0
C1475 C 0.60249 0.42195 0.89964 0.0
C1476 C 0.60023 0.4436 0.89835 0.0
H1477 H 0.62023 0.38065 0.97825 0.0
H1478 H 0.60757 0.39714 0.95858 0.0
C1479 C 0.594 0.45221 0.88665 0.0
C1480 C 0.60934 0.41284 0.91196 0.0
H1481 H 0.59477 0.37886 0.93548 0.0
C1482 C 0.6292 0.41806 0.91666 0.0
C1483 C 0.59658 0.39887 0.91894 0.0
C1484 C 0.57474 0.39349 0.91462 0.0
C1485 C 0.63687 0.40927 0.92803 0.0
C1486 C 0.62442 0.39469 0.93475 0.0
C1487 C 0.60435 0.38987 0.93022 0.0
C1488 C 0.63192 0.38435 0.94656 0.0
C1489 C 0.65814 0.41581 0.93281 0.0
C1490 C 0.64957 0.3714 0.94624 0.0
C1491 C 0.65683 0.36197 0.95744 0.0
C1492 C 0.64649 0.36525 0.96914 0.0
C1493 C 0.62855 0.37787 0.96938 0.0
C1494 C 0.6213 0.38729 0.95817 0.0
H1495 H 0.66325 0.43079 0.92848 0.0
H1496 H 0.65818 0.41748 0.9434 0.0
H1497 H 0.66975 0.4037 0.93019 0.0
H1498 H 0.65773 0.36859 0.93732 0.0
H1499 H 0.67064 0.35224 0.95696 0.0
H1500 H 0.56769 0.08042 0.13137 0.0
H1501 H 0.57787 0.09644 0.15178 0.0
H1502 H 0.6408 0.10406 0.1378 0.0
H1503 H 0.63071 0.08837 0.11735 0.0
H1504 H 0.61138 0.08293 0.16897 0.0
H1505 H 0.62259 0.16326 0.15023 0.0
H1506 H 0.60762 0.14372 0.14178 0.0
H1507 H 0.63566 0.143 0.14144 0.0
C1508 C 0.58366 0.08562 0.13263 0.0
C1509 C 0.5984 0.08318 0.12276 0.0
C1510 C 0.58946 0.09467 0.14429 0.0
C1511 C 0.61 0.10163 0.1462 0.0
C1512 C 0.6248 0.09901 0.13643 0.0
H1513 H 0.67957 0.161 0.2069 0.0
H1514 H 0.66697 0.14581 0.18683 0.0
C1515 C 0.61906 0.08986 0.12481 0.0
C1516 C 0.6161 0.1114 0.15847 0.0
H1517 H 0.63365 0.15693 0.17154 0.0
C1518 C 0.61612 0.09914 0.16959 0.0
C1519 C 0.62231 0.13252 0.15917 0.0
C1520 C 0.62193 0.1465 0.14756 0.0
C1521 C 0.62275 0.10732 0.18138 0.0
C1522 C 0.62905 0.12845 0.18209 0.0
C1523 C 0.62881 0.14075 0.17097 0.0
C1524 C 0.63635 0.13799 0.19421 0.0
C1525 C 0.62358 0.09308 0.19287 0.0
C1526 C 0.62318 0.13897 0.20494 0.0
C1527 C 0.63037 0.14755 0.21643 0.0
C1528 C 0.65079 0.15549 0.21734 0.0
C1529 C 0.66377 0.15496 0.20649 0.0
C1530 C 0.6566 0.1463 0.19503 0.0
H1531 H 0.62353 0.07638 0.19003 0.0
H1532 H 0.63773 0.09615 0.19873 0.0
H1533 H 0.60965 0.09588 0.19896 0.0
H1534 H 0.60734 0.13309 0.20443 0.0
H1535 H 0.61998 0.14787 0.22461 0.0
H1536 H 0.8956 0.0945 0.36808 0.0
H1537 H 0.88413 0.11151 0.3878 0.0
H1538 H 0.90864 0.06034 0.40994 0.0
H1539 H 0.92072 0.04344 0.39025 0.0
H1540 H 0.85612 0.09554 0.40613 0.0
H1541 H 0.93399 0.11212 0.42738 0.0
H1542 H 0.93059 0.10543 0.41071 0.0
H1543 H 0.92973 0.08546 0.42276 0.0
C1544 C 0.89886 0.087 0.37715 0.0
C1545 C 0.90923 0.06768 0.3776 0.0
C1546 C 0.89216 0.09668 0.3884 0.0
C1547 C 0.89578 0.08731 0.40032 0.0
C1548 C 0.90601 0.06799 0.40084 0.0
H1549 H 0.86392 0.12164 0.47832 0.0
H1550 H 0.87672 0.10443 0.45892 0.0
C1551 C 0.91271 0.05826 0.38958 0.0
C1552 C 0.88822 0.09754 0.41216 0.0
H1553 H 0.90445 0.11919 0.44033 0.0
C1554 C 0.86667 0.10078 0.4136 0.0
C1555 C 0.90205 0.10428 0.42188 0.0
C1556 C 0.9254 0.10184 0.42062 0.0
C1557 C 0.85852 0.11037 0.42459 0.0
C1558 C 0.87235 0.11725 0.43428 0.0
C1559 C 0.8939 0.11392 0.43287 0.0
C1560 C 0.86475 0.12788 0.44597 0.0
C1561 C 0.83515 0.11268 0.42585 0.0
C1562 C 0.85406 0.14693 0.44512 0.0
C1563 C 0.84669 0.15678 0.45617 0.0
C1564 C 0.85003 0.1478 0.46827 0.0
C1565 C 0.86106 0.12891 0.46912 0.0
C1566 C 0.8684 0.11907 0.45806 0.0
H1567 H 0.82665 0.10191 0.41934 0.0
H1568 H 0.83 0.10964 0.43583 0.0
H1569 H 0.83065 0.12886 0.42331 0.0
H1570 H 0.85147 0.15421 0.4359 0.0
H1571 H 0.83835 0.17138 0.45524 0.0
H1572 H 0.90993 0.40882 0.61971 0.0
H1573 H 0.89318 0.39816 0.63971 0.0
H1574 H 0.95236 0.40232 0.65928 0.0
H1575 H 0.96918 0.41353 0.63937 0.0
H1576 H 0.90387 0.36246 0.65418 0.0
H1577 H 0.91222 0.43517 0.6827 0.0
H1578 H 0.91499 0.43467 0.66549 0.0
H1579 H 0.9359 0.42567 0.67553 0.0
C1580 C 0.91932 0.40787 0.62832 0.0
C1581 C 0.94088 0.41211 0.62796 0.0
C1582 C 0.90975 0.40164 0.63971 0.0
C1583 C 0.92149 0.39967 0.65098 0.0
C1584 C 0.94296 0.40407 0.65072 0.0
H1585 H 0.89135 0.35765 0.72797 0.0
H1586 H 0.90872 0.37059 0.70863 0.0
C1587 C 0.95258 0.41026 0.63931 0.0
C1588 C 0.91142 0.39199 0.66284 0.0
H1589 H 0.89947 0.40539 0.69362 0.0
C1590 C 0.90283 0.37186 0.6628 0.0
C1591 C 0.91023 0.40426 0.67406 0.0
C1592 C 0.91866 0.42622 0.67449 0.0
C1593 C 0.89324 0.36355 0.67375 0.0
C1594 C 0.89184 0.3759 0.68495 0.0
C1595 C 0.90055 0.39599 0.68501 0.0
C1596 C 0.88123 0.36827 0.69665 0.0
C1597 C 0.88507 0.34149 0.6733 0.0
C1598 C 0.85996 0.36299 0.69635 0.0
C1599 C 0.85003 0.35552 0.70735 0.0
C1600 C 0.86117 0.3534 0.71888 0.0
C1601 C 0.88238 0.35906 0.71922 0.0
C1602 C 0.89232 0.36648 0.70819 0.0
H1603 H 0.89234 0.3324 0.66542 0.0
H1604 H 0.88799 0.33328 0.68249 0.0
H1605 H 0.86795 0.34181 0.67162 0.0
H1606 H 0.851 0.36469 0.68761 0.0
H1607 H 0.83363 0.35143 0.70682 0.0
H1608 H 0.56027 0.06897 0.36701 0.0
H1609 H 0.57719 0.07957 0.34696 0.0
H1610 H 0.60146 0.13451 0.36555 0.0
H1611 H 0.58497 0.12388 0.38563 0.0
H1612 H 0.57141 0.11836 0.33324 0.0
H1613 H 0.65341 0.10661 0.34905 0.0
H1614 H 0.63142 0.09507 0.35726 0.0
H1615 H 0.63769 0.12209 0.35967 0.0
C1616 C 0.56934 0.08322 0.36683 0.0
C1617 C 0.57129 0.09559 0.3779 0.0
C1618 C 0.57891 0.08929 0.35538 0.0
C1619 C 0.59077 0.10766 0.35485 0.0
C1620 C 0.59261 0.12012 0.36583 0.0
H1621 H 0.66048 0.17642 0.29818 0.0
H1622 H 0.64391 0.16274 0.31757 0.0
C1623 C 0.58299 0.11413 0.37725 0.0
C1624 C 0.60091 0.11414 0.34276 0.0
H1625 H 0.64844 0.12434 0.32933 0.0
C1626 C 0.58825 0.11952 0.33231 0.0
C1627 C 0.62287 0.11567 0.34165 0.0
C1628 C 0.6372 0.1094 0.35246 0.0
C1629 C 0.59696 0.127 0.32086 0.0
C1630 C 0.61894 0.12869 0.31978 0.0
C1631 C 0.6316 0.12305 0.33019 0.0
C1632 C 0.62912 0.13668 0.30802 0.0
C1633 C 0.58253 0.13367 0.31019 0.0
C1634 C 0.62655 0.12636 0.29627 0.0
C1635 C 0.63591 0.1342 0.28517 0.0
C1636 C 0.64817 0.15237 0.28567 0.0
C1637 C 0.65108 0.16242 0.2975 0.0
C1638 C 0.64165 0.15462 0.30858 0.0
H1639 H 0.56638 0.13645 0.3137 0.0
H1640 H 0.58829 0.14811 0.30551 0.0
H1641 H 0.58184 0.12117 0.30285 0.0
H1642 H 0.61734 0.11223 0.29568 0.0
H1643 H 0.63352 0.12604 0.27621 0.0
H1644 H 0.91801 0.0982 0.63118 0.0
H1645 H 0.90736 0.11498 0.61124 0.0
H1646 H 0.86591 0.06363 0.60311 0.0
H1647 H 0.87718 0.04623 0.62277 0.0
H1648 H 0.88839 0.0756 0.5821 0.0
H1649 H 0.85218 0.14448 0.60526 0.0
H1650 H 0.87894 0.14057 0.60976 0.0
H1651 H 0.85959 0.1215 0.61412 0.0
C1652 C 0.90682 0.09031 0.62508 0.0
C1653 C 0.89842 0.07086 0.62861 0.0
C1654 C 0.90053 0.10008 0.61377 0.0
C1655 C 0.88553 0.09075 0.60583 0.0
C1656 C 0.87737 0.07119 0.60918 0.0
H1657 H 0.81607 0.15145 0.54504 0.0
H1658 H 0.82739 0.13432 0.56479 0.0
C1659 C 0.88372 0.06134 0.62046 0.0
C1660 C 0.87854 0.10126 0.59394 0.0
H1661 H 0.85624 0.14594 0.58263 0.0
C1662 C 0.88129 0.09095 0.58221 0.0
C1663 C 0.86903 0.12117 0.59414 0.0
C1664 C 0.86455 0.13251 0.6065 0.0
C1665 C 0.87505 0.10013 0.57063 0.0
C1666 C 0.86624 0.12036 0.57078 0.0
C1667 C 0.86322 0.13054 0.58253 0.0
C1668 C 0.85963 0.13106 0.55888 0.0
C1669 C 0.87758 0.0879 0.55837 0.0
C1670 C 0.87409 0.13526 0.5491 0.0
C1671 C 0.86764 0.14493 0.53778 0.0
C1672 C 0.84667 0.1508 0.53611 0.0
C1673 C 0.83233 0.14708 0.54605 0.0
C1674 C 0.83877 0.1373 0.55733 0.0
H1675 H 0.87909 0.07092 0.56025 0.0
H1676 H 0.86411 0.09043 0.55185 0.0
H1677 H 0.89197 0.09314 0.5534 0.0
H1678 H 0.89036 0.13104 0.55023 0.0
H1679 H 0.87906 0.14774 0.53033 0.0
H1680 H 0.90383 0.42528 0.88166 0.0
H1681 H 0.88853 0.41509 0.86116 0.0
H1682 H 0.93802 0.37044 0.85553 0.0
H1683 H 0.95401 0.38122 0.87574 0.0
H1684 H 0.92956 0.39259 0.83381 0.0
H1685 H 0.85623 0.36166 0.85482 0.0
H1686 H 0.8614 0.3883 0.85902 0.0
H1687 H 0.87875 0.3681 0.86444 0.0
C1688 C 0.91164 0.41348 0.876 0.0
C1689 C 0.93013 0.40401 0.88039 0.0
C1690 C 0.9027 0.40748 0.86436 0.0
C1691 C 0.9119 0.39171 0.85695 0.0
C1692 C 0.93056 0.38251 0.86116 0.0
H1693 H 0.85331 0.32179 0.79577 0.0
H1694 H 0.86938 0.33371 0.81572 0.0
C1695 C 0.93959 0.38858 0.87277 0.0
C1696 C 0.90216 0.38485 0.84478 0.0
H1697 H 0.85746 0.36429 0.83215 0.0
C1698 C 0.91381 0.38636 0.83344 0.0
C1699 C 0.88171 0.37646 0.84436 0.0
C1700 C 0.86885 0.37332 0.85632 0.0
C1701 C 0.90551 0.3799 0.82164 0.0
C1702 C 0.88482 0.37214 0.82116 0.0
C1703 C 0.87324 0.37045 0.83253 0.0
C1704 C 0.87506 0.36513 0.80902 0.0
C1705 C 0.91915 0.38099 0.80987 0.0
C1706 C 0.87266 0.37893 0.79869 0.0
C1707 C 0.86362 0.37211 0.78724 0.0
C1708 C 0.85658 0.35145 0.786 0.0
C1709 C 0.85862 0.33779 0.79644 0.0
C1710 C 0.86778 0.34458 0.80784 0.0
H1711 H 0.93599 0.38182 0.8124 0.0
H1712 H 0.91663 0.36724 0.80359 0.0
H1713 H 0.91519 0.39522 0.80435 0.0
H1714 H 0.87771 0.39499 0.79949 0.0
H1715 H 0.8621 0.38302 0.77938 0.0
H1716 H 0.59169 0.4304 0.13469 0.0
H1717 H 0.61049 0.42403 0.11471 0.0
H1718 H 0.55998 0.38505 0.10147 0.0
H1719 H 0.54054 0.39232 0.12103 0.0
H1720 H 0.625 0.38842 0.10527 0.0
H1721 H 0.56852 0.42162 0.07081 0.0
H1722 H 0.56647 0.42595 0.08784 0.0
H1723 H 0.55657 0.40227 0.0808 0.0
C1724 C 0.58434 0.42086 0.12741 0.0
C1725 C 0.56452 0.41196 0.12948 0.0
C1726 C 0.59521 0.41708 0.11604 0.0
C1727 C 0.58651 0.40434 0.1065 0.0
C1728 C 0.5668 0.39535 0.10855 0.0
H1729 H 0.65046 0.33493 0.04779 0.0
H1730 H 0.63461 0.34784 0.06755 0.0
C1731 C 0.55584 0.39927 0.11985 0.0
C1732 C 0.59841 0.39963 0.09466 0.0
H1733 H 0.5945 0.39874 0.06207 0.0
C1734 C 0.61843 0.39089 0.09581 0.0
C1735 C 0.59002 0.4032 0.08231 0.0
C1736 C 0.56931 0.41399 0.08035 0.0
C1737 C 0.62998 0.38497 0.08498 0.0
C1738 C 0.62099 0.38729 0.07268 0.0
C1739 C 0.60128 0.3967 0.07151 0.0
C1740 C 0.63148 0.37967 0.0609 0.0
C1741 C 0.65174 0.37646 0.08686 0.0
C1742 C 0.63451 0.39311 0.05045 0.0
C1743 C 0.6432 0.38566 0.03906 0.0
C1744 C 0.64908 0.36464 0.03794 0.0
C1745 C 0.64627 0.35126 0.04844 0.0
C1746 C 0.63735 0.35866 0.05977 0.0
H1747 H 0.65873 0.38215 0.09596 0.0
H1748 H 0.651 0.3592 0.08737 0.0
H1749 H 0.6622 0.38089 0.07882 0.0
H1750 H 0.63 0.40935 0.05108 0.0
H1751 H 0.64518 0.39632 0.03111 0.0
loop_
_geom_bond_atom_site_label_1
_geom_bond_atom_site_label_2
_geom_bond_distance
_geom_bond_site_symmetry_2
_ccdc_geom_bond_type
H0 C27 0.929 . S
N1 C26 1.433 . S
N1 C32 1.435 . S
N1 C38 1.423 . S
H2 C28 0.930 . S
H3 C31 0.931 . S
H4 C30 0.929 . S
H5 C33 0.930 . S
H6 C34 0.932 . S
H7 C37 0.929 . S
H8 C36 0.931 . S
H9 C39 0.929 . S
H10 C43 0.932 . S
H11 C40 0.931 . S
H12 C42 0.929 . S
H13 C45 0.929 . S
H14 C46 0.930 . S
H15 C48 0.929 . S
H16 C49 0.931 . S
H17 C51 0.930 . S
H18 C52 0.932 . S
H19 C54 0.931 . S
H20 C55 0.929 . S
H21 C57 0.929 . S
H22 C58 0.911 1_455 S
H23 C60 0.929 . S
N24 C44 1.433 . S
N24 C50 1.435 . S
N24 C56 1.423 . S
H25 C61 0.932 . S
C26 N1 1.433 . S
C26 C27 1.363 . S
C26 C31 1.370 . S
C27 H0 0.929 . S
C27 C26 1.363 . S
C27 C28 1.385 . S
C28 H2 0.930 . S
C28 C27 1.385 . S
C28 C29 1.357 . S
C29 C28 1.357 . S
C29 C30 1.406 . S
C30 H4 0.929 . S
C30 C29 1.406 . S
C30 C31 1.391 . S
C31 H3 0.931 . S
C31 C26 1.370 . S
C31 C30 1.391 . S
C32 N1 1.435 . S
C32 C33 1.358 . S
C32 C37 1.371 . S
C33 H5 0.930 . S
C33 C32 1.358 . S
C33 C34 1.405 . S
C34 H6 0.932 . S
C34 C33 1.405 . S
C34 C35 1.383 . S
C35 C34 1.383 . S
C35 C36 1.393 . S
C36 H8 0.931 . S
C36 C35 1.393 . S
C36 C37 1.382 . S
C37 H7 0.929 . S
C37 C32 1.371 . S
C37 C36 1.382 . S
C38 N1 1.423 . S
C38 C39 1.362 . S
C38 C43 1.388 . S
C39 H9 0.929 . S
C39 C38 1.362 . S
C39 C40 1.376 1_565 S
C40 H11 0.931 . S
C40 C39 1.376 1_545 S
C40 C41 1.396 . S
C41 C40 1.396 . S
C41 C42 1.348 1_545 S
C41 C59 1.472 . S
C42 H12 0.929 . S
C42 C41 1.348 1_565 S
C42 C43 1.443 . S
C43 H10 0.932 . S
C43 C38 1.388 . S
C43 C42 1.443 . S
C44 N24 1.433 . S
C44 C45 1.363 . S
C44 C49 1.370 . S
C45 H13 0.929 . S
C45 C44 1.363 . S
C45 C46 1.385 . S
C46 H14 0.930 . S
C46 C45 1.385 . S
C46 C47 1.357 . S
C47 C46 1.357 . S
C47 C48 1.406 . S
C48 H15 0.929 . S
C48 C47 1.406 . S
C48 C49 1.391 . S
C49 H16 0.931 . S
C49 C44 1.370 . S
C49 C48 1.391 . S
C50 N24 1.435 . S
C50 C51 1.358 . S
C50 C55 1.371 . S
C51 H17 0.930 . S
C51 C50 1.358 . S
C51 C52 1.405 . S
C52 H18 0.932 . S
C52 C51 1.405 . S
C52 C53 1.383 . S
C53 C52 1.383 . S
C53 C54 1.393 . S
C54 H19 0.931 . S
C54 C53 1.393 . S
C54 C55 1.382 . S
C55 H20 0.929 . S
C55 C50 1.371 . S
C55 C54 1.382 . S
C56 N24 1.423 . S
C56 C57 1.362 . S
C56 C61 1.388 . S
C57 H21 0.929 . S
C57 C56 1.362 . S
C57 C58 1.398 . S
C58 H22 0.911 1_655 S
C58 C57 1.398 . S
C58 C59 1.394 1_655 S
C59 C41 1.472 . S
C59 C58 1.394 1_455 S
C59 C60 1.348 1_455 S
C60 H23 0.929 . S
C60 C59 1.348 1_655 S
C60 C61 1.443 . S
C61 H25 0.932 . S
C61 C56 1.388 . S
C61 C60 1.443 . S
H62 C89 0.929 . S
N63 C88 1.433 . S
N63 C94 1.435 . S
N63 C100 1.423 . S
H64 C90 0.930 . S
H65 C93 0.931 . S
H66 C92 0.929 . S
H67 C95 0.930 . S
H68 C96 0.932 . S
H69 C99 0.929 . S
H70 C98 0.931 . S
H71 C101 0.929 . S
H72 C105 0.932 . S
H73 C102 0.931 . S
H74 C104 0.929 . S
H75 C107 0.929 . S
H76 C108 0.930 . S
H77 C110 0.929 . S
H78 C111 0.931 . S
H79 C113 0.930 . S
H80 C114 0.932 . S
H81 C116 0.931 . S
H82 C117 0.929 . S
H83 C119 0.929 . S
H84 C120 0.931 . S
H85 C122 0.929 . S
N86 C106 1.433 . S
N86 C112 1.435 . S
N86 C118 1.423 . S
H87 C123 0.932 . S
C88 N63 1.433 . S
C88 C89 1.363 . S
C88 C93 1.370 . S
C89 H62 0.929 . S
C89 C88 1.363 . S
C89 C90 1.385 . S
C90 H64 0.930 . S
C90 C89 1.385 . S
C90 C91 1.357 . S
C91 C90 1.357 . S
C91 C92 1.406 . S
C92 H66 0.929 . S
C92 C91 1.406 . S
C92 C93 1.391 . S
C93 H65 0.931 . S
C93 C88 1.370 . S
C93 C92 1.391 . S
C94 N63 1.435 . S
C94 C95 1.358 . S
C94 C99 1.371 . S
C95 H67 0.930 . S
C95 C94 1.358 . S
C95 C96 1.405 . S
C96 H68 0.932 . S
C96 C95 1.405 . S
C96 C97 1.383 . S
C97 C96 1.383 . S
C97 C98 1.393 . S
C98 H70 0.931 . S
C98 C97 1.393 . S
C98 C99 1.382 . S
C99 H69 0.929 . S
C99 C94 1.371 . S
C99 C98 1.382 . S
C100 N63 1.423 . S
C100 C101 1.362 . S
C100 C105 1.388 . S
C101 H71 0.929 . S
C101 C100 1.362 . S
C101 C102 1.376 1_655 S
C102 H73 0.931 . S
C102 C101 1.376 1_455 S
C102 C103 1.396 . S
C103 C102 1.396 . S
C103 C104 1.348 1_455 S
C103 C121 1.472 . S
C104 H74 0.929 . S
C104 C103 1.348 1_655 S
C104 C105 1.443 . S
C105 H72 0.932 . S
C105 C100 1.388 . S
C105 C104 1.443 . S
C106 N86 1.433 . S
C106 C107 1.363 . S
C106 C111 1.370 . S
C107 H75 0.929 . S
C107 C106 1.363 . S
C107 C108 1.385 . S
C108 H76 0.930 . S
C108 C107 1.385 . S
C108 C109 1.357 . S
C109 C108 1.357 . S
C109 C110 1.406 . S
C110 H77 0.929 . S
C110 C109 1.406 . S
C110 C111 1.391 . S
C111 H78 0.931 . S
C111 C106 1.370 . S
C111 C110 1.391 . S
C112 N86 1.435 . S
C112 C113 1.358 . S
C112 C117 1.371 . S
C113 H79 0.930 . S
C113 C112 1.358 . S
C113 C114 1.405 . S
C114 H80 0.932 . S
C114 C113 1.405 . S
C114 C115 1.383 . S
C115 C114 1.383 . S
C115 C116 1.393 . S
C116 H81 0.931 . S
C116 C115 1.393 . S
C116 C117 1.382 . S
C117 H82 0.929 . S
C117 C112 1.371 . S
C117 C116 1.382 . S
C118 N86 1.423 . S
C118 C119 1.362 . S
C118 C123 1.388 . S
C119 H83 0.929 . S
C119 C118 1.362 . S
C119 C120 1.376 . S
C120 H84 0.931 . S
C120 C119 1.376 . S
C120 C121 1.396 . S
C121 C103 1.472 . S
C121 C120 1.396 . S
C121 C122 1.348 . S
C122 H85 0.929 . S
C122 C121 1.348 . S
C122 C123 1.443 . S
C123 H87 0.932 . S
C123 C118 1.388 . S
C123 C122 1.443 . S
H124 C151 0.929 . S
N125 C150 1.433 . S
N125 C156 1.435 . S
N125 C162 1.423 . S
H126 C152 0.930 . S
H127 C155 0.931 . S
H128 C154 0.929 . S
H129 C157 0.930 . S
H130 C158 0.932 . S
H131 C161 0.929 . S
H132 C160 0.931 . S
H133 C163 0.929 . S
H134 C167 0.932 . S
H135 C164 0.931 . S
H136 C166 0.929 . S
H137 C169 0.929 . S
H138 C170 0.930 . S
H139 C172 0.929 . S
H140 C173 0.931 . S
H141 C175 0.930 . S
H142 C176 0.932 . S
H143 C178 0.931 . S
H144 C179 0.929 . S
H145 C181 0.929 . S
H146 C182 0.931 . S
H147 C184 0.929 . S
N148 C168 1.433 . S
N148 C174 1.435 . S
N148 C180 1.423 . S
H149 C185 0.932 . S
C150 N125 1.433 . S
C150 C151 1.363 . S
C150 C155 1.370 . S
C151 H124 0.929 . S
C151 C150 1.363 . S
C151 C152 1.385 . S
C152 H126 0.930 . S
C152 C151 1.385 . S
C152 C153 1.357 . S
C153 C152 1.357 . S
C153 C154 1.406 . S
C154 H128 0.929 . S
C154 C153 1.406 . S
C154 C155 1.391 . S
C155 H127 0.931 . S
C155 C150 1.370 . S
C155 C154 1.391 . S
C156 N125 1.435 . S
C156 C157 1.358 . S
C156 C161 1.371 . S
C157 H129 0.930 . S
C157 C156 1.358 . S
C157 C158 1.405 . S
C158 H130 0.932 . S
C158 C157 1.405 . S
C158 C159 1.383 . S
C159 C158 1.383 . S
C159 C160 1.393 . S
C160 H132 0.931 . S
C160 C159 1.393 . S
C160 C161 1.382 . S
C161 H131 0.929 . S
C161 C156 1.371 . S
C161 C160 1.382 . S
C162 N125 1.423 . S
C162 C163 1.362 . S
C162 C167 1.388 . S
C163 H133 0.929 . S
C163 C162 1.362 . S
C163 C164 1.376 . S
C164 H135 0.931 . S
C164 C163 1.376 . S
C164 C165 1.396 . S
C165 C164 1.396 . S
C165 C166 1.348 . S
C165 C183 1.472 . S
C166 H136 0.929 . S
C166 C165 1.348 . S
C166 C167 1.443 . S
C167 H134 0.932 . S
C167 C162 1.388 . S
C167 C166 1.443 . S
C168 N148 1.433 . S
C168 C169 1.363 . S
C168 C173 1.370 . S
C169 H137 0.929 . S
C169 C168 1.363 . S
C169 C170 1.385 . S
C170 H138 0.930 . S
C170 C169 1.385 . S
C170 C171 1.357 . S
C171 C170 1.357 . S
C171 C172 1.406 . S
C172 H139 0.929 . S
C172 C171 1.406 . S
C172 C173 1.391 . S
C173 H140 0.931 . S
C173 C168 1.370 . S
C173 C172 1.391 . S
C174 N148 1.435 . S
C174 C175 1.358 . S
C174 C179 1.371 . S
C175 H141 0.930 . S
C175 C174 1.358 . S
C175 C176 1.405 . S
C176 H142 0.932 . S
C176 C175 1.405 . S
C176 C177 1.383 . S
C177 C176 1.383 . S
C177 C178 1.393 . S
C178 H143 0.931 . S
C178 C177 1.393 . S
C178 C179 1.382 . S
C179 H144 0.929 . S
C179 C174 1.371 . S
C179 C178 1.382 . S
C180 N148 1.423 . S
C180 C181 1.362 . S
C180 C185 1.388 . S
C181 H145 0.929 . S
C181 C180 1.362 . S
C181 C182 1.376 . S
C182 H146 0.931 . S
C182 C181 1.376 . S
C182 C183 1.396 . S
C183 C165 1.472 . S
C183 C182 1.396 . S
C183 C184 1.348 . S
C184 H147 0.929 . S
C184 C183 1.348 . S
C184 C185 1.443 . S
C185 H149 0.932 . S
C185 C180 1.388 . S
C185 C184 1.443 . S
H186 C213 0.929 . S
N187 C212 1.433 . S
N187 C218 1.435 . S
N187 C224 1.423 . S
H188 C214 0.930 . S
H189 C217 0.931 . S
H190 C216 0.929 . S
H191 C219 0.930 . S
H192 C220 0.932 . S
H193 C223 0.929 . S
H194 C222 0.931 . S
H195 C225 0.929 . S
H196 C229 0.932 . S
H197 C226 0.931 . S
H198 C228 0.929 . S
H199 C231 0.929 . S
H200 C232 0.930 . S
H201 C234 0.929 . S
H202 C235 0.931 . S
H203 C237 0.930 . S
H204 C238 0.932 . S
H205 C240 0.931 . S
H206 C241 0.929 . S
H207 C243 0.929 . S
H208 C244 0.931 1_565 S
H209 C246 0.929 . S
N210 C230 1.433 . S
N210 C236 1.435 . S
N210 C242 1.423 . S
H211 C247 0.932 . S
C212 N187 1.433 . S
C212 C213 1.363 . S
C212 C217 1.370 . S
C213 H186 0.929 . S
C213 C212 1.363 . S
C213 C214 1.385 . S
C214 H188 0.930 . S
C214 C213 1.385 . S
C214 C215 1.357 . S
C215 C214 1.357 . S
C215 C216 1.406 . S
C216 H190 0.929 . S
C216 C215 1.406 . S
C216 C217 1.391 . S
C217 H189 0.931 . S
C217 C212 1.370 . S
C217 C216 1.391 . S
C218 N187 1.435 . S
C218 C219 1.358 . S
C218 C223 1.371 . S
C219 H191 0.930 . S
C219 C218 1.358 . S
C219 C220 1.405 . S
C220 H192 0.932 . S
C220 C219 1.405 . S
C220 C221 1.383 . S
C221 C220 1.383 . S
C221 C222 1.393 . S
C222 H194 0.931 . S
C222 C221 1.393 . S
C222 C223 1.382 . S
C223 H193 0.929 . S
C223 C218 1.371 . S
C223 C222 1.382 . S
C224 N187 1.423 . S
C224 C225 1.362 . S
C224 C229 1.388 . S
C225 H195 0.929 . S
C225 C224 1.362 . S
C225 C226 1.376 . S
C226 H197 0.931 . S
C226 C225 1.376 . S
C226 C227 1.396 . S
C227 C226 1.396 . S
C227 C228 1.348 . S
C227 C245 1.436 1_565 S
C228 H198 0.929 . S
C228 C227 1.348 . S
C228 C229 1.443 . S
C229 H196 0.932 . S
C229 C224 1.388 . S
C229 C228 1.443 . S
C230 N210 1.433 . S
C230 C231 1.363 . S
C230 C235 1.370 . S
C231 H199 0.929 . S
C231 C230 1.363 . S
C231 C232 1.385 . S
C232 H200 0.930 . S
C232 C231 1.385 . S
C232 C233 1.357 . S
C233 C232 1.357 . S
C233 C234 1.406 . S
C234 H201 0.929 . S
C234 C233 1.406 . S
C234 C235 1.391 . S
C235 H202 0.931 . S
C235 C230 1.370 . S
C235 C234 1.391 . S
C236 N210 1.435 . S
C236 C237 1.358 . S
C236 C241 1.371 . S
C237 H203 0.930 . S
C237 C236 1.358 . S
C237 C238 1.405 . S
C238 H204 0.932 . S
C238 C237 1.405 . S
C238 C239 1.383 . S
C239 C238 1.383 . S
C239 C240 1.393 . S
C240 H205 0.931 . S
C240 C239 1.393 . S
C240 C241 1.382 . S
C241 H206 0.929 . S
C241 C236 1.371 . S
C241 C240 1.382 . S
C242 N210 1.423 . S
C242 C243 1.362 . S
C242 C247 1.388 . S
C243 H207 0.929 . S
C243 C242 1.362 . S
C243 C244 1.376 . S
C244 H208 0.931 1_545 S
C244 C243 1.376 . S
C244 C245 1.401 . S
C245 C227 1.436 1_545 S
C245 C244 1.401 . S
C245 C246 1.383 . S
C246 H209 0.929 . S
C246 C245 1.383 . S
C246 C247 1.443 . S
C247 H211 0.932 . S
C247 C242 1.388 . S
C247 C246 1.443 . S
H248 C275 0.929 . S
N249 C274 1.433 . S
N249 C280 1.435 . S
N249 C286 1.423 . S
H250 C276 0.930 . S
H251 C279 0.931 . S
H252 C278 0.929 . S
H253 C281 0.930 . S
H254 C282 0.932 . S
H255 C285 0.929 . S
H256 C284 0.931 . S
H257 C287 0.929 . S
H258 C291 0.932 . S
H259 C288 0.931 . S
H260 C290 0.929 . S
H261 C293 0.929 . S
H262 C294 0.930 . S
H263 C296 0.929 . S
H264 C297 0.931 . S
H265 C299 0.930 . S
H266 C300 0.932 . S
H267 C302 0.931 . S
H268 C303 0.929 . S
H269 C305 0.929 . S
H270 C306 0.931 1_455 S
H271 C308 0.929 . S
N272 C292 1.433 . S
N272 C298 1.435 . S
N272 C304 1.423 . S
H273 C309 0.932 . S
C274 N249 1.433 . S
C274 C275 1.363 . S
C274 C279 1.370 . S
C275 H248 0.929 . S
C275 C274 1.363 . S
C275 C276 1.385 . S
C276 H250 0.930 . S
C276 C275 1.385 . S
C276 C277 1.357 . S
C277 C276 1.357 . S
C277 C278 1.406 . S
C278 H252 0.929 . S
C278 C277 1.406 . S
C278 C279 1.391 . S
C279 H251 0.931 . S
C279 C274 1.370 . S
C279 C278 1.391 . S
C280 N249 1.435 . S
C280 C281 1.358 . S
C280 C285 1.371 . S
C281 H253 0.930 . S
C281 C280 1.358 . S
C281 C282 1.405 . S
C282 H254 0.932 . S
C282 C281 1.405 . S
C282 C283 1.383 . S
C283 C282 1.383 . S
C283 C284 1.393 . S
C284 H256 0.931 . S
C284 C283 1.393 . S
C284 C285 1.382 . S
C285 H255 0.929 . S
C285 C280 1.371 . S
C285 C284 1.382 . S
C286 N249 1.423 . S
C286 C287 1.362 . S
C286 C291 1.388 . S
C287 H257 0.929 . S
C287 C286 1.362 . S
C287 C288 1.376 . S
C288 H259 0.931 . S
C288 C287 1.376 . S
C288 C289 1.396 . S
C289 C288 1.396 . S
C289 C290 1.348 . S
C289 C307 1.518 . S
C290 H260 0.929 . S
C290 C289 1.348 . S
C290 C291 1.443 . S
C291 H258 0.932 . S
C291 C286 1.388 . S
C291 C290 1.443 . S
C292 N272 1.433 . S
C292 C293 1.363 . S
C292 C297 1.370 . S
C293 H261 0.929 . S
C293 C292 1.363 . S
C293 C294 1.385 . S
C294 H262 0.930 . S
C294 C293 1.385 . S
C294 C295 1.357 . S
C295 C294 1.357 . S
C295 C296 1.406 . S
C296 H263 0.929 . S
C296 C295 1.406 . S
C296 C297 1.391 . S
C297 H264 0.931 . S
C297 C292 1.370 . S
C297 C296 1.391 . S
C298 N272 1.435 . S
C298 C299 1.358 . S
C298 C303 1.371 . S
C299 H265 0.930 . S
C299 C298 1.358 . S
C299 C300 1.405 . S
C300 H266 0.932 . S
C300 C299 1.405 . S
C300 C301 1.383 . S
C301 C300 1.383 . S
C301 C302 1.393 . S
C302 H267 0.931 . S
C302 C301 1.393 . S
C302 C303 1.382 . S
C303 H268 0.929 . S
C303 C298 1.371 . S
C303 C302 1.382 . S
C304 N272 1.423 . S
C304 C305 1.362 . S
C304 C309 1.388 . S
C305 H269 0.929 . S
C305 C304 1.362 . S
C305 C306 1.376 . S
C306 H270 0.931 1_655 S
C306 C305 1.376 . S
C306 C307 1.391 1_655 S
C307 C289 1.518 . S
C307 C306 1.391 1_455 S
C307 C308 1.305 1_455 S
C308 H271 0.929 . S
C308 C307 1.305 1_655 S
C308 C309 1.443 . S
C309 H273 0.932 . S
C309 C304 1.388 . S
C309 C308 1.443 . S
H310 C337 0.929 . S
N311 C336 1.433 . S
N311 C342 1.435 . S
N311 C348 1.423 . S
H312 C338 0.930 . S
H313 C341 0.931 . S
H314 C340 0.929 . S
H315 C343 0.930 . S
H316 C344 0.932 . S
H317 C347 0.929 . S
H318 C346 0.931 . S
H319 C349 0.929 . S
H320 C353 0.932 . S
H321 C350 0.931 . S
H322 C352 0.929 . S
H323 C355 0.929 . S
H324 C356 0.930 . S
H325 C358 0.929 . S
H326 C359 0.931 . S
H327 C361 0.930 . S
H328 C362 0.932 . S
H329 C364 0.931 . S
H330 C365 0.929 . S
H331 C367 0.929 . S
H332 C368 0.931 . S
H333 C370 0.929 . S
N334 C354 1.433 . S
N334 C360 1.435 . S
N334 C366 1.423 . S
H335 C371 0.932 . S
C336 N311 1.433 . S
C336 C337 1.363 . S
C336 C341 1.370 . S
C337 H310 0.929 . S
C337 C336 1.363 . S
C337 C338 1.385 . S
C338 H312 0.930 . S
C338 C337 1.385 . S
C338 C339 1.357 . S
C339 C338 1.357 . S
C339 C340 1.406 . S
C340 H314 0.929 . S
C340 C339 1.406 . S
C340 C341 1.391 . S
C341 H313 0.931 . S
C341 C336 1.370 . S
C341 C340 1.391 . S
C342 N311 1.435 . S
C342 C343 1.358 . S
C342 C347 1.371 . S
C343 H315 0.930 . S
C343 C342 1.358 . S
C343 C344 1.405 . S
C344 H316 0.932 . S
C344 C343 1.405 . S
C344 C345 1.383 . S
C345 C344 1.383 . S
C345 C346 1.393 . S
C346 H318 0.931 . S
C346 C345 1.393 . S
C346 C347 1.382 . S
C347 H317 0.929 . S
C347 C342 1.371 . S
C347 C346 1.382 . S
C348 N311 1.423 . S
C348 C349 1.362 . S
C348 C353 1.388 . S
C349 H319 0.929 . S
C349 C348 1.362 . S
C349 C350 1.376 . S
C350 H321 0.931 . S
C350 C349 1.376 . S
C350 C351 1.396 . S
C351 C350 1.396 . S
C351 C352 1.348 . S
C351 C369 1.472 . S
C352 H322 0.929 . S
C352 C351 1.348 . S
C352 C353 1.443 . S
C353 H320 0.932 . S
C353 C348 1.388 . S
C353 C352 1.443 . S
C354 N334 1.433 . S
C354 C355 1.363 . S
C354 C359 1.370 . S
C355 H323 0.929 . S
C355 C354 1.363 . S
C355 C356 1.385 . S
C356 H324 0.930 . S
C356 C355 1.385 . S
C356 C357 1.357 . S
C357 C356 1.357 . S
C357 C358 1.406 . S
C358 H325 0.929 . S
C358 C357 1.406 . S
C358 C359 1.391 . S
C359 H326 0.931 . S
C359 C354 1.370 . S
C359 C358 1.391 . S
C360 N334 1.435 . S
C360 C361 1.358 . S
C360 C365 1.371 . S
C361 H327 0.930 . S
C361 C360 1.358 . S
C361 C362 1.405 . S
C362 H328 0.932 . S
C362 C361 1.405 . S
C362 C363 1.383 . S
C363 C362 1.383 . S
C363 C364 1.393 . S
C364 H329 0.931 . S
C364 C363 1.393 . S
C364 C365 1.382 . S
C365 H330 0.929 . S
C365 C360 1.371 . S
C365 C364 1.382 . S
C366 N334 1.423 . S
C366 C367 1.362 . S
C366 C371 1.388 . S
C367 H331 0.929 . S
C367 C366 1.362 . S
C367 C368 1.376 . S
C368 H332 0.931 . S
C368 C367 1.376 . S
C368 C369 1.396 . S
C369 C351 1.472 . S
C369 C368 1.396 . S
C369 C370 1.348 . S
C370 H333 0.929 . S
C370 C369 1.348 . S
C370 C371 1.443 . S
C371 H335 0.932 . S
C371 C366 1.388 . S
C371 C370 1.443 . S
H372 C399 0.929 . S
N373 C398 1.433 . S
N373 C404 1.435 . S
N373 C410 1.423 . S
H374 C400 0.930 . S
H375 C403 0.931 . S
H376 C402 0.929 . S
H377 C405 0.930 . S
H378 C406 0.932 . S
H379 C409 0.929 . S
H380 C408 0.931 . S
H381 C411 0.929 . S
H382 C415 0.932 . S
H383 C412 0.931 . S
H384 C414 0.929 . S
H385 C417 0.929 . S
H386 C418 0.930 . S
H387 C420 0.929 . S
H388 C421 0.931 . S
H389 C423 0.930 . S
H390 C424 0.932 . S
H391 C426 0.931 . S
H392 C427 0.929 . S
H393 C429 0.929 . S
H394 C430 0.931 . S
H395 C432 0.929 . S
N396 C416 1.433 . S
N396 C422 1.435 . S
N396 C428 1.423 . S
H397 C433 0.932 . S
C398 N373 1.433 . S
C398 C399 1.363 . S
C398 C403 1.370 . S
C399 H372 0.929 . S
C399 C398 1.363 . S
C399 C400 1.385 . S
C400 H374 0.930 . S
C400 C399 1.385 . S
C400 C401 1.357 . S
C401 C400 1.357 . S
C401 C402 1.406 . S
C402 H376 0.929 . S
C402 C401 1.406 . S
C402 C403 1.391 . S
C403 H375 0.931 . S
C403 C398 1.370 . S
C403 C402 1.391 . S
C404 N373 1.435 . S
C404 C405 1.358 . S
C404 C409 1.371 . S
C405 H377 0.930 . S
C405 C404 1.358 . S
C405 C406 1.405 . S
C406 H378 0.932 . S
C406 C405 1.405 . S
C406 C407 1.383 . S
C407 C406 1.383 . S
C407 C408 1.393 . S
C408 H380 0.931 . S
C408 C407 1.393 . S
C408 C409 1.382 . S
C409 H379 0.929 . S
C409 C404 1.371 . S
C409 C408 1.382 . S
C410 N373 1.423 . S
C410 C411 1.362 . S
C410 C415 1.388 . S
C411 H381 0.929 . S
C411 C410 1.362 . S
C411 C412 1.376 1_565 S
C412 H383 0.931 . S
C412 C411 1.376 1_545 S
C412 C413 1.396 . S
C413 C412 1.396 . S
C413 C414 1.348 1_545 S
C413 C431 1.472 . S
C414 H384 0.929 . S
C414 C413 1.348 1_565 S
C414 C415 1.443 . S
C415 H382 0.932 . S
C415 C410 1.388 . S
C415 C414 1.443 . S
C416 N396 1.433 . S
C416 C417 1.363 . S
C416 C421 1.370 . S
C417 H385 0.929 . S
C417 C416 1.363 . S
C417 C418 1.385 . S
C418 H386 0.930 . S
C418 C417 1.385 . S
C418 C419 1.357 . S
C419 C418 1.357 . S
C419 C420 1.406 . S
C420 H387 0.929 . S
C420 C419 1.406 . S
C420 C421 1.391 . S
C421 H388 0.931 . S
C421 C416 1.370 . S
C421 C420 1.391 . S
C422 N396 1.435 . S
C422 C423 1.358 . S
C422 C427 1.371 . S
C423 H389 0.930 . S
C423 C422 1.358 . S
C423 C424 1.405 . S
C424 H390 0.932 . S
C424 C423 1.405 . S
C424 C425 1.383 . S
C425 C424 1.383 . S
C425 C426 1.393 . S
C426 H391 0.931 . S
C426 C425 1.393 . S
C426 C427 1.382 . S
C427 H392 0.929 . S
C427 C422 1.371 . S
C427 C426 1.382 . S
C428 N396 1.423 . S
C428 C429 1.362 . S
C428 C433 1.388 . S
C429 H393 0.929 . S
C429 C428 1.362 . S
C429 C430 1.376 . S
C430 H394 0.931 . S
C430 C429 1.376 . S
C430 C431 1.396 . S
C431 C413 1.472 . S
C431 C430 1.396 . S
C431 C432 1.348 . S
C432 H395 0.929 . S
C432 C431 1.348 . S
C432 C433 1.443 . S
C433 H397 0.932 . S
C433 C428 1.388 . S
C433 C432 1.443 . S
H434 C461 0.929 . S
N435 C460 1.433 . S
N435 C466 1.435 . S
N435 C472 1.423 . S
H436 C462 0.930 . S
H437 C465 0.931 . S
H438 C464 0.929 . S
H439 C467 0.930 . S
H440 C468 0.932 . S
H441 C471 0.929 . S
H442 C470 0.931 . S
H443 C473 0.929 . S
H444 C477 0.932 . S
H445 C474 0.931 . S
H446 C476 0.929 . S
H447 C479 0.929 . S
H448 C480 0.930 . S
H449 C482 0.929 . S
H450 C483 0.931 . S
H451 C485 0.930 . S
H452 C486 0.932 . S
H453 C488 0.931 . S
H454 C489 0.929 . S
H455 C491 0.929 . S
H456 C492 0.931 1_565 S
H457 C494 0.929 . S
N458 C478 1.433 . S
N458 C484 1.435 . S
N458 C490 1.423 . S
H459 C495 0.932 . S
C460 N435 1.433 . S
C460 C461 1.363 . S
C460 C465 1.370 . S
C461 H434 0.929 . S
C461 C460 1.363 . S
C461 C462 1.385 . S
C462 H436 0.930 . S
C462 C461 1.385 . S
C462 C463 1.357 . S
C463 C462 1.357 . S
C463 C464 1.406 . S
C464 H438 0.929 . S
C464 C463 1.406 . S
C464 C465 1.391 . S
C465 H437 0.931 . S
C465 C460 1.370 . S
C465 C464 1.391 . S
C466 N435 1.435 . S
C466 C467 1.358 . S
C466 C471 1.371 . S
C467 H439 0.930 . S
C467 C466 1.358 . S
C467 C468 1.405 . S
C468 H440 0.932 . S
C468 C467 1.405 . S
C468 C469 1.383 . S
C469 C468 1.383 . S
C469 C470 1.393 . S
C470 H442 0.931 . S
C470 C469 1.393 . S
C470 C471 1.382 . S
C471 H441 0.929 . S
C471 C466 1.371 . S
C471 C470 1.382 . S
C472 N435 1.423 . S
C472 C473 1.362 . S
C472 C477 1.388 . S
C473 H443 0.929 . S
C473 C472 1.362 . S
C473 C474 1.376 1_455 S
C474 H445 0.931 . S
C474 C473 1.376 1_655 S
C474 C475 1.396 . S
C475 C474 1.396 . S
C475 C476 1.348 1_655 S
C475 C493 1.469 1_565 S
C476 H446 0.929 . S
C476 C475 1.348 1_455 S
C476 C477 1.443 . S
C477 H444 0.932 . S
C477 C472 1.388 . S
C477 C476 1.443 . S
C478 N458 1.433 . S
C478 C479 1.363 . S
C478 C483 1.370 . S
C479 H447 0.929 . S
C479 C478 1.363 . S
C479 C480 1.385 . S
C480 H448 0.930 . S
C480 C479 1.385 . S
C480 C481 1.357 . S
C481 C480 1.357 . S
C481 C482 1.406 . S
C482 H449 0.929 . S
C482 C481 1.406 . S
C482 C483 1.391 . S
C483 H450 0.931 . S
C483 C478 1.370 . S
C483 C482 1.391 . S
C484 N458 1.435 . S
C484 C485 1.358 . S
C484 C489 1.371 . S
C485 H451 0.930 . S
C485 C484 1.358 . S
C485 C486 1.405 . S
C486 H452 0.932 . S
C486 C485 1.405 . S
C486 C487 1.383 . S
C487 C486 1.383 . S
C487 C488 1.393 . S
C488 H453 0.931 . S
C488 C487 1.393 . S
C488 C489 1.382 . S
C489 H454 0.929 . S
C489 C484 1.371 . S
C489 C488 1.382 . S
C490 N458 1.423 . S
C490 C491 1.362 . S
C490 C495 1.388 . S
C491 H455 0.929 . S
C491 C490 1.362 . S
C491 C492 1.376 . S
C492 H456 0.931 1_545 S
C492 C491 1.376 . S
C492 C493 1.396 . S
C493 C475 1.469 1_545 S
C493 C492 1.396 . S
C493 C494 1.351 . S
C494 H457 0.929 . S
C494 C493 1.351 . S
C494 C495 1.443 . S
C495 H459 0.932 . S
C495 C490 1.388 . S
C495 C494 1.443 . S
In496 O497 2.294 . S
In496 O498 2.326 . S
In496 O502 2.266 1_554 S
In496 O503 2.326 1_554 S
In496 O504 2.266 1_554 S
In496 O505 2.326 1_554 S
In496 O507 2.294 . S
In496 O508 2.326 . S
O497 In496 2.294 . S
O497 C506 1.240 . S
O498 In496 2.326 . S
O498 C506 1.252 . S
C499 O502 1.252 . S
C499 O503 1.260 . S
C500 O507 1.240 . S
C500 O508 1.252 . S
C501 O504 1.252 . S
C501 O505 1.260 . S
O502 In496 2.266 1_556 S
O502 C499 1.252 . S
O503 In496 2.326 1_556 S
O503 C499 1.260 . S
O504 In496 2.266 1_556 S
O504 C501 1.252 . S
O505 In496 2.326 1_556 S
O505 C501 1.260 . S
C506 O497 1.240 . S
C506 O498 1.252 . S
O507 In496 2.294 . S
O507 C500 1.240 . S
O508 In496 2.326 . S
O508 C500 1.252 . S
In509 O510 2.294 . S
In509 O511 2.326 . S
In509 O515 2.266 . S
In509 O516 2.326 . S
In509 O517 2.266 . S
In509 O518 2.326 . S
In509 O520 2.294 . S
In509 O521 2.326 . S
O510 In509 2.294 . S
O510 C519 1.240 . S
O511 In509 2.326 . S
O511 C519 1.252 . S
C512 O515 1.252 . S
C512 O516 1.260 . S
C513 O520 1.240 . S
C513 O521 1.252 . S
C514 O517 1.252 . S
C514 O518 1.260 . S
O515 In509 2.266 . S
O515 C512 1.252 . S
O516 In509 2.326 . S
O516 C512 1.260 . S
O517 In509 2.266 . S
O517 C514 1.252 . S
O518 In509 2.326 . S
O518 C514 1.260 . S
C519 O510 1.240 . S
C519 O511 1.252 . S
O520 In509 2.294 . S
O520 C513 1.240 . S
O521 In509 2.326 . S
O521 C513 1.252 . S
In522 O523 2.294 . S
In522 O524 2.326 . S
In522 O528 2.266 . S
In522 O529 2.326 . S
In522 O530 2.266 . S
In522 O531 2.326 . S
In522 O533 2.294 . S
In522 O534 2.326 . S
O523 In522 2.294 . S
O523 C532 1.240 . S
O524 In522 2.326 . S
O524 C532 1.252 . S
C525 O528 1.252 . S
C525 O529 1.260 . S
C526 O533 1.240 . S
C526 O534 1.252 . S
C527 O530 1.252 . S
C527 O531 1.260 . S
O528 In522 2.266 . S
O528 C525 1.252 . S
O529 In522 2.326 . S
O529 C525 1.260 . S
O530 In522 2.266 . S
O530 C527 1.252 . S
O531 In522 2.326 . S
O531 C527 1.260 . S
C532 O523 1.240 . S
C532 O524 1.252 . S
O533 In522 2.294 . S
O533 C526 1.240 . S
O534 In522 2.326 . S
O534 C526 1.252 . S
In535 O536 2.294 . S
In535 O537 2.326 . S
In535 O541 2.266 . S
In535 O542 2.326 . S
In535 O543 2.266 . S
In535 O544 2.326 . S
In535 O546 2.294 . S
In535 O547 2.326 . S
O536 In535 2.294 . S
O536 C545 1.240 . S
O537 In535 2.326 . S
O537 C545 1.252 . S
C538 O541 1.252 . S
C538 O542 1.260 . S
C539 O546 1.240 . S
C539 O547 1.252 . S
C540 O543 1.252 . S
C540 O544 1.260 . S
O541 In535 2.266 . S
O541 C538 1.252 . S
O542 In535 2.326 . S
O542 C538 1.260 . S
O543 In535 2.266 . S
O543 C540 1.252 . S
O544 In535 2.326 . S
O544 C540 1.260 . S
C545 O536 1.240 . S
C545 O537 1.252 . S
O546 In535 2.294 . S
O546 C539 1.240 . S
O547 In535 2.326 . S
O547 C539 1.252 . S
In548 O549 2.294 . S
In548 O550 2.326 . S
In548 O554 2.266 . S
In548 O555 2.326 . S
In548 O556 2.266 . S
In548 O557 2.326 . S
In548 O559 2.294 . S
In548 O560 2.326 . S
O549 In548 2.294 . S
O549 C558 1.240 . S
O550 In548 2.326 . S
O550 C558 1.252 . S
C551 O554 1.252 . S
C551 O555 1.260 . S
C552 O559 1.240 . S
C552 O560 1.252 . S
C553 O556 1.252 . S
C553 O557 1.260 . S
O554 In548 2.266 . S
O554 C551 1.252 . S
O555 In548 2.326 . S
O555 C551 1.260 . S
O556 In548 2.266 . S
O556 C553 1.252 . S
O557 In548 2.326 . S
O557 C553 1.260 . S
C558 O549 1.240 . S
C558 O550 1.252 . S
O559 In548 2.294 . S
O559 C552 1.240 . S
O560 In548 2.326 . S
O560 C552 1.252 . S
In561 O562 2.294 . S
In561 O563 2.326 . S
In561 O567 2.266 . S
In561 O568 2.326 . S
In561 O569 2.266 . S
In561 O570 2.326 . S
In561 O572 2.294 . S
In561 O573 2.326 . S
O562 In561 2.294 . S
O562 C571 1.240 . S
O563 In561 2.326 . S
O563 C571 1.252 . S
C564 O567 1.252 . S
C564 O568 1.260 . S
C565 O572 1.240 . S
C565 O573 1.252 . S
C566 O569 1.252 . S
C566 O570 1.260 . S
O567 In561 2.266 . S
O567 C564 1.252 . S
O568 In561 2.326 . S
O568 C564 1.260 . S
O569 In561 2.266 . S
O569 C566 1.252 . S
O570 In561 2.326 . S
O570 C566 1.260 . S
C571 O562 1.240 . S
C571 O563 1.252 . S
O572 In561 2.294 . S
O572 C565 1.240 . S
O573 In561 2.326 . S
O573 C565 1.252 . S
In574 O575 2.294 . S
In574 O576 2.326 . S
In574 O580 2.266 1_554 S
In574 O581 2.326 1_554 S
In574 O582 2.266 1_554 S
In574 O583 2.326 1_554 S
In574 O585 2.294 . S
In574 O586 2.326 . S
O575 In574 2.294 . S
O575 C584 1.240 . S
O576 In574 2.326 . S
O576 C584 1.252 . S
C577 O580 1.252 . S
C577 O581 1.260 . S
C578 O585 1.240 . S
C578 O586 1.252 . S
C579 O582 1.252 . S
C579 O583 1.260 . S
O580 In574 2.266 1_556 S
O580 C577 1.252 . S
O581 In574 2.326 1_556 S
O581 C577 1.260 . S
O582 In574 2.266 1_556 S
O582 C579 1.252 . S
O583 In574 2.326 1_556 S
O583 C579 1.260 . S
C584 O575 1.240 . S
C584 O576 1.252 . S
O585 In574 2.294 . S
O585 C578 1.240 . S
O586 In574 2.326 . S
O586 C578 1.252 . S
In587 O588 2.294 . S
In587 O589 2.326 . S
In587 O593 2.266 . S
In587 O594 2.326 . S
In587 O595 2.266 . S
In587 O596 2.326 . S
In587 O598 2.294 . S
In587 O599 2.326 . S
O588 In587 2.294 . S
O588 C597 1.240 . S
O589 In587 2.326 . S
O589 C597 1.252 . S
C590 O593 1.252 . S
C590 O594 1.260 . S
C591 O598 1.240 . S
C591 O599 1.252 . S
C592 O595 1.252 . S
C592 O596 1.260 . S
O593 In587 2.266 . S
O593 C590 1.252 . S
O594 In587 2.326 . S
O594 C590 1.260 . S
O595 In587 2.266 . S
O595 C592 1.252 . S
O596 In587 2.326 . S
O596 C592 1.260 . S
C597 O588 1.240 . S
C597 O589 1.252 . S
O598 In587 2.294 . S
O598 C591 1.240 . S
O599 In587 2.326 . S
O599 C591 1.252 . S
H600 C608 0.929 . S
H601 C610 0.930 . S
H602 C612 0.930 . S
H603 C615 0.929 . S
H604 C618 0.930 . S
H605 C620 0.960 . S
H606 C620 0.960 . S
H607 C620 0.960 . S
C608 H600 0.929 . S
C608 C609 1.377 . S
C608 C610 1.384 . S
C609 C608 1.377 . S
C609 C615 1.390 . S
C610 H601 0.930 . S
C610 C608 1.384 . S
C610 C611 1.372 . S
C611 C610 1.372 . S
C611 C612 1.400 . S
C611 C616 1.490 . S
C612 H602 0.930 . S
C612 C611 1.400 . S
C612 C615 1.386 . S
H613 C629 0.930 . S
H614 C630 0.931 . S
C615 H603 0.929 . S
C615 C609 1.390 . S
C615 C612 1.386 . S
C616 C611 1.490 . S
C616 C618 1.395 . S
C616 C619 1.403 . S
H617 C623 0.930 . S
C618 H604 0.930 . S
C618 C616 1.395 . S
C618 C621 1.403 . S
C619 C616 1.403 . S
C619 C620 1.524 . S
C619 C623 1.400 . S
C620 H605 0.960 . S
C620 H606 0.960 . S
C620 H607 0.960 . S
C620 C619 1.524 . S
C621 C618 1.403 . S
C621 C622 1.392 . S
C621 C625 1.495 . S
C622 C621 1.392 . S
C622 C623 1.385 . S
C622 C624 1.478 . S
C623 H617 0.930 . S
C623 C619 1.400 . S
C623 C622 1.385 . S
C624 C622 1.478 . S
C624 C626 1.381 . S
C624 C630 1.383 . S
C625 C621 1.495 . S
C625 H631 0.959 . S
C625 H632 0.961 . S
C625 H633 0.960 . S
C626 C624 1.381 . S
C626 C627 1.394 . S
C626 H634 0.930 . S
C627 C626 1.394 . S
C627 C628 1.383 . S
C627 H635 0.929 . S
C628 C627 1.383 . S
C628 C629 1.377 . S
C629 H613 0.930 . S
C629 C628 1.377 . S
C629 C630 1.379 . S
C630 H614 0.931 . S
C630 C624 1.383 . S
C630 C629 1.379 . S
H631 C625 0.959 . S
H632 C625 0.961 . S
H633 C625 0.960 . S
H634 C626 0.930 . S
H635 C627 0.929 . S
H636 C644 0.929 . S
H637 C646 0.930 . S
H638 C648 0.930 . S
H639 C651 0.929 . S
H640 C654 0.930 . S
H641 C656 0.960 . S
H642 C656 0.960 . S
H643 C656 0.960 . S
C644 H636 0.929 . S
C644 C645 1.377 . S
C644 C646 1.384 . S
C645 C644 1.377 . S
C645 C651 1.390 . S
C646 H637 0.930 . S
C646 C644 1.384 . S
C646 C647 1.372 . S
C647 C646 1.372 . S
C647 C648 1.400 . S
C647 C652 1.490 . S
C648 H638 0.930 . S
C648 C647 1.400 . S
C648 C651 1.386 . S
H649 C665 0.930 . S
H650 C666 0.931 . S
C651 H639 0.929 . S
C651 C645 1.390 . S
C651 C648 1.386 . S
C652 C647 1.490 . S
C652 C654 1.395 . S
C652 C655 1.403 . S
H653 C659 0.930 . S
C654 H640 0.930 . S
C654 C652 1.395 . S
C654 C657 1.403 . S
C655 C652 1.403 . S
C655 C656 1.524 . S
C655 C659 1.400 . S
C656 H641 0.960 . S
C656 H642 0.960 . S
C656 H643 0.960 . S
C656 C655 1.524 . S
C657 C654 1.403 . S
C657 C658 1.392 . S
C657 C661 1.495 . S
C658 C657 1.392 . S
C658 C659 1.385 . S
C658 C660 1.478 . S
C659 H653 0.930 . S
C659 C655 1.400 . S
C659 C658 1.385 . S
C660 C658 1.478 . S
C660 C662 1.381 . S
C660 C666 1.383 . S
C661 C657 1.495 . S
C661 H667 0.959 . S
C661 H668 0.961 . S
C661 H669 0.960 . S
C662 C660 1.381 . S
C662 C663 1.394 . S
C662 H670 0.930 . S
C663 C662 1.394 . S
C663 C664 1.383 . S
C663 H671 0.929 . S
C664 C663 1.383 . S
C664 C665 1.377 . S
C665 H649 0.930 . S
C665 C664 1.377 . S
C665 C666 1.379 . S
C666 H650 0.931 . S
C666 C660 1.383 . S
C666 C665 1.379 . S
H667 C661 0.959 . S
H668 C661 0.961 . S
H669 C661 0.960 . S
H670 C662 0.930 . S
H671 C663 0.929 . S
H672 C680 0.929 . S
H673 C682 0.930 . S
H674 C684 0.930 . S
H675 C687 0.929 . S
H676 C690 0.930 . S
H677 C692 0.960 . S
H678 C692 0.960 . S
H679 C692 0.960 . S
C680 H672 0.929 . S
C680 C681 1.377 . S
C680 C682 1.384 . S
C681 C680 1.377 . S
C681 C687 1.390 . S
C682 H673 0.930 . S
C682 C680 1.384 . S
C682 C683 1.372 . S
C683 C682 1.372 . S
C683 C684 1.400 . S
C683 C688 1.490 . S
C684 H674 0.930 . S
C684 C683 1.400 . S
C684 C687 1.386 . S
H685 C701 0.930 . S
H686 C702 0.931 . S
C687 H675 0.929 . S
C687 C681 1.390 . S
C687 C684 1.386 . S
C688 C683 1.490 . S
C688 C690 1.395 . S
C688 C691 1.403 . S
H689 C695 0.930 . S
C690 H676 0.930 . S
C690 C688 1.395 . S
C690 C693 1.403 . S
C691 C688 1.403 . S
C691 C692 1.524 . S
C691 C695 1.400 . S
C692 H677 0.960 . S
C692 H678 0.960 . S
C692 H679 0.960 . S
C692 C691 1.524 . S
C693 C690 1.403 . S
C693 C694 1.392 . S
C693 C697 1.495 . S
C694 C693 1.392 . S
C694 C695 1.385 . S
C694 C696 1.478 . S
C695 H689 0.930 . S
C695 C691 1.400 . S
C695 C694 1.385 . S
C696 C694 1.478 . S
C696 C698 1.381 . S
C696 C702 1.383 . S
C697 C693 1.495 . S
C697 H703 0.959 . S
C697 H704 0.961 . S
C697 H705 0.960 . S
C698 C696 1.381 . S
C698 C699 1.394 . S
C698 H706 0.930 . S
C699 C698 1.394 . S
C699 C700 1.383 . S
C699 H707 0.929 . S
C700 C699 1.383 . S
C700 C701 1.377 . S
C701 H685 0.930 . S
C701 C700 1.377 . S
C701 C702 1.379 . S
C702 H686 0.931 . S
C702 C696 1.383 . S
C702 C701 1.379 . S
H703 C697 0.959 . S
H704 C697 0.961 . S
H705 C697 0.960 . S
H706 C698 0.930 . S
H707 C699 0.929 . S
H708 C716 0.929 . S
H709 C718 0.930 . S
H710 C720 0.930 . S
H711 C723 0.929 . S
H712 C726 0.930 . S
H713 C728 0.960 . S
H714 C728 0.960 . S
H715 C728 0.960 . S
C716 H708 0.929 . S
C716 C717 1.377 . S
C716 C718 1.384 . S
C717 C716 1.377 . S
C717 C723 1.390 . S
C718 H709 0.930 . S
C718 C716 1.384 . S
C718 C719 1.372 . S
C719 C718 1.372 . S
C719 C720 1.400 . S
C719 C724 1.490 . S
C720 H710 0.930 . S
C720 C719 1.400 . S
C720 C723 1.386 . S
H721 C737 0.930 1_556 S
H722 C738 0.931 . S
C723 H711 0.929 . S
C723 C717 1.390 . S
C723 C720 1.386 . S
C724 C719 1.490 . S
C724 C726 1.395 . S
C724 C727 1.403 . S
H725 C731 0.930 . S
C726 H712 0.930 . S
C726 C724 1.395 . S
C726 C729 1.403 . S
C727 C724 1.403 . S
C727 C728 1.524 . S
C727 C731 1.400 . S
C728 H713 0.960 . S
C728 H714 0.960 . S
C728 H715 0.960 . S
C728 C727 1.524 . S
C729 C726 1.403 . S
C729 C730 1.392 . S
C729 C733 1.495 . S
C730 C729 1.392 . S
C730 C731 1.385 . S
C730 C732 1.478 . S
C731 H725 0.930 . S
C731 C727 1.400 . S
C731 C730 1.385 . S
C732 C730 1.478 . S
C732 C734 1.381 . S
C732 C738 1.383 . S
C733 C729 1.495 . S
C733 H739 0.959 . S
C733 H740 0.961 . S
C733 H741 0.960 . S
C734 C732 1.381 . S
C734 C735 1.394 . S
C734 H742 0.930 . S
C735 C734 1.394 . S
C735 C736 1.383 . S
C735 H743 0.929 . S
C736 C735 1.383 . S
C736 C737 1.377 . S
C737 H721 0.930 1_554 S
C737 C736 1.377 . S
C737 C738 1.379 . S
C738 H722 0.931 . S
C738 C732 1.383 . S
C738 C737 1.379 . S
H739 C733 0.959 . S
H740 C733 0.961 . S
H741 C733 0.960 . S
H742 C734 0.930 . S
H743 C735 0.929 . S
H744 C752 0.929 . S
H745 C754 0.930 . S
H746 C756 0.930 . S
H747 C759 0.929 . S
H748 C762 0.930 . S
H749 C764 0.960 . S
H750 C764 0.960 . S
H751 C764 0.960 . S
C752 H744 0.929 . S
C752 C753 1.377 . S
C752 C754 1.384 . S
C753 C752 1.377 . S
C753 C759 1.390 . S
C754 H745 0.930 . S
C754 C752 1.384 . S
C754 C755 1.372 . S
C755 C754 1.372 . S
C755 C756 1.400 . S
C755 C760 1.490 . S
C756 H746 0.930 . S
C756 C755 1.400 . S
C756 C759 1.386 . S
H757 C773 0.992 . S
H758 C774 0.931 1_554 S
C759 H747 0.929 . S
C759 C753 1.390 . S
C759 C756 1.386 . S
C760 C755 1.490 . S
C760 C762 1.395 . S
C760 C763 1.403 . S
H761 C767 0.930 . S
C762 H748 0.930 . S
C762 C760 1.395 . S
C762 C765 1.403 . S
C763 C760 1.403 . S
C763 C764 1.524 . S
C763 C767 1.400 . S
C764 H749 0.960 . S
C764 H750 0.960 . S
C764 H751 0.960 . S
C764 C763 1.524 . S
C765 C762 1.403 . S
C765 C766 1.392 . S
C765 C769 1.495 . S
C766 C765 1.392 . S
C766 C767 1.385 . S
C766 C768 1.478 . S
C767 H761 0.930 . S
C767 C763 1.400 . S
C767 C766 1.385 . S
C768 C766 1.478 . S
C768 C770 1.381 . S
C768 C774 1.383 . S
C769 C765 1.495 . S
C769 H775 0.959 . S
C769 H776 0.961 . S
C769 H777 0.960 . S
C770 C768 1.381 . S
C770 C771 1.394 . S
C770 H778 0.930 . S
C771 C770 1.394 . S
C771 C772 1.383 . S
C771 H779 0.929 . S
C772 C771 1.383 . S
C772 C773 1.335 1_556 S
C773 H757 0.992 . S
C773 C772 1.335 1_554 S
C773 C774 1.364 1_554 S
C774 H758 0.931 1_556 S
C774 C768 1.383 . S
C774 C773 1.364 1_556 S
H775 C769 0.959 . S
H776 C769 0.961 . S
H777 C769 0.960 . S
H778 C770 0.930 . S
H779 C771 0.929 . S
H780 C788 0.929 . S
H781 C790 0.930 . S
H782 C792 0.930 . S
H783 C795 0.929 . S
H784 C798 0.930 . S
H785 C800 0.960 . S
H786 C800 0.960 . S
H787 C800 0.960 . S
C788 H780 0.929 . S
C788 C789 1.377 . S
C788 C790 1.384 . S
C789 C788 1.377 . S
C789 C795 1.390 . S
C790 H781 0.930 . S
C790 C788 1.384 . S
C790 C791 1.372 . S
C791 C790 1.372 . S
C791 C792 1.400 . S
C791 C796 1.490 . S
C792 H782 0.930 . S
C792 C791 1.400 . S
C792 C795 1.386 . S
H793 C809 0.930 . S
H794 C810 0.931 . S
C795 H783 0.929 . S
C795 C789 1.390 . S
C795 C792 1.386 . S
C796 C791 1.490 . S
C796 C798 1.395 . S
C796 C799 1.403 . S
H797 C803 0.930 . S
C798 H784 0.930 . S
C798 C796 1.395 . S
C798 C801 1.403 . S
C799 C796 1.403 . S
C799 C800 1.524 . S
C799 C803 1.400 . S
C800 H785 0.960 . S
C800 H786 0.960 . S
C800 H787 0.960 . S
C800 C799 1.524 . S
C801 C798 1.403 . S
C801 C802 1.392 . S
C801 C805 1.495 . S
C802 C801 1.392 . S
C802 C803 1.385 . S
C802 C804 1.478 . S
C803 H797 0.930 . S
C803 C799 1.400 . S
C803 C802 1.385 . S
C804 C802 1.478 . S
C804 C806 1.381 . S
C804 C810 1.383 . S
C805 C801 1.495 . S
C805 H811 0.959 . S
C805 H812 0.961 . S
C805 H813 0.960 . S
C806 C804 1.381 . S
C806 C807 1.394 . S
C806 H814 0.930 . S
C807 C806 1.394 . S
C807 C808 1.383 . S
C807 H815 0.929 . S
C808 C807 1.383 . S
C808 C809 1.377 . S
C809 H793 0.930 . S
C809 C808 1.377 . S
C809 C810 1.379 . S
C810 H794 0.931 . S
C810 C804 1.383 . S
C810 C809 1.379 . S
H811 C805 0.959 . S
H812 C805 0.961 . S
H813 C805 0.960 . S
H814 C806 0.930 . S
H815 C807 0.929 . S
H816 C824 0.929 . S
H817 C826 0.930 . S
H818 C828 0.930 . S
H819 C831 0.929 . S
H820 C834 0.930 . S
H821 C836 0.960 . S
H822 C836 0.960 . S
H823 C836 0.960 . S
C824 H816 0.929 . S
C824 C825 1.377 . S
C824 C826 1.384 . S
C825 C824 1.377 . S
C825 C831 1.390 . S
C826 H817 0.930 . S
C826 C824 1.384 . S
C826 C827 1.372 . S
C827 C826 1.372 . S
C827 C828 1.400 . S
C827 C832 1.490 . S
C828 H818 0.930 . S
C828 C827 1.400 . S
C828 C831 1.386 . S
H829 C845 0.930 . S
H830 C846 0.931 . S
C831 H819 0.929 . S
C831 C825 1.390 . S
C831 C828 1.386 . S
C832 C827 1.490 . S
C832 C834 1.395 . S
C832 C835 1.403 . S
H833 C839 0.930 . S
C834 H820 0.930 . S
C834 C832 1.395 . S
C834 C837 1.403 . S
C835 C832 1.403 . S
C835 C836 1.524 . S
C835 C839 1.400 . S
C836 H821 0.960 . S
C836 H822 0.960 . S
C836 H823 0.960 . S
C836 C835 1.524 . S
C837 C834 1.403 . S
C837 C838 1.392 . S
C837 C841 1.495 . S
C838 C837 1.392 . S
C838 C839 1.385 . S
C838 C840 1.478 . S
C839 H833 0.930 . S
C839 C835 1.400 . S
C839 C838 1.385 . S
C840 C838 1.478 . S
C840 C842 1.381 . S
C840 C846 1.383 . S
C841 C837 1.495 . S
C841 H847 0.959 . S
C841 H848 0.961 . S
C841 H849 0.960 . S
C842 C840 1.381 . S
C842 C843 1.394 . S
C842 H850 0.930 . S
C843 C842 1.394 . S
C843 C844 1.383 . S
C843 H851 0.929 . S
C844 C843 1.383 . S
C844 C845 1.377 . S
C845 H829 0.930 . S
C845 C844 1.377 . S
C845 C846 1.379 . S
C846 H830 0.931 . S
C846 C840 1.383 . S
C846 C845 1.379 . S
H847 C841 0.959 . S
H848 C841 0.961 . S
H849 C841 0.960 . S
H850 C842 0.930 . S
H851 C843 0.929 . S
H852 C860 0.929 . S
H853 C862 0.930 . S
H854 C864 0.930 . S
H855 C867 0.929 . S
H856 C870 0.930 . S
H857 C872 0.960 . S
H858 C872 0.960 . S
H859 C872 0.960 . S
C860 H852 0.929 . S
C860 C861 1.377 . S
C860 C862 1.384 . S
C861 C860 1.377 . S
C861 C867 1.390 . S
C862 H853 0.930 . S
C862 C860 1.384 . S
C862 C863 1.372 . S
C863 C862 1.372 . S
C863 C864 1.400 . S
C863 C868 1.490 . S
C864 H854 0.930 . S
C864 C863 1.400 . S
C864 C867 1.386 . S
H865 C881 0.930 . S
H866 C882 0.931 . S
C867 H855 0.929 . S
C867 C861 1.390 . S
C867 C864 1.386 . S
C868 C863 1.490 . S
C868 C870 1.395 . S
C868 C871 1.403 . S
H869 C875 0.930 . S
C870 H856 0.930 . S
C870 C868 1.395 . S
C870 C873 1.403 . S
C871 C868 1.403 . S
C871 C872 1.524 . S
C871 C875 1.400 . S
C872 H857 0.960 . S
C872 H858 0.960 . S
C872 H859 0.960 . S
C872 C871 1.524 . S
C873 C870 1.403 . S
C873 C874 1.392 . S
C873 C877 1.495 . S
C874 C873 1.392 . S
C874 C875 1.385 . S
C874 C876 1.478 . S
C875 H869 0.930 . S
C875 C871 1.400 . S
C875 C874 1.385 . S
C876 C874 1.478 . S
C876 C878 1.381 . S
C876 C882 1.383 . S
C877 C873 1.495 . S
C877 H883 0.959 . S
C877 H884 0.961 . S
C877 H885 0.960 . S
C878 C876 1.381 . S
C878 C879 1.394 . S
C878 H886 0.930 . S
C879 C878 1.394 . S
C879 C880 1.383 . S
C879 H887 0.929 . S
C880 C879 1.383 . S
C880 C881 1.377 . S
C881 H865 0.930 . S
C881 C880 1.377 . S
C881 C882 1.379 . S
C882 H866 0.931 . S
C882 C876 1.383 . S
C882 C881 1.379 . S
H883 C877 0.959 . S
H884 C877 0.961 . S
H885 C877 0.960 . S
H886 C878 0.930 . S
H887 C879 0.929 . S
H888 C896 0.929 . S
H889 C898 0.930 . S
H890 C900 0.930 . S
H891 C903 0.929 . S
H892 C906 0.930 . S
H893 C908 0.960 . S
H894 C908 0.960 . S
H895 C908 0.960 . S
C896 H888 0.929 . S
C896 C897 1.377 . S
C896 C898 1.384 . S
C897 C896 1.377 . S
C897 C903 1.390 . S
C898 H889 0.930 . S
C898 C896 1.384 . S
C898 C899 1.372 . S
C899 C898 1.372 . S
C899 C900 1.400 . S
C899 C904 1.490 . S
C900 H890 0.930 . S
C900 C899 1.400 . S
C900 C903 1.386 . S
H901 C917 0.930 . S
H902 C918 0.931 . S
C903 H891 0.929 . S
C903 C897 1.390 . S
C903 C900 1.386 . S
C904 C899 1.490 . S
C904 C906 1.395 . S
C904 C907 1.403 . S
H905 C911 0.930 . S
C906 H892 0.930 . S
C906 C904 1.395 . S
C906 C909 1.403 . S
C907 C904 1.403 . S
C907 C908 1.524 . S
C907 C911 1.400 . S
C908 H893 0.960 . S
C908 H894 0.960 . S
C908 H895 0.960 . S
C908 C907 1.524 . S
C909 C906 1.403 . S
C909 C910 1.392 . S
C909 C913 1.495 . S
C910 C909 1.392 . S
C910 C911 1.385 . S
C910 C912 1.478 . S
C911 H905 0.930 . S
C911 C907 1.400 . S
C911 C910 1.385 . S
C912 C910 1.478 . S
C912 C914 1.381 . S
C912 C918 1.383 . S
C913 C909 1.495 . S
C913 H919 0.959 . S
C913 H920 0.961 . S
C913 H921 0.960 . S
C914 C912 1.381 . S
C914 C915 1.394 . S
C914 H922 0.930 . S
C915 C914 1.394 . S
C915 C916 1.383 . S
C915 H923 0.929 . S
C916 C915 1.383 . S
C916 C917 1.377 . S
C917 H901 0.930 . S
C917 C916 1.377 . S
C917 C918 1.379 . S
C918 H902 0.931 . S
C918 C912 1.383 . S
C918 C917 1.379 . S
H919 C913 0.959 . S
H920 C913 0.961 . S
H921 C913 0.960 . S
H922 C914 0.930 . S
H923 C915 0.929 . S
H924 C932 0.929 . S
H925 C934 0.930 . S
H926 C936 0.930 . S
H927 C939 0.929 . S
H928 C942 0.930 . S
H929 C944 0.960 . S
H930 C944 0.960 . S
H931 C944 0.960 . S
C932 H924 0.929 . S
C932 C933 1.377 . S
C932 C934 1.384 . S
C933 C932 1.377 . S
C933 C939 1.390 . S
C934 H925 0.930 . S
C934 C932 1.384 . S
C934 C935 1.372 . S
C935 C934 1.372 . S
C935 C936 1.400 . S
C935 C940 1.490 . S
C936 H926 0.930 . S
C936 C935 1.400 . S
C936 C939 1.386 . S
H937 C953 0.930 . S
H938 C954 0.931 . S
C939 H927 0.929 . S
C939 C933 1.390 . S
C939 C936 1.386 . S
C940 C935 1.490 . S
C940 C942 1.395 . S
C940 C943 1.403 . S
H941 C947 0.930 . S
C942 H928 0.930 . S
C942 C940 1.395 . S
C942 C945 1.403 . S
C943 C940 1.403 . S
C943 C944 1.524 . S
C943 C947 1.400 . S
C944 H929 0.960 . S
C944 H930 0.960 . S
C944 H931 0.960 . S
C944 C943 1.524 . S
C945 C942 1.403 . S
C945 C946 1.392 . S
C945 C949 1.495 1_554 S
C946 C945 1.392 . S
C946 C947 1.385 . S
C946 C948 1.478 . S
C947 H941 0.930 . S
C947 C943 1.400 . S
C947 C946 1.385 . S
C948 C946 1.478 . S
C948 C950 1.381 . S
C948 C954 1.383 . S
C949 C945 1.495 1_556 S
C949 H955 0.959 . S
C949 H956 0.961 . S
C949 H957 0.960 . S
C950 C948 1.381 . S
C950 C951 1.394 . S
C950 H958 0.930 . S
C951 C950 1.394 . S
C951 C952 1.383 . S
C951 H959 0.929 . S
C952 C951 1.383 . S
C952 C953 1.377 . S
C953 H937 0.930 . S
C953 C952 1.377 . S
C953 C954 1.379 . S
C954 H938 0.931 . S
C954 C948 1.383 . S
C954 C953 1.379 . S
H955 C949 0.959 . S
H956 C949 0.961 . S
H957 C949 0.960 . S
H958 C950 0.930 . S
H959 C951 0.929 . S
H960 C968 0.929 . S
H961 C970 0.930 . S
H962 C972 0.930 . S
H963 C975 0.929 . S
H964 C978 0.930 . S
H965 C980 0.960 . S
H966 C980 0.960 . S
H967 C980 0.960 . S
C968 H960 0.929 . S
C968 C969 1.377 . S
C968 C970 1.384 . S
C969 C968 1.377 . S
C969 C975 1.390 . S
C970 H961 0.930 . S
C970 C968 1.384 . S
C970 C971 1.372 . S
C971 C970 1.372 . S
C971 C972 1.400 . S
C971 C976 1.490 . S
C972 H962 0.930 . S
C972 C971 1.400 . S
C972 C975 1.386 . S
H973 C989 0.930 . S
H974 C990 0.931 . S
C975 H963 0.929 . S
C975 C969 1.390 . S
C975 C972 1.386 . S
C976 C971 1.490 . S
C976 C978 1.395 . S
C976 C979 1.403 . S
H977 C983 0.930 . S
C978 H964 0.930 . S
C978 C976 1.395 . S
C978 C981 1.403 . S
C979 C976 1.403 . S
C979 C980 1.524 . S
C979 C983 1.400 . S
C980 H965 0.960 . S
C980 H966 0.960 . S
C980 H967 0.960 . S
C980 C979 1.524 . S
C981 C978 1.403 . S
C981 C982 1.392 . S
C981 C985 1.495 . S
C982 C981 1.392 . S
C982 C983 1.385 . S
C982 C984 1.478 . S
C983 H977 0.930 . S
C983 C979 1.400 . S
C983 C982 1.385 . S
C984 C982 1.478 . S
C984 C986 1.381 . S
C984 C990 1.383 . S
C985 C981 1.495 . S
C985 H991 0.959 . S
C985 H992 0.961 . S
C985 H993 0.960 . S
C986 C984 1.381 . S
C986 C987 1.394 . S
C986 H994 0.930 . S
C987 C986 1.394 . S
C987 C988 1.383 . S
C987 H995 0.929 . S
C988 C987 1.383 . S
C988 C989 1.377 . S
C989 H973 0.930 . S
C989 C988 1.377 . S
C989 C990 1.379 . S
C990 H974 0.931 . S
C990 C984 1.383 . S
C990 C989 1.379 . S
H991 C985 0.959 . S
H992 C985 0.961 . S
H993 C985 0.960 . S
H994 C986 0.930 . S
H995 C987 0.929 . S
H996 C1004 0.929 . S
H997 C1006 0.930 . S
H998 C1008 0.930 . S
H999 C1011 0.929 . S
H1000 C1014 0.930 . S
H1001 C1016 0.960 . S
H1002 C1016 0.960 . S
H1003 C1016 0.960 . S
C1004 H996 0.929 . S
C1004 C1005 1.377 . S
C1004 C1006 1.384 . S
C1005 C1004 1.377 . S
C1005 C1011 1.390 . S
C1006 H997 0.930 . S
C1006 C1004 1.384 . S
C1006 C1007 1.372 . S
C1007 C1006 1.372 . S
C1007 C1008 1.400 . S
C1007 C1012 1.490 . S
C1008 H998 0.930 . S
C1008 C1007 1.400 . S
C1008 C1011 1.386 . S
H1009 C1025 0.930 . S
H1010 C1026 0.931 . S
C1011 H999 0.929 . S
C1011 C1005 1.390 . S
C1011 C1008 1.386 . S
C1012 C1007 1.490 . S
C1012 C1014 1.395 . S
C1012 C1015 1.403 . S
H1013 C1019 0.930 . S
C1014 H1000 0.930 . S
C1014 C1012 1.395 . S
C1014 C1017 1.403 . S
C1015 C1012 1.403 . S
C1015 C1016 1.524 . S
C1015 C1019 1.400 . S
C1016 H1001 0.960 . S
C1016 H1002 0.960 . S
C1016 H1003 0.960 . S
C1016 C1015 1.524 . S
C1017 C1014 1.403 . S
C1017 C1018 1.392 . S
C1017 C1021 1.495 . S
C1018 C1017 1.392 . S
C1018 C1019 1.385 . S
C1018 C1020 1.478 . S
C1019 H1013 0.930 . S
C1019 C1015 1.400 . S
C1019 C1018 1.385 . S
C1020 C1018 1.478 . S
C1020 C1022 1.381 . S
C1020 C1026 1.383 . S
C1021 C1017 1.495 . S
C1021 H1027 0.959 . S
C1021 H1028 0.961 . S
C1021 H1029 0.960 . S
C1022 C1020 1.381 . S
C1022 C1023 1.394 . S
C1022 H1030 0.930 . S
C1023 C1022 1.394 . S
C1023 C1024 1.383 . S
C1023 H1031 0.929 . S
C1024 C1023 1.383 . S
C1024 C1025 1.377 . S
C1025 H1009 0.930 . S
C1025 C1024 1.377 . S
C1025 C1026 1.379 . S
C1026 H1010 0.931 . S
C1026 C1020 1.383 . S
C1026 C1025 1.379 . S
H1027 C1021 0.959 . S
H1028 C1021 0.961 . S
H1029 C1021 0.960 . S
H1030 C1022 0.930 . S
H1031 C1023 0.929 . S
H1032 C1040 0.929 . S
H1033 C1042 0.930 . S
H1034 C1044 0.930 . S
H1035 C1047 0.929 . S
H1036 C1050 0.930 . S
H1037 C1052 0.960 . S
H1038 C1052 0.960 . S
H1039 C1052 0.960 . S
C1040 H1032 0.929 . S
C1040 C1041 1.377 . S
C1040 C1042 1.384 . S
C1041 C1040 1.377 . S
C1041 C1047 1.390 . S
C1042 H1033 0.930 . S
C1042 C1040 1.384 . S
C1042 C1043 1.372 . S
C1043 C1042 1.372 . S
C1043 C1044 1.400 . S
C1043 C1048 1.490 . S
C1044 H1034 0.930 . S
C1044 C1043 1.400 . S
C1044 C1047 1.386 . S
H1045 C1061 0.930 . S
H1046 C1062 0.931 . S
C1047 H1035 0.929 . S
C1047 C1041 1.390 . S
C1047 C1044 1.386 . S
C1048 C1043 1.490 . S
C1048 C1050 1.395 . S
C1048 C1051 1.403 . S
H1049 C1055 0.930 . S
C1050 H1036 0.930 . S
C1050 C1048 1.395 . S
C1050 C1053 1.403 . S
C1051 C1048 1.403 . S
C1051 C1052 1.524 . S
C1051 C1055 1.400 . S
C1052 H1037 0.960 . S
C1052 H1038 0.960 . S
C1052 H1039 0.960 . S
C1052 C1051 1.524 . S
C1053 C1050 1.403 . S
C1053 C1054 1.392 . S
C1053 C1057 1.495 . S
C1054 C1053 1.392 . S
C1054 C1055 1.385 . S
C1054 C1056 1.478 . S
C1055 H1049 0.930 . S
C1055 C1051 1.400 . S
C1055 C1054 1.385 . S
C1056 C1054 1.478 . S
C1056 C1058 1.381 . S
C1056 C1062 1.383 . S
C1057 C1053 1.495 . S
C1057 H1063 0.959 . S
C1057 H1064 0.961 . S
C1057 H1065 0.960 . S
C1058 C1056 1.381 . S
C1058 C1059 1.394 . S
C1058 H1066 0.930 . S
C1059 C1058 1.394 . S
C1059 C1060 1.383 . S
C1059 H1067 0.929 . S
C1060 C1059 1.383 . S
C1060 C1061 1.377 . S
C1061 H1045 0.930 . S
C1061 C1060 1.377 . S
C1061 C1062 1.379 . S
C1062 H1046 0.931 . S
C1062 C1056 1.383 . S
C1062 C1061 1.379 . S
H1063 C1057 0.959 . S
H1064 C1057 0.961 . S
H1065 C1057 0.960 . S
H1066 C1058 0.930 . S
H1067 C1059 0.929 . S
H1068 C1076 0.929 . S
H1069 C1078 0.930 . S
H1070 C1080 0.930 . S
H1071 C1083 0.929 . S
H1072 C1086 0.930 . S
H1073 C1088 0.960 . S
H1074 C1088 0.960 . S
H1075 C1088 0.960 . S
C1076 H1068 0.929 . S
C1076 C1077 1.377 . S
C1076 C1078 1.384 . S
C1077 C1076 1.377 . S
C1077 C1083 1.390 . S
C1078 H1069 0.930 . S
C1078 C1076 1.384 . S
C1078 C1079 1.372 . S
C1079 C1078 1.372 . S
C1079 C1080 1.400 . S
C1079 C1084 1.490 . S
C1080 H1070 0.930 . S
C1080 C1079 1.400 . S
C1080 C1083 1.386 . S
H1081 C1097 0.930 . S
H1082 C1098 0.931 . S
C1083 H1071 0.929 . S
C1083 C1077 1.390 . S
C1083 C1080 1.386 . S
C1084 C1079 1.490 . S
C1084 C1086 1.395 . S
C1084 C1087 1.403 . S
H1085 C1091 0.930 . S
C1086 H1072 0.930 . S
C1086 C1084 1.395 . S
C1086 C1089 1.403 . S
C1087 C1084 1.403 . S
C1087 C1088 1.524 . S
C1087 C1091 1.400 . S
C1088 H1073 0.960 . S
C1088 H1074 0.960 . S
C1088 H1075 0.960 . S
C1088 C1087 1.524 . S
C1089 C1086 1.403 . S
C1089 C1090 1.392 . S
C1089 C1093 1.495 . S
C1090 C1089 1.392 . S
C1090 C1091 1.385 . S
C1090 C1092 1.478 . S
C1091 H1085 0.930 . S
C1091 C1087 1.400 . S
C1091 C1090 1.385 . S
C1092 C1090 1.478 . S
C1092 C1094 1.381 . S
C1092 C1098 1.383 . S
C1093 C1089 1.495 . S
C1093 H1099 0.959 . S
C1093 H1100 0.961 . S
C1093 H1101 0.960 . S
C1094 C1092 1.381 . S
C1094 C1095 1.394 . S
C1094 H1102 0.930 . S
C1095 C1094 1.394 . S
C1095 C1096 1.383 . S
C1095 H1103 0.929 . S
C1096 C1095 1.383 . S
C1096 C1097 1.377 . S
C1097 H1081 0.930 . S
C1097 C1096 1.377 . S
C1097 C1098 1.379 . S
C1098 H1082 0.931 . S
C1098 C1092 1.383 . S
C1098 C1097 1.379 . S
H1099 C1093 0.959 . S
H1100 C1093 0.961 . S
H1101 C1093 0.960 . S
H1102 C1094 0.930 . S
H1103 C1095 0.929 . S
H1104 C1112 0.929 . S
H1105 C1114 0.930 . S
H1106 C1116 0.930 . S
H1107 C1119 0.929 . S
H1108 C1122 0.930 . S
H1109 C1124 0.931 1_554 S
H1110 C1124 0.960 . S
H1111 C1124 0.963 . S
C1112 H1104 0.929 . S
C1112 C1113 1.377 . S
C1112 C1114 1.384 . S
C1113 C1112 1.377 . S
C1113 C1119 1.390 . S
C1114 H1105 0.930 . S
C1114 C1112 1.384 . S
C1114 C1115 1.372 . S
C1115 C1114 1.372 . S
C1115 C1116 1.400 . S
C1115 C1120 1.490 . S
C1116 H1106 0.930 . S
C1116 C1115 1.400 . S
C1116 C1119 1.386 . S
H1117 C1133 0.930 . S
H1118 C1134 0.931 . S
C1119 H1107 0.929 . S
C1119 C1113 1.390 . S
C1119 C1116 1.386 . S
C1120 C1115 1.490 . S
C1120 C1122 1.395 . S
C1120 C1123 1.403 . S
H1121 C1127 0.930 . S
C1122 H1108 0.930 . S
C1122 C1120 1.395 . S
C1122 C1125 1.403 . S
C1123 C1120 1.403 . S
C1123 C1124 1.551 . S
C1123 C1127 1.400 . S
C1124 H1109 0.931 1_556 S
C1124 H1110 0.960 . S
C1124 H1111 0.963 . S
C1124 C1123 1.551 . S
C1125 C1122 1.403 . S
C1125 C1126 1.392 . S
C1125 C1129 1.495 . S
C1126 C1125 1.392 . S
C1126 C1127 1.385 . S
C1126 C1128 1.478 . S
C1127 H1121 0.930 . S
C1127 C1123 1.400 . S
C1127 C1126 1.385 . S
C1128 C1126 1.478 . S
C1128 C1130 1.381 . S
C1128 C1134 1.383 . S
C1129 C1125 1.495 . S
C1129 H1135 0.959 . S
C1129 H1136 0.961 . S
C1129 H1137 0.960 . S
C1130 C1128 1.381 . S
C1130 C1131 1.394 . S
C1130 H1138 0.930 . S
C1131 C1130 1.394 . S
C1131 C1132 1.383 . S
C1131 H1139 0.929 . S
C1132 C1131 1.383 . S
C1132 C1133 1.377 . S
C1133 H1117 0.930 . S
C1133 C1132 1.377 . S
C1133 C1134 1.379 . S
C1134 H1118 0.931 . S
C1134 C1128 1.383 . S
C1134 C1133 1.379 . S
H1135 C1129 0.959 . S
H1136 C1129 0.961 . S
H1137 C1129 0.960 . S
H1138 C1130 0.930 . S
H1139 C1131 0.929 . S
H1140 C1148 0.929 . S
H1141 C1150 0.930 . S
H1142 C1152 0.930 . S
H1143 C1155 0.929 . S
H1144 C1158 0.930 . S
H1145 C1160 0.960 . S
H1146 C1160 0.960 . S
H1147 C1160 0.960 . S
C1148 H1140 0.929 . S
C1148 C1149 1.377 . S
C1148 C1150 1.384 . S
C1149 C1148 1.377 . S
C1149 C1155 1.390 . S
C1150 H1141 0.930 . S
C1150 C1148 1.384 . S
C1150 C1151 1.372 . S
C1151 C1150 1.372 . S
C1151 C1152 1.400 . S
C1151 C1156 1.490 . S
C1152 H1142 0.930 . S
C1152 C1151 1.400 . S
C1152 C1155 1.386 . S
H1153 C1169 0.930 . S
H1154 C1170 0.931 . S
C1155 H1143 0.929 . S
C1155 C1149 1.390 . S
C1155 C1152 1.386 . S
C1156 C1151 1.490 . S
C1156 C1158 1.395 . S
C1156 C1159 1.403 . S
H1157 C1163 0.930 . S
C1158 H1144 0.930 . S
C1158 C1156 1.395 . S
C1158 C1161 1.403 . S
C1159 C1156 1.403 . S
C1159 C1160 1.524 . S
C1159 C1163 1.400 . S
C1160 H1145 0.960 . S
C1160 H1146 0.960 . S
C1160 H1147 0.960 . S
C1160 C1159 1.524 . S
C1161 C1158 1.403 . S
C1161 C1162 1.392 . S
C1161 C1165 1.495 . S
C1162 C1161 1.392 . S
C1162 C1163 1.385 . S
C1162 C1164 1.478 . S
C1163 H1157 0.930 . S
C1163 C1159 1.400 . S
C1163 C1162 1.385 . S
C1164 C1162 1.478 . S
C1164 C1166 1.381 . S
C1164 C1170 1.383 . S
C1165 C1161 1.495 . S
C1165 H1171 0.959 . S
C1165 H1172 0.961 . S
C1165 H1173 0.960 . S
C1166 C1164 1.381 . S
C1166 C1167 1.394 . S
C1166 H1174 0.930 . S
C1167 C1166 1.394 . S
C1167 C1168 1.383 . S
C1167 H1175 0.929 . S
C1168 C1167 1.383 . S
C1168 C1169 1.377 . S
C1169 H1153 0.930 . S
C1169 C1168 1.377 . S
C1169 C1170 1.379 . S
C1170 H1154 0.931 . S
C1170 C1164 1.383 . S
C1170 C1169 1.379 . S
H1171 C1165 0.959 . S
H1172 C1165 0.961 . S
H1173 C1165 0.960 . S
H1174 C1166 0.930 . S
H1175 C1167 0.929 . S
H1176 C1184 0.929 . S
H1177 C1186 0.930 . S
H1178 C1188 0.930 . S
H1179 C1191 0.929 . S
H1180 C1194 0.930 . S
H1181 C1196 0.960 . S
H1182 C1196 0.960 . S
H1183 C1196 0.960 . S
C1184 H1176 0.929 . S
C1184 C1185 1.377 . S
C1184 C1186 1.384 . S
C1185 C1184 1.377 . S
C1185 C1191 1.390 . S
C1186 H1177 0.930 . S
C1186 C1184 1.384 . S
C1186 C1187 1.372 . S
C1187 C1186 1.372 . S
C1187 C1188 1.400 . S
C1187 C1192 1.490 . S
C1188 H1178 0.930 . S
C1188 C1187 1.400 . S
C1188 C1191 1.386 . S
H1189 C1205 0.930 . S
H1190 C1206 0.931 . S
C1191 H1179 0.929 . S
C1191 C1185 1.390 . S
C1191 C1188 1.386 . S
C1192 C1187 1.490 . S
C1192 C1194 1.395 . S
C1192 C1195 1.403 . S
H1193 C1199 0.930 . S
C1194 H1180 0.930 . S
C1194 C1192 1.395 . S
C1194 C1197 1.403 . S
C1195 C1192 1.403 . S
C1195 C1196 1.524 . S
C1195 C1199 1.400 . S
C1196 H1181 0.960 . S
C1196 H1182 0.960 . S
C1196 H1183 0.960 . S
C1196 C1195 1.524 . S
C1197 C1194 1.403 . S
C1197 C1198 1.392 . S
C1197 C1201 1.495 . S
C1198 C1197 1.392 . S
C1198 C1199 1.385 . S
C1198 C1200 1.478 . S
C1199 H1193 0.930 . S
C1199 C1195 1.400 . S
C1199 C1198 1.385 . S
C1200 C1198 1.478 . S
C1200 C1202 1.381 . S
C1200 C1206 1.383 . S
C1201 C1197 1.495 . S
C1201 H1207 0.959 . S
C1201 H1208 0.961 . S
C1201 H1209 0.960 . S
C1202 C1200 1.381 . S
C1202 C1203 1.394 . S
C1202 H1210 0.930 . S
C1203 C1202 1.394 . S
C1203 C1204 1.383 . S
C1203 H1211 0.929 . S
C1204 C1203 1.383 . S
C1204 C1205 1.377 . S
C1205 H1189 0.930 . S
C1205 C1204 1.377 . S
C1205 C1206 1.379 . S
C1206 H1190 0.931 . S
C1206 C1200 1.383 . S
C1206 C1205 1.379 . S
H1207 C1201 0.959 . S
H1208 C1201 0.961 . S
H1209 C1201 0.960 . S
H1210 C1202 0.930 . S
H1211 C1203 0.929 . S
H1212 C1220 0.929 . S
H1213 C1222 0.930 . S
H1214 C1224 0.930 . S
H1215 C1227 0.929 . S
H1216 C1230 0.930 . S
H1217 C1232 0.960 . S
H1218 C1232 0.960 . S
H1219 C1232 0.960 . S
C1220 H1212 0.929 . S
C1220 C1221 1.377 . S
C1220 C1222 1.384 . S
C1221 C1220 1.377 . S
C1221 C1227 1.390 . S
C1222 H1213 0.930 . S
C1222 C1220 1.384 . S
C1222 C1223 1.372 . S
C1223 C1222 1.372 . S
C1223 C1224 1.400 . S
C1223 C1228 1.490 . S
C1224 H1214 0.930 . S
C1224 C1223 1.400 . S
C1224 C1227 1.386 . S
H1225 C1241 0.930 . S
H1226 C1242 0.931 . S
C1227 H1215 0.929 . S
C1227 C1221 1.390 . S
C1227 C1224 1.386 . S
C1228 C1223 1.490 . S
C1228 C1230 1.395 . S
C1228 C1231 1.403 . S
H1229 C1235 0.930 . S
C1230 H1216 0.930 . S
C1230 C1228 1.395 . S
C1230 C1233 1.403 . S
C1231 C1228 1.403 . S
C1231 C1232 1.524 . S
C1231 C1235 1.400 . S
C1232 H1217 0.960 . S
C1232 H1218 0.960 . S
C1232 H1219 0.960 . S
C1232 C1231 1.524 . S
C1233 C1230 1.403 . S
C1233 C1234 1.392 . S
C1233 C1237 1.495 . S
C1234 C1233 1.392 . S
C1234 C1235 1.385 . S
C1234 C1236 1.478 . S
C1235 H1229 0.930 . S
C1235 C1231 1.400 . S
C1235 C1234 1.385 . S
C1236 C1234 1.478 . S
C1236 C1238 1.381 . S
C1236 C1242 1.383 . S
C1237 C1233 1.495 . S
C1237 H1243 0.959 . S
C1237 H1244 0.961 . S
C1237 H1245 0.960 . S
C1238 C1236 1.381 . S
C1238 C1239 1.394 . S
C1238 H1246 0.930 . S
C1239 C1238 1.394 . S
C1239 C1240 1.383 . S
C1239 H1247 0.929 . S
C1240 C1239 1.383 . S
C1240 C1241 1.377 . S
C1241 H1225 0.930 . S
C1241 C1240 1.377 . S
C1241 C1242 1.379 . S
C1242 H1226 0.931 . S
C1242 C1236 1.383 . S
C1242 C1241 1.379 . S
H1243 C1237 0.959 . S
H1244 C1237 0.961 . S
H1245 C1237 0.960 . S
H1246 C1238 0.930 . S
H1247 C1239 0.929 . S
H1248 C1256 0.929 . S
H1249 C1258 0.930 . S
H1250 C1260 0.930 . S
H1251 C1263 0.929 . S
H1252 C1266 0.930 . S
H1253 C1268 0.960 . S
H1254 C1268 0.960 . S
H1255 C1268 0.960 . S
C1256 H1248 0.929 . S
C1256 C1257 1.377 . S
C1256 C1258 1.384 . S
C1257 C1256 1.377 . S
C1257 C1263 1.390 . S
C1258 H1249 0.930 . S
C1258 C1256 1.384 . S
C1258 C1259 1.372 . S
C1259 C1258 1.372 . S
C1259 C1260 1.400 . S
C1259 C1264 1.490 . S
C1260 H1250 0.930 . S
C1260 C1259 1.400 . S
C1260 C1263 1.386 . S
H1261 C1277 0.930 . S
H1262 C1278 0.931 . S
C1263 H1251 0.929 . S
C1263 C1257 1.390 . S
C1263 C1260 1.386 . S
C1264 C1259 1.490 . S
C1264 C1266 1.395 . S
C1264 C1267 1.403 . S
H1265 C1271 0.930 . S
C1266 H1252 0.930 . S
C1266 C1264 1.395 . S
C1266 C1269 1.403 . S
C1267 C1264 1.403 . S
C1267 C1268 1.524 . S
C1267 C1271 1.400 . S
C1268 H1253 0.960 . S
C1268 H1254 0.960 . S
C1268 H1255 0.960 . S
C1268 C1267 1.524 . S
C1269 C1266 1.403 . S
C1269 C1270 1.392 . S
C1269 C1273 1.495 . S
C1270 C1269 1.392 . S
C1270 C1271 1.385 . S
C1270 C1272 1.478 . S
C1271 H1265 0.930 . S
C1271 C1267 1.400 . S
C1271 C1270 1.385 . S
C1272 C1270 1.478 . S
C1272 C1274 1.381 . S
C1272 C1278 1.383 . S
C1273 C1269 1.495 . S
C1273 H1279 0.959 . S
C1273 H1280 0.961 . S
C1273 H1281 0.960 . S
C1274 C1272 1.381 . S
C1274 C1275 1.394 . S
C1274 H1282 0.930 . S
C1275 C1274 1.394 . S
C1275 C1276 1.383 . S
C1275 H1283 0.929 . S
C1276 C1275 1.383 . S
C1276 C1277 1.377 . S
C1277 H1261 0.930 . S
C1277 C1276 1.377 . S
C1277 C1278 1.379 . S
C1278 H1262 0.931 . S
C1278 C1272 1.383 . S
C1278 C1277 1.379 . S
H1279 C1273 0.959 . S
H1280 C1273 0.961 . S
H1281 C1273 0.960 . S
H1282 C1274 0.930 . S
H1283 C1275 0.929 . S
H1284 C1292 0.929 . S
H1285 C1294 0.930 . S
H1286 C1296 0.930 . S
H1287 C1299 0.929 . S
H1288 C1302 0.930 . S
H1289 C1304 0.960 . S
H1290 C1304 0.960 . S
H1291 C1304 0.960 . S
C1292 H1284 0.929 . S
C1292 C1293 1.377 . S
C1292 C1294 1.384 . S
C1293 C1292 1.377 . S
C1293 C1299 1.390 . S
C1294 H1285 0.930 . S
C1294 C1292 1.384 . S
C1294 C1295 1.372 . S
C1295 C1294 1.372 . S
C1295 C1296 1.400 . S
C1295 C1300 1.490 . S
C1296 H1286 0.930 . S
C1296 C1295 1.400 . S
C1296 C1299 1.386 . S
H1297 C1313 0.930 . S
H1298 C1314 0.931 . S
C1299 H1287 0.929 . S
C1299 C1293 1.390 . S
C1299 C1296 1.386 . S
C1300 C1295 1.490 . S
C1300 C1302 1.395 . S
C1300 C1303 1.403 . S
H1301 C1307 0.930 . S
C1302 H1288 0.930 . S
C1302 C1300 1.395 . S
C1302 C1305 1.403 . S
C1303 C1300 1.403 . S
C1303 C1304 1.524 . S
C1303 C1307 1.400 . S
C1304 H1289 0.960 . S
C1304 H1290 0.960 . S
C1304 H1291 0.960 . S
C1304 C1303 1.524 . S
C1305 C1302 1.403 . S
C1305 C1306 1.392 . S
C1305 C1309 1.495 . S
C1306 C1305 1.392 . S
C1306 C1307 1.385 . S
C1306 C1308 1.478 . S
C1307 H1301 0.930 . S
C1307 C1303 1.400 . S
C1307 C1306 1.385 . S
C1308 C1306 1.478 . S
C1308 C1310 1.381 . S
C1308 C1314 1.383 . S
C1309 C1305 1.495 . S
C1309 H1315 0.959 . S
C1309 H1316 0.961 . S
C1309 H1317 0.960 . S
C1310 C1308 1.381 . S
C1310 C1311 1.394 . S
C1310 H1318 0.930 . S
C1311 C1310 1.394 . S
C1311 C1312 1.383 . S
C1311 H1319 0.929 . S
C1312 C1311 1.383 . S
C1312 C1313 1.377 . S
C1313 H1297 0.930 . S
C1313 C1312 1.377 . S
C1313 C1314 1.379 . S
C1314 H1298 0.931 . S
C1314 C1308 1.383 . S
C1314 C1313 1.379 . S
H1315 C1309 0.959 . S
H1316 C1309 0.961 . S
H1317 C1309 0.960 . S
H1318 C1310 0.930 . S
H1319 C1311 0.929 . S
H1320 C1328 0.929 . S
H1321 C1330 0.930 . S
H1322 C1332 0.930 . S
H1323 C1335 0.929 . S
H1324 C1338 0.930 . S
H1325 C1340 0.960 . S
H1326 C1340 0.960 . S
H1327 C1340 0.960 . S
C1328 H1320 0.929 . S
C1328 C1329 1.377 . S
C1328 C1330 1.384 . S
C1329 C1328 1.377 . S
C1329 C1335 1.390 . S
C1330 H1321 0.930 . S
C1330 C1328 1.384 . S
C1330 C1331 1.372 . S
C1331 C1330 1.372 . S
C1331 C1332 1.400 . S
C1331 C1336 1.490 . S
C1332 H1322 0.930 . S
C1332 C1331 1.400 . S
C1332 C1335 1.386 . S
H1333 C1349 0.930 . S
H1334 C1350 0.931 . S
C1335 H1323 0.929 . S
C1335 C1329 1.390 . S
C1335 C1332 1.386 . S
C1336 C1331 1.490 . S
C1336 C1338 1.395 . S
C1336 C1339 1.403 . S
H1337 C1343 0.930 . S
C1338 H1324 0.930 . S
C1338 C1336 1.395 . S
C1338 C1341 1.403 . S
C1339 C1336 1.403 . S
C1339 C1340 1.524 . S
C1339 C1343 1.400 . S
C1340 H1325 0.960 . S
C1340 H1326 0.960 . S
C1340 H1327 0.960 . S
C1340 C1339 1.524 . S
C1341 C1338 1.403 . S
C1341 C1342 1.392 . S
C1341 C1345 1.495 . S
C1342 C1341 1.392 . S
C1342 C1343 1.385 . S
C1342 C1344 1.478 . S
C1343 H1337 0.930 . S
C1343 C1339 1.400 . S
C1343 C1342 1.385 . S
C1344 C1342 1.478 . S
C1344 C1346 1.381 . S
C1344 C1350 1.383 . S
C1345 C1341 1.495 . S
C1345 H1351 0.959 . S
C1345 H1352 0.961 . S
C1345 H1353 0.960 . S
C1346 C1344 1.381 . S
C1346 C1347 1.394 . S
C1346 H1354 0.930 . S
C1347 C1346 1.394 . S
C1347 C1348 1.383 . S
C1347 H1355 0.929 . S
C1348 C1347 1.383 . S
C1348 C1349 1.377 . S
C1349 H1333 0.930 . S
C1349 C1348 1.377 . S
C1349 C1350 1.379 . S
C1350 H1334 0.931 . S
C1350 C1344 1.383 . S
C1350 C1349 1.379 . S
H1351 C1345 0.959 . S
H1352 C1345 0.961 . S
H1353 C1345 0.960 . S
H1354 C1346 0.930 . S
H1355 C1347 0.929 . S
H1356 C1364 0.929 . S
H1357 C1366 0.930 . S
H1358 C1368 0.930 . S
H1359 C1371 0.929 . S
H1360 C1374 0.930 . S
H1361 C1376 0.960 . S
H1362 C1376 0.960 . S
H1363 C1376 0.960 . S
C1364 H1356 0.929 . S
C1364 C1365 1.377 . S
C1364 C1366 1.384 . S
C1365 C1364 1.377 . S
C1365 C1371 1.390 . S
C1366 H1357 0.930 . S
C1366 C1364 1.384 . S
C1366 C1367 1.372 . S
C1367 C1366 1.372 . S
C1367 C1368 1.400 . S
C1367 C1372 1.490 . S
C1368 H1358 0.930 . S
C1368 C1367 1.400 . S
C1368 C1371 1.386 . S
H1369 C1385 0.930 . S
H1370 C1386 0.931 . S
C1371 H1359 0.929 . S
C1371 C1365 1.390 . S
C1371 C1368 1.386 . S
C1372 C1367 1.490 . S
C1372 C1374 1.395 . S
C1372 C1375 1.403 . S
H1373 C1379 0.930 . S
C1374 H1360 0.930 . S
C1374 C1372 1.395 . S
C1374 C1377 1.403 . S
C1375 C1372 1.403 . S
C1375 C1376 1.524 . S
C1375 C1379 1.400 . S
C1376 H1361 0.960 . S
C1376 H1362 0.960 . S
C1376 H1363 0.960 . S
C1376 C1375 1.524 . S
C1377 C1374 1.403 . S
C1377 C1378 1.392 . S
C1377 C1381 1.495 . S
C1378 C1377 1.392 . S
C1378 C1379 1.385 . S
C1378 C1380 1.478 . S
C1379 H1373 0.930 . S
C1379 C1375 1.400 . S
C1379 C1378 1.385 . S
C1380 C1378 1.478 . S
C1380 C1382 1.381 . S
C1380 C1386 1.383 . S
C1381 C1377 1.495 . S
C1381 H1387 0.959 . S
C1381 H1388 0.961 . S
C1381 H1389 0.960 . S
C1382 C1380 1.381 . S
C1382 C1383 1.394 . S
C1382 H1390 0.930 . S
C1383 C1382 1.394 . S
C1383 C1384 1.383 . S
C1383 H1391 0.929 . S
C1384 C1383 1.383 . S
C1384 C1385 1.377 . S
C1385 H1369 0.930 . S
C1385 C1384 1.377 . S
C1385 C1386 1.379 . S
C1386 H1370 0.931 . S
C1386 C1380 1.383 . S
C1386 C1385 1.379 . S
H1387 C1381 0.959 . S
H1388 C1381 0.961 . S
H1389 C1381 0.960 . S
H1390 C1382 0.930 . S
H1391 C1383 0.929 . S
H1392 C1400 0.929 . S
H1393 C1402 0.930 . S
H1394 C1404 0.930 . S
H1395 C1407 0.929 . S
H1396 C1410 0.930 . S
H1397 C1412 0.960 . S
H1398 C1412 0.960 . S
H1399 C1412 0.960 . S
C1400 H1392 0.929 . S
C1400 C1401 1.377 . S
C1400 C1402 1.384 . S
C1401 C1400 1.377 . S
C1401 C1407 1.390 . S
C1402 H1393 0.930 . S
C1402 C1400 1.384 . S
C1402 C1403 1.372 . S
C1403 C1402 1.372 . S
C1403 C1404 1.400 . S
C1403 C1408 1.490 . S
C1404 H1394 0.930 . S
C1404 C1403 1.400 . S
C1404 C1407 1.386 . S
H1405 C1421 0.930 . S
H1406 C1422 0.931 . S
C1407 H1395 0.929 . S
C1407 C1401 1.390 . S
C1407 C1404 1.386 . S
C1408 C1403 1.490 . S
C1408 C1410 1.395 . S
C1408 C1411 1.403 . S
H1409 C1415 0.930 . S
C1410 H1396 0.930 . S
C1410 C1408 1.395 . S
C1410 C1413 1.403 . S
C1411 C1408 1.403 . S
C1411 C1412 1.524 . S
C1411 C1415 1.400 . S
C1412 H1397 0.960 . S
C1412 H1398 0.960 . S
C1412 H1399 0.960 . S
C1412 C1411 1.524 . S
C1413 C1410 1.403 . S
C1413 C1414 1.392 . S
C1413 C1417 1.495 . S
C1414 C1413 1.392 . S
C1414 C1415 1.385 . S
C1414 C1416 1.478 . S
C1415 H1409 0.930 . S
C1415 C1411 1.400 . S
C1415 C1414 1.385 . S
C1416 C1414 1.478 . S
C1416 C1418 1.381 . S
C1416 C1422 1.383 . S
C1417 C1413 1.495 . S
C1417 H1423 0.959 . S
C1417 H1424 0.961 . S
C1417 H1425 0.960 . S
C1418 C1416 1.381 . S
C1418 C1419 1.394 . S
C1418 H1426 0.930 . S
C1419 C1418 1.394 . S
C1419 C1420 1.383 . S
C1419 H1427 0.929 . S
C1420 C1419 1.383 . S
C1420 C1421 1.377 . S
C1421 H1405 0.930 . S
C1421 C1420 1.377 . S
C1421 C1422 1.379 . S
C1422 H1406 0.931 . S
C1422 C1416 1.383 . S
C1422 C1421 1.379 . S
H1423 C1417 0.959 . S
H1424 C1417 0.961 . S
H1425 C1417 0.960 . S
H1426 C1418 0.930 . S
H1427 C1419 0.929 . S
H1428 C1436 0.929 . S
H1429 C1438 0.930 . S
H1430 C1440 0.930 . S
H1431 C1443 0.929 . S
H1432 C1446 0.930 . S
H1433 C1448 0.960 . S
H1434 C1448 0.960 . S
H1435 C1448 0.960 . S
C1436 H1428 0.929 . S
C1436 C1437 1.377 . S
C1436 C1438 1.384 . S
C1437 C1436 1.377 . S
C1437 C1443 1.390 . S
C1438 H1429 0.930 . S
C1438 C1436 1.384 . S
C1438 C1439 1.372 . S
C1439 C1438 1.372 . S
C1439 C1440 1.400 . S
C1439 C1444 1.490 . S
C1440 H1430 0.930 . S
C1440 C1439 1.400 . S
C1440 C1443 1.386 . S
H1441 C1457 0.930 . S
H1442 C1458 0.931 . S
C1443 H1431 0.929 . S
C1443 C1437 1.390 . S
C1443 C1440 1.386 . S
C1444 C1439 1.490 . S
C1444 C1446 1.395 . S
C1444 C1447 1.403 . S
H1445 C1451 0.930 . S
C1446 H1432 0.930 . S
C1446 C1444 1.395 . S
C1446 C1449 1.403 . S
C1447 C1444 1.403 . S
C1447 C1448 1.524 . S
C1447 C1451 1.400 . S
C1448 H1433 0.960 . S
C1448 H1434 0.960 . S
C1448 H1435 0.960 . S
C1448 C1447 1.524 . S
C1449 C1446 1.403 . S
C1449 C1450 1.392 . S
C1449 C1453 1.495 . S
C1450 C1449 1.392 . S
C1450 C1451 1.385 . S
C1450 C1452 1.478 . S
C1451 H1445 0.930 . S
C1451 C1447 1.400 . S
C1451 C1450 1.385 . S
C1452 C1450 1.478 . S
C1452 C1454 1.381 . S
C1452 C1458 1.383 . S
C1453 C1449 1.495 . S
C1453 H1459 0.959 . S
C1453 H1460 0.961 . S
C1453 H1461 0.960 . S
C1454 C1452 1.381 . S
C1454 C1455 1.394 . S
C1454 H1462 0.930 . S
C1455 C1454 1.394 . S
C1455 C1456 1.383 . S
C1455 H1463 0.929 . S
C1456 C1455 1.383 . S
C1456 C1457 1.377 . S
C1457 H1441 0.930 . S
C1457 C1456 1.377 . S
C1457 C1458 1.379 . S
C1458 H1442 0.931 . S
C1458 C1452 1.383 . S
C1458 C1457 1.379 . S
H1459 C1453 0.959 . S
H1460 C1453 0.961 . S
H1461 C1453 0.960 . S
H1462 C1454 0.930 . S
H1463 C1455 0.929 . S
H1464 C1472 0.929 . S
H1465 C1474 0.930 . S
H1466 C1476 0.930 . S
H1467 C1479 0.929 . S
H1468 C1482 0.930 . S
H1469 C1484 0.960 . S
H1470 C1484 0.960 . S
H1471 C1484 0.960 . S
C1472 H1464 0.929 . S
C1472 C1473 1.377 . S
C1472 C1474 1.384 . S
C1473 C1472 1.377 . S
C1473 C1479 1.390 . S
C1474 H1465 0.930 . S
C1474 C1472 1.384 . S
C1474 C1475 1.372 . S
C1475 C1474 1.372 . S
C1475 C1476 1.400 . S
C1475 C1480 1.490 . S
C1476 H1466 0.930 . S
C1476 C1475 1.400 . S
C1476 C1479 1.386 . S
H1477 C1493 0.930 . S
H1478 C1494 0.931 . S
C1479 H1467 0.929 . S
C1479 C1473 1.390 . S
C1479 C1476 1.386 . S
C1480 C1475 1.490 . S
C1480 C1482 1.395 . S
C1480 C1483 1.403 . S
H1481 C1487 0.930 . S
C1482 H1468 0.930 . S
C1482 C1480 1.395 . S
C1482 C1485 1.403 . S
C1483 C1480 1.403 . S
C1483 C1484 1.524 . S
C1483 C1487 1.400 . S
C1484 H1469 0.960 . S
C1484 H1470 0.960 . S
C1484 H1471 0.960 . S
C1484 C1483 1.524 . S
C1485 C1482 1.403 . S
C1485 C1486 1.392 . S
C1485 C1489 1.495 . S
C1486 C1485 1.392 . S
C1486 C1487 1.385 . S
C1486 C1488 1.478 . S
C1487 H1481 0.930 . S
C1487 C1483 1.400 . S
C1487 C1486 1.385 . S
C1488 C1486 1.478 . S
C1488 C1490 1.381 . S
C1488 C1494 1.383 . S
C1489 C1485 1.495 . S
C1489 H1495 0.959 . S
C1489 H1496 0.961 . S
C1489 H1497 0.960 . S
C1490 C1488 1.381 . S
C1490 C1491 1.394 . S
C1490 H1498 0.930 . S
C1491 C1490 1.394 . S
C1491 C1492 1.383 . S
C1491 H1499 0.929 . S
C1492 C1491 1.383 . S
C1492 C1493 1.377 . S
C1493 H1477 0.930 . S
C1493 C1492 1.377 . S
C1493 C1494 1.379 . S
C1494 H1478 0.931 . S
C1494 C1488 1.383 . S
C1494 C1493 1.379 . S
H1495 C1489 0.959 . S
H1496 C1489 0.961 . S
H1497 C1489 0.960 . S
H1498 C1490 0.930 . S
H1499 C1491 0.929 . S
H1500 C1508 0.929 . S
H1501 C1510 0.930 . S
H1502 C1512 0.930 . S
H1503 C1515 0.929 . S
H1504 C1518 0.930 . S
H1505 C1520 0.960 . S
H1506 C1520 0.960 . S
H1507 C1520 0.960 . S
C1508 H1500 0.929 . S
C1508 C1509 1.377 . S
C1508 C1510 1.384 . S
C1509 C1508 1.377 . S
C1509 C1515 1.390 . S
C1510 H1501 0.930 . S
C1510 C1508 1.384 . S
C1510 C1511 1.372 . S
C1511 C1510 1.372 . S
C1511 C1512 1.400 . S
C1511 C1516 1.490 . S
C1512 H1502 0.930 . S
C1512 C1511 1.400 . S
C1512 C1515 1.386 . S
H1513 C1529 0.930 . S
H1514 C1530 0.931 . S
C1515 H1503 0.929 . S
C1515 C1509 1.390 . S
C1515 C1512 1.386 . S
C1516 C1511 1.490 . S
C1516 C1518 1.395 . S
C1516 C1519 1.403 . S
H1517 C1523 0.930 . S
C1518 H1504 0.930 . S
C1518 C1516 1.395 . S
C1518 C1521 1.403 . S
C1519 C1516 1.403 . S
C1519 C1520 1.524 . S
C1519 C1523 1.400 . S
C1520 H1505 0.960 . S
C1520 H1506 0.960 . S
C1520 H1507 0.960 . S
C1520 C1519 1.524 . S
C1521 C1518 1.403 . S
C1521 C1522 1.392 . S
C1521 C1525 1.495 . S
C1522 C1521 1.392 . S
C1522 C1523 1.385 . S
C1522 C1524 1.478 . S
C1523 H1517 0.930 . S
C1523 C1519 1.400 . S
C1523 C1522 1.385 . S
C1524 C1522 1.478 . S
C1524 C1526 1.381 . S
C1524 C1530 1.383 . S
C1525 C1521 1.495 . S
C1525 H1531 0.959 . S
C1525 H1532 0.961 . S
C1525 H1533 0.960 . S
C1526 C1524 1.381 . S
C1526 C1527 1.394 . S
C1526 H1534 0.930 . S
C1527 C1526 1.394 . S
C1527 C1528 1.383 . S
C1527 H1535 0.929 . S
C1528 C1527 1.383 . S
C1528 C1529 1.377 . S
C1529 H1513 0.930 . S
C1529 C1528 1.377 . S
C1529 C1530 1.379 . S
C1530 H1514 0.931 . S
C1530 C1524 1.383 . S
C1530 C1529 1.379 . S
H1531 C1525 0.959 . S
H1532 C1525 0.961 . S
H1533 C1525 0.960 . S
H1534 C1526 0.930 . S
H1535 C1527 0.929 . S
H1536 C1544 0.929 . S
H1537 C1546 0.930 . S
H1538 C1548 0.930 . S
H1539 C1551 0.929 . S
H1540 C1554 0.930 . S
H1541 C1556 0.960 . S
H1542 C1556 0.960 . S
H1543 C1556 0.960 . S
C1544 H1536 0.929 . S
C1544 C1545 1.377 . S
C1544 C1546 1.384 . S
C1545 C1544 1.377 . S
C1545 C1551 1.390 . S
C1546 H1537 0.930 . S
C1546 C1544 1.384 . S
C1546 C1547 1.372 . S
C1547 C1546 1.372 . S
C1547 C1548 1.400 . S
C1547 C1552 1.490 . S
C1548 H1538 0.930 . S
C1548 C1547 1.400 . S
C1548 C1551 1.386 . S
H1549 C1565 0.930 . S
H1550 C1566 0.931 . S
C1551 H1539 0.929 . S
C1551 C1545 1.390 . S
C1551 C1548 1.386 . S
C1552 C1547 1.490 . S
C1552 C1554 1.395 . S
C1552 C1555 1.403 . S
H1553 C1559 0.930 . S
C1554 H1540 0.930 . S
C1554 C1552 1.395 . S
C1554 C1557 1.403 . S
C1555 C1552 1.403 . S
C1555 C1556 1.524 . S
C1555 C1559 1.400 . S
C1556 H1541 0.960 . S
C1556 H1542 0.960 . S
C1556 H1543 0.960 . S
C1556 C1555 1.524 . S
C1557 C1554 1.403 . S
C1557 C1558 1.392 . S
C1557 C1561 1.495 . S
C1558 C1557 1.392 . S
C1558 C1559 1.385 . S
C1558 C1560 1.478 . S
C1559 H1553 0.930 . S
C1559 C1555 1.400 . S
C1559 C1558 1.385 . S
C1560 C1558 1.478 . S
C1560 C1562 1.381 . S
C1560 C1566 1.383 . S
C1561 C1557 1.495 . S
C1561 H1567 0.959 . S
C1561 H1568 0.961 . S
C1561 H1569 0.960 . S
C1562 C1560 1.381 . S
C1562 C1563 1.394 . S
C1562 H1570 0.930 . S
C1563 C1562 1.394 . S
C1563 C1564 1.383 . S
C1563 H1571 0.929 . S
C1564 C1563 1.383 . S
C1564 C1565 1.377 . S
C1565 H1549 0.930 . S
C1565 C1564 1.377 . S
C1565 C1566 1.379 . S
C1566 H1550 0.931 . S
C1566 C1560 1.383 . S
C1566 C1565 1.379 . S
H1567 C1561 0.959 . S
H1568 C1561 0.961 . S
H1569 C1561 0.960 . S
H1570 C1562 0.930 . S
H1571 C1563 0.929 . S
H1572 C1580 0.929 . S
H1573 C1582 0.930 . S
H1574 C1584 0.930 . S
H1575 C1587 0.929 . S
H1576 C1590 0.930 . S
H1577 C1592 0.960 . S
H1578 C1592 0.960 . S
H1579 C1592 0.960 . S
C1580 H1572 0.929 . S
C1580 C1581 1.377 . S
C1580 C1582 1.384 . S
C1581 C1580 1.377 . S
C1581 C1587 1.390 . S
C1582 H1573 0.930 . S
C1582 C1580 1.384 . S
C1582 C1583 1.372 . S
C1583 C1582 1.372 . S
C1583 C1584 1.400 . S
C1583 C1588 1.490 . S
C1584 H1574 0.930 . S
C1584 C1583 1.400 . S
C1584 C1587 1.386 . S
H1585 C1601 0.930 . S
H1586 C1602 0.931 . S
C1587 H1575 0.929 . S
C1587 C1581 1.390 . S
C1587 C1584 1.386 . S
C1588 C1583 1.490 . S
C1588 C1590 1.395 . S
C1588 C1591 1.403 . S
H1589 C1595 0.930 . S
C1590 H1576 0.930 . S
C1590 C1588 1.395 . S
C1590 C1593 1.403 . S
C1591 C1588 1.403 . S
C1591 C1592 1.524 . S
C1591 C1595 1.400 . S
C1592 H1577 0.960 . S
C1592 H1578 0.960 . S
C1592 H1579 0.960 . S
C1592 C1591 1.524 . S
C1593 C1590 1.403 . S
C1593 C1594 1.392 . S
C1593 C1597 1.495 . S
C1594 C1593 1.392 . S
C1594 C1595 1.385 . S
C1594 C1596 1.478 . S
C1595 H1589 0.930 . S
C1595 C1591 1.400 . S
C1595 C1594 1.385 . S
C1596 C1594 1.478 . S
C1596 C1598 1.381 . S
C1596 C1602 1.383 . S
C1597 C1593 1.495 . S
C1597 H1603 0.959 . S
C1597 H1604 0.961 . S
C1597 H1605 0.960 . S
C1598 C1596 1.381 . S
C1598 C1599 1.394 . S
C1598 H1606 0.930 . S
C1599 C1598 1.394 . S
C1599 C1600 1.383 . S
C1599 H1607 0.929 . S
C1600 C1599 1.383 . S
C1600 C1601 1.377 . S
C1601 H1585 0.930 . S
C1601 C1600 1.377 . S
C1601 C1602 1.379 . S
C1602 H1586 0.931 . S
C1602 C1596 1.383 . S
C1602 C1601 1.379 . S
H1603 C1597 0.959 . S
H1604 C1597 0.961 . S
H1605 C1597 0.960 . S
H1606 C1598 0.930 . S
H1607 C1599 0.929 . S
H1608 C1616 0.929 . S
H1609 C1618 0.930 . S
H1610 C1620 0.930 . S
H1611 C1623 0.929 . S
H1612 C1626 0.930 . S
H1613 C1628 0.960 . S
H1614 C1628 0.960 . S
H1615 C1628 0.960 . S
C1616 H1608 0.929 . S
C1616 C1617 1.377 . S
C1616 C1618 1.384 . S
C1617 C1616 1.377 . S
C1617 C1623 1.390 . S
C1618 H1609 0.930 . S
C1618 C1616 1.384 . S
C1618 C1619 1.372 . S
C1619 C1618 1.372 . S
C1619 C1620 1.400 . S
C1619 C1624 1.490 . S
C1620 H1610 0.930 . S
C1620 C1619 1.400 . S
C1620 C1623 1.386 . S
H1621 C1637 0.930 . S
H1622 C1638 0.931 . S
C1623 H1611 0.929 . S
C1623 C1617 1.390 . S
C1623 C1620 1.386 . S
C1624 C1619 1.490 . S
C1624 C1626 1.395 . S
C1624 C1627 1.403 . S
H1625 C1631 0.930 . S
C1626 H1612 0.930 . S
C1626 C1624 1.395 . S
C1626 C1629 1.403 . S
C1627 C1624 1.403 . S
C1627 C1628 1.524 . S
C1627 C1631 1.400 . S
C1628 H1613 0.960 . S
C1628 H1614 0.960 . S
C1628 H1615 0.960 . S
C1628 C1627 1.524 . S
C1629 C1626 1.403 . S
C1629 C1630 1.392 . S
C1629 C1633 1.495 . S
C1630 C1629 1.392 . S
C1630 C1631 1.385 . S
C1630 C1632 1.478 . S
C1631 H1625 0.930 . S
C1631 C1627 1.400 . S
C1631 C1630 1.385 . S
C1632 C1630 1.478 . S
C1632 C1634 1.381 . S
C1632 C1638 1.383 . S
C1633 C1629 1.495 . S
C1633 H1639 0.959 . S
C1633 H1640 0.961 . S
C1633 H1641 0.960 . S
C1634 C1632 1.381 . S
C1634 C1635 1.394 . S
C1634 H1642 0.930 . S
C1635 C1634 1.394 . S
C1635 C1636 1.383 . S
C1635 H1643 0.929 . S
C1636 C1635 1.383 . S
C1636 C1637 1.377 . S
C1637 H1621 0.930 . S
C1637 C1636 1.377 . S
C1637 C1638 1.379 . S
C1638 H1622 0.931 . S
C1638 C1632 1.383 . S
C1638 C1637 1.379 . S
H1639 C1633 0.959 . S
H1640 C1633 0.961 . S
H1641 C1633 0.960 . S
H1642 C1634 0.930 . S
H1643 C1635 0.929 . S
H1644 C1652 0.929 . S
H1645 C1654 0.930 . S
H1646 C1656 0.930 . S
H1647 C1659 0.929 . S
H1648 C1662 0.930 . S
H1649 C1664 0.960 . S
H1650 C1664 0.960 . S
H1651 C1664 0.960 . S
C1652 H1644 0.929 . S
C1652 C1653 1.377 . S
C1652 C1654 1.384 . S
C1653 C1652 1.377 . S
C1653 C1659 1.390 . S
C1654 H1645 0.930 . S
C1654 C1652 1.384 . S
C1654 C1655 1.372 . S
C1655 C1654 1.372 . S
C1655 C1656 1.400 . S
C1655 C1660 1.490 . S
C1656 H1646 0.930 . S
C1656 C1655 1.400 . S
C1656 C1659 1.386 . S
H1657 C1673 0.930 . S
H1658 C1674 0.931 . S
C1659 H1647 0.929 . S
C1659 C1653 1.390 . S
C1659 C1656 1.386 . S
C1660 C1655 1.490 . S
C1660 C1662 1.395 . S
C1660 C1663 1.403 . S
H1661 C1667 0.930 . S
C1662 H1648 0.930 . S
C1662 C1660 1.395 . S
C1662 C1665 1.403 . S
C1663 C1660 1.403 . S
C1663 C1664 1.524 . S
C1663 C1667 1.400 . S
C1664 H1649 0.960 . S
C1664 H1650 0.960 . S
C1664 H1651 0.960 . S
C1664 C1663 1.524 . S
C1665 C1662 1.403 . S
C1665 C1666 1.392 . S
C1665 C1669 1.495 . S
C1666 C1665 1.392 . S
C1666 C1667 1.385 . S
C1666 C1668 1.478 . S
C1667 H1661 0.930 . S
C1667 C1663 1.400 . S
C1667 C1666 1.385 . S
C1668 C1666 1.478 . S
C1668 C1670 1.381 . S
C1668 C1674 1.383 . S
C1669 C1665 1.495 . S
C1669 H1675 0.959 . S
C1669 H1676 0.961 . S
C1669 H1677 0.960 . S
C1670 C1668 1.381 . S
C1670 C1671 1.394 . S
C1670 H1678 0.930 . S
C1671 C1670 1.394 . S
C1671 C1672 1.383 . S
C1671 H1679 0.929 . S
C1672 C1671 1.383 . S
C1672 C1673 1.377 . S
C1673 H1657 0.930 . S
C1673 C1672 1.377 . S
C1673 C1674 1.379 . S
C1674 H1658 0.931 . S
C1674 C1668 1.383 . S
C1674 C1673 1.379 . S
H1675 C1669 0.959 . S
H1676 C1669 0.961 . S
H1677 C1669 0.960 . S
H1678 C1670 0.930 . S
H1679 C1671 0.929 . S
H1680 C1688 0.929 . S
H1681 C1690 0.930 . S
H1682 C1692 0.930 . S
H1683 C1695 0.929 . S
H1684 C1698 0.930 . S
H1685 C1700 0.960 . S
H1686 C1700 0.960 . S
H1687 C1700 0.960 . S
C1688 H1680 0.929 . S
C1688 C1689 1.377 . S
C1688 C1690 1.384 . S
C1689 C1688 1.377 . S
C1689 C1695 1.390 . S
C1690 H1681 0.930 . S
C1690 C1688 1.384 . S
C1690 C1691 1.372 . S
C1691 C1690 1.372 . S
C1691 C1692 1.400 . S
C1691 C1696 1.490 . S
C1692 H1682 0.930 . S
C1692 C1691 1.400 . S
C1692 C1695 1.386 . S
H1693 C1709 0.930 . S
H1694 C1710 0.931 . S
C1695 H1683 0.929 . S
C1695 C1689 1.390 . S
C1695 C1692 1.386 . S
C1696 C1691 1.490 . S
C1696 C1698 1.395 . S
C1696 C1699 1.403 . S
H1697 C1703 0.930 . S
C1698 H1684 0.930 . S
C1698 C1696 1.395 . S
C1698 C1701 1.403 . S
C1699 C1696 1.403 . S
C1699 C1700 1.524 . S
C1699 C1703 1.400 . S
C1700 H1685 0.960 . S
C1700 H1686 0.960 . S
C1700 H1687 0.960 . S
C1700 C1699 1.524 . S
C1701 C1698 1.403 . S
C1701 C1702 1.392 . S
C1701 C1705 1.495 . S
C1702 C1701 1.392 . S
C1702 C1703 1.385 . S
C1702 C1704 1.478 . S
C1703 H1697 0.930 . S
C1703 C1699 1.400 . S
C1703 C1702 1.385 . S
C1704 C1702 1.478 . S
C1704 C1706 1.381 . S
C1704 C1710 1.383 . S
C1705 C1701 1.495 . S
C1705 H1711 0.959 . S
C1705 H1712 0.961 . S
C1705 H1713 0.960 . S
C1706 C1704 1.381 . S
C1706 C1707 1.394 . S
C1706 H1714 0.930 . S
C1707 C1706 1.394 . S
C1707 C1708 1.383 . S
C1707 H1715 0.929 . S
C1708 C1707 1.383 . S
C1708 C1709 1.377 . S
C1709 H1693 0.930 . S
C1709 C1708 1.377 . S
C1709 C1710 1.379 . S
C1710 H1694 0.931 . S
C1710 C1704 1.383 . S
C1710 C1709 1.379 . S
H1711 C1705 0.959 . S
H1712 C1705 0.961 . S
H1713 C1705 0.960 . S
H1714 C1706 0.930 . S
H1715 C1707 0.929 . S
H1716 C1724 0.929 . S
H1717 C1726 0.930 . S
H1718 C1728 0.930 . S
H1719 C1731 0.929 . S
H1720 C1734 0.930 . S
H1721 C1736 0.960 . S
H1722 C1736 0.960 . S
H1723 C1736 0.960 . S
C1724 H1716 0.929 . S
C1724 C1725 1.377 . S
C1724 C1726 1.384 . S
C1725 C1724 1.377 . S
C1725 C1731 1.390 . S
C1726 H1717 0.930 . S
C1726 C1724 1.384 . S
C1726 C1727 1.372 . S
C1727 C1726 1.372 . S
C1727 C1728 1.400 . S
C1727 C1732 1.490 . S
C1728 H1718 0.930 . S
C1728 C1727 1.400 . S
C1728 C1731 1.386 . S
H1729 C1745 0.930 . S
H1730 C1746 0.931 . S
C1731 H1719 0.929 . S
C1731 C1725 1.390 . S
C1731 C1728 1.386 . S
C1732 C1727 1.490 . S
C1732 C1734 1.395 . S
C1732 C1735 1.403 . S
H1733 C1739 0.930 . S
C1734 H1720 0.930 . S
C1734 C1732 1.395 . S
C1734 C1737 1.403 . S
C1735 C1732 1.403 . S
C1735 C1736 1.524 . S
C1735 C1739 1.400 . S
C1736 H1721 0.960 . S
C1736 H1722 0.960 . S
C1736 H1723 0.960 . S
C1736 C1735 1.524 . S
C1737 C1734 1.403 . S
C1737 C1738 1.392 . S
C1737 C1741 1.495 . S
C1738 C1737 1.392 . S
C1738 C1739 1.385 . S
C1738 C1740 1.478 . S
C1739 H1733 0.930 . S
C1739 C1735 1.400 . S
C1739 C1738 1.385 . S
C1740 C1738 1.478 . S
C1740 C1742 1.381 . S
C1740 C1746 1.383 . S
C1741 C1737 1.495 . S
C1741 H1747 0.959 . S
C1741 H1748 0.961 . S
C1741 H1749 0.960 . S
C1742 C1740 1.381 . S
C1742 C1743 1.394 . S
C1742 H1750 0.930 . S
C1743 C1742 1.394 . S
C1743 C1744 1.383 . S
C1743 H1751 0.929 . S
C1744 C1743 1.383 . S
C1744 C1745 1.377 . S
C1745 H1729 0.930 . S
C1745 C1744 1.377 . S
C1745 C1746 1.379 . S
C1746 H1730 0.931 . S
C1746 C1740 1.383 . S
C1746 C1745 1.379 . S
H1747 C1741 0.959 . S
H1748 C1741 0.961 . S
H1749 C1741 0.960 . S
H1750 C1742 0.930 . S
H1751 C1743 0.929 . S
C628 C512 1.357 . S
C609 C35 1.289 . S
C664 C526 1.353 . S
C645 C115 1.289 . S
C700 C539 1.369 . S
C681 C177 1.284 . S
C717 C221 1.276 . S
C736 C506 1.376 . S
C753 C283 1.284 . S
C772 C499 1.384 . S
C789 C363 1.294 . S
C808 C519 1.370 . S
C844 C527 1.368 . S
C825 C407 1.280 . S
C880 C540 1.375 . S
C861 C469 1.281 . S
C897 C159 1.288 . S
C916 C566 1.357 . S
C952 C584 1.360 . S
C933 C239 1.280 . S
C969 C53 1.282 . S
C988 C591 1.371 . S
C1024 C558 1.373 . S
C1005 C97 1.278 . S
C1041 C425 1.295 . S
C1060 C551 1.384 . S
C1077 C487 1.300 . S
C1096 C565 1.363 . S
C1132 C577 1.365 . S
C1113 C301 1.296 . S
C1149 C345 1.279 . S
C1168 C592 1.378 . S
C1204 C525 1.982 . S
C1185 C29 1.966 . S
C1240 C538 1.986 . S
C1221 C109 1.941 . S
C1257 C171 1.929 . S
C1276 C501 1.971 . S
C1293 C215 1.952 . S
C1312 C513 1.945 . S
C1329 C277 1.950 . S
C1348 C545 1.960 . S
C1384 C500 1.938 . S
C1365 C357 1.920 . S
C1420 C514 1.970 . S
C1401 C401 1.960 . S
C1456 C532 1.961 . S
C1437 C463 1.956 . S
C1492 C579 1.979 . S
C1473 C153 1.965 . S
C1528 C590 1.977 . S
C1509 C233 1.944 . S
C1545 C47 1.929 . S
C1564 C553 1.970 . S
C1600 C571 1.966 . S
C1581 C91 1.956 . S
C1636 C597 1.950 . S
C1617 C419 1.923 . S
C1653 C481 1.922 . S
C1672 C552 1.937 . S
C1708 C564 1.960 . S
C1689 C295 1.935 . S
C1744 C578 1.968 . S
C1725 C339 1.958 . S
