# Generated by pormake.
# Topology rtl, (3,6)-cn, num edge types: 1
# Building blocks:
#     Node 0, Type 0, BuildingBlock: VETTIZ_charged_linker_0, # of connection points: 3
#     Node 1, Type 0, BuildingBlock: VETTIZ_charged_linker_0, # of connection points: 3
#     Node 2, Type 0, BuildingBlock: VETTIZ_charged_linker_0, # of connection points: 3
#     Node 3, Type 0, BuildingBlock: VETTIZ_charged_linker_0, # of connection points: 3
#     Node 4, Type 1, BuildingBlock: FUNLAD_clean_sbu_0, # of connection points: 6
#     Node 5, Type 1, BuildingBlock: FUNLAD_clean_sbu_0, # of connection points: 6
#     Edge 6, Type (0, 1), BuildingBlock: XIVTED_clean_linker_0, # of connection points: 2
#     Edge 7, Type (0, 1), BuildingBlock: XIVTED_clean_linker_0, # of connection points: 2
#     Edge 8, Type (0, 1), BuildingBlock: XIVTED_clean_linker_0, # of connection points: 2
#     Edge 9, Type (0, 1), BuildingBlock: XIVTED_clean_linker_0, # of connection points: 2
#     Edge 10, Type (0, 1), BuildingBlock: XIVTED_clean_linker_0, # of connection points: 2
#     Edge 11, Type (0, 1), BuildingBlock: XIVTED_clean_linker_0, # of connection points: 2
#     Edge 12, Type (0, 1), BuildingBlock: XIVTED_clean_linker_0, # of connection points: 2
#     Edge 13, Type (0, 1), BuildingBlock: XIVTED_clean_linker_0, # of connection points: 2
#     Edge 14, Type (0, 1), BuildingBlock: XIVTED_clean_linker_0, # of connection points: 2
#     Edge 15, Type (0, 1), BuildingBlock: XIVTED_clean_linker_0, # of connection points: 2
#     Edge 16, Type (0, 1), BuildingBlock: XIVTED_clean_linker_0, # of connection points: 2
#     Edge 17, Type (0, 1), BuildingBlock: XIVTED_clean_linker_0, # of connection points: 2
# Relax obj value: 0.029
# Max RMSD: 0.096
# Mean RMSD: 0.081
data_MOF--net-rtl--node1-FUNLAD_clean_sbu_0--node2-VETTIZ_charged_linker_0--edge1-XIVTED_clean_linker_0
_symmetry_space_group_name_H-M    P1
_symmetry_Int_Tables_number       1
_symmetry_cell_setting            triclinic
loop_
_symmetry_equiv_pos_as_xyz
'x, y, z'
_cell_length_a     48.874668
_cell_length_b     39.551963
_cell_length_c     28.371465
_cell_angle_alpha  89.929184
_cell_angle_beta   90.922403
_cell_angle_gamma 90.571097
loop_
_atom_site_label
_atom_site_type_symbol
_atom_site_fract_x
_atom_site_fract_y
_atom_site_fract_z
_atom_type_partial_charge
C0 C 0.08381 0.79033 0.8613 0.0
C1 C 0.06146 0.81244 0.85879 0.0
C2 C 0.04686 0.8193 0.90006 0.0
C3 C 0.07831 0.785 0.94586 0.0
C4 C 0.09177 0.77683 0.90504 0.0
C5 C 0.11557 0.75378 0.91433 0.0
H6 H 0.20125 0.67886 0.07118 0.0
C7 C 0.0931 0.76926 0.98588 0.0
C8 C 0.11476 0.75057 0.96768 0.0
H9 H 0.20246 0.67401 0.91892 0.0
H10 H 0.16128 0.70688 0.9141 0.0
H11 H 0.18652 0.75545 0.07772 0.0
H12 H 0.1342 0.66717 0.08007 0.0
H13 H 0.12347 0.69504 0.12428 0.0
H14 H 0.15748 0.67783 0.12749 0.0
H15 H 0.18446 0.72852 0.12851 0.0
H16 H 0.16107 0.76297 0.11919 0.0
C17 C 0.14192 0.77207 0.89782 0.0
C18 C 0.10957 0.71956 0.88943 0.0
C19 C 0.06762 0.80066 0.15253 0.0
C20 C 0.07975 0.7943 0.19682 0.0
C21 C 0.10215 0.77216 0.19987 0.0
C22 C 0.11267 0.75724 0.15921 0.0
C23 C 0.10092 0.7649 0.11493 0.0
C24 C 0.07857 0.78599 0.11229 0.0
C25 C 0.06947 0.79273 0.06238 0.0
C26 C 0.09005 0.77225 0.03535 0.0
C27 C 0.10843 0.75598 0.06622 0.0
C28 C 0.07258 0.83124 0.05307 0.0
C29 C 0.03996 0.77862 0.05568 0.0
C30 C 0.19241 0.68446 0.03683 0.0
C31 C 0.20528 0.67403 0.99536 0.0
C32 C 0.19323 0.68222 0.95136 0.0
C33 C 0.16924 0.70122 0.94862 0.0
C34 C 0.15715 0.71243 0.99028 0.0
C35 C 0.16846 0.70357 0.03346 0.0
C36 C 0.15278 0.71791 0.07394 0.0
C37 C 0.13012 0.73658 0.04786 0.0
C38 C 0.13301 0.73357 -0.00113 0.0
C39 C 0.17207 0.74235 0.10173 0.0
C40 C 0.14144 0.68811 0.10343 0.0
H41 H 0.04352 0.81248 0.97375 0.0
H42 H 0.09512 0.7841 0.83002 0.0
H43 H 0.08718 0.71445 0.88632 0.0
H44 H 0.11771 0.69776 0.90948 0.0
H45 H 0.11794 0.71931 0.85327 0.0
H46 H 0.14171 0.79921 0.9081 0.0
H47 H 0.14368 0.77088 0.85887 0.0
H48 H 0.16078 0.76188 0.91396 0.0
H49 H 0.05073 0.81806 0.14888 0.0
H50 H 0.11172 0.76672 0.2337 0.0
H51 H 0.12992 0.74091 0.16372 0.0
H52 H 0.09097 0.8417 0.07179 0.0
H53 H 0.0545 0.84521 0.06566 0.0
H54 H 0.07579 0.83753 0.01569 0.0
H55 H 0.03665 0.75571 0.07775 0.0
H56 H 0.03558 0.77015 0.01919 0.0
H57 H 0.02455 0.7976 0.06592 0.0
H58 H 0.02965 0.83636 0.89913 0.0
C59 C 0.05511 0.80564 0.94349 0.0
C60 C 0.57914 0.73028 0.6751 0.0
C61 C 0.55623 0.7086 0.67808 0.0
C62 C 0.54081 0.70132 0.63686 0.0
C63 C 0.57306 0.73325 0.59017 0.0
C64 C 0.58712 0.74236 0.63091 0.0
C65 C 0.61185 0.76405 0.62092 0.0
H66 H 0.70079 0.82669 0.46202 0.0
C67 C 0.58857 0.74621 0.54965 0.0
C68 C 0.61118 0.76459 0.56736 0.0
H69 H 0.70128 0.84205 0.61294 0.0
H70 H 0.65919 0.81005 0.61897 0.0
H71 H 0.68599 0.7523 0.46369 0.0
H72 H 0.6332 0.83783 0.4457 0.0
H73 H 0.62477 0.80726 0.40239 0.0
H74 H 0.65864 0.82551 0.40425 0.0
H75 H 0.68093 0.77174 0.40716 0.0
H76 H 0.65873 0.7382 0.42764 0.0
C77 C 0.63749 0.74584 0.64075 0.0
C78 C 0.60719 0.79963 0.64208 0.0
C79 C 0.56261 0.70596 0.38518 0.0
C80 C 0.5766 0.70629 0.34213 0.0
C81 C 0.60098 0.72565 0.33913 0.0
C82 C 0.61153 0.74328 0.37835 0.0
C83 C 0.59799 0.74109 0.42154 0.0
C84 C 0.57394 0.72268 0.42437 0.0
C85 C 0.56381 0.7201 0.47401 0.0
C86 C 0.5857 0.74025 0.50049 0.0
C87 C 0.60542 0.75291 0.4695 0.0
C88 C 0.56345 0.68215 0.48836 0.0
C89 C 0.53563 0.73752 0.47608 0.0
C90 C 0.69159 0.82364 0.49627 0.0
C91 C 0.70441 0.83685 0.53707 0.0
C92 C 0.69199 0.83176 0.58107 0.0
C93 C 0.66749 0.8133 0.58449 0.0
C94 C 0.65533 0.7995 0.54356 0.0
C95 C 0.66716 0.80516 0.50031 0.0
C96 C 0.65147 0.78828 0.46067 0.0
C97 C 0.62789 0.77232 0.48718 0.0
C98 C 0.63049 0.77858 0.53576 0.0
C99 C 0.67013 0.76136 0.43821 0.0
C100 C 0.64152 0.81599 0.42606 0.0
H101 H 0.53695 0.70633 0.56274 0.0
H102 H 0.59106 0.73685 0.70633 0.0
H103 H 0.58501 0.80546 0.64404 0.0
H104 H 0.61584 0.82008 0.62005 0.0
H105 H 0.61595 0.80159 0.67835 0.0
H106 H 0.6365 0.71839 0.63227 0.0
H107 H 0.63899 0.74839 0.67969 0.0
H108 H 0.65677 0.75515 0.62557 0.0
H109 H 0.54361 0.69208 0.38917 0.0
H110 H 0.61265 0.72624 0.30705 0.0
H111 H 0.63032 0.75707 0.37387 0.0
H112 H 0.57875 0.66748 0.46841 0.0
H113 H 0.54307 0.67037 0.48133 0.0
H114 H 0.56927 0.67798 0.52566 0.0
H115 H 0.53554 0.76099 0.45441 0.0
H116 H 0.53044 0.74574 0.51202 0.0
H117 H 0.5191 0.72063 0.46223 0.0
H118 H 0.52312 0.68464 0.63815 0.0
C119 C 0.54904 0.71363 0.593 0.0
C120 C 0.91405 0.21396 0.15771 0.0
C121 C 0.9365 0.192 0.16091 0.0
C122 C 0.95113 0.18458 0.11985 0.0
C123 C 0.91974 0.21827 0.07307 0.0
C124 C 0.90616 0.22691 0.11357 0.0
C125 C 0.88246 0.25003 0.10347 0.0
H126 H 0.79905 0.32532 0.94284 0.0
C127 C 0.90523 0.23373 0.03256 0.0
C128 C 0.88354 0.25274 0.05007 0.0
H129 H 0.79542 0.33054 0.09489 0.0
H130 H 0.8364 0.29727 0.10174 0.0
H131 H 0.86515 0.33593 0.93625 0.0
H132 H 0.81285 0.24769 0.93802 0.0
H133 H 0.83857 0.23994 0.89713 0.0
H134 H 0.81538 0.2745 0.88718 0.0
H135 H 0.84304 0.32447 0.88758 0.0
H136 H 0.87708 0.30762 0.89364 0.0
C137 C 0.88846 0.28443 0.12781 0.0
C138 C 0.85596 0.23211 0.11992 0.0
C139 C 0.93175 0.2011 0.86675 0.0
C140 C 0.92014 0.2077 0.82209 0.0
C141 C 0.89807 0.23028 0.81841 0.0
C142 C 0.88729 0.24534 0.85873 0.0
C143 C 0.89848 0.23745 0.90333 0.0
C144 C 0.92057 0.216 0.90666 0.0
C145 C 0.92926 0.20946 0.95685 0.0
C146 C 0.90864 0.23037 0.98322 0.0
C147 C 0.89064 0.24667 0.95177 0.0
C148 C 0.95886 0.22319 0.964 0.0
C149 C 0.92573 0.17105 0.96653 0.0
C150 C 0.80702 0.31922 0.97763 0.0
C151 C 0.79385 0.33048 0.01836 0.0
C152 C 0.80526 0.32246 0.06293 0.0
C153 C 0.82897 0.30291 0.06686 0.0
C154 C 0.84144 0.29111 0.02583 0.0
C155 C 0.83068 0.29973 0.98217 0.0
C156 C 0.84669 0.28507 0.94239 0.0
C157 C 0.86892 0.26635 0.96937 0.0
C158 C 0.86558 0.26967 0.01825 0.0
C159 C 0.85855 0.31463 0.91299 0.0
C160 C 0.82753 0.26066 0.91427 0.0
H161 H 0.95459 0.19045 0.04607 0.0
H162 H 0.9027 0.22059 0.18878 0.0
H163 H 0.85605 0.2049 0.11 0.0
H164 H 0.83723 0.24241 0.10344 0.0
H165 H 0.85407 0.23358 0.15883 0.0
H166 H 0.91084 0.28979 0.12999 0.0
H167 H 0.88055 0.28472 0.16429 0.0
H168 H 0.87989 0.30603 0.1079 0.0
H169 H 0.94843 0.18345 0.87089 0.0
H170 H 0.88895 0.23601 0.78431 0.0
H171 H 0.8703 0.262 0.85368 0.0
H172 H 0.96277 0.24547 0.94099 0.0
H173 H 0.97417 0.20368 0.95535 0.0
H174 H 0.96286 0.23253 0.00021 0.0
H175 H 0.90711 0.16089 0.94818 0.0
H176 H 0.9227 0.16497 0.00402 0.0
H177 H 0.94355 0.15669 0.9537 0.0
H178 H 0.96837 0.16759 0.12125 0.0
C179 C 0.94293 0.19765 0.07607 0.0
C180 C 0.41941 0.2819 0.35175 0.0
C181 C 0.44131 0.30503 0.34764 0.0
C182 C 0.45653 0.31421 0.38833 0.0
C183 C 0.42663 0.28005 0.43653 0.0
C184 C 0.4126 0.26956 0.39644 0.0
C185 C 0.38965 0.2453 0.40763 0.0
H186 H 0.30906 0.17237 0.57136 0.0
C187 C 0.41327 0.26473 0.4777 0.0
C188 C 0.39191 0.24375 0.46112 0.0
H189 H 0.30324 0.16285 0.41968 0.0
H190 H 0.34481 0.19554 0.41162 0.0
H191 H 0.3737 0.16116 0.58004 0.0
H192 H 0.32575 0.2519 0.57176 0.0
H193 H 0.35002 0.25636 0.61786 0.0
H194 H 0.32475 0.22322 0.62085 0.0
H195 H 0.35561 0.17679 0.62993 0.0
H196 H 0.38986 0.19123 0.61685 0.0
C197 C 0.39587 0.21076 0.3846 0.0
C198 C 0.36246 0.26143 0.39064 0.0
C199 C 0.43839 0.30764 0.64097 0.0
C200 C 0.4284 0.30031 0.68591 0.0
C201 C 0.40953 0.27356 0.69153 0.0
C202 C 0.39951 0.25557 0.65216 0.0
C203 C 0.40853 0.26452 0.60691 0.0
C204 C 0.4284 0.28934 0.60218 0.0
C205 C 0.43639 0.29471 0.55184 0.0
C206 C 0.41723 0.26996 0.52679 0.0
C207 C 0.40064 0.25276 0.55908 0.0
C208 C 0.46686 0.28479 0.54682 0.0
C209 C 0.43009 0.33192 0.53864 0.0
C210 C 0.31672 0.17741 0.5364 0.0
C211 C 0.30268 0.16527 0.49611 0.0
C212 C 0.3137 0.17174 0.45132 0.0
C213 C 0.33774 0.19099 0.44666 0.0
C214 C 0.35086 0.20415 0.48717 0.0
C215 C 0.34066 0.19668 0.53115 0.0
C216 C 0.35738 0.21265 0.57028 0.0
C217 C 0.37917 0.2312 0.54248 0.0
C218 C 0.37503 0.22646 0.49377 0.0
C219 C 0.36972 0.18417 0.6013 0.0
C220 C 0.33866 0.23725 0.59701 0.0
H221 H 0.46136 0.31035 0.46229 0.0
H222 H 0.40764 0.27396 0.32096 0.0
H223 H 0.36219 0.28881 0.39955 0.0
H224 H 0.34427 0.25047 0.40754 0.0
H225 H 0.35985 0.25909 0.35181 0.0
H226 H 0.4183 0.20668 0.38224 0.0
H227 H 0.3871 0.2092 0.3483 0.0
H228 H 0.38827 0.18912 0.40554 0.0
H229 H 0.45328 0.32777 0.63607 0.0
H230 H 0.40174 0.26752 0.7261 0.0
H231 H 0.38461 0.23602 0.65829 0.0
H232 H 0.47347 0.26684 0.57491 0.0
H233 H 0.48056 0.30732 0.54915 0.0
H234 H 0.47065 0.27126 0.51343 0.0
H235 H 0.40982 0.33937 0.55232 0.0
H236 H 0.42888 0.33647 0.50037 0.0
H237 H 0.44575 0.34939 0.55406 0.0
H238 H 0.47337 0.33213 0.3862 0.0
C239 C 0.44937 0.30176 0.43263 0.0
C240 C 0.01894 0.95503 0.445 0.0
N241 N 0.06234 0.03373 0.51181 0.0
C242 C 0.08411 0.01254 0.51371 0.0
C243 C 0.11077 0.02553 0.51401 0.0
C244 C 0.11509 0.06067 0.51258 0.0
C245 C 0.09225 0.08193 0.5109 0.0
C246 C 0.06594 0.06786 0.51044 0.0
Zn247 Zn 0.02362 0.01386 0.51032 0.0
C248 C 0.98864 0.04629 0.43602 0.0
N249 N 0.94283 0.97209 0.50633 0.0
C250 C 0.93982 0.938 0.51059 0.0
C251 C 0.92071 0.99265 0.50336 0.0
C252 C 0.89426 0.97907 0.50549 0.0
C253 C 0.8906 0.94403 0.51104 0.0
C254 C 0.9138 0.92339 0.5131 0.0
Zn255 Zn 0.98142 0.9923 0.50734 0.0
O256 O 0.03576 0.97699 0.46111 0.0
C257 C 0.01632 0.96 0.5818 0.0
O258 O 0.99421 0.95554 0.45816 0.0
H259 H 0.92358 0.0197 0.50017 0.0
H260 H 0.08079 0.98549 0.51495 0.0
H261 H 0.95767 0.92209 0.51271 0.0
O262 O 0.03406 0.98067 0.56616 0.0
O263 O 0.99237 0.95967 0.56374 0.0
H264 H 0.04836 0.08423 0.50872 0.0
O265 O 0.9692 0.02929 0.55626 0.0
O266 O 0.01086 0.0504 0.55987 0.0
O267 O 0.97104 0.02531 0.45138 0.0
O268 O 0.0126 0.04684 0.45417 0.0
C269 C 0.98609 0.05103 0.57278 0.0
H270 H 0.12781 0.00826 0.51586 0.0
H271 H 0.09466 0.10915 0.50916 0.0
H272 H 0.87691 0.99589 0.50415 0.0
H273 H 0.91187 0.89621 0.51668 0.0
C274 C 0.48425 0.46072 0.94268 0.0
N275 N 0.56053 0.4758 0.00988 0.0
C276 C 0.5632 0.44161 0.00889 0.0
C277 C 0.58908 0.42708 0.00815 0.0
C278 C 0.61253 0.44789 0.00861 0.0
C279 C 0.6092 0.48313 0.00979 0.0
C280 C 0.58288 0.49662 0.01028 0.0
Zn281 Zn 0.52198 0.49544 0.01128 0.0
C282 C 0.51462 0.55249 0.94529 0.0
N283 N 0.44096 0.53463 0.01502 0.0
C284 C 0.41849 0.51402 0.0139 0.0
C285 C 0.43849 0.56886 0.01572 0.0
C286 C 0.41272 0.58364 0.01432 0.0
C287 C 0.38916 0.56306 0.01236 0.0
C288 C 0.39224 0.52778 0.01273 0.0
Zn289 Zn 0.47943 0.5149 0.01369 0.0
O290 O 0.50865 0.4604 0.95882 0.0
C291 C 0.48684 0.45777 0.07952 0.0
O292 O 0.46742 0.48195 0.95866 0.0
H293 H 0.45659 0.5848 0.01688 0.0
H294 H 0.5452 0.42549 0.00887 0.0
H295 H 0.42092 0.48687 0.01325 0.0
O296 O 0.51111 0.4603 0.06436 0.0
O297 O 0.4686 0.47771 0.06381 0.0
H298 H 0.58029 0.52374 0.01097 0.0
O299 O 0.49195 0.54753 0.06906 0.0
O300 O 0.53453 0.53085 0.06355 0.0
O301 O 0.49094 0.55171 0.96313 0.0
O302 O 0.53224 0.53089 0.95845 0.0
C303 C 0.51683 0.54961 0.08245 0.0
H304 H 0.59069 0.39979 0.00796 0.0
H305 H 0.62673 0.50009 0.00974 0.0
H306 H 0.41126 0.61094 0.01481 0.0
H307 H 0.37459 0.51102 0.0109 0.0
H308 H 0.28373 0.1093 0.448 0.0
H309 H 0.13491 0.11558 0.56145 0.0
H310 H 0.26053 0.18132 0.55394 0.0
H311 H 0.15936 0.0386 0.46347 0.0
H312 H 0.18102 0.13982 0.55923 0.0
H313 H 0.23847 0.08266 0.45333 0.0
C314 C 0.26913 0.11948 0.4724 0.0
C315 C 0.27593 0.14758 0.50055 0.0
C316 C 0.17635 0.11756 0.53831 0.0
C317 C 0.22415 0.11722 0.50693 0.0
C318 C 0.14997 0.10383 0.53935 0.0
C319 C 0.14324 0.07509 0.51248 0.0
C320 C 0.19617 0.10258 0.50998 0.0
C321 C 0.16372 0.0606 0.48508 0.0
C322 C 0.24334 0.10418 0.47559 0.0
C323 C 0.25632 0.15946 0.53198 0.0
N324 N 0.18922 0.07458 0.48436 0.0
N325 N 0.23131 0.14433 0.53414 0.0
H326 H 0.22075 0.62259 0.05506 0.0
H327 H 0.37335 0.61632 0.95734 0.0
H328 H 0.25027 0.68481 0.94124 0.0
H329 H 0.34237 0.5449 0.05897 0.0
H330 H 0.32844 0.64249 0.95284 0.0
H331 H 0.26522 0.59453 0.05898 0.0
C332 C 0.23658 0.63035 0.03094 0.0
C333 C 0.23176 0.65602 -0.00232 0.0
C334 C 0.33138 0.62106 0.9761 0.0
C335 C 0.28259 0.62404 0.00189 0.0
C336 C 0.3571 0.60623 0.9789 0.0
C337 C 0.36166 0.57851 0.0088 0.0
C338 C 0.30999 0.60824 0.00356 0.0
C339 C 0.33968 0.56611 0.03525 0.0
C340 C 0.26189 0.61423 0.03303 0.0
C341 C 0.25292 0.66485 0.96699 0.0
N342 N 0.31481 0.58117 0.03219 0.0
N343 N 0.27738 0.64899 0.96996 0.0
H344 H 0.72059 0.88396 0.47183 0.0
H345 H 0.87415 0.89529 0.57307 0.0
H346 H 0.74924 0.82998 0.59505 0.0
H347 H 0.84387 0.95885 0.46044 0.0
H348 H 0.82858 0.87028 0.58027 0.0
H349 H 0.76565 0.91108 0.46581 0.0
C350 C 0.73637 0.87784 0.49761 0.0
C351 C 0.73116 0.85469 0.53401 0.0
C352 C 0.83184 0.88974 0.55401 0.0
C353 C 0.78269 0.88561 0.5274 0.0
C354 C 0.85792 0.90386 0.54967 0.0
C355 C 0.86285 0.92906 0.51592 0.0
C356 C 0.81049 0.90073 0.52424 0.0
C357 C 0.84091 0.93964 0.48714 0.0
C358 C 0.76202 0.89342 0.49429 0.0
C359 C 0.75224 0.84796 0.56676 0.0
N360 N 0.81569 0.92531 0.4918 0.0
N361 N 0.77709 0.86322 0.56254 0.0
H362 H 0.75055 0.31837 0.95817 0.0
H363 H 0.65824 0.46686 0.05998 0.0
H364 H 0.77763 0.38543 0.06979 0.0
H365 H 0.62989 0.39436 0.95618 0.0
H366 H 0.70315 0.44002 0.06051 0.0
H367 H 0.70731 0.34854 0.95343 0.0
C368 C 0.74751 0.33966 0.98142 0.0
C369 C 0.76779 0.34938 0.01443 0.0
C370 C 0.68711 0.43004 0.03756 0.0
C371 C 0.71806 0.38386 0.00959 0.0
C372 C 0.66152 0.44548 0.03702 0.0
C373 C 0.64022 0.43274 0.00815 0.0
C374 C 0.69149 0.40174 0.00886 0.0
C375 C 0.64557 0.40471 0.97953 0.0
C376 C 0.72271 0.35675 0.97891 0.0
C377 C 0.76246 0.37682 0.04418 0.0
N378 N 0.67062 0.39016 0.98066 0.0
N379 N 0.73811 0.39309 0.04107 0.0
H380 H 0.02706 0.80542 0.22402 0.0
H381 H 0.07128 0.94207 0.41814 0.0
H382 H 0.11103 0.82641 0.26415 0.0
H383 H 0.98771 0.90861 0.39595 0.0
H384 H 0.08616 0.89956 0.36204 0.0
H385 H 0.01208 0.84233 0.28755 0.0
C386 C 0.04233 0.81759 0.24651 0.0
C387 C 0.07033 0.81296 0.23873 0.0
C388 C 0.06458 0.90139 0.36959 0.0
C389 C 0.05338 0.8554 0.31119 0.0
C390 C 0.05604 0.92578 0.40148 0.0
C391 C 0.02817 0.92905 0.41156 0.0
C392 C 0.04511 0.88026 0.34724 0.0
C393 C 0.00939 0.90706 0.38912 0.0
C394 C 0.03378 0.83859 0.2828 0.0
C395 C 0.08925 0.82905 0.26915 0.0
N396 N 0.01818 0.88373 0.3578 0.0
N397 N 0.08043 0.84983 0.30373 0.0
H398 H 0.50605 0.69743 0.71769 0.0
H399 H 0.56456 0.56602 0.90679 0.0
H400 H 0.59214 0.67855 0.73931 0.0
H401 H 0.48023 0.59757 0.90206 0.0
H402 H 0.57507 0.60767 0.84591 0.0
H403 H 0.49607 0.66187 0.78609 0.0
C404 C 0.52285 0.68604 0.73711 0.0
C405 C 0.54995 0.69087 0.72274 0.0
C406 C 0.55429 0.60561 0.85836 0.0
C407 C 0.53873 0.64999 0.80071 0.0
C408 C 0.54826 0.58174 0.89301 0.0
C409 C 0.52145 0.57816 0.90935 0.0
C410 C 0.53333 0.62589 0.8396 0.0
C411 C 0.50118 0.59938 0.8904 0.0
C412 C 0.51717 0.66582 0.77618 0.0
C413 C 0.57097 0.67578 0.74941 0.0
N414 N 0.50751 0.62218 0.85631 0.0
N415 N 0.5649 0.65576 0.7868 0.0
H416 H 0.90186 0.16274 0.22414 0.0
H417 H 0.02225 0.09023 0.38895 0.0
H418 H 0.98754 0.18192 0.19971 0.0
H419 H 0.93804 0.05682 0.39625 0.0
H420 H 0.00944 0.12901 0.32533 0.0
H421 H 0.91429 0.12966 0.29396 0.0
C422 C 0.92328 0.16041 0.23388 0.0
C423 C 0.94371 0.17497 0.20596 0.0
C424 C 0.99377 0.11322 0.34092 0.0
C425 C 0.9581 0.13676 0.28542 0.0
C426 C 0.00106 0.09106 0.37723 0.0
C427 C 0.98121 0.07007 0.39776 0.0
C428 C 0.96641 0.11457 0.32519 0.0
C429 C 0.95406 0.07235 0.38124 0.0
C430 C 0.93037 0.14127 0.27349 0.0
C431 C 0.97116 0.17075 0.21992 0.0
N432 N 0.94747 0.09418 0.34593 0.0
N433 N 0.97756 0.15194 0.25858 0.0
H434 H 0.45322 0.28294 0.76969 0.0
H435 H 0.44087 0.46625 0.88164 0.0
H436 H 0.42082 0.36778 0.69217 0.0
H437 H 0.50732 0.40016 0.92031 0.0
H438 H 0.42654 0.42606 0.82033 0.0
H439 H 0.4668 0.32162 0.83423 0.0
C440 C 0.44888 0.30966 0.76653 0.0
C441 C 0.43608 0.32243 0.72582 0.0
C442 C 0.44425 0.42041 0.8423 0.0
C443 C 0.451 0.36626 0.7989 0.0
C444 C 0.45238 0.44323 0.87731 0.0
C445 C 0.4754 0.43656 0.90582 0.0
C446 C 0.4589 0.39042 0.83642 0.0
C447 C 0.48959 0.40634 0.89873 0.0
C448 C 0.4567 0.33162 0.80303 0.0
C449 C 0.43086 0.35716 0.72302 0.0
N450 N 0.48101 0.38421 0.86483 0.0
N451 N 0.43819 0.37788 0.75922 0.0
H452 H 0.58272 0.71699 0.24622 0.0
H453 H 0.48693 0.56902 0.15759 0.0
H454 H 0.54833 0.64561 0.34534 0.0
H455 H 0.56499 0.58477 0.09174 0.0
H456 H 0.50098 0.60859 0.22028 0.0
H457 H 0.56859 0.67919 0.18189 0.0
C458 C 0.57229 0.69358 0.2548 0.0
C459 C 0.56681 0.6848 0.30186 0.0
C460 C 0.5149 0.60338 0.19192 0.0
C461 C 0.5497 0.64237 0.22795 0.0
C462 C 0.50694 0.58099 0.15625 0.0
C463 C 0.52496 0.57359 0.11983 0.0
C464 C 0.54066 0.61918 0.19019 0.0
C465 C 0.55068 0.58967 0.11959 0.0
C466 C 0.56412 0.6722 0.21791 0.0
C467 C 0.5525 0.65429 0.31001 0.0
N468 N 0.55773 0.61206 0.15415 0.0
N469 N 0.54427 0.63437 0.27345 0.0
H470 H 0.88925 0.17736 0.75266 0.0
H471 H 0.01745 0.09657 0.62319 0.0
H472 H 0.97304 0.19508 0.79698 0.0
H473 H 0.93372 0.06429 0.59922 0.0
H474 H 0.0016 0.13811 0.68022 0.0
H475 H 0.90535 0.14184 0.6886 0.0
C476 C 0.91106 0.1742 0.74846 0.0
C477 C 0.92984 0.1891 0.78029 0.0
C478 C 0.98672 0.12197 0.66238 0.0
C479 C 0.94839 0.14807 0.70747 0.0
C480 C 0.99574 0.09827 0.62981 0.0
C481 C 0.97689 0.07676 0.60663 0.0
C482 C 0.95865 0.12435 0.67157 0.0
C483 C 0.949 0.08017 0.6165 0.0
C484 C 0.92023 0.15367 0.71215 0.0
C485 C 0.95786 0.18373 0.77355 0.0
N486 N 0.94074 0.10348 0.64823 0.0
N487 N 0.96629 0.16356 0.73797 0.0
H488 H 0.40489 0.33183 0.28408 0.0
H489 H 0.5216 0.41405 0.12444 0.0
H490 H 0.4913 0.31669 0.30813 0.0
H491 H 0.43654 0.44228 0.11555 0.0
H492 H 0.51016 0.37246 0.18482 0.0
H493 H 0.41545 0.36576 0.21444 0.0
C494 C 0.42606 0.33516 0.27421 0.0
C495 C 0.44727 0.32165 0.30207 0.0
C496 C 0.49399 0.38767 0.16955 0.0
C497 C 0.45951 0.3608 0.22295 0.0
C498 C 0.50049 0.41146 0.13508 0.0
C499 C 0.48002 0.4319 0.11519 0.0
C500 C 0.46679 0.38417 0.18417 0.0
C501 C 0.45301 0.42725 0.13019 0.0
C502 C 0.43209 0.35477 0.23472 0.0
C503 C 0.47436 0.32707 0.28797 0.0
N504 N 0.44719 0.40394 0.16389 0.0
N505 N 0.47971 0.34639 0.24955 0.0
H506 H 0.01062 0.82341 0.81973 0.0
H507 H 0.06674 0.94918 0.62217 0.0
H508 H 0.09648 0.84257 0.7971 0.0
H509 H 0.9822 0.91707 0.6294 0.0
H510 H 0.07794 0.91054 0.68671 0.0
H511 H -0.00037 0.85762 0.75017 0.0
C512 C 0.02715 0.83468 0.79994 0.0
C513 C 0.05449 0.83023 0.81425 0.0
C514 C 0.05696 0.91185 0.67406 0.0
C515 C 0.0421 0.86949 0.73484 0.0
C516 C 0.05052 0.93401 0.63732 0.0
C517 C 0.02346 0.93648 0.62049 0.0
C518 C 0.03616 0.89219 0.69441 0.0
C519 C 0.00333 0.91605 0.64132 0.0
C520 C 0.02088 0.85411 0.76019 0.0
C521 C 0.07513 0.84509 0.78706 0.0
N522 N 0.01007 0.89489 0.67734 0.0
N523 N 0.0685 0.86428 0.74891 0.0
loop_
_geom_bond_atom_site_label_1
_geom_bond_atom_site_label_2
_geom_bond_distance
_geom_bond_site_symmetry_2
_ccdc_geom_bond_type
C0 C1 1.391 . S
C0 C4 1.391 . S
C0 H42 0.948 . S
C1 C0 1.391 . S
C1 C2 1.391 . S
C2 C1 1.391 . S
C2 H58 0.947 . S
C2 C59 1.392 . S
C3 C4 1.391 . S
C3 C7 1.397 . S
C3 C59 1.419 . S
C4 C0 1.391 . S
C4 C3 1.391 . S
C4 C5 1.399 . S
C5 C4 1.399 . S
C5 C8 1.396 . S
C5 C17 1.453 . S
C5 C18 1.684 . S
H6 C30 0.948 . S
C7 C3 1.397 . S
C7 C8 1.394 . S
C7 C26 1.723 1_556 S
C8 C5 1.396 . S
C8 C7 1.394 . S
C8 C38 1.723 1_556 S
H9 C32 0.947 . S
H10 C33 0.948 . S
H11 C39 0.982 . S
H12 C40 0.979 . S
H13 C40 0.980 . S
H14 C40 0.983 . S
H15 C39 0.979 . S
H16 C39 0.977 . S
C17 C5 1.453 . S
C17 H46 0.982 . S
C17 H47 0.979 . S
C17 H48 0.977 . S
C18 C5 1.684 . S
C18 H43 0.979 . S
C18 H44 0.980 . S
C18 H45 0.983 . S
C19 C20 1.391 . S
C19 C24 1.391 . S
C19 H49 0.948 . S
C20 C19 1.391 . S
C20 C21 1.391 . S
C21 C20 1.391 . S
C21 C22 1.392 . S
C21 H50 0.947 . S
C22 C21 1.392 . S
C22 C23 1.419 . S
C22 H51 0.948 . S
C23 C22 1.419 . S
C23 C24 1.391 . S
C23 C27 1.397 . S
C24 C19 1.391 . S
C24 C23 1.391 . S
C24 C25 1.399 . S
C25 C24 1.399 . S
C25 C26 1.396 . S
C25 C28 1.453 . S
C25 C29 1.684 . S
C26 C7 1.723 1_554 S
C26 C25 1.396 . S
C26 C27 1.394 . S
C27 C23 1.397 . S
C27 C26 1.394 . S
C27 C37 1.723 . S
C28 C25 1.453 . S
C28 H52 0.982 . S
C28 H53 0.979 . S
C28 H54 0.977 . S
C29 C25 1.684 . S
C29 H55 0.979 . S
C29 H56 0.980 . S
C29 H57 0.983 . S
C30 H6 0.948 . S
C30 C31 1.391 . S
C30 C35 1.391 . S
C31 C30 1.391 . S
C31 C32 1.391 1_554 S
C32 H9 0.947 . S
C32 C31 1.391 1_556 S
C32 C33 1.392 . S
C33 H10 0.948 . S
C33 C32 1.392 . S
C33 C34 1.419 1_556 S
C34 C33 1.419 1_554 S
C34 C35 1.391 . S
C34 C38 1.397 . S
C35 C30 1.391 . S
C35 C34 1.391 . S
C35 C36 1.399 . S
C36 C35 1.399 . S
C36 C37 1.396 . S
C36 C39 1.453 . S
C36 C40 1.684 . S
C37 C27 1.723 . S
C37 C36 1.396 . S
C37 C38 1.394 . S
C38 C8 1.723 1_554 S
C38 C34 1.397 . S
C38 C37 1.394 . S
C39 H11 0.982 . S
C39 H15 0.979 . S
C39 H16 0.977 . S
C39 C36 1.453 . S
C40 H12 0.979 . S
C40 H13 0.980 . S
C40 H14 0.983 . S
C40 C36 1.684 . S
H41 C59 0.948 . S
H42 C0 0.948 . S
H43 C18 0.979 . S
H44 C18 0.980 . S
H45 C18 0.983 . S
H46 C17 0.982 . S
H47 C17 0.979 . S
H48 C17 0.977 . S
H49 C19 0.948 . S
H50 C21 0.947 . S
H51 C22 0.948 . S
H52 C28 0.982 . S
H53 C28 0.979 . S
H54 C28 0.977 . S
H55 C29 0.979 . S
H56 C29 0.980 . S
H57 C29 0.983 . S
H58 C2 0.947 . S
C59 C2 1.392 . S
C59 C3 1.419 . S
C59 H41 0.948 . S
C60 C61 1.391 . S
C60 C64 1.391 . S
C60 H102 0.948 . S
C61 C60 1.391 . S
C61 C62 1.391 . S
C62 C61 1.391 . S
C62 H118 0.947 . S
C62 C119 1.392 . S
C63 C64 1.391 . S
C63 C67 1.397 . S
C63 C119 1.419 . S
C64 C60 1.391 . S
C64 C63 1.391 . S
C64 C65 1.399 . S
C65 C64 1.399 . S
C65 C68 1.396 . S
C65 C77 1.453 . S
C65 C78 1.684 . S
H66 C90 0.948 . S
C67 C63 1.397 . S
C67 C68 1.394 . S
C67 C86 1.723 . S
C68 C65 1.396 . S
C68 C67 1.394 . S
C68 C98 1.723 . S
H69 C92 0.947 . S
H70 C93 0.948 . S
H71 C99 0.982 . S
H72 C100 0.979 . S
H73 C100 0.980 . S
H74 C100 0.983 . S
H75 C99 0.979 . S
H76 C99 0.977 . S
C77 C65 1.453 . S
C77 H106 0.982 . S
C77 H107 0.979 . S
C77 H108 0.977 . S
C78 C65 1.684 . S
C78 H103 0.979 . S
C78 H104 0.980 . S
C78 H105 0.983 . S
C79 C80 1.391 . S
C79 C84 1.391 . S
C79 H109 0.948 . S
C80 C79 1.391 . S
C80 C81 1.391 . S
C81 C80 1.391 . S
C81 C82 1.392 . S
C81 H110 0.947 . S
C82 C81 1.392 . S
C82 C83 1.419 . S
C82 H111 0.948 . S
C83 C82 1.419 . S
C83 C84 1.391 . S
C83 C87 1.397 . S
C84 C79 1.391 . S
C84 C83 1.391 . S
C84 C85 1.399 . S
C85 C84 1.399 . S
C85 C86 1.396 . S
C85 C88 1.453 . S
C85 C89 1.684 . S
C86 C67 1.723 . S
C86 C85 1.396 . S
C86 C87 1.394 . S
C87 C83 1.397 . S
C87 C86 1.394 . S
C87 C97 1.723 . S
C88 C85 1.453 . S
C88 H112 0.982 . S
C88 H113 0.979 . S
C88 H114 0.977 . S
C89 C85 1.684 . S
C89 H115 0.979 . S
C89 H116 0.980 . S
C89 H117 0.983 . S
C90 H66 0.948 . S
C90 C91 1.391 . S
C90 C95 1.391 . S
C91 C90 1.391 . S
C91 C92 1.391 . S
C92 H69 0.947 . S
C92 C91 1.391 . S
C92 C93 1.392 . S
C93 H70 0.948 . S
C93 C92 1.392 . S
C93 C94 1.419 . S
C94 C93 1.419 . S
C94 C95 1.391 . S
C94 C98 1.397 . S
C95 C90 1.391 . S
C95 C94 1.391 . S
C95 C96 1.399 . S
C96 C95 1.399 . S
C96 C97 1.396 . S
C96 C99 1.453 . S
C96 C100 1.684 . S
C97 C87 1.723 . S
C97 C96 1.396 . S
C97 C98 1.394 . S
C98 C68 1.723 . S
C98 C94 1.397 . S
C98 C97 1.394 . S
C99 H71 0.982 . S
C99 H75 0.979 . S
C99 H76 0.977 . S
C99 C96 1.453 . S
C100 H72 0.979 . S
C100 H73 0.980 . S
C100 H74 0.983 . S
C100 C96 1.684 . S
H101 C119 0.948 . S
H102 C60 0.948 . S
H103 C78 0.979 . S
H104 C78 0.980 . S
H105 C78 0.983 . S
H106 C77 0.982 . S
H107 C77 0.979 . S
H108 C77 0.977 . S
H109 C79 0.948 . S
H110 C81 0.947 . S
H111 C82 0.948 . S
H112 C88 0.982 . S
H113 C88 0.979 . S
H114 C88 0.977 . S
H115 C89 0.979 . S
H116 C89 0.980 . S
H117 C89 0.983 . S
H118 C62 0.947 . S
C119 C62 1.392 . S
C119 C63 1.419 . S
C119 H101 0.948 . S
C120 C121 1.391 . S
C120 C124 1.391 . S
C120 H162 0.948 . S
C121 C120 1.391 . S
C121 C122 1.391 . S
C122 C121 1.391 . S
C122 H178 0.947 . S
C122 C179 1.392 . S
C123 C124 1.391 . S
C123 C127 1.397 . S
C123 C179 1.419 . S
C124 C120 1.391 . S
C124 C123 1.391 . S
C124 C125 1.399 . S
C125 C124 1.399 . S
C125 C128 1.396 . S
C125 C137 1.453 . S
C125 C138 1.684 . S
H126 C150 0.948 . S
C127 C123 1.397 . S
C127 C128 1.394 . S
C127 C146 1.723 1_554 S
C128 C125 1.396 . S
C128 C127 1.394 . S
C128 C158 1.723 . S
H129 C152 0.947 . S
H130 C153 0.948 . S
H131 C159 0.982 . S
H132 C160 0.979 . S
H133 C160 0.980 . S
H134 C160 0.983 . S
H135 C159 0.979 . S
H136 C159 0.977 . S
C137 C125 1.453 . S
C137 H166 0.982 . S
C137 H167 0.979 . S
C137 H168 0.977 . S
C138 C125 1.684 . S
C138 H163 0.979 . S
C138 H164 0.980 . S
C138 H165 0.983 . S
C139 C140 1.391 . S
C139 C144 1.391 . S
C139 H169 0.948 . S
C140 C139 1.391 . S
C140 C141 1.391 . S
C141 C140 1.391 . S
C141 C142 1.392 . S
C141 H170 0.947 . S
C142 C141 1.392 . S
C142 C143 1.419 . S
C142 H171 0.948 . S
C143 C142 1.419 . S
C143 C144 1.391 . S
C143 C147 1.397 . S
C144 C139 1.391 . S
C144 C143 1.391 . S
C144 C145 1.399 . S
C145 C144 1.399 . S
C145 C146 1.396 . S
C145 C148 1.453 . S
C145 C149 1.684 . S
C146 C127 1.723 1_556 S
C146 C145 1.396 . S
C146 C147 1.394 . S
C147 C143 1.397 . S
C147 C146 1.394 . S
C147 C157 1.723 . S
C148 C145 1.453 . S
C148 H172 0.982 . S
C148 H173 0.979 . S
C148 H174 0.977 1_556 S
C149 C145 1.684 . S
C149 H175 0.979 . S
C149 H176 0.980 1_556 S
C149 H177 0.983 . S
C150 H126 0.948 . S
C150 C151 1.391 1_556 S
C150 C155 1.391 . S
C151 C150 1.391 1_554 S
C151 C152 1.391 . S
C152 H129 0.947 . S
C152 C151 1.391 . S
C152 C153 1.392 . S
C153 H130 0.948 . S
C153 C152 1.392 . S
C153 C154 1.419 . S
C154 C153 1.419 . S
C154 C155 1.391 1_554 S
C154 C158 1.397 . S
C155 C150 1.391 . S
C155 C154 1.391 1_556 S
C155 C156 1.399 . S
C156 C155 1.399 . S
C156 C157 1.396 . S
C156 C159 1.453 . S
C156 C160 1.684 . S
C157 C147 1.723 . S
C157 C156 1.396 . S
C157 C158 1.394 1_556 S
C158 C128 1.723 . S
C158 C154 1.397 . S
C158 C157 1.394 1_554 S
C159 H131 0.982 . S
C159 H135 0.979 . S
C159 H136 0.977 . S
C159 C156 1.453 . S
C160 H132 0.979 . S
C160 H133 0.980 . S
C160 H134 0.983 . S
C160 C156 1.684 . S
H161 C179 0.948 . S
H162 C120 0.948 . S
H163 C138 0.979 . S
H164 C138 0.980 . S
H165 C138 0.983 . S
H166 C137 0.982 . S
H167 C137 0.979 . S
H168 C137 0.977 . S
H169 C139 0.948 . S
H170 C141 0.947 . S
H171 C142 0.948 . S
H172 C148 0.982 . S
H173 C148 0.979 . S
H174 C148 0.977 1_554 S
H175 C149 0.979 . S
H176 C149 0.980 1_554 S
H177 C149 0.983 . S
H178 C122 0.947 . S
C179 C122 1.392 . S
C179 C123 1.419 . S
C179 H161 0.948 . S
C180 C181 1.391 . S
C180 C184 1.391 . S
C180 H222 0.948 . S
C181 C180 1.391 . S
C181 C182 1.391 . S
C182 C181 1.391 . S
C182 H238 0.947 . S
C182 C239 1.392 . S
C183 C184 1.391 . S
C183 C187 1.397 . S
C183 C239 1.419 . S
C184 C180 1.391 . S
C184 C183 1.391 . S
C184 C185 1.399 . S
C185 C184 1.399 . S
C185 C188 1.396 . S
C185 C197 1.453 . S
C185 C198 1.684 . S
H186 C210 0.948 . S
C187 C183 1.397 . S
C187 C188 1.394 . S
C187 C206 1.723 . S
C188 C185 1.396 . S
C188 C187 1.394 . S
C188 C218 1.723 . S
H189 C212 0.947 . S
H190 C213 0.948 . S
H191 C219 0.982 . S
H192 C220 0.979 . S
H193 C220 0.980 . S
H194 C220 0.983 . S
H195 C219 0.979 . S
H196 C219 0.977 . S
C197 C185 1.453 . S
C197 H226 0.982 . S
C197 H227 0.979 . S
C197 H228 0.977 . S
C198 C185 1.684 . S
C198 H223 0.979 . S
C198 H224 0.980 . S
C198 H225 0.983 . S
C199 C200 1.391 . S
C199 C204 1.391 . S
C199 H229 0.948 . S
C200 C199 1.391 . S
C200 C201 1.391 . S
C201 C200 1.391 . S
C201 C202 1.392 . S
C201 H230 0.947 . S
C202 C201 1.392 . S
C202 C203 1.419 . S
C202 H231 0.948 . S
C203 C202 1.419 . S
C203 C204 1.391 . S
C203 C207 1.397 . S
C204 C199 1.391 . S
C204 C203 1.391 . S
C204 C205 1.399 . S
C205 C204 1.399 . S
C205 C206 1.396 . S
C205 C208 1.453 . S
C205 C209 1.684 . S
C206 C187 1.723 . S
C206 C205 1.396 . S
C206 C207 1.394 . S
C207 C203 1.397 . S
C207 C206 1.394 . S
C207 C217 1.723 . S
C208 C205 1.453 . S
C208 H232 0.982 . S
C208 H233 0.979 . S
C208 H234 0.977 . S
C209 C205 1.684 . S
C209 H235 0.979 . S
C209 H236 0.980 . S
C209 H237 0.983 . S
C210 H186 0.948 . S
C210 C211 1.391 . S
C210 C215 1.391 . S
C211 C210 1.391 . S
C211 C212 1.391 . S
C212 H189 0.947 . S
C212 C211 1.391 . S
C212 C213 1.392 . S
C213 H190 0.948 . S
C213 C212 1.392 . S
C213 C214 1.419 . S
C214 C213 1.419 . S
C214 C215 1.391 . S
C214 C218 1.397 . S
C215 C210 1.391 . S
C215 C214 1.391 . S
C215 C216 1.399 . S
C216 C215 1.399 . S
C216 C217 1.396 . S
C216 C219 1.453 . S
C216 C220 1.684 . S
C217 C207 1.723 . S
C217 C216 1.396 . S
C217 C218 1.394 . S
C218 C188 1.723 . S
C218 C214 1.397 . S
C218 C217 1.394 . S
C219 H191 0.982 . S
C219 H195 0.979 . S
C219 H196 0.977 . S
C219 C216 1.453 . S
C220 H192 0.979 . S
C220 H193 0.980 . S
C220 H194 0.983 . S
C220 C216 1.684 . S
H221 C239 0.948 . S
H222 C180 0.948 . S
H223 C198 0.979 . S
H224 C198 0.980 . S
H225 C198 0.983 . S
H226 C197 0.982 . S
H227 C197 0.979 . S
H228 C197 0.977 . S
H229 C199 0.948 . S
H230 C201 0.947 . S
H231 C202 0.948 . S
H232 C208 0.982 . S
H233 C208 0.979 . S
H234 C208 0.977 . S
H235 C209 0.979 . S
H236 C209 0.980 . S
H237 C209 0.983 . S
H238 C182 0.947 . S
C239 C182 1.392 . S
C239 C183 1.419 . S
C239 H221 0.948 . S
C240 O256 1.251 . S
C240 O258 1.254 1_455 S
N241 C242 1.333 . S
N241 C246 1.307 . S
N241 Zn247 2.020 . S
C242 N241 1.333 . S
C242 C243 1.379 . S
C242 H260 0.952 . S
C243 C242 1.379 . S
C243 C244 1.390 . S
C243 H270 0.949 . S
C244 C243 1.390 . S
C244 C245 1.357 . S
C245 C244 1.357 . S
C245 C246 1.370 . S
C245 H271 0.950 . S
C246 N241 1.307 . S
C246 C245 1.370 . S
C246 H264 0.948 . S
Zn247 N241 2.020 . S
Zn247 O256 2.039 1_545 S
Zn247 O262 2.034 1_545 S
Zn247 O266 2.025 . S
Zn247 O268 2.024 . S
C248 O267 1.246 . S
C248 O268 1.249 1_655 S
N249 C250 1.307 . S
N249 C251 1.333 . S
N249 Zn255 2.020 . S
C250 N249 1.307 . S
C250 C254 1.370 . S
C250 H261 0.948 . S
C251 N249 1.333 . S
C251 C252 1.379 . S
C251 H259 0.935 1_565 S
C252 C251 1.379 . S
C252 C253 1.390 . S
C252 H272 0.949 . S
C253 C252 1.390 . S
C253 C254 1.357 . S
C254 C250 1.370 . S
C254 C253 1.357 . S
C254 H273 0.950 . S
Zn255 N249 2.020 . S
Zn255 O258 2.025 . S
Zn255 O263 2.024 . S
Zn255 O265 2.039 1_565 S
Zn255 O267 2.034 1_565 S
O256 C240 1.251 . S
O256 Zn247 2.039 1_565 S
C257 O262 1.246 . S
C257 O263 1.249 1_455 S
O258 C240 1.254 1_655 S
O258 Zn255 2.025 . S
H259 C251 0.935 1_545 S
H260 C242 0.952 . S
H261 C250 0.948 . S
O262 Zn247 2.034 1_565 S
O262 C257 1.246 . S
O263 Zn255 2.024 . S
O263 C257 1.249 1_655 S
H264 C246 0.948 . S
O265 Zn255 2.039 1_545 S
O265 C269 1.251 . S
O266 Zn247 2.025 . S
O266 C269 1.254 1_455 S
O267 C248 1.246 . S
O267 Zn255 2.034 1_545 S
O268 Zn247 2.024 . S
O268 C248 1.249 1_455 S
C269 O265 1.251 . S
C269 O266 1.254 1_655 S
H270 C243 0.949 . S
H271 C245 0.950 . S
H272 C252 0.949 . S
H273 C254 0.950 . S
C274 O290 1.251 . S
C274 O292 1.254 . S
N275 C276 1.333 . S
N275 C280 1.307 . S
N275 Zn281 2.020 . S
C276 N275 1.333 . S
C276 C277 1.379 1_554 S
C276 H294 0.951 1_554 S
C277 C276 1.379 1_556 S
C277 C278 1.390 1_556 S
C277 H304 0.949 . S
C278 C277 1.390 1_554 S
C278 C279 1.357 . S
C279 C278 1.357 . S
C279 C280 1.370 . S
C279 H305 0.950 . S
C280 N275 1.307 . S
C280 C279 1.370 . S
C280 H298 0.948 . S
Zn281 N275 2.020 . S
Zn281 O290 2.039 1_554 S
Zn281 O296 2.034 . S
Zn281 O300 2.025 . S
Zn281 O302 2.024 1_554 S
C282 O301 1.246 . S
C282 O302 1.249 . S
N283 C284 1.307 . S
N283 C285 1.333 . S
N283 Zn289 2.020 . S
C284 N283 1.307 . S
C284 C288 1.370 . S
C284 H295 0.948 1_554 S
C285 N283 1.333 . S
C285 C286 1.379 . S
C285 H293 0.952 . S
C286 C285 1.379 . S
C286 C287 1.390 . S
C286 H306 0.949 . S
C287 C286 1.390 . S
C287 C288 1.357 . S
C288 C284 1.370 . S
C288 C287 1.357 . S
C288 H307 0.950 1_554 S
Zn289 N283 2.020 . S
Zn289 O292 2.025 1_554 S
Zn289 O297 2.024 . S
Zn289 O299 2.039 . S
Zn289 O301 2.034 1_554 S
O290 C274 1.251 . S
O290 Zn281 2.039 1_556 S
C291 O296 1.246 . S
C291 O297 1.249 . S
O292 C274 1.254 . S
O292 Zn289 2.025 1_556 S
H293 C285 0.952 . S
H294 C276 0.951 1_556 S
H295 C284 0.948 1_556 S
O296 Zn281 2.034 . S
O296 C291 1.246 . S
O297 Zn289 2.024 . S
O297 C291 1.249 . S
H298 C280 0.948 . S
O299 Zn289 2.039 . S
O299 C303 1.251 . S
O300 Zn281 2.025 . S
O300 C303 1.254 . S
O301 C282 1.246 . S
O301 Zn289 2.034 1_556 S
O302 Zn281 2.024 1_556 S
O302 C282 1.249 . S
C303 O299 1.251 . S
C303 O300 1.254 . S
H304 C277 0.949 . S
H305 C279 0.950 . S
H306 C286 0.949 . S
H307 C288 0.950 1_556 S
H308 C314 0.930 . S
H309 C318 0.930 . S
H310 C323 0.929 . S
H311 C321 0.929 . S
H312 C316 0.929 . S
H313 C322 0.929 . S
C314 H308 0.930 . S
C314 C315 1.367 . S
C314 C322 1.378 . S
C315 C314 1.367 . S
C315 C323 1.433 . S
C316 H312 0.929 . S
C316 C318 1.378 . S
C316 C320 1.350 . S
C317 C320 1.463 . S
C317 C322 1.350 . S
C317 N325 1.427 . S
C318 H309 0.930 . S
C318 C316 1.378 . S
C318 C319 1.367 . S
C319 C318 1.367 . S
C319 C321 1.433 . S
C320 C316 1.350 . S
C320 C317 1.463 . S
C320 N324 1.427 . S
C321 H311 0.929 . S
C321 C319 1.433 . S
C321 N324 1.384 . S
C322 H313 0.929 . S
C322 C314 1.378 . S
C322 C317 1.350 . S
C323 H310 0.929 . S
C323 C315 1.433 . S
C323 N325 1.384 . S
N324 C320 1.427 . S
N324 C321 1.384 . S
N325 C317 1.427 . S
N325 C323 1.384 . S
H326 C332 0.930 . S
H327 C336 0.930 . S
H328 C341 0.929 . S
H329 C339 0.929 . S
H330 C334 0.929 . S
H331 C340 0.929 . S
C332 H326 0.930 . S
C332 C333 1.367 . S
C332 C340 1.378 . S
C333 C332 1.367 . S
C333 C341 1.433 1_554 S
C334 H330 0.929 . S
C334 C336 1.378 . S
C334 C338 1.350 1_556 S
C335 C338 1.463 . S
C335 C340 1.350 . S
C335 N343 1.427 1_554 S
C336 H327 0.930 . S
C336 C334 1.378 . S
C336 C337 1.367 1_556 S
C337 C336 1.367 1_554 S
C337 C339 1.433 . S
C338 C334 1.350 1_554 S
C338 C335 1.463 . S
C338 N342 1.427 . S
C339 H329 0.929 . S
C339 C337 1.433 . S
C339 N342 1.384 . S
C340 H331 0.929 . S
C340 C332 1.378 . S
C340 C335 1.350 . S
C341 H328 0.929 . S
C341 C333 1.433 1_556 S
C341 N343 1.384 . S
N342 C338 1.427 . S
N342 C339 1.384 . S
N343 C335 1.427 1_556 S
N343 C341 1.384 . S
H344 C350 0.930 . S
H345 C354 0.930 . S
H346 C359 0.929 . S
H347 C357 0.929 . S
H348 C352 0.929 . S
H349 C358 0.929 . S
C350 H344 0.930 . S
C350 C351 1.367 . S
C350 C358 1.378 . S
C351 C350 1.367 . S
C351 C359 1.433 . S
C352 H348 0.929 . S
C352 C354 1.378 . S
C352 C356 1.350 . S
C353 C356 1.463 . S
C353 C358 1.350 . S
C353 N361 1.427 . S
C354 H345 0.930 . S
C354 C352 1.378 . S
C354 C355 1.367 . S
C355 C354 1.367 . S
C355 C357 1.433 . S
C356 C352 1.350 . S
C356 C353 1.463 . S
C356 N360 1.427 . S
C357 H347 0.929 . S
C357 C355 1.433 . S
C357 N360 1.384 . S
C358 H349 0.929 . S
C358 C350 1.378 . S
C358 C353 1.350 . S
C359 H346 0.929 . S
C359 C351 1.433 . S
C359 N361 1.384 . S
N360 C356 1.427 . S
N360 C357 1.384 . S
N361 C353 1.427 . S
N361 C359 1.384 . S
H362 C368 0.930 . S
H363 C372 0.930 . S
H364 C377 0.929 . S
H365 C375 0.929 . S
H366 C370 0.929 . S
H367 C376 0.929 . S
C368 H362 0.930 . S
C368 C369 1.367 1_556 S
C368 C376 1.378 . S
C369 C368 1.367 1_554 S
C369 C377 1.433 . S
C370 H366 0.929 . S
C370 C372 1.378 . S
C370 C374 1.350 . S
C371 C374 1.463 . S
C371 C376 1.350 1_554 S
C371 N379 1.427 . S
C372 H363 0.930 . S
C372 C370 1.378 . S
C372 C373 1.367 . S
C373 C372 1.367 . S
C373 C375 1.433 1_554 S
C374 C370 1.350 . S
C374 C371 1.463 . S
C374 N378 1.427 1_554 S
C375 H365 0.929 . S
C375 C373 1.433 1_556 S
C375 N378 1.384 . S
C376 H367 0.929 . S
C376 C368 1.378 . S
C376 C371 1.350 1_556 S
C377 H364 0.929 . S
C377 C369 1.433 . S
C377 N379 1.384 . S
N378 C374 1.427 1_556 S
N378 C375 1.384 . S
N379 C371 1.427 . S
N379 C377 1.384 . S
H380 C386 0.930 . S
H381 C390 0.930 . S
H382 C395 0.929 . S
H383 C393 0.929 1_655 S
H384 C388 0.929 . S
H385 C394 0.929 . S
C386 H380 0.930 . S
C386 C387 1.367 . S
C386 C394 1.378 . S
C387 C386 1.367 . S
C387 C395 1.433 . S
C388 H384 0.929 . S
C388 C390 1.378 . S
C388 C392 1.350 . S
C389 C392 1.463 . S
C389 C394 1.350 . S
C389 N397 1.427 . S
C390 H381 0.930 . S
C390 C388 1.378 . S
C390 C391 1.367 . S
C391 C390 1.367 . S
C391 C393 1.433 . S
C392 C388 1.350 . S
C392 C389 1.463 . S
C392 N396 1.427 . S
C393 H383 0.929 1_455 S
C393 C391 1.433 . S
C393 N396 1.384 . S
C394 H385 0.929 . S
C394 C386 1.378 . S
C394 C389 1.350 . S
C395 H382 0.929 . S
C395 C387 1.433 . S
C395 N397 1.384 . S
N396 C392 1.427 . S
N396 C393 1.384 . S
N397 C389 1.427 . S
N397 C395 1.384 . S
H398 C404 0.930 . S
H399 C408 0.930 . S
H400 C413 0.929 . S
H401 C411 0.929 . S
H402 C406 0.929 . S
H403 C412 0.929 . S
C404 H398 0.930 . S
C404 C405 1.367 . S
C404 C412 1.378 . S
C405 C404 1.367 . S
C405 C413 1.433 . S
C406 H402 0.929 . S
C406 C408 1.378 . S
C406 C410 1.350 . S
C407 C410 1.463 . S
C407 C412 1.350 . S
C407 N415 1.427 . S
C408 H399 0.930 . S
C408 C406 1.378 . S
C408 C409 1.367 . S
C409 C408 1.367 . S
C409 C411 1.433 . S
C410 C406 1.350 . S
C410 C407 1.463 . S
C410 N414 1.427 . S
C411 H401 0.929 . S
C411 C409 1.433 . S
C411 N414 1.384 . S
C412 H403 0.929 . S
C412 C404 1.378 . S
C412 C407 1.350 . S
C413 H400 0.929 . S
C413 C405 1.433 . S
C413 N415 1.384 . S
N414 C410 1.427 . S
N414 C411 1.384 . S
N415 C407 1.427 . S
N415 C413 1.384 . S
H416 C422 0.930 . S
H417 C426 0.930 . S
H418 C431 0.929 . S
H419 C429 0.929 . S
H420 C424 0.929 . S
H421 C430 0.929 . S
C422 H416 0.930 . S
C422 C423 1.367 . S
C422 C430 1.378 . S
C423 C422 1.367 . S
C423 C431 1.433 . S
C424 H420 0.929 . S
C424 C426 1.378 . S
C424 C428 1.350 . S
C425 C428 1.463 . S
C425 C430 1.350 . S
C425 N433 1.427 . S
C426 H417 0.930 . S
C426 C424 1.378 . S
C426 C427 1.367 . S
C427 C426 1.367 . S
C427 C429 1.433 . S
C428 C424 1.350 . S
C428 C425 1.463 . S
C428 N432 1.427 . S
C429 H419 0.929 . S
C429 C427 1.433 . S
C429 N432 1.384 . S
C430 H421 0.929 . S
C430 C422 1.378 . S
C430 C425 1.350 . S
C431 H418 0.929 . S
C431 C423 1.433 . S
C431 N433 1.384 . S
N432 C428 1.427 . S
N432 C429 1.384 . S
N433 C425 1.427 . S
N433 C431 1.384 . S
H434 C440 0.930 . S
H435 C444 0.930 . S
H436 C449 0.929 . S
H437 C447 0.929 . S
H438 C442 0.929 . S
H439 C448 0.929 . S
C440 H434 0.930 . S
C440 C441 1.367 . S
C440 C448 1.378 . S
C441 C440 1.367 . S
C441 C449 1.433 . S
C442 H438 0.929 . S
C442 C444 1.378 . S
C442 C446 1.350 . S
C443 C446 1.463 . S
C443 C448 1.350 . S
C443 N451 1.427 . S
C444 H435 0.930 . S
C444 C442 1.378 . S
C444 C445 1.367 . S
C445 C444 1.367 . S
C445 C447 1.433 . S
C446 C442 1.350 . S
C446 C443 1.463 . S
C446 N450 1.427 . S
C447 H437 0.929 . S
C447 C445 1.433 . S
C447 N450 1.384 . S
C448 H439 0.929 . S
C448 C440 1.378 . S
C448 C443 1.350 . S
C449 H436 0.929 . S
C449 C441 1.433 . S
C449 N451 1.384 . S
N450 C446 1.427 . S
N450 C447 1.384 . S
N451 C443 1.427 . S
N451 C449 1.384 . S
H452 C458 0.930 . S
H453 C462 0.930 . S
H454 C467 0.929 . S
H455 C465 0.929 . S
H456 C460 0.929 . S
H457 C466 0.929 . S
C458 H452 0.930 . S
C458 C459 1.367 . S
C458 C466 1.378 . S
C459 C458 1.367 . S
C459 C467 1.433 . S
C460 H456 0.929 . S
C460 C462 1.378 . S
C460 C464 1.350 . S
C461 C464 1.463 . S
C461 C466 1.350 . S
C461 N469 1.427 . S
C462 H453 0.930 . S
C462 C460 1.378 . S
C462 C463 1.367 . S
C463 C462 1.367 . S
C463 C465 1.433 . S
C464 C460 1.350 . S
C464 C461 1.463 . S
C464 N468 1.427 . S
C465 H455 0.929 . S
C465 C463 1.433 . S
C465 N468 1.384 . S
C466 H457 0.929 . S
C466 C458 1.378 . S
C466 C461 1.350 . S
C467 H454 0.929 . S
C467 C459 1.433 . S
C467 N469 1.384 . S
N468 C464 1.427 . S
N468 C465 1.384 . S
N469 C461 1.427 . S
N469 C467 1.384 . S
H470 C476 0.930 . S
H471 C480 0.934 . S
H472 C485 0.929 . S
H473 C483 0.929 . S
H474 C478 0.929 . S
H475 C484 0.929 . S
C476 H470 0.930 . S
C476 C477 1.367 . S
C476 C484 1.378 . S
C477 C476 1.367 . S
C477 C485 1.433 . S
C478 H474 0.929 . S
C478 C480 1.378 . S
C478 C482 1.350 . S
C479 C482 1.463 . S
C479 C484 1.350 . S
C479 N487 1.427 . S
C480 H471 0.934 . S
C480 C478 1.378 . S
C480 C481 1.367 . S
C481 C480 1.367 . S
C481 C483 1.433 . S
C482 C478 1.350 . S
C482 C479 1.463 . S
C482 N486 1.427 . S
C483 H473 0.929 . S
C483 C481 1.433 . S
C483 N486 1.384 . S
C484 H475 0.929 . S
C484 C476 1.378 . S
C484 C479 1.350 . S
C485 H472 0.929 . S
C485 C477 1.433 . S
C485 N487 1.384 . S
N486 C482 1.427 . S
N486 C483 1.384 . S
N487 C479 1.427 . S
N487 C485 1.384 . S
H488 C494 0.930 . S
H489 C498 0.930 . S
H490 C503 0.929 . S
H491 C501 0.929 . S
H492 C496 0.929 . S
H493 C502 0.929 . S
C494 H488 0.930 . S
C494 C495 1.367 . S
C494 C502 1.378 . S
C495 C494 1.367 . S
C495 C503 1.433 . S
C496 H492 0.929 . S
C496 C498 1.378 . S
C496 C500 1.350 . S
C497 C500 1.463 . S
C497 C502 1.350 . S
C497 N505 1.427 . S
C498 H489 0.930 . S
C498 C496 1.378 . S
C498 C499 1.367 . S
C499 C498 1.367 . S
C499 C501 1.433 . S
C500 C496 1.350 . S
C500 C497 1.463 . S
C500 N504 1.427 . S
C501 H491 0.929 . S
C501 C499 1.433 . S
C501 N504 1.384 . S
C502 H493 0.929 . S
C502 C494 1.378 . S
C502 C497 1.350 . S
C503 H490 0.929 . S
C503 C495 1.433 . S
C503 N505 1.384 . S
N504 C500 1.427 . S
N504 C501 1.384 . S
N505 C497 1.427 . S
N505 C503 1.384 . S
H506 C512 0.930 . S
H507 C516 0.930 . S
H508 C521 0.929 . S
H509 C519 0.929 . S
H510 C514 0.929 . S
H511 C520 0.929 . S
C512 H506 0.930 . S
C512 C513 1.367 . S
C512 C520 1.378 . S
C513 C512 1.367 . S
C513 C521 1.433 . S
C514 H510 0.929 . S
C514 C516 1.378 . S
C514 C518 1.350 . S
C515 C518 1.463 . S
C515 C520 1.350 . S
C515 N523 1.427 . S
C516 H507 0.930 . S
C516 C514 1.378 . S
C516 C517 1.367 . S
C517 C516 1.367 . S
C517 C519 1.433 . S
C518 C514 1.350 . S
C518 C515 1.463 . S
C518 N522 1.427 . S
C519 H509 0.929 . S
C519 C517 1.433 . S
C519 N522 1.384 . S
C520 H511 0.929 . S
C520 C512 1.378 . S
C520 C515 1.350 . S
C521 H508 0.929 . S
C521 C513 1.433 . S
C521 N523 1.384 . S
N522 C518 1.427 . S
N522 C519 1.384 . S
N523 C515 1.427 . S
N523 C521 1.384 . S
C319 C244 1.651 . S
C315 C211 1.570 . S
C333 C31 1.564 . S
C337 C287 1.576 . S
C351 C91 1.634 . S
C355 C253 1.654 . S
C369 C151 1.509 . S
C373 C278 1.571 . S
C391 C240 1.643 . S
C387 C20 1.638 . S
C409 C282 1.738 . S
C405 C61 1.690 . S
C423 C121 1.524 . S
C427 C248 1.627 . S
C441 C200 1.645 . S
C445 C274 1.731 . S
C463 C303 1.730 . S
C459 C80 1.711 . S
C481 C269 1.639 . S
C477 C140 1.571 . S
C499 C291 1.733 . S
C495 C181 1.602 . S
C513 C1 1.594 . S
C517 C257 1.632 . S
