# Generated by pormake.
# Topology eea, (3,6)-cn, num edge types: 1
# Building blocks:
#     Node 0, Type 0, BuildingBlock: QEWDON_clean_linker_0, # of connection points: 3
#     Node 1, Type 0, BuildingBlock: QEWDON_clean_linker_0, # of connection points: 3
#     Node 2, Type 0, BuildingBlock: QEWDON_clean_linker_0, # of connection points: 3
#     Node 3, Type 0, BuildingBlock: QEWDON_clean_linker_0, # of connection points: 3
#     Node 4, Type 0, BuildingBlock: QEWDON_clean_linker_0, # of connection points: 3
#     Node 5, Type 0, BuildingBlock: QEWDON_clean_linker_0, # of connection points: 3
#     Node 6, Type 0, BuildingBlock: QEWDON_clean_linker_0, # of connection points: 3
#     Node 7, Type 0, BuildingBlock: QEWDON_clean_linker_0, # of connection points: 3
#     Node 8, Type 0, BuildingBlock: QEWDON_clean_linker_0, # of connection points: 3
#     Node 9, Type 0, BuildingBlock: QEWDON_clean_linker_0, # of connection points: 3
#     Node 10, Type 0, BuildingBlock: QEWDON_clean_linker_0, # of connection points: 3
#     Node 11, Type 0, BuildingBlock: QEWDON_clean_linker_0, # of connection points: 3
#     Node 12, Type 0, BuildingBlock: QEWDON_clean_linker_0, # of connection points: 3
#     Node 13, Type 0, BuildingBlock: QEWDON_clean_linker_0, # of connection points: 3
#     Node 14, Type 0, BuildingBlock: QEWDON_clean_linker_0, # of connection points: 3
#     Node 15, Type 0, BuildingBlock: QEWDON_clean_linker_0, # of connection points: 3
#     Node 16, Type 0, BuildingBlock: QEWDON_clean_linker_0, # of connection points: 3
#     Node 17, Type 0, BuildingBlock: QEWDON_clean_linker_0, # of connection points: 3
#     Node 18, Type 1, BuildingBlock: KUMBOL_clean_sbu_0, # of connection points: 6
#     Node 19, Type 1, BuildingBlock: KUMBOL_clean_sbu_0, # of connection points: 6
#     Node 20, Type 1, BuildingBlock: KUMBOL_clean_sbu_0, # of connection points: 6
#     Node 21, Type 1, BuildingBlock: KUMBOL_clean_sbu_0, # of connection points: 6
#     Node 22, Type 1, BuildingBlock: KUMBOL_clean_sbu_0, # of connection points: 6
#     Node 23, Type 1, BuildingBlock: KUMBOL_clean_sbu_0, # of connection points: 6
#     Node 24, Type 1, BuildingBlock: KUMBOL_clean_sbu_0, # of connection points: 6
#     Node 25, Type 1, BuildingBlock: KUMBOL_clean_sbu_0, # of connection points: 6
#     Node 26, Type 1, BuildingBlock: KUMBOL_clean_sbu_0, # of connection points: 6
#     Edge 27, Type (0, 1), None
#     Edge 28, Type (0, 1), None
#     Edge 29, Type (0, 1), None
#     Edge 30, Type (0, 1), None
#     Edge 31, Type (0, 1), None
#     Edge 32, Type (0, 1), None
#     Edge 33, Type (0, 1), None
#     Edge 34, Type (0, 1), None
#     Edge 35, Type (0, 1), None
#     Edge 36, Type (0, 1), None
#     Edge 37, Type (0, 1), None
#     Edge 38, Type (0, 1), None
#     Edge 39, Type (0, 1), None
#     Edge 40, Type (0, 1), None
#     Edge 41, Type (0, 1), None
#     Edge 42, Type (0, 1), None
#     Edge 43, Type (0, 1), None
#     Edge 44, Type (0, 1), None
#     Edge 45, Type (0, 1), None
#     Edge 46, Type (0, 1), None
#     Edge 47, Type (0, 1), None
#     Edge 48, Type (0, 1), None
#     Edge 49, Type (0, 1), None
#     Edge 50, Type (0, 1), None
#     Edge 51, Type (0, 1), None
#     Edge 52, Type (0, 1), None
#     Edge 53, Type (0, 1), None
#     Edge 54, Type (0, 1), None
#     Edge 55, Type (0, 1), None
#     Edge 56, Type (0, 1), None
#     Edge 57, Type (0, 1), None
#     Edge 58, Type (0, 1), None
#     Edge 59, Type (0, 1), None
#     Edge 60, Type (0, 1), None
#     Edge 61, Type (0, 1), None
#     Edge 62, Type (0, 1), None
#     Edge 63, Type (0, 1), None
#     Edge 64, Type (0, 1), None
#     Edge 65, Type (0, 1), None
#     Edge 66, Type (0, 1), None
#     Edge 67, Type (0, 1), None
#     Edge 68, Type (0, 1), None
#     Edge 69, Type (0, 1), None
#     Edge 70, Type (0, 1), None
#     Edge 71, Type (0, 1), None
#     Edge 72, Type (0, 1), None
#     Edge 73, Type (0, 1), None
#     Edge 74, Type (0, 1), None
#     Edge 75, Type (0, 1), None
#     Edge 76, Type (0, 1), None
#     Edge 77, Type (0, 1), None
#     Edge 78, Type (0, 1), None
#     Edge 79, Type (0, 1), None
#     Edge 80, Type (0, 1), None
# Relax obj value: 0.051
# Max RMSD: 0.261
# Mean RMSD: 0.188
data_MOF--net-eea--node1-KUMBOL_clean_sbu_0--node2-QEWDON_clean_linker_0--edge1-none
_symmetry_space_group_name_H-M    P1
_symmetry_Int_Tables_number       1
_symmetry_cell_setting            triclinic
loop_
_symmetry_equiv_pos_as_xyz
'x, y, z'
_cell_length_a     26.072117
_cell_length_b     27.077765
_cell_length_c     35.995185
_cell_angle_alpha  90.526089
_cell_angle_beta   89.921546
_cell_angle_gamma 119.77537
loop_
_atom_site_label
_atom_site_type_symbol
_atom_site_fract_x
_atom_site_fract_y
_atom_site_fract_z
_atom_type_partial_charge
H0 H 0.28373 0.1792 0.43658 0.0
C1 C 0.28173 0.14329 0.42166 0.0
C2 C 0.31674 0.12031 0.43332 0.0
C3 C 0.24168 0.11794 0.39239 0.0
H4 H 0.33688 0.05259 0.42608 0.0
C5 C 0.31126 0.07121 0.41583 0.0
C6 C 0.2713 0.04529 0.3861 0.0
C7 C 0.23879 0.07057 0.37371 0.0
C8 C 0.19471 0.13257 0.38564 0.0
H9 H 0.20709 0.05047 0.35137 0.0
C10 C 0.20539 0.18896 0.38179 0.0
C11 C 0.15798 0.19781 0.37241 0.0
C12 C 0.1367 0.08712 0.38281 0.0
H13 H 0.12737 0.0445 0.38876 0.0
C14 C 0.09103 0.09581 0.3718 0.0
H15 H 0.24976 0.22483 0.38448 0.0
C16 C 0.10174 0.15061 0.36619 0.0
H17 H 0.06578 0.15616 0.35674 0.0
H18 H 0.04738 0.05995 0.36721 0.0
H19 H 0.85085 0.10878 0.43173 0.0
C20 C 0.88578 0.14444 0.41699 0.0
C21 C 0.90183 0.19955 0.42839 0.0
C22 C 0.91754 0.13476 0.38916 0.0
H23 H 0.95803 0.28798 0.41975 0.0
C24 C 0.94761 0.24587 0.41029 0.0
C25 C 0.98321 0.23891 0.3833 0.0
C26 C 0.96749 0.18234 0.3729 0.0
C27 C 0.90505 0.07489 0.38461 0.0
H28 H 0.99406 0.17519 0.35302 0.0
C29 C 0.84748 0.02924 0.37596 0.0
C30 C 0.83335 0.97199 0.38122 0.0
C31 C 0.94768 0.06203 0.39759 0.0
H32 H 0.99067 0.09582 0.4064 0.0
C33 C 0.93402 0.00571 0.40224 0.0
H34 H 0.81345 0.03829 0.36681 0.0
C35 C 0.87733 0.96115 0.39448 0.0
H36 H 0.86785 0.91782 0.39861 0.0
H37 H 0.96722 0.99656 0.41286 0.0
H38 H 0.92256 0.75751 0.43301 0.0
C39 C 0.88724 0.75961 0.41858 0.0
C40 C 0.82966 0.72824 0.432 0.0
C41 C 0.89966 0.79521 0.38763 0.0
H42 H 0.73988 0.70483 0.42527 0.0
C43 C 0.78378 0.73085 0.41398 0.0
C44 C 0.79313 0.76654 0.38333 0.0
C45 C 0.85206 0.79915 0.37025 0.0
C46 C 0.96345 0.83404 0.37777 0.0
H47 H 0.86087 0.82738 0.34702 0.0
C48 C 1.00762 0.81703 0.37774 0.0
C49 C 0.06842 0.8575 0.37143 0.0
C50 C 0.98146 0.89132 0.3719 0.0
H51 H 0.94985 0.90616 0.37164 0.0
C52 C 0.04062 0.93095 0.36735 0.0
H53 H 0.99473 0.77282 0.38192 0.0
C54 C 0.08372 0.91488 0.36814 0.0
H55 H 0.1291 0.94765 0.36484 0.0
H56 H 0.05241 0.9742 0.36176 0.0
H57 H 0.18149 0.2596 0.61146 0.0
C58 C 0.14409 0.26025 0.62417 0.0
C59 C 0.12177 0.2915 0.60701 0.0
C60 C 0.11662 0.22633 0.65506 0.0
H61 H 0.05659 0.31642 0.60769 0.0
C62 C 0.0719 0.29089 0.62172 0.0
C63 C 0.0416 0.25762 0.65317 0.0
C64 C 0.06414 0.22434 0.66944 0.0
C65 C 0.1393 0.18738 0.6668 0.0
H66 H 0.04102 0.19695 0.69255 0.0
C67 C 0.20085 0.20406 0.66532 0.0
C68 C 0.22008 0.16354 0.66901 0.0
C69 C 0.09836 0.13002 0.67268 0.0
H70 H 0.05162 0.11551 0.67395 0.0
C71 C 0.11668 0.08986 0.67464 0.0
H72 H 0.2336 0.24826 0.66108 0.0
C73 C 0.17645 0.10611 0.67237 0.0
H74 H 0.1883 0.07339 0.67386 0.0
H75 H 0.08389 0.04567 0.67776 0.0
H76 H 0.75164 0.91194 0.59745 0.0
C77 C 0.75167 0.87957 0.61498 0.0
C78 C 0.71319 0.82209 0.60677 0.0
C79 C 0.79317 0.89535 0.64384 0.0
H80 H 0.68602 0.73576 0.62053 0.0
C81 C 0.7151 0.78004 0.62803 0.0
C82 C 0.75718 0.79443 0.65653 0.0
C83 C 0.79555 0.85254 0.66478 0.0
C84 C 0.84137 0.95545 0.64625 0.0
H85 H 0.8298 0.8647 0.68558 0.0
C86 C 0.83012 1.00076 0.65323 0.0
C87 C 0.87669 0.0576 0.65164 0.0
C88 C 0.89909 0.96778 0.63773 0.0
H89 H 0.90858 0.9338 0.63183 0.0
C90 C 0.94464 0.02395 0.63526 0.0
H91 H 0.78602 0.9918 0.6606 0.0
C92 C 0.93353 0.06854 0.64209 0.0
H93 H 0.96976 0.11192 0.64072 0.0
H94 H 0.98878 0.03295 0.62814 0.0
H95 H 0.09092 0.84066 0.60717 0.0
C96 C 0.12634 0.87903 0.61958 0.0
C97 C 0.18166 0.90533 0.60202 0.0
C98 C 0.11629 0.90288 0.65169 0.0
H99 H 0.26937 0.97795 0.60146 0.0
C100 C 0.22728 0.95732 0.61571 0.0
C101 C 0.21917 0.98154 0.64836 0.0
C102 C 0.16435 0.95315 0.66657 0.0
C103 C 0.05496 0.87882 0.66742 0.0
H104 H 0.15881 0.97197 0.69158 0.0
C105 C 1.01029 0.82102 0.662 0.0
C106 C 0.95151 0.80166 0.67358 0.0
C107 C 0.03924 0.91555 0.68575 0.0
H108 H 0.07064 0.95979 0.6904 0.0
C109 C 0.98161 0.89675 0.69697 0.0
H110 H 0.02066 0.79098 0.64883 0.0
C111 C 0.93813 0.84091 0.69019 0.0
H112 H 0.89406 0.82913 0.69805 0.0
H113 H 0.97025 0.92607 0.71026 0.0
H114 H 0.95042 0.51253 0.76991 0.0
C115 C 0.94843 0.47663 0.75499 0.0
C116 C 0.98344 0.45364 0.76664 0.0
C117 C 0.90836 0.45127 0.72572 0.0
H118 H 1.00358 0.38593 0.75938 0.0
C119 C 0.97795 0.40455 0.74914 0.0
C120 C 0.93799 0.37863 0.71941 0.0
C121 C 0.90547 0.4039 0.70704 0.0
C122 C 0.86138 0.4659 0.719 0.0
H123 H 0.87374 0.3838 0.68471 0.0
C124 C 0.87207 0.52229 0.71514 0.0
C125 C 0.82464 0.53113 0.7058 0.0
C126 C 0.80337 0.42045 0.71621 0.0
H127 H 0.79405 0.37783 0.72218 0.0
C128 C 0.75768 0.42914 0.70526 0.0
H129 H 0.91644 0.55816 0.71779 0.0
C130 C 0.76838 0.48394 0.69964 0.0
H131 H 0.7324 0.48948 0.69023 0.0
H132 H 0.71401 0.39328 0.70071 0.0
H133 H 0.5175 0.44214 0.76507 0.0
C134 C 0.55244 0.47779 0.75033 0.0
C135 C 0.56849 0.53291 0.76172 0.0
C136 C 0.5842 0.46811 0.7225 0.0
H137 H 0.62471 0.62134 0.75309 0.0
C138 C 0.61428 0.57922 0.74363 0.0
C139 C 0.64988 0.57226 0.71664 0.0
C140 C 0.63415 0.51569 0.70624 0.0
C141 C 0.57171 0.40824 0.71797 0.0
H142 H 0.66071 0.50853 0.68636 0.0
C143 C 0.51416 0.36259 0.70929 0.0
C144 C 0.50001 0.30534 0.71458 0.0
C145 C 0.61432 0.39539 0.731 0.0
H146 H 0.65729 0.42918 0.73983 0.0
C147 C 0.60066 0.33907 0.73567 0.0
H148 H 0.48014 0.37164 0.70012 0.0
C149 C 0.54398 0.2945 0.72789 0.0
H150 H 0.53449 0.25118 0.73204 0.0
H151 H 0.63384 0.32992 0.74632 0.0
H152 H 0.58926 0.09092 0.76635 0.0
C153 C 0.55393 0.09301 0.75192 0.0
C154 C 0.49635 0.06163 0.76534 0.0
C155 C 0.56635 0.12861 0.72097 0.0
H156 H 0.40657 0.03819 0.75861 0.0
C157 C 0.45047 0.06422 0.74732 0.0
C158 C 0.45981 0.09992 0.71668 0.0
C159 C 0.51874 0.13254 0.70359 0.0
C160 C 0.63013 0.16744 0.71111 0.0
H161 H 0.52755 0.16077 0.68037 0.0
C162 C 0.6743 0.15042 0.71108 0.0
C163 C 0.73509 0.19088 0.70476 0.0
C164 C 0.64815 0.22471 0.70523 0.0
H165 H 0.61655 0.23957 0.70496 0.0
C166 C 0.70731 0.26434 0.70065 0.0
H167 H 0.6614 0.10621 0.71526 0.0
C168 C 0.75041 0.24825 0.70144 0.0
H169 H 0.79579 0.28101 0.69813 0.0
H170 H 0.71912 0.30759 0.69505 0.0
H171 H 0.84816 0.59296 0.9448 0.0
C172 C 0.81076 0.5936 0.95751 0.0
C173 C 0.78843 0.62485 0.94036 0.0
C174 C 0.78329 0.55968 0.9884 0.0
H175 H 0.72326 0.64977 0.94104 0.0
C176 C 0.73857 0.62424 0.95507 0.0
C177 C 0.70826 0.59096 0.98651 0.0
C178 C 0.7308 0.55768 1.00278 0.0
C179 C 0.80597 0.52072 1.00013 0.0
H180 H 0.70768 0.53027 0.02588 0.0
C181 C 0.86752 0.5374 0.99865 0.0
C182 C 0.88676 0.49689 1.00233 0.0
C183 C 0.76503 0.46336 1.00601 0.0
H184 H 0.71829 0.44884 1.00728 0.0
C185 C 0.78336 0.42321 1.00796 0.0
H186 H 0.90027 0.5816 0.99441 0.0
C187 C 0.84313 0.43946 1.00568 0.0
H188 H 0.85498 0.40673 1.00717 0.0
H189 H 0.75057 0.37901 0.01108 0.0
H190 H 0.41832 0.24527 0.93079 0.0
C191 C 0.41836 0.2129 0.94831 0.0
C192 C 0.37988 0.15542 0.9401 0.0
C193 C 0.45987 0.22868 0.97718 0.0
H194 H 0.35272 0.06909 0.95387 0.0
C195 C 0.38179 0.11337 0.96136 0.0
C196 C 0.42387 0.12776 0.98986 0.0
C197 C 0.46225 0.18587 0.99811 0.0
C198 C 0.50806 0.28878 0.97958 0.0
H199 H 0.4965 0.19803 0.01892 0.0
C200 C 0.49681 0.33409 0.98657 0.0
C201 C 0.54338 0.39093 0.98498 0.0
C202 C 0.56578 0.30111 0.97106 0.0
H203 H 0.57527 0.26713 0.96515 0.0
C204 C 0.61133 0.35729 0.96859 0.0
H205 H 0.45271 0.32512 0.99394 0.0
C206 C 0.60022 0.40188 0.97542 0.0
H207 H 0.63644 0.44525 0.97405 0.0
H208 H 0.65547 0.36628 0.96146 0.0
H209 H 0.75761 0.174 0.9405 0.0
C210 C 0.79303 0.21237 0.9529 0.0
C211 C 0.84835 0.23867 0.93534 0.0
C212 C 0.78297 0.23622 0.98501 0.0
H213 H 0.93606 0.3113 0.93478 0.0
C214 C 0.89397 0.29067 0.94904 0.0
C215 C 0.88585 0.31489 0.98168 0.0
C216 C 0.83104 0.28649 0.99989 0.0
C217 C 0.72165 0.21216 1.00074 0.0
H218 H 0.82549 0.30531 0.0249 0.0
C219 C 0.67699 0.15435 0.99533 0.0
C220 C 0.61821 0.13498 1.00692 0.0
C221 C 0.70592 0.24889 0.01908 0.0
H222 H 0.73732 0.29313 0.02371 0.0
C223 C 0.6483 0.23008 0.03029 0.0
H224 H 0.68735 0.12431 0.98216 0.0
C225 C 0.60482 0.17423 0.02352 0.0
H226 H 0.56075 0.16245 0.03139 0.0
H227 H 0.63693 0.2594 0.04358 0.0
H228 H 0.61714 0.84587 0.10326 0.0
C229 C 0.61513 0.80996 0.08833 0.0
C230 C 0.65015 0.78697 0.09998 0.0
C231 C 0.57506 0.78461 0.05907 0.0
H232 H 0.67028 0.71926 0.09271 0.0
C233 C 0.64466 0.73789 0.08248 0.0
C234 C 0.60468 0.71197 0.05275 0.0
C235 C 0.57215 0.73724 0.04039 0.0
C236 C 0.52808 0.79924 0.05237 0.0
H237 H 0.54042 0.71713 0.01806 0.0
C238 C 0.53876 0.85562 0.0485 0.0
C239 C 0.49133 0.86446 0.03918 0.0
C240 C 0.47006 0.75378 0.04961 0.0
H241 H 0.46074 0.71116 0.05558 0.0
C242 C 0.42435 0.76247 0.03868 0.0
H243 H 0.58314 0.89149 0.05112 0.0
C244 C 0.43505 0.81727 0.03306 0.0
H245 H 0.39906 0.8228 0.02367 0.0
H246 H 0.38068 0.72661 0.03416 0.0
H247 H 0.18422 0.77549 0.09843 0.0
C248 C 0.21914 0.81114 0.08368 0.0
C249 C 0.2352 0.86626 0.09507 0.0
C250 C 0.25089 0.80145 0.05585 0.0
H251 H 0.2914 0.95468 0.08642 0.0
C252 C 0.28097 0.91257 0.07696 0.0
C253 C 0.31657 0.9056 0.04997 0.0
C254 C 0.30083 0.84903 0.03957 0.0
C255 C 0.2384 0.74158 0.05132 0.0
H256 H 0.32738 0.84186 0.01969 0.0
C257 C 0.18085 0.69593 0.04263 0.0
C258 C 0.16669 0.63868 0.04792 0.0
C259 C 0.28098 0.72872 0.06438 0.0
H260 H 0.32395 0.76251 0.07323 0.0
C261 C 0.26731 0.6724 0.06906 0.0
H262 H 0.14685 0.70499 0.03343 0.0
C263 C 0.21063 0.62784 0.06125 0.0
H264 H 0.20114 0.58451 0.06541 0.0
H265 H 0.30047 0.66325 0.07973 0.0
H266 H 0.25591 0.42426 0.0997 0.0
C267 C 0.22059 0.42635 0.08526 0.0
C268 C 0.163 0.39496 0.09867 0.0
C269 C 0.23302 0.46196 0.05431 0.0
H270 H 0.07322 0.37152 0.09192 0.0
C271 C 0.11713 0.39755 0.08064 0.0
C272 C 0.12648 0.43326 0.05 0.0
C273 C 0.18541 0.4659 0.03693 0.0
C274 C 0.2968 0.50079 0.04446 0.0
H275 H 0.19423 0.49414 0.01371 0.0
C276 C 0.34097 0.48376 0.04442 0.0
C277 C 0.40176 0.52422 0.0381 0.0
C278 C 0.31483 0.55807 0.03858 0.0
H279 H 0.28323 0.57293 0.03832 0.0
C280 C 0.37399 0.59769 0.03401 0.0
H281 H 0.32806 0.43955 0.0486 0.0
C282 C 0.41708 0.5816 0.03479 0.0
H283 H 0.46246 0.61435 0.03148 0.0
H284 H 0.38581 0.64094 0.02841 0.0
H285 H 0.51483 0.92626 0.27813 0.0
C286 C 0.47743 0.92691 0.29085 0.0
C287 C 0.45512 0.95817 0.27369 0.0
C288 C 0.44996 0.89299 0.32174 0.0
H289 H 0.38995 0.9831 0.27438 0.0
C290 C 0.40525 0.95757 0.28841 0.0
C291 C 0.37495 0.92429 0.31985 0.0
C292 C 0.39749 0.891 0.33612 0.0
C293 C 0.47263 0.85403 0.33347 0.0
H294 H 0.37436 0.86361 0.35923 0.0
C295 C 0.53418 0.87071 0.33199 0.0
C296 C 0.55342 0.83019 0.33568 0.0
C297 C 0.43169 0.79668 0.33935 0.0
H298 H 0.38495 0.78216 0.34061 0.0
C299 C 0.45001 0.75652 0.3413 0.0
H300 H 0.56694 0.91491 0.32775 0.0
C301 C 0.50979 0.77276 0.33903 0.0
H302 H 0.52163 0.74004 0.34052 0.0
H303 H 0.41722 0.71232 0.34442 0.0
H304 H 0.08494 0.5786 0.26412 0.0
C305 C 0.08498 0.54624 0.28164 0.0
C306 C 0.04651 0.48876 0.27343 0.0
C307 C 0.12648 0.56202 0.31051 0.0
H308 H 0.01934 0.40242 0.2872 0.0
C309 C 0.04841 0.44671 0.29469 0.0
C310 C 0.09049 0.4611 0.3232 0.0
C311 C 0.12886 0.51921 0.33145 0.0
C312 C 0.17467 0.62212 0.31291 0.0
H313 H 0.16311 0.53137 0.35225 0.0
C314 C 0.16342 0.66743 0.3199 0.0
C315 C 0.20999 0.72427 0.31831 0.0
C316 C 0.23239 0.63445 0.3044 0.0
H317 H 0.24188 0.60047 0.29849 0.0
C318 C 0.27794 0.69063 0.30193 0.0
H319 H 0.11932 0.65846 0.32727 0.0
C320 C 0.26684 0.73521 0.30876 0.0
H321 H 0.30306 0.77859 0.3074 0.0
H322 H 0.32208 0.69962 0.29481 0.0
H323 H 0.42423 0.50733 0.27384 0.0
C324 C 0.45965 0.5457 0.28624 0.0
C325 C 0.51497 0.57199 0.26868 0.0
C326 C 0.4496 0.56954 0.31835 0.0
H327 H 0.60268 0.64461 0.26811 0.0
C328 C 0.56059 0.62399 0.28237 0.0
C329 C 0.55249 0.64821 0.31502 0.0
C330 C 0.49767 0.61981 0.33323 0.0
C331 C 0.38828 0.54549 0.33408 0.0
H332 H 0.49214 0.63864 0.35824 0.0
C333 C 0.34361 0.4877 0.32866 0.0
C334 C 0.28483 0.46833 0.34024 0.0
C335 C 0.37257 0.58222 0.35243 0.0
H336 H 0.40397 0.62646 0.35708 0.0
C337 C 0.31494 0.56342 0.36364 0.0
H338 H 0.35396 0.45766 0.31548 0.0
C339 C 0.27145 0.50758 0.35685 0.0
H340 H 0.22738 0.49581 0.36471 0.0
H341 H 0.30358 0.59274 0.37694 0.0
Gd342 Gd 0.48375 0.02811 0.06841 0.0
Gd343 Gd 0.46484 0.98866 0.96987 0.0
C344 C 0.33175 0.81828 0.91974 0.0
C345 C 0.39554 0.78645 0.8918 0.0
C346 C 0.43775 0.8729 0.92933 0.0
C347 C 0.3816 0.86478 0.93621 0.0
C348 C 0.44519 0.83351 0.90739 0.0
C349 C 0.33928 0.77972 0.89718 0.0
C350 C 0.27646 0.81441 0.92409 0.0
C351 C 0.27211 0.85709 0.94342 0.0
N352 N 0.37653 0.90629 0.95455 0.0
C353 C 0.32314 0.9037 0.95776 0.0
H354 H 0.32013 0.93844 0.97048 0.0
C355 C 0.54151 0.93306 0.9339 0.0
N356 N 0.48533 0.92144 0.94205 0.0
C357 C 0.55089 0.89416 0.91346 0.0
C358 C 0.50256 0.84436 0.89993 0.0
H359 H 0.57918 0.9722 0.94333 0.0
H360 H 0.30223 0.74579 0.88245 0.0
H361 H 0.60619 0.01647 0.05087 0.0
H362 H 0.23715 0.77982 0.9115 0.0
H363 H 0.22979 0.85512 0.94613 0.0
H364 H 0.40041 0.75636 0.8742 0.0
H365 H 0.43306 0.11318 0.09806 0.0
H366 H 0.74985 0.14689 0.11264 0.0
H367 H 0.70932 0.06232 0.07133 0.0
H368 H 0.66796 0.25467 0.16653 0.0
H369 H 0.5954 0.90323 0.90741 0.0
H370 H 0.51003 0.81518 0.88307 0.0
H371 H 0.73213 0.21519 0.15067 0.0
H372 H 0.46796 0.20078 0.13578 0.0
N373 N 0.58717 0.07516 0.07919 0.0
C374 C 0.7044 0.12742 0.10323 0.0
C375 C 0.68161 0.07959 0.08006 0.0
C376 C 0.66824 0.14952 0.11403 0.0
C377 C 0.60961 0.12303 0.10064 0.0
C378 C 0.62252 0.0534 0.06869 0.0
N379 N 0.51648 0.11674 0.09798 0.0
C380 C 0.57297 0.14421 0.11051 0.0
C381 C 0.49807 0.18552 0.12875 0.0
C382 C 0.55584 0.21359 0.14243 0.0
C383 C 0.47874 0.1364 0.10697 0.0
C384 C 0.59394 0.19284 0.13359 0.0
H385 H 0.5704 0.25069 0.16022 0.0
O386 O 0.44054 0.02064 0.12191 0.0
O387 O 0.42097 0.96183 0.02736 0.0
O388 O 0.41702 0.0367 0.9834 0.0
O389 O 0.46388 0.08992 0.03638 0.0
O390 O 0.38885 1.00113 0.06232 0.0
O391 O 0.47845 0.96765 0.10961 0.0
O392 O 0.5137 0.03395 0.92063 0.0
O393 O 0.51861 0.05233 0.01235 0.0
O394 O 0.50381 0.95528 0.0591 0.0
O395 O 0.48061 0.92427 0.99739 0.0
O396 O 0.5654 0.04937 0.96828 0.0
O397 O 0.42048 0.00547 0.92441 0.0
C398 C 0.37324 0.95899 0.03942 0.0
C399 C 0.65154 0.21818 0.14797 0.0
C400 C 0.68833 0.1961 0.13857 0.0
C401 C 0.45519 0.98478 0.13514 0.0
C402 C 0.48546 0.99915 0.17178 0.0
C403 C 0.54729 0.03199 0.17339 0.0
C404 C 0.45386 0.9778 0.20516 0.0
C405 C 0.48447 0.98981 0.23945 0.0
C406 C 0.57711 0.04697 0.20725 0.0
C407 C 0.54598 0.02617 0.24013 0.0
C408 C 0.43439 0.08236 1.00471 0.0
C409 C 0.56976 0.07566 0.999 0.0
C410 C 0.46719 0.02792 0.90317 0.0
C411 C 0.45985 0.00678 0.86416 0.0
C412 C 0.42429 0.94863 0.85611 0.0
C413 C 0.48809 0.04448 0.83447 0.0
C414 C 0.48102 0.02341 0.79762 0.0
C415 C 0.41963 0.92749 0.82011 0.0
C416 C 0.44787 0.96461 0.79098 0.0
C417 C 0.49773 0.92044 0.03105 0.0
H418 H 0.57291 0.04445 0.14844 0.0
H419 H 0.40643 0.94955 0.20424 0.0
H420 H 0.6248 0.07294 0.20788 0.0
H421 H 0.57031 0.03617 0.26608 0.0
H422 H 0.39878 0.91949 0.87735 0.0
H423 H 0.51306 0.08993 0.83975 0.0
H424 H 0.39226 0.88235 0.81462 0.0
H425 H 0.44116 0.94776 0.76288 0.0
Gd426 Gd 0.99522 0.4632 0.06581 0.0
Gd427 Gd 0.04247 0.49954 0.97088 0.0
C428 C 0.16407 0.4456 0.91499 0.0
C429 C 0.23806 0.53451 0.8882 0.0
C430 C 0.16561 0.53318 0.93181 0.0
C431 C 0.13942 0.4747 0.93416 0.0
C432 C 0.21616 0.56378 0.90935 0.0
C433 C 0.21257 0.47562 0.89143 0.0
C434 C 0.13876 0.38694 0.9195 0.0
C435 C 0.08968 0.35851 0.94228 0.0
N436 N 0.08967 0.44618 0.95477 0.0
C437 C 0.06512 0.38854 0.95922 0.0
H438 H 0.02668 0.36455 0.97603 0.0
C439 C 0.16526 0.61793 0.94707 0.0
N440 N 0.14037 0.55999 0.94993 0.0
C441 C 0.2184 0.65006 0.92855 0.0
C442 C 0.24349 0.62301 0.90883 0.0
H443 H 0.14322 0.64026 0.957 0.0
H444 H 0.23117 0.45375 0.87596 0.0
H445 H 0.02655 0.6003 0.0724 0.0
H446 H 0.1568 0.36329 0.9056 0.0
H447 H 0.06981 0.31307 0.94619 0.0
H448 H 0.27611 0.55734 0.87038 0.0
H449 H 0.90035 0.32864 0.09105 0.0
H450 H 0.8647 0.60014 0.09082 0.0
H451 H 0.97284 0.65268 0.08083 0.0
H452 H 0.72246 0.40231 0.1027 0.0
H453 H 0.2378 0.69551 0.92813 0.0
H454 H 0.2833 0.64798 0.89287 0.0
H455 H 0.77147 0.50586 0.09333 0.0
H456 H 0.79455 0.26996 0.10418 0.0
N457 N 0.95029 0.51859 0.07804 0.0
C458 C 0.8885 0.57697 0.08801 0.0
C459 C 0.94941 0.6067 0.08216 0.0
C460 C 0.85907 0.5176 0.09031 0.0
C461 C 0.89187 0.48941 0.08633 0.0
C462 C 0.97981 0.57668 0.07727 0.0
N463 N 0.89667 0.40493 0.08437 0.0
C464 C 0.86413 0.43082 0.08917 0.0
C465 C 0.81322 0.31515 0.10052 0.0
C466 C 0.77767 0.34023 0.102 0.0
C467 C 0.87323 0.34853 0.09261 0.0
C468 C 0.80329 0.39894 0.09716 0.0
H469 H 0.7308 0.31423 0.10711 0.0
O470 O 0.9999 0.41768 0.11421 0.0
O471 O 0.07033 0.47922 0.02685 0.0
O472 O 0.96823 0.40791 0.97024 0.0
O473 O 0.93533 0.38402 0.0313 0.0
O474 O 0.02387 0.40076 0.05229 0.0
O475 O 0.03463 0.50837 0.11752 0.0
O476 O 0.03995 0.54711 0.9234 0.0
O477 O 0.97109 0.48098 0.01102 0.0
O478 O 0.08255 0.54781 0.06369 0.0
O479 O 0.09038 0.58147 1.00401 0.0
O480 O 0.98498 0.54219 0.97382 0.0
O481 O 1.00047 0.4555 0.91919 0.0
C482 C 0.07238 0.43426 0.0351 0.0
C483 C 0.76987 0.42645 0.09897 0.0
C484 C 0.79774 0.48551 0.09477 0.0
C485 C 0.02249 0.46256 0.13572 0.0
C486 C 0.99602 0.457 0.17297 0.0
C487 C 0.93468 0.43233 0.17766 0.0
C488 C 0.03282 0.47722 0.2045 0.0
C489 C 1.00836 0.47182 0.24017 0.0
C490 C 0.91042 0.42716 0.21298 0.0
C491 C 0.94702 0.44641 0.24421 0.0
C492 C 0.93299 0.37142 0.99537 0.0
C493 C 0.95104 0.51256 1.00054 0.0
C494 C 0.01476 0.5025 0.90161 0.0
C495 C 0.03918 0.508 0.86375 0.0
C496 C 0.09832 0.54771 0.85583 0.0
C497 C 1.00194 0.47492 0.83451 0.0
C498 C 0.02407 0.48067 0.79817 0.0
C499 C 0.12095 0.55164 0.82014 0.0
C500 C 0.08402 0.51811 0.79134 0.0
C501 C 0.1079 0.58883 0.03881 0.0
H502 H 0.90516 0.41673 0.15435 0.0
H503 H 0.08026 0.4961 0.20141 0.0
H504 H 0.86303 0.40773 0.21615 0.0
H505 H 0.92754 0.44131 0.2715 0.0
H506 H 0.12677 0.57672 0.87685 0.0
H507 H 0.95544 0.44608 0.83973 0.0
H508 H 0.16681 0.58204 0.81459 0.0
H509 H 0.10153 0.52327 0.76344 0.0
Gd510 Gd 0.54205 0.5599 0.96992 0.0
Gd511 Gd 0.55777 0.5278 0.06495 0.0
C512 C 0.69233 0.51179 0.13421 0.0
C513 C 0.63877 0.41208 0.1516 0.0
C514 C 0.5959 0.44884 0.10736 0.0
C515 C 0.64591 0.50226 0.10991 0.0
C516 C 0.59219 0.40299 0.1278 0.0
C517 C 0.68829 0.46653 0.15524 0.0
C518 C 0.74192 0.56641 0.13624 0.0
C519 C 0.74528 0.60919 0.11327 0.0
N520 N 0.64828 0.54537 0.08964 0.0
C521 C 0.69768 0.59794 0.09003 0.0
H522 H 0.69976 0.63205 0.07367 0.0
C523 C 0.49772 0.39155 0.08543 0.0
N524 N 0.54935 0.44258 0.08677 0.0
C525 C 0.49322 0.34421 0.10365 0.0
C526 C 0.5405 0.35004 0.12511 0.0
H527 H 0.46019 0.38746 0.07009 0.0
H528 H 0.7237 0.473 0.17392 0.0
H529 H 0.41829 0.43088 0.96175 0.0
H530 H 0.7786 0.57543 0.15452 0.0
H531 H 0.78396 0.65118 0.11407 0.0
H532 H 0.63651 0.3775 0.16779 0.0
H533 H 0.60502 0.69623 0.94238 0.0
H534 H 0.27147 0.45882 0.95288 0.0
H535 H 0.31112 0.39295 0.95689 0.0
H536 H 0.36261 0.66166 0.94251 0.0
H537 H 0.45268 0.30369 0.10204 0.0
H538 H 0.53592 0.31391 0.14042 0.0
H539 H 0.29227 0.56004 0.95358 0.0
H540 H 0.57391 0.76742 0.93008 0.0
N541 N 0.43985 0.51767 0.95826 0.0
C542 C 0.31878 0.47566 0.9531 0.0
C543 C 0.34103 0.43838 0.95571 0.0
C544 C 0.35799 0.53422 0.95102 0.0
C545 C 0.41904 0.55395 0.95247 0.0
C546 C 0.40208 0.46021 0.95832 0.0
N547 N 0.51733 0.62852 0.95094 0.0
C548 C 0.45903 0.6113 0.94917 0.0
C549 C 0.54113 0.72365 0.93553 0.0
C550 C 0.48129 0.70749 0.93719 0.0
C551 C 0.55851 0.68321 0.94215 0.0
C552 C 0.43932 0.65054 0.94334 0.0
H553 H 0.46778 0.73892 0.93325 0.0
O554 O 0.59175 0.59668 0.91911 0.0
O555 O 0.6038 0.54896 1.00839 0.0
O556 O 0.60487 0.6235 0.0585 0.0
O557 O 0.56002 0.63606 1.00649 0.0
O558 O 0.63819 0.62121 0.97711 0.0
O559 O 0.52923 0.50682 0.92124 0.0
O560 O 0.49486 0.50921 0.10931 0.0
O561 O 0.50261 0.54398 0.02573 0.0
O562 O 0.52004 0.46626 0.97546 0.0
O563 O 0.56317 0.46122 0.03081 0.0
O564 O 0.45623 0.47856 0.06095 0.0
O565 O 0.58405 0.5796 0.11591 0.0
C566 C 0.65263 0.59188 0.99837 0.0
C567 C 0.37861 0.63173 0.94455 0.0
C568 C 0.33829 0.57379 0.94938 0.0
C569 C 0.56452 0.54918 0.90031 0.0
C570 C 0.5412 0.55143 0.86327 0.0
C571 C 0.49419 0.56242 0.85983 0.0
C572 C 0.5651 0.54126 0.83095 0.0
C573 C 0.54238 0.54244 0.79562 0.0
C574 C 0.4718 0.56384 0.82484 0.0
C575 C 0.49584 0.55405 0.7928 0.0
C576 C 0.59064 0.65506 0.03792 0.0
C577 C 0.45053 0.50927 0.03598 0.0
C578 C 0.53288 0.54826 0.13174 0.0
C579 C 0.53234 0.52987 0.17043 0.0
C580 C 0.52476 0.47571 0.17749 0.0
C581 C 0.53255 0.56351 0.20061 0.0
C582 C 0.52473 0.54248 0.23711 0.0
C583 C 0.52019 0.45623 0.21365 0.0
C584 C 0.51985 0.48925 0.24336 0.0
C585 C 0.53733 0.43931 0.99868 0.0
H586 H 0.47457 0.56967 0.88408 0.0
H587 H 0.60134 0.53257 0.8332 0.0
H588 H 0.43562 0.57251 0.82258 0.0
H589 H 0.47815 0.55544 0.76585 0.0
H590 H 0.51968 0.44718 0.15514 0.0
H591 H 0.53538 0.60421 0.1956 0.0
H592 H 0.51457 0.41443 0.21855 0.0
H593 H 0.51381 0.47248 0.27123 0.0
Gd594 Gd 0.15038 0.36143 0.40173 0.0
Gd595 Gd 0.13146 0.32202 0.30317 0.0
C596 C 0.9984 0.15159 0.25308 0.0
C597 C 0.06221 0.11983 0.22509 0.0
C598 C 0.10441 0.20629 0.2626 0.0
C599 C 0.04825 0.19812 0.26953 0.0
C600 C 0.11187 0.16693 0.24064 0.0
C601 C 1.00594 0.11304 0.23052 0.0
C602 C 0.94309 0.14766 0.25747 0.0
C603 C 0.93873 0.19033 0.2768 0.0
N604 N 0.04316 0.23961 0.28787 0.0
C605 C 0.98975 0.23698 0.2911 0.0
H606 H 0.98672 0.27171 0.30383 0.0
C607 C 0.20816 0.26654 0.2671 0.0
N608 N 0.15198 0.25486 0.27531 0.0
C609 C 0.21756 0.22768 0.24663 0.0
C610 C 0.16924 0.17785 0.23312 0.0
H611 H 0.24582 0.3057 0.27651 0.0
H612 H 0.96888 0.07906 0.21582 0.0
H613 H 0.2728 0.34977 0.38416 0.0
H614 H 0.90378 0.11303 0.24491 0.0
H615 H 0.89639 0.18832 0.27953 0.0
H616 H 0.06709 0.08975 0.20748 0.0
H617 H 0.0997 0.4465 0.4314 0.0
H618 H 0.41648 0.48017 0.44593 0.0
H619 H 0.37594 0.39561 0.40461 0.0
H620 H 0.33463 0.58795 0.49986 0.0
H621 H 0.26207 0.2368 0.24054 0.0
H622 H 0.17672 0.14869 0.21624 0.0
H623 H 0.39879 0.54847 0.48398 0.0
H624 H 0.13462 0.5341 0.46913 0.0
N625 N 0.2538 0.40847 0.41249 0.0
C626 C 0.37103 0.46071 0.43652 0.0
C627 C 0.34823 0.41288 0.41335 0.0
C628 C 0.33489 0.48281 0.44733 0.0
C629 C 0.27625 0.45634 0.43394 0.0
C630 C 0.28914 0.3867 0.40198 0.0
N631 N 0.18313 0.45006 0.43131 0.0
C632 C 0.23961 0.47752 0.44383 0.0
C633 C 0.16473 0.51883 0.46209 0.0
C634 C 0.2225 0.5469 0.47577 0.0
C635 C 0.14539 0.46972 0.4403 0.0
C636 C 0.2606 0.52615 0.46692 0.0
H637 H 0.23708 0.58399 0.49356 0.0
O638 O 0.10717 0.35394 0.45523 0.0
O639 O 0.0876 0.29516 0.36067 0.0
O640 O 0.08361 0.37003 0.31675 0.0
O641 O 0.13051 0.42326 0.36971 0.0
O642 O 0.05548 0.33445 0.39565 0.0
O643 O 0.14513 0.301 0.44293 0.0
O644 O 0.18027 0.36739 0.25394 0.0
O645 O 0.18523 0.38567 0.34567 0.0
O646 O 0.17039 0.28858 0.39239 0.0
O647 O 0.14735 0.25769 0.33065 0.0
O648 O 0.232 0.38277 0.30156 0.0
O649 O 0.08703 0.33878 0.25773 0.0
C650 C 0.03987 0.29231 0.37274 0.0
C651 C 0.3182 0.55147 0.48129 0.0
C652 C 0.35498 0.52939 0.47188 0.0
C653 C 0.12185 0.3181 0.46846 0.0
C654 C 0.15212 0.33248 0.5051 0.0
C655 C 0.21394 0.36533 0.50671 0.0
C656 C 0.12051 0.31113 0.53848 0.0
C657 C 0.15112 0.32314 0.57276 0.0
C658 C 0.24377 0.38031 0.54057 0.0
C659 C 0.21263 0.35951 0.57345 0.0
C660 C 0.101 0.41569 0.33805 0.0
C661 C 0.23638 0.40902 0.3323 0.0
C662 C 0.13373 0.36129 0.23649 0.0
C663 C 0.12641 0.34014 0.19748 0.0
C664 C 0.09082 0.28198 0.18944 0.0
C665 C 0.1547 0.37782 0.1678 0.0
C666 C 0.14766 0.35675 0.13095 0.0
C667 C 0.08619 0.26084 0.15345 0.0
C668 C 0.11449 0.29794 0.12431 0.0
C669 C 0.1644 0.2538 0.36431 0.0
H670 H 0.23957 0.37779 0.48177 0.0
H671 H 0.07309 0.28287 0.53755 0.0
H672 H 0.29145 0.40629 0.5412 0.0
H673 H 0.23696 0.36951 0.59941 0.0
H674 H 0.06527 0.25285 0.21068 0.0
H675 H 0.17968 0.42327 0.17307 0.0
H676 H 0.05881 0.2157 0.14795 0.0
H677 H 0.1078 0.28108 0.09622 0.0
Gd678 Gd 0.6619 0.79651 0.39915 0.0
Gd679 Gd 0.70913 0.83284 0.30422 0.0
C680 C 0.83066 0.77882 0.24833 0.0
C681 C 0.90473 0.86773 0.22159 0.0
C682 C 0.83226 0.86643 0.26517 0.0
C683 C 0.80604 0.80794 0.2675 0.0
C684 C 0.88283 0.89702 0.24273 0.0
C685 C 0.87918 0.80883 0.22479 0.0
C686 C 0.80531 0.72016 0.25283 0.0
C687 C 0.75623 0.69174 0.27561 0.0
N688 N 0.75627 0.77944 0.28811 0.0
C689 C 0.73169 0.7218 0.29256 0.0
H690 H 0.69326 0.69782 0.30937 0.0
C691 C 0.832 0.9512 0.28047 0.0
N692 N 0.80705 0.89326 0.28331 0.0
C693 C 0.88516 0.98332 0.26197 0.0
C694 C 0.91022 0.95625 0.24224 0.0
H695 H 0.81 0.97357 0.29041 0.0
H696 H 0.89777 0.78695 0.20931 0.0
H697 H 0.69324 0.93361 0.40576 0.0
H698 H 0.82333 0.69649 0.23893 0.0
H699 H 0.73632 0.6463 0.27951 0.0
H700 H 0.94281 0.89056 0.20379 0.0
H701 H 0.56702 0.66195 0.4244 0.0
H702 H 0.5314 0.93347 0.42417 0.0
H703 H 0.63954 0.986 0.41418 0.0
H704 H 0.38914 0.73565 0.43605 0.0
H705 H 0.90461 0.02878 0.26158 0.0
H706 H 0.95006 0.98121 0.2263 0.0
H707 H 0.43817 0.8392 0.42669 0.0
H708 H 0.46122 0.60328 0.43752 0.0
N709 N 0.61697 0.85191 0.41138 0.0
C710 C 0.5552 0.91029 0.42136 0.0
C711 C 0.61611 0.94002 0.41551 0.0
C712 C 0.52576 0.85093 0.42365 0.0
C713 C 0.55855 0.82273 0.41967 0.0
C714 C 0.6465 0.91 0.41061 0.0
N715 N 0.56335 0.73825 0.41771 0.0
C716 C 0.53081 0.76414 0.42252 0.0
C717 C 0.47989 0.64848 0.43386 0.0
C718 C 0.44435 0.67356 0.43534 0.0
C719 C 0.53991 0.68185 0.42595 0.0
C720 C 0.46997 0.73227 0.4305 0.0
H721 H 0.39748 0.64756 0.44046 0.0
O722 O 0.66658 0.75099 0.44755 0.0
O723 O 0.737 0.81253 0.36019 0.0
O724 O 0.63485 0.74123 0.30357 0.0
O725 O 0.602 0.71733 0.36464 0.0
O726 O 0.69053 0.73406 0.38562 0.0
O727 O 0.70131 0.84168 0.45086 0.0
O728 O 0.70671 0.88046 0.25674 0.0
O729 O 0.63775 0.81429 0.34436 0.0
O730 O 0.74924 0.8811 0.39701 0.0
O731 O 0.75695 0.91478 0.33735 0.0
O732 O 0.65163 0.87548 0.30716 0.0
O733 O 0.6671 0.78884 0.25252 0.0
C734 C 0.73903 0.76756 0.36844 0.0
C735 C 0.43656 0.75978 0.43231 0.0
C736 C 0.46443 0.81884 0.42812 0.0
C737 C 0.68917 0.79588 0.46906 0.0
C738 C 0.6627 0.79032 0.5063 0.0
C739 C 0.60136 0.76566 0.51099 0.0
C740 C 0.69951 0.81055 0.53783 0.0
C741 C 0.67505 0.80515 0.57351 0.0
C742 C 0.57711 0.7605 0.54632 0.0
C743 C 0.6137 0.77975 0.57754 0.0
C744 C 0.59963 0.70474 0.32871 0.0
C745 C 0.6177 0.84587 0.33389 0.0
C746 C 0.68147 0.83586 0.23495 0.0
C747 C 0.7059 0.84134 0.19709 0.0
C748 C 0.76505 0.88101 0.18918 0.0
C749 C 0.66864 0.80827 0.16784 0.0
C750 C 0.69078 0.81399 0.13151 0.0
C751 C 0.78768 0.8849 0.15349 0.0
C752 C 0.75075 0.85139 0.12468 0.0
C753 C 0.77454 0.92213 0.37213 0.0
H754 H 0.57184 0.75006 0.48769 0.0
H755 H 0.74695 0.82942 0.53475 0.0
H756 H 0.52971 0.74107 0.54949 0.0
H757 H 0.59423 0.77466 0.60484 0.0
H758 H 0.79352 0.91 0.2102 0.0
H759 H 0.62214 0.77946 0.17307 0.0
H760 H 0.83355 0.91527 0.14794 0.0
H761 H 0.76825 0.85653 0.09679 0.0
Gd762 Gd 0.20875 0.89326 0.30327 0.0
Gd763 Gd 0.22446 0.86115 0.39829 0.0
C764 C 0.35902 0.84514 0.46755 0.0
C765 C 0.30547 0.74543 0.48494 0.0
C766 C 0.2626 0.78218 0.44069 0.0
C767 C 0.3126 0.83561 0.44325 0.0
C768 C 0.2589 0.73634 0.46113 0.0
C769 C 0.35498 0.79988 0.48857 0.0
C770 C 0.40861 0.89977 0.46958 0.0
C771 C 0.41196 0.94255 0.44662 0.0
N772 N 0.31496 0.87873 0.42299 0.0
C773 C 0.36436 0.9313 0.42338 0.0
H774 H 0.36643 0.9654 0.40703 0.0
C775 C 0.16443 0.72489 0.41875 0.0
N776 N 0.21605 0.77593 0.4201 0.0
C777 C 0.15993 0.67755 0.43696 0.0
C778 C 0.20722 0.68339 0.45843 0.0
H779 H 0.1269 0.72079 0.4034 0.0
H780 H 0.3904 0.80635 0.50725 0.0
H781 H 0.08481 0.76444 0.29504 0.0
H782 H 0.44529 0.90879 0.48786 0.0
H783 H 0.45064 0.98454 0.44741 0.0
H784 H 0.30321 0.71085 0.50111 0.0
H785 H 0.27211 0.0296 0.27571 0.0
H786 H 0.9383 0.79287 0.2862 0.0
H787 H 0.97767 0.72676 0.29016 0.0
H788 H 0.02997 0.99576 0.27582 0.0
H789 H 0.1194 0.63702 0.43535 0.0
H790 H 0.20263 0.64725 0.47374 0.0
H791 H 0.95941 0.8942 0.28688 0.0
H792 H 0.2413 0.10102 0.26342 0.0
N793 N 0.1066 0.85128 0.29158 0.0
C794 C 0.98559 0.80958 0.2864 0.0
C795 C 1.00768 0.77217 0.28899 0.0
C796 C 0.02493 0.86812 0.28432 0.0
C797 C 0.08595 0.8877 0.28579 0.0
C798 C 0.06871 0.79385 0.29161 0.0
N799 N 0.18432 0.96207 0.28427 0.0
C800 C 0.12606 0.94501 0.2825 0.0
C801 C 0.20842 0.05728 0.26887 0.0
C802 C 0.14862 0.04129 0.27053 0.0
C803 C 0.22563 0.01672 0.27548 0.0
C804 C 0.10653 0.98437 0.27667 0.0
H805 H 0.13525 0.07281 0.2666 0.0
O806 O 0.25852 0.92989 0.25246 0.0
O807 O 0.27049 0.8823 0.34173 0.0
O808 O 0.27154 0.95684 0.39184 0.0
O809 O 0.22664 0.96937 0.33985 0.0
O810 O 0.30489 0.95456 0.31046 0.0
O811 O 0.19573 0.8401 0.2546 0.0
O812 O 0.16154 0.84254 0.44264 0.0
O813 O 0.16928 0.8773 0.35907 0.0
O814 O 0.18656 0.79956 0.30884 0.0
O815 O 0.22989 0.7946 0.36413 0.0
O816 O 0.12291 0.81188 0.39428 0.0
O817 O 0.25072 0.91295 0.44925 0.0
C818 C 0.31933 0.92522 0.33172 0.0
C819 C 0.04585 0.96572 0.27787 0.0
C820 C 1.00539 0.90782 0.28268 0.0
C821 C 0.23115 0.88239 0.23366 0.0
C822 C 0.20789 0.88473 0.19663 0.0
C823 C 0.16099 0.89588 0.19317 0.0
C824 C 0.23175 0.87451 0.1643 0.0
C825 C 0.2091 0.87581 0.12896 0.0
C826 C 0.13867 0.89742 0.15818 0.0
C827 C 0.16268 0.88759 0.12614 0.0
C828 C 0.25728 0.98839 0.37127 0.0
C829 C 0.1172 0.84257 0.3693 0.0
C830 C 0.19955 0.88159 0.46508 0.0
C831 C 0.19902 0.86321 0.50376 0.0
C832 C 0.19146 0.80905 0.51082 0.0
C833 C 0.19923 0.89685 0.53395 0.0
C834 C 0.19143 0.87582 0.57044 0.0
C835 C 0.1869 0.78957 0.54699 0.0
C836 C 0.18655 0.8226 0.5767 0.0
C837 C 0.20395 0.77265 0.33202 0.0
H838 H 0.1414 0.90318 0.21742 0.0
H839 H 0.26791 0.8657 0.16655 0.0
H840 H 0.10258 0.90622 0.15592 0.0
H841 H 0.14505 0.88907 0.0992 0.0
H842 H 0.18637 0.78052 0.48848 0.0
H843 H 0.20205 0.93754 0.52893 0.0
H844 H 0.18129 0.74778 0.55189 0.0
H845 H 0.18052 0.80583 0.60457 0.0
Gd846 Gd 0.81706 0.69478 0.73507 0.0
Gd847 Gd 0.79814 0.65534 0.63652 0.0
C848 C 0.66507 0.48494 0.58642 0.0
C849 C 0.72887 0.45314 0.55845 0.0
C850 C 0.77107 0.53959 0.59597 0.0
C851 C 0.71491 0.53144 0.60287 0.0
C852 C 0.77852 0.50022 0.57402 0.0
C853 C 0.6726 0.44638 0.56385 0.0
C854 C 0.60977 0.48104 0.59078 0.0
C855 C 0.60541 0.52371 0.61011 0.0
N856 N 0.70984 0.57295 0.62121 0.0
C857 C 0.65644 0.57034 0.62443 0.0
H858 H 0.65342 0.60508 0.63715 0.0
C859 C 0.87483 0.59979 0.60051 0.0
N860 N 0.81864 0.58814 0.60869 0.0
C861 C 0.88422 0.56091 0.58005 0.0
C862 C 0.83589 0.51109 0.56654 0.0
H863 H 0.91249 0.63894 0.60993 0.0
H864 H 0.63555 0.41243 0.54913 0.0
H865 H 0.93949 0.68313 0.71752 0.0
H866 H 0.57046 0.44643 0.5782 0.0
H867 H 0.56309 0.52172 0.61283 0.0
H868 H 0.73374 0.42305 0.54085 0.0
H869 H 0.76637 0.77984 0.76473 0.0
H870 H 0.08316 0.81354 0.77929 0.0
H871 H 0.04262 0.72897 0.73798 0.0
H872 H 1.00129 0.92131 0.8332 0.0
H873 H 0.92873 0.57 0.57399 0.0
H874 H 0.84337 0.48192 0.54967 0.0
H875 H 0.06545 0.88184 0.81733 0.0
H876 H 0.80128 0.86744 0.80246 0.0
N877 N 0.92048 0.74182 0.74585 0.0
C878 C 0.03771 0.79407 0.76988 0.0
C879 C 0.01492 0.74624 0.74671 0.0
C880 C 1.00156 0.81617 0.78069 0.0
C881 C 0.94292 0.78969 0.76729 0.0
C882 C 0.95583 0.72005 0.73534 0.0
N883 N 0.8498 0.7834 0.76465 0.0
C884 C 0.90628 0.81087 0.77717 0.0
C885 C 0.83139 0.85218 0.79542 0.0
C886 C 0.88916 0.88025 0.8091 0.0
C887 C 0.81206 0.80306 0.77363 0.0
C888 C 0.92726 0.8595 0.80026 0.0
H889 H 0.90373 0.91735 0.82689 0.0
O890 O 0.77385 0.68729 0.78857 0.0
O891 O 0.75428 0.62849 0.69402 0.0
O892 O 0.75031 0.70336 0.65008 0.0
O893 O 0.79719 0.75659 0.70304 0.0
O894 O 0.72216 0.66779 0.72899 0.0
O895 O 0.81179 0.63433 0.77627 0.0
O896 O 0.84698 0.70066 0.58728 0.0
O897 O 0.85191 0.719 0.67901 0.0
O898 O 0.8371 0.62193 0.72575 0.0
O899 O 0.81397 0.59097 0.66403 0.0
O900 O 0.8987 0.71606 0.63492 0.0
O901 O 0.75375 0.67212 0.59107 0.0
C902 C 0.70655 0.62565 0.70608 0.0
C903 C 0.98486 0.88483 0.81463 0.0
C904 C 0.02165 0.86275 0.80523 0.0
C905 C 0.78852 0.65145 0.8018 0.0
C906 C 0.81879 0.66583 0.83845 0.0
C907 C 0.88061 0.69868 0.84006 0.0
C908 C 0.78718 0.64448 0.87182 0.0
C909 C 0.81778 0.65649 0.90611 0.0
C910 C 0.91043 0.71366 0.87392 0.0
C911 C 0.8793 0.69286 0.9068 0.0
C912 C 0.76769 0.74903 0.67138 0.0
C913 C 0.90307 0.74234 0.66565 0.0
C914 C 0.80045 0.69459 0.56983 0.0
C915 C 0.79311 0.67344 0.53082 0.0
C916 C 0.75751 0.61528 0.52278 0.0
C917 C 0.82138 0.71112 0.50113 0.0
C918 C 0.81431 0.69004 0.46428 0.0
C919 C 0.75286 0.59413 0.48679 0.0
C920 C 0.78114 0.63123 0.45765 0.0
C921 C 0.83105 0.58712 0.69769 0.0
H922 H 0.90623 0.71113 0.81511 0.0
H923 H 0.73976 0.61622 0.8709 0.0
H924 H 0.95812 0.73964 0.87455 0.0
H925 H 0.90362 0.70287 0.93275 0.0
H926 H 0.73197 0.58616 0.54402 0.0
H927 H 0.84637 0.75657 0.50641 0.0
H928 H 0.72548 0.54899 0.4813 0.0
H929 H 0.77443 0.61436 0.42956 0.0
Gd930 Gd 0.32856 0.12985 0.73249 0.0
Gd931 Gd 0.37579 0.16619 0.63756 0.0
C932 C 0.49735 0.11221 0.58165 0.0
C933 C 0.57136 0.20112 0.55488 0.0
C934 C 0.49892 0.19981 0.59848 0.0
C935 C 0.47272 0.14132 0.60083 0.0
C936 C 0.54947 0.2304 0.57603 0.0
C937 C 0.54586 0.14223 0.5581 0.0
C938 C 0.47203 0.05356 0.58617 0.0
C939 C 0.42296 0.02513 0.60895 0.0
N940 N 0.42296 0.11282 0.62144 0.0
C941 C 0.39841 0.05518 0.6259 0.0
H942 H 0.35998 0.03119 0.64271 0.0
C943 C 0.49861 0.28457 0.61377 0.0
N944 N 0.47369 0.22663 0.61662 0.0
C945 C 0.55175 0.31669 0.59525 0.0
C946 C 0.57683 0.28963 0.57552 0.0
H947 H 0.47659 0.30691 0.6237 0.0
H948 H 0.56445 0.12036 0.54262 0.0
H949 H 0.35989 0.26695 0.73909 0.0
H950 H 0.49006 0.0299 0.57227 0.0
H951 H 0.40307 0.97969 0.61286 0.0
H952 H 0.60943 0.22395 0.53706 0.0
H953 H 0.23369 0.9953 0.75774 0.0
H954 H 0.19804 0.2668 0.7575 0.0
H955 H 0.30619 0.31934 0.74751 0.0
H956 H 0.0558 0.06898 0.76938 0.0
H957 H 0.57117 0.36215 0.59484 0.0
H958 H 0.61664 0.3146 0.55956 0.0
H959 H 0.10482 0.17252 0.76001 0.0
H960 H 0.12788 0.93661 0.77086 0.0
N961 N 0.28362 0.18525 0.74472 0.0
C962 C 0.22185 0.24363 0.75469 0.0
C963 C 0.28275 0.27336 0.74884 0.0
C964 C 0.19241 0.18426 0.75698 0.0
C965 C 0.22521 0.15607 0.75301 0.0
C966 C 0.31315 0.24334 0.74395 0.0
N967 N 0.23001 0.07159 0.75105 0.0
C968 C 0.19747 0.09748 0.75585 0.0
C969 C 0.14656 0.98181 0.7672 0.0
C970 C 0.11101 0.00689 0.76868 0.0
C971 C 0.20657 0.01519 0.75929 0.0
C972 C 0.13663 0.0656 0.76384 0.0
H973 H 0.06414 0.98089 0.77379 0.0
O974 O 0.33324 0.08434 0.78089 0.0
O975 O 0.40366 0.14588 0.69353 0.0
O976 O 0.30154 0.07456 0.63692 0.0
O977 O 0.26866 0.05067 0.69797 0.0
O978 O 0.3572 0.06742 0.71896 0.0
O979 O 0.36798 0.17503 0.7842 0.0
O980 O 0.37329 0.21378 0.59008 0.0
O981 O 0.30441 0.14763 0.6777 0.0
O982 O 0.41589 0.21446 0.73036 0.0
O983 O 0.42368 0.24812 0.67068 0.0
O984 O 0.31831 0.20884 0.64051 0.0
O985 O 0.33378 0.12216 0.58586 0.0
C986 C 0.40571 0.10092 0.70178 0.0
C987 C 0.10321 0.09311 0.76565 0.0
C988 C 0.13108 0.15217 0.76145 0.0
C989 C 0.35583 0.12922 0.80239 0.0
C990 C 0.32938 0.12366 0.83964 0.0
C991 C 0.26803 0.099 0.84434 0.0
C992 C 0.36618 0.14388 0.87117 0.0
C993 C 0.34173 0.13848 0.90685 0.0
C994 C 0.24379 0.09384 0.87966 0.0
C995 C 0.28039 0.11308 0.91089 0.0
C996 C 0.26631 0.03808 0.66205 0.0
C997 C 0.28436 0.17922 0.66722 0.0
C998 C 0.34809 0.16917 0.56829 0.0
C999 C 0.3725 0.17468 0.53043 0.0
C1000 C 0.43164 0.21438 0.52251 0.0
C1001 C 0.33525 0.1416 0.50119 0.0
C1002 C 0.35738 0.14734 0.46485 0.0
C1003 C 0.45427 0.2183 0.48682 0.0
C1004 C 0.41733 0.18478 0.45801 0.0
C1005 C 0.44122 0.25548 0.70548 0.0
H1006 H 0.23851 0.08341 0.82103 0.0
H1007 H 0.41362 0.16275 0.86808 0.0
H1008 H 0.19639 0.07441 0.88284 0.0
H1009 H 0.26092 0.10799 0.93819 0.0
H1010 H 0.4601 0.24338 0.54353 0.0
H1011 H 0.28876 0.11277 0.50641 0.0
H1012 H 0.50013 0.24869 0.48127 0.0
H1013 H 0.43483 0.18993 0.43012 0.0
Gd1014 Gd 0.87539 0.22657 0.63658 0.0
Gd1015 Gd 0.89111 0.19448 0.73161 0.0
C1016 C 0.02567 0.17847 0.80087 0.0
C1017 C 0.97211 0.07876 0.81827 0.0
C1018 C 0.92924 0.11551 0.77402 0.0
C1019 C 0.97925 0.16894 0.77657 0.0
C1020 C 0.92554 0.06967 0.79445 0.0
C1021 C 0.02163 0.13321 0.8219 0.0
C1022 C 0.07526 0.23309 0.8029 0.0
C1023 C 0.07861 0.27587 0.77994 0.0
N1024 N 0.98162 0.21205 0.7563 0.0
C1025 C 0.03102 0.26462 0.7567 0.0
H1026 H 0.03309 0.29873 0.74034 0.0
C1027 C 0.83107 0.05823 0.75208 0.0
N1028 N 0.88269 0.10926 0.75343 0.0
C1029 C 0.82657 0.01088 0.7703 0.0
C1030 C 0.87385 0.01672 0.79177 0.0
H1031 H 0.79354 0.05413 0.73674 0.0
H1032 H 0.05704 0.13968 0.84058 0.0
H1033 H 0.75156 0.09763 0.6284 0.0
H1034 H 0.11194 0.24211 0.82119 0.0
H1035 H 0.1173 0.31786 0.78073 0.0
H1036 H 0.96985 0.04418 0.83445 0.0
H1037 H 0.93851 0.36291 0.60903 0.0
H1038 H 0.60487 0.12577 0.61953 0.0
H1039 H 0.6444 0.0598 0.62353 0.0
H1040 H 0.69621 0.32862 0.60914 0.0
H1041 H 0.78603 0.97036 0.76869 0.0
H1042 H 0.86927 0.98059 0.80707 0.0
H1043 H 0.62578 0.22703 0.62021 0.0
H1044 H 0.90752 0.43419 0.59673 0.0
N1045 N 0.77322 0.18444 0.62491 0.0
C1046 C 0.65217 0.14255 0.61974 0.0
C1047 C 0.67435 0.10522 0.62235 0.0
C1048 C 0.69143 0.20111 0.61766 0.0
C1049 C 0.75247 0.22078 0.61912 0.0
C1050 C 0.7354 0.12699 0.62497 0.0
N1051 N 0.85079 0.29526 0.61759 0.0
C1052 C 0.7925 0.27811 0.61582 0.0
C1053 C 0.87471 0.39043 0.60218 0.0
C1054 C 0.81488 0.37433 0.60384 0.0
C1055 C 0.89202 0.34994 0.6088 0.0
C1056 C 0.77286 0.3174 0.60998 0.0
H1057 H 0.80143 0.4058 0.5999 0.0
O1058 O 0.92511 0.26329 0.58577 0.0
O1059 O 0.93714 0.21563 0.67505 0.0
O1060 O 0.93821 0.29018 0.72516 0.0
O1061 O 0.89334 0.30272 0.67315 0.0
O1062 O 0.97154 0.28788 0.64378 0.0
O1063 O 0.8625 0.17346 0.58791 0.0
O1064 O 0.82821 0.17588 0.77597 0.0
O1065 O 0.83595 0.21065 0.69239 0.0
O1066 O 0.85331 0.13291 0.64214 0.0
O1067 O 0.89653 0.12791 0.69746 0.0
O1068 O 0.78957 0.14523 0.72761 0.0
O1069 O 0.91739 0.24628 0.78257 0.0
C1070 C 0.98598 0.25855 0.66504 0.0
C1071 C 0.71217 0.29865 0.61118 0.0
C1072 C 0.67179 0.24072 0.61601 0.0
C1073 C 0.89783 0.21578 0.56698 0.0
C1074 C 0.87453 0.21806 0.52994 0.0
C1075 C 0.82755 0.22909 0.52649 0.0
C1076 C 0.89841 0.20787 0.49761 0.0
C1077 C 0.87571 0.20908 0.46228 0.0
C1078 C 0.80518 0.23054 0.4915 0.0
C1079 C 0.82921 0.22074 0.45946 0.0
C1080 C 0.92396 0.32173 0.70458 0.0
C1081 C 0.78386 0.17593 0.70263 0.0
C1082 C 0.86622 0.21494 0.7984 0.0
C1083 C 0.86569 0.19655 0.83709 0.0
C1084 C 0.85812 0.14239 0.84414 0.0
C1085 C 0.86591 0.23019 0.86727 0.0
C1086 C 0.85811 0.20916 0.90377 0.0
C1087 C 0.85357 0.12291 0.88031 0.0
C1088 C 0.85323 0.15594 0.91002 0.0
C1089 C 0.87064 0.10598 0.66534 0.0
H1090 H 0.80794 0.23636 0.55074 0.0
H1091 H 0.93463 0.19914 0.49987 0.0
H1092 H 0.76903 0.23925 0.48924 0.0
H1093 H 0.81154 0.22215 0.43252 0.0
H1094 H 0.85302 0.11385 0.8218 0.0
H1095 H 0.86874 0.27089 0.86226 0.0
H1096 H 0.84795 0.08111 0.88521 0.0
H1097 H 0.8472 0.13917 0.9379 0.0
loop_
_geom_bond_atom_site_label_1
_geom_bond_atom_site_label_2
_geom_bond_distance
_geom_bond_site_symmetry_2
_ccdc_geom_bond_type
H0 C1 0.949 . S
C1 H0 0.949 . S
C1 C2 1.395 . S
C1 C3 1.391 . S
C2 C1 1.395 . S
C2 C5 1.390 . S
C3 C1 1.391 . S
C3 C7 1.387 . S
C3 C8 1.491 . S
H4 C5 0.950 . S
C5 C2 1.390 . S
C5 H4 0.950 . S
C5 C6 1.378 . S
C6 C5 1.378 . S
C6 C7 1.409 . S
C7 C3 1.387 . S
C7 C6 1.409 . S
C7 H9 0.951 . S
C8 C3 1.491 . S
C8 C10 1.382 . S
C8 C12 1.404 . S
H9 C7 0.951 . S
C10 C8 1.382 . S
C10 C11 1.390 . S
C10 H15 0.949 . S
C11 C10 1.390 . S
C11 C16 1.399 . S
C12 C8 1.404 . S
C12 H13 0.950 . S
C12 C14 1.375 . S
H13 C12 0.950 . S
C14 C12 1.375 . S
C14 C16 1.382 . S
C14 H18 0.950 . S
H15 C10 0.949 . S
C16 C11 1.399 . S
C16 C14 1.382 . S
C16 H17 0.952 . S
H17 C16 0.952 . S
H18 C14 0.950 . S
H19 C20 0.949 . S
C20 H19 0.949 . S
C20 C21 1.395 . S
C20 C22 1.391 . S
C21 C20 1.395 . S
C21 C24 1.390 . S
C22 C20 1.391 . S
C22 C26 1.387 . S
C22 C27 1.491 . S
H23 C24 0.950 . S
C24 C21 1.390 . S
C24 H23 0.950 . S
C24 C25 1.378 . S
C25 C24 1.378 . S
C25 C26 1.409 . S
C26 C22 1.387 . S
C26 C25 1.409 . S
C26 H28 0.951 . S
C27 C22 1.491 . S
C27 C29 1.382 1_545 S
C27 C31 1.404 . S
H28 C26 0.951 . S
C29 C27 1.382 1_565 S
C29 C30 1.390 . S
C29 H34 0.949 . S
C30 C29 1.390 . S
C30 C35 1.399 . S
C31 C27 1.404 . S
C31 H32 0.950 . S
C31 C33 1.375 1_545 S
H32 C31 0.950 . S
C33 C31 1.375 1_565 S
C33 C35 1.382 . S
C33 H37 0.950 . S
H34 C29 0.949 . S
C35 C30 1.399 . S
C35 C33 1.382 . S
C35 H36 0.952 . S
H36 C35 0.952 . S
H37 C33 0.950 . S
H38 C39 0.949 . S
C39 H38 0.949 . S
C39 C40 1.395 . S
C39 C41 1.391 . S
C40 C39 1.395 . S
C40 C43 1.390 . S
C41 C39 1.391 . S
C41 C45 1.387 . S
C41 C46 1.491 . S
H42 C43 0.950 . S
C43 C40 1.390 . S
C43 H42 0.950 . S
C43 C44 1.378 . S
C44 C43 1.378 . S
C44 C45 1.409 . S
C45 C41 1.387 . S
C45 C44 1.409 . S
C45 H47 0.951 . S
C46 C41 1.491 . S
C46 C48 1.382 1_655 S
C46 C50 1.405 1_655 S
H47 C45 0.951 . S
C48 C46 1.382 1_455 S
C48 C49 1.390 . S
C48 H53 0.949 . S
C49 C48 1.390 . S
C49 C54 1.399 . S
C50 C46 1.405 1_455 S
C50 H51 0.942 1_455 S
C50 C52 1.381 . S
H51 C50 0.942 1_655 S
C52 C50 1.381 . S
C52 C54 1.382 . S
C52 H56 0.950 . S
H53 C48 0.949 . S
C54 C49 1.399 . S
C54 C52 1.382 . S
C54 H55 0.952 . S
H55 C54 0.952 . S
H56 C52 0.950 . S
H57 C58 0.949 . S
C58 H57 0.949 . S
C58 C59 1.395 . S
C58 C60 1.391 . S
C59 C58 1.395 . S
C59 C62 1.390 . S
C60 C58 1.391 . S
C60 C64 1.387 . S
C60 C65 1.491 . S
H61 C62 0.950 . S
C62 C59 1.390 . S
C62 H61 0.950 . S
C62 C63 1.378 . S
C63 C62 1.378 . S
C63 C64 1.409 . S
C64 C60 1.387 . S
C64 C63 1.409 . S
C64 H66 0.951 . S
C65 C60 1.491 . S
C65 C67 1.382 . S
C65 C69 1.404 . S
H66 C64 0.951 . S
C67 C65 1.382 . S
C67 C68 1.390 . S
C67 H72 0.949 . S
C68 C67 1.390 . S
C68 C73 1.399 . S
C69 C65 1.404 . S
C69 H70 0.950 . S
C69 C71 1.375 . S
H70 C69 0.950 . S
C71 C69 1.375 . S
C71 C73 1.382 . S
C71 H75 0.950 . S
H72 C67 0.949 . S
C73 C68 1.399 . S
C73 C71 1.382 . S
C73 H74 0.952 . S
H74 C73 0.952 . S
H75 C71 0.950 . S
H76 C77 0.949 . S
C77 H76 0.949 . S
C77 C78 1.395 . S
C77 C79 1.391 . S
C78 C77 1.395 . S
C78 C81 1.390 . S
C79 C77 1.391 . S
C79 C83 1.387 . S
C79 C84 1.491 . S
H80 C81 0.950 . S
C81 C78 1.390 . S
C81 H80 0.950 . S
C81 C82 1.378 . S
C82 C81 1.378 . S
C82 C83 1.409 . S
C83 C79 1.387 . S
C83 C82 1.409 . S
C83 H85 0.951 . S
C84 C79 1.491 . S
C84 C86 1.382 1_565 S
C84 C88 1.404 . S
H85 C83 0.951 . S
C86 C84 1.382 1_545 S
C86 C87 1.390 . S
C86 H91 0.949 . S
C87 C86 1.390 . S
C87 C92 1.399 . S
C88 C84 1.404 . S
C88 H89 0.950 . S
C88 C90 1.375 1_565 S
H89 C88 0.950 . S
C90 C88 1.375 1_545 S
C90 C92 1.382 . S
C90 H94 0.950 . S
H91 C86 0.949 . S
C92 C87 1.399 . S
C92 C90 1.382 . S
C92 H93 0.952 . S
H93 C92 0.952 . S
H94 C90 0.950 . S
H95 C96 0.949 . S
C96 H95 0.949 . S
C96 C97 1.395 . S
C96 C98 1.391 . S
C97 C96 1.395 . S
C97 C100 1.390 . S
C98 C96 1.391 . S
C98 C102 1.387 . S
C98 C103 1.491 . S
H99 C100 0.950 . S
C100 C97 1.390 . S
C100 H99 0.950 . S
C100 C101 1.378 . S
C101 C100 1.378 . S
C101 C102 1.409 . S
C102 C98 1.387 . S
C102 C101 1.409 . S
C102 H104 0.951 . S
C103 C98 1.491 . S
C103 C105 1.382 1_455 S
C103 C107 1.404 . S
H104 C102 0.951 . S
C105 C103 1.382 1_655 S
C105 C106 1.390 . S
C105 H110 0.949 . S
C106 C105 1.390 . S
C106 C111 1.399 . S
C107 C103 1.404 . S
C107 H108 0.950 . S
C107 C109 1.375 1_455 S
H108 C107 0.950 . S
C109 C107 1.375 1_655 S
C109 C111 1.382 . S
C109 H113 0.950 . S
H110 C105 0.949 . S
C111 C106 1.399 . S
C111 C109 1.382 . S
C111 H112 0.952 . S
H112 C111 0.952 . S
H113 C109 0.950 . S
H114 C115 0.949 . S
C115 H114 0.949 . S
C115 C116 1.395 . S
C115 C117 1.391 . S
C116 C115 1.395 . S
C116 C119 1.390 . S
C117 C115 1.391 . S
C117 C121 1.387 . S
C117 C122 1.491 . S
H118 C119 0.950 . S
C119 C116 1.390 . S
C119 H118 0.950 . S
C119 C120 1.378 . S
C120 C119 1.378 . S
C120 C121 1.409 . S
C121 C117 1.387 . S
C121 C120 1.409 . S
C121 H123 0.951 . S
C122 C117 1.491 . S
C122 C124 1.382 . S
C122 C126 1.404 . S
H123 C121 0.951 . S
C124 C122 1.382 . S
C124 C125 1.390 . S
C124 H129 0.949 . S
C125 C124 1.390 . S
C125 C130 1.399 . S
C126 C122 1.404 . S
C126 H127 0.950 . S
C126 C128 1.375 . S
H127 C126 0.950 . S
C128 C126 1.375 . S
C128 C130 1.382 . S
C128 H132 0.950 . S
H129 C124 0.949 . S
C130 C125 1.399 . S
C130 C128 1.382 . S
C130 H131 0.952 . S
H131 C130 0.952 . S
H132 C128 0.950 . S
H133 C134 0.949 . S
C134 H133 0.949 . S
C134 C135 1.395 . S
C134 C136 1.391 . S
C135 C134 1.395 . S
C135 C138 1.390 . S
C136 C134 1.391 . S
C136 C140 1.387 . S
C136 C141 1.491 . S
H137 C138 0.950 . S
C138 C135 1.390 . S
C138 H137 0.950 . S
C138 C139 1.378 . S
C139 C138 1.378 . S
C139 C140 1.409 . S
C140 C136 1.387 . S
C140 C139 1.409 . S
C140 H142 0.951 . S
C141 C136 1.491 . S
C141 C143 1.382 . S
C141 C145 1.404 . S
H142 C140 0.951 . S
C143 C141 1.382 . S
C143 C144 1.390 . S
C143 H148 0.949 . S
C144 C143 1.390 . S
C144 C149 1.399 . S
C145 C141 1.404 . S
C145 H146 0.950 . S
C145 C147 1.375 . S
H146 C145 0.950 . S
C147 C145 1.375 . S
C147 C149 1.382 . S
C147 H151 0.950 . S
H148 C143 0.949 . S
C149 C144 1.399 . S
C149 C147 1.382 . S
C149 H150 0.952 . S
H150 C149 0.952 . S
H151 C147 0.950 . S
H152 C153 0.949 . S
C153 H152 0.949 . S
C153 C154 1.395 . S
C153 C155 1.391 . S
C154 C153 1.395 . S
C154 C157 1.390 . S
C155 C153 1.391 . S
C155 C159 1.387 . S
C155 C160 1.491 . S
H156 C157 0.950 . S
C157 C154 1.390 . S
C157 H156 0.950 . S
C157 C158 1.378 . S
C158 C157 1.378 . S
C158 C159 1.409 . S
C159 C155 1.387 . S
C159 C158 1.409 . S
C159 H161 0.951 . S
C160 C155 1.491 . S
C160 C162 1.382 . S
C160 C164 1.404 . S
H161 C159 0.951 . S
C162 C160 1.382 . S
C162 C163 1.390 . S
C162 H167 0.949 . S
C163 C162 1.390 . S
C163 C168 1.399 . S
C164 C160 1.404 . S
C164 H165 0.950 . S
C164 C166 1.375 . S
H165 C164 0.950 . S
C166 C164 1.375 . S
C166 C168 1.382 . S
C166 H170 0.950 . S
H167 C162 0.949 . S
C168 C163 1.399 . S
C168 C166 1.382 . S
C168 H169 0.952 . S
H169 C168 0.952 . S
H170 C166 0.950 . S
H171 C172 0.949 . S
C172 H171 0.949 . S
C172 C173 1.395 . S
C172 C174 1.391 . S
C173 C172 1.395 . S
C173 C176 1.390 . S
C174 C172 1.391 . S
C174 C178 1.387 . S
C174 C179 1.491 . S
H175 C176 0.950 . S
C176 C173 1.390 . S
C176 H175 0.950 . S
C176 C177 1.378 . S
C177 C176 1.378 . S
C177 C178 1.409 . S
C178 C174 1.387 . S
C178 C177 1.409 . S
C178 H180 0.951 1_556 S
C179 C174 1.491 . S
C179 C181 1.382 . S
C179 C183 1.404 1_556 S
H180 C178 0.951 1_554 S
C181 C179 1.382 . S
C181 C182 1.390 . S
C181 H186 0.949 . S
C182 C181 1.390 . S
C182 C187 1.399 1_556 S
C183 C179 1.404 1_554 S
C183 H184 0.950 . S
C183 C185 1.375 . S
H184 C183 0.950 . S
C185 C183 1.375 . S
C185 C187 1.382 . S
C185 H189 0.950 . S
H186 C181 0.949 . S
C187 C182 1.399 1_554 S
C187 C185 1.382 . S
C187 H188 0.952 . S
H188 C187 0.952 . S
H189 C185 0.950 . S
H190 C191 0.949 . S
C191 H190 0.949 . S
C191 C192 1.395 . S
C191 C193 1.391 . S
C192 C191 1.395 . S
C192 C195 1.390 . S
C193 C191 1.391 . S
C193 C197 1.387 . S
C193 C198 1.491 . S
H194 C195 0.950 . S
C195 C192 1.390 . S
C195 H194 0.950 . S
C195 C196 1.378 . S
C196 C195 1.378 . S
C196 C197 1.409 . S
C197 C193 1.387 . S
C197 C196 1.409 . S
C197 H199 0.951 1_556 S
C198 C193 1.491 . S
C198 C200 1.382 . S
C198 C202 1.404 1_556 S
H199 C197 0.951 1_554 S
C200 C198 1.382 . S
C200 C201 1.390 1_556 S
C200 H205 0.949 . S
C201 C200 1.390 1_554 S
C201 C206 1.399 . S
C202 C198 1.404 1_554 S
C202 H203 0.950 . S
C202 C204 1.375 . S
H203 C202 0.950 . S
C204 C202 1.375 . S
C204 C206 1.382 . S
C204 H208 0.950 . S
H205 C200 0.949 . S
C206 C201 1.399 . S
C206 C204 1.382 . S
C206 H207 0.952 . S
H207 C206 0.952 . S
H208 C204 0.950 . S
H209 C210 0.949 . S
C210 H209 0.949 . S
C210 C211 1.395 . S
C210 C212 1.391 . S
C211 C210 1.395 . S
C211 C214 1.390 . S
C212 C210 1.391 . S
C212 C216 1.387 . S
C212 C217 1.491 . S
H213 C214 0.950 . S
C214 C211 1.390 . S
C214 H213 0.950 . S
C214 C215 1.378 . S
C215 C214 1.378 . S
C215 C216 1.409 . S
C216 C212 1.387 . S
C216 C215 1.409 . S
C216 H218 0.951 1_556 S
C217 C212 1.491 . S
C217 C219 1.382 . S
C217 C221 1.404 1_556 S
H218 C216 0.951 1_554 S
C219 C217 1.382 . S
C219 C220 1.390 1_556 S
C219 H224 0.949 . S
C220 C219 1.390 1_554 S
C220 C225 1.399 . S
C221 C217 1.404 1_554 S
C221 H222 0.950 . S
C221 C223 1.375 . S
H222 C221 0.950 . S
C223 C221 1.375 . S
C223 C225 1.382 . S
C223 H227 0.950 . S
H224 C219 0.949 . S
C225 C220 1.399 . S
C225 C223 1.382 . S
C225 H226 0.952 . S
H226 C225 0.952 . S
H227 C223 0.950 . S
H228 C229 0.949 . S
C229 H228 0.949 . S
C229 C230 1.395 . S
C229 C231 1.391 . S
C230 C229 1.395 . S
C230 C233 1.390 . S
C231 C229 1.391 . S
C231 C235 1.387 . S
C231 C236 1.491 . S
H232 C233 0.950 . S
C233 C230 1.390 . S
C233 H232 0.950 . S
C233 C234 1.378 . S
C234 C233 1.378 . S
C234 C235 1.409 . S
C235 C231 1.387 . S
C235 C234 1.409 . S
C235 H237 0.977 . S
C236 C231 1.491 . S
C236 C238 1.382 . S
C236 C240 1.404 . S
H237 C235 0.977 . S
C238 C236 1.382 . S
C238 C239 1.390 . S
C238 H243 0.949 . S
C239 C238 1.390 . S
C239 C244 1.399 1_554 S
C240 C236 1.404 . S
C240 H241 0.948 1_554 S
C240 C242 1.375 1_554 S
H241 C240 0.948 1_556 S
C242 C240 1.375 1_556 S
C242 C244 1.382 . S
C242 H246 0.950 . S
H243 C238 0.949 . S
C244 C239 1.399 1_556 S
C244 C242 1.382 . S
C244 H245 0.952 . S
H245 C244 0.952 . S
H246 C242 0.950 . S
H247 C248 0.949 . S
C248 H247 0.949 . S
C248 C249 1.395 . S
C248 C250 1.391 . S
C249 C248 1.395 . S
C249 C252 1.390 . S
C250 C248 1.391 . S
C250 C254 1.387 . S
C250 C255 1.491 . S
H251 C252 0.950 . S
C252 C249 1.390 . S
C252 H251 0.950 . S
C252 C253 1.378 . S
C253 C252 1.378 . S
C253 C254 1.409 . S
C254 C250 1.387 . S
C254 C253 1.409 . S
C254 H256 0.951 . S
C255 C250 1.491 . S
C255 C257 1.382 . S
C255 C259 1.404 . S
H256 C254 0.951 . S
C257 C255 1.382 . S
C257 C258 1.390 . S
C257 H262 0.949 . S
C258 C257 1.390 . S
C258 C263 1.399 1_554 S
C259 C255 1.404 . S
C259 H260 0.950 . S
C259 C261 1.375 1_554 S
H260 C259 0.950 . S
C261 C259 1.375 1_556 S
C261 C263 1.382 . S
C261 H265 0.950 . S
H262 C257 0.949 . S
C263 C258 1.399 1_556 S
C263 C261 1.382 . S
C263 H264 0.952 . S
H264 C263 0.952 . S
H265 C261 0.950 . S
H266 C267 0.949 . S
C267 H266 0.949 . S
C267 C268 1.395 . S
C267 C269 1.391 . S
C268 C267 1.395 . S
C268 C271 1.390 . S
C269 C267 1.391 . S
C269 C273 1.387 . S
C269 C274 1.491 . S
H270 C271 0.950 . S
C271 C268 1.390 . S
C271 H270 0.950 . S
C271 C272 1.378 . S
C272 C271 1.378 . S
C272 C273 1.409 . S
C273 C269 1.387 . S
C273 C272 1.409 . S
C273 H275 0.951 . S
C274 C269 1.491 . S
C274 C276 1.382 . S
C274 C278 1.404 . S
H275 C273 0.951 . S
C276 C274 1.382 . S
C276 C277 1.390 . S
C276 H281 0.949 . S
C277 C276 1.390 . S
C277 C282 1.407 . S
C278 C274 1.404 . S
C278 H279 0.950 . S
C278 C280 1.375 1_554 S
H279 C278 0.950 . S
C280 C278 1.375 1_556 S
C280 C282 1.381 1_556 S
C280 H284 0.950 . S
H281 C276 0.949 . S
C282 C277 1.407 . S
C282 C280 1.381 1_554 S
C282 H283 0.946 1_554 S
H283 C282 0.946 1_556 S
H284 C280 0.950 . S
H285 C286 0.949 . S
C286 H285 0.949 . S
C286 C287 1.395 . S
C286 C288 1.391 . S
C287 C286 1.395 . S
C287 C290 1.390 . S
C288 C286 1.391 . S
C288 C292 1.387 . S
C288 C293 1.491 . S
H289 C290 0.950 . S
C290 C287 1.390 . S
C290 H289 0.950 . S
C290 C291 1.378 . S
C291 C290 1.378 . S
C291 C292 1.409 . S
C292 C288 1.387 . S
C292 C291 1.409 . S
C292 H294 0.951 . S
C293 C288 1.491 . S
C293 C295 1.382 . S
C293 C297 1.404 . S
H294 C292 0.951 . S
C295 C293 1.382 . S
C295 C296 1.390 . S
C295 H300 0.949 . S
C296 C295 1.390 . S
C296 C301 1.399 . S
C297 C293 1.404 . S
C297 H298 0.950 . S
C297 C299 1.375 . S
H298 C297 0.950 . S
C299 C297 1.375 . S
C299 C301 1.382 . S
C299 H303 0.950 . S
H300 C295 0.949 . S
C301 C296 1.399 . S
C301 C299 1.382 . S
C301 H302 0.952 . S
H302 C301 0.952 . S
H303 C299 0.950 . S
H304 C305 0.949 . S
C305 H304 0.949 . S
C305 C306 1.395 . S
C305 C307 1.391 . S
C306 C305 1.395 . S
C306 C309 1.390 . S
C307 C305 1.391 . S
C307 C311 1.387 . S
C307 C312 1.491 . S
H308 C309 0.950 . S
C309 C306 1.390 . S
C309 H308 0.950 . S
C309 C310 1.378 . S
C310 C309 1.378 . S
C310 C311 1.409 . S
C311 C307 1.387 . S
C311 C310 1.409 . S
C311 H313 0.951 . S
C312 C307 1.491 . S
C312 C314 1.382 . S
C312 C316 1.404 . S
H313 C311 0.951 . S
C314 C312 1.382 . S
C314 C315 1.390 . S
C314 H319 0.949 . S
C315 C314 1.390 . S
C315 C320 1.399 . S
C316 C312 1.404 . S
C316 H317 0.950 . S
C316 C318 1.375 . S
H317 C316 0.950 . S
C318 C316 1.375 . S
C318 C320 1.382 . S
C318 H322 0.950 . S
H319 C314 0.949 . S
C320 C315 1.399 . S
C320 C318 1.382 . S
C320 H321 0.952 . S
H321 C320 0.952 . S
H322 C318 0.950 . S
H323 C324 0.949 . S
C324 H323 0.949 . S
C324 C325 1.395 . S
C324 C326 1.391 . S
C325 C324 1.395 . S
C325 C328 1.390 . S
C326 C324 1.391 . S
C326 C330 1.387 . S
C326 C331 1.491 . S
H327 C328 0.950 . S
C328 C325 1.390 . S
C328 H327 0.950 . S
C328 C329 1.378 . S
C329 C328 1.378 . S
C329 C330 1.409 . S
C330 C326 1.387 . S
C330 C329 1.409 . S
C330 H332 0.951 . S
C331 C326 1.491 . S
C331 C333 1.382 . S
C331 C335 1.404 . S
H332 C330 0.951 . S
C333 C331 1.382 . S
C333 C334 1.390 . S
C333 H338 0.949 . S
C334 C333 1.390 . S
C334 C339 1.399 . S
C335 C331 1.404 . S
C335 H336 0.950 . S
C335 C337 1.375 . S
H336 C335 0.950 . S
C337 C335 1.375 . S
C337 C339 1.382 . S
C337 H341 0.950 . S
H338 C333 0.949 . S
C339 C334 1.399 . S
C339 C337 1.382 . S
C339 H340 0.952 . S
H340 C339 0.952 . S
H341 C337 0.950 . S
Gd342 N373 2.661 . S
Gd342 N379 2.601 . S
Gd342 O386 2.545 . S
Gd342 O387 2.606 1_545 S
Gd342 O389 2.429 . S
Gd342 O390 2.545 1_545 S
Gd342 O391 2.412 1_545 S
Gd342 O393 2.362 . S
Gd342 O394 2.324 1_545 S
Gd342 C401 2.828 . S
Gd343 N352 2.661 . S
Gd343 N356 2.601 . S
Gd343 O387 2.362 1_556 S
Gd343 O388 2.324 1_565 S
Gd343 O392 2.545 . S
Gd343 O393 2.606 1_566 S
Gd343 O395 2.429 . S
Gd343 O396 2.545 1_565 S
Gd343 O397 2.412 1_565 S
Gd343 C410 2.827 1_565 S
C344 C347 1.417 . S
C344 C349 1.431 . S
C344 C350 1.412 . S
C345 C348 1.437 . S
C345 C349 1.317 . S
C345 H364 0.929 . S
C346 C347 1.426 . S
C346 C348 1.413 . S
C346 N356 1.359 . S
C347 C344 1.417 . S
C347 C346 1.426 . S
C347 N352 1.350 . S
C348 C345 1.437 . S
C348 C346 1.413 . S
C348 C358 1.391 . S
C349 C344 1.431 . S
C349 C345 1.317 . S
C349 H360 0.930 . S
C350 C344 1.412 . S
C350 C351 1.355 . S
C350 H362 0.930 . S
C351 C350 1.355 . S
C351 C353 1.402 . S
C351 H363 0.930 . S
N352 Gd343 2.661 . S
N352 C347 1.350 . S
N352 C353 1.307 . S
C353 C351 1.402 . S
C353 N352 1.307 . S
C353 H354 0.930 . S
H354 C353 0.930 . S
C355 N356 1.334 . S
C355 C357 1.394 . S
C355 H359 0.930 . S
N356 Gd343 2.601 . S
N356 C346 1.359 . S
N356 C355 1.334 . S
C357 C355 1.394 . S
C357 C358 1.359 . S
C357 H369 0.930 . S
C358 C348 1.391 . S
C358 C357 1.359 . S
C358 H370 0.929 . S
H359 C355 0.930 . S
H360 C349 0.930 . S
H361 C378 0.930 . S
H362 C350 0.930 . S
H363 C351 0.930 . S
H364 C345 0.929 . S
H365 C383 0.930 . S
H366 C374 0.930 . S
H367 C375 0.930 . S
H368 C399 0.929 . S
H369 C357 0.930 . S
H370 C358 0.929 . S
H371 C400 0.930 . S
H372 C381 0.930 . S
N373 Gd342 2.661 . S
N373 C377 1.350 . S
N373 C378 1.307 . S
C374 H366 0.930 . S
C374 C375 1.355 . S
C374 C376 1.412 . S
C375 H367 0.930 . S
C375 C374 1.355 . S
C375 C378 1.402 . S
C376 C374 1.412 . S
C376 C377 1.417 . S
C376 C400 1.431 . S
C377 N373 1.350 . S
C377 C376 1.417 . S
C377 C380 1.426 . S
C378 H361 0.930 . S
C378 N373 1.307 . S
C378 C375 1.402 . S
N379 Gd342 2.601 . S
N379 C380 1.359 . S
N379 C383 1.334 . S
C380 C377 1.426 . S
C380 N379 1.359 . S
C380 C384 1.413 . S
C381 H372 0.930 . S
C381 C382 1.359 . S
C381 C383 1.394 . S
C382 C381 1.359 . S
C382 C384 1.391 . S
C382 H385 0.929 . S
C383 H365 0.930 . S
C383 N379 1.334 . S
C383 C381 1.394 . S
C384 C380 1.413 . S
C384 C382 1.391 . S
C384 C399 1.437 . S
H385 C382 0.929 . S
O386 Gd342 2.545 . S
O386 C401 1.258 . S
O387 Gd342 2.606 1_565 S
O387 Gd343 2.362 1_554 S
O387 C398 1.284 . S
O388 Gd343 2.324 1_545 S
O388 C408 1.254 . S
O389 Gd342 2.429 . S
O389 C408 1.268 1_554 S
O390 Gd342 2.545 1_565 S
O390 C398 1.250 . S
O391 Gd342 2.412 1_565 S
O391 C401 1.252 1_565 S
O392 Gd343 2.545 . S
O392 C410 1.248 1_565 S
O393 Gd342 2.362 . S
O393 Gd343 2.606 1_544 S
O393 C409 1.284 1_554 S
O394 Gd342 2.324 1_565 S
O394 C417 1.254 . S
O395 Gd343 2.429 . S
O395 C417 1.268 1_556 S
O396 Gd343 2.545 1_545 S
O396 C409 1.250 . S
O397 Gd343 2.412 1_545 S
O397 C410 1.260 . S
C398 O387 1.284 . S
C398 O390 1.250 . S
C399 H368 0.929 . S
C399 C384 1.437 . S
C399 C400 1.317 . S
C400 H371 0.930 . S
C400 C376 1.431 . S
C400 C399 1.317 . S
C401 Gd342 2.828 . S
C401 O386 1.258 . S
C401 O391 1.252 1_545 S
C401 C402 1.497 1_545 S
C402 C401 1.497 1_565 S
C402 C403 1.395 1_565 S
C402 C404 1.380 . S
C403 C402 1.395 1_545 S
C403 C406 1.398 . S
C403 H418 0.930 . S
C404 C402 1.380 . S
C404 C405 1.391 . S
C404 H419 0.930 . S
C405 C404 1.391 . S
C405 C407 1.387 . S
C406 C403 1.398 . S
C406 C407 1.380 1_545 S
C406 H420 0.930 . S
C407 C405 1.387 . S
C407 C406 1.380 1_565 S
C407 H421 0.930 . S
C408 O388 1.254 . S
C408 O389 1.268 1_556 S
C409 O393 1.284 1_556 S
C409 O396 1.250 . S
C410 Gd343 2.827 1_545 S
C410 O392 1.248 1_545 S
C410 O397 1.260 . S
C410 C411 1.499 . S
C411 C410 1.499 . S
C411 C412 1.395 1_545 S
C411 C413 1.380 . S
C412 C411 1.395 1_565 S
C412 C415 1.398 . S
C412 H422 0.930 . S
C413 C411 1.380 . S
C413 C414 1.391 . S
C413 H423 0.930 . S
C414 C413 1.391 . S
C414 C416 1.387 . S
C415 C412 1.398 . S
C415 C416 1.380 1_565 S
C415 H424 0.930 . S
C416 C414 1.387 . S
C416 C415 1.380 1_545 S
C416 H425 0.930 . S
C417 O394 1.254 . S
C417 O395 1.268 1_554 S
H418 C403 0.930 . S
H419 C404 0.930 . S
H420 C406 0.930 . S
H421 C407 0.930 . S
H422 C412 0.930 . S
H423 C413 0.930 . S
H424 C415 0.930 . S
H425 C416 0.930 . S
Gd426 N457 2.661 . S
Gd426 N463 2.601 . S
Gd426 O470 2.545 . S
Gd426 O471 2.606 1_655 S
Gd426 O473 2.429 . S
Gd426 O474 2.545 1_655 S
Gd426 O475 2.412 1_655 S
Gd426 O477 2.362 . S
Gd426 O478 2.324 1_655 S
Gd426 C485 2.828 . S
Gd427 N436 2.661 . S
Gd427 N440 2.601 . S
Gd427 O471 2.362 1_556 S
Gd427 O472 2.324 1_455 S
Gd427 O476 2.545 . S
Gd427 O477 2.606 1_456 S
Gd427 O479 2.429 . S
Gd427 O480 2.545 1_455 S
Gd427 O481 2.412 1_455 S
Gd427 C494 2.828 . S
C428 C431 1.417 . S
C428 C433 1.431 . S
C428 C434 1.412 . S
C429 C432 1.437 . S
C429 C433 1.317 . S
C429 H448 0.929 . S
C430 C431 1.426 . S
C430 C432 1.413 . S
C430 N440 1.359 . S
C431 C428 1.417 . S
C431 C430 1.426 . S
C431 N436 1.350 . S
C432 C429 1.437 . S
C432 C430 1.413 . S
C432 C442 1.391 . S
C433 C428 1.431 . S
C433 C429 1.317 . S
C433 H444 0.930 . S
C434 C428 1.412 . S
C434 C435 1.355 . S
C434 H446 0.930 . S
C435 C434 1.355 . S
C435 C437 1.402 . S
C435 H447 0.930 . S
N436 Gd427 2.661 . S
N436 C431 1.350 . S
N436 C437 1.307 . S
C437 C435 1.402 . S
C437 N436 1.307 . S
C437 H438 0.930 . S
H438 C437 0.930 . S
C439 N440 1.334 . S
C439 C441 1.394 . S
C439 H443 0.930 . S
N440 Gd427 2.601 . S
N440 C430 1.359 . S
N440 C439 1.334 . S
C441 C439 1.394 . S
C441 C442 1.359 . S
C441 H453 0.930 . S
C442 C432 1.391 . S
C442 C441 1.359 . S
C442 H454 0.929 . S
H443 C439 0.930 . S
H444 C433 0.930 . S
H445 C462 0.930 . S
H446 C434 0.930 . S
H447 C435 0.930 . S
H448 C429 0.929 . S
H449 C467 0.930 . S
H450 C458 0.930 . S
H451 C459 0.930 . S
H452 C483 0.929 . S
H453 C441 0.930 . S
H454 C442 0.929 . S
H455 C484 0.930 . S
H456 C465 0.930 . S
N457 Gd426 2.661 . S
N457 C461 1.350 . S
N457 C462 1.307 . S
C458 H450 0.930 . S
C458 C459 1.355 . S
C458 C460 1.412 . S
C459 H451 0.930 . S
C459 C458 1.355 . S
C459 C462 1.402 . S
C460 C458 1.412 . S
C460 C461 1.417 . S
C460 C484 1.431 . S
C461 N457 1.350 . S
C461 C460 1.417 . S
C461 C464 1.426 . S
C462 H445 0.930 . S
C462 N457 1.307 . S
C462 C459 1.402 . S
N463 Gd426 2.601 . S
N463 C464 1.359 . S
N463 C467 1.334 . S
C464 C461 1.426 . S
C464 N463 1.359 . S
C464 C468 1.413 . S
C465 H456 0.930 . S
C465 C466 1.359 . S
C465 C467 1.394 . S
C466 C465 1.359 . S
C466 C468 1.391 . S
C466 H469 0.929 . S
C467 H449 0.930 . S
C467 N463 1.334 . S
C467 C465 1.394 . S
C468 C464 1.413 . S
C468 C466 1.391 . S
C468 C483 1.437 . S
H469 C466 0.929 . S
O470 Gd426 2.545 . S
O470 C485 1.258 . S
O471 Gd426 2.606 1_455 S
O471 Gd427 2.362 1_554 S
O471 C482 1.284 . S
O472 Gd427 2.324 1_655 S
O472 C492 1.254 . S
O473 Gd426 2.429 . S
O473 C492 1.268 1_554 S
O474 Gd426 2.545 1_455 S
O474 C482 1.250 . S
O475 Gd426 2.412 1_455 S
O475 C485 1.252 1_455 S
O476 Gd427 2.545 . S
O476 C494 1.258 . S
O477 Gd426 2.362 . S
O477 Gd427 2.606 1_654 S
O477 C493 1.284 1_554 S
O478 Gd426 2.324 1_455 S
O478 C501 1.254 . S
O479 Gd427 2.429 . S
O479 C501 1.268 1_556 S
O480 Gd427 2.545 1_655 S
O480 C493 1.250 . S
O481 Gd427 2.412 1_655 S
O481 C494 1.252 1_655 S
C482 O471 1.284 . S
C482 O474 1.250 . S
C483 H452 0.929 . S
C483 C468 1.437 . S
C483 C484 1.317 . S
C484 H455 0.930 . S
C484 C460 1.431 . S
C484 C483 1.317 . S
C485 Gd426 2.828 . S
C485 O470 1.258 . S
C485 O475 1.252 1_655 S
C485 C486 1.497 1_655 S
C486 C485 1.497 1_455 S
C486 C487 1.395 1_455 S
C486 C488 1.380 . S
C487 C486 1.395 1_655 S
C487 C490 1.398 . S
C487 H502 0.930 . S
C488 C486 1.380 . S
C488 C489 1.391 . S
C488 H503 0.930 . S
C489 C488 1.391 . S
C489 C491 1.387 . S
C490 C487 1.398 . S
C490 C491 1.380 1_655 S
C490 H504 0.930 . S
C491 C489 1.387 . S
C491 C490 1.380 1_455 S
C491 H505 0.930 . S
C492 O472 1.254 . S
C492 O473 1.268 1_556 S
C493 O477 1.284 1_556 S
C493 O480 1.250 . S
C494 Gd427 2.828 . S
C494 O476 1.258 . S
C494 O481 1.252 1_455 S
C494 C495 1.497 1_455 S
C495 C494 1.497 1_655 S
C495 C496 1.395 1_655 S
C495 C497 1.380 . S
C496 C495 1.395 1_455 S
C496 C499 1.398 . S
C496 H506 0.930 . S
C497 C495 1.380 . S
C497 C498 1.391 . S
C497 H507 0.930 . S
C498 C497 1.391 . S
C498 C500 1.387 . S
C499 C496 1.398 . S
C499 C500 1.380 1_455 S
C499 H508 0.930 . S
C500 C498 1.387 . S
C500 C499 1.380 1_655 S
C500 H509 0.930 . S
C501 O478 1.254 . S
C501 O479 1.268 1_554 S
H502 C487 0.930 . S
H503 C488 0.930 . S
H504 C490 0.930 . S
H505 C491 0.930 . S
H506 C496 0.930 . S
H507 C497 0.930 . S
H508 C499 0.930 . S
H509 C500 0.930 . S
Gd510 N541 2.661 . S
Gd510 N547 2.601 . S
Gd510 O554 2.545 . S
Gd510 O555 2.606 1_556 S
Gd510 O557 2.429 . S
Gd510 O558 2.545 . S
Gd510 O559 2.412 . S
Gd510 O561 2.362 1_556 S
Gd510 O562 2.324 . S
Gd510 C569 2.828 . S
Gd511 N520 2.661 . S
Gd511 N524 2.601 . S
Gd511 O555 2.362 . S
Gd511 O556 2.324 . S
Gd511 O560 2.545 . S
Gd511 O561 2.606 . S
Gd511 O563 2.429 . S
Gd511 O564 2.545 . S
Gd511 O565 2.412 . S
Gd511 C578 2.828 . S
C512 C515 1.417 . S
C512 C517 1.431 . S
C512 C518 1.412 . S
C513 C516 1.437 . S
C513 C517 1.317 . S
C513 H532 0.929 . S
C514 C515 1.426 . S
C514 C516 1.413 . S
C514 N524 1.359 . S
C515 C512 1.417 . S
C515 C514 1.426 . S
C515 N520 1.350 . S
C516 C513 1.437 . S
C516 C514 1.413 . S
C516 C526 1.391 . S
C517 C512 1.431 . S
C517 C513 1.317 . S
C517 H528 0.930 . S
C518 C512 1.412 . S
C518 C519 1.355 . S
C518 H530 0.930 . S
C519 C518 1.355 . S
C519 C521 1.402 . S
C519 H531 0.930 . S
N520 Gd511 2.661 . S
N520 C515 1.350 . S
N520 C521 1.307 . S
C521 C519 1.402 . S
C521 N520 1.307 . S
C521 H522 0.930 . S
H522 C521 0.930 . S
C523 N524 1.334 . S
C523 C525 1.394 . S
C523 H527 0.930 . S
N524 Gd511 2.601 . S
N524 C514 1.359 . S
N524 C523 1.334 . S
C525 C523 1.394 . S
C525 C526 1.359 . S
C525 H537 0.930 . S
C526 C516 1.391 . S
C526 C525 1.359 . S
C526 H538 0.929 . S
H527 C523 0.930 . S
H528 C517 0.930 . S
H529 C546 0.930 . S
H530 C518 0.930 . S
H531 C519 0.930 . S
H532 C513 0.929 . S
H533 C551 0.930 . S
H534 C542 0.930 . S
H535 C543 0.930 . S
H536 C567 0.929 . S
H537 C525 0.930 . S
H538 C526 0.929 . S
H539 C568 0.930 . S
H540 C549 0.930 . S
N541 Gd510 2.661 . S
N541 C545 1.350 . S
N541 C546 1.307 . S
C542 H534 0.930 . S
C542 C543 1.355 . S
C542 C544 1.412 . S
C543 H535 0.930 . S
C543 C542 1.355 . S
C543 C546 1.402 . S
C544 C542 1.412 . S
C544 C545 1.417 . S
C544 C568 1.431 . S
C545 N541 1.350 . S
C545 C544 1.417 . S
C545 C548 1.426 . S
C546 H529 0.930 . S
C546 N541 1.307 . S
C546 C543 1.402 . S
N547 Gd510 2.601 . S
N547 C548 1.359 . S
N547 C551 1.334 . S
C548 C545 1.426 . S
C548 N547 1.359 . S
C548 C552 1.413 . S
C549 H540 0.930 . S
C549 C550 1.359 . S
C549 C551 1.394 . S
C550 C549 1.359 . S
C550 C552 1.391 . S
C550 H553 0.929 . S
C551 H533 0.930 . S
C551 N547 1.334 . S
C551 C549 1.394 . S
C552 C548 1.413 . S
C552 C550 1.391 . S
C552 C567 1.437 . S
H553 C550 0.929 . S
O554 Gd510 2.545 . S
O554 C569 1.258 . S
O555 Gd510 2.606 1_554 S
O555 Gd511 2.362 . S
O555 C566 1.284 1_554 S
O556 Gd511 2.324 . S
O556 C576 1.254 . S
O557 Gd510 2.429 . S
O557 C576 1.268 1_556 S
O558 Gd510 2.545 . S
O558 C566 1.250 . S
O559 Gd510 2.412 . S
O559 C569 1.252 . S
O560 Gd511 2.545 . S
O560 C578 1.258 . S
O561 Gd510 2.362 1_554 S
O561 Gd511 2.606 . S
O561 C577 1.284 . S
O562 Gd510 2.324 . S
O562 C585 1.254 . S
O563 Gd511 2.429 . S
O563 C585 1.268 1_554 S
O564 Gd511 2.545 . S
O564 C577 1.250 . S
O565 Gd511 2.412 . S
O565 C578 1.252 . S
C566 O555 1.284 1_556 S
C566 O558 1.250 . S
C567 H536 0.929 . S
C567 C552 1.437 . S
C567 C568 1.317 . S
C568 H539 0.930 . S
C568 C544 1.431 . S
C568 C567 1.317 . S
C569 Gd510 2.828 . S
C569 O554 1.258 . S
C569 O559 1.252 . S
C569 C570 1.497 . S
C570 C569 1.497 . S
C570 C571 1.395 . S
C570 C572 1.380 . S
C571 C570 1.395 . S
C571 C574 1.398 . S
C571 H586 0.930 . S
C572 C570 1.380 . S
C572 C573 1.391 . S
C572 H587 0.930 . S
C573 C572 1.391 . S
C573 C575 1.387 . S
C574 C571 1.398 . S
C574 C575 1.380 . S
C574 H588 0.930 . S
C575 C573 1.387 . S
C575 C574 1.380 . S
C575 H589 0.930 . S
C576 O556 1.254 . S
C576 O557 1.268 1_554 S
C577 O561 1.284 . S
C577 O564 1.250 . S
C578 Gd511 2.828 . S
C578 O560 1.258 . S
C578 O565 1.252 . S
C578 C579 1.497 . S
C579 C578 1.497 . S
C579 C580 1.395 . S
C579 C581 1.380 . S
C580 C579 1.395 . S
C580 C583 1.398 . S
C580 H590 0.930 . S
C581 C579 1.380 . S
C581 C582 1.391 . S
C581 H591 0.930 . S
C582 C581 1.391 . S
C582 C584 1.387 . S
C583 C580 1.398 . S
C583 C584 1.380 . S
C583 H592 0.930 . S
C584 C582 1.387 . S
C584 C583 1.380 . S
C584 H593 0.930 . S
C585 O562 1.254 . S
C585 O563 1.268 1_556 S
H586 C571 0.930 . S
H587 C572 0.930 . S
H588 C574 0.930 . S
H589 C575 0.930 . S
H590 C580 0.930 . S
H591 C581 0.930 . S
H592 C583 0.930 . S
H593 C584 0.930 . S
Gd594 N625 2.661 . S
Gd594 N631 2.601 . S
Gd594 O638 2.545 . S
Gd594 O639 2.606 . S
Gd594 O641 2.429 . S
Gd594 O642 2.545 . S
Gd594 O643 2.412 . S
Gd594 O645 2.362 . S
Gd594 O646 2.324 . S
Gd594 C653 2.828 . S
Gd595 N604 2.661 1_455 S
Gd595 N608 2.601 . S
Gd595 O639 2.362 . S
Gd595 O640 2.324 . S
Gd595 O644 2.545 . S
Gd595 O645 2.606 . S
Gd595 O647 2.429 . S
Gd595 O648 2.545 . S
Gd595 O649 2.412 . S
Gd595 C662 2.828 . S
C596 C599 1.417 . S
C596 C601 1.431 . S
C596 C602 1.412 . S
C597 C600 1.437 . S
C597 C601 1.317 . S
C597 H616 0.929 . S
C598 C599 1.426 . S
C598 C600 1.413 . S
C598 N608 1.359 1_655 S
C599 C596 1.417 . S
C599 C598 1.426 . S
C599 N604 1.350 . S
C600 C597 1.437 . S
C600 C598 1.413 . S
C600 C610 1.391 . S
C601 C596 1.431 . S
C601 C597 1.317 . S
C601 H612 0.930 . S
C602 C596 1.412 . S
C602 C603 1.355 . S
C602 H614 0.930 . S
C603 C602 1.355 . S
C603 C605 1.402 . S
C603 H615 0.930 . S
N604 Gd595 2.661 1_655 S
N604 C599 1.350 . S
N604 C605 1.307 . S
C605 C603 1.402 . S
C605 N604 1.307 . S
C605 H606 0.930 . S
H606 C605 0.930 . S
C607 N608 1.334 . S
C607 C609 1.394 . S
C607 H611 0.930 . S
N608 Gd595 2.601 . S
N608 C598 1.359 1_455 S
N608 C607 1.334 . S
C609 C607 1.394 . S
C609 C610 1.359 1_455 S
C609 H621 0.930 . S
C610 C600 1.391 . S
C610 C609 1.359 1_655 S
C610 H622 0.929 . S
H611 C607 0.930 . S
H612 C601 0.930 . S
H613 C630 0.930 . S
H614 C602 0.930 . S
H615 C603 0.930 . S
H616 C597 0.929 . S
H617 C635 0.930 . S
H618 C626 0.930 . S
H619 C627 0.930 . S
H620 C651 0.929 . S
H621 C609 0.930 . S
H622 C610 0.929 . S
H623 C652 0.930 . S
H624 C633 0.930 . S
N625 Gd594 2.661 . S
N625 C629 1.350 . S
N625 C630 1.307 . S
C626 H618 0.930 . S
C626 C627 1.355 . S
C626 C628 1.412 . S
C627 H619 0.930 . S
C627 C626 1.355 . S
C627 C630 1.402 . S
C628 C626 1.412 . S
C628 C629 1.417 . S
C628 C652 1.431 . S
C629 N625 1.350 . S
C629 C628 1.417 . S
C629 C632 1.426 . S
C630 H613 0.930 . S
C630 N625 1.307 . S
C630 C627 1.402 . S
N631 Gd594 2.601 . S
N631 C632 1.359 . S
N631 C635 1.334 . S
C632 C629 1.426 . S
C632 N631 1.359 . S
C632 C636 1.413 . S
C633 H624 0.930 . S
C633 C634 1.359 . S
C633 C635 1.394 . S
C634 C633 1.359 . S
C634 C636 1.391 . S
C634 H637 0.929 . S
C635 H617 0.930 . S
C635 N631 1.334 . S
C635 C633 1.394 . S
C636 C632 1.413 . S
C636 C634 1.391 . S
C636 C651 1.437 . S
H637 C634 0.929 . S
O638 Gd594 2.545 . S
O638 C653 1.258 . S
O639 Gd594 2.606 . S
O639 Gd595 2.362 . S
O639 C650 1.284 . S
O640 Gd595 2.324 . S
O640 C660 1.254 . S
O641 Gd594 2.429 . S
O641 C660 1.268 . S
O642 Gd594 2.545 . S
O642 C650 1.250 . S
O643 Gd594 2.412 . S
O643 C653 1.252 . S
O644 Gd595 2.545 . S
O644 C662 1.258 . S
O645 Gd594 2.362 . S
O645 Gd595 2.606 . S
O645 C661 1.284 . S
O646 Gd594 2.324 . S
O646 C669 1.254 . S
O647 Gd595 2.429 . S
O647 C669 1.268 . S
O648 Gd595 2.545 . S
O648 C661 1.250 . S
O649 Gd595 2.412 . S
O649 C662 1.252 . S
C650 O639 1.284 . S
C650 O642 1.250 . S
C651 H620 0.929 . S
C651 C636 1.437 . S
C651 C652 1.317 . S
C652 H623 0.930 . S
C652 C628 1.431 . S
C652 C651 1.317 . S
C653 Gd594 2.828 . S
C653 O638 1.258 . S
C653 O643 1.252 . S
C653 C654 1.497 . S
C654 C653 1.497 . S
C654 C655 1.395 . S
C654 C656 1.380 . S
C655 C654 1.395 . S
C655 C658 1.398 . S
C655 H670 0.930 . S
C656 C654 1.380 . S
C656 C657 1.391 . S
C656 H671 0.930 . S
C657 C656 1.391 . S
C657 C659 1.387 . S
C658 C655 1.398 . S
C658 C659 1.380 . S
C658 H672 0.930 . S
C659 C657 1.387 . S
C659 C658 1.380 . S
C659 H673 0.930 . S
C660 O640 1.254 . S
C660 O641 1.268 . S
C661 O645 1.284 . S
C661 O648 1.250 . S
C662 Gd595 2.828 . S
C662 O644 1.258 . S
C662 O649 1.252 . S
C662 C663 1.497 . S
C663 C662 1.497 . S
C663 C664 1.395 . S
C663 C665 1.380 . S
C664 C663 1.395 . S
C664 C667 1.398 . S
C664 H674 0.930 . S
C665 C663 1.380 . S
C665 C666 1.391 . S
C665 H675 0.930 . S
C666 C665 1.391 . S
C666 C668 1.387 . S
C667 C664 1.398 . S
C667 C668 1.380 . S
C667 H676 0.930 . S
C668 C666 1.387 . S
C668 C667 1.380 . S
C668 H677 0.930 . S
C669 O646 1.254 . S
C669 O647 1.268 . S
H670 C655 0.930 . S
H671 C656 0.930 . S
H672 C658 0.930 . S
H673 C659 0.930 . S
H674 C664 0.930 . S
H675 C665 0.930 . S
H676 C667 0.930 . S
H677 C668 0.930 . S
Gd678 N709 2.661 . S
Gd678 N715 2.601 . S
Gd678 O722 2.545 . S
Gd678 O723 2.606 . S
Gd678 O725 2.429 . S
Gd678 O726 2.545 . S
Gd678 O727 2.412 . S
Gd678 O729 2.362 . S
Gd678 O730 2.324 . S
Gd678 C737 2.828 . S
Gd679 N688 2.661 . S
Gd679 N692 2.601 . S
Gd679 O723 2.362 . S
Gd679 O724 2.324 . S
Gd679 O728 2.545 . S
Gd679 O729 2.606 . S
Gd679 O731 2.429 . S
Gd679 O732 2.545 . S
Gd679 O733 2.412 . S
Gd679 C746 2.828 . S
C680 C683 1.417 . S
C680 C685 1.431 . S
C680 C686 1.412 . S
C681 C684 1.437 . S
C681 C685 1.317 . S
C681 H700 0.929 . S
C682 C683 1.426 . S
C682 C684 1.413 . S
C682 N692 1.359 . S
C683 C680 1.417 . S
C683 C682 1.426 . S
C683 N688 1.350 . S
C684 C681 1.437 . S
C684 C682 1.413 . S
C684 C694 1.391 . S
C685 C680 1.431 . S
C685 C681 1.317 . S
C685 H696 0.930 . S
C686 C680 1.412 . S
C686 C687 1.355 . S
C686 H698 0.930 . S
C687 C686 1.355 . S
C687 C689 1.402 . S
C687 H699 0.930 . S
N688 Gd679 2.661 . S
N688 C683 1.350 . S
N688 C689 1.307 . S
C689 C687 1.402 . S
C689 N688 1.307 . S
C689 H690 0.930 . S
H690 C689 0.930 . S
C691 N692 1.334 . S
C691 C693 1.394 . S
C691 H695 0.930 . S
N692 Gd679 2.601 . S
N692 C682 1.359 . S
N692 C691 1.334 . S
C693 C691 1.394 . S
C693 C694 1.359 . S
C693 H705 0.930 . S
C694 C684 1.391 . S
C694 C693 1.359 . S
C694 H706 0.929 . S
H695 C691 0.930 . S
H696 C685 0.930 . S
H697 C714 0.930 . S
H698 C686 0.930 . S
H699 C687 0.930 . S
H700 C681 0.929 . S
H701 C719 0.930 . S
H702 C710 0.930 . S
H703 C711 0.930 . S
H704 C735 0.929 . S
H705 C693 0.930 . S
H706 C694 0.929 . S
H707 C736 0.930 . S
H708 C717 0.930 . S
N709 Gd678 2.661 . S
N709 C713 1.350 . S
N709 C714 1.307 . S
C710 H702 0.930 . S
C710 C711 1.355 . S
C710 C712 1.412 . S
C711 H703 0.930 . S
C711 C710 1.355 . S
C711 C714 1.402 . S
C712 C710 1.412 . S
C712 C713 1.417 . S
C712 C736 1.431 . S
C713 N709 1.350 . S
C713 C712 1.417 . S
C713 C716 1.426 . S
C714 H697 0.930 . S
C714 N709 1.307 . S
C714 C711 1.402 . S
N715 Gd678 2.601 . S
N715 C716 1.359 . S
N715 C719 1.334 . S
C716 C713 1.426 . S
C716 N715 1.359 . S
C716 C720 1.413 . S
C717 H708 0.930 . S
C717 C718 1.359 . S
C717 C719 1.394 . S
C718 C717 1.359 . S
C718 C720 1.391 . S
C718 H721 0.929 . S
C719 H701 0.930 . S
C719 N715 1.334 . S
C719 C717 1.394 . S
C720 C716 1.413 . S
C720 C718 1.391 . S
C720 C735 1.437 . S
H721 C718 0.929 . S
O722 Gd678 2.545 . S
O722 C737 1.258 . S
O723 Gd678 2.606 . S
O723 Gd679 2.362 . S
O723 C734 1.284 . S
O724 Gd679 2.324 . S
O724 C744 1.254 . S
O725 Gd678 2.429 . S
O725 C744 1.268 . S
O726 Gd678 2.545 . S
O726 C734 1.250 . S
O727 Gd678 2.412 . S
O727 C737 1.252 . S
O728 Gd679 2.545 . S
O728 C746 1.258 . S
O729 Gd678 2.362 . S
O729 Gd679 2.606 . S
O729 C745 1.284 . S
O730 Gd678 2.324 . S
O730 C753 1.254 . S
O731 Gd679 2.429 . S
O731 C753 1.268 . S
O732 Gd679 2.545 . S
O732 C745 1.250 . S
O733 Gd679 2.412 . S
O733 C746 1.252 . S
C734 O723 1.284 . S
C734 O726 1.250 . S
C735 H704 0.929 . S
C735 C720 1.437 . S
C735 C736 1.317 . S
C736 H707 0.930 . S
C736 C712 1.431 . S
C736 C735 1.317 . S
C737 Gd678 2.828 . S
C737 O722 1.258 . S
C737 O727 1.252 . S
C737 C738 1.497 . S
C738 C737 1.497 . S
C738 C739 1.395 . S
C738 C740 1.380 . S
C739 C738 1.395 . S
C739 C742 1.398 . S
C739 H754 0.930 . S
C740 C738 1.380 . S
C740 C741 1.391 . S
C740 H755 0.930 . S
C741 C740 1.391 . S
C741 C743 1.387 . S
C742 C739 1.398 . S
C742 C743 1.380 . S
C742 H756 0.930 . S
C743 C741 1.387 . S
C743 C742 1.380 . S
C743 H757 0.930 . S
C744 O724 1.254 . S
C744 O725 1.268 . S
C745 O729 1.284 . S
C745 O732 1.250 . S
C746 Gd679 2.828 . S
C746 O728 1.258 . S
C746 O733 1.252 . S
C746 C747 1.497 . S
C747 C746 1.497 . S
C747 C748 1.395 . S
C747 C749 1.380 . S
C748 C747 1.395 . S
C748 C751 1.398 . S
C748 H758 0.930 . S
C749 C747 1.380 . S
C749 C750 1.391 . S
C749 H759 0.930 . S
C750 C749 1.391 . S
C750 C752 1.387 . S
C751 C748 1.398 . S
C751 C752 1.380 . S
C751 H760 0.930 . S
C752 C750 1.387 . S
C752 C751 1.380 . S
C752 H761 0.930 . S
C753 O730 1.254 . S
C753 O731 1.268 . S
H754 C739 0.930 . S
H755 C740 0.930 . S
H756 C742 0.930 . S
H757 C743 0.930 . S
H758 C748 0.930 . S
H759 C749 0.930 . S
H760 C751 0.930 . S
H761 C752 0.930 . S
Gd762 N793 2.661 . S
Gd762 N799 2.601 . S
Gd762 O806 2.545 . S
Gd762 O807 2.606 . S
Gd762 O809 2.429 1_565 S
Gd762 O810 2.545 . S
Gd762 O811 2.412 . S
Gd762 O813 2.362 . S
Gd762 O814 2.324 . S
Gd762 C821 2.828 . S
Gd763 N772 2.661 . S
Gd763 N776 2.601 . S
Gd763 O807 2.362 . S
Gd763 O808 2.324 . S
Gd763 O812 2.545 . S
Gd763 O813 2.606 . S
Gd763 O815 2.429 . S
Gd763 O816 2.545 . S
Gd763 O817 2.412 . S
Gd763 C830 2.828 . S
C764 C767 1.417 . S
C764 C769 1.431 . S
C764 C770 1.412 1_565 S
C765 C768 1.437 . S
C765 C769 1.317 . S
C765 H784 0.929 . S
C766 C767 1.426 . S
C766 C768 1.413 . S
C766 N776 1.359 . S
C767 C764 1.417 . S
C767 C766 1.426 . S
C767 N772 1.350 . S
C768 C765 1.437 . S
C768 C766 1.413 . S
C768 C778 1.391 . S
C769 C764 1.431 . S
C769 C765 1.317 . S
C769 H780 0.930 . S
C770 C764 1.412 1_545 S
C770 C771 1.355 . S
C770 H782 0.930 . S
C771 C770 1.355 . S
C771 C773 1.402 . S
C771 H783 0.930 . S
N772 Gd763 2.661 . S
N772 C767 1.350 . S
N772 C773 1.307 1_565 S
C773 C771 1.402 . S
C773 N772 1.307 1_545 S
C773 H774 0.930 . S
H774 C773 0.930 . S
C775 N776 1.334 . S
C775 C777 1.394 . S
C775 H779 0.930 . S
N776 Gd763 2.601 . S
N776 C766 1.359 . S
N776 C775 1.334 . S
C777 C775 1.394 . S
C777 C778 1.359 . S
C777 H789 0.930 . S
C778 C768 1.391 . S
C778 C777 1.359 . S
C778 H790 0.929 . S
H779 C775 0.930 . S
H780 C769 0.930 . S
H781 C798 0.930 . S
H782 C770 0.930 . S
H783 C771 0.930 . S
H784 C765 0.929 . S
H785 C803 0.930 . S
H786 C794 0.930 . S
H787 C795 0.930 . S
H788 C819 0.929 . S
H789 C777 0.930 . S
H790 C778 0.929 . S
H791 C820 0.930 . S
H792 C801 0.930 . S
N793 Gd762 2.661 . S
N793 C797 1.350 . S
N793 C798 1.307 . S
C794 H786 0.930 . S
C794 C795 1.355 1_655 S
C794 C796 1.412 1_655 S
C795 H787 0.930 . S
C795 C794 1.355 1_455 S
C795 C798 1.402 . S
C796 C794 1.412 1_455 S
C796 C797 1.417 . S
C796 C820 1.431 1_455 S
C797 N793 1.350 . S
C797 C796 1.417 . S
C797 C800 1.426 . S
C798 H781 0.930 . S
C798 N793 1.307 . S
C798 C795 1.402 . S
N799 Gd762 2.601 . S
N799 C800 1.359 . S
N799 C803 1.334 1_565 S
C800 C797 1.426 . S
C800 N799 1.359 . S
C800 C804 1.413 . S
C801 H792 0.930 . S
C801 C802 1.359 . S
C801 C803 1.394 . S
C802 C801 1.359 . S
C802 C804 1.391 1_545 S
C802 H805 0.929 . S
C803 H785 0.930 . S
C803 N799 1.334 1_545 S
C803 C801 1.394 . S
C804 C800 1.413 . S
C804 C802 1.391 1_565 S
C804 C819 1.437 . S
H805 C802 0.929 . S
O806 Gd762 2.545 . S
O806 C821 1.258 . S
O807 Gd762 2.606 . S
O807 Gd763 2.362 . S
O807 C818 1.284 . S
O808 Gd763 2.324 . S
O808 C828 1.254 1_565 S
O809 Gd762 2.429 1_545 S
O809 C828 1.268 . S
O810 Gd762 2.545 . S
O810 C818 1.250 . S
O811 Gd762 2.412 . S
O811 C821 1.252 . S
O812 Gd763 2.545 . S
O812 C830 1.258 . S
O813 Gd762 2.362 . S
O813 Gd763 2.606 . S
O813 C829 1.284 . S
O814 Gd762 2.324 . S
O814 C837 1.254 . S
O815 Gd763 2.429 . S
O815 C837 1.268 . S
O816 Gd763 2.545 . S
O816 C829 1.250 . S
O817 Gd763 2.412 . S
O817 C830 1.252 . S
C818 O807 1.284 . S
C818 O810 1.250 . S
C819 H788 0.929 . S
C819 C804 1.437 . S
C819 C820 1.317 1_455 S
C820 H791 0.930 . S
C820 C796 1.431 1_655 S
C820 C819 1.317 1_655 S
C821 Gd762 2.828 . S
C821 O806 1.258 . S
C821 O811 1.252 . S
C821 C822 1.497 . S
C822 C821 1.497 . S
C822 C823 1.395 . S
C822 C824 1.380 . S
C823 C822 1.395 . S
C823 C826 1.398 . S
C823 H838 0.930 . S
C824 C822 1.380 . S
C824 C825 1.391 . S
C824 H839 0.930 . S
C825 C824 1.391 . S
C825 C827 1.387 . S
C826 C823 1.398 . S
C826 C827 1.380 . S
C826 H840 0.930 . S
C827 C825 1.387 . S
C827 C826 1.380 . S
C827 H841 0.930 . S
C828 O808 1.254 1_545 S
C828 O809 1.268 . S
C829 O813 1.284 . S
C829 O816 1.250 . S
C830 Gd763 2.828 . S
C830 O812 1.258 . S
C830 O817 1.252 . S
C830 C831 1.497 . S
C831 C830 1.497 . S
C831 C832 1.395 . S
C831 C833 1.380 . S
C832 C831 1.395 . S
C832 C835 1.398 . S
C832 H842 0.930 . S
C833 C831 1.380 . S
C833 C834 1.391 . S
C833 H843 0.930 . S
C834 C833 1.391 . S
C834 C836 1.387 . S
C835 C832 1.398 . S
C835 C836 1.380 . S
C835 H844 0.930 . S
C836 C834 1.387 . S
C836 C835 1.380 . S
C836 H845 0.930 . S
C837 O814 1.254 . S
C837 O815 1.268 . S
H838 C823 0.930 . S
H839 C824 0.930 . S
H840 C826 0.930 . S
H841 C827 0.930 . S
H842 C832 0.930 . S
H843 C833 0.930 . S
H844 C835 0.930 . S
H845 C836 0.930 . S
Gd846 N877 2.661 . S
Gd846 N883 2.601 . S
Gd846 O890 2.545 . S
Gd846 O891 2.606 . S
Gd846 O893 2.429 . S
Gd846 O894 2.545 . S
Gd846 O895 2.412 . S
Gd846 O897 2.362 . S
Gd846 O898 2.324 . S
Gd846 C905 2.828 . S
Gd847 N856 2.661 . S
Gd847 N860 2.601 . S
Gd847 O891 2.362 . S
Gd847 O892 2.324 . S
Gd847 O896 2.545 . S
Gd847 O897 2.606 . S
Gd847 O899 2.429 . S
Gd847 O900 2.545 . S
Gd847 O901 2.412 . S
Gd847 C914 2.828 . S
C848 C851 1.417 . S
C848 C853 1.431 . S
C848 C854 1.412 . S
C849 C852 1.437 . S
C849 C853 1.317 . S
C849 H868 0.929 . S
C850 C851 1.426 . S
C850 C852 1.413 . S
C850 N860 1.359 . S
C851 C848 1.417 . S
C851 C850 1.426 . S
C851 N856 1.350 . S
C852 C849 1.437 . S
C852 C850 1.413 . S
C852 C862 1.391 . S
C853 C848 1.431 . S
C853 C849 1.317 . S
C853 H864 0.930 . S
C854 C848 1.412 . S
C854 C855 1.355 . S
C854 H866 0.930 . S
C855 C854 1.355 . S
C855 C857 1.402 . S
C855 H867 0.930 . S
N856 Gd847 2.661 . S
N856 C851 1.350 . S
N856 C857 1.307 . S
C857 C855 1.402 . S
C857 N856 1.307 . S
C857 H858 0.930 . S
H858 C857 0.930 . S
C859 N860 1.334 . S
C859 C861 1.394 . S
C859 H863 0.930 . S
N860 Gd847 2.601 . S
N860 C850 1.359 . S
N860 C859 1.334 . S
C861 C859 1.394 . S
C861 C862 1.359 . S
C861 H873 0.930 . S
C862 C852 1.391 . S
C862 C861 1.359 . S
C862 H874 0.929 . S
H863 C859 0.930 . S
H864 C853 0.930 . S
H865 C882 0.930 . S
H866 C854 0.930 . S
H867 C855 0.930 . S
H868 C849 0.929 . S
H869 C887 0.930 . S
H870 C878 0.930 . S
H871 C879 0.930 1_455 S
H872 C903 0.929 . S
H873 C861 0.930 . S
H874 C862 0.929 . S
H875 C904 0.930 . S
H876 C885 0.930 . S
N877 Gd846 2.661 . S
N877 C881 1.350 . S
N877 C882 1.307 . S
C878 H870 0.930 . S
C878 C879 1.355 1_455 S
C878 C880 1.412 1_455 S
C879 H871 0.930 1_655 S
C879 C878 1.355 1_655 S
C879 C882 1.402 . S
C880 C878 1.412 1_655 S
C880 C881 1.417 . S
C880 C904 1.431 1_655 S
C881 N877 1.350 . S
C881 C880 1.417 . S
C881 C884 1.426 . S
C882 H865 0.930 . S
C882 N877 1.307 . S
C882 C879 1.402 . S
N883 Gd846 2.601 . S
N883 C884 1.359 . S
N883 C887 1.334 . S
C884 C881 1.426 . S
C884 N883 1.359 . S
C884 C888 1.413 . S
C885 H876 0.930 . S
C885 C886 1.359 . S
C885 C887 1.394 . S
C886 C885 1.359 . S
C886 C888 1.391 . S
C886 H889 0.929 . S
C887 H869 0.930 . S
C887 N883 1.334 . S
C887 C885 1.394 . S
C888 C884 1.413 . S
C888 C886 1.391 . S
C888 C903 1.437 . S
H889 C886 0.929 . S
O890 Gd846 2.545 . S
O890 C905 1.258 . S
O891 Gd846 2.606 . S
O891 Gd847 2.362 . S
O891 C902 1.284 . S
O892 Gd847 2.324 . S
O892 C912 1.254 . S
O893 Gd846 2.429 . S
O893 C912 1.268 . S
O894 Gd846 2.545 . S
O894 C902 1.250 . S
O895 Gd846 2.412 . S
O895 C905 1.252 . S
O896 Gd847 2.545 . S
O896 C914 1.258 . S
O897 Gd846 2.362 . S
O897 Gd847 2.606 . S
O897 C913 1.284 . S
O898 Gd846 2.324 . S
O898 C921 1.254 . S
O899 Gd847 2.429 . S
O899 C921 1.268 . S
O900 Gd847 2.545 . S
O900 C913 1.250 . S
O901 Gd847 2.412 . S
O901 C914 1.252 . S
C902 O891 1.284 . S
C902 O894 1.250 . S
C903 H872 0.929 . S
C903 C888 1.437 . S
C903 C904 1.317 1_655 S
C904 H875 0.930 . S
C904 C880 1.431 1_455 S
C904 C903 1.317 1_455 S
C905 Gd846 2.828 . S
C905 O890 1.258 . S
C905 O895 1.252 . S
C905 C906 1.497 . S
C906 C905 1.497 . S
C906 C907 1.395 . S
C906 C908 1.380 . S
C907 C906 1.395 . S
C907 C910 1.398 . S
C907 H922 0.930 . S
C908 C906 1.380 . S
C908 C909 1.391 . S
C908 H923 0.930 . S
C909 C908 1.391 . S
C909 C911 1.387 . S
C910 C907 1.398 . S
C910 C911 1.380 . S
C910 H924 0.930 . S
C911 C909 1.387 . S
C911 C910 1.380 . S
C911 H925 0.930 . S
C912 O892 1.254 . S
C912 O893 1.268 . S
C913 O897 1.284 . S
C913 O900 1.250 . S
C914 Gd847 2.828 . S
C914 O896 1.258 . S
C914 O901 1.252 . S
C914 C915 1.497 . S
C915 C914 1.497 . S
C915 C916 1.395 . S
C915 C917 1.380 . S
C916 C915 1.395 . S
C916 C919 1.398 . S
C916 H926 0.930 . S
C917 C915 1.380 . S
C917 C918 1.391 . S
C917 H927 0.930 . S
C918 C917 1.391 . S
C918 C920 1.387 . S
C919 C916 1.398 . S
C919 C920 1.380 . S
C919 H928 0.930 . S
C920 C918 1.387 . S
C920 C919 1.380 . S
C920 H929 0.930 . S
C921 O898 1.254 . S
C921 O899 1.268 . S
H922 C907 0.930 . S
H923 C908 0.930 . S
H924 C910 0.930 . S
H925 C911 0.930 . S
H926 C916 0.930 . S
H927 C917 0.930 . S
H928 C919 0.930 . S
H929 C920 0.930 . S
Gd930 N961 2.661 . S
Gd930 N967 2.601 . S
Gd930 O974 2.545 . S
Gd930 O975 2.606 . S
Gd930 O977 2.429 . S
Gd930 O978 2.545 . S
Gd930 O979 2.412 . S
Gd930 O981 2.362 . S
Gd930 O982 2.324 . S
Gd930 C989 2.828 . S
Gd931 N940 2.661 . S
Gd931 N944 2.601 . S
Gd931 O975 2.362 . S
Gd931 O976 2.324 . S
Gd931 O980 2.545 . S
Gd931 O981 2.606 . S
Gd931 O983 2.429 . S
Gd931 O984 2.545 . S
Gd931 O985 2.412 . S
Gd931 C998 2.828 . S
C932 C935 1.417 . S
C932 C937 1.431 . S
C932 C938 1.412 1_545 S
C933 C936 1.437 . S
C933 C937 1.317 . S
C933 H952 0.929 . S
C934 C935 1.426 . S
C934 C936 1.413 . S
C934 N944 1.359 . S
C935 C932 1.417 . S
C935 C934 1.426 . S
C935 N940 1.350 . S
C936 C933 1.437 . S
C936 C934 1.413 . S
C936 C946 1.391 . S
C937 C932 1.431 . S
C937 C933 1.317 . S
C937 H948 0.930 . S
C938 C932 1.412 1_565 S
C938 C939 1.355 . S
C938 H950 0.930 . S
C939 C938 1.355 . S
C939 C941 1.402 1_565 S
C939 H951 0.930 . S
N940 Gd931 2.661 . S
N940 C935 1.350 . S
N940 C941 1.307 . S
C941 C939 1.402 1_545 S
C941 N940 1.307 . S
C941 H942 0.930 1_545 S
H942 C941 0.930 1_565 S
C943 N944 1.334 . S
C943 C945 1.394 . S
C943 H947 0.930 . S
N944 Gd931 2.601 . S
N944 C934 1.359 . S
N944 C943 1.334 . S
C945 C943 1.394 . S
C945 C946 1.359 . S
C945 H957 0.930 . S
C946 C936 1.391 . S
C946 C945 1.359 . S
C946 H958 0.929 . S
H947 C943 0.930 . S
H948 C937 0.930 . S
H949 C966 0.930 . S
H950 C938 0.930 . S
H951 C939 0.930 . S
H952 C933 0.929 . S
H953 C971 0.930 . S
H954 C962 0.930 . S
H955 C963 0.930 . S
H956 C987 0.929 . S
H957 C945 0.930 . S
H958 C946 0.929 . S
H959 C988 0.930 . S
H960 C969 0.930 . S
N961 Gd930 2.661 . S
N961 C965 1.350 . S
N961 C966 1.307 . S
C962 H954 0.930 . S
C962 C963 1.355 . S
C962 C964 1.412 . S
C963 H955 0.930 . S
C963 C962 1.355 . S
C963 C966 1.402 . S
C964 C962 1.412 . S
C964 C965 1.417 . S
C964 C988 1.431 . S
C965 N961 1.350 . S
C965 C964 1.417 . S
C965 C968 1.426 . S
C966 H949 0.930 . S
C966 N961 1.307 . S
C966 C963 1.402 . S
N967 Gd930 2.601 . S
N967 C968 1.359 . S
N967 C971 1.334 1_545 S
C968 C965 1.426 . S
C968 N967 1.359 . S
C968 C972 1.413 . S
C969 H960 0.930 . S
C969 C970 1.359 . S
C969 C971 1.394 . S
C970 C969 1.359 . S
C970 C972 1.391 1_565 S
C970 H973 0.929 . S
C971 H953 0.930 . S
C971 N967 1.334 1_565 S
C971 C969 1.394 . S
C972 C968 1.413 . S
C972 C970 1.391 1_545 S
C972 C987 1.437 . S
H973 C970 0.929 . S
O974 Gd930 2.545 . S
O974 C989 1.258 . S
O975 Gd930 2.606 . S
O975 Gd931 2.362 . S
O975 C986 1.284 . S
O976 Gd931 2.324 . S
O976 C996 1.254 1_545 S
O977 Gd930 2.429 . S
O977 C996 1.268 1_545 S
O978 Gd930 2.545 . S
O978 C986 1.250 . S
O979 Gd930 2.412 . S
O979 C989 1.252 . S
O980 Gd931 2.545 . S
O980 C998 1.258 . S
O981 Gd930 2.362 . S
O981 Gd931 2.606 . S
O981 C997 1.284 . S
O982 Gd930 2.324 . S
O982 C1005 1.254 . S
O983 Gd931 2.429 . S
O983 C1005 1.268 . S
O984 Gd931 2.545 . S
O984 C997 1.250 . S
O985 Gd931 2.412 . S
O985 C998 1.252 . S
C986 O975 1.284 . S
C986 O978 1.250 . S
C987 H956 0.929 . S
C987 C972 1.437 . S
C987 C988 1.317 . S
C988 H959 0.930 . S
C988 C964 1.431 . S
C988 C987 1.317 . S
C989 Gd930 2.828 . S
C989 O974 1.258 . S
C989 O979 1.252 . S
C989 C990 1.497 . S
C990 C989 1.497 . S
C990 C991 1.395 . S
C990 C992 1.380 . S
C991 C990 1.395 . S
C991 C994 1.398 . S
C991 H1006 0.930 . S
C992 C990 1.380 . S
C992 C993 1.391 . S
C992 H1007 0.930 . S
C993 C992 1.391 . S
C993 C995 1.387 . S
C994 C991 1.398 . S
C994 C995 1.380 . S
C994 H1008 0.930 . S
C995 C993 1.387 . S
C995 C994 1.380 . S
C995 H1009 0.930 . S
C996 O976 1.254 1_565 S
C996 O977 1.268 1_565 S
C997 O981 1.284 . S
C997 O984 1.250 . S
C998 Gd931 2.828 . S
C998 O980 1.258 . S
C998 O985 1.252 . S
C998 C999 1.497 . S
C999 C998 1.497 . S
C999 C1000 1.395 . S
C999 C1001 1.380 . S
C1000 C999 1.395 . S
C1000 C1003 1.398 . S
C1000 H1010 0.930 . S
C1001 C999 1.380 . S
C1001 C1002 1.391 . S
C1001 H1011 0.930 . S
C1002 C1001 1.391 . S
C1002 C1004 1.387 . S
C1003 C1000 1.398 . S
C1003 C1004 1.380 . S
C1003 H1012 0.930 . S
C1004 C1002 1.387 . S
C1004 C1003 1.380 . S
C1004 H1013 0.930 . S
C1005 O982 1.254 . S
C1005 O983 1.268 . S
H1006 C991 0.930 . S
H1007 C992 0.930 . S
H1008 C994 0.930 . S
H1009 C995 0.930 . S
H1010 C1000 0.930 . S
H1011 C1001 0.930 . S
H1012 C1003 0.930 . S
H1013 C1004 0.930 . S
Gd1014 N1045 2.661 . S
Gd1014 N1051 2.601 . S
Gd1014 O1058 2.545 . S
Gd1014 O1059 2.606 . S
Gd1014 O1061 2.429 . S
Gd1014 O1062 2.545 . S
Gd1014 O1063 2.412 . S
Gd1014 O1065 2.362 . S
Gd1014 O1066 2.324 . S
Gd1014 C1073 2.828 . S
Gd1015 N1024 2.661 1_655 S
Gd1015 N1028 2.601 . S
Gd1015 O1059 2.362 . S
Gd1015 O1060 2.324 . S
Gd1015 O1064 2.545 . S
Gd1015 O1065 2.606 . S
Gd1015 O1067 2.429 . S
Gd1015 O1068 2.545 . S
Gd1015 O1069 2.412 . S
Gd1015 C1082 2.828 . S
C1016 C1019 1.417 . S
C1016 C1021 1.431 . S
C1016 C1022 1.412 . S
C1017 C1020 1.437 . S
C1017 C1021 1.317 . S
C1017 H1036 0.929 . S
C1018 C1019 1.426 . S
C1018 C1020 1.413 . S
C1018 N1028 1.359 1_455 S
C1019 C1016 1.417 . S
C1019 C1018 1.426 . S
C1019 N1024 1.350 . S
C1020 C1017 1.437 . S
C1020 C1018 1.413 . S
C1020 C1030 1.391 . S
C1021 C1016 1.431 . S
C1021 C1017 1.317 . S
C1021 H1032 0.930 . S
C1022 C1016 1.412 . S
C1022 C1023 1.355 . S
C1022 H1034 0.930 . S
C1023 C1022 1.355 . S
C1023 C1025 1.402 . S
C1023 H1035 0.930 . S
N1024 Gd1015 2.661 1_455 S
N1024 C1019 1.350 . S
N1024 C1025 1.307 . S
C1025 C1023 1.402 . S
C1025 N1024 1.307 . S
C1025 H1026 0.930 . S
H1026 C1025 0.930 . S
C1027 N1028 1.334 . S
C1027 C1029 1.394 . S
C1027 H1031 0.930 . S
N1028 Gd1015 2.601 . S
N1028 C1018 1.359 1_655 S
N1028 C1027 1.334 . S
C1029 C1027 1.394 . S
C1029 C1030 1.359 1_655 S
C1029 H1041 0.930 . S
C1030 C1020 1.391 . S
C1030 C1029 1.359 1_455 S
C1030 H1042 0.929 . S
H1031 C1027 0.930 . S
H1032 C1021 0.930 . S
H1033 C1050 0.930 . S
H1034 C1022 0.930 . S
H1035 C1023 0.930 . S
H1036 C1017 0.929 . S
H1037 C1055 0.930 . S
H1038 C1046 0.930 . S
H1039 C1047 0.930 . S
H1040 C1071 0.929 . S
H1041 C1029 0.930 . S
H1042 C1030 0.929 . S
H1043 C1072 0.930 . S
H1044 C1053 0.930 . S
N1045 Gd1014 2.661 . S
N1045 C1049 1.350 . S
N1045 C1050 1.307 . S
C1046 H1038 0.930 . S
C1046 C1047 1.355 . S
C1046 C1048 1.412 . S
C1047 H1039 0.930 . S
C1047 C1046 1.355 . S
C1047 C1050 1.402 . S
C1048 C1046 1.412 . S
C1048 C1049 1.417 . S
C1048 C1072 1.431 . S
C1049 N1045 1.350 . S
C1049 C1048 1.417 . S
C1049 C1052 1.426 . S
C1050 H1033 0.930 . S
C1050 N1045 1.307 . S
C1050 C1047 1.402 . S
N1051 Gd1014 2.601 . S
N1051 C1052 1.359 . S
N1051 C1055 1.334 . S
C1052 C1049 1.426 . S
C1052 N1051 1.359 . S
C1052 C1056 1.413 . S
C1053 H1044 0.930 . S
C1053 C1054 1.359 . S
C1053 C1055 1.394 . S
C1054 C1053 1.359 . S
C1054 C1056 1.391 . S
C1054 H1057 0.929 . S
C1055 H1037 0.930 . S
C1055 N1051 1.334 . S
C1055 C1053 1.394 . S
C1056 C1052 1.413 . S
C1056 C1054 1.391 . S
C1056 C1071 1.437 . S
H1057 C1054 0.929 . S
O1058 Gd1014 2.545 . S
O1058 C1073 1.258 . S
O1059 Gd1014 2.606 . S
O1059 Gd1015 2.362 . S
O1059 C1070 1.284 . S
O1060 Gd1015 2.324 . S
O1060 C1080 1.254 . S
O1061 Gd1014 2.429 . S
O1061 C1080 1.268 . S
O1062 Gd1014 2.545 . S
O1062 C1070 1.250 . S
O1063 Gd1014 2.412 . S
O1063 C1073 1.252 . S
O1064 Gd1015 2.545 . S
O1064 C1082 1.258 . S
O1065 Gd1014 2.362 . S
O1065 Gd1015 2.606 . S
O1065 C1081 1.284 . S
O1066 Gd1014 2.324 . S
O1066 C1089 1.254 . S
O1067 Gd1015 2.429 . S
O1067 C1089 1.268 . S
O1068 Gd1015 2.545 . S
O1068 C1081 1.250 . S
O1069 Gd1015 2.412 . S
O1069 C1082 1.252 . S
C1070 O1059 1.284 . S
C1070 O1062 1.250 . S
C1071 H1040 0.929 . S
C1071 C1056 1.437 . S
C1071 C1072 1.317 . S
C1072 H1043 0.930 . S
C1072 C1048 1.431 . S
C1072 C1071 1.317 . S
C1073 Gd1014 2.828 . S
C1073 O1058 1.258 . S
C1073 O1063 1.252 . S
C1073 C1074 1.497 . S
C1074 C1073 1.497 . S
C1074 C1075 1.395 . S
C1074 C1076 1.380 . S
C1075 C1074 1.395 . S
C1075 C1078 1.398 . S
C1075 H1090 0.930 . S
C1076 C1074 1.380 . S
C1076 C1077 1.391 . S
C1076 H1091 0.930 . S
C1077 C1076 1.391 . S
C1077 C1079 1.387 . S
C1078 C1075 1.398 . S
C1078 C1079 1.380 . S
C1078 H1092 0.930 . S
C1079 C1077 1.387 . S
C1079 C1078 1.380 . S
C1079 H1093 0.930 . S
C1080 O1060 1.254 . S
C1080 O1061 1.268 . S
C1081 O1065 1.284 . S
C1081 O1068 1.250 . S
C1082 Gd1015 2.828 . S
C1082 O1064 1.258 . S
C1082 O1069 1.252 . S
C1082 C1083 1.497 . S
C1083 C1082 1.497 . S
C1083 C1084 1.395 . S
C1083 C1085 1.380 . S
C1084 C1083 1.395 . S
C1084 C1087 1.398 . S
C1084 H1094 0.930 . S
C1085 C1083 1.380 . S
C1085 C1086 1.391 . S
C1085 H1095 0.930 . S
C1086 C1085 1.391 . S
C1086 C1088 1.387 . S
C1087 C1084 1.398 . S
C1087 C1088 1.380 . S
C1087 H1096 0.930 . S
C1088 C1086 1.387 . S
C1088 C1087 1.380 . S
C1088 H1097 0.930 . S
C1089 O1066 1.254 . S
C1089 O1067 1.268 . S
H1090 C1075 0.930 . S
H1091 C1076 0.930 . S
H1092 C1078 0.930 . S
H1093 C1079 0.930 . S
H1094 C1084 0.930 . S
H1095 C1085 0.930 . S
H1096 C1087 0.930 . S
H1097 C1088 0.930 . S
C253 C398 1.664 . S
C272 C482 1.755 . S
C234 C576 1.848 . S
C215 C492 1.919 . S
C566 C177 1.719 . S
C196 C408 1.836 . S
C409 C220 1.713 1_556 S
C493 C182 1.760 . S
C201 C585 1.518 1_554 S
C258 C501 1.502 . S
C277 C577 1.685 . S
C417 C239 1.449 . S
C650 C25 1.664 1_455 S
C44 C734 1.754 . S
C6 C828 1.847 . S
C329 C744 1.918 . S
C291 C818 1.719 . S
C310 C660 1.836 . S
C334 C661 1.712 . S
C296 C745 1.760 . S
C837 C315 1.518 . S
C30 C753 1.502 . S
C829 C49 1.684 . S
C11 C669 1.449 . S
C902 C139 1.664 . S
C158 C986 1.755 . S
C1080 C120 1.848 . S
C996 C101 1.919 . S
C1070 C63 1.719 1_655 S
C82 C912 1.836 . S
C106 C913 1.713 . S
C68 C997 1.760 . S
C1089 C87 1.518 . S
C144 C1005 1.502 . S
C163 C1081 1.684 . S
C125 C921 1.449 . S
C287 C405 1.852 . S
C489 C306 1.838 . S
C325 C582 1.557 . S
C116 C498 1.486 . S
C135 C573 1.763 . S
C414 C154 1.521 . S
C59 C657 1.852 . S
C78 C741 1.838 . S
C97 C834 1.557 . S
C230 C750 1.486 . S
C825 C249 1.763 . S
C268 C666 1.521 . S
C173 C909 1.852 . S
C192 C993 1.838 . S
C1086 C211 1.558 . S
C2 C1002 1.486 . S
C21 C1077 1.763 . S
C40 C918 1.521 . S
