# Generated by pormake.
# Topology zzz, (3,6)-cn, num edge types: 1
# Building blocks:
#     Node 0, Type 0, BuildingBlock: PAMTOO_clean_linker_0, # of connection points: 3
#     Node 1, Type 0, BuildingBlock: PAMTOO_clean_linker_0, # of connection points: 3
#     Node 2, Type 0, BuildingBlock: PAMTOO_clean_linker_0, # of connection points: 3
#     Node 3, Type 0, BuildingBlock: PAMTOO_clean_linker_0, # of connection points: 3
#     Node 4, Type 0, BuildingBlock: PAMTOO_clean_linker_0, # of connection points: 3
#     Node 5, Type 0, BuildingBlock: PAMTOO_clean_linker_0, # of connection points: 3
#     Node 6, Type 0, BuildingBlock: PAMTOO_clean_linker_0, # of connection points: 3
#     Node 7, Type 0, BuildingBlock: PAMTOO_clean_linker_0, # of connection points: 3
#     Node 8, Type 1, BuildingBlock: KUMBUR_clean_sbu_1, # of connection points: 6
#     Node 9, Type 1, BuildingBlock: KUMBUR_clean_sbu_1, # of connection points: 6
#     Node 10, Type 1, BuildingBlock: KUMBUR_clean_sbu_1, # of connection points: 6
#     Node 11, Type 1, BuildingBlock: KUMBUR_clean_sbu_1, # of connection points: 6
#     Edge 12, Type (0, 1), BuildingBlock: XUDNAN_clean_linker_2, # of connection points: 2
#     Edge 13, Type (0, 1), BuildingBlock: XUDNAN_clean_linker_2, # of connection points: 2
#     Edge 14, Type (0, 1), BuildingBlock: XUDNAN_clean_linker_2, # of connection points: 2
#     Edge 15, Type (0, 1), BuildingBlock: XUDNAN_clean_linker_2, # of connection points: 2
#     Edge 16, Type (0, 1), BuildingBlock: XUDNAN_clean_linker_2, # of connection points: 2
#     Edge 17, Type (0, 1), BuildingBlock: XUDNAN_clean_linker_2, # of connection points: 2
#     Edge 18, Type (0, 1), BuildingBlock: XUDNAN_clean_linker_2, # of connection points: 2
#     Edge 19, Type (0, 1), BuildingBlock: XUDNAN_clean_linker_2, # of connection points: 2
#     Edge 20, Type (0, 1), BuildingBlock: XUDNAN_clean_linker_2, # of connection points: 2
#     Edge 21, Type (0, 1), BuildingBlock: XUDNAN_clean_linker_2, # of connection points: 2
#     Edge 22, Type (0, 1), BuildingBlock: XUDNAN_clean_linker_2, # of connection points: 2
#     Edge 23, Type (0, 1), BuildingBlock: XUDNAN_clean_linker_2, # of connection points: 2
#     Edge 24, Type (0, 1), BuildingBlock: XUDNAN_clean_linker_2, # of connection points: 2
#     Edge 25, Type (0, 1), BuildingBlock: XUDNAN_clean_linker_2, # of connection points: 2
#     Edge 26, Type (0, 1), BuildingBlock: XUDNAN_clean_linker_2, # of connection points: 2
#     Edge 27, Type (0, 1), BuildingBlock: XUDNAN_clean_linker_2, # of connection points: 2
#     Edge 28, Type (0, 1), BuildingBlock: XUDNAN_clean_linker_2, # of connection points: 2
#     Edge 29, Type (0, 1), BuildingBlock: XUDNAN_clean_linker_2, # of connection points: 2
#     Edge 30, Type (0, 1), BuildingBlock: XUDNAN_clean_linker_2, # of connection points: 2
#     Edge 31, Type (0, 1), BuildingBlock: XUDNAN_clean_linker_2, # of connection points: 2
#     Edge 32, Type (0, 1), BuildingBlock: XUDNAN_clean_linker_2, # of connection points: 2
#     Edge 33, Type (0, 1), BuildingBlock: XUDNAN_clean_linker_2, # of connection points: 2
#     Edge 34, Type (0, 1), BuildingBlock: XUDNAN_clean_linker_2, # of connection points: 2
#     Edge 35, Type (0, 1), BuildingBlock: XUDNAN_clean_linker_2, # of connection points: 2
# Relax obj value: 0.178
# Max RMSD: 0.105
# Mean RMSD: 0.079
data_MOF--net-zzz--node1-KUMBUR_clean_sbu_1--node2-PAMTOO_clean_linker_0--edge1-XUDNAN_clean_linker_2
_symmetry_space_group_name_H-M    P1
_symmetry_Int_Tables_number       1
_symmetry_cell_setting            triclinic
loop_
_symmetry_equiv_pos_as_xyz
'x, y, z'
_cell_length_a     49.608665
_cell_length_b     49.652382
_cell_length_c     15.648611
_cell_angle_alpha  89.925995
_cell_angle_beta   90.334082
_cell_angle_gamma 90.224651
loop_
_atom_site_label
_atom_site_type_symbol
_atom_site_fract_x
_atom_site_fract_y
_atom_site_fract_z
_atom_type_partial_charge
H0 H 0.8396 0.57779 0.23304 0.0
H1 H 0.76018 0.57575 0.12157 0.0
H2 H 0.77566 0.53418 0.35725 0.0
H3 H 0.71831 0.57831 0.2366 0.0
C4 C 0.71506 0.55616 0.23232 0.0
O5 O 0.7397 0.54267 0.22917 0.0
H6 H 0.7046 0.54986 0.29171 0.0
C7 C 0.81839 0.5727 0.23755 0.0
C8 C 0.80963 0.55725 0.30771 0.0
C9 C 0.801 0.57856 0.1685 0.0
C10 C 0.77384 0.5709 0.17349 0.0
C11 C 0.76445 0.55461 0.23952 0.0
C12 C 0.78243 0.5477 0.30737 0.0
H13 H 0.9938 0.8403 0.22204 0.0
H14 H 0.98347 0.75843 0.13749 0.0
H15 H 1.01159 0.77438 0.39215 0.0
H16 H 0.03444 0.71218 0.29032 0.0
C17 C 0.02264 0.7211 0.23695 0.0
O18 O 1.00139 0.73588 0.27196 0.0
H19 H 0.03665 0.73481 0.20228 0.0
C20 C 0.99463 0.81895 0.23468 0.0
C21 C 1.00245 0.81035 0.31705 0.0
C22 C 0.98826 0.80064 0.16843 0.0
C23 C 0.98916 0.77298 0.18587 0.0
C24 C 0.99873 0.76325 0.26372 0.0
C25 C 1.00492 0.78192 0.33068 0.0
H26 H 0.71484 0.97351 0.27473 0.0
H27 H 0.78531 0.97831 0.11781 0.0
H28 H 0.77834 0.02945 0.3392 0.0
H29 H 0.83277 0.98156 0.21746 0.0
C30 C 0.83494 1.00386 0.21355 0.0
O31 O 0.80959 1.01577 0.20507 0.0
H32 H 0.8443 1.01082 0.2743 0.0
C33 C 0.73483 0.98172 0.26364 0.0
C34 C 0.74426 1.00259 0.31616 0.0
C35 C 0.74942 0.97275 0.19277 0.0
C36 C 0.77461 0.98419 0.17498 0.0
C37 C 0.7858 1.0039 0.22881 0.0
C38 C 0.77052 1.0132 0.30009 0.0
H39 H 0.56437 0.71898 0.21893 0.0
H40 H 0.5796 0.80069 0.14593 0.0
H41 H 0.53457 0.78406 0.37301 0.0
H42 H 0.51307 0.84285 0.25461 0.0
C43 C 0.52808 0.83488 0.20884 0.0
O44 O 0.54877 0.82268 0.2566 0.0
H45 H 0.51718 0.81956 0.16972 0.0
C46 C 0.56356 0.74025 0.23326 0.0
C47 C 0.55135 0.74851 0.31007 0.0
C48 C 0.57314 0.75883 0.17225 0.0
C49 C 0.5705 0.78631 0.18857 0.0
C50 C 0.55452 0.79561 0.25498 0.0
C51 C 0.54548 0.77673 0.31816 0.0
H52 H 0.22062 0.55949 0.17618 0.0
H53 H 0.30081 0.5523 0.27533 0.0
H54 H 0.27823 0.50857 0.04807 0.0
H55 H 0.33517 0.48338 0.17737 0.0
C56 C 0.33026 0.50174 0.21457 0.0
O57 O 0.31905 0.52059 0.1583 0.0
H58 H 0.31531 0.49565 0.26382 0.0
C59 C 0.24078 0.55145 0.16931 0.0
C60 C 0.2466 0.53381 0.10163 0.0
C61 C 0.2602 0.55783 0.23141 0.0
C62 C 0.28608 0.54725 0.22649 0.0
C63 C 0.29295 0.52942 0.16146 0.0
C64 C 0.27301 0.5223 0.099 0.0
H65 H 0.08429 0.22477 0.1144 0.0
H66 H 0.08647 0.30329 0.22905 0.0
H67 H 0.02067 0.28082 0.06238 0.0
H68 H 0.03218 0.31062 0.29135 0.0
C69 C 0.0275 0.32583 0.24113 0.0
O70 O 0.04136 0.31987 0.16587 0.0
H71 H 1.00555 0.32425 0.22723 0.0
C72 C 0.07631 0.24492 0.11939 0.0
C73 C 0.05223 0.25059 0.07573 0.0
C74 C 0.08885 0.26337 0.17518 0.0
C75 C 0.07711 0.28876 0.18654 0.0
C76 C 0.05232 0.29514 0.14842 0.0
C77 C 0.0397 0.27592 0.09267 0.0
H78 H 0.34068 0.08294 0.12907 0.0
H79 H 0.2702 0.07602 0.28527 0.0
H80 H 0.27826 0.02623 0.06121 0.0
H81 H 0.21208 0.04208 0.12567 0.0
C82 C 0.22116 0.04976 0.18595 0.0
O83 O 0.24675 0.03854 0.19578 0.0
H84 H 0.2228 0.07207 0.18024 0.0
C85 C 0.32082 0.07435 0.13959 0.0
C86 C 0.31177 0.05364 0.08587 0.0
C87 C 0.30603 0.08267 0.21085 0.0
C88 C 0.28105 0.07066 0.22787 0.0
C89 C 0.2703 0.051 0.17295 0.0
C90 C 0.28575 0.04241 0.10126 0.0
H91 H 0.48646 0.33715 0.16043 0.0
H92 H 0.50827 0.26317 0.28868 0.0
H93 H 0.52192 0.27213 0.02103 0.0
H94 H 0.51365 0.20221 0.10107 0.0
C95 C 0.5075 0.2146 0.15666 0.0
O96 O 0.52322 0.23803 0.15713 0.0
H97 H 0.4859 0.21959 0.14539 0.0
C98 C 0.4948 0.31709 0.16061 0.0
C99 C 0.50546 0.3076 0.08342 0.0
C100 C 0.49607 0.30191 0.23692 0.0
C101 C 0.50548 0.27525 0.232 0.0
C102 C 0.51328 0.26375 0.15476 0.0
C103 C 0.51387 0.28019 0.0798 0.0
Tb104 Tb 1.00799 0.04603 0.60248 0.0
C105 C 0.07389 0.05779 0.92368 0.0
N106 N 0.07763 0.04958 0.84182 0.0
C107 C 0.11844 0.07561 0.83407 0.0
C108 C 0.09173 0.07627 0.96277 0.0
C109 C 0.10021 0.05727 0.79805 0.0
C110 C 0.11413 0.08524 0.91663 0.0
C111 C 0.04888 0.05383 0.05561 0.0
C112 C 0.05291 0.04647 0.96952 0.0
C113 C 0.06586 0.07314 0.09373 0.0
C114 C 0.08728 0.0843 0.04751 0.0
Tb115 Tb 0.04902 1.01679 0.79321 0.0
N116 N 0.03782 0.02683 0.93184 0.0
C117 C 0.0287 0.04068 0.10199 0.0
C118 C 1.01942 1.01267 0.97906 0.0
C119 C 1.01411 1.01981 0.06374 0.0
H120 H 0.10408 0.04928 0.73529 0.0
H121 H 0.99927 1.00871 0.10018 0.0
H122 H 0.94489 0.06145 0.65558 0.0
H123 H 0.04487 1.00672 0.30455 0.0
H124 H 1.00939 0.99519 0.95295 0.0
H125 H 0.02498 0.04572 0.16823 0.0
H126 H 0.04791 0.03146 0.44106 0.0
H127 H 0.13603 0.08198 0.79867 0.0
H128 H 0.06327 0.0788 0.15988 0.0
H129 H 0.10068 0.09858 0.07861 0.0
H130 H 0.89906 0.04588 0.61766 0.0
H131 H 0.12855 0.0991 0.94489 0.0
H132 H 1.00177 0.98538 0.26104 0.0
N133 N 0.96435 0.03524 0.56825 0.0
C134 C 0.96104 1.01854 0.50028 0.0
C135 C 0.91635 0.03769 0.58495 0.0
C136 C 0.93519 1.01008 0.47341 0.0
C137 C 0.94239 0.04608 0.60749 0.0
C138 C 0.91275 1.01921 0.51857 0.0
N139 N 1.00761 0.02255 0.47725 0.0
C140 C 0.0293 0.02156 0.42388 0.0
C141 C 0.98064 0.99816 0.37461 0.0
C142 C 0.98344 1.01236 0.4521 0.0
C143 C 1.00319 0.99572 0.32185 0.0
C144 C 0.02755 1.00777 0.34614 0.0
H145 H 0.89253 1.01317 0.5001 0.0
H146 H 0.91283 0.98715 0.37854 0.0
H147 H 0.9527 0.97688 0.2916 0.0
O148 O 0.02603 0.0835 0.58314 0.0
O149 O 0.0219 1.00366 0.58912 0.0
O150 O 0.02194 0.98775 0.72684 0.0
O151 O 0.99004 0.07259 0.51347 0.0
O152 O 0.05234 0.04969 0.5934 0.0
O153 O 0.0681 1.01334 0.6676 0.0
O154 O 0.06248 0.98828 0.88352 0.0
O155 O 0.0468 0.06112 0.76832 0.0
O156 O 1.00396 0.06812 0.72347 0.0
O157 O 0.0851 0.99631 0.76987 0.0
O158 O 1.00519 1.00822 0.8075 0.0
O159 O 0.98416 0.04 0.7211 0.0
C160 C 1.01979 0.98349 0.64366 0.0
C161 C 0.02371 0.0983 0.44139 0.0
C162 C 0.06064 0.1237 0.37624 0.0
C163 C 0.04979 0.11761 0.29502 0.0
C164 C 1.01339 0.09228 0.35993 0.0
C165 C 0.02655 0.10176 0.2872 0.0
C166 C 0.04762 0.11337 0.44867 0.0
C167 C 0.07099 0.03148 0.60732 0.0
C168 C 1.00998 0.0896 0.52011 0.0
C169 C 0.9325 0.99406 0.3998 0.0
C170 C 0.95519 0.98822 0.35022 0.0
C171 C 0.02467 0.07569 0.77044 0.0
C172 C 0.08534 0.95218 0.81842 0.0
C173 C 0.06479 0.90811 0.7946 0.0
C174 C 0.09081 0.89717 0.7851 0.0
C175 C 0.11098 0.941 0.80865 0.0
C176 C 0.0624 0.93599 0.80806 0.0
C177 C 0.11365 0.91362 0.79098 0.0
C178 C 0.984 0.02307 0.78691 0.0
C179 C 0.08267 0.98096 0.83635 0.0
H180 H 0.05862 0.12575 0.23737 0.0
H181 H 0.99513 0.08047 0.35234 0.0
H182 H 1.01835 0.09735 0.22449 0.0
H183 H 0.05587 0.11741 0.51162 0.0
H184 H 0.09379 0.87576 0.77678 0.0
H185 H 0.12889 0.95343 0.81475 0.0
H186 H 0.04273 0.94514 0.81298 0.0
H187 H 0.13351 0.90497 0.78415 0.0
Tb188 Tb 0.53764 0.05481 0.797 0.0
C189 C 0.53716 0.94514 0.61864 0.0
N190 N 0.54613 0.96899 0.58671 0.0
C191 C 0.58532 0.94709 0.53086 0.0
C192 C 0.55238 0.92139 0.61005 0.0
C193 C 0.56961 0.97014 0.5417 0.0
C194 C 0.57677 0.92262 0.56571 0.0
C195 C 0.50322 0.92065 0.69827 0.0
C196 C 0.51298 0.94486 0.66252 0.0
C197 C 0.51842 0.89696 0.69075 0.0
C198 C 0.54292 0.89733 0.64664 0.0
Tb199 Tb 0.51932 1.00559 0.6102 0.0
N200 N 0.49914 0.96837 0.67037 0.0
C201 C 0.47833 0.9209 0.73964 0.0
C202 C 0.47381 0.96804 0.70416 0.0
C203 C 0.46334 0.94459 0.74114 0.0
H204 H 0.57593 0.98865 0.51207 0.0
H205 H 0.44346 0.94471 0.76928 0.0
H206 H 0.48218 0.06879 0.90643 0.0
H207 H 0.60875 0.11967 0.63236 0.0
H208 H 0.46095 0.98528 0.7001 0.0
H209 H 0.47012 0.90274 0.76803 0.0
H210 H 0.59317 0.07751 0.69629 0.0
H211 H 0.60393 0.94819 0.49523 0.0
H212 H 0.51131 0.87822 0.71828 0.0
H213 H 0.5544 0.87889 0.64115 0.0
H214 H 0.45346 0.10816 0.93332 0.0
H215 H 0.58903 0.90481 0.55756 0.0
H216 H 0.58169 0.16109 0.64731 0.0
N217 N 0.51027 0.09027 0.83012 0.0
C218 C 0.51814 0.11478 0.80043 0.0
C219 C 0.47146 0.11028 0.89506 0.0
C220 C 0.50254 0.13798 0.8151 0.0
C221 C 0.48752 0.08784 0.87835 0.0
C222 C 0.47889 0.13545 0.86282 0.0
N223 N 0.5558 0.09338 0.73927 0.0
C224 C 0.58022 0.09469 0.69957 0.0
C225 C 0.5503 0.14136 0.72001 0.0
C226 C 0.54166 0.1164 0.75339 0.0
C227 C 0.57436 0.14232 0.67409 0.0
C228 C 0.58957 0.11895 0.66496 0.0
H229 H 0.46638 0.1528 0.87568 0.0
H230 H 0.49917 0.18087 0.79165 0.0
H231 H 0.541 0.18384 0.70835 0.0
O232 O 0.57394 0.05721 0.86605 0.0
O233 O 0.51543 0.07208 0.68593 0.0
O234 O 0.52861 0.04732 0.57004 0.0
O235 O 0.53617 0.06432 0.92811 0.0
O236 O 0.57177 0.03471 0.72952 0.0
O237 O 0.55701 0.02789 0.5914 0.0
O238 O 0.48408 1.00077 0.537 0.0
O239 O 0.5425 0.98934 0.72113 0.0
O240 O 0.52734 1.01324 0.83564 0.0
O241 O 0.5229 0.99624 0.47935 0.0
O242 O 0.48542 0.02684 0.6749 0.0
O243 O 0.4999 0.03234 0.81361 0.0
C244 C 0.52002 0.07002 0.60329 0.0
C245 C 0.56782 0.03847 1.00353 0.0
C246 C 0.5902 0.99646 0.04335 0.0
C247 C 0.58045 0.99949 0.12714 0.0
C248 C 0.55829 0.04109 0.08729 0.0
C249 C 0.56429 1.02145 0.1484 0.0
C250 C 0.58286 1.01561 0.98142 0.0
C251 C 0.57672 0.03065 0.6473 0.0
C252 C 0.56154 0.05921 0.93892 0.0
C253 C 0.51093 0.16283 0.78135 0.0
C254 C 0.53474 0.16452 0.73384 0.0
C255 C 0.53703 0.9909 0.80332 0.0
C256 C 0.49031 1.01978 0.4002 0.0
C257 C 0.46626 0.0607 0.35879 0.0
C258 C 0.47597 0.05766 0.27499 0.0
C259 C 0.49984 1.01715 0.31646 0.0
C260 C 0.47438 0.04213 0.42148 0.0
C261 C 0.49296 0.03625 0.2545 0.0
C262 C 0.48025 0.03042 0.75712 0.0
C263 C 0.49736 0.99956 0.46563 0.0
H264 H 0.58623 0.98561 0.17734 0.0
H265 H 0.54627 0.05832 0.10542 0.0
H266 H 0.55708 0.02368 0.21317 0.0
H267 H 0.58966 1.01306 0.91626 0.0
H268 H 0.46959 0.07111 0.22433 0.0
H269 H 0.51249 1.00032 0.29899 0.0
H270 H 0.46752 0.04469 0.48657 0.0
H271 H 0.50017 0.03401 0.18974 0.0
Tb272 Tb 0.54975 0.5142 0.62604 0.0
C273 C 0.45473 0.49527 0.8322 0.0
N274 N 0.45953 0.51652 0.77968 0.0
C275 C 0.41678 0.50862 0.71034 0.0
C276 C 0.43181 0.47867 0.82194 0.0
C277 C 0.43946 0.52484 0.72532 0.0
C278 C 0.41335 0.48493 0.75716 0.0
C279 C 0.46568 0.47247 0.96463 0.0
C280 C 0.4712 0.4922 0.9024 0.0
C281 C 0.44411 0.4545 0.95164 0.0
C282 C 0.42722 0.45754 0.88006 0.0
Tb283 Tb 0.49972 0.53934 0.80328 0.0
N284 N 0.4918 0.50987 0.91224 0.0
C285 C 0.48145 0.47207 0.03909 0.0
C286 C 0.50681 0.51013 0.98568 0.0
C287 C 0.50203 0.4911 0.04981 0.0
H288 H 0.44064 0.54406 0.6932 0.0
H289 H 0.51425 0.49109 0.1072 0.0
H290 H 0.60308 0.55408 0.6128 0.0
H291 H 0.50214 0.45537 0.37549 0.0
H292 H 0.52276 0.52479 0.99412 0.0
H293 H 0.4775 0.45762 0.08944 0.0
H294 H 0.51811 0.46399 0.52355 0.0
H295 H 0.40168 0.51475 0.66413 0.0
H296 H 0.43977 0.43885 0.99791 0.0
H297 H 0.40996 0.4443 0.87253 0.0
H298 H 0.62522 0.58205 0.50228 0.0
H299 H 0.3955 0.47268 0.74679 0.0
H300 H 0.51411 0.48658 0.25951 0.0
N301 N 0.57412 0.5376 0.52699 0.0
C302 C 0.56556 0.53589 0.44514 0.0
C303 C 0.60831 0.56925 0.48537 0.0
C304 C 0.57672 0.55207 0.38048 0.0
C305 C 0.5959 0.55325 0.54773 0.0
C306 C 0.5983 0.5691 0.40161 0.0
N307 N 0.53884 0.50011 0.49038 0.0
C308 C 0.52392 0.47755 0.47275 0.0
C309 C 0.53825 0.51237 0.34123 0.0
C310 C 0.5469 0.51641 0.42606 0.0
C311 C 0.5214 0.49043 0.32366 0.0
C312 C 0.51467 0.47264 0.38938 0.0
H313 H 0.60772 0.58168 0.35359 0.0
H314 H 0.57367 0.56314 0.24703 0.0
H315 H 0.54031 0.52781 0.21167 0.0
O316 O 0.58069 0.48761 0.59035 0.0
O317 O 0.54406 0.55854 0.61244 0.0
O318 O 0.51162 0.57196 0.71155 0.0
O319 O 0.57262 0.49549 0.72255 0.0
O320 O 0.50621 0.50747 0.60512 0.0
O321 O 0.48752 0.5442 0.66803 0.0
O322 O 0.50928 0.56899 0.89323 0.0
O323 O 0.52133 0.50056 0.81568 0.0
O324 O 0.51981 0.48576 0.67961 0.0
O325 O 0.46801 0.56098 0.8604 0.0
O326 O 0.54198 0.53661 0.84598 0.0
O327 O 0.56474 0.54382 0.72106 0.0
C328 C 0.52831 0.57716 0.64685 0.0
C329 C 0.58705 0.4523 0.68964 0.0
C330 C 0.56615 0.40773 0.68037 0.0
C331 C 0.58786 0.39716 0.728 0.0
C332 C 0.60841 0.44149 0.73709 0.0
C333 C 0.60863 0.41404 0.75691 0.0
C334 C 0.56573 0.43564 0.66432 0.0
C335 C 0.48819 0.5267 0.605 0.0
C336 C 0.58633 0.48113 0.66927 0.0
C337 C 0.56642 0.54998 0.29694 0.0
C338 C 0.5473 0.52999 0.27704 0.0
C339 C 0.51829 0.48055 0.7618 0.0
C340 C 0.48103 0.60646 0.87514 0.0
C341 C 0.50081 0.64991 0.83632 0.0
C342 C 0.47486 0.66133 0.83742 0.0
C343 C 0.45539 0.61822 0.87663 0.0
C344 C 0.50336 0.62225 0.85197 0.0
C345 C 0.45233 0.64545 0.85644 0.0
C346 C 0.56443 0.54214 0.80522 0.0
C347 C 0.48468 0.57777 0.89629 0.0
H348 H 0.58939 0.37581 0.74092 0.0
H349 H 0.62483 0.45426 0.7588 0.0
H350 H 0.62525 0.4057 0.79328 0.0
H351 H 0.5489 0.44474 0.6313 0.0
H352 H 0.47195 0.68269 0.82735 0.0
H353 H 0.43781 0.60636 0.89332 0.0
H354 H 0.52306 0.61307 0.84738 0.0
H355 H 0.43251 0.65448 0.85798 0.0
Tb356 Tb 0.03936 0.5561 0.63854 0.0
C357 C 0.04701 0.45628 0.87856 0.0
N358 N 0.03146 0.45957 0.80763 0.0
C359 C 0.04175 0.41453 0.76287 0.0
C360 C 0.06093 0.43202 0.89385 0.0
C361 C 0.02838 0.43897 0.75042 0.0
C362 C 0.0582 0.41106 0.83469 0.0
C363 C 0.06535 0.47505 1.00955 0.0
C364 C 0.04927 0.47754 0.93534 0.0
C365 C 0.07935 0.45097 0.02501 0.0
C366 C 0.07716 0.42951 0.96728 0.0
Tb367 Tb 1.01138 0.50072 0.79215 0.0
N368 N 0.03598 0.50079 0.91699 0.0
C369 C 0.06678 0.49677 0.06616 0.0
C370 C 0.03624 0.52146 0.97452 0.0
C371 C 0.05189 0.51995 0.04902 0.0
H372 H 1.01502 0.44101 0.69629 0.0
H373 H 0.05218 0.53657 0.09373 0.0
H374 H 1.00664 0.60973 0.71129 0.0
H375 H 0.0483 0.51497 0.31858 0.0
H376 H 0.02404 0.53896 0.96523 0.0
H377 H 0.07886 0.49566 0.12396 0.0
H378 H 0.06222 0.52187 0.46743 0.0
H379 H 0.03919 0.39832 0.7173 0.0
H380 H 0.09186 0.44872 0.08154 0.0
H381 H 0.08805 0.41106 0.98007 0.0
H382 H 0.97433 0.64299 0.65422 0.0
H383 H 0.06854 0.3921 0.84415 0.0
H384 H 1.01067 0.54134 0.25779 0.0
N385 N 1.00794 0.58692 0.59621 0.0
C386 C 0.99977 0.58493 0.51322 0.0
C387 C 0.98119 0.62666 0.6142 0.0
C388 C 0.98155 0.60367 0.47796 0.0
C389 C 0.9993 0.60768 0.64658 0.0
C390 C 0.97232 0.62469 0.5296 0.0
N391 N 0.02935 0.54779 0.4976 0.0
C392 C 0.0442 0.53171 0.44487 0.0
C393 C 1.00289 0.56247 0.37605 0.0
C394 C 1.01032 0.5644 0.46313 0.0
C395 C 1.0158 0.54345 0.32487 0.0
C396 C 0.03696 0.52843 0.35904 0.0
H397 H 0.95851 0.63964 0.50455 0.0
H398 H 0.95951 0.61536 0.36392 0.0
H399 H 0.97801 0.57923 0.27495 0.0
O400 O 0.07917 0.56129 0.59318 0.0
O401 O 0.99446 0.55267 0.65224 0.0
O402 O 0.98782 0.5079 0.67524 0.0
O403 O 0.05272 0.59488 0.60679 0.0
O404 O 0.04951 0.51307 0.60866 0.0
O405 O 1.01324 0.48867 0.6572 0.0
O406 O 0.97884 0.50682 0.87479 0.0
O407 O 0.0557 0.50337 0.77875 0.0
O408 O 0.06379 0.54808 0.7546 0.0
O409 O 0.98545 0.46806 0.81853 0.0
O410 O 1.00233 0.54357 0.82653 0.0
O411 O 0.03563 0.57078 0.76976 0.0
C412 C 0.97935 0.53095 0.6442 0.0
C413 C 0.09799 0.60237 0.64333 0.0
C414 C 0.14482 0.61625 0.65918 0.0
C415 C 0.13783 0.63317 0.72706 0.0
C416 C 0.09124 0.61896 0.7129 0.0
C417 C 0.11111 0.63418 0.75459 0.0
C418 C 0.12484 0.6009 0.61773 0.0
C419 C 0.03379 0.49142 0.605 0.0
C420 C 0.07727 0.58741 0.59462 0.0
C421 C 0.97351 0.60116 0.39217 0.0
C422 C 0.98398 0.5805 0.34157 0.0
C423 C 0.07178 0.52446 0.78306 0.0
C424 C 0.94117 0.48511 0.81267 0.0
C425 C 0.90318 0.51304 0.76672 0.0
C426 C 0.89458 0.49224 0.71201 0.0
C427 C 0.93206 0.46447 0.75815 0.0
C428 C 0.92617 0.50893 0.81796 0.0
C429 C 0.90883 0.46804 0.70853 0.0
C430 C 1.0164 0.56638 0.82564 0.0
C431 C 0.96799 0.48371 0.85454 0.0
H432 H 0.15302 0.64533 0.75891 0.0
H433 H 0.07059 0.62057 0.73407 0.0
H434 H 0.10571 0.64705 0.80752 0.0
H435 H 0.13009 0.58839 0.56355 0.0
H436 H 0.87694 0.49465 0.67169 0.0
H437 H 0.94327 0.4459 0.75204 0.0
H438 H 0.93255 0.52438 0.86257 0.0
H439 H 0.90214 0.45218 0.66591 0.0
H440 H 0.17643 0.07806 0.24067 0.0
H441 H 0.22122 1.00514 0.29469 0.0
H442 H 0.18837 0.99325 0.40725 0.0
H443 H 0.15813 0.0927 0.459 0.0
H444 H 0.12462 0.10431 0.43539 0.0
H445 H 0.15097 0.10831 0.35733 0.0
H446 H 0.12345 0.08266 0.24403 0.0
H447 H 0.09611 0.07878 0.31834 0.0
H448 H 0.11038 0.04959 0.26801 0.0
H449 H 0.15009 0.98905 0.51444 0.0
H450 H 0.1098 0.99228 0.60492 0.0
H451 H 0.08856 0.06773 0.48172 0.0
C452 C 0.17953 0.05975 0.27704 0.0
C453 C 0.20205 0.04294 0.25996 0.0
C454 C 0.20474 1.01876 0.30749 0.0
C455 C 0.18601 1.01177 0.37149 0.0
C456 C 0.16427 0.0289 0.38711 0.0
C457 C 0.16089 0.0524 0.34103 0.0
C458 C 0.13552 0.06708 0.3697 0.0
C459 C 0.14274 0.09476 0.40748 0.0
C460 C 0.11518 0.06968 0.2956 0.0
C461 C 0.12501 0.04811 0.43868 0.0
C462 C 0.14201 0.02628 0.44781 0.0
C463 C 0.13672 1.0061 0.5076 0.0
C464 C 0.11364 1.00819 0.55915 0.0
C465 C 0.09567 0.03028 0.5514 0.0
C466 C 0.10167 0.05052 0.48982 0.0
H467 H 0.53661 0.16705 0.1873 0.0
H468 H 0.48204 0.2225 0.31072 0.0
H469 H 0.48001 0.1924 0.43663 0.0
H470 H 0.50542 0.10764 0.25234 0.0
H471 H 0.53503 0.08789 0.2749 0.0
H472 H 0.53628 0.11455 0.1968 0.0
H473 H 0.57516 0.13845 0.27437 0.0
H474 H 0.57594 0.11128 0.35083 0.0
H475 H 0.57259 0.14555 0.38698 0.0
H476 H 0.48205 0.15494 0.54785 0.0
H477 H 0.48869 0.11419 0.63564 0.0
H478 H 0.54108 0.08128 0.4413 0.0
C479 C 0.52475 0.17317 0.24172 0.0
C480 C 0.50986 0.19768 0.23916 0.0
C481 C 0.49414 0.2044 0.31135 0.0
C482 C 0.49266 0.18719 0.38308 0.0
C483 C 0.50704 0.16301 0.38277 0.0
C484 C 0.52303 0.15607 0.31426 0.0
C485 C 0.53588 0.12851 0.32961 0.0
C486 C 0.52766 0.10844 0.25931 0.0
C487 C 0.56672 0.13111 0.33581 0.0
C488 C 0.52395 0.12068 0.41601 0.0
C489 C 0.50768 0.14111 0.44593 0.0
C490 C 0.49484 0.13893 0.52485 0.0
C491 C 0.49884 0.1156 0.57474 0.0
C492 C 0.51555 0.0943 0.54654 0.0
C493 C 0.52807 0.09698 0.46519 0.0
H494 H 0.37039 0.47136 0.2907 0.0
H495 H 0.34764 0.55456 0.24867 0.0
H496 H 0.3862 0.56941 0.33769 0.0
H497 H 0.39117 0.47828 0.50781 0.0
H498 H 0.4193 0.45556 0.50044 0.0
H499 H 0.39065 0.45139 0.43042 0.0
H500 H 0.42209 0.45428 0.29849 0.0
H501 H 0.45061 0.45808 0.36929 0.0
H502 H 0.44437 0.48284 0.28728 0.0
H503 H 0.42588 0.57527 0.4404 0.0
H504 H 0.46377 0.57175 0.54297 0.0
H505 H 0.46293 0.4849 0.51541 0.0
C506 C 0.37383 0.49275 0.29888 0.0
C507 C 0.35585 0.51172 0.26118 0.0
C508 C 0.36087 0.53949 0.27567 0.0
C509 C 0.3829 0.54815 0.32636 0.0
C510 C 0.40007 0.52892 0.3626 0.0
C511 C 0.39595 0.50175 0.34884 0.0
C512 C 0.41709 0.4852 0.39683 0.0
C513 C 0.40375 0.4665 0.46277 0.0
C514 C 0.43457 0.46916 0.3342 0.0
C515 C 0.43353 0.50724 0.44074 0.0
C516 C 0.42329 0.53232 0.42012 0.0
C517 C 0.43416 0.55573 0.45595 0.0
C518 C 0.45574 0.55352 0.51441 0.0
C519 C 0.46669 0.52812 0.53696 0.0
C520 C 0.45549 0.50468 0.49845 0.0
H521 H 0.99404 0.35844 0.33552 0.0
H522 H 0.07578 0.35552 0.24084 0.0
H523 H 0.0863 0.39799 0.31824 0.0
H524 H 0.98568 0.43171 0.32787 0.0
H525 H 0.96648 0.43264 0.42525 0.0
H526 H 0.96532 0.40315 0.35832 0.0
H527 H 0.98012 0.37371 0.48702 0.0
H528 H 0.98141 0.40315 0.55401 0.0
H529 H 1.0107 0.38206 0.54411 0.0
H530 H 0.088 0.44113 0.41526 0.0
H531 H 0.08065 0.4786 0.51728 0.0
H532 H 0.99756 0.45312 0.54648 0.0
C533 C 1.01401 0.36706 0.32927 0.0
C534 C 0.0338 0.35385 0.27911 0.0
C535 C 0.05998 0.36543 0.27619 0.0
C536 C 0.06616 0.38958 0.32065 0.0
C537 C 0.0461 0.40206 0.36926 0.0
C538 C 0.02048 0.39108 0.37345 0.0
C539 C 1.00267 0.4076 0.43242 0.0
C540 C 0.97861 0.41948 0.383 0.0
C541 C 0.99317 0.39061 0.50889 0.0
C542 C 0.02211 0.42963 0.4611 0.0
C543 C 0.04711 0.42621 0.42425 0.0
C544 C 0.06835 0.44392 0.44353 0.0
C545 C 0.06396 0.46537 0.50152 0.0
C546 C 0.03847 0.46928 0.54024 0.0
C547 C 1.01736 0.45099 0.51862 0.0
H548 H 0.87774 0.97401 0.15052 0.0
H549 H 0.83711 0.05032 0.1139 0.0
H550 H 0.87009 0.06255 1.00217 0.0
H551 H 0.94544 0.99936 0.12381 0.0
H552 H 0.95759 0.97022 0.06747 0.0
H553 H 0.93047 0.96677 0.14282 0.0
H554 H 0.90063 0.94492 0.02658 0.0
H555 H 0.92731 0.94843 0.94969 0.0
H556 H 0.89464 0.96257 0.92751 0.0
H557 H 0.90813 0.06704 0.8959 0.0
H558 H 0.9478 0.06391 0.80376 0.0
H559 H 0.96471 0.98415 0.90386 0.0
C560 C 0.87555 0.99314 0.118 0.0
C561 C 0.85411 1.01085 0.13975 0.0
C562 C 0.85268 0.03606 0.09738 0.0
C563 C 0.87151 0.04323 0.03393 0.0
C564 C 0.89211 0.02522 1.01358 0.0
C565 C 0.89431 1.00067 0.0544 0.0
C566 C 0.91869 0.98522 0.02103 0.0
C567 C 0.93927 0.9801 0.09307 0.0
C568 C 0.90977 0.9587 0.97872 0.0
C569 C 0.92989 1.0049 0.95505 0.0
C570 C 0.91416 0.02783 0.95219 0.0
C571 C 0.92037 0.04905 0.89736 0.0
C572 C 0.94302 0.04692 0.84424 0.0
C573 C 0.95964 0.02367 0.84463 0.0
C574 C 0.95277 1.00233 0.90154 0.0
H575 H 0.51106 0.8887 0.20089 0.0
H576 H 0.56261 0.83234 0.06961 0.0
H577 H 0.57309 0.86669 0.96193 0.0
H578 H 0.48242 0.9156 1.00853 0.0
H579 H 0.4794 0.94955 0.04782 0.0
H580 H 0.47848 0.92163 0.12136 0.0
H581 H 0.51721 0.94329 0.20676 0.0
H582 H 0.51966 0.97094 0.13239 0.0
H583 H 0.54875 0.95045 0.15531 0.0
H584 H 0.57586 0.90652 0.86052 0.0
H585 H 0.56996 0.94769 0.77417 0.0
H586 H 0.51446 0.97884 0.96254 0.0
C587 C 0.52529 0.88384 0.15112 0.0
C588 C 0.53737 0.85777 0.14816 0.0
C589 C 0.55456 0.85219 0.07836 0.0
C590 C 0.56025 0.87169 1.01524 0.0
C591 C 0.54813 0.89696 0.02029 0.0
C592 C 0.53083 0.9031 0.08626 0.0
C593 C 0.51874 0.9311 0.07241 0.0
C594 C 0.48793 0.92935 0.06192 0.0
C595 C 0.52655 0.95009 0.14604 0.0
C596 C 0.53203 0.9397 0.98876 0.0
C597 C 0.5489 0.91962 0.95997 0.0
C598 C 0.5627 0.92232 0.88282 0.0
C599 C 0.55904 0.94583 0.83355 0.0
C600 C 0.54151 0.96665 0.86016 0.0
C601 C 0.52811 0.9635 0.93991 0.0
H602 H 0.65937 0.55639 0.22511 0.0
H603 H 0.7287 0.54503 0.06207 0.0
H604 H 0.69837 0.54115 0.93644 0.0
H605 H 0.61545 0.50886 0.11296 0.0
H606 H 0.58561 0.52872 0.12797 0.0
H607 H 0.61284 0.53035 0.20507 0.0
H608 H 0.61566 0.58243 0.18492 0.0
H609 H 0.58851 0.58105 0.10779 0.0
H610 H 0.62033 0.59597 0.07919 0.0
H611 H 0.65925 0.53945 0.82589 0.0
H612 H 0.61642 0.53812 0.74505 0.0
H613 H 0.57218 0.54992 0.98002 0.0
C614 C 0.6682 0.55267 0.16314 0.0
C615 C 0.69665 0.55061 0.15458 0.0
C616 C 0.70718 0.54641 0.0715 0.0
C617 C 0.68998 0.54423 0.99934 0.0
C618 C 0.66208 0.54638 1.0103 0.0
C619 C 0.65131 0.55032 0.09047 0.0
C620 C 0.62068 0.55185 0.08542 0.0
C621 C 0.60787 0.5286 0.13598 0.0
C622 C 0.6107 0.57944 0.11625 0.0
C623 C 0.61572 0.54842 0.99006 0.0
C624 C 0.63987 0.54536 0.94761 0.0
C625 C 0.64034 0.54193 0.85904 0.0
C626 C 0.61573 0.54145 0.8132 0.0
C627 C 0.59056 0.54431 0.85505 0.0
C628 C 0.59085 0.5478 0.94522 0.0
H629 H 0.04863 0.70216 0.09313 0.0
H630 H 0.97854 0.68586 0.24865 0.0
H631 H 0.96848 0.64539 0.16055 0.0
H632 H 0.02048 0.68002 0.8879 0.0
H633 H 0.05172 0.66532 0.85322 0.0
H634 H 0.05217 0.69355 0.92543 0.0
H635 H 0.08097 0.66599 0.03245 0.0
H636 H 0.08039 0.63764 0.96079 0.0
H637 H 0.06882 0.63373 0.06907 0.0
H638 H 0.96719 0.60471 0.05355 0.0
H639 H 0.97485 0.56965 0.94361 0.0
H640 H 0.04647 0.61237 0.86104 0.0
C641 C 0.03074 0.69047 0.10749 0.0
C642 C 1.01384 0.69801 0.17663 0.0
C643 C 0.99134 0.68127 0.19483 0.0
C644 C 0.98559 0.65804 0.14514 0.0
C645 C 1.00265 0.65132 0.07732 0.0
C646 C 0.02481 0.6672 0.05866 0.0
C647 C 0.0407 0.65523 0.9848 0.0
C648 C 0.04129 0.67469 0.90831 0.0
C649 C 0.06942 0.6477 1.01352 0.0
C650 C 0.02411 0.63017 0.96428 0.0
C651 C 1.0022 0.62816 0.01813 0.0
C652 C 0.98429 0.60636 1.01123 0.0
C653 C 0.98883 0.58639 0.94827 0.0
C654 C 1.0112 0.58798 0.89214 0.0
C655 C 0.02895 0.6104 0.90131 0.0
H656 H 0.12966 0.22816 0.13945 0.0
H657 H 0.09661 0.27533 0.34518 0.0
H658 H 0.11047 0.24134 0.44743 0.0
H659 H 0.09737 0.18001 0.1602 0.0
H660 H 0.11968 0.15187 0.14564 0.0
H661 H 0.12876 0.18388 0.10313 0.0
H662 H 0.1738 0.18158 0.18746 0.0
H663 H 0.16387 0.14939 0.23108 0.0
H664 H 0.17357 0.17647 0.30147 0.0
H665 H 0.09852 0.19919 0.50368 0.0
H666 H 0.06884 0.16042 0.50549 0.0
H667 H 0.10348 0.13213 0.26843 0.0
C668 C 0.12668 0.23156 0.20699 0.0
C669 C 0.11055 0.25338 0.23358 0.0
C670 C 0.10823 0.25847 0.32196 0.0
C671 C 0.11603 0.23887 0.38115 0.0
C672 C 0.12546 0.21418 0.35083 0.0
C673 C 0.1321 0.21076 0.26527 0.0
C674 C 0.13344 0.18094 0.243 0.0
C675 C 0.11887 0.17387 0.15818 0.0
C676 C 0.16292 0.17155 0.24069 0.0
C677 C 0.11937 0.16916 0.32017 0.0
C678 C 0.11754 0.1881 0.38491 0.0
C679 C 0.10072 0.18397 0.45484 0.0
C680 C 0.08364 0.16158 0.45513 0.0
C681 C 0.08345 0.14315 0.3861 0.0
C682 C 0.10291 0.14613 0.32124 0.0
H683 H 0.31804 0.06816 0.37119 0.0
H684 H 0.32836 0.13255 0.18915 0.0
H685 H 0.37074 0.14578 0.25919 0.0
H686 H 0.36684 0.10195 0.5563 0.0
H687 H 0.37844 0.06846 0.58058 0.0
H688 H 0.34339 0.07414 0.55522 0.0
H689 H 0.34592 0.03819 0.43672 0.0
H690 H 0.3805 0.03249 0.46081 0.0
H691 H 0.37075 0.04171 0.3534 0.0
H692 H 0.4175 0.13796 0.29448 0.0
H693 H 0.46001 0.11274 0.29878 0.0
H694 H 0.42221 0.05196 0.45684 0.0
C695 C 0.32827 0.08639 0.35133 0.0
C696 C 0.32029 0.09927 0.27522 0.0
C697 C 0.33418 0.1226 0.24806 0.0
C698 C 0.35843 0.13016 0.2876 0.0
C699 C 0.36824 0.11437 0.35477 0.0
C700 C 0.35296 0.09351 0.3892 0.0
C701 C 0.37025 0.07536 0.44485 0.0
C702 C 0.36437 0.08029 0.53986 0.0
C703 C 0.36667 0.04523 0.42228 0.0
C704 C 0.39798 0.08591 0.42225 0.0
C705 C 0.39643 0.10951 0.37529 0.0
C706 C 0.419 0.12005 0.33365 0.0
C707 C 0.44309 0.10537 0.33538 0.0
C708 C 0.44437 0.08019 0.37745 0.0
C709 C 0.42204 0.07142 0.42579 0.0
H710 H 0.49552 0.35646 0.27615 0.0
H711 H 0.48652 0.27796 0.39718 0.0
H712 H 0.49547 0.29887 0.53609 0.0
H713 H 0.54451 0.3806 0.36587 0.0
H714 H 0.53383 0.41466 0.38572 0.0
H715 H 0.51847 0.39593 0.30133 0.0
H716 H 0.47235 0.40488 0.36498 0.0
H717 H 0.48527 0.42167 0.45925 0.0
H718 H 0.46395 0.39272 0.47009 0.0
H719 H 0.51819 0.32623 0.65347 0.0
H720 H 0.54718 0.3576 0.73506 0.0
H721 H 0.53839 0.41653 0.53156 0.0
C722 C 0.49387 0.34333 0.33064 0.0
C723 C 0.49176 0.31501 0.32256 0.0
C724 C 0.48984 0.29946 0.39889 0.0
C725 C 0.49426 0.31127 0.47929 0.0
C726 C 0.49878 0.33892 0.4833 0.0
C727 C 0.49718 0.35489 0.41105 0.0
C728 C 0.50529 0.3836 0.42988 0.0
C729 C 0.5268 0.39425 0.36712 0.0
C730 C 0.48026 0.40179 0.43085 0.0
C731 C 0.51624 0.38012 0.51919 0.0
C732 C 0.51097 0.35476 0.55141 0.0
C733 C 0.5218 0.34637 0.62953 0.0
C734 C 0.53877 0.3642 0.67466 0.0
C735 C 0.54536 0.38986 0.64031 0.0
C736 C 0.53326 0.39777 0.56239 0.0
H737 H 0.24338 0.53717 0.38031 0.0
H738 H 0.25839 0.61244 0.24945 0.0
H739 H 0.23999 0.63753 0.37299 0.0
H740 H 0.18176 0.55257 0.44702 0.0
H741 H 0.18334 0.53546 0.54861 0.0
H742 H 0.20431 0.52456 0.46262 0.0
H743 H 0.24656 0.53076 0.55932 0.0
H744 H 0.2255 0.54209 0.64561 0.0
H745 H 0.25299 0.56289 0.60912 0.0
H746 H 0.21224 0.65325 0.49434 0.0
H747 H 0.17372 0.65783 0.59271 0.0
H748 H 0.17608 0.57226 0.64397 0.0
C749 C 0.24363 0.55899 0.3797 0.0
C750 C 0.25246 0.57315 0.30725 0.0
C751 C 0.25189 0.60154 0.30573 0.0
C752 C 0.24174 0.61583 0.37572 0.0
C753 C 0.23246 0.60128 0.44618 0.0
C754 C 0.23336 0.5734 0.44855 0.0
C755 C 0.21783 0.5622 0.52346 0.0
C756 C 0.19549 0.54258 0.49358 0.0
C757 C 0.23687 0.54869 0.58822 0.0
C758 C 0.20633 0.58793 0.55923 0.0
C759 C 0.21582 0.61037 0.51606 0.0
C760 C 0.20525 0.63598 0.53027 0.0
C761 C 0.18348 0.63846 0.58641 0.0
C762 C 0.17242 0.61538 0.62592 0.0
C763 C 0.18482 0.59017 0.61563 0.0
H764 H 0.96742 0.84925 0.11328 0.0
H765 H 1.00082 0.77442 0.01795 0.0
H766 H 1.00624 0.79462 0.87807 0.0
H767 H 0.94694 0.88085 0.8894 0.0
H768 H 0.96023 0.9129 0.92361 0.0
H769 H 0.94328 0.89124 0.99908 0.0
H770 H 0.98478 0.89244 0.09965 0.0
H771 H 1.00118 0.91472 0.02712 0.0
H772 H 1.01743 0.88369 0.05795 0.0
H773 H 0.02361 0.82431 0.76892 0.0
H774 H 0.05503 0.85889 0.71711 0.0
H775 H 1.0202 0.91624 0.89358 0.0
C776 C 0.97535 0.83689 0.06259 0.0
C777 C 0.98406 0.8103 0.07868 0.0
C778 C 0.9934 0.79468 1.00901 0.0
C779 C 0.99663 0.80611 0.92804 0.0
C780 C 0.99109 0.83338 0.91723 0.0
C781 C 0.98044 0.84864 0.983 0.0
C782 C 0.98408 0.87847 0.96594 0.0
C783 C 0.957 0.89162 0.94317 0.0
C784 C 0.99773 0.89311 0.04204 0.0
C785 C 1.00204 0.87729 0.88815 0.0
C786 C 1.00385 0.85137 0.85663 0.0
C787 C 0.02206 0.84472 0.79242 0.0
C788 C 0.04024 0.86443 0.76446 0.0
C789 C 0.0408 0.89019 0.80311 0.0
C790 C 0.02027 0.897 0.86154 0.0
H791 H 0.73779 0.98645 0.03144 0.0
H792 H 0.72607 0.92346 0.21745 0.0
H793 H 0.68372 0.91031 0.14699 0.0
H794 H 0.68545 1.01377 0.04628 0.0
H795 H 0.67613 0.02247 0.93805 0.0
H796 H 0.71054 1.01638 0.96342 0.0
H797 H 0.71279 0.9796 0.84724 0.0
H798 H 0.67793 0.98582 0.82062 0.0
H799 H 0.68882 0.95224 0.84717 0.0
H800 H 0.63718 0.91834 0.10931 0.0
H801 H 0.59511 0.94428 0.10361 0.0
H802 H 0.63422 1.00378 0.94378 0.0
C803 C 0.72724 0.96851 0.05224 0.0
C804 C 0.73485 0.95602 0.12937 0.0
C805 C 0.72054 0.93309 0.15774 0.0
C806 C 0.69633 0.92557 0.11792 0.0
C807 C 0.68692 0.94102 0.04937 0.0
C808 C 0.70257 0.96147 1.01412 0.0
C809 C 0.68566 0.97953 0.95699 0.0
C810 C 0.68965 1.00975 0.97775 0.0
C811 C 0.69166 0.97395 0.86241 0.0
C812 C 0.65774 0.96952 0.97964 0.0
C813 C 0.65885 0.94613 0.02777 0.0
C814 C 0.63604 0.93612 0.06942 0.0
C815 C 0.61221 0.95121 0.06691 0.0
C816 C 0.61148 0.97632 0.02426 0.0
C817 C 0.63395 0.98443 0.97546 0.0
H818 H 0.5988 0.71196 0.12802 0.0
H819 H 0.56482 0.78452 0.01829 0.0
H820 H 0.56207 0.763 0.87986 0.0
H821 H 0.62183 0.67925 0.89939 0.0
H822 H 0.61093 0.64701 0.93977 0.0
H823 H 0.62776 0.67061 1.00978 0.0
H824 H 0.58785 0.66751 0.11491 0.0
H825 H 0.57145 0.64412 0.04605 0.0
H826 H 0.55419 0.67455 0.0767 0.0
H827 H 0.54231 0.73189 0.78172 0.0
H828 H 0.50868 0.69726 0.74612 0.0
H829 H 0.54833 0.64215 0.9206 0.0
C830 C 0.59171 0.72348 0.07375 0.0
C831 C 0.58136 0.74961 0.08543 0.0
C832 C 0.5731 0.7645 1.01253 0.0
C833 C 0.57143 0.75227 0.93239 0.0
C834 C 0.57761 0.72501 0.92567 0.0
C835 C 0.58841 0.71083 0.99438 0.0
C836 C 0.58584 0.68074 0.98036 0.0
C837 C 0.61322 0.66871 0.9558 0.0
C838 C 0.57405 0.66596 0.05902 0.0
C839 C 0.56684 0.68061 0.90413 0.0
C840 C 0.56446 0.70602 0.86848 0.0
C841 C 0.54449 0.71183 0.80784 0.0
C842 C 0.52509 0.69213 0.78896 0.0
C843 C 0.52541 0.66714 0.83222 0.0
C844 C 0.5477 0.66081 0.88521 0.0
H845 H 0.78596 0.5587 1.01442 0.0
H846 H 0.84281 0.61396 0.13194 0.0
H847 H 0.86894 0.61476 0.99841 0.0
H848 H 0.82594 0.51776 0.94604 0.0
H849 H 0.81077 0.5089 0.84474 0.0
H850 H 0.79032 0.5224 0.92711 0.0
H851 H 0.77457 0.56063 0.8264 0.0
H852 H 0.79515 0.54696 0.74235 0.0
H853 H 0.79905 0.58168 0.77364 0.0
H854 H 0.89547 0.59888 0.87657 0.0
H855 H 0.92114 0.56484 0.79781 0.0
H856 H 0.84853 0.51719 0.76581 0.0
C857 C 0.80286 0.57244 1.01061 0.0
C858 C 0.81221 0.58633 0.08382 0.0
C859 C 0.83522 0.60308 0.07685 0.0
C860 C 0.85 0.6039 1.0006 0.0
C861 C 0.84138 0.5881 0.93163 0.0
C862 C 0.81793 0.57296 0.93577 0.0
C863 C 0.81629 0.55253 0.86414 0.0
C864 C 0.81058 0.52376 0.89767 0.0
C865 C 0.79501 0.56097 0.79769 0.0
C866 C 0.84432 0.55542 0.82792 0.0
C867 C 0.85767 0.57746 0.8627 0.0
C868 C 0.88504 0.58188 0.84827 0.0
C869 C 0.89956 0.56219 0.80437 0.0
C870 C 0.88691 0.53781 0.77899 0.0
C871 C 0.85867 0.53559 0.78436 0.0
H872 H 0.0799 0.21628 0.96783 0.0
H873 H 0.99904 0.23266 0.05707 0.0
H874 H 0.98303 0.19071 0.98627 0.0
H875 H 0.06168 0.18435 0.76356 0.0
H876 H 0.08845 0.16003 0.77172 0.0
H877 H 0.09238 0.19277 0.81989 0.0
H878 H 0.10215 0.17062 0.9672 0.0
H879 H 0.09902 0.13833 0.91697 0.0
H880 H 0.07872 0.1461 1.00894 0.0
H881 H 0.97664 0.1444 0.90916 0.0
H882 H 0.9802 0.10042 0.83621 0.0
H883 H 0.06627 0.11232 0.80896 0.0
C884 C 0.05867 0.21137 0.97205 0.0
C885 C 0.04081 0.22826 0.01898 0.0
C886 C 1.01322 0.22069 0.02116 0.0
C887 C 1.004 0.19658 0.9816 0.0
C888 C 0.02251 0.17993 0.93963 0.0
C889 C 0.04929 0.18725 0.93434 0.0
C890 C 0.06559 0.16545 0.88973 0.0
C891 C 0.07774 0.1763 0.80627 0.0
C892 C 0.08764 0.15446 0.94946 0.0
C893 C 0.04402 0.14425 0.87152 0.0
C894 C 1.01918 0.15318 0.89957 0.0
C895 C 0.99607 0.13741 0.8875 0.0
C896 C 0.9983 0.11229 0.8457 0.0
C897 C 0.0235 0.10242 0.81695 0.0
C898 C 0.0467 0.11882 0.83094 0.0
H899 H 0.36382 0.03704 0.11192 0.0
H900 H 0.30524 0.04988 0.90992 0.0
H901 H 0.34127 0.04328 0.80198 0.0
H902 H 0.41674 0.07308 0.01879 0.0
H903 H 0.44314 0.05097 0.05524 0.0
H904 H 0.41241 0.0536 0.1151 0.0
H905 H 0.40514 1.00205 0.10419 0.0
H906 H 0.43611 0.99922 0.04533 0.0
H907 H 0.40515 0.98612 1.0007 0.0
H908 H 0.38625 0.0398 0.71593 0.0
H909 H 0.43322 0.03717 0.66299 0.0
H910 H 0.46159 0.02542 0.92294 0.0
C911 C 0.35835 0.03773 0.04484 0.0
C912 C 0.33141 0.04368 0.01968 0.0
C913 C 0.32542 0.04483 0.93112 0.0
C914 C 0.34593 0.04136 0.86936 0.0
C915 C 0.37246 0.03653 0.89674 0.0
C916 C 0.37851 0.03431 0.98278 0.0
C917 C 0.40861 0.03015 0.99679 0.0
C918 C 0.42093 0.05333 0.04959 0.0
C919 C 0.41407 1.00275 0.03925 0.0
C920 C 0.41878 0.03069 0.90539 0.0
C921 C 0.39775 0.03443 0.84827 0.0
C922 C 0.40269 0.03665 0.76052 0.0
C923 C 0.42956 0.03512 0.73086 0.0
C924 C 0.45148 0.03135 0.78835 0.0
C925 C 0.44561 0.0287 0.87675 0.0
H926 H 0.533 0.35563 0.09036 0.0
H927 H 0.4845 0.30729 0.91786 0.0
H928 H 0.48326 0.34554 0.81484 0.0
H929 H 0.5007 0.41576 0.06282 0.0
H930 H 0.53013 0.43735 0.06479 0.0
H931 H 0.53065 0.40545 0.11922 0.0
H932 H 0.57222 0.39042 0.0346 0.0
H933 H 0.57284 0.42253 0.98069 0.0
H934 H 0.57167 0.39182 0.9195 0.0
H935 H 0.48448 0.39203 0.7352 0.0
H936 H 0.4908 0.43892 0.68423 0.0
H937 H 0.53755 0.45714 0.91164 0.0
C938 C 0.52267 0.35279 0.02985 0.0
C939 C 0.50904 0.32809 1.01228 0.0
C940 C 0.49548 0.3256 0.93267 0.0
C941 C 0.4945 0.34744 0.87403 0.0
C942 C 0.50739 0.3718 0.89501 0.0
C943 C 0.52173 0.37426 0.97054 0.0
C944 C 0.53339 0.40257 0.97975 0.0
C945 C 0.52309 0.41612 0.06146 0.0
C946 C 0.56437 0.40179 0.97858 0.0
C947 C 0.52245 0.41626 0.89961 0.0
C948 C 0.50782 0.3981 0.8507 0.0
C949 C 0.49602 0.40617 0.77335 0.0
C950 C 0.49974 0.43297 0.74465 0.0
C951 C 0.51462 0.452 0.79358 0.0
C952 C 0.52592 0.4433 0.87258 0.0
H953 H 0.20952 0.56857 0.02689 0.0
H954 H 0.23137 0.48416 0.03642 0.0
H955 H 0.19017 0.47286 0.95305 0.0
H956 H 0.13916 0.56006 0.0538 0.0
H957 H 0.12959 0.58659 0.98109 0.0
H958 H 0.16157 0.58816 0.03595 0.0
H959 H 0.18596 0.5926 0.89094 0.0
H960 H 0.15404 0.59076 0.83573 0.0
H961 H 0.18046 0.56744 0.80964 0.0
H962 H 0.14363 0.4705 0.87899 0.0
H963 H 0.09921 0.47737 0.81112 0.0
H964 H 0.10747 0.56366 0.84637 0.0
C965 C 0.2059 0.54767 1.01065 0.0
C966 C 0.22406 0.52724 0.03887 0.0
C967 C 0.21828 0.50027 1.01521 0.0
C968 C 0.19467 0.49365 0.96831 0.0
C969 C 0.1769 0.5142 0.94404 0.0
C970 C 0.18251 0.54076 0.96337 0.0
C971 C 0.16004 0.55908 0.93072 0.0
C972 C 0.14681 0.57437 1.00482 0.0
C973 C 0.1708 0.57863 0.8627 0.0
C974 C 0.14053 0.53875 0.89136 0.0
C975 C 0.15064 0.51293 0.89994 0.0
C976 C 0.13583 0.49069 0.87142 0.0
C977 C 0.11037 0.49484 0.83308 0.0
C978 C 0.09944 0.52107 0.82276 0.0
C979 C 0.11507 0.54332 0.85224 0.0
H980 H 0.02632 0.86129 0.30144 0.0
H981 H 0.9888 0.80925 0.48949 0.0
H982 H 0.99008 0.84684 0.594 0.0
H983 H 0.06933 0.89938 0.44988 0.0
H984 H 0.06499 0.93055 0.39236 0.0
H985 H 0.06329 0.89892 0.33615 0.0
H986 H 1.01544 0.91076 0.27776 0.0
H987 H 1.01855 0.94256 0.33142 0.0
H988 H 0.98985 0.92119 0.35206 0.0
H989 H 0.99239 0.8928 0.67584 0.0
H990 H 0.99844 0.93953 0.72777 0.0
H991 H 0.03247 0.96216 0.48345 0.0
C992 C 1.01831 0.85753 0.36452 0.0
C993 C 1.00716 0.8318 0.38582 0.0
C994 C 0.99766 0.82829 0.47058 0.0
C995 C 0.99808 0.84979 0.53045 0.0
C996 C 1.00815 0.87505 0.50568 0.0
C997 C 1.01838 0.87881 0.42468 0.0
C998 C 0.02757 0.90794 0.41247 0.0
C999 C 0.05811 0.90926 0.39678 0.0
C1000 C 1.01187 0.92138 0.33909 0.0
C1001 C 0.02046 0.92037 0.49851 0.0
C1002 C 1.00948 0.90101 0.55185 0.0
C1003 C 1.00129 0.90783 0.63445 0.0
C1004 C 1.00482 0.93462 0.66361 0.0
C1005 C 1.01607 0.95494 0.61053 0.0
C1006 C 0.02375 0.94743 0.52627 0.0
H1007 H 0.69201 1.01878 0.29001 0.0
H1008 H 0.75131 1.00871 0.49154 0.0
H1009 H 0.71568 1.01698 0.59967 0.0
H1010 H 0.65122 0.07126 0.39465 0.0
H1011 H 0.62007 0.0576 0.35326 0.0
H1012 H 0.6508 0.05375 0.29378 0.0
H1013 H 0.64342 1.00209 0.29124 0.0
H1014 H 0.61287 1.00581 0.35143 0.0
H1015 H 0.63928 0.98417 0.39064 0.0
H1016 H 0.67089 0.02195 0.68694 0.0
H1017 H 0.62412 0.02561 0.74088 0.0
H1018 H 0.59488 0.03313 0.48032 0.0
C1019 C 0.69773 1.01896 0.35692 0.0
C1020 C 0.72477 1.01331 0.38186 0.0
C1021 C 0.73106 1.01345 0.47032 0.0
C1022 C 0.71077 1.01788 0.53226 0.0
C1023 C 0.68414 0.02238 0.5052 0.0
C1024 C 0.67778 0.02331 0.41914 0.0
C1025 C 0.64765 0.02736 0.40558 0.0
C1026 C 0.64211 0.05408 0.35908 0.0
C1027 C 0.63508 1.00344 0.35685 0.0
C1028 C 0.63778 0.02827 0.4973 0.0
C1029 C 0.65901 0.02534 0.55422 0.0
C1030 C 0.65433 0.02451 0.64239 0.0
C1031 C 0.62756 0.02663 0.67267 0.0
C1032 C 0.60544 0.02952 0.6154 0.0
C1033 C 0.61104 0.03073 0.52649 0.0
H1034 H 0.5773 0.69956 0.34193 0.0
H1035 H 0.5096 0.74684 0.43092 0.0
H1036 H 0.49717 0.70949 0.52868 0.0
H1037 H 0.54097 0.63718 0.33519 0.0
H1038 H 0.56937 0.61692 0.36606 0.0
H1039 H 0.57467 0.64801 0.3092 0.0
H1040 H 0.60618 0.6655 0.42889 0.0
H1041 H 0.60174 0.63429 0.486 0.0
H1042 H 0.59451 0.66584 0.5378 0.0
H1043 H 0.4909 0.66412 0.61388 0.0
H1044 H 0.49196 0.61825 0.67507 0.0
H1045 H 0.56277 0.60032 0.5254 0.0
C1046 C 0.55959 0.70235 0.38085 0.0
C1047 C 0.54435 0.72675 0.37629 0.0
C1048 C 0.52194 0.72893 0.43202 0.0
C1049 C 0.51457 0.70752 0.4878 0.0
C1050 C 0.52962 0.68363 0.48799 0.0
C1051 C 0.55172 0.68108 0.43556 0.0
C1052 C 0.56405 0.65307 0.44411 0.0
C1053 C 0.56217 0.63791 0.35858 0.0
C1054 C 0.59336 0.65479 0.47611 0.0
C1055 C 0.54586 0.64017 0.5109 0.0
C1056 C 0.52604 0.65806 0.53546 0.0
C1057 C 0.50662 0.6503 0.5952 0.0
C1058 C 0.50755 0.62404 0.63058 0.0
C1059 C 0.52791 0.60531 0.6078 0.0
C1060 C 0.54713 0.61382 0.54605 0.0
H1061 H 0.84398 0.58826 0.40905 0.0
H1062 H 0.82473 0.50551 0.34533 0.0
H1063 H 0.86531 0.49038 0.42468 0.0
H1064 H 0.91452 0.58506 0.39264 0.0
H1065 H 0.92095 0.60643 0.48379 0.0
H1066 H 0.88992 0.60957 0.42533 0.0
H1067 H 0.86477 0.60259 0.56824 0.0
H1068 H 0.89604 0.59772 0.62546 0.0
H1069 H 0.87013 0.57219 0.6287 0.0
H1070 H 0.91107 0.48475 0.49602 0.0
H1071 H 0.95436 0.4876 0.57243 0.0
H1072 H 0.94414 0.57387 0.6013 0.0
C1073 C 0.84791 0.56688 0.41394 0.0
C1074 C 0.83075 0.54804 0.37135 0.0
C1075 C 0.83702 0.52031 0.37838 0.0
C1076 C 0.86028 0.51156 0.42283 0.0
C1077 C 0.87709 0.53067 0.46192 0.0
C1078 C 0.87078 0.55771 0.46016 0.0
C1079 C 0.89227 0.57401 0.50804 0.0
C1080 C 0.9052 0.59499 0.44877 0.0
C1081 C 0.88009 0.58743 0.58733 0.0
C1082 C 0.91238 0.55213 0.53369 0.0
C1083 C 0.90305 0.52729 0.50616 0.0
C1084 C 0.91824 0.50406 0.51891 0.0
C1085 C 0.94302 0.50596 0.56279 0.0
C1086 C 0.95306 0.53092 0.59424 0.0
C1087 C 0.93737 0.55443 0.57842 0.0
loop_
_geom_bond_atom_site_label_1
_geom_bond_atom_site_label_2
_geom_bond_distance
_geom_bond_site_symmetry_2
_ccdc_geom_bond_type
H0 C7 0.929 . S
H1 C10 0.930 . S
H2 C12 0.929 . S
H3 C4 0.969 . S
C4 H3 0.969 . S
C4 O5 1.550 . S
C4 H6 0.973 . S
O5 C4 1.550 . S
O5 C11 1.412 . S
H6 C4 0.973 . S
C7 H0 0.929 . S
C7 C8 1.400 . S
C7 C9 1.364 . S
C8 C7 1.400 . S
C8 C12 1.377 . S
C9 C7 1.364 . S
C9 C10 1.374 . S
C10 H1 0.930 . S
C10 C9 1.374 . S
C10 C11 1.383 . S
C11 O5 1.412 . S
C11 C10 1.383 . S
C11 C12 1.394 . S
C12 H2 0.929 . S
C12 C8 1.377 . S
C12 C11 1.394 . S
H13 C20 0.929 . S
H14 C23 0.930 . S
H15 C25 0.929 . S
H16 C17 0.969 1_455 S
C17 H16 0.969 1_655 S
C17 O18 1.550 . S
C17 H19 0.973 . S
O18 C17 1.550 . S
O18 C24 1.412 . S
H19 C17 0.973 . S
C20 H13 0.929 . S
C20 C21 1.400 . S
C20 C22 1.364 . S
C21 C20 1.400 . S
C21 C25 1.377 . S
C22 C20 1.364 . S
C22 C23 1.374 . S
C23 H14 0.930 . S
C23 C22 1.374 . S
C23 C24 1.383 . S
C24 O18 1.412 . S
C24 C23 1.383 . S
C24 C25 1.394 . S
C25 H15 0.929 . S
C25 C21 1.377 . S
C25 C24 1.394 . S
H26 C33 0.929 . S
H27 C36 0.930 . S
H28 C38 0.929 . S
H29 C30 0.969 1_545 S
C30 H29 0.969 1_565 S
C30 O31 1.550 . S
C30 H32 0.973 . S
O31 C30 1.550 . S
O31 C37 1.412 . S
H32 C30 0.973 . S
C33 H26 0.929 . S
C33 C34 1.400 . S
C33 C35 1.364 . S
C34 C33 1.400 . S
C34 C38 1.377 . S
C35 C33 1.364 . S
C35 C36 1.374 . S
C36 H27 0.930 . S
C36 C35 1.374 . S
C36 C37 1.383 . S
C37 O31 1.412 . S
C37 C36 1.383 . S
C37 C38 1.394 . S
C38 H28 0.929 . S
C38 C34 1.377 . S
C38 C37 1.394 . S
H39 C46 0.929 . S
H40 C49 0.930 . S
H41 C51 0.929 . S
H42 C43 0.969 . S
C43 H42 0.969 . S
C43 O44 1.550 . S
C43 H45 0.973 . S
O44 C43 1.550 . S
O44 C50 1.412 . S
H45 C43 0.973 . S
C46 H39 0.929 . S
C46 C47 1.400 . S
C46 C48 1.364 . S
C47 C46 1.400 . S
C47 C51 1.377 . S
C48 C46 1.364 . S
C48 C49 1.374 . S
C49 H40 0.930 . S
C49 C48 1.374 . S
C49 C50 1.383 . S
C50 O44 1.412 . S
C50 C49 1.383 . S
C50 C51 1.394 . S
C51 H41 0.929 . S
C51 C47 1.377 . S
C51 C50 1.394 . S
H52 C59 0.929 . S
H53 C62 0.930 . S
H54 C64 0.929 . S
H55 C56 0.969 . S
C56 H55 0.969 . S
C56 O57 1.550 . S
C56 H58 0.973 . S
O57 C56 1.550 . S
O57 C63 1.412 . S
H58 C56 0.973 . S
C59 H52 0.929 . S
C59 C60 1.400 1_554 S
C59 C61 1.364 . S
C60 C59 1.400 1_556 S
C60 C64 1.377 . S
C61 C59 1.364 . S
C61 C62 1.374 . S
C62 H53 0.930 . S
C62 C61 1.374 . S
C62 C63 1.383 . S
C63 O57 1.412 . S
C63 C62 1.383 . S
C63 C64 1.394 1_554 S
C64 H54 0.929 . S
C64 C60 1.377 . S
C64 C63 1.394 1_556 S
H65 C72 0.929 . S
H66 C75 0.930 . S
H67 C77 0.929 . S
H68 C69 0.969 . S
C69 H68 0.969 . S
C69 O70 1.550 . S
C69 H71 0.973 . S
O70 C69 1.550 . S
O70 C76 1.412 . S
H71 C69 0.973 . S
C72 H65 0.929 . S
C72 C73 1.400 1_554 S
C72 C74 1.364 . S
C73 C72 1.400 1_556 S
C73 C77 1.377 . S
C74 C72 1.364 . S
C74 C75 1.374 . S
C75 H66 0.930 . S
C75 C74 1.374 . S
C75 C76 1.383 . S
C76 O70 1.412 . S
C76 C75 1.383 . S
C76 C77 1.394 1_554 S
C77 H67 0.929 . S
C77 C73 1.377 . S
C77 C76 1.394 1_556 S
H78 C85 0.929 . S
H79 C88 0.930 . S
H80 C90 0.929 . S
H81 C82 0.969 . S
C82 H81 0.969 . S
C82 O83 1.550 . S
C82 H84 0.973 . S
O83 C82 1.550 . S
O83 C89 1.412 . S
H84 C82 0.973 . S
C85 H78 0.929 . S
C85 C86 1.400 1_554 S
C85 C87 1.364 . S
C86 C85 1.400 1_556 S
C86 C90 1.377 . S
C87 C85 1.364 . S
C87 C88 1.374 . S
C88 H79 0.930 . S
C88 C87 1.374 . S
C88 C89 1.383 . S
C89 O83 1.412 . S
C89 C88 1.383 . S
C89 C90 1.394 1_554 S
C90 H80 0.929 . S
C90 C86 1.377 . S
C90 C89 1.394 1_556 S
H91 C98 0.929 . S
H92 C101 0.930 . S
H93 C103 0.929 . S
H94 C95 0.969 . S
C95 H94 0.969 . S
C95 O96 1.550 . S
C95 H97 0.973 . S
O96 C95 1.550 . S
O96 C102 1.412 . S
H97 C95 0.973 . S
C98 H91 0.929 . S
C98 C99 1.400 1_554 S
C98 C100 1.364 . S
C99 C98 1.400 1_556 S
C99 C103 1.377 . S
C100 C98 1.364 . S
C100 C101 1.374 . S
C101 H92 0.930 . S
C101 C100 1.374 . S
C101 C102 1.383 . S
C102 O96 1.412 . S
C102 C101 1.383 . S
C102 C103 1.394 1_554 S
C103 H93 0.929 . S
C103 C99 1.377 . S
C103 C102 1.394 1_556 S
Tb104 N133 2.617 . S
Tb104 N139 2.572 . S
Tb104 O148 2.465 1_655 S
Tb104 O149 2.387 1_545 S
Tb104 O151 2.428 . S
Tb104 O152 2.308 1_655 S
Tb104 O156 2.349 1_655 S
Tb104 O159 2.393 . S
Tb104 C168 2.802 . S
C105 N106 1.379 . S
C105 C108 1.416 . S
C105 C112 1.424 . S
N106 C105 1.379 . S
N106 C109 1.334 . S
N106 Tb115 2.617 1_545 S
C107 C109 1.390 . S
C107 C110 1.339 . S
C107 H127 0.930 . S
C108 C105 1.416 . S
C108 C110 1.416 . S
C108 C114 1.448 1_556 S
C109 N106 1.334 . S
C109 C107 1.390 . S
C109 H120 0.930 1_545 S
C110 C107 1.339 . S
C110 C108 1.416 . S
C110 H131 0.930 . S
C111 C112 1.413 1_554 S
C111 C113 1.427 . S
C111 C117 1.416 . S
C112 C105 1.424 . S
C112 C111 1.413 1_556 S
C112 N116 1.361 . S
C113 C111 1.427 . S
C113 C114 1.328 . S
C113 H128 0.929 . S
C114 C108 1.448 1_554 S
C114 C113 1.328 . S
C114 H129 0.930 . S
Tb115 N106 2.617 1_565 S
Tb115 N116 2.572 1_565 S
Tb115 O150 2.349 . S
Tb115 O153 2.393 . S
Tb115 O154 2.465 . S
Tb115 O155 2.387 1_565 S
Tb115 O157 2.428 . S
Tb115 O158 2.308 1_465 S
Tb115 C179 2.802 . S
N116 C112 1.361 . S
N116 Tb115 2.572 1_545 S
N116 C118 1.340 . S
C117 C111 1.416 . S
C117 C119 1.332 . S
C117 H125 0.931 . S
C118 N116 1.340 . S
C118 C119 1.407 1_556 S
C118 H124 0.930 1_455 S
C119 C117 1.332 . S
C119 C118 1.407 1_554 S
C119 H121 0.915 1_455 S
H120 C109 0.930 1_565 S
H121 C119 0.915 1_655 S
H122 C137 0.930 . S
H123 C144 0.929 . S
H124 C118 0.930 1_655 S
H125 C117 0.931 . S
H126 C140 0.930 . S
H127 C107 0.930 . S
H128 C113 0.929 . S
H129 C114 0.930 . S
H130 C135 0.930 . S
H131 C110 0.930 . S
H132 C143 0.931 . S
N133 Tb104 2.617 . S
N133 C134 1.379 . S
N133 C137 1.334 . S
C134 N133 1.379 . S
C134 C136 1.416 1_545 S
C134 C142 1.428 . S
C135 H130 0.930 . S
C135 C137 1.390 . S
C135 C138 1.339 1_545 S
C136 C134 1.416 1_565 S
C136 C138 1.416 . S
C136 C169 1.448 . S
C137 H122 0.930 . S
C137 N133 1.334 . S
C137 C135 1.390 . S
C138 C135 1.339 1_565 S
C138 C136 1.416 . S
C138 H145 0.930 . S
N139 Tb104 2.572 . S
N139 C140 1.340 1_655 S
N139 C142 1.376 . S
C140 H126 0.930 . S
C140 N139 1.340 1_455 S
C140 C144 1.407 1_545 S
C141 C142 1.395 1_565 S
C141 C143 1.416 . S
C141 C170 1.427 . S
C142 C134 1.428 . S
C142 N139 1.376 . S
C142 C141 1.395 1_545 S
C143 H132 0.931 . S
C143 C141 1.416 . S
C143 C144 1.332 1_655 S
C144 H123 0.929 . S
C144 C140 1.407 1_565 S
C144 C143 1.332 1_455 S
H145 C138 0.930 . S
H146 C169 0.930 . S
H147 C170 0.929 . S
O148 Tb104 2.465 1_455 S
O148 C168 1.264 1_455 S
O149 Tb104 2.387 1_565 S
O149 C160 1.264 . S
O150 Tb115 2.349 . S
O150 C160 1.243 1_455 S
O151 Tb104 2.428 . S
O151 C168 1.256 . S
O152 Tb104 2.308 1_455 S
O152 C167 1.266 . S
O153 Tb115 2.393 . S
O153 C167 1.248 1_565 S
O154 Tb115 2.465 . S
O154 C179 1.264 . S
O155 Tb115 2.387 1_545 S
O155 C171 1.264 . S
O156 Tb104 2.349 1_455 S
O156 C171 1.243 . S
O157 Tb115 2.428 . S
O157 C179 1.256 . S
O158 Tb115 2.308 1_645 S
O158 C178 1.266 . S
O159 Tb104 2.393 . S
O159 C178 1.248 . S
C160 O149 1.264 . S
C160 O150 1.243 1_655 S
C161 C164 1.399 . S
C161 C166 1.383 . S
C161 C168 1.496 . S
C162 C163 1.399 . S
C162 C166 1.389 . S
C163 C162 1.399 . S
C163 C165 1.380 . S
C163 H180 0.929 . S
C164 C161 1.399 . S
C164 C165 1.392 . S
C164 H181 0.929 . S
C165 C163 1.380 . S
C165 C164 1.392 . S
C165 H182 0.929 . S
C166 C161 1.383 . S
C166 C162 1.389 . S
C166 H183 0.931 1_655 S
C167 O152 1.266 . S
C167 O153 1.248 1_545 S
C168 Tb104 2.802 . S
C168 O148 1.264 1_655 S
C168 O151 1.256 . S
C168 C161 1.496 . S
C169 C136 1.448 . S
C169 H146 0.930 . S
C169 C170 1.328 . S
C170 C141 1.427 . S
C170 H147 0.929 . S
C170 C169 1.328 . S
C171 O155 1.264 . S
C171 O156 1.243 . S
C172 C175 1.399 . S
C172 C176 1.383 . S
C172 C179 1.496 . S
C173 C174 1.399 . S
C173 C176 1.389 . S
C174 C173 1.399 . S
C174 C177 1.380 . S
C174 H184 0.929 1_556 S
C175 C172 1.399 . S
C175 C177 1.392 . S
C175 H185 0.929 . S
C176 C172 1.383 . S
C176 C173 1.389 . S
C176 H186 0.931 . S
C177 C174 1.380 . S
C177 C175 1.392 . S
C177 H187 0.929 . S
C178 O158 1.266 . S
C178 O159 1.248 . S
C179 Tb115 2.802 . S
C179 O154 1.264 . S
C179 O157 1.256 . S
C179 C172 1.496 . S
H180 C163 0.929 . S
H181 C164 0.929 . S
H182 C165 0.929 . S
H183 C166 0.931 1_455 S
H184 C174 0.929 1_554 S
H185 C175 0.929 . S
H186 C176 0.931 . S
H187 C177 0.929 . S
Tb188 N217 2.617 . S
Tb188 N223 2.572 . S
Tb188 O232 2.465 . S
Tb188 O233 2.387 . S
Tb188 O235 2.428 . S
Tb188 O236 2.308 . S
Tb188 O240 2.349 1_545 S
Tb188 O243 2.393 . S
Tb188 C252 2.802 . S
C189 N190 1.379 . S
C189 C192 1.416 . S
C189 C196 1.424 . S
N190 C189 1.379 . S
N190 C193 1.334 . S
N190 Tb199 2.617 . S
C191 C193 1.390 . S
C191 C194 1.339 . S
C191 H211 0.930 . S
C192 C189 1.416 . S
C192 C194 1.416 . S
C192 C198 1.448 . S
C193 N190 1.334 . S
C193 C191 1.390 . S
C193 H204 0.930 . S
C194 C191 1.339 . S
C194 C192 1.416 . S
C194 H215 0.930 . S
C195 C196 1.413 . S
C195 C197 1.427 . S
C195 C201 1.416 . S
C196 C189 1.424 . S
C196 C195 1.413 . S
C196 N200 1.361 . S
C197 C195 1.427 . S
C197 C198 1.328 . S
C197 H212 0.929 . S
C198 C192 1.448 . S
C198 C197 1.328 . S
C198 H213 0.930 . S
Tb199 N190 2.617 . S
Tb199 N200 2.572 . S
Tb199 O234 2.349 1_565 S
Tb199 O237 2.393 . S
Tb199 O238 2.465 . S
Tb199 O239 2.387 . S
Tb199 O241 2.428 . S
Tb199 O242 2.308 1_565 S
Tb199 C263 2.802 . S
N200 C196 1.361 . S
N200 Tb199 2.572 . S
N200 C202 1.340 . S
C201 C195 1.416 . S
C201 C203 1.332 . S
C201 H209 0.931 . S
C202 N200 1.340 . S
C202 C203 1.407 . S
C202 H208 0.930 . S
C203 C201 1.332 . S
C203 C202 1.407 . S
C203 H205 0.929 . S
H204 C193 0.930 . S
H205 C203 0.929 . S
H206 C221 0.930 . S
H207 C228 0.929 . S
H208 C202 0.930 . S
H209 C201 0.931 . S
H210 C224 0.930 . S
H211 C191 0.930 . S
H212 C197 0.929 . S
H213 C198 0.930 . S
H214 C219 0.930 . S
H215 C194 0.930 . S
H216 C227 0.931 . S
N217 Tb188 2.617 . S
N217 C218 1.379 . S
N217 C221 1.334 . S
C218 N217 1.379 . S
C218 C220 1.416 . S
C218 C226 1.424 . S
C219 H214 0.930 . S
C219 C221 1.390 . S
C219 C222 1.339 . S
C220 C218 1.416 . S
C220 C222 1.416 . S
C220 C253 1.448 . S
C221 H206 0.930 . S
C221 N217 1.334 . S
C221 C219 1.390 . S
C222 C219 1.339 . S
C222 C220 1.416 . S
C222 H229 0.930 . S
N223 Tb188 2.572 . S
N223 C224 1.340 . S
N223 C226 1.361 . S
C224 H210 0.930 . S
C224 N223 1.340 . S
C224 C228 1.407 . S
C225 C226 1.413 . S
C225 C227 1.416 . S
C225 C254 1.427 . S
C226 C218 1.424 . S
C226 N223 1.361 . S
C226 C225 1.413 . S
C227 H216 0.931 . S
C227 C225 1.416 . S
C227 C228 1.332 . S
C228 H207 0.929 . S
C228 C224 1.407 . S
C228 C227 1.332 . S
H229 C222 0.930 . S
H230 C253 0.930 . S
H231 C254 0.929 . S
O232 Tb188 2.465 . S
O232 C252 1.264 . S
O233 Tb188 2.387 . S
O233 C244 1.264 . S
O234 Tb199 2.349 1_545 S
O234 C244 1.243 . S
O235 Tb188 2.428 . S
O235 C252 1.256 . S
O236 Tb188 2.308 . S
O236 C251 1.266 . S
O237 Tb199 2.393 . S
O237 C251 1.248 1_565 S
O238 Tb199 2.465 . S
O238 C263 1.264 . S
O239 Tb199 2.387 . S
O239 C255 1.264 . S
O240 Tb188 2.349 1_565 S
O240 C255 1.243 . S
O241 Tb199 2.428 . S
O241 C263 1.256 . S
O242 Tb199 2.308 1_545 S
O242 C262 1.266 . S
O243 Tb188 2.393 . S
O243 C262 1.248 . S
C244 O233 1.264 . S
C244 O234 1.243 . S
C245 C248 1.399 1_556 S
C245 C250 1.383 . S
C245 C252 1.496 . S
C246 C247 1.399 . S
C246 C250 1.389 1_554 S
C247 C246 1.399 . S
C247 C249 1.380 . S
C247 H264 0.929 . S
C248 C245 1.399 1_554 S
C248 C249 1.392 . S
C248 H265 0.929 . S
C249 C247 1.380 . S
C249 C248 1.392 . S
C249 H266 0.929 . S
C250 C245 1.383 . S
C250 C246 1.389 1_556 S
C250 H267 0.931 . S
C251 O236 1.266 . S
C251 O237 1.248 1_545 S
C252 Tb188 2.802 . S
C252 O232 1.264 . S
C252 O235 1.256 . S
C252 C245 1.496 . S
C253 C220 1.448 . S
C253 H230 0.930 . S
C253 C254 1.328 . S
C254 C225 1.427 . S
C254 H231 0.929 . S
C254 C253 1.328 . S
C255 O239 1.264 . S
C255 O240 1.243 . S
C256 C259 1.399 . S
C256 C260 1.383 1_565 S
C256 C263 1.496 . S
C257 C258 1.399 1_545 S
C257 C260 1.389 . S
C258 C257 1.399 1_565 S
C258 C261 1.380 . S
C258 H268 0.929 . S
C259 C256 1.399 . S
C259 C261 1.392 . S
C259 H269 0.929 . S
C260 C256 1.383 1_545 S
C260 C257 1.389 . S
C260 H270 0.931 . S
C261 C258 1.380 . S
C261 C259 1.392 . S
C261 H271 0.929 . S
C262 O242 1.266 . S
C262 O243 1.248 . S
C263 Tb199 2.802 . S
C263 O238 1.264 . S
C263 O241 1.256 . S
C263 C256 1.496 . S
H264 C247 0.929 . S
H265 C248 0.929 . S
H266 C249 0.929 . S
H267 C250 0.931 . S
H268 C258 0.929 . S
H269 C259 0.929 . S
H270 C260 0.931 . S
H271 C261 0.929 . S
Tb272 N301 2.617 . S
Tb272 N307 2.572 . S
Tb272 O316 2.465 . S
Tb272 O317 2.387 . S
Tb272 O319 2.428 . S
Tb272 O320 2.308 . S
Tb272 O324 2.349 . S
Tb272 O327 2.393 . S
Tb272 C336 2.802 . S
C273 N274 1.379 . S
C273 C276 1.416 . S
C273 C280 1.424 . S
N274 C273 1.379 . S
N274 C277 1.334 . S
N274 Tb283 2.617 . S
C275 C277 1.390 . S
C275 C278 1.339 . S
C275 H295 0.930 . S
C276 C273 1.416 . S
C276 C278 1.416 . S
C276 C282 1.448 1_556 S
C277 N274 1.334 . S
C277 C275 1.390 . S
C277 H288 0.930 . S
C278 C275 1.339 . S
C278 C276 1.416 . S
C278 H299 0.930 . S
C279 C280 1.413 1_554 S
C279 C281 1.427 . S
C279 C285 1.416 . S
C280 C273 1.424 . S
C280 C279 1.413 1_556 S
C280 N284 1.361 . S
C281 C279 1.427 . S
C281 C282 1.328 . S
C281 H296 0.929 . S
C282 C276 1.448 1_554 S
C282 C281 1.328 . S
C282 H297 0.930 . S
Tb283 N274 2.617 . S
Tb283 N284 2.572 . S
Tb283 O318 2.349 . S
Tb283 O321 2.393 . S
Tb283 O322 2.465 . S
Tb283 O323 2.387 . S
Tb283 O325 2.428 . S
Tb283 O326 2.308 . S
Tb283 C347 2.802 . S
N284 C280 1.361 . S
N284 Tb283 2.572 . S
N284 C286 1.340 . S
C285 C279 1.416 . S
C285 C287 1.332 . S
C285 H293 0.931 . S
C286 N284 1.340 . S
C286 C287 1.407 1_556 S
C286 H292 0.930 . S
C287 C285 1.332 . S
C287 C286 1.407 1_554 S
C287 H289 0.929 . S
H288 C277 0.930 . S
H289 C287 0.929 . S
H290 C305 0.930 . S
H291 C312 0.929 . S
H292 C286 0.930 . S
H293 C285 0.931 . S
H294 C308 0.930 . S
H295 C275 0.930 . S
H296 C281 0.929 . S
H297 C282 0.930 . S
H298 C303 0.930 . S
H299 C278 0.930 . S
H300 C311 0.931 . S
N301 Tb272 2.617 . S
N301 C302 1.379 . S
N301 C305 1.334 . S
C302 N301 1.379 . S
C302 C304 1.416 . S
C302 C310 1.424 . S
C303 H298 0.930 . S
C303 C305 1.390 . S
C303 C306 1.339 . S
C304 C302 1.416 . S
C304 C306 1.416 . S
C304 C337 1.448 . S
C305 H290 0.930 . S
C305 N301 1.334 . S
C305 C303 1.390 . S
C306 C303 1.339 . S
C306 C304 1.416 . S
C306 H313 0.930 . S
N307 Tb272 2.572 . S
N307 C308 1.340 . S
N307 C310 1.361 . S
C308 H294 0.930 . S
C308 N307 1.340 . S
C308 C312 1.407 . S
C309 C310 1.413 . S
C309 C311 1.416 . S
C309 C338 1.427 . S
C310 C302 1.424 . S
C310 N307 1.361 . S
C310 C309 1.413 . S
C311 H300 0.931 . S
C311 C309 1.416 . S
C311 C312 1.332 . S
C312 H291 0.929 . S
C312 C308 1.407 . S
C312 C311 1.332 . S
H313 C306 0.930 . S
H314 C337 0.930 . S
H315 C338 0.929 . S
O316 Tb272 2.465 . S
O316 C336 1.264 . S
O317 Tb272 2.387 . S
O317 C328 1.264 . S
O318 Tb283 2.349 . S
O318 C328 1.243 . S
O319 Tb272 2.428 . S
O319 C336 1.256 . S
O320 Tb272 2.308 . S
O320 C335 1.266 . S
O321 Tb283 2.393 . S
O321 C335 1.248 . S
O322 Tb283 2.465 . S
O322 C347 1.264 . S
O323 Tb283 2.387 . S
O323 C339 1.264 . S
O324 Tb272 2.349 . S
O324 C339 1.243 . S
O325 Tb283 2.428 . S
O325 C347 1.256 . S
O326 Tb283 2.308 . S
O326 C346 1.266 . S
O327 Tb272 2.393 . S
O327 C346 1.248 . S
C328 O317 1.264 . S
C328 O318 1.243 . S
C329 C332 1.399 . S
C329 C334 1.383 . S
C329 C336 1.496 . S
C330 C331 1.399 . S
C330 C334 1.389 . S
C331 C330 1.399 . S
C331 C333 1.380 . S
C331 H348 0.929 . S
C332 C329 1.399 . S
C332 C333 1.392 . S
C332 H349 0.929 . S
C333 C331 1.380 . S
C333 C332 1.392 . S
C333 H350 0.929 . S
C334 C329 1.383 . S
C334 C330 1.389 . S
C334 H351 0.931 . S
C335 O320 1.266 . S
C335 O321 1.248 . S
C336 Tb272 2.802 . S
C336 O316 1.264 . S
C336 O319 1.256 . S
C336 C329 1.496 . S
C337 C304 1.448 . S
C337 H314 0.930 . S
C337 C338 1.328 . S
C338 C309 1.427 . S
C338 H315 0.929 . S
C338 C337 1.328 . S
C339 O323 1.264 . S
C339 O324 1.243 . S
C340 C343 1.399 . S
C340 C344 1.383 . S
C340 C347 1.496 . S
C341 C342 1.399 . S
C341 C344 1.389 . S
C342 C341 1.399 . S
C342 C345 1.380 . S
C342 H352 0.929 1_556 S
C343 C340 1.399 . S
C343 C345 1.392 . S
C343 H353 0.929 . S
C344 C340 1.383 . S
C344 C341 1.389 . S
C344 H354 0.931 . S
C345 C342 1.380 . S
C345 C343 1.392 . S
C345 H355 0.929 . S
C346 O326 1.266 . S
C346 O327 1.248 . S
C347 Tb283 2.802 . S
C347 O322 1.264 . S
C347 O325 1.256 . S
C347 C340 1.496 . S
H348 C331 0.929 . S
H349 C332 0.929 . S
H350 C333 0.929 . S
H351 C334 0.931 . S
H352 C342 0.929 1_554 S
H353 C343 0.929 . S
H354 C344 0.931 . S
H355 C345 0.929 . S
Tb356 N385 2.617 . S
Tb356 N391 2.572 . S
Tb356 O400 2.465 . S
Tb356 O401 2.387 1_455 S
Tb356 O403 2.428 . S
Tb356 O404 2.308 . S
Tb356 O408 2.349 . S
Tb356 O411 2.393 . S
Tb356 C420 2.802 . S
C357 N358 1.379 . S
C357 C360 1.416 . S
C357 C364 1.424 . S
N358 C357 1.379 . S
N358 C361 1.331 1_455 S
N358 Tb367 2.617 1_455 S
C359 C361 1.378 1_455 S
C359 C362 1.339 . S
C359 H379 0.930 . S
C360 C357 1.416 . S
C360 C362 1.416 . S
C360 C366 1.448 1_556 S
C361 N358 1.331 1_655 S
C361 C359 1.378 1_655 S
C361 H372 0.946 . S
C362 C359 1.339 . S
C362 C360 1.416 . S
C362 H383 0.930 . S
C363 C364 1.413 1_554 S
C363 C365 1.427 . S
C363 C369 1.416 . S
C364 C357 1.424 . S
C364 C363 1.413 1_556 S
C364 N368 1.361 . S
C365 C363 1.427 . S
C365 C366 1.328 . S
C365 H380 0.929 . S
C366 C360 1.448 1_554 S
C366 C365 1.328 . S
C366 H381 0.930 . S
Tb367 N358 2.617 1_655 S
Tb367 N368 2.572 1_655 S
Tb367 O402 2.349 . S
Tb367 O405 2.393 . S
Tb367 O406 2.465 . S
Tb367 O407 2.387 1_655 S
Tb367 O409 2.428 . S
Tb367 O410 2.308 1_655 S
Tb367 C431 2.802 . S
N368 C364 1.361 . S
N368 Tb367 2.572 1_455 S
N368 C370 1.340 . S
C369 C363 1.416 . S
C369 C371 1.332 . S
C369 H377 0.931 . S
C370 N368 1.340 . S
C370 C371 1.407 1_556 S
C370 H376 0.930 . S
C371 C369 1.332 . S
C371 C370 1.407 1_554 S
C371 H373 0.929 . S
H372 C361 0.946 . S
H373 C371 0.929 . S
H374 C389 0.930 . S
H375 C396 0.929 . S
H376 C370 0.930 . S
H377 C369 0.931 . S
H378 C392 0.930 . S
H379 C359 0.930 . S
H380 C365 0.929 . S
H381 C366 0.930 . S
H382 C387 0.930 . S
H383 C362 0.930 . S
H384 C395 0.931 . S
N385 Tb356 2.617 . S
N385 C386 1.379 . S
N385 C389 1.334 . S
C386 N385 1.379 . S
C386 C388 1.416 1_455 S
C386 C394 1.424 . S
C387 H382 0.930 . S
C387 C389 1.390 . S
C387 C390 1.339 1_455 S
C388 C386 1.416 1_655 S
C388 C390 1.416 . S
C388 C421 1.448 . S
C389 H374 0.930 . S
C389 N385 1.334 . S
C389 C387 1.390 . S
C390 C387 1.339 1_655 S
C390 C388 1.416 . S
C390 H397 0.930 . S
N391 Tb356 2.572 . S
N391 C392 1.340 . S
N391 C394 1.363 . S
C392 H378 0.930 . S
C392 N391 1.340 . S
C392 C396 1.407 1_455 S
C393 C394 1.410 1_655 S
C393 C395 1.416 . S
C393 C422 1.427 . S
C394 C386 1.424 . S
C394 N391 1.363 . S
C394 C393 1.410 1_455 S
C395 H384 0.931 . S
C395 C393 1.416 . S
C395 C396 1.332 . S
C396 H375 0.929 . S
C396 C392 1.407 1_655 S
C396 C395 1.332 . S
H397 C390 0.930 . S
H398 C421 0.930 . S
H399 C422 0.929 . S
O400 Tb356 2.465 . S
O400 C420 1.264 . S
O401 Tb356 2.387 1_655 S
O401 C412 1.264 . S
O402 Tb367 2.349 . S
O402 C412 1.243 . S
O403 Tb356 2.428 . S
O403 C420 1.256 . S
O404 Tb356 2.308 . S
O404 C419 1.266 . S
O405 Tb367 2.393 . S
O405 C419 1.248 1_655 S
O406 Tb367 2.465 . S
O406 C431 1.264 . S
O407 Tb367 2.387 1_455 S
O407 C423 1.264 . S
O408 Tb356 2.349 . S
O408 C423 1.243 . S
O409 Tb367 2.428 . S
O409 C431 1.256 . S
O410 Tb367 2.308 1_455 S
O410 C430 1.266 . S
O411 Tb356 2.393 . S
O411 C430 1.248 . S
C412 O401 1.264 . S
C412 O402 1.243 . S
C413 C416 1.399 . S
C413 C418 1.383 . S
C413 C420 1.496 . S
C414 C415 1.399 . S
C414 C418 1.389 . S
C415 C414 1.399 . S
C415 C417 1.380 . S
C415 H432 0.929 . S
C416 C413 1.399 . S
C416 C417 1.392 . S
C416 H433 0.929 . S
C417 C415 1.380 . S
C417 C416 1.392 . S
C417 H434 0.929 . S
C418 C413 1.383 . S
C418 C414 1.389 . S
C418 H435 0.931 . S
C419 O404 1.266 . S
C419 O405 1.248 1_455 S
C420 Tb356 2.802 . S
C420 O400 1.264 . S
C420 O403 1.256 . S
C420 C413 1.496 . S
C421 C388 1.448 . S
C421 H398 0.930 . S
C421 C422 1.328 . S
C422 C393 1.427 . S
C422 H399 0.929 . S
C422 C421 1.328 . S
C423 O407 1.264 . S
C423 O408 1.243 . S
C424 C427 1.399 . S
C424 C428 1.383 . S
C424 C431 1.496 . S
C425 C426 1.399 . S
C425 C428 1.389 . S
C426 C425 1.399 . S
C426 C429 1.380 . S
C426 H436 0.929 1_556 S
C427 C424 1.399 . S
C427 C429 1.392 . S
C427 H437 0.929 . S
C428 C424 1.383 . S
C428 C425 1.389 . S
C428 H438 0.931 . S
C429 C426 1.380 . S
C429 C427 1.392 . S
C429 H439 0.929 . S
C430 O410 1.266 . S
C430 O411 1.248 . S
C431 Tb367 2.802 . S
C431 O406 1.264 . S
C431 O409 1.256 . S
C431 C424 1.496 . S
H432 C415 0.929 . S
H433 C416 0.929 . S
H434 C417 0.929 . S
H435 C418 0.931 . S
H436 C426 0.929 1_554 S
H437 C427 0.929 . S
H438 C428 0.931 . S
H439 C429 0.929 . S
H440 C452 0.930 . S
H441 C454 0.957 . S
H442 C455 0.930 1_565 S
H443 C459 0.959 . S
H444 C459 0.959 . S
H445 C459 0.961 . S
H446 C460 0.960 . S
H447 C460 0.961 . S
H448 C460 0.959 . S
H449 C463 0.929 . S
H450 C464 0.931 . S
H451 C466 0.930 . S
C452 H440 0.930 . S
C452 C453 1.399 . S
C452 C457 1.399 . S
C453 C452 1.399 . S
C453 C454 1.376 . S
C454 H441 0.957 . S
C454 C453 1.376 . S
C454 C455 1.388 . S
C455 H442 0.930 1_545 S
C455 C454 1.388 . S
C455 C456 1.390 . S
C456 C455 1.390 . S
C456 C457 1.394 . S
C456 C462 1.465 . S
C457 C452 1.399 . S
C457 C456 1.394 . S
C457 C458 1.516 . S
C458 C457 1.516 . S
C458 C459 1.502 . S
C458 C460 1.561 . S
C458 C461 1.526 . S
C459 H443 0.959 . S
C459 H444 0.959 . S
C459 H445 0.961 . S
C459 C458 1.502 . S
C460 H446 0.960 . S
C460 H447 0.961 . S
C460 H448 0.959 . S
C460 C458 1.561 . S
C461 C458 1.526 . S
C461 C462 1.396 . S
C461 C466 1.390 . S
C462 C456 1.465 . S
C462 C461 1.396 . S
C462 C463 1.399 1_545 S
C463 H449 0.929 . S
C463 C462 1.399 1_565 S
C463 C464 1.385 . S
C464 H450 0.931 . S
C464 C463 1.385 . S
C464 C465 1.389 1_565 S
C465 C464 1.389 1_545 S
C465 C466 1.387 . S
C466 H451 0.930 . S
C466 C461 1.390 . S
C466 C465 1.387 . S
H467 C479 0.930 . S
H468 C481 0.930 . S
H469 C482 0.930 . S
H470 C486 0.959 . S
H471 C486 0.959 . S
H472 C486 0.961 . S
H473 C487 0.960 . S
H474 C487 0.961 . S
H475 C487 0.959 . S
H476 C490 0.929 . S
H477 C491 0.931 . S
H478 C493 0.930 . S
C479 H467 0.930 . S
C479 C480 1.399 . S
C479 C484 1.399 . S
C480 C479 1.399 . S
C480 C481 1.376 . S
C481 H468 0.930 . S
C481 C480 1.376 . S
C481 C482 1.388 . S
C482 H469 0.930 . S
C482 C481 1.388 . S
C482 C483 1.390 . S
C483 C482 1.390 . S
C483 C484 1.394 . S
C483 C489 1.465 . S
C484 C479 1.399 . S
C484 C483 1.394 . S
C484 C485 1.516 . S
C485 C484 1.516 . S
C485 C486 1.502 . S
C485 C487 1.561 . S
C485 C488 1.526 . S
C486 H470 0.959 . S
C486 H471 0.959 . S
C486 H472 0.961 . S
C486 C485 1.502 . S
C487 H473 0.960 . S
C487 H474 0.961 . S
C487 H475 0.959 . S
C487 C485 1.561 . S
C488 C485 1.526 . S
C488 C489 1.396 . S
C488 C493 1.390 . S
C489 C483 1.465 . S
C489 C488 1.396 . S
C489 C490 1.399 . S
C490 H476 0.929 . S
C490 C489 1.399 . S
C490 C491 1.385 . S
C491 H477 0.931 . S
C491 C490 1.385 . S
C491 C492 1.389 . S
C492 C491 1.389 . S
C492 C493 1.387 . S
C493 H478 0.930 . S
C493 C488 1.390 . S
C493 C492 1.387 . S
H494 C506 0.930 . S
H495 C508 0.930 . S
H496 C509 0.930 . S
H497 C513 0.959 . S
H498 C513 0.959 . S
H499 C513 0.961 . S
H500 C514 0.960 . S
H501 C514 0.961 . S
H502 C514 0.959 . S
H503 C517 0.929 . S
H504 C518 0.931 . S
H505 C520 0.930 . S
C506 H494 0.930 . S
C506 C507 1.399 . S
C506 C511 1.399 . S
C507 C506 1.399 . S
C507 C508 1.376 . S
C508 H495 0.930 . S
C508 C507 1.376 . S
C508 C509 1.388 . S
C509 H496 0.930 . S
C509 C508 1.388 . S
C509 C510 1.390 . S
C510 C509 1.390 . S
C510 C511 1.394 . S
C510 C516 1.465 . S
C511 C506 1.399 . S
C511 C510 1.394 . S
C511 C512 1.516 . S
C512 C511 1.516 . S
C512 C513 1.502 . S
C512 C514 1.561 . S
C512 C515 1.526 . S
C513 H497 0.959 . S
C513 H498 0.959 . S
C513 H499 0.961 . S
C513 C512 1.502 . S
C514 H500 0.960 . S
C514 H501 0.961 . S
C514 H502 0.959 . S
C514 C512 1.561 . S
C515 C512 1.526 . S
C515 C516 1.396 . S
C515 C520 1.390 . S
C516 C510 1.465 . S
C516 C515 1.396 . S
C516 C517 1.399 . S
C517 H503 0.929 . S
C517 C516 1.399 . S
C517 C518 1.385 . S
C518 H504 0.931 . S
C518 C517 1.385 . S
C518 C519 1.389 . S
C519 C518 1.389 . S
C519 C520 1.387 . S
C520 H505 0.930 . S
C520 C515 1.390 . S
C520 C519 1.387 . S
H521 C533 0.930 . S
H522 C535 0.930 . S
H523 C536 0.930 . S
H524 C540 0.959 . S
H525 C540 0.959 . S
H526 C540 0.961 . S
H527 C541 0.960 . S
H528 C541 0.961 . S
H529 C541 0.959 . S
H530 C544 0.929 . S
H531 C545 0.931 . S
H532 C547 0.930 . S
C533 H521 0.930 . S
C533 C534 1.399 . S
C533 C538 1.399 . S
C534 C533 1.399 . S
C534 C535 1.376 . S
C535 H522 0.930 . S
C535 C534 1.376 . S
C535 C536 1.388 . S
C536 H523 0.930 . S
C536 C535 1.388 . S
C536 C537 1.390 . S
C537 C536 1.390 . S
C537 C538 1.394 . S
C537 C543 1.465 . S
C538 C533 1.399 . S
C538 C537 1.394 . S
C538 C539 1.516 . S
C539 C538 1.516 . S
C539 C540 1.502 1_455 S
C539 C541 1.561 . S
C539 C542 1.526 . S
C540 H524 0.959 . S
C540 H525 0.959 . S
C540 H526 0.961 . S
C540 C539 1.502 1_655 S
C541 H527 0.960 . S
C541 H528 0.961 . S
C541 H529 0.959 . S
C541 C539 1.561 . S
C542 C539 1.526 . S
C542 C543 1.396 . S
C542 C547 1.390 . S
C543 C537 1.465 . S
C543 C542 1.396 . S
C543 C544 1.399 . S
C544 H530 0.929 . S
C544 C543 1.399 . S
C544 C545 1.385 . S
C545 H531 0.931 . S
C545 C544 1.385 . S
C545 C546 1.389 . S
C546 C545 1.389 . S
C546 C547 1.387 . S
C547 H532 0.930 . S
C547 C542 1.390 . S
C547 C546 1.387 . S
H548 C560 0.930 . S
H549 C562 0.930 . S
H550 C563 0.930 . S
H551 C567 0.959 1_554 S
H552 C567 0.959 . S
H553 C567 0.961 1_554 S
H554 C568 0.960 . S
H555 C568 0.961 . S
H556 C568 0.959 . S
H557 C571 0.929 1_554 S
H558 C572 0.931 . S
H559 C574 0.930 . S
C560 H548 0.930 . S
C560 C561 1.399 . S
C560 C565 1.399 . S
C561 C560 1.399 . S
C561 C562 1.376 1_565 S
C562 H549 0.930 . S
C562 C561 1.376 1_545 S
C562 C563 1.388 . S
C563 H550 0.930 . S
C563 C562 1.388 . S
C563 C564 1.390 . S
C564 C563 1.390 . S
C564 C565 1.394 1_545 S
C564 C570 1.465 1_554 S
C565 C560 1.399 . S
C565 C564 1.394 1_565 S
C565 C566 1.516 1_554 S
C566 C565 1.516 1_556 S
C566 C567 1.502 . S
C566 C568 1.561 . S
C566 C569 1.526 . S
C567 H551 0.959 1_556 S
C567 H552 0.959 . S
C567 H553 0.961 1_556 S
C567 C566 1.502 . S
C568 H554 0.960 . S
C568 H555 0.961 . S
C568 H556 0.959 . S
C568 C566 1.561 . S
C569 C566 1.526 . S
C569 C570 1.396 1_565 S
C569 C574 1.390 . S
C570 C564 1.465 1_556 S
C570 C569 1.396 1_545 S
C570 C571 1.399 . S
C571 H557 0.929 1_556 S
C571 C570 1.399 . S
C571 C572 1.385 . S
C572 H558 0.931 . S
C572 C571 1.385 . S
C572 C573 1.389 . S
C573 C572 1.389 . S
C573 C574 1.387 1_545 S
C574 H559 0.930 . S
C574 C569 1.390 . S
C574 C573 1.387 1_565 S
H575 C587 0.930 . S
H576 C589 0.930 . S
H577 C590 0.930 1_556 S
H578 C594 0.959 . S
H579 C594 0.959 . S
H580 C594 0.961 . S
H581 C595 0.960 . S
H582 C595 0.961 . S
H583 C595 0.959 . S
H584 C598 0.929 . S
H585 C599 0.931 . S
H586 C601 0.930 . S
C587 H575 0.930 . S
C587 C588 1.399 . S
C587 C592 1.399 . S
C588 C587 1.399 . S
C588 C589 1.376 . S
C589 H576 0.930 . S
C589 C588 1.376 . S
C589 C590 1.388 . S
C590 H577 0.930 1_554 S
C590 C589 1.388 . S
C590 C591 1.390 . S
C591 C590 1.390 . S
C591 C592 1.394 . S
C591 C597 1.465 1_554 S
C592 C587 1.399 . S
C592 C591 1.394 . S
C592 C593 1.516 . S
C593 C592 1.516 . S
C593 C594 1.502 . S
C593 C595 1.561 . S
C593 C596 1.526 1_554 S
C594 H578 0.959 . S
C594 H579 0.959 . S
C594 H580 0.961 . S
C594 C593 1.502 . S
C595 H581 0.960 . S
C595 H582 0.961 . S
C595 H583 0.959 . S
C595 C593 1.561 . S
C596 C593 1.526 1_556 S
C596 C597 1.396 . S
C596 C601 1.390 . S
C597 C591 1.465 1_556 S
C597 C596 1.396 . S
C597 C598 1.399 . S
C598 H584 0.929 . S
C598 C597 1.399 . S
C598 C599 1.385 . S
C599 H585 0.931 . S
C599 C598 1.385 . S
C599 C600 1.389 . S
C600 C599 1.389 . S
C600 C601 1.387 . S
C601 H586 0.930 . S
C601 C596 1.390 . S
C601 C600 1.387 . S
H602 C614 0.930 . S
H603 C616 0.930 . S
H604 C617 0.930 . S
H605 C621 0.959 . S
H606 C621 0.959 . S
H607 C621 0.961 . S
H608 C622 0.960 1_554 S
H609 C622 0.961 . S
H610 C622 0.959 . S
H611 C625 0.929 . S
H612 C626 0.931 . S
H613 C628 0.930 . S
C614 H602 0.930 . S
C614 C615 1.399 . S
C614 C619 1.399 . S
C615 C614 1.399 . S
C615 C616 1.376 . S
C616 H603 0.930 . S
C616 C615 1.376 . S
C616 C617 1.388 . S
C617 H604 0.930 . S
C617 C616 1.388 . S
C617 C618 1.390 . S
C618 C617 1.390 . S
C618 C619 1.394 . S
C618 C624 1.465 1_554 S
C619 C614 1.399 . S
C619 C618 1.394 . S
C619 C620 1.516 . S
C620 C619 1.516 . S
C620 C621 1.502 . S
C620 C622 1.561 1_554 S
C620 C623 1.526 1_554 S
C621 H605 0.959 . S
C621 H606 0.959 . S
C621 H607 0.961 . S
C621 C620 1.502 . S
C622 H608 0.960 1_556 S
C622 H609 0.961 . S
C622 H610 0.959 . S
C622 C620 1.561 1_556 S
C623 C620 1.526 1_556 S
C623 C624 1.396 . S
C623 C628 1.390 . S
C624 C618 1.465 1_556 S
C624 C623 1.396 . S
C624 C625 1.399 . S
C625 H611 0.929 . S
C625 C624 1.399 . S
C625 C626 1.385 . S
C626 H612 0.931 . S
C626 C625 1.385 . S
C626 C627 1.389 . S
C627 C626 1.389 . S
C627 C628 1.387 . S
C628 H613 0.930 . S
C628 C623 1.390 . S
C628 C627 1.387 . S
H629 C641 0.930 1_455 S
H630 C643 0.930 . S
H631 C644 0.930 . S
H632 C648 0.959 . S
H633 C648 0.959 . S
H634 C648 0.961 . S
H635 C649 0.960 . S
H636 C649 0.961 1_455 S
H637 C649 0.959 . S
H638 C652 0.929 . S
H639 C653 0.931 . S
H640 C655 0.930 . S
C641 H629 0.930 1_655 S
C641 C642 1.399 . S
C641 C646 1.399 . S
C642 C641 1.399 . S
C642 C643 1.376 . S
C643 H630 0.930 . S
C643 C642 1.376 . S
C643 C644 1.388 . S
C644 H631 0.930 . S
C644 C643 1.388 . S
C644 C645 1.390 . S
C645 C644 1.390 . S
C645 C646 1.394 . S
C645 C651 1.465 1_554 S
C646 C641 1.399 . S
C646 C645 1.394 . S
C646 C647 1.516 1_655 S
C647 C646 1.516 1_455 S
C647 C648 1.502 . S
C647 C649 1.561 1_455 S
C647 C650 1.525 1_454 S
C648 H632 0.959 . S
C648 H633 0.959 . S
C648 H634 0.961 . S
C648 C647 1.502 . S
C649 H635 0.960 . S
C649 H636 0.961 1_655 S
C649 H637 0.959 . S
C649 C647 1.561 1_655 S
C650 C647 1.525 1_656 S
C650 C651 1.399 . S
C650 C655 1.388 1_655 S
C651 C645 1.465 1_556 S
C651 C650 1.399 . S
C651 C652 1.399 . S
C652 H638 0.929 . S
C652 C651 1.399 . S
C652 C653 1.385 . S
C653 H639 0.931 . S
C653 C652 1.385 . S
C653 C654 1.389 . S
C654 C653 1.389 . S
C654 C655 1.387 1_655 S
C655 H640 0.930 . S
C655 C650 1.388 1_455 S
C655 C654 1.387 1_455 S
H656 C668 0.930 . S
H657 C670 0.930 . S
H658 C671 0.918 1_655 S
H659 C675 0.959 . S
H660 C675 0.959 . S
H661 C675 0.961 . S
H662 C676 0.960 . S
H663 C676 0.961 . S
H664 C676 0.959 . S
H665 C679 0.929 . S
H666 C680 0.931 . S
H667 C682 0.930 . S
C668 H656 0.930 . S
C668 C669 1.399 . S
C668 C673 1.399 . S
C669 C668 1.399 . S
C669 C670 1.376 . S
C670 H657 0.930 . S
C670 C669 1.376 . S
C670 C671 1.394 . S
C671 H658 0.918 1_455 S
C671 C670 1.394 . S
C671 C672 1.397 . S
C672 C671 1.397 . S
C672 C673 1.394 . S
C672 C678 1.465 . S
C673 C668 1.399 . S
C673 C672 1.394 . S
C673 C674 1.516 . S
C674 C673 1.516 . S
C674 C675 1.502 . S
C674 C676 1.561 . S
C674 C677 1.526 . S
C675 H659 0.959 . S
C675 H660 0.959 . S
C675 H661 0.961 . S
C675 C674 1.502 . S
C676 H662 0.960 . S
C676 H663 0.961 . S
C676 H664 0.959 . S
C676 C674 1.561 . S
C677 C674 1.526 . S
C677 C678 1.396 . S
C677 C682 1.390 . S
C678 C672 1.465 . S
C678 C677 1.396 . S
C678 C679 1.399 1_455 S
C679 H665 0.929 . S
C679 C678 1.399 1_655 S
C679 C680 1.385 . S
C680 H666 0.931 . S
C680 C679 1.385 . S
C680 C681 1.389 1_655 S
C681 C680 1.389 1_455 S
C681 C682 1.387 . S
C682 H667 0.930 . S
C682 C677 1.390 . S
C682 C681 1.387 . S
H683 C695 0.930 . S
H684 C697 0.930 . S
H685 C698 0.930 . S
H686 C702 0.959 1_545 S
H687 C702 0.959 . S
H688 C702 0.961 . S
H689 C703 0.960 . S
H690 C703 0.961 . S
H691 C703 0.959 . S
H692 C706 0.929 . S
H693 C707 0.931 . S
H694 C709 0.930 . S
C695 H683 0.930 . S
C695 C696 1.399 . S
C695 C700 1.399 . S
C696 C695 1.399 . S
C696 C697 1.376 . S
C697 H684 0.930 . S
C697 C696 1.376 . S
C697 C698 1.388 . S
C698 H685 0.930 . S
C698 C697 1.388 . S
C698 C699 1.390 . S
C699 C698 1.390 . S
C699 C700 1.394 . S
C699 C705 1.465 . S
C700 C695 1.399 . S
C700 C699 1.394 . S
C700 C701 1.516 1_545 S
C701 C700 1.516 1_565 S
C701 C702 1.502 . S
C701 C703 1.561 . S
C701 C704 1.526 1_565 S
C702 H686 0.959 1_565 S
C702 H687 0.959 . S
C702 H688 0.961 . S
C702 C701 1.502 . S
C703 H689 0.960 . S
C703 H690 0.961 . S
C703 H691 0.959 . S
C703 C701 1.561 . S
C704 C701 1.526 1_545 S
C704 C705 1.396 . S
C704 C709 1.390 1_545 S
C705 C699 1.465 . S
C705 C704 1.396 . S
C705 C706 1.399 . S
C706 H692 0.929 . S
C706 C705 1.399 . S
C706 C707 1.385 . S
C707 H693 0.931 . S
C707 C706 1.385 . S
C707 C708 1.389 . S
C708 C707 1.389 . S
C708 C709 1.387 1_545 S
C709 H694 0.930 . S
C709 C704 1.390 1_565 S
C709 C708 1.387 1_565 S
H710 C722 0.930 . S
H711 C724 0.930 . S
H712 C725 0.930 . S
H713 C729 0.959 . S
H714 C729 0.959 . S
H715 C729 0.961 . S
H716 C730 0.960 . S
H717 C730 0.961 . S
H718 C730 0.959 . S
H719 C733 0.929 . S
H720 C734 0.931 . S
H721 C736 0.930 . S
C722 H710 0.930 . S
C722 C723 1.399 . S
C722 C727 1.399 . S
C723 C722 1.399 . S
C723 C724 1.376 . S
C724 H711 0.930 . S
C724 C723 1.376 . S
C724 C725 1.388 . S
C725 H712 0.930 . S
C725 C724 1.388 . S
C725 C726 1.390 . S
C726 C725 1.390 . S
C726 C727 1.394 . S
C726 C732 1.465 . S
C727 C722 1.399 . S
C727 C726 1.394 . S
C727 C728 1.516 . S
C728 C727 1.516 . S
C728 C729 1.502 . S
C728 C730 1.561 . S
C728 C731 1.526 . S
C729 H713 0.959 . S
C729 H714 0.959 . S
C729 H715 0.961 . S
C729 C728 1.502 . S
C730 H716 0.960 . S
C730 H717 0.961 . S
C730 H718 0.959 . S
C730 C728 1.561 . S
C731 C728 1.526 . S
C731 C732 1.396 . S
C731 C736 1.390 . S
C732 C726 1.465 . S
C732 C731 1.396 . S
C732 C733 1.399 . S
C733 H719 0.929 . S
C733 C732 1.399 . S
C733 C734 1.385 . S
C734 H720 0.931 . S
C734 C733 1.385 . S
C734 C735 1.389 . S
C735 C734 1.389 . S
C735 C736 1.387 . S
C736 H721 0.930 . S
C736 C731 1.390 . S
C736 C735 1.387 . S
H737 C749 0.930 . S
H738 C751 0.930 . S
H739 C752 0.930 . S
H740 C756 0.959 . S
H741 C756 0.959 . S
H742 C756 0.961 . S
H743 C757 0.960 . S
H744 C757 0.961 . S
H745 C757 0.959 . S
H746 C760 0.929 . S
H747 C761 0.931 . S
H748 C763 0.930 . S
C749 H737 0.930 . S
C749 C750 1.399 . S
C749 C754 1.399 . S
C750 C749 1.399 . S
C750 C751 1.376 . S
C751 H738 0.930 . S
C751 C750 1.376 . S
C751 C752 1.388 . S
C752 H739 0.930 . S
C752 C751 1.388 . S
C752 C753 1.390 . S
C753 C752 1.390 . S
C753 C754 1.394 . S
C753 C759 1.465 . S
C754 C749 1.399 . S
C754 C753 1.394 . S
C754 C755 1.516 . S
C755 C754 1.516 . S
C755 C756 1.502 . S
C755 C757 1.561 . S
C755 C758 1.526 . S
C756 H740 0.959 . S
C756 H741 0.959 . S
C756 H742 0.961 . S
C756 C755 1.502 . S
C757 H743 0.960 . S
C757 H744 0.961 . S
C757 H745 0.959 . S
C757 C755 1.561 . S
C758 C755 1.526 . S
C758 C759 1.396 . S
C758 C763 1.390 . S
C759 C753 1.465 . S
C759 C758 1.396 . S
C759 C760 1.399 . S
C760 H746 0.929 . S
C760 C759 1.399 . S
C760 C761 1.385 . S
C761 H747 0.931 . S
C761 C760 1.385 . S
C761 C762 1.389 . S
C762 C761 1.389 . S
C762 C763 1.387 . S
C763 H748 0.930 . S
C763 C758 1.390 . S
C763 C762 1.387 . S
H764 C776 0.930 . S
H765 C778 0.930 . S
H766 C779 0.930 1_455 S
H767 C783 0.959 . S
H768 C783 0.959 . S
H769 C783 0.961 . S
H770 C784 0.960 . S
H771 C784 0.961 . S
H772 C784 0.959 . S
H773 C787 0.929 . S
H774 C788 0.931 . S
H775 C790 0.930 . S
C776 H764 0.930 . S
C776 C777 1.399 . S
C776 C781 1.399 . S
C777 C776 1.399 . S
C777 C778 1.376 . S
C778 H765 0.930 . S
C778 C777 1.376 . S
C778 C779 1.388 . S
C779 H766 0.930 1_655 S
C779 C778 1.388 . S
C779 C780 1.390 . S
C780 C779 1.390 . S
C780 C781 1.394 . S
C780 C786 1.465 1_655 S
C781 C776 1.399 . S
C781 C780 1.394 . S
C781 C782 1.516 . S
C782 C781 1.516 . S
C782 C783 1.502 . S
C782 C784 1.561 1_655 S
C782 C785 1.520 1_655 S
C783 H767 0.959 . S
C783 H768 0.959 . S
C783 H769 0.961 . S
C783 C782 1.502 . S
C784 H770 0.960 . S
C784 H771 0.961 . S
C784 H772 0.959 . S
C784 C782 1.561 1_455 S
C785 C782 1.520 1_455 S
C785 C786 1.399 . S
C785 C790 1.393 . S
C786 C780 1.465 1_455 S
C786 C785 1.399 . S
C786 C787 1.399 1_554 S
C787 H773 0.929 . S
C787 C786 1.399 1_556 S
C787 C788 1.385 . S
C788 H774 0.931 . S
C788 C787 1.385 . S
C788 C789 1.389 . S
C789 C788 1.389 . S
C789 C790 1.387 1_556 S
C790 H775 0.930 . S
C790 C785 1.393 . S
C790 C789 1.387 1_554 S
H791 C803 0.913 1_545 S
H792 C805 0.930 . S
H793 C806 0.930 . S
H794 C810 0.959 . S
H795 C810 0.959 . S
H796 C810 0.961 . S
H797 C811 0.960 . S
H798 C811 0.961 . S
H799 C811 0.959 . S
H800 C814 0.929 1_556 S
H801 C815 0.931 . S
H802 C817 0.930 . S
C803 H791 0.913 1_565 S
C803 C804 1.419 . S
C803 C808 1.397 1_565 S
C804 C803 1.419 . S
C804 C805 1.376 . S
C805 H792 0.930 . S
C805 C804 1.376 . S
C805 C806 1.388 . S
C806 H793 0.930 . S
C806 C805 1.388 . S
C806 C807 1.390 . S
C807 C806 1.390 . S
C807 C808 1.394 1_565 S
C807 C813 1.465 . S
C808 C803 1.397 1_545 S
C808 C807 1.394 1_545 S
C808 C809 1.516 . S
C809 C808 1.516 . S
C809 C810 1.502 . S
C809 C811 1.561 . S
C809 C812 1.526 . S
C810 H794 0.959 . S
C810 H795 0.959 . S
C810 H796 0.961 . S
C810 C809 1.502 . S
C811 H797 0.960 . S
C811 H798 0.961 . S
C811 H799 0.959 . S
C811 C809 1.561 . S
C812 C809 1.526 . S
C812 C813 1.396 1_545 S
C812 C817 1.390 . S
C813 C807 1.465 . S
C813 C812 1.396 1_565 S
C813 C814 1.399 . S
C814 H800 0.929 1_554 S
C814 C813 1.399 . S
C814 C815 1.385 1_554 S
C815 H801 0.931 . S
C815 C814 1.385 1_556 S
C815 C816 1.389 1_566 S
C816 C815 1.389 1_544 S
C816 C817 1.387 . S
C817 H802 0.930 . S
C817 C812 1.390 . S
C817 C816 1.387 . S
H818 C830 0.930 . S
H819 C832 0.930 . S
H820 C833 0.930 . S
H821 C837 0.959 . S
H822 C837 0.959 . S
H823 C837 0.961 . S
H824 C838 0.960 . S
H825 C838 0.961 . S
H826 C838 0.959 . S
H827 C841 0.929 1_556 S
H828 C842 0.931 . S
H829 C844 0.930 . S
C830 H818 0.930 . S
C830 C831 1.399 . S
C830 C835 1.399 . S
C831 C830 1.399 . S
C831 C832 1.376 . S
C832 H819 0.930 . S
C832 C831 1.376 . S
C832 C833 1.388 . S
C833 H820 0.930 . S
C833 C832 1.388 . S
C833 C834 1.390 . S
C834 C833 1.390 . S
C834 C835 1.394 . S
C834 C840 1.465 . S
C835 C830 1.399 . S
C835 C834 1.394 . S
C835 C836 1.516 . S
C836 C835 1.516 . S
C836 C837 1.502 . S
C836 C838 1.561 . S
C836 C839 1.526 . S
C837 H821 0.959 . S
C837 H822 0.959 . S
C837 H823 0.961 . S
C837 C836 1.502 . S
C838 H824 0.960 . S
C838 H825 0.961 . S
C838 H826 0.959 . S
C838 C836 1.561 . S
C839 C836 1.526 . S
C839 C840 1.396 . S
C839 C844 1.390 . S
C840 C834 1.465 . S
C840 C839 1.396 . S
C840 C841 1.399 . S
C841 H827 0.929 1_554 S
C841 C840 1.399 . S
C841 C842 1.385 1_554 S
C842 H828 0.931 . S
C842 C841 1.385 1_556 S
C842 C843 1.388 1_556 S
C843 C842 1.388 1_554 S
C843 C844 1.390 . S
C844 H829 0.930 . S
C844 C839 1.390 . S
C844 C843 1.390 . S
H845 C857 0.930 . S
H846 C859 0.930 . S
H847 C860 0.930 . S
H848 C864 0.959 . S
H849 C864 0.959 . S
H850 C864 0.961 . S
H851 C865 0.960 . S
H852 C865 0.961 . S
H853 C865 0.959 . S
H854 C868 0.929 . S
H855 C869 0.931 . S
H856 C871 0.930 . S
C857 H845 0.930 . S
C857 C858 1.399 . S
C857 C862 1.399 . S
C858 C857 1.399 . S
C858 C859 1.376 . S
C859 H846 0.930 . S
C859 C858 1.376 . S
C859 C860 1.388 . S
C860 H847 0.930 . S
C860 C859 1.388 . S
C860 C861 1.390 . S
C861 C860 1.390 . S
C861 C862 1.394 . S
C861 C867 1.465 . S
C862 C857 1.399 . S
C862 C861 1.394 . S
C862 C863 1.516 . S
C863 C862 1.516 . S
C863 C864 1.502 . S
C863 C865 1.561 . S
C863 C866 1.526 . S
C864 H848 0.959 . S
C864 H849 0.959 . S
C864 H850 0.961 . S
C864 C863 1.502 . S
C865 H851 0.960 . S
C865 H852 0.961 . S
C865 H853 0.959 . S
C865 C863 1.561 . S
C866 C863 1.526 . S
C866 C867 1.396 . S
C866 C871 1.390 . S
C867 C861 1.465 . S
C867 C866 1.396 . S
C867 C868 1.399 . S
C868 H854 0.929 . S
C868 C867 1.399 . S
C868 C869 1.385 1_554 S
C869 H855 0.931 . S
C869 C868 1.385 1_556 S
C869 C870 1.389 . S
C870 C869 1.389 . S
C870 C871 1.387 1_556 S
C871 H856 0.930 . S
C871 C866 1.390 . S
C871 C870 1.387 1_554 S
H872 C884 0.930 . S
H873 C886 0.930 . S
H874 C887 0.930 . S
H875 C891 0.959 . S
H876 C891 0.959 1_554 S
H877 C891 0.961 1_554 S
H878 C892 0.960 1_554 S
H879 C892 0.961 1_554 S
H880 C892 0.959 1_655 S
H881 C895 0.929 . S
H882 C896 0.931 . S
H883 C898 0.930 . S
C884 H872 0.930 . S
C884 C885 1.399 . S
C884 C889 1.399 . S
C885 C884 1.399 . S
C885 C886 1.376 . S
C886 H873 0.930 . S
C886 C885 1.376 . S
C886 C887 1.388 . S
C887 H874 0.930 . S
C887 C886 1.388 . S
C887 C888 1.390 . S
C888 C887 1.390 . S
C888 C889 1.394 . S
C888 C894 1.465 . S
C889 C884 1.399 . S
C889 C888 1.394 . S
C889 C890 1.516 . S
C890 C889 1.516 . S
C890 C891 1.502 . S
C890 C892 1.561 . S
C890 C893 1.526 . S
C891 H875 0.959 . S
C891 H876 0.959 1_556 S
C891 H877 0.961 1_556 S
C891 C890 1.502 . S
C892 H878 0.960 1_556 S
C892 H879 0.961 1_556 S
C892 H880 0.959 1_455 S
C892 C890 1.561 . S
C893 C890 1.526 . S
C893 C894 1.396 . S
C893 C898 1.390 . S
C894 C888 1.465 . S
C894 C893 1.396 . S
C894 C895 1.399 . S
C895 H881 0.929 . S
C895 C894 1.399 . S
C895 C896 1.385 . S
C896 H882 0.931 . S
C896 C895 1.385 . S
C896 C897 1.389 . S
C897 C896 1.389 . S
C897 C898 1.387 . S
C898 H883 0.930 . S
C898 C893 1.390 . S
C898 C897 1.387 . S
H899 C911 0.930 . S
H900 C913 0.930 . S
H901 C914 0.930 . S
H902 C918 0.959 1_556 S
H903 C918 0.959 . S
H904 C918 0.961 . S
H905 C919 0.960 . S
H906 C919 0.961 . S
H907 C919 0.959 . S
H908 C922 0.929 . S
H909 C923 0.931 . S
H910 C925 0.930 . S
C911 H899 0.930 . S
C911 C912 1.399 . S
C911 C916 1.399 . S
C912 C911 1.399 . S
C912 C913 1.376 . S
C913 H900 0.930 . S
C913 C912 1.376 . S
C913 C914 1.388 . S
C914 H901 0.930 . S
C914 C913 1.388 . S
C914 C915 1.390 . S
C915 C914 1.390 . S
C915 C916 1.394 . S
C915 C921 1.465 . S
C916 C911 1.399 . S
C916 C915 1.394 . S
C916 C917 1.516 . S
C917 C916 1.516 . S
C917 C918 1.502 1_556 S
C917 C919 1.561 1_545 S
C917 C920 1.526 . S
C918 H902 0.959 1_554 S
C918 H903 0.959 . S
C918 H904 0.961 . S
C918 C917 1.502 1_554 S
C919 H905 0.960 . S
C919 H906 0.961 . S
C919 H907 0.959 . S
C919 C917 1.561 1_565 S
C920 C917 1.526 . S
C920 C921 1.396 . S
C920 C925 1.390 . S
C921 C915 1.465 . S
C921 C920 1.396 . S
C921 C922 1.399 . S
C922 H908 0.929 . S
C922 C921 1.399 . S
C922 C923 1.385 . S
C923 H909 0.931 . S
C923 C922 1.385 . S
C923 C924 1.389 . S
C924 C923 1.389 . S
C924 C925 1.387 . S
C925 H910 0.930 . S
C925 C920 1.390 . S
C925 C924 1.387 . S
H926 C938 0.930 . S
H927 C940 0.930 . S
H928 C941 0.930 . S
H929 C945 0.959 . S
H930 C945 0.959 . S
H931 C945 0.961 . S
H932 C946 0.960 . S
H933 C946 0.961 . S
H934 C946 0.959 . S
H935 C949 0.929 . S
H936 C950 0.931 . S
H937 C952 0.930 . S
C938 H926 0.930 . S
C938 C939 1.399 . S
C938 C943 1.399 . S
C939 C938 1.399 . S
C939 C940 1.376 . S
C940 H927 0.930 . S
C940 C939 1.376 . S
C940 C941 1.388 . S
C941 H928 0.930 . S
C941 C940 1.388 . S
C941 C942 1.390 . S
C942 C941 1.390 . S
C942 C943 1.394 . S
C942 C948 1.465 . S
C943 C938 1.399 . S
C943 C942 1.394 . S
C943 C944 1.516 . S
C944 C943 1.516 . S
C944 C945 1.502 . S
C944 C946 1.561 . S
C944 C947 1.526 . S
C945 H929 0.959 . S
C945 H930 0.959 . S
C945 H931 0.961 . S
C945 C944 1.502 . S
C946 H932 0.960 . S
C946 H933 0.961 . S
C946 H934 0.959 . S
C946 C944 1.561 . S
C947 C944 1.526 . S
C947 C948 1.396 . S
C947 C952 1.390 . S
C948 C942 1.465 . S
C948 C947 1.396 . S
C948 C949 1.399 . S
C949 H935 0.929 . S
C949 C948 1.399 . S
C949 C950 1.385 . S
C950 H936 0.931 . S
C950 C949 1.385 . S
C950 C951 1.389 . S
C951 C950 1.389 . S
C951 C952 1.387 . S
C952 H937 0.930 . S
C952 C947 1.390 . S
C952 C951 1.387 . S
H953 C965 0.930 . S
H954 C967 0.930 . S
H955 C968 0.930 . S
H956 C972 0.959 . S
H957 C972 0.959 . S
H958 C972 0.961 . S
H959 C973 0.960 . S
H960 C973 0.961 . S
H961 C973 0.959 . S
H962 C976 0.929 . S
H963 C977 0.931 . S
H964 C979 0.930 . S
C965 H953 0.930 . S
C965 C966 1.399 . S
C965 C970 1.399 . S
C966 C965 1.399 . S
C966 C967 1.376 . S
C967 H954 0.930 . S
C967 C966 1.376 . S
C967 C968 1.388 . S
C968 H955 0.930 . S
C968 C967 1.388 . S
C968 C969 1.390 . S
C969 C968 1.390 . S
C969 C970 1.394 . S
C969 C975 1.465 . S
C970 C965 1.399 . S
C970 C969 1.394 . S
C970 C971 1.516 . S
C971 C970 1.516 . S
C971 C972 1.502 . S
C971 C973 1.561 . S
C971 C974 1.526 . S
C972 H956 0.959 . S
C972 H957 0.959 . S
C972 H958 0.961 . S
C972 C971 1.502 . S
C973 H959 0.960 . S
C973 H960 0.961 . S
C973 H961 0.959 . S
C973 C971 1.561 . S
C974 C971 1.526 . S
C974 C975 1.396 . S
C974 C979 1.390 . S
C975 C969 1.465 . S
C975 C974 1.396 . S
C975 C976 1.399 . S
C976 H962 0.929 . S
C976 C975 1.399 . S
C976 C977 1.385 . S
C977 H963 0.931 . S
C977 C976 1.385 . S
C977 C978 1.389 . S
C978 C977 1.389 . S
C978 C979 1.387 . S
C979 H964 0.930 . S
C979 C974 1.390 . S
C979 C978 1.387 . S
H980 C992 0.930 . S
H981 C994 0.930 . S
H982 C995 0.930 . S
H983 C999 0.959 . S
H984 C999 0.959 . S
H985 C999 0.961 . S
H986 C1000 0.960 . S
H987 C1000 0.961 . S
H988 C1000 0.959 . S
H989 C1003 0.929 . S
H990 C1004 0.931 . S
H991 C1006 0.930 1_455 S
C992 H980 0.930 . S
C992 C993 1.399 . S
C992 C997 1.399 . S
C993 C992 1.399 . S
C993 C994 1.376 . S
C994 H981 0.930 . S
C994 C993 1.376 . S
C994 C995 1.388 . S
C995 H982 0.930 . S
C995 C994 1.388 . S
C995 C996 1.390 . S
C996 C995 1.390 . S
C996 C997 1.394 . S
C996 C1002 1.465 . S
C997 C992 1.399 . S
C997 C996 1.394 . S
C997 C998 1.516 . S
C998 C997 1.516 . S
C998 C999 1.502 1_655 S
C998 C1000 1.561 . S
C998 C1001 1.526 . S
C999 H983 0.959 . S
C999 H984 0.959 . S
C999 H985 0.961 . S
C999 C998 1.502 1_455 S
C1000 H986 0.960 . S
C1000 H987 0.961 . S
C1000 H988 0.959 . S
C1000 C998 1.561 . S
C1001 C998 1.526 . S
C1001 C1002 1.396 . S
C1001 C1006 1.390 . S
C1002 C996 1.465 . S
C1002 C1001 1.396 . S
C1002 C1003 1.399 . S
C1003 H989 0.929 . S
C1003 C1002 1.399 . S
C1003 C1004 1.385 . S
C1004 H990 0.931 . S
C1004 C1003 1.385 . S
C1004 C1005 1.389 . S
C1005 C1004 1.389 . S
C1005 C1006 1.387 . S
C1006 H991 0.930 1_655 S
C1006 C1001 1.390 . S
C1006 C1005 1.387 . S
H1007 C1019 0.930 . S
H1008 C1021 0.930 . S
H1009 C1022 0.930 . S
H1010 C1026 0.959 . S
H1011 C1026 0.959 . S
H1012 C1026 0.961 . S
H1013 C1027 0.960 . S
H1014 C1027 0.961 . S
H1015 C1027 0.959 . S
H1016 C1030 0.929 . S
H1017 C1031 0.931 . S
H1018 C1033 0.930 . S
C1019 H1007 0.930 . S
C1019 C1020 1.399 1_545 S
C1019 C1024 1.399 1_545 S
C1020 C1019 1.399 1_565 S
C1020 C1021 1.376 . S
C1021 H1008 0.930 . S
C1021 C1020 1.376 . S
C1021 C1022 1.388 . S
C1022 H1009 0.930 . S
C1022 C1021 1.388 . S
C1022 C1023 1.390 . S
C1023 C1022 1.390 . S
C1023 C1024 1.394 . S
C1023 C1029 1.465 . S
C1024 C1019 1.399 1_565 S
C1024 C1023 1.394 . S
C1024 C1025 1.516 1_565 S
C1025 C1024 1.516 1_545 S
C1025 C1026 1.502 . S
C1025 C1027 1.561 . S
C1025 C1028 1.526 . S
C1026 H1010 0.959 . S
C1026 H1011 0.959 . S
C1026 H1012 0.961 . S
C1026 C1025 1.502 . S
C1027 H1013 0.960 . S
C1027 H1014 0.961 . S
C1027 H1015 0.959 . S
C1027 C1025 1.561 . S
C1028 C1025 1.526 . S
C1028 C1029 1.396 1_545 S
C1028 C1033 1.390 . S
C1029 C1023 1.465 . S
C1029 C1028 1.396 1_565 S
C1029 C1030 1.399 . S
C1030 H1016 0.929 . S
C1030 C1029 1.399 . S
C1030 C1031 1.385 . S
C1031 H1017 0.931 . S
C1031 C1030 1.385 . S
C1031 C1032 1.389 . S
C1032 C1031 1.389 . S
C1032 C1033 1.387 1_565 S
C1033 H1018 0.930 . S
C1033 C1028 1.390 . S
C1033 C1032 1.387 1_545 S
H1034 C1046 0.930 . S
H1035 C1048 0.930 . S
H1036 C1049 0.930 . S
H1037 C1053 0.959 . S
H1038 C1053 0.959 . S
H1039 C1053 0.961 . S
H1040 C1054 0.960 . S
H1041 C1054 0.961 . S
H1042 C1054 0.959 . S
H1043 C1057 0.929 . S
H1044 C1058 0.931 . S
H1045 C1060 0.930 . S
C1046 H1034 0.930 . S
C1046 C1047 1.399 . S
C1046 C1051 1.399 . S
C1047 C1046 1.399 . S
C1047 C1048 1.376 . S
C1048 H1035 0.930 . S
C1048 C1047 1.376 . S
C1048 C1049 1.388 . S
C1049 H1036 0.930 . S
C1049 C1048 1.388 . S
C1049 C1050 1.390 . S
C1050 C1049 1.390 . S
C1050 C1051 1.394 . S
C1050 C1056 1.465 . S
C1051 C1046 1.399 . S
C1051 C1050 1.394 . S
C1051 C1052 1.516 . S
C1052 C1051 1.516 . S
C1052 C1053 1.502 . S
C1052 C1054 1.561 . S
C1052 C1055 1.526 . S
C1053 H1037 0.959 . S
C1053 H1038 0.959 . S
C1053 H1039 0.961 . S
C1053 C1052 1.502 . S
C1054 H1040 0.960 . S
C1054 H1041 0.961 . S
C1054 H1042 0.959 . S
C1054 C1052 1.561 . S
C1055 C1052 1.526 . S
C1055 C1056 1.396 . S
C1055 C1060 1.390 . S
C1056 C1050 1.465 . S
C1056 C1055 1.396 . S
C1056 C1057 1.399 . S
C1057 H1043 0.929 . S
C1057 C1056 1.399 . S
C1057 C1058 1.385 . S
C1058 H1044 0.931 . S
C1058 C1057 1.385 . S
C1058 C1059 1.389 . S
C1059 C1058 1.389 . S
C1059 C1060 1.387 . S
C1060 H1045 0.930 . S
C1060 C1055 1.390 . S
C1060 C1059 1.387 . S
H1061 C1073 0.930 . S
H1062 C1075 0.930 . S
H1063 C1076 0.930 . S
H1064 C1080 0.959 . S
H1065 C1080 0.959 . S
H1066 C1080 0.961 . S
H1067 C1081 0.960 . S
H1068 C1081 0.961 . S
H1069 C1081 0.959 . S
H1070 C1084 0.929 . S
H1071 C1085 0.931 . S
H1072 C1087 0.930 . S
C1073 H1061 0.930 . S
C1073 C1074 1.399 . S
C1073 C1078 1.399 . S
C1074 C1073 1.399 . S
C1074 C1075 1.376 . S
C1075 H1062 0.930 . S
C1075 C1074 1.376 . S
C1075 C1076 1.388 . S
C1076 H1063 0.930 . S
C1076 C1075 1.388 . S
C1076 C1077 1.390 . S
C1077 C1076 1.390 . S
C1077 C1078 1.394 . S
C1077 C1083 1.465 . S
C1078 C1073 1.399 . S
C1078 C1077 1.394 . S
C1078 C1079 1.516 . S
C1079 C1078 1.516 . S
C1079 C1080 1.502 . S
C1079 C1081 1.561 . S
C1079 C1082 1.526 . S
C1080 H1064 0.959 . S
C1080 H1065 0.959 . S
C1080 H1066 0.961 . S
C1080 C1079 1.502 . S
C1081 H1067 0.960 . S
C1081 H1068 0.961 . S
C1081 H1069 0.959 . S
C1081 C1079 1.561 . S
C1082 C1079 1.526 . S
C1082 C1083 1.396 . S
C1082 C1087 1.390 . S
C1083 C1077 1.465 . S
C1083 C1082 1.396 . S
C1083 C1084 1.399 . S
C1084 H1070 0.929 . S
C1084 C1083 1.399 . S
C1084 C1085 1.385 . S
C1085 H1071 0.931 . S
C1085 C1084 1.385 . S
C1085 C1086 1.389 . S
C1086 C1085 1.389 . S
C1086 C1087 1.387 . S
C1087 H1072 0.930 . S
C1087 C1082 1.390 . S
C1087 C1086 1.387 . S
C453 C82 1.801 . S
C465 C167 1.985 . S
C492 C244 2.031 . S
C480 C95 1.717 . S
C519 C335 1.979 . S
C507 C56 1.793 . S
C546 C419 1.991 . S
C534 C69 1.753 . S
C573 C178 1.986 . S
C561 C30 1.693 . S
C588 C43 1.697 . S
C600 C255 2.023 . S
C615 C4 1.657 . S
C627 C346 1.986 . S
C642 C17 1.696 . S
C654 C430 2.005 1_655 S
C681 C162 0.516 1_455 S
C669 C74 0.619 . S
C708 C257 0.557 . S
C696 C87 0.548 . S
C735 C330 0.639 . S
C723 C100 0.673 . S
C750 C61 0.568 . S
C762 C414 0.513 . S
C777 C22 0.622 . S
C789 C173 0.549 . S
C816 C246 0.691 . S
C804 C35 0.660 . S
C843 C341 0.522 1_554 S
C831 C48 0.591 . S
C858 C9 0.661 . S
C870 C425 0.688 . S
C885 C73 1.955 . S
C897 C171 2.087 . S
C912 C86 1.962 . S
C924 C262 2.119 . S
C951 C339 2.129 . S
C939 C99 1.903 . S
C978 C423 2.130 . S
C966 C60 1.924 . S
C993 C21 1.948 . S
C1005 C160 2.088 . S
C1032 C251 2.119 1_565 S
C1020 C34 1.904 . S
C1059 C328 2.130 . S
C1047 C47 1.892 . S
C1074 C8 1.918 . S
C1086 C412 2.131 . S
