# Generated by pormake.
# Topology zzz, (3,6)-cn, num edge types: 1
# Building blocks:
#     Node 0, Type 0, BuildingBlock: ESEHIV_clean_linker_0, # of connection points: 3
#     Node 1, Type 0, BuildingBlock: ESEHIV_clean_linker_0, # of connection points: 3
#     Node 2, Type 0, BuildingBlock: ESEHIV_clean_linker_0, # of connection points: 3
#     Node 3, Type 0, BuildingBlock: ESEHIV_clean_linker_0, # of connection points: 3
#     Node 4, Type 0, BuildingBlock: ESEHIV_clean_linker_0, # of connection points: 3
#     Node 5, Type 0, BuildingBlock: ESEHIV_clean_linker_0, # of connection points: 3
#     Node 6, Type 0, BuildingBlock: ESEHIV_clean_linker_0, # of connection points: 3
#     Node 7, Type 0, BuildingBlock: ESEHIV_clean_linker_0, # of connection points: 3
#     Node 8, Type 1, BuildingBlock: NUHQIS_clean_sbu_0, # of connection points: 6
#     Node 9, Type 1, BuildingBlock: NUHQIS_clean_sbu_0, # of connection points: 6
#     Node 10, Type 1, BuildingBlock: NUHQIS_clean_sbu_0, # of connection points: 6
#     Node 11, Type 1, BuildingBlock: NUHQIS_clean_sbu_0, # of connection points: 6
#     Edge 12, Type (0, 1), BuildingBlock: ZUJKAS_clean_linker_0, # of connection points: 2
#     Edge 13, Type (0, 1), BuildingBlock: ZUJKAS_clean_linker_0, # of connection points: 2
#     Edge 14, Type (0, 1), BuildingBlock: ZUJKAS_clean_linker_0, # of connection points: 2
#     Edge 15, Type (0, 1), BuildingBlock: ZUJKAS_clean_linker_0, # of connection points: 2
#     Edge 16, Type (0, 1), BuildingBlock: ZUJKAS_clean_linker_0, # of connection points: 2
#     Edge 17, Type (0, 1), BuildingBlock: ZUJKAS_clean_linker_0, # of connection points: 2
#     Edge 18, Type (0, 1), BuildingBlock: ZUJKAS_clean_linker_0, # of connection points: 2
#     Edge 19, Type (0, 1), BuildingBlock: ZUJKAS_clean_linker_0, # of connection points: 2
#     Edge 20, Type (0, 1), BuildingBlock: ZUJKAS_clean_linker_0, # of connection points: 2
#     Edge 21, Type (0, 1), BuildingBlock: ZUJKAS_clean_linker_0, # of connection points: 2
#     Edge 22, Type (0, 1), BuildingBlock: ZUJKAS_clean_linker_0, # of connection points: 2
#     Edge 23, Type (0, 1), BuildingBlock: ZUJKAS_clean_linker_0, # of connection points: 2
#     Edge 24, Type (0, 1), BuildingBlock: ZUJKAS_clean_linker_0, # of connection points: 2
#     Edge 25, Type (0, 1), BuildingBlock: ZUJKAS_clean_linker_0, # of connection points: 2
#     Edge 26, Type (0, 1), BuildingBlock: ZUJKAS_clean_linker_0, # of connection points: 2
#     Edge 27, Type (0, 1), BuildingBlock: ZUJKAS_clean_linker_0, # of connection points: 2
#     Edge 28, Type (0, 1), BuildingBlock: ZUJKAS_clean_linker_0, # of connection points: 2
#     Edge 29, Type (0, 1), BuildingBlock: ZUJKAS_clean_linker_0, # of connection points: 2
#     Edge 30, Type (0, 1), BuildingBlock: ZUJKAS_clean_linker_0, # of connection points: 2
#     Edge 31, Type (0, 1), BuildingBlock: ZUJKAS_clean_linker_0, # of connection points: 2
#     Edge 32, Type (0, 1), BuildingBlock: ZUJKAS_clean_linker_0, # of connection points: 2
#     Edge 33, Type (0, 1), BuildingBlock: ZUJKAS_clean_linker_0, # of connection points: 2
#     Edge 34, Type (0, 1), BuildingBlock: ZUJKAS_clean_linker_0, # of connection points: 2
#     Edge 35, Type (0, 1), BuildingBlock: ZUJKAS_clean_linker_0, # of connection points: 2
# Relax obj value: 0.418
# Max RMSD: 0.255
# Mean RMSD: 0.232
data_MOF--net-zzz--node1-NUHQIS_clean_sbu_0--node2-ESEHIV_clean_linker_0--edge1-ZUJKAS_clean_linker_0
_symmetry_space_group_name_H-M    P1
_symmetry_Int_Tables_number       1
_symmetry_cell_setting            triclinic
loop_
_symmetry_equiv_pos_as_xyz
'x, y, z'
_cell_length_a     60.375504
_cell_length_b     60.345096
_cell_length_c     19.368354
_cell_angle_alpha  89.71561
_cell_angle_beta   90.069932
_cell_angle_gamma 90.031463
loop_
_atom_site_label
_atom_site_type_symbol
_atom_site_fract_x
_atom_site_fract_y
_atom_site_fract_z
_atom_type_partial_charge
H0 H 0.78213 0.46501 0.26366 0.0
H1 H 0.71983 0.46359 0.15585 0.0
H2 H 0.73015 0.50975 0.32171 0.0
C3 C 0.76521 0.47064 0.25732 0.0
C4 C 0.75741 0.48736 0.3011 0.0
C5 C 0.75203 0.46207 0.20393 0.0
C6 C 0.73044 0.47022 0.19594 0.0
C7 C 0.72248 0.48752 0.2373 0.0
C8 C 0.73612 0.49636 0.28971 0.0
H9 H 0.05323 0.77898 0.30857 0.0
H10 H 0.05442 0.72114 0.1803 0.0
H11 H 0.99889 0.73288 0.31521 0.0
C12 C 0.04594 0.76338 0.29256 0.0
C13 C 0.02532 0.75717 0.31953 0.0
C14 C 0.05642 0.7507 0.24175 0.0
C15 C 0.04646 0.73097 0.21992 0.0
C16 C 0.02587 0.72425 0.24644 0.0
C17 C 0.01503 0.73761 0.29575 0.0
H18 H 0.73079 0.05244 0.30786 0.0
H19 H 0.7862 0.0474 0.1702 0.0
H20 H 0.77782 0.9994 0.33378 0.0
C21 C 0.7462 0.04451 0.29313 0.0
C22 C 0.75312 0.02545 0.32879 0.0
C23 C 0.75784 0.05235 0.23548 0.0
C24 C 0.77718 0.04144 0.21502 0.0
C25 C 0.78473 0.02258 0.25058 0.0
C26 C 0.77252 0.01435 0.30739 0.0
H27 H 0.47175 0.72426 0.27847 0.0
H28 H 0.5072 0.78176 0.34885 0.0
H29 H 0.47059 0.7842 0.15783 0.0
C30 C 0.47659 0.74141 0.27092 0.0
C31 C 0.46959 0.7529 0.21169 0.0
C32 C 0.49021 0.75149 0.32026 0.0
C33 C 0.49648 0.77386 0.31142 0.0
C34 C 0.48882 0.78585 0.25325 0.0
C35 C 0.47552 0.77521 0.20395 0.0
H36 H 0.23728 0.55201 0.07764 0.0
H37 H 0.29421 0.55361 0.20962 0.0
H38 H 0.28317 0.49746 0.07641 0.0
C39 C 0.25278 0.54471 0.09471 0.0
C40 C 0.25898 0.52391 0.06931 0.0
C41 C 0.26521 0.55533 0.14576 0.0
C42 C 0.28475 0.54545 0.16946 0.0
C43 C 0.29171 0.52476 0.1442 0.0
C44 C 0.27837 0.51365 0.09507 0.0
H45 H 0.97563 0.23272 0.15373 0.0
H46 H 0.9755 0.29636 0.25218 0.0
H47 H 0.02216 0.28267 0.08968 0.0
C48 C 0.98182 0.24953 0.15785 0.0
C49 C 0.99898 0.25624 0.11369 0.0
C50 C 0.97336 0.26367 0.20868 0.0
C51 C 0.98209 0.2851 0.21392 0.0
C52 C 0.99978 0.2921 0.17213 0.0
C53 C 0.00852 0.27746 0.12223 0.0
H54 H 0.27099 0.96255 0.10399 0.0
H55 H 0.21702 0.96685 0.24664 0.0
H56 H 0.22816 0.01963 0.0996 0.0
C57 C 0.25624 0.97103 0.12182 0.0
C58 C 0.2508 0.99178 0.09351 0.0
C59 C 0.24435 0.96211 0.17733 0.0
C60 C 0.22612 0.97366 0.20317 0.0
C61 C 0.21986 0.99419 0.17486 0.0
C62 C 0.2324 1.00345 0.12018 0.0
H63 H 0.54736 0.27242 0.10662 0.0
H64 H 0.49251 0.22694 0.09146 0.0
H65 H 0.54148 0.21911 0.25218 0.0
C66 C 0.53902 0.25742 0.12358 0.0
C67 C 0.54687 0.24627 0.18214 0.0
C68 C 0.5194 0.25082 0.09056 0.0
C69 C 0.50784 0.23206 0.11575 0.0
C70 C 0.51603 0.22033 0.17381 0.0
C71 C 0.53543 0.22769 0.20657 0.0
Tb72 Tb 0.02347 0.99743 0.77685 0.0
Eu73 Eu 0.98518 0.01293 0.66827 0.0
C74 C 0.03603 0.01082 0.62514 0.0
C75 C 0.00896 0.04787 0.76975 0.0
C76 C 0.06711 0.96437 0.86532 0.0
C77 C 0.10282 0.94795 0.89295 0.0
C78 C 0.08964 0.96669 0.88137 0.0
C79 C 0.05816 0.94306 0.85779 0.0
C80 C 0.07118 0.9244 0.87026 0.0
C81 C 0.0936 0.92654 0.88948 0.0
C82 C 0.05294 0.98416 0.85964 0.0
O83 O 0.99366 1.00474 0.83665 0.0
O84 O 0.96966 0.99326 0.75455 0.0
O85 O 0.99417 0.97858 0.63397 0.0
O86 O 0.0106 0.96622 0.73436 0.0
C87 C 0.97394 0.99754 0.81932 0.0
O88 O 0.94988 0.01766 0.65008 0.0
O89 O 0.97319 0.02532 0.56886 0.0
O90 O 0.01802 0.02299 0.62138 0.0
O91 O 0.03853 0.99613 0.6748 0.0
O92 O 0.0253 0.03366 0.77806 0.0
O93 O 0.99046 0.04216 0.73871 0.0
C94 C 1.00204 0.96245 0.67269 0.0
O95 O 0.05692 0.99748 0.80796 0.0
O96 O 0.03176 0.98105 0.86874 0.0
C97 C 0.94207 0.04838 0.58097 0.0
C98 C 0.92139 0.08995 0.56724 0.0
C99 C 0.91154 0.07087 0.53908 0.0
C100 C 0.92182 0.0502 0.54607 0.0
C101 C 0.95174 0.06725 0.61022 0.0
C102 C 0.94153 0.08784 0.60335 0.0
C103 C 0.95271 0.02675 0.5897 0.0
H104 H 0.12008 0.9503 0.90632 0.0
H105 H 0.09693 0.98301 0.88663 0.0
H106 H 0.04086 0.94077 0.84469 0.0
H107 H 0.06322 0.90834 0.86815 0.0
H108 H 0.89601 0.07196 0.51124 0.0
H109 H 0.91402 0.03569 0.52403 0.0
H110 H 0.96733 0.06607 0.63773 0.0
H111 H 0.94984 0.10222 0.6244 0.0
Tb112 Tb 0.51059 0.02498 0.77818 0.0
Eu113 Eu 0.49725 0.98557 0.67024 0.0
C114 C 0.49803 0.03616 0.62479 0.0
C115 C 0.46033 0.00955 0.76539 0.0
C116 C 0.54062 0.07067 0.86409 0.0
C117 C 0.56317 0.09543 0.93271 0.0
C118 C 0.54374 0.08322 0.92383 0.0
C119 C 0.55657 0.07131 0.8115 0.0
C120 C 0.57602 0.08355 0.82026 0.0
C121 C 0.57983 0.09522 0.88191 0.0
C122 C 0.52178 0.05544 0.85997 0.0
O123 O 0.5033 0.99531 0.83906 0.0
O124 O 0.51573 0.97068 0.76009 0.0
O125 O 0.53235 0.99433 0.64277 0.0
O126 O 0.54274 0.0131 0.74089 0.0
C127 C 0.51082 0.97552 0.82406 0.0
O128 O 0.48711 0.95125 0.65622 0.0
O129 O 0.49339 0.97198 0.56673 0.0
O130 O 0.48623 0.01789 0.62169 0.0
O131 O 0.51249 0.03911 0.67467 0.0
O132 O 0.47441 0.02574 0.77757 0.0
O133 O 0.46631 0.99143 0.73289 0.0
C134 C 0.54762 1.00343 0.68186 0.0
O135 O 0.50835 0.05833 0.80795 0.0
O136 O 0.52666 0.03459 0.8692 0.0
C137 C 0.46579 0.94462 0.55759 0.0
C138 C 0.42664 0.92843 0.49749 0.0
C139 C 0.44635 0.91612 0.49364 0.0
C140 C 0.46582 0.92421 0.52344 0.0
C141 C 0.4461 0.95677 0.56274 0.0
C142 C 0.42668 0.94876 0.5328 0.0
C143 C 0.48619 0.95287 0.58917 0.0
H144 H 0.56569 0.1039 0.98126 0.0
H145 H 0.5316 0.08279 0.96497 0.0
H146 H 0.55435 0.06167 0.76493 0.0
H147 H 0.58843 0.08321 0.77994 0.0
H148 H 0.44683 0.90052 0.46627 0.0
H149 H 0.48092 0.9146 0.51954 0.0
H150 H 0.4458 0.97245 0.58979 0.0
H151 H 0.41166 0.95845 0.53735 0.0
Tb152 Tb 0.4841 0.50796 0.76475 0.0
Eu153 Eu 0.52258 0.49601 0.6531 0.0
C154 C 0.47155 0.49765 0.61172 0.0
C155 C 0.50073 0.45839 0.74943 0.0
C156 C 0.43876 0.53715 0.85402 0.0
C157 C 0.41646 0.56608 0.80045 0.0
C158 C 0.42826 0.54619 0.79551 0.0
C159 C 0.43651 0.54768 0.91772 0.0
C160 C 0.42507 0.56764 0.92252 0.0
C161 C 0.41531 0.57745 0.86365 0.0
C162 C 0.45407 0.51831 0.84881 0.0
O163 O 0.51406 0.50052 0.82377 0.0
O164 O 0.53813 0.51356 0.74346 0.0
O165 O 0.51239 0.53081 0.62604 0.0
O166 O 0.49615 0.54036 0.72909 0.0
C167 C 0.53365 0.50838 0.80766 0.0
O168 O 0.55774 0.4942 0.62911 0.0
O169 O 0.53373 0.48523 0.55122 0.0
O170 O 0.48975 0.48588 0.60631 0.0
O171 O 0.46893 0.51143 0.66328 0.0
O172 O 0.48385 0.4718 0.75946 0.0
O173 O 0.51895 0.46527 0.71896 0.0
C174 C 0.50443 0.5458 0.66829 0.0
O175 O 0.45109 0.50474 0.79743 0.0
O176 O 0.47491 0.52327 0.8573 0.0
C177 C 0.5674 0.4656 0.55297 0.0
C178 C 0.59017 0.42633 0.51997 0.0
C179 C 0.58759 0.44332 0.4705 0.0
C180 C 0.57634 0.46279 0.48698 0.0
C181 C 0.57029 0.44897 0.60307 0.0
C182 C 0.58169 0.42955 0.58682 0.0
C183 C 0.55461 0.48564 0.56832 0.0
H184 H 0.40892 0.57287 0.75424 0.0
H185 H 0.42985 0.53837 0.74554 0.0
H186 H 0.44463 0.54104 0.96328 0.0
H187 H 0.42516 0.57595 0.97189 0.0
H188 H 0.5935 0.44125 0.41815 0.0
H189 H 0.57417 0.47545 0.44769 0.0
H190 H 0.56347 0.45085 0.65443 0.0
H191 H 0.58354 0.41691 0.6263 0.0
Tb192 Tb 0.99999 0.49134 0.74758 0.0
Eu193 Eu 0.01449 0.53045 0.63968 0.0
C194 C 0.01423 0.47986 0.59614 0.0
C195 C 0.05052 0.50622 0.73853 0.0
C196 C 0.96815 0.4459 0.82823 0.0
C197 C 0.94894 0.414 0.87584 0.0
C198 C 0.96815 0.42683 0.86966 0.0
C199 C 0.94919 0.45137 0.78999 0.0
C200 C 0.92995 0.43876 0.79669 0.0
C201 C 0.92936 0.42024 0.84121 0.0
C202 C 0.98747 0.46065 0.82747 0.0
O203 O 0.00753 0.52081 0.80848 0.0
O204 O 0.99525 0.54518 0.72791 0.0
O205 O 0.97999 0.52096 0.60763 0.0
O206 O 0.9684 0.50437 0.70834 0.0
C207 C 1.00008 0.54057 0.7923 0.0
O208 O 0.02343 0.56519 0.62665 0.0
O209 O 0.02016 0.54419 0.53676 0.0
O210 O 0.02605 0.49814 0.59321 0.0
O211 O 0.99912 0.4772 0.64424 0.0
O212 O 0.03613 0.4903 0.751 0.0
O213 O 0.04504 0.52429 0.7043 0.0
C214 C 0.96415 0.51296 0.64699 0.0
O215 O 1.00135 0.45776 0.77689 0.0
O216 O 0.98319 0.48159 0.83728 0.0
C217 C 0.04641 0.57328 0.5326 0.0
C218 C 0.08589 0.59272 0.48412 0.0
C219 C 0.0669 0.60574 0.49468 0.0
C220 C 0.04732 0.59607 0.51868 0.0
C221 C 0.06531 0.56021 0.52281 0.0
C222 C 0.08484 0.56982 0.49838 0.0
C223 C 0.02594 0.56362 0.56008 0.0
H224 H 0.94923 0.39963 0.90956 0.0
H225 H 0.98278 0.42223 0.89883 0.0
H226 H 0.94899 0.46592 0.7571 0.0
H227 H 0.91522 0.44438 0.76991 0.0
H228 H 0.0672 0.62343 0.48496 0.0
H229 H 0.0329 0.60642 0.52683 0.0
H230 H 0.06496 0.5426 0.53393 0.0
H231 H 0.099 0.5592 0.48962 0.0
H232 H 0.17875 1.00063 0.11932 0.0
H233 H 0.1448 0.00997 0.18304 0.0
H234 H 0.18355 0.02044 0.36724 0.0
H235 H 0.21727 0.01124 0.30367 0.0
H236 H 0.13033 0.98502 0.29256 0.0
H237 H 0.14022 0.07185 0.37705 0.0
H238 H 0.15642 0.06011 0.30789 0.0
H239 H 0.16413 0.0553 0.39651 0.0
C240 C 0.18002 1.00586 0.1726 0.0
C241 C 0.20062 1.00561 0.20635 0.0
C242 C 0.16063 0.01098 0.2092 0.0
C243 C 0.16156 0.01615 0.27996 0.0
C244 C 0.18234 0.01705 0.31251 0.0
H245 H 0.07355 0.98584 0.61211 0.0
H246 H 0.10219 0.98842 0.52375 0.0
C247 C 0.20164 0.0118 0.27614 0.0
C248 C 0.14091 0.01773 0.32201 0.0
H249 H 0.11457 0.04947 0.44266 0.0
C250 C 0.12671 0.99928 0.32447 0.0
C251 C 0.136 0.03635 0.36353 0.0
C252 C 0.14988 0.05711 0.36069 0.0
C253 C 0.10846 0.99852 0.36949 0.0
C254 C 0.10434 0.01659 0.41401 0.0
C255 C 0.11785 0.0355 0.40918 0.0
C256 C 0.08685 0.01556 0.46824 0.0
C257 C 0.09388 0.97821 0.36965 0.0
C258 C 0.06885 0.03032 0.46764 0.0
C259 C 0.0523 0.02889 0.51843 0.0
C260 C 0.05357 0.01282 0.57129 0.0
C261 C 0.07188 0.99837 0.57222 0.0
C262 C 0.08828 0.99974 0.52141 0.0
H263 H 0.09534 0.96884 0.32062 0.0
H264 H 0.09901 0.96707 0.41251 0.0
H265 H 0.07624 0.98273 0.37759 0.0
H266 H 0.06747 0.04276 0.42736 0.0
H267 H 0.03852 0.04036 0.51619 0.0
H268 H 0.49836 0.21664 0.30184 0.0
H269 H 0.4893 0.18234 0.36348 0.0
H270 H 0.50032 0.14507 0.17726 0.0
H271 H 0.50962 0.17959 0.11541 0.0
H272 H 0.45961 0.14627 0.34809 0.0
H273 H 0.54763 0.12146 0.31251 0.0
H274 H 0.53794 0.14908 0.29345 0.0
H275 H 0.53211 0.12682 0.23499 0.0
C276 C 0.49813 0.20119 0.27354 0.0
C277 C 0.50464 0.20073 0.20389 0.0
C278 C 0.49303 0.18159 0.30884 0.0
C279 C 0.49452 0.16106 0.27544 0.0
C280 C 0.49936 0.16069 0.20437 0.0
H281 H 0.47012 0.03694 0.51182 0.0
H282 H 0.46761 0.06564 0.42177 0.0
C283 C 0.50441 0.18041 0.16883 0.0
C284 C 0.4933 0.14028 0.31726 0.0
H285 H 0.52552 0.09835 0.38137 0.0
C286 C 0.4739 0.13557 0.35462 0.0
C287 C 0.51208 0.12652 0.32664 0.0
C288 C 0.53371 0.1312 0.29033 0.0
C289 C 0.47293 0.11779 0.402 0.0
C290 C 0.49182 0.10426 0.412 0.0
C291 C 0.51101 0.10865 0.3734 0.0
C292 C 0.49279 0.08672 0.46642 0.0
C293 C 0.45206 0.11423 0.44335 0.0
C294 C 0.50795 0.08882 0.52097 0.0
C295 C 0.50946 0.0725 0.57223 0.0
C296 C 0.49593 0.0535 0.57012 0.0
C297 C 0.48074 0.05136 0.51527 0.0
C298 C 0.47921 0.06781 0.46388 0.0
H299 H 0.4404 0.12839 0.43833 0.0
H300 H 0.44355 0.09909 0.42481 0.0
H301 H 0.45607 0.11176 0.49884 0.0
H302 H 0.51863 0.10322 0.52406 0.0
H303 H 0.52137 0.07479 0.61344 0.0
H304 H 0.29845 0.4833 0.20065 0.0
H305 H 0.33051 0.47132 0.26997 0.0
H306 H 0.36322 0.53334 0.2257 0.0
H307 H 0.33177 0.54493 0.15517 0.0
H308 H 0.39266 0.49987 0.2292 0.0
H309 H 0.33887 0.49619 0.46183 0.0
H310 H 0.33118 0.4778 0.39325 0.0
H311 H 0.32929 0.50727 0.38054 0.0
C312 C 0.31278 0.49404 0.20419 0.0
C313 C 0.3125 0.51515 0.17309 0.0
C314 C 0.33097 0.48734 0.24461 0.0
C315 C 0.34909 0.50168 0.2548 0.0
C316 C 0.34944 0.52202 0.21935 0.0
H317 H 0.43473 0.52365 0.59815 0.0
H318 H 0.40596 0.52184 0.50996 0.0
C319 C 0.33141 0.52865 0.17904 0.0
C320 C 0.36703 0.49664 0.3057 0.0
H321 H 0.37682 0.48998 0.47856 0.0
C322 C 0.3892 0.49744 0.28365 0.0
C323 C 0.36257 0.49379 0.37703 0.0
C324 C 0.33923 0.49388 0.40496 0.0
C325 C 0.40693 0.49615 0.33083 0.0
C326 C 0.40245 0.49346 0.40219 0.0
C327 C 0.3803 0.49195 0.42395 0.0
C328 C 0.42027 0.49404 0.45578 0.0
C329 C 0.43025 0.49883 0.30406 0.0
C330 C 0.43797 0.47889 0.45549 0.0
C331 C 0.4547 0.48002 0.5058 0.0
C332 C 0.45392 0.49614 0.55806 0.0
C333 C 0.43596 0.51101 0.5588 0.0
C334 C 0.4194 0.50997 0.50834 0.0
H335 H 0.43054 0.50602 0.25114 0.0
H336 H 0.44017 0.50965 0.33854 0.0
H337 H 0.43836 0.48236 0.30211 0.0
H338 H 0.43881 0.46609 0.41659 0.0
H339 H 0.46816 0.46819 0.50398 0.0
H340 H 0.97831 0.33141 0.16162 0.0
H341 H 0.98837 0.36589 0.21889 0.0
H342 H 0.05145 0.33774 0.27641 0.0
H343 H 0.04105 0.30284 0.21993 0.0
H344 H 0.03053 0.35271 0.38643 0.0
H345 H 0.02698 0.41888 0.18965 0.0
H346 H 1.00211 0.40267 0.18769 0.0
H347 H 0.02826 0.38993 0.1669 0.0
C348 C 0.99471 0.33292 0.1839 0.0
C349 C 0.009 0.31453 0.18563 0.0
C350 C 1.00049 0.3527 0.21672 0.0
C351 C 0.02079 0.35466 0.25174 0.0
C352 C 0.03574 0.33676 0.24949 0.0
H353 H 0.04426 0.47795 0.48879 0.0
H354 H 0.04894 0.44797 0.4046 0.0
C355 C 0.02993 0.31689 0.21651 0.0
C356 C 0.02474 0.37394 0.29846 0.0
H357 H 0.02025 0.43039 0.30803 0.0
C358 C 0.0287 0.3697 0.36883 0.0
C359 C 0.02265 0.39625 0.27605 0.0
C360 C 0.02001 0.4022 0.20078 0.0
C361 C 0.02937 0.3869 0.41756 0.0
C362 C 0.02547 0.40902 0.39592 0.0
C363 C 0.02284 0.41344 0.32507 0.0
C364 C 0.02277 0.42743 0.4465 0.0
C365 C 0.034 0.38111 0.49207 0.0
C366 C 1.00626 0.42614 0.49734 0.0
C367 C 1.00358 0.44314 0.54545 0.0
C368 C 0.01721 0.46208 0.54372 0.0
C369 C 0.03351 0.46359 0.49192 0.0
C370 C 0.03621 0.44647 0.44366 0.0
H371 H 0.04365 0.36549 0.49655 0.0
H372 H 0.04329 0.39454 0.51832 0.0
H373 H 0.01806 0.37859 0.51951 0.0
H374 H 0.99528 0.41195 0.49968 0.0
H375 H 0.99073 0.44138 0.584 0.0
H376 H 0.78771 0.99624 0.13835 0.0
H377 H 0.82147 0.98699 0.07454 0.0
H378 H 0.86094 0.01736 0.2339 0.0
H379 H 0.82707 0.02634 0.29816 0.0
H380 H 0.84867 0.02014 0.02587 0.0
H381 H 0.89738 0.96202 0.18894 0.0
H382 H 0.86811 0.96666 0.20177 0.0
H383 H 0.88798 0.98649 0.23248 0.0
C384 C 0.80366 1.00004 0.16107 0.0
C385 C 0.80487 0.01155 0.2238 0.0
C386 C 0.82294 0.99495 0.12435 0.0
C387 C 0.84383 1.00132 0.14945 0.0
C388 C 0.84512 0.01182 0.21404 0.0
H389 H 0.97444 0.0108 0.95508 0.0
H390 H 0.94335 0.011 0.03661 0.0
C391 C 0.82577 0.01689 0.25092 0.0
C392 C 0.8637 0.99957 0.104 0.0
H393 H 0.9158 0.97763 0.0916 0.0
C394 C 0.86327 0.0107 0.04013 0.0
C395 C 0.88291 0.98753 0.12287 0.0
C396 C 0.88416 0.97482 0.18998 0.0
C397 C 0.88146 0.01027 0.99496 0.0
C398 C 0.90057 0.99796 0.01319 0.0
C399 C 0.90114 0.98699 0.07741 0.0
C400 C 0.91994 0.99626 0.96571 0.0
C401 C 0.88019 0.0235 0.92869 0.0
C402 C 0.91736 0.98735 0.89933 0.0
C403 C 0.93502 0.98732 0.85258 0.0
C404 C 0.95582 0.99599 0.87127 0.0
C405 C 0.95866 1.00405 0.93882 0.0
C406 C 0.9409 1.00416 0.98557 0.0
H407 H 0.86742 0.03671 0.93148 0.0
H408 H 0.89638 0.03129 0.9163 0.0
H409 H 0.87564 0.01229 0.88569 0.0
H410 H 0.90152 0.98069 0.88322 0.0
H411 H 0.93223 0.98077 0.80134 0.0
H412 H 0.52909 0.80193 0.21348 0.0
H413 H 0.53583 0.83759 0.15546 0.0
H414 H 0.46857 0.85731 0.1978 0.0
H415 H 0.4618 0.82159 0.25442 0.0
H416 H 0.47826 0.85841 0.06087 0.0
H417 H 0.54376 0.90285 0.206 0.0
H418 H 0.5505 0.87464 0.18563 0.0
H419 H 0.52793 0.88037 0.24327 0.0
C420 C 0.51612 0.81432 0.21305 0.0
C421 C 0.49504 0.80921 0.23926 0.0
C422 C 0.51993 0.83468 0.17968 0.0
C423 C 0.50274 0.85025 0.17241 0.0
C424 C 0.48212 0.84565 0.20288 0.0
H425 H 0.50177 0.97908 0.96265 0.0
H426 H 0.50096 0.94926 0.04916 0.0
C427 C 0.4783 0.82533 0.23578 0.0
C428 C 0.50507 0.86971 0.12519 0.0
H429 H 0.53524 0.91669 0.09322 0.0
C430 C 0.49065 0.8712 0.06835 0.0
C431 C 0.52119 0.88647 0.13479 0.0
C432 C 0.53662 0.8862 0.19604 0.0
C433 C 0.49205 0.88872 0.02057 0.0
C434 C 0.50853 0.90516 0.02905 0.0
C435 C 0.52275 0.90397 0.08646 0.0
C436 C 0.51104 0.92359 0.97834 0.0
C437 C 0.47575 0.8896 0.96148 0.0
C438 C 0.51746 0.91917 0.91016 0.0
C439 C 0.51796 0.93614 0.86064 0.0
C440 C 0.51204 0.95796 0.87819 0.0
C441 C 0.50635 0.96249 0.94719 0.0
C442 C 0.50593 0.94547 0.99682 0.0
H443 H 0.46122 0.87868 0.97072 0.0
H444 H 0.46977 0.9068 0.95284 0.0
H445 H 0.48406 0.88402 0.91355 0.0
H446 H 0.52169 0.90245 0.89491 0.0
H447 H 0.52253 0.932 0.80821 0.0
H448 H 0.68272 0.4673 0.25513 0.0
H449 H 0.64821 0.47632 0.19411 0.0
H450 H 0.67834 0.53566 0.11264 0.0
H451 H 0.71286 0.52677 0.1744 0.0
H452 H 0.62024 0.5229 0.17648 0.0
H453 H 0.66349 0.4864 0.94977 0.0
H454 H 0.67094 0.47894 0.03718 0.0
H455 H 0.6782 0.50571 1.00378 0.0
C456 C 0.6816 0.48279 0.22679 0.0
C457 C 0.70029 0.49654 0.22029 0.0
C458 C 0.66195 0.48785 0.19163 0.0
C459 C 0.66076 0.50661 0.14871 0.0
C460 C 0.6789 0.52118 0.14587 0.0
H461 H 0.57378 0.52918 0.79613 0.0
H462 H 0.60355 0.53088 0.88146 0.0
C463 C 0.69852 0.51621 0.18158 0.0
C464 C 0.6419 0.50911 0.09988 0.0
H465 H 0.62683 0.49798 0.93361 0.0
C466 C 0.62164 0.51759 0.12325 0.0
C467 C 0.64381 0.50217 0.03055 0.0
C468 C 0.6652 0.4927 1.00331 0.0
C469 C 0.60321 0.51942 0.07875 0.0
C470 C 0.60496 0.51198 0.00957 0.0
C471 C 0.62538 0.50369 0.98642 0.0
C472 C 0.58593 0.51237 0.96011 0.0
C473 C 0.58222 0.52969 0.10604 0.0
C474 C 0.56594 0.50143 0.97549 0.0
C475 C 0.54873 0.50061 0.9268 0.0
C476 C 0.55126 0.51039 0.86115 0.0
C477 C 0.57123 0.52143 0.84605 0.0
C478 C 0.58831 0.52242 0.89492 0.0
H479 H 0.58563 0.54066 0.15072 0.0
H480 H 0.57361 0.53949 0.06546 0.0
H481 H 0.57091 0.51635 0.12392 0.0
H482 H 0.56382 0.49299 0.02448 0.0
H483 H 0.53368 0.4918 0.94 0.0
H484 H 0.99186 0.72115 0.15447 0.0
H485 H 0.98222 0.68861 0.0845 0.0
H486 H 0.02923 0.64927 0.19944 0.0
H487 H 0.03901 0.68179 0.26863 0.0
H488 H 0.01653 0.66657 0.00455 0.0
H489 H 0.97355 0.60827 0.18222 0.0
H490 H 0.97479 0.63778 0.19754 0.0
H491 H 0.99849 0.62069 0.21511 0.0
C492 C 0.99945 0.70533 0.16641 0.0
C493 C 0.01584 0.70382 0.21775 0.0
C494 C 0.9941 0.68681 0.12611 0.0
C495 C 1.00485 0.66642 0.13707 0.0
C496 C 0.02041 0.66466 0.19079 0.0
H497 H 0.017 0.54046 0.92406 0.0
H498 H 0.01702 0.57095 0.00719 0.0
C499 C 0.02594 0.68322 0.23046 0.0
C500 C 1.0019 0.64783 0.08749 0.0
H501 H 0.98519 0.59384 0.07429 0.0
C502 C 0.00945 0.65074 0.01953 0.0
C503 C 0.993 0.62708 0.10738 0.0
C504 C 0.98431 0.62318 0.17938 0.0
C505 C 0.00885 0.63336 0.97141 0.0
C506 C 0.99978 0.61257 0.99097 0.0
C507 C 0.99207 0.60972 0.05898 0.0
C508 C 0.99855 0.59355 0.94188 0.0
C509 C 0.01879 0.63726 0.90089 0.0
C510 C 0.98767 0.59576 0.87803 0.0
C511 C 0.98785 0.57845 0.83012 0.0
C512 C 0.99857 0.5583 0.84534 0.0
C513 C 0.00862 0.55573 0.91051 0.0
C514 C 0.00863 0.57318 0.95818 0.0
H515 H 0.03068 0.65132 0.90114 0.0
H516 H 0.02754 0.62228 0.88212 0.0
H517 H 1.00539 0.6414 0.86377 0.0
H518 H 0.97919 0.61101 0.86482 0.0
H519 H 0.9797 0.58094 0.78083 0.0
H520 H 0.96963 0.27425 0.34648 0.0
H521 H 0.9474 0.2554 0.4333 0.0
H522 H 0.91903 0.21376 0.27595 0.0
H523 H 0.93929 0.23412 0.1876 0.0
H524 H 0.89038 0.21892 0.38 0.0
H525 H 0.97361 0.19728 0.48588 0.0
H526 H 0.96664 0.22612 0.48834 0.0
H527 H 0.97041 0.21256 0.40658 0.0
C528 C 0.95802 0.26174 0.32953 0.0
C529 C 0.95688 0.25526 0.25977 0.0
C530 C 0.94551 0.25074 0.37971 0.0
C531 C 0.93232 0.23255 0.36151 0.0
C532 C 0.92942 0.22752 0.29144 0.0
H533 H 0.90407 0.10561 0.44637 0.0
H534 H 0.89851 0.14424 0.41482 0.0
C535 C 0.94137 0.23894 0.24098 0.0
C536 C 0.92429 0.21666 0.41443 0.0
H537 H 0.94352 0.17785 0.52808 0.0
C538 C 0.9019 0.21022 0.41351 0.0
C539 C 0.93933 0.20531 0.45838 0.0
C540 C 0.96384 0.21049 0.45974 0.0
C541 C 0.89451 0.19181 0.45169 0.0
C542 C 0.90989 0.17969 0.49176 0.0
C543 C 0.93175 0.1873 0.49748 0.0
C544 C 0.9054 0.15697 0.51693 0.0
C545 C 0.8706 0.18486 0.44639 0.0
C546 C 0.91026 0.15119 0.58554 0.0
C547 C 0.91351 0.12901 0.60375 0.0
C548 C 0.91219 0.11232 0.55341 0.0
C549 C 0.90509 0.118 0.48649 0.0
C550 C 0.90177 0.14016 0.46841 0.0
H551 H 0.85973 0.19935 0.43587 0.0
H552 H 0.86872 0.17313 0.40282 0.0
H553 H 0.86495 0.17647 0.4944 0.0
H554 H 0.91325 0.16393 0.62363 0.0
H555 H 0.91852 0.12507 0.65612 0.0
H556 H 0.25728 0.92213 0.12467 0.0
H557 H 0.28261 0.89586 0.18042 0.0
H558 H 0.27917 0.93398 0.36825 0.0
H559 H 0.25335 0.95934 0.31391 0.0
H560 H 0.32066 0.90952 0.2075 0.0
H561 H 0.29131 0.87626 0.45352 0.0
H562 H 0.27214 0.88697 0.38988 0.0
H563 H 0.28422 0.90501 0.45403 0.0
C564 C 0.26119 0.92417 0.17888 0.0
C565 C 0.25358 0.94282 0.21493 0.0
C566 C 0.27562 0.90917 0.21075 0.0
C567 C 0.28291 0.91282 0.27874 0.0
C568 C 0.27348 0.93025 0.31658 0.0
H569 H 0.39878 0.95283 0.41768 0.0
H570 H 0.36496 0.94072 0.36053 0.0
C571 C 0.25877 0.94498 0.28517 0.0
C572 C 0.30388 0.90272 0.3039 0.0
H573 H 0.3304 0.89186 0.45592 0.0
C574 C 0.3226 0.90471 0.2612 0.0
C575 C 0.30675 0.89584 0.37334 0.0
C576 C 0.28739 0.89067 0.41976 0.0
C577 C 0.344 0.90323 0.28849 0.0
C578 C 0.34671 0.90013 0.36027 0.0
C579 C 0.32823 0.89494 0.40111 0.0
C580 C 0.36755 0.9066 0.39467 0.0
C581 C 0.36352 0.90685 0.24119 0.0
C582 C 0.37991 0.8915 0.43418 0.0
C583 C 0.39931 0.89846 0.46743 0.0
C584 C 0.40629 0.92067 0.46238 0.0
C585 C 0.39371 0.93569 0.42312 0.0
C586 C 0.37452 0.92873 0.38981 0.0
H587 H 0.35977 0.90103 0.18811 0.0
H588 H 0.36722 0.92485 0.23806 0.0
H589 H 0.3785 0.89812 0.26052 0.0
H590 H 0.3746 0.87441 0.43908 0.0
H591 H 0.40864 0.8866 0.49789 0.0
H592 H 0.54625 0.25573 0.31869 0.0
H593 H 0.57094 0.281 0.37923 0.0
H594 H 0.613 0.28486 0.19957 0.0
H595 H 0.58766 0.2601 0.13754 0.0
H596 H 0.61448 0.28705 0.4152 0.0
H597 H 0.58894 0.34694 0.20939 0.0
H598 H 0.57677 0.31979 0.2162 0.0
H599 H 0.60428 0.32309 0.18212 0.0
C600 C 0.56113 0.26138 0.29281 0.0
C601 C 0.5649 0.25631 0.22318 0.0
C602 C 0.57527 0.27583 0.32747 0.0
C603 C 0.59348 0.28528 0.29325 0.0
C604 C 0.59869 0.27821 0.22626 0.0
H605 H 0.62555 0.41832 0.43432 0.0
H606 H 0.63589 0.38273 0.38348 0.0
C607 C 0.58431 0.26403 0.19103 0.0
C608 C 0.60425 0.30495 0.32404 0.0
H609 H 0.60463 0.36127 0.30858 0.0
C610 C 0.61288 0.30326 0.39126 0.0
C611 C 0.60225 0.32613 0.29261 0.0
C612 C 0.59245 0.32926 0.22136 0.0
C613 C 0.61788 0.32226 0.4298 0.0
C614 C 0.61403 0.34338 0.40033 0.0
C615 C 0.60754 0.34502 0.33099 0.0
C616 C 0.61223 0.36361 0.44276 0.0
C617 C 0.62612 0.31959 0.50285 0.0
C618 C 0.59585 0.36457 0.49396 0.0
C619 C 0.58966 0.38485 0.5222 0.0
C620 C 0.5997 0.40462 0.49964 0.0
C621 C 0.61722 0.40343 0.45191 0.0
C622 C 0.62334 0.3831 0.42338 0.0
H623 H 0.63598 0.30415 0.50866 0.0
H624 H 0.63643 0.33392 0.51882 0.0
H625 H 0.61172 0.31834 0.53823 0.0
H626 H 0.58659 0.34987 0.50829 0.0
H627 H 0.5759 0.38512 0.558 0.0
H628 H 0.2473 0.59258 0.08683 0.0
H629 H 0.22192 0.6184 0.14319 0.0
H630 H 0.23527 0.58686 0.33934 0.0
H631 H 0.26078 0.56153 0.28373 0.0
H632 H 0.18648 0.59988 0.19285 0.0
H633 H 0.22266 0.64815 0.40447 0.0
H634 H 0.23949 0.63649 0.33662 0.0
H635 H 0.23213 0.62012 0.4114 0.0
C636 C 0.24548 0.59184 0.14243 0.0
C637 C 0.25574 0.57489 0.18085 0.0
C638 C 0.23107 0.60665 0.17462 0.0
C639 C 0.22665 0.60464 0.24558 0.0
C640 C 0.23872 0.58919 0.28494 0.0
H641 H 0.12863 0.58321 0.52075 0.0
H642 H 0.16228 0.59447 0.46068 0.0
C643 C 0.25326 0.57453 0.25291 0.0
C644 C 0.20601 0.61401 0.27475 0.0
H645 H 0.18469 0.63373 0.42544 0.0
C646 C 0.18604 0.60807 0.24256 0.0
C647 C 0.20541 0.62467 0.33956 0.0
C648 C 0.22614 0.6329 0.37446 0.0
C649 C 0.16572 0.61013 0.27663 0.0
C650 C 0.16534 0.61892 0.34424 0.0
C651 C 0.18505 0.62685 0.37382 0.0
C652 C 0.14555 0.61626 0.38849 0.0
C653 C 0.14521 0.60088 0.24245 0.0
C654 C 0.12508 0.62549 0.36965 0.0
C655 C 0.10568 0.6186 0.40276 0.0
C656 C 0.10654 0.60263 0.45594 0.0
C657 C 0.12732 0.595 0.47863 0.0
C658 C 0.14662 0.60169 0.44503 0.0
H659 H 0.14908 0.59168 0.19439 0.0
H660 H 0.13633 0.58949 0.27815 0.0
H661 H 0.13386 0.61466 0.22873 0.0
H662 H 0.12397 0.63707 0.32688 0.0
H663 H 0.08998 0.62487 0.38405 0.0
H664 H 0.06283 0.75337 0.10298 0.0
H665 H 0.08819 0.77823 0.04349 0.0
H666 H 0.11898 0.79484 0.2376 0.0
H667 H 0.09336 0.76995 0.29776 0.0
H668 H 0.09869 0.82918 0.17919 0.0
H669 H 0.15075 0.79033 0.98036 0.0
H670 H 0.12288 0.78023 0.97519 0.0
H671 H 0.13909 0.77477 0.05161 0.0
C672 C 0.07569 0.76145 0.13271 0.0
C673 C 0.0759 0.76001 0.20514 0.0
C674 C 0.09033 0.77562 0.09846 0.0
C675 C 0.10557 0.7884 0.13599 0.0
C676 C 0.10741 0.78508 0.20759 0.0
H677 H 0.12486 0.92391 0.99291 0.0
H678 H 0.13787 0.89038 0.0503 0.0
C679 C 0.09268 0.77099 0.24194 0.0
C680 C 0.11482 0.80871 0.10377 0.0
H681 H 0.1379 0.82812 0.95449 0.0
C682 C 0.10794 0.82903 0.1312 0.0
C683 C 0.1267 0.80846 0.04095 0.0
C684 C 0.13545 0.78723 0.01077 0.0
C685 C 0.11061 0.84888 0.0945 0.0
C686 C 0.12128 0.84852 0.02932 0.0
C687 C 0.12976 0.82841 0.00436 0.0
C688 C 0.12032 0.86803 0.98253 0.0
C689 C 0.10004 0.86959 0.12323 0.0
C690 C 0.10824 0.86647 0.92085 0.0
C691 C 0.10144 0.88561 0.88614 0.0
C692 C 0.10618 0.90668 0.9134 0.0
C693 C 0.12061 0.90807 0.97047 0.0
C694 C 0.1279 0.88886 1.00405 0.0
H695 H 0.08892 0.86596 0.16752 0.0
H696 H 0.11316 0.88101 0.1417 0.0
H697 H 0.09021 0.87829 0.0829 0.0
H698 H 0.10253 0.85053 0.90243 0.0
H699 H 0.09119 0.88385 0.8406 0.0
H700 H 0.75186 0.05169 0.09661 0.0
H701 H 0.72805 0.0759 0.02883 0.0
H702 H 0.71727 0.117 0.20743 0.0
H703 H 0.74076 0.09222 0.27632 0.0
H704 H 0.68019 0.10242 0.16174 0.0
H705 H 0.72446 0.13424 0.93466 0.0
H706 H 0.72946 0.10508 0.9412 0.0
H707 H 0.739 0.12323 0.00887 0.0
C708 C 0.74514 0.06637 0.12081 0.0
C709 C 0.748 0.07001 0.1918 0.0
C710 C 0.73162 0.08037 0.08175 0.0
C711 C 0.72101 0.0985 0.11262 0.0
C712 C 0.72535 0.10319 0.18235 0.0
H713 H 0.59013 0.13416 0.94798 0.0
H714 H 0.62606 0.14391 0.99869 0.0
C715 C 0.73867 0.089 0.22172 0.0
C716 C 0.70211 0.1092 0.07646 0.0
H717 H 0.68484 0.12478 0.9155 0.0
C718 C 0.68131 0.10814 0.10868 0.0
C719 C 0.70349 0.11674 0.00729 0.0
C720 C 0.7254 0.1201 0.9715 0.0
C721 C 0.66175 0.11204 0.07166 0.0
C722 C 0.66307 0.11744 1.00061 0.0
C723 C 0.68389 0.12049 0.96988 0.0
C724 C 0.64326 0.11571 0.95598 0.0
C725 C 0.63982 0.10828 0.10735 0.0
C726 C 0.64148 0.09746 0.91183 0.0
C727 C 0.62107 0.09182 0.88306 0.0
C728 C 0.60207 0.10439 0.89793 0.0
C729 C 0.60439 0.12392 0.93674 0.0
C730 C 0.62489 0.12957 0.96546 0.0
H731 H 0.64185 0.10181 0.16078 0.0
H732 H 0.63063 0.12417 0.1101 0.0
H733 H 0.62955 0.09636 0.07773 0.0
H734 H 0.65547 0.08651 0.90405 0.0
H735 H 0.61991 0.0766 0.85389 0.0
H736 H 0.43577 0.76828 0.1279 0.0
H737 H 0.41756 0.74848 0.03307 0.0
H738 H 0.45758 0.69087 0.07681 0.0
H739 H 0.47673 0.71076 0.16728 0.0
H740 H 0.45645 0.70095 0.94065 0.0
H741 H 0.37085 0.70015 0.0479 0.0
H742 H 0.3842 0.72644 0.03365 0.0
H743 H 0.39433 0.70814 0.09982 0.0
C744 C 0.44078 0.75144 0.11684 0.0
C745 C 0.45758 0.74104 0.15587 0.0
C746 C 0.43017 0.74009 0.06315 0.0
C747 C 0.43604 0.71813 0.04836 0.0
C748 C 0.45275 0.70782 0.08732 0.0
H749 H 0.39412 0.59763 0.97204 0.0
H750 H 0.39333 0.63712 0.99339 0.0
C751 C 0.46349 0.71915 0.1399 0.0
C752 C 0.42537 0.70526 0.9925 0.0
H753 H 0.3787 0.67531 0.95917 0.0
C754 C 0.43931 0.69559 0.94338 0.0
C755 C 0.4029 0.69878 0.99563 0.0
C756 C 0.38711 0.70879 0.04709 0.0
C757 C 0.43244 0.67737 0.90432 0.0
C758 C 0.41041 0.66942 0.91188 0.0
C759 C 0.39559 0.68121 0.954 0.0
C760 C 0.40427 0.64656 0.89073 0.0
C761 C 0.44972 0.66547 0.8619 0.0
C762 C 0.40871 0.63857 0.82422 0.0
C763 C 0.4105 0.61575 0.81303 0.0
C764 C 0.40681 0.60062 0.86752 0.0
C765 C 0.39833 0.60876 0.93004 0.0
C766 C 0.39746 0.63148 0.94196 0.0
H767 H 0.46666 0.67213 0.87049 0.0
H768 H 0.44999 0.64753 0.87473 0.0
H769 H 0.44588 0.66746 0.80621 0.0
H770 H 0.4128 0.64989 0.78265 0.0
H771 H 0.41665 0.61026 0.76352 0.0
H772 H 0.783 0.42928 0.22668 0.0
H773 H 0.80529 0.41081 0.13983 0.0
H774 H 0.76372 0.43791 0.97913 0.0
H775 H 0.74297 0.45861 0.06467 0.0
H776 H 0.80311 0.38265 0.03662 0.0
H777 H 0.8204 0.46687 0.93008 0.0
H778 H 0.80467 0.46282 0.00787 0.0
H779 H 0.79201 0.4584 0.92478 0.0
C780 C 0.77863 0.43154 0.17289 0.0
C781 C 0.76172 0.44631 0.15302 0.0
C782 C 0.79119 0.42059 0.12319 0.0
C783 C 0.78672 0.42368 0.05269 0.0
C784 C 0.76803 0.43599 0.03311 0.0
H785 H 0.89391 0.41222 0.755 0.0
H786 H 0.8557 0.40548 0.79124 0.0
C787 C 0.7559 0.44758 0.08258 0.0
C788 C 0.80339 0.41658 1.00105 0.0
H789 H 0.84102 0.43772 0.88709 0.0
C790 C 0.81115 0.39461 1.00294 0.0
C791 C 0.81393 0.43219 0.95697 0.0
C792 C 0.80751 0.4564 0.95499 0.0
C793 C 0.82997 0.38822 0.9654 0.0
C794 C 0.84106 0.40414 0.92454 0.0
C795 C 0.83228 0.42553 0.91816 0.0
C796 C 0.86386 0.40079 0.89903 0.0
C797 C 0.83848 0.36484 0.97214 0.0
C798 C 0.88115 0.39954 0.94727 0.0
C799 C 0.90289 0.40397 0.92719 0.0
C800 C 0.90775 0.40966 0.85829 0.0
C801 C 0.89068 0.40848 0.80879 0.0
C802 C 0.86886 0.40433 0.82916 0.0
H803 H 0.82499 0.35317 0.98651 0.0
H804 H 0.84621 0.35923 0.92326 0.0
H805 H 0.85124 0.36422 0.01341 0.0
H806 H 0.87761 0.3973 1.00169 0.0
H807 H 0.91544 0.4049 0.96705 0.0
H808 H 0.9746 0.24033 0.0077 0.0
H809 H 0.98173 0.20687 0.94056 0.0
H810 H 0.04624 0.2011 0.03478 0.0
H811 H 0.03887 0.2346 0.10319 0.0
H812 H 0.01304 0.19229 0.8478 0.0
H813 H 0.01689 0.14291 0.0906 0.0
H814 H 0.00784 0.17139 0.0889 0.0
H815 H 0.03685 0.1649 0.08388 0.0
C816 C 0.99058 0.2323 0.01248 0.0
C817 C 1.00625 0.24016 0.06029 0.0
C818 C 0.9946 0.21307 0.97438 0.0
C819 C 0.01432 0.20108 0.98356 0.0
C820 C 0.03069 0.20976 0.02775 0.0
H821 H 0.04378 0.06574 0.84254 0.0
H822 H 0.04692 0.10312 0.8903 0.0
C823 C 0.02666 0.22911 0.066 0.0
C824 C 0.01674 0.17887 0.95033 0.0
H825 H 0.02045 0.12339 0.98655 0.0
C826 C 0.01483 0.17725 0.87817 0.0
C827 C 0.01896 0.15912 0.98974 0.0
C828 C 0.02007 0.15951 0.06759 0.0
C829 C 0.01496 0.15657 0.84458 0.0
C830 C 0.01666 0.13683 0.88415 0.0
C831 C 0.01914 0.13846 0.9561 0.0
C832 C 0.01509 0.11431 0.85242 0.0
C833 C 0.01338 0.15611 0.76687 0.0
C834 C 0.99608 0.10793 0.81555 0.0
C835 C 0.99421 0.08653 0.78815 0.0
C836 C 0.01128 0.07087 0.79722 0.0
C837 C 0.03032 0.07731 0.83418 0.0
C838 C 0.03215 0.09872 0.86168 0.0
H839 H 0.0189 0.17203 0.74354 0.0
H840 H 0.02352 0.14248 0.74512 0.0
H841 H 0.99587 0.15338 0.75161 0.0
H842 H 0.98243 0.1194 0.80896 0.0
H843 H 0.97924 0.08224 0.76047 0.0
H844 H 0.27468 0.03023 0.10209 0.0
H845 H 0.30804 0.03951 0.03529 0.0
H846 H 0.29697 0.98251 0.9063 0.0
H847 H 0.26362 0.97355 0.9719 0.0
H848 H 0.34382 0.01272 0.03206 0.0
H849 H 0.31635 0.02687 0.7633 0.0
H850 H 0.29735 0.02721 0.83519 0.0
H851 H 0.30573 1.00132 0.79741 0.0
C852 C 0.27883 0.02033 0.05744 0.0
C853 C 0.26639 1.00131 0.04172 0.0
C854 C 0.29806 0.02547 0.01975 0.0
C855 C 0.30508 0.01181 0.96522 0.0
C856 C 0.2918 0.99364 0.94688 0.0
H857 H 0.42548 0.98092 0.74515 0.0
H858 H 0.38797 0.98338 0.7925 0.0
C859 C 0.27268 0.9885 0.98449 0.0
C860 C 0.32747 0.0147 0.93336 0.0
H861 H 0.35475 0.01703 0.7786 0.0
C862 C 0.34617 0.01406 0.97669 0.0
C863 C 0.33068 0.01626 0.86102 0.0
C864 C 0.31144 0.01818 0.81163 0.0
C865 C 0.36782 0.01406 0.94977 0.0
C866 C 0.37101 0.01504 0.87739 0.0
C867 C 0.35236 0.01617 0.83404 0.0
C868 C 0.39357 0.01428 0.8459 0.0
C869 C 0.38712 0.0121 0.99902 0.0
C870 C 0.40916 0.03104 0.85891 0.0
C871 C 0.43066 0.02971 0.83186 0.0
C872 C 0.43709 0.01157 0.79097 0.0
C873 C 0.42123 0.99508 0.77663 0.0
C874 C 0.39971 0.99648 0.80356 0.0
H875 H 0.38182 1.00655 0.05122 0.0
H876 H 0.39964 1.00027 0.97918 0.0
H877 H 0.3952 0.02853 0.00427 0.0
H878 H 0.40474 0.04514 0.89043 0.0
H879 H 0.4423 0.04278 0.84387 0.0
H880 H 0.47972 0.27262 0.08712 0.0
H881 H 0.47078 0.3052 0.01578 0.0
H882 H 0.53169 0.29654 0.90304 0.0
H883 H 0.54037 0.26395 0.97315 0.0
H884 H 0.49621 0.34209 0.0182 0.0
H885 H 0.4906 0.31363 0.74802 0.0
H886 H 0.489 0.29475 0.82046 0.0
H887 H 0.51548 0.30415 0.78921 0.0
C888 C 0.49064 0.27709 0.04493 0.0
C889 C 0.51063 0.26562 0.03524 0.0
C890 C 0.48566 0.29587 0.00467 0.0
C891 C 0.50048 0.30337 0.95353 0.0
C892 C 0.51971 0.29096 0.94088 0.0
H893 H 0.53153 0.42507 0.73681 0.0
H894 H 0.52973 0.38744 0.7845 0.0
C895 C 0.52469 0.27228 0.98108 0.0
C896 C 0.49754 0.32554 0.92005 0.0
H897 H 0.4982 0.35248 0.7641 0.0
C898 C 0.49625 0.34431 0.96259 0.0
C899 C 0.49782 0.32857 0.84746 0.0
C900 C 0.49808 0.30917 0.79866 0.0
C901 C 0.49607 0.3659 0.93485 0.0
C902 C 0.49686 0.36893 0.86236 0.0
C903 C 0.4977 0.3502 0.81966 0.0
C904 C 0.49732 0.39146 0.83028 0.0
C905 C 0.49592 0.38534 0.9836 0.0
C906 C 0.47954 0.40617 0.83887 0.0
C907 C 0.4805 0.42772 0.8117 0.0
C908 C 0.49928 0.43508 0.77503 0.0
C909 C 0.51685 0.42008 0.76495 0.0
C910 C 0.51583 0.3985 0.79208 0.0
H911 H 0.50044 0.38036 0.03709 0.0
H912 H 0.50759 0.39841 0.96596 0.0
H913 H 0.47904 0.3926 0.98489 0.0
H914 H 0.46492 0.40103 0.8671 0.0
H915 H 0.4666 0.43868 0.82028 0.0
H916 H 0.23418 0.4864 0.08762 0.0
H917 H 0.20081 0.47637 0.02183 0.0
H918 H 0.21421 0.52939 0.87765 0.0
H919 H 0.24753 0.53904 0.94233 0.0
H920 H 0.16608 0.50381 0.00978 0.0
H921 H 0.19354 0.48257 0.74653 0.0
H922 H 0.21244 0.48345 0.81877 0.0
H923 H 0.20495 0.50854 0.77366 0.0
C924 C 0.23054 0.49514 0.03995 0.0
C925 C 0.24363 0.51326 0.01941 0.0
C926 C 0.21132 0.48961 1.00281 0.0
C927 C 0.20495 0.50199 0.94421 0.0
C928 C 0.21888 0.51918 0.92142 0.0
H929 H 0.08623 0.53366 0.71619 0.0
H930 H 0.1235 0.53057 0.76536 0.0
C931 C 0.238 0.5247 0.95844 0.0
C932 C 0.18256 0.4991 0.9124 0.0
H933 H 0.15555 0.49461 0.75754 0.0
C934 C 0.16381 0.50138 0.95478 0.0
C935 C 0.17945 0.4961 0.84049 0.0
C936 C 0.19869 0.4923 0.7924 0.0
C937 C 0.14224 0.50165 0.92711 0.0
C938 C 0.13919 0.49934 0.85502 0.0
C939 C 0.15786 0.49652 0.81273 0.0
C940 C 0.11679 0.50046 0.82263 0.0
C941 C 0.12289 0.5053 0.97497 0.0
C942 C 0.10066 0.48435 0.83741 0.0
C943 C 0.07931 0.48603 0.80926 0.0
C944 C 0.07356 0.50388 0.76563 0.0
C945 C 0.08994 0.51974 0.74977 0.0
C946 C 0.11132 0.51798 0.77772 0.0
H947 H 0.12826 0.51128 0.0265 0.0
H948 H 0.11112 0.5175 0.95249 0.0
H949 H 0.11389 0.48943 0.98236 0.0
H950 H 0.10455 0.47052 0.87112 0.0
H951 H 0.06723 0.47344 0.82257 0.0
H952 H 0.9955 0.78973 0.29142 0.0
H953 H 0.988 0.8223 0.36323 0.0
H954 H 0.0258 0.79309 0.52933 0.0
H955 H 0.03369 0.7608 0.45684 0.0
H956 H 0.96994 0.83154 0.49303 0.0
H957 H 0.06009 0.84971 0.48856 0.0
H958 H 0.04767 0.82883 0.43463 0.0
H959 H 0.05319 0.82308 0.52422 0.0
C960 C 1.00144 0.78993 0.34422 0.0
C961 C 0.01484 0.77261 0.36909 0.0
C962 C 0.99735 0.80864 0.38504 0.0
C963 C 0.00676 0.81044 0.45125 0.0
C964 C 0.01873 0.79234 0.47798 0.0
H965 H 0.02024 0.92452 0.72888 0.0
H966 H 0.02015 0.88707 0.68017 0.0
C967 C 0.02293 0.77372 0.43703 0.0
C968 C 1.00556 0.83184 0.48966 0.0
H969 H 0.03771 0.8737 0.55412 0.0
C970 C 0.98476 0.84072 0.50654 0.0
C971 C 0.02489 0.84397 0.50712 0.0
C972 C 0.04772 0.83607 0.48722 0.0
C973 C 0.98278 0.8612 0.54074 0.0
C974 C 1.00211 0.87337 0.55771 0.0
C975 C 0.02289 0.86436 0.54158 0.0
C976 C 1.00119 0.89591 0.58926 0.0
C977 C 0.95999 0.86952 0.55902 0.0
C978 C 0.99075 0.91347 0.5543 0.0
C979 C 0.99081 0.93489 0.58187 0.0
C980 C 1.00141 0.93938 0.64516 0.0
C981 C 0.01181 0.92173 0.6803 0.0
C982 C 0.0118 0.90028 0.65245 0.0
H983 H 0.94773 0.8558 0.56114 0.0
H984 H 0.96009 0.87813 0.60957 0.0
H985 H 0.95443 0.88149 0.51893 0.0
H986 H 0.98289 0.91072 0.50477 0.0
H987 H 0.98271 0.94798 0.55299 0.0
H988 H 0.72442 0.99081 0.32073 0.0
H989 H 0.69209 0.98449 0.39513 0.0
H990 H 0.71504 0.03556 0.53286 0.0
H991 H 0.7469 0.04234 0.45716 0.0
H992 H 0.6829 0.97413 0.53046 0.0
H993 H 0.65593 0.06015 0.47271 0.0
H994 H 0.67875 0.04724 0.42852 0.0
H995 H 0.68257 0.05855 0.51351 0.0
C996 C 0.72293 1.00009 0.36823 0.0
C997 C 0.73827 0.01686 0.38374 0.0
C998 C 0.70435 0.99663 0.41045 0.0
C999 C 0.70075 0.00996 0.46878 0.0
C1000 C 0.71709 0.02545 0.48728 0.0
H1001 H 0.58346 0.02657 0.73249 0.0
H1002 H 0.62137 0.02721 0.68689 0.0
C1003 C 0.73551 0.02907 0.4447 0.0
C1004 C 0.67922 0.00882 0.50675 0.0
H1005 H 0.63389 0.03974 0.5509 0.0
C1006 C 0.67223 0.9885 0.53505 0.0
C1007 C 0.66511 0.02753 0.5125 0.0
C1008 C 0.67082 0.04954 0.47967 0.0
C1009 C 0.65171 0.98643 0.56917 0.0
C1010 C 0.63764 1.00511 0.57466 0.0
C1011 C 0.64473 0.02547 0.54722 0.0
C1012 C 0.61499 1.0037 0.60526 0.0
C1013 C 0.6453 0.96427 0.59944 0.0
C1014 C 0.59871 0.9904 0.57442 0.0
C1015 C 0.57703 0.99009 0.60004 0.0
C1016 C 0.57104 1.00308 0.6573 0.0
C1017 C 0.58745 0.01624 0.68867 0.0
C1018 C 0.60915 0.01665 0.66258 0.0
H1019 H 0.65999 0.95348 0.6077 0.0
H1020 H 0.63656 0.96632 0.64941 0.0
H1021 H 0.63395 0.95569 0.56325 0.0
H1022 H 0.60263 0.98061 0.52934 0.0
H1023 H 0.5649 0.97979 0.57433 0.0
H1024 H 0.47389 0.74878 0.45137 0.0
H1025 H 0.47928 0.71773 0.53237 0.0
H1026 H 0.52753 0.68944 0.39441 0.0
H1027 H 0.52246 0.72058 0.31492 0.0
H1028 H 0.46895 0.6761 0.5021 0.0
H1029 H 0.55729 0.67718 0.57497 0.0
H1030 H 0.54387 0.70079 0.53554 0.0
H1031 H 0.55415 0.67847 0.48304 0.0
C1032 C 0.48643 0.73647 0.44033 0.0
C1033 C 0.49821 0.73735 0.37791 0.0
C1034 C 0.48932 0.71858 0.48611 0.0
C1035 C 0.50403 0.70124 0.4702 0.0
C1036 C 0.51658 0.70278 0.40925 0.0
H1037 H 0.52444 0.5638 0.55426 0.0
H1038 H 0.52402 0.60233 0.51523 0.0
C1039 C 0.51372 0.72065 0.36375 0.0
C1040 C 0.50425 0.68029 0.51183 0.0
H1041 H 0.5388 0.64167 0.5841 0.0
C1042 C 0.48419 0.66881 0.52129 0.0
C1043 C 0.52409 0.67062 0.53691 0.0
C1044 C 0.54601 0.68254 0.53272 0.0
C1045 C 0.48358 0.64756 0.55166 0.0
C1046 C 0.50354 0.63751 0.57385 0.0
C1047 C 0.5235 0.64929 0.5667 0.0
C1048 C 0.50423 0.61426 0.60025 0.0
C1049 C 0.46168 0.63558 0.55674 0.0
C1050 C 0.49346 0.60808 0.66172 0.0
C1051 C 0.49368 0.58594 0.68444 0.0
C1052 C 0.50468 0.56951 0.64607 0.0
C1053 C 0.51571 0.57589 0.58511 0.0
C1054 C 0.51556 0.59799 0.56272 0.0
H1055 H 0.44853 0.64387 0.52589 0.0
H1056 H 0.46335 0.61821 0.53886 0.0
H1057 H 0.45628 0.63515 0.61147 0.0
H1058 H 0.48484 0.62037 0.69209 0.0
H1059 H 0.48503 0.58168 0.73163 0.0
H1060 H 0.77728 0.528 0.31482 0.0
H1061 H 0.81018 0.53618 0.38584 0.0
H1062 H 0.80577 0.47133 0.47893 0.0
H1063 H 0.7731 0.46316 0.40841 0.0
H1064 H 0.82083 0.52815 0.55035 0.0
H1065 H 0.86632 0.47829 0.35529 0.0
H1066 H 0.84043 0.49194 0.33571 0.0
H1067 H 0.8406 0.46729 0.38772 0.0
C1068 C 0.78282 0.51591 0.35259 0.0
C1069 C 0.77256 0.49503 0.35664 0.0
C1070 C 0.80167 0.52052 0.39276 0.0
C1071 C 0.81048 0.50429 0.43738 0.0
C1072 C 0.79925 0.48408 0.44497 0.0
H1073 H 0.92591 0.4985 0.71099 0.0
H1074 H 0.8883 0.4977 0.66311 0.0
C1075 C 0.78053 0.47948 0.40495 0.0
C1076 C 0.83275 0.50711 0.46918 0.0
H1077 H 0.88651 0.49029 0.45216 0.0
C1078 C 0.83523 0.51996 0.52892 0.0
C1079 C 0.85153 0.49649 0.44091 0.0
C1080 C 0.8498 0.48279 0.37614 0.0
C1081 C 0.85603 0.52224 0.56152 0.0
C1082 C 0.87474 0.51122 0.53394 0.0
C1083 C 0.8722 0.49865 0.47361 0.0
C1084 C 0.89728 0.5128 0.56546 0.0
C1085 C 0.85789 0.53668 0.62457 0.0
C1086 C 0.91497 0.52128 0.52647 0.0
C1087 C 0.93648 0.52164 0.55351 0.0
C1088 C 0.94095 0.51337 0.62023 0.0
C1089 C 0.92315 0.50504 0.65958 0.0
C1090 C 0.90156 0.50473 0.6324 0.0
H1091 H 0.8435 0.54804 0.62948 0.0
H1092 H 0.85848 0.52601 0.67136 0.0
H1093 H 0.87332 0.5467 0.623 0.0
H1094 H 0.91216 0.5275 0.47465 0.0
H1095 H 0.94966 0.52817 0.52142 0.0
loop_
_geom_bond_atom_site_label_1
_geom_bond_atom_site_label_2
_geom_bond_distance
_geom_bond_site_symmetry_2
_ccdc_geom_bond_type
H0 C3 0.931 . S
H1 C6 0.928 . S
H2 C8 0.930 . S
C3 H0 0.931 . S
C3 C4 1.413 . S
C3 C5 1.360 . S
C4 C3 1.413 . S
C4 C8 1.429 . S
C5 C3 1.360 . S
C5 C6 1.372 . S
C6 H1 0.928 . S
C6 C5 1.372 . S
C6 C7 1.404 . S
C7 C6 1.404 . S
C7 C8 1.391 . S
C8 H2 0.930 . S
C8 C4 1.429 . S
C8 C7 1.391 . S
H9 C12 0.931 . S
H10 C15 0.928 . S
H11 C17 0.930 . S
C12 H9 0.931 . S
C12 C13 1.413 . S
C12 C14 1.360 . S
C13 C12 1.413 . S
C13 C17 1.429 1_655 S
C14 C12 1.360 . S
C14 C15 1.372 . S
C15 H10 0.928 . S
C15 C14 1.372 . S
C15 C16 1.404 . S
C16 C15 1.404 . S
C16 C17 1.390 1_655 S
C17 H11 0.930 . S
C17 C13 1.429 1_455 S
C17 C16 1.390 1_455 S
H18 C21 0.931 . S
H19 C24 0.928 . S
H20 C26 0.930 . S
C21 H18 0.931 . S
C21 C22 1.413 . S
C21 C23 1.360 . S
C22 C21 1.413 . S
C22 C26 1.429 1_565 S
C23 C21 1.360 . S
C23 C24 1.372 . S
C24 H19 0.928 . S
C24 C23 1.372 . S
C24 C25 1.404 . S
C25 C24 1.404 . S
C25 C26 1.390 1_565 S
C26 H20 0.930 . S
C26 C22 1.429 1_545 S
C26 C25 1.390 1_545 S
H27 C30 0.931 . S
H28 C33 0.928 . S
H29 C35 0.930 . S
C30 H27 0.931 . S
C30 C31 1.413 . S
C30 C32 1.360 . S
C31 C30 1.413 . S
C31 C35 1.429 . S
C32 C30 1.360 . S
C32 C33 1.372 . S
C33 H28 0.928 . S
C33 C32 1.372 . S
C33 C34 1.404 . S
C34 C33 1.404 . S
C34 C35 1.391 . S
C35 H29 0.930 . S
C35 C31 1.429 . S
C35 C34 1.391 . S
H36 C39 0.931 . S
H37 C42 0.928 . S
H38 C44 0.924 1_556 S
C39 H36 0.931 . S
C39 C40 1.413 1_554 S
C39 C41 1.360 . S
C40 C39 1.413 1_556 S
C40 C44 1.427 1_556 S
C41 C39 1.360 . S
C41 C42 1.372 . S
C42 H37 0.928 . S
C42 C41 1.372 . S
C42 C43 1.404 . S
C43 C42 1.404 . S
C43 C44 1.399 . S
C44 H38 0.924 1_554 S
C44 C40 1.427 1_554 S
C44 C43 1.399 . S
H45 C48 0.931 . S
H46 C51 0.928 . S
H47 C53 0.930 1_556 S
C48 H45 0.931 . S
C48 C49 1.413 1_554 S
C48 C50 1.360 . S
C49 C48 1.413 1_556 S
C49 C53 1.429 1_656 S
C50 C48 1.360 . S
C50 C51 1.372 . S
C51 H46 0.928 . S
C51 C50 1.372 . S
C51 C52 1.404 . S
C52 C51 1.404 . S
C52 C53 1.391 1_655 S
C53 H47 0.930 1_554 S
C53 C49 1.429 1_454 S
C53 C52 1.391 1_455 S
H54 C57 0.931 . S
H55 C60 0.928 . S
H56 C62 0.930 1_556 S
C57 H54 0.931 . S
C57 C58 1.413 1_554 S
C57 C59 1.360 . S
C58 C57 1.413 1_556 S
C58 C62 1.429 1_566 S
C59 C57 1.360 . S
C59 C60 1.372 . S
C60 H55 0.928 . S
C60 C59 1.372 . S
C60 C61 1.404 . S
C61 C60 1.404 . S
C61 C62 1.391 1_565 S
C62 H56 0.930 1_554 S
C62 C58 1.429 1_544 S
C62 C61 1.391 1_545 S
H63 C66 0.931 . S
H64 C69 0.928 . S
H65 C71 0.930 . S
C66 H63 0.931 . S
C66 C67 1.413 . S
C66 C68 1.360 1_554 S
C67 C66 1.413 . S
C67 C71 1.429 . S
C68 C66 1.360 1_556 S
C68 C69 1.372 . S
C69 H64 0.928 . S
C69 C68 1.372 . S
C69 C70 1.404 1_556 S
C70 C69 1.404 1_554 S
C70 C71 1.391 . S
C71 H65 0.930 . S
C71 C67 1.429 . S
C71 C70 1.391 . S
Tb72 C82 2.825 . S
Tb72 O83 2.347 1_455 S
Tb72 O86 2.366 . S
Tb72 O91 2.418 . S
Tb72 O92 2.384 1_565 S
Tb72 O95 2.479 . S
Tb72 O96 2.471 . S
Eu73 O84 2.418 . S
Eu73 O85 2.384 1_545 S
Eu73 O88 2.479 . S
Eu73 O89 2.471 . S
Eu73 O90 2.347 1_655 S
Eu73 O93 2.366 . S
Eu73 C103 2.825 . S
C74 O90 1.259 1_565 S
C74 O91 1.265 . S
C75 O92 1.255 . S
C75 O93 1.265 1_455 S
C76 C78 1.380 . S
C76 C79 1.374 . S
C76 C82 1.507 . S
C77 C78 1.384 . S
C77 C81 1.387 . S
C77 H104 0.930 . S
C78 C76 1.380 . S
C78 C77 1.384 . S
C78 H105 0.931 . S
C79 C76 1.374 . S
C79 C80 1.390 . S
C79 H106 0.930 1_455 S
C80 C79 1.390 . S
C80 C81 1.391 . S
C80 H107 0.930 1_455 S
C81 C77 1.387 . S
C81 C80 1.391 . S
C82 Tb72 2.825 . S
C82 C76 1.507 . S
C82 O95 1.238 . S
C82 O96 1.247 . S
O83 Tb72 2.347 1_655 S
O83 C87 1.259 1_565 S
O84 Eu73 2.418 . S
O84 C87 1.265 . S
O85 Eu73 2.384 1_565 S
O85 C94 1.255 . S
O86 Tb72 2.366 . S
O86 C94 1.265 1_455 S
C87 O83 1.259 1_545 S
C87 O84 1.265 . S
O88 Eu73 2.479 . S
O88 C103 1.238 . S
O89 Eu73 2.471 . S
O89 C103 1.247 . S
O90 Eu73 2.347 1_455 S
O90 C74 1.259 1_545 S
O91 Tb72 2.418 . S
O91 C74 1.265 . S
O92 Tb72 2.384 1_545 S
O92 C75 1.255 . S
O93 Eu73 2.366 . S
O93 C75 1.265 1_655 S
C94 O85 1.255 . S
C94 O86 1.265 1_655 S
O95 Tb72 2.479 . S
O95 C82 1.238 . S
O96 Tb72 2.471 . S
O96 C82 1.247 . S
C97 C100 1.380 . S
C97 C101 1.374 . S
C97 C103 1.507 . S
C98 C99 1.387 . S
C98 C102 1.391 . S
C99 C98 1.387 . S
C99 C100 1.384 . S
C99 H108 0.930 . S
C100 C97 1.380 . S
C100 C99 1.384 . S
C100 H109 0.931 . S
C101 C97 1.374 . S
C101 C102 1.390 . S
C101 H110 0.930 1_655 S
C102 C98 1.391 . S
C102 C101 1.390 . S
C102 H111 0.930 1_655 S
C103 Eu73 2.825 . S
C103 O88 1.238 . S
C103 O89 1.247 . S
C103 C97 1.507 . S
H104 C77 0.930 . S
H105 C78 0.931 . S
H106 C79 0.930 1_655 S
H107 C80 0.930 1_655 S
H108 C99 0.930 . S
H109 C100 0.931 . S
H110 C101 0.930 1_455 S
H111 C102 0.930 1_455 S
Tb112 C122 2.825 . S
Tb112 O123 2.347 1_545 S
Tb112 O126 2.366 . S
Tb112 O131 2.418 . S
Tb112 O132 2.384 . S
Tb112 O135 2.479 . S
Tb112 O136 2.471 . S
Eu113 O124 2.418 . S
Eu113 O125 2.384 . S
Eu113 O128 2.479 . S
Eu113 O129 2.471 . S
Eu113 O130 2.347 1_565 S
Eu113 O133 2.366 . S
Eu113 C143 2.825 . S
C114 O130 1.259 . S
C114 O131 1.265 . S
C115 O132 1.255 . S
C115 O133 1.265 1_545 S
C116 C118 1.380 . S
C116 C119 1.374 . S
C116 C122 1.507 . S
C117 C118 1.384 . S
C117 C121 1.387 . S
C117 H144 0.930 . S
C118 C116 1.380 . S
C118 C117 1.384 . S
C118 H145 0.931 . S
C119 C116 1.374 . S
C119 C120 1.390 . S
C119 H146 0.930 1_545 S
C120 C119 1.390 . S
C120 C121 1.391 . S
C120 H147 0.930 1_545 S
C121 C117 1.387 . S
C121 C120 1.391 . S
C122 Tb112 2.825 . S
C122 C116 1.507 . S
C122 O135 1.238 . S
C122 O136 1.247 . S
O123 Tb112 2.347 1_565 S
O123 C127 1.259 . S
O124 Eu113 2.418 . S
O124 C127 1.265 . S
O125 Eu113 2.384 . S
O125 C134 1.255 . S
O126 Tb112 2.366 . S
O126 C134 1.265 1_545 S
C127 O123 1.259 . S
C127 O124 1.265 . S
O128 Eu113 2.479 . S
O128 C143 1.238 . S
O129 Eu113 2.471 . S
O129 C143 1.247 . S
O130 Eu113 2.347 1_545 S
O130 C114 1.259 . S
O131 Tb112 2.418 . S
O131 C114 1.265 . S
O132 Tb112 2.384 . S
O132 C115 1.255 . S
O133 Eu113 2.366 . S
O133 C115 1.265 1_565 S
C134 O125 1.255 . S
C134 O126 1.265 1_565 S
O135 Tb112 2.479 . S
O135 C122 1.238 . S
O136 Tb112 2.471 . S
O136 C122 1.247 . S
C137 C140 1.380 . S
C137 C141 1.374 . S
C137 C143 1.507 . S
C138 C139 1.387 . S
C138 C142 1.391 . S
C139 C138 1.387 . S
C139 C140 1.384 . S
C139 H148 0.930 . S
C140 C137 1.380 . S
C140 C139 1.384 . S
C140 H149 0.931 . S
C141 C137 1.374 . S
C141 C142 1.390 . S
C141 H150 0.930 1_565 S
C142 C138 1.391 . S
C142 C141 1.390 . S
C142 H151 0.930 1_565 S
C143 Eu113 2.825 . S
C143 O128 1.238 . S
C143 O129 1.247 . S
C143 C137 1.507 . S
H144 C117 0.930 . S
H145 C118 0.931 . S
H146 C119 0.930 1_565 S
H147 C120 0.930 1_565 S
H148 C139 0.930 . S
H149 C140 0.931 . S
H150 C141 0.930 1_545 S
H151 C142 0.930 1_545 S
Tb152 C162 2.825 . S
Tb152 O163 2.347 . S
Tb152 O166 2.366 . S
Tb152 O171 2.418 . S
Tb152 O172 2.384 . S
Tb152 O175 2.479 . S
Tb152 O176 2.471 . S
Eu153 O164 2.418 . S
Eu153 O165 2.384 . S
Eu153 O168 2.479 . S
Eu153 O169 2.471 . S
Eu153 O170 2.347 . S
Eu153 O173 2.366 . S
Eu153 C183 2.825 . S
C154 O170 1.259 . S
C154 O171 1.265 . S
C155 O172 1.255 . S
C155 O173 1.265 . S
C156 C158 1.380 . S
C156 C159 1.374 . S
C156 C162 1.507 . S
C157 C158 1.384 . S
C157 C161 1.387 . S
C157 H184 0.930 . S
C158 C156 1.380 . S
C158 C157 1.384 . S
C158 H185 0.931 . S
C159 C156 1.374 . S
C159 C160 1.390 . S
C159 H186 0.930 . S
C160 C159 1.390 . S
C160 C161 1.391 . S
C160 H187 0.930 . S
C161 C157 1.387 . S
C161 C160 1.391 . S
C162 Tb152 2.825 . S
C162 C156 1.507 . S
C162 O175 1.238 . S
C162 O176 1.247 . S
O163 Tb152 2.347 . S
O163 C167 1.259 . S
O164 Eu153 2.418 . S
O164 C167 1.265 . S
O165 Eu153 2.384 . S
O165 C174 1.255 . S
O166 Tb152 2.366 . S
O166 C174 1.265 . S
C167 O163 1.259 . S
C167 O164 1.265 . S
O168 Eu153 2.479 . S
O168 C183 1.238 . S
O169 Eu153 2.471 . S
O169 C183 1.247 . S
O170 Eu153 2.347 . S
O170 C154 1.259 . S
O171 Tb152 2.418 . S
O171 C154 1.265 . S
O172 Tb152 2.384 . S
O172 C155 1.255 . S
O173 Eu153 2.366 . S
O173 C155 1.265 . S
C174 O165 1.255 . S
C174 O166 1.265 . S
O175 Tb152 2.479 . S
O175 C162 1.238 . S
O176 Tb152 2.471 . S
O176 C162 1.247 . S
C177 C180 1.380 . S
C177 C181 1.374 . S
C177 C183 1.507 . S
C178 C179 1.387 . S
C178 C182 1.391 . S
C179 C178 1.387 . S
C179 C180 1.384 . S
C179 H188 0.930 . S
C180 C177 1.380 . S
C180 C179 1.384 . S
C180 H189 0.931 . S
C181 C177 1.374 . S
C181 C182 1.390 . S
C181 H190 0.930 . S
C182 C178 1.391 . S
C182 C181 1.390 . S
C182 H191 0.930 . S
C183 Eu153 2.825 . S
C183 O168 1.238 . S
C183 O169 1.247 . S
C183 C177 1.507 . S
H184 C157 0.930 . S
H185 C158 0.931 . S
H186 C159 0.930 . S
H187 C160 0.930 . S
H188 C179 0.930 . S
H189 C180 0.931 . S
H190 C181 0.930 . S
H191 C182 0.930 . S
Tb192 C202 2.825 . S
Tb192 O203 2.347 . S
Tb192 O206 2.366 . S
Tb192 O211 2.418 . S
Tb192 O212 2.384 1_655 S
Tb192 O215 2.479 . S
Tb192 O216 2.471 . S
Eu193 O204 2.418 . S
Eu193 O205 2.384 1_455 S
Eu193 O208 2.479 . S
Eu193 O209 2.471 . S
Eu193 O210 2.347 . S
Eu193 O213 2.366 . S
Eu193 C223 2.825 . S
C194 O210 1.259 1_655 S
C194 O211 1.265 . S
C195 O212 1.255 . S
C195 O213 1.265 . S
C196 C198 1.380 . S
C196 C199 1.374 . S
C196 C202 1.507 . S
C197 C198 1.384 . S
C197 C201 1.387 . S
C197 H224 0.930 . S
C198 C196 1.380 . S
C198 C197 1.384 . S
C198 H225 0.931 . S
C199 C196 1.374 . S
C199 C200 1.390 . S
C199 H226 0.930 . S
C200 C199 1.390 . S
C200 C201 1.391 . S
C200 H227 0.930 . S
C201 C197 1.387 . S
C201 C200 1.391 . S
C202 Tb192 2.825 . S
C202 C196 1.507 . S
C202 O215 1.238 . S
C202 O216 1.247 . S
O203 Tb192 2.347 . S
O203 C207 1.259 1_655 S
O204 Eu193 2.418 . S
O204 C207 1.265 . S
O205 Eu193 2.384 1_655 S
O205 C214 1.255 . S
O206 Tb192 2.366 . S
O206 C214 1.265 . S
C207 O203 1.259 1_455 S
C207 O204 1.265 . S
O208 Eu193 2.479 . S
O208 C223 1.238 . S
O209 Eu193 2.471 . S
O209 C223 1.247 . S
O210 Eu193 2.347 . S
O210 C194 1.259 1_455 S
O211 Tb192 2.418 . S
O211 C194 1.265 . S
O212 Tb192 2.384 1_455 S
O212 C195 1.255 . S
O213 Eu193 2.366 . S
O213 C195 1.265 . S
C214 O205 1.255 . S
C214 O206 1.265 . S
O215 Tb192 2.479 . S
O215 C202 1.238 . S
O216 Tb192 2.471 . S
O216 C202 1.247 . S
C217 C220 1.380 . S
C217 C221 1.374 . S
C217 C223 1.507 . S
C218 C219 1.387 . S
C218 C222 1.391 . S
C219 C218 1.387 . S
C219 C220 1.384 . S
C219 H228 0.930 . S
C220 C217 1.380 . S
C220 C219 1.384 . S
C220 H229 0.931 . S
C221 C217 1.374 . S
C221 C222 1.390 . S
C221 H230 0.930 . S
C222 C218 1.391 . S
C222 C221 1.390 . S
C222 H231 0.930 . S
C223 Eu193 2.825 . S
C223 O208 1.238 . S
C223 O209 1.247 . S
C223 C217 1.507 . S
H224 C197 0.930 . S
H225 C198 0.931 . S
H226 C199 0.930 . S
H227 C200 0.930 . S
H228 C219 0.930 . S
H229 C220 0.931 . S
H230 C221 0.930 . S
H231 C222 0.930 . S
H232 C240 0.929 . S
H233 C242 0.930 1_565 S
H234 C244 0.930 . S
H235 C247 0.931 . S
H236 C250 0.930 . S
H237 C252 0.960 . S
H238 C252 0.960 . S
H239 C252 0.960 . S
C240 H232 0.929 . S
C240 C241 1.377 . S
C240 C242 1.384 . S
C241 C240 1.377 . S
C241 C247 1.389 . S
C242 H233 0.930 1_545 S
C242 C240 1.384 . S
C242 C243 1.372 . S
C243 C242 1.372 . S
C243 C244 1.400 . S
C243 C248 1.490 1_545 S
C244 H234 0.930 . S
C244 C243 1.400 . S
C244 C247 1.387 . S
H245 C261 0.930 . S
H246 C262 0.931 . S
C247 H235 0.931 . S
C247 C241 1.389 . S
C247 C244 1.387 . S
C248 C243 1.490 1_565 S
C248 C250 1.400 . S
C248 C251 1.397 1_565 S
H249 C255 0.930 . S
C250 H236 0.930 . S
C250 C248 1.400 . S
C250 C253 1.403 . S
C251 C248 1.397 1_545 S
C251 C252 1.524 . S
C251 C255 1.400 . S
C252 H237 0.960 . S
C252 H238 0.960 . S
C252 H239 0.960 . S
C252 C251 1.524 . S
C253 C250 1.403 . S
C253 C254 1.392 . S
C253 C257 1.495 . S
C254 C253 1.392 . S
C254 C255 1.385 1_565 S
C254 C256 1.478 . S
C255 H249 0.930 . S
C255 C251 1.400 . S
C255 C254 1.385 1_545 S
C256 C254 1.478 . S
C256 C258 1.381 . S
C256 C262 1.383 . S
C257 C253 1.495 . S
C257 H263 0.959 . S
C257 H264 0.961 . S
C257 H265 0.960 . S
C258 C256 1.381 . S
C258 C259 1.394 1_565 S
C258 H266 0.932 . S
C259 C258 1.394 1_545 S
C259 C260 1.382 1_545 S
C259 H267 0.930 . S
C260 C259 1.382 1_565 S
C260 C261 1.383 . S
C261 H245 0.930 . S
C261 C260 1.383 . S
C261 C262 1.379 . S
C262 H246 0.931 . S
C262 C256 1.383 . S
C262 C261 1.379 . S
H263 C257 0.959 . S
H264 C257 0.961 . S
H265 C257 0.960 . S
H266 C258 0.932 . S
H267 C259 0.930 . S
H268 C276 0.929 . S
H269 C278 0.930 . S
H270 C280 0.930 . S
H271 C283 0.929 . S
H272 C286 0.930 . S
H273 C288 0.960 . S
H274 C288 0.960 . S
H275 C288 0.960 . S
C276 H268 0.929 . S
C276 C277 1.377 . S
C276 C278 1.384 . S
C277 C276 1.377 . S
C277 C283 1.390 . S
C278 H269 0.930 . S
C278 C276 1.384 . S
C278 C279 1.372 . S
C279 C278 1.372 . S
C279 C280 1.400 . S
C279 C284 1.490 . S
C280 H270 0.930 . S
C280 C279 1.400 . S
C280 C283 1.386 . S
H281 C297 0.930 . S
H282 C298 0.931 . S
C283 H271 0.929 . S
C283 C277 1.390 . S
C283 C280 1.386 . S
C284 C279 1.490 . S
C284 C286 1.395 . S
C284 C287 1.403 . S
H285 C291 0.930 . S
C286 H272 0.930 . S
C286 C284 1.395 . S
C286 C289 1.403 . S
C287 C284 1.403 . S
C287 C288 1.524 . S
C287 C291 1.400 . S
C288 H273 0.960 . S
C288 H274 0.960 . S
C288 H275 0.960 . S
C288 C287 1.524 . S
C289 C286 1.403 . S
C289 C290 1.392 . S
C289 C293 1.495 . S
C290 C289 1.392 . S
C290 C291 1.385 . S
C290 C292 1.478 . S
C291 H285 0.930 . S
C291 C287 1.400 . S
C291 C290 1.385 . S
C292 C290 1.478 . S
C292 C294 1.381 . S
C292 C298 1.383 . S
C293 C289 1.495 . S
C293 H299 0.959 . S
C293 H300 0.961 . S
C293 H301 0.960 . S
C294 C292 1.381 . S
C294 C295 1.394 . S
C294 H302 0.930 . S
C295 C294 1.394 . S
C295 C296 1.383 . S
C295 H303 0.929 . S
C296 C295 1.383 . S
C296 C297 1.377 . S
C297 H281 0.930 . S
C297 C296 1.377 . S
C297 C298 1.379 . S
C298 H282 0.931 . S
C298 C292 1.383 . S
C298 C297 1.379 . S
H299 C293 0.959 . S
H300 C293 0.961 . S
H301 C293 0.960 . S
H302 C294 0.930 . S
H303 C295 0.929 . S
H304 C312 0.929 . S
H305 C314 0.930 . S
H306 C316 0.930 . S
H307 C319 0.929 . S
H308 C322 0.930 . S
H309 C324 0.960 . S
H310 C324 0.960 . S
H311 C324 0.960 . S
C312 H304 0.929 . S
C312 C313 1.377 . S
C312 C314 1.384 . S
C313 C312 1.377 . S
C313 C319 1.390 . S
C314 H305 0.930 . S
C314 C312 1.384 . S
C314 C315 1.372 . S
C315 C314 1.372 . S
C315 C316 1.400 . S
C315 C320 1.490 . S
C316 H306 0.930 . S
C316 C315 1.400 . S
C316 C319 1.386 . S
H317 C333 0.930 . S
H318 C334 0.931 . S
C319 H307 0.929 . S
C319 C313 1.390 . S
C319 C316 1.386 . S
C320 C315 1.490 . S
C320 C322 1.395 . S
C320 C323 1.403 . S
H321 C327 0.930 . S
C322 H308 0.930 . S
C322 C320 1.395 . S
C322 C325 1.403 . S
C323 C320 1.403 . S
C323 C324 1.524 . S
C323 C327 1.400 . S
C324 H309 0.960 . S
C324 H310 0.960 . S
C324 H311 0.960 . S
C324 C323 1.524 . S
C325 C322 1.403 . S
C325 C326 1.392 . S
C325 C329 1.495 . S
C326 C325 1.392 . S
C326 C327 1.385 . S
C326 C328 1.478 . S
C327 H321 0.930 . S
C327 C323 1.400 . S
C327 C326 1.385 . S
C328 C326 1.478 . S
C328 C330 1.381 . S
C328 C334 1.383 . S
C329 C325 1.495 . S
C329 H335 0.959 . S
C329 H336 0.961 . S
C329 H337 0.960 . S
C330 C328 1.381 . S
C330 C331 1.394 . S
C330 H338 0.930 . S
C331 C330 1.394 . S
C331 C332 1.383 . S
C331 H339 0.929 . S
C332 C331 1.383 . S
C332 C333 1.377 . S
C333 H317 0.930 . S
C333 C332 1.377 . S
C333 C334 1.379 . S
C334 H318 0.931 . S
C334 C328 1.383 . S
C334 C333 1.379 . S
H335 C329 0.959 . S
H336 C329 0.961 . S
H337 C329 0.960 . S
H338 C330 0.930 . S
H339 C331 0.929 . S
H340 C348 0.929 . S
H341 C350 0.930 . S
H342 C352 0.930 . S
H343 C355 0.929 . S
H344 C358 0.930 . S
H345 C360 0.960 . S
H346 C360 0.960 . S
H347 C360 0.960 . S
C348 H340 0.929 . S
C348 C349 1.380 . S
C348 C350 1.384 . S
C349 C348 1.380 . S
C349 C355 1.387 1_655 S
C350 H341 0.930 . S
C350 C348 1.384 . S
C350 C351 1.391 . S
C351 C350 1.391 . S
C351 C352 1.381 1_655 S
C351 C356 1.490 . S
C352 H342 0.930 . S
C352 C351 1.381 1_455 S
C352 C355 1.386 . S
H353 C369 0.930 . S
H354 C370 0.931 . S
C355 H343 0.929 . S
C355 C349 1.387 1_455 S
C355 C352 1.386 . S
C356 C351 1.490 . S
C356 C358 1.392 1_655 S
C356 C359 1.405 . S
H357 C363 0.930 . S
C358 H344 0.930 . S
C358 C356 1.392 1_455 S
C358 C361 1.403 . S
C359 C356 1.405 . S
C359 C360 1.524 . S
C359 C363 1.400 . S
C360 H345 0.960 . S
C360 H346 0.960 . S
C360 H347 0.960 . S
C360 C359 1.524 . S
C361 C358 1.403 . S
C361 C362 1.392 . S
C361 C365 1.495 . S
C362 C361 1.392 . S
C362 C363 1.385 1_455 S
C362 C364 1.478 . S
C363 H357 0.930 . S
C363 C359 1.400 . S
C363 C362 1.385 1_655 S
C364 C362 1.478 . S
C364 C366 1.381 1_455 S
C364 C370 1.383 . S
C365 C361 1.495 . S
C365 H371 0.959 . S
C365 H372 0.961 . S
C365 H373 0.982 . S
C366 C364 1.381 1_655 S
C366 C367 1.394 . S
C366 H374 0.930 . S
C367 C366 1.394 . S
C367 C368 1.383 1_655 S
C367 H375 0.929 . S
C368 C367 1.383 1_455 S
C368 C369 1.377 . S
C369 H353 0.930 . S
C369 C368 1.377 . S
C369 C370 1.379 . S
C370 H354 0.931 . S
C370 C364 1.383 . S
C370 C369 1.379 . S
H371 C365 0.959 . S
H372 C365 0.961 . S
H373 C365 0.982 . S
H374 C366 0.930 . S
H375 C367 0.929 . S
H376 C384 0.929 . S
H377 C386 0.930 . S
H378 C388 0.930 . S
H379 C391 0.929 . S
H380 C394 0.930 . S
H381 C396 0.960 . S
H382 C396 0.960 . S
H383 C396 0.960 . S
C384 H376 0.929 . S
C384 C385 1.383 . S
C384 C386 1.384 . S
C385 C384 1.383 . S
C385 C391 1.385 1_565 S
C386 H377 0.930 . S
C386 C384 1.384 . S
C386 C387 1.395 . S
C387 C386 1.395 . S
C387 C388 1.378 1_565 S
C387 C392 1.490 . S
C388 H378 0.930 . S
C388 C387 1.378 1_545 S
C388 C391 1.386 . S
H389 C405 0.930 . S
H390 C406 0.931 . S
C391 H379 0.929 . S
C391 C385 1.385 1_545 S
C391 C388 1.386 . S
C392 C387 1.490 . S
C392 C394 1.383 1_565 S
C392 C395 1.414 . S
H393 C399 0.930 . S
C394 H380 0.930 . S
C394 C392 1.383 1_545 S
C394 C397 1.403 1_554 S
C395 C392 1.414 . S
C395 C396 1.524 . S
C395 C399 1.400 . S
C396 H381 0.960 . S
C396 H382 0.960 . S
C396 H383 0.960 . S
C396 C395 1.524 . S
C397 C394 1.403 1_556 S
C397 C398 1.392 . S
C397 C401 1.495 . S
C398 C397 1.392 . S
C398 C399 1.385 1_546 S
C398 C400 1.478 . S
C399 H393 0.930 . S
C399 C395 1.400 . S
C399 C398 1.385 1_564 S
C400 C398 1.478 . S
C400 C402 1.381 1_545 S
C400 C406 1.383 . S
C401 C397 1.495 . S
C401 H407 0.959 . S
C401 H408 0.961 . S
C401 H409 0.960 . S
C402 C400 1.381 1_565 S
C402 C403 1.394 . S
C402 H410 0.930 . S
C403 C402 1.394 . S
C403 C404 1.369 1_565 S
C403 H411 0.929 . S
C404 C403 1.369 1_545 S
C404 C405 1.392 . S
C405 H389 0.930 . S
C405 C404 1.392 . S
C405 C406 1.379 . S
C406 H390 0.931 . S
C406 C400 1.383 . S
C406 C405 1.379 . S
H407 C401 0.959 . S
H408 C401 0.961 . S
H409 C401 0.960 . S
H410 C402 0.930 . S
H411 C403 0.929 . S
H412 C420 0.929 . S
H413 C422 0.930 . S
H414 C424 0.930 . S
H415 C427 0.929 . S
H416 C430 0.930 . S
H417 C432 0.960 . S
H418 C432 0.960 . S
H419 C432 0.960 . S
C420 H412 0.929 . S
C420 C421 1.377 . S
C420 C422 1.384 . S
C421 C420 1.377 . S
C421 C427 1.390 . S
C422 H413 0.930 . S
C422 C420 1.384 . S
C422 C423 1.372 . S
C423 C422 1.372 . S
C423 C424 1.400 . S
C423 C428 1.490 . S
C424 H414 0.930 . S
C424 C423 1.400 . S
C424 C427 1.386 . S
H425 C441 0.930 . S
H426 C442 0.931 . S
C427 H415 0.929 . S
C427 C421 1.390 . S
C427 C424 1.386 . S
C428 C423 1.490 . S
C428 C430 1.395 . S
C428 C431 1.403 . S
H429 C435 0.930 . S
C430 H416 0.930 . S
C430 C428 1.395 . S
C430 C433 1.403 1_554 S
C431 C428 1.403 . S
C431 C432 1.524 . S
C431 C435 1.400 . S
C432 H417 0.960 . S
C432 H418 0.960 . S
C432 H419 0.960 . S
C432 C431 1.524 . S
C433 C430 1.403 1_556 S
C433 C434 1.392 . S
C433 C437 1.495 . S
C434 C433 1.392 . S
C434 C435 1.385 1_556 S
C434 C436 1.478 . S
C435 H429 0.930 . S
C435 C431 1.400 . S
C435 C434 1.385 1_554 S
C436 C434 1.478 . S
C436 C438 1.381 . S
C436 C442 1.383 . S
C437 C433 1.495 . S
C437 H443 0.959 . S
C437 H444 0.961 . S
C437 H445 0.960 . S
C438 C436 1.381 . S
C438 C439 1.394 . S
C438 H446 0.930 . S
C439 C438 1.394 . S
C439 C440 1.383 . S
C439 H447 0.929 . S
C440 C439 1.383 . S
C440 C441 1.377 . S
C441 H425 0.930 . S
C441 C440 1.377 . S
C441 C442 1.379 . S
C442 H426 0.931 . S
C442 C436 1.383 . S
C442 C441 1.379 . S
H443 C437 0.959 . S
H444 C437 0.961 . S
H445 C437 0.960 . S
H446 C438 0.930 . S
H447 C439 0.929 . S
H448 C456 0.929 . S
H449 C458 0.930 . S
H450 C460 0.930 . S
H451 C463 0.929 . S
H452 C466 0.930 . S
H453 C468 0.960 1_556 S
H454 C468 0.960 . S
H455 C468 0.960 . S
C456 H448 0.929 . S
C456 C457 1.377 . S
C456 C458 1.384 . S
C457 C456 1.377 . S
C457 C463 1.390 . S
C458 H449 0.930 . S
C458 C456 1.384 . S
C458 C459 1.372 . S
C459 C458 1.372 . S
C459 C460 1.400 . S
C459 C464 1.490 . S
C460 H450 0.930 . S
C460 C459 1.400 . S
C460 C463 1.386 . S
H461 C477 0.930 . S
H462 C478 0.931 . S
C463 H451 0.929 . S
C463 C457 1.390 . S
C463 C460 1.386 . S
C464 C459 1.490 . S
C464 C466 1.395 . S
C464 C467 1.403 . S
H465 C471 0.930 . S
C466 H452 0.930 . S
C466 C464 1.395 . S
C466 C469 1.403 . S
C467 C464 1.403 . S
C467 C468 1.524 . S
C467 C471 1.400 1_554 S
C468 H453 0.960 1_554 S
C468 H454 0.960 . S
C468 H455 0.960 . S
C468 C467 1.524 . S
C469 C466 1.403 . S
C469 C470 1.392 . S
C469 C473 1.495 . S
C470 C469 1.392 . S
C470 C471 1.385 1_554 S
C470 C472 1.478 1_554 S
C471 H465 0.930 . S
C471 C467 1.400 1_556 S
C471 C470 1.385 1_556 S
C472 C470 1.478 1_556 S
C472 C474 1.381 . S
C472 C478 1.383 . S
C473 C469 1.495 . S
C473 H479 0.959 . S
C473 H480 0.961 . S
C473 H481 0.960 . S
C474 C472 1.381 . S
C474 C475 1.394 . S
C474 H482 0.930 . S
C475 C474 1.394 . S
C475 C476 1.383 . S
C475 H483 0.929 . S
C476 C475 1.383 . S
C476 C477 1.377 . S
C477 H461 0.930 . S
C477 C476 1.377 . S
C477 C478 1.379 . S
C478 H462 0.931 . S
C478 C472 1.383 . S
C478 C477 1.379 . S
H479 C473 0.959 . S
H480 C473 0.961 . S
H481 C473 0.960 . S
H482 C474 0.930 . S
H483 C475 0.929 . S
H484 C492 0.929 . S
H485 C494 0.930 . S
H486 C496 0.930 . S
H487 C499 0.929 . S
H488 C502 0.930 . S
H489 C504 0.960 . S
H490 C504 0.960 . S
H491 C504 0.960 . S
C492 H484 0.929 . S
C492 C493 1.384 . S
C492 C494 1.384 . S
C493 C492 1.384 . S
C493 C499 1.384 1_655 S
C494 H485 0.930 . S
C494 C492 1.384 . S
C494 C495 1.385 . S
C495 C494 1.385 . S
C495 C496 1.388 1_655 S
C495 C500 1.490 . S
C496 H486 0.930 . S
C496 C495 1.388 1_455 S
C496 C499 1.386 . S
H497 C513 0.930 . S
H498 C514 0.931 . S
C499 H487 0.929 . S
C499 C493 1.384 1_455 S
C499 C496 1.386 . S
C500 C495 1.490 . S
C500 C502 1.379 1_655 S
C500 C503 1.418 . S
H501 C507 0.930 . S
C502 H488 0.930 . S
C502 C500 1.379 1_455 S
C502 C505 1.403 1_554 S
C503 C500 1.418 . S
C503 C504 1.524 . S
C503 C507 1.400 . S
C504 H489 0.960 . S
C504 H490 0.960 . S
C504 H491 0.960 . S
C504 C503 1.524 . S
C505 C502 1.403 1_556 S
C505 C506 1.392 . S
C505 C509 1.495 . S
C506 C505 1.392 . S
C506 C507 1.385 1_456 S
C506 C508 1.478 . S
C507 H501 0.930 . S
C507 C503 1.400 . S
C507 C506 1.385 1_654 S
C508 C506 1.478 . S
C508 C510 1.381 1_455 S
C508 C514 1.383 . S
C509 C505 1.495 . S
C509 H515 0.959 . S
C509 H516 0.961 . S
C509 H517 0.960 . S
C510 C508 1.381 1_655 S
C510 C511 1.394 . S
C510 H518 0.930 . S
C511 C510 1.394 . S
C511 C512 1.382 1_655 S
C511 H519 0.929 . S
C512 C511 1.382 1_455 S
C512 C513 1.379 . S
C513 H497 0.930 . S
C513 C512 1.379 . S
C513 C514 1.379 . S
C514 H498 0.931 . S
C514 C508 1.383 . S
C514 C513 1.379 . S
H515 C509 0.959 . S
H516 C509 0.961 . S
H517 C509 0.960 . S
H518 C510 0.930 . S
H519 C511 0.929 . S
H520 C528 0.929 . S
H521 C530 0.930 . S
H522 C532 0.930 . S
H523 C535 0.929 . S
H524 C538 0.930 . S
H525 C540 0.960 . S
H526 C540 0.960 . S
H527 C540 0.960 . S
C528 H520 0.929 . S
C528 C529 1.377 . S
C528 C530 1.384 . S
C529 C528 1.377 . S
C529 C535 1.390 1_455 S
C530 H521 0.930 . S
C530 C528 1.384 . S
C530 C531 1.372 1_455 S
C531 C530 1.372 1_655 S
C531 C532 1.400 . S
C531 C536 1.490 . S
C532 H522 0.930 . S
C532 C531 1.400 . S
C532 C535 1.386 . S
H533 C549 0.930 . S
H534 C550 0.931 . S
C535 H523 0.929 . S
C535 C529 1.390 1_655 S
C535 C532 1.386 . S
C536 C531 1.490 . S
C536 C538 1.395 . S
C536 C539 1.392 1_655 S
H537 C543 0.930 1_455 S
C538 H524 0.930 . S
C538 C536 1.395 . S
C538 C541 1.403 . S
C539 C536 1.392 1_455 S
C539 C540 1.540 . S
C539 C543 1.394 1_455 S
C540 H525 0.960 . S
C540 H526 0.960 . S
C540 H527 0.960 . S
C540 C539 1.540 . S
C541 C538 1.403 . S
C541 C542 1.392 . S
C541 C545 1.495 . S
C542 C541 1.392 . S
C542 C543 1.385 . S
C542 C544 1.478 . S
C543 H537 0.930 1_655 S
C543 C539 1.394 1_655 S
C543 C542 1.385 . S
C544 C542 1.478 . S
C544 C546 1.381 . S
C544 C550 1.383 . S
C545 C541 1.495 . S
C545 H551 0.959 . S
C545 H552 0.961 . S
C545 H553 0.960 . S
C546 C544 1.381 . S
C546 C547 1.394 . S
C546 H554 0.930 . S
C547 C546 1.394 . S
C547 C548 1.383 . S
C547 H555 0.929 . S
C548 C547 1.383 . S
C548 C549 1.377 . S
C549 H533 0.930 . S
C549 C548 1.377 . S
C549 C550 1.379 . S
C550 H534 0.931 . S
C550 C544 1.383 . S
C550 C549 1.379 . S
H551 C545 0.959 . S
H552 C545 0.961 . S
H553 C545 0.960 . S
H554 C546 0.930 . S
H555 C547 0.929 . S
H556 C564 0.929 . S
H557 C566 0.930 . S
H558 C568 0.930 . S
H559 C571 0.929 . S
H560 C574 0.930 . S
H561 C576 0.960 . S
H562 C576 0.960 . S
H563 C576 0.960 . S
C564 H556 0.929 . S
C564 C565 1.377 1_565 S
C564 C566 1.384 . S
C565 C564 1.377 1_545 S
C565 C571 1.390 . S
C566 H557 0.930 . S
C566 C564 1.384 . S
C566 C567 1.372 . S
C567 C566 1.372 . S
C567 C568 1.400 1_565 S
C567 C572 1.490 . S
C568 H558 0.930 . S
C568 C567 1.400 1_545 S
C568 C571 1.386 . S
H569 C585 0.954 . S
H570 C586 0.931 1_545 S
C571 H559 0.929 . S
C571 C565 1.390 . S
C571 C568 1.386 . S
C572 C567 1.490 . S
C572 C574 1.395 . S
C572 C575 1.406 . S
H573 C579 0.930 1_545 S
C574 H560 0.930 . S
C574 C572 1.395 . S
C574 C577 1.403 . S
C575 C572 1.406 . S
C575 C576 1.519 1_565 S
C575 C579 1.401 . S
C576 H561 0.960 . S
C576 H562 0.960 . S
C576 H563 0.960 . S
C576 C575 1.519 1_545 S
C577 C574 1.403 . S
C577 C578 1.392 . S
C577 C581 1.495 . S
C578 C577 1.392 . S
C578 C579 1.385 . S
C578 C580 1.478 . S
C579 H573 0.930 1_565 S
C579 C575 1.401 . S
C579 C578 1.385 . S
C580 C578 1.478 . S
C580 C582 1.381 . S
C580 C586 1.383 . S
C581 C577 1.495 . S
C581 H587 0.959 . S
C581 H588 0.961 . S
C581 H589 0.960 . S
C582 C580 1.381 . S
C582 C583 1.394 . S
C582 H590 0.930 . S
C583 C582 1.394 . S
C583 C584 1.383 . S
C583 H591 0.929 . S
C584 C583 1.383 . S
C584 C585 1.377 . S
C585 H569 0.954 . S
C585 C584 1.377 . S
C585 C586 1.379 . S
C586 H570 0.931 1_565 S
C586 C580 1.383 . S
C586 C585 1.379 . S
H587 C581 0.959 . S
H588 C581 0.961 . S
H589 C581 0.960 . S
H590 C582 0.930 . S
H591 C583 0.929 . S
H592 C600 0.929 . S
H593 C602 0.930 . S
H594 C604 0.930 . S
H595 C607 0.929 . S
H596 C610 0.930 . S
H597 C612 0.960 . S
H598 C612 0.960 . S
H599 C612 0.960 . S
C600 H592 0.929 . S
C600 C601 1.377 . S
C600 C602 1.384 . S
C601 C600 1.377 . S
C601 C607 1.390 . S
C602 H593 0.930 . S
C602 C600 1.384 . S
C602 C603 1.372 . S
C603 C602 1.372 . S
C603 C604 1.400 . S
C603 C608 1.490 . S
C604 H594 0.930 . S
C604 C603 1.400 . S
C604 C607 1.386 . S
H605 C621 0.930 . S
H606 C622 0.931 . S
C607 H595 0.929 . S
C607 C601 1.390 . S
C607 C604 1.386 . S
C608 C603 1.490 . S
C608 C610 1.395 . S
C608 C611 1.403 . S
H609 C615 0.930 . S
C610 H596 0.930 . S
C610 C608 1.395 . S
C610 C613 1.403 . S
C611 C608 1.403 . S
C611 C612 1.524 . S
C611 C615 1.400 . S
C612 H597 0.960 . S
C612 H598 0.960 . S
C612 H599 0.960 . S
C612 C611 1.524 . S
C613 C610 1.403 . S
C613 C614 1.392 . S
C613 C617 1.495 . S
C614 C613 1.392 . S
C614 C615 1.385 . S
C614 C616 1.478 . S
C615 H609 0.930 . S
C615 C611 1.400 . S
C615 C614 1.385 . S
C616 C614 1.478 . S
C616 C618 1.381 . S
C616 C622 1.383 . S
C617 C613 1.495 . S
C617 H623 0.959 . S
C617 H624 0.961 . S
C617 H625 0.960 . S
C618 C616 1.381 . S
C618 C619 1.394 . S
C618 H626 0.930 . S
C619 C618 1.394 . S
C619 C620 1.383 . S
C619 H627 0.929 . S
C620 C619 1.383 . S
C620 C621 1.377 . S
C621 H605 0.930 . S
C621 C620 1.377 . S
C621 C622 1.379 . S
C622 H606 0.931 . S
C622 C616 1.383 . S
C622 C621 1.379 . S
H623 C617 0.959 . S
H624 C617 0.961 . S
H625 C617 0.960 . S
H626 C618 0.930 . S
H627 C619 0.929 . S
H628 C636 0.929 . S
H629 C638 0.930 . S
H630 C640 0.930 . S
H631 C643 0.929 . S
H632 C646 0.930 . S
H633 C648 0.960 . S
H634 C648 0.960 . S
H635 C648 0.960 . S
C636 H628 0.929 . S
C636 C637 1.377 . S
C636 C638 1.384 . S
C637 C636 1.377 . S
C637 C643 1.390 . S
C638 H629 0.930 . S
C638 C636 1.384 . S
C638 C639 1.372 . S
C639 C638 1.372 . S
C639 C640 1.400 . S
C639 C644 1.490 . S
C640 H630 0.930 . S
C640 C639 1.400 . S
C640 C643 1.386 . S
H641 C657 0.930 . S
H642 C658 0.931 . S
C643 H631 0.929 . S
C643 C637 1.390 . S
C643 C640 1.386 . S
C644 C639 1.490 . S
C644 C646 1.395 . S
C644 C647 1.403 . S
H645 C651 0.930 . S
C646 H632 0.930 . S
C646 C644 1.395 . S
C646 C649 1.403 . S
C647 C644 1.403 . S
C647 C648 1.524 . S
C647 C651 1.400 . S
C648 H633 0.960 . S
C648 H634 0.960 . S
C648 H635 0.960 . S
C648 C647 1.524 . S
C649 C646 1.403 . S
C649 C650 1.392 . S
C649 C653 1.495 . S
C650 C649 1.392 . S
C650 C651 1.385 . S
C650 C652 1.478 . S
C651 H645 0.930 . S
C651 C647 1.400 . S
C651 C650 1.385 . S
C652 C650 1.478 . S
C652 C654 1.381 . S
C652 C658 1.383 . S
C653 C649 1.495 . S
C653 H659 0.959 . S
C653 H660 0.961 . S
C653 H661 0.960 . S
C654 C652 1.381 . S
C654 C655 1.394 . S
C654 H662 0.930 . S
C655 C654 1.394 . S
C655 C656 1.383 . S
C655 H663 0.929 . S
C656 C655 1.383 . S
C656 C657 1.377 . S
C657 H641 0.930 . S
C657 C656 1.377 . S
C657 C658 1.379 . S
C658 H642 0.931 . S
C658 C652 1.383 . S
C658 C657 1.379 . S
H659 C653 0.959 . S
H660 C653 0.961 . S
H661 C653 0.960 . S
H662 C654 0.930 . S
H663 C655 0.929 . S
H664 C672 0.929 . S
H665 C674 0.930 . S
H666 C676 0.930 . S
H667 C679 0.929 . S
H668 C682 0.930 1_655 S
H669 C684 0.960 . S
H670 C684 0.960 . S
H671 C684 0.960 . S
C672 H664 0.929 . S
C672 C673 1.377 . S
C672 C674 1.384 . S
C673 C672 1.377 . S
C673 C679 1.390 1_655 S
C674 H665 0.930 . S
C674 C672 1.384 . S
C674 C675 1.372 1_655 S
C675 C674 1.372 1_455 S
C675 C676 1.400 . S
C675 C680 1.490 . S
C676 H666 0.930 . S
C676 C675 1.400 . S
C676 C679 1.386 . S
H677 C693 0.930 . S
H678 C694 0.931 . S
C679 H667 0.929 . S
C679 C673 1.390 1_455 S
C679 C676 1.386 . S
C680 C675 1.490 . S
C680 C682 1.395 . S
C680 C683 1.403 . S
H681 C687 0.930 . S
C682 H668 0.930 1_455 S
C682 C680 1.395 . S
C682 C685 1.403 . S
C683 C680 1.403 . S
C683 C684 1.524 . S
C683 C687 1.400 . S
C684 H669 0.960 . S
C684 H670 0.960 . S
C684 H671 0.960 . S
C684 C683 1.524 . S
C685 C682 1.403 . S
C685 C686 1.392 . S
C685 C689 1.495 1_455 S
C686 C685 1.392 . S
C686 C687 1.385 . S
C686 C688 1.478 . S
C687 H681 0.930 . S
C687 C683 1.400 . S
C687 C686 1.385 . S
C688 C686 1.478 . S
C688 C690 1.381 1_554 S
C688 C694 1.383 . S
C689 C685 1.495 1_655 S
C689 H695 0.959 . S
C689 H696 0.961 1_655 S
C689 H697 0.960 . S
C690 C688 1.381 1_556 S
C690 C691 1.394 . S
C690 H698 0.930 1_456 S
C691 C690 1.394 . S
C691 C692 1.383 . S
C691 H699 0.929 1_455 S
C692 C691 1.383 . S
C692 C693 1.377 . S
C693 H677 0.930 . S
C693 C692 1.377 . S
C693 C694 1.379 1_556 S
C694 H678 0.931 . S
C694 C688 1.383 . S
C694 C693 1.379 1_554 S
H695 C689 0.959 . S
H696 C689 0.961 1_455 S
H697 C689 0.960 . S
H698 C690 0.930 1_654 S
H699 C691 0.929 1_655 S
H700 C708 0.929 . S
H701 C710 0.930 . S
H702 C712 0.930 . S
H703 C715 0.929 . S
H704 C718 0.930 . S
H705 C720 0.960 1_556 S
H706 C720 0.960 1_565 S
H707 C720 0.960 . S
C708 H700 0.929 . S
C708 C709 1.377 . S
C708 C710 1.384 . S
C709 C708 1.377 . S
C709 C715 1.390 1_565 S
C710 H701 0.930 . S
C710 C708 1.384 . S
C710 C711 1.372 1_565 S
C711 C710 1.372 1_545 S
C711 C712 1.400 . S
C711 C716 1.490 . S
C712 H702 0.930 . S
C712 C711 1.400 . S
C712 C715 1.386 . S
H713 C729 0.930 . S
H714 C730 0.931 . S
C715 H703 0.929 . S
C715 C709 1.390 1_545 S
C715 C712 1.386 . S
C716 C711 1.490 . S
C716 C718 1.395 . S
C716 C719 1.403 . S
H717 C723 0.930 . S
C718 H704 0.930 . S
C718 C716 1.395 . S
C718 C721 1.403 . S
C719 C716 1.403 . S
C719 C720 1.524 . S
C719 C723 1.400 . S
C720 H705 0.960 1_554 S
C720 H706 0.960 1_545 S
C720 H707 0.960 . S
C720 C719 1.524 . S
C721 C718 1.403 . S
C721 C722 1.392 . S
C721 C725 1.495 . S
C722 C721 1.392 . S
C722 C723 1.385 . S
C722 C724 1.478 . S
C723 H717 0.930 . S
C723 C719 1.400 . S
C723 C722 1.385 . S
C724 C722 1.478 . S
C724 C726 1.381 . S
C724 C730 1.383 . S
C725 C721 1.495 . S
C725 H731 0.959 . S
C725 H732 0.961 . S
C725 H733 0.960 . S
C726 C724 1.381 . S
C726 C727 1.394 1_554 S
C726 H734 0.930 1_545 S
C727 C726 1.394 1_556 S
C727 C728 1.383 . S
C727 H735 0.929 1_545 S
C728 C727 1.383 . S
C728 C729 1.377 . S
C729 H713 0.930 . S
C729 C728 1.377 . S
C729 C730 1.379 1_556 S
C730 H714 0.931 . S
C730 C724 1.383 . S
C730 C729 1.379 1_554 S
H731 C725 0.959 . S
H732 C725 0.961 . S
H733 C725 0.960 . S
H734 C726 0.930 1_565 S
H735 C727 0.929 1_565 S
H736 C744 0.929 . S
H737 C746 0.930 . S
H738 C748 0.930 . S
H739 C751 0.929 . S
H740 C754 0.930 . S
H741 C756 0.960 . S
H742 C756 0.960 . S
H743 C756 0.960 . S
C744 H736 0.929 . S
C744 C745 1.377 . S
C744 C746 1.384 . S
C745 C744 1.377 . S
C745 C751 1.390 . S
C746 H737 0.930 . S
C746 C744 1.384 . S
C746 C747 1.372 . S
C747 C746 1.372 . S
C747 C748 1.400 . S
C747 C752 1.490 . S
C748 H738 0.930 . S
C748 C747 1.400 . S
C748 C751 1.386 . S
H749 C765 0.930 . S
H750 C766 0.931 . S
C751 H739 0.929 . S
C751 C745 1.390 . S
C751 C748 1.386 . S
C752 C747 1.490 . S
C752 C754 1.395 . S
C752 C755 1.403 . S
H753 C759 0.930 . S
C754 H740 0.930 . S
C754 C752 1.395 . S
C754 C757 1.403 . S
C755 C752 1.403 . S
C755 C756 1.524 . S
C755 C759 1.400 . S
C756 H741 0.960 . S
C756 H742 0.960 . S
C756 H743 0.960 . S
C756 C755 1.524 . S
C757 C754 1.403 . S
C757 C758 1.392 . S
C757 C761 1.495 1_554 S
C758 C757 1.392 . S
C758 C759 1.385 . S
C758 C760 1.478 . S
C759 H753 0.930 . S
C759 C755 1.400 . S
C759 C758 1.385 . S
C760 C758 1.478 . S
C760 C762 1.381 1_554 S
C760 C766 1.383 . S
C761 C757 1.495 1_556 S
C761 H767 0.960 . S
C761 H768 0.961 1_556 S
C761 H769 0.960 . S
C762 C760 1.381 1_556 S
C762 C763 1.394 . S
C762 H770 0.930 . S
C763 C762 1.394 . S
C763 C764 1.383 . S
C763 H771 0.929 . S
C764 C763 1.383 . S
C764 C765 1.377 1_556 S
C765 H749 0.930 . S
C765 C764 1.377 1_554 S
C765 C766 1.379 . S
C766 H750 0.931 . S
C766 C760 1.383 . S
C766 C765 1.379 . S
H767 C761 0.960 . S
H768 C761 0.961 1_554 S
H769 C761 0.960 . S
H770 C762 0.930 . S
H771 C763 0.929 . S
H772 C780 0.929 . S
H773 C782 0.930 . S
H774 C784 0.930 . S
H775 C787 0.929 . S
H776 C790 0.930 . S
H777 C792 0.960 . S
H778 C792 0.960 . S
H779 C792 0.960 . S
C780 H772 0.929 . S
C780 C781 1.377 . S
C780 C782 1.384 . S
C781 C780 1.377 . S
C781 C787 1.390 . S
C782 H773 0.930 . S
C782 C780 1.384 . S
C782 C783 1.372 . S
C783 C782 1.372 . S
C783 C784 1.400 . S
C783 C788 1.490 . S
C784 H774 0.930 . S
C784 C783 1.400 . S
C784 C787 1.386 . S
H785 C801 0.930 . S
H786 C802 0.931 . S
C787 H775 0.929 . S
C787 C781 1.390 . S
C787 C784 1.386 . S
C788 C783 1.490 . S
C788 C790 1.395 . S
C788 C791 1.403 . S
H789 C795 0.930 . S
C790 H776 0.930 . S
C790 C788 1.395 . S
C790 C793 1.403 . S
C791 C788 1.403 . S
C791 C792 1.524 . S
C791 C795 1.400 . S
C792 H777 0.960 . S
C792 H778 0.960 . S
C792 H779 0.960 . S
C792 C791 1.524 . S
C793 C790 1.403 . S
C793 C794 1.392 . S
C793 C797 1.495 . S
C794 C793 1.392 . S
C794 C795 1.385 . S
C794 C796 1.478 . S
C795 H789 0.930 . S
C795 C791 1.400 . S
C795 C794 1.385 . S
C796 C794 1.478 . S
C796 C798 1.381 . S
C796 C802 1.383 1_554 S
C797 C793 1.495 . S
C797 H803 0.959 . S
C797 H804 0.961 1_554 S
C797 H805 0.960 . S
C798 C796 1.381 . S
C798 C799 1.394 1_554 S
C798 H806 0.930 . S
C799 C798 1.394 1_556 S
C799 C800 1.383 . S
C799 H807 0.929 . S
C800 C799 1.383 . S
C800 C801 1.377 . S
C801 H785 0.930 . S
C801 C800 1.377 . S
C801 C802 1.379 . S
C802 H786 0.931 . S
C802 C796 1.383 1_556 S
C802 C801 1.379 . S
H803 C797 0.959 . S
H804 C797 0.961 1_556 S
H805 C797 0.960 . S
H806 C798 0.930 . S
H807 C799 0.929 . S
H808 C816 0.929 . S
H809 C818 0.930 . S
H810 C820 0.930 . S
H811 C823 0.929 . S
H812 C826 0.930 . S
H813 C828 0.960 1_554 S
H814 C828 0.960 1_654 S
H815 C828 0.960 1_554 S
C816 H808 0.929 . S
C816 C817 1.350 1_655 S
C816 C818 1.384 . S
C817 C816 1.350 1_455 S
C817 C823 1.419 . S
C818 H809 0.930 . S
C818 C816 1.384 . S
C818 C819 1.372 1_655 S
C819 C818 1.372 1_455 S
C819 C820 1.400 . S
C819 C824 1.490 . S
C820 H810 0.930 . S
C820 C819 1.400 . S
C820 C823 1.386 . S
H821 C837 0.930 . S
H822 C838 0.931 . S
C823 H811 0.929 . S
C823 C817 1.419 . S
C823 C820 1.386 . S
C824 C819 1.490 . S
C824 C826 1.395 . S
C824 C827 1.403 . S
H825 C831 0.930 . S
C826 H812 0.930 . S
C826 C824 1.395 . S
C826 C829 1.403 . S
C827 C824 1.403 . S
C827 C828 1.524 . S
C827 C831 1.400 . S
C828 H813 0.960 1_556 S
C828 H814 0.960 1_456 S
C828 H815 0.960 1_556 S
C828 C827 1.524 . S
C829 C826 1.403 . S
C829 C830 1.392 . S
C829 C833 1.495 . S
C830 C829 1.392 . S
C830 C831 1.385 . S
C830 C832 1.478 . S
C831 H825 0.930 . S
C831 C827 1.400 . S
C831 C830 1.385 . S
C832 C830 1.478 . S
C832 C834 1.381 1_455 S
C832 C838 1.383 . S
C833 C829 1.495 . S
C833 H839 0.959 . S
C833 H840 0.961 . S
C833 H841 0.960 1_455 S
C834 C832 1.381 1_655 S
C834 C835 1.394 . S
C834 H842 0.930 . S
C835 C834 1.394 . S
C835 C836 1.383 1_655 S
C835 H843 0.929 . S
C836 C835 1.383 1_455 S
C836 C837 1.377 . S
C837 H821 0.930 . S
C837 C836 1.377 . S
C837 C838 1.379 . S
C838 H822 0.931 . S
C838 C832 1.383 . S
C838 C837 1.379 . S
H839 C833 0.959 . S
H840 C833 0.961 . S
H841 C833 0.960 1_655 S
H842 C834 0.930 . S
H843 C835 0.929 . S
H844 C852 0.929 . S
H845 C854 0.930 . S
H846 C856 0.930 . S
H847 C859 0.929 . S
H848 C862 0.930 . S
H849 C864 0.960 . S
H850 C864 0.960 . S
H851 C864 0.950 1_565 S
C852 H844 0.929 . S
C852 C853 1.377 . S
C852 C854 1.384 . S
C853 C852 1.377 . S
C853 C859 1.390 1_545 S
C854 H845 0.930 . S
C854 C852 1.384 . S
C854 C855 1.372 . S
C855 C854 1.372 . S
C855 C856 1.400 1_545 S
C855 C860 1.490 . S
C856 H846 0.930 . S
C856 C855 1.400 1_565 S
C856 C859 1.386 . S
H857 C873 0.930 . S
H858 C874 0.931 . S
C859 H847 0.929 . S
C859 C853 1.390 1_565 S
C859 C856 1.386 . S
C860 C855 1.490 . S
C860 C862 1.395 . S
C860 C863 1.403 . S
H861 C867 0.930 . S
C862 H848 0.930 . S
C862 C860 1.395 . S
C862 C865 1.403 . S
C863 C860 1.403 . S
C863 C864 1.524 . S
C863 C867 1.400 . S
C864 H849 0.960 . S
C864 H850 0.960 . S
C864 H851 0.950 1_545 S
C864 C863 1.524 . S
C865 C862 1.403 . S
C865 C866 1.392 . S
C865 C869 1.500 . S
C866 C865 1.392 . S
C866 C867 1.385 . S
C866 C868 1.478 . S
C867 H861 0.930 . S
C867 C863 1.400 . S
C867 C866 1.385 . S
C868 C866 1.478 . S
C868 C870 1.381 . S
C868 C874 1.383 1_545 S
C869 C865 1.500 . S
C869 H875 0.954 1_546 S
C869 H876 0.931 1_545 S
C869 H877 0.990 . S
C870 C868 1.381 . S
C870 C871 1.394 . S
C870 H878 0.930 . S
C871 C870 1.394 . S
C871 C872 1.383 . S
C871 H879 0.929 . S
C872 C871 1.383 . S
C872 C873 1.377 1_545 S
C873 H857 0.930 . S
C873 C872 1.377 1_565 S
C873 C874 1.379 . S
C874 H858 0.931 . S
C874 C868 1.383 1_565 S
C874 C873 1.379 . S
H875 C869 0.954 1_564 S
H876 C869 0.931 1_565 S
H877 C869 0.990 . S
H878 C870 0.930 . S
H879 C871 0.929 . S
H880 C888 0.929 1_554 S
H881 C890 0.930 . S
H882 C892 0.930 . S
H883 C895 0.929 . S
H884 C898 0.930 . S
H885 C900 0.960 . S
H886 C900 0.960 . S
H887 C900 0.960 . S
C888 H880 0.929 1_556 S
C888 C889 1.377 . S
C888 C890 1.384 . S
C889 C888 1.377 . S
C889 C895 1.390 . S
C890 H881 0.930 . S
C890 C888 1.384 . S
C890 C891 1.372 . S
C891 C890 1.372 . S
C891 C892 1.400 . S
C891 C896 1.490 . S
C892 H882 0.930 . S
C892 C891 1.400 . S
C892 C895 1.386 . S
H893 C909 0.930 . S
H894 C910 0.931 . S
C895 H883 0.929 . S
C895 C889 1.390 . S
C895 C892 1.386 . S
C896 C891 1.490 . S
C896 C898 1.395 . S
C896 C899 1.403 . S
H897 C903 0.930 . S
C898 H884 0.930 . S
C898 C896 1.395 . S
C898 C901 1.403 . S
C899 C896 1.403 . S
C899 C900 1.524 . S
C899 C903 1.400 . S
C900 H885 0.960 . S
C900 H886 0.960 . S
C900 H887 0.960 . S
C900 C899 1.524 . S
C901 C898 1.403 . S
C901 C902 1.392 . S
C901 C905 1.495 . S
C902 C901 1.392 . S
C902 C903 1.385 . S
C902 C904 1.478 . S
C903 H897 0.930 . S
C903 C899 1.400 . S
C903 C902 1.385 . S
C904 C902 1.478 . S
C904 C906 1.381 . S
C904 C910 1.383 . S
C905 C901 1.495 . S
C905 H911 0.959 1_556 S
C905 H912 0.961 . S
C905 H913 0.960 . S
C906 C904 1.381 . S
C906 C907 1.394 . S
C906 H914 0.930 . S
C907 C906 1.394 . S
C907 C908 1.383 . S
C907 H915 0.929 . S
C908 C907 1.383 . S
C908 C909 1.377 . S
C909 H893 0.930 . S
C909 C908 1.377 . S
C909 C910 1.379 . S
C910 H894 0.931 . S
C910 C904 1.383 . S
C910 C909 1.379 . S
H911 C905 0.959 1_554 S
H912 C905 0.961 . S
H913 C905 0.960 . S
H914 C906 0.930 . S
H915 C907 0.929 . S
H916 C924 0.929 1_554 S
H917 C926 0.930 . S
H918 C928 0.930 . S
H919 C931 0.929 . S
H920 C934 0.930 . S
H921 C936 0.960 . S
H922 C936 0.960 . S
H923 C936 0.960 . S
C924 H916 0.929 1_556 S
C924 C925 1.377 . S
C924 C926 1.384 . S
C925 C924 1.377 . S
C925 C931 1.390 . S
C926 H917 0.930 . S
C926 C924 1.384 . S
C926 C927 1.372 . S
C927 C926 1.372 . S
C927 C928 1.400 . S
C927 C932 1.490 . S
C928 H918 0.930 . S
C928 C927 1.400 . S
C928 C931 1.386 . S
H929 C945 0.930 . S
H930 C946 0.931 . S
C931 H919 0.929 . S
C931 C925 1.390 . S
C931 C928 1.386 . S
C932 C927 1.490 . S
C932 C934 1.395 . S
C932 C935 1.403 . S
H933 C939 0.930 . S
C934 H920 0.930 . S
C934 C932 1.395 . S
C934 C937 1.403 . S
C935 C932 1.403 . S
C935 C936 1.524 . S
C935 C939 1.400 . S
C936 H921 0.960 . S
C936 H922 0.960 . S
C936 H923 0.960 . S
C936 C935 1.524 . S
C937 C934 1.403 . S
C937 C938 1.392 . S
C937 C941 1.495 . S
C938 C937 1.392 . S
C938 C939 1.385 . S
C938 C940 1.478 . S
C939 H933 0.930 . S
C939 C935 1.400 . S
C939 C938 1.385 . S
C940 C938 1.478 . S
C940 C942 1.381 . S
C940 C946 1.383 . S
C941 C937 1.495 . S
C941 H947 0.959 . S
C941 H948 0.961 . S
C941 H949 0.960 . S
C942 C940 1.381 . S
C942 C943 1.394 . S
C942 H950 0.930 . S
C943 C942 1.394 . S
C943 C944 1.383 . S
C943 H951 0.929 . S
C944 C943 1.383 . S
C944 C945 1.377 . S
C945 H929 0.930 . S
C945 C944 1.377 . S
C945 C946 1.379 . S
C946 H930 0.931 . S
C946 C940 1.383 . S
C946 C945 1.379 . S
H947 C941 0.959 . S
H948 C941 0.961 . S
H949 C941 0.960 . S
H950 C942 0.930 . S
H951 C943 0.929 . S
H952 C960 0.929 . S
H953 C962 0.930 . S
H954 C964 0.930 . S
H955 C967 0.929 . S
H956 C970 0.930 . S
H957 C972 0.960 . S
H958 C972 0.960 . S
H959 C972 0.960 . S
C960 H952 0.929 . S
C960 C961 1.385 . S
C960 C962 1.384 . S
C961 C960 1.385 . S
C961 C967 1.385 1_655 S
C962 H953 0.930 . S
C962 C960 1.384 . S
C962 C963 1.372 . S
C963 C962 1.372 . S
C963 C964 1.400 1_655 S
C963 C968 1.490 . S
C964 H954 0.930 . S
C964 C963 1.400 1_455 S
C964 C967 1.386 . S
H965 C981 0.930 . S
H966 C982 0.931 . S
C967 H955 0.929 . S
C967 C961 1.385 1_455 S
C967 C964 1.386 . S
C968 C963 1.490 . S
C968 C970 1.395 . S
C968 C971 1.403 1_655 S
H969 C975 0.930 . S
C970 H956 0.930 . S
C970 C968 1.395 . S
C970 C973 1.403 . S
C971 C968 1.403 1_455 S
C971 C972 1.524 . S
C971 C975 1.400 . S
C972 H957 0.960 . S
C972 H958 0.960 . S
C972 H959 0.960 . S
C972 C971 1.524 . S
C973 C970 1.403 . S
C973 C974 1.392 . S
C973 C977 1.495 . S
C974 C973 1.392 . S
C974 C975 1.385 1_655 S
C974 C976 1.478 . S
C975 H969 0.930 . S
C975 C971 1.400 . S
C975 C974 1.385 1_455 S
C976 C974 1.478 . S
C976 C978 1.381 . S
C976 C982 1.383 . S
C977 C973 1.495 . S
C977 H983 0.959 . S
C977 H984 0.961 . S
C977 H985 0.960 . S
C978 C976 1.381 . S
C978 C979 1.394 . S
C978 H986 0.930 . S
C979 C978 1.394 . S
C979 C980 1.383 . S
C979 H987 0.929 . S
C980 C979 1.383 . S
C980 C981 1.377 . S
C981 H965 0.930 . S
C981 C980 1.377 . S
C981 C982 1.379 . S
C982 H966 0.931 . S
C982 C976 1.383 . S
C982 C981 1.379 . S
H983 C977 0.959 . S
H984 C977 0.961 . S
H985 C977 0.960 . S
H986 C978 0.930 . S
H987 C979 0.929 . S
H988 C996 0.929 . S
H989 C998 0.930 . S
H990 C1000 0.930 . S
H991 C1003 0.929 . S
H992 C1006 0.930 . S
H993 C1008 0.960 . S
H994 C1008 0.960 . S
H995 C1008 0.960 . S
C996 H988 0.929 . S
C996 C997 1.419 . S
C996 C998 1.384 . S
C997 C996 1.419 . S
C997 C1003 1.351 1_565 S
C998 H989 0.930 . S
C998 C996 1.384 . S
C998 C999 1.372 . S
C999 C998 1.372 . S
C999 C1000 1.400 1_565 S
C999 C1004 1.490 . S
C1000 H990 0.930 . S
C1000 C999 1.400 1_545 S
C1000 C1003 1.386 . S
H1001 C1017 0.930 . S
H1002 C1018 0.931 . S
C1003 H991 0.929 . S
C1003 C997 1.351 1_545 S
C1003 C1000 1.386 . S
C1004 C999 1.490 . S
C1004 C1006 1.395 . S
C1004 C1007 1.403 1_565 S
H1005 C1011 0.930 . S
C1006 H992 0.930 . S
C1006 C1004 1.395 . S
C1006 C1009 1.403 . S
C1007 C1004 1.403 1_545 S
C1007 C1008 1.524 . S
C1007 C1011 1.400 . S
C1008 H993 0.960 . S
C1008 H994 0.960 . S
C1008 H995 0.960 . S
C1008 C1007 1.524 . S
C1009 C1006 1.403 . S
C1009 C1010 1.392 . S
C1009 C1013 1.495 . S
C1010 C1009 1.392 . S
C1010 C1011 1.385 1_565 S
C1010 C1012 1.478 . S
C1011 H1005 0.930 . S
C1011 C1007 1.400 . S
C1011 C1010 1.385 1_545 S
C1012 C1010 1.478 . S
C1012 C1014 1.381 . S
C1012 C1018 1.383 1_565 S
C1013 C1009 1.495 . S
C1013 H1019 0.959 . S
C1013 H1020 0.961 . S
C1013 H1021 0.960 . S
C1014 C1012 1.381 . S
C1014 C1015 1.394 . S
C1014 H1022 0.930 . S
C1015 C1014 1.394 . S
C1015 C1016 1.383 . S
C1015 H1023 0.929 . S
C1016 C1015 1.383 . S
C1016 C1017 1.377 1_565 S
C1017 H1001 0.930 . S
C1017 C1016 1.377 1_545 S
C1017 C1018 1.379 . S
C1018 H1002 0.931 . S
C1018 C1012 1.383 1_545 S
C1018 C1017 1.379 . S
H1019 C1013 0.959 . S
H1020 C1013 0.961 . S
H1021 C1013 0.960 . S
H1022 C1014 0.930 . S
H1023 C1015 0.929 . S
H1024 C1032 0.929 . S
H1025 C1034 0.930 . S
H1026 C1036 0.930 . S
H1027 C1039 0.929 . S
H1028 C1042 0.930 . S
H1029 C1044 0.960 . S
H1030 C1044 0.960 . S
H1031 C1044 0.960 . S
C1032 H1024 0.929 . S
C1032 C1033 1.377 . S
C1032 C1034 1.384 . S
C1033 C1032 1.377 . S
C1033 C1039 1.390 . S
C1034 H1025 0.930 . S
C1034 C1032 1.384 . S
C1034 C1035 1.372 . S
C1035 C1034 1.372 . S
C1035 C1036 1.400 . S
C1035 C1040 1.490 . S
C1036 H1026 0.930 . S
C1036 C1035 1.400 . S
C1036 C1039 1.386 . S
H1037 C1053 0.930 . S
H1038 C1054 0.931 . S
C1039 H1027 0.929 . S
C1039 C1033 1.390 . S
C1039 C1036 1.386 . S
C1040 C1035 1.490 . S
C1040 C1042 1.395 . S
C1040 C1043 1.403 . S
H1041 C1047 0.930 . S
C1042 H1028 0.930 . S
C1042 C1040 1.395 . S
C1042 C1045 1.403 . S
C1043 C1040 1.403 . S
C1043 C1044 1.524 . S
C1043 C1047 1.400 . S
C1044 H1029 0.960 . S
C1044 H1030 0.960 . S
C1044 H1031 0.960 . S
C1044 C1043 1.524 . S
C1045 C1042 1.403 . S
C1045 C1046 1.392 . S
C1045 C1049 1.495 . S
C1046 C1045 1.392 . S
C1046 C1047 1.385 . S
C1046 C1048 1.478 . S
C1047 H1041 0.930 . S
C1047 C1043 1.400 . S
C1047 C1046 1.385 . S
C1048 C1046 1.478 . S
C1048 C1050 1.381 . S
C1048 C1054 1.383 . S
C1049 C1045 1.495 . S
C1049 H1055 0.959 . S
C1049 H1056 0.961 . S
C1049 H1057 0.960 . S
C1050 C1048 1.381 . S
C1050 C1051 1.394 . S
C1050 H1058 0.930 . S
C1051 C1050 1.394 . S
C1051 C1052 1.383 . S
C1051 H1059 0.929 . S
C1052 C1051 1.383 . S
C1052 C1053 1.377 . S
C1053 H1037 0.930 . S
C1053 C1052 1.377 . S
C1053 C1054 1.379 . S
C1054 H1038 0.931 . S
C1054 C1048 1.383 . S
C1054 C1053 1.379 . S
H1055 C1049 0.959 . S
H1056 C1049 0.961 . S
H1057 C1049 0.960 . S
H1058 C1050 0.930 . S
H1059 C1051 0.929 . S
H1060 C1068 0.929 . S
H1061 C1070 0.930 . S
H1062 C1072 0.930 . S
H1063 C1075 0.929 . S
H1064 C1078 0.930 . S
H1065 C1080 0.960 . S
H1066 C1080 0.960 . S
H1067 C1080 0.960 . S
C1068 H1060 0.929 . S
C1068 C1069 1.377 . S
C1068 C1070 1.384 . S
C1069 C1068 1.377 . S
C1069 C1075 1.390 . S
C1070 H1061 0.930 . S
C1070 C1068 1.384 . S
C1070 C1071 1.372 . S
C1071 C1070 1.372 . S
C1071 C1072 1.400 . S
C1071 C1076 1.490 . S
C1072 H1062 0.930 . S
C1072 C1071 1.400 . S
C1072 C1075 1.386 . S
H1073 C1089 0.930 . S
H1074 C1090 0.931 . S
C1075 H1063 0.929 . S
C1075 C1069 1.390 . S
C1075 C1072 1.386 . S
C1076 C1071 1.490 . S
C1076 C1078 1.395 . S
C1076 C1079 1.403 . S
H1077 C1083 0.930 . S
C1078 H1064 0.930 . S
C1078 C1076 1.395 . S
C1078 C1081 1.403 . S
C1079 C1076 1.403 . S
C1079 C1080 1.524 . S
C1079 C1083 1.400 . S
C1080 H1065 0.960 . S
C1080 H1066 0.960 . S
C1080 H1067 0.960 . S
C1080 C1079 1.524 . S
C1081 C1078 1.403 . S
C1081 C1082 1.392 . S
C1081 C1085 1.495 . S
C1082 C1081 1.392 . S
C1082 C1083 1.385 . S
C1082 C1084 1.478 . S
C1083 H1077 0.930 . S
C1083 C1079 1.400 . S
C1083 C1082 1.385 . S
C1084 C1082 1.478 . S
C1084 C1086 1.381 . S
C1084 C1090 1.383 . S
C1085 C1081 1.495 . S
C1085 H1091 0.959 . S
C1085 H1092 0.961 . S
C1085 H1093 0.960 . S
C1086 C1084 1.381 . S
C1086 C1087 1.394 . S
C1086 H1094 0.930 . S
C1087 C1086 1.394 . S
C1087 C1088 1.383 . S
C1087 H1095 0.929 . S
C1088 C1087 1.383 . S
C1088 C1089 1.377 . S
C1089 H1073 0.930 . S
C1089 C1088 1.377 . S
C1089 C1090 1.379 . S
C1090 H1074 0.931 . S
C1090 C1084 1.383 . S
C1090 C1089 1.379 . S
H1091 C1085 0.959 . S
H1092 C1085 0.961 . S
H1093 C1085 0.960 . S
H1094 C1086 0.930 . S
H1095 C1087 0.929 . S
C241 C61 1.661 1_545 S
C260 C74 1.737 . S
C296 C114 1.761 . S
C277 C70 1.665 . S
C332 C154 1.760 . S
C313 C43 1.670 . S
C368 C194 1.753 1_455 S
C349 C52 1.667 . S
C404 C87 1.740 . S
C385 C25 1.662 . S
C421 C34 1.678 . S
C440 C127 1.753 . S
C457 C7 1.668 . S
C476 C167 1.760 . S
C493 C16 1.664 . S
C512 C207 1.746 . S
C548 C98 0.356 . S
C529 C50 0.259 1_455 S
C584 C138 0.288 . S
C565 C59 0.262 1_545 S
C620 C178 0.303 . S
C601 C67 0.244 . S
C637 C41 0.239 . S
C656 C218 0.194 . S
C673 C14 0.256 . S
C692 C81 0.199 . S
C728 C121 0.232 . S
C709 C23 0.260 . S
C764 C161 0.266 . S
C745 C31 0.253 . S
C781 C5 0.225 . S
C800 C201 0.361 . S
C817 C49 1.825 1_455 S
C836 C75 2.024 . S
C853 C58 1.800 1_545 S
C872 C115 1.995 . S
C908 C155 1.979 . S
C889 C68 1.782 . S
C944 C195 2.006 . S
C925 C40 1.805 . S
C961 C13 1.823 . S
C980 C94 2.043 . S
C1016 C134 2.003 . S
C997 C22 1.790 . S
C1052 C174 1.979 . S
C1033 C32 1.790 . S
C1069 C4 1.804 . S
C1088 C214 2.018 . S
