# Generated by pormake.
# Topology zzz, (3,6)-cn, num edge types: 1
# Building blocks:
#     Node 0, Type 0, BuildingBlock: BETDIP_clean_linker_0, # of connection points: 3
#     Node 1, Type 0, BuildingBlock: BETDIP_clean_linker_0, # of connection points: 3
#     Node 2, Type 0, BuildingBlock: BETDIP_clean_linker_0, # of connection points: 3
#     Node 3, Type 0, BuildingBlock: BETDIP_clean_linker_0, # of connection points: 3
#     Node 4, Type 0, BuildingBlock: BETDIP_clean_linker_0, # of connection points: 3
#     Node 5, Type 0, BuildingBlock: BETDIP_clean_linker_0, # of connection points: 3
#     Node 6, Type 0, BuildingBlock: BETDIP_clean_linker_0, # of connection points: 3
#     Node 7, Type 0, BuildingBlock: BETDIP_clean_linker_0, # of connection points: 3
#     Node 8, Type 1, BuildingBlock: BETDEL_clean_sbu_0, # of connection points: 6
#     Node 9, Type 1, BuildingBlock: BETDEL_clean_sbu_0, # of connection points: 6
#     Node 10, Type 1, BuildingBlock: BETDEL_clean_sbu_0, # of connection points: 6
#     Node 11, Type 1, BuildingBlock: BETDEL_clean_sbu_0, # of connection points: 6
#     Edge 12, Type (0, 1), BuildingBlock: OJICUG_clean_linker_0, # of connection points: 2
#     Edge 13, Type (0, 1), BuildingBlock: OJICUG_clean_linker_0, # of connection points: 2
#     Edge 14, Type (0, 1), BuildingBlock: OJICUG_clean_linker_0, # of connection points: 2
#     Edge 15, Type (0, 1), BuildingBlock: OJICUG_clean_linker_0, # of connection points: 2
#     Edge 16, Type (0, 1), BuildingBlock: OJICUG_clean_linker_0, # of connection points: 2
#     Edge 17, Type (0, 1), BuildingBlock: OJICUG_clean_linker_0, # of connection points: 2
#     Edge 18, Type (0, 1), BuildingBlock: OJICUG_clean_linker_0, # of connection points: 2
#     Edge 19, Type (0, 1), BuildingBlock: OJICUG_clean_linker_0, # of connection points: 2
#     Edge 20, Type (0, 1), BuildingBlock: OJICUG_clean_linker_0, # of connection points: 2
#     Edge 21, Type (0, 1), BuildingBlock: OJICUG_clean_linker_0, # of connection points: 2
#     Edge 22, Type (0, 1), BuildingBlock: OJICUG_clean_linker_0, # of connection points: 2
#     Edge 23, Type (0, 1), BuildingBlock: OJICUG_clean_linker_0, # of connection points: 2
#     Edge 24, Type (0, 1), BuildingBlock: OJICUG_clean_linker_0, # of connection points: 2
#     Edge 25, Type (0, 1), BuildingBlock: OJICUG_clean_linker_0, # of connection points: 2
#     Edge 26, Type (0, 1), BuildingBlock: OJICUG_clean_linker_0, # of connection points: 2
#     Edge 27, Type (0, 1), BuildingBlock: OJICUG_clean_linker_0, # of connection points: 2
#     Edge 28, Type (0, 1), BuildingBlock: OJICUG_clean_linker_0, # of connection points: 2
#     Edge 29, Type (0, 1), BuildingBlock: OJICUG_clean_linker_0, # of connection points: 2
#     Edge 30, Type (0, 1), BuildingBlock: OJICUG_clean_linker_0, # of connection points: 2
#     Edge 31, Type (0, 1), BuildingBlock: OJICUG_clean_linker_0, # of connection points: 2
#     Edge 32, Type (0, 1), BuildingBlock: OJICUG_clean_linker_0, # of connection points: 2
#     Edge 33, Type (0, 1), BuildingBlock: OJICUG_clean_linker_0, # of connection points: 2
#     Edge 34, Type (0, 1), BuildingBlock: OJICUG_clean_linker_0, # of connection points: 2
#     Edge 35, Type (0, 1), BuildingBlock: OJICUG_clean_linker_0, # of connection points: 2
# Relax obj value: 0.170
# Max RMSD: 0.185
# Mean RMSD: 0.120
data_MOF--net-zzz--node1-BETDEL_clean_sbu_0--node2-BETDIP_clean_linker_0--edge1-OJICUG_clean_linker_0
_symmetry_space_group_name_H-M    P1
_symmetry_Int_Tables_number       1
_symmetry_cell_setting            triclinic
loop_
_symmetry_equiv_pos_as_xyz
'x, y, z'
_cell_length_a     33.88983
_cell_length_b     35.051206
_cell_length_c     11.948629
_cell_angle_alpha  91.196196
_cell_angle_beta   88.059249
_cell_angle_gamma 94.074238
loop_
_atom_site_label
_atom_site_type_symbol
_atom_site_fract_x
_atom_site_fract_y
_atom_site_fract_z
_atom_type_partial_charge
H0 H 0.78694 0.57785 0.20845 0.0
H1 H 0.77855 0.49967 0.92505 0.0
H2 H 0.88728 0.5171 0.10022 0.0
H3 H 0.75358 0.59335 0.93062 0.0
C4 C 0.73007 0.57297 -0.03954 0.0
C5 C 0.80008 0.55707 0.15305 0.0
C6 C 0.83994 0.54911 0.16399 0.0
C7 C 0.77786 0.53904 0.06616 0.0
C8 C 0.79546 0.51273 -0.00709 0.0
C9 C 0.83485 0.50397 0.00584 0.0
C10 C 0.85633 0.52222 0.09197 0.0
N11 N 0.73837 0.54817 0.04817 0.0
H12 H 1.00621 0.78504 0.19724 0.0
H13 H 0.08597 0.78586 0.90788 0.0
H14 H 0.07049 0.88944 0.09823 0.0
H15 H 0.99423 0.75351 0.89884 0.0
C16 C 1.01139 0.73155 0.93242 0.0
C17 C 1.02789 0.80014 0.14259 0.0
C18 C 1.03677 0.83979 0.15813 0.0
C19 C 1.04581 0.7806 0.05157 0.0
C20 C 0.07306 0.80076 -0.02105 0.0
C21 C 0.08288 0.84 -0.0035 0.0
C22 C 0.06462 0.85881 0.08645 0.0
N23 N 1.03466 0.74145 0.02706 0.0
H24 H 0.80466 1.0089 0.25586 0.0
H25 H 0.82469 0.0589 0.9297 0.0
H26 H 0.71041 0.06001 0.09579 0.0
H27 H 0.86086 0.97213 -0.00304 0.0
C28 C 0.87642 0.99986 0.01191 0.0
C29 C 0.79399 1.02394 0.18591 0.0
C30 C 0.75433 1.03365 0.18612 0.0
C31 C 0.8196 1.0333 0.09305 0.0
C32 C 0.80529 0.05223 0.00166 0.0
C33 C 0.76619 0.06302 0.00401 0.0
C34 C 0.74128 0.05357 0.09624 0.0
N35 N 0.86013 1.02528 0.09252 0.0
H36 H 0.58848 0.78639 0.18025 0.0
H37 H 0.50152 0.78169 0.92416 0.0
H38 H 0.51377 0.68408 0.12828 0.0
H39 H 0.56644 0.80466 0.83444 0.0
C40 C 0.56654 0.83004 0.88852 0.0
C41 C 0.56402 0.77139 0.13806 0.0
C42 C 0.55142 0.73361 0.16753 0.0
C43 C 0.54638 0.78864 0.0482 0.0
C44 C 0.51521 0.76833 -0.00756 0.0
C45 C 0.5034 0.73033 0.01907 0.0
C46 C 0.52119 0.71384 0.10855 0.0
N47 N 0.56198 0.82471 0.00649 0.0
H48 H 0.29153 0.4887 0.86813 0.0
H49 H 0.30613 0.57349 0.13317 0.0
H50 H 0.20025 0.56451 -0.05721 0.0
H51 H 0.37964 0.5671 0.01327 0.0
C52 C 0.37482 0.5397 0.05428 0.0
C53 C 0.28095 0.51286 0.91529 0.0
C54 C 0.24375 0.52607 0.8934 0.0
C55 C 0.30421 0.53083 2e-05 0.0
C56 C 0.28928 0.56117 0.06421 0.0
C57 C 0.25141 0.57338 0.04545 0.0
C58 C 0.22989 0.55636 -0.04266 0.0
N59 N 0.34039 0.51574 0.02904 0.0
H60 H 0.09925 0.2884 0.88229 0.0
H61 H 1.00741 0.29177 0.14037 0.0
H62 H 1.02449 0.18759 -0.04496 0.0
H63 H 1.0098 0.3604 0.02087 0.0
C64 C 1.03824 0.36268 0.06081 0.0
C65 C 0.07411 0.27464 0.9276 0.0
C66 C 0.06324 0.23559 0.90777 0.0
C67 C 0.05268 0.29561 0.00852 0.0
C68 C 1.02162 0.27666 0.07183 0.0
C69 C 1.01176 0.23735 0.05476 0.0
C70 C 1.03132 0.21803 -0.03161 0.0
N71 N 0.06544 0.33421 0.03603 0.0
H72 H 0.30709 0.07701 0.82363 0.0
H73 H 0.28088 1.0106 0.12005 0.0
H74 H 0.3924 1.00394 -0.05825 0.0
H75 H 0.20998 1.01149 -0.03863 0.0
C76 C 0.21583 0.03774 0.00986 0.0
C77 C 0.31515 0.05575 0.88157 0.0
C78 C 0.35216 0.03981 0.86892 0.0
C79 C 0.28843 0.04363 -0.03053 0.0
C80 C 0.3001 1.01764 0.04798 0.0
C81 C 0.33787 1.00363 0.03959 0.0
C82 C 0.36268 1.01365 -0.05265 0.0
N83 N 0.25163 0.06043 -0.01332 0.0
H84 H 0.50895 0.28395 0.8548 0.0
H85 H 0.59999 0.29308 0.1002 0.0
H86 H 0.57133 0.39213 0.92385 0.0
H87 H 0.60769 0.23068 0.02627 0.0
C88 C 0.57688 0.22142 0.04461 0.0
C89 C 0.53197 0.30066 0.8984 0.0
C90 C 0.5386 0.34018 0.87891 0.0
C91 C 0.55503 0.28305 -0.02359 0.0
C92 C 0.58379 0.30573 0.03562 0.0
C93 C 0.58966 0.34526 0.01839 0.0
C94 C 0.5679 0.36154 0.93694 0.0
N95 N 0.54706 0.24356 0.00262 0.0
Dy96 Dy 0.0835 1.01615 0.59912 0.0
C97 C 1.00386 0.11618 0.33802 0.0
C98 C 0.11843 0.96051 0.70885 0.0
Dy99 Dy 1.02717 0.05917 0.46473 0.0
O100 O 0.11249 0.96069 0.60248 0.0
O101 O 0.10588 0.99144 0.75578 0.0
O102 O 0.13488 0.04539 0.50451 0.0
O103 O 0.08225 1.0318 0.42159 0.0
C104 C 0.11688 0.04766 0.41096 0.0
C105 C 0.98995 0.04259 0.66244 0.0
O106 O 1.01733 1.00123 0.38277 0.0
O107 O 1.04099 0.96969 0.53229 0.0
O108 O 0.98634 0.08178 0.33884 0.0
O109 O 1.03485 0.11788 0.39873 0.0
O110 O 0.97424 0.06037 0.58322 0.0
O111 O 1.02425 1.03426 0.63098 0.0
O112 O 0.08853 0.07217 0.69308 0.0
O113 O 0.06758 0.10479 0.54335 0.0
C114 C 1.02283 0.96913 0.43569 0.0
C115 C 0.0834 0.10467 0.64273 0.0
Dy116 Dy 0.52471 1.01429 0.43907 0.0
C117 C 0.65087 0.08035 0.69463 0.0
C118 C 0.45482 0.99174 0.34477 0.0
Dy119 Dy 0.5804 0.06157 0.59904 0.0
O120 O 0.48801 0.97612 0.322 0.0
O121 O 0.46046 1.02003 0.41529 0.0
O122 O 0.57643 0.98359 0.36435 0.0
O123 O 0.58472 0.03925 0.42999 0.0
C124 C 0.60243 1.01102 0.39306 0.0
C125 C 0.50272 0.06451 0.64725 0.0
O126 O 0.5791 0.10322 0.45887 0.0
O127 O 0.52742 0.07287 0.35958 0.0
O128 O 0.61928 0.09913 0.7125 0.0
O129 O 0.64323 0.0513 0.62826 0.0
O130 O 0.52881 0.0921 0.6744 0.0
O131 O 0.52039 0.03626 0.60955 0.0
O132 O 0.5295 0.97032 0.56988 0.0
O133 O 0.57849 1.00259 0.67533 0.0
C134 C 0.5532 0.1027 0.37745 0.0
C135 C 0.55536 0.9714 0.65112 0.0
Dy136 Dy 0.51053 0.55608 0.60558 0.0
C137 C 0.60246 0.46443 0.32753 0.0
C138 C 0.47003 0.60763 0.73044 0.0
Dy139 Dy 0.56974 0.51836 0.46056 0.0
O140 O 0.47487 0.60744 0.62259 0.0
O141 O 0.48685 0.57887 0.77059 0.0
O142 O 0.46108 0.52321 0.51836 0.0
O143 O 0.51233 0.54064 0.42584 0.0
C144 C 0.47861 0.52277 0.42018 0.0
C145 C 0.60777 0.53953 0.64804 0.0
O146 O 0.57812 0.57592 0.3829 0.0
O147 O 0.54756 0.60612 0.53287 0.0
O148 O 0.60193 0.50031 0.3008 0.0
O149 O 0.5844 0.45867 0.42326 0.0
O150 O 0.62443 0.52458 0.56049 0.0
O151 O 0.57212 0.54501 0.62909 0.0
O152 O 0.50855 0.49976 0.69072 0.0
O153 O 0.52935 0.47019 0.52868 0.0
C154 C 0.56827 0.60753 0.43666 0.0
C155 C 0.51424 0.46821 0.63171 0.0
Dy156 Dy 1.0195 0.51508 0.59223 0.0
C157 C 0.12783 0.60285 0.33834 0.0
C158 C 0.95792 0.47755 0.70811 0.0
Dy159 Dy 0.06609 0.56624 0.45616 0.0
O160 O 0.95947 0.48378 0.60191 0.0
O161 O 0.99054 0.49163 0.75194 0.0
O162 O 1.04725 0.46444 0.51387 0.0
O163 O 1.03697 0.51025 0.41239 0.0
C164 C 0.05107 0.4778 0.41361 0.0
C165 C 1.03225 0.60476 0.62593 0.0
O166 O 1.00925 0.5702 0.36753 0.0
O167 O 0.9735 0.55053 0.52439 0.0
O168 O 0.12563 0.59851 0.44549 0.0
O169 O 0.09573 0.58742 0.29463 0.0
O170 O 1.03786 0.61714 0.52499 0.0
O171 O 1.04685 0.57256 0.63501 0.0
O172 O 0.0752 0.5106 0.68354 0.0
O173 O 0.1116 0.53072 0.52846 0.0
C174 C 0.97494 0.56512 0.42342 0.0
C175 C 0.10964 0.51572 0.6291 0.0
C176 C 0.14999 1.02825 0.11 0.0
C177 C 0.18862 0.0458 0.10645 0.0
H178 H 0.09645 1.01598 0.20773 0.0
C179 C 0.2018 0.06746 0.19995 0.0
H180 H 0.13906 1.01142 0.03905 0.0
C181 C 0.17762 0.06956 0.29735 0.0
C182 C 0.13954 0.05067 0.30246 0.0
H183 H 0.23151 0.08108 0.20012 0.0
H184 H 0.18923 0.08488 0.37014 0.0
C185 C 0.12552 1.031 0.20644 0.0
C186 C 0.53168 0.1713 0.14562 0.0
C187 C 0.5688 0.19147 0.13035 0.0
H188 H 0.49756 0.12678 0.23513 0.0
C189 C 0.59983 0.18282 0.19827 0.0
H190 H 0.50725 0.1773 0.09412 0.0
C191 C 0.59414 0.15488 0.28001 0.0
C192 C 0.55741 0.13405 0.29468 0.0
H193 H 0.62875 0.19789 0.18846 0.0
H194 H 0.61903 0.14898 0.32991 0.0
C195 C 0.52618 0.14243 0.22621 0.0
C196 C 0.39153 0.50589 0.22907 0.0
C197 C 0.40336 0.52967 0.13902 0.0
H198 H 0.4063 0.4851 0.38922 0.0
C199 C 0.44194 0.54731 0.13615 0.0
H200 H 0.36192 0.49208 0.23401 0.0
C201 C 0.46759 0.5428 0.22375 0.0
C202 C 0.45489 0.52113 0.31754 0.0
H203 H 0.45199 0.56553 0.06748 0.0
H204 H 0.49655 0.55804 0.2208 0.0
C205 C 0.41694 0.50195 0.31796 0.0
C206 C 1.02563 0.42775 0.13807 0.0
C207 C 1.04649 0.39457 0.14275 0.0
H208 H 1.01174 0.48083 0.21794 0.0
C209 C 0.07187 0.39085 0.23187 0.0
H210 H 1.00574 0.43126 0.07049 0.0
C211 C 0.07456 0.4188 0.31779 0.0
C212 C 0.05277 0.45146 0.31476 0.0
H213 H 0.08803 0.36546 0.23835 0.0
H214 H 0.09284 0.41436 0.38837 0.0
C215 C 1.02917 0.45618 0.22225 0.0
C216 C 0.93249 0.98359 0.88153 0.0
C217 C 0.91115 1.01159 0.93802 0.0
H218 H 0.9759 0.97169 0.75209 0.0
C219 C 0.92045 0.05025 0.91345 0.0
H220 H 0.9258 0.95357 0.89883 0.0
C221 C 0.94828 0.06041 0.8279 0.0
C222 C 0.96836 1.0323 0.7682 0.0
H223 H 0.90442 0.07247 -0.04503 0.0
H224 H 0.95293 0.0902 0.80512 0.0
C225 C 0.96131 0.9939 0.79831 0.0
C226 C 0.55177 0.86651 0.72164 0.0
C227 C 0.56353 0.86722 0.83322 0.0
H228 H 0.53949 0.89851 0.57825 0.0
C229 C 0.57264 0.90277 0.88642 0.0
H230 H 0.5446 0.83953 0.67849 0.0
C231 C 0.57054 0.93696 0.82753 0.0
C232 C 0.55828 0.93602 0.71585 0.0
H233 H 0.58197 0.9041 -0.0277 0.0
H234 H 0.57804 0.96405 0.8696 0.0
C235 C 0.54872 0.90037 0.66424 0.0
C236 C 0.66487 0.5372 0.91268 0.0
C237 C 0.6933 0.56795 0.89524 0.0
H238 H 0.61417 0.50448 0.84787 0.0
C239 C 0.68861 0.59263 0.80617 0.0
H240 H 0.66774 0.51755 -0.01983 0.0
C241 C 0.65787 0.58536 0.73164 0.0
C242 C 0.63081 0.5535 0.74511 0.0
H243 H 0.71005 0.6165 0.79046 0.0
H244 H 0.65674 0.6033 0.65917 0.0
C245 C 0.63396 0.52993 0.83773 0.0
C246 C 0.99107 0.69024 0.77041 0.0
C247 C 1.01357 0.69507 0.86677 0.0
H248 H 0.97917 0.65756 0.6207 0.0
C249 C 1.03916 0.66662 0.89193 0.0
H250 H 0.97099 0.71146 0.74892 0.0
C251 C 1.04348 0.63504 0.81824 0.0
C252 C 1.02253 0.63183 0.71829 0.0
H253 H 0.0569 0.66952 -0.03428 0.0
H254 H 0.0648 0.61455 0.83597 0.0
C255 C 0.99565 0.65925 0.69706 0.0
C256 C 0.97007 0.17869 0.11349 0.0
C257 C 0.99131 0.2134 0.14312 0.0
H258 H 0.95843 0.11916 0.15177 0.0
C259 C 1.00549 0.2178 0.25187 0.0
H260 H 0.95792 0.17481 0.03098 0.0
C261 C 1.00588 0.18613 0.31988 0.0
C262 C 0.9915 0.14986 0.28109 0.0
H263 H 1.02151 0.24408 0.27859 0.0
H264 H 1.02087 0.18944 0.39858 0.0
C265 C 0.97063 0.14674 0.18184 0.0
C266 C 0.38477 0.96022 0.11931 0.0
C267 C 0.3562 0.98723 0.13691 0.0
H268 H 0.43978 0.94098 0.17181 0.0
C269 C 0.35481 1.0073 0.23973 0.0
H270 H 0.38597 0.94374 0.04168 0.0
C271 C 0.38539 1.00551 0.31412 0.0
C272 C 0.41758 0.98364 0.28656 0.0
H273 H 0.33313 1.02813 0.25651 0.0
H274 H 0.3857 1.02419 0.38756 0.0
C275 C 0.41569 0.95879 0.19325 0.0
C276 C 0.62645 0.40791 0.06726 0.0
C277 C 0.61041 0.37141 0.10039 0.0
H278 H 0.63508 0.46734 0.11392 0.0
C279 C 0.60368 0.36473 0.21512 0.0
H280 H 0.63371 0.41362 -0.02007 0.0
C281 C 0.60583 0.39518 0.29163 0.0
C282 C 0.61416 0.43273 0.25445 0.0
H283 H 0.59188 0.33715 0.24492 0.0
H284 H 0.59669 0.38966 0.37792 0.0
C285 C 0.62738 0.43871 0.1436 0.0
C286 C 0.23159 0.58887 0.24351 0.0
C287 C 0.22973 0.59692 0.12912 0.0
H288 H 0.20015 0.58574 0.40147 0.0
C289 C 0.19873 0.61833 0.09438 0.0
H290 H 0.25502 0.57287 0.27428 0.0
C291 C 0.16603 0.62354 0.16595 0.0
C292 C 0.16545 0.61005 0.27533 0.0
H293 H 0.1973 0.62661 0.00784 0.0
H294 H 0.14014 0.63533 0.13333 0.0
C295 C 0.19977 0.59589 0.31651 0.0
C296 C 0.09872 0.85969 0.7993 0.0
C297 C 0.10667 0.8638 0.91367 0.0
H298 H 0.09767 0.88776 0.64244 0.0
C299 C 0.12936 0.8967 -0.04949 0.0
H300 H 0.0816 0.83475 0.76769 0.0
C301 C 0.1369 0.92778 0.87994 0.0
C302 C 0.12378 0.92549 0.77015 0.0
H303 H 0.13725 0.90014 0.03745 0.0
H304 H 0.15013 0.95444 0.91361 0.0
C305 C 0.10769 0.89029 0.72759 0.0
C306 C 0.72125 0.10757 0.92252 0.0
C307 C 0.74811 0.07892 0.90602 0.0
H308 H 0.6683 0.13035 0.86746 0.0
C309 C 0.74845 0.05818 0.80455 0.0
H310 H 0.72083 0.12427 -0.00014 0.0
C311 C 0.71853 0.06176 0.72897 0.0
C312 C 0.68805 0.08606 0.75433 0.0
H313 H 0.76883 0.03602 0.78961 0.0
H314 H 0.71724 0.04286 0.65604 0.0
C315 C 0.6911 0.11093 0.8473 0.0
C316 C 0.48575 0.70884 0.82481 0.0
C317 C 0.47951 0.70498 -0.05878 0.0
H318 H 0.48599 0.68043 0.6651 0.0
C319 C 0.45831 0.6716 -0.01908 0.0
H320 H 0.50161 0.73396 0.7899 0.0
C321 C 0.45097 0.64014 0.90907 0.0
C322 C 0.46287 0.64242 0.79609 0.0
H323 H 0.45115 0.66827 0.06936 0.0
H324 H 0.43888 0.6133 -0.05686 0.0
C325 C 0.47698 0.67787 0.75265 0.0
C326 C 0.85417 0.48943 0.80701 0.0
C327 C 0.85698 0.4815 0.92103 0.0
H328 H 0.88463 0.49299 0.64767 0.0
C329 C 0.88875 0.46093 -0.04537 0.0
H330 H 0.83004 0.50483 0.77772 0.0
C331 C 0.92108 0.45615 0.88154 0.0
C332 C 0.92069 0.46953 0.77221 0.0
H333 H 0.89095 0.45302 0.04127 0.0
H334 H 0.94747 0.44496 0.91302 0.0
C335 C 0.88576 0.48298 0.73257 0.0
C336 C 0.07634 0.20958 0.71643 0.0
C337 C 0.08491 0.21027 0.83026 0.0
H338 H 0.06981 0.17565 0.5669 0.0
C339 C 0.10141 0.17832 0.87507 0.0
H340 H 0.06301 0.23347 0.68032 0.0
C341 C 0.10415 0.14451 0.81147 0.0
C342 C 0.09097 0.14228 0.70128 0.0
H343 H 0.10775 0.178 -0.03666 0.0
H344 H 0.11352 0.11939 0.85155 0.0
C345 C 0.07961 0.17599 0.65225 0.0
C346 C 0.39874 1.02275 0.71456 0.0
C347 C 0.38314 0.05149 0.78297 0.0
H348 H 0.44905 1.0037 0.623 0.0
C349 C 0.40522 0.08681 0.79393 0.0
H350 H 0.38282 0.99493 0.70697 0.0
C351 C 0.44343 0.09211 0.74427 0.0
C352 C 0.46026 0.062 0.68411 0.0
H353 H 0.3944 0.10907 0.84864 0.0
H354 H 0.46066 0.11886 0.75891 0.0
C355 C 0.43693 1.02774 0.66703 0.0
C356 C 0.49434 0.39203 0.85033 0.0
C357 C 0.51554 0.36218 0.80283 0.0
H358 H 0.478 0.44963 0.83452 0.0
C359 C 0.5279 0.36435 0.68991 0.0
H360 H 0.48504 0.39129 0.93798 0.0
C361 C 0.52389 0.39781 0.63039 0.0
C362 C 0.50795 0.4299 0.68343 0.0
H363 H 0.54489 0.34217 0.65182 0.0
H364 H 0.53675 0.39965 0.5463 0.0
C365 C 0.491 0.42579 0.79171 0.0
C366 C 0.21807 0.52278 0.7011 0.0
C367 C 0.21616 0.50857 0.81017 0.0
H368 H 0.18581 0.53586 0.55749 0.0
C369 C 0.18036 0.49009 0.85022 0.0
H370 H 0.24495 0.53797 0.66928 0.0
C371 C 0.14605 0.48991 0.78797 0.0
C372 C 0.14698 0.50781 0.68369 0.0
H373 H 0.17789 0.47966 0.93509 0.0
H374 H 0.11833 0.47818 0.82512 0.0
C375 C 0.18386 0.52215 0.63805 0.0
C376 C 1.03186 0.86499 0.35398 0.0
C377 C 1.01779 0.86399 0.24494 0.0
H378 H 1.0438 0.89898 0.50119 0.0
C379 C 0.99745 0.89505 0.20942 0.0
H380 H 0.04824 0.84184 0.38279 0.0
C381 C 0.99597 0.92846 0.27547 0.0
C382 C 1.01426 0.93122 0.37932 0.0
H383 H 0.98678 0.89519 0.12495 0.0
H384 H 0.9833 0.95303 0.24119 0.0
C385 C 1.02983 0.89819 0.42095 0.0
C386 C 0.70188 0.98722 0.26298 0.0
C387 C 0.72387 1.02262 0.27352 0.0
H388 H 0.64589 0.9556 0.2928 0.0
C389 C 0.70743 0.05202 0.33713 0.0
H390 H 0.71337 0.96452 0.21125 0.0
C391 C 0.66855 0.04747 0.38002 0.0
C392 C 0.64537 1.01311 0.36233 0.0
H393 H 0.72319 0.07995 0.3434 0.0
H394 H 0.65586 0.07188 0.42049 0.0
C395 C 0.66297 0.98242 0.30758 0.0
C396 C 0.593 0.68102 0.21243 0.0
C397 C 0.57064 0.71121 0.25144 0.0
H398 H 0.60983 0.62427 0.24015 0.0
C399 C 0.55475 0.71011 0.36129 0.0
H400 H 0.60483 0.68082 0.12703 0.0
C401 C 0.55741 0.67761 0.42628 0.0
C402 C 0.57551 0.64531 0.38183 0.0
H403 H 0.53664 0.73254 0.39245 0.0
H404 H 0.54215 0.6766 0.50737 0.0
C405 C 0.5953 0.64831 0.27674 0.0
C406 C 0.86623 0.55415 0.35576 0.0
C407 C 0.86713 0.5679 0.24635 0.0
H408 H 0.89974 0.54294 0.49843 0.0
C409 C 0.90202 0.58786 0.20512 0.0
H410 H 0.84009 0.53804 0.38878 0.0
C411 C 0.93675 0.58945 0.26587 0.0
C412 C 0.93703 0.57184 0.37019 0.0
H413 H 0.90364 0.59823 0.12016 0.0
H414 H 0.9639 0.60206 0.22759 0.0
C415 C 0.90079 0.55638 0.41754 0.0
loop_
_geom_bond_atom_site_label_1
_geom_bond_atom_site_label_2
_geom_bond_distance
_geom_bond_site_symmetry_2
_ccdc_geom_bond_type
H0 C5 0.930 . S
H1 C8 0.930 1_556 S
H2 C10 0.930 . S
H3 C4 1.016 1_556 S
C4 H3 1.016 1_554 S
C4 N11 1.286 . S
C5 H0 0.930 . S
C5 C6 1.397 . S
C5 C7 1.361 . S
C6 C5 1.397 . S
C6 C10 1.390 . S
C7 C5 1.361 . S
C7 C8 1.393 . S
C7 N11 1.413 . S
C8 H1 0.930 1_554 S
C8 C7 1.393 . S
C8 C9 1.399 . S
C9 C8 1.399 . S
C9 C10 1.381 . S
C10 H2 0.930 . S
C10 C6 1.390 . S
C10 C9 1.381 . S
N11 C4 1.286 . S
N11 C7 1.413 . S
H12 C17 0.930 . S
H13 C20 0.930 . S
H14 C22 0.930 . S
H15 C16 1.016 1_556 S
C16 H15 1.016 1_554 S
C16 N23 1.286 1_655 S
C17 H12 0.930 . S
C17 C18 1.397 . S
C17 C19 1.361 . S
C18 C17 1.397 . S
C18 C22 1.390 1_455 S
C19 C17 1.361 . S
C19 C20 1.393 1_554 S
C19 N23 1.413 . S
C20 H13 0.930 . S
C20 C19 1.393 1_556 S
C20 C21 1.405 1_556 S
C21 C20 1.405 1_554 S
C21 C22 1.379 1_455 S
C22 H14 0.930 . S
C22 C18 1.390 1_655 S
C22 C21 1.379 1_655 S
N23 C16 1.286 1_455 S
N23 C19 1.413 . S
H24 C29 0.930 . S
H25 C32 0.930 . S
H26 C34 0.930 . S
H27 C28 1.016 . S
C28 H27 1.016 . S
C28 N35 1.286 1_556 S
C29 H24 0.930 . S
C29 C30 1.397 . S
C29 C31 1.361 . S
C30 C29 1.397 . S
C30 C34 1.390 . S
C31 C29 1.361 . S
C31 C32 1.393 1_554 S
C31 N35 1.413 . S
C32 H25 0.930 . S
C32 C31 1.393 1_556 S
C32 C33 1.399 . S
C33 C32 1.399 . S
C33 C34 1.381 1_556 S
C34 H26 0.930 . S
C34 C30 1.390 . S
C34 C33 1.381 1_554 S
N35 C28 1.286 1_554 S
N35 C31 1.413 . S
H36 C41 0.930 . S
H37 C44 0.930 1_556 S
H38 C46 0.930 . S
H39 C40 1.016 1_556 S
C40 H39 1.016 1_554 S
C40 N47 1.286 . S
C41 H36 0.930 . S
C41 C42 1.397 . S
C41 C43 1.361 . S
C42 C41 1.397 . S
C42 C46 1.390 . S
C43 C41 1.361 . S
C43 C44 1.393 . S
C43 N47 1.413 . S
C44 H37 0.930 1_554 S
C44 C43 1.393 . S
C44 C45 1.399 . S
C45 C44 1.399 . S
C45 C46 1.381 . S
C46 H38 0.930 . S
C46 C42 1.390 . S
C46 C45 1.381 . S
N47 C40 1.286 . S
N47 C43 1.413 . S
H48 C53 0.930 . S
H49 C56 0.930 . S
H50 C58 0.930 . S
H51 C52 1.016 . S
C52 H51 1.016 . S
C52 N59 1.286 . S
C53 H48 0.930 . S
C53 C54 1.397 . S
C53 C55 1.361 1_556 S
C54 C53 1.397 . S
C54 C58 1.390 1_556 S
C55 C53 1.361 1_554 S
C55 C56 1.393 . S
C55 N59 1.413 . S
C56 H49 0.930 . S
C56 C55 1.393 . S
C56 C57 1.399 . S
C57 C56 1.399 . S
C57 C58 1.381 . S
C58 H50 0.930 . S
C58 C54 1.390 1_554 S
C58 C57 1.381 . S
N59 C52 1.286 . S
N59 C55 1.413 . S
H60 C65 0.930 . S
H61 C68 0.930 . S
H62 C70 0.930 . S
H63 C64 1.025 . S
C64 H63 1.025 . S
C64 N71 1.271 1_655 S
C65 H60 0.930 . S
C65 C66 1.397 . S
C65 C67 1.361 1_556 S
C66 C65 1.397 . S
C66 C70 1.390 1_456 S
C67 C65 1.361 1_554 S
C67 C68 1.393 . S
C67 N71 1.413 . S
C68 H61 0.930 . S
C68 C67 1.393 . S
C68 C69 1.401 . S
C69 C68 1.401 . S
C69 C70 1.378 1_455 S
C70 H62 0.930 . S
C70 C66 1.390 1_654 S
C70 C69 1.378 1_655 S
N71 C64 1.271 1_455 S
N71 C67 1.413 . S
H72 C77 0.930 . S
H73 C80 0.930 . S
H74 C82 0.930 . S
H75 C76 1.016 . S
C76 H75 1.016 . S
C76 N83 1.286 . S
C77 H72 0.930 . S
C77 C78 1.397 . S
C77 C79 1.361 1_556 S
C78 C77 1.397 . S
C78 C82 1.390 1_556 S
C79 C77 1.361 1_554 S
C79 C80 1.393 . S
C79 N83 1.413 . S
C80 H73 0.930 . S
C80 C79 1.393 . S
C80 C81 1.399 . S
C81 C80 1.399 . S
C81 C82 1.381 . S
C82 H74 0.930 . S
C82 C78 1.390 1_554 S
C82 C81 1.381 . S
N83 C76 1.286 . S
N83 C79 1.413 . S
H84 C89 0.930 . S
H85 C92 0.930 . S
H86 C94 0.930 . S
H87 C88 1.016 . S
C88 H87 1.016 . S
C88 N95 1.286 . S
C89 H84 0.930 . S
C89 C90 1.397 . S
C89 C91 1.353 1_556 S
C90 C89 1.397 . S
C90 C94 1.390 . S
C91 C89 1.353 1_554 S
C91 C92 1.400 . S
C91 N95 1.413 . S
C92 H85 0.930 . S
C92 C91 1.400 . S
C92 C93 1.399 . S
C93 C92 1.399 . S
C93 C94 1.381 1_554 S
C94 H86 0.930 . S
C94 C90 1.390 . S
C94 C93 1.381 1_556 S
N95 C88 1.286 . S
N95 C91 1.413 . S
Dy96 O100 2.398 . S
Dy96 O101 2.491 1_455 S
Dy96 O102 2.403 . S
Dy96 O103 2.664 1_565 S
Dy96 O107 2.326 . S
Dy96 O111 2.310 1_455 S
Dy96 O112 2.351 1_565 S
C97 O108 1.185 . S
C97 O109 1.355 1_655 S
C98 O100 1.185 . S
C98 O101 1.355 1_455 S
Dy99 O103 2.310 1_655 S
Dy99 O106 2.351 1_545 S
Dy99 O108 2.398 . S
Dy99 O109 2.491 1_655 S
Dy99 O110 2.403 . S
Dy99 O111 2.664 1_545 S
Dy99 O113 2.326 . S
O100 Dy96 2.398 . S
O100 C98 1.185 . S
O101 Dy96 2.491 1_655 S
O101 C98 1.355 1_655 S
O102 Dy96 2.403 . S
O102 C104 1.254 1_565 S
O103 Dy96 2.664 1_545 S
O103 Dy99 2.310 1_455 S
O103 C104 1.268 . S
C104 O102 1.254 1_545 S
C104 O103 1.268 . S
C105 O110 1.254 1_565 S
C105 O111 1.268 . S
O106 Dy99 2.351 1_565 S
O106 C114 1.249 . S
O107 Dy96 2.326 . S
O107 C114 1.267 1_455 S
O108 C97 1.185 . S
O108 Dy99 2.398 . S
O109 C97 1.355 1_455 S
O109 Dy99 2.491 1_455 S
O110 Dy99 2.403 . S
O110 C105 1.254 1_545 S
O111 Dy96 2.310 1_655 S
O111 Dy99 2.664 1_565 S
O111 C105 1.268 . S
O112 Dy96 2.351 1_545 S
O112 C115 1.249 . S
O113 Dy99 2.326 . S
O113 C115 1.267 1_655 S
C114 O106 1.249 . S
C114 O107 1.267 1_655 S
C115 O112 1.249 . S
C115 O113 1.267 1_455 S
Dy116 O120 2.398 . S
Dy116 O121 2.491 1_565 S
Dy116 O122 2.403 . S
Dy116 O123 2.664 . S
Dy116 O127 2.326 1_565 S
Dy116 O131 2.310 1_565 S
Dy116 O132 2.351 . S
C117 O128 1.185 . S
C117 O129 1.355 1_545 S
C118 O120 1.183 1_545 S
C118 O121 1.356 . S
Dy119 O123 2.310 1_545 S
Dy119 O126 2.351 . S
Dy119 O128 2.398 . S
Dy119 O129 2.491 1_545 S
Dy119 O130 2.403 . S
Dy119 O131 2.664 . S
Dy119 O133 2.326 1_545 S
O120 Dy116 2.398 . S
O120 C118 1.183 1_565 S
O121 Dy116 2.491 1_545 S
O121 C118 1.356 . S
O122 Dy116 2.403 . S
O122 C124 1.254 . S
O123 Dy116 2.664 . S
O123 Dy119 2.310 1_565 S
O123 C124 1.268 . S
C124 O122 1.254 . S
C124 O123 1.268 . S
C125 O130 1.254 . S
C125 O131 1.268 . S
O126 Dy119 2.351 . S
O126 C134 1.249 . S
O127 Dy116 2.326 1_545 S
O127 C134 1.267 . S
O128 C117 1.185 . S
O128 Dy119 2.398 . S
O129 C117 1.355 1_565 S
O129 Dy119 2.491 1_565 S
O130 Dy119 2.403 . S
O130 C125 1.254 . S
O131 Dy116 2.310 1_545 S
O131 Dy119 2.664 . S
O131 C125 1.268 . S
O132 Dy116 2.351 . S
O132 C135 1.249 . S
O133 Dy119 2.326 1_565 S
O133 C135 1.267 . S
C134 O126 1.249 . S
C134 O127 1.267 . S
C135 O132 1.249 . S
C135 O133 1.267 . S
Dy136 O140 2.398 . S
Dy136 O141 2.491 . S
Dy136 O142 2.403 . S
Dy136 O143 2.664 . S
Dy136 O147 2.326 . S
Dy136 O151 2.310 . S
Dy136 O152 2.351 . S
C137 O148 1.185 . S
C137 O149 1.355 . S
C138 O140 1.185 . S
C138 O141 1.355 . S
Dy139 O143 2.310 . S
Dy139 O146 2.351 . S
Dy139 O148 2.398 . S
Dy139 O149 2.491 . S
Dy139 O150 2.403 . S
Dy139 O151 2.664 . S
Dy139 O153 2.326 . S
O140 Dy136 2.398 . S
O140 C138 1.185 . S
O141 Dy136 2.491 . S
O141 C138 1.355 . S
O142 Dy136 2.403 . S
O142 C144 1.254 . S
O143 Dy136 2.664 . S
O143 Dy139 2.310 . S
O143 C144 1.268 . S
C144 O142 1.254 . S
C144 O143 1.268 . S
C145 O150 1.254 . S
C145 O151 1.268 . S
O146 Dy139 2.351 . S
O146 C154 1.249 . S
O147 Dy136 2.326 . S
O147 C154 1.267 . S
O148 C137 1.185 . S
O148 Dy139 2.398 . S
O149 C137 1.355 . S
O149 Dy139 2.491 . S
O150 Dy139 2.403 . S
O150 C145 1.254 . S
O151 Dy136 2.310 . S
O151 Dy139 2.664 . S
O151 C145 1.268 . S
O152 Dy136 2.351 . S
O152 C155 1.249 . S
O153 Dy139 2.326 . S
O153 C155 1.267 . S
C154 O146 1.249 . S
C154 O147 1.267 . S
C155 O152 1.249 . S
C155 O153 1.267 . S
Dy156 O160 2.398 . S
Dy156 O161 2.491 . S
Dy156 O162 2.403 . S
Dy156 O163 2.664 1_655 S
Dy156 O167 2.326 . S
Dy156 O171 2.310 . S
Dy156 O172 2.351 1_655 S
C157 O168 1.185 . S
C157 O169 1.355 . S
C158 O160 1.185 . S
C158 O161 1.355 . S
Dy159 O163 2.310 . S
Dy159 O166 2.351 1_455 S
Dy159 O168 2.398 . S
Dy159 O169 2.491 . S
Dy159 O170 2.403 . S
Dy159 O171 2.664 1_455 S
Dy159 O173 2.326 . S
O160 Dy156 2.398 . S
O160 C158 1.185 . S
O161 Dy156 2.491 . S
O161 C158 1.355 . S
O162 Dy156 2.403 . S
O162 C164 1.254 . S
O163 Dy156 2.664 1_455 S
O163 Dy159 2.310 . S
O163 C164 1.268 1_455 S
C164 O162 1.254 . S
C164 O163 1.268 1_655 S
C165 O170 1.254 . S
C165 O171 1.268 1_455 S
O166 Dy159 2.351 1_655 S
O166 C174 1.249 . S
O167 Dy156 2.326 . S
O167 C174 1.267 . S
O168 C157 1.185 . S
O168 Dy159 2.398 . S
O169 C157 1.355 . S
O169 Dy159 2.491 . S
O170 Dy159 2.403 . S
O170 C165 1.254 . S
O171 Dy156 2.310 . S
O171 Dy159 2.664 1_655 S
O171 C165 1.268 1_655 S
O172 Dy156 2.351 1_455 S
O172 C175 1.249 . S
O173 Dy159 2.326 . S
O173 C175 1.267 . S
C174 O166 1.249 . S
C174 O167 1.267 . S
C175 O172 1.249 . S
C175 O173 1.267 . S
C176 C177 1.387 . S
C176 H180 0.950 1_545 S
C176 C185 1.390 1_545 S
C177 C176 1.387 . S
C177 C179 1.387 . S
H178 C185 0.950 . S
C179 C177 1.387 . S
C179 C181 1.390 . S
C179 H183 0.950 . S
H180 C176 0.950 1_565 S
C181 C179 1.390 . S
C181 C182 1.387 . S
C181 H184 0.950 . S
C182 C181 1.387 . S
C182 C185 1.387 1_545 S
H183 C179 0.950 . S
H184 C181 0.950 . S
C185 C176 1.390 1_565 S
C185 H178 0.950 . S
C185 C182 1.387 1_565 S
C186 C187 1.387 . S
C186 H190 0.950 . S
C186 C195 1.390 . S
C187 C186 1.387 . S
C187 C189 1.387 . S
H188 C195 0.950 . S
C189 C187 1.387 . S
C189 C191 1.390 . S
C189 H193 0.950 . S
H190 C186 0.950 . S
C191 C189 1.390 . S
C191 C192 1.387 . S
C191 H194 0.950 . S
C192 C191 1.387 . S
C192 C195 1.387 . S
H193 C189 0.950 . S
H194 C191 0.950 . S
C195 C186 1.390 . S
C195 H188 0.950 . S
C195 C192 1.387 . S
C196 C197 1.387 . S
C196 H200 0.950 . S
C196 C205 1.390 . S
C197 C196 1.387 . S
C197 C199 1.387 . S
H198 C205 0.950 . S
C199 C197 1.387 . S
C199 C201 1.390 . S
C199 H203 0.950 . S
H200 C196 0.950 . S
C201 C199 1.390 . S
C201 C202 1.387 . S
C201 H204 0.950 . S
C202 C201 1.387 . S
C202 C205 1.387 . S
H203 C199 0.950 . S
H204 C201 0.950 . S
C205 C196 1.390 . S
C205 H198 0.950 . S
C205 C202 1.387 . S
C206 C207 1.389 . S
C206 H210 0.950 . S
C206 C215 1.390 . S
C207 C206 1.389 . S
C207 C209 1.386 1_655 S
H208 C215 0.950 . S
C209 C207 1.386 1_455 S
C209 C211 1.390 . S
C209 H213 0.950 . S
H210 C206 0.950 . S
C211 C209 1.390 . S
C211 C212 1.361 1_455 S
C211 H214 0.950 . S
C212 C211 1.361 1_655 S
C212 C215 1.413 . S
H213 C209 0.950 . S
H214 C211 0.950 . S
C215 C206 1.390 . S
C215 H208 0.950 . S
C215 C212 1.413 . S
C216 C217 1.387 . S
C216 H220 0.950 . S
C216 C225 1.390 . S
C217 C216 1.387 . S
C217 C219 1.387 1_565 S
H218 C225 0.950 . S
C219 C217 1.387 1_545 S
C219 C221 1.390 . S
C219 H223 0.950 . S
H220 C216 0.950 . S
C221 C219 1.390 . S
C221 C222 1.387 1_545 S
C221 H224 0.950 . S
C222 C221 1.387 1_565 S
C222 C225 1.387 . S
H223 C219 0.950 . S
H224 C221 0.950 . S
C225 C216 1.390 . S
C225 H218 0.950 . S
C225 C222 1.387 . S
C226 C227 1.387 . S
C226 H230 0.950 . S
C226 C235 1.390 . S
C227 C226 1.387 . S
C227 C229 1.387 . S
H228 C235 0.950 . S
C229 C227 1.387 . S
C229 C231 1.390 . S
C229 H233 0.949 1_556 S
H230 C226 0.950 . S
C231 C229 1.390 . S
C231 C232 1.387 . S
C231 H234 0.950 . S
C232 C231 1.387 . S
C232 C235 1.387 . S
H233 C229 0.949 1_554 S
H234 C231 0.950 . S
C235 C226 1.390 . S
C235 H228 0.950 . S
C235 C232 1.387 . S
C236 C237 1.387 . S
C236 H240 0.950 . S
C236 C245 1.390 . S
C237 C236 1.387 . S
C237 C239 1.387 . S
H238 C245 0.950 . S
C239 C237 1.387 . S
C239 C241 1.390 . S
C239 H243 0.950 . S
H240 C236 0.950 . S
C241 C239 1.390 . S
C241 C242 1.387 . S
C241 H244 0.950 . S
C242 C241 1.387 . S
C242 C245 1.387 . S
H243 C239 0.950 . S
H244 C241 0.950 . S
C245 C236 1.390 . S
C245 H238 0.950 . S
C245 C242 1.387 . S
C246 C247 1.387 1_655 S
C246 H250 0.950 . S
C246 C255 1.390 . S
C247 C246 1.387 1_455 S
C247 C249 1.388 . S
H248 C255 0.950 . S
C249 C247 1.388 . S
C249 C251 1.390 . S
C249 H253 0.950 . S
H250 C246 0.950 . S
C251 C249 1.390 . S
C251 C252 1.414 . S
C251 H254 0.950 . S
C252 C251 1.414 . S
C252 C255 1.359 1_455 S
H253 C249 0.950 . S
H254 C251 0.950 . S
C255 C246 1.390 . S
C255 H248 0.950 . S
C255 C252 1.359 1_655 S
C256 C257 1.387 . S
C256 H260 0.950 . S
C256 C265 1.390 . S
C257 C256 1.387 . S
C257 C259 1.387 1_655 S
H258 C265 0.950 . S
C259 C257 1.387 1_455 S
C259 C261 1.390 . S
C259 H263 0.950 . S
H260 C256 0.950 . S
C261 C259 1.390 . S
C261 C262 1.387 1_455 S
C261 H264 0.950 . S
C262 C261 1.387 1_655 S
C262 C265 1.387 . S
H263 C259 0.950 . S
H264 C261 0.950 . S
C265 C256 1.390 . S
C265 H258 0.950 . S
C265 C262 1.387 . S
C266 C267 1.387 . S
C266 H270 0.950 . S
C266 C275 1.390 . S
C267 C266 1.387 . S
C267 C269 1.387 . S
H268 C275 0.950 . S
C269 C267 1.387 . S
C269 C271 1.390 . S
C269 H273 0.950 . S
H270 C266 0.950 . S
C271 C269 1.390 . S
C271 C272 1.387 . S
C271 H274 0.950 . S
C272 C271 1.387 . S
C272 C275 1.387 . S
H273 C269 0.950 . S
H274 C271 0.950 . S
C275 C266 1.390 . S
C275 H268 0.950 . S
C275 C272 1.387 . S
C276 C277 1.387 . S
C276 H280 0.950 . S
C276 C285 1.390 . S
C277 C276 1.387 . S
C277 C279 1.387 . S
H278 C285 0.950 . S
C279 C277 1.387 . S
C279 C281 1.390 . S
C279 H283 0.950 . S
H280 C276 0.950 . S
C281 C279 1.390 . S
C281 C282 1.387 . S
C281 H284 0.950 . S
C282 C281 1.387 . S
C282 C285 1.387 . S
H283 C279 0.950 . S
H284 C281 0.950 . S
C285 C276 1.390 . S
C285 H278 0.950 . S
C285 C282 1.387 . S
C286 C287 1.387 . S
C286 H290 0.950 . S
C286 C295 1.390 . S
C287 C286 1.387 . S
C287 C289 1.387 . S
H288 C295 0.950 . S
C289 C287 1.387 . S
C289 C291 1.390 . S
C289 H293 0.950 . S
H290 C286 0.950 . S
C291 C289 1.390 . S
C291 C292 1.387 . S
C291 H294 0.950 . S
C292 C291 1.387 . S
C292 C295 1.387 . S
H293 C289 0.950 . S
H294 C291 0.950 . S
C295 C286 1.390 . S
C295 H288 0.950 . S
C295 C292 1.387 . S
C296 C297 1.387 1_655 S
C296 H300 0.950 . S
C296 C305 1.390 . S
C297 C296 1.387 1_455 S
C297 C299 1.387 . S
H298 C305 0.950 . S
C299 C297 1.387 . S
C299 C301 1.390 . S
C299 H303 0.950 . S
H300 C296 0.950 . S
C301 C299 1.390 . S
C301 C302 1.387 . S
C301 H304 0.950 . S
C302 C301 1.387 . S
C302 C305 1.387 1_455 S
H303 C299 0.950 . S
H304 C301 0.950 . S
C305 C296 1.390 . S
C305 H298 0.950 . S
C305 C302 1.387 1_655 S
C306 C307 1.387 1_554 S
C306 H310 0.950 . S
C306 C315 1.390 . S
C307 C306 1.387 1_556 S
C307 C309 1.387 . S
H308 C315 0.949 1_545 S
C309 C307 1.387 . S
C309 C311 1.390 . S
C309 H313 0.950 . S
H310 C306 0.950 . S
C311 C309 1.390 . S
C311 C312 1.387 . S
C311 H314 0.950 . S
C312 C311 1.387 . S
C312 C315 1.387 1_556 S
H313 C309 0.950 . S
H314 C311 0.950 . S
C315 C306 1.390 . S
C315 H308 0.949 1_565 S
C315 C312 1.387 1_554 S
C316 C317 1.387 1_554 S
C316 H320 0.950 . S
C316 C325 1.390 1_554 S
C317 C316 1.387 1_556 S
C317 C319 1.387 . S
H318 C325 0.950 . S
C319 C317 1.387 . S
C319 C321 1.390 . S
C319 H323 0.950 . S
H320 C316 0.950 . S
C321 C319 1.390 . S
C321 C322 1.387 . S
C321 H324 0.950 . S
C322 C321 1.387 . S
C322 C325 1.387 . S
H323 C319 0.950 . S
H324 C321 0.950 . S
C325 C316 1.390 1_556 S
C325 H318 0.950 . S
C325 C322 1.387 . S
C326 C327 1.387 . S
C326 H330 0.950 . S
C326 C335 1.390 . S
C327 C326 1.387 . S
C327 C329 1.387 . S
H328 C335 0.950 . S
C329 C327 1.387 . S
C329 C331 1.390 . S
C329 H333 0.950 1_556 S
H330 C326 0.950 . S
C331 C329 1.390 . S
C331 C332 1.387 . S
C331 H334 0.950 . S
C332 C331 1.387 . S
C332 C335 1.387 . S
H333 C329 0.950 1_554 S
H334 C331 0.950 . S
C335 C326 1.390 . S
C335 H328 0.950 . S
C335 C332 1.387 . S
C336 C337 1.387 1_655 S
C336 H340 0.950 . S
C336 C345 1.390 . S
C337 C336 1.387 1_455 S
C337 C339 1.387 . S
H338 C345 0.950 . S
C339 C337 1.387 . S
C339 C341 1.390 . S
C339 H343 0.950 . S
H340 C336 0.950 . S
C341 C339 1.390 . S
C341 C342 1.387 . S
C341 H344 0.950 . S
C342 C341 1.387 . S
C342 C345 1.387 1_455 S
H343 C339 0.950 . S
H344 C341 0.950 . S
C345 C336 1.390 . S
C345 H338 0.950 . S
C345 C342 1.387 1_655 S
C346 C347 1.387 . S
C346 H350 0.950 . S
C346 C355 1.390 . S
C347 C346 1.387 . S
C347 C349 1.387 . S
H348 C355 0.950 . S
C349 C347 1.387 . S
C349 C351 1.390 . S
C349 H353 0.950 1_556 S
H350 C346 0.950 . S
C351 C349 1.390 . S
C351 C352 1.387 . S
C351 H354 0.950 . S
C352 C351 1.387 . S
C352 C355 1.387 . S
H353 C349 0.950 1_554 S
H354 C351 0.950 . S
C355 C346 1.390 . S
C355 H348 0.950 . S
C355 C352 1.387 . S
C356 C357 1.387 . S
C356 H360 0.950 . S
C356 C365 1.390 . S
C357 C356 1.387 . S
C357 C359 1.387 . S
H358 C365 0.950 . S
C359 C357 1.387 . S
C359 C361 1.390 . S
C359 H363 0.950 . S
H360 C356 0.950 . S
C361 C359 1.390 . S
C361 C362 1.387 . S
C361 H364 0.950 . S
C362 C361 1.387 . S
C362 C365 1.387 . S
H363 C359 0.950 . S
H364 C361 0.950 . S
C365 C356 1.390 . S
C365 H358 0.950 . S
C365 C362 1.387 . S
C366 C367 1.387 . S
C366 H370 0.950 . S
C366 C375 1.390 . S
C367 C366 1.387 . S
C367 C369 1.387 . S
H368 C375 0.950 . S
C369 C367 1.387 . S
C369 C371 1.390 . S
C369 H373 0.950 . S
H370 C366 0.950 . S
C371 C369 1.390 . S
C371 C372 1.387 . S
C371 H374 0.950 . S
C372 C371 1.387 . S
C372 C375 1.387 . S
H373 C369 0.950 . S
H374 C371 0.950 . S
C375 C366 1.390 . S
C375 H368 0.950 . S
C375 C372 1.387 . S
C376 C377 1.387 1_455 S
C376 H380 0.950 . S
C376 C385 1.390 . S
C377 C376 1.387 1_655 S
C377 C379 1.387 . S
H378 C385 0.950 . S
C379 C377 1.387 . S
C379 C381 1.390 . S
C379 H383 0.950 . S
H380 C376 0.950 . S
C381 C379 1.390 . S
C381 C382 1.387 . S
C381 H384 0.950 . S
C382 C381 1.387 . S
C382 C385 1.387 1_655 S
H383 C379 0.950 . S
H384 C381 0.950 . S
C385 C376 1.390 . S
C385 H378 0.950 . S
C385 C382 1.387 1_455 S
C386 C387 1.387 . S
C386 H390 0.950 . S
C386 C395 1.390 . S
C387 C386 1.387 . S
C387 C389 1.387 . S
H388 C395 0.950 . S
C389 C387 1.387 . S
C389 C391 1.390 . S
C389 H393 0.950 1_565 S
H390 C386 0.950 . S
C391 C389 1.390 . S
C391 C392 1.387 . S
C391 H394 0.950 1_565 S
C392 C391 1.387 . S
C392 C395 1.387 . S
H393 C389 0.950 1_545 S
H394 C391 0.950 1_545 S
C395 C386 1.390 . S
C395 H388 0.950 . S
C395 C392 1.387 . S
C396 C397 1.387 . S
C396 H400 0.950 . S
C396 C405 1.390 . S
C397 C396 1.387 . S
C397 C399 1.387 . S
H398 C405 0.950 . S
C399 C397 1.387 . S
C399 C401 1.390 . S
C399 H403 0.950 . S
H400 C396 0.950 . S
C401 C399 1.390 . S
C401 C402 1.387 . S
C401 H404 0.950 . S
C402 C401 1.387 . S
C402 C405 1.387 . S
H403 C399 0.950 . S
H404 C401 0.950 . S
C405 C396 1.390 . S
C405 H398 0.950 . S
C405 C402 1.387 . S
C406 C407 1.387 . S
C406 H410 0.950 . S
C406 C415 1.390 . S
C407 C406 1.387 . S
C407 C409 1.387 . S
H408 C415 0.950 . S
C409 C407 1.387 . S
C409 C411 1.390 . S
C409 H413 0.950 . S
H410 C406 0.950 . S
C411 C409 1.390 . S
C411 C412 1.387 . S
C411 H414 0.950 . S
C412 C411 1.387 . S
C412 C415 1.387 . S
H413 C409 0.950 . S
H414 C411 0.950 . S
C415 C406 1.390 . S
C415 H408 0.950 . S
C415 C412 1.387 . S
C177 C76 1.634 . S
C182 C104 1.748 . S
C192 C134 1.813 . S
C187 C88 1.709 . S
C202 C144 1.675 . S
C197 C52 1.531 . S
C212 C164 1.556 . S
C207 C64 1.444 . S
C222 C105 1.750 . S
C217 C28 1.649 . S
C227 C40 1.718 1_556 S
C232 C135 1.813 . S
C237 C4 1.531 1_556 S
C242 C145 1.674 . S
C247 C16 1.443 1_456 S
C252 C165 1.558 . S
C262 C97 1.026 . S
C257 C69 1.014 1_655 S
C272 C118 0.909 . S
C267 C81 0.877 . S
C282 C137 1.161 . S
C277 C93 1.147 . S
C287 C57 0.940 . S
C292 C157 0.948 . S
C297 C21 1.009 1_556 S
C302 C98 1.026 . S
C312 C117 0.908 1_565 S
C307 C33 0.873 . S
C322 C138 1.163 . S
C317 C45 1.139 1_556 S
C327 C9 0.939 1_556 S
C332 C158 0.951 . S
C337 C66 1.548 . S
C342 C115 1.681 . S
C347 C78 1.489 . S
C352 C125 1.660 . S
C362 C155 1.857 . S
C357 C90 1.698 . S
C372 C175 1.837 . S
C367 C54 1.686 . S
C377 C18 1.559 1_655 S
C382 C114 1.681 . S
C392 C124 1.661 . S
C387 C30 1.475 . S
C402 C154 1.856 . S
C397 C42 1.689 . S
C407 C6 1.699 . S
C412 C174 1.840 . S
