# Generated by pormake.
# Topology anh, (6,3)-cn, num edge types: 1
# Building blocks:
#     Node 0, Type 0, BuildingBlock: BETDAH_clean_sbu_0, # of connection points: 6
#     Node 1, Type 0, BuildingBlock: BETDAH_clean_sbu_0, # of connection points: 6
#     Node 2, Type 0, BuildingBlock: BETDAH_clean_sbu_0, # of connection points: 6
#     Node 3, Type 1, BuildingBlock: BETDAH_clean_linker_0, # of connection points: 3
#     Node 4, Type 1, BuildingBlock: BETDAH_clean_linker_0, # of connection points: 3
#     Node 5, Type 1, BuildingBlock: BETDAH_clean_linker_0, # of connection points: 3
#     Node 6, Type 1, BuildingBlock: BETDAH_clean_linker_0, # of connection points: 3
#     Node 7, Type 1, BuildingBlock: BETDAH_clean_linker_0, # of connection points: 3
#     Node 8, Type 1, BuildingBlock: BETDAH_clean_linker_0, # of connection points: 3
#     Edge 9, Type (0, 1), BuildingBlock: ZUJKAS_clean_linker_0, # of connection points: 2
#     Edge 10, Type (0, 1), BuildingBlock: ZUJKAS_clean_linker_0, # of connection points: 2
#     Edge 11, Type (0, 1), BuildingBlock: ZUJKAS_clean_linker_0, # of connection points: 2
#     Edge 12, Type (0, 1), BuildingBlock: ZUJKAS_clean_linker_0, # of connection points: 2
#     Edge 13, Type (0, 1), BuildingBlock: ZUJKAS_clean_linker_0, # of connection points: 2
#     Edge 14, Type (0, 1), BuildingBlock: ZUJKAS_clean_linker_0, # of connection points: 2
#     Edge 15, Type (0, 1), BuildingBlock: ZUJKAS_clean_linker_0, # of connection points: 2
#     Edge 16, Type (0, 1), BuildingBlock: ZUJKAS_clean_linker_0, # of connection points: 2
#     Edge 17, Type (0, 1), BuildingBlock: ZUJKAS_clean_linker_0, # of connection points: 2
#     Edge 18, Type (0, 1), BuildingBlock: ZUJKAS_clean_linker_0, # of connection points: 2
#     Edge 19, Type (0, 1), BuildingBlock: ZUJKAS_clean_linker_0, # of connection points: 2
#     Edge 20, Type (0, 1), BuildingBlock: ZUJKAS_clean_linker_0, # of connection points: 2
#     Edge 21, Type (0, 1), BuildingBlock: ZUJKAS_clean_linker_0, # of connection points: 2
#     Edge 22, Type (0, 1), BuildingBlock: ZUJKAS_clean_linker_0, # of connection points: 2
#     Edge 23, Type (0, 1), BuildingBlock: ZUJKAS_clean_linker_0, # of connection points: 2
#     Edge 24, Type (0, 1), BuildingBlock: ZUJKAS_clean_linker_0, # of connection points: 2
#     Edge 25, Type (0, 1), BuildingBlock: ZUJKAS_clean_linker_0, # of connection points: 2
#     Edge 26, Type (0, 1), BuildingBlock: ZUJKAS_clean_linker_0, # of connection points: 2
# Relax obj value: 0.118
# Max RMSD: 0.168
# Mean RMSD: 0.105
data_MOF--net-anh--node1-BETDAH_clean_sbu_0--node2-BETDAH_clean_linker_0--edge1-ZUJKAS_clean_linker_0
_symmetry_space_group_name_H-M    P1
_symmetry_Int_Tables_number       1
_symmetry_cell_setting            triclinic
loop_
_symmetry_equiv_pos_as_xyz
'x, y, z'
_cell_length_a     40.96431
_cell_length_b     47.093188
_cell_length_c     63.990072
_cell_angle_alpha  94.58133
_cell_angle_beta   91.685113
_cell_angle_gamma 127.8827
loop_
_atom_site_label
_atom_site_type_symbol
_atom_site_fract_x
_atom_site_fract_y
_atom_site_fract_z
_atom_type_partial_charge
Ho0 Ho 0.08569 0.53766 0.14744 0.0
Ho1 Ho 0.04554 0.568 0.16876 0.0
C2 C 0.13978 0.62575 0.16042 0.0
C3 C 0.12243 0.52363 0.12148 0.0
C4 C 0.16467 0.5359 0.11963 0.0
C5 C 0.17368 0.52588 0.10084 0.0
C6 C 0.21171 0.53248 0.09974 0.0
C7 C 0.2412 0.54909 0.11751 0.0
C8 C 0.23309 0.56134 0.1359 0.0
C9 C 0.19503 0.55484 0.13694 0.0
C10 C 0.09132 0.542 0.18978 0.0
C11 C 0.99341 0.48068 0.15816 0.0
C12 C 1.00505 0.58103 0.19255 0.0
C13 C 0.96255 0.55785 0.19859 0.0
C14 C 0.95002 0.57101 0.21418 0.0
C15 C 0.90876 0.54915 0.21906 0.0
C16 C 0.87995 0.51374 0.20865 0.0
C17 C 0.89313 0.5004 0.19355 0.0
C18 C 0.93393 0.52242 0.18841 0.0
C19 C 1.04153 0.56299 0.12615 0.0
O20 O 0.13599 0.59878 0.14911 0.0
O21 O 0.11013 0.61995 0.17172 0.0
O22 O 0.10459 0.50545 0.13735 0.0
O23 O 0.1162 0.54727 0.11887 0.0
O24 O 0.08951 0.51767 0.17754 0.0
O25 O 0.09454 0.56481 0.17911 0.0
O26 O 1.00021 0.5077 0.17094 0.0
O27 O 1.01959 0.48679 0.14422 0.0
O28 O 1.00811 0.58571 0.17263 0.0
O29 O 1.02932 0.57407 0.19977 0.0
O30 O 0.04711 0.58952 0.13807 0.0
O31 O 1.0364 0.54006 0.13734 0.0
H32 H 0.15051 0.51133 0.08734 0.0
H33 H 0.21674 0.52227 0.08544 0.0
H34 H 0.25537 0.57441 0.14975 0.0
H35 H 0.18853 0.56304 0.15152 0.0
H36 H 0.97181 0.59837 0.22216 0.0
H37 H 0.89911 0.56009 0.2306 0.0
H38 H 0.87133 0.47358 0.18488 0.0
H39 H 0.94272 0.51211 0.17599 0.0
Ho40 Ho 0.63826 0.05741 0.48472 0.0
Ho41 Ho 0.58245 0.07678 0.4742 0.0
C42 C 0.53895 0.99422 0.47474 0.0
C43 C 0.67335 0.03108 0.49874 0.0
C44 C 0.66097 0.9961 0.50429 0.0
C45 C 0.63072 0.9764 0.51824 0.0
C46 C 0.62038 0.94357 0.52338 0.0
C47 C 0.63975 0.92977 0.51447 0.0
C48 C 0.66971 0.94947 0.50041 0.0
C49 C 0.68027 0.98232 0.49545 0.0
C50 C 0.63146 0.06565 0.444 0.0
C51 C 0.68342 0.14083 0.48296 0.0
C52 C 0.54782 0.10298 0.45945 0.0
C53 C 0.55227 0.13596 0.46581 0.0
C54 C 0.54064 0.14979 0.45134 0.0
C55 C 0.54461 0.18108 0.45741 0.0
C56 C 0.5602 0.19897 0.47812 0.0
C57 C 0.5721 0.18499 0.4925 0.0
C58 C 0.56839 0.15393 0.48636 0.0
C59 C 0.59123 0.07188 0.51553 0.0
O60 O 0.57307 0.00553 0.48637 0.0
O61 O 0.53796 0.01688 0.4644 0.0
O62 O 0.66768 0.03243 0.47877 0.0
O63 O 0.66369 0.04803 0.51094 0.0
O64 O 0.66578 0.07652 0.45425 0.0
O65 O 0.60199 0.04966 0.45548 0.0
O66 O 0.64687 0.13052 0.47503 0.0
O67 O 0.68751 0.11767 0.49043 0.0
O68 O 0.53135 0.07899 0.47276 0.0
O69 O 0.5802 0.10808 0.45199 0.0
O70 O 0.55762 0.06331 0.50583 0.0
O71 O 0.61955 0.0855 0.50335 0.0
H72 H 0.61514 0.98632 0.5252 0.0
H73 H 0.59699 0.92881 0.53414 0.0
H74 H 0.68559 0.93979 0.49352 0.0
H75 H 0.70377 0.99712 0.48472 0.0
H76 H 0.52848 0.13641 0.43535 0.0
H77 H 0.53578 0.19138 0.44584 0.0
H78 H 0.58365 0.19767 0.50864 0.0
H79 H 0.57779 0.14373 0.49774 0.0
Ho80 Ho 0.61154 0.59409 0.85133 0.0
Ho81 Ho 0.55299 0.5133 0.85215 0.0
C82 C 0.50988 0.55289 0.85282 0.0
C83 C 0.65105 0.65928 0.84143 0.0
C84 C 0.64459 0.68612 0.8383 0.0
C85 C 0.60457 0.67619 0.83538 0.0
C86 C 0.59933 0.70187 0.8309 0.0
C87 C 0.63406 0.73785 0.82923 0.0
C88 C 0.67408 0.74762 0.83251 0.0
C89 C 0.67923 0.72198 0.83702 0.0
C90 C 0.59993 0.5724 0.88989 0.0
C91 C 0.65519 0.555 0.85257 0.0
C92 C 0.51634 0.44783 0.8606 0.0
C93 C 0.52246 0.42026 0.85589 0.0
C94 C 0.56077 0.42769 0.86126 0.0
C95 C 0.56639 0.40174 0.85563 0.0
C96 C 0.5339 0.36795 0.84443 0.0
C97 C 0.49545 0.36042 0.83937 0.0
C98 C 0.48979 0.38628 0.8451 0.0
C99 C 0.56467 0.53365 0.81311 0.0
O100 O 0.547 0.58188 0.84834 0.0
O101 O 0.50568 0.52368 0.85728 0.0
O102 O 0.65179 0.65221 0.8607 0.0
O103 O 0.63031 0.63017 0.82768 0.0
O104 O 0.63554 0.60005 0.88492 0.0
O105 O 0.57249 0.55922 0.87468 0.0
O106 O 0.61732 0.52539 0.85554 0.0
O107 O 0.66026 0.58483 0.84872 0.0
O108 O 0.50426 0.45562 0.84439 0.0
O109 O 0.54461 0.47664 0.87369 0.0
O110 O 0.5299 0.5056 0.81838 0.0
O111 O 0.59233 0.54797 0.82842 0.0
H112 H 0.57745 0.64855 0.83623 0.0
H113 H 0.56811 0.69352 0.8287 0.0
H114 H 0.70149 0.77486 0.83102 0.0
H115 H 0.71034 0.73002 0.83906 0.0
H116 H 0.58658 0.45368 0.86956 0.0
H117 H 0.59647 0.40844 0.8596 0.0
H118 H 0.46967 0.33445 0.831 0.0
H119 H 0.45995 0.37989 0.84085 0.0
H120 H 0.51712 0.98507 0.2242 0.0
H121 H 0.61596 0.09307 0.21124 0.0
H122 H 0.52659 0.01175 0.16093 0.0
C123 C 0.53347 0.00454 0.21307 0.0
C124 C 0.51814 0.9938 0.19172 0.0
C125 C 0.56868 0.04018 0.22035 0.0
C126 C 0.58862 0.06562 0.20584 0.0
C127 C 0.57339 0.05539 0.18434 0.0
C128 C 0.53805 0.0196 0.17749 0.0
N129 N 0.59264 0.08007 0.16909 0.0
C130 C 0.62981 0.11535 0.17277 0.0
H131 H 0.58976 0.49695 0.59138 0.0
H132 H 0.61198 0.59788 0.58453 0.0
H133 H 0.59731 0.53015 0.53013 0.0
C134 C 0.59493 0.517 0.58174 0.0
C135 C 0.59375 0.51029 0.55988 0.0
C136 C 0.6018 0.54865 0.59107 0.0
C137 C 0.60598 0.57308 0.57782 0.0
C138 C 0.6036 0.56595 0.55579 0.0
C139 C 0.59795 0.53488 0.54706 0.0
N140 N 0.60759 0.58959 0.54179 0.0
C141 C 0.60677 0.61827 0.54724 0.0
H142 H 1.00668 0.55505 0.90351 0.0
H143 H 0.11161 0.55626 0.89621 0.0
H144 H 1.04333 0.55194 0.84146 0.0
C145 C 1.02715 0.55491 0.89319 0.0
C146 C 1.01974 0.55319 0.8714 0.0
C147 C 0.06001 0.55632 0.90215 0.0
C148 C 0.08658 0.55534 0.88913 0.0
C149 C 0.08159 0.55395 0.86716 0.0
C150 C 0.04792 0.55318 0.85835 0.0
N151 N 0.10942 0.55326 0.85377 0.0
C152 C 0.14411 0.55373 0.85911 0.0
H153 H 0.17395 0.62445 0.41024 0.0
H154 H 0.06483 0.52318 0.42496 0.0
H155 H 0.15064 0.60759 0.47503 0.0
C156 C 0.15534 0.60732 0.42201 0.0
C157 C 0.16756 0.62071 0.44351 0.0
C158 C 0.11869 0.57231 0.41528 0.0
C159 C 0.09316 0.55018 0.43022 0.0
C160 C 0.10477 0.56296 0.45188 0.0
C161 C 0.14175 0.59816 0.45833 0.0
N162 N 0.0804 0.54138 0.46768 0.0
C163 C 0.04528 0.50501 0.46417 0.0
H164 H 0.59002 0.11596 0.73704 0.0
H165 H 0.6198 0.04458 0.74783 0.0
H166 H 0.60037 0.09439 0.79977 0.0
C167 C 0.59662 0.1029 0.74764 0.0
C168 C 0.59488 0.10857 0.76931 0.0
C169 C 0.60627 0.08036 0.73954 0.0
C170 C 0.61198 0.06177 0.75359 0.0
C171 C 0.60898 0.06642 0.77529 0.0
C172 C 0.60108 0.0901 0.78294 0.0
N173 N 0.61474 0.0487 0.79016 0.0
C174 C 0.61786 0.0212 0.78542 0.0
H175 H 0.55651 0.40378 0.0846 0.0
H176 H 0.43201 0.36374 0.06536 0.0
H177 H 0.45638 0.3331 0.12146 0.0
C178 C 0.52378 0.3874 0.08691 0.0
C179 C 0.50975 0.3685 0.10463 0.0
C180 C 0.49593 0.38553 0.07238 0.0
C181 C 0.45376 0.36451 0.07591 0.0
C182 C 0.43955 0.34556 0.09355 0.0
C183 C 0.46733 0.34675 0.10749 0.0
N184 N 0.39861 0.32893 0.09879 0.0
C185 C 0.3833 0.34825 0.09872 0.0
H186 H 0.26696 0.52854 0.14833 0.0
H187 H 0.30997 0.50948 0.14473 0.0
H188 H 0.33695 0.5458 0.08328 0.0
H189 H 0.29338 0.56483 0.08676 0.0
H190 H 0.29848 0.47488 0.08178 0.0
H191 H 0.42826 0.54653 0.14481 0.0
H192 H 0.38035 0.53019 0.15542 0.0
H193 H 0.40119 0.56392 0.13751 0.0
C194 C 0.28354 0.53406 0.13445 0.0
C195 C 0.27645 0.54783 0.11772 0.0
C196 C 0.30832 0.5232 0.13243 0.0
C197 C 0.32683 0.52632 0.11377 0.0
C198 C 0.32297 0.54321 0.09784 0.0
H199 H 0.39946 0.39257 0.0698 0.0
H200 H 0.39059 0.43968 0.07231 0.0
C201 C 0.29799 0.55394 0.09981 0.0
C202 C 0.34237 0.50543 0.10935 0.0
H203 H 0.40223 0.48556 0.13106 0.0
C204 C 0.32195 0.4778 0.09225 0.0
C205 C 0.37265 0.50905 0.12314 0.0
C206 C 0.39713 0.5393 0.14112 0.0
C207 C 0.32916 0.45237 0.08927 0.0
C208 C 0.35801 0.45499 0.10362 0.0
C209 C 0.37984 0.48352 0.1202 0.0
C210 C 0.36433 0.42726 0.10221 0.0
C211 C 0.30422 0.42177 0.07146 0.0
C212 C 0.35288 0.40506 0.1183 0.0
C213 C 0.35793 0.37823 0.11687 0.0
C214 C 0.37441 0.3734 0.09933 0.0
C215 C 0.38601 0.39559 0.08329 0.0
C216 C 0.38107 0.42247 0.08473 0.0
H217 H 0.27753 0.41962 0.06446 0.0
H218 H 0.32454 0.42657 0.05886 0.0
H219 H 0.29222 0.39548 0.07699 0.0
H220 H 0.33993 0.40844 0.13191 0.0
H221 H 0.3495 0.36162 0.12954 0.0
H222 H 0.7653 0.17188 0.49404 0.0
H223 H 0.82677 0.2339 0.49092 0.0
H224 H 0.74807 0.25824 0.46698 0.0
H225 H 0.68656 0.19661 0.47023 0.0
H226 H 0.85204 0.26813 0.45431 0.0
H227 H 0.82477 0.34285 0.51316 0.0
H228 H 0.7977 0.29468 0.51191 0.0
H229 H 0.78152 0.31197 0.49368 0.0
C230 C 0.76098 0.19051 0.48836 0.0
C231 C 0.72083 0.17914 0.48249 0.0
C232 C 0.79621 0.22597 0.48651 0.0
C233 C 0.79211 0.25094 0.47895 0.0
C234 C 0.75209 0.23976 0.47324 0.0
H235 H 0.96512 0.4757 0.45325 0.0
H236 H 0.9034 0.41303 0.45564 0.0
C237 C 0.7169 0.20434 0.47503 0.0
C238 C 0.82962 0.2882 0.47622 0.0
H239 H 0.87831 0.37814 0.49113 0.0
C240 C 0.85792 0.29219 0.46245 0.0
C241 C 0.83722 0.31964 0.48675 0.0
C242 C 0.80894 0.31722 0.50235 0.0
C243 C 0.89311 0.32665 0.45864 0.0
C244 C 0.90075 0.35811 0.46919 0.0
C245 C 0.87244 0.3541 0.48296 0.0
C246 C 0.93824 0.39544 0.46648 0.0
C247 C 0.92123 0.329 0.44295 0.0
C248 C 0.9784 0.4065 0.47172 0.0
C249 C 1.01352 0.44214 0.47024 0.0
C250 C 1.0091 0.46738 0.46359 0.0
C251 C 0.96917 0.45647 0.45818 0.0
C252 C 0.93399 0.42079 0.45964 0.0
H253 H 0.90506 0.30353 0.43196 0.0
H254 H 0.93292 0.35185 0.43358 0.0
H255 H 0.94834 0.33362 0.45153 0.0
H256 H 0.98258 0.38783 0.47751 0.0
H257 H 1.04409 0.45022 0.47481 0.0
H258 H 0.68054 0.80957 0.84511 0.0
H259 H 0.67493 0.85499 0.83395 0.0
H260 H 0.57041 0.77331 0.78933 0.0
H261 H 0.57621 0.7277 0.80008 0.0
H262 H 0.67888 0.8728 0.79096 0.0
H263 H 0.53049 0.82442 0.82361 0.0
H264 H 0.5616 0.81176 0.83271 0.0
H265 H 0.53066 0.79119 0.80776 0.0
C266 C 0.6564 0.80121 0.83287 0.0
C267 C 0.62887 0.76496 0.82346 0.0
C268 C 0.65316 0.82719 0.82659 0.0
C269 C 0.62213 0.81743 0.81092 0.0
C270 C 0.59421 0.78125 0.80167 0.0
H271 H 0.56263 0.9531 0.76536 0.0
H272 H 0.56376 0.90191 0.76842 0.0
C273 C 0.5975 0.75522 0.80789 0.0
C274 C 0.62002 0.84552 0.8039 0.0
H275 H 0.5619 0.87497 0.80488 0.0
C276 C 0.65324 0.87324 0.79391 0.0
C277 C 0.58633 0.84574 0.80759 0.0
C278 C 0.55027 0.81688 0.81862 0.0
C279 C 0.65393 0.90151 0.78769 0.0
C280 C 0.62094 0.90249 0.79204 0.0
C281 C 0.58715 0.87418 0.80153 0.0
C282 C 0.62215 0.9338 0.78825 0.0
C283 C 0.68993 0.92995 0.77645 0.0
C284 C 0.65466 0.96865 0.79823 0.0
C285 C 0.65412 0.99771 0.79633 0.0
C286 C 0.62099 0.99231 0.78456 0.0
C287 C 0.58878 0.95777 0.77425 0.0
C288 C 0.58934 0.92863 0.77609 0.0
H289 H 0.70451 0.91922 0.76824 0.0
H290 H 0.67997 0.94008 0.76475 0.0
H291 H 0.714 0.95317 0.78817 0.0
H292 H 0.67969 0.97315 0.80815 0.0
H293 H 0.67883 0.02412 0.80473 0.0
H294 H 0.82574 0.44279 0.21565 0.0
H295 H 0.74974 0.40392 0.20925 0.0
H296 H 0.75771 0.49729 0.19866 0.0
H297 H 0.83309 0.53614 0.2058 0.0
H298 H 0.6861 0.44686 0.21535 0.0
H299 H 0.7111 0.38232 0.14741 0.0
H300 H 0.72466 0.37795 0.17322 0.0
H301 H 0.75389 0.4218 0.16411 0.0
C302 C 0.81097 0.45504 0.21267 0.0
C303 C 0.83509 0.49229 0.21091 0.0
C304 C 0.7677 0.43284 0.2089 0.0
C305 C 0.74828 0.44758 0.2028 0.0
C306 C 0.77209 0.48531 0.20322 0.0
H307 H 0.57937 0.43319 0.12286 0.0
H308 H 0.62939 0.44421 0.15066 0.0
C309 C 0.81519 0.50754 0.20734 0.0
C310 C 0.70496 0.4242 0.19284 0.0
H311 H 0.64739 0.37116 0.1468 0.0
C312 C 0.6772 0.42957 0.20063 0.0
C313 C 0.69337 0.40159 0.17358 0.0
C314 C 0.72228 0.39563 0.16394 0.0
C315 C 0.63955 0.41514 0.18892 0.0
C316 C 0.62959 0.39489 0.16903 0.0
C317 C 0.6554 0.38676 0.16211 0.0
C318 C 0.59692 0.38744 0.15366 0.0
C319 C 0.61178 0.42333 0.19731 0.0
C320 C 0.56259 0.3518 0.14594 0.0
C321 C 0.53393 0.34542 0.12998 0.0
C322 C 0.53992 0.37462 0.12129 0.0
C323 C 0.57439 0.41021 0.12909 0.0
C324 C 0.60259 0.41654 0.14515 0.0
H325 H 0.617 0.42958 0.21476 0.0
H326 H 0.61878 0.44735 0.19062 0.0
H327 H 0.5785 0.40018 0.19269 0.0
H328 H 0.5582 0.32905 0.15214 0.0
H329 H 0.50754 0.31775 0.12419 0.0
H330 H 0.52152 0.94407 0.50083 0.0
H331 H 0.45899 0.88094 0.49879 0.0
H332 H 0.40952 0.89354 0.44295 0.0
H333 H 0.4711 0.95711 0.44549 0.0
H334 H 0.35066 0.85716 0.46743 0.0
H335 H 0.43077 0.79612 0.46103 0.0
H336 H 0.4483 0.82679 0.48472 0.0
H337 H 0.45739 0.84362 0.45952 0.0
C338 C 0.49739 0.93335 0.48807 0.0
C339 C 0.50145 0.95561 0.47325 0.0
C340 C 0.46169 0.89709 0.48682 0.0
C341 C 0.4297 0.882 0.47044 0.0
C342 C 0.43369 0.90435 0.45572 0.0
H343 H 0.2413 0.65575 0.42562 0.0
H344 H 0.30303 0.71862 0.43357 0.0
C345 C 0.46902 0.94074 0.45716 0.0
C346 C 0.39179 0.84321 0.46869 0.0
H347 H 0.35886 0.75626 0.46533 0.0
C348 C 0.3525 0.8351 0.46694 0.0
C349 C 0.39397 0.81424 0.46783 0.0
C350 C 0.43484 0.82055 0.46816 0.0
C351 C 0.31554 0.79911 0.46412 0.0
C352 C 0.31771 0.77016 0.46378 0.0
C353 C 0.35701 0.7783 0.4658 0.0
C354 C 0.27993 0.73129 0.45975 0.0
C355 C 0.27472 0.79261 0.46064 0.0
C356 C 0.24629 0.71678 0.47207 0.0
C357 C 0.21013 0.68077 0.46717 0.0
C358 C 0.20706 0.65822 0.45005 0.0
C359 C 0.24175 0.6724 0.4385 0.0
C360 C 0.27748 0.70842 0.4432 0.0
H361 H 0.27908 0.81664 0.45552 0.0
H362 H 0.25301 0.76897 0.44858 0.0
H363 H 0.26009 0.78711 0.47565 0.0
H364 H 0.24776 0.73339 0.48535 0.0
H365 H 0.18423 0.67097 0.47646 0.0
H366 H 0.51029 0.32745 0.80605 0.0
H367 H 0.52027 0.28261 0.7949 0.0
H368 H 0.58177 0.30231 0.85629 0.0
H369 H 0.57225 0.34759 0.8675 0.0
H370 H 0.62327 0.29972 0.82488 0.0
H371 H 0.45654 0.18093 0.81078 0.0
H372 H 0.46947 0.21713 0.7963 0.0
H373 H 0.47437 0.22375 0.82466 0.0
C374 C 0.52555 0.32196 0.81725 0.0
C375 C 0.54016 0.34081 0.83771 0.0
C376 C 0.53115 0.29627 0.81087 0.0
C377 C 0.55097 0.28854 0.8249 0.0
C378 C 0.56615 0.30769 0.84525 0.0
H379 H 0.54709 0.10141 0.80081 0.0
H380 H 0.53804 0.14547 0.81553 0.0
C381 C 0.56081 0.33361 0.85161 0.0
C382 C 0.55675 0.26114 0.81812 0.0
H383 H 0.50438 0.17297 0.79703 0.0
C384 C 0.59727 0.27193 0.81893 0.0
C385 C 0.52275 0.22473 0.8107 0.0
C386 C 0.47832 0.21081 0.81075 0.0
C387 C 0.60479 0.24756 0.81196 0.0
C388 C 0.57094 0.21168 0.8035 0.0
C389 C 0.53035 0.20061 0.80326 0.0
C390 C 0.57693 0.18523 0.79469 0.0
C391 C 0.6489 0.26042 0.81397 0.0
C392 C 0.6013 0.19271 0.77789 0.0
C393 C 0.60692 0.16778 0.7696 0.0
C394 C 0.58784 0.1346 0.77778 0.0
C395 C 0.56276 0.12691 0.79436 0.0
C396 C 0.55734 0.15196 0.80271 0.0
H397 H 0.66884 0.28416 0.82625 0.0
H398 H 0.65009 0.23853 0.81793 0.0
H399 H 0.66222 0.26886 0.79875 0.0
H400 H 0.61595 0.21784 0.77112 0.0
H401 H 0.62674 0.17477 0.75698 0.0
H402 H 0.62504 0.87413 0.48774 0.0
H403 H 0.61477 0.81992 0.49694 0.0
H404 H 0.62241 0.85367 0.56276 0.0
H405 H 0.63234 0.90792 0.55361 0.0
H406 H 0.67065 0.81996 0.52124 0.0
H407 H 0.5202 0.74708 0.55625 0.0
H408 H 0.53803 0.78361 0.54067 0.0
H409 H 0.55878 0.79333 0.56768 0.0
C410 C 0.6242 0.86985 0.50416 0.0
C411 C 0.62965 0.89531 0.51997 0.0
C412 C 0.61822 0.83884 0.50939 0.0
C413 C 0.61752 0.83261 0.53051 0.0
C414 C 0.622 0.85755 0.54633 0.0
H415 H 0.66443 0.6849 0.56847 0.0
H416 H 0.66674 0.73821 0.56731 0.0
C417 C 0.62775 0.88855 0.54109 0.0
C418 C 0.61509 0.80133 0.5359 0.0
H419 H 0.55676 0.72312 0.55876 0.0
C420 C 0.64579 0.79882 0.52949 0.0
C421 C 0.58248 0.77371 0.54654 0.0
C422 C 0.54775 0.77425 0.55304 0.0
C423 C 0.64465 0.76931 0.53324 0.0
C424 C 0.61241 0.74191 0.54415 0.0
C425 C 0.58174 0.74444 0.55066 0.0
C426 C 0.60859 0.70925 0.54754 0.0
C427 C 0.67721 0.76713 0.52483 0.0
C428 C 0.57426 0.67511 0.53765 0.0
C429 C 0.57282 0.64481 0.53849 0.0
C430 C 0.60551 0.64824 0.54932 0.0
C431 C 0.63887 0.68186 0.56009 0.0
C432 C 0.64029 0.71221 0.55931 0.0
H433 H 0.6939 0.78587 0.51283 0.0
H434 H 0.70045 0.77469 0.538 0.0
H435 H 0.66301 0.73913 0.51766 0.0
H436 H 0.5495 0.67224 0.52851 0.0
H437 H 0.54696 0.61901 0.52998 0.0
H438 H 0.73682 0.60736 0.84307 0.0
H439 H 0.79597 0.60618 0.84385 0.0
H440 H 0.71988 0.50105 0.86541 0.0
H441 H 0.66054 0.50165 0.86389 0.0
H442 H 0.84458 0.60717 0.87035 0.0
H443 H 0.76598 0.47425 0.82315 0.0
H444 H 0.74158 0.49548 0.82601 0.0
H445 H 0.73999 0.46994 0.84609 0.0
C446 C 0.73227 0.58368 0.84783 0.0
C447 C 0.69265 0.55444 0.8532 0.0
C448 C 0.76672 0.58305 0.84834 0.0
C449 C 0.76366 0.55311 0.85419 0.0
C450 C 0.7242 0.52421 0.85998 0.0
H451 H 0.93743 0.50194 0.87795 0.0
H452 H 0.87862 0.50297 0.87304 0.0
C453 C 0.68969 0.52471 0.85932 0.0
C454 C 0.80145 0.55266 0.85471 0.0
H455 H 0.83145 0.49944 0.84156 0.0
C456 C 0.84131 0.58351 0.8638 0.0
C457 C 0.7991 0.5223 0.84628 0.0
C458 C 0.75951 0.48879 0.83464 0.0
C459 C 0.87703 0.58448 0.86526 0.0
C460 C 0.87442 0.55392 0.85716 0.0
C461 C 0.8347 0.52317 0.84795 0.0
C462 C 0.91153 0.55269 0.85875 0.0
C463 C 0.91718 0.61825 0.87628 0.0
C464 C 0.95095 0.5794 0.85181 0.0
C465 C 0.98516 0.57849 0.85435 0.0
C466 C 0.9817 0.55076 0.86392 0.0
C467 C 0.94194 0.52358 0.8702 0.0
C468 C 0.90784 0.5243 0.8675 0.0
H469 H 0.91189 0.63493 0.88658 0.0
H470 H 0.93383 0.61142 0.88601 0.0
H471 H 0.93753 0.63502 0.86431 0.0
H472 H 0.95564 0.60143 0.8445 0.0
H473 H 1.01491 0.60046 0.84959 0.0
H474 H 0.15522 0.68817 0.17813 0.0
H475 H 0.21951 0.75007 0.18015 0.0
H476 H 0.27783 0.7112 0.14703 0.0
H477 H 0.21308 0.64897 0.14451 0.0
H478 H 0.29382 0.77813 0.19975 0.0
H479 H 0.30916 0.79412 0.11485 0.0
H480 H 0.26181 0.75707 0.12435 0.0
H481 H 0.30448 0.75572 0.12191 0.0
C482 C 0.18156 0.69267 0.17112 0.0
C483 C 0.17887 0.66346 0.16115 0.0
C484 C 0.21837 0.72819 0.17229 0.0
C485 C 0.25346 0.73549 0.16351 0.0
C486 C 0.25095 0.70643 0.15349 0.0
H487 H 0.50424 0.93236 0.20202 0.0
H488 H 0.44091 0.86977 0.19389 0.0
C489 C 0.21394 0.67079 0.1522 0.0
C490 C 0.29306 0.7733 0.16596 0.0
H491 H 0.36718 0.84101 0.13882 0.0
C492 C 0.30976 0.79185 0.1864 0.0
C493 C 0.31367 0.79146 0.14855 0.0
C494 C 0.29622 0.77375 0.12616 0.0
C495 C 0.34653 0.82776 0.18994 0.0
C496 C 0.36793 0.84553 0.17259 0.0
C497 C 0.35102 0.82725 0.15211 0.0
C498 C 0.40779 0.88313 0.17559 0.0
C499 C 0.36166 0.84658 0.21225 0.0
C500 C 0.41106 0.91134 0.16714 0.0
C501 C 0.4475 0.94727 0.17165 0.0
C502 C 0.48122 0.95554 0.18472 0.0
C503 C 0.47849 0.92695 0.19226 0.0
C504 C 0.44229 0.89116 0.18765 0.0
H505 H 0.33633 0.83316 0.22279 0.0
H506 H 0.3865 0.84564 0.21849 0.0
H507 H 0.3747 0.87545 0.21289 0.0
H508 H 0.3849 0.90574 0.15768 0.0
H509 H 0.44864 0.9687 0.16564 0.0
H510 H 0.62206 0.25991 0.50434 0.0
H511 H 0.62542 0.31202 0.51699 0.0
H512 H 0.51091 0.2657 0.47896 0.0
H513 H 0.50605 0.2125 0.4671 0.0
H514 H 0.63002 0.36192 0.49611 0.0
H515 H 0.4852 0.28606 0.53607 0.0
H516 H 0.50884 0.26601 0.52673 0.0
H517 H 0.47758 0.26982 0.50866 0.0
C518 C 0.59723 0.26049 0.49888 0.0
C519 C 0.56351 0.23172 0.48488 0.0
C520 C 0.59941 0.29049 0.50599 0.0
C521 C 0.56802 0.29244 0.49924 0.0
C522 C 0.53499 0.26437 0.48477 0.0
H523 H 0.54218 0.46228 0.52542 0.0
H524 H 0.53576 0.40951 0.50978 0.0
C525 C 0.53259 0.23419 0.47777 0.0
C526 C 0.57017 0.32403 0.5073 0.0
H527 H 0.5182 0.34828 0.5342 0.0
C528 C 0.60558 0.35892 0.50445 0.0
C529 C 0.53828 0.32007 0.51825 0.0
C530 C 0.50051 0.28352 0.52281 0.0
C531 C 0.60988 0.3899 0.51219 0.0
C532 C 0.57802 0.38586 0.52306 0.0
C533 C 0.54242 0.3511 0.52573 0.0
C534 C 0.58184 0.4176 0.53243 0.0
C535 C 0.64837 0.42682 0.50868 0.0
C536 C 0.60954 0.43918 0.55041 0.0
C537 C 0.61309 0.46908 0.55941 0.0
C538 C 0.58912 0.478 0.5505 0.0
C539 C 0.56128 0.45621 0.53249 0.0
C540 C 0.55747 0.42607 0.52361 0.0
H541 H 0.66676 0.42506 0.49698 0.0
H542 H 0.6399 0.44351 0.50319 0.0
H543 H 0.66834 0.441 0.52381 0.0
H544 H 0.62836 0.43282 0.55748 0.0
H545 H 0.63506 0.48557 0.57317 0.0
H546 H 0.42738 0.49784 0.85962 0.0
H547 H 0.36801 0.49853 0.86071 0.0
H548 H 0.44686 0.61044 0.84973 0.0
H549 H 0.50587 0.60947 0.84805 0.0
H550 H 0.34424 0.52883 0.884 0.0
H551 H 0.35602 0.58074 0.80809 0.0
H552 H 0.38696 0.56735 0.81585 0.0
H553 H 0.40272 0.61157 0.82545 0.0
C554 C 0.43235 0.5227 0.85724 0.0
C555 C 0.47248 0.5535 0.85351 0.0
C556 C 0.39781 0.52311 0.85793 0.0
C557 C 0.40117 0.55428 0.85484 0.0
C558 C 0.44153 0.58527 0.85147 0.0
H559 H 0.22648 0.61019 0.85529 0.0
H560 H 0.28643 0.61 0.8548 0.0
C561 C 0.47604 0.58483 0.85069 0.0
C562 C 0.3632 0.55439 0.85565 0.0
H563 H 0.30976 0.5792 0.83039 0.0
C564 C 0.33691 0.53973 0.87207 0.0
C565 C 0.35203 0.56843 0.8404 0.0
C566 C 0.37561 0.58257 0.82135 0.0
C567 C 0.30191 0.53949 0.87393 0.0
C568 C 0.29084 0.55364 0.85872 0.0
C569 C 0.31712 0.5683 0.84231 0.0
C570 C 0.25285 0.55369 0.85953 0.0
C571 C 0.27797 0.52499 0.89284 0.0
C572 C 0.21223 0.5223 0.86218 0.0
C573 C 0.1775 0.5225 0.86258 0.0
C574 C 0.18135 0.55406 0.8603 0.0
C575 C 0.22169 0.58534 0.85746 0.0
C576 C 0.25642 0.58514 0.85704 0.0
H577 H 0.29723 0.52636 0.90609 0.0
H578 H 0.26672 0.54025 0.89843 0.0
H579 H 0.25072 0.49609 0.88849 0.0
H580 H 0.20685 0.497 0.86349 0.0
H581 H 0.14723 0.49751 0.86436 0.0
H582 H 0.93503 0.4579 0.18625 0.0
H583 H 0.87414 0.39605 0.18954 0.0
H584 H 0.90522 0.35577 0.13733 0.0
H585 H 0.96643 0.41774 0.13388 0.0
H586 H 0.80592 0.34499 0.16041 0.0
H587 H 0.8922 0.29466 0.18328 0.0
H588 H 0.91703 0.34232 0.18362 0.0
H589 H 0.90558 0.31481 0.15917 0.0
C590 C 0.92895 0.43603 0.17536 0.0
C591 C 0.95578 0.44297 0.15977 0.0
C592 C 0.89407 0.40056 0.17731 0.0
C593 C 0.88538 0.37114 0.16391 0.0
C594 C 0.91173 0.37795 0.14814 0.0
H595 H 0.69103 0.13821 0.14774 0.0
H596 H 0.75323 0.20086 0.14639 0.0
C597 C 0.9466 0.41347 0.14613 0.0
C598 C 0.84846 0.33346 0.16629 0.0
H599 H 0.819 0.25072 0.17611 0.0
C600 C 0.80877 0.32441 0.16395 0.0
C601 C 0.85218 0.30661 0.17095 0.0
C602 C 0.89403 0.31505 0.17461 0.0
C603 C 0.77268 0.28909 0.1656 0.0
C604 C 0.77638 0.26217 0.17016 0.0
C605 C 0.81612 0.27131 0.17264 0.0
C606 C 0.73937 0.22409 0.17175 0.0
C607 C 0.73086 0.28069 0.16182 0.0
C608 C 0.71127 0.21609 0.18678 0.0
C609 C 0.67572 0.18026 0.18754 0.0
C610 C 0.66804 0.15196 0.17343 0.0
C611 C 0.69655 0.15972 0.15883 0.0
C612 C 0.732 0.19546 0.15804 0.0
H613 H 0.73287 0.30133 0.15335 0.0
H614 H 0.70806 0.25363 0.15256 0.0
H615 H 0.71894 0.28048 0.1772 0.0
H616 H 0.71669 0.23756 0.19782 0.0
H617 H 0.654 0.17476 0.19892 0.0
H618 H 1.0327 0.50957 0.09993 0.0
H619 H 1.04169 0.50858 0.06226 0.0
H620 H 0.06605 0.61173 0.06278 0.0
H621 H 0.05843 0.61335 0.10059 0.0
H622 H 0.99955 0.50821 0.02924 0.0
H623 H 0.16352 0.63167 0.03447 0.0
H624 H 0.13856 0.61045 0.05736 0.0
H625 H 0.13095 0.64033 0.04649 0.0
C626 C 1.04023 0.53214 0.09202 0.0
C627 C 0.04529 0.56173 0.10322 0.0
C628 C 0.04533 0.53153 0.07049 0.0
C629 C 0.05547 0.56045 0.05972 0.0
C630 C 0.05947 0.5896 0.07082 0.0
H631 H 0.06366 0.60342 0.93166 0.0
H632 H 0.06534 0.60342 0.96993 0.0
C633 C 0.05469 0.59034 0.09239 0.0
C634 C 0.06046 0.55955 0.03676 0.0
H635 H 0.12622 0.60863 8e-05 0.0
C636 C 1.02746 0.52996 0.0229 0.0
C637 C 0.09701 0.58782 0.02845 0.0
C638 C 0.13468 0.61916 0.04249 0.0
C639 C 1.02937 0.52856 0.00097 0.0
C640 C 0.06531 0.55739 0.99267 0.0
C641 C 0.09866 0.5866 0.0065 0.0
C642 C 0.06762 0.55872 0.96962 0.0
C643 C 0.99238 0.49688 0.98674 0.0
C644 C 0.06944 0.53416 0.95679 0.0
C645 C 0.06873 0.53424 0.93487 0.0
C646 C 0.06583 0.5587 0.92546 0.0
C647 C 0.06548 0.58403 0.93846 0.0
C648 C 0.06656 0.58414 0.96031 0.0
H649 H 0.96476 0.47943 0.99545 0.0
H650 H 0.98406 0.5066 0.97393 0.0
H651 H 1.00042 0.48005 0.97932 0.0
H652 H 0.07067 0.51455 0.96372 0.0
H653 H 0.06888 0.51435 0.92523 0.0
H654 H 0.69373 0.11043 0.42048 0.0
H655 H 0.68831 0.11537 0.383 0.0
H656 H 0.55514 0.0334 0.37942 0.0
H657 H 0.5604 0.02969 0.41721 0.0
H658 H 0.66438 0.0673 0.35133 0.0
H659 H 0.56051 0.10476 0.34723 0.0
H660 H 0.58383 0.10584 0.37194 0.0
H661 H 0.53707 0.06388 0.3591 0.0
C662 C 0.66326 0.09384 0.41172 0.0
C663 C 0.62748 0.06965 0.42166 0.0
C664 C 0.66017 0.09667 0.39031 0.0
C665 C 0.62127 0.07513 0.37835 0.0
C666 C 0.5854 0.05109 0.38836 0.0
H667 H 0.57388 1.00005 0.24678 0.0
H668 H 0.58996 0.01245 0.28484 0.0
C669 C 0.58843 0.04872 0.40991 0.0
C670 C 0.61876 0.07584 0.35517 0.0
H671 H 0.56721 0.08068 0.31442 0.0
C672 C 0.6435 0.07072 0.34333 0.0
C673 C 0.59217 0.081 0.34464 0.0
C674 C 0.56727 0.08958 0.35643 0.0
C675 C 0.64128 0.06925 0.32131 0.0
C676 C 0.61246 0.07171 0.31067 0.0
C677 C 0.58893 0.07831 0.32252 0.0
C678 C 0.60447 0.0653 0.28732 0.0
C679 C 0.67003 0.0652 0.30973 0.0
C680 C 0.60635 0.09052 0.27594 0.0
C681 C 0.59615 0.08308 0.25406 0.0
C682 C 0.58366 0.05017 0.2432 0.0
C683 C 0.58283 0.02546 0.25463 0.0
C684 C 0.59262 0.03274 0.27642 0.0
H685 H 0.69911 0.07685 0.31986 0.0
H686 H 0.65445 0.03595 0.30532 0.0
H687 H 0.67839 0.07866 0.29518 0.0
H688 H 0.61517 0.11575 0.28403 0.0
H689 H 0.59668 0.10252 0.24578 0.0
H690 H 0.51388 0.49018 0.77792 0.0
H691 H 0.52655 0.50034 0.74134 0.0
H692 H 0.64419 0.60502 0.76175 0.0
H693 H 0.63354 0.59284 0.79837 0.0
H694 H 0.53188 0.54323 0.71901 0.0
H695 H 0.68486 0.57195 0.72011 0.0
H696 H 0.65455 0.5567 0.74226 0.0
H697 H 0.6864 0.60387 0.7382 0.0
C698 C 0.54268 0.51522 0.77461 0.0
C699 C 0.5726 0.54087 0.79104 0.0
C700 C 0.54985 0.52114 0.75363 0.0
C701 C 0.58665 0.55332 0.74854 0.0
C702 C 0.61614 0.57946 0.76504 0.0
H703 H 0.57952 0.58522 0.61476 0.0
H704 H 0.58125 0.59356 0.65293 0.0
C705 C 0.60966 0.57285 0.78607 0.0
C706 C 0.59322 0.55912 0.72596 0.0
H707 H 0.6616 0.58142 0.68915 0.0
C708 C 0.56021 0.55133 0.71249 0.0
C709 C 0.6301 0.56964 0.71728 0.0
C710 C 0.66577 0.57564 0.73018 0.0
C711 C 0.56215 0.55213 0.69066 0.0
C712 C 0.5994 0.56353 0.68205 0.0
C713 C 0.63308 0.57285 0.69565 0.0
C714 C 0.60295 0.56275 0.65889 0.0
C715 C 0.52327 0.53864 0.67709 0.0
C716 C 0.6178 0.54527 0.64944 0.0
C717 C 0.61917 0.54228 0.62768 0.0
C718 C 0.60438 0.55558 0.61455 0.0
C719 C 0.59107 0.57442 0.62413 0.0
C720 C 0.59117 0.57857 0.64607 0.0
H721 H 0.49493 0.52104 0.6853 0.0
H722 H 0.52501 0.56214 0.67341 0.0
H723 H 0.51961 0.52295 0.66209 0.0
H724 H 0.62769 0.5332 0.65886 0.0
H725 H 0.63149 0.52904 0.62123 0.0
H726 H 0.65873 0.08668 0.53846 0.0
H727 H 0.66515 0.08086 0.57572 0.0
H728 H 0.54434 0.05338 0.58178 0.0
H729 H 0.53626 0.05547 0.5442 0.0
H730 H 0.67135 0.11469 0.60906 0.0
H731 H 0.5272 0.97681 0.61152 0.0
H732 H 0.54514 0.99478 0.58694 0.0
H733 H 0.51384 1.00307 0.60129 0.0
C734 C 0.63311 0.07828 0.54762 0.0
C735 C 0.59653 0.07043 0.53827 0.0
C736 C 0.6369 0.07533 0.56902 0.0
C737 C 0.60464 0.06545 0.58162 0.0
C738 C 0.56888 0.05925 0.57237 0.0
H739 H 0.63635 0.13267 0.71296 0.0
H740 H 0.63777 0.12641 0.67521 0.0
C741 C 0.56455 0.06101 0.55088 0.0
C742 C 0.60923 0.06384 0.60464 0.0
H743 H 0.55509 0.01641 0.64475 0.0
C744 C 0.64612 0.09278 0.61676 0.0
C745 C 0.57716 0.03481 0.61488 0.0
C746 C 0.53891 1.00047 0.60288 0.0
C747 C 0.65083 0.0945 0.63876 0.0
C748 C 0.61683 0.06763 0.64918 0.0
C749 C 0.58092 0.0376 0.63698 0.0
C750 C 0.61675 0.07125 0.67255 0.0
C751 C 0.69247 0.12506 0.65044 0.0
C752 C 0.60255 0.0418 0.68386 0.0
C753 C 0.59947 0.04465 0.70558 0.0
C754 C 0.61096 0.07718 0.71655 0.0
C755 C 0.62615 0.10681 0.70519 0.0
C756 C 0.62809 0.1036 0.68349 0.0
H757 H 0.7181 0.13286 0.64061 0.0
H758 H 0.69387 0.14927 0.65393 0.0
H759 H 0.69803 0.11764 0.66543 0.0
H760 H 0.59327 0.01637 0.67585 0.0
H761 H 0.58714 0.02104 0.7136 0.0
H762 H 0.52647 0.51491 0.90132 0.0
H763 H 0.51371 0.48789 0.93404 0.0
H764 H 0.64303 0.569 0.95707 0.0
H765 H 0.65628 0.59559 0.92387 0.0
H766 H 0.61459 0.50123 0.96358 0.0
H767 H 0.50471 0.524 0.99111 0.0
H768 H 0.48846 0.50029 0.96496 0.0
H769 H 0.53621 0.546 0.96995 0.0
C770 C 0.55218 0.5271 0.91338 0.0
C771 C 0.59236 0.55735 0.91011 0.0
C772 C 0.54476 0.51181 0.93216 0.0
C773 C 0.57722 0.52687 0.94819 0.0
C774 C 0.61747 0.55715 0.94496 0.0
H775 H 0.56768 0.45482 0.07161 0.0
H776 H 0.59074 0.49081 0.04205 0.0
C777 C 0.62499 0.57234 0.92605 0.0
C778 C 0.56918 0.50987 0.96788 0.0
H779 H 0.50506 0.47986 0.00733 0.0
C780 C 0.59109 0.49703 0.97332 0.0
C781 C 0.53863 0.50457 0.98065 0.0
C782 C 0.51599 0.51979 0.9765 0.0
C783 C 0.58197 0.47768 0.99069 0.0
C784 C 0.55022 0.47108 0.00282 0.0
C785 C 0.52914 0.48475 -0.00221 0.0
C786 C 0.53743 0.44894 0.02041 0.0
C787 C 0.60528 0.46336 0.99563 0.0
C788 C 0.49993 0.41354 0.0179 0.0
C789 C 0.48689 0.39271 0.03462 0.0
C790 C 0.51096 0.40707 0.05426 0.0
C791 C 0.54873 0.44263 0.05663 0.0
C792 C 0.56186 0.46335 0.03982 0.0
H793 H 0.62657 0.46809 0.98357 0.0
H794 H 0.62388 0.4769 0.01116 0.0
H795 H 0.58302 0.43382 -0.00326 0.0
H796 H 0.48073 0.40204 0.00298 0.0
H797 H 0.45795 0.36532 0.03215 0.0
H798 H 0.10165 0.59449 0.21783 0.0
H799 H 0.10009 0.59564 0.25612 0.0
H800 H 0.08137 0.49458 0.25223 0.0
H801 H 0.081 0.49252 0.21387 0.0
H802 H 1.03197 0.49503 0.27909 0.0
H803 H 0.19374 0.62188 0.29705 0.0
H804 H 0.16124 0.62715 0.28129 0.0
H805 H 0.17283 0.59795 0.27081 0.0
C806 C 0.09684 0.57239 0.22515 0.0
C807 C 0.09135 0.54338 0.21291 0.0
C808 C 0.09637 0.57324 0.24704 0.0
C809 C 0.09128 0.54548 0.25711 0.0
C810 C 0.08543 0.51633 0.24483 0.0
H811 H 0.1648 0.56652 0.38854 0.0
H812 H 0.15409 0.55575 0.35005 0.0
C813 C 0.08546 0.51529 0.22294 0.0
C814 C 0.09255 0.54689 0.28043 0.0
H815 H 0.15378 0.59863 0.32595 0.0
C816 C 0.05863 0.51764 0.28936 0.0
C817 C 0.12755 0.57617 0.29382 0.0
C818 C 0.16607 0.60739 0.28528 0.0
C819 C 0.05874 0.51692 0.3113 0.0
C820 C 0.09334 0.54665 0.32468 0.0
C821 C 0.12716 0.57588 0.31572 0.0
C822 C 0.09615 0.54796 0.34801 0.0
C823 C 1.02232 0.48395 0.31986 0.0
C824 C 0.06656 0.54616 0.35977 0.0
C825 C 0.07234 0.55168 0.38185 0.0
C826 C 0.10814 0.5597 0.39242 0.0
C827 C 0.1369 0.56025 0.38069 0.0
C828 C 0.13087 0.55427 0.35873 0.0
H829 H 1.00449 0.45989 0.30767 0.0
H830 H 1.03269 0.47728 0.33355 0.0
H831 H 1.00096 0.48948 0.32513 0.0
H832 H 1.04 0.54213 0.3519 0.0
H833 H 0.05012 0.55169 0.3906 0.0
loop_
_geom_bond_atom_site_label_1
_geom_bond_atom_site_label_2
_geom_bond_distance
_geom_bond_site_symmetry_2
_ccdc_geom_bond_type
Ho0 C3 2.811 . S
Ho0 O20 2.322 . S
Ho0 O22 2.378 . S
Ho0 O23 2.524 . S
Ho0 O24 2.381 . S
Ho0 O25 2.669 . S
Ho0 O27 2.346 1_455 S
Ho0 O31 2.305 . S
Ho1 C12 2.811 1_455 S
Ho1 O21 2.346 . S
Ho1 O25 2.305 . S
Ho1 O26 2.322 1_455 S
Ho1 O28 2.378 1_455 S
Ho1 O29 2.524 1_455 S
Ho1 O30 2.381 . S
Ho1 O31 2.669 . S
C2 O20 1.259 . S
C2 O21 1.268 . S
C3 Ho0 2.811 . S
C3 C4 1.488 . S
C3 O22 1.215 . S
C3 O23 1.289 . S
C4 C3 1.488 . S
C4 C5 1.348 . S
C4 C9 1.413 . S
C5 C4 1.348 . S
C5 C6 1.442 . S
C5 H32 0.930 . S
C6 C5 1.442 . S
C6 C7 1.381 . S
C6 H33 0.931 . S
C7 C6 1.381 . S
C7 C8 1.321 . S
C8 C7 1.321 . S
C8 C9 1.403 . S
C8 H34 0.934 . S
C9 C4 1.413 . S
C9 C8 1.403 . S
C9 H35 0.930 . S
C10 O24 1.275 . S
C10 O25 1.256 . S
C11 O26 1.259 . S
C11 O27 1.268 . S
C12 Ho1 2.811 1_655 S
C12 C13 1.488 . S
C12 O28 1.215 . S
C12 O29 1.289 . S
C13 C12 1.488 . S
C13 C14 1.348 . S
C13 C18 1.413 . S
C14 C13 1.348 . S
C14 C15 1.442 . S
C14 H36 0.930 . S
C15 C14 1.442 . S
C15 C16 1.381 . S
C15 H37 0.931 . S
C16 C15 1.381 . S
C16 C17 1.321 . S
C17 C16 1.321 . S
C17 C18 1.403 . S
C17 H38 0.934 . S
C18 C13 1.413 . S
C18 C17 1.403 . S
C18 H39 0.930 . S
C19 O30 1.275 . S
C19 O31 1.256 . S
O20 Ho0 2.322 . S
O20 C2 1.259 . S
O21 Ho1 2.346 . S
O21 C2 1.268 . S
O22 Ho0 2.378 . S
O22 C3 1.215 . S
O23 Ho0 2.524 . S
O23 C3 1.289 . S
O24 Ho0 2.381 . S
O24 C10 1.275 . S
O25 Ho0 2.669 . S
O25 Ho1 2.305 . S
O25 C10 1.256 . S
O26 Ho1 2.322 1_655 S
O26 C11 1.259 . S
O27 Ho0 2.346 1_655 S
O27 C11 1.268 . S
O28 Ho1 2.378 1_655 S
O28 C12 1.215 . S
O29 Ho1 2.524 1_655 S
O29 C12 1.289 . S
O30 Ho1 2.381 . S
O30 C19 1.275 . S
O31 Ho0 2.305 . S
O31 Ho1 2.669 . S
O31 C19 1.256 . S
H32 C5 0.930 . S
H33 C6 0.931 . S
H34 C8 0.934 . S
H35 C9 0.930 . S
H36 C14 0.930 . S
H37 C15 0.931 . S
H38 C17 0.934 . S
H39 C18 0.930 . S
Ho40 C43 2.811 1_545 S
Ho40 O60 2.322 1_545 S
Ho40 O62 2.378 1_545 S
Ho40 O63 2.524 1_545 S
Ho40 O64 2.381 . S
Ho40 O65 2.669 . S
Ho40 O67 2.346 . S
Ho40 O71 2.305 . S
Ho41 C52 2.811 . S
Ho41 O61 2.346 1_545 S
Ho41 O65 2.305 . S
Ho41 O66 2.322 . S
Ho41 O68 2.378 . S
Ho41 O69 2.524 . S
Ho41 O70 2.381 . S
Ho41 O71 2.669 . S
C42 O60 1.259 . S
C42 O61 1.268 . S
C43 Ho40 2.811 1_565 S
C43 C44 1.488 . S
C43 O62 1.215 . S
C43 O63 1.289 . S
C44 C43 1.488 . S
C44 C45 1.348 . S
C44 C49 1.413 . S
C45 C44 1.348 . S
C45 C46 1.442 . S
C45 H72 0.930 . S
C46 C45 1.442 . S
C46 C47 1.381 . S
C46 H73 0.931 . S
C47 C46 1.381 . S
C47 C48 1.321 . S
C48 C47 1.321 . S
C48 C49 1.403 . S
C48 H74 0.934 . S
C49 C44 1.413 . S
C49 C48 1.403 . S
C49 H75 0.930 . S
C50 O64 1.275 . S
C50 O65 1.256 . S
C51 O66 1.259 . S
C51 O67 1.268 . S
C52 Ho41 2.811 . S
C52 C53 1.488 . S
C52 O68 1.215 . S
C52 O69 1.289 . S
C53 C52 1.488 . S
C53 C54 1.348 . S
C53 C58 1.413 . S
C54 C53 1.348 . S
C54 C55 1.442 . S
C54 H76 0.930 . S
C55 C54 1.442 . S
C55 C56 1.381 . S
C55 H77 0.931 . S
C56 C55 1.381 . S
C56 C57 1.321 . S
C57 C56 1.321 . S
C57 C58 1.403 . S
C57 H78 0.934 . S
C58 C53 1.413 . S
C58 C57 1.403 . S
C58 H79 0.930 . S
C59 O70 1.275 . S
C59 O71 1.256 . S
O60 Ho40 2.322 1_565 S
O60 C42 1.259 . S
O61 Ho41 2.346 1_565 S
O61 C42 1.268 . S
O62 Ho40 2.378 1_565 S
O62 C43 1.215 . S
O63 Ho40 2.524 1_565 S
O63 C43 1.289 . S
O64 Ho40 2.381 . S
O64 C50 1.275 . S
O65 Ho40 2.669 . S
O65 Ho41 2.305 . S
O65 C50 1.256 . S
O66 Ho41 2.322 . S
O66 C51 1.259 . S
O67 Ho40 2.346 . S
O67 C51 1.268 . S
O68 Ho41 2.378 . S
O68 C52 1.215 . S
O69 Ho41 2.524 . S
O69 C52 1.289 . S
O70 Ho41 2.381 . S
O70 C59 1.275 . S
O71 Ho40 2.305 . S
O71 Ho41 2.669 . S
O71 C59 1.256 . S
H72 C45 0.930 . S
H73 C46 0.931 . S
H74 C48 0.934 . S
H75 C49 0.930 . S
H76 C54 0.930 . S
H77 C55 0.931 . S
H78 C57 0.934 . S
H79 C58 0.930 . S
Ho80 C83 2.811 . S
Ho80 O100 2.322 . S
Ho80 O102 2.378 . S
Ho80 O103 2.524 . S
Ho80 O104 2.381 . S
Ho80 O105 2.669 . S
Ho80 O107 2.346 . S
Ho80 O111 2.305 . S
Ho81 C92 2.811 . S
Ho81 O101 2.346 . S
Ho81 O105 2.305 . S
Ho81 O106 2.322 . S
Ho81 O108 2.378 . S
Ho81 O109 2.524 . S
Ho81 O110 2.381 . S
Ho81 O111 2.669 . S
C82 O100 1.259 . S
C82 O101 1.268 . S
C83 Ho80 2.811 . S
C83 C84 1.488 . S
C83 O102 1.215 . S
C83 O103 1.289 . S
C84 C83 1.488 . S
C84 C85 1.348 . S
C84 C89 1.413 . S
C85 C84 1.348 . S
C85 C86 1.442 . S
C85 H112 0.930 . S
C86 C85 1.442 . S
C86 C87 1.381 . S
C86 H113 0.931 . S
C87 C86 1.381 . S
C87 C88 1.321 . S
C88 C87 1.321 . S
C88 C89 1.403 . S
C88 H114 0.934 . S
C89 C84 1.413 . S
C89 C88 1.403 . S
C89 H115 0.930 . S
C90 O104 1.275 . S
C90 O105 1.256 . S
C91 O106 1.259 . S
C91 O107 1.268 . S
C92 Ho81 2.811 . S
C92 C93 1.488 . S
C92 O108 1.215 . S
C92 O109 1.289 . S
C93 C92 1.488 . S
C93 C94 1.348 . S
C93 C98 1.413 . S
C94 C93 1.348 . S
C94 C95 1.442 . S
C94 H116 0.930 . S
C95 C94 1.442 . S
C95 C96 1.381 . S
C95 H117 0.931 . S
C96 C95 1.381 . S
C96 C97 1.321 . S
C97 C96 1.321 . S
C97 C98 1.403 . S
C97 H118 0.934 . S
C98 C93 1.413 . S
C98 C97 1.403 . S
C98 H119 0.930 . S
C99 O110 1.275 . S
C99 O111 1.256 . S
O100 Ho80 2.322 . S
O100 C82 1.259 . S
O101 Ho81 2.346 . S
O101 C82 1.268 . S
O102 Ho80 2.378 . S
O102 C83 1.215 . S
O103 Ho80 2.524 . S
O103 C83 1.289 . S
O104 Ho80 2.381 . S
O104 C90 1.275 . S
O105 Ho80 2.669 . S
O105 Ho81 2.305 . S
O105 C90 1.256 . S
O106 Ho81 2.322 . S
O106 C91 1.259 . S
O107 Ho80 2.346 . S
O107 C91 1.268 . S
O108 Ho81 2.378 . S
O108 C92 1.215 . S
O109 Ho81 2.524 . S
O109 C92 1.289 . S
O110 Ho81 2.381 . S
O110 C99 1.275 . S
O111 Ho80 2.305 . S
O111 Ho81 2.669 . S
O111 C99 1.256 . S
H112 C85 0.930 . S
H113 C86 0.931 . S
H114 C88 0.934 . S
H115 C89 0.930 . S
H116 C94 0.930 . S
H117 C95 0.931 . S
H118 C97 0.934 . S
H119 C98 0.930 . S
H120 C123 0.929 1_565 S
H121 C126 0.929 . S
H122 C128 0.930 . S
C123 H120 0.929 1_545 S
C123 C124 1.398 . S
C123 C125 1.396 . S
C124 C123 1.398 . S
C124 C128 1.407 . S
C125 C123 1.396 . S
C125 C126 1.394 . S
C126 H121 0.929 . S
C126 C125 1.394 . S
C126 C127 1.382 . S
C127 C126 1.382 . S
C127 C128 1.392 . S
C127 N129 1.420 . S
C128 H122 0.930 . S
C128 C124 1.407 . S
C128 C127 1.392 . S
N129 C127 1.420 . S
N129 C130 1.244 . S
C130 N129 1.244 . S
H131 C134 0.929 . S
H132 C137 0.929 . S
H133 C139 0.930 . S
C134 H131 0.929 . S
C134 C135 1.398 . S
C134 C136 1.396 . S
C135 C134 1.398 . S
C135 C139 1.407 . S
C136 C134 1.396 . S
C136 C137 1.394 . S
C137 H132 0.929 . S
C137 C136 1.394 . S
C137 C138 1.382 . S
C138 C137 1.382 . S
C138 C139 1.392 . S
C138 N140 1.420 . S
C139 H133 0.930 . S
C139 C135 1.407 . S
C139 C138 1.392 . S
N140 C138 1.420 . S
N140 C141 1.244 . S
C141 N140 1.244 . S
H142 C145 0.929 . S
H143 C148 0.929 . S
H144 C150 0.930 . S
C145 H142 0.929 . S
C145 C146 1.398 . S
C145 C147 1.396 . S
C146 C145 1.398 . S
C146 C150 1.407 . S
C147 C145 1.396 . S
C147 C148 1.394 . S
C148 H143 0.929 . S
C148 C147 1.394 . S
C148 C149 1.382 . S
C149 C148 1.382 . S
C149 C150 1.392 . S
C149 N151 1.420 . S
C150 H144 0.930 . S
C150 C146 1.407 . S
C150 C149 1.392 . S
N151 C149 1.420 . S
N151 C152 1.244 . S
C152 N151 1.244 . S
H153 C156 0.929 . S
H154 C159 0.929 . S
H155 C161 0.930 . S
C156 H153 0.929 . S
C156 C157 1.398 . S
C156 C158 1.396 . S
C157 C156 1.398 . S
C157 C161 1.407 . S
C158 C156 1.396 . S
C158 C159 1.394 1_455 S
C159 H154 0.929 . S
C159 C158 1.394 1_655 S
C159 C160 1.382 . S
C160 C159 1.382 . S
C160 C161 1.392 1_655 S
C160 N162 1.420 . S
C161 H155 0.930 . S
C161 C157 1.407 . S
C161 C160 1.392 1_455 S
N162 C160 1.420 . S
N162 C163 1.244 . S
C163 N162 1.244 . S
H164 C167 0.929 . S
H165 C170 0.904 1_565 S
H166 C172 0.930 . S
C167 H164 0.929 . S
C167 C168 1.398 . S
C167 C169 1.396 . S
C168 C167 1.398 . S
C168 C172 1.407 . S
C169 C167 1.396 . S
C169 C170 1.394 . S
C170 H165 0.904 1_545 S
C170 C169 1.394 . S
C170 C171 1.382 . S
C171 C170 1.382 . S
C171 C172 1.392 . S
C171 N173 1.420 . S
C172 H166 0.930 . S
C172 C168 1.407 . S
C172 C171 1.392 . S
N173 C171 1.420 . S
N173 C174 1.244 1_545 S
C174 N173 1.244 1_565 S
H175 C178 0.929 . S
H176 C181 0.929 . S
H177 C183 0.930 . S
C178 H175 0.929 . S
C178 C179 1.398 . S
C178 C180 1.396 . S
C179 C178 1.398 . S
C179 C183 1.407 . S
C180 C178 1.396 . S
C180 C181 1.394 . S
C181 H176 0.929 . S
C181 C180 1.394 . S
C181 C182 1.382 . S
C182 C181 1.382 . S
C182 C183 1.392 . S
C182 N184 1.420 . S
C183 H177 0.930 . S
C183 C179 1.407 . S
C183 C182 1.392 . S
N184 C182 1.420 . S
N184 C185 1.244 . S
C185 N184 1.244 . S
H186 C194 0.929 . S
H187 C196 0.930 . S
H188 C198 0.930 . S
H189 C201 0.929 . S
H190 C204 0.930 . S
H191 C206 0.960 . S
H192 C206 0.960 . S
H193 C206 0.960 . S
C194 H186 0.929 . S
C194 C195 1.377 . S
C194 C196 1.384 . S
C195 C194 1.377 . S
C195 C201 1.390 . S
C196 H187 0.930 . S
C196 C194 1.384 . S
C196 C197 1.372 . S
C197 C196 1.372 . S
C197 C198 1.400 . S
C197 C202 1.490 . S
C198 H188 0.930 . S
C198 C197 1.400 . S
C198 C201 1.386 . S
H199 C215 0.930 . S
H200 C216 0.931 . S
C201 H189 0.929 . S
C201 C195 1.390 . S
C201 C198 1.386 . S
C202 C197 1.490 . S
C202 C204 1.395 . S
C202 C205 1.403 . S
H203 C209 0.930 . S
C204 H190 0.930 . S
C204 C202 1.395 . S
C204 C207 1.403 . S
C205 C202 1.403 . S
C205 C206 1.524 . S
C205 C209 1.400 . S
C206 H191 0.960 . S
C206 H192 0.960 . S
C206 H193 0.960 . S
C206 C205 1.524 . S
C207 C204 1.403 . S
C207 C208 1.392 . S
C207 C211 1.495 . S
C208 C207 1.392 . S
C208 C209 1.385 . S
C208 C210 1.478 . S
C209 H203 0.930 . S
C209 C205 1.400 . S
C209 C208 1.385 . S
C210 C208 1.478 . S
C210 C212 1.381 . S
C210 C216 1.383 . S
C211 C207 1.495 . S
C211 H217 0.959 . S
C211 H218 0.961 . S
C211 H219 0.960 . S
C212 C210 1.381 . S
C212 C213 1.394 . S
C212 H220 0.930 . S
C213 C212 1.394 . S
C213 C214 1.383 . S
C213 H221 0.929 . S
C214 C213 1.383 . S
C214 C215 1.377 . S
C215 H199 0.930 . S
C215 C214 1.377 . S
C215 C216 1.379 . S
C216 H200 0.931 . S
C216 C210 1.383 . S
C216 C215 1.379 . S
H217 C211 0.959 . S
H218 C211 0.961 . S
H219 C211 0.960 . S
H220 C212 0.930 . S
H221 C213 0.929 . S
H222 C230 0.929 . S
H223 C232 0.930 . S
H224 C234 0.930 . S
H225 C237 0.929 . S
H226 C240 0.930 . S
H227 C242 0.960 . S
H228 C242 0.960 . S
H229 C242 0.960 . S
C230 H222 0.929 . S
C230 C231 1.377 . S
C230 C232 1.384 . S
C231 C230 1.377 . S
C231 C237 1.390 . S
C232 H223 0.930 . S
C232 C230 1.384 . S
C232 C233 1.372 . S
C233 C232 1.372 . S
C233 C234 1.400 . S
C233 C238 1.490 . S
C234 H224 0.930 . S
C234 C233 1.400 . S
C234 C237 1.386 . S
H235 C251 0.930 . S
H236 C252 0.931 . S
C237 H225 0.929 . S
C237 C231 1.390 . S
C237 C234 1.386 . S
C238 C233 1.490 . S
C238 C240 1.395 . S
C238 C241 1.403 . S
H239 C245 0.930 . S
C240 H226 0.930 . S
C240 C238 1.395 . S
C240 C243 1.403 . S
C241 C238 1.403 . S
C241 C242 1.524 . S
C241 C245 1.400 . S
C242 H227 0.960 . S
C242 H228 0.960 . S
C242 H229 0.960 . S
C242 C241 1.524 . S
C243 C240 1.403 . S
C243 C244 1.392 . S
C243 C247 1.495 . S
C244 C243 1.392 . S
C244 C245 1.385 . S
C244 C246 1.478 . S
C245 H239 0.930 . S
C245 C241 1.400 . S
C245 C244 1.385 . S
C246 C244 1.478 . S
C246 C248 1.381 . S
C246 C252 1.383 . S
C247 C243 1.495 . S
C247 H253 0.959 . S
C247 H254 0.961 . S
C247 H255 0.960 . S
C248 C246 1.381 . S
C248 C249 1.394 . S
C248 H256 0.930 . S
C249 C248 1.394 . S
C249 C250 1.383 . S
C249 H257 0.929 . S
C250 C249 1.383 . S
C250 C251 1.377 . S
C251 H235 0.930 . S
C251 C250 1.377 . S
C251 C252 1.379 . S
C252 H236 0.931 . S
C252 C246 1.383 . S
C252 C251 1.379 . S
H253 C247 0.959 . S
H254 C247 0.961 . S
H255 C247 0.960 . S
H256 C248 0.930 . S
H257 C249 0.929 . S
H258 C266 0.929 . S
H259 C268 0.930 . S
H260 C270 0.930 . S
H261 C273 0.929 . S
H262 C276 0.930 . S
H263 C278 0.960 . S
H264 C278 0.960 . S
H265 C278 0.960 . S
C266 H258 0.929 . S
C266 C267 1.377 . S
C266 C268 1.384 . S
C267 C266 1.377 . S
C267 C273 1.390 . S
C268 H259 0.930 . S
C268 C266 1.384 . S
C268 C269 1.372 . S
C269 C268 1.372 . S
C269 C270 1.400 . S
C269 C274 1.490 . S
C270 H260 0.930 . S
C270 C269 1.400 . S
C270 C273 1.386 . S
H271 C287 0.930 . S
H272 C288 0.931 . S
C273 H261 0.929 . S
C273 C267 1.390 . S
C273 C270 1.386 . S
C274 C269 1.490 . S
C274 C276 1.395 . S
C274 C277 1.403 . S
H275 C281 0.930 . S
C276 H262 0.930 . S
C276 C274 1.395 . S
C276 C279 1.403 . S
C277 C274 1.403 . S
C277 C278 1.524 . S
C277 C281 1.400 . S
C278 H263 0.960 . S
C278 H264 0.960 . S
C278 H265 0.960 . S
C278 C277 1.524 . S
C279 C276 1.403 . S
C279 C280 1.392 . S
C279 C283 1.495 . S
C280 C279 1.392 . S
C280 C281 1.385 . S
C280 C282 1.478 . S
C281 H275 0.930 . S
C281 C277 1.400 . S
C281 C280 1.385 . S
C282 C280 1.478 . S
C282 C284 1.381 . S
C282 C288 1.383 . S
C283 C279 1.495 . S
C283 H289 0.959 . S
C283 H290 0.961 . S
C283 H291 0.960 . S
C284 C282 1.381 . S
C284 C285 1.394 . S
C284 H292 0.930 . S
C285 C284 1.394 . S
C285 C286 1.383 . S
C285 H293 0.929 . S
C286 C285 1.383 . S
C286 C287 1.377 . S
C287 H271 0.930 . S
C287 C286 1.377 . S
C287 C288 1.379 . S
C288 H272 0.931 . S
C288 C282 1.383 . S
C288 C287 1.379 . S
H289 C283 0.959 . S
H290 C283 0.961 . S
H291 C283 0.960 . S
H292 C284 0.930 . S
H293 C285 0.929 . S
H294 C302 0.929 . S
H295 C304 0.930 . S
H296 C306 0.930 . S
H297 C309 0.929 . S
H298 C312 0.930 . S
H299 C314 0.960 . S
H300 C314 0.960 . S
H301 C314 0.960 . S
C302 H294 0.929 . S
C302 C303 1.377 . S
C302 C304 1.384 . S
C303 C302 1.377 . S
C303 C309 1.390 . S
C304 H295 0.930 . S
C304 C302 1.384 . S
C304 C305 1.372 . S
C305 C304 1.372 . S
C305 C306 1.400 . S
C305 C310 1.490 . S
C306 H296 0.930 . S
C306 C305 1.400 . S
C306 C309 1.386 . S
H307 C323 0.930 . S
H308 C324 0.931 . S
C309 H297 0.929 . S
C309 C303 1.390 . S
C309 C306 1.386 . S
C310 C305 1.490 . S
C310 C312 1.395 . S
C310 C313 1.403 . S
H311 C317 0.930 . S
C312 H298 0.930 . S
C312 C310 1.395 . S
C312 C315 1.403 . S
C313 C310 1.403 . S
C313 C314 1.524 . S
C313 C317 1.400 . S
C314 H299 0.960 . S
C314 H300 0.960 . S
C314 H301 0.960 . S
C314 C313 1.524 . S
C315 C312 1.403 . S
C315 C316 1.392 . S
C315 C319 1.495 . S
C316 C315 1.392 . S
C316 C317 1.385 . S
C316 C318 1.478 . S
C317 H311 0.930 . S
C317 C313 1.400 . S
C317 C316 1.385 . S
C318 C316 1.478 . S
C318 C320 1.381 . S
C318 C324 1.383 . S
C319 C315 1.495 . S
C319 H325 0.959 . S
C319 H326 0.961 . S
C319 H327 0.960 . S
C320 C318 1.381 . S
C320 C321 1.394 . S
C320 H328 0.930 . S
C321 C320 1.394 . S
C321 C322 1.383 . S
C321 H329 0.929 . S
C322 C321 1.383 . S
C322 C323 1.377 . S
C323 H307 0.930 . S
C323 C322 1.377 . S
C323 C324 1.379 . S
C324 H308 0.931 . S
C324 C318 1.383 . S
C324 C323 1.379 . S
H325 C319 0.959 . S
H326 C319 0.961 . S
H327 C319 0.960 . S
H328 C320 0.930 . S
H329 C321 0.929 . S
H330 C338 0.929 . S
H331 C340 0.930 . S
H332 C342 0.930 . S
H333 C345 0.929 . S
H334 C348 0.930 . S
H335 C350 0.960 . S
H336 C350 0.960 . S
H337 C350 0.960 . S
C338 H330 0.929 . S
C338 C339 1.377 . S
C338 C340 1.384 . S
C339 C338 1.377 . S
C339 C345 1.390 . S
C340 H331 0.930 . S
C340 C338 1.384 . S
C340 C341 1.372 . S
C341 C340 1.372 . S
C341 C342 1.400 . S
C341 C346 1.490 . S
C342 H332 0.930 . S
C342 C341 1.400 . S
C342 C345 1.386 . S
H343 C359 0.930 . S
H344 C360 0.931 . S
C345 H333 0.929 . S
C345 C339 1.390 . S
C345 C342 1.386 . S
C346 C341 1.490 . S
C346 C348 1.395 . S
C346 C349 1.403 . S
H347 C353 0.930 . S
C348 H334 0.930 . S
C348 C346 1.395 . S
C348 C351 1.403 . S
C349 C346 1.403 . S
C349 C350 1.524 . S
C349 C353 1.400 . S
C350 H335 0.960 . S
C350 H336 0.960 . S
C350 H337 0.960 . S
C350 C349 1.524 . S
C351 C348 1.403 . S
C351 C352 1.392 . S
C351 C355 1.495 . S
C352 C351 1.392 . S
C352 C353 1.385 . S
C352 C354 1.478 . S
C353 H347 0.930 . S
C353 C349 1.400 . S
C353 C352 1.385 . S
C354 C352 1.478 . S
C354 C356 1.381 . S
C354 C360 1.383 . S
C355 C351 1.495 . S
C355 H361 0.959 . S
C355 H362 0.961 . S
C355 H363 0.960 . S
C356 C354 1.381 . S
C356 C357 1.394 . S
C356 H364 0.930 . S
C357 C356 1.394 . S
C357 C358 1.383 . S
C357 H365 0.929 . S
C358 C357 1.383 . S
C358 C359 1.377 . S
C359 H343 0.930 . S
C359 C358 1.377 . S
C359 C360 1.379 . S
C360 H344 0.931 . S
C360 C354 1.383 . S
C360 C359 1.379 . S
H361 C355 0.959 . S
H362 C355 0.961 . S
H363 C355 0.960 . S
H364 C356 0.930 . S
H365 C357 0.929 . S
H366 C374 0.929 . S
H367 C376 0.930 . S
H368 C378 0.930 . S
H369 C381 0.929 . S
H370 C384 0.930 . S
H371 C386 0.960 . S
H372 C386 0.960 . S
H373 C386 0.960 . S
C374 H366 0.929 . S
C374 C375 1.377 . S
C374 C376 1.384 . S
C375 C374 1.377 . S
C375 C381 1.390 . S
C376 H367 0.930 . S
C376 C374 1.384 . S
C376 C377 1.372 . S
C377 C376 1.372 . S
C377 C378 1.400 . S
C377 C382 1.490 . S
C378 H368 0.930 . S
C378 C377 1.400 . S
C378 C381 1.386 . S
H379 C395 0.930 . S
H380 C396 0.931 . S
C381 H369 0.929 . S
C381 C375 1.390 . S
C381 C378 1.386 . S
C382 C377 1.490 . S
C382 C384 1.395 . S
C382 C385 1.403 . S
H383 C389 0.930 . S
C384 H370 0.930 . S
C384 C382 1.395 . S
C384 C387 1.403 . S
C385 C382 1.403 . S
C385 C386 1.524 . S
C385 C389 1.400 . S
C386 H371 0.960 . S
C386 H372 0.960 . S
C386 H373 0.960 . S
C386 C385 1.524 . S
C387 C384 1.403 . S
C387 C388 1.392 . S
C387 C391 1.495 . S
C388 C387 1.392 . S
C388 C389 1.385 . S
C388 C390 1.478 . S
C389 H383 0.930 . S
C389 C385 1.400 . S
C389 C388 1.385 . S
C390 C388 1.478 . S
C390 C392 1.381 . S
C390 C396 1.383 . S
C391 C387 1.495 . S
C391 H397 0.959 . S
C391 H398 0.961 . S
C391 H399 0.960 . S
C392 C390 1.381 . S
C392 C393 1.394 . S
C392 H400 0.930 . S
C393 C392 1.394 . S
C393 C394 1.383 . S
C393 H401 0.929 . S
C394 C393 1.383 . S
C394 C395 1.377 . S
C395 H379 0.930 . S
C395 C394 1.377 . S
C395 C396 1.379 . S
C396 H380 0.931 . S
C396 C390 1.383 . S
C396 C395 1.379 . S
H397 C391 0.959 . S
H398 C391 0.961 . S
H399 C391 0.960 . S
H400 C392 0.930 . S
H401 C393 0.929 . S
H402 C410 0.929 . S
H403 C412 0.930 . S
H404 C414 0.930 . S
H405 C417 0.929 . S
H406 C420 0.930 . S
H407 C422 0.960 . S
H408 C422 0.960 . S
H409 C422 0.960 . S
C410 H402 0.929 . S
C410 C411 1.377 . S
C410 C412 1.384 . S
C411 C410 1.377 . S
C411 C417 1.390 . S
C412 H403 0.930 . S
C412 C410 1.384 . S
C412 C413 1.372 . S
C413 C412 1.372 . S
C413 C414 1.400 . S
C413 C418 1.490 . S
C414 H404 0.930 . S
C414 C413 1.400 . S
C414 C417 1.386 . S
H415 C431 0.930 . S
H416 C432 0.931 . S
C417 H405 0.929 . S
C417 C411 1.390 . S
C417 C414 1.386 . S
C418 C413 1.490 . S
C418 C420 1.395 . S
C418 C421 1.403 . S
H419 C425 0.930 . S
C420 H406 0.930 . S
C420 C418 1.395 . S
C420 C423 1.403 . S
C421 C418 1.403 . S
C421 C422 1.524 . S
C421 C425 1.400 . S
C422 H407 0.960 . S
C422 H408 0.960 . S
C422 H409 0.960 . S
C422 C421 1.524 . S
C423 C420 1.403 . S
C423 C424 1.392 . S
C423 C427 1.495 . S
C424 C423 1.392 . S
C424 C425 1.385 . S
C424 C426 1.478 . S
C425 H419 0.930 . S
C425 C421 1.400 . S
C425 C424 1.385 . S
C426 C424 1.478 . S
C426 C428 1.381 . S
C426 C432 1.383 . S
C427 C423 1.495 . S
C427 H433 0.959 . S
C427 H434 0.961 . S
C427 H435 0.960 . S
C428 C426 1.381 . S
C428 C429 1.394 . S
C428 H436 0.930 . S
C429 C428 1.394 . S
C429 C430 1.383 . S
C429 H437 0.929 . S
C430 C429 1.383 . S
C430 C431 1.377 . S
C431 H415 0.930 . S
C431 C430 1.377 . S
C431 C432 1.379 . S
C432 H416 0.931 . S
C432 C426 1.383 . S
C432 C431 1.379 . S
H433 C427 0.959 . S
H434 C427 0.961 . S
H435 C427 0.960 . S
H436 C428 0.930 . S
H437 C429 0.929 . S
H438 C446 0.929 . S
H439 C448 0.930 . S
H440 C450 0.930 . S
H441 C453 0.929 . S
H442 C456 0.930 . S
H443 C458 0.960 . S
H444 C458 0.960 . S
H445 C458 0.960 . S
C446 H438 0.929 . S
C446 C447 1.377 . S
C446 C448 1.384 . S
C447 C446 1.377 . S
C447 C453 1.390 . S
C448 H439 0.930 . S
C448 C446 1.384 . S
C448 C449 1.372 . S
C449 C448 1.372 . S
C449 C450 1.400 . S
C449 C454 1.490 . S
C450 H440 0.930 . S
C450 C449 1.400 . S
C450 C453 1.386 . S
H451 C467 0.930 . S
H452 C468 0.931 . S
C453 H441 0.929 . S
C453 C447 1.390 . S
C453 C450 1.386 . S
C454 C449 1.490 . S
C454 C456 1.395 . S
C454 C457 1.403 . S
H455 C461 0.930 . S
C456 H442 0.930 . S
C456 C454 1.395 . S
C456 C459 1.403 . S
C457 C454 1.403 . S
C457 C458 1.524 . S
C457 C461 1.400 . S
C458 H443 0.960 . S
C458 H444 0.960 . S
C458 H445 0.960 . S
C458 C457 1.524 . S
C459 C456 1.403 . S
C459 C460 1.392 . S
C459 C463 1.495 . S
C460 C459 1.392 . S
C460 C461 1.385 . S
C460 C462 1.478 . S
C461 H455 0.930 . S
C461 C457 1.400 . S
C461 C460 1.385 . S
C462 C460 1.478 . S
C462 C464 1.381 . S
C462 C468 1.383 . S
C463 C459 1.495 . S
C463 H469 0.959 . S
C463 H470 0.961 . S
C463 H471 0.960 . S
C464 C462 1.381 . S
C464 C465 1.394 . S
C464 H472 0.930 . S
C465 C464 1.394 . S
C465 C466 1.383 . S
C465 H473 0.929 . S
C466 C465 1.383 . S
C466 C467 1.377 . S
C467 H451 0.930 . S
C467 C466 1.377 . S
C467 C468 1.379 . S
C468 H452 0.931 . S
C468 C462 1.383 . S
C468 C467 1.379 . S
H469 C463 0.959 . S
H470 C463 0.961 . S
H471 C463 0.960 . S
H472 C464 0.930 . S
H473 C465 0.929 . S
H474 C482 0.929 . S
H475 C484 0.930 . S
H476 C486 0.930 . S
H477 C489 0.929 . S
H478 C492 0.930 . S
H479 C494 0.960 . S
H480 C494 0.960 . S
H481 C494 0.960 . S
C482 H474 0.929 . S
C482 C483 1.377 . S
C482 C484 1.384 . S
C483 C482 1.377 . S
C483 C489 1.390 . S
C484 H475 0.930 . S
C484 C482 1.384 . S
C484 C485 1.372 . S
C485 C484 1.372 . S
C485 C486 1.400 . S
C485 C490 1.490 . S
C486 H476 0.930 . S
C486 C485 1.400 . S
C486 C489 1.386 . S
H487 C503 0.930 . S
H488 C504 0.931 . S
C489 H477 0.929 . S
C489 C483 1.390 . S
C489 C486 1.386 . S
C490 C485 1.490 . S
C490 C492 1.395 . S
C490 C493 1.403 . S
H491 C497 0.930 . S
C492 H478 0.930 . S
C492 C490 1.395 . S
C492 C495 1.403 . S
C493 C490 1.403 . S
C493 C494 1.524 . S
C493 C497 1.400 . S
C494 H479 0.960 . S
C494 H480 0.960 . S
C494 H481 0.960 . S
C494 C493 1.524 . S
C495 C492 1.403 . S
C495 C496 1.392 . S
C495 C499 1.495 . S
C496 C495 1.392 . S
C496 C497 1.385 . S
C496 C498 1.478 . S
C497 H491 0.930 . S
C497 C493 1.400 . S
C497 C496 1.385 . S
C498 C496 1.478 . S
C498 C500 1.381 . S
C498 C504 1.383 . S
C499 C495 1.495 . S
C499 H505 0.959 . S
C499 H506 0.961 . S
C499 H507 0.960 . S
C500 C498 1.381 . S
C500 C501 1.394 . S
C500 H508 0.930 . S
C501 C500 1.394 . S
C501 C502 1.383 . S
C501 H509 0.929 . S
C502 C501 1.383 . S
C502 C503 1.377 . S
C503 H487 0.930 . S
C503 C502 1.377 . S
C503 C504 1.379 . S
C504 H488 0.931 . S
C504 C498 1.383 . S
C504 C503 1.379 . S
H505 C499 0.959 . S
H506 C499 0.961 . S
H507 C499 0.960 . S
H508 C500 0.930 . S
H509 C501 0.929 . S
H510 C518 0.929 . S
H511 C520 0.930 . S
H512 C522 0.930 . S
H513 C525 0.929 . S
H514 C528 0.930 . S
H515 C530 0.960 . S
H516 C530 0.960 . S
H517 C530 0.960 . S
C518 H510 0.929 . S
C518 C519 1.377 . S
C518 C520 1.384 . S
C519 C518 1.377 . S
C519 C525 1.390 . S
C520 H511 0.930 . S
C520 C518 1.384 . S
C520 C521 1.372 . S
C521 C520 1.372 . S
C521 C522 1.400 . S
C521 C526 1.490 . S
C522 H512 0.930 . S
C522 C521 1.400 . S
C522 C525 1.386 . S
H523 C539 0.930 . S
H524 C540 0.931 . S
C525 H513 0.929 . S
C525 C519 1.390 . S
C525 C522 1.386 . S
C526 C521 1.490 . S
C526 C528 1.395 . S
C526 C529 1.403 . S
H527 C533 0.930 . S
C528 H514 0.930 . S
C528 C526 1.395 . S
C528 C531 1.403 . S
C529 C526 1.403 . S
C529 C530 1.524 . S
C529 C533 1.400 . S
C530 H515 0.960 . S
C530 H516 0.960 . S
C530 H517 0.960 . S
C530 C529 1.524 . S
C531 C528 1.403 . S
C531 C532 1.392 . S
C531 C535 1.495 . S
C532 C531 1.392 . S
C532 C533 1.385 . S
C532 C534 1.478 . S
C533 H527 0.930 . S
C533 C529 1.400 . S
C533 C532 1.385 . S
C534 C532 1.478 . S
C534 C536 1.381 . S
C534 C540 1.383 . S
C535 C531 1.495 . S
C535 H541 0.959 . S
C535 H542 0.961 . S
C535 H543 0.960 . S
C536 C534 1.381 . S
C536 C537 1.394 . S
C536 H544 0.930 . S
C537 C536 1.394 . S
C537 C538 1.383 . S
C537 H545 0.929 . S
C538 C537 1.383 . S
C538 C539 1.377 . S
C539 H523 0.930 . S
C539 C538 1.377 . S
C539 C540 1.379 . S
C540 H524 0.931 . S
C540 C534 1.383 . S
C540 C539 1.379 . S
H541 C535 0.959 . S
H542 C535 0.961 . S
H543 C535 0.960 . S
H544 C536 0.930 . S
H545 C537 0.929 . S
H546 C554 0.929 . S
H547 C556 0.930 . S
H548 C558 0.930 . S
H549 C561 0.929 . S
H550 C564 0.930 . S
H551 C566 0.960 . S
H552 C566 0.960 . S
H553 C566 0.960 . S
C554 H546 0.929 . S
C554 C555 1.377 . S
C554 C556 1.384 . S
C555 C554 1.377 . S
C555 C561 1.390 . S
C556 H547 0.930 . S
C556 C554 1.384 . S
C556 C557 1.372 . S
C557 C556 1.372 . S
C557 C558 1.400 . S
C557 C562 1.490 . S
C558 H548 0.930 . S
C558 C557 1.400 . S
C558 C561 1.386 . S
H559 C575 0.930 . S
H560 C576 0.931 . S
C561 H549 0.929 . S
C561 C555 1.390 . S
C561 C558 1.386 . S
C562 C557 1.490 . S
C562 C564 1.395 . S
C562 C565 1.403 . S
H563 C569 0.930 . S
C564 H550 0.930 . S
C564 C562 1.395 . S
C564 C567 1.403 . S
C565 C562 1.403 . S
C565 C566 1.524 . S
C565 C569 1.400 . S
C566 H551 0.960 . S
C566 H552 0.960 . S
C566 H553 0.960 . S
C566 C565 1.524 . S
C567 C564 1.403 . S
C567 C568 1.392 . S
C567 C571 1.495 . S
C568 C567 1.392 . S
C568 C569 1.385 . S
C568 C570 1.478 . S
C569 H563 0.930 . S
C569 C565 1.400 . S
C569 C568 1.385 . S
C570 C568 1.478 . S
C570 C572 1.381 . S
C570 C576 1.383 . S
C571 C567 1.495 . S
C571 H577 0.959 . S
C571 H578 0.961 . S
C571 H579 0.960 . S
C572 C570 1.381 . S
C572 C573 1.394 . S
C572 H580 0.930 . S
C573 C572 1.394 . S
C573 C574 1.383 . S
C573 H581 0.929 . S
C574 C573 1.383 . S
C574 C575 1.377 . S
C575 H559 0.930 . S
C575 C574 1.377 . S
C575 C576 1.379 . S
C576 H560 0.931 . S
C576 C570 1.383 . S
C576 C575 1.379 . S
H577 C571 0.959 . S
H578 C571 0.961 . S
H579 C571 0.960 . S
H580 C572 0.930 . S
H581 C573 0.929 . S
H582 C590 0.929 . S
H583 C592 0.930 . S
H584 C594 0.930 . S
H585 C597 0.929 . S
H586 C600 0.930 . S
H587 C602 0.960 . S
H588 C602 0.960 . S
H589 C602 0.960 . S
C590 H582 0.929 . S
C590 C591 1.377 . S
C590 C592 1.384 . S
C591 C590 1.377 . S
C591 C597 1.390 . S
C592 H583 0.930 . S
C592 C590 1.384 . S
C592 C593 1.372 . S
C593 C592 1.372 . S
C593 C594 1.400 . S
C593 C598 1.490 . S
C594 H584 0.930 . S
C594 C593 1.400 . S
C594 C597 1.386 . S
H595 C611 0.930 . S
H596 C612 0.931 . S
C597 H585 0.929 . S
C597 C591 1.390 . S
C597 C594 1.386 . S
C598 C593 1.490 . S
C598 C600 1.395 . S
C598 C601 1.403 . S
H599 C605 0.930 . S
C600 H586 0.930 . S
C600 C598 1.395 . S
C600 C603 1.403 . S
C601 C598 1.403 . S
C601 C602 1.524 . S
C601 C605 1.400 . S
C602 H587 0.960 . S
C602 H588 0.960 . S
C602 H589 0.960 . S
C602 C601 1.524 . S
C603 C600 1.403 . S
C603 C604 1.392 . S
C603 C607 1.495 . S
C604 C603 1.392 . S
C604 C605 1.385 . S
C604 C606 1.478 . S
C605 H599 0.930 . S
C605 C601 1.400 . S
C605 C604 1.385 . S
C606 C604 1.478 . S
C606 C608 1.381 . S
C606 C612 1.383 . S
C607 C603 1.495 . S
C607 H613 0.959 . S
C607 H614 0.961 . S
C607 H615 0.960 . S
C608 C606 1.381 . S
C608 C609 1.394 . S
C608 H616 0.930 . S
C609 C608 1.394 . S
C609 C610 1.383 . S
C609 H617 0.929 . S
C610 C609 1.383 . S
C610 C611 1.377 . S
C611 H595 0.930 . S
C611 C610 1.377 . S
C611 C612 1.379 . S
C612 H596 0.931 . S
C612 C606 1.383 . S
C612 C611 1.379 . S
H613 C607 0.959 . S
H614 C607 0.961 . S
H615 C607 0.960 . S
H616 C608 0.930 . S
H617 C609 0.929 . S
H618 C626 0.929 . S
H619 C628 0.930 . S
H620 C630 0.930 . S
H621 C633 0.929 . S
H622 C636 0.930 1_655 S
H623 C638 0.960 . S
H624 C638 0.960 . S
H625 C638 0.960 . S
C626 H618 0.929 . S
C626 C627 1.377 . S
C626 C628 1.384 . S
C627 C626 1.377 . S
C627 C633 1.390 . S
C628 H619 0.930 . S
C628 C626 1.384 . S
C628 C629 1.372 . S
C629 C628 1.372 . S
C629 C630 1.400 . S
C629 C634 1.490 . S
C630 H620 0.930 . S
C630 C629 1.400 . S
C630 C633 1.386 . S
H631 C647 0.930 . S
H632 C648 0.931 . S
C633 H621 0.929 . S
C633 C627 1.390 . S
C633 C630 1.386 . S
C634 C629 1.490 . S
C634 C636 1.395 . S
C634 C637 1.403 . S
H635 C641 0.958 . S
C636 H622 0.930 1_455 S
C636 C634 1.395 . S
C636 C639 1.403 . S
C637 C634 1.403 . S
C637 C638 1.524 . S
C637 C641 1.400 . S
C638 H623 0.960 . S
C638 H624 0.960 . S
C638 H625 0.960 . S
C638 C637 1.524 . S
C639 C636 1.403 . S
C639 C640 1.392 1_554 S
C639 C643 1.495 1_454 S
C640 C639 1.392 1_556 S
C640 C641 1.385 1_556 S
C640 C642 1.478 . S
C641 H635 0.958 . S
C641 C637 1.400 . S
C641 C640 1.385 1_554 S
C642 C640 1.478 . S
C642 C644 1.381 . S
C642 C648 1.383 . S
C643 C639 1.495 1_656 S
C643 H649 0.959 . S
C643 H650 0.961 . S
C643 H651 0.960 . S
C644 C642 1.381 . S
C644 C645 1.394 . S
C644 H652 0.930 . S
C645 C644 1.394 . S
C645 C646 1.383 . S
C645 H653 0.929 . S
C646 C645 1.383 . S
C646 C647 1.377 . S
C647 H631 0.930 . S
C647 C646 1.377 . S
C647 C648 1.379 . S
C648 H632 0.931 . S
C648 C642 1.383 . S
C648 C647 1.379 . S
H649 C643 0.959 . S
H650 C643 0.961 . S
H651 C643 0.960 . S
H652 C644 0.930 . S
H653 C645 0.929 . S
H654 C662 0.929 . S
H655 C664 0.930 . S
H656 C666 0.930 1_565 S
H657 C669 0.929 1_565 S
H658 C672 0.930 . S
H659 C674 0.960 . S
H660 C674 0.960 . S
H661 C674 0.960 . S
C662 H654 0.929 . S
C662 C663 1.377 . S
C662 C664 1.384 . S
C663 C662 1.377 . S
C663 C669 1.390 . S
C664 H655 0.930 . S
C664 C662 1.384 . S
C664 C665 1.372 . S
C665 C664 1.372 . S
C665 C666 1.400 . S
C665 C670 1.490 . S
C666 H656 0.930 1_545 S
C666 C665 1.400 . S
C666 C669 1.386 . S
H667 C683 0.930 . S
H668 C684 0.931 1_565 S
C669 H657 0.929 1_545 S
C669 C663 1.390 . S
C669 C666 1.386 . S
C670 C665 1.490 . S
C670 C672 1.395 . S
C670 C673 1.403 . S
H671 C677 0.930 . S
C672 H658 0.930 . S
C672 C670 1.395 . S
C672 C675 1.403 . S
C673 C670 1.403 . S
C673 C674 1.524 . S
C673 C677 1.400 . S
C674 H659 0.960 . S
C674 H660 0.960 . S
C674 H661 0.960 . S
C674 C673 1.524 . S
C675 C672 1.403 . S
C675 C676 1.392 . S
C675 C679 1.495 . S
C676 C675 1.392 . S
C676 C677 1.385 . S
C676 C678 1.478 . S
C677 H671 0.930 . S
C677 C673 1.400 . S
C677 C676 1.385 . S
C678 C676 1.478 . S
C678 C680 1.381 . S
C678 C684 1.383 . S
C679 C675 1.495 . S
C679 H685 0.959 . S
C679 H686 0.961 . S
C679 H687 0.960 . S
C680 C678 1.381 . S
C680 C681 1.394 . S
C680 H688 0.930 . S
C681 C680 1.394 . S
C681 C682 1.383 . S
C681 H689 0.929 . S
C682 C681 1.383 . S
C682 C683 1.377 . S
C683 H667 0.930 . S
C683 C682 1.377 . S
C683 C684 1.379 . S
C684 H668 0.931 1_545 S
C684 C678 1.383 . S
C684 C683 1.379 . S
H685 C679 0.959 . S
H686 C679 0.961 . S
H687 C679 0.960 . S
H688 C680 0.930 . S
H689 C681 0.929 . S
H690 C698 0.929 . S
H691 C700 0.930 . S
H692 C702 0.930 . S
H693 C705 0.929 . S
H694 C708 0.930 . S
H695 C710 0.960 . S
H696 C710 0.960 . S
H697 C710 0.960 . S
C698 H690 0.929 . S
C698 C699 1.377 . S
C698 C700 1.384 . S
C699 C698 1.377 . S
C699 C705 1.390 . S
C700 H691 0.930 . S
C700 C698 1.384 . S
C700 C701 1.372 . S
C701 C700 1.372 . S
C701 C702 1.400 . S
C701 C706 1.490 . S
C702 H692 0.930 . S
C702 C701 1.400 . S
C702 C705 1.386 . S
H703 C719 0.930 . S
H704 C720 0.931 . S
C705 H693 0.929 . S
C705 C699 1.390 . S
C705 C702 1.386 . S
C706 C701 1.490 . S
C706 C708 1.395 . S
C706 C709 1.403 . S
H707 C713 0.930 . S
C708 H694 0.930 . S
C708 C706 1.395 . S
C708 C711 1.403 . S
C709 C706 1.403 . S
C709 C710 1.524 . S
C709 C713 1.400 . S
C710 H695 0.960 . S
C710 H696 0.960 . S
C710 H697 0.960 . S
C710 C709 1.524 . S
C711 C708 1.403 . S
C711 C712 1.392 . S
C711 C715 1.495 . S
C712 C711 1.392 . S
C712 C713 1.385 . S
C712 C714 1.478 . S
C713 H707 0.930 . S
C713 C709 1.400 . S
C713 C712 1.385 . S
C714 C712 1.478 . S
C714 C716 1.381 . S
C714 C720 1.383 . S
C715 C711 1.495 . S
C715 H721 0.959 . S
C715 H722 0.961 . S
C715 H723 0.960 . S
C716 C714 1.381 . S
C716 C717 1.394 . S
C716 H724 0.930 . S
C717 C716 1.394 . S
C717 C718 1.383 . S
C717 H725 0.929 . S
C718 C717 1.383 . S
C718 C719 1.377 . S
C719 H703 0.930 . S
C719 C718 1.377 . S
C719 C720 1.379 . S
C720 H704 0.931 . S
C720 C714 1.383 . S
C720 C719 1.379 . S
H721 C715 0.959 . S
H722 C715 0.961 . S
H723 C715 0.960 . S
H724 C716 0.930 . S
H725 C717 0.929 . S
H726 C734 0.929 . S
H727 C736 0.930 . S
H728 C738 0.930 . S
H729 C741 0.929 . S
H730 C744 0.930 . S
H731 C746 0.960 . S
H732 C746 0.960 . S
H733 C746 0.960 1_545 S
C734 H726 0.929 . S
C734 C735 1.377 . S
C734 C736 1.384 . S
C735 C734 1.377 . S
C735 C741 1.390 . S
C736 H727 0.930 . S
C736 C734 1.384 . S
C736 C737 1.372 . S
C737 C736 1.372 . S
C737 C738 1.400 . S
C737 C742 1.490 . S
C738 H728 0.930 . S
C738 C737 1.400 . S
C738 C741 1.386 . S
H739 C755 0.930 . S
H740 C756 0.931 . S
C741 H729 0.929 . S
C741 C735 1.390 . S
C741 C738 1.386 . S
C742 C737 1.490 . S
C742 C744 1.395 . S
C742 C745 1.403 . S
H743 C749 0.930 . S
C744 H730 0.930 . S
C744 C742 1.395 . S
C744 C747 1.403 . S
C745 C742 1.403 . S
C745 C746 1.524 1_545 S
C745 C749 1.400 . S
C746 H731 0.960 . S
C746 H732 0.960 . S
C746 H733 0.960 1_565 S
C746 C745 1.524 1_565 S
C747 C744 1.403 . S
C747 C748 1.392 . S
C747 C751 1.495 . S
C748 C747 1.392 . S
C748 C749 1.385 . S
C748 C750 1.478 . S
C749 H743 0.930 . S
C749 C745 1.400 . S
C749 C748 1.385 . S
C750 C748 1.478 . S
C750 C752 1.381 . S
C750 C756 1.383 . S
C751 C747 1.495 . S
C751 H757 0.959 . S
C751 H758 0.961 . S
C751 H759 0.960 . S
C752 C750 1.381 . S
C752 C753 1.394 . S
C752 H760 0.930 . S
C753 C752 1.394 . S
C753 C754 1.383 . S
C753 H761 0.929 . S
C754 C753 1.383 . S
C754 C755 1.377 . S
C755 H739 0.930 . S
C755 C754 1.377 . S
C755 C756 1.379 . S
C756 H740 0.931 . S
C756 C750 1.383 . S
C756 C755 1.379 . S
H757 C751 0.959 . S
H758 C751 0.961 . S
H759 C751 0.960 . S
H760 C752 0.930 . S
H761 C753 0.929 . S
H762 C770 0.929 . S
H763 C772 0.930 . S
H764 C774 0.930 . S
H765 C777 0.929 . S
H766 C780 0.930 . S
H767 C782 0.960 . S
H768 C782 0.960 . S
H769 C782 0.960 . S
C770 H762 0.929 . S
C770 C771 1.377 . S
C770 C772 1.384 . S
C771 C770 1.377 . S
C771 C777 1.390 . S
C772 H763 0.930 . S
C772 C770 1.384 . S
C772 C773 1.372 . S
C773 C772 1.372 . S
C773 C774 1.400 . S
C773 C778 1.490 . S
C774 H764 0.930 . S
C774 C773 1.400 . S
C774 C777 1.386 . S
H775 C791 0.930 . S
H776 C792 0.931 . S
C777 H765 0.929 . S
C777 C771 1.390 . S
C777 C774 1.386 . S
C778 C773 1.490 . S
C778 C780 1.395 . S
C778 C781 1.403 . S
H779 C785 0.949 . S
C780 H766 0.930 . S
C780 C778 1.395 . S
C780 C783 1.403 . S
C781 C778 1.403 . S
C781 C782 1.524 . S
C781 C785 1.400 . S
C782 H767 0.960 . S
C782 H768 0.960 . S
C782 H769 0.960 . S
C782 C781 1.524 . S
C783 C780 1.403 . S
C783 C784 1.392 1_556 S
C783 C787 1.495 1_556 S
C784 C783 1.392 1_554 S
C784 C785 1.385 1_554 S
C784 C786 1.478 . S
C785 H779 0.949 . S
C785 C781 1.400 . S
C785 C784 1.385 1_556 S
C786 C784 1.478 . S
C786 C788 1.381 . S
C786 C792 1.383 . S
C787 C783 1.495 1_554 S
C787 H793 0.959 1_554 S
C787 H794 0.961 . S
C787 H795 0.960 . S
C788 C786 1.381 . S
C788 C789 1.394 . S
C788 H796 0.930 . S
C789 C788 1.394 . S
C789 C790 1.383 . S
C789 H797 0.929 . S
C790 C789 1.383 . S
C790 C791 1.377 . S
C791 H775 0.930 . S
C791 C790 1.377 . S
C791 C792 1.379 . S
C792 H776 0.931 . S
C792 C786 1.383 . S
C792 C791 1.379 . S
H793 C787 0.959 1_556 S
H794 C787 0.961 . S
H795 C787 0.960 . S
H796 C788 0.930 . S
H797 C789 0.929 . S
H798 C806 0.929 1_655 S
H799 C808 0.930 . S
H800 C810 0.930 . S
H801 C813 0.929 . S
H802 C816 0.930 . S
H803 C818 0.960 . S
H804 C818 0.960 . S
H805 C818 0.960 . S
C806 H798 0.929 1_455 S
C806 C807 1.377 . S
C806 C808 1.384 1_455 S
C807 C806 1.377 . S
C807 C813 1.390 . S
C808 H799 0.930 . S
C808 C806 1.384 1_655 S
C808 C809 1.372 1_655 S
C809 C808 1.372 1_455 S
C809 C810 1.400 . S
C809 C814 1.490 . S
C810 H800 0.930 . S
C810 C809 1.400 . S
C810 C813 1.386 . S
H811 C827 0.930 . S
H812 C828 0.931 . S
C813 H801 0.929 . S
C813 C807 1.390 . S
C813 C810 1.386 . S
C814 C809 1.490 . S
C814 C816 1.395 1_455 S
C814 C817 1.403 . S
H815 C821 0.930 . S
C816 H802 0.930 . S
C816 C814 1.395 1_655 S
C816 C819 1.403 . S
C817 C814 1.403 . S
C817 C818 1.524 . S
C817 C821 1.400 . S
C818 H803 0.960 . S
C818 H804 0.960 . S
C818 H805 0.960 . S
C818 C817 1.524 . S
C819 C816 1.403 . S
C819 C820 1.392 1_655 S
C819 C823 1.495 . S
C820 C819 1.392 1_455 S
C820 C821 1.385 . S
C820 C822 1.478 . S
C821 H815 0.930 . S
C821 C817 1.400 . S
C821 C820 1.385 . S
C822 C820 1.478 . S
C822 C824 1.381 1_455 S
C822 C828 1.383 . S
C823 C819 1.495 . S
C823 H829 0.959 . S
C823 H830 0.961 . S
C823 H831 0.960 . S
C824 C822 1.381 1_655 S
C824 C825 1.394 . S
C824 H832 0.930 . S
C825 C824 1.394 . S
C825 C826 1.383 1_655 S
C825 H833 0.929 . S
C826 C825 1.383 1_455 S
C826 C827 1.377 . S
C827 H811 0.930 . S
C827 C826 1.377 . S
C827 C828 1.379 . S
C828 H812 0.931 . S
C828 C822 1.383 . S
C828 C827 1.379 . S
H829 C823 0.959 . S
H830 C823 0.961 . S
H831 C823 0.960 . S
H832 C824 0.930 . S
H833 C825 0.929 . S
C195 C7 0.587 . S
C214 C185 0.585 . S
C231 C51 1.928 . S
C250 C163 1.861 . S
C267 C87 1.232 . S
C286 C174 1.224 . S
C303 C16 0.244 . S
C322 C179 0.268 . S
C358 C157 1.828 . S
C339 C42 1.849 . S
C394 C168 1.110 . S
C375 C96 1.129 . S
C411 C47 1.275 . S
C430 C141 1.272 . S
C447 C91 3.004 . S
C466 C146 2.949 1_655 S
C483 C2 1.864 . S
C502 C124 1.837 1_565 S
C538 C135 1.096 . S
C519 C56 1.109 . S
C574 C152 2.961 . S
C555 C82 3.007 . S
C591 C11 1.932 . S
C610 C130 1.904 . S
C646 C147 1.703 . S
C627 C19 1.689 . S
C663 C50 1.431 . S
C682 C125 1.475 . S
C699 C99 1.518 . S
C718 C136 1.541 . S
C754 C169 1.523 . S
C735 C59 1.520 . S
C790 C180 1.285 . S
C771 C90 1.277 . S
C807 C10 1.412 . S
C826 C158 1.454 . S
