# Generated by pormake.
# Topology pyr, (3,6)-cn, num edge types: 1
# Building blocks:
#     Node 0, Type 0, BuildingBlock: VETTIZ_charged_linker_0, # of connection points: 3
#     Node 1, Type 0, BuildingBlock: VETTIZ_charged_linker_0, # of connection points: 3
#     Node 2, Type 0, BuildingBlock: VETTIZ_charged_linker_0, # of connection points: 3
#     Node 3, Type 0, BuildingBlock: VETTIZ_charged_linker_0, # of connection points: 3
#     Node 4, Type 0, BuildingBlock: VETTIZ_charged_linker_0, # of connection points: 3
#     Node 5, Type 0, BuildingBlock: VETTIZ_charged_linker_0, # of connection points: 3
#     Node 6, Type 0, BuildingBlock: VETTIZ_charged_linker_0, # of connection points: 3
#     Node 7, Type 0, BuildingBlock: VETTIZ_charged_linker_0, # of connection points: 3
#     Node 8, Type 1, BuildingBlock: INOVEN_clean_sbu_0, # of connection points: 6
#     Node 9, Type 1, BuildingBlock: INOVEN_clean_sbu_0, # of connection points: 6
#     Node 10, Type 1, BuildingBlock: INOVEN_clean_sbu_0, # of connection points: 6
#     Node 11, Type 1, BuildingBlock: INOVEN_clean_sbu_0, # of connection points: 6
#     Edge 12, Type (0, 1), BuildingBlock: MIFKUJ_clean_linker_0, # of connection points: 2
#     Edge 13, Type (0, 1), BuildingBlock: MIFKUJ_clean_linker_0, # of connection points: 2
#     Edge 14, Type (0, 1), BuildingBlock: MIFKUJ_clean_linker_0, # of connection points: 2
#     Edge 15, Type (0, 1), BuildingBlock: MIFKUJ_clean_linker_0, # of connection points: 2
#     Edge 16, Type (0, 1), BuildingBlock: MIFKUJ_clean_linker_0, # of connection points: 2
#     Edge 17, Type (0, 1), BuildingBlock: MIFKUJ_clean_linker_0, # of connection points: 2
#     Edge 18, Type (0, 1), BuildingBlock: MIFKUJ_clean_linker_0, # of connection points: 2
#     Edge 19, Type (0, 1), BuildingBlock: MIFKUJ_clean_linker_0, # of connection points: 2
#     Edge 20, Type (0, 1), BuildingBlock: MIFKUJ_clean_linker_0, # of connection points: 2
#     Edge 21, Type (0, 1), BuildingBlock: MIFKUJ_clean_linker_0, # of connection points: 2
#     Edge 22, Type (0, 1), BuildingBlock: MIFKUJ_clean_linker_0, # of connection points: 2
#     Edge 23, Type (0, 1), BuildingBlock: MIFKUJ_clean_linker_0, # of connection points: 2
#     Edge 24, Type (0, 1), BuildingBlock: MIFKUJ_clean_linker_0, # of connection points: 2
#     Edge 25, Type (0, 1), BuildingBlock: MIFKUJ_clean_linker_0, # of connection points: 2
#     Edge 26, Type (0, 1), BuildingBlock: MIFKUJ_clean_linker_0, # of connection points: 2
#     Edge 27, Type (0, 1), BuildingBlock: MIFKUJ_clean_linker_0, # of connection points: 2
#     Edge 28, Type (0, 1), BuildingBlock: MIFKUJ_clean_linker_0, # of connection points: 2
#     Edge 29, Type (0, 1), BuildingBlock: MIFKUJ_clean_linker_0, # of connection points: 2
#     Edge 30, Type (0, 1), BuildingBlock: MIFKUJ_clean_linker_0, # of connection points: 2
#     Edge 31, Type (0, 1), BuildingBlock: MIFKUJ_clean_linker_0, # of connection points: 2
#     Edge 32, Type (0, 1), BuildingBlock: MIFKUJ_clean_linker_0, # of connection points: 2
#     Edge 33, Type (0, 1), BuildingBlock: MIFKUJ_clean_linker_0, # of connection points: 2
#     Edge 34, Type (0, 1), BuildingBlock: MIFKUJ_clean_linker_0, # of connection points: 2
#     Edge 35, Type (0, 1), BuildingBlock: MIFKUJ_clean_linker_0, # of connection points: 2
# Relax obj value: 0.073
# Max RMSD: 0.121
# Mean RMSD: 0.056
data_MOF--net-pyr--node1-INOVEN_clean_sbu_0--node2-VETTIZ_charged_linker_0--edge1-MIFKUJ_clean_linker_0
_symmetry_space_group_name_H-M    P1
_symmetry_Int_Tables_number       1
_symmetry_cell_setting            triclinic
loop_
_symmetry_equiv_pos_as_xyz
'x, y, z'
_cell_length_a     57.73154
_cell_length_b     60.257872
_cell_length_c     54.433203
_cell_angle_alpha  91.479813
_cell_angle_beta   88.473118
_cell_angle_gamma 98.780671
loop_
_atom_site_label
_atom_site_type_symbol
_atom_site_fract_x
_atom_site_fract_y
_atom_site_fract_z
_atom_type_partial_charge
C0 C 0.26993 0.23745 0.30716 0.0
C1 C 0.25421 0.24968 0.31975 0.0
C2 C 0.25023 0.27028 0.31029 0.0
C3 C 0.27377 0.26404 0.27412 0.0
C4 C 0.27957 0.245 0.28444 0.0
C5 C 0.29552 0.23348 0.26783 0.0
H6 H 0.34357 0.22121 0.15474 0.0
C7 C 0.28377 0.26554 0.24893 0.0
C8 C 0.297 0.24803 0.24525 0.0
H9 H 0.35301 0.18531 0.22062 0.0
H10 H 0.32955 0.20853 0.24403 0.0
H11 H 0.3508 0.27063 0.18039 0.0
H12 H 0.28825 0.22393 0.16498 0.0
H13 H 0.28334 0.25089 0.15713 0.0
H14 H 0.3061 0.2385 0.14118 0.0
H15 H 0.34037 0.26505 0.14973 0.0
H16 H 0.3297 0.28594 0.16953 0.0
C17 C 0.31955 0.23483 0.28033 0.0
C18 C 0.28322 0.20923 0.26233 0.0
C19 C 0.2537 0.31751 0.1902 0.0
C20 C 0.25604 0.3201 0.1647 0.0
C21 C 0.27233 0.30905 0.15135 0.0
C22 C 0.2851 0.29454 0.1632 0.0
C23 C 0.28138 0.29103 0.18856 0.0
C24 C 0.26628 0.30287 0.20166 0.0
C25 C 0.26375 0.29673 0.22821 0.0
C26 C 0.27974 0.27904 0.22901 0.0
C27 C 0.28986 0.27557 0.20573 0.0
C28 C 0.27284 0.31784 0.24413 0.0
C29 C 0.23767 0.28681 0.23322 0.0
C30 C 0.34046 0.21835 0.1742 0.0
C31 C 0.35005 0.20141 0.18588 0.0
C32 C 0.34596 0.19839 0.21129 0.0
C33 C 0.33227 0.21181 0.22483 0.0
C34 C 0.3225 0.22842 0.21287 0.0
C35 C 0.32694 0.23175 0.18806 0.0
C36 C 0.31554 0.25065 0.17872 0.0
C37 C 0.30387 0.25828 0.20213 0.0
C38 C 0.30766 0.24485 0.22191 0.0
C39 C 0.33498 0.26907 0.16887 0.0
C40 C 0.29742 0.24069 0.15935 0.0
H41 H 0.25567 0.29297 0.28097 0.0
H42 H 0.27352 0.22165 0.31402 0.0
H43 H 0.26457 0.20924 0.25768 0.0
H44 H 0.29111 0.2011 0.2465 0.0
H45 H 0.28353 0.19847 0.27854 0.0
H46 H 0.32221 0.24856 0.29451 0.0
H47 H 0.32112 0.21892 0.28956 0.0
H48 H 0.33446 0.23883 0.26713 0.0
H49 H 0.2416 0.32613 0.20096 0.0
H50 H 0.27443 0.31088 0.13164 0.0
H51 H 0.29683 0.28612 0.15205 0.0
H52 H 0.28551 0.33007 0.23366 0.0
H53 H 0.25822 0.32669 0.25065 0.0
H54 H 0.2827 0.31374 0.26016 0.0
H55 H 0.23089 0.27516 0.21797 0.0
H56 H 0.23473 0.27677 0.24993 0.0
H57 H 0.22657 0.30032 0.23473 0.0
H58 H 0.23874 0.28033 0.32 0.0
C59 C 0.26003 0.27757 0.28761 0.0
C60 C 0.22401 0.86594 0.60339 0.0
C61 C 0.21238 0.87819 0.62082 0.0
C62 C 0.21944 0.87917 0.64548 0.0
C63 C 0.24974 0.85668 0.63475 0.0
C64 C 0.24245 0.85531 0.61073 0.0
C65 C 0.25659 0.84169 0.5944 0.0
H66 H 0.34747 0.78348 0.58109 0.0
C67 C 0.26989 0.84442 0.63605 0.0
C68 C 0.27392 0.83551 0.6125 0.0
H69 H 0.2977 0.79404 0.52626 0.0
H70 H 0.27759 0.81539 0.55598 0.0
H71 H 0.35408 0.8335 0.60454 0.0
H72 H 0.31049 0.77168 0.62343 0.0
H73 H 0.31969 0.78497 0.65132 0.0
H74 H 0.34124 0.77694 0.62959 0.0
H75 H 0.36536 0.81078 0.6184 0.0
H76 H 0.35385 0.83216 0.63671 0.0
C77 C 0.26883 0.8571 0.57405 0.0
C78 C 0.24004 0.82077 0.5847 0.0
C79 C 0.3134 0.84449 0.71585 0.0
C80 C 0.33374 0.83593 0.722 0.0
C81 C 0.34488 0.82349 0.70429 0.0
C82 C 0.33608 0.81992 0.68059 0.0
C83 C 0.31605 0.82906 0.67448 0.0
C84 C 0.30496 0.84096 0.69202 0.0
C85 C 0.28428 0.84993 0.682 0.0
C86 C 0.28478 0.84134 0.65557 0.0
C87 C 0.30345 0.82923 0.65132 0.0
C88 C 0.28929 0.87593 0.68382 0.0
C89 C 0.26193 0.83924 0.69627 0.0
C90 C 0.33246 0.79071 0.57536 0.0
C91 C 0.32431 0.78742 0.55127 0.0
C92 C 0.3043 0.79647 0.54473 0.0
C93 C 0.29269 0.80882 0.56201 0.0
C94 C 0.30109 0.81193 0.58608 0.0
C95 C 0.3206 0.80283 0.59238 0.0
C96 C 0.32667 0.80706 0.6189 0.0
C97 C 0.30752 0.82019 0.62759 0.0
C98 C 0.29273 0.82318 0.6083 0.0
C99 C 0.35131 0.82149 0.61992 0.0
C100 C 0.32463 0.78407 0.63161 0.0
H101 H 0.24268 0.86995 0.67151 0.0
H102 H 0.21926 0.86505 0.58423 0.0
H103 H 0.2256 0.81535 0.59821 0.0
H104 H 0.24899 0.80592 0.5819 0.0
H105 H 0.2319 0.82434 0.56726 0.0
H106 H 0.27557 0.87406 0.58179 0.0
H107 H 0.25643 0.85923 0.55935 0.0
H108 H 0.28428 0.85092 0.56561 0.0
H109 H 0.30473 0.85443 0.72902 0.0
H110 H 0.36053 0.81668 0.70876 0.0
H111 H 0.34543 0.81046 0.66787 0.0
H112 H 0.30809 0.88216 0.67956 0.0
H113 H 0.28527 0.88209 0.70263 0.0
H114 H 0.27952 0.88415 0.67048 0.0
H115 H 0.26339 0.82187 0.70182 0.0
H116 H 0.24605 0.83734 0.68505 0.0
H117 H 0.25898 0.84914 0.71325 0.0
H118 H 0.21056 0.88821 0.65936 0.0
C119 C 0.23804 0.86848 0.65253 0.0
C120 C 0.63973 0.28842 0.88468 0.0
C121 C 0.6189 0.27501 0.87686 0.0
C122 C 0.60721 0.2827 0.85694 0.0
C123 C 0.63679 0.31617 0.85332 0.0
C124 C 0.64822 0.30869 0.87281 0.0
C125 C 0.66995 0.32471 0.87932 0.0
H126 H 0.74556 0.42088 0.8601 0.0
C127 C 0.6504 0.33806 0.8452 0.0
C128 C 0.66987 0.343 0.86057 0.0
H129 H 0.7479 0.37098 0.91531 0.0
H130 H 0.71264 0.34936 0.89989 0.0
H131 H 0.6895 0.42119 0.86548 0.0
H132 H 0.7293 0.38486 0.81469 0.0
H133 H 0.70788 0.39576 0.79827 0.0
H134 H 0.73033 0.41476 0.81369 0.0
H135 H 0.70745 0.43487 0.8412 0.0
H136 H 0.67763 0.42189 0.83616 0.0
C137 C 0.66665 0.33362 0.90597 0.0
C138 C 0.69131 0.31215 0.87536 0.0
C139 C 0.62315 0.38092 0.77326 0.0
C140 C 0.63202 0.40167 0.76224 0.0
C141 C 0.65299 0.41383 0.77153 0.0
C142 C 0.66463 0.40591 0.79115 0.0
C143 C 0.65545 0.38544 0.80209 0.0
C144 C 0.63502 0.37325 0.79313 0.0
C145 C 0.6278 0.35191 0.80737 0.0
C146 C 0.64718 0.35331 0.8262 0.0
C147 C 0.66346 0.37309 0.82297 0.0
C148 C 0.60362 0.35306 0.81985 0.0
C149 C 0.62803 0.33166 0.78941 0.0
C150 C 0.73855 0.40521 0.86874 0.0
C151 C 0.74973 0.39784 0.8892 0.0
C152 C 0.73968 0.37739 0.89988 0.0
C153 C 0.71913 0.36471 0.89077 0.0
C154 C 0.70805 0.37234 0.8706 0.0
C155 C 0.71773 0.3923 0.8599 0.0
C156 C 0.70307 0.39786 0.83889 0.0
C157 C 0.68321 0.37792 0.83868 0.0
C158 C 0.68632 0.36299 0.85734 0.0
C159 C 0.69398 0.42019 0.84551 0.0
C160 C 0.71834 0.39854 0.81505 0.0
H161 H 0.60622 0.30773 0.83018 0.0
H162 H 0.64914 0.2835 0.90008 0.0
H163 H 0.68888 0.30053 0.85909 0.0
H164 H 0.7078 0.3235 0.87136 0.0
H165 H 0.69375 0.30197 0.89156 0.0
H166 H 0.64794 0.33506 0.91009 0.0
H167 H 0.67218 0.32219 0.91961 0.0
H168 H 0.67616 0.35075 0.9092 0.0
H169 H 0.60707 0.37106 0.76692 0.0
H170 H 0.66068 0.42954 0.7634 0.0
H171 H 0.68044 0.41613 0.79709 0.0
H172 H 0.6028 0.37025 0.82745 0.0
H173 H 0.5893 0.34891 0.80648 0.0
H174 H 0.59998 0.34184 0.83563 0.0
H175 H 0.64369 0.33442 0.77687 0.0
H176 H 0.62918 0.3159 0.79885 0.0
H177 H 0.6122 0.32915 0.7779 0.0
H178 H 0.59134 0.27282 0.85012 0.0
C179 C 0.61599 0.30302 0.8452 0.0
C180 C 0.89943 0.75748 0.37464 0.0
C181 C 0.88937 0.77019 0.39306 0.0
C182 C 0.86689 0.76187 0.40257 0.0
C183 C 0.86473 0.72879 0.37573 0.0
C184 C 0.88665 0.73701 0.36601 0.0
C185 C 0.89388 0.72181 0.34557 0.0
H186 H 0.86638 0.62884 0.27123 0.0
C187 C 0.85594 0.70727 0.36281 0.0
C188 C 0.87279 0.70314 0.34481 0.0
H189 H 0.93032 0.67654 0.27037 0.0
H190 H 0.91574 0.69706 0.30477 0.0
H191 H 0.86457 0.62458 0.32985 0.0
H192 H 0.82945 0.66464 0.2828 0.0
H193 H 0.80901 0.65151 0.30453 0.0
H194 H 0.82326 0.63451 0.283 0.0
H195 H 0.84011 0.61245 0.31175 0.0
H196 H 0.83609 0.62453 0.34197 0.0
C197 C 0.91634 0.713 0.35332 0.0
C198 C 0.89683 0.73528 0.32158 0.0
C199 C 0.77783 0.66256 0.39052 0.0
C200 C 0.76474 0.64206 0.38257 0.0
C201 C 0.77355 0.63053 0.36229 0.0
C202 C 0.79487 0.63906 0.35039 0.0
C203 C 0.8078 0.65944 0.35872 0.0
C204 C 0.79913 0.67084 0.37844 0.0
C205 C 0.815 0.69235 0.3847 0.0
C206 C 0.83492 0.69173 0.36593 0.0
C207 C 0.83065 0.67246 0.35064 0.0
C208 C 0.82333 0.69075 0.41133 0.0
C209 C 0.80145 0.71224 0.38058 0.0
C210 C 0.87711 0.64384 0.2783 0.0
C211 C 0.89949 0.65116 0.26779 0.0
C212 C 0.91308 0.67049 0.27805 0.0
C213 C 0.90452 0.68246 0.298 0.0
C214 C 0.88211 0.67502 0.30823 0.0
C215 C 0.86896 0.65579 0.29857 0.0
C216 C 0.84616 0.64955 0.31273 0.0
C217 C 0.8474 0.66854 0.33188 0.0
C218 C 0.86847 0.68361 0.32911 0.0
C219 C 0.8465 0.62652 0.32463 0.0
C220 C 0.82576 0.64988 0.29494 0.0
H221 H 0.83769 0.73595 0.40238 0.0
H222 H 0.91657 0.76358 0.36678 0.0
H223 H 0.88255 0.74564 0.32014 0.0
H224 H 0.8957 0.72448 0.30487 0.0
H225 H 0.91379 0.74681 0.3211 0.0
H226 H 0.91552 0.70934 0.37328 0.0
H227 H 0.93216 0.72561 0.34983 0.0
H228 H 0.91869 0.697 0.34396 0.0
H229 H 0.77155 0.67216 0.4057 0.0
H230 H 0.76413 0.61461 0.35582 0.0
H231 H 0.80052 0.6294 0.33516 0.0
H232 H 0.82775 0.67374 0.41456 0.0
H233 H 0.8094 0.69379 0.42492 0.0
H234 H 0.83943 0.7025 0.4154 0.0
H235 H 0.78765 0.70786 0.36663 0.0
H236 H 0.81284 0.72711 0.37313 0.0
H237 H 0.79268 0.71719 0.39784 0.0
H238 H 0.85884 0.77127 0.41678 0.0
C239 C 0.85464 0.7413 0.39417 0.0
C240 C 0.74885 0.7368 0.8718 0.0
C241 C 0.76515 0.72502 0.85942 0.0
C242 C 0.76851 0.72737 0.8338 0.0
C243 C 0.7422 0.7549 0.83388 0.0
C244 C 0.73743 0.75148 0.8586 0.0
C245 C 0.7195 0.76539 0.8685 0.0
H246 H 0.65698 0.84987 0.8505 0.0
C247 C 0.729 0.77232 0.82581 0.0
C248 C 0.71517 0.77827 0.84578 0.0
H249 H 0.65742 0.81062 0.91574 0.0
H250 H 0.68301 0.78741 0.89489 0.0
H251 H 0.65134 0.80956 0.81251 0.0
H252 H 0.71241 0.85312 0.8381 0.0
H253 H 0.7151 0.85057 0.80598 0.0
H254 H 0.69078 0.86239 0.81935 0.0
H255 H 0.65949 0.83743 0.80119 0.0
H256 H 0.67083 0.81367 0.78715 0.0
C257 C 0.69734 0.74927 0.87685 0.0
C258 C 0.73086 0.78115 0.88918 0.0
C259 C 0.75053 0.8087 0.74386 0.0
C260 C 0.74341 0.82703 0.73225 0.0
C261 C 0.72425 0.8364 0.74239 0.0
C262 C 0.71339 0.82856 0.7645 0.0
C263 C 0.72186 0.81126 0.77671 0.0
C264 C 0.73957 0.80112 0.76591 0.0
C265 C 0.74612 0.78274 0.7812 0.0
C266 C 0.73 0.78413 0.80352 0.0
C267 C 0.71613 0.80106 0.80092 0.0
C268 C 0.74023 0.76013 0.76671 0.0
C269 C 0.77233 0.78907 0.7877 0.0
C270 C 0.66262 0.83628 0.8603 0.0
C271 C 0.65546 0.83216 0.8848 0.0
C272 C 0.66274 0.81405 0.89681 0.0
C273 C 0.67766 0.8007 0.88473 0.0
C274 C 0.68526 0.80553 0.86041 0.0
C275 C 0.67736 0.82283 0.84852 0.0
C276 C 0.68696 0.82556 0.82271 0.0
C277 C 0.70179 0.80688 0.82088 0.0
C278 C 0.70109 0.79541 0.84313 0.0
C279 C 0.66619 0.82153 0.80483 0.0
C280 C 0.70202 0.84914 0.82119 0.0
H281 H 0.76093 0.74357 0.80173 0.0
H282 H 0.74556 0.73518 0.8914 0.0
H283 H 0.74878 0.78913 0.8834 0.0
H284 H 0.72112 0.79511 0.89386 0.0
H285 H 0.73243 0.77167 0.90614 0.0
H286 H 0.69514 0.7334 0.86566 0.0
H287 H 0.69837 0.74474 0.8964 0.0
H288 H 0.68101 0.75633 0.87425 0.0
H289 H 0.76528 0.80116 0.73677 0.0
H290 H 0.71808 0.85024 0.73358 0.0
H291 H 0.69931 0.83675 0.77162 0.0
H292 H 0.72765 0.76117 0.7518 0.0
H293 H 0.75622 0.75488 0.75801 0.0
H294 H 0.73146 0.74648 0.77853 0.0
H295 H 0.77615 0.80698 0.79387 0.0
H296 H 0.77765 0.7793 0.80283 0.0
H297 H 0.78387 0.78675 0.77148 0.0
H298 H 0.78017 0.71788 0.82355 0.0
C299 C 0.75718 0.74222 0.82105 0.0
C300 C 0.79603 0.17538 0.4642 0.0
C301 C 0.80588 0.16016 0.44859 0.0
C302 C 0.79666 0.15511 0.42507 0.0
C303 C 0.7666 0.17819 0.43395 0.0
C304 C 0.77635 0.18414 0.45653 0.0
C305 C 0.7627 0.19958 0.47117 0.0
H306 H 0.66387 0.24726 0.48343 0.0
C307 C 0.74505 0.18828 0.43239 0.0
C308 C 0.7426 0.20092 0.45407 0.0
H309 H 0.72278 0.25625 0.5318 0.0
H310 H 0.74298 0.23219 0.50489 0.0
H311 H 0.6631 0.19422 0.47032 0.0
H312 H 0.69407 0.25546 0.43592 0.0
H313 H 0.68507 0.23639 0.41191 0.0
H314 H 0.66348 0.24465 0.43347 0.0
H315 H 0.64626 0.21241 0.45537 0.0
H316 H 0.65847 0.19058 0.4386 0.0
C317 C 0.75412 0.18811 0.49557 0.0
C318 C 0.77852 0.22259 0.47452 0.0
C319 C 0.69231 0.16788 0.35976 0.0
C320 C 0.67008 0.17276 0.35406 0.0
C321 C 0.65913 0.187 0.36998 0.0
C322 C 0.67 0.19586 0.39154 0.0
C323 C 0.69202 0.19038 0.39726 0.0
C324 C 0.70285 0.17675 0.38137 0.0
C325 C 0.72597 0.17234 0.39055 0.0
C326 C 0.72736 0.18578 0.41454 0.0
C327 C 0.70741 0.19615 0.41842 0.0
C328 C 0.72403 0.14672 0.39468 0.0
C329 C 0.74545 0.18195 0.37185 0.0
C330 C 0.68093 0.24364 0.48847 0.0
C331 C 0.69159 0.25303 0.50995 0.0
C332 C 0.71419 0.24881 0.51546 0.0
C333 C 0.72584 0.23497 0.4998 0.0
C334 C 0.71484 0.22565 0.47831 0.0
C335 C 0.69288 0.23036 0.47287 0.0
C336 C 0.68444 0.22057 0.44852 0.0
C337 C 0.70483 0.20893 0.44025 0.0
C338 C 0.72246 0.21161 0.45786 0.0
C339 C 0.6618 0.20364 0.45321 0.0
C340 C 0.68139 0.24013 0.43149 0.0
H341 H 0.77072 0.15925 0.3997 0.0
H342 H 0.80283 0.17958 0.48236 0.0
H343 H 0.79094 0.22612 0.45862 0.0
H344 H 0.76842 0.23678 0.47526 0.0
H345 H 0.78907 0.22305 0.49135 0.0
H346 H 0.74679 0.17017 0.49211 0.0
H347 H 0.76879 0.1887 0.50848 0.0
H348 H 0.73997 0.19568 0.50492 0.0
H349 H 0.70134 0.15725 0.34771 0.0
H350 H 0.64191 0.19087 0.36605 0.0
H351 H 0.66067 0.20637 0.40307 0.0
H352 H 0.70601 0.1395 0.40097 0.0
H353 H 0.72801 0.13764 0.37744 0.0
H354 H 0.73544 0.14254 0.40928 0.0
H355 H 0.74097 0.19711 0.36295 0.0
H356 H 0.76244 0.18775 0.38058 0.0
H357 H 0.74792 0.16942 0.35706 0.0
H358 H 0.8043 0.1438 0.41257 0.0
C359 C 0.77716 0.16411 0.41764 0.0
C360 C 0.39744 0.67661 0.26541 0.0
C361 C 0.38987 0.65494 0.2748 0.0
C362 C 0.37063 0.64154 0.26368 0.0
C363 C 0.36646 0.6711 0.235 0.0
C364 C 0.38574 0.68419 0.24534 0.0
C365 C 0.39217 0.70617 0.232 0.0
H366 H 0.37059 0.7739 0.13849 0.0
C367 C 0.35801 0.68379 0.21462 0.0
C368 C 0.37326 0.70442 0.21258 0.0
H369 H 0.42639 0.78712 0.19086 0.0
H370 H 0.41209 0.75208 0.21061 0.0
H371 H 0.33202 0.75999 0.17763 0.0
H372 H 0.37087 0.72035 0.13019 0.0
H373 H 0.34096 0.70879 0.12907 0.0
H374 H 0.35014 0.73726 0.11983 0.0
H375 H 0.32305 0.75263 0.14685 0.0
H376 H 0.31298 0.73481 0.17241 0.0
C377 C 0.39038 0.72571 0.25052 0.0
C378 C 0.41688 0.7066 0.22021 0.0
C379 C 0.28352 0.65108 0.16792 0.0
C380 C 0.27072 0.65968 0.14936 0.0
C381 C 0.27924 0.68155 0.14106 0.0
C382 C 0.29991 0.69405 0.15003 0.0
C383 C 0.31254 0.68513 0.1681 0.0
C384 C 0.30413 0.66414 0.17711 0.0
C385 C 0.31948 0.65805 0.19728 0.0
C386 C 0.33837 0.67882 0.19877 0.0
C387 C 0.33431 0.69446 0.18127 0.0
C388 C 0.30439 0.65503 0.22122 0.0
C389 C 0.32987 0.63686 0.18872 0.0
C390 C 0.37984 0.7696 0.15428 0.0
C391 C 0.40006 0.78379 0.16255 0.0
C392 C 0.41121 0.7767 0.18327 0.0
C393 C 0.40276 0.75623 0.19498 0.0
C394 C 0.38269 0.74232 0.18623 0.0
C395 C 0.3715 0.74937 0.16633 0.0
C396 C 0.34977 0.73328 0.16002 0.0
C397 C 0.35016 0.71493 0.17865 0.0
C398 C 0.36951 0.72009 0.19415 0.0
C399 C 0.32828 0.74571 0.16423 0.0
C400 C 0.35287 0.72445 0.13334 0.0
H401 H 0.34431 0.63834 0.23673 0.0
H402 H 0.41241 0.68722 0.27321 0.0
H403 H 0.4187 0.68995 0.21169 0.0
H404 H 0.42055 0.7187 0.20524 0.0
H405 H 0.43064 0.7106 0.23421 0.0
H406 H 0.37416 0.72208 0.26213 0.0
H407 H 0.4056 0.72829 0.2629 0.0
H408 H 0.38927 0.74166 0.24145 0.0
H409 H 0.27788 0.63448 0.17504 0.0
H410 H 0.26977 0.68941 0.1277 0.0
H411 H 0.30524 0.71033 0.14249 0.0
H412 H 0.29302 0.66834 0.22321 0.0
H413 H 0.29281 0.63851 0.22111 0.0
H414 H 0.31491 0.65658 0.23795 0.0
H415 H 0.33398 0.63723 0.16863 0.0
H416 H 0.34669 0.63564 0.1974 0.0
H417 H 0.31733 0.62134 0.19234 0.0
H418 H 0.36449 0.62483 0.27036 0.0
C419 C 0.35888 0.64947 0.24412 0.0
C420 C 0.1269 0.29219 0.6736 0.0
C421 C 0.13563 0.28072 0.6532 0.0
C422 C 0.15668 0.29063 0.64157 0.0
C423 C 0.15958 0.32281 0.66973 0.0
C424 C 0.13909 0.3132 0.68144 0.0
C425 C 0.13222 0.32804 0.7024 0.0
H426 H 0.15501 0.42565 0.77006 0.0
C427 C 0.1679 0.34476 0.68202 0.0
C428 C 0.15193 0.34804 0.70124 0.0
H429 H 0.09671 0.37194 0.77888 0.0
H430 H 0.11172 0.35125 0.74507 0.0
H431 H 0.15472 0.42541 0.70977 0.0
H432 H 0.19453 0.39342 0.76062 0.0
H433 H 0.21351 0.40446 0.73666 0.0
H434 H 0.19952 0.42324 0.75636 0.0
H435 H 0.17676 0.44104 0.72873 0.0
H436 H 0.18419 0.42889 0.69952 0.0
C437 C 0.10817 0.33482 0.69667 0.0
C438 C 0.13242 0.3151 0.72655 0.0
C439 C 0.24321 0.39179 0.65043 0.0
C440 C 0.25589 0.41272 0.65758 0.0
C441 C 0.24701 0.42452 0.67762 0.0
C442 C 0.22609 0.41573 0.69016 0.0
C443 C 0.21369 0.39478 0.68277 0.0
C444 C 0.22238 0.38322 0.66318 0.0
C445 C 0.2071 0.36117 0.65783 0.0
C446 C 0.18781 0.36131 0.6774 0.0
C447 C 0.19164 0.38105 0.69202 0.0
C448 C 0.19759 0.36198 0.63154 0.0
C449 C 0.22179 0.34208 0.66167 0.0
C450 C 0.14531 0.40954 0.76462 0.0
C451 C 0.12453 0.40057 0.77749 0.0
C452 C 0.11287 0.37927 0.76977 0.0
C453 C 0.12155 0.36727 0.74992 0.0
C454 C 0.14227 0.37645 0.73735 0.0
C455 C 0.15382 0.39727 0.74481 0.0
C456 C 0.17575 0.40433 0.72947 0.0
C457 C 0.17542 0.38448 0.71152 0.0
C458 C 0.15569 0.3681 0.71616 0.0
C459 C 0.17295 0.42615 0.71621 0.0
C460 C 0.19705 0.40669 0.74653 0.0
H461 H 0.18446 0.31786 0.63985 0.0
H462 H 0.11075 0.28519 0.68295 0.0
H463 H 0.14751 0.30561 0.72651 0.0
H464 H 0.13462 0.32628 0.74297 0.0
H465 H 0.11611 0.30284 0.72889 0.0
H466 H 0.10712 0.33827 0.67678 0.0
H467 H 0.09362 0.32117 0.70134 0.0
H468 H 0.10504 0.35044 0.70633 0.0
H469 H 0.2495 0.38201 0.6354 0.0
H470 H 0.25609 0.44079 0.68346 0.0
H471 H 0.22034 0.42562 0.70514 0.0
H472 H 0.1945 0.37923 0.62727 0.0
H473 H 0.21021 0.35696 0.61748 0.0
H474 H 0.18039 0.35138 0.62915 0.0
H475 H 0.23433 0.3465 0.67684 0.0
H476 H 0.21102 0.3262 0.66731 0.0
H477 H 0.23215 0.33889 0.64481 0.0
H478 H 0.16417 0.28214 0.62622 0.0
C479 C 0.1686 0.31144 0.64965 0.0
Gd480 Gd 0.01826 0.03065 0.5035 0.0
Gd481 Gd 0.01043 1.01323 0.55449 0.0
C482 C 0.03721 0.06281 0.55063 0.0
C483 C 0.0227 0.05432 0.46451 0.0
C484 C 0.04176 0.07159 0.4557 0.0
C485 C 0.06397 0.06602 0.44938 0.0
C486 C 0.03839 0.09416 0.45537 0.0
C487 C 0.07939 0.1054 0.44384 0.0
C488 C 0.05706 0.11094 0.44954 0.0
C489 C 0.08256 0.08275 0.44348 0.0
C490 C 0.05223 1.00874 0.5195 0.0
C491 C 0.99159 0.98137 0.50724 0.0
C492 C 1.00482 0.98923 0.59322 0.0
C493 C 0.98366 0.97416 0.60074 0.0
C494 C 0.96273 0.9751 0.58852 0.0
C495 C 0.98391 0.95901 0.61976 0.0
C496 C 0.94233 0.94618 0.61459 0.0
C497 C 0.96334 0.94487 0.62651 0.0
C498 C 0.94215 0.96137 0.59557 0.0
C499 C 0.97644 0.03524 0.53878 0.0
O500 O 0.0299 0.06169 0.52768 0.0
O501 O 0.03528 0.04454 0.56394 0.0
O502 O 0.02736 0.03374 0.46489 0.0
O503 O 0.01118 0.05982 0.48423 0.0
O504 O 0.04518 1.00733 0.49707 0.0
O505 O 0.04208 1.02238 0.53184 0.0
O506 O 1.00019 0.98217 0.52965 0.0
O507 O 0.99244 0.99992 0.49467 0.0
O508 O 1.00243 1.01045 0.59339 0.0
O509 O 0.01534 0.98298 0.5732 0.0
O510 O 0.9828 0.03566 0.56137 0.0
O511 O 0.98669 1.02177 0.52628 0.0
H512 H 0.06721 0.04878 0.4494 0.0
H513 H 0.02145 0.09888 0.46024 0.0
H514 H 0.05413 0.12828 0.45007 0.0
H515 H 0.09945 0.07792 0.43864 0.0
H516 H 0.96229 0.98666 0.57366 0.0
H517 H 0.99981 0.95822 0.6295 0.0
H518 H 0.96368 0.9333 0.64136 0.0
H519 H 0.9261 0.96252 0.58613 0.0
Gd520 Gd 0.52748 0.03458 0.03235 0.0
Gd521 Gd 0.48664 0.02654 1.0014 0.0
C522 C 0.4792 0.05123 0.05126 0.0
C523 C 0.5647 0.05458 0.05303 0.0
C524 C 0.5708 0.061 0.07855 0.0
C525 C 0.58939 0.05267 0.08937 0.0
C526 C 0.55802 0.07521 0.09239 0.0
C527 C 0.58285 0.07323 0.12731 0.0
C528 C 0.56408 0.08135 0.11646 0.0
C529 C 0.59532 0.05864 0.1136 0.0
C530 C 0.50132 0.99668 0.05088 0.0
C531 C 0.529 0.99938 0.98975 0.0
C532 C 0.45491 1.01416 0.96946 0.0
C533 C 0.44699 0.99383 0.95491 0.0
C534 C 0.44415 0.99585 0.92966 0.0
C535 C 0.44341 0.97249 0.96543 0.0
C536 C 0.43387 0.95545 0.92542 0.0
C537 C 0.43666 0.95338 0.95075 0.0
C538 C 0.43773 0.9768 0.91498 0.0
C539 C 0.51381 0.06732 0.99492 0.0
O540 O 0.50231 0.05453 0.05231 0.0
O541 O 0.46821 0.03791 0.03444 0.0
O542 O 0.5614 0.03301 0.04777 0.0
O543 O 0.54934 0.06533 0.04308 0.0
O544 O 0.52103 1.00654 0.0594 0.0
O545 O 0.49577 1.00746 0.03275 0.0
O546 O 0.50604 0.99808 0.99032 0.0
O547 O 0.54222 1.0157 1.00147 0.0
O548 O 0.47594 0.02423 0.96366 0.0
O549 O 0.45061 1.01345 0.99319 0.0
O550 O 0.49131 0.06421 0.99804 0.0
O551 O 0.52111 0.04864 0.99646 0.0
H552 H 0.59934 0.04156 0.07906 0.0
H553 H 0.54345 0.08179 0.08462 0.0
H554 H 0.55436 0.09291 0.12633 0.0
H555 H 0.60967 0.05187 0.12156 0.0
H556 H 0.44702 1.01219 0.92127 0.0
H557 H 0.4459 0.97057 0.98487 0.0
H558 H 0.43381 0.93703 0.95908 0.0
H559 H 0.43535 0.97878 0.89553 0.0
Gd560 Gd 0.51232 0.50828 0.50172 0.0
Gd561 Gd 0.50701 0.54539 0.53495 0.0
C562 C 0.52978 0.50686 0.55921 0.0
C563 C 0.52927 0.4767 0.47783 0.0
C564 C 0.5385 0.457 0.48644 0.0
C565 C 0.5301 0.44697 0.5086 0.0
C566 C 0.5576 0.44974 0.474 0.0
C567 C 0.56058 0.42329 0.50639 0.0
C568 C 0.56855 0.43298 0.48387 0.0
C569 C 0.54099 0.43017 0.51845 0.0
C570 C 0.46997 0.50314 0.52525 0.0
C571 C 0.48912 0.54685 0.47794 0.0
C572 C 0.49006 0.5776 0.55727 0.0
C573 C 0.47947 0.59584 0.54659 0.0
C574 C 0.49264 0.61155 0.53096 0.0
C575 C 0.45527 0.59593 0.5496 0.0
C576 C 0.45742 0.62642 0.52091 0.0
C577 C 0.44432 0.611 0.53677 0.0
C578 C 0.4817 0.62682 0.51836 0.0
C579 C 0.54933 0.55037 0.51149 0.0
O580 O 0.53038 0.49875 0.53632 0.0
O581 O 0.51945 0.52459 0.5643 0.0
O582 O 0.50675 0.47671 0.48122 0.0
O583 O 0.54184 0.49594 0.48369 0.0
O584 O 0.47312 0.49804 0.50223 0.0
O585 O 0.48944 0.51029 0.53491 0.0
O586 O 0.48745 0.55398 0.50107 0.0
O587 O 0.50074 0.53001 0.4726 0.0
O588 O 0.51257 0.57802 0.55333 0.0
O589 O 0.47805 0.55749 0.55439 0.0
O590 O 0.54618 0.55534 0.53454 0.0
O591 O 0.52984 0.54338 0.50174 0.0
H592 H 0.51556 0.4526 0.5187 0.0
H593 H 0.56442 0.45744 0.45699 0.0
H594 H 0.58338 0.42771 0.47396 0.0
H595 H 0.53458 0.42311 0.53589 0.0
H596 H 0.51129 0.61176 0.52799 0.0
H597 H 0.44472 0.58395 0.56141 0.0
H598 H 0.4256 0.61074 0.53938 0.0
H599 H 0.4921 0.63868 0.50631 0.0
Gd600 Gd 0.01495 0.50355 0.02964 0.0
Gd601 Gd 1.00547 0.55287 1.01019 0.0
C602 C 0.05341 0.54873 0.04026 0.0
C603 C 0.031 0.46605 0.02951 0.0
C604 C 0.04815 0.45537 0.04255 0.0
C605 C 0.04828 0.45459 0.06832 0.0
C606 C 0.06567 0.44681 0.02859 0.0
C607 C 0.08373 0.43734 0.06584 0.0
C608 C 0.08336 0.43798 0.04011 0.0
C609 C 0.0659 0.44544 0.07989 0.0
C610 C 0.99583 0.52876 0.06521 0.0
C611 C 0.96705 0.50776 0.99941 0.0
C612 C 0.98941 0.59039 1.00909 0.0
C613 C 0.97066 0.59896 0.99633 0.0
C614 C 0.96468 0.59177 0.97228 0.0
C615 C 0.9574 0.61329 1.00916 0.0
C616 C 0.93213 0.61309 0.97417 0.0
C617 C 0.93825 0.62027 0.99821 0.0
C618 C 0.94563 0.59893 0.9612 0.0
C619 C 0.02501 0.52774 0.97471 0.0
O620 O 0.04826 0.52641 0.04041 0.0
O621 O 0.03946 0.56191 0.03087 0.0
O622 O 0.0114 0.469 0.04119 0.0
O623 O 0.04019 0.48317 1.01623 0.0
O624 O 1.00208 0.50931 0.06938 0.0
O625 O 1.00027 0.53262 0.04284 0.0
O626 O 0.97186 0.53012 0.99991 0.0
O627 O 0.98135 0.4946 1.00823 0.0
O628 O 1.00767 0.58632 0.99579 0.0
O629 O 0.98213 0.5748 0.02503 0.0
O630 O 0.02049 0.54794 0.97115 0.0
O631 O 0.01886 0.52315 0.99656 0.0
H632 H 0.03503 0.46128 0.07948 0.0
H633 H 0.06586 0.44728 1.00869 0.0
H634 H 0.09671 0.43152 0.02886 0.0
H635 H 0.06589 0.44513 0.09978 0.0
H636 H 0.97448 0.58037 0.96222 0.0
H637 H 0.96167 0.61881 0.02783 0.0
H638 H 0.92827 0.63137 1.0085 0.0
H639 H 0.94114 0.59303 0.94271 0.0
H640 H 0.26772 0.22626 0.35826 0.0
H641 H 0.2419 0.20492 0.38871 0.0
H642 H 0.18215 0.22853 0.35815 0.0
H643 H 0.20757 0.24963 0.32785 0.0
H644 H 0.17764 0.22658 0.40717 0.0
H645 H 0.19776 0.17891 0.33937 0.0
H646 H 0.22471 0.16126 0.31192 0.0
H647 H 0.25115 0.1311 0.37388 0.0
H648 H 0.22455 0.14886 0.40174 0.0
H649 H 0.07953 0.14199 0.41529 0.0
H650 H 0.11311 0.1698 0.40373 0.0
H651 H 0.15809 0.13636 0.44736 0.0
H652 H 0.12447 0.10859 0.4593 0.0
H653 H 0.17499 0.14396 0.40027 0.0
H654 H 0.14652 0.18678 0.46648 0.0
H655 H 0.11622 0.20294 0.49073 0.0
H656 H 0.10231 0.24109 0.42871 0.0
H657 H 0.13231 0.22494 0.40397 0.0
C658 C 0.24911 0.22712 0.35831 0.0
C659 C 0.23968 0.23959 0.34063 0.0
C660 C 0.23443 0.21498 0.37571 0.0
C661 C 0.21012 0.21502 0.3755 0.0
C662 C 0.20088 0.22841 0.35874 0.0
C663 C 0.21549 0.24053 0.34145 0.0
C664 C 0.19382 0.1996 0.39093 0.0
C665 C 0.17709 0.20851 0.40579 0.0
C666 C 0.19338 0.17606 0.38935 0.0
C667 C 0.20945 0.16548 0.37266 0.0
C668 C 0.20949 0.16869 0.34715 0.0
C669 C 0.22466 0.15864 0.33152 0.0
C670 C 0.2397 0.14514 0.34116 0.0
C671 C 0.23955 0.14162 0.36645 0.0
C672 C 0.22443 0.15168 0.38217 0.0
C673 C 0.09647 0.14081 0.42282 0.0
C674 C 0.0994 0.12308 0.4381 0.0
C675 C 0.11563 0.1567 0.41622 0.0
C676 C 0.138 0.1552 0.4249 0.0
C677 C 0.14093 0.13777 0.44052 0.0
C678 C 0.12176 0.12189 0.44718 0.0
C679 C 0.15849 0.17091 0.41605 0.0
C680 C 0.17596 0.16204 0.40234 0.0
C681 C 0.15935 0.19444 0.41837 0.0
C682 C 0.14165 0.20459 0.43335 0.0
C683 C 0.13695 0.19855 0.45798 0.0
C684 C 0.11982 0.20772 0.47182 0.0
C685 C 0.10734 0.22302 0.46126 0.0
C686 C 0.11201 0.22925 0.43687 0.0
C687 C 0.12912 0.22014 0.42295 0.0
H688 H 0.09407 0.23007 0.47199 0.0
H689 H 0.25142 0.13734 0.32903 0.0
H690 H 0.31172 0.83249 0.76702 0.0
H691 H 0.32858 0.84518 0.80673 0.0
H692 H 0.39591 0.86502 0.77089 0.0
H693 H 0.37926 0.85194 0.73138 0.0
H694 H 0.40186 0.84786 0.81378 0.0
H695 H 0.3582 0.90251 0.78313 0.0
H696 H 0.32371 0.91696 0.76776 0.0
H697 H 0.28613 0.89972 0.83542 0.0
H698 H 0.3203 0.88481 0.85106 0.0
H699 H 0.45305 0.94366 0.88186 0.0
H700 H 0.43572 0.91488 0.85252 0.0
H701 H 0.37884 0.89446 0.90409 0.0
H702 H 0.39617 0.92336 0.93356 0.0
H703 H 0.36501 0.90692 0.85817 0.0
H704 H 0.41472 0.85795 0.88996 0.0
H705 H 0.45252 0.84889 0.90353 0.0
H706 H 0.48234 0.8615 0.8312 0.0
H707 H 0.44473 0.87075 0.81721 0.0
C708 C 0.33017 0.83933 0.76776 0.0
C709 C 0.34421 0.84135 0.74624 0.0
C710 C 0.33976 0.84655 0.79037 0.0
C711 C 0.36341 0.85629 0.79165 0.0
C712 C 0.37765 0.85746 0.7703 0.0
C713 C 0.36814 0.85001 0.74777 0.0
C714 C 0.373 0.86679 0.81478 0.0
C715 C 0.39379 0.86075 0.82351 0.0
C716 C 0.36234 0.88349 0.82757 0.0
C717 C 0.34167 0.89222 0.81811 0.0
C718 C 0.34249 0.90157 0.79463 0.0
C719 C 0.32302 0.90989 0.78589 0.0
C720 C 0.3027 0.90917 0.80056 0.0
C721 C 0.30184 0.90018 0.82404 0.0
C722 C 0.32125 0.89179 0.83285 0.0
C723 C 0.43711 0.93269 0.88708 0.0
C724 C 0.4258 0.93568 0.90979 0.0
C725 C 0.42733 0.91621 0.87044 0.0
C726 C 0.40609 0.90257 0.87628 0.0
C727 C 0.39533 0.9048 0.89942 0.0
C728 C 0.40525 0.92117 0.9162 0.0
C729 C 0.39385 0.88806 0.85702 0.0
C730 C 0.37265 0.89352 0.84887 0.0
C731 C 0.40447 0.87133 0.84444 0.0
C732 C 0.4269 0.86507 0.85256 0.0
C733 C 0.42935 0.85883 0.87695 0.0
C734 C 0.45074 0.85365 0.88472 0.0
C735 C 0.46983 0.85465 0.86825 0.0
C736 C 0.46753 0.8607 0.84393 0.0
C737 C 0.44614 0.86583 0.83605 0.0
H738 H 0.48642 0.85074 0.87434 0.0
H739 H 0.28766 0.91565 0.79378 0.0
H740 H 0.6095 0.37918 0.72221 0.0
H741 H 0.59138 0.3951 0.68773 0.0
H742 H 0.60892 0.46135 0.72009 0.0
H743 H 0.62649 0.44559 0.75465 0.0
H744 H 0.56575 0.45652 0.70311 0.0
H745 H 0.6403 0.44044 0.66962 0.0
H746 H 0.66957 0.41588 0.65831 0.0
H747 H 0.61972 0.37553 0.61218 0.0
H748 H 0.59006 0.39971 0.62342 0.0
H749 H 0.54504 0.52446 0.60416 0.0
H750 H 0.56186 0.50593 0.63728 0.0
H751 H 0.5538 0.44408 0.59448 0.0
H752 H 0.53838 0.46312 0.56071 0.0
H753 H 0.59064 0.44432 0.6166 0.0
H754 H 0.51613 0.45751 0.64838 0.0
H755 H 0.48433 0.47916 0.65976 0.0
H756 H 0.52994 0.5207 0.70914 0.0
H757 H 0.56211 0.49948 0.69782 0.0
C758 C 0.60935 0.39713 0.72213 0.0
C759 C 0.61979 0.411 0.74137 0.0
C760 C 0.59914 0.4063 0.70216 0.0
C761 C 0.59896 0.42964 0.7008 0.0
C762 C 0.60883 0.44337 0.72032 0.0
C763 C 0.61911 0.43427 0.74014 0.0
C764 C 0.58845 0.43994 0.67941 0.0
C765 C 0.57144 0.45401 0.68422 0.0
C766 C 0.59497 0.43618 0.65446 0.0
C767 C 0.61288 0.42175 0.6476 0.0
C768 C 0.63553 0.42624 0.65721 0.0
C769 C 0.6522 0.41241 0.65077 0.0
C770 C 0.64649 0.39413 0.63458 0.0
C771 C 0.62412 0.38969 0.62471 0.0
C772 C 0.60738 0.40346 0.63111 0.0
C773 C 0.54684 0.5069 0.60175 0.0
C774 C 0.54015 0.49535 0.57962 0.0
C775 C 0.55632 0.49613 0.62096 0.0
C776 C 0.5587 0.47315 0.61915 0.0
C777 C 0.55226 0.4617 0.59682 0.0
C778 C 0.54331 0.47264 0.57737 0.0
C779 C 0.56802 0.46122 0.64025 0.0
C780 C 0.5848 0.44682 0.63543 0.0
C781 C 0.56088 0.46424 0.6652 0.0
C782 C 0.54159 0.47704 0.67207 0.0
C783 C 0.51942 0.47136 0.66155 0.0
C784 C 0.50133 0.48354 0.668 0.0
C785 C 0.50513 0.50133 0.68511 0.0
C786 C 0.52703 0.50694 0.69586 0.0
C787 C 0.54519 0.49483 0.68945 0.0
H788 H 0.4911 0.51074 0.69009 0.0
H789 H 0.6594 0.38342 0.62967 0.0
H790 H 0.9422 0.63676 0.26278 0.0
H791 H 0.95784 0.61696 0.22785 0.0
H792 H 0.89406 0.61852 0.18876 0.0
H793 H 0.87791 0.6372 0.22443 0.0
H794 H 0.90619 0.58155 0.17773 0.0
H795 H 0.95025 0.65483 0.17681 0.0
H796 H 0.9748 0.68878 0.19321 0.0
H797 H 0.02942 0.65021 0.20776 0.0
H798 H 1.00505 0.61594 0.19177 0.0
H799 H 0.96027 0.55414 0.06161 0.0
H800 H 0.94367 0.57628 0.09441 0.0
H801 H 0.99333 0.55808 0.1451 0.0
H802 H 0.00975 0.53587 0.11243 0.0
H803 H 0.9879 0.60509 0.14773 0.0
H804 H 0.94021 0.53132 0.14745 0.0
H805 H 0.91447 0.49956 0.12819 0.0
H806 H 0.86513 0.54328 0.11144 0.0
H807 H 0.89077 0.57539 0.13029 0.0
C808 C 0.93152 0.63289 0.24673 0.0
C809 C 0.90884 0.63873 0.2464 0.0
C810 C 0.94056 0.62167 0.22655 0.0
C811 C 0.92755 0.6166 0.20502 0.0
C812 C 0.90469 0.62216 0.20488 0.0
C813 C 0.89542 0.63292 0.22533 0.0
C814 C 0.93766 0.60538 0.18292 0.0
C815 C 0.92394 0.58707 0.17105 0.0
C816 C 0.96092 0.61218 0.17382 0.0
C817 C 0.97573 0.63277 0.18329 0.0
C818 C 0.96744 0.65356 0.18365 0.0
C819 C 0.98133 0.67286 0.19286 0.0
C820 C 1.00363 0.67164 0.20158 0.0
C821 C 0.01212 0.65112 0.20103 0.0
C822 C 0.99829 0.63175 0.19187 0.0
C823 C 0.96802 0.55536 0.07956 0.0
C824 C 0.98668 0.54366 0.08426 0.0
C825 C 0.95832 0.56778 0.09843 0.0
C826 C 0.96721 0.56894 0.12236 0.0
C827 C 0.98617 0.5576 0.12686 0.0
C828 C 0.99554 0.54487 0.10816 0.0
C829 C 0.95648 0.58135 0.14294 0.0
C830 C 0.9701 0.59983 0.15445 0.0
C831 C 0.93296 0.57511 0.15125 0.0
C832 C 0.91753 0.55579 0.14003 0.0
C833 C 0.92398 0.5342 0.13946 0.0
C834 C 0.90939 0.51613 0.12866 0.0
C835 C 0.88821 0.51941 0.11853 0.0
C836 C 0.88156 0.54077 0.11925 0.0
C837 C 0.89611 0.5589 0.13 0.0
H838 H 0.87693 0.5054 0.11018 0.0
H839 H 0.01436 0.68661 0.20871 0.0
H840 H 0.39183 0.18933 0.19803 0.0
H841 H 0.41383 0.16329 0.17562 0.0
H842 H 0.36163 0.15397 0.11952 0.0
H843 H 0.33941 0.17991 0.14197 0.0
H844 H 0.37361 0.11372 0.13627 0.0
H845 H 0.41186 0.18489 0.10709 0.0
H846 H 0.43208 0.22385 0.11136 0.0
H847 H 0.48757 0.20098 0.14998 0.0
H848 H 0.46749 0.16189 0.14627 0.0
H849 H 0.43415 0.05796 0.04554 0.0
H850 H 0.41244 0.08273 0.06967 0.0
H851 H 0.47089 0.09918 0.11811 0.0
H852 H 0.49324 0.075 0.09324 0.0
H853 H 0.45565 0.13566 0.10635 0.0
H854 H 0.41804 0.06434 0.13519 0.0
H855 H 0.39773 0.02535 0.13154 0.0
H856 H 0.3411 0.04804 0.0947 0.0
H857 H 0.36122 0.08714 0.09782 0.0
C858 C 0.38507 0.18172 0.18091 0.0
C859 C 0.36394 0.18659 0.17171 0.0
C860 C 0.39769 0.16698 0.16809 0.0
C861 C 0.38936 0.15682 0.14591 0.0
C862 C 0.36831 0.16169 0.13662 0.0
C863 C 0.35577 0.1766 0.14933 0.0
C864 C 0.40243 0.14076 0.13269 0.0
C865 C 0.39146 0.11851 0.12943 0.0
C866 C 0.42589 0.14699 0.12447 0.0
C867 C 0.43805 0.17048 0.12662 0.0
C868 C 0.42827 0.18818 0.11668 0.0
C869 C 0.43973 0.21029 0.11896 0.0
C870 C 0.46106 0.2149 0.13099 0.0
C871 C 0.47102 0.19739 0.1407 0.0
C872 C 0.45962 0.17525 0.1385 0.0
C873 C 0.44233 0.06659 0.06152 0.0
C874 C 0.4654 0.06447 0.06754 0.0
C875 C 0.42981 0.0807 0.07539 0.0
C876 C 0.43986 0.09257 0.09595 0.0
C877 C 0.46276 0.09015 0.10233 0.0
C878 C 0.47548 0.07628 0.08818 0.0
C879 C 0.42691 0.10842 0.10991 0.0
C880 C 0.43786 0.13072 0.11329 0.0
C881 C 0.40345 0.10217 0.11837 0.0
C882 C 0.39124 0.07866 0.11658 0.0
C883 C 0.40133 0.061 0.12616 0.0
C884 C 0.38984 0.03888 0.12421 0.0
C885 C 0.36816 0.03421 0.11285 0.0
C886 C 0.3579 0.05167 0.10347 0.0
C887 C 0.36933 0.07382 0.10536 0.0
H888 H 0.3593 1.01708 0.11135 0.0
H889 H 0.46991 0.23202 0.13274 0.0
H890 H 0.17808 0.86436 0.58764 0.0
H891 H 0.15007 0.88645 0.57135 0.0
H892 H 0.17562 0.94164 0.6203 0.0
H893 H 0.20434 0.92004 0.63612 0.0
H894 H 0.12492 0.93119 0.61659 0.0
H895 H 0.19528 0.94577 0.56588 0.0
H896 H 0.22737 0.93439 0.54003 0.0
H897 H 0.17735 0.90054 0.48937 0.0
H898 H 0.14493 0.91143 0.51515 0.0
H899 H 0.07595 1.01725 0.56179 0.0
H900 H 0.10264 0.99471 0.57974 0.0
H901 H 0.09118 0.94699 0.51906 0.0
H902 H 0.06539 0.97026 0.50041 0.0
H903 H 0.13479 0.95293 0.52915 0.0
H904 H 0.06441 0.93742 0.57845 0.0
H905 H 0.0314 0.94601 0.60464 0.0
H906 H 0.07948 0.97889 0.6578 0.0
H907 H 0.11286 0.97058 0.63174 0.0
C908 C 0.17782 0.88122 0.59491 0.0
C909 C 0.19363 0.89054 0.61298 0.0
C910 C 0.16172 0.89373 0.58568 0.0
C911 C 0.16105 0.91567 0.59451 0.0
C912 C 0.17596 0.92468 0.61333 0.0
C913 C 0.19226 0.91227 0.62241 0.0
C914 C 0.14547 0.92955 0.58325 0.0
C915 C 0.12716 0.93622 0.59756 0.0
C916 C 0.1482 0.93547 0.55828 0.0
C917 C 0.16768 0.92923 0.54256 0.0
C918 C 0.19112 0.93576 0.54932 0.0
C919 C 0.20937 0.92942 0.53468 0.0
C920 C 0.2044 0.9167 0.51311 0.0
C921 C 0.18117 0.91036 0.5061 0.0
C922 C 0.16285 0.91663 0.52071 0.0
C923 C 0.07926 1.00199 0.55227 0.0
C924 C 0.06871 0.9954 0.52978 0.0
C925 C 0.09434 0.98902 0.56262 0.0
C926 C 0.09853 0.96887 0.55104 0.0
C927 C 0.08817 0.96244 0.52837 0.0
C928 C 0.07346 0.97569 0.51773 0.0
C929 C 0.11394 0.95468 0.56244 0.0
C930 C 0.13236 0.94793 0.54816 0.0
C931 C 0.11112 0.94845 0.5874 0.0
C932 C 0.09111 0.95356 0.60304 0.0
C933 C 0.06794 0.94663 0.59563 0.0
C934 C 0.04916 0.95143 0.61049 0.0
C935 C 0.05332 0.96309 0.63287 0.0
C936 C 0.07629 0.9699 0.64045 0.0
C937 C 0.09514 0.96511 0.62566 0.0
H938 H 0.03881 0.96682 0.64441 0.0
H939 H 0.21855 0.9118 0.50179 0.0
H940 H 0.76021 0.40605 0.93782 0.0
H941 H 0.79635 0.42544 0.95552 0.0
H942 H 0.82564 0.4387 0.88271 0.0
H943 H 0.78913 0.41958 0.86488 0.0
H944 H 0.83796 0.41768 0.9563 0.0
H945 H 0.86831 0.48528 0.88321 0.0
H946 H 0.8512 0.50869 0.85417 0.0
H947 H 0.78772 0.50265 0.89805 0.0
H948 H 0.80458 0.47951 0.92754 0.0
H949 H 0.9557 0.46425 0.98198 0.0
H950 H 0.91961 0.44668 0.96252 0.0
H951 H 0.89106 0.50857 0.97171 0.0
H952 H 0.92761 0.5265 0.99014 0.0
H953 H 0.87787 0.49246 0.93054 0.0
H954 H 0.87467 0.45905 1.00945 0.0
H955 H 0.88847 0.43887 0.04372 0.0
H956 H 0.89163 0.38126 0.99635 0.0
H957 H 0.87811 0.4012 0.96172 0.0
C958 C 0.7743 0.4131 0.92549 0.0
C959 C 0.7716 0.41111 0.89982 0.0
C960 C 0.7951 0.42424 0.9357 0.0
C961 C 0.81404 0.43378 0.92065 0.0
C962 C 0.81135 0.43196 0.89495 0.0
C963 C 0.79037 0.42096 0.88469 0.0
C964 C 0.83654 0.44509 0.93202 0.0
C965 C 0.84664 0.43402 0.95054 0.0
C966 C 0.84798 0.46667 0.92513 0.0
C967 C 0.83762 0.48042 0.9074 0.0
C968 C 0.85071 0.48897 0.88667 0.0
C969 C 0.84106 0.50221 0.87014 0.0
C970 C 0.81836 0.50708 0.87421 0.0
C971 C 0.80527 0.49878 0.89486 0.0
C972 C 0.81485 0.48558 0.91147 0.0
C973 C 0.94173 0.47415 0.97997 0.0
C974 C 0.94467 0.49683 0.98791 0.0
C975 C 0.9209 0.46399 0.96888 0.0
C976 C 0.90206 0.47599 0.9659 0.0
C977 C 0.9051 0.49873 0.97365 0.0
C978 C 0.92608 0.50902 0.98435 0.0
C979 C 0.87934 0.46499 0.95472 0.0
C980 C 0.86924 0.47607 0.93621 0.0
C981 C 0.86745 0.44375 0.96218 0.0
C982 C 0.8756 0.4317 0.98294 0.0
C983 C 0.87847 0.44213 1.00631 0.0
C984 C 0.88621 0.43073 0.0258 0.0
C985 C 0.89099 0.40882 1.02219 0.0
C986 C 0.88796 0.39824 0.9991 0.0
C987 C 0.88024 0.40958 0.97954 0.0
H988 H 0.89698 0.40002 0.03731 0.0
H989 H 0.81092 0.51734 0.8614 0.0
H990 H 0.72408 0.62008 0.36229 0.0
H991 H 0.68775 0.60395 0.38342 0.0
H992 H 0.71738 0.62695 0.45311 0.0
H993 H 0.75406 0.64248 0.43218 0.0
H994 H 0.69527 0.58509 0.45668 0.0
H995 H 0.6757 0.65343 0.42541 0.0
H996 H 0.67156 0.68111 0.39385 0.0
H997 H 0.62443 0.63162 0.3543 0.0
H998 H 0.62851 0.60355 0.38548 0.0
H999 H 0.59078 0.57094 0.52992 0.0
H1000 H 0.62681 0.58558 0.50741 0.0
H1001 H 0.59452 0.56191 0.43913 0.0
H1002 H 0.5581 0.54757 0.46169 0.0
H1003 H 0.61777 0.60328 0.43401 0.0
H1004 H 0.63678 0.53511 0.46589 0.0
H1005 H 0.64075 0.50764 0.49773 0.0
H1006 H 0.68894 0.55694 0.53629 0.0
H1007 H 0.68503 0.58481 0.50483 0.0
C1008 C 0.72299 0.6216 0.38213 0.0
C1009 C 0.74217 0.63265 0.39544 0.0
C1010 C 0.70203 0.61255 0.39421 0.0
C1011 C 0.69957 0.61438 0.41993 0.0
C1012 C 0.7187 0.62532 0.43328 0.0
C1013 C 0.73966 0.6344 0.42121 0.0
C1014 C 0.6773 0.60453 0.43296 0.0
C1015 C 0.67838 0.58933 0.4519 0.0
C1016 C 0.65506 0.60949 0.42643 0.0
C1017 C 0.65261 0.62632 0.40764 0.0
C1018 C 0.66461 0.64839 0.40987 0.0
C1019 C 0.66224 0.66417 0.39208 0.0
C1020 C 0.64779 0.65811 0.37205 0.0
C1021 C 0.63564 0.63628 0.36981 0.0
C1022 C 0.63795 0.62044 0.38754 0.0
C1023 C 0.59136 0.56872 0.51011 0.0
C1024 C 0.57155 0.55805 0.49761 0.0
C1025 C 0.61207 0.57703 0.49723 0.0
C1026 C 0.61365 0.57468 0.47149 0.0
C1027 C 0.59386 0.56395 0.45895 0.0
C1028 C 0.57306 0.55566 0.47187 0.0
C1029 C 0.63575 0.58389 0.45777 0.0
C1030 C 0.63466 0.59898 0.43872 0.0
C1031 C 0.65799 0.57884 0.4642 0.0
C1032 C 0.66045 0.5621 0.48311 0.0
C1033 C 0.6481 0.54014 0.48125 0.0
C1034 C 0.65036 0.52449 0.49921 0.0
C1035 C 0.66505 0.53056 0.51905 0.0
C1036 C 0.67755 0.55227 0.52093 0.0
C1037 C 0.67534 0.56799 0.50302 0.0
H1038 H 0.66678 0.51842 0.53294 0.0
H1039 H 0.64598 0.67035 0.3583 0.0
H1040 H 0.20903 0.3162 0.17165 0.0
H1041 H 0.18204 0.33779 0.15296 0.0
H1042 H 0.2392 0.37386 0.11052 0.0
H1043 H 0.26665 0.35231 0.12966 0.0
H1044 H 0.20952 0.40169 0.13374 0.0
H1045 H 0.2024 0.33568 0.08199 0.0
H1046 H 0.19712 0.29496 0.0728 0.0
H1047 H 0.12915 0.28708 0.10833 0.0
H1048 H 0.13417 0.32771 0.11807 0.0
H1049 H 0.13065 0.44736 0.05648 0.0
H1050 H 0.16178 0.42903 0.07293 0.0
H1051 H 0.11066 0.38768 0.11799 0.0
H1052 H 0.07941 0.40593 0.10148 0.0
H1053 H 0.13947 0.36335 0.09037 0.0
H1054 H 0.1468 0.42731 0.14492 0.0
H1055 H 0.15105 0.46761 0.15602 0.0
H1056 H 0.21731 0.47907 0.11711 0.0
H1057 H 0.21331 0.4388 0.10547 0.0
C1058 C 0.2159 0.32879 0.15841 0.0
C1059 C 0.23994 0.33274 0.1522 0.0
C1060 C 0.20044 0.34099 0.14763 0.0
C1061 C 0.20863 0.35728 0.13027 0.0
C1062 C 0.23261 0.36129 0.12388 0.0
C1063 C 0.24818 0.34893 0.13465 0.0
C1064 C 0.19187 0.37016 0.11928 0.0
C1065 C 0.19446 0.39343 0.12378 0.0
C1066 C 0.17192 0.35918 0.10694 0.0
C1067 C 0.16874 0.33474 0.10091 0.0
C1068 C 0.1864 0.32525 0.088 0.0
C1069 C 0.18344 0.30218 0.08267 0.0
C1070 C 0.16283 0.28844 0.09001 0.0
C1071 C 0.14511 0.29775 0.10265 0.0
C1072 C 0.14799 0.3208 0.10806 0.0
C1073 C 0.12613 0.43447 0.07005 0.0
C1074 C 0.10268 0.42793 0.07768 0.0
C1075 C 0.14389 0.42413 0.07949 0.0
C1076 C 0.13846 0.40704 0.09664 0.0
C1077 C 0.11513 0.40085 0.10474 0.0
C1078 C 0.09737 0.41134 0.09546 0.0
C1079 C 0.15695 0.39481 0.10512 0.0
C1080 C 0.15467 0.37167 0.10009 0.0
C1081 C 0.17706 0.40589 0.11709 0.0
C1082 C 0.17963 0.43009 0.12408 0.0
C1083 C 0.16218 0.43845 0.13853 0.0
C1084 C 0.16456 0.46127 0.14497 0.0
C1085 C 0.1844 0.47589 0.13722 0.0
C1086 C 0.20194 0.46771 0.12306 0.0
C1087 C 0.19964 0.44488 0.11656 0.0
H1088 H 0.18617 0.49353 0.14228 0.0
H1089 H 0.16057 0.27058 0.08587 0.0
H1090 H 0.57274 0.25688 0.88677 0.0
H1091 H 0.55747 0.22191 0.90735 0.0
H1092 H 0.62793 0.20877 0.91697 0.0
H1093 H 0.64336 0.24343 0.89572 0.0
H1094 H 0.60048 0.17059 0.90387 0.0
H1095 H 0.59488 0.22815 0.9653 0.0
H1096 H 0.58333 0.26319 0.98259 0.0
H1097 H 0.51078 0.23662 0.97248 0.0
H1098 H 0.52191 0.20153 0.95482 0.0
H1099 H 0.56163 0.07889 0.98538 0.0
H1100 H 0.582 0.11372 0.96715 0.0
H1101 H 0.51575 0.13776 0.96119 0.0
H1102 H 0.4958 0.10381 0.98025 0.0
H1103 H 0.54439 0.17097 0.97436 0.0
H1104 H 0.54941 0.11467 0.91038 0.0
H1105 H 0.56036 0.0797 0.8922 0.0
H1106 H 0.63288 0.10361 0.90604 0.0
H1107 H 0.62231 0.13862 0.92458 0.0
C1108 C 0.58509 0.24652 0.893 0.0
C1109 C 0.60941 0.2533 0.88948 0.0
C1110 C 0.57627 0.22651 0.90509 0.0
C1111 C 0.59145 0.21259 0.91418 0.0
C1112 C 0.61572 0.21909 0.91034 0.0
C1113 C 0.62456 0.23915 0.8983 0.0
C1114 C 0.582 0.19138 0.92764 0.0
C1115 C 0.58844 0.17075 0.9195 0.0
C1116 C 0.56598 0.19122 0.94788 0.0
C1117 C 0.55925 0.21229 0.95854 0.0
C1118 C 0.57647 0.22984 0.9666 0.0
C1119 C 0.57 0.2497 0.97649 0.0
C1120 C 0.54634 0.25215 0.97858 0.0
C1121 C 0.5291 0.23472 0.97083 0.0
C1122 C 0.53548 0.21483 0.9609 0.0
C1123 C 0.55149 0.09167 0.98023 0.0
C1124 C 0.52702 0.08841 0.98426 0.0
C1125 C 0.56313 0.1116 0.96957 0.0
C1126 C 0.55054 0.12859 0.96222 0.0
C1127 C 0.52613 0.12524 0.96657 0.0
C1128 C 0.51463 0.10561 0.97747 0.0
C1129 C 0.56231 0.14994 0.95023 0.0
C1130 C 0.55641 0.17069 0.95874 0.0
C1131 C 0.57868 0.15015 0.93022 0.0
C1132 C 0.58504 0.12913 0.91911 0.0
C1133 C 0.56767 0.11239 0.9097 0.0
C1134 C 0.57381 0.09258 0.89931 0.0
C1135 C 0.59729 0.0894 0.89804 0.0
C1136 C 0.61469 0.10607 0.90709 0.0
C1137 C 0.60864 0.1259 0.91753 0.0
H1138 H 0.60201 0.07406 0.88998 0.0
H1139 H 0.54136 0.26754 0.98625 0.0
H1140 H 0.93248 0.77917 0.41427 0.0
H1141 H 0.95078 0.8148 0.4335 0.0
H1142 H 0.89247 0.8464 0.41229 0.0
H1143 H 0.87384 0.81073 0.39379 0.0
H1144 H 0.94169 0.87153 0.4028 0.0
H1145 H 0.89 0.83432 0.46609 0.0
H1146 H 0.8751 0.80274 0.49296 0.0
H1147 H 0.94341 0.80565 0.52335 0.0
H1148 H 0.9588 0.83706 0.49635 0.0
H1149 H 0.95984 0.9741 0.47036 0.0
H1150 H 0.94335 0.93843 0.45089 0.0
H1151 H 0.98389 0.90339 0.49804 0.0
H1152 H 0.99936 0.93904 0.51852 0.0
H1153 H 0.94512 0.87889 0.49366 0.0
H1154 H 0.99792 0.91531 0.43325 0.0
H1155 H 0.0157 0.94556 0.40589 0.0
H1156 H 0.95038 0.94276 0.36916 0.0
H1157 H 0.93211 0.91267 0.39652 0.0
C1158 C 0.92374 0.7938 0.41351 0.0
C1159 C 0.90176 0.79219 0.40249 0.0
C1160 C 0.93413 0.81411 0.42459 0.0
C1161 C 0.92297 0.83328 0.4244 0.0
C1162 C 0.90141 0.83187 0.41266 0.0
C1163 C 0.89079 0.81149 0.40211 0.0
C1164 C 0.93339 0.85469 0.43695 0.0
C1165 C 0.94227 0.87326 0.42268 0.0
C1166 C 0.93484 0.85675 0.46284 0.0
C1167 C 0.92562 0.83783 0.47897 0.0
C1168 C 0.90191 0.82806 0.47829 0.0
C1169 C 0.89336 0.81023 0.4936 0.0
C1170 C 0.90832 0.80214 0.5098 0.0
C1171 C 0.93185 0.8119 0.51076 0.0
C1172 C 0.94049 0.82971 0.49546 0.0
C1173 C 0.96519 0.95878 0.47664 0.0
C1174 C 0.98102 0.95948 0.49595 0.0
C1175 C 0.95589 0.93831 0.4653 0.0
C1176 C 0.96274 0.91799 0.47238 0.0
C1177 C 0.97827 0.91867 0.49201 0.0
C1178 C 0.98717 0.93912 0.50375 0.0
C1179 C 0.95352 0.89612 0.45957 0.0
C1180 C 0.94479 0.87734 0.47377 0.0
C1181 C 0.9527 0.89374 0.43354 0.0
C1182 C 0.96359 0.91188 0.41709 0.0
C1183 C 0.9873 0.92126 0.41946 0.0
C1184 C 0.99747 0.93836 0.40393 0.0
C1185 C 0.98416 0.94611 0.38584 0.0
C1186 C 0.96066 0.93675 0.3832 0.0
C1187 C 0.95039 0.91966 0.3987 0.0
H1188 H 0.99207 0.95935 0.37383 0.0
H1189 H 0.90166 0.78835 0.52165 0.0
H1190 H 0.37114 0.79026 0.54201 0.0
H1191 H 0.39118 0.76271 0.52007 0.0
H1192 H 0.3245 0.72544 0.49908 0.0
H1193 H 0.30427 0.75283 0.52171 0.0
H1194 H 0.34983 0.69993 0.5224 0.0
H1195 H 0.36444 0.74852 0.4549 0.0
H1196 H 0.37578 0.78455 0.43412 0.0
H1197 H 0.44556 0.78933 0.46124 0.0
H1198 H 0.43457 0.75351 0.48253 0.0
H1199 H 0.41895 0.61796 0.49229 0.0
H1200 H 0.39463 0.64543 0.4796 0.0
H1201 H 0.44492 0.69908 0.50941 0.0
H1202 H 0.46944 0.67174 0.52158 0.0
H1203 H 0.4219 0.71277 0.46969 0.0
H1204 H 0.40369 0.67285 0.54631 0.0
H1205 H 0.39392 0.63828 0.57016 0.0
H1206 H 0.33173 0.61919 0.52831 0.0
H1207 H 0.3414 0.6535 0.50389 0.0
C1208 C 0.36078 0.77645 0.53226 0.0
C1209 C 0.33619 0.77351 0.53373 0.0
C1210 C 0.37224 0.76084 0.51948 0.0
C1211 C 0.35934 0.74209 0.50774 0.0
C1212 C 0.33477 0.73988 0.50788 0.0
C1213 C 0.32325 0.75555 0.5207 0.0
C1214 C 0.37151 0.72335 0.49899 0.0
C1215 C 0.3651 0.70252 0.51014 0.0
C1216 C 0.39176 0.72689 0.48348 0.0
C1217 C 0.39864 0.74829 0.47035 0.0
C1218 C 0.38218 0.75729 0.45653 0.0
C1219 C 0.38855 0.77768 0.44466 0.0
C1220 C 0.41138 0.78922 0.44636 0.0
C1221 C 0.4279 0.78035 0.45991 0.0
C1222 C 0.42161 0.75997 0.47184 0.0
C1223 C 0.42505 0.63569 0.49545 0.0
C1224 C 0.4457 0.64284 0.50833 0.0
C1225 C 0.41126 0.65133 0.4881 0.0
C1226 C 0.41779 0.6742 0.49402 0.0
C1227 C 0.43958 0.6815 0.5047 0.0
C1228 C 0.45351 0.66589 0.51175 0.0
C1229 C 0.40043 0.68982 0.49362 0.0
C1230 C 0.406 0.71 0.481 0.0
C1231 C 0.37952 0.68589 0.50806 0.0
C1232 C 0.37341 0.66555 0.52308 0.0
C1233 C 0.388 0.66121 0.54211 0.0
C1234 C 0.38249 0.64167 0.55572 0.0
C1235 C 0.36225 0.62651 0.5507 0.0
C1236 C 0.34744 0.63092 0.53212 0.0
C1237 C 0.35293 0.65039 0.51838 0.0
H1238 H 0.35802 0.61139 0.56125 0.0
H1239 H 0.41627 0.80502 0.43717 0.0
H1240 H 0.76493 0.80674 0.6941 0.0
H1241 H 0.79609 0.8248 0.66674 0.0
H1242 H 0.78563 0.88974 0.6961 0.0
H1243 H 0.75527 0.87194 0.72422 0.0
H1244 H 0.79618 0.88793 0.6435 0.0
H1245 H 0.82323 0.8668 0.72227 0.0
H1246 H 0.8277 0.84002 0.75467 0.0
H1247 H 0.86249 0.8005 0.70296 0.0
H1248 H 0.85777 0.82683 0.67011 0.0
H1249 H 0.90274 0.96068 0.63162 0.0
H1250 H 0.8661 0.93784 0.64489 0.0
H1251 H 0.89564 0.87755 0.62702 0.0
H1252 H 0.93281 0.90059 0.61495 0.0
H1253 H 0.87429 0.873 0.66859 0.0
H1254 H 0.85247 0.8969 0.59081 0.0
H1255 H 0.84853 0.92389 0.55845 0.0
H1256 H 0.80461 0.95775 0.60669 0.0
H1257 H 0.80854 0.93116 0.63946 0.0
C1258 C 0.76903 0.82489 0.69452 0.0
C1259 C 0.75787 0.83786 0.71166 0.0
C1260 C 0.7867 0.83514 0.67876 0.0
C1261 C 0.79322 0.85851 0.6797 0.0
C1262 C 0.78072 0.87166 0.69514 0.0
C1263 C 0.76327 0.86142 0.71112 0.0
C1264 C 0.81486 0.86909 0.66711 0.0
C1265 C 0.81332 0.88475 0.64888 0.0
C1266 C 0.83706 0.86444 0.67391 0.0
C1267 C 0.8398 0.84858 0.69365 0.0
C1268 C 0.83156 0.85225 0.71773 0.0
C1269 C 0.83419 0.83718 0.7362 0.0
C1270 C 0.84529 0.81852 0.73086 0.0
C1271 C 0.85382 0.81492 0.70705 0.0
C1272 C 0.85115 0.82989 0.6885 0.0
C1273 C 0.90128 0.94254 0.63051 0.0
C1274 C 0.92036 0.93225 0.62234 0.0
C1275 C 0.88033 0.9295 0.63783 0.0
C1276 C 0.87791 0.90595 0.63638 0.0
C1277 C 0.89706 0.89568 0.62815 0.0
C1278 C 0.91823 0.90876 0.62133 0.0
C1279 C 0.85585 0.89216 0.64491 0.0
C1280 C 0.85726 0.87591 0.66259 0.0
C1281 C 0.83356 0.8962 0.63743 0.0
C1282 C 0.83091 0.91208 0.61765 0.0
C1283 C 0.84207 0.91017 0.59456 0.0
C1284 C 0.83983 0.9254 0.57614 0.0
C1285 C 0.82636 0.94255 0.58052 0.0
C1286 C 0.81504 0.94446 0.60332 0.0
C1287 C 0.81723 0.92929 0.62181 0.0
H1288 H 0.82467 0.95433 0.56625 0.0
H1289 H 0.84735 0.8069 0.74519 0.0
H1290 H 0.6455 0.19285 0.32103 0.0
H1291 H 0.62659 0.17581 0.2839 0.0
H1292 H 0.64993 0.11304 0.2995 0.0
H1293 H 0.66798 0.12962 0.337 0.0
H1294 H 0.64569 0.15895 0.24409 0.0
H1295 H 0.61066 0.06964 0.27984 0.0
H1296 H 0.59496 0.05199 0.31843 0.0
H1297 H 0.57263 0.11379 0.34302 0.0
H1298 H 0.58787 0.13171 0.30444 0.0
H1299 H 0.6274 0.08415 0.14417 0.0
H1300 H 0.63922 0.1002 0.18428 0.0
H1301 H 0.56659 0.09732 0.20673 0.0
H1302 H 0.55457 0.07992 0.16716 0.0
H1303 H 0.59098 0.08689 0.24352 0.0
H1304 H 0.59867 0.14641 0.18591 0.0
H1305 H 0.61196 0.16551 0.14737 0.0
H1306 H 0.68372 0.16668 0.16691 0.0
H1307 H 0.67085 0.14733 0.20544 0.0
C1308 C 0.64626 0.17532 0.3167 0.0
C1309 C 0.65823 0.16256 0.33186 0.0
C1310 C 0.63562 0.16568 0.29545 0.0
C1311 C 0.6367 0.14314 0.28914 0.0
C1312 C 0.6486 0.13037 0.30426 0.0
C1313 C 0.65914 0.13995 0.32551 0.0
C1314 C 0.62619 0.13306 0.26625 0.0
C1315 C 0.63362 0.14327 0.24396 0.0
C1316 C 0.61017 0.1128 0.26619 0.0
C1317 C 0.60059 0.10206 0.28931 0.0
C1318 C 0.60229 0.07943 0.29342 0.0
C1319 C 0.59349 0.06938 0.31531 0.0
C1320 C 0.58286 0.08178 0.33319 0.0
C1321 C 0.58094 0.10423 0.32919 0.0
C1322 C 0.58968 0.11434 0.30733 0.0
C1323 C 0.61392 0.08641 0.15782 0.0
C1324 C 0.59003 0.08098 0.15238 0.0
C1325 C 0.62071 0.09587 0.18062 0.0
C1326 C 0.60376 0.10046 0.19819 0.0
C1327 C 0.57993 0.09412 0.19329 0.0
C1328 C 0.57311 0.08439 0.1706 0.0
C1329 C 0.61093 0.1125 0.22136 0.0
C1330 C 0.6029 0.10266 0.24368 0.0
C1331 C 0.62599 0.13337 0.22148 0.0
C1332 C 0.63379 0.1453 0.19848 0.0
C1333 C 0.61728 0.15064 0.18193 0.0
C1334 C 0.62474 0.16152 0.16009 0.0
C1335 C 0.64867 0.16727 0.15468 0.0
C1336 C 0.66519 0.16221 0.17113 0.0
C1337 C 0.65783 0.15132 0.19298 0.0
H1338 H 0.65441 0.17567 0.13775 0.0
H1339 H 0.57609 0.07398 0.35013 0.0
H1340 H 0.41412 0.61922 0.27398 0.0
H1341 H 0.4313 0.60242 0.30824 0.0
H1342 H 0.40793 0.65173 0.35808 0.0
H1343 H 0.39223 0.66945 0.32327 0.0
H1344 H 0.4452 0.64462 0.37523 0.0
H1345 H 0.38007 0.59155 0.35012 0.0
H1346 H 0.3548 0.56658 0.3219 0.0
H1347 H 0.411 0.52897 0.30561 0.0
H1348 H 0.43672 0.5539 0.33351 0.0
H1349 H 0.46188 0.58086 0.48193 0.0
H1350 H 0.44469 0.59961 0.44909 0.0
H1351 H 0.47516 0.55846 0.395 0.0
H1352 H 0.49179 0.53924 0.4278 0.0
H1353 H 0.43281 0.56174 0.38162 0.0
H1354 H 0.49683 0.61707 0.41123 0.0
H1355 H 0.51767 0.64149 0.44323 0.0
H1356 H 0.45767 0.67502 0.45478 0.0
H1357 H 0.43614 0.65025 0.4236 0.0
C1358 C 0.4129 0.62663 0.29222 0.0
C1359 C 0.40182 0.64575 0.29577 0.0
C1360 C 0.42247 0.61678 0.31205 0.0
C1361 C 0.42049 0.62511 0.3364 0.0
C1362 C 0.40982 0.64462 0.33979 0.0
C1363 C 0.40077 0.65484 0.3198 0.0
C1364 C 0.42941 0.61355 0.35807 0.0
C1365 C 0.44213 0.62649 0.37663 0.0
C1366 C 0.42577 0.58978 0.3605 0.0
C1367 C 0.41039 0.57474 0.34372 0.0
C1368 C 0.38709 0.57805 0.34039 0.0
C1369 C 0.37268 0.56389 0.32447 0.0
C1370 C 0.38131 0.54624 0.31192 0.0
C1371 C 0.40435 0.54267 0.31531 0.0
C1372 C 0.41885 0.5568 0.3312 0.0
C1373 C 0.46495 0.57573 0.46306 0.0
C1374 C 0.4784 0.55841 0.45775 0.0
C1375 C 0.45516 0.58665 0.44412 0.0
C1376 C 0.45878 0.58092 0.41914 0.0
C1377 C 0.47198 0.56345 0.4139 0.0
C1378 C 0.48161 0.55242 0.43281 0.0
C1379 C 0.44882 0.59279 0.39845 0.0
C1380 C 0.43586 0.57987 0.38012 0.0
C1381 C 0.45167 0.61658 0.39666 0.0
C1382 C 0.4648 0.63165 0.41521 0.0
C1383 C 0.488 0.62951 0.42076 0.0
C1384 C 0.49991 0.64337 0.43883 0.0
C1385 C 0.48893 0.65968 0.45119 0.0
C1386 C 0.46607 0.66223 0.44541 0.0
C1387 C 0.45399 0.64826 0.42757 0.0
H1388 H 0.49817 0.6704 0.46516 0.0
H1389 H 0.37013 0.5353 0.2996 0.0
H1390 H 0.12351 0.44611 0.78271 0.0
H1391 H 0.10737 0.46644 0.81694 0.0
H1392 H 0.08748 0.40428 0.85493 0.0
H1393 H 0.10352 0.38384 0.82072 0.0
H1394 H 0.05317 0.42805 0.85992 0.0
H1395 H 0.13585 0.44435 0.87174 0.0
H1396 H 0.17718 0.45708 0.85991 0.0
H1397 H 0.16122 0.52274 0.84547 0.0
H1398 H 0.11971 0.51032 0.85689 0.0
H1399 H 0.02473 0.48176 0.97342 0.0
H1400 H 0.04286 0.45933 0.94223 0.0
H1401 H 0.06576 0.51919 0.90095 0.0
H1402 H 0.04884 0.54164 0.93278 0.0
H1403 H 0.09935 0.49515 0.89916 0.0
H1404 H 0.01603 0.47794 0.88634 0.0
H1405 H 0.97489 0.4648 0.89865 0.0
H1406 H 0.9924 0.40025 0.91559 0.0
H1407 H 0.03373 0.41313 0.90372 0.0
C1408 C 0.11595 0.43673 0.79843 0.0
C1409 C 0.11497 0.41322 0.79876 0.0
C1410 C 0.10665 0.44843 0.81811 0.0
C1411 C 0.09633 0.43707 0.83891 0.0
C1412 C 0.09522 0.41359 0.83922 0.0
C1413 C 0.10441 0.40186 0.8195 0.0
C1414 C 0.08658 0.44958 0.86018 0.0
C1415 C 0.06344 0.44254 0.86869 0.0
C1416 C 0.09964 0.46875 0.87163 0.0
C1417 C 0.12463 0.47634 0.86497 0.0
C1418 C 0.14112 0.46147 0.86589 0.0
C1419 C 0.16459 0.46863 0.85928 0.0
C1420 C 0.17181 0.49069 0.85189 0.0
C1421 C 0.15559 0.50565 0.85117 0.0
C1422 C 0.1321 0.49857 0.85774 0.0
C1423 C 0.03422 0.49019 0.95808 0.0
C1424 C 0.03584 0.5136 0.95601 0.0
C1425 C 0.04422 0.47728 0.93989 0.0
C1426 C 0.05565 0.48738 0.91884 0.0
C1427 C 0.05722 0.51081 0.91687 0.0
C1428 C 0.0474 0.52368 0.93511 0.0
C1429 C 0.06583 0.47382 0.89873 0.0
C1430 C 0.08908 0.48064 0.89044 0.0
C1431 C 0.05289 0.45441 0.88755 0.0
C1432 C 0.02801 0.44658 0.89438 0.0
C1433 C 0.01113 0.46099 0.89283 0.0
C1434 C 0.98778 0.45359 0.89972 0.0
C1435 C 0.98105 0.43173 0.90797 0.0
C1436 C 0.99765 0.4172 0.90925 0.0
C1437 C 0.02103 0.42453 0.90243 0.0
H1438 H 0.96297 0.42604 0.91331 0.0
H1439 H 0.18998 0.4962 0.84676 0.0
H1440 H 0.66358 0.8777 0.88599 0.0
H1441 H 0.63966 0.90337 0.90591 0.0
H1442 H 0.59136 0.84702 0.93288 0.0
H1443 H 0.61536 0.82106 0.91275 0.0
H1444 H 0.56963 0.88116 0.91101 0.0
H1445 H 0.62574 0.87416 0.97229 0.0
H1446 H 0.66538 0.87357 0.98778 0.0
H1447 H 0.68589 0.94226 0.96742 0.0
H1448 H 0.64647 0.94317 0.95145 0.0
H1449 H 0.51007 0.95534 0.98505 0.0
H1450 H 0.52956 0.92439 0.96949 0.0
H1451 H 0.59167 0.97148 0.95195 0.0
H1452 H 0.57267 1.00223 0.96899 0.0
H1453 H 0.60423 0.93806 0.97248 0.0
H1454 H 0.54987 0.94394 0.90692 0.0
H1455 H 0.5106 0.94453 0.89025 0.0
H1456 H 0.48708 0.87869 0.91806 0.0
H1457 H 0.52614 0.8777 0.93483 0.0
C1458 C 0.64784 0.87077 0.89613 0.0
C1459 C 0.64125 0.84742 0.89782 0.0
C1460 C 0.63427 0.88543 0.90757 0.0
C1461 C 0.61384 0.87705 0.92092 0.0
C1462 C 0.60711 0.85375 0.92264 0.0
C1463 C 0.62086 0.839 0.91134 0.0
C1464 C 0.59971 0.89292 0.93294 0.0
C1465 C 0.57697 0.89341 0.92476 0.0
C1466 C 0.60954 0.90903 0.95054 0.0
C1467 C 0.63317 0.90868 0.96052 0.0
C1468 C 0.63874 0.8891 0.97097 0.0
C1469 C 0.66117 0.88871 0.97985 0.0
C1470 C 0.67816 0.90785 0.97855 0.0
C1471 C 0.67272 0.92745 0.96842 0.0
C1472 C 0.65032 0.92792 0.95947 0.0
C1473 C 0.5278 0.95906 0.97759 0.0
C1474 C 0.53989 0.98113 0.97805 0.0
C1475 C 0.53891 0.94137 0.96862 0.0
C1476 C 0.56201 0.94557 0.95915 0.0
C1477 C 0.57387 0.96776 0.95919 0.0
C1478 C 0.56299 0.98534 0.96879 0.0
C1479 C 0.57428 0.92693 0.94999 0.0
C1480 C 0.59671 0.92582 0.95882 0.0
C1481 C 0.56419 0.91036 0.93285 0.0
C1482 C 0.54087 0.91081 0.92225 0.0
C1483 C 0.53629 0.92961 0.90948 0.0
C1484 C 0.51408 0.92999 0.89998 0.0
C1485 C 0.49636 0.91162 0.90304 0.0
C1486 C 0.50083 0.89284 0.91557 0.0
C1487 C 0.52301 0.89234 0.92503 0.0
H1488 H 0.47919 0.91191 0.89568 0.0
H1489 H 0.69552 0.90751 0.98542 0.0
H1490 H 0.84579 0.17772 0.47281 0.0
H1491 H 0.87608 0.15713 0.48761 0.0
H1492 H 0.83799 0.09519 0.4587 0.0
H1493 H 0.80769 0.1155 0.44424 0.0
H1494 H 0.85192 0.09122 0.50563 0.0
H1495 H 0.88496 0.11931 0.42845 0.0
H1496 H 0.89837 0.1485 0.39815 0.0
H1497 H 0.94884 0.18138 0.44893 0.0
H1498 H 0.93549 0.15253 0.47968 0.0
H1499 H 0.96407 0.03774 0.49117 0.0
H1500 H 0.93627 0.06034 0.47504 0.0
H1501 H 0.92339 0.08539 0.54832 0.0
H1502 H 0.9514 0.06307 0.56452 0.0
H1503 H 0.93536 0.10748 0.47821 0.0
H1504 H 0.86328 0.08461 0.55275 0.0
H1505 H 0.8493 0.05358 0.58076 0.0
H1506 H 0.87588 1.00686 0.53059 0.0
H1507 H 0.88968 0.03753 0.50215 0.0
C1508 C 0.84394 0.15971 0.46969 0.0
C1509 C 0.82454 0.1482 0.45725 0.0
C1510 C 0.86125 0.14803 0.478 0.0
C1511 C 0.85925 0.1247 0.47408 0.0
C1512 C 0.83982 0.1132 0.46184 0.0
C1513 C 0.82265 0.12485 0.45343 0.0
C1514 C 0.8772 0.11204 0.483 0.0
C1515 C 0.87018 0.09484 0.49972 0.0
C1516 C 0.90091 0.1166 0.47496 0.0
C1517 C 0.90905 0.1339 0.45646 0.0
C1518 C 0.89878 0.13287 0.43324 0.0
C1519 C 0.9064 0.14933 0.41597 0.0
C1520 C 0.9244 0.16682 0.42164 0.0
C1521 C 0.93487 0.16784 0.44458 0.0
C1522 C 0.9273 0.15143 0.46193 0.0
C1523 C 0.95537 0.04815 0.50379 0.0
C1524 C 0.95972 0.04866 0.52907 0.0
C1525 C 0.93964 0.0611 0.49456 0.0
C1526 C 0.92783 0.07441 0.51054 0.0
C1527 C 0.93232 0.0751 0.53577 0.0
C1528 C 0.94823 0.06234 0.54497 0.0
C1529 C 0.91006 0.0869 0.501 0.0
C1530 C 0.91712 0.10403 0.48422 0.0
C1531 C 0.88629 0.08206 0.50867 0.0
C1532 C 0.87774 0.06343 0.52548 0.0
C1533 C 0.86606 0.0677 0.54768 0.0
C1534 C 0.85817 0.05018 0.56362 0.0
C1535 C 0.86177 0.02828 0.5575 0.0
C1536 C 0.87319 0.02384 0.53536 0.0
C1537 C 0.88108 0.0413 0.51934 0.0
H1538 H 0.85567 1.01474 0.56987 0.0
H1539 H 0.93027 0.17955 0.40825 0.0
H1540 H 0.23759 0.6268 0.17092 0.0
H1541 H 0.20136 0.60688 0.15333 0.0
H1542 H 0.21627 0.64324 0.08633 0.0
H1543 H 0.25312 0.66194 0.1027 0.0
H1544 H 0.16714 0.64205 0.11102 0.0
H1545 H 0.22361 0.59576 0.07899 0.0
H1546 H 0.25508 0.57284 0.08371 0.0
H1547 H 0.21027 0.52869 0.13145 0.0
H1548 H 0.17852 0.55143 0.12712 0.0
H1549 H 0.07913 0.59012 0.03099 0.0
H1550 H 0.11564 0.60766 0.04967 0.0
H1551 H 0.11453 0.55 0.09531 0.0
H1552 H 0.07876 0.53188 0.07553 0.0
H1553 H 0.15653 0.56195 0.08413 0.0
H1554 H 0.09931 0.60512 0.11588 0.0
H1555 H 0.06737 0.62796 0.1147 0.0
H1556 H 0.11181 0.6779 0.07316 0.0
H1557 H 0.14393 0.65523 0.07382 0.0
C1558 C 0.23355 0.63039 0.15228 0.0
C1559 C 0.24862 0.64651 0.13862 0.0
C1560 C 0.21257 0.61905 0.14231 0.0
C1561 C 0.20585 0.62372 0.11856 0.0
C1562 C 0.22082 0.63953 0.10481 0.0
C1563 C 0.24197 0.65044 0.11447 0.0
C1564 C 0.18331 0.61224 0.10787 0.0
C1565 C 0.16484 0.62459 0.10493 0.0
C1566 C 0.17994 0.58929 0.10059 0.0
C1567 C 0.19881 0.57542 0.10294 0.0
C1568 C 0.22052 0.58125 0.09063 0.0
C1569 C 0.23837 0.56825 0.09317 0.0
C1570 C 0.23466 0.54932 0.10789 0.0
C1571 C 0.21306 0.54331 0.12002 0.0
C1572 C 0.19513 0.55623 0.1175 0.0
C1573 C 0.08664 0.58115 0.04501 0.0
C1574 C 0.07582 0.55956 0.05174 0.0
C1575 C 0.10756 0.59132 0.05593 0.0
C1576 C 0.11793 0.58058 0.07457 0.0
C1577 C 0.10717 0.55888 0.08111 0.0
C1578 C 0.08656 0.54848 0.06977 0.0
C1579 C 0.13999 0.59176 0.08697 0.0
C1580 C 0.1585 0.57938 0.09028 0.0
C1581 C 0.1432 0.61464 0.09509 0.0
C1582 C 0.12395 0.62837 0.09471 0.0
C1583 C 0.10222 0.62091 0.10636 0.0
C1584 C 0.08409 0.63383 0.1058 0.0
C1585 C 0.08754 0.65434 0.09382 0.0
C1586 C 0.10915 0.662 0.08242 0.0
C1587 C 0.12734 0.64913 0.0829 0.0
H1588 H 0.07348 0.66432 0.0934 0.0
H1589 H 0.24851 0.53929 0.10987 0.0
H1590 H 0.26607 0.41127 0.60789 0.0
H1591 H 0.30239 0.42663 0.58627 0.0
H1592 H 0.33277 0.45114 0.65515 0.0
H1593 H 0.29647 0.43579 0.67692 0.0
H1594 H 0.34306 0.48235 0.62191 0.0
H1595 H 0.34802 0.40376 0.62383 0.0
H1596 H 0.33524 0.36315 0.61718 0.0
H1597 H 0.33232 0.3728 0.53951 0.0
H1598 H 0.34476 0.41353 0.54572 0.0
H1599 H 0.46152 0.50624 0.57506 0.0
H1600 H 0.42551 0.49151 0.59803 0.0
H1601 H 0.39244 0.46789 0.53014 0.0
H1602 H 0.42838 0.48234 0.50722 0.0
H1603 H 0.38412 0.43612 0.56366 0.0
H1604 H 0.37893 0.51479 0.56187 0.0
H1605 H 0.39261 0.55526 0.5685 0.0
H1606 H 0.39649 0.54528 0.64602 0.0
H1607 H 0.38321 0.50467 0.6398 0.0
C1608 C 0.28053 0.41971 0.61854 0.0
C1609 C 0.2782 0.42218 0.64426 0.0
C1610 C 0.30137 0.42854 0.60609 0.0
C1611 C 0.3206 0.4399 0.61901 0.0
C1612 C 0.31828 0.44252 0.64466 0.0
C1613 C 0.2974 0.43376 0.65712 0.0
C1614 C 0.34295 0.4493 0.60578 0.0
C1615 C 0.35219 0.47211 0.60945 0.0
C1616 C 0.35478 0.43621 0.58904 0.0
C1617 C 0.34707 0.41175 0.58528 0.0
C1618 C 0.34444 0.39726 0.60536 0.0
C1619 C 0.3373 0.37421 0.60166 0.0
C1620 C 0.33291 0.36541 0.57795 0.0
C1621 C 0.33569 0.37964 0.55787 0.0
C1622 C 0.34279 0.40271 0.56147 0.0
C1623 C 0.44651 0.49803 0.56504 0.0
C1624 C 0.44784 0.49546 0.5393 0.0
C1625 C 0.42587 0.48966 0.57819 0.0
C1626 C 0.40607 0.47863 0.56588 0.0
C1627 C 0.4074 0.47623 0.54014 0.0
C1628 C 0.42797 0.4846 0.52703 0.0
C1629 C 0.38412 0.46915 0.57969 0.0
C1630 C 0.37498 0.44633 0.57615 0.0
C1631 C 0.37241 0.48222 0.59654 0.0
C1632 C 0.38031 0.50665 0.60033 0.0
C1633 C 0.38289 0.52119 0.58031 0.0
C1634 C 0.39055 0.54416 0.58399 0.0
C1635 C 0.39547 0.55283 0.60766 0.0
C1636 C 0.3927 0.53854 0.62769 0.0
C1637 C 0.38511 0.51555 0.6241 0.0
H1638 H 0.40139 0.57061 0.61047 0.0
H1639 H 0.32741 0.34756 0.57512 0.0
H1640 H 0.75184 0.69756 0.89871 0.0
H1641 H 0.77609 0.67451 0.92023 0.0
H1642 H 0.83461 0.69735 0.87169 0.0
H1643 H 0.81114 0.72107 0.85093 0.0
H1644 H 0.82466 0.64911 0.87805 0.0
H1645 H 0.83552 0.72006 0.9246 0.0
H1646 H 0.82127 0.75038 0.94921 0.0
H1647 H 0.7903 0.70256 1.00232 0.0
H1648 H 0.80413 0.6719 0.97782 0.0
H1649 H 0.93014 0.62997 0.92846 0.0
H1650 H 0.89718 0.64425 0.91044 0.0
H1651 H 0.85512 0.62697 0.97591 0.0
H1652 H 0.88831 0.61309 0.99421 0.0
H1653 H 0.85074 0.66736 0.96331 0.0
H1654 H 0.84408 0.597 0.92079 0.0
H1655 H 0.85709 0.56581 0.89659 0.0
H1656 H 0.87791 0.61003 0.83669 0.0
H1657 H 0.86525 0.64155 0.86062 0.0
C1658 C 0.76993 0.69785 0.89279 0.0
C1659 C 0.77943 0.71099 0.87289 0.0
C1660 C 0.78367 0.68456 0.90498 0.0
C1661 C 0.807 0.68414 0.89731 0.0
C1662 C 0.81652 0.69724 0.8776 0.0
C1663 C 0.80299 0.7107 0.86568 0.0
C1664 C 0.82196 0.67047 0.90997 0.0
C1665 C 0.83045 0.65304 0.89668 0.0
C1666 C 0.82878 0.67524 0.93449 0.0
C1667 C 0.82058 0.69367 0.94923 0.0
C1668 C 0.82548 0.71599 0.94141 0.0
C1669 C 0.81752 0.73324 0.95536 0.0
C1670 C 0.80481 0.72839 0.97727 0.0
C1671 C 0.8001 0.70628 0.98532 0.0
C1672 C 0.808 0.68897 0.97142 0.0
C1673 C 0.91375 0.62895 0.93884 0.0
C1674 C 0.91174 0.62048 0.96271 0.0
C1675 C 0.8949 0.63703 0.92852 0.0
C1676 C 0.87354 0.63639 0.9417 0.0
C1677 C 0.87141 0.62761 0.96542 0.0
C1678 C 0.89036 0.61974 0.97585 0.0
C1679 C 0.85404 0.64619 0.93121 0.0
C1680 C 0.84467 0.66296 0.94487 0.0
C1681 C 0.84618 0.64059 0.90709 0.0
C1682 C 0.85383 0.62168 0.89258 0.0
C1683 C 0.85158 0.60012 0.90252 0.0
C1684 C 0.85886 0.58237 0.88883 0.0
C1685 C 0.86836 0.58595 0.86514 0.0
C1686 C 0.87055 0.60728 0.85505 0.0
C1687 C 0.86327 0.62508 0.86865 0.0
H1688 H 0.87399 0.57218 0.85457 0.0
H1689 H 0.79867 0.74176 0.98805 0.0
H1690 H 0.44583 0.80638 0.159 0.0
H1691 H 0.46036 0.84189 0.1393 0.0
H1692 H 0.39074 0.84666 0.11581 0.0
H1693 H 0.37565 0.81179 0.13653 0.0
H1694 H 0.42633 0.85798 0.07783 0.0
H1695 H 0.41043 0.87836 0.16189 0.0
H1696 H 0.413 0.87596 0.20686 0.0
H1697 H 0.48786 0.8936 0.20147 0.0
H1698 H 0.48576 0.89579 0.15639 0.0
H1699 H 0.45713 0.97332 0.03978 0.0
H1700 H 0.43765 0.93777 0.05731 0.0
H1701 H 0.49847 0.93467 0.10073 0.0
H1702 H 0.51722 0.97025 0.08424 0.0
H1703 H 0.46409 0.92242 0.12837 0.0
H1704 H 0.48151 0.90068 0.04505 0.0
H1705 H 0.48037 0.90263 0.9999 0.0
H1706 H 0.40529 0.88675 1.00297 0.0
H1707 H 0.40596 0.88502 0.0482 0.0
C1708 C 0.43334 0.81496 0.15006 0.0
C1709 C 0.40931 0.8057 0.14979 0.0
C1710 C 0.44184 0.83535 0.13847 0.0
C1711 C 0.42676 0.84719 0.12591 0.0
C1712 C 0.4029 0.83792 0.12512 0.0
C1713 C 0.39429 0.81769 0.13703 0.0
C1714 C 0.43577 0.86956 0.11447 0.0
C1715 C 0.43434 0.87216 0.08893 0.0
C1716 C 0.44665 0.88813 0.12865 0.0
C1717 C 0.44795 0.88704 0.15575 0.0
C1718 C 0.42745 0.88157 0.17028 0.0
C1719 C 0.42883 0.88027 0.19579 0.0
C1720 C 0.45059 0.88457 0.20701 0.0
C1721 C 0.47102 0.89024 0.19275 0.0
C1722 C 0.46975 0.89154 0.16722 0.0
C1723 C 0.46627 0.96503 0.0531 0.0
C1724 C 0.48878 0.97482 0.06059 0.0
C1725 C 0.45518 0.94451 0.06305 0.0
C1726 C 0.46651 0.93299 0.08039 0.0
C1727 C 0.48902 0.9429 0.08763 0.0
C1728 C 0.49986 0.9634 0.07803 0.0
C1729 C 0.45525 0.91094 0.09146 0.0
C1730 C 0.45614 0.90835 0.11708 0.0
C1731 C 0.4442 0.89233 0.07724 0.0
C1732 C 0.44377 0.89296 0.05004 0.0
C1733 C 0.46475 0.89772 0.03611 0.0
C1734 C 0.46419 0.89879 1.0105 0.0
C1735 C 0.44276 0.89489 0.99858 0.0
C1736 C 0.42186 0.88981 1.01223 0.0
C1737 C 0.42232 0.88877 0.03786 0.0
H1738 H 0.44236 0.89575 0.97875 0.0
H1739 H 0.45162 0.88355 0.22677 0.0
H1740 H 0.11423 0.24427 0.67943 0.0
H1741 H 0.09636 0.20738 0.66326 0.0
H1742 H 0.11162 0.23002 0.58926 0.0
H1743 H 0.12883 0.26691 0.60521 0.0
H1744 H 0.0691 0.2061 0.59173 0.0
H1745 H 0.14582 0.19615 0.61846 0.0
H1746 H 0.17748 0.19702 0.64818 0.0
H1747 H 0.1322 0.15175 0.69443 0.0
H1748 H 0.10017 0.15083 0.66511 0.0
H1749 H 0.05412 0.10173 0.52671 0.0
H1750 H 0.07018 0.13822 0.54477 0.0
H1751 H 0.05916 0.11085 0.61736 0.0
H1752 H 0.04406 0.07407 0.59929 0.0
H1753 H 0.09836 0.13711 0.61698 0.0
H1754 H 0.0218 0.14615 0.59044 0.0
H1755 H 0.98996 0.14472 0.56083 0.0
H1756 H 0.03398 0.19139 0.51499 0.0
H1757 H 0.06619 0.19289 0.54418 0.0
C1758 C 0.11351 0.24148 0.65972 0.0
C1759 C 0.12322 0.2586 0.64368 0.0
C1760 C 0.10349 0.22027 0.65047 0.0
C1761 C 0.10292 0.21566 0.62497 0.0
C1762 C 0.1119 0.23298 0.60898 0.0
C1763 C 0.12194 0.25409 0.61818 0.0
C1764 C 0.09325 0.19288 0.61476 0.0
C1765 C 0.07568 0.19106 0.59711 0.0
C1766 C 0.10132 0.17303 0.62208 0.0
C1767 C 0.12053 0.17363 0.63973 0.0
C1768 C 0.14256 0.18654 0.63507 0.0
C1769 C 0.16058 0.187 0.65182 0.0
C1770 C 0.15683 0.1745 0.67322 0.0
C1771 C 0.13506 0.16146 0.67788 0.0
C1772 C 0.11698 0.16095 0.66119 0.0
C1773 C 0.05517 0.10344 0.54653 0.0
C1774 C 0.04769 0.08492 0.56153 0.0
C1775 C 0.06423 0.12444 0.5569 0.0
C1776 C 0.06548 0.12764 0.58258 0.0
C1777 C 0.05838 0.10901 0.59754 0.0
C1778 C 0.0497 0.08792 0.58715 0.0
C1779 C 0.07421 0.15029 0.59386 0.0
C1780 C 0.09164 0.1521 0.61169 0.0
C1781 C 0.06589 0.17012 0.58682 0.0
C1782 C 0.04645 0.16949 0.56941 0.0
C1783 C 0.02472 0.15602 0.57398 0.0
C1784 C 1.00661 0.15521 0.55728 0.0
C1785 C 0.00996 0.16792 0.53602 0.0
C1786 C 0.03141 0.18154 0.53146 0.0
C1787 C 0.04959 0.1824 0.54809 0.0
H1788 H 0.99592 0.16725 0.5231 0.0
H1789 H 0.1708 0.17488 0.68616 0.0
H1790 H 0.70725 0.29685 0.52109 0.0
H1791 H 0.68293 0.3249 0.53466 0.0
H1792 H 0.62397 0.27238 0.54535 0.0
H1793 H 0.64817 0.24442 0.53108 0.0
H1794 H 0.61396 0.30086 0.51403 0.0
H1795 H 0.64643 0.30793 0.59352 0.0
H1796 H 0.67721 0.3125 0.62455 0.0
H1797 H 0.70507 0.37728 0.5964 0.0
H1798 H 0.67467 0.37299 0.56496 0.0
H1799 H 0.54119 0.38396 0.52772 0.0
H1800 H 0.56177 0.35429 0.54213 0.0
H1801 H 0.62816 0.39436 0.52381 0.0
H1802 H 0.60775 0.42428 0.50994 0.0
H1803 H 0.62996 0.36985 0.56634 0.0
H1804 H 0.6034 0.35845 0.48247 0.0
H1805 H 0.57338 0.35446 0.45059 0.0
H1806 H 0.53528 0.29744 0.48726 0.0
H1807 H 0.56493 0.30133 0.51959 0.0
C1808 C 0.68938 0.29128 0.52733 0.0
C1809 C 0.67946 0.2686 0.52499 0.0
C1810 C 0.67547 0.3073 0.53513 0.0
C1811 C 0.65157 0.30075 0.541 0.0
C1812 C 0.64233 0.27781 0.54086 0.0
C1813 C 0.65614 0.26186 0.5328 0.0
C1814 C 0.63554 0.31779 0.5427 0.0
C1815 C 0.61708 0.31559 0.52608 0.0
C1816 C 0.63996 0.33736 0.55786 0.0
C1817 C 0.65833 0.34005 0.57674 0.0
C1818 C 0.65923 0.32308 0.5938 0.0
C1819 C 0.6766 0.32564 0.6115 0.0
C1820 C 0.69312 0.34515 0.61241 0.0
C1821 C 0.69228 0.36216 0.59565 0.0
C1822 C 0.67495 0.35969 0.57792 0.0
C1823 C 0.56018 0.38663 0.52727 0.0
C1824 C 0.57289 0.40623 0.51729 0.0
C1825 C 0.57189 0.36969 0.53549 0.0
C1826 C 0.59644 0.37209 0.53377 0.0
C1827 C 0.6092 0.39221 0.52527 0.0
C1828 C 0.59752 0.40913 0.51703 0.0
C1829 C 0.60874 0.35274 0.53769 0.0
C1830 C 0.62652 0.35467 0.55504 0.0
C1831 C 0.60385 0.33288 0.52317 0.0
C1832 C 0.5862 0.33034 0.50358 0.0
C1833 C 0.58853 0.34516 0.48382 0.0
C1834 C 0.5716 0.34291 0.46567 0.0
C1835 C 0.55239 0.32575 0.46694 0.0
C1836 C 0.55013 0.31076 0.48633 0.0
C1837 C 0.56699 0.31297 0.50457 0.0
H1838 H 0.5393 0.32404 0.45288 0.0
H1839 H 0.70654 0.3471 0.62614 0.0
loop_
_geom_bond_atom_site_label_1
_geom_bond_atom_site_label_2
_geom_bond_distance
_geom_bond_site_symmetry_2
_ccdc_geom_bond_type
C0 C1 1.391 . S
C0 C4 1.391 . S
C0 H42 0.948 . S
C1 C0 1.391 . S
C1 C2 1.391 . S
C2 C1 1.391 . S
C2 H58 0.947 . S
C2 C59 1.392 . S
C3 C4 1.391 . S
C3 C7 1.397 . S
C3 C59 1.419 . S
C4 C0 1.391 . S
C4 C3 1.391 . S
C4 C5 1.399 . S
C5 C4 1.399 . S
C5 C8 1.396 . S
C5 C17 1.453 . S
C5 C18 1.684 . S
H6 C30 0.948 . S
C7 C3 1.397 . S
C7 C8 1.394 . S
C7 C26 1.723 . S
C8 C5 1.396 . S
C8 C7 1.394 . S
C8 C38 1.723 . S
H9 C32 0.947 . S
H10 C33 0.948 . S
H11 C39 0.982 . S
H12 C40 0.979 . S
H13 C40 0.980 . S
H14 C40 0.983 . S
H15 C39 0.979 . S
H16 C39 0.977 . S
C17 C5 1.453 . S
C17 H46 0.982 . S
C17 H47 0.979 . S
C17 H48 0.977 . S
C18 C5 1.684 . S
C18 H43 0.979 . S
C18 H44 0.980 . S
C18 H45 0.983 . S
C19 C20 1.391 . S
C19 C24 1.391 . S
C19 H49 0.948 . S
C20 C19 1.391 . S
C20 C21 1.391 . S
C21 C20 1.391 . S
C21 C22 1.392 . S
C21 H50 0.947 . S
C22 C21 1.392 . S
C22 C23 1.419 . S
C22 H51 0.948 . S
C23 C22 1.419 . S
C23 C24 1.391 . S
C23 C27 1.397 . S
C24 C19 1.391 . S
C24 C23 1.391 . S
C24 C25 1.399 . S
C25 C24 1.399 . S
C25 C26 1.396 . S
C25 C28 1.453 . S
C25 C29 1.684 . S
C26 C7 1.723 . S
C26 C25 1.396 . S
C26 C27 1.394 . S
C27 C23 1.397 . S
C27 C26 1.394 . S
C27 C37 1.723 . S
C28 C25 1.453 . S
C28 H52 0.982 . S
C28 H53 0.979 . S
C28 H54 0.977 . S
C29 C25 1.684 . S
C29 H55 0.979 . S
C29 H56 0.980 . S
C29 H57 0.983 . S
C30 H6 0.948 . S
C30 C31 1.391 . S
C30 C35 1.391 . S
C31 C30 1.391 . S
C31 C32 1.391 . S
C32 H9 0.947 . S
C32 C31 1.391 . S
C32 C33 1.392 . S
C33 H10 0.948 . S
C33 C32 1.392 . S
C33 C34 1.419 . S
C34 C33 1.419 . S
C34 C35 1.391 . S
C34 C38 1.397 . S
C35 C30 1.391 . S
C35 C34 1.391 . S
C35 C36 1.399 . S
C36 C35 1.399 . S
C36 C37 1.396 . S
C36 C39 1.453 . S
C36 C40 1.684 . S
C37 C27 1.723 . S
C37 C36 1.396 . S
C37 C38 1.394 . S
C38 C8 1.723 . S
C38 C34 1.397 . S
C38 C37 1.394 . S
C39 H11 0.982 . S
C39 H15 0.979 . S
C39 H16 0.977 . S
C39 C36 1.453 . S
C40 H12 0.979 . S
C40 H13 0.980 . S
C40 H14 0.983 . S
C40 C36 1.684 . S
H41 C59 0.948 . S
H42 C0 0.948 . S
H43 C18 0.979 . S
H44 C18 0.980 . S
H45 C18 0.983 . S
H46 C17 0.982 . S
H47 C17 0.979 . S
H48 C17 0.977 . S
H49 C19 0.948 . S
H50 C21 0.947 . S
H51 C22 0.948 . S
H52 C28 0.982 . S
H53 C28 0.979 . S
H54 C28 0.977 . S
H55 C29 0.979 . S
H56 C29 0.980 . S
H57 C29 0.983 . S
H58 C2 0.947 . S
C59 C2 1.392 . S
C59 C3 1.419 . S
C59 H41 0.948 . S
C60 C61 1.391 . S
C60 C64 1.391 . S
C60 H102 0.948 . S
C61 C60 1.391 . S
C61 C62 1.391 . S
C62 C61 1.391 . S
C62 H118 0.947 . S
C62 C119 1.392 . S
C63 C64 1.391 . S
C63 C67 1.397 . S
C63 C119 1.419 . S
C64 C60 1.391 . S
C64 C63 1.391 . S
C64 C65 1.399 . S
C65 C64 1.399 . S
C65 C68 1.396 . S
C65 C77 1.453 . S
C65 C78 1.684 . S
H66 C90 0.948 . S
C67 C63 1.397 . S
C67 C68 1.394 . S
C67 C86 1.723 . S
C68 C65 1.396 . S
C68 C67 1.394 . S
C68 C98 1.723 . S
H69 C92 0.947 . S
H70 C93 0.948 . S
H71 C99 0.982 . S
H72 C100 0.979 . S
H73 C100 0.980 . S
H74 C100 0.983 . S
H75 C99 0.979 . S
H76 C99 0.977 . S
C77 C65 1.453 . S
C77 H106 0.982 . S
C77 H107 0.979 . S
C77 H108 0.977 . S
C78 C65 1.684 . S
C78 H103 0.979 . S
C78 H104 0.980 . S
C78 H105 0.983 . S
C79 C80 1.391 . S
C79 C84 1.391 . S
C79 H109 0.948 . S
C80 C79 1.391 . S
C80 C81 1.391 . S
C81 C80 1.391 . S
C81 C82 1.392 . S
C81 H110 0.947 . S
C82 C81 1.392 . S
C82 C83 1.419 . S
C82 H111 0.948 . S
C83 C82 1.419 . S
C83 C84 1.391 . S
C83 C87 1.397 . S
C84 C79 1.391 . S
C84 C83 1.391 . S
C84 C85 1.399 . S
C85 C84 1.399 . S
C85 C86 1.396 . S
C85 C88 1.453 . S
C85 C89 1.684 . S
C86 C67 1.723 . S
C86 C85 1.396 . S
C86 C87 1.394 . S
C87 C83 1.397 . S
C87 C86 1.394 . S
C87 C97 1.723 . S
C88 C85 1.453 . S
C88 H112 0.982 . S
C88 H113 0.979 . S
C88 H114 0.977 . S
C89 C85 1.684 . S
C89 H115 0.979 . S
C89 H116 0.980 . S
C89 H117 0.983 . S
C90 H66 0.948 . S
C90 C91 1.391 . S
C90 C95 1.391 . S
C91 C90 1.391 . S
C91 C92 1.391 . S
C92 H69 0.947 . S
C92 C91 1.391 . S
C92 C93 1.392 . S
C93 H70 0.948 . S
C93 C92 1.392 . S
C93 C94 1.419 . S
C94 C93 1.419 . S
C94 C95 1.391 . S
C94 C98 1.397 . S
C95 C90 1.391 . S
C95 C94 1.391 . S
C95 C96 1.399 . S
C96 C95 1.399 . S
C96 C97 1.396 . S
C96 C99 1.453 . S
C96 C100 1.684 . S
C97 C87 1.723 . S
C97 C96 1.396 . S
C97 C98 1.394 . S
C98 C68 1.723 . S
C98 C94 1.397 . S
C98 C97 1.394 . S
C99 H71 0.982 . S
C99 H75 0.979 . S
C99 H76 0.977 . S
C99 C96 1.453 . S
C100 H72 0.979 . S
C100 H73 0.980 . S
C100 H74 0.983 . S
C100 C96 1.684 . S
H101 C119 0.948 . S
H102 C60 0.948 . S
H103 C78 0.979 . S
H104 C78 0.980 . S
H105 C78 0.983 . S
H106 C77 0.982 . S
H107 C77 0.979 . S
H108 C77 0.977 . S
H109 C79 0.948 . S
H110 C81 0.947 . S
H111 C82 0.948 . S
H112 C88 0.982 . S
H113 C88 0.979 . S
H114 C88 0.977 . S
H115 C89 0.979 . S
H116 C89 0.980 . S
H117 C89 0.983 . S
H118 C62 0.947 . S
C119 C62 1.392 . S
C119 C63 1.419 . S
C119 H101 0.948 . S
C120 C121 1.391 . S
C120 C124 1.391 . S
C120 H162 0.948 . S
C121 C120 1.391 . S
C121 C122 1.391 . S
C122 C121 1.391 . S
C122 H178 0.947 . S
C122 C179 1.392 . S
C123 C124 1.391 . S
C123 C127 1.397 . S
C123 C179 1.419 . S
C124 C120 1.391 . S
C124 C123 1.391 . S
C124 C125 1.399 . S
C125 C124 1.399 . S
C125 C128 1.396 . S
C125 C137 1.453 . S
C125 C138 1.684 . S
H126 C150 0.948 . S
C127 C123 1.397 . S
C127 C128 1.394 . S
C127 C146 1.723 . S
C128 C125 1.396 . S
C128 C127 1.394 . S
C128 C158 1.723 . S
H129 C152 0.947 . S
H130 C153 0.948 . S
H131 C159 0.982 . S
H132 C160 0.979 . S
H133 C160 0.980 . S
H134 C160 0.983 . S
H135 C159 0.979 . S
H136 C159 0.977 . S
C137 C125 1.453 . S
C137 H166 0.982 . S
C137 H167 0.979 . S
C137 H168 0.977 . S
C138 C125 1.684 . S
C138 H163 0.979 . S
C138 H164 0.980 . S
C138 H165 0.983 . S
C139 C140 1.391 . S
C139 C144 1.391 . S
C139 H169 0.948 . S
C140 C139 1.391 . S
C140 C141 1.391 . S
C141 C140 1.391 . S
C141 C142 1.392 . S
C141 H170 0.947 . S
C142 C141 1.392 . S
C142 C143 1.419 . S
C142 H171 0.948 . S
C143 C142 1.419 . S
C143 C144 1.391 . S
C143 C147 1.397 . S
C144 C139 1.391 . S
C144 C143 1.391 . S
C144 C145 1.399 . S
C145 C144 1.399 . S
C145 C146 1.396 . S
C145 C148 1.453 . S
C145 C149 1.684 . S
C146 C127 1.723 . S
C146 C145 1.396 . S
C146 C147 1.394 . S
C147 C143 1.397 . S
C147 C146 1.394 . S
C147 C157 1.723 . S
C148 C145 1.453 . S
C148 H172 0.982 . S
C148 H173 0.979 . S
C148 H174 0.977 . S
C149 C145 1.684 . S
C149 H175 0.979 . S
C149 H176 0.980 . S
C149 H177 0.983 . S
C150 H126 0.948 . S
C150 C151 1.391 . S
C150 C155 1.391 . S
C151 C150 1.391 . S
C151 C152 1.391 . S
C152 H129 0.947 . S
C152 C151 1.391 . S
C152 C153 1.392 . S
C153 H130 0.948 . S
C153 C152 1.392 . S
C153 C154 1.419 . S
C154 C153 1.419 . S
C154 C155 1.391 . S
C154 C158 1.397 . S
C155 C150 1.391 . S
C155 C154 1.391 . S
C155 C156 1.399 . S
C156 C155 1.399 . S
C156 C157 1.396 . S
C156 C159 1.453 . S
C156 C160 1.684 . S
C157 C147 1.723 . S
C157 C156 1.396 . S
C157 C158 1.394 . S
C158 C128 1.723 . S
C158 C154 1.397 . S
C158 C157 1.394 . S
C159 H131 0.982 . S
C159 H135 0.979 . S
C159 H136 0.977 . S
C159 C156 1.453 . S
C160 H132 0.979 . S
C160 H133 0.980 . S
C160 H134 0.983 . S
C160 C156 1.684 . S
H161 C179 0.948 . S
H162 C120 0.948 . S
H163 C138 0.979 . S
H164 C138 0.980 . S
H165 C138 0.983 . S
H166 C137 0.982 . S
H167 C137 0.979 . S
H168 C137 0.977 . S
H169 C139 0.948 . S
H170 C141 0.947 . S
H171 C142 0.948 . S
H172 C148 0.982 . S
H173 C148 0.979 . S
H174 C148 0.977 . S
H175 C149 0.979 . S
H176 C149 0.980 . S
H177 C149 0.983 . S
H178 C122 0.947 . S
C179 C122 1.392 . S
C179 C123 1.419 . S
C179 H161 0.948 . S
C180 C181 1.391 . S
C180 C184 1.391 . S
C180 H222 0.948 . S
C181 C180 1.391 . S
C181 C182 1.391 . S
C182 C181 1.391 . S
C182 H238 0.947 . S
C182 C239 1.392 . S
C183 C184 1.391 . S
C183 C187 1.397 . S
C183 C239 1.419 . S
C184 C180 1.391 . S
C184 C183 1.391 . S
C184 C185 1.399 . S
C185 C184 1.399 . S
C185 C188 1.396 . S
C185 C197 1.453 . S
C185 C198 1.684 . S
H186 C210 0.948 . S
C187 C183 1.397 . S
C187 C188 1.394 . S
C187 C206 1.723 . S
C188 C185 1.396 . S
C188 C187 1.394 . S
C188 C218 1.723 . S
H189 C212 0.947 . S
H190 C213 0.948 . S
H191 C219 0.982 . S
H192 C220 0.979 . S
H193 C220 0.980 . S
H194 C220 0.983 . S
H195 C219 0.979 . S
H196 C219 0.977 . S
C197 C185 1.453 . S
C197 H226 0.982 . S
C197 H227 0.979 . S
C197 H228 0.977 . S
C198 C185 1.684 . S
C198 H223 0.979 . S
C198 H224 0.980 . S
C198 H225 0.983 . S
C199 C200 1.391 . S
C199 C204 1.391 . S
C199 H229 0.948 . S
C200 C199 1.391 . S
C200 C201 1.391 . S
C201 C200 1.391 . S
C201 C202 1.392 . S
C201 H230 0.947 . S
C202 C201 1.392 . S
C202 C203 1.419 . S
C202 H231 0.948 . S
C203 C202 1.419 . S
C203 C204 1.391 . S
C203 C207 1.397 . S
C204 C199 1.391 . S
C204 C203 1.391 . S
C204 C205 1.399 . S
C205 C204 1.399 . S
C205 C206 1.396 . S
C205 C208 1.453 . S
C205 C209 1.684 . S
C206 C187 1.723 . S
C206 C205 1.396 . S
C206 C207 1.394 . S
C207 C203 1.397 . S
C207 C206 1.394 . S
C207 C217 1.723 . S
C208 C205 1.453 . S
C208 H232 0.982 . S
C208 H233 0.979 . S
C208 H234 0.977 . S
C209 C205 1.684 . S
C209 H235 0.979 . S
C209 H236 0.980 . S
C209 H237 0.983 . S
C210 H186 0.948 . S
C210 C211 1.391 . S
C210 C215 1.391 . S
C211 C210 1.391 . S
C211 C212 1.391 . S
C212 H189 0.947 . S
C212 C211 1.391 . S
C212 C213 1.392 . S
C213 H190 0.948 . S
C213 C212 1.392 . S
C213 C214 1.419 . S
C214 C213 1.419 . S
C214 C215 1.391 . S
C214 C218 1.397 . S
C215 C210 1.391 . S
C215 C214 1.391 . S
C215 C216 1.399 . S
C216 C215 1.399 . S
C216 C217 1.396 . S
C216 C219 1.453 . S
C216 C220 1.684 . S
C217 C207 1.723 . S
C217 C216 1.396 . S
C217 C218 1.394 . S
C218 C188 1.723 . S
C218 C214 1.397 . S
C218 C217 1.394 . S
C219 H191 0.982 . S
C219 H195 0.979 . S
C219 H196 0.977 . S
C219 C216 1.453 . S
C220 H192 0.979 . S
C220 H193 0.980 . S
C220 H194 0.983 . S
C220 C216 1.684 . S
H221 C239 0.948 . S
H222 C180 0.948 . S
H223 C198 0.979 . S
H224 C198 0.980 . S
H225 C198 0.983 . S
H226 C197 0.982 . S
H227 C197 0.979 . S
H228 C197 0.977 . S
H229 C199 0.948 . S
H230 C201 0.947 . S
H231 C202 0.948 . S
H232 C208 0.982 . S
H233 C208 0.979 . S
H234 C208 0.977 . S
H235 C209 0.979 . S
H236 C209 0.980 . S
H237 C209 0.983 . S
H238 C182 0.947 . S
C239 C182 1.392 . S
C239 C183 1.419 . S
C239 H221 0.948 . S
C240 C241 1.391 . S
C240 C244 1.391 . S
C240 H282 0.948 . S
C241 C240 1.391 . S
C241 C242 1.391 . S
C242 C241 1.391 . S
C242 H298 0.947 . S
C242 C299 1.392 . S
C243 C244 1.391 . S
C243 C247 1.397 . S
C243 C299 1.419 . S
C244 C240 1.391 . S
C244 C243 1.391 . S
C244 C245 1.399 . S
C245 C244 1.399 . S
C245 C248 1.396 . S
C245 C257 1.453 . S
C245 C258 1.684 . S
H246 C270 0.948 . S
C247 C243 1.397 . S
C247 C248 1.394 . S
C247 C266 1.723 . S
C248 C245 1.396 . S
C248 C247 1.394 . S
C248 C278 1.723 . S
H249 C272 0.947 . S
H250 C273 0.948 . S
H251 C279 0.982 . S
H252 C280 0.979 . S
H253 C280 0.980 . S
H254 C280 0.983 . S
H255 C279 0.979 . S
H256 C279 0.977 . S
C257 C245 1.453 . S
C257 H286 0.982 . S
C257 H287 0.979 . S
C257 H288 0.977 . S
C258 C245 1.684 . S
C258 H283 0.979 . S
C258 H284 0.980 . S
C258 H285 0.983 . S
C259 C260 1.391 . S
C259 C264 1.391 . S
C259 H289 0.948 . S
C260 C259 1.391 . S
C260 C261 1.391 . S
C261 C260 1.391 . S
C261 C262 1.392 . S
C261 H290 0.947 . S
C262 C261 1.392 . S
C262 C263 1.419 . S
C262 H291 0.948 . S
C263 C262 1.419 . S
C263 C264 1.391 . S
C263 C267 1.397 . S
C264 C259 1.391 . S
C264 C263 1.391 . S
C264 C265 1.399 . S
C265 C264 1.399 . S
C265 C266 1.396 . S
C265 C268 1.453 . S
C265 C269 1.684 . S
C266 C247 1.723 . S
C266 C265 1.396 . S
C266 C267 1.394 . S
C267 C263 1.397 . S
C267 C266 1.394 . S
C267 C277 1.723 . S
C268 C265 1.453 . S
C268 H292 0.982 . S
C268 H293 0.979 . S
C268 H294 0.977 . S
C269 C265 1.684 . S
C269 H295 0.979 . S
C269 H296 0.980 . S
C269 H297 0.983 . S
C270 H246 0.948 . S
C270 C271 1.391 . S
C270 C275 1.391 . S
C271 C270 1.391 . S
C271 C272 1.391 . S
C272 H249 0.947 . S
C272 C271 1.391 . S
C272 C273 1.392 . S
C273 H250 0.948 . S
C273 C272 1.392 . S
C273 C274 1.419 . S
C274 C273 1.419 . S
C274 C275 1.391 . S
C274 C278 1.397 . S
C275 C270 1.391 . S
C275 C274 1.391 . S
C275 C276 1.399 . S
C276 C275 1.399 . S
C276 C277 1.396 . S
C276 C279 1.453 . S
C276 C280 1.684 . S
C277 C267 1.723 . S
C277 C276 1.396 . S
C277 C278 1.394 . S
C278 C248 1.723 . S
C278 C274 1.397 . S
C278 C277 1.394 . S
C279 H251 0.982 . S
C279 H255 0.979 . S
C279 H256 0.977 . S
C279 C276 1.453 . S
C280 H252 0.979 . S
C280 H253 0.980 . S
C280 H254 0.983 . S
C280 C276 1.684 . S
H281 C299 0.948 . S
H282 C240 0.948 . S
H283 C258 0.979 . S
H284 C258 0.980 . S
H285 C258 0.983 . S
H286 C257 0.982 . S
H287 C257 0.979 . S
H288 C257 0.977 . S
H289 C259 0.948 . S
H290 C261 0.947 . S
H291 C262 0.948 . S
H292 C268 0.982 . S
H293 C268 0.979 . S
H294 C268 0.977 . S
H295 C269 0.979 . S
H296 C269 0.980 . S
H297 C269 0.983 . S
H298 C242 0.947 . S
C299 C242 1.392 . S
C299 C243 1.419 . S
C299 H281 0.948 . S
C300 C301 1.391 . S
C300 C304 1.391 . S
C300 H342 0.948 . S
C301 C300 1.391 . S
C301 C302 1.391 . S
C302 C301 1.391 . S
C302 H358 0.947 . S
C302 C359 1.392 . S
C303 C304 1.391 . S
C303 C307 1.397 . S
C303 C359 1.419 . S
C304 C300 1.391 . S
C304 C303 1.391 . S
C304 C305 1.399 . S
C305 C304 1.399 . S
C305 C308 1.396 . S
C305 C317 1.453 . S
C305 C318 1.684 . S
H306 C330 0.948 . S
C307 C303 1.397 . S
C307 C308 1.394 . S
C307 C326 1.723 . S
C308 C305 1.396 . S
C308 C307 1.394 . S
C308 C338 1.723 . S
H309 C332 0.947 . S
H310 C333 0.948 . S
H311 C339 0.982 . S
H312 C340 0.979 . S
H313 C340 0.980 . S
H314 C340 0.983 . S
H315 C339 0.979 . S
H316 C339 0.977 . S
C317 C305 1.453 . S
C317 H346 0.982 . S
C317 H347 0.979 . S
C317 H348 0.977 . S
C318 C305 1.684 . S
C318 H343 0.979 . S
C318 H344 0.980 . S
C318 H345 0.983 . S
C319 C320 1.391 . S
C319 C324 1.391 . S
C319 H349 0.948 . S
C320 C319 1.391 . S
C320 C321 1.391 . S
C321 C320 1.391 . S
C321 C322 1.392 . S
C321 H350 0.947 . S
C322 C321 1.392 . S
C322 C323 1.419 . S
C322 H351 0.948 . S
C323 C322 1.419 . S
C323 C324 1.391 . S
C323 C327 1.397 . S
C324 C319 1.391 . S
C324 C323 1.391 . S
C324 C325 1.399 . S
C325 C324 1.399 . S
C325 C326 1.396 . S
C325 C328 1.453 . S
C325 C329 1.684 . S
C326 C307 1.723 . S
C326 C325 1.396 . S
C326 C327 1.394 . S
C327 C323 1.397 . S
C327 C326 1.394 . S
C327 C337 1.723 . S
C328 C325 1.453 . S
C328 H352 0.982 . S
C328 H353 0.979 . S
C328 H354 0.977 . S
C329 C325 1.684 . S
C329 H355 0.979 . S
C329 H356 0.980 . S
C329 H357 0.983 . S
C330 H306 0.948 . S
C330 C331 1.391 . S
C330 C335 1.391 . S
C331 C330 1.391 . S
C331 C332 1.391 . S
C332 H309 0.947 . S
C332 C331 1.391 . S
C332 C333 1.392 . S
C333 H310 0.948 . S
C333 C332 1.392 . S
C333 C334 1.419 . S
C334 C333 1.419 . S
C334 C335 1.391 . S
C334 C338 1.397 . S
C335 C330 1.391 . S
C335 C334 1.391 . S
C335 C336 1.399 . S
C336 C335 1.399 . S
C336 C337 1.396 . S
C336 C339 1.453 . S
C336 C340 1.684 . S
C337 C327 1.723 . S
C337 C336 1.396 . S
C337 C338 1.394 . S
C338 C308 1.723 . S
C338 C334 1.397 . S
C338 C337 1.394 . S
C339 H311 0.982 . S
C339 H315 0.979 . S
C339 H316 0.977 . S
C339 C336 1.453 . S
C340 H312 0.979 . S
C340 H313 0.980 . S
C340 H314 0.983 . S
C340 C336 1.684 . S
H341 C359 0.948 . S
H342 C300 0.948 . S
H343 C318 0.979 . S
H344 C318 0.980 . S
H345 C318 0.983 . S
H346 C317 0.982 . S
H347 C317 0.979 . S
H348 C317 0.977 . S
H349 C319 0.948 . S
H350 C321 0.947 . S
H351 C322 0.948 . S
H352 C328 0.982 . S
H353 C328 0.979 . S
H354 C328 0.977 . S
H355 C329 0.979 . S
H356 C329 0.980 . S
H357 C329 0.983 . S
H358 C302 0.947 . S
C359 C302 1.392 . S
C359 C303 1.419 . S
C359 H341 0.948 . S
C360 C361 1.391 . S
C360 C364 1.391 . S
C360 H402 0.948 . S
C361 C360 1.391 . S
C361 C362 1.391 . S
C362 C361 1.391 . S
C362 H418 0.947 . S
C362 C419 1.392 . S
C363 C364 1.391 . S
C363 C367 1.397 . S
C363 C419 1.419 . S
C364 C360 1.391 . S
C364 C363 1.391 . S
C364 C365 1.399 . S
C365 C364 1.399 . S
C365 C368 1.396 . S
C365 C377 1.453 . S
C365 C378 1.684 . S
H366 C390 0.948 . S
C367 C363 1.397 . S
C367 C368 1.394 . S
C367 C386 1.723 . S
C368 C365 1.396 . S
C368 C367 1.394 . S
C368 C398 1.723 . S
H369 C392 0.947 . S
H370 C393 0.948 . S
H371 C399 0.982 . S
H372 C400 0.979 . S
H373 C400 0.980 . S
H374 C400 0.983 . S
H375 C399 0.979 . S
H376 C399 0.977 . S
C377 C365 1.453 . S
C377 H406 0.982 . S
C377 H407 0.979 . S
C377 H408 0.977 . S
C378 C365 1.684 . S
C378 H403 0.979 . S
C378 H404 0.980 . S
C378 H405 0.983 . S
C379 C380 1.391 . S
C379 C384 1.391 . S
C379 H409 0.948 . S
C380 C379 1.391 . S
C380 C381 1.391 . S
C381 C380 1.391 . S
C381 C382 1.392 . S
C381 H410 0.947 . S
C382 C381 1.392 . S
C382 C383 1.419 . S
C382 H411 0.948 . S
C383 C382 1.419 . S
C383 C384 1.391 . S
C383 C387 1.397 . S
C384 C379 1.391 . S
C384 C383 1.391 . S
C384 C385 1.399 . S
C385 C384 1.399 . S
C385 C386 1.396 . S
C385 C388 1.453 . S
C385 C389 1.684 . S
C386 C367 1.723 . S
C386 C385 1.396 . S
C386 C387 1.394 . S
C387 C383 1.397 . S
C387 C386 1.394 . S
C387 C397 1.723 . S
C388 C385 1.453 . S
C388 H412 0.982 . S
C388 H413 0.979 . S
C388 H414 0.977 . S
C389 C385 1.684 . S
C389 H415 0.979 . S
C389 H416 0.980 . S
C389 H417 0.983 . S
C390 H366 0.948 . S
C390 C391 1.391 . S
C390 C395 1.391 . S
C391 C390 1.391 . S
C391 C392 1.391 . S
C392 H369 0.947 . S
C392 C391 1.391 . S
C392 C393 1.392 . S
C393 H370 0.948 . S
C393 C392 1.392 . S
C393 C394 1.419 . S
C394 C393 1.419 . S
C394 C395 1.391 . S
C394 C398 1.397 . S
C395 C390 1.391 . S
C395 C394 1.391 . S
C395 C396 1.399 . S
C396 C395 1.399 . S
C396 C397 1.396 . S
C396 C399 1.453 . S
C396 C400 1.684 . S
C397 C387 1.723 . S
C397 C396 1.396 . S
C397 C398 1.394 . S
C398 C368 1.723 . S
C398 C394 1.397 . S
C398 C397 1.394 . S
C399 H371 0.982 . S
C399 H375 0.979 . S
C399 H376 0.977 . S
C399 C396 1.453 . S
C400 H372 0.979 . S
C400 H373 0.980 . S
C400 H374 0.983 . S
C400 C396 1.684 . S
H401 C419 0.948 . S
H402 C360 0.948 . S
H403 C378 0.979 . S
H404 C378 0.980 . S
H405 C378 0.983 . S
H406 C377 0.982 . S
H407 C377 0.979 . S
H408 C377 0.977 . S
H409 C379 0.948 . S
H410 C381 0.947 . S
H411 C382 0.948 . S
H412 C388 0.982 . S
H413 C388 0.979 . S
H414 C388 0.977 . S
H415 C389 0.979 . S
H416 C389 0.980 . S
H417 C389 0.983 . S
H418 C362 0.947 . S
C419 C362 1.392 . S
C419 C363 1.419 . S
C419 H401 0.948 . S
C420 C421 1.391 . S
C420 C424 1.391 . S
C420 H462 0.948 . S
C421 C420 1.391 . S
C421 C422 1.391 . S
C422 C421 1.391 . S
C422 H478 0.947 . S
C422 C479 1.392 . S
C423 C424 1.391 . S
C423 C427 1.397 . S
C423 C479 1.419 . S
C424 C420 1.391 . S
C424 C423 1.391 . S
C424 C425 1.399 . S
C425 C424 1.399 . S
C425 C428 1.396 . S
C425 C437 1.453 . S
C425 C438 1.684 . S
H426 C450 0.948 . S
C427 C423 1.397 . S
C427 C428 1.394 . S
C427 C446 1.723 . S
C428 C425 1.396 . S
C428 C427 1.394 . S
C428 C458 1.723 . S
H429 C452 0.947 . S
H430 C453 0.948 . S
H431 C459 0.982 . S
H432 C460 0.979 . S
H433 C460 0.980 . S
H434 C460 0.983 . S
H435 C459 0.979 . S
H436 C459 0.977 . S
C437 C425 1.453 . S
C437 H466 0.982 . S
C437 H467 0.979 . S
C437 H468 0.977 . S
C438 C425 1.684 . S
C438 H463 0.979 . S
C438 H464 0.980 . S
C438 H465 0.983 . S
C439 C440 1.391 . S
C439 C444 1.391 . S
C439 H469 0.948 . S
C440 C439 1.391 . S
C440 C441 1.391 . S
C441 C440 1.391 . S
C441 C442 1.392 . S
C441 H470 0.947 . S
C442 C441 1.392 . S
C442 C443 1.419 . S
C442 H471 0.948 . S
C443 C442 1.419 . S
C443 C444 1.391 . S
C443 C447 1.397 . S
C444 C439 1.391 . S
C444 C443 1.391 . S
C444 C445 1.399 . S
C445 C444 1.399 . S
C445 C446 1.396 . S
C445 C448 1.453 . S
C445 C449 1.684 . S
C446 C427 1.723 . S
C446 C445 1.396 . S
C446 C447 1.394 . S
C447 C443 1.397 . S
C447 C446 1.394 . S
C447 C457 1.723 . S
C448 C445 1.453 . S
C448 H472 0.982 . S
C448 H473 0.979 . S
C448 H474 0.977 . S
C449 C445 1.684 . S
C449 H475 0.979 . S
C449 H476 0.980 . S
C449 H477 0.983 . S
C450 H426 0.948 . S
C450 C451 1.391 . S
C450 C455 1.391 . S
C451 C450 1.391 . S
C451 C452 1.391 . S
C452 H429 0.947 . S
C452 C451 1.391 . S
C452 C453 1.392 . S
C453 H430 0.948 . S
C453 C452 1.392 . S
C453 C454 1.419 . S
C454 C453 1.419 . S
C454 C455 1.391 . S
C454 C458 1.397 . S
C455 C450 1.391 . S
C455 C454 1.391 . S
C455 C456 1.399 . S
C456 C455 1.399 . S
C456 C457 1.396 . S
C456 C459 1.453 . S
C456 C460 1.684 . S
C457 C447 1.723 . S
C457 C456 1.396 . S
C457 C458 1.394 . S
C458 C428 1.723 . S
C458 C454 1.397 . S
C458 C457 1.394 . S
C459 H431 0.982 . S
C459 H435 0.979 . S
C459 H436 0.977 . S
C459 C456 1.453 . S
C460 H432 0.979 . S
C460 H433 0.980 . S
C460 H434 0.983 . S
C460 C456 1.684 . S
H461 C479 0.948 . S
H462 C420 0.948 . S
H463 C438 0.979 . S
H464 C438 0.980 . S
H465 C438 0.983 . S
H466 C437 0.982 . S
H467 C437 0.979 . S
H468 C437 0.977 . S
H469 C439 0.948 . S
H470 C441 0.947 . S
H471 C442 0.948 . S
H472 C448 0.982 . S
H473 C448 0.979 . S
H474 C448 0.977 . S
H475 C449 0.979 . S
H476 C449 0.980 . S
H477 C449 0.983 . S
H478 C422 0.947 . S
C479 C422 1.392 . S
C479 C423 1.419 . S
C479 H461 0.948 . S
Gd480 C483 2.818 . S
Gd480 O500 2.377 . S
Gd480 O502 2.448 . S
Gd480 O503 2.506 . S
Gd480 O504 2.435 1_545 S
Gd480 O505 2.717 1_545 S
Gd480 O507 2.395 1_445 S
Gd480 O511 2.327 1_455 S
Gd481 C492 2.818 . S
Gd481 O501 2.395 1_665 S
Gd481 O505 2.327 1_655 S
Gd481 O506 2.377 . S
Gd481 O508 2.448 . S
Gd481 O509 2.506 . S
Gd481 O510 2.435 1_565 S
Gd481 O511 2.717 1_565 S
C482 O500 1.240 . S
C482 O501 1.240 . S
C483 Gd480 2.818 . S
C483 C484 1.510 . S
C483 O502 1.249 . S
C483 O503 1.252 . S
C484 C483 1.510 . S
C484 C485 1.404 . S
C484 C486 1.352 . S
C485 C484 1.404 . S
C485 C489 1.389 . S
C485 H512 0.930 . S
C486 C484 1.352 . S
C486 C488 1.374 . S
C486 H513 0.931 . S
C487 C488 1.359 . S
C487 C489 1.364 . S
C488 C486 1.374 . S
C488 C487 1.359 . S
C488 H514 0.931 . S
C489 C485 1.389 . S
C489 C487 1.364 . S
C489 H515 0.931 . S
C490 O504 1.256 . S
C490 O505 1.257 . S
C491 O506 1.240 . S
C491 O507 1.240 . S
C492 Gd481 2.818 . S
C492 C493 1.510 . S
C492 O508 1.249 . S
C492 O509 1.252 . S
C493 C492 1.510 . S
C493 C494 1.404 . S
C493 C495 1.352 . S
C494 C493 1.404 . S
C494 C498 1.389 . S
C494 H516 0.930 . S
C495 C493 1.352 . S
C495 C497 1.374 . S
C495 H517 0.931 . S
C496 C497 1.359 . S
C496 C498 1.364 . S
C497 C495 1.374 . S
C497 C496 1.359 . S
C497 H518 0.931 . S
C498 C494 1.389 . S
C498 C496 1.364 . S
C498 H519 0.931 . S
C499 O510 1.256 . S
C499 O511 1.257 . S
O500 Gd480 2.377 . S
O500 C482 1.240 . S
O501 Gd481 2.395 1_445 S
O501 C482 1.240 . S
O502 Gd480 2.448 . S
O502 C483 1.249 . S
O503 Gd480 2.506 . S
O503 C483 1.252 . S
O504 Gd480 2.435 1_565 S
O504 C490 1.256 . S
O505 Gd480 2.717 1_565 S
O505 Gd481 2.327 1_455 S
O505 C490 1.257 . S
O506 Gd481 2.377 . S
O506 C491 1.240 . S
O507 Gd480 2.395 1_665 S
O507 C491 1.240 . S
O508 Gd481 2.448 . S
O508 C492 1.249 . S
O509 Gd481 2.506 . S
O509 C492 1.252 . S
O510 Gd481 2.435 1_545 S
O510 C499 1.256 . S
O511 Gd480 2.327 1_655 S
O511 Gd481 2.717 1_545 S
O511 C499 1.257 . S
H512 C485 0.930 . S
H513 C486 0.931 . S
H514 C488 0.931 . S
H515 C489 0.931 . S
H516 C494 0.930 . S
H517 C495 0.931 . S
H518 C497 0.931 . S
H519 C498 0.931 . S
Gd520 C523 2.805 1_565 S
Gd520 O540 2.364 1_565 S
Gd520 O542 2.446 1_565 S
Gd520 O543 2.485 1_565 S
Gd520 O544 2.454 . S
Gd520 O545 2.727 . S
Gd520 O547 2.411 1_554 S
Gd520 O551 2.311 1_564 S
Gd521 C532 2.799 1_545 S
Gd521 O541 2.418 1_556 S
Gd521 O545 2.303 1_546 S
Gd521 O546 2.357 1_545 S
Gd521 O548 2.445 1_545 S
Gd521 O549 2.475 1_545 S
Gd521 O550 2.463 . S
Gd521 O551 2.731 . S
C522 O540 1.240 . S
C522 O541 1.240 . S
C523 Gd520 2.805 1_545 S
C523 C524 1.510 . S
C523 O542 1.249 . S
C523 O543 1.252 . S
C524 C523 1.510 . S
C524 C525 1.404 . S
C524 C526 1.352 . S
C525 C524 1.404 . S
C525 C529 1.389 . S
C525 H552 0.930 . S
C526 C524 1.352 . S
C526 C528 1.374 . S
C526 H553 0.931 . S
C527 C528 1.359 . S
C527 C529 1.364 . S
C528 C526 1.374 . S
C528 C527 1.359 . S
C528 H554 0.931 . S
C529 C525 1.389 . S
C529 C527 1.364 . S
C529 H555 0.931 . S
C530 O544 1.256 . S
C530 O545 1.257 . S
C531 O546 1.240 . S
C531 O547 1.240 . S
C532 Gd521 2.799 1_565 S
C532 C533 1.510 . S
C532 O548 1.249 . S
C532 O549 1.252 . S
C533 C532 1.510 . S
C533 C534 1.404 . S
C533 C535 1.352 . S
C534 C533 1.404 . S
C534 C538 1.389 . S
C534 H556 0.930 . S
C535 C533 1.352 . S
C535 C537 1.374 . S
C535 H557 0.931 . S
C536 C537 1.359 . S
C536 C538 1.364 . S
C537 C535 1.374 . S
C537 C536 1.359 . S
C537 H558 0.931 . S
C538 C534 1.389 . S
C538 C536 1.364 . S
C538 H559 0.931 . S
C539 O550 1.256 . S
C539 O551 1.257 . S
O540 Gd520 2.364 1_545 S
O540 C522 1.240 . S
O541 Gd521 2.418 1_554 S
O541 C522 1.240 . S
O542 Gd520 2.446 1_545 S
O542 C523 1.249 . S
O543 Gd520 2.485 1_545 S
O543 C523 1.252 . S
O544 Gd520 2.454 . S
O544 C530 1.256 . S
O545 Gd520 2.727 . S
O545 Gd521 2.303 1_564 S
O545 C530 1.257 . S
O546 Gd521 2.357 1_565 S
O546 C531 1.240 . S
O547 Gd520 2.411 1_556 S
O547 C531 1.240 . S
O548 Gd521 2.445 1_565 S
O548 C532 1.249 . S
O549 Gd521 2.475 1_565 S
O549 C532 1.252 . S
O550 Gd521 2.463 . S
O550 C539 1.256 . S
O551 Gd520 2.311 1_546 S
O551 Gd521 2.731 . S
O551 C539 1.257 . S
H552 C525 0.930 . S
H553 C526 0.931 . S
H554 C528 0.931 . S
H555 C529 0.931 . S
H556 C534 0.930 . S
H557 C535 0.931 . S
H558 C537 0.931 . S
H559 C538 0.931 . S
Gd560 C563 2.818 . S
Gd560 O580 2.377 . S
Gd560 O582 2.448 . S
Gd560 O583 2.506 . S
Gd560 O584 2.435 . S
Gd560 O585 2.717 . S
Gd560 O587 2.395 . S
Gd560 O591 2.327 . S
Gd561 C572 2.818 . S
Gd561 O581 2.395 . S
Gd561 O585 2.327 . S
Gd561 O586 2.377 . S
Gd561 O588 2.448 . S
Gd561 O589 2.506 . S
Gd561 O590 2.435 . S
Gd561 O591 2.717 . S
C562 O580 1.240 . S
C562 O581 1.240 . S
C563 Gd560 2.818 . S
C563 C564 1.510 . S
C563 O582 1.249 . S
C563 O583 1.252 . S
C564 C563 1.510 . S
C564 C565 1.404 . S
C564 C566 1.352 . S
C565 C564 1.404 . S
C565 C569 1.389 . S
C565 H592 0.930 . S
C566 C564 1.352 . S
C566 C568 1.374 . S
C566 H593 0.931 . S
C567 C568 1.359 . S
C567 C569 1.364 . S
C568 C566 1.374 . S
C568 C567 1.359 . S
C568 H594 0.931 . S
C569 C565 1.389 . S
C569 C567 1.364 . S
C569 H595 0.931 . S
C570 O584 1.256 . S
C570 O585 1.257 . S
C571 O586 1.240 . S
C571 O587 1.240 . S
C572 Gd561 2.818 . S
C572 C573 1.510 . S
C572 O588 1.249 . S
C572 O589 1.252 . S
C573 C572 1.510 . S
C573 C574 1.404 . S
C573 C575 1.352 . S
C574 C573 1.404 . S
C574 C578 1.389 . S
C574 H596 0.930 . S
C575 C573 1.352 . S
C575 C577 1.374 . S
C575 H597 0.931 . S
C576 C577 1.359 . S
C576 C578 1.364 . S
C577 C575 1.374 . S
C577 C576 1.359 . S
C577 H598 0.931 . S
C578 C574 1.389 . S
C578 C576 1.364 . S
C578 H599 0.931 . S
C579 O590 1.256 . S
C579 O591 1.257 . S
O580 Gd560 2.377 . S
O580 C562 1.240 . S
O581 Gd561 2.395 . S
O581 C562 1.240 . S
O582 Gd560 2.448 . S
O582 C563 1.249 . S
O583 Gd560 2.506 . S
O583 C563 1.252 . S
O584 Gd560 2.435 . S
O584 C570 1.256 . S
O585 Gd560 2.717 . S
O585 Gd561 2.327 . S
O585 C570 1.257 . S
O586 Gd561 2.377 . S
O586 C571 1.240 . S
O587 Gd560 2.395 . S
O587 C571 1.240 . S
O588 Gd561 2.448 . S
O588 C572 1.249 . S
O589 Gd561 2.506 . S
O589 C572 1.252 . S
O590 Gd561 2.435 . S
O590 C579 1.256 . S
O591 Gd560 2.327 . S
O591 Gd561 2.717 . S
O591 C579 1.257 . S
H592 C565 0.930 . S
H593 C566 0.931 . S
H594 C568 0.931 . S
H595 C569 0.931 . S
H596 C574 0.930 . S
H597 C575 0.931 . S
H598 C577 0.931 . S
H599 C578 0.931 . S
Gd600 C603 2.818 . S
Gd600 O620 2.377 . S
Gd600 O622 2.448 . S
Gd600 O623 2.506 . S
Gd600 O624 2.435 1_455 S
Gd600 O625 2.717 1_455 S
Gd600 O627 2.395 1_454 S
Gd600 O631 2.327 1_554 S
Gd601 C612 2.818 . S
Gd601 O621 2.395 1_656 S
Gd601 O625 2.327 1_556 S
Gd601 O626 2.377 . S
Gd601 O628 2.448 . S
Gd601 O629 2.506 . S
Gd601 O630 2.435 1_655 S
Gd601 O631 2.717 1_655 S
C602 O620 1.240 . S
C602 O621 1.240 . S
C603 Gd600 2.818 . S
C603 C604 1.510 . S
C603 O622 1.249 . S
C603 O623 1.252 . S
C604 C603 1.510 . S
C604 C605 1.404 . S
C604 C606 1.352 . S
C605 C604 1.404 . S
C605 C609 1.389 . S
C605 H632 0.930 . S
C606 C604 1.352 . S
C606 C608 1.374 . S
C606 H633 0.931 . S
C607 C608 1.359 . S
C607 C609 1.364 . S
C608 C606 1.374 . S
C608 C607 1.359 . S
C608 H634 0.931 . S
C609 C605 1.389 . S
C609 C607 1.364 . S
C609 H635 0.931 . S
C610 O624 1.256 . S
C610 O625 1.257 . S
C611 O626 1.240 . S
C611 O627 1.240 . S
C612 Gd601 2.818 . S
C612 C613 1.510 . S
C612 O628 1.249 . S
C612 O629 1.252 . S
C613 C612 1.510 . S
C613 C614 1.404 . S
C613 C615 1.352 . S
C614 C613 1.404 . S
C614 C618 1.389 . S
C614 H636 0.930 . S
C615 C613 1.352 . S
C615 C617 1.374 . S
C615 H637 0.931 . S
C616 C617 1.359 . S
C616 C618 1.364 . S
C617 C615 1.374 . S
C617 C616 1.359 . S
C617 H638 0.931 . S
C618 C614 1.389 . S
C618 C616 1.364 . S
C618 H639 0.931 . S
C619 O630 1.256 . S
C619 O631 1.257 . S
O620 Gd600 2.377 . S
O620 C602 1.240 . S
O621 Gd601 2.395 1_454 S
O621 C602 1.240 . S
O622 Gd600 2.448 . S
O622 C603 1.249 . S
O623 Gd600 2.506 . S
O623 C603 1.252 . S
O624 Gd600 2.435 1_655 S
O624 C610 1.256 . S
O625 Gd600 2.717 1_655 S
O625 Gd601 2.327 1_554 S
O625 C610 1.257 . S
O626 Gd601 2.377 . S
O626 C611 1.240 . S
O627 Gd600 2.395 1_656 S
O627 C611 1.240 . S
O628 Gd601 2.448 . S
O628 C612 1.249 . S
O629 Gd601 2.506 . S
O629 C612 1.252 . S
O630 Gd601 2.435 1_455 S
O630 C619 1.256 . S
O631 Gd600 2.327 1_556 S
O631 Gd601 2.717 1_455 S
O631 C619 1.257 . S
H632 C605 0.930 . S
H633 C606 0.931 . S
H634 C608 0.931 . S
H635 C609 0.931 . S
H636 C614 0.930 . S
H637 C615 0.931 . S
H638 C617 0.931 . S
H639 C618 0.931 . S
H640 C658 0.951 . S
H641 C660 0.951 . S
H642 C662 0.950 . S
H643 C663 0.950 . S
H644 C665 0.950 . S
H645 C668 0.950 . S
H646 C669 0.950 . S
H647 C671 0.950 . S
H648 C672 0.950 . S
H649 C673 0.951 . S
H650 C675 0.951 . S
H651 C677 0.950 . S
H652 C678 0.950 . S
H653 C680 0.950 . S
H654 C683 0.950 . S
H655 C684 0.950 . S
H656 C686 0.950 . S
H657 C687 0.950 . S
C658 H640 0.951 . S
C658 C659 1.366 . S
C658 C660 1.388 . S
C659 C658 1.366 . S
C659 C663 1.385 . S
C660 H641 0.951 . S
C660 C658 1.388 . S
C660 C661 1.366 . S
C661 C660 1.366 . S
C661 C662 1.414 . S
C661 C664 1.499 . S
C662 H642 0.950 . S
C662 C661 1.414 . S
C662 C663 1.374 . S
C663 H643 0.950 . S
C663 C659 1.385 . S
C663 C662 1.374 . S
C664 C661 1.499 . S
C664 C665 1.373 . S
C664 C666 1.389 . S
C665 H644 0.950 . S
C665 C664 1.373 . S
C665 C681 1.377 . S
C666 C664 1.389 . S
C666 C667 1.524 . S
C666 C680 1.377 . S
C667 C666 1.524 . S
C667 C668 1.397 . S
C667 C672 1.363 . S
C668 H645 0.950 . S
C668 C667 1.397 . S
C668 C669 1.334 . S
C669 H646 0.950 . S
C669 C668 1.334 . S
C669 C670 1.287 . S
C670 C669 1.287 . S
C670 C671 1.524 . S
C670 H689 0.913 . S
C671 H647 0.950 . S
C671 C670 1.524 . S
C671 C672 1.415 . S
C672 H648 0.950 . S
C672 C667 1.363 . S
C672 C671 1.415 . S
C673 H649 0.951 . S
C673 C674 1.366 . S
C673 C675 1.388 . S
C674 C673 1.366 . S
C674 C678 1.385 . S
C675 H650 0.951 . S
C675 C673 1.388 . S
C675 C676 1.366 . S
C676 C675 1.366 . S
C676 C677 1.414 . S
C676 C679 1.499 . S
C677 H651 0.950 . S
C677 C676 1.414 . S
C677 C678 1.374 . S
C678 H652 0.950 . S
C678 C674 1.385 . S
C678 C677 1.374 . S
C679 C676 1.499 . S
C679 C680 1.373 . S
C679 C681 1.389 . S
C680 H653 0.950 . S
C680 C666 1.377 . S
C680 C679 1.373 . S
C681 C665 1.377 . S
C681 C679 1.389 . S
C681 C682 1.524 . S
C682 C681 1.524 . S
C682 C683 1.397 . S
C682 C687 1.363 . S
C683 H654 0.950 . S
C683 C682 1.397 . S
C683 C684 1.334 . S
C684 H655 0.950 . S
C684 C683 1.334 . S
C684 C685 1.287 . S
C685 C684 1.287 . S
C685 C686 1.524 . S
C685 H688 0.999 . S
C686 H656 0.950 . S
C686 C685 1.524 . S
C686 C687 1.415 . S
C687 H657 0.950 . S
C687 C682 1.363 . S
C687 C686 1.415 . S
H688 C685 0.999 . S
H689 C670 0.913 . S
H690 C708 0.951 . S
H691 C710 0.951 . S
H692 C712 0.950 . S
H693 C713 0.950 . S
H694 C715 0.950 . S
H695 C718 0.950 . S
H696 C719 0.950 . S
H697 C721 0.950 . S
H698 C722 0.950 . S
H699 C723 0.951 . S
H700 C725 0.951 . S
H701 C727 0.950 . S
H702 C728 0.950 . S
H703 C730 0.950 . S
H704 C733 0.950 . S
H705 C734 0.950 . S
H706 C736 0.950 . S
H707 C737 0.950 . S
C708 H690 0.951 . S
C708 C709 1.366 . S
C708 C710 1.388 . S
C709 C708 1.366 . S
C709 C713 1.385 . S
C710 H691 0.951 . S
C710 C708 1.388 . S
C710 C711 1.366 . S
C711 C710 1.366 . S
C711 C712 1.414 . S
C711 C714 1.499 . S
C712 H692 0.950 . S
C712 C711 1.414 . S
C712 C713 1.374 . S
C713 H693 0.950 . S
C713 C709 1.385 . S
C713 C712 1.374 . S
C714 C711 1.499 . S
C714 C715 1.373 . S
C714 C716 1.389 . S
C715 H694 0.950 . S
C715 C714 1.373 . S
C715 C731 1.377 . S
C716 C714 1.389 . S
C716 C717 1.524 . S
C716 C730 1.377 . S
C717 C716 1.524 . S
C717 C718 1.397 . S
C717 C722 1.363 . S
C718 H695 0.950 . S
C718 C717 1.397 . S
C718 C719 1.334 . S
C719 H696 0.950 . S
C719 C718 1.334 . S
C719 C720 1.287 . S
C720 C719 1.287 . S
C720 C721 1.524 . S
C720 H739 0.913 . S
C721 H697 0.950 . S
C721 C720 1.524 . S
C721 C722 1.415 . S
C722 H698 0.950 . S
C722 C717 1.363 . S
C722 C721 1.415 . S
C723 H699 0.951 . S
C723 C724 1.366 . S
C723 C725 1.388 . S
C724 C723 1.366 . S
C724 C728 1.385 . S
C725 H700 0.951 . S
C725 C723 1.388 . S
C725 C726 1.366 . S
C726 C725 1.366 . S
C726 C727 1.414 . S
C726 C729 1.499 . S
C727 H701 0.950 . S
C727 C726 1.414 . S
C727 C728 1.374 . S
C728 H702 0.950 . S
C728 C724 1.385 . S
C728 C727 1.374 . S
C729 C726 1.499 . S
C729 C730 1.373 . S
C729 C731 1.389 . S
C730 H703 0.950 . S
C730 C716 1.377 . S
C730 C729 1.373 . S
C731 C715 1.377 . S
C731 C729 1.389 . S
C731 C732 1.524 . S
C732 C731 1.524 . S
C732 C733 1.397 . S
C732 C737 1.363 . S
C733 H704 0.950 . S
C733 C732 1.397 . S
C733 C734 1.334 . S
C734 H705 0.950 . S
C734 C733 1.334 . S
C734 C735 1.287 . S
C735 C734 1.287 . S
C735 C736 1.524 . S
C735 H738 0.999 . S
C736 H706 0.950 . S
C736 C735 1.524 . S
C736 C737 1.415 . S
C737 H707 0.950 . S
C737 C732 1.363 . S
C737 C736 1.415 . S
H738 C735 0.999 . S
H739 C720 0.913 . S
H740 C758 0.951 . S
H741 C760 0.951 . S
H742 C762 0.950 . S
H743 C763 0.950 . S
H744 C765 0.950 . S
H745 C768 0.950 . S
H746 C769 0.950 . S
H747 C771 0.950 . S
H748 C772 0.950 . S
H749 C773 0.951 . S
H750 C775 0.951 . S
H751 C777 0.950 . S
H752 C778 0.950 . S
H753 C780 0.950 . S
H754 C783 0.950 . S
H755 C784 0.950 . S
H756 C786 0.950 . S
H757 C787 0.950 . S
C758 H740 0.951 . S
C758 C759 1.366 . S
C758 C760 1.388 . S
C759 C758 1.366 . S
C759 C763 1.385 . S
C760 H741 0.951 . S
C760 C758 1.388 . S
C760 C761 1.366 . S
C761 C760 1.366 . S
C761 C762 1.414 . S
C761 C764 1.499 . S
C762 H742 0.950 . S
C762 C761 1.414 . S
C762 C763 1.374 . S
C763 H743 0.950 . S
C763 C759 1.385 . S
C763 C762 1.374 . S
C764 C761 1.499 . S
C764 C765 1.373 . S
C764 C766 1.389 . S
C765 H744 0.950 . S
C765 C764 1.373 . S
C765 C781 1.377 . S
C766 C764 1.389 . S
C766 C767 1.524 . S
C766 C780 1.377 . S
C767 C766 1.524 . S
C767 C768 1.397 . S
C767 C772 1.363 . S
C768 H745 0.950 . S
C768 C767 1.397 . S
C768 C769 1.334 . S
C769 H746 0.950 . S
C769 C768 1.334 . S
C769 C770 1.287 . S
C770 C769 1.287 . S
C770 C771 1.524 . S
C770 H789 0.913 . S
C771 H747 0.950 . S
C771 C770 1.524 . S
C771 C772 1.415 . S
C772 H748 0.950 . S
C772 C767 1.363 . S
C772 C771 1.415 . S
C773 H749 0.951 . S
C773 C774 1.366 . S
C773 C775 1.388 . S
C774 C773 1.366 . S
C774 C778 1.385 . S
C775 H750 0.951 . S
C775 C773 1.388 . S
C775 C776 1.366 . S
C776 C775 1.366 . S
C776 C777 1.414 . S
C776 C779 1.499 . S
C777 H751 0.950 . S
C777 C776 1.414 . S
C777 C778 1.374 . S
C778 H752 0.950 . S
C778 C774 1.385 . S
C778 C777 1.374 . S
C779 C776 1.499 . S
C779 C780 1.373 . S
C779 C781 1.389 . S
C780 H753 0.950 . S
C780 C766 1.377 . S
C780 C779 1.373 . S
C781 C765 1.377 . S
C781 C779 1.389 . S
C781 C782 1.524 . S
C782 C781 1.524 . S
C782 C783 1.397 . S
C782 C787 1.363 . S
C783 H754 0.950 . S
C783 C782 1.397 . S
C783 C784 1.334 . S
C784 H755 0.950 . S
C784 C783 1.334 . S
C784 C785 1.287 . S
C785 C784 1.287 . S
C785 C786 1.524 . S
C785 H788 0.999 . S
C786 H756 0.950 . S
C786 C785 1.524 . S
C786 C787 1.415 . S
C787 H757 0.950 . S
C787 C782 1.363 . S
C787 C786 1.415 . S
H788 C785 0.999 . S
H789 C770 0.913 . S
H790 C808 0.951 . S
H791 C810 0.951 . S
H792 C812 0.950 . S
H793 C813 0.950 . S
H794 C815 0.950 . S
H795 C818 0.950 . S
H796 C819 0.950 . S
H797 C821 0.950 1_455 S
H798 C822 0.950 . S
H799 C823 0.951 . S
H800 C825 0.951 . S
H801 C827 0.950 . S
H802 C828 0.950 . S
H803 C830 0.950 . S
H804 C833 0.950 . S
H805 C834 0.950 . S
H806 C836 0.950 . S
H807 C837 0.950 . S
C808 H790 0.951 . S
C808 C809 1.366 . S
C808 C810 1.388 . S
C809 C808 1.366 . S
C809 C813 1.385 . S
C810 H791 0.951 . S
C810 C808 1.388 . S
C810 C811 1.366 . S
C811 C810 1.366 . S
C811 C812 1.414 . S
C811 C814 1.499 . S
C812 H792 0.950 . S
C812 C811 1.414 . S
C812 C813 1.374 . S
C813 H793 0.950 . S
C813 C809 1.385 . S
C813 C812 1.374 . S
C814 C811 1.499 . S
C814 C815 1.373 . S
C814 C816 1.389 . S
C815 H794 0.950 . S
C815 C814 1.373 . S
C815 C831 1.377 . S
C816 C814 1.389 . S
C816 C817 1.524 . S
C816 C830 1.377 . S
C817 C816 1.524 . S
C817 C818 1.397 . S
C817 C822 1.363 . S
C818 H795 0.950 . S
C818 C817 1.397 . S
C818 C819 1.334 . S
C819 H796 0.950 . S
C819 C818 1.334 . S
C819 C820 1.287 . S
C820 C819 1.287 . S
C820 C821 1.524 . S
C820 H839 0.913 . S
C821 H797 0.950 1_655 S
C821 C820 1.524 . S
C821 C822 1.415 . S
C822 H798 0.950 . S
C822 C817 1.363 . S
C822 C821 1.415 . S
C823 H799 0.951 . S
C823 C824 1.366 . S
C823 C825 1.388 . S
C824 C823 1.366 . S
C824 C828 1.385 . S
C825 H800 0.951 . S
C825 C823 1.388 . S
C825 C826 1.366 . S
C826 C825 1.366 . S
C826 C827 1.414 . S
C826 C829 1.499 . S
C827 H801 0.950 . S
C827 C826 1.414 . S
C827 C828 1.374 . S
C828 H802 0.950 . S
C828 C824 1.385 . S
C828 C827 1.374 . S
C829 C826 1.499 . S
C829 C830 1.373 . S
C829 C831 1.389 . S
C830 H803 0.950 . S
C830 C816 1.377 . S
C830 C829 1.373 . S
C831 C815 1.377 . S
C831 C829 1.389 . S
C831 C832 1.524 . S
C832 C831 1.524 . S
C832 C833 1.397 . S
C832 C837 1.363 . S
C833 H804 0.950 . S
C833 C832 1.397 . S
C833 C834 1.334 . S
C834 H805 0.950 . S
C834 C833 1.334 . S
C834 C835 1.287 . S
C835 C834 1.287 . S
C835 C836 1.524 . S
C835 H838 0.999 . S
C836 H806 0.950 . S
C836 C835 1.524 . S
C836 C837 1.415 . S
C837 H807 0.950 . S
C837 C832 1.363 . S
C837 C836 1.415 . S
H838 C835 0.999 . S
H839 C820 0.913 . S
H840 C858 0.951 . S
H841 C860 0.951 . S
H842 C862 0.950 . S
H843 C863 0.950 . S
H844 C865 0.950 . S
H845 C868 0.950 . S
H846 C869 0.950 . S
H847 C871 0.950 . S
H848 C872 0.950 . S
H849 C873 0.951 . S
H850 C875 0.951 . S
H851 C877 0.950 . S
H852 C878 0.950 . S
H853 C880 0.950 . S
H854 C883 0.950 . S
H855 C884 0.950 . S
H856 C886 0.950 . S
H857 C887 0.950 . S
C858 H840 0.951 . S
C858 C859 1.366 . S
C858 C860 1.388 . S
C859 C858 1.366 . S
C859 C863 1.385 . S
C860 H841 0.951 . S
C860 C858 1.388 . S
C860 C861 1.366 . S
C861 C860 1.366 . S
C861 C862 1.414 . S
C861 C864 1.499 . S
C862 H842 0.950 . S
C862 C861 1.414 . S
C862 C863 1.374 . S
C863 H843 0.950 . S
C863 C859 1.385 . S
C863 C862 1.374 . S
C864 C861 1.499 . S
C864 C865 1.373 . S
C864 C866 1.389 . S
C865 H844 0.950 . S
C865 C864 1.373 . S
C865 C881 1.377 . S
C866 C864 1.389 . S
C866 C867 1.524 . S
C866 C880 1.377 . S
C867 C866 1.524 . S
C867 C868 1.397 . S
C867 C872 1.363 . S
C868 H845 0.950 . S
C868 C867 1.397 . S
C868 C869 1.334 . S
C869 H846 0.950 . S
C869 C868 1.334 . S
C869 C870 1.287 . S
C870 C869 1.287 . S
C870 C871 1.524 . S
C870 H889 0.913 . S
C871 H847 0.950 . S
C871 C870 1.524 . S
C871 C872 1.415 . S
C872 H848 0.950 . S
C872 C867 1.363 . S
C872 C871 1.415 . S
C873 H849 0.951 . S
C873 C874 1.366 . S
C873 C875 1.388 . S
C874 C873 1.366 . S
C874 C878 1.385 . S
C875 H850 0.951 . S
C875 C873 1.388 . S
C875 C876 1.366 . S
C876 C875 1.366 . S
C876 C877 1.414 . S
C876 C879 1.499 . S
C877 H851 0.950 . S
C877 C876 1.414 . S
C877 C878 1.374 . S
C878 H852 0.950 . S
C878 C874 1.385 . S
C878 C877 1.374 . S
C879 C876 1.499 . S
C879 C880 1.373 . S
C879 C881 1.389 . S
C880 H853 0.950 . S
C880 C866 1.377 . S
C880 C879 1.373 . S
C881 C865 1.377 . S
C881 C879 1.389 . S
C881 C882 1.524 . S
C882 C881 1.524 . S
C882 C883 1.397 . S
C882 C887 1.363 . S
C883 H854 0.950 . S
C883 C882 1.397 . S
C883 C884 1.334 . S
C884 H855 0.950 . S
C884 C883 1.334 . S
C884 C885 1.287 . S
C885 C884 1.287 . S
C885 C886 1.524 . S
C885 H888 0.999 . S
C886 H856 0.950 . S
C886 C885 1.524 . S
C886 C887 1.415 . S
C887 H857 0.950 . S
C887 C882 1.363 . S
C887 C886 1.415 . S
H888 C885 0.999 . S
H889 C870 0.913 . S
H890 C908 0.951 . S
H891 C910 0.951 . S
H892 C912 0.950 . S
H893 C913 0.950 . S
H894 C915 0.950 . S
H895 C918 0.950 . S
H896 C919 0.950 . S
H897 C921 0.950 . S
H898 C922 0.950 . S
H899 C923 0.951 . S
H900 C925 0.951 . S
H901 C927 0.950 . S
H902 C928 0.950 . S
H903 C930 0.950 . S
H904 C933 0.950 . S
H905 C934 0.929 1_545 S
H906 C936 0.950 . S
H907 C937 0.950 . S
C908 H890 0.951 . S
C908 C909 1.366 . S
C908 C910 1.388 . S
C909 C908 1.366 . S
C909 C913 1.385 . S
C910 H891 0.951 . S
C910 C908 1.388 . S
C910 C911 1.366 . S
C911 C910 1.366 . S
C911 C912 1.414 . S
C911 C914 1.499 . S
C912 H892 0.950 . S
C912 C911 1.414 . S
C912 C913 1.374 . S
C913 H893 0.950 . S
C913 C909 1.385 . S
C913 C912 1.374 . S
C914 C911 1.499 . S
C914 C915 1.373 . S
C914 C916 1.389 . S
C915 H894 0.950 . S
C915 C914 1.373 . S
C915 C931 1.377 . S
C916 C914 1.389 . S
C916 C917 1.524 . S
C916 C930 1.377 . S
C917 C916 1.524 . S
C917 C918 1.397 . S
C917 C922 1.363 . S
C918 H895 0.950 . S
C918 C917 1.397 . S
C918 C919 1.334 . S
C919 H896 0.950 . S
C919 C918 1.334 . S
C919 C920 1.287 . S
C920 C919 1.287 . S
C920 C921 1.524 . S
C920 H939 0.913 . S
C921 H897 0.950 . S
C921 C920 1.524 . S
C921 C922 1.415 . S
C922 H898 0.950 . S
C922 C917 1.363 . S
C922 C921 1.415 . S
C923 H899 0.951 . S
C923 C924 1.366 . S
C923 C925 1.388 . S
C924 C923 1.366 . S
C924 C928 1.385 . S
C925 H900 0.951 . S
C925 C923 1.388 . S
C925 C926 1.366 . S
C926 C925 1.366 . S
C926 C927 1.414 . S
C926 C929 1.499 . S
C927 H901 0.950 . S
C927 C926 1.414 . S
C927 C928 1.374 . S
C928 H902 0.950 . S
C928 C924 1.385 . S
C928 C927 1.374 . S
C929 C926 1.499 . S
C929 C930 1.373 . S
C929 C931 1.389 . S
C930 H903 0.950 . S
C930 C916 1.377 . S
C930 C929 1.373 . S
C931 C915 1.377 . S
C931 C929 1.389 . S
C931 C932 1.524 . S
C932 C931 1.524 . S
C932 C933 1.397 . S
C932 C937 1.363 . S
C933 H904 0.950 . S
C933 C932 1.397 . S
C933 C934 1.377 . S
C934 H905 0.929 1_565 S
C934 C933 1.377 . S
C934 C935 1.267 1_565 S
C935 C934 1.267 1_545 S
C935 C936 1.524 . S
C935 H938 0.999 . S
C936 H906 0.950 . S
C936 C935 1.524 . S
C936 C937 1.415 1_545 S
C937 H907 0.950 . S
C937 C932 1.363 . S
C937 C936 1.415 1_565 S
H938 C935 0.999 . S
H939 C920 0.913 . S
H940 C958 0.951 . S
H941 C960 0.951 . S
H942 C962 0.950 . S
H943 C963 0.950 . S
H944 C965 0.950 . S
H945 C968 0.950 . S
H946 C969 0.950 . S
H947 C971 0.950 . S
H948 C972 0.950 . S
H949 C973 0.951 . S
H950 C975 0.951 . S
H951 C977 0.950 . S
H952 C978 0.950 . S
H953 C980 0.950 . S
H954 C983 0.950 . S
H955 C984 0.950 . S
H956 C986 0.950 . S
H957 C987 0.950 . S
C958 H940 0.951 . S
C958 C959 1.366 . S
C958 C960 1.388 . S
C959 C958 1.366 . S
C959 C963 1.385 . S
C960 H941 0.951 . S
C960 C958 1.388 . S
C960 C961 1.366 . S
C961 C960 1.366 . S
C961 C962 1.414 . S
C961 C964 1.499 . S
C962 H942 0.950 . S
C962 C961 1.414 . S
C962 C963 1.374 . S
C963 H943 0.950 . S
C963 C959 1.385 . S
C963 C962 1.374 . S
C964 C961 1.499 . S
C964 C965 1.373 . S
C964 C966 1.389 . S
C965 H944 0.950 . S
C965 C964 1.373 . S
C965 C981 1.377 . S
C966 C964 1.389 . S
C966 C967 1.524 . S
C966 C980 1.377 . S
C967 C966 1.524 . S
C967 C968 1.397 . S
C967 C972 1.363 . S
C968 H945 0.950 . S
C968 C967 1.397 . S
C968 C969 1.334 . S
C969 H946 0.950 . S
C969 C968 1.334 . S
C969 C970 1.287 . S
C970 C969 1.287 . S
C970 C971 1.524 . S
C970 H989 0.913 . S
C971 H947 0.950 . S
C971 C970 1.524 . S
C971 C972 1.415 . S
C972 H948 0.950 . S
C972 C967 1.363 . S
C972 C971 1.415 . S
C973 H949 0.951 . S
C973 C974 1.366 . S
C973 C975 1.388 . S
C974 C973 1.366 . S
C974 C978 1.385 . S
C975 H950 0.951 . S
C975 C973 1.388 . S
C975 C976 1.366 . S
C976 C975 1.366 . S
C976 C977 1.414 . S
C976 C979 1.499 . S
C977 H951 0.950 . S
C977 C976 1.414 . S
C977 C978 1.374 . S
C978 H952 0.950 . S
C978 C974 1.385 . S
C978 C977 1.374 . S
C979 C976 1.499 . S
C979 C980 1.373 . S
C979 C981 1.389 . S
C980 H953 0.950 . S
C980 C966 1.377 . S
C980 C979 1.373 . S
C981 C965 1.377 . S
C981 C979 1.389 . S
C981 C982 1.524 . S
C982 C981 1.524 . S
C982 C983 1.397 . S
C982 C987 1.363 . S
C983 H954 0.950 . S
C983 C982 1.397 . S
C983 C984 1.334 . S
C984 H955 0.950 . S
C984 C983 1.334 . S
C984 C985 1.287 . S
C985 C984 1.287 . S
C985 C986 1.524 . S
C985 H988 0.999 . S
C986 H956 0.950 . S
C986 C985 1.524 . S
C986 C987 1.415 . S
C987 H957 0.950 . S
C987 C982 1.363 . S
C987 C986 1.415 . S
H988 C985 0.999 . S
H989 C970 0.913 . S
H990 C1008 0.951 . S
H991 C1010 0.951 . S
H992 C1012 0.950 . S
H993 C1013 0.950 . S
H994 C1015 0.950 . S
H995 C1018 0.950 . S
H996 C1019 0.950 . S
H997 C1021 0.950 . S
H998 C1022 0.950 . S
H999 C1023 0.951 . S
H1000 C1025 0.951 . S
H1001 C1027 0.950 . S
H1002 C1028 0.950 . S
H1003 C1030 0.950 . S
H1004 C1033 0.950 . S
H1005 C1034 0.950 . S
H1006 C1036 0.950 . S
H1007 C1037 0.950 . S
C1008 H990 0.951 . S
C1008 C1009 1.366 . S
C1008 C1010 1.388 . S
C1009 C1008 1.366 . S
C1009 C1013 1.385 . S
C1010 H991 0.951 . S
C1010 C1008 1.388 . S
C1010 C1011 1.366 . S
C1011 C1010 1.366 . S
C1011 C1012 1.414 . S
C1011 C1014 1.499 . S
C1012 H992 0.950 . S
C1012 C1011 1.414 . S
C1012 C1013 1.374 . S
C1013 H993 0.950 . S
C1013 C1009 1.385 . S
C1013 C1012 1.374 . S
C1014 C1011 1.499 . S
C1014 C1015 1.373 . S
C1014 C1016 1.389 . S
C1015 H994 0.950 . S
C1015 C1014 1.373 . S
C1015 C1031 1.377 . S
C1016 C1014 1.389 . S
C1016 C1017 1.524 . S
C1016 C1030 1.377 . S
C1017 C1016 1.524 . S
C1017 C1018 1.397 . S
C1017 C1022 1.363 . S
C1018 H995 0.950 . S
C1018 C1017 1.397 . S
C1018 C1019 1.334 . S
C1019 H996 0.950 . S
C1019 C1018 1.334 . S
C1019 C1020 1.287 . S
C1020 C1019 1.287 . S
C1020 C1021 1.524 . S
C1020 H1039 0.913 . S
C1021 H997 0.950 . S
C1021 C1020 1.524 . S
C1021 C1022 1.415 . S
C1022 H998 0.950 . S
C1022 C1017 1.363 . S
C1022 C1021 1.415 . S
C1023 H999 0.951 . S
C1023 C1024 1.366 . S
C1023 C1025 1.388 . S
C1024 C1023 1.366 . S
C1024 C1028 1.385 . S
C1025 H1000 0.951 . S
C1025 C1023 1.388 . S
C1025 C1026 1.366 . S
C1026 C1025 1.366 . S
C1026 C1027 1.414 . S
C1026 C1029 1.499 . S
C1027 H1001 0.950 . S
C1027 C1026 1.414 . S
C1027 C1028 1.374 . S
C1028 H1002 0.950 . S
C1028 C1024 1.385 . S
C1028 C1027 1.374 . S
C1029 C1026 1.499 . S
C1029 C1030 1.373 . S
C1029 C1031 1.389 . S
C1030 H1003 0.950 . S
C1030 C1016 1.377 . S
C1030 C1029 1.373 . S
C1031 C1015 1.377 . S
C1031 C1029 1.389 . S
C1031 C1032 1.524 . S
C1032 C1031 1.524 . S
C1032 C1033 1.397 . S
C1032 C1037 1.363 . S
C1033 H1004 0.950 . S
C1033 C1032 1.397 . S
C1033 C1034 1.334 . S
C1034 H1005 0.950 . S
C1034 C1033 1.334 . S
C1034 C1035 1.287 . S
C1035 C1034 1.287 . S
C1035 C1036 1.524 . S
C1035 H1038 0.999 . S
C1036 H1006 0.950 . S
C1036 C1035 1.524 . S
C1036 C1037 1.415 . S
C1037 H1007 0.950 . S
C1037 C1032 1.363 . S
C1037 C1036 1.415 . S
H1038 C1035 0.999 . S
H1039 C1020 0.913 . S
H1040 C1058 0.951 . S
H1041 C1060 0.951 . S
H1042 C1062 0.950 . S
H1043 C1063 0.950 . S
H1044 C1065 0.950 . S
H1045 C1068 0.950 . S
H1046 C1069 0.950 . S
H1047 C1071 0.950 . S
H1048 C1072 0.950 . S
H1049 C1073 0.951 . S
H1050 C1075 0.951 . S
H1051 C1077 0.950 . S
H1052 C1078 0.950 . S
H1053 C1080 0.950 . S
H1054 C1083 0.950 . S
H1055 C1084 0.950 . S
H1056 C1086 0.950 . S
H1057 C1087 0.950 . S
C1058 H1040 0.951 . S
C1058 C1059 1.366 . S
C1058 C1060 1.388 . S
C1059 C1058 1.366 . S
C1059 C1063 1.385 . S
C1060 H1041 0.951 . S
C1060 C1058 1.388 . S
C1060 C1061 1.366 . S
C1061 C1060 1.366 . S
C1061 C1062 1.414 . S
C1061 C1064 1.499 . S
C1062 H1042 0.950 . S
C1062 C1061 1.414 . S
C1062 C1063 1.374 . S
C1063 H1043 0.950 . S
C1063 C1059 1.385 . S
C1063 C1062 1.374 . S
C1064 C1061 1.499 . S
C1064 C1065 1.373 . S
C1064 C1066 1.389 . S
C1065 H1044 0.950 . S
C1065 C1064 1.373 . S
C1065 C1081 1.377 . S
C1066 C1064 1.389 . S
C1066 C1067 1.524 . S
C1066 C1080 1.377 . S
C1067 C1066 1.524 . S
C1067 C1068 1.397 . S
C1067 C1072 1.363 . S
C1068 H1045 0.950 . S
C1068 C1067 1.397 . S
C1068 C1069 1.334 . S
C1069 H1046 0.950 . S
C1069 C1068 1.334 . S
C1069 C1070 1.287 . S
C1070 C1069 1.287 . S
C1070 C1071 1.524 . S
C1070 H1089 0.913 . S
C1071 H1047 0.950 . S
C1071 C1070 1.524 . S
C1071 C1072 1.415 . S
C1072 H1048 0.950 . S
C1072 C1067 1.363 . S
C1072 C1071 1.415 . S
C1073 H1049 0.951 . S
C1073 C1074 1.366 . S
C1073 C1075 1.388 . S
C1074 C1073 1.366 . S
C1074 C1078 1.385 . S
C1075 H1050 0.951 . S
C1075 C1073 1.388 . S
C1075 C1076 1.366 . S
C1076 C1075 1.366 . S
C1076 C1077 1.414 . S
C1076 C1079 1.499 . S
C1077 H1051 0.950 . S
C1077 C1076 1.414 . S
C1077 C1078 1.374 . S
C1078 H1052 0.950 . S
C1078 C1074 1.385 . S
C1078 C1077 1.374 . S
C1079 C1076 1.499 . S
C1079 C1080 1.373 . S
C1079 C1081 1.389 . S
C1080 H1053 0.950 . S
C1080 C1066 1.377 . S
C1080 C1079 1.373 . S
C1081 C1065 1.377 . S
C1081 C1079 1.389 . S
C1081 C1082 1.524 . S
C1082 C1081 1.524 . S
C1082 C1083 1.397 . S
C1082 C1087 1.363 . S
C1083 H1054 0.950 . S
C1083 C1082 1.397 . S
C1083 C1084 1.334 . S
C1084 H1055 0.950 . S
C1084 C1083 1.334 . S
C1084 C1085 1.287 . S
C1085 C1084 1.287 . S
C1085 C1086 1.524 . S
C1085 H1088 0.999 . S
C1086 H1056 0.950 . S
C1086 C1085 1.524 . S
C1086 C1087 1.415 . S
C1087 H1057 0.950 . S
C1087 C1082 1.363 . S
C1087 C1086 1.415 . S
H1088 C1085 0.999 . S
H1089 C1070 0.913 . S
H1090 C1108 0.951 . S
H1091 C1110 0.951 . S
H1092 C1112 0.950 . S
H1093 C1113 0.950 . S
H1094 C1115 0.950 . S
H1095 C1118 0.950 . S
H1096 C1119 0.950 . S
H1097 C1121 0.950 . S
H1098 C1122 0.950 . S
H1099 C1123 0.951 . S
H1100 C1125 0.951 . S
H1101 C1127 0.950 . S
H1102 C1128 0.950 . S
H1103 C1130 0.950 . S
H1104 C1133 0.950 . S
H1105 C1134 0.950 . S
H1106 C1136 0.950 . S
H1107 C1137 0.950 . S
C1108 H1090 0.951 . S
C1108 C1109 1.366 . S
C1108 C1110 1.388 . S
C1109 C1108 1.366 . S
C1109 C1113 1.385 . S
C1110 H1091 0.951 . S
C1110 C1108 1.388 . S
C1110 C1111 1.366 . S
C1111 C1110 1.366 . S
C1111 C1112 1.414 . S
C1111 C1114 1.499 . S
C1112 H1092 0.950 . S
C1112 C1111 1.414 . S
C1112 C1113 1.374 . S
C1113 H1093 0.950 . S
C1113 C1109 1.385 . S
C1113 C1112 1.374 . S
C1114 C1111 1.499 . S
C1114 C1115 1.373 . S
C1114 C1116 1.389 . S
C1115 H1094 0.950 . S
C1115 C1114 1.373 . S
C1115 C1131 1.377 . S
C1116 C1114 1.389 . S
C1116 C1117 1.524 . S
C1116 C1130 1.377 . S
C1117 C1116 1.524 . S
C1117 C1118 1.397 . S
C1117 C1122 1.363 . S
C1118 H1095 0.950 . S
C1118 C1117 1.397 . S
C1118 C1119 1.334 . S
C1119 H1096 0.950 . S
C1119 C1118 1.334 . S
C1119 C1120 1.287 . S
C1120 C1119 1.287 . S
C1120 C1121 1.524 . S
C1120 H1139 0.913 . S
C1121 H1097 0.950 . S
C1121 C1120 1.524 . S
C1121 C1122 1.415 . S
C1122 H1098 0.950 . S
C1122 C1117 1.363 . S
C1122 C1121 1.415 . S
C1123 H1099 0.951 . S
C1123 C1124 1.366 . S
C1123 C1125 1.388 . S
C1124 C1123 1.366 . S
C1124 C1128 1.385 . S
C1125 H1100 0.951 . S
C1125 C1123 1.388 . S
C1125 C1126 1.366 . S
C1126 C1125 1.366 . S
C1126 C1127 1.414 . S
C1126 C1129 1.499 . S
C1127 H1101 0.950 . S
C1127 C1126 1.414 . S
C1127 C1128 1.374 . S
C1128 H1102 0.950 . S
C1128 C1124 1.385 . S
C1128 C1127 1.374 . S
C1129 C1126 1.499 . S
C1129 C1130 1.373 . S
C1129 C1131 1.389 . S
C1130 H1103 0.950 . S
C1130 C1116 1.377 . S
C1130 C1129 1.373 . S
C1131 C1115 1.377 . S
C1131 C1129 1.389 . S
C1131 C1132 1.524 . S
C1132 C1131 1.524 . S
C1132 C1133 1.397 . S
C1132 C1137 1.363 . S
C1133 H1104 0.950 . S
C1133 C1132 1.397 . S
C1133 C1134 1.334 . S
C1134 H1105 0.950 . S
C1134 C1133 1.334 . S
C1134 C1135 1.287 . S
C1135 C1134 1.287 . S
C1135 C1136 1.524 . S
C1135 H1138 0.999 . S
C1136 H1106 0.950 . S
C1136 C1135 1.524 . S
C1136 C1137 1.415 . S
C1137 H1107 0.950 . S
C1137 C1132 1.363 . S
C1137 C1136 1.415 . S
H1138 C1135 0.999 . S
H1139 C1120 0.913 . S
H1140 C1158 0.951 . S
H1141 C1160 0.951 . S
H1142 C1162 0.950 . S
H1143 C1163 0.950 . S
H1144 C1165 0.950 . S
H1145 C1168 0.950 . S
H1146 C1169 0.950 . S
H1147 C1171 0.950 . S
H1148 C1172 0.950 . S
H1149 C1173 0.951 . S
H1150 C1175 0.951 . S
H1151 C1177 0.950 . S
H1152 C1178 0.950 . S
H1153 C1180 0.950 . S
H1154 C1183 0.950 . S
H1155 C1184 0.950 . S
H1156 C1186 0.950 . S
H1157 C1187 0.950 . S
C1158 H1140 0.951 . S
C1158 C1159 1.366 . S
C1158 C1160 1.388 . S
C1159 C1158 1.366 . S
C1159 C1163 1.385 . S
C1160 H1141 0.951 . S
C1160 C1158 1.388 . S
C1160 C1161 1.366 . S
C1161 C1160 1.366 . S
C1161 C1162 1.414 . S
C1161 C1164 1.499 . S
C1162 H1142 0.950 . S
C1162 C1161 1.414 . S
C1162 C1163 1.374 . S
C1163 H1143 0.950 . S
C1163 C1159 1.385 . S
C1163 C1162 1.374 . S
C1164 C1161 1.499 . S
C1164 C1165 1.373 . S
C1164 C1166 1.389 . S
C1165 H1144 0.950 . S
C1165 C1164 1.373 . S
C1165 C1181 1.377 . S
C1166 C1164 1.389 . S
C1166 C1167 1.524 . S
C1166 C1180 1.377 . S
C1167 C1166 1.524 . S
C1167 C1168 1.397 . S
C1167 C1172 1.363 . S
C1168 H1145 0.950 . S
C1168 C1167 1.397 . S
C1168 C1169 1.334 . S
C1169 H1146 0.950 . S
C1169 C1168 1.334 . S
C1169 C1170 1.287 . S
C1170 C1169 1.287 . S
C1170 C1171 1.524 . S
C1170 H1189 0.913 . S
C1171 H1147 0.950 . S
C1171 C1170 1.524 . S
C1171 C1172 1.415 . S
C1172 H1148 0.950 . S
C1172 C1167 1.363 . S
C1172 C1171 1.415 . S
C1173 H1149 0.951 . S
C1173 C1174 1.366 . S
C1173 C1175 1.388 . S
C1174 C1173 1.366 . S
C1174 C1178 1.385 . S
C1175 H1150 0.951 . S
C1175 C1173 1.388 . S
C1175 C1176 1.366 . S
C1176 C1175 1.366 . S
C1176 C1177 1.414 . S
C1176 C1179 1.499 . S
C1177 H1151 0.950 . S
C1177 C1176 1.414 . S
C1177 C1178 1.374 . S
C1178 H1152 0.950 . S
C1178 C1174 1.385 . S
C1178 C1177 1.374 . S
C1179 C1176 1.499 . S
C1179 C1180 1.373 . S
C1179 C1181 1.389 . S
C1180 H1153 0.950 . S
C1180 C1166 1.377 . S
C1180 C1179 1.373 . S
C1181 C1165 1.377 . S
C1181 C1179 1.389 . S
C1181 C1182 1.524 . S
C1182 C1181 1.524 . S
C1182 C1183 1.397 . S
C1182 C1187 1.363 . S
C1183 H1154 0.950 . S
C1183 C1182 1.397 . S
C1183 C1184 1.334 . S
C1184 H1155 0.950 . S
C1184 C1183 1.334 . S
C1184 C1185 1.287 . S
C1185 C1184 1.287 . S
C1185 C1186 1.524 . S
C1185 H1188 0.999 . S
C1186 H1156 0.950 . S
C1186 C1185 1.524 . S
C1186 C1187 1.415 . S
C1187 H1157 0.950 . S
C1187 C1182 1.363 . S
C1187 C1186 1.415 . S
H1188 C1185 0.999 . S
H1189 C1170 0.913 . S
H1190 C1208 0.951 . S
H1191 C1210 0.951 . S
H1192 C1212 0.950 . S
H1193 C1213 0.950 . S
H1194 C1215 0.950 . S
H1195 C1218 0.950 . S
H1196 C1219 0.950 . S
H1197 C1221 0.950 . S
H1198 C1222 0.950 . S
H1199 C1223 0.951 . S
H1200 C1225 0.951 . S
H1201 C1227 0.950 . S
H1202 C1228 0.950 . S
H1203 C1230 0.950 . S
H1204 C1233 0.950 . S
H1205 C1234 0.950 . S
H1206 C1236 0.950 . S
H1207 C1237 0.950 . S
C1208 H1190 0.951 . S
C1208 C1209 1.366 . S
C1208 C1210 1.388 . S
C1209 C1208 1.366 . S
C1209 C1213 1.385 . S
C1210 H1191 0.951 . S
C1210 C1208 1.388 . S
C1210 C1211 1.366 . S
C1211 C1210 1.366 . S
C1211 C1212 1.414 . S
C1211 C1214 1.499 . S
C1212 H1192 0.950 . S
C1212 C1211 1.414 . S
C1212 C1213 1.374 . S
C1213 H1193 0.950 . S
C1213 C1209 1.385 . S
C1213 C1212 1.374 . S
C1214 C1211 1.499 . S
C1214 C1215 1.373 . S
C1214 C1216 1.389 . S
C1215 H1194 0.950 . S
C1215 C1214 1.373 . S
C1215 C1231 1.377 . S
C1216 C1214 1.389 . S
C1216 C1217 1.524 . S
C1216 C1230 1.377 . S
C1217 C1216 1.524 . S
C1217 C1218 1.397 . S
C1217 C1222 1.363 . S
C1218 H1195 0.950 . S
C1218 C1217 1.397 . S
C1218 C1219 1.334 . S
C1219 H1196 0.950 . S
C1219 C1218 1.334 . S
C1219 C1220 1.287 . S
C1220 C1219 1.287 . S
C1220 C1221 1.524 . S
C1220 H1239 0.913 . S
C1221 H1197 0.950 . S
C1221 C1220 1.524 . S
C1221 C1222 1.415 . S
C1222 H1198 0.950 . S
C1222 C1217 1.363 . S
C1222 C1221 1.415 . S
C1223 H1199 0.951 . S
C1223 C1224 1.366 . S
C1223 C1225 1.388 . S
C1224 C1223 1.366 . S
C1224 C1228 1.385 . S
C1225 H1200 0.951 . S
C1225 C1223 1.388 . S
C1225 C1226 1.366 . S
C1226 C1225 1.366 . S
C1226 C1227 1.414 . S
C1226 C1229 1.499 . S
C1227 H1201 0.950 . S
C1227 C1226 1.414 . S
C1227 C1228 1.374 . S
C1228 H1202 0.950 . S
C1228 C1224 1.385 . S
C1228 C1227 1.374 . S
C1229 C1226 1.499 . S
C1229 C1230 1.373 . S
C1229 C1231 1.389 . S
C1230 H1203 0.950 . S
C1230 C1216 1.377 . S
C1230 C1229 1.373 . S
C1231 C1215 1.377 . S
C1231 C1229 1.389 . S
C1231 C1232 1.524 . S
C1232 C1231 1.524 . S
C1232 C1233 1.397 . S
C1232 C1237 1.363 . S
C1233 H1204 0.950 . S
C1233 C1232 1.397 . S
C1233 C1234 1.334 . S
C1234 H1205 0.950 . S
C1234 C1233 1.334 . S
C1234 C1235 1.287 . S
C1235 C1234 1.287 . S
C1235 C1236 1.524 . S
C1235 H1238 0.999 . S
C1236 H1206 0.950 . S
C1236 C1235 1.524 . S
C1236 C1237 1.415 . S
C1237 H1207 0.950 . S
C1237 C1232 1.363 . S
C1237 C1236 1.415 . S
H1238 C1235 0.999 . S
H1239 C1220 0.913 . S
H1240 C1258 0.951 . S
H1241 C1260 0.951 . S
H1242 C1262 0.950 . S
H1243 C1263 0.950 . S
H1244 C1265 0.950 . S
H1245 C1268 0.950 . S
H1246 C1269 0.950 . S
H1247 C1271 0.950 . S
H1248 C1272 0.950 . S
H1249 C1273 0.951 . S
H1250 C1275 0.951 . S
H1251 C1277 0.950 . S
H1252 C1278 0.950 . S
H1253 C1280 0.950 . S
H1254 C1283 0.950 . S
H1255 C1284 0.950 . S
H1256 C1286 0.950 . S
H1257 C1287 0.950 . S
C1258 H1240 0.951 . S
C1258 C1259 1.366 . S
C1258 C1260 1.388 . S
C1259 C1258 1.366 . S
C1259 C1263 1.385 . S
C1260 H1241 0.951 . S
C1260 C1258 1.388 . S
C1260 C1261 1.366 . S
C1261 C1260 1.366 . S
C1261 C1262 1.414 . S
C1261 C1264 1.499 . S
C1262 H1242 0.950 . S
C1262 C1261 1.414 . S
C1262 C1263 1.374 . S
C1263 H1243 0.950 . S
C1263 C1259 1.385 . S
C1263 C1262 1.374 . S
C1264 C1261 1.499 . S
C1264 C1265 1.373 . S
C1264 C1266 1.389 . S
C1265 H1244 0.950 . S
C1265 C1264 1.373 . S
C1265 C1281 1.377 . S
C1266 C1264 1.389 . S
C1266 C1267 1.524 . S
C1266 C1280 1.377 . S
C1267 C1266 1.524 . S
C1267 C1268 1.397 . S
C1267 C1272 1.363 . S
C1268 H1245 0.950 . S
C1268 C1267 1.397 . S
C1268 C1269 1.334 . S
C1269 H1246 0.950 . S
C1269 C1268 1.334 . S
C1269 C1270 1.287 . S
C1270 C1269 1.287 . S
C1270 C1271 1.524 . S
C1270 H1289 0.913 . S
C1271 H1247 0.950 . S
C1271 C1270 1.524 . S
C1271 C1272 1.415 . S
C1272 H1248 0.950 . S
C1272 C1267 1.363 . S
C1272 C1271 1.415 . S
C1273 H1249 0.951 . S
C1273 C1274 1.366 . S
C1273 C1275 1.388 . S
C1274 C1273 1.366 . S
C1274 C1278 1.385 . S
C1275 H1250 0.951 . S
C1275 C1273 1.388 . S
C1275 C1276 1.366 . S
C1276 C1275 1.366 . S
C1276 C1277 1.414 . S
C1276 C1279 1.499 . S
C1277 H1251 0.950 . S
C1277 C1276 1.414 . S
C1277 C1278 1.374 . S
C1278 H1252 0.950 . S
C1278 C1274 1.385 . S
C1278 C1277 1.374 . S
C1279 C1276 1.499 . S
C1279 C1280 1.373 . S
C1279 C1281 1.389 . S
C1280 H1253 0.950 . S
C1280 C1266 1.377 . S
C1280 C1279 1.373 . S
C1281 C1265 1.377 . S
C1281 C1279 1.389 . S
C1281 C1282 1.524 . S
C1282 C1281 1.524 . S
C1282 C1283 1.397 . S
C1282 C1287 1.363 . S
C1283 H1254 0.950 . S
C1283 C1282 1.397 . S
C1283 C1284 1.334 . S
C1284 H1255 0.950 . S
C1284 C1283 1.334 . S
C1284 C1285 1.287 . S
C1285 C1284 1.287 . S
C1285 C1286 1.524 . S
C1285 H1288 0.999 . S
C1286 H1256 0.950 . S
C1286 C1285 1.524 . S
C1286 C1287 1.415 . S
C1287 H1257 0.950 . S
C1287 C1282 1.363 . S
C1287 C1286 1.415 . S
H1288 C1285 0.999 . S
H1289 C1270 0.913 . S
H1290 C1308 0.951 . S
H1291 C1310 0.951 . S
H1292 C1312 0.950 . S
H1293 C1313 0.950 . S
H1294 C1315 0.950 . S
H1295 C1318 0.950 . S
H1296 C1319 0.950 . S
H1297 C1321 0.950 . S
H1298 C1322 0.950 . S
H1299 C1323 0.951 . S
H1300 C1325 0.951 . S
H1301 C1327 0.950 . S
H1302 C1328 0.950 . S
H1303 C1330 0.950 . S
H1304 C1333 0.950 . S
H1305 C1334 0.950 . S
H1306 C1336 0.950 . S
H1307 C1337 0.950 . S
C1308 H1290 0.951 . S
C1308 C1309 1.366 . S
C1308 C1310 1.388 . S
C1309 C1308 1.366 . S
C1309 C1313 1.385 . S
C1310 H1291 0.951 . S
C1310 C1308 1.388 . S
C1310 C1311 1.366 . S
C1311 C1310 1.366 . S
C1311 C1312 1.414 . S
C1311 C1314 1.499 . S
C1312 H1292 0.950 . S
C1312 C1311 1.414 . S
C1312 C1313 1.374 . S
C1313 H1293 0.950 . S
C1313 C1309 1.385 . S
C1313 C1312 1.374 . S
C1314 C1311 1.499 . S
C1314 C1315 1.373 . S
C1314 C1316 1.389 . S
C1315 H1294 0.950 . S
C1315 C1314 1.373 . S
C1315 C1331 1.377 . S
C1316 C1314 1.389 . S
C1316 C1317 1.524 . S
C1316 C1330 1.377 . S
C1317 C1316 1.524 . S
C1317 C1318 1.397 . S
C1317 C1322 1.363 . S
C1318 H1295 0.950 . S
C1318 C1317 1.397 . S
C1318 C1319 1.334 . S
C1319 H1296 0.950 . S
C1319 C1318 1.334 . S
C1319 C1320 1.287 . S
C1320 C1319 1.287 . S
C1320 C1321 1.524 . S
C1320 H1339 0.913 . S
C1321 H1297 0.950 . S
C1321 C1320 1.524 . S
C1321 C1322 1.415 . S
C1322 H1298 0.950 . S
C1322 C1317 1.363 . S
C1322 C1321 1.415 . S
C1323 H1299 0.951 . S
C1323 C1324 1.366 . S
C1323 C1325 1.388 . S
C1324 C1323 1.366 . S
C1324 C1328 1.385 . S
C1325 H1300 0.951 . S
C1325 C1323 1.388 . S
C1325 C1326 1.366 . S
C1326 C1325 1.366 . S
C1326 C1327 1.414 . S
C1326 C1329 1.499 . S
C1327 H1301 0.950 . S
C1327 C1326 1.414 . S
C1327 C1328 1.374 . S
C1328 H1302 0.950 . S
C1328 C1324 1.385 . S
C1328 C1327 1.374 . S
C1329 C1326 1.499 . S
C1329 C1330 1.373 . S
C1329 C1331 1.389 . S
C1330 H1303 0.950 . S
C1330 C1316 1.377 . S
C1330 C1329 1.373 . S
C1331 C1315 1.377 . S
C1331 C1329 1.389 . S
C1331 C1332 1.524 . S
C1332 C1331 1.524 . S
C1332 C1333 1.397 . S
C1332 C1337 1.363 . S
C1333 H1304 0.950 . S
C1333 C1332 1.397 . S
C1333 C1334 1.334 . S
C1334 H1305 0.950 . S
C1334 C1333 1.334 . S
C1334 C1335 1.287 . S
C1335 C1334 1.287 . S
C1335 C1336 1.524 . S
C1335 H1338 0.999 . S
C1336 H1306 0.950 . S
C1336 C1335 1.524 . S
C1336 C1337 1.415 . S
C1337 H1307 0.950 . S
C1337 C1332 1.363 . S
C1337 C1336 1.415 . S
H1338 C1335 0.999 . S
H1339 C1320 0.913 . S
H1340 C1358 0.951 . S
H1341 C1360 0.951 . S
H1342 C1362 0.950 . S
H1343 C1363 0.950 . S
H1344 C1365 0.950 . S
H1345 C1368 0.950 . S
H1346 C1369 0.950 . S
H1347 C1371 0.950 . S
H1348 C1372 0.950 . S
H1349 C1373 0.951 . S
H1350 C1375 0.951 . S
H1351 C1377 0.950 . S
H1352 C1378 0.950 . S
H1353 C1380 0.950 . S
H1354 C1383 0.950 . S
H1355 C1384 0.950 . S
H1356 C1386 0.950 . S
H1357 C1387 0.950 . S
C1358 H1340 0.951 . S
C1358 C1359 1.366 . S
C1358 C1360 1.388 . S
C1359 C1358 1.366 . S
C1359 C1363 1.385 . S
C1360 H1341 0.951 . S
C1360 C1358 1.388 . S
C1360 C1361 1.366 . S
C1361 C1360 1.366 . S
C1361 C1362 1.414 . S
C1361 C1364 1.499 . S
C1362 H1342 0.950 . S
C1362 C1361 1.414 . S
C1362 C1363 1.374 . S
C1363 H1343 0.950 . S
C1363 C1359 1.385 . S
C1363 C1362 1.374 . S
C1364 C1361 1.499 . S
C1364 C1365 1.373 . S
C1364 C1366 1.389 . S
C1365 H1344 0.950 . S
C1365 C1364 1.373 . S
C1365 C1381 1.377 . S
C1366 C1364 1.389 . S
C1366 C1367 1.524 . S
C1366 C1380 1.377 . S
C1367 C1366 1.524 . S
C1367 C1368 1.397 . S
C1367 C1372 1.363 . S
C1368 H1345 0.950 . S
C1368 C1367 1.397 . S
C1368 C1369 1.334 . S
C1369 H1346 0.950 . S
C1369 C1368 1.334 . S
C1369 C1370 1.287 . S
C1370 C1369 1.287 . S
C1370 C1371 1.524 . S
C1370 H1389 0.913 . S
C1371 H1347 0.950 . S
C1371 C1370 1.524 . S
C1371 C1372 1.415 . S
C1372 H1348 0.950 . S
C1372 C1367 1.363 . S
C1372 C1371 1.415 . S
C1373 H1349 0.951 . S
C1373 C1374 1.366 . S
C1373 C1375 1.388 . S
C1374 C1373 1.366 . S
C1374 C1378 1.385 . S
C1375 H1350 0.951 . S
C1375 C1373 1.388 . S
C1375 C1376 1.366 . S
C1376 C1375 1.366 . S
C1376 C1377 1.414 . S
C1376 C1379 1.499 . S
C1377 H1351 0.950 . S
C1377 C1376 1.414 . S
C1377 C1378 1.374 . S
C1378 H1352 0.950 . S
C1378 C1374 1.385 . S
C1378 C1377 1.374 . S
C1379 C1376 1.499 . S
C1379 C1380 1.373 . S
C1379 C1381 1.389 . S
C1380 H1353 0.950 . S
C1380 C1366 1.377 . S
C1380 C1379 1.373 . S
C1381 C1365 1.377 . S
C1381 C1379 1.389 . S
C1381 C1382 1.524 . S
C1382 C1381 1.524 . S
C1382 C1383 1.397 . S
C1382 C1387 1.363 . S
C1383 H1354 0.950 . S
C1383 C1382 1.397 . S
C1383 C1384 1.334 . S
C1384 H1355 0.950 . S
C1384 C1383 1.334 . S
C1384 C1385 1.287 . S
C1385 C1384 1.287 . S
C1385 C1386 1.524 . S
C1385 H1388 0.999 . S
C1386 H1356 0.950 . S
C1386 C1385 1.524 . S
C1386 C1387 1.415 . S
C1387 H1357 0.950 . S
C1387 C1382 1.363 . S
C1387 C1386 1.415 . S
H1388 C1385 0.999 . S
H1389 C1370 0.913 . S
H1390 C1408 0.951 . S
H1391 C1410 0.951 . S
H1392 C1412 0.950 . S
H1393 C1413 0.950 . S
H1394 C1415 0.950 . S
H1395 C1418 0.950 . S
H1396 C1419 0.950 . S
H1397 C1421 0.950 . S
H1398 C1422 0.950 . S
H1399 C1423 0.951 . S
H1400 C1425 0.951 . S
H1401 C1427 0.950 . S
H1402 C1428 0.950 . S
H1403 C1430 0.950 . S
H1404 C1433 0.950 . S
H1405 C1434 0.950 . S
H1406 C1436 0.950 . S
H1407 C1437 0.950 . S
C1408 H1390 0.951 . S
C1408 C1409 1.366 . S
C1408 C1410 1.388 . S
C1409 C1408 1.366 . S
C1409 C1413 1.385 . S
C1410 H1391 0.951 . S
C1410 C1408 1.388 . S
C1410 C1411 1.366 . S
C1411 C1410 1.366 . S
C1411 C1412 1.414 . S
C1411 C1414 1.499 . S
C1412 H1392 0.950 . S
C1412 C1411 1.414 . S
C1412 C1413 1.374 . S
C1413 H1393 0.950 . S
C1413 C1409 1.385 . S
C1413 C1412 1.374 . S
C1414 C1411 1.499 . S
C1414 C1415 1.373 . S
C1414 C1416 1.389 . S
C1415 H1394 0.950 . S
C1415 C1414 1.373 . S
C1415 C1431 1.377 . S
C1416 C1414 1.389 . S
C1416 C1417 1.524 . S
C1416 C1430 1.377 . S
C1417 C1416 1.524 . S
C1417 C1418 1.397 . S
C1417 C1422 1.363 . S
C1418 H1395 0.950 . S
C1418 C1417 1.397 . S
C1418 C1419 1.334 . S
C1419 H1396 0.950 . S
C1419 C1418 1.334 . S
C1419 C1420 1.287 . S
C1420 C1419 1.287 . S
C1420 C1421 1.524 . S
C1420 H1439 0.913 . S
C1421 H1397 0.950 . S
C1421 C1420 1.524 . S
C1421 C1422 1.415 . S
C1422 H1398 0.950 . S
C1422 C1417 1.363 . S
C1422 C1421 1.415 . S
C1423 H1399 0.951 . S
C1423 C1424 1.366 . S
C1423 C1425 1.388 . S
C1424 C1423 1.366 . S
C1424 C1428 1.385 . S
C1425 H1400 0.951 . S
C1425 C1423 1.388 . S
C1425 C1426 1.366 . S
C1426 C1425 1.366 . S
C1426 C1427 1.414 . S
C1426 C1429 1.499 . S
C1427 H1401 0.950 . S
C1427 C1426 1.414 . S
C1427 C1428 1.374 . S
C1428 H1402 0.950 . S
C1428 C1424 1.385 . S
C1428 C1427 1.374 . S
C1429 C1426 1.499 . S
C1429 C1430 1.373 . S
C1429 C1431 1.389 . S
C1430 H1403 0.950 . S
C1430 C1416 1.377 . S
C1430 C1429 1.373 . S
C1431 C1415 1.377 . S
C1431 C1429 1.389 . S
C1431 C1432 1.524 . S
C1432 C1431 1.524 . S
C1432 C1433 1.397 . S
C1432 C1437 1.363 . S
C1433 H1404 0.950 . S
C1433 C1432 1.397 . S
C1433 C1434 1.334 1_455 S
C1434 H1405 0.950 . S
C1434 C1433 1.334 1_655 S
C1434 C1435 1.287 . S
C1435 C1434 1.287 . S
C1435 C1436 1.524 1_655 S
C1435 H1438 0.999 . S
C1436 H1406 0.950 . S
C1436 C1435 1.524 1_455 S
C1436 C1437 1.415 . S
C1437 H1407 0.950 . S
C1437 C1432 1.363 . S
C1437 C1436 1.415 . S
H1438 C1435 0.999 . S
H1439 C1420 0.913 . S
H1440 C1458 0.951 . S
H1441 C1460 0.951 . S
H1442 C1462 0.950 . S
H1443 C1463 0.950 . S
H1444 C1465 0.950 . S
H1445 C1468 0.950 . S
H1446 C1469 0.950 . S
H1447 C1471 0.950 . S
H1448 C1472 0.950 . S
H1449 C1473 0.951 . S
H1450 C1475 0.951 . S
H1451 C1477 0.950 . S
H1452 C1478 0.950 . S
H1453 C1480 0.950 . S
H1454 C1483 0.950 . S
H1455 C1484 0.950 . S
H1456 C1486 0.950 . S
H1457 C1487 0.950 . S
C1458 H1440 0.951 . S
C1458 C1459 1.366 . S
C1458 C1460 1.388 . S
C1459 C1458 1.366 . S
C1459 C1463 1.385 . S
C1460 H1441 0.951 . S
C1460 C1458 1.388 . S
C1460 C1461 1.366 . S
C1461 C1460 1.366 . S
C1461 C1462 1.414 . S
C1461 C1464 1.499 . S
C1462 H1442 0.950 . S
C1462 C1461 1.414 . S
C1462 C1463 1.374 . S
C1463 H1443 0.950 . S
C1463 C1459 1.385 . S
C1463 C1462 1.374 . S
C1464 C1461 1.499 . S
C1464 C1465 1.373 . S
C1464 C1466 1.389 . S
C1465 H1444 0.950 . S
C1465 C1464 1.373 . S
C1465 C1481 1.377 . S
C1466 C1464 1.389 . S
C1466 C1467 1.524 . S
C1466 C1480 1.377 . S
C1467 C1466 1.524 . S
C1467 C1468 1.397 . S
C1467 C1472 1.363 . S
C1468 H1445 0.950 . S
C1468 C1467 1.397 . S
C1468 C1469 1.334 . S
C1469 H1446 0.950 . S
C1469 C1468 1.334 . S
C1469 C1470 1.287 . S
C1470 C1469 1.287 . S
C1470 C1471 1.524 . S
C1470 H1489 0.913 . S
C1471 H1447 0.950 . S
C1471 C1470 1.524 . S
C1471 C1472 1.415 . S
C1472 H1448 0.950 . S
C1472 C1467 1.363 . S
C1472 C1471 1.415 . S
C1473 H1449 0.951 . S
C1473 C1474 1.366 . S
C1473 C1475 1.388 . S
C1474 C1473 1.366 . S
C1474 C1478 1.385 . S
C1475 H1450 0.951 . S
C1475 C1473 1.388 . S
C1475 C1476 1.366 . S
C1476 C1475 1.366 . S
C1476 C1477 1.414 . S
C1476 C1479 1.499 . S
C1477 H1451 0.950 . S
C1477 C1476 1.414 . S
C1477 C1478 1.374 . S
C1478 H1452 0.950 . S
C1478 C1474 1.385 . S
C1478 C1477 1.374 . S
C1479 C1476 1.499 . S
C1479 C1480 1.373 . S
C1479 C1481 1.389 . S
C1480 H1453 0.950 . S
C1480 C1466 1.377 . S
C1480 C1479 1.373 . S
C1481 C1465 1.377 . S
C1481 C1479 1.389 . S
C1481 C1482 1.524 . S
C1482 C1481 1.524 . S
C1482 C1483 1.397 . S
C1482 C1487 1.363 . S
C1483 H1454 0.950 . S
C1483 C1482 1.397 . S
C1483 C1484 1.334 . S
C1484 H1455 0.950 . S
C1484 C1483 1.334 . S
C1484 C1485 1.287 . S
C1485 C1484 1.287 . S
C1485 C1486 1.524 . S
C1485 H1488 0.999 . S
C1486 H1456 0.950 . S
C1486 C1485 1.524 . S
C1486 C1487 1.415 . S
C1487 H1457 0.950 . S
C1487 C1482 1.363 . S
C1487 C1486 1.415 . S
H1488 C1485 0.999 . S
H1489 C1470 0.913 . S
H1490 C1508 0.951 . S
H1491 C1510 0.951 . S
H1492 C1512 0.950 . S
H1493 C1513 0.950 . S
H1494 C1515 0.950 . S
H1495 C1518 0.950 . S
H1496 C1519 0.950 . S
H1497 C1521 0.950 . S
H1498 C1522 0.950 . S
H1499 C1523 0.951 . S
H1500 C1525 0.951 . S
H1501 C1527 0.950 . S
H1502 C1528 0.950 . S
H1503 C1530 0.950 . S
H1504 C1533 0.950 . S
H1505 C1534 0.950 . S
H1506 C1536 0.950 . S
H1507 C1537 0.950 . S
C1508 H1490 0.951 . S
C1508 C1509 1.366 . S
C1508 C1510 1.388 . S
C1509 C1508 1.366 . S
C1509 C1513 1.385 . S
C1510 H1491 0.951 . S
C1510 C1508 1.388 . S
C1510 C1511 1.366 . S
C1511 C1510 1.366 . S
C1511 C1512 1.414 . S
C1511 C1514 1.499 . S
C1512 H1492 0.950 . S
C1512 C1511 1.414 . S
C1512 C1513 1.374 . S
C1513 H1493 0.950 . S
C1513 C1509 1.385 . S
C1513 C1512 1.374 . S
C1514 C1511 1.499 . S
C1514 C1515 1.373 . S
C1514 C1516 1.389 . S
C1515 H1494 0.950 . S
C1515 C1514 1.373 . S
C1515 C1531 1.377 . S
C1516 C1514 1.389 . S
C1516 C1517 1.524 . S
C1516 C1530 1.377 . S
C1517 C1516 1.524 . S
C1517 C1518 1.397 . S
C1517 C1522 1.363 . S
C1518 H1495 0.950 . S
C1518 C1517 1.397 . S
C1518 C1519 1.334 . S
C1519 H1496 0.950 . S
C1519 C1518 1.334 . S
C1519 C1520 1.287 . S
C1520 C1519 1.287 . S
C1520 C1521 1.524 . S
C1520 H1539 0.913 . S
C1521 H1497 0.950 . S
C1521 C1520 1.524 . S
C1521 C1522 1.415 . S
C1522 H1498 0.950 . S
C1522 C1517 1.363 . S
C1522 C1521 1.415 . S
C1523 H1499 0.951 . S
C1523 C1524 1.366 . S
C1523 C1525 1.388 . S
C1524 C1523 1.366 . S
C1524 C1528 1.385 . S
C1525 H1500 0.951 . S
C1525 C1523 1.388 . S
C1525 C1526 1.366 . S
C1526 C1525 1.366 . S
C1526 C1527 1.414 . S
C1526 C1529 1.499 . S
C1527 H1501 0.950 . S
C1527 C1526 1.414 . S
C1527 C1528 1.374 . S
C1528 H1502 0.950 . S
C1528 C1524 1.385 . S
C1528 C1527 1.374 . S
C1529 C1526 1.499 . S
C1529 C1530 1.373 . S
C1529 C1531 1.389 . S
C1530 H1503 0.950 . S
C1530 C1516 1.377 . S
C1530 C1529 1.373 . S
C1531 C1515 1.377 . S
C1531 C1529 1.389 . S
C1531 C1532 1.524 . S
C1532 C1531 1.524 . S
C1532 C1533 1.397 . S
C1532 C1537 1.363 . S
C1533 H1504 0.950 . S
C1533 C1532 1.397 . S
C1533 C1534 1.334 . S
C1534 H1505 0.950 . S
C1534 C1533 1.334 . S
C1534 C1535 1.287 . S
C1535 C1534 1.287 . S
C1535 C1536 1.524 . S
C1535 H1538 0.999 . S
C1536 H1506 0.950 . S
C1536 C1535 1.524 . S
C1536 C1537 1.415 . S
C1537 H1507 0.950 . S
C1537 C1532 1.363 . S
C1537 C1536 1.415 . S
H1538 C1535 0.999 . S
H1539 C1520 0.913 . S
H1540 C1558 0.951 . S
H1541 C1560 0.951 . S
H1542 C1562 0.950 . S
H1543 C1563 0.950 . S
H1544 C1565 0.950 . S
H1545 C1568 0.950 . S
H1546 C1569 0.950 . S
H1547 C1571 0.950 . S
H1548 C1572 0.950 . S
H1549 C1573 0.951 . S
H1550 C1575 0.951 . S
H1551 C1577 0.950 . S
H1552 C1578 0.950 . S
H1553 C1580 0.950 . S
H1554 C1583 0.950 . S
H1555 C1584 0.950 . S
H1556 C1586 0.950 . S
H1557 C1587 0.950 . S
C1558 H1540 0.951 . S
C1558 C1559 1.366 . S
C1558 C1560 1.388 . S
C1559 C1558 1.366 . S
C1559 C1563 1.385 . S
C1560 H1541 0.951 . S
C1560 C1558 1.388 . S
C1560 C1561 1.366 . S
C1561 C1560 1.366 . S
C1561 C1562 1.414 . S
C1561 C1564 1.499 . S
C1562 H1542 0.950 . S
C1562 C1561 1.414 . S
C1562 C1563 1.374 . S
C1563 H1543 0.950 . S
C1563 C1559 1.385 . S
C1563 C1562 1.374 . S
C1564 C1561 1.499 . S
C1564 C1565 1.373 . S
C1564 C1566 1.389 . S
C1565 H1544 0.950 . S
C1565 C1564 1.373 . S
C1565 C1581 1.377 . S
C1566 C1564 1.389 . S
C1566 C1567 1.524 . S
C1566 C1580 1.377 . S
C1567 C1566 1.524 . S
C1567 C1568 1.397 . S
C1567 C1572 1.363 . S
C1568 H1545 0.950 . S
C1568 C1567 1.397 . S
C1568 C1569 1.334 . S
C1569 H1546 0.950 . S
C1569 C1568 1.334 . S
C1569 C1570 1.287 . S
C1570 C1569 1.287 . S
C1570 C1571 1.524 . S
C1570 H1589 0.913 . S
C1571 H1547 0.950 . S
C1571 C1570 1.524 . S
C1571 C1572 1.415 . S
C1572 H1548 0.950 . S
C1572 C1567 1.363 . S
C1572 C1571 1.415 . S
C1573 H1549 0.951 . S
C1573 C1574 1.366 . S
C1573 C1575 1.388 . S
C1574 C1573 1.366 . S
C1574 C1578 1.385 . S
C1575 H1550 0.951 . S
C1575 C1573 1.388 . S
C1575 C1576 1.366 . S
C1576 C1575 1.366 . S
C1576 C1577 1.414 . S
C1576 C1579 1.499 . S
C1577 H1551 0.950 . S
C1577 C1576 1.414 . S
C1577 C1578 1.374 . S
C1578 H1552 0.950 . S
C1578 C1574 1.385 . S
C1578 C1577 1.374 . S
C1579 C1576 1.499 . S
C1579 C1580 1.373 . S
C1579 C1581 1.389 . S
C1580 H1553 0.950 . S
C1580 C1566 1.377 . S
C1580 C1579 1.373 . S
C1581 C1565 1.377 . S
C1581 C1579 1.389 . S
C1581 C1582 1.524 . S
C1582 C1581 1.524 . S
C1582 C1583 1.397 . S
C1582 C1587 1.363 . S
C1583 H1554 0.950 . S
C1583 C1582 1.397 . S
C1583 C1584 1.334 . S
C1584 H1555 0.950 . S
C1584 C1583 1.334 . S
C1584 C1585 1.287 . S
C1585 C1584 1.287 . S
C1585 C1586 1.524 . S
C1585 H1588 0.999 . S
C1586 H1556 0.950 . S
C1586 C1585 1.524 . S
C1586 C1587 1.415 . S
C1587 H1557 0.950 . S
C1587 C1582 1.363 . S
C1587 C1586 1.415 . S
H1588 C1585 0.999 . S
H1589 C1570 0.913 . S
H1590 C1608 0.951 . S
H1591 C1610 0.951 . S
H1592 C1612 0.950 . S
H1593 C1613 0.950 . S
H1594 C1615 0.950 . S
H1595 C1618 0.950 . S
H1596 C1619 0.950 . S
H1597 C1621 0.950 . S
H1598 C1622 0.950 . S
H1599 C1623 0.951 . S
H1600 C1625 0.951 . S
H1601 C1627 0.950 . S
H1602 C1628 0.950 . S
H1603 C1630 0.950 . S
H1604 C1633 0.950 . S
H1605 C1634 0.950 . S
H1606 C1636 0.950 . S
H1607 C1637 0.950 . S
C1608 H1590 0.951 . S
C1608 C1609 1.366 . S
C1608 C1610 1.388 . S
C1609 C1608 1.366 . S
C1609 C1613 1.385 . S
C1610 H1591 0.951 . S
C1610 C1608 1.388 . S
C1610 C1611 1.366 . S
C1611 C1610 1.366 . S
C1611 C1612 1.414 . S
C1611 C1614 1.499 . S
C1612 H1592 0.950 . S
C1612 C1611 1.414 . S
C1612 C1613 1.374 . S
C1613 H1593 0.950 . S
C1613 C1609 1.385 . S
C1613 C1612 1.374 . S
C1614 C1611 1.499 . S
C1614 C1615 1.373 . S
C1614 C1616 1.389 . S
C1615 H1594 0.950 . S
C1615 C1614 1.373 . S
C1615 C1631 1.377 . S
C1616 C1614 1.389 . S
C1616 C1617 1.524 . S
C1616 C1630 1.377 . S
C1617 C1616 1.524 . S
C1617 C1618 1.397 . S
C1617 C1622 1.363 . S
C1618 H1595 0.950 . S
C1618 C1617 1.397 . S
C1618 C1619 1.334 . S
C1619 H1596 0.950 . S
C1619 C1618 1.334 . S
C1619 C1620 1.287 . S
C1620 C1619 1.287 . S
C1620 C1621 1.524 . S
C1620 H1639 0.913 . S
C1621 H1597 0.950 . S
C1621 C1620 1.524 . S
C1621 C1622 1.415 . S
C1622 H1598 0.950 . S
C1622 C1617 1.363 . S
C1622 C1621 1.415 . S
C1623 H1599 0.951 . S
C1623 C1624 1.366 . S
C1623 C1625 1.388 . S
C1624 C1623 1.366 . S
C1624 C1628 1.385 . S
C1625 H1600 0.951 . S
C1625 C1623 1.388 . S
C1625 C1626 1.366 . S
C1626 C1625 1.366 . S
C1626 C1627 1.414 . S
C1626 C1629 1.499 . S
C1627 H1601 0.950 . S
C1627 C1626 1.414 . S
C1627 C1628 1.374 . S
C1628 H1602 0.950 . S
C1628 C1624 1.385 . S
C1628 C1627 1.374 . S
C1629 C1626 1.499 . S
C1629 C1630 1.373 . S
C1629 C1631 1.389 . S
C1630 H1603 0.950 . S
C1630 C1616 1.377 . S
C1630 C1629 1.373 . S
C1631 C1615 1.377 . S
C1631 C1629 1.389 . S
C1631 C1632 1.524 . S
C1632 C1631 1.524 . S
C1632 C1633 1.397 . S
C1632 C1637 1.363 . S
C1633 H1604 0.950 . S
C1633 C1632 1.397 . S
C1633 C1634 1.334 . S
C1634 H1605 0.950 . S
C1634 C1633 1.334 . S
C1634 C1635 1.287 . S
C1635 C1634 1.287 . S
C1635 C1636 1.524 . S
C1635 H1638 0.999 . S
C1636 H1606 0.950 . S
C1636 C1635 1.524 . S
C1636 C1637 1.415 . S
C1637 H1607 0.950 . S
C1637 C1632 1.363 . S
C1637 C1636 1.415 . S
H1638 C1635 0.999 . S
H1639 C1620 0.913 . S
H1640 C1658 0.951 . S
H1641 C1660 0.951 . S
H1642 C1662 0.950 . S
H1643 C1663 0.950 . S
H1644 C1665 0.950 . S
H1645 C1668 0.950 . S
H1646 C1669 0.950 . S
H1647 C1671 0.950 . S
H1648 C1672 0.950 . S
H1649 C1673 0.951 . S
H1650 C1675 0.951 . S
H1651 C1677 0.950 . S
H1652 C1678 0.950 . S
H1653 C1680 0.950 . S
H1654 C1683 0.950 . S
H1655 C1684 0.950 . S
H1656 C1686 0.950 . S
H1657 C1687 0.950 . S
C1658 H1640 0.951 . S
C1658 C1659 1.366 . S
C1658 C1660 1.388 . S
C1659 C1658 1.366 . S
C1659 C1663 1.385 . S
C1660 H1641 0.951 . S
C1660 C1658 1.388 . S
C1660 C1661 1.366 . S
C1661 C1660 1.366 . S
C1661 C1662 1.414 . S
C1661 C1664 1.499 . S
C1662 H1642 0.950 . S
C1662 C1661 1.414 . S
C1662 C1663 1.374 . S
C1663 H1643 0.950 . S
C1663 C1659 1.385 . S
C1663 C1662 1.374 . S
C1664 C1661 1.499 . S
C1664 C1665 1.373 . S
C1664 C1666 1.389 . S
C1665 H1644 0.950 . S
C1665 C1664 1.373 . S
C1665 C1681 1.377 . S
C1666 C1664 1.389 . S
C1666 C1667 1.524 . S
C1666 C1680 1.377 . S
C1667 C1666 1.524 . S
C1667 C1668 1.397 . S
C1667 C1672 1.363 . S
C1668 H1645 0.950 . S
C1668 C1667 1.397 . S
C1668 C1669 1.334 . S
C1669 H1646 0.950 . S
C1669 C1668 1.334 . S
C1669 C1670 1.287 . S
C1670 C1669 1.287 . S
C1670 C1671 1.524 . S
C1670 H1689 0.913 . S
C1671 H1647 0.950 . S
C1671 C1670 1.524 . S
C1671 C1672 1.415 . S
C1672 H1648 0.950 . S
C1672 C1667 1.363 . S
C1672 C1671 1.415 . S
C1673 H1649 0.951 . S
C1673 C1674 1.366 . S
C1673 C1675 1.388 . S
C1674 C1673 1.366 . S
C1674 C1678 1.385 . S
C1675 H1650 0.951 . S
C1675 C1673 1.388 . S
C1675 C1676 1.366 . S
C1676 C1675 1.366 . S
C1676 C1677 1.414 . S
C1676 C1679 1.499 . S
C1677 H1651 0.950 . S
C1677 C1676 1.414 . S
C1677 C1678 1.374 . S
C1678 H1652 0.950 . S
C1678 C1674 1.385 . S
C1678 C1677 1.374 . S
C1679 C1676 1.499 . S
C1679 C1680 1.373 . S
C1679 C1681 1.389 . S
C1680 H1653 0.950 . S
C1680 C1666 1.377 . S
C1680 C1679 1.373 . S
C1681 C1665 1.377 . S
C1681 C1679 1.389 . S
C1681 C1682 1.524 . S
C1682 C1681 1.524 . S
C1682 C1683 1.397 . S
C1682 C1687 1.363 . S
C1683 H1654 0.950 . S
C1683 C1682 1.397 . S
C1683 C1684 1.334 . S
C1684 H1655 0.950 . S
C1684 C1683 1.334 . S
C1684 C1685 1.287 . S
C1685 C1684 1.287 . S
C1685 C1686 1.524 . S
C1685 H1688 0.999 . S
C1686 H1656 0.950 . S
C1686 C1685 1.524 . S
C1686 C1687 1.415 . S
C1687 H1657 0.950 . S
C1687 C1682 1.363 . S
C1687 C1686 1.415 . S
H1688 C1685 0.999 . S
H1689 C1670 0.913 . S
H1690 C1708 0.951 . S
H1691 C1710 0.951 . S
H1692 C1712 0.950 . S
H1693 C1713 0.950 . S
H1694 C1715 0.950 . S
H1695 C1718 0.950 . S
H1696 C1719 0.950 . S
H1697 C1721 0.950 . S
H1698 C1722 0.950 . S
H1699 C1723 0.951 . S
H1700 C1725 0.951 . S
H1701 C1727 0.950 . S
H1702 C1728 0.950 . S
H1703 C1730 0.950 . S
H1704 C1733 0.950 . S
H1705 C1734 0.950 . S
H1706 C1736 0.950 . S
H1707 C1737 0.950 . S
C1708 H1690 0.951 . S
C1708 C1709 1.366 . S
C1708 C1710 1.388 . S
C1709 C1708 1.366 . S
C1709 C1713 1.385 . S
C1710 H1691 0.951 . S
C1710 C1708 1.388 . S
C1710 C1711 1.366 . S
C1711 C1710 1.366 . S
C1711 C1712 1.414 . S
C1711 C1714 1.499 . S
C1712 H1692 0.950 . S
C1712 C1711 1.414 . S
C1712 C1713 1.374 . S
C1713 H1693 0.950 . S
C1713 C1709 1.385 . S
C1713 C1712 1.374 . S
C1714 C1711 1.499 . S
C1714 C1715 1.373 . S
C1714 C1716 1.389 . S
C1715 H1694 0.950 . S
C1715 C1714 1.373 . S
C1715 C1731 1.377 . S
C1716 C1714 1.389 . S
C1716 C1717 1.524 . S
C1716 C1730 1.377 . S
C1717 C1716 1.524 . S
C1717 C1718 1.397 . S
C1717 C1722 1.363 . S
C1718 H1695 0.950 . S
C1718 C1717 1.397 . S
C1718 C1719 1.334 . S
C1719 H1696 0.950 . S
C1719 C1718 1.334 . S
C1719 C1720 1.287 . S
C1720 C1719 1.287 . S
C1720 C1721 1.524 . S
C1720 H1739 0.913 . S
C1721 H1697 0.950 . S
C1721 C1720 1.524 . S
C1721 C1722 1.415 . S
C1722 H1698 0.950 . S
C1722 C1717 1.363 . S
C1722 C1721 1.415 . S
C1723 H1699 0.951 . S
C1723 C1724 1.366 . S
C1723 C1725 1.388 . S
C1724 C1723 1.366 . S
C1724 C1728 1.385 . S
C1725 H1700 0.951 . S
C1725 C1723 1.388 . S
C1725 C1726 1.366 . S
C1726 C1725 1.366 . S
C1726 C1727 1.414 . S
C1726 C1729 1.499 . S
C1727 H1701 0.950 . S
C1727 C1726 1.414 . S
C1727 C1728 1.374 . S
C1728 H1702 0.950 . S
C1728 C1724 1.385 . S
C1728 C1727 1.374 . S
C1729 C1726 1.499 . S
C1729 C1730 1.373 . S
C1729 C1731 1.389 . S
C1730 H1703 0.950 . S
C1730 C1716 1.377 . S
C1730 C1729 1.373 . S
C1731 C1715 1.377 . S
C1731 C1729 1.389 . S
C1731 C1732 1.524 . S
C1732 C1731 1.524 . S
C1732 C1733 1.397 . S
C1732 C1737 1.363 . S
C1733 H1704 0.950 . S
C1733 C1732 1.397 . S
C1733 C1734 1.334 1_554 S
C1734 H1705 0.950 . S
C1734 C1733 1.334 1_556 S
C1734 C1735 1.287 . S
C1735 C1734 1.287 . S
C1735 C1736 1.524 . S
C1735 H1738 0.999 . S
C1736 H1706 0.950 . S
C1736 C1735 1.524 . S
C1736 C1737 1.415 1_556 S
C1737 H1707 0.950 . S
C1737 C1732 1.363 . S
C1737 C1736 1.415 1_554 S
H1738 C1735 0.999 . S
H1739 C1720 0.913 . S
H1740 C1758 0.951 . S
H1741 C1760 0.951 . S
H1742 C1762 0.950 . S
H1743 C1763 0.950 . S
H1744 C1765 0.950 . S
H1745 C1768 0.950 . S
H1746 C1769 0.950 . S
H1747 C1771 0.950 . S
H1748 C1772 0.950 . S
H1749 C1773 0.951 . S
H1750 C1775 0.951 . S
H1751 C1777 0.950 . S
H1752 C1778 0.950 . S
H1753 C1780 0.950 . S
H1754 C1783 0.950 . S
H1755 C1784 0.950 . S
H1756 C1786 0.950 . S
H1757 C1787 0.950 . S
C1758 H1740 0.951 . S
C1758 C1759 1.366 . S
C1758 C1760 1.388 . S
C1759 C1758 1.366 . S
C1759 C1763 1.385 . S
C1760 H1741 0.951 . S
C1760 C1758 1.388 . S
C1760 C1761 1.366 . S
C1761 C1760 1.366 . S
C1761 C1762 1.414 . S
C1761 C1764 1.499 . S
C1762 H1742 0.950 . S
C1762 C1761 1.414 . S
C1762 C1763 1.374 . S
C1763 H1743 0.950 . S
C1763 C1759 1.385 . S
C1763 C1762 1.374 . S
C1764 C1761 1.499 . S
C1764 C1765 1.373 . S
C1764 C1766 1.389 . S
C1765 H1744 0.950 . S
C1765 C1764 1.373 . S
C1765 C1781 1.377 . S
C1766 C1764 1.389 . S
C1766 C1767 1.524 . S
C1766 C1780 1.377 . S
C1767 C1766 1.524 . S
C1767 C1768 1.397 . S
C1767 C1772 1.363 . S
C1768 H1745 0.950 . S
C1768 C1767 1.397 . S
C1768 C1769 1.334 . S
C1769 H1746 0.950 . S
C1769 C1768 1.334 . S
C1769 C1770 1.287 . S
C1770 C1769 1.287 . S
C1770 C1771 1.524 . S
C1770 H1789 0.913 . S
C1771 H1747 0.950 . S
C1771 C1770 1.524 . S
C1771 C1772 1.415 . S
C1772 H1748 0.950 . S
C1772 C1767 1.363 . S
C1772 C1771 1.415 . S
C1773 H1749 0.951 . S
C1773 C1774 1.366 . S
C1773 C1775 1.388 . S
C1774 C1773 1.366 . S
C1774 C1778 1.385 . S
C1775 H1750 0.951 . S
C1775 C1773 1.388 . S
C1775 C1776 1.366 . S
C1776 C1775 1.366 . S
C1776 C1777 1.414 . S
C1776 C1779 1.499 . S
C1777 H1751 0.950 . S
C1777 C1776 1.414 . S
C1777 C1778 1.374 . S
C1778 H1752 0.950 . S
C1778 C1774 1.385 . S
C1778 C1777 1.374 . S
C1779 C1776 1.499 . S
C1779 C1780 1.373 . S
C1779 C1781 1.389 . S
C1780 H1753 0.950 . S
C1780 C1766 1.377 . S
C1780 C1779 1.373 . S
C1781 C1765 1.377 . S
C1781 C1779 1.389 . S
C1781 C1782 1.524 . S
C1782 C1781 1.524 . S
C1782 C1783 1.397 . S
C1782 C1787 1.363 . S
C1783 H1754 0.950 . S
C1783 C1782 1.397 . S
C1783 C1784 1.334 1_455 S
C1784 H1755 0.950 . S
C1784 C1783 1.334 1_655 S
C1784 C1785 1.287 . S
C1785 C1784 1.287 . S
C1785 C1786 1.524 . S
C1785 H1788 0.999 . S
C1786 H1756 0.950 . S
C1786 C1785 1.524 . S
C1786 C1787 1.415 1_655 S
C1787 H1757 0.950 . S
C1787 C1782 1.363 . S
C1787 C1786 1.415 1_455 S
H1788 C1785 0.999 . S
H1789 C1770 0.913 . S
H1790 C1808 0.951 . S
H1791 C1810 0.951 . S
H1792 C1812 0.950 . S
H1793 C1813 0.950 . S
H1794 C1815 0.950 . S
H1795 C1818 0.950 . S
H1796 C1819 0.950 . S
H1797 C1821 0.950 . S
H1798 C1822 0.950 . S
H1799 C1823 0.951 . S
H1800 C1825 0.951 . S
H1801 C1827 0.950 . S
H1802 C1828 0.950 . S
H1803 C1830 0.950 . S
H1804 C1833 0.950 . S
H1805 C1834 0.950 . S
H1806 C1836 0.950 . S
H1807 C1837 0.950 . S
C1808 H1790 0.951 . S
C1808 C1809 1.366 . S
C1808 C1810 1.388 . S
C1809 C1808 1.366 . S
C1809 C1813 1.385 . S
C1810 H1791 0.951 . S
C1810 C1808 1.388 . S
C1810 C1811 1.366 . S
C1811 C1810 1.366 . S
C1811 C1812 1.414 . S
C1811 C1814 1.499 . S
C1812 H1792 0.950 . S
C1812 C1811 1.414 . S
C1812 C1813 1.374 . S
C1813 H1793 0.950 . S
C1813 C1809 1.385 . S
C1813 C1812 1.374 . S
C1814 C1811 1.499 . S
C1814 C1815 1.373 . S
C1814 C1816 1.389 . S
C1815 H1794 0.950 . S
C1815 C1814 1.373 . S
C1815 C1831 1.377 . S
C1816 C1814 1.389 . S
C1816 C1817 1.524 . S
C1816 C1830 1.377 . S
C1817 C1816 1.524 . S
C1817 C1818 1.397 . S
C1817 C1822 1.363 . S
C1818 H1795 0.950 . S
C1818 C1817 1.397 . S
C1818 C1819 1.334 . S
C1819 H1796 0.950 . S
C1819 C1818 1.334 . S
C1819 C1820 1.287 . S
C1820 C1819 1.287 . S
C1820 C1821 1.524 . S
C1820 H1839 0.913 . S
C1821 H1797 0.950 . S
C1821 C1820 1.524 . S
C1821 C1822 1.415 . S
C1822 H1798 0.950 . S
C1822 C1817 1.363 . S
C1822 C1821 1.415 . S
C1823 H1799 0.951 . S
C1823 C1824 1.366 . S
C1823 C1825 1.388 . S
C1824 C1823 1.366 . S
C1824 C1828 1.385 . S
C1825 H1800 0.951 . S
C1825 C1823 1.388 . S
C1825 C1826 1.366 . S
C1826 C1825 1.366 . S
C1826 C1827 1.414 . S
C1826 C1829 1.499 . S
C1827 H1801 0.950 . S
C1827 C1826 1.414 . S
C1827 C1828 1.374 . S
C1828 H1802 0.950 . S
C1828 C1824 1.385 . S
C1828 C1827 1.374 . S
C1829 C1826 1.499 . S
C1829 C1830 1.373 . S
C1829 C1831 1.389 . S
C1830 H1803 0.950 . S
C1830 C1816 1.377 . S
C1830 C1829 1.373 . S
C1831 C1815 1.377 . S
C1831 C1829 1.389 . S
C1831 C1832 1.524 . S
C1832 C1831 1.524 . S
C1832 C1833 1.397 . S
C1832 C1837 1.363 . S
C1833 H1804 0.950 . S
C1833 C1832 1.397 . S
C1833 C1834 1.334 . S
C1834 H1805 0.950 . S
C1834 C1833 1.334 . S
C1834 C1835 1.287 . S
C1835 C1834 1.287 . S
C1835 C1836 1.524 . S
C1835 H1838 0.999 . S
C1836 H1806 0.950 . S
C1836 C1835 1.524 . S
C1836 C1837 1.415 . S
C1837 H1807 0.950 . S
C1837 C1832 1.363 . S
C1837 C1836 1.415 . S
H1838 C1835 0.999 . S
H1839 C1820 0.913 . S
C659 C1 1.183 . S
C674 C487 1.278 . S
C709 C80 0.934 . S
C724 C536 0.955 . S
C774 C562 2.415 . S
C759 C140 2.399 . S
C809 C211 2.283 . S
C824 C610 2.260 . S
C874 C522 2.515 . S
C859 C31 2.312 . S
C924 C490 0.908 . S
C909 C61 0.907 . S
C974 C611 1.857 . S
C959 C151 1.859 . S
C1024 C579 1.480 . S
C1009 C200 1.483 . S
C1059 C20 1.710 . S
C1074 C607 1.794 . S
C1124 C539 2.307 . S
C1109 C121 2.356 . S
C1159 C181 2.289 . S
C1174 C491 2.326 . S
C1209 C91 0.754 . S
C1224 C576 0.754 . S
C1274 C496 1.279 . S
C1259 C260 1.207 . S
C1309 C320 0.935 . S
C1324 C527 0.953 . S
C1359 C361 2.398 . S
C1374 C571 2.415 . S
C1409 C451 2.283 . S
C1424 C619 2.261 . S
C1459 C271 2.375 . S
C1474 C531 2.516 . S
C1524 C499 0.910 . S
C1509 C301 0.909 . S
C1574 C602 1.857 . S
C1559 C380 1.845 . S
C1624 C570 1.480 . S
C1609 C440 1.483 . S
C1659 C241 1.652 . S
C1674 C616 1.795 . S
C1724 C530 2.306 . S
C1709 C391 2.351 . S
C1774 C482 2.325 . S
C1759 C421 2.289 . S
C1809 C331 0.754 . S
C1824 C567 0.754 . S
