# Generated by pormake.
# Topology dag, (6,3)-cn, num edge types: 1
# Building blocks:
#     Node 0, Type 0, BuildingBlock: MIDCAF_clean_sbu_0, # of connection points: 6
#     Node 1, Type 0, BuildingBlock: MIDCAF_clean_sbu_0, # of connection points: 6
#     Node 2, Type 0, BuildingBlock: MIDCAF_clean_sbu_0, # of connection points: 6
#     Node 3, Type 0, BuildingBlock: MIDCAF_clean_sbu_0, # of connection points: 6
#     Node 4, Type 1, BuildingBlock: VETTIZ_charged_linker_0, # of connection points: 3
#     Node 5, Type 1, BuildingBlock: VETTIZ_charged_linker_0, # of connection points: 3
#     Node 6, Type 1, BuildingBlock: VETTIZ_charged_linker_0, # of connection points: 3
#     Node 7, Type 1, BuildingBlock: VETTIZ_charged_linker_0, # of connection points: 3
#     Node 8, Type 1, BuildingBlock: VETTIZ_charged_linker_0, # of connection points: 3
#     Node 9, Type 1, BuildingBlock: VETTIZ_charged_linker_0, # of connection points: 3
#     Node 10, Type 1, BuildingBlock: VETTIZ_charged_linker_0, # of connection points: 3
#     Node 11, Type 1, BuildingBlock: VETTIZ_charged_linker_0, # of connection points: 3
#     Edge 12, Type (0, 1), BuildingBlock: EZIPEK_clean_linker_0, # of connection points: 2
#     Edge 13, Type (0, 1), BuildingBlock: EZIPEK_clean_linker_0, # of connection points: 2
#     Edge 14, Type (0, 1), BuildingBlock: EZIPEK_clean_linker_0, # of connection points: 2
#     Edge 15, Type (0, 1), BuildingBlock: EZIPEK_clean_linker_0, # of connection points: 2
#     Edge 16, Type (0, 1), BuildingBlock: EZIPEK_clean_linker_0, # of connection points: 2
#     Edge 17, Type (0, 1), BuildingBlock: EZIPEK_clean_linker_0, # of connection points: 2
#     Edge 18, Type (0, 1), BuildingBlock: EZIPEK_clean_linker_0, # of connection points: 2
#     Edge 19, Type (0, 1), BuildingBlock: EZIPEK_clean_linker_0, # of connection points: 2
#     Edge 20, Type (0, 1), BuildingBlock: EZIPEK_clean_linker_0, # of connection points: 2
#     Edge 21, Type (0, 1), BuildingBlock: EZIPEK_clean_linker_0, # of connection points: 2
#     Edge 22, Type (0, 1), BuildingBlock: EZIPEK_clean_linker_0, # of connection points: 2
#     Edge 23, Type (0, 1), BuildingBlock: EZIPEK_clean_linker_0, # of connection points: 2
#     Edge 24, Type (0, 1), BuildingBlock: EZIPEK_clean_linker_0, # of connection points: 2
#     Edge 25, Type (0, 1), BuildingBlock: EZIPEK_clean_linker_0, # of connection points: 2
#     Edge 26, Type (0, 1), BuildingBlock: EZIPEK_clean_linker_0, # of connection points: 2
#     Edge 27, Type (0, 1), BuildingBlock: EZIPEK_clean_linker_0, # of connection points: 2
#     Edge 28, Type (0, 1), BuildingBlock: EZIPEK_clean_linker_0, # of connection points: 2
#     Edge 29, Type (0, 1), BuildingBlock: EZIPEK_clean_linker_0, # of connection points: 2
#     Edge 30, Type (0, 1), BuildingBlock: EZIPEK_clean_linker_0, # of connection points: 2
#     Edge 31, Type (0, 1), BuildingBlock: EZIPEK_clean_linker_0, # of connection points: 2
#     Edge 32, Type (0, 1), BuildingBlock: EZIPEK_clean_linker_0, # of connection points: 2
#     Edge 33, Type (0, 1), BuildingBlock: EZIPEK_clean_linker_0, # of connection points: 2
#     Edge 34, Type (0, 1), BuildingBlock: EZIPEK_clean_linker_0, # of connection points: 2
#     Edge 35, Type (0, 1), BuildingBlock: EZIPEK_clean_linker_0, # of connection points: 2
# Relax obj value: 0.316
# Max RMSD: 0.190
# Mean RMSD: 0.180
data_MOF--net-dag--node1-MIDCAF_clean_sbu_0--node2-VETTIZ_charged_linker_0--edge1-EZIPEK_clean_linker_0
_symmetry_space_group_name_H-M    P1
_symmetry_Int_Tables_number       1
_symmetry_cell_setting            triclinic
loop_
_symmetry_equiv_pos_as_xyz
'x, y, z'
_cell_length_a     38.449195
_cell_length_b     38.325898
_cell_length_c     29.602882
_cell_angle_alpha  89.796238
_cell_angle_beta   90.299653
_cell_angle_gamma 90.047077
loop_
_atom_site_label
_atom_site_type_symbol
_atom_site_fract_x
_atom_site_fract_y
_atom_site_fract_z
_atom_type_partial_charge
Zn0 Zn 0.23718 0.86521 0.09505 0.0
Zn1 Zn 0.2199 0.87367 0.91849 0.0
Zn2 Zn 0.2301 0.86936 0.00516 0.0
C3 C 0.21651 0.94123 0.94996 0.0
C4 C 0.16729 0.83257 0.94964 0.0
O5 O 0.27794 0.8388 0.01904 0.0
O6 O 0.27651 0.83261 0.09359 0.0
C7 C 0.23806 0.93539 0.07326 0.0
O8 O 0.22575 0.92556 0.98677 0.0
O9 O 0.21126 0.92402 0.91435 0.0
O10 O 0.17956 0.8422 0.9122 0.0
O11 O 0.18207 0.84164 0.98688 0.0
O12 O 0.24619 0.91568 0.10591 0.0
O13 O 0.23109 0.92242 0.03411 0.0
O14 O 0.18324 0.84472 0.0331 0.0
O15 O 0.18897 0.84767 0.1074 0.0
C16 C 0.17098 0.84001 0.07304 0.0
O17 O 0.27479 0.8433 0.97175 0.0
O18 O 0.2649 0.85567 0.89964 0.0
C19 C 0.29048 0.82615 0.0561 0.0
C20 C 0.28359 0.84178 0.9298 0.0
Zn21 Zn 0.72775 0.63458 0.4202 0.0
Zn22 Zn 0.7172 0.62472 0.59485 0.0
Zn23 Zn 0.72602 0.62661 0.50863 0.0
C24 C 0.71541 0.55579 0.56532 0.0
C25 C 0.66452 0.66468 0.56666 0.0
O26 O 0.77329 0.65755 0.49193 0.0
O27 O 0.76632 0.6679 0.41865 0.0
C28 C 0.7302 0.56321 0.43807 0.0
O29 O 0.72393 0.57026 0.5275 0.0
O30 O 0.70924 0.57432 0.59948 0.0
O31 O 0.67736 0.65602 0.60428 0.0
O32 O 0.67869 0.65457 0.52963 0.0
O33 O 0.73693 0.58463 0.40677 0.0
O34 O 0.72535 0.57408 0.4787 0.0
O35 O 0.67705 0.65005 0.48376 0.0
O36 O 0.67912 0.65098 0.40913 0.0
C37 C 0.66244 0.65572 0.44516 0.0
O38 O 0.7726 0.65201 0.53926 0.0
O39 O 0.763 0.64213 0.61191 0.0
C40 C 0.78313 0.67225 0.45487 0.0
C41 C 0.78209 0.65408 0.58104 0.0
Zn42 Zn 0.77375 0.11028 0.92104 0.0
Zn43 Zn 0.77164 0.13651 0.07826 0.0
Zn44 Zn 0.76839 0.12119 0.99684 0.0
C45 C 0.83554 0.155 0.05068 0.0
C46 C 0.76166 0.06607 0.07811 0.0
O47 O 0.71912 0.14105 0.96218 0.0
O48 O 0.72486 0.10684 0.90368 0.0
C49 C 0.81901 0.15984 0.92745 0.0
O50 O 0.81947 0.14776 0.01337 0.0
O51 O 0.82046 0.15062 0.08792 0.0
O52 O 0.75742 0.09136 0.10466 0.0
O53 O 0.76764 0.07175 0.03589 0.0
O54 O 0.79881 0.15093 0.89593 0.0
O55 O 0.8138 0.14844 0.96786 0.0
O56 O 0.77192 0.06309 0.98793 0.0
O57 O 0.79869 0.06548 0.9224 0.0
C58 C 0.78762 0.04758 0.95512 0.0
O59 O 0.72196 0.15367 0.00895 0.0
O60 O 0.73732 0.17359 0.07628 0.0
C61 C 0.70631 0.12793 0.92542 0.0
C62 C 0.71693 0.17399 0.04289 0.0
Zn63 Zn 0.277 0.37448 0.56566 0.0
Zn64 Zn 0.24277 0.37243 0.40486 0.0
Zn65 Zn 0.26456 0.37336 0.48498 0.0
C66 C 0.31162 0.34747 0.40605 0.0
C67 C 0.24221 0.44018 0.42251 0.0
O68 O 0.22135 0.34783 0.52488 0.0
O69 O 0.23574 0.35837 0.59592 0.0
C70 C 0.3291 0.33343 0.5308 0.0
O71 O 0.30583 0.34749 0.44875 0.0
O72 O 0.28928 0.35967 0.37881 0.0
O73 O 0.22499 0.42008 0.39735 0.0
O74 O 0.25999 0.42755 0.45604 0.0
O75 O 0.31703 0.34255 0.56845 0.0
O76 O 0.31373 0.34322 0.49412 0.0
O77 O 0.27705 0.42995 0.50201 0.0
O78 O 0.28876 0.42289 0.57409 0.0
C79 C 0.28953 0.44206 0.53958 0.0
O80 O 0.21674 0.3394 0.47959 0.0
O81 O 0.20849 0.33575 0.40583 0.0
C82 C 0.21498 0.34542 0.56764 0.0
C83 C 0.20091 0.32594 0.44516 0.0
C84 C 0.18649 0.08055 0.16881 0.0
C85 C 0.19161 0.07364 0.12269 0.0
C86 C 0.17717 0.09638 0.09027 0.0
C87 C 0.14398 0.1245 0.14872 0.0
C88 C 0.16305 0.10682 0.18106 0.0
C89 C 0.15379 0.11805 0.22819 0.0
H90 H 0.09322 0.25349 0.34119 0.0
C91 C 0.11768 0.1456 0.17172 0.0
C92 C 0.12406 0.14338 0.21838 0.0
H93 H 0.15414 0.16798 0.39467 0.0
H94 H 0.13955 0.13306 0.32878 0.0
H95 H 0.09784 0.25391 0.23321 0.0
H96 H 0.03205 0.20224 0.32424 0.0
H97 H 0.0178 0.183 0.27278 0.0
H98 H 0.01329 0.22934 0.28219 0.0
H99 H 0.06521 0.26983 0.27153 0.0
H100 H 0.0527 0.25369 0.21703 0.0
C101 C 0.18628 0.136 0.24849 0.0
C102 C 0.14151 0.08584 0.25536 0.0
C103 C 0.00641 0.17728 0.08978 0.0
C104 C 0.97417 0.18792 0.10728 0.0
C105 C 0.97322 0.20302 0.15066 0.0
C106 C 0.00338 0.20515 0.1774 0.0
C107 C 0.03459 0.19135 0.16118 0.0
C108 C 0.03603 0.17797 0.11782 0.0
C109 C 0.07047 0.16057 0.10858 0.0
C110 C 0.08754 0.16278 0.15517 0.0
C111 C 0.06694 0.1819 0.18514 0.0
C112 C 0.09036 0.18203 0.0724 0.0
C113 C 0.06379 0.12233 0.09419 0.0
C114 C 0.10336 0.22724 0.3387 0.0
C115 C 0.1275 0.21447 0.37087 0.0
C116 C 0.13737 0.17904 0.36883 0.0
C117 C 0.12977 0.15924 0.33032 0.0
C118 C 0.11092 0.17469 0.29492 0.0
C119 C 0.0943 0.20607 0.30177 0.0
C120 C 0.06704 0.21271 0.26573 0.0
C121 C 0.07674 0.1847 0.23139 0.0
C122 C 0.10353 0.16343 0.24846 0.0
C123 C 0.07094 0.24969 0.24572 0.0
C124 C 0.03069 0.2065 0.28707 0.0
H125 H 0.14107 0.13741 0.07723 0.0
H126 H 0.19835 0.06413 0.19445 0.0
H127 H 0.12608 0.0679 0.2336 0.0
H128 H 0.12408 0.09292 0.2834 0.0
H129 H 0.16403 0.07103 0.26915 0.0
H130 H 0.19329 0.15952 0.22837 0.0
H131 H 0.20889 0.11794 0.24824 0.0
H132 H 0.18303 0.14423 0.28369 0.0
H133 H 0.0077 0.16579 0.0565 0.0
H134 H 0.94875 0.21183 0.16457 0.0
H135 H 0.00131 0.21628 0.2103 0.0
H136 H 0.07617 0.20609 0.06212 0.0
H137 H 0.09447 0.16667 0.04113 0.0
H138 H 0.11613 0.19084 0.08512 0.0
H139 H 0.04771 0.10857 0.11981 0.0
H140 H 0.08803 0.10735 0.09018 0.0
H141 H 0.04988 0.12129 0.06124 0.0
H142 H 0.18314 0.09314 0.05498 0.0
C143 C 0.15291 0.1217 0.10307 0.0
C144 C 0.32066 0.60645 0.60947 0.0
C145 C 0.33204 0.58474 0.57424 0.0
C146 C 0.35805 0.59679 0.54483 0.0
C147 C 0.3653 0.64865 0.58979 0.0
C148 C 0.33834 0.63803 0.61734 0.0
C149 C 0.3335 0.66249 0.65666 0.0
H150 H 0.40839 0.77897 0.7976 0.0
C151 C 0.38224 0.67916 0.61045 0.0
C152 C 0.36401 0.68746 0.64989 0.0
H153 H 0.30237 0.74155 0.80047 0.0
H154 H 0.31157 0.71 0.73082 0.0
H155 H 0.4469 0.70989 0.75319 0.0
H156 H 0.40068 0.80312 0.6983 0.0
H157 H 0.43575 0.79309 0.663 0.0
H158 H 0.44379 0.80319 0.72173 0.0
H159 H 0.46492 0.75272 0.76073 0.0
H160 H 0.47514 0.7268 0.71203 0.0
C161 C 0.33697 0.64119 0.70096 0.0
C162 C 0.29797 0.68117 0.65126 0.0
C163 C 0.50193 0.71205 0.55505 0.0
C164 C 0.52954 0.7281 0.57795 0.0
C165 C 0.52266 0.75005 0.61476 0.0
C166 C 0.48899 0.75211 0.6324 0.0
C167 C 0.46253 0.73128 0.61356 0.0
C168 C 0.46886 0.71278 0.57442 0.0
C169 C 0.43937 0.68885 0.5622 0.0
C170 C 0.41435 0.6958 0.60065 0.0
C171 C 0.42806 0.72061 0.63057 0.0
C172 C 0.45303 0.65049 0.56204 0.0
C173 C 0.42405 0.70137 0.51658 0.0
C174 C 0.38737 0.76358 0.78346 0.0
C175 C 0.3548 0.7624 0.80464 0.0
C176 C 0.3278 0.74256 0.78488 0.0
C177 C 0.33304 0.72443 0.74453 0.0
C178 C 0.36549 0.72642 0.72336 0.0
C179 C 0.39155 0.74678 0.74192 0.0
C180 C 0.42215 0.75037 0.71091 0.0
C181 C 0.41024 0.72838 0.67112 0.0
C182 C 0.3777 0.71312 0.67963 0.0
C183 C 0.45417 0.73438 0.73525 0.0
C184 C 0.42618 0.78941 0.69787 0.0
H185 H 0.39342 0.6367 0.528 0.0
H186 H 0.30015 0.59791 0.63187 0.0
H187 H 0.28828 0.68027 0.61579 0.0
H188 H 0.29975 0.70933 0.65932 0.0
H189 H 0.2778 0.66894 0.6729 0.0
H190 H 0.3616 0.62598 0.70112 0.0
H191 H 0.31502 0.62255 0.70455 0.0
H192 H 0.33733 0.65761 0.73141 0.0
H193 H 0.50706 0.69467 0.52703 0.0
H194 H 0.54388 0.76259 0.63265 0.0
H195 H 0.48563 0.76749 0.66225 0.0
H196 H 0.47975 0.64794 0.57609 0.0
H197 H 0.45372 0.63969 0.52732 0.0
H198 H 0.43732 0.633 0.58372 0.0
H199 H 0.42103 0.73025 0.51625 0.0
H200 H 0.3978 0.69075 0.50995 0.0
H201 H 0.44147 0.6943 0.48829 0.0
H202 H 0.36662 0.58076 0.51693 0.0
C203 C 0.37399 0.62899 0.55172 0.0
C204 C 0.85297 0.77537 0.33815 0.0
C205 C 0.87643 0.7561 0.36497 0.0
C206 C 0.91221 0.75775 0.35499 0.0
C207 C 0.89965 0.79275 0.2883 0.0
C208 C 0.86518 0.79415 0.301 0.0
C209 C 0.84419 0.8188 0.27216 0.0
H210 H 0.84404 0.93879 0.10535 0.0
C211 C 0.90313 0.81305 0.24601 0.0
C212 C 0.87088 0.82893 0.23697 0.0
H213 H 0.76405 0.92022 0.20419 0.0
H214 H 0.79568 0.86942 0.23201 0.0
H215 H 0.91128 0.925 0.16672 0.0
H216 H 0.85253 0.86191 0.07509 0.0
H217 H 0.89222 0.8392 0.08133 0.0
H218 H 0.89184 0.88265 0.05754 0.0
H219 H 0.90547 0.93185 0.10698 0.0
H220 H 0.9389 0.90368 0.1276 0.0
C221 C 0.83304 0.85021 0.30184 0.0
C222 C 0.8134 0.79866 0.25079 0.0
C223 C 0.01638 0.81184 0.15745 0.0
C224 C 0.02524 0.82538 0.11483 0.0
C225 C -0.00084 0.84022 0.08728 0.0
C226 C 0.96531 0.84433 0.10356 0.0
C227 C 0.95742 0.83303 0.14748 0.0
C228 C 0.98212 0.81538 0.17273 0.0
C229 C 0.96774 0.80253 0.21704 0.0
C230 C 0.93067 0.81627 0.21446 0.0
C231 C 0.92534 0.83509 0.17426 0.0
C232 C 0.98865 0.81953 0.25604 0.0
C233 C 0.9691 0.76222 0.21677 0.0
C234 C 0.83287 0.92311 0.13207 0.0
C235 C 0.80146 0.93298 0.15232 0.0
C236 C 0.78809 0.91273 0.18797 0.0
C237 C 0.80669 0.88372 0.20434 0.0
C238 C 0.839 0.87526 0.18503 0.0
C239 C 0.85097 0.89414 0.14846 0.0
C240 C 0.88559 0.88136 0.13179 0.0
C241 C 0.89393 0.85376 0.16718 0.0
C242 C 0.86665 0.85038 0.19819 0.0
C243 C 0.91184 0.91202 0.13318 0.0
C244 C 0.88045 0.86554 0.08397 0.0
H245 H 0.95125 0.77486 0.30936 0.0
H246 H 0.8255 0.77593 0.34613 0.0
H247 H 0.82245 0.77348 0.23646 0.0
H248 H 0.80107 0.81315 0.22264 0.0
H249 H 0.79318 0.7928 0.27641 0.0
H250 H 0.84846 0.85188 0.33368 0.0
H251 H 0.80524 0.84829 0.31158 0.0
H252 H 0.83747 0.87559 0.28478 0.0
H253 H 0.03596 0.79991 0.17893 0.0
H254 H 0.00555 0.85036 0.05412 0.0
H255 H 0.94682 0.85703 0.08195 0.0
H256 H -0.00236 0.84615 0.24653 0.0
H257 H 0.012 0.80381 0.26484 0.0
H258 H 0.97286 0.82338 0.2867 0.0
H259 H 0.95875 0.75192 0.18426 0.0
H260 H 0.95323 0.75011 0.24343 0.0
H261 H -0.0037 0.75287 0.22065 0.0
H262 H 0.93091 0.7444 0.37639 0.0
C263 C 0.92388 0.77536 0.31617 0.0
C264 C 0.60954 0.21 0.77127 0.0
C265 C 0.64053 0.21188 0.79658 0.0
C266 C 0.66533 0.23767 0.78604 0.0
C267 C 0.62765 0.26028 0.72708 0.0
C268 C 0.60376 0.23422 0.7364 0.0
C269 C 0.57283 0.23556 0.70487 0.0
H270 H 0.47044 0.33637 0.57352 0.0
C271 C 0.61263 0.28325 0.69207 0.0
C272 C 0.58021 0.26925 0.67937 0.0
H273 H 0.45963 0.22529 0.59461 0.0
H274 H 0.51424 0.22467 0.63715 0.0
H275 H 0.50034 0.36191 0.65985 0.0
H276 H 0.55343 0.32394 0.54242 0.0
H277 H 0.57255 0.36366 0.55896 0.0
H278 H 0.5274 0.36279 0.54373 0.0
H279 H 0.50978 0.39016 0.61309 0.0
H280 H 0.54032 0.38409 0.6591 0.0
C281 C 0.53916 0.23792 0.73294 0.0
C282 C 0.57388 0.2033 0.67339 0.0
C283 C 0.67562 0.39298 0.63798 0.0
C284 C 0.66318 0.42352 0.61665 0.0
C285 C 0.62714 0.42719 0.60896 0.0
C286 C 0.60419 0.40011 0.61875 0.0
C287 C 0.6171 0.36917 0.6376 0.0
C288 C 0.65173 0.36671 0.64985 0.0
C289 C 0.6585 0.33457 0.67826 0.0
C290 C 0.62324 0.31638 0.67538 0.0
C291 C 0.59967 0.33653 0.6503 0.0
C292 C 0.66761 0.34635 0.72711 0.0
C293 C 0.68728 0.31257 0.65595 0.0
C294 C 0.47968 0.31179 0.58723 0.0
C295 C 0.45994 0.28116 0.58256 0.0
C296 C 0.47375 0.24948 0.59932 0.0
C297 C 0.5053 0.24912 0.62372 0.0
C298 C 0.5239 0.28043 0.62935 0.0
C299 C 0.51187 0.31054 0.60898 0.0
C300 C 0.53777 0.33978 0.61089 0.0
C301 C 0.56693 0.32263 0.63753 0.0
C302 C 0.55811 0.28839 0.64982 0.0
C303 C 0.52134 0.37078 0.63676 0.0
C304 C 0.54843 0.34834 0.5616 0.0
H305 H 0.67888 0.2808 0.7444 0.0
H306 H 0.59058 0.1898 0.77821 0.0
H307 H 0.59984 0.19047 0.67363 0.0
H308 H 0.56913 0.21048 0.63758 0.0
H309 H 0.55453 0.1833 0.68372 0.0
H310 H 0.54046 0.26043 0.7565 0.0
H311 H 0.53529 0.21381 0.75325 0.0
H312 H 0.51581 0.24138 0.71157 0.0
H313 H 0.70303 0.38983 0.64549 0.0
H314 H 0.61683 0.45083 0.5938 0.0
H315 H 0.57727 0.40425 0.61094 0.0
H316 H 0.66235 0.37456 0.7326 0.0
H317 H 0.69555 0.34204 0.73507 0.0
H318 H 0.65165 0.33261 0.75272 0.0
H319 H 0.68131 0.30845 0.61955 0.0
H320 H 0.68975 0.28645 0.67159 0.0
H321 H 0.71286 0.32593 0.65849 0.0
H322 H 0.68957 0.23901 0.80478 0.0
C323 C 0.65905 0.26189 0.75136 0.0
C324 C 0.67889 0.41049 0.34844 0.0
C325 C 0.6692 0.43196 0.38463 0.0
C326 C 0.63699 0.42649 0.40587 0.0
C327 C 0.62324 0.38057 0.35307 0.0
C328 C 0.65528 0.38518 0.33285 0.0
C329 C 0.65911 0.3628 0.2914 0.0
H330 H 0.5839 0.25606 0.13667 0.0
C331 C 0.60285 0.35583 0.32561 0.0
C332 C 0.62353 0.34539 0.2892 0.0
H333 H 0.69213 0.28497 0.1481 0.0
H334 H 0.67947 0.32054 0.21323 0.0
H335 H 0.57848 0.23662 0.23627 0.0
H336 H 0.54831 0.33229 0.17015 0.0
H337 H 0.51466 0.31961 0.20683 0.0
H338 H 0.52661 0.2914 0.16093 0.0
H339 H 0.53899 0.23986 0.20395 0.0
H340 H 0.54065 0.25103 0.26315 0.0
C341 C 0.68861 0.33606 0.30027 0.0
C342 C 0.66544 0.38707 0.25031 0.0
C343 C 0.47651 0.33412 0.36472 0.0
C344 C 0.44954 0.31657 0.34234 0.0
C345 C 0.45672 0.29727 0.3032 0.0
C346 C 0.49047 0.29661 0.28547 0.0
C347 C 0.51708 0.31557 0.30717 0.0
C348 C 0.50995 0.33334 0.3466 0.0
C349 C 0.54072 0.35345 0.36396 0.0
C350 C 0.5678 0.34448 0.32875 0.0
C351 C 0.55374 0.32259 0.29541 0.0
C352 C 0.5505 0.33862 0.4111 0.0
C353 C 0.53127 0.3929 0.36359 0.0
C354 C 0.60457 0.27082 0.15272 0.0
C355 C 0.63896 0.26789 0.13756 0.0
C356 C 0.66545 0.28692 0.15946 0.0
C357 C 0.65813 0.30723 0.19744 0.0
C358 C 0.624 0.30823 0.21399 0.0
C359 C 0.59792 0.29006 0.19186 0.0
C360 C 0.56423 0.29067 0.21737 0.0
C361 C 0.57436 0.3124 0.25813 0.0
C362 C 0.60919 0.32327 0.25546 0.0
C363 C 0.55472 0.25267 0.23076 0.0
C364 C 0.53675 0.30923 0.18742 0.0
H365 H 0.58994 0.39823 0.40802 0.0
H366 H 0.7031 0.41501 0.33083 0.0
H367 H 0.64729 0.40965 0.25101 0.0
H368 H 0.6609 0.37418 0.21759 0.0
H369 H 0.69242 0.39748 0.25066 0.0
H370 H 0.6917 0.33042 0.33698 0.0
H371 H 0.71398 0.34592 0.28777 0.0
H372 H 0.68313 0.31036 0.28484 0.0
H373 H 0.47123 0.34981 0.39427 0.0
H374 H 0.43592 0.28395 0.28542 0.0
H375 H 0.49429 0.28224 0.25487 0.0
H376 H 0.54854 0.30965 0.41137 0.0
H377 H 0.53272 0.34869 0.4375 0.0
H378 H 0.5776 0.34443 0.42107 0.0
H379 H 0.50987 0.39879 0.33927 0.0
H380 H 0.55302 0.40961 0.3522 0.0
H381 H 0.52262 0.40173 0.39742 0.0
H382 H 0.62829 0.44384 0.43225 0.0
C383 C 0.61431 0.40051 0.3909 0.0
C384 C 0.11258 0.26877 0.7173 0.0
C385 C 0.14613 0.26772 0.69907 0.0
C386 C 0.17199 0.24756 0.72083 0.0
C387 C 0.13024 0.22843 0.77665 0.0
C388 C 0.10555 0.24984 0.7567 0.0
C389 C 0.07218 0.25058 0.7827 0.0
H390 H 0.96798 0.17453 0.93546 0.0
C391 C 0.11362 0.21002 0.8148 0.0
C392 C 0.07978 0.22356 0.81894 0.0
H393 H 0.94568 0.26402 0.85165 0.0
H394 H 0.00577 0.26577 0.82704 0.0
H395 H -0.00318 0.13675 0.86549 0.0
H396 H 0.05372 0.19242 0.96748 0.0
H397 H 0.06869 0.14874 0.96298 0.0
H398 H 0.02405 0.15674 0.97615 0.0
H399 H 0.01202 0.11492 0.91526 0.0
H400 H 0.03825 0.11776 0.86477 0.0
C401 C 0.0423 0.23899 0.75083 0.0
C402 C 0.0675 0.28764 0.80276 0.0
C403 C 0.17212 0.10538 0.89172 0.0
C404 C 0.15739 0.07573 0.91278 0.0
C405 C 0.12118 0.07511 0.92006 0.0
C406 C 0.1006 0.10406 0.9103 0.0
C407 C 0.11549 0.13315 0.88919 0.0
C408 C 0.1502 0.13274 0.87764 0.0
C409 C 0.15865 0.16142 0.84423 0.0
C410 C 0.12391 0.18057 0.84121 0.0
C411 C 0.09945 0.16442 0.86936 0.0
C412 C 0.16863 0.14374 0.79915 0.0
C413 C 0.18756 0.18471 0.86435 0.0
C414 C 0.97669 0.19556 0.91367 0.0
C415 C 0.95278 0.21942 0.89574 0.0
C416 C 0.96416 0.24577 0.86613 0.0
C417 C -0.00121 0.24627 0.85142 0.0
C418 C 0.02157 0.21966 0.86579 0.0
C419 C 0.01063 0.19555 0.89749 0.0
C420 C 0.03647 0.16678 0.90489 0.0
C421 C 0.06613 0.17929 0.8754 0.0
C422 C 0.05684 0.2095 0.85154 0.0
C423 C 0.02019 0.13221 0.88703 0.0
C424 C 0.04636 0.16591 0.95558 0.0
H425 H 0.18493 0.21334 0.77507 0.0
H426 H 0.09254 0.2847 0.70174 0.0
H427 H 0.09265 0.30193 0.80518 0.0
H428 H 0.05766 0.28688 0.83786 0.0
H429 H 0.04968 0.30372 0.78162 0.0
H430 H 0.04987 0.21519 0.73185 0.0
H431 H 0.03606 0.25978 0.72584 0.0
H432 H 0.01822 0.2322 0.76888 0.0
H433 H 0.19962 0.10634 0.88411 0.0
H434 H 0.10877 0.05227 0.93447 0.0
H435 H 0.07368 0.10222 0.9187 0.0
H436 H 0.15157 0.12085 0.79238 0.0
H437 H 0.19593 0.13428 0.80026 0.0
H438 H 0.16532 0.16076 0.76945 0.0
H439 H 0.18212 0.19049 0.90043 0.0
H440 H 0.18939 0.21026 0.84719 0.0
H441 H 0.21324 0.17154 0.86262 0.0
H442 H 0.19821 0.24699 0.70763 0.0
C443 C 0.16423 0.22795 0.75961 0.0
C444 C 0.35418 0.72081 0.16817 0.0
C445 C 0.37978 0.73754 0.14214 0.0
C446 C 0.41506 0.73284 0.15384 0.0
C447 C 0.39801 0.70053 0.22099 0.0
C448 C 0.36387 0.70185 0.2065 0.0
C449 C 0.34009 0.68005 0.23519 0.0
H450 H 0.32229 0.57178 0.41325 0.0
C451 C 0.39864 0.68136 0.26443 0.0
C452 C 0.36487 0.66884 0.27245 0.0
H453 H 0.25066 0.58768 0.30253 0.0
H454 H 0.28678 0.63478 0.27401 0.0
H455 H 0.38676 0.57009 0.36478 0.0
H456 H 0.34228 0.66326 0.42248 0.0
H457 H 0.38679 0.6616 0.43593 0.0
H458 H 0.35805 0.62773 0.45617 0.0
H459 H 0.38653 0.5774 0.42472 0.0
H460 H 0.42057 0.5943 0.3895 0.0
C461 C 0.32713 0.64871 0.20641 0.0
C462 C 0.31058 0.70341 0.25348 0.0
C463 C 0.50914 0.67852 0.35958 0.0
C464 C 0.51641 0.66603 0.40328 0.0
C465 C 0.48913 0.65265 0.42975 0.0
C466 C 0.45543 0.64964 0.41187 0.0
C467 C 0.44879 0.66081 0.36735 0.0
C468 C 0.47514 0.67612 0.34258 0.0
C469 C 0.46283 0.68826 0.29681 0.0
C470 C 0.42494 0.67705 0.29786 0.0
C471 C 0.41706 0.66032 0.33888 0.0
C472 C 0.48356 0.66857 0.2601 0.0
C473 C 0.46689 0.72839 0.29494 0.0
C474 C 0.3137 0.58642 0.38398 0.0
C475 C 0.28358 0.57647 0.36026 0.0
C476 C 0.27367 0.59525 0.32137 0.0
C477 C 0.29504 0.62195 0.30445 0.0
C478 C 0.32675 0.62945 0.32637 0.0
C479 C 0.33498 0.61273 0.3664 0.0
C480 C 0.37027 0.62307 0.38411 0.0
C481 C 0.38352 0.64556 0.34557 0.0
C482 C 0.35756 0.64991 0.3125 0.0
C483 C 0.39235 0.58966 0.39154 0.0
C484 C 0.36442 0.6449 0.42719 0.0
H485 H 0.45145 0.71328 0.20198 0.0
H486 H 0.32694 0.72254 0.15887 0.0
H487 H 0.32139 0.72816 0.26718 0.0
H488 H 0.29616 0.69096 0.28141 0.0
H489 H 0.29171 0.71014 0.22628 0.0
H490 H 0.3431 0.64483 0.17559 0.0
H491 H 0.29983 0.65252 0.19498 0.0
H492 H 0.32908 0.62362 0.22498 0.0
H493 H 0.52969 0.68917 0.33875 0.0
H494 H 0.49439 0.6431 0.46358 0.0
H495 H 0.4361 0.6379 0.43302 0.0
H496 H 0.49116 0.64206 0.27194 0.0
H497 H 0.50774 0.68282 0.25113 0.0
H498 H 0.46806 0.664 0.22911 0.0
H499 H 0.45639 0.74047 0.32615 0.0
H500 H 0.45264 0.74057 0.26666 0.0
H501 H 0.49474 0.73584 0.29226 0.0
H502 H 0.4353 0.74405 0.13302 0.0
C503 C 0.42429 0.71502 0.19375 0.0
C504 C 0.81429 0.87735 0.90513 0.0
C505 C 0.82654 0.9031 0.93518 0.0
C506 C 0.85695 0.89628 0.96054 0.0
C507 C 0.86499 0.84169 0.92175 0.0
C508 C 0.83487 0.84769 0.89729 0.0
C509 C 0.83041 0.82166 0.85958 0.0
H510 H 0.90978 0.71021 0.71696 0.0
C511 C 0.88324 0.81178 0.90174 0.0
C512 C 0.86361 0.80016 0.86465 0.0
H513 H 0.80206 0.74219 0.71531 0.0
H514 H 0.81007 0.77228 0.78631 0.0
H515 H 0.94541 0.78038 0.76064 0.0
H516 H 0.90505 0.6854 0.81789 0.0
H517 H 0.93947 0.69827 0.85329 0.0
H518 H 0.94808 0.68754 0.795 0.0
H519 H 0.96448 0.73814 0.75225 0.0
H520 H 0.97564 0.76428 0.80047 0.0
C521 C 0.82914 0.8422 0.81444 0.0
C522 C 0.79745 0.79963 0.86893 0.0
C523 C 0.00516 0.78488 0.95614 0.0
C524 C 0.03277 0.7682 0.93444 0.0
C525 C 0.02588 0.74512 0.89869 0.0
C526 C 0.99206 0.74199 0.88122 0.0
C527 C 0.96544 0.76291 0.89908 0.0
C528 C 0.97195 0.78294 0.93698 0.0
C529 C 0.94243 0.80709 0.94765 0.0
C530 C 0.91655 0.79741 0.91087 0.0
C531 C 0.93029 0.77184 0.88228 0.0
C532 C 0.95572 0.8454 0.94305 0.0
C533 C 0.92864 0.79752 0.99507 0.0
C534 C 0.88811 0.72402 0.73181 0.0
C535 C 0.85544 0.72438 0.71038 0.0
C536 C 0.82757 0.742 0.73106 0.0
C537 C 0.83221 0.75941 0.77212 0.0
C538 C 0.86507 0.75926 0.79283 0.0
C539 C 0.89191 0.7405 0.77373 0.0
C540 C 0.92342 0.73916 0.80393 0.0
C541 C 0.91145 0.76143 0.84327 0.0
C542 C 0.87771 0.7743 0.83565 0.0
C543 C 0.95407 0.75615 0.77819 0.0
C544 C 0.92968 0.70067 0.8182 0.0
H545 H 0.89749 0.8615 0.97656 0.0
H546 H 0.79066 0.8815 0.8858 0.0
H547 H 0.79234 0.79745 0.9058 0.0
H548 H 0.80017 0.77237 0.85729 0.0
H549 H 0.77409 0.8115 0.85287 0.0
H550 H 0.85113 0.86104 0.81265 0.0
H551 H 0.80453 0.85721 0.81136 0.0
H552 H 0.83127 0.82562 0.78437 0.0
H553 H 0.01029 0.80335 0.98305 0.0
H554 H 0.0471 0.7322 0.8816 0.0
H555 H 0.98861 0.72561 0.85224 0.0
H556 H 0.98104 0.84725 0.92527 0.0
H557 H 0.95941 0.85774 0.97665 0.0
H558 H 0.93816 0.8618 0.92217 0.0
H559 H 0.92527 0.76879 0.99836 0.0
H560 H 0.90289 0.80901 0.00206 0.0
H561 H 0.94721 0.80601 0.02167 0.0
H562 H 0.86704 0.91535 0.98416 0.0
C563 C 0.87521 0.8652 0.95538 0.0
C564 C 0.19532 0.9755 0.1087 0.0
C565 C 0.22663 0.97128 0.08397 0.0
C566 C 0.23624 0.0346 0.08552 0.0
C567 C 0.2042 0.03872 0.1085 0.0
N568 N 0.14865 0.01415 0.12966 0.0
N569 N 0.27379 0.99648 0.04184 0.0
C570 C 0.18249 0.00946 0.11677 0.0
C571 C 0.24613 0.00079 0.07003 0.0
N572 N 0.17753 0.94704 0.12444 0.0
N573 N 0.25759 0.06276 0.0798 0.0
H574 H 0.28203 0.97197 0.03103 0.0
H575 H 0.28695 0.01712 0.02666 0.0
H576 H 0.25092 0.08773 0.0907 0.0
H577 H 0.28276 0.06105 0.06724 0.0
H578 H 0.15743 0.94877 0.14779 0.0
H579 H 0.18394 0.92139 0.11657 0.0
H580 H 0.13044 0.99404 0.13073 0.0
H581 H 0.13744 0.0386 0.13449 0.0
C582 C 0.62519 0.71541 0.54905 0.0
C583 C 0.62993 0.68091 0.5655 0.0
C584 C 0.57036 0.67914 0.59252 0.0
C585 C 0.56452 0.71269 0.57339 0.0
N586 N 0.58415 0.76096 0.52797 0.0
N587 N 0.6047 0.62654 0.59039 0.0
C588 C 0.5913 0.73035 0.54985 0.0
C589 C 0.60178 0.66172 0.58338 0.0
N590 N 0.65317 0.7341 0.53414 0.0
N591 N 0.54654 0.66442 0.62101 0.0
H592 H 0.62721 0.61252 0.58299 0.0
H593 H 0.58364 0.61073 0.59886 0.0
H594 H 0.52336 0.67654 0.63007 0.0
H595 H 0.55139 0.64169 0.63938 0.0
H596 H 0.65208 0.7605 0.52591 0.0
H597 H 0.67815 0.72359 0.53247 0.0
H598 H 0.60162 0.77345 0.50656 0.0
H599 H 0.55963 0.77261 0.52873 0.0
C600 C 0.74686 0.00271 0.09238 0.0
C601 C 0.7692 0.03172 0.09892 0.0
C602 C 0.80505 -0.00242 0.15144 0.0
C603 C 0.78605 0.96729 0.13984 0.0
N604 N 0.73886 0.93993 0.09949 0.0
N605 N 0.82322 0.05513 0.12839 0.0
C606 C 0.75648 0.96961 0.11094 0.0
C607 C 0.79908 0.02886 0.12719 0.0
N608 N 0.71651 0.00696 0.0688 0.0
N609 N 0.82887 0.99637 0.18587 0.0
H610 H 0.82101 0.07804 0.10949 0.0
H611 H 0.84732 0.05271 0.14433 0.0
H612 H 0.83369 0.97376 0.20464 0.0
H613 H 0.84108 0.01847 0.19884 0.0
H614 H 0.69741 0.98781 0.0662 0.0
H615 H 0.70941 0.03072 0.0541 0.0
H616 H 0.7196 0.93899 0.0747 0.0
H617 H 0.74498 0.91557 0.11319 0.0
C618 C 0.39148 0.32074 0.50843 0.0
C619 C 0.36058 0.31103 0.53122 0.0
C620 C 0.39412 0.27403 0.58275 0.0
C621 C 0.42516 0.28371 0.55998 0.0
N622 N 0.45052 0.30408 0.49038 0.0
N623 N 0.33162 0.26767 0.57654 0.0
C624 C 0.42266 0.30251 0.51866 0.0
C625 C 0.3617 0.28357 0.56335 0.0
N626 N 0.39223 0.34923 0.48068 0.0
N627 N 0.39507 0.25894 0.6246 0.0
H628 H 0.30756 0.27412 0.56223 0.0
H629 H 0.33127 0.24582 0.59761 0.0
H630 H 0.41791 0.25353 0.6422 0.0
H631 H 0.37279 0.25493 0.64386 0.0
H632 H 0.41516 0.35895 0.4668 0.0
H633 H 0.37063 0.36493 0.47461 0.0
H634 H 0.44921 0.31564 0.45852 0.0
H635 H 0.47354 0.29053 0.49713 0.0
C636 C 0.68622 0.52804 0.39647 0.0
C637 C 0.71655 0.52869 0.42417 0.0
C638 C 0.71758 0.46462 0.42477 0.0
C639 C 0.68865 0.46451 0.39469 0.0
N640 N 0.65114 0.4958 0.34313 0.0
N641 N 0.76329 0.4984 0.46166 0.0
C642 C 0.67491 0.49616 0.37769 0.0
C643 C 0.73299 0.49714 0.43743 0.0
N644 N 0.66678 0.55759 0.39028 0.0
N645 N 0.7294 0.43378 0.44226 0.0
H646 H 0.77449 0.52186 0.47206 0.0
H647 H 0.77836 0.47658 0.46918 0.0
H648 H 0.71912 0.4097 0.4326 0.0
H649 H 0.74782 0.43204 0.46804 0.0
H650 H 0.6423 0.55756 0.37501 0.0
H651 H 0.67309 0.58154 0.40462 0.0
H652 H 0.64312 0.51828 0.32614 0.0
H653 H 0.64205 0.47287 0.3283 0.0
C654 C 0.85959 0.2107 0.9364 0.0
C655 C 0.85151 0.17811 0.91633 0.0
C656 C 0.90481 0.18068 0.87234 0.0
C657 C 0.91571 0.20981 0.89807 0.0
N658 N 0.90487 0.25234 0.95589 0.0
N659 N 0.86958 0.12873 0.87136 0.0
C660 C 0.89339 0.22504 0.93032 0.0
C661 C 0.87477 0.16229 0.88557 0.0
N662 N 0.83477 0.2282 0.96011 0.0
N663 N 0.9235 0.17035 0.83556 0.0
H664 H 0.8488 0.11329 0.88186 0.0
H665 H 0.88792 0.11486 0.85289 0.0
H666 H 0.94591 0.18323 0.82481 0.0
H667 H 0.91482 0.15129 0.81315 0.0
H668 H 0.83804 0.25361 0.97176 0.0
H669 H 0.80979 0.21828 0.96502 0.0
H670 H 0.89104 0.26237 0.98305 0.0
H671 H 0.9292 0.26383 0.95115 0.0
C672 C 0.27338 0.47828 0.36735 0.0
C673 C 0.24963 0.47538 0.40394 0.0
C674 C 0.23987 0.53866 0.40084 0.0
C675 C 0.26793 0.54185 0.37019 0.0
N676 N 0.31222 0.51514 0.32436 0.0
N677 N 0.21026 0.50226 0.45621 0.0
C678 C 0.28454 0.51173 0.35295 0.0
C679 C 0.23248 0.50542 0.42058 0.0
N680 N 0.28519 0.44905 0.34597 0.0
N681 N 0.2209 0.56755 0.41157 0.0
H682 H 0.20411 0.47818 0.47069 0.0
H683 H 0.19966 0.52344 0.47317 0.0
H684 H 0.22638 0.59213 0.39807 0.0
H685 H 0.1984 0.56678 0.43094 0.0
H686 H 0.29889 0.44969 0.31573 0.0
H687 H 0.27922 0.4238 0.35629 0.0
H688 H 0.32881 0.49467 0.31624 0.0
H689 H 0.32004 0.53895 0.31059 0.0
C690 C 0.10466 0.83496 0.93146 0.0
C691 C 0.13279 0.81605 0.95021 0.0
C692 C 0.09455 0.76593 0.96355 0.0
C693 C 0.06786 0.78349 0.93941 0.0
N694 N 0.05035 0.8315 0.89097 0.0
N695 N 0.15634 0.76265 0.98081 0.0
C696 C 0.07371 0.81712 0.92067 0.0
C697 C 0.12829 0.78127 0.9657 0.0
N698 N 0.10718 0.87024 0.92508 0.0
N699 N 0.08751 0.73501 0.98469 0.0
H700 H 0.18122 0.77338 0.98334 0.0
H701 H 0.15543 0.73611 0.9883 0.0
H702 H 0.06313 0.72307 0.98294 0.0
H703 H 0.10494 0.72249 0.00633 0.0
H704 H 0.08605 0.88574 0.91575 0.0
H705 H 0.12928 0.88456 0.93387 0.0
H706 H 0.05524 0.85445 0.8731 0.0
H707 H 0.02778 0.8188 0.88036 0.0
C708 C 0.78571 0.99245 0.90978 0.0
C709 C 0.79121 0.00898 0.95218 0.0
C710 C 0.80569 0.95213 0.98376 0.0
C711 C 0.80924 0.93787 0.93999 0.0
N712 N 0.80938 0.94965 0.85921 0.0
N713 N 0.81765 0.00415 0.02607 0.0
C714 C 0.80073 0.9592 0.90209 0.0
C715 C 0.80381 0.98876 0.98872 0.0
N716 N 0.76641 0.00836 0.87681 0.0
N717 N 0.80463 0.93089 0.02062 0.0
H718 H 0.82074 0.03108 0.02866 0.0
H719 H 0.8299 0.98972 0.05151 0.0
H720 H 0.80414 0.90372 0.01821 0.0
H721 H 0.80014 0.94077 0.05257 0.0
H722 H 0.76006 0.99599 0.84653 0.0
H723 H 0.75345 0.0319 0.88205 0.0
H724 H 0.80585 0.9662 0.83153 0.0
H725 H 0.82389 0.9275 0.85181 0.0
C726 C 0.36664 0.36488 0.36831 0.0
C727 C 0.34651 0.33844 0.38927 0.0
C728 C 0.39487 0.29729 0.38175 0.0
C729 C 0.41326 0.32279 0.35651 0.0
N730 N 0.4139 0.37835 0.31776 0.0
N731 N 0.33932 0.27842 0.41203 0.0
C732 C 0.39821 0.35579 0.3472 0.0
C733 C 0.36 0.30425 0.39493 0.0
N734 N 0.3568 0.39908 0.37117 0.0
N735 N 0.41111 0.26707 0.39437 0.0
H736 H 0.31377 0.28279 0.42222 0.0
H737 H 0.34653 0.25225 0.41298 0.0
H738 H 0.43645 0.26104 0.38468 0.0
H739 H 0.40053 0.24926 0.41712 0.0
H740 H 0.37233 0.41972 0.36029 0.0
H741 H 0.33505 0.40719 0.38919 0.0
H742 H 0.40212 0.40122 0.30629 0.0
H743 H 0.43718 0.37268 0.3014 0.0
C744 C 0.18244 0.99345 0.9764 0.0
C745 C 0.20854 0.97906 0.94844 0.0
C746 C 0.20232 0.02845 0.89654 0.0
C747 C 0.17859 0.04462 0.92671 0.0
N748 N 0.15507 0.04616 0.00242 0.0
N749 N 0.25063 0.98841 0.88965 0.0
C750 C 0.17204 0.02848 0.96925 0.0
C751 C 0.22124 -0.00122 0.91148 0.0
N752 N 0.16511 0.97317 0.00688 0.0
N753 N 0.20441 0.03871 0.85239 0.0
H754 H 0.26512 0.96682 0.90028 0.0
H755 H 0.26232 0.00338 0.86446 0.0
H756 H 0.188 0.05725 0.83788 0.0
H757 H 0.21937 0.02547 0.82872 0.0
H758 H 0.14327 0.98179 0.02432 0.0
H759 H 0.17016 0.94677 0.01151 0.0
H760 H 0.15111 0.03585 0.03457 0.0
H761 H 0.14811 0.07234 0.99921 0.0
C762 C 0.60936 0.69305 0.43239 0.0
C763 C 0.62429 0.66015 0.44251 0.0
C764 C 0.56866 0.63134 0.42795 0.0
C765 C 0.55302 0.66434 0.4198 0.0
N766 N 0.55635 0.72704 0.42466 0.0
N767 N 0.61599 0.59963 0.46291 0.0
C768 C 0.57275 0.69543 0.4253 0.0
C769 C 0.60314 0.62991 0.44489 0.0
N770 N 0.63022 0.72178 0.42886 0.0
N771 N 0.55167 0.60126 0.41648 0.0
H772 H 0.6413 0.5972 0.47528 0.0
H773 H 0.60049 0.57791 0.46957 0.0
H774 H 0.527 0.60082 0.40174 0.0
H775 H 0.56353 0.57682 0.41714 0.0
H776 H 0.62152 0.74584 0.41695 0.0
H777 H 0.65686 0.72095 0.43574 0.0
H778 H 0.5688 0.75048 0.43202 0.0
H779 H 0.52948 0.72948 0.42069 0.0
C780 C 0.32381 0.48624 0.58598 0.0
C781 C 0.30497 0.47802 0.54565 0.0
C782 C 0.30391 0.53972 0.52574 0.0
C783 C 0.31885 0.54856 0.56791 0.0
N784 N 0.34293 0.52994 0.63963 0.0
N785 N 0.30506 0.49588 0.46832 0.0
C786 C 0.32854 0.52175 0.5987 0.0
C787 C 0.30206 0.5043 0.51261 0.0
N788 N 0.34191 0.46057 0.60807 0.0
N789 N 0.29152 0.56523 0.49786 0.0
H790 H 0.31089 0.47059 0.45802 0.0
H791 H 0.30842 0.5149 0.44352 0.0
H792 H 0.2916 0.59161 0.50653 0.0
H793 H 0.27823 0.55943 0.46825 0.0
H794 H 0.35835 0.46501 0.63549 0.0
H795 H 0.34521 0.4357 0.59456 0.0
H796 H 0.34581 0.51191 0.66579 0.0
H797 H 0.35009 0.55514 0.64885 0.0
C798 C 0.11176 0.86479 0.0805 0.0
C799 C 0.13317 0.83479 0.07863 0.0
C800 C 0.08243 0.79771 0.09309 0.0
C801 C 0.06231 0.82812 0.10128 0.0
N802 N 0.06032 0.89062 0.11234 0.0
N803 N 0.14027 0.77268 0.086 0.0
C804 C 0.07758 0.86171 0.09738 0.0
C805 C 0.11891 0.80113 0.08567 0.0
N806 N 0.12401 0.89633 0.06588 0.0
N807 N 0.06652 0.76586 0.09139 0.0
H808 H 0.16683 0.77448 0.07922 0.0
H809 H 0.13216 0.74777 0.09535 0.0
H810 H 0.0398 0.76269 0.09586 0.0
H811 H 0.07917 0.74301 0.08212 0.0
H812 H 0.10829 0.91831 0.06217 0.0
H813 H 0.14902 0.89968 0.05325 0.0
H814 H 0.0719 0.91515 0.11464 0.0
H815 H 0.03577 0.88963 0.12708 0.0
C816 C 0.72469 0.50188 0.61101 0.0
C817 C 0.71131 0.5175 0.57092 0.0
C818 C 0.68167 0.46286 0.5543 0.0
C819 C 0.68656 0.45164 0.5995 0.0
N820 N 0.71139 0.46327 0.67328 0.0
N821 N 0.6701 0.51369 0.50893 0.0
C822 C 0.70836 0.47145 0.62852 0.0
C823 C 0.68848 0.49806 0.54296 0.0
N824 N 0.75232 0.51668 0.63288 0.0
N825 N 0.66893 0.44028 0.52288 0.0
H826 H 0.67129 0.54032 0.50222 0.0
H827 H 0.65089 0.50068 0.49053 0.0
H828 H 0.66426 0.41401 0.53012 0.0
H829 H 0.66699 0.44707 0.489 0.0
H830 H 0.76459 0.50496 0.6605 0.0
H831 H 0.76508 0.53866 0.62018 0.0
H832 H 0.72424 0.47929 0.69635 0.0
H833 H 0.69856 0.44233 0.68825 0.0
C834 C 0.89804 0.13858 0.05286 0.0
C835 C 0.87272 0.16531 0.05156 0.0
C836 C 0.91752 0.20801 0.07255 0.0
C837 C 0.94085 0.18033 0.08276 0.0
N838 N 0.95073 0.11799 0.08871 0.0
N839 N 0.8573 0.2255 0.06277 0.0
C840 C 0.93075 0.14523 0.07376 0.0
C841 C 0.88224 0.20017 0.06166 0.0
N842 N 0.89038 0.10645 0.03558 0.0
N843 N 0.92917 0.24168 0.07313 0.0
H844 H 0.83144 0.22071 0.05387 0.0
H845 H 0.86186 0.2506 0.07481 0.0
H846 H 0.95507 0.24803 0.0799 0.0
H847 H 0.91411 0.26284 0.06279 0.0
H848 H 0.90891 0.08687 0.03181 0.0
H849 H 0.86636 0.10064 0.02085 0.0
H850 H 0.94263 0.09208 0.08724 0.0
H851 H 0.97374 0.12112 0.10694 0.0
C852 C 0.35216 0.81775 0.07521 0.0
C853 C 0.32133 0.80343 0.05703 0.0
C854 C 0.3437 0.74519 0.07292 0.0
C855 C 0.36816 0.75979 0.10344 0.0
N856 N 0.39564 0.81187 0.13376 0.0
N857 N 0.28609 0.7527 0.04175 0.0
C858 C 0.37337 0.79661 0.10363 0.0
C859 C 0.31701 0.7668 0.0553 0.0
N860 N 0.35972 0.85204 0.06757 0.0
N861 N 0.34468 0.71038 0.06362 0.0
H862 H 0.26506 0.76801 0.03147 0.0
H863 H 0.28052 0.72615 0.04432 0.0
H864 H 0.36409 0.69421 0.07691 0.0
H865 H 0.32856 0.69877 0.03954 0.0
H866 H 0.38315 0.86353 0.07732 0.0
H867 H 0.34378 0.86775 0.0473 0.0
H868 H 0.39697 0.83876 0.13849 0.0
H869 H 0.41106 0.79797 0.15643 0.0
C870 C 0.81402 0.70933 0.59779 0.0
C871 C 0.81386 0.67242 0.59604 0.0
C872 C 0.85076 0.66939 0.66324 0.0
C873 C 0.84921 0.70637 0.66658 0.0
N874 N 0.84176 0.76119 0.62774 0.0
N875 N 0.8424 0.61881 0.61511 0.0
C876 C 0.83547 0.72619 0.63013 0.0
C877 C 0.83658 0.65317 0.62424 0.0
N878 N 0.79104 0.72807 0.57227 0.0
N879 N 0.86243 0.64954 0.6986 0.0
H880 H 0.83133 0.60678 0.58684 0.0
H881 H 0.86057 0.60371 0.6326 0.0
H882 H 0.87165 0.65996 0.72878 0.0
H883 H 0.8604 0.62244 0.69935 0.0
H884 H 0.78732 0.75484 0.57588 0.0
H885 H 0.77389 0.71621 0.5498 0.0
H886 H 0.83436 0.7765 0.60016 0.0
H887 H 0.85753 0.77394 0.65132 0.0
C888 C 0.68651 0.231 0.0375 0.0
C889 C 0.6854 0.19515 0.04842 0.0
C890 C 0.64566 0.20594 0.11045 0.0
C891 C 0.64859 0.24243 0.102 0.0
N892 N 0.66208 0.28865 0.04956 0.0
N893 N 0.65445 0.14741 0.08163 0.0
C894 C 0.66559 0.25459 0.06244 0.0
C895 C 0.66101 0.18239 0.07972 0.0
N896 N 0.70899 0.24237 0.00509 0.0
N897 N 0.63159 0.19372 0.14979 0.0
H898 H 0.66642 0.12994 0.05962 0.0
H899 H 0.63488 0.13652 0.1014 0.0
H900 H 0.62172 0.20971 0.17496 0.0
H901 H 0.63248 0.16758 0.15943 0.0
H902 H 0.71414 0.26859 0.99869 0.0
H903 H 0.72325 0.22494 0.98544 0.0
H904 H 0.6719 0.29863 0.01946 0.0
H905 H 0.64655 0.30615 0.06735 0.0
C906 C 0.18649 0.28837 0.58603 0.0
C907 C 0.18551 0.32536 0.58623 0.0
C908 C 0.15292 0.32481 0.65675 0.0
C909 C 0.15471 0.28777 0.65743 0.0
N910 N 0.16164 0.23468 0.61493 0.0
N911 N 0.15737 0.37749 0.61138 0.0
C912 C 0.16743 0.26967 0.61918 0.0
C913 C 0.1645 0.34295 0.61779 0.0
N914 N 0.20793 0.27115 0.55706 0.0
N915 N 0.1432 0.34289 0.69434 0.0
H916 H 0.1662 0.39099 0.58293 0.0
H917 H 0.14006 0.39138 0.63146 0.0
H918 H 0.13647 0.33095 0.72472 0.0
H919 H 0.14495 0.36995 0.69673 0.0
H920 H 0.21276 0.24445 0.55918 0.0
H921 H 0.22268 0.28395 0.53275 0.0
H922 H 0.16787 0.22075 0.58591 0.0
H923 H 0.14733 0.22045 0.63855 0.0
C924 C 0.84454 0.67797 0.43354 0.0
C925 C 0.81476 0.69383 0.45205 0.0
C926 C 0.8388 0.75086 0.43305 0.0
C927 C 0.86233 0.73467 0.40293 0.0
N928 N 0.88622 0.68084 0.37307 0.0
N929 N 0.78175 0.74612 0.46614 0.0
C930 C 0.86576 0.69764 0.40365 0.0
C931 C 0.81175 0.73062 0.45212 0.0
N932 N 0.85102 0.6436 0.44225 0.0
N933 N 0.84137 0.78576 0.44138 0.0
H934 H 0.76062 0.73185 0.47825 0.0
H935 H 0.77698 0.77274 0.46238 0.0
H936 H 0.86126 0.80097 0.42764 0.0
H937 H 0.82609 0.7984 0.46528 0.0
H938 H 0.87376 0.6311 0.43225 0.0
H939 H 0.83511 0.6289 0.46359 0.0
H940 H 0.88632 0.65381 0.3694 0.0
H941 H 0.90088 0.69357 0.34864 0.0
C942 C 0.65962 0.17395 0.91349 0.0
C943 C 0.67503 0.14222 0.90088 0.0
C944 C 0.65601 0.15122 0.82273 0.0
C945 C 0.64779 0.18636 0.83343 0.0
N946 N 0.63759 0.23045 0.89 0.0
N947 N 0.66736 0.09304 0.85179 0.0
C948 C 0.64785 0.19741 0.87931 0.0
C949 C 0.66644 0.1283 0.85799 0.0
N950 N 0.6526 0.17935 0.9578 0.0
N951 N 0.65642 0.14037 0.7788 0.0
H952 H 0.67262 0.07596 0.87854 0.0
H953 H 0.65882 0.08086 0.82235 0.0
H954 H 0.64958 0.15639 0.75167 0.0
H955 H 0.6661 0.1162 0.76897 0.0
H956 H 0.6384 0.20054 0.96961 0.0
H957 H 0.65654 0.15934 0.98124 0.0
H958 H 0.64098 0.2412 0.92201 0.0
H959 H 0.62694 0.24759 0.86621 0.0
C960 C 0.20073 0.2637 0.43044 0.0
C961 C 0.1823 0.2923 0.44803 0.0
C962 C 0.12766 0.26234 0.43026 0.0
C963 C 0.14625 0.23892 0.40195 0.0
N964 N 0.20189 0.22343 0.36865 0.0
N965 N 0.12819 0.31872 0.46813 0.0
C966 C 0.1833 0.24055 0.40101 0.0
C967 C 0.14563 0.29131 0.44973 0.0
N968 N 0.23561 0.26077 0.43845 0.0
N969 N 0.09321 0.25682 0.4385 0.0
H970 H 0.14134 0.33916 0.48408 0.0
H971 H 0.10129 0.32159 0.46618 0.0
H972 H 0.07985 0.23529 0.42562 0.0
H973 H 0.07894 0.27161 0.46129 0.0
H974 H 0.25 0.23898 0.42888 0.0
H975 H 0.24907 0.27862 0.4586 0.0
H976 H 0.22864 0.22652 0.36476 0.0
H977 H 0.19053 0.20998 0.34188 0.0
C978 C 0.31124 0.78407 0.91362 0.0
C979 C 0.31335 0.821 0.9138 0.0
C980 C 0.34993 0.81982 0.84681 0.0
C981 C 0.34758 0.78274 0.84636 0.0
N982 N 0.33791 0.73015 0.88946 0.0
N983 N 0.34462 0.87239 0.89172 0.0
C984 C 0.33272 0.76511 0.88376 0.0
C985 C 0.33686 0.83809 0.88467 0.0
N986 N 0.28613 0.76725 0.93774 0.0
N987 N 0.36108 0.83795 0.80978 0.0
H988 H 0.33453 0.88606 0.91917 0.0
H989 H 0.3635 0.88575 0.87334 0.0
H990 H 0.36844 0.82623 0.77968 0.0
H991 H 0.35974 0.86505 0.80739 0.0
H992 H 0.28135 0.74057 0.9349 0.0
H993 H 0.26808 0.78048 0.95733 0.0
H994 H 0.32947 0.71661 0.91799 0.0
H995 H 0.35382 0.71579 0.86792 0.0
loop_
_geom_bond_atom_site_label_1
_geom_bond_atom_site_label_2
_geom_bond_distance
_geom_bond_site_symmetry_2
_ccdc_geom_bond_type
Zn0 O6 1.920 . S
Zn0 O12 1.898 . S
Zn0 O15 1.905 . S
Zn1 O9 1.905 . S
Zn1 O10 1.898 . S
Zn1 O18 1.920 . S
Zn2 O5 2.080 . S
Zn2 O8 2.114 1_554 S
Zn2 O11 2.120 1_554 S
Zn2 O13 2.120 . S
Zn2 O14 2.114 . S
Zn2 O17 2.080 1_554 S
C3 O8 1.166 . S
C3 O9 1.182 . S
C4 O10 1.167 . S
C4 O11 1.299 . S
O5 Zn2 2.080 . S
O5 C19 1.305 . S
O6 Zn0 1.920 . S
O6 C19 1.234 . S
C7 O12 1.167 . S
C7 O13 1.299 . S
O8 Zn2 2.114 1_556 S
O8 C3 1.166 . S
O9 Zn1 1.905 . S
O9 C3 1.182 . S
O10 Zn1 1.898 . S
O10 C4 1.167 . S
O11 Zn2 2.120 1_556 S
O11 C4 1.299 . S
O12 Zn0 1.898 . S
O12 C7 1.167 . S
O13 Zn2 2.120 . S
O13 C7 1.299 . S
O14 Zn2 2.114 . S
O14 C16 1.166 . S
O15 Zn0 1.905 . S
O15 C16 1.182 . S
C16 O14 1.166 . S
C16 O15 1.182 . S
O17 Zn2 2.080 1_556 S
O17 C20 1.305 . S
O18 Zn1 1.920 . S
O18 C20 1.234 . S
C19 O5 1.305 . S
C19 O6 1.234 . S
C20 O17 1.305 . S
C20 O18 1.234 . S
Zn21 O27 1.920 . S
Zn21 O33 1.898 . S
Zn21 O36 1.905 . S
Zn22 O30 1.905 . S
Zn22 O31 1.898 . S
Zn22 O39 1.920 . S
Zn23 O26 2.080 . S
Zn23 O29 2.114 . S
Zn23 O32 2.120 . S
Zn23 O34 2.120 . S
Zn23 O35 2.114 . S
Zn23 O38 2.080 . S
C24 O29 1.166 . S
C24 O30 1.182 . S
C25 O31 1.167 . S
C25 O32 1.299 . S
O26 Zn23 2.080 . S
O26 C40 1.305 . S
O27 Zn21 1.920 . S
O27 C40 1.234 . S
C28 O33 1.167 . S
C28 O34 1.299 . S
O29 Zn23 2.114 . S
O29 C24 1.166 . S
O30 Zn22 1.905 . S
O30 C24 1.182 . S
O31 Zn22 1.898 . S
O31 C25 1.167 . S
O32 Zn23 2.120 . S
O32 C25 1.299 . S
O33 Zn21 1.898 . S
O33 C28 1.167 . S
O34 Zn23 2.120 . S
O34 C28 1.299 . S
O35 Zn23 2.114 . S
O35 C37 1.166 . S
O36 Zn21 1.905 . S
O36 C37 1.182 . S
C37 O35 1.166 . S
C37 O36 1.182 . S
O38 Zn23 2.080 . S
O38 C41 1.305 . S
O39 Zn22 1.920 . S
O39 C41 1.234 . S
C40 O26 1.305 . S
C40 O27 1.234 . S
C41 O38 1.305 . S
C41 O39 1.234 . S
Zn42 O48 1.920 . S
Zn42 O54 1.898 . S
Zn42 O57 1.905 . S
Zn43 O51 1.905 . S
Zn43 O52 1.898 . S
Zn43 O60 1.920 . S
Zn44 O47 2.080 1_554 S
Zn44 O50 2.114 . S
Zn44 O53 2.120 . S
Zn44 O55 2.120 1_554 S
Zn44 O56 2.114 1_554 S
Zn44 O59 2.080 . S
C45 O50 1.166 . S
C45 O51 1.182 . S
C46 O52 1.167 . S
C46 O53 1.299 . S
O47 Zn44 2.080 1_556 S
O47 C61 1.305 . S
O48 Zn42 1.920 . S
O48 C61 1.234 . S
C49 O54 1.167 . S
C49 O55 1.299 . S
O50 Zn44 2.114 . S
O50 C45 1.166 . S
O51 Zn43 1.905 . S
O51 C45 1.182 . S
O52 Zn43 1.898 . S
O52 C46 1.167 . S
O53 Zn44 2.120 . S
O53 C46 1.299 . S
O54 Zn42 1.898 . S
O54 C49 1.167 . S
O55 Zn44 2.120 1_556 S
O55 C49 1.299 . S
O56 Zn44 2.114 1_556 S
O56 C58 1.166 . S
O57 Zn42 1.905 . S
O57 C58 1.182 . S
C58 O56 1.166 . S
C58 O57 1.182 . S
O59 Zn44 2.080 . S
O59 C62 1.305 . S
O60 Zn43 1.920 . S
O60 C62 1.234 . S
C61 O47 1.305 . S
C61 O48 1.234 . S
C62 O59 1.305 . S
C62 O60 1.234 . S
Zn63 O69 1.920 . S
Zn63 O75 1.898 . S
Zn63 O78 1.905 . S
Zn64 O72 1.905 . S
Zn64 O73 1.898 . S
Zn64 O81 1.920 . S
Zn65 O68 2.080 . S
Zn65 O71 2.114 . S
Zn65 O74 2.120 . S
Zn65 O76 2.120 . S
Zn65 O77 2.114 . S
Zn65 O80 2.080 . S
C66 O71 1.166 . S
C66 O72 1.182 . S
C67 O73 1.167 . S
C67 O74 1.299 . S
O68 Zn65 2.080 . S
O68 C82 1.305 . S
O69 Zn63 1.920 . S
O69 C82 1.234 . S
C70 O75 1.167 . S
C70 O76 1.299 . S
O71 Zn65 2.114 . S
O71 C66 1.166 . S
O72 Zn64 1.905 . S
O72 C66 1.182 . S
O73 Zn64 1.898 . S
O73 C67 1.167 . S
O74 Zn65 2.120 . S
O74 C67 1.299 . S
O75 Zn63 1.898 . S
O75 C70 1.167 . S
O76 Zn65 2.120 . S
O76 C70 1.299 . S
O77 Zn65 2.114 . S
O77 C79 1.166 . S
O78 Zn63 1.905 . S
O78 C79 1.182 . S
C79 O77 1.166 . S
C79 O78 1.182 . S
O80 Zn65 2.080 . S
O80 C83 1.305 . S
O81 Zn64 1.920 . S
O81 C83 1.234 . S
C82 O68 1.305 . S
C82 O69 1.234 . S
C83 O80 1.305 . S
C83 O81 1.234 . S
C84 C85 1.391 1_545 S
C84 C88 1.391 . S
C84 H126 0.948 . S
C85 C84 1.391 1_565 S
C85 C86 1.391 1_565 S
C86 C85 1.391 1_545 S
C86 H142 0.947 1_545 S
C86 C143 1.392 . S
C87 C88 1.391 . S
C87 C91 1.397 . S
C87 C143 1.419 . S
C88 C84 1.391 . S
C88 C87 1.391 . S
C88 C89 1.399 . S
C89 C88 1.399 . S
C89 C92 1.396 . S
C89 C101 1.453 . S
C89 C102 1.684 . S
H90 C114 0.948 . S
C91 C87 1.397 . S
C91 C92 1.394 . S
C91 C110 1.723 . S
C92 C89 1.396 . S
C92 C91 1.394 . S
C92 C122 1.723 . S
H93 C116 0.947 . S
H94 C117 0.948 . S
H95 C123 0.982 . S
H96 C124 0.979 . S
H97 C124 0.980 . S
H98 C124 0.983 . S
H99 C123 0.979 . S
H100 C123 0.977 . S
C101 C89 1.453 . S
C101 H130 0.982 . S
C101 H131 0.979 . S
C101 H132 0.977 . S
C102 C89 1.684 . S
C102 H127 0.979 . S
C102 H128 0.980 . S
C102 H129 0.983 . S
C103 C104 1.391 . S
C103 C108 1.391 . S
C103 H133 0.948 . S
C104 C103 1.391 . S
C104 C105 1.391 . S
C105 C104 1.391 . S
C105 C106 1.392 . S
C105 H134 0.947 . S
C106 C105 1.392 . S
C106 C107 1.419 . S
C106 H135 0.948 . S
C107 C106 1.419 . S
C107 C108 1.391 . S
C107 C111 1.397 . S
C108 C103 1.391 . S
C108 C107 1.391 . S
C108 C109 1.399 . S
C109 C108 1.399 . S
C109 C110 1.396 . S
C109 C112 1.453 . S
C109 C113 1.684 . S
C110 C91 1.723 . S
C110 C109 1.396 . S
C110 C111 1.394 . S
C111 C107 1.397 . S
C111 C110 1.394 . S
C111 C121 1.723 . S
C112 C109 1.453 . S
C112 H136 0.982 . S
C112 H137 0.979 . S
C112 H138 0.977 . S
C113 C109 1.684 . S
C113 H139 0.979 . S
C113 H140 0.980 . S
C113 H141 0.983 . S
C114 H90 0.948 . S
C114 C115 1.391 . S
C114 C119 1.391 . S
C115 C114 1.391 . S
C115 C116 1.391 . S
C116 H93 0.947 . S
C116 C115 1.391 . S
C116 C117 1.392 . S
C117 H94 0.948 . S
C117 C116 1.392 . S
C117 C118 1.419 . S
C118 C117 1.419 . S
C118 C119 1.391 . S
C118 C122 1.397 . S
C119 C114 1.391 . S
C119 C118 1.391 . S
C119 C120 1.399 . S
C120 C119 1.399 . S
C120 C121 1.396 . S
C120 C123 1.453 . S
C120 C124 1.684 . S
C121 C111 1.723 . S
C121 C120 1.396 . S
C121 C122 1.394 . S
C122 C92 1.723 . S
C122 C118 1.397 . S
C122 C121 1.394 . S
C123 H95 0.982 . S
C123 H99 0.979 . S
C123 H100 0.977 . S
C123 C120 1.453 . S
C124 H96 0.979 . S
C124 H97 0.980 . S
C124 H98 0.983 . S
C124 C120 1.684 . S
H125 C143 0.948 . S
H126 C84 0.948 . S
H127 C102 0.979 . S
H128 C102 0.980 . S
H129 C102 0.983 . S
H130 C101 0.982 . S
H131 C101 0.979 . S
H132 C101 0.977 . S
H133 C103 0.948 . S
H134 C105 0.947 . S
H135 C106 0.948 . S
H136 C112 0.982 . S
H137 C112 0.979 . S
H138 C112 0.977 . S
H139 C113 0.979 . S
H140 C113 0.980 . S
H141 C113 0.983 . S
H142 C86 0.947 1_565 S
C143 C86 1.392 . S
C143 C87 1.419 . S
C143 H125 0.948 . S
C144 C145 1.391 . S
C144 C148 1.391 . S
C144 H186 0.948 . S
C145 C144 1.391 . S
C145 C146 1.391 . S
C146 C145 1.391 . S
C146 H202 0.947 . S
C146 C203 1.392 . S
C147 C148 1.391 . S
C147 C151 1.397 . S
C147 C203 1.419 . S
C148 C144 1.391 . S
C148 C147 1.391 . S
C148 C149 1.399 . S
C149 C148 1.399 . S
C149 C152 1.396 . S
C149 C161 1.453 . S
C149 C162 1.684 . S
H150 C174 0.948 . S
C151 C147 1.397 . S
C151 C152 1.394 . S
C151 C170 1.723 . S
C152 C149 1.396 . S
C152 C151 1.394 . S
C152 C182 1.723 . S
H153 C176 0.947 . S
H154 C177 0.948 . S
H155 C183 0.982 . S
H156 C184 0.979 . S
H157 C184 0.980 . S
H158 C184 0.983 . S
H159 C183 0.979 . S
H160 C183 0.977 . S
C161 C149 1.453 . S
C161 H190 0.982 . S
C161 H191 0.979 . S
C161 H192 0.977 . S
C162 C149 1.684 . S
C162 H187 0.979 . S
C162 H188 0.980 . S
C162 H189 0.983 . S
C163 C164 1.391 . S
C163 C168 1.391 . S
C163 H193 0.948 . S
C164 C163 1.391 . S
C164 C165 1.391 . S
C165 C164 1.391 . S
C165 C166 1.392 . S
C165 H194 0.947 . S
C166 C165 1.392 . S
C166 C167 1.419 . S
C166 H195 0.948 . S
C167 C166 1.419 . S
C167 C168 1.391 . S
C167 C171 1.397 . S
C168 C163 1.391 . S
C168 C167 1.391 . S
C168 C169 1.399 . S
C169 C168 1.399 . S
C169 C170 1.396 . S
C169 C172 1.453 . S
C169 C173 1.684 . S
C170 C151 1.723 . S
C170 C169 1.396 . S
C170 C171 1.394 . S
C171 C167 1.397 . S
C171 C170 1.394 . S
C171 C181 1.723 . S
C172 C169 1.453 . S
C172 H196 0.982 . S
C172 H197 0.979 . S
C172 H198 0.977 . S
C173 C169 1.684 . S
C173 H199 0.979 . S
C173 H200 0.980 . S
C173 H201 0.983 . S
C174 H150 0.948 . S
C174 C175 1.391 . S
C174 C179 1.391 . S
C175 C174 1.391 . S
C175 C176 1.391 . S
C176 H153 0.947 . S
C176 C175 1.391 . S
C176 C177 1.392 . S
C177 H154 0.948 . S
C177 C176 1.392 . S
C177 C178 1.419 . S
C178 C177 1.419 . S
C178 C179 1.391 . S
C178 C182 1.397 . S
C179 C174 1.391 . S
C179 C178 1.391 . S
C179 C180 1.399 . S
C180 C179 1.399 . S
C180 C181 1.396 . S
C180 C183 1.453 . S
C180 C184 1.684 . S
C181 C171 1.723 . S
C181 C180 1.396 . S
C181 C182 1.394 . S
C182 C152 1.723 . S
C182 C178 1.397 . S
C182 C181 1.394 . S
C183 H155 0.982 . S
C183 H159 0.979 . S
C183 H160 0.977 . S
C183 C180 1.453 . S
C184 H156 0.979 . S
C184 H157 0.980 . S
C184 H158 0.983 . S
C184 C180 1.684 . S
H185 C203 0.948 . S
H186 C144 0.948 . S
H187 C162 0.979 . S
H188 C162 0.980 . S
H189 C162 0.983 . S
H190 C161 0.982 . S
H191 C161 0.979 . S
H192 C161 0.977 . S
H193 C163 0.948 . S
H194 C165 0.947 . S
H195 C166 0.948 . S
H196 C172 0.982 . S
H197 C172 0.979 . S
H198 C172 0.977 . S
H199 C173 0.979 . S
H200 C173 0.980 . S
H201 C173 0.983 . S
H202 C146 0.947 . S
C203 C146 1.392 . S
C203 C147 1.419 . S
C203 H185 0.948 . S
C204 C205 1.391 . S
C204 C208 1.391 . S
C204 H246 0.948 . S
C205 C204 1.391 . S
C205 C206 1.391 . S
C206 C205 1.391 . S
C206 H262 0.947 . S
C206 C263 1.392 . S
C207 C208 1.391 . S
C207 C211 1.397 . S
C207 C263 1.419 . S
C208 C204 1.391 . S
C208 C207 1.391 . S
C208 C209 1.399 . S
C209 C208 1.399 . S
C209 C212 1.396 . S
C209 C221 1.453 . S
C209 C222 1.684 . S
H210 C234 0.944 1_545 S
C211 C207 1.397 . S
C211 C212 1.394 . S
C211 C230 1.723 . S
C212 C209 1.396 . S
C212 C211 1.394 . S
C212 C242 1.723 . S
H213 C236 0.947 . S
H214 C237 0.948 . S
H215 C243 0.982 . S
H216 C244 0.979 . S
H217 C244 0.980 . S
H218 C244 0.983 . S
H219 C243 0.979 . S
H220 C243 0.977 . S
C221 C209 1.453 . S
C221 H250 0.982 . S
C221 H251 0.979 . S
C221 H252 0.977 . S
C222 C209 1.684 . S
C222 H247 0.979 . S
C222 H248 0.980 . S
C222 H249 0.983 . S
C223 C224 1.391 . S
C223 C228 1.391 . S
C223 H253 0.948 . S
C224 C223 1.391 . S
C224 C225 1.391 . S
C225 C224 1.391 . S
C225 C226 1.392 . S
C225 H254 0.947 . S
C226 C225 1.392 . S
C226 C227 1.419 . S
C226 H255 0.948 . S
C227 C226 1.419 . S
C227 C228 1.391 . S
C227 C231 1.397 . S
C228 C223 1.391 . S
C228 C227 1.391 . S
C228 C229 1.399 . S
C229 C228 1.399 . S
C229 C230 1.396 . S
C229 C232 1.453 . S
C229 C233 1.684 . S
C230 C211 1.723 . S
C230 C229 1.396 . S
C230 C231 1.394 . S
C231 C227 1.397 . S
C231 C230 1.394 . S
C231 C241 1.723 . S
C232 C229 1.453 . S
C232 H256 0.982 . S
C232 H257 0.979 . S
C232 H258 0.977 . S
C233 C229 1.684 . S
C233 H259 0.979 . S
C233 H260 0.980 . S
C233 H261 0.983 . S
C234 H210 0.944 1_565 S
C234 C235 1.391 1_565 S
C234 C239 1.391 . S
C235 C234 1.391 1_545 S
C235 C236 1.391 1_545 S
C236 H213 0.947 . S
C236 C235 1.391 1_565 S
C236 C237 1.392 . S
C237 H214 0.948 . S
C237 C236 1.392 . S
C237 C238 1.419 . S
C238 C237 1.419 . S
C238 C239 1.391 . S
C238 C242 1.397 . S
C239 C234 1.391 . S
C239 C238 1.391 . S
C239 C240 1.399 . S
C240 C239 1.399 . S
C240 C241 1.396 . S
C240 C243 1.453 . S
C240 C244 1.684 . S
C241 C231 1.723 . S
C241 C240 1.396 . S
C241 C242 1.394 . S
C242 C212 1.723 . S
C242 C238 1.397 . S
C242 C241 1.394 . S
C243 H215 0.982 . S
C243 H219 0.979 . S
C243 H220 0.977 . S
C243 C240 1.453 . S
C244 H216 0.979 . S
C244 H217 0.980 . S
C244 H218 0.983 . S
C244 C240 1.684 . S
H245 C263 0.948 . S
H246 C204 0.948 . S
H247 C222 0.979 . S
H248 C222 0.980 . S
H249 C222 0.983 . S
H250 C221 0.982 . S
H251 C221 0.979 . S
H252 C221 0.977 . S
H253 C223 0.948 . S
H254 C225 0.947 . S
H255 C226 0.948 . S
H256 C232 0.982 . S
H257 C232 0.979 . S
H258 C232 0.977 . S
H259 C233 0.979 . S
H260 C233 0.980 . S
H261 C233 0.983 . S
H262 C206 0.947 . S
C263 C206 1.392 . S
C263 C207 1.419 . S
C263 H245 0.948 . S
C264 C265 1.391 . S
C264 C268 1.391 . S
C264 H306 0.948 . S
C265 C264 1.391 . S
C265 C266 1.391 . S
C266 C265 1.391 . S
C266 H322 0.947 . S
C266 C323 1.392 . S
C267 C268 1.391 . S
C267 C271 1.397 . S
C267 C323 1.419 . S
C268 C264 1.391 . S
C268 C267 1.391 . S
C268 C269 1.399 . S
C269 C268 1.399 . S
C269 C272 1.396 . S
C269 C281 1.453 . S
C269 C282 1.684 . S
H270 C294 0.948 . S
C271 C267 1.397 . S
C271 C272 1.394 . S
C271 C290 1.723 . S
C272 C269 1.396 . S
C272 C271 1.394 . S
C272 C302 1.723 . S
H273 C296 0.947 . S
H274 C297 0.948 . S
H275 C303 0.982 . S
H276 C304 0.979 . S
H277 C304 0.980 . S
H278 C304 0.983 . S
H279 C303 0.979 . S
H280 C303 0.977 . S
C281 C269 1.453 . S
C281 H310 0.982 . S
C281 H311 0.979 . S
C281 H312 0.977 . S
C282 C269 1.684 . S
C282 H307 0.979 . S
C282 H308 0.980 . S
C282 H309 0.983 . S
C283 C284 1.391 . S
C283 C288 1.391 . S
C283 H313 0.948 . S
C284 C283 1.391 . S
C284 C285 1.391 . S
C285 C284 1.391 . S
C285 C286 1.392 . S
C285 H314 0.947 . S
C286 C285 1.392 . S
C286 C287 1.419 . S
C286 H315 0.948 . S
C287 C286 1.419 . S
C287 C288 1.391 . S
C287 C291 1.397 . S
C288 C283 1.391 . S
C288 C287 1.391 . S
C288 C289 1.399 . S
C289 C288 1.399 . S
C289 C290 1.396 . S
C289 C292 1.453 . S
C289 C293 1.684 . S
C290 C271 1.723 . S
C290 C289 1.396 . S
C290 C291 1.394 . S
C291 C287 1.397 . S
C291 C290 1.394 . S
C291 C301 1.723 . S
C292 C289 1.453 . S
C292 H316 0.982 . S
C292 H317 0.979 . S
C292 H318 0.977 . S
C293 C289 1.684 . S
C293 H319 0.979 . S
C293 H320 0.980 . S
C293 H321 0.983 . S
C294 H270 0.948 . S
C294 C295 1.391 . S
C294 C299 1.391 . S
C295 C294 1.391 . S
C295 C296 1.391 . S
C296 H273 0.947 . S
C296 C295 1.391 . S
C296 C297 1.392 . S
C297 H274 0.948 . S
C297 C296 1.392 . S
C297 C298 1.419 . S
C298 C297 1.419 . S
C298 C299 1.391 . S
C298 C302 1.397 . S
C299 C294 1.391 . S
C299 C298 1.391 . S
C299 C300 1.399 . S
C300 C299 1.399 . S
C300 C301 1.396 . S
C300 C303 1.453 . S
C300 C304 1.684 . S
C301 C291 1.723 . S
C301 C300 1.396 . S
C301 C302 1.394 . S
C302 C272 1.723 . S
C302 C298 1.397 . S
C302 C301 1.394 . S
C303 H275 0.982 . S
C303 H279 0.979 . S
C303 H280 0.977 . S
C303 C300 1.453 . S
C304 H276 0.979 . S
C304 H277 0.980 . S
C304 H278 0.983 . S
C304 C300 1.684 . S
H305 C323 0.948 . S
H306 C264 0.948 . S
H307 C282 0.979 . S
H308 C282 0.980 . S
H309 C282 0.983 . S
H310 C281 0.982 . S
H311 C281 0.979 . S
H312 C281 0.977 . S
H313 C283 0.948 . S
H314 C285 0.947 . S
H315 C286 0.948 . S
H316 C292 0.982 . S
H317 C292 0.979 . S
H318 C292 0.977 . S
H319 C293 0.979 . S
H320 C293 0.980 . S
H321 C293 0.983 . S
H322 C266 0.947 . S
C323 C266 1.392 . S
C323 C267 1.419 . S
C323 H305 0.948 . S
C324 C325 1.391 . S
C324 C328 1.391 . S
C324 H366 0.948 . S
C325 C324 1.391 . S
C325 C326 1.391 . S
C326 C325 1.391 . S
C326 H382 0.947 . S
C326 C383 1.392 . S
C327 C328 1.391 . S
C327 C331 1.397 . S
C327 C383 1.419 . S
C328 C324 1.391 . S
C328 C327 1.391 . S
C328 C329 1.399 . S
C329 C328 1.399 . S
C329 C332 1.396 . S
C329 C341 1.453 . S
C329 C342 1.684 . S
H330 C354 0.948 . S
C331 C327 1.397 . S
C331 C332 1.394 . S
C331 C350 1.723 . S
C332 C329 1.396 . S
C332 C331 1.394 . S
C332 C362 1.723 . S
H333 C356 0.947 . S
H334 C357 0.948 . S
H335 C363 0.982 . S
H336 C364 0.979 . S
H337 C364 0.980 . S
H338 C364 0.983 . S
H339 C363 0.979 . S
H340 C363 0.977 . S
C341 C329 1.453 . S
C341 H370 0.982 . S
C341 H371 0.979 . S
C341 H372 0.977 . S
C342 C329 1.684 . S
C342 H367 0.979 . S
C342 H368 0.980 . S
C342 H369 0.983 . S
C343 C344 1.391 . S
C343 C348 1.391 . S
C343 H373 0.948 . S
C344 C343 1.391 . S
C344 C345 1.391 . S
C345 C344 1.391 . S
C345 C346 1.392 . S
C345 H374 0.947 . S
C346 C345 1.392 . S
C346 C347 1.419 . S
C346 H375 0.948 . S
C347 C346 1.419 . S
C347 C348 1.391 . S
C347 C351 1.397 . S
C348 C343 1.391 . S
C348 C347 1.391 . S
C348 C349 1.399 . S
C349 C348 1.399 . S
C349 C350 1.396 . S
C349 C352 1.453 . S
C349 C353 1.684 . S
C350 C331 1.723 . S
C350 C349 1.396 . S
C350 C351 1.394 . S
C351 C347 1.397 . S
C351 C350 1.394 . S
C351 C361 1.723 . S
C352 C349 1.453 . S
C352 H376 0.982 . S
C352 H377 0.979 . S
C352 H378 0.977 . S
C353 C349 1.684 . S
C353 H379 0.979 . S
C353 H380 0.980 . S
C353 H381 0.983 . S
C354 H330 0.948 . S
C354 C355 1.391 . S
C354 C359 1.391 . S
C355 C354 1.391 . S
C355 C356 1.391 . S
C356 H333 0.947 . S
C356 C355 1.391 . S
C356 C357 1.392 . S
C357 H334 0.948 . S
C357 C356 1.392 . S
C357 C358 1.419 . S
C358 C357 1.419 . S
C358 C359 1.391 . S
C358 C362 1.397 . S
C359 C354 1.391 . S
C359 C358 1.391 . S
C359 C360 1.399 . S
C360 C359 1.399 . S
C360 C361 1.396 . S
C360 C363 1.453 . S
C360 C364 1.684 . S
C361 C351 1.723 . S
C361 C360 1.396 . S
C361 C362 1.394 . S
C362 C332 1.723 . S
C362 C358 1.397 . S
C362 C361 1.394 . S
C363 H335 0.982 . S
C363 H339 0.979 . S
C363 H340 0.977 . S
C363 C360 1.453 . S
C364 H336 0.979 . S
C364 H337 0.980 . S
C364 H338 0.983 . S
C364 C360 1.684 . S
H365 C383 0.948 . S
H366 C324 0.948 . S
H367 C342 0.979 . S
H368 C342 0.980 . S
H369 C342 0.983 . S
H370 C341 0.982 . S
H371 C341 0.979 . S
H372 C341 0.977 . S
H373 C343 0.948 . S
H374 C345 0.947 . S
H375 C346 0.948 . S
H376 C352 0.982 . S
H377 C352 0.979 . S
H378 C352 0.977 . S
H379 C353 0.979 . S
H380 C353 0.980 . S
H381 C353 0.983 . S
H382 C326 0.947 . S
C383 C326 1.392 . S
C383 C327 1.419 . S
C383 H365 0.948 . S
C384 C385 1.391 . S
C384 C388 1.391 . S
C384 H426 0.948 . S
C385 C384 1.391 . S
C385 C386 1.391 . S
C386 C385 1.391 . S
C386 H442 0.947 . S
C386 C443 1.392 . S
C387 C388 1.391 . S
C387 C391 1.397 . S
C387 C443 1.419 . S
C388 C384 1.391 . S
C388 C387 1.391 . S
C388 C389 1.399 . S
C389 C388 1.399 . S
C389 C392 1.396 . S
C389 C401 1.453 . S
C389 C402 1.684 . S
H390 C414 0.944 1_655 S
C391 C387 1.397 . S
C391 C392 1.394 . S
C391 C410 1.723 . S
C392 C389 1.396 . S
C392 C391 1.394 . S
C392 C422 1.723 . S
H393 C416 0.947 . S
H394 C417 0.948 . S
H395 C423 0.982 . S
H396 C424 0.979 . S
H397 C424 0.980 . S
H398 C424 0.983 . S
H399 C423 0.979 . S
H400 C423 0.977 . S
C401 C389 1.453 . S
C401 H430 0.982 . S
C401 H431 0.979 . S
C401 H432 0.977 . S
C402 C389 1.684 . S
C402 H427 0.979 . S
C402 H428 0.980 . S
C402 H429 0.983 . S
C403 C404 1.391 . S
C403 C408 1.391 . S
C403 H433 0.948 . S
C404 C403 1.391 . S
C404 C405 1.391 . S
C405 C404 1.391 . S
C405 C406 1.392 . S
C405 H434 0.947 . S
C406 C405 1.392 . S
C406 C407 1.419 . S
C406 H435 0.948 . S
C407 C406 1.419 . S
C407 C408 1.391 . S
C407 C411 1.397 . S
C408 C403 1.391 . S
C408 C407 1.391 . S
C408 C409 1.399 . S
C409 C408 1.399 . S
C409 C410 1.396 . S
C409 C412 1.453 . S
C409 C413 1.684 . S
C410 C391 1.723 . S
C410 C409 1.396 . S
C410 C411 1.394 . S
C411 C407 1.397 . S
C411 C410 1.394 . S
C411 C421 1.723 . S
C412 C409 1.453 . S
C412 H436 0.982 . S
C412 H437 0.979 . S
C412 H438 0.977 . S
C413 C409 1.684 . S
C413 H439 0.979 . S
C413 H440 0.980 . S
C413 H441 0.983 . S
C414 H390 0.944 1_455 S
C414 C415 1.391 1_455 S
C414 C419 1.391 . S
C415 C414 1.391 1_655 S
C415 C416 1.391 1_655 S
C416 H393 0.947 . S
C416 C415 1.391 1_455 S
C416 C417 1.392 . S
C417 H394 0.948 . S
C417 C416 1.392 . S
C417 C418 1.419 . S
C418 C417 1.419 . S
C418 C419 1.391 . S
C418 C422 1.397 . S
C419 C414 1.391 . S
C419 C418 1.391 . S
C419 C420 1.399 . S
C420 C419 1.399 . S
C420 C421 1.396 . S
C420 C423 1.453 . S
C420 C424 1.684 . S
C421 C411 1.723 . S
C421 C420 1.396 . S
C421 C422 1.394 . S
C422 C392 1.723 . S
C422 C418 1.397 . S
C422 C421 1.394 . S
C423 H395 0.982 . S
C423 H399 0.979 . S
C423 H400 0.977 . S
C423 C420 1.453 . S
C424 H396 0.979 . S
C424 H397 0.980 . S
C424 H398 0.983 . S
C424 C420 1.684 . S
H425 C443 0.948 . S
H426 C384 0.948 . S
H427 C402 0.979 . S
H428 C402 0.980 . S
H429 C402 0.983 . S
H430 C401 0.982 . S
H431 C401 0.979 . S
H432 C401 0.977 . S
H433 C403 0.948 . S
H434 C405 0.947 . S
H435 C406 0.948 . S
H436 C412 0.982 . S
H437 C412 0.979 . S
H438 C412 0.977 . S
H439 C413 0.979 . S
H440 C413 0.980 . S
H441 C413 0.983 . S
H442 C386 0.947 . S
C443 C386 1.392 . S
C443 C387 1.419 . S
C443 H425 0.948 . S
C444 C445 1.391 . S
C444 C448 1.391 . S
C444 H486 0.948 . S
C445 C444 1.391 . S
C445 C446 1.391 . S
C446 C445 1.391 . S
C446 H502 0.947 . S
C446 C503 1.392 . S
C447 C448 1.391 . S
C447 C451 1.397 . S
C447 C503 1.419 . S
C448 C444 1.391 . S
C448 C447 1.391 . S
C448 C449 1.399 . S
C449 C448 1.399 . S
C449 C452 1.396 . S
C449 C461 1.453 . S
C449 C462 1.684 . S
H450 C474 0.948 . S
C451 C447 1.397 . S
C451 C452 1.394 . S
C451 C470 1.723 . S
C452 C449 1.396 . S
C452 C451 1.394 . S
C452 C482 1.723 . S
H453 C476 0.947 . S
H454 C477 0.948 . S
H455 C483 0.982 . S
H456 C484 0.979 . S
H457 C484 0.980 . S
H458 C484 0.983 . S
H459 C483 0.979 . S
H460 C483 0.977 . S
C461 C449 1.453 . S
C461 H490 0.982 . S
C461 H491 0.979 . S
C461 H492 0.977 . S
C462 C449 1.684 . S
C462 H487 0.979 . S
C462 H488 0.980 . S
C462 H489 0.983 . S
C463 C464 1.391 . S
C463 C468 1.391 . S
C463 H493 0.948 . S
C464 C463 1.391 . S
C464 C465 1.391 . S
C465 C464 1.391 . S
C465 C466 1.392 . S
C465 H494 0.947 . S
C466 C465 1.392 . S
C466 C467 1.419 . S
C466 H495 0.948 . S
C467 C466 1.419 . S
C467 C468 1.391 . S
C467 C471 1.397 . S
C468 C463 1.391 . S
C468 C467 1.391 . S
C468 C469 1.399 . S
C469 C468 1.399 . S
C469 C470 1.396 . S
C469 C472 1.453 . S
C469 C473 1.684 . S
C470 C451 1.723 . S
C470 C469 1.396 . S
C470 C471 1.394 . S
C471 C467 1.397 . S
C471 C470 1.394 . S
C471 C481 1.723 . S
C472 C469 1.453 . S
C472 H496 0.982 . S
C472 H497 0.979 . S
C472 H498 0.977 . S
C473 C469 1.684 . S
C473 H499 0.979 . S
C473 H500 0.980 . S
C473 H501 0.983 . S
C474 H450 0.948 . S
C474 C475 1.391 . S
C474 C479 1.391 . S
C475 C474 1.391 . S
C475 C476 1.391 . S
C476 H453 0.947 . S
C476 C475 1.391 . S
C476 C477 1.392 . S
C477 H454 0.948 . S
C477 C476 1.392 . S
C477 C478 1.419 . S
C478 C477 1.419 . S
C478 C479 1.391 . S
C478 C482 1.397 . S
C479 C474 1.391 . S
C479 C478 1.391 . S
C479 C480 1.399 . S
C480 C479 1.399 . S
C480 C481 1.396 . S
C480 C483 1.453 . S
C480 C484 1.684 . S
C481 C471 1.723 . S
C481 C480 1.396 . S
C481 C482 1.394 . S
C482 C452 1.723 . S
C482 C478 1.397 . S
C482 C481 1.394 . S
C483 H455 0.982 . S
C483 H459 0.979 . S
C483 H460 0.977 . S
C483 C480 1.453 . S
C484 H456 0.979 . S
C484 H457 0.980 . S
C484 H458 0.983 . S
C484 C480 1.684 . S
H485 C503 0.948 . S
H486 C444 0.948 . S
H487 C462 0.979 . S
H488 C462 0.980 . S
H489 C462 0.983 . S
H490 C461 0.982 . S
H491 C461 0.979 . S
H492 C461 0.977 . S
H493 C463 0.948 . S
H494 C465 0.947 . S
H495 C466 0.948 . S
H496 C472 0.982 . S
H497 C472 0.979 . S
H498 C472 0.977 . S
H499 C473 0.979 . S
H500 C473 0.980 . S
H501 C473 0.983 . S
H502 C446 0.947 . S
C503 C446 1.392 . S
C503 C447 1.419 . S
C503 H485 0.948 . S
C504 C505 1.391 . S
C504 C508 1.391 . S
C504 H546 0.948 . S
C505 C504 1.391 . S
C505 C506 1.391 . S
C506 C505 1.391 . S
C506 H562 0.947 . S
C506 C563 1.392 . S
C507 C508 1.391 . S
C507 C511 1.397 . S
C507 C563 1.419 . S
C508 C504 1.391 . S
C508 C507 1.391 . S
C508 C509 1.399 . S
C509 C508 1.399 . S
C509 C512 1.396 . S
C509 C521 1.453 . S
C509 C522 1.684 . S
H510 C534 0.948 . S
C511 C507 1.397 . S
C511 C512 1.394 . S
C511 C530 1.723 . S
C512 C509 1.396 . S
C512 C511 1.394 . S
C512 C542 1.723 . S
H513 C536 0.947 . S
H514 C537 0.948 . S
H515 C543 0.982 . S
H516 C544 0.979 . S
H517 C544 0.980 . S
H518 C544 0.983 . S
H519 C543 0.979 . S
H520 C543 0.977 . S
C521 C509 1.453 . S
C521 H550 0.982 . S
C521 H551 0.979 . S
C521 H552 0.977 . S
C522 C509 1.684 . S
C522 H547 0.979 . S
C522 H548 0.980 . S
C522 H549 0.983 . S
C523 C524 1.391 1_655 S
C523 C528 1.391 . S
C523 H553 0.944 1_655 S
C524 C523 1.391 1_455 S
C524 C525 1.391 1_455 S
C525 C524 1.391 1_655 S
C525 C526 1.392 . S
C525 H554 0.947 . S
C526 C525 1.392 . S
C526 C527 1.419 . S
C526 H555 0.948 . S
C527 C526 1.419 . S
C527 C528 1.391 . S
C527 C531 1.397 . S
C528 C523 1.391 . S
C528 C527 1.391 . S
C528 C529 1.399 . S
C529 C528 1.399 . S
C529 C530 1.396 . S
C529 C532 1.453 . S
C529 C533 1.684 . S
C530 C511 1.723 . S
C530 C529 1.396 . S
C530 C531 1.394 . S
C531 C527 1.397 . S
C531 C530 1.394 . S
C531 C541 1.723 . S
C532 C529 1.453 . S
C532 H556 0.982 . S
C532 H557 0.979 . S
C532 H558 0.977 . S
C533 C529 1.684 . S
C533 H559 0.979 . S
C533 H560 0.980 . S
C533 H561 0.983 . S
C534 H510 0.948 . S
C534 C535 1.391 . S
C534 C539 1.391 . S
C535 C534 1.391 . S
C535 C536 1.391 . S
C536 H513 0.947 . S
C536 C535 1.391 . S
C536 C537 1.392 . S
C537 H514 0.948 . S
C537 C536 1.392 . S
C537 C538 1.419 . S
C538 C537 1.419 . S
C538 C539 1.391 . S
C538 C542 1.397 . S
C539 C534 1.391 . S
C539 C538 1.391 . S
C539 C540 1.399 . S
C540 C539 1.399 . S
C540 C541 1.396 . S
C540 C543 1.453 . S
C540 C544 1.684 . S
C541 C531 1.723 . S
C541 C540 1.396 . S
C541 C542 1.394 . S
C542 C512 1.723 . S
C542 C538 1.397 . S
C542 C541 1.394 . S
C543 H515 0.982 . S
C543 H519 0.979 . S
C543 H520 0.977 . S
C543 C540 1.453 . S
C544 H516 0.979 . S
C544 H517 0.980 . S
C544 H518 0.983 . S
C544 C540 1.684 . S
H545 C563 0.948 . S
H546 C504 0.948 . S
H547 C522 0.979 . S
H548 C522 0.980 . S
H549 C522 0.983 . S
H550 C521 0.982 . S
H551 C521 0.979 . S
H552 C521 0.977 . S
H553 C523 0.944 1_455 S
H554 C525 0.947 . S
H555 C526 0.948 . S
H556 C532 0.982 . S
H557 C532 0.979 . S
H558 C532 0.977 . S
H559 C533 0.979 . S
H560 C533 0.980 . S
H561 C533 0.983 . S
H562 C506 0.947 . S
C563 C506 1.392 . S
C563 C507 1.419 . S
C563 H545 0.948 . S
C564 C565 1.363 . S
C564 C570 1.379 . S
C564 N572 1.356 . S
C565 C564 1.363 . S
C565 C571 1.363 . S
C566 C567 1.363 . S
C566 C571 1.379 . S
C566 N573 1.356 . S
C567 C566 1.363 . S
C567 C570 1.363 . S
N568 C570 1.356 . S
N568 H580 0.984 . S
N568 H581 0.985 . S
N569 C571 1.356 . S
N569 H574 0.984 . S
N569 H575 0.985 . S
C570 C564 1.379 . S
C570 C567 1.363 . S
C570 N568 1.356 . S
C571 C565 1.363 . S
C571 C566 1.379 . S
C571 N569 1.356 . S
N572 C564 1.356 . S
N572 H578 0.984 . S
N572 H579 0.984 . S
N573 C566 1.356 . S
N573 H576 0.984 . S
N573 H577 0.985 . S
H574 N569 0.984 . S
H575 N569 0.985 . S
H576 N573 0.984 . S
H577 N573 0.985 . S
H578 N572 0.984 . S
H579 N572 0.984 . S
H580 N568 0.984 . S
H581 N568 0.985 . S
C582 C583 1.363 . S
C582 C588 1.379 . S
C582 N590 1.356 . S
C583 C582 1.363 . S
C583 C589 1.363 . S
C584 C585 1.363 . S
C584 C589 1.379 . S
C584 N591 1.356 . S
C585 C584 1.363 . S
C585 C588 1.363 . S
N586 C588 1.356 . S
N586 H598 0.984 . S
N586 H599 0.985 . S
N587 C589 1.356 . S
N587 H592 0.984 . S
N587 H593 0.985 . S
C588 C582 1.379 . S
C588 C585 1.363 . S
C588 N586 1.356 . S
C589 C583 1.363 . S
C589 C584 1.379 . S
C589 N587 1.356 . S
N590 C582 1.356 . S
N590 H596 0.984 . S
N590 H597 0.984 . S
N591 C584 1.356 . S
N591 H594 0.984 . S
N591 H595 0.985 . S
H592 N587 0.984 . S
H593 N587 0.985 . S
H594 N591 0.984 . S
H595 N591 0.985 . S
H596 N590 0.984 . S
H597 N590 0.984 . S
H598 N586 0.984 . S
H599 N586 0.985 . S
C600 C601 1.363 . S
C600 C606 1.379 . S
C600 N608 1.356 . S
C601 C600 1.363 . S
C601 C607 1.363 . S
C602 C603 1.363 . S
C602 C607 1.379 . S
C602 N609 1.356 . S
C603 C602 1.363 . S
C603 C606 1.363 . S
N604 C606 1.356 . S
N604 H616 0.984 . S
N604 H617 0.985 . S
N605 C607 1.356 . S
N605 H610 0.984 . S
N605 H611 0.985 . S
C606 C600 1.379 . S
C606 C603 1.363 . S
C606 N604 1.356 . S
C607 C601 1.363 . S
C607 C602 1.379 . S
C607 N605 1.356 . S
N608 C600 1.356 . S
N608 H614 0.984 . S
N608 H615 0.984 . S
N609 C602 1.356 . S
N609 H612 0.984 . S
N609 H613 0.985 . S
H610 N605 0.984 . S
H611 N605 0.985 . S
H612 N609 0.984 . S
H613 N609 0.985 . S
H614 N608 0.984 . S
H615 N608 0.984 . S
H616 N604 0.984 . S
H617 N604 0.985 . S
C618 C619 1.363 . S
C618 C624 1.379 . S
C618 N626 1.356 . S
C619 C618 1.363 . S
C619 C625 1.363 . S
C620 C621 1.363 . S
C620 C625 1.379 . S
C620 N627 1.356 . S
C621 C620 1.363 . S
C621 C624 1.363 . S
N622 C624 1.356 . S
N622 H634 0.984 . S
N622 H635 0.985 . S
N623 C625 1.356 . S
N623 H628 0.984 . S
N623 H629 0.985 . S
C624 C618 1.379 . S
C624 C621 1.363 . S
C624 N622 1.356 . S
C625 C619 1.363 . S
C625 C620 1.379 . S
C625 N623 1.356 . S
N626 C618 1.356 . S
N626 H632 0.984 . S
N626 H633 0.984 . S
N627 C620 1.356 . S
N627 H630 0.984 . S
N627 H631 0.985 . S
H628 N623 0.984 . S
H629 N623 0.985 . S
H630 N627 0.984 . S
H631 N627 0.985 . S
H632 N626 0.984 . S
H633 N626 0.984 . S
H634 N622 0.984 . S
H635 N622 0.985 . S
C636 C637 1.363 . S
C636 C642 1.379 . S
C636 N644 1.356 . S
C637 C636 1.363 . S
C637 C643 1.363 . S
C638 C639 1.363 . S
C638 C643 1.379 . S
C638 N645 1.356 . S
C639 C638 1.363 . S
C639 C642 1.363 . S
N640 C642 1.356 . S
N640 H652 0.984 . S
N640 H653 0.985 . S
N641 C643 1.356 . S
N641 H646 0.984 . S
N641 H647 0.985 . S
C642 C636 1.379 . S
C642 C639 1.363 . S
C642 N640 1.356 . S
C643 C637 1.363 . S
C643 C638 1.379 . S
C643 N641 1.356 . S
N644 C636 1.356 . S
N644 H650 0.984 . S
N644 H651 0.984 . S
N645 C638 1.356 . S
N645 H648 0.984 . S
N645 H649 0.985 . S
H646 N641 0.984 . S
H647 N641 0.985 . S
H648 N645 0.984 . S
H649 N645 0.985 . S
H650 N644 0.984 . S
H651 N644 0.984 . S
H652 N640 0.984 . S
H653 N640 0.985 . S
C654 C655 1.363 . S
C654 C660 1.379 . S
C654 N662 1.356 . S
C655 C654 1.363 . S
C655 C661 1.363 . S
C656 C657 1.363 . S
C656 C661 1.379 . S
C656 N663 1.356 . S
C657 C656 1.363 . S
C657 C660 1.363 . S
N658 C660 1.356 . S
N658 H670 0.984 . S
N658 H671 0.985 . S
N659 C661 1.356 . S
N659 H664 0.984 . S
N659 H665 0.985 . S
C660 C654 1.379 . S
C660 C657 1.363 . S
C660 N658 1.356 . S
C661 C655 1.363 . S
C661 C656 1.379 . S
C661 N659 1.356 . S
N662 C654 1.356 . S
N662 H668 0.984 . S
N662 H669 0.984 . S
N663 C656 1.356 . S
N663 H666 0.984 . S
N663 H667 0.985 . S
H664 N659 0.984 . S
H665 N659 0.985 . S
H666 N663 0.984 . S
H667 N663 0.985 . S
H668 N662 0.984 . S
H669 N662 0.984 . S
H670 N658 0.984 . S
H671 N658 0.985 . S
C672 C673 1.363 . S
C672 C678 1.379 . S
C672 N680 1.356 . S
C673 C672 1.363 . S
C673 C679 1.363 . S
C674 C675 1.363 . S
C674 C679 1.379 . S
C674 N681 1.356 . S
C675 C674 1.363 . S
C675 C678 1.363 . S
N676 C678 1.356 . S
N676 H688 0.984 . S
N676 H689 0.985 . S
N677 C679 1.356 . S
N677 H682 0.984 . S
N677 H683 0.985 . S
C678 C672 1.379 . S
C678 C675 1.363 . S
C678 N676 1.356 . S
C679 C673 1.363 . S
C679 C674 1.379 . S
C679 N677 1.356 . S
N680 C672 1.356 . S
N680 H686 0.984 . S
N680 H687 0.984 . S
N681 C674 1.356 . S
N681 H684 0.984 . S
N681 H685 0.985 . S
H682 N677 0.984 . S
H683 N677 0.985 . S
H684 N681 0.984 . S
H685 N681 0.985 . S
H686 N680 0.984 . S
H687 N680 0.984 . S
H688 N676 0.984 . S
H689 N676 0.985 . S
C690 C691 1.363 . S
C690 C696 1.379 . S
C690 N698 1.356 . S
C691 C690 1.363 . S
C691 C697 1.363 . S
C692 C693 1.363 . S
C692 C697 1.379 . S
C692 N699 1.356 . S
C693 C692 1.363 . S
C693 C696 1.363 . S
N694 C696 1.356 . S
N694 H706 0.984 . S
N694 H707 0.985 1_455 S
N695 C697 1.356 . S
N695 H700 0.984 . S
N695 H701 0.985 . S
C696 C690 1.379 . S
C696 C693 1.363 . S
C696 N694 1.356 . S
C697 C691 1.363 . S
C697 C692 1.379 . S
C697 N695 1.356 . S
N698 C690 1.356 . S
N698 H704 0.984 . S
N698 H705 0.984 . S
N699 C692 1.356 . S
N699 H702 0.984 . S
N699 H703 0.985 . S
H700 N695 0.984 . S
H701 N695 0.985 . S
H702 N699 0.984 . S
H703 N699 0.985 . S
H704 N698 0.984 . S
H705 N698 0.984 . S
H706 N694 0.984 . S
H707 N694 0.985 1_655 S
C708 C709 1.363 . S
C708 C714 1.379 . S
C708 N716 1.356 . S
C709 C708 1.363 . S
C709 C715 1.363 . S
C710 C711 1.363 . S
C710 C715 1.379 1_565 S
C710 N717 1.356 . S
C711 C710 1.363 . S
C711 C714 1.363 1_565 S
N712 C714 1.356 . S
N712 H724 0.984 . S
N712 H725 0.985 1_545 S
N713 C715 1.356 . S
N713 H718 0.984 . S
N713 H719 0.985 . S
C714 C708 1.379 . S
C714 C711 1.363 1_545 S
C714 N712 1.356 . S
C715 C709 1.363 . S
C715 C710 1.379 1_545 S
C715 N713 1.356 . S
N716 C708 1.356 . S
N716 H722 0.984 . S
N716 H723 0.984 . S
N717 C710 1.356 . S
N717 H720 0.984 . S
N717 H721 0.985 . S
H718 N713 0.984 . S
H719 N713 0.985 . S
H720 N717 0.984 . S
H721 N717 0.985 . S
H722 N716 0.984 . S
H723 N716 0.984 . S
H724 N712 0.984 . S
H725 N712 0.985 1_565 S
C726 C727 1.363 . S
C726 C732 1.379 . S
C726 N734 1.356 . S
C727 C726 1.363 . S
C727 C733 1.363 . S
C728 C729 1.363 . S
C728 C733 1.379 . S
C728 N735 1.356 . S
C729 C728 1.363 . S
C729 C732 1.363 . S
N730 C732 1.356 . S
N730 H742 0.984 . S
N730 H743 0.985 . S
N731 C733 1.356 . S
N731 H736 0.984 . S
N731 H737 0.985 . S
C732 C726 1.379 . S
C732 C729 1.363 . S
C732 N730 1.356 . S
C733 C727 1.363 . S
C733 C728 1.379 . S
C733 N731 1.356 . S
N734 C726 1.356 . S
N734 H740 0.984 . S
N734 H741 0.984 . S
N735 C728 1.356 . S
N735 H738 0.984 . S
N735 H739 0.985 . S
H736 N731 0.984 . S
H737 N731 0.985 . S
H738 N735 0.984 . S
H739 N735 0.985 . S
H740 N734 0.984 . S
H741 N734 0.984 . S
H742 N730 0.984 . S
H743 N730 0.985 . S
C744 C745 1.363 . S
C744 C750 1.379 1_565 S
C744 N752 1.356 . S
C745 C744 1.363 . S
C745 C751 1.363 . S
C746 C747 1.363 1_565 S
C746 C751 1.379 . S
C746 N753 1.356 . S
C747 C746 1.363 1_545 S
C747 C750 1.363 . S
N748 C750 1.356 . S
N748 H760 0.984 . S
N748 H761 0.985 . S
N749 C751 1.356 . S
N749 H754 0.984 . S
N749 H755 0.985 . S
C750 C744 1.379 1_545 S
C750 C747 1.363 . S
C750 N748 1.356 . S
C751 C745 1.363 . S
C751 C746 1.379 . S
C751 N749 1.356 . S
N752 C744 1.356 . S
N752 H758 0.984 . S
N752 H759 0.984 . S
N753 C746 1.356 . S
N753 H756 0.984 1_565 S
N753 H757 0.985 . S
H754 N749 0.984 . S
H755 N749 0.985 . S
H756 N753 0.984 1_545 S
H757 N753 0.985 . S
H758 N752 0.984 . S
H759 N752 0.984 . S
H760 N748 0.984 . S
H761 N748 0.985 . S
C762 C763 1.363 . S
C762 C768 1.379 . S
C762 N770 1.356 . S
C763 C762 1.363 . S
C763 C769 1.363 . S
C764 C765 1.363 . S
C764 C769 1.379 . S
C764 N771 1.356 . S
C765 C764 1.363 . S
C765 C768 1.363 . S
N766 C768 1.356 . S
N766 H778 0.984 . S
N766 H779 0.985 . S
N767 C769 1.356 . S
N767 H772 0.984 . S
N767 H773 0.985 . S
C768 C762 1.379 . S
C768 C765 1.363 . S
C768 N766 1.356 . S
C769 C763 1.363 . S
C769 C764 1.379 . S
C769 N767 1.356 . S
N770 C762 1.356 . S
N770 H776 0.984 . S
N770 H777 0.984 . S
N771 C764 1.356 . S
N771 H774 0.984 . S
N771 H775 0.985 . S
H772 N767 0.984 . S
H773 N767 0.985 . S
H774 N771 0.984 . S
H775 N771 0.985 . S
H776 N770 0.984 . S
H777 N770 0.984 . S
H778 N766 0.984 . S
H779 N766 0.985 . S
C780 C781 1.363 . S
C780 C786 1.379 . S
C780 N788 1.356 . S
C781 C780 1.363 . S
C781 C787 1.363 . S
C782 C783 1.363 . S
C782 C787 1.379 . S
C782 N789 1.356 . S
C783 C782 1.363 . S
C783 C786 1.363 . S
N784 C786 1.356 . S
N784 H796 0.984 . S
N784 H797 0.985 . S
N785 C787 1.356 . S
N785 H790 0.984 . S
N785 H791 0.985 . S
C786 C780 1.379 . S
C786 C783 1.363 . S
C786 N784 1.356 . S
C787 C781 1.363 . S
C787 C782 1.379 . S
C787 N785 1.356 . S
N788 C780 1.356 . S
N788 H794 0.984 . S
N788 H795 0.984 . S
N789 C782 1.356 . S
N789 H792 0.984 . S
N789 H793 0.985 . S
H790 N785 0.984 . S
H791 N785 0.985 . S
H792 N789 0.984 . S
H793 N789 0.985 . S
H794 N788 0.984 . S
H795 N788 0.984 . S
H796 N784 0.984 . S
H797 N784 0.985 . S
C798 C799 1.363 . S
C798 C804 1.379 . S
C798 N806 1.356 . S
C799 C798 1.363 . S
C799 C805 1.363 . S
C800 C801 1.363 . S
C800 C805 1.379 1_655 S
C800 N807 1.356 . S
C801 C800 1.363 . S
C801 C804 1.363 1_655 S
N802 C804 1.356 1_655 S
N802 H814 0.984 1_655 S
N802 H815 0.985 . S
N803 C805 1.356 . S
N803 H808 0.984 . S
N803 H809 0.985 1_554 S
C804 C798 1.379 . S
C804 C801 1.363 1_455 S
C804 N802 1.356 1_455 S
C805 C799 1.363 . S
C805 C800 1.379 1_455 S
C805 N803 1.356 . S
N806 C798 1.356 . S
N806 H812 0.984 . S
N806 H813 0.984 . S
N807 C800 1.356 . S
N807 H810 0.984 . S
N807 H811 0.985 . S
H808 N803 0.984 . S
H809 N803 0.985 1_556 S
H810 N807 0.984 . S
H811 N807 0.985 . S
H812 N806 0.984 . S
H813 N806 0.984 . S
H814 N802 0.984 1_455 S
H815 N802 0.985 . S
C816 C817 1.363 . S
C816 C822 1.379 . S
C816 N824 1.356 . S
C817 C816 1.363 . S
C817 C823 1.363 . S
C818 C819 1.363 . S
C818 C823 1.379 . S
C818 N825 1.356 . S
C819 C818 1.363 . S
C819 C822 1.363 . S
N820 C822 1.356 . S
N820 H832 0.984 . S
N820 H833 0.985 . S
N821 C823 1.356 . S
N821 H826 0.984 . S
N821 H827 0.985 . S
C822 C816 1.379 . S
C822 C819 1.363 . S
C822 N820 1.356 . S
C823 C817 1.363 . S
C823 C818 1.379 . S
C823 N821 1.356 . S
N824 C816 1.356 . S
N824 H830 0.984 . S
N824 H831 0.984 . S
N825 C818 1.356 . S
N825 H828 0.984 . S
N825 H829 0.985 . S
H826 N821 0.984 . S
H827 N821 0.985 . S
H828 N825 0.984 . S
H829 N825 0.985 . S
H830 N824 0.984 . S
H831 N824 0.984 . S
H832 N820 0.984 . S
H833 N820 0.985 . S
C834 C835 1.363 . S
C834 C840 1.379 . S
C834 N842 1.356 . S
C835 C834 1.363 . S
C835 C841 1.363 . S
C836 C837 1.363 1_655 S
C836 C841 1.379 . S
C836 N843 1.356 1_655 S
C837 C836 1.363 1_455 S
C837 C840 1.363 1_455 S
N838 C840 1.356 1_455 S
N838 H850 0.984 . S
N838 H851 0.985 . S
N839 C841 1.356 . S
N839 H844 0.984 . S
N839 H845 0.985 . S
C840 C834 1.379 . S
C840 C837 1.363 1_655 S
C840 N838 1.356 1_655 S
C841 C835 1.363 . S
C841 C836 1.379 . S
C841 N839 1.356 . S
N842 C834 1.356 . S
N842 H848 0.984 . S
N842 H849 0.984 . S
N843 C836 1.356 1_455 S
N843 H846 0.984 . S
N843 H847 0.985 . S
H844 N839 0.984 . S
H845 N839 0.985 . S
H846 N843 0.984 . S
H847 N843 0.985 . S
H848 N842 0.984 . S
H849 N842 0.984 . S
H850 N838 0.984 . S
H851 N838 0.985 . S
C852 C853 1.363 . S
C852 C858 1.379 . S
C852 N860 1.356 . S
C853 C852 1.363 . S
C853 C859 1.363 . S
C854 C855 1.363 . S
C854 C859 1.379 . S
C854 N861 1.356 . S
C855 C854 1.363 . S
C855 C858 1.363 . S
N856 C858 1.356 . S
N856 H868 0.984 . S
N856 H869 0.985 . S
N857 C859 1.356 . S
N857 H862 0.984 . S
N857 H863 0.985 . S
C858 C852 1.379 . S
C858 C855 1.363 . S
C858 N856 1.356 . S
C859 C853 1.363 . S
C859 C854 1.379 . S
C859 N857 1.356 . S
N860 C852 1.356 . S
N860 H866 0.984 . S
N860 H867 0.984 . S
N861 C854 1.356 . S
N861 H864 0.984 . S
N861 H865 0.985 . S
H862 N857 0.984 . S
H863 N857 0.985 . S
H864 N861 0.984 . S
H865 N861 0.985 . S
H866 N860 0.984 . S
H867 N860 0.984 . S
H868 N856 0.984 . S
H869 N856 0.985 . S
C870 C871 1.363 . S
C870 C876 1.379 . S
C870 N878 1.356 . S
C871 C870 1.363 . S
C871 C877 1.363 . S
C872 C873 1.363 . S
C872 C877 1.379 . S
C872 N879 1.356 . S
C873 C872 1.363 . S
C873 C876 1.363 . S
N874 C876 1.356 . S
N874 H886 0.984 . S
N874 H887 0.985 . S
N875 C877 1.356 . S
N875 H880 0.984 . S
N875 H881 0.985 . S
C876 C870 1.379 . S
C876 C873 1.363 . S
C876 N874 1.356 . S
C877 C871 1.363 . S
C877 C872 1.379 . S
C877 N875 1.356 . S
N878 C870 1.356 . S
N878 H884 0.984 . S
N878 H885 0.984 . S
N879 C872 1.356 . S
N879 H882 0.984 . S
N879 H883 0.985 . S
H880 N875 0.984 . S
H881 N875 0.985 . S
H882 N879 0.984 . S
H883 N879 0.985 . S
H884 N878 0.984 . S
H885 N878 0.984 . S
H886 N874 0.984 . S
H887 N874 0.985 . S
C888 C889 1.363 . S
C888 C894 1.379 . S
C888 N896 1.356 . S
C889 C888 1.363 . S
C889 C895 1.363 . S
C890 C891 1.363 . S
C890 C895 1.379 . S
C890 N897 1.356 . S
C891 C890 1.363 . S
C891 C894 1.363 . S
N892 C894 1.356 . S
N892 H904 0.984 . S
N892 H905 0.985 . S
N893 C895 1.356 . S
N893 H898 0.984 . S
N893 H899 0.985 . S
C894 C888 1.379 . S
C894 C891 1.363 . S
C894 N892 1.356 . S
C895 C889 1.363 . S
C895 C890 1.379 . S
C895 N893 1.356 . S
N896 C888 1.356 . S
N896 H902 0.984 . S
N896 H903 0.984 . S
N897 C890 1.356 . S
N897 H900 0.984 . S
N897 H901 0.985 . S
H898 N893 0.984 . S
H899 N893 0.985 . S
H900 N897 0.984 . S
H901 N897 0.985 . S
H902 N896 0.984 . S
H903 N896 0.984 . S
H904 N892 0.984 . S
H905 N892 0.985 . S
C906 C907 1.363 . S
C906 C912 1.379 . S
C906 N914 1.356 . S
C907 C906 1.363 . S
C907 C913 1.363 . S
C908 C909 1.363 . S
C908 C913 1.379 . S
C908 N915 1.356 . S
C909 C908 1.363 . S
C909 C912 1.363 . S
N910 C912 1.356 . S
N910 H922 0.984 . S
N910 H923 0.985 . S
N911 C913 1.356 . S
N911 H916 0.984 . S
N911 H917 0.985 . S
C912 C906 1.379 . S
C912 C909 1.363 . S
C912 N910 1.356 . S
C913 C907 1.363 . S
C913 C908 1.379 . S
C913 N911 1.356 . S
N914 C906 1.356 . S
N914 H920 0.984 . S
N914 H921 0.984 . S
N915 C908 1.356 . S
N915 H918 0.984 . S
N915 H919 0.985 . S
H916 N911 0.984 . S
H917 N911 0.985 . S
H918 N915 0.984 . S
H919 N915 0.985 . S
H920 N914 0.984 . S
H921 N914 0.984 . S
H922 N910 0.984 . S
H923 N910 0.985 . S
C924 C925 1.363 . S
C924 C930 1.379 . S
C924 N932 1.356 . S
C925 C924 1.363 . S
C925 C931 1.363 . S
C926 C927 1.363 . S
C926 C931 1.379 . S
C926 N933 1.356 . S
C927 C926 1.363 . S
C927 C930 1.363 . S
N928 C930 1.356 . S
N928 H940 0.984 . S
N928 H941 0.985 . S
N929 C931 1.356 . S
N929 H934 0.984 . S
N929 H935 0.985 . S
C930 C924 1.379 . S
C930 C927 1.363 . S
C930 N928 1.356 . S
C931 C925 1.363 . S
C931 C926 1.379 . S
C931 N929 1.356 . S
N932 C924 1.356 . S
N932 H938 0.984 . S
N932 H939 0.984 . S
N933 C926 1.356 . S
N933 H936 0.984 . S
N933 H937 0.985 . S
H934 N929 0.984 . S
H935 N929 0.985 . S
H936 N933 0.984 . S
H937 N933 0.985 . S
H938 N932 0.984 . S
H939 N932 0.984 . S
H940 N928 0.984 . S
H941 N928 0.985 . S
C942 C943 1.363 . S
C942 C948 1.379 . S
C942 N950 1.356 . S
C943 C942 1.363 . S
C943 C949 1.363 . S
C944 C945 1.363 . S
C944 C949 1.379 . S
C944 N951 1.356 . S
C945 C944 1.363 . S
C945 C948 1.363 . S
N946 C948 1.356 . S
N946 H958 0.984 . S
N946 H959 0.985 . S
N947 C949 1.356 . S
N947 H952 0.984 . S
N947 H953 0.985 . S
C948 C942 1.379 . S
C948 C945 1.363 . S
C948 N946 1.356 . S
C949 C943 1.363 . S
C949 C944 1.379 . S
C949 N947 1.356 . S
N950 C942 1.356 . S
N950 H956 0.984 . S
N950 H957 0.984 . S
N951 C944 1.356 . S
N951 H954 0.984 . S
N951 H955 0.985 . S
H952 N947 0.984 . S
H953 N947 0.985 . S
H954 N951 0.984 . S
H955 N951 0.985 . S
H956 N950 0.984 . S
H957 N950 0.984 . S
H958 N946 0.984 . S
H959 N946 0.985 . S
C960 C961 1.363 . S
C960 C966 1.379 . S
C960 N968 1.356 . S
C961 C960 1.363 . S
C961 C967 1.363 . S
C962 C963 1.363 . S
C962 C967 1.379 . S
C962 N969 1.356 . S
C963 C962 1.363 . S
C963 C966 1.363 . S
N964 C966 1.356 . S
N964 H976 0.984 . S
N964 H977 0.985 . S
N965 C967 1.356 . S
N965 H970 0.984 . S
N965 H971 0.985 . S
C966 C960 1.379 . S
C966 C963 1.363 . S
C966 N964 1.356 . S
C967 C961 1.363 . S
C967 C962 1.379 . S
C967 N965 1.356 . S
N968 C960 1.356 . S
N968 H974 0.984 . S
N968 H975 0.984 . S
N969 C962 1.356 . S
N969 H972 0.984 . S
N969 H973 0.985 . S
H970 N965 0.984 . S
H971 N965 0.985 . S
H972 N969 0.984 . S
H973 N969 0.985 . S
H974 N968 0.984 . S
H975 N968 0.984 . S
H976 N964 0.984 . S
H977 N964 0.985 . S
C978 C979 1.363 . S
C978 C984 1.379 . S
C978 N986 1.356 . S
C979 C978 1.363 . S
C979 C985 1.363 . S
C980 C981 1.363 . S
C980 C985 1.379 . S
C980 N987 1.356 . S
C981 C980 1.363 . S
C981 C984 1.363 . S
N982 C984 1.356 . S
N982 H994 0.984 . S
N982 H995 0.985 . S
N983 C985 1.356 . S
N983 H988 0.984 . S
N983 H989 0.985 . S
C984 C978 1.379 . S
C984 C981 1.363 . S
C984 N982 1.356 . S
C985 C979 1.363 . S
C985 C980 1.379 . S
C985 N983 1.356 . S
N986 C978 1.356 . S
N986 H992 0.984 . S
N986 H993 0.984 . S
N987 C980 1.356 . S
N987 H990 0.984 . S
N987 H991 0.985 . S
H988 N983 0.984 . S
H989 N983 0.985 . S
H990 N987 0.984 . S
H991 N987 0.985 . S
H992 N986 0.984 . S
H993 N986 0.984 . S
H994 N982 0.984 . S
H995 N982 0.985 . S
C565 C7 1.074 . S
C567 C85 0.970 . S
C583 C25 1.074 . S
C585 C164 1.120 . S
C601 C46 1.074 . S
C603 C235 1.119 . S
C621 C295 1.120 . S
C619 C70 1.074 . S
C639 C325 0.972 . S
C637 C28 1.074 . S
C655 C49 1.074 . S
C657 C415 1.121 . S
C673 C67 1.074 . S
C675 C475 1.120 . S
C691 C4 1.074 . S
C693 C524 1.121 . S
C709 C58 1.717 . S
C711 C505 1.675 . S
C729 C344 1.794 . S
C727 C66 1.717 . S
C747 C404 1.674 . S
C745 C3 1.717 . S
C763 C37 1.717 . S
C765 C464 1.674 . S
C783 C145 1.674 . S
C781 C79 1.717 . S
C799 C16 1.717 . S
C801 C224 1.673 . S
C819 C284 1.674 . S
C817 C24 1.717 . S
C837 C104 1.794 . S
C835 C45 1.716 . S
C855 C445 1.212 . S
C853 C19 1.065 . S
C873 C535 1.212 . S
C871 C41 1.065 . S
C889 C62 1.065 . S
C891 C355 1.221 . S
C909 C385 1.212 . S
C907 C82 1.065 . S
C927 C205 1.212 . S
C925 C40 1.065 . S
C943 C61 1.065 . S
C945 C265 1.215 . S
C963 C115 1.223 . S
C961 C83 1.065 . S
C981 C175 1.212 . S
C979 C20 1.066 . S
