# Generated by pormake.
# Topology zzz, (3,6)-cn, num edge types: 1
# Building blocks:
#     Node 0, Type 0, BuildingBlock: BELTOD_clean_linker_0, # of connection points: 3
#     Node 1, Type 0, BuildingBlock: BELTOD_clean_linker_0, # of connection points: 3
#     Node 2, Type 0, BuildingBlock: BELTOD_clean_linker_0, # of connection points: 3
#     Node 3, Type 0, BuildingBlock: BELTOD_clean_linker_0, # of connection points: 3
#     Node 4, Type 0, BuildingBlock: BELTOD_clean_linker_0, # of connection points: 3
#     Node 5, Type 0, BuildingBlock: BELTOD_clean_linker_0, # of connection points: 3
#     Node 6, Type 0, BuildingBlock: BELTOD_clean_linker_0, # of connection points: 3
#     Node 7, Type 0, BuildingBlock: BELTOD_clean_linker_0, # of connection points: 3
#     Node 8, Type 1, BuildingBlock: CUKXOW_clean_sbu_0, # of connection points: 6
#     Node 9, Type 1, BuildingBlock: CUKXOW_clean_sbu_0, # of connection points: 6
#     Node 10, Type 1, BuildingBlock: CUKXOW_clean_sbu_0, # of connection points: 6
#     Node 11, Type 1, BuildingBlock: CUKXOW_clean_sbu_0, # of connection points: 6
#     Edge 12, Type (0, 1), BuildingBlock: ZUJKAS_clean_linker_0, # of connection points: 2
#     Edge 13, Type (0, 1), BuildingBlock: ZUJKAS_clean_linker_0, # of connection points: 2
#     Edge 14, Type (0, 1), BuildingBlock: ZUJKAS_clean_linker_0, # of connection points: 2
#     Edge 15, Type (0, 1), BuildingBlock: ZUJKAS_clean_linker_0, # of connection points: 2
#     Edge 16, Type (0, 1), BuildingBlock: ZUJKAS_clean_linker_0, # of connection points: 2
#     Edge 17, Type (0, 1), BuildingBlock: ZUJKAS_clean_linker_0, # of connection points: 2
#     Edge 18, Type (0, 1), BuildingBlock: ZUJKAS_clean_linker_0, # of connection points: 2
#     Edge 19, Type (0, 1), BuildingBlock: ZUJKAS_clean_linker_0, # of connection points: 2
#     Edge 20, Type (0, 1), BuildingBlock: ZUJKAS_clean_linker_0, # of connection points: 2
#     Edge 21, Type (0, 1), BuildingBlock: ZUJKAS_clean_linker_0, # of connection points: 2
#     Edge 22, Type (0, 1), BuildingBlock: ZUJKAS_clean_linker_0, # of connection points: 2
#     Edge 23, Type (0, 1), BuildingBlock: ZUJKAS_clean_linker_0, # of connection points: 2
#     Edge 24, Type (0, 1), BuildingBlock: ZUJKAS_clean_linker_0, # of connection points: 2
#     Edge 25, Type (0, 1), BuildingBlock: ZUJKAS_clean_linker_0, # of connection points: 2
#     Edge 26, Type (0, 1), BuildingBlock: ZUJKAS_clean_linker_0, # of connection points: 2
#     Edge 27, Type (0, 1), BuildingBlock: ZUJKAS_clean_linker_0, # of connection points: 2
#     Edge 28, Type (0, 1), BuildingBlock: ZUJKAS_clean_linker_0, # of connection points: 2
#     Edge 29, Type (0, 1), BuildingBlock: ZUJKAS_clean_linker_0, # of connection points: 2
#     Edge 30, Type (0, 1), BuildingBlock: ZUJKAS_clean_linker_0, # of connection points: 2
#     Edge 31, Type (0, 1), BuildingBlock: ZUJKAS_clean_linker_0, # of connection points: 2
#     Edge 32, Type (0, 1), BuildingBlock: ZUJKAS_clean_linker_0, # of connection points: 2
#     Edge 33, Type (0, 1), BuildingBlock: ZUJKAS_clean_linker_0, # of connection points: 2
#     Edge 34, Type (0, 1), BuildingBlock: ZUJKAS_clean_linker_0, # of connection points: 2
#     Edge 35, Type (0, 1), BuildingBlock: ZUJKAS_clean_linker_0, # of connection points: 2
# Relax obj value: 0.199
# Max RMSD: 0.217
# Mean RMSD: 0.178
data_MOF--net-zzz--node1-CUKXOW_clean_sbu_0--node2-BELTOD_clean_linker_0--edge1-ZUJKAS_clean_linker_0
_symmetry_space_group_name_H-M    P1
_symmetry_Int_Tables_number       1
_symmetry_cell_setting            triclinic
loop_
_symmetry_equiv_pos_as_xyz
'x, y, z'
_cell_length_a     68.925559
_cell_length_b     67.357688
_cell_length_c     23.842174
_cell_angle_alpha  92.37925
_cell_angle_beta   88.378933
_cell_angle_gamma 95.35867
loop_
_atom_site_label
_atom_site_type_symbol
_atom_site_fract_x
_atom_site_fract_y
_atom_site_fract_z
_atom_type_partial_charge
P0 P 0.75456 0.39639 0.10768 0.0
H1 H 0.76125 0.37947 0.21579 0.0
H2 H 0.77837 0.39343 0.2988 0.0
H3 H 0.78367 0.45163 0.22734 0.0
H4 H 0.76645 0.43755 0.14436 0.0
H5 H 0.73422 0.38663 0.00484 0.0
H6 H 0.70753 0.40073 0.95998 0.0
H7 H 0.70189 0.44142 0.10322 0.0
H8 H 0.72849 0.42694 0.14843 0.0
H9 H 0.79043 0.37721 0.08626 0.0
H10 H 0.76381 0.42749 0.0262 0.0
O11 O 0.75 0.37175 0.11274 0.0
H12 H 0.81953 0.386 0.02808 0.0
H13 H 0.79235 0.43588 0.96643 0.0
C14 C 0.76241 0.40752 0.17413 0.0
C15 C 0.76559 0.39533 0.21857 0.0
C16 C 0.77552 0.4033 0.26587 0.0
C17 C 0.78248 0.4236 0.26943 0.0
C18 C 0.77831 0.43599 0.22614 0.0
C19 C 0.76846 0.42797 0.17869 0.0
C20 C 0.73341 0.40582 0.07967 0.0
C21 C 0.72711 0.39846 0.02685 0.0
C22 C 0.71198 0.40666 0.00104 0.0
C23 C 0.70279 0.42239 0.02771 0.0
C24 C 0.70869 0.4293 0.08167 0.0
C25 C 0.72395 0.42109 0.10745 0.0
C26 C 0.7748 0.40139 0.05953 0.0
C27 C 0.79067 0.38985 0.0595 0.0
C28 C 0.80727 0.39486 0.02609 0.0
C29 C 0.80828 0.41163 0.99242 0.0
C30 C 0.79217 0.423 0.99223 0.0
C31 C 0.77569 0.41805 0.02592 0.0
P32 P 0.96889 0.75802 0.14204 0.0
H33 H 0.98562 0.77668 0.24316 0.0
H34 H 0.9725 0.79683 0.31908 0.0
H35 H 0.91478 0.78464 0.25222 0.0
H36 H 0.92821 0.76411 0.17556 0.0
H37 H 0.97291 0.71585 0.15379 0.0
H38 H 0.96045 0.68637 0.09968 0.0
H39 H 0.92213 0.72165 0.01366 0.0
H40 H 0.9353 0.75137 0.06703 0.0
H41 H 0.94335 0.78637 0.09992 0.0
H42 H 0.00222 0.77098 0.06938 0.0
O43 O 0.99081 0.7518 0.15907 0.0
H44 H 0.94873 0.81279 0.03257 0.0
H45 H 0.00772 0.7976 0.00245 0.0
C46 C 0.95788 0.76872 0.20402 0.0
C47 C 0.97004 0.77775 0.24562 0.0
C48 C 0.96247 0.78927 0.28929 0.0
C49 C 0.94255 0.79228 0.29192 0.0
C50 C 0.93019 0.7826 0.25126 0.0
C51 C 0.93782 0.77081 0.20765 0.0
C52 C 0.95549 0.73591 0.11327 0.0
C53 C 0.96158 0.71723 0.12404 0.0
C54 C 0.95425 0.70026 0.09325 0.0
C55 C 0.94047 0.70162 0.05144 0.0
C56 C 0.93307 0.72014 0.04454 0.0
C57 C 0.94054 0.73716 0.07524 0.0
C58 C 0.97245 0.77683 0.09026 0.0
C59 C 0.9574 0.78858 0.07865 0.0
C60 C 0.96044 0.80361 0.03988 0.0
C61 C 0.97866 0.80726 0.01251 0.0
C62 C 0.99359 0.79521 0.0234 0.0
C63 C 0.99045 0.78 0.06164 0.0
P64 P 0.74706 0.0672 0.16507 0.0
H65 H 0.73658 0.08463 0.27472 0.0
H66 H 0.71781 0.07028 0.35356 0.0
H67 H 0.7213 0.01127 0.27777 0.0
H68 H 0.73977 0.02585 0.19825 0.0
H69 H 0.78844 0.0807 0.16765 0.0
H70 H 0.81718 0.06798 0.1222 0.0
H71 H 0.78125 0.01702 0.05469 0.0
H72 H 0.75245 0.03005 0.0998 0.0
H73 H 0.70494 0.06324 0.18676 0.0
H74 H 0.74396 0.06346 0.04194 0.0
O75 O 0.75217 0.09179 0.17486 0.0
H76 H 0.67714 0.05707 0.12615 0.0
H77 H 0.71601 0.05666 0.98069 0.0
C78 C 0.73967 0.05631 0.23075 0.0
C79 C 0.73396 0.06856 0.276 0.0
C80 C 0.72321 0.06029 0.32122 0.0
C81 C 0.71788 0.03962 0.32167 0.0
C82 C 0.72497 0.02726 0.27828 0.0
C83 C 0.73572 0.03557 0.23306 0.0
C84 C 0.76829 0.05656 0.13595 0.0
C85 C 0.78675 0.06674 0.14332 0.0
C86 C 0.8032 0.05935 0.1177 0.0
C87 C 0.80147 0.04155 0.08449 0.0
C88 C 0.78301 0.03092 0.0793 0.0
C89 C 0.76656 0.03832 0.10517 0.0
C90 C 0.72663 0.06306 0.11911 0.0
C91 C 0.7076 0.06165 0.14193 0.0
C92 C 0.69164 0.05803 0.10713 0.0
C93 C 0.69434 0.05595 0.04861 0.0
C94 C 0.71342 0.05812 0.02562 0.0
C95 C 0.72943 0.06182 0.06063 0.0
P96 P 0.5394 0.75536 0.20403 0.0
H97 H 0.5247 0.75445 0.32014 0.0
H98 H 0.53391 0.73607 0.39954 0.0
H99 H 0.58509 0.7197 0.30641 0.0
H100 H 0.57611 0.73879 0.22763 0.0
H101 H 0.54649 0.76573 0.08719 0.0
H102 H 0.55726 0.79699 0.04448 0.0
H103 H 0.57022 0.82406 0.20821 0.0
H104 H 0.55952 0.79224 0.25114 0.0
H105 H 0.50695 0.72575 0.17781 0.0
H106 H 0.56751 0.73693 0.12825 0.0
O107 O 0.51703 0.76204 0.21849 0.0
H108 H 0.50415 0.69569 0.11691 0.0
H109 H 0.56501 0.70648 0.06829 0.0
C110 C 0.54954 0.7477 0.26754 0.0
C111 C 0.53822 0.74745 0.31728 0.0
C112 C 0.54344 0.73679 0.36261 0.0
C113 C 0.55997 0.72599 0.35877 0.0
C114 C 0.57226 0.72782 0.31076 0.0
C115 C 0.56708 0.73866 0.2655 0.0
C116 C 0.55272 0.77643 0.17234 0.0
C117 C 0.55249 0.77802 0.11394 0.0
C118 C 0.55864 0.79603 0.08941 0.0
C119 C 0.56468 0.81302 0.1229 0.0
C120 C 0.56566 0.81121 0.18133 0.0
C121 C 0.5597 0.79302 0.20585 0.0
C122 C 0.53734 0.73375 0.15677 0.0
C123 C 0.51964 0.72179 0.15357 0.0
C124 C 0.51811 0.70447 0.11913 0.0
C125 C 0.53437 0.69866 0.08773 0.0
C126 C 0.55215 0.71068 0.09129 0.0
C127 C 0.55363 0.72803 0.12576 0.0
P128 P 0.2523 0.48659 0.20322 0.0
H129 H 0.25489 0.47417 0.08426 0.0
H130 H 0.23952 0.48563 0.00204 0.0
H131 H 0.22005 0.53537 0.10214 0.0
H132 H 0.23636 0.52433 0.18307 0.0
H133 H 0.29049 0.47126 0.19725 0.0
H134 H 0.32121 0.48223 0.24206 0.0
H135 H 0.29664 0.53523 0.30902 0.0
H136 H 0.2658 0.52421 0.26308 0.0
H137 H 0.21027 0.48419 0.19269 0.0
H138 H 0.25121 0.49369 0.32692 0.0
O139 O 0.25285 0.46214 0.18964 0.0
H140 H 0.18354 0.48926 0.25901 0.0
H141 H 0.22437 0.49868 0.39389 0.0
C142 C 0.24628 0.49812 0.13999 0.0
C143 C 0.24778 0.48785 0.08801 0.0
C144 C 0.23881 0.49435 0.04112 0.0
C145 C 0.228 0.51111 0.04568 0.0
C146 C 0.2282 0.52241 0.09674 0.0
C147 C 0.23746 0.51606 0.14334 0.0
C148 C 0.27573 0.49666 0.22824 0.0
C149 C 0.29175 0.48539 0.22083 0.0
C150 C 0.30937 0.49175 0.24618 0.0
C151 C 0.31125 0.50949 0.27954 0.0
C152 C 0.2955 0.52137 0.28411 0.0
C153 C 0.27792 0.51511 0.2579 0.0
C154 C 0.23285 0.48943 0.25429 0.0
C155 C 0.21355 0.4875 0.23644 0.0
C156 C 0.19822 0.49019 0.27456 0.0
C157 C 0.20185 0.49456 0.33168 0.0
C158 C 0.22117 0.49575 0.34995 0.0
C159 C 0.23653 0.49297 0.31161 0.0
P160 P 0.14612 0.25717 0.30225 0.0
H161 H 0.1659 0.24039 0.20251 0.0
H162 H 0.15337 0.2193 0.12272 0.0
H163 H 0.09447 0.22592 0.18211 0.0
H164 H 0.10698 0.24702 0.26113 0.0
H165 H 0.14848 0.28421 0.40005 0.0
H166 H 0.13352 0.31499 0.42457 0.0
H167 H 0.11032 0.31443 0.25794 0.0
H168 H 0.12528 0.28362 0.23378 0.0
H169 H 0.16004 0.22219 0.3517 0.0
H170 H 0.10947 0.25542 0.36701 0.0
O171 O 0.17042 0.25905 0.30297 0.0
H172 H 0.14339 0.19628 0.40997 0.0
H173 H 0.09288 0.22968 0.4246 0.0
C174 C 0.13736 0.24528 0.23766 0.0
C175 C 0.1503 0.23768 0.1976 0.0
C176 C 0.14314 0.22565 0.15207 0.0
C177 C 0.12297 0.22086 0.14667 0.0
C178 C 0.11009 0.2292 0.18566 0.0
C179 C 0.11723 0.24133 0.23067 0.0
C180 C 0.13771 0.28146 0.31554 0.0
C181 C 0.14042 0.2909 0.36855 0.0
C182 C 0.13192 0.30852 0.38242 0.0
C183 C 0.12058 0.31704 0.34332 0.0
C184 C 0.11869 0.30802 0.28924 0.0
C185 C 0.12728 0.29041 0.27537 0.0
C186 C 0.13614 0.24088 0.35584 0.0
C187 C 0.14564 0.22422 0.36903 0.0
C188 C 0.13612 0.20944 0.40217 0.0
C189 C 0.11685 0.21099 0.42146 0.0
C190 C 0.10771 0.2281 0.41001 0.0
C191 C 0.11726 0.2429 0.37746 0.0
P192 P 0.28074 0.08881 0.25134 0.0
H193 H 0.28821 0.10102 0.13535 0.0
H194 H 0.30522 0.08555 0.05618 0.0
H195 H 0.30734 0.03226 0.14997 0.0
H196 H 0.29111 0.04814 0.22963 0.0
H197 H 0.25038 0.11055 0.30585 0.0
H198 H 0.21731 0.10043 0.33932 0.0
H199 H 0.22382 0.03987 0.27966 0.0
H200 H 0.25661 0.05028 0.24466 0.0
H201 H 0.32233 0.09866 0.25948 0.0
H202 H 0.27665 0.06689 0.35659 0.0
O203 O 0.28305 0.1133 0.24129 0.0
H204 H 0.34675 0.08677 0.31858 0.0
H205 H 0.30091 0.05551 0.41732 0.0
C206 C 0.28846 0.07576 0.18842 0.0
C207 C 0.29196 0.08586 0.13842 0.0
C208 C 0.30163 0.07693 0.09302 0.0
C209 C 0.30787 0.05774 0.097 0.0
C210 C 0.30306 0.04719 0.14589 0.0
C211 C 0.29355 0.05617 0.19127 0.0
C212 C 0.25588 0.08127 0.27195 0.0
C213 C 0.24459 0.09516 0.29922 0.0
C214 C 0.22572 0.08929 0.31885 0.0
C215 C 0.21788 0.0693 0.31231 0.0
C216 C 0.22925 0.05543 0.28462 0.0
C217 C 0.2481 0.06137 0.26472 0.0
C218 C 0.2977 0.08374 0.30371 0.0
C219 C 0.31754 0.08961 0.29467 0.0
C220 C 0.3315 0.08281 0.32866 0.0
C221 C 0.32584 0.07002 0.37257 0.0
C222 C 0.30581 0.06503 0.38324 0.0
C223 C 0.29187 0.07171 0.34884 0.0
P224 P 0.36674 0.25842 0.24622 0.0
H225 H 0.34913 0.27145 0.14509 0.0
H226 H 0.36332 0.28905 0.06407 0.0
H227 H 0.42104 0.28129 0.12067 0.0
H228 H 0.40672 0.26398 0.20213 0.0
H229 H 0.35671 0.23592 0.34504 0.0
H230 H 0.36604 0.20432 0.37734 0.0
H231 H 0.39942 0.19619 0.22321 0.0
H232 H 0.38944 0.22752 0.19042 0.0
H233 H 0.35475 0.29716 0.28533 0.0
H234 H 0.40167 0.26103 0.31405 0.0
O235 O 0.34253 0.2585 0.24692 0.0
H236 H 0.37079 0.32439 0.34321 0.0
H237 H 0.41798 0.2882 0.3708 0.0
C238 C 0.37687 0.2663 0.17948 0.0
C239 C 0.36482 0.27304 0.1393 0.0
C240 C 0.37297 0.28309 0.09286 0.0
C241 C 0.39331 0.28673 0.0862 0.0
C242 C 0.40531 0.27895 0.12501 0.0
C243 C 0.39715 0.26889 0.17132 0.0
C244 C 0.37252 0.23416 0.26569 0.0
C245 C 0.36585 0.2272 0.31795 0.0
C246 C 0.37132 0.20921 0.33652 0.0
C247 C 0.38367 0.19782 0.30316 0.0
C248 C 0.3898 0.20453 0.24981 0.0
C249 C 0.38424 0.22256 0.23119 0.0
C250 C 0.37678 0.27693 0.29652 0.0
C251 C 0.3683 0.29495 0.30508 0.0
C252 C 0.3776 0.31057 0.33765 0.0
C253 C 0.39569 0.30849 0.36166 0.0
C254 C 0.40391 0.2902 0.35384 0.0
C255 C 0.39459 0.27462 0.32133 0.0
Tb256 Tb 0.99853 0.00111 0.64871 0.0
C257 C 0.04197 0.01657 0.62252 0.0
Tb258 Tb 0.01908 0.03242 0.7312 0.0
O259 O 0.00052 0.02205 0.581 0.0
O260 O 0.99943 0.03226 0.66463 0.0
O261 O 0.02814 0.00172 0.61334 0.0
C262 C 0.0385 0.0639 0.78239 0.0
O263 O 0.04047 0.0307 0.66257 0.0
C264 C 0.01545 0.99558 0.7634 0.0
C265 C 0.97527 0.01894 0.75433 0.0
O266 O 0.04281 0.0456 0.78404 0.0
O267 O 0.02321 0.06444 0.75228 0.0
O268 O 0.01596 0.011 0.79801 0.0
O269 O 0.01861 0.00129 0.71409 0.0
O270 O 0.98932 0.0336 0.7619 0.0
O271 O 0.97682 0.00388 0.71706 0.0
C272 C 0.97965 0.96844 0.60205 0.0
O273 O 0.97463 0.98645 0.59897 0.0
O274 O 0.99538 0.96887 0.63085 0.0
C275 C 0.00212 0.03774 0.61479 0.0
Tb276 Tb 0.49774 0.02832 0.63819 0.0
C277 C 0.5365 0.00873 0.61491 0.0
Tb278 Tb 0.5064 0.99352 0.712 0.0
O279 O 0.52264 0.04733 0.67027 0.0
O280 O 0.50843 0.02508 0.71919 0.0
O281 O 0.52319 0.01884 0.5924 0.0
C282 C 0.5215 0.96854 0.7792 0.0
O283 O 0.5335 0.99948 0.66305 0.0
C284 C 0.48098 0.98487 0.63212 0.0
C285 C 0.46861 0.0143 0.7389 0.0
O286 O 0.51618 0.96431 0.72795 0.0
O287 O 0.51817 0.98679 0.79275 0.0
O288 O 0.48061 0.97565 0.679 0.0
O289 O 0.49605 0.99692 0.63092 0.0
O290 O 0.48197 0.00402 0.76039 0.0
O291 O 0.47109 0.02286 0.68964 0.0
C292 C 0.48067 0.05206 0.57171 0.0
O293 O 0.4855 0.05638 0.62329 0.0
O294 O 0.4859 0.03454 0.55699 0.0
C295 C 0.5231 0.03773 0.71635 0.0
Tb296 Tb 0.51978 0.51146 0.65238 0.0
C297 C 0.47506 0.504 0.63201 0.0
Tb298 Tb 0.49585 0.47886 0.7187 0.0
O299 O 0.51562 0.49383 0.57373 0.0
O300 O 0.51585 0.47999 0.65009 0.0
O301 O 0.49031 0.51763 0.63281 0.0
C302 C 0.47398 0.44671 0.75408 0.0
O303 O 0.47488 0.48693 0.6582 0.0
C304 C 0.50318 0.51349 0.77119 0.0
C305 C 0.5411 0.48483 0.73572 0.0
O306 O 0.48743 0.44667 0.71501 0.0
O307 O 0.47276 0.46489 0.77314 0.0
O308 O 0.50122 0.49668 0.79644 0.0
O309 O 0.49942 0.51044 0.72009 0.0
O310 O 0.52487 0.47273 0.74168 0.0
O311 O 0.54213 0.50106 0.70523 0.0
C312 C 0.54067 0.54504 0.62295 0.0
O313 O 0.53445 0.54103 0.67346 0.0
O314 O 0.53529 0.53005 0.58922 0.0
C315 C 0.51271 0.47698 0.59855 0.0
Tb316 Tb 0.9851 0.50118 0.61941 0.0
C317 C 0.01765 0.47199 0.60725 0.0
Tb318 Tb 0.0203 0.50808 0.69768 0.0
O319 O 0.00305 0.50992 0.54603 0.0
O320 O 0.01066 0.521 0.62556 0.0
O321 O 0.99865 0.47347 0.60272 0.0
C322 C 0.05547 0.51408 0.74305 0.0
O323 O 0.02906 0.4851 0.63739 0.0
C324 C 0.98869 0.48914 0.73958 0.0
C325 C 0.98859 0.53869 0.7071 0.0
O326 O 0.04212 0.49997 0.7555 0.0
O327 O 0.04898 0.52492 0.7053 0.0
O328 O 0.00105 0.50044 0.76963 0.0
O329 O 0.99515 0.48764 0.68989 0.0
O330 O 0.00666 0.53525 0.71922 0.0
O331 O 0.97759 0.52707 0.6716 0.0
C332 C 0.94937 0.49296 0.57888 0.0
O333 O 0.9537 0.49317 0.6315 0.0
O334 O 0.96512 0.49743 0.54925 0.0
C335 C 0.01661 0.51988 0.57515 0.0
H336 H 0.18959 0.04248 0.26634 0.0
H337 H 0.15754 0.03153 0.30733 0.0
H338 H 0.16963 0.07057 0.45248 0.0
H339 H 0.2017 0.08127 0.4127 0.0
H340 H 0.14937 0.01353 0.41302 0.0
H341 H 0.11605 0.08492 0.40158 0.0
H342 H 0.13781 0.07971 0.36174 0.0
H343 H 0.13928 0.0877 0.43458 0.0
C344 C 0.18546 0.04868 0.30709 0.0
C345 C 0.1982 0.06287 0.33604 0.0
C346 C 0.16711 0.04248 0.33025 0.0
C347 C 0.16112 0.0505 0.38243 0.0
C348 C 0.17381 0.06455 0.41152 0.0
H349 H 0.07489 0.04149 0.6382 0.0
H350 H 0.10245 0.04768 0.57354 0.0
C351 C 0.19213 0.07068 0.38861 0.0
C352 C 0.14195 0.04374 0.40807 0.0
H353 H 0.10049 0.06116 0.46449 0.0
C354 C 0.13848 0.0238 0.42348 0.0
C355 C 0.12779 0.05719 0.42131 0.0
C356 C 0.1303 0.07853 0.40346 0.0
C357 C 0.12173 0.01727 0.455 0.0
C358 C 0.10803 0.03101 0.47057 0.0
C359 C 0.11107 0.05068 0.45268 0.0
C360 C 0.09148 0.02599 0.50998 0.0
C361 C 0.11932 0.99608 0.47403 0.0
C362 C 0.07618 0.01152 0.49594 0.0
C363 C 0.06028 0.00781 0.53324 0.0
C364 C 0.05943 0.01865 0.58485 0.0
C365 C 0.07499 0.03286 0.59886 0.0
C366 C 0.09078 0.03648 0.56185 0.0
H367 H 0.13277 0.98837 0.46636 0.0
H368 H 0.11539 0.99576 0.5195 0.0
H369 H 0.10732 0.98759 0.45073 0.0
H370 H 0.07632 0.00346 0.45569 0.0
H371 H 0.04844 0.99693 0.52095 0.0
H372 H 0.38846 0.16194 0.24731 0.0
H373 H 0.40144 0.13257 0.28462 0.0
H374 H 0.40836 0.16342 0.44591 0.0
H375 H 0.39568 0.1927 0.40918 0.0
H376 H 0.438 0.13065 0.33005 0.0
H377 H 0.38012 0.11002 0.48818 0.0
H378 H 0.3765 0.12603 0.43114 0.0
H379 H 0.3886 0.13601 0.4935 0.0
C380 C 0.39272 0.16242 0.29076 0.0
C381 C 0.39087 0.17962 0.3254 0.0
C382 C 0.40001 0.1456 0.31205 0.0
C383 C 0.40545 0.14567 0.36836 0.0
C384 C 0.40369 0.16282 0.40283 0.0
H385 H 0.46883 0.08846 0.60054 0.0
H386 H 0.44933 0.10873 0.54555 0.0
C387 C 0.39644 0.17957 0.38169 0.0
C388 C 0.41426 0.12847 0.39076 0.0
H389 H 0.41138 0.09806 0.50218 0.0
C390 C 0.43199 0.12316 0.36693 0.0
C391 C 0.40632 0.11869 0.43872 0.0
C392 C 0.38673 0.12282 0.46404 0.0
C393 C 0.44265 0.10927 0.39205 0.0
C394 C 0.43523 0.10038 0.44189 0.0
C395 C 0.41705 0.10497 0.46408 0.0
C396 C 0.44685 0.0877 0.47443 0.0
C397 C 0.46228 0.10508 0.36701 0.0
C398 C 0.45182 0.0691 0.4527 0.0
C399 C 0.4631 0.05754 0.48397 0.0
C400 C 0.46943 0.0644 0.53746 0.0
C401 C 0.46426 0.0829 0.55924 0.0
C402 C 0.45306 0.09443 0.52802 0.0
H403 H 0.46728 0.11557 0.33371 0.0
H404 H 0.4734 0.10609 0.40007 0.0
H405 H 0.46131 0.08969 0.34817 0.0
H406 H 0.44689 0.0635 0.41179 0.0
H407 H 0.46674 0.04322 0.46652 0.0
H408 H 0.34941 0.50891 0.24508 0.0
H409 H 0.37806 0.51182 0.30444 0.0
H410 H 0.3415 0.52311 0.44994 0.0
H411 H 0.3129 0.5206 0.39068 0.0
H412 H 0.3766 0.54586 0.45374 0.0
H413 H 0.38749 0.4664 0.40368 0.0
H414 H 0.38813 0.48139 0.34305 0.0
H415 H 0.36593 0.47746 0.38426 0.0
C416 C 0.34755 0.51227 0.28963 0.0
C417 C 0.32892 0.51436 0.31336 0.0
C418 C 0.36389 0.51384 0.3235 0.0
C419 C 0.36183 0.51718 0.3818 0.0
C420 C 0.34341 0.52042 0.40509 0.0
H421 H 0.43982 0.48174 0.62868 0.0
H422 H 0.41223 0.48639 0.57026 0.0
C423 C 0.32709 0.51906 0.37116 0.0
C424 C 0.37857 0.51608 0.41898 0.0
H425 H 0.41146 0.48479 0.45857 0.0
C426 C 0.38426 0.53253 0.45484 0.0
C427 C 0.38828 0.49852 0.42111 0.0
C428 C 0.38206 0.47986 0.38641 0.0
C429 C 0.39951 0.53195 0.49249 0.0
C430 C 0.40958 0.51458 0.49335 0.0
C431 C 0.40381 0.49814 0.45762 0.0
C432 C 0.42591 0.51285 0.53162 0.0
C433 C 0.40432 0.54971 0.53194 0.0
C434 C 0.44278 0.52621 0.52953 0.0
C435 C 0.45856 0.52371 0.56338 0.0
C436 C 0.45785 0.50761 0.59938 0.0
C437 C 0.44087 0.49433 0.6016 0.0
C438 C 0.42507 0.49695 0.56813 0.0
H439 H 0.39194 0.55913 0.53722 0.0
H440 H 0.4082 0.54495 0.5739 0.0
H441 H 0.41697 0.55908 0.51444 0.0
H442 H 0.44398 0.53829 0.50068 0.0
H443 H 0.47148 0.53408 0.56014 0.0
H444 H 0.08292 0.32281 0.32077 0.0
H445 H 0.06425 0.35011 0.35581 0.0
H446 H 0.11482 0.37739 0.44158 0.0
H447 H 0.13373 0.35043 0.40555 0.0
H448 H 0.0573 0.35948 0.46929 0.0
H449 H 0.09518 0.4243 0.36277 0.0
H450 H 0.09788 0.39882 0.33951 0.0
H451 H 0.1113 0.40986 0.39834 0.0
C452 C 0.0902 0.33488 0.34596 0.0
C453 C 0.10982 0.3345 0.3603 0.0
C454 C 0.07948 0.35038 0.36623 0.0
C455 C 0.08821 0.36586 0.40075 0.0
C456 C 0.10789 0.36576 0.41418 0.0
H457 H 0.05564 0.46387 0.60968 0.0
H458 H 0.07126 0.43772 0.55706 0.0
C459 C 0.11862 0.35025 0.39404 0.0
C460 C 0.07641 0.38131 0.42624 0.0
H461 H 0.07399 0.43164 0.44038 0.0
C462 C 0.06076 0.37526 0.46246 0.0
C463 C 0.08102 0.40184 0.41724 0.0
C464 C 0.09715 0.40912 0.37694 0.0
C465 C 0.05005 0.38926 0.49175 0.0
C466 C 0.05494 0.40982 0.48373 0.0
C467 C 0.0703 0.41585 0.44646 0.0
C468 C 0.04503 0.42538 0.51583 0.0
C469 C 0.03412 0.38199 0.53272 0.0
C470 C 0.02505 0.42712 0.51003 0.0
C471 C 0.01597 0.44204 0.54043 0.0
C472 C 0.02679 0.45553 0.57681 0.0
C473 C 0.04681 0.45371 0.58228 0.0
C474 C 0.05582 0.43881 0.55206 0.0
H475 H 0.03501 0.36616 0.54291 0.0
H476 H 0.03484 0.39127 0.57235 0.0
H477 H 0.01973 0.38318 0.51405 0.0
H478 H 0.01654 0.41709 0.48152 0.0
H479 H 0.00058 0.44315 0.53483 0.0
H480 H 0.83878 0.04112 0.12085 0.0
H481 H 0.86778 0.03421 0.06429 0.0
H482 H 0.83208 0.01995 0.91992 0.0
H483 H 0.80309 0.02727 0.97567 0.0
H484 H 0.87725 0.99928 0.99582 0.0
H485 H 0.87209 0.06711 0.87358 0.0
H486 H 0.85891 0.06298 0.93919 0.0
H487 H 0.85051 0.04995 0.87594 0.0
C488 C 0.8371 0.03643 0.07711 0.0
C489 C 0.81867 0.03493 0.05258 0.0
C490 C 0.85364 0.03236 0.04503 0.0
C491 C 0.85204 0.02684 0.98788 0.0
C492 C 0.83359 0.02441 0.96388 0.0
H493 H 0.94413 0.99052 0.75784 0.0
H494 H 0.91418 0.99147 0.81508 0.0
C495 C 0.81704 0.02843 0.99592 0.0
C496 C 0.86981 0.02486 0.95267 0.0
H497 H 0.89709 0.04679 0.84654 0.0
C498 C 0.8816 0.00959 0.96302 0.0
C499 C 0.87548 0.03853 0.91049 0.0
C500 C 0.86372 0.05569 0.89921 0.0
C501 C 0.89896 0.00757 0.93188 0.0
C502 C 0.90449 0.0211 0.88924 0.0
C503 C 0.89271 0.03639 0.87909 0.0
C504 C 0.92278 0.02013 0.8557 0.0
C505 C 0.91148 0.99129 0.94562 0.0
C506 C 0.93735 0.03608 0.85901 0.0
C507 C 0.95443 0.03566 0.82625 0.0
C508 C 0.95718 0.01931 0.78918 0.0
C509 C 0.94249 0.00334 0.78592 0.0
C510 C 0.92542 0.00378 0.81887 0.0
H511 H 0.90732 0.98488 0.98692 0.0
H512 H 0.90975 0.9791 0.91288 0.0
H513 H 0.92711 0.99705 0.94607 0.0
H514 H 0.9355 0.04888 0.88705 0.0
H515 H 0.9654 0.04822 0.82985 0.0
H516 H 0.55028 0.84746 0.16236 0.0
H517 H 0.54761 0.87754 0.11013 0.0
H518 H 0.58075 0.85323 0.97199 0.0
H519 H 0.58378 0.82315 0.0243 0.0
H520 H 0.58738 0.89839 0.00012 0.0
H521 H 0.51064 0.86678 0.9691 0.0
H522 H 0.51904 0.86891 0.04007 0.0
H523 H 0.52934 0.85181 0.9905 0.0
C524 C 0.55763 0.84879 0.12175 0.0
C525 C 0.56709 0.83284 0.0972 0.0
C526 C 0.55597 0.86594 0.09185 0.0
C527 C 0.56379 0.86743 0.03709 0.0
C528 C 0.5746 0.8523 0.01423 0.0
H529 H 0.52621 0.92935 0.75725 0.0
H530 H 0.53814 0.90578 0.8207 0.0
C531 C 0.57623 0.83511 0.04402 0.0
C532 C 0.55845 0.8833 0.00102 0.0
H533 H 0.52031 0.89753 0.92894 0.0
C534 C 0.57272 0.89833 0.98473 0.0
C535 C 0.53936 0.88293 0.98055 0.0
C536 C 0.52367 0.8667 0.99546 0.0
C537 C 0.56829 0.91315 0.9485 0.0
C538 C 0.54915 0.91281 0.92837 0.0
C539 C 0.53495 0.89774 0.94467 0.0
C540 C 0.54351 0.92757 0.88904 0.0
C541 C 0.58413 0.92879 0.93092 0.0
C542 C 0.54261 0.94762 0.90657 0.0
C543 C 0.53569 0.96108 0.8705 0.0
C544 C 0.52957 0.95465 0.81648 0.0
C545 C 0.53082 0.93468 0.7987 0.0
C546 C 0.53765 0.92122 0.83481 0.0
H547 H 0.59883 0.9249 0.94192 0.0
H548 H 0.58387 0.9308 0.88496 0.0
H549 H 0.58159 0.94328 0.95244 0.0
H550 H 0.54679 0.95272 0.94857 0.0
H551 H 0.53487 0.97644 0.88513 0.0
H552 H 0.70303 0.43264 0.91821 0.0
H553 H 0.67698 0.44594 0.86802 0.0
H554 H 0.64167 0.44628 0.02026 0.0
H555 H 0.66775 0.43296 0.0709 0.0
H556 H 0.64025 0.42773 0.85338 0.0
H557 H 0.63695 0.50179 0.96216 0.0
H558 H 0.65728 0.48701 0.9684 0.0
H559 H 0.63516 0.48138 0.00873 0.0
C560 C 0.68973 0.43559 0.94107 0.0
C561 C 0.68739 0.43164 0.99846 0.0
C562 C 0.67491 0.44328 0.91239 0.0
C563 C 0.65748 0.44729 0.94049 0.0
C564 C 0.65518 0.44369 0.99802 0.0
H565 H 0.54497 0.45233 0.79797 0.0
H566 H 0.57378 0.44403 0.84561 0.0
C567 C 0.67006 0.43604 0.02687 0.0
C568 C 0.64127 0.45393 0.90857 0.0
H569 H 0.6107 0.49082 0.9018 0.0
C570 C 0.63388 0.44159 0.86375 0.0
C571 C 0.63314 0.47213 0.9217 0.0
C572 C 0.64114 0.48646 0.96752 0.0
C573 C 0.61826 0.4467 0.83257 0.0
C574 C 0.6096 0.46447 0.84722 0.0
C575 C 0.61729 0.47711 0.89103 0.0
C576 C 0.59215 0.46983 0.81852 0.0
C577 C 0.61123 0.43307 0.78404 0.0
C578 C 0.59281 0.48737 0.78846 0.0
C579 C 0.57629 0.49225 0.76112 0.0
C580 C 0.55879 0.47972 0.76378 0.0
C581 C 0.5582 0.46228 0.79458 0.0
C582 C 0.57469 0.45744 0.82175 0.0
H583 H 0.62253 0.42326 0.76884 0.0
H584 H 0.59822 0.42337 0.79794 0.0
H585 H 0.60702 0.44176 0.74847 0.0
H586 H 0.60616 0.49718 0.78578 0.0
H587 H 0.57723 0.50584 0.7381 0.0
H588 H 0.93578 0.70293 0.93805 0.0
H589 H 0.93586 0.67525 0.86912 0.0
H590 H 0.93735 0.6341 0.0025 0.0
H591 H 0.93596 0.66154 0.0719 0.0
H592 H 0.96616 0.65514 0.85605 0.0
H593 H 0.90269 0.60107 0.8967 0.0
H594 H 0.90417 0.62636 0.92561 0.0
H595 H 0.91559 0.60735 0.96014 0.0
C596 C 0.93522 0.68793 0.95301 0.0
C597 C 0.93609 0.68454 0.01072 0.0
C598 C 0.93544 0.67209 0.91336 0.0
C599 C 0.93661 0.65256 0.93046 0.0
C600 C 0.9361 0.64895 0.98809 0.0
H601 H 0.00517 0.56454 0.7873 0.0
H602 H 0.99102 0.59258 0.83543 0.0
C603 C 0.93562 0.66475 0.02782 0.0
C604 C 0.94151 0.63668 0.88885 0.0
H605 H 0.93091 0.58748 0.85125 0.0
C606 C 0.95818 0.64047 0.85428 0.0
C607 C 0.93105 0.61758 0.88586 0.0
C608 C 0.91226 0.61294 0.91868 0.0
C609 C 0.96525 0.62545 0.81915 0.0
C610 C 0.95571 0.60595 0.81967 0.0
C611 C 0.93841 0.60238 0.85168 0.0
C612 C 0.96413 0.58892 0.78981 0.0
C613 C 0.98305 0.63059 0.78238 0.0
C614 C 0.95349 0.57722 0.74915 0.0
C615 C 0.9615 0.56102 0.72171 0.0
C616 C 0.98026 0.5562 0.73468 0.0
C617 C 0.99079 0.56792 0.77573 0.0
C618 C 0.98275 0.58403 0.80319 0.0
H619 H 0.98464 0.64669 0.773 0.0
H620 H 0.99625 0.62736 0.80467 0.0
H621 H 0.98242 0.62168 0.74212 0.0
H622 H 0.93904 0.58068 0.73852 0.0
H623 H 0.95293 0.55225 0.69054 0.0
H624 H 0.12692 0.18999 0.51067 0.0
H625 H 0.10777 0.16167 0.55351 0.0
H626 H 0.06267 0.16515 0.43322 0.0
H627 H 0.08136 0.19372 0.39201 0.0
H628 H 0.04715 0.16021 0.53408 0.0
H629 H 0.10149 0.10506 0.49367 0.0
H630 H 0.11036 0.12656 0.53557 0.0
H631 H 0.10408 0.12934 0.46376 0.0
C632 C 0.11291 0.18464 0.49361 0.0
C633 C 0.10554 0.19404 0.44831 0.0
C634 C 0.10204 0.16842 0.51779 0.0
C635 C 0.0839 0.16108 0.49604 0.0
C636 C 0.07659 0.17056 0.45085 0.0
H637 H 0.02328 0.04505 0.51916 0.0
H638 H 0.04257 0.07582 0.49484 0.0
C639 C 0.08725 0.18689 0.42738 0.0
C640 C 0.07223 0.14366 0.51996 0.0
H641 H 0.07279 0.09412 0.54385 0.0
C642 C 0.05276 0.14575 0.53633 0.0
C643 C 0.07953 0.12477 0.52243 0.0
C644 C 0.09994 0.12117 0.50246 0.0
C645 C 0.0402 0.1294 0.55341 0.0
C646 C 0.04754 0.11055 0.55642 0.0
C647 C 0.06718 0.10859 0.54171 0.0
C648 C 0.03491 0.09232 0.57094 0.0
C649 C 0.01901 0.13237 0.56537 0.0
C650 C 0.02384 0.09141 0.62137 0.0
C651 C 0.01228 0.07394 0.63444 0.0
C652 C 0.01223 0.05694 0.59848 0.0
C653 C 0.02304 0.05796 0.54774 0.0
C654 C 0.03424 0.07548 0.53409 0.0
H655 H 0.01473 0.14593 0.54573 0.0
H656 H 0.00933 0.11933 0.54975 0.0
H657 H 0.01653 0.13427 0.61138 0.0
H658 H 0.02431 0.10406 0.65095 0.0
H659 H 0.0035 0.07365 0.67279 0.0
H660 H 0.32426 0.03172 0.40761 0.0
H661 H 0.34948 0.01575 0.45373 0.0
H662 H 0.38714 0.07053 0.45081 0.0
H663 H 0.36161 0.08701 0.40708 0.0
H664 H 0.38588 0.01013 0.41173 0.0
H665 H 0.39083 0.05479 0.6126 0.0
H666 H 0.37089 0.05557 0.56548 0.0
H667 H 0.39393 0.06948 0.55137 0.0
C668 C 0.33768 0.04059 0.4181 0.0
C669 C 0.34079 0.06074 0.40402 0.0
C670 C 0.35217 0.03134 0.44395 0.0
C671 C 0.3701 0.04201 0.45628 0.0
C672 C 0.37327 0.06214 0.44268 0.0
H673 H 0.47948 0.9954 0.524 0.0
H674 H 0.45158 0.00744 0.47862 0.0
C675 C 0.35872 0.07146 0.4171 0.0
C676 C 0.38572 0.03172 0.48097 0.0
H677 H 0.41536 0.03269 0.59352 0.0
C678 C 0.39225 0.01498 0.45165 0.0
C679 C 0.39392 0.03801 0.53319 0.0
C680 C 0.38693 0.05533 0.56781 0.0
C681 C 0.4069 0.00447 0.4729 0.0
C682 C 0.41539 0.01105 0.52443 0.0
C683 C 0.40878 0.02769 0.55398 0.0
C684 C 0.43142 0.00117 0.54825 0.0
C685 C 0.41299 0.98629 0.44036 0.0
C686 C 0.42918 0.99321 0.60179 0.0
C687 C 0.44506 0.98626 0.62753 0.0
C688 C 0.46348 0.98762 0.60051 0.0
C689 C 0.46541 0.9944 0.54566 0.0
C690 C 0.44951 0.00122 0.51974 0.0
H691 H 0.40172 0.98019 0.41028 0.0
H692 H 0.42661 0.99046 0.416 0.0
H693 H 0.41587 0.97439 0.46905 0.0
H694 H 0.41532 0.99305 0.62445 0.0
H695 H 0.44322 0.98111 0.66995 0.0
H696 H 0.39953 0.3476 0.33307 0.0
H697 H 0.4192 0.37545 0.37854 0.0
H698 H 0.43654 0.33621 0.5025 0.0
H699 H 0.41668 0.30824 0.45769 0.0
H700 H 0.41794 0.39124 0.49183 0.0
H701 H 0.48863 0.36119 0.43431 0.0
H702 H 0.46609 0.3519 0.40164 0.0
H703 H 0.47117 0.34459 0.47091 0.0
C704 C 0.40726 0.34492 0.37054 0.0
C705 C 0.40657 0.32566 0.39164 0.0
C706 C 0.41859 0.36084 0.39625 0.0
C707 C 0.42954 0.3578 0.4433 0.0
C708 C 0.42848 0.33876 0.46553 0.0
H709 H 0.51234 0.43882 0.63228 0.0
H710 H 0.49168 0.4095 0.5971 0.0
C711 C 0.41713 0.32282 0.43987 0.0
C712 C 0.44227 0.37457 0.46839 0.0
H713 H 0.48995 0.39112 0.48972 0.0
C714 C 0.43368 0.39123 0.49147 0.0
C715 C 0.46279 0.37444 0.46792 0.0
C716 C 0.47281 0.35717 0.44202 0.0
C717 C 0.44508 0.40781 0.5143 0.0
C718 C 0.46562 0.40783 0.51287 0.0
C719 C 0.4742 0.39104 0.49061 0.0
C720 C 0.47846 0.42535 0.53319 0.0
C721 C 0.43503 0.42504 0.54035 0.0
C722 C 0.47824 0.44377 0.50789 0.0
C723 C 0.48989 0.46046 0.52813 0.0
C724 C 0.50196 0.45896 0.57393 0.0
C725 C 0.50281 0.44037 0.59769 0.0
C726 C 0.49112 0.42365 0.5775 0.0
H727 H 0.41958 0.42048 0.55201 0.0
H728 H 0.44263 0.43138 0.57842 0.0
H729 H 0.43518 0.43699 0.50961 0.0
H730 H 0.46893 0.44528 0.47277 0.0
H731 H 0.48904 0.47465 0.50896 0.0
H732 H 0.16611 0.4735 0.33777 0.0
H733 H 0.13791 0.48142 0.39577 0.0
H734 H 0.17223 0.53115 0.47469 0.0
H735 H 0.20047 0.52368 0.41523 0.0
H736 H 0.13213 0.48454 0.5125 0.0
H737 H 0.12605 0.55696 0.41232 0.0
H738 H 0.14128 0.53861 0.38271 0.0
H739 H 0.14893 0.55365 0.44345 0.0
C740 C 0.16767 0.48616 0.36736 0.0
C741 C 0.18544 0.49813 0.37135 0.0
C742 C 0.15159 0.49057 0.40077 0.0
C743 C 0.15291 0.50706 0.43885 0.0
C744 C 0.17083 0.51857 0.44484 0.0
H745 H 0.04677 0.54555 0.61455 0.0
H746 H 0.08173 0.54431 0.59094 0.0
C747 C 0.18699 0.51415 0.41128 0.0
C748 C 0.13515 0.51235 0.47022 0.0
H749 H 0.10097 0.54605 0.47545 0.0
C750 C 0.12548 0.49816 0.5052 0.0
C751 C 0.12654 0.53016 0.46072 0.0
C752 C 0.1361 0.54572 0.42253 0.0
C753 C 0.10701 0.50085 0.52875 0.0
C754 C 0.09794 0.51808 0.51655 0.0
C755 C 0.10805 0.53287 0.48456 0.0
C756 C 0.0771 0.51962 0.53034 0.0
C757 C 0.09693 0.48485 0.56456 0.0
C758 C 0.0631 0.50657 0.50285 0.0
C759 C 0.04336 0.50732 0.51599 0.0
C760 C 0.03728 0.52103 0.55728 0.0
C761 C 0.05122 0.53462 0.58338 0.0
C762 C 0.07108 0.53396 0.56987 0.0
H763 H 0.10753 0.47557 0.5826 0.0
H764 H 0.08825 0.49146 0.59932 0.0
H765 H 0.08685 0.47492 0.53813 0.0
H766 H 0.06748 0.49561 0.47161 0.0
H767 H 0.03292 0.49665 0.4952 0.0
H768 H 0.9561 0.81729 0.92737 0.0
H769 H 0.96162 0.84648 0.86884 0.0
H770 H 0.01444 0.86513 0.95723 0.0
H771 H 0.00929 0.83575 0.01424 0.0
H772 H 0.96235 0.88414 0.89818 0.0
H773 H 0.03389 0.87219 0.8 0.0
H774 H 0.01953 0.85288 0.83699 0.0
H775 H 0.03521 0.87145 0.87479 0.0
C776 C 0.969 0.82753 0.93366 0.0
C777 C 0.98237 0.82422 0.97494 0.0
C778 C 0.97216 0.84416 0.90022 0.0
C779 C 0.98867 0.85781 0.90776 0.0
C780 C 0.00197 0.85449 0.94916 0.0
H781 H 0.00075 0.98296 0.86365 0.0
H782 H 0.99313 0.94863 0.89187 0.0
C783 C 0.99897 0.83775 0.98199 0.0
C784 C 0.99128 0.87634 0.87574 0.0
H785 H 0.02551 0.90641 0.80548 0.0
C786 C 0.97606 0.88884 0.87706 0.0
C787 C 0.00896 0.88233 0.84688 0.0
C788 C 0.02521 0.86886 0.83902 0.0
C789 C 0.97844 0.90763 0.85326 0.0
C790 C 0.99677 0.9144 0.82929 0.0
C791 C 0.01159 0.90143 0.82491 0.0
C792 C 0.00123 0.93521 0.81145 0.0
C793 C 0.96127 0.92003 0.85434 0.0
C794 C 0.00921 0.93913 0.75772 0.0
C795 C 0.01409 0.95879 0.7421 0.0
C796 C 0.01083 0.9748 0.77966 0.0
C797 C 0.00317 0.97087 0.83362 0.0
C798 C 0.99857 0.95126 0.84952 0.0
H799 H 0.94727 0.9104 0.85424 0.0
H800 H 0.96143 0.92955 0.89346 0.0
H801 H 0.96174 0.92978 0.81782 0.0
H802 H 0.01173 0.92699 0.72797 0.0
H803 H 0.02067 0.96145 0.70103 0.0
H804 H 0.68815 0.0717 0.947 0.0
H805 H 0.65896 0.06596 0.89009 0.0
H806 H 0.6325 0.02529 0.01108 0.0
H807 H 0.66172 0.03052 0.06761 0.0
H808 H 0.63871 0.02669 0.84666 0.0
H809 H 0.59449 0.07067 0.99655 0.0
H810 H 0.62082 0.07336 0.99532 0.0
H811 H 0.6078 0.0519 0.02545 0.0
C812 C 0.67625 0.0613 0.96109 0.0
C813 C 0.67719 0.05172 0.01214 0.0
C814 C 0.65958 0.05811 0.92866 0.0
C815 C 0.64357 0.0454 0.94688 0.0
C816 C 0.64465 0.03537 0.99683 0.0
H817 H 0.52531 0.02406 0.82198 0.0
H818 H 0.55473 0.02377 0.87762 0.0
C819 C 0.66131 0.03847 0.02915 0.0
C820 C 0.62548 0.04311 0.91455 0.0
H821 H 0.57853 0.05533 0.91787 0.0
C822 C 0.62552 0.03291 0.86209 0.0
C823 C 0.60833 0.05112 0.93526 0.0
C824 C 0.60774 0.0625 0.99107 0.0
C825 C 0.60873 0.03048 0.8296 0.0
C826 C 0.59168 0.03894 0.8497 0.0
C827 C 0.59161 0.04887 0.90261 0.0
C828 C 0.57402 0.03841 0.81557 0.0
C829 C 0.60934 0.01866 0.77447 0.0
C830 C 0.57507 0.04699 0.76284 0.0
C831 C 0.5584 0.04691 0.73098 0.0
C832 C 0.54036 0.03838 0.75149 0.0
C833 C 0.53917 0.03022 0.80478 0.0
C834 C 0.5559 0.03021 0.83663 0.0
H835 H 0.62086 0.00816 0.7737 0.0
H836 H 0.59512 0.01003 0.76614 0.0
H837 H 0.6127 0.02906 0.73988 0.0
H838 H 0.58876 0.05391 0.74645 0.0
H839 H 0.55969 0.05337 0.69003 0.0
H840 H 0.51503 0.66268 0.11262 0.0
H841 H 0.51148 0.63225 0.05299 0.0
H842 H 0.54663 0.66167 0.92301 0.0
H843 H 0.55003 0.69238 0.98211 0.0
H844 H 0.49537 0.62847 0.94285 0.0
H845 H 0.57199 0.6088 0.94532 0.0
H846 H 0.5623 0.62599 0.99662 0.0
H847 H 0.56857 0.63385 0.9269 0.0
C848 C 0.52192 0.66276 0.07122 0.0
C849 C 0.53276 0.68 0.05204 0.0
C850 C 0.51996 0.64532 0.03737 0.0
C851 C 0.52892 0.64471 0.98389 0.0
C852 C 0.53986 0.66179 0.96456 0.0
H853 H 0.5002 0.55005 0.72875 0.0
H854 H 0.50745 0.58276 0.77654 0.0
C855 C 0.5418 0.67929 0.9984 0.0
C856 C 0.52621 0.62628 0.94797 0.0
H857 H 0.55006 0.58797 0.88963 0.0
C858 C 0.50732 0.61965 0.93088 0.0
C859 C 0.54186 0.61482 0.93289 0.0
C860 C 0.56233 0.62106 0.95159 0.0
C861 C 0.5036 0.60171 0.89941 0.0
C862 C 0.51923 0.59025 0.88432 0.0
C863 C 0.53816 0.59693 0.90103 0.0
C864 C 0.51596 0.5707 0.85392 0.0
C865 C 0.48289 0.59485 0.88395 0.0
C866 C 0.51878 0.55319 0.88128 0.0
C867 C 0.51472 0.53456 0.85409 0.0
C868 C 0.50795 0.53319 0.79897 0.0
C869 C 0.50549 0.55074 0.77121 0.0
C870 C 0.50952 0.56938 0.79847 0.0
H871 H 0.47215 0.60353 0.90747 0.0
H872 H 0.48113 0.59674 0.83842 0.0
H873 H 0.47948 0.57879 0.89232 0.0
H874 H 0.52376 0.55394 0.92408 0.0
H875 H 0.51679 0.52124 0.87629 0.0
H876 H 0.8325 0.3878 0.93295 0.0
H877 H 0.86303 0.39829 0.88272 0.0
H878 H 0.85529 0.4598 0.92693 0.0
H879 H 0.82514 0.44954 0.97829 0.0
H880 H 0.86621 0.45019 0.80778 0.0
H881 H 0.91379 0.42223 0.96642 0.0
H882 H 0.8941 0.40526 0.94009 0.0
H883 H 0.8888 0.42684 0.98232 0.0
C884 C 0.83735 0.40355 0.93226 0.0
C885 C 0.82636 0.41782 0.95973 0.0
C886 C 0.85472 0.4095 0.90334 0.0
C887 C 0.86136 0.42978 0.90142 0.0
C888 C 0.8503 0.44407 0.92779 0.0
H889 H 0.97129 0.49553 0.84135 0.0
H890 H 0.94014 0.47976 0.87671 0.0
C891 C 0.83302 0.43816 0.95688 0.0
C892 C 0.88015 0.43628 0.87348 0.0
H893 H 0.92934 0.43823 0.88929 0.0
C894 C 0.88004 0.44744 0.82513 0.0
C895 C 0.89808 0.43274 0.89673 0.0
C896 C 0.89887 0.42122 0.94944 0.0
C897 C 0.8975 0.45546 0.79975 0.0
C898 C 0.91544 0.45212 0.82343 0.0
C899 C 0.91553 0.44068 0.87126 0.0
C900 C 0.93425 0.4614 0.80138 0.0
C901 C 0.89664 0.46798 0.74898 0.0
C902 C 0.9413 0.4561 0.74757 0.0
C903 C 0.95912 0.46504 0.7274 0.0
C904 C 0.97006 0.47944 0.76074 0.0
C905 C 0.96309 0.48452 0.81479 0.0
C906 C 0.94533 0.47554 0.83499 0.0
H907 H 0.88171 0.47229 0.74255 0.0
H908 H 0.90679 0.48174 0.753 0.0
H909 H 0.90115 0.45932 0.711 0.0
H910 H 0.93309 0.44497 0.7214 0.0
H911 H 0.96435 0.46066 0.68586 0.0
H912 H 0.09684 0.18879 0.16235 0.0
H913 H 0.08416 0.16382 0.09234 0.0
H914 H 0.11876 0.19447 0.96316 0.0
H915 H 0.13196 0.21931 0.03386 0.0
H916 H 0.06304 0.16795 0.00282 0.0
H917 H 0.13276 0.13812 0.93493 0.0
H918 H 0.13076 0.15457 0.99606 0.0
H919 H 0.13243 0.16447 0.92701 0.0
C920 C 0.10172 0.19022 0.11898 0.0
C921 C 0.11533 0.20599 0.1034 0.0
C922 C 0.09451 0.17593 0.07904 0.0
C923 C 0.10066 0.17712 0.02258 0.0
C924 C 0.11414 0.19298 0.00668 0.0
H925 H 0.03393 0.10315 0.76993 0.0
H926 H 0.04991 0.13187 0.82253 0.0
C927 C 0.12159 0.2072 0.04693 0.0
C928 C 0.09248 0.16188 0.98083 0.0
H929 H 0.10458 0.12527 0.8864 0.0
C930 C 0.07213 0.15866 0.9772 0.0
C931 C 0.10437 0.14966 0.94784 0.0
C932 C 0.12628 0.1517 0.95187 0.0
C933 C 0.06329 0.1433 0.94249 0.0
C934 C 0.07516 0.13123 0.90896 0.0
C935 C 0.09553 0.13466 0.91178 0.0
C936 C 0.06669 0.11417 0.87345 0.0
C937 C 0.04133 0.13966 0.94403 0.0
C938 C 0.0715 0.09479 0.88277 0.0
C939 C 0.06265 0.07844 0.85213 0.0
C940 C 0.04878 0.08122 0.81194 0.0
C941 C 0.04441 0.10063 0.80129 0.0
C942 C 0.05345 0.11701 0.83147 0.0
H943 H 0.03481 0.14665 0.98224 0.0
H944 H 0.03546 0.14626 0.90693 0.0
H945 H 0.03657 0.12344 0.94284 0.0
H946 H 0.08175 0.09226 0.91478 0.0
H947 H 0.06631 0.0636 0.86089 0.0
H948 H 0.33996 0.03799 0.11283 0.0
H949 H 0.36369 0.02767 0.04244 0.0
H950 H 0.33024 0.04946 0.91179 0.0
H951 H 0.30611 0.05968 0.9822 0.0
H952 H 0.35996 0.00198 0.94348 0.0
H953 H 0.38469 0.08086 0.89749 0.0
H954 H 0.36976 0.07425 0.9585 0.0
H955 H 0.35911 0.07346 0.89051 0.0
C956 C 0.33733 0.04019 0.06906 0.0
C957 C 0.32111 0.04969 0.05318 0.0
C958 C 0.351 0.03437 0.0289 0.0
C959 C 0.34882 0.03803 0.97212 0.0
C960 C 0.33231 0.0468 0.95562 0.0
H961 H 0.43587 0.029 0.70161 0.0
H962 H 0.4054 0.03296 0.75371 0.0
C963 C 0.31857 0.05264 0.99585 0.0
C964 C 0.36449 0.03357 0.93113 0.0
H965 H 0.40109 0.05593 0.84988 0.0
C966 C 0.36887 0.01373 0.92257 0.0
C967 C 0.37606 0.04897 0.90407 0.0
C968 C 0.37234 0.07062 0.9132 0.0
C969 C 0.38471 0.00888 0.88802 0.0
C970 C 0.39665 0.02434 0.86239 0.0
C971 C 0.39191 0.04412 0.86969 0.0
C972 C 0.41463 0.02056 0.82978 0.0
C973 C 0.3885 0.98725 0.87923 0.0
C974 C 0.42996 0.01231 0.85535 0.0
C975 C 0.44744 0.01 0.82569 0.0
C976 C 0.44997 0.01613 0.77012 0.0
C977 C 0.4345 0.02425 0.74452 0.0
C978 C 0.41702 0.02647 0.77412 0.0
H979 H 0.3751 0.97715 0.88715 0.0
H980 H 0.39404 0.98412 0.83588 0.0
H981 H 0.39964 0.98372 0.90906 0.0
H982 H 0.42858 0.00808 0.89871 0.0
H983 H 0.45907 0.00376 0.84669 0.0
H984 H 0.42264 0.3165 0.09845 0.0
H985 H 0.43506 0.34072 0.02995 0.0
H986 H 0.39579 0.3123 0.90698 0.0
H987 H 0.38313 0.28793 0.97579 0.0
H988 H 0.45273 0.33655 0.92646 0.0
H989 H 0.38243 0.37002 0.9103 0.0
H990 H 0.38663 0.35297 0.96413 0.0
H991 H 0.38152 0.34368 0.89384 0.0
C992 C 0.41684 0.31516 0.05657 0.0
C993 C 0.40189 0.30027 0.04255 0.0
C994 C 0.42389 0.3291 0.01753 0.0
C995 C 0.41615 0.32851 0.96364 0.0
C996 C 0.40167 0.31329 0.94874 0.0
H997 H 0.47431 0.40823 0.71426 0.0
H998 H 0.459 0.37816 0.75802 0.0
C999 C 0.3945 0.29936 0.988 0.0
C1000 C 0.42315 0.34418 0.92405 0.0
H1001 H 0.40893 0.38374 0.85553 0.0
C1002 C 0.44314 0.34677 0.91048 0.0
C1003 C 0.41061 0.35762 0.90383 0.0
C1004 C 0.38913 0.35612 0.91902 0.0
C1005 C 0.45106 0.36271 0.87841 0.0
C1006 C 0.43853 0.37617 0.85823 0.0
C1007 C 0.41846 0.37331 0.87068 0.0
C1008 C 0.4462 0.39421 0.82816 0.0
C1009 C 0.47287 0.36552 0.86875 0.0
C1010 C 0.4433 0.4132 0.85162 0.0
C1011 C 0.45179 0.43035 0.82634 0.0
C1012 C 0.46336 0.42877 0.77725 0.0
C1013 C 0.4656 0.40981 0.75245 0.0
C1014 C 0.45697 0.39265 0.77754 0.0
H1015 H 0.48068 0.3567 0.89771 0.0
H1016 H 0.47648 0.36049 0.82512 0.0
H1017 H 0.47839 0.38148 0.87439 0.0
H1018 H 0.43497 0.41475 0.89052 0.0
H1019 H 0.44981 0.4448 0.8462 0.0
H1020 H 0.20641 0.48391 0.97905 0.0
H1021 H 0.18107 0.49002 0.91491 0.0
H1022 H 0.19239 0.5534 0.94751 0.0
H1023 H 0.21842 0.54751 0.01105 0.0
H1024 H 0.15334 0.53828 0.96623 0.0
H1025 H 0.1804 0.51255 0.75733 0.0
H1026 H 0.18285 0.49502 0.8108 0.0
H1027 H 0.19638 0.51918 0.81533 0.0
C1028 C 0.20413 0.49923 0.97125 0.0
C1029 C 0.2146 0.51522 0.00038 0.0
C1030 C 0.18952 0.50268 0.9345 0.0
C1031 C 0.18498 0.52216 0.92595 0.0
C1032 C 0.19576 0.53824 0.95334 0.0
H1033 H 0.08637 0.53973 0.71034 0.0
H1034 H 0.11875 0.54461 0.75228 0.0
C1035 C 0.21054 0.53482 0.9899 0.0
C1036 C 0.16752 0.52531 0.89377 0.0
H1037 H 0.14555 0.51317 0.76876 0.0
C1038 C 0.15177 0.53317 0.9227 0.0
C1039 C 0.16552 0.51875 0.83691 0.0
C1040 C 0.18226 0.51108 0.80306 0.0
C1041 C 0.1337 0.53351 0.8973 0.0
C1042 C 0.13133 0.52568 0.84175 0.0
C1043 C 0.14738 0.51897 0.8116 0.0
C1044 C 0.11192 0.52294 0.81606 0.0
C1045 C 0.11709 0.54171 0.93056 0.0
C1046 C 0.09757 0.50895 0.83762 0.0
C1047 C 0.07923 0.50606 0.81364 0.0
C1048 C 0.07491 0.51717 0.76783 0.0
C1049 C 0.08932 0.53109 0.74594 0.0
C1050 C 0.10778 0.53386 0.7697 0.0
H1051 H 0.12238 0.55155 0.96656 0.0
H1052 H 0.10829 0.55027 0.90351 0.0
H1053 H 0.1074 0.52914 0.9474 0.0
H1054 H 0.10061 0.5002 0.87291 0.0
H1055 H 0.06839 0.49518 0.83113 0.0
H1056 H 0.95149 0.79782 0.40278 0.0
H1057 H 0.94766 0.82766 0.46177 0.0
H1058 H 0.91404 0.85088 0.33368 0.0
H1059 H 0.91861 0.82137 0.27326 0.0
H1060 H 0.94452 0.87575 0.3589 0.0
H1061 H 0.90817 0.85347 0.55833 0.0
H1062 H 0.92788 0.83849 0.54217 0.0
H1063 H 0.9074 0.83711 0.49629 0.0
C1064 C 0.94287 0.80906 0.38771 0.0
C1065 C 0.9356 0.80737 0.33305 0.0
C1066 C 0.94046 0.82603 0.42185 0.0
C1067 C 0.93045 0.84151 0.4024 0.0
C1068 C 0.92175 0.83908 0.34967 0.0
H1069 H 0.94801 0.96601 0.53509 0.0
H1070 H 0.93216 0.9359 0.48804 0.0
C1071 C 0.92427 0.82213 0.31529 0.0
C1072 C 0.93221 0.86131 0.43246 0.0
H1073 H 0.9307 0.88375 0.56345 0.0
C1074 C 0.94099 0.87764 0.40331 0.0
C1075 C 0.92768 0.86379 0.49045 0.0
C1076 C 0.91707 0.84729 0.52337 0.0
C1077 C 0.94658 0.89591 0.43123 0.0
C1078 C 0.94314 0.89797 0.48979 0.0
C1079 C 0.93344 0.88204 0.51855 0.0
C1080 C 0.95117 0.91589 0.52227 0.0
C1081 C 0.9572 0.91251 0.39853 0.0
C1082 C 0.96676 0.91446 0.55797 0.0
C1083 C 0.97584 0.93157 0.58462 0.0
C1084 C 0.96938 0.95035 0.57616 0.0
C1085 C 0.95333 0.95169 0.54196 0.0
C1086 C 0.94428 0.93456 0.51514 0.0
H1087 H 0.96112 0.90752 0.35501 0.0
H1088 H 0.94776 0.92491 0.39617 0.0
H1089 H 0.97073 0.91845 0.42004 0.0
H1090 H 0.97229 0.90017 0.56388 0.0
H1091 H 0.98811 0.93013 0.61112 0.0
H1092 H 0.71421 0.04905 0.43449 0.0
H1093 H 0.68594 0.04022 0.49617 0.0
H1094 H 0.65876 0.004 0.36152 0.0
H1095 H 0.68674 0.01272 0.29999 0.0
H1096 H 0.64982 0.05027 0.47535 0.0
H1097 H 0.64698 0.96847 0.49317 0.0
H1098 H 0.66859 0.98323 0.46892 0.0
H1099 H 0.64921 0.97554 0.42141 0.0
C1100 C 0.70237 0.03888 0.41847 0.0
C1101 C 0.70275 0.03157 0.36237 0.0
C1102 C 0.68627 0.03381 0.45376 0.0
C1103 C 0.67034 0.02127 0.43363 0.0
C1104 C 0.67108 0.01327 0.37846 0.0
H1105 H 0.54864 0.02368 0.51329 0.0
H1106 H 0.58176 0.0263 0.47297 0.0
C1107 C 0.68715 0.01828 0.34326 0.0
C1108 C 0.65197 0.01856 0.46735 0.0
H1109 H 0.61677 0.98328 0.51207 0.0
C1110 C 0.64274 0.03563 0.48415 0.0
C1111 C 0.64281 0.99947 0.47922 0.0
C1112 C 0.65252 0.98065 0.46524 0.0
C1113 C 0.62422 0.03409 0.51028 0.0
C1114 C 0.61453 0.01498 0.5188 0.0
C1115 C 0.62411 0.99792 0.50448 0.0
C1116 C 0.59436 0.01247 0.54194 0.0
C1117 C 0.61513 0.05295 0.52827 0.0
C1118 C 0.59041 0.00323 0.59311 0.0
C1119 C 0.57149 0.00156 0.61605 0.0
C1120 C 0.55615 0.00905 0.58808 0.0
C1121 C 0.5601 0.01783 0.53603 0.0
C1122 C 0.57903 0.01945 0.51308 0.0
H1123 H 0.62629 0.0659 0.53279 0.0
H1124 H 0.60479 0.0564 0.49599 0.0
H1125 H 0.60693 0.05116 0.5688 0.0
H1126 H 0.60204 0.99772 0.61591 0.0
H1127 H 0.56903 0.9948 0.65638 0.0
H1128 H 0.53212 0.69995 0.40465 0.0
H1129 H 0.53633 0.67288 0.46588 0.0
H1130 H 0.59825 0.68971 0.46809 0.0
H1131 H 0.59413 0.71704 0.40554 0.0
H1132 H 0.59115 0.65075 0.44806 0.0
H1133 H 0.54529 0.67098 0.63008 0.0
H1134 H 0.5315 0.67136 0.56767 0.0
H1135 H 0.553 0.68853 0.57686 0.0
C1136 C 0.5466 0.69833 0.41933 0.0
C1137 C 0.56276 0.71087 0.40081 0.0
C1138 C 0.54898 0.6828 0.45456 0.0
C1139 C 0.56753 0.67952 0.47289 0.0
C1140 C 0.58376 0.6921 0.45501 0.0
H1141 H 0.55444 0.57683 0.68986 0.0
H1142 H 0.56662 0.61023 0.66001 0.0
C1143 C 0.58139 0.70767 0.41923 0.0
C1144 C 0.5698 0.66178 0.5063 0.0
H1145 H 0.54754 0.63519 0.61251 0.0
C1146 C 0.58197 0.64753 0.48488 0.0
C1147 C 0.55833 0.65772 0.55536 0.0
C1148 C 0.5465 0.67311 0.5841 0.0
C1149 C 0.58163 0.62869 0.50823 0.0
C1150 C 0.5683 0.62377 0.55292 0.0
C1151 C 0.55746 0.63867 0.57743 0.0
C1152 C 0.5638 0.60293 0.57107 0.0
C1153 C 0.59532 0.61418 0.48388 0.0
C1154 C 0.55835 0.58762 0.53119 0.0
C1155 C 0.55173 0.56852 0.54814 0.0
C1156 C 0.54997 0.56446 0.60538 0.0
C1157 C 0.55574 0.57959 0.64541 0.0
C1158 C 0.56266 0.59866 0.62837 0.0
H1159 H 0.60919 0.62221 0.46886 0.0
H1160 H 0.59871 0.60329 0.51504 0.0
H1161 H 0.58853 0.60593 0.44709 0.0
H1162 H 0.55838 0.5906 0.48692 0.0
H1163 H 0.54717 0.55718 0.51646 0.0
H1164 H 0.81329 0.40617 0.30788 0.0
H1165 H 0.83735 0.42004 0.37509 0.0
H1166 H 0.80627 0.47253 0.40048 0.0
H1167 H 0.78223 0.45879 0.33182 0.0
H1168 H 0.84338 0.48281 0.38271 0.0
H1169 H 0.83772 0.42548 0.54208 0.0
H1170 H 0.84149 0.41412 0.47388 0.0
H1171 H 0.8196 0.42625 0.48921 0.0
C1172 C 0.81128 0.42045 0.32878 0.0
C1173 C 0.79577 0.43132 0.31489 0.0
C1174 C 0.82504 0.42835 0.36746 0.0
C1175 C 0.82344 0.44715 0.39392 0.0
C1176 C 0.80774 0.45791 0.38096 0.0
H1177 H 0.9148 0.48605 0.63683 0.0
H1178 H 0.88241 0.47729 0.59759 0.0
C1179 C 0.79404 0.45009 0.3417 0.0
C1180 C 0.83923 0.45623 0.43063 0.0
H1181 H 0.86883 0.44561 0.53568 0.0
C1182 C 0.84869 0.47483 0.41687 0.0
C1183 C 0.84599 0.44611 0.47609 0.0
C1184 C 0.83549 0.427 0.49654 0.0
C1185 C 0.86542 0.48294 0.44485 0.0
C1186 C 0.87327 0.47187 0.48655 0.0
C1187 C 0.86308 0.45392 0.50291 0.0
C1188 C 0.89263 0.47795 0.51086 0.0
C1189 C 0.87461 0.50321 0.4289 0.0
C1190 C 0.90915 0.48095 0.47532 0.0
C1191 C 0.92753 0.48608 0.4976 0.0
C1192 C 0.92981 0.48797 0.55591 0.0
C1193 C 0.91338 0.48473 0.59168 0.0
C1194 C 0.89491 0.47974 0.56931 0.0
H1195 H 0.86355 0.51246 0.41314 0.0
H1196 H 0.88194 0.51137 0.46503 0.0
H1197 H 0.88559 0.50135 0.3946 0.0
H1198 H 0.9079 0.47902 0.43021 0.0
H1199 H 0.94 0.48829 0.46912 0.0
loop_
_geom_bond_atom_site_label_1
_geom_bond_atom_site_label_2
_geom_bond_distance
_geom_bond_site_symmetry_2
_ccdc_geom_bond_type
P0 O11 1.490 . S
P0 C14 1.812 . S
P0 C20 1.803 . S
P0 C26 1.819 . S
H1 C15 0.941 . S
H2 C16 0.939 . S
H3 C18 0.940 . S
H4 C19 0.940 . S
H5 C21 0.939 . S
H6 C22 0.942 1_556 S
H7 C24 0.940 . S
H8 C25 0.939 . S
H9 C27 0.941 . S
H10 C31 0.939 . S
O11 P0 1.490 . S
H12 C28 0.939 . S
H13 C30 0.940 . S
C14 P0 1.812 . S
C14 C15 1.389 . S
C14 C19 1.391 . S
C15 H1 0.941 . S
C15 C14 1.389 . S
C15 C16 1.397 . S
C16 H2 0.939 . S
C16 C15 1.397 . S
C16 C17 1.378 . S
C17 C16 1.378 . S
C17 C18 1.378 . S
C18 H3 0.940 . S
C18 C17 1.378 . S
C18 C19 1.396 . S
C19 H4 0.940 . S
C19 C14 1.391 . S
C19 C18 1.396 . S
C20 P0 1.803 . S
C20 C21 1.378 . S
C20 C25 1.400 . S
C21 H5 0.939 . S
C21 C20 1.378 . S
C21 C22 1.361 . S
C22 H6 0.942 1_554 S
C22 C21 1.361 . S
C22 C23 1.369 . S
C23 C22 1.369 . S
C23 C24 1.404 . S
C24 H7 0.940 . S
C24 C23 1.404 . S
C24 C25 1.389 . S
C25 H8 0.939 . S
C25 C20 1.400 . S
C25 C24 1.389 . S
C26 P0 1.819 . S
C26 C27 1.391 . S
C26 C31 1.391 1_554 S
C27 H9 0.941 . S
C27 C26 1.391 . S
C27 C28 1.396 1_554 S
C28 H12 0.939 . S
C28 C27 1.396 1_556 S
C28 C29 1.397 . S
C29 C28 1.397 . S
C29 C30 1.385 . S
C30 H13 0.940 . S
C30 C29 1.385 . S
C30 C31 1.388 . S
C31 H10 0.939 . S
C31 C26 1.391 1_556 S
C31 C30 1.388 . S
P32 O43 1.490 . S
P32 C46 1.812 . S
P32 C52 1.803 . S
P32 C58 1.819 1_554 S
H33 C47 0.941 . S
H34 C48 0.939 . S
H35 C50 0.940 . S
H36 C51 0.940 . S
H37 C53 0.939 . S
H38 C54 0.942 . S
H39 C56 0.940 . S
H40 C57 0.939 . S
H41 C59 0.941 1_554 S
H42 C63 0.939 . S
O43 P32 1.490 . S
H44 C60 0.939 . S
H45 C62 0.940 . S
C46 P32 1.812 . S
C46 C47 1.389 . S
C46 C51 1.391 . S
C47 H33 0.941 . S
C47 C46 1.389 . S
C47 C48 1.397 . S
C48 H34 0.939 . S
C48 C47 1.397 . S
C48 C49 1.378 . S
C49 C48 1.378 . S
C49 C50 1.378 . S
C50 H35 0.940 . S
C50 C49 1.378 . S
C50 C51 1.396 . S
C51 H36 0.940 . S
C51 C46 1.391 . S
C51 C50 1.396 . S
C52 P32 1.803 . S
C52 C53 1.378 1_554 S
C52 C57 1.400 . S
C53 H37 0.939 . S
C53 C52 1.378 1_556 S
C53 C54 1.361 . S
C54 H38 0.942 . S
C54 C53 1.361 . S
C54 C55 1.369 . S
C55 C54 1.369 . S
C55 C56 1.404 1_556 S
C56 H39 0.940 . S
C56 C55 1.404 1_554 S
C56 C57 1.389 . S
C57 H40 0.939 . S
C57 C52 1.400 . S
C57 C56 1.389 . S
C58 P32 1.819 1_556 S
C58 C59 1.391 . S
C58 C63 1.391 . S
C59 H41 0.941 1_556 S
C59 C58 1.391 . S
C59 C60 1.396 . S
C60 H44 0.939 . S
C60 C59 1.396 . S
C60 C61 1.397 . S
C61 C60 1.397 . S
C61 C62 1.385 . S
C62 H45 0.940 . S
C62 C61 1.385 . S
C62 C63 1.388 . S
C63 H42 0.939 . S
C63 C58 1.391 . S
C63 C62 1.388 . S
P64 O75 1.490 . S
P64 C78 1.812 . S
P64 C84 1.803 . S
P64 C90 1.819 . S
H65 C79 0.941 . S
H66 C80 0.939 . S
H67 C82 0.940 . S
H68 C83 0.949 . S
H69 C85 0.939 . S
H70 C86 0.942 . S
H71 C88 0.940 . S
H72 C89 0.958 . S
H73 C91 0.941 . S
H74 C95 0.926 1_565 S
O75 P64 1.490 . S
H76 C92 0.939 . S
H77 C94 0.940 . S
C78 P64 1.812 . S
C78 C79 1.389 . S
C78 C83 1.376 1_545 S
C79 H65 0.941 . S
C79 C78 1.389 . S
C79 C80 1.397 . S
C80 H66 0.939 . S
C80 C79 1.397 . S
C80 C81 1.378 . S
C81 C80 1.378 . S
C81 C82 1.378 1_545 S
C82 H67 0.940 . S
C82 C81 1.378 1_565 S
C82 C83 1.403 . S
C83 H68 0.949 . S
C83 C78 1.376 1_565 S
C83 C82 1.403 . S
C84 P64 1.803 . S
C84 C85 1.378 . S
C84 C89 1.367 1_545 S
C85 H69 0.939 . S
C85 C84 1.378 . S
C85 C86 1.361 . S
C86 H70 0.942 . S
C86 C85 1.361 . S
C86 C87 1.369 . S
C87 C86 1.369 . S
C87 C88 1.404 1_545 S
C88 H71 0.940 . S
C88 C87 1.404 1_565 S
C88 C89 1.404 . S
C89 H72 0.958 . S
C89 C84 1.367 1_565 S
C89 C88 1.404 . S
C90 P64 1.819 . S
C90 C91 1.391 . S
C90 C95 1.391 . S
C91 H73 0.941 . S
C91 C90 1.391 . S
C91 C92 1.396 . S
C92 H76 0.939 . S
C92 C91 1.396 . S
C92 C93 1.397 1_554 S
C93 C92 1.397 1_556 S
C93 C94 1.385 1_545 S
C94 H77 0.940 . S
C94 C93 1.385 1_565 S
C94 C95 1.388 1_566 S
C95 H74 0.926 1_545 S
C95 C90 1.391 . S
C95 C94 1.388 1_544 S
P96 O107 1.490 . S
P96 C110 1.812 . S
P96 C116 1.803 . S
P96 C122 1.819 . S
H97 C111 0.941 . S
H98 C112 0.939 . S
H99 C114 0.940 . S
H100 C115 0.940 . S
H101 C117 0.939 . S
H102 C118 0.942 . S
H103 C120 0.940 . S
H104 C121 0.939 . S
H105 C123 0.941 . S
H106 C127 0.940 . S
O107 P96 1.490 . S
H108 C124 0.939 . S
H109 C126 0.940 . S
C110 P96 1.812 . S
C110 C111 1.389 . S
C110 C115 1.391 . S
C111 H97 0.941 . S
C111 C110 1.389 . S
C111 C112 1.397 . S
C112 H98 0.939 . S
C112 C111 1.397 . S
C112 C113 1.378 . S
C113 C112 1.378 . S
C113 C114 1.378 . S
C114 H99 0.940 . S
C114 C113 1.378 . S
C114 C115 1.396 . S
C115 H100 0.940 . S
C115 C110 1.391 . S
C115 C114 1.396 . S
C116 P96 1.803 . S
C116 C117 1.378 . S
C116 C121 1.400 . S
C117 H101 0.939 . S
C117 C116 1.378 . S
C117 C118 1.361 . S
C118 H102 0.942 . S
C118 C117 1.361 . S
C118 C119 1.369 . S
C119 C118 1.369 . S
C119 C120 1.404 . S
C120 H103 0.940 . S
C120 C119 1.404 . S
C120 C121 1.389 . S
C121 H104 0.939 . S
C121 C116 1.400 . S
C121 C120 1.389 . S
C122 P96 1.819 . S
C122 C123 1.391 . S
C122 C127 1.385 1_554 S
C123 H105 0.941 . S
C123 C122 1.391 . S
C123 C124 1.396 1_554 S
C124 H108 0.939 . S
C124 C123 1.396 1_556 S
C124 C125 1.397 . S
C125 C124 1.397 . S
C125 C126 1.385 . S
C126 H109 0.940 . S
C126 C125 1.385 . S
C126 C127 1.394 . S
C127 H106 0.940 . S
C127 C122 1.385 1_556 S
C127 C126 1.394 . S
P128 O139 1.490 . S
P128 C142 1.812 . S
P128 C148 1.803 . S
P128 C154 1.819 . S
H129 C143 0.941 . S
H130 C144 0.939 . S
H131 C146 0.940 . S
H132 C147 0.940 . S
H133 C149 0.939 . S
H134 C150 0.942 . S
H135 C152 0.940 . S
H136 C153 0.939 . S
H137 C155 0.941 . S
H138 C159 0.939 . S
O139 P128 1.490 . S
H140 C156 0.939 . S
H141 C158 0.940 . S
C142 P128 1.812 . S
C142 C143 1.389 . S
C142 C147 1.391 . S
C143 H129 0.941 . S
C143 C142 1.389 . S
C143 C144 1.397 . S
C144 H130 0.939 . S
C144 C143 1.397 . S
C144 C145 1.378 . S
C145 C144 1.378 . S
C145 C146 1.378 . S
C146 H131 0.940 . S
C146 C145 1.378 . S
C146 C147 1.396 . S
C147 H132 0.940 . S
C147 C142 1.391 . S
C147 C146 1.396 . S
C148 P128 1.803 . S
C148 C149 1.378 . S
C148 C153 1.400 . S
C149 H133 0.939 . S
C149 C148 1.378 . S
C149 C150 1.361 . S
C150 H134 0.942 . S
C150 C149 1.361 . S
C150 C151 1.369 . S
C151 C150 1.369 . S
C151 C152 1.404 . S
C152 H135 0.940 . S
C152 C151 1.404 . S
C152 C153 1.389 . S
C153 H136 0.939 . S
C153 C148 1.400 . S
C153 C152 1.389 . S
C154 P128 1.819 . S
C154 C155 1.391 . S
C154 C159 1.391 . S
C155 H137 0.941 . S
C155 C154 1.391 . S
C155 C156 1.396 . S
C156 H140 0.939 . S
C156 C155 1.396 . S
C156 C157 1.397 . S
C157 C156 1.397 . S
C157 C158 1.385 . S
C158 H141 0.940 . S
C158 C157 1.385 . S
C158 C159 1.388 . S
C159 H138 0.939 . S
C159 C154 1.391 . S
C159 C158 1.388 . S
P160 O171 1.490 . S
P160 C174 1.812 . S
P160 C180 1.803 . S
P160 C186 1.819 . S
H161 C175 0.941 . S
H162 C176 0.939 . S
H163 C178 0.940 . S
H164 C179 0.940 . S
H165 C181 0.939 . S
H166 C182 0.942 . S
H167 C184 0.940 . S
H168 C185 0.939 . S
H169 C187 0.941 . S
H170 C191 0.939 . S
O171 P160 1.490 . S
H172 C188 0.939 . S
H173 C190 0.940 . S
C174 P160 1.812 . S
C174 C175 1.389 . S
C174 C179 1.391 . S
C175 H161 0.941 . S
C175 C174 1.389 . S
C175 C176 1.397 . S
C176 H162 0.939 . S
C176 C175 1.397 . S
C176 C177 1.378 . S
C177 C176 1.378 . S
C177 C178 1.378 . S
C178 H163 0.940 . S
C178 C177 1.378 . S
C178 C179 1.396 . S
C179 H164 0.940 . S
C179 C174 1.391 . S
C179 C178 1.396 . S
C180 P160 1.803 . S
C180 C181 1.378 . S
C180 C185 1.400 . S
C181 H165 0.939 . S
C181 C180 1.378 . S
C181 C182 1.361 . S
C182 H166 0.942 . S
C182 C181 1.361 . S
C182 C183 1.369 . S
C183 C182 1.369 . S
C183 C184 1.404 . S
C184 H167 0.940 . S
C184 C183 1.404 . S
C184 C185 1.389 . S
C185 H168 0.939 . S
C185 C180 1.400 . S
C185 C184 1.389 . S
C186 P160 1.819 . S
C186 C187 1.391 . S
C186 C191 1.391 . S
C187 H169 0.941 . S
C187 C186 1.391 . S
C187 C188 1.396 . S
C188 H172 0.939 . S
C188 C187 1.396 . S
C188 C189 1.397 . S
C189 C188 1.397 . S
C189 C190 1.385 . S
C190 H173 0.940 . S
C190 C189 1.385 . S
C190 C191 1.388 . S
C191 H170 0.939 . S
C191 C186 1.391 . S
C191 C190 1.388 . S
P192 O203 1.490 . S
P192 C206 1.812 . S
P192 C212 1.803 . S
P192 C218 1.819 . S
H193 C207 0.941 . S
H194 C208 0.939 . S
H195 C210 0.940 1_565 S
H196 C211 0.940 . S
H197 C213 0.939 . S
H198 C214 0.942 . S
H199 C216 0.940 1_565 S
H200 C217 0.939 . S
H201 C219 0.941 . S
H202 C223 0.939 . S
O203 P192 1.490 . S
H204 C220 0.939 . S
H205 C222 0.940 . S
C206 P192 1.812 . S
C206 C207 1.389 . S
C206 C211 1.391 . S
C207 H193 0.941 . S
C207 C206 1.389 . S
C207 C208 1.397 . S
C208 H194 0.939 . S
C208 C207 1.397 . S
C208 C209 1.378 . S
C209 C208 1.378 . S
C209 C210 1.378 . S
C210 H195 0.940 1_545 S
C210 C209 1.378 . S
C210 C211 1.396 . S
C211 H196 0.940 . S
C211 C206 1.391 . S
C211 C210 1.396 . S
C212 P192 1.803 . S
C212 C213 1.378 . S
C212 C217 1.400 . S
C213 H197 0.939 . S
C213 C212 1.378 . S
C213 C214 1.361 . S
C214 H198 0.942 . S
C214 C213 1.361 . S
C214 C215 1.369 . S
C215 C214 1.369 . S
C215 C216 1.404 . S
C216 H199 0.940 1_545 S
C216 C215 1.404 . S
C216 C217 1.389 . S
C217 H200 0.939 . S
C217 C212 1.400 . S
C217 C216 1.389 . S
C218 P192 1.819 . S
C218 C219 1.391 . S
C218 C223 1.391 . S
C219 H201 0.941 . S
C219 C218 1.391 . S
C219 C220 1.396 . S
C220 H204 0.939 . S
C220 C219 1.396 . S
C220 C221 1.397 . S
C221 C220 1.397 . S
C221 C222 1.385 . S
C222 H205 0.940 . S
C222 C221 1.385 . S
C222 C223 1.388 . S
C223 H202 0.939 . S
C223 C218 1.391 . S
C223 C222 1.388 . S
P224 O235 1.490 . S
P224 C238 1.812 . S
P224 C244 1.803 . S
P224 C250 1.819 . S
H225 C239 0.941 . S
H226 C240 0.939 . S
H227 C242 0.940 . S
H228 C243 0.940 . S
H229 C245 0.939 . S
H230 C246 0.942 . S
H231 C248 0.940 . S
H232 C249 0.939 . S
H233 C251 0.941 . S
H234 C255 0.939 . S
O235 P224 1.490 . S
H236 C252 0.939 . S
H237 C254 0.940 . S
C238 P224 1.812 . S
C238 C239 1.389 . S
C238 C243 1.391 . S
C239 H225 0.941 . S
C239 C238 1.389 . S
C239 C240 1.397 . S
C240 H226 0.939 . S
C240 C239 1.397 . S
C240 C241 1.378 . S
C241 C240 1.378 . S
C241 C242 1.378 . S
C242 H227 0.940 . S
C242 C241 1.378 . S
C242 C243 1.396 . S
C243 H228 0.940 . S
C243 C238 1.391 . S
C243 C242 1.396 . S
C244 P224 1.803 . S
C244 C245 1.378 . S
C244 C249 1.400 . S
C245 H229 0.939 . S
C245 C244 1.378 . S
C245 C246 1.361 . S
C246 H230 0.942 . S
C246 C245 1.361 . S
C246 C247 1.369 . S
C247 C246 1.369 . S
C247 C248 1.404 . S
C248 H231 0.940 . S
C248 C247 1.404 . S
C248 C249 1.389 . S
C249 H232 0.939 . S
C249 C244 1.400 . S
C249 C248 1.389 . S
C250 P224 1.819 . S
C250 C251 1.391 . S
C250 C255 1.391 . S
C251 H233 0.941 . S
C251 C250 1.391 . S
C251 C252 1.396 . S
C252 H236 0.939 . S
C252 C251 1.396 . S
C252 C253 1.397 . S
C253 C252 1.397 . S
C253 C254 1.385 . S
C254 H237 0.940 . S
C254 C253 1.385 . S
C254 C255 1.388 . S
C255 H234 0.939 . S
C255 C250 1.391 . S
C255 C254 1.388 . S
Tb256 O259 2.453 1_655 S
Tb256 O260 2.596 1_655 S
Tb256 O261 2.374 1_645 S
Tb256 O269 2.343 1_545 S
Tb256 O271 2.353 . S
Tb256 O273 2.427 1_545 S
Tb256 O274 2.513 1_545 S
C257 O261 1.251 1_545 S
C257 O263 1.263 . S
Tb258 O260 2.343 . S
Tb258 O263 2.353 . S
Tb258 O266 2.427 . S
Tb258 O267 2.513 . S
Tb258 O268 2.453 1_545 S
Tb258 O269 2.596 1_445 S
Tb258 O270 2.374 1_455 S
O259 Tb256 2.453 1_455 S
O259 C275 1.245 . S
O260 Tb256 2.596 1_455 S
O260 Tb258 2.343 . S
O260 C275 1.259 . S
O261 Tb256 2.374 1_465 S
O261 C257 1.251 1_565 S
C262 O266 1.275 . S
C262 O267 1.246 . S
O263 C257 1.263 . S
O263 Tb258 2.353 . S
C264 O268 1.245 1_655 S
C264 O269 1.259 . S
C265 O270 1.250 . S
C265 O271 1.263 . S
O266 Tb258 2.427 . S
O266 C262 1.275 . S
O267 Tb258 2.513 . S
O267 C262 1.246 . S
O268 Tb258 2.453 1_565 S
O268 C264 1.245 1_455 S
O269 Tb256 2.343 1_565 S
O269 Tb258 2.596 1_665 S
O269 C264 1.259 . S
O270 Tb258 2.374 1_655 S
O270 C265 1.250 . S
O271 Tb256 2.353 . S
O271 C265 1.263 . S
C272 O273 1.275 . S
C272 O274 1.246 . S
O273 Tb256 2.427 1_565 S
O273 C272 1.275 . S
O274 Tb256 2.513 1_565 S
O274 C272 1.246 . S
C275 O259 1.245 . S
C275 O260 1.259 . S
Tb276 O279 2.453 . S
Tb276 O280 2.596 . S
Tb276 O281 2.374 . S
Tb276 O289 2.343 . S
Tb276 O291 2.353 . S
Tb276 O293 2.427 . S
Tb276 O294 2.513 . S
C277 O281 1.251 . S
C277 O283 1.263 1_545 S
Tb278 O280 2.343 1_565 S
Tb278 O283 2.353 . S
Tb278 O286 2.427 . S
Tb278 O287 2.513 . S
Tb278 O288 2.453 . S
Tb278 O289 2.596 1_565 S
Tb278 O290 2.374 . S
O279 Tb276 2.453 . S
O279 C295 1.245 . S
O280 Tb276 2.596 . S
O280 Tb278 2.343 1_545 S
O280 C295 1.259 . S
O281 Tb276 2.374 . S
O281 C277 1.251 . S
C282 O286 1.275 . S
C282 O287 1.246 . S
O283 C277 1.263 1_565 S
O283 Tb278 2.353 . S
C284 O288 1.245 1_545 S
C284 O289 1.259 . S
C285 O290 1.250 1_545 S
C285 O291 1.263 . S
O286 Tb278 2.427 . S
O286 C282 1.275 . S
O287 Tb278 2.513 . S
O287 C282 1.246 . S
O288 Tb278 2.453 . S
O288 C284 1.245 1_565 S
O289 Tb276 2.343 . S
O289 Tb278 2.596 1_545 S
O289 C284 1.259 . S
O290 Tb278 2.374 . S
O290 C285 1.250 1_565 S
O291 Tb276 2.353 . S
O291 C285 1.263 . S
C292 O293 1.275 . S
C292 O294 1.246 . S
O293 Tb276 2.427 . S
O293 C292 1.275 . S
O294 Tb276 2.513 . S
O294 C292 1.246 . S
C295 O279 1.245 . S
C295 O280 1.259 . S
Tb296 O299 2.453 . S
Tb296 O300 2.596 . S
Tb296 O301 2.374 . S
Tb296 O309 2.343 . S
Tb296 O311 2.353 . S
Tb296 O313 2.427 . S
Tb296 O314 2.513 . S
C297 O301 1.251 . S
C297 O303 1.263 . S
Tb298 O300 2.343 . S
Tb298 O303 2.353 . S
Tb298 O306 2.427 . S
Tb298 O307 2.513 . S
Tb298 O308 2.453 . S
Tb298 O309 2.596 . S
Tb298 O310 2.374 . S
O299 Tb296 2.453 . S
O299 C315 1.245 . S
O300 Tb296 2.596 . S
O300 Tb298 2.343 . S
O300 C315 1.259 . S
O301 Tb296 2.374 . S
O301 C297 1.251 . S
C302 O306 1.275 . S
C302 O307 1.246 . S
O303 C297 1.263 . S
O303 Tb298 2.353 . S
C304 O308 1.245 . S
C304 O309 1.259 . S
C305 O310 1.250 . S
C305 O311 1.263 . S
O306 Tb298 2.427 . S
O306 C302 1.275 . S
O307 Tb298 2.513 . S
O307 C302 1.246 . S
O308 Tb298 2.453 . S
O308 C304 1.245 . S
O309 Tb296 2.343 . S
O309 Tb298 2.596 . S
O309 C304 1.259 . S
O310 Tb298 2.374 . S
O310 C305 1.250 . S
O311 Tb296 2.353 . S
O311 C305 1.263 . S
C312 O313 1.275 . S
C312 O314 1.246 . S
O313 Tb296 2.427 . S
O313 C312 1.275 . S
O314 Tb296 2.513 . S
O314 C312 1.246 . S
C315 O299 1.245 . S
C315 O300 1.259 . S
Tb316 O319 2.453 1_655 S
Tb316 O320 2.596 1_655 S
Tb316 O321 2.374 1_655 S
Tb316 O329 2.343 . S
Tb316 O331 2.353 . S
Tb316 O333 2.427 . S
Tb316 O334 2.513 . S
C317 O321 1.251 . S
C317 O323 1.263 . S
Tb318 O320 2.343 . S
Tb318 O323 2.353 . S
Tb318 O326 2.427 . S
Tb318 O327 2.513 . S
Tb318 O328 2.453 1_455 S
Tb318 O329 2.596 1_455 S
Tb318 O330 2.374 . S
O319 Tb316 2.453 1_455 S
O319 C335 1.245 . S
O320 Tb316 2.596 1_455 S
O320 Tb318 2.343 . S
O320 C335 1.259 . S
O321 Tb316 2.374 1_455 S
O321 C317 1.251 . S
C322 O326 1.275 . S
C322 O327 1.246 . S
O323 C317 1.263 . S
O323 Tb318 2.353 . S
C324 O328 1.245 . S
C324 O329 1.259 . S
C325 O330 1.250 1_655 S
C325 O331 1.263 . S
O326 Tb318 2.427 . S
O326 C322 1.275 . S
O327 Tb318 2.513 . S
O327 C322 1.246 . S
O328 Tb318 2.453 1_655 S
O328 C324 1.245 . S
O329 Tb316 2.343 . S
O329 Tb318 2.596 1_655 S
O329 C324 1.259 . S
O330 Tb318 2.374 . S
O330 C325 1.250 1_455 S
O331 Tb316 2.353 . S
O331 C325 1.263 . S
C332 O333 1.275 . S
C332 O334 1.246 . S
O333 Tb316 2.427 . S
O333 C332 1.275 . S
O334 Tb316 2.513 . S
O334 C332 1.246 . S
C335 O319 1.245 . S
C335 O320 1.259 . S
H336 C344 0.929 . S
H337 C346 0.930 . S
H338 C348 0.930 . S
H339 C351 0.929 . S
H340 C354 0.930 . S
H341 C356 0.960 . S
H342 C356 0.960 . S
H343 C356 0.960 . S
C344 H336 0.929 . S
C344 C345 1.377 . S
C344 C346 1.384 . S
C345 C344 1.377 . S
C345 C351 1.390 . S
C346 H337 0.930 . S
C346 C344 1.384 . S
C346 C347 1.372 . S
C347 C346 1.372 . S
C347 C348 1.400 . S
C347 C352 1.490 . S
C348 H338 0.930 . S
C348 C347 1.400 . S
C348 C351 1.386 . S
H349 C365 0.935 . S
H350 C366 0.937 . S
C351 H339 0.929 . S
C351 C345 1.390 . S
C351 C348 1.386 . S
C352 C347 1.490 . S
C352 C354 1.395 1_545 S
C352 C355 1.403 . S
H353 C359 0.930 . S
C354 H340 0.930 . S
C354 C352 1.395 1_565 S
C354 C357 1.403 . S
C355 C352 1.403 . S
C355 C356 1.524 . S
C355 C359 1.400 . S
C356 H341 0.960 . S
C356 H342 0.960 . S
C356 H343 0.960 . S
C356 C355 1.524 . S
C357 C354 1.403 . S
C357 C358 1.392 1_565 S
C357 C361 1.495 . S
C358 C357 1.392 1_545 S
C358 C359 1.385 . S
C358 C360 1.478 . S
C359 H353 0.930 . S
C359 C355 1.400 . S
C359 C358 1.385 . S
C360 C358 1.478 . S
C360 C362 1.381 . S
C360 C366 1.383 . S
C361 C357 1.495 . S
C361 H367 0.959 . S
C361 H368 0.961 . S
C361 H369 0.960 . S
C362 C360 1.381 . S
C362 C363 1.394 . S
C362 H370 0.930 . S
C363 C362 1.394 . S
C363 C364 1.383 . S
C363 H371 0.929 . S
C364 C363 1.383 . S
C364 C365 1.377 . S
C365 H349 0.935 . S
C365 C364 1.377 . S
C365 C366 1.379 . S
C366 H350 0.937 . S
C366 C360 1.383 . S
C366 C365 1.379 . S
H367 C361 0.959 . S
H368 C361 0.961 . S
H369 C361 0.960 . S
H370 C362 0.930 . S
H371 C363 0.929 . S
H372 C380 0.929 . S
H373 C382 0.930 . S
H374 C384 0.930 . S
H375 C387 0.929 . S
H376 C390 0.930 . S
H377 C392 0.960 . S
H378 C392 0.960 . S
H379 C392 0.960 . S
C380 H372 0.929 . S
C380 C381 1.377 . S
C380 C382 1.384 . S
C381 C380 1.377 . S
C381 C387 1.390 . S
C382 H373 0.930 . S
C382 C380 1.384 . S
C382 C383 1.372 . S
C383 C382 1.372 . S
C383 C384 1.400 . S
C383 C388 1.490 . S
C384 H374 0.930 . S
C384 C383 1.400 . S
C384 C387 1.386 . S
H385 C401 0.930 . S
H386 C402 0.931 . S
C387 H375 0.929 . S
C387 C381 1.390 . S
C387 C384 1.386 . S
C388 C383 1.490 . S
C388 C390 1.395 . S
C388 C391 1.403 . S
H389 C395 0.930 . S
C390 H376 0.930 . S
C390 C388 1.395 . S
C390 C393 1.403 . S
C391 C388 1.403 . S
C391 C392 1.524 . S
C391 C395 1.400 . S
C392 H377 0.960 . S
C392 H378 0.960 . S
C392 H379 0.960 . S
C392 C391 1.524 . S
C393 C390 1.403 . S
C393 C394 1.392 . S
C393 C397 1.495 . S
C394 C393 1.392 . S
C394 C395 1.385 . S
C394 C396 1.478 . S
C395 H389 0.930 . S
C395 C391 1.400 . S
C395 C394 1.385 . S
C396 C394 1.478 . S
C396 C398 1.381 . S
C396 C402 1.383 . S
C397 C393 1.495 . S
C397 H403 0.959 . S
C397 H404 0.961 . S
C397 H405 0.960 . S
C398 C396 1.381 . S
C398 C399 1.394 . S
C398 H406 0.930 . S
C399 C398 1.394 . S
C399 C400 1.383 . S
C399 H407 0.929 . S
C400 C399 1.383 . S
C400 C401 1.377 . S
C401 H385 0.930 . S
C401 C400 1.377 . S
C401 C402 1.379 . S
C402 H386 0.931 . S
C402 C396 1.383 . S
C402 C401 1.379 . S
H403 C397 0.959 . S
H404 C397 0.961 . S
H405 C397 0.960 . S
H406 C398 0.930 . S
H407 C399 0.929 . S
H408 C416 0.929 . S
H409 C418 0.930 . S
H410 C420 0.930 . S
H411 C423 0.929 . S
H412 C426 0.930 . S
H413 C428 0.960 . S
H414 C428 0.960 . S
H415 C428 0.960 . S
C416 H408 0.929 . S
C416 C417 1.377 . S
C416 C418 1.384 . S
C417 C416 1.377 . S
C417 C423 1.390 . S
C418 H409 0.930 . S
C418 C416 1.384 . S
C418 C419 1.372 . S
C419 C418 1.372 . S
C419 C420 1.400 . S
C419 C424 1.490 . S
C420 H410 0.930 . S
C420 C419 1.400 . S
C420 C423 1.386 . S
H421 C437 0.930 . S
H422 C438 0.931 . S
C423 H411 0.929 . S
C423 C417 1.390 . S
C423 C420 1.386 . S
C424 C419 1.490 . S
C424 C426 1.395 . S
C424 C427 1.403 . S
H425 C431 0.930 . S
C426 H412 0.930 . S
C426 C424 1.395 . S
C426 C429 1.403 . S
C427 C424 1.403 . S
C427 C428 1.524 . S
C427 C431 1.400 . S
C428 H413 0.960 . S
C428 H414 0.960 . S
C428 H415 0.960 . S
C428 C427 1.524 . S
C429 C426 1.403 . S
C429 C430 1.392 . S
C429 C433 1.495 . S
C430 C429 1.392 . S
C430 C431 1.385 . S
C430 C432 1.478 . S
C431 H425 0.930 . S
C431 C427 1.400 . S
C431 C430 1.385 . S
C432 C430 1.478 . S
C432 C434 1.381 . S
C432 C438 1.383 . S
C433 C429 1.495 . S
C433 H439 0.959 . S
C433 H440 0.961 . S
C433 H441 0.960 . S
C434 C432 1.381 . S
C434 C435 1.394 . S
C434 H442 0.930 . S
C435 C434 1.394 . S
C435 C436 1.383 . S
C435 H443 0.929 . S
C436 C435 1.383 . S
C436 C437 1.377 . S
C437 H421 0.930 . S
C437 C436 1.377 . S
C437 C438 1.379 . S
C438 H422 0.931 . S
C438 C432 1.383 . S
C438 C437 1.379 . S
H439 C433 0.959 . S
H440 C433 0.961 . S
H441 C433 0.960 . S
H442 C434 0.930 . S
H443 C435 0.929 . S
H444 C452 0.929 . S
H445 C454 0.930 . S
H446 C456 0.930 . S
H447 C459 0.929 . S
H448 C462 0.930 . S
H449 C464 0.960 . S
H450 C464 0.960 . S
H451 C464 0.960 . S
C452 H444 0.929 . S
C452 C453 1.377 . S
C452 C454 1.384 . S
C453 C452 1.377 . S
C453 C459 1.390 . S
C454 H445 0.930 . S
C454 C452 1.384 . S
C454 C455 1.372 . S
C455 C454 1.372 . S
C455 C456 1.400 . S
C455 C460 1.490 . S
C456 H446 0.930 . S
C456 C455 1.400 . S
C456 C459 1.386 . S
H457 C473 0.930 . S
H458 C474 0.931 . S
C459 H447 0.929 . S
C459 C453 1.390 . S
C459 C456 1.386 . S
C460 C455 1.490 . S
C460 C462 1.395 . S
C460 C463 1.403 . S
H461 C467 0.930 . S
C462 H448 0.930 . S
C462 C460 1.395 . S
C462 C465 1.403 . S
C463 C460 1.403 . S
C463 C464 1.524 . S
C463 C467 1.400 . S
C464 H449 0.960 . S
C464 H450 0.960 . S
C464 H451 0.960 . S
C464 C463 1.524 . S
C465 C462 1.403 . S
C465 C466 1.392 . S
C465 C469 1.495 . S
C466 C465 1.392 . S
C466 C467 1.385 . S
C466 C468 1.478 . S
C467 H461 0.930 . S
C467 C463 1.400 . S
C467 C466 1.385 . S
C468 C466 1.478 . S
C468 C470 1.381 . S
C468 C474 1.383 . S
C469 C465 1.495 . S
C469 H475 0.959 . S
C469 H476 0.961 . S
C469 H477 0.960 . S
C470 C468 1.381 . S
C470 C471 1.394 . S
C470 H478 0.930 . S
C471 C470 1.394 . S
C471 C472 1.383 . S
C471 H479 0.929 . S
C472 C471 1.383 . S
C472 C473 1.377 . S
C473 H457 0.930 . S
C473 C472 1.377 . S
C473 C474 1.379 . S
C474 H458 0.931 . S
C474 C468 1.383 . S
C474 C473 1.379 . S
H475 C469 0.959 . S
H476 C469 0.961 . S
H477 C469 0.960 . S
H478 C470 0.930 . S
H479 C471 0.929 . S
H480 C488 0.929 . S
H481 C490 0.930 . S
H482 C492 0.930 . S
H483 C495 0.929 . S
H484 C498 0.930 . S
H485 C500 0.960 . S
H486 C500 0.960 . S
H487 C500 0.960 1_565 S
C488 H480 0.929 . S
C488 C489 1.413 . S
C488 C490 1.384 . S
C489 C488 1.413 . S
C489 C495 1.356 1_544 S
C490 H481 0.930 . S
C490 C488 1.384 . S
C490 C491 1.372 1_554 S
C491 C490 1.372 1_556 S
C491 C492 1.400 1_545 S
C491 C496 1.490 . S
C492 H482 0.930 . S
C492 C491 1.400 1_565 S
C492 C495 1.386 . S
H493 C509 0.930 . S
H494 C510 0.931 . S
C495 H483 0.929 . S
C495 C489 1.356 1_566 S
C495 C492 1.386 . S
C496 C491 1.490 . S
C496 C498 1.395 . S
C496 C499 1.403 . S
H497 C503 0.930 . S
C498 H484 0.930 . S
C498 C496 1.395 . S
C498 C501 1.403 . S
C499 C496 1.403 . S
C499 C500 1.524 . S
C499 C503 1.400 . S
C500 H485 0.960 . S
C500 H486 0.960 . S
C500 H487 0.960 1_545 S
C500 C499 1.524 . S
C501 C498 1.403 . S
C501 C502 1.392 . S
C501 C505 1.495 . S
C502 C501 1.392 . S
C502 C503 1.385 . S
C502 C504 1.478 . S
C503 H497 0.930 . S
C503 C499 1.400 . S
C503 C502 1.385 . S
C504 C502 1.478 . S
C504 C506 1.381 . S
C504 C510 1.383 1_545 S
C505 C501 1.495 . S
C505 H511 0.960 . S
C505 H512 0.961 1_545 S
C505 H513 0.960 . S
C506 C504 1.381 . S
C506 C507 1.394 . S
C506 H514 0.930 . S
C507 C506 1.394 . S
C507 C508 1.383 . S
C507 H515 0.929 . S
C508 C507 1.383 . S
C508 C509 1.377 1_545 S
C509 H493 0.930 . S
C509 C508 1.377 1_565 S
C509 C510 1.379 . S
C510 H494 0.931 . S
C510 C504 1.383 1_565 S
C510 C509 1.379 . S
H511 C505 0.960 . S
H512 C505 0.961 1_565 S
H513 C505 0.960 . S
H514 C506 0.930 . S
H515 C507 0.929 . S
H516 C524 0.929 . S
H517 C526 0.930 . S
H518 C528 0.930 . S
H519 C531 0.929 . S
H520 C534 0.930 . S
H521 C536 0.960 . S
H522 C536 0.960 1_554 S
H523 C536 0.960 . S
C524 H516 0.929 . S
C524 C525 1.377 . S
C524 C526 1.384 . S
C525 C524 1.377 . S
C525 C531 1.390 1_554 S
C526 H517 0.930 . S
C526 C524 1.384 . S
C526 C527 1.372 1_554 S
C527 C526 1.372 1_556 S
C527 C528 1.400 . S
C527 C532 1.490 . S
C528 H518 0.930 . S
C528 C527 1.400 . S
C528 C531 1.386 . S
H529 C545 0.930 . S
H530 C546 0.931 . S
C531 H519 0.929 . S
C531 C525 1.390 1_556 S
C531 C528 1.386 . S
C532 C527 1.490 . S
C532 C534 1.395 . S
C532 C535 1.403 . S
H533 C539 0.930 . S
C534 H520 0.930 . S
C534 C532 1.395 . S
C534 C537 1.403 . S
C535 C532 1.403 . S
C535 C536 1.524 . S
C535 C539 1.400 . S
C536 H521 0.960 . S
C536 H522 0.960 1_556 S
C536 H523 0.960 . S
C536 C535 1.524 . S
C537 C534 1.403 . S
C537 C538 1.392 . S
C537 C541 1.495 . S
C538 C537 1.392 . S
C538 C539 1.385 . S
C538 C540 1.478 . S
C539 H533 0.930 . S
C539 C535 1.400 . S
C539 C538 1.385 . S
C540 C538 1.478 . S
C540 C542 1.381 . S
C540 C546 1.383 . S
C541 C537 1.495 . S
C541 H547 0.959 . S
C541 H548 0.961 . S
C541 H549 0.960 . S
C542 C540 1.381 . S
C542 C543 1.394 . S
C542 H550 0.930 . S
C543 C542 1.394 . S
C543 C544 1.383 . S
C543 H551 0.929 . S
C544 C543 1.383 . S
C544 C545 1.377 . S
C545 H529 0.930 . S
C545 C544 1.377 . S
C545 C546 1.379 . S
C546 H530 0.931 . S
C546 C540 1.383 . S
C546 C545 1.379 . S
H547 C541 0.959 . S
H548 C541 0.961 . S
H549 C541 0.960 . S
H550 C542 0.930 . S
H551 C543 0.929 . S
H552 C560 0.929 . S
H553 C562 0.930 . S
H554 C564 0.923 1_554 S
H555 C567 0.929 . S
H556 C570 0.930 . S
H557 C572 0.960 . S
H558 C572 0.960 . S
H559 C572 0.953 1_554 S
C560 H552 0.929 . S
C560 C561 1.377 1_556 S
C560 C562 1.384 . S
C561 C560 1.377 1_554 S
C561 C567 1.390 . S
C562 H553 0.930 . S
C562 C560 1.384 . S
C562 C563 1.372 . S
C563 C562 1.372 . S
C563 C564 1.418 . S
C563 C568 1.490 . S
C564 H554 0.923 1_556 S
C564 C563 1.418 . S
C564 C567 1.374 1_556 S
H565 C581 0.930 . S
H566 C582 0.931 . S
C567 H555 0.929 . S
C567 C561 1.390 . S
C567 C564 1.374 1_554 S
C568 C563 1.490 . S
C568 C570 1.395 . S
C568 C571 1.403 . S
H569 C575 0.930 . S
C570 H556 0.930 . S
C570 C568 1.395 . S
C570 C573 1.403 . S
C571 C568 1.403 . S
C571 C572 1.524 . S
C571 C575 1.400 . S
C572 H557 0.960 . S
C572 H558 0.960 . S
C572 H559 0.953 1_556 S
C572 C571 1.524 . S
C573 C570 1.403 . S
C573 C574 1.392 . S
C573 C577 1.495 . S
C574 C573 1.392 . S
C574 C575 1.385 . S
C574 C576 1.478 . S
C575 H569 0.930 . S
C575 C571 1.400 . S
C575 C574 1.385 . S
C576 C574 1.478 . S
C576 C578 1.381 . S
C576 C582 1.383 . S
C577 C573 1.495 . S
C577 H583 0.959 . S
C577 H584 0.961 . S
C577 H585 0.960 . S
C578 C576 1.381 . S
C578 C579 1.394 . S
C578 H586 0.930 . S
C579 C578 1.394 . S
C579 C580 1.383 . S
C579 H587 0.929 . S
C580 C579 1.383 . S
C580 C581 1.377 . S
C581 H565 0.930 . S
C581 C580 1.377 . S
C581 C582 1.379 . S
C582 H566 0.931 . S
C582 C576 1.383 . S
C582 C581 1.379 . S
H583 C577 0.959 . S
H584 C577 0.961 . S
H585 C577 0.960 . S
H586 C578 0.930 . S
H587 C579 0.929 . S
H588 C596 0.929 . S
H589 C598 0.930 . S
H590 C600 0.930 . S
H591 C603 0.929 . S
H592 C606 0.930 . S
H593 C608 0.960 . S
H594 C608 0.960 . S
H595 C608 0.960 . S
C596 H588 0.929 . S
C596 C597 1.377 . S
C596 C598 1.384 . S
C597 C596 1.377 . S
C597 C603 1.390 . S
C598 H589 0.930 . S
C598 C596 1.384 . S
C598 C599 1.372 . S
C599 C598 1.372 . S
C599 C600 1.400 . S
C599 C604 1.490 . S
C600 H590 0.930 . S
C600 C599 1.400 . S
C600 C603 1.386 . S
H601 C617 0.930 1_455 S
H602 C618 0.931 . S
C603 H591 0.929 . S
C603 C597 1.390 . S
C603 C600 1.386 . S
C604 C599 1.490 . S
C604 C606 1.395 . S
C604 C607 1.403 . S
H605 C611 0.930 . S
C606 H592 0.930 . S
C606 C604 1.395 . S
C606 C609 1.403 . S
C607 C604 1.403 . S
C607 C608 1.524 . S
C607 C611 1.400 . S
C608 H593 0.960 . S
C608 H594 0.960 . S
C608 H595 0.960 . S
C608 C607 1.524 . S
C609 C606 1.403 . S
C609 C610 1.392 . S
C609 C613 1.495 . S
C610 C609 1.392 . S
C610 C611 1.385 . S
C610 C612 1.478 . S
C611 H605 0.930 . S
C611 C607 1.400 . S
C611 C610 1.385 . S
C612 C610 1.478 . S
C612 C614 1.381 . S
C612 C618 1.383 . S
C613 C609 1.495 . S
C613 H619 0.959 . S
C613 H620 0.961 . S
C613 H621 0.960 . S
C614 C612 1.381 . S
C614 C615 1.394 . S
C614 H622 0.930 . S
C615 C614 1.394 . S
C615 C616 1.383 . S
C615 H623 0.929 . S
C616 C615 1.383 . S
C616 C617 1.377 . S
C617 H601 0.930 1_655 S
C617 C616 1.377 . S
C617 C618 1.379 . S
C618 H602 0.931 . S
C618 C612 1.383 . S
C618 C617 1.379 . S
H619 C613 0.959 . S
H620 C613 0.961 . S
H621 C613 0.960 . S
H622 C614 0.930 . S
H623 C615 0.929 . S
H624 C632 0.929 . S
H625 C634 0.930 . S
H626 C636 0.930 . S
H627 C639 0.929 . S
H628 C642 0.930 . S
H629 C644 0.960 . S
H630 C644 0.960 . S
H631 C644 0.960 . S
C632 H624 0.929 . S
C632 C633 1.377 . S
C632 C634 1.384 . S
C633 C632 1.377 . S
C633 C639 1.390 . S
C634 H625 0.930 . S
C634 C632 1.384 . S
C634 C635 1.372 . S
C635 C634 1.372 . S
C635 C636 1.400 . S
C635 C640 1.490 . S
C636 H626 0.930 . S
C636 C635 1.400 . S
C636 C639 1.386 . S
H637 C653 0.930 . S
H638 C654 0.931 . S
C639 H627 0.929 . S
C639 C633 1.390 . S
C639 C636 1.386 . S
C640 C635 1.490 . S
C640 C642 1.395 . S
C640 C643 1.403 . S
H641 C647 0.930 . S
C642 H628 0.930 . S
C642 C640 1.395 . S
C642 C645 1.403 . S
C643 C640 1.403 . S
C643 C644 1.524 . S
C643 C647 1.400 . S
C644 H629 0.960 . S
C644 H630 0.960 . S
C644 H631 0.960 . S
C644 C643 1.524 . S
C645 C642 1.403 . S
C645 C646 1.392 . S
C645 C649 1.495 . S
C646 C645 1.392 . S
C646 C647 1.385 . S
C646 C648 1.478 . S
C647 H641 0.930 . S
C647 C643 1.400 . S
C647 C646 1.385 . S
C648 C646 1.478 . S
C648 C650 1.381 . S
C648 C654 1.383 . S
C649 C645 1.495 . S
C649 H655 0.959 . S
C649 H656 0.961 . S
C649 H657 0.960 . S
C650 C648 1.381 . S
C650 C651 1.394 . S
C650 H658 0.930 . S
C651 C650 1.394 . S
C651 C652 1.383 . S
C651 H659 0.929 . S
C652 C651 1.383 . S
C652 C653 1.377 . S
C653 H637 0.930 . S
C653 C652 1.377 . S
C653 C654 1.379 . S
C654 H638 0.931 . S
C654 C648 1.383 . S
C654 C653 1.379 . S
H655 C649 0.959 . S
H656 C649 0.961 . S
H657 C649 0.960 . S
H658 C650 0.930 . S
H659 C651 0.929 . S
H660 C668 0.929 . S
H661 C670 0.930 . S
H662 C672 0.930 . S
H663 C675 0.929 . S
H664 C678 0.930 1_565 S
H665 C680 0.960 . S
H666 C680 0.960 . S
H667 C680 0.960 . S
C668 H660 0.929 . S
C668 C669 1.377 1_565 S
C668 C670 1.384 . S
C669 C668 1.377 1_545 S
C669 C675 1.390 . S
C670 H661 0.930 . S
C670 C668 1.384 . S
C670 C671 1.372 1_565 S
C671 C670 1.372 1_545 S
C671 C672 1.400 . S
C671 C676 1.490 . S
C672 H662 0.930 . S
C672 C671 1.400 . S
C672 C675 1.386 . S
H673 C689 0.930 . S
H674 C690 0.931 . S
C675 H663 0.929 . S
C675 C669 1.390 . S
C675 C672 1.386 . S
C676 C671 1.490 . S
C676 C678 1.395 . S
C676 C679 1.403 . S
H677 C683 0.930 . S
C678 H664 0.930 1_545 S
C678 C676 1.395 . S
C678 C681 1.398 1_545 S
C679 C676 1.403 . S
C679 C680 1.524 . S
C679 C683 1.400 . S
C680 H665 0.960 . S
C680 H666 0.960 . S
C680 H667 0.960 . S
C680 C679 1.524 . S
C681 C678 1.398 1_565 S
C681 C682 1.383 1_565 S
C681 C685 1.510 . S
C682 C681 1.383 1_545 S
C682 C683 1.385 . S
C682 C684 1.478 . S
C683 H677 0.930 . S
C683 C679 1.400 . S
C683 C682 1.385 . S
C684 C682 1.478 . S
C684 C686 1.381 1_545 S
C684 C690 1.383 . S
C685 C681 1.510 . S
C685 H691 0.959 . S
C685 H692 0.984 . S
C685 H693 0.960 . S
C686 C684 1.381 1_565 S
C686 C687 1.394 . S
C686 H694 0.930 . S
C687 C686 1.394 . S
C687 C688 1.383 1_565 S
C687 H695 0.929 . S
C688 C687 1.383 1_545 S
C688 C689 1.377 . S
C689 H673 0.930 . S
C689 C688 1.377 . S
C689 C690 1.379 . S
C690 H674 0.931 . S
C690 C684 1.383 . S
C690 C689 1.379 . S
H691 C685 0.959 . S
H692 C685 0.984 . S
H693 C685 0.960 . S
H694 C686 0.930 . S
H695 C687 0.929 . S
H696 C704 0.929 . S
H697 C706 0.930 . S
H698 C708 0.930 . S
H699 C711 0.929 . S
H700 C714 0.930 . S
H701 C716 0.960 . S
H702 C716 0.960 . S
H703 C716 0.960 . S
C704 H696 0.929 . S
C704 C705 1.377 . S
C704 C706 1.384 . S
C705 C704 1.377 . S
C705 C711 1.390 . S
C706 H697 0.930 . S
C706 C704 1.384 . S
C706 C707 1.372 . S
C707 C706 1.372 . S
C707 C708 1.400 . S
C707 C712 1.490 . S
C708 H698 0.930 . S
C708 C707 1.400 . S
C708 C711 1.386 . S
H709 C725 0.930 . S
H710 C726 0.931 . S
C711 H699 0.929 . S
C711 C705 1.390 . S
C711 C708 1.386 . S
C712 C707 1.490 . S
C712 C714 1.395 . S
C712 C715 1.403 . S
H713 C719 0.930 . S
C714 H700 0.930 . S
C714 C712 1.395 . S
C714 C717 1.403 . S
C715 C712 1.403 . S
C715 C716 1.524 . S
C715 C719 1.400 . S
C716 H701 0.960 . S
C716 H702 0.960 . S
C716 H703 0.960 . S
C716 C715 1.524 . S
C717 C714 1.403 . S
C717 C718 1.392 . S
C717 C721 1.495 . S
C718 C717 1.392 . S
C718 C719 1.385 . S
C718 C720 1.478 . S
C719 H713 0.930 . S
C719 C715 1.400 . S
C719 C718 1.385 . S
C720 C718 1.478 . S
C720 C722 1.381 . S
C720 C726 1.383 . S
C721 C717 1.495 . S
C721 H727 0.959 . S
C721 H728 0.961 . S
C721 H729 0.960 . S
C722 C720 1.381 . S
C722 C723 1.394 . S
C722 H730 0.930 . S
C723 C722 1.394 . S
C723 C724 1.383 . S
C723 H731 0.929 . S
C724 C723 1.383 . S
C724 C725 1.377 . S
C725 H709 0.930 . S
C725 C724 1.377 . S
C725 C726 1.379 . S
C726 H710 0.931 . S
C726 C720 1.383 . S
C726 C725 1.379 . S
H727 C721 0.959 . S
H728 C721 0.961 . S
H729 C721 0.960 . S
H730 C722 0.930 . S
H731 C723 0.929 . S
H732 C740 0.929 . S
H733 C742 0.930 . S
H734 C744 0.930 . S
H735 C747 0.929 . S
H736 C750 0.930 . S
H737 C752 0.960 . S
H738 C752 0.960 . S
H739 C752 0.960 . S
C740 H732 0.929 . S
C740 C741 1.377 . S
C740 C742 1.384 . S
C741 C740 1.377 . S
C741 C747 1.390 . S
C742 H733 0.930 . S
C742 C740 1.384 . S
C742 C743 1.372 . S
C743 C742 1.372 . S
C743 C744 1.400 . S
C743 C748 1.490 . S
C744 H734 0.930 . S
C744 C743 1.400 . S
C744 C747 1.386 . S
H745 C761 0.930 . S
H746 C762 0.931 . S
C747 H735 0.929 . S
C747 C741 1.390 . S
C747 C744 1.386 . S
C748 C743 1.490 . S
C748 C750 1.395 . S
C748 C751 1.403 . S
H749 C755 0.930 . S
C750 H736 0.930 . S
C750 C748 1.395 . S
C750 C753 1.403 . S
C751 C748 1.403 . S
C751 C752 1.524 . S
C751 C755 1.400 . S
C752 H737 0.960 . S
C752 H738 0.960 . S
C752 H739 0.960 . S
C752 C751 1.524 . S
C753 C750 1.403 . S
C753 C754 1.392 . S
C753 C757 1.495 . S
C754 C753 1.392 . S
C754 C755 1.385 . S
C754 C756 1.478 . S
C755 H749 0.930 . S
C755 C751 1.400 . S
C755 C754 1.385 . S
C756 C754 1.478 . S
C756 C758 1.381 . S
C756 C762 1.383 . S
C757 C753 1.495 . S
C757 H763 0.959 . S
C757 H764 0.961 . S
C757 H765 0.960 . S
C758 C756 1.381 . S
C758 C759 1.394 . S
C758 H766 0.930 . S
C759 C758 1.394 . S
C759 C760 1.383 . S
C759 H767 0.929 . S
C760 C759 1.383 . S
C760 C761 1.377 . S
C761 H745 0.930 . S
C761 C760 1.377 . S
C761 C762 1.379 . S
C762 H746 0.931 . S
C762 C756 1.383 . S
C762 C761 1.379 . S
H763 C757 0.959 . S
H764 C757 0.961 . S
H765 C757 0.960 . S
H766 C758 0.930 . S
H767 C759 0.929 . S
H768 C776 0.929 . S
H769 C778 0.930 . S
H770 C780 0.930 . S
H771 C783 0.929 . S
H772 C786 0.930 . S
H773 C788 0.960 . S
H774 C788 0.960 . S
H775 C788 0.960 . S
C776 H768 0.929 . S
C776 C777 1.377 . S
C776 C778 1.384 . S
C777 C776 1.377 . S
C777 C783 1.390 . S
C778 H769 0.930 . S
C778 C776 1.384 . S
C778 C779 1.372 . S
C779 C778 1.372 . S
C779 C780 1.400 . S
C779 C784 1.490 . S
C780 H770 0.930 . S
C780 C779 1.400 . S
C780 C783 1.386 . S
H781 C797 0.930 1_455 S
H782 C798 0.931 . S
C783 H771 0.929 . S
C783 C777 1.390 . S
C783 C780 1.386 . S
C784 C779 1.490 . S
C784 C786 1.395 . S
C784 C787 1.403 . S
H785 C791 0.930 . S
C786 H772 0.930 . S
C786 C784 1.395 . S
C786 C789 1.403 . S
C787 C784 1.403 . S
C787 C788 1.524 . S
C787 C791 1.400 . S
C788 H773 0.960 . S
C788 H774 0.960 . S
C788 H775 0.960 . S
C788 C787 1.524 . S
C789 C786 1.403 . S
C789 C790 1.392 . S
C789 C793 1.495 . S
C790 C789 1.392 . S
C790 C791 1.385 . S
C790 C792 1.478 . S
C791 H785 0.930 . S
C791 C787 1.400 . S
C791 C790 1.385 . S
C792 C790 1.478 . S
C792 C794 1.381 . S
C792 C798 1.383 . S
C793 C789 1.495 . S
C793 H799 0.959 . S
C793 H800 0.961 . S
C793 H801 0.960 . S
C794 C792 1.381 . S
C794 C795 1.394 . S
C794 H802 0.930 . S
C795 C794 1.394 . S
C795 C796 1.383 . S
C795 H803 0.929 . S
C796 C795 1.383 . S
C796 C797 1.377 . S
C797 H781 0.930 1_655 S
C797 C796 1.377 . S
C797 C798 1.379 . S
C798 H782 0.931 . S
C798 C792 1.383 . S
C798 C797 1.379 . S
H799 C793 0.959 . S
H800 C793 0.961 . S
H801 C793 0.960 . S
H802 C794 0.930 . S
H803 C795 0.929 . S
H804 C812 0.929 . S
H805 C814 0.930 . S
H806 C816 0.930 . S
H807 C819 0.929 1_554 S
H808 C822 0.930 . S
H809 C824 0.960 . S
H810 C824 0.960 . S
H811 C824 0.960 . S
C812 H804 0.929 . S
C812 C813 1.376 . S
C812 C814 1.384 . S
C813 C812 1.376 . S
C813 C819 1.390 1_545 S
C814 H805 0.930 . S
C814 C812 1.384 . S
C814 C815 1.372 . S
C815 C814 1.372 . S
C815 C816 1.400 1_545 S
C815 C820 1.490 . S
C816 H806 0.930 . S
C816 C815 1.400 1_565 S
C816 C819 1.386 . S
H817 C833 0.930 . S
H818 C834 0.931 . S
C819 H807 0.929 1_556 S
C819 C813 1.390 1_565 S
C819 C816 1.386 . S
C820 C815 1.490 . S
C820 C822 1.395 1_545 S
C820 C823 1.403 . S
H821 C827 0.930 . S
C822 H808 0.930 . S
C822 C820 1.395 1_565 S
C822 C825 1.403 . S
C823 C820 1.403 . S
C823 C824 1.524 . S
C823 C827 1.400 . S
C824 H809 0.960 . S
C824 H810 0.960 . S
C824 H811 0.960 . S
C824 C823 1.524 . S
C825 C822 1.403 . S
C825 C826 1.392 1_565 S
C825 C829 1.495 . S
C826 C825 1.392 1_545 S
C826 C827 1.385 . S
C826 C828 1.478 . S
C827 H821 0.930 . S
C827 C823 1.400 . S
C827 C826 1.385 . S
C828 C826 1.478 . S
C828 C830 1.381 . S
C828 C834 1.383 1_545 S
C829 C825 1.495 . S
C829 H835 0.959 . S
C829 H836 0.961 . S
C829 H837 0.960 . S
C830 C828 1.381 . S
C830 C831 1.394 . S
C830 H838 0.930 . S
C831 C830 1.394 . S
C831 C832 1.383 . S
C831 H839 0.929 . S
C832 C831 1.383 . S
C832 C833 1.377 1_545 S
C833 H817 0.930 . S
C833 C832 1.377 1_565 S
C833 C834 1.379 . S
C834 H818 0.931 . S
C834 C828 1.383 1_565 S
C834 C833 1.379 . S
H835 C829 0.959 . S
H836 C829 0.961 . S
H837 C829 0.960 . S
H838 C830 0.930 . S
H839 C831 0.929 . S
H840 C848 0.929 . S
H841 C850 0.930 . S
H842 C852 0.930 . S
H843 C855 0.929 . S
H844 C858 0.930 . S
H845 C860 0.960 . S
H846 C860 0.960 . S
H847 C860 0.960 . S
C848 H840 0.929 . S
C848 C849 1.377 . S
C848 C850 1.384 . S
C849 C848 1.377 . S
C849 C855 1.390 . S
C850 H841 0.930 . S
C850 C848 1.384 . S
C850 C851 1.372 . S
C851 C850 1.372 . S
C851 C852 1.400 . S
C851 C856 1.490 . S
C852 H842 0.930 . S
C852 C851 1.400 . S
C852 C855 1.386 . S
H853 C869 0.930 . S
H854 C870 0.931 . S
C855 H843 0.929 . S
C855 C849 1.390 . S
C855 C852 1.386 . S
C856 C851 1.490 . S
C856 C858 1.395 . S
C856 C859 1.403 . S
H857 C863 0.930 . S
C858 H844 0.930 . S
C858 C856 1.395 . S
C858 C861 1.403 . S
C859 C856 1.403 . S
C859 C860 1.524 . S
C859 C863 1.400 . S
C860 H845 0.960 . S
C860 H846 0.960 . S
C860 H847 0.960 . S
C860 C859 1.524 . S
C861 C858 1.403 . S
C861 C862 1.392 . S
C861 C865 1.495 . S
C862 C861 1.392 . S
C862 C863 1.385 . S
C862 C864 1.478 . S
C863 H857 0.930 . S
C863 C859 1.400 . S
C863 C862 1.385 . S
C864 C862 1.478 . S
C864 C866 1.381 . S
C864 C870 1.383 . S
C865 C861 1.495 . S
C865 H871 0.959 . S
C865 H872 0.961 . S
C865 H873 0.960 . S
C866 C864 1.381 . S
C866 C867 1.394 . S
C866 H874 0.930 . S
C867 C866 1.394 . S
C867 C868 1.383 . S
C867 H875 0.929 . S
C868 C867 1.383 . S
C868 C869 1.377 . S
C869 H853 0.930 . S
C869 C868 1.377 . S
C869 C870 1.379 . S
C870 H854 0.931 . S
C870 C864 1.383 . S
C870 C869 1.379 . S
H871 C865 0.959 . S
H872 C865 0.961 . S
H873 C865 0.960 . S
H874 C866 0.930 . S
H875 C867 0.929 . S
H876 C884 0.929 . S
H877 C886 0.930 . S
H878 C888 0.930 . S
H879 C891 0.929 . S
H880 C894 0.930 . S
H881 C896 0.960 . S
H882 C896 0.960 . S
H883 C896 0.960 . S
C884 H876 0.929 . S
C884 C885 1.377 . S
C884 C886 1.384 . S
C885 C884 1.377 . S
C885 C891 1.390 . S
C886 H877 0.930 . S
C886 C884 1.384 . S
C886 C887 1.372 . S
C887 C886 1.372 . S
C887 C888 1.400 . S
C887 C892 1.490 . S
C888 H878 0.930 . S
C888 C887 1.400 . S
C888 C891 1.386 . S
H889 C905 0.930 . S
H890 C906 0.931 . S
C891 H879 0.929 . S
C891 C885 1.390 . S
C891 C888 1.386 . S
C892 C887 1.490 . S
C892 C894 1.395 . S
C892 C895 1.403 . S
H893 C899 0.930 . S
C894 H880 0.930 . S
C894 C892 1.395 . S
C894 C897 1.403 . S
C895 C892 1.403 . S
C895 C896 1.524 . S
C895 C899 1.400 . S
C896 H881 0.960 . S
C896 H882 0.960 . S
C896 H883 0.960 . S
C896 C895 1.524 . S
C897 C894 1.403 . S
C897 C898 1.392 . S
C897 C901 1.495 . S
C898 C897 1.392 . S
C898 C899 1.385 . S
C898 C900 1.478 . S
C899 H893 0.930 . S
C899 C895 1.400 . S
C899 C898 1.385 . S
C900 C898 1.478 . S
C900 C902 1.381 . S
C900 C906 1.383 . S
C901 C897 1.495 . S
C901 H907 0.959 . S
C901 H908 0.961 . S
C901 H909 0.960 . S
C902 C900 1.381 . S
C902 C903 1.394 . S
C902 H910 0.930 . S
C903 C902 1.394 . S
C903 C904 1.383 . S
C903 H911 0.929 . S
C904 C903 1.383 . S
C904 C905 1.377 . S
C905 H889 0.930 . S
C905 C904 1.377 . S
C905 C906 1.379 . S
C906 H890 0.931 . S
C906 C900 1.383 . S
C906 C905 1.379 . S
H907 C901 0.959 . S
H908 C901 0.961 . S
H909 C901 0.960 . S
H910 C902 0.930 . S
H911 C903 0.929 . S
H912 C920 0.929 . S
H913 C922 0.930 . S
H914 C924 0.920 1_556 S
H915 C927 0.929 . S
H916 C930 0.930 . S
H917 C932 0.960 . S
H918 C932 0.960 . S
H919 C932 0.960 . S
C920 H912 0.929 . S
C920 C921 1.377 . S
C920 C922 1.384 . S
C921 C920 1.377 . S
C921 C927 1.390 . S
C922 H913 0.930 . S
C922 C920 1.384 . S
C922 C923 1.372 . S
C923 C922 1.372 . S
C923 C924 1.400 . S
C923 C928 1.490 . S
C924 H914 0.920 1_554 S
C924 C923 1.400 . S
C924 C927 1.386 . S
H925 C941 0.930 . S
H926 C942 0.931 . S
C927 H915 0.929 . S
C927 C921 1.390 . S
C927 C924 1.386 . S
C928 C923 1.490 . S
C928 C930 1.395 . S
C928 C931 1.403 1_554 S
H929 C935 0.930 . S
C930 H916 0.930 . S
C930 C928 1.395 . S
C930 C933 1.403 . S
C931 C928 1.403 1_556 S
C931 C932 1.524 . S
C931 C935 1.400 . S
C932 H917 0.960 . S
C932 H918 0.960 . S
C932 H919 0.960 . S
C932 C931 1.524 . S
C933 C930 1.403 . S
C933 C934 1.392 1_554 S
C933 C937 1.495 . S
C934 C933 1.392 1_556 S
C934 C935 1.385 . S
C934 C936 1.478 . S
C935 H929 0.930 . S
C935 C931 1.400 . S
C935 C934 1.385 . S
C936 C934 1.478 . S
C936 C938 1.381 . S
C936 C942 1.383 . S
C937 C933 1.495 . S
C937 H943 0.959 . S
C937 H944 0.961 . S
C937 H945 0.960 . S
C938 C936 1.381 . S
C938 C939 1.394 . S
C938 H946 0.930 . S
C939 C938 1.394 . S
C939 C940 1.383 . S
C939 H947 0.929 . S
C940 C939 1.383 . S
C940 C941 1.377 . S
C941 H925 0.930 . S
C941 C940 1.377 . S
C941 C942 1.379 . S
C942 H926 0.931 . S
C942 C936 1.383 . S
C942 C941 1.379 . S
H943 C937 0.959 . S
H944 C937 0.961 . S
H945 C937 0.960 . S
H946 C938 0.930 . S
H947 C939 0.929 . S
H948 C956 0.929 . S
H949 C958 0.930 . S
H950 C960 0.930 . S
H951 C963 0.929 1_556 S
H952 C966 0.930 1_564 S
H953 C968 0.960 . S
H954 C968 0.960 . S
H955 C968 0.960 . S
C956 H948 0.929 . S
C956 C957 1.377 . S
C956 C958 1.384 . S
C957 C956 1.377 . S
C957 C963 1.390 . S
C958 H949 0.930 . S
C958 C956 1.384 . S
C958 C959 1.385 . S
C959 C958 1.385 . S
C959 C960 1.394 1_554 S
C959 C964 1.483 1_554 S
C960 H950 0.930 . S
C960 C959 1.394 1_556 S
C960 C963 1.386 1_556 S
H961 C977 0.917 1_565 S
H962 C978 0.925 1_565 S
C963 H951 0.929 1_554 S
C963 C957 1.390 . S
C963 C960 1.386 1_554 S
C964 C959 1.483 1_556 S
C964 C966 1.395 . S
C964 C967 1.403 . S
H965 C971 0.930 . S
C966 H952 0.930 1_546 S
C966 C964 1.395 . S
C966 C969 1.400 1_545 S
C967 C964 1.403 . S
C967 C968 1.524 . S
C967 C971 1.400 . S
C968 H953 0.960 . S
C968 H954 0.960 . S
C968 H955 0.960 . S
C968 C967 1.524 . S
C969 C966 1.400 1_565 S
C969 C970 1.381 1_565 S
C969 C973 1.511 . S
C970 C969 1.381 1_545 S
C970 C971 1.385 . S
C970 C972 1.478 . S
C971 H965 0.930 . S
C971 C967 1.400 . S
C971 C970 1.385 . S
C972 C970 1.478 . S
C972 C974 1.381 . S
C972 C978 1.389 . S
C973 C969 1.511 . S
C973 H979 0.959 1_556 S
C973 H980 0.961 . S
C973 H981 0.960 . S
C974 C972 1.381 . S
C974 C975 1.394 . S
C974 H982 0.930 . S
C975 C974 1.394 . S
C975 C976 1.383 . S
C975 H983 0.929 . S
C976 C975 1.383 . S
C976 C977 1.389 . S
C977 H961 0.917 1_545 S
C977 C976 1.389 . S
C977 C978 1.380 . S
C978 H962 0.925 1_545 S
C978 C972 1.389 . S
C978 C977 1.380 . S
H979 C973 0.959 1_554 S
H980 C973 0.961 . S
H981 C973 0.960 . S
H982 C974 0.930 . S
H983 C975 0.929 . S
H984 C992 0.929 . S
H985 C994 0.930 . S
H986 C996 0.930 . S
H987 C999 0.929 1_556 S
H988 C1002 0.930 1_554 S
H989 C1004 0.960 . S
H990 C1004 0.960 . S
H991 C1004 0.960 . S
C992 H984 0.929 . S
C992 C993 1.377 . S
C992 C994 1.384 . S
C993 C992 1.377 . S
C993 C999 1.390 . S
C994 H985 0.930 . S
C994 C992 1.384 . S
C994 C995 1.372 . S
C995 C994 1.372 . S
C995 C996 1.400 1_554 S
C995 C1000 1.490 1_554 S
C996 H986 0.930 . S
C996 C995 1.400 1_556 S
C996 C999 1.386 1_556 S
H997 C1013 0.930 . S
H998 C1014 0.931 . S
C999 H987 0.929 1_554 S
C999 C993 1.390 . S
C999 C996 1.386 1_554 S
C1000 C995 1.490 1_556 S
C1000 C1002 1.395 . S
C1000 C1003 1.403 . S
H1001 C1007 0.930 . S
C1002 H988 0.930 1_556 S
C1002 C1000 1.395 . S
C1002 C1005 1.403 . S
C1003 C1000 1.403 . S
C1003 C1004 1.524 . S
C1003 C1007 1.400 . S
C1004 H989 0.960 . S
C1004 H990 0.960 . S
C1004 H991 0.960 . S
C1004 C1003 1.524 . S
C1005 C1002 1.403 . S
C1005 C1006 1.392 . S
C1005 C1009 1.495 . S
C1006 C1005 1.392 . S
C1006 C1007 1.385 . S
C1006 C1008 1.478 . S
C1007 H1001 0.930 . S
C1007 C1003 1.400 . S
C1007 C1006 1.385 . S
C1008 C1006 1.478 . S
C1008 C1010 1.381 . S
C1008 C1014 1.383 . S
C1009 C1005 1.495 . S
C1009 H1015 0.959 . S
C1009 H1016 0.961 . S
C1009 H1017 0.960 . S
C1010 C1008 1.381 . S
C1010 C1011 1.394 . S
C1010 H1018 0.930 . S
C1011 C1010 1.394 . S
C1011 C1012 1.383 . S
C1011 H1019 0.929 . S
C1012 C1011 1.383 . S
C1012 C1013 1.377 . S
C1013 H997 0.930 . S
C1013 C1012 1.377 . S
C1013 C1014 1.379 . S
C1014 H998 0.931 . S
C1014 C1008 1.383 . S
C1014 C1013 1.379 . S
H1015 C1009 0.959 . S
H1016 C1009 0.961 . S
H1017 C1009 0.960 . S
H1018 C1010 0.930 . S
H1019 C1011 0.929 . S
H1020 C1028 0.929 . S
H1021 C1030 0.930 . S
H1022 C1032 0.930 1_556 S
H1023 C1035 0.929 . S
H1024 C1038 0.930 . S
H1025 C1040 0.960 . S
H1026 C1040 0.960 . S
H1027 C1040 0.960 . S
C1028 H1020 0.929 . S
C1028 C1029 1.377 . S
C1028 C1030 1.384 . S
C1029 C1028 1.377 . S
C1029 C1035 1.390 . S
C1030 H1021 0.930 . S
C1030 C1028 1.384 . S
C1030 C1031 1.372 . S
C1031 C1030 1.372 . S
C1031 C1032 1.400 . S
C1031 C1036 1.490 1_554 S
C1032 H1022 0.930 1_554 S
C1032 C1031 1.400 . S
C1032 C1035 1.386 . S
H1033 C1049 0.930 . S
H1034 C1050 0.931 . S
C1035 H1023 0.929 . S
C1035 C1029 1.390 . S
C1035 C1032 1.386 . S
C1036 C1031 1.490 1_556 S
C1036 C1038 1.395 1_556 S
C1036 C1039 1.403 . S
H1037 C1043 0.930 . S
C1038 H1024 0.930 . S
C1038 C1036 1.395 1_554 S
C1038 C1041 1.403 1_554 S
C1039 C1036 1.403 . S
C1039 C1040 1.524 . S
C1039 C1043 1.400 . S
C1040 H1025 0.960 . S
C1040 H1026 0.960 . S
C1040 H1027 0.960 . S
C1040 C1039 1.524 . S
C1041 C1038 1.403 1_556 S
C1041 C1042 1.392 . S
C1041 C1045 1.495 1_556 S
C1042 C1041 1.392 . S
C1042 C1043 1.385 . S
C1042 C1044 1.478 . S
C1043 H1037 0.930 . S
C1043 C1039 1.400 . S
C1043 C1042 1.385 . S
C1044 C1042 1.478 . S
C1044 C1046 1.381 . S
C1044 C1050 1.383 . S
C1045 C1041 1.495 1_554 S
C1045 H1051 0.959 . S
C1045 H1052 0.961 . S
C1045 H1053 0.960 . S
C1046 C1044 1.381 . S
C1046 C1047 1.394 . S
C1046 H1054 0.930 . S
C1047 C1046 1.394 . S
C1047 C1048 1.383 . S
C1047 H1055 0.929 . S
C1048 C1047 1.383 . S
C1048 C1049 1.377 . S
C1049 H1033 0.930 . S
C1049 C1048 1.377 . S
C1049 C1050 1.379 . S
C1050 H1034 0.931 . S
C1050 C1044 1.383 . S
C1050 C1049 1.379 . S
H1051 C1045 0.959 . S
H1052 C1045 0.961 . S
H1053 C1045 0.960 . S
H1054 C1046 0.930 . S
H1055 C1047 0.929 . S
H1056 C1064 0.929 . S
H1057 C1066 0.930 . S
H1058 C1068 0.930 . S
H1059 C1071 0.929 . S
H1060 C1074 0.930 . S
H1061 C1076 0.960 . S
H1062 C1076 0.960 . S
H1063 C1076 0.960 . S
C1064 H1056 0.929 . S
C1064 C1065 1.377 . S
C1064 C1066 1.384 . S
C1065 C1064 1.377 . S
C1065 C1071 1.390 . S
C1066 H1057 0.930 . S
C1066 C1064 1.384 . S
C1066 C1067 1.372 . S
C1067 C1066 1.372 . S
C1067 C1068 1.400 . S
C1067 C1072 1.490 . S
C1068 H1058 0.930 . S
C1068 C1067 1.400 . S
C1068 C1071 1.386 . S
H1069 C1085 0.930 . S
H1070 C1086 0.931 . S
C1071 H1059 0.929 . S
C1071 C1065 1.390 . S
C1071 C1068 1.386 . S
C1072 C1067 1.490 . S
C1072 C1074 1.395 . S
C1072 C1075 1.403 . S
H1073 C1079 0.930 . S
C1074 H1060 0.930 . S
C1074 C1072 1.395 . S
C1074 C1077 1.403 . S
C1075 C1072 1.403 . S
C1075 C1076 1.524 . S
C1075 C1079 1.400 . S
C1076 H1061 0.960 . S
C1076 H1062 0.960 . S
C1076 H1063 0.960 . S
C1076 C1075 1.524 . S
C1077 C1074 1.403 . S
C1077 C1078 1.392 . S
C1077 C1081 1.495 . S
C1078 C1077 1.392 . S
C1078 C1079 1.385 . S
C1078 C1080 1.478 . S
C1079 H1073 0.930 . S
C1079 C1075 1.400 . S
C1079 C1078 1.385 . S
C1080 C1078 1.478 . S
C1080 C1082 1.381 . S
C1080 C1086 1.383 . S
C1081 C1077 1.495 . S
C1081 H1087 0.959 . S
C1081 H1088 0.961 . S
C1081 H1089 0.960 . S
C1082 C1080 1.381 . S
C1082 C1083 1.394 . S
C1082 H1090 0.930 . S
C1083 C1082 1.394 . S
C1083 C1084 1.383 . S
C1083 H1091 0.929 . S
C1084 C1083 1.383 . S
C1084 C1085 1.377 . S
C1085 H1069 0.930 . S
C1085 C1084 1.377 . S
C1085 C1086 1.379 . S
C1086 H1070 0.931 . S
C1086 C1080 1.383 . S
C1086 C1085 1.379 . S
H1087 C1081 0.959 . S
H1088 C1081 0.961 . S
H1089 C1081 0.960 . S
H1090 C1082 0.930 . S
H1091 C1083 0.929 . S
H1092 C1100 0.929 . S
H1093 C1102 0.930 . S
H1094 C1104 0.930 . S
H1095 C1107 0.929 . S
H1096 C1110 0.930 . S
H1097 C1112 0.960 . S
H1098 C1112 0.960 . S
H1099 C1112 0.960 . S
C1100 H1092 0.929 . S
C1100 C1101 1.378 . S
C1100 C1102 1.384 . S
C1101 C1100 1.378 . S
C1101 C1107 1.389 1_545 S
C1102 H1093 0.930 . S
C1102 C1100 1.384 . S
C1102 C1103 1.372 . S
C1103 C1102 1.372 . S
C1103 C1104 1.400 1_545 S
C1103 C1108 1.490 . S
C1104 H1094 0.930 . S
C1104 C1103 1.400 1_565 S
C1104 C1107 1.386 . S
H1105 C1121 0.930 . S
H1106 C1122 0.931 . S
C1107 H1095 0.929 . S
C1107 C1101 1.389 1_565 S
C1107 C1104 1.386 . S
C1108 C1103 1.490 . S
C1108 C1110 1.395 . S
C1108 C1111 1.403 1_545 S
H1109 C1115 0.930 . S
C1110 H1096 0.930 . S
C1110 C1108 1.395 . S
C1110 C1113 1.403 . S
C1111 C1108 1.403 1_565 S
C1111 C1112 1.524 . S
C1111 C1115 1.400 . S
C1112 H1097 0.960 . S
C1112 H1098 0.960 . S
C1112 H1099 0.960 . S
C1112 C1111 1.524 . S
C1113 C1110 1.403 . S
C1113 C1114 1.392 . S
C1113 C1117 1.495 . S
C1114 C1113 1.392 . S
C1114 C1115 1.385 1_545 S
C1114 C1116 1.478 . S
C1115 H1109 0.930 . S
C1115 C1111 1.400 . S
C1115 C1114 1.385 1_565 S
C1116 C1114 1.478 . S
C1116 C1118 1.381 . S
C1116 C1122 1.383 . S
C1117 C1113 1.495 . S
C1117 H1123 0.959 . S
C1117 H1124 0.961 . S
C1117 H1125 0.960 . S
C1118 C1116 1.381 . S
C1118 C1119 1.394 . S
C1118 H1126 0.930 . S
C1119 C1118 1.394 . S
C1119 C1120 1.383 . S
C1119 H1127 0.929 . S
C1120 C1119 1.383 . S
C1120 C1121 1.377 . S
C1121 H1105 0.930 . S
C1121 C1120 1.377 . S
C1121 C1122 1.379 . S
C1122 H1106 0.931 . S
C1122 C1116 1.383 . S
C1122 C1121 1.379 . S
H1123 C1117 0.959 . S
H1124 C1117 0.961 . S
H1125 C1117 0.960 . S
H1126 C1118 0.930 . S
H1127 C1119 0.929 . S
H1128 C1136 0.929 . S
H1129 C1138 0.930 . S
H1130 C1140 0.930 . S
H1131 C1143 0.929 . S
H1132 C1146 0.930 . S
H1133 C1148 0.960 . S
H1134 C1148 0.960 . S
H1135 C1148 0.960 . S
C1136 H1128 0.929 . S
C1136 C1137 1.377 . S
C1136 C1138 1.384 . S
C1137 C1136 1.377 . S
C1137 C1143 1.390 . S
C1138 H1129 0.930 . S
C1138 C1136 1.384 . S
C1138 C1139 1.372 . S
C1139 C1138 1.372 . S
C1139 C1140 1.400 . S
C1139 C1144 1.490 . S
C1140 H1130 0.930 . S
C1140 C1139 1.400 . S
C1140 C1143 1.386 . S
H1141 C1157 0.930 . S
H1142 C1158 0.931 . S
C1143 H1131 0.929 . S
C1143 C1137 1.390 . S
C1143 C1140 1.386 . S
C1144 C1139 1.490 . S
C1144 C1146 1.395 . S
C1144 C1147 1.403 . S
H1145 C1151 0.930 . S
C1146 H1132 0.930 . S
C1146 C1144 1.395 . S
C1146 C1149 1.403 . S
C1147 C1144 1.403 . S
C1147 C1148 1.524 . S
C1147 C1151 1.400 . S
C1148 H1133 0.960 . S
C1148 H1134 0.960 . S
C1148 H1135 0.960 . S
C1148 C1147 1.524 . S
C1149 C1146 1.403 . S
C1149 C1150 1.392 . S
C1149 C1153 1.495 . S
C1150 C1149 1.392 . S
C1150 C1151 1.385 . S
C1150 C1152 1.478 . S
C1151 H1145 0.930 . S
C1151 C1147 1.400 . S
C1151 C1150 1.385 . S
C1152 C1150 1.478 . S
C1152 C1154 1.381 . S
C1152 C1158 1.383 . S
C1153 C1149 1.495 . S
C1153 H1159 0.959 . S
C1153 H1160 0.961 . S
C1153 H1161 0.960 . S
C1154 C1152 1.381 . S
C1154 C1155 1.394 . S
C1154 H1162 0.930 . S
C1155 C1154 1.394 . S
C1155 C1156 1.383 . S
C1155 H1163 0.929 . S
C1156 C1155 1.383 . S
C1156 C1157 1.377 . S
C1157 H1141 0.930 . S
C1157 C1156 1.377 . S
C1157 C1158 1.379 . S
C1158 H1142 0.931 . S
C1158 C1152 1.383 . S
C1158 C1157 1.379 . S
H1159 C1153 0.959 . S
H1160 C1153 0.961 . S
H1161 C1153 0.960 . S
H1162 C1154 0.930 . S
H1163 C1155 0.929 . S
H1164 C1172 0.929 . S
H1165 C1174 0.930 . S
H1166 C1176 0.930 . S
H1167 C1179 0.929 . S
H1168 C1182 0.930 . S
H1169 C1184 0.960 . S
H1170 C1184 0.960 . S
H1171 C1184 0.960 . S
C1172 H1164 0.929 . S
C1172 C1173 1.377 . S
C1172 C1174 1.384 . S
C1173 C1172 1.377 . S
C1173 C1179 1.390 . S
C1174 H1165 0.930 . S
C1174 C1172 1.384 . S
C1174 C1175 1.372 . S
C1175 C1174 1.372 . S
C1175 C1176 1.400 . S
C1175 C1180 1.490 . S
C1176 H1166 0.930 . S
C1176 C1175 1.400 . S
C1176 C1179 1.386 . S
H1177 C1193 0.930 . S
H1178 C1194 0.931 . S
C1179 H1167 0.929 . S
C1179 C1173 1.390 . S
C1179 C1176 1.386 . S
C1180 C1175 1.490 . S
C1180 C1182 1.395 . S
C1180 C1183 1.403 . S
H1181 C1187 0.930 . S
C1182 H1168 0.930 . S
C1182 C1180 1.395 . S
C1182 C1185 1.403 . S
C1183 C1180 1.403 . S
C1183 C1184 1.524 . S
C1183 C1187 1.400 . S
C1184 H1169 0.960 . S
C1184 H1170 0.960 . S
C1184 H1171 0.960 . S
C1184 C1183 1.524 . S
C1185 C1182 1.403 . S
C1185 C1186 1.392 . S
C1185 C1189 1.495 . S
C1186 C1185 1.392 . S
C1186 C1187 1.385 . S
C1186 C1188 1.478 . S
C1187 H1181 0.930 . S
C1187 C1183 1.400 . S
C1187 C1186 1.385 . S
C1188 C1186 1.478 . S
C1188 C1190 1.381 . S
C1188 C1194 1.383 . S
C1189 C1185 1.495 . S
C1189 H1195 0.959 . S
C1189 H1196 0.961 . S
C1189 H1197 0.960 . S
C1190 C1188 1.381 . S
C1190 C1191 1.394 . S
C1190 H1198 0.930 . S
C1191 C1190 1.394 . S
C1191 C1192 1.383 . S
C1191 H1199 0.929 . S
C1192 C1191 1.383 . S
C1192 C1193 1.377 . S
C1193 H1177 0.930 . S
C1193 C1192 1.377 . S
C1193 C1194 1.379 . S
C1194 H1178 0.931 . S
C1194 C1188 1.383 . S
C1194 C1193 1.379 . S
H1195 C1189 0.959 . S
H1196 C1189 0.961 . S
H1197 C1189 0.960 . S
H1198 C1190 0.930 . S
H1199 C1191 0.929 . S
C345 C215 1.427 . S
C364 C257 1.436 . S
C400 C292 2.030 . S
C381 C247 2.019 . S
C436 C297 1.242 . S
C417 C151 1.219 . S
C472 C317 1.716 . S
C453 C183 1.707 . S
C508 C265 1.437 . S
C489 C87 1.417 . S
C525 C119 1.834 . S
C544 C282 2.036 . S
C561 C23 1.263 . S
C580 C305 1.250 . S
C597 C55 1.556 . S
C616 C325 1.717 . S
C652 C275 1.085 . S
C633 C189 1.073 . S
C688 C284 0.460 . S
C669 C221 0.502 . S
C724 C315 1.279 . S
C705 C253 1.276 . S
C741 C157 0.672 . S
C760 C335 0.718 . S
C777 C61 0.971 . S
C796 C264 1.038 . S
C832 C295 0.541 . S
C813 C93 0.492 . S
C868 C304 1.237 . S
C849 C125 1.126 . S
C885 C29 0.657 . S
C904 C324 0.727 . S
C921 C177 1.945 . S
C940 C262 1.949 . S
C957 C209 1.472 . S
C976 C285 1.551 . S
C1012 C302 2.053 . S
C993 C241 2.020 . S
C1048 C322 1.796 . S
C1029 C145 1.710 . S
C1065 C49 1.814 . S
C1084 C272 1.958 . S
C1120 C277 1.554 . S
C1101 C81 1.475 . S
C1156 C312 2.045 . S
C1137 C113 1.862 . S
C1173 C17 1.769 . S
C1192 C332 1.797 . S
