# Generated by pormake.
# Topology eea, (3,6)-cn, num edge types: 1
# Building blocks:
#     Node 0, Type 0, BuildingBlock: BELTOD_clean_linker_0, # of connection points: 3
#     Node 1, Type 0, BuildingBlock: BELTOD_clean_linker_0, # of connection points: 3
#     Node 2, Type 0, BuildingBlock: BELTOD_clean_linker_0, # of connection points: 3
#     Node 3, Type 0, BuildingBlock: BELTOD_clean_linker_0, # of connection points: 3
#     Node 4, Type 0, BuildingBlock: BELTOD_clean_linker_0, # of connection points: 3
#     Node 5, Type 0, BuildingBlock: BELTOD_clean_linker_0, # of connection points: 3
#     Node 6, Type 0, BuildingBlock: BELTOD_clean_linker_0, # of connection points: 3
#     Node 7, Type 0, BuildingBlock: BELTOD_clean_linker_0, # of connection points: 3
#     Node 8, Type 0, BuildingBlock: BELTOD_clean_linker_0, # of connection points: 3
#     Node 9, Type 0, BuildingBlock: BELTOD_clean_linker_0, # of connection points: 3
#     Node 10, Type 0, BuildingBlock: BELTOD_clean_linker_0, # of connection points: 3
#     Node 11, Type 0, BuildingBlock: BELTOD_clean_linker_0, # of connection points: 3
#     Node 12, Type 0, BuildingBlock: BELTOD_clean_linker_0, # of connection points: 3
#     Node 13, Type 0, BuildingBlock: BELTOD_clean_linker_0, # of connection points: 3
#     Node 14, Type 0, BuildingBlock: BELTOD_clean_linker_0, # of connection points: 3
#     Node 15, Type 0, BuildingBlock: BELTOD_clean_linker_0, # of connection points: 3
#     Node 16, Type 0, BuildingBlock: BELTOD_clean_linker_0, # of connection points: 3
#     Node 17, Type 0, BuildingBlock: BELTOD_clean_linker_0, # of connection points: 3
#     Node 18, Type 1, BuildingBlock: NUHQIS_clean_sbu_0, # of connection points: 6
#     Node 19, Type 1, BuildingBlock: NUHQIS_clean_sbu_0, # of connection points: 6
#     Node 20, Type 1, BuildingBlock: NUHQIS_clean_sbu_0, # of connection points: 6
#     Node 21, Type 1, BuildingBlock: NUHQIS_clean_sbu_0, # of connection points: 6
#     Node 22, Type 1, BuildingBlock: NUHQIS_clean_sbu_0, # of connection points: 6
#     Node 23, Type 1, BuildingBlock: NUHQIS_clean_sbu_0, # of connection points: 6
#     Node 24, Type 1, BuildingBlock: NUHQIS_clean_sbu_0, # of connection points: 6
#     Node 25, Type 1, BuildingBlock: NUHQIS_clean_sbu_0, # of connection points: 6
#     Node 26, Type 1, BuildingBlock: NUHQIS_clean_sbu_0, # of connection points: 6
#     Edge 27, Type (0, 1), BuildingBlock: EZIPEK_clean_linker_0, # of connection points: 2
#     Edge 28, Type (0, 1), BuildingBlock: EZIPEK_clean_linker_0, # of connection points: 2
#     Edge 29, Type (0, 1), BuildingBlock: EZIPEK_clean_linker_0, # of connection points: 2
#     Edge 30, Type (0, 1), BuildingBlock: EZIPEK_clean_linker_0, # of connection points: 2
#     Edge 31, Type (0, 1), BuildingBlock: EZIPEK_clean_linker_0, # of connection points: 2
#     Edge 32, Type (0, 1), BuildingBlock: EZIPEK_clean_linker_0, # of connection points: 2
#     Edge 33, Type (0, 1), BuildingBlock: EZIPEK_clean_linker_0, # of connection points: 2
#     Edge 34, Type (0, 1), BuildingBlock: EZIPEK_clean_linker_0, # of connection points: 2
#     Edge 35, Type (0, 1), BuildingBlock: EZIPEK_clean_linker_0, # of connection points: 2
#     Edge 36, Type (0, 1), BuildingBlock: EZIPEK_clean_linker_0, # of connection points: 2
#     Edge 37, Type (0, 1), BuildingBlock: EZIPEK_clean_linker_0, # of connection points: 2
#     Edge 38, Type (0, 1), BuildingBlock: EZIPEK_clean_linker_0, # of connection points: 2
#     Edge 39, Type (0, 1), BuildingBlock: EZIPEK_clean_linker_0, # of connection points: 2
#     Edge 40, Type (0, 1), BuildingBlock: EZIPEK_clean_linker_0, # of connection points: 2
#     Edge 41, Type (0, 1), BuildingBlock: EZIPEK_clean_linker_0, # of connection points: 2
#     Edge 42, Type (0, 1), BuildingBlock: EZIPEK_clean_linker_0, # of connection points: 2
#     Edge 43, Type (0, 1), BuildingBlock: EZIPEK_clean_linker_0, # of connection points: 2
#     Edge 44, Type (0, 1), BuildingBlock: EZIPEK_clean_linker_0, # of connection points: 2
#     Edge 45, Type (0, 1), BuildingBlock: EZIPEK_clean_linker_0, # of connection points: 2
#     Edge 46, Type (0, 1), BuildingBlock: EZIPEK_clean_linker_0, # of connection points: 2
#     Edge 47, Type (0, 1), BuildingBlock: EZIPEK_clean_linker_0, # of connection points: 2
#     Edge 48, Type (0, 1), BuildingBlock: EZIPEK_clean_linker_0, # of connection points: 2
#     Edge 49, Type (0, 1), BuildingBlock: EZIPEK_clean_linker_0, # of connection points: 2
#     Edge 50, Type (0, 1), BuildingBlock: EZIPEK_clean_linker_0, # of connection points: 2
#     Edge 51, Type (0, 1), BuildingBlock: EZIPEK_clean_linker_0, # of connection points: 2
#     Edge 52, Type (0, 1), BuildingBlock: EZIPEK_clean_linker_0, # of connection points: 2
#     Edge 53, Type (0, 1), BuildingBlock: EZIPEK_clean_linker_0, # of connection points: 2
#     Edge 54, Type (0, 1), BuildingBlock: EZIPEK_clean_linker_0, # of connection points: 2
#     Edge 55, Type (0, 1), BuildingBlock: EZIPEK_clean_linker_0, # of connection points: 2
#     Edge 56, Type (0, 1), BuildingBlock: EZIPEK_clean_linker_0, # of connection points: 2
#     Edge 57, Type (0, 1), BuildingBlock: EZIPEK_clean_linker_0, # of connection points: 2
#     Edge 58, Type (0, 1), BuildingBlock: EZIPEK_clean_linker_0, # of connection points: 2
#     Edge 59, Type (0, 1), BuildingBlock: EZIPEK_clean_linker_0, # of connection points: 2
#     Edge 60, Type (0, 1), BuildingBlock: EZIPEK_clean_linker_0, # of connection points: 2
#     Edge 61, Type (0, 1), BuildingBlock: EZIPEK_clean_linker_0, # of connection points: 2
#     Edge 62, Type (0, 1), BuildingBlock: EZIPEK_clean_linker_0, # of connection points: 2
#     Edge 63, Type (0, 1), BuildingBlock: EZIPEK_clean_linker_0, # of connection points: 2
#     Edge 64, Type (0, 1), BuildingBlock: EZIPEK_clean_linker_0, # of connection points: 2
#     Edge 65, Type (0, 1), BuildingBlock: EZIPEK_clean_linker_0, # of connection points: 2
#     Edge 66, Type (0, 1), BuildingBlock: EZIPEK_clean_linker_0, # of connection points: 2
#     Edge 67, Type (0, 1), BuildingBlock: EZIPEK_clean_linker_0, # of connection points: 2
#     Edge 68, Type (0, 1), BuildingBlock: EZIPEK_clean_linker_0, # of connection points: 2
#     Edge 69, Type (0, 1), BuildingBlock: EZIPEK_clean_linker_0, # of connection points: 2
#     Edge 70, Type (0, 1), BuildingBlock: EZIPEK_clean_linker_0, # of connection points: 2
#     Edge 71, Type (0, 1), BuildingBlock: EZIPEK_clean_linker_0, # of connection points: 2
#     Edge 72, Type (0, 1), BuildingBlock: EZIPEK_clean_linker_0, # of connection points: 2
#     Edge 73, Type (0, 1), BuildingBlock: EZIPEK_clean_linker_0, # of connection points: 2
#     Edge 74, Type (0, 1), BuildingBlock: EZIPEK_clean_linker_0, # of connection points: 2
#     Edge 75, Type (0, 1), BuildingBlock: EZIPEK_clean_linker_0, # of connection points: 2
#     Edge 76, Type (0, 1), BuildingBlock: EZIPEK_clean_linker_0, # of connection points: 2
#     Edge 77, Type (0, 1), BuildingBlock: EZIPEK_clean_linker_0, # of connection points: 2
#     Edge 78, Type (0, 1), BuildingBlock: EZIPEK_clean_linker_0, # of connection points: 2
#     Edge 79, Type (0, 1), BuildingBlock: EZIPEK_clean_linker_0, # of connection points: 2
#     Edge 80, Type (0, 1), BuildingBlock: EZIPEK_clean_linker_0, # of connection points: 2
# Relax obj value: 0.032
# Max RMSD: 0.127
# Mean RMSD: 0.096
data_MOF--net-eea--node1-NUHQIS_clean_sbu_0--node2-BELTOD_clean_linker_0--edge1-EZIPEK_clean_linker_0
_symmetry_space_group_name_H-M    P1
_symmetry_Int_Tables_number       1
_symmetry_cell_setting            triclinic
loop_
_symmetry_equiv_pos_as_xyz
'x, y, z'
_cell_length_a     44.431414
_cell_length_b     44.275726
_cell_length_c     68.11139
_cell_angle_alpha  93.911743
_cell_angle_beta   93.34292
_cell_angle_gamma 119.98624
loop_
_atom_site_label
_atom_site_type_symbol
_atom_site_fract_x
_atom_site_fract_y
_atom_site_fract_z
_atom_type_partial_charge
P0 P 0.3211 0.16855 0.40911 0.0
H1 H 0.32706 0.12822 0.37535 0.0
H2 H 0.29589 0.06511 0.36395 0.0
H3 H 0.23558 0.04438 0.41382 0.0
H4 H 0.26691 0.10737 0.42537 0.0
H5 H 0.33976 0.23972 0.40219 0.0
H6 H 0.3062 0.26459 0.38758 0.0
H7 H 0.21372 0.16186 0.37909 0.0
H8 H 0.24697 0.13698 0.39373 0.0
H9 H 0.36941 0.16429 0.43764 0.0
H10 H 0.28454 0.18528 0.43896 0.0
O11 O 0.3604 0.18827 0.40085 0.0
H12 H 0.37531 0.16833 0.47392 0.0
H13 H 0.29065 0.1895 0.47533 0.0
C14 C 0.29975 0.12228 0.40139 0.0
C15 C 0.30747 0.11009 0.38396 0.0
C16 C 0.28968 0.07424 0.37743 0.0
C17 C 0.26368 0.05038 0.38814 0.0
C18 C 0.25574 0.06256 0.40549 0.0
C19 C 0.27371 0.09838 0.41209 0.0
C20 C 0.29604 0.18649 0.39878 0.0
C21 C 0.3123 0.22255 0.39715 0.0
C22 C 0.29325 0.2367 0.38884 0.0
C23 C 0.25766 0.21492 0.38218 0.0
C24 C 0.24124 0.17893 0.38406 0.0
C25 C 0.26028 0.16481 0.39241 0.0
C26 C 0.32705 0.17519 0.43569 0.0
C27 C 0.35245 0.17032 0.44575 0.0
C28 C 0.35574 0.17247 0.46637 0.0
C29 C 0.33352 0.17937 0.47717 0.0
C30 C 0.30813 0.18439 0.46715 0.0
C31 C 0.30479 0.18213 0.44646 0.0
P32 P 0.92063 0.11643 0.43454 0.0
H33 H 0.91125 0.06574 0.40191 0.0
H34 H 0.8592 0.015 0.38363 0.0
H35 H 0.79317 0.03962 0.41696 0.0
H36 H 0.84504 0.09039 0.43521 0.0
H37 H 0.99426 0.16988 0.44014 0.0
H38 H 0.03392 0.2089 0.41783 0.0
H39 H 0.94684 0.17504 0.37343 0.0
H40 H 0.907 0.13597 0.39575 0.0
H41 H 0.91028 0.09569 0.47424 0.0
H42 H 0.90394 0.17273 0.44153 0.0
O43 O 0.94375 0.09862 0.44267 0.0
H44 H 0.89057 0.11464 0.50287 0.0
H45 H 0.88375 0.19162 0.47037 0.0
C46 C 0.88205 0.08162 0.42003 0.0
C47 C 0.88559 0.06043 0.40516 0.0
C48 C 0.856 0.03161 0.39473 0.0
C49 C 0.82252 0.02366 0.39905 0.0
C50 C 0.81889 0.04546 0.41348 0.0
C51 C 0.84852 0.07436 0.4239 0.0
C52 C 0.94781 0.14972 0.41951 0.0
C53 C 0.98356 0.17126 0.42574 0.0
C54 C 0.00617 0.19341 0.41303 0.0
C55 C 0.99326 0.19452 0.39397 0.0
C56 C 0.95721 0.17437 0.38808 0.0
C57 C 0.93456 0.15214 0.40082 0.0
C58 C 0.90936 0.13339 0.45593 0.0
C59 C 0.90521 0.11709 0.47332 0.0
C60 C 0.8938 0.12775 0.48963 0.0
C61 C 0.88596 0.15465 0.48876 0.0
C62 C 0.89 0.17101 0.47134 0.0
C63 C 0.9016 0.16036 0.45497 0.0
P64 P 0.8693 0.7248 0.41594 0.0
H65 H 0.80122 0.71394 0.42442 0.0
H66 H 0.76386 0.73526 0.41063 0.0
H67 H 0.84418 0.79923 0.3748 0.0
H68 H 0.88143 0.77783 0.38836 0.0
H69 H 0.90304 0.69664 0.39094 0.0
H70 H 0.95916 0.72359 0.37719 0.0
H71 H 0.98677 0.82402 0.40771 0.0
H72 H 0.9303 0.79674 0.42186 0.0
H73 H 0.85867 0.76227 0.45028 0.0
H74 H 0.88401 0.68077 0.43983 0.0
O75 O 0.84647 0.68349 0.4052 0.0
H76 H 0.85195 0.75042 0.48502 0.0
H77 H 0.87775 0.66932 0.47456 0.0
C78 C 0.84465 0.74505 0.40796 0.0
C79 C 0.81118 0.73317 0.41395 0.0
C80 C 0.78977 0.74512 0.406 0.0
C81 C 0.80138 0.76892 0.39178 0.0
C82 C 0.83492 0.78108 0.38588 0.0
C83 C 0.85629 0.76903 0.39379 0.0
C84 C 0.91228 0.74471 0.40736 0.0
C85 C 0.92109 0.7244 0.39487 0.0
C86 C 0.95315 0.73978 0.38696 0.0
C87 C 0.97707 0.77583 0.3913 0.0
C88 C 0.96864 0.79615 0.40413 0.0
C89 C 0.93655 0.78061 0.41223 0.0
C90 C 0.87119 0.72192 0.44234 0.0
C91 C 0.86325 0.7422 0.45546 0.0
C92 C 0.85947 0.7355 0.47529 0.0
C93 C 0.864 0.70873 0.48229 0.0
C94 C 0.87398 0.68995 0.46944 0.0
C95 C 0.87759 0.69654 0.44964 0.0
P96 P 0.13533 0.28335 0.60287 0.0
H97 H 0.11656 0.26923 0.64263 0.0
H98 H 0.06096 0.24558 0.6572 0.0
H99 H 0.00634 0.22715 0.59928 0.0
H100 H 0.06199 0.2506 0.58462 0.0
H101 H 0.21023 0.31377 0.61333 0.0
H102 H 0.24578 0.28914 0.62516 0.0
H103 H 0.15339 0.18661 0.62059 0.0
H104 H 0.11766 0.21126 0.60874 0.0
H105 H 0.11091 0.31876 0.57748 0.0
H106 H 0.15675 0.2533 0.57011 0.0
O107 O 0.15576 0.32479 0.61339 0.0
H108 H 0.11693 0.32998 0.54269 0.0
H109 H 0.16306 0.26488 0.53544 0.0
C110 C 0.09345 0.26161 0.61255 0.0
C111 C 0.09259 0.25965 0.633 0.0
C112 C 0.06095 0.24627 0.64133 0.0
C113 C 0.02964 0.23477 0.62932 0.0
C114 C 0.0303 0.23593 0.60877 0.0
C115 C 0.06204 0.24931 0.60042 0.0
C116 C 0.16124 0.26446 0.61061 0.0
C117 C 0.19756 0.28599 0.61487 0.0
C118 C 0.21786 0.27199 0.62153 0.0
C119 C 0.20212 0.23617 0.62383 0.0
C120 C 0.16591 0.21435 0.61895 0.0
C121 C 0.14559 0.22841 0.61228 0.0
C122 C 0.13337 0.28525 0.57644 0.0
C123 C 0.12158 0.30624 0.5683 0.0
C124 C 0.12508 0.31271 0.5485 0.0
C125 C 0.14058 0.29838 0.53656 0.0
C126 C 0.15099 0.27612 0.54443 0.0
C127 C 0.14736 0.26954 0.56424 0.0
P128 P 0.81002 0.89529 0.58136 0.0
H129 H 0.84999 0.94088 0.61712 0.0
H130 H 0.84787 0.98891 0.63609 0.0
H131 H 0.75911 0.96982 0.59669 0.0
H132 H 0.76112 0.92199 0.57771 0.0
H133 H 0.84142 0.85132 0.5805 0.0
H134 H 0.8395 0.80832 0.60202 0.0
H135 H 0.76766 0.82217 0.63616 0.0
H136 H 0.76956 0.86537 0.61461 0.0
H137 H 0.81297 0.91184 0.54069 0.0
H138 H 0.73641 0.83914 0.57559 0.0
O139 O 0.84986 0.91479 0.57377 0.0
H140 H 0.76889 0.88919 0.51194 0.0
H141 H 0.6921 0.81657 0.5467 0.0
C142 C 0.80591 0.92808 0.59598 0.0
C143 C 0.82985 0.94679 0.6127 0.0
C144 C 0.82857 0.97397 0.62354 0.0
C145 C 0.8033 0.98263 0.61773 0.0
C146 C 0.77864 0.96322 0.60137 0.0
C147 C 0.77994 0.93606 0.59052 0.0
C148 C 0.80622 0.86195 0.59627 0.0
C149 C 0.82516 0.84505 0.59255 0.0
C150 C 0.82401 0.82054 0.60474 0.0
C151 C 0.80358 0.81239 0.62063 0.0
C152 C 0.78358 0.82831 0.62394 0.0
C153 C 0.78479 0.85294 0.61173 0.0
C154 C 0.77811 0.87654 0.56008 0.0
C155 C 0.78684 0.89069 0.5421 0.0
C156 C 0.76173 0.87794 0.52575 0.0
C157 C 0.72749 0.85112 0.52726 0.0
C158 C 0.71855 0.83709 0.5453 0.0
C159 C 0.7438 0.84982 0.56168 0.0
P160 P 0.13179 0.8355 0.59768 0.0
H161 H 0.18791 0.87564 0.62965 0.0
H162 H 0.22287 0.93857 0.64104 0.0
H163 H 0.16792 0.96004 0.59485 0.0
H164 H 0.13288 0.89691 0.58334 0.0
H165 H 0.07229 0.7644 0.59458 0.0
H166 H 0.01827 0.73773 0.61089 0.0
H167 H 0.04713 0.83922 0.64039 0.0
H168 H 0.10106 0.86593 0.62425 0.0
H169 H 0.17856 0.83541 0.56968 0.0
H170 H 0.07539 0.82227 0.56712 0.0
O171 O 0.15252 0.81551 0.60612 0.0
H172 H 0.17407 0.82834 0.53337 0.0
H173 H 0.07089 0.81503 0.53071 0.0
C174 C 0.15834 0.88178 0.60542 0.0
C175 C 0.18357 0.89384 0.62183 0.0
C176 C 0.2034 0.92964 0.62837 0.0
C177 C 0.19793 0.95373 0.61871 0.0
C178 C 0.17249 0.9417 0.60239 0.0
C179 C 0.15269 0.90584 0.59582 0.0
C180 C 0.0906 0.81713 0.60805 0.0
C181 C 0.06684 0.78097 0.60439 0.0
C182 C 0.03618 0.76577 0.61373 0.0
C183 C 0.02893 0.78657 0.62685 0.0
C184 C 0.05239 0.82283 0.6303 0.0
C185 C 0.0831 0.83802 0.621 0.0
C186 C 0.12702 0.82861 0.57105 0.0
C187 C 0.15483 0.83066 0.56131 0.0
C188 C 0.15237 0.82677 0.54064 0.0
C189 C 0.12214 0.82107 0.52946 0.0
C190 C 0.09435 0.81929 0.53917 0.0
C191 C 0.09687 0.82325 0.55989 0.0
P192 P 0.98315 0.50002 0.74657 0.0
H193 H 0.99543 0.4589 0.71621 0.0
H194 H 0.96427 0.39597 0.70452 0.0
H195 H 0.89095 0.37679 0.7475 0.0
H196 H 0.92227 0.43974 0.75937 0.0
H197 H 0.00461 0.55325 0.71886 0.0
H198 H 0.97384 0.57908 0.70223 0.0
H199 H 0.8804 0.511 0.72842 0.0
H200 H 0.91114 0.48514 0.74513 0.0
H201 H 0.99845 0.4697 0.77967 0.0
H202 H 0.97175 0.54965 0.77148 0.0
O203 O 0.02438 0.51889 0.74108 0.0
H204 H 1.00228 0.48221 0.81574 0.0
H205 H 0.97523 0.56174 0.80746 0.0
C206 C 0.96151 0.45376 0.73888 0.0
C207 C 0.97292 0.44115 0.72328 0.0
C208 C 0.95514 0.4054 0.71657 0.0
C209 C 0.92551 0.38202 0.72524 0.0
C210 C 0.91388 0.39461 0.74074 0.0
C211 C 0.93177 0.43038 0.7475 0.0
C212 C 0.96014 0.51738 0.73327 0.0
C213 C 0.97743 0.54357 0.72088 0.0
C214 C 0.9599 0.55817 0.71132 0.0
C215 C 0.92489 0.54669 0.71405 0.0
C216 C 0.90732 0.51986 0.72603 0.0
C217 C 0.92487 0.50526 0.73558 0.0
C218 C 0.98409 0.50819 0.7729 0.0
C219 C 0.99303 0.4896 0.7856 0.0
C220 C 0.99528 0.49673 0.80611 0.0
C221 C 0.98887 0.52274 0.81413 0.0
C222 C 0.98004 0.54144 0.80145 0.0
C223 C 0.97794 0.5344 0.78095 0.0
P224 P 0.59056 0.44828 0.77033 0.0
H225 H 0.57862 0.40995 0.73145 0.0
H226 H 0.52726 0.35839 0.71344 0.0
H227 H 0.46611 0.35526 0.76096 0.0
H228 H 0.51704 0.40747 0.77873 0.0
H229 H 0.66515 0.49874 0.77473 0.0
H230 H 0.70432 0.53786 0.75233 0.0
H231 H 0.6157 0.50958 0.71012 0.0
H232 H 0.57631 0.47115 0.73282 0.0
H233 H 0.58278 0.43095 0.81081 0.0
H234 H 0.57239 0.50363 0.77594 0.0
O235 O 0.61337 0.43031 0.77871 0.0
H236 H 0.56296 0.45097 0.83899 0.0
H237 H 0.55257 0.52389 0.80441 0.0
C238 C 0.55157 0.4132 0.7562 0.0
C239 C 0.55397 0.39884 0.73777 0.0
C240 C 0.52476 0.36937 0.72753 0.0
C241 C 0.4929 0.35324 0.73583 0.0
C242 C 0.49039 0.36761 0.75424 0.0
C243 C 0.51952 0.39744 0.76435 0.0
C244 C 0.61793 0.48139 0.75523 0.0
C245 C 0.65404 0.50133 0.76081 0.0
C246 C 0.67638 0.52357 0.74803 0.0
C247 C 0.6629 0.52622 0.72948 0.0
C248 C 0.62657 0.50769 0.72432 0.0
C249 C 0.60417 0.48572 0.73725 0.0
C250 C 0.57976 0.46636 0.79143 0.0
C251 C 0.57687 0.45168 0.80932 0.0
C252 C 0.5654 0.46292 0.82537 0.0
C253 C 0.55649 0.48893 0.82375 0.0
C254 C 0.55958 0.50392 0.80591 0.0
C255 C 0.57097 0.49249 0.78976 0.0
P256 P 0.53623 0.05439 0.7477 0.0
H257 H 0.46182 0.01917 0.73434 0.0
H258 H 0.42357 0.04037 0.72202 0.0
H259 H 0.50954 0.147 0.7331 0.0
H260 H 0.54768 0.12579 0.74602 0.0
H261 H 0.60535 0.06736 0.76326 0.0
H262 H 0.66182 0.09371 0.74933 0.0
H263 H 0.61826 0.1227 0.70095 0.0
H264 H 0.56183 0.09567 0.71443 0.0
H265 H 0.49527 0.99327 0.76819 0.0
H266 H 0.57183 0.10261 0.78443 0.0
O267 O 0.52024 0.01494 0.73499 0.0
H268 H 0.49001 0.98443 0.80315 0.0
H269 H 0.56636 0.09365 0.81976 0.0
C270 C 0.50783 0.07085 0.74053 0.0
C271 C 0.47246 0.04713 0.73424 0.0
C272 C 0.45063 0.05918 0.72721 0.0
C273 C 0.46386 0.09519 0.72634 0.0
C274 C 0.49893 0.11909 0.73346 0.0
C275 C 0.52066 0.10699 0.74077 0.0
C276 C 0.5796 0.08067 0.74034 0.0
C277 C 0.6082 0.0803 0.74999 0.0
C278 C 0.64033 0.09512 0.742 0.0
C279 C 0.64419 0.11035 0.7242 0.0
C280 C 0.6159 0.11149 0.71482 0.0
C281 C 0.58376 0.09632 0.72267 0.0
C282 C 0.53455 0.04845 0.77369 0.0
C283 C 0.51132 0.01532 0.77926 0.0
C284 C 0.50818 0.01024 0.79922 0.0
C285 C 0.52799 0.03827 0.81403 0.0
C286 C 0.55109 0.07162 0.80853 0.0
C287 C 0.55425 0.0767 0.78844 0.0
P288 P 0.80027 0.61328 0.93313 0.0
H289 H 0.78165 0.6368 0.96904 0.0
H290 H 0.727 0.61486 0.98433 0.0
H291 H 0.67551 0.52778 0.93843 0.0
H292 H 0.73044 0.55 0.92288 0.0
H293 H 0.87386 0.64324 0.94772 0.0
H294 H 0.90767 0.61753 0.96047 0.0
H295 H 0.81619 0.51436 0.9491 0.0
H296 H 0.78204 0.54012 0.93632 0.0
H297 H 0.74646 0.61229 0.90555 0.0
H298 H 0.84303 0.61213 0.90224 0.0
O299 O 0.82343 0.6561 0.94098 0.0
H300 H 0.74465 0.62057 0.87036 0.0
H301 H 0.84144 0.62104 0.86707 0.0
C302 C 0.75993 0.59547 0.94455 0.0
C303 C 0.75869 0.61301 0.96218 0.0
C304 C 0.72758 0.60044 0.97099 0.0
C305 C 0.69728 0.56981 0.96247 0.0
C306 C 0.69869 0.55149 0.9452 0.0
C307 C 0.72991 0.56421 0.93631 0.0
C308 C 0.82524 0.59364 0.94137 0.0
C309 C 0.86093 0.61508 0.94793 0.0
C310 C 0.8803 0.60047 0.95516 0.0
C311 C 0.86435 0.56414 0.95581 0.0
C312 C 0.82886 0.54249 0.94875 0.0
C313 C 0.80943 0.55718 0.94152 0.0
C314 C 0.79434 0.61052 0.90647 0.0
C315 C 0.76664 0.61282 0.89716 0.0
C316 C 0.76571 0.61782 0.8771 0.0
C317 C 0.79288 0.62134 0.86613 0.0
C318 C 0.82011 0.6181 0.87525 0.0
C319 C 0.82087 0.61283 0.89529 0.0
P320 P 0.45617 0.2209 0.91603 0.0
H321 H 0.4254 0.22717 0.95231 0.0
H322 H 0.42842 0.27821 0.97099 0.0
H323 H 0.47841 0.34131 0.92445 0.0
H324 H 0.47692 0.29081 0.90623 0.0
H325 H 0.48845 0.23105 0.95604 0.0
H326 H 0.4927 0.19077 0.97742 0.0
H327 H 0.42687 0.10362 0.93328 0.0
H328 H 0.42192 0.14382 0.91198 0.0
H329 H 0.46101 0.22065 0.87356 0.0
H330 H 0.37968 0.17938 0.91254 0.0
O331 O 0.49565 0.2386 0.90802 0.0
H332 H 0.41686 0.1986 0.84498 0.0
H333 H 0.33515 0.15693 0.88362 0.0
C334 C 0.45236 0.25579 0.92832 0.0
C335 C 0.43707 0.25197 0.94613 0.0
C336 C 0.43839 0.28089 0.95668 0.0
C337 C 0.45394 0.31346 0.94913 0.0
C338 C 0.4665 0.31636 0.93051 0.0
C339 C 0.4658 0.28769 0.9202 0.0
C340 C 0.45407 0.1903 0.93267 0.0
C341 C 0.47395 0.20316 0.95121 0.0
C342 C 0.47646 0.18028 0.96338 0.0
C343 C 0.45987 0.14434 0.95693 0.0
C344 C 0.43943 0.13128 0.93855 0.0
C345 C 0.43664 0.1542 0.92644 0.0
C346 C 0.42352 0.20127 0.89511 0.0
C347 C 0.43368 0.20643 0.87597 0.0
C348 C 0.40856 0.19395 0.85967 0.0
C349 C 0.37296 0.17623 0.8623 0.0
C350 C 0.36261 0.1705 0.88142 0.0
C351 C 0.38788 0.18318 0.8978 0.0
P352 P 0.79953 0.16772 0.93181 0.0
H353 H 0.85116 0.20793 0.96572 0.0
H354 H 0.88592 0.27101 0.97688 0.0
H355 H 0.83654 0.29229 0.92764 0.0
H356 H 0.80173 0.22907 0.91637 0.0
H357 H 0.75908 0.09958 0.94648 0.0
H358 H 0.70493 0.0727 0.96255 0.0
H359 H 0.69618 0.16458 0.95737 0.0
H360 H 0.75037 0.19154 0.94122 0.0
H361 H 0.84899 0.19459 0.90264 0.0
H362 H 0.73793 0.12511 0.90234 0.0
O363 O 0.82277 0.14972 0.9394 0.0
H364 H 0.84331 0.18301 0.86644 0.0
H365 H 0.73235 0.11358 0.86608 0.0
C366 C 0.82441 0.21397 0.94003 0.0
C367 C 0.84788 0.22612 0.95726 0.0
C368 C 0.86764 0.262 0.96364 0.0
C369 C 0.86385 0.28611 0.95298 0.0
C370 C 0.83986 0.27396 0.93595 0.0
C371 C 0.82014 0.23802 0.92954 0.0
C372 C 0.75903 0.14777 0.94292 0.0
C373 C 0.74565 0.11405 0.94885 0.0
C374 C 0.71486 0.09874 0.95806 0.0
C375 C 0.69689 0.11686 0.96134 0.0
C376 C 0.70995 0.15039 0.95513 0.0
C377 C 0.74077 0.16569 0.94589 0.0
C378 C 0.79387 0.16096 0.90515 0.0
C379 C 0.82336 0.17719 0.89477 0.0
C380 C 0.82018 0.17061 0.87417 0.0
C381 C 0.78744 0.14757 0.86368 0.0
C382 C 0.75779 0.13159 0.87399 0.0
C383 C 0.761 0.13818 0.89465 0.0
P384 P 0.65129 0.83896 0.0765 0.0
H385 H 0.6553 0.79856 0.04215 0.0
H386 H 0.62474 0.73529 0.03126 0.0
H387 H 0.57076 0.71454 0.08369 0.0
H388 H 0.60144 0.77769 0.09471 0.0
H389 H 0.66679 0.90793 0.06662 0.0
H390 H 0.63049 0.92911 0.05114 0.0
H391 H 0.54001 0.82543 0.04782 0.0
H392 H 0.57597 0.80427 0.06342 0.0
H393 H 0.70154 0.83776 0.10498 0.0
H394 H 0.61485 0.85593 0.10633 0.0
O395 O 0.69009 0.85937 0.0677 0.0
H396 H 0.70859 0.84345 0.14128 0.0
H397 H 0.62211 0.86182 0.14273 0.0
C398 C 0.63119 0.79264 0.06942 0.0
C399 C 0.6373 0.78039 0.05144 0.0
C400 C 0.61982 0.74447 0.04519 0.0
C401 C 0.59571 0.72057 0.05675 0.0
C402 C 0.58944 0.73278 0.07469 0.0
C403 C 0.60709 0.76869 0.08099 0.0
C404 C 0.62423 0.85447 0.06587 0.0
C405 C 0.63916 0.88977 0.06257 0.0
C406 C 0.61855 0.90181 0.05375 0.0
C407 C 0.58275 0.87869 0.04827 0.0
C408 C 0.56766 0.84351 0.05188 0.0
C409 C 0.58825 0.83151 0.06077 0.0
C410 C 0.65815 0.84709 0.10303 0.0
C411 C 0.68444 0.84356 0.11309 0.0
C412 C 0.68839 0.84667 0.13373 0.0
C413 C 0.66598 0.85321 0.14455 0.0
C414 C 0.63976 0.85701 0.13453 0.0
C415 C 0.63574 0.85378 0.11383 0.0
P416 P 0.25273 0.78495 0.10048 0.0
H417 H 0.2437 0.72182 0.07835 0.0
H418 H 0.19258 0.66991 0.06035 0.0
H419 H 0.12853 0.71506 0.07312 0.0
H420 H 0.17976 0.76715 0.09123 0.0
H421 H 0.32014 0.84921 0.10824 0.0
H422 H 0.35967 0.88937 0.08628 0.0
H423 H 0.28083 0.83416 0.03669 0.0
H424 H 0.24133 0.79385 0.05856 0.0
H425 H 0.23733 0.7607 0.13907 0.0
H426 H 0.23623 0.84149 0.1076 0.0
O427 O 0.27885 0.77097 0.1094 0.0
H428 H 0.21633 0.77869 0.16748 0.0
H429 H 0.21477 0.85942 0.1362 0.0
C430 C 0.2153 0.7479 0.08649 0.0
C431 C 0.2187 0.72062 0.0773 0.0
C432 C 0.18966 0.69112 0.06698 0.0
C433 C 0.15692 0.68874 0.06553 0.0
C434 C 0.15366 0.71653 0.07416 0.0
C435 C 0.18279 0.74608 0.08453 0.0
C436 C 0.27788 0.81849 0.08506 0.0
C437 C 0.31107 0.84617 0.09272 0.0
C438 C 0.33363 0.86896 0.08021 0.0
C439 C 0.32324 0.8644 0.05986 0.0
C440 C 0.28931 0.8379 0.05235 0.0
C441 C 0.26679 0.81499 0.06487 0.0
C442 C 0.23907 0.80028 0.12143 0.0
C443 C 0.23295 0.78258 0.13836 0.0
C444 C 0.22085 0.79272 0.15454 0.0
C445 C 0.21428 0.82052 0.15398 0.0
C446 C 0.21999 0.83809 0.13693 0.0
C447 C 0.23229 0.82795 0.1207 0.0
P448 P 0.2043 0.39184 0.08208 0.0
H449 H 0.15578 0.36957 0.04618 0.0
H450 H 0.11839 0.39065 0.03236 0.0
H451 H 0.15811 0.47313 0.08083 0.0
H452 H 0.19568 0.45191 0.09481 0.0
H453 H 0.25454 0.36922 0.07506 0.0
H454 H 0.31044 0.39638 0.06075 0.0
H455 H 0.30536 0.49048 0.05666 0.0
H456 H 0.24943 0.46342 0.07109 0.0
H457 H 0.15298 0.38628 0.10891 0.0
H458 H 0.25326 0.39261 0.11342 0.0
O459 O 0.18552 0.3498 0.0728 0.0
H460 H 0.14718 0.37443 0.14347 0.0
H461 H 0.24694 0.37981 0.14797 0.0
C462 C 0.17796 0.40871 0.07176 0.0
C463 C 0.15647 0.39213 0.05392 0.0
C464 C 0.13519 0.40417 0.04599 0.0
C465 C 0.13534 0.43324 0.05565 0.0
C466 C 0.15755 0.45053 0.07323 0.0
C467 C 0.17886 0.4384 0.08119 0.0
C468 C 0.24755 0.41409 0.07397 0.0
C469 C 0.26553 0.39582 0.07128 0.0
C470 C 0.29737 0.41124 0.06309 0.0
C471 C 0.31185 0.44529 0.05751 0.0
C472 C 0.29451 0.46411 0.0608 0.0
C473 C 0.26262 0.44865 0.06906 0.0
C474 C 0.20409 0.39146 0.10863 0.0
C475 C 0.17431 0.38631 0.11745 0.0
C476 C 0.1708 0.37922 0.13717 0.0
C477 C 0.19664 0.3763 0.14832 0.0
C478 C 0.22683 0.38224 0.13969 0.0
C479 C 0.23048 0.3897 0.11998 0.0
P480 P 0.46318 0.94152 0.26393 0.0
H481 H 0.44659 0.93439 0.3045 0.0
H482 H 0.39181 0.91234 0.31982 0.0
H483 H 0.33407 0.88353 0.26201 0.0
H484 H 0.38884 0.9051 0.24661 0.0
H485 H 0.53786 0.97313 0.27625 0.0
H486 H 0.57331 0.94943 0.28957 0.0
H487 H 0.48157 0.84637 0.28448 0.0
H488 H 0.4459 0.87012 0.27115 0.0
H489 H 0.43361 0.96909 0.23595 0.0
H490 H 0.49022 0.91395 0.2333 0.0
O491 O 0.48398 0.98403 0.27247 0.0
H492 H 0.4352 0.9734 0.20098 0.0
H493 H 0.49295 0.91855 0.19871 0.0
C494 C 0.42191 0.92152 0.27442 0.0
C495 C 0.42213 0.92295 0.29508 0.0
C496 C 0.39094 0.91045 0.30384 0.0
C497 C 0.35894 0.89647 0.29206 0.0
C498 C 0.35854 0.89429 0.27134 0.0
C499 C 0.38982 0.90668 0.26257 0.0
C500 C 0.48914 0.9235 0.2731 0.0
C501 C 0.52528 0.94545 0.27802 0.0
C502 C 0.54554 0.93197 0.28555 0.0
C503 C 0.52998 0.89624 0.28809 0.0
C504 C 0.49396 0.87404 0.28268 0.0
C505 C 0.47367 0.88758 0.27515 0.0
C506 C 0.45982 0.93928 0.23719 0.0
C507 C 0.44473 0.95612 0.22754 0.0
C508 C 0.44507 0.95778 0.20709 0.0
C509 C 0.45939 0.94148 0.19526 0.0
C510 C 0.477 0.92712 0.2057 0.0
C511 C 0.47642 0.92526 0.22613 0.0
P512 P 0.14111 0.55986 0.24874 0.0
H513 H 0.1947 0.62734 0.26941 0.0
H514 H 0.19164 0.67522 0.28773 0.0
H515 H 0.07911 0.61535 0.2779 0.0
H516 H 0.08208 0.56738 0.25937 0.0
H517 H 0.15192 0.50087 0.24176 0.0
H518 H 0.14929 0.45683 0.26274 0.0
H519 H 0.11546 0.49999 0.30936 0.0
H520 H 0.11814 0.54409 0.2885 0.0
H521 H 0.14027 0.5862 0.21107 0.0
H522 H 0.07085 0.49726 0.24029 0.0
O523 O 0.18049 0.57668 0.24066 0.0
H524 H 0.09691 0.56423 0.18193 0.0
H525 H 0.02741 0.47524 0.211 0.0
C526 C 0.13864 0.59427 0.26271 0.0
C527 C 0.16937 0.62448 0.27115 0.0
C528 C 0.16766 0.65164 0.28167 0.0
C529 C 0.13518 0.64862 0.28405 0.0
C530 C 0.10434 0.61795 0.27614 0.0
C531 C 0.10608 0.59083 0.26552 0.0
C532 C 0.13573 0.52597 0.26367 0.0
C533 C 0.1437 0.5007 0.25644 0.0
C534 C 0.14213 0.47562 0.26833 0.0
C535 C 0.13242 0.47551 0.28755 0.0
C536 C 0.1231 0.49991 0.29455 0.0
C537 C 0.12473 0.52506 0.28265 0.0
C538 C 0.10904 0.5429 0.22756 0.0
C539 C 0.11581 0.56186 0.21115 0.0
C540 C 0.09112 0.54948 0.19461 0.0
C541 C 0.05925 0.51809 0.19437 0.0
C542 C 0.05204 0.49942 0.21097 0.0
C543 C 0.07683 0.51188 0.22756 0.0
P544 P 0.46353 0.50357 0.26513 0.0
H545 H 0.51737 0.54315 0.29826 0.0
H546 H 0.55361 0.60615 0.30927 0.0
H547 H 0.50407 0.62877 0.26071 0.0
H548 H 0.46771 0.56557 0.24961 0.0
H549 H 0.40489 0.4321 0.2631 0.0
H550 H 0.35106 0.40561 0.27956 0.0
H551 H 0.3782 0.50788 0.30705 0.0
H552 H 0.43173 0.53446 0.29052 0.0
H553 H 0.51505 0.51719 0.23766 0.0
H554 H 0.40368 0.4755 0.23399 0.0
O555 O 0.48409 0.48353 0.27374 0.0
H556 H 0.51118 0.50701 0.20148 0.0
H557 H 0.39981 0.46477 0.19779 0.0
C558 C 0.49038 0.54984 0.27292 0.0
C559 C 0.51445 0.56161 0.28987 0.0
C560 C 0.53505 0.59745 0.29617 0.0
C561 C 0.53155 0.62191 0.2857 0.0
C562 C 0.50717 0.61017 0.26887 0.0
C563 C 0.48657 0.57425 0.26255 0.0
C564 C 0.42222 0.48524 0.27542 0.0
C565 C 0.39902 0.44889 0.27243 0.0
C566 C 0.36844 0.43378 0.28185 0.0
C567 C 0.36077 0.45483 0.29451 0.0
C568 C 0.3837 0.49127 0.29729 0.0
C569 C 0.41421 0.50639 0.28779 0.0
C570 C 0.45963 0.49668 0.23851 0.0
C571 C 0.4898 0.50585 0.22907 0.0
C572 C 0.48765 0.50015 0.20848 0.0
C573 C 0.45524 0.48514 0.19704 0.0
C574 C 0.42504 0.4764 0.20643 0.0
C575 C 0.42725 0.48236 0.22707 0.0
Tb576 Tb 0.48811 0.97882 0.98406 0.0
Eu577 Eu 0.51548 0.02021 0.03037 0.0
C578 C 0.51754 0.95035 0.01626 0.0
C579 C 0.43855 0.95422 0.01818 0.0
C580 C 0.48072 0.96879 0.9292 0.0
C581 C 0.48995 0.96177 0.8947 0.0
C582 C 0.48043 0.94784 0.91269 0.0
C583 C 0.49111 0.0041 0.9275 0.0
C584 C 0.50068 0.01805 0.90952 0.0
C585 C 0.49994 0.9969 0.89295 0.0
C586 C 0.47045 0.95363 0.94806 0.0
O587 O 0.49544 0.03083 0.9831 0.0
O588 O 0.48759 0.04404 0.01488 0.0
O589 O 0.55813 0.0536 0.01183 0.0
O590 O 0.54484 0.01097 0.98589 0.0
C591 C 0.48759 0.04834 0.99604 0.0
O592 O 0.50582 0.04401 0.05656 0.0
O593 O 0.55158 0.03865 0.0575 0.0
O594 O 0.53329 0.9811 0.02685 0.0
O595 O 0.49387 0.94189 1.00118 0.0
O596 O 0.44094 0.95916 0.99937 0.0
O597 O 0.46554 0.96998 0.0316 0.0
C598 C 0.5661 0.04195 0.99576 0.0
O599 O 0.49457 0.95237 0.9592 0.0
O600 O 0.45311 0.96436 0.95843 0.0
C601 C 0.52109 0.02761 0.0859 0.0
C602 C 0.49774 0.99368 0.12012 0.0
C603 C 0.52055 0.03017 0.12169 0.0
C604 C 0.53208 0.04705 0.10467 0.0
C605 C 0.49878 0.99106 0.0844 0.0
C606 C 0.48712 0.97426 0.10135 0.0
C607 C 0.5313 0.04531 0.06781 0.0
H608 H 0.48924 0.94507 0.88208 0.0
H609 H 0.47266 0.92062 0.91369 0.0
H610 H 0.49163 0.02084 0.94003 0.0
H611 H 0.50836 0.04523 0.90846 0.0
H612 H 0.52894 0.04559 0.13605 0.0
H613 H 0.54916 0.07527 0.10612 0.0
H614 H 0.48995 0.97557 0.07006 0.0
H615 H 0.4695 0.94612 0.09982 0.0
Tb616 Tb 0.0174 0.50516 0.98638 0.0
Eu617 Eu 0.97336 0.4835 0.02595 0.0
C618 C 0.04398 0.5577 0.02549 0.0
C619 C 0.04108 0.4757 0.02175 0.0
C620 C 0.03637 0.52434 0.93512 0.0
C621 C 0.04935 0.55377 0.90542 0.0
C622 C 0.06028 0.54924 0.92408 0.0
C623 C 1.0017 0.50278 0.92688 0.0
C624 C 0.99074 0.50726 0.9082 0.0
C625 C 0.01368 0.53474 0.89756 0.0
C626 C 0.04771 0.52191 0.95536 0.0
O627 O 0.9684 0.45691 0.97645 0.0
O628 O 0.9546 0.43372 0.00599 0.0
O629 O 0.93969 0.4907 1.00301 0.0
O630 O 0.98308 0.52713 0.98489 0.0
C631 C 0.95173 0.43022 0.98663 0.0
O632 O 0.9484 0.4466 0.04745 0.0
O633 O 0.94673 0.4947 0.0488 0.0
O634 O 0.01303 0.54124 0.03188 0.0
O635 O 0.05233 0.54473 0.01025 0.0
O636 O 0.03854 0.47768 1.00257 0.0
O637 O 0.02255 0.48232 0.0338 0.0
C638 C 0.95119 0.51351 0.99005 0.0
O639 O 0.04819 0.54443 0.9689 0.0
O640 O 0.03396 0.49056 0.96102 0.0
C641 C 0.95359 0.47453 0.07883 0.0
C642 C 0.97983 0.4844 0.11863 0.0
C643 C 0.9441 0.46155 0.11273 0.0
C644 C 0.93102 0.45659 0.09284 0.0
C645 C 0.98914 0.4978 0.08487 0.0
C646 C 1.0022 0.50271 0.10464 0.0
C647 C 0.94087 0.46741 0.05774 0.0
H648 H 0.0696 0.57192 0.89724 0.0
H649 H 0.08755 0.56526 0.92988 0.0
H650 H 0.98303 0.48226 0.93483 0.0
H651 H 0.96435 0.48817 0.90231 0.0
H652 H 0.92661 0.44718 0.12342 0.0
H653 H 0.90355 0.43833 0.08835 0.0
H654 H 0.00685 0.51163 0.07418 0.0
H655 H 0.02985 0.52035 0.109 0.0
Tb656 Tb 0.51511 0.49992 0.02952 0.0
Eu657 Eu 0.49073 0.51851 0.98683 0.0
C658 C 0.48454 0.44453 0.99197 0.0
C659 C 0.56641 0.52686 0.99612 0.0
C660 C 0.51334 0.48314 0.08159 0.0
C661 C 0.49804 0.45833 0.11264 0.0
C662 C 0.51489 0.46206 0.09548 0.0
C663 C 0.49623 0.50182 0.08554 0.0
C664 C 0.47954 0.49826 0.10274 0.0
C665 C 0.47761 0.47423 0.11606 0.0
C666 C 0.52818 0.48434 0.06268 0.0
O667 O 0.5172 0.54946 0.03655 0.0
O668 O 0.52436 0.56957 0.00594 0.0
O669 O 0.45084 0.51441 0.00708 0.0
O670 O 0.45926 0.48105 0.02891 0.0
C671 C 0.52725 0.57495 0.02528 0.0
O672 O 0.50199 0.55469 0.96448 0.0
O673 O 0.45486 0.50385 0.95992 0.0
O674 O 0.4688 0.46026 0.98463 0.0
O675 O 0.50878 0.45927 0.00709 0.0
O676 O 0.5633 0.52728 0.01525 0.0
O677 O 0.53971 0.51689 0.98278 0.0
C678 C 0.44101 0.49437 0.02152 0.0
O679 O 0.5064 0.46134 0.04835 0.0
O680 O 0.54647 0.51528 0.05675 0.0
C681 C 0.48533 0.52579 0.93227 0.0
C682 C 0.5066 0.51692 0.89526 0.0
C683 C 0.48705 0.53372 0.89731 0.0
C684 C 0.4765 0.53816 0.91576 0.0
C685 C 0.50471 0.50882 0.93016 0.0
C686 C 0.51529 0.50445 0.91178 0.0
C687 C 0.47588 0.53184 0.95189 0.0
H688 H 0.50167 0.44306 0.12324 0.0
H689 H 0.52901 0.44829 0.09303 0.0
H690 H 0.49576 0.51929 0.07529 0.0
H691 H 0.46909 0.51529 0.10527 0.0
H692 H 0.48018 0.54351 0.88468 0.0
H693 H 0.46175 0.5515 0.91717 0.0
H694 H 0.51191 0.49924 0.94277 0.0
H695 H 0.53037 0.49145 0.91043 0.0
Tb696 Tb 0.15844 0.3112 0.3181 0.0
Eu697 Eu 0.18081 0.35318 0.3643 0.0
C698 C 0.19089 0.28731 0.35163 0.0
C699 C 0.1074 0.28307 0.35162 0.0
C700 C 0.15299 0.30077 0.2631 0.0
C701 C 0.17452 0.29976 0.2311 0.0
C702 C 0.16602 0.28638 0.24931 0.0
C703 C 0.14904 0.32918 0.2584 0.0
C704 C 0.15726 0.34235 0.24011 0.0
C705 C 0.1699 0.32764 0.22626 0.0
C706 C 0.14362 0.28576 0.28215 0.0
O707 O 0.1618 0.36143 0.31641 0.0
O708 O 0.14849 0.37083 0.3474 0.0
O709 O 0.22288 0.38902 0.34624 0.0
O710 O 0.21462 0.34733 0.32086 0.0
C711 C 0.15068 0.3766 0.32881 0.0
O712 O 0.1674 0.37621 0.38916 0.0
O713 O 0.21596 0.37586 0.39182 0.0
O714 O 0.20284 0.31735 0.36261 0.0
O715 O 0.1684 0.27732 0.33574 0.0
O716 O 0.11042 0.28753 0.33277 0.0
O717 O 0.13338 0.30087 0.36551 0.0
C718 C 0.23323 0.37869 0.33078 0.0
O719 O 0.16886 0.28719 0.2937 0.0
O720 O 0.12377 0.2936 0.29211 0.0
C721 C 0.18571 0.36737 0.42071 0.0
C722 C 0.17057 0.34245 0.45811 0.0
C723 C 0.14713 0.34874 0.44695 0.0
C724 C 0.15464 0.36115 0.42846 0.0
C725 C 0.20913 0.36098 0.43197 0.0
C726 C 0.20157 0.34855 0.45048 0.0
C727 C 0.19376 0.38097 0.40115 0.0
H728 H 0.18422 0.28803 0.22063 0.0
H729 H 0.16941 0.2646 0.25258 0.0
H730 H 0.13935 0.34109 0.26877 0.0
H731 H 0.15349 0.36384 0.23667 0.0
H732 H 0.12319 0.34437 0.45266 0.0
H733 H 0.13613 0.36603 0.4203 0.0
H734 H 0.23339 0.36574 0.42655 0.0
H735 H 0.22006 0.34402 0.45895 0.0
Tb736 Tb 0.68589 0.8405 0.32019 0.0
Eu737 Eu 0.64087 0.81908 0.35918 0.0
C738 C 0.70915 0.89362 0.35845 0.0
C739 C 0.70842 0.81145 0.35602 0.0
C740 C 0.70971 0.85826 0.26926 0.0
C741 C 0.72535 0.86497 0.23566 0.0
C742 C 0.73428 0.86514 0.2557 0.0
C743 C 0.67613 0.85143 0.26265 0.0
C744 C 0.66717 0.85126 0.24261 0.0
C745 C 0.69172 0.85786 0.22901 0.0
C746 C 0.71913 0.85776 0.29018 0.0
O747 O 0.63751 0.79228 0.30954 0.0
O748 O 0.62236 0.76936 0.33908 0.0
O749 O 0.60697 0.82581 0.33627 0.0
O750 O 0.64989 0.8605 0.31719 0.0
C751 C 0.62012 0.76576 0.31971 0.0
O752 O 0.61353 0.78096 0.37967 0.0
O753 O 0.61695 0.83151 0.38321 0.0
O754 O 0.67702 0.87765 0.36315 0.0
O755 O 0.7193 0.87952 0.3447 0.0
O756 O 0.70481 0.8115 0.3367 0.0
O757 O 0.69115 0.82031 0.36784 0.0
C758 C 0.61821 0.84747 0.32269 0.0
O759 O 0.71647 0.87974 0.30266 0.0
O760 O 0.70601 0.82678 0.29623 0.0
C761 C 0.62157 0.80718 0.41199 0.0
C762 C 0.64716 0.8166 0.4519 0.0
C763 C 0.61197 0.8061 0.44672 0.0
C764 C 0.59925 0.80153 0.4268 0.0
C765 C 0.6566 0.81727 0.41723 0.0
C766 C 0.66933 0.82203 0.43705 0.0
C767 C 0.60869 0.80267 0.39108 0.0
H768 H 0.74452 0.87007 0.22531 0.0
H769 H 0.76028 0.87042 0.26059 0.0
H770 H 0.65692 0.8461 0.27299 0.0
H771 H 0.64111 0.84572 0.23767 0.0
H772 H 0.59458 0.80171 0.45807 0.0
H773 H 0.57212 0.79364 0.42295 0.0
H774 H 0.67408 0.82138 0.40598 0.0
H775 H 0.69651 0.83003 0.44083 0.0
Tb776 Tb 0.17917 0.82905 0.36121 0.0
Eu777 Eu 0.15365 0.84742 0.319 0.0
C778 C 0.14773 0.77386 0.32397 0.0
C779 C 0.22927 0.85419 0.32696 0.0
C780 C 0.17889 0.81544 0.4139 0.0
C781 C 0.14849 0.78475 0.4411 0.0
C782 C 0.16451 0.78554 0.4239 0.0
C783 C 0.17895 0.84535 0.42213 0.0
C784 C 0.16307 0.8446 0.43938 0.0
C785 C 0.14469 0.8133 0.44842 0.0
C786 C 0.19233 0.81449 0.39464 0.0
O787 O 0.18172 0.879 0.36786 0.0
O788 O 0.1903 0.89864 0.33724 0.0
O789 O 0.11607 0.84544 0.34054 0.0
O790 O 0.123 0.80862 0.36005 0.0
C791 C 0.19313 0.90449 0.35655 0.0
O792 O 0.16122 0.88368 0.29709 0.0
O793 O 0.11774 0.83056 0.29188 0.0
O794 O 0.13054 0.78898 0.31788 0.0
O795 O 0.17282 0.78871 0.33863 0.0
O796 O 0.22674 0.8537 0.34616 0.0
O797 O 0.20276 0.84642 0.31395 0.0
C798 C 0.10556 0.82375 0.3542 0.0
O799 O 0.16945 0.79117 0.38076 0.0
O800 O 0.21181 0.84452 0.38795 0.0
C801 C 0.147 0.85605 0.26447 0.0
C802 C 0.16683 0.84801 0.22678 0.0
C803 C 0.13977 0.8554 0.22874 0.0
C804 C 0.12981 0.85924 0.24749 0.0
C805 C 0.17438 0.84919 0.26249 0.0
C806 C 0.1841 0.84505 0.24381 0.0
C807 C 0.13651 0.8597 0.28422 0.0
H808 H 0.13979 0.76157 0.44861 0.0
H809 H 0.16548 0.76254 0.41833 0.0
H810 H 0.1911 0.86944 0.41521 0.0
H811 H 0.16619 0.86921 0.44547 0.0
H812 H 0.12623 0.85787 0.21575 0.0
H813 H 0.10871 0.86464 0.24873 0.0
H814 H 0.18825 0.84702 0.2754 0.0
H815 H 0.20509 0.83947 0.24261 0.0
Tb816 Tb 0.82449 0.64337 0.65076 0.0
Eu817 Eu 0.84824 0.68412 0.69757 0.0
C818 C 0.85811 0.62025 0.68406 0.0
C819 C 0.77295 0.61637 0.68426 0.0
C820 C 0.816 0.63094 0.59609 0.0
C821 C 0.81891 0.62358 0.56063 0.0
C822 C 0.81073 0.60935 0.57865 0.0
C823 C 0.82964 0.66709 0.59525 0.0
C824 C 0.83773 0.68133 0.5772 0.0
C825 C 0.83253 0.65969 0.55975 0.0
C826 C 0.80853 0.61586 0.61514 0.0
O827 O 0.81237 0.68538 0.65062 0.0
O828 O 0.83727 0.71961 0.68073 0.0
O829 O 0.89678 0.70952 0.68127 0.0
O830 O 0.87283 0.69113 0.64857 0.0
C831 C 0.82192 0.71391 0.66275 0.0
O832 O 0.84111 0.71192 0.72296 0.0
O833 O 0.88054 0.69705 0.72577 0.0
O834 O 0.84537 0.63217 0.69733 0.0
O835 O 0.8582 0.62727 0.66564 0.0
O836 O 0.78407 0.60811 0.66837 0.0
O837 O 0.79044 0.64733 0.69457 0.0
C838 C 0.89928 0.71053 0.66205 0.0
O839 O 0.8356 0.62041 0.6263 0.0
O840 O 0.78789 0.62198 0.62541 0.0
C841 C 0.84983 0.69416 0.75351 0.0
C842 C 0.81841 0.66637 0.78834 0.0
C843 C 0.84277 0.70263 0.78815 0.0
C844 C 0.85742 0.71633 0.77092 0.0
C845 C 0.82908 0.65787 0.75389 0.0
C846 C 0.81455 0.64414 0.77118 0.0
C847 C 0.86318 0.70909 0.73506 0.0
H848 H 0.81467 0.60645 0.54735 0.0
H849 H 0.80048 0.58148 0.579 0.0
H850 H 0.83418 0.6843 0.60856 0.0
H851 H 0.84815 0.70922 0.57684 0.0
H852 H 0.85124 0.72103 0.80133 0.0
H853 H 0.8747 0.74439 0.77123 0.0
H854 H 0.82418 0.64006 0.74079 0.0
H855 H 0.80112 0.61603 0.77069 0.0
Tb856 Tb 0.35209 0.1714 0.65398 0.0
Eu857 Eu 0.30524 0.15019 0.69297 0.0
C858 C 0.38047 0.22323 0.69374 0.0
C859 C 0.3721 0.14019 0.69122 0.0
C860 C 0.37429 0.18325 0.60215 0.0
C861 C 0.39046 0.18908 0.56862 0.0
C862 C 0.39909 0.18977 0.58877 0.0
C863 C 0.3407 0.17595 0.5952 0.0
C864 C 0.33204 0.17529 0.57505 0.0
C865 C 0.35691 0.18185 0.56167 0.0
C866 C 0.38388 0.18459 0.62329 0.0
O867 O 0.30259 0.12385 0.64389 0.0
O868 O 0.28711 0.10034 0.67319 0.0
O869 O 0.27483 0.16041 0.66958 0.0
O870 O 0.31931 0.19505 0.65144 0.0
C871 C 0.2853 0.09702 0.65385 0.0
O872 O 0.27366 0.1127 0.71279 0.0
O873 O 0.28061 0.16484 0.71562 0.0
O874 O 0.35095 0.20519 0.70155 0.0
O875 O 0.38661 0.21339 0.67657 0.0
O876 O 0.37532 0.14839 0.67284 0.0
O877 O 0.34877 0.14097 0.70182 0.0
C878 C 0.28761 0.18306 0.65665 0.0
O879 O 0.38178 0.20794 0.63491 0.0
O880 O 0.37063 0.15449 0.63044 0.0
C881 C 0.27969 0.13923 0.74477 0.0
C882 C 0.29998 0.14622 0.78535 0.0
C883 C 0.26507 0.13471 0.77864 0.0
C884 C 0.25495 0.1312 0.75838 0.0
C885 C 0.31456 0.15072 0.75153 0.0
C886 C 0.32462 0.15412 0.7717 0.0
C887 C 0.26941 0.13553 0.72353 0.0
H888 H 0.4099 0.19419 0.55845 0.0
H889 H 0.42513 0.19547 0.59392 0.0
H890 H 0.32136 0.17094 0.60539 0.0
H891 H 0.30605 0.1697 0.56988 0.0
H892 H 0.24585 0.12861 0.78907 0.0
H893 H 0.22795 0.12229 0.75334 0.0
H894 H 0.33397 0.15705 0.74119 0.0
H895 H 0.35167 0.16311 0.77671 0.0
Tb896 Tb 0.84666 0.16226 0.69594 0.0
Eu897 Eu 0.82269 0.18159 0.65345 0.0
C898 C 0.8168 0.10818 0.65814 0.0
C899 C 0.89842 0.18947 0.66272 0.0
C900 C 0.8439 0.14447 0.74796 0.0
C901 C 0.8294 0.11979 0.7791 0.0
C902 C 0.84607 0.12372 0.76186 0.0
C903 C 0.82629 0.16264 0.75196 0.0
C904 C 0.80982 0.15893 0.76927 0.0
C905 C 0.80852 0.13516 0.78262 0.0
C906 C 0.85903 0.14618 0.7291 0.0
O907 O 0.84737 0.21124 0.7029 0.0
O908 O 0.85724 0.23231 0.67264 0.0
O909 O 0.78309 0.17739 0.67403 0.0
O910 O 0.79048 0.14145 0.69423 0.0
C911 C 0.85875 0.23726 0.69193 0.0
O912 O 0.83185 0.21841 0.63167 0.0
O913 O 0.78783 0.16563 0.62596 0.0
O914 O 0.79959 0.12319 0.65195 0.0
O915 O 0.84151 0.12292 0.673 0.0
O916 O 0.89506 0.18891 0.68183 0.0
O917 O 0.87222 0.18093 0.6493 0.0
C918 C 0.77268 0.15584 0.68775 0.0
O919 O 0.83758 0.12335 0.7146 0.0
O920 O 0.8773 0.17731 0.72339 0.0
C921 C 0.81829 0.19129 0.59892 0.0
C922 C 0.83855 0.18289 0.56143 0.0
C923 C 0.81092 0.18949 0.56311 0.0
C924 C 0.80076 0.19352 0.58176 0.0
C925 C 0.84623 0.18523 0.59721 0.0
C926 C 0.85619 0.18093 0.57862 0.0
C927 C 0.80733 0.19485 0.61855 0.0
H928 H 0.83366 0.1049 0.7897 0.0
H929 H 0.86064 0.11043 0.75939 0.0
H930 H 0.82532 0.17988 0.7417 0.0
H931 H 0.79911 0.17569 0.77191 0.0
H932 H 0.79706 0.19115 0.54999 0.0
H933 H 0.77919 0.19825 0.58279 0.0
H934 H 0.86031 0.18371 0.61026 0.0
H935 H 0.87759 0.17592 0.57762 0.0
C936 C 0.35861 0.92205 0.04638 0.0
C937 C 0.34887 0.88629 0.0464 0.0
C938 C 0.39128 0.89372 0.02284 0.0
C939 C 0.40439 0.93038 0.02514 0.0
N940 N 0.40213 0.98032 0.03963 0.0
N941 N 0.35762 0.83822 0.0361 0.0
C942 C 0.38829 0.94477 0.03694 0.0
C943 C 0.36532 0.87199 0.03479 0.0
N944 N 0.33912 0.93407 0.05516 0.0
N945 N 0.40396 0.87979 0.00939 0.0
H946 H 0.3388 0.82138 0.04465 0.0
H947 H 0.37162 0.82756 0.02992 0.0
H948 H 0.42342 0.89509 1.00069 0.0
H949 H 0.39317 0.85295 0.00557 0.0
H950 H 0.34269 0.95896 0.05406 0.0
H951 H 0.31724 0.91801 0.06219 0.0
H952 H 0.39447 0.99288 0.04997 0.0
H953 H 0.42277 0.99761 0.03221 0.0
C954 C 0.07556 0.42601 0.05018 0.0
C955 C 0.11156 0.44496 0.04742 0.0
C956 C 0.10195 0.48585 0.02913 0.0
C957 C 0.06542 0.46492 0.03026 0.0
N958 N 0.0167 0.41168 0.03887 0.0
N959 N 0.15857 0.48987 0.032 0.0
C960 C 0.052 0.4341 0.04003 0.0
C961 C 0.12465 0.47406 0.03626 0.0
N962 N 0.06399 0.40077 0.06287 0.0
N963 N 0.11519 0.51774 0.02205 0.0
H964 H 0.17613 0.4824 0.03726 0.0
H965 H 0.16858 0.50852 0.02204 0.0
H966 H 0.09956 0.5274 0.01677 0.0
H967 H 0.14182 0.53594 0.02295 0.0
H968 H 0.03885 0.38876 0.06721 0.0
H969 H 0.08041 0.39393 0.07044 0.0
H970 H 0.00543 0.387 0.04386 0.0
H971 H 0.99857 0.41625 0.03125 0.0
C972 C 0.54424 0.6672 0.03812 0.0
C973 C 0.57686 0.6826 0.04991 0.0
C974 C 0.57673 0.6272 0.04581 0.0
C975 C 0.54338 0.61135 0.03472 0.0
N976 N 0.49223 0.61366 0.02346 0.0
N977 N 0.62145 0.6766 0.06806 0.0
C978 C 0.52619 0.63062 0.03177 0.0
C979 C 0.59224 0.66233 0.05475 0.0
N980 N 0.53098 0.68774 0.03261 0.0
N981 N 0.59438 0.60931 0.04698 0.0
H982 H 0.63407 0.70258 0.07451 0.0
H983 H 0.63164 0.66206 0.07391 0.0
H984 H 0.58393 0.58346 0.04076 0.0
H985 H 0.62041 0.62082 0.05279 0.0
H986 H 0.50943 0.67896 0.02218 0.0
H987 H 0.54293 0.71443 0.03752 0.0
H988 H 0.477 0.62542 0.02272 0.0
H989 H 0.47818 0.58679 0.01881 0.0
C990 C 0.87119 0.34083 0.97145 0.0
C991 C 0.88533 0.32418 0.95978 0.0
C992 C 0.94297 0.37767 0.96498 0.0
C993 C 0.92852 0.39475 0.97603 0.0
N994 N 0.87785 0.39553 0.98622 0.0
N995 N 0.93227 0.32815 0.94199 0.0
C996 C 0.89226 0.37718 0.9782 0.0
C997 C 0.92051 0.34312 0.95543 0.0
N998 N 0.83801 0.32162 0.97664 0.0
N999 N 0.97836 0.39366 0.9645 0.0
H1000 H 0.9166 0.30272 0.9349 0.0
H1001 H 0.95648 0.34186 0.9366 0.0
H1002 H 0.99577 0.41889 0.97135 0.0
H1003 H 0.99079 0.38099 0.95865 0.0
H1004 H 0.82766 0.33123 0.98701 0.0
H1005 H 0.82149 0.29511 0.97161 0.0
H1006 H 0.85106 0.38514 0.9864 0.0
H1007 H 0.89249 0.42229 0.99108 0.0
C1008 C 0.64274 0.57266 0.9656 0.0
C1009 C 0.66373 0.55826 0.97122 0.0
C1010 C 0.62108 0.52284 0.99355 0.0
C1011 C 0.60128 0.53909 0.98888 0.0
N1012 N 0.59779 0.58541 0.97408 0.0
N1013 N 0.67609 0.52368 0.99252 0.0
C1014 C 0.61337 0.56563 0.97587 0.0
C1015 C 0.65385 0.53456 0.98582 0.0
N1016 N 0.65055 0.59267 0.95018 0.0
N1017 N 0.60794 0.49517 0.00458 0.0
H1018 H 0.69965 0.53075 0.98671 0.0
H1019 H 0.67243 0.50973 0.00472 0.0
H1020 H 0.58429 0.48588 0.01064 0.0
H1021 H 0.61906 0.47957 0.00648 0.0
H1022 H 0.63391 0.6004 0.94385 0.0
H1023 H 0.67233 0.59916 0.94257 0.0
H1024 H 0.60756 0.60742 0.96641 0.0
H1025 H 0.57721 0.5822 0.98201 0.0
C1026 C 0.50054 0.12411 0.96855 0.0
C1027 C 0.46722 0.12111 0.96841 0.0
C1028 C 0.44727 0.07117 0.98786 0.0
C1029 C 0.48128 0.07566 0.98893 0.0
N1030 N 0.54235 0.11188 0.98494 0.0
N1031 N 0.41091 0.09652 0.98082 0.0
C1032 C 0.50857 0.10387 0.9807 0.0
C1033 C 0.44117 0.09609 0.979 0.0
N1034 N 0.52403 0.14514 0.95643 0.0
N1035 N 0.4205 0.04229 0.9944 0.0
H1036 H 0.40559 0.11427 0.97436 0.0
H1037 H 0.39245 0.08129 0.99001 0.0
H1038 H 0.42406 0.02362 1.00105 0.0
H1039 H 0.39441 0.0355 0.99199 0.0
H1040 H 0.54708 0.14517 0.95432 0.0
H1041 H 0.51913 0.16018 0.94704 0.0
H1042 H 0.56375 0.13414 0.98084 0.0
H1043 H 0.54919 0.0983 0.99442 0.0
C1044 C 0.63137 0.08593 0.95867 0.0
C1045 C 0.66361 0.09998 0.97064 0.0
C1046 C 0.63222 0.07622 0.99946 0.0
C1047 C 0.59997 0.06436 0.98779 0.0
N1048 N 0.56961 0.06528 0.95742 0.0
N1049 N 0.69524 0.1145 1.00306 0.0
C1050 C 0.59979 0.07139 0.96772 0.0
C1051 C 0.66418 0.09701 0.99126 0.0
N1052 N 0.63074 0.08523 0.93854 0.0
N1053 N 0.63243 0.06603 0.01795 0.0
H1054 H 0.71912 0.12973 0.99752 0.0
H1055 H 0.69704 0.11639 0.01846 0.0
H1056 H 0.60971 0.05031 0.02438 0.0
H1057 H 0.65504 0.0706 0.02624 0.0
H1058 H 0.6078 0.07152 0.92892 0.0
H1059 H 0.65328 0.09577 0.93128 0.0
H1060 H 0.56863 0.07337 0.94351 0.0
H1061 H 0.54609 0.05542 0.96359 0.0
C1062 C 0.89945 0.53408 0.95197 0.0
C1063 C 0.88489 0.54919 0.9645 0.0
C1064 C 0.91526 0.54257 0.99371 0.0
C1065 C 0.92778 0.52514 0.98128 0.0
N1066 N 0.92663 0.49844 0.94896 0.0
N1067 N 0.8736 0.56228 0.99725 0.0
C1068 C 0.91847 0.51928 0.96049 0.0
C1069 C 0.89117 0.55171 0.98538 0.0
N1070 N 0.8959 0.53473 0.93195 0.0
N1071 N 0.92774 0.55204 0.01331 0.0
H1072 H 0.85603 0.56953 0.99169 0.0
H1073 H 0.87412 0.561 0.01247 0.0
H1074 H 0.94591 0.54648 0.01995 0.0
H1075 H 0.92259 0.56818 0.02263 0.0
H1076 H 0.90928 0.52787 0.92221 0.0
H1077 H 0.88152 0.54464 0.92515 0.0
H1078 H 0.91763 0.49029 0.93402 0.0
H1079 H 0.93985 0.48657 0.95474 0.0
C1080 C 0.49603 0.37148 0.96796 0.0
C1081 C 0.46091 0.34558 0.96151 0.0
C1082 C 0.44108 0.38219 0.97825 0.0
C1083 C 0.47632 0.4101 0.98195 0.0
N1084 N 0.53666 0.43329 0.97582 0.0
N1085 N 0.39973 0.32772 0.95826 0.0
C1086 C 0.5037 0.40529 0.97568 0.0
C1087 C 0.43324 0.35123 0.96607 0.0
N1088 N 0.52208 0.36368 0.96698 0.0
N1089 N 0.41533 0.38471 0.98692 0.0
H1090 H 0.39304 0.30478 0.94926 0.0
H1091 H 0.37909 0.33239 0.95939 0.0
H1092 H 0.42028 0.40646 0.99651 0.0
H1093 H 0.38974 0.36388 0.98621 0.0
H1094 H 0.54765 0.38077 0.97327 0.0
H1095 H 0.51744 0.33884 0.96179 0.0
H1096 H 0.55667 0.43147 0.96961 0.0
H1097 H 0.54294 0.45896 0.97994 0.0
C1098 C 0.11 0.62631 0.0662 0.0
C1099 C 0.12586 0.65616 0.05572 0.0
C1100 C 0.08421 0.62266 0.02647 0.0
C1101 C 0.07115 0.59183 0.03621 0.0
N1102 N 0.07544 0.56306 0.0642 0.0
N1103 N 0.13087 0.68261 0.0254 0.0
C1104 C 0.08487 0.59333 0.05583 0.0
C1105 C 0.11365 0.65437 0.03572 0.0
N1106 N 0.11869 0.62961 0.08613 0.0
N1107 N 0.06782 0.6218 0.00863 0.0
H1108 H 0.15201 0.7065 0.03184 0.0
H1109 H 0.12583 0.6817 0.01019 0.0
H1110 H 0.04609 0.59907 1.00149 0.0
H1111 H 0.07379 0.6441 1.00171 0.0
H1112 H 0.1053 0.60967 0.09497 0.0
H1113 H 0.13729 0.65333 0.0942 0.0
H1114 H 0.08742 0.56217 0.07757 0.0
H1115 H 0.05776 0.53834 0.05693 0.0
C1116 C 0.34352 0.44887 0.0275 0.0
C1117 C 0.34467 0.4606 0.04762 0.0
C1118 C 0.40808 0.50015 0.04884 0.0
C1119 C 0.40747 0.48512 0.02962 0.0
N1120 N 0.37533 0.44328 1.00102 0.0
N1121 N 0.37808 0.49513 0.07818 0.0
C1122 C 0.37533 0.45914 0.01897 0.0
C1123 C 0.37697 0.48581 0.05848 0.0
N1124 N 0.31194 0.42851 0.01643 0.0
N1125 N 0.43829 0.52872 0.05766 0.0
H1126 H 0.35585 0.48539 0.08571 0.0
H1127 H 0.40119 0.51062 0.08742 0.0
H1128 H 0.46123 0.54018 0.0508 0.0
H1129 H 0.43991 0.54308 0.07083 0.0
H1130 H 0.30922 0.42207 1.00119 0.0
H1131 H 0.28816 0.42043 0.02219 0.0
H1132 H 0.35338 0.4212 0.99361 0.0
H1133 H 0.39793 0.45083 0.99404 0.0
C1134 C 0.53888 0.89846 0.04992 0.0
C1135 C 0.56118 0.89161 0.03873 0.0
C1136 C 0.5497 0.91796 0.01087 0.0
C1137 C 0.52739 0.92471 0.02209 0.0
N1138 N 0.49301 0.91301 0.04958 0.0
N1139 N 0.58131 0.88669 0.00721 0.0
C1140 C 0.51946 0.91215 0.04077 0.0
C1141 C 0.56442 0.89869 0.01871 0.0
N1142 N 0.53755 0.89352 0.06952 0.0
N1143 N 0.55829 0.93155 0.99326 0.0
H1144 H 0.59244 0.87256 0.01256 0.0
H1145 H 0.58165 0.88802 0.99202 0.0
H1146 H 0.54729 0.94499 0.98681 0.0
H1147 H 0.57778 0.93131 0.98559 0.0
H1148 H 0.52495 0.90191 0.07898 0.0
H1149 H 0.55126 0.88334 0.07677 0.0
H1150 H 0.48386 0.90159 0.06244 0.0
H1151 H 0.47774 0.92198 0.04283 0.0
C1152 C 0.03572 0.2007 0.36966 0.0
C1153 C 0.01815 0.21525 0.3799 0.0
C1154 C 0.05238 0.27068 0.36579 0.0
C1155 C 0.07331 0.25782 0.35808 0.0
N1156 N 0.08601 0.21127 0.35259 0.0
N1157 N 0.00956 0.26394 0.38834 0.0
C1158 C 0.06499 0.22282 0.35975 0.0
C1159 C 0.02609 0.2501 0.37793 0.0
N1160 N 0.02416 0.16565 0.36933 0.0
N1161 N 0.05773 0.30256 0.3614 0.0
H1162 H 0.98955 0.24928 0.39691 0.0
H1163 H 0.01683 0.29032 0.38941 0.0
H1164 H 0.07677 0.31802 0.3525 0.0
H1165 H 0.04158 0.31236 0.36505 0.0
H1166 H 0.03356 0.15262 0.3606 0.0
H1167 H 0.00302 0.14881 0.37661 0.0
H1168 H 0.08434 0.18775 0.35555 0.0
H1169 H 0.10646 0.22617 0.34434 0.0
C1170 C 0.75129 0.75733 0.36715 0.0
C1171 C 0.7778 0.78002 0.38247 0.0
C1172 C 0.76132 0.82478 0.37879 0.0
C1173 C 0.73268 0.80082 0.36484 0.0
N1174 N 0.69673 0.74214 0.34821 0.0
N1175 N 0.80505 0.83317 0.40502 0.0
C1176 C 0.72671 0.76651 0.35962 0.0
C1177 C 0.78194 0.81315 0.38892 0.0
N1178 N 0.75006 0.72733 0.35948 0.0
N1179 N 0.76982 0.8591 0.38172 0.0
H1180 H 0.82099 0.82576 0.4126 0.0
H1181 H 0.80645 0.85568 0.41183 0.0
H1182 H 0.75604 0.86881 0.37412 0.0
H1183 H 0.79238 0.87864 0.39019 0.0
H1184 H 0.7339 0.71175 0.34684 0.0
H1185 H 0.76728 0.71946 0.36478 0.0
H1186 H 0.68909 0.71569 0.34566 0.0
H1187 H 0.67774 0.74756 0.34272 0.0
C1188 C 0.25768 0.99101 0.3871 0.0
C1189 C 0.24446 0.01249 0.38099 0.0
C1190 C 0.19464 0.96175 0.36142 0.0
C1191 C 0.20987 0.94113 0.3658 0.0
N1192 N 0.25797 0.93669 0.38073 0.0
N1193 N 0.2025 0.01999 0.36105 0.0
C1194 C 0.24183 0.95579 0.37823 0.0
C1195 C 0.21347 0.99832 0.3678 0.0
N1196 N 0.28519 0.00421 0.40155 0.0
N1197 N 0.16163 0.94608 0.3518 0.0
H1198 H 0.21493 0.04673 0.36593 0.0
H1199 H 0.18254 0.01205 0.34965 0.0
H1200 H 0.14688 0.91924 0.34717 0.0
H1201 H 0.1476 0.95894 0.34996 0.0
H1202 H 0.29349 0.98883 0.40827 0.0
H1203 H 0.29815 0.03023 0.40797 0.0
H1204 H 0.28323 0.94725 0.38765 0.0
H1205 H 0.24736 0.91082 0.37449 0.0
C1206 C 0.53923 0.67687 0.30404 0.0
C1207 C 0.55339 0.6599 0.29266 0.0
C1208 C 0.61138 0.71288 0.29839 0.0
C1209 C 0.59691 0.73032 0.30908 0.0
N1210 N 0.54616 0.73189 0.31841 0.0
N1211 N 0.60073 0.66321 0.27555 0.0
C1212 C 0.56051 0.71317 0.31081 0.0
C1213 C 0.58882 0.67843 0.28873 0.0
N1214 N 0.50584 0.658 0.309 0.0
N1215 N 0.64681 0.72846 0.2983 0.0
H1216 H 0.58495 0.63788 0.26835 0.0
H1217 H 0.62523 0.67664 0.27046 0.0
H1218 H 0.66428 0.75367 0.30515 0.0
H1219 H 0.65916 0.71545 0.29278 0.0
H1220 H 0.49544 0.66789 0.31917 0.0
H1221 H 0.48921 0.63148 0.30404 0.0
H1222 H 0.51935 0.72181 0.3182 0.0
H1223 H 0.56094 0.75864 0.32324 0.0
C1224 C 0.30137 0.84915 0.30154 0.0
C1225 C 0.32602 0.88537 0.30152 0.0
C1226 C 0.28951 0.90064 0.32089 0.0
C1227 C 0.26348 0.86458 0.3194 0.0
N1228 N 0.24256 0.80452 0.3066 0.0
N1229 N 0.34163 0.94585 0.3086 0.0
C1230 C 0.26883 0.83883 0.3092 0.0
C1231 C 0.31966 0.91121 0.31061 0.0
N1232 N 0.30961 0.82464 0.29483 0.0
N1233 N 0.28536 0.92486 0.33212 0.0
H1234 H 0.36382 0.95464 0.30109 0.0
H1235 H 0.33649 0.96569 0.31292 0.0
H1236 H 0.26292 0.91842 0.33903 0.0
H1237 H 0.30504 0.9509 0.33577 0.0
H1238 H 0.29454 0.79804 0.29638 0.0
H1239 H 0.33311 0.83121 0.28907 0.0
H1240 H 0.24293 0.78517 0.2972 0.0
H1241 H 0.21927 0.79564 0.313 0.0
C1242 C 0.16357 0.46285 0.31472 0.0
C1243 C 0.13402 0.45087 0.30062 0.0
C1244 C 0.11255 0.39021 0.30734 0.0
C1245 C 0.1421 0.40221 0.32142 0.0
N1246 N 0.19149 0.44988 0.34185 0.0
N1247 N 0.07687 0.40512 0.28637 0.0
C1248 C 0.16608 0.43858 0.32631 0.0
C1249 C 0.10732 0.41508 0.29786 0.0
N1250 N 0.19019 0.49698 0.3162 0.0
N1251 N 0.09 0.35497 0.30273 0.0
H1252 H 0.07241 0.42285 0.27922 0.0
H1253 H 0.05501 0.38005 0.28517 0.0
H1254 H 0.09177 0.33614 0.31034 0.0
H1255 H 0.0705 0.34423 0.29088 0.0
H1256 H 0.21432 0.50628 0.32432 0.0
H1257 H 0.18926 0.51575 0.30814 0.0
H1258 H 0.20741 0.47614 0.34745 0.0
H1259 H 0.19493 0.43286 0.35029 0.0
C1260 C 0.29965 0.44126 0.29939 0.0
C1261 C 0.3292 0.43839 0.30535 0.0
C1262 C 0.29664 0.39876 0.32956 0.0
C1263 C 0.26757 0.4026 0.32406 0.0
N1264 N 0.24334 0.43267 0.30689 0.0
N1265 N 0.35867 0.42083 0.3288 0.0
C1266 C 0.26978 0.42565 0.31001 0.0
C1267 C 0.32855 0.41907 0.32128 0.0
N1268 N 0.29948 0.45739 0.283 0.0
N1269 N 0.29342 0.37493 0.34226 0.0
H1270 H 0.38255 0.43557 0.32316 0.0
H1271 H 0.36075 0.41026 0.34165 0.0
H1272 H 0.27101 0.36084 0.34934 0.0
H1273 H 0.31208 0.36761 0.34492 0.0
H1274 H 0.27734 0.45682 0.27655 0.0
H1275 H 0.32083 0.46914 0.27484 0.0
H1276 H 0.24475 0.45183 0.2983 0.0
H1277 H 0.22113 0.4215 0.31438 0.0
C1278 C 0.56316 0.86408 0.28467 0.0
C1279 C 0.55149 0.88246 0.29697 0.0
C1280 C 0.58521 0.87964 0.32593 0.0
C1281 C 0.5948 0.85902 0.31387 0.0
N1282 N 0.58767 0.82594 0.28262 0.0
N1283 N 0.54615 0.90256 0.32968 0.0
C1284 C 0.58235 0.84968 0.29345 0.0
C1285 C 0.56097 0.88869 0.31773 0.0
N1286 N 0.55673 0.86122 0.26455 0.0
N1287 N 0.60041 0.89186 0.34498 0.0
H1288 H 0.52851 0.90978 0.32421 0.0
H1289 H 0.54899 0.90414 0.34506 0.0
H1290 H 0.61843 0.88602 0.35152 0.0
H1291 H 0.59752 0.91022 0.3538 0.0
H1292 H 0.56794 0.85169 0.25472 0.0
H1293 H 0.54229 0.87093 0.25761 0.0
H1294 H 0.57626 0.81531 0.26819 0.0
H1295 H 0.60105 0.8144 0.28865 0.0
C1296 C 0.13755 0.70588 0.28272 0.0
C1297 C 0.1339 0.67868 0.29393 0.0
C1298 C 0.13177 0.71104 0.32393 0.0
C1299 C 0.14031 0.74024 0.31326 0.0
N1300 N 0.15576 0.7672 0.28287 0.0
N1301 N 0.12986 0.65549 0.32528 0.0
C1302 C 0.14398 0.73805 0.29269 0.0
C1303 C 0.13148 0.68119 0.31457 0.0
N1304 N 0.13469 0.70086 0.2625 0.0
N1305 N 0.12282 0.71144 0.34278 0.0
H1306 H 0.12841 0.63271 0.31878 0.0
H1307 H 0.13218 0.65773 0.34068 0.0
H1308 H 0.12191 0.73257 0.34988 0.0
H1309 H 0.11312 0.68972 0.35068 0.0
H1310 H 0.13316 0.71816 0.25344 0.0
H1311 H 0.13071 0.67785 0.25468 0.0
H1312 H 0.16313 0.7682 0.26859 0.0
H1313 H 0.16115 0.79148 0.28948 0.0
C1314 C 0.77641 0.96057 0.39912 0.0
C1315 C 0.79135 0.99119 0.38921 0.0
C1316 C 0.75098 0.95828 0.3594 0.0
C1317 C 0.73542 0.92784 0.3695 0.0
N1318 N 0.72877 0.90125 0.39998 0.0
N1319 N 0.78981 0.02144 0.36146 0.0
C1320 C 0.74657 0.92946 0.38973 0.0
C1321 C 0.77771 0.9907 0.36976 0.0
N1322 N 0.79182 0.96076 0.41716 0.0
N1323 N 0.74033 0.95607 0.33984 0.0
H1324 H 0.80954 0.04552 0.36862 0.0
H1325 H 0.77873 0.02372 0.34816 0.0
H1326 H 0.71905 0.93357 0.33218 0.0
H1327 H 0.75335 0.9759 0.3309 0.0
H1328 H 0.78501 0.93825 0.42405 0.0
H1329 H 0.81339 0.98312 0.42471 0.0
H1330 H 0.73291 0.90219 0.41527 0.0
H1331 H 0.70803 0.8773 0.39348 0.0
C1332 C 0.00994 0.79349 0.36125 0.0
C1333 C 0.01061 0.79193 0.38203 0.0
C1334 C 0.07439 0.8189 0.38453 0.0
C1335 C 0.07306 0.81541 0.36353 0.0
N1336 N 0.03822 0.79432 0.33177 0.0
N1337 N 0.04318 0.79868 0.41325 0.0
C1338 C 0.04051 0.80164 0.35181 0.0
C1339 C 0.04279 0.80359 0.39365 0.0
N1340 N 0.98019 0.78772 0.35055 0.0
N1341 N 0.10589 0.83788 0.39582 0.0
H1342 H 0.02067 0.78749 0.42052 0.0
H1343 H 0.0654 0.8029 0.42185 0.0
H1344 H 0.12957 0.85039 0.38974 0.0
H1345 H 0.10824 0.84439 0.41104 0.0
H1346 H 0.97915 0.79195 0.33573 0.0
H1347 H 0.95746 0.78204 0.357 0.0
H1348 H 0.01453 0.78069 0.3228 0.0
H1349 H 0.05963 0.79888 0.32427 0.0
C1350 C 0.24218 0.23972 0.35387 0.0
C1351 C 0.23755 0.23006 0.37338 0.0
C1352 C 0.19542 0.25002 0.37612 0.0
C1353 C 0.20376 0.26407 0.3578 0.0
N1354 N 0.23751 0.2756 0.3299 0.0
N1355 N 0.21268 0.22898 0.40407 0.0
C1356 C 0.22754 0.25952 0.34671 0.0
C1357 C 0.21474 0.23577 0.38475 0.0
N1358 N 0.26012 0.22949 0.3421 0.0
N1359 N 0.1685 0.24969 0.38504 0.0
H1360 H 0.22627 0.21832 0.41093 0.0
H1361 H 0.19966 0.2364 0.41377 0.0
H1362 H 0.15353 0.25949 0.37891 0.0
H1363 H 0.15882 0.23672 0.39739 0.0
H1364 H 0.26132 0.23258 0.3271 0.0
H1365 H 0.27133 0.2151 0.34693 0.0
H1366 H 0.25792 0.27685 0.32253 0.0
H1367 H 0.22705 0.28993 0.32401 0.0
C1368 C 0.70841 0.53452 0.70689 0.0
C1369 C 0.68732 0.54675 0.71513 0.0
C1370 C 0.71559 0.59876 0.6974 0.0
C1371 C 0.74077 0.58965 0.69217 0.0
N1372 N 0.76358 0.5503 0.69446 0.0
N1373 N 0.67263 0.59216 0.71969 0.0
C1374 C 0.73762 0.55766 0.69732 0.0
C1375 C 0.69113 0.57919 0.71063 0.0
N1376 N 0.70033 0.50064 0.70809 0.0
N1377 N 0.71477 0.62586 0.68943 0.0
H1378 H 0.65448 0.57862 0.72947 0.0
H1379 H 0.67727 0.61748 0.71871 0.0
H1380 H 0.73181 0.64008 0.67932 0.0
H1381 H 0.6951 0.6318 0.6912 0.0
H1382 H 0.71264 0.48923 0.70063 0.0
H1383 H 0.67896 0.48288 0.71489 0.0
H1384 H 0.76447 0.52949 0.70017 0.0
H1385 H 0.7859 0.56654 0.68794 0.0
C1386 C 0.42847 0.098 0.69706 0.0
C1387 C 0.44105 0.10757 0.71744 0.0
C1388 C 0.41159 0.1418 0.72031 0.0
C1389 C 0.39571 0.12887 0.70043 0.0
N1390 N 0.38181 0.08617 0.6722 0.0
N1391 N 0.43862 0.13259 0.74946 0.0
C1392 C 0.4022 0.10467 0.68939 0.0
C1393 C 0.4309 0.12776 0.72937 0.0
N1394 N 0.44204 0.08315 0.68486 0.0
N1395 N 0.40958 0.16839 0.73042 0.0
H1396 H 0.45242 0.12248 0.75669 0.0
H1397 H 0.42846 0.14368 0.75907 0.0
H1398 H 0.39665 0.18039 0.7245 0.0
H1399 H 0.42393 0.18117 0.74403 0.0
H1400 H 0.43617 0.07889 0.66952 0.0
H1401 H 0.4618 0.07839 0.6898 0.0
H1402 H 0.38353 0.06596 0.66457 0.0
H1403 H 0.36026 0.08782 0.66692 0.0
C1404 C 0.87723 0.33045 0.70348 0.0
C1405 C 0.90662 0.34422 0.71787 0.0
C1406 C 0.90486 0.28796 0.71516 0.0
C1407 C 0.87423 0.27352 0.70159 0.0
N1408 N 0.82733 0.27867 0.68562 0.0
N1409 N 0.9446 0.33508 0.74028 0.0
C1410 C 0.85925 0.29411 0.69654 0.0
C1411 C 0.9192 0.3226 0.72464 0.0
N1412 N 0.86716 0.35234 0.69603 0.0
N1413 N 0.92143 0.26939 0.71815 0.0
H1414 H 0.95612 0.36058 0.74737 0.0
H1415 H 0.95213 0.31937 0.7473 0.0
H1416 H 0.91224 0.24415 0.71127 0.0
H1417 H 0.94597 0.28009 0.72606 0.0
H1418 H 0.8486 0.34475 0.68387 0.0
H1419 H 0.87915 0.37896 0.70112 0.0
H1420 H 0.81331 0.29141 0.68326 0.0
H1421 H 0.81331 0.25208 0.68032 0.0
C1422 C 0.25368 0.01143 0.62085 0.0
C1423 C 0.21905 0.99164 0.6259 0.0
C1424 C 0.22605 0.04346 0.64574 0.0
C1425 C 0.26207 0.06176 0.64295 0.0
N1426 N 0.3114 0.06214 0.62954 0.0
N1427 N 0.17268 0.98721 0.64446 0.0
C1428 C 0.2762 0.04565 0.63077 0.0
C1429 C 0.20524 0.00725 0.63863 0.0
N1430 N 0.26486 0.99761 0.6064 0.0
N1431 N 0.21152 0.06101 0.65461 0.0
H1432 H 0.15634 0.96076 0.63924 0.0
H1433 H 0.16282 0.99607 0.65553 0.0
H1434 H 0.22584 0.08775 0.65958 0.0
H1435 H 0.18476 0.05002 0.65532 0.0
H1436 H 0.2885 0.01207 0.60054 0.0
H1437 H 0.24912 0.97244 0.59898 0.0
H1438 H 0.3237 0.05 0.62285 0.0
H1439 H 0.32891 0.08714 0.63658 0.0
C1440 C 0.97182 0.1865 0.63773 0.0
C1441 C 0.99638 0.22287 0.63846 0.0
C1442 C 0.95902 0.23674 0.6579 0.0
C1443 C 0.93313 0.20057 0.6557 0.0
N1444 N 0.91309 0.14101 0.64226 0.0
N1445 N 0.01199 0.28306 0.64691 0.0
C1446 C 0.93904 0.17544 0.64523 0.0
C1447 C 0.9897 0.24813 0.64803 0.0
N1448 N 0.98036 0.16252 0.63042 0.0
N1449 N 0.95421 0.26023 0.66939 0.0
H1450 H 0.03473 0.29244 0.63986 0.0
H1451 H 0.00678 0.3027 0.65158 0.0
H1452 H 0.93139 0.25324 0.67601 0.0
H1453 H 0.97366 0.28622 0.67353 0.0
H1454 H 0.96537 0.13571 0.63139 0.0
H1455 H 0.00395 0.16968 0.62463 0.0
H1456 H 0.91374 0.12213 0.6326 0.0
H1457 H 0.88984 0.13152 0.64876 0.0
C1458 C 0.83431 0.80127 0.6485 0.0
C1459 C 0.80493 0.78842 0.63428 0.0
C1460 C 0.78222 0.72955 0.64419 0.0
C1461 C 0.81487 0.74085 0.65531 0.0
N1462 N 0.87376 0.78843 0.66691 0.0
N1463 N 0.75119 0.74016 0.61765 0.0
C1464 C 0.84125 0.7771 0.65752 0.0
C1465 C 0.77875 0.75254 0.63196 0.0
N1466 N 0.85565 0.83665 0.65331 0.0
N1467 N 0.75421 0.69724 0.64585 0.0
H1468 H 0.7473 0.75643 0.60875 0.0
H1469 H 0.73356 0.71352 0.61372 0.0
H1470 H 0.75536 0.68043 0.65546 0.0
H1471 H 0.72901 0.68883 0.63946 0.0
H1472 H 0.87529 0.84763 0.66511 0.0
H1473 H 0.85147 0.85505 0.64675 0.0
H1474 H 0.89483 0.81367 0.66664 0.0
H1475 H 0.88129 0.77226 0.67331 0.0
C1476 C 0.96679 0.77099 0.62973 0.0
C1477 C 0.99676 0.77008 0.63712 0.0
C1478 C 0.96308 0.73008 0.66081 0.0
C1479 C 0.93368 0.73315 0.65463 0.0
N1480 N 0.90926 0.76088 0.63501 0.0
N1481 N 0.02578 0.75496 0.66226 0.0
C1482 C 0.93609 0.75497 0.63963 0.0
C1483 C 0.99566 0.75173 0.65356 0.0
N1484 N 0.96718 0.78593 0.61275 0.0
N1485 N 0.95936 0.70448 0.67225 0.0
H1486 H 0.05008 0.77022 0.65716 0.0
H1487 H 0.02712 0.74515 0.67555 0.0
H1488 H 0.93544 0.68612 0.67658 0.0
H1489 H 0.97907 0.6988 0.67552 0.0
H1490 H 0.94491 0.78357 0.6052 0.0
H1491 H 0.98936 0.79853 0.60528 0.0
H1492 H 0.91112 0.77969 0.626 0.0
H1493 H 0.88591 0.74901 0.64141 0.0
C1494 C 0.23441 0.20332 0.61945 0.0
C1495 C 0.22354 0.22193 0.63218 0.0
C1496 C 0.25686 0.21727 0.66066 0.0
C1497 C 0.26562 0.19645 0.64816 0.0
N1498 N 0.25718 0.16374 0.61657 0.0
N1499 N 0.21931 0.24178 0.66521 0.0
C1500 C 0.25294 0.18789 0.62777 0.0
C1501 C 0.23332 0.22753 0.65289 0.0
N1502 N 0.22772 0.20108 0.5994 0.0
N1503 N 0.27196 0.22824 0.67979 0.0
H1504 H 0.2022 0.2499 0.66008 0.0
H1505 H 0.22227 0.24292 0.68057 0.0
H1506 H 0.28899 0.22096 0.68612 0.0
H1507 H 0.26988 0.24678 0.68895 0.0
H1508 H 0.23832 0.19129 0.58929 0.0
H1509 H 0.21371 0.21155 0.5928 0.0
H1510 H 0.24556 0.15373 0.60212 0.0
H1511 H 0.26974 0.15121 0.62234 0.0
C1512 C 0.82016 0.04564 0.6187 0.0
C1513 C 0.80466 0.01408 0.62772 0.0
C1514 C 0.79609 0.04395 0.65663 0.0
C1515 C 0.81017 0.07512 0.64718 0.0
N1516 N 0.82943 0.1041 0.61772 0.0
N1517 N 0.77298 0.98097 0.65352 0.0
C1518 C 0.82009 0.07542 0.6277 0.0
C1519 C 0.7912 0.01258 0.64622 0.0
N1520 N 0.83647 0.04765 0.60199 0.0
N1521 N 0.78757 0.04447 0.67558 0.0
H1522 H 0.76924 0.95761 0.6463 0.0
H1523 H 0.75941 0.97729 0.66592 0.0
H1524 H 0.78839 0.06623 0.68312 0.0
H1525 H 0.78119 0.02399 0.6842 0.0
H1526 H 0.85207 0.07107 0.59615 0.0
H1527 H 0.83696 0.02637 0.59478 0.0
H1528 H 0.83276 0.10419 0.60272 0.0
H1529 H 0.83127 0.12714 0.62393 0.0
C1530 C 0.43255 0.31848 0.71723 0.0
C1531 C 0.46308 0.31972 0.72584 0.0
C1532 C 0.44081 0.25901 0.71188 0.0
C1533 C 0.40875 0.25646 0.70486 0.0
N1534 N 0.37267 0.28281 0.70215 0.0
N1535 N 0.49261 0.28889 0.73537 0.0
C1536 C 0.40407 0.28585 0.70811 0.0
C1537 C 0.46614 0.28931 0.72432 0.0
N1538 N 0.43148 0.34877 0.71691 0.0
N1539 N 0.44765 0.23296 0.70637 0.0
H1540 H 0.51136 0.31034 0.74503 0.0
H1541 H 0.49388 0.26621 0.73653 0.0
H1542 H 0.42983 0.20979 0.69768 0.0
H1543 H 0.47217 0.23553 0.70917 0.0
H1544 H 0.41165 0.35038 0.709 0.0
H1545 H 0.45191 0.37313 0.72329 0.0
H1546 H 0.36618 0.30177 0.70622 0.0
H1547 H 0.35221 0.26042 0.69395 0.0
C1548 C 0.67869 0.09967 0.6995 0.0
C1549 C 0.67691 0.12258 0.71444 0.0
C1550 C 0.73615 0.16913 0.70967 0.0
C1551 C 0.7388 0.14542 0.69571 0.0
N1552 N 0.7142 0.08767 0.67808 0.0
N1553 N 0.70412 0.17775 0.73513 0.0
C1554 C 0.71045 0.11057 0.6908 0.0
C1555 C 0.70569 0.15702 0.71986 0.0
N1556 N 0.64973 0.06762 0.69341 0.0
N1557 N 0.76281 0.20324 0.71312 0.0
H1558 H 0.68185 0.17014 0.74245 0.0
H1559 H 0.72532 0.20157 0.74143 0.0
H1560 H 0.78602 0.2126 0.70659 0.0
H1561 H 0.76134 0.22295 0.72147 0.0
H1562 H 0.64769 0.05132 0.68104 0.0
H1563 H 0.62659 0.05789 0.70008 0.0
H1564 H 0.69661 0.06079 0.67579 0.0
H1565 H 0.73601 0.09527 0.67034 0.0
C1566 C 0.91637 0.59837 0.7155 0.0
C1567 C 0.90776 0.56522 0.70593 0.0
C1568 C 0.86521 0.56706 0.68214 0.0
C1569 C 0.87598 0.60151 0.69078 0.0
N1570 N 0.91778 0.65304 0.7126 0.0
N1571 N 0.87811 0.51986 0.67855 0.0
C1572 C 0.90322 0.61803 0.70662 0.0
C1573 C 0.88336 0.55007 0.68875 0.0
N1574 N 0.93637 0.61072 0.7334 0.0
N1575 N 0.8368 0.55003 0.66825 0.0
H1576 H 0.89059 0.50651 0.68318 0.0
H1577 H 0.86355 0.50951 0.66477 0.0
H1578 H 0.82289 0.56158 0.663 0.0
H1579 H 0.82532 0.52356 0.66304 0.0
H1580 H 0.94004 0.6328 0.74212 0.0
H1581 H 0.94675 0.59723 0.74044 0.0
H1582 H 0.94016 0.66724 0.72259 0.0
H1583 H 0.90987 0.66883 0.70601 0.0
C1584 C 0.44186 0.95816 0.16275 0.0
C1585 C 0.46002 0.94409 0.17293 0.0
C1586 C 0.49594 0.95398 0.14547 0.0
C1587 C 0.48386 0.97562 0.13798 0.0
N1588 N 0.44265 0.9961 0.13855 0.0
N1589 N 0.47929 0.90376 0.16327 0.0
C1590 C 0.45584 0.9769 0.14626 0.0
C1591 C 0.48036 0.93472 0.16145 0.0
N1592 N 0.40886 0.94893 0.16687 0.0
N1593 N 0.52254 0.952 0.13759 0.0
H1594 H 0.46175 0.88544 0.17183 0.0
H1595 H 0.49124 0.89413 0.15403 0.0
H1596 H 0.53471 0.9656 0.12582 0.0
H1597 H 0.5341 0.93891 0.14387 0.0
H1598 H 0.39277 0.95548 0.15873 0.0
H1599 H 0.39614 0.93065 0.17678 0.0
H1600 H 0.42498 0.00105 0.14545 0.0
H1601 H 0.45088 0.00875 0.1259 0.0
C1602 C 0.0131 0.52018 0.17266 0.0
C1603 C 0.03394 0.50481 0.17638 0.0
C1604 C 0.01136 0.46933 0.14413 0.0
C1605 C 0.9947 0.48847 0.13932 0.0
N1606 N 0.98015 0.53287 0.14825 0.0
N1607 N 0.05486 0.46619 0.16568 0.0
C1608 C 0.99531 0.51385 0.15347 0.0
C1609 C 0.03327 0.4794 0.16222 0.0
N1610 N 0.01021 0.54057 0.18757 0.0
N1611 N 0.00602 0.44145 0.13139 0.0
H1612 H 0.07073 0.47232 0.17895 0.0
H1613 H 0.05879 0.45089 0.15501 0.0
H1614 H 0.99037 0.43367 0.1179 0.0
H1615 H 0.01454 0.42422 0.13484 0.0
H1616 H 0.99289 0.5499 0.18645 0.0
H1617 H 0.02311 0.54577 0.20177 0.0
H1618 H 0.98319 0.5546 0.15703 0.0
H1619 H 0.96597 0.52814 0.13451 0.0
C1620 C 0.4479 0.49866 0.16234 0.0
C1621 C 0.45289 0.47735 0.17525 0.0
C1622 C 0.45415 0.44182 0.14644 0.0
C1623 C 0.45825 0.46841 0.13452 0.0
N1624 N 0.42657 0.49854 0.12905 0.0
N1625 N 0.45679 0.42563 0.1795 0.0
C1626 C 0.44601 0.49071 0.14163 0.0
C1627 C 0.4544 0.4477 0.16726 0.0
N1628 N 0.44556 0.52678 0.16967 0.0
N1629 N 0.44563 0.40958 0.13757 0.0
H1630 H 0.45518 0.42798 0.19469 0.0
H1631 H 0.46213 0.40612 0.17466 0.0
H1632 H 0.44093 0.40373 0.12219 0.0
H1633 H 0.43909 0.38794 0.14526 0.0
H1634 H 0.44506 0.54468 0.16064 0.0
H1635 H 0.44659 0.53349 0.18478 0.0
H1636 H 0.41461 0.51248 0.13379 0.0
H1637 H 0.41773 0.48582 0.11466 0.0
C1638 C 0.02276 0.56052 0.84572 0.0
C1639 C 0.99209 0.53091 0.83586 0.0
C1640 C 0.96798 0.51792 0.86761 0.0
C1641 C 1.00194 0.54062 0.8774 0.0
N1642 N 0.04743 0.60016 0.87594 0.0
N1643 N 0.93338 0.48295 0.83727 0.0
C1644 C 0.02562 0.56723 0.86659 0.0
C1645 C 0.96387 0.51016 0.84673 0.0
N1646 N 0.04963 0.5815 0.83537 0.0
N1647 N 0.93953 0.50885 0.87766 0.0
H1648 H 0.92885 0.47729 0.82189 0.0
H1649 H 0.91353 0.46497 0.84487 0.0
H1650 H 0.94216 0.51993 0.89214 0.0
H1651 H 0.91393 0.49485 0.87087 0.0
H1652 H 0.07385 0.6012 0.84229 0.0
H1653 H 0.04851 0.57767 0.82 0.0
H1654 H 0.06307 0.62153 0.86847 0.0
H1655 H 0.04616 0.60657 0.8908 0.0
C1656 C 0.56637 0.52723 0.85525 0.0
C1657 C 0.54288 0.49932 0.84077 0.0
C1658 C 0.49502 0.48395 0.86154 0.0
C1659 C 0.51832 0.51234 0.87584 0.0
N1660 N 0.57406 0.56496 0.885 0.0
N1661 N 0.48397 0.4553 0.82808 0.0
C1662 C 0.55339 0.53525 0.87226 0.0
C1663 C 0.50686 0.47905 0.84328 0.0
N1664 N 0.60126 0.54524 0.85304 0.0
N1665 N 0.46203 0.46081 0.8658 0.0
H1666 H 0.49188 0.45065 0.81464 0.0
H1667 H 0.45694 0.44227 0.82811 0.0
H1668 H 0.45221 0.4639 0.87885 0.0
H1669 H 0.44513 0.43729 0.85708 0.0
H1670 H 0.62039 0.56299 0.86408 0.0
H1671 H 0.61148 0.54091 0.84044 0.0
H1672 H 0.5987 0.58461 0.88229 0.0
H1673 H 0.56543 0.57143 0.89768 0.0
C1674 C 0.54778 0.02785 0.84713 0.0
C1675 C 0.52324 0.03227 0.83521 0.0
C1676 C 0.4838 0.01448 0.86136 0.0
C1677 C 0.50881 0.01114 0.87353 0.0
N1678 N 0.56731 0.02152 0.87986 0.0
N1679 N 0.47168 0.03731 0.8324 0.0
C1680 C 0.54169 0.02 0.86697 0.0
C1681 C 0.49242 0.02794 0.84282 0.0
N1682 N 0.57617 0.02974 0.83922 0.0
N1683 N 0.45127 0.0034 0.86715 0.0
H1684 H 0.47726 0.04727 0.81879 0.0
H1685 H 0.45082 0.03825 0.838 0.0
H1686 H 0.44404 0.99376 0.88069 0.0
H1687 H 0.43057 0.00128 0.85797 0.0
H1688 H 0.59283 0.02276 0.84631 0.0
H1689 H 0.58184 0.03606 0.8249 0.0
H1690 H 0.59299 0.03129 0.8767 0.0
H1691 H 0.56363 0.0158 0.89444 0.0
C1692 C 0.17637 0.34326 0.51427 0.0
C1693 C 0.14853 0.30909 0.51634 0.0
C1694 C 0.13764 0.29548 0.48016 0.0
C1695 C 0.16318 0.33072 0.47816 0.0
N1696 N 0.20289 0.38982 0.4932 0.0
N1697 N 0.09957 0.25399 0.50153 0.0
C1698 C 0.18149 0.35508 0.4952 0.0
C1699 C 0.12831 0.28549 0.49934 0.0
N1700 N 0.19865 0.36405 0.53049 0.0
N1701 N 0.12301 0.27136 0.46376 0.0
H1702 H 0.09217 0.24574 0.51533 0.0
H1703 H 0.08154 0.23722 0.48977 0.0
H1704 H 0.12911 0.27778 0.4495 0.0
H1705 H 0.10702 0.24453 0.46438 0.0
H1706 H 0.22165 0.38759 0.52962 0.0
H1707 H 0.19591 0.35637 0.54473 0.0
H1708 H 0.21378 0.40943 0.50511 0.0
H1709 H 0.20744 0.39957 0.4795 0.0
C1710 C 0.69219 0.80715 0.49789 0.0
C1711 C 0.70113 0.83861 0.5098 0.0
C1712 C 0.67056 0.85366 0.48475 0.0
C1713 C 0.66152 0.82214 0.47285 0.0
N1714 N 0.65586 0.76497 0.46983 0.0
N1715 N 0.69188 0.88715 0.51719 0.0
C1716 C 0.66974 0.79754 0.48005 0.0
C1717 C 0.68791 0.86031 0.50407 0.0
N1718 N 0.70655 0.78742 0.50313 0.0
N1719 N 0.66426 0.87805 0.4772 0.0
H1720 H 0.70453 0.89264 0.53148 0.0
H1721 H 0.67994 0.90183 0.51463 0.0
H1722 H 0.65122 0.874 0.46318 0.0
H1723 H 0.674 0.90327 0.48425 0.0
H1724 H 0.70439 0.76655 0.4939 0.0
H1725 H 0.72266 0.7933 0.51626 0.0
H1726 H 0.65814 0.74467 0.4752 0.0
H1727 H 0.63925 0.75723 0.4567 0.0
C1728 C 0.12722 0.84588 0.49684 0.0
C1729 C 0.11973 0.81691 0.50751 0.0
C1730 C 0.10871 0.78071 0.47617 0.0
C1731 C 0.12569 0.81167 0.46667 0.0
N1732 N 0.11933 0.86228 0.46473 0.0
N1733 N 0.0997 0.75508 0.5071 0.0
C1734 C 0.12605 0.84154 0.47592 0.0
C1735 C 0.10899 0.78365 0.49709 0.0
N1736 N 0.13625 0.87771 0.50658 0.0
N1737 N 0.08806 0.74916 0.46506 0.0
H1738 H 0.09828 0.7559 0.52235 0.0
H1739 H 0.09536 0.73121 0.50032 0.0
H1740 H 0.0832 0.74749 0.44972 0.0
H1741 H 0.07241 0.72599 0.47115 0.0
H1742 H 0.14529 0.90033 0.49943 0.0
H1743 H 0.13683 0.88187 0.52189 0.0
H1744 H 0.1162 0.88267 0.47081 0.0
H1745 H 0.11185 0.8555 0.44952 0.0
C1746 C 0.65439 0.82294 0.17527 0.0
C1747 C 0.66944 0.85471 0.16642 0.0
C1748 C 0.69369 0.88852 0.19909 0.0
C1749 C 0.6822 0.85669 0.20763 0.0
N1750 N 0.65453 0.79357 0.20401 0.0
N1751 N 0.70558 0.9177 0.16922 0.0
C1752 C 0.66309 0.82383 0.19579 0.0
C1753 C 0.68952 0.88756 0.17815 0.0
N1754 N 0.6314 0.792 0.16405 0.0
N1755 N 0.70797 0.91955 0.21106 0.0
H1756 H 0.70233 0.91807 0.15396 0.0
H1757 H 0.72387 0.94205 0.1767 0.0
H1758 H 0.71159 0.92116 0.22645 0.0
H1759 H 0.71361 0.94326 0.20595 0.0
H1760 H 0.61667 0.76846 0.16997 0.0
H1761 H 0.62478 0.79035 0.14891 0.0
H1762 H 0.64426 0.76919 0.19578 0.0
H1763 H 0.65998 0.79307 0.21905 0.0
C1764 C 0.22325 0.86062 0.18462 0.0
C1765 C 0.20069 0.8303 0.17129 0.0
C1766 C 0.15529 0.81196 0.19401 0.0
C1767 C 0.17725 0.84306 0.20696 0.0
N1768 N 0.22877 0.90056 0.21267 0.0
N1769 N 0.14283 0.78145 0.16098 0.0
C1770 C 0.21022 0.86854 0.20163 0.0
C1771 C 0.16589 0.80736 0.17527 0.0
N1772 N 0.25754 0.881 0.18153 0.0
N1773 N 0.12514 0.78602 0.19999 0.0
H1774 H 0.14974 0.77745 0.14707 0.0
H1775 H 0.1162 0.76612 0.16222 0.0
H1776 H 0.11646 0.78822 0.21362 0.0
H1777 H 0.11014 0.76118 0.19215 0.0
H1778 H 0.27624 0.90099 0.1919 0.0
H1779 H 0.26801 0.87629 0.16916 0.0
H1780 H 0.25129 0.9215 0.20847 0.0
H1781 H 0.21988 0.90728 0.22515 0.0
C1782 C 0.21034 0.38725 0.18561 0.0
C1783 C 0.19053 0.36403 0.16839 0.0
C1784 C 0.15519 0.31849 0.18925 0.0
C1785 C 0.17705 0.34046 0.20636 0.0
N1786 N 0.22913 0.39363 0.22059 0.0
N1787 N 0.14895 0.30515 0.15367 0.0
C1788 C 0.2057 0.37431 0.20448 0.0
C1789 C 0.16432 0.32894 0.17018 0.0
N1790 N 0.23278 0.42191 0.18401 0.0
N1791 N 0.12492 0.28818 0.19122 0.0
H1792 H 0.15528 0.31151 0.13944 0.0
H1793 H 0.13246 0.27838 0.15425 0.0
H1794 H 0.11695 0.27979 0.20491 0.0
H1795 H 0.10609 0.27309 0.17938 0.0
H1796 H 0.24513 0.44089 0.19618 0.0
H1797 H 0.23685 0.43229 0.17048 0.0
H1798 H 0.2525 0.41681 0.21976 0.0
H1799 H 0.22672 0.38497 0.23459 0.0
C1800 C 0.78269 0.60599 0.82898 0.0
C1801 C 0.79424 0.63161 0.84566 0.0
C1802 C 0.80354 0.67588 0.82329 0.0
C1803 C 0.80082 0.65251 0.80704 0.0
N1804 N 0.75898 0.5925 0.79471 0.0
N1805 N 0.81565 0.69186 0.85867 0.0
C1806 C 0.78234 0.61626 0.80964 0.0
C1807 C 0.80429 0.66677 0.84282 0.0
N1808 N 0.77186 0.57186 0.83148 0.0
N1809 N 0.8004 0.70424 0.81992 0.0
H1810 H 0.81673 0.68647 0.87328 0.0
H1811 H 0.82659 0.71848 0.85711 0.0
H1812 H 0.79457 0.70843 0.80563 0.0
H1813 H 0.79886 0.72044 0.83117 0.0
H1814 H 0.76652 0.55302 0.81967 0.0
H1815 H 0.7704 0.56302 0.84541 0.0
H1816 H 0.74262 0.56604 0.79627 0.0
H1817 H 0.75188 0.60061 0.7821 0.0
C1818 C 0.33853 0.18957 0.83775 0.0
C1819 C 0.34703 0.16503 0.84474 0.0
C1820 C 0.31512 0.12413 0.81497 0.0
C1821 C 0.31154 0.15086 0.80672 0.0
N1822 N 0.31968 0.2091 0.80961 0.0
N1823 N 0.34386 0.10903 0.84068 0.0
C1824 C 0.32269 0.18345 0.81805 0.0
C1825 C 0.33497 0.13204 0.83366 0.0
N1826 N 0.34578 0.21871 0.84998 0.0
N1827 N 0.29945 0.09128 0.80486 0.0
H1828 H 0.35712 0.11347 0.85468 0.0
H1829 H 0.33962 0.08636 0.83238 0.0
H1830 H 0.28499 0.08492 0.79106 0.0
H1831 H 0.29831 0.06968 0.81072 0.0
H1832 H 0.33737 0.23602 0.84654 0.0
H1833 H 0.35784 0.2241 0.86441 0.0
H1834 H 0.3311 0.23487 0.81614 0.0
H1835 H 0.30719 0.20514 0.79543 0.0
C1836 C 0.77764 0.15879 0.82878 0.0
C1837 C 0.78461 0.13902 0.84194 0.0
C1838 C 0.78686 0.10359 0.81348 0.0
C1839 C 0.78945 0.12925 0.8012 0.0
N1840 N 0.75578 0.15727 0.79531 0.0
N1841 N 0.79294 0.09002 0.84678 0.0
C1842 C 0.77595 0.15059 0.80808 0.0
C1843 C 0.78784 0.11026 0.83427 0.0
N1844 N 0.77294 0.18553 0.83592 0.0
N1845 N 0.77906 0.07134 0.80503 0.0
H1846 H 0.79286 0.09346 0.86208 0.0
H1847 H 0.79934 0.07127 0.842 0.0
H1848 H 0.77376 0.06471 0.7897 0.0
H1849 H 0.77362 0.05034 0.8131 0.0
H1850 H 0.77119 0.20274 0.82683 0.0
H1851 H 0.77296 0.19171 0.85099 0.0
H1852 H 0.74288 0.17035 0.79984 0.0
H1853 H 0.74752 0.14456 0.7809 0.0
C1854 C 0.35661 0.21287 0.51101 0.0
C1855 C 0.3365 0.18029 0.49902 0.0
C1856 C 0.32895 0.14859 0.52816 0.0
C1857 C 0.34804 0.1812 0.54025 0.0
N1858 N 0.3743 0.24412 0.54409 0.0
N1859 N 0.29788 0.11763 0.49615 0.0
C1860 C 0.36012 0.21331 0.53193 0.0
C1861 C 0.32087 0.14826 0.50762 0.0
N1862 N 0.37335 0.24324 0.50234 0.0
N1863 N 0.31978 0.11804 0.53619 0.0
H1864 H 0.29168 0.11641 0.48099 0.0
H1865 H 0.28277 0.09394 0.50185 0.0
H1866 H 0.32477 0.11716 0.55123 0.0
H1867 H 0.30944 0.09378 0.52781 0.0
H1868 H 0.39169 0.26735 0.51005 0.0
H1869 H 0.37066 0.24402 0.4871 0.0
H1870 H 0.3803 0.26802 0.53911 0.0
H1871 H 0.37743 0.24538 0.55948 0.0
C1872 C 0.89451 0.19541 0.51901 0.0
C1873 C 0.87234 0.1644 0.50606 0.0
C1874 C 0.82749 0.14577 0.52915 0.0
C1875 C 0.849 0.17751 0.54169 0.0
N1876 N 0.89949 0.23577 0.54667 0.0
N1877 N 0.81506 0.11409 0.49647 0.0
C1878 C 0.88147 0.20337 0.53601 0.0
C1879 C 0.83793 0.14087 0.51041 0.0
N1880 N 0.92848 0.21647 0.51553 0.0
N1881 N 0.79794 0.11958 0.53552 0.0
H1882 H 0.82184 0.10983 0.48256 0.0
H1883 H 0.78859 0.09821 0.49794 0.0
H1884 H 0.7894 0.122 0.54916 0.0
H1885 H 0.78341 0.09441 0.52802 0.0
H1886 H 0.94706 0.23713 0.52563 0.0
H1887 H 0.93888 0.21177 0.50313 0.0
H1888 H 0.92151 0.25689 0.54219 0.0
H1889 H 0.89059 0.2425 0.55914 0.0
C1890 C 0.82078 0.6769 0.50643 0.0
C1891 C 0.85604 0.69852 0.50264 0.0
C1892 C 0.87618 0.69459 0.53629 0.0
C1893 C 0.84086 0.67454 0.5404 0.0
N1894 N 0.77977 0.65261 0.53087 0.0
N1895 N 0.91706 0.73311 0.51478 0.0
C1896 C 0.81322 0.66749 0.52589 0.0
C1897 C 0.88369 0.70895 0.51786 0.0
N1898 N 0.79454 0.66422 0.49125 0.0
N1899 N 0.90248 0.69872 0.54967 0.0
H1900 H 0.92343 0.74385 0.50142 0.0
H1901 H 0.93791 0.74467 0.52588 0.0
H1902 H 0.89807 0.68877 0.56332 0.0
H1903 H 0.92839 0.70966 0.5467 0.0
H1904 H 0.76885 0.64505 0.49252 0.0
H1905 H 0.79884 0.67082 0.47686 0.0
H1906 H 0.75898 0.65022 0.52165 0.0
H1907 H 0.77323 0.64544 0.54497 0.0
loop_
_geom_bond_atom_site_label_1
_geom_bond_atom_site_label_2
_geom_bond_distance
_geom_bond_site_symmetry_2
_ccdc_geom_bond_type
P0 O11 1.490 . S
P0 C14 1.812 . S
P0 C20 1.803 . S
P0 C26 1.819 . S
H1 C15 0.941 . S
H2 C16 0.939 . S
H3 C18 0.940 . S
H4 C19 0.940 . S
H5 C21 0.939 . S
H6 C22 0.942 . S
H7 C24 0.940 . S
H8 C25 0.939 . S
H9 C27 0.941 . S
H10 C31 0.939 . S
O11 P0 1.490 . S
H12 C28 0.939 . S
H13 C30 0.940 . S
C14 P0 1.812 . S
C14 C15 1.389 . S
C14 C19 1.391 . S
C15 H1 0.941 . S
C15 C14 1.389 . S
C15 C16 1.397 . S
C16 H2 0.939 . S
C16 C15 1.397 . S
C16 C17 1.378 . S
C17 C16 1.378 . S
C17 C18 1.378 . S
C18 H3 0.940 . S
C18 C17 1.378 . S
C18 C19 1.396 . S
C19 H4 0.940 . S
C19 C14 1.391 . S
C19 C18 1.396 . S
C20 P0 1.803 . S
C20 C21 1.378 . S
C20 C25 1.400 . S
C21 H5 0.939 . S
C21 C20 1.378 . S
C21 C22 1.361 . S
C22 H6 0.942 . S
C22 C21 1.361 . S
C22 C23 1.369 . S
C23 C22 1.369 . S
C23 C24 1.404 . S
C24 H7 0.940 . S
C24 C23 1.404 . S
C24 C25 1.389 . S
C25 H8 0.939 . S
C25 C20 1.400 . S
C25 C24 1.389 . S
C26 P0 1.819 . S
C26 C27 1.391 . S
C26 C31 1.391 . S
C27 H9 0.941 . S
C27 C26 1.391 . S
C27 C28 1.396 . S
C28 H12 0.939 . S
C28 C27 1.396 . S
C28 C29 1.397 . S
C29 C28 1.397 . S
C29 C30 1.385 . S
C30 H13 0.940 . S
C30 C29 1.385 . S
C30 C31 1.388 . S
C31 H10 0.939 . S
C31 C26 1.391 . S
C31 C30 1.388 . S
P32 O43 1.490 . S
P32 C46 1.812 . S
P32 C52 1.803 . S
P32 C58 1.819 . S
H33 C47 0.941 . S
H34 C48 0.939 . S
H35 C50 0.940 . S
H36 C51 0.940 . S
H37 C53 0.939 . S
H38 C54 0.942 1_455 S
H39 C56 0.940 . S
H40 C57 0.939 . S
H41 C59 0.941 . S
H42 C63 0.939 . S
O43 P32 1.490 . S
H44 C60 0.939 . S
H45 C62 0.940 . S
C46 P32 1.812 . S
C46 C47 1.389 . S
C46 C51 1.391 . S
C47 H33 0.941 . S
C47 C46 1.389 . S
C47 C48 1.397 . S
C48 H34 0.939 . S
C48 C47 1.397 . S
C48 C49 1.378 . S
C49 C48 1.378 . S
C49 C50 1.378 . S
C50 H35 0.940 . S
C50 C49 1.378 . S
C50 C51 1.396 . S
C51 H36 0.940 . S
C51 C46 1.391 . S
C51 C50 1.396 . S
C52 P32 1.803 . S
C52 C53 1.378 . S
C52 C57 1.400 . S
C53 H37 0.939 . S
C53 C52 1.378 . S
C53 C54 1.361 . S
C54 H38 0.942 1_655 S
C54 C53 1.361 . S
C54 C55 1.369 . S
C55 C54 1.369 . S
C55 C56 1.404 . S
C56 H39 0.940 . S
C56 C55 1.404 . S
C56 C57 1.389 . S
C57 H40 0.939 . S
C57 C52 1.400 . S
C57 C56 1.389 . S
C58 P32 1.819 . S
C58 C59 1.391 . S
C58 C63 1.391 . S
C59 H41 0.941 . S
C59 C58 1.391 . S
C59 C60 1.396 . S
C60 H44 0.939 . S
C60 C59 1.396 . S
C60 C61 1.397 . S
C61 C60 1.397 . S
C61 C62 1.385 . S
C62 H45 0.940 . S
C62 C61 1.385 . S
C62 C63 1.388 . S
C63 H42 0.939 . S
C63 C58 1.391 . S
C63 C62 1.388 . S
P64 O75 1.490 . S
P64 C78 1.812 . S
P64 C84 1.803 . S
P64 C90 1.819 . S
H65 C79 0.941 . S
H66 C80 0.939 . S
H67 C82 0.940 . S
H68 C83 0.940 . S
H69 C85 0.939 . S
H70 C86 0.942 . S
H71 C88 0.940 . S
H72 C89 0.939 . S
H73 C91 0.941 . S
H74 C95 0.939 . S
O75 P64 1.490 . S
H76 C92 0.939 . S
H77 C94 0.940 . S
C78 P64 1.812 . S
C78 C79 1.389 . S
C78 C83 1.391 . S
C79 H65 0.941 . S
C79 C78 1.389 . S
C79 C80 1.397 . S
C80 H66 0.939 . S
C80 C79 1.397 . S
C80 C81 1.378 . S
C81 C80 1.378 . S
C81 C82 1.378 . S
C82 H67 0.940 . S
C82 C81 1.378 . S
C82 C83 1.396 . S
C83 H68 0.940 . S
C83 C78 1.391 . S
C83 C82 1.396 . S
C84 P64 1.803 . S
C84 C85 1.378 . S
C84 C89 1.400 . S
C85 H69 0.939 . S
C85 C84 1.378 . S
C85 C86 1.361 . S
C86 H70 0.942 . S
C86 C85 1.361 . S
C86 C87 1.369 . S
C87 C86 1.369 . S
C87 C88 1.404 . S
C88 H71 0.940 . S
C88 C87 1.404 . S
C88 C89 1.389 . S
C89 H72 0.939 . S
C89 C84 1.400 . S
C89 C88 1.389 . S
C90 P64 1.819 . S
C90 C91 1.391 . S
C90 C95 1.391 . S
C91 H73 0.941 . S
C91 C90 1.391 . S
C91 C92 1.396 . S
C92 H76 0.939 . S
C92 C91 1.396 . S
C92 C93 1.397 . S
C93 C92 1.397 . S
C93 C94 1.385 . S
C94 H77 0.940 . S
C94 C93 1.385 . S
C94 C95 1.388 . S
C95 H74 0.939 . S
C95 C90 1.391 . S
C95 C94 1.388 . S
P96 O107 1.490 . S
P96 C110 1.812 . S
P96 C116 1.803 . S
P96 C122 1.819 . S
H97 C111 0.941 . S
H98 C112 0.939 . S
H99 C114 0.940 . S
H100 C115 0.940 . S
H101 C117 0.939 . S
H102 C118 0.942 . S
H103 C120 0.940 . S
H104 C121 0.939 . S
H105 C123 0.941 . S
H106 C127 0.939 . S
O107 P96 1.490 . S
H108 C124 0.939 . S
H109 C126 0.940 . S
C110 P96 1.812 . S
C110 C111 1.389 . S
C110 C115 1.391 . S
C111 H97 0.941 . S
C111 C110 1.389 . S
C111 C112 1.397 . S
C112 H98 0.939 . S
C112 C111 1.397 . S
C112 C113 1.378 . S
C113 C112 1.378 . S
C113 C114 1.378 . S
C114 H99 0.940 . S
C114 C113 1.378 . S
C114 C115 1.396 . S
C115 H100 0.940 . S
C115 C110 1.391 . S
C115 C114 1.396 . S
C116 P96 1.803 . S
C116 C117 1.378 . S
C116 C121 1.400 . S
C117 H101 0.939 . S
C117 C116 1.378 . S
C117 C118 1.361 . S
C118 H102 0.942 . S
C118 C117 1.361 . S
C118 C119 1.369 . S
C119 C118 1.369 . S
C119 C120 1.404 . S
C120 H103 0.940 . S
C120 C119 1.404 . S
C120 C121 1.389 . S
C121 H104 0.939 . S
C121 C116 1.400 . S
C121 C120 1.389 . S
C122 P96 1.819 . S
C122 C123 1.391 . S
C122 C127 1.391 . S
C123 H105 0.941 . S
C123 C122 1.391 . S
C123 C124 1.396 . S
C124 H108 0.939 . S
C124 C123 1.396 . S
C124 C125 1.397 . S
C125 C124 1.397 . S
C125 C126 1.385 . S
C126 H109 0.940 . S
C126 C125 1.385 . S
C126 C127 1.388 . S
C127 H106 0.939 . S
C127 C122 1.391 . S
C127 C126 1.388 . S
P128 O139 1.490 . S
P128 C142 1.812 . S
P128 C148 1.803 . S
P128 C154 1.819 . S
H129 C143 0.941 . S
H130 C144 0.939 . S
H131 C146 0.940 . S
H132 C147 0.940 . S
H133 C149 0.939 . S
H134 C150 0.942 . S
H135 C152 0.940 . S
H136 C153 0.939 . S
H137 C155 0.941 . S
H138 C159 0.939 . S
O139 P128 1.490 . S
H140 C156 0.939 . S
H141 C158 0.940 . S
C142 P128 1.812 . S
C142 C143 1.389 . S
C142 C147 1.391 . S
C143 H129 0.941 . S
C143 C142 1.389 . S
C143 C144 1.397 . S
C144 H130 0.939 . S
C144 C143 1.397 . S
C144 C145 1.378 . S
C145 C144 1.378 . S
C145 C146 1.378 . S
C146 H131 0.940 . S
C146 C145 1.378 . S
C146 C147 1.396 . S
C147 H132 0.940 . S
C147 C142 1.391 . S
C147 C146 1.396 . S
C148 P128 1.803 . S
C148 C149 1.378 . S
C148 C153 1.400 . S
C149 H133 0.939 . S
C149 C148 1.378 . S
C149 C150 1.361 . S
C150 H134 0.942 . S
C150 C149 1.361 . S
C150 C151 1.369 . S
C151 C150 1.369 . S
C151 C152 1.404 . S
C152 H135 0.940 . S
C152 C151 1.404 . S
C152 C153 1.389 . S
C153 H136 0.939 . S
C153 C148 1.400 . S
C153 C152 1.389 . S
C154 P128 1.819 . S
C154 C155 1.391 . S
C154 C159 1.391 . S
C155 H137 0.941 . S
C155 C154 1.391 . S
C155 C156 1.396 . S
C156 H140 0.939 . S
C156 C155 1.396 . S
C156 C157 1.397 . S
C157 C156 1.397 . S
C157 C158 1.385 . S
C158 H141 0.940 . S
C158 C157 1.385 . S
C158 C159 1.388 . S
C159 H138 0.939 . S
C159 C154 1.391 . S
C159 C158 1.388 . S
P160 O171 1.490 . S
P160 C174 1.812 . S
P160 C180 1.803 . S
P160 C186 1.819 . S
H161 C175 0.941 . S
H162 C176 0.939 . S
H163 C178 0.940 . S
H164 C179 0.940 . S
H165 C181 0.939 . S
H166 C182 0.942 . S
H167 C184 0.940 . S
H168 C185 0.939 . S
H169 C187 0.941 . S
H170 C191 0.939 . S
O171 P160 1.490 . S
H172 C188 0.939 . S
H173 C190 0.940 . S
C174 P160 1.812 . S
C174 C175 1.389 . S
C174 C179 1.391 . S
C175 H161 0.941 . S
C175 C174 1.389 . S
C175 C176 1.397 . S
C176 H162 0.939 . S
C176 C175 1.397 . S
C176 C177 1.378 . S
C177 C176 1.378 . S
C177 C178 1.378 . S
C178 H163 0.940 . S
C178 C177 1.378 . S
C178 C179 1.396 . S
C179 H164 0.940 . S
C179 C174 1.391 . S
C179 C178 1.396 . S
C180 P160 1.803 . S
C180 C181 1.378 . S
C180 C185 1.400 . S
C181 H165 0.939 . S
C181 C180 1.378 . S
C181 C182 1.361 . S
C182 H166 0.942 . S
C182 C181 1.361 . S
C182 C183 1.369 . S
C183 C182 1.369 . S
C183 C184 1.404 . S
C184 H167 0.940 . S
C184 C183 1.404 . S
C184 C185 1.389 . S
C185 H168 0.939 . S
C185 C180 1.400 . S
C185 C184 1.389 . S
C186 P160 1.819 . S
C186 C187 1.391 . S
C186 C191 1.391 . S
C187 H169 0.941 . S
C187 C186 1.391 . S
C187 C188 1.396 . S
C188 H172 0.939 . S
C188 C187 1.396 . S
C188 C189 1.397 . S
C189 C188 1.397 . S
C189 C190 1.385 . S
C190 H173 0.940 . S
C190 C189 1.385 . S
C190 C191 1.388 . S
C191 H170 0.939 . S
C191 C186 1.391 . S
C191 C190 1.388 . S
P192 O203 1.490 . S
P192 C206 1.812 1_455 S
P192 C212 1.803 1_455 S
P192 C218 1.820 . S
H193 C207 0.941 1_455 S
H194 C208 0.939 . S
H195 C210 0.940 . S
H196 C211 0.940 . S
H197 C213 0.923 1_455 S
H198 C214 0.942 . S
H199 C216 0.940 . S
H200 C217 0.939 . S
H201 C219 0.941 . S
H202 C223 0.939 . S
O203 P192 1.490 . S
H204 C220 0.939 . S
H205 C222 0.940 . S
C206 P192 1.812 1_655 S
C206 C207 1.389 . S
C206 C211 1.391 . S
C207 H193 0.941 1_655 S
C207 C206 1.389 . S
C207 C208 1.397 . S
C208 H194 0.939 . S
C208 C207 1.397 . S
C208 C209 1.378 . S
C209 C208 1.378 . S
C209 C210 1.378 . S
C210 H195 0.940 . S
C210 C209 1.378 . S
C210 C211 1.396 . S
C211 H196 0.940 . S
C211 C206 1.391 . S
C211 C210 1.396 . S
C212 P192 1.803 1_655 S
C212 C213 1.379 . S
C212 C217 1.400 . S
C213 H197 0.923 1_655 S
C213 C212 1.379 . S
C213 C214 1.375 . S
C214 H198 0.942 . S
C214 C213 1.375 . S
C214 C215 1.369 . S
C215 C214 1.369 . S
C215 C216 1.404 . S
C216 H199 0.940 . S
C216 C215 1.404 . S
C216 C217 1.389 . S
C217 H200 0.939 . S
C217 C212 1.400 . S
C217 C216 1.389 . S
C218 P192 1.820 . S
C218 C219 1.396 . S
C218 C223 1.386 1_455 S
C219 H201 0.941 . S
C219 C218 1.396 . S
C219 C220 1.396 . S
C220 H204 0.939 . S
C220 C219 1.396 . S
C220 C221 1.397 1_455 S
C221 C220 1.397 1_655 S
C221 C222 1.385 . S
C222 H205 0.940 . S
C222 C221 1.385 . S
C222 C223 1.388 . S
C223 H202 0.939 . S
C223 C218 1.386 1_655 S
C223 C222 1.388 . S
P224 O235 1.490 . S
P224 C238 1.812 . S
P224 C244 1.803 . S
P224 C250 1.819 . S
H225 C239 0.941 . S
H226 C240 0.939 . S
H227 C242 0.940 . S
H228 C243 0.940 . S
H229 C245 0.939 . S
H230 C246 0.942 . S
H231 C248 0.940 . S
H232 C249 0.939 . S
H233 C251 0.941 . S
H234 C255 0.939 . S
O235 P224 1.490 . S
H236 C252 0.939 . S
H237 C254 0.940 . S
C238 P224 1.812 . S
C238 C239 1.389 . S
C238 C243 1.391 . S
C239 H225 0.941 . S
C239 C238 1.389 . S
C239 C240 1.397 . S
C240 H226 0.939 . S
C240 C239 1.397 . S
C240 C241 1.378 . S
C241 C240 1.378 . S
C241 C242 1.378 . S
C242 H227 0.940 . S
C242 C241 1.378 . S
C242 C243 1.396 . S
C243 H228 0.940 . S
C243 C238 1.391 . S
C243 C242 1.396 . S
C244 P224 1.803 . S
C244 C245 1.378 . S
C244 C249 1.400 . S
C245 H229 0.939 . S
C245 C244 1.378 . S
C245 C246 1.361 . S
C246 H230 0.942 . S
C246 C245 1.361 . S
C246 C247 1.369 . S
C247 C246 1.369 . S
C247 C248 1.404 . S
C248 H231 0.940 . S
C248 C247 1.404 . S
C248 C249 1.389 . S
C249 H232 0.939 . S
C249 C244 1.400 . S
C249 C248 1.389 . S
C250 P224 1.819 . S
C250 C251 1.391 . S
C250 C255 1.391 . S
C251 H233 0.941 . S
C251 C250 1.391 . S
C251 C252 1.396 . S
C252 H236 0.939 . S
C252 C251 1.396 . S
C252 C253 1.397 . S
C253 C252 1.397 . S
C253 C254 1.385 . S
C254 H237 0.940 . S
C254 C253 1.385 . S
C254 C255 1.388 . S
C255 H234 0.939 . S
C255 C250 1.391 . S
C255 C254 1.388 . S
P256 O267 1.490 1_545 S
P256 C270 1.812 . S
P256 C276 1.803 . S
P256 C282 1.819 . S
H257 C271 0.941 . S
H258 C272 0.939 . S
H259 C274 0.940 . S
H260 C275 0.940 . S
H261 C277 0.939 . S
H262 C278 0.942 . S
H263 C280 0.940 . S
H264 C281 0.939 . S
H265 C283 0.941 1_565 S
H266 C287 0.939 . S
O267 P256 1.490 1_565 S
H268 C284 0.939 . S
H269 C286 0.940 . S
C270 P256 1.812 . S
C270 C271 1.389 . S
C270 C275 1.391 . S
C271 H257 0.941 . S
C271 C270 1.389 . S
C271 C272 1.397 . S
C272 H258 0.939 . S
C272 C271 1.397 . S
C272 C273 1.378 . S
C273 C272 1.378 . S
C273 C274 1.378 . S
C274 H259 0.940 . S
C274 C273 1.378 . S
C274 C275 1.396 . S
C275 H260 0.940 . S
C275 C270 1.391 . S
C275 C274 1.396 . S
C276 P256 1.803 . S
C276 C277 1.378 . S
C276 C281 1.400 . S
C277 H261 0.939 . S
C277 C276 1.378 . S
C277 C278 1.361 . S
C278 H262 0.942 . S
C278 C277 1.361 . S
C278 C279 1.369 . S
C279 C278 1.369 . S
C279 C280 1.404 . S
C280 H263 0.940 . S
C280 C279 1.404 . S
C280 C281 1.389 . S
C281 H264 0.939 . S
C281 C276 1.400 . S
C281 C280 1.389 . S
C282 P256 1.819 . S
C282 C283 1.391 . S
C282 C287 1.391 . S
C283 H265 0.941 1_545 S
C283 C282 1.391 . S
C283 C284 1.396 . S
C284 H268 0.939 . S
C284 C283 1.396 . S
C284 C285 1.397 . S
C285 C284 1.397 . S
C285 C286 1.385 . S
C286 H269 0.940 . S
C286 C285 1.385 . S
C286 C287 1.388 . S
C287 H266 0.939 . S
C287 C282 1.391 . S
C287 C286 1.388 . S
P288 O299 1.490 . S
P288 C302 1.812 . S
P288 C308 1.803 . S
P288 C314 1.819 . S
H289 C303 0.941 . S
H290 C304 0.939 . S
H291 C306 0.940 . S
H292 C307 0.940 . S
H293 C309 0.939 . S
H294 C310 0.942 . S
H295 C312 0.940 . S
H296 C313 0.939 . S
H297 C315 0.941 . S
H298 C319 0.939 . S
O299 P288 1.490 . S
H300 C316 0.939 . S
H301 C318 0.940 . S
C302 P288 1.812 . S
C302 C303 1.389 . S
C302 C307 1.391 . S
C303 H289 0.941 . S
C303 C302 1.389 . S
C303 C304 1.397 . S
C304 H290 0.939 . S
C304 C303 1.397 . S
C304 C305 1.378 . S
C305 C304 1.378 . S
C305 C306 1.378 . S
C306 H291 0.940 . S
C306 C305 1.378 . S
C306 C307 1.396 . S
C307 H292 0.940 . S
C307 C302 1.391 . S
C307 C306 1.396 . S
C308 P288 1.803 . S
C308 C309 1.378 . S
C308 C313 1.400 . S
C309 H293 0.939 . S
C309 C308 1.378 . S
C309 C310 1.361 . S
C310 H294 0.942 . S
C310 C309 1.361 . S
C310 C311 1.369 . S
C311 C310 1.369 . S
C311 C312 1.404 . S
C312 H295 0.940 . S
C312 C311 1.404 . S
C312 C313 1.389 . S
C313 H296 0.939 . S
C313 C308 1.400 . S
C313 C312 1.389 . S
C314 P288 1.819 . S
C314 C315 1.391 . S
C314 C319 1.391 . S
C315 H297 0.941 . S
C315 C314 1.391 . S
C315 C316 1.396 . S
C316 H300 0.939 . S
C316 C315 1.396 . S
C316 C317 1.397 . S
C317 C316 1.397 . S
C317 C318 1.385 . S
C318 H301 0.940 . S
C318 C317 1.385 . S
C318 C319 1.388 . S
C319 H298 0.939 . S
C319 C314 1.391 . S
C319 C318 1.388 . S
P320 O331 1.490 . S
P320 C334 1.812 . S
P320 C340 1.803 . S
P320 C346 1.819 . S
H321 C335 0.941 . S
H322 C336 0.939 . S
H323 C338 0.940 . S
H324 C339 0.940 . S
H325 C341 0.939 . S
H326 C342 0.942 . S
H327 C344 0.940 . S
H328 C345 0.939 . S
H329 C347 0.941 . S
H330 C351 0.939 . S
O331 P320 1.490 . S
H332 C348 0.939 . S
H333 C350 0.940 . S
C334 P320 1.812 . S
C334 C335 1.389 . S
C334 C339 1.391 . S
C335 H321 0.941 . S
C335 C334 1.389 . S
C335 C336 1.397 . S
C336 H322 0.939 . S
C336 C335 1.397 . S
C336 C337 1.378 . S
C337 C336 1.378 . S
C337 C338 1.378 . S
C338 H323 0.940 . S
C338 C337 1.378 . S
C338 C339 1.396 . S
C339 H324 0.940 . S
C339 C334 1.391 . S
C339 C338 1.396 . S
C340 P320 1.803 . S
C340 C341 1.378 . S
C340 C345 1.400 . S
C341 H325 0.939 . S
C341 C340 1.378 . S
C341 C342 1.361 . S
C342 H326 0.942 . S
C342 C341 1.361 . S
C342 C343 1.369 . S
C343 C342 1.369 . S
C343 C344 1.404 . S
C344 H327 0.940 . S
C344 C343 1.404 . S
C344 C345 1.389 . S
C345 H328 0.939 . S
C345 C340 1.400 . S
C345 C344 1.389 . S
C346 P320 1.819 . S
C346 C347 1.391 . S
C346 C351 1.391 . S
C347 H329 0.941 . S
C347 C346 1.391 . S
C347 C348 1.396 . S
C348 H332 0.939 . S
C348 C347 1.396 . S
C348 C349 1.397 . S
C349 C348 1.397 . S
C349 C350 1.385 . S
C350 H333 0.940 . S
C350 C349 1.385 . S
C350 C351 1.388 . S
C351 H330 0.939 . S
C351 C346 1.391 . S
C351 C350 1.388 . S
P352 O363 1.490 . S
P352 C366 1.812 . S
P352 C372 1.803 . S
P352 C378 1.819 . S
H353 C367 0.941 . S
H354 C368 0.939 . S
H355 C370 0.940 . S
H356 C371 0.940 . S
H357 C373 0.939 . S
H358 C374 0.942 . S
H359 C376 0.940 . S
H360 C377 0.939 . S
H361 C379 0.941 . S
H362 C383 0.939 . S
O363 P352 1.490 . S
H364 C380 0.939 . S
H365 C382 0.940 . S
C366 P352 1.812 . S
C366 C367 1.389 . S
C366 C371 1.391 . S
C367 H353 0.941 . S
C367 C366 1.389 . S
C367 C368 1.397 . S
C368 H354 0.939 . S
C368 C367 1.397 . S
C368 C369 1.378 . S
C369 C368 1.378 . S
C369 C370 1.378 . S
C370 H355 0.940 . S
C370 C369 1.378 . S
C370 C371 1.396 . S
C371 H356 0.940 . S
C371 C366 1.391 . S
C371 C370 1.396 . S
C372 P352 1.803 . S
C372 C373 1.378 . S
C372 C377 1.400 . S
C373 H357 0.939 . S
C373 C372 1.378 . S
C373 C374 1.361 . S
C374 H358 0.942 . S
C374 C373 1.361 . S
C374 C375 1.369 . S
C375 C374 1.369 . S
C375 C376 1.404 . S
C376 H359 0.940 . S
C376 C375 1.404 . S
C376 C377 1.389 . S
C377 H360 0.939 . S
C377 C372 1.400 . S
C377 C376 1.389 . S
C378 P352 1.819 . S
C378 C379 1.391 . S
C378 C383 1.391 . S
C379 H361 0.941 . S
C379 C378 1.391 . S
C379 C380 1.396 . S
C380 H364 0.939 . S
C380 C379 1.396 . S
C380 C381 1.397 . S
C381 C380 1.397 . S
C381 C382 1.385 . S
C382 H365 0.940 . S
C382 C381 1.385 . S
C382 C383 1.388 . S
C383 H362 0.939 . S
C383 C378 1.391 . S
C383 C382 1.388 . S
P384 O395 1.490 . S
P384 C398 1.812 . S
P384 C404 1.803 . S
P384 C410 1.819 . S
H385 C399 0.941 . S
H386 C400 0.939 . S
H387 C402 0.940 . S
H388 C403 0.940 . S
H389 C405 0.939 . S
H390 C406 0.942 . S
H391 C408 0.940 . S
H392 C409 0.939 . S
H393 C411 0.941 . S
H394 C415 0.939 . S
O395 P384 1.490 . S
H396 C412 0.939 . S
H397 C414 0.940 . S
C398 P384 1.812 . S
C398 C399 1.389 . S
C398 C403 1.391 . S
C399 H385 0.941 . S
C399 C398 1.389 . S
C399 C400 1.397 . S
C400 H386 0.939 . S
C400 C399 1.397 . S
C400 C401 1.378 . S
C401 C400 1.378 . S
C401 C402 1.378 . S
C402 H387 0.940 . S
C402 C401 1.378 . S
C402 C403 1.396 . S
C403 H388 0.940 . S
C403 C398 1.391 . S
C403 C402 1.396 . S
C404 P384 1.803 . S
C404 C405 1.378 . S
C404 C409 1.400 . S
C405 H389 0.939 . S
C405 C404 1.378 . S
C405 C406 1.361 . S
C406 H390 0.942 . S
C406 C405 1.361 . S
C406 C407 1.369 . S
C407 C406 1.369 . S
C407 C408 1.404 . S
C408 H391 0.940 . S
C408 C407 1.404 . S
C408 C409 1.389 . S
C409 H392 0.939 . S
C409 C404 1.400 . S
C409 C408 1.389 . S
C410 P384 1.819 . S
C410 C411 1.391 . S
C410 C415 1.391 . S
C411 H393 0.941 . S
C411 C410 1.391 . S
C411 C412 1.396 . S
C412 H396 0.939 . S
C412 C411 1.396 . S
C412 C413 1.397 . S
C413 C412 1.397 . S
C413 C414 1.385 . S
C414 H397 0.940 . S
C414 C413 1.385 . S
C414 C415 1.388 . S
C415 H394 0.939 . S
C415 C410 1.391 . S
C415 C414 1.388 . S
P416 O427 1.490 . S
P416 C430 1.812 . S
P416 C436 1.803 . S
P416 C442 1.819 . S
H417 C431 0.941 . S
H418 C432 0.939 . S
H419 C434 0.940 . S
H420 C435 0.940 . S
H421 C437 0.939 . S
H422 C438 0.942 . S
H423 C440 0.940 . S
H424 C441 0.939 . S
H425 C443 0.941 . S
H426 C447 0.939 . S
O427 P416 1.490 . S
H428 C444 0.939 . S
H429 C446 0.940 . S
C430 P416 1.812 . S
C430 C431 1.389 . S
C430 C435 1.391 . S
C431 H417 0.941 . S
C431 C430 1.389 . S
C431 C432 1.397 . S
C432 H418 0.939 . S
C432 C431 1.397 . S
C432 C433 1.378 . S
C433 C432 1.378 . S
C433 C434 1.378 . S
C434 H419 0.940 . S
C434 C433 1.378 . S
C434 C435 1.396 . S
C435 H420 0.940 . S
C435 C430 1.391 . S
C435 C434 1.396 . S
C436 P416 1.803 . S
C436 C437 1.378 . S
C436 C441 1.400 . S
C437 H421 0.939 . S
C437 C436 1.378 . S
C437 C438 1.361 . S
C438 H422 0.942 . S
C438 C437 1.361 . S
C438 C439 1.369 . S
C439 C438 1.369 . S
C439 C440 1.404 . S
C440 H423 0.940 . S
C440 C439 1.404 . S
C440 C441 1.389 . S
C441 H424 0.939 . S
C441 C436 1.400 . S
C441 C440 1.389 . S
C442 P416 1.819 . S
C442 C443 1.391 . S
C442 C447 1.391 . S
C443 H425 0.941 . S
C443 C442 1.391 . S
C443 C444 1.396 . S
C444 H428 0.939 . S
C444 C443 1.396 . S
C444 C445 1.397 . S
C445 C444 1.397 . S
C445 C446 1.385 . S
C446 H429 0.940 . S
C446 C445 1.385 . S
C446 C447 1.388 . S
C447 H426 0.939 . S
C447 C442 1.391 . S
C447 C446 1.388 . S
P448 O459 1.490 . S
P448 C462 1.812 . S
P448 C468 1.803 . S
P448 C474 1.819 . S
H449 C463 0.941 . S
H450 C464 0.939 . S
H451 C466 0.940 . S
H452 C467 0.940 . S
H453 C469 0.939 . S
H454 C470 0.942 . S
H455 C472 0.940 . S
H456 C473 0.939 . S
H457 C475 0.941 . S
H458 C479 0.939 . S
O459 P448 1.490 . S
H460 C476 0.939 . S
H461 C478 0.940 . S
C462 P448 1.812 . S
C462 C463 1.389 . S
C462 C467 1.391 . S
C463 H449 0.941 . S
C463 C462 1.389 . S
C463 C464 1.397 . S
C464 H450 0.939 . S
C464 C463 1.397 . S
C464 C465 1.378 . S
C465 C464 1.378 . S
C465 C466 1.378 . S
C466 H451 0.940 . S
C466 C465 1.378 . S
C466 C467 1.396 . S
C467 H452 0.940 . S
C467 C462 1.391 . S
C467 C466 1.396 . S
C468 P448 1.803 . S
C468 C469 1.378 . S
C468 C473 1.400 . S
C469 H453 0.939 . S
C469 C468 1.378 . S
C469 C470 1.361 . S
C470 H454 0.942 . S
C470 C469 1.361 . S
C470 C471 1.369 . S
C471 C470 1.369 . S
C471 C472 1.404 . S
C472 H455 0.940 . S
C472 C471 1.404 . S
C472 C473 1.389 . S
C473 H456 0.939 . S
C473 C468 1.400 . S
C473 C472 1.389 . S
C474 P448 1.819 . S
C474 C475 1.391 . S
C474 C479 1.391 . S
C475 H457 0.941 . S
C475 C474 1.391 . S
C475 C476 1.396 . S
C476 H460 0.939 . S
C476 C475 1.396 . S
C476 C477 1.397 . S
C477 C476 1.397 . S
C477 C478 1.385 . S
C478 H461 0.940 . S
C478 C477 1.385 . S
C478 C479 1.388 . S
C479 H458 0.939 . S
C479 C474 1.391 . S
C479 C478 1.388 . S
P480 O491 1.490 1_565 S
P480 C494 1.812 . S
P480 C500 1.803 . S
P480 C506 1.819 . S
H481 C495 0.941 . S
H482 C496 0.939 . S
H483 C498 0.940 . S
H484 C499 0.940 . S
H485 C501 0.939 . S
H486 C502 0.942 . S
H487 C504 0.940 . S
H488 C505 0.939 . S
H489 C507 0.941 1_545 S
H490 C511 0.939 . S
O491 P480 1.490 1_545 S
H492 C508 0.939 . S
H493 C510 0.940 . S
C494 P480 1.812 . S
C494 C495 1.389 . S
C494 C499 1.391 . S
C495 H481 0.941 . S
C495 C494 1.389 . S
C495 C496 1.397 . S
C496 H482 0.939 . S
C496 C495 1.397 . S
C496 C497 1.378 . S
C497 C496 1.378 . S
C497 C498 1.378 . S
C498 H483 0.940 . S
C498 C497 1.378 . S
C498 C499 1.396 . S
C499 H484 0.940 . S
C499 C494 1.391 . S
C499 C498 1.396 . S
C500 P480 1.803 . S
C500 C501 1.378 . S
C500 C505 1.400 . S
C501 H485 0.939 . S
C501 C500 1.378 . S
C501 C502 1.361 . S
C502 H486 0.942 . S
C502 C501 1.361 . S
C502 C503 1.369 . S
C503 C502 1.369 . S
C503 C504 1.404 . S
C504 H487 0.940 . S
C504 C503 1.404 . S
C504 C505 1.389 . S
C505 H488 0.939 . S
C505 C500 1.400 . S
C505 C504 1.389 . S
C506 P480 1.819 . S
C506 C507 1.391 . S
C506 C511 1.391 . S
C507 H489 0.941 1_565 S
C507 C506 1.391 . S
C507 C508 1.396 . S
C508 H492 0.939 . S
C508 C507 1.396 . S
C508 C509 1.397 . S
C509 C508 1.397 . S
C509 C510 1.385 . S
C510 H493 0.940 . S
C510 C509 1.385 . S
C510 C511 1.388 . S
C511 H490 0.939 . S
C511 C506 1.391 . S
C511 C510 1.388 . S
P512 O523 1.490 . S
P512 C526 1.812 . S
P512 C532 1.803 . S
P512 C538 1.819 . S
H513 C527 0.941 . S
H514 C528 0.939 . S
H515 C530 0.940 . S
H516 C531 0.940 . S
H517 C533 0.939 . S
H518 C534 0.942 . S
H519 C536 0.940 . S
H520 C537 0.939 . S
H521 C539 0.941 . S
H522 C543 0.939 . S
O523 P512 1.490 . S
H524 C540 0.939 . S
H525 C542 0.940 1_655 S
C526 P512 1.812 . S
C526 C527 1.389 . S
C526 C531 1.391 . S
C527 H513 0.941 . S
C527 C526 1.389 . S
C527 C528 1.397 . S
C528 H514 0.939 . S
C528 C527 1.397 . S
C528 C529 1.378 . S
C529 C528 1.378 . S
C529 C530 1.378 . S
C530 H515 0.940 . S
C530 C529 1.378 . S
C530 C531 1.396 . S
C531 H516 0.940 . S
C531 C526 1.391 . S
C531 C530 1.396 . S
C532 P512 1.803 . S
C532 C533 1.378 . S
C532 C537 1.400 . S
C533 H517 0.939 . S
C533 C532 1.378 . S
C533 C534 1.361 . S
C534 H518 0.942 . S
C534 C533 1.361 . S
C534 C535 1.369 . S
C535 C534 1.369 . S
C535 C536 1.404 . S
C536 H519 0.940 . S
C536 C535 1.404 . S
C536 C537 1.389 . S
C537 H520 0.939 . S
C537 C532 1.400 . S
C537 C536 1.389 . S
C538 P512 1.819 . S
C538 C539 1.391 . S
C538 C543 1.391 . S
C539 H521 0.941 . S
C539 C538 1.391 . S
C539 C540 1.396 . S
C540 H524 0.939 . S
C540 C539 1.396 . S
C540 C541 1.397 . S
C541 C540 1.397 . S
C541 C542 1.385 . S
C542 H525 0.940 1_455 S
C542 C541 1.385 . S
C542 C543 1.388 . S
C543 H522 0.939 . S
C543 C538 1.391 . S
C543 C542 1.388 . S
P544 O555 1.490 . S
P544 C558 1.812 . S
P544 C564 1.803 . S
P544 C570 1.819 . S
H545 C559 0.941 . S
H546 C560 0.939 . S
H547 C562 0.940 . S
H548 C563 0.940 . S
H549 C565 0.939 . S
H550 C566 0.942 . S
H551 C568 0.940 . S
H552 C569 0.939 . S
H553 C571 0.941 . S
H554 C575 0.939 . S
O555 P544 1.490 . S
H556 C572 0.939 . S
H557 C574 0.940 . S
C558 P544 1.812 . S
C558 C559 1.389 . S
C558 C563 1.391 . S
C559 H545 0.941 . S
C559 C558 1.389 . S
C559 C560 1.397 . S
C560 H546 0.939 . S
C560 C559 1.397 . S
C560 C561 1.378 . S
C561 C560 1.378 . S
C561 C562 1.378 . S
C562 H547 0.940 . S
C562 C561 1.378 . S
C562 C563 1.396 . S
C563 H548 0.940 . S
C563 C558 1.391 . S
C563 C562 1.396 . S
C564 P544 1.803 . S
C564 C565 1.378 . S
C564 C569 1.400 . S
C565 H549 0.939 . S
C565 C564 1.378 . S
C565 C566 1.361 . S
C566 H550 0.942 . S
C566 C565 1.361 . S
C566 C567 1.369 . S
C567 C566 1.369 . S
C567 C568 1.404 . S
C568 H551 0.940 . S
C568 C567 1.404 . S
C568 C569 1.389 . S
C569 H552 0.939 . S
C569 C564 1.400 . S
C569 C568 1.389 . S
C570 P544 1.819 . S
C570 C571 1.391 . S
C570 C575 1.391 . S
C571 H553 0.941 . S
C571 C570 1.391 . S
C571 C572 1.396 . S
C572 H556 0.939 . S
C572 C571 1.396 . S
C572 C573 1.397 . S
C573 C572 1.397 . S
C573 C574 1.385 . S
C574 H557 0.940 . S
C574 C573 1.385 . S
C574 C575 1.388 . S
C575 H554 0.939 . S
C575 C570 1.391 . S
C575 C574 1.388 . S
Tb576 C586 2.825 . S
Tb576 O587 2.347 1_565 S
Tb576 O590 2.366 1_565 S
Tb576 O595 2.418 . S
Tb576 O596 2.393 . S
Tb576 O599 2.479 . S
Tb576 O600 2.471 1_565 S
Eu577 O588 2.418 . S
Eu577 O589 2.384 . S
Eu577 O592 2.479 . S
Eu577 O593 2.467 1_545 S
Eu577 O594 2.347 1_545 S
Eu577 O597 2.366 1_545 S
Eu577 C607 2.825 . S
C578 O594 1.259 . S
C578 O595 1.265 1_554 S
C579 O596 1.244 1_554 S
C579 O597 1.265 . S
C580 C582 1.380 . S
C580 C583 1.374 1_565 S
C580 C586 1.507 . S
C581 C582 1.384 . S
C581 C585 1.387 1_565 S
C581 H608 0.930 . S
C582 C580 1.380 . S
C582 C581 1.384 . S
C582 H609 0.931 . S
C583 C580 1.374 1_545 S
C583 C584 1.390 . S
C583 H610 0.930 . S
C584 C583 1.390 . S
C584 C585 1.391 . S
C584 H611 0.930 . S
C585 C581 1.387 1_545 S
C585 C584 1.391 . S
C586 Tb576 2.825 . S
C586 C580 1.507 . S
C586 O599 1.238 . S
C586 O600 1.247 1_565 S
O587 Tb576 2.347 1_545 S
O587 C591 1.271 . S
O588 Eu577 2.418 . S
O588 C591 1.234 1_554 S
O589 Eu577 2.384 . S
O589 C598 1.255 1_554 S
O590 Tb576 2.366 1_545 S
O590 C598 1.265 . S
C591 O587 1.271 . S
C591 O588 1.234 1_556 S
O592 Eu577 2.479 . S
O592 C607 1.238 . S
O593 Eu577 2.467 1_565 S
O593 C607 1.240 1_565 S
O594 Eu577 2.347 1_565 S
O594 C578 1.259 . S
O595 Tb576 2.418 . S
O595 C578 1.265 1_556 S
O596 Tb576 2.393 . S
O596 C579 1.244 1_556 S
O597 Eu577 2.366 1_565 S
O597 C579 1.265 . S
C598 O589 1.255 1_556 S
C598 O590 1.265 . S
O599 Tb576 2.479 . S
O599 C586 1.238 . S
O600 Tb576 2.471 1_545 S
O600 C586 1.247 1_545 S
C601 C604 1.380 . S
C601 C605 1.374 1_545 S
C601 C607 1.507 . S
C602 C603 1.387 1_565 S
C602 C606 1.391 . S
C603 C602 1.387 1_545 S
C603 C604 1.384 . S
C603 H612 0.930 . S
C604 C601 1.380 . S
C604 C603 1.384 . S
C604 H613 0.931 . S
C605 C601 1.374 1_565 S
C605 C606 1.390 . S
C605 H614 0.930 . S
C606 C602 1.391 . S
C606 C605 1.390 . S
C606 H615 0.930 . S
C607 Eu577 2.825 . S
C607 O592 1.238 . S
C607 O593 1.240 1_545 S
C607 C601 1.507 . S
H608 C581 0.930 . S
H609 C582 0.931 . S
H610 C583 0.930 . S
H611 C584 0.930 . S
H612 C603 0.930 . S
H613 C604 0.931 . S
H614 C605 0.930 . S
H615 C606 0.930 . S
Tb616 C626 2.825 . S
Tb616 O627 2.347 1_455 S
Tb616 O630 2.366 1_455 S
Tb616 O635 2.418 . S
Tb616 O636 2.384 1_556 S
Tb616 O639 2.479 . S
Tb616 O640 2.471 1_455 S
Eu617 O628 2.418 . S
Eu617 O629 2.384 . S
Eu617 O632 2.479 . S
Eu617 O633 2.471 1_655 S
Eu617 O634 2.347 1_655 S
Eu617 O637 2.366 1_655 S
Eu617 C647 2.825 . S
C618 O634 1.259 . S
C618 O635 1.265 1_554 S
C619 O636 1.255 . S
C619 O637 1.265 . S
C620 C622 1.393 . S
C620 C623 1.351 1_455 S
C620 C626 1.518 . S
C621 C622 1.384 . S
C621 C625 1.387 1_455 S
C621 H648 0.930 . S
C622 C620 1.393 . S
C622 C621 1.384 . S
C622 H649 0.931 . S
C623 C620 1.351 1_655 S
C623 C624 1.390 . S
C623 H650 0.930 . S
C624 C623 1.390 . S
C624 C625 1.391 . S
C624 H651 0.930 . S
C625 C621 1.387 1_655 S
C625 C624 1.391 . S
C626 Tb616 2.825 . S
C626 C620 1.518 . S
C626 O639 1.238 . S
C626 O640 1.247 1_455 S
O627 Tb616 2.347 1_655 S
O627 C631 1.259 . S
O628 Eu617 2.418 . S
O628 C631 1.265 1_554 S
O629 Eu617 2.384 . S
O629 C638 1.255 1_554 S
O630 Tb616 2.366 1_655 S
O630 C638 1.265 . S
C631 O627 1.259 . S
C631 O628 1.265 1_556 S
O632 Eu617 2.479 . S
O632 C647 1.238 . S
O633 Eu617 2.471 1_455 S
O633 C647 1.247 1_455 S
O634 Eu617 2.347 1_455 S
O634 C618 1.259 . S
O635 Tb616 2.418 . S
O635 C618 1.265 1_556 S
O636 Tb616 2.384 1_554 S
O636 C619 1.255 . S
O637 Eu617 2.366 1_455 S
O637 C619 1.265 . S
C638 O629 1.255 1_556 S
C638 O630 1.265 . S
O639 Tb616 2.479 . S
O639 C626 1.238 . S
O640 Tb616 2.471 1_655 S
O640 C626 1.247 1_655 S
C641 C644 1.377 1_455 S
C641 C645 1.378 . S
C641 C647 1.505 1_455 S
C642 C643 1.387 1_455 S
C642 C646 1.391 . S
C643 C642 1.387 1_655 S
C643 C644 1.384 . S
C643 H652 0.930 . S
C644 C641 1.377 1_655 S
C644 C643 1.384 . S
C644 H653 0.931 . S
C645 C641 1.378 . S
C645 C646 1.390 . S
C645 H654 0.930 . S
C646 C642 1.391 . S
C646 C645 1.390 . S
C646 H655 0.930 . S
C647 Eu617 2.825 . S
C647 O632 1.238 . S
C647 O633 1.247 1_655 S
C647 C641 1.505 1_655 S
H648 C621 0.930 . S
H649 C622 0.931 . S
H650 C623 0.930 . S
H651 C624 0.930 . S
H652 C643 0.930 . S
H653 C644 0.931 . S
H654 C645 0.930 . S
H655 C646 0.930 . S
Tb656 C666 2.825 . S
Tb656 O667 2.347 . S
Tb656 O670 2.366 . S
Tb656 O675 2.418 . S
Tb656 O676 2.384 . S
Tb656 O679 2.479 . S
Tb656 O680 2.471 . S
Eu657 O668 2.418 . S
Eu657 O669 2.384 1_556 S
Eu657 O672 2.479 . S
Eu657 O673 2.471 . S
Eu657 O674 2.347 . S
Eu657 O677 2.366 . S
Eu657 C687 2.825 . S
C658 O674 1.259 . S
C658 O675 1.265 1_556 S
C659 O676 1.255 1_556 S
C659 O677 1.265 . S
C660 C662 1.380 . S
C660 C663 1.374 . S
C660 C666 1.507 . S
C661 C662 1.384 . S
C661 C665 1.387 . S
C661 H688 0.930 . S
C662 C660 1.380 . S
C662 C661 1.384 . S
C662 H689 0.931 . S
C663 C660 1.374 . S
C663 C664 1.390 . S
C663 H690 0.930 . S
C664 C663 1.390 . S
C664 C665 1.391 . S
C664 H691 0.930 . S
C665 C661 1.387 . S
C665 C664 1.391 . S
C666 Tb656 2.825 . S
C666 C660 1.507 . S
C666 O679 1.238 . S
C666 O680 1.247 . S
O667 Tb656 2.347 . S
O667 C671 1.259 . S
O668 Eu657 2.418 . S
O668 C671 1.265 1_556 S
O669 Eu657 2.384 1_554 S
O669 C678 1.255 . S
O670 Tb656 2.366 . S
O670 C678 1.265 . S
C671 O667 1.259 . S
C671 O668 1.265 1_554 S
O672 Eu657 2.479 . S
O672 C687 1.238 . S
O673 Eu657 2.471 . S
O673 C687 1.247 . S
O674 Eu657 2.347 . S
O674 C658 1.259 . S
O675 Tb656 2.418 . S
O675 C658 1.265 1_554 S
O676 Tb656 2.384 . S
O676 C659 1.255 1_554 S
O677 Eu657 2.366 . S
O677 C659 1.265 . S
C678 O669 1.255 . S
C678 O670 1.265 . S
O679 Tb656 2.479 . S
O679 C666 1.238 . S
O680 Tb656 2.471 . S
O680 C666 1.247 . S
C681 C684 1.380 . S
C681 C685 1.374 . S
C681 C687 1.507 . S
C682 C683 1.387 . S
C682 C686 1.391 . S
C683 C682 1.387 . S
C683 C684 1.384 . S
C683 H692 0.930 . S
C684 C681 1.380 . S
C684 C683 1.384 . S
C684 H693 0.931 . S
C685 C681 1.374 . S
C685 C686 1.390 . S
C685 H694 0.930 . S
C686 C682 1.391 . S
C686 C685 1.390 . S
C686 H695 0.930 . S
C687 Eu657 2.825 . S
C687 O672 1.238 . S
C687 O673 1.247 . S
C687 C681 1.507 . S
H688 C661 0.930 . S
H689 C662 0.931 . S
H690 C663 0.930 . S
H691 C664 0.930 . S
H692 C683 0.930 . S
H693 C684 0.931 . S
H694 C685 0.930 . S
H695 C686 0.930 . S
Tb696 C706 2.825 . S
Tb696 O707 2.347 . S
Tb696 O710 2.366 . S
Tb696 O715 2.418 . S
Tb696 O716 2.384 . S
Tb696 O719 2.479 . S
Tb696 O720 2.471 . S
Eu697 O708 2.418 . S
Eu697 O709 2.384 . S
Eu697 O712 2.479 . S
Eu697 O713 2.471 . S
Eu697 O714 2.347 . S
Eu697 O717 2.366 . S
Eu697 C727 2.825 . S
C698 O714 1.259 . S
C698 O715 1.265 . S
C699 O716 1.255 . S
C699 O717 1.265 . S
C700 C702 1.380 . S
C700 C703 1.374 . S
C700 C706 1.507 . S
C701 C702 1.384 . S
C701 C705 1.387 . S
C701 H728 0.930 . S
C702 C700 1.380 . S
C702 C701 1.384 . S
C702 H729 0.931 . S
C703 C700 1.374 . S
C703 C704 1.390 . S
C703 H730 0.930 . S
C704 C703 1.390 . S
C704 C705 1.391 . S
C704 H731 0.930 . S
C705 C701 1.387 . S
C705 C704 1.391 . S
C706 Tb696 2.825 . S
C706 C700 1.507 . S
C706 O719 1.238 . S
C706 O720 1.247 . S
O707 Tb696 2.347 . S
O707 C711 1.259 . S
O708 Eu697 2.418 . S
O708 C711 1.265 . S
O709 Eu697 2.384 . S
O709 C718 1.255 . S
O710 Tb696 2.366 . S
O710 C718 1.265 . S
C711 O707 1.259 . S
C711 O708 1.265 . S
O712 Eu697 2.479 . S
O712 C727 1.238 . S
O713 Eu697 2.471 . S
O713 C727 1.247 . S
O714 Eu697 2.347 . S
O714 C698 1.259 . S
O715 Tb696 2.418 . S
O715 C698 1.265 . S
O716 Tb696 2.384 . S
O716 C699 1.255 . S
O717 Eu697 2.366 . S
O717 C699 1.265 . S
C718 O709 1.255 . S
C718 O710 1.265 . S
O719 Tb696 2.479 . S
O719 C706 1.238 . S
O720 Tb696 2.471 . S
O720 C706 1.247 . S
C721 C724 1.380 . S
C721 C725 1.374 . S
C721 C727 1.507 . S
C722 C723 1.387 . S
C722 C726 1.391 . S
C723 C722 1.387 . S
C723 C724 1.384 . S
C723 H732 0.930 . S
C724 C721 1.380 . S
C724 C723 1.384 . S
C724 H733 0.931 . S
C725 C721 1.374 . S
C725 C726 1.390 . S
C725 H734 0.930 . S
C726 C722 1.391 . S
C726 C725 1.390 . S
C726 H735 0.930 . S
C727 Eu697 2.825 . S
C727 O712 1.238 . S
C727 O713 1.247 . S
C727 C721 1.507 . S
H728 C701 0.930 . S
H729 C702 0.931 . S
H730 C703 0.930 . S
H731 C704 0.930 . S
H732 C723 0.930 . S
H733 C724 0.931 . S
H734 C725 0.930 . S
H735 C726 0.930 . S
Tb736 C746 2.825 . S
Tb736 O747 2.347 . S
Tb736 O750 2.366 . S
Tb736 O755 2.418 . S
Tb736 O756 2.384 . S
Tb736 O759 2.479 . S
Tb736 O760 2.471 . S
Eu737 O748 2.418 . S
Eu737 O749 2.384 . S
Eu737 O752 2.479 . S
Eu737 O753 2.471 . S
Eu737 O754 2.347 . S
Eu737 O757 2.366 . S
Eu737 C767 2.825 . S
C738 O754 1.259 . S
C738 O755 1.265 . S
C739 O756 1.255 . S
C739 O757 1.265 . S
C740 C742 1.380 . S
C740 C743 1.374 . S
C740 C746 1.507 . S
C741 C742 1.384 . S
C741 C745 1.387 . S
C741 H768 0.930 . S
C742 C740 1.380 . S
C742 C741 1.384 . S
C742 H769 0.931 . S
C743 C740 1.374 . S
C743 C744 1.390 . S
C743 H770 0.930 . S
C744 C743 1.390 . S
C744 C745 1.391 . S
C744 H771 0.930 . S
C745 C741 1.387 . S
C745 C744 1.391 . S
C746 Tb736 2.825 . S
C746 C740 1.507 . S
C746 O759 1.238 . S
C746 O760 1.247 . S
O747 Tb736 2.347 . S
O747 C751 1.259 . S
O748 Eu737 2.418 . S
O748 C751 1.265 . S
O749 Eu737 2.384 . S
O749 C758 1.255 . S
O750 Tb736 2.366 . S
O750 C758 1.265 . S
C751 O747 1.259 . S
C751 O748 1.265 . S
O752 Eu737 2.479 . S
O752 C767 1.238 . S
O753 Eu737 2.471 . S
O753 C767 1.247 . S
O754 Eu737 2.347 . S
O754 C738 1.259 . S
O755 Tb736 2.418 . S
O755 C738 1.265 . S
O756 Tb736 2.384 . S
O756 C739 1.255 . S
O757 Eu737 2.366 . S
O757 C739 1.265 . S
C758 O749 1.255 . S
C758 O750 1.265 . S
O759 Tb736 2.479 . S
O759 C746 1.238 . S
O760 Tb736 2.471 . S
O760 C746 1.247 . S
C761 C764 1.380 . S
C761 C765 1.374 . S
C761 C767 1.507 . S
C762 C763 1.387 . S
C762 C766 1.391 . S
C763 C762 1.387 . S
C763 C764 1.384 . S
C763 H772 0.930 . S
C764 C761 1.380 . S
C764 C763 1.384 . S
C764 H773 0.931 . S
C765 C761 1.374 . S
C765 C766 1.390 . S
C765 H774 0.930 . S
C766 C762 1.391 . S
C766 C765 1.390 . S
C766 H775 0.930 . S
C767 Eu737 2.825 . S
C767 O752 1.238 . S
C767 O753 1.247 . S
C767 C761 1.507 . S
H768 C741 0.930 . S
H769 C742 0.931 . S
H770 C743 0.930 . S
H771 C744 0.930 . S
H772 C763 0.930 . S
H773 C764 0.931 . S
H774 C765 0.930 . S
H775 C766 0.930 . S
Tb776 C786 2.825 . S
Tb776 O787 2.347 . S
Tb776 O790 2.366 . S
Tb776 O795 2.418 . S
Tb776 O796 2.384 . S
Tb776 O799 2.479 . S
Tb776 O800 2.471 . S
Eu777 O788 2.418 . S
Eu777 O789 2.384 . S
Eu777 O792 2.479 . S
Eu777 O793 2.471 . S
Eu777 O794 2.347 . S
Eu777 O797 2.366 . S
Eu777 C807 2.825 . S
C778 O794 1.259 . S
C778 O795 1.265 . S
C779 O796 1.255 . S
C779 O797 1.265 . S
C780 C782 1.380 . S
C780 C783 1.374 . S
C780 C786 1.507 . S
C781 C782 1.384 . S
C781 C785 1.387 . S
C781 H808 0.930 . S
C782 C780 1.380 . S
C782 C781 1.384 . S
C782 H809 0.931 . S
C783 C780 1.374 . S
C783 C784 1.390 . S
C783 H810 0.930 . S
C784 C783 1.390 . S
C784 C785 1.391 . S
C784 H811 0.930 . S
C785 C781 1.387 . S
C785 C784 1.391 . S
C786 Tb776 2.825 . S
C786 C780 1.507 . S
C786 O799 1.238 . S
C786 O800 1.247 . S
O787 Tb776 2.347 . S
O787 C791 1.259 . S
O788 Eu777 2.418 . S
O788 C791 1.265 . S
O789 Eu777 2.384 . S
O789 C798 1.255 . S
O790 Tb776 2.366 . S
O790 C798 1.265 . S
C791 O787 1.259 . S
C791 O788 1.265 . S
O792 Eu777 2.479 . S
O792 C807 1.238 . S
O793 Eu777 2.471 . S
O793 C807 1.247 . S
O794 Eu777 2.347 . S
O794 C778 1.259 . S
O795 Tb776 2.418 . S
O795 C778 1.265 . S
O796 Tb776 2.384 . S
O796 C779 1.255 . S
O797 Eu777 2.366 . S
O797 C779 1.265 . S
C798 O789 1.255 . S
C798 O790 1.265 . S
O799 Tb776 2.479 . S
O799 C786 1.238 . S
O800 Tb776 2.471 . S
O800 C786 1.247 . S
C801 C804 1.380 . S
C801 C805 1.374 . S
C801 C807 1.507 . S
C802 C803 1.387 . S
C802 C806 1.391 . S
C803 C802 1.387 . S
C803 C804 1.384 . S
C803 H812 0.930 . S
C804 C801 1.380 . S
C804 C803 1.384 . S
C804 H813 0.931 . S
C805 C801 1.374 . S
C805 C806 1.390 . S
C805 H814 0.930 . S
C806 C802 1.391 . S
C806 C805 1.390 . S
C806 H815 0.930 . S
C807 Eu777 2.825 . S
C807 O792 1.238 . S
C807 O793 1.247 . S
C807 C801 1.507 . S
H808 C781 0.930 . S
H809 C782 0.931 . S
H810 C783 0.930 . S
H811 C784 0.930 . S
H812 C803 0.930 . S
H813 C804 0.931 . S
H814 C805 0.930 . S
H815 C806 0.930 . S
Tb816 C826 2.825 . S
Tb816 O827 2.347 . S
Tb816 O830 2.366 . S
Tb816 O835 2.418 . S
Tb816 O836 2.384 . S
Tb816 O839 2.479 . S
Tb816 O840 2.471 . S
Eu817 O828 2.418 . S
Eu817 O829 2.384 . S
Eu817 O832 2.479 . S
Eu817 O833 2.471 . S
Eu817 O834 2.347 . S
Eu817 O837 2.366 . S
Eu817 C847 2.825 . S
C818 O834 1.259 . S
C818 O835 1.265 . S
C819 O836 1.255 . S
C819 O837 1.265 . S
C820 C822 1.380 . S
C820 C823 1.374 . S
C820 C826 1.507 . S
C821 C822 1.384 . S
C821 C825 1.387 . S
C821 H848 0.930 . S
C822 C820 1.380 . S
C822 C821 1.384 . S
C822 H849 0.931 . S
C823 C820 1.374 . S
C823 C824 1.390 . S
C823 H850 0.930 . S
C824 C823 1.390 . S
C824 C825 1.391 . S
C824 H851 0.930 . S
C825 C821 1.387 . S
C825 C824 1.391 . S
C826 Tb816 2.825 . S
C826 C820 1.507 . S
C826 O839 1.238 . S
C826 O840 1.247 . S
O827 Tb816 2.347 . S
O827 C831 1.259 . S
O828 Eu817 2.418 . S
O828 C831 1.265 . S
O829 Eu817 2.384 . S
O829 C838 1.255 . S
O830 Tb816 2.366 . S
O830 C838 1.265 . S
C831 O827 1.259 . S
C831 O828 1.265 . S
O832 Eu817 2.479 . S
O832 C847 1.238 . S
O833 Eu817 2.471 . S
O833 C847 1.247 . S
O834 Eu817 2.347 . S
O834 C818 1.259 . S
O835 Tb816 2.418 . S
O835 C818 1.265 . S
O836 Tb816 2.384 . S
O836 C819 1.255 . S
O837 Eu817 2.366 . S
O837 C819 1.265 . S
C838 O829 1.255 . S
C838 O830 1.265 . S
O839 Tb816 2.479 . S
O839 C826 1.238 . S
O840 Tb816 2.471 . S
O840 C826 1.247 . S
C841 C844 1.380 . S
C841 C845 1.374 . S
C841 C847 1.507 . S
C842 C843 1.387 . S
C842 C846 1.391 . S
C843 C842 1.387 . S
C843 C844 1.384 . S
C843 H852 0.930 . S
C844 C841 1.380 . S
C844 C843 1.384 . S
C844 H853 0.931 . S
C845 C841 1.374 . S
C845 C846 1.390 . S
C845 H854 0.930 . S
C846 C842 1.391 . S
C846 C845 1.390 . S
C846 H855 0.930 . S
C847 Eu817 2.825 . S
C847 O832 1.238 . S
C847 O833 1.247 . S
C847 C841 1.507 . S
H848 C821 0.930 . S
H849 C822 0.931 . S
H850 C823 0.930 . S
H851 C824 0.930 . S
H852 C843 0.930 . S
H853 C844 0.931 . S
H854 C845 0.930 . S
H855 C846 0.930 . S
Tb856 C866 2.825 . S
Tb856 O867 2.347 . S
Tb856 O870 2.366 . S
Tb856 O875 2.418 . S
Tb856 O876 2.384 . S
Tb856 O879 2.479 . S
Tb856 O880 2.471 . S
Eu857 O868 2.418 . S
Eu857 O869 2.384 . S
Eu857 O872 2.479 . S
Eu857 O873 2.471 . S
Eu857 O874 2.347 . S
Eu857 O877 2.366 . S
Eu857 C887 2.825 . S
C858 O874 1.259 . S
C858 O875 1.265 . S
C859 O876 1.255 . S
C859 O877 1.265 . S
C860 C862 1.380 . S
C860 C863 1.374 . S
C860 C866 1.507 . S
C861 C862 1.384 . S
C861 C865 1.387 . S
C861 H888 0.930 . S
C862 C860 1.380 . S
C862 C861 1.384 . S
C862 H889 0.931 . S
C863 C860 1.374 . S
C863 C864 1.390 . S
C863 H890 0.930 . S
C864 C863 1.390 . S
C864 C865 1.391 . S
C864 H891 0.930 . S
C865 C861 1.387 . S
C865 C864 1.391 . S
C866 Tb856 2.825 . S
C866 C860 1.507 . S
C866 O879 1.238 . S
C866 O880 1.247 . S
O867 Tb856 2.347 . S
O867 C871 1.259 . S
O868 Eu857 2.418 . S
O868 C871 1.265 . S
O869 Eu857 2.384 . S
O869 C878 1.255 . S
O870 Tb856 2.366 . S
O870 C878 1.265 . S
C871 O867 1.259 . S
C871 O868 1.265 . S
O872 Eu857 2.479 . S
O872 C887 1.238 . S
O873 Eu857 2.471 . S
O873 C887 1.247 . S
O874 Eu857 2.347 . S
O874 C858 1.259 . S
O875 Tb856 2.418 . S
O875 C858 1.265 . S
O876 Tb856 2.384 . S
O876 C859 1.255 . S
O877 Eu857 2.366 . S
O877 C859 1.265 . S
C878 O869 1.255 . S
C878 O870 1.265 . S
O879 Tb856 2.479 . S
O879 C866 1.238 . S
O880 Tb856 2.471 . S
O880 C866 1.247 . S
C881 C884 1.380 . S
C881 C885 1.374 . S
C881 C887 1.507 . S
C882 C883 1.387 . S
C882 C886 1.391 . S
C883 C882 1.387 . S
C883 C884 1.384 . S
C883 H892 0.930 . S
C884 C881 1.380 . S
C884 C883 1.384 . S
C884 H893 0.931 . S
C885 C881 1.374 . S
C885 C886 1.390 . S
C885 H894 0.930 . S
C886 C882 1.391 . S
C886 C885 1.390 . S
C886 H895 0.930 . S
C887 Eu857 2.825 . S
C887 O872 1.238 . S
C887 O873 1.247 . S
C887 C881 1.507 . S
H888 C861 0.930 . S
H889 C862 0.931 . S
H890 C863 0.930 . S
H891 C864 0.930 . S
H892 C883 0.930 . S
H893 C884 0.931 . S
H894 C885 0.930 . S
H895 C886 0.930 . S
Tb896 C906 2.825 . S
Tb896 O907 2.347 . S
Tb896 O910 2.366 . S
Tb896 O915 2.418 . S
Tb896 O916 2.384 . S
Tb896 O919 2.479 . S
Tb896 O920 2.471 . S
Eu897 O908 2.418 . S
Eu897 O909 2.384 . S
Eu897 O912 2.479 . S
Eu897 O913 2.471 . S
Eu897 O914 2.347 . S
Eu897 O917 2.366 . S
Eu897 C927 2.825 . S
C898 O914 1.259 . S
C898 O915 1.265 . S
C899 O916 1.255 . S
C899 O917 1.265 . S
C900 C902 1.380 . S
C900 C903 1.374 . S
C900 C906 1.507 . S
C901 C902 1.384 . S
C901 C905 1.387 . S
C901 H928 0.930 . S
C902 C900 1.380 . S
C902 C901 1.384 . S
C902 H929 0.931 . S
C903 C900 1.374 . S
C903 C904 1.390 . S
C903 H930 0.930 . S
C904 C903 1.390 . S
C904 C905 1.391 . S
C904 H931 0.930 . S
C905 C901 1.387 . S
C905 C904 1.391 . S
C906 Tb896 2.825 . S
C906 C900 1.507 . S
C906 O919 1.238 . S
C906 O920 1.247 . S
O907 Tb896 2.347 . S
O907 C911 1.259 . S
O908 Eu897 2.418 . S
O908 C911 1.265 . S
O909 Eu897 2.384 . S
O909 C918 1.255 . S
O910 Tb896 2.366 . S
O910 C918 1.265 . S
C911 O907 1.259 . S
C911 O908 1.265 . S
O912 Eu897 2.479 . S
O912 C927 1.238 . S
O913 Eu897 2.471 . S
O913 C927 1.247 . S
O914 Eu897 2.347 . S
O914 C898 1.259 . S
O915 Tb896 2.418 . S
O915 C898 1.265 . S
O916 Tb896 2.384 . S
O916 C899 1.255 . S
O917 Eu897 2.366 . S
O917 C899 1.265 . S
C918 O909 1.255 . S
C918 O910 1.265 . S
O919 Tb896 2.479 . S
O919 C906 1.238 . S
O920 Tb896 2.471 . S
O920 C906 1.247 . S
C921 C924 1.380 . S
C921 C925 1.374 . S
C921 C927 1.507 . S
C922 C923 1.387 . S
C922 C926 1.391 . S
C923 C922 1.387 . S
C923 C924 1.384 . S
C923 H932 0.930 . S
C924 C921 1.380 . S
C924 C923 1.384 . S
C924 H933 0.931 . S
C925 C921 1.374 . S
C925 C926 1.390 . S
C925 H934 0.930 . S
C926 C922 1.391 . S
C926 C925 1.390 . S
C926 H935 0.930 . S
C927 Eu897 2.825 . S
C927 O912 1.238 . S
C927 O913 1.247 . S
C927 C921 1.507 . S
H928 C901 0.930 . S
H929 C902 0.931 . S
H930 C903 0.930 . S
H931 C904 0.930 . S
H932 C923 0.930 . S
H933 C924 0.931 . S
H934 C925 0.930 . S
H935 C926 0.930 . S
C936 C937 1.363 . S
C936 C942 1.379 . S
C936 N944 1.356 . S
C937 C936 1.363 . S
C937 C943 1.363 . S
C938 C939 1.363 . S
C938 C943 1.379 . S
C938 N945 1.356 . S
C939 C938 1.363 . S
C939 C942 1.363 . S
N940 C942 1.356 . S
N940 H952 0.984 1_565 S
N940 H953 0.985 . S
N941 C943 1.356 . S
N941 H946 0.984 . S
N941 H947 0.985 . S
C942 C936 1.379 . S
C942 C939 1.363 . S
C942 N940 1.356 . S
C943 C937 1.363 . S
C943 C938 1.379 . S
C943 N941 1.356 . S
N944 C936 1.356 . S
N944 H950 0.984 . S
N944 H951 0.984 . S
N945 C938 1.356 . S
N945 H948 0.984 . S
N945 H949 0.985 . S
H946 N941 0.984 . S
H947 N941 0.985 . S
H948 N945 0.984 . S
H949 N945 0.985 . S
H950 N944 0.984 . S
H951 N944 0.984 . S
H952 N940 0.984 1_545 S
H953 N940 0.985 . S
C954 C955 1.363 . S
C954 C960 1.379 . S
C954 N962 1.356 . S
C955 C954 1.363 . S
C955 C961 1.363 . S
C956 C957 1.363 . S
C956 C961 1.379 . S
C956 N963 1.356 . S
C957 C956 1.363 . S
C957 C960 1.363 . S
N958 C960 1.356 . S
N958 H970 0.984 . S
N958 H971 0.985 . S
N959 C961 1.356 . S
N959 H964 0.984 . S
N959 H965 0.985 . S
C960 C954 1.379 . S
C960 C957 1.363 . S
C960 N958 1.356 . S
C961 C955 1.363 . S
C961 C956 1.379 . S
C961 N959 1.356 . S
N962 C954 1.356 . S
N962 H968 0.984 . S
N962 H969 0.984 . S
N963 C956 1.356 . S
N963 H966 0.984 . S
N963 H967 0.985 . S
H964 N959 0.984 . S
H965 N959 0.985 . S
H966 N963 0.984 . S
H967 N963 0.985 . S
H968 N962 0.984 . S
H969 N962 0.984 . S
H970 N958 0.984 . S
H971 N958 0.985 . S
C972 C973 1.363 . S
C972 C978 1.379 . S
C972 N980 1.356 1_554 S
C973 C972 1.363 . S
C973 C979 1.363 . S
C974 C975 1.363 . S
C974 C979 1.379 . S
C974 N981 1.356 . S
C975 C974 1.363 . S
C975 C978 1.363 . S
N976 C978 1.356 1_556 S
N976 H988 0.984 . S
N976 H989 0.985 . S
N977 C979 1.356 . S
N977 H982 0.984 . S
N977 H983 0.985 . S
C978 C972 1.379 . S
C978 C975 1.363 . S
C978 N976 1.356 1_554 S
C979 C973 1.363 . S
C979 C974 1.379 . S
C979 N977 1.356 . S
N980 C972 1.356 1_556 S
N980 H986 0.984 . S
N980 H987 0.984 1_556 S
N981 C974 1.356 . S
N981 H984 0.984 . S
N981 H985 0.985 . S
H982 N977 0.984 . S
H983 N977 0.985 . S
H984 N981 0.984 . S
H985 N981 0.985 . S
H986 N980 0.984 . S
H987 N980 0.984 1_554 S
H988 N976 0.984 . S
H989 N976 0.985 . S
C990 C991 1.363 . S
C990 C996 1.379 . S
C990 N998 1.356 1_556 S
C991 C990 1.363 . S
C991 C997 1.363 . S
C992 C993 1.363 . S
C992 C997 1.379 . S
C992 N999 1.356 . S
C993 C992 1.363 . S
C993 C996 1.363 . S
N994 C996 1.356 1_554 S
N994 H1006 0.984 . S
N994 H1007 0.985 . S
N995 C997 1.356 . S
N995 H1000 0.984 . S
N995 H1001 0.985 . S
C996 C990 1.379 . S
C996 C993 1.363 . S
C996 N994 1.356 1_556 S
C997 C991 1.363 . S
C997 C992 1.379 . S
C997 N995 1.356 . S
N998 C990 1.356 1_554 S
N998 H1004 0.984 . S
N998 H1005 0.984 1_554 S
N999 C992 1.356 . S
N999 H1002 0.984 . S
N999 H1003 0.985 . S
H1000 N995 0.984 . S
H1001 N995 0.985 . S
H1002 N999 0.984 . S
H1003 N999 0.985 . S
H1004 N998 0.984 . S
H1005 N998 0.984 1_556 S
H1006 N994 0.984 . S
H1007 N994 0.985 . S
C1008 C1009 1.363 . S
C1008 C1014 1.379 . S
C1008 N1016 1.356 . S
C1009 C1008 1.363 . S
C1009 C1015 1.363 . S
C1010 C1011 1.363 . S
C1010 C1015 1.379 . S
C1010 N1017 1.356 . S
C1011 C1010 1.363 . S
C1011 C1014 1.363 . S
N1012 C1014 1.356 . S
N1012 H1024 0.984 . S
N1012 H1025 0.985 . S
N1013 C1015 1.356 . S
N1013 H1018 0.984 . S
N1013 H1019 0.985 . S
C1014 C1008 1.379 . S
C1014 C1011 1.363 . S
C1014 N1012 1.356 . S
C1015 C1009 1.363 . S
C1015 C1010 1.379 . S
C1015 N1013 1.356 . S
N1016 C1008 1.356 . S
N1016 H1022 0.984 . S
N1016 H1023 0.984 . S
N1017 C1010 1.356 . S
N1017 H1020 0.984 . S
N1017 H1021 0.985 . S
H1018 N1013 0.984 . S
H1019 N1013 0.985 . S
H1020 N1017 0.984 . S
H1021 N1017 0.985 . S
H1022 N1016 0.984 . S
H1023 N1016 0.984 . S
H1024 N1012 0.984 . S
H1025 N1012 0.985 . S
C1026 C1027 1.363 . S
C1026 C1032 1.379 . S
C1026 N1034 1.356 . S
C1027 C1026 1.363 . S
C1027 C1033 1.363 . S
C1028 C1029 1.347 1_554 S
C1028 C1033 1.374 1_554 S
C1028 N1035 1.375 . S
C1029 C1028 1.347 1_556 S
C1029 C1032 1.363 . S
N1030 C1032 1.356 . S
N1030 H1042 0.984 . S
N1030 H1043 0.985 . S
N1031 C1033 1.356 1_554 S
N1031 H1036 0.984 1_554 S
N1031 H1037 0.985 . S
C1032 C1026 1.379 . S
C1032 C1029 1.363 . S
C1032 N1030 1.356 . S
C1033 C1027 1.363 . S
C1033 C1028 1.374 1_556 S
C1033 N1031 1.356 1_556 S
N1034 C1026 1.356 . S
N1034 H1040 0.984 . S
N1034 H1041 0.984 . S
N1035 C1028 1.375 . S
N1035 H1038 0.984 . S
N1035 H1039 0.985 . S
H1036 N1031 0.984 1_556 S
H1037 N1031 0.985 . S
H1038 N1035 0.984 . S
H1039 N1035 0.985 . S
H1040 N1034 0.984 . S
H1041 N1034 0.984 . S
H1042 N1030 0.984 . S
H1043 N1030 0.985 . S
C1044 C1045 1.363 . S
C1044 C1050 1.379 . S
C1044 N1052 1.356 . S
C1045 C1044 1.363 . S
C1045 C1051 1.363 . S
C1046 C1047 1.363 . S
C1046 C1051 1.379 . S
C1046 N1053 1.356 1_556 S
C1047 C1046 1.363 . S
C1047 C1050 1.363 . S
N1048 C1050 1.356 . S
N1048 H1060 0.984 . S
N1048 H1061 0.985 . S
N1049 C1051 1.356 . S
N1049 H1054 0.984 . S
N1049 H1055 0.985 1_556 S
C1050 C1044 1.379 . S
C1050 C1047 1.363 . S
C1050 N1048 1.356 . S
C1051 C1045 1.363 . S
C1051 C1046 1.379 . S
C1051 N1049 1.356 . S
N1052 C1044 1.356 . S
N1052 H1058 0.984 . S
N1052 H1059 0.984 . S
N1053 C1046 1.356 1_554 S
N1053 H1056 0.984 . S
N1053 H1057 0.985 . S
H1054 N1049 0.984 . S
H1055 N1049 0.985 1_554 S
H1056 N1053 0.984 . S
H1057 N1053 0.985 . S
H1058 N1052 0.984 . S
H1059 N1052 0.984 . S
H1060 N1048 0.984 . S
H1061 N1048 0.985 . S
C1062 C1063 1.363 . S
C1062 C1068 1.379 . S
C1062 N1070 1.356 . S
C1063 C1062 1.363 . S
C1063 C1069 1.363 . S
C1064 C1065 1.363 . S
C1064 C1069 1.379 . S
C1064 N1071 1.356 . S
C1065 C1064 1.363 . S
C1065 C1068 1.363 . S
N1066 C1068 1.356 . S
N1066 H1078 0.984 . S
N1066 H1079 0.985 . S
N1067 C1069 1.356 . S
N1067 H1072 0.984 . S
N1067 H1073 0.985 . S
C1068 C1062 1.379 . S
C1068 C1065 1.363 . S
C1068 N1066 1.356 . S
C1069 C1063 1.363 . S
C1069 C1064 1.379 . S
C1069 N1067 1.356 . S
N1070 C1062 1.356 . S
N1070 H1076 0.984 . S
N1070 H1077 0.984 . S
N1071 C1064 1.356 . S
N1071 H1074 0.984 . S
N1071 H1075 0.985 . S
H1072 N1067 0.984 . S
H1073 N1067 0.985 . S
H1074 N1071 0.984 . S
H1075 N1071 0.985 . S
H1076 N1070 0.984 . S
H1077 N1070 0.984 . S
H1078 N1066 0.984 . S
H1079 N1066 0.985 . S
C1080 C1081 1.363 . S
C1080 C1086 1.379 . S
C1080 N1088 1.356 . S
C1081 C1080 1.363 . S
C1081 C1087 1.394 . S
C1082 C1083 1.363 1_554 S
C1082 C1087 1.380 1_554 S
C1082 N1089 1.356 . S
C1083 C1082 1.363 1_556 S
C1083 C1086 1.363 . S
N1084 C1086 1.356 . S
N1084 H1096 0.984 . S
N1084 H1097 0.985 . S
N1085 C1087 1.331 1_554 S
N1085 H1090 0.984 . S
N1085 H1091 0.985 . S
C1086 C1080 1.379 . S
C1086 C1083 1.363 . S
C1086 N1084 1.356 . S
C1087 C1081 1.394 . S
C1087 C1082 1.380 1_556 S
C1087 N1085 1.331 1_556 S
N1088 C1080 1.356 . S
N1088 H1094 0.984 . S
N1088 H1095 0.984 . S
N1089 C1082 1.356 . S
N1089 H1092 0.984 . S
N1089 H1093 0.985 . S
H1090 N1085 0.984 . S
H1091 N1085 0.985 . S
H1092 N1089 0.984 . S
H1093 N1089 0.985 . S
H1094 N1088 0.984 . S
H1095 N1088 0.984 . S
H1096 N1084 0.984 . S
H1097 N1084 0.985 . S
C1098 C1099 1.363 . S
C1098 C1104 1.379 . S
C1098 N1106 1.356 . S
C1099 C1098 1.363 . S
C1099 C1105 1.363 . S
C1100 C1101 1.363 . S
C1100 C1105 1.379 . S
C1100 N1107 1.356 1_554 S
C1101 C1100 1.363 . S
C1101 C1104 1.363 . S
N1102 C1104 1.356 . S
N1102 H1114 0.984 . S
N1102 H1115 0.985 . S
N1103 C1105 1.356 . S
N1103 H1108 0.984 . S
N1103 H1109 0.985 1_554 S
C1104 C1098 1.379 . S
C1104 C1101 1.363 . S
C1104 N1102 1.356 . S
C1105 C1099 1.363 . S
C1105 C1100 1.379 . S
C1105 N1103 1.356 . S
N1106 C1098 1.356 . S
N1106 H1112 0.984 . S
N1106 H1113 0.984 . S
N1107 C1100 1.356 1_556 S
N1107 H1110 0.984 . S
N1107 H1111 0.985 . S
H1108 N1103 0.984 . S
H1109 N1103 0.985 1_556 S
H1110 N1107 0.984 . S
H1111 N1107 0.985 . S
H1112 N1106 0.984 . S
H1113 N1106 0.984 . S
H1114 N1102 0.984 . S
H1115 N1102 0.985 . S
C1116 C1117 1.363 . S
C1116 C1122 1.379 . S
C1116 N1124 1.356 . S
C1117 C1116 1.363 . S
C1117 C1123 1.363 . S
C1118 C1119 1.363 . S
C1118 C1123 1.379 . S
C1118 N1125 1.356 . S
C1119 C1118 1.363 . S
C1119 C1122 1.363 . S
N1120 C1122 1.356 . S
N1120 H1132 0.973 1_554 S
N1120 H1133 0.985 . S
N1121 C1123 1.356 . S
N1121 H1126 0.984 . S
N1121 H1127 0.985 . S
C1122 C1116 1.379 . S
C1122 C1119 1.363 . S
C1122 N1120 1.356 . S
C1123 C1117 1.363 . S
C1123 C1118 1.379 . S
C1123 N1121 1.356 . S
N1124 C1116 1.356 . S
N1124 H1130 0.984 . S
N1124 H1131 0.984 . S
N1125 C1118 1.356 . S
N1125 H1128 0.984 . S
N1125 H1129 0.985 . S
H1126 N1121 0.984 . S
H1127 N1121 0.985 . S
H1128 N1125 0.984 . S
H1129 N1125 0.985 . S
H1130 N1124 0.984 . S
H1131 N1124 0.984 . S
H1132 N1120 0.973 1_556 S
H1133 N1120 0.985 . S
C1134 C1135 1.363 . S
C1134 C1140 1.379 . S
C1134 N1142 1.356 . S
C1135 C1134 1.363 . S
C1135 C1141 1.363 . S
C1136 C1137 1.363 . S
C1136 C1141 1.379 . S
C1136 N1143 1.356 1_554 S
C1137 C1136 1.363 . S
C1137 C1140 1.363 . S
N1138 C1140 1.356 . S
N1138 H1150 0.984 . S
N1138 H1151 0.985 . S
N1139 C1141 1.356 1_556 S
N1139 H1144 0.984 1_556 S
N1139 H1145 0.985 . S
C1140 C1134 1.379 . S
C1140 C1137 1.363 . S
C1140 N1138 1.356 . S
C1141 C1135 1.363 . S
C1141 C1136 1.379 . S
C1141 N1139 1.356 1_554 S
N1142 C1134 1.356 . S
N1142 H1148 0.984 . S
N1142 H1149 0.984 . S
N1143 C1136 1.356 1_556 S
N1143 H1146 0.984 . S
N1143 H1147 0.985 . S
H1144 N1139 0.984 1_554 S
H1145 N1139 0.985 . S
H1146 N1143 0.984 . S
H1147 N1143 0.985 . S
H1148 N1142 0.984 . S
H1149 N1142 0.984 . S
H1150 N1138 0.984 . S
H1151 N1138 0.985 . S
C1152 C1153 1.363 1_455 S
C1152 C1158 1.379 . S
C1152 N1160 1.356 1_455 S
C1153 C1152 1.363 1_655 S
C1153 C1159 1.363 1_655 S
C1154 C1155 1.363 . S
C1154 C1159 1.379 . S
C1154 N1161 1.356 . S
C1155 C1154 1.363 . S
C1155 C1158 1.363 . S
N1156 C1158 1.356 . S
N1156 H1168 0.984 . S
N1156 H1169 0.985 . S
N1157 C1159 1.356 . S
N1157 H1162 0.984 1_455 S
N1157 H1163 0.985 . S
C1158 C1152 1.379 . S
C1158 C1155 1.363 . S
C1158 N1156 1.356 . S
C1159 C1153 1.363 1_455 S
C1159 C1154 1.379 . S
C1159 N1157 1.356 . S
N1160 C1152 1.356 1_655 S
N1160 H1166 0.984 . S
N1160 H1167 0.984 . S
N1161 C1154 1.356 . S
N1161 H1164 0.984 . S
N1161 H1165 0.985 . S
H1162 N1157 0.984 1_655 S
H1163 N1157 0.985 . S
H1164 N1161 0.984 . S
H1165 N1161 0.985 . S
H1166 N1160 0.984 . S
H1167 N1160 0.984 . S
H1168 N1156 0.984 . S
H1169 N1156 0.985 . S
C1170 C1171 1.363 . S
C1170 C1176 1.379 . S
C1170 N1178 1.356 . S
C1171 C1170 1.363 . S
C1171 C1177 1.363 . S
C1172 C1173 1.363 . S
C1172 C1177 1.379 . S
C1172 N1179 1.356 . S
C1173 C1172 1.363 . S
C1173 C1176 1.363 . S
N1174 C1176 1.356 . S
N1174 H1186 0.984 . S
N1174 H1187 0.985 . S
N1175 C1177 1.356 . S
N1175 H1180 0.984 . S
N1175 H1181 0.985 . S
C1176 C1170 1.379 . S
C1176 C1173 1.363 . S
C1176 N1174 1.356 . S
C1177 C1171 1.363 . S
C1177 C1172 1.379 . S
C1177 N1175 1.356 . S
N1178 C1170 1.356 . S
N1178 H1184 0.984 . S
N1178 H1185 0.984 . S
N1179 C1172 1.356 . S
N1179 H1182 0.984 . S
N1179 H1183 0.985 . S
H1180 N1175 0.984 . S
H1181 N1175 0.985 . S
H1182 N1179 0.984 . S
H1183 N1179 0.985 . S
H1184 N1178 0.984 . S
H1185 N1178 0.984 . S
H1186 N1174 0.984 . S
H1187 N1174 0.985 . S
C1188 C1189 1.352 1_565 S
C1188 C1194 1.391 . S
C1188 N1196 1.351 1_565 S
C1189 C1188 1.352 1_545 S
C1189 C1195 1.363 . S
C1190 C1191 1.363 . S
C1190 C1195 1.379 1_565 S
C1190 N1197 1.356 . S
C1191 C1190 1.363 . S
C1191 C1194 1.363 . S
N1192 C1194 1.356 . S
N1192 H1204 0.984 . S
N1192 H1205 0.985 . S
N1193 C1195 1.356 . S
N1193 H1198 0.984 . S
N1193 H1199 0.985 . S
C1194 C1188 1.391 . S
C1194 C1191 1.363 . S
C1194 N1192 1.356 . S
C1195 C1189 1.363 . S
C1195 C1190 1.379 1_545 S
C1195 N1193 1.356 . S
N1196 C1188 1.351 1_545 S
N1196 H1202 0.984 . S
N1196 H1203 0.984 . S
N1197 C1190 1.356 . S
N1197 H1200 0.984 . S
N1197 H1201 0.985 . S
H1198 N1193 0.984 . S
H1199 N1193 0.985 . S
H1200 N1197 0.984 . S
H1201 N1197 0.985 . S
H1202 N1196 0.984 . S
H1203 N1196 0.984 . S
H1204 N1192 0.984 . S
H1205 N1192 0.985 . S
C1206 C1207 1.363 . S
C1206 C1212 1.379 . S
C1206 N1214 1.356 . S
C1207 C1206 1.363 . S
C1207 C1213 1.363 . S
C1208 C1209 1.363 . S
C1208 C1213 1.379 . S
C1208 N1215 1.356 . S
C1209 C1208 1.363 . S
C1209 C1212 1.363 . S
N1210 C1212 1.356 . S
N1210 H1222 0.984 . S
N1210 H1223 0.985 . S
N1211 C1213 1.356 . S
N1211 H1216 0.984 . S
N1211 H1217 0.985 . S
C1212 C1206 1.379 . S
C1212 C1209 1.363 . S
C1212 N1210 1.356 . S
C1213 C1207 1.363 . S
C1213 C1208 1.379 . S
C1213 N1211 1.356 . S
N1214 C1206 1.356 . S
N1214 H1220 0.984 . S
N1214 H1221 0.984 . S
N1215 C1208 1.356 . S
N1215 H1218 0.984 . S
N1215 H1219 0.985 . S
H1216 N1211 0.984 . S
H1217 N1211 0.985 . S
H1218 N1215 0.984 . S
H1219 N1215 0.985 . S
H1220 N1214 0.984 . S
H1221 N1214 0.984 . S
H1222 N1210 0.984 . S
H1223 N1210 0.985 . S
C1224 C1225 1.363 . S
C1224 C1230 1.379 . S
C1224 N1232 1.356 . S
C1225 C1224 1.363 . S
C1225 C1231 1.363 . S
C1226 C1227 1.363 . S
C1226 C1231 1.379 . S
C1226 N1233 1.356 . S
C1227 C1226 1.363 . S
C1227 C1230 1.363 . S
N1228 C1230 1.356 . S
N1228 H1240 0.984 . S
N1228 H1241 0.985 . S
N1229 C1231 1.356 . S
N1229 H1234 0.984 . S
N1229 H1235 0.985 . S
C1230 C1224 1.379 . S
C1230 C1227 1.363 . S
C1230 N1228 1.356 . S
C1231 C1225 1.363 . S
C1231 C1226 1.379 . S
C1231 N1229 1.356 . S
N1232 C1224 1.356 . S
N1232 H1238 0.984 . S
N1232 H1239 0.984 . S
N1233 C1226 1.356 . S
N1233 H1236 0.984 . S
N1233 H1237 0.985 . S
H1234 N1229 0.984 . S
H1235 N1229 0.985 . S
H1236 N1233 0.984 . S
H1237 N1233 0.985 . S
H1238 N1232 0.984 . S
H1239 N1232 0.984 . S
H1240 N1228 0.984 . S
H1241 N1228 0.985 . S
C1242 C1243 1.363 . S
C1242 C1248 1.379 . S
C1242 N1250 1.356 . S
C1243 C1242 1.363 . S
C1243 C1249 1.363 . S
C1244 C1245 1.363 . S
C1244 C1249 1.379 . S
C1244 N1251 1.356 . S
C1245 C1244 1.363 . S
C1245 C1248 1.363 . S
N1246 C1248 1.356 . S
N1246 H1258 0.984 . S
N1246 H1259 0.985 . S
N1247 C1249 1.356 . S
N1247 H1252 0.984 . S
N1247 H1253 0.985 . S
C1248 C1242 1.379 . S
C1248 C1245 1.363 . S
C1248 N1246 1.356 . S
C1249 C1243 1.363 . S
C1249 C1244 1.379 . S
C1249 N1247 1.356 . S
N1250 C1242 1.356 . S
N1250 H1256 0.984 . S
N1250 H1257 0.984 . S
N1251 C1244 1.356 . S
N1251 H1254 0.984 . S
N1251 H1255 0.985 . S
H1252 N1247 0.984 . S
H1253 N1247 0.985 . S
H1254 N1251 0.984 . S
H1255 N1251 0.985 . S
H1256 N1250 0.984 . S
H1257 N1250 0.984 . S
H1258 N1246 0.984 . S
H1259 N1246 0.985 . S
C1260 C1261 1.363 . S
C1260 C1266 1.379 . S
C1260 N1268 1.356 . S
C1261 C1260 1.363 . S
C1261 C1267 1.363 . S
C1262 C1263 1.363 . S
C1262 C1267 1.379 . S
C1262 N1269 1.356 . S
C1263 C1262 1.363 . S
C1263 C1266 1.363 . S
N1264 C1266 1.356 . S
N1264 H1276 0.984 . S
N1264 H1277 0.985 . S
N1265 C1267 1.356 . S
N1265 H1270 0.984 . S
N1265 H1271 0.985 . S
C1266 C1260 1.379 . S
C1266 C1263 1.363 . S
C1266 N1264 1.356 . S
C1267 C1261 1.363 . S
C1267 C1262 1.379 . S
C1267 N1265 1.356 . S
N1268 C1260 1.356 . S
N1268 H1274 0.984 . S
N1268 H1275 0.984 . S
N1269 C1262 1.356 . S
N1269 H1272 0.984 . S
N1269 H1273 0.985 . S
H1270 N1265 0.984 . S
H1271 N1265 0.985 . S
H1272 N1269 0.984 . S
H1273 N1269 0.985 . S
H1274 N1268 0.984 . S
H1275 N1268 0.984 . S
H1276 N1264 0.984 . S
H1277 N1264 0.985 . S
C1278 C1279 1.363 . S
C1278 C1284 1.379 . S
C1278 N1286 1.356 . S
C1279 C1278 1.363 . S
C1279 C1285 1.363 . S
C1280 C1281 1.363 . S
C1280 C1285 1.379 . S
C1280 N1287 1.356 . S
C1281 C1280 1.363 . S
C1281 C1284 1.363 . S
N1282 C1284 1.356 . S
N1282 H1294 0.984 . S
N1282 H1295 0.985 . S
N1283 C1285 1.356 . S
N1283 H1288 0.984 . S
N1283 H1289 0.985 . S
C1284 C1278 1.379 . S
C1284 C1281 1.363 . S
C1284 N1282 1.356 . S
C1285 C1279 1.363 . S
C1285 C1280 1.379 . S
C1285 N1283 1.356 . S
N1286 C1278 1.356 . S
N1286 H1292 0.984 . S
N1286 H1293 0.984 . S
N1287 C1280 1.356 . S
N1287 H1290 0.984 . S
N1287 H1291 0.985 . S
H1288 N1283 0.984 . S
H1289 N1283 0.985 . S
H1290 N1287 0.984 . S
H1291 N1287 0.985 . S
H1292 N1286 0.984 . S
H1293 N1286 0.984 . S
H1294 N1282 0.984 . S
H1295 N1282 0.985 . S
C1296 C1297 1.363 . S
C1296 C1302 1.379 . S
C1296 N1304 1.356 . S
C1297 C1296 1.363 . S
C1297 C1303 1.363 . S
C1298 C1299 1.363 . S
C1298 C1303 1.379 . S
C1298 N1305 1.356 . S
C1299 C1298 1.363 . S
C1299 C1302 1.363 . S
N1300 C1302 1.356 . S
N1300 H1312 0.984 . S
N1300 H1313 0.985 . S
N1301 C1303 1.356 . S
N1301 H1306 0.984 . S
N1301 H1307 0.985 . S
C1302 C1296 1.379 . S
C1302 C1299 1.363 . S
C1302 N1300 1.356 . S
C1303 C1297 1.363 . S
C1303 C1298 1.379 . S
C1303 N1301 1.356 . S
N1304 C1296 1.356 . S
N1304 H1310 0.984 . S
N1304 H1311 0.984 . S
N1305 C1298 1.356 . S
N1305 H1308 0.984 . S
N1305 H1309 0.985 . S
H1306 N1301 0.984 . S
H1307 N1301 0.985 . S
H1308 N1305 0.984 . S
H1309 N1305 0.985 . S
H1310 N1304 0.984 . S
H1311 N1304 0.984 . S
H1312 N1300 0.984 . S
H1313 N1300 0.985 . S
C1314 C1315 1.363 1_565 S
C1314 C1320 1.379 . S
C1314 N1322 1.356 1_565 S
C1315 C1314 1.363 1_545 S
C1315 C1321 1.363 1_545 S
C1316 C1317 1.363 . S
C1316 C1321 1.379 . S
C1316 N1323 1.356 . S
C1317 C1316 1.363 . S
C1317 C1320 1.363 . S
N1318 C1320 1.356 . S
N1318 H1330 0.984 . S
N1318 H1331 0.985 . S
N1319 C1321 1.356 1_545 S
N1319 H1324 0.984 . S
N1319 H1325 0.985 . S
C1320 C1314 1.379 . S
C1320 C1317 1.363 . S
C1320 N1318 1.356 . S
C1321 C1315 1.363 1_565 S
C1321 C1316 1.379 . S
C1321 N1319 1.356 1_565 S
N1322 C1314 1.356 1_545 S
N1322 H1328 0.984 . S
N1322 H1329 0.984 . S
N1323 C1316 1.356 . S
N1323 H1326 0.984 . S
N1323 H1327 0.985 . S
H1324 N1319 0.984 . S
H1325 N1319 0.985 . S
H1326 N1323 0.984 . S
H1327 N1323 0.985 . S
H1328 N1322 0.984 . S
H1329 N1322 0.984 . S
H1330 N1318 0.984 . S
H1331 N1318 0.985 . S
C1332 C1333 1.363 . S
C1332 C1338 1.379 . S
C1332 N1340 1.356 1_455 S
C1333 C1332 1.363 . S
C1333 C1339 1.363 . S
C1334 C1335 1.363 . S
C1334 C1339 1.379 . S
C1334 N1341 1.356 . S
C1335 C1334 1.363 . S
C1335 C1338 1.363 . S
N1336 C1338 1.356 . S
N1336 H1348 0.984 . S
N1336 H1349 0.985 . S
N1337 C1339 1.356 . S
N1337 H1342 0.984 . S
N1337 H1343 0.985 . S
C1338 C1332 1.379 . S
C1338 C1335 1.363 . S
C1338 N1336 1.356 . S
C1339 C1333 1.363 . S
C1339 C1334 1.379 . S
C1339 N1337 1.356 . S
N1340 C1332 1.356 1_655 S
N1340 H1346 0.984 . S
N1340 H1347 0.984 . S
N1341 C1334 1.356 . S
N1341 H1344 0.984 . S
N1341 H1345 0.985 . S
H1342 N1337 0.984 . S
H1343 N1337 0.985 . S
H1344 N1341 0.984 . S
H1345 N1341 0.985 . S
H1346 N1340 0.984 . S
H1347 N1340 0.984 . S
H1348 N1336 0.984 . S
H1349 N1336 0.985 . S
C1350 C1351 1.363 . S
C1350 C1356 1.379 . S
C1350 N1358 1.356 . S
C1351 C1350 1.363 . S
C1351 C1357 1.363 . S
C1352 C1353 1.363 . S
C1352 C1357 1.379 . S
C1352 N1359 1.356 . S
C1353 C1352 1.363 . S
C1353 C1356 1.363 . S
N1354 C1356 1.356 . S
N1354 H1366 0.984 . S
N1354 H1367 0.985 . S
N1355 C1357 1.356 . S
N1355 H1360 0.984 . S
N1355 H1361 0.985 . S
C1356 C1350 1.379 . S
C1356 C1353 1.363 . S
C1356 N1354 1.356 . S
C1357 C1351 1.363 . S
C1357 C1352 1.379 . S
C1357 N1355 1.356 . S
N1358 C1350 1.356 . S
N1358 H1364 0.984 . S
N1358 H1365 0.984 . S
N1359 C1352 1.356 . S
N1359 H1362 0.984 . S
N1359 H1363 0.985 . S
H1360 N1355 0.984 . S
H1361 N1355 0.985 . S
H1362 N1359 0.984 . S
H1363 N1359 0.985 . S
H1364 N1358 0.984 . S
H1365 N1358 0.984 . S
H1366 N1354 0.984 . S
H1367 N1354 0.985 . S
C1368 C1369 1.363 . S
C1368 C1374 1.379 . S
C1368 N1376 1.356 . S
C1369 C1368 1.363 . S
C1369 C1375 1.363 . S
C1370 C1371 1.363 . S
C1370 C1375 1.379 . S
C1370 N1377 1.356 . S
C1371 C1370 1.363 . S
C1371 C1374 1.363 . S
N1372 C1374 1.356 . S
N1372 H1384 0.984 . S
N1372 H1385 0.985 . S
N1373 C1375 1.356 . S
N1373 H1378 0.984 . S
N1373 H1379 0.985 . S
C1374 C1368 1.379 . S
C1374 C1371 1.363 . S
C1374 N1372 1.356 . S
C1375 C1369 1.363 . S
C1375 C1370 1.379 . S
C1375 N1373 1.356 . S
N1376 C1368 1.356 . S
N1376 H1382 0.984 . S
N1376 H1383 0.984 . S
N1377 C1370 1.356 . S
N1377 H1380 0.984 . S
N1377 H1381 0.985 . S
H1378 N1373 0.984 . S
H1379 N1373 0.985 . S
H1380 N1377 0.984 . S
H1381 N1377 0.985 . S
H1382 N1376 0.984 . S
H1383 N1376 0.984 . S
H1384 N1372 0.984 . S
H1385 N1372 0.985 . S
C1386 C1387 1.363 . S
C1386 C1392 1.379 . S
C1386 N1394 1.356 . S
C1387 C1386 1.363 . S
C1387 C1393 1.363 . S
C1388 C1389 1.363 . S
C1388 C1393 1.379 . S
C1388 N1395 1.356 . S
C1389 C1388 1.363 . S
C1389 C1392 1.363 . S
N1390 C1392 1.356 . S
N1390 H1402 0.984 . S
N1390 H1403 0.985 . S
N1391 C1393 1.356 . S
N1391 H1396 0.984 . S
N1391 H1397 0.985 . S
C1392 C1386 1.379 . S
C1392 C1389 1.363 . S
C1392 N1390 1.356 . S
C1393 C1387 1.363 . S
C1393 C1388 1.379 . S
C1393 N1391 1.356 . S
N1394 C1386 1.356 . S
N1394 H1400 0.984 . S
N1394 H1401 0.984 . S
N1395 C1388 1.356 . S
N1395 H1398 0.984 . S
N1395 H1399 0.985 . S
H1396 N1391 0.984 . S
H1397 N1391 0.985 . S
H1398 N1395 0.984 . S
H1399 N1395 0.985 . S
H1400 N1394 0.984 . S
H1401 N1394 0.984 . S
H1402 N1390 0.984 . S
H1403 N1390 0.985 . S
C1404 C1405 1.363 . S
C1404 C1410 1.379 . S
C1404 N1412 1.356 . S
C1405 C1404 1.363 . S
C1405 C1411 1.363 . S
C1406 C1407 1.363 . S
C1406 C1411 1.379 . S
C1406 N1413 1.356 . S
C1407 C1406 1.363 . S
C1407 C1410 1.363 . S
N1408 C1410 1.356 . S
N1408 H1420 0.984 . S
N1408 H1421 0.985 . S
N1409 C1411 1.356 . S
N1409 H1414 0.984 . S
N1409 H1415 0.985 . S
C1410 C1404 1.379 . S
C1410 C1407 1.363 . S
C1410 N1408 1.356 . S
C1411 C1405 1.363 . S
C1411 C1406 1.379 . S
C1411 N1409 1.356 . S
N1412 C1404 1.356 . S
N1412 H1418 0.984 . S
N1412 H1419 0.984 . S
N1413 C1406 1.356 . S
N1413 H1416 0.984 . S
N1413 H1417 0.985 . S
H1414 N1409 0.984 . S
H1415 N1409 0.985 . S
H1416 N1413 0.984 . S
H1417 N1413 0.985 . S
H1418 N1412 0.984 . S
H1419 N1412 0.984 . S
H1420 N1408 0.984 . S
H1421 N1408 0.985 . S
C1422 C1423 1.363 1_545 S
C1422 C1428 1.379 . S
C1422 N1430 1.356 1_545 S
C1423 C1422 1.363 1_565 S
C1423 C1429 1.363 1_565 S
C1424 C1425 1.363 . S
C1424 C1429 1.379 . S
C1424 N1431 1.356 . S
C1425 C1424 1.363 . S
C1425 C1428 1.363 . S
N1426 C1428 1.356 . S
N1426 H1438 0.984 . S
N1426 H1439 0.985 . S
N1427 C1429 1.356 1_565 S
N1427 H1432 0.984 . S
N1427 H1433 0.985 . S
C1428 C1422 1.379 . S
C1428 C1425 1.363 . S
C1428 N1426 1.356 . S
C1429 C1423 1.363 1_545 S
C1429 C1424 1.379 . S
C1429 N1427 1.356 1_545 S
N1430 C1422 1.356 1_565 S
N1430 H1436 0.984 . S
N1430 H1437 0.984 . S
N1431 C1424 1.356 . S
N1431 H1434 0.984 . S
N1431 H1435 0.985 . S
H1432 N1427 0.984 . S
H1433 N1427 0.985 . S
H1434 N1431 0.984 . S
H1435 N1431 0.985 . S
H1436 N1430 0.984 . S
H1437 N1430 0.984 . S
H1438 N1426 0.984 . S
H1439 N1426 0.985 . S
C1440 C1441 1.363 . S
C1440 C1446 1.379 . S
C1440 N1448 1.356 . S
C1441 C1440 1.363 . S
C1441 C1447 1.363 . S
C1442 C1443 1.363 . S
C1442 C1447 1.379 . S
C1442 N1449 1.356 . S
C1443 C1442 1.363 . S
C1443 C1446 1.363 . S
N1444 C1446 1.356 . S
N1444 H1456 0.984 . S
N1444 H1457 0.985 . S
N1445 C1447 1.356 1_455 S
N1445 H1450 0.984 . S
N1445 H1451 0.985 . S
C1446 C1440 1.379 . S
C1446 C1443 1.363 . S
C1446 N1444 1.356 . S
C1447 C1441 1.363 . S
C1447 C1442 1.379 . S
C1447 N1445 1.356 1_655 S
N1448 C1440 1.356 . S
N1448 H1454 0.984 . S
N1448 H1455 0.984 1_655 S
N1449 C1442 1.356 . S
N1449 H1452 0.984 . S
N1449 H1453 0.985 . S
H1450 N1445 0.984 . S
H1451 N1445 0.985 . S
H1452 N1449 0.984 . S
H1453 N1449 0.985 . S
H1454 N1448 0.984 . S
H1455 N1448 0.984 1_455 S
H1456 N1444 0.984 . S
H1457 N1444 0.985 . S
C1458 C1459 1.363 . S
C1458 C1464 1.379 . S
C1458 N1466 1.356 . S
C1459 C1458 1.363 . S
C1459 C1465 1.363 . S
C1460 C1461 1.363 . S
C1460 C1465 1.379 . S
C1460 N1467 1.356 . S
C1461 C1460 1.363 . S
C1461 C1464 1.363 . S
N1462 C1464 1.356 . S
N1462 H1474 0.984 . S
N1462 H1475 0.985 . S
N1463 C1465 1.356 . S
N1463 H1468 0.984 . S
N1463 H1469 0.985 . S
C1464 C1458 1.379 . S
C1464 C1461 1.363 . S
C1464 N1462 1.356 . S
C1465 C1459 1.363 . S
C1465 C1460 1.379 . S
C1465 N1463 1.356 . S
N1466 C1458 1.356 . S
N1466 H1472 0.984 . S
N1466 H1473 0.984 . S
N1467 C1460 1.356 . S
N1467 H1470 0.984 . S
N1467 H1471 0.985 . S
H1468 N1463 0.984 . S
H1469 N1463 0.985 . S
H1470 N1467 0.984 . S
H1471 N1467 0.985 . S
H1472 N1466 0.984 . S
H1473 N1466 0.984 . S
H1474 N1462 0.984 . S
H1475 N1462 0.985 . S
C1476 C1477 1.363 1_655 S
C1476 C1482 1.379 . S
C1476 N1484 1.356 . S
C1477 C1476 1.363 1_455 S
C1477 C1483 1.363 1_455 S
C1478 C1479 1.363 . S
C1478 C1483 1.379 . S
C1478 N1485 1.356 . S
C1479 C1478 1.363 . S
C1479 C1482 1.363 . S
N1480 C1482 1.356 . S
N1480 H1492 0.984 . S
N1480 H1493 0.985 . S
N1481 C1483 1.356 1_455 S
N1481 H1486 0.984 . S
N1481 H1487 0.985 . S
C1482 C1476 1.379 . S
C1482 C1479 1.363 . S
C1482 N1480 1.356 . S
C1483 C1477 1.363 1_655 S
C1483 C1478 1.379 . S
C1483 N1481 1.356 1_655 S
N1484 C1476 1.356 . S
N1484 H1490 0.984 . S
N1484 H1491 0.984 1_655 S
N1485 C1478 1.356 . S
N1485 H1488 0.984 . S
N1485 H1489 0.985 . S
H1486 N1481 0.984 . S
H1487 N1481 0.985 . S
H1488 N1485 0.984 . S
H1489 N1485 0.985 . S
H1490 N1484 0.984 . S
H1491 N1484 0.984 1_455 S
H1492 N1480 0.984 . S
H1493 N1480 0.985 . S
C1494 C1495 1.363 . S
C1494 C1500 1.379 . S
C1494 N1502 1.356 . S
C1495 C1494 1.363 . S
C1495 C1501 1.363 . S
C1496 C1497 1.363 . S
C1496 C1501 1.379 . S
C1496 N1503 1.356 . S
C1497 C1496 1.363 . S
C1497 C1500 1.363 . S
N1498 C1500 1.356 . S
N1498 H1510 0.984 . S
N1498 H1511 0.985 . S
N1499 C1501 1.356 . S
N1499 H1504 0.984 . S
N1499 H1505 0.985 . S
C1500 C1494 1.379 . S
C1500 C1497 1.363 . S
C1500 N1498 1.356 . S
C1501 C1495 1.363 . S
C1501 C1496 1.379 . S
C1501 N1499 1.356 . S
N1502 C1494 1.356 . S
N1502 H1508 0.984 . S
N1502 H1509 0.984 . S
N1503 C1496 1.356 . S
N1503 H1506 0.984 . S
N1503 H1507 0.985 . S
H1504 N1499 0.984 . S
H1505 N1499 0.985 . S
H1506 N1503 0.984 . S
H1507 N1503 0.985 . S
H1508 N1502 0.984 . S
H1509 N1502 0.984 . S
H1510 N1498 0.984 . S
H1511 N1498 0.985 . S
C1512 C1513 1.363 . S
C1512 C1518 1.379 1_565 S
C1512 N1520 1.356 . S
C1513 C1512 1.363 . S
C1513 C1519 1.363 1_565 S
C1514 C1515 1.363 . S
C1514 C1519 1.379 . S
C1514 N1521 1.356 . S
C1515 C1514 1.363 . S
C1515 C1518 1.363 . S
N1516 C1518 1.356 . S
N1516 H1528 0.984 . S
N1516 H1529 0.985 . S
N1517 C1519 1.356 1_565 S
N1517 H1522 0.984 . S
N1517 H1523 0.985 . S
C1518 C1512 1.379 1_545 S
C1518 C1515 1.363 . S
C1518 N1516 1.356 . S
C1519 C1513 1.363 1_545 S
C1519 C1514 1.379 . S
C1519 N1517 1.356 1_545 S
N1520 C1512 1.356 . S
N1520 H1526 0.984 . S
N1520 H1527 0.984 . S
N1521 C1514 1.356 . S
N1521 H1524 0.984 . S
N1521 H1525 0.985 . S
H1522 N1517 0.984 . S
H1523 N1517 0.985 . S
H1524 N1521 0.984 . S
H1525 N1521 0.985 . S
H1526 N1520 0.984 . S
H1527 N1520 0.984 . S
H1528 N1516 0.984 . S
H1529 N1516 0.985 . S
C1530 C1531 1.363 . S
C1530 C1536 1.379 . S
C1530 N1538 1.356 . S
C1531 C1530 1.363 . S
C1531 C1537 1.363 . S
C1532 C1533 1.363 . S
C1532 C1537 1.379 . S
C1532 N1539 1.356 . S
C1533 C1532 1.363 . S
C1533 C1536 1.363 . S
N1534 C1536 1.356 . S
N1534 H1546 0.984 . S
N1534 H1547 0.985 . S
N1535 C1537 1.356 . S
N1535 H1540 0.984 . S
N1535 H1541 0.985 . S
C1536 C1530 1.379 . S
C1536 C1533 1.363 . S
C1536 N1534 1.356 . S
C1537 C1531 1.363 . S
C1537 C1532 1.379 . S
C1537 N1535 1.356 . S
N1538 C1530 1.356 . S
N1538 H1544 0.984 . S
N1538 H1545 0.984 . S
N1539 C1532 1.356 . S
N1539 H1542 0.984 . S
N1539 H1543 0.985 . S
H1540 N1535 0.984 . S
H1541 N1535 0.985 . S
H1542 N1539 0.984 . S
H1543 N1539 0.985 . S
H1544 N1538 0.984 . S
H1545 N1538 0.984 . S
H1546 N1534 0.984 . S
H1547 N1534 0.985 . S
C1548 C1549 1.363 . S
C1548 C1554 1.379 . S
C1548 N1556 1.356 . S
C1549 C1548 1.363 . S
C1549 C1555 1.363 . S
C1550 C1551 1.363 . S
C1550 C1555 1.379 . S
C1550 N1557 1.356 . S
C1551 C1550 1.363 . S
C1551 C1554 1.363 . S
N1552 C1554 1.356 . S
N1552 H1564 0.984 . S
N1552 H1565 0.985 . S
N1553 C1555 1.356 . S
N1553 H1558 0.984 . S
N1553 H1559 0.985 . S
C1554 C1548 1.379 . S
C1554 C1551 1.363 . S
C1554 N1552 1.356 . S
C1555 C1549 1.363 . S
C1555 C1550 1.379 . S
C1555 N1553 1.356 . S
N1556 C1548 1.356 . S
N1556 H1562 0.984 . S
N1556 H1563 0.984 . S
N1557 C1550 1.356 . S
N1557 H1560 0.984 . S
N1557 H1561 0.985 . S
H1558 N1553 0.984 . S
H1559 N1553 0.985 . S
H1560 N1557 0.984 . S
H1561 N1557 0.985 . S
H1562 N1556 0.984 . S
H1563 N1556 0.984 . S
H1564 N1552 0.984 . S
H1565 N1552 0.985 . S
C1566 C1567 1.363 . S
C1566 C1572 1.379 . S
C1566 N1574 1.356 . S
C1567 C1566 1.363 . S
C1567 C1573 1.363 . S
C1568 C1569 1.363 . S
C1568 C1573 1.379 . S
C1568 N1575 1.356 . S
C1569 C1568 1.363 . S
C1569 C1572 1.363 . S
N1570 C1572 1.356 . S
N1570 H1582 0.984 . S
N1570 H1583 0.985 . S
N1571 C1573 1.356 . S
N1571 H1576 0.984 . S
N1571 H1577 0.985 . S
C1572 C1566 1.379 . S
C1572 C1569 1.363 . S
C1572 N1570 1.356 . S
C1573 C1567 1.363 . S
C1573 C1568 1.379 . S
C1573 N1571 1.356 . S
N1574 C1566 1.356 . S
N1574 H1580 0.984 . S
N1574 H1581 0.984 . S
N1575 C1568 1.356 . S
N1575 H1578 0.984 . S
N1575 H1579 0.985 . S
H1576 N1571 0.984 . S
H1577 N1571 0.985 . S
H1578 N1575 0.984 . S
H1579 N1575 0.985 . S
H1580 N1574 0.984 . S
H1581 N1574 0.984 . S
H1582 N1570 0.984 . S
H1583 N1570 0.985 . S
C1584 C1585 1.363 . S
C1584 C1590 1.378 1_565 S
C1584 N1592 1.366 . S
C1585 C1584 1.363 . S
C1585 C1591 1.363 . S
C1586 C1587 1.363 . S
C1586 C1591 1.379 . S
C1586 N1593 1.356 . S
C1587 C1586 1.363 . S
C1587 C1590 1.362 1_565 S
N1588 C1590 1.358 . S
N1588 H1600 0.984 . S
N1588 H1601 0.985 . S
N1589 C1591 1.356 . S
N1589 H1594 0.984 . S
N1589 H1595 0.985 . S
C1590 C1584 1.378 1_545 S
C1590 C1587 1.362 1_545 S
C1590 N1588 1.358 . S
C1591 C1585 1.363 . S
C1591 C1586 1.379 . S
C1591 N1589 1.356 . S
N1592 C1584 1.366 . S
N1592 H1598 0.956 1_565 S
N1592 H1599 1.003 . S
N1593 C1586 1.356 . S
N1593 H1596 0.984 . S
N1593 H1597 0.985 . S
H1594 N1589 0.984 . S
H1595 N1589 0.985 . S
H1596 N1593 0.984 . S
H1597 N1593 0.985 . S
H1598 N1592 0.956 1_545 S
H1599 N1592 1.003 . S
H1600 N1588 0.984 . S
H1601 N1588 0.985 . S
C1602 C1603 1.363 . S
C1602 C1608 1.379 . S
C1602 N1610 1.356 . S
C1603 C1602 1.363 . S
C1603 C1609 1.363 . S
C1604 C1605 1.363 . S
C1604 C1609 1.379 . S
C1604 N1611 1.356 . S
C1605 C1604 1.363 . S
C1605 C1608 1.363 . S
N1606 C1608 1.356 . S
N1606 H1618 0.984 . S
N1606 H1619 0.985 . S
N1607 C1609 1.356 . S
N1607 H1612 0.984 . S
N1607 H1613 0.985 . S
C1608 C1602 1.379 . S
C1608 C1605 1.363 . S
C1608 N1606 1.356 . S
C1609 C1603 1.363 . S
C1609 C1604 1.379 . S
C1609 N1607 1.356 . S
N1610 C1602 1.356 . S
N1610 H1616 0.984 . S
N1610 H1617 0.984 . S
N1611 C1604 1.356 . S
N1611 H1614 0.984 . S
N1611 H1615 0.985 . S
H1612 N1607 0.984 . S
H1613 N1607 0.985 . S
H1614 N1611 0.984 . S
H1615 N1611 0.985 . S
H1616 N1610 0.984 . S
H1617 N1610 0.984 . S
H1618 N1606 0.984 . S
H1619 N1606 0.985 . S
C1620 C1621 1.363 . S
C1620 C1626 1.379 . S
C1620 N1628 1.356 . S
C1621 C1620 1.363 . S
C1621 C1627 1.363 . S
C1622 C1623 1.363 . S
C1622 C1627 1.379 . S
C1622 N1629 1.356 . S
C1623 C1622 1.363 . S
C1623 C1626 1.363 . S
N1624 C1626 1.356 . S
N1624 H1636 0.984 . S
N1624 H1637 0.985 . S
N1625 C1627 1.356 . S
N1625 H1630 0.984 . S
N1625 H1631 0.985 . S
C1626 C1620 1.379 . S
C1626 C1623 1.363 . S
C1626 N1624 1.356 . S
C1627 C1621 1.363 . S
C1627 C1622 1.379 . S
C1627 N1625 1.356 . S
N1628 C1620 1.356 . S
N1628 H1634 0.984 . S
N1628 H1635 0.984 . S
N1629 C1622 1.356 . S
N1629 H1632 0.984 . S
N1629 H1633 0.985 . S
H1630 N1625 0.984 . S
H1631 N1625 0.985 . S
H1632 N1629 0.984 . S
H1633 N1629 0.985 . S
H1634 N1628 0.984 . S
H1635 N1628 0.984 . S
H1636 N1624 0.984 . S
H1637 N1624 0.985 . S
C1638 C1639 1.363 1_455 S
C1638 C1644 1.379 . S
C1638 N1646 1.356 . S
C1639 C1638 1.363 1_655 S
C1639 C1645 1.363 . S
C1640 C1641 1.363 . S
C1640 C1645 1.379 . S
C1640 N1647 1.356 . S
C1641 C1640 1.363 . S
C1641 C1644 1.363 1_655 S
N1642 C1644 1.356 . S
N1642 H1654 0.984 . S
N1642 H1655 0.985 . S
N1643 C1645 1.356 . S
N1643 H1648 0.984 . S
N1643 H1649 0.985 . S
C1644 C1638 1.379 . S
C1644 C1641 1.363 1_455 S
C1644 N1642 1.356 . S
C1645 C1639 1.363 . S
C1645 C1640 1.379 . S
C1645 N1643 1.356 . S
N1646 C1638 1.356 . S
N1646 H1652 0.984 . S
N1646 H1653 0.984 . S
N1647 C1640 1.356 . S
N1647 H1650 0.984 . S
N1647 H1651 0.985 . S
H1648 N1643 0.984 . S
H1649 N1643 0.985 . S
H1650 N1647 0.984 . S
H1651 N1647 0.985 . S
H1652 N1646 0.984 . S
H1653 N1646 0.984 . S
H1654 N1642 0.984 . S
H1655 N1642 0.985 . S
C1656 C1657 1.363 . S
C1656 C1662 1.379 . S
C1656 N1664 1.356 . S
C1657 C1656 1.363 . S
C1657 C1663 1.363 . S
C1658 C1659 1.363 . S
C1658 C1663 1.379 . S
C1658 N1665 1.356 . S
C1659 C1658 1.363 . S
C1659 C1662 1.363 . S
N1660 C1662 1.356 . S
N1660 H1672 0.984 . S
N1660 H1673 0.985 . S
N1661 C1663 1.356 . S
N1661 H1666 0.984 . S
N1661 H1667 0.985 . S
C1662 C1656 1.379 . S
C1662 C1659 1.363 . S
C1662 N1660 1.356 . S
C1663 C1657 1.363 . S
C1663 C1658 1.379 . S
C1663 N1661 1.356 . S
N1664 C1656 1.356 . S
N1664 H1670 0.984 . S
N1664 H1671 0.984 . S
N1665 C1658 1.356 . S
N1665 H1668 0.984 . S
N1665 H1669 0.985 . S
H1666 N1661 0.984 . S
H1667 N1661 0.985 . S
H1668 N1665 0.984 . S
H1669 N1665 0.985 . S
H1670 N1664 0.984 . S
H1671 N1664 0.984 . S
H1672 N1660 0.984 . S
H1673 N1660 0.985 . S
C1674 C1675 1.363 . S
C1674 C1680 1.379 . S
C1674 N1682 1.356 . S
C1675 C1674 1.363 . S
C1675 C1681 1.363 . S
C1676 C1677 1.363 . S
C1676 C1681 1.379 . S
C1676 N1683 1.356 1_545 S
C1677 C1676 1.363 . S
C1677 C1680 1.363 . S
N1678 C1680 1.356 . S
N1678 H1690 0.984 . S
N1678 H1691 0.985 . S
N1679 C1681 1.356 . S
N1679 H1684 0.984 . S
N1679 H1685 0.985 . S
C1680 C1674 1.379 . S
C1680 C1677 1.363 . S
C1680 N1678 1.356 . S
C1681 C1675 1.363 . S
C1681 C1676 1.379 . S
C1681 N1679 1.356 . S
N1682 C1674 1.356 . S
N1682 H1688 0.984 . S
N1682 H1689 0.984 . S
N1683 C1676 1.356 1_565 S
N1683 H1686 0.984 . S
N1683 H1687 0.985 . S
H1684 N1679 0.984 . S
H1685 N1679 0.985 . S
H1686 N1683 0.984 . S
H1687 N1683 0.985 . S
H1688 N1682 0.984 . S
H1689 N1682 0.984 . S
H1690 N1678 0.984 . S
H1691 N1678 0.985 . S
C1692 C1693 1.363 . S
C1692 C1698 1.379 . S
C1692 N1700 1.356 . S
C1693 C1692 1.363 . S
C1693 C1699 1.363 . S
C1694 C1695 1.363 . S
C1694 C1699 1.379 . S
C1694 N1701 1.356 . S
C1695 C1694 1.363 . S
C1695 C1698 1.363 . S
N1696 C1698 1.356 . S
N1696 H1708 0.984 . S
N1696 H1709 0.985 . S
N1697 C1699 1.356 . S
N1697 H1702 0.984 . S
N1697 H1703 0.985 . S
C1698 C1692 1.379 . S
C1698 C1695 1.363 . S
C1698 N1696 1.356 . S
C1699 C1693 1.363 . S
C1699 C1694 1.379 . S
C1699 N1697 1.356 . S
N1700 C1692 1.356 . S
N1700 H1706 0.984 . S
N1700 H1707 0.984 . S
N1701 C1694 1.356 . S
N1701 H1704 0.984 . S
N1701 H1705 0.985 . S
H1702 N1697 0.984 . S
H1703 N1697 0.985 . S
H1704 N1701 0.984 . S
H1705 N1701 0.985 . S
H1706 N1700 0.984 . S
H1707 N1700 0.984 . S
H1708 N1696 0.984 . S
H1709 N1696 0.985 . S
C1710 C1711 1.363 . S
C1710 C1716 1.379 . S
C1710 N1718 1.356 . S
C1711 C1710 1.363 . S
C1711 C1717 1.363 . S
C1712 C1713 1.363 . S
C1712 C1717 1.379 . S
C1712 N1719 1.356 . S
C1713 C1712 1.363 . S
C1713 C1716 1.363 . S
N1714 C1716 1.356 . S
N1714 H1726 0.984 . S
N1714 H1727 0.985 . S
N1715 C1717 1.356 . S
N1715 H1720 0.984 . S
N1715 H1721 0.985 . S
C1716 C1710 1.379 . S
C1716 C1713 1.363 . S
C1716 N1714 1.356 . S
C1717 C1711 1.363 . S
C1717 C1712 1.379 . S
C1717 N1715 1.356 . S
N1718 C1710 1.356 . S
N1718 H1724 0.984 . S
N1718 H1725 0.984 . S
N1719 C1712 1.356 . S
N1719 H1722 0.984 . S
N1719 H1723 0.985 . S
H1720 N1715 0.984 . S
H1721 N1715 0.985 . S
H1722 N1719 0.984 . S
H1723 N1719 0.985 . S
H1724 N1718 0.984 . S
H1725 N1718 0.984 . S
H1726 N1714 0.984 . S
H1727 N1714 0.985 . S
C1728 C1729 1.363 . S
C1728 C1734 1.379 . S
C1728 N1736 1.356 . S
C1729 C1728 1.363 . S
C1729 C1735 1.363 . S
C1730 C1731 1.363 . S
C1730 C1735 1.379 . S
C1730 N1737 1.356 . S
C1731 C1730 1.363 . S
C1731 C1734 1.363 . S
N1732 C1734 1.356 . S
N1732 H1744 0.984 . S
N1732 H1745 0.985 . S
N1733 C1735 1.356 . S
N1733 H1738 0.984 . S
N1733 H1739 0.985 . S
C1734 C1728 1.379 . S
C1734 C1731 1.363 . S
C1734 N1732 1.356 . S
C1735 C1729 1.363 . S
C1735 C1730 1.379 . S
C1735 N1733 1.356 . S
N1736 C1728 1.356 . S
N1736 H1742 0.984 . S
N1736 H1743 0.984 . S
N1737 C1730 1.356 . S
N1737 H1740 0.984 . S
N1737 H1741 0.985 . S
H1738 N1733 0.984 . S
H1739 N1733 0.985 . S
H1740 N1737 0.984 . S
H1741 N1737 0.985 . S
H1742 N1736 0.984 . S
H1743 N1736 0.984 . S
H1744 N1732 0.984 . S
H1745 N1732 0.985 . S
C1746 C1747 1.363 . S
C1746 C1752 1.379 . S
C1746 N1754 1.356 . S
C1747 C1746 1.363 . S
C1747 C1753 1.363 . S
C1748 C1749 1.363 . S
C1748 C1753 1.379 . S
C1748 N1755 1.356 . S
C1749 C1748 1.363 . S
C1749 C1752 1.363 . S
N1750 C1752 1.356 . S
N1750 H1762 0.984 . S
N1750 H1763 0.985 . S
N1751 C1753 1.356 . S
N1751 H1756 0.984 . S
N1751 H1757 0.985 . S
C1752 C1746 1.379 . S
C1752 C1749 1.363 . S
C1752 N1750 1.356 . S
C1753 C1747 1.363 . S
C1753 C1748 1.379 . S
C1753 N1751 1.356 . S
N1754 C1746 1.356 . S
N1754 H1760 0.984 . S
N1754 H1761 0.984 . S
N1755 C1748 1.356 . S
N1755 H1758 0.984 . S
N1755 H1759 0.985 . S
H1756 N1751 0.984 . S
H1757 N1751 0.985 . S
H1758 N1755 0.984 . S
H1759 N1755 0.985 . S
H1760 N1754 0.984 . S
H1761 N1754 0.984 . S
H1762 N1750 0.984 . S
H1763 N1750 0.985 . S
C1764 C1765 1.363 . S
C1764 C1770 1.379 . S
C1764 N1772 1.356 . S
C1765 C1764 1.363 . S
C1765 C1771 1.363 . S
C1766 C1767 1.363 . S
C1766 C1771 1.379 . S
C1766 N1773 1.356 . S
C1767 C1766 1.363 . S
C1767 C1770 1.363 . S
N1768 C1770 1.356 . S
N1768 H1780 0.984 . S
N1768 H1781 0.985 . S
N1769 C1771 1.356 . S
N1769 H1774 0.984 . S
N1769 H1775 0.985 . S
C1770 C1764 1.379 . S
C1770 C1767 1.363 . S
C1770 N1768 1.356 . S
C1771 C1765 1.363 . S
C1771 C1766 1.379 . S
C1771 N1769 1.356 . S
N1772 C1764 1.356 . S
N1772 H1778 0.984 . S
N1772 H1779 0.984 . S
N1773 C1766 1.356 . S
N1773 H1776 0.984 . S
N1773 H1777 0.985 . S
H1774 N1769 0.984 . S
H1775 N1769 0.985 . S
H1776 N1773 0.984 . S
H1777 N1773 0.985 . S
H1778 N1772 0.984 . S
H1779 N1772 0.984 . S
H1780 N1768 0.984 . S
H1781 N1768 0.985 . S
C1782 C1783 1.363 . S
C1782 C1788 1.379 . S
C1782 N1790 1.356 . S
C1783 C1782 1.363 . S
C1783 C1789 1.363 . S
C1784 C1785 1.363 . S
C1784 C1789 1.379 . S
C1784 N1791 1.356 . S
C1785 C1784 1.363 . S
C1785 C1788 1.363 . S
N1786 C1788 1.356 . S
N1786 H1798 0.984 . S
N1786 H1799 0.985 . S
N1787 C1789 1.356 . S
N1787 H1792 0.984 . S
N1787 H1793 0.985 . S
C1788 C1782 1.379 . S
C1788 C1785 1.363 . S
C1788 N1786 1.356 . S
C1789 C1783 1.363 . S
C1789 C1784 1.379 . S
C1789 N1787 1.356 . S
N1790 C1782 1.356 . S
N1790 H1796 0.984 . S
N1790 H1797 0.984 . S
N1791 C1784 1.356 . S
N1791 H1794 0.984 . S
N1791 H1795 0.985 . S
H1792 N1787 0.984 . S
H1793 N1787 0.985 . S
H1794 N1791 0.984 . S
H1795 N1791 0.985 . S
H1796 N1790 0.984 . S
H1797 N1790 0.984 . S
H1798 N1786 0.984 . S
H1799 N1786 0.985 . S
C1800 C1801 1.363 . S
C1800 C1806 1.379 . S
C1800 N1808 1.356 . S
C1801 C1800 1.363 . S
C1801 C1807 1.363 . S
C1802 C1803 1.363 . S
C1802 C1807 1.379 . S
C1802 N1809 1.356 . S
C1803 C1802 1.363 . S
C1803 C1806 1.363 . S
N1804 C1806 1.356 . S
N1804 H1816 0.984 . S
N1804 H1817 0.985 . S
N1805 C1807 1.356 . S
N1805 H1810 0.984 . S
N1805 H1811 0.985 . S
C1806 C1800 1.379 . S
C1806 C1803 1.363 . S
C1806 N1804 1.356 . S
C1807 C1801 1.363 . S
C1807 C1802 1.379 . S
C1807 N1805 1.356 . S
N1808 C1800 1.356 . S
N1808 H1814 0.984 . S
N1808 H1815 0.984 . S
N1809 C1802 1.356 . S
N1809 H1812 0.984 . S
N1809 H1813 0.985 . S
H1810 N1805 0.984 . S
H1811 N1805 0.985 . S
H1812 N1809 0.984 . S
H1813 N1809 0.985 . S
H1814 N1808 0.984 . S
H1815 N1808 0.984 . S
H1816 N1804 0.984 . S
H1817 N1804 0.985 . S
C1818 C1819 1.363 . S
C1818 C1824 1.379 . S
C1818 N1826 1.356 . S
C1819 C1818 1.363 . S
C1819 C1825 1.363 . S
C1820 C1821 1.363 . S
C1820 C1825 1.379 . S
C1820 N1827 1.356 . S
C1821 C1820 1.363 . S
C1821 C1824 1.363 . S
N1822 C1824 1.356 . S
N1822 H1834 0.984 . S
N1822 H1835 0.985 . S
N1823 C1825 1.356 . S
N1823 H1828 0.984 . S
N1823 H1829 0.985 . S
C1824 C1818 1.379 . S
C1824 C1821 1.363 . S
C1824 N1822 1.356 . S
C1825 C1819 1.363 . S
C1825 C1820 1.379 . S
C1825 N1823 1.356 . S
N1826 C1818 1.356 . S
N1826 H1832 0.984 . S
N1826 H1833 0.984 . S
N1827 C1820 1.356 . S
N1827 H1830 0.984 . S
N1827 H1831 0.985 . S
H1828 N1823 0.984 . S
H1829 N1823 0.985 . S
H1830 N1827 0.984 . S
H1831 N1827 0.985 . S
H1832 N1826 0.984 . S
H1833 N1826 0.984 . S
H1834 N1822 0.984 . S
H1835 N1822 0.985 . S
C1836 C1837 1.363 . S
C1836 C1842 1.379 . S
C1836 N1844 1.356 . S
C1837 C1836 1.363 . S
C1837 C1843 1.363 . S
C1838 C1839 1.363 . S
C1838 C1843 1.379 . S
C1838 N1845 1.356 . S
C1839 C1838 1.363 . S
C1839 C1842 1.363 . S
N1840 C1842 1.356 . S
N1840 H1852 0.984 . S
N1840 H1853 0.985 . S
N1841 C1843 1.356 . S
N1841 H1846 0.984 . S
N1841 H1847 0.985 . S
C1842 C1836 1.379 . S
C1842 C1839 1.363 . S
C1842 N1840 1.356 . S
C1843 C1837 1.363 . S
C1843 C1838 1.379 . S
C1843 N1841 1.356 . S
N1844 C1836 1.356 . S
N1844 H1850 0.984 . S
N1844 H1851 0.984 . S
N1845 C1838 1.356 . S
N1845 H1848 0.984 . S
N1845 H1849 0.985 . S
H1846 N1841 0.984 . S
H1847 N1841 0.985 . S
H1848 N1845 0.984 . S
H1849 N1845 0.985 . S
H1850 N1844 0.984 . S
H1851 N1844 0.984 . S
H1852 N1840 0.984 . S
H1853 N1840 0.985 . S
C1854 C1855 1.363 . S
C1854 C1860 1.379 . S
C1854 N1862 1.356 . S
C1855 C1854 1.363 . S
C1855 C1861 1.363 . S
C1856 C1857 1.363 . S
C1856 C1861 1.379 . S
C1856 N1863 1.356 . S
C1857 C1856 1.363 . S
C1857 C1860 1.363 . S
N1858 C1860 1.356 . S
N1858 H1870 0.984 . S
N1858 H1871 0.985 . S
N1859 C1861 1.356 . S
N1859 H1864 0.984 . S
N1859 H1865 0.985 . S
C1860 C1854 1.379 . S
C1860 C1857 1.363 . S
C1860 N1858 1.356 . S
C1861 C1855 1.363 . S
C1861 C1856 1.379 . S
C1861 N1859 1.356 . S
N1862 C1854 1.356 . S
N1862 H1868 0.984 . S
N1862 H1869 0.984 . S
N1863 C1856 1.356 . S
N1863 H1866 0.984 . S
N1863 H1867 0.985 . S
H1864 N1859 0.984 . S
H1865 N1859 0.985 . S
H1866 N1863 0.984 . S
H1867 N1863 0.985 . S
H1868 N1862 0.984 . S
H1869 N1862 0.984 . S
H1870 N1858 0.984 . S
H1871 N1858 0.985 . S
C1872 C1873 1.363 . S
C1872 C1878 1.379 . S
C1872 N1880 1.356 . S
C1873 C1872 1.363 . S
C1873 C1879 1.363 . S
C1874 C1875 1.363 . S
C1874 C1879 1.379 . S
C1874 N1881 1.356 . S
C1875 C1874 1.363 . S
C1875 C1878 1.363 . S
N1876 C1878 1.356 . S
N1876 H1888 0.984 . S
N1876 H1889 0.985 . S
N1877 C1879 1.356 . S
N1877 H1882 0.984 . S
N1877 H1883 0.985 . S
C1878 C1872 1.379 . S
C1878 C1875 1.363 . S
C1878 N1876 1.356 . S
C1879 C1873 1.363 . S
C1879 C1874 1.379 . S
C1879 N1877 1.356 . S
N1880 C1872 1.356 . S
N1880 H1886 0.984 . S
N1880 H1887 0.984 . S
N1881 C1874 1.356 . S
N1881 H1884 0.984 . S
N1881 H1885 0.985 . S
H1882 N1877 0.984 . S
H1883 N1877 0.985 . S
H1884 N1881 0.984 . S
H1885 N1881 0.985 . S
H1886 N1880 0.984 . S
H1887 N1880 0.984 . S
H1888 N1876 0.984 . S
H1889 N1876 0.985 . S
C1890 C1891 1.363 . S
C1890 C1896 1.379 . S
C1890 N1898 1.356 . S
C1891 C1890 1.363 . S
C1891 C1897 1.363 . S
C1892 C1893 1.363 . S
C1892 C1897 1.379 . S
C1892 N1899 1.356 . S
C1893 C1892 1.363 . S
C1893 C1896 1.363 . S
N1894 C1896 1.356 . S
N1894 H1906 0.984 . S
N1894 H1907 0.985 . S
N1895 C1897 1.356 . S
N1895 H1900 0.984 . S
N1895 H1901 0.985 . S
C1896 C1890 1.379 . S
C1896 C1893 1.363 . S
C1896 N1894 1.356 . S
C1897 C1891 1.363 . S
C1897 C1892 1.379 . S
C1897 N1895 1.356 . S
N1898 C1890 1.356 . S
N1898 H1904 0.984 . S
N1898 H1905 0.984 . S
N1899 C1892 1.356 . S
N1899 H1902 0.984 . S
N1899 H1903 0.985 . S
H1900 N1895 0.984 . S
H1901 N1895 0.985 . S
H1902 N1899 0.984 . S
H1903 N1899 0.985 . S
H1904 N1898 0.984 . S
H1905 N1898 0.984 . S
H1906 N1894 0.984 . S
H1907 N1894 0.985 . S
C937 C439 1.526 . S
C939 C579 1.669 . S
C955 C465 1.796 . S
C957 C619 1.779 . S
C973 C401 1.770 . S
C975 C671 1.728 . S
C991 C369 1.613 . S
C993 C631 1.574 . S
C1011 C659 1.548 . S
C1009 C305 1.548 . S
C1027 C343 1.328 . S
C1029 C591 1.499 . S
C1047 C598 1.700 . S
C1045 C375 1.726 . S
C1065 C638 1.748 . S
C1063 C311 1.766 . S
C1081 C337 1.599 . S
C1083 C658 1.730 . S
C1099 C433 1.477 . S
C1101 C618 1.575 . S
C1117 C471 1.520 . S
C1119 C678 1.515 . S
C1137 C578 1.520 . S
C1135 C407 1.543 . S
C1155 C699 1.669 . S
C1153 C55 1.526 . S
C1171 C81 1.796 . S
C1173 C739 1.779 . S
C1189 C17 1.770 . S
C1191 C791 1.728 . S
C1207 C561 1.613 . S
C1209 C751 1.574 . S
C1225 C497 1.548 . S
C1227 C779 1.548 . S
C1243 C535 1.327 . S
C1245 C711 1.486 . S
C1261 C567 1.726 . S
C1263 C718 1.700 . S
C1279 C503 1.766 . S
C1281 C758 1.748 . S
C1299 C778 1.730 . S
C1297 C529 1.599 . S
C1315 C49 1.477 . S
C1317 C738 1.575 . S
C1335 C798 1.515 . S
C1333 C87 1.520 1_455 S
C1351 C23 1.543 . S
C1353 C698 1.520 . S
C1371 C819 1.669 . S
C1369 C247 1.526 . S
C1387 C273 1.796 . S
C1389 C859 1.780 . S
C1407 C911 1.728 . S
C1405 C209 1.770 . S
C1425 C871 1.574 . S
C1423 C177 1.613 . S
C1443 C899 1.548 . S
C1441 C113 1.548 1_655 S
C1459 C151 1.327 . S
C1461 C831 1.486 . S
C1477 C183 1.727 . S
C1479 C838 1.700 . S
C1495 C119 1.766 . S
C1497 C878 1.748 . S
C1515 C898 1.730 . S
C1513 C145 1.599 . S
C1531 C241 1.477 . S
C1533 C858 1.575 . S
C1549 C279 1.521 . S
C1551 C918 1.515 . S
C1567 C215 1.543 . S
C1569 C818 1.520 . S
C1585 C509 1.412 . S
C1587 C602 1.422 . S
C1605 C642 1.757 . S
C1603 C541 1.663 . S
C1621 C573 1.560 . S
C1623 C665 1.554 . S
C1639 C221 1.820 . S
C1641 C625 1.773 . S
C1657 C253 1.463 . S
C1659 C682 1.532 . S
C1677 C585 1.418 . S
C1675 C285 1.401 . S
C1693 C125 1.412 . S
C1695 C722 1.422 . S
C1711 C157 1.663 . S
C1713 C762 1.757 . S
C1729 C189 1.560 . S
C1731 C785 1.554 . S
C1747 C413 1.820 . S
C1749 C745 1.773 . S
C1767 C802 1.533 . S
C1765 C445 1.464 . S
C1783 C477 1.401 . S
C1785 C705 1.418 . S
C1801 C317 1.412 . S
C1803 C842 1.422 . S
C1819 C349 1.663 . S
C1821 C882 1.757 . S
C1839 C905 1.554 . S
C1837 C381 1.560 . S
C1855 C29 1.820 . S
C1857 C865 1.773 . S
C1873 C61 1.463 . S
C1875 C922 1.532 . S
C1891 C93 1.401 . S
C1893 C825 1.418 . S
